# Generated by pormake.
# Topology ske, (6)-cn, num edge types: 1
# Building blocks:
#     Node 0, Type 0, BuildingBlock: VOLQOD_clean_sbu_1, # of connection points: 6
#     Node 1, Type 0, BuildingBlock: VOLQOD_clean_sbu_1, # of connection points: 6
#     Node 2, Type 0, BuildingBlock: VOLQOD_clean_sbu_1, # of connection points: 6
#     Node 3, Type 0, BuildingBlock: VOLQOD_clean_sbu_1, # of connection points: 6
#     Node 4, Type 0, BuildingBlock: VOLQOD_clean_sbu_1, # of connection points: 6
#     Node 5, Type 0, BuildingBlock: VOLQOD_clean_sbu_1, # of connection points: 6
#     Node 6, Type 0, BuildingBlock: VOLQOD_clean_sbu_1, # of connection points: 6
#     Node 7, Type 0, BuildingBlock: VOLQOD_clean_sbu_1, # of connection points: 6
#     Edge 8, Type (0, 0), BuildingBlock: MIFKUJ_clean_linker_0, # of connection points: 2
#     Edge 9, Type (0, 0), BuildingBlock: MIFKUJ_clean_linker_0, # of connection points: 2
#     Edge 10, Type (0, 0), BuildingBlock: MIFKUJ_clean_linker_0, # of connection points: 2
#     Edge 11, Type (0, 0), BuildingBlock: MIFKUJ_clean_linker_0, # of connection points: 2
#     Edge 12, Type (0, 0), BuildingBlock: MIFKUJ_clean_linker_0, # of connection points: 2
#     Edge 13, Type (0, 0), BuildingBlock: MIFKUJ_clean_linker_0, # of connection points: 2
#     Edge 14, Type (0, 0), BuildingBlock: MIFKUJ_clean_linker_0, # of connection points: 2
#     Edge 15, Type (0, 0), BuildingBlock: MIFKUJ_clean_linker_0, # of connection points: 2
#     Edge 16, Type (0, 0), BuildingBlock: MIFKUJ_clean_linker_0, # of connection points: 2
#     Edge 17, Type (0, 0), BuildingBlock: MIFKUJ_clean_linker_0, # of connection points: 2
#     Edge 18, Type (0, 0), BuildingBlock: MIFKUJ_clean_linker_0, # of connection points: 2
#     Edge 19, Type (0, 0), BuildingBlock: MIFKUJ_clean_linker_0, # of connection points: 2
#     Edge 20, Type (0, 0), BuildingBlock: MIFKUJ_clean_linker_0, # of connection points: 2
#     Edge 21, Type (0, 0), BuildingBlock: MIFKUJ_clean_linker_0, # of connection points: 2
#     Edge 22, Type (0, 0), BuildingBlock: MIFKUJ_clean_linker_0, # of connection points: 2
#     Edge 23, Type (0, 0), BuildingBlock: MIFKUJ_clean_linker_0, # of connection points: 2
#     Edge 24, Type (0, 0), BuildingBlock: MIFKUJ_clean_linker_0, # of connection points: 2
#     Edge 25, Type (0, 0), BuildingBlock: MIFKUJ_clean_linker_0, # of connection points: 2
#     Edge 26, Type (0, 0), BuildingBlock: MIFKUJ_clean_linker_0, # of connection points: 2
#     Edge 27, Type (0, 0), BuildingBlock: MIFKUJ_clean_linker_0, # of connection points: 2
#     Edge 28, Type (0, 0), BuildingBlock: MIFKUJ_clean_linker_0, # of connection points: 2
#     Edge 29, Type (0, 0), BuildingBlock: MIFKUJ_clean_linker_0, # of connection points: 2
#     Edge 30, Type (0, 0), BuildingBlock: MIFKUJ_clean_linker_0, # of connection points: 2
#     Edge 31, Type (0, 0), BuildingBlock: MIFKUJ_clean_linker_0, # of connection points: 2
# Relax obj value: 0.030
# Max RMSD: 0.058
# Mean RMSD: 0.058
data_MOF--net-ske--node1-VOLQOD_clean_sbu_1--edge1-MIFKUJ_clean_linker_0
_symmetry_space_group_name_H-M    P1
_symmetry_Int_Tables_number       1
_symmetry_cell_setting            triclinic
loop_
_symmetry_equiv_pos_as_xyz
'x, y, z'
_cell_length_a     83.59245
_cell_length_b     42.14854
_cell_length_c     21.494915
_cell_angle_alpha  90.144401
_cell_angle_beta   89.834012
_cell_angle_gamma 90.071781
loop_
_atom_site_label
_atom_site_type_symbol
_atom_site_fract_x
_atom_site_fract_y
_atom_site_fract_z
_atom_type_partial_charge
O0 O 0.11962 0.26879 0.71326 0.0
Zn1 Zn 0.11584 0.27218 0.62148 0.0
O2 O 0.12713 0.23829 0.57873 0.0
Zn3 Zn 0.14464 0.25483 0.52874 0.0
Zn4 Zn 0.13461 0.207 0.63699 0.0
Zn5 Zn 0.11247 0.21752 0.52472 0.0
O6 O 0.14112 0.24633 0.43723 0.0
O7 O 0.11547 0.23251 0.43855 0.0
O8 O 0.12342 0.31467 0.59095 0.0
O9 O 0.14473 0.3023 0.53384 0.0
O10 O 0.16601 0.23866 0.55922 0.0
O11 O 0.15841 0.20724 0.63675 0.0
O12 O 0.1276 0.16234 0.61524 0.0
O13 O 0.09191 0.26851 0.61 0.0
O14 O 0.11575 0.17099 0.52464 0.0
O15 O 0.09005 0.22545 0.55069 0.0
C16 C 0.12371 0.24539 0.74707 0.0
C17 C 0.12796 0.24105 0.40917 0.0
C18 C 0.16934 0.22022 0.6043 0.0
C19 C 0.13535 0.32283 0.55754 0.0
C20 C 0.12112 0.15212 0.56551 0.0
C21 C 0.08359 0.24726 0.58294 0.0
O22 O 0.12835 0.21921 0.72344 0.0
O23 O 0.87781 0.23463 0.72034 0.0
Zn24 Zn 0.8805 0.22664 0.62901 0.0
O25 O 0.86919 0.25876 0.58188 0.0
Zn26 Zn 0.85125 0.24054 0.53712 0.0
Zn27 Zn 0.86182 0.29204 0.63678 0.0
Zn28 Zn 0.88349 0.2766 0.52167 0.0
O29 O 0.85242 0.24984 0.44526 0.0
O30 O 0.87848 0.26003 0.43723 0.0
O31 O 0.87234 0.18312 0.60783 0.0
O32 O 0.85216 0.19312 0.54372 0.0
O33 O 0.83031 0.25456 0.57422 0.0
O34 O 0.838 0.29014 0.64446 0.0
O35 O 0.86845 0.33535 0.60674 0.0
O36 O 0.9042 0.22842 0.61227 0.0
O37 O 0.88147 0.32377 0.51931 0.0
O38 O 0.90616 0.26674 0.54197 0.0
C39 C 0.87417 0.25963 0.75059 0.0
C40 C 0.86506 0.25327 0.41276 0.0
C41 C 0.82709 0.27415 0.61769 0.0
C42 C 0.861 0.17364 0.57292 0.0
C43 C 0.87576 0.34392 0.55746 0.0
C44 C 0.91259 0.24655 0.57789 0.0
O45 O 0.86932 0.28461 0.72341 0.0
O46 O 0.11464 0.71121 0.25852 0.0
Zn47 Zn 0.11155 0.70459 0.34978 0.0
O48 O 0.12332 0.73659 0.39675 0.0
Zn49 Zn 0.1414 0.71709 0.43928 0.0
Zn50 Zn 0.13067 0.7696 0.34046 0.0
Zn51 Zn 0.10926 0.75564 0.45749 0.0
O52 O 0.14046 0.72449 0.53175 0.0
O53 O 0.11667 0.74731 0.54323 0.0
O54 O 0.11935 0.66066 0.36993 0.0
O55 O 0.14066 0.66996 0.4289 0.0
O56 O 0.16237 0.73329 0.40513 0.0
O57 O 0.15457 0.77 0.33779 0.0
O58 O 0.12342 0.81323 0.36627 0.0
O59 O 0.0878 0.70755 0.36693 0.0
O60 O 0.10895 0.80266 0.45021 0.0
O61 O 0.08683 0.74065 0.44739 0.0
C62 C 0.11877 0.73543 0.2271 0.0
C63 C 0.12945 0.73601 0.56594 0.0
C64 C 0.16559 0.75449 0.36479 0.0
C65 C 0.13124 0.65085 0.40137 0.0
C66 C 0.11494 0.82241 0.41216 0.0
C67 C 0.07992 0.72247 0.40853 0.0
O68 O 0.12385 0.76063 0.25311 0.0
O69 O 0.87526 0.78723 0.26238 0.0
Zn70 Zn 0.87971 0.79223 0.35359 0.0
O71 O 0.86887 0.75935 0.40059 0.0
Zn72 Zn 0.85026 0.77684 0.44277 0.0
Zn73 Zn 0.86275 0.72601 0.3431 0.0
Zn74 Zn 0.88319 0.74221 0.46186 0.0
O75 O 0.85054 0.76751 0.53475 0.0
O76 O 0.8755 0.75069 0.54785 0.0
O77 O 0.87219 0.83547 0.38078 0.0
O78 O 0.85069 0.82419 0.43767 0.0
O79 O 0.82996 0.76078 0.40357 0.0
O80 O 0.83889 0.7243 0.33727 0.0
O81 O 0.87073 0.68313 0.36946 0.0
O82 O 0.90361 0.7889 0.36576 0.0
O83 O 0.88429 0.6951 0.45493 0.0
O84 O 0.90539 0.75864 0.4501 0.0
C85 C 0.87285 0.7622 0.2305 0.0
C86 C 0.86198 0.75886 0.56985 0.0
C87 C 0.82743 0.73962 0.36228 0.0
C88 C 0.86021 0.84425 0.41332 0.0
C89 C 0.87902 0.67481 0.41622 0.0
C90 C 0.91185 0.77561 0.4081 0.0
O91 O 0.86998 0.73561 0.25619 0.0
O92 O 0.6138 0.76772 0.23345 0.0
Zn93 Zn 0.61044 0.77071 0.14132 0.0
O94 O 0.62455 0.74118 0.0986 0.0
Zn95 Zn 0.641 0.76458 0.05345 0.0
Zn96 Zn 0.6343 0.71268 0.1581 0.0
Zn97 Zn 0.61205 0.71609 0.04161 0.0
O98 O 0.63881 0.7578 0.96103 0.0
O99 O 0.61689 0.72802 0.9542 0.0
O100 O 0.6147 0.81556 0.11468 0.0
O101 O 0.638 0.8113 0.06531 0.0
O102 O 0.66322 0.75319 0.08267 0.0
O103 O 0.6578 0.72021 0.16033 0.0
O104 O 0.63173 0.66658 0.1347 0.0
O105 O 0.58726 0.76032 0.12545 0.0
O106 O 0.61725 0.67045 0.04887 0.0
O107 O 0.58866 0.72046 0.05797 0.0
C108 C 0.6193 0.74559 0.26744 0.0
C109 C 0.62816 0.74369 0.92894 0.0
C110 C 0.66777 0.73579 0.12764 0.0
C111 C 0.62665 0.82807 0.08718 0.0
C112 C 0.6249 0.65389 0.08803 0.0
C113 C 0.58054 0.73919 0.09205 0.0
O114 O 0.62617 0.72132 0.24423 0.0
O115 O 0.37412 0.72226 0.22522 0.0
Zn116 Zn 0.37715 0.71628 0.13357 0.0
O117 O 0.36681 0.75051 0.08865 0.0
Zn118 Zn 0.34863 0.734 0.04236 0.0
Zn119 Zn 0.35991 0.78299 0.14671 0.0
Zn120 Zn 0.38191 0.76945 0.03215 0.0
O121 O 0.35084 0.74325 0.95107 0.0
O122 O 0.37607 0.75986 0.94481 0.0
O123 O 0.36822 0.67392 0.10895 0.0
O124 O 0.34794 0.68658 0.04748 0.0
O125 O 0.32785 0.75067 0.07698 0.0
O126 O 0.33602 0.78287 0.15245 0.0
O127 O 0.36669 0.82691 0.12086 0.0
O128 O 0.40095 0.716 0.11762 0.0
O129 O 0.38162 0.81649 0.03801 0.0
O130 O 0.40415 0.75489 0.04916 0.0
C131 C 0.37168 0.74723 0.25726 0.0
C132 C 0.36302 0.75154 0.91926 0.0
C133 C 0.32484 0.76947 0.12204 0.0
C134 C 0.3565 0.66592 0.07467 0.0
C135 C 0.37521 0.83618 0.07522 0.0
C136 C 0.4099 0.73328 0.08367 0.0
O137 O 0.36781 0.77346 0.23229 0.0
O138 O 0.61515 0.21694 0.76186 0.0
Zn139 Zn 0.612 0.21202 0.85371 0.0
O140 O 0.62616 0.24098 0.89759 0.0
Zn141 Zn 0.64243 0.21764 0.9435 0.0
Zn142 Zn 0.63645 0.26959 0.83991 0.0
Zn143 Zn 0.6134 0.2659 0.9536 0.0
O144 O 0.6402 0.22537 0.03556 0.0
O145 O 0.61762 0.25309 0.04037 0.0
O146 O 0.61643 0.16694 0.87778 0.0
O147 O 0.63885 0.17094 0.9327 0.0
O148 O 0.66487 0.22754 0.91344 0.0
O149 O 0.65959 0.25928 0.8337 0.0
O150 O 0.63497 0.31551 0.86646 0.0
O151 O 0.58873 0.22138 0.87101 0.0
O152 O 0.61884 0.31145 0.94808 0.0
O153 O 0.5901 0.26192 0.93676 0.0
C154 C 0.62075 0.23969 0.72954 0.0
C155 C 0.62901 0.23843 0.06675 0.0
C156 C 0.6694 0.24345 0.86625 0.0
C157 C 0.62786 0.1543 0.90785 0.0
C158 C 0.62742 0.32803 0.91174 0.0
C159 C 0.58199 0.24273 0.90382 0.0
O160 O 0.62787 0.26318 0.75454 0.0
O161 O 0.37755 0.28056 0.77024 0.0
Zn162 Zn 0.37975 0.28533 0.86316 0.0
O163 O 0.36774 0.25226 0.90583 0.0
Zn164 Zn 0.34926 0.26991 0.94943 0.0
Zn165 Zn 0.36135 0.22081 0.84492 0.0
Zn166 Zn 0.38112 0.23151 0.96548 0.0
O167 O 0.35034 0.26206 0.04218 0.0
O168 O 0.37494 0.24275 0.0521 0.0
O169 O 0.37143 0.32836 0.88674 0.0
O170 O 0.34956 0.3173 0.94177 0.0
O171 O 0.32857 0.25378 0.91174 0.0
O172 O 0.33778 0.22368 0.83422 0.0
O173 O 0.36651 0.17597 0.87083 0.0
O174 O 0.40335 0.2822 0.88332 0.0
O175 O 0.37885 0.18477 0.96038 0.0
O176 O 0.40398 0.242 0.95017 0.0
C177 C 0.37485 0.25618 0.73676 0.0
C178 C 0.36197 0.25289 0.07586 0.0
C179 C 0.32628 0.23656 0.86371 0.0
C180 C 0.35912 0.33722 0.91714 0.0
C181 C 0.37314 0.16584 0.92014 0.0
C182 C 0.41106 0.26285 0.91741 0.0
O183 O 0.37037 0.23002 0.76062 0.0
H184 H 0.17997 0.19134 0.70953 0.0
H185 H 0.20712 0.1909 0.75021 0.0
H186 H 0.22403 0.23902 0.58595 0.0
H187 H 0.19669 0.24015 0.5447 0.0
H188 H 0.24371 0.18335 0.63904 0.0
H189 H 0.21871 0.28444 0.6925 0.0
H190 H 0.1966 0.31643 0.73559 0.0
H191 H 0.20168 0.26995 0.91197 0.0
H192 H 0.22367 0.23733 0.86955 0.0
H193 H 0.31829 0.23687 0.7424 0.0
H194 H 0.29177 0.23151 0.69714 0.0
H195 H 0.27139 0.22151 0.881 0.0
H196 H 0.29801 0.22921 0.92671 0.0
H197 H 0.25281 0.25559 0.81832 0.0
H198 H 0.27753 0.15624 0.77414 0.0
H199 H 0.29847 0.11978 0.73625 0.0
H200 H 0.29296 0.15595 0.55099 0.0
H201 H 0.27212 0.19293 0.5879 0.0
C202 C 0.18944 0.20145 0.68135 0.0
C203 C 0.18613 0.21608 0.62401 0.0
C204 C 0.20494 0.20115 0.70483 0.0
C205 C 0.21743 0.21514 0.67119 0.0
C206 C 0.21444 0.22814 0.61239 0.0
C207 C 0.19884 0.22883 0.58906 0.0
C208 C 0.23332 0.21822 0.69997 0.0
C209 C 0.24586 0.19939 0.67768 0.0
C210 C 0.23575 0.23823 0.7519 0.0
C211 C 0.22272 0.25825 0.77768 0.0
C212 C 0.21503 0.28087 0.74031 0.0
C213 C 0.20253 0.29915 0.76464 0.0
C214 C 0.19771 0.29517 0.82643 0.0
C215 C 0.20541 0.27298 0.86409 0.0
C216 C 0.2179 0.25462 0.83995 0.0
C217 C 0.30813 0.23346 0.77312 0.0
C218 C 0.31012 0.23313 0.83792 0.0
C219 C 0.29299 0.23013 0.74721 0.0
C220 C 0.2796 0.22511 0.78545 0.0
C221 C 0.28155 0.22513 0.85047 0.0
C222 C 0.29671 0.22947 0.87658 0.0
C223 C 0.26355 0.22082 0.75732 0.0
C224 C 0.25084 0.23939 0.77979 0.0
C225 C 0.2609 0.19994 0.70643 0.0
C226 C 0.27335 0.17754 0.68392 0.0
C227 C 0.28085 0.15655 0.72539 0.0
C228 C 0.29269 0.13577 0.70407 0.0
C229 C 0.29706 0.13559 0.64128 0.0
C230 C 0.28956 0.15613 0.59962 0.0
C231 C 0.27772 0.17697 0.6207 0.0
H232 H 0.30624 0.1195 0.62488 0.0
H233 H 0.18802 0.30932 0.84518 0.0
H234 H 0.69612 0.24136 0.9397 0.0
H235 H 0.72414 0.24533 0.90459 0.0
H236 H 0.70837 0.24789 0.71382 0.0
H237 H 0.68055 0.24498 0.74833 0.0
H238 H 0.73628 0.20407 0.74882 0.0
H239 H 0.71525 0.31295 0.76217 0.0
H240 H 0.70276 0.35703 0.82023 0.0
H241 H 0.74073 0.35431 0.95424 0.0
H242 H 0.75331 0.30985 0.89737 0.0
H243 H 0.79928 0.25578 0.56132 0.0
H244 H 0.77296 0.25039 0.61006 0.0
H245 H 0.79199 0.2869 0.78252 0.0
H246 H 0.81807 0.29373 0.73335 0.0
H247 H 0.76357 0.30823 0.76961 0.0
H248 H 0.78682 0.20568 0.75638 0.0
H249 H 0.80018 0.16012 0.70634 0.0
H250 H 0.75987 0.14719 0.58551 0.0
H251 H 0.74635 0.19299 0.63423 0.0
C252 C 0.69871 0.24248 0.89035 0.0
C253 C 0.68626 0.24311 0.84665 0.0
C254 C 0.71463 0.24476 0.87046 0.0
C255 C 0.71818 0.24689 0.80675 0.0
C256 C 0.70579 0.24619 0.76314 0.0
C257 C 0.68995 0.24471 0.78294 0.0
C258 C 0.7347 0.25163 0.78478 0.0
C259 C 0.7423 0.22679 0.75307 0.0
C260 C 0.74259 0.28101 0.79227 0.0
C261 C 0.73509 0.30785 0.82603 0.0
C262 C 0.72084 0.32155 0.80436 0.0
C263 C 0.71376 0.34664 0.83696 0.0
C264 C 0.72092 0.35839 0.89101 0.0
C265 C 0.73519 0.34514 0.91245 0.0
C266 C 0.74229 0.32 0.88005 0.0
C267 C 0.79776 0.26315 0.6093 0.0
C268 C 0.81074 0.27503 0.64356 0.0
C269 C 0.78277 0.25979 0.6373 0.0
C270 C 0.78062 0.26741 0.70047 0.0
C271 C 0.79338 0.2807 0.73386 0.0
C272 C 0.80828 0.28465 0.70557 0.0
C273 C 0.7652 0.26079 0.73207 0.0
C274 C 0.75776 0.28527 0.76578 0.0
C275 C 0.75763 0.23076 0.72767 0.0
C276 C 0.76563 0.20295 0.69863 0.0
C277 C 0.78084 0.19325 0.71888 0.0
C278 C 0.78844 0.16737 0.69079 0.0
C279 C 0.7809 0.15083 0.64268 0.0
C280 C 0.76571 0.16005 0.62274 0.0
C281 C 0.75806 0.18595 0.65063 0.0
H282 H 0.78681 0.13085 0.62092 0.0
H283 H 0.71543 0.37782 0.91618 0.0
H284 H 0.31433 0.80308 0.22299 0.0
H285 H 0.28737 0.80414 0.26625 0.0
H286 H 0.27046 0.74718 0.11283 0.0
H287 H 0.29753 0.74534 0.06973 0.0
H288 H 0.25873 0.82384 0.23038 0.0
H289 H 0.24372 0.69362 0.16718 0.0
H290 H 0.25782 0.64321 0.14694 0.0
H291 H 0.29704 0.67415 0.26061 0.0
H292 H 0.28308 0.72453 0.2822 0.0
H293 H 0.17636 0.7918 0.26991 0.0
H294 H 0.20376 0.798 0.2333 0.0
H295 H 0.22033 0.7367 0.38004 0.0
H296 H 0.19279 0.72964 0.41625 0.0
H297 H 0.23321 0.71984 0.274 0.0
H298 H 0.22711 0.81762 0.38354 0.0
H299 H 0.2142 0.86803 0.41322 0.0
H300 H 0.21922 0.90201 0.22602 0.0
H301 H 0.23197 0.85163 0.19499 0.0
C302 C 0.30487 0.79104 0.19793 0.0
C303 C 0.30814 0.77374 0.14328 0.0
C304 C 0.28944 0.79177 0.22272 0.0
C305 C 0.277 0.77528 0.19335 0.0
C306 C 0.28 0.75956 0.13684 0.0
C307 C 0.29546 0.75864 0.11216 0.0
C308 C 0.26114 0.77308 0.22374 0.0
C309 C 0.25311 0.80114 0.23983 0.0
C310 C 0.25404 0.74341 0.23758 0.0
C311 C 0.26242 0.71296 0.22575 0.0
C312 C 0.25532 0.68959 0.18805 0.0
C313 C 0.26329 0.66104 0.17631 0.0
C314 C 0.27834 0.65553 0.20231 0.0
C315 C 0.28541 0.6785 0.24032 0.0
C316 C 0.27748 0.70706 0.25227 0.0
C317 C 0.18582 0.77985 0.29493 0.0
C318 C 0.18238 0.76017 0.34603 0.0
C319 C 0.20151 0.78356 0.27402 0.0
C320 C 0.21411 0.76807 0.3043 0.0
C321 C 0.21077 0.74886 0.35602 0.0
C322 C 0.19504 0.74492 0.37673 0.0
C323 C 0.23063 0.77064 0.2798 0.0
C324 C 0.2388 0.74259 0.26469 0.0
C325 C 0.238 0.80032 0.26832 0.0
C326 C 0.23038 0.83073 0.28684 0.0
C327 C 0.22536 0.83575 0.34859 0.0
C328 C 0.21808 0.86434 0.36567 0.0
C329 C 0.21586 0.88818 0.32151 0.0
C330 C 0.22094 0.88351 0.26018 0.0
C331 C 0.22821 0.85496 0.24284 0.0
H332 H 0.21023 0.91029 0.33482 0.0
H333 H 0.28449 0.63343 0.19309 0.0
H334 H 0.69344 0.76064 0.06413 0.0
H335 H 0.72171 0.75779 0.09357 0.0
H336 H 0.70889 0.70483 0.2579 0.0
H337 H 0.68089 0.70683 0.22839 0.0
H338 H 0.73671 0.78072 0.19104 0.0
H339 H 0.73724 0.65324 0.29648 0.0
H340 H 0.72455 0.60131 0.27702 0.0
H341 H 0.71713 0.62637 0.08579 0.0
H342 H 0.72997 0.67825 0.10383 0.0
H343 H 0.79968 0.76734 0.40308 0.0
H344 H 0.77327 0.76368 0.35522 0.0
H345 H 0.79179 0.69817 0.21839 0.0
H346 H 0.81812 0.70108 0.26655 0.0
H347 H 0.763 0.68033 0.25413 0.0
H348 H 0.7871 0.77563 0.1819 0.0
H349 H 0.80102 0.82705 0.1907 0.0
H350 H 0.76144 0.86518 0.29426 0.0
H351 H 0.74737 0.81381 0.28686 0.0
C352 C 0.69668 0.74819 0.10626 0.0
C353 C 0.68492 0.73386 0.14375 0.0
C354 C 0.71281 0.74662 0.12303 0.0
C355 C 0.7174 0.73071 0.17743 0.0
C356 C 0.70566 0.71658 0.21496 0.0
C357 C 0.68962 0.71793 0.19812 0.0
C358 C 0.73435 0.7299 0.19703 0.0
C359 C 0.7425 0.75876 0.20445 0.0
C360 C 0.74202 0.70115 0.21319 0.0
C361 C 0.73447 0.66976 0.20169 0.0
C362 C 0.73298 0.64761 0.2502 0.0
C363 C 0.72574 0.61819 0.23942 0.0
C364 C 0.72 0.61058 0.18025 0.0
C365 C 0.72153 0.63233 0.13166 0.0
C366 C 0.72877 0.66177 0.14216 0.0
C367 C 0.7981 0.75185 0.36329 0.0
C368 C 0.81105 0.73472 0.33835 0.0
C369 C 0.78303 0.74993 0.33577 0.0
C370 C 0.78069 0.73116 0.28252 0.0
C371 C 0.79338 0.71293 0.25926 0.0
C372 C 0.80843 0.71467 0.2869 0.0
C373 C 0.7651 0.73122 0.25011 0.0
C374 C 0.75725 0.70224 0.24023 0.0
C375 C 0.75789 0.75976 0.23001 0.0
C376 C 0.76624 0.79078 0.23424 0.0
C377 C 0.78141 0.79491 0.20692 0.0
C378 C 0.78932 0.82406 0.2116 0.0
C379 C 0.78213 0.84935 0.24313 0.0
C380 C 0.767 0.84556 0.2699 0.0
C381 C 0.75904 0.81644 0.26542 0.0
H382 H 0.78827 0.8719 0.24672 0.0
H383 H 0.71439 0.5878 0.17203 0.0
H384 H 0.10319 0.84995 0.51758 0.0
H385 H 0.10285 0.90608 0.54384 0.0
H386 H 0.12172 0.92873 0.36213 0.0
H387 H 0.12265 0.87224 0.33614 0.0
H388 H 0.13794 0.95854 0.44615 0.0
H389 H 0.0822 0.94538 0.40631 0.0
H390 H 0.05535 0.92143 0.41477 0.0
H391 H 0.0542 0.94275 0.61015 0.0
H392 H 0.08115 0.96644 0.60309 0.0
H393 H 0.1194 0.12332 0.45292 0.0
H394 H 0.11757 0.0666 0.43098 0.0
H395 H 0.11823 0.04652 0.62753 0.0
H396 H 0.12047 0.10361 0.65022 0.0
H397 H 0.09201 0.01609 0.53982 0.0
H398 H 0.14889 0.02919 0.57467 0.0
H399 H 0.17494 0.05556 0.55925 0.0
H400 H 0.17261 0.03623 0.36325 0.0
H401 H 0.1464 0.01018 0.3774 0.0
C402 C 0.10708 0.86684 0.48275 0.0
C403 C 0.11302 0.85663 0.42479 0.0
C404 C 0.10679 0.899 0.49781 0.0
C405 C 0.11212 0.92164 0.45479 0.0
C406 C 0.11757 0.91161 0.39608 0.0
C407 C 0.11806 0.87936 0.38122 0.0
C408 C 0.11307 0.95552 0.47274 0.0
C409 C 0.1278 0.97115 0.46585 0.0
C410 C 0.09995 0.97183 0.49976 0.0
C411 C 0.08377 0.95744 0.50426 0.0
C412 C 0.07628 0.94473 0.4512 0.0
C413 C 0.06103 0.93127 0.45571 0.0
C414 C 0.05309 0.93056 0.51297 0.0
C415 C 0.06038 0.94332 0.56583 0.0
C416 C 0.07563 0.95679 0.56159 0.0
C417 C 0.11915 0.10688 0.49159 0.0
C418 C 0.12007 0.1178 0.55332 0.0
C419 C 0.11812 0.07457 0.4789 0.0
C420 C 0.11776 0.05267 0.52768 0.0
C421 C 0.11848 0.06332 0.58947 0.0
C422 C 0.11984 0.09576 0.60227 0.0
C423 C 0.11679 0.01862 0.51313 0.0
C424 C 0.10208 0.00315 0.52042 0.0
C425 C 0.12981 0.00255 0.4856 0.0
C426 C 0.14561 0.01805 0.47702 0.0
C427 C 0.15385 0.03086 0.52819 0.0
C428 C 0.16867 0.04568 0.5197 0.0
C429 C 0.17541 0.04765 0.46028 0.0
C430 C 0.16737 0.03472 0.40924 0.0
C431 C 0.15254 0.01991 0.41748 0.0
H432 H 0.18688 0.05913 0.4538 0.0
H433 H 0.04128 0.92014 0.51636 0.0
H434 H 0.87657 0.3931 0.64008 0.0
H435 H 0.87975 0.44948 0.61665 0.0
H436 H 0.8817 0.42774 0.42033 0.0
H437 H 0.87938 0.37127 0.44381 0.0
H438 H 0.90223 0.4715 0.44317 0.0
H439 H 0.84689 0.45644 0.49575 0.0
H440 H 0.82405 0.43935 0.56044 0.0
H441 H 0.83913 0.50206 0.70677 0.0
H442 H 0.86218 0.51923 0.64322 0.0
H443 H 0.87561 0.62489 0.33556 0.0
H444 H 0.87782 0.56828 0.36009 0.0
H445 H 0.89003 0.59155 0.54956 0.0
H446 H 0.88815 0.64799 0.52553 0.0
H447 H 0.86318 0.54809 0.53125 0.0
H448 H 0.91797 0.56521 0.46999 0.0
H449 H 0.93915 0.58345 0.39844 0.0
H450 H 0.92311 0.51719 0.25989 0.0
H451 H 0.90161 0.499 0.33019 0.0
C452 C 0.87769 0.40041 0.59198 0.0
C453 C 0.87761 0.37793 0.54372 0.0
C454 C 0.87947 0.43261 0.57859 0.0
C455 C 0.88065 0.44291 0.51662 0.0
C456 C 0.8808 0.42037 0.46847 0.0
C457 C 0.87941 0.38814 0.48192 0.0
C458 C 0.88141 0.47719 0.50176 0.0
C459 C 0.89358 0.48816 0.46196 0.0
C460 C 0.87024 0.49906 0.52678 0.0
C461 C 0.85635 0.48888 0.56497 0.0
C462 C 0.84539 0.46642 0.54189 0.0
C463 C 0.8324 0.45675 0.57832 0.0
C464 C 0.83017 0.46954 0.63774 0.0
C465 C 0.84089 0.49213 0.66077 0.0
C466 C 0.85391 0.50186 0.62456 0.0
C467 C 0.87895 0.61793 0.38222 0.0
C468 C 0.88165 0.64084 0.42866 0.0
C469 C 0.88025 0.58568 0.39604 0.0
C470 C 0.88407 0.576 0.45656 0.0
C471 C 0.88708 0.59875 0.50261 0.0
C472 C 0.88604 0.63093 0.48866 0.0
C473 C 0.88393 0.54212 0.47294 0.0
C474 C 0.87184 0.53132 0.51284 0.0
C475 C 0.89497 0.52043 0.44712 0.0
C476 C 0.90807 0.53096 0.40517 0.0
C477 C 0.91886 0.55472 0.42407 0.0
C478 C 0.93094 0.56502 0.38377 0.0
C479 C 0.93245 0.55154 0.3246 0.0
C480 C 0.92191 0.52765 0.30571 0.0
C481 C 0.90978 0.51732 0.34578 0.0
H482 H 0.94181 0.55956 0.29345 0.0
H483 H 0.8201 0.46202 0.66588 0.0
H484 H 0.87417 0.89503 0.35543 0.0
H485 H 0.872 0.95092 0.38487 0.0
H486 H 0.83936 0.92605 0.53289 0.0
H487 H 0.84102 0.87039 0.50251 0.0
H488 H 0.83016 0.97913 0.483 0.0
H489 H 0.87945 0.93834 0.56112 0.0
H490 H 0.90553 0.91119 0.55549 0.0
H491 H 0.92276 0.98144 0.42734 0.0
H492 H 0.89669 0.00878 0.43156 0.0
H493 H 0.87343 0.12483 0.64087 0.0
H494 H 0.87082 0.06803 0.62017 0.0
H495 H 0.84113 0.08816 0.46112 0.0
H496 H 0.84325 0.14478 0.48265 0.0
H497 H 0.88097 0.03593 0.52619 0.0
H498 H 0.8158 0.02795 0.43173 0.0
H499 H 0.78959 0.05312 0.45045 0.0
H500 H 0.80377 0.07726 0.6365 0.0
H501 H 0.82997 0.05187 0.61922 0.0
C502 C 0.8664 0.90152 0.39382 0.0
C503 C 0.85789 0.87828 0.427 0.0
C504 C 0.86521 0.93343 0.41072 0.0
C505 C 0.85577 0.94253 0.46188 0.0
C506 C 0.84674 0.91954 0.49338 0.0
C507 C 0.84775 0.88771 0.47599 0.0
C508 C 0.85587 0.97575 0.48444 0.0
C509 C 0.84125 0.99161 0.49241 0.0
C510 C 0.87033 0.99167 0.49856 0.0
C511 C 0.88607 0.97544 0.49625 0.0
C512 C 0.88877 0.94788 0.53144 0.0
C513 C 0.90355 0.93247 0.52854 0.0
C514 C 0.91578 0.94454 0.49097 0.0
C515 C 0.91327 0.9721 0.45636 0.0
C516 C 0.8985 0.98758 0.45903 0.0
C517 C 0.86619 0.11712 0.60195 0.0
C518 C 0.85856 0.13928 0.56337 0.0
C519 C 0.86473 0.08468 0.59012 0.0
C520 C 0.8557 0.07383 0.53935 0.0
C521 C 0.8479 0.09591 0.50129 0.0
C522 C 0.84919 0.12832 0.51352 0.0
C523 C 0.85526 0.0396 0.52381 0.0
C524 C 0.86984 0.02352 0.51702 0.0
C525 C 0.84073 0.02323 0.51283 0.0
C526 C 0.82491 0.03824 0.52392 0.0
C527 C 0.8133 0.0385 0.47672 0.0
C528 C 0.79845 0.05284 0.48707 0.0
C529 C 0.79503 0.06687 0.54455 0.0
C530 C 0.80645 0.0665 0.5919 0.0
C531 C 0.82131 0.05218 0.58182 0.0
H532 H 0.78353 0.07796 0.55244 0.0
H533 H 0.92722 0.93257 0.48877 0.0
H534 H 0.1458 0.62096 0.49749 0.0
H535 H 0.1488 0.56409 0.51308 0.0
H536 H 0.12617 0.54625 0.33597 0.0
H537 H 0.12234 0.60337 0.32188 0.0
H538 H 0.11455 0.5081 0.41258 0.0
H539 H 0.16792 0.53479 0.36241 0.0
H540 H 0.19333 0.5645 0.36604 0.0
H541 H 0.19965 0.53796 0.55711 0.0
H542 H 0.17416 0.50845 0.55493 0.0
H543 H 0.15766 0.34835 0.47877 0.0
H544 H 0.15915 0.40302 0.44195 0.0
H545 H 0.1197 0.42839 0.56192 0.0
H546 H 0.11791 0.37372 0.59835 0.0
H547 H 0.16428 0.45938 0.49384 0.0
H548 H 0.09502 0.47736 0.48663 0.0
H549 H 0.07087 0.44516 0.46724 0.0
H550 H 0.09873 0.37848 0.36148 0.0
H551 H 0.12298 0.41048 0.37949 0.0
C552 C 0.14159 0.60492 0.46161 0.0
C553 C 0.13385 0.61651 0.40844 0.0
C554 C 0.14342 0.57239 0.47033 0.0
C555 C 0.138 0.55081 0.42516 0.0
C556 C 0.13048 0.56242 0.37146 0.0
C557 C 0.1283 0.595 0.3634 0.0
C558 C 0.13929 0.51618 0.4362 0.0
C559 C 0.12548 0.49749 0.42988 0.0
C560 C 0.15366 0.50194 0.45701 0.0
C561 C 0.16906 0.51955 0.45857 0.0
C562 C 0.17467 0.53544 0.40532 0.0
C563 C 0.1891 0.55223 0.40711 0.0
C564 C 0.19808 0.55315 0.46179 0.0
C565 C 0.19268 0.53723 0.51478 0.0
C566 C 0.17825 0.52042 0.51326 0.0
C567 C 0.14939 0.3656 0.49788 0.0
C568 C 0.13755 0.35659 0.54111 0.0
C569 C 0.15029 0.39684 0.47675 0.0
C570 C 0.13936 0.41954 0.49839 0.0
C571 C 0.12805 0.41101 0.54375 0.0
C572 C 0.1271 0.37978 0.56476 0.0
C573 C 0.13941 0.45199 0.47245 0.0
C574 C 0.15345 0.47011 0.47587 0.0
C575 C 0.12545 0.4654 0.44648 0.0
C576 C 0.11084 0.4462 0.43496 0.0
C577 C 0.09598 0.45591 0.45904 0.0
C578 C 0.08227 0.43767 0.44832 0.0
C579 C 0.08327 0.40974 0.41333 0.0
C580 C 0.09797 0.40005 0.3888 0.0
C581 C 0.11171 0.4182 0.39933 0.0
H582 H 0.07264 0.39565 0.40513 0.0
H583 H 0.20925 0.56617 0.46309 0.0
H584 H 0.60722 0.61798 0.00887 0.0
H585 H 0.61129 0.56265 0.98082 0.0
H586 H 0.65078 0.55694 0.10922 0.0
H587 H 0.64658 0.61258 0.13861 0.0
H588 H 0.63634 0.53507 0.92698 0.0
H589 H 0.65207 0.47942 0.16234 0.0
H590 H 0.64765 0.48856 0.27458 0.0
H591 H 0.6034 0.53596 0.23505 0.0
H592 H 0.60747 0.52677 0.12273 0.0
H593 H 0.65136 0.36858 0.87529 0.0
H594 H 0.65477 0.42415 0.90713 0.0
H595 H 0.61032 0.41959 0.00951 0.0
H596 H 0.60707 0.36434 0.9794 0.0
H597 H 0.63252 0.44663 0.07807 0.0
H598 H 0.61338 0.45554 0.86518 0.0
H599 H 0.61473 0.44637 0.75188 0.0
H600 H 0.66051 0.49257 0.74449 0.0
H601 H 0.6595 0.50169 0.85793 0.0
C602 C 0.61671 0.60496 0.03157 0.0
C603 C 0.62659 0.61962 0.07595 0.0
C604 C 0.61908 0.57339 0.01515 0.0
C605 C 0.63139 0.55582 0.0426 0.0
C606 C 0.64116 0.57013 0.08773 0.0
C607 C 0.63871 0.60181 0.10461 0.0
C608 C 0.6337 0.52244 0.02362 0.0
C609 C 0.63566 0.5157 0.96005 0.0
C610 C 0.63284 0.49728 0.06681 0.0
C611 C 0.6302 0.50278 0.13419 0.0
C612 C 0.64139 0.49176 0.17768 0.0
C613 C 0.63895 0.49694 0.24128 0.0
C614 C 0.62529 0.51295 0.26191 0.0
C615 C 0.61401 0.5237 0.21899 0.0
C616 C 0.61639 0.51855 0.15537 0.0
C617 C 0.64228 0.37962 0.90409 0.0
C618 C 0.62897 0.36218 0.92501 0.0
C619 C 0.64426 0.41125 0.92238 0.0
C620 C 0.63282 0.42588 0.96091 0.0
C621 C 0.61939 0.40863 0.98046 0.0
C622 C 0.6175 0.3771 0.96288 0.0
C623 C 0.63453 0.45923 0.98116 0.0
C624 C 0.63352 0.46599 0.04507 0.0
C625 C 0.63586 0.4844 0.93814 0.0
C626 C 0.63645 0.47894 0.87004 0.0
C627 C 0.62379 0.46352 0.83943 0.0
C628 C 0.62448 0.45837 0.7752 0.0
C629 C 0.63772 0.46878 0.74104 0.0
C630 C 0.65028 0.48445 0.77102 0.0
C631 C 0.64965 0.48963 0.83526 0.0
H632 H 0.63824 0.46478 0.69132 0.0
H633 H 0.62342 0.51695 0.31115 0.0
H634 H 0.38564 0.86334 0.96782 0.0
H635 H 0.38611 0.91941 0.94175 0.0
H636 H 0.36907 0.94274 0.12603 0.0
H637 H 0.36798 0.88624 0.15187 0.0
H638 H 0.35296 0.97448 0.04465 0.0
H639 H 0.40854 0.95684 0.07853 0.0
H640 H 0.43468 0.93039 0.06747 0.0
H641 H 0.43505 0.95104 0.87196 0.0
H642 H 0.40879 0.97724 0.88167 0.0
H643 H 0.37518 0.13788 0.03322 0.0
H644 H 0.37584 0.08125 0.05638 0.0
H645 H 0.37338 0.05961 0.86049 0.0
H646 H 0.3723 0.11662 0.83661 0.0
H647 H 0.39945 0.0279 0.94585 0.0
H648 H 0.3426 0.04576 0.91777 0.0
H649 H 0.31736 0.07449 0.9365 0.0
H650 H 0.32096 0.05557 0.13216 0.0
H651 H 0.34637 0.02714 0.11467 0.0
C652 C 0.38216 0.88037 0.00318 0.0
C653 C 0.37679 0.87037 0.06202 0.0
C654 C 0.3825 0.91247 0.98822 0.0
C655 C 0.37783 0.93531 0.03218 0.0
C656 C 0.37273 0.92547 0.09141 0.0
C657 C 0.37216 0.89324 0.10618 0.0
C658 C 0.37751 0.96928 0.01501 0.0
C659 C 0.36322 0.98619 0.02381 0.0
C660 C 0.3908 0.98448 0.98681 0.0
C661 C 0.40661 0.96875 0.98075 0.0
C662 C 0.41413 0.95552 0.03308 0.0
C663 C 0.42898 0.94061 0.02707 0.0
C664 C 0.4365 0.93897 0.96902 0.0
C665 C 0.4292 0.9523 0.91688 0.0
C666 C 0.41434 0.96721 0.92262 0.0
C667 C 0.37481 0.12112 -0.00506 0.0
C668 C 0.37371 0.13158 0.93305 0.0
C669 C 0.37515 0.08886 0.00834 0.0
C670 C 0.37464 0.06656 0.96009 0.0
C671 C 0.37378 0.07673 0.89814 0.0
C672 C 0.37311 0.10914 0.88466 0.0
C673 C 0.37496 0.03259 0.97527 0.0
C674 C 0.38925 0.01588 0.9664 0.0
C675 C 0.3618 0.01773 0.00442 0.0
C676 C 0.34647 0.03463 0.01497 0.0
C677 C 0.3381 0.048 0.96486 0.0
C678 C 0.32374 0.06417 0.97523 0.0
C679 C 0.31758 0.06694 0.03551 0.0
C680 C 0.32575 0.05345 0.08551 0.0
C681 C 0.34013 0.03729 0.07538 0.0
H682 H 0.30646 0.07946 0.04345 0.0
H683 H 0.44801 0.92742 0.96446 0.0
H684 H 0.34122 0.36505 0.00821 0.0
H685 H 0.33826 0.4216 0.02929 0.0
H686 H 0.3671 0.44315 0.86782 0.0
H687 H 0.37067 0.38647 0.84806 0.0
H688 H 0.37703 0.47632 0.95852 0.0
H689 H 0.32542 0.45662 0.87397 0.0
H690 H 0.29946 0.42957 0.86143 0.0
H691 H 0.28672 0.45357 0.04939 0.0
H692 H 0.31271 0.4804 0.06336 0.0
H693 H 0.33657 0.64013 0.98748 0.0
H694 H 0.33456 0.5844 0.95729 0.0
H695 H 0.3674 0.55913 0.10346 0.0
H696 H 0.36981 0.61487 0.13308 0.0
H697 H 0.32578 0.52987 0.00934 0.0
H698 H 0.39319 0.5045 0.05008 0.0
H699 H 0.41881 0.53365 0.0503 0.0
H700 H 0.39924 0.60287 0.9257 0.0
H701 H 0.3736 0.57389 0.92402 0.0
C702 C 0.34678 0.38184 0.97678 0.0
C703 C 0.35622 0.37138 0.92659 0.0
C704 C 0.345 0.41419 0.98868 0.0
C705 C 0.3523 0.43666 0.94974 0.0
C706 C 0.36138 0.42623 0.89857 0.0
C707 C 0.3634 0.39387 0.88729 0.0
C708 C 0.35142 0.47092 0.96494 0.0
C709 C 0.3658 0.48799 0.96929 0.0
C710 C 0.33675 0.48637 0.97809 0.0
C711 C 0.32108 0.47032 0.96985 0.0
C712 C 0.31713 0.45594 0.91278 0.0
C713 C 0.3024 0.44067 0.90539 0.0
C714 C 0.29146 0.43979 0.95462 0.0
C715 C 0.29521 0.45425 0.01131 0.0
C716 C 0.30994 0.46953 0.01896 0.0
C717 C 0.34322 0.62269 0.01376 0.0
C718 C 0.35355 0.63196 0.0621 0.0
C719 C 0.34201 0.59085 -0.0035 0.0
C720 C 0.35106 0.5678 0.02738 0.0
C721 C 0.36057 0.57671 0.07822 0.0
C722 C 0.36191 0.60855 0.09517 0.0
C723 C 0.35139 0.5348 0.00397 0.0
C724 C 0.33696 0.51806 -0.00179 0.0
C725 C 0.36595 0.51986 0.98754 0.0
C726 C 0.38143 0.53717 0.98746 0.0
C727 C 0.39438 0.52586 0.02252 0.0
C728 C 0.4089 0.54237 0.02293 0.0
C729 C 0.41063 0.57015 0.9882 0.0
C730 C 0.39787 0.58141 0.95276 0.0
C731 C 0.38333 0.56497 0.95211 0.0
H732 H 0.42187 0.58292 0.98865 0.0
H733 H 0.28006 0.42796 0.94881 0.0
H734 H 0.65322 0.11687 0.93824 0.0
H735 H 0.65261 0.06058 0.96574 0.0
H736 H 0.60184 0.05778 0.93104 0.0
H737 H 0.60235 0.11398 0.90238 0.0
H738 H 0.61269 0.03431 0.05236 0.0
H739 H 0.62271 0.02249 0.83252 0.0
H740 H 0.63709 0.03279 0.73431 0.0
H741 H 0.68037 0.9962 0.81361 0.0
H742 H 0.66629 0.9861 0.91266 0.0
H743 H 0.60118 0.86837 0.08398 0.0
H744 H 0.60132 0.9241 0.0534 0.0
H745 H 0.65278 0.92141 0.03588 0.0
H746 H 0.65262 0.86529 0.06381 0.0
H747 H 0.64114 0.94838 0.93946 0.0
H748 H 0.63278 0.96099 0.15821 0.0
H749 H 0.6199 0.95221 0.26008 0.0
H750 H 0.57567 0.98897 0.18946 0.0
H751 H 0.58823 -0.00242 0.08687 0.0
C752 C 0.64196 0.10417 0.93573 0.0
C753 C 0.62782 0.11977 0.91828 0.0
C754 C 0.64165 0.07209 0.95133 0.0
C755 C 0.62718 0.05528 0.9504 0.0
C756 C 0.6131 0.07055 0.93194 0.0
C757 C 0.61344 0.10252 0.9153 0.0
C758 C 0.62668 0.02211 0.97161 0.0
C759 C 0.61868 0.01531 0.02738 0.0
C760 C 0.635 -0.00213 0.93981 0.0
C761 C 0.64348 0.00384 0.88022 0.0
C762 C 0.63533 0.01691 0.82922 0.0
C763 C 0.64341 0.02266 0.77335 0.0
C764 C 0.65964 0.01524 0.76777 0.0
C765 C 0.6678 0.00197 0.81802 0.0
C766 C 0.65977 0.99621 0.87401 0.0
C767 C 0.61254 0.8798 0.07447 0.0
C768 C 0.62689 0.86253 0.07616 0.0
C769 C 0.61261 0.91168 0.05716 0.0
C770 C 0.62708 0.92703 0.04283 0.0
C771 C 0.64147 0.91002 0.04647 0.0
C772 C 0.64137 0.87801 0.06264 0.0
C773 C 0.62716 0.96029 0.0208 0.0
C774 C 0.63511 0.96721 0.96475 0.0
C775 C 0.61901 0.98478 0.05301 0.0
C776 C 0.61141 0.97963 0.11466 0.0
C777 C 0.62028 0.96696 0.16425 0.0
C778 C 0.61304 0.96206 0.22215 0.0
C779 C 0.59697 0.96995 0.23119 0.0
C780 C 0.58811 0.98283 0.18237 0.0
C781 C 0.59529 0.98776 0.12435 0.0
H782 H 0.59139 0.96614 0.27605 0.0
H783 H 0.66588 0.01969 0.72448 0.0
H784 H 0.15226 0.25225 0.326 0.0
H785 H 0.14984 0.25905 0.21333 0.0
H786 H 0.09861 0.24827 0.22767 0.0
H787 H 0.1009 0.24081 0.33935 0.0
H788 H 0.10965 0.21237 0.13927 0.0
H789 H 0.11502 0.32017 0.19871 0.0
H790 H 0.12694 0.36645 0.25156 0.0
H791 H 0.17001 0.35515 0.14447 0.0
H792 H 0.15845 0.30846 0.09165 0.0
H793 H 0.11157 0.29464 0.81584 0.0
H794 H 0.11071 0.29917 0.92938 0.0
H795 H 0.13468 0.20897 0.94538 0.0
H796 H 0.13536 0.20391 0.83261 0.0
H797 H 0.13368 0.30068 0.01844 0.0
H798 H 0.1186 0.16761 0.06169 0.0
H799 H 0.1039 0.12419 0.00999 0.0
H800 H 0.07479 0.19209 0.9141 0.0
H801 H 0.08914 0.23589 0.96589 0.0
C802 C 0.14049 0.25141 0.30509 0.0
C803 C 0.1268 0.24572 0.34145 0.0
C804 C 0.13911 0.25552 0.24089 0.0
C805 C 0.12402 0.25437 0.21245 0.0
C806 C 0.11035 0.24916 0.24881 0.0
C807 C 0.11172 0.24484 0.31264 0.0
C808 C 0.1225 0.25667 0.14429 0.0
C809 C 0.11485 0.23175 0.1129 0.0
C810 C 0.12891 0.28242 0.11024 0.0
C811 C 0.13591 0.31062 0.14158 0.0
C812 C 0.12709 0.32739 0.18676 0.0
C813 C 0.13377 0.35373 0.21667 0.0
C814 C 0.14924 0.36369 0.20147 0.0
C815 C 0.15804 0.34738 0.15622 0.0
C816 C 0.15142 0.32099 0.12624 0.0
C817 C 0.11665 0.27577 0.84358 0.0
C818 C 0.12337 0.24874 0.8153 0.0
C819 C 0.11621 0.27849 0.9083 0.0
C820 C 0.12245 0.25422 0.94544 0.0
C821 C 0.12956 0.22769 0.91733 0.0
C822 C 0.12992 0.22485 0.85288 0.0
C823 C 0.12125 0.25592 0.01376 0.0
C824 C 0.12838 0.28151 0.04506 0.0
C825 C 0.11391 0.23128 0.04805 0.0
C826 C 0.10505 0.20503 0.01733 0.0
C827 C 0.10901 0.17327 0.02982 0.0
C828 C 0.10074 0.14859 0.00044 0.0
C829 C 0.08845 0.15538 0.95866 0.0
C830 C 0.08435 0.18686 0.94631 0.0
C831 C 0.09256 0.21162 0.9756 0.0
H832 H 0.08208 0.13624 0.93593 0.0
H833 H 0.1544 0.38408 0.22468 0.0
H834 H 0.88616 0.22146 0.3411 0.0
H835 H 0.88686 0.21871 0.22767 0.0
H836 H 0.84385 0.27523 0.21913 0.0
H837 H 0.84258 0.27611 0.33322 0.0
H838 H 0.84322 0.23454 0.13007 0.0
H839 H 0.88251 0.30804 0.20315 0.0
H840 H 0.90543 0.32657 0.26551 0.0
H841 H 0.93556 0.25662 0.17924 0.0
H842 H 0.91276 0.23738 0.11695 0.0
H843 H 0.8581 0.29887 0.82952 0.0
H844 H 0.85631 0.29487 0.94265 0.0
H845 H 0.88851 0.21504 0.93954 0.0
H846 H 0.89023 0.21846 0.82585 0.0
H847 H 0.89458 0.26694 0.03224 0.0
H848 H 0.85319 0.19623 0.9553 0.0
H849 H 0.82976 0.18401 0.88997 0.0
H850 H 0.80289 0.25726 0.98179 0.0
H851 H 0.82625 0.27024 0.04707 0.0
C852 C 0.87676 0.23289 0.31481 0.0
C853 C 0.86442 0.2493 0.3452 0.0
C854 C 0.87721 0.23149 0.25017 0.0
C855 C 0.8657 0.24763 0.21496 0.0
C856 C 0.85292 0.26281 0.24544 0.0
C857 C 0.8522 0.26337 0.31036 0.0
C858 C 0.86748 0.24988 0.14664 0.0
C859 C 0.85441 0.24192 0.10883 0.0
C860 C 0.88211 0.25942 0.11877 0.0
C861 C 0.89589 0.27108 0.15583 0.0
C862 C 0.894 0.29648 0.19777 0.0
C863 C 0.90697 0.30713 0.23307 0.0
C864 C 0.92193 0.29273 0.22645 0.0
C865 C 0.92396 0.26772 0.18437 0.0
C866 C 0.91102 0.25695 0.14902 0.0
C867 C 0.86495 0.28066 0.85287 0.0
C868 C 0.87429 0.25891 0.81897 0.0
C869 C 0.86383 0.27834 0.91732 0.0
C870 C 0.87217 0.25452 0.94875 0.0
C871 C 0.88197 0.23348 0.91555 0.0
C872 C 0.88291 0.23545 0.85087 0.0
C873 C 0.87042 0.25139 0.01645 0.0
C874 C 0.88347 0.25937 0.0539 0.0
C875 C 0.85569 0.2427 0.04388 0.0
C876 C 0.84151 0.23439 0.00569 0.0
C877 C 0.84232 0.20988 0.96127 0.0
C878 C 0.82905 0.20279 0.92429 0.0
C879 C 0.81486 0.2199 0.9316 0.0
C880 C 0.81389 0.24404 0.97613 0.0
C881 C 0.82714 0.25125 0.01319 0.0
H882 H 0.8046 0.21442 0.90284 0.0
H883 H 0.93196 0.301 0.25383 0.0
H884 H 0.11757 0.78451 0.14514 0.0
H885 H 0.11957 0.78147 0.03166 0.0
H886 H 0.12256 0.67947 0.04176 0.0
H887 H 0.12025 0.68217 0.15529 0.0
H888 H 0.14768 0.71424 0.96771 0.0
H889 H 0.09056 0.70197 -0.00701 0.0
H890 H 0.06402 0.71694 0.03386 0.0
H891 H 0.0676 0.80742 0.94348 0.0
H892 H 0.09428 0.79317 0.90284 0.0
H893 H 0.14163 0.68923 0.63893 0.0
H894 H 0.14061 0.68685 0.7528 0.0
H895 H 0.1206 0.78132 0.75805 0.0
H896 H 0.12075 0.78283 0.64462 0.0
H897 H 0.10371 0.7459 0.82649 0.0
H898 H 0.16035 0.76223 0.80513 0.0
H899 H 0.18764 0.75131 0.76686 0.0
H900 H 0.18628 0.65909 0.85113 0.0
H901 H 0.15889 0.6693 0.88926 0.0
C902 C 0.11851 0.76143 0.12314 0.0
C903 C 0.11874 0.73357 0.15882 0.0
C904 C 0.11965 0.75975 0.05856 0.0
C905 C 0.12124 0.73026 0.02899 0.0
C906 C 0.12135 0.70239 0.06424 0.0
C907 C 0.11993 0.70399 0.12881 0.0
C908 C 0.12307 0.7288 0.9611 0.0
C909 C 0.13805 0.72065 0.93642 0.0
C910 C 0.11057 0.73807 0.92127 0.0
C911 C 0.09448 0.74661 0.94537 0.0
C912 C 0.08575 0.72517 0.98231 0.0
C913 C 0.07067 0.7335 0.00533 0.0
C914 C 0.06414 0.76314 0.99141 0.0
C915 C 0.07267 0.78448 0.95429 0.0
C916 C 0.08777 0.77628 0.9312 0.0
C917 C 0.13727 0.70958 0.66477 0.0
C918 C 0.13119 0.73613 0.63364 0.0
C919 C 0.13673 0.70828 0.72966 0.0
C920 C 0.13057 0.73397 0.76398 0.0
C921 C 0.12526 0.76111 0.73255 0.0
C922 C 0.1254 0.76204 0.66792 0.0
C923 C 0.12852 0.73197 0.83221 0.0
C924 C 0.11342 0.73935 0.85724 0.0
C925 C 0.14104 0.7226 0.87236 0.0
C926 C 0.1575 0.7164 0.84946 0.0
C927 C 0.16582 0.73952 0.81507 0.0
C928 C 0.18131 0.73348 0.79349 0.0
C929 C 0.18867 0.70449 0.8064 0.0
C930 C 0.18056 0.68151 0.84108 0.0
C931 C 0.16505 0.68743 0.86273 0.0
H932 H 0.20066 0.69986 0.78965 0.0
H933 H 0.05246 0.76955 0.00927 0.0
H934 H 0.87683 0.72067 0.65272 0.0
H935 H 0.8752 0.72305 0.76613 0.0
H936 H 0.84122 0.79969 0.75402 0.0
H937 H 0.84251 0.79699 0.63982 0.0
H938 H 0.87063 0.80917 0.83217 0.0
H939 H 0.82623 0.7383 0.80221 0.0
H940 H 0.81266 0.69134 0.7585 0.0
H941 H 0.84692 0.63039 0.84628 0.0
H942 H 0.86084 0.67702 0.88979 0.0
H943 H 0.86268 0.81235 0.16199 0.0
H944 H 0.85819 0.81373 0.0498 0.0
H945 H 0.87685 0.71853 0.03335 0.0
H946 H 0.88042 0.71646 0.14606 0.0
H947 H 0.8517 0.72195 0.9684 0.0
H948 H 0.89811 0.78885 0.98739 0.0
H949 H 0.9141 0.83369 0.0272 0.0
H950 H 0.87942 0.89941 0.95669 0.0
H951 H 0.86312 0.85491 0.91712 0.0
C952 C 0.86887 0.73779 0.67419 0.0
C953 C 0.85982 0.75873 0.63775 0.0
C954 C 0.86792 0.73903 0.73879 0.0
C955 C 0.85808 0.76149 0.76796 0.0
C956 C 0.84883 0.78216 0.73192 0.0
C957 C 0.84953 0.78051 0.667 0.0
C958 C 0.85838 0.7643 0.8362 0.0
C959 C 0.8662 0.79052 0.86238 0.0
C960 C 0.85307 0.73933 0.87466 0.0
C961 C 0.84465 0.7112 0.8489 0.0
C962 C 0.83095 0.71491 0.81178 0.0
C963 C 0.82318 0.68834 0.78713 0.0
C964 C 0.82894 0.6579 0.79951 0.0
C965 C 0.84247 0.65398 0.83671 0.0
C966 C 0.85029 0.68047 0.86145 0.0
C967 C 0.866 0.7919 0.13419 0.0
C968 C 0.87195 0.76434 0.16237 0.0
C969 C 0.86346 0.79272 0.07009 0.0
C970 C 0.86734 0.76636 0.03291 0.0
C971 C 0.87368 0.73911 0.06106 0.0
C972 C 0.87582 0.73799 0.12531 0.0
C973 C 0.86433 0.76661 0.96498 0.0
C974 C 0.85599 0.74093 0.93869 0.0
C975 C 0.86952 0.79177 0.92622 0.0
C976 C 0.87931 0.81854 0.94994 0.0
C977 C 0.89383 0.81286 0.9808 0.0
C978 C 0.90296 0.83821 0.00324 0.0
C979 C 0.89775 0.86938 -0.00535 0.0
C980 C 0.88342 0.87526 0.96342 0.0
C981 C 0.87424 0.84999 0.94094 0.0
H982 H 0.90484 0.88898 0.01205 0.0
H983 H 0.82291 0.63736 0.78036 0.0
H984 H 0.61916 0.69818 0.35308 0.0
H985 H 0.61948 0.70371 0.46647 0.0
H986 H 0.61861 0.80557 0.44867 0.0
H987 H 0.61786 0.80031 0.33503 0.0
H988 H 0.64458 0.77382 0.52892 0.0
H989 H 0.58772 0.78281 0.49703 0.0
H990 H 0.56174 0.76633 0.45355 0.0
H991 H 0.5654 0.67671 0.54694 0.0
H992 H 0.59154 0.69247 0.5902 0.0
H993 H 0.63821 0.79372 0.85875 0.0
H994 H 0.63602 0.79925 0.7457 0.0
H995 H 0.61706 0.70404 0.73336 0.0
H996 H 0.61841 0.69922 0.84625 0.0
H997 H 0.59998 0.73993 0.66633 0.0
H998 H 0.65692 0.72598 0.68973 0.0
H999 H 0.68382 0.73822 0.73018 0.0
H1000 H 0.68135 0.8315 0.65091 0.0
H1001 H 0.65434 0.81993 0.61062 0.0
C1002 C 0.61889 0.72174 0.37335 0.0
C1003 C 0.61847 0.74882 0.33549 0.0
C1004 C 0.61906 0.72484 0.43788 0.0
C1005 C 0.61907 0.75502 0.46531 0.0
C1006 C 0.61858 0.78213 0.42787 0.0
C1007 C 0.61807 0.77906 0.36325 0.0
C1008 C 0.62013 0.75792 0.5333 0.0
C1009 C 0.63478 0.76703 0.55935 0.0
C1010 C 0.60742 0.74821 0.57208 0.0
C1011 C 0.59166 0.73873 0.54639 0.0
C1012 C 0.58306 0.75947 0.50782 0.0
C1013 C 0.56828 0.75029 0.48331 0.0
C1014 C 0.56194 0.72046 0.49735 0.0
C1015 C 0.57034 0.69979 0.53605 0.0
C1016 C 0.58512 0.70886 0.56063 0.0
C1017 C 0.63374 0.77394 0.8316 0.0
C1018 C 0.62846 0.74607 0.86084 0.0
C1019 C 0.63252 0.77706 0.76711 0.0
C1020 C 0.62648 0.75196 0.73094 0.0
C1021 C 0.62165 0.72381 0.76029 0.0
C1022 C 0.62248 0.721 0.82468 0.0
C1023 C 0.62465 0.75506 0.66275 0.0
C1024 C 0.6098 0.74711 0.63641 0.0
C1025 C 0.63731 0.76525 0.62366 0.0
C1026 C 0.65354 0.77222 0.64781 0.0
C1027 C 0.66206 0.74919 0.68135 0.0
C1028 C 0.67734 0.75598 0.70416 0.0
C1029 C 0.68427 0.78565 0.69329 0.0
C1030 C 0.67596 0.80855 0.6594 0.0
C1031 C 0.66067 0.80188 0.63653 0.0
H1032 H 0.69609 0.79087 0.71099 0.0
H1033 H 0.55049 0.71339 0.47834 0.0
H1034 H 0.3803 0.78776 0.83962 0.0
H1035 H 0.38038 0.78519 0.72605 0.0
H1036 H 0.34465 0.71133 0.73139 0.0
H1037 H 0.34423 0.71417 0.84558 0.0
H1038 H 0.37553 0.70125 0.6557 0.0
H1039 H 0.33084 0.77278 0.68711 0.0
H1040 H 0.31787 0.8199 0.73298 0.0
H1041 H 0.35331 0.88004 0.64893 0.0
H1042 H 0.36663 0.83321 0.6033 0.0
H1043 H 0.36313 0.69727 0.3294 0.0
H1044 H 0.36108 0.6963 0.4427 0.0
H1045 H 0.38001 0.79166 0.45122 0.0
H1046 H 0.38109 0.79332 0.33763 0.0
H1047 H 0.35606 0.78884 0.52213 0.0
H1048 H 0.40188 0.72237 0.495 0.0
H1049 H 0.4177 0.67783 0.45296 0.0
H1050 H 0.38439 0.6114 0.53172 0.0
H1051 H 0.36824 0.65558 0.57356 0.0
C1052 C 0.37238 0.77111 0.81661 0.0
C1053 C 0.36226 0.75112 0.85108 0.0
C1054 C 0.37243 0.76973 0.75197 0.0
C1055 C 0.36253 0.74809 0.72103 0.0
C1056 C 0.35234 0.72816 0.75503 0.0
C1057 C 0.35206 0.72993 0.81988 0.0
C1058 C 0.36324 0.74603 0.65295 0.0
C1059 C 0.37104 0.72001 0.62602 0.0
C1060 C 0.35791 0.77125 0.6154 0.0
C1061 C 0.3498 0.79946 0.64223 0.0
C1062 C 0.33594 0.79603 0.67883 0.0
C1063 C 0.32851 0.82269 0.7047 0.0
C1064 C 0.33478 0.85294 0.69399 0.0
C1065 C 0.34847 0.8566 0.65722 0.0
C1066 C 0.35595 0.83001 0.63129 0.0
C1067 C 0.36704 0.71782 0.35568 0.0
C1068 C 0.37226 0.74538 0.32525 0.0
C1069 C 0.36593 0.71722 0.42036 0.0
C1070 C 0.37055 0.74379 0.45555 0.0
C1071 C 0.37629 0.77095 0.425 0.0
C1072 C 0.37698 0.77186 0.36029 0.0
C1073 C 0.36856 0.74404 0.52392 0.0
C1074 C 0.36051 0.76981 0.55121 0.0
C1075 C 0.37407 0.71893 0.56192 0.0
C1076 C 0.38376 0.6923 0.53686 0.0
C1077 C 0.39786 0.69827 0.50294 0.0
C1078 C 0.4069 0.67309 0.47922 0.0
C1079 C 0.40203 0.64181 0.48951 0.0
C1080 C 0.38813 0.63565 0.52371 0.0
C1081 C 0.37904 0.66075 0.54748 0.0
H1082 H 0.40905 0.62235 0.47111 0.0
H1083 H 0.32901 0.87355 0.71408 0.0
H1084 H 0.60998 0.27116 0.14682 0.0
H1085 H 0.6088 0.26661 0.25937 0.0
H1086 H 0.64595 0.19562 0.25439 0.0
H1087 H 0.64744 0.20039 0.14091 0.0
H1088 H 0.60122 0.21759 0.33155 0.0
H1089 H 0.66802 0.20475 0.38888 0.0
H1090 H 0.69441 0.21855 0.34467 0.0
H1091 H 0.6737 0.29827 0.25065 0.0
H1092 H 0.64725 0.28516 0.29491 0.0
H1093 H 0.61096 0.18957 0.65796 0.0
H1094 H 0.61239 0.18518 0.54467 0.0
H1095 H 0.63049 0.28094 0.53379 0.0
H1096 H 0.62934 0.28547 0.64666 0.0
H1097 H 0.64817 0.24077 0.46492 0.0
H1098 H 0.59226 0.26469 0.49698 0.0
H1099 H 0.56533 0.25628 0.54122 0.0
H1100 H 0.56315 0.16413 0.45598 0.0
H1101 H 0.59017 0.17184 0.41191 0.0
C1102 C 0.61794 0.25457 0.16946 0.0
C1103 C 0.62883 0.23614 0.13503 0.0
C1104 C 0.61718 0.25191 0.23378 0.0
C1105 C 0.62725 0.23077 0.26493 0.0
C1106 C 0.63816 0.21224 0.23095 0.0
C1107 C 0.63901 0.21503 0.16632 0.0
C1108 C 0.62638 0.22891 0.33323 0.0
C1109 C 0.6115 0.22238 0.36081 0.0
C1110 C 0.63979 0.23541 0.37104 0.0
C1111 C 0.65564 0.24371 0.34456 0.0
C1112 C 0.66912 0.22525 0.35885 0.0
C1113 C 0.68408 0.23295 0.3338 0.0
C1114 C 0.68571 0.2592 0.29467 0.0
C1115 C 0.6724 0.27787 0.28073 0.0
C1116 C 0.65742 0.27029 0.30572 0.0
C1117 C 0.6151 0.2098 0.63141 0.0
C1118 C 0.62009 0.23784 0.66122 0.0
C1119 C 0.61592 0.20722 0.5668 0.0
C1120 C 0.62159 0.23272 0.53124 0.0
C1121 C 0.62622 0.26093 0.56072 0.0
C1122 C 0.62547 0.26351 0.62515 0.0
C1123 C 0.62293 0.23012 0.46315 0.0
C1124 C 0.63793 0.23552 0.43569 0.0
C1125 C 0.60955 0.22332 0.42542 0.0
C1126 C 0.5933 0.21869 0.45178 0.0
C1127 C 0.58609 0.24252 0.48812 0.0
C1128 C 0.5708 0.23791 0.51307 0.0
C1129 C 0.56255 0.20965 0.50158 0.0
C1130 C 0.56956 0.18598 0.46495 0.0
C1131 C 0.58486 0.19047 0.43995 0.0
H1132 H 0.55072 0.20612 0.52092 0.0
H1133 H 0.6973 0.26511 0.27529 0.0
H1134 H 0.3757 0.21304 0.15849 0.0
H1135 H 0.3756 0.21734 0.27195 0.0
H1136 H 0.34606 0.30091 0.26082 0.0
H1137 H 0.34571 0.29623 0.14664 0.0
H1138 H 0.37858 0.30134 0.33581 0.0
H1139 H 0.32716 0.25051 0.31387 0.0
H1140 H 0.30861 0.20999 0.27313 0.0
H1141 H 0.33681 0.13647 0.35646 0.0
H1142 H 0.35567 0.17654 0.39688 0.0
H1143 H 0.37074 0.30951 0.66704 0.0
H1144 H 0.36732 0.31235 0.55435 0.0
H1145 H 0.37661 0.21184 0.53968 0.0
H1146 H 0.37931 0.20867 0.65253 0.0
H1147 H 0.35162 0.2248 0.47639 0.0
H1148 H 0.40394 0.27139 0.49116 0.0
H1149 H 0.4244 0.30901 0.52857 0.0
H1150 H 0.39722 0.38695 0.45627 0.0
H1151 H 0.37648 0.34981 0.4191 0.0
C1152 C 0.36904 0.23214 0.18024 0.0
C1153 C 0.36071 0.25433 0.14407 0.0
C1154 C 0.36899 0.23452 0.24485 0.0
C1155 C 0.36085 0.25944 0.27423 0.0
C1156 C 0.35238 0.28153 0.23852 0.0
C1157 C 0.35212 0.27873 0.17366 0.0
C1158 C 0.36186 0.26262 0.34231 0.0
C1159 C 0.37244 0.28514 0.367 0.0
C1160 C 0.35425 0.24068 0.38203 0.0
C1161 C 0.34291 0.21652 0.35788 0.0
C1162 C 0.3295 0.22568 0.32297 0.0
C1163 C 0.31891 0.2028 0.30006 0.0
C1164 C 0.32155 0.17067 0.31206 0.0
C1165 C 0.33478 0.16137 0.34713 0.0
C1166 C 0.34542 0.18416 0.37011 0.0
C1167 C 0.37233 0.28815 0.6396 0.0
C1168 C 0.37527 0.25885 0.66844 0.0
C1169 C 0.37038 0.2898 0.57517 0.0
C1170 C 0.37176 0.26233 0.53842 0.0
C1171 C 0.37537 0.23331 0.56709 0.0
C1172 C 0.377 0.23154 0.63151 0.0
C1173 C 0.36862 0.26327 0.4706 0.0
C1174 C 0.35764 0.24141 0.44575 0.0
C1175 C 0.37613 0.28548 0.43064 0.0
C1176 C 0.38857 0.30785 0.453 0.0
C1177 C 0.40226 0.29657 0.4837 0.0
C1178 C 0.41392 0.3178 0.50477 0.0
C1179 C 0.41209 0.35036 0.49498 0.0
C1180 C 0.39861 0.36174 0.46393 0.0
C1181 C 0.3869 0.34061 0.44281 0.0
H1182 H 0.42113 0.36675 0.51132 0.0
H1183 H 0.31334 0.15299 0.2943 0.0
H1184 H 0.06409 0.19598 0.58257 0.0
H1185 H 0.03498 0.19515 0.58866 0.0
H1186 H 0.03439 0.29741 0.60164 0.0
H1187 H 0.06373 0.29817 0.59887 0.0
H1188 H 0.01259 0.27464 0.67438 0.0
H1189 H 0.0268 0.25659 0.46191 0.0
H1190 H 0.04072 0.23097 0.37385 0.0
H1191 H 0.01825 0.14216 0.41813 0.0
H1192 H 0.00436 0.16715 0.50702 0.0
H1193 H 0.93356 0.29378 0.55034 0.0
H1194 H 0.96272 0.29248 0.55853 0.0
H1195 H 0.96053 0.19536 0.62052 0.0
H1196 H 0.9312 0.19664 0.61407 0.0
H1197 H 0.98316 0.21477 0.51162 0.0
H1198 H 0.96831 0.23721 0.72546 0.0
H1199 H 0.95383 0.26692 0.8069 0.0
H1200 H 0.97708 0.35303 0.74995 0.0
H1201 H 0.99152 0.32388 0.66746 0.0
C1202 C 0.05774 0.21828 0.58696 0.0
C1203 C 0.06608 0.24719 0.58949 0.0
C1204 C 0.04112 0.21779 0.59018 0.0
C1205 C 0.03249 0.24626 0.59389 0.0
C1206 C 0.04082 0.27516 0.59839 0.0
C1207 C 0.05754 0.2756 0.59668 0.0
C1208 C 0.01479 0.24575 0.59181 0.0
C1209 C 0.00619 0.26181 0.63839 0.0
C1210 C 0.0064 0.22876 0.54514 0.0
C1211 C 0.01466 0.21368 0.49148 0.0
C1212 C 0.02491 0.23154 0.45312 0.0
C1213 C 0.03279 0.21714 0.40303 0.0
C1214 C 0.0304 0.18494 0.3905 0.0
C1215 C 0.0201 0.16709 0.42795 0.0
C1216 C 0.01221 0.18137 0.47816 0.0
C1217 C 0.93927 0.27211 0.56562 0.0
C1218 C 0.93016 0.24526 0.5815 0.0
C1219 C 0.95588 0.27149 0.5705 0.0
C1220 C 0.96362 0.2439 0.59034 0.0
C1221 C 0.95464 0.21686 0.60533 0.0
C1222 C 0.93796 0.21765 0.60171 0.0
C1223 C 0.98117 0.24337 0.59424 0.0
C1224 C 0.98967 0.22733 0.54772 0.0
C1225 C 0.98944 0.26091 0.64002 0.0
C1226 C 0.98086 0.27842 0.68987 0.0
C1227 C 0.97022 0.26253 0.72989 0.0
C1228 C 0.96204 0.27925 0.77634 0.0
C1229 C 0.9645 0.31186 0.78349 0.0
C1230 C 0.97517 0.32778 0.74431 0.0
C1231 C 0.98336 0.31116 0.69774 0.0
H1232 H 0.95816 0.32477 0.81948 0.0
H1233 H 0.03651 0.17384 0.3517 0.0
H1234 H 0.93064 0.77758 0.30451 0.0
H1235 H 0.95968 0.76924 0.29985 0.0
H1236 H 0.96158 0.76745 0.50025 0.0
H1237 H 0.93254 0.77476 0.50528 0.0
H1238 H 0.98732 0.80464 0.42888 0.0
H1239 H 0.96069 0.70214 0.44926 0.0
H1240 H 0.9412 0.66114 0.41808 0.0
H1241 H 0.96264 0.65631 0.23653 0.0
H1242 H 0.98212 0.69767 0.26643 0.0
H1243 H 0.05993 0.73611 0.50485 0.0
H1244 H 0.03111 0.7445 0.5 0.0
H1245 H 0.03122 0.71714 0.30643 0.0
H1246 H 0.06013 0.70784 0.31138 0.0
H1247 H 0.00448 0.69656 0.36473 0.0
H1248 H 0.03272 0.79444 0.34502 0.0
H1249 H 0.05282 0.83457 0.37453 0.0
H1250 H 0.02869 0.84962 0.54866 0.0
H1251 H 0.00856 0.80916 0.52065 0.0
C1252 C 0.93732 0.77613 0.34751 0.0
C1253 C 0.92942 0.77673 0.40527 0.0
C1254 C 0.95383 0.77121 0.34476 0.0
C1255 C 0.96262 0.76756 0.39973 0.0
C1256 C 0.95492 0.77023 0.45746 0.0
C1257 C 0.93838 0.77437 0.46023 0.0
C1258 C 0.97963 0.75862 0.39728 0.0
C1259 C 0.99112 0.78101 0.41525 0.0
C1260 C 0.98446 0.72802 0.37791 0.0
C1261 C 0.9727 0.70331 0.35978 0.0
C1262 C 0.96112 0.69262 0.40245 0.0
C1263 C 0.95011 0.66924 0.38508 0.0
C1264 C 0.95064 0.6562 0.32529 0.0
C1265 C 0.96221 0.66648 0.28278 0.0
C1266 C 0.97324 0.68988 0.29992 0.0
C1267 C 0.05379 0.73131 0.46153 0.0
C1268 C 0.06229 0.72173 0.40826 0.0
C1269 C 0.03734 0.73625 0.45876 0.0
C1270 C 0.02915 0.73231 0.40239 0.0
C1271 C 0.03738 0.72058 0.35022 0.0
C1272 C 0.05387 0.71522 0.35316 0.0
C1273 C 0.01226 0.74243 0.39737 0.0
C1274 C 0.00077 0.72032 0.37782 0.0
C1275 C 0.00743 0.77346 0.41465 0.0
C1276 C 0.01921 0.79854 0.43095 0.0
C1277 C 0.03173 0.8062 0.38973 0.0
C1278 C 0.04313 0.829 0.40619 0.0
C1279 C 0.04206 0.84452 0.46353 0.0
C1280 C 0.02951 0.8375 0.50431 0.0
C1281 C 0.01809 0.81466 0.48815 0.0
H1282 H 0.05098 0.86195 0.47636 0.0
H1283 H 0.94213 0.63805 0.31198 0.0
H1284 H 0.56313 0.68678 0.06182 0.0
H1285 H 0.53413 0.68049 0.0656 0.0
H1286 H 0.52929 0.77738 0.12853 0.0
H1287 H 0.5584 0.78335 0.12746 0.0
H1288 H 0.50957 0.74227 0.19016 0.0
H1289 H 0.52251 0.75362 0.97337 0.0
H1290 H 0.53629 0.74098 0.8748 0.0
H1291 H 0.51649 0.64693 0.87798 0.0
H1292 H 0.50275 0.65891 0.97704 0.0
H1293 H 0.43251 0.77699 0.05343 0.0
H1294 H 0.46153 0.77157 0.06058 0.0
H1295 H 0.45604 0.67543 0.12516 0.0
H1296 H 0.4268 0.68085 0.11992 0.0
H1297 H 0.48032 0.70421 0.00367 0.0
H1298 H 0.46761 0.69646 0.22787 0.0
H1299 H 0.45299 0.71481 0.32108 0.0
H1300 H 0.47187 0.80873 0.29597 0.0
H1301 H 0.48639 0.79098 0.20195 0.0
C1302 C 0.55588 0.70677 0.07637 0.0
C1303 C 0.563 0.73566 0.09388 0.0
C1304 C 0.53931 0.70316 0.07836 0.0
C1305 C 0.52951 0.72862 0.09631 0.0
C1306 C 0.53662 0.75739 0.11451 0.0
C1307 C 0.55323 0.76084 0.11366 0.0
C1308 C 0.51186 0.72542 0.09564 0.0
C1309 C 0.50323 0.73392 0.14929 0.0
C1310 C 0.50352 0.71427 0.04256 0.0
C1311 C 0.51175 0.70705 0.98295 0.0
C1312 C 0.52119 0.73017 0.95328 0.0
C1313 C 0.52898 0.72314 0.89729 0.0
C1314 C 0.52731 0.69314 0.87025 0.0
C1315 C 0.5178 0.67014 0.89905 0.0
C1316 C 0.51 0.67704 0.95509 0.0
C1317 C 0.43744 0.75463 0.06902 0.0
C1318 C 0.4274 0.72932 0.08619 0.0
C1319 C 0.45399 0.75165 0.07321 0.0
C1320 C 0.46077 0.72323 0.09377 0.0
C1321 C 0.45089 0.69762 0.10972 0.0
C1322 C 0.43426 0.70076 0.1067 0.0
C1323 C 0.47827 0.72082 0.09801 0.0
C1324 C 0.48681 0.71173 0.0448 0.0
C1325 C 0.48652 0.73186 0.15095 0.0
C1326 C 0.4779 0.7425 0.20754 0.0
C1327 C 0.46849 0.7211 0.24184 0.0
C1328 C 0.46026 0.73137 0.2949 0.0
C1329 C 0.46146 0.76295 0.31432 0.0
C1330 C 0.47093 0.78429 0.2808 0.0
C1331 C 0.47916 0.77414 0.22766 0.0
H1332 H 0.45508 0.77085 0.35542 0.0
H1333 H 0.53335 0.68774 0.82689 0.0
H1334 H 0.43048 0.21204 0.92868 0.0
H1335 H 0.45957 0.21098 0.92571 0.0
H1336 H 0.46054 0.3128 0.90358 0.0
H1337 H 0.43118 0.3136 0.90256 0.0
H1338 H 0.4819 0.28927 0.83326 0.0
H1339 H 0.46946 0.27383 0.04689 0.0
H1340 H 0.45615 0.25032 0.13836 0.0
H1341 H 0.47693 0.15975 0.09532 0.0
H1342 H 0.4902 0.1826 0.00308 0.0
H1343 H 0.5645 0.29541 0.93073 0.0
H1344 H 0.53536 0.30061 0.9313 0.0
H1345 H 0.53068 0.20235 0.87807 0.0
H1346 H 0.55991 0.19704 0.87592 0.0
H1347 H 0.51188 0.22726 0.99042 0.0
H1348 H 0.52372 0.24687 0.77193 0.0
H1349 H 0.53777 0.27462 0.68691 0.0
H1350 H 0.51881 0.36366 0.7505 0.0
H1351 H 0.50483 0.33646 0.8365 0.0
C1352 C 0.43691 0.23422 0.92343 0.0
C1353 C 0.42865 0.26296 0.9165 0.0
C1354 C 0.45354 0.23363 0.92212 0.0
C1355 C 0.4623 0.2619 0.91621 0.0
C1356 C 0.45405 0.29069 0.90861 0.0
C1357 C 0.43732 0.29118 0.90817 0.0
C1358 C 0.48003 0.26104 0.91663 0.0
C1359 C 0.48842 0.27612 0.8683 0.0
C1360 C 0.48863 0.24374 0.96209 0.0
C1361 C 0.48073 0.2299 0.01777 0.0
C1362 C 0.47111 0.24885 0.05669 0.0
C1363 C 0.46358 0.23565 0.10872 0.0
C1364 C 0.46566 0.20355 0.12257 0.0
C1365 C 0.47532 0.1846 0.08451 0.0
C1366 C 0.48286 0.19768 0.0324 0.0
C1367 C 0.55728 0.27491 0.91903 0.0
C1368 C 0.56444 0.24578 0.90337 0.0
C1369 C 0.54068 0.27798 0.9192 0.0
C1370 C 0.53101 0.25187 0.90464 0.0
C1371 C 0.53806 0.22271 0.88933 0.0
C1372 C 0.5547 0.21976 0.88794 0.0
C1373 C 0.51348 0.25493 0.90676 0.0
C1374 C 0.50523 0.24042 0.95577 0.0
C1375 C 0.50508 0.27339 0.863 0.0
C1376 C 0.51338 0.28968 0.81102 0.0
C1377 C 0.52267 0.2724 0.76814 0.0
C1378 C 0.53059 0.28802 0.71969 0.0
C1379 C 0.52922 0.3209 0.71342 0.0
C1380 C 0.51988 0.3382 0.75547 0.0
C1381 C 0.51195 0.3227 0.80403 0.0
H1382 H 0.53537 0.33295 0.67589 0.0
H1383 H 0.45982 0.19337 0.16285 0.0
loop_
_geom_bond_atom_site_label_1
_geom_bond_atom_site_label_2
_geom_bond_distance
_geom_bond_site_symmetry_2
_ccdc_geom_bond_type
O0 Zn1 1.953 . S
O0 C16 1.225 . S
Zn1 O0 1.953 . S
Zn1 O2 1.949 . S
Zn1 O8 1.919 . S
Zn1 O13 1.924 . S
O2 Zn1 1.949 . S
O2 Zn3 1.923 . S
O2 Zn4 1.950 . S
O2 Zn5 1.945 . S
Zn3 O2 1.923 . S
Zn3 O6 1.933 . S
Zn3 O9 1.941 . S
Zn3 O10 1.965 . S
Zn4 O2 1.950 . S
Zn4 O11 1.938 . S
Zn4 O12 1.906 . S
Zn4 O22 1.953 . S
Zn5 O2 1.945 . S
Zn5 O7 1.932 . S
Zn5 O14 1.977 . S
Zn5 O15 1.910 . S
O6 Zn3 1.933 . S
O6 C17 1.226 . S
O7 Zn5 1.932 . S
O7 C17 1.307 . S
O8 Zn1 1.919 . S
O8 C19 1.253 . S
O9 Zn3 1.941 . S
O9 C19 1.283 . S
O10 Zn3 1.965 . S
O10 C18 1.303 . S
O11 Zn4 1.938 . S
O11 C18 1.247 . S
O12 Zn4 1.906 . S
O12 C20 1.304 . S
O13 Zn1 1.924 . S
O13 C21 1.311 . S
O14 Zn5 1.977 . S
O14 C20 1.272 . S
O15 Zn5 1.910 . S
O15 C21 1.231 . S
C16 O0 1.225 . S
C16 O22 1.298 . S
C17 O6 1.226 . S
C17 O7 1.307 . S
C18 O10 1.303 . S
C18 O11 1.247 . S
C19 O8 1.253 . S
C19 O9 1.283 . S
C20 O12 1.304 . S
C20 O14 1.272 . S
C21 O13 1.311 . S
C21 O15 1.231 . S
O22 Zn4 1.953 . S
O22 C16 1.298 . S
O23 Zn24 1.953 . S
O23 C39 1.225 . S
Zn24 O23 1.953 . S
Zn24 O25 1.949 . S
Zn24 O31 1.919 . S
Zn24 O36 1.924 . S
O25 Zn24 1.949 . S
O25 Zn26 1.923 . S
O25 Zn27 1.950 . S
O25 Zn28 1.945 . S
Zn26 O25 1.923 . S
Zn26 O29 1.933 . S
Zn26 O32 1.941 . S
Zn26 O33 1.965 . S
Zn27 O25 1.950 . S
Zn27 O34 1.938 . S
Zn27 O35 1.906 . S
Zn27 O45 1.953 . S
Zn28 O25 1.945 . S
Zn28 O30 1.932 . S
Zn28 O37 1.977 . S
Zn28 O38 1.910 . S
O29 Zn26 1.933 . S
O29 C40 1.226 . S
O30 Zn28 1.932 . S
O30 C40 1.307 . S
O31 Zn24 1.919 . S
O31 C42 1.253 . S
O32 Zn26 1.941 . S
O32 C42 1.283 . S
O33 Zn26 1.965 . S
O33 C41 1.303 . S
O34 Zn27 1.938 . S
O34 C41 1.247 . S
O35 Zn27 1.906 . S
O35 C43 1.304 . S
O36 Zn24 1.924 . S
O36 C44 1.311 . S
O37 Zn28 1.977 . S
O37 C43 1.272 . S
O38 Zn28 1.910 . S
O38 C44 1.231 . S
C39 O23 1.225 . S
C39 O45 1.298 . S
C40 O29 1.226 . S
C40 O30 1.307 . S
C41 O33 1.303 . S
C41 O34 1.247 . S
C42 O31 1.253 . S
C42 O32 1.283 . S
C43 O35 1.304 . S
C43 O37 1.272 . S
C44 O36 1.311 . S
C44 O38 1.231 . S
O45 Zn27 1.953 . S
O45 C39 1.298 . S
O46 Zn47 1.953 . S
O46 C62 1.225 . S
Zn47 O46 1.953 . S
Zn47 O48 1.949 . S
Zn47 O54 1.919 . S
Zn47 O59 1.924 . S
O48 Zn47 1.949 . S
O48 Zn49 1.923 . S
O48 Zn50 1.950 . S
O48 Zn51 1.945 . S
Zn49 O48 1.923 . S
Zn49 O52 1.933 . S
Zn49 O55 1.941 . S
Zn49 O56 1.965 . S
Zn50 O48 1.950 . S
Zn50 O57 1.938 . S
Zn50 O58 1.906 . S
Zn50 O68 1.953 . S
Zn51 O48 1.945 . S
Zn51 O53 1.932 . S
Zn51 O60 1.977 . S
Zn51 O61 1.910 . S
O52 Zn49 1.933 . S
O52 C63 1.226 . S
O53 Zn51 1.932 . S
O53 C63 1.307 . S
O54 Zn47 1.919 . S
O54 C65 1.253 . S
O55 Zn49 1.941 . S
O55 C65 1.283 . S
O56 Zn49 1.965 . S
O56 C64 1.303 . S
O57 Zn50 1.938 . S
O57 C64 1.247 . S
O58 Zn50 1.906 . S
O58 C66 1.304 . S
O59 Zn47 1.924 . S
O59 C67 1.311 . S
O60 Zn51 1.977 . S
O60 C66 1.272 . S
O61 Zn51 1.910 . S
O61 C67 1.231 . S
C62 O46 1.225 . S
C62 O68 1.298 . S
C63 O52 1.226 . S
C63 O53 1.307 . S
C64 O56 1.303 . S
C64 O57 1.247 . S
C65 O54 1.253 . S
C65 O55 1.283 . S
C66 O58 1.304 . S
C66 O60 1.272 . S
C67 O59 1.311 . S
C67 O61 1.231 . S
O68 Zn50 1.953 . S
O68 C62 1.298 . S
O69 Zn70 1.953 . S
O69 C85 1.225 . S
Zn70 O69 1.953 . S
Zn70 O71 1.949 . S
Zn70 O77 1.919 . S
Zn70 O82 1.924 . S
O71 Zn70 1.949 . S
O71 Zn72 1.923 . S
O71 Zn73 1.950 . S
O71 Zn74 1.945 . S
Zn72 O71 1.923 . S
Zn72 O75 1.933 . S
Zn72 O78 1.941 . S
Zn72 O79 1.965 . S
Zn73 O71 1.950 . S
Zn73 O80 1.938 . S
Zn73 O81 1.906 . S
Zn73 O91 1.953 . S
Zn74 O71 1.945 . S
Zn74 O76 1.932 . S
Zn74 O83 1.977 . S
Zn74 O84 1.910 . S
O75 Zn72 1.933 . S
O75 C86 1.226 . S
O76 Zn74 1.932 . S
O76 C86 1.307 . S
O77 Zn70 1.919 . S
O77 C88 1.253 . S
O78 Zn72 1.941 . S
O78 C88 1.283 . S
O79 Zn72 1.965 . S
O79 C87 1.303 . S
O80 Zn73 1.938 . S
O80 C87 1.247 . S
O81 Zn73 1.906 . S
O81 C89 1.304 . S
O82 Zn70 1.924 . S
O82 C90 1.311 . S
O83 Zn74 1.977 . S
O83 C89 1.272 . S
O84 Zn74 1.910 . S
O84 C90 1.231 . S
C85 O69 1.225 . S
C85 O91 1.298 . S
C86 O75 1.226 . S
C86 O76 1.307 . S
C87 O79 1.303 . S
C87 O80 1.247 . S
C88 O77 1.253 . S
C88 O78 1.283 . S
C89 O81 1.304 . S
C89 O83 1.272 . S
C90 O82 1.311 . S
C90 O84 1.231 . S
O91 Zn73 1.953 . S
O91 C85 1.298 . S
O92 Zn93 1.953 . S
O92 C108 1.225 . S
Zn93 O92 1.953 . S
Zn93 O94 1.949 . S
Zn93 O100 1.919 . S
Zn93 O105 1.924 . S
O94 Zn93 1.949 . S
O94 Zn95 1.923 . S
O94 Zn96 1.950 . S
O94 Zn97 1.945 . S
Zn95 O94 1.923 . S
Zn95 O98 1.933 1_554 S
Zn95 O101 1.941 . S
Zn95 O102 1.965 . S
Zn96 O94 1.950 . S
Zn96 O103 1.938 . S
Zn96 O104 1.906 . S
Zn96 O114 1.953 . S
Zn97 O94 1.945 . S
Zn97 O99 1.932 1_554 S
Zn97 O106 1.977 . S
Zn97 O107 1.910 . S
O98 Zn95 1.933 1_556 S
O98 C109 1.226 . S
O99 Zn97 1.932 1_556 S
O99 C109 1.307 . S
O100 Zn93 1.919 . S
O100 C111 1.253 . S
O101 Zn95 1.941 . S
O101 C111 1.283 . S
O102 Zn95 1.965 . S
O102 C110 1.303 . S
O103 Zn96 1.938 . S
O103 C110 1.247 . S
O104 Zn96 1.906 . S
O104 C112 1.304 . S
O105 Zn93 1.924 . S
O105 C113 1.311 . S
O106 Zn97 1.977 . S
O106 C112 1.272 . S
O107 Zn97 1.910 . S
O107 C113 1.231 . S
C108 O92 1.225 . S
C108 O114 1.298 . S
C109 O98 1.226 . S
C109 O99 1.307 . S
C110 O102 1.303 . S
C110 O103 1.247 . S
C111 O100 1.253 . S
C111 O101 1.283 . S
C112 O104 1.304 . S
C112 O106 1.272 . S
C113 O105 1.311 . S
C113 O107 1.231 . S
O114 Zn96 1.953 . S
O114 C108 1.298 . S
O115 Zn116 1.953 . S
O115 C131 1.225 . S
Zn116 O115 1.953 . S
Zn116 O117 1.949 . S
Zn116 O123 1.919 . S
Zn116 O128 1.924 . S
O117 Zn116 1.949 . S
O117 Zn118 1.923 . S
O117 Zn119 1.950 . S
O117 Zn120 1.945 . S
Zn118 O117 1.923 . S
Zn118 O121 1.933 1_554 S
Zn118 O124 1.941 . S
Zn118 O125 1.965 . S
Zn119 O117 1.950 . S
Zn119 O126 1.938 . S
Zn119 O127 1.906 . S
Zn119 O137 1.953 . S
Zn120 O117 1.945 . S
Zn120 O122 1.932 1_554 S
Zn120 O129 1.977 . S
Zn120 O130 1.910 . S
O121 Zn118 1.933 1_556 S
O121 C132 1.226 . S
O122 Zn120 1.932 1_556 S
O122 C132 1.307 . S
O123 Zn116 1.919 . S
O123 C134 1.253 . S
O124 Zn118 1.941 . S
O124 C134 1.283 . S
O125 Zn118 1.965 . S
O125 C133 1.303 . S
O126 Zn119 1.938 . S
O126 C133 1.247 . S
O127 Zn119 1.906 . S
O127 C135 1.304 . S
O128 Zn116 1.924 . S
O128 C136 1.311 . S
O129 Zn120 1.977 . S
O129 C135 1.272 . S
O130 Zn120 1.910 . S
O130 C136 1.231 . S
C131 O115 1.225 . S
C131 O137 1.298 . S
C132 O121 1.226 . S
C132 O122 1.307 . S
C133 O125 1.303 . S
C133 O126 1.247 . S
C134 O123 1.253 . S
C134 O124 1.283 . S
C135 O127 1.304 . S
C135 O129 1.272 . S
C136 O128 1.311 . S
C136 O130 1.231 . S
O137 Zn119 1.953 . S
O137 C131 1.298 . S
O138 Zn139 1.953 . S
O138 C154 1.225 . S
Zn139 O138 1.953 . S
Zn139 O140 1.949 . S
Zn139 O146 1.919 . S
Zn139 O151 1.924 . S
O140 Zn139 1.949 . S
O140 Zn141 1.923 . S
O140 Zn142 1.950 . S
O140 Zn143 1.945 . S
Zn141 O140 1.923 . S
Zn141 O144 1.933 1_556 S
Zn141 O147 1.941 . S
Zn141 O148 1.965 . S
Zn142 O140 1.950 . S
Zn142 O149 1.938 . S
Zn142 O150 1.906 . S
Zn142 O160 1.953 . S
Zn143 O140 1.945 . S
Zn143 O145 1.932 1_556 S
Zn143 O152 1.977 . S
Zn143 O153 1.910 . S
O144 Zn141 1.933 1_554 S
O144 C155 1.226 . S
O145 Zn143 1.932 1_554 S
O145 C155 1.307 . S
O146 Zn139 1.919 . S
O146 C157 1.253 . S
O147 Zn141 1.941 . S
O147 C157 1.283 . S
O148 Zn141 1.965 . S
O148 C156 1.303 . S
O149 Zn142 1.938 . S
O149 C156 1.247 . S
O150 Zn142 1.906 . S
O150 C158 1.304 . S
O151 Zn139 1.924 . S
O151 C159 1.311 . S
O152 Zn143 1.977 . S
O152 C158 1.272 . S
O153 Zn143 1.910 . S
O153 C159 1.231 . S
C154 O138 1.225 . S
C154 O160 1.298 . S
C155 O144 1.226 . S
C155 O145 1.307 . S
C156 O148 1.303 . S
C156 O149 1.247 . S
C157 O146 1.253 . S
C157 O147 1.283 . S
C158 O150 1.304 . S
C158 O152 1.272 . S
C159 O151 1.311 . S
C159 O153 1.231 . S
O160 Zn142 1.953 . S
O160 C154 1.298 . S
O161 Zn162 1.953 . S
O161 C177 1.225 . S
Zn162 O161 1.953 . S
Zn162 O163 1.949 . S
Zn162 O169 1.919 . S
Zn162 O174 1.924 . S
O163 Zn162 1.949 . S
O163 Zn164 1.923 . S
O163 Zn165 1.950 . S
O163 Zn166 1.945 . S
Zn164 O163 1.923 . S
Zn164 O167 1.933 1_556 S
Zn164 O170 1.941 . S
Zn164 O171 1.965 . S
Zn165 O163 1.950 . S
Zn165 O172 1.938 . S
Zn165 O173 1.906 . S
Zn165 O183 1.953 . S
Zn166 O163 1.945 . S
Zn166 O168 1.932 1_556 S
Zn166 O175 1.977 . S
Zn166 O176 1.910 . S
O167 Zn164 1.933 1_554 S
O167 C178 1.226 . S
O168 Zn166 1.932 1_554 S
O168 C178 1.307 . S
O169 Zn162 1.919 . S
O169 C180 1.253 . S
O170 Zn164 1.941 . S
O170 C180 1.283 . S
O171 Zn164 1.965 . S
O171 C179 1.303 . S
O172 Zn165 1.938 . S
O172 C179 1.247 . S
O173 Zn165 1.906 . S
O173 C181 1.304 . S
O174 Zn162 1.924 . S
O174 C182 1.311 . S
O175 Zn166 1.977 . S
O175 C181 1.272 . S
O176 Zn166 1.910 . S
O176 C182 1.231 . S
C177 O161 1.225 . S
C177 O183 1.298 . S
C178 O167 1.226 . S
C178 O168 1.307 . S
C179 O171 1.303 . S
C179 O172 1.247 . S
C180 O169 1.253 . S
C180 O170 1.283 . S
C181 O173 1.304 . S
C181 O175 1.272 . S
C182 O174 1.311 . S
C182 O176 1.231 . S
O183 Zn165 1.953 . S
O183 C177 1.298 . S
H184 C202 0.951 . S
H185 C204 0.951 . S
H186 C206 0.950 . S
H187 C207 0.950 . S
H188 C209 0.950 . S
H189 C212 0.950 . S
H190 C213 0.950 . S
H191 C215 0.950 . S
H192 C216 0.950 . S
H193 C217 0.951 . S
H194 C219 0.951 . S
H195 C221 0.950 . S
H196 C222 0.950 . S
H197 C224 0.950 . S
H198 C227 0.950 . S
H199 C228 0.950 . S
H200 C230 0.950 . S
H201 C231 0.950 . S
C202 H184 0.951 . S
C202 C203 1.366 . S
C202 C204 1.388 . S
C203 C202 1.366 . S
C203 C207 1.385 . S
C204 H185 0.951 . S
C204 C202 1.388 . S
C204 C205 1.366 . S
C205 C204 1.366 . S
C205 C206 1.414 . S
C205 C208 1.499 . S
C206 H186 0.950 . S
C206 C205 1.414 . S
C206 C207 1.374 . S
C207 H187 0.950 . S
C207 C203 1.385 . S
C207 C206 1.374 . S
C208 C205 1.499 . S
C208 C209 1.373 . S
C208 C210 1.389 . S
C209 H188 0.950 . S
C209 C208 1.373 . S
C209 C225 1.377 . S
C210 C208 1.389 . S
C210 C211 1.524 . S
C210 C224 1.377 . S
C211 C210 1.524 . S
C211 C212 1.397 . S
C211 C216 1.363 . S
C212 H189 0.950 . S
C212 C211 1.397 . S
C212 C213 1.334 . S
C213 H190 0.950 . S
C213 C212 1.334 . S
C213 C214 1.287 . S
C214 C213 1.287 . S
C214 C215 1.524 . S
C214 H233 0.913 . S
C215 H191 0.950 . S
C215 C214 1.524 . S
C215 C216 1.415 . S
C216 H192 0.950 . S
C216 C211 1.363 . S
C216 C215 1.415 . S
C217 H193 0.951 . S
C217 C218 1.366 . S
C217 C219 1.388 . S
C218 C217 1.366 . S
C218 C222 1.385 . S
C219 H194 0.951 . S
C219 C217 1.388 . S
C219 C220 1.366 . S
C220 C219 1.366 . S
C220 C221 1.414 . S
C220 C223 1.499 . S
C221 H195 0.950 . S
C221 C220 1.414 . S
C221 C222 1.374 . S
C222 H196 0.950 . S
C222 C218 1.385 . S
C222 C221 1.374 . S
C223 C220 1.499 . S
C223 C224 1.373 . S
C223 C225 1.389 . S
C224 H197 0.950 . S
C224 C210 1.377 . S
C224 C223 1.373 . S
C225 C209 1.377 . S
C225 C223 1.389 . S
C225 C226 1.524 . S
C226 C225 1.524 . S
C226 C227 1.397 . S
C226 C231 1.363 . S
C227 H198 0.950 . S
C227 C226 1.397 . S
C227 C228 1.334 . S
C228 H199 0.950 . S
C228 C227 1.334 . S
C228 C229 1.287 . S
C229 C228 1.287 . S
C229 C230 1.524 . S
C229 H232 0.999 . S
C230 H200 0.950 . S
C230 C229 1.524 . S
C230 C231 1.415 . S
C231 H201 0.950 . S
C231 C226 1.363 . S
C231 C230 1.415 . S
H232 C229 0.999 . S
H233 C214 0.913 . S
H234 C252 0.951 . S
H235 C254 0.951 . S
H236 C256 0.950 . S
H237 C257 0.950 . S
H238 C259 0.950 . S
H239 C262 0.950 . S
H240 C263 0.950 . S
H241 C265 0.950 1_554 S
H242 C266 0.950 . S
H243 C267 0.951 . S
H244 C269 0.951 . S
H245 C271 0.950 . S
H246 C272 0.950 . S
H247 C274 0.950 . S
H248 C277 0.950 . S
H249 C278 0.950 . S
H250 C280 0.950 . S
H251 C281 0.950 . S
C252 H234 0.951 . S
C252 C253 1.366 . S
C252 C254 1.388 . S
C253 C252 1.366 . S
C253 C257 1.385 . S
C254 H235 0.951 . S
C254 C252 1.388 . S
C254 C255 1.366 . S
C255 C254 1.366 . S
C255 C256 1.414 . S
C255 C258 1.499 . S
C256 H236 0.950 . S
C256 C255 1.414 . S
C256 C257 1.374 . S
C257 H237 0.950 . S
C257 C253 1.385 . S
C257 C256 1.374 . S
C258 C255 1.499 . S
C258 C259 1.373 . S
C258 C260 1.389 . S
C259 H238 0.950 . S
C259 C258 1.373 . S
C259 C275 1.377 . S
C260 C258 1.389 . S
C260 C261 1.524 . S
C260 C274 1.377 . S
C261 C260 1.524 . S
C261 C262 1.397 . S
C261 C266 1.363 . S
C262 H239 0.950 . S
C262 C261 1.397 . S
C262 C263 1.334 . S
C263 H240 0.950 . S
C263 C262 1.334 . S
C263 C264 1.287 . S
C264 C263 1.287 . S
C264 C265 1.524 . S
C264 H283 0.913 . S
C265 H241 0.950 1_556 S
C265 C264 1.524 . S
C265 C266 1.415 . S
C266 H242 0.950 . S
C266 C261 1.363 . S
C266 C265 1.415 . S
C267 H243 0.951 . S
C267 C268 1.366 . S
C267 C269 1.388 . S
C268 C267 1.366 . S
C268 C272 1.385 . S
C269 H244 0.951 . S
C269 C267 1.388 . S
C269 C270 1.366 . S
C270 C269 1.366 . S
C270 C271 1.414 . S
C270 C273 1.499 . S
C271 H245 0.950 . S
C271 C270 1.414 . S
C271 C272 1.374 . S
C272 H246 0.950 . S
C272 C268 1.385 . S
C272 C271 1.374 . S
C273 C270 1.499 . S
C273 C274 1.373 . S
C273 C275 1.389 . S
C274 H247 0.950 . S
C274 C260 1.377 . S
C274 C273 1.373 . S
C275 C259 1.377 . S
C275 C273 1.389 . S
C275 C276 1.524 . S
C276 C275 1.524 . S
C276 C277 1.397 . S
C276 C281 1.363 . S
C277 H248 0.950 . S
C277 C276 1.397 . S
C277 C278 1.334 . S
C278 H249 0.950 . S
C278 C277 1.334 . S
C278 C279 1.287 . S
C279 C278 1.287 . S
C279 C280 1.524 . S
C279 H282 0.999 . S
C280 H250 0.950 . S
C280 C279 1.524 . S
C280 C281 1.415 . S
C281 H251 0.950 . S
C281 C276 1.363 . S
C281 C280 1.415 . S
H282 C279 0.999 . S
H283 C264 0.913 . S
H284 C302 0.951 . S
H285 C304 0.951 . S
H286 C306 0.950 . S
H287 C307 0.950 . S
H288 C309 0.950 . S
H289 C312 0.950 . S
H290 C313 0.950 . S
H291 C315 0.950 . S
H292 C316 0.950 . S
H293 C317 0.951 . S
H294 C319 0.951 . S
H295 C321 0.950 . S
H296 C322 0.950 . S
H297 C324 0.950 . S
H298 C327 0.950 . S
H299 C328 0.950 . S
H300 C330 0.950 . S
H301 C331 0.950 . S
C302 H284 0.951 . S
C302 C303 1.366 . S
C302 C304 1.388 . S
C303 C302 1.366 . S
C303 C307 1.385 . S
C304 H285 0.951 . S
C304 C302 1.388 . S
C304 C305 1.366 . S
C305 C304 1.366 . S
C305 C306 1.414 . S
C305 C308 1.499 . S
C306 H286 0.950 . S
C306 C305 1.414 . S
C306 C307 1.374 . S
C307 H287 0.950 . S
C307 C303 1.385 . S
C307 C306 1.374 . S
C308 C305 1.499 . S
C308 C309 1.373 . S
C308 C310 1.389 . S
C309 H288 0.950 . S
C309 C308 1.373 . S
C309 C325 1.377 . S
C310 C308 1.389 . S
C310 C311 1.524 . S
C310 C324 1.377 . S
C311 C310 1.524 . S
C311 C312 1.397 . S
C311 C316 1.363 . S
C312 H289 0.950 . S
C312 C311 1.397 . S
C312 C313 1.334 . S
C313 H290 0.950 . S
C313 C312 1.334 . S
C313 C314 1.287 . S
C314 C313 1.287 . S
C314 C315 1.524 . S
C314 H333 0.913 . S
C315 H291 0.950 . S
C315 C314 1.524 . S
C315 C316 1.415 . S
C316 H292 0.950 . S
C316 C311 1.363 . S
C316 C315 1.415 . S
C317 H293 0.951 . S
C317 C318 1.366 . S
C317 C319 1.388 . S
C318 C317 1.366 . S
C318 C322 1.385 . S
C319 H294 0.951 . S
C319 C317 1.388 . S
C319 C320 1.366 . S
C320 C319 1.366 . S
C320 C321 1.414 . S
C320 C323 1.499 . S
C321 H295 0.950 . S
C321 C320 1.414 . S
C321 C322 1.374 . S
C322 H296 0.950 . S
C322 C318 1.385 . S
C322 C321 1.374 . S
C323 C320 1.499 . S
C323 C324 1.373 . S
C323 C325 1.389 . S
C324 H297 0.950 . S
C324 C310 1.377 . S
C324 C323 1.373 . S
C325 C309 1.377 . S
C325 C323 1.389 . S
C325 C326 1.524 . S
C326 C325 1.524 . S
C326 C327 1.397 . S
C326 C331 1.363 . S
C327 H298 0.950 . S
C327 C326 1.397 . S
C327 C328 1.334 . S
C328 H299 0.950 . S
C328 C327 1.334 . S
C328 C329 1.287 . S
C329 C328 1.287 . S
C329 C330 1.524 . S
C329 H332 0.999 . S
C330 H300 0.950 . S
C330 C329 1.524 . S
C330 C331 1.415 . S
C331 H301 0.950 . S
C331 C326 1.363 . S
C331 C330 1.415 . S
H332 C329 0.999 . S
H333 C314 0.913 . S
H334 C352 0.951 . S
H335 C354 0.951 . S
H336 C356 0.950 . S
H337 C357 0.950 . S
H338 C359 0.950 . S
H339 C362 0.950 . S
H340 C363 0.950 . S
H341 C365 0.950 . S
H342 C366 0.950 . S
H343 C367 0.951 . S
H344 C369 0.951 . S
H345 C371 0.950 . S
H346 C372 0.950 . S
H347 C374 0.950 . S
H348 C377 0.950 . S
H349 C378 0.950 . S
H350 C380 0.950 . S
H351 C381 0.950 . S
C352 H334 0.951 . S
C352 C353 1.366 . S
C352 C354 1.388 . S
C353 C352 1.366 . S
C353 C357 1.385 . S
C354 H335 0.951 . S
C354 C352 1.388 . S
C354 C355 1.366 . S
C355 C354 1.366 . S
C355 C356 1.414 . S
C355 C358 1.499 . S
C356 H336 0.950 . S
C356 C355 1.414 . S
C356 C357 1.374 . S
C357 H337 0.950 . S
C357 C353 1.385 . S
C357 C356 1.374 . S
C358 C355 1.499 . S
C358 C359 1.373 . S
C358 C360 1.389 . S
C359 H338 0.950 . S
C359 C358 1.373 . S
C359 C375 1.377 . S
C360 C358 1.389 . S
C360 C361 1.524 . S
C360 C374 1.377 . S
C361 C360 1.524 . S
C361 C362 1.397 . S
C361 C366 1.363 . S
C362 H339 0.950 . S
C362 C361 1.397 . S
C362 C363 1.334 . S
C363 H340 0.950 . S
C363 C362 1.334 . S
C363 C364 1.287 . S
C364 C363 1.287 . S
C364 C365 1.524 . S
C364 H383 0.913 . S
C365 H341 0.950 . S
C365 C364 1.524 . S
C365 C366 1.415 . S
C366 H342 0.950 . S
C366 C361 1.363 . S
C366 C365 1.415 . S
C367 H343 0.951 . S
C367 C368 1.366 . S
C367 C369 1.388 . S
C368 C367 1.366 . S
C368 C372 1.385 . S
C369 H344 0.951 . S
C369 C367 1.388 . S
C369 C370 1.366 . S
C370 C369 1.366 . S
C370 C371 1.414 . S
C370 C373 1.499 . S
C371 H345 0.950 . S
C371 C370 1.414 . S
C371 C372 1.374 . S
C372 H346 0.950 . S
C372 C368 1.385 . S
C372 C371 1.374 . S
C373 C370 1.499 . S
C373 C374 1.373 . S
C373 C375 1.389 . S
C374 H347 0.950 . S
C374 C360 1.377 . S
C374 C373 1.373 . S
C375 C359 1.377 . S
C375 C373 1.389 . S
C375 C376 1.524 . S
C376 C375 1.524 . S
C376 C377 1.397 . S
C376 C381 1.363 . S
C377 H348 0.950 . S
C377 C376 1.397 . S
C377 C378 1.334 . S
C378 H349 0.950 . S
C378 C377 1.334 . S
C378 C379 1.287 . S
C379 C378 1.287 . S
C379 C380 1.524 . S
C379 H382 0.999 . S
C380 H350 0.950 . S
C380 C379 1.524 . S
C380 C381 1.415 . S
C381 H351 0.950 . S
C381 C376 1.363 . S
C381 C380 1.415 . S
H382 C379 0.999 . S
H383 C364 0.913 . S
H384 C402 0.951 . S
H385 C404 0.951 . S
H386 C406 0.950 . S
H387 C407 0.950 . S
H388 C409 0.950 . S
H389 C412 0.950 . S
H390 C413 0.950 . S
H391 C415 0.950 . S
H392 C416 0.950 . S
H393 C417 0.951 . S
H394 C419 0.951 . S
H395 C421 0.950 . S
H396 C422 0.950 . S
H397 C424 0.950 . S
H398 C427 0.950 . S
H399 C428 0.950 . S
H400 C430 0.950 . S
H401 C431 0.950 . S
C402 H384 0.951 . S
C402 C403 1.366 . S
C402 C404 1.388 . S
C403 C402 1.366 . S
C403 C407 1.385 . S
C404 H385 0.951 . S
C404 C402 1.388 . S
C404 C405 1.366 . S
C405 C404 1.366 . S
C405 C406 1.414 . S
C405 C408 1.499 . S
C406 H386 0.950 . S
C406 C405 1.414 . S
C406 C407 1.374 . S
C407 H387 0.950 . S
C407 C403 1.385 . S
C407 C406 1.374 . S
C408 C405 1.499 . S
C408 C409 1.373 . S
C408 C410 1.389 . S
C409 H388 0.950 . S
C409 C408 1.373 . S
C409 C425 1.377 1_565 S
C410 C408 1.389 . S
C410 C411 1.524 . S
C410 C424 1.377 1_565 S
C411 C410 1.524 . S
C411 C412 1.397 . S
C411 C416 1.363 . S
C412 H389 0.950 . S
C412 C411 1.397 . S
C412 C413 1.334 . S
C413 H390 0.950 . S
C413 C412 1.334 . S
C413 C414 1.287 . S
C414 C413 1.287 . S
C414 C415 1.524 . S
C414 H433 0.913 . S
C415 H391 0.950 . S
C415 C414 1.524 . S
C415 C416 1.415 . S
C416 H392 0.950 . S
C416 C411 1.363 . S
C416 C415 1.415 . S
C417 H393 0.951 . S
C417 C418 1.366 . S
C417 C419 1.388 . S
C418 C417 1.366 . S
C418 C422 1.385 . S
C419 H394 0.951 . S
C419 C417 1.388 . S
C419 C420 1.366 . S
C420 C419 1.366 . S
C420 C421 1.414 . S
C420 C423 1.499 . S
C421 H395 0.950 . S
C421 C420 1.414 . S
C421 C422 1.374 . S
C422 H396 0.950 . S
C422 C418 1.385 . S
C422 C421 1.374 . S
C423 C420 1.499 . S
C423 C424 1.373 . S
C423 C425 1.389 . S
C424 H397 0.950 . S
C424 C410 1.377 1_545 S
C424 C423 1.373 . S
C425 C409 1.377 1_545 S
C425 C423 1.389 . S
C425 C426 1.524 . S
C426 C425 1.524 . S
C426 C427 1.397 . S
C426 C431 1.363 . S
C427 H398 0.950 . S
C427 C426 1.397 . S
C427 C428 1.334 . S
C428 H399 0.950 . S
C428 C427 1.334 . S
C428 C429 1.287 . S
C429 C428 1.287 . S
C429 C430 1.524 . S
C429 H432 0.999 . S
C430 H400 0.950 . S
C430 C429 1.524 . S
C430 C431 1.415 . S
C431 H401 0.950 . S
C431 C426 1.363 . S
C431 C430 1.415 . S
H432 C429 0.999 . S
H433 C414 0.913 . S
H434 C452 0.951 . S
H435 C454 0.951 . S
H436 C456 0.950 . S
H437 C457 0.950 . S
H438 C459 0.950 . S
H439 C462 0.950 . S
H440 C463 0.950 . S
H441 C465 0.950 . S
H442 C466 0.950 . S
H443 C467 0.951 . S
H444 C469 0.951 . S
H445 C471 0.950 . S
H446 C472 0.950 . S
H447 C474 0.950 . S
H448 C477 0.950 . S
H449 C478 0.950 . S
H450 C480 0.950 . S
H451 C481 0.950 . S
C452 H434 0.951 . S
C452 C453 1.366 . S
C452 C454 1.388 . S
C453 C452 1.366 . S
C453 C457 1.385 . S
C454 H435 0.951 . S
C454 C452 1.388 . S
C454 C455 1.366 . S
C455 C454 1.366 . S
C455 C456 1.414 . S
C455 C458 1.499 . S
C456 H436 0.950 . S
C456 C455 1.414 . S
C456 C457 1.374 . S
C457 H437 0.950 . S
C457 C453 1.385 . S
C457 C456 1.374 . S
C458 C455 1.499 . S
C458 C459 1.373 . S
C458 C460 1.389 . S
C459 H438 0.950 . S
C459 C458 1.373 . S
C459 C475 1.377 . S
C460 C458 1.389 . S
C460 C461 1.524 . S
C460 C474 1.377 . S
C461 C460 1.524 . S
C461 C462 1.397 . S
C461 C466 1.363 . S
C462 H439 0.950 . S
C462 C461 1.397 . S
C462 C463 1.334 . S
C463 H440 0.950 . S
C463 C462 1.334 . S
C463 C464 1.287 . S
C464 C463 1.287 . S
C464 C465 1.524 . S
C464 H483 0.913 . S
C465 H441 0.950 . S
C465 C464 1.524 . S
C465 C466 1.415 . S
C466 H442 0.950 . S
C466 C461 1.363 . S
C466 C465 1.415 . S
C467 H443 0.951 . S
C467 C468 1.366 . S
C467 C469 1.388 . S
C468 C467 1.366 . S
C468 C472 1.385 . S
C469 H444 0.951 . S
C469 C467 1.388 . S
C469 C470 1.366 . S
C470 C469 1.366 . S
C470 C471 1.414 . S
C470 C473 1.499 . S
C471 H445 0.950 . S
C471 C470 1.414 . S
C471 C472 1.374 . S
C472 H446 0.950 . S
C472 C468 1.385 . S
C472 C471 1.374 . S
C473 C470 1.499 . S
C473 C474 1.373 . S
C473 C475 1.389 . S
C474 H447 0.950 . S
C474 C460 1.377 . S
C474 C473 1.373 . S
C475 C459 1.377 . S
C475 C473 1.389 . S
C475 C476 1.524 . S
C476 C475 1.524 . S
C476 C477 1.397 . S
C476 C481 1.363 . S
C477 H448 0.950 . S
C477 C476 1.397 . S
C477 C478 1.334 . S
C478 H449 0.950 . S
C478 C477 1.334 . S
C478 C479 1.287 . S
C479 C478 1.287 . S
C479 C480 1.524 . S
C479 H482 0.999 . S
C480 H450 0.950 . S
C480 C479 1.524 . S
C480 C481 1.415 . S
C481 H451 0.950 . S
C481 C476 1.363 . S
C481 C480 1.415 . S
H482 C479 0.999 . S
H483 C464 0.913 . S
H484 C502 0.951 . S
H485 C504 0.951 . S
H486 C506 0.950 . S
H487 C507 0.950 . S
H488 C509 0.950 . S
H489 C512 0.950 . S
H490 C513 0.950 . S
H491 C515 0.950 . S
H492 C516 0.950 1_545 S
H493 C517 0.951 . S
H494 C519 0.951 . S
H495 C521 0.950 . S
H496 C522 0.950 . S
H497 C524 0.950 . S
H498 C527 0.950 . S
H499 C528 0.950 . S
H500 C530 0.950 . S
H501 C531 0.950 1_565 S
C502 H484 0.951 . S
C502 C503 1.366 . S
C502 C504 1.388 . S
C503 C502 1.366 . S
C503 C507 1.385 . S
C504 H485 0.951 . S
C504 C502 1.388 . S
C504 C505 1.366 . S
C505 C504 1.366 . S
C505 C506 1.414 . S
C505 C508 1.499 . S
C506 H486 0.950 . S
C506 C505 1.414 . S
C506 C507 1.374 . S
C507 H487 0.950 . S
C507 C503 1.385 . S
C507 C506 1.374 . S
C508 C505 1.499 . S
C508 C509 1.373 . S
C508 C510 1.389 . S
C509 H488 0.950 . S
C509 C508 1.373 . S
C509 C525 1.377 1_565 S
C510 C508 1.389 . S
C510 C511 1.524 . S
C510 C524 1.377 1_565 S
C511 C510 1.524 . S
C511 C512 1.397 . S
C511 C516 1.363 . S
C512 H489 0.950 . S
C512 C511 1.397 . S
C512 C513 1.334 . S
C513 H490 0.950 . S
C513 C512 1.334 . S
C513 C514 1.287 . S
C514 C513 1.287 . S
C514 C515 1.524 . S
C514 H533 0.913 . S
C515 H491 0.950 . S
C515 C514 1.524 . S
C515 C516 1.415 . S
C516 H492 0.950 1_565 S
C516 C511 1.363 . S
C516 C515 1.415 . S
C517 H493 0.951 . S
C517 C518 1.366 . S
C517 C519 1.388 . S
C518 C517 1.366 . S
C518 C522 1.385 . S
C519 H494 0.951 . S
C519 C517 1.388 . S
C519 C520 1.366 . S
C520 C519 1.366 . S
C520 C521 1.414 . S
C520 C523 1.499 . S
C521 H495 0.950 . S
C521 C520 1.414 . S
C521 C522 1.374 . S
C522 H496 0.950 . S
C522 C518 1.385 . S
C522 C521 1.374 . S
C523 C520 1.499 . S
C523 C524 1.373 . S
C523 C525 1.389 . S
C524 H497 0.950 . S
C524 C510 1.377 1_545 S
C524 C523 1.373 . S
C525 C509 1.377 1_545 S
C525 C523 1.389 . S
C525 C526 1.524 . S
C526 C525 1.524 . S
C526 C527 1.397 . S
C526 C531 1.363 . S
C527 H498 0.950 . S
C527 C526 1.397 . S
C527 C528 1.334 . S
C528 H499 0.950 . S
C528 C527 1.334 . S
C528 C529 1.287 . S
C529 C528 1.287 . S
C529 C530 1.524 . S
C529 H532 0.999 . S
C530 H500 0.950 . S
C530 C529 1.524 . S
C530 C531 1.415 . S
C531 H501 0.950 1_545 S
C531 C526 1.363 . S
C531 C530 1.415 . S
H532 C529 0.999 . S
H533 C514 0.913 . S
H534 C552 0.951 . S
H535 C554 0.951 . S
H536 C556 0.950 . S
H537 C557 0.950 . S
H538 C559 0.950 . S
H539 C562 0.950 . S
H540 C563 0.950 . S
H541 C565 0.950 . S
H542 C566 0.950 . S
H543 C567 0.951 . S
H544 C569 0.951 . S
H545 C571 0.950 . S
H546 C572 0.950 . S
H547 C574 0.950 . S
H548 C577 0.950 . S
H549 C578 0.950 . S
H550 C580 0.950 . S
H551 C581 0.950 . S
C552 H534 0.951 . S
C552 C553 1.366 . S
C552 C554 1.388 . S
C553 C552 1.366 . S
C553 C557 1.385 . S
C554 H535 0.951 . S
C554 C552 1.388 . S
C554 C555 1.366 . S
C555 C554 1.366 . S
C555 C556 1.414 . S
C555 C558 1.499 . S
C556 H536 0.950 . S
C556 C555 1.414 . S
C556 C557 1.374 . S
C557 H537 0.950 . S
C557 C553 1.385 . S
C557 C556 1.374 . S
C558 C555 1.499 . S
C558 C559 1.373 . S
C558 C560 1.389 . S
C559 H538 0.950 . S
C559 C558 1.373 . S
C559 C575 1.377 . S
C560 C558 1.389 . S
C560 C561 1.524 . S
C560 C574 1.377 . S
C561 C560 1.524 . S
C561 C562 1.397 . S
C561 C566 1.363 . S
C562 H539 0.950 . S
C562 C561 1.397 . S
C562 C563 1.334 . S
C563 H540 0.950 . S
C563 C562 1.334 . S
C563 C564 1.287 . S
C564 C563 1.287 . S
C564 C565 1.524 . S
C564 H583 0.913 . S
C565 H541 0.950 . S
C565 C564 1.524 . S
C565 C566 1.415 . S
C566 H542 0.950 . S
C566 C561 1.363 . S
C566 C565 1.415 . S
C567 H543 0.951 . S
C567 C568 1.366 . S
C567 C569 1.388 . S
C568 C567 1.366 . S
C568 C572 1.385 . S
C569 H544 0.951 . S
C569 C567 1.388 . S
C569 C570 1.366 . S
C570 C569 1.366 . S
C570 C571 1.414 . S
C570 C573 1.499 . S
C571 H545 0.950 . S
C571 C570 1.414 . S
C571 C572 1.374 . S
C572 H546 0.950 . S
C572 C568 1.385 . S
C572 C571 1.374 . S
C573 C570 1.499 . S
C573 C574 1.373 . S
C573 C575 1.389 . S
C574 H547 0.950 . S
C574 C560 1.377 . S
C574 C573 1.373 . S
C575 C559 1.377 . S
C575 C573 1.389 . S
C575 C576 1.524 . S
C576 C575 1.524 . S
C576 C577 1.397 . S
C576 C581 1.363 . S
C577 H548 0.950 . S
C577 C576 1.397 . S
C577 C578 1.334 . S
C578 H549 0.950 . S
C578 C577 1.334 . S
C578 C579 1.287 . S
C579 C578 1.287 . S
C579 C580 1.524 . S
C579 H582 0.999 . S
C580 H550 0.950 . S
C580 C579 1.524 . S
C580 C581 1.415 . S
C581 H551 0.950 . S
C581 C576 1.363 . S
C581 C580 1.415 . S
H582 C579 0.999 . S
H583 C564 0.913 . S
H584 C602 0.951 . S
H585 C604 0.951 . S
H586 C606 0.951 . S
H587 C607 0.950 . S
H588 C609 0.950 . S
H589 C612 0.950 . S
H590 C613 0.950 . S
H591 C615 0.950 . S
H592 C616 0.950 . S
H593 C617 0.951 . S
H594 C619 0.951 . S
H595 C621 0.951 . S
H596 C622 0.950 . S
H597 C624 0.950 . S
H598 C627 0.950 . S
H599 C628 0.950 . S
H600 C630 0.950 . S
H601 C631 0.950 . S
C602 H584 0.951 . S
C602 C603 1.366 . S
C602 C604 1.388 . S
C603 C602 1.366 . S
C603 C607 1.385 . S
C604 H585 0.951 . S
C604 C602 1.388 . S
C604 C605 1.366 . S
C605 C604 1.366 . S
C605 C606 1.414 . S
C605 C608 1.499 . S
C606 H586 0.951 . S
C606 C605 1.414 . S
C606 C607 1.374 . S
C607 H587 0.950 . S
C607 C603 1.385 . S
C607 C606 1.374 . S
C608 C605 1.499 . S
C608 C609 1.373 1_554 S
C608 C610 1.389 . S
C609 H588 0.950 . S
C609 C608 1.373 1_556 S
C609 C625 1.377 . S
C610 C608 1.389 . S
C610 C611 1.524 . S
C610 C624 1.377 . S
C611 C610 1.524 . S
C611 C612 1.397 . S
C611 C616 1.363 . S
C612 H589 0.950 . S
C612 C611 1.397 . S
C612 C613 1.334 . S
C613 H590 0.950 . S
C613 C612 1.334 . S
C613 C614 1.287 . S
C614 C613 1.287 . S
C614 C615 1.524 . S
C614 H633 0.913 . S
C615 H591 0.950 . S
C615 C614 1.524 . S
C615 C616 1.415 . S
C616 H592 0.950 . S
C616 C611 1.363 . S
C616 C615 1.415 . S
C617 H593 0.951 . S
C617 C618 1.366 . S
C617 C619 1.388 . S
C618 C617 1.366 . S
C618 C622 1.385 . S
C619 H594 0.951 . S
C619 C617 1.388 . S
C619 C620 1.366 . S
C620 C619 1.366 . S
C620 C621 1.414 . S
C620 C623 1.499 . S
C621 H595 0.951 . S
C621 C620 1.414 . S
C621 C622 1.374 . S
C622 H596 0.950 . S
C622 C618 1.385 . S
C622 C621 1.374 . S
C623 C620 1.499 . S
C623 C624 1.373 1_556 S
C623 C625 1.389 . S
C624 H597 0.950 . S
C624 C610 1.377 . S
C624 C623 1.373 1_554 S
C625 C609 1.377 . S
C625 C623 1.389 . S
C625 C626 1.524 . S
C626 C625 1.524 . S
C626 C627 1.397 . S
C626 C631 1.363 . S
C627 H598 0.950 . S
C627 C626 1.397 . S
C627 C628 1.334 . S
C628 H599 0.950 . S
C628 C627 1.334 . S
C628 C629 1.287 . S
C629 C628 1.287 . S
C629 C630 1.524 . S
C629 H632 0.999 . S
C630 H600 0.950 . S
C630 C629 1.524 . S
C630 C631 1.415 . S
C631 H601 0.950 . S
C631 C626 1.363 . S
C631 C630 1.415 . S
H632 C629 0.999 . S
H633 C614 0.913 . S
H634 C652 0.951 1_556 S
H635 C654 0.951 . S
H636 C656 0.950 . S
H637 C657 0.950 . S
H638 C659 0.950 . S
H639 C662 0.950 . S
H640 C663 0.950 . S
H641 C665 0.950 . S
H642 C666 0.950 . S
H643 C667 0.951 1_554 S
H644 C669 0.951 . S
H645 C671 0.950 . S
H646 C672 0.950 . S
H647 C674 0.950 . S
H648 C677 0.950 . S
H649 C678 0.950 . S
H650 C680 0.950 . S
H651 C681 0.950 . S
C652 H634 0.951 1_554 S
C652 C653 1.366 . S
C652 C654 1.388 1_554 S
C653 C652 1.366 . S
C653 C657 1.385 . S
C654 H635 0.951 . S
C654 C652 1.388 1_556 S
C654 C655 1.366 1_556 S
C655 C654 1.366 1_554 S
C655 C656 1.414 . S
C655 C658 1.499 . S
C656 H636 0.950 . S
C656 C655 1.414 . S
C656 C657 1.374 . S
C657 H637 0.950 . S
C657 C653 1.385 . S
C657 C656 1.374 . S
C658 C655 1.499 . S
C658 C659 1.373 . S
C658 C660 1.389 . S
C659 H638 0.950 . S
C659 C658 1.373 . S
C659 C675 1.377 1_564 S
C660 C658 1.389 . S
C660 C661 1.524 . S
C660 C674 1.377 1_564 S
C661 C660 1.524 . S
C661 C662 1.397 . S
C661 C666 1.363 1_554 S
C662 H639 0.950 . S
C662 C661 1.397 . S
C662 C663 1.334 . S
C663 H640 0.950 . S
C663 C662 1.334 . S
C663 C664 1.287 . S
C664 C663 1.287 . S
C664 C665 1.524 1_554 S
C664 H683 0.913 . S
C665 H641 0.950 . S
C665 C664 1.524 1_556 S
C665 C666 1.415 . S
C666 H642 0.950 . S
C666 C661 1.363 1_556 S
C666 C665 1.415 . S
C667 H643 0.951 1_556 S
C667 C668 1.366 . S
C667 C669 1.388 1_556 S
C668 C667 1.366 . S
C668 C672 1.385 . S
C669 H644 0.951 . S
C669 C667 1.388 1_554 S
C669 C670 1.366 1_554 S
C670 C669 1.366 1_556 S
C670 C671 1.414 . S
C670 C673 1.499 . S
C671 H645 0.950 . S
C671 C670 1.414 . S
C671 C672 1.374 . S
C672 H646 0.950 . S
C672 C668 1.385 . S
C672 C671 1.374 . S
C673 C670 1.499 . S
C673 C674 1.373 . S
C673 C675 1.389 . S
C674 H647 0.950 . S
C674 C660 1.377 1_546 S
C674 C673 1.373 . S
C675 C659 1.377 1_546 S
C675 C673 1.389 . S
C675 C676 1.524 . S
C676 C675 1.524 . S
C676 C677 1.397 . S
C676 C681 1.363 1_556 S
C677 H648 0.950 . S
C677 C676 1.397 . S
C677 C678 1.334 . S
C678 H649 0.950 . S
C678 C677 1.334 . S
C678 C679 1.287 . S
C679 C678 1.287 . S
C679 C680 1.524 1_556 S
C679 H682 0.999 . S
C680 H650 0.950 . S
C680 C679 1.524 1_554 S
C680 C681 1.415 . S
C681 H651 0.950 . S
C681 C676 1.363 1_554 S
C681 C680 1.415 . S
H682 C679 0.999 . S
H683 C664 0.913 . S
H684 C702 0.951 1_554 S
H685 C704 0.951 . S
H686 C706 0.950 . S
H687 C707 0.950 . S
H688 C709 0.950 . S
H689 C712 0.950 1_556 S
H690 C713 0.950 1_556 S
H691 C715 0.950 . S
H692 C716 0.950 . S
H693 C717 0.951 1_556 S
H694 C719 0.951 . S
H695 C721 0.950 . S
H696 C722 0.950 . S
H697 C724 0.950 . S
H698 C727 0.950 1_554 S
H699 C728 0.950 1_554 S
H700 C730 0.950 . S
H701 C731 0.950 . S
C702 H684 0.951 1_556 S
C702 C703 1.366 . S
C702 C704 1.388 1_556 S
C703 C702 1.366 . S
C703 C707 1.385 . S
C704 H685 0.951 . S
C704 C702 1.388 1_554 S
C704 C705 1.366 1_554 S
C705 C704 1.366 1_556 S
C705 C706 1.414 . S
C705 C708 1.499 . S
C706 H686 0.950 . S
C706 C705 1.414 . S
C706 C707 1.374 . S
C707 H687 0.950 . S
C707 C703 1.385 . S
C707 C706 1.374 . S
C708 C705 1.499 . S
C708 C709 1.373 . S
C708 C710 1.389 1_556 S
C709 H688 0.950 . S
C709 C708 1.373 . S
C709 C725 1.377 . S
C710 C708 1.389 1_554 S
C710 C711 1.524 . S
C710 C724 1.377 . S
C711 C710 1.524 . S
C711 C712 1.397 . S
C711 C716 1.363 . S
C712 H689 0.950 1_554 S
C712 C711 1.397 . S
C712 C713 1.334 . S
C713 H690 0.950 1_554 S
C713 C712 1.334 . S
C713 C714 1.287 . S
C714 C713 1.287 . S
C714 C715 1.524 . S
C714 H733 0.913 . S
C715 H691 0.950 . S
C715 C714 1.524 . S
C715 C716 1.415 . S
C716 H692 0.950 . S
C716 C711 1.363 . S
C716 C715 1.415 . S
C717 H693 0.951 1_554 S
C717 C718 1.366 . S
C717 C719 1.388 1_554 S
C718 C717 1.366 . S
C718 C722 1.385 . S
C719 H694 0.951 . S
C719 C717 1.388 1_556 S
C719 C720 1.366 1_556 S
C720 C719 1.366 1_554 S
C720 C721 1.414 . S
C720 C723 1.499 . S
C721 H695 0.950 . S
C721 C720 1.414 . S
C721 C722 1.374 . S
C722 H696 0.950 . S
C722 C718 1.385 . S
C722 C721 1.374 . S
C723 C720 1.499 . S
C723 C724 1.373 . S
C723 C725 1.389 1_554 S
C724 H697 0.950 . S
C724 C710 1.377 . S
C724 C723 1.373 . S
C725 C709 1.377 . S
C725 C723 1.389 1_556 S
C725 C726 1.524 . S
C726 C725 1.524 . S
C726 C727 1.397 . S
C726 C731 1.363 . S
C727 H698 0.950 1_556 S
C727 C726 1.397 . S
C727 C728 1.334 . S
C728 H699 0.950 1_556 S
C728 C727 1.334 . S
C728 C729 1.287 . S
C729 C728 1.287 . S
C729 C730 1.524 . S
C729 H732 0.999 . S
C730 H700 0.950 . S
C730 C729 1.524 . S
C730 C731 1.415 . S
C731 H701 0.950 . S
C731 C726 1.363 . S
C731 C730 1.415 . S
H732 C729 0.999 . S
H733 C714 0.913 . S
H734 C752 0.951 . S
H735 C754 0.951 . S
H736 C756 0.950 . S
H737 C757 0.950 . S
H738 C759 0.950 . S
H739 C762 0.950 . S
H740 C763 0.950 . S
H741 C765 0.950 . S
H742 C766 0.950 1_565 S
H743 C767 0.951 . S
H744 C769 0.951 . S
H745 C771 0.950 . S
H746 C772 0.950 . S
H747 C774 0.950 . S
H748 C777 0.950 . S
H749 C778 0.950 . S
H750 C780 0.950 . S
H751 C781 0.950 1_545 S
C752 H734 0.951 . S
C752 C753 1.366 . S
C752 C754 1.388 . S
C753 C752 1.366 . S
C753 C757 1.385 . S
C754 H735 0.951 . S
C754 C752 1.388 . S
C754 C755 1.366 . S
C755 C754 1.366 . S
C755 C756 1.414 . S
C755 C758 1.499 . S
C756 H736 0.950 . S
C756 C755 1.414 . S
C756 C757 1.374 . S
C757 H737 0.950 . S
C757 C753 1.385 . S
C757 C756 1.374 . S
C758 C755 1.499 . S
C758 C759 1.373 1_556 S
C758 C760 1.389 . S
C759 H738 0.950 . S
C759 C758 1.373 1_554 S
C759 C775 1.377 1_545 S
C760 C758 1.389 . S
C760 C761 1.524 . S
C760 C774 1.377 1_545 S
C761 C760 1.524 . S
C761 C762 1.397 . S
C761 C766 1.363 . S
C762 H739 0.950 . S
C762 C761 1.397 . S
C762 C763 1.334 . S
C763 H740 0.950 . S
C763 C762 1.334 . S
C763 C764 1.287 . S
C764 C763 1.287 . S
C764 C765 1.524 . S
C764 H783 0.913 . S
C765 H741 0.950 . S
C765 C764 1.524 . S
C765 C766 1.415 . S
C766 H742 0.950 1_545 S
C766 C761 1.363 . S
C766 C765 1.415 . S
C767 H743 0.951 . S
C767 C768 1.366 . S
C767 C769 1.388 . S
C768 C767 1.366 . S
C768 C772 1.385 . S
C769 H744 0.951 . S
C769 C767 1.388 . S
C769 C770 1.366 . S
C770 C769 1.366 . S
C770 C771 1.414 . S
C770 C773 1.499 . S
C771 H745 0.950 . S
C771 C770 1.414 . S
C771 C772 1.374 . S
C772 H746 0.950 . S
C772 C768 1.385 . S
C772 C771 1.374 . S
C773 C770 1.499 . S
C773 C774 1.373 1_554 S
C773 C775 1.389 . S
C774 H747 0.950 . S
C774 C760 1.377 1_565 S
C774 C773 1.373 1_556 S
C775 C759 1.377 1_565 S
C775 C773 1.389 . S
C775 C776 1.524 . S
C776 C775 1.524 . S
C776 C777 1.397 . S
C776 C781 1.363 . S
C777 H748 0.950 . S
C777 C776 1.397 . S
C777 C778 1.334 . S
C778 H749 0.950 . S
C778 C777 1.334 . S
C778 C779 1.287 . S
C779 C778 1.287 . S
C779 C780 1.524 . S
C779 H782 0.999 . S
C780 H750 0.950 . S
C780 C779 1.524 . S
C780 C781 1.415 . S
C781 H751 0.950 1_565 S
C781 C776 1.363 . S
C781 C780 1.415 . S
H782 C779 0.999 . S
H783 C764 0.913 . S
H784 C802 0.951 . S
H785 C804 0.951 . S
H786 C806 0.950 . S
H787 C807 0.950 . S
H788 C809 0.950 . S
H789 C812 0.950 . S
H790 C813 0.950 . S
H791 C815 0.950 . S
H792 C816 0.950 . S
H793 C817 0.951 . S
H794 C819 0.951 . S
H795 C821 0.950 . S
H796 C822 0.950 . S
H797 C824 0.950 . S
H798 C827 0.948 1_556 S
H799 C828 0.950 . S
H800 C830 0.950 . S
H801 C831 0.950 . S
C802 H784 0.951 . S
C802 C803 1.366 . S
C802 C804 1.388 . S
C803 C802 1.366 . S
C803 C807 1.385 . S
C804 H785 0.951 . S
C804 C802 1.388 . S
C804 C805 1.366 . S
C805 C804 1.366 . S
C805 C806 1.414 . S
C805 C808 1.499 . S
C806 H786 0.950 . S
C806 C805 1.414 . S
C806 C807 1.374 . S
C807 H787 0.950 . S
C807 C803 1.385 . S
C807 C806 1.374 . S
C808 C805 1.499 . S
C808 C809 1.373 . S
C808 C810 1.389 . S
C809 H788 0.950 . S
C809 C808 1.373 . S
C809 C825 1.377 . S
C810 C808 1.389 . S
C810 C811 1.524 . S
C810 C824 1.377 . S
C811 C810 1.524 . S
C811 C812 1.397 . S
C811 C816 1.363 . S
C812 H789 0.950 . S
C812 C811 1.397 . S
C812 C813 1.334 . S
C813 H790 0.950 . S
C813 C812 1.334 . S
C813 C814 1.287 . S
C814 C813 1.287 . S
C814 C815 1.524 . S
C814 H833 0.913 . S
C815 H791 0.950 . S
C815 C814 1.524 . S
C815 C816 1.415 . S
C816 H792 0.950 . S
C816 C811 1.363 . S
C816 C815 1.415 . S
C817 H793 0.951 . S
C817 C818 1.366 . S
C817 C819 1.388 . S
C818 C817 1.366 . S
C818 C822 1.385 . S
C819 H794 0.951 . S
C819 C817 1.388 . S
C819 C820 1.366 . S
C820 C819 1.366 . S
C820 C821 1.414 . S
C820 C823 1.499 1_556 S
C821 H795 0.950 . S
C821 C820 1.414 . S
C821 C822 1.374 . S
C822 H796 0.950 . S
C822 C818 1.385 . S
C822 C821 1.374 . S
C823 C820 1.499 1_554 S
C823 C824 1.373 . S
C823 C825 1.389 . S
C824 H797 0.950 . S
C824 C810 1.377 . S
C824 C823 1.373 . S
C825 C809 1.377 . S
C825 C823 1.389 . S
C825 C826 1.524 . S
C826 C825 1.524 . S
C826 C827 1.397 . S
C826 C831 1.363 . S
C827 H798 0.948 1_554 S
C827 C826 1.397 . S
C827 C828 1.334 1_554 S
C828 H799 0.950 . S
C828 C827 1.334 1_556 S
C828 C829 1.283 1_556 S
C829 C828 1.283 1_554 S
C829 C830 1.532 . S
C829 H832 0.994 1_554 S
C830 H800 0.950 . S
C830 C829 1.532 . S
C830 C831 1.415 . S
C831 H801 0.950 . S
C831 C826 1.363 . S
C831 C830 1.415 . S
H832 C829 0.994 1_556 S
H833 C814 0.913 . S
H834 C852 0.951 . S
H835 C854 0.951 . S
H836 C856 0.950 . S
H837 C857 0.950 . S
H838 C859 0.950 . S
H839 C862 0.950 . S
H840 C863 0.950 . S
H841 C865 0.950 . S
H842 C866 0.950 . S
H843 C867 0.951 . S
H844 C869 0.951 . S
H845 C871 0.950 . S
H846 C872 0.950 . S
H847 C874 0.950 . S
H848 C877 0.947 1_556 S
H849 C878 0.950 . S
H850 C880 0.950 . S
H851 C881 0.950 . S
C852 H834 0.951 . S
C852 C853 1.366 . S
C852 C854 1.388 . S
C853 C852 1.366 . S
C853 C857 1.385 . S
C854 H835 0.951 . S
C854 C852 1.388 . S
C854 C855 1.366 . S
C855 C854 1.366 . S
C855 C856 1.414 . S
C855 C858 1.499 . S
C856 H836 0.950 . S
C856 C855 1.414 . S
C856 C857 1.374 . S
C857 H837 0.950 . S
C857 C853 1.385 . S
C857 C856 1.374 . S
C858 C855 1.499 . S
C858 C859 1.373 . S
C858 C860 1.389 . S
C859 H838 0.950 . S
C859 C858 1.373 . S
C859 C875 1.377 . S
C860 C858 1.389 . S
C860 C861 1.524 . S
C860 C874 1.377 . S
C861 C860 1.524 . S
C861 C862 1.397 . S
C861 C866 1.363 . S
C862 H839 0.950 . S
C862 C861 1.397 . S
C862 C863 1.334 . S
C863 H840 0.950 . S
C863 C862 1.334 . S
C863 C864 1.287 . S
C864 C863 1.287 . S
C864 C865 1.524 . S
C864 H883 0.913 . S
C865 H841 0.950 . S
C865 C864 1.524 . S
C865 C866 1.415 . S
C866 H842 0.950 . S
C866 C861 1.363 . S
C866 C865 1.415 . S
C867 H843 0.951 . S
C867 C868 1.366 . S
C867 C869 1.388 . S
C868 C867 1.366 . S
C868 C872 1.385 . S
C869 H844 0.951 . S
C869 C867 1.388 . S
C869 C870 1.366 . S
C870 C869 1.366 . S
C870 C871 1.414 . S
C870 C873 1.499 1_556 S
C871 H845 0.950 . S
C871 C870 1.414 . S
C871 C872 1.374 . S
C872 H846 0.950 . S
C872 C868 1.385 . S
C872 C871 1.374 . S
C873 C870 1.499 1_554 S
C873 C874 1.373 . S
C873 C875 1.389 . S
C874 H847 0.950 . S
C874 C860 1.377 . S
C874 C873 1.373 . S
C875 C859 1.377 . S
C875 C873 1.389 . S
C875 C876 1.524 . S
C876 C875 1.524 . S
C876 C877 1.408 . S
C876 C881 1.363 . S
C877 H848 0.947 1_554 S
C877 C876 1.408 . S
C877 C878 1.325 1_554 S
C878 H849 0.950 . S
C878 C877 1.325 1_556 S
C878 C879 1.287 . S
C879 C878 1.287 . S
C879 C880 1.524 1_556 S
C879 H882 0.999 . S
C880 H850 0.950 . S
C880 C879 1.524 1_554 S
C880 C881 1.415 . S
C881 H851 0.950 . S
C881 C876 1.363 . S
C881 C880 1.415 . S
H882 C879 0.999 . S
H883 C864 0.913 . S
H884 C902 0.951 . S
H885 C904 0.951 . S
H886 C906 0.950 . S
H887 C907 0.950 . S
H888 C909 0.950 . S
H889 C912 0.950 . S
H890 C913 0.950 . S
H891 C915 0.950 . S
H892 C916 0.950 . S
H893 C917 0.951 . S
H894 C919 0.951 . S
H895 C921 0.950 . S
H896 C922 0.950 . S
H897 C924 0.950 . S
H898 C927 0.950 . S
H899 C928 0.950 . S
H900 C930 0.950 . S
H901 C931 0.950 . S
C902 H884 0.951 . S
C902 C903 1.366 . S
C902 C904 1.388 . S
C903 C902 1.366 . S
C903 C907 1.385 . S
C904 H885 0.951 . S
C904 C902 1.388 . S
C904 C905 1.366 . S
C905 C904 1.366 . S
C905 C906 1.414 . S
C905 C908 1.499 1_554 S
C906 H886 0.950 . S
C906 C905 1.414 . S
C906 C907 1.374 . S
C907 H887 0.950 . S
C907 C903 1.385 . S
C907 C906 1.374 . S
C908 C905 1.499 1_556 S
C908 C909 1.373 . S
C908 C910 1.389 . S
C909 H888 0.950 . S
C909 C908 1.373 . S
C909 C925 1.377 . S
C910 C908 1.389 . S
C910 C911 1.524 . S
C910 C924 1.377 . S
C911 C910 1.524 . S
C911 C912 1.397 . S
C911 C916 1.363 . S
C912 H889 0.950 . S
C912 C911 1.397 . S
C912 C913 1.334 1_556 S
C913 H890 0.950 . S
C913 C912 1.334 1_554 S
C913 C914 1.287 1_554 S
C914 C913 1.287 1_556 S
C914 C915 1.524 . S
C914 H933 0.913 1_556 S
C915 H891 0.950 . S
C915 C914 1.524 . S
C915 C916 1.415 . S
C916 H892 0.950 . S
C916 C911 1.363 . S
C916 C915 1.415 . S
C917 H893 0.951 . S
C917 C918 1.366 . S
C917 C919 1.388 . S
C918 C917 1.366 . S
C918 C922 1.385 . S
C919 H894 0.951 . S
C919 C917 1.388 . S
C919 C920 1.366 . S
C920 C919 1.366 . S
C920 C921 1.414 . S
C920 C923 1.499 . S
C921 H895 0.950 . S
C921 C920 1.414 . S
C921 C922 1.374 . S
C922 H896 0.950 . S
C922 C918 1.385 . S
C922 C921 1.374 . S
C923 C920 1.499 . S
C923 C924 1.373 . S
C923 C925 1.389 . S
C924 H897 0.950 . S
C924 C910 1.377 . S
C924 C923 1.373 . S
C925 C909 1.377 . S
C925 C923 1.389 . S
C925 C926 1.524 . S
C926 C925 1.524 . S
C926 C927 1.397 . S
C926 C931 1.363 . S
C927 H898 0.950 . S
C927 C926 1.397 . S
C927 C928 1.334 . S
C928 H899 0.950 . S
C928 C927 1.334 . S
C928 C929 1.287 . S
C929 C928 1.287 . S
C929 C930 1.524 . S
C929 H932 0.999 . S
C930 H900 0.950 . S
C930 C929 1.524 . S
C930 C931 1.415 . S
C931 H901 0.950 . S
C931 C926 1.363 . S
C931 C930 1.415 . S
H932 C929 0.999 . S
H933 C914 0.913 1_554 S
H934 C952 0.951 . S
H935 C954 0.951 . S
H936 C956 0.950 . S
H937 C957 0.950 . S
H938 C959 0.950 . S
H939 C962 0.950 . S
H940 C963 0.950 . S
H941 C965 0.950 . S
H942 C966 0.950 . S
H943 C967 0.951 . S
H944 C969 0.951 . S
H945 C971 0.950 . S
H946 C972 0.950 . S
H947 C974 0.950 . S
H948 C977 0.950 . S
H949 C978 0.950 . S
H950 C980 0.950 . S
H951 C981 0.950 . S
C952 H934 0.951 . S
C952 C953 1.366 . S
C952 C954 1.388 . S
C953 C952 1.366 . S
C953 C957 1.385 . S
C954 H935 0.951 . S
C954 C952 1.388 . S
C954 C955 1.366 . S
C955 C954 1.366 . S
C955 C956 1.414 . S
C955 C958 1.499 . S
C956 H936 0.950 . S
C956 C955 1.414 . S
C956 C957 1.374 . S
C957 H937 0.950 . S
C957 C953 1.385 . S
C957 C956 1.374 . S
C958 C955 1.499 . S
C958 C959 1.373 . S
C958 C960 1.389 . S
C959 H938 0.950 . S
C959 C958 1.373 . S
C959 C975 1.377 . S
C960 C958 1.389 . S
C960 C961 1.524 . S
C960 C974 1.377 . S
C961 C960 1.524 . S
C961 C962 1.397 . S
C961 C966 1.363 . S
C962 H939 0.950 . S
C962 C961 1.397 . S
C962 C963 1.334 . S
C963 H940 0.950 . S
C963 C962 1.334 . S
C963 C964 1.287 . S
C964 C963 1.287 . S
C964 C965 1.524 . S
C964 H983 0.913 . S
C965 H941 0.950 . S
C965 C964 1.524 . S
C965 C966 1.415 . S
C966 H942 0.950 . S
C966 C961 1.363 . S
C966 C965 1.415 . S
C967 H943 0.951 . S
C967 C968 1.366 . S
C967 C969 1.388 . S
C968 C967 1.366 . S
C968 C972 1.385 . S
C969 H944 0.951 . S
C969 C967 1.388 . S
C969 C970 1.366 . S
C970 C969 1.366 . S
C970 C971 1.414 . S
C970 C973 1.499 1_554 S
C971 H945 0.950 . S
C971 C970 1.414 . S
C971 C972 1.374 . S
C972 H946 0.950 . S
C972 C968 1.385 . S
C972 C971 1.374 . S
C973 C970 1.499 1_556 S
C973 C974 1.373 . S
C973 C975 1.389 . S
C974 H947 0.950 . S
C974 C960 1.377 . S
C974 C973 1.373 . S
C975 C959 1.377 . S
C975 C973 1.389 . S
C975 C976 1.524 . S
C976 C975 1.524 . S
C976 C977 1.397 . S
C976 C981 1.363 . S
C977 H948 0.950 . S
C977 C976 1.397 . S
C977 C978 1.334 1_556 S
C978 H949 0.950 . S
C978 C977 1.334 1_554 S
C978 C979 1.287 . S
C979 C978 1.287 . S
C979 C980 1.524 1_554 S
C979 H982 0.999 . S
C980 H950 0.950 . S
C980 C979 1.524 1_556 S
C980 C981 1.415 . S
C981 H951 0.950 . S
C981 C976 1.363 . S
C981 C980 1.415 . S
H982 C979 0.999 . S
H983 C964 0.913 . S
H984 C1002 0.951 . S
H985 C1004 0.951 . S
H986 C1006 0.950 . S
H987 C1007 0.950 . S
H988 C1009 0.950 . S
H989 C1012 0.950 . S
H990 C1013 0.950 . S
H991 C1015 0.950 . S
H992 C1016 0.950 . S
H993 C1017 0.951 . S
H994 C1019 0.951 . S
H995 C1021 0.950 . S
H996 C1022 0.950 . S
H997 C1024 0.950 . S
H998 C1027 0.950 . S
H999 C1028 0.950 . S
H1000 C1030 0.950 . S
H1001 C1031 0.950 . S
C1002 H984 0.951 . S
C1002 C1003 1.366 . S
C1002 C1004 1.388 . S
C1003 C1002 1.366 . S
C1003 C1007 1.385 . S
C1004 H985 0.951 . S
C1004 C1002 1.388 . S
C1004 C1005 1.366 . S
C1005 C1004 1.366 . S
C1005 C1006 1.414 . S
C1005 C1008 1.499 . S
C1006 H986 0.950 . S
C1006 C1005 1.414 . S
C1006 C1007 1.374 . S
C1007 H987 0.950 . S
C1007 C1003 1.385 . S
C1007 C1006 1.374 . S
C1008 C1005 1.499 . S
C1008 C1009 1.373 . S
C1008 C1010 1.389 . S
C1009 H988 0.950 . S
C1009 C1008 1.373 . S
C1009 C1025 1.377 . S
C1010 C1008 1.389 . S
C1010 C1011 1.524 . S
C1010 C1024 1.377 . S
C1011 C1010 1.524 . S
C1011 C1012 1.397 . S
C1011 C1016 1.363 . S
C1012 H989 0.950 . S
C1012 C1011 1.397 . S
C1012 C1013 1.334 . S
C1013 H990 0.950 . S
C1013 C1012 1.334 . S
C1013 C1014 1.287 . S
C1014 C1013 1.287 . S
C1014 C1015 1.524 . S
C1014 H1033 0.913 . S
C1015 H991 0.950 . S
C1015 C1014 1.524 . S
C1015 C1016 1.415 . S
C1016 H992 0.950 . S
C1016 C1011 1.363 . S
C1016 C1015 1.415 . S
C1017 H993 0.951 . S
C1017 C1018 1.366 . S
C1017 C1019 1.388 . S
C1018 C1017 1.366 . S
C1018 C1022 1.385 . S
C1019 H994 0.951 . S
C1019 C1017 1.388 . S
C1019 C1020 1.366 . S
C1020 C1019 1.366 . S
C1020 C1021 1.414 . S
C1020 C1023 1.499 . S
C1021 H995 0.950 . S
C1021 C1020 1.414 . S
C1021 C1022 1.374 . S
C1022 H996 0.950 . S
C1022 C1018 1.385 . S
C1022 C1021 1.374 . S
C1023 C1020 1.499 . S
C1023 C1024 1.373 . S
C1023 C1025 1.389 . S
C1024 H997 0.950 . S
C1024 C1010 1.377 . S
C1024 C1023 1.373 . S
C1025 C1009 1.377 . S
C1025 C1023 1.389 . S
C1025 C1026 1.524 . S
C1026 C1025 1.524 . S
C1026 C1027 1.397 . S
C1026 C1031 1.363 . S
C1027 H998 0.950 . S
C1027 C1026 1.397 . S
C1027 C1028 1.334 . S
C1028 H999 0.950 . S
C1028 C1027 1.334 . S
C1028 C1029 1.287 . S
C1029 C1028 1.287 . S
C1029 C1030 1.524 . S
C1029 H1032 0.999 . S
C1030 H1000 0.950 . S
C1030 C1029 1.524 . S
C1030 C1031 1.415 . S
C1031 H1001 0.950 . S
C1031 C1026 1.363 . S
C1031 C1030 1.415 . S
H1032 C1029 0.999 . S
H1033 C1014 0.913 . S
H1034 C1052 0.951 . S
H1035 C1054 0.951 . S
H1036 C1056 0.950 . S
H1037 C1057 0.950 . S
H1038 C1059 0.950 . S
H1039 C1062 0.950 . S
H1040 C1063 0.950 . S
H1041 C1065 0.950 . S
H1042 C1066 0.950 . S
H1043 C1067 0.951 . S
H1044 C1069 0.951 . S
H1045 C1071 0.950 . S
H1046 C1072 0.950 . S
H1047 C1074 0.950 . S
H1048 C1077 0.950 . S
H1049 C1078 0.950 . S
H1050 C1080 0.950 . S
H1051 C1081 0.950 . S
C1052 H1034 0.951 . S
C1052 C1053 1.366 . S
C1052 C1054 1.388 . S
C1053 C1052 1.366 . S
C1053 C1057 1.385 . S
C1054 H1035 0.951 . S
C1054 C1052 1.388 . S
C1054 C1055 1.366 . S
C1055 C1054 1.366 . S
C1055 C1056 1.414 . S
C1055 C1058 1.499 . S
C1056 H1036 0.950 . S
C1056 C1055 1.414 . S
C1056 C1057 1.374 . S
C1057 H1037 0.950 . S
C1057 C1053 1.385 . S
C1057 C1056 1.374 . S
C1058 C1055 1.499 . S
C1058 C1059 1.373 . S
C1058 C1060 1.389 . S
C1059 H1038 0.950 . S
C1059 C1058 1.373 . S
C1059 C1075 1.377 . S
C1060 C1058 1.389 . S
C1060 C1061 1.524 . S
C1060 C1074 1.377 . S
C1061 C1060 1.524 . S
C1061 C1062 1.397 . S
C1061 C1066 1.363 . S
C1062 H1039 0.950 . S
C1062 C1061 1.397 . S
C1062 C1063 1.334 . S
C1063 H1040 0.950 . S
C1063 C1062 1.334 . S
C1063 C1064 1.287 . S
C1064 C1063 1.287 . S
C1064 C1065 1.524 . S
C1064 H1083 0.913 . S
C1065 H1041 0.950 . S
C1065 C1064 1.524 . S
C1065 C1066 1.415 . S
C1066 H1042 0.950 . S
C1066 C1061 1.363 . S
C1066 C1065 1.415 . S
C1067 H1043 0.951 . S
C1067 C1068 1.366 . S
C1067 C1069 1.388 . S
C1068 C1067 1.366 . S
C1068 C1072 1.385 . S
C1069 H1044 0.951 . S
C1069 C1067 1.388 . S
C1069 C1070 1.366 . S
C1070 C1069 1.366 . S
C1070 C1071 1.414 . S
C1070 C1073 1.499 . S
C1071 H1045 0.950 . S
C1071 C1070 1.414 . S
C1071 C1072 1.374 . S
C1072 H1046 0.950 . S
C1072 C1068 1.385 . S
C1072 C1071 1.374 . S
C1073 C1070 1.499 . S
C1073 C1074 1.373 . S
C1073 C1075 1.389 . S
C1074 H1047 0.950 . S
C1074 C1060 1.377 . S
C1074 C1073 1.373 . S
C1075 C1059 1.377 . S
C1075 C1073 1.389 . S
C1075 C1076 1.524 . S
C1076 C1075 1.524 . S
C1076 C1077 1.397 . S
C1076 C1081 1.363 . S
C1077 H1048 0.950 . S
C1077 C1076 1.397 . S
C1077 C1078 1.334 . S
C1078 H1049 0.950 . S
C1078 C1077 1.334 . S
C1078 C1079 1.287 . S
C1079 C1078 1.287 . S
C1079 C1080 1.524 . S
C1079 H1082 0.999 . S
C1080 H1050 0.950 . S
C1080 C1079 1.524 . S
C1080 C1081 1.415 . S
C1081 H1051 0.950 . S
C1081 C1076 1.363 . S
C1081 C1080 1.415 . S
H1082 C1079 0.999 . S
H1083 C1064 0.913 . S
H1084 C1102 0.951 . S
H1085 C1104 0.951 . S
H1086 C1106 0.950 . S
H1087 C1107 0.950 . S
H1088 C1109 0.950 . S
H1089 C1112 0.950 . S
H1090 C1113 0.950 . S
H1091 C1115 0.950 . S
H1092 C1116 0.950 . S
H1093 C1117 0.951 . S
H1094 C1119 0.951 . S
H1095 C1121 0.950 . S
H1096 C1122 0.950 . S
H1097 C1124 0.950 . S
H1098 C1127 0.950 . S
H1099 C1128 0.950 . S
H1100 C1130 0.950 . S
H1101 C1131 0.950 . S
C1102 H1084 0.951 . S
C1102 C1103 1.366 . S
C1102 C1104 1.388 . S
C1103 C1102 1.366 . S
C1103 C1107 1.385 . S
C1104 H1085 0.951 . S
C1104 C1102 1.388 . S
C1104 C1105 1.366 . S
C1105 C1104 1.366 . S
C1105 C1106 1.414 . S
C1105 C1108 1.499 . S
C1106 H1086 0.950 . S
C1106 C1105 1.414 . S
C1106 C1107 1.374 . S
C1107 H1087 0.950 . S
C1107 C1103 1.385 . S
C1107 C1106 1.374 . S
C1108 C1105 1.499 . S
C1108 C1109 1.373 . S
C1108 C1110 1.389 . S
C1109 H1088 0.950 . S
C1109 C1108 1.373 . S
C1109 C1125 1.377 . S
C1110 C1108 1.389 . S
C1110 C1111 1.524 . S
C1110 C1124 1.377 . S
C1111 C1110 1.524 . S
C1111 C1112 1.397 . S
C1111 C1116 1.363 . S
C1112 H1089 0.950 . S
C1112 C1111 1.397 . S
C1112 C1113 1.334 . S
C1113 H1090 0.950 . S
C1113 C1112 1.334 . S
C1113 C1114 1.287 . S
C1114 C1113 1.287 . S
C1114 C1115 1.524 . S
C1114 H1133 0.913 . S
C1115 H1091 0.950 . S
C1115 C1114 1.524 . S
C1115 C1116 1.415 . S
C1116 H1092 0.950 . S
C1116 C1111 1.363 . S
C1116 C1115 1.415 . S
C1117 H1093 0.951 . S
C1117 C1118 1.366 . S
C1117 C1119 1.388 . S
C1118 C1117 1.366 . S
C1118 C1122 1.385 . S
C1119 H1094 0.951 . S
C1119 C1117 1.388 . S
C1119 C1120 1.366 . S
C1120 C1119 1.366 . S
C1120 C1121 1.414 . S
C1120 C1123 1.499 . S
C1121 H1095 0.950 . S
C1121 C1120 1.414 . S
C1121 C1122 1.374 . S
C1122 H1096 0.950 . S
C1122 C1118 1.385 . S
C1122 C1121 1.374 . S
C1123 C1120 1.499 . S
C1123 C1124 1.373 . S
C1123 C1125 1.389 . S
C1124 H1097 0.950 . S
C1124 C1110 1.377 . S
C1124 C1123 1.373 . S
C1125 C1109 1.377 . S
C1125 C1123 1.389 . S
C1125 C1126 1.524 . S
C1126 C1125 1.524 . S
C1126 C1127 1.397 . S
C1126 C1131 1.363 . S
C1127 H1098 0.950 . S
C1127 C1126 1.397 . S
C1127 C1128 1.334 . S
C1128 H1099 0.950 . S
C1128 C1127 1.334 . S
C1128 C1129 1.287 . S
C1129 C1128 1.287 . S
C1129 C1130 1.524 . S
C1129 H1132 0.999 . S
C1130 H1100 0.950 . S
C1130 C1129 1.524 . S
C1130 C1131 1.415 . S
C1131 H1101 0.950 . S
C1131 C1126 1.363 . S
C1131 C1130 1.415 . S
H1132 C1129 0.999 . S
H1133 C1114 0.913 . S
H1134 C1152 0.951 . S
H1135 C1154 0.951 . S
H1136 C1156 0.950 . S
H1137 C1157 0.950 . S
H1138 C1159 0.950 . S
H1139 C1162 0.950 . S
H1140 C1163 0.950 . S
H1141 C1165 0.950 . S
H1142 C1166 0.950 . S
H1143 C1167 0.951 . S
H1144 C1169 0.951 . S
H1145 C1171 0.950 . S
H1146 C1172 0.950 . S
H1147 C1174 0.950 . S
H1148 C1177 0.950 . S
H1149 C1178 0.950 . S
H1150 C1180 0.950 . S
H1151 C1181 0.950 . S
C1152 H1134 0.951 . S
C1152 C1153 1.366 . S
C1152 C1154 1.388 . S
C1153 C1152 1.366 . S
C1153 C1157 1.385 . S
C1154 H1135 0.951 . S
C1154 C1152 1.388 . S
C1154 C1155 1.366 . S
C1155 C1154 1.366 . S
C1155 C1156 1.414 . S
C1155 C1158 1.499 . S
C1156 H1136 0.950 . S
C1156 C1155 1.414 . S
C1156 C1157 1.374 . S
C1157 H1137 0.950 . S
C1157 C1153 1.385 . S
C1157 C1156 1.374 . S
C1158 C1155 1.499 . S
C1158 C1159 1.373 . S
C1158 C1160 1.389 . S
C1159 H1138 0.950 . S
C1159 C1158 1.373 . S
C1159 C1175 1.377 . S
C1160 C1158 1.389 . S
C1160 C1161 1.524 . S
C1160 C1174 1.377 . S
C1161 C1160 1.524 . S
C1161 C1162 1.397 . S
C1161 C1166 1.363 . S
C1162 H1139 0.950 . S
C1162 C1161 1.397 . S
C1162 C1163 1.334 . S
C1163 H1140 0.950 . S
C1163 C1162 1.334 . S
C1163 C1164 1.287 . S
C1164 C1163 1.287 . S
C1164 C1165 1.524 . S
C1164 H1183 0.913 . S
C1165 H1141 0.950 . S
C1165 C1164 1.524 . S
C1165 C1166 1.415 . S
C1166 H1142 0.950 . S
C1166 C1161 1.363 . S
C1166 C1165 1.415 . S
C1167 H1143 0.951 . S
C1167 C1168 1.366 . S
C1167 C1169 1.388 . S
C1168 C1167 1.366 . S
C1168 C1172 1.385 . S
C1169 H1144 0.951 . S
C1169 C1167 1.388 . S
C1169 C1170 1.366 . S
C1170 C1169 1.366 . S
C1170 C1171 1.414 . S
C1170 C1173 1.499 . S
C1171 H1145 0.950 . S
C1171 C1170 1.414 . S
C1171 C1172 1.374 . S
C1172 H1146 0.950 . S
C1172 C1168 1.385 . S
C1172 C1171 1.374 . S
C1173 C1170 1.499 . S
C1173 C1174 1.373 . S
C1173 C1175 1.389 . S
C1174 H1147 0.950 . S
C1174 C1160 1.377 . S
C1174 C1173 1.373 . S
C1175 C1159 1.377 . S
C1175 C1173 1.389 . S
C1175 C1176 1.524 . S
C1176 C1175 1.524 . S
C1176 C1177 1.397 . S
C1176 C1181 1.363 . S
C1177 H1148 0.950 . S
C1177 C1176 1.397 . S
C1177 C1178 1.334 . S
C1178 H1149 0.950 . S
C1178 C1177 1.334 . S
C1178 C1179 1.287 . S
C1179 C1178 1.287 . S
C1179 C1180 1.524 . S
C1179 H1182 0.999 . S
C1180 H1150 0.950 . S
C1180 C1179 1.524 . S
C1180 C1181 1.415 . S
C1181 H1151 0.950 . S
C1181 C1176 1.363 . S
C1181 C1180 1.415 . S
H1182 C1179 0.999 . S
H1183 C1164 0.913 . S
H1184 C1202 0.951 . S
H1185 C1204 0.951 . S
H1186 C1206 0.950 . S
H1187 C1207 0.950 . S
H1188 C1209 0.950 . S
H1189 C1212 0.950 . S
H1190 C1213 0.950 . S
H1191 C1215 0.950 . S
H1192 C1216 0.950 . S
H1193 C1217 0.951 . S
H1194 C1219 0.951 . S
H1195 C1221 0.950 . S
H1196 C1222 0.950 . S
H1197 C1224 0.950 . S
H1198 C1227 0.950 . S
H1199 C1228 0.950 . S
H1200 C1230 0.950 . S
H1201 C1231 0.950 . S
C1202 H1184 0.951 . S
C1202 C1203 1.366 . S
C1202 C1204 1.388 . S
C1203 C1202 1.366 . S
C1203 C1207 1.385 . S
C1204 H1185 0.951 . S
C1204 C1202 1.388 . S
C1204 C1205 1.366 . S
C1205 C1204 1.366 . S
C1205 C1206 1.414 . S
C1205 C1208 1.499 . S
C1206 H1186 0.950 . S
C1206 C1205 1.414 . S
C1206 C1207 1.374 . S
C1207 H1187 0.950 . S
C1207 C1203 1.385 . S
C1207 C1206 1.374 . S
C1208 C1205 1.499 . S
C1208 C1209 1.373 . S
C1208 C1210 1.389 . S
C1209 H1188 0.950 . S
C1209 C1208 1.373 . S
C1209 C1225 1.377 1_455 S
C1210 C1208 1.389 . S
C1210 C1211 1.524 . S
C1210 C1224 1.377 1_455 S
C1211 C1210 1.524 . S
C1211 C1212 1.397 . S
C1211 C1216 1.363 . S
C1212 H1189 0.950 . S
C1212 C1211 1.397 . S
C1212 C1213 1.334 . S
C1213 H1190 0.950 . S
C1213 C1212 1.334 . S
C1213 C1214 1.287 . S
C1214 C1213 1.287 . S
C1214 C1215 1.524 . S
C1214 H1233 0.913 . S
C1215 H1191 0.950 . S
C1215 C1214 1.524 . S
C1215 C1216 1.415 . S
C1216 H1192 0.950 . S
C1216 C1211 1.363 . S
C1216 C1215 1.415 . S
C1217 H1193 0.951 . S
C1217 C1218 1.366 . S
C1217 C1219 1.388 . S
C1218 C1217 1.366 . S
C1218 C1222 1.385 . S
C1219 H1194 0.951 . S
C1219 C1217 1.388 . S
C1219 C1220 1.366 . S
C1220 C1219 1.366 . S
C1220 C1221 1.414 . S
C1220 C1223 1.499 . S
C1221 H1195 0.950 . S
C1221 C1220 1.414 . S
C1221 C1222 1.374 . S
C1222 H1196 0.950 . S
C1222 C1218 1.385 . S
C1222 C1221 1.374 . S
C1223 C1220 1.499 . S
C1223 C1224 1.373 . S
C1223 C1225 1.389 . S
C1224 H1197 0.950 . S
C1224 C1210 1.377 1_655 S
C1224 C1223 1.373 . S
C1225 C1209 1.377 1_655 S
C1225 C1223 1.389 . S
C1225 C1226 1.524 . S
C1226 C1225 1.524 . S
C1226 C1227 1.397 . S
C1226 C1231 1.363 . S
C1227 H1198 0.950 . S
C1227 C1226 1.397 . S
C1227 C1228 1.334 . S
C1228 H1199 0.950 . S
C1228 C1227 1.334 . S
C1228 C1229 1.287 . S
C1229 C1228 1.287 . S
C1229 C1230 1.524 . S
C1229 H1232 0.999 . S
C1230 H1200 0.950 . S
C1230 C1229 1.524 . S
C1230 C1231 1.415 . S
C1231 H1201 0.950 . S
C1231 C1226 1.363 . S
C1231 C1230 1.415 . S
H1232 C1229 0.999 . S
H1233 C1214 0.913 . S
H1234 C1252 0.951 . S
H1235 C1254 0.951 . S
H1236 C1256 0.950 . S
H1237 C1257 0.950 . S
H1238 C1259 0.950 . S
H1239 C1262 0.950 . S
H1240 C1263 0.950 . S
H1241 C1265 0.950 . S
H1242 C1266 0.950 . S
H1243 C1267 0.951 . S
H1244 C1269 0.951 . S
H1245 C1271 0.950 . S
H1246 C1272 0.950 . S
H1247 C1274 0.950 . S
H1248 C1277 0.950 . S
H1249 C1278 0.950 . S
H1250 C1280 0.950 . S
H1251 C1281 0.950 . S
C1252 H1234 0.951 . S
C1252 C1253 1.366 . S
C1252 C1254 1.388 . S
C1253 C1252 1.366 . S
C1253 C1257 1.385 . S
C1254 H1235 0.951 . S
C1254 C1252 1.388 . S
C1254 C1255 1.366 . S
C1255 C1254 1.366 . S
C1255 C1256 1.414 . S
C1255 C1258 1.499 . S
C1256 H1236 0.950 . S
C1256 C1255 1.414 . S
C1256 C1257 1.374 . S
C1257 H1237 0.950 . S
C1257 C1253 1.385 . S
C1257 C1256 1.374 . S
C1258 C1255 1.499 . S
C1258 C1259 1.373 . S
C1258 C1260 1.389 . S
C1259 H1238 0.950 . S
C1259 C1258 1.373 . S
C1259 C1275 1.377 1_655 S
C1260 C1258 1.389 . S
C1260 C1261 1.524 . S
C1260 C1274 1.377 1_655 S
C1261 C1260 1.524 . S
C1261 C1262 1.397 . S
C1261 C1266 1.363 . S
C1262 H1239 0.950 . S
C1262 C1261 1.397 . S
C1262 C1263 1.334 . S
C1263 H1240 0.950 . S
C1263 C1262 1.334 . S
C1263 C1264 1.287 . S
C1264 C1263 1.287 . S
C1264 C1265 1.524 . S
C1264 H1283 0.913 . S
C1265 H1241 0.950 . S
C1265 C1264 1.524 . S
C1265 C1266 1.415 . S
C1266 H1242 0.950 . S
C1266 C1261 1.363 . S
C1266 C1265 1.415 . S
C1267 H1243 0.951 . S
C1267 C1268 1.366 . S
C1267 C1269 1.388 . S
C1268 C1267 1.366 . S
C1268 C1272 1.385 . S
C1269 H1244 0.951 . S
C1269 C1267 1.388 . S
C1269 C1270 1.366 . S
C1270 C1269 1.366 . S
C1270 C1271 1.414 . S
C1270 C1273 1.499 . S
C1271 H1245 0.950 . S
C1271 C1270 1.414 . S
C1271 C1272 1.374 . S
C1272 H1246 0.950 . S
C1272 C1268 1.385 . S
C1272 C1271 1.374 . S
C1273 C1270 1.499 . S
C1273 C1274 1.373 . S
C1273 C1275 1.389 . S
C1274 H1247 0.950 . S
C1274 C1260 1.377 1_455 S
C1274 C1273 1.373 . S
C1275 C1259 1.377 1_455 S
C1275 C1273 1.389 . S
C1275 C1276 1.524 . S
C1276 C1275 1.524 . S
C1276 C1277 1.397 . S
C1276 C1281 1.363 . S
C1277 H1248 0.950 . S
C1277 C1276 1.397 . S
C1277 C1278 1.334 . S
C1278 H1249 0.950 . S
C1278 C1277 1.334 . S
C1278 C1279 1.287 . S
C1279 C1278 1.287 . S
C1279 C1280 1.524 . S
C1279 H1282 0.999 . S
C1280 H1250 0.950 . S
C1280 C1279 1.524 . S
C1280 C1281 1.415 . S
C1281 H1251 0.950 . S
C1281 C1276 1.363 . S
C1281 C1280 1.415 . S
H1282 C1279 0.999 . S
H1283 C1264 0.913 . S
H1284 C1302 0.951 . S
H1285 C1304 0.951 . S
H1286 C1306 0.950 . S
H1287 C1307 0.950 . S
H1288 C1309 0.950 . S
H1289 C1312 0.950 1_554 S
H1290 C1313 0.950 . S
H1291 C1315 0.950 . S
H1292 C1316 0.946 1_554 S
H1293 C1317 0.951 . S
H1294 C1319 0.951 . S
H1295 C1321 0.950 . S
H1296 C1322 0.950 . S
H1297 C1324 0.950 . S
H1298 C1327 0.950 . S
H1299 C1328 0.950 . S
H1300 C1330 0.950 . S
H1301 C1331 0.950 . S
C1302 H1284 0.951 . S
C1302 C1303 1.366 . S
C1302 C1304 1.388 . S
C1303 C1302 1.366 . S
C1303 C1307 1.385 . S
C1304 H1285 0.951 . S
C1304 C1302 1.388 . S
C1304 C1305 1.366 . S
C1305 C1304 1.366 . S
C1305 C1306 1.414 . S
C1305 C1308 1.499 . S
C1306 H1286 0.950 . S
C1306 C1305 1.414 . S
C1306 C1307 1.374 . S
C1307 H1287 0.950 . S
C1307 C1303 1.385 . S
C1307 C1306 1.374 . S
C1308 C1305 1.499 . S
C1308 C1309 1.373 . S
C1308 C1310 1.389 . S
C1309 H1288 0.950 . S
C1309 C1308 1.373 . S
C1309 C1325 1.377 . S
C1310 C1308 1.389 . S
C1310 C1311 1.524 . S
C1310 C1324 1.377 . S
C1311 C1310 1.524 . S
C1311 C1312 1.397 1_554 S
C1311 C1316 1.363 1_554 S
C1312 H1289 0.950 1_556 S
C1312 C1311 1.397 1_556 S
C1312 C1313 1.334 . S
C1313 H1290 0.950 . S
C1313 C1312 1.334 . S
C1313 C1314 1.287 . S
C1314 C1313 1.287 . S
C1314 C1315 1.524 . S
C1314 H1333 0.913 . S
C1315 H1291 0.950 . S
C1315 C1314 1.524 . S
C1315 C1316 1.415 . S
C1316 H1292 0.946 1_556 S
C1316 C1311 1.363 1_556 S
C1316 C1315 1.415 . S
C1317 H1293 0.951 . S
C1317 C1318 1.366 . S
C1317 C1319 1.388 . S
C1318 C1317 1.366 . S
C1318 C1322 1.385 . S
C1319 H1294 0.951 . S
C1319 C1317 1.388 . S
C1319 C1320 1.366 . S
C1320 C1319 1.366 . S
C1320 C1321 1.414 . S
C1320 C1323 1.499 . S
C1321 H1295 0.950 . S
C1321 C1320 1.414 . S
C1321 C1322 1.374 . S
C1322 H1296 0.950 . S
C1322 C1318 1.385 . S
C1322 C1321 1.374 . S
C1323 C1320 1.499 . S
C1323 C1324 1.373 . S
C1323 C1325 1.389 . S
C1324 H1297 0.950 . S
C1324 C1310 1.377 . S
C1324 C1323 1.373 . S
C1325 C1309 1.377 . S
C1325 C1323 1.389 . S
C1325 C1326 1.524 . S
C1326 C1325 1.524 . S
C1326 C1327 1.397 . S
C1326 C1331 1.363 . S
C1327 H1298 0.950 . S
C1327 C1326 1.397 . S
C1327 C1328 1.334 . S
C1328 H1299 0.950 . S
C1328 C1327 1.334 . S
C1328 C1329 1.287 . S
C1329 C1328 1.287 . S
C1329 C1330 1.524 . S
C1329 H1332 0.999 . S
C1330 H1300 0.950 . S
C1330 C1329 1.524 . S
C1330 C1331 1.415 . S
C1331 H1301 0.950 . S
C1331 C1326 1.363 . S
C1331 C1330 1.415 . S
H1332 C1329 0.999 . S
H1333 C1314 0.913 . S
H1334 C1352 0.951 . S
H1335 C1354 0.951 . S
H1336 C1356 0.950 . S
H1337 C1357 0.950 . S
H1338 C1359 0.950 . S
H1339 C1362 0.950 . S
H1340 C1363 0.950 1_554 S
H1341 C1365 0.950 . S
H1342 C1366 0.950 . S
H1343 C1367 0.951 . S
H1344 C1369 0.951 . S
H1345 C1371 0.950 . S
H1346 C1372 0.950 . S
H1347 C1374 0.950 . S
H1348 C1377 0.950 . S
H1349 C1378 0.950 . S
H1350 C1380 0.950 . S
H1351 C1381 0.950 . S
C1352 H1334 0.951 . S
C1352 C1353 1.366 . S
C1352 C1354 1.388 . S
C1353 C1352 1.366 . S
C1353 C1357 1.385 . S
C1354 H1335 0.951 . S
C1354 C1352 1.388 . S
C1354 C1355 1.366 . S
C1355 C1354 1.366 . S
C1355 C1356 1.414 . S
C1355 C1358 1.499 . S
C1356 H1336 0.950 . S
C1356 C1355 1.414 . S
C1356 C1357 1.374 . S
C1357 H1337 0.950 . S
C1357 C1353 1.385 . S
C1357 C1356 1.374 . S
C1358 C1355 1.499 . S
C1358 C1359 1.373 . S
C1358 C1360 1.389 . S
C1359 H1338 0.950 . S
C1359 C1358 1.373 . S
C1359 C1375 1.377 . S
C1360 C1358 1.389 . S
C1360 C1361 1.524 . S
C1360 C1374 1.377 . S
C1361 C1360 1.524 . S
C1361 C1362 1.397 . S
C1361 C1366 1.363 . S
C1362 H1339 0.950 . S
C1362 C1361 1.397 . S
C1362 C1363 1.334 . S
C1363 H1340 0.950 1_556 S
C1363 C1362 1.334 . S
C1363 C1364 1.287 . S
C1364 C1363 1.287 . S
C1364 C1365 1.524 . S
C1364 H1383 0.913 . S
C1365 H1341 0.950 . S
C1365 C1364 1.524 . S
C1365 C1366 1.415 . S
C1366 H1342 0.950 . S
C1366 C1361 1.363 . S
C1366 C1365 1.415 . S
C1367 H1343 0.951 . S
C1367 C1368 1.366 . S
C1367 C1369 1.388 . S
C1368 C1367 1.366 . S
C1368 C1372 1.385 . S
C1369 H1344 0.951 . S
C1369 C1367 1.388 . S
C1369 C1370 1.366 . S
C1370 C1369 1.366 . S
C1370 C1371 1.414 . S
C1370 C1373 1.499 . S
C1371 H1345 0.950 . S
C1371 C1370 1.414 . S
C1371 C1372 1.374 . S
C1372 H1346 0.950 . S
C1372 C1368 1.385 . S
C1372 C1371 1.374 . S
C1373 C1370 1.499 . S
C1373 C1374 1.373 . S
C1373 C1375 1.389 . S
C1374 H1347 0.950 . S
C1374 C1360 1.377 . S
C1374 C1373 1.373 . S
C1375 C1359 1.377 . S
C1375 C1373 1.389 . S
C1375 C1376 1.524 . S
C1376 C1375 1.524 . S
C1376 C1377 1.397 . S
C1376 C1381 1.363 . S
C1377 H1348 0.950 . S
C1377 C1376 1.397 . S
C1377 C1378 1.334 . S
C1378 H1349 0.950 . S
C1378 C1377 1.334 . S
C1378 C1379 1.287 . S
C1379 C1378 1.287 . S
C1379 C1380 1.524 . S
C1379 H1382 0.999 . S
C1380 H1350 0.950 . S
C1380 C1379 1.524 . S
C1380 C1381 1.415 . S
C1381 H1351 0.950 . S
C1381 C1376 1.363 . S
C1381 C1380 1.415 . S
H1382 C1379 0.999 . S
H1383 C1364 0.913 . S
C203 C18 1.444 . S
C218 C179 1.444 . S
C253 C156 1.444 . S
C268 C41 1.444 . S
C303 C133 1.444 . S
C318 C64 1.444 . S
C353 C110 1.444 . S
C368 C87 1.444 . S
C403 C66 1.588 . S
C418 C20 1.587 . S
C453 C43 1.587 . S
C468 C89 1.588 . S
C503 C88 1.516 . S
C518 C42 1.516 . S
C553 C65 1.516 . S
C568 C19 1.516 . S
C603 C112 1.587 . S
C618 C158 1.588 . S
C653 C135 1.588 . S
C668 C181 1.587 . S
C703 C180 1.516 . S
C718 C134 1.516 . S
C753 C157 1.516 . S
C768 C111 1.516 . S
C803 C17 1.349 . S
C818 C16 1.348 . S
C853 C40 1.350 . S
C868 C39 1.349 . S
C903 C62 1.348 . S
C918 C63 1.349 . S
C953 C86 1.349 . S
C968 C85 1.348 . S
C1003 C108 1.348 . S
C1018 C109 1.349 . S
C1053 C132 1.349 . S
C1068 C131 1.348 . S
C1103 C155 1.349 . S
C1118 C154 1.348 . S
C1153 C178 1.349 . S
C1168 C177 1.348 . S
C1203 C21 1.460 . S
C1218 C44 1.459 . S
C1253 C90 1.459 . S
C1268 C67 1.459 . S
C1303 C113 1.460 . S
C1318 C136 1.459 . S
C1353 C182 1.460 . S
C1368 C159 1.459 . S
