# Generated by pormake.
# Topology ung, (4)-cn, num edge types: 1
# Building blocks:
#     Node 0, Type 0, BuildingBlock: QUQFOY_clean_sbu_3, # of connection points: 4
#     Node 1, Type 0, BuildingBlock: QUQFOY_clean_sbu_3, # of connection points: 4
#     Node 2, Type 0, BuildingBlock: QUQFOY_clean_sbu_3, # of connection points: 4
#     Node 3, Type 0, BuildingBlock: QUQFOY_clean_sbu_3, # of connection points: 4
#     Node 4, Type 0, BuildingBlock: QUQFOY_clean_sbu_3, # of connection points: 4
#     Node 5, Type 0, BuildingBlock: QUQFOY_clean_sbu_3, # of connection points: 4
#     Node 6, Type 0, BuildingBlock: QUQFOY_clean_sbu_3, # of connection points: 4
#     Node 7, Type 0, BuildingBlock: QUQFOY_clean_sbu_3, # of connection points: 4
#     Node 8, Type 0, BuildingBlock: QUQFOY_clean_sbu_3, # of connection points: 4
#     Node 9, Type 0, BuildingBlock: QUQFOY_clean_sbu_3, # of connection points: 4
#     Node 10, Type 0, BuildingBlock: QUQFOY_clean_sbu_3, # of connection points: 4
#     Node 11, Type 0, BuildingBlock: QUQFOY_clean_sbu_3, # of connection points: 4
#     Node 12, Type 0, BuildingBlock: QUQFOY_clean_sbu_3, # of connection points: 4
#     Node 13, Type 0, BuildingBlock: QUQFOY_clean_sbu_3, # of connection points: 4
#     Node 14, Type 0, BuildingBlock: QUQFOY_clean_sbu_3, # of connection points: 4
#     Node 15, Type 0, BuildingBlock: QUQFOY_clean_sbu_3, # of connection points: 4
#     Node 16, Type 0, BuildingBlock: QUQFOY_clean_sbu_3, # of connection points: 4
#     Node 17, Type 0, BuildingBlock: QUQFOY_clean_sbu_3, # of connection points: 4
#     Edge 18, Type (0, 0), BuildingBlock: UVAHIK_clean_linker_0, # of connection points: 2
#     Edge 19, Type (0, 0), BuildingBlock: UVAHIK_clean_linker_0, # of connection points: 2
#     Edge 20, Type (0, 0), BuildingBlock: UVAHIK_clean_linker_0, # of connection points: 2
#     Edge 21, Type (0, 0), BuildingBlock: UVAHIK_clean_linker_0, # of connection points: 2
#     Edge 22, Type (0, 0), BuildingBlock: UVAHIK_clean_linker_0, # of connection points: 2
#     Edge 23, Type (0, 0), BuildingBlock: UVAHIK_clean_linker_0, # of connection points: 2
#     Edge 24, Type (0, 0), BuildingBlock: UVAHIK_clean_linker_0, # of connection points: 2
#     Edge 25, Type (0, 0), BuildingBlock: UVAHIK_clean_linker_0, # of connection points: 2
#     Edge 26, Type (0, 0), BuildingBlock: UVAHIK_clean_linker_0, # of connection points: 2
#     Edge 27, Type (0, 0), BuildingBlock: UVAHIK_clean_linker_0, # of connection points: 2
#     Edge 28, Type (0, 0), BuildingBlock: UVAHIK_clean_linker_0, # of connection points: 2
#     Edge 29, Type (0, 0), BuildingBlock: UVAHIK_clean_linker_0, # of connection points: 2
#     Edge 30, Type (0, 0), BuildingBlock: UVAHIK_clean_linker_0, # of connection points: 2
#     Edge 31, Type (0, 0), BuildingBlock: UVAHIK_clean_linker_0, # of connection points: 2
#     Edge 32, Type (0, 0), BuildingBlock: UVAHIK_clean_linker_0, # of connection points: 2
#     Edge 33, Type (0, 0), BuildingBlock: UVAHIK_clean_linker_0, # of connection points: 2
#     Edge 34, Type (0, 0), BuildingBlock: UVAHIK_clean_linker_0, # of connection points: 2
#     Edge 35, Type (0, 0), BuildingBlock: UVAHIK_clean_linker_0, # of connection points: 2
#     Edge 36, Type (0, 0), BuildingBlock: UVAHIK_clean_linker_0, # of connection points: 2
#     Edge 37, Type (0, 0), BuildingBlock: UVAHIK_clean_linker_0, # of connection points: 2
#     Edge 38, Type (0, 0), BuildingBlock: UVAHIK_clean_linker_0, # of connection points: 2
#     Edge 39, Type (0, 0), BuildingBlock: UVAHIK_clean_linker_0, # of connection points: 2
#     Edge 40, Type (0, 0), BuildingBlock: UVAHIK_clean_linker_0, # of connection points: 2
#     Edge 41, Type (0, 0), BuildingBlock: UVAHIK_clean_linker_0, # of connection points: 2
#     Edge 42, Type (0, 0), BuildingBlock: UVAHIK_clean_linker_0, # of connection points: 2
#     Edge 43, Type (0, 0), BuildingBlock: UVAHIK_clean_linker_0, # of connection points: 2
#     Edge 44, Type (0, 0), BuildingBlock: UVAHIK_clean_linker_0, # of connection points: 2
#     Edge 45, Type (0, 0), BuildingBlock: UVAHIK_clean_linker_0, # of connection points: 2
#     Edge 46, Type (0, 0), BuildingBlock: UVAHIK_clean_linker_0, # of connection points: 2
#     Edge 47, Type (0, 0), BuildingBlock: UVAHIK_clean_linker_0, # of connection points: 2
#     Edge 48, Type (0, 0), BuildingBlock: UVAHIK_clean_linker_0, # of connection points: 2
#     Edge 49, Type (0, 0), BuildingBlock: UVAHIK_clean_linker_0, # of connection points: 2
#     Edge 50, Type (0, 0), BuildingBlock: UVAHIK_clean_linker_0, # of connection points: 2
#     Edge 51, Type (0, 0), BuildingBlock: UVAHIK_clean_linker_0, # of connection points: 2
#     Edge 52, Type (0, 0), BuildingBlock: UVAHIK_clean_linker_0, # of connection points: 2
#     Edge 53, Type (0, 0), BuildingBlock: UVAHIK_clean_linker_0, # of connection points: 2
# Relax obj value: 0.078
# Max RMSD: 0.193
# Mean RMSD: 0.191
data_MOF--net-ung--node1-QUQFOY_clean_sbu_3--edge1-UVAHIK_clean_linker_0
_symmetry_space_group_name_H-M    P1
_symmetry_Int_Tables_number       1
_symmetry_cell_setting            triclinic
loop_
_symmetry_equiv_pos_as_xyz
'x, y, z'
_cell_length_a     100.39794
_cell_length_b     100.03291
_cell_length_c     30.96805
_cell_angle_alpha  88.926619
_cell_angle_beta   90.941652
_cell_angle_gamma 121.39825
loop_
_atom_site_label
_atom_site_type_symbol
_atom_site_fract_x
_atom_site_fract_y
_atom_site_fract_z
_atom_type_partial_charge
C0 C 0.04353 0.63354 0.22593 0.0
O1 O 0.04889 0.63428 0.18856 0.0
Cd2 Cd 0.03306 0.61329 0.13808 0.0
O3 O 0.03096 0.62129 0.2376 0.0
Cd4 Cd 0.0119 0.59474 0.21309 0.0
C5 C -0.00306 0.60951 0.14386 0.0
O6 O 0.02557 0.58725 0.1615 0.0
O7 O 0.00025 0.57393 0.16189 0.0
O8 O 0.02148 0.58735 0.27449 0.0
C9 C 0.01281 0.57561 0.14761 0.0
O10 O 0.00911 0.61298 0.12261 0.0
C11 C 0.00857 0.57907 0.29363 0.0
O12 O -0.00508 0.60373 0.18202 0.0
O13 O -0.00343 0.57797 0.27536 0.0
C14 C 0.43599 0.4249 0.20191 0.0
O15 O 0.44125 0.42449 0.23911 0.0
Cd16 Cd 0.44649 0.44501 0.28991 0.0
O17 O 0.4354 0.43682 0.19022 0.0
Cd18 Cd 0.44387 0.46334 0.21486 0.0
C19 C 0.41366 0.4478 0.28234 0.0
O20 O 0.46547 0.47135 0.26819 0.0
O21 O 0.45327 0.48399 0.26621 0.0
O22 O 0.46134 0.47085 0.15548 0.0
C23 C 0.46435 0.48271 0.28159 0.0
O24 O 0.42243 0.44438 0.30386 0.0
C25 C 0.45713 0.47916 0.13513 0.0
O26 O 0.41753 0.45391 0.24458 0.0
O27 O 0.44615 0.4802 0.15165 0.0
C28 C 0.57605 -0.00438 0.23974 0.0
O29 O 0.57266 -0.00904 0.20106 0.0
Cd30 Cd 0.5701 0.00716 0.14678 0.0
O31 O 0.57647 0.00799 0.2511 0.0
Cd32 Cd 0.57107 0.02802 0.22298 0.0
C33 C 0.60429 0.04245 0.16675 0.0
O34 O 0.55191 0.01496 0.16419 0.0
O35 O 0.56432 0.04032 0.16678 0.0
O36 O 0.55154 0.01794 0.2782 0.0
C37 C 0.55391 0.0278 0.14894 0.0
O38 O 0.59609 0.03021 0.14434 0.0
C39 C 0.55608 0.03076 0.29715 0.0
O40 O 0.59864 0.04513 0.19989 0.0
O41 O 0.56819 0.04286 0.28207 0.0
C42 C 0.04334 0.46241 0.73108 0.0
O43 O 0.04754 0.46598 0.69204 0.0
Cd44 Cd 0.0318 0.47123 0.64192 0.0
O45 O 0.0314 0.46234 0.74437 0.0
Cd46 Cd 0.01144 0.46803 0.7204 0.0
C47 C -0.004 0.43729 0.65332 0.0
O48 O 0.02477 0.48942 0.6664 0.0
O49 O -0.00049 0.47698 0.66927 0.0
O50 O 0.02133 0.48537 0.78062 0.0
C51 C 0.01204 0.48807 0.65315 0.0
O52 O 0.00778 0.44647 0.63029 0.0
C53 C 0.00852 0.48011 0.80018 0.0
O54 O -0.00547 0.44118 0.69124 0.0
O55 O -0.00355 0.46865 0.78281 0.0
C56 C 0.61185 0.60065 0.70571 0.0
O57 O 0.61211 0.59637 0.74441 0.0
Cd58 Cd 0.59068 0.58969 0.79312 0.0
O59 O 0.59983 0.60044 0.6912 0.0
Cd60 Cd 0.57327 0.59262 0.71318 0.0
C61 C 0.58802 0.62258 0.7827 0.0
O62 O 0.56521 0.57094 0.76611 0.0
O63 O 0.5519 0.5824 0.76281 0.0
O64 O 0.56609 0.57572 0.65232 0.0
C65 C 0.55354 0.57158 0.77882 0.0
O66 O 0.59073 0.61355 0.80565 0.0
C67 C 0.55808 0.58035 0.63227 0.0
O68 O 0.58284 0.619 0.74401 0.0
O69 O 0.55714 0.59129 0.64958 0.0
C70 C 0.44005 0.06531 0.7045 0.0
O71 O 0.44414 0.06991 0.74303 0.0
Cd72 Cd 0.44909 0.0544 0.79467 0.0
O73 O 0.43992 0.05326 0.69153 0.0
Cd74 Cd 0.44709 0.03429 0.7164 0.0
C75 C 0.41618 0.01756 0.78238 0.0
O76 O 0.46783 0.04823 0.77136 0.0
O77 O 0.45597 0.0229 0.7697 0.0
O78 O 0.46519 0.04457 0.65749 0.0
C79 C 0.46669 0.03565 0.78575 0.0
O80 O 0.42487 0.02956 0.80525 0.0
C81 C 0.46072 0.03167 0.63906 0.0
O82 O 0.42033 0.01627 0.74463 0.0
O83 O 0.44922 0.01946 0.65596 0.0
C84 C 0.64283 0.93418 0.53772 0.0
O85 O 0.63961 0.93149 0.57759 0.0
Cd86 Cd 0.65478 0.92552 0.62735 0.0
O87 O 0.65395 0.93322 0.52225 0.0
Cd88 Cd 0.67343 0.9265 0.54491 0.0
C89 C 0.69159 0.95769 0.61041 0.0
O90 O 0.65987 0.90626 0.60156 0.0
O91 O 0.68494 0.91724 0.59668 0.0
O92 O 0.66276 0.90818 0.48642 0.0
C93 C 0.67234 0.90701 0.61456 0.0
O94 O 0.6801 0.9492 0.63507 0.0
C95 C 0.67551 0.91253 0.46745 0.0
O96 O 0.69204 0.95346 0.57199 0.0
O97 O 0.68777 0.92409 0.48372 0.0
C98 C 0.10667 0.75873 0.53362 0.0
O99 O 0.11242 0.75847 0.57018 0.0
Cd100 Cd 0.11639 0.77814 0.62237 0.0
O101 O 0.10518 0.77023 0.5233 0.0
Cd102 Cd 0.11257 0.7963 0.54941 0.0
C103 C 0.08215 0.7784 0.61628 0.0
O104 O 0.1343 0.80507 0.60255 0.0
O105 O 0.12093 0.81654 0.60147 0.0
O106 O 0.13013 0.80455 0.49019 0.0
C107 C 0.13242 0.81591 0.61652 0.0
O108 O 0.09129 0.77523 0.63677 0.0
C109 C 0.12549 0.81254 0.46999 0.0
O110 O 0.08607 0.78542 0.5796 0.0
O111 O 0.11424 0.8131 0.48662 0.0
C112 C 0.27764 0.3945 0.53772 0.0
O113 O 0.27882 0.39785 0.57747 0.0
Cd114 Cd 0.25709 0.38199 0.62594 0.0
O115 O 0.26484 0.38335 0.52288 0.0
Cd116 Cd 0.23821 0.36417 0.54629 0.0
C117 C 0.25153 0.34575 0.60865 0.0
O118 O 0.23205 0.37738 0.60261 0.0
O119 O 0.21735 0.35214 0.5977 0.0
O120 O 0.23102 0.3752 0.48763 0.0
C121 C 0.21988 0.3647 0.61473 0.0
O122 O 0.25505 0.35683 0.63467 0.0
C123 C 0.2225 0.3626 0.46724 0.0
O124 O 0.2464 0.34575 0.57066 0.0
O125 O 0.22117 0.35017 0.48348 0.0
C126 C 0.71002 0.79538 0.0669 0.0
O127 O 0.71513 0.79995 0.02891 0.0
Cd128 Cd 0.69982 0.80448 -0.02429 0.0
O129 O 0.69767 0.79481 0.07874 0.0
Cd130 Cd 0.67872 0.80178 0.05276 0.0
C131 C 0.6635 0.7707 -0.01279 0.0
O132 O 0.69255 0.82258 -0.00238 0.0
O133 O 0.66727 0.81026 -0.00125 0.0
O134 O 0.68866 0.81992 0.11143 0.0
C135 C 0.67995 0.82109 -0.0174 0.0
O136 O 0.67566 0.77962 0.96514 0.0
C137 C 0.67573 0.81544 0.12948 0.0
O138 O 0.66157 0.77488 0.02424 0.0
O139 O 0.66363 0.80389 0.11251 0.0
C140 C 0.27859 0.93361 0.03491 0.0
O141 O 0.27917 0.92895 0.0729 0.0
Cd142 Cd 0.25865 0.9232 0.1238 0.0
O143 O 0.26665 0.93396 0.0225 0.0
Cd144 Cd 0.24044 0.92663 0.04701 0.0
C145 C 0.25724 0.95696 0.11517 0.0
O146 O 0.2325 0.90491 0.09974 0.0
O147 O 0.21956 0.91679 0.09802 0.0
O148 O 0.23283 0.90973 -0.01372 0.0
C149 C 0.22112 0.90585 0.11355 0.0
O150 O 0.26043 0.9479 0.13621 0.0
C151 C 0.22483 0.91444 0.96664 0.0
O152 O 0.2506 0.95304 0.0781 0.0
O153 O 0.22396 0.92538 -0.01569 0.0
C154 C 0.10529 0.39608 0.02967 0.0
O155 O 0.10883 0.40008 0.06881 0.0
Cd156 Cd 0.11503 0.38497 0.11861 0.0
O157 O 0.10552 0.38436 0.01553 0.0
Cd158 Cd 0.11193 0.36472 0.03902 0.0
C159 C 0.08217 0.34814 0.10919 0.0
O160 O 0.13349 0.37893 0.09156 0.0
O161 O 0.12205 0.35365 0.08969 0.0
O162 O 0.12885 0.37462 -0.02224 0.0
C163 C 0.13282 0.36649 0.10513 0.0
O164 O 0.09129 0.36007 0.13174 0.0
C165 C 0.12386 0.36167 0.95907 0.0
O166 O 0.08555 0.34692 0.07041 0.0
O167 O 0.11265 0.34954 -0.0228 0.0
C168 C 0.37215 0.29859 0.89715 0.0
O169 O 0.37683 0.29971 0.85869 0.0
Cd170 Cd 0.36048 0.27861 0.8088 0.0
O171 O 0.36007 0.28603 0.90978 0.0
Cd172 Cd 0.34106 0.25949 0.88538 0.0
C173 C 0.32455 0.27428 0.82175 0.0
O174 O 0.35438 0.25278 0.83067 0.0
O175 O 0.3291 0.23888 0.83338 0.0
O176 O 0.35122 0.25195 0.94531 0.0
C177 C 0.34162 0.24094 0.81759 0.0
O178 O 0.33607 0.27792 0.79736 0.0
C179 C 0.33844 0.24355 0.96499 0.0
O180 O 0.32356 0.26842 0.85936 0.0
O181 O 0.32629 0.2424 0.9476 0.0
C182 C 0.77076 0.09494 0.86757 0.0
O183 O 0.77616 0.09507 0.90502 0.0
Cd184 Cd 0.78273 0.11652 0.95371 0.0
O185 O 0.77007 0.10665 0.85423 0.0
Cd186 Cd 0.77795 0.13333 0.87594 0.0
C187 C 0.74945 0.11865 0.94931 0.0
O188 O 0.80052 0.14229 0.92594 0.0
O189 O 0.78843 0.15502 0.92416 0.0
O190 O 0.79407 0.13999 0.81384 0.0
C191 C 0.79965 0.15385 0.9388 0.0
O192 O 0.75894 0.11599 -0.03016 0.0
C193 C 0.78924 0.14782 0.79367 0.0
O194 O 0.75219 0.12384 0.91041 0.0
O195 O 0.77852 0.14895 0.81161 0.0
C196 C 0.91145 0.66242 0.8944 0.0
O197 O 0.90847 0.65908 0.85469 0.0
Cd198 Cd 0.903 0.67454 0.80447 0.0
O199 O 0.91064 0.67366 0.9099 0.0
Cd200 Cd 0.90362 0.69295 0.88689 0.0
C201 C 0.9355 0.71088 0.82398 0.0
O202 O 0.88393 0.67992 0.82925 0.0
O203 O 0.89538 0.70513 0.83395 0.0
O204 O 0.88487 0.68199 0.94436 0.0
C205 C 0.88511 0.69261 0.81585 0.0
O206 O 0.92712 0.69968 0.79839 0.0
C207 C 0.88912 0.69472 0.96348 0.0
O208 O 0.93086 0.71115 0.862 0.0
O209 O 0.90079 0.70708 0.94776 0.0
C210 C 0.376 0.13014 0.40754 0.0
O211 O 0.38182 0.13627 0.37114 0.0
Cd212 Cd 0.3657 0.13988 0.31873 0.0
O213 O 0.36285 0.12803 0.4181 0.0
Cd214 Cd 0.34315 0.13414 0.39328 0.0
C215 C 0.33071 0.10423 0.32509 0.0
O216 O 0.35642 0.15636 0.34171 0.0
O217 O 0.33111 0.14264 0.34122 0.0
O218 O 0.35231 0.15089 0.45463 0.0
C219 C 0.34359 0.15434 0.32684 0.0
O220 O 0.34319 0.11399 0.30539 0.0
C221 C 0.3393 0.14541 0.47326 0.0
O222 O 0.32739 0.10773 0.36122 0.0
O223 O 0.32743 0.13403 0.45489 0.0
C224 C 0.94511 0.26674 0.36794 0.0
O225 O 0.94504 0.26193 0.4062 0.0
Cd226 Cd 0.92359 0.25586 0.45434 0.0
O227 O 0.93344 0.26725 0.35382 0.0
Cd228 Cd 0.90709 0.26016 0.37537 0.0
C229 C 0.92239 0.28961 0.44621 0.0
O230 O 0.89781 0.23793 0.42727 0.0
O231 O 0.88559 0.25054 0.4239 0.0
O232 O 0.89974 0.24353 0.31399 0.0
C233 C 0.88644 0.23919 0.43952 0.0
O234 O 0.92469 0.28016 0.46847 0.0
C235 C 0.89233 0.24878 0.29361 0.0
O236 O 0.91725 0.28642 0.4074 0.0
O237 O 0.89175 0.25991 0.31111 0.0
C238 C 0.77303 0.73011 0.3664 0.0
O239 O 0.77776 0.73521 0.40424 0.0
Cd240 Cd 0.78296 0.72011 0.45676 0.0
O241 O 0.77245 0.71775 0.35423 0.0
Cd242 Cd 0.77966 0.69886 0.37963 0.0
C243 C 0.74965 0.68327 0.44838 0.0
O244 O 0.80095 0.71302 0.43312 0.0
O245 O 0.78871 0.68766 0.43279 0.0
O246 O 0.79724 0.70867 0.31971 0.0
C247 C 0.79964 0.70044 0.4481 0.0
O248 O 0.75876 0.69552 0.46983 0.0
C249 C 0.79271 0.69564 0.30204 0.0
O250 O 0.75315 0.68139 0.41037 0.0
O251 O 0.78134 0.68353 0.31978 0.0
C252 C -0.00618 0.48376 0.85947 0.0
C253 C 0.00801 0.48759 0.84045 0.0
C254 C -0.00629 0.49186 0.89582 0.0
C255 C 0.01921 0.51797 -0.0162 0.0
H256 H -0.01006 0.53219 -0.01589 0.0
C257 C 0.02599 0.56665 0.09724 0.0
C258 C 0.0123 0.56459 0.11537 0.0
C259 C 0.02516 0.55634 0.0658 0.0
C260 C -0.00192 0.52816 -0.01516 0.0
H261 H 0.03321 0.50262 0.84538 0.0
H262 H 0.03299 0.51669 0.90797 0.0
H263 H -0.01145 0.51518 0.92668 0.0
H264 H -0.01299 0.5499 0.11528 0.0
H265 H -0.01438 0.53198 0.06105 0.0
H266 H 0.02888 0.53115 0.04166 0.0
C267 C 0.02194 0.50738 0.89535 0.0
C268 C -0.00276 0.51836 0.95195 0.0
C269 C 0.02205 0.49936 0.85916 0.0
C270 C -0.00219 0.55191 0.10183 0.0
C271 C -0.00302 0.54165 0.07051 0.0
C272 C 0.02006 0.52779 0.01667 0.0
C273 C 0.00779 0.50387 0.91392 0.0
C274 C 0.00789 0.51326 0.95078 0.0
C275 C 0.01062 0.54379 0.05183 0.0
C276 C 0.00958 0.5331 0.01741 0.0
H277 H -0.01718 0.47474 0.84581 0.0
H278 H -0.01739 0.48877 0.90964 0.0
H279 H 0.02745 0.51407 -0.01577 0.0
H280 H 0.03732 0.57632 0.10695 0.0
H281 H 0.03589 0.55839 0.05176 0.0
C282 C 0.54479 0.54933 0.83221 0.0
C283 C 0.54271 0.56087 0.81242 0.0
C284 C 0.53478 0.53975 0.86515 0.0
C285 C 0.49611 0.5262 0.91417 0.0
H286 H 0.51439 0.51783 0.01439 0.0
C287 C 0.46256 0.49855 0.07458 0.0
C288 C 0.46527 0.48751 0.09496 0.0
C289 C 0.4713 0.50706 0.03838 0.0
C290 C 0.50906 0.51992 -0.01356 0.0
H291 H 0.52836 0.57126 0.81129 0.0
H292 H 0.51113 0.55477 0.86879 0.0
H293 H 0.53096 0.53308 0.95418 0.0
H294 H 0.47884 0.47631 0.09228 0.0
H295 H 0.49382 0.49091 0.02951 0.0
H296 H 0.4742 0.51311 0.94687 0.0
C297 C 0.52032 0.55292 0.85862 0.0
C298 C 0.51857 0.52863 0.95184 0.0
C299 C 0.53029 0.56246 0.82579 0.0
C300 C 0.47654 0.48483 0.0777 0.0
C301 C 0.48522 0.49328 0.04178 0.0
C302 C 0.48658 0.5175 0.9489 0.0
C303 C 0.52248 0.54152 0.87895 0.0
C304 C 0.51222 0.53187 0.91523 0.0
C305 C 0.48292 0.50468 0.02206 0.0
C306 C 0.49295 0.51421 -0.01464 0.0
H307 H 0.55422 0.54779 0.82255 0.0
H308 H 0.53665 0.53094 0.87976 0.0
H309 H 0.4908 0.52833 0.88626 0.0
H310 H 0.45396 0.50087 0.08714 0.0
H311 H 0.46929 0.51581 0.02395 0.0
C312 C 0.54737 0.04296 0.097 0.0
C313 C 0.54489 0.02843 0.11155 0.0
C314 C 0.53916 0.04385 0.06144 0.0
C315 C 0.51741 0.02251 0.96434 0.0
H316 H 0.5013 0.05031 -0.03276 0.0
C317 C 0.47482 0.02122 0.83542 0.0
C318 C 0.47665 0.03552 0.82128 0.0
C319 C 0.48368 0.02072 0.86988 0.0
C320 C 0.50592 0.04266 0.96567 0.0
H321 H 0.53177 0.00343 0.10022 0.0
H322 H 0.51727 0.00498 0.03796 0.0
H323 H 0.51522 0.0483 0.0299 0.0
H324 H 0.48936 0.06056 0.83189 0.0
H325 H 0.50501 0.05972 0.89218 0.0
H326 H 0.50809 0.01685 0.90014 0.0
C327 C 0.52572 0.01569 0.05398 0.0
C328 C 0.51385 0.04147 0.00162 0.0
C329 C 0.53395 0.01479 0.08975 0.0
C330 C 0.48768 0.04937 0.84209 0.0
C331 C 0.49656 0.04887 0.87675 0.0
C332 C 0.50949 0.02371 0.92837 0.0
C333 C 0.52825 0.03025 0.03947 0.0
C334 C 0.51966 0.03136 0.0014 0.0
C335 C 0.4946 0.03451 0.89111 0.0
C336 C 0.5036 0.03375 0.92868 0.0
H337 H 0.55575 0.05372 0.11297 0.0
H338 H 0.54154 0.05526 0.05075 0.0
H339 H 0.52197 0.01482 0.96287 0.0
H340 H 0.4664 0.01031 0.82017 0.0
H341 H 0.4817 0.00945 0.88048 0.0
C342 C 0.53459 0.01722 0.35072 0.0
C343 C 0.54714 0.03127 0.33405 0.0
C344 C 0.52541 0.01737 0.38379 0.0
C345 C 0.51338 0.04249 0.43384 0.0
H346 H 0.4989 0.01132 0.52595 0.0
C347 C 0.48147 0.04524 0.58345 0.0
C348 C 0.46925 0.03117 0.60108 0.0
C349 C 0.4905 0.04509 0.5499 0.0
C350 C 0.50265 0.01996 0.50012 0.0
H351 H 0.56002 0.05654 0.33963 0.0
H352 H 0.54395 0.05683 0.39792 0.0
H353 H 0.51636 0.01187 0.47123 0.0
H354 H 0.45669 0.00588 0.59651 0.0
H355 H 0.47241 0.00559 0.53726 0.0
H356 H 0.49964 0.05056 0.46267 0.0
C357 C 0.54117 0.04568 0.38493 0.0
C358 C 0.51272 0.02032 0.46883 0.0
C359 C 0.55045 0.04552 0.35178 0.0
C360 C 0.46602 0.01691 0.58363 0.0
C361 C 0.47511 0.01675 0.54994 0.0
C362 C 0.50329 0.04212 0.46511 0.0
C363 C 0.52848 0.03159 0.40114 0.0
C364 C 0.51821 0.03158 0.43528 0.0
C365 C 0.48756 0.03086 0.53296 0.0
C366 C 0.49781 0.03086 0.49869 0.0
H367 H 0.53168 0.00601 0.33781 0.0
H368 H 0.51563 0.00632 0.39504 0.0
H369 H 0.51716 0.05114 0.40804 0.0
H370 H 0.48431 0.05645 0.59613 0.0
H371 H 0.50009 0.05616 0.53809 0.0
C372 C -0.00637 0.56007 0.3541 0.0
C373 C 0.00789 0.57089 0.33464 0.0
C374 C -0.00663 0.55183 0.39153 0.0
C375 C 0.01868 0.55219 0.48123 0.0
H376 H -0.01106 0.50748 0.48614 0.0
C377 C 0.02518 0.51048 0.59996 0.0
C378 C 0.0115 0.49848 0.61945 0.0
C379 C 0.02435 0.5199 0.56727 0.0
C380 C -0.00279 0.51999 0.48555 0.0
H381 H 0.03305 0.5818 0.33976 0.0
H382 H 0.03256 0.56743 0.40417 0.0
H383 H -0.01229 0.52301 0.42636 0.0
H384 H -0.01374 0.48713 0.62041 0.0
H385 H -0.01513 0.50356 0.56388 0.0
H386 H 0.02834 0.54911 0.54006 0.0
C387 C 0.02158 0.56538 0.3911 0.0
C388 C -0.00354 0.5289 0.45133 0.0
C389 C 0.02184 0.57355 0.35387 0.0
C390 C -0.00297 0.49622 0.60594 0.0
C391 C -0.00379 0.50558 0.57333 0.0
C392 C 0.01945 0.54328 0.51538 0.0
C393 C 0.00736 0.55433 0.41025 0.0
C394 C 0.0073 0.54508 0.4485 0.0
C395 C 0.00983 0.51746 0.55339 0.0
C396 C 0.00881 0.52705 0.51774 0.0
H397 H -0.0173 0.55779 0.34005 0.0
H398 H -0.01778 0.54348 0.40576 0.0
H399 H 0.02706 0.56468 0.48038 0.0
H400 H 0.03649 0.51249 0.60962 0.0
H401 H 0.03506 0.52887 0.55224 0.0
C402 C 0.53903 0.57576 0.57194 0.0
C403 C 0.54988 0.57267 0.59162 0.0
C404 C 0.53057 0.5674 0.53535 0.0
C405 C 0.52998 0.54195 0.44812 0.0
H406 H 0.48552 0.52577 0.44571 0.0
C407 C 0.48708 0.49241 0.3333 0.0
C408 C 0.4751 0.4939 0.31435 0.0
C409 C 0.49681 0.50289 0.36515 0.0
C410 C 0.49795 0.53035 0.44558 0.0
H411 H 0.56066 0.55873 0.58759 0.0
H412 H 0.54593 0.54422 0.52461 0.0
H413 H 0.50157 0.54316 0.50358 0.0
H414 H 0.46413 0.50774 0.31346 0.0
H415 H 0.48107 0.52595 0.36841 0.0
H416 H 0.52629 0.52892 0.39042 0.0
C417 C 0.544 0.55314 0.53688 0.0
C418 C 0.50717 0.54037 0.47871 0.0
C419 C 0.55239 0.56141 0.5733 0.0
C420 C 0.47319 0.50618 0.32752 0.0
C421 C 0.48285 0.51659 0.35926 0.0
C422 C 0.52076 0.5319 0.41502 0.0
C423 C 0.53286 0.55588 0.51768 0.0
C424 C 0.52328 0.54619 0.48062 0.0
C425 C 0.4947 0.51503 0.37872 0.0
C426 C 0.50462 0.5259 0.4135 0.0
H427 H 0.53685 0.58436 0.58528 0.0
H428 H 0.52218 0.56991 0.52104 0.0
H429 H 0.54239 0.5464 0.44825 0.0
H430 H 0.48884 0.48307 0.32388 0.0
H431 H 0.50576 0.50129 0.37979 0.0
C432 C 0.66082 0.82121 0.18323 0.0
C433 C 0.67508 0.82405 0.16708 0.0
C434 C 0.66061 0.83048 0.21636 0.0
C435 C 0.68544 0.85826 0.30222 0.0
H436 H 0.65672 0.87308 0.2918 0.0
C437 C 0.68996 0.90646 0.41306 0.0
C438 C 0.67583 0.90377 0.4298 0.0
C439 C 0.68993 0.89703 0.3801 0.0
C440 C 0.66474 0.86895 0.2954 0.0
H441 H 0.70027 0.83855 0.17388 0.0
H442 H 0.69987 0.8546 0.23099 0.0
H443 H 0.65598 0.85511 0.23831 0.0
H444 H 0.6506 0.88934 0.42415 0.0
H445 H 0.65059 0.87298 0.36715 0.0
H446 H 0.69422 0.87212 0.35924 0.0
C447 C 0.68884 0.8452 0.21856 0.0
C448 C 0.66426 0.85859 0.26481 0.0
C449 C 0.68906 0.83602 0.18553 0.0
C450 C 0.66172 0.89176 0.41202 0.0
C451 C 0.66169 0.8824 0.3791 0.0
C452 C 0.68592 0.86863 0.33277 0.0
C453 C 0.67464 0.84269 0.23412 0.0
C454 C 0.67464 0.85314 0.26777 0.0
C455 C 0.67578 0.88477 0.36307 0.0
C456 C 0.67559 0.87412 0.32974 0.0
H457 H 0.64986 0.81209 0.16967 0.0
H458 H 0.64946 0.82811 0.22798 0.0
H459 H 0.69346 0.85413 0.30585 0.0
H460 H 0.70102 0.91561 0.42609 0.0
H461 H 0.701 0.89929 0.36807 0.0
C462 C 0.14471 0.8185 0.41182 0.0
C463 C 0.13345 0.82104 0.4298 0.0
C464 C 0.15328 0.82711 0.37595 0.0
C465 C 0.15445 0.85175 0.28442 0.0
H466 H 0.19881 0.86716 0.28861 0.0
C467 C 0.19808 0.89691 0.16132 0.0
C468 C 0.21035 0.89517 0.14731 0.0
C469 C 0.18815 0.88736 0.19422 0.0
C470 C 0.18642 0.86277 0.28658 0.0
H471 H 0.12202 0.83433 0.42327 0.0
H472 H 0.13718 0.84958 0.36016 0.0
H473 H 0.18235 0.85177 0.3488 0.0
H474 H 0.22163 0.88182 0.15638 0.0
H475 H 0.20415 0.86498 0.21374 0.0
H476 H 0.15858 0.8628 0.2221 0.0
C477 C 0.13927 0.8408 0.37399 0.0
C478 C 0.17697 0.85397 0.32117 0.0
C479 C 0.13062 0.83211 0.41014 0.0
C480 C 0.21232 0.88348 0.16655 0.0
C481 C 0.20236 0.8739 0.19957 0.0
C482 C 0.16392 0.86055 0.24971 0.0
C483 C 0.15089 0.83856 0.35702 0.0
C484 C 0.16087 0.84829 0.32046 0.0
C485 C 0.19022 0.87581 0.21399 0.0
C486 C 0.18002 0.86614 0.25035 0.0
H487 H 0.14709 0.80994 0.4258 0.0
H488 H 0.16187 0.82483 0.36313 0.0
H489 H 0.14207 0.8474 0.28269 0.0
H490 H 0.19623 0.90581 0.14726 0.0
H491 H 0.17908 0.88931 0.20487 0.0
C492 C 0.21688 0.37703 0.41047 0.0
C493 C 0.21431 0.36271 0.42716 0.0
C494 C 0.20876 0.37744 0.37404 0.0
C495 C 0.18609 0.35489 0.27918 0.0
H496 H 0.16977 0.38251 0.2822 0.0
C497 C 0.1419 0.35245 0.15324 0.0
C498 C 0.14337 0.36661 0.13927 0.0
C499 C 0.15126 0.35221 0.18668 0.0
C500 C 0.17444 0.37491 0.28052 0.0
H501 H 0.20142 0.33759 0.41808 0.0
H502 H 0.18706 0.33828 0.35414 0.0
H503 H 0.18445 0.38122 0.34381 0.0
H504 H 0.15607 0.39171 0.14891 0.0
H505 H 0.1726 0.39134 0.20728 0.0
H506 H 0.176 0.34855 0.21586 0.0
C507 C 0.19548 0.34921 0.36929 0.0
C508 C 0.18283 0.37414 0.3159 0.0
C509 C 0.20365 0.34879 0.40596 0.0
C510 C 0.15463 0.38061 0.15904 0.0
C511 C 0.16402 0.38037 0.19262 0.0
C512 C 0.1777 0.35568 0.24371 0.0
C513 C 0.19783 0.36355 0.35329 0.0
C514 C 0.18876 0.36413 0.31566 0.0
C515 C 0.16235 0.36614 0.20703 0.0
C516 C 0.17176 0.36569 0.244 0.0
H517 H 0.2251 0.388 0.42578 0.0
H518 H 0.21107 0.38869 0.36208 0.0
H519 H 0.19068 0.34722 0.27777 0.0
H520 H 0.13333 0.34144 0.13874 0.0
H521 H 0.14951 0.34104 0.19731 0.0
C522 C 0.1433 0.37508 0.90031 0.0
C523 C 0.13147 0.36105 0.9192 0.0
C524 C 0.15152 0.37486 0.86477 0.0
C525 C 0.16264 0.34973 0.81047 0.0
H526 H 0.17634 0.38153 0.72023 0.0
C527 C 0.19634 0.3498 0.66125 0.0
C528 C 0.20918 0.36427 0.64785 0.0
C529 C 0.18619 0.3491 0.69271 0.0
C530 C 0.17273 0.37267 0.74539 0.0
H531 H 0.11871 0.33575 0.91476 0.0
H532 H 0.13305 0.33533 0.85198 0.0
H533 H 0.15902 0.38033 0.7765 0.0
H534 H 0.22136 0.38938 0.65688 0.0
H535 H 0.20359 0.38817 0.71215 0.0
H536 H 0.17641 0.34213 0.77941 0.0
C537 C 0.13606 0.34652 0.86521 0.0
C538 C 0.16277 0.37195 0.77762 0.0
C539 C 0.12777 0.34675 0.90095 0.0
C540 C 0.21157 0.37806 0.66648 0.0
C541 C 0.20135 0.37736 0.69795 0.0
C542 C 0.17256 0.35043 0.77815 0.0
C543 C 0.14815 0.3606 0.84699 0.0
C544 C 0.15773 0.36057 0.81083 0.0
C545 C 0.18858 0.36286 0.71153 0.0
C546 C 0.17782 0.36198 0.74544 0.0
H547 H 0.14648 0.38632 0.91353 0.0
H548 H 0.16089 0.38591 0.8521 0.0
H549 H 0.15921 0.34099 0.8359 0.0
H550 H 0.19411 0.33894 0.64749 0.0
H551 H 0.17637 0.33777 0.70199 0.0
C552 C 0.6934 0.84137 0.924 0.0
C553 C 0.67972 0.83077 0.94628 0.0
C554 C 0.69276 0.84986 0.88838 0.0
C555 C 0.66801 0.863 0.8362 0.0
H556 H 0.69089 0.86616 0.73306 0.0
C557 C 0.65904 0.88715 0.67421 0.0
C558 C 0.67263 0.89745 0.65115 0.0
C559 C 0.65974 0.87874 0.70996 0.0
C560 C 0.68454 0.86551 0.76175 0.0
H561 H 0.6547 0.82097 0.94916 0.0
H562 H 0.65362 0.83566 0.88729 0.0
H563 H 0.69303 0.85281 0.79709 0.0
H564 H 0.69756 0.90688 0.64717 0.0
H565 H 0.69877 0.89241 0.70939 0.0
H566 H 0.65953 0.87571 0.80092 0.0
C567 C 0.66485 0.83754 0.89738 0.0
C568 C 0.68581 0.8579 0.79846 0.0
C569 C 0.66547 0.82904 0.93273 0.0
C570 C 0.68685 0.89901 0.66416 0.0
C571 C 0.68755 0.89064 0.69973 0.0
C572 C 0.66675 0.87063 0.79951 0.0
C573 C 0.67845 0.84797 0.8746 0.0
C574 C 0.67754 0.85654 0.83608 0.0
C575 C 0.67403 0.88047 0.72322 0.0
C576 C 0.67501 0.87197 0.76185 0.0
H577 H 0.70454 0.84295 0.93369 0.0
H578 H 0.70347 0.85794 0.87171 0.0
H579 H 0.66164 0.86231 0.86488 0.0
H580 H 0.64792 0.88569 0.66492 0.0
H581 H 0.64908 0.87086 0.72711 0.0
C582 C 0.20541 0.90963 0.90717 0.0
C583 C 0.21665 0.90692 0.92585 0.0
C584 C 0.19701 0.90138 0.87038 0.0
C585 C 0.19729 0.87717 0.78092 0.0
H586 H 0.15246 0.85878 0.78104 0.0
C587 C 0.15552 0.82673 0.66719 0.0
C588 C 0.14293 0.82735 0.64914 0.0
C589 C 0.16507 0.83747 0.69876 0.0
C590 C 0.16499 0.86398 0.7802 0.0
H591 H 0.22822 0.89379 0.91981 0.0
H592 H 0.21364 0.87948 0.85648 0.0
H593 H 0.1683 0.87642 0.83878 0.0
H594 H 0.13064 0.83992 0.6496 0.0
H595 H 0.14727 0.85859 0.70408 0.0
H596 H 0.19394 0.86451 0.7227 0.0
C597 C 0.21133 0.88802 0.8697 0.0
C598 C 0.17408 0.87414 0.81325 0.0
C599 C 0.21963 0.89617 0.90633 0.0
C600 C 0.1402 0.83903 0.66296 0.0
C601 C 0.14968 0.84971 0.69442 0.0
C602 C 0.18821 0.86699 0.74791 0.0
C603 C 0.1998 0.89036 0.8515 0.0
C604 C 0.19032 0.88072 0.81429 0.0
C605 C 0.16217 0.84902 0.71293 0.0
C606 C 0.17193 0.86016 0.74737 0.0
H607 H 0.20286 0.91785 0.92147 0.0
H608 H 0.18829 0.90355 0.85686 0.0
H609 H 0.20981 0.88222 0.7804 0.0
H610 H 0.15792 0.81786 0.65726 0.0
H611 H 0.17452 0.83653 0.71269 0.0
C612 C 0.3266 0.21742 0.77104 0.0
C613 C 0.34109 0.23 0.78501 0.0
C614 C 0.32581 0.2071 0.73997 0.0
C615 C 0.34887 0.19267 0.68907 0.0
H616 H 0.31818 0.18022 0.59681 0.0
C617 C 0.3522 0.16422 0.53348 0.0
C618 C 0.33836 0.15263 0.51353 0.0
C619 C 0.35174 0.17215 0.5694 0.0
C620 C 0.32663 0.18335 0.62275 0.0
H621 H 0.36613 0.24153 0.77742 0.0
H622 H 0.36477 0.22348 0.72278 0.0
H623 H 0.31927 0.19742 0.65333 0.0
H624 H 0.31311 0.13997 0.51648 0.0
H625 H 0.31227 0.15384 0.5799 0.0
H626 H 0.35632 0.17871 0.65832 0.0
C627 C 0.35401 0.22156 0.73627 0.0
C628 C 0.3273 0.19326 0.65509 0.0
C629 C 0.3548 0.23195 0.76737 0.0
C630 C 0.32397 0.14884 0.53113 0.0
C631 C 0.32351 0.15686 0.56723 0.0
C632 C 0.34818 0.18273 0.65681 0.0
C633 C 0.33949 0.20905 0.72208 0.0
C634 C 0.33853 0.19817 0.68838 0.0
C635 C 0.33741 0.16873 0.58649 0.0
C636 C 0.33718 0.17811 0.62293 0.0
H637 H 0.31579 0.21553 0.78405 0.0
H638 H 0.31445 0.19748 0.73023 0.0
H639 H 0.35747 0.196 0.71469 0.0
H640 H 0.3635 0.16744 0.52082 0.0
H641 H 0.36267 0.18135 0.5829 0.0
C642 C 0.80735 0.1527 0.7332 0.0
C643 C 0.79648 0.15561 0.75213 0.0
C644 C 0.81533 0.16076 0.696 0.0
C645 C 0.82822 0.19749 0.63618 0.0
H646 H 0.83891 0.17743 0.5487 0.0
C647 C 0.86279 0.23066 0.48415 0.0
C648 C 0.87495 0.22848 0.47187 0.0
C649 C 0.85217 0.22113 0.5158 0.0
C650 C 0.83613 0.18321 0.57304 0.0
H651 H 0.78512 0.16897 0.74603 0.0
H652 H 0.79906 0.18308 0.68033 0.0
H653 H 0.82142 0.16172 0.60717 0.0
H654 H 0.88533 0.21437 0.48279 0.0
H655 H 0.86675 0.19768 0.5385 0.0
H656 H 0.84303 0.21899 0.60224 0.0
C657 C 0.80149 0.17463 0.6948 0.0
C658 C 0.82608 0.17422 0.6065 0.0
C659 C 0.79344 0.16649 0.73221 0.0
C660 C 0.87609 0.21634 0.49151 0.0
C661 C 0.8654 0.20674 0.52325 0.0
C662 C 0.83823 0.20647 0.60264 0.0
C663 C 0.81266 0.17196 0.67657 0.0
C664 C 0.82216 0.18128 0.6388 0.0
C665 C 0.85342 0.20915 0.53602 0.0
C666 C 0.84242 0.19946 0.57092 0.0
H667 H 0.80998 0.14439 0.74763 0.0
H668 H 0.82399 0.15856 0.68334 0.0
H669 H 0.82567 0.20335 0.66085 0.0
H670 H 0.8615 0.23985 0.46953 0.0
H671 H 0.84294 0.22314 0.52437 0.0
C672 C 0.86559 0.67958 0.75575 0.0
C673 C 0.87603 0.69318 0.77853 0.0
C674 C 0.8575 0.68045 0.71961 0.0
C675 C 0.85898 0.7084 0.63698 0.0
H676 H 0.81526 0.67704 0.6201 0.0
C677 C 0.82018 0.71407 0.50566 0.0
C678 C 0.80951 0.7003 0.48389 0.0
C679 C 0.82872 0.71347 0.5411 0.0
C680 C 0.82752 0.68581 0.62408 0.0
H681 H 0.88602 0.71831 0.78162 0.0
H682 H 0.87183 0.71977 0.71915 0.0
H683 H 0.82915 0.67517 0.68293 0.0
H684 H 0.79977 0.6752 0.48136 0.0
H685 H 0.81473 0.67422 0.54242 0.0
H686 H 0.85733 0.71904 0.57807 0.0
C687 C 0.87005 0.70848 0.72867 0.0
C688 C 0.83547 0.68472 0.66009 0.0
C689 C 0.8781 0.70761 0.7647 0.0
C690 C 0.80781 0.68602 0.49762 0.0
C691 C 0.81631 0.68543 0.53285 0.0
C692 C 0.85102 0.70949 0.60092 0.0
C693 C 0.85972 0.69494 0.70554 0.0
C694 C 0.8513 0.69599 0.66696 0.0
C695 C 0.82672 0.69909 0.55538 0.0
C696 C 0.83521 0.69818 0.594 0.0
H697 H 0.86378 0.66831 0.76553 0.0
H698 H 0.84971 0.66982 0.70223 0.0
H699 H 0.87124 0.71717 0.64104 0.0
H700 H 0.82172 0.72524 0.49587 0.0
H701 H 0.83659 0.7242 0.55797 0.0
C702 C 0.79827 0.68053 0.24838 0.0
C703 C 0.80116 0.69488 0.26423 0.0
C704 C 0.80751 0.68023 0.21535 0.0
C705 C 0.84651 0.70495 0.16658 0.0
H706 H 0.82918 0.6756 0.07226 0.0
C707 C 0.88297 0.70908 0.01797 0.0
C708 C 0.88015 0.69493 0.00074 0.0
C709 C 0.87348 0.709 0.05079 0.0
C710 C 0.83425 0.68376 0.09867 0.0
H711 H 0.81557 0.72014 0.25657 0.0
H712 H 0.83141 0.71958 0.19908 0.0
H713 H 0.81189 0.67524 0.12734 0.0
H714 H 0.86548 0.66961 0.00546 0.0
H715 H 0.84921 0.66949 0.06287 0.0
H716 H 0.86886 0.71346 0.13809 0.0
C717 C 0.82228 0.70856 0.21261 0.0
C718 C 0.82431 0.68354 0.13023 0.0
C719 C 0.81309 0.70886 0.24542 0.0
C720 C 0.86793 0.68074 0.01779 0.0
C721 C 0.8585 0.68066 0.05053 0.0
C722 C 0.85644 0.70515 0.1351 0.0
C723 C 0.81981 0.69427 0.19766 0.0
C724 C 0.83032 0.69418 0.16445 0.0
C725 C 0.86099 0.69478 0.06707 0.0
C726 C 0.85044 0.69458 0.10069 0.0
H727 H 0.78919 0.66956 0.26228 0.0
H728 H 0.80534 0.66901 0.20463 0.0
H729 H 0.85156 0.71314 0.19294 0.0
H730 H 0.89224 0.7202 0.00539 0.0
H731 H 0.87566 0.7201 0.06257 0.0
C732 C 0.35656 0.17689 0.2741 0.0
C733 C 0.34293 0.16471 0.29329 0.0
C734 C 0.35561 0.18615 0.24112 0.0
C735 C 0.32827 0.18539 0.15845 0.0
H736 H 0.35784 0.23011 0.1513 0.0
C737 C 0.3239 0.22465 0.02592 0.0
C738 C 0.33804 0.2354 0.00578 0.0
C739 C 0.32387 0.21659 0.06347 0.0
C740 C 0.34954 0.21761 0.15273 0.0
H741 H 0.31764 0.15294 0.29367 0.0
H742 H 0.31605 0.16912 0.23678 0.0
H743 H 0.35932 0.215 0.21197 0.0
H744 H 0.36322 0.24632 0.00968 0.0
H745 H 0.36312 0.23227 0.07445 0.0
H746 H 0.31862 0.18795 0.09895 0.0
C747 C 0.32744 0.17139 0.24656 0.0
C748 C 0.35042 0.20896 0.18744 0.0
C749 C 0.32838 0.16217 0.27939 0.0
C750 C 0.35211 0.23812 0.02434 0.0
C751 C 0.35207 0.23014 0.06175 0.0
C752 C 0.32739 0.19404 0.12375 0.0
C753 C 0.34102 0.18339 0.22672 0.0
C754 C 0.33987 0.19272 0.19052 0.0
C755 C 0.33797 0.2192 0.08165 0.0
C756 C 0.33812 0.21022 0.12024 0.0
H757 H 0.36792 0.17912 0.28407 0.0
H758 H 0.36629 0.19522 0.22621 0.0
H759 H 0.32009 0.17286 0.15952 0.0
H760 H 0.31289 0.22233 0.0124 0.0
H761 H 0.31281 0.20831 0.07828 0.0
C762 C 0.88665 0.23021 0.23369 0.0
C763 C 0.88441 0.24161 0.25225 0.0
C764 C 0.87852 0.22243 0.19646 0.0
C765 C 0.84255 0.21122 0.13581 0.0
H766 H 0.86177 0.19947 0.04856 0.0
C767 C 0.80907 0.17773 -0.01665 0.0
C768 C 0.81064 0.16517 -0.02907 0.0
C769 C 0.81879 0.18812 0.01505 0.0
C770 C 0.85621 0.20255 0.07283 0.0
H771 H 0.87216 0.25408 0.24554 0.0
H772 H 0.85792 0.24047 0.17986 0.0
H773 H 0.87765 0.21644 0.1075 0.0
H774 H 0.82386 0.15383 -0.01843 0.0
H775 H 0.84086 0.172 0.03741 0.0
H776 H 0.82109 0.19721 0.10142 0.0
C777 C 0.86591 0.23748 0.1946 0.0
C778 C 0.86531 0.2123 0.10656 0.0
C779 C 0.87411 0.24535 0.23202 0.0
C780 C 0.82238 0.16341 -0.0096 0.0
C781 C 0.83215 0.17385 0.02222 0.0
C782 C 0.83347 0.2015 0.10204 0.0
C783 C 0.86792 0.22582 0.17667 0.0
C784 C 0.85855 0.21661 0.13875 0.0
C785 C 0.83034 0.18623 0.03521 0.0
C786 C 0.84016 0.19693 0.07036 0.0
H787 H 0.8945 0.22703 0.24839 0.0
H788 H 0.88021 0.21337 0.184 0.0
H789 H 0.83691 0.21408 0.1604 0.0
H790 H 0.80021 0.17951 -0.03116 0.0
H791 H 0.81725 0.19767 0.02376 0.0
C792 C 0.04519 0.64569 0.29727 0.0
C793 C 0.05179 0.64666 0.25675 0.0
C794 C 0.05272 0.65785 0.32679 0.0
C795 C 0.08216 0.70008 0.33442 0.0
H796 H 0.07932 0.69036 0.457 0.0
C797 C 0.09459 0.74605 0.46305 0.0
C798 C 0.10187 0.74593 0.50215 0.0
C799 C 0.09 0.73417 0.43298 0.0
C800 C 0.08042 0.69333 0.42292 0.0
H801 H 0.07163 0.66127 0.21569 0.0
H802 H 0.08493 0.68253 0.2676 0.0
H803 H 0.06904 0.66926 0.40493 0.0
H804 H 0.11014 0.73321 0.53999 0.0
H805 H 0.10229 0.71249 0.48711 0.0
H806 H 0.09373 0.72417 0.35241 0.0
C807 C 0.07379 0.67236 0.27625 0.0
C808 C 0.07433 0.68119 0.39299 0.0
C809 C 0.0662 0.66015 0.24654 0.0
C810 C 0.1045 0.73362 0.51031 0.0
C811 C 0.09995 0.72172 0.48003 0.0
C812 C 0.08831 0.71223 0.36435 0.0
C813 C 0.06713 0.67135 0.3168 0.0
C814 C 0.07485 0.68438 0.34837 0.0
C815 C 0.09262 0.72184 0.44096 0.0
C816 C 0.08727 0.709 0.40904 0.0
H817 H 0.03408 0.63553 0.30628 0.0
H818 H 0.04707 0.65676 0.35724 0.0
H819 H 0.08271 0.703 0.30039 0.0
H820 H 0.09229 0.75529 0.45565 0.0
H821 H 0.08411 0.73452 0.40375 0.0
C822 C 0.38602 0.44216 0.27941 0.0
C823 C 0.39929 0.44511 0.3033 0.0
C824 C 0.37231 0.43869 0.30072 0.0
C825 C 0.35768 0.44281 0.40516 0.0
H826 H 0.31973 0.40375 0.37781 0.0
C827 C 0.30645 0.41199 0.52472 0.0
C828 C 0.29117 0.40299 0.50838 0.0
C829 C 0.31921 0.41882 0.49673 0.0
C830 C 0.3301 0.41487 0.38545 0.0
H831 H 0.40881 0.4474 0.36806 0.0
H832 H 0.38519 0.4417 0.40476 0.0
H833 H 0.34266 0.41313 0.33263 0.0
H834 H 0.27728 0.39474 0.44963 0.0
H835 H 0.29941 0.407 0.40096 0.0
H836 H 0.34527 0.44461 0.45802 0.0
C837 C 0.38525 0.44192 0.36977 0.0
C838 C 0.34325 0.42022 0.35947 0.0
C839 C 0.39875 0.44506 0.34866 0.0
C840 C 0.28892 0.40146 0.46337 0.0
C841 C 0.30164 0.40842 0.4354 0.0
C842 C 0.34449 0.43757 0.43086 0.0
C843 C 0.37182 0.43852 0.34617 0.0
C844 C 0.35727 0.43406 0.36966 0.0
C845 C 0.31699 0.41697 0.45166 0.0
C846 C 0.33061 0.42333 0.42198 0.0
H847 H 0.38611 0.44211 0.24444 0.0
H848 H 0.3621 0.43612 0.28177 0.0
H849 H 0.36831 0.45362 0.4135 0.0
H850 H 0.30859 0.41333 0.55922 0.0
H851 H 0.33083 0.42512 0.51062 0.0
C852 C 0.6247 0.94421 0.5257 0.0
C853 C 0.63384 0.93867 0.50882 0.0
C854 C 0.61691 0.94918 0.49802 0.0
C855 C 0.60149 0.94551 0.38757 0.0
H856 H 0.60773 -0.01338 0.40608 0.0
C857 C 0.58502 -0.02303 0.25804 0.0
C858 C 0.58022 -0.01287 0.27162 0.0
C859 C 0.59023 0.97005 0.28813 0.0
C860 C 0.60557 -0.02502 0.40076 0.0
H861 H 0.64158 0.9336 0.44966 0.0
H862 H 0.62779 0.94204 0.40157 0.0
H863 H 0.61885 -0.02385 0.457 0.0
H864 H 0.57645 -0.00259 0.32761 0.0
H865 H 0.58491 -0.0151 0.38009 0.0
H866 H 0.58805 0.94417 0.3317 0.0
C867 C 0.62672 0.94259 0.43615 0.0
C868 C 0.61201 0.96902 0.42997 0.0
C869 C 0.63469 0.93785 0.46374 0.0
C870 C 0.58023 -0.01023 0.31604 0.0
C871 C 0.58521 -0.01733 0.34615 0.0
C872 C 0.59485 0.95137 0.35864 0.0
C873 C 0.61788 0.94846 0.45297 0.0
C874 C 0.61019 0.95431 0.42342 0.0
C875 C 0.59056 0.97293 0.33261 0.0
C876 C 0.59694 0.96627 0.36455 0.0
H877 H 0.62382 0.945 0.56026 0.0
H878 H 0.6101 0.95358 0.51184 0.0
H879 H 0.59977 0.93406 0.38199 0.0
H880 H 0.58526 -0.02521 0.22402 0.0
H881 H 0.59445 0.96282 0.27627 0.0
C882 C 0.62895 0.04687 0.13631 0.0
C883 C 0.62057 0.05323 0.15321 0.0
C884 C 0.64359 0.05653 0.11812 0.0
C885 C 0.66721 0.09314 0.06036 0.0
H886 H 0.70068 0.08581 0.08846 0.0
C887 C 0.72115 0.11098 0.95091 0.0
C888 C 0.73532 0.11562 -0.02758 0.0
C889 C 0.7075 0.10605 -0.02533 0.0
C890 C 0.69155 0.08818 0.08047 0.0
H891 H 0.62095 0.07471 0.16476 0.0
H892 H 0.64678 0.09183 0.13189 0.0
H893 H 0.67667 0.07242 0.1297 0.0
H894 H 0.74661 0.12015 0.03532 0.0
H895 H 0.72311 0.11192 0.07621 0.0
H896 H 0.6821 0.10867 0.01024 0.0
C897 C 0.64193 0.07929 0.13323 0.0
C898 C 0.67777 0.08043 0.10401 0.0
C899 C 0.62728 0.06956 0.15237 0.0
C900 C 0.7358 0.1163 0.01775 0.0
C901 C 0.72232 0.11156 0.04127 0.0
C902 C 0.68104 0.10085 0.0364 0.0
C903 C 0.65015 0.07281 0.11571 0.0
C904 C 0.66537 0.08264 0.09391 0.0
C905 C 0.7079 0.10583 0.0202 0.0
C906 C 0.69333 0.09835 0.04606 0.0
H907 H 0.62402 0.03432 0.13644 0.0
H908 H 0.64958 0.05119 0.10461 0.0
H909 H 0.65775 0.09492 0.05167 0.0
H910 H 0.72045 0.11038 0.91599 0.0
H911 H 0.69654 0.10168 0.9575 0.0
C912 C 0.9215 0.64425 0.90434 0.0
C913 C 0.91685 0.65396 0.92243 0.0
C914 C 0.9282 0.63766 0.93028 0.0
C915 C 0.93347 0.62775 0.0421 0.0
H916 H -0.02741 0.63471 -0.00134 0.0
C917 C -0.02365 0.61677 0.14472 0.0
C918 C -0.01493 0.61186 0.12223 0.0
C919 C -0.03345 0.62064 0.12208 0.0
C920 C -0.03845 0.63237 0.01109 0.0
H921 H 0.91483 0.66365 -0.01761 0.0
H922 H 0.92641 0.652 0.02761 0.0
H923 H -0.04226 0.64304 0.95565 0.0
H924 H -0.01053 0.60595 0.05922 0.0
H925 H -0.02796 0.61194 0.02034 0.0
H926 H 0.93726 0.6169 0.0975 0.0
C927 C 0.92492 0.64956 -0.00664 0.0
C928 C 0.95305 0.6372 -0.01364 0.0
C929 C 0.91837 0.6563 -0.03264 0.0
C930 C -0.01686 0.61002 0.07732 0.0
C931 C -0.0268 0.61357 0.05496 0.0
C932 C 0.94191 0.6227 0.06678 0.0
C933 C 0.93024 0.64048 -0.02508 0.0
C934 C 0.9389 0.63491 0.00144 0.0
C935 C -0.03484 0.61943 0.07671 0.0
C936 C -0.04396 0.62488 0.05142 0.0
H937 H 0.92047 0.64216 0.86992 0.0
H938 H 0.93204 0.63056 0.91527 0.0
H939 H 0.92257 0.62584 0.0545 0.0
H940 H -0.02235 0.61828 0.17938 0.0
H941 H -0.03944 0.62514 0.13993 0.0
C942 C 0.37413 0.31059 -0.03105 0.0
C943 C 0.38049 0.31171 0.92795 0.0
C944 C 0.38164 0.32281 -0.0017 0.0
C945 C 0.40307 0.34658 0.06377 0.0
H946 H 0.42199 0.38941 0.02233 0.0
C947 C 0.43321 0.3994 0.17996 0.0
C948 C 0.43079 0.41182 0.1712 0.0
C949 C 0.42848 0.38732 0.15013 0.0
C950 C 0.41667 0.37752 0.03454 0.0
H951 H 0.39992 0.32661 0.88594 0.0
H952 H 0.41323 0.34793 0.93763 0.0
H953 H 0.41101 0.36813 -0.02921 0.0
H954 H 0.4213 0.42113 0.12431 0.0
H955 H 0.41276 0.40005 0.07327 0.0
H956 H 0.40808 0.35591 0.12759 0.0
C957 C 0.40225 0.33763 0.94676 0.0
C958 C 0.41057 0.36529 0.00485 0.0
C959 C 0.39466 0.32538 0.91716 0.0
C960 C 0.42346 0.41182 0.13211 0.0
C961 C 0.41866 0.39975 0.10253 0.0
C962 C 0.40909 0.35879 0.09346 0.0
C963 C 0.39581 0.33651 -0.01227 0.0
C964 C 0.40346 0.34963 0.01908 0.0
C965 C 0.42115 0.38736 0.11096 0.0
C966 C 0.41576 0.37442 0.07929 0.0
H967 H 0.36319 0.30029 -0.02161 0.0
H968 H 0.37611 0.32161 0.02905 0.0
H969 H 0.39795 0.3347 0.07596 0.0
H970 H 0.43889 0.39906 0.20965 0.0
H971 H 0.43074 0.37806 0.15758 0.0
C972 C 0.9308 0.31818 0.44327 0.0
C973 C 0.92575 0.30427 0.467 0.0
C974 C 0.93563 0.33225 0.46469 0.0
C975 C 0.95022 0.35003 0.57259 0.0
H976 H 0.94571 0.38357 0.52499 0.0
C977 C -0.02518 0.40884 0.66101 0.0
C978 C -0.01575 0.42198 0.63478 0.0
C979 C -0.0349 0.39411 0.64236 0.0
C980 C 0.94702 0.37427 0.53872 0.0
H981 H 0.92067 0.29394 0.53134 0.0
H982 H 0.92845 0.31814 0.56825 0.0
H983 H 0.93356 0.35848 0.48794 0.0
H984 H -0.00981 0.43019 0.56847 0.0
H985 H -0.0267 0.40473 0.5363 0.0
H986 H -0.0362 0.36585 0.62306 0.0
C987 C 0.92936 0.31846 0.53341 0.0
C988 C 0.94014 0.35993 0.51735 0.0
C989 C 0.9248 0.30454 0.51217 0.0
C990 C -0.01682 0.42026 0.58965 0.0
C991 C -0.02663 0.40568 0.57111 0.0
C992 C -0.04303 0.36429 0.59407 0.0
C993 C 0.93528 0.33261 0.51018 0.0
C994 C 0.94182 0.34767 0.53373 0.0
C995 C -0.03552 0.39237 0.59719 0.0
C996 C -0.04435 0.37666 0.57707 0.0
H997 H 0.93168 0.3183 0.40843 0.0
H998 H 0.9402 0.34293 0.4457 0.0
H999 H 0.95207 0.34102 0.58584 0.0
H1000 H -0.0246 0.40981 0.69586 0.0
H1001 H -0.04172 0.38405 0.66326 0.0
C1002 C 0.62437 0.6087 0.63283 0.0
C1003 C 0.6256 0.60633 0.67733 0.0
C1004 C 0.63747 0.61499 0.60626 0.0
C1005 C 0.67986 0.64055 0.6115 0.0
H1006 H 0.67942 0.62531 0.49687 0.0
C1007 C 0.73599 0.66822 0.51419 0.0
C1008 C 0.73526 0.67111 0.46996 0.0
C1009 C 0.72244 0.65853 0.53744 0.0
C1010 C 0.67969 0.62981 0.5286 0.0
H1011 H 0.64153 0.60833 0.72847 0.0
H1012 H 0.66444 0.61945 0.68209 0.0
H1013 H 0.65604 0.61165 0.54173 0.0
H1014 H 0.71986 0.66564 0.41476 0.0
H1015 H 0.69586 0.64896 0.45584 0.0
H1016 H 0.70317 0.65896 0.59843 0.0
C1017 C 0.65331 0.61647 0.66788 0.0
C1018 C 0.66632 0.62195 0.55435 0.0
C1019 C 0.64017 0.61004 0.6944 0.0
C1020 C 0.72071 0.66353 0.44883 0.0
C1021 C 0.707 0.65398 0.47243 0.0
C1022 C 0.69312 0.64847 0.58574 0.0
C1023 C 0.65214 0.61919 0.62361 0.0
C1024 C 0.66631 0.6272 0.5962 0.0
C1025 C 0.7077 0.65174 0.51735 0.0
C1026 C 0.6933 0.64317 0.54407 0.0
H1027 H 0.61331 0.60591 0.61852 0.0
H1028 H 0.63621 0.61704 0.57239 0.0
H1029 H 0.68012 0.64511 0.64316 0.0
H1030 H 0.7471 0.67374 0.53115 0.0
H1031 H 0.72354 0.65668 0.57154 0.0
C1032 C 0.39942 0.12852 0.42949 0.0
C1033 C 0.38434 0.12538 0.43824 0.0
C1034 C 0.40703 0.12377 0.45867 0.0
C1035 C 0.40567 0.11043 0.57267 0.0
H1036 H 0.42891 0.0927 0.52795 0.0
C1037 C 0.43646 0.08789 0.686 0.0
C1038 C 0.43533 0.07382 0.67422 0.0
C1039 C 0.43176 0.09566 0.65723 0.0
C1040 C 0.4224 0.09755 0.54102 0.0
H1041 H 0.36548 0.11476 0.48463 0.0
H1042 H 0.37852 0.10626 0.53462 0.0
H1043 H 0.41763 0.1033 0.47804 0.0
H1044 H 0.42834 0.05692 0.62278 0.0
H1045 H 0.41988 0.0702 0.57336 0.0
H1046 H 0.40982 0.10404 0.63552 0.0
C1047 C 0.38467 0.11267 0.50581 0.0
C1048 C 0.4161 0.10383 0.51237 0.0
C1049 C 0.37711 0.11746 0.47685 0.0
C1050 C 0.42946 0.06777 0.63296 0.0
C1051 C 0.42471 0.07547 0.60437 0.0
C1052 C 0.4119 0.10408 0.60131 0.0
C1053 C 0.39972 0.11574 0.49717 0.0
C1054 C 0.40746 0.11015 0.52777 0.0
C1055 C 0.42576 0.08951 0.61608 0.0
C1056 C 0.42015 0.09734 0.58584 0.0
H1057 H 0.40535 0.13465 0.40015 0.0
H1058 H 0.41868 0.12649 0.45117 0.0
H1059 H 0.39931 0.11544 0.58579 0.0
H1060 H 0.441 0.09292 0.71744 0.0
H1061 H 0.43292 0.10654 0.66717 0.0
C1062 C 0.28975 0.94057 0.96037 0.0
C1063 C 0.29181 0.93892 0.00477 0.0
C1064 C 0.3023 0.94633 0.93195 0.0
C1065 C 0.34331 0.95532 0.92347 0.0
H1066 H 0.34609 -0.01596 0.83311 0.0
C1067 C 0.40081 0.00248 0.84653 0.0
C1068 C 0.40141 0.00505 0.80165 0.0
C1069 C 0.3868 -0.00817 0.8666 0.0
C1070 C 0.34535 -0.02417 0.85766 0.0
H1071 H 0.30869 0.94187 0.05401 0.0
H1072 H 0.3307 0.9524 0.00484 0.0
H1073 H 0.32293 0.97072 0.87814 0.0
H1074 H 0.38787 -0.00177 0.74233 0.0
H1075 H 0.363 -0.02028 0.77791 0.0
H1076 H 0.36617 0.96119 0.9042 0.0
C1077 C 0.3193 0.94888 -0.00839 0.0
C1078 C 0.33205 0.96815 0.88357 0.0
C1079 C 0.30668 0.94292 0.01997 0.0
C1080 C 0.38772 -0.00359 0.77695 0.0
C1081 C 0.37353 -0.01408 0.79729 0.0
C1082 C 0.35667 0.96315 0.89791 0.0
C1083 C 0.31732 0.9508 0.94721 0.0
C1084 C 0.33095 0.95799 0.91737 0.0
C1085 C 0.37295 -0.01635 0.84241 0.0
C1086 C 0.35794 -0.02631 0.86523 0.0
H1087 H 0.27841 0.93745 0.94747 0.0
H1088 H 0.3002 0.94731 0.89796 0.0
H1089 H 0.34278 0.94733 0.94839 0.0
H1090 H 0.4112 0.00891 0.86639 0.0
H1091 H 0.38671 -0.00954 0.9014 0.0
C1092 C 0.06124 0.45232 0.74697 0.0
C1093 C 0.05198 0.45803 0.76165 0.0
C1094 C 0.06826 0.44699 0.77645 0.0
C1095 C 0.06485 0.43326 0.89084 0.0
H1096 H 0.10443 0.43684 0.86785 0.0
C1097 C 0.09611 0.41489 0.01586 0.0
C1098 C 0.1008 0.40491 -5e-05 0.0
C1099 C 0.09116 0.42253 -0.01255 0.0
C1100 C 0.09335 0.43574 0.87462 0.0
H1101 H 0.04349 0.46338 0.81876 0.0
H1102 H 0.05616 0.45477 0.86991 0.0
H1103 H 0.09418 0.44831 0.81701 0.0
H1104 H 0.10442 0.39553 0.94165 0.0
H1105 H 0.09601 0.40904 0.89228 0.0
H1106 H 0.06419 0.42088 0.94875 0.0
C1107 C 0.05757 0.45378 0.83575 0.0
C1108 C 0.08741 0.44224 0.84537 0.0
C1109 C 0.05038 0.45885 0.80636 0.0
C1110 C 0.10082 0.40308 0.95502 0.0
C1111 C 0.0961 0.41089 0.92666 0.0
C1112 C 0.0709 0.42697 0.92029 0.0
C1113 C 0.06635 0.44747 0.8213 0.0
C1114 C 0.07302 0.441 0.85292 0.0
C1115 C 0.09105 0.42055 0.94256 0.0
C1116 C 0.08514 0.42803 0.91235 0.0
H1117 H 0.06263 0.45147 0.7127 0.0
H1118 H 0.07477 0.44207 0.76396 0.0
H1119 H 0.05358 0.43172 0.89746 0.0
H1120 H 0.09596 0.41654 0.05028 0.0
H1121 H 0.08741 0.42999 0.00056 0.0
C1122 C 0.58947 0.63765 0.84734 0.0
C1123 C 0.59112 0.6373 0.80248 0.0
C1124 C 0.59416 0.6517 0.86805 0.0
C1125 C 0.60714 0.69376 0.85011 0.0
H1126 H 0.62886 0.69867 0.95895 0.0
C1127 C 0.65135 0.75354 0.92338 0.0
C1128 C 0.65174 0.75544 -0.03162 0.0
C1129 C 0.64136 0.73901 0.90475 0.0
C1130 C 0.62258 0.69741 0.92903 0.0
H1131 H 0.59837 0.6513 0.74377 0.0
H1132 H 0.60711 0.67613 0.78015 0.0
H1133 H 0.61652 0.6737 0.92227 0.0
H1134 H 0.64152 0.74364 0.02903 0.0
H1135 H 0.62408 0.71797 -0.00369 0.0
H1136 H 0.61391 0.71781 0.85634 0.0
C1137 C 0.60189 0.66544 0.79931 0.0
C1138 C 0.61547 0.68306 0.90787 0.0
C1139 C 0.59692 0.65124 0.77837 0.0
C1140 C 0.64149 0.74253 -0.00571 0.0
C1141 C 0.63158 0.72785 -0.02441 0.0
C1142 C 0.61439 0.70818 0.87117 0.0
C1143 C 0.60092 0.66589 0.84463 0.0
C1144 C 0.60776 0.68105 0.86791 0.0
C1145 C 0.63157 0.72593 0.93062 0.0
C1146 C 0.62234 0.71021 0.91063 0.0
H1147 H 0.58479 0.62703 0.8667 0.0
H1148 H 0.59275 0.65145 0.90271 0.0
H1149 H 0.60112 0.6926 0.8198 0.0
H1150 H 0.659 0.76327 0.90239 0.0
H1151 H 0.64177 0.73791 0.87014 0.0
C1152 C 0.70937 -0.01305 0.60969 0.0
C1153 C 0.70454 0.97229 0.6287 0.0
C1154 C 0.71899 0.00072 0.6329 0.0
C1155 C 0.72838 0.01303 0.74703 0.0
H1156 H 0.75899 0.05335 0.69814 0.0
C1157 C 0.76407 0.06735 0.85394 0.0
C1158 C 0.76524 0.08126 0.83886 0.0
C1159 C 0.7583 0.05436 0.82695 0.0
C1160 C 0.75041 0.04216 0.7122 0.0
H1161 H 0.70679 0.96042 0.68494 0.0
H1162 H 0.72406 -0.01574 0.72437 0.0
H1163 H 0.74652 0.03022 0.6522 0.0
H1164 H 0.76161 0.09251 0.78305 0.0
H1165 H 0.75154 0.0699 0.73632 0.0
H1166 H 0.73213 0.02489 0.80682 0.0
C1167 C 0.72007 -0.01471 0.69248 0.0
C1168 C 0.74325 0.02892 0.68585 0.0
C1169 C 0.71033 0.97162 0.6697 0.0
C1170 C 0.76083 0.08198 0.79588 0.0
C1171 C 0.75516 0.06904 0.76888 0.0
C1172 C 0.73557 0.0262 0.77331 0.0
C1173 C 0.72399 -1e-05 0.67526 0.0
C1174 C 0.73212 0.01417 0.70295 0.0
C1175 C 0.75366 0.05502 0.78418 0.0
C1176 C 0.74663 0.04094 0.75626 0.0
H1177 H 0.70488 -0.01229 0.57829 0.0
H1178 H 0.72173 0.01183 0.61861 0.0
H1179 H 0.71957 0.00198 0.76122 0.0
H1180 H 0.76741 0.06641 0.88677 0.0
H1181 H 0.75744 0.04378 0.83959 0.0
C1182 C 0.05566 0.77571 0.61484 0.0
C1183 C 0.06717 0.77419 0.63688 0.0
C1184 C 0.04164 0.7716 0.63534 0.0
C1185 C 0.02374 0.76501 0.74353 0.0
H1186 H -0.01509 0.73753 0.68352 0.0
C1187 C -0.03541 0.72743 0.8313 0.0
C1188 C 0.95088 0.72331 0.80817 0.0
C1189 C -0.02083 0.73642 0.81132 0.0
C1190 C -0.00441 0.74548 0.70064 0.0
H1191 H 0.07297 0.76736 0.69809 0.0
H1192 H 0.04874 0.76028 0.73328 0.0
H1193 H 0.00948 0.74809 0.64571 0.0
H1194 H 0.94153 0.72627 0.74773 0.0
H1195 H -0.03317 0.74261 0.71379 0.0
H1196 H 0.00989 0.76231 0.79863 0.0
C1197 C 0.05053 0.76472 0.70038 0.0
C1198 C 0.00971 0.7515 0.67883 0.0
C1199 C 0.06439 0.76866 0.67992 0.0
C1200 C 0.95199 0.72926 0.76613 0.0
C1201 C -0.03352 0.73845 0.74652 0.0
C1202 C 0.0096 0.75909 0.7653 0.0
C1203 C 0.03896 0.76609 0.67841 0.0
C1204 C 0.02395 0.76111 0.70021 0.0
C1205 C -0.01976 0.7416 0.7681 0.0
C1206 C -0.00467 0.74904 0.74434 0.0
H1207 H 0.05743 0.77996 0.58175 0.0
H1208 H 0.03293 0.77281 0.61762 0.0
H1209 H 0.03455 0.77255 0.76075 0.0
H1210 H -0.03601 0.7228 0.86357 0.0
H1211 H -0.01053 0.7385 0.82897 0.0
C1212 C 0.26552 0.33129 0.60522 0.0
C1213 C 0.25393 0.33313 0.62361 0.0
C1214 C 0.27027 0.32185 0.62575 0.0
C1215 C 0.26975 0.30535 0.73528 0.0
H1216 H 0.28973 0.28706 0.67461 0.0
C1217 C 0.31031 0.28855 0.82281 0.0
C1218 C 0.31234 0.27696 0.80508 0.0
C1219 C 0.30083 0.29311 0.80174 0.0
C1220 C 0.28393 0.29178 0.69234 0.0
H1221 H 0.23751 0.32599 0.67596 0.0
H1222 H 0.2449 0.30863 0.7102 0.0
H1223 H 0.27669 0.29788 0.63381 0.0
H1224 H 0.30561 0.26043 0.75321 0.0
H1225 H 0.28822 0.2675 0.71795 0.0
H1226 H 0.2764 0.29865 0.79382 0.0
C1227 C 0.2509 0.31492 0.68113 0.0
C1228 C 0.27666 0.2983 0.6687 0.0
C1229 C 0.24646 0.32466 0.6612 0.0
C1230 C 0.30415 0.2694 0.7674 0.0
C1231 C 0.29437 0.27365 0.74692 0.0
C1232 C 0.27673 0.29853 0.75892 0.0
C1233 C 0.26331 0.31385 0.66472 0.0
C1234 C 0.26973 0.30548 0.68976 0.0
C1235 C 0.29297 0.28595 0.76292 0.0
C1236 C 0.28422 0.29192 0.73785 0.0
H1237 H 0.27161 0.33797 0.57663 0.0
H1238 H 0.27999 0.32157 0.61221 0.0
H1239 H 0.2648 0.31093 0.75301 0.0
H1240 H 0.31676 0.2947 0.85151 0.0
H1241 H 0.30032 0.30278 0.81492 0.0
C1242 C -0.02692 0.27477 0.35604 0.0
C1243 C -0.04121 0.2721 0.33948 0.0
C1244 C -0.01383 0.28086 0.3294 0.0
C1245 C -0.0011 0.28713 0.21524 0.0
H1246 H 0.03702 0.3222 0.2613 0.0
C1247 C 0.05317 0.32888 0.10995 0.0
C1248 C 0.06786 0.33565 0.13019 0.0
C1249 C 0.03956 0.3192 0.13374 0.0
C1250 C 0.02659 0.31224 0.24802 0.0
H1251 H 0.94693 0.27317 0.28143 0.0
H1252 H -0.03029 0.28372 0.23519 0.0
H1253 H 0.01407 0.30869 0.3065 0.0
H1254 H 0.08 0.3367 0.18967 0.0
H1255 H 0.05654 0.31937 0.23027 0.0
H1256 H 0.0115 0.29074 0.1566 0.0
C1257 C -0.0292 0.2811 0.2687 0.0
C1258 C 0.0134 0.3045 0.27406 0.0
C1259 C -0.04223 0.27516 0.29536 0.0
C1260 C 0.06878 0.33177 0.17346 0.0
C1261 C 0.0553 0.32195 0.19686 0.0
C1262 C 0.01219 0.29482 0.18917 0.0
C1263 C -0.01478 0.28426 0.28553 0.0
C1264 C -0.00062 0.29189 0.25802 0.0
C1265 C 0.04047 0.31602 0.17793 0.0
C1266 C 0.02623 0.30748 0.20526 0.0
H1267 H -0.02574 0.27252 0.38981 0.0
H1268 H -0.00291 0.28302 0.34321 0.0
H1269 H -0.01173 0.27739 0.20203 0.0
H1270 H 0.05218 0.33178 0.07667 0.0
H1271 H 0.02834 0.31487 0.11806 0.0
C1272 C 0.77028 0.75306 0.34602 0.0
C1273 C 0.76818 0.73844 0.33588 0.0
C1274 C 0.7656 0.76075 0.31688 0.0
C1275 C 0.74602 0.7697 0.2615 0.0
H1276 H 0.7491 0.76586 0.13821 0.0
C1277 C 0.7115 0.78386 0.13801 0.0
C1278 C 0.71824 0.79054 0.09782 0.0
C1279 C 0.71889 0.77892 0.16708 0.0
C1280 C 0.74833 0.76726 0.17249 0.0
H1281 H 0.7594 0.72041 0.28709 0.0
H1282 H 0.75094 0.73354 0.23711 0.0
H1283 H 0.7601 0.75511 0.18845 0.0
H1284 H 0.73823 0.79748 0.05708 0.0
H1285 H 0.75132 0.78911 0.10825 0.0
H1286 H 0.73453 0.78213 0.24553 0.0
C1287 C 0.75654 0.73931 0.26702 0.0
C1288 C 0.75445 0.76088 0.2014 0.0
C1289 C 0.7613 0.7317 0.29595 0.0
C1290 C 0.73268 0.79232 0.08765 0.0
C1291 C 0.74014 0.78744 0.11693 0.0
C1292 C 0.73999 0.77617 0.23259 0.0
C1293 C 0.75862 0.75394 0.27702 0.0
C1294 C 0.75315 0.76178 0.2463 0.0
C1295 C 0.7333 0.78061 0.15698 0.0
C1296 C 0.74082 0.7748 0.18769 0.0
H1297 H 0.77561 0.75862 0.3764 0.0
H1298 H 0.76756 0.77208 0.32548 0.0
H1299 H 0.74469 0.77054 0.29579 0.0
H1300 H 0.70035 0.78222 0.14691 0.0
H1301 H 0.71309 0.77344 0.19715 0.0
C1302 C 0.25859 -0.01703 0.11443 0.0
C1303 C 0.26137 0.97204 0.1353 0.0
C1304 C 0.2628 -0.00286 0.13451 0.0
C1305 C 0.27416 0.01671 0.24199 0.0
H1306 H 0.29661 0.05497 0.17423 0.0
C1307 C 0.30513 0.0783 0.32043 0.0
C1308 C 0.32013 0.0889 0.30443 0.0
C1309 C 0.29527 0.06414 0.29912 0.0
C1310 C 0.29036 0.04439 0.19367 0.0
H1311 H 0.27063 0.96746 0.19395 0.0
H1312 H 0.27808 -0.00809 0.22796 0.0
H1313 H 0.2841 0.02979 0.13819 0.0
H1314 H 0.33653 0.09274 0.25376 0.0
H1315 H 0.31967 0.06824 0.21775 0.0
H1316 H 0.28122 0.03127 0.29771 0.0
C1317 C 0.27241 -0.01044 0.19661 0.0
C1318 C 0.283 0.02994 0.17288 0.0
C1319 C 0.26826 -0.02447 0.17671 0.0
C1320 C 0.32503 0.08496 0.26698 0.0
C1321 C 0.31526 0.07092 0.24591 0.0
C1322 C 0.28159 0.03116 0.2628 0.0
C1323 C 0.26978 0.00059 0.1759 0.0
C1324 C 0.27525 0.0159 0.19692 0.0
C1325 C 0.30022 0.06034 0.26143 0.0
C1326 C 0.29023 0.04516 0.23903 0.0
H1327 H 0.25326 -0.01936 0.08262 0.0
H1328 H 0.26057 0.00538 0.1177 0.0
H1329 H 0.26799 0.00612 0.26144 0.0
H1330 H 0.30097 0.08099 0.34907 0.0
H1331 H 0.28373 0.05627 0.31191 0.0
loop_
_geom_bond_atom_site_label_1
_geom_bond_atom_site_label_2
_geom_bond_distance
_geom_bond_site_symmetry_2
_ccdc_geom_bond_type
C0 O1 1.306 . S
C0 O3 1.160 . S
O1 C0 1.306 . S
O1 Cd2 2.228 . S
Cd2 O1 2.228 . S
Cd2 O6 2.273 . S
Cd2 O10 2.277 . S
O3 C0 1.160 . S
O3 Cd4 2.203 . S
Cd4 O3 2.203 . S
Cd4 O6 2.411 . S
Cd4 O7 2.333 . S
Cd4 O8 2.352 . S
Cd4 O12 2.277 . S
Cd4 O13 2.356 . S
C5 O10 1.209 . S
C5 O12 1.226 . S
O6 Cd2 2.273 . S
O6 Cd4 2.411 . S
O6 C9 1.320 . S
O7 Cd4 2.333 . S
O7 C9 1.214 . S
O8 Cd4 2.352 . S
O8 C11 1.258 . S
C9 O6 1.320 . S
C9 O7 1.214 . S
O10 Cd2 2.277 . S
O10 C5 1.209 . S
C11 O8 1.258 . S
C11 O13 1.282 . S
O12 Cd4 2.277 . S
O12 C5 1.226 . S
O13 Cd4 2.356 . S
O13 C11 1.282 . S
C14 O15 1.306 . S
C14 O17 1.160 . S
O15 C14 1.306 . S
O15 Cd16 2.228 . S
Cd16 O15 2.228 . S
Cd16 O20 2.273 . S
Cd16 O24 2.277 . S
O17 C14 1.160 . S
O17 Cd18 2.203 . S
Cd18 O17 2.203 . S
Cd18 O20 2.411 . S
Cd18 O21 2.333 . S
Cd18 O22 2.352 . S
Cd18 O26 2.277 . S
Cd18 O27 2.356 . S
C19 O24 1.209 . S
C19 O26 1.226 . S
O20 Cd16 2.273 . S
O20 Cd18 2.411 . S
O20 C23 1.320 . S
O21 Cd18 2.333 . S
O21 C23 1.214 . S
O22 Cd18 2.352 . S
O22 C25 1.258 . S
C23 O20 1.320 . S
C23 O21 1.214 . S
O24 Cd16 2.277 . S
O24 C19 1.209 . S
C25 O22 1.258 . S
C25 O27 1.282 . S
O26 Cd18 2.277 . S
O26 C19 1.226 . S
O27 Cd18 2.356 . S
O27 C25 1.282 . S
C28 O29 1.306 . S
C28 O31 1.160 . S
O29 C28 1.306 . S
O29 Cd30 2.228 . S
Cd30 O29 2.228 . S
Cd30 O34 2.273 . S
Cd30 O38 2.277 . S
O31 C28 1.160 . S
O31 Cd32 2.203 . S
Cd32 O31 2.203 . S
Cd32 O34 2.411 . S
Cd32 O35 2.333 . S
Cd32 O36 2.352 . S
Cd32 O40 2.277 . S
Cd32 O41 2.356 . S
C33 O38 1.209 . S
C33 O40 1.226 . S
O34 Cd30 2.273 . S
O34 Cd32 2.411 . S
O34 C37 1.320 . S
O35 Cd32 2.333 . S
O35 C37 1.214 . S
O36 Cd32 2.352 . S
O36 C39 1.258 . S
C37 O34 1.320 . S
C37 O35 1.214 . S
O38 Cd30 2.277 . S
O38 C33 1.209 . S
C39 O36 1.258 . S
C39 O41 1.282 . S
O40 Cd32 2.277 . S
O40 C33 1.226 . S
O41 Cd32 2.356 . S
O41 C39 1.282 . S
C42 O43 1.306 . S
C42 O45 1.160 . S
O43 C42 1.306 . S
O43 Cd44 2.228 . S
Cd44 O43 2.228 . S
Cd44 O48 2.273 . S
Cd44 O52 2.277 . S
O45 C42 1.160 . S
O45 Cd46 2.203 . S
Cd46 O45 2.203 . S
Cd46 O48 2.411 . S
Cd46 O49 2.333 . S
Cd46 O50 2.352 . S
Cd46 O54 2.277 . S
Cd46 O55 2.356 . S
C47 O52 1.209 . S
C47 O54 1.226 . S
O48 Cd44 2.273 . S
O48 Cd46 2.411 . S
O48 C51 1.320 . S
O49 Cd46 2.333 . S
O49 C51 1.214 . S
O50 Cd46 2.352 . S
O50 C53 1.258 . S
C51 O48 1.320 . S
C51 O49 1.214 . S
O52 Cd44 2.277 . S
O52 C47 1.209 . S
C53 O50 1.258 . S
C53 O55 1.282 . S
O54 Cd46 2.277 . S
O54 C47 1.226 . S
O55 Cd46 2.356 . S
O55 C53 1.282 . S
C56 O57 1.306 . S
C56 O59 1.160 . S
O57 C56 1.306 . S
O57 Cd58 2.228 . S
Cd58 O57 2.228 . S
Cd58 O62 2.273 . S
Cd58 O66 2.277 . S
O59 C56 1.160 . S
O59 Cd60 2.203 . S
Cd60 O59 2.203 . S
Cd60 O62 2.411 . S
Cd60 O63 2.333 . S
Cd60 O64 2.352 . S
Cd60 O68 2.277 . S
Cd60 O69 2.356 . S
C61 O66 1.209 . S
C61 O68 1.226 . S
O62 Cd58 2.273 . S
O62 Cd60 2.411 . S
O62 C65 1.320 . S
O63 Cd60 2.333 . S
O63 C65 1.214 . S
O64 Cd60 2.352 . S
O64 C67 1.258 . S
C65 O62 1.320 . S
C65 O63 1.214 . S
O66 Cd58 2.277 . S
O66 C61 1.209 . S
C67 O64 1.258 . S
C67 O69 1.282 . S
O68 Cd60 2.277 . S
O68 C61 1.226 . S
O69 Cd60 2.356 . S
O69 C67 1.282 . S
C70 O71 1.306 . S
C70 O73 1.160 . S
O71 C70 1.306 . S
O71 Cd72 2.228 . S
Cd72 O71 2.228 . S
Cd72 O76 2.273 . S
Cd72 O80 2.277 . S
O73 C70 1.160 . S
O73 Cd74 2.203 . S
Cd74 O73 2.203 . S
Cd74 O76 2.411 . S
Cd74 O77 2.333 . S
Cd74 O78 2.352 . S
Cd74 O82 2.277 . S
Cd74 O83 2.356 . S
C75 O80 1.209 . S
C75 O82 1.226 . S
O76 Cd72 2.273 . S
O76 Cd74 2.411 . S
O76 C79 1.320 . S
O77 Cd74 2.333 . S
O77 C79 1.214 . S
O78 Cd74 2.352 . S
O78 C81 1.258 . S
C79 O76 1.320 . S
C79 O77 1.214 . S
O80 Cd72 2.277 . S
O80 C75 1.209 . S
C81 O78 1.258 . S
C81 O83 1.282 . S
O82 Cd74 2.277 . S
O82 C75 1.226 . S
O83 Cd74 2.356 . S
O83 C81 1.282 . S
C84 O85 1.306 . S
C84 O87 1.160 . S
O85 C84 1.306 . S
O85 Cd86 2.228 . S
Cd86 O85 2.228 . S
Cd86 O90 2.273 . S
Cd86 O94 2.277 . S
O87 C84 1.160 . S
O87 Cd88 2.203 . S
Cd88 O87 2.203 . S
Cd88 O90 2.411 . S
Cd88 O91 2.333 . S
Cd88 O92 2.352 . S
Cd88 O96 2.277 . S
Cd88 O97 2.356 . S
C89 O94 1.209 . S
C89 O96 1.226 . S
O90 Cd86 2.273 . S
O90 Cd88 2.411 . S
O90 C93 1.320 . S
O91 Cd88 2.333 . S
O91 C93 1.214 . S
O92 Cd88 2.352 . S
O92 C95 1.258 . S
C93 O90 1.320 . S
C93 O91 1.214 . S
O94 Cd86 2.277 . S
O94 C89 1.209 . S
C95 O92 1.258 . S
C95 O97 1.282 . S
O96 Cd88 2.277 . S
O96 C89 1.226 . S
O97 Cd88 2.356 . S
O97 C95 1.282 . S
C98 O99 1.306 . S
C98 O101 1.160 . S
O99 C98 1.306 . S
O99 Cd100 2.228 . S
Cd100 O99 2.228 . S
Cd100 O104 2.273 . S
Cd100 O108 2.277 . S
O101 C98 1.160 . S
O101 Cd102 2.203 . S
Cd102 O101 2.203 . S
Cd102 O104 2.411 . S
Cd102 O105 2.333 . S
Cd102 O106 2.352 . S
Cd102 O110 2.277 . S
Cd102 O111 2.356 . S
C103 O108 1.209 . S
C103 O110 1.226 . S
O104 Cd100 2.273 . S
O104 Cd102 2.411 . S
O104 C107 1.320 . S
O105 Cd102 2.333 . S
O105 C107 1.214 . S
O106 Cd102 2.352 . S
O106 C109 1.258 . S
C107 O104 1.320 . S
C107 O105 1.214 . S
O108 Cd100 2.277 . S
O108 C103 1.209 . S
C109 O106 1.258 . S
C109 O111 1.282 . S
O110 Cd102 2.277 . S
O110 C103 1.226 . S
O111 Cd102 2.356 . S
O111 C109 1.282 . S
C112 O113 1.306 . S
C112 O115 1.160 . S
O113 C112 1.306 . S
O113 Cd114 2.228 . S
Cd114 O113 2.228 . S
Cd114 O118 2.273 . S
Cd114 O122 2.277 . S
O115 C112 1.160 . S
O115 Cd116 2.203 . S
Cd116 O115 2.203 . S
Cd116 O118 2.411 . S
Cd116 O119 2.333 . S
Cd116 O120 2.352 . S
Cd116 O124 2.277 . S
Cd116 O125 2.356 . S
C117 O122 1.209 . S
C117 O124 1.226 . S
O118 Cd114 2.273 . S
O118 Cd116 2.411 . S
O118 C121 1.320 . S
O119 Cd116 2.333 . S
O119 C121 1.214 . S
O120 Cd116 2.352 . S
O120 C123 1.258 . S
C121 O118 1.320 . S
C121 O119 1.214 . S
O122 Cd114 2.277 . S
O122 C117 1.209 . S
C123 O120 1.258 . S
C123 O125 1.282 . S
O124 Cd116 2.277 . S
O124 C117 1.226 . S
O125 Cd116 2.356 . S
O125 C123 1.282 . S
C126 O127 1.306 . S
C126 O129 1.160 . S
O127 C126 1.306 . S
O127 Cd128 2.228 . S
Cd128 O127 2.228 . S
Cd128 O132 2.273 . S
Cd128 O136 2.277 . S
O129 C126 1.160 . S
O129 Cd130 2.203 . S
Cd130 O129 2.203 . S
Cd130 O132 2.411 . S
Cd130 O133 2.333 . S
Cd130 O134 2.352 . S
Cd130 O138 2.277 . S
Cd130 O139 2.356 . S
C131 O136 1.209 . S
C131 O138 1.226 . S
O132 Cd128 2.273 . S
O132 Cd130 2.411 . S
O132 C135 1.320 . S
O133 Cd130 2.333 . S
O133 C135 1.214 . S
O134 Cd130 2.352 . S
O134 C137 1.258 . S
C135 O132 1.320 . S
C135 O133 1.214 . S
O136 Cd128 2.277 . S
O136 C131 1.209 . S
C137 O134 1.258 . S
C137 O139 1.282 . S
O138 Cd130 2.277 . S
O138 C131 1.226 . S
O139 Cd130 2.356 . S
O139 C137 1.282 . S
C140 O141 1.306 . S
C140 O143 1.160 . S
O141 C140 1.306 . S
O141 Cd142 2.228 . S
Cd142 O141 2.228 . S
Cd142 O146 2.273 . S
Cd142 O150 2.277 . S
O143 C140 1.160 . S
O143 Cd144 2.203 . S
Cd144 O143 2.203 . S
Cd144 O146 2.411 . S
Cd144 O147 2.333 . S
Cd144 O148 2.352 . S
Cd144 O152 2.277 . S
Cd144 O153 2.356 . S
C145 O150 1.209 . S
C145 O152 1.226 . S
O146 Cd142 2.273 . S
O146 Cd144 2.411 . S
O146 C149 1.320 . S
O147 Cd144 2.333 . S
O147 C149 1.214 . S
O148 Cd144 2.352 . S
O148 C151 1.258 . S
C149 O146 1.320 . S
C149 O147 1.214 . S
O150 Cd142 2.277 . S
O150 C145 1.209 . S
C151 O148 1.258 . S
C151 O153 1.282 . S
O152 Cd144 2.277 . S
O152 C145 1.226 . S
O153 Cd144 2.356 . S
O153 C151 1.282 . S
C154 O155 1.306 . S
C154 O157 1.160 . S
O155 C154 1.306 . S
O155 Cd156 2.228 . S
Cd156 O155 2.228 . S
Cd156 O160 2.273 . S
Cd156 O164 2.277 . S
O157 C154 1.160 . S
O157 Cd158 2.203 . S
Cd158 O157 2.203 . S
Cd158 O160 2.411 . S
Cd158 O161 2.333 . S
Cd158 O162 2.352 . S
Cd158 O166 2.277 . S
Cd158 O167 2.356 . S
C159 O164 1.209 . S
C159 O166 1.226 . S
O160 Cd156 2.273 . S
O160 Cd158 2.411 . S
O160 C163 1.320 . S
O161 Cd158 2.333 . S
O161 C163 1.214 . S
O162 Cd158 2.352 . S
O162 C165 1.257 1_554 S
C163 O160 1.320 . S
C163 O161 1.214 . S
O164 Cd156 2.277 . S
O164 C159 1.209 . S
C165 O162 1.257 1_556 S
C165 O167 1.281 1_556 S
O166 Cd158 2.277 . S
O166 C159 1.226 . S
O167 Cd158 2.356 . S
O167 C165 1.281 1_554 S
C168 O169 1.306 . S
C168 O171 1.160 . S
O169 C168 1.306 . S
O169 Cd170 2.228 . S
Cd170 O169 2.228 . S
Cd170 O174 2.273 . S
Cd170 O178 2.277 . S
O171 C168 1.160 . S
O171 Cd172 2.203 . S
Cd172 O171 2.203 . S
Cd172 O174 2.411 . S
Cd172 O175 2.333 . S
Cd172 O176 2.352 . S
Cd172 O180 2.277 . S
Cd172 O181 2.356 . S
C173 O178 1.209 . S
C173 O180 1.226 . S
O174 Cd170 2.273 . S
O174 Cd172 2.411 . S
O174 C177 1.320 . S
O175 Cd172 2.333 . S
O175 C177 1.214 . S
O176 Cd172 2.352 . S
O176 C179 1.258 1_556 S
C177 O174 1.320 . S
C177 O175 1.214 . S
O178 Cd170 2.277 . S
O178 C173 1.209 . S
C179 O176 1.258 1_554 S
C179 O181 1.282 1_554 S
O180 Cd172 2.277 . S
O180 C173 1.226 . S
O181 Cd172 2.356 . S
O181 C179 1.282 1_556 S
C182 O183 1.306 . S
C182 O185 1.160 . S
O183 C182 1.306 . S
O183 Cd184 2.228 . S
Cd184 O183 2.228 . S
Cd184 O188 2.273 . S
Cd184 O192 2.277 . S
O185 C182 1.160 . S
O185 Cd186 2.203 . S
Cd186 O185 2.203 . S
Cd186 O188 2.411 . S
Cd186 O189 2.333 . S
Cd186 O190 2.352 . S
Cd186 O194 2.277 . S
Cd186 O195 2.356 . S
C187 O192 1.209 . S
C187 O194 1.226 . S
O188 Cd184 2.273 . S
O188 Cd186 2.411 . S
O188 C191 1.320 . S
O189 Cd186 2.333 . S
O189 C191 1.214 . S
O190 Cd186 2.352 . S
O190 C193 1.258 . S
C191 O188 1.320 . S
C191 O189 1.214 . S
O192 Cd184 2.277 . S
O192 C187 1.209 . S
C193 O190 1.258 . S
C193 O195 1.282 . S
O194 Cd186 2.277 . S
O194 C187 1.226 . S
O195 Cd186 2.356 . S
O195 C193 1.282 . S
C196 O197 1.306 . S
C196 O199 1.160 . S
O197 C196 1.306 . S
O197 Cd198 2.228 . S
Cd198 O197 2.228 . S
Cd198 O202 2.273 . S
Cd198 O206 2.277 . S
O199 C196 1.160 . S
O199 Cd200 2.203 . S
Cd200 O199 2.203 . S
Cd200 O202 2.411 . S
Cd200 O203 2.333 . S
Cd200 O204 2.352 . S
Cd200 O208 2.277 . S
Cd200 O209 2.356 . S
C201 O206 1.209 . S
C201 O208 1.226 . S
O202 Cd198 2.273 . S
O202 Cd200 2.411 . S
O202 C205 1.320 . S
O203 Cd200 2.333 . S
O203 C205 1.214 . S
O204 Cd200 2.352 . S
O204 C207 1.258 . S
C205 O202 1.320 . S
C205 O203 1.214 . S
O206 Cd198 2.277 . S
O206 C201 1.209 . S
C207 O204 1.258 . S
C207 O209 1.282 . S
O208 Cd200 2.277 . S
O208 C201 1.226 . S
O209 Cd200 2.356 . S
O209 C207 1.282 . S
C210 O211 1.306 . S
C210 O213 1.160 . S
O211 C210 1.306 . S
O211 Cd212 2.228 . S
Cd212 O211 2.228 . S
Cd212 O216 2.273 . S
Cd212 O220 2.277 . S
O213 C210 1.160 . S
O213 Cd214 2.203 . S
Cd214 O213 2.203 . S
Cd214 O216 2.411 . S
Cd214 O217 2.333 . S
Cd214 O218 2.352 . S
Cd214 O222 2.277 . S
Cd214 O223 2.356 . S
C215 O220 1.209 . S
C215 O222 1.226 . S
O216 Cd212 2.273 . S
O216 Cd214 2.411 . S
O216 C219 1.320 . S
O217 Cd214 2.333 . S
O217 C219 1.214 . S
O218 Cd214 2.352 . S
O218 C221 1.258 . S
C219 O216 1.320 . S
C219 O217 1.214 . S
O220 Cd212 2.277 . S
O220 C215 1.209 . S
C221 O218 1.258 . S
C221 O223 1.282 . S
O222 Cd214 2.277 . S
O222 C215 1.226 . S
O223 Cd214 2.356 . S
O223 C221 1.282 . S
C224 O225 1.306 . S
C224 O227 1.160 . S
O225 C224 1.306 . S
O225 Cd226 2.228 . S
Cd226 O225 2.228 . S
Cd226 O230 2.273 . S
Cd226 O234 2.277 . S
O227 C224 1.160 . S
O227 Cd228 2.203 . S
Cd228 O227 2.203 . S
Cd228 O230 2.411 . S
Cd228 O231 2.333 . S
Cd228 O232 2.352 . S
Cd228 O236 2.277 . S
Cd228 O237 2.356 . S
C229 O234 1.209 . S
C229 O236 1.226 . S
O230 Cd226 2.273 . S
O230 Cd228 2.411 . S
O230 C233 1.320 . S
O231 Cd228 2.333 . S
O231 C233 1.214 . S
O232 Cd228 2.352 . S
O232 C235 1.258 . S
C233 O230 1.320 . S
C233 O231 1.214 . S
O234 Cd226 2.277 . S
O234 C229 1.209 . S
C235 O232 1.258 . S
C235 O237 1.282 . S
O236 Cd228 2.277 . S
O236 C229 1.226 . S
O237 Cd228 2.356 . S
O237 C235 1.282 . S
C238 O239 1.306 . S
C238 O241 1.160 . S
O239 C238 1.306 . S
O239 Cd240 2.228 . S
Cd240 O239 2.228 . S
Cd240 O244 2.273 . S
Cd240 O248 2.277 . S
O241 C238 1.160 . S
O241 Cd242 2.203 . S
Cd242 O241 2.203 . S
Cd242 O244 2.411 . S
Cd242 O245 2.333 . S
Cd242 O246 2.352 . S
Cd242 O250 2.277 . S
Cd242 O251 2.356 . S
C243 O248 1.209 . S
C243 O250 1.226 . S
O244 Cd240 2.273 . S
O244 Cd242 2.411 . S
O244 C247 1.320 . S
O245 Cd242 2.333 . S
O245 C247 1.214 . S
O246 Cd242 2.352 . S
O246 C249 1.258 . S
C247 O244 1.320 . S
C247 O245 1.214 . S
O248 Cd240 2.277 . S
O248 C243 1.209 . S
C249 O246 1.258 . S
C249 O251 1.282 . S
O250 Cd242 2.277 . S
O250 C243 1.226 . S
O251 Cd242 2.356 . S
O251 C249 1.282 . S
C252 C253 1.349 . S
C252 C254 1.327 . S
C252 H277 0.950 . S
C253 C252 1.349 . S
C253 C269 1.349 . S
C254 C252 1.327 . S
C254 C273 1.429 . S
C254 H278 0.950 . S
C255 C272 1.574 . S
C255 C274 1.368 1_554 S
C255 H279 0.949 . S
H256 C260 0.949 . S
C257 C258 1.349 . S
C257 C259 1.327 . S
C257 H280 0.950 . S
C258 C257 1.349 . S
C258 C270 1.349 . S
C259 C257 1.327 . S
C259 C275 1.429 . S
C259 H281 0.950 . S
C260 H256 0.949 . S
C260 C268 1.575 . S
C260 C276 1.366 1_556 S
H261 C269 0.950 . S
H262 C267 0.950 . S
H263 C268 0.949 . S
H264 C270 0.950 . S
H265 C271 0.950 . S
H266 C272 0.949 . S
C267 H262 0.950 . S
C267 C269 1.327 . S
C267 C273 1.429 . S
C268 C260 1.575 . S
C268 H263 0.949 . S
C268 C274 1.368 . S
C269 C253 1.349 . S
C269 H261 0.950 . S
C269 C267 1.327 . S
C270 C258 1.349 . S
C270 H264 0.950 . S
C270 C271 1.327 . S
C271 H265 0.950 . S
C271 C270 1.327 . S
C271 C275 1.429 . S
C272 C255 1.574 . S
C272 H266 0.949 . S
C272 C276 1.368 . S
C273 C254 1.429 . S
C273 C267 1.429 . S
C273 C274 1.523 . S
C274 C255 1.368 1_556 S
C274 C268 1.368 . S
C274 C273 1.523 . S
C275 C259 1.429 . S
C275 C271 1.429 . S
C275 C276 1.523 . S
C276 C260 1.366 1_554 S
C276 C272 1.368 . S
C276 C275 1.523 . S
H277 C252 0.950 . S
H278 C254 0.950 . S
H279 C255 0.949 . S
H280 C257 0.950 . S
H281 C259 0.950 . S
C282 C283 1.349 . S
C282 C284 1.327 . S
C282 H307 0.950 . S
C283 C282 1.349 . S
C283 C299 1.349 . S
C284 C282 1.327 . S
C284 C303 1.429 . S
C284 H308 0.950 . S
C285 C302 1.574 1_556 S
C285 C304 1.368 . S
C285 H309 0.949 . S
H286 C290 0.949 . S
C287 C288 1.349 . S
C287 C289 1.327 . S
C287 H310 0.950 . S
C288 C287 1.349 . S
C288 C300 1.349 . S
C289 C287 1.327 . S
C289 C305 1.429 . S
C289 H311 0.950 . S
C290 H286 0.949 . S
C290 C298 1.574 1_554 S
C290 C306 1.368 . S
H291 C299 0.950 . S
H292 C297 0.950 . S
H293 C298 0.949 . S
H294 C300 0.950 . S
H295 C301 0.950 . S
H296 C302 0.949 . S
C297 H292 0.950 . S
C297 C299 1.327 . S
C297 C303 1.429 . S
C298 C290 1.574 1_556 S
C298 H293 0.949 . S
C298 C304 1.368 . S
C299 C283 1.349 . S
C299 H291 0.950 . S
C299 C297 1.327 . S
C300 C288 1.349 . S
C300 H294 0.950 . S
C300 C301 1.327 . S
C301 H295 0.950 . S
C301 C300 1.327 . S
C301 C305 1.429 . S
C302 C285 1.574 1_554 S
C302 H296 0.949 . S
C302 C306 1.368 . S
C303 C284 1.429 . S
C303 C297 1.429 . S
C303 C304 1.523 . S
C304 C285 1.368 . S
C304 C298 1.368 . S
C304 C303 1.523 . S
C305 C289 1.429 . S
C305 C301 1.429 . S
C305 C306 1.523 . S
C306 C290 1.368 . S
C306 C302 1.368 . S
C306 C305 1.523 . S
H307 C282 0.950 . S
H308 C284 0.950 . S
H309 C285 0.949 . S
H310 C287 0.950 . S
H311 C289 0.950 . S
C312 C313 1.349 . S
C312 C314 1.327 . S
C312 H337 0.950 . S
C313 C312 1.349 . S
C313 C329 1.349 . S
C314 C312 1.327 . S
C314 C333 1.429 . S
C314 H338 0.950 . S
C315 C332 1.574 1_554 S
C315 C334 1.368 . S
C315 H339 0.949 . S
H316 C320 0.949 . S
C317 C318 1.349 . S
C317 C319 1.327 . S
C317 H340 0.950 . S
C318 C317 1.349 . S
C318 C330 1.349 . S
C319 C317 1.327 . S
C319 C335 1.429 . S
C319 H341 0.950 . S
C320 H316 0.949 . S
C320 C328 1.574 1_556 S
C320 C336 1.368 . S
H321 C329 0.950 . S
H322 C327 0.950 . S
H323 C328 0.949 . S
H324 C330 0.950 . S
H325 C331 0.950 . S
H326 C332 0.949 . S
C327 H322 0.950 . S
C327 C329 1.327 . S
C327 C333 1.429 . S
C328 C320 1.574 1_554 S
C328 H323 0.949 . S
C328 C334 1.368 . S
C329 C313 1.349 . S
C329 H321 0.950 . S
C329 C327 1.327 . S
C330 C318 1.349 . S
C330 H324 0.950 . S
C330 C331 1.327 . S
C331 H325 0.950 . S
C331 C330 1.327 . S
C331 C335 1.429 . S
C332 C315 1.574 1_556 S
C332 H326 0.949 . S
C332 C336 1.368 . S
C333 C314 1.429 . S
C333 C327 1.429 . S
C333 C334 1.523 . S
C334 C315 1.368 . S
C334 C328 1.368 . S
C334 C333 1.523 . S
C335 C319 1.429 . S
C335 C331 1.429 . S
C335 C336 1.523 . S
C336 C320 1.368 . S
C336 C332 1.368 . S
C336 C335 1.523 . S
H337 C312 0.950 . S
H338 C314 0.950 . S
H339 C315 0.949 . S
H340 C317 0.950 . S
H341 C319 0.950 . S
C342 C343 1.349 . S
C342 C344 1.327 . S
C342 H367 0.950 . S
C343 C342 1.349 . S
C343 C359 1.349 . S
C344 C342 1.327 . S
C344 C363 1.429 . S
C344 H368 0.950 . S
C345 C362 1.574 . S
C345 C364 1.368 . S
C345 H369 0.949 . S
H346 C350 0.949 . S
C347 C348 1.349 . S
C347 C349 1.327 . S
C347 H370 0.950 . S
C348 C347 1.349 . S
C348 C360 1.349 . S
C349 C347 1.327 . S
C349 C365 1.429 . S
C349 H371 0.950 . S
C350 H346 0.949 . S
C350 C358 1.574 . S
C350 C366 1.368 . S
H351 C359 0.950 . S
H352 C357 0.950 . S
H353 C358 0.949 . S
H354 C360 0.950 . S
H355 C361 0.950 . S
H356 C362 0.949 . S
C357 H352 0.950 . S
C357 C359 1.327 . S
C357 C363 1.429 . S
C358 C350 1.574 . S
C358 H353 0.949 . S
C358 C364 1.368 . S
C359 C343 1.349 . S
C359 H351 0.950 . S
C359 C357 1.327 . S
C360 C348 1.349 . S
C360 H354 0.950 . S
C360 C361 1.327 . S
C361 H355 0.950 . S
C361 C360 1.327 . S
C361 C365 1.429 . S
C362 C345 1.574 . S
C362 H356 0.949 . S
C362 C366 1.368 . S
C363 C344 1.429 . S
C363 C357 1.429 . S
C363 C364 1.523 . S
C364 C345 1.368 . S
C364 C358 1.368 . S
C364 C363 1.523 . S
C365 C349 1.429 . S
C365 C361 1.429 . S
C365 C366 1.523 . S
C366 C350 1.368 . S
C366 C362 1.368 . S
C366 C365 1.523 . S
H367 C342 0.950 . S
H368 C344 0.950 . S
H369 C345 0.949 . S
H370 C347 0.950 . S
H371 C349 0.950 . S
C372 C373 1.349 . S
C372 C374 1.327 . S
C372 H397 0.950 . S
C373 C372 1.349 . S
C373 C389 1.349 . S
C374 C372 1.327 . S
C374 C393 1.429 . S
C374 H398 0.950 . S
C375 C392 1.574 . S
C375 C394 1.368 . S
C375 H399 0.949 . S
H376 C380 0.949 . S
C377 C378 1.349 . S
C377 C379 1.327 . S
C377 H400 0.950 . S
C378 C377 1.349 . S
C378 C390 1.349 . S
C379 C377 1.327 . S
C379 C395 1.429 . S
C379 H401 0.950 . S
C380 H376 0.949 . S
C380 C388 1.574 . S
C380 C396 1.368 . S
H381 C389 0.950 . S
H382 C387 0.950 . S
H383 C388 0.949 . S
H384 C390 0.950 . S
H385 C391 0.950 . S
H386 C392 0.949 . S
C387 H382 0.950 . S
C387 C389 1.327 . S
C387 C393 1.429 . S
C388 C380 1.574 . S
C388 H383 0.949 . S
C388 C394 1.368 . S
C389 C373 1.349 . S
C389 H381 0.950 . S
C389 C387 1.327 . S
C390 C378 1.349 . S
C390 H384 0.950 . S
C390 C391 1.327 . S
C391 H385 0.950 . S
C391 C390 1.327 . S
C391 C395 1.429 . S
C392 C375 1.574 . S
C392 H386 0.949 . S
C392 C396 1.368 . S
C393 C374 1.429 . S
C393 C387 1.429 . S
C393 C394 1.523 . S
C394 C375 1.368 . S
C394 C388 1.368 . S
C394 C393 1.523 . S
C395 C379 1.429 . S
C395 C391 1.429 . S
C395 C396 1.523 . S
C396 C380 1.368 . S
C396 C392 1.368 . S
C396 C395 1.523 . S
H397 C372 0.950 . S
H398 C374 0.950 . S
H399 C375 0.949 . S
H400 C377 0.950 . S
H401 C379 0.950 . S
C402 C403 1.349 . S
C402 C404 1.327 . S
C402 H427 0.950 . S
C403 C402 1.349 . S
C403 C419 1.349 . S
C404 C402 1.327 . S
C404 C423 1.429 . S
C404 H428 0.950 . S
C405 C422 1.574 . S
C405 C424 1.368 . S
C405 H429 0.949 . S
H406 C410 0.949 . S
C407 C408 1.349 . S
C407 C409 1.327 . S
C407 H430 0.950 . S
C408 C407 1.349 . S
C408 C420 1.349 . S
C409 C407 1.327 . S
C409 C425 1.429 . S
C409 H431 0.950 . S
C410 H406 0.949 . S
C410 C418 1.574 . S
C410 C426 1.368 . S
H411 C419 0.950 . S
H412 C417 0.950 . S
H413 C418 0.949 . S
H414 C420 0.950 . S
H415 C421 0.950 . S
H416 C422 0.949 . S
C417 H412 0.950 . S
C417 C419 1.327 . S
C417 C423 1.429 . S
C418 C410 1.574 . S
C418 H413 0.949 . S
C418 C424 1.368 . S
C419 C403 1.349 . S
C419 H411 0.950 . S
C419 C417 1.327 . S
C420 C408 1.349 . S
C420 H414 0.950 . S
C420 C421 1.327 . S
C421 H415 0.950 . S
C421 C420 1.327 . S
C421 C425 1.429 . S
C422 C405 1.574 . S
C422 H416 0.949 . S
C422 C426 1.368 . S
C423 C404 1.429 . S
C423 C417 1.429 . S
C423 C424 1.523 . S
C424 C405 1.368 . S
C424 C418 1.368 . S
C424 C423 1.523 . S
C425 C409 1.429 . S
C425 C421 1.429 . S
C425 C426 1.523 . S
C426 C410 1.368 . S
C426 C422 1.368 . S
C426 C425 1.523 . S
H427 C402 0.950 . S
H428 C404 0.950 . S
H429 C405 0.949 . S
H430 C407 0.950 . S
H431 C409 0.950 . S
C432 C433 1.349 . S
C432 C434 1.327 . S
C432 H457 0.950 . S
C433 C432 1.349 . S
C433 C449 1.349 . S
C434 C432 1.327 . S
C434 C453 1.429 . S
C434 H458 0.950 . S
C435 C452 1.574 . S
C435 C454 1.368 . S
C435 H459 0.949 . S
H436 C440 0.949 . S
C437 C438 1.349 . S
C437 C439 1.327 . S
C437 H460 0.950 . S
C438 C437 1.349 . S
C438 C450 1.349 . S
C439 C437 1.327 . S
C439 C455 1.429 . S
C439 H461 0.950 . S
C440 H436 0.949 . S
C440 C448 1.574 . S
C440 C456 1.368 . S
H441 C449 0.950 . S
H442 C447 0.950 . S
H443 C448 0.949 . S
H444 C450 0.950 . S
H445 C451 0.950 . S
H446 C452 0.949 . S
C447 H442 0.950 . S
C447 C449 1.327 . S
C447 C453 1.429 . S
C448 C440 1.574 . S
C448 H443 0.949 . S
C448 C454 1.368 . S
C449 C433 1.349 . S
C449 H441 0.950 . S
C449 C447 1.327 . S
C450 C438 1.349 . S
C450 H444 0.950 . S
C450 C451 1.327 . S
C451 H445 0.950 . S
C451 C450 1.327 . S
C451 C455 1.429 . S
C452 C435 1.574 . S
C452 H446 0.949 . S
C452 C456 1.368 . S
C453 C434 1.429 . S
C453 C447 1.429 . S
C453 C454 1.523 . S
C454 C435 1.368 . S
C454 C448 1.368 . S
C454 C453 1.523 . S
C455 C439 1.429 . S
C455 C451 1.429 . S
C455 C456 1.523 . S
C456 C440 1.368 . S
C456 C452 1.368 . S
C456 C455 1.523 . S
H457 C432 0.950 . S
H458 C434 0.950 . S
H459 C435 0.949 . S
H460 C437 0.950 . S
H461 C439 0.950 . S
C462 C463 1.349 . S
C462 C464 1.327 . S
C462 H487 0.950 . S
C463 C462 1.349 . S
C463 C479 1.349 . S
C464 C462 1.327 . S
C464 C483 1.429 . S
C464 H488 0.950 . S
C465 C482 1.574 . S
C465 C484 1.368 . S
C465 H489 0.949 . S
H466 C470 0.949 . S
C467 C468 1.349 . S
C467 C469 1.327 . S
C467 H490 0.950 . S
C468 C467 1.349 . S
C468 C480 1.349 . S
C469 C467 1.327 . S
C469 C485 1.429 . S
C469 H491 0.950 . S
C470 H466 0.949 . S
C470 C478 1.574 . S
C470 C486 1.368 . S
H471 C479 0.950 . S
H472 C477 0.950 . S
H473 C478 0.949 . S
H474 C480 0.950 . S
H475 C481 0.950 . S
H476 C482 0.949 . S
C477 H472 0.950 . S
C477 C479 1.327 . S
C477 C483 1.429 . S
C478 C470 1.574 . S
C478 H473 0.949 . S
C478 C484 1.368 . S
C479 C463 1.349 . S
C479 H471 0.950 . S
C479 C477 1.327 . S
C480 C468 1.349 . S
C480 H474 0.950 . S
C480 C481 1.327 . S
C481 H475 0.950 . S
C481 C480 1.327 . S
C481 C485 1.429 . S
C482 C465 1.574 . S
C482 H476 0.949 . S
C482 C486 1.368 . S
C483 C464 1.429 . S
C483 C477 1.429 . S
C483 C484 1.523 . S
C484 C465 1.368 . S
C484 C478 1.368 . S
C484 C483 1.523 . S
C485 C469 1.429 . S
C485 C481 1.429 . S
C485 C486 1.523 . S
C486 C470 1.368 . S
C486 C482 1.368 . S
C486 C485 1.523 . S
H487 C462 0.950 . S
H488 C464 0.950 . S
H489 C465 0.949 . S
H490 C467 0.950 . S
H491 C469 0.950 . S
C492 C493 1.349 . S
C492 C494 1.327 . S
C492 H517 0.950 . S
C493 C492 1.349 . S
C493 C509 1.349 . S
C494 C492 1.327 . S
C494 C513 1.429 . S
C494 H518 0.950 . S
C495 C512 1.574 . S
C495 C514 1.368 . S
C495 H519 0.949 . S
H496 C500 0.949 . S
C497 C498 1.349 . S
C497 C499 1.327 . S
C497 H520 0.950 . S
C498 C497 1.349 . S
C498 C510 1.349 . S
C499 C497 1.327 . S
C499 C515 1.429 . S
C499 H521 0.950 . S
C500 H496 0.949 . S
C500 C508 1.574 . S
C500 C516 1.368 . S
H501 C509 0.950 . S
H502 C507 0.950 . S
H503 C508 0.949 . S
H504 C510 0.950 . S
H505 C511 0.950 . S
H506 C512 0.949 . S
C507 H502 0.950 . S
C507 C509 1.327 . S
C507 C513 1.429 . S
C508 C500 1.574 . S
C508 H503 0.949 . S
C508 C514 1.368 . S
C509 C493 1.349 . S
C509 H501 0.950 . S
C509 C507 1.327 . S
C510 C498 1.349 . S
C510 H504 0.950 . S
C510 C511 1.327 . S
C511 H505 0.950 . S
C511 C510 1.327 . S
C511 C515 1.429 . S
C512 C495 1.574 . S
C512 H506 0.949 . S
C512 C516 1.368 . S
C513 C494 1.429 . S
C513 C507 1.429 . S
C513 C514 1.523 . S
C514 C495 1.368 . S
C514 C508 1.368 . S
C514 C513 1.523 . S
C515 C499 1.429 . S
C515 C511 1.429 . S
C515 C516 1.523 . S
C516 C500 1.368 . S
C516 C512 1.368 . S
C516 C515 1.523 . S
H517 C492 0.950 . S
H518 C494 0.950 . S
H519 C495 0.949 . S
H520 C497 0.950 . S
H521 C499 0.950 . S
C522 C523 1.349 . S
C522 C524 1.327 . S
C522 H547 0.950 . S
C523 C522 1.349 . S
C523 C539 1.349 . S
C524 C522 1.327 . S
C524 C543 1.429 . S
C524 H548 0.950 . S
C525 C542 1.574 . S
C525 C544 1.368 . S
C525 H549 0.949 . S
H526 C530 0.949 . S
C527 C528 1.349 . S
C527 C529 1.327 . S
C527 H550 0.950 . S
C528 C527 1.349 . S
C528 C540 1.349 . S
C529 C527 1.327 . S
C529 C545 1.429 . S
C529 H551 0.950 . S
C530 H526 0.949 . S
C530 C538 1.574 . S
C530 C546 1.368 . S
H531 C539 0.950 . S
H532 C537 0.950 . S
H533 C538 0.949 . S
H534 C540 0.950 . S
H535 C541 0.950 . S
H536 C542 0.949 . S
C537 H532 0.950 . S
C537 C539 1.327 . S
C537 C543 1.429 . S
C538 C530 1.574 . S
C538 H533 0.949 . S
C538 C544 1.368 . S
C539 C523 1.349 . S
C539 H531 0.950 . S
C539 C537 1.327 . S
C540 C528 1.349 . S
C540 H534 0.950 . S
C540 C541 1.327 . S
C541 H535 0.950 . S
C541 C540 1.327 . S
C541 C545 1.429 . S
C542 C525 1.574 . S
C542 H536 0.949 . S
C542 C546 1.368 . S
C543 C524 1.429 . S
C543 C537 1.429 . S
C543 C544 1.523 . S
C544 C525 1.368 . S
C544 C538 1.368 . S
C544 C543 1.523 . S
C545 C529 1.429 . S
C545 C541 1.429 . S
C545 C546 1.523 . S
C546 C530 1.368 . S
C546 C542 1.368 . S
C546 C545 1.523 . S
H547 C522 0.950 . S
H548 C524 0.950 . S
H549 C525 0.949 . S
H550 C527 0.950 . S
H551 C529 0.950 . S
C552 C553 1.349 . S
C552 C554 1.327 . S
C552 H577 0.950 . S
C553 C552 1.349 . S
C553 C569 1.349 . S
C554 C552 1.327 . S
C554 C573 1.429 . S
C554 H578 0.950 . S
C555 C572 1.574 . S
C555 C574 1.368 . S
C555 H579 0.949 . S
H556 C560 0.949 . S
C557 C558 1.349 . S
C557 C559 1.327 . S
C557 H580 0.950 . S
C558 C557 1.349 . S
C558 C570 1.349 . S
C559 C557 1.327 . S
C559 C575 1.429 . S
C559 H581 0.950 . S
C560 H556 0.949 . S
C560 C568 1.574 . S
C560 C576 1.368 . S
H561 C569 0.950 . S
H562 C567 0.950 . S
H563 C568 0.949 . S
H564 C570 0.950 . S
H565 C571 0.950 . S
H566 C572 0.949 . S
C567 H562 0.950 . S
C567 C569 1.327 . S
C567 C573 1.429 . S
C568 C560 1.574 . S
C568 H563 0.949 . S
C568 C574 1.368 . S
C569 C553 1.349 . S
C569 H561 0.950 . S
C569 C567 1.327 . S
C570 C558 1.349 . S
C570 H564 0.950 . S
C570 C571 1.327 . S
C571 H565 0.950 . S
C571 C570 1.327 . S
C571 C575 1.429 . S
C572 C555 1.574 . S
C572 H566 0.949 . S
C572 C576 1.368 . S
C573 C554 1.429 . S
C573 C567 1.429 . S
C573 C574 1.523 . S
C574 C555 1.368 . S
C574 C568 1.368 . S
C574 C573 1.523 . S
C575 C559 1.429 . S
C575 C571 1.429 . S
C575 C576 1.523 . S
C576 C560 1.368 . S
C576 C572 1.368 . S
C576 C575 1.523 . S
H577 C552 0.950 . S
H578 C554 0.950 . S
H579 C555 0.949 . S
H580 C557 0.950 . S
H581 C559 0.950 . S
C582 C583 1.349 . S
C582 C584 1.327 . S
C582 H607 0.950 . S
C583 C582 1.349 . S
C583 C599 1.349 . S
C584 C582 1.327 . S
C584 C603 1.429 . S
C584 H608 0.950 . S
C585 C602 1.574 . S
C585 C604 1.368 . S
C585 H609 0.949 . S
H586 C590 0.949 . S
C587 C588 1.349 . S
C587 C589 1.327 . S
C587 H610 0.950 . S
C588 C587 1.349 . S
C588 C600 1.349 . S
C589 C587 1.327 . S
C589 C605 1.429 . S
C589 H611 0.950 . S
C590 H586 0.949 . S
C590 C598 1.574 . S
C590 C606 1.368 . S
H591 C599 0.950 1_554 S
H592 C597 0.950 . S
H593 C598 0.949 . S
H594 C600 0.950 . S
H595 C601 0.950 . S
H596 C602 0.949 . S
C597 H592 0.950 . S
C597 C599 1.327 . S
C597 C603 1.429 . S
C598 C590 1.574 . S
C598 H593 0.949 . S
C598 C604 1.368 . S
C599 C583 1.349 . S
C599 H591 0.950 1_556 S
C599 C597 1.327 . S
C600 C588 1.349 . S
C600 H594 0.950 . S
C600 C601 1.327 . S
C601 H595 0.950 . S
C601 C600 1.327 . S
C601 C605 1.429 . S
C602 C585 1.574 . S
C602 H596 0.949 . S
C602 C606 1.368 . S
C603 C584 1.429 . S
C603 C597 1.429 . S
C603 C604 1.523 . S
C604 C585 1.368 . S
C604 C598 1.368 . S
C604 C603 1.523 . S
C605 C589 1.429 . S
C605 C601 1.429 . S
C605 C606 1.523 . S
C606 C590 1.368 . S
C606 C602 1.368 . S
C606 C605 1.523 . S
H607 C582 0.950 . S
H608 C584 0.950 . S
H609 C585 0.949 . S
H610 C587 0.950 . S
H611 C589 0.950 . S
C612 C613 1.349 . S
C612 C614 1.327 . S
C612 H637 0.950 . S
C613 C612 1.349 . S
C613 C629 1.349 . S
C614 C612 1.327 . S
C614 C633 1.429 . S
C614 H638 0.950 . S
C615 C632 1.574 . S
C615 C634 1.368 . S
C615 H639 0.949 . S
H616 C620 0.949 . S
C617 C618 1.349 . S
C617 C619 1.327 . S
C617 H640 0.950 . S
C618 C617 1.349 . S
C618 C630 1.349 . S
C619 C617 1.327 . S
C619 C635 1.429 . S
C619 H641 0.950 . S
C620 H616 0.949 . S
C620 C628 1.574 . S
C620 C636 1.368 . S
H621 C629 0.950 . S
H622 C627 0.950 . S
H623 C628 0.949 . S
H624 C630 0.950 . S
H625 C631 0.950 . S
H626 C632 0.949 . S
C627 H622 0.950 . S
C627 C629 1.327 . S
C627 C633 1.429 . S
C628 C620 1.574 . S
C628 H623 0.949 . S
C628 C634 1.368 . S
C629 C613 1.349 . S
C629 H621 0.950 . S
C629 C627 1.327 . S
C630 C618 1.349 . S
C630 H624 0.950 . S
C630 C631 1.327 . S
C631 H625 0.950 . S
C631 C630 1.327 . S
C631 C635 1.429 . S
C632 C615 1.574 . S
C632 H626 0.949 . S
C632 C636 1.368 . S
C633 C614 1.429 . S
C633 C627 1.429 . S
C633 C634 1.523 . S
C634 C615 1.368 . S
C634 C628 1.368 . S
C634 C633 1.523 . S
C635 C619 1.429 . S
C635 C631 1.429 . S
C635 C636 1.523 . S
C636 C620 1.368 . S
C636 C632 1.368 . S
C636 C635 1.523 . S
H637 C612 0.950 . S
H638 C614 0.950 . S
H639 C615 0.949 . S
H640 C617 0.950 . S
H641 C619 0.950 . S
C642 C643 1.349 . S
C642 C644 1.327 . S
C642 H667 0.950 . S
C643 C642 1.349 . S
C643 C659 1.349 . S
C644 C642 1.327 . S
C644 C663 1.429 . S
C644 H668 0.950 . S
C645 C662 1.574 . S
C645 C664 1.368 . S
C645 H669 0.949 . S
H646 C650 0.949 . S
C647 C648 1.349 . S
C647 C649 1.327 . S
C647 H670 0.950 . S
C648 C647 1.349 . S
C648 C660 1.349 . S
C649 C647 1.327 . S
C649 C665 1.429 . S
C649 H671 0.950 . S
C650 H646 0.949 . S
C650 C658 1.574 . S
C650 C666 1.368 . S
H651 C659 0.950 . S
H652 C657 0.950 . S
H653 C658 0.949 . S
H654 C660 0.950 . S
H655 C661 0.950 . S
H656 C662 0.949 . S
C657 H652 0.950 . S
C657 C659 1.327 . S
C657 C663 1.429 . S
C658 C650 1.574 . S
C658 H653 0.949 . S
C658 C664 1.368 . S
C659 C643 1.349 . S
C659 H651 0.950 . S
C659 C657 1.327 . S
C660 C648 1.349 . S
C660 H654 0.950 . S
C660 C661 1.327 . S
C661 H655 0.950 . S
C661 C660 1.327 . S
C661 C665 1.429 . S
C662 C645 1.574 . S
C662 H656 0.949 . S
C662 C666 1.368 . S
C663 C644 1.429 . S
C663 C657 1.429 . S
C663 C664 1.523 . S
C664 C645 1.368 . S
C664 C658 1.368 . S
C664 C663 1.523 . S
C665 C649 1.429 . S
C665 C661 1.429 . S
C665 C666 1.523 . S
C666 C650 1.368 . S
C666 C662 1.368 . S
C666 C665 1.523 . S
H667 C642 0.950 . S
H668 C644 0.950 . S
H669 C645 0.949 . S
H670 C647 0.950 . S
H671 C649 0.950 . S
C672 C673 1.349 . S
C672 C674 1.327 . S
C672 H697 0.950 . S
C673 C672 1.349 . S
C673 C689 1.349 . S
C674 C672 1.327 . S
C674 C693 1.429 . S
C674 H698 0.950 . S
C675 C692 1.574 . S
C675 C694 1.368 . S
C675 H699 0.949 . S
H676 C680 0.949 . S
C677 C678 1.349 . S
C677 C679 1.327 . S
C677 H700 0.950 . S
C678 C677 1.349 . S
C678 C690 1.349 . S
C679 C677 1.327 . S
C679 C695 1.429 . S
C679 H701 0.950 . S
C680 H676 0.949 . S
C680 C688 1.574 . S
C680 C696 1.368 . S
H681 C689 0.950 . S
H682 C687 0.950 . S
H683 C688 0.949 . S
H684 C690 0.950 . S
H685 C691 0.950 . S
H686 C692 0.949 . S
C687 H682 0.950 . S
C687 C689 1.327 . S
C687 C693 1.429 . S
C688 C680 1.574 . S
C688 H683 0.949 . S
C688 C694 1.368 . S
C689 C673 1.349 . S
C689 H681 0.950 . S
C689 C687 1.327 . S
C690 C678 1.349 . S
C690 H684 0.950 . S
C690 C691 1.327 . S
C691 H685 0.950 . S
C691 C690 1.327 . S
C691 C695 1.429 . S
C692 C675 1.574 . S
C692 H686 0.949 . S
C692 C696 1.368 . S
C693 C674 1.429 . S
C693 C687 1.429 . S
C693 C694 1.523 . S
C694 C675 1.368 . S
C694 C688 1.368 . S
C694 C693 1.523 . S
C695 C679 1.429 . S
C695 C691 1.429 . S
C695 C696 1.523 . S
C696 C680 1.368 . S
C696 C692 1.368 . S
C696 C695 1.523 . S
H697 C672 0.950 . S
H698 C674 0.950 . S
H699 C675 0.949 . S
H700 C677 0.950 . S
H701 C679 0.950 . S
C702 C703 1.349 . S
C702 C704 1.327 . S
C702 H727 0.950 . S
C703 C702 1.349 . S
C703 C719 1.349 . S
C704 C702 1.327 . S
C704 C723 1.429 . S
C704 H728 0.950 . S
C705 C722 1.574 . S
C705 C724 1.368 . S
C705 H729 0.949 . S
H706 C710 0.949 . S
C707 C708 1.349 . S
C707 C709 1.327 . S
C707 H730 0.950 . S
C708 C707 1.349 . S
C708 C720 1.349 . S
C709 C707 1.327 . S
C709 C725 1.429 . S
C709 H731 0.950 . S
C710 H706 0.949 . S
C710 C718 1.574 . S
C710 C726 1.368 . S
H711 C719 0.950 . S
H712 C717 0.950 . S
H713 C718 0.949 . S
H714 C720 0.950 1_556 S
H715 C721 0.950 . S
H716 C722 0.949 . S
C717 H712 0.950 . S
C717 C719 1.327 . S
C717 C723 1.429 . S
C718 C710 1.574 . S
C718 H713 0.949 . S
C718 C724 1.368 . S
C719 C703 1.349 . S
C719 H711 0.950 . S
C719 C717 1.327 . S
C720 C708 1.349 . S
C720 H714 0.950 1_554 S
C720 C721 1.327 . S
C721 H715 0.950 . S
C721 C720 1.327 . S
C721 C725 1.429 . S
C722 C705 1.574 . S
C722 H716 0.949 . S
C722 C726 1.368 . S
C723 C704 1.429 . S
C723 C717 1.429 . S
C723 C724 1.523 . S
C724 C705 1.368 . S
C724 C718 1.368 . S
C724 C723 1.523 . S
C725 C709 1.429 . S
C725 C721 1.429 . S
C725 C726 1.523 . S
C726 C710 1.368 . S
C726 C722 1.368 . S
C726 C725 1.523 . S
H727 C702 0.950 . S
H728 C704 0.950 . S
H729 C705 0.949 . S
H730 C707 0.950 . S
H731 C709 0.950 . S
C732 C733 1.349 . S
C732 C734 1.327 . S
C732 H757 0.950 . S
C733 C732 1.349 . S
C733 C749 1.349 . S
C734 C732 1.327 . S
C734 C753 1.429 . S
C734 H758 0.950 . S
C735 C752 1.574 . S
C735 C754 1.368 . S
C735 H759 0.949 . S
H736 C740 0.949 . S
C737 C738 1.349 . S
C737 C739 1.327 . S
C737 H760 0.950 . S
C738 C737 1.349 . S
C738 C750 1.349 . S
C739 C737 1.327 . S
C739 C755 1.429 . S
C739 H761 0.950 . S
C740 H736 0.949 . S
C740 C748 1.574 . S
C740 C756 1.368 . S
H741 C749 0.950 . S
H742 C747 0.950 . S
H743 C748 0.949 . S
H744 C750 0.950 . S
H745 C751 0.950 . S
H746 C752 0.949 . S
C747 H742 0.950 . S
C747 C749 1.327 . S
C747 C753 1.429 . S
C748 C740 1.574 . S
C748 H743 0.949 . S
C748 C754 1.368 . S
C749 C733 1.349 . S
C749 H741 0.950 . S
C749 C747 1.327 . S
C750 C738 1.349 . S
C750 H744 0.950 . S
C750 C751 1.327 . S
C751 H745 0.950 . S
C751 C750 1.327 . S
C751 C755 1.429 . S
C752 C735 1.574 . S
C752 H746 0.949 . S
C752 C756 1.368 . S
C753 C734 1.429 . S
C753 C747 1.429 . S
C753 C754 1.523 . S
C754 C735 1.368 . S
C754 C748 1.368 . S
C754 C753 1.523 . S
C755 C739 1.429 . S
C755 C751 1.429 . S
C755 C756 1.523 . S
C756 C740 1.368 . S
C756 C752 1.368 . S
C756 C755 1.523 . S
H757 C732 0.950 . S
H758 C734 0.950 . S
H759 C735 0.949 . S
H760 C737 0.950 . S
H761 C739 0.950 . S
C762 C763 1.349 . S
C762 C764 1.327 . S
C762 H787 0.950 . S
C763 C762 1.349 . S
C763 C779 1.349 . S
C764 C762 1.327 . S
C764 C783 1.429 . S
C764 H788 0.950 . S
C765 C782 1.574 . S
C765 C784 1.368 . S
C765 H789 0.949 . S
H766 C770 0.949 . S
C767 C768 1.349 . S
C767 C769 1.327 . S
C767 H790 0.950 . S
C768 C767 1.349 . S
C768 C780 1.354 . S
C769 C767 1.327 . S
C769 C785 1.429 . S
C769 H791 0.950 . S
C770 H766 0.949 . S
C770 C778 1.574 . S
C770 C786 1.368 . S
H771 C779 0.950 . S
H772 C777 0.950 . S
H773 C778 0.949 . S
H774 C780 0.926 1_556 S
H775 C781 0.950 . S
H776 C782 0.949 . S
C777 H772 0.950 . S
C777 C779 1.327 . S
C777 C783 1.429 . S
C778 C770 1.574 . S
C778 H773 0.949 . S
C778 C784 1.368 . S
C779 C763 1.349 . S
C779 H771 0.950 . S
C779 C777 1.327 . S
C780 C768 1.354 . S
C780 H774 0.926 1_554 S
C780 C781 1.346 . S
C781 H775 0.950 . S
C781 C780 1.346 . S
C781 C785 1.429 . S
C782 C765 1.574 . S
C782 H776 0.949 . S
C782 C786 1.368 . S
C783 C764 1.429 . S
C783 C777 1.429 . S
C783 C784 1.523 . S
C784 C765 1.368 . S
C784 C778 1.368 . S
C784 C783 1.523 . S
C785 C769 1.429 . S
C785 C781 1.429 . S
C785 C786 1.523 . S
C786 C770 1.368 . S
C786 C782 1.368 . S
C786 C785 1.523 . S
H787 C762 0.950 . S
H788 C764 0.950 . S
H789 C765 0.949 . S
H790 C767 0.950 . S
H791 C769 0.950 . S
C792 C793 1.349 . S
C792 C794 1.327 . S
C792 H817 0.950 . S
C793 C792 1.349 . S
C793 C809 1.349 . S
C794 C792 1.327 . S
C794 C813 1.429 . S
C794 H818 0.950 . S
C795 C812 1.574 . S
C795 C814 1.368 . S
C795 H819 0.949 . S
H796 C800 0.949 . S
C797 C798 1.349 . S
C797 C799 1.327 . S
C797 H820 0.950 . S
C798 C797 1.349 . S
C798 C810 1.349 . S
C799 C797 1.327 . S
C799 C815 1.429 . S
C799 H821 0.950 . S
C800 H796 0.949 . S
C800 C808 1.574 . S
C800 C816 1.368 . S
H801 C809 0.950 . S
H802 C807 0.950 . S
H803 C808 0.949 . S
H804 C810 0.950 . S
H805 C811 0.950 . S
H806 C812 0.949 . S
C807 H802 0.950 . S
C807 C809 1.327 . S
C807 C813 1.429 . S
C808 C800 1.574 . S
C808 H803 0.949 . S
C808 C814 1.368 . S
C809 C793 1.349 . S
C809 H801 0.950 . S
C809 C807 1.327 . S
C810 C798 1.349 . S
C810 H804 0.950 . S
C810 C811 1.327 . S
C811 H805 0.950 . S
C811 C810 1.327 . S
C811 C815 1.429 . S
C812 C795 1.574 . S
C812 H806 0.949 . S
C812 C816 1.368 . S
C813 C794 1.429 . S
C813 C807 1.429 . S
C813 C814 1.523 . S
C814 C795 1.368 . S
C814 C808 1.368 . S
C814 C813 1.523 . S
C815 C799 1.429 . S
C815 C811 1.429 . S
C815 C816 1.523 . S
C816 C800 1.368 . S
C816 C812 1.368 . S
C816 C815 1.523 . S
H817 C792 0.950 . S
H818 C794 0.950 . S
H819 C795 0.949 . S
H820 C797 0.950 . S
H821 C799 0.950 . S
C822 C823 1.349 . S
C822 C824 1.327 . S
C822 H847 0.950 . S
C823 C822 1.349 . S
C823 C839 1.349 . S
C824 C822 1.327 . S
C824 C843 1.429 . S
C824 H848 0.950 . S
C825 C842 1.574 . S
C825 C844 1.368 . S
C825 H849 0.949 . S
H826 C830 0.949 . S
C827 C828 1.349 . S
C827 C829 1.327 . S
C827 H850 0.950 . S
C828 C827 1.349 . S
C828 C840 1.349 . S
C829 C827 1.327 . S
C829 C845 1.429 . S
C829 H851 0.950 . S
C830 H826 0.949 . S
C830 C838 1.574 . S
C830 C846 1.368 . S
H831 C839 0.950 . S
H832 C837 0.950 . S
H833 C838 0.949 . S
H834 C840 0.950 . S
H835 C841 0.950 . S
H836 C842 0.949 . S
C837 H832 0.950 . S
C837 C839 1.327 . S
C837 C843 1.429 . S
C838 C830 1.574 . S
C838 H833 0.949 . S
C838 C844 1.368 . S
C839 C823 1.349 . S
C839 H831 0.950 . S
C839 C837 1.327 . S
C840 C828 1.349 . S
C840 H834 0.950 . S
C840 C841 1.327 . S
C841 H835 0.950 . S
C841 C840 1.327 . S
C841 C845 1.429 . S
C842 C825 1.574 . S
C842 H836 0.949 . S
C842 C846 1.368 . S
C843 C824 1.429 . S
C843 C837 1.429 . S
C843 C844 1.523 . S
C844 C825 1.368 . S
C844 C838 1.368 . S
C844 C843 1.523 . S
C845 C829 1.429 . S
C845 C841 1.429 . S
C845 C846 1.523 . S
C846 C830 1.368 . S
C846 C842 1.368 . S
C846 C845 1.523 . S
H847 C822 0.950 . S
H848 C824 0.950 . S
H849 C825 0.949 . S
H850 C827 0.950 . S
H851 C829 0.950 . S
C852 C853 1.349 . S
C852 C854 1.327 . S
C852 H877 0.950 . S
C853 C852 1.349 . S
C853 C869 1.349 . S
C854 C852 1.327 . S
C854 C873 1.429 . S
C854 H878 0.950 . S
C855 C872 1.574 1_565 S
C855 C874 1.368 . S
C855 H879 0.949 . S
H856 C860 0.949 . S
C857 C858 1.349 . S
C857 C859 1.327 . S
C857 H880 0.950 . S
C858 C857 1.349 . S
C858 C870 1.349 . S
C859 C857 1.327 . S
C859 C875 1.429 . S
C859 H881 0.950 . S
C860 H856 0.949 . S
C860 C868 1.574 . S
C860 C876 1.368 1_565 S
H861 C869 0.950 . S
H862 C867 0.950 . S
H863 C868 0.949 . S
H864 C870 0.950 . S
H865 C871 0.950 . S
H866 C872 0.949 . S
C867 H862 0.950 . S
C867 C869 1.327 . S
C867 C873 1.429 . S
C868 C860 1.574 . S
C868 H863 0.949 . S
C868 C874 1.368 . S
C869 C853 1.349 . S
C869 H861 0.950 . S
C869 C867 1.327 . S
C870 C858 1.349 . S
C870 H864 0.950 . S
C870 C871 1.327 . S
C871 H865 0.950 . S
C871 C870 1.327 . S
C871 C875 1.429 . S
C872 C855 1.574 1_545 S
C872 H866 0.949 . S
C872 C876 1.368 . S
C873 C854 1.429 . S
C873 C867 1.429 . S
C873 C874 1.523 . S
C874 C855 1.368 . S
C874 C868 1.368 . S
C874 C873 1.523 . S
C875 C859 1.429 . S
C875 C871 1.429 . S
C875 C876 1.523 . S
C876 C860 1.368 1_545 S
C876 C872 1.368 . S
C876 C875 1.523 . S
H877 C852 0.950 . S
H878 C854 0.950 . S
H879 C855 0.949 . S
H880 C857 0.950 . S
H881 C859 0.950 . S
C882 C883 1.349 . S
C882 C884 1.327 . S
C882 H907 0.950 . S
C883 C882 1.349 . S
C883 C899 1.349 . S
C884 C882 1.327 . S
C884 C903 1.429 . S
C884 H908 0.950 . S
C885 C902 1.574 . S
C885 C904 1.368 . S
C885 H909 0.949 . S
H886 C890 0.949 . S
C887 C888 1.349 . S
C887 C889 1.327 . S
C887 H910 0.950 . S
C888 C887 1.349 . S
C888 C900 1.349 1_556 S
C889 C887 1.327 . S
C889 C905 1.429 1_556 S
C889 H911 0.950 . S
C890 H886 0.949 . S
C890 C898 1.574 . S
C890 C906 1.368 . S
H891 C899 0.950 . S
H892 C897 0.950 . S
H893 C898 0.949 . S
H894 C900 0.950 . S
H895 C901 0.950 . S
H896 C902 0.949 1_556 S
C897 H892 0.950 . S
C897 C899 1.327 . S
C897 C903 1.429 . S
C898 C890 1.574 . S
C898 H893 0.949 . S
C898 C904 1.368 . S
C899 C883 1.349 . S
C899 H891 0.950 . S
C899 C897 1.327 . S
C900 C888 1.349 1_554 S
C900 H894 0.950 . S
C900 C901 1.327 . S
C901 H895 0.950 . S
C901 C900 1.327 . S
C901 C905 1.429 . S
C902 C885 1.574 . S
C902 H896 0.949 1_554 S
C902 C906 1.368 . S
C903 C884 1.429 . S
C903 C897 1.429 . S
C903 C904 1.523 . S
C904 C885 1.368 . S
C904 C898 1.368 . S
C904 C903 1.523 . S
C905 C889 1.429 1_554 S
C905 C901 1.429 . S
C905 C906 1.523 . S
C906 C890 1.368 . S
C906 C902 1.368 . S
C906 C905 1.523 . S
H907 C882 0.950 . S
H908 C884 0.950 . S
H909 C885 0.949 . S
H910 C887 0.950 . S
H911 C889 0.950 . S
C912 C913 1.349 . S
C912 C914 1.327 . S
C912 H937 0.950 . S
C913 C912 1.349 . S
C913 C929 1.349 1_556 S
C914 C912 1.327 . S
C914 C933 1.429 1_556 S
C914 H938 0.950 1_655 S
C915 C932 1.574 . S
C915 C934 1.368 . S
C915 H939 0.949 . S
H916 C920 0.949 . S
C917 C918 1.349 . S
C917 C919 1.327 . S
C917 H940 0.950 . S
C918 C917 1.349 . S
C918 C930 1.349 . S
C919 C917 1.327 . S
C919 C935 1.429 . S
C919 H941 0.950 1_455 S
C920 H916 0.949 . S
C920 C928 1.574 . S
C920 C936 1.368 . S
H921 C929 0.950 . S
H922 C927 0.950 . S
H923 C928 0.949 . S
H924 C930 0.950 . S
H925 C931 0.950 . S
H926 C932 0.949 . S
C927 H922 0.950 . S
C927 C929 1.327 . S
C927 C933 1.429 . S
C928 C920 1.574 . S
C928 H923 0.949 . S
C928 C934 1.368 1_455 S
C929 C913 1.349 1_554 S
C929 H921 0.950 . S
C929 C927 1.327 . S
C930 C918 1.349 . S
C930 H924 0.950 . S
C930 C931 1.327 . S
C931 H925 0.950 . S
C931 C930 1.327 . S
C931 C935 1.429 . S
C932 C915 1.574 . S
C932 H926 0.949 . S
C932 C936 1.368 1_655 S
C933 C914 1.429 1_554 S
C933 C927 1.429 . S
C933 C934 1.523 . S
C934 C915 1.368 . S
C934 C928 1.368 1_655 S
C934 C933 1.523 . S
C935 C919 1.429 . S
C935 C931 1.429 . S
C935 C936 1.523 . S
C936 C920 1.368 . S
C936 C932 1.368 1_455 S
C936 C935 1.523 . S
H937 C912 0.950 . S
H938 C914 0.950 1_455 S
H939 C915 0.949 . S
H940 C917 0.950 . S
H941 C919 0.950 1_655 S
C942 C943 1.349 . S
C942 C944 1.327 1_556 S
C942 H967 0.950 . S
C943 C942 1.349 . S
C943 C959 1.349 1_556 S
C944 C942 1.327 1_554 S
C944 C963 1.429 . S
C944 H968 0.950 . S
C945 C962 1.574 . S
C945 C964 1.368 . S
C945 H969 0.949 . S
H946 C950 0.949 . S
C947 C948 1.349 . S
C947 C949 1.327 . S
C947 H970 0.950 . S
C948 C947 1.349 . S
C948 C960 1.349 . S
C949 C947 1.327 . S
C949 C965 1.429 . S
C949 H971 0.950 . S
C950 H946 0.949 . S
C950 C958 1.574 . S
C950 C966 1.368 . S
H951 C959 0.950 . S
H952 C957 0.950 . S
H953 C958 0.949 . S
H954 C960 0.950 . S
H955 C961 0.950 . S
H956 C962 0.949 . S
C957 H952 0.950 . S
C957 C959 1.327 . S
C957 C963 1.429 . S
C958 C950 1.574 . S
C958 H953 0.949 . S
C958 C964 1.368 . S
C959 C943 1.349 1_554 S
C959 H951 0.950 . S
C959 C957 1.327 . S
C960 C948 1.349 . S
C960 H954 0.950 . S
C960 C961 1.327 . S
C961 H955 0.950 . S
C961 C960 1.327 . S
C961 C965 1.429 . S
C962 C945 1.574 . S
C962 H956 0.949 . S
C962 C966 1.368 . S
C963 C944 1.429 . S
C963 C957 1.429 . S
C963 C964 1.523 . S
C964 C945 1.368 . S
C964 C958 1.368 . S
C964 C963 1.523 . S
C965 C949 1.429 . S
C965 C961 1.429 . S
C965 C966 1.523 . S
C966 C950 1.368 . S
C966 C962 1.368 . S
C966 C965 1.523 . S
H967 C942 0.950 . S
H968 C944 0.950 . S
H969 C945 0.949 . S
H970 C947 0.950 . S
H971 C949 0.950 . S
C972 C973 1.349 . S
C972 C974 1.327 . S
C972 H997 0.950 . S
C973 C972 1.349 . S
C973 C989 1.349 . S
C974 C972 1.327 . S
C974 C993 1.429 . S
C974 H998 0.950 . S
C975 C992 1.574 1_655 S
C975 C994 1.368 . S
C975 H999 0.949 . S
H976 C980 0.972 . S
C977 C978 1.349 . S
C977 C979 1.327 . S
C977 H1000 0.950 . S
C978 C977 1.349 . S
C978 C990 1.349 . S
C979 C977 1.327 . S
C979 C995 1.429 . S
C979 H1001 0.950 . S
C980 H976 0.972 . S
C980 C988 1.574 1_455 S
C980 C996 1.367 . S
H981 C989 0.950 . S
H982 C987 0.950 . S
H983 C988 0.949 . S
H984 C990 0.950 . S
H985 C991 0.950 . S
H986 C992 0.949 . S
C987 H982 0.950 . S
C987 C989 1.327 . S
C987 C993 1.429 . S
C988 C980 1.574 1_655 S
C988 H983 0.949 . S
C988 C994 1.368 . S
C989 C973 1.349 . S
C989 H981 0.950 . S
C989 C987 1.327 . S
C990 C978 1.349 . S
C990 H984 0.950 . S
C990 C991 1.327 . S
C991 H985 0.950 . S
C991 C990 1.327 . S
C991 C995 1.429 . S
C992 C975 1.574 1_455 S
C992 H986 0.949 . S
C992 C996 1.368 . S
C993 C974 1.429 . S
C993 C987 1.429 . S
C993 C994 1.523 . S
C994 C975 1.368 . S
C994 C988 1.368 . S
C994 C993 1.523 . S
C995 C979 1.429 . S
C995 C991 1.429 . S
C995 C996 1.523 . S
C996 C980 1.367 . S
C996 C992 1.368 . S
C996 C995 1.523 . S
H997 C972 0.950 . S
H998 C974 0.950 . S
H999 C975 0.949 . S
H1000 C977 0.950 . S
H1001 C979 0.950 . S
C1002 C1003 1.349 . S
C1002 C1004 1.327 . S
C1002 H1027 0.950 . S
C1003 C1002 1.349 . S
C1003 C1019 1.349 . S
C1004 C1002 1.327 . S
C1004 C1023 1.429 . S
C1004 H1028 0.950 . S
C1005 C1022 1.574 . S
C1005 C1024 1.368 . S
C1005 H1029 0.949 . S
H1006 C1010 0.949 . S
C1007 C1008 1.349 . S
C1007 C1009 1.327 . S
C1007 H1030 0.950 . S
C1008 C1007 1.349 . S
C1008 C1020 1.349 . S
C1009 C1007 1.327 . S
C1009 C1025 1.429 . S
C1009 H1031 0.950 . S
C1010 H1006 0.949 . S
C1010 C1018 1.574 . S
C1010 C1026 1.368 . S
H1011 C1019 0.950 . S
H1012 C1017 0.950 . S
H1013 C1018 0.949 . S
H1014 C1020 0.950 . S
H1015 C1021 0.950 . S
H1016 C1022 0.949 . S
C1017 H1012 0.950 . S
C1017 C1019 1.327 . S
C1017 C1023 1.429 . S
C1018 C1010 1.574 . S
C1018 H1013 0.949 . S
C1018 C1024 1.368 . S
C1019 C1003 1.349 . S
C1019 H1011 0.950 . S
C1019 C1017 1.327 . S
C1020 C1008 1.349 . S
C1020 H1014 0.950 . S
C1020 C1021 1.327 . S
C1021 H1015 0.950 . S
C1021 C1020 1.327 . S
C1021 C1025 1.429 . S
C1022 C1005 1.574 . S
C1022 H1016 0.949 . S
C1022 C1026 1.368 . S
C1023 C1004 1.429 . S
C1023 C1017 1.429 . S
C1023 C1024 1.523 . S
C1024 C1005 1.368 . S
C1024 C1018 1.368 . S
C1024 C1023 1.523 . S
C1025 C1009 1.429 . S
C1025 C1021 1.429 . S
C1025 C1026 1.523 . S
C1026 C1010 1.368 . S
C1026 C1022 1.368 . S
C1026 C1025 1.523 . S
H1027 C1002 0.950 . S
H1028 C1004 0.950 . S
H1029 C1005 0.949 . S
H1030 C1007 0.950 . S
H1031 C1009 0.950 . S
C1032 C1033 1.349 . S
C1032 C1034 1.327 . S
C1032 H1057 0.950 . S
C1033 C1032 1.349 . S
C1033 C1049 1.349 . S
C1034 C1032 1.327 . S
C1034 C1053 1.429 . S
C1034 H1058 0.950 . S
C1035 C1052 1.574 . S
C1035 C1054 1.368 . S
C1035 H1059 0.949 . S
H1036 C1040 0.949 . S
C1037 C1038 1.349 . S
C1037 C1039 1.327 . S
C1037 H1060 0.950 . S
C1038 C1037 1.349 . S
C1038 C1050 1.349 . S
C1039 C1037 1.327 . S
C1039 C1055 1.429 . S
C1039 H1061 0.950 . S
C1040 H1036 0.949 . S
C1040 C1048 1.574 . S
C1040 C1056 1.368 . S
H1041 C1049 0.950 . S
H1042 C1047 0.950 . S
H1043 C1048 0.949 . S
H1044 C1050 0.950 . S
H1045 C1051 0.950 . S
H1046 C1052 0.949 . S
C1047 H1042 0.950 . S
C1047 C1049 1.327 . S
C1047 C1053 1.429 . S
C1048 C1040 1.574 . S
C1048 H1043 0.949 . S
C1048 C1054 1.368 . S
C1049 C1033 1.349 . S
C1049 H1041 0.950 . S
C1049 C1047 1.327 . S
C1050 C1038 1.349 . S
C1050 H1044 0.950 . S
C1050 C1051 1.327 . S
C1051 H1045 0.950 . S
C1051 C1050 1.327 . S
C1051 C1055 1.429 . S
C1052 C1035 1.574 . S
C1052 H1046 0.949 . S
C1052 C1056 1.368 . S
C1053 C1034 1.429 . S
C1053 C1047 1.429 . S
C1053 C1054 1.523 . S
C1054 C1035 1.368 . S
C1054 C1048 1.368 . S
C1054 C1053 1.523 . S
C1055 C1039 1.429 . S
C1055 C1051 1.429 . S
C1055 C1056 1.523 . S
C1056 C1040 1.368 . S
C1056 C1052 1.368 . S
C1056 C1055 1.523 . S
H1057 C1032 0.950 . S
H1058 C1034 0.950 . S
H1059 C1035 0.949 . S
H1060 C1037 0.950 . S
H1061 C1039 0.950 . S
C1062 C1063 1.349 1_556 S
C1062 C1064 1.327 . S
C1062 H1087 0.950 . S
C1063 C1062 1.349 1_554 S
C1063 C1079 1.349 . S
C1064 C1062 1.327 . S
C1064 C1083 1.429 . S
C1064 H1088 0.950 . S
C1065 C1082 1.574 . S
C1065 C1084 1.368 1_545 S
C1065 H1089 0.949 . S
H1066 C1070 0.949 . S
C1067 C1068 1.349 . S
C1067 C1069 1.327 . S
C1067 H1090 0.950 . S
C1068 C1067 1.349 . S
C1068 C1080 1.349 . S
C1069 C1067 1.327 . S
C1069 C1085 1.429 . S
C1069 H1091 0.950 . S
C1070 H1066 0.949 . S
C1070 C1078 1.574 . S
C1070 C1086 1.368 1_565 S
H1071 C1079 0.950 . S
H1072 C1077 0.950 1_545 S
H1073 C1078 0.949 . S
H1074 C1080 0.950 . S
H1075 C1081 0.981 . S
H1076 C1082 0.949 . S
C1077 H1072 0.950 1_565 S
C1077 C1079 1.327 . S
C1077 C1083 1.429 1_554 S
C1078 C1070 1.574 . S
C1078 H1073 0.949 . S
C1078 C1084 1.368 . S
C1079 C1063 1.349 . S
C1079 H1071 0.950 . S
C1079 C1077 1.327 . S
C1080 C1068 1.349 . S
C1080 H1074 0.950 . S
C1080 C1081 1.327 . S
C1081 H1075 0.981 . S
C1081 C1080 1.327 . S
C1081 C1085 1.429 . S
C1082 C1065 1.574 . S
C1082 H1076 0.949 . S
C1082 C1086 1.368 . S
C1083 C1064 1.429 . S
C1083 C1077 1.429 1_556 S
C1083 C1084 1.523 . S
C1084 C1065 1.368 1_565 S
C1084 C1078 1.368 . S
C1084 C1083 1.523 . S
C1085 C1069 1.429 . S
C1085 C1081 1.429 . S
C1085 C1086 1.523 . S
C1086 C1070 1.368 1_545 S
C1086 C1082 1.368 . S
C1086 C1085 1.523 . S
H1087 C1062 0.950 . S
H1088 C1064 0.950 . S
H1089 C1065 0.949 . S
H1090 C1067 0.950 . S
H1091 C1069 0.950 . S
C1092 C1093 1.349 . S
C1092 C1094 1.327 . S
C1092 H1117 0.950 . S
C1093 C1092 1.349 . S
C1093 C1109 1.349 . S
C1094 C1092 1.327 . S
C1094 C1113 1.429 . S
C1094 H1118 0.950 . S
C1095 C1112 1.574 . S
C1095 C1114 1.368 . S
C1095 H1119 0.949 . S
H1096 C1100 0.949 . S
C1097 C1098 1.349 . S
C1097 C1099 1.327 . S
C1097 H1120 0.950 . S
C1098 C1097 1.349 . S
C1098 C1110 1.349 1_554 S
C1099 C1097 1.327 . S
C1099 C1115 1.429 1_554 S
C1099 H1121 0.950 . S
C1100 H1096 0.949 . S
C1100 C1108 1.574 . S
C1100 C1116 1.368 . S
H1101 C1109 0.950 . S
H1102 C1107 0.950 . S
H1103 C1108 0.949 . S
H1104 C1110 0.950 . S
H1105 C1111 0.950 . S
H1106 C1112 0.949 1_554 S
C1107 H1102 0.950 . S
C1107 C1109 1.327 . S
C1107 C1113 1.429 . S
C1108 C1100 1.574 . S
C1108 H1103 0.949 . S
C1108 C1114 1.368 . S
C1109 C1093 1.349 . S
C1109 H1101 0.950 . S
C1109 C1107 1.327 . S
C1110 C1098 1.349 1_556 S
C1110 H1104 0.950 . S
C1110 C1111 1.327 . S
C1111 H1105 0.950 . S
C1111 C1110 1.327 . S
C1111 C1115 1.429 . S
C1112 C1095 1.574 . S
C1112 H1106 0.949 1_556 S
C1112 C1116 1.368 . S
C1113 C1094 1.429 . S
C1113 C1107 1.429 . S
C1113 C1114 1.523 . S
C1114 C1095 1.368 . S
C1114 C1108 1.368 . S
C1114 C1113 1.523 . S
C1115 C1099 1.429 1_556 S
C1115 C1111 1.429 . S
C1115 C1116 1.523 . S
C1116 C1100 1.368 . S
C1116 C1112 1.368 . S
C1116 C1115 1.523 . S
H1117 C1092 0.950 . S
H1118 C1094 0.950 . S
H1119 C1095 0.949 . S
H1120 C1097 0.950 . S
H1121 C1099 0.950 . S
C1122 C1123 1.349 . S
C1122 C1124 1.327 . S
C1122 H1147 0.950 . S
C1123 C1122 1.349 . S
C1123 C1139 1.349 . S
C1124 C1122 1.327 . S
C1124 C1143 1.429 . S
C1124 H1148 0.950 . S
C1125 C1142 1.574 . S
C1125 C1144 1.368 . S
C1125 H1149 0.949 . S
H1126 C1130 0.949 . S
C1127 C1128 1.349 1_556 S
C1127 C1129 1.327 . S
C1127 H1150 0.950 . S
C1128 C1127 1.349 1_554 S
C1128 C1140 1.349 . S
C1129 C1127 1.327 . S
C1129 C1145 1.429 . S
C1129 H1151 0.950 . S
C1130 H1126 0.949 . S
C1130 C1138 1.574 . S
C1130 C1146 1.368 . S
H1131 C1139 0.950 . S
H1132 C1137 0.950 . S
H1133 C1138 0.949 . S
H1134 C1140 0.950 . S
H1135 C1141 0.950 . S
H1136 C1142 0.949 . S
C1137 H1132 0.950 . S
C1137 C1139 1.327 . S
C1137 C1143 1.429 . S
C1138 C1130 1.574 . S
C1138 H1133 0.949 . S
C1138 C1144 1.368 . S
C1139 C1123 1.349 . S
C1139 H1131 0.950 . S
C1139 C1137 1.327 . S
C1140 C1128 1.349 . S
C1140 H1134 0.950 . S
C1140 C1141 1.327 . S
C1141 H1135 0.950 . S
C1141 C1140 1.327 . S
C1141 C1145 1.429 1_554 S
C1142 C1125 1.574 . S
C1142 H1136 0.949 . S
C1142 C1146 1.368 . S
C1143 C1124 1.429 . S
C1143 C1137 1.429 . S
C1143 C1144 1.523 . S
C1144 C1125 1.368 . S
C1144 C1138 1.368 . S
C1144 C1143 1.523 . S
C1145 C1129 1.429 . S
C1145 C1141 1.429 1_556 S
C1145 C1146 1.523 . S
C1146 C1130 1.368 . S
C1146 C1142 1.368 . S
C1146 C1145 1.523 . S
H1147 C1122 0.950 . S
H1148 C1124 0.950 . S
H1149 C1125 0.949 . S
H1150 C1127 0.950 . S
H1151 C1129 0.950 . S
C1152 C1153 1.349 1_545 S
C1152 C1154 1.327 . S
C1152 H1177 0.950 . S
C1153 C1152 1.349 1_565 S
C1153 C1169 1.349 . S
C1154 C1152 1.327 . S
C1154 C1173 1.429 . S
C1154 H1178 0.950 . S
C1155 C1172 1.574 . S
C1155 C1174 1.368 . S
C1155 H1179 0.949 . S
H1156 C1160 0.949 . S
C1157 C1158 1.349 . S
C1157 C1159 1.327 . S
C1157 H1180 0.950 . S
C1158 C1157 1.349 . S
C1158 C1170 1.349 . S
C1159 C1157 1.327 . S
C1159 C1175 1.429 . S
C1159 H1181 0.950 . S
C1160 H1156 0.949 . S
C1160 C1168 1.574 . S
C1160 C1176 1.368 . S
H1161 C1169 0.950 . S
H1162 C1167 0.950 . S
H1163 C1168 0.949 . S
H1164 C1170 0.950 . S
H1165 C1171 0.950 . S
H1166 C1172 0.949 . S
C1167 H1162 0.950 . S
C1167 C1169 1.327 1_545 S
C1167 C1173 1.429 . S
C1168 C1160 1.574 . S
C1168 H1163 0.949 . S
C1168 C1174 1.368 . S
C1169 C1153 1.349 . S
C1169 H1161 0.950 . S
C1169 C1167 1.327 1_565 S
C1170 C1158 1.349 . S
C1170 H1164 0.950 . S
C1170 C1171 1.327 . S
C1171 H1165 0.950 . S
C1171 C1170 1.327 . S
C1171 C1175 1.429 . S
C1172 C1155 1.574 . S
C1172 H1166 0.949 . S
C1172 C1176 1.368 . S
C1173 C1154 1.429 . S
C1173 C1167 1.429 . S
C1173 C1174 1.523 . S
C1174 C1155 1.368 . S
C1174 C1168 1.368 . S
C1174 C1173 1.523 . S
C1175 C1159 1.429 . S
C1175 C1171 1.429 . S
C1175 C1176 1.523 . S
C1176 C1160 1.368 . S
C1176 C1172 1.368 . S
C1176 C1175 1.523 . S
H1177 C1152 0.950 . S
H1178 C1154 0.950 . S
H1179 C1155 0.949 . S
H1180 C1157 0.950 . S
H1181 C1159 0.950 . S
C1182 C1183 1.349 . S
C1182 C1184 1.327 . S
C1182 H1207 0.950 . S
C1183 C1182 1.349 . S
C1183 C1199 1.349 . S
C1184 C1182 1.327 . S
C1184 C1203 1.429 . S
C1184 H1208 0.950 . S
C1185 C1202 1.574 . S
C1185 C1204 1.368 . S
C1185 H1209 0.949 . S
H1186 C1190 0.949 . S
C1187 C1188 1.349 1_455 S
C1187 C1189 1.327 . S
C1187 H1210 0.950 1_455 S
C1188 C1187 1.349 1_655 S
C1188 C1200 1.349 1_655 S
C1189 C1187 1.327 . S
C1189 C1205 1.429 . S
C1189 H1211 0.950 . S
C1190 H1186 0.949 . S
C1190 C1198 1.574 . S
C1190 C1206 1.368 . S
H1191 C1199 0.950 . S
H1192 C1197 0.950 . S
H1193 C1198 0.949 . S
H1194 C1200 0.950 1_655 S
H1195 C1201 0.950 . S
H1196 C1202 0.949 . S
C1197 H1192 0.950 . S
C1197 C1199 1.327 . S
C1197 C1203 1.429 . S
C1198 C1190 1.574 . S
C1198 H1193 0.949 . S
C1198 C1204 1.368 . S
C1199 C1183 1.349 . S
C1199 H1191 0.950 . S
C1199 C1197 1.327 . S
C1200 C1188 1.349 1_455 S
C1200 H1194 0.950 1_455 S
C1200 C1201 1.327 . S
C1201 H1195 0.950 . S
C1201 C1200 1.327 . S
C1201 C1205 1.429 . S
C1202 C1185 1.574 . S
C1202 H1196 0.949 . S
C1202 C1206 1.368 . S
C1203 C1184 1.429 . S
C1203 C1197 1.429 . S
C1203 C1204 1.523 . S
C1204 C1185 1.368 . S
C1204 C1198 1.368 . S
C1204 C1203 1.523 . S
C1205 C1189 1.429 . S
C1205 C1201 1.429 . S
C1205 C1206 1.523 . S
C1206 C1190 1.368 . S
C1206 C1202 1.368 . S
C1206 C1205 1.523 . S
H1207 C1182 0.950 . S
H1208 C1184 0.950 . S
H1209 C1185 0.949 . S
H1210 C1187 0.950 1_655 S
H1211 C1189 0.950 . S
C1212 C1213 1.349 . S
C1212 C1214 1.327 . S
C1212 H1237 0.950 . S
C1213 C1212 1.349 . S
C1213 C1229 1.349 . S
C1214 C1212 1.327 . S
C1214 C1233 1.429 . S
C1214 H1238 0.950 . S
C1215 C1232 1.574 . S
C1215 C1234 1.368 . S
C1215 H1239 0.949 . S
H1216 C1220 0.949 . S
C1217 C1218 1.349 . S
C1217 C1219 1.327 . S
C1217 H1240 0.950 . S
C1218 C1217 1.349 . S
C1218 C1230 1.349 . S
C1219 C1217 1.327 . S
C1219 C1235 1.429 . S
C1219 H1241 0.950 . S
C1220 H1216 0.949 . S
C1220 C1228 1.574 . S
C1220 C1236 1.368 . S
H1221 C1229 0.950 . S
H1222 C1227 0.950 . S
H1223 C1228 0.949 . S
H1224 C1230 0.950 . S
H1225 C1231 0.950 . S
H1226 C1232 0.949 . S
C1227 H1222 0.950 . S
C1227 C1229 1.327 . S
C1227 C1233 1.429 . S
C1228 C1220 1.574 . S
C1228 H1223 0.949 . S
C1228 C1234 1.368 . S
C1229 C1213 1.349 . S
C1229 H1221 0.950 . S
C1229 C1227 1.327 . S
C1230 C1218 1.349 . S
C1230 H1224 0.950 . S
C1230 C1231 1.327 . S
C1231 H1225 0.950 . S
C1231 C1230 1.327 . S
C1231 C1235 1.429 . S
C1232 C1215 1.574 . S
C1232 H1226 0.949 . S
C1232 C1236 1.368 . S
C1233 C1214 1.429 . S
C1233 C1227 1.429 . S
C1233 C1234 1.523 . S
C1234 C1215 1.368 . S
C1234 C1228 1.368 . S
C1234 C1233 1.523 . S
C1235 C1219 1.429 . S
C1235 C1231 1.429 . S
C1235 C1236 1.523 . S
C1236 C1220 1.368 . S
C1236 C1232 1.368 . S
C1236 C1235 1.523 . S
H1237 C1212 0.950 . S
H1238 C1214 0.950 . S
H1239 C1215 0.949 . S
H1240 C1217 0.950 . S
H1241 C1219 0.950 . S
C1242 C1243 1.342 1_455 S
C1242 C1244 1.327 . S
C1242 H1267 0.950 . S
C1243 C1242 1.342 1_655 S
C1243 C1259 1.349 . S
C1244 C1242 1.327 . S
C1244 C1263 1.429 . S
C1244 H1268 0.950 . S
C1245 C1262 1.574 . S
C1245 C1264 1.368 . S
C1245 H1269 0.949 . S
H1246 C1250 0.949 . S
C1247 C1248 1.349 . S
C1247 C1249 1.327 . S
C1247 H1270 0.950 . S
C1248 C1247 1.349 . S
C1248 C1260 1.349 . S
C1249 C1247 1.327 . S
C1249 C1265 1.429 . S
C1249 H1271 0.950 . S
C1250 H1246 0.949 . S
C1250 C1258 1.574 . S
C1250 C1266 1.368 . S
H1251 C1259 0.950 . S
H1252 C1257 0.950 . S
H1253 C1258 0.949 . S
H1254 C1260 0.950 . S
H1255 C1261 0.950 . S
H1256 C1262 0.949 . S
C1257 H1252 0.950 . S
C1257 C1259 1.327 1_455 S
C1257 C1263 1.429 . S
C1258 C1250 1.574 . S
C1258 H1253 0.949 . S
C1258 C1264 1.368 . S
C1259 C1243 1.349 . S
C1259 H1251 0.950 . S
C1259 C1257 1.327 1_655 S
C1260 C1248 1.349 . S
C1260 H1254 0.950 . S
C1260 C1261 1.327 . S
C1261 H1255 0.950 . S
C1261 C1260 1.327 . S
C1261 C1265 1.429 . S
C1262 C1245 1.574 . S
C1262 H1256 0.949 . S
C1262 C1266 1.368 . S
C1263 C1244 1.429 . S
C1263 C1257 1.429 . S
C1263 C1264 1.523 . S
C1264 C1245 1.368 . S
C1264 C1258 1.368 . S
C1264 C1263 1.523 . S
C1265 C1249 1.429 . S
C1265 C1261 1.429 . S
C1265 C1266 1.523 . S
C1266 C1250 1.368 . S
C1266 C1262 1.368 . S
C1266 C1265 1.523 . S
H1267 C1242 0.950 . S
H1268 C1244 0.950 . S
H1269 C1245 0.949 . S
H1270 C1247 0.950 . S
H1271 C1249 0.950 . S
C1272 C1273 1.349 . S
C1272 C1274 1.327 . S
C1272 H1297 0.950 . S
C1273 C1272 1.349 . S
C1273 C1289 1.349 . S
C1274 C1272 1.327 . S
C1274 C1293 1.429 . S
C1274 H1298 0.950 . S
C1275 C1292 1.574 . S
C1275 C1294 1.368 . S
C1275 H1299 0.949 . S
H1276 C1280 0.949 . S
C1277 C1278 1.349 . S
C1277 C1279 1.327 . S
C1277 H1300 0.950 . S
C1278 C1277 1.349 . S
C1278 C1290 1.349 . S
C1279 C1277 1.327 . S
C1279 C1295 1.429 . S
C1279 H1301 0.950 . S
C1280 H1276 0.949 . S
C1280 C1288 1.574 . S
C1280 C1296 1.368 . S
H1281 C1289 0.950 . S
H1282 C1287 0.950 . S
H1283 C1288 0.949 . S
H1284 C1290 0.950 . S
H1285 C1291 0.950 . S
H1286 C1292 0.949 . S
C1287 H1282 0.950 . S
C1287 C1289 1.327 . S
C1287 C1293 1.429 . S
C1288 C1280 1.574 . S
C1288 H1283 0.949 . S
C1288 C1294 1.368 . S
C1289 C1273 1.349 . S
C1289 H1281 0.950 . S
C1289 C1287 1.327 . S
C1290 C1278 1.349 . S
C1290 H1284 0.950 . S
C1290 C1291 1.327 . S
C1291 H1285 0.950 . S
C1291 C1290 1.327 . S
C1291 C1295 1.429 . S
C1292 C1275 1.574 . S
C1292 H1286 0.949 . S
C1292 C1296 1.368 . S
C1293 C1274 1.429 . S
C1293 C1287 1.429 . S
C1293 C1294 1.523 . S
C1294 C1275 1.368 . S
C1294 C1288 1.368 . S
C1294 C1293 1.523 . S
C1295 C1279 1.429 . S
C1295 C1291 1.429 . S
C1295 C1296 1.523 . S
C1296 C1280 1.368 . S
C1296 C1292 1.368 . S
C1296 C1295 1.523 . S
H1297 C1272 0.950 . S
H1298 C1274 0.950 . S
H1299 C1275 0.949 . S
H1300 C1277 0.950 . S
H1301 C1279 0.950 . S
C1302 C1303 1.349 . S
C1302 C1304 1.327 . S
C1302 H1327 0.950 . S
C1303 C1302 1.349 . S
C1303 C1319 1.347 . S
C1304 C1302 1.327 . S
C1304 C1323 1.429 . S
C1304 H1328 0.950 . S
C1305 C1322 1.574 . S
C1305 C1324 1.368 . S
C1305 H1329 0.949 . S
H1306 C1310 0.949 . S
C1307 C1308 1.349 . S
C1307 C1309 1.327 . S
C1307 H1330 0.950 . S
C1308 C1307 1.349 . S
C1308 C1320 1.349 . S
C1309 C1307 1.327 . S
C1309 C1325 1.429 . S
C1309 H1331 0.950 . S
C1310 H1306 0.949 . S
C1310 C1318 1.574 . S
C1310 C1326 1.368 . S
H1311 C1319 0.949 . S
H1312 C1317 0.950 . S
H1313 C1318 0.949 . S
H1314 C1320 0.950 . S
H1315 C1321 0.950 . S
H1316 C1322 0.949 . S
C1317 H1312 0.950 . S
C1317 C1319 1.327 . S
C1317 C1323 1.429 . S
C1318 C1310 1.574 . S
C1318 H1313 0.949 . S
C1318 C1324 1.368 . S
C1319 C1303 1.347 . S
C1319 H1311 0.949 . S
C1319 C1317 1.327 . S
C1320 C1308 1.349 . S
C1320 H1314 0.950 . S
C1320 C1321 1.327 . S
C1321 H1315 0.950 . S
C1321 C1320 1.327 . S
C1321 C1325 1.429 . S
C1322 C1305 1.574 . S
C1322 H1316 0.949 . S
C1322 C1326 1.368 . S
C1323 C1304 1.429 . S
C1323 C1317 1.429 . S
C1323 C1324 1.523 . S
C1324 C1305 1.368 . S
C1324 C1318 1.368 . S
C1324 C1323 1.523 . S
C1325 C1309 1.429 . S
C1325 C1321 1.429 . S
C1325 C1326 1.523 . S
C1326 C1310 1.368 . S
C1326 C1322 1.368 . S
C1326 C1325 1.523 . S
H1327 C1302 0.950 . S
H1328 C1304 0.950 . S
H1329 C1305 0.949 . S
H1330 C1307 0.950 . S
H1331 C1309 0.950 . S
C253 C53 1.292 . S
C258 C9 1.271 . S
C283 C65 1.276 . S
C288 C25 1.299 . S
C313 C37 1.275 . S
C318 C79 1.274 . S
C343 C39 1.215 . S
C348 C81 1.216 . S
C373 C11 1.217 . S
C378 C51 1.198 . S
C403 C67 1.222 . S
C408 C23 1.202 . S
C433 C137 1.176 . S
C438 C95 1.177 . S
C463 C109 1.193 . S
C468 C149 1.172 . S
C493 C123 1.184 . S
C498 C163 1.164 . S
C523 C165 1.347 . S
C528 C121 1.319 . S
C553 C135 1.311 1_556 S
C558 C93 1.311 . S
C583 C151 1.347 1_556 S
C588 C107 1.326 . S
C613 C177 1.286 . S
C618 C221 1.305 . S
C643 C193 1.317 . S
C648 C233 1.294 . S
C673 C205 1.278 . S
C678 C247 1.279 . S
C703 C249 1.227 . S
C708 C207 1.227 1_554 S
C733 C219 1.203 . S
C738 C179 1.221 . S
C763 C235 1.241 . S
C768 C191 1.220 1_554 S
C793 C0 1.149 . S
C798 C98 1.150 . S
C823 C19 1.203 . S
C828 C112 1.206 . S
C853 C84 1.139 . S
C858 C28 1.141 . S
C883 C33 1.231 . S
C888 C187 1.230 . S
C913 C196 1.168 . S
C918 C5 1.167 . S
C943 C168 1.111 . S
C948 C14 1.110 . S
C973 C229 1.226 . S
C978 C47 1.224 . S
C1003 C56 1.177 . S
C1008 C243 1.176 . S
C1033 C210 1.112 . S
C1038 C70 1.108 . S
C1063 C140 1.144 . S
C1068 C75 1.144 . S
C1093 C42 1.078 . S
C1098 C154 1.077 . S
C1123 C61 1.194 . S
C1128 C131 1.195 . S
C1153 C89 1.141 . S
C1158 C182 1.141 . S
C1183 C103 1.194 . S
C1188 C201 1.198 . S
C1213 C117 1.191 . S
C1218 C173 1.189 . S
C1243 C224 1.214 . S
C1248 C159 1.204 . S
C1273 C238 1.139 . S
C1278 C126 1.141 . S
C1303 C145 1.259 1_545 S
C1308 C215 1.256 . S
