# Generated by pormake.
# Topology xfh, (7)-cn, num edge types: 1
# Building blocks:
#     Node 0, Type 0, BuildingBlock: HICVOG_clean_sbu_0, # of connection points: 7
#     Node 1, Type 0, BuildingBlock: HICVOG_clean_sbu_0, # of connection points: 7
#     Node 2, Type 0, BuildingBlock: HICVOG_clean_sbu_0, # of connection points: 7
#     Node 3, Type 0, BuildingBlock: HICVOG_clean_sbu_0, # of connection points: 7
#     Node 4, Type 0, BuildingBlock: HICVOG_clean_sbu_0, # of connection points: 7
#     Node 5, Type 0, BuildingBlock: HICVOG_clean_sbu_0, # of connection points: 7
#     Node 6, Type 0, BuildingBlock: HICVOG_clean_sbu_0, # of connection points: 7
#     Node 7, Type 0, BuildingBlock: HICVOG_clean_sbu_0, # of connection points: 7
#     Node 8, Type 0, BuildingBlock: HICVOG_clean_sbu_0, # of connection points: 7
#     Node 9, Type 0, BuildingBlock: HICVOG_clean_sbu_0, # of connection points: 7
#     Node 10, Type 0, BuildingBlock: HICVOG_clean_sbu_0, # of connection points: 7
#     Node 11, Type 0, BuildingBlock: HICVOG_clean_sbu_0, # of connection points: 7
#     Node 12, Type 0, BuildingBlock: HICVOG_clean_sbu_0, # of connection points: 7
#     Node 13, Type 0, BuildingBlock: HICVOG_clean_sbu_0, # of connection points: 7
#     Node 14, Type 0, BuildingBlock: HICVOG_clean_sbu_0, # of connection points: 7
#     Node 15, Type 0, BuildingBlock: HICVOG_clean_sbu_0, # of connection points: 7
#     Edge 16, Type (0, 0), BuildingBlock: UVAHIK_clean_linker_0, # of connection points: 2
#     Edge 17, Type (0, 0), BuildingBlock: UVAHIK_clean_linker_0, # of connection points: 2
#     Edge 18, Type (0, 0), BuildingBlock: UVAHIK_clean_linker_0, # of connection points: 2
#     Edge 19, Type (0, 0), BuildingBlock: UVAHIK_clean_linker_0, # of connection points: 2
#     Edge 20, Type (0, 0), BuildingBlock: UVAHIK_clean_linker_0, # of connection points: 2
#     Edge 21, Type (0, 0), BuildingBlock: UVAHIK_clean_linker_0, # of connection points: 2
#     Edge 22, Type (0, 0), BuildingBlock: UVAHIK_clean_linker_0, # of connection points: 2
#     Edge 23, Type (0, 0), BuildingBlock: UVAHIK_clean_linker_0, # of connection points: 2
#     Edge 24, Type (0, 0), BuildingBlock: UVAHIK_clean_linker_0, # of connection points: 2
#     Edge 25, Type (0, 0), BuildingBlock: UVAHIK_clean_linker_0, # of connection points: 2
#     Edge 26, Type (0, 0), BuildingBlock: UVAHIK_clean_linker_0, # of connection points: 2
#     Edge 27, Type (0, 0), BuildingBlock: UVAHIK_clean_linker_0, # of connection points: 2
#     Edge 28, Type (0, 0), BuildingBlock: UVAHIK_clean_linker_0, # of connection points: 2
#     Edge 29, Type (0, 0), BuildingBlock: UVAHIK_clean_linker_0, # of connection points: 2
#     Edge 30, Type (0, 0), BuildingBlock: UVAHIK_clean_linker_0, # of connection points: 2
#     Edge 31, Type (0, 0), BuildingBlock: UVAHIK_clean_linker_0, # of connection points: 2
#     Edge 32, Type (0, 0), BuildingBlock: UVAHIK_clean_linker_0, # of connection points: 2
#     Edge 33, Type (0, 0), BuildingBlock: UVAHIK_clean_linker_0, # of connection points: 2
#     Edge 34, Type (0, 0), BuildingBlock: UVAHIK_clean_linker_0, # of connection points: 2
#     Edge 35, Type (0, 0), BuildingBlock: UVAHIK_clean_linker_0, # of connection points: 2
#     Edge 36, Type (0, 0), BuildingBlock: UVAHIK_clean_linker_0, # of connection points: 2
#     Edge 37, Type (0, 0), BuildingBlock: UVAHIK_clean_linker_0, # of connection points: 2
#     Edge 38, Type (0, 0), BuildingBlock: UVAHIK_clean_linker_0, # of connection points: 2
#     Edge 39, Type (0, 0), BuildingBlock: UVAHIK_clean_linker_0, # of connection points: 2
#     Edge 40, Type (0, 0), BuildingBlock: UVAHIK_clean_linker_0, # of connection points: 2
#     Edge 41, Type (0, 0), BuildingBlock: UVAHIK_clean_linker_0, # of connection points: 2
#     Edge 42, Type (0, 0), BuildingBlock: UVAHIK_clean_linker_0, # of connection points: 2
#     Edge 43, Type (0, 0), BuildingBlock: UVAHIK_clean_linker_0, # of connection points: 2
#     Edge 44, Type (0, 0), BuildingBlock: UVAHIK_clean_linker_0, # of connection points: 2
#     Edge 45, Type (0, 0), BuildingBlock: UVAHIK_clean_linker_0, # of connection points: 2
#     Edge 46, Type (0, 0), BuildingBlock: UVAHIK_clean_linker_0, # of connection points: 2
#     Edge 47, Type (0, 0), BuildingBlock: UVAHIK_clean_linker_0, # of connection points: 2
#     Edge 48, Type (0, 0), BuildingBlock: UVAHIK_clean_linker_0, # of connection points: 2
#     Edge 49, Type (0, 0), BuildingBlock: UVAHIK_clean_linker_0, # of connection points: 2
#     Edge 50, Type (0, 0), BuildingBlock: UVAHIK_clean_linker_0, # of connection points: 2
#     Edge 51, Type (0, 0), BuildingBlock: UVAHIK_clean_linker_0, # of connection points: 2
#     Edge 52, Type (0, 0), BuildingBlock: UVAHIK_clean_linker_0, # of connection points: 2
#     Edge 53, Type (0, 0), BuildingBlock: UVAHIK_clean_linker_0, # of connection points: 2
#     Edge 54, Type (0, 0), BuildingBlock: UVAHIK_clean_linker_0, # of connection points: 2
#     Edge 55, Type (0, 0), BuildingBlock: UVAHIK_clean_linker_0, # of connection points: 2
#     Edge 56, Type (0, 0), BuildingBlock: UVAHIK_clean_linker_0, # of connection points: 2
#     Edge 57, Type (0, 0), BuildingBlock: UVAHIK_clean_linker_0, # of connection points: 2
#     Edge 58, Type (0, 0), BuildingBlock: UVAHIK_clean_linker_0, # of connection points: 2
#     Edge 59, Type (0, 0), BuildingBlock: UVAHIK_clean_linker_0, # of connection points: 2
#     Edge 60, Type (0, 0), BuildingBlock: UVAHIK_clean_linker_0, # of connection points: 2
#     Edge 61, Type (0, 0), BuildingBlock: UVAHIK_clean_linker_0, # of connection points: 2
#     Edge 62, Type (0, 0), BuildingBlock: UVAHIK_clean_linker_0, # of connection points: 2
#     Edge 63, Type (0, 0), BuildingBlock: UVAHIK_clean_linker_0, # of connection points: 2
#     Edge 64, Type (0, 0), BuildingBlock: UVAHIK_clean_linker_0, # of connection points: 2
#     Edge 65, Type (0, 0), BuildingBlock: UVAHIK_clean_linker_0, # of connection points: 2
#     Edge 66, Type (0, 0), BuildingBlock: UVAHIK_clean_linker_0, # of connection points: 2
#     Edge 67, Type (0, 0), BuildingBlock: UVAHIK_clean_linker_0, # of connection points: 2
#     Edge 68, Type (0, 0), BuildingBlock: UVAHIK_clean_linker_0, # of connection points: 2
#     Edge 69, Type (0, 0), BuildingBlock: UVAHIK_clean_linker_0, # of connection points: 2
#     Edge 70, Type (0, 0), BuildingBlock: UVAHIK_clean_linker_0, # of connection points: 2
#     Edge 71, Type (0, 0), BuildingBlock: UVAHIK_clean_linker_0, # of connection points: 2
# Relax obj value: 0.232
# Max RMSD: 0.228
# Mean RMSD: 0.228
data_MOF--net-xfh--node1-HICVOG_clean_sbu_0--edge1-UVAHIK_clean_linker_0
_symmetry_space_group_name_H-M    P1
_symmetry_Int_Tables_number       1
_symmetry_cell_setting            triclinic
loop_
_symmetry_equiv_pos_as_xyz
'x, y, z'
_cell_length_a     39.97691
_cell_length_b     40.047079
_cell_length_c     80.932778
_cell_angle_alpha  89.974887
_cell_angle_beta   89.913915
_cell_angle_gamma 89.802478
loop_
_atom_site_label
_atom_site_type_symbol
_atom_site_fract_x
_atom_site_fract_y
_atom_site_fract_z
_atom_type_partial_charge
Zn0 Zn 0.35103 0.03719 0.08923 0.0
C1 C 0.40699 0.09537 0.05992 0.0
N2 N 0.43033 0.08825 0.07143 0.0
C3 C 0.41352 0.07142 0.08299 0.0
N4 N 0.38097 0.06911 0.07931 0.0
N5 N 0.37554 0.08695 0.06582 0.0
C6 C 0.3088 0.11631 0.03909 0.0
O7 O 0.30549 0.08549 0.04441 0.0
O8 O 0.3678 0.02597 0.11182 0.0
Zn9 Zn 0.33568 0.11951 0.07043 0.0
N10 N 0.34975 0.99786 0.07557 0.0
C11 C 0.34281 0.974 0.04889 0.0
C12 C 0.34654 1.00192 0.05899 0.0
C13 C 0.34885 0.96703 0.08256 0.0
N14 N 0.34136 0.9432 0.05587 0.0
C15 C 0.34428 0.93881 0.07249 0.0
O16 O 0.2903 0.09924 0.08049 0.0
C17 C 0.28187 0.07312 0.08869 0.0
O18 O 0.30356 0.05101 0.09208 0.0
H19 H 0.34602 0.02673 0.05373 0.0
H20 H 0.35001 0.96485 0.09588 0.0
C21 C 0.32706 0.18494 0.08923 0.0
C22 C 0.33774 0.20933 0.10096 0.0
C23 C 0.38917 0.17968 0.1036 0.0
C24 C 0.3785 0.15589 0.09228 0.0
N25 N 0.34775 0.15837 0.08527 0.0
N26 N 0.36869 0.2054 0.10769 0.0
H27 H 0.30243 0.18658 0.08377 0.0
C28 C 0.37071 0.04988 0.12201 0.0
O29 O 0.36169 0.08009 0.11744 0.0
O30 O 0.3223 0.13771 0.04849 0.0
H31 H 0.39467 0.13526 0.0893 0.0
H32 H 0.3402 0.97684 0.03567 0.0
H33 H 0.41359 0.17753 0.10926 0.0
Zn34 Zn 0.67943 0.58383 0.31882 0.0
C35 C 0.72555 0.66245 0.33112 0.0
N36 N 0.70884 0.67843 0.31922 0.0
C37 C 0.70282 0.6545 0.30789 0.0
N38 N 0.71167 0.62354 0.3142 0.0
N39 N 0.72872 0.6298 0.32783 0.0
C40 C 0.74052 0.62209 0.37034 0.0
O41 O 0.71115 0.61498 0.36399 0.0
O42 O 0.66132 0.57019 0.29701 0.0
Zn43 Zn 0.75975 0.60038 0.33883 0.0
N44 N 0.64022 0.59612 0.33341 0.0
C45 C 0.61696 0.63814 0.3509 0.0
C46 C 0.64148 0.62736 0.33991 0.0
C47 C 0.6142 0.57507 0.33753 0.0
N48 N 0.59171 0.61733 0.35513 0.0
C49 C 0.58902 0.5859 0.34888 0.0
O50 O 0.74702 0.55257 0.34131 0.0
C51 C 0.72551 0.53062 0.33761 0.0
O52 O 0.6997 0.53873 0.32908 0.0
H53 H 0.66163 0.64385 0.33675 0.0
H54 H 0.61355 0.55011 0.33244 0.0
C55 C 0.83082 0.6013 0.33478 0.0
C56 C 0.8609 0.59823 0.3258 0.0
C57 C 0.82934 0.5955 0.30094 0.0
C58 C 0.79975 0.59714 0.31 0.0
N59 N 0.80112 0.60036 0.32667 0.0
N60 N 0.85907 0.59578 0.30902 0.0
H61 H 0.83052 0.60404 0.34805 0.0
C62 C 0.6825 0.55638 0.28751 0.0
O63 O 0.71356 0.55304 0.29258 0.0
O64 O 0.76665 0.61726 0.36172 0.0
H65 H 0.77583 0.59538 0.30387 0.0
H66 H 0.61811 0.66294 0.35616 0.0
H67 H 0.82872 0.5932 0.28763 0.0
Zn68 Zn 0.19758 1.00964 0.59011 0.0
C69 C 0.14183 0.95472 0.55908 0.0
N70 N 0.1183 0.96131 0.5706 0.0
C71 C 0.13502 0.97713 0.58249 0.0
N72 N 0.16765 0.97948 0.57897 0.0
N73 N 0.17323 0.96277 0.56512 0.0
C74 C 0.25161 0.89739 0.54325 0.0
O75 O 0.27462 0.89566 0.5548 0.0
O76 O 0.18135 1.01611 0.6133 0.0
Zn77 Zn 0.21315 0.93003 0.56882 0.0
N78 N 0.19734 0.05147 0.57834 0.0
C79 C 0.20034 0.08009 0.55268 0.0
C80 C 0.19911 0.05041 0.56161 0.0
C81 C 0.19741 0.08097 0.58663 0.0
N82 N 0.20097 0.10958 0.56092 0.0
C83 C 0.19992 0.11116 0.57774 0.0
O84 O 0.25914 0.95025 0.57809 0.0
C85 C 0.26747 0.97529 0.58708 0.0
O86 O 0.2455 0.99625 0.59166 0.0
H87 H 0.2 0.02664 0.55531 0.0
H88 H 0.19578 0.08042 0.59994 0.0
C89 C 0.22288 0.86551 0.58832 0.0
C90 C 0.21223 0.84093 0.59999 0.0
C91 C 0.15994 0.86925 0.602 0.0
C92 C 0.1705 0.89312 0.59067 0.0
N93 N 0.20169 0.89147 0.58404 0.0
N94 N 0.18088 0.84412 0.60638 0.0
H95 H 0.24778 0.86441 0.58311 0.0
C96 C 0.17697 0.99019 0.62208 0.0
O97 O 0.18424 0.96078 0.6158 0.0
O98 O 0.22349 0.91065 0.54659 0.0
H99 H 0.15381 0.91306 0.58733 0.0
H100 H 0.20151 0.07971 0.53933 0.0
H101 H 0.13518 0.87077 0.60737 0.0
Zn102 Zn 0.78661 0.44611 0.83813 0.0
C103 C 0.84435 0.39201 0.80749 0.0
N104 N 0.83824 0.36822 0.81889 0.0
C105 C 0.82128 0.3843 0.83068 0.0
N106 N 0.81799 0.41686 0.82724 0.0
N107 N 0.83533 0.42306 0.81367 0.0
C108 C 0.86586 0.49116 0.78748 0.0
O109 O 0.83478 0.49518 0.79243 0.0
O110 O 0.77987 0.42914 0.86101 0.0
Zn111 Zn 0.8675 0.4627 0.81862 0.0
N112 N 0.74523 0.44553 0.82606 0.0
C113 C 0.71683 0.45 0.8004 0.0
C114 C 0.74648 0.44852 0.80937 0.0
C115 C 0.7156 0.44467 0.83427 0.0
N116 N 0.68716 0.44986 0.80859 0.0
C117 C 0.68544 0.44767 0.82538 0.0
O118 O 0.8468 0.50779 0.82874 0.0
C119 C 0.8206 0.51603 0.83699 0.0
O120 O 0.79889 0.49415 0.84054 0.0
H121 H 0.77036 0.4503 0.80316 0.0
H122 H 0.71602 0.44216 0.84755 0.0
C123 C 0.9324 0.47124 0.83757 0.0
C124 C 0.95726 0.46037 0.84905 0.0
C125 C 0.92885 0.40838 0.85116 0.0
C126 C 0.90466 0.4192 0.84004 0.0
N127 N 0.90629 0.45034 0.83344 0.0
N128 N 0.95418 0.42905 0.8554 0.0
H129 H 0.93336 0.49612 0.83238 0.0
C130 C 0.80622 0.42552 0.86957 0.0
O131 O 0.83522 0.43382 0.86312 0.0
O132 O 0.88643 0.4765 0.79696 0.0
H133 H 0.88448 0.40281 0.83686 0.0
H134 H 0.71734 0.45212 0.78708 0.0
H135 H 0.9274 0.38367 0.85651 0.0
Zn136 Zn 0.69679 1.01125 0.90806 0.0
C137 C 0.64056 0.95765 0.93956 0.0
N138 N 0.61696 0.96436 0.92812 0.0
C139 C 0.63376 0.97946 0.916 0.0
N140 N 0.66651 0.98132 0.91931 0.0
N141 N 0.67201 0.96503 0.93329 0.0
C142 C 0.7511 0.90087 0.95534 0.0
O143 O 0.77368 0.89876 0.94357 0.0
O144 O 0.67976 1.01951 0.88515 0.0
Zn145 Zn 0.71163 0.93183 0.92978 0.0
N146 N 0.69868 0.05216 0.92058 0.0
C147 C 0.70548 0.07771 0.94688 0.0
C148 C 0.70163 0.0492 0.93724 0.0
C149 C 0.69967 0.08254 0.91309 0.0
N150 N 0.70714 0.10801 0.93942 0.0
C151 C 0.70432 0.11135 0.92274 0.0
O152 O 0.75732 0.95097 0.91961 0.0
C153 C 0.76576 0.97496 0.90995 0.0
O154 O 0.74415 0.99626 0.90535 0.0
H155 H 0.70176 0.02478 0.94292 0.0
H156 H 0.69837 0.08399 0.89975 0.0
C157 C 0.7193 0.86473 0.912 0.0
C158 C 0.7066 0.83803 0.90214 0.0
C159 C 0.65542 0.86812 0.89948 0.0
C160 C 0.66776 0.89378 0.90925 0.0
N161 N 0.69921 0.89204 0.91553 0.0
N162 N 0.67484 0.84111 0.8963 0.0
H163 H 0.7443 0.86337 0.91704 0.0
C164 C 0.67523 0.99388 0.87619 0.0
O165 O 0.68258 0.96428 0.88222 0.0
O166 O 0.72281 0.9139 0.95219 0.0
H167 H 0.65207 0.91495 0.91185 0.0
H168 H 0.70793 0.07574 0.96016 0.0
H169 H 0.63033 0.86953 0.89452 0.0
Zn170 Zn 0.36747 0.46182 0.6802 0.0
C171 C 0.32002 0.38423 0.6669 0.0
N172 N 0.33636 0.36758 0.6787 0.0
C173 C 0.34297 0.39107 0.69016 0.0
N174 N 0.33467 0.42237 0.68408 0.0
N175 N 0.31762 0.41686 0.67036 0.0
C176 C 0.30646 0.42546 0.62758 0.0
O177 O 0.33609 0.43169 0.63385 0.0
O178 O 0.38782 0.47143 0.70218 0.0
Zn179 Zn 0.2877 0.44727 0.65927 0.0
N180 N 0.40609 0.44982 0.66513 0.0
C181 C 0.42928 0.40769 0.64767 0.0
C182 C 0.40393 0.4192 0.658 0.0
C183 C 0.43345 0.46985 0.66197 0.0
N184 N 0.4564 0.42705 0.64484 0.0
C185 C 0.45979 0.458 0.65156 0.0
O186 O 0.30193 0.49479 0.65695 0.0
C187 C 0.32313 0.51641 0.66148 0.0
O188 O 0.34766 0.50789 0.67082 0.0
H189 H 0.3827 0.40355 0.66035 0.0
H190 H 0.43515 0.49413 0.66776 0.0
C191 C 0.2165 0.44825 0.66289 0.0
C192 C 0.18623 0.45137 0.67173 0.0
C193 C 0.21722 0.45212 0.6968 0.0
C194 C 0.247 0.45025 0.68792 0.0
N195 N 0.246 0.44809 0.67119 0.0
N196 N 0.18771 0.45289 0.68854 0.0
H197 H 0.2171 0.44616 0.6496 0.0
C198 C 0.39879 0.49997 0.70626 0.0
O199 O 0.39664 0.52494 0.69578 0.0
O200 O 0.28058 0.4308 0.63631 0.0
H201 H 0.27079 0.45089 0.69423 0.0
H202 H 0.42756 0.38328 0.64203 0.0
H203 H 0.21754 0.45362 0.71015 0.0
Zn204 Zn 0.83433 0.11583 0.4307 0.0
C205 C 0.91246 0.06851 0.41708 0.0
N206 N 0.92921 0.08462 0.42887 0.0
C207 C 0.90574 0.09138 0.4404 0.0
N208 N 0.87434 0.08317 0.43441 0.0
N209 N 0.87985 0.06617 0.42066 0.0
C210 C 0.87012 0.05206 0.37702 0.0
O211 O 0.86169 0.08214 0.38204 0.0
O212 O 0.82326 0.1343 0.45303 0.0
Zn213 Zn 0.85002 0.03562 0.40978 0.0
N214 N 0.8462 0.15521 0.4161 0.0
C215 C 0.88902 0.17896 0.39928 0.0
C216 C 0.87723 0.15335 0.40929 0.0
C217 C 0.82596 0.18249 0.41283 0.0
N218 N 0.86947 0.206 0.39637 0.0
C219 C 0.83807 0.20908 0.40271 0.0
O220 O 0.80231 0.04931 0.40781 0.0
C221 C 0.78037 0.07057 0.41208 0.0
O222 O 0.78863 0.0958 0.42096 0.0
H223 H 0.89301 0.13213 0.41166 0.0
H224 H 0.80128 0.18394 0.41828 0.0
C225 C 0.84894 0.96473 0.4135 0.0
C226 C 0.84557 0.93454 0.42231 0.0
C227 C 0.8458 0.96539 0.44743 0.0
C228 C 0.84781 0.99513 0.43857 0.0
N229 N 0.84965 0.99416 0.42184 0.0
N230 N 0.84446 0.93598 0.43913 0.0
H231 H 0.85066 0.96536 0.40019 0.0
C232 C 0.79491 0.14709 0.45632 0.0
O233 O 0.77205 0.14874 0.4447 0.0
O234 O 0.86668 0.02754 0.38682 0.0
H235 H 0.84737 1.01887 0.44491 0.0
H236 H 0.9138 0.17749 0.39392 0.0
H237 H 0.84455 0.96568 0.46078 0.0
Zn238 Zn 0.25899 0.60616 0.15866 0.0
C239 C 0.2024 0.65981 0.18974 0.0
N240 N 0.20919 0.6838 0.17853 0.0
C241 C 0.22445 0.66755 0.16625 0.0
N242 N 0.22689 0.6348 0.16944 0.0
N243 N 0.2108 0.62872 0.18342 0.0
C244 C 0.14914 0.54944 0.20589 0.0
O245 O 0.152 0.52451 0.19544 0.0
O246 O 0.26269 0.62084 0.1352 0.0
Zn247 Zn 0.17936 0.58836 0.17972 0.0
N248 N 0.30191 0.61222 0.16924 0.0
C249 C 0.33495 0.63829 0.18998 0.0
C250 C 0.30395 0.6321 0.18279 0.0
C251 C 0.32968 0.59761 0.16275 0.0
N252 N 0.36278 0.62416 0.18336 0.0
C253 C 0.36104 0.60372 0.16996 0.0
O254 O 0.2016 0.54325 0.17056 0.0
C255 C 0.22763 0.53502 0.16214 0.0
O256 O 0.2486 0.55713 0.15778 0.0
H257 H 0.28182 0.64388 0.18766 0.0
H258 H 0.32736 0.5822 0.15183 0.0
C259 C 0.11325 0.57885 0.16155 0.0
C260 C 0.08699 0.59023 0.15099 0.0
C261 C 0.11745 0.6404 0.14658 0.0
C262 C 0.14268 0.6294 0.15706 0.0
N263 N 0.14055 0.59908 0.16452 0.0
N264 N 0.09042 0.62088 0.14392 0.0
H265 H 0.11153 0.5548 0.16758 0.0
C266 C 0.23678 0.61876 0.12621 0.0
O267 O 0.20903 0.60695 0.13265 0.0
O268 O 0.15925 0.57827 0.20174 0.0
H269 H 0.16376 0.64526 0.15927 0.0
H270 H 0.33692 0.65447 0.20063 0.0
H271 H 0.11917 0.66458 0.14067 0.0
Zn272 Zn 0.85132 0.53608 0.58841 0.0
C273 C 0.90562 0.59342 0.55769 0.0
N274 N 0.92951 0.58703 0.56902 0.0
C275 C 0.91346 0.56998 0.58075 0.0
N276 N 0.88081 0.56699 0.5774 0.0
N277 N 0.87455 0.5846 0.56391 0.0
C278 C 0.80604 0.61477 0.53781 0.0
O279 O 0.8022 0.58383 0.54288 0.0
O280 O 0.86815 0.52903 0.61132 0.0
Zn281 Zn 0.83489 0.61713 0.56888 0.0
N282 N 0.85112 0.49468 0.57632 0.0
C283 C 0.8466 0.46658 0.5506 0.0
C284 C 0.84862 0.49609 0.55962 0.0
C285 C 0.85097 0.46503 0.58449 0.0
N286 N 0.84582 0.43694 0.55872 0.0
C287 C 0.84753 0.43506 0.57552 0.0
O288 O 0.78985 0.59722 0.57929 0.0
C289 C 0.78164 0.57111 0.58751 0.0
O290 O 0.80352 0.5492 0.59092 0.0
H291 H 0.84763 0.51999 0.55344 0.0
H292 H 0.85311 0.46531 0.59778 0.0
C293 C 0.82737 0.68358 0.5867 0.0
C294 C 0.83972 0.71022 0.59668 0.0
C295 C 0.891 0.68039 0.59952 0.0
C296 C 0.87894 0.65471 0.58965 0.0
N297 N 0.84763 0.65644 0.58322 0.0
N298 N 0.8714 0.70731 0.60266 0.0
H299 H 0.80247 0.68485 0.58152 0.0
C300 C 0.87293 0.55509 0.61992 0.0
O301 O 0.86577 0.58445 0.61355 0.0
O302 O 0.82073 0.63542 0.54717 0.0
H303 H 0.89469 0.63352 0.58713 0.0
H304 H 0.84485 0.46723 0.53726 0.0
H305 H 0.91599 0.67904 0.6046 0.0
Zn306 Zn 0.1799 0.08399 0.81749 0.0
C307 C 0.22628 0.16224 0.83089 0.0
N308 N 0.20997 0.17867 0.81901 0.0
C309 C 0.20385 0.15509 0.80751 0.0
N310 N 0.2124 0.12388 0.81364 0.0
N311 N 0.22919 0.12965 0.82742 0.0
C312 C 0.24125 0.12094 0.87024 0.0
O313 O 0.21154 0.11476 0.86404 0.0
O314 O 0.16076 0.07328 0.79528 0.0
Zn315 Zn 0.2599 0.09979 0.83832 0.0
N316 N 0.141 0.09564 0.83257 0.0
C317 C 0.11816 0.13758 0.85025 0.0
C318 C 0.14232 0.12688 0.83905 0.0
C319 C 0.11515 0.07451 0.8369 0.0
N320 N 0.09312 0.1167 0.85468 0.0
C321 C 0.09028 0.08528 0.84845 0.0
O322 O 0.24652 0.05208 0.8403 0.0
C323 C 0.2255 0.03006 0.83605 0.0
O324 O 0.20025 0.0382 0.8271 0.0
H325 H 0.1622 0.14351 0.83569 0.0
H326 H 0.11434 0.04955 0.83182 0.0
C327 C 0.33115 0.10011 0.83442 0.0
C328 C 0.36128 0.0972 0.82545 0.0
C329 C 0.3298 0.0956 0.80053 0.0
C330 C 0.30018 0.09719 0.80956 0.0
N331 N 0.30147 0.09973 0.82626 0.0
N332 N 0.35948 0.09537 0.80865 0.0
H333 H 0.33078 0.10235 0.84771 0.0
C334 C 0.1477 0.04516 0.79206 0.0
O335 O 0.14606 1.02235 0.8037 0.0
O336 O 0.26702 0.11589 0.86138 0.0
H337 H 0.27628 0.09594 0.80338 0.0
H338 H 0.1194 0.16238 0.8555 0.0
H339 H 0.32923 0.09382 0.7872 0.0
Zn340 Zn 0.69563 0.50769 0.08788 0.0
C341 C 0.64408 0.45042 0.05609 0.0
N342 N 0.61971 0.45411 0.06744 0.0
C343 C 0.63445 0.47094 0.07965 0.0
N344 N 0.667 0.4761 0.07659 0.0
N345 N 0.67445 0.45999 0.06278 0.0
C346 C 0.74402 0.43031 0.03714 0.0
O347 O 0.74767 0.46123 0.04225 0.0
O348 O 0.67843 0.51498 0.11071 0.0
Zn349 Zn 0.71409 0.42756 0.06803 0.0
N350 N 0.69621 0.54878 0.07543 0.0
C351 C 0.70374 0.57447 0.04919 0.0
C352 C 0.69993 0.5459 0.05881 0.0
C353 C 0.6968 0.57916 0.08295 0.0
N354 N 0.70497 0.60475 0.05667 0.0
C355 C 0.70169 0.60804 0.07334 0.0
O356 O 0.75852 0.44789 0.07864 0.0
C357 C 0.76604 0.47381 0.08714 0.0
O358 O 0.74368 0.4952 0.09065 0.0
H359 H 0.70094 0.52149 0.05315 0.0
H360 H 0.69533 0.58052 0.09628 0.0
C361 C 0.72192 0.36077 0.08565 0.0
C362 C 0.70958 0.33371 0.09538 0.0
C363 C 0.65782 0.36272 0.09803 0.0
C364 C 0.66985 0.38878 0.08838 0.0
N365 N 0.70141 0.38774 0.08217 0.0
N366 N 0.67767 0.33601 0.10116 0.0
H367 H 0.74702 0.35995 0.08063 0.0
C368 C 0.67412 0.48909 0.11951 0.0
O369 O 0.68171 0.45968 0.11334 0.0
O370 O 0.72908 0.40959 0.04639 0.0
H371 H 0.65385 0.40966 0.08583 0.0
H372 H 0.70671 0.57255 0.03594 0.0
H373 H 0.63263 0.36359 0.10292 0.0
Zn374 Zn 0.28691 0.94497 0.34089 0.0
C375 C 0.34172 0.88837 0.31008 0.0
N376 N 0.33503 0.86508 0.32165 0.0
C377 C 0.31927 0.88207 0.33353 0.0
N378 N 0.31706 0.91464 0.32993 0.0
N379 N 0.33373 0.91987 0.31603 0.0
C380 C 0.39611 0.99702 0.29245 0.0
O381 O 0.39406 1.02243 0.30267 0.0
O382 O 0.28011 0.92938 0.36416 0.0
Zn383 Zn 0.36654 0.95953 0.31941 0.0
N384 N 0.24528 0.94487 0.32897 0.0
C385 C 0.2171 0.94825 0.30321 0.0
C386 C 0.24666 0.947 0.31225 0.0
C387 C 0.21557 0.94458 0.33714 0.0
N388 N 0.18738 0.94854 0.31133 0.0
C389 C 0.18549 0.94711 0.32814 0.0
O390 O 0.34648 1.00581 0.32848 0.0
C391 C 0.32143 1.0144 0.3375 0.0
O392 O 0.30049 0.99265 0.3422 0.0
H393 H 0.27059 0.94816 0.30606 0.0
H394 H 0.21585 0.94262 0.35044 0.0
C395 C 0.43268 0.96813 0.33763 0.0
C396 C 0.45901 0.95621 0.34802 0.0
C397 C 0.42872 0.90567 0.35168 0.0
C398 C 0.40343 0.91722 0.34138 0.0
N399 N 0.40546 0.94798 0.33437 0.0
N400 N 0.45568 0.92513 0.35462 0.0
H401 H 0.43428 0.99254 0.33196 0.0
C402 C 0.30602 0.92496 0.37297 0.0
O403 O 0.33553 0.93182 0.36667 0.0
O404 O 0.38605 0.96846 0.29709 0.0
H405 H 0.38235 0.90146 0.33894 0.0
H406 H 0.21774 0.94971 0.28987 0.0
H407 H 0.4271 0.88113 0.35722 0.0
Zn408 Zn 0.21064 0.42922 0.42822 0.0
C409 C 0.13293 0.47634 0.4151 0.0
N410 N 0.11628 0.46089 0.42718 0.0
C411 C 0.13991 0.45434 0.43862 0.0
N412 N 0.17123 0.46216 0.43238 0.0
N413 N 0.16563 0.4786 0.41848 0.0
C414 C 0.17457 0.49522 0.37525 0.0
O415 O 0.18393 0.46517 0.3799 0.0
O416 O 0.22409 0.4117 0.45022 0.0
Zn417 Zn 0.19555 0.50943 0.40775 0.0
N418 N 0.1979 0.38973 0.41403 0.0
C419 C 0.1538 0.36507 0.39849 0.0
C420 C 0.16556 0.38995 0.40891 0.0
C421 C 0.2192 0.36437 0.40906 0.0
N422 N 0.17478 0.34051 0.39342 0.0
C423 C 0.20735 0.33884 0.39825 0.0
O424 O 0.24288 0.49497 0.4044 0.0
C425 C 0.26433 0.4731 0.40851 0.0
O426 O 0.25582 0.44849 0.41775 0.0
H427 H 0.14885 0.40949 0.41278 0.0
H428 H 0.24499 0.36448 0.41307 0.0
C429 C 0.19716 0.57991 0.41309 0.0
C430 C 0.20128 0.60919 0.42252 0.0
C431 C 0.20344 0.57589 0.44685 0.0
C432 C 0.20066 0.54706 0.43734 0.0
N433 N 0.1973 0.54969 0.42071 0.0
N434 N 0.20395 0.6061 0.43924 0.0
H435 H 0.19414 0.58064 0.39984 0.0
C436 C 0.23872 0.4326 0.45947 0.0
O437 O 0.24303 0.46327 0.4541 0.0
O438 O 0.17782 0.51942 0.38524 0.0
H439 H 0.20153 0.52273 0.44312 0.0
H440 H 0.12809 0.36536 0.39435 0.0
H441 H 0.20588 0.57427 0.46013 0.0
Zn442 Zn 0.86648 0.9584 0.17926 0.0
C443 C 0.82023 0.88003 0.16538 0.0
N444 N 0.83585 0.86346 0.17744 0.0
C445 C 0.84226 0.88709 0.18887 0.0
N446 N 0.83414 0.91834 0.18266 0.0
N447 N 0.81775 0.91267 0.16876 0.0
C448 C 0.80629 0.92266 0.12574 0.0
O449 O 0.83555 0.93079 0.13189 0.0
O450 O 0.88504 0.96842 0.20165 0.0
Zn451 Zn 0.78705 0.94228 0.15776 0.0
N452 N 0.90604 0.94701 0.16465 0.0
C453 C 0.93 0.90486 0.14747 0.0
C454 C 0.90435 0.91627 0.15762 0.0
C455 C 0.93327 0.9673 0.16156 0.0
N456 N 0.95695 0.92447 0.14469 0.0
C457 C 0.95995 0.95555 0.15131 0.0
O458 O 0.80023 0.99015 0.15599 0.0
C459 C 0.82106 1.01217 0.16049 0.0
O460 O 0.8461 1.00403 0.16958 0.0
H461 H 0.88322 0.90044 0.1599 0.0
H462 H 0.93456 0.99171 0.16724 0.0
C463 C 0.71578 0.94127 0.16149 0.0
C464 C 0.68559 0.94392 0.17043 0.0
C465 C 0.71687 0.94545 0.19539 0.0
C466 C 0.74655 0.94426 0.1864 0.0
N467 N 0.74539 0.94182 0.16969 0.0
N468 N 0.68724 0.94555 0.18723 0.0
H469 H 0.71619 0.9392 0.14819 0.0
C470 C 0.89426 0.99734 0.20613 0.0
O471 O 0.89194 1.02239 0.19571 0.0
O472 O 0.78035 0.92586 0.13468 0.0
H473 H 0.7704 0.94576 0.19262 0.0
H474 H 0.92865 0.88035 0.1419 0.0
H475 H 0.71733 0.94711 0.20873 0.0
Zn476 Zn 0.35098 0.53615 0.90798 0.0
C477 C 0.40622 0.59095 0.93923 0.0
N478 N 0.42984 0.58492 0.92769 0.0
C479 C 0.4133 0.5694 0.91563 0.0
N480 N 0.38065 0.56672 0.91909 0.0
N481 N 0.37491 0.58293 0.93306 0.0
C482 C 0.29244 0.64252 0.95491 0.0
O483 O 0.27025 0.64304 0.94296 0.0
O484 O 0.36892 0.52741 0.88537 0.0
Zn485 Zn 0.33485 0.61548 0.92947 0.0
N486 N 0.34961 0.49499 0.9203 0.0
C487 C 0.34485 0.46691 0.94604 0.0
C488 C 0.3473 0.4964 0.93701 0.0
C489 C 0.34901 0.46535 0.91214 0.0
N490 N 0.34363 0.43729 0.93791 0.0
C491 C 0.34526 0.4354 0.92111 0.0
O492 O 0.29005 0.59581 0.91882 0.0
C493 C 0.28181 0.57163 0.90927 0.0
O494 O 0.30351 0.55026 0.90484 0.0
H495 H 0.34696 0.52029 0.94322 0.0
H496 H 0.35118 0.4656 0.89885 0.0
C497 C 0.32616 0.68257 0.91199 0.0
C498 C 0.3385 0.71002 0.90252 0.0
C499 C 0.39094 0.682 0.90046 0.0
C500 C 0.37889 0.65555 0.90983 0.0
N501 N 0.347 0.65594 0.91565 0.0
N502 N 0.37075 0.7084 0.89717 0.0
H503 H 0.3008 0.68285 0.91667 0.0
C504 C 0.3724 0.55184 0.87553 0.0
O505 O 0.36308 0.58182 0.88032 0.0
O506 O 0.32192 0.6322 0.95191 0.0
H507 H 0.39516 0.63486 0.91251 0.0
H508 H 0.34322 0.46755 0.95937 0.0
H509 H 0.41639 0.68171 0.8959 0.0
Zn510 Zn 0.76011 0.10102 0.65858 0.0
C511 C 0.70553 0.15679 0.68977 0.0
N512 N 0.71162 0.18027 0.6782 0.0
C513 C 0.727 0.16352 0.66612 0.0
N514 N 0.72963 0.13094 0.66963 0.0
N515 N 0.71349 0.12541 0.68364 0.0
C516 C 0.64817 0.04779 0.70589 0.0
O517 O 0.64558 0.02492 0.69433 0.0
O518 O 0.76681 0.11705 0.63539 0.0
Zn519 Zn 0.68074 0.08567 0.68011 0.0
N520 N 0.8017 0.10099 0.67055 0.0
C521 C 0.82969 0.09713 0.69635 0.0
C522 C 0.8002 0.09866 0.68726 0.0
C523 C 0.83148 0.10116 0.66244 0.0
N524 N 0.85946 0.09671 0.68828 0.0
C525 C 0.86148 0.09829 0.67148 0.0
O526 O 0.70077 0.03965 0.6706 0.0
C527 C 0.72584 0.03138 0.66152 0.0
O528 O 0.74671 0.05333 0.65697 0.0
H529 H 0.77623 0.09753 0.69342 0.0
H530 H 0.83129 0.10321 0.64913 0.0
C531 C 0.61645 0.07618 0.66029 0.0
C532 C 0.59119 0.08773 0.64917 0.0
C533 C 0.61728 0.14109 0.64913 0.0
C534 C 0.64182 0.12965 0.65989 0.0
N535 N 0.6416 0.09753 0.66529 0.0
N536 N 0.59296 0.12005 0.64404 0.0
H537 H 0.61645 0.05057 0.66455 0.0
C538 C 0.74078 0.12121 0.62664 0.0
O539 O 0.7114 0.11396 0.63298 0.0
O540 O 0.66194 0.07549 0.70248 0.0
H541 H 0.66105 0.14649 0.66384 0.0
H542 H 0.82896 0.09553 0.70968 0.0
H543 H 0.61763 0.16662 0.64476 0.0
C544 C 0.26103 0.49304 0.14546 0.0
C545 C 0.23401 0.49956 0.15629 0.0
C546 C 0.26754 0.46085 0.1393 0.0
C547 C 0.25266 0.36992 0.14677 0.0
H548 H 0.28584 0.36106 0.10192 0.0
C549 C 0.32047 0.24945 0.12343 0.0
C550 C 0.31726 0.23887 0.10688 0.0
C551 C 0.30595 0.27938 0.12909 0.0
C552 C 0.27631 0.36279 0.11442 0.0
H553 H 0.19281 0.47587 0.16908 0.0
H554 H 0.20443 0.41935 0.15846 0.0
H555 H 0.26894 0.41578 0.11234 0.0
H556 H 0.2953 0.25228 0.08336 0.0
H557 H 0.26987 0.30476 0.09319 0.0
H558 H 0.2603 0.31692 0.14887 0.0
C559 C 0.22064 0.43961 0.15474 0.0
C560 C 0.2669 0.39449 0.12052 0.0
C561 C 0.21386 0.47218 0.16083 0.0
C562 C 0.29808 0.25915 0.09622 0.0
C563 C 0.28382 0.28958 0.10186 0.0
C564 C 0.26237 0.33823 0.14071 0.0
C565 C 0.24751 0.4334 0.14372 0.0
C566 C 0.25528 0.39883 0.13689 0.0
C567 C 0.28783 0.30046 0.1184 0.0
C568 C 0.27478 0.33405 0.12446 0.0
H569 H 0.27742 0.51303 0.14155 0.0
H570 H 0.28882 0.45747 0.13117 0.0
H571 H 0.24404 0.37186 0.15942 0.0
H572 H 0.33505 0.23478 0.13208 0.0
H573 H 0.31017 0.2866 0.14181 0.0
C574 C 0.30563 0.50154 0.38954 0.0
C575 C 0.29959 0.47768 0.40205 0.0
C576 C 0.33799 0.50782 0.38354 0.0
C577 C 0.42868 0.50014 0.39412 0.0
H578 H 0.44073 0.52453 0.34812 0.0
C579 C 0.54714 0.57045 0.37088 0.0
C580 C 0.55982 0.56512 0.3548 0.0
C581 C 0.51754 0.55518 0.37637 0.0
C582 C 0.43814 0.51746 0.36097 0.0
H583 H 0.32413 0.44154 0.41786 0.0
H584 H 0.38095 0.45258 0.40741 0.0
H585 H 0.38606 0.50617 0.3579 0.0
H586 H 0.55056 0.53849 0.332 0.0
H587 H 0.49876 0.51161 0.34157 0.0
H588 H 0.48078 0.51153 0.39718 0.0
C589 C 0.36021 0.46659 0.40228 0.0
C590 C 0.40642 0.50723 0.36669 0.0
C591 C 0.32748 0.46003 0.40824 0.0
C592 C 0.54204 0.54305 0.3445 0.0
C593 C 0.51197 0.52792 0.34998 0.0
C594 C 0.46037 0.51057 0.38842 0.0
C595 C 0.36605 0.49067 0.38979 0.0
C596 C 0.40088 0.49885 0.38344 0.0
C597 C 0.49896 0.53402 0.36599 0.0
C598 C 0.46566 0.51993 0.37177 0.0
H599 H 0.28517 0.51583 0.38432 0.0
H600 H 0.34099 0.52691 0.37419 0.0
H601 H 0.42578 0.49412 0.40709 0.0
H602 H 0.55987 0.58719 0.37927 0.0
H603 H 0.5086 0.5611 0.38866 0.0
C604 C 0.2543 0.79285 0.59575 0.0
C605 C 0.23305 0.81178 0.60608 0.0
C606 C 0.26914 0.76274 0.60144 0.0
C607 C 0.28722 0.71272 0.64034 0.0
H608 H 0.28878 0.63692 0.6107 0.0
C609 C 0.3364 0.57945 0.66097 0.0
C610 C 0.3181 0.55176 0.65519 0.0
C611 C 0.32997 0.61209 0.65486 0.0
C612 C 0.28851 0.6577 0.61925 0.0
H613 H 0.21218 0.81381 0.63081 0.0
H614 H 0.23781 0.76249 0.64057 0.0
H615 H 0.2711 0.69147 0.60046 0.0
H616 H 0.2787 0.53771 0.63809 0.0
H617 H 0.26785 0.59332 0.62774 0.0
H618 H 0.30383 0.67867 0.65923 0.0
C619 C 0.24331 0.77055 0.62809 0.0
C620 C 0.27867 0.68935 0.61326 0.0
C621 C 0.22832 0.80019 0.62239 0.0
C622 C 0.29356 0.55797 0.643 0.0
C623 C 0.2874 0.59021 0.63686 0.0
C624 C 0.29727 0.68107 0.64631 0.0
C625 C 0.26357 0.7508 0.6177 0.0
C626 C 0.27724 0.71744 0.62374 0.0
C627 C 0.30535 0.61804 0.64261 0.0
C628 C 0.29753 0.65275 0.63596 0.0
H629 H 0.25837 0.80051 0.58308 0.0
H630 H 0.28476 0.74863 0.59301 0.0
H631 H 0.28705 0.73354 0.64887 0.0
H632 H 0.35548 0.57599 0.6703 0.0
H633 H 0.34458 0.63264 0.65963 0.0
C634 C 0.21864 0.58469 0.90898 0.0
C635 C 0.24657 0.56701 0.90282 0.0
C636 C 0.18597 0.57827 0.90295 0.0
C637 C 0.14016 0.53786 0.86723 0.0
H638 H 0.06523 0.53417 0.89751 0.0
C639 C 1.00469 0.50279 0.84469 0.0
C640 C 0.98653 0.48097 0.855 0.0
C641 C 0.03478 0.51773 0.85022 0.0
C642 C 0.08579 0.53496 0.8888 0.0
H643 H 0.26111 0.52888 0.88509 0.0
H644 H 0.2054 0.51799 0.87486 0.0
H645 H 0.12015 0.55123 0.90755 0.0
H646 H 0.98583 0.45914 0.87953 0.0
H647 H 0.03714 0.48489 0.889 0.0
H648 H 0.10607 0.52072 0.84858 0.0
C649 C 0.20833 0.53705 0.88423 0.0
C650 C 0.11746 0.54519 0.89458 0.0
C651 C 0.24063 0.54321 0.89029 0.0
C652 C 0.99886 0.4757 0.87113 0.0
C653 C 0.02848 0.49077 0.87667 0.0
C654 C 0.10848 0.52781 0.86143 0.0
C655 C 0.18024 0.55426 0.89042 0.0
C656 C 0.14546 0.54626 0.88399 0.0
C657 C 0.04744 0.51168 0.8663 0.0
C658 C 0.08074 0.52557 0.87215 0.0
H659 H 0.22191 0.60316 0.91861 0.0
H660 H 0.16522 0.59233 0.90805 0.0
H661 H 0.16068 0.53877 0.8585 0.0
H662 H 0.99645 0.5073 0.83215 0.0
H663 H 0.04828 0.53385 0.84181 0.0
C664 C 0.78209 0.55922 0.8496 0.0
C665 C 0.81378 0.5514 0.84286 0.0
C666 C 0.77445 0.59119 0.85565 0.0
C667 C 0.81052 0.67152 0.87121 0.0
H668 H 0.7201 0.70302 0.86368 0.0
C669 C 0.75892 0.80459 0.89316 0.0
C670 C 0.72496 0.80598 0.89794 0.0
C671 C 0.77303 0.77477 0.88658 0.0
C672 C 0.74538 0.69468 0.86618 0.0
H673 H 0.86245 0.57247 0.83754 0.0
H674 H 0.84905 0.62876 0.84818 0.0
H675 H 0.73831 0.65057 0.85168 0.0
H676 H 0.68024 0.77591 0.90034 0.0
H677 H 0.7045 0.72493 0.88953 0.0
H678 H 0.81724 0.71608 0.88585 0.0
C679 C 0.83005 0.60959 0.84874 0.0
C680 C 0.75595 0.66428 0.85919 0.0
C681 C 0.83773 0.57726 0.8425 0.0
C682 C 0.70631 0.77627 0.89666 0.0
C683 C 0.72027 0.7468 0.89024 0.0
C684 C 0.79983 0.70219 0.87829 0.0
C685 C 0.79807 0.61719 0.85533 0.0
C686 C 0.78848 0.65161 0.8618 0.0
C687 C 0.7536 0.74552 0.88457 0.0
C688 C 0.76674 0.71402 0.87619 0.0
H689 H 0.76272 0.54042 0.85028 0.0
H690 H 0.74981 0.59533 0.86084 0.0
H691 H 0.83574 0.66288 0.8736 0.0
H692 H 0.77413 0.82687 0.89375 0.0
H693 H 0.7988 0.77508 0.88245 0.0
C694 C 0.52183 0.45799 0.64658 0.0
C695 C 0.49184 0.47644 0.64783 0.0
C696 C 0.55165 0.47264 0.64104 0.0
C697 C 0.58635 0.54274 0.61596 0.0
H698 H 0.66971 0.51368 0.63572 0.0
C699 C 0.72047 0.58875 0.59328 0.0
C700 C 0.7464 0.56473 0.59368 0.0
C701 C 0.68846 0.5817 0.60009 0.0
C702 C 0.64683 0.52192 0.62983 0.0
H703 H 0.47036 0.52553 0.64401 0.0
H704 H 0.52278 0.5514 0.63422 0.0
H705 H 0.61693 0.49551 0.64748 0.0
H706 H 0.75755 0.5138 0.6012 0.0
H707 H 0.70309 0.5018 0.61254 0.0
H708 H 0.61672 0.56883 0.5981 0.0
C709 C 0.523 0.52528 0.63767 0.0
C710 C 0.61626 0.51146 0.63668 0.0
C711 C 0.49294 0.51056 0.6435 0.0
C712 C 0.73883 0.5334 0.60074 0.0
C713 C 0.70725 0.52645 0.60745 0.0
C714 C 0.61717 0.5532 0.60902 0.0
C715 C 0.55291 0.50645 0.63627 0.0
C716 C 0.58537 0.52101 0.62972 0.0
C717 C 0.68146 0.55048 0.60755 0.0
C718 C 0.64806 0.54232 0.61561 0.0
H719 H 0.52217 0.43166 0.64966 0.0
H720 H 0.57366 0.45694 0.64001 0.0
H721 H 0.56329 0.55067 0.61014 0.0
H722 H 0.72503 0.61315 0.58798 0.0
H723 H 0.66946 0.60102 0.59984 0.0
C724 C 0.78566 0.24204 0.39383 0.0
C725 C 0.81943 0.24106 0.39887 0.0
C726 C 0.77104 0.27207 0.38784 0.0
C727 C 0.78388 0.36536 0.3874 0.0
H728 H 0.72929 0.36587 0.34787 0.0
C729 C 0.76287 0.48805 0.35144 0.0
C730 C 0.73195 0.49543 0.34382 0.0
C731 C 0.76978 0.45651 0.35819 0.0
C732 C 0.74413 0.36631 0.35905 0.0
H733 H 0.86365 0.27159 0.40179 0.0
H734 H 0.83853 0.32301 0.39186 0.0
H735 H 0.7472 0.31253 0.36008 0.0
H736 H 0.68425 0.47375 0.33721 0.0
H737 H 0.6963 0.41827 0.34914 0.0
H738 H 0.78111 0.41871 0.38653 0.0
C739 C 0.823 0.30094 0.39246 0.0
C740 C 0.75445 0.33553 0.3661 0.0
C741 C 0.83757 0.27115 0.39818 0.0
C742 C 0.70833 0.46935 0.34293 0.0
C743 C 0.71534 0.43738 0.34978 0.0
C744 C 0.77357 0.39589 0.38044 0.0
C745 C 0.78959 0.30209 0.38697 0.0
C746 C 0.77518 0.33452 0.38022 0.0
C747 C 0.74612 0.43055 0.35779 0.0
C748 C 0.75416 0.39716 0.36589 0.0
H749 H 0.77095 0.21939 0.3939 0.0
H750 H 0.74522 0.27173 0.38383 0.0
H751 H 0.79901 0.36602 0.39848 0.0
H752 H 0.78217 0.50688 0.3523 0.0
H753 H 0.79412 0.45251 0.36371 0.0
C754 C 0.80836 0.51237 0.10011 0.0
C755 C 0.8012 0.48083 0.09318 0.0
C756 C 0.84024 0.52026 0.10613 0.0
C757 C 0.92129 0.48519 0.12145 0.0
H758 H 0.9515 0.57559 0.1135 0.0
C759 C 0.05386 0.53771 0.14286 0.0
C760 C 0.05497 0.57173 0.14734 0.0
C761 C 0.02407 0.52337 0.1365 0.0
C762 C 0.94351 0.55034 0.11613 0.0
H763 H 0.82326 0.4327 0.08751 0.0
H764 H 0.87939 0.44654 0.09817 0.0
H765 H 0.89915 0.55688 0.10168 0.0
H766 H 0.02462 0.61643 0.14947 0.0
H767 H 0.97353 0.59176 0.13911 0.0
H768 H 0.96601 0.479 0.13607 0.0
C769 C 0.85978 0.4652 0.09887 0.0
C770 C 0.9132 0.53947 0.10923 0.0
C771 C 0.82755 0.45728 0.09264 0.0
C772 C 0.02507 0.59028 0.14605 0.0
C773 C 0.99559 0.57608 0.13986 0.0
C774 C 0.95184 0.49618 0.12846 0.0
C775 C 0.86674 0.49704 0.10561 0.0
C776 C 0.90104 0.50694 0.11198 0.0
C777 C 0.99459 0.54267 0.13444 0.0
C778 C 0.96319 0.52927 0.1262 0.0
H779 H 0.78914 0.53144 0.10091 0.0
H780 H 0.84396 0.54479 0.11144 0.0
H781 H 0.91299 0.45998 0.12394 0.0
H782 H 0.07636 0.52263 0.14346 0.0
H783 H 0.0246 0.49756 0.13254 0.0
C784 C 0.76346 0.98838 0.64825 0.0
C785 C 0.73238 0.99594 0.65571 0.0
C786 C 0.77041 0.95677 0.64161 0.0
C787 C 0.7448 0.86668 0.64072 0.0
H788 H 0.79978 0.86669 0.60124 0.0
C789 C 0.78716 0.74279 0.60577 0.0
C790 C 0.82098 0.74203 0.60075 0.0
C791 C 0.77234 0.77267 0.61183 0.0
C792 C 0.78462 0.86595 0.61233 0.0
H793 H 0.68451 0.97448 0.66227 0.0
H794 H 0.69667 0.9188 0.65054 0.0
H795 H 0.78159 0.91928 0.61319 0.0
H796 H 0.86508 0.77282 0.59795 0.0
H797 H 0.83963 0.82397 0.60802 0.0
H798 H 0.74815 0.81291 0.63969 0.0
C799 C 0.71576 0.93786 0.64991 0.0
C800 C 0.77413 0.89641 0.61929 0.0
C801 C 0.7087 0.96992 0.65666 0.0
C802 C 0.83898 0.77219 0.60157 0.0
C803 C 0.82422 0.80183 0.60734 0.0
C804 C 0.75529 0.83596 0.63367 0.0
C805 C 0.74664 0.93092 0.64198 0.0
C806 C 0.75471 0.89757 0.63386 0.0
C807 C 0.79074 0.80276 0.61279 0.0
C808 C 0.77608 0.83507 0.61953 0.0
H809 H 0.78283 1.00715 0.64738 0.0
H810 H 0.79483 0.95266 0.63617 0.0
H811 H 0.72994 0.86617 0.65191 0.0
H812 H 0.77253 0.72009 0.60561 0.0
H813 H 0.74647 0.77218 0.6158 0.0
C814 C 0.04913 0.0698 0.87079 0.0
C815 C 0.06121 0.06452 0.8546 0.0
C816 C 1.01955 0.05479 0.8765 0.0
C817 C 0.93922 1.01784 0.86165 0.0
H818 H 0.9278 0.99504 0.90789 0.0
C819 C 0.80714 1.00306 0.89087 0.0
C820 C 0.8011 0.97945 0.90351 0.0
C821 C 0.83945 1.00909 0.88475 0.0
C822 C 0.93041 1.00091 0.8949 0.0
H823 H 0.05088 0.03821 0.83182 0.0
H824 H 0.99914 1.01175 0.84177 0.0
H825 H 0.9827 1.01185 0.89761 0.0
H826 H 0.8257 0.94355 0.91943 0.0
H827 H 0.88246 0.95416 0.90876 0.0
H828 H 0.88698 1.00695 0.85892 0.0
C829 C 1.0128 0.02784 0.8501 0.0
C830 C 0.96207 1.01101 0.88897 0.0
C831 C 0.04285 0.04272 0.84441 0.0
C832 C 0.82902 0.96186 0.90972 0.0
C833 C 0.86173 0.96816 0.90362 0.0
C834 C 0.90755 1.00793 0.86759 0.0
C835 C 1.00036 0.03393 0.86624 0.0
C836 C 0.96705 1.02018 0.87226 0.0
C837 C 0.86753 0.99194 0.89097 0.0
C838 C 0.90232 0.99976 0.8844 0.0
H839 H 0.06231 0.08635 0.87911 0.0
H840 H 1.0111 0.06072 0.88887 0.0
H841 H 0.94153 0.02476 0.84876 0.0
H842 H 0.78669 1.01733 0.88562 0.0
H843 H 0.8424 0.02798 0.87529 0.0
C844 C 0.83802 0.07379 0.15607 0.0
C845 C 0.81473 0.04755 0.15454 0.0
C846 C 0.83125 0.1059 0.14933 0.0
C847 C 0.77539 0.14751 0.11773 0.0
H848 H 0.79836 0.2307 0.13925 0.0
C849 C 0.7109 0.27154 0.09941 0.0
C850 C 0.72849 0.30198 0.09935 0.0
C851 C 0.72549 0.24186 0.10523 0.0
C852 C 0.7921 0.20776 0.13292 0.0
H853 H 0.76527 0.03594 0.14505 0.0
H854 H 0.75374 0.09054 0.13381 0.0
H855 H 0.81598 0.17729 0.15151 0.0
H856 H 0.77599 0.32442 0.10562 0.0
H857 H 0.80178 0.27226 0.11587 0.0
H858 H 0.75123 0.17747 0.09931 0.0
C859 C 0.77766 0.08657 0.13977 0.0
C860 C 0.80224 0.17695 0.13999 0.0
C861 C 0.78433 0.0549 0.14642 0.0
C862 C 0.76175 0.30149 0.10516 0.0
C863 C 0.77638 0.27156 0.11127 0.0
C864 C 0.76526 0.17806 0.11073 0.0
C865 C 0.80106 0.11268 0.14079 0.0
C866 C 0.79338 0.14616 0.13271 0.0
C867 C 0.75835 0.24118 0.11148 0.0
C868 C 0.77272 0.20883 0.11833 0.0
H869 H 0.86169 0.0694 0.1622 0.0
H870 H 0.85004 0.12516 0.15046 0.0
H871 H 0.7688 0.12474 0.11133 0.0
H872 H 0.6852 0.27073 0.09519 0.0
H873 H 0.71035 0.2195 0.10532 0.0
C874 C 0.73704 0.0324 0.39976 0.0
C875 C 0.74483 0.06398 0.40648 0.0
C876 C 0.70498 0.02491 0.39386 0.0
C877 C 0.62462 0.06079 0.37828 0.0
H878 H 0.59321 0.97094 0.38665 0.0
C879 C 0.49202 1.00872 0.35641 0.0
C880 C 0.49094 0.97466 0.35198 0.0
C881 C 0.52169 0.02304 0.36293 0.0
C882 C 0.60153 0.99605 0.38392 0.0
H883 H 0.72366 0.11258 0.41197 0.0
H884 H 0.66712 0.09942 0.40153 0.0
H885 H 0.64553 0.98938 0.39861 0.0
H886 H 0.52131 0.92991 0.35009 0.0
H887 H 0.57212 0.95452 0.36077 0.0
H888 H 0.58024 0.06708 0.3634 0.0
C889 C 0.68642 0.08043 0.40089 0.0
C890 C 0.63181 1.00676 0.3909 0.0
C891 C 0.71886 0.08795 0.40701 0.0
C892 C 0.52078 0.95607 0.3535 0.0
C893 C 0.55012 0.97023 0.35985 0.0
C894 C 0.59407 0.04996 0.3712 0.0
C895 C 0.67889 0.04857 0.3943 0.0
C896 C 0.64444 0.03906 0.38797 0.0
C897 C 0.55106 1.00369 0.36521 0.0
C898 C 0.58233 1.01705 0.37359 0.0
H899 H 0.75592 1.013 0.39898 0.0
H900 H 0.70083 1.00034 0.38868 0.0
H901 H 0.63328 0.08583 0.37565 0.0
H902 H 0.46959 0.02386 0.35563 0.0
H903 H 0.52115 0.04889 0.36683 0.0
C904 C 0.33824 0.0762 0.34129 0.0
C905 C 0.31479 0.05009 0.34284 0.0
C906 C 0.33072 0.10888 0.34709 0.0
C907 C 0.25706 0.16341 0.3578 0.0
H908 H 0.31987 0.21886 0.38164 0.0
C909 C 0.22026 0.29807 0.37549 0.0
C910 C 0.22801 0.31032 0.39136 0.0
C911 C 0.23452 0.26849 0.36937 0.0
C912 C 0.30191 0.20369 0.37507 0.0
H913 H 0.2648 0.03897 0.35188 0.0
H914 H 0.25217 0.0945 0.36166 0.0
H915 H 0.33762 0.16386 0.37116 0.0
H916 H 0.25854 0.30074 0.41294 0.0
H917 H 0.28365 0.24873 0.40221 0.0
H918 H 0.22119 0.20233 0.3618 0.0
C919 C 0.27628 0.09026 0.3559 0.0
C920 C 0.31225 0.17217 0.36887 0.0
C921 C 0.28377 0.05796 0.35029 0.0
C922 C 0.25204 0.29248 0.40063 0.0
C923 C 0.26639 0.26247 0.39445 0.0
C924 C 0.24687 0.19473 0.36384 0.0
C925 C 0.2994 0.1165 0.35439 0.0
C926 C 0.28984 0.1513 0.36024 0.0
C927 C 0.2571 0.24944 0.37885 0.0
C928 C 0.26897 0.21561 0.37261 0.0
H929 H 0.36243 0.07136 0.33574 0.0
H930 H 0.34926 0.1283 0.34561 0.0
H931 H 0.23896 0.1486 0.35111 0.0
H932 H 0.20228 0.31108 0.3678 0.0
H933 H 0.22727 0.26027 0.35715 0.0
C934 C 1.02173 0.95571 0.14566 0.0
C935 C 0.99189 0.97421 0.14748 0.0
C936 C 0.05109 0.97025 0.1395 0.0
C937 C 0.0953 0.05057 0.12949 0.0
H938 H 0.14674 0.99183 0.10105 0.0
C939 C 0.22055 0.09059 0.09437 0.0
C940 C 0.24638 0.06644 0.09443 0.0
C941 C 0.18805 0.0828 0.1004 0.0
C942 C 0.13304 1.00869 0.10906 0.0
H943 H 0.97061 0.02366 0.1446 0.0
H944 H 1.02224 0.04935 0.13376 0.0
H945 H 0.09425 0.97274 0.11267 0.0
H946 H 0.25717 1.01489 0.10102 0.0
H947 H 0.20201 1.00181 0.11119 0.0
H948 H 0.13471 0.08657 0.12569 0.0
C949 C 1.02273 0.02325 0.13725 0.0
C950 C 0.10265 0.9976 0.11584 0.0
C951 C 0.99302 1.00855 0.14356 0.0
C952 C 0.23841 0.03445 0.10062 0.0
C953 C 0.2063 0.02671 0.10643 0.0
C954 C 0.12597 0.06178 0.12263 0.0
C955 C 0.0521 1.00403 0.13467 0.0
C956 C 0.08345 1.0179 0.12652 0.0
C957 C 0.18033 0.05051 0.10642 0.0
C958 C 0.14578 0.04069 0.11257 0.0
H959 H 1.02226 0.92936 0.14868 0.0
H960 H 0.07309 0.95458 0.13833 0.0
H961 H 0.08148 0.06716 0.13758 0.0
H962 H 0.22546 0.11552 0.08982 0.0
H963 H 0.16886 0.10193 0.10011 0.0
C964 C 0.3362 0.77223 0.89865 0.0
C965 C 0.3192 0.74145 0.89837 0.0
C966 C 0.32142 0.8017 0.89267 0.0
C967 C 0.25569 0.83484 0.86411 0.0
H968 H 0.27667 0.91818 0.88598 0.0
C969 C 0.20887 0.96829 0.84048 0.0
C970 C 0.23184 0.99478 0.84218 0.0
C971 C 0.21572 0.93626 0.84732 0.0
C972 C 0.27072 0.89531 0.8795 0.0
H973 H 0.27254 0.71821 0.89134 0.0
H974 H 0.24641 0.76999 0.88083 0.0
H975 H 0.29446 0.8657 0.8982 0.0
H976 H 0.28079 1.0069 0.85215 0.0
H977 H 0.29241 0.95251 0.86358 0.0
H978 H 0.23219 0.86498 0.84527 0.0
C979 C 0.2715 0.77112 0.88581 0.0
C980 C 0.28099 0.8649 0.88661 0.0
C981 C 0.28631 0.7414 0.89207 0.0
C982 C 0.26198 0.98775 0.85061 0.0
C983 C 0.26869 0.95619 0.85738 0.0
C984 C 0.24538 0.86551 0.85693 0.0
C985 C 0.28894 0.80185 0.88593 0.0
C986 C 0.2744 0.83402 0.87892 0.0
C987 C 0.24564 0.92982 0.85616 0.0
C988 C 0.25341 0.89643 0.86432 0.0
H989 H 0.36161 0.77347 0.90325 0.0
H990 H 0.33614 0.82433 0.89286 0.0
H991 H 0.25009 0.81182 0.8577 0.0
H992 H 0.18541 0.97239 0.83411 0.0
H993 H 0.19719 0.91679 0.84602 0.0
C994 C 0.3109 1.01302 0.59972 0.0
C995 C 0.30312 0.98184 0.59255 0.0
C996 C 0.3431 1.02038 0.6055 0.0
C997 C 0.42452 0.98398 0.61956 0.0
H998 H 0.45556 0.07421 0.61187 0.0
C999 C 0.54447 0.04368 0.65165 0.0
C1000 C 0.56281 0.06707 0.64227 0.0
C1001 C 0.5145 0.02952 0.6454 0.0
C1002 C 0.44771 0.04875 0.6141 0.0
H1003 H 0.32447 0.93377 0.58616 0.0
H1004 H 0.38122 0.94669 0.59634 0.0
H1005 H 0.40197 0.05679 0.60093 0.0
H1006 H 0.56449 0.09178 0.61844 0.0
H1007 H 0.51375 0.06713 0.60768 0.0
H1008 H 0.47081 0.97622 0.63278 0.0
C1009 C 0.36181 0.96548 0.59745 0.0
C1010 C 0.41646 0.03878 0.60791 0.0
C1011 C 0.32924 0.9581 0.59147 0.0
C1012 C 0.5511 0.07431 0.62623 0.0
C1013 C 0.52155 0.06025 0.62004 0.0
C1014 C 0.45595 0.99411 0.62591 0.0
C1015 C 0.36934 0.99695 0.60448 0.0
C1016 C 0.40404 1.00629 0.61055 0.0
C1017 C 0.502 0.03836 0.62961 0.0
C1018 C 0.4682 0.02675 0.62324 0.0
H1019 H 0.2919 0.03222 0.60093 0.0
H1020 H 0.34726 0.04463 0.61102 0.0
H1021 H 0.41598 0.95883 0.62202 0.0
H1022 H 0.5523 0.03759 0.66409 0.0
H1023 H 0.50037 1.01279 0.65324 0.0
C1024 C 0.27637 0.13676 0.89445 0.0
C1025 C 0.24464 0.13377 0.88721 0.0
C1026 C 0.27943 0.14566 0.91103 0.0
C1027 C 0.28129 0.17173 0.94599 0.0
H1028 H 0.22005 0.12181 0.97371 0.0
C1029 C 0.30027 0.15853 0.01658 0.0
C1030 C 0.29706 0.12564 0.02245 0.0
C1031 C 0.28964 0.16686 0.00065 0.0
C1032 C 0.23728 0.13601 0.96615 0.0
H1033 H 0.19138 0.14074 0.89116 0.0
H1034 H 0.19675 0.15673 0.92008 0.0
H1035 H 0.21002 0.12518 0.94419 0.0
H1036 H 0.27991 0.07582 0.01631 0.0
H1037 H 0.26198 0.09014 0.98857 0.0
H1038 H 0.30982 0.18045 0.96791 0.0
C1039 C 0.21922 0.15127 0.91308 0.0
C1040 C 0.23129 0.13837 0.94923 0.0
C1041 C 0.21615 0.14212 0.89652 0.0
C1042 C 0.28267 0.1014 0.01218 0.0
C1043 C 0.27209 0.1097 0.99632 0.0
C1044 C 0.2874 0.16918 0.96294 0.0
C1045 C 0.25082 0.15203 0.92067 0.0
C1046 C 0.25385 0.15527 0.93887 0.0
C1047 C 0.27555 0.14246 0.99034 0.0
C1048 C 0.2661 0.15024 0.97307 0.0
H1049 H 0.29883 0.1309 0.88751 0.0
H1050 H 0.30415 0.14568 0.91648 0.0
H1051 H 0.2988 0.18544 0.93837 0.0
H1052 H 0.31117 0.17779 0.02425 0.0
H1053 H 0.29246 0.19235 0.9964 0.0
C1054 C 0.6392 0.54689 0.26569 0.0
C1055 C 0.67253 0.5442 0.27107 0.0
C1056 C 0.63013 0.53584 0.24996 0.0
C1057 C 0.6601 0.48359 0.21512 0.0
H1058 H 0.60814 0.54442 0.18802 0.0
C1059 C 0.65688 0.52351 0.14377 0.0
C1060 C 0.66074 0.492 0.13641 0.0
C1061 C 0.64785 0.52614 0.16036 0.0
C1062 C 0.62253 0.52708 0.19545 0.0
H1063 H 0.72238 0.52749 0.26429 0.0
H1064 H 0.70678 0.50886 0.23684 0.0
H1065 H 0.61427 0.55544 0.21748 0.0
H1066 H 0.65496 0.43867 0.1401 0.0
H1067 H 0.63872 0.44329 0.16905 0.0
H1068 H 0.67054 0.45659 0.19301 0.0
C1069 C 0.68745 0.51887 0.24484 0.0
C1070 C 0.62574 0.53319 0.21236 0.0
C1071 C 0.69648 0.52986 0.26053 0.0
C1072 C 0.65294 0.46328 0.14557 0.0
C1073 C 0.64363 0.46592 0.16214 0.0
C1074 C 0.65709 0.47761 0.19823 0.0
C1075 C 0.65424 0.52186 0.23935 0.0
C1076 C 0.64565 0.51219 0.22222 0.0
C1077 C 0.6422 0.49731 0.16988 0.0
C1078 C 0.63931 0.49997 0.1881 0.0
H1079 H 0.62014 0.55771 0.27359 0.0
H1080 H 0.60432 0.53828 0.24608 0.0
H1081 H 0.67502 0.46658 0.22249 0.0
H1082 H 0.6623 0.54613 0.13694 0.0
H1083 H 0.64728 0.55072 0.16592 0.0
C1084 C 0.23396 0.88711 0.51409 0.0
C1085 C 0.25926 0.88712 0.52613 0.0
C1086 C 0.2417 0.8811 0.49754 0.0
C1087 C 0.31037 0.89332 0.46892 0.0
H1088 H 0.25268 0.84687 0.43812 0.0
C1089 C 0.33197 0.90414 0.39911 0.0
C1090 C 0.30315 0.91112 0.38981 0.0
C1091 C 0.32926 0.89274 0.41536 0.0
C1092 C 0.26899 0.86 0.44656 0.0
H1093 H 0.31224 0.87899 0.53039 0.0
H1094 H 0.32577 0.86871 0.50139 0.0
H1095 H 0.24289 0.84153 0.46782 0.0
H1096 H 0.2489 0.90976 0.38988 0.0
H1097 H 0.24414 0.89085 0.41835 0.0
H1098 H 0.33543 0.91321 0.44783 0.0
C1099 C 0.29999 0.87356 0.5048 0.0
C1100 C 0.26345 0.85683 0.46355 0.0
C1101 C 0.29222 0.87935 0.52139 0.0
C1102 C 0.27159 0.90501 0.39681 0.0
C1103 C 0.26887 0.89378 0.41308 0.0
C1104 C 0.31577 0.89666 0.45197 0.0
C1105 C 0.27492 0.87513 0.49267 0.0
C1106 C 0.28362 0.87411 0.47487 0.0
C1107 C 0.29768 0.88821 0.42267 0.0
C1108 C 0.29464 0.88071 0.44058 0.0
H1109 H 0.20828 0.89281 0.51736 0.0
H1110 H 0.22188 0.88281 0.48846 0.0
H1111 H 0.32603 0.90733 0.47732 0.0
H1112 H 0.35667 0.90799 0.39395 0.0
H1113 H 0.35194 0.88805 0.4223 0.0
C1114 C 0.8532 0.51878 0.76062 0.0
C1115 C 0.87651 0.50343 0.77113 0.0
C1116 C 0.86278 0.52966 0.74498 0.0
C1117 C 0.92398 0.51298 0.7125 0.0
H1118 H 0.88121 0.59048 0.69296 0.0
C1119 C 0.89593 0.58134 0.64544 0.0
C1120 C 0.8869 0.55249 0.63669 0.0
C1121 C 0.90613 0.57909 0.66188 0.0
C1122 C 0.89414 0.56919 0.69823 0.0
H1123 H 0.92839 0.48812 0.77369 0.0
H1124 H 0.94518 0.50735 0.74625 0.0
H1125 H 0.87712 0.58139 0.72252 0.0
H1126 H 0.88405 0.49846 0.63778 0.0
H1127 H 0.90051 0.49458 0.66657 0.0
H1128 H 0.94063 0.50057 0.68812 0.0
C1129 C 0.91943 0.51067 0.75011 0.0
C1130 C 0.89135 0.56375 0.71517 0.0
C1131 C 0.90981 0.49972 0.7658 0.0
C1132 C 0.89039 0.52118 0.6443 0.0
C1133 C 0.90027 0.51895 0.66077 0.0
C1134 C 0.92702 0.51857 0.69554 0.0
C1135 C 0.89593 0.52556 0.7395 0.0
C1136 C 0.90491 0.53481 0.72235 0.0
C1137 C 0.9072 0.54798 0.66991 0.0
C1138 C 0.91085 0.54595 0.68811 0.0
H1139 H 0.82735 0.52197 0.76435 0.0
H1140 H 0.84388 0.54039 0.73698 0.0
H1141 H 0.93479 0.49046 0.71768 0.0
H1142 H 0.89427 0.60577 0.63974 0.0
H1143 H 0.91202 0.60185 0.66848 0.0
C1144 C 0.83267 0.90359 0.09935 0.0
C1145 C 0.80373 0.90924 0.10881 0.0
C1146 C 0.83018 0.89288 0.08299 0.0
C1147 C 0.77055 0.86012 0.05158 0.0
H1148 H 0.82602 0.91062 0.02125 0.0
C1149 C 0.73414 0.89005 0.98457 0.0
C1150 C 0.75926 0.89072 0.97241 0.0
C1151 C 0.74221 0.88364 0.00104 0.0
C1152 C 0.81081 0.89576 0.02953 0.0
H1153 H 0.74956 0.90622 0.10891 0.0
H1154 H 0.74513 0.88856 0.08026 0.0
H1155 H 0.83556 0.91513 0.05078 0.0
H1156 H 0.8123 0.88362 0.96783 0.0
H1157 H 0.82642 0.87274 0.99671 0.0
H1158 H 0.7447 0.84222 0.03018 0.0
C1159 C 0.76981 0.89196 0.08547 0.0
C1160 C 0.8163 0.89829 0.04649 0.0
C1161 C 0.77231 0.90247 0.10186 0.0
C1162 C 0.79241 0.88343 0.97694 0.0
C1163 C 0.80052 0.87729 0.99345 0.0
C1164 C 0.7649 0.85779 0.03458 0.0
C1165 C 0.79869 0.88777 0.07573 0.0
C1166 C 0.79572 0.88116 0.05774 0.0
C1167 C 0.77558 0.87798 0.0057 0.0
C1168 C 0.78449 0.87623 0.02343 0.0
H1169 H 0.85728 0.90799 0.10447 0.0
H1170 H 0.85293 0.88924 0.07593 0.0
H1171 H 0.75468 0.8461 0.0599 0.0
H1172 H 0.70832 0.89537 0.98146 0.0
H1173 H 0.72251 0.88469 0.01023 0.0
C1174 C 0.42025 0.47789 0.73302 0.0
C1175 C 0.41101 0.50533 0.72322 0.0
C1176 C 0.42764 0.4822 0.7497 0.0
C1177 C 0.44105 0.54583 0.78267 0.0
H1178 H 0.39364 0.48105 0.80945 0.0
C1179 C 0.38886 0.57279 0.8476 0.0
C1180 C 0.38769 0.54664 0.85914 0.0
C1181 C 0.40124 0.56715 0.8317 0.0
C1182 C 0.4077 0.49899 0.80224 0.0
H1183 H 0.40426 0.55905 0.72286 0.0
H1184 H 0.41598 0.56651 0.75217 0.0
H1185 H 0.39869 0.47217 0.77999 0.0
H1186 H 0.40085 0.49475 0.86354 0.0
H1187 H 0.42269 0.48505 0.83584 0.0
H1188 H 0.44849 0.5734 0.80506 0.0
C1189 C 0.41819 0.54172 0.74693 0.0
C1190 C 0.41064 0.49388 0.78529 0.0
C1191 C 0.41123 0.53744 0.73016 0.0
C1192 C 0.40081 0.51525 0.8548 0.0
C1193 C 0.41336 0.50968 0.83895 0.0
C1194 C 0.43797 0.55101 0.79969 0.0
C1195 C 0.42543 0.51397 0.757 0.0
C1196 C 0.4267 0.51756 0.77524 0.0
C1197 C 0.41283 0.53531 0.8271 0.0
C1198 C 0.4206 0.52797 0.80957 0.0
H1199 H 0.42086 0.45289 0.72791 0.0
H1200 H 0.43393 0.46042 0.75703 0.0
H1201 H 0.45397 0.5643 0.77528 0.0
H1202 H 0.37921 0.59733 0.85064 0.0
H1203 H 0.40021 0.58733 0.8228 0.0
C1204 C 0.71441 0.14144 0.60049 0.0
C1205 C 0.74337 0.13504 0.60979 0.0
C1206 C 0.71688 0.15267 0.58421 0.0
C1207 C 0.77653 0.18581 0.55282 0.0
H1208 H 0.72032 0.13683 0.52232 0.0
C1209 C 0.81219 0.15775 0.48549 0.0
C1210 C 0.78695 0.15724 0.47342 0.0
C1211 C 0.80428 0.1639 0.50201 0.0
C1212 C 0.73574 0.15129 0.53065 0.0
H1213 H 0.79759 0.13728 0.60967 0.0
H1214 H 0.80195 0.1559 0.58114 0.0
H1215 H 0.71099 0.13146 0.55184 0.0
H1216 H 0.73388 0.16448 0.46907 0.0
H1217 H 0.72005 0.17497 0.49802 0.0
H1218 H 0.80234 0.20421 0.53146 0.0
C1219 C 0.77729 0.15265 0.58644 0.0
C1220 C 0.73038 0.14825 0.54761 0.0
C1221 C 0.77481 0.14158 0.60275 0.0
C1222 C 0.75386 0.16453 0.47809 0.0
C1223 C 0.74591 0.17045 0.49466 0.0
C1224 C 0.78203 0.18867 0.53582 0.0
C1225 C 0.74837 0.15759 0.57685 0.0
C1226 C 0.75123 0.1648 0.55891 0.0
C1227 C 0.77095 0.16948 0.50682 0.0
C1228 C 0.76218 0.17079 0.5246 0.0
H1229 H 0.68979 0.13723 0.60568 0.0
H1230 H 0.69411 0.15688 0.57727 0.0
H1231 H 0.79262 0.19939 0.5612 0.0
H1232 H 0.83797 0.15242 0.48227 0.0
H1233 H 0.82407 0.16265 0.51112 0.0
C1234 C 0.13729 0.51159 0.22976 0.0
C1235 C 0.13714 0.54378 0.22289 0.0
C1236 C 0.13043 0.50706 0.24655 0.0
C1237 C 0.13742 0.55441 0.28505 0.0
H1238 H 0.09973 0.47449 0.30459 0.0
C1239 C 0.1465 0.53215 0.35456 0.0
C1240 C 0.15958 0.50071 0.35884 0.0
C1241 C 0.13422 0.53794 0.3387 0.0
C1242 C 0.11022 0.49699 0.29928 0.0
H1243 H 0.1268 0.59607 0.22774 0.0
H1244 H 0.11395 0.58808 0.25687 0.0
H1245 H 0.09454 0.4839 0.27483 0.0
H1246 H 0.16828 0.45016 0.35019 0.0
H1247 H 0.14774 0.46054 0.32234 0.0
H1248 H 0.1541 0.56704 0.30926 0.0
C1249 C 0.12042 0.56645 0.24948 0.0
C1250 C 0.1073 0.50235 0.28227 0.0
C1251 C 0.12769 0.57102 0.23279 0.0
C1252 C 0.15865 0.47474 0.3472 0.0
C1253 C 0.14653 0.48059 0.3313 0.0
C1254 C 0.14022 0.54912 0.302 0.0
C1255 C 0.12293 0.53461 0.2567 0.0
C1256 C 0.12158 0.53077 0.27492 0.0
C1257 C 0.13497 0.51247 0.32676 0.0
C1258 C 0.12737 0.52 0.30924 0.0
H1259 H 0.14443 0.49012 0.2224 0.0
H1260 H 0.13286 0.48223 0.25172 0.0
H1261 H 0.1493 0.57625 0.27981 0.0
H1262 H 0.14629 0.55251 0.36337 0.0
H1263 H 0.1249 0.5626 0.33563 0.0
C1264 C 0.77443 0.6396 0.39465 0.0
C1265 C 0.74305 0.63593 0.38713 0.0
C1266 C 0.77666 0.6493 0.41115 0.0
C1267 C 0.72684 0.64229 0.44875 0.0
H1268 H 0.80516 0.68358 0.46805 0.0
C1269 C 0.79667 0.65848 0.51615 0.0
C1270 C 0.79351 0.62522 0.52148 0.0
C1271 C 0.78544 0.66796 0.50049 0.0
C1272 C 0.78275 0.67258 0.46292 0.0
H1273 H 0.68959 0.64277 0.39038 0.0
H1274 H 0.69351 0.66018 0.41916 0.0
H1275 H 0.79465 0.68954 0.43854 0.0
H1276 H 0.77567 0.57597 0.51474 0.0
H1277 H 0.75679 0.59227 0.48742 0.0
H1278 H 0.71515 0.62499 0.47304 0.0
C1279 C 0.71633 0.6546 0.41247 0.0
C1280 C 0.77694 0.67569 0.44598 0.0
C1281 C 0.71409 0.64459 0.396 0.0
C1282 C 0.77843 0.6018 0.51101 0.0
C1283 C 0.76729 0.61124 0.49539 0.0
C1284 C 0.73251 0.63943 0.46567 0.0
C1285 C 0.74756 0.65585 0.4204 0.0
C1286 C 0.74972 0.65932 0.43861 0.0
C1287 C 0.77084 0.64436 0.48991 0.0
C1288 C 0.76131 0.65325 0.47279 0.0
H1289 H 0.79723 0.63355 0.38804 0.0
H1290 H 0.80113 0.64969 0.41687 0.0
H1291 H 0.70569 0.62921 0.44352 0.0
H1292 H 0.80804 0.67715 0.524 0.0
H1293 H 0.78832 0.6937 0.49663 0.0
C1294 C 0.15602 0.96416 0.64817 0.0
C1295 C 0.16278 0.99296 0.63886 0.0
C1296 C 0.14434 0.96679 0.66438 0.0
C1297 C 0.1105 0.02684 0.69546 0.0
H1298 H 0.1584 0.97027 0.72637 0.0
C1299 C 0.13725 0.06244 0.76285 0.0
C1300 C 0.1375 0.0373 0.77497 0.0
C1301 C 0.13128 0.05454 0.74633 0.0
C1302 C 0.14423 0.98579 0.71792 0.0
H1303 H 0.16072 0.04711 0.63887 0.0
H1304 H 0.14133 0.05176 0.66728 0.0
H1305 H 0.16455 0.96075 0.6969 0.0
H1306 H 0.12987 0.98444 0.77941 0.0
H1307 H 0.11968 0.97062 0.75046 0.0
H1308 H 0.09162 0.05293 0.71665 0.0
C1309 C 0.14464 0.02708 0.66205 0.0
C1310 C 0.14772 0.98033 0.70099 0.0
C1311 C 0.15616 0.02443 0.64581 0.0
C1312 C 0.13004 1.00434 0.77035 0.0
C1313 C 0.12429 0.9964 0.75378 0.0
C1314 C 0.10719 0.03244 0.71243 0.0
C1315 C 0.13931 0.9983 0.67165 0.0
C1316 C 0.13158 1.0013 0.68954 0.0
C1317 C 0.12561 1.02132 0.74157 0.0
C1318 C 0.12469 1.01246 0.7238 0.0
H1319 H 0.16027 0.93952 0.64305 0.0
H1320 H 0.13984 0.94413 0.67133 0.0
H1321 H 0.09722 0.04303 0.68696 0.0
H1322 H 0.14271 0.08813 0.76602 0.0
H1323 H 0.1328 0.07423 0.73718 0.0
C1324 C 0.8338 0.40327 0.89494 0.0
C1325 C 0.80442 0.4115 0.88635 0.0
C1326 C 0.83223 0.39289 0.91137 0.0
C1327 C 0.82265 0.40419 0.94778 0.0
H1328 H 0.74541 0.36159 0.96756 0.0
C1329 C 0.77173 0.44358 0.01036 0.0
C1330 C 0.75686 0.42 0.02084 0.0
C1331 C 0.78292 0.43429 0.99472 0.0
C1332 C 0.76754 0.37295 0.96229 0.0
H1333 H 0.75025 0.41281 0.88771 0.0
H1334 H 0.7475 0.39607 0.9165 0.0
H1335 H 0.75524 0.35614 0.93796 0.0
H1336 H 0.74287 0.36791 0.02339 0.0
H1337 H 0.7627 0.35162 0.99598 0.0
H1338 H 0.83476 0.42131 0.97203 0.0
C1339 C 0.77178 0.39704 0.91058 0.0
C1340 C 0.77296 0.37013 0.9453 0.0
C1341 C 0.77335 0.40709 0.89411 0.0
C1342 C 0.75405 0.38671 0.01552 0.0
C1343 C 0.76535 0.37737 -0.00016 0.0
C1344 C 0.81741 0.40673 0.96475 0.0
C1345 C 0.80127 0.39088 0.91956 0.0
C1346 C 0.79973 0.38701 0.93777 0.0
C1347 C 0.77965 0.40116 0.98923 0.0
C1348 C 0.78896 0.39246 0.97205 0.0
H1349 H 0.85809 0.40565 0.88911 0.0
H1350 H 0.85535 0.38759 0.91784 0.0
H1351 H 0.84346 0.41766 0.94243 0.0
H1352 H 0.77422 0.46943 0.01409 0.0
H1353 H 0.79318 0.4534 0.98672 0.0
C1354 C 0.39694 1.01222 0.14301 0.0
C1355 C 0.38484 0.04397 0.13858 0.0
C1356 C 0.40836 1.00616 0.15902 0.0
C1357 C 0.43291 0.04673 0.19838 0.0
H1358 H 0.39101 0.96922 0.21815 0.0
C1359 C 0.40755 0.03395 0.26817 0.0
C1360 C 0.40694 1.00189 0.27519 0.0
C1361 C 0.41353 0.03798 0.25127 0.0
C1362 C 0.40364 0.99055 0.21282 0.0
H1363 H 0.37705 0.09473 0.14714 0.0
H1364 H 0.39628 0.08395 0.17518 0.0
H1365 H 0.38653 0.97818 0.18863 0.0
H1366 H 0.41475 0.94916 0.27037 0.0
H1367 H 0.42605 0.95625 0.24102 0.0
H1368 H 0.44922 0.05953 0.22276 0.0
C1369 C 0.39726 0.06383 0.16625 0.0
C1370 C 0.40102 0.9957 0.19585 0.0
C1371 C 0.38591 0.06992 0.15023 0.0
C1372 C 0.41453 0.97416 0.26524 0.0
C1373 C 0.42089 0.97821 0.24841 0.0
C1374 C 0.43569 0.04149 0.2154 0.0
C1375 C 0.40785 0.0317 0.17092 0.0
C1376 C 0.41495 0.02421 0.1885 0.0
C1377 C 0.41936 1.01004 0.24112 0.0
C1378 C 0.42042 1.01371 0.22287 0.0
H1379 H 0.39704 0.99186 0.1342 0.0
H1380 H 0.41689 0.98128 0.16221 0.0
H1381 H 0.44423 0.06873 0.19299 0.0
H1382 H 0.40181 0.0558 0.27555 0.0
H1383 H 0.41185 0.06283 0.24605 0.0
C1384 C 0.26585 0.44643 0.48628 0.0
C1385 C 0.25081 0.42271 0.47596 0.0
C1386 C 0.27674 0.43749 0.50202 0.0
C1387 C 0.26111 0.3771 0.53496 0.0
H1388 H 0.33882 0.4201 0.55394 0.0
C1389 C 0.33186 0.40357 0.60153 0.0
C1390 C 0.30327 0.41224 0.61069 0.0
C1391 C 0.329 0.39415 0.58499 0.0
C1392 C 0.31747 0.40716 0.54883 0.0
H1393 H 0.23599 0.37079 0.47386 0.0
H1394 H 0.25527 0.35512 0.50143 0.0
H1395 H 0.32883 0.42418 0.52444 0.0
H1396 H 0.24909 0.4153 0.61019 0.0
H1397 H 0.24414 0.4001 0.58128 0.0
H1398 H 0.24958 0.36038 0.55943 0.0
C1399 C 0.25832 0.3807 0.49737 0.0
C1400 C 0.3115 0.40994 0.53193 0.0
C1401 C 0.24734 0.38968 0.48159 0.0
C1402 C 0.27163 0.40922 0.60336 0.0
C1403 C 0.26878 0.40007 0.58681 0.0
C1404 C 0.26722 0.3741 0.55188 0.0
C1405 C 0.27297 0.40459 0.50777 0.0
C1406 C 0.28253 0.39616 0.52495 0.0
C1407 C 0.29751 0.39346 0.57729 0.0
C1408 C 0.29474 0.39026 0.5591 0.0
H1409 H 0.26883 0.47209 0.48233 0.0
H1410 H 0.28729 0.45667 0.50985 0.0
H1411 H 0.23857 0.36615 0.52995 0.0
H1412 H 0.35655 0.40495 0.60698 0.0
H1413 H 0.35154 0.38851 0.57809 0.0
C1414 C 0.89628 1.01522 0.35567 0.0
C1415 C 0.8839 0.04674 0.36031 0.0
C1416 C 0.90711 1.00948 0.33952 0.0
C1417 C 0.92943 0.05047 0.29992 0.0
H1418 H 0.88861 0.97187 0.28073 0.0
C1419 C 0.90443 0.03526 0.23016 0.0
C1420 C 0.90457 1.00297 0.2234 0.0
C1421 C 0.91007 0.03996 0.24704 0.0
C1422 C 0.90091 0.99354 0.28589 0.0
H1423 H 0.87502 0.09747 0.35197 0.0
H1424 H 0.89324 0.08724 0.32366 0.0
H1425 H 0.88447 0.98127 0.31024 0.0
H1426 H 0.91332 0.95056 0.22869 0.0
H1427 H 0.92404 0.95882 0.25799 0.0
H1428 H 0.94514 0.0631 0.27538 0.0
C1429 C 0.89488 0.06706 0.33254 0.0
C1430 C 0.89848 0.99894 0.30285 0.0
C1431 C 0.88414 0.07284 0.34871 0.0
C1432 C 0.91252 0.97571 0.2336 0.0
C1433 C 0.91853 0.98043 0.25041 0.0
C1434 C 0.93202 0.04498 0.2829 0.0
C1435 C 0.90568 0.0351 0.32768 0.0
C1436 C 0.91213 0.02775 0.31001 0.0
C1437 C 0.9163 1.01247 0.25743 0.0
C1438 C 0.91721 1.01674 0.27565 0.0
H1439 H 0.89702 0.99475 0.36442 0.0
H1440 H 0.91589 0.98475 0.3362 0.0
H1441 H 0.9405 0.07274 0.30514 0.0
H1442 H 0.8984 0.05676 0.22258 0.0
H1443 H 0.90786 0.06494 0.25204 0.0
C1444 C 0.26772 0.64173 0.10192 0.0
C1445 C 0.23773 0.63011 0.10887 0.0
C1446 C 0.26913 0.65077 0.08529 0.0
C1447 C 0.22646 0.6336 0.04604 0.0
H1448 H 0.28703 0.70133 0.02951 0.0
C1449 C 0.24859 0.65271 0.97642 0.0
C1450 C 0.28255 0.65088 0.97199 0.0
C1451 C 0.2393 0.65701 0.99293 0.0
C1452 C 0.26991 0.68246 0.03398 0.0
H1453 H 0.18522 0.62067 0.10412 0.0
H1454 H 0.18757 0.63689 0.07512 0.0
H1455 H 0.27682 0.69683 0.0592 0.0
H1456 H 0.33339 0.65393 0.98119 0.0
H1457 H 0.31714 0.6617 0.00998 0.0
H1458 H 0.21999 0.61891 0.02084 0.0
C1459 C 0.2102 0.63827 0.08242 0.0
C1460 C 0.26416 0.67976 0.05095 0.0
C1461 C 0.20883 0.62905 0.09905 0.0
C1462 C 0.30702 0.65507 0.98424 0.0
C1463 C 0.29773 0.65977 0.0007 0.0
C1464 C 0.23196 0.63652 0.02908 0.0
C1465 C 0.24052 0.64861 0.07527 0.0
C1466 C 0.24308 0.65469 0.05721 0.0
C1467 C 0.26381 0.66003 0.00525 0.0
C1468 C 0.25439 0.6604 0.02293 0.0
H1469 H 0.29037 0.64312 0.10922 0.0
H1470 H 0.29301 0.65825 0.08018 0.0
H1471 H 0.21045 0.61369 0.05041 0.0
H1472 H 0.22916 0.64959 0.96724 0.0
H1473 H 0.21298 0.6573 0.99612 0.0
C1474 C 0.63854 0.06586 0.73507 0.0
C1475 C 0.63799 0.0405 0.72307 0.0
C1476 C 0.63242 0.05845 0.75164 0.0
C1477 C 0.64319 0.9899 0.78042 0.0
H1478 H 0.59763 0.04901 0.81109 0.0
C1479 C 0.65338 0.96852 0.85018 0.0
C1480 C 0.66098 0.99713 0.85946 0.0
C1481 C 0.64191 0.97146 0.83397 0.0
C1482 C 0.61051 0.0323 0.80268 0.0
H1483 H 0.62886 0.9878 0.71892 0.0
H1484 H 0.61841 0.97484 0.74797 0.0
H1485 H 0.59268 0.05865 0.78136 0.0
H1486 H 0.66056 0.05129 0.85941 0.0
H1487 H 0.64155 0.05645 0.83097 0.0
H1488 H 0.66247 0.96455 0.80156 0.0
C1489 C 0.62375 1.0004 0.7445 0.0
C1490 C 0.60757 0.03776 0.78568 0.0
C1491 C 0.62965 1.00786 0.72788 0.0
C1492 C 0.65532 0.02876 0.85249 0.0
C1493 C 0.64404 0.03171 0.83623 0.0
C1494 C 0.64631 0.98458 0.79737 0.0
C1495 C 0.62579 0.02551 0.75659 0.0
C1496 C 0.62453 1.01706 0.7744 0.0
C1497 C 0.63797 1.00307 0.82665 0.0
C1498 C 0.63068 1.00619 0.80872 0.0
H1499 H 0.64469 0.09132 0.73174 0.0
H1500 H 0.63452 0.07827 0.76068 0.0
H1501 H 0.65696 0.97381 0.77205 0.0
H1502 H 0.65684 0.94378 0.85533 0.0
H1503 H 0.63678 0.94892 0.82705 0.0
C1504 C 0.6014 0.94787 0.96349 0.0
C1505 C 0.62774 0.96688 0.95665 0.0
C1506 C 0.57795 0.96177 0.97475 0.0
C1507 C 0.54279 0.04603 0.98864 0.0
H1508 H 0.49288 0.9923 0.01981 0.0
C1509 C 0.44713 0.10559 0.03634 0.0
C1510 C 0.42052 0.0865 0.04289 0.0
C1511 C 0.47076 0.09189 0.0251 0.0
C1512 C 0.50599 1.00791 0.01103 0.0
H1513 H 0.64916 1.01636 0.95704 0.0
H1514 H 0.60999 0.04003 0.97708 0.0
H1515 H 0.53786 0.96708 0.00373 0.0
H1516 H 0.39897 0.03713 0.04202 0.0
H1517 H 0.43844 1.01386 0.02205 0.0
H1518 H 0.51094 0.08688 0.99598 0.0
C1519 C 0.607 1.01413 0.97362 0.0
C1520 C 0.5323 0.99321 0.00168 0.0
C1521 C 0.63052 1.0001 0.96237 0.0
C1522 C 0.41776 0.05347 0.03691 0.0
C1523 C 0.44145 0.03966 0.02571 0.0
C1524 C 0.5165 0.06073 0.998 0.0
C1525 C 0.57935 0.99567 0.97966 0.0
C1526 C 0.55146 1.01184 0.99021 0.0
C1527 C 0.46931 0.05814 0.01994 0.0
C1528 C 0.4973 0.04208 0.00945 0.0
H1529 H 0.59712 0.92277 0.959 0.0
H1530 H 0.55736 0.94624 0.97871 0.0
H1531 H 0.55588 0.06163 0.97986 0.0
H1532 H 0.45139 0.13054 0.04102 0.0
H1533 H 0.49151 0.10742 0.02133 0.0
C1534 C 0.74555 0.66448 0.2852 0.0
C1535 C 0.7122 0.66735 0.29085 0.0
C1536 C 0.75969 0.68801 0.27409 0.0
C1537 C 0.73912 0.76272 0.24617 0.0
H1538 H 0.83242 0.7844 0.2529 0.0
C1539 C 0.79984 0.87711 0.21167 0.0
C1540 C 0.83313 0.87422 0.20593 0.0
C1541 C 0.78578 0.85355 0.22278 0.0
C1542 C 0.80639 0.77874 0.2506 0.0
H1543 H 0.66785 0.69795 0.2884 0.0
H1544 H 0.69155 0.73778 0.26888 0.0
H1545 H 0.80689 0.73935 0.26867 0.0
H1546 H 0.87742 0.84348 0.20819 0.0
H1547 H 0.85386 0.80359 0.22774 0.0
H1548 H 0.73862 0.80212 0.2281 0.0
C1549 C 0.70711 0.71714 0.27285 0.0
C1550 C 0.79154 0.7524 0.25974 0.0
C1551 C 0.69309 0.69368 0.28398 0.0
C1552 C 0.85224 0.84779 0.21269 0.0
C1553 C 0.8383 0.82429 0.22384 0.0
C1554 C 0.75397 0.78906 0.23702 0.0
C1555 C 0.74118 0.71571 0.26809 0.0
C1556 C 0.75748 0.74363 0.25778 0.0
C1557 C 0.80429 0.82577 0.22869 0.0
C1558 C 0.78802 0.79783 0.23899 0.0
H1559 H 0.76183 0.6458 0.29053 0.0
H1560 H 0.78572 0.68501 0.2707 0.0
H1561 H 0.7131 0.75706 0.24385 0.0
H1562 H 0.78354 0.89585 0.20642 0.0
H1563 H 0.75979 0.85657 0.22624 0.0
C1564 C 0.94552 0.10171 0.46397 0.0
C1565 C 0.91907 0.08249 0.45741 0.0
C1566 C 0.96935 0.08802 0.47505 0.0
C1567 C 1.00545 1.00409 0.48858 0.0
H1568 H 0.05547 0.05779 0.51961 0.0
C1569 C 0.10218 0.94451 0.53545 0.0
C1570 C 0.12859 0.9637 0.54206 0.0
C1571 C 0.07839 0.95824 0.52436 0.0
C1572 C 0.04234 0.04221 0.51086 0.0
H1573 H 0.89784 0.03296 0.45818 0.0
H1574 H 0.9377 1.00966 0.47791 0.0
H1575 H 1.00996 0.08286 0.50389 0.0
H1576 H 0.14984 1.01324 0.54136 0.0
H1577 H 0.11004 0.03662 0.52161 0.0
H1578 H 0.03783 0.96345 0.49554 0.0
C1579 C 0.94047 0.03554 0.47434 0.0
C1580 C 1.01572 0.05681 0.50173 0.0
C1581 C 0.91656 0.04935 0.46329 0.0
C1582 C 0.13112 0.99687 0.53622 0.0
C1583 C 0.10726 1.01072 0.52515 0.0
C1584 C 0.03206 0.9895 0.4977 0.0
C1585 C 0.96823 0.05416 0.48006 0.0
C1586 C 0.9965 0.03816 0.49034 0.0
C1587 C 0.07952 0.99212 0.51939 0.0
C1588 C 0.05128 1.00814 0.5091 0.0
H1589 H 0.94956 0.12678 0.45935 0.0
H1590 H 0.99002 0.10366 0.47879 0.0
H1591 H 0.99231 0.98852 0.47982 0.0
H1592 H 0.09813 0.91942 0.54003 0.0
H1593 H 0.05775 0.94261 0.52058 0.0
C1594 C 0.74839 0.16745 0.71224 0.0
C1595 C 0.71494 0.16994 0.70673 0.0
C1596 C 0.76243 0.19124 0.72321 0.0
C1597 C 0.79388 0.25608 0.73724 0.0
H1598 H 0.74085 0.3057 0.76893 0.0
C1599 C 0.8543 0.35256 0.78372 0.0
C1600 C 0.83502 0.37885 0.79051 0.0
C1601 C 0.84042 0.32881 0.77271 0.0
C1602 C 0.75622 0.29267 0.75999 0.0
H1603 H 0.67039 0.20025 0.70921 0.0
H1604 H 0.69394 0.24053 0.7285 0.0
H1605 H 0.71556 0.26026 0.7534 0.0
H1606 H 0.78522 0.39998 0.79022 0.0
H1607 H 0.76157 0.36029 0.77062 0.0
H1608 H 0.83456 0.28848 0.74383 0.0
C1609 C 0.70963 0.21996 0.72455 0.0
C1610 C 0.74151 0.26611 0.75098 0.0
C1611 C 0.69571 0.19623 0.71355 0.0
C1612 C 0.80163 0.38136 0.78493 0.0
C1613 C 0.78763 0.35756 0.77395 0.0
C1614 C 0.8086 0.28264 0.74625 0.0
C1615 C 0.74375 0.21887 0.72919 0.0
C1616 C 0.75992 0.24704 0.73935 0.0
C1617 C 0.80633 0.32991 0.76803 0.0
C1618 C 0.79019 0.30171 0.75787 0.0
H1619 H 0.76477 0.14884 0.70691 0.0
H1620 H 0.78852 0.18851 0.7265 0.0
H1621 H 0.80926 0.24306 0.72829 0.0
H1622 H 0.8796 0.34854 0.78809 0.0
H1623 H 0.85613 0.30823 0.76878 0.0
C1624 C 0.19402 0.19468 0.78381 0.0
C1625 C 0.21325 0.16832 0.79055 0.0
C1626 C 0.20798 0.21852 0.77284 0.0
C1627 C 0.29227 0.2547 0.76018 0.0
H1628 H 0.23939 0.30478 0.72866 0.0
C1629 C 0.35293 0.3515 0.71386 0.0
C1630 C 0.33374 0.37792 0.70715 0.0
C1631 C 0.33899 0.32769 0.72484 0.0
C1632 C 0.25472 0.29162 0.73756 0.0
H1633 H 0.26304 0.14715 0.79024 0.0
H1634 H 0.28683 0.187 0.7707 0.0
H1635 H 0.214 0.25917 0.74408 0.0
H1636 H 0.284 0.39927 0.70756 0.0
H1637 H 0.26023 0.35941 0.72712 0.0
H1638 H 0.333 0.28715 0.75365 0.0
C1639 C 0.26075 0.18973 0.77404 0.0
C1640 C 0.23995 0.26496 0.7465 0.0
C1641 C 0.24668 0.16583 0.78497 0.0
C1642 C 0.30035 0.38052 0.71279 0.0
C1643 C 0.28629 0.35663 0.72374 0.0
C1644 C 0.30705 0.28136 0.75123 0.0
C1645 C 0.2421 0.21744 0.76816 0.0
C1646 C 0.25831 0.24573 0.75806 0.0
C1647 C 0.3049 0.32886 0.72957 0.0
C1648 C 0.28868 0.30059 0.73967 0.0
H1649 H 0.16871 0.19868 0.78819 0.0
H1650 H 0.1923 0.23914 0.76896 0.0
H1651 H 0.30761 0.24155 0.76908 0.0
H1652 H 0.3782 0.34743 0.70942 0.0
H1653 H 0.35463 0.30701 0.72869 0.0
C1654 C 0.19155 0.70132 0.21232 0.0
C1655 C 0.2089 0.67231 0.20716 0.0
C1656 C 0.20547 0.72424 0.22367 0.0
C1657 C 0.27959 0.7398 0.25273 0.0
H1658 H 0.25538 0.83247 0.24562 0.0
C1659 C 0.35143 0.84734 0.28702 0.0
C1660 C 0.33316 0.87509 0.29303 0.0
C1661 C 0.33725 0.82397 0.27593 0.0
C1662 C 0.26245 0.80681 0.24801 0.0
H1663 H 0.25392 0.64383 0.21186 0.0
H1664 H 0.27845 0.68347 0.23131 0.0
H1665 H 0.22867 0.7889 0.22946 0.0
H1666 H 0.28492 0.89934 0.2912 0.0
H1667 H 0.26076 0.85996 0.27155 0.0
H1668 H 0.31374 0.75798 0.27116 0.0
C1669 C 0.2538 0.68891 0.22649 0.0
C1670 C 0.24677 0.78133 0.23866 0.0
C1671 C 0.23954 0.6657 0.21522 0.0
C1672 C 0.30067 0.87951 0.28651 0.0
C1673 C 0.28645 0.85618 0.27533 0.0
C1674 C 0.29542 0.76534 0.26202 0.0
C1675 C 0.23777 0.71959 0.23043 0.0
C1676 C 0.25475 0.74705 0.24079 0.0
C1677 C 0.30394 0.82707 0.27027 0.0
C1678 C 0.28725 0.79954 0.25992 0.0
H1679 H 0.16818 0.70794 0.20638 0.0
H1680 H 0.19113 0.74641 0.2266 0.0
H1681 H 0.28665 0.71419 0.25519 0.0
H1682 H 0.376 0.84206 0.29203 0.0
H1683 H 0.35227 0.80269 0.27226 0.0
C1684 C 0.94471 0.60352 0.53375 0.0
C1685 C 0.91868 0.58418 0.54065 0.0
C1686 C 0.96848 0.58975 0.52263 0.0
C1687 C 0.99026 0.51201 0.49711 0.0
H1688 H 0.08053 0.54613 0.50049 0.0
C1689 C 0.10103 0.44448 0.46263 0.0
C1690 C 0.12701 0.46375 0.45564 0.0
C1691 C 0.07732 0.45835 0.47374 0.0
C1692 C 0.05554 0.53623 0.49913 0.0
H1693 H 0.89818 0.53433 0.54051 0.0
H1694 H 0.93821 0.5107 0.52099 0.0
H1695 H 0.03563 0.57195 0.51639 0.0
H1696 H 0.14748 0.51363 0.45559 0.0
H1697 H 0.10751 0.53746 0.47512 0.0
H1698 H 1.01018 0.47628 0.47985 0.0
C1699 C 0.94024 0.53696 0.52394 0.0
C1700 C 0.02932 0.55134 0.50835 0.0
C1701 C 0.91644 0.55083 0.53506 0.0
C1702 C 0.12926 0.49718 0.46113 0.0
C1703 C 0.1055 0.51116 0.47224 0.0
C1704 C 1.01648 0.49689 0.48789 0.0
C1705 C 0.96768 0.55572 0.51791 0.0
C1706 C 0.99591 0.53969 0.50759 0.0
C1707 C 0.07811 0.49244 0.47835 0.0
C1708 C 0.04989 0.50853 0.48865 0.0
H1709 H 0.9484 0.62886 0.53805 0.0
H1710 H 0.9883 0.60578 0.5182 0.0
H1711 H 0.96527 0.50211 0.49573 0.0
H1712 H 0.09733 0.41909 0.45841 0.0
H1713 H 0.05753 0.44237 0.47824 0.0
C1714 C 0.60613 0.44164 0.03161 0.0
C1715 C 0.63089 0.46134 0.03932 0.0
C1716 C 0.58204 0.4556 0.02074 0.0
C1717 C 0.55734 0.53494 0.99723 0.0
H1718 H 0.46854 0.49681 -0.00064 0.0
C1719 C 0.44477 0.60074 0.96336 0.0
C1720 C 0.41941 0.58108 0.95613 0.0
C1721 C 0.46886 0.58697 0.97429 0.0
C1722 C 0.49311 0.50787 0.99833 0.0
H1723 H 0.64855 0.51217 0.04096 0.0
H1724 H 0.60813 0.53616 0.0218 0.0
H1725 H 0.51414 0.4713 0.01482 0.0
H1726 H 0.40061 0.53056 0.95537 0.0
H1727 H 0.44124 0.50688 0.9745 0.0
H1728 H 0.53639 0.57143 0.9807 0.0
C1729 C 0.60741 0.5095 0.02392 0.0
C1730 C 0.51973 0.49294 0.00731 0.0
C1731 C 0.63149 0.49546 0.03482 0.0
C1732 C 0.41825 0.54727 0.96114 0.0
C1733 C 0.44242 0.53339 0.97204 0.0
C1734 C 0.53073 0.54983 0.98822 0.0
C1735 C 0.58124 0.49017 0.01708 0.0
C1736 C 0.55261 0.50604 0.00701 0.0
C1737 C 0.46916 0.5526 0.97843 0.0
C1738 C 0.49782 0.53676 0.98853 0.0
H1739 H 0.60366 0.41562 0.03506 0.0
H1740 H 0.56321 0.43921 0.01566 0.0
H1741 H 0.58192 0.546 0.99625 0.0
H1742 H 0.44767 0.62646 0.95949 0.0
H1743 H 0.48808 0.60334 0.97901 0.0
C1744 C 0.22856 0.69455 0.13864 0.0
C1745 C 0.24361 0.68539 0.15361 0.0
C1746 C 0.24488 0.71642 0.12783 0.0
C1747 C 0.30175 0.78658 0.13059 0.0
H1748 H 0.30521 0.78243 0.08278 0.0
C1749 C 0.3574 0.89506 0.09379 0.0
C1750 C 0.33959 0.90517 0.0797 0.0
C1751 C 0.3505 0.86445 0.10132 0.0
C1752 C 0.30425 0.78404 0.09612 0.0
H1753 H 0.28664 0.69238 0.16937 0.0
H1754 H 0.31549 0.72989 0.15049 0.0
H1755 H 0.28379 0.7347 0.09845 0.0
H1756 H 0.30174 0.89055 0.062 0.0
H1757 H 0.2889 0.83769 0.07541 0.0
H1758 H 0.32062 0.83609 0.12849 0.0
C1759 C 0.29147 0.71982 0.14688 0.0
C1760 C 0.29208 0.75668 0.10506 0.0
C1761 C 0.27523 0.69795 0.15758 0.0
C1762 C 0.31586 0.8834 0.07286 0.0
C1763 C 0.30864 0.85298 0.08051 0.0
C1764 C 0.31357 0.81391 0.12171 0.0
C1765 C 0.27607 0.73005 0.13212 0.0
C1766 C 0.29064 0.7578 0.12239 0.0
C1767 C 0.32534 0.84345 0.09506 0.0
C1768 C 0.31484 0.81314 0.10435 0.0
H1769 H 0.20373 0.68571 0.13559 0.0
H1770 H 0.23226 0.72417 0.11663 0.0
H1771 H 0.30025 0.78848 0.14393 0.0
H1772 H 0.37646 0.91092 0.09909 0.0
H1773 H 0.36452 0.85753 0.11224 0.0
C1774 C 0.09652 0.47876 0.39042 0.0
C1775 C 0.11546 0.49547 0.40235 0.0
C1776 C 0.07615 0.49678 0.3796 0.0
C1777 C 0.02677 0.57274 0.37958 0.0
H1778 H 1.00765 0.54721 0.33436 0.0
C1779 C 0.92361 0.60083 0.32473 0.0
C1780 C 0.89417 0.59566 0.33398 0.0
C1781 C 0.95509 0.59534 0.33177 0.0
C1782 C 1.01305 0.55507 0.34688 0.0
H1783 H 0.12835 0.54359 0.4126 0.0
H1784 H 0.09263 0.57538 0.39364 0.0
H1785 H 0.05736 0.52484 0.34812 0.0
H1786 H 0.87557 0.58024 0.35813 0.0
H1787 H 0.92997 0.57174 0.37028 0.0
H1788 H 0.9819 0.60195 0.37858 0.0
C1789 C 0.09379 0.54846 0.39248 0.0
C1790 C 0.04132 0.54207 0.35478 0.0
C1791 C 0.11433 0.5304 0.40322 0.0
C1792 C 0.89722 0.58564 0.35059 0.0
C1793 C 0.92863 0.58053 0.35763 0.0
C1794 C 0.99848 0.58555 0.37172 0.0
C1795 C 0.0739 0.53176 0.38081 0.0
C1796 C 0.04786 0.54999 0.37138 0.0
C1797 C 0.95786 0.58486 0.34825 0.0
C1798 C 0.99075 0.57601 0.35549 0.0
H1799 H 0.09684 0.45173 0.38978 0.0
H1800 H 0.06077 0.48316 0.37092 0.0
H1801 H 0.03098 0.57913 0.39241 0.0
H1802 H 0.92238 0.60857 0.31192 0.0
H1803 H 0.97725 0.59897 0.32427 0.0
C1804 C 0.19812 0.17381 0.57674 0.0
C1805 C 0.20308 0.14433 0.58596 0.0
C1806 C 0.204 0.20515 0.58375 0.0
C1807 C 0.21374 0.24879 0.62355 0.0
H1808 H 0.27469 0.30685 0.5998 0.0
C1809 C 0.31901 0.34709 0.64248 0.0
C1810 C 0.30157 0.36682 0.6539 0.0
C1811 C 0.30162 0.3265 0.63158 0.0
C1812 C 0.25737 0.29105 0.60649 0.0
H1813 H 0.21842 0.12559 0.6101 0.0
H1814 H 0.22756 0.17985 0.62222 0.0
H1815 H 0.2529 0.25678 0.58629 0.0
H1816 H 0.25273 0.38091 0.66312 0.0
H1817 H 0.22204 0.34464 0.64408 0.0
H1818 H 0.21933 0.28209 0.64399 0.0
C1819 C 0.21873 0.17859 0.60959 0.0
C1820 C 0.24474 0.26255 0.59874 0.0
C1821 C 0.21326 0.14726 0.60256 0.0
C1822 C 0.26652 0.36637 0.65411 0.0
C1823 C 0.24908 0.34549 0.64333 0.0
C1824 C 0.22611 0.27738 0.63123 0.0
C1825 C 0.21463 0.20781 0.60021 0.0
C1826 C 0.22365 0.2406 0.60739 0.0
C1827 C 0.26652 0.32474 0.63223 0.0
C1828 C 0.24886 0.29823 0.62296 0.0
H1829 H 0.19022 0.17275 0.56396 0.0
H1830 H 0.20049 0.22731 0.57626 0.0
H1831 H 0.19726 0.23247 0.63044 0.0
H1832 H 0.34612 0.34692 0.64232 0.0
H1833 H 0.31575 0.31048 0.62333 0.0
C1834 C 0.62269 0.44572 0.82449 0.0
C1835 C 0.65223 0.45053 0.83366 0.0
C1836 C 0.5913 0.4515 0.83162 0.0
C1837 C 0.54819 0.46113 0.87169 0.0
H1838 H 0.48962 0.52263 0.84846 0.0
C1839 C 0.4321 0.51567 0.90344 0.0
C1840 C 0.43096 0.55063 0.90278 0.0
C1841 C 0.45282 0.49791 0.89263 0.0
C1842 C 0.50557 0.50518 0.85501 0.0
H1843 H 0.67108 0.46565 0.85778 0.0
H1844 H 0.61684 0.47459 0.87009 0.0
H1845 H 0.5392 0.50025 0.83451 0.0
H1846 H 0.44978 0.5947 0.89053 0.0
H1847 H 0.48611 0.56378 0.87154 0.0
H1848 H 0.51569 0.46727 0.89245 0.0
C1849 C 0.61803 0.46589 0.85743 0.0
C1850 C 0.53377 0.49218 0.847 0.0
C1851 C 0.64936 0.46051 0.85029 0.0
C1852 C 0.45009 0.56766 0.891 0.0
C1853 C 0.47062 0.54994 0.88011 0.0
C1854 C 0.51995 0.47392 0.87965 0.0
C1855 C 0.58871 0.4619 0.84812 0.0
C1856 C 0.55594 0.47093 0.85548 0.0
C1857 C 0.47285 0.51493 0.8811 0.0
C1858 C 0.49896 0.49692 0.87158 0.0
H1859 H 0.62376 0.43804 0.81167 0.0
H1860 H 0.56905 0.44814 0.82418 0.0
H1861 H 0.56467 0.4445 0.87844 0.0
H1862 H 0.41799 0.50223 0.91271 0.0
H1863 H 0.45397 0.47096 0.89363 0.0
C1864 C 0.68942 0.15516 0.90172 0.0
C1865 C 0.70894 0.14461 0.91516 0.0
C1866 C 0.69501 0.18633 0.89442 0.0
C1867 C 0.74259 0.26649 0.90005 0.0
H1868 H 0.7356 0.27003 0.85231 0.0
C1869 C 0.82026 0.34911 0.85583 0.0
C1870 C 0.80276 0.36628 0.84346 0.0
C1871 C 0.80323 0.32802 0.86668 0.0
C1872 C 0.73713 0.26958 0.86568 0.0
H1873 H 0.74922 0.15837 0.93164 0.0
H1874 H 0.76024 0.21166 0.91847 0.0
H1875 H 0.71638 0.22071 0.86695 0.0
H1876 H 0.75429 0.3752 0.83244 0.0
H1877 H 0.72445 0.33714 0.85112 0.0
H1878 H 0.76587 0.31466 0.89837 0.0
C1879 C 0.73977 0.19676 0.91384 0.0
C1880 C 0.72598 0.24134 0.87413 0.0
C1881 C 0.73369 0.16598 0.92133 0.0
C1882 C 0.76801 0.36259 0.84216 0.0
C1883 C 0.75107 0.34086 0.85276 0.0
C1884 C 0.75443 0.29446 0.89152 0.0
C1885 C 0.72071 0.20734 0.90018 0.0
C1886 C 0.72912 0.23906 0.89142 0.0
C1887 C 0.76868 0.32297 0.8649 0.0
C1888 C 0.75222 0.29595 0.87425 0.0
H1889 H 0.66972 0.13941 0.89692 0.0
H1890 H 0.67924 0.1938 0.88419 0.0
H1891 H 0.74468 0.26616 0.91338 0.0
H1892 H 0.84717 0.35148 0.85685 0.0
H1893 H 0.81735 0.3142 0.87585 0.0
C1894 C 0.15044 0.46449 0.64676 0.0
C1895 C 0.15311 0.45458 0.66341 0.0
C1896 C 0.11918 0.46979 0.63956 0.0
C1897 C 0.03462 0.49576 0.64976 0.0
H1898 H 1.01673 0.46947 0.60452 0.0
C1899 C 0.95092 0.56924 0.60507 0.0
C1900 C 0.9315 0.55167 0.59364 0.0
C1901 C 0.97146 0.55203 0.61612 0.0
C1902 C 1.02097 0.4765 0.61727 0.0
H1903 H 0.12434 0.44219 0.68537 0.0
H1904 H 0.06982 0.45218 0.67277 0.0
H1905 H 0.06604 0.44762 0.61859 0.0
H1906 H 0.91804 0.50281 0.5845 0.0
H1907 H 0.95424 0.47243 0.60381 0.0
H1908 H 0.99013 0.52571 0.64816 0.0
C1909 C 0.09215 0.45555 0.66536 0.0
C1910 C 0.04938 0.46424 0.62525 0.0
C1911 C 0.12345 0.44984 0.67254 0.0
C1912 C 0.93237 0.51669 0.5935 0.0
C1913 C 0.95317 0.49943 0.60445 0.0
C1914 C 1.00628 0.50826 0.64171 0.0
C1915 C 0.08975 0.46579 0.64883 0.0
C1916 C 0.05701 0.47451 0.6414 0.0
C1917 C 0.97347 0.51698 0.61563 0.0
C1918 C 0.99973 0.49946 0.62522 0.0
H1919 H 0.17225 0.46953 0.63928 0.0
H1920 H 0.11811 0.47836 0.62687 0.0
H1921 H 0.03995 0.50418 0.66219 0.0
H1922 H 0.95074 0.5963 0.60519 0.0
H1923 H 0.98715 0.56625 0.62442 0.0
C1924 C 0.84588 0.87181 0.42299 0.0
C1925 C 0.84158 0.90159 0.41394 0.0
C1926 C 0.83957 0.84074 0.41576 0.0
C1927 C 0.79872 0.78402 0.40006 0.0
H1928 H 0.82516 0.76602 0.3548 0.0
C1929 C 0.72576 0.69997 0.35542 0.0
C1930 C 0.74361 0.68055 0.34402 0.0
C1931 C 0.74273 0.72068 0.36644 0.0
C1932 C 0.81806 0.77031 0.36755 0.0
H1933 H 0.82663 0.92119 0.3899 0.0
H1934 H 0.8168 0.86745 0.37741 0.0
H1935 H 0.84703 0.81506 0.3689 0.0
H1936 H 0.79274 0.66728 0.3349 0.0
H1937 H 0.8227 0.70371 0.35415 0.0
H1938 H 0.76874 0.7398 0.39845 0.0
C1939 C 0.8255 0.86822 0.39007 0.0
C1940 C 0.83033 0.79857 0.37555 0.0
C1941 C 0.83139 0.89926 0.39732 0.0
C1942 C 0.77864 0.68159 0.34388 0.0
C1943 C 0.79566 0.70254 0.35479 0.0
C1944 C 0.7862 0.75583 0.39199 0.0
C1945 C 0.82914 0.83869 0.39925 0.0
C1946 C 0.82008 0.80621 0.39172 0.0
C1947 C 0.77782 0.72286 0.36593 0.0
C1948 C 0.79509 0.7492 0.3755 0.0
H1949 H 0.8537 0.87243 0.4358 0.0
H1950 H 0.84268 0.81832 0.4231 0.0
H1951 H 0.79032 0.78936 0.41252 0.0
H1952 H 0.69865 0.69968 0.35554 0.0
H1953 H 0.72828 0.73636 0.37472 0.0
C1954 C 0.59496 0.46285 0.10265 0.0
C1955 C 0.61511 0.48456 0.09345 0.0
C1956 C 0.57152 0.47551 0.11376 0.0
C1957 C 0.54227 0.54576 0.13794 0.0
H1958 H 0.45395 0.51902 0.1233 0.0
C1959 C 0.42105 0.60872 0.16194 0.0
C1960 C 0.39202 0.58923 0.16308 0.0
C1961 C 0.45025 0.59551 0.155 0.0
C1962 C 0.47833 0.52626 0.12785 0.0
H1963 H 0.62735 0.53624 0.08859 0.0
H1964 H 0.58638 0.55867 0.10845 0.0
H1965 H 0.50315 0.49654 0.10961 0.0
H1966 H 0.37115 0.54013 0.15884 0.0
H1967 H 0.4223 0.51658 0.14734 0.0
H1968 H 0.5175 0.57498 0.15645 0.0
C1969 C 0.58919 0.53187 0.1072 0.0
C1970 C 0.50649 0.51351 0.11991 0.0
C1971 C 0.61249 0.51914 0.09591 0.0
C1972 C 0.39298 0.55594 0.15772 0.0
C1973 C 0.42232 0.54252 0.1511 0.0
C1974 C 0.51397 0.55815 0.14614 0.0
C1975 C 0.56781 0.51011 0.11576 0.0
C1976 C 0.53862 0.5232 0.12484 0.0
C1977 C 0.45119 0.56229 0.14937 0.0
C1978 C 0.4816 0.54862 0.14114 0.0
H1979 H 0.59643 0.4361 0.10074 0.0
H1980 H 0.55521 0.45835 0.12024 0.0
H1981 H 0.56693 0.55346 0.14192 0.0
H1982 H 0.42089 0.6345 0.166 0.0
H1983 H 0.47176 0.61166 0.15369 0.0
C1984 C 0.84822 0.37237 0.57442 0.0
C1985 C 0.84393 0.40187 0.5837 0.0
C1986 C 0.84204 0.34108 0.58146 0.0
C1987 C 0.83293 0.29776 0.62141 0.0
H1988 H 0.77115 0.23972 0.5983 0.0
C1989 C 0.72758 0.20001 0.6414 0.0
C1990 C 0.7452 0.18078 0.65295 0.0
C1991 C 0.74481 0.22032 0.63026 0.0
C1992 C 0.78867 0.25554 0.60481 0.0
H1993 H 0.8292 0.42073 0.60792 0.0
H1994 H 0.81956 0.3666 0.62007 0.0
H1995 H 0.79293 0.28952 0.58445 0.0
H1996 H 0.79416 0.16732 0.66215 0.0
H1997 H 0.82455 0.2029 0.64266 0.0
H1998 H 0.82755 0.26485 0.64202 0.0
C1999 C 0.82816 0.36776 0.60739 0.0
C2000 C 0.80131 0.28387 0.59687 0.0
C2001 C 0.83394 0.39902 0.60034 0.0
C2002 C 0.78024 0.18145 0.65305 0.0
C2003 C 0.79751 0.20195 0.642 0.0
C2004 C 0.82052 0.26939 0.6293 0.0
C2005 C 0.83174 0.33851 0.59799 0.0
C2006 C 0.8227 0.30581 0.6053 0.0
C2007 C 0.77992 0.22225 0.63078 0.0
C2008 C 0.79746 0.24856 0.62127 0.0
H2009 H 0.8559 0.3734 0.56159 0.0
H2010 H 0.84512 0.31889 0.57395 0.0
H2011 H 0.84967 0.31405 0.62813 0.0
H2012 H 0.70048 0.20001 0.64132 0.0
H2013 H 0.73055 0.23599 0.62192 0.0
C2014 C 0.59721 0.98027 0.89135 0.0
C2015 C 0.61651 0.99776 0.90286 0.0
C2016 C 0.57698 0.99757 0.88019 0.0
C2017 C 0.52781 0.07326 0.87909 0.0
H2018 H 0.50808 0.04531 0.83428 0.0
C2019 C 0.42403 0.0991 0.82428 0.0
C2020 C 0.3946 0.09437 0.8336 0.0
C2021 C 0.45553 0.09361 0.8313 0.0
C2022 C 0.51362 0.05381 0.84668 0.0
H2023 H 0.6303 0.04658 0.91195 0.0
H2024 H 0.59463 0.07712 0.89245 0.0
H2025 H 0.55817 0.0239 0.84813 0.0
H2026 H 0.37611 0.07968 0.85789 0.0
H2027 H 0.43058 0.07121 0.87001 0.0
H2028 H 0.48269 0.10208 0.87791 0.0
C2029 C 0.59551 0.05011 0.89185 0.0
C2030 C 0.54212 0.04139 0.85463 0.0
C2031 C 0.61598 0.03275 0.90291 0.0
C2032 C 0.39772 0.08471 0.85027 0.0
C2033 C 0.42918 0.07962 0.8573 0.0
C2034 C 0.49926 0.08544 0.8712 0.0
C2035 C 0.57518 0.03264 0.88065 0.0
C2036 C 0.54893 0.05025 0.87108 0.0
C2037 C 0.45837 0.08358 0.84785 0.0
C2038 C 0.49133 0.07505 0.85511 0.0
H2039 H 0.59712 0.95321 0.89131 0.0
H2040 H 0.56128 0.98341 0.87187 0.0
H2041 H 0.53223 0.08035 0.89181 0.0
H2042 H 0.4228 0.10657 0.81144 0.0
H2043 H 0.47767 0.09695 0.82375 0.0
C2044 C 0.81887 0.84601 0.13983 0.0
C2045 C 0.80157 0.8626 0.15247 0.0
C2046 C 0.80174 0.82505 0.12898 0.0
C2047 C 0.73589 0.76604 0.13038 0.0
H2048 H 0.74272 0.76272 0.08264 0.0
C2049 C 0.68729 0.65179 0.09453 0.0
C2050 C 0.7065 0.64127 0.08095 0.0
C2051 C 0.69314 0.6829 0.10185 0.0
C2052 C 0.74084 0.76302 0.09599 0.0
H2053 H 0.75331 0.8708 0.16391 0.0
H2054 H 0.72331 0.83304 0.14522 0.0
H2055 H 0.76412 0.8112 0.09755 0.0
H2056 H 0.74655 0.65505 0.06427 0.0
H2057 H 0.75797 0.7082 0.07742 0.0
H2058 H 0.71508 0.71717 0.12921 0.0
C2059 C 0.74985 0.83704 0.14339 0.0
C2060 C 0.75281 0.79097 0.10446 0.0
C2061 C 0.76688 0.85862 0.154 0.0
C2062 C 0.73122 0.66262 0.07467 0.0
C2063 C 0.73754 0.69333 0.08217 0.0
C2064 C 0.7246 0.73781 0.12198 0.0
C2065 C 0.76729 0.81956 0.13102 0.0
C2066 C 0.75084 0.79245 0.12174 0.0
C2067 C 0.71879 0.70388 0.09595 0.0
C2068 C 0.72745 0.73557 0.10467 0.0
H2069 H 0.84574 0.8486 0.13864 0.0
H2070 H 0.81575 0.81157 0.11964 0.0
H2071 H 0.73454 0.76645 0.14375 0.0
H2072 H 0.66764 0.63608 0.09944 0.0
H2073 H 0.6776 0.69035 0.11218 0.0
C2074 C 0.12281 0.94446 0.32703 0.0
C2075 C 0.15214 0.94996 0.33627 0.0
C2076 C 0.09124 0.95005 0.33399 0.0
C2077 C 0.0473 0.96027 0.37377 0.0
H2078 H 0.98833 1.02029 0.34984 0.0
C2079 C 0.93062 1.01457 0.40487 0.0
C2080 C 0.92973 0.04953 0.40418 0.0
C2081 C 0.95116 0.99662 0.39406 0.0
C2082 C 1.00439 1.00324 0.35659 0.0
H2083 H 0.17044 0.96607 0.36034 0.0
H2084 H 0.11585 0.97473 0.37237 0.0
H2085 H 0.0385 0.99821 0.33628 0.0
H2086 H 0.94857 0.0934 0.39176 0.0
H2087 H 0.98461 0.06215 0.37277 0.0
H2088 H 1.0143 0.96654 0.39433 0.0
C2089 C 0.11737 0.96564 0.35978 0.0
C2090 C 0.03293 0.99042 0.34881 0.0
C2091 C 0.14889 0.96045 0.35281 0.0
C2092 C 0.94874 0.06636 0.39229 0.0
C2093 C 0.96909 0.04845 0.38139 0.0
C2094 C 1.01872 0.97287 0.3815 0.0
C2095 C 0.08826 0.96096 0.3504 0.0
C2096 C 0.05524 0.96974 0.35754 0.0
C2097 C 0.97125 1.01345 0.38249 0.0
C2098 C 0.99758 0.99536 0.37317 0.0
H2099 H 0.12417 0.93634 0.31429 0.0
H2100 H 0.06917 0.94614 0.3265 0.0
H2101 H 0.06388 0.94408 0.38072 0.0
H2102 H 0.91663 1.00128 0.41424 0.0
H2103 H 0.95229 0.96968 0.39515 0.0
C2104 C 0.26598 0.86492 0.34682 0.0
C2105 C 0.30102 0.86517 0.34679 0.0
C2106 C 0.24863 0.84476 0.35799 0.0
C2107 C 0.22504 0.77766 0.37073 0.0
H2108 H 0.25424 0.75584 0.41512 0.0
C2109 C 0.21367 0.64682 0.39817 0.0
C2110 C 0.2044 0.6429 0.41485 0.0
C2111 C 0.21882 0.67852 0.39152 0.0
C2112 C 0.24538 0.76199 0.40285 0.0
H2113 H 0.34569 0.84558 0.35833 0.0
H2114 H 0.31552 0.8101 0.37789 0.0
H2115 H 0.27558 0.8061 0.40154 0.0
H2116 H 0.19317 0.6699 0.43749 0.0
H2117 H 0.20289 0.72526 0.42581 0.0
H2118 H 0.19585 0.73303 0.37175 0.0
C2119 C 0.30129 0.82588 0.36958 0.0
C2120 C 0.25777 0.79058 0.39505 0.0
C2121 C 0.31858 0.84589 0.35834 0.0
C2122 C 0.20027 0.67178 0.42461 0.0
C2123 C 0.20583 0.70355 0.41796 0.0
C2124 C 0.21284 0.74906 0.37847 0.0
C2125 C 0.26615 0.82433 0.36919 0.0
C2126 C 0.24851 0.7981 0.37871 0.0
C2127 C 0.21533 0.70718 0.40136 0.0
C2128 C 0.22372 0.74034 0.39439 0.0
H2129 H 0.25209 0.87906 0.33771 0.0
H2130 H 0.22157 0.84412 0.35743 0.0
H2131 H 0.21761 0.7826 0.35809 0.0
H2132 H 0.21831 0.62561 0.39024 0.0
H2133 H 0.22687 0.6805 0.37876 0.0
C2134 C 0.44969 0.0674 0.10771 0.0
C2135 C 0.43082 0.05146 0.0955 0.0
C2136 C 0.47003 0.04871 0.11827 0.0
C2137 C 0.51975 0.97309 0.11695 0.0
H2138 H 0.53888 0.99534 0.16259 0.0
C2139 C 0.64943 0.95799 0.14575 0.0
C2140 C 0.65238 0.94694 0.16221 0.0
C2141 C 0.61804 0.96364 0.13876 0.0
C2142 C 0.5335 0.9884 0.14994 0.0
H2143 H 0.41793 1.004 0.08453 0.0
H2144 H 0.45364 0.97104 0.103 0.0
H2145 H 0.48899 1.01844 0.14927 0.0
H2146 H 0.62404 0.93266 0.18402 0.0
H2147 H 0.56925 0.94314 0.17177 0.0
H2148 H 0.56478 0.94406 0.11739 0.0
C2149 C 0.45243 0.99787 0.10459 0.0
C2150 C 0.50512 1.00181 0.1423 0.0
C2151 C 0.43191 1.01659 0.09412 0.0
C2152 C 0.62289 0.94122 0.17133 0.0
C2153 C 0.59145 0.94722 0.16435 0.0
C2154 C 0.54816 0.95986 0.12454 0.0
C2155 C 0.47233 1.01383 0.11651 0.0
C2156 C 0.49854 0.99507 0.12557 0.0
C2157 C 0.58876 0.9588 0.14804 0.0
C2158 C 0.55589 0.96821 0.14094 0.0
H2159 H 0.44939 0.09438 0.10877 0.0
H2160 H 0.48541 0.06177 0.12716 0.0
H2161 H 0.51551 0.96762 0.10401 0.0
H2162 H 0.67115 0.96379 0.13834 0.0
H2163 H 0.61678 0.97324 0.12626 0.0
C2164 C 0.33167 0.39946 0.89628 0.0
C2165 C 0.34151 0.40224 0.91293 0.0
C2166 C 0.32597 0.36823 0.8892 0.0
C2167 C 0.29918 0.2842 0.89967 0.0
H2168 H 0.326 0.26512 0.85457 0.0
C2169 C 0.22649 0.19933 0.85535 0.0
C2170 C 0.24433 0.17989 0.84395 0.0
C2171 C 0.24347 0.22004 0.86636 0.0
C2172 C 0.3188 0.2697 0.86728 0.0
H2173 H 0.35325 0.37367 0.93503 0.0
H2174 H 0.3426 0.31922 0.92263 0.0
H2175 H 0.34768 0.31455 0.86841 0.0
H2176 H 0.29347 0.16648 0.83489 0.0
H2177 H 0.32344 0.20288 0.85414 0.0
H2178 H 0.2693 0.23989 0.89827 0.0
C2179 C 0.33958 0.34143 0.91512 0.0
C2180 C 0.33096 0.29819 0.87513 0.0
C2181 C 0.34568 0.3727 0.92219 0.0
C2182 C 0.27938 0.18079 0.84387 0.0
C2183 C 0.2964 0.20175 0.85478 0.0
C2184 C 0.28679 0.25578 0.89175 0.0
C2185 C 0.32947 0.33893 0.89858 0.0
C2186 C 0.32056 0.30623 0.89123 0.0
C2187 C 0.27856 0.2222 0.86586 0.0
C2188 C 0.29581 0.24874 0.87532 0.0
H2189 H 0.32703 0.4212 0.88871 0.0
H2190 H 0.31752 0.36711 0.8765 0.0
H2191 H 0.29066 0.28984 0.91207 0.0
H2192 H 0.19938 0.19916 0.85542 0.0
H2193 H 0.22901 0.23581 0.87459 0.0
C2194 C 0.11711 0.03066 0.59525 0.0
C2195 C 0.11769 0.99568 0.59554 0.0
C2196 C 0.09655 0.04829 0.60617 0.0
C2197 C 0.0424 0.04062 0.64326 0.0
H2198 H 0.98379 0.10095 0.6193 0.0
C2199 C 0.92419 0.10005 0.67276 0.0
C2200 C 0.89489 0.09517 0.66341 0.0
C2201 C 0.95577 0.09415 0.66588 0.0
C2202 C 1.00012 0.08442 0.6262 0.0
H2203 H 0.09828 0.95142 0.6074 0.0
H2204 H 0.06217 0.98212 0.62658 0.0
H2205 H 0.03348 0.07856 0.60575 0.0
H2206 H 0.87668 0.07988 0.6392 0.0
H2207 H 0.93131 0.07069 0.62729 0.0
H2208 H 1.00795 0.04532 0.66345 0.0
C2209 C 0.07796 0.99607 0.61819 0.0
C2210 C 0.02876 0.07185 0.61851 0.0
C2211 C 0.09834 0.97848 0.60717 0.0
C2212 C 0.89821 0.08501 0.64682 0.0
C2213 C 0.92975 0.0795 0.63992 0.0
C2214 C 1.0138 0.05342 0.651 0.0
C2215 C 0.07609 0.03111 0.61746 0.0
C2216 C 0.04961 0.049 0.62677 0.0
C2217 C 0.95881 0.08355 0.64942 0.0
C2218 C 0.99182 0.07455 0.64233 0.0
H2219 H 0.13129 0.04426 0.58606 0.0
H2220 H 0.09562 0.07528 0.60535 0.0
H2221 H 0.05823 0.02326 0.64995 0.0
H2222 H 0.92279 0.10792 0.68555 0.0
H2223 H 0.97779 0.09759 0.67346 0.0
loop_
_geom_bond_atom_site_label_1
_geom_bond_atom_site_label_2
_geom_bond_distance
_geom_bond_site_symmetry_2
_ccdc_geom_bond_type
Zn0 N4 2.020 . S
Zn0 O8 2.019 1_545 S
Zn0 N10 2.119 1_545 S
Zn0 O18 1.975 . S
C1 N2 1.334 . S
C1 N5 1.336 . S
N2 C1 1.334 . S
N2 C3 1.334 . S
C3 N2 1.334 . S
C3 N4 1.336 . S
N4 Zn0 2.020 . S
N4 C3 1.336 . S
N4 N5 1.354 . S
N5 C1 1.336 . S
N5 N4 1.354 . S
N5 Zn9 2.020 . S
C6 O7 1.244 . S
C6 O30 1.257 . S
O7 C6 1.244 . S
O8 Zn0 2.019 1_565 S
O8 C28 1.257 1_565 S
Zn9 N5 2.020 . S
Zn9 O16 1.975 . S
Zn9 N25 2.119 . S
Zn9 O30 2.019 . S
N10 Zn0 2.119 1_565 S
N10 C12 1.334 . S
N10 C13 1.328 . S
C11 C12 1.391 . S
C11 N14 1.329 . S
C11 H32 0.930 . S
C12 N10 1.334 . S
C12 C11 1.391 . S
C12 H19 0.930 . S
C13 N10 1.328 . S
C13 C15 1.392 . S
C13 H20 0.930 . S
N14 C11 1.329 . S
N14 C15 1.331 . S
C15 C13 1.392 . S
C15 N14 1.331 . S
O16 Zn9 1.975 . S
O16 C17 1.252 . S
C17 O16 1.252 . S
C17 O18 1.252 . S
O18 Zn0 1.975 . S
O18 C17 1.252 . S
H19 C12 0.930 . S
H20 C13 0.930 . S
C21 C22 1.392 . S
C21 N25 1.328 . S
C21 H27 0.930 . S
C22 C21 1.392 . S
C22 N26 1.331 . S
C23 C24 1.391 . S
C23 N26 1.329 . S
C23 H33 0.930 . S
C24 C23 1.391 . S
C24 N25 1.334 . S
C24 H31 0.930 . S
N25 Zn9 2.119 . S
N25 C21 1.328 . S
N25 C24 1.334 . S
N26 C22 1.331 . S
N26 C23 1.329 . S
H27 C21 0.930 . S
C28 O8 1.257 1_545 S
C28 O29 1.244 . S
O29 C28 1.244 . S
O30 C6 1.257 . S
O30 Zn9 2.019 . S
H31 C24 0.930 . S
H32 C11 0.930 . S
H33 C23 0.930 . S
Zn34 N38 2.020 . S
Zn34 O42 2.019 . S
Zn34 N44 2.119 . S
Zn34 O52 1.975 . S
C35 N36 1.334 . S
C35 N39 1.336 . S
N36 C35 1.334 . S
N36 C37 1.334 . S
C37 N36 1.334 . S
C37 N38 1.336 . S
N38 Zn34 2.020 . S
N38 C37 1.336 . S
N38 N39 1.354 . S
N39 C35 1.336 . S
N39 N38 1.354 . S
N39 Zn43 2.020 . S
C40 O41 1.244 . S
C40 O64 1.257 . S
O41 C40 1.244 . S
O42 Zn34 2.019 . S
O42 C62 1.257 . S
Zn43 N39 2.020 . S
Zn43 O50 1.975 . S
Zn43 N59 2.119 . S
Zn43 O64 2.019 . S
N44 Zn34 2.119 . S
N44 C46 1.334 . S
N44 C47 1.328 . S
C45 C46 1.391 . S
C45 N48 1.329 . S
C45 H66 0.930 . S
C46 N44 1.334 . S
C46 C45 1.391 . S
C46 H53 0.930 . S
C47 N44 1.328 . S
C47 C49 1.392 . S
C47 H54 0.930 . S
N48 C45 1.329 . S
N48 C49 1.331 . S
C49 C47 1.392 . S
C49 N48 1.331 . S
O50 Zn43 1.975 . S
O50 C51 1.252 . S
C51 O50 1.252 . S
C51 O52 1.252 . S
O52 Zn34 1.975 . S
O52 C51 1.252 . S
H53 C46 0.930 . S
H54 C47 0.930 . S
C55 C56 1.392 . S
C55 N59 1.328 . S
C55 H61 0.930 . S
C56 C55 1.392 . S
C56 N60 1.331 . S
C57 C58 1.391 . S
C57 N60 1.329 . S
C57 H67 0.930 . S
C58 C57 1.391 . S
C58 N59 1.334 . S
C58 H65 0.930 . S
N59 Zn43 2.119 . S
N59 C55 1.328 . S
N59 C58 1.334 . S
N60 C56 1.331 . S
N60 C57 1.329 . S
H61 C55 0.930 . S
C62 O42 1.257 . S
C62 O63 1.244 . S
O63 C62 1.244 . S
O64 C40 1.257 . S
O64 Zn43 2.019 . S
H65 C58 0.930 . S
H66 C45 0.930 . S
H67 C57 0.930 . S
Zn68 N72 2.020 . S
Zn68 O76 2.019 1_565 S
Zn68 N78 2.119 1_565 S
Zn68 O86 1.975 . S
C69 N70 1.334 . S
C69 N73 1.336 . S
N70 C69 1.334 . S
N70 C71 1.334 . S
C71 N70 1.334 . S
C71 N72 1.336 . S
N72 Zn68 2.020 . S
N72 C71 1.336 . S
N72 N73 1.354 . S
N73 C69 1.336 . S
N73 N72 1.354 . S
N73 Zn77 2.020 . S
C74 O75 1.244 . S
C74 O98 1.257 . S
O75 C74 1.244 . S
O76 Zn68 2.019 1_545 S
O76 C96 1.257 1_545 S
Zn77 N73 2.020 . S
Zn77 O84 1.975 . S
Zn77 N93 2.119 . S
Zn77 O98 2.019 . S
N78 Zn68 2.119 1_545 S
N78 C80 1.334 . S
N78 C81 1.328 . S
C79 C80 1.391 . S
C79 N82 1.329 . S
C79 H100 0.930 . S
C80 N78 1.334 . S
C80 C79 1.391 . S
C80 H87 0.930 . S
C81 N78 1.328 . S
C81 C83 1.392 . S
C81 H88 0.930 . S
N82 C79 1.329 . S
N82 C83 1.331 . S
C83 C81 1.392 . S
C83 N82 1.331 . S
O84 Zn77 1.975 . S
O84 C85 1.252 . S
C85 O84 1.252 . S
C85 O86 1.252 . S
O86 Zn68 1.975 . S
O86 C85 1.252 . S
H87 C80 0.930 . S
H88 C81 0.930 . S
C89 C90 1.392 . S
C89 N93 1.328 . S
C89 H95 0.930 . S
C90 C89 1.392 . S
C90 N94 1.331 . S
C91 C92 1.391 . S
C91 N94 1.329 . S
C91 H101 0.930 . S
C92 C91 1.391 . S
C92 N93 1.334 . S
C92 H99 0.930 . S
N93 Zn77 2.119 . S
N93 C89 1.328 . S
N93 C92 1.334 . S
N94 C90 1.331 . S
N94 C91 1.329 . S
H95 C89 0.930 . S
C96 O76 1.257 1_565 S
C96 O97 1.244 . S
O97 C96 1.244 . S
O98 C74 1.257 . S
O98 Zn77 2.019 . S
H99 C92 0.930 . S
H100 C79 0.930 . S
H101 C91 0.930 . S
Zn102 N106 2.020 . S
Zn102 O110 2.019 . S
Zn102 N112 2.119 . S
Zn102 O120 1.975 . S
C103 N104 1.334 . S
C103 N107 1.336 . S
N104 C103 1.334 . S
N104 C105 1.334 . S
C105 N104 1.334 . S
C105 N106 1.336 . S
N106 Zn102 2.020 . S
N106 C105 1.336 . S
N106 N107 1.354 . S
N107 C103 1.336 . S
N107 N106 1.354 . S
N107 Zn111 2.020 . S
C108 O109 1.244 . S
C108 O132 1.257 . S
O109 C108 1.244 . S
O110 Zn102 2.019 . S
O110 C130 1.257 . S
Zn111 N107 2.020 . S
Zn111 O118 1.975 . S
Zn111 N127 2.119 . S
Zn111 O132 2.019 . S
N112 Zn102 2.119 . S
N112 C114 1.334 . S
N112 C115 1.328 . S
C113 C114 1.391 . S
C113 N116 1.329 . S
C113 H134 0.930 . S
C114 N112 1.334 . S
C114 C113 1.391 . S
C114 H121 0.930 . S
C115 N112 1.328 . S
C115 C117 1.392 . S
C115 H122 0.930 . S
N116 C113 1.329 . S
N116 C117 1.331 . S
C117 C115 1.392 . S
C117 N116 1.331 . S
O118 Zn111 1.975 . S
O118 C119 1.252 . S
C119 O118 1.252 . S
C119 O120 1.252 . S
O120 Zn102 1.975 . S
O120 C119 1.252 . S
H121 C114 0.930 . S
H122 C115 0.930 . S
C123 C124 1.392 . S
C123 N127 1.328 . S
C123 H129 0.930 . S
C124 C123 1.392 . S
C124 N128 1.331 . S
C125 C126 1.391 . S
C125 N128 1.329 . S
C125 H135 0.930 . S
C126 C125 1.391 . S
C126 N127 1.334 . S
C126 H133 0.930 . S
N127 Zn111 2.119 . S
N127 C123 1.328 . S
N127 C126 1.334 . S
N128 C124 1.331 . S
N128 C125 1.329 . S
H129 C123 0.930 . S
C130 O110 1.257 . S
C130 O131 1.244 . S
O131 C130 1.244 . S
O132 C108 1.257 . S
O132 Zn111 2.019 . S
H133 C126 0.930 . S
H134 C113 0.930 . S
H135 C125 0.930 . S
Zn136 N140 2.020 . S
Zn136 O144 2.019 1_565 S
Zn136 N146 2.119 1_565 S
Zn136 O154 1.975 . S
C137 N138 1.334 . S
C137 N141 1.336 . S
N138 C137 1.334 . S
N138 C139 1.334 . S
C139 N138 1.334 . S
C139 N140 1.336 . S
N140 Zn136 2.020 . S
N140 C139 1.336 . S
N140 N141 1.354 . S
N141 C137 1.336 . S
N141 N140 1.354 . S
N141 Zn145 2.020 . S
C142 O143 1.244 . S
C142 O166 1.257 . S
O143 C142 1.244 . S
O144 Zn136 2.019 1_545 S
O144 C164 1.257 1_545 S
Zn145 N141 2.020 . S
Zn145 O152 1.975 . S
Zn145 N161 2.119 . S
Zn145 O166 2.019 . S
N146 Zn136 2.119 1_545 S
N146 C148 1.334 . S
N146 C149 1.328 . S
C147 C148 1.391 . S
C147 N150 1.329 . S
C147 H168 0.930 . S
C148 N146 1.334 . S
C148 C147 1.391 . S
C148 H155 0.930 . S
C149 N146 1.328 . S
C149 C151 1.392 . S
C149 H156 0.930 . S
N150 C147 1.329 . S
N150 C151 1.331 . S
C151 C149 1.392 . S
C151 N150 1.331 . S
O152 Zn145 1.975 . S
O152 C153 1.252 . S
C153 O152 1.252 . S
C153 O154 1.252 . S
O154 Zn136 1.975 . S
O154 C153 1.252 . S
H155 C148 0.930 . S
H156 C149 0.930 . S
C157 C158 1.392 . S
C157 N161 1.328 . S
C157 H163 0.930 . S
C158 C157 1.392 . S
C158 N162 1.331 . S
C159 C160 1.391 . S
C159 N162 1.329 . S
C159 H169 0.930 . S
C160 C159 1.391 . S
C160 N161 1.334 . S
C160 H167 0.930 . S
N161 Zn145 2.119 . S
N161 C157 1.328 . S
N161 C160 1.334 . S
N162 C158 1.331 . S
N162 C159 1.329 . S
H163 C157 0.930 . S
C164 O144 1.257 1_565 S
C164 O165 1.244 . S
O165 C164 1.244 . S
O166 C142 1.257 . S
O166 Zn145 2.019 . S
H167 C160 0.930 . S
H168 C147 0.930 . S
H169 C159 0.930 . S
Zn170 N174 2.020 . S
Zn170 O178 2.019 . S
Zn170 N180 2.119 . S
Zn170 O188 1.975 . S
C171 N172 1.334 . S
C171 N175 1.336 . S
N172 C171 1.334 . S
N172 C173 1.334 . S
C173 N172 1.334 . S
C173 N174 1.336 . S
N174 Zn170 2.020 . S
N174 C173 1.336 . S
N174 N175 1.354 . S
N175 C171 1.336 . S
N175 N174 1.354 . S
N175 Zn179 2.020 . S
C176 O177 1.244 . S
C176 O200 1.257 . S
O177 C176 1.244 . S
O178 Zn170 2.019 . S
O178 C198 1.257 . S
Zn179 N175 2.020 . S
Zn179 O186 1.975 . S
Zn179 N195 2.119 . S
Zn179 O200 2.019 . S
N180 Zn170 2.119 . S
N180 C182 1.334 . S
N180 C183 1.328 . S
C181 C182 1.391 . S
C181 N184 1.329 . S
C181 H202 0.930 . S
C182 N180 1.334 . S
C182 C181 1.391 . S
C182 H189 0.930 . S
C183 N180 1.328 . S
C183 C185 1.392 . S
C183 H190 0.930 . S
N184 C181 1.329 . S
N184 C185 1.331 . S
C185 C183 1.392 . S
C185 N184 1.331 . S
O186 Zn179 1.975 . S
O186 C187 1.252 . S
C187 O186 1.252 . S
C187 O188 1.252 . S
O188 Zn170 1.975 . S
O188 C187 1.252 . S
H189 C182 0.930 . S
H190 C183 0.930 . S
C191 C192 1.392 . S
C191 N195 1.328 . S
C191 H197 0.930 . S
C192 C191 1.392 . S
C192 N196 1.331 . S
C193 C194 1.391 . S
C193 N196 1.329 . S
C193 H203 0.930 . S
C194 C193 1.391 . S
C194 N195 1.334 . S
C194 H201 0.930 . S
N195 Zn179 2.119 . S
N195 C191 1.328 . S
N195 C194 1.334 . S
N196 C192 1.331 . S
N196 C193 1.329 . S
H197 C191 0.930 . S
C198 O178 1.257 . S
C198 O199 1.244 . S
O199 C198 1.244 . S
O200 C176 1.257 . S
O200 Zn179 2.019 . S
H201 C194 0.930 . S
H202 C181 0.930 . S
H203 C193 0.930 . S
Zn204 N208 2.020 . S
Zn204 O212 2.019 . S
Zn204 N214 2.119 . S
Zn204 O222 1.975 . S
C205 N206 1.334 . S
C205 N209 1.336 . S
N206 C205 1.334 . S
N206 C207 1.334 . S
C207 N206 1.334 . S
C207 N208 1.336 . S
N208 Zn204 2.020 . S
N208 C207 1.336 . S
N208 N209 1.354 . S
N209 C205 1.336 . S
N209 N208 1.354 . S
N209 Zn213 2.020 . S
C210 O211 1.244 . S
C210 O234 1.257 1_545 S
O211 C210 1.244 . S
O212 Zn204 2.019 . S
O212 C232 1.257 . S
Zn213 N209 2.020 . S
Zn213 O220 1.975 . S
Zn213 N229 2.119 1_545 S
Zn213 O234 2.019 1_545 S
N214 Zn204 2.119 . S
N214 C216 1.334 . S
N214 C217 1.328 . S
C215 C216 1.391 . S
C215 N218 1.329 . S
C215 H236 0.930 . S
C216 N214 1.334 . S
C216 C215 1.391 . S
C216 H223 0.930 . S
C217 N214 1.328 . S
C217 C219 1.392 . S
C217 H224 0.930 . S
N218 C215 1.329 . S
N218 C219 1.331 . S
C219 C217 1.392 . S
C219 N218 1.331 . S
O220 Zn213 1.975 . S
O220 C221 1.252 . S
C221 O220 1.252 . S
C221 O222 1.252 . S
O222 Zn204 1.975 . S
O222 C221 1.252 . S
H223 C216 0.930 . S
H224 C217 0.930 . S
C225 C226 1.392 . S
C225 N229 1.328 . S
C225 H231 0.930 . S
C226 C225 1.392 . S
C226 N230 1.331 . S
C227 C228 1.391 . S
C227 N230 1.329 . S
C227 H237 0.930 . S
C228 C227 1.391 . S
C228 N229 1.334 . S
C228 H235 0.930 . S
N229 Zn213 2.119 1_565 S
N229 C225 1.328 . S
N229 C228 1.334 . S
N230 C226 1.331 . S
N230 C227 1.329 . S
H231 C225 0.930 . S
C232 O212 1.257 . S
C232 O233 1.244 . S
O233 C232 1.244 . S
O234 C210 1.257 1_565 S
O234 Zn213 2.019 1_565 S
H235 C228 0.930 . S
H236 C215 0.930 . S
H237 C227 0.930 . S
Zn238 N242 2.020 . S
Zn238 O246 2.019 . S
Zn238 N248 2.119 . S
Zn238 O256 1.975 . S
C239 N240 1.334 . S
C239 N243 1.336 . S
N240 C239 1.334 . S
N240 C241 1.334 . S
C241 N240 1.334 . S
C241 N242 1.336 . S
N242 Zn238 2.020 . S
N242 C241 1.336 . S
N242 N243 1.354 . S
N243 C239 1.336 . S
N243 N242 1.354 . S
N243 Zn247 2.020 . S
C244 O245 1.244 . S
C244 O268 1.257 . S
O245 C244 1.244 . S
O246 Zn238 2.019 . S
O246 C266 1.257 . S
Zn247 N243 2.020 . S
Zn247 O254 1.975 . S
Zn247 N263 2.119 . S
Zn247 O268 2.019 . S
N248 Zn238 2.119 . S
N248 C250 1.334 . S
N248 C251 1.328 . S
C249 C250 1.391 . S
C249 N252 1.329 . S
C249 H270 0.930 . S
C250 N248 1.334 . S
C250 C249 1.391 . S
C250 H257 0.930 . S
C251 N248 1.328 . S
C251 C253 1.392 . S
C251 H258 0.930 . S
N252 C249 1.329 . S
N252 C253 1.331 . S
C253 C251 1.392 . S
C253 N252 1.331 . S
O254 Zn247 1.975 . S
O254 C255 1.252 . S
C255 O254 1.252 . S
C255 O256 1.252 . S
O256 Zn238 1.975 . S
O256 C255 1.252 . S
H257 C250 0.930 . S
H258 C251 0.930 . S
C259 C260 1.392 . S
C259 N263 1.328 . S
C259 H265 0.930 . S
C260 C259 1.392 . S
C260 N264 1.331 . S
C261 C262 1.391 . S
C261 N264 1.329 . S
C261 H271 0.930 . S
C262 C261 1.391 . S
C262 N263 1.334 . S
C262 H269 0.930 . S
N263 Zn247 2.119 . S
N263 C259 1.328 . S
N263 C262 1.334 . S
N264 C260 1.331 . S
N264 C261 1.329 . S
H265 C259 0.930 . S
C266 O246 1.257 . S
C266 O267 1.244 . S
O267 C266 1.244 . S
O268 C244 1.257 . S
O268 Zn247 2.019 . S
H269 C262 0.930 . S
H270 C249 0.930 . S
H271 C261 0.930 . S
Zn272 N276 2.020 . S
Zn272 O280 2.019 . S
Zn272 N282 2.119 . S
Zn272 O290 1.975 . S
C273 N274 1.334 . S
C273 N277 1.336 . S
N274 C273 1.334 . S
N274 C275 1.334 . S
C275 N274 1.334 . S
C275 N276 1.336 . S
N276 Zn272 2.020 . S
N276 C275 1.336 . S
N276 N277 1.354 . S
N277 C273 1.336 . S
N277 N276 1.354 . S
N277 Zn281 2.020 . S
C278 O279 1.244 . S
C278 O302 1.257 . S
O279 C278 1.244 . S
O280 Zn272 2.019 . S
O280 C300 1.257 . S
Zn281 N277 2.020 . S
Zn281 O288 1.975 . S
Zn281 N297 2.119 . S
Zn281 O302 2.019 . S
N282 Zn272 2.119 . S
N282 C284 1.334 . S
N282 C285 1.328 . S
C283 C284 1.391 . S
C283 N286 1.329 . S
C283 H304 0.930 . S
C284 N282 1.334 . S
C284 C283 1.391 . S
C284 H291 0.930 . S
C285 N282 1.328 . S
C285 C287 1.392 . S
C285 H292 0.930 . S
N286 C283 1.329 . S
N286 C287 1.331 . S
C287 C285 1.392 . S
C287 N286 1.331 . S
O288 Zn281 1.975 . S
O288 C289 1.252 . S
C289 O288 1.252 . S
C289 O290 1.252 . S
O290 Zn272 1.975 . S
O290 C289 1.252 . S
H291 C284 0.930 . S
H292 C285 0.930 . S
C293 C294 1.392 . S
C293 N297 1.328 . S
C293 H299 0.930 . S
C294 C293 1.392 . S
C294 N298 1.331 . S
C295 C296 1.391 . S
C295 N298 1.329 . S
C295 H305 0.930 . S
C296 C295 1.391 . S
C296 N297 1.334 . S
C296 H303 0.930 . S
N297 Zn281 2.119 . S
N297 C293 1.328 . S
N297 C296 1.334 . S
N298 C294 1.331 . S
N298 C295 1.329 . S
H299 C293 0.930 . S
C300 O280 1.257 . S
C300 O301 1.244 . S
O301 C300 1.244 . S
O302 C278 1.257 . S
O302 Zn281 2.019 . S
H303 C296 0.930 . S
H304 C283 0.930 . S
H305 C295 0.930 . S
Zn306 N310 2.020 . S
Zn306 O314 2.019 . S
Zn306 N316 2.119 . S
Zn306 O324 1.975 . S
C307 N308 1.334 . S
C307 N311 1.336 . S
N308 C307 1.334 . S
N308 C309 1.334 . S
C309 N308 1.334 . S
C309 N310 1.336 . S
N310 Zn306 2.020 . S
N310 C309 1.336 . S
N310 N311 1.354 . S
N311 C307 1.336 . S
N311 N310 1.354 . S
N311 Zn315 2.020 . S
C312 O313 1.244 . S
C312 O336 1.257 . S
O313 C312 1.244 . S
O314 Zn306 2.019 . S
O314 C334 1.257 . S
Zn315 N311 2.020 . S
Zn315 O322 1.975 . S
Zn315 N331 2.119 . S
Zn315 O336 2.019 . S
N316 Zn306 2.119 . S
N316 C318 1.334 . S
N316 C319 1.328 . S
C317 C318 1.391 . S
C317 N320 1.329 . S
C317 H338 0.930 . S
C318 N316 1.334 . S
C318 C317 1.391 . S
C318 H325 0.930 . S
C319 N316 1.328 . S
C319 C321 1.392 . S
C319 H326 0.930 . S
N320 C317 1.329 . S
N320 C321 1.331 . S
C321 C319 1.392 . S
C321 N320 1.331 . S
O322 Zn315 1.975 . S
O322 C323 1.252 . S
C323 O322 1.252 . S
C323 O324 1.252 . S
O324 Zn306 1.975 . S
O324 C323 1.252 . S
H325 C318 0.930 . S
H326 C319 0.930 . S
C327 C328 1.392 . S
C327 N331 1.328 . S
C327 H333 0.930 . S
C328 C327 1.392 . S
C328 N332 1.331 . S
C329 C330 1.391 . S
C329 N332 1.329 . S
C329 H339 0.930 . S
C330 C329 1.391 . S
C330 N331 1.334 . S
C330 H337 0.930 . S
N331 Zn315 2.119 . S
N331 C327 1.328 . S
N331 C330 1.334 . S
N332 C328 1.331 . S
N332 C329 1.329 . S
H333 C327 0.930 . S
C334 O314 1.257 . S
C334 O335 1.244 . S
O335 C334 1.244 . S
O336 C312 1.257 . S
O336 Zn315 2.019 . S
H337 C330 0.930 . S
H338 C317 0.930 . S
H339 C329 0.930 . S
Zn340 N344 2.020 . S
Zn340 O348 2.019 . S
Zn340 N350 2.119 . S
Zn340 O358 1.975 . S
C341 N342 1.334 . S
C341 N345 1.336 . S
N342 C341 1.334 . S
N342 C343 1.334 . S
C343 N342 1.334 . S
C343 N344 1.336 . S
N344 Zn340 2.020 . S
N344 C343 1.336 . S
N344 N345 1.354 . S
N345 C341 1.336 . S
N345 N344 1.354 . S
N345 Zn349 2.020 . S
C346 O347 1.244 . S
C346 O370 1.257 . S
O347 C346 1.244 . S
O348 Zn340 2.019 . S
O348 C368 1.257 . S
Zn349 N345 2.020 . S
Zn349 O356 1.975 . S
Zn349 N365 2.119 . S
Zn349 O370 2.019 . S
N350 Zn340 2.119 . S
N350 C352 1.334 . S
N350 C353 1.328 . S
C351 C352 1.391 . S
C351 N354 1.329 . S
C351 H372 0.930 . S
C352 N350 1.334 . S
C352 C351 1.391 . S
C352 H359 0.930 . S
C353 N350 1.328 . S
C353 C355 1.392 . S
C353 H360 0.930 . S
N354 C351 1.329 . S
N354 C355 1.331 . S
C355 C353 1.392 . S
C355 N354 1.331 . S
O356 Zn349 1.975 . S
O356 C357 1.252 . S
C357 O356 1.252 . S
C357 O358 1.252 . S
O358 Zn340 1.975 . S
O358 C357 1.252 . S
H359 C352 0.930 . S
H360 C353 0.930 . S
C361 C362 1.392 . S
C361 N365 1.328 . S
C361 H367 0.930 . S
C362 C361 1.392 . S
C362 N366 1.331 . S
C363 C364 1.391 . S
C363 N366 1.329 . S
C363 H373 0.930 . S
C364 C363 1.391 . S
C364 N365 1.334 . S
C364 H371 0.930 . S
N365 Zn349 2.119 . S
N365 C361 1.328 . S
N365 C364 1.334 . S
N366 C362 1.331 . S
N366 C363 1.329 . S
H367 C361 0.930 . S
C368 O348 1.257 . S
C368 O369 1.244 . S
O369 C368 1.244 . S
O370 C346 1.257 . S
O370 Zn349 2.019 . S
H371 C364 0.930 . S
H372 C351 0.930 . S
H373 C363 0.930 . S
Zn374 N378 2.020 . S
Zn374 O382 2.019 . S
Zn374 N384 2.119 . S
Zn374 O392 1.975 . S
C375 N376 1.334 . S
C375 N379 1.336 . S
N376 C375 1.334 . S
N376 C377 1.334 . S
C377 N376 1.334 . S
C377 N378 1.336 . S
N378 Zn374 2.020 . S
N378 C377 1.336 . S
N378 N379 1.354 . S
N379 C375 1.336 . S
N379 N378 1.354 . S
N379 Zn383 2.020 . S
C380 O381 1.244 . S
C380 O404 1.257 . S
O381 C380 1.244 . S
O382 Zn374 2.019 . S
O382 C402 1.257 . S
Zn383 N379 2.020 . S
Zn383 O390 1.975 . S
Zn383 N399 2.119 . S
Zn383 O404 2.019 . S
N384 Zn374 2.119 . S
N384 C386 1.334 . S
N384 C387 1.328 . S
C385 C386 1.391 . S
C385 N388 1.329 . S
C385 H406 0.930 . S
C386 N384 1.334 . S
C386 C385 1.391 . S
C386 H393 0.930 . S
C387 N384 1.328 . S
C387 C389 1.392 . S
C387 H394 0.930 . S
N388 C385 1.329 . S
N388 C389 1.331 . S
C389 C387 1.392 . S
C389 N388 1.331 . S
O390 Zn383 1.975 . S
O390 C391 1.252 . S
C391 O390 1.252 . S
C391 O392 1.252 . S
O392 Zn374 1.975 . S
O392 C391 1.252 . S
H393 C386 0.930 . S
H394 C387 0.930 . S
C395 C396 1.392 . S
C395 N399 1.328 . S
C395 H401 0.930 . S
C396 C395 1.392 . S
C396 N400 1.331 . S
C397 C398 1.391 . S
C397 N400 1.329 . S
C397 H407 0.930 . S
C398 C397 1.391 . S
C398 N399 1.334 . S
C398 H405 0.930 . S
N399 Zn383 2.119 . S
N399 C395 1.328 . S
N399 C398 1.334 . S
N400 C396 1.331 . S
N400 C397 1.329 . S
H401 C395 0.930 . S
C402 O382 1.257 . S
C402 O403 1.244 . S
O403 C402 1.244 . S
O404 C380 1.257 . S
O404 Zn383 2.019 . S
H405 C398 0.930 . S
H406 C385 0.930 . S
H407 C397 0.930 . S
Zn408 N412 2.020 . S
Zn408 O416 2.019 . S
Zn408 N418 2.119 . S
Zn408 O426 1.975 . S
C409 N410 1.334 . S
C409 N413 1.336 . S
N410 C409 1.334 . S
N410 C411 1.334 . S
C411 N410 1.334 . S
C411 N412 1.336 . S
N412 Zn408 2.020 . S
N412 C411 1.336 . S
N412 N413 1.354 . S
N413 C409 1.336 . S
N413 N412 1.354 . S
N413 Zn417 2.020 . S
C414 O415 1.244 . S
C414 O438 1.257 . S
O415 C414 1.244 . S
O416 Zn408 2.019 . S
O416 C436 1.257 . S
Zn417 N413 2.020 . S
Zn417 O424 1.975 . S
Zn417 N433 2.119 . S
Zn417 O438 2.019 . S
N418 Zn408 2.119 . S
N418 C420 1.334 . S
N418 C421 1.328 . S
C419 C420 1.391 . S
C419 N422 1.329 . S
C419 H440 0.930 . S
C420 N418 1.334 . S
C420 C419 1.391 . S
C420 H427 0.930 . S
C421 N418 1.328 . S
C421 C423 1.392 . S
C421 H428 0.930 . S
N422 C419 1.329 . S
N422 C423 1.331 . S
C423 C421 1.392 . S
C423 N422 1.331 . S
O424 Zn417 1.975 . S
O424 C425 1.252 . S
C425 O424 1.252 . S
C425 O426 1.252 . S
O426 Zn408 1.975 . S
O426 C425 1.252 . S
H427 C420 0.930 . S
H428 C421 0.930 . S
C429 C430 1.392 . S
C429 N433 1.328 . S
C429 H435 0.930 . S
C430 C429 1.392 . S
C430 N434 1.331 . S
C431 C432 1.391 . S
C431 N434 1.329 . S
C431 H441 0.930 . S
C432 C431 1.391 . S
C432 N433 1.334 . S
C432 H439 0.930 . S
N433 Zn417 2.119 . S
N433 C429 1.328 . S
N433 C432 1.334 . S
N434 C430 1.331 . S
N434 C431 1.329 . S
H435 C429 0.930 . S
C436 O416 1.257 . S
C436 O437 1.244 . S
O437 C436 1.244 . S
O438 C414 1.257 . S
O438 Zn417 2.019 . S
H439 C432 0.930 . S
H440 C419 0.930 . S
H441 C431 0.930 . S
Zn442 N446 2.020 . S
Zn442 O450 2.019 . S
Zn442 N452 2.119 . S
Zn442 O460 1.975 . S
C443 N444 1.334 . S
C443 N447 1.336 . S
N444 C443 1.334 . S
N444 C445 1.334 . S
C445 N444 1.334 . S
C445 N446 1.336 . S
N446 Zn442 2.020 . S
N446 C445 1.336 . S
N446 N447 1.354 . S
N447 C443 1.336 . S
N447 N446 1.354 . S
N447 Zn451 2.020 . S
C448 O449 1.244 . S
C448 O472 1.257 . S
O449 C448 1.244 . S
O450 Zn442 2.019 . S
O450 C470 1.257 . S
Zn451 N447 2.020 . S
Zn451 O458 1.975 . S
Zn451 N467 2.119 . S
Zn451 O472 2.019 . S
N452 Zn442 2.119 . S
N452 C454 1.334 . S
N452 C455 1.328 . S
C453 C454 1.391 . S
C453 N456 1.329 . S
C453 H474 0.930 . S
C454 N452 1.334 . S
C454 C453 1.391 . S
C454 H461 0.930 . S
C455 N452 1.328 . S
C455 C457 1.392 . S
C455 H462 0.930 . S
N456 C453 1.329 . S
N456 C457 1.331 . S
C457 C455 1.392 . S
C457 N456 1.331 . S
O458 Zn451 1.975 . S
O458 C459 1.252 . S
C459 O458 1.252 . S
C459 O460 1.252 . S
O460 Zn442 1.975 . S
O460 C459 1.252 . S
H461 C454 0.930 . S
H462 C455 0.930 . S
C463 C464 1.392 . S
C463 N467 1.328 . S
C463 H469 0.930 . S
C464 C463 1.392 . S
C464 N468 1.331 . S
C465 C466 1.391 . S
C465 N468 1.329 . S
C465 H475 0.930 . S
C466 C465 1.391 . S
C466 N467 1.334 . S
C466 H473 0.930 . S
N467 Zn451 2.119 . S
N467 C463 1.328 . S
N467 C466 1.334 . S
N468 C464 1.331 . S
N468 C465 1.329 . S
H469 C463 0.930 . S
C470 O450 1.257 . S
C470 O471 1.244 . S
O471 C470 1.244 . S
O472 C448 1.257 . S
O472 Zn451 2.019 . S
H473 C466 0.930 . S
H474 C453 0.930 . S
H475 C465 0.930 . S
Zn476 N480 2.020 . S
Zn476 O484 2.019 . S
Zn476 N486 2.119 . S
Zn476 O494 1.975 . S
C477 N478 1.334 . S
C477 N481 1.336 . S
N478 C477 1.334 . S
N478 C479 1.334 . S
C479 N478 1.334 . S
C479 N480 1.336 . S
N480 Zn476 2.020 . S
N480 C479 1.336 . S
N480 N481 1.354 . S
N481 C477 1.336 . S
N481 N480 1.354 . S
N481 Zn485 2.020 . S
C482 O483 1.244 . S
C482 O506 1.257 . S
O483 C482 1.244 . S
O484 Zn476 2.019 . S
O484 C504 1.257 . S
Zn485 N481 2.020 . S
Zn485 O492 1.975 . S
Zn485 N501 2.119 . S
Zn485 O506 2.019 . S
N486 Zn476 2.119 . S
N486 C488 1.334 . S
N486 C489 1.328 . S
C487 C488 1.391 . S
C487 N490 1.329 . S
C487 H508 0.930 . S
C488 N486 1.334 . S
C488 C487 1.391 . S
C488 H495 0.930 . S
C489 N486 1.328 . S
C489 C491 1.392 . S
C489 H496 0.930 . S
N490 C487 1.329 . S
N490 C491 1.331 . S
C491 C489 1.392 . S
C491 N490 1.331 . S
O492 Zn485 1.975 . S
O492 C493 1.252 . S
C493 O492 1.252 . S
C493 O494 1.252 . S
O494 Zn476 1.975 . S
O494 C493 1.252 . S
H495 C488 0.930 . S
H496 C489 0.930 . S
C497 C498 1.392 . S
C497 N501 1.328 . S
C497 H503 0.930 . S
C498 C497 1.392 . S
C498 N502 1.331 . S
C499 C500 1.391 . S
C499 N502 1.329 . S
C499 H509 0.930 . S
C500 C499 1.391 . S
C500 N501 1.334 . S
C500 H507 0.930 . S
N501 Zn485 2.119 . S
N501 C497 1.328 . S
N501 C500 1.334 . S
N502 C498 1.331 . S
N502 C499 1.329 . S
H503 C497 0.930 . S
C504 O484 1.257 . S
C504 O505 1.244 . S
O505 C504 1.244 . S
O506 C482 1.257 . S
O506 Zn485 2.019 . S
H507 C500 0.930 . S
H508 C487 0.930 . S
H509 C499 0.930 . S
Zn510 N514 2.020 . S
Zn510 O518 2.019 . S
Zn510 N520 2.119 . S
Zn510 O528 1.975 . S
C511 N512 1.334 . S
C511 N515 1.336 . S
N512 C511 1.334 . S
N512 C513 1.334 . S
C513 N512 1.334 . S
C513 N514 1.336 . S
N514 Zn510 2.020 . S
N514 C513 1.336 . S
N514 N515 1.354 . S
N515 C511 1.336 . S
N515 N514 1.354 . S
N515 Zn519 2.020 . S
C516 O517 1.244 . S
C516 O540 1.257 . S
O517 C516 1.244 . S
O518 Zn510 2.019 . S
O518 C538 1.257 . S
Zn519 N515 2.020 . S
Zn519 O526 1.975 . S
Zn519 N535 2.119 . S
Zn519 O540 2.019 . S
N520 Zn510 2.119 . S
N520 C522 1.334 . S
N520 C523 1.328 . S
C521 C522 1.391 . S
C521 N524 1.329 . S
C521 H542 0.930 . S
C522 N520 1.334 . S
C522 C521 1.391 . S
C522 H529 0.930 . S
C523 N520 1.328 . S
C523 C525 1.392 . S
C523 H530 0.930 . S
N524 C521 1.329 . S
N524 C525 1.331 . S
C525 C523 1.392 . S
C525 N524 1.331 . S
O526 Zn519 1.975 . S
O526 C527 1.252 . S
C527 O526 1.252 . S
C527 O528 1.252 . S
O528 Zn510 1.975 . S
O528 C527 1.252 . S
H529 C522 0.930 . S
H530 C523 0.930 . S
C531 C532 1.392 . S
C531 N535 1.328 . S
C531 H537 0.930 . S
C532 C531 1.392 . S
C532 N536 1.331 . S
C533 C534 1.391 . S
C533 N536 1.329 . S
C533 H543 0.930 . S
C534 C533 1.391 . S
C534 N535 1.334 . S
C534 H541 0.930 . S
N535 Zn519 2.119 . S
N535 C531 1.328 . S
N535 C534 1.334 . S
N536 C532 1.331 . S
N536 C533 1.329 . S
H537 C531 0.930 . S
C538 O518 1.257 . S
C538 O539 1.244 . S
O539 C538 1.244 . S
O540 C516 1.257 . S
O540 Zn519 2.019 . S
H541 C534 0.930 . S
H542 C521 0.930 . S
H543 C533 0.930 . S
C544 C545 1.349 . S
C544 C546 1.327 . S
C544 H569 0.950 . S
C545 C544 1.349 . S
C545 C561 1.349 . S
C546 C544 1.327 . S
C546 C565 1.429 . S
C546 H570 0.950 . S
C547 C564 1.574 . S
C547 C566 1.368 . S
C547 H571 0.949 . S
H548 C552 0.949 . S
C549 C550 1.349 . S
C549 C551 1.327 . S
C549 H572 0.950 . S
C550 C549 1.349 . S
C550 C562 1.349 . S
C551 C549 1.327 . S
C551 C567 1.429 . S
C551 H573 0.950 . S
C552 H548 0.949 . S
C552 C560 1.574 . S
C552 C568 1.368 . S
H553 C561 0.950 . S
H554 C559 0.950 . S
H555 C560 0.949 . S
H556 C562 0.950 . S
H557 C563 0.950 . S
H558 C564 0.949 . S
C559 H554 0.950 . S
C559 C561 1.327 . S
C559 C565 1.429 . S
C560 C552 1.574 . S
C560 H555 0.949 . S
C560 C566 1.368 . S
C561 C545 1.349 . S
C561 H553 0.950 . S
C561 C559 1.327 . S
C562 C550 1.349 . S
C562 H556 0.950 . S
C562 C563 1.327 . S
C563 H557 0.950 . S
C563 C562 1.327 . S
C563 C567 1.429 . S
C564 C547 1.574 . S
C564 H558 0.949 . S
C564 C568 1.368 . S
C565 C546 1.429 . S
C565 C559 1.429 . S
C565 C566 1.523 . S
C566 C547 1.368 . S
C566 C560 1.368 . S
C566 C565 1.523 . S
C567 C551 1.429 . S
C567 C563 1.429 . S
C567 C568 1.523 . S
C568 C552 1.368 . S
C568 C564 1.368 . S
C568 C567 1.523 . S
H569 C544 0.950 . S
H570 C546 0.950 . S
H571 C547 0.949 . S
H572 C549 0.950 . S
H573 C551 0.950 . S
C574 C575 1.349 . S
C574 C576 1.327 . S
C574 H599 0.950 . S
C575 C574 1.349 . S
C575 C591 1.349 . S
C576 C574 1.327 . S
C576 C595 1.429 . S
C576 H600 0.950 . S
C577 C594 1.574 . S
C577 C596 1.368 . S
C577 H601 0.949 . S
H578 C582 0.949 . S
C579 C580 1.349 . S
C579 C581 1.327 . S
C579 H602 0.950 . S
C580 C579 1.349 . S
C580 C592 1.349 . S
C581 C579 1.327 . S
C581 C597 1.429 . S
C581 H603 0.950 . S
C582 H578 0.949 . S
C582 C590 1.574 . S
C582 C598 1.368 . S
H583 C591 0.950 . S
H584 C589 0.950 . S
H585 C590 0.949 . S
H586 C592 0.950 . S
H587 C593 0.950 . S
H588 C594 0.949 . S
C589 H584 0.950 . S
C589 C591 1.327 . S
C589 C595 1.429 . S
C590 C582 1.574 . S
C590 H585 0.949 . S
C590 C596 1.368 . S
C591 C575 1.349 . S
C591 H583 0.950 . S
C591 C589 1.327 . S
C592 C580 1.349 . S
C592 H586 0.950 . S
C592 C593 1.327 . S
C593 H587 0.950 . S
C593 C592 1.327 . S
C593 C597 1.429 . S
C594 C577 1.574 . S
C594 H588 0.949 . S
C594 C598 1.368 . S
C595 C576 1.429 . S
C595 C589 1.429 . S
C595 C596 1.523 . S
C596 C577 1.368 . S
C596 C590 1.368 . S
C596 C595 1.523 . S
C597 C581 1.429 . S
C597 C593 1.429 . S
C597 C598 1.523 . S
C598 C582 1.368 . S
C598 C594 1.368 . S
C598 C597 1.523 . S
H599 C574 0.950 . S
H600 C576 0.950 . S
H601 C577 0.949 . S
H602 C579 0.950 . S
H603 C581 0.950 . S
C604 C605 1.349 . S
C604 C606 1.327 . S
C604 H629 0.950 . S
C605 C604 1.349 . S
C605 C621 1.349 . S
C606 C604 1.327 . S
C606 C625 1.429 . S
C606 H630 0.950 . S
C607 C624 1.574 . S
C607 C626 1.368 . S
C607 H631 0.949 . S
H608 C612 0.949 . S
C609 C610 1.349 . S
C609 C611 1.327 . S
C609 H632 0.950 . S
C610 C609 1.349 . S
C610 C622 1.349 . S
C611 C609 1.327 . S
C611 C627 1.429 . S
C611 H633 0.950 . S
C612 H608 0.949 . S
C612 C620 1.574 . S
C612 C628 1.368 . S
H613 C621 0.950 . S
H614 C619 0.950 . S
H615 C620 0.949 . S
H616 C622 0.950 . S
H617 C623 0.950 . S
H618 C624 0.949 . S
C619 H614 0.950 . S
C619 C621 1.327 . S
C619 C625 1.429 . S
C620 C612 1.574 . S
C620 H615 0.949 . S
C620 C626 1.368 . S
C621 C605 1.349 . S
C621 H613 0.950 . S
C621 C619 1.327 . S
C622 C610 1.349 . S
C622 H616 0.950 . S
C622 C623 1.327 . S
C623 H617 0.950 . S
C623 C622 1.327 . S
C623 C627 1.429 . S
C624 C607 1.574 . S
C624 H618 0.949 . S
C624 C628 1.368 . S
C625 C606 1.429 . S
C625 C619 1.429 . S
C625 C626 1.523 . S
C626 C607 1.368 . S
C626 C620 1.368 . S
C626 C625 1.523 . S
C627 C611 1.429 . S
C627 C623 1.429 . S
C627 C628 1.523 . S
C628 C612 1.368 . S
C628 C624 1.368 . S
C628 C627 1.523 . S
H629 C604 0.950 . S
H630 C606 0.950 . S
H631 C607 0.949 . S
H632 C609 0.950 . S
H633 C611 0.950 . S
C634 C635 1.349 . S
C634 C636 1.327 . S
C634 H659 0.950 . S
C635 C634 1.349 . S
C635 C651 1.349 . S
C636 C634 1.327 . S
C636 C655 1.429 . S
C636 H660 0.950 . S
C637 C654 1.574 . S
C637 C656 1.368 . S
C637 H661 0.949 . S
H638 C642 0.949 . S
C639 C640 1.349 . S
C639 C641 1.327 1_655 S
C639 H662 0.950 . S
C640 C639 1.349 . S
C640 C652 1.349 . S
C641 C639 1.327 1_455 S
C641 C657 1.429 . S
C641 H663 0.950 . S
C642 H638 0.949 . S
C642 C650 1.574 . S
C642 C658 1.368 . S
H643 C651 0.950 . S
H644 C649 0.950 . S
H645 C650 0.949 . S
H646 C652 0.950 . S
H647 C653 0.950 . S
H648 C654 0.949 . S
C649 H644 0.950 . S
C649 C651 1.327 . S
C649 C655 1.429 . S
C650 C642 1.574 . S
C650 H645 0.949 . S
C650 C656 1.368 . S
C651 C635 1.349 . S
C651 H643 0.950 . S
C651 C649 1.327 . S
C652 C640 1.349 . S
C652 H646 0.950 . S
C652 C653 1.327 1_655 S
C653 H647 0.950 . S
C653 C652 1.327 1_455 S
C653 C657 1.429 . S
C654 C637 1.574 . S
C654 H648 0.949 . S
C654 C658 1.368 . S
C655 C636 1.429 . S
C655 C649 1.429 . S
C655 C656 1.523 . S
C656 C637 1.368 . S
C656 C650 1.368 . S
C656 C655 1.523 . S
C657 C641 1.429 . S
C657 C653 1.429 . S
C657 C658 1.523 . S
C658 C642 1.368 . S
C658 C654 1.368 . S
C658 C657 1.523 . S
H659 C634 0.950 . S
H660 C636 0.950 . S
H661 C637 0.949 . S
H662 C639 0.950 . S
H663 C641 0.950 . S
C664 C665 1.349 . S
C664 C666 1.327 . S
C664 H689 0.950 . S
C665 C664 1.349 . S
C665 C681 1.349 . S
C666 C664 1.327 . S
C666 C685 1.429 . S
C666 H690 0.950 . S
C667 C684 1.574 . S
C667 C686 1.368 . S
C667 H691 0.949 . S
H668 C672 0.949 . S
C669 C670 1.349 . S
C669 C671 1.327 . S
C669 H692 0.950 . S
C670 C669 1.349 . S
C670 C682 1.349 . S
C671 C669 1.327 . S
C671 C687 1.429 . S
C671 H693 0.950 . S
C672 H668 0.949 . S
C672 C680 1.574 . S
C672 C688 1.368 . S
H673 C681 0.950 . S
H674 C679 0.950 . S
H675 C680 0.949 . S
H676 C682 0.950 . S
H677 C683 0.950 . S
H678 C684 0.949 . S
C679 H674 0.950 . S
C679 C681 1.327 . S
C679 C685 1.429 . S
C680 C672 1.574 . S
C680 H675 0.949 . S
C680 C686 1.368 . S
C681 C665 1.349 . S
C681 H673 0.950 . S
C681 C679 1.327 . S
C682 C670 1.349 . S
C682 H676 0.950 . S
C682 C683 1.327 . S
C683 H677 0.950 . S
C683 C682 1.327 . S
C683 C687 1.429 . S
C684 C667 1.574 . S
C684 H678 0.949 . S
C684 C688 1.368 . S
C685 C666 1.429 . S
C685 C679 1.429 . S
C685 C686 1.523 . S
C686 C667 1.368 . S
C686 C680 1.368 . S
C686 C685 1.523 . S
C687 C671 1.429 . S
C687 C683 1.429 . S
C687 C688 1.523 . S
C688 C672 1.368 . S
C688 C684 1.368 . S
C688 C687 1.523 . S
H689 C664 0.950 . S
H690 C666 0.950 . S
H691 C667 0.949 . S
H692 C669 0.950 . S
H693 C671 0.950 . S
C694 C695 1.349 . S
C694 C696 1.327 . S
C694 H719 0.950 . S
C695 C694 1.349 . S
C695 C711 1.349 . S
C696 C694 1.327 . S
C696 C715 1.429 . S
C696 H720 0.950 . S
C697 C714 1.574 . S
C697 C716 1.368 . S
C697 H721 0.949 . S
H698 C702 0.949 . S
C699 C700 1.349 . S
C699 C701 1.327 . S
C699 H722 0.950 . S
C700 C699 1.349 . S
C700 C712 1.349 . S
C701 C699 1.327 . S
C701 C717 1.429 . S
C701 H723 0.950 . S
C702 H698 0.949 . S
C702 C710 1.574 . S
C702 C718 1.368 . S
H703 C711 0.950 . S
H704 C709 0.950 . S
H705 C710 0.949 . S
H706 C712 0.950 . S
H707 C713 0.950 . S
H708 C714 0.949 . S
C709 H704 0.950 . S
C709 C711 1.327 . S
C709 C715 1.429 . S
C710 C702 1.574 . S
C710 H705 0.949 . S
C710 C716 1.368 . S
C711 C695 1.349 . S
C711 H703 0.950 . S
C711 C709 1.327 . S
C712 C700 1.349 . S
C712 H706 0.950 . S
C712 C713 1.327 . S
C713 H707 0.950 . S
C713 C712 1.327 . S
C713 C717 1.429 . S
C714 C697 1.574 . S
C714 H708 0.949 . S
C714 C718 1.368 . S
C715 C696 1.429 . S
C715 C709 1.429 . S
C715 C716 1.523 . S
C716 C697 1.368 . S
C716 C710 1.368 . S
C716 C715 1.523 . S
C717 C701 1.429 . S
C717 C713 1.429 . S
C717 C718 1.523 . S
C718 C702 1.368 . S
C718 C714 1.368 . S
C718 C717 1.523 . S
H719 C694 0.950 . S
H720 C696 0.950 . S
H721 C697 0.949 . S
H722 C699 0.950 . S
H723 C701 0.950 . S
C724 C725 1.349 . S
C724 C726 1.327 . S
C724 H749 0.950 . S
C725 C724 1.349 . S
C725 C741 1.349 . S
C726 C724 1.327 . S
C726 C745 1.429 . S
C726 H750 0.950 . S
C727 C744 1.574 . S
C727 C746 1.368 . S
C727 H751 0.949 . S
H728 C732 0.949 . S
C729 C730 1.349 . S
C729 C731 1.327 . S
C729 H752 0.950 . S
C730 C729 1.349 . S
C730 C742 1.349 . S
C731 C729 1.327 . S
C731 C747 1.429 . S
C731 H753 0.950 . S
C732 H728 0.949 . S
C732 C740 1.574 . S
C732 C748 1.368 . S
H733 C741 0.950 . S
H734 C739 0.950 . S
H735 C740 0.949 . S
H736 C742 0.950 . S
H737 C743 0.950 . S
H738 C744 0.949 . S
C739 H734 0.950 . S
C739 C741 1.327 . S
C739 C745 1.429 . S
C740 C732 1.574 . S
C740 H735 0.949 . S
C740 C746 1.368 . S
C741 C725 1.349 . S
C741 H733 0.950 . S
C741 C739 1.327 . S
C742 C730 1.349 . S
C742 H736 0.950 . S
C742 C743 1.327 . S
C743 H737 0.950 . S
C743 C742 1.327 . S
C743 C747 1.429 . S
C744 C727 1.574 . S
C744 H738 0.949 . S
C744 C748 1.368 . S
C745 C726 1.429 . S
C745 C739 1.429 . S
C745 C746 1.523 . S
C746 C727 1.368 . S
C746 C740 1.368 . S
C746 C745 1.523 . S
C747 C731 1.429 . S
C747 C743 1.429 . S
C747 C748 1.523 . S
C748 C732 1.368 . S
C748 C744 1.368 . S
C748 C747 1.523 . S
H749 C724 0.950 . S
H750 C726 0.950 . S
H751 C727 0.949 . S
H752 C729 0.950 . S
H753 C731 0.950 . S
C754 C755 1.349 . S
C754 C756 1.327 . S
C754 H779 0.950 . S
C755 C754 1.349 . S
C755 C771 1.349 . S
C756 C754 1.327 . S
C756 C775 1.429 . S
C756 H780 0.950 . S
C757 C774 1.574 . S
C757 C776 1.368 . S
C757 H781 0.949 . S
H758 C762 0.949 . S
C759 C760 1.349 . S
C759 C761 1.327 1_455 S
C759 H782 0.950 . S
C760 C759 1.349 . S
C760 C772 1.349 . S
C761 C759 1.327 1_655 S
C761 C777 1.429 . S
C761 H783 0.950 . S
C762 H758 0.949 . S
C762 C770 1.574 . S
C762 C778 1.368 . S
H763 C771 0.950 . S
H764 C769 0.950 . S
H765 C770 0.949 . S
H766 C772 0.950 . S
H767 C773 0.950 . S
H768 C774 0.949 . S
C769 H764 0.950 . S
C769 C771 1.327 . S
C769 C775 1.429 . S
C770 C762 1.574 . S
C770 H765 0.949 . S
C770 C776 1.368 . S
C771 C755 1.349 . S
C771 H763 0.950 . S
C771 C769 1.327 . S
C772 C760 1.349 . S
C772 H766 0.950 . S
C772 C773 1.327 1_455 S
C773 H767 0.950 . S
C773 C772 1.327 1_655 S
C773 C777 1.429 . S
C774 C757 1.574 . S
C774 H768 0.949 . S
C774 C778 1.368 . S
C775 C756 1.429 . S
C775 C769 1.429 . S
C775 C776 1.523 . S
C776 C757 1.368 . S
C776 C770 1.368 . S
C776 C775 1.523 . S
C777 C761 1.429 . S
C777 C773 1.429 . S
C777 C778 1.523 . S
C778 C762 1.368 . S
C778 C774 1.368 . S
C778 C777 1.523 . S
H779 C754 0.950 . S
H780 C756 0.950 . S
H781 C757 0.949 . S
H782 C759 0.950 . S
H783 C761 0.950 . S
C784 C785 1.349 . S
C784 C786 1.327 . S
C784 H809 0.950 . S
C785 C784 1.349 . S
C785 C801 1.349 . S
C786 C784 1.327 . S
C786 C805 1.429 . S
C786 H810 0.950 . S
C787 C804 1.574 . S
C787 C806 1.368 . S
C787 H811 0.949 . S
H788 C792 0.949 . S
C789 C790 1.349 . S
C789 C791 1.327 . S
C789 H812 0.950 . S
C790 C789 1.349 . S
C790 C802 1.349 . S
C791 C789 1.327 . S
C791 C807 1.429 . S
C791 H813 0.950 . S
C792 H788 0.949 . S
C792 C800 1.574 . S
C792 C808 1.368 . S
H793 C801 0.950 . S
H794 C799 0.950 . S
H795 C800 0.949 . S
H796 C802 0.950 . S
H797 C803 0.950 . S
H798 C804 0.949 . S
C799 H794 0.950 . S
C799 C801 1.327 . S
C799 C805 1.429 . S
C800 C792 1.574 . S
C800 H795 0.949 . S
C800 C806 1.368 . S
C801 C785 1.349 . S
C801 H793 0.950 . S
C801 C799 1.327 . S
C802 C790 1.349 . S
C802 H796 0.950 . S
C802 C803 1.327 . S
C803 H797 0.950 . S
C803 C802 1.327 . S
C803 C807 1.429 . S
C804 C787 1.574 . S
C804 H798 0.949 . S
C804 C808 1.368 . S
C805 C786 1.429 . S
C805 C799 1.429 . S
C805 C806 1.523 . S
C806 C787 1.368 . S
C806 C800 1.368 . S
C806 C805 1.523 . S
C807 C791 1.429 . S
C807 C803 1.429 . S
C807 C808 1.523 . S
C808 C792 1.368 . S
C808 C804 1.368 . S
C808 C807 1.523 . S
H809 C784 0.950 . S
H810 C786 0.950 . S
H811 C787 0.949 . S
H812 C789 0.950 . S
H813 C791 0.950 . S
C814 C815 1.349 . S
C814 C816 1.327 1_455 S
C814 H839 0.950 . S
C815 C814 1.349 . S
C815 C831 1.349 . S
C816 C814 1.327 1_655 S
C816 C835 1.429 . S
C816 H840 0.950 . S
C817 C834 1.569 1_545 S
C817 C836 1.382 . S
C817 H841 0.942 1_545 S
H818 C822 0.949 . S
C819 C820 1.349 . S
C819 C821 1.327 . S
C819 H842 0.950 . S
C820 C819 1.349 . S
C820 C832 1.342 1_565 S
C821 C819 1.327 . S
C821 C837 1.429 . S
C821 H843 0.950 . S
C822 H818 0.949 . S
C822 C830 1.574 . S
C822 C838 1.368 . S
H823 C831 0.950 . S
H824 C829 0.950 . S
H825 C830 0.949 . S
H826 C832 0.954 . S
H827 C833 0.950 . S
H828 C834 0.949 . S
C829 H824 0.950 . S
C829 C831 1.327 1_655 S
C829 C835 1.429 . S
C830 C822 1.574 . S
C830 H825 0.949 . S
C830 C836 1.368 . S
C831 C815 1.349 . S
C831 H823 0.950 . S
C831 C829 1.327 1_455 S
C832 C820 1.342 1_545 S
C832 H826 0.954 . S
C832 C833 1.330 . S
C833 H827 0.950 . S
C833 C832 1.330 . S
C833 C837 1.429 1_545 S
C834 C817 1.569 1_565 S
C834 H828 0.949 . S
C834 C838 1.368 1_565 S
C835 C816 1.429 . S
C835 C829 1.429 . S
C835 C836 1.523 . S
C836 C817 1.382 . S
C836 C830 1.368 . S
C836 C835 1.523 . S
C837 C821 1.429 . S
C837 C833 1.429 1_565 S
C837 C838 1.523 1_565 S
C838 C822 1.368 . S
C838 C834 1.368 1_545 S
C838 C837 1.523 1_545 S
H839 C814 0.950 . S
H840 C816 0.950 . S
H841 C817 0.942 1_565 S
H842 C819 0.950 . S
H843 C821 0.950 . S
C844 C845 1.349 . S
C844 C846 1.327 . S
C844 H869 0.950 . S
C845 C844 1.349 . S
C845 C861 1.349 . S
C846 C844 1.327 . S
C846 C865 1.429 . S
C846 H870 0.950 . S
C847 C864 1.574 . S
C847 C866 1.368 . S
C847 H871 0.949 . S
H848 C852 0.949 . S
C849 C850 1.349 . S
C849 C851 1.327 . S
C849 H872 0.950 . S
C850 C849 1.349 . S
C850 C862 1.349 . S
C851 C849 1.327 . S
C851 C867 1.429 . S
C851 H873 0.950 . S
C852 H848 0.949 . S
C852 C860 1.574 . S
C852 C868 1.368 . S
H853 C861 0.950 . S
H854 C859 0.950 . S
H855 C860 0.949 . S
H856 C862 0.950 . S
H857 C863 0.950 . S
H858 C864 0.949 . S
C859 H854 0.950 . S
C859 C861 1.327 . S
C859 C865 1.429 . S
C860 C852 1.574 . S
C860 H855 0.949 . S
C860 C866 1.368 . S
C861 C845 1.349 . S
C861 H853 0.950 . S
C861 C859 1.327 . S
C862 C850 1.349 . S
C862 H856 0.950 . S
C862 C863 1.327 . S
C863 H857 0.950 . S
C863 C862 1.327 . S
C863 C867 1.429 . S
C864 C847 1.574 . S
C864 H858 0.949 . S
C864 C868 1.368 . S
C865 C846 1.429 . S
C865 C859 1.429 . S
C865 C866 1.523 . S
C866 C847 1.368 . S
C866 C860 1.368 . S
C866 C865 1.523 . S
C867 C851 1.429 . S
C867 C863 1.429 . S
C867 C868 1.523 . S
C868 C852 1.368 . S
C868 C864 1.368 . S
C868 C867 1.523 . S
H869 C844 0.950 . S
H870 C846 0.950 . S
H871 C847 0.949 . S
H872 C849 0.950 . S
H873 C851 0.950 . S
C874 C875 1.349 1_565 S
C874 C876 1.327 . S
C874 H899 0.950 . S
C875 C874 1.349 1_545 S
C875 C891 1.349 . S
C876 C874 1.327 . S
C876 C895 1.429 1_565 S
C876 H900 0.950 . S
C877 C894 1.574 . S
C877 C896 1.368 1_545 S
C877 H901 0.949 . S
H878 C882 0.949 . S
C879 C880 1.349 . S
C879 C881 1.327 . S
C879 H902 0.950 . S
C880 C879 1.349 . S
C880 C892 1.349 . S
C881 C879 1.327 . S
C881 C897 1.429 . S
C881 H903 0.950 1_565 S
C882 H878 0.949 . S
C882 C890 1.574 . S
C882 C898 1.368 . S
H883 C891 0.950 . S
H884 C889 0.950 . S
H885 C890 0.949 . S
H886 C892 0.950 . S
H887 C893 0.950 . S
H888 C894 0.949 . S
C889 H884 0.950 . S
C889 C891 1.327 . S
C889 C895 1.429 . S
C890 C882 1.574 . S
C890 H885 0.949 . S
C890 C896 1.368 . S
C891 C875 1.349 . S
C891 H883 0.950 . S
C891 C889 1.327 . S
C892 C880 1.349 . S
C892 H886 0.950 . S
C892 C893 1.327 . S
C893 H887 0.950 . S
C893 C892 1.327 . S
C893 C897 1.429 . S
C894 C877 1.574 . S
C894 H888 0.949 . S
C894 C898 1.368 1_545 S
C895 C876 1.429 1_545 S
C895 C889 1.429 . S
C895 C896 1.523 1_545 S
C896 C877 1.368 1_565 S
C896 C890 1.368 . S
C896 C895 1.523 1_565 S
C897 C881 1.429 . S
C897 C893 1.429 . S
C897 C898 1.523 . S
C898 C882 1.368 . S
C898 C894 1.368 1_565 S
C898 C897 1.523 . S
H899 C874 0.950 . S
H900 C876 0.950 . S
H901 C877 0.949 . S
H902 C879 0.950 . S
H903 C881 0.950 1_545 S
C904 C905 1.349 . S
C904 C906 1.327 . S
C904 H929 0.950 . S
C905 C904 1.349 . S
C905 C921 1.349 . S
C906 C904 1.327 . S
C906 C925 1.429 . S
C906 H930 0.950 . S
C907 C924 1.574 . S
C907 C926 1.368 . S
C907 H931 0.949 . S
H908 C912 0.949 . S
C909 C910 1.349 . S
C909 C911 1.327 . S
C909 H932 0.950 . S
C910 C909 1.349 . S
C910 C922 1.349 . S
C911 C909 1.327 . S
C911 C927 1.429 . S
C911 H933 0.950 . S
C912 H908 0.949 . S
C912 C920 1.574 . S
C912 C928 1.368 . S
H913 C921 0.950 . S
H914 C919 0.950 . S
H915 C920 0.949 . S
H916 C922 0.950 . S
H917 C923 0.950 . S
H918 C924 0.949 . S
C919 H914 0.950 . S
C919 C921 1.327 . S
C919 C925 1.429 . S
C920 C912 1.574 . S
C920 H915 0.949 . S
C920 C926 1.368 . S
C921 C905 1.349 . S
C921 H913 0.950 . S
C921 C919 1.327 . S
C922 C910 1.349 . S
C922 H916 0.950 . S
C922 C923 1.327 . S
C923 H917 0.950 . S
C923 C922 1.327 . S
C923 C927 1.429 . S
C924 C907 1.574 . S
C924 H918 0.949 . S
C924 C928 1.368 . S
C925 C906 1.429 . S
C925 C919 1.429 . S
C925 C926 1.523 . S
C926 C907 1.368 . S
C926 C920 1.368 . S
C926 C925 1.523 . S
C927 C911 1.429 . S
C927 C923 1.429 . S
C927 C928 1.523 . S
C928 C912 1.368 . S
C928 C924 1.368 . S
C928 C927 1.523 . S
H929 C904 0.950 . S
H930 C906 0.950 . S
H931 C907 0.949 . S
H932 C909 0.950 . S
H933 C911 0.950 . S
C934 C935 1.349 . S
C934 C936 1.327 1_655 S
C934 H959 0.950 . S
C935 C934 1.349 . S
C935 C951 1.349 . S
C936 C934 1.327 1_455 S
C936 C955 1.429 . S
C936 H960 0.950 . S
C937 C954 1.574 . S
C937 C956 1.368 1_545 S
C937 H961 0.949 . S
H938 C942 0.949 . S
C939 C940 1.349 . S
C939 C941 1.327 . S
C939 H962 0.950 . S
C940 C939 1.349 . S
C940 C952 1.349 1_545 S
C941 C939 1.327 . S
C941 C957 1.429 . S
C941 H963 0.950 . S
C942 H938 0.949 . S
C942 C950 1.574 . S
C942 C958 1.368 . S
H943 C951 0.950 . S
H944 C949 0.950 1_545 S
H945 C950 0.949 . S
H946 C952 0.950 . S
H947 C953 0.950 . S
H948 C954 0.949 . S
C949 H944 0.950 1_565 S
C949 C951 1.327 1_455 S
C949 C955 1.429 . S
C950 C942 1.574 . S
C950 H945 0.949 . S
C950 C956 1.368 . S
C951 C935 1.349 . S
C951 H943 0.950 . S
C951 C949 1.327 1_655 S
C952 C940 1.349 1_565 S
C952 H946 0.950 . S
C952 C953 1.327 . S
C953 H947 0.950 . S
C953 C952 1.327 . S
C953 C957 1.429 1_565 S
C954 C937 1.574 . S
C954 H948 0.949 . S
C954 C958 1.368 1_545 S
C955 C936 1.429 . S
C955 C949 1.429 . S
C955 C956 1.523 . S
C956 C937 1.368 1_565 S
C956 C950 1.368 . S
C956 C955 1.523 . S
C957 C941 1.429 . S
C957 C953 1.429 1_545 S
C957 C958 1.523 1_545 S
C958 C942 1.368 . S
C958 C954 1.368 1_565 S
C958 C957 1.523 1_565 S
H959 C934 0.950 . S
H960 C936 0.950 . S
H961 C937 0.949 . S
H962 C939 0.950 . S
H963 C941 0.950 . S
C964 C965 1.349 . S
C964 C966 1.327 . S
C964 H989 0.950 . S
C965 C964 1.349 . S
C965 C981 1.349 . S
C966 C964 1.327 . S
C966 C985 1.429 . S
C966 H990 0.950 . S
C967 C984 1.574 . S
C967 C986 1.368 . S
C967 H991 0.949 . S
H968 C972 0.949 . S
C969 C970 1.349 . S
C969 C971 1.327 . S
C969 H992 0.950 . S
C970 C969 1.349 . S
C970 C982 1.349 . S
C971 C969 1.327 . S
C971 C987 1.429 . S
C971 H993 0.950 . S
C972 H968 0.949 . S
C972 C980 1.574 . S
C972 C988 1.368 . S
H973 C981 0.950 . S
H974 C979 0.950 . S
H975 C980 0.949 . S
H976 C982 0.950 . S
H977 C983 0.950 . S
H978 C984 0.949 . S
C979 H974 0.950 . S
C979 C981 1.327 . S
C979 C985 1.429 . S
C980 C972 1.574 . S
C980 H975 0.949 . S
C980 C986 1.368 . S
C981 C965 1.349 . S
C981 H973 0.950 . S
C981 C979 1.327 . S
C982 C970 1.349 . S
C982 H976 0.950 . S
C982 C983 1.327 . S
C983 H977 0.950 . S
C983 C982 1.327 . S
C983 C987 1.429 . S
C984 C967 1.574 . S
C984 H978 0.949 . S
C984 C988 1.368 . S
C985 C966 1.429 . S
C985 C979 1.429 . S
C985 C986 1.523 . S
C986 C967 1.368 . S
C986 C980 1.368 . S
C986 C985 1.523 . S
C987 C971 1.429 . S
C987 C983 1.429 . S
C987 C988 1.523 . S
C988 C972 1.368 . S
C988 C984 1.368 . S
C988 C987 1.523 . S
H989 C964 0.950 . S
H990 C966 0.950 . S
H991 C967 0.949 . S
H992 C969 0.950 . S
H993 C971 0.950 . S
C994 C995 1.349 1_545 S
C994 C996 1.327 . S
C994 H1019 0.950 . S
C995 C994 1.349 1_565 S
C995 C1011 1.349 . S
C996 C994 1.327 . S
C996 C1015 1.429 1_545 S
C996 H1020 0.950 . S
C997 C1014 1.574 . S
C997 C1016 1.368 1_565 S
C997 H1021 0.949 . S
H998 C1002 0.949 . S
C999 C1000 1.349 . S
C999 C1001 1.327 . S
C999 H1022 0.950 . S
C1000 C999 1.349 . S
C1000 C1012 1.349 . S
C1001 C999 1.327 . S
C1001 C1017 1.429 . S
C1001 H1023 0.950 1_545 S
C1002 H998 0.949 . S
C1002 C1010 1.574 . S
C1002 C1018 1.368 . S
H1003 C1011 0.950 . S
H1004 C1009 0.950 . S
H1005 C1010 0.949 . S
H1006 C1012 0.950 . S
H1007 C1013 0.950 . S
H1008 C1014 0.949 . S
C1009 H1004 0.950 . S
C1009 C1011 1.327 . S
C1009 C1015 1.429 . S
C1010 C1002 1.574 . S
C1010 H1005 0.949 . S
C1010 C1016 1.368 . S
C1011 C995 1.349 . S
C1011 H1003 0.950 . S
C1011 C1009 1.327 . S
C1012 C1000 1.349 . S
C1012 H1006 0.950 . S
C1012 C1013 1.327 . S
C1013 H1007 0.950 . S
C1013 C1012 1.327 . S
C1013 C1017 1.429 . S
C1014 C997 1.574 . S
C1014 H1008 0.949 . S
C1014 C1018 1.368 1_565 S
C1015 C996 1.429 1_565 S
C1015 C1009 1.429 . S
C1015 C1016 1.523 1_565 S
C1016 C997 1.368 1_545 S
C1016 C1010 1.368 . S
C1016 C1015 1.523 1_545 S
C1017 C1001 1.429 . S
C1017 C1013 1.429 . S
C1017 C1018 1.523 . S
C1018 C1002 1.368 . S
C1018 C1014 1.368 1_545 S
C1018 C1017 1.523 . S
H1019 C994 0.950 . S
H1020 C996 0.950 . S
H1021 C997 0.949 . S
H1022 C999 0.950 . S
H1023 C1001 0.950 1_565 S
C1024 C1025 1.349 . S
C1024 C1026 1.327 . S
C1024 H1049 0.950 . S
C1025 C1024 1.349 . S
C1025 C1041 1.349 . S
C1026 C1024 1.327 . S
C1026 C1045 1.429 . S
C1026 H1050 0.950 . S
C1027 C1044 1.574 . S
C1027 C1046 1.368 . S
C1027 H1051 0.949 . S
H1028 C1032 0.949 . S
C1029 C1030 1.349 . S
C1029 C1031 1.327 . S
C1029 H1052 0.950 . S
C1030 C1029 1.349 . S
C1030 C1042 1.349 . S
C1031 C1029 1.327 . S
C1031 C1047 1.429 . S
C1031 H1053 0.950 . S
C1032 H1028 0.949 . S
C1032 C1040 1.574 . S
C1032 C1048 1.368 . S
H1033 C1041 0.950 . S
H1034 C1039 0.950 . S
H1035 C1040 0.949 . S
H1036 C1042 0.950 . S
H1037 C1043 0.950 . S
H1038 C1044 0.949 . S
C1039 H1034 0.950 . S
C1039 C1041 1.327 . S
C1039 C1045 1.429 . S
C1040 C1032 1.574 . S
C1040 H1035 0.949 . S
C1040 C1046 1.368 . S
C1041 C1025 1.349 . S
C1041 H1033 0.950 . S
C1041 C1039 1.327 . S
C1042 C1030 1.349 . S
C1042 H1036 0.950 . S
C1042 C1043 1.327 . S
C1043 H1037 0.950 . S
C1043 C1042 1.327 . S
C1043 C1047 1.429 . S
C1044 C1027 1.574 . S
C1044 H1038 0.949 . S
C1044 C1048 1.368 . S
C1045 C1026 1.429 . S
C1045 C1039 1.429 . S
C1045 C1046 1.523 . S
C1046 C1027 1.368 . S
C1046 C1040 1.368 . S
C1046 C1045 1.523 . S
C1047 C1031 1.429 . S
C1047 C1043 1.429 . S
C1047 C1048 1.523 1_554 S
C1048 C1032 1.368 . S
C1048 C1044 1.368 . S
C1048 C1047 1.523 1_556 S
H1049 C1024 0.950 . S
H1050 C1026 0.950 . S
H1051 C1027 0.949 . S
H1052 C1029 0.950 . S
H1053 C1031 0.950 . S
C1054 C1055 1.349 . S
C1054 C1056 1.327 . S
C1054 H1079 0.950 . S
C1055 C1054 1.349 . S
C1055 C1071 1.349 . S
C1056 C1054 1.327 . S
C1056 C1075 1.429 . S
C1056 H1080 0.950 . S
C1057 C1074 1.574 . S
C1057 C1076 1.368 . S
C1057 H1081 0.949 . S
H1058 C1062 0.949 . S
C1059 C1060 1.349 . S
C1059 C1061 1.327 . S
C1059 H1082 0.950 . S
C1060 C1059 1.349 . S
C1060 C1072 1.349 . S
C1061 C1059 1.327 . S
C1061 C1077 1.429 . S
C1061 H1083 0.950 . S
C1062 H1058 0.949 . S
C1062 C1070 1.574 . S
C1062 C1078 1.368 . S
H1063 C1071 0.950 . S
H1064 C1069 0.950 . S
H1065 C1070 0.949 . S
H1066 C1072 0.950 . S
H1067 C1073 0.950 . S
H1068 C1074 0.949 . S
C1069 H1064 0.950 . S
C1069 C1071 1.327 . S
C1069 C1075 1.429 . S
C1070 C1062 1.574 . S
C1070 H1065 0.949 . S
C1070 C1076 1.368 . S
C1071 C1055 1.349 . S
C1071 H1063 0.950 . S
C1071 C1069 1.327 . S
C1072 C1060 1.349 . S
C1072 H1066 0.950 . S
C1072 C1073 1.327 . S
C1073 H1067 0.950 . S
C1073 C1072 1.327 . S
C1073 C1077 1.429 . S
C1074 C1057 1.574 . S
C1074 H1068 0.949 . S
C1074 C1078 1.368 . S
C1075 C1056 1.429 . S
C1075 C1069 1.429 . S
C1075 C1076 1.523 . S
C1076 C1057 1.368 . S
C1076 C1070 1.368 . S
C1076 C1075 1.523 . S
C1077 C1061 1.429 . S
C1077 C1073 1.429 . S
C1077 C1078 1.523 . S
C1078 C1062 1.368 . S
C1078 C1074 1.368 . S
C1078 C1077 1.523 . S
H1079 C1054 0.950 . S
H1080 C1056 0.950 . S
H1081 C1057 0.949 . S
H1082 C1059 0.950 . S
H1083 C1061 0.950 . S
C1084 C1085 1.349 . S
C1084 C1086 1.327 . S
C1084 H1109 0.950 . S
C1085 C1084 1.349 . S
C1085 C1101 1.349 . S
C1086 C1084 1.327 . S
C1086 C1105 1.429 . S
C1086 H1110 0.950 . S
C1087 C1104 1.574 . S
C1087 C1106 1.368 . S
C1087 H1111 0.949 . S
H1088 C1092 0.949 . S
C1089 C1090 1.349 . S
C1089 C1091 1.327 . S
C1089 H1112 0.950 . S
C1090 C1089 1.349 . S
C1090 C1102 1.349 . S
C1091 C1089 1.327 . S
C1091 C1107 1.429 . S
C1091 H1113 0.950 . S
C1092 H1088 0.949 . S
C1092 C1100 1.574 . S
C1092 C1108 1.368 . S
H1093 C1101 0.950 . S
H1094 C1099 0.950 . S
H1095 C1100 0.949 . S
H1096 C1102 0.950 . S
H1097 C1103 0.950 . S
H1098 C1104 0.949 . S
C1099 H1094 0.950 . S
C1099 C1101 1.327 . S
C1099 C1105 1.429 . S
C1100 C1092 1.574 . S
C1100 H1095 0.949 . S
C1100 C1106 1.368 . S
C1101 C1085 1.349 . S
C1101 H1093 0.950 . S
C1101 C1099 1.327 . S
C1102 C1090 1.349 . S
C1102 H1096 0.950 . S
C1102 C1103 1.327 . S
C1103 H1097 0.950 . S
C1103 C1102 1.327 . S
C1103 C1107 1.429 . S
C1104 C1087 1.574 . S
C1104 H1098 0.949 . S
C1104 C1108 1.368 . S
C1105 C1086 1.429 . S
C1105 C1099 1.429 . S
C1105 C1106 1.523 . S
C1106 C1087 1.368 . S
C1106 C1100 1.368 . S
C1106 C1105 1.523 . S
C1107 C1091 1.429 . S
C1107 C1103 1.429 . S
C1107 C1108 1.523 . S
C1108 C1092 1.368 . S
C1108 C1104 1.368 . S
C1108 C1107 1.523 . S
H1109 C1084 0.950 . S
H1110 C1086 0.950 . S
H1111 C1087 0.949 . S
H1112 C1089 0.950 . S
H1113 C1091 0.950 . S
C1114 C1115 1.349 . S
C1114 C1116 1.327 . S
C1114 H1139 0.950 . S
C1115 C1114 1.349 . S
C1115 C1131 1.349 . S
C1116 C1114 1.327 . S
C1116 C1135 1.429 . S
C1116 H1140 0.950 . S
C1117 C1134 1.574 . S
C1117 C1136 1.368 . S
C1117 H1141 0.949 . S
H1118 C1122 0.949 . S
C1119 C1120 1.349 . S
C1119 C1121 1.327 . S
C1119 H1142 0.950 . S
C1120 C1119 1.349 . S
C1120 C1132 1.349 . S
C1121 C1119 1.327 . S
C1121 C1137 1.429 . S
C1121 H1143 0.950 . S
C1122 H1118 0.949 . S
C1122 C1130 1.574 . S
C1122 C1138 1.368 . S
H1123 C1131 0.950 . S
H1124 C1129 0.950 . S
H1125 C1130 0.949 . S
H1126 C1132 0.950 . S
H1127 C1133 0.950 . S
H1128 C1134 0.949 . S
C1129 H1124 0.950 . S
C1129 C1131 1.327 . S
C1129 C1135 1.429 . S
C1130 C1122 1.574 . S
C1130 H1125 0.949 . S
C1130 C1136 1.368 . S
C1131 C1115 1.349 . S
C1131 H1123 0.950 . S
C1131 C1129 1.327 . S
C1132 C1120 1.349 . S
C1132 H1126 0.950 . S
C1132 C1133 1.327 . S
C1133 H1127 0.950 . S
C1133 C1132 1.327 . S
C1133 C1137 1.429 . S
C1134 C1117 1.574 . S
C1134 H1128 0.949 . S
C1134 C1138 1.368 . S
C1135 C1116 1.429 . S
C1135 C1129 1.429 . S
C1135 C1136 1.523 . S
C1136 C1117 1.368 . S
C1136 C1130 1.368 . S
C1136 C1135 1.523 . S
C1137 C1121 1.429 . S
C1137 C1133 1.429 . S
C1137 C1138 1.523 . S
C1138 C1122 1.368 . S
C1138 C1134 1.368 . S
C1138 C1137 1.523 . S
H1139 C1114 0.950 . S
H1140 C1116 0.950 . S
H1141 C1117 0.949 . S
H1142 C1119 0.950 . S
H1143 C1121 0.950 . S
C1144 C1145 1.349 . S
C1144 C1146 1.327 . S
C1144 H1169 0.950 . S
C1145 C1144 1.349 . S
C1145 C1161 1.349 . S
C1146 C1144 1.327 . S
C1146 C1165 1.429 . S
C1146 H1170 0.950 . S
C1147 C1164 1.574 . S
C1147 C1166 1.368 . S
C1147 H1171 0.949 . S
H1148 C1152 0.949 . S
C1149 C1150 1.349 . S
C1149 C1151 1.327 . S
C1149 H1172 0.950 . S
C1150 C1149 1.349 . S
C1150 C1162 1.349 . S
C1151 C1149 1.327 . S
C1151 C1167 1.429 . S
C1151 H1173 0.950 . S
C1152 H1148 0.949 . S
C1152 C1160 1.574 . S
C1152 C1168 1.368 . S
H1153 C1161 0.950 . S
H1154 C1159 0.950 . S
H1155 C1160 0.949 . S
H1156 C1162 0.950 . S
H1157 C1163 0.950 . S
H1158 C1164 0.949 . S
C1159 H1154 0.950 . S
C1159 C1161 1.327 . S
C1159 C1165 1.429 . S
C1160 C1152 1.574 . S
C1160 H1155 0.949 . S
C1160 C1166 1.368 . S
C1161 C1145 1.349 . S
C1161 H1153 0.950 . S
C1161 C1159 1.327 . S
C1162 C1150 1.349 . S
C1162 H1156 0.950 . S
C1162 C1163 1.327 . S
C1163 H1157 0.950 . S
C1163 C1162 1.327 . S
C1163 C1167 1.429 . S
C1164 C1147 1.574 . S
C1164 H1158 0.949 . S
C1164 C1168 1.368 . S
C1165 C1146 1.429 . S
C1165 C1159 1.429 . S
C1165 C1166 1.523 . S
C1166 C1147 1.368 . S
C1166 C1160 1.368 . S
C1166 C1165 1.523 . S
C1167 C1151 1.429 . S
C1167 C1163 1.429 . S
C1167 C1168 1.523 1_556 S
C1168 C1152 1.368 . S
C1168 C1164 1.368 . S
C1168 C1167 1.523 1_554 S
H1169 C1144 0.950 . S
H1170 C1146 0.950 . S
H1171 C1147 0.949 . S
H1172 C1149 0.950 . S
H1173 C1151 0.950 . S
C1174 C1175 1.349 . S
C1174 C1176 1.327 . S
C1174 H1199 0.950 . S
C1175 C1174 1.349 . S
C1175 C1191 1.349 . S
C1176 C1174 1.327 . S
C1176 C1195 1.429 . S
C1176 H1200 0.950 . S
C1177 C1194 1.574 . S
C1177 C1196 1.368 . S
C1177 H1201 0.949 . S
H1178 C1182 0.949 . S
C1179 C1180 1.349 . S
C1179 C1181 1.327 . S
C1179 H1202 0.950 . S
C1180 C1179 1.349 . S
C1180 C1192 1.349 . S
C1181 C1179 1.327 . S
C1181 C1197 1.429 . S
C1181 H1203 0.950 . S
C1182 H1178 0.949 . S
C1182 C1190 1.574 . S
C1182 C1198 1.368 . S
H1183 C1191 0.950 . S
H1184 C1189 0.950 . S
H1185 C1190 0.949 . S
H1186 C1192 0.950 . S
H1187 C1193 0.950 . S
H1188 C1194 0.949 . S
C1189 H1184 0.950 . S
C1189 C1191 1.327 . S
C1189 C1195 1.429 . S
C1190 C1182 1.574 . S
C1190 H1185 0.949 . S
C1190 C1196 1.368 . S
C1191 C1175 1.349 . S
C1191 H1183 0.950 . S
C1191 C1189 1.327 . S
C1192 C1180 1.349 . S
C1192 H1186 0.950 . S
C1192 C1193 1.327 . S
C1193 H1187 0.950 . S
C1193 C1192 1.327 . S
C1193 C1197 1.429 . S
C1194 C1177 1.574 . S
C1194 H1188 0.949 . S
C1194 C1198 1.368 . S
C1195 C1176 1.429 . S
C1195 C1189 1.429 . S
C1195 C1196 1.523 . S
C1196 C1177 1.368 . S
C1196 C1190 1.368 . S
C1196 C1195 1.523 . S
C1197 C1181 1.429 . S
C1197 C1193 1.429 . S
C1197 C1198 1.523 . S
C1198 C1182 1.368 . S
C1198 C1194 1.368 . S
C1198 C1197 1.523 . S
H1199 C1174 0.950 . S
H1200 C1176 0.950 . S
H1201 C1177 0.949 . S
H1202 C1179 0.950 . S
H1203 C1181 0.950 . S
C1204 C1205 1.349 . S
C1204 C1206 1.327 . S
C1204 H1229 0.950 . S
C1205 C1204 1.349 . S
C1205 C1221 1.349 . S
C1206 C1204 1.327 . S
C1206 C1225 1.429 . S
C1206 H1230 0.950 . S
C1207 C1224 1.574 . S
C1207 C1226 1.368 . S
C1207 H1231 0.949 . S
H1208 C1212 0.949 . S
C1209 C1210 1.349 . S
C1209 C1211 1.327 . S
C1209 H1232 0.950 . S
C1210 C1209 1.349 . S
C1210 C1222 1.349 . S
C1211 C1209 1.327 . S
C1211 C1227 1.429 . S
C1211 H1233 0.950 . S
C1212 H1208 0.949 . S
C1212 C1220 1.574 . S
C1212 C1228 1.368 . S
H1213 C1221 0.950 . S
H1214 C1219 0.950 . S
H1215 C1220 0.949 . S
H1216 C1222 0.950 . S
H1217 C1223 0.950 . S
H1218 C1224 0.949 . S
C1219 H1214 0.950 . S
C1219 C1221 1.327 . S
C1219 C1225 1.429 . S
C1220 C1212 1.574 . S
C1220 H1215 0.949 . S
C1220 C1226 1.368 . S
C1221 C1205 1.349 . S
C1221 H1213 0.950 . S
C1221 C1219 1.327 . S
C1222 C1210 1.349 . S
C1222 H1216 0.950 . S
C1222 C1223 1.327 . S
C1223 H1217 0.950 . S
C1223 C1222 1.327 . S
C1223 C1227 1.429 . S
C1224 C1207 1.574 . S
C1224 H1218 0.949 . S
C1224 C1228 1.368 . S
C1225 C1206 1.429 . S
C1225 C1219 1.429 . S
C1225 C1226 1.523 . S
C1226 C1207 1.368 . S
C1226 C1220 1.368 . S
C1226 C1225 1.523 . S
C1227 C1211 1.429 . S
C1227 C1223 1.429 . S
C1227 C1228 1.523 . S
C1228 C1212 1.368 . S
C1228 C1224 1.368 . S
C1228 C1227 1.523 . S
H1229 C1204 0.950 . S
H1230 C1206 0.950 . S
H1231 C1207 0.949 . S
H1232 C1209 0.950 . S
H1233 C1211 0.950 . S
C1234 C1235 1.349 . S
C1234 C1236 1.327 . S
C1234 H1259 0.950 . S
C1235 C1234 1.349 . S
C1235 C1251 1.349 . S
C1236 C1234 1.327 . S
C1236 C1255 1.429 . S
C1236 H1260 0.950 . S
C1237 C1254 1.574 . S
C1237 C1256 1.368 . S
C1237 H1261 0.949 . S
H1238 C1242 0.949 . S
C1239 C1240 1.349 . S
C1239 C1241 1.327 . S
C1239 H1262 0.950 . S
C1240 C1239 1.349 . S
C1240 C1252 1.349 . S
C1241 C1239 1.327 . S
C1241 C1257 1.429 . S
C1241 H1263 0.950 . S
C1242 H1238 0.949 . S
C1242 C1250 1.574 . S
C1242 C1258 1.368 . S
H1243 C1251 0.950 . S
H1244 C1249 0.950 . S
H1245 C1250 0.949 . S
H1246 C1252 0.950 . S
H1247 C1253 0.950 . S
H1248 C1254 0.949 . S
C1249 H1244 0.950 . S
C1249 C1251 1.327 . S
C1249 C1255 1.429 . S
C1250 C1242 1.574 . S
C1250 H1245 0.949 . S
C1250 C1256 1.368 . S
C1251 C1235 1.349 . S
C1251 H1243 0.950 . S
C1251 C1249 1.327 . S
C1252 C1240 1.349 . S
C1252 H1246 0.950 . S
C1252 C1253 1.327 . S
C1253 H1247 0.950 . S
C1253 C1252 1.327 . S
C1253 C1257 1.429 . S
C1254 C1237 1.574 . S
C1254 H1248 0.949 . S
C1254 C1258 1.368 . S
C1255 C1236 1.429 . S
C1255 C1249 1.429 . S
C1255 C1256 1.523 . S
C1256 C1237 1.368 . S
C1256 C1250 1.368 . S
C1256 C1255 1.523 . S
C1257 C1241 1.429 . S
C1257 C1253 1.429 . S
C1257 C1258 1.523 . S
C1258 C1242 1.368 . S
C1258 C1254 1.368 . S
C1258 C1257 1.523 . S
H1259 C1234 0.950 . S
H1260 C1236 0.950 . S
H1261 C1237 0.949 . S
H1262 C1239 0.950 . S
H1263 C1241 0.950 . S
C1264 C1265 1.349 . S
C1264 C1266 1.327 . S
C1264 H1289 0.950 . S
C1265 C1264 1.349 . S
C1265 C1281 1.349 . S
C1266 C1264 1.327 . S
C1266 C1285 1.429 . S
C1266 H1290 0.950 . S
C1267 C1284 1.574 . S
C1267 C1286 1.368 . S
C1267 H1291 0.949 . S
H1268 C1272 0.949 . S
C1269 C1270 1.349 . S
C1269 C1271 1.327 . S
C1269 H1292 0.950 . S
C1270 C1269 1.349 . S
C1270 C1282 1.349 . S
C1271 C1269 1.327 . S
C1271 C1287 1.429 . S
C1271 H1293 0.950 . S
C1272 H1268 0.949 . S
C1272 C1280 1.574 . S
C1272 C1288 1.368 . S
H1273 C1281 0.950 . S
H1274 C1279 0.950 . S
H1275 C1280 0.949 . S
H1276 C1282 0.950 . S
H1277 C1283 0.950 . S
H1278 C1284 0.949 . S
C1279 H1274 0.950 . S
C1279 C1281 1.327 . S
C1279 C1285 1.429 . S
C1280 C1272 1.574 . S
C1280 H1275 0.949 . S
C1280 C1286 1.368 . S
C1281 C1265 1.349 . S
C1281 H1273 0.950 . S
C1281 C1279 1.327 . S
C1282 C1270 1.349 . S
C1282 H1276 0.950 . S
C1282 C1283 1.327 . S
C1283 H1277 0.950 . S
C1283 C1282 1.327 . S
C1283 C1287 1.429 . S
C1284 C1267 1.574 . S
C1284 H1278 0.949 . S
C1284 C1288 1.368 . S
C1285 C1266 1.429 . S
C1285 C1279 1.429 . S
C1285 C1286 1.523 . S
C1286 C1267 1.368 . S
C1286 C1280 1.368 . S
C1286 C1285 1.523 . S
C1287 C1271 1.429 . S
C1287 C1283 1.429 . S
C1287 C1288 1.523 . S
C1288 C1272 1.368 . S
C1288 C1284 1.368 . S
C1288 C1287 1.523 . S
H1289 C1264 0.950 . S
H1290 C1266 0.950 . S
H1291 C1267 0.949 . S
H1292 C1269 0.950 . S
H1293 C1271 0.950 . S
C1294 C1295 1.349 . S
C1294 C1296 1.327 . S
C1294 H1319 0.950 . S
C1295 C1294 1.349 . S
C1295 C1311 1.349 1_565 S
C1296 C1294 1.327 . S
C1296 C1315 1.429 1_565 S
C1296 H1320 0.950 . S
C1297 C1314 1.574 . S
C1297 C1316 1.368 . S
C1297 H1321 0.949 . S
H1298 C1302 0.949 . S
C1299 C1300 1.349 . S
C1299 C1301 1.327 . S
C1299 H1322 0.950 . S
C1300 C1299 1.349 . S
C1300 C1312 1.349 . S
C1301 C1299 1.327 . S
C1301 C1317 1.429 . S
C1301 H1323 0.950 . S
C1302 H1298 0.949 . S
C1302 C1310 1.574 . S
C1302 C1318 1.368 1_565 S
H1303 C1311 0.950 . S
H1304 C1309 0.950 . S
H1305 C1310 0.949 . S
H1306 C1312 0.950 1_565 S
H1307 C1313 0.950 1_565 S
H1308 C1314 0.949 . S
C1309 H1304 0.950 . S
C1309 C1311 1.327 . S
C1309 C1315 1.429 . S
C1310 C1302 1.574 . S
C1310 H1305 0.949 . S
C1310 C1316 1.368 1_565 S
C1311 C1295 1.349 1_545 S
C1311 H1303 0.950 . S
C1311 C1309 1.327 . S
C1312 C1300 1.349 . S
C1312 H1306 0.950 1_545 S
C1312 C1313 1.327 . S
C1313 H1307 0.950 1_545 S
C1313 C1312 1.327 . S
C1313 C1317 1.429 . S
C1314 C1297 1.574 . S
C1314 H1308 0.949 . S
C1314 C1318 1.368 . S
C1315 C1296 1.429 1_545 S
C1315 C1309 1.429 . S
C1315 C1316 1.523 . S
C1316 C1297 1.368 . S
C1316 C1310 1.368 1_545 S
C1316 C1315 1.523 . S
C1317 C1301 1.429 . S
C1317 C1313 1.429 . S
C1317 C1318 1.523 . S
C1318 C1302 1.368 1_545 S
C1318 C1314 1.368 . S
C1318 C1317 1.523 . S
H1319 C1294 0.950 . S
H1320 C1296 0.950 . S
H1321 C1297 0.949 . S
H1322 C1299 0.950 . S
H1323 C1301 0.950 . S
C1324 C1325 1.349 . S
C1324 C1326 1.327 . S
C1324 H1349 0.950 . S
C1325 C1324 1.349 . S
C1325 C1341 1.349 . S
C1326 C1324 1.327 . S
C1326 C1345 1.429 . S
C1326 H1350 0.950 . S
C1327 C1344 1.574 . S
C1327 C1346 1.368 . S
C1327 H1351 0.949 . S
H1328 C1332 0.949 . S
C1329 C1330 1.349 . S
C1329 C1331 1.327 . S
C1329 H1352 0.950 . S
C1330 C1329 1.349 . S
C1330 C1342 1.349 . S
C1331 C1329 1.327 . S
C1331 C1347 1.429 . S
C1331 H1353 0.950 . S
C1332 H1328 0.949 . S
C1332 C1340 1.574 . S
C1332 C1348 1.368 . S
H1333 C1341 0.950 . S
H1334 C1339 0.950 . S
H1335 C1340 0.949 . S
H1336 C1342 0.950 . S
H1337 C1343 0.950 . S
H1338 C1344 0.949 . S
C1339 H1334 0.950 . S
C1339 C1341 1.327 . S
C1339 C1345 1.429 . S
C1340 C1332 1.574 . S
C1340 H1335 0.949 . S
C1340 C1346 1.368 . S
C1341 C1325 1.349 . S
C1341 H1333 0.950 . S
C1341 C1339 1.327 . S
C1342 C1330 1.349 . S
C1342 H1336 0.950 . S
C1342 C1343 1.327 . S
C1343 H1337 0.950 . S
C1343 C1342 1.327 . S
C1343 C1347 1.429 . S
C1344 C1327 1.574 . S
C1344 H1338 0.949 . S
C1344 C1348 1.368 . S
C1345 C1326 1.429 . S
C1345 C1339 1.429 . S
C1345 C1346 1.523 . S
C1346 C1327 1.368 . S
C1346 C1340 1.368 . S
C1346 C1345 1.523 . S
C1347 C1331 1.429 . S
C1347 C1343 1.429 . S
C1347 C1348 1.523 1_554 S
C1348 C1332 1.368 . S
C1348 C1344 1.368 . S
C1348 C1347 1.523 1_556 S
H1349 C1324 0.950 . S
H1350 C1326 0.950 . S
H1351 C1327 0.949 . S
H1352 C1329 0.950 . S
H1353 C1331 0.950 . S
C1354 C1355 1.349 1_565 S
C1354 C1356 1.327 . S
C1354 H1379 0.950 . S
C1355 C1354 1.349 1_545 S
C1355 C1371 1.349 . S
C1356 C1354 1.327 . S
C1356 C1375 1.429 . S
C1356 H1380 0.950 . S
C1357 C1374 1.574 . S
C1357 C1376 1.368 1_545 S
C1357 H1381 0.949 . S
H1358 C1362 0.949 . S
C1359 C1360 1.349 . S
C1359 C1361 1.327 . S
C1359 H1382 0.967 . S
C1360 C1359 1.349 . S
C1360 C1372 1.349 . S
C1361 C1359 1.327 . S
C1361 C1377 1.429 . S
C1361 H1383 0.950 1_565 S
C1362 H1358 0.949 . S
C1362 C1370 1.574 . S
C1362 C1378 1.368 . S
H1363 C1371 0.950 . S
H1364 C1369 0.950 . S
H1365 C1370 0.949 . S
H1366 C1372 0.950 . S
H1367 C1373 0.950 . S
H1368 C1374 0.949 . S
C1369 H1364 0.950 . S
C1369 C1371 1.327 . S
C1369 C1375 1.429 1_545 S
C1370 C1362 1.574 . S
C1370 H1365 0.949 . S
C1370 C1376 1.368 . S
C1371 C1355 1.349 . S
C1371 H1363 0.950 . S
C1371 C1369 1.327 . S
C1372 C1360 1.349 . S
C1372 H1366 0.950 . S
C1372 C1373 1.327 . S
C1373 H1367 0.950 . S
C1373 C1372 1.327 . S
C1373 C1377 1.429 . S
C1374 C1357 1.574 . S
C1374 H1368 0.949 . S
C1374 C1378 1.368 1_545 S
C1375 C1356 1.429 . S
C1375 C1369 1.429 1_565 S
C1375 C1376 1.523 . S
C1376 C1357 1.368 1_565 S
C1376 C1370 1.368 . S
C1376 C1375 1.523 . S
C1377 C1361 1.429 . S
C1377 C1373 1.429 . S
C1377 C1378 1.523 . S
C1378 C1362 1.368 . S
C1378 C1374 1.368 1_565 S
C1378 C1377 1.523 . S
H1379 C1354 0.950 . S
H1380 C1356 0.950 . S
H1381 C1357 0.949 . S
H1382 C1359 0.967 . S
H1383 C1361 0.950 1_545 S
C1384 C1385 1.349 . S
C1384 C1386 1.327 . S
C1384 H1409 0.950 . S
C1385 C1384 1.349 . S
C1385 C1401 1.349 . S
C1386 C1384 1.327 . S
C1386 C1405 1.429 . S
C1386 H1410 0.950 . S
C1387 C1404 1.574 . S
C1387 C1406 1.368 . S
C1387 H1411 0.949 . S
H1388 C1392 0.949 . S
C1389 C1390 1.349 . S
C1389 C1391 1.327 . S
C1389 H1412 0.950 . S
C1390 C1389 1.349 . S
C1390 C1402 1.349 . S
C1391 C1389 1.327 . S
C1391 C1407 1.429 . S
C1391 H1413 0.950 . S
C1392 H1388 0.949 . S
C1392 C1400 1.574 . S
C1392 C1408 1.368 . S
H1393 C1401 0.950 . S
H1394 C1399 0.950 . S
H1395 C1400 0.949 . S
H1396 C1402 0.950 . S
H1397 C1403 0.950 . S
H1398 C1404 0.949 . S
C1399 H1394 0.950 . S
C1399 C1401 1.327 . S
C1399 C1405 1.429 . S
C1400 C1392 1.574 . S
C1400 H1395 0.949 . S
C1400 C1406 1.368 . S
C1401 C1385 1.349 . S
C1401 H1393 0.950 . S
C1401 C1399 1.327 . S
C1402 C1390 1.349 . S
C1402 H1396 0.950 . S
C1402 C1403 1.327 . S
C1403 H1397 0.950 . S
C1403 C1402 1.327 . S
C1403 C1407 1.429 . S
C1404 C1387 1.574 . S
C1404 H1398 0.949 . S
C1404 C1408 1.368 . S
C1405 C1386 1.429 . S
C1405 C1399 1.429 . S
C1405 C1406 1.523 . S
C1406 C1387 1.368 . S
C1406 C1400 1.368 . S
C1406 C1405 1.523 . S
C1407 C1391 1.429 . S
C1407 C1403 1.429 . S
C1407 C1408 1.523 . S
C1408 C1392 1.368 . S
C1408 C1404 1.368 . S
C1408 C1407 1.523 . S
H1409 C1384 0.950 . S
H1410 C1386 0.950 . S
H1411 C1387 0.949 . S
H1412 C1389 0.950 . S
H1413 C1391 0.950 . S
C1414 C1415 1.349 1_565 S
C1414 C1416 1.327 . S
C1414 H1439 0.950 . S
C1415 C1414 1.349 1_545 S
C1415 C1431 1.349 . S
C1416 C1414 1.327 . S
C1416 C1435 1.429 . S
C1416 H1440 0.950 . S
C1417 C1434 1.574 . S
C1417 C1436 1.368 1_545 S
C1417 H1441 0.949 . S
H1418 C1422 0.949 . S
C1419 C1420 1.349 . S
C1419 C1421 1.327 . S
C1419 H1442 0.950 . S
C1420 C1419 1.349 . S
C1420 C1432 1.349 . S
C1421 C1419 1.327 . S
C1421 C1437 1.429 . S
C1421 H1443 0.950 1_565 S
C1422 H1418 0.949 . S
C1422 C1430 1.574 . S
C1422 C1438 1.368 . S
H1423 C1431 0.950 . S
H1424 C1429 0.950 . S
H1425 C1430 0.949 . S
H1426 C1432 0.950 . S
H1427 C1433 0.950 . S
H1428 C1434 0.949 . S
C1429 H1424 0.950 . S
C1429 C1431 1.327 . S
C1429 C1435 1.429 1_545 S
C1430 C1422 1.574 . S
C1430 H1425 0.949 . S
C1430 C1436 1.368 . S
C1431 C1415 1.349 . S
C1431 H1423 0.950 . S
C1431 C1429 1.327 . S
C1432 C1420 1.349 . S
C1432 H1426 0.950 . S
C1432 C1433 1.327 . S
C1433 H1427 0.950 . S
C1433 C1432 1.327 . S
C1433 C1437 1.429 . S
C1434 C1417 1.574 . S
C1434 H1428 0.949 . S
C1434 C1438 1.368 1_545 S
C1435 C1416 1.429 . S
C1435 C1429 1.429 1_565 S
C1435 C1436 1.523 . S
C1436 C1417 1.368 1_565 S
C1436 C1430 1.368 . S
C1436 C1435 1.523 . S
C1437 C1421 1.429 . S
C1437 C1433 1.429 . S
C1437 C1438 1.523 . S
C1438 C1422 1.368 . S
C1438 C1434 1.368 1_565 S
C1438 C1437 1.523 . S
H1439 C1414 0.950 . S
H1440 C1416 0.950 . S
H1441 C1417 0.949 . S
H1442 C1419 0.950 . S
H1443 C1421 0.950 1_545 S
C1444 C1445 1.349 . S
C1444 C1446 1.327 . S
C1444 H1469 0.950 . S
C1445 C1444 1.349 . S
C1445 C1461 1.349 . S
C1446 C1444 1.327 . S
C1446 C1465 1.429 . S
C1446 H1470 0.950 . S
C1447 C1464 1.574 . S
C1447 C1466 1.368 . S
C1447 H1471 0.949 . S
H1448 C1452 0.949 . S
C1449 C1450 1.349 . S
C1449 C1451 1.327 . S
C1449 H1472 0.950 . S
C1450 C1449 1.349 . S
C1450 C1462 1.349 . S
C1451 C1449 1.327 . S
C1451 C1467 1.429 . S
C1451 H1473 0.950 . S
C1452 H1448 0.949 . S
C1452 C1460 1.574 . S
C1452 C1468 1.368 . S
H1453 C1461 0.950 . S
H1454 C1459 0.950 . S
H1455 C1460 0.949 . S
H1456 C1462 0.950 . S
H1457 C1463 0.950 . S
H1458 C1464 0.949 . S
C1459 H1454 0.950 . S
C1459 C1461 1.327 . S
C1459 C1465 1.429 . S
C1460 C1452 1.574 . S
C1460 H1455 0.949 . S
C1460 C1466 1.368 . S
C1461 C1445 1.349 . S
C1461 H1453 0.950 . S
C1461 C1459 1.327 . S
C1462 C1450 1.349 . S
C1462 H1456 0.950 . S
C1462 C1463 1.327 . S
C1463 H1457 0.950 . S
C1463 C1462 1.327 . S
C1463 C1467 1.429 . S
C1464 C1447 1.574 . S
C1464 H1458 0.949 . S
C1464 C1468 1.368 . S
C1465 C1446 1.429 . S
C1465 C1459 1.429 . S
C1465 C1466 1.523 . S
C1466 C1447 1.368 . S
C1466 C1460 1.368 . S
C1466 C1465 1.523 . S
C1467 C1451 1.429 . S
C1467 C1463 1.429 . S
C1467 C1468 1.523 1_556 S
C1468 C1452 1.368 . S
C1468 C1464 1.368 . S
C1468 C1467 1.523 1_554 S
H1469 C1444 0.950 . S
H1470 C1446 0.950 . S
H1471 C1447 0.949 . S
H1472 C1449 0.950 . S
H1473 C1451 0.950 . S
C1474 C1475 1.349 . S
C1474 C1476 1.327 . S
C1474 H1499 0.950 . S
C1475 C1474 1.349 . S
C1475 C1491 1.349 . S
C1476 C1474 1.327 . S
C1476 C1495 1.429 . S
C1476 H1500 0.950 . S
C1477 C1494 1.574 . S
C1477 C1496 1.368 . S
C1477 H1501 0.949 . S
H1478 C1482 0.949 . S
C1479 C1480 1.349 . S
C1479 C1481 1.327 . S
C1479 H1502 0.950 . S
C1480 C1479 1.349 . S
C1480 C1492 1.349 1_565 S
C1481 C1479 1.327 . S
C1481 C1497 1.429 1_565 S
C1481 H1503 0.950 . S
C1482 H1478 0.949 . S
C1482 C1490 1.574 . S
C1482 C1498 1.368 . S
H1483 C1491 0.950 . S
H1484 C1489 0.950 . S
H1485 C1490 0.949 . S
H1486 C1492 0.950 . S
H1487 C1493 0.950 . S
H1488 C1494 0.949 1_565 S
C1489 H1484 0.950 . S
C1489 C1491 1.327 . S
C1489 C1495 1.429 . S
C1490 C1482 1.574 . S
C1490 H1485 0.949 . S
C1490 C1496 1.368 . S
C1491 C1475 1.349 . S
C1491 H1483 0.950 . S
C1491 C1489 1.327 . S
C1492 C1480 1.349 1_545 S
C1492 H1486 0.950 . S
C1492 C1493 1.327 . S
C1493 H1487 0.950 . S
C1493 C1492 1.327 . S
C1493 C1497 1.429 . S
C1494 C1477 1.574 . S
C1494 H1488 0.949 1_545 S
C1494 C1498 1.368 . S
C1495 C1476 1.429 . S
C1495 C1489 1.429 . S
C1495 C1496 1.523 . S
C1496 C1477 1.368 . S
C1496 C1490 1.368 . S
C1496 C1495 1.523 . S
C1497 C1481 1.429 1_545 S
C1497 C1493 1.429 . S
C1497 C1498 1.523 . S
C1498 C1482 1.368 . S
C1498 C1494 1.368 . S
C1498 C1497 1.523 . S
H1499 C1474 0.950 . S
H1500 C1476 0.950 . S
H1501 C1477 0.949 . S
H1502 C1479 0.950 . S
H1503 C1481 0.950 . S
C1504 C1505 1.349 . S
C1504 C1506 1.327 . S
C1504 H1529 0.950 . S
C1505 C1504 1.349 . S
C1505 C1521 1.349 . S
C1506 C1504 1.327 . S
C1506 C1525 1.429 . S
C1506 H1530 0.950 . S
C1507 C1524 1.574 . S
C1507 C1526 1.368 1_545 S
C1507 H1531 0.949 . S
H1508 C1512 0.949 . S
C1509 C1510 1.349 . S
C1509 C1511 1.327 . S
C1509 H1532 0.950 . S
C1510 C1509 1.349 . S
C1510 C1522 1.349 . S
C1511 C1509 1.327 . S
C1511 C1527 1.429 . S
C1511 H1533 0.950 . S
C1512 H1508 0.949 . S
C1512 C1520 1.574 . S
C1512 C1528 1.368 1_565 S
H1513 C1521 0.950 . S
H1514 C1519 0.950 1_545 S
H1515 C1520 0.949 . S
H1516 C1522 0.950 . S
H1517 C1523 0.950 1_565 S
H1518 C1524 0.949 . S
C1519 H1514 0.950 1_565 S
C1519 C1521 1.327 . S
C1519 C1525 1.429 . S
C1520 C1512 1.574 . S
C1520 H1515 0.949 . S
C1520 C1526 1.368 1_554 S
C1521 C1505 1.349 . S
C1521 H1513 0.950 . S
C1521 C1519 1.327 . S
C1522 C1510 1.349 . S
C1522 H1516 0.950 . S
C1522 C1523 1.327 . S
C1523 H1517 0.950 1_545 S
C1523 C1522 1.327 . S
C1523 C1527 1.429 . S
C1524 C1507 1.574 . S
C1524 H1518 0.949 . S
C1524 C1528 1.368 1_556 S
C1525 C1506 1.429 . S
C1525 C1519 1.429 . S
C1525 C1526 1.523 . S
C1526 C1507 1.368 1_565 S
C1526 C1520 1.368 1_556 S
C1526 C1525 1.523 . S
C1527 C1511 1.429 . S
C1527 C1523 1.429 . S
C1527 C1528 1.523 . S
C1528 C1512 1.368 1_545 S
C1528 C1524 1.368 1_554 S
C1528 C1527 1.523 . S
H1529 C1504 0.950 . S
H1530 C1506 0.950 . S
H1531 C1507 0.949 . S
H1532 C1509 0.950 . S
H1533 C1511 0.950 . S
C1534 C1535 1.349 . S
C1534 C1536 1.327 . S
C1534 H1559 0.950 . S
C1535 C1534 1.349 . S
C1535 C1551 1.349 . S
C1536 C1534 1.327 . S
C1536 C1555 1.429 . S
C1536 H1560 0.950 . S
C1537 C1554 1.574 . S
C1537 C1556 1.368 . S
C1537 H1561 0.949 . S
H1538 C1542 0.949 . S
C1539 C1540 1.349 . S
C1539 C1541 1.327 . S
C1539 H1562 0.950 . S
C1540 C1539 1.349 . S
C1540 C1552 1.349 . S
C1541 C1539 1.327 . S
C1541 C1557 1.429 . S
C1541 H1563 0.950 . S
C1542 H1538 0.949 . S
C1542 C1550 1.574 . S
C1542 C1558 1.368 . S
H1543 C1551 0.950 . S
H1544 C1549 0.950 . S
H1545 C1550 0.949 . S
H1546 C1552 0.950 . S
H1547 C1553 0.950 . S
H1548 C1554 0.949 . S
C1549 H1544 0.950 . S
C1549 C1551 1.327 . S
C1549 C1555 1.429 . S
C1550 C1542 1.574 . S
C1550 H1545 0.949 . S
C1550 C1556 1.368 . S
C1551 C1535 1.349 . S
C1551 H1543 0.950 . S
C1551 C1549 1.327 . S
C1552 C1540 1.349 . S
C1552 H1546 0.950 . S
C1552 C1553 1.327 . S
C1553 H1547 0.950 . S
C1553 C1552 1.327 . S
C1553 C1557 1.429 . S
C1554 C1537 1.574 . S
C1554 H1548 0.949 . S
C1554 C1558 1.368 . S
C1555 C1536 1.429 . S
C1555 C1549 1.429 . S
C1555 C1556 1.523 . S
C1556 C1537 1.368 . S
C1556 C1550 1.368 . S
C1556 C1555 1.523 . S
C1557 C1541 1.429 . S
C1557 C1553 1.429 . S
C1557 C1558 1.523 . S
C1558 C1542 1.368 . S
C1558 C1554 1.368 . S
C1558 C1557 1.523 . S
H1559 C1534 0.950 . S
H1560 C1536 0.950 . S
H1561 C1537 0.949 . S
H1562 C1539 0.950 . S
H1563 C1541 0.950 . S
C1564 C1565 1.349 . S
C1564 C1566 1.327 . S
C1564 H1589 0.950 . S
C1565 C1564 1.349 . S
C1565 C1581 1.349 . S
C1566 C1564 1.327 . S
C1566 C1585 1.429 . S
C1566 H1590 0.950 . S
C1567 C1584 1.583 . S
C1567 C1586 1.359 1_465 S
C1567 H1591 0.949 . S
H1568 C1572 0.949 . S
C1569 C1570 1.349 . S
C1569 C1571 1.327 . S
C1569 H1592 0.950 . S
C1570 C1569 1.349 . S
C1570 C1582 1.349 . S
C1571 C1569 1.327 . S
C1571 C1587 1.429 . S
C1571 H1593 0.950 . S
C1572 H1568 0.949 . S
C1572 C1580 1.583 . S
C1572 C1588 1.359 1_645 S
H1573 C1581 0.961 . S
H1574 C1579 0.950 1_565 S
H1575 C1580 0.949 . S
H1576 C1582 0.961 . S
H1577 C1583 0.950 1_545 S
H1578 C1584 0.949 . S
C1579 H1574 0.950 1_545 S
C1579 C1581 1.327 . S
C1579 C1585 1.429 . S
C1580 C1572 1.583 . S
C1580 H1575 0.949 . S
C1580 C1586 1.368 . S
C1581 C1565 1.349 . S
C1581 H1573 0.961 . S
C1581 C1579 1.327 . S
C1582 C1570 1.349 . S
C1582 H1576 0.961 . S
C1582 C1583 1.327 . S
C1583 H1577 0.950 1_565 S
C1583 C1582 1.327 . S
C1583 C1587 1.429 . S
C1584 C1567 1.583 . S
C1584 H1578 0.949 . S
C1584 C1588 1.368 . S
C1585 C1566 1.429 . S
C1585 C1579 1.429 . S
C1585 C1586 1.523 . S
C1586 C1567 1.359 1_645 S
C1586 C1580 1.368 . S
C1586 C1585 1.523 . S
C1587 C1571 1.429 . S
C1587 C1583 1.429 . S
C1587 C1588 1.523 . S
C1588 C1572 1.359 1_465 S
C1588 C1584 1.368 . S
C1588 C1587 1.523 . S
H1589 C1564 0.950 . S
H1590 C1566 0.950 . S
H1591 C1567 0.949 . S
H1592 C1569 0.950 . S
H1593 C1571 0.950 . S
C1594 C1595 1.349 . S
C1594 C1596 1.327 . S
C1594 H1619 0.950 . S
C1595 C1594 1.349 . S
C1595 C1611 1.349 . S
C1596 C1594 1.327 . S
C1596 C1615 1.429 . S
C1596 H1620 0.950 . S
C1597 C1614 1.574 . S
C1597 C1616 1.368 . S
C1597 H1621 0.949 . S
H1598 C1602 0.949 . S
C1599 C1600 1.349 . S
C1599 C1601 1.327 . S
C1599 H1622 0.950 . S
C1600 C1599 1.349 . S
C1600 C1612 1.349 . S
C1601 C1599 1.327 . S
C1601 C1617 1.429 . S
C1601 H1623 0.950 . S
C1602 H1598 0.949 . S
C1602 C1610 1.574 . S
C1602 C1618 1.368 . S
H1603 C1611 0.950 . S
H1604 C1609 0.950 . S
H1605 C1610 0.949 . S
H1606 C1612 0.950 . S
H1607 C1613 0.950 . S
H1608 C1614 0.949 . S
C1609 H1604 0.950 . S
C1609 C1611 1.327 . S
C1609 C1615 1.429 . S
C1610 C1602 1.574 . S
C1610 H1605 0.949 . S
C1610 C1616 1.368 . S
C1611 C1595 1.349 . S
C1611 H1603 0.950 . S
C1611 C1609 1.327 . S
C1612 C1600 1.349 . S
C1612 H1606 0.950 . S
C1612 C1613 1.327 . S
C1613 H1607 0.950 . S
C1613 C1612 1.327 . S
C1613 C1617 1.429 . S
C1614 C1597 1.574 . S
C1614 H1608 0.949 . S
C1614 C1618 1.368 . S
C1615 C1596 1.429 . S
C1615 C1609 1.429 . S
C1615 C1616 1.523 . S
C1616 C1597 1.368 . S
C1616 C1610 1.368 . S
C1616 C1615 1.523 . S
C1617 C1601 1.429 . S
C1617 C1613 1.429 . S
C1617 C1618 1.523 . S
C1618 C1602 1.368 . S
C1618 C1614 1.368 . S
C1618 C1617 1.523 . S
H1619 C1594 0.950 . S
H1620 C1596 0.950 . S
H1621 C1597 0.949 . S
H1622 C1599 0.950 . S
H1623 C1601 0.950 . S
C1624 C1625 1.349 . S
C1624 C1626 1.327 . S
C1624 H1649 0.950 . S
C1625 C1624 1.349 . S
C1625 C1641 1.349 . S
C1626 C1624 1.327 . S
C1626 C1645 1.429 . S
C1626 H1650 0.950 . S
C1627 C1644 1.574 . S
C1627 C1646 1.368 . S
C1627 H1651 0.949 . S
H1628 C1632 0.949 . S
C1629 C1630 1.349 . S
C1629 C1631 1.327 . S
C1629 H1652 0.950 . S
C1630 C1629 1.349 . S
C1630 C1642 1.349 . S
C1631 C1629 1.327 . S
C1631 C1647 1.429 . S
C1631 H1653 0.950 . S
C1632 H1628 0.949 . S
C1632 C1640 1.574 . S
C1632 C1648 1.368 . S
H1633 C1641 0.950 . S
H1634 C1639 0.950 . S
H1635 C1640 0.949 . S
H1636 C1642 0.950 . S
H1637 C1643 0.950 . S
H1638 C1644 0.949 . S
C1639 H1634 0.950 . S
C1639 C1641 1.327 . S
C1639 C1645 1.429 . S
C1640 C1632 1.574 . S
C1640 H1635 0.949 . S
C1640 C1646 1.368 . S
C1641 C1625 1.349 . S
C1641 H1633 0.950 . S
C1641 C1639 1.327 . S
C1642 C1630 1.349 . S
C1642 H1636 0.950 . S
C1642 C1643 1.327 . S
C1643 H1637 0.950 . S
C1643 C1642 1.327 . S
C1643 C1647 1.429 . S
C1644 C1627 1.574 . S
C1644 H1638 0.949 . S
C1644 C1648 1.368 . S
C1645 C1626 1.429 . S
C1645 C1639 1.429 . S
C1645 C1646 1.523 . S
C1646 C1627 1.368 . S
C1646 C1640 1.368 . S
C1646 C1645 1.523 . S
C1647 C1631 1.429 . S
C1647 C1643 1.429 . S
C1647 C1648 1.523 . S
C1648 C1632 1.368 . S
C1648 C1644 1.368 . S
C1648 C1647 1.523 . S
H1649 C1624 0.950 . S
H1650 C1626 0.950 . S
H1651 C1627 0.949 . S
H1652 C1629 0.950 . S
H1653 C1631 0.950 . S
C1654 C1655 1.349 . S
C1654 C1656 1.327 . S
C1654 H1679 0.950 . S
C1655 C1654 1.349 . S
C1655 C1671 1.349 . S
C1656 C1654 1.327 . S
C1656 C1675 1.429 . S
C1656 H1680 0.950 . S
C1657 C1674 1.574 . S
C1657 C1676 1.368 . S
C1657 H1681 0.949 . S
H1658 C1662 0.949 . S
C1659 C1660 1.349 . S
C1659 C1661 1.327 . S
C1659 H1682 0.950 . S
C1660 C1659 1.349 . S
C1660 C1672 1.349 . S
C1661 C1659 1.327 . S
C1661 C1677 1.429 . S
C1661 H1683 0.950 . S
C1662 H1658 0.949 . S
C1662 C1670 1.574 . S
C1662 C1678 1.368 . S
H1663 C1671 0.950 . S
H1664 C1669 0.950 . S
H1665 C1670 0.949 . S
H1666 C1672 0.950 . S
H1667 C1673 0.950 . S
H1668 C1674 0.949 . S
C1669 H1664 0.950 . S
C1669 C1671 1.327 . S
C1669 C1675 1.429 . S
C1670 C1662 1.574 . S
C1670 H1665 0.949 . S
C1670 C1676 1.368 . S
C1671 C1655 1.349 . S
C1671 H1663 0.950 . S
C1671 C1669 1.327 . S
C1672 C1660 1.349 . S
C1672 H1666 0.950 . S
C1672 C1673 1.327 . S
C1673 H1667 0.950 . S
C1673 C1672 1.327 . S
C1673 C1677 1.429 . S
C1674 C1657 1.574 . S
C1674 H1668 0.949 . S
C1674 C1678 1.368 . S
C1675 C1656 1.429 . S
C1675 C1669 1.429 . S
C1675 C1676 1.523 . S
C1676 C1657 1.368 . S
C1676 C1670 1.368 . S
C1676 C1675 1.523 . S
C1677 C1661 1.429 . S
C1677 C1673 1.429 . S
C1677 C1678 1.523 . S
C1678 C1662 1.368 . S
C1678 C1674 1.368 . S
C1678 C1677 1.523 . S
H1679 C1654 0.950 . S
H1680 C1656 0.950 . S
H1681 C1657 0.949 . S
H1682 C1659 0.950 . S
H1683 C1661 0.950 . S
C1684 C1685 1.349 . S
C1684 C1686 1.327 . S
C1684 H1709 0.950 . S
C1685 C1684 1.349 . S
C1685 C1701 1.349 . S
C1686 C1684 1.327 . S
C1686 C1705 1.429 . S
C1686 H1710 0.950 . S
C1687 C1704 1.574 . S
C1687 C1706 1.368 . S
C1687 H1711 0.949 . S
H1688 C1692 0.949 . S
C1689 C1690 1.349 . S
C1689 C1691 1.327 . S
C1689 H1712 0.950 . S
C1690 C1689 1.349 . S
C1690 C1702 1.349 . S
C1691 C1689 1.327 . S
C1691 C1707 1.429 . S
C1691 H1713 0.950 . S
C1692 H1688 0.949 . S
C1692 C1700 1.574 . S
C1692 C1708 1.368 . S
H1693 C1701 0.950 . S
H1694 C1699 0.950 . S
H1695 C1700 0.949 . S
H1696 C1702 0.950 . S
H1697 C1703 0.950 . S
H1698 C1704 0.949 . S
C1699 H1694 0.950 . S
C1699 C1701 1.327 . S
C1699 C1705 1.429 . S
C1700 C1692 1.574 . S
C1700 H1695 0.949 . S
C1700 C1706 1.368 1_455 S
C1701 C1685 1.349 . S
C1701 H1693 0.950 . S
C1701 C1699 1.327 . S
C1702 C1690 1.349 . S
C1702 H1696 0.950 . S
C1702 C1703 1.327 . S
C1703 H1697 0.950 . S
C1703 C1702 1.327 . S
C1703 C1707 1.429 . S
C1704 C1687 1.574 . S
C1704 H1698 0.949 . S
C1704 C1708 1.368 1_655 S
C1705 C1686 1.429 . S
C1705 C1699 1.429 . S
C1705 C1706 1.523 . S
C1706 C1687 1.368 . S
C1706 C1700 1.368 1_655 S
C1706 C1705 1.523 . S
C1707 C1691 1.429 . S
C1707 C1703 1.429 . S
C1707 C1708 1.523 . S
C1708 C1692 1.368 . S
C1708 C1704 1.368 1_455 S
C1708 C1707 1.523 . S
H1709 C1684 0.950 . S
H1710 C1686 0.950 . S
H1711 C1687 0.949 . S
H1712 C1689 0.950 . S
H1713 C1691 0.950 . S
C1714 C1715 1.349 . S
C1714 C1716 1.327 . S
C1714 H1739 0.950 . S
C1715 C1714 1.349 . S
C1715 C1731 1.349 . S
C1716 C1714 1.327 . S
C1716 C1735 1.429 . S
C1716 H1740 0.950 . S
C1717 C1734 1.574 1_554 S
C1717 C1736 1.368 . S
C1717 H1741 0.949 . S
H1718 C1722 0.949 . S
C1719 C1720 1.349 . S
C1719 C1721 1.327 . S
C1719 H1742 0.950 . S
C1720 C1719 1.349 . S
C1720 C1732 1.349 . S
C1721 C1719 1.327 . S
C1721 C1737 1.429 . S
C1721 H1743 0.950 . S
C1722 H1718 0.949 . S
C1722 C1730 1.574 1_556 S
C1722 C1738 1.368 . S
H1723 C1731 0.950 . S
H1724 C1729 0.950 . S
H1725 C1730 0.949 . S
H1726 C1732 0.950 . S
H1727 C1733 0.950 . S
H1728 C1734 0.949 . S
C1729 H1724 0.950 . S
C1729 C1731 1.327 . S
C1729 C1735 1.429 . S
C1730 C1722 1.574 1_554 S
C1730 H1725 0.949 . S
C1730 C1736 1.368 . S
C1731 C1715 1.349 . S
C1731 H1723 0.950 . S
C1731 C1729 1.327 . S
C1732 C1720 1.349 . S
C1732 H1726 0.950 . S
C1732 C1733 1.327 . S
C1733 H1727 0.950 . S
C1733 C1732 1.327 . S
C1733 C1737 1.429 . S
C1734 C1717 1.574 1_556 S
C1734 H1728 0.949 . S
C1734 C1738 1.368 . S
C1735 C1716 1.429 . S
C1735 C1729 1.429 . S
C1735 C1736 1.523 . S
C1736 C1717 1.368 . S
C1736 C1730 1.368 . S
C1736 C1735 1.523 . S
C1737 C1721 1.429 . S
C1737 C1733 1.429 . S
C1737 C1738 1.523 . S
C1738 C1722 1.368 . S
C1738 C1734 1.368 . S
C1738 C1737 1.523 . S
H1739 C1714 0.950 . S
H1740 C1716 0.950 . S
H1741 C1717 0.949 . S
H1742 C1719 0.950 . S
H1743 C1721 0.950 . S
C1744 C1745 1.349 . S
C1744 C1746 1.327 . S
C1744 H1769 0.950 . S
C1745 C1744 1.349 . S
C1745 C1761 1.349 . S
C1746 C1744 1.327 . S
C1746 C1765 1.429 . S
C1746 H1770 0.950 . S
C1747 C1764 1.574 . S
C1747 C1766 1.368 . S
C1747 H1771 0.949 . S
H1748 C1752 0.949 . S
C1749 C1750 1.349 . S
C1749 C1751 1.327 . S
C1749 H1772 0.950 . S
C1750 C1749 1.349 . S
C1750 C1762 1.349 . S
C1751 C1749 1.327 . S
C1751 C1767 1.429 . S
C1751 H1773 0.950 . S
C1752 H1748 0.949 . S
C1752 C1760 1.574 . S
C1752 C1768 1.368 . S
H1753 C1761 0.950 . S
H1754 C1759 0.950 . S
H1755 C1760 0.949 . S
H1756 C1762 0.950 . S
H1757 C1763 0.950 . S
H1758 C1764 0.949 . S
C1759 H1754 0.950 . S
C1759 C1761 1.327 . S
C1759 C1765 1.429 . S
C1760 C1752 1.574 . S
C1760 H1755 0.949 . S
C1760 C1766 1.368 . S
C1761 C1745 1.349 . S
C1761 H1753 0.950 . S
C1761 C1759 1.327 . S
C1762 C1750 1.349 . S
C1762 H1756 0.950 . S
C1762 C1763 1.327 . S
C1763 H1757 0.950 . S
C1763 C1762 1.327 . S
C1763 C1767 1.429 . S
C1764 C1747 1.574 . S
C1764 H1758 0.949 . S
C1764 C1768 1.368 . S
C1765 C1746 1.429 . S
C1765 C1759 1.429 . S
C1765 C1766 1.523 . S
C1766 C1747 1.368 . S
C1766 C1760 1.368 . S
C1766 C1765 1.523 . S
C1767 C1751 1.429 . S
C1767 C1763 1.429 . S
C1767 C1768 1.523 . S
C1768 C1752 1.368 . S
C1768 C1764 1.368 . S
C1768 C1767 1.523 . S
H1769 C1744 0.950 . S
H1770 C1746 0.950 . S
H1771 C1747 0.949 . S
H1772 C1749 0.950 . S
H1773 C1751 0.950 . S
C1774 C1775 1.349 . S
C1774 C1776 1.327 . S
C1774 H1799 0.950 . S
C1775 C1774 1.349 . S
C1775 C1791 1.349 . S
C1776 C1774 1.327 . S
C1776 C1795 1.429 . S
C1776 H1800 0.950 . S
C1777 C1794 1.574 1_455 S
C1777 C1796 1.368 . S
C1777 H1801 0.949 . S
H1778 C1782 0.949 . S
C1779 C1780 1.349 . S
C1779 C1781 1.327 . S
C1779 H1802 0.950 . S
C1780 C1779 1.349 . S
C1780 C1792 1.349 . S
C1781 C1779 1.327 . S
C1781 C1797 1.429 . S
C1781 H1803 0.950 . S
C1782 H1778 0.949 . S
C1782 C1790 1.574 . S
C1782 C1798 1.368 . S
H1783 C1791 0.950 . S
H1784 C1789 0.950 . S
H1785 C1790 0.949 1_455 S
H1786 C1792 0.950 . S
H1787 C1793 0.950 . S
H1788 C1794 0.949 . S
C1789 H1784 0.950 . S
C1789 C1791 1.327 . S
C1789 C1795 1.429 . S
C1790 C1782 1.574 . S
C1790 H1785 0.949 1_655 S
C1790 C1796 1.368 1_655 S
C1791 C1775 1.349 . S
C1791 H1783 0.950 . S
C1791 C1789 1.327 . S
C1792 C1780 1.349 . S
C1792 H1786 0.950 . S
C1792 C1793 1.327 . S
C1793 H1787 0.950 . S
C1793 C1792 1.327 . S
C1793 C1797 1.429 . S
C1794 C1777 1.574 1_655 S
C1794 H1788 0.949 . S
C1794 C1798 1.368 . S
C1795 C1776 1.429 . S
C1795 C1789 1.429 . S
C1795 C1796 1.523 . S
C1796 C1777 1.368 . S
C1796 C1790 1.368 1_455 S
C1796 C1795 1.523 . S
C1797 C1781 1.429 . S
C1797 C1793 1.429 . S
C1797 C1798 1.523 . S
C1798 C1782 1.368 . S
C1798 C1794 1.368 . S
C1798 C1797 1.523 . S
H1799 C1774 0.950 . S
H1800 C1776 0.950 . S
H1801 C1777 0.949 . S
H1802 C1779 0.950 . S
H1803 C1781 0.950 . S
C1804 C1805 1.349 . S
C1804 C1806 1.327 . S
C1804 H1829 0.950 . S
C1805 C1804 1.349 . S
C1805 C1821 1.349 . S
C1806 C1804 1.327 . S
C1806 C1825 1.429 . S
C1806 H1830 0.950 . S
C1807 C1824 1.574 . S
C1807 C1826 1.368 . S
C1807 H1831 0.949 . S
H1808 C1812 0.949 . S
C1809 C1810 1.349 . S
C1809 C1811 1.327 . S
C1809 H1832 0.950 . S
C1810 C1809 1.349 . S
C1810 C1822 1.349 . S
C1811 C1809 1.327 . S
C1811 C1827 1.429 . S
C1811 H1833 0.950 . S
C1812 H1808 0.949 . S
C1812 C1820 1.574 . S
C1812 C1828 1.368 . S
H1813 C1821 0.950 . S
H1814 C1819 0.950 . S
H1815 C1820 0.949 . S
H1816 C1822 0.950 . S
H1817 C1823 0.950 . S
H1818 C1824 0.949 . S
C1819 H1814 0.950 . S
C1819 C1821 1.327 . S
C1819 C1825 1.429 . S
C1820 C1812 1.574 . S
C1820 H1815 0.949 . S
C1820 C1826 1.368 . S
C1821 C1805 1.349 . S
C1821 H1813 0.950 . S
C1821 C1819 1.327 . S
C1822 C1810 1.349 . S
C1822 H1816 0.950 . S
C1822 C1823 1.327 . S
C1823 H1817 0.950 . S
C1823 C1822 1.327 . S
C1823 C1827 1.429 . S
C1824 C1807 1.574 . S
C1824 H1818 0.949 . S
C1824 C1828 1.368 . S
C1825 C1806 1.429 . S
C1825 C1819 1.429 . S
C1825 C1826 1.523 . S
C1826 C1807 1.368 . S
C1826 C1820 1.368 . S
C1826 C1825 1.523 . S
C1827 C1811 1.429 . S
C1827 C1823 1.429 . S
C1827 C1828 1.523 . S
C1828 C1812 1.368 . S
C1828 C1824 1.368 . S
C1828 C1827 1.523 . S
H1829 C1804 0.950 . S
H1830 C1806 0.950 . S
H1831 C1807 0.949 . S
H1832 C1809 0.950 . S
H1833 C1811 0.950 . S
C1834 C1835 1.349 . S
C1834 C1836 1.327 . S
C1834 H1859 0.950 . S
C1835 C1834 1.349 . S
C1835 C1851 1.349 . S
C1836 C1834 1.327 . S
C1836 C1855 1.429 . S
C1836 H1860 0.950 . S
C1837 C1854 1.574 . S
C1837 C1856 1.368 . S
C1837 H1861 0.949 . S
H1838 C1842 0.949 . S
C1839 C1840 1.349 . S
C1839 C1841 1.327 . S
C1839 H1862 0.950 . S
C1840 C1839 1.349 . S
C1840 C1852 1.349 . S
C1841 C1839 1.327 . S
C1841 C1857 1.429 . S
C1841 H1863 0.950 . S
C1842 H1838 0.949 . S
C1842 C1850 1.574 . S
C1842 C1858 1.368 . S
H1843 C1851 0.950 . S
H1844 C1849 0.950 . S
H1845 C1850 0.949 . S
H1846 C1852 0.950 . S
H1847 C1853 0.950 . S
H1848 C1854 0.949 . S
C1849 H1844 0.950 . S
C1849 C1851 1.327 . S
C1849 C1855 1.429 . S
C1850 C1842 1.574 . S
C1850 H1845 0.949 . S
C1850 C1856 1.368 . S
C1851 C1835 1.349 . S
C1851 H1843 0.950 . S
C1851 C1849 1.327 . S
C1852 C1840 1.349 . S
C1852 H1846 0.950 . S
C1852 C1853 1.327 . S
C1853 H1847 0.950 . S
C1853 C1852 1.327 . S
C1853 C1857 1.429 . S
C1854 C1837 1.574 . S
C1854 H1848 0.949 . S
C1854 C1858 1.368 . S
C1855 C1836 1.429 . S
C1855 C1849 1.429 . S
C1855 C1856 1.523 . S
C1856 C1837 1.368 . S
C1856 C1850 1.368 . S
C1856 C1855 1.523 . S
C1857 C1841 1.429 . S
C1857 C1853 1.429 . S
C1857 C1858 1.523 . S
C1858 C1842 1.368 . S
C1858 C1854 1.368 . S
C1858 C1857 1.523 . S
H1859 C1834 0.950 . S
H1860 C1836 0.950 . S
H1861 C1837 0.949 . S
H1862 C1839 0.950 . S
H1863 C1841 0.950 . S
C1864 C1865 1.349 . S
C1864 C1866 1.327 . S
C1864 H1889 0.950 . S
C1865 C1864 1.349 . S
C1865 C1881 1.349 . S
C1866 C1864 1.327 . S
C1866 C1885 1.429 . S
C1866 H1890 0.950 . S
C1867 C1884 1.574 . S
C1867 C1886 1.368 . S
C1867 H1891 0.949 . S
H1868 C1872 0.949 . S
C1869 C1870 1.349 . S
C1869 C1871 1.327 . S
C1869 H1892 0.950 . S
C1870 C1869 1.349 . S
C1870 C1882 1.349 . S
C1871 C1869 1.327 . S
C1871 C1887 1.429 . S
C1871 H1893 0.950 . S
C1872 H1868 0.949 . S
C1872 C1880 1.574 . S
C1872 C1888 1.368 . S
H1873 C1881 0.950 . S
H1874 C1879 0.950 . S
H1875 C1880 0.949 . S
H1876 C1882 0.950 . S
H1877 C1883 0.950 . S
H1878 C1884 0.949 . S
C1879 H1874 0.950 . S
C1879 C1881 1.327 . S
C1879 C1885 1.429 . S
C1880 C1872 1.574 . S
C1880 H1875 0.949 . S
C1880 C1886 1.368 . S
C1881 C1865 1.349 . S
C1881 H1873 0.950 . S
C1881 C1879 1.327 . S
C1882 C1870 1.349 . S
C1882 H1876 0.950 . S
C1882 C1883 1.327 . S
C1883 H1877 0.950 . S
C1883 C1882 1.327 . S
C1883 C1887 1.429 . S
C1884 C1867 1.574 . S
C1884 H1878 0.949 . S
C1884 C1888 1.368 . S
C1885 C1866 1.429 . S
C1885 C1879 1.429 . S
C1885 C1886 1.523 . S
C1886 C1867 1.368 . S
C1886 C1880 1.368 . S
C1886 C1885 1.523 . S
C1887 C1871 1.429 . S
C1887 C1883 1.429 . S
C1887 C1888 1.523 . S
C1888 C1872 1.368 . S
C1888 C1884 1.368 . S
C1888 C1887 1.523 . S
H1889 C1864 0.950 . S
H1890 C1866 0.950 . S
H1891 C1867 0.949 . S
H1892 C1869 0.950 . S
H1893 C1871 0.950 . S
C1894 C1895 1.349 . S
C1894 C1896 1.327 . S
C1894 H1919 0.950 . S
C1895 C1894 1.349 . S
C1895 C1911 1.349 . S
C1896 C1894 1.327 . S
C1896 C1915 1.429 . S
C1896 H1920 0.950 . S
C1897 C1914 1.574 1_455 S
C1897 C1916 1.368 . S
C1897 H1921 0.949 . S
H1898 C1902 0.949 1_655 S
C1899 C1900 1.349 . S
C1899 C1901 1.327 . S
C1899 H1922 0.950 . S
C1900 C1899 1.349 . S
C1900 C1912 1.349 . S
C1901 C1899 1.327 . S
C1901 C1917 1.429 . S
C1901 H1923 0.950 . S
C1902 H1898 0.949 1_455 S
C1902 C1910 1.574 . S
C1902 C1918 1.368 1_455 S
H1903 C1911 0.950 . S
H1904 C1909 0.950 . S
H1905 C1910 0.949 . S
H1906 C1912 0.950 . S
H1907 C1913 0.950 . S
H1908 C1914 0.949 . S
C1909 H1904 0.950 . S
C1909 C1911 1.327 . S
C1909 C1915 1.429 . S
C1910 C1902 1.574 . S
C1910 H1905 0.949 . S
C1910 C1916 1.368 . S
C1911 C1895 1.349 . S
C1911 H1903 0.950 . S
C1911 C1909 1.327 . S
C1912 C1900 1.349 . S
C1912 H1906 0.950 . S
C1912 C1913 1.327 . S
C1913 H1907 0.950 . S
C1913 C1912 1.327 . S
C1913 C1917 1.429 . S
C1914 C1897 1.574 1_655 S
C1914 H1908 0.949 . S
C1914 C1918 1.368 . S
C1915 C1896 1.429 . S
C1915 C1909 1.429 . S
C1915 C1916 1.523 . S
C1916 C1897 1.368 . S
C1916 C1910 1.368 . S
C1916 C1915 1.523 . S
C1917 C1901 1.429 . S
C1917 C1913 1.429 . S
C1917 C1918 1.523 . S
C1918 C1902 1.368 1_655 S
C1918 C1914 1.368 . S
C1918 C1917 1.523 . S
H1919 C1894 0.950 . S
H1920 C1896 0.950 . S
H1921 C1897 0.949 . S
H1922 C1899 0.950 . S
H1923 C1901 0.950 . S
C1924 C1925 1.349 . S
C1924 C1926 1.327 . S
C1924 H1949 0.950 . S
C1925 C1924 1.349 . S
C1925 C1941 1.349 . S
C1926 C1924 1.327 . S
C1926 C1945 1.429 . S
C1926 H1950 0.950 . S
C1927 C1944 1.574 . S
C1927 C1946 1.368 . S
C1927 H1951 0.949 . S
H1928 C1932 0.949 . S
C1929 C1930 1.349 . S
C1929 C1931 1.327 . S
C1929 H1952 0.950 . S
C1930 C1929 1.349 . S
C1930 C1942 1.349 . S
C1931 C1929 1.327 . S
C1931 C1947 1.429 . S
C1931 H1953 0.950 . S
C1932 H1928 0.949 . S
C1932 C1940 1.574 . S
C1932 C1948 1.368 . S
H1933 C1941 0.950 . S
H1934 C1939 0.950 . S
H1935 C1940 0.949 . S
H1936 C1942 0.950 . S
H1937 C1943 0.950 . S
H1938 C1944 0.949 . S
C1939 H1934 0.950 . S
C1939 C1941 1.327 . S
C1939 C1945 1.429 . S
C1940 C1932 1.574 . S
C1940 H1935 0.949 . S
C1940 C1946 1.368 . S
C1941 C1925 1.349 . S
C1941 H1933 0.950 . S
C1941 C1939 1.327 . S
C1942 C1930 1.349 . S
C1942 H1936 0.950 . S
C1942 C1943 1.327 . S
C1943 H1937 0.950 . S
C1943 C1942 1.327 . S
C1943 C1947 1.429 . S
C1944 C1927 1.574 . S
C1944 H1938 0.949 . S
C1944 C1948 1.368 . S
C1945 C1926 1.429 . S
C1945 C1939 1.429 . S
C1945 C1946 1.523 . S
C1946 C1927 1.368 . S
C1946 C1940 1.368 . S
C1946 C1945 1.523 . S
C1947 C1931 1.429 . S
C1947 C1943 1.429 . S
C1947 C1948 1.523 . S
C1948 C1932 1.368 . S
C1948 C1944 1.368 . S
C1948 C1947 1.523 . S
H1949 C1924 0.950 . S
H1950 C1926 0.950 . S
H1951 C1927 0.949 . S
H1952 C1929 0.950 . S
H1953 C1931 0.950 . S
C1954 C1955 1.349 . S
C1954 C1956 1.327 . S
C1954 H1979 0.950 . S
C1955 C1954 1.349 . S
C1955 C1971 1.349 . S
C1956 C1954 1.327 . S
C1956 C1975 1.429 . S
C1956 H1980 0.950 . S
C1957 C1974 1.574 . S
C1957 C1976 1.368 . S
C1957 H1981 0.949 . S
H1958 C1962 0.949 . S
C1959 C1960 1.349 . S
C1959 C1961 1.327 . S
C1959 H1982 0.950 . S
C1960 C1959 1.349 . S
C1960 C1972 1.349 . S
C1961 C1959 1.327 . S
C1961 C1977 1.429 . S
C1961 H1983 0.950 . S
C1962 H1958 0.949 . S
C1962 C1970 1.574 . S
C1962 C1978 1.368 . S
H1963 C1971 0.950 . S
H1964 C1969 0.950 . S
H1965 C1970 0.949 . S
H1966 C1972 0.950 . S
H1967 C1973 0.950 . S
H1968 C1974 0.949 . S
C1969 H1964 0.950 . S
C1969 C1971 1.327 . S
C1969 C1975 1.429 . S
C1970 C1962 1.574 . S
C1970 H1965 0.949 . S
C1970 C1976 1.368 . S
C1971 C1955 1.349 . S
C1971 H1963 0.950 . S
C1971 C1969 1.327 . S
C1972 C1960 1.349 . S
C1972 H1966 0.950 . S
C1972 C1973 1.327 . S
C1973 H1967 0.950 . S
C1973 C1972 1.327 . S
C1973 C1977 1.429 . S
C1974 C1957 1.574 . S
C1974 H1968 0.949 . S
C1974 C1978 1.368 . S
C1975 C1956 1.429 . S
C1975 C1969 1.429 . S
C1975 C1976 1.523 . S
C1976 C1957 1.368 . S
C1976 C1970 1.368 . S
C1976 C1975 1.523 . S
C1977 C1961 1.429 . S
C1977 C1973 1.429 . S
C1977 C1978 1.523 . S
C1978 C1962 1.368 . S
C1978 C1974 1.368 . S
C1978 C1977 1.523 . S
H1979 C1954 0.950 . S
H1980 C1956 0.950 . S
H1981 C1957 0.949 . S
H1982 C1959 0.950 . S
H1983 C1961 0.950 . S
C1984 C1985 1.349 . S
C1984 C1986 1.327 . S
C1984 H2009 0.950 . S
C1985 C1984 1.349 . S
C1985 C2001 1.349 . S
C1986 C1984 1.327 . S
C1986 C2005 1.429 . S
C1986 H2010 0.950 . S
C1987 C2004 1.574 . S
C1987 C2006 1.368 . S
C1987 H2011 0.949 . S
H1988 C1992 0.949 . S
C1989 C1990 1.349 . S
C1989 C1991 1.327 . S
C1989 H2012 0.950 . S
C1990 C1989 1.349 . S
C1990 C2002 1.349 . S
C1991 C1989 1.327 . S
C1991 C2007 1.429 . S
C1991 H2013 0.950 . S
C1992 H1988 0.949 . S
C1992 C2000 1.574 . S
C1992 C2008 1.368 . S
H1993 C2001 0.950 . S
H1994 C1999 0.950 . S
H1995 C2000 0.949 . S
H1996 C2002 0.950 . S
H1997 C2003 0.950 . S
H1998 C2004 0.949 . S
C1999 H1994 0.950 . S
C1999 C2001 1.327 . S
C1999 C2005 1.429 . S
C2000 C1992 1.574 . S
C2000 H1995 0.949 . S
C2000 C2006 1.368 . S
C2001 C1985 1.349 . S
C2001 H1993 0.950 . S
C2001 C1999 1.327 . S
C2002 C1990 1.349 . S
C2002 H1996 0.950 . S
C2002 C2003 1.327 . S
C2003 H1997 0.950 . S
C2003 C2002 1.327 . S
C2003 C2007 1.429 . S
C2004 C1987 1.574 . S
C2004 H1998 0.949 . S
C2004 C2008 1.368 . S
C2005 C1986 1.429 . S
C2005 C1999 1.429 . S
C2005 C2006 1.523 . S
C2006 C1987 1.368 . S
C2006 C2000 1.368 . S
C2006 C2005 1.523 . S
C2007 C1991 1.429 . S
C2007 C2003 1.429 . S
C2007 C2008 1.523 . S
C2008 C1992 1.368 . S
C2008 C2004 1.368 . S
C2008 C2007 1.523 . S
H2009 C1984 0.950 . S
H2010 C1986 0.950 . S
H2011 C1987 0.949 . S
H2012 C1989 0.950 . S
H2013 C1991 0.950 . S
C2014 C2015 1.349 . S
C2014 C2016 1.327 . S
C2014 H2039 0.950 . S
C2015 C2014 1.349 . S
C2015 C2031 1.349 1_565 S
C2016 C2014 1.327 . S
C2016 C2035 1.429 1_565 S
C2016 H2040 0.950 . S
C2017 C2034 1.574 . S
C2017 C2036 1.368 . S
C2017 H2041 0.949 . S
H2018 C2022 0.949 1_565 S
C2019 C2020 1.349 . S
C2019 C2021 1.327 . S
C2019 H2042 0.950 . S
C2020 C2019 1.349 . S
C2020 C2032 1.349 . S
C2021 C2019 1.327 . S
C2021 C2037 1.429 . S
C2021 H2043 0.950 . S
C2022 H2018 0.949 1_545 S
C2022 C2030 1.568 1_545 S
C2022 C2038 1.368 . S
H2023 C2031 0.950 . S
H2024 C2029 0.950 . S
H2025 C2030 0.968 . S
H2026 C2032 0.950 . S
H2027 C2033 0.950 . S
H2028 C2034 0.949 . S
C2029 H2024 0.950 . S
C2029 C2031 1.327 . S
C2029 C2035 1.429 . S
C2030 C2022 1.568 1_565 S
C2030 H2025 0.968 . S
C2030 C2036 1.354 1_565 S
C2031 C2015 1.349 1_545 S
C2031 H2023 0.950 . S
C2031 C2029 1.327 . S
C2032 C2020 1.349 . S
C2032 H2026 0.950 . S
C2032 C2033 1.327 . S
C2033 H2027 0.950 . S
C2033 C2032 1.327 . S
C2033 C2037 1.429 . S
C2034 C2017 1.574 . S
C2034 H2028 0.949 . S
C2034 C2038 1.368 . S
C2035 C2016 1.429 1_545 S
C2035 C2029 1.429 . S
C2035 C2036 1.523 . S
C2036 C2017 1.368 . S
C2036 C2030 1.354 1_545 S
C2036 C2035 1.523 . S
C2037 C2021 1.429 . S
C2037 C2033 1.429 . S
C2037 C2038 1.523 . S
C2038 C2022 1.368 . S
C2038 C2034 1.368 . S
C2038 C2037 1.523 . S
H2039 C2014 0.950 . S
H2040 C2016 0.950 . S
H2041 C2017 0.949 . S
H2042 C2019 0.950 . S
H2043 C2021 0.950 . S
C2044 C2045 1.349 . S
C2044 C2046 1.327 . S
C2044 H2069 0.950 . S
C2045 C2044 1.349 . S
C2045 C2061 1.349 . S
C2046 C2044 1.327 . S
C2046 C2065 1.429 . S
C2046 H2070 0.950 . S
C2047 C2064 1.574 . S
C2047 C2066 1.368 . S
C2047 H2071 0.949 . S
H2048 C2052 0.949 . S
C2049 C2050 1.349 . S
C2049 C2051 1.327 . S
C2049 H2072 0.950 . S
C2050 C2049 1.349 . S
C2050 C2062 1.349 . S
C2051 C2049 1.327 . S
C2051 C2067 1.429 . S
C2051 H2073 0.950 . S
C2052 H2048 0.949 . S
C2052 C2060 1.574 . S
C2052 C2068 1.368 . S
H2053 C2061 0.950 . S
H2054 C2059 0.950 . S
H2055 C2060 0.949 . S
H2056 C2062 0.950 . S
H2057 C2063 0.950 . S
H2058 C2064 0.949 . S
C2059 H2054 0.950 . S
C2059 C2061 1.327 . S
C2059 C2065 1.429 . S
C2060 C2052 1.574 . S
C2060 H2055 0.949 . S
C2060 C2066 1.368 . S
C2061 C2045 1.349 . S
C2061 H2053 0.950 . S
C2061 C2059 1.327 . S
C2062 C2050 1.349 . S
C2062 H2056 0.950 . S
C2062 C2063 1.327 . S
C2063 H2057 0.950 . S
C2063 C2062 1.327 . S
C2063 C2067 1.429 . S
C2064 C2047 1.574 . S
C2064 H2058 0.949 . S
C2064 C2068 1.368 . S
C2065 C2046 1.429 . S
C2065 C2059 1.429 . S
C2065 C2066 1.523 . S
C2066 C2047 1.368 . S
C2066 C2060 1.368 . S
C2066 C2065 1.523 . S
C2067 C2051 1.429 . S
C2067 C2063 1.429 . S
C2067 C2068 1.523 . S
C2068 C2052 1.368 . S
C2068 C2064 1.368 . S
C2068 C2067 1.523 . S
H2069 C2044 0.950 . S
H2070 C2046 0.950 . S
H2071 C2047 0.949 . S
H2072 C2049 0.950 . S
H2073 C2051 0.950 . S
C2074 C2075 1.349 . S
C2074 C2076 1.327 . S
C2074 H2099 0.950 . S
C2075 C2074 1.349 . S
C2075 C2091 1.349 . S
C2076 C2074 1.327 . S
C2076 C2095 1.429 . S
C2076 H2100 0.950 . S
C2077 C2094 1.574 . S
C2077 C2096 1.368 . S
C2077 H2101 0.949 . S
H2078 C2082 0.949 . S
C2079 C2080 1.353 . S
C2079 C2081 1.322 1_545 S
C2079 H2102 0.951 . S
C2080 C2079 1.353 . S
C2080 C2092 1.349 . S
C2081 C2079 1.322 1_565 S
C2081 C2097 1.429 . S
C2081 H2103 0.950 . S
C2082 H2078 0.949 . S
C2082 C2090 1.574 1_655 S
C2082 C2098 1.368 . S
H2083 C2091 0.950 . S
H2084 C2089 0.950 . S
H2085 C2090 0.949 . S
H2086 C2092 0.950 . S
H2087 C2093 0.950 . S
H2088 C2094 0.949 1_655 S
C2089 H2084 0.950 . S
C2089 C2091 1.327 . S
C2089 C2095 1.429 . S
C2090 C2082 1.574 1_455 S
C2090 H2085 0.949 . S
C2090 C2096 1.368 . S
C2091 C2075 1.349 . S
C2091 H2083 0.950 . S
C2091 C2089 1.327 . S
C2092 C2080 1.349 . S
C2092 H2086 0.950 . S
C2092 C2093 1.327 1_545 S
C2093 H2087 0.950 . S
C2093 C2092 1.327 1_565 S
C2093 C2097 1.429 . S
C2094 C2077 1.574 . S
C2094 H2088 0.949 1_455 S
C2094 C2098 1.368 1_455 S
C2095 C2076 1.429 . S
C2095 C2089 1.429 . S
C2095 C2096 1.523 . S
C2096 C2077 1.368 . S
C2096 C2090 1.368 . S
C2096 C2095 1.523 . S
C2097 C2081 1.429 . S
C2097 C2093 1.429 . S
C2097 C2098 1.523 . S
C2098 C2082 1.368 . S
C2098 C2094 1.368 1_655 S
C2098 C2097 1.523 . S
H2099 C2074 0.950 . S
H2100 C2076 0.950 . S
H2101 C2077 0.949 . S
H2102 C2079 0.951 . S
H2103 C2081 0.950 . S
C2104 C2105 1.349 . S
C2104 C2106 1.327 . S
C2104 H2129 0.950 . S
C2105 C2104 1.349 . S
C2105 C2121 1.349 . S
C2106 C2104 1.327 . S
C2106 C2125 1.429 . S
C2106 H2130 0.950 . S
C2107 C2124 1.574 . S
C2107 C2126 1.368 . S
C2107 H2131 0.949 . S
H2108 C2112 0.949 . S
C2109 C2110 1.349 . S
C2109 C2111 1.327 . S
C2109 H2132 0.950 . S
C2110 C2109 1.349 . S
C2110 C2122 1.349 . S
C2111 C2109 1.327 . S
C2111 C2127 1.429 . S
C2111 H2133 0.950 . S
C2112 H2108 0.949 . S
C2112 C2120 1.574 . S
C2112 C2128 1.368 . S
H2113 C2121 0.950 . S
H2114 C2119 0.950 . S
H2115 C2120 0.949 . S
H2116 C2122 0.950 . S
H2117 C2123 0.950 . S
H2118 C2124 0.949 . S
C2119 H2114 0.950 . S
C2119 C2121 1.327 . S
C2119 C2125 1.429 . S
C2120 C2112 1.574 . S
C2120 H2115 0.949 . S
C2120 C2126 1.368 . S
C2121 C2105 1.349 . S
C2121 H2113 0.950 . S
C2121 C2119 1.327 . S
C2122 C2110 1.349 . S
C2122 H2116 0.950 . S
C2122 C2123 1.327 . S
C2123 H2117 0.950 . S
C2123 C2122 1.327 . S
C2123 C2127 1.429 . S
C2124 C2107 1.574 . S
C2124 H2118 0.949 . S
C2124 C2128 1.368 . S
C2125 C2106 1.429 . S
C2125 C2119 1.429 . S
C2125 C2126 1.523 . S
C2126 C2107 1.368 . S
C2126 C2120 1.368 . S
C2126 C2125 1.523 . S
C2127 C2111 1.429 . S
C2127 C2123 1.429 . S
C2127 C2128 1.523 . S
C2128 C2112 1.368 . S
C2128 C2124 1.368 . S
C2128 C2127 1.523 . S
H2129 C2104 0.950 . S
H2130 C2106 0.950 . S
H2131 C2107 0.949 . S
H2132 C2109 0.950 . S
H2133 C2111 0.950 . S
C2134 C2135 1.349 1_565 S
C2134 C2136 1.327 . S
C2134 H2159 0.950 . S
C2135 C2134 1.349 1_545 S
C2135 C2151 1.349 . S
C2136 C2134 1.327 . S
C2136 C2155 1.429 . S
C2136 H2160 0.950 . S
C2137 C2154 1.574 . S
C2137 C2156 1.368 . S
C2137 H2161 0.930 1_565 S
H2138 C2142 0.949 . S
C2139 C2140 1.349 . S
C2139 C2141 1.327 . S
C2139 H2162 0.950 . S
C2140 C2139 1.349 . S
C2140 C2152 1.349 . S
C2141 C2139 1.327 . S
C2141 C2157 1.429 . S
C2141 H2163 0.950 . S
C2142 H2138 0.949 . S
C2142 C2150 1.574 . S
C2142 C2158 1.368 . S
H2143 C2151 0.950 . S
H2144 C2149 0.950 . S
H2145 C2150 0.949 . S
H2146 C2152 0.950 . S
H2147 C2153 0.950 . S
H2148 C2154 0.949 . S
C2149 H2144 0.950 . S
C2149 C2151 1.327 . S
C2149 C2155 1.429 1_545 S
C2150 C2142 1.574 . S
C2150 H2145 0.949 . S
C2150 C2156 1.368 . S
C2151 C2135 1.349 . S
C2151 H2143 0.950 . S
C2151 C2149 1.327 . S
C2152 C2140 1.349 . S
C2152 H2146 0.950 . S
C2152 C2153 1.327 . S
C2153 H2147 0.950 . S
C2153 C2152 1.327 . S
C2153 C2157 1.429 . S
C2154 C2137 1.574 . S
C2154 H2148 0.949 . S
C2154 C2158 1.368 . S
C2155 C2136 1.429 . S
C2155 C2149 1.429 1_565 S
C2155 C2156 1.523 . S
C2156 C2137 1.368 . S
C2156 C2150 1.368 . S
C2156 C2155 1.523 . S
C2157 C2141 1.429 . S
C2157 C2153 1.429 . S
C2157 C2158 1.523 . S
C2158 C2142 1.368 . S
C2158 C2154 1.368 . S
C2158 C2157 1.523 . S
H2159 C2134 0.950 . S
H2160 C2136 0.950 . S
H2161 C2137 0.930 1_545 S
H2162 C2139 0.950 . S
H2163 C2141 0.950 . S
C2164 C2165 1.349 . S
C2164 C2166 1.327 . S
C2164 H2189 0.950 . S
C2165 C2164 1.349 . S
C2165 C2181 1.349 . S
C2166 C2164 1.327 . S
C2166 C2185 1.429 . S
C2166 H2190 0.950 . S
C2167 C2184 1.574 . S
C2167 C2186 1.368 . S
C2167 H2191 0.949 . S
H2168 C2172 0.949 . S
C2169 C2170 1.349 . S
C2169 C2171 1.327 . S
C2169 H2192 0.950 . S
C2170 C2169 1.349 . S
C2170 C2182 1.349 . S
C2171 C2169 1.327 . S
C2171 C2187 1.429 . S
C2171 H2193 0.950 . S
C2172 H2168 0.949 . S
C2172 C2180 1.574 . S
C2172 C2188 1.368 . S
H2173 C2181 0.950 . S
H2174 C2179 0.950 . S
H2175 C2180 0.949 . S
H2176 C2182 0.950 . S
H2177 C2183 0.950 . S
H2178 C2184 0.949 . S
C2179 H2174 0.950 . S
C2179 C2181 1.327 . S
C2179 C2185 1.429 . S
C2180 C2172 1.574 . S
C2180 H2175 0.949 . S
C2180 C2186 1.368 . S
C2181 C2165 1.349 . S
C2181 H2173 0.950 . S
C2181 C2179 1.327 . S
C2182 C2170 1.349 . S
C2182 H2176 0.950 . S
C2182 C2183 1.327 . S
C2183 H2177 0.950 . S
C2183 C2182 1.327 . S
C2183 C2187 1.429 . S
C2184 C2167 1.574 . S
C2184 H2178 0.949 . S
C2184 C2188 1.368 . S
C2185 C2166 1.429 . S
C2185 C2179 1.429 . S
C2185 C2186 1.523 . S
C2186 C2167 1.368 . S
C2186 C2180 1.368 . S
C2186 C2185 1.523 . S
C2187 C2171 1.429 . S
C2187 C2183 1.429 . S
C2187 C2188 1.523 . S
C2188 C2172 1.368 . S
C2188 C2184 1.368 . S
C2188 C2187 1.523 . S
H2189 C2164 0.950 . S
H2190 C2166 0.950 . S
H2191 C2167 0.949 . S
H2192 C2169 0.950 . S
H2193 C2171 0.950 . S
C2194 C2195 1.349 . S
C2194 C2196 1.323 1_565 S
C2194 H2219 0.950 . S
C2195 C2194 1.349 . S
C2195 C2211 1.349 1_565 S
C2196 C2194 1.323 1_545 S
C2196 C2215 1.433 . S
C2196 H2220 0.949 1_545 S
C2197 C2214 1.574 1_455 S
C2197 C2216 1.368 . S
C2197 H2221 0.949 . S
H2198 C2202 0.949 . S
C2199 C2200 1.349 . S
C2199 C2201 1.327 . S
C2199 H2222 0.950 . S
C2200 C2199 1.349 . S
C2200 C2212 1.349 . S
C2201 C2199 1.327 . S
C2201 C2217 1.429 . S
C2201 H2223 0.950 . S
C2202 H2198 0.949 . S
C2202 C2210 1.574 . S
C2202 C2218 1.368 . S
H2203 C2211 0.950 . S
H2204 C2209 0.950 . S
H2205 C2210 0.949 . S
H2206 C2212 0.950 . S
H2207 C2213 0.950 . S
H2208 C2214 0.949 . S
C2209 H2204 0.950 . S
C2209 C2211 1.327 . S
C2209 C2215 1.429 . S
C2210 C2202 1.574 . S
C2210 H2205 0.949 . S
C2210 C2216 1.368 1_655 S
C2211 C2195 1.349 1_545 S
C2211 H2203 0.950 . S
C2211 C2209 1.327 . S
C2212 C2200 1.349 . S
C2212 H2206 0.950 . S
C2212 C2213 1.327 . S
C2213 H2207 0.950 . S
C2213 C2212 1.327 . S
C2213 C2217 1.429 . S
C2214 C2197 1.574 1_655 S
C2214 H2208 0.949 . S
C2214 C2218 1.368 . S
C2215 C2196 1.433 . S
C2215 C2209 1.429 . S
C2215 C2216 1.523 . S
C2216 C2197 1.368 . S
C2216 C2210 1.368 1_455 S
C2216 C2215 1.523 . S
C2217 C2201 1.429 . S
C2217 C2213 1.429 . S
C2217 C2218 1.523 . S
C2218 C2202 1.368 . S
C2218 C2214 1.368 . S
C2218 C2217 1.523 . S
H2219 C2194 0.950 . S
H2220 C2196 0.949 1_565 S
H2221 C2197 0.949 . S
H2222 C2199 0.950 . S
H2223 C2201 0.950 . S
C545 C255 2.672 . S
C550 C22 2.473 . S
C575 C425 2.672 . S
C580 C49 2.473 . S
C605 C90 2.473 . S
C610 C187 2.672 . S
C635 C493 2.672 . S
C640 C124 2.473 . S
C665 C119 2.672 . S
C670 C158 2.473 . S
C695 C185 2.473 . S
C700 C289 2.672 . S
C725 C219 2.473 . S
C730 C51 2.672 . S
C755 C357 2.672 . S
C760 C260 2.473 . S
C785 C527 2.672 1_565 S
C790 C294 2.473 . S
C815 C321 2.473 . S
C820 C153 2.672 . S
C845 C459 2.672 1_545 S
C850 C362 2.473 . S
C875 C221 2.672 . S
C880 C396 2.473 . S
C905 C391 2.672 1_545 S
C910 C423 2.473 . S
C935 C457 2.473 . S
C940 C17 2.672 . S
C965 C498 2.473 . S
C970 C323 2.672 1_565 S
C995 C85 2.672 . S
C1000 C532 2.473 . S
C1025 C312 0.597 . S
C1030 C6 0.594 . S
C1055 C62 0.594 . S
C1060 C368 0.597 . S
C1085 C74 0.594 . S
C1090 C402 0.597 . S
C1115 C108 0.594 . S
C1120 C300 0.597 . S
C1145 C448 0.597 . S
C1150 C142 0.594 . S
C1175 C198 0.594 . S
C1180 C504 0.597 . S
C1205 C538 0.597 . S
C1210 C232 0.594 . S
C1235 C244 0.594 . S
C1240 C414 0.597 . S
C1265 C40 0.597 . S
C1270 C278 0.594 . S
C1295 C96 0.597 . S
C1300 C334 0.594 . S
C1325 C130 0.597 . S
C1330 C346 0.594 . S
C1355 C28 0.597 . S
C1360 C380 0.594 . S
C1385 C436 0.594 . S
C1390 C176 0.597 . S
C1415 C210 0.597 . S
C1420 C470 0.594 . S
C1445 C266 0.597 . S
C1450 C482 0.594 . S
C1475 C516 0.594 . S
C1480 C164 0.597 . S
C1505 C137 2.823 . S
C1510 C1 2.823 . S
C1535 C37 2.823 . S
C1540 C445 2.823 . S
C1565 C207 2.823 . S
C1570 C69 2.823 . S
C1595 C511 2.823 . S
C1600 C103 2.823 . S
C1625 C309 2.823 . S
C1630 C173 2.823 . S
C1655 C239 2.823 . S
C1660 C375 2.823 . S
C1685 C273 2.823 . S
C1690 C411 2.823 . S
C1715 C341 2.823 . S
C1720 C477 2.823 . S
C1745 C241 0.565 . S
C1750 C15 0.458 . S
C1775 C409 0.565 . S
C1780 C56 0.458 . S
C1805 C83 0.458 . S
C1810 C171 0.565 . S
C1835 C117 0.458 . S
C1840 C479 0.565 . S
C1865 C151 0.458 . S
C1870 C105 0.565 . S
C1895 C192 0.458 . S
C1900 C275 0.565 . S
C1925 C226 0.458 . S
C1930 C35 0.565 . S
C1955 C343 0.565 . S
C1960 C253 0.458 . S
C1985 C287 0.458 . S
C1990 C513 0.565 . S
C2015 C139 0.565 . S
C2020 C328 0.458 . S
C2045 C443 0.565 . S
C2050 C355 0.458 . S
C2075 C389 0.458 . S
C2080 C205 0.565 . S
C2105 C377 0.565 . S
C2110 C430 0.458 . S
C2135 C3 0.565 . S
C2140 C464 0.458 . S
C2165 C491 0.458 . S
C2170 C307 0.565 . S
C2195 C71 0.565 . S
C2200 C525 0.458 . S
