# Generated by pormake.
# Topology umj, (4)-cn, num edge types: 1
# Building blocks:
#     Node 0, Type 0, BuildingBlock: NAWXER_clean_sbu_0, # of connection points: 4
#     Node 1, Type 0, BuildingBlock: NAWXER_clean_sbu_0, # of connection points: 4
#     Node 2, Type 0, BuildingBlock: NAWXER_clean_sbu_0, # of connection points: 4
#     Node 3, Type 0, BuildingBlock: NAWXER_clean_sbu_0, # of connection points: 4
#     Node 4, Type 0, BuildingBlock: NAWXER_clean_sbu_0, # of connection points: 4
#     Node 5, Type 0, BuildingBlock: NAWXER_clean_sbu_0, # of connection points: 4
#     Node 6, Type 0, BuildingBlock: NAWXER_clean_sbu_0, # of connection points: 4
#     Node 7, Type 0, BuildingBlock: NAWXER_clean_sbu_0, # of connection points: 4
#     Node 8, Type 0, BuildingBlock: NAWXER_clean_sbu_0, # of connection points: 4
#     Node 9, Type 0, BuildingBlock: NAWXER_clean_sbu_0, # of connection points: 4
#     Node 10, Type 0, BuildingBlock: NAWXER_clean_sbu_0, # of connection points: 4
#     Node 11, Type 0, BuildingBlock: NAWXER_clean_sbu_0, # of connection points: 4
#     Edge 12, Type (0, 0), BuildingBlock: MIFKUJ_clean_linker_0, # of connection points: 2
#     Edge 13, Type (0, 0), BuildingBlock: MIFKUJ_clean_linker_0, # of connection points: 2
#     Edge 14, Type (0, 0), BuildingBlock: MIFKUJ_clean_linker_0, # of connection points: 2
#     Edge 15, Type (0, 0), BuildingBlock: MIFKUJ_clean_linker_0, # of connection points: 2
#     Edge 16, Type (0, 0), BuildingBlock: MIFKUJ_clean_linker_0, # of connection points: 2
#     Edge 17, Type (0, 0), BuildingBlock: MIFKUJ_clean_linker_0, # of connection points: 2
#     Edge 18, Type (0, 0), BuildingBlock: MIFKUJ_clean_linker_0, # of connection points: 2
#     Edge 19, Type (0, 0), BuildingBlock: MIFKUJ_clean_linker_0, # of connection points: 2
#     Edge 20, Type (0, 0), BuildingBlock: MIFKUJ_clean_linker_0, # of connection points: 2
#     Edge 21, Type (0, 0), BuildingBlock: MIFKUJ_clean_linker_0, # of connection points: 2
#     Edge 22, Type (0, 0), BuildingBlock: MIFKUJ_clean_linker_0, # of connection points: 2
#     Edge 23, Type (0, 0), BuildingBlock: MIFKUJ_clean_linker_0, # of connection points: 2
#     Edge 24, Type (0, 0), BuildingBlock: MIFKUJ_clean_linker_0, # of connection points: 2
#     Edge 25, Type (0, 0), BuildingBlock: MIFKUJ_clean_linker_0, # of connection points: 2
#     Edge 26, Type (0, 0), BuildingBlock: MIFKUJ_clean_linker_0, # of connection points: 2
#     Edge 27, Type (0, 0), BuildingBlock: MIFKUJ_clean_linker_0, # of connection points: 2
#     Edge 28, Type (0, 0), BuildingBlock: MIFKUJ_clean_linker_0, # of connection points: 2
#     Edge 29, Type (0, 0), BuildingBlock: MIFKUJ_clean_linker_0, # of connection points: 2
#     Edge 30, Type (0, 0), BuildingBlock: MIFKUJ_clean_linker_0, # of connection points: 2
#     Edge 31, Type (0, 0), BuildingBlock: MIFKUJ_clean_linker_0, # of connection points: 2
#     Edge 32, Type (0, 0), BuildingBlock: MIFKUJ_clean_linker_0, # of connection points: 2
#     Edge 33, Type (0, 0), BuildingBlock: MIFKUJ_clean_linker_0, # of connection points: 2
#     Edge 34, Type (0, 0), BuildingBlock: MIFKUJ_clean_linker_0, # of connection points: 2
#     Edge 35, Type (0, 0), BuildingBlock: MIFKUJ_clean_linker_0, # of connection points: 2
# Relax obj value: 0.019
# Max RMSD: 0.123
# Mean RMSD: 0.123
data_MOF--net-umj--node1-NAWXER_clean_sbu_0--edge1-MIFKUJ_clean_linker_0
_symmetry_space_group_name_H-M    P1
_symmetry_Int_Tables_number       1
_symmetry_cell_setting            triclinic
loop_
_symmetry_equiv_pos_as_xyz
'x, y, z'
_cell_length_a     38.536967
_cell_length_b     38.496009
_cell_length_c     110.9342
_cell_angle_alpha  90.063396
_cell_angle_beta   90.020796
_cell_angle_gamma 119.93118
loop_
_atom_site_label
_atom_site_type_symbol
_atom_site_fract_x
_atom_site_fract_y
_atom_site_fract_z
_atom_type_partial_charge
C0 C 0.04837 0.27613 0.11219 0.0
C1 C 0.09593 0.30408 0.07055 0.0
O2 O 0.08448 0.2936 0.10858 0.0
Zn3 Zn 0.07347 0.29009 0.09146 0.0
O4 O 0.01987 0.263 0.10444 0.0
Zn5 Zn 0.01296 0.26071 0.08522 0.0
O6 O 0.98573 0.20359 0.08177 0.0
O7 O 0.04797 0.22745 0.08792 0.0
O8 O 0.05769 0.28509 0.07147 0.0
O9 O 0.11744 0.31299 0.07999 0.0
O10 O 0.04742 0.32782 0.08943 0.0
O11 O 0.98573 0.29075 0.08251 0.0
C12 C 0.01473 0.19792 0.08427 0.0
C13 C 0.01423 0.32462 0.08591 0.0
C14 C 0.79519 0.09452 0.40361 0.0
C15 C 0.77123 0.04752 0.44534 0.0
O16 O 0.80839 0.11606 0.41304 0.0
Zn17 Zn 0.78453 0.07233 0.42461 0.0
O18 O 0.7745 0.05632 0.40456 0.0
Zn19 Zn 0.75261 0.01176 0.41832 0.0
O20 O 0.69538 0.98551 0.41555 0.0
O21 O 0.72144 0.04813 0.42177 0.0
O22 O 0.75649 0.01894 0.43758 0.0
O23 O 0.7899 0.08368 0.44172 0.0
O24 O 0.82009 0.04443 0.42238 0.0
O25 O 0.78172 0.98357 0.41503 0.0
C26 C 0.69096 0.01516 0.41834 0.0
C27 C 0.81585 0.01107 0.4186 0.0
C28 C 0.72747 0.77507 0.77847 0.0
C29 C 0.70287 0.79253 0.73621 0.0
O30 O 0.70932 0.79271 0.77451 0.0
Zn31 Zn 0.71463 0.78498 0.75741 0.0
O32 O 0.74152 0.75984 0.771 0.0
Zn33 Zn 0.74501 0.75364 0.75201 0.0
O34 O 0.80254 0.78376 0.74913 0.0
O35 O 0.77745 0.82196 0.75445 0.0
O36 O 0.72175 0.77325 0.73764 0.0
O37 O 0.69312 0.80568 0.74537 0.0
O38 O 0.6772 0.72148 0.75516 0.0
O39 O 0.71509 0.69585 0.74996 0.0
C40 C 0.80755 0.81841 0.75134 0.0
C41 C 0.68065 0.69103 0.75233 0.0
C42 C 1.00119 0.69116 0.08532 0.0
C43 C 0.99582 0.81534 0.08331 0.0
O44 O 0.02937 0.72551 0.08216 0.0
Zn45 Zn 1.00015 0.75398 0.08438 0.0
O46 O 0.96719 0.6868 0.08842 0.0
Zn47 Zn 0.939 0.72253 0.09009 0.0
O48 O 0.89627 0.69852 0.07822 0.0
O49 O 0.95682 0.72851 0.07023 0.0
O50 O 0.96276 0.78497 0.08665 0.0
O51 O 0.02592 0.81112 0.08115 0.0
O52 O 0.99139 0.75133 0.1035 0.0
O53 O 0.92646 0.71787 0.10715 0.0
C54 C 0.91869 0.70831 0.06897 0.0
C55 C 0.96229 0.73689 0.11103 0.0
C56 C 0.18068 0.99342 0.41858 0.0
C57 C 0.30867 0.99543 0.41777 0.0
O58 O 0.21452 0.02258 0.4155 0.0
Zn59 Zn 0.24565 0.99615 0.41824 0.0
O60 O 0.17803 0.96029 0.42187 0.0
Zn61 Zn 0.21594 0.93499 0.42399 0.0
O62 O 0.21109 0.92275 0.44108 0.0
O63 O 0.24202 0.98765 0.43735 0.0
O64 O 0.27903 0.96149 0.4209 0.0
O65 O 0.30306 0.02471 0.4156 0.0
O66 O 0.22506 0.95249 0.40407 0.0
O67 O 0.19397 0.89206 0.41216 0.0
C68 C 0.2284 0.95868 0.44493 0.0
C69 C 0.20598 0.91427 0.40286 0.0
C70 C 0.29462 0.20294 0.73743 0.0
C71 C 0.27561 0.22549 0.77975 0.0
O72 O 0.30526 0.19074 0.74662 0.0
Zn73 Zn 0.28523 0.21284 0.75865 0.0
O74 O 0.27621 0.22269 0.73886 0.0
Zn75 Zn 0.25499 0.24424 0.75333 0.0
O76 O 0.28505 0.30173 0.7507 0.0
O77 O 0.32293 0.2761 0.75589 0.0
O78 O 0.26101 0.24038 0.77235 0.0
O79 O 0.29231 0.20653 0.7757 0.0
O80 O 0.22212 0.17601 0.7562 0.0
O81 O 0.19718 0.2144 0.75099 0.0
C82 C 0.31956 0.30646 0.7529 0.0
C83 C 0.19197 0.17974 0.75328 0.0
C84 C 0.67421 0.98429 0.59818 0.0
C85 C 0.80173 0.98517 0.59858 0.0
O86 O 0.70861 0.01389 0.6006 0.0
Zn87 Zn 0.73874 0.98647 0.59821 0.0
O88 O 0.67093 0.9506 0.59518 0.0
Zn89 Zn 0.7088 0.9251 0.59265 0.0
O90 O 0.68804 0.88257 0.60452 0.0
O91 O 0.71662 0.94325 0.61251 0.0
O92 O 0.77186 0.95139 0.59544 0.0
O93 O 0.79625 0.01442 0.60094 0.0
O94 O 0.73463 0.97727 0.57915 0.0
O95 O 0.70287 0.91227 0.57556 0.0
C96 C 0.69812 0.90506 0.61379 0.0
C97 C 0.72047 0.94807 0.57164 0.0
C98 C 0.8006 0.70449 0.9469 0.0
C99 C 0.78119 0.7306 0.90496 0.0
O100 O 0.81295 0.69482 0.93754 0.0
Zn101 Zn 0.79197 0.71709 0.92586 0.0
O102 O 0.78149 0.72366 0.94578 0.0
Zn103 Zn 0.76119 0.74742 0.93172 0.0
O104 O 0.70361 0.71762 0.93404 0.0
O105 O 0.72865 0.67972 0.92828 0.0
O106 O 0.76641 0.7446 0.91262 0.0
O107 O 0.79884 0.71221 0.90871 0.0
O108 O 0.82933 0.77988 0.92907 0.0
O109 O 0.79142 0.80477 0.93487 0.0
C110 C 0.69848 0.68319 0.9314 0.0
C111 C 0.82593 0.80988 0.93246 0.0
C112 C 0.09895 0.79697 0.28013 0.0
C113 C 0.05807 0.77728 0.2377 0.0
O114 O 0.12205 0.81046 0.27103 0.0
Zn115 Zn 0.08018 0.78879 0.25886 0.0
O116 O 0.06091 0.77691 0.27857 0.0
Zn117 Zn 0.01851 0.75613 0.26404 0.0
O118 O 0.99191 0.69868 0.26628 0.0
O119 O 0.05558 0.72538 0.26121 0.0
O120 O 0.02863 0.76142 0.24508 0.0
O121 O 0.09363 0.79659 0.24179 0.0
O122 O 0.05284 0.82459 0.26175 0.0
O123 O 0.98955 0.78484 0.26665 0.0
C124 C 0.02204 0.69457 0.26403 0.0
C125 C 0.0186 0.81992 0.26467 0.0
C126 C 0.29117 0.08927 0.61443 0.0
C127 C 0.26962 0.05047 0.57184 0.0
O128 O 0.30143 0.11278 0.60542 0.0
Zn129 Zn 0.28076 0.07148 0.59309 0.0
O130 O 0.27251 0.05123 0.61273 0.0
Zn131 Zn 0.25029 0.00947 0.59802 0.0
O132 O 0.2801 0.98149 0.6 0.0
O133 O 0.31821 0.04536 0.59529 0.0
O134 O 0.2551 0.02059 0.57909 0.0
O135 O 0.28723 0.08589 0.5761 0.0
O136 O 0.21774 0.04532 0.59578 0.0
O137 O 0.19268 0.98168 0.6006 0.0
C138 C 0.31465 0.01128 0.5979 0.0
C139 C 0.1876 0.01138 0.59862 0.0
C140 C 0.23116 0.27561 0.90639 0.0
C141 C 0.21196 0.29872 0.94865 0.0
O142 O 0.21371 0.29391 0.91039 0.0
Zn143 Zn 0.22066 0.28782 0.92747 0.0
O144 O 0.246 0.26112 0.91385 0.0
Zn145 Zn 0.25177 0.2573 0.93286 0.0
O146 O 0.22182 0.19968 0.93557 0.0
O147 O 0.1836 0.22482 0.93033 0.0
O148 O 0.23129 0.27984 0.94728 0.0
O149 O 0.19956 0.309 0.93944 0.0
O150 O 0.28383 0.32528 0.92999 0.0
O151 O 0.3095 0.28735 0.93508 0.0
C152 C 0.18721 0.19467 0.93337 0.0
C153 C 0.31422 0.32187 0.93286 0.0
C154 C 0.95396 0.22456 0.23894 0.0
C155 C 0.9137 0.20636 0.28134 0.0
O156 O 0.91847 0.2078 0.24307 0.0
Zn157 Zn 0.93238 0.21445 0.26007 0.0
O158 O 0.98361 0.23872 0.24628 0.0
Zn159 Zn 0.994 0.24414 0.26529 0.0
O160 O 0.02048 0.21312 0.26789 0.0
O161 O 0.95707 0.17604 0.26263 0.0
O162 O 0.95176 0.22475 0.27983 0.0
O163 O 0.89066 0.19444 0.27219 0.0
O164 O 0.95979 0.27794 0.26255 0.0
O165 O 0.02315 0.30179 0.26755 0.0
C166 C 0.99052 0.17883 0.26561 0.0
C167 C 0.99407 0.30768 0.26537 0.0
H168 H 0.90017 0.20562 0.22033 0.0
H169 H 0.91483 0.21408 0.19868 0.0
H170 H 0.0401 0.26003 0.20626 0.0
H171 H 0.02594 0.25248 0.22777 0.0
H172 H 0.03172 0.30526 0.19 0.0
H173 H 0.97851 0.16343 0.19571 0.0
H174 H 0.92816 0.09519 0.20207 0.0
H175 H 0.84227 0.09704 0.1778 0.0
H176 H 0.89198 0.16553 0.1714 0.0
H177 H 0.09966 0.29369 0.13137 0.0
H178 H 0.08254 0.28443 0.15282 0.0
H179 H 0.95811 0.23826 0.14392 0.0
H180 H 0.97477 0.24655 0.12254 0.0
H181 H 0.96454 0.1935 0.16074 0.0
H182 H 0.01785 0.33466 0.15473 0.0
H183 H 0.06796 0.40296 0.14835 0.0
H184 H 0.15329 0.40263 0.17318 0.0
H185 H 0.10384 0.33408 0.1796 0.0
C186 C 0.93079 0.2174 0.21737 0.0
C187 C 0.96184 0.22835 0.22579 0.0
C188 C 0.93913 0.22211 0.20499 0.0
C189 C 0.97857 0.23742 0.20083 0.0
C190 C 0.00949 0.24827 0.20924 0.0
C191 C 1.00125 0.2438 0.22156 0.0
C192 C 0.98808 0.24273 0.18775 0.0
C193 C 0.01734 0.28068 0.18362 0.0
C194 C 0.96868 0.21097 0.17937 0.0
C195 C 0.93883 0.16975 0.18317 0.0
C196 C 0.94879 0.1494 0.1918 0.0
C197 C 0.92039 0.11065 0.1954 0.0
C198 C 0.88201 0.09183 0.19037 0.0
C199 C 0.87199 0.11168 0.1817 0.0
C200 C 0.90027 0.15044 0.17808 0.0
C201 C 0.06868 0.2816 0.13398 0.0
C202 C 0.03863 0.27095 0.12523 0.0
C203 C 0.05893 0.27646 0.14625 0.0
C204 C 0.01905 0.26105 0.15 0.0
C205 C 0.98905 0.25017 0.14126 0.0
C206 C 0.9987 0.25505 0.12902 0.0
C207 C 0.00839 0.25596 0.16301 0.0
C208 C 0.97888 0.21808 0.16711 0.0
C209 C 0.02753 0.28781 0.17137 0.0
C210 C 0.05726 0.32909 0.16756 0.0
C211 C 0.04739 0.34904 0.15877 0.0
C212 C 0.07566 0.38781 0.15516 0.0
C213 C 0.11382 0.40708 0.16034 0.0
C214 C 0.12374 0.38765 0.16917 0.0
C215 C 0.0956 0.34885 0.1728 0.0
H216 H 0.13566 0.4371 0.15753 0.0
H217 H 0.86006 0.06184 0.19317 0.0
H218 H 0.7336 0.97331 0.45561 0.0
H219 H 0.72516 0.95655 0.47697 0.0
H220 H 0.78867 0.08228 0.48608 0.0
H221 H 0.79779 0.09947 0.4646 0.0
H222 H 0.81323 0.0406 0.4998 0.0
H223 H 0.68774 0.02847 0.4889 0.0
H224 H 0.62653 0.00554 0.4768 0.0
H225 H 0.59028 0.8831 0.48503 0.0
H226 H 0.65161 0.90535 0.49711 0.0
H227 H 0.7563 0.0215 0.56094 0.0
H228 H 0.76472 0.03697 0.53951 0.0
H229 H 0.70411 0.91076 0.53108 0.0
H230 H 0.69504 0.8948 0.55267 0.0
H231 H 0.67827 0.95198 0.51699 0.0
H232 H 0.80478 0.96635 0.5287 0.0
H233 H 0.86575 0.99161 0.54112 0.0
H234 H 0.89983 0.11258 0.5316 0.0
H235 H 0.83876 0.08808 0.51925 0.0
C236 C 0.74579 0.99752 0.46212 0.0
C237 C 0.76627 0.0378 0.45837 0.0
C238 C 0.74077 0.98782 0.47436 0.0
C239 C 0.75582 0.01814 0.48313 0.0
C240 C 0.77672 0.0584 0.47945 0.0
C241 C 0.7818 0.06818 0.46718 0.0
C242 C 0.74993 0.00757 0.49613 0.0
C243 C 0.78369 0.02168 0.5036 0.0
C244 C 0.71144 0.98213 0.50102 0.0
C245 C 0.67445 0.96857 0.49381 0.0
C246 C 0.66687 0.99664 0.48805 0.0
C247 C 0.6321 0.98376 0.48121 0.0
C248 C 0.60456 0.94286 0.4801 0.0
C249 C 0.61167 0.91477 0.48588 0.0
C250 C 0.6464 0.9275 0.49274 0.0
C251 C 0.74473 0.99689 0.55457 0.0
C252 C 0.72512 0.95684 0.55854 0.0
C253 C 0.74975 0.00586 0.5423 0.0
C254 C 0.73557 0.97506 0.5337 0.0
C255 C 0.71543 0.93499 0.53758 0.0
C256 C 0.71036 0.92593 0.54991 0.0
C257 C 0.74157 0.98499 0.52066 0.0
C258 C 0.70781 0.97078 0.51318 0.0
C259 C 0.78006 0.01058 0.51579 0.0
C260 C 0.81701 0.02537 0.52312 0.0
C261 C 0.82513 0.99835 0.52932 0.0
C262 C 0.85974 0.01253 0.53634 0.0
C263 C 0.8866 0.05368 0.53717 0.0
C264 C 0.87898 0.08072 0.53095 0.0
C265 C 0.8444 0.0667 0.52393 0.0
H266 H 0.91337 0.0646 0.54262 0.0
H267 H 0.57765 0.93295 0.47479 0.0
H268 H 0.7032 0.80408 0.79745 0.0
H269 H 0.71265 0.79748 0.81902 0.0
H270 H 0.77358 0.73213 0.81059 0.0
H271 H 0.76393 0.73808 0.78918 0.0
H272 H 0.72083 0.69608 0.82827 0.0
H273 H 0.82564 0.82993 0.81934 0.0
H274 H 0.85393 0.89896 0.81173 0.0
H275 H 0.78347 0.92126 0.83722 0.0
H276 H 0.75436 0.85214 0.84489 0.0
H277 H 0.80684 0.70398 0.88577 0.0
H278 H 0.79847 0.7126 0.86427 0.0
H279 H 0.73755 0.77757 0.8732 0.0
H280 H 0.7462 0.76965 0.89458 0.0
H281 H 0.78991 0.81404 0.85532 0.0
H282 H 0.68545 0.67979 0.86429 0.0
H283 H 0.65763 0.61071 0.87184 0.0
H284 H 0.72807 0.58919 0.84612 0.0
H285 H 0.75673 0.65836 0.83853 0.0
C286 C 0.7186 0.78832 0.8002 0.0
C287 C 0.73282 0.77167 0.79157 0.0
C288 C 0.72412 0.7847 0.81253 0.0
C289 C 0.74409 0.76453 0.81642 0.0
C290 C 0.75803 0.74774 0.80781 0.0
C291 C 0.75256 0.75132 0.79555 0.0
C292 C 0.75038 0.76049 0.82944 0.0
C293 C 0.73634 0.72192 0.83416 0.0
C294 C 0.76996 0.79412 0.83716 0.0
C295 C 0.78751 0.83573 0.8326 0.0
C296 C 0.81593 0.84945 0.82325 0.0
C297 C 0.83216 0.88862 0.81894 0.0
C298 C 0.82041 0.91445 0.82395 0.0
C299 C 0.79249 0.9012 0.83333 0.0
C300 C 0.77615 0.86204 0.83767 0.0
C301 C 0.79175 0.72016 0.88315 0.0
C302 C 0.77706 0.73595 0.89191 0.0
C303 C 0.78686 0.72496 0.87086 0.0
C304 C 0.76702 0.74541 0.86713 0.0
C305 C 0.75295 0.76171 0.87586 0.0
C306 C 0.75782 0.75697 0.8881 0.0
C307 C 0.76045 0.74963 0.85414 0.0
C308 C 0.77439 0.78822 0.84943 0.0
C309 C 0.74084 0.71601 0.84641 0.0
C310 C 0.72353 0.67438 0.85093 0.0
C311 C 0.69523 0.66043 0.86031 0.0
C312 C 0.67927 0.62124 0.86458 0.0
C313 C 0.69115 0.59562 0.85948 0.0
C314 C 0.71894 0.6091 0.85008 0.0
C315 C 0.73503 0.64827 0.84578 0.0
H316 H 0.67876 0.56529 0.8628 0.0
H317 H 0.83302 0.94476 0.8206 0.0
H318 H 0.03428 0.78519 0.12178 0.0
H319 H 0.05029 0.79195 0.1432 0.0
H320 H 0.92714 0.70645 0.15144 0.0
H321 H 0.91057 0.7002 0.12992 0.0
H322 H 0.95549 0.76699 0.16691 0.0
H323 H 1.00076 0.68009 0.15181 0.0
H324 H 0.03743 0.65887 0.13824 0.0
H325 H 0.14887 0.76071 0.14906 0.0
H326 H 0.1128 0.78287 0.16257 0.0
H327 H 0.98704 0.72783 0.22669 0.0
H328 H 0.97172 0.72115 0.20524 0.0
H329 H 0.09415 0.80978 0.19738 0.0
H330 H 0.11011 0.81602 0.21898 0.0
H331 H 0.06628 0.74776 0.18174 0.0
H332 H 0.01869 0.83314 0.19734 0.0
H333 H 0.98034 0.85107 0.21127 0.0
H334 H 0.87082 0.74842 0.19966 0.0
H335 H 0.90862 0.72937 0.18581 0.0
C336 C 0.01048 0.76781 0.12813 0.0
C337 C 0.97115 0.74192 0.12412 0.0
C338 C 0.01978 0.77159 0.14039 0.0
C339 C 0.99012 0.74912 0.14893 0.0
C340 C 0.95057 0.72394 0.14501 0.0
C341 C 0.94114 0.72037 0.13271 0.0
C342 C 1.00052 0.7521 0.16195 0.0
C343 C 0.97935 0.76224 0.17017 0.0
C344 C 0.03222 0.7467 0.16619 0.0
C345 C 0.05403 0.73334 0.15812 0.0
C346 C 0.03306 0.69813 0.15123 0.0
C347 C 0.05374 0.6859 0.14356 0.0
C348 C 0.09544 0.70848 0.14277 0.0
C349 C 0.11656 0.74328 0.14967 0.0
C350 C 0.09602 0.75567 0.15734 0.0
C351 C 0.01084 0.74597 0.22043 0.0
C352 C 0.04978 0.77277 0.22457 0.0
C353 C 1.00193 0.74218 0.20815 0.0
C354 C 0.03155 0.76554 0.19971 0.0
C355 C 0.07075 0.79162 0.20375 0.0
C356 C 0.07983 0.79521 0.21609 0.0
C357 C 0.0213 0.76272 0.18669 0.0
C358 C 0.04249 0.75259 0.17847 0.0
C359 C 0.98939 0.76777 0.18246 0.0
C360 C 0.96654 0.77965 0.19061 0.0
C361 C 0.98645 0.81426 0.1978 0.0
C362 C 0.9648 0.82463 0.20569 0.0
C363 C 0.92317 0.80089 0.20637 0.0
C364 C 0.90308 0.76677 0.19913 0.0
C365 C 0.9246 0.75617 0.19126 0.0
H366 H 0.90646 0.80891 0.21251 0.0
H367 H 0.1114 0.69897 0.13682 0.0
H368 H 0.23355 0.978 0.56052 0.0
H369 H 0.22778 0.96433 0.53898 0.0
H370 H 0.29112 0.09121 0.53159 0.0
H371 H 0.29676 0.10536 0.55331 0.0
H372 H 0.22574 0.05015 0.51688 0.0
H373 H 0.33871 0.03842 0.52888 0.0
H374 H 0.37565 0.0144 0.54125 0.0
H375 H 0.29251 0.89299 0.53103 0.0
H376 H 0.2547 0.91624 0.51874 0.0
H377 H 0.26449 0.0324 0.45556 0.0
H378 H 0.27163 0.04828 0.47698 0.0
H379 H 0.20966 0.92219 0.48552 0.0
H380 H 0.20274 0.90587 0.46395 0.0
H381 H 0.27562 0.96427 0.49958 0.0
H382 H 0.16222 0.97607 0.48775 0.0
H383 H 0.12558 1.00023 0.47529 0.0
H384 H 0.20984 0.12172 0.48512 0.0
H385 H 0.24734 0.09832 0.4975 0.0
C386 C 0.24632 0.00315 0.55436 0.0
C387 C 0.26585 0.04286 0.55867 0.0
C388 C 0.24309 0.99521 0.54202 0.0
C389 C 0.25952 0.02671 0.53367 0.0
C390 C 0.27838 0.06644 0.53789 0.0
C391 C 0.28166 0.07448 0.5503 0.0
C392 C 0.25676 0.01778 0.52057 0.0
C393 C 0.23721 0.03192 0.51305 0.0
C394 C 0.27086 0.99315 0.51564 0.0
C395 C 0.29367 0.97906 0.52297 0.0
C396 C 0.32812 0.00657 0.52935 0.0
C397 C 0.34925 0.9931 0.53633 0.0
C398 C 0.33638 0.95219 0.53695 0.0
C399 C 0.30242 0.92467 0.53056 0.0
C400 C 0.28115 0.93799 0.52357 0.0
C401 C 0.25231 0.00791 0.46195 0.0
C402 C 0.23286 0.96779 0.45802 0.0
C403 C 0.2563 0.01711 0.47422 0.0
C404 C 0.24069 0.98645 0.48285 0.0
C405 C 0.2218 0.94633 0.479 0.0
C406 C 0.21779 0.93705 0.46668 0.0
C407 C 0.24445 0.99648 0.49589 0.0
C408 C 0.2642 0.98255 0.5034 0.0
C409 C 0.23055 0.02132 0.5008 0.0
C410 C 0.20781 0.03545 0.49346 0.0
C411 C 0.1731 0.00796 0.48719 0.0
C412 C 0.15216 0.02152 0.48015 0.0
C413 C 0.16544 0.0625 0.47939 0.0
C414 C 0.19962 0.08999 0.4857 0.0
C415 C 0.22071 0.0766 0.49274 0.0
H416 H 0.1492 0.07293 0.47392 0.0
H417 H 0.35278 0.94181 0.54236 0.0
H418 H 0.24943 0.27156 0.79069 0.0
H419 H 0.24335 0.28025 0.81218 0.0
H420 H 0.28893 0.20078 0.82019 0.0
H421 H 0.29502 0.19167 0.79854 0.0
H422 H 0.22236 0.18365 0.83361 0.0
H423 H 0.34817 0.29924 0.82459 0.0
H424 H 0.3957 0.36024 0.8136 0.0
H425 H 0.32515 0.41491 0.82222 0.0
H426 H 0.27696 0.35401 0.8332 0.0
H427 H 0.25945 0.23114 0.89558 0.0
H428 H 0.26653 0.22293 0.87412 0.0
H429 H 0.21851 0.30016 0.86588 0.0
H430 H 0.21137 0.30879 0.88751 0.0
H431 H 0.28663 0.31837 0.85263 0.0
H432 H 0.16109 0.2017 0.86202 0.0
H433 H 0.11542 0.14085 0.87342 0.0
H434 H 0.1872 0.088 0.86425 0.0
H435 H 0.23366 0.14881 0.85294 0.0
C436 C 0.25829 0.25591 0.79699 0.0
C437 C 0.27276 0.23089 0.79288 0.0
C438 C 0.25495 0.2611 0.80929 0.0
C439 C 0.26605 0.2415 0.8178 0.0
C440 C 0.2803 0.21628 0.81377 0.0
C441 C 0.28387 0.21119 0.80141 0.0
C442 C 0.26184 0.24686 0.83086 0.0
C443 C 0.2369 0.21303 0.83781 0.0
C444 C 0.28002 0.28532 0.83627 0.0
C445 C 0.30875 0.32191 0.82962 0.0
C446 C 0.34259 0.32413 0.82405 0.0
C447 C 0.3697 0.35873 0.81784 0.0
C448 C 0.36338 0.3914 0.81718 0.0
C449 C 0.32997 0.38956 0.82274 0.0
C450 C 0.30279 0.35503 0.82897 0.0
C451 C 0.25027 0.24641 0.88925 0.0
C452 C 0.23473 0.27059 0.89328 0.0
C453 C 0.25422 0.24151 0.87696 0.0
C454 C 0.24268 0.26059 0.86841 0.0
C455 C 0.22748 0.28508 0.87236 0.0
C456 C 0.2233 0.28987 0.8847 0.0
C457 C 0.24709 0.25517 0.85536 0.0
C458 C 0.27206 0.289 0.84842 0.0
C459 C 0.22908 0.21669 0.84997 0.0
C460 C 0.20107 0.17998 0.85672 0.0
C461 C 0.16732 0.17724 0.86251 0.0
C462 C 0.14126 0.14273 0.86895 0.0
C463 C 0.14846 0.11062 0.86959 0.0
C464 C 0.18168 0.11292 0.86376 0.0
C465 C 0.20787 0.14738 0.85733 0.0
H466 H 0.12824 0.08393 0.87457 0.0
H467 H 0.38443 0.4182 0.81238 0.0
H468 H 0.06331 0.31556 0.05039 0.0
H469 H 0.08776 0.3232 0.02976 0.0
H470 H 0.19251 0.32088 0.04238 0.0
H471 H 0.16863 0.31456 0.06324 0.0
H472 H 0.21142 0.37206 0.0239 0.0
H473 H 0.1117 0.23687 0.03176 0.0
H474 H 0.04631 0.18243 0.0387 0.0
H475 H 0.98692 0.21227 0.01128 0.0
H476 H 0.05192 0.26777 1.0044 0.0
H477 H 0.24986 0.29847 0.96931 0.0
H478 H 0.23401 0.30793 0.98993 0.0
H479 H 0.13966 0.32715 0.97673 0.0
H480 H 0.15558 0.318 0.95594 0.0
H481 H 0.11643 0.26904 0.99534 0.0
H482 H 0.22053 0.40436 0.98733 0.0
H483 H 0.28779 0.45636 0.98078 0.0
H484 H 0.34117 0.4208 1.00859 0.0
H485 H 0.27423 0.36818 0.0152 0.0
C486 C 0.09183 0.3172 0.0488 0.0
C487 C 0.11385 0.31394 0.05839 0.0
C488 C 0.10572 0.32147 0.037 0.0
C489 C 0.14145 0.32157 0.03449 0.0
C490 C 0.16472 0.32061 0.04411 0.0
C491 C 0.15108 0.31698 0.05601 0.0
C492 C 0.15289 0.3201 0.02179 0.0
C493 C 0.19082 0.34931 0.01769 0.0
C494 C 0.12586 0.29055 0.01365 0.0
C495 C 0.0867 0.25677 0.01764 0.0
C496 C 0.08469 0.23204 0.02726 0.0
C497 C 0.04768 0.20096 0.03118 0.0
C498 C 0.01248 0.19384 0.02543 0.0
C499 C 0.01422 0.21783 0.01574 0.0
C500 C 0.05114 0.24916 0.01184 0.0
C501 C 0.22592 0.30505 0.97076 0.0
C502 C 0.20386 0.30738 0.961 0.0
C503 C 0.21707 0.31064 0.98255 0.0
C504 C 0.18583 0.31843 0.98483 0.0
C505 C 0.16399 0.32127 0.97512 0.0
C506 C 0.17318 0.31618 0.96327 0.0
C507 C 0.17468 0.32128 0.99742 0.0
C508 C 0.13686 0.29201 1.00153 0.0
C509 C 0.20209 0.35026 1.00559 0.0
C510 C 0.24236 0.3821 1.00169 0.0
C511 C 0.24662 0.40742 0.99199 0.0
C512 C 0.28469 0.43704 0.98828 0.0
C513 C 0.31874 0.44182 0.99425 0.0
C514 C 0.31478 0.41705 1.00396 0.0
C515 C 0.27677 0.38735 1.00771 0.0
H516 H 0.34818 0.46477 0.99135 0.0
H517 H 0.98386 0.16972 0.02847 0.0
H518 H 0.74825 0.06496 0.38384 0.0
H519 H 0.76447 0.08885 0.36314 0.0
H520 H 0.87806 0.1869 0.37498 0.0
H521 H 0.861 0.16386 0.39593 0.0
H522 H 0.84935 0.21112 0.35727 0.0
H523 H 0.86949 0.09945 0.3632 0.0
H524 H 0.85153 0.03091 0.36931 0.0
H525 H 0.75627 0.98209 0.34329 0.0
H526 H 0.77329 0.05038 0.33715 0.0
H527 H 0.95438 0.24084 0.30203 0.0
H528 H 0.92961 0.22603 0.32267 0.0
H529 H 0.81208 0.14008 0.30959 0.0
H530 H 0.83671 0.15483 0.28876 0.0
H531 H 0.8409 0.11045 0.32765 0.0
H532 H 0.82676 0.22615 0.32101 0.0
H533 H 0.84983 0.29594 0.31496 0.0
H534 H 0.94067 0.33862 0.34237 0.0
H535 H 0.91851 0.26904 0.34847 0.0
C536 C 0.77649 0.09192 0.38206 0.0
C537 C 0.80363 0.11233 0.39145 0.0
C538 C 0.7858 0.10545 0.37021 0.0
C539 C 0.82297 0.139 0.36745 0.0
C540 C 0.84931 0.16075 0.3769 0.0
C541 C 0.8396 0.14761 0.38884 0.0
C542 C 0.83491 0.14987 0.35466 0.0
C543 C 0.84788 0.18921 0.35083 0.0
C544 C 0.83256 0.12117 0.34619 0.0
C545 C 0.82242 0.08004 0.3498 0.0
C546 C 0.84454 0.0741 0.35884 0.0
C547 C 0.83455 0.0353 0.3623 0.0
C548 C 0.80272 0.00217 0.35671 0.0
C549 C 0.78088 0.00778 0.34762 0.0
C550 C 0.7907 0.04653 0.34414 0.0
C551 C 0.92314 0.21898 0.3035 0.0
C552 C 0.8975 0.19888 0.29375 0.0
C553 C 0.90901 0.21075 0.31532 0.0
C554 C 0.86897 0.18221 0.31765 0.0
C555 C 0.84308 0.16235 0.30795 0.0
C556 C 0.85714 0.17086 0.29607 0.0
C557 C 0.85503 0.17153 0.33026 0.0
C558 C 0.84195 0.13222 0.33407 0.0
C559 C 0.85802 0.20044 0.33872 0.0
C560 C 0.87115 0.24234 0.33514 0.0
C561 C 0.85184 0.2504 0.32569 0.0
C562 C 0.86472 0.28993 0.32226 0.0
C563 C 0.89675 0.32169 0.32826 0.0
C564 C 0.91588 0.31399 0.33772 0.0
C565 C 0.90313 0.27451 0.34118 0.0
H566 H 0.90669 0.35227 0.32559 0.0
H567 H 0.79503 0.97215 0.35941 0.0
H568 H 0.69647 0.74916 0.7162 0.0
H569 H 0.68769 0.76358 0.6954 0.0
H570 H 0.6811 0.86698 0.70722 0.0
H571 H 0.68854 0.85176 0.72823 0.0
H572 H 0.63014 0.83099 0.68926 0.0
H573 H 0.76852 0.87581 0.69595 0.0
H574 H 0.82724 0.87085 0.70227 0.0
H575 H 0.79873 0.77856 0.67595 0.0
H576 H 0.73945 0.78253 0.66959 0.0
H577 H 0.69597 0.94193 0.63444 0.0
H578 H 0.6881 0.91691 0.65504 0.0
H579 H 0.67478 0.80558 0.64175 0.0
H580 H 0.68229 0.83036 0.62098 0.0
H581 H 0.73343 0.84335 0.66013 0.0
H582 H 0.59575 0.80412 0.65283 0.0
H583 H 0.54047 0.81484 0.6465 0.0
H584 H 0.57247 0.90422 0.67405 0.0
H585 H 0.62833 0.89445 0.68043 0.0
C586 C 0.69283 0.77482 0.7144 0.0
C587 C 0.69369 0.79966 0.72383 0.0
C588 C 0.68794 0.78309 0.70249 0.0
C589 C 0.68475 0.81694 0.6997 0.0
C590 C 0.68376 0.84083 0.70915 0.0
C591 C 0.68805 0.83216 0.72114 0.0
C592 C 0.68413 0.82806 0.68692 0.0
C593 C 0.65295 0.83409 0.68292 0.0
C594 C 0.71363 0.83164 0.67859 0.0
C595 C 0.74929 0.82917 0.68238 0.0
C596 C 0.77458 0.85422 0.69157 0.0
C597 C 0.808 0.85162 0.69516 0.0
C598 C 0.81665 0.82433 0.68954 0.0
C599 C 0.79195 0.79964 0.68031 0.0
C600 C 0.75845 0.80206 0.6767 0.0
C601 C 0.69095 0.91193 0.63587 0.0
C602 C 0.68987 0.88812 0.62609 0.0
C603 C 0.68626 0.89763 0.64765 0.0
C604 C 0.68067 0.85936 0.6499 0.0
C605 C 0.67893 0.83517 0.64017 0.0
C606 C 0.68308 0.84928 0.62833 0.0
C607 C 0.67936 0.84594 0.66249 0.0
C608 C 0.7104 0.8398 0.66645 0.0
C609 C 0.65021 0.84305 0.67081 0.0
C610 C 0.61644 0.84876 0.66704 0.0
C611 C 0.5912 0.82628 0.65748 0.0
C612 C 0.55972 0.83215 0.65389 0.0
C613 C 0.55301 0.86026 0.65985 0.0
C614 C 0.57771 0.88248 0.66943 0.0
C615 C 0.60926 0.87675 0.67305 0.0
H616 H 0.52863 0.86476 0.65706 0.0
H617 H 0.84254 0.82237 0.69232 0.0
H618 H 0.84541 0.69429 0.06096 0.0
H619 H 0.82202 0.68474 0.04002 0.0
H620 H 0.93048 0.68787 0.02843 0.0
H621 H 0.95451 0.69906 0.04918 0.0
H622 H 0.91863 0.73439 0.01491 0.0
H623 H 0.83476 0.59952 0.02846 0.0
H624 H 0.7858 0.54588 0.04164 0.0
H625 H 0.69798 0.57973 0.03315 0.0
H626 H 0.74659 0.63394 0.02005 0.0
H627 H 0.85684 0.68453 0.95385 0.0
H628 H 0.8737 0.67567 0.97455 0.0
H629 H 0.77945 0.69432 0.98818 0.0
H630 H 0.76259 0.70333 0.96766 0.0
H631 H 0.78411 0.63273 1.00016 0.0
H632 H 0.87053 0.77034 0.98786 0.0
H633 H 0.91963 0.82351 0.97458 0.0
H634 H 0.00327 0.78246 0.98075 0.0
H635 H 0.95439 0.72863 0.99393 0.0
C636 C 0.86391 0.69235 0.05394 0.0
C637 C 0.90184 0.69765 0.05667 0.0
C638 C 0.85049 0.68674 0.04198 0.0
C639 C 0.87438 0.68533 0.0326 0.0
C640 C 0.91158 0.68908 0.03545 0.0
C641 C 0.92525 0.6954 0.04733 0.0
C642 C 0.86217 0.68281 0.01976 0.0
C643 C 0.88946 0.71158 0.01168 0.0
C644 C 0.82381 0.6537 0.01552 0.0
C645 C 0.79445 0.62102 0.02335 0.0
C646 C 0.8051 0.59571 0.02947 0.0
C647 C 0.77739 0.56517 0.03692 0.0
C648 C 0.73883 0.55946 0.03825 0.0
C649 C 0.72787 0.58421 0.03212 0.0
C650 C 0.75547 0.61482 0.02467 0.0
C651 C 0.83941 0.68619 0.96126 0.0
C652 C 0.80868 0.69503 0.95914 0.0
C653 C 0.84909 0.6812 0.97306 0.0
C654 C 0.82797 0.68465 0.98288 0.0
C655 C 0.79608 0.69153 0.98073 0.0
C656 C 0.78669 0.69692 0.96899 0.0
C657 C 0.84069 0.68402 0.99545 0.0
C658 C 0.81345 0.65498 1.00344 0.0
C659 C 0.87917 0.71269 0.99963 0.0
C660 C 0.90864 0.74518 0.99176 0.0
C661 C 0.89927 0.77244 0.9863 0.0
C662 C 0.92707 0.80274 0.97881 0.0
C663 C 0.9645 0.80629 0.9768 0.0
C664 C 0.97424 0.77962 0.9823 0.0
C665 C 0.9465 0.74923 0.98978 0.0
H666 H 0.98599 0.82977 0.971 0.0
H667 H 0.71742 0.5358 0.04402 0.0
H668 H 0.06209 0.75337 0.30005 0.0
H669 H 0.0841 0.76866 0.32094 0.0
H670 H 0.19288 0.87352 0.30945 0.0
H671 H 0.17141 0.8575 0.28834 0.0
H672 H 0.20779 0.83839 0.328 0.0
H673 H 0.11307 0.88094 0.31973 0.0
H674 H 0.04947 0.87427 0.31254 0.0
H675 H 0.98468 0.78206 0.33869 0.0
H676 H 0.04788 0.78776 0.34593 0.0
H677 H 0.24597 0.95085 0.38236 0.0
H678 H 0.23094 0.92505 0.36178 0.0
H679 H 0.13321 0.81347 0.3748 0.0
H680 H 0.14841 0.83905 0.39558 0.0
H681 H 0.11309 0.8499 0.3558 0.0
H682 H 0.2118 0.81238 0.36471 0.0
H683 H 0.27723 0.82376 0.37189 0.0
H684 H 0.33683 0.91302 0.34455 0.0
H685 H 0.27174 0.90255 0.3373 0.0
C686 C 0.09089 0.77952 0.30194 0.0
C687 C 0.11482 0.80458 0.29257 0.0
C688 C 0.10339 0.78827 0.3139 0.0
C689 C 0.13968 0.82277 0.3168 0.0
C690 C 0.16463 0.84685 0.30743 0.0
C691 C 0.15235 0.83773 0.29538 0.0
C692 C 0.15025 0.83454 0.32962 0.0
C693 C 0.18727 0.84131 0.33404 0.0
C694 C 0.12326 0.83787 0.33757 0.0
C695 C 0.08518 0.8345 0.33329 0.0
C696 C 0.08523 0.85903 0.32389 0.0
C697 C 0.04926 0.85545 0.31981 0.0
C698 C 0.01305 0.82769 0.32513 0.0
C699 C 0.01275 0.80351 0.33457 0.0
C700 C 0.04864 0.80692 0.33866 0.0
C701 C 0.22146 0.92066 0.38088 0.0
C702 C 0.19821 0.897 0.39058 0.0
C703 C 0.21309 0.90592 0.36911 0.0
C704 C 0.18112 0.86733 0.36679 0.0
C705 C 0.15812 0.84332 0.37645 0.0
C706 C 0.16687 0.85788 0.38829 0.0
C707 C 0.17037 0.85338 0.35418 0.0
C708 C 0.13341 0.84655 0.34977 0.0
C709 C 0.19768 0.85069 0.34624 0.0
C710 C 0.23688 0.85688 0.35052 0.0
C711 C 0.23887 0.83466 0.36028 0.0
C712 C 0.27589 0.8409 0.36435 0.0
C713 C 0.31115 0.86912 0.35869 0.0
C714 C 0.30947 0.89115 0.34893 0.0
C715 C 0.27252 0.88503 0.34482 0.0
H716 H 0.33976 0.87383 0.36184 0.0
H717 H 0.98523 0.82497 0.32197 0.0
H718 H 0.29613 0.05096 0.6343 0.0
H719 H 0.30408 0.07307 0.65522 0.0
H720 H 0.31162 0.18386 0.6439 0.0
H721 H 0.30509 0.16231 0.62278 0.0
H722 H 0.36178 0.19805 0.66182 0.0
H723 H 0.22356 0.10441 0.65496 0.0
H724 H 0.165 0.04085 0.64849 0.0
H725 H 0.19364 0.9766 0.67456 0.0
H726 H 0.25277 0.03973 0.68106 0.0
H727 H 0.29562 0.24167 0.71686 0.0
H728 H 0.30308 0.2247 0.69618 0.0
H729 H 0.31746 0.12704 0.70914 0.0
H730 H 0.31039 0.14416 0.73 0.0
H731 H 0.2585 0.1062 0.69075 0.0
H732 H 0.39606 0.20485 0.69822 0.0
H733 H 0.45104 0.2708 0.7047 0.0
H734 H 0.41859 0.32847 0.67741 0.0
H735 H 0.36302 0.26289 0.67087 0.0
C736 C 0.29977 0.08018 0.63624 0.0
C737 C 0.29953 0.10475 0.62692 0.0
C738 C 0.30417 0.09273 0.64822 0.0
C739 C 0.30743 0.12969 0.65118 0.0
C740 C 0.30889 0.15509 0.64184 0.0
C741 C 0.30513 0.14277 0.62979 0.0
C742 C 0.30791 0.14101 0.66402 0.0
C743 C 0.33896 0.17813 0.66811 0.0
C744 C 0.27841 0.11482 0.6723 0.0
C745 C 0.24285 0.07676 0.66841 0.0
C746 C 0.21756 0.07669 0.65925 0.0
C747 C 0.18424 0.04075 0.65558 0.0
C748 C 0.17567 0.0047 0.66109 0.0
C749 C 0.20036 0.00454 0.67029 0.0
C750 C 0.23377 0.0404 0.67397 0.0
C751 C 0.30075 0.21678 0.71534 0.0
C752 C 0.30231 0.19415 0.72506 0.0
C753 C 0.30519 0.20728 0.70352 0.0
C754 C 0.31101 0.17478 0.70115 0.0
C755 C 0.31313 0.15235 0.71082 0.0
C756 C 0.30923 0.16222 0.7227 0.0
C757 C 0.31243 0.16299 0.68853 0.0
C758 C 0.28152 0.12587 0.68447 0.0
C759 C 0.34156 0.1895 0.68026 0.0
C760 C 0.37516 0.22896 0.68412 0.0
C761 C 0.40044 0.23162 0.69366 0.0
C762 C 0.43176 0.26894 0.69733 0.0
C763 C 0.43825 0.30381 0.69149 0.0
C764 C 0.41351 0.30143 0.68194 0.0
C765 C 0.38213 0.26419 0.67823 0.0
H766 H 0.46251 0.33268 0.69435 0.0
H767 H 0.14984 0.9769 0.65824 0.0
H768 H 0.05202 0.67774 0.07132 0.0
H769 H 0.05439 0.61535 0.06979 0.0
H770 H 0.96534 0.56296 0.09783 0.0
H771 H 0.96158 0.6242 0.09896 0.0
H772 H 0.07332 0.57393 0.0833 0.0
H773 H 0.90417 0.46572 0.09402 0.0
H774 H 0.83936 0.46263 0.09076 0.0
H775 H 0.88849 0.54252 0.06062 0.0
H776 H 0.95339 0.54564 0.06359 0.0
H777 H 0.05048 0.38953 0.10059 0.0
H778 H 0.04819 0.4516 0.09931 0.0
H779 H 0.96919 0.40478 0.06857 0.0
H780 H 0.96961 0.3415 0.07032 0.0
H781 H 0.94618 0.44405 0.08089 0.0
H782 H 0.07384 0.47574 0.06617 0.0
H783 H 0.13948 0.47922 0.06595 0.0
H784 H 0.17477 0.55299 0.0977 0.0
H785 H 0.1091 0.5495 0.09821 0.0
C786 C 0.03316 0.65291 0.07718 0.0
C787 C 0.0063 0.65561 0.08516 0.0
C788 C 0.03448 0.61727 0.0763 0.0
C789 C 0.0093 0.58399 0.08348 0.0
C790 C 0.98409 0.58762 0.0919 0.0
C791 C 0.98218 0.62279 0.09261 0.0
C792 C 0.00907 0.54538 0.08223 0.0
C793 C 0.04553 0.54555 0.08273 0.0
C794 C 0.97292 0.50829 0.08104 0.0
C795 C 0.93377 0.50616 0.0791 0.0
C796 C 0.90109 0.48247 0.08666 0.0
C797 C 0.86434 0.48074 0.08487 0.0
C798 C 0.85984 0.50245 0.07551 0.0
C799 C 0.89205 0.52582 0.06789 0.0
C800 C 0.92883 0.52761 0.06963 0.0
C801 C 0.03239 0.39241 0.09362 0.0
C802 C 0.01036 0.36085 0.08552 0.0
C803 C 0.03139 0.42806 0.09281 0.0
C804 C 0.00946 0.43351 0.08362 0.0
C805 C 0.98654 0.40151 0.0757 0.0
C806 C 0.98674 0.36534 0.07671 0.0
C807 C 0.01038 0.47249 0.08237 0.0
C808 C 0.97402 0.4724 0.08137 0.0
C809 C 0.04674 0.50969 0.08256 0.0
C810 C 0.08641 0.5121 0.08227 0.0
C811 C 0.0955 0.4925 0.07315 0.0
C812 C 0.13273 0.4945 0.07297 0.0
C813 C 0.16125 0.51625 0.08182 0.0
C814 C 0.15263 0.53614 0.09085 0.0
C815 C 0.11543 0.5342 0.09108 0.0
H816 H 0.19005 0.51776 0.08166 0.0
H817 H 0.83138 0.5011 0.07415 0.0
H818 H 0.67394 0.07474 0.42262 0.0
H819 H 0.60924 0.07132 0.42161 0.0
H820 H 0.55305 0.94665 0.41145 0.0
H821 H 0.61828 0.94995 0.41226 0.0
H822 H 0.52438 0.98579 0.39816 0.0
H823 H 0.54338 0.97168 0.43984 0.0
H824 H 0.57905 0.98806 0.45927 0.0
H825 H 0.58461 0.10229 0.45962 0.0
H826 H 0.54931 0.08673 0.44008 0.0
H827 H 0.32564 0.93557 0.41448 0.0
H828 H 0.39136 0.94084 0.41339 0.0
H829 H 0.44819 0.06908 0.41762 0.0
H830 H 0.38212 0.06415 0.41854 0.0
H831 H 0.4761 0.02819 0.43365 0.0
H832 H 0.4532 0.0381 0.39151 0.0
H833 H 0.41427 0.01694 0.37263 0.0
H834 H 0.41221 0.90446 0.37395 0.0
H835 H 0.45068 0.92474 0.39295 0.0
C836 C 0.64791 0.04649 0.42017 0.0
C837 C 0.6513 0.0125 0.4176 0.0
C838 C 0.61086 0.0446 0.41962 0.0
C839 C 0.5762 0.00861 0.41662 0.0
C840 C 0.57944 0.97473 0.41382 0.0
C841 C 0.61668 0.97661 0.41433 0.0
C842 C 0.53671 0.00662 0.41654 0.0
C843 C 0.5136 0.99457 0.40597 0.0
C844 C 0.52287 0.01864 0.42668 0.0
C845 C 0.54406 0.0282 0.43843 0.0
C846 C 0.5525 1.00044 0.44401 0.0
C847 C 0.5726 0.00955 0.45506 0.0
C848 C 0.58423 0.04627 0.46067 0.0
C849 C 0.57564 0.07389 0.45526 0.0
C850 C 0.55554 0.06491 0.4442 0.0
C851 C 0.35209 0.96498 0.41512 0.0
C852 C 0.34875 0.99948 0.41663 0.0
C853 C 0.38959 0.9679 0.41444 0.0
C854 C 0.42452 0.00532 0.41538 0.0
C855 C 0.42146 0.03993 0.41686 0.0
C856 C 0.3838 0.0371 0.41734 0.0
C857 C 0.46409 0.00776 0.41525 0.0
C858 C 0.48708 0.01968 0.42582 0.0
C859 C 0.47743 0.99501 0.40519 0.0
C860 C 0.45454 0.98282 0.39372 0.0
C861 C 0.44417 0.00872 0.38783 0.0
C862 C 0.42224 0.99691 0.37709 0.0
C863 C 0.41071 0.95935 0.3721 0.0
C864 C 0.42114 0.93354 0.37783 0.0
C865 C 0.44306 0.9452 0.38858 0.0
H866 H 0.3938 0.95033 0.36378 0.0
H867 H 0.59979 0.05328 0.46923 0.0
H868 H 0.39695 0.32308 0.7537 0.0
H869 H 0.45763 0.38827 0.7529 0.0
H870 H 0.38659 0.44588 0.74955 0.0
H871 H 0.32522 0.38016 0.75008 0.0
H872 H 0.44988 0.48 0.7348 0.0
H873 H 0.42914 0.44493 0.7763 0.0
H874 H 0.41588 0.40173 0.79404 0.0
H875 H 0.52578 0.40136 0.78808 0.0
H876 H 0.5393 0.44392 0.7701 0.0
H877 H 0.60314 0.67418 0.75243 0.0
H878 H 0.54256 0.60866 0.75172 0.0
H879 H 0.61417 0.55133 0.75028 0.0
H880 H 0.67544 0.61722 0.75093 0.0
H881 H 0.55082 0.51762 0.76737 0.0
H882 H 0.5704 0.55526 0.7255 0.0
H883 H 0.58185 0.60034 0.70833 0.0
H884 H 0.47202 0.59889 0.71614 0.0
H885 H 0.46019 0.55427 0.73348 0.0
C886 C 0.39406 0.34954 0.75279 0.0
C887 C 0.35614 0.3464 0.75206 0.0
C888 C 0.42889 0.38687 0.75236 0.0
C889 C 0.42672 0.42206 0.75138 0.0
C890 C 0.38897 0.4191 0.75036 0.0
C891 C 0.35394 0.38157 0.75069 0.0
C892 C 0.46399 0.46178 0.75159 0.0
C893 C 0.47169 0.48842 0.742 0.0
C894 C 0.49279 0.47259 0.7609 0.0
C895 C 0.48504 0.44731 0.77178 0.0
C896 C 0.45035 0.43539 0.77871 0.0
C897 C 0.4428 0.41104 0.78883 0.0
C898 C 0.46994 0.39876 0.79219 0.0
C899 C 0.50475 0.41086 0.78545 0.0
C900 C 0.51237 0.4351 0.77529 0.0
C901 C 0.60617 0.64771 0.75195 0.0
C902 C 0.64419 0.65094 0.75174 0.0
C903 C 0.57143 0.61027 0.75149 0.0
C904 C 0.57388 0.5752 0.75086 0.0
C905 C 0.61171 0.57813 0.75073 0.0
C906 C 0.64663 0.61574 0.75107 0.0
C907 C 0.53674 0.53555 0.75055 0.0
C908 C 0.52904 0.50903 0.76015 0.0
C909 C 0.50772 0.52515 0.74135 0.0
C910 C 0.5146 0.5517 0.73086 0.0
C911 C 0.54884 0.5648 0.72362 0.0
C912 C 0.55537 0.59023 0.71384 0.0
C913 C 0.52773 0.60255 0.71116 0.0
C914 C 0.49343 0.58936 0.71823 0.0
C915 C 0.48677 0.56397 0.72803 0.0
H916 H 0.53285 0.62224 0.70359 0.0
H917 H 0.46404 0.37991 0.80003 0.0
H918 H 0.31985 0.94264 0.59882 0.0
H919 H 0.38094 0.9379 0.59937 0.0
H920 H 0.4526 0.06698 0.59933 0.0
H921 H 0.39207 0.07188 0.5984 0.0
H922 H 0.4833 0.03835 0.58435 0.0
H923 H 0.43727 0.00878 0.62526 0.0
H924 H 0.38902 0.97307 0.64158 0.0
H925 H 0.38187 0.86255 0.63075 0.0
H926 H 0.42969 0.89752 0.61425 0.0
H927 H 0.66893 0.05244 0.60112 0.0
H928 H 0.60782 0.05725 0.6017 0.0
H929 H 0.53615 0.92909 0.59732 0.0
H930 H 0.59668 0.92397 0.59676 0.0
H931 H 0.50611 0.95751 0.61478 0.0
H932 H 0.55237 0.98848 0.57371 0.0
H933 H 0.60166 0.02542 0.55774 0.0
H934 H 0.60951 0.1354 0.56953 0.0
H935 H 0.56064 0.09917 0.58569 0.0
C936 C 0.34864 0.96996 0.59896 0.0
C937 C 0.35108 0.0076 0.59855 0.0
C938 C 0.38356 0.96725 0.59933 0.0
C939 C 0.42147 0.00213 0.59952 0.0
C940 C 0.42379 0.03965 0.59916 0.0
C941 C 0.38906 0.04237 0.59865 0.0
C942 C 0.45888 0.99986 0.59984 0.0
C943 C 0.48844 0.0211 0.59112 0.0
C944 C 0.46545 0.97679 0.60852 0.0
C945 C 0.43674 0.9557 0.61845 0.0
C946 C 0.42517 0.97681 0.6263 0.0
C947 C 0.39794 0.95671 0.63559 0.0
C948 C 0.38231 0.91555 0.63718 0.0
C949 C 0.39396 0.89442 0.62949 0.0
C950 C 0.42114 0.91437 0.62018 0.0
C951 C 0.64015 0.02531 0.60032 0.0
C952 C 0.63772 0.98788 0.59883 0.0
C953 C 0.60529 0.0281 0.60062 0.0
C954 C 0.56747 0.99352 0.59947 0.0
C955 C 0.565 0.95612 0.59822 0.0
C956 C 0.59972 0.95333 0.59785 0.0
C957 C 0.53034 0.99612 0.59934 0.0
C958 C 0.50088 0.97487 0.60806 0.0
C959 C 0.52396 0.01941 0.59073 0.0
C960 C 0.55318 0.04118 0.58098 0.0
C961 C 0.56485 0.02059 0.57296 0.0
C962 C 0.59267 0.04139 0.56386 0.0
C963 C 0.60879 0.08275 0.56264 0.0
C964 C 0.59704 0.10337 0.5705 0.0
C965 C 0.56927 0.08272 0.57962 0.0
H966 H 0.63032 0.0988 0.55559 0.0
H967 H 0.36124 0.90005 0.64438 0.0
H968 H 0.33026 0.399 0.93412 0.0
H969 H 0.3953 0.45994 0.9346 0.0
H970 H 0.45386 0.38934 0.93343 0.0
H971 H 0.38833 0.32769 0.93333 0.0
H972 H 0.4915 0.44974 0.94868 0.0
H973 H 0.44544 0.43739 0.90802 0.0
H974 H 0.39796 0.42835 0.89177 0.0
H975 H 0.39961 0.53618 0.90273 0.0
H976 H 0.44669 0.54557 0.91917 0.0
H977 H 0.68087 0.60557 0.92934 0.0
H978 H 0.61546 0.54508 0.93041 0.0
H979 H 0.55963 0.61691 0.93601 0.0
H980 H 0.62542 0.6781 0.93495 0.0
H981 H 0.52091 0.55656 0.9187 0.0
H982 H 0.56956 0.56876 0.95923 0.0
H983 H 0.6187 0.57723 0.97486 0.0
H984 H 0.6141 0.46858 0.96324 0.0
H985 H 0.56536 0.45976 0.94742 0.0
C986 C 0.35693 0.3963 0.93397 0.0
C987 C 0.35413 0.35846 0.93356 0.0
C988 C 0.39416 0.43127 0.9342 0.0
C989 C 0.42954 0.42934 0.93378 0.0
C990 C 0.42695 0.39158 0.93369 0.0
C991 C 0.38953 0.35639 0.93361 0.0
C992 C 0.46905 0.46684 0.93336 0.0
C993 C 0.4981 0.47283 0.94202 0.0
C994 C 0.47747 0.49742 0.92481 0.0
C995 C 0.44931 0.49198 0.91489 0.0
C996 C 0.43546 0.45902 0.90702 0.0
C997 C 0.40865 0.45386 0.89777 0.0
C998 C 0.3957 0.48162 0.89624 0.0
C999 C 0.40963 0.51467 0.90394 0.0
C1000 C 0.43641 0.51995 0.91322 0.0
C1001 C 0.65477 0.60868 0.93081 0.0
C1002 C 0.65841 0.64676 0.93207 0.0
C1003 C 0.61738 0.57398 0.93147 0.0
C1004 C 0.58277 0.57648 0.93341 0.0
C1005 C 0.58607 0.61438 0.93455 0.0
C1006 C 0.62364 0.64926 0.93397 0.0
C1007 C 0.54315 0.53937 0.93402 0.0
C1008 C 0.51417 0.53346 0.92537 0.0
C1009 C 0.53499 0.50874 0.94249 0.0
C1010 C 0.56406 0.5138 0.95207 0.0
C1011 C 0.57925 0.54684 0.95995 0.0
C1012 C 0.607 0.55167 0.96886 0.0
C1013 C 0.61959 0.52351 0.97003 0.0
C1014 C 0.60436 0.49039 0.96232 0.0
C1015 C 0.57663 0.48544 0.95338 0.0
H1016 H 0.64108 0.52732 0.97693 0.0
H1017 H 0.37494 0.47756 0.88907 0.0
H1018 H 0.95471 0.62055 0.2665 0.0
H1019 H 0.95136 0.55538 0.26745 0.0
H1020 H 0.08003 0.61402 0.26452 0.0
H1021 H 0.08351 0.67883 0.26324 0.0
H1022 H 0.04806 0.55174 0.25043 0.0
H1023 H 0.03007 0.57584 0.29169 0.0
H1024 H 0.99928 0.59159 0.30877 0.0
H1025 H 0.88639 0.48633 0.30125 0.0
H1026 H 0.91639 0.47024 0.28402 0.0
H1027 H 0.06371 0.38032 0.26704 0.0
H1028 H 0.07025 0.44709 0.26763 0.0
H1029 H 0.94176 0.39314 0.26601 0.0
H1030 H 0.93494 0.32673 0.26541 0.0
H1031 H 0.97587 0.45362 0.28299 0.0
H1032 H 0.9949 0.43161 0.24123 0.0
H1033 H 0.02701 0.41617 0.22445 0.0
H1034 H 0.14031 0.51863 0.23353 0.0
H1035 H 0.10895 0.53436 0.25048 0.0
C1036 C 0.98226 0.61951 0.26608 0.0
C1037 C 0.01934 0.65488 0.26479 0.0
C1038 C 0.98035 0.58227 0.26668 0.0
C1039 C 0.01552 0.57979 0.2662 0.0
C1040 C 0.0525 0.6151 0.2649 0.0
C1041 C 0.0544 0.6522 0.26419 0.0
C1042 C 0.01396 0.54047 0.2668 0.0
C1043 C 0.03277 0.53058 0.25766 0.0
C1044 C 0.99352 0.5125 0.27612 0.0
C1045 C 0.9754 0.52206 0.28649 0.0
C1046 C 0.99861 0.55622 0.29362 0.0
C1047 C 0.98131 0.56518 0.30334 0.0
C1048 C 0.94088 0.54004 0.30607 0.0
C1049 C 0.91769 0.50581 0.29911 0.0
C1050 C 0.93483 0.49674 0.28938 0.0
C1051 C 0.0369 0.38273 0.26686 0.0
C1052 C 0.99885 0.34824 0.2661 0.0
C1053 C 0.04067 0.42084 0.26717 0.0
C1054 C 0.00645 0.42499 0.26679 0.0
C1055 C 0.96851 0.39059 0.26631 0.0
C1056 C 0.96473 0.35265 0.26591 0.0
C1057 C 0.00988 0.46508 0.26662 0.0
C1058 C 0.99136 0.47501 0.27583 0.0
C1059 C 0.03083 0.49322 0.25741 0.0
C1060 C 0.04967 0.48389 0.2472 0.0
C1061 C 0.02673 0.45065 0.23971 0.0
C1062 C 0.04478 0.44188 0.23016 0.0
C1063 C 0.0857 0.46633 0.22795 0.0
C1064 C 0.10863 0.49968 0.23527 0.0
C1065 C 0.09073 0.50854 0.24484 0.0
H1066 H 0.09962 0.45951 0.22055 0.0
H1067 H 0.92755 0.54702 0.3136 0.0
H1068 H 0.07449 0.17988 0.0858 0.0
H1069 H 0.06935 0.11439 0.08418 0.0
H1070 H 0.94213 0.0595 0.07821 0.0
H1071 H 0.94696 0.12541 0.07985 0.0
H1072 H 0.96207 0.01976 0.09533 0.0
H1073 H 1.00033 0.06695 0.05479 0.0
H1074 H 0.04106 0.11541 0.03905 0.0
H1075 H 0.14591 0.1151 0.05201 0.0
H1076 H 0.10574 0.06651 0.06782 0.0
H1077 H 0.93364 0.82935 0.08105 0.0
H1078 H 0.93606 0.89369 0.07989 0.0
H1079 H 0.06506 0.95497 0.0819 0.0
H1080 H 0.06286 0.89018 0.08264 0.0
H1081 H 0.04241 0.99118 0.0662 0.0
H1082 H 0.00536 0.94515 0.10686 0.0
H1083 H 0.96555 0.89728 0.12285 0.0
H1084 H 0.86001 0.89729 0.11043 0.0
H1085 H 0.89909 0.94476 0.09426 0.0
C1086 C 0.04534 0.15399 0.0841 0.0
C1087 C 0.01108 0.15791 0.08297 0.0
C1088 C 0.04254 0.11655 0.08311 0.0
C1089 C 0.00545 0.08214 0.08095 0.0
C1090 C 0.97108 0.08577 0.07983 0.0
C1091 C 0.97389 0.12341 0.08075 0.0
C1092 C 0.00271 0.04234 0.08032 0.0
C1093 C 0.97903 0.01318 0.08883 0.0
C1094 C 0.02586 0.03432 0.07207 0.0
C1095 C 0.05009 0.06336 0.06254 0.0
C1096 C 0.03212 0.07742 0.05433 0.0
C1097 C 0.0551 0.10487 0.04539 0.0
C1098 C 0.0961 0.11854 0.04458 0.0
C1099 C 0.11416 0.10455 0.05266 0.0
C1100 C 0.09127 0.07693 0.06159 0.0
C1101 C 0.9626 0.85649 0.08123 0.0
C1102 C 0.99808 0.8547 0.08207 0.0
C1103 C 0.96391 0.89331 0.08061 0.0
C1104 C 1.00068 0.92927 0.08109 0.0
C1105 C 0.0363 0.92762 0.08158 0.0
C1106 C 0.03503 0.89063 0.08202 0.0
C1107 C 1.00173 0.96842 0.08124 0.0
C1108 C 0.02522 0.99757 0.07268 0.0
C1109 C 0.97859 0.97655 0.08951 0.0
C1110 C 0.95509 0.94822 0.09928 0.0
C1111 C 0.97361 0.93474 0.10749 0.0
C1112 C 0.95118 0.9077 0.11659 0.0
C1113 C 0.91026 0.89418 0.11764 0.0
C1114 C 0.8917 0.90775 0.1096 0.0
C1115 C 0.91398 0.93475 0.10047 0.0
H1116 H 0.89295 0.87324 0.12469 0.0
H1117 H 0.11384 0.13987 0.03766 0.0
H1118 H 0.83674 0.97317 0.40161 0.0
H1119 H 0.89904 0.97063 0.40077 0.0
H1120 H 0.93545 0.03282 0.43491 0.0
H1121 H 0.87475 0.03771 0.43529 0.0
H1122 H 0.99568 0.06303 0.422 0.0
H1123 H 0.89845 0.92617 0.43057 0.0
H1124 H 0.83714 0.86092 0.42745 0.0
H1125 H 0.88069 0.84907 0.39295 0.0
H1126 H 0.94207 0.91449 0.3958 0.0
H1127 H 0.11031 0.94494 0.42993 0.0
H1128 H 0.04893 0.94832 0.4295 0.0
H1129 H 0.10552 0.05136 0.40608 0.0
H1130 H 0.16789 0.04895 0.40684 0.0
H1131 H 0.99932 0.93876 0.41293 0.0
H1132 H 0.06506 0.11092 0.41038 0.0
H1133 H 0.12494 0.173 0.41716 0.0
H1134 H 0.14166 0.10865 0.44607 0.0
H1135 H 0.08165 0.04637 0.43955 0.0
C1136 C 0.85801 0.98592 0.40896 0.0
C1137 C 0.85104 0.00553 0.41853 0.0
C1138 C 0.89357 0.9844 0.40851 0.0
C1139 C 0.92205 1.00119 0.41785 0.0
C1140 C 0.91435 0.01992 0.42753 0.0
C1141 C 0.8795 0.02248 0.42779 0.0
C1142 C 0.96027 1.00023 0.41752 0.0
C1143 C 0.99632 0.03576 0.42 0.0
C1144 C 0.96148 0.96471 0.41508 0.0
C1145 C 0.92463 0.9254 0.41334 0.0
C1146 C 0.8948 0.90976 0.42228 0.0
C1147 C 0.86007 0.87274 0.42057 0.0
C1148 C 0.85497 0.85092 0.40999 0.0
C1149 C 0.88465 0.86603 0.40113 0.0
C1150 C 0.91942 0.90306 0.40279 0.0
C1151 C 0.10984 0.96848 0.42471 0.0
C1152 C 0.14403 0.99676 0.41843 0.0
C1153 C 0.07457 0.97026 0.42444 0.0
C1154 C 0.07245 1.00013 0.41779 0.0
C1155 C 0.10652 0.02837 0.41143 0.0
C1156 C 0.14214 0.02695 0.41185 0.0
C1157 C 0.03443 1.00134 0.41759 0.0
C1158 C 0.99854 0.96598 0.41489 0.0
C1159 C 0.03313 0.03656 0.42036 0.0
C1160 C 0.06916 0.07392 0.42438 0.0
C1161 C 0.08149 0.11007 0.4182 0.0
C1162 C 0.11545 0.14528 0.42199 0.0
C1163 C 0.13718 0.14473 0.43201 0.0
C1164 C 0.12491 0.109 0.43828 0.0
C1165 C 0.09097 0.07373 0.43453 0.0
H1166 H 0.16346 0.17201 0.43493 0.0
H1167 H 0.82806 0.82226 0.40869 0.0
H1168 H 0.17473 0.10205 0.75379 0.0
H1169 H 0.10934 0.04156 0.75261 0.0
H1170 H 0.05265 0.11354 0.74981 0.0
H1171 H 0.11848 0.17478 0.75096 0.0
H1172 H 0.01626 0.05028 0.76669 0.0
H1173 H 0.05986 0.06916 0.72538 0.0
H1174 H 0.1072 0.08033 0.7089 0.0
H1175 H 0.10447 0.97044 0.71776 0.0
H1176 H 0.05754 0.9589 0.73442 0.0
H1177 H 0.82406 0.89581 0.75138 0.0
H1178 H 0.88921 0.95656 0.75097 0.0
H1179 H 0.94712 0.88544 0.74925 0.0
H1180 H 0.88141 0.82396 0.74936 0.0
H1181 H 0.98335 0.94859 0.73457 0.0
H1182 H 0.94275 0.92899 0.77572 0.0
H1183 H 0.89745 0.91641 0.79289 0.0
H1184 H 0.89711 0.02566 0.78541 0.0
H1185 H 0.94198 0.0386 0.76806 0.0
C1186 C 0.14845 0.1052 0.75291 0.0
C1187 C 0.15187 0.14334 0.75246 0.0
C1188 C 0.11106 0.0705 0.75219 0.0
C1189 C 0.07619 0.07304 0.75102 0.0
C1190 C 0.07929 0.11098 0.75067 0.0
C1191 C 0.11687 0.14589 0.7513 0.0
C1192 C 0.03659 0.03588 0.75037 0.0
C1193 C 0.00872 0.02834 0.75956 0.0
C1194 C 0.02748 0.00664 0.7413 0.0
C1195 C 0.05544 0.01335 0.73122 0.0
C1196 C 0.06959 0.04753 0.72388 0.0
C1197 C 0.09631 0.0539 0.71449 0.0
C1198 C 0.10891 0.02616 0.7123 0.0
C1199 C 0.09472 0.99192 0.71947 0.0
C1200 C 0.06802 0.98543 0.72888 0.0
C1201 C 0.85057 0.89292 0.75089 0.0
C1202 C 0.84752 0.85495 0.75053 0.0
C1203 C 0.88788 0.92779 0.7507 0.0
C1204 C 0.92314 0.92564 0.75033 0.0
C1205 C 0.9203 0.88783 0.7496 0.0
C1206 C 0.88277 0.85273 0.74969 0.0
C1207 C 0.96277 0.963 0.75086 0.0
C1208 C 0.99073 0.97056 0.74168 0.0
C1209 C 0.97223 0.99205 0.76003 0.0
C1210 C 0.94544 0.98456 0.77051 0.0
C1211 C 0.93278 0.95019 0.77768 0.0
C1212 C 0.90721 0.94302 0.78746 0.0
C1213 C 0.89431 0.97017 0.79023 0.0
C1214 C 0.90708 0.00462 0.78325 0.0
C1215 C 0.93261 0.01191 0.77344 0.0
H1216 H 0.87451 0.96457 0.79781 0.0
H1217 H 0.12962 0.03115 0.70503 0.0
H1218 H 0.81962 0.92515 0.59794 0.0
H1219 H 0.88535 0.93068 0.59894 0.0
H1220 H 0.94092 0.05915 0.6021 0.0
H1221 H 0.87479 0.05392 0.60112 0.0
H1222 H 0.97731 0.03403 0.58499 0.0
H1223 H 0.93524 0.00661 0.62629 0.0
H1224 H 0.8889 0.96946 0.64288 0.0
H1225 H 0.89276 0.86347 0.63313 0.0
H1226 H 0.93868 0.89983 0.61636 0.0
H1227 H 0.17072 0.07205 0.59911 0.0
H1228 H 0.10542 0.06731 0.59992 0.0
H1229 H 0.0481 0.93829 0.60079 0.0
H1230 H 0.11395 0.94283 0.60029 0.0
H1231 H 0.01232 0.96395 0.61607 0.0
H1232 H 0.05177 0.98858 0.57472 0.0
H1233 H 0.09639 0.02333 0.55757 0.0
H1234 H 0.09537 0.13132 0.56658 0.0
H1235 H 0.05118 0.09737 0.5839 0.0
C1236 C 0.84574 0.95467 0.59888 0.0
C1237 C 0.84194 0.98915 0.59945 0.0
C1238 C 0.88331 0.9577 0.59951 0.0
C1239 C 0.91796 0.99526 0.6007 0.0
C1240 C 0.91445 0.02985 0.60122 0.0
C1241 C 0.8767 0.02682 0.60069 0.0
C1242 C 0.95781 0.99818 0.60108 0.0
C1243 C 0.98529 0.01932 0.5919 0.0
C1244 C 0.96755 0.97775 0.60987 0.0
C1245 C 0.94013 0.95587 0.62 0.0
C1246 C 0.92596 0.97529 0.62762 0.0
C1247 C 0.89981 0.95439 0.63707 0.0
C1248 C 0.88781 0.9141 0.63904 0.0
C1249 C 0.90204 0.89467 0.63158 0.0
C1250 C 0.92817 0.91542 0.62212 0.0
C1251 C 0.1443 0.04257 0.59948 0.0
C1252 C 0.14755 0.00775 0.59951 0.0
C1253 C 0.1069 0.03994 0.5999 0.0
C1254 C 0.07177 0.00245 0.60017 0.0
C1255 C 0.07483 0.96756 0.60052 0.0
C1256 C 0.11243 0.97018 0.60021 0.0
C1257 C 0.03201 0.99998 0.59998 0.0
C1258 C 0.00447 0.97882 0.60918 0.0
C1259 C 0.022 0.02004 0.59112 0.0
C1260 C 0.04846 0.04053 0.58068 0.0
C1261 C 0.0613 0.01983 0.5731 0.0
C1262 C 0.08648 0.03936 0.56334 0.0
C1263 C 0.09879 0.07953 0.561 0.0
C1264 C 0.08586 0.10022 0.56841 0.0
C1265 C 0.06071 0.08083 0.57819 0.0
H1266 H 0.11829 0.0946 0.55344 0.0
H1267 H 0.86756 0.89797 0.64636 0.0
H1268 H 0.83142 0.88313 0.93628 0.0
H1269 H 0.8927 0.94881 0.93737 0.0
H1270 H 0.96404 0.89227 0.93212 0.0
H1271 H 0.9034 0.82692 0.93107 0.0
H1272 H 0.99475 0.94898 0.94984 0.0
H1273 H 0.94726 0.9379 0.90899 0.0
H1274 H 0.89767 0.92758 0.89329 0.0
H1275 H 0.89122 0.02909 0.90651 0.0
H1276 H 0.9404 0.03969 0.9224 0.0
H1277 H 0.18147 0.12052 0.93409 0.0
H1278 H 0.12004 0.05498 0.93473 0.0
H1279 H 0.04938 0.11351 0.93577 0.0
H1280 H 0.11019 0.17859 0.93474 0.0
H1281 H 0.01753 0.0555 0.92053 0.0
H1282 H 0.06541 0.06802 0.96117 0.0
H1283 H 0.11422 0.07846 0.97715 0.0
H1284 H 0.11908 0.9751 0.96492 0.0
H1285 H 0.07069 0.96435 0.94877 0.0
C1286 C 0.86017 0.88472 0.9354 0.0
C1287 C 0.86247 0.8498 0.93351 0.0
C1288 C 0.89514 0.92224 0.936 0.0
C1289 C 0.93293 0.92543 0.93473 0.0
C1290 C 0.93524 0.89053 0.93312 0.0
C1291 C 0.90045 0.85318 0.93246 0.0
C1292 C 0.97021 0.96506 0.93483 0.0
C1293 C 0.99995 0.9722 0.94338 0.0
C1294 C 0.97662 0.99557 0.92654 0.0
C1295 C 0.94718 0.98932 0.91696 0.0
C1296 C 0.93502 0.95782 0.90861 0.0
C1297 C 0.90703 0.95196 0.89967 0.0
C1298 C 0.89122 0.97759 0.89892 0.0
C1299 C 0.90345 0.00922 0.90711 0.0
C1300 C 0.9314 0.01518 0.91608 0.0
C1301 C 0.15282 0.11932 0.93452 0.0
C1302 C 0.15072 0.15474 0.93433 0.0
C1303 C 0.1177 0.08187 0.93493 0.0
C1304 C 0.07995 0.07922 0.93541 0.0
C1305 C 0.07802 0.11465 0.93536 0.0
C1306 C 0.11291 0.15191 0.93479 0.0
C1307 C 0.04226 0.03974 0.93561 0.0
C1308 C 0.0124 0.03249 0.92707 0.0
C1309 C 0.03568 0.00925 0.94397 0.0
C1310 C 0.06474 0.01563 0.95368 0.0
C1311 C 0.07712 0.0477 0.96183 0.0
C1312 C 0.10467 0.05364 0.97093 0.0
C1313 C 0.11982 0.02752 0.97203 0.0
C1314 C 0.10737 0.99534 0.96405 0.0
C1315 C 0.07986 0.98929 0.95493 0.0
H1316 H 0.14115 0.03217 0.97908 0.0
H1317 H 0.86956 0.97301 0.89199 0.0
H1318 H 0.94903 0.82335 0.26495 0.0
H1319 H 0.94281 0.88377 0.26596 0.0
H1320 H 0.07131 0.95734 0.26797 0.0
H1321 H 0.07782 0.89755 0.26687 0.0
H1322 H 0.03186 0.98019 0.28447 0.0
H1323 H 0.02905 0.95248 0.24205 0.0
H1324 H 0.00525 0.91225 0.22346 0.0
H1325 H 0.8876 0.89544 0.22914 0.0
H1326 H 0.91079 0.93558 0.24783 0.0
H1327 H 0.05732 0.17204 0.26968 0.0
H1328 H 0.06085 0.11025 0.27051 0.0
H1329 H 0.93347 0.04049 0.26434 0.0
H1330 H 0.92982 0.10174 0.26326 0.0
H1331 H 0.97077 0.01441 0.25047 0.0
H1332 H 0.97512 0.04642 0.29243 0.0
H1333 H 1.00041 0.08894 0.31057 0.0
H1334 H 0.11525 0.09799 0.3059 0.0
H1335 H 0.09079 0.05595 0.28763 0.0
C1336 C 0.97589 0.8524 0.26566 0.0
C1337 C 0.0139 0.85568 0.26576 0.0
C1338 C 0.97232 0.88685 0.2662 0.0
C1339 C 0.00665 0.92501 0.26698 0.0
C1340 C 0.04447 0.92821 0.26738 0.0
C1341 C 0.04809 0.89396 0.26668 0.0
C1342 C 0.00348 0.96184 0.2671 0.0
C1343 C 0.01878 0.9879 0.27701 0.0
C1344 C 0.98582 0.97148 0.25745 0.0
C1345 C 0.97152 0.94659 0.2464 0.0
C1346 C 0.99799 0.93982 0.23941 0.0
C1347 C 0.98463 0.91713 0.22883 0.0
C1348 C 0.94486 0.90112 0.22514 0.0
C1349 C 0.91837 0.90779 0.23203 0.0
C1350 C 0.93162 0.93058 0.2426 0.0
C1351 C 0.03008 0.14352 0.26854 0.0
C1352 C 0.99333 0.14188 0.26639 0.0
C1353 C 0.03209 0.10821 0.26907 0.0
C1354 C 0.99732 0.07065 0.26759 0.0
C1355 C 0.96068 0.06905 0.26549 0.0
C1356 C 0.95868 0.1042 0.26489 0.0
C1357 C 0.99903 0.03294 0.26788 0.0
C1358 C 0.98354 0.00668 0.25801 0.0
C1359 C 0.01647 0.02315 0.27759 0.0
C1360 C 0.03123 0.04836 0.28859 0.0
C1361 C 0.00586 0.05774 0.29521 0.0
C1362 C 0.02003 0.0817 0.30553 0.0
C1363 C 0.05944 0.09624 0.30937 0.0
C1364 C 0.08474 0.08675 0.30291 0.0
C1365 C 0.07073 0.06282 0.29258 0.0
H1366 H 0.07036 0.11479 0.31736 0.0
H1367 H 0.93461 0.88376 0.21692 0.0
loop_
_geom_bond_atom_site_label_1
_geom_bond_atom_site_label_2
_geom_bond_distance
_geom_bond_site_symmetry_2
_ccdc_geom_bond_type
C0 O2 1.247 . S
C0 O4 1.258 1_455 S
C1 O8 1.247 . S
C1 O9 1.258 . S
O2 C0 1.247 . S
O2 Zn3 2.028 . S
Zn3 O2 2.028 . S
Zn3 O7 2.035 . S
Zn3 O9 2.035 . S
Zn3 O10 2.028 . S
O4 C0 1.258 1_655 S
O4 Zn5 2.035 1_655 S
Zn5 O4 2.035 1_455 S
Zn5 O6 2.028 . S
Zn5 O8 2.028 . S
Zn5 O11 2.035 . S
O6 Zn5 2.028 . S
O6 C12 1.247 . S
O7 Zn3 2.035 . S
O7 C12 1.258 . S
O8 C1 1.247 . S
O8 Zn5 2.028 . S
O9 C1 1.258 . S
O9 Zn3 2.035 . S
O10 Zn3 2.028 . S
O10 C13 1.247 . S
O11 Zn5 2.035 . S
O11 C13 1.258 . S
C12 O6 1.247 . S
C12 O7 1.258 . S
C13 O10 1.247 . S
C13 O11 1.258 . S
C14 O16 1.247 . S
C14 O18 1.258 . S
C15 O22 1.247 1_545 S
C15 O23 1.258 . S
O16 C14 1.247 . S
O16 Zn17 2.028 . S
Zn17 O16 2.028 . S
Zn17 O21 2.035 . S
Zn17 O23 2.035 . S
Zn17 O24 2.028 . S
O18 C14 1.258 . S
O18 Zn19 2.035 . S
Zn19 O18 2.035 . S
Zn19 O20 2.028 . S
Zn19 O22 2.028 1_545 S
Zn19 O25 2.035 . S
O20 Zn19 2.028 . S
O20 C26 1.247 . S
O21 Zn17 2.035 . S
O21 C26 1.258 . S
O22 C15 1.247 1_565 S
O22 Zn19 2.028 1_565 S
O23 C15 1.258 . S
O23 Zn17 2.035 . S
O24 Zn17 2.028 . S
O24 C27 1.247 . S
O25 Zn19 2.035 . S
O25 C27 1.258 . S
C26 O20 1.247 . S
C26 O21 1.258 . S
C27 O24 1.247 . S
C27 O25 1.258 . S
C28 O30 1.247 . S
C28 O32 1.258 . S
C29 O36 1.247 . S
C29 O37 1.258 . S
O30 C28 1.247 . S
O30 Zn31 2.028 . S
Zn31 O30 2.028 . S
Zn31 O35 2.035 . S
Zn31 O37 2.035 . S
Zn31 O38 2.028 . S
O32 C28 1.258 . S
O32 Zn33 2.035 . S
Zn33 O32 2.035 . S
Zn33 O34 2.028 . S
Zn33 O36 2.028 . S
Zn33 O39 2.035 . S
O34 Zn33 2.028 . S
O34 C40 1.247 . S
O35 Zn31 2.035 . S
O35 C40 1.258 . S
O36 C29 1.247 . S
O36 Zn33 2.028 . S
O37 C29 1.258 . S
O37 Zn31 2.035 . S
O38 Zn31 2.028 . S
O38 C41 1.247 . S
O39 Zn33 2.035 . S
O39 C41 1.258 . S
C40 O34 1.247 . S
C40 O35 1.258 . S
C41 O38 1.247 . S
C41 O39 1.258 . S
C42 O44 1.247 . S
C42 O46 1.258 . S
C43 O50 1.247 . S
C43 O51 1.258 . S
O44 C42 1.247 . S
O44 Zn45 2.017 . S
Zn45 O44 2.017 . S
Zn45 O49 2.049 . S
Zn45 O51 2.057 . S
Zn45 O52 2.026 1_655 S
O46 C42 1.258 . S
O46 Zn47 2.035 . S
Zn47 O46 2.035 . S
Zn47 O48 2.028 . S
Zn47 O50 2.028 . S
Zn47 O53 2.035 . S
O48 Zn47 2.028 . S
O48 C54 1.247 . S
O49 Zn45 2.049 . S
O49 C54 1.258 . S
O50 C43 1.247 . S
O50 Zn47 2.028 . S
O51 C43 1.258 . S
O51 Zn45 2.057 . S
O52 Zn45 2.026 1_455 S
O52 C55 1.247 1_455 S
O53 Zn47 2.035 . S
O53 C55 1.258 . S
C54 O48 1.247 . S
C54 O49 1.258 . S
C55 O52 1.247 1_655 S
C55 O53 1.258 . S
C56 O58 1.247 . S
C56 O60 1.258 . S
C57 O64 1.247 . S
C57 O65 1.258 . S
O58 C56 1.247 . S
O58 Zn59 2.028 . S
Zn59 O58 2.028 . S
Zn59 O63 2.035 1_565 S
Zn59 O65 2.035 . S
Zn59 O66 2.028 . S
O60 C56 1.258 . S
O60 Zn61 2.035 . S
Zn61 O60 2.035 . S
Zn61 O62 2.028 . S
Zn61 O64 2.028 . S
Zn61 O67 2.035 . S
O62 Zn61 2.028 . S
O62 C68 1.247 . S
O63 Zn59 2.035 1_545 S
O63 C68 1.258 1_545 S
O64 C57 1.247 . S
O64 Zn61 2.028 . S
O65 C57 1.258 . S
O65 Zn59 2.035 . S
O66 Zn59 2.028 . S
O66 C69 1.247 . S
O67 Zn61 2.035 . S
O67 C69 1.258 . S
C68 O62 1.247 . S
C68 O63 1.258 1_565 S
C69 O66 1.247 . S
C69 O67 1.258 . S
C70 O72 1.247 . S
C70 O74 1.258 . S
C71 O78 1.247 . S
C71 O79 1.258 . S
O72 C70 1.247 . S
O72 Zn73 2.028 . S
Zn73 O72 2.028 . S
Zn73 O77 2.035 . S
Zn73 O79 2.035 . S
Zn73 O80 2.028 . S
O74 C70 1.258 . S
O74 Zn75 2.035 . S
Zn75 O74 2.035 . S
Zn75 O76 2.028 . S
Zn75 O78 2.028 . S
Zn75 O81 2.035 . S
O76 Zn75 2.028 . S
O76 C82 1.247 . S
O77 Zn73 2.035 . S
O77 C82 1.258 . S
O78 C71 1.247 . S
O78 Zn75 2.028 . S
O79 C71 1.258 . S
O79 Zn73 2.035 . S
O80 Zn73 2.028 . S
O80 C83 1.247 . S
O81 Zn75 2.035 . S
O81 C83 1.258 . S
C82 O76 1.247 . S
C82 O77 1.258 . S
C83 O80 1.247 . S
C83 O81 1.258 . S
C84 O86 1.247 . S
C84 O88 1.258 . S
C85 O92 1.247 . S
C85 O93 1.258 . S
O86 C84 1.247 . S
O86 Zn87 2.028 . S
Zn87 O86 2.028 . S
Zn87 O91 2.035 . S
Zn87 O93 2.035 . S
Zn87 O94 2.028 1_565 S
O88 C84 1.258 . S
O88 Zn89 2.035 . S
Zn89 O88 2.035 . S
Zn89 O90 2.028 . S
Zn89 O92 2.028 . S
Zn89 O95 2.035 . S
O90 Zn89 2.028 . S
O90 C96 1.247 . S
O91 Zn87 2.035 . S
O91 C96 1.258 . S
O92 C85 1.247 . S
O92 Zn89 2.028 . S
O93 C85 1.258 . S
O93 Zn87 2.035 . S
O94 Zn87 2.028 1_545 S
O94 C97 1.247 1_545 S
O95 Zn89 2.035 . S
O95 C97 1.258 . S
C96 O90 1.247 . S
C96 O91 1.258 . S
C97 O94 1.247 1_565 S
C97 O95 1.258 . S
C98 O100 1.247 . S
C98 O102 1.258 . S
C99 O106 1.247 . S
C99 O107 1.258 . S
O100 C98 1.247 . S
O100 Zn101 2.028 . S
Zn101 O100 2.028 . S
Zn101 O105 2.035 . S
Zn101 O107 2.035 . S
Zn101 O108 2.028 . S
O102 C98 1.258 . S
O102 Zn103 2.035 . S
Zn103 O102 2.035 . S
Zn103 O104 2.028 . S
Zn103 O106 2.028 . S
Zn103 O109 2.035 . S
O104 Zn103 2.028 . S
O104 C110 1.247 . S
O105 Zn101 2.035 . S
O105 C110 1.258 . S
O106 C99 1.247 . S
O106 Zn103 2.028 . S
O107 C99 1.258 . S
O107 Zn101 2.035 . S
O108 Zn101 2.028 . S
O108 C111 1.247 . S
O109 Zn103 2.035 . S
O109 C111 1.258 . S
C110 O104 1.247 . S
C110 O105 1.258 . S
C111 O108 1.247 . S
C111 O109 1.258 . S
C112 O114 1.247 . S
C112 O116 1.258 . S
C113 O120 1.247 1_455 S
C113 O121 1.258 . S
O114 C112 1.247 . S
O114 Zn115 2.028 . S
Zn115 O114 2.028 . S
Zn115 O119 2.035 . S
Zn115 O121 2.035 . S
Zn115 O122 2.028 . S
O116 C112 1.258 . S
O116 Zn117 2.035 . S
Zn117 O116 2.035 . S
Zn117 O118 2.028 . S
Zn117 O120 2.028 1_455 S
Zn117 O123 2.035 . S
O118 Zn117 2.028 . S
O118 C124 1.247 . S
O119 Zn115 2.035 . S
O119 C124 1.258 . S
O120 C113 1.247 1_655 S
O120 Zn117 2.028 1_655 S
O121 C113 1.258 . S
O121 Zn115 2.035 . S
O122 Zn115 2.028 . S
O122 C125 1.247 . S
O123 Zn117 2.035 . S
O123 C125 1.258 . S
C124 O118 1.247 . S
C124 O119 1.258 . S
C125 O122 1.247 . S
C125 O123 1.258 . S
C126 O128 1.247 . S
C126 O130 1.258 . S
C127 O134 1.247 1_545 S
C127 O135 1.258 . S
O128 C126 1.247 . S
O128 Zn129 2.028 . S
Zn129 O128 2.028 . S
Zn129 O133 2.035 . S
Zn129 O135 2.035 . S
Zn129 O136 2.028 . S
O130 C126 1.258 . S
O130 Zn131 2.035 . S
Zn131 O130 2.035 . S
Zn131 O132 2.028 . S
Zn131 O134 2.028 1_545 S
Zn131 O137 2.035 . S
O132 Zn131 2.028 . S
O132 C138 1.247 . S
O133 Zn129 2.035 . S
O133 C138 1.258 . S
O134 C127 1.247 1_565 S
O134 Zn131 2.028 1_565 S
O135 C127 1.258 . S
O135 Zn129 2.035 . S
O136 Zn129 2.028 . S
O136 C139 1.247 . S
O137 Zn131 2.035 . S
O137 C139 1.258 . S
C138 O132 1.247 . S
C138 O133 1.258 . S
C139 O136 1.247 . S
C139 O137 1.258 . S
C140 O142 1.247 . S
C140 O144 1.258 . S
C141 O148 1.247 . S
C141 O149 1.258 . S
O142 C140 1.247 . S
O142 Zn143 2.028 . S
Zn143 O142 2.028 . S
Zn143 O147 2.035 . S
Zn143 O149 2.035 . S
Zn143 O150 2.028 . S
O144 C140 1.258 . S
O144 Zn145 2.035 . S
Zn145 O144 2.035 . S
Zn145 O146 2.028 . S
Zn145 O148 2.028 . S
Zn145 O151 2.035 . S
O146 Zn145 2.028 . S
O146 C152 1.247 . S
O147 Zn143 2.035 . S
O147 C152 1.258 . S
O148 C141 1.247 . S
O148 Zn145 2.028 . S
O149 C141 1.258 . S
O149 Zn143 2.035 . S
O150 Zn143 2.028 . S
O150 C153 1.247 . S
O151 Zn145 2.035 . S
O151 C153 1.258 . S
C152 O146 1.247 . S
C152 O147 1.258 . S
C153 O150 1.247 . S
C153 O151 1.258 . S
C154 O156 1.247 . S
C154 O158 1.258 1_655 S
C155 O162 1.247 . S
C155 O163 1.258 . S
O156 C154 1.247 . S
O156 Zn157 2.028 . S
Zn157 O156 2.028 . S
Zn157 O161 2.035 . S
Zn157 O163 2.035 . S
Zn157 O164 2.028 . S
O158 C154 1.258 1_455 S
O158 Zn159 2.035 1_455 S
Zn159 O158 2.035 1_655 S
Zn159 O160 2.028 . S
Zn159 O162 2.028 . S
Zn159 O165 2.035 . S
O160 Zn159 2.028 . S
O160 C166 1.247 . S
O161 Zn157 2.035 . S
O161 C166 1.258 . S
O162 C155 1.247 . S
O162 Zn159 2.028 . S
O163 C155 1.258 . S
O163 Zn157 2.035 . S
O164 Zn157 2.028 . S
O164 C167 1.247 . S
O165 Zn159 2.035 . S
O165 C167 1.258 . S
C166 O160 1.247 . S
C166 O161 1.258 . S
C167 O164 1.247 . S
C167 O165 1.258 . S
H168 C186 0.951 . S
H169 C188 0.951 . S
H170 C190 0.932 1_455 S
H171 C191 0.950 . S
H172 C193 0.950 . S
H173 C196 0.950 . S
H174 C197 0.950 . S
H175 C199 0.950 . S
H176 C200 0.950 . S
H177 C201 0.951 . S
H178 C203 0.951 . S
H179 C205 0.932 1_655 S
H180 C206 0.950 . S
H181 C208 0.950 . S
H182 C211 0.950 . S
H183 C212 0.950 . S
H184 C214 0.950 . S
H185 C215 0.950 . S
C186 H168 0.951 . S
C186 C187 1.366 . S
C186 C188 1.388 . S
C187 C186 1.366 . S
C187 C191 1.385 . S
C188 H169 0.951 . S
C188 C186 1.388 . S
C188 C189 1.366 . S
C189 C188 1.366 . S
C189 C190 1.414 . S
C189 C192 1.499 . S
C190 H170 0.932 1_655 S
C190 C189 1.414 . S
C190 C191 1.374 . S
C191 H171 0.950 . S
C191 C187 1.385 . S
C191 C190 1.374 . S
C192 C189 1.499 . S
C192 C193 1.373 1_655 S
C192 C194 1.389 . S
C193 H172 0.950 . S
C193 C192 1.373 1_455 S
C193 C209 1.377 . S
C194 C192 1.389 . S
C194 C195 1.524 . S
C194 C208 1.377 . S
C195 C194 1.524 . S
C195 C196 1.397 . S
C195 C200 1.363 . S
C196 H173 0.950 . S
C196 C195 1.397 . S
C196 C197 1.334 . S
C197 H174 0.950 . S
C197 C196 1.334 . S
C197 C198 1.287 . S
C198 C197 1.287 . S
C198 C199 1.524 . S
C198 H217 0.913 . S
C199 H175 0.950 . S
C199 C198 1.524 . S
C199 C200 1.415 . S
C200 H176 0.950 . S
C200 C195 1.363 . S
C200 C199 1.415 . S
C201 H177 0.951 . S
C201 C202 1.366 . S
C201 C203 1.388 . S
C202 C201 1.366 . S
C202 C206 1.385 . S
C203 H178 0.951 . S
C203 C201 1.388 . S
C203 C204 1.366 . S
C204 C203 1.366 . S
C204 C205 1.414 . S
C204 C207 1.499 . S
C205 H179 0.932 1_455 S
C205 C204 1.414 . S
C205 C206 1.374 . S
C206 H180 0.950 . S
C206 C202 1.385 . S
C206 C205 1.374 . S
C207 C204 1.499 . S
C207 C208 1.373 1_455 S
C207 C209 1.389 . S
C208 H181 0.950 . S
C208 C194 1.377 . S
C208 C207 1.373 1_655 S
C209 C193 1.377 . S
C209 C207 1.389 . S
C209 C210 1.524 . S
C210 C209 1.524 . S
C210 C211 1.397 . S
C210 C215 1.363 . S
C211 H182 0.950 . S
C211 C210 1.397 . S
C211 C212 1.334 . S
C212 H183 0.950 . S
C212 C211 1.334 . S
C212 C213 1.287 . S
C213 C212 1.287 . S
C213 C214 1.524 . S
C213 H216 0.999 . S
C214 H184 0.950 . S
C214 C213 1.524 . S
C214 C215 1.415 . S
C215 H185 0.950 . S
C215 C210 1.363 . S
C215 C214 1.415 . S
H216 C213 0.999 . S
H217 C198 0.913 . S
H218 C236 0.951 1_565 S
H219 C238 0.951 . S
H220 C240 0.950 . S
H221 C241 0.950 . S
H222 C243 0.950 . S
H223 C246 0.950 . S
H224 C247 0.950 . S
H225 C249 0.950 . S
H226 C250 0.950 . S
H227 C251 0.951 1_545 S
H228 C253 0.951 . S
H229 C255 0.950 . S
H230 C256 0.950 . S
H231 C258 0.950 . S
H232 C261 0.950 . S
H233 C262 0.950 . S
H234 C264 0.950 . S
H235 C265 0.950 . S
C236 H218 0.951 1_545 S
C236 C237 1.366 . S
C236 C238 1.388 1_545 S
C237 C236 1.366 . S
C237 C241 1.385 . S
C238 H219 0.951 . S
C238 C236 1.388 1_565 S
C238 C239 1.366 1_565 S
C239 C238 1.366 1_545 S
C239 C240 1.414 . S
C239 C242 1.499 . S
C240 H220 0.950 . S
C240 C239 1.414 . S
C240 C241 1.374 . S
C241 H221 0.950 . S
C241 C237 1.385 . S
C241 C240 1.374 . S
C242 C239 1.499 . S
C242 C243 1.373 . S
C242 C244 1.389 1_545 S
C243 H222 0.950 . S
C243 C242 1.373 . S
C243 C259 1.377 . S
C244 C242 1.389 1_565 S
C244 C245 1.524 . S
C244 C258 1.377 . S
C245 C244 1.524 . S
C245 C246 1.397 . S
C245 C250 1.363 . S
C246 H223 0.950 . S
C246 C245 1.397 . S
C246 C247 1.334 . S
C247 H224 0.950 . S
C247 C246 1.334 . S
C247 C248 1.287 . S
C248 C247 1.287 . S
C248 C249 1.524 . S
C248 H267 0.913 . S
C249 H225 0.950 . S
C249 C248 1.524 . S
C249 C250 1.415 . S
C250 H226 0.950 . S
C250 C245 1.363 . S
C250 C249 1.415 . S
C251 H227 0.951 1_565 S
C251 C252 1.366 . S
C251 C253 1.388 1_565 S
C252 C251 1.366 . S
C252 C256 1.385 . S
C253 H228 0.951 . S
C253 C251 1.388 1_545 S
C253 C254 1.366 1_545 S
C254 C253 1.366 1_565 S
C254 C255 1.414 . S
C254 C257 1.499 . S
C255 H229 0.950 . S
C255 C254 1.414 . S
C255 C256 1.374 . S
C256 H230 0.950 . S
C256 C252 1.385 . S
C256 C255 1.374 . S
C257 C254 1.499 . S
C257 C258 1.373 . S
C257 C259 1.389 1_565 S
C258 H231 0.950 . S
C258 C244 1.377 . S
C258 C257 1.373 . S
C259 C243 1.377 . S
C259 C257 1.389 1_545 S
C259 C260 1.524 . S
C260 C259 1.524 . S
C260 C261 1.397 . S
C260 C265 1.363 . S
C261 H232 0.950 . S
C261 C260 1.397 . S
C261 C262 1.334 . S
C262 H233 0.950 . S
C262 C261 1.334 . S
C262 C263 1.287 . S
C263 C262 1.287 . S
C263 C264 1.524 . S
C263 H266 0.999 . S
C264 H234 0.950 . S
C264 C263 1.524 . S
C264 C265 1.415 . S
C265 H235 0.950 . S
C265 C260 1.363 . S
C265 C264 1.415 . S
H266 C263 0.999 . S
H267 C248 0.913 . S
H268 C286 0.951 . S
H269 C288 0.951 . S
H270 C290 0.950 . S
H271 C291 0.950 . S
H272 C293 0.950 . S
H273 C296 0.950 . S
H274 C297 0.950 . S
H275 C299 0.950 . S
H276 C300 0.950 . S
H277 C301 0.951 . S
H278 C303 0.951 . S
H279 C305 0.950 . S
H280 C306 0.950 . S
H281 C308 0.950 . S
H282 C311 0.950 . S
H283 C312 0.950 . S
H284 C314 0.950 . S
H285 C315 0.950 . S
C286 H268 0.951 . S
C286 C287 1.366 . S
C286 C288 1.388 . S
C287 C286 1.366 . S
C287 C291 1.385 . S
C288 H269 0.951 . S
C288 C286 1.388 . S
C288 C289 1.366 . S
C289 C288 1.366 . S
C289 C290 1.414 . S
C289 C292 1.499 . S
C290 H270 0.950 . S
C290 C289 1.414 . S
C290 C291 1.374 . S
C291 H271 0.950 . S
C291 C287 1.385 . S
C291 C290 1.374 . S
C292 C289 1.499 . S
C292 C293 1.373 . S
C292 C294 1.389 . S
C293 H272 0.950 . S
C293 C292 1.373 . S
C293 C309 1.377 . S
C294 C292 1.389 . S
C294 C295 1.524 . S
C294 C308 1.377 . S
C295 C294 1.524 . S
C295 C296 1.397 . S
C295 C300 1.363 . S
C296 H273 0.950 . S
C296 C295 1.397 . S
C296 C297 1.334 . S
C297 H274 0.950 . S
C297 C296 1.334 . S
C297 C298 1.287 . S
C298 C297 1.287 . S
C298 C299 1.524 . S
C298 H317 0.913 . S
C299 H275 0.950 . S
C299 C298 1.524 . S
C299 C300 1.415 . S
C300 H276 0.950 . S
C300 C295 1.363 . S
C300 C299 1.415 . S
C301 H277 0.951 . S
C301 C302 1.366 . S
C301 C303 1.388 . S
C302 C301 1.366 . S
C302 C306 1.385 . S
C303 H278 0.951 . S
C303 C301 1.388 . S
C303 C304 1.366 . S
C304 C303 1.366 . S
C304 C305 1.414 . S
C304 C307 1.499 . S
C305 H279 0.950 . S
C305 C304 1.414 . S
C305 C306 1.374 . S
C306 H280 0.950 . S
C306 C302 1.385 . S
C306 C305 1.374 . S
C307 C304 1.499 . S
C307 C308 1.373 . S
C307 C309 1.389 . S
C308 H281 0.950 . S
C308 C294 1.377 . S
C308 C307 1.373 . S
C309 C293 1.377 . S
C309 C307 1.389 . S
C309 C310 1.524 . S
C310 C309 1.524 . S
C310 C311 1.397 . S
C310 C315 1.363 . S
C311 H282 0.950 . S
C311 C310 1.397 . S
C311 C312 1.334 . S
C312 H283 0.950 . S
C312 C311 1.334 . S
C312 C313 1.287 . S
C313 C312 1.287 . S
C313 C314 1.524 . S
C313 H316 0.999 . S
C314 H284 0.950 . S
C314 C313 1.524 . S
C314 C315 1.415 . S
C315 H285 0.950 . S
C315 C310 1.363 . S
C315 C314 1.415 . S
H316 C313 0.999 . S
H317 C298 0.913 . S
H318 C336 0.959 1_455 S
H319 C338 0.949 . S
H320 C340 0.950 . S
H321 C341 0.950 . S
H322 C343 0.950 . S
H323 C346 0.950 . S
H324 C347 0.950 . S
H325 C349 0.950 . S
H326 C350 0.950 . S
H327 C351 0.958 1_655 S
H328 C353 0.949 . S
H329 C355 0.950 . S
H330 C356 0.950 . S
H331 C358 0.950 . S
H332 C361 0.950 . S
H333 C362 0.950 . S
H334 C364 0.950 . S
H335 C365 0.950 . S
C336 H318 0.959 1_655 S
C336 C337 1.366 . S
C336 C338 1.386 1_655 S
C337 C336 1.366 . S
C337 C341 1.385 . S
C338 H319 0.949 . S
C338 C336 1.386 1_455 S
C338 C339 1.369 1_455 S
C339 C338 1.369 1_655 S
C339 C340 1.414 . S
C339 C342 1.499 . S
C340 H320 0.950 . S
C340 C339 1.414 . S
C340 C341 1.374 . S
C341 H321 0.950 . S
C341 C337 1.385 . S
C341 C340 1.374 . S
C342 C339 1.499 . S
C342 C343 1.373 . S
C342 C344 1.389 1_655 S
C343 H322 0.950 . S
C343 C342 1.373 . S
C343 C359 1.377 . S
C344 C342 1.389 1_455 S
C344 C345 1.524 . S
C344 C358 1.377 . S
C345 C344 1.524 . S
C345 C346 1.397 . S
C345 C350 1.363 . S
C346 H323 0.950 . S
C346 C345 1.397 . S
C346 C347 1.334 . S
C347 H324 0.950 . S
C347 C346 1.334 . S
C347 C348 1.287 . S
C348 C347 1.287 . S
C348 C349 1.524 . S
C348 H367 0.913 . S
C349 H325 0.950 . S
C349 C348 1.524 . S
C349 C350 1.415 . S
C350 H326 0.950 . S
C350 C345 1.363 . S
C350 C349 1.415 . S
C351 H327 0.958 1_455 S
C351 C352 1.366 . S
C351 C353 1.386 1_455 S
C352 C351 1.366 . S
C352 C356 1.385 . S
C353 H328 0.949 . S
C353 C351 1.386 1_655 S
C353 C354 1.369 1_655 S
C354 C353 1.369 1_455 S
C354 C355 1.414 . S
C354 C357 1.499 . S
C355 H329 0.950 . S
C355 C354 1.414 . S
C355 C356 1.374 . S
C356 H330 0.950 . S
C356 C352 1.385 . S
C356 C355 1.374 . S
C357 C354 1.499 . S
C357 C358 1.373 . S
C357 C359 1.389 1_455 S
C358 H331 0.950 . S
C358 C344 1.377 . S
C358 C357 1.373 . S
C359 C343 1.377 . S
C359 C357 1.389 1_655 S
C359 C360 1.524 . S
C360 C359 1.524 . S
C360 C361 1.397 . S
C360 C365 1.363 . S
C361 H332 0.950 . S
C361 C360 1.397 . S
C361 C362 1.334 . S
C362 H333 0.950 . S
C362 C361 1.334 . S
C362 C363 1.287 . S
C363 C362 1.287 . S
C363 C364 1.524 . S
C363 H366 0.999 . S
C364 H334 0.950 . S
C364 C363 1.524 . S
C364 C365 1.415 . S
C365 H335 0.950 . S
C365 C360 1.363 . S
C365 C364 1.415 . S
H366 C363 0.999 . S
H367 C348 0.913 . S
H368 C386 0.951 . S
H369 C388 0.951 . S
H370 C390 0.950 . S
H371 C391 0.950 . S
H372 C393 0.950 . S
H373 C396 0.950 . S
H374 C397 0.950 . S
H375 C399 0.950 . S
H376 C400 0.950 . S
H377 C401 0.951 . S
H378 C403 0.951 . S
H379 C405 0.950 . S
H380 C406 0.950 . S
H381 C408 0.950 . S
H382 C411 0.950 . S
H383 C412 0.950 . S
H384 C414 0.950 . S
H385 C415 0.950 . S
C386 H368 0.951 . S
C386 C387 1.366 1_565 S
C386 C388 1.388 . S
C387 C386 1.366 1_545 S
C387 C391 1.385 . S
C388 H369 0.951 . S
C388 C386 1.388 . S
C388 C389 1.366 1_565 S
C389 C388 1.366 1_545 S
C389 C390 1.414 . S
C389 C392 1.499 . S
C390 H370 0.950 . S
C390 C389 1.414 . S
C390 C391 1.374 . S
C391 H371 0.950 . S
C391 C387 1.385 . S
C391 C390 1.374 . S
C392 C389 1.499 . S
C392 C393 1.373 . S
C392 C394 1.389 1_545 S
C393 H372 0.950 . S
C393 C392 1.373 . S
C393 C409 1.377 . S
C394 C392 1.389 1_565 S
C394 C395 1.524 . S
C394 C408 1.377 . S
C395 C394 1.524 . S
C395 C396 1.397 1_565 S
C395 C400 1.363 . S
C396 H373 0.950 . S
C396 C395 1.397 1_545 S
C396 C397 1.334 . S
C397 H374 0.950 . S
C397 C396 1.334 . S
C397 C398 1.287 1_545 S
C398 C397 1.287 1_565 S
C398 C399 1.524 . S
C398 H417 0.913 . S
C399 H375 0.950 . S
C399 C398 1.524 . S
C399 C400 1.415 . S
C400 H376 0.950 . S
C400 C395 1.363 . S
C400 C399 1.415 . S
C401 H377 0.951 . S
C401 C402 1.366 1_545 S
C401 C403 1.388 . S
C402 C401 1.366 1_565 S
C402 C406 1.385 . S
C403 H378 0.951 . S
C403 C401 1.388 . S
C403 C404 1.366 1_545 S
C404 C403 1.366 1_565 S
C404 C405 1.414 . S
C404 C407 1.499 . S
C405 H379 0.950 . S
C405 C404 1.414 . S
C405 C406 1.374 . S
C406 H380 0.950 . S
C406 C402 1.385 . S
C406 C405 1.374 . S
C407 C404 1.499 . S
C407 C408 1.373 . S
C407 C409 1.389 1_565 S
C408 H381 0.950 . S
C408 C394 1.377 . S
C408 C407 1.373 . S
C409 C393 1.377 . S
C409 C407 1.389 1_545 S
C409 C410 1.524 . S
C410 C409 1.524 . S
C410 C411 1.397 1_545 S
C410 C415 1.363 . S
C411 H382 0.950 . S
C411 C410 1.397 1_565 S
C411 C412 1.334 . S
C412 H383 0.950 . S
C412 C411 1.334 . S
C412 C413 1.287 1_565 S
C413 C412 1.287 1_545 S
C413 C414 1.524 . S
C413 H416 0.999 . S
C414 H384 0.950 . S
C414 C413 1.524 . S
C414 C415 1.415 . S
C415 H385 0.950 . S
C415 C410 1.363 . S
C415 C414 1.415 . S
H416 C413 0.999 . S
H417 C398 0.913 . S
H418 C436 0.951 . S
H419 C438 0.951 . S
H420 C440 0.950 . S
H421 C441 0.950 . S
H422 C443 0.950 . S
H423 C446 0.950 . S
H424 C447 0.950 . S
H425 C449 0.950 . S
H426 C450 0.950 . S
H427 C451 0.951 . S
H428 C453 0.951 . S
H429 C455 0.950 . S
H430 C456 0.950 . S
H431 C458 0.950 . S
H432 C461 0.950 . S
H433 C462 0.950 . S
H434 C464 0.950 . S
H435 C465 0.950 . S
C436 H418 0.951 . S
C436 C437 1.366 . S
C436 C438 1.388 . S
C437 C436 1.366 . S
C437 C441 1.385 . S
C438 H419 0.951 . S
C438 C436 1.388 . S
C438 C439 1.366 . S
C439 C438 1.366 . S
C439 C440 1.414 . S
C439 C442 1.499 . S
C440 H420 0.950 . S
C440 C439 1.414 . S
C440 C441 1.374 . S
C441 H421 0.950 . S
C441 C437 1.385 . S
C441 C440 1.374 . S
C442 C439 1.499 . S
C442 C443 1.373 . S
C442 C444 1.389 . S
C443 H422 0.950 . S
C443 C442 1.373 . S
C443 C459 1.377 . S
C444 C442 1.389 . S
C444 C445 1.524 . S
C444 C458 1.377 . S
C445 C444 1.524 . S
C445 C446 1.397 . S
C445 C450 1.363 . S
C446 H423 0.950 . S
C446 C445 1.397 . S
C446 C447 1.334 . S
C447 H424 0.950 . S
C447 C446 1.334 . S
C447 C448 1.287 . S
C448 C447 1.287 . S
C448 C449 1.524 . S
C448 H467 0.913 . S
C449 H425 0.950 . S
C449 C448 1.524 . S
C449 C450 1.415 . S
C450 H426 0.950 . S
C450 C445 1.363 . S
C450 C449 1.415 . S
C451 H427 0.951 . S
C451 C452 1.366 . S
C451 C453 1.388 . S
C452 C451 1.366 . S
C452 C456 1.385 . S
C453 H428 0.951 . S
C453 C451 1.388 . S
C453 C454 1.366 . S
C454 C453 1.366 . S
C454 C455 1.414 . S
C454 C457 1.499 . S
C455 H429 0.950 . S
C455 C454 1.414 . S
C455 C456 1.374 . S
C456 H430 0.950 . S
C456 C452 1.385 . S
C456 C455 1.374 . S
C457 C454 1.499 . S
C457 C458 1.373 . S
C457 C459 1.389 . S
C458 H431 0.950 . S
C458 C444 1.377 . S
C458 C457 1.373 . S
C459 C443 1.377 . S
C459 C457 1.389 . S
C459 C460 1.524 . S
C460 C459 1.524 . S
C460 C461 1.397 . S
C460 C465 1.363 . S
C461 H432 0.950 . S
C461 C460 1.397 . S
C461 C462 1.334 . S
C462 H433 0.950 . S
C462 C461 1.334 . S
C462 C463 1.287 . S
C463 C462 1.287 . S
C463 C464 1.524 . S
C463 H466 0.999 . S
C464 H434 0.950 . S
C464 C463 1.524 . S
C464 C465 1.415 . S
C465 H435 0.950 . S
C465 C460 1.363 . S
C465 C464 1.415 . S
H466 C463 0.999 . S
H467 C448 0.913 . S
H468 C486 0.951 . S
H469 C488 0.951 . S
H470 C490 0.950 . S
H471 C491 0.950 . S
H472 C493 0.950 . S
H473 C496 0.950 . S
H474 C497 0.950 1_655 S
H475 C499 0.950 . S
H476 C500 0.950 . S
H477 C501 0.951 . S
H478 C503 0.951 . S
H479 C505 0.950 . S
H480 C506 0.950 . S
H481 C508 0.950 . S
H482 C511 0.950 . S
H483 C512 0.950 . S
H484 C514 0.950 . S
H485 C515 0.950 . S
C486 H468 0.951 . S
C486 C487 1.366 . S
C486 C488 1.388 . S
C487 C486 1.366 . S
C487 C491 1.385 . S
C488 H469 0.951 . S
C488 C486 1.388 . S
C488 C489 1.366 . S
C489 C488 1.366 . S
C489 C490 1.414 . S
C489 C492 1.499 . S
C490 H470 0.950 . S
C490 C489 1.414 . S
C490 C491 1.374 . S
C491 H471 0.950 . S
C491 C487 1.385 . S
C491 C490 1.374 . S
C492 C489 1.499 . S
C492 C493 1.373 . S
C492 C494 1.389 . S
C493 H472 0.950 . S
C493 C492 1.373 . S
C493 C509 1.377 1_554 S
C494 C492 1.389 . S
C494 C495 1.524 . S
C494 C508 1.377 1_554 S
C495 C494 1.524 . S
C495 C496 1.397 . S
C495 C500 1.363 1_554 S
C496 H473 0.950 . S
C496 C495 1.397 . S
C496 C497 1.334 . S
C497 H474 0.950 1_455 S
C497 C496 1.334 . S
C497 C498 1.287 1_455 S
C498 C497 1.287 1_655 S
C498 C499 1.524 1_554 S
C498 H517 0.913 . S
C499 H475 0.950 . S
C499 C498 1.524 1_556 S
C499 C500 1.415 1_655 S
C500 H476 0.950 . S
C500 C495 1.363 1_556 S
C500 C499 1.415 1_455 S
C501 H477 0.951 . S
C501 C502 1.366 . S
C501 C503 1.388 . S
C502 C501 1.366 . S
C502 C506 1.385 . S
C503 H478 0.951 . S
C503 C501 1.388 . S
C503 C504 1.366 . S
C504 C503 1.366 . S
C504 C505 1.414 . S
C504 C507 1.499 . S
C505 H479 0.950 . S
C505 C504 1.414 . S
C505 C506 1.374 . S
C506 H480 0.950 . S
C506 C502 1.385 . S
C506 C505 1.374 . S
C507 C504 1.499 . S
C507 C508 1.373 . S
C507 C509 1.389 . S
C508 H481 0.950 . S
C508 C494 1.377 1_556 S
C508 C507 1.373 . S
C509 C493 1.377 1_556 S
C509 C507 1.389 . S
C509 C510 1.524 . S
C510 C509 1.524 . S
C510 C511 1.397 . S
C510 C515 1.363 1_556 S
C511 H482 0.950 . S
C511 C510 1.397 . S
C511 C512 1.334 . S
C512 H483 0.950 . S
C512 C511 1.334 . S
C512 C513 1.287 . S
C513 C512 1.287 . S
C513 C514 1.524 1_556 S
C513 H516 0.999 . S
C514 H484 0.950 . S
C514 C513 1.524 1_554 S
C514 C515 1.415 . S
C515 H485 0.950 . S
C515 C510 1.363 1_554 S
C515 C514 1.415 . S
H516 C513 0.999 . S
H517 C498 0.913 . S
H518 C536 0.951 . S
H519 C538 0.951 . S
H520 C540 0.950 . S
H521 C541 0.950 . S
H522 C543 0.950 . S
H523 C546 0.950 . S
H524 C547 0.950 . S
H525 C549 0.950 . S
H526 C550 0.950 . S
H527 C551 0.951 . S
H528 C553 0.951 . S
H529 C555 0.950 . S
H530 C556 0.950 . S
H531 C558 0.950 . S
H532 C561 0.950 . S
H533 C562 0.950 . S
H534 C564 0.950 . S
H535 C565 0.950 . S
C536 H518 0.951 . S
C536 C537 1.366 . S
C536 C538 1.388 . S
C537 C536 1.366 . S
C537 C541 1.385 . S
C538 H519 0.951 . S
C538 C536 1.388 . S
C538 C539 1.366 . S
C539 C538 1.366 . S
C539 C540 1.414 . S
C539 C542 1.499 . S
C540 H520 0.950 . S
C540 C539 1.414 . S
C540 C541 1.374 . S
C541 H521 0.950 . S
C541 C537 1.385 . S
C541 C540 1.374 . S
C542 C539 1.499 . S
C542 C543 1.373 . S
C542 C544 1.389 . S
C543 H522 0.950 . S
C543 C542 1.373 . S
C543 C559 1.377 . S
C544 C542 1.389 . S
C544 C545 1.524 . S
C544 C558 1.377 . S
C545 C544 1.524 . S
C545 C546 1.397 . S
C545 C550 1.363 . S
C546 H523 0.950 . S
C546 C545 1.397 . S
C546 C547 1.334 1_545 S
C547 H524 0.950 . S
C547 C546 1.334 1_565 S
C547 C548 1.287 . S
C548 C547 1.287 . S
C548 C549 1.524 1_565 S
C548 H567 0.913 . S
C549 H525 0.950 . S
C549 C548 1.524 1_545 S
C549 C550 1.415 . S
C550 H526 0.950 . S
C550 C545 1.363 . S
C550 C549 1.415 . S
C551 H527 0.951 . S
C551 C552 1.366 . S
C551 C553 1.388 . S
C552 C551 1.366 . S
C552 C556 1.385 . S
C553 H528 0.951 . S
C553 C551 1.388 . S
C553 C554 1.366 . S
C554 C553 1.366 . S
C554 C555 1.414 . S
C554 C557 1.499 . S
C555 H529 0.950 . S
C555 C554 1.414 . S
C555 C556 1.374 . S
C556 H530 0.950 . S
C556 C552 1.385 . S
C556 C555 1.374 . S
C557 C554 1.499 . S
C557 C558 1.373 . S
C557 C559 1.389 . S
C558 H531 0.950 . S
C558 C544 1.377 . S
C558 C557 1.373 . S
C559 C543 1.377 . S
C559 C557 1.389 . S
C559 C560 1.524 . S
C560 C559 1.524 . S
C560 C561 1.397 . S
C560 C565 1.363 . S
C561 H532 0.950 . S
C561 C560 1.397 . S
C561 C562 1.334 . S
C562 H533 0.950 . S
C562 C561 1.334 . S
C562 C563 1.287 1_655 S
C563 C562 1.287 1_455 S
C563 C564 1.524 . S
C563 H566 0.999 . S
C564 H534 0.950 . S
C564 C563 1.524 . S
C564 C565 1.415 1_455 S
C565 H535 0.950 . S
C565 C560 1.363 . S
C565 C564 1.415 1_655 S
H566 C563 0.999 . S
H567 C548 0.913 . S
H568 C586 0.951 . S
H569 C588 0.951 . S
H570 C590 0.950 . S
H571 C591 0.950 . S
H572 C593 0.950 . S
H573 C596 0.950 . S
H574 C597 0.950 . S
H575 C599 0.950 . S
H576 C600 0.950 . S
H577 C601 0.951 . S
H578 C603 0.951 . S
H579 C605 0.950 . S
H580 C606 0.950 . S
H581 C608 0.950 . S
H582 C611 0.950 . S
H583 C612 0.950 . S
H584 C614 0.950 . S
H585 C615 0.950 . S
C586 H568 0.951 . S
C586 C587 1.366 . S
C586 C588 1.388 . S
C587 C586 1.366 . S
C587 C591 1.385 . S
C588 H569 0.951 . S
C588 C586 1.388 . S
C588 C589 1.366 . S
C589 C588 1.366 . S
C589 C590 1.414 . S
C589 C592 1.499 . S
C590 H570 0.950 . S
C590 C589 1.414 . S
C590 C591 1.374 . S
C591 H571 0.950 . S
C591 C587 1.385 . S
C591 C590 1.374 . S
C592 C589 1.499 . S
C592 C593 1.373 . S
C592 C594 1.389 . S
C593 H572 0.950 . S
C593 C592 1.373 . S
C593 C609 1.377 . S
C594 C592 1.389 . S
C594 C595 1.524 . S
C594 C608 1.377 . S
C595 C594 1.524 . S
C595 C596 1.397 . S
C595 C600 1.363 . S
C596 H573 0.950 . S
C596 C595 1.397 . S
C596 C597 1.334 . S
C597 H574 0.950 . S
C597 C596 1.334 . S
C597 C598 1.287 . S
C598 C597 1.287 . S
C598 C599 1.524 . S
C598 H617 0.913 . S
C599 H575 0.950 . S
C599 C598 1.524 . S
C599 C600 1.415 . S
C600 H576 0.950 . S
C600 C595 1.363 . S
C600 C599 1.415 . S
C601 H577 0.951 . S
C601 C602 1.366 . S
C601 C603 1.388 . S
C602 C601 1.366 . S
C602 C606 1.385 . S
C603 H578 0.951 . S
C603 C601 1.388 . S
C603 C604 1.366 . S
C604 C603 1.366 . S
C604 C605 1.414 . S
C604 C607 1.499 . S
C605 H579 0.950 . S
C605 C604 1.414 . S
C605 C606 1.374 . S
C606 H580 0.950 . S
C606 C602 1.385 . S
C606 C605 1.374 . S
C607 C604 1.499 . S
C607 C608 1.373 . S
C607 C609 1.389 . S
C608 H581 0.950 . S
C608 C594 1.377 . S
C608 C607 1.373 . S
C609 C593 1.377 . S
C609 C607 1.389 . S
C609 C610 1.524 . S
C610 C609 1.524 . S
C610 C611 1.397 . S
C610 C615 1.363 . S
C611 H582 0.950 . S
C611 C610 1.397 . S
C611 C612 1.334 . S
C612 H583 0.950 . S
C612 C611 1.334 . S
C612 C613 1.287 . S
C613 C612 1.287 . S
C613 C614 1.524 . S
C613 H616 0.999 . S
C614 H584 0.950 . S
C614 C613 1.524 . S
C614 C615 1.415 . S
C615 H585 0.950 . S
C615 C610 1.363 . S
C615 C614 1.415 . S
H616 C613 0.999 . S
H617 C598 0.913 . S
H618 C636 0.951 . S
H619 C638 0.951 . S
H620 C640 0.950 . S
H621 C641 0.950 . S
H622 C643 0.950 . S
H623 C646 0.950 . S
H624 C647 0.950 . S
H625 C649 0.950 . S
H626 C650 0.950 . S
H627 C651 0.951 . S
H628 C653 0.951 . S
H629 C655 0.950 . S
H630 C656 0.950 . S
H631 C658 0.950 . S
H632 C661 0.950 . S
H633 C662 0.950 . S
H634 C664 0.950 . S
H635 C665 0.950 . S
C636 H618 0.951 . S
C636 C637 1.366 . S
C636 C638 1.388 . S
C637 C636 1.366 . S
C637 C641 1.385 . S
C638 H619 0.951 . S
C638 C636 1.388 . S
C638 C639 1.366 . S
C639 C638 1.366 . S
C639 C640 1.414 . S
C639 C642 1.499 . S
C640 H620 0.950 . S
C640 C639 1.414 . S
C640 C641 1.374 . S
C641 H621 0.950 . S
C641 C637 1.385 . S
C641 C640 1.374 . S
C642 C639 1.499 . S
C642 C643 1.373 . S
C642 C644 1.389 . S
C643 H622 0.950 . S
C643 C642 1.373 . S
C643 C659 1.377 1_554 S
C644 C642 1.389 . S
C644 C645 1.524 . S
C644 C658 1.377 1_554 S
C645 C644 1.524 . S
C645 C646 1.397 . S
C645 C650 1.363 . S
C646 H623 0.950 . S
C646 C645 1.397 . S
C646 C647 1.334 . S
C647 H624 0.950 . S
C647 C646 1.334 . S
C647 C648 1.287 . S
C648 C647 1.287 . S
C648 C649 1.524 . S
C648 H667 0.913 . S
C649 H625 0.950 . S
C649 C648 1.524 . S
C649 C650 1.415 . S
C650 H626 0.950 . S
C650 C645 1.363 . S
C650 C649 1.415 . S
C651 H627 0.951 . S
C651 C652 1.366 . S
C651 C653 1.388 . S
C652 C651 1.366 . S
C652 C656 1.385 . S
C653 H628 0.951 . S
C653 C651 1.388 . S
C653 C654 1.366 . S
C654 C653 1.366 . S
C654 C655 1.414 . S
C654 C657 1.499 . S
C655 H629 0.950 . S
C655 C654 1.414 . S
C655 C656 1.374 . S
C656 H630 0.950 . S
C656 C652 1.385 . S
C656 C655 1.374 . S
C657 C654 1.499 . S
C657 C658 1.373 . S
C657 C659 1.389 . S
C658 H631 0.950 . S
C658 C644 1.377 1_556 S
C658 C657 1.373 . S
C659 C643 1.377 1_556 S
C659 C657 1.389 . S
C659 C660 1.524 . S
C660 C659 1.524 . S
C660 C661 1.397 . S
C660 C665 1.363 . S
C661 H632 0.950 . S
C661 C660 1.397 . S
C661 C662 1.334 . S
C662 H633 0.950 . S
C662 C661 1.334 . S
C662 C663 1.287 . S
C663 C662 1.287 . S
C663 C664 1.524 . S
C663 H666 0.999 . S
C664 H634 0.950 . S
C664 C663 1.524 . S
C664 C665 1.415 . S
C665 H635 0.950 . S
C665 C660 1.363 . S
C665 C664 1.415 . S
H666 C663 0.999 . S
H667 C648 0.913 . S
H668 C686 0.951 . S
H669 C688 0.951 . S
H670 C690 0.950 . S
H671 C691 0.950 . S
H672 C693 0.950 . S
H673 C696 0.950 . S
H674 C697 0.950 . S
H675 C699 0.950 . S
H676 C700 0.950 . S
H677 C701 0.951 . S
H678 C703 0.951 . S
H679 C705 0.950 . S
H680 C706 0.950 . S
H681 C708 0.950 . S
H682 C711 0.950 . S
H683 C712 0.950 . S
H684 C714 0.950 . S
H685 C715 0.950 . S
C686 H668 0.951 . S
C686 C687 1.366 . S
C686 C688 1.388 . S
C687 C686 1.366 . S
C687 C691 1.385 . S
C688 H669 0.951 . S
C688 C686 1.388 . S
C688 C689 1.366 . S
C689 C688 1.366 . S
C689 C690 1.414 . S
C689 C692 1.499 . S
C690 H670 0.950 . S
C690 C689 1.414 . S
C690 C691 1.374 . S
C691 H671 0.950 . S
C691 C687 1.385 . S
C691 C690 1.374 . S
C692 C689 1.499 . S
C692 C693 1.373 . S
C692 C694 1.389 . S
C693 H672 0.950 . S
C693 C692 1.373 . S
C693 C709 1.377 . S
C694 C692 1.389 . S
C694 C695 1.524 . S
C694 C708 1.377 . S
C695 C694 1.524 . S
C695 C696 1.397 . S
C695 C700 1.363 . S
C696 H673 0.950 . S
C696 C695 1.397 . S
C696 C697 1.334 . S
C697 H674 0.950 . S
C697 C696 1.334 . S
C697 C698 1.287 1_455 S
C698 C697 1.287 1_655 S
C698 C699 1.524 . S
C698 H717 0.913 . S
C699 H675 0.950 . S
C699 C698 1.524 . S
C699 C700 1.415 1_655 S
C700 H676 0.950 . S
C700 C695 1.363 . S
C700 C699 1.415 1_455 S
C701 H677 0.951 . S
C701 C702 1.366 . S
C701 C703 1.388 . S
C702 C701 1.366 . S
C702 C706 1.385 . S
C703 H678 0.951 . S
C703 C701 1.388 . S
C703 C704 1.366 . S
C704 C703 1.366 . S
C704 C705 1.414 . S
C704 C707 1.499 . S
C705 H679 0.950 . S
C705 C704 1.414 . S
C705 C706 1.374 . S
C706 H680 0.950 . S
C706 C702 1.385 . S
C706 C705 1.374 . S
C707 C704 1.499 . S
C707 C708 1.373 . S
C707 C709 1.389 . S
C708 H681 0.950 . S
C708 C694 1.377 . S
C708 C707 1.373 . S
C709 C693 1.377 . S
C709 C707 1.389 . S
C709 C710 1.524 . S
C710 C709 1.524 . S
C710 C711 1.397 . S
C710 C715 1.363 . S
C711 H682 0.950 . S
C711 C710 1.397 . S
C711 C712 1.334 . S
C712 H683 0.950 . S
C712 C711 1.334 . S
C712 C713 1.287 . S
C713 C712 1.287 . S
C713 C714 1.524 . S
C713 H716 0.999 . S
C714 H684 0.950 . S
C714 C713 1.524 . S
C714 C715 1.415 . S
C715 H685 0.950 . S
C715 C710 1.363 . S
C715 C714 1.415 . S
H716 C713 0.999 . S
H717 C698 0.913 . S
H718 C736 0.951 . S
H719 C738 0.951 . S
H720 C740 0.950 . S
H721 C741 0.950 . S
H722 C743 0.950 . S
H723 C746 0.950 . S
H724 C747 0.950 1_565 S
H725 C749 0.950 . S
H726 C750 0.950 . S
H727 C751 0.951 . S
H728 C753 0.951 . S
H729 C755 0.950 . S
H730 C756 0.950 . S
H731 C758 0.950 . S
H732 C761 0.950 . S
H733 C762 0.950 . S
H734 C764 0.950 . S
H735 C765 0.950 . S
C736 H718 0.951 . S
C736 C737 1.366 . S
C736 C738 1.388 . S
C737 C736 1.366 . S
C737 C741 1.385 . S
C738 H719 0.951 . S
C738 C736 1.388 . S
C738 C739 1.366 . S
C739 C738 1.366 . S
C739 C740 1.414 . S
C739 C742 1.499 . S
C740 H720 0.950 . S
C740 C739 1.414 . S
C740 C741 1.374 . S
C741 H721 0.950 . S
C741 C737 1.385 . S
C741 C740 1.374 . S
C742 C739 1.499 . S
C742 C743 1.373 . S
C742 C744 1.389 . S
C743 H722 0.950 . S
C743 C742 1.373 . S
C743 C759 1.377 . S
C744 C742 1.389 . S
C744 C745 1.524 . S
C744 C758 1.377 . S
C745 C744 1.524 . S
C745 C746 1.397 . S
C745 C750 1.363 . S
C746 H723 0.950 . S
C746 C745 1.397 . S
C746 C747 1.334 . S
C747 H724 0.950 1_545 S
C747 C746 1.334 . S
C747 C748 1.287 1_545 S
C748 C747 1.287 1_565 S
C748 C749 1.524 . S
C748 H767 0.913 . S
C749 H725 0.950 . S
C749 C748 1.524 . S
C749 C750 1.415 1_565 S
C750 H726 0.950 . S
C750 C745 1.363 . S
C750 C749 1.415 1_545 S
C751 H727 0.951 . S
C751 C752 1.366 . S
C751 C753 1.388 . S
C752 C751 1.366 . S
C752 C756 1.385 . S
C753 H728 0.951 . S
C753 C751 1.388 . S
C753 C754 1.366 . S
C754 C753 1.366 . S
C754 C755 1.414 . S
C754 C757 1.499 . S
C755 H729 0.950 . S
C755 C754 1.414 . S
C755 C756 1.374 . S
C756 H730 0.950 . S
C756 C752 1.385 . S
C756 C755 1.374 . S
C757 C754 1.499 . S
C757 C758 1.373 . S
C757 C759 1.389 . S
C758 H731 0.950 . S
C758 C744 1.377 . S
C758 C757 1.373 . S
C759 C743 1.377 . S
C759 C757 1.389 . S
C759 C760 1.524 . S
C760 C759 1.524 . S
C760 C761 1.397 . S
C760 C765 1.363 . S
C761 H732 0.950 . S
C761 C760 1.397 . S
C761 C762 1.334 . S
C762 H733 0.950 . S
C762 C761 1.334 . S
C762 C763 1.287 . S
C763 C762 1.287 . S
C763 C764 1.524 . S
C763 H766 0.999 . S
C764 H734 0.950 . S
C764 C763 1.524 . S
C764 C765 1.415 . S
C765 H735 0.950 . S
C765 C760 1.363 . S
C765 C764 1.415 . S
H766 C763 0.999 . S
H767 C748 0.913 . S
H768 C786 0.951 . S
H769 C788 0.951 . S
H770 C790 0.950 . S
H771 C791 0.950 . S
H772 C793 0.950 . S
H773 C796 0.950 . S
H774 C797 0.950 . S
H775 C799 0.950 . S
H776 C800 0.950 . S
H777 C801 0.951 . S
H778 C803 0.951 . S
H779 C805 0.950 . S
H780 C806 0.950 . S
H781 C808 0.950 . S
H782 C811 0.950 . S
H783 C812 0.950 . S
H784 C814 0.950 . S
H785 C815 0.950 . S
C786 H768 0.951 . S
C786 C787 1.366 . S
C786 C788 1.388 . S
C787 C786 1.366 . S
C787 C791 1.385 . S
C788 H769 0.951 . S
C788 C786 1.388 . S
C788 C789 1.366 . S
C789 C788 1.366 . S
C789 C790 1.414 . S
C789 C792 1.499 . S
C790 H770 0.950 . S
C790 C789 1.414 . S
C790 C791 1.374 . S
C791 H771 0.950 . S
C791 C787 1.385 . S
C791 C790 1.374 . S
C792 C789 1.499 . S
C792 C793 1.373 1_655 S
C792 C794 1.389 . S
C793 H772 0.950 . S
C793 C792 1.373 1_455 S
C793 C809 1.377 . S
C794 C792 1.389 . S
C794 C795 1.524 . S
C794 C808 1.377 . S
C795 C794 1.524 . S
C795 C796 1.397 . S
C795 C800 1.363 . S
C796 H773 0.950 . S
C796 C795 1.397 . S
C796 C797 1.334 . S
C797 H774 0.950 . S
C797 C796 1.334 . S
C797 C798 1.287 . S
C798 C797 1.287 . S
C798 C799 1.524 . S
C798 H817 0.913 . S
C799 H775 0.950 . S
C799 C798 1.524 . S
C799 C800 1.415 . S
C800 H776 0.950 . S
C800 C795 1.363 . S
C800 C799 1.415 . S
C801 H777 0.951 . S
C801 C802 1.366 . S
C801 C803 1.388 . S
C802 C801 1.366 . S
C802 C806 1.385 . S
C803 H778 0.951 . S
C803 C801 1.388 . S
C803 C804 1.366 . S
C804 C803 1.366 . S
C804 C805 1.414 . S
C804 C807 1.499 . S
C805 H779 0.950 . S
C805 C804 1.414 . S
C805 C806 1.374 . S
C806 H780 0.950 . S
C806 C802 1.385 . S
C806 C805 1.374 . S
C807 C804 1.499 . S
C807 C808 1.373 1_455 S
C807 C809 1.389 . S
C808 H781 0.950 . S
C808 C794 1.377 . S
C808 C807 1.373 1_655 S
C809 C793 1.377 . S
C809 C807 1.389 . S
C809 C810 1.524 . S
C810 C809 1.524 . S
C810 C811 1.397 . S
C810 C815 1.363 . S
C811 H782 0.950 . S
C811 C810 1.397 . S
C811 C812 1.334 . S
C812 H783 0.950 . S
C812 C811 1.334 . S
C812 C813 1.287 . S
C813 C812 1.287 . S
C813 C814 1.524 . S
C813 H816 0.999 . S
C814 H784 0.950 . S
C814 C813 1.524 . S
C814 C815 1.415 . S
C815 H785 0.950 . S
C815 C810 1.363 . S
C815 C814 1.415 . S
H816 C813 0.999 . S
H817 C798 0.913 . S
H818 C836 0.951 . S
H819 C838 0.951 . S
H820 C840 0.950 1_565 S
H821 C841 0.950 . S
H822 C843 0.950 . S
H823 C846 0.950 . S
H824 C847 0.950 . S
H825 C849 0.950 . S
H826 C850 0.950 1_545 S
H827 C851 0.951 . S
H828 C853 0.951 . S
H829 C855 0.950 1_545 S
H830 C856 0.950 . S
H831 C858 0.950 . S
H832 C861 0.950 . S
H833 C862 0.950 . S
H834 C864 0.950 . S
H835 C865 0.924 1_565 S
C836 H818 0.951 . S
C836 C837 1.366 . S
C836 C838 1.388 . S
C837 C836 1.366 . S
C837 C841 1.385 . S
C838 H819 0.951 . S
C838 C836 1.388 . S
C838 C839 1.366 . S
C839 C838 1.366 . S
C839 C840 1.414 . S
C839 C842 1.499 . S
C840 H820 0.950 1_545 S
C840 C839 1.414 . S
C840 C841 1.374 . S
C841 H821 0.950 . S
C841 C837 1.385 . S
C841 C840 1.374 . S
C842 C839 1.499 . S
C842 C843 1.373 . S
C842 C844 1.389 1_545 S
C843 H822 0.950 . S
C843 C842 1.373 . S
C843 C859 1.377 . S
C844 C842 1.389 1_565 S
C844 C845 1.524 . S
C844 C858 1.377 . S
C845 C844 1.524 . S
C845 C846 1.397 . S
C845 C850 1.363 . S
C846 H823 0.950 . S
C846 C845 1.397 . S
C846 C847 1.334 . S
C847 H824 0.950 . S
C847 C846 1.334 . S
C847 C848 1.287 . S
C848 C847 1.287 . S
C848 C849 1.524 . S
C848 H867 0.913 . S
C849 H825 0.950 . S
C849 C848 1.524 . S
C849 C850 1.415 . S
C850 H826 0.950 1_565 S
C850 C845 1.363 . S
C850 C849 1.415 . S
C851 H827 0.951 . S
C851 C852 1.366 . S
C851 C853 1.388 . S
C852 C851 1.366 . S
C852 C856 1.385 . S
C853 H828 0.951 . S
C853 C851 1.388 . S
C853 C854 1.366 . S
C854 C853 1.366 . S
C854 C855 1.414 . S
C854 C857 1.499 . S
C855 H829 0.950 1_565 S
C855 C854 1.414 . S
C855 C856 1.374 . S
C856 H830 0.950 . S
C856 C852 1.385 . S
C856 C855 1.374 . S
C857 C854 1.499 . S
C857 C858 1.373 . S
C857 C859 1.389 1_565 S
C858 H831 0.950 . S
C858 C844 1.377 . S
C858 C857 1.373 . S
C859 C843 1.377 . S
C859 C857 1.389 1_545 S
C859 C860 1.524 . S
C860 C859 1.524 . S
C860 C861 1.397 . S
C860 C865 1.376 . S
C861 H832 0.950 . S
C861 C860 1.397 . S
C861 C862 1.334 . S
C862 H833 0.950 . S
C862 C861 1.334 . S
C862 C863 1.287 . S
C863 C862 1.287 . S
C863 C864 1.524 . S
C863 H866 0.999 . S
C864 H834 0.950 . S
C864 C863 1.524 . S
C864 C865 1.428 . S
C865 H835 0.924 1_545 S
C865 C860 1.376 . S
C865 C864 1.428 . S
H866 C863 0.999 . S
H867 C848 0.913 . S
H868 C886 0.951 . S
H869 C888 0.951 . S
H870 C890 0.950 . S
H871 C891 0.950 . S
H872 C893 0.950 . S
H873 C896 0.950 . S
H874 C897 0.950 . S
H875 C899 0.950 . S
H876 C900 0.950 . S
H877 C901 0.951 . S
H878 C903 0.951 . S
H879 C905 0.950 . S
H880 C906 0.950 . S
H881 C908 0.950 . S
H882 C911 0.950 . S
H883 C912 0.950 . S
H884 C914 0.950 . S
H885 C915 0.950 . S
C886 H868 0.951 . S
C886 C887 1.366 . S
C886 C888 1.388 . S
C887 C886 1.366 . S
C887 C891 1.385 . S
C888 H869 0.951 . S
C888 C886 1.388 . S
C888 C889 1.366 . S
C889 C888 1.366 . S
C889 C890 1.414 . S
C889 C892 1.499 . S
C890 H870 0.950 . S
C890 C889 1.414 . S
C890 C891 1.374 . S
C891 H871 0.950 . S
C891 C887 1.385 . S
C891 C890 1.374 . S
C892 C889 1.499 . S
C892 C893 1.373 . S
C892 C894 1.389 . S
C893 H872 0.950 . S
C893 C892 1.373 . S
C893 C909 1.377 . S
C894 C892 1.389 . S
C894 C895 1.524 . S
C894 C908 1.377 . S
C895 C894 1.524 . S
C895 C896 1.397 . S
C895 C900 1.363 . S
C896 H873 0.950 . S
C896 C895 1.397 . S
C896 C897 1.334 . S
C897 H874 0.950 . S
C897 C896 1.334 . S
C897 C898 1.287 . S
C898 C897 1.287 . S
C898 C899 1.524 . S
C898 H917 0.913 . S
C899 H875 0.950 . S
C899 C898 1.524 . S
C899 C900 1.415 . S
C900 H876 0.950 . S
C900 C895 1.363 . S
C900 C899 1.415 . S
C901 H877 0.951 . S
C901 C902 1.366 . S
C901 C903 1.388 . S
C902 C901 1.366 . S
C902 C906 1.385 . S
C903 H878 0.951 . S
C903 C901 1.388 . S
C903 C904 1.366 . S
C904 C903 1.366 . S
C904 C905 1.414 . S
C904 C907 1.499 . S
C905 H879 0.950 . S
C905 C904 1.414 . S
C905 C906 1.374 . S
C906 H880 0.950 . S
C906 C902 1.385 . S
C906 C905 1.374 . S
C907 C904 1.499 . S
C907 C908 1.373 . S
C907 C909 1.389 . S
C908 H881 0.950 . S
C908 C894 1.377 . S
C908 C907 1.373 . S
C909 C893 1.377 . S
C909 C907 1.389 . S
C909 C910 1.524 . S
C910 C909 1.524 . S
C910 C911 1.397 . S
C910 C915 1.363 . S
C911 H882 0.950 . S
C911 C910 1.397 . S
C911 C912 1.334 . S
C912 H883 0.950 . S
C912 C911 1.334 . S
C912 C913 1.287 . S
C913 C912 1.287 . S
C913 C914 1.524 . S
C913 H916 0.999 . S
C914 H884 0.950 . S
C914 C913 1.524 . S
C914 C915 1.415 . S
C915 H885 0.950 . S
C915 C910 1.363 . S
C915 C914 1.415 . S
H916 C913 0.999 . S
H917 C898 0.913 . S
H918 C936 0.951 1_565 S
H919 C938 0.971 . S
H920 C940 0.950 . S
H921 C941 0.950 . S
H922 C943 0.950 . S
H923 C946 0.950 . S
H924 C947 0.950 . S
H925 C949 0.950 . S
H926 C950 0.950 . S
H927 C951 0.951 1_545 S
H928 C953 0.976 . S
H929 C955 0.950 . S
H930 C956 0.950 . S
H931 C958 0.950 . S
H932 C961 0.950 . S
H933 C962 0.950 . S
H934 C964 0.950 . S
H935 C965 0.950 . S
C936 H918 0.951 1_545 S
C936 C937 1.366 . S
C936 C938 1.370 1_545 S
C937 C936 1.366 . S
C937 C941 1.385 . S
C938 H919 0.971 . S
C938 C936 1.370 1_565 S
C938 C939 1.364 1_565 S
C939 C938 1.364 1_545 S
C939 C940 1.414 . S
C939 C942 1.499 . S
C940 H920 0.950 . S
C940 C939 1.414 . S
C940 C941 1.374 . S
C941 H921 0.950 . S
C941 C937 1.385 . S
C941 C940 1.374 . S
C942 C939 1.499 . S
C942 C943 1.373 . S
C942 C944 1.389 1_545 S
C943 H922 0.950 . S
C943 C942 1.373 . S
C943 C959 1.377 . S
C944 C942 1.389 1_565 S
C944 C945 1.524 . S
C944 C958 1.377 . S
C945 C944 1.524 . S
C945 C946 1.397 . S
C945 C950 1.363 . S
C946 H923 0.950 . S
C946 C945 1.397 . S
C946 C947 1.334 . S
C947 H924 0.950 . S
C947 C946 1.334 . S
C947 C948 1.287 . S
C948 C947 1.287 . S
C948 C949 1.524 . S
C948 H967 0.913 . S
C949 H925 0.950 . S
C949 C948 1.524 . S
C949 C950 1.415 . S
C950 H926 0.950 . S
C950 C945 1.363 . S
C950 C949 1.415 . S
C951 H927 0.951 1_565 S
C951 C952 1.366 . S
C951 C953 1.366 1_565 S
C952 C951 1.366 . S
C952 C956 1.385 . S
C953 H928 0.976 . S
C953 C951 1.366 1_545 S
C953 C954 1.363 1_545 S
C954 C953 1.363 1_565 S
C954 C955 1.414 . S
C954 C957 1.499 . S
C955 H929 0.950 . S
C955 C954 1.414 . S
C955 C956 1.374 . S
C956 H930 0.950 . S
C956 C952 1.385 . S
C956 C955 1.374 . S
C957 C954 1.499 . S
C957 C958 1.373 . S
C957 C959 1.389 1_565 S
C958 H931 0.950 . S
C958 C944 1.377 . S
C958 C957 1.373 . S
C959 C943 1.377 . S
C959 C957 1.389 1_545 S
C959 C960 1.524 . S
C960 C959 1.524 . S
C960 C961 1.397 . S
C960 C965 1.363 . S
C961 H932 0.950 . S
C961 C960 1.397 . S
C961 C962 1.334 . S
C962 H933 0.950 . S
C962 C961 1.334 . S
C962 C963 1.287 . S
C963 C962 1.287 . S
C963 C964 1.524 . S
C963 H966 0.999 . S
C964 H934 0.950 . S
C964 C963 1.524 . S
C964 C965 1.415 . S
C965 H935 0.950 . S
C965 C960 1.363 . S
C965 C964 1.415 . S
H966 C963 0.999 . S
H967 C948 0.913 . S
H968 C986 0.951 . S
H969 C988 0.951 . S
H970 C990 0.950 . S
H971 C991 0.950 . S
H972 C993 0.950 . S
H973 C996 0.950 . S
H974 C997 0.950 . S
H975 C999 0.950 . S
H976 C1000 0.950 . S
H977 C1001 0.951 . S
H978 C1003 0.951 . S
H979 C1005 0.950 . S
H980 C1006 0.950 . S
H981 C1008 0.950 . S
H982 C1011 0.950 . S
H983 C1012 0.950 . S
H984 C1014 0.950 . S
H985 C1015 0.950 . S
C986 H968 0.951 . S
C986 C987 1.366 . S
C986 C988 1.388 . S
C987 C986 1.366 . S
C987 C991 1.385 . S
C988 H969 0.951 . S
C988 C986 1.388 . S
C988 C989 1.366 . S
C989 C988 1.366 . S
C989 C990 1.414 . S
C989 C992 1.499 . S
C990 H970 0.950 . S
C990 C989 1.414 . S
C990 C991 1.374 . S
C991 H971 0.950 . S
C991 C987 1.385 . S
C991 C990 1.374 . S
C992 C989 1.499 . S
C992 C993 1.373 . S
C992 C994 1.389 . S
C993 H972 0.950 . S
C993 C992 1.373 . S
C993 C1009 1.377 . S
C994 C992 1.389 . S
C994 C995 1.524 . S
C994 C1008 1.377 . S
C995 C994 1.524 . S
C995 C996 1.397 . S
C995 C1000 1.363 . S
C996 H973 0.950 . S
C996 C995 1.397 . S
C996 C997 1.334 . S
C997 H974 0.950 . S
C997 C996 1.334 . S
C997 C998 1.287 . S
C998 C997 1.287 . S
C998 C999 1.524 . S
C998 H1017 0.913 . S
C999 H975 0.950 . S
C999 C998 1.524 . S
C999 C1000 1.415 . S
C1000 H976 0.950 . S
C1000 C995 1.363 . S
C1000 C999 1.415 . S
C1001 H977 0.951 . S
C1001 C1002 1.366 . S
C1001 C1003 1.388 . S
C1002 C1001 1.366 . S
C1002 C1006 1.385 . S
C1003 H978 0.951 . S
C1003 C1001 1.388 . S
C1003 C1004 1.366 . S
C1004 C1003 1.366 . S
C1004 C1005 1.414 . S
C1004 C1007 1.499 . S
C1005 H979 0.950 . S
C1005 C1004 1.414 . S
C1005 C1006 1.374 . S
C1006 H980 0.950 . S
C1006 C1002 1.385 . S
C1006 C1005 1.374 . S
C1007 C1004 1.499 . S
C1007 C1008 1.373 . S
C1007 C1009 1.389 . S
C1008 H981 0.950 . S
C1008 C994 1.377 . S
C1008 C1007 1.373 . S
C1009 C993 1.377 . S
C1009 C1007 1.389 . S
C1009 C1010 1.524 . S
C1010 C1009 1.524 . S
C1010 C1011 1.397 . S
C1010 C1015 1.363 . S
C1011 H982 0.950 . S
C1011 C1010 1.397 . S
C1011 C1012 1.334 . S
C1012 H983 0.950 . S
C1012 C1011 1.334 . S
C1012 C1013 1.287 . S
C1013 C1012 1.287 . S
C1013 C1014 1.524 . S
C1013 H1016 0.999 . S
C1014 H984 0.950 . S
C1014 C1013 1.524 . S
C1014 C1015 1.415 . S
C1015 H985 0.950 . S
C1015 C1010 1.363 . S
C1015 C1014 1.415 . S
H1016 C1013 0.999 . S
H1017 C998 0.913 . S
H1018 C1036 0.951 1_655 S
H1019 C1038 0.951 . S
H1020 C1040 0.950 . S
H1021 C1041 0.950 . S
H1022 C1043 0.950 . S
H1023 C1046 0.950 . S
H1024 C1047 0.950 . S
H1025 C1049 0.950 . S
H1026 C1050 0.950 . S
H1027 C1051 0.951 1_455 S
H1028 C1053 0.951 . S
H1029 C1055 0.950 . S
H1030 C1056 0.950 . S
H1031 C1058 0.950 . S
H1032 C1061 0.950 . S
H1033 C1062 0.950 . S
H1034 C1064 0.950 . S
H1035 C1065 0.950 . S
C1036 H1018 0.951 1_455 S
C1036 C1037 1.366 . S
C1036 C1038 1.388 1_455 S
C1037 C1036 1.366 . S
C1037 C1041 1.385 . S
C1038 H1019 0.951 . S
C1038 C1036 1.388 1_655 S
C1038 C1039 1.366 1_655 S
C1039 C1038 1.366 1_455 S
C1039 C1040 1.414 . S
C1039 C1042 1.499 . S
C1040 H1020 0.950 . S
C1040 C1039 1.414 . S
C1040 C1041 1.374 . S
C1041 H1021 0.950 . S
C1041 C1037 1.385 . S
C1041 C1040 1.374 . S
C1042 C1039 1.499 . S
C1042 C1043 1.373 . S
C1042 C1044 1.389 1_455 S
C1043 H1022 0.950 . S
C1043 C1042 1.373 . S
C1043 C1059 1.377 . S
C1044 C1042 1.389 1_655 S
C1044 C1045 1.524 . S
C1044 C1058 1.377 . S
C1045 C1044 1.524 . S
C1045 C1046 1.397 . S
C1045 C1050 1.363 . S
C1046 H1023 0.950 . S
C1046 C1045 1.397 . S
C1046 C1047 1.334 . S
C1047 H1024 0.950 . S
C1047 C1046 1.334 . S
C1047 C1048 1.287 . S
C1048 C1047 1.287 . S
C1048 C1049 1.524 . S
C1048 H1067 0.913 . S
C1049 H1025 0.950 . S
C1049 C1048 1.524 . S
C1049 C1050 1.415 . S
C1050 H1026 0.950 . S
C1050 C1045 1.363 . S
C1050 C1049 1.415 . S
C1051 H1027 0.951 1_655 S
C1051 C1052 1.366 . S
C1051 C1053 1.388 1_655 S
C1052 C1051 1.366 . S
C1052 C1056 1.385 . S
C1053 H1028 0.951 . S
C1053 C1051 1.388 1_455 S
C1053 C1054 1.366 1_455 S
C1054 C1053 1.366 1_655 S
C1054 C1055 1.414 . S
C1054 C1057 1.499 . S
C1055 H1029 0.950 . S
C1055 C1054 1.414 . S
C1055 C1056 1.374 . S
C1056 H1030 0.950 . S
C1056 C1052 1.385 . S
C1056 C1055 1.374 . S
C1057 C1054 1.499 . S
C1057 C1058 1.373 . S
C1057 C1059 1.389 1_655 S
C1058 H1031 0.950 . S
C1058 C1044 1.377 . S
C1058 C1057 1.373 . S
C1059 C1043 1.377 . S
C1059 C1057 1.389 1_455 S
C1059 C1060 1.524 . S
C1060 C1059 1.524 . S
C1060 C1061 1.397 . S
C1060 C1065 1.363 . S
C1061 H1032 0.950 . S
C1061 C1060 1.397 . S
C1061 C1062 1.334 . S
C1062 H1033 0.950 . S
C1062 C1061 1.334 . S
C1062 C1063 1.287 . S
C1063 C1062 1.287 . S
C1063 C1064 1.524 . S
C1063 H1066 0.999 . S
C1064 H1034 0.950 . S
C1064 C1063 1.524 . S
C1064 C1065 1.415 . S
C1065 H1035 0.950 . S
C1065 C1060 1.363 . S
C1065 C1064 1.415 . S
H1066 C1063 0.999 . S
H1067 C1048 0.913 . S
H1068 C1086 0.951 . S
H1069 C1088 0.951 . S
H1070 C1090 0.950 1_655 S
H1071 C1091 0.950 . S
H1072 C1093 0.950 . S
H1073 C1096 0.950 . S
H1074 C1097 0.950 . S
H1075 C1099 0.950 . S
H1076 C1100 0.950 . S
H1077 C1101 0.951 . S
H1078 C1103 0.951 . S
H1079 C1105 0.950 1_455 S
H1080 C1106 0.950 . S
H1081 C1108 0.950 . S
H1082 C1111 0.950 . S
H1083 C1112 0.950 . S
H1084 C1114 0.950 . S
H1085 C1115 0.950 . S
C1086 H1068 0.951 . S
C1086 C1087 1.366 . S
C1086 C1088 1.388 . S
C1087 C1086 1.366 . S
C1087 C1091 1.385 . S
C1088 H1069 0.951 . S
C1088 C1086 1.388 . S
C1088 C1089 1.366 . S
C1089 C1088 1.366 . S
C1089 C1090 1.414 . S
C1089 C1092 1.499 . S
C1090 H1070 0.950 1_455 S
C1090 C1089 1.414 . S
C1090 C1091 1.374 . S
C1091 H1071 0.950 . S
C1091 C1087 1.385 . S
C1091 C1090 1.374 . S
C1092 C1089 1.499 . S
C1092 C1093 1.373 1_455 S
C1092 C1094 1.389 . S
C1093 H1072 0.950 . S
C1093 C1092 1.373 1_655 S
C1093 C1109 1.377 1_545 S
C1094 C1092 1.389 . S
C1094 C1095 1.524 . S
C1094 C1108 1.377 1_545 S
C1095 C1094 1.524 . S
C1095 C1096 1.397 . S
C1095 C1100 1.363 . S
C1096 H1073 0.950 . S
C1096 C1095 1.397 . S
C1096 C1097 1.334 . S
C1097 H1074 0.950 . S
C1097 C1096 1.334 . S
C1097 C1098 1.287 . S
C1098 C1097 1.287 . S
C1098 C1099 1.524 . S
C1098 H1117 0.913 . S
C1099 H1075 0.950 . S
C1099 C1098 1.524 . S
C1099 C1100 1.415 . S
C1100 H1076 0.950 . S
C1100 C1095 1.363 . S
C1100 C1099 1.415 . S
C1101 H1077 0.951 . S
C1101 C1102 1.366 . S
C1101 C1103 1.388 . S
C1102 C1101 1.366 . S
C1102 C1106 1.385 . S
C1103 H1078 0.951 . S
C1103 C1101 1.388 . S
C1103 C1104 1.366 . S
C1104 C1103 1.366 . S
C1104 C1105 1.414 . S
C1104 C1107 1.499 . S
C1105 H1079 0.950 1_655 S
C1105 C1104 1.414 . S
C1105 C1106 1.374 . S
C1106 H1080 0.950 . S
C1106 C1102 1.385 . S
C1106 C1105 1.374 . S
C1107 C1104 1.499 . S
C1107 C1108 1.373 1_655 S
C1107 C1109 1.389 . S
C1108 H1081 0.950 . S
C1108 C1094 1.377 1_565 S
C1108 C1107 1.373 1_455 S
C1109 C1093 1.377 1_565 S
C1109 C1107 1.389 . S
C1109 C1110 1.524 . S
C1110 C1109 1.524 . S
C1110 C1111 1.397 . S
C1110 C1115 1.363 . S
C1111 H1082 0.950 . S
C1111 C1110 1.397 . S
C1111 C1112 1.334 . S
C1112 H1083 0.950 . S
C1112 C1111 1.334 . S
C1112 C1113 1.287 . S
C1113 C1112 1.287 . S
C1113 C1114 1.524 . S
C1113 H1116 0.999 . S
C1114 H1084 0.950 . S
C1114 C1113 1.524 . S
C1114 C1115 1.415 . S
C1115 H1085 0.950 . S
C1115 C1110 1.363 . S
C1115 C1114 1.415 . S
H1116 C1113 0.999 . S
H1117 C1098 0.913 . S
H1118 C1136 0.951 . S
H1119 C1138 0.951 . S
H1120 C1140 0.950 . S
H1121 C1141 0.950 . S
H1122 C1143 0.944 . S
H1123 C1146 0.950 . S
H1124 C1147 0.950 . S
H1125 C1149 0.950 . S
H1126 C1150 0.950 . S
H1127 C1151 0.951 . S
H1128 C1153 0.951 . S
H1129 C1155 0.950 . S
H1130 C1156 0.950 . S
H1131 C1158 0.940 . S
H1132 C1161 0.950 . S
H1133 C1162 0.950 . S
H1134 C1164 0.950 . S
H1135 C1165 0.950 . S
C1136 H1118 0.951 . S
C1136 C1137 1.366 . S
C1136 C1138 1.388 . S
C1137 C1136 1.366 . S
C1137 C1141 1.385 . S
C1138 H1119 0.951 . S
C1138 C1136 1.388 . S
C1138 C1139 1.366 . S
C1139 C1138 1.366 . S
C1139 C1140 1.414 . S
C1139 C1142 1.499 . S
C1140 H1120 0.950 . S
C1140 C1139 1.414 . S
C1140 C1141 1.374 . S
C1141 H1121 0.950 . S
C1141 C1137 1.385 . S
C1141 C1140 1.374 . S
C1142 C1139 1.499 . S
C1142 C1143 1.362 1_655 S
C1142 C1144 1.389 1_545 S
C1143 H1122 0.944 . S
C1143 C1142 1.362 1_455 S
C1143 C1159 1.395 . S
C1144 C1142 1.389 1_565 S
C1144 C1145 1.524 . S
C1144 C1158 1.404 . S
C1145 C1144 1.524 . S
C1145 C1146 1.397 . S
C1145 C1150 1.363 . S
C1146 H1123 0.950 . S
C1146 C1145 1.397 . S
C1146 C1147 1.334 . S
C1147 H1124 0.950 . S
C1147 C1146 1.334 . S
C1147 C1148 1.287 . S
C1148 C1147 1.287 . S
C1148 C1149 1.524 . S
C1148 H1167 0.913 . S
C1149 H1125 0.950 . S
C1149 C1148 1.524 . S
C1149 C1150 1.415 . S
C1150 H1126 0.950 . S
C1150 C1145 1.363 . S
C1150 C1149 1.415 . S
C1151 H1127 0.951 . S
C1151 C1152 1.366 . S
C1151 C1153 1.388 . S
C1152 C1151 1.366 . S
C1152 C1156 1.385 . S
C1153 H1128 0.951 . S
C1153 C1151 1.388 . S
C1153 C1154 1.366 . S
C1154 C1153 1.366 . S
C1154 C1155 1.414 . S
C1154 C1157 1.499 . S
C1155 H1129 0.950 . S
C1155 C1154 1.414 . S
C1155 C1156 1.374 . S
C1156 H1130 0.950 . S
C1156 C1152 1.385 . S
C1156 C1155 1.374 . S
C1157 C1154 1.499 . S
C1157 C1158 1.356 1_455 S
C1157 C1159 1.389 1_565 S
C1158 H1131 0.940 . S
C1158 C1144 1.404 . S
C1158 C1157 1.356 1_655 S
C1159 C1143 1.395 . S
C1159 C1157 1.389 1_545 S
C1159 C1160 1.524 . S
C1160 C1159 1.524 . S
C1160 C1161 1.397 . S
C1160 C1165 1.363 . S
C1161 H1132 0.950 . S
C1161 C1160 1.397 . S
C1161 C1162 1.334 . S
C1162 H1133 0.950 . S
C1162 C1161 1.334 . S
C1162 C1163 1.287 . S
C1163 C1162 1.287 . S
C1163 C1164 1.524 . S
C1163 H1166 0.999 . S
C1164 H1134 0.950 . S
C1164 C1163 1.524 . S
C1164 C1165 1.415 . S
C1165 H1135 0.950 . S
C1165 C1160 1.363 . S
C1165 C1164 1.415 . S
H1166 C1163 0.999 . S
H1167 C1148 0.913 . S
H1168 C1186 0.951 . S
H1169 C1188 0.951 . S
H1170 C1190 0.950 . S
H1171 C1191 0.950 . S
H1172 C1193 0.950 . S
H1173 C1196 0.950 1_545 S
H1174 C1197 0.944 1_545 S
H1175 C1199 0.950 . S
H1176 C1200 0.950 . S
H1177 C1201 0.951 . S
H1178 C1203 0.951 . S
H1179 C1205 0.950 . S
H1180 C1206 0.950 . S
H1181 C1208 0.950 . S
H1182 C1211 0.950 1_565 S
H1183 C1212 0.946 1_565 S
H1184 C1214 0.950 . S
H1185 C1215 0.950 . S
C1186 H1168 0.951 . S
C1186 C1187 1.366 . S
C1186 C1188 1.388 . S
C1187 C1186 1.366 . S
C1187 C1191 1.385 . S
C1188 H1169 0.951 . S
C1188 C1186 1.388 . S
C1188 C1189 1.366 . S
C1189 C1188 1.366 . S
C1189 C1190 1.414 . S
C1189 C1192 1.499 . S
C1190 H1170 0.950 . S
C1190 C1189 1.414 . S
C1190 C1191 1.374 . S
C1191 H1171 0.950 . S
C1191 C1187 1.385 . S
C1191 C1190 1.374 . S
C1192 C1189 1.499 . S
C1192 C1193 1.373 . S
C1192 C1194 1.389 1_545 S
C1193 H1172 0.950 . S
C1193 C1192 1.373 . S
C1193 C1209 1.377 1_455 S
C1194 C1192 1.389 1_565 S
C1194 C1195 1.524 . S
C1194 C1208 1.377 1_455 S
C1195 C1194 1.524 . S
C1195 C1196 1.397 . S
C1195 C1200 1.363 . S
C1196 H1173 0.950 1_565 S
C1196 C1195 1.397 . S
C1196 C1197 1.334 . S
C1197 H1174 0.944 1_565 S
C1197 C1196 1.334 . S
C1197 C1198 1.287 . S
C1198 C1197 1.287 . S
C1198 C1199 1.524 . S
C1198 H1217 0.913 . S
C1199 H1175 0.950 . S
C1199 C1198 1.524 . S
C1199 C1200 1.415 . S
C1200 H1176 0.950 . S
C1200 C1195 1.363 . S
C1200 C1199 1.415 . S
C1201 H1177 0.951 . S
C1201 C1202 1.366 . S
C1201 C1203 1.388 . S
C1202 C1201 1.366 . S
C1202 C1206 1.385 . S
C1203 H1178 0.951 . S
C1203 C1201 1.388 . S
C1203 C1204 1.366 . S
C1204 C1203 1.366 . S
C1204 C1205 1.414 . S
C1204 C1207 1.499 . S
C1205 H1179 0.950 . S
C1205 C1204 1.414 . S
C1205 C1206 1.374 . S
C1206 H1180 0.950 . S
C1206 C1202 1.385 . S
C1206 C1205 1.374 . S
C1207 C1204 1.499 . S
C1207 C1208 1.373 . S
C1207 C1209 1.389 1_565 S
C1208 H1181 0.950 . S
C1208 C1194 1.377 1_655 S
C1208 C1207 1.373 . S
C1209 C1193 1.377 1_655 S
C1209 C1207 1.389 1_545 S
C1209 C1210 1.524 . S
C1210 C1209 1.524 . S
C1210 C1211 1.397 . S
C1210 C1215 1.363 . S
C1211 H1182 0.950 1_545 S
C1211 C1210 1.397 . S
C1211 C1212 1.334 . S
C1212 H1183 0.946 1_545 S
C1212 C1211 1.334 . S
C1212 C1213 1.287 . S
C1213 C1212 1.287 . S
C1213 C1214 1.524 . S
C1213 H1216 0.999 . S
C1214 H1184 0.950 . S
C1214 C1213 1.524 . S
C1214 C1215 1.415 . S
C1215 H1185 0.950 . S
C1215 C1210 1.363 . S
C1215 C1214 1.415 . S
H1216 C1213 0.999 . S
H1217 C1198 0.913 . S
H1218 C1236 0.951 . S
H1219 C1238 0.951 . S
H1220 C1240 0.950 . S
H1221 C1241 0.950 . S
H1222 C1243 0.950 . S
H1223 C1246 0.950 . S
H1224 C1247 0.950 . S
H1225 C1249 0.950 . S
H1226 C1250 0.950 . S
H1227 C1251 0.951 . S
H1228 C1253 0.951 . S
H1229 C1255 0.950 . S
H1230 C1256 0.950 . S
H1231 C1258 0.950 . S
H1232 C1261 0.950 . S
H1233 C1262 0.950 . S
H1234 C1264 0.950 . S
H1235 C1265 0.950 . S
C1236 H1218 0.951 . S
C1236 C1237 1.366 . S
C1236 C1238 1.388 . S
C1237 C1236 1.366 . S
C1237 C1241 1.385 1_565 S
C1238 H1219 0.951 . S
C1238 C1236 1.388 . S
C1238 C1239 1.366 . S
C1239 C1238 1.366 . S
C1239 C1240 1.414 1_565 S
C1239 C1242 1.499 . S
C1240 H1220 0.950 . S
C1240 C1239 1.414 1_545 S
C1240 C1241 1.374 . S
C1241 H1221 0.950 . S
C1241 C1237 1.385 1_545 S
C1241 C1240 1.374 . S
C1242 C1239 1.499 . S
C1242 C1243 1.373 1_565 S
C1242 C1244 1.389 . S
C1243 H1222 0.950 . S
C1243 C1242 1.373 1_545 S
C1243 C1259 1.377 1_655 S
C1244 C1242 1.389 . S
C1244 C1245 1.524 . S
C1244 C1258 1.377 1_655 S
C1245 C1244 1.524 . S
C1245 C1246 1.397 . S
C1245 C1250 1.363 . S
C1246 H1223 0.950 . S
C1246 C1245 1.397 . S
C1246 C1247 1.334 . S
C1247 H1224 0.950 . S
C1247 C1246 1.334 . S
C1247 C1248 1.287 . S
C1248 C1247 1.287 . S
C1248 C1249 1.524 . S
C1248 H1267 0.913 . S
C1249 H1225 0.950 . S
C1249 C1248 1.524 . S
C1249 C1250 1.415 . S
C1250 H1226 0.950 . S
C1250 C1245 1.363 . S
C1250 C1249 1.415 . S
C1251 H1227 0.951 . S
C1251 C1252 1.366 . S
C1251 C1253 1.388 . S
C1252 C1251 1.366 . S
C1252 C1256 1.385 1_545 S
C1253 H1228 0.951 . S
C1253 C1251 1.388 . S
C1253 C1254 1.366 . S
C1254 C1253 1.366 . S
C1254 C1255 1.414 1_545 S
C1254 C1257 1.499 . S
C1255 H1229 0.950 . S
C1255 C1254 1.414 1_565 S
C1255 C1256 1.374 . S
C1256 H1230 0.950 . S
C1256 C1252 1.385 1_565 S
C1256 C1255 1.374 . S
C1257 C1254 1.499 . S
C1257 C1258 1.373 1_545 S
C1257 C1259 1.389 . S
C1258 H1231 0.950 . S
C1258 C1244 1.377 1_455 S
C1258 C1257 1.373 1_565 S
C1259 C1243 1.377 1_455 S
C1259 C1257 1.389 . S
C1259 C1260 1.524 . S
C1260 C1259 1.524 . S
C1260 C1261 1.397 . S
C1260 C1265 1.363 . S
C1261 H1232 0.950 . S
C1261 C1260 1.397 . S
C1261 C1262 1.334 . S
C1262 H1233 0.950 . S
C1262 C1261 1.334 . S
C1262 C1263 1.287 . S
C1263 C1262 1.287 . S
C1263 C1264 1.524 . S
C1263 H1266 0.999 . S
C1264 H1234 0.950 . S
C1264 C1263 1.524 . S
C1264 C1265 1.415 . S
C1265 H1235 0.950 . S
C1265 C1260 1.363 . S
C1265 C1264 1.415 . S
H1266 C1263 0.999 . S
H1267 C1248 0.913 . S
H1268 C1286 0.951 . S
H1269 C1288 0.951 . S
H1270 C1290 0.950 . S
H1271 C1291 0.950 . S
H1272 C1293 0.950 . S
H1273 C1296 0.950 . S
H1274 C1297 0.950 . S
H1275 C1299 0.946 1_545 S
H1276 C1300 0.950 . S
H1277 C1301 0.951 . S
H1278 C1303 0.951 . S
H1279 C1305 0.950 . S
H1280 C1306 0.950 . S
H1281 C1308 0.950 . S
H1282 C1311 0.950 . S
H1283 C1312 0.950 . S
H1284 C1314 0.946 1_565 S
H1285 C1315 0.950 . S
C1286 H1268 0.951 . S
C1286 C1287 1.366 . S
C1286 C1288 1.388 . S
C1287 C1286 1.366 . S
C1287 C1291 1.385 . S
C1288 H1269 0.951 . S
C1288 C1286 1.388 . S
C1288 C1289 1.366 . S
C1289 C1288 1.366 . S
C1289 C1290 1.414 . S
C1289 C1292 1.499 . S
C1290 H1270 0.950 . S
C1290 C1289 1.414 . S
C1290 C1291 1.374 . S
C1291 H1271 0.950 . S
C1291 C1287 1.385 . S
C1291 C1290 1.374 . S
C1292 C1289 1.499 . S
C1292 C1293 1.373 1_655 S
C1292 C1294 1.389 . S
C1293 H1272 0.950 . S
C1293 C1292 1.373 1_455 S
C1293 C1309 1.377 1_565 S
C1294 C1292 1.389 . S
C1294 C1295 1.524 . S
C1294 C1308 1.377 1_565 S
C1295 C1294 1.524 . S
C1295 C1296 1.397 . S
C1295 C1300 1.363 1_565 S
C1296 H1273 0.950 . S
C1296 C1295 1.397 . S
C1296 C1297 1.334 . S
C1297 H1274 0.950 . S
C1297 C1296 1.334 . S
C1297 C1298 1.287 . S
C1298 C1297 1.287 . S
C1298 C1299 1.526 . S
C1298 H1317 0.913 . S
C1299 H1275 0.946 1_565 S
C1299 C1298 1.526 . S
C1299 C1300 1.417 1_565 S
C1300 H1276 0.950 . S
C1300 C1295 1.363 1_545 S
C1300 C1299 1.417 1_545 S
C1301 H1277 0.951 . S
C1301 C1302 1.366 . S
C1301 C1303 1.388 . S
C1302 C1301 1.366 . S
C1302 C1306 1.385 . S
C1303 H1278 0.951 . S
C1303 C1301 1.388 . S
C1303 C1304 1.366 . S
C1304 C1303 1.366 . S
C1304 C1305 1.414 . S
C1304 C1307 1.499 . S
C1305 H1279 0.950 . S
C1305 C1304 1.414 . S
C1305 C1306 1.374 . S
C1306 H1280 0.950 . S
C1306 C1302 1.385 . S
C1306 C1305 1.374 . S
C1307 C1304 1.499 . S
C1307 C1308 1.373 1_455 S
C1307 C1309 1.389 . S
C1308 H1281 0.950 . S
C1308 C1294 1.377 1_545 S
C1308 C1307 1.373 1_655 S
C1309 C1293 1.377 1_545 S
C1309 C1307 1.389 . S
C1309 C1310 1.524 . S
C1310 C1309 1.524 . S
C1310 C1311 1.397 . S
C1310 C1315 1.363 1_545 S
C1311 H1282 0.950 . S
C1311 C1310 1.397 . S
C1311 C1312 1.334 . S
C1312 H1283 0.950 . S
C1312 C1311 1.334 . S
C1312 C1313 1.287 . S
C1313 C1312 1.287 . S
C1313 C1314 1.526 . S
C1313 H1316 0.999 . S
C1314 H1284 0.946 1_545 S
C1314 C1313 1.526 . S
C1314 C1315 1.417 1_545 S
C1315 H1285 0.950 . S
C1315 C1310 1.363 1_565 S
C1315 C1314 1.417 1_565 S
H1316 C1313 0.999 . S
H1317 C1298 0.913 . S
H1318 C1336 0.950 . S
H1319 C1338 0.951 . S
H1320 C1340 0.950 . S
H1321 C1341 0.950 . S
H1322 C1343 0.950 . S
H1323 C1346 0.950 1_455 S
H1324 C1347 0.950 . S
H1325 C1349 0.950 . S
H1326 C1350 0.950 . S
H1327 C1351 0.949 1_455 S
H1328 C1353 0.951 . S
H1329 C1355 0.950 . S
H1330 C1356 0.950 . S
H1331 C1358 0.950 . S
H1332 C1361 0.950 1_655 S
H1333 C1362 0.950 . S
H1334 C1364 0.950 . S
H1335 C1365 0.950 . S
C1336 H1318 0.950 . S
C1336 C1337 1.369 1_655 S
C1336 C1338 1.385 . S
C1337 C1336 1.369 1_455 S
C1337 C1341 1.385 . S
C1338 H1319 0.951 . S
C1338 C1336 1.385 . S
C1338 C1339 1.366 1_655 S
C1339 C1338 1.366 1_455 S
C1339 C1340 1.414 . S
C1339 C1342 1.499 . S
C1340 H1320 0.950 . S
C1340 C1339 1.414 . S
C1340 C1341 1.374 . S
C1341 H1321 0.950 . S
C1341 C1337 1.385 . S
C1341 C1340 1.374 . S
C1342 C1339 1.499 . S
C1342 C1343 1.373 1_565 S
C1342 C1344 1.389 1_455 S
C1343 H1322 0.950 . S
C1343 C1342 1.373 1_545 S
C1343 C1359 1.377 . S
C1344 C1342 1.389 1_655 S
C1344 C1345 1.524 . S
C1344 C1358 1.377 . S
C1345 C1344 1.524 . S
C1345 C1346 1.397 . S
C1345 C1350 1.363 . S
C1346 H1323 0.950 1_655 S
C1346 C1345 1.397 . S
C1346 C1347 1.334 . S
C1347 H1324 0.950 . S
C1347 C1346 1.334 . S
C1347 C1348 1.287 . S
C1348 C1347 1.287 . S
C1348 C1349 1.524 . S
C1348 H1367 0.913 . S
C1349 H1325 0.950 . S
C1349 C1348 1.524 . S
C1349 C1350 1.415 . S
C1350 H1326 0.950 . S
C1350 C1345 1.363 . S
C1350 C1349 1.415 . S
C1351 H1327 0.949 1_655 S
C1351 C1352 1.372 . S
C1351 C1353 1.384 1_655 S
C1352 C1351 1.372 . S
C1352 C1356 1.385 . S
C1353 H1328 0.951 . S
C1353 C1351 1.384 1_455 S
C1353 C1354 1.366 1_455 S
C1354 C1353 1.366 1_655 S
C1354 C1355 1.414 . S
C1354 C1357 1.499 . S
C1355 H1329 0.950 . S
C1355 C1354 1.414 . S
C1355 C1356 1.374 . S
C1356 H1330 0.950 . S
C1356 C1352 1.385 . S
C1356 C1355 1.374 . S
C1357 C1354 1.499 . S
C1357 C1358 1.373 1_545 S
C1357 C1359 1.389 1_655 S
C1358 H1331 0.950 . S
C1358 C1344 1.377 . S
C1358 C1357 1.373 1_565 S
C1359 C1343 1.377 . S
C1359 C1357 1.389 1_455 S
C1359 C1360 1.524 . S
C1360 C1359 1.524 . S
C1360 C1361 1.397 . S
C1360 C1365 1.363 . S
C1361 H1332 0.950 1_455 S
C1361 C1360 1.397 . S
C1361 C1362 1.334 . S
C1362 H1333 0.950 . S
C1362 C1361 1.334 . S
C1362 C1363 1.287 . S
C1363 C1362 1.287 . S
C1363 C1364 1.524 . S
C1363 H1366 0.999 . S
C1364 H1334 0.950 . S
C1364 C1363 1.524 . S
C1364 C1365 1.415 . S
C1365 H1335 0.950 . S
C1365 C1360 1.363 . S
C1365 C1364 1.415 . S
H1366 C1363 0.999 . S
H1367 C1348 0.913 . S
C187 C154 1.575 . S
C202 C0 1.575 . S
C237 C15 1.576 . S
C252 C97 1.576 . S
C287 C28 1.575 . S
C302 C99 1.576 . S
C337 C55 1.575 . S
C352 C113 1.575 . S
C387 C127 1.575 . S
C402 C68 1.575 . S
C437 C71 1.576 . S
C452 C140 1.575 . S
C487 C1 1.582 . S
C502 C141 1.582 . S
C537 C14 1.581 . S
C552 C155 1.582 . S
C587 C29 1.582 . S
C602 C96 1.582 . S
C637 C54 1.582 . S
C652 C98 1.582 . S
C687 C112 1.581 . S
C702 C69 1.582 . S
C737 C126 1.581 . S
C752 C70 1.581 . S
C787 C42 1.598 . S
C802 C13 1.599 . S
C837 C26 1.598 . S
C852 C57 1.599 . S
C887 C82 1.597 . S
C902 C41 1.599 . S
C937 C138 1.598 . S
C952 C84 1.598 . S
C987 C153 1.599 . S
C1002 C110 1.597 . S
C1037 C124 1.598 . S
C1052 C167 1.599 . S
C1087 C12 1.558 . S
C1102 C43 1.559 . S
C1137 C27 1.559 . S
C1152 C56 1.558 . S
C1187 C83 1.558 . S
C1202 C40 1.557 . S
C1237 C85 1.559 . S
C1252 C139 1.559 . S
C1287 C111 1.559 . S
C1302 C152 1.558 . S
C1337 C125 1.559 . S
C1352 C166 1.558 . S
