# Generated by pormake.
# Topology umr, (4)-cn, num edge types: 1
# Building blocks:
#     Node 0, Type 0, BuildingBlock: TATPOV_clean_sbu_0, # of connection points: 4
#     Node 1, Type 0, BuildingBlock: TATPOV_clean_sbu_0, # of connection points: 4
#     Node 2, Type 0, BuildingBlock: TATPOV_clean_sbu_0, # of connection points: 4
#     Node 3, Type 0, BuildingBlock: TATPOV_clean_sbu_0, # of connection points: 4
#     Node 4, Type 0, BuildingBlock: TATPOV_clean_sbu_0, # of connection points: 4
#     Node 5, Type 0, BuildingBlock: TATPOV_clean_sbu_0, # of connection points: 4
#     Node 6, Type 0, BuildingBlock: TATPOV_clean_sbu_0, # of connection points: 4
#     Node 7, Type 0, BuildingBlock: TATPOV_clean_sbu_0, # of connection points: 4
#     Node 8, Type 0, BuildingBlock: TATPOV_clean_sbu_0, # of connection points: 4
#     Node 9, Type 0, BuildingBlock: TATPOV_clean_sbu_0, # of connection points: 4
#     Node 10, Type 0, BuildingBlock: TATPOV_clean_sbu_0, # of connection points: 4
#     Node 11, Type 0, BuildingBlock: TATPOV_clean_sbu_0, # of connection points: 4
#     Node 12, Type 0, BuildingBlock: TATPOV_clean_sbu_0, # of connection points: 4
#     Node 13, Type 0, BuildingBlock: TATPOV_clean_sbu_0, # of connection points: 4
#     Node 14, Type 0, BuildingBlock: TATPOV_clean_sbu_0, # of connection points: 4
#     Node 15, Type 0, BuildingBlock: TATPOV_clean_sbu_0, # of connection points: 4
#     Node 16, Type 0, BuildingBlock: TATPOV_clean_sbu_0, # of connection points: 4
#     Node 17, Type 0, BuildingBlock: TATPOV_clean_sbu_0, # of connection points: 4
#     Node 18, Type 0, BuildingBlock: TATPOV_clean_sbu_0, # of connection points: 4
#     Node 19, Type 0, BuildingBlock: TATPOV_clean_sbu_0, # of connection points: 4
#     Node 20, Type 0, BuildingBlock: TATPOV_clean_sbu_0, # of connection points: 4
#     Node 21, Type 0, BuildingBlock: TATPOV_clean_sbu_0, # of connection points: 4
#     Node 22, Type 0, BuildingBlock: TATPOV_clean_sbu_0, # of connection points: 4
#     Node 23, Type 0, BuildingBlock: TATPOV_clean_sbu_0, # of connection points: 4
#     Node 24, Type 0, BuildingBlock: TATPOV_clean_sbu_0, # of connection points: 4
#     Node 25, Type 0, BuildingBlock: TATPOV_clean_sbu_0, # of connection points: 4
#     Node 26, Type 0, BuildingBlock: TATPOV_clean_sbu_0, # of connection points: 4
#     Node 27, Type 0, BuildingBlock: TATPOV_clean_sbu_0, # of connection points: 4
#     Node 28, Type 0, BuildingBlock: TATPOV_clean_sbu_0, # of connection points: 4
#     Node 29, Type 0, BuildingBlock: TATPOV_clean_sbu_0, # of connection points: 4
#     Node 30, Type 0, BuildingBlock: TATPOV_clean_sbu_0, # of connection points: 4
#     Node 31, Type 0, BuildingBlock: TATPOV_clean_sbu_0, # of connection points: 4
#     Edge 32, Type (0, 0), None
#     Edge 33, Type (0, 0), None
#     Edge 34, Type (0, 0), None
#     Edge 35, Type (0, 0), None
#     Edge 36, Type (0, 0), None
#     Edge 37, Type (0, 0), None
#     Edge 38, Type (0, 0), None
#     Edge 39, Type (0, 0), None
#     Edge 40, Type (0, 0), None
#     Edge 41, Type (0, 0), None
#     Edge 42, Type (0, 0), None
#     Edge 43, Type (0, 0), None
#     Edge 44, Type (0, 0), None
#     Edge 45, Type (0, 0), None
#     Edge 46, Type (0, 0), None
#     Edge 47, Type (0, 0), None
#     Edge 48, Type (0, 0), None
#     Edge 49, Type (0, 0), None
#     Edge 50, Type (0, 0), None
#     Edge 51, Type (0, 0), None
#     Edge 52, Type (0, 0), None
#     Edge 53, Type (0, 0), None
#     Edge 54, Type (0, 0), None
#     Edge 55, Type (0, 0), None
#     Edge 56, Type (0, 0), None
#     Edge 57, Type (0, 0), None
#     Edge 58, Type (0, 0), None
#     Edge 59, Type (0, 0), None
#     Edge 60, Type (0, 0), None
#     Edge 61, Type (0, 0), None
#     Edge 62, Type (0, 0), None
#     Edge 63, Type (0, 0), None
#     Edge 64, Type (0, 0), None
#     Edge 65, Type (0, 0), None
#     Edge 66, Type (0, 0), None
#     Edge 67, Type (0, 0), None
#     Edge 68, Type (0, 0), None
#     Edge 69, Type (0, 0), None
#     Edge 70, Type (0, 0), None
#     Edge 71, Type (0, 0), None
#     Edge 72, Type (0, 0), None
#     Edge 73, Type (0, 0), None
#     Edge 74, Type (0, 0), None
#     Edge 75, Type (0, 0), None
#     Edge 76, Type (0, 0), None
#     Edge 77, Type (0, 0), None
#     Edge 78, Type (0, 0), None
#     Edge 79, Type (0, 0), None
#     Edge 80, Type (0, 0), None
#     Edge 81, Type (0, 0), None
#     Edge 82, Type (0, 0), None
#     Edge 83, Type (0, 0), None
#     Edge 84, Type (0, 0), None
#     Edge 85, Type (0, 0), None
#     Edge 86, Type (0, 0), None
#     Edge 87, Type (0, 0), None
#     Edge 88, Type (0, 0), None
#     Edge 89, Type (0, 0), None
#     Edge 90, Type (0, 0), None
#     Edge 91, Type (0, 0), None
#     Edge 92, Type (0, 0), None
#     Edge 93, Type (0, 0), None
#     Edge 94, Type (0, 0), None
#     Edge 95, Type (0, 0), None
# Relax obj value: 0.096
# Max RMSD: 0.125
# Mean RMSD: 0.125
data_MOF--net-umr--node1-TATPOV_clean_sbu_0--edge1-none
_symmetry_space_group_name_H-M    P1
_symmetry_Int_Tables_number       1
_symmetry_cell_setting            triclinic
loop_
_symmetry_equiv_pos_as_xyz
'x, y, z'
_cell_length_a     38.144426
_cell_length_b     38.144428
_cell_length_c     12.557533
_cell_angle_alpha  90.005923
_cell_angle_beta   90.003253
_cell_angle_gamma 90.000002
loop_
_atom_site_label
_atom_site_type_symbol
_atom_site_fract_x
_atom_site_fract_y
_atom_site_fract_z
_atom_type_partial_charge
Zn0 Zn 0.16739 0.23494 -0.04351 0.0
Zn1 Zn 0.16504 0.30336 -0.03776 0.0
O2 O 0.14802 0.28771 0.81305 0.0
O3 O 0.14293 0.23031 0.81572 0.0
O4 O 0.14715 0.35309 -0.02331 0.0
O5 O 0.14467 0.2242 0.09768 0.0
O6 O 0.14839 0.2815 0.10411 0.0
C7 C 0.14057 0.25904 0.76595 0.0
C8 C 0.23589 0.27419 -0.04686 0.0
O9 O 0.21848 0.30267 -0.04183 0.0
O10 O 0.22027 0.24475 -0.04729 0.0
C11 C 0.14425 0.3674 0.06786 0.0
O12 O 0.15812 0.352 0.15134 0.0
C13 C 0.14125 0.25245 0.14917 0.0
Zn14 Zn 0.02537 0.91738 0.20651 0.0
Zn15 Zn 0.95695 0.91504 0.21222 0.0
O16 O 0.9726 0.89802 0.06304 0.0
O17 O 0.03 0.89293 0.06574 0.0
O18 O 0.90722 0.89714 0.22666 0.0
O19 O 0.03611 0.89467 0.3477 0.0
O20 O 0.97881 0.8984 0.3541 0.0
C21 C 1.00127 0.89057 0.01595 0.0
C22 C 0.98612 0.98589 0.20314 0.0
O23 O 0.95764 0.96848 0.20816 0.0
O24 O 0.01556 0.97026 0.20272 0.0
C25 C 0.89291 0.89423 0.31782 0.0
O26 O 0.90831 0.9081 0.40131 0.0
C27 C 0.00786 0.89125 0.39917 0.0
Zn28 Zn 0.34296 0.7754 0.45652 0.0
Zn29 Zn 0.34531 0.70698 0.46222 0.0
O30 O 0.36233 0.72263 0.31305 0.0
O31 O 0.36741 0.78003 0.31576 0.0
O32 O 0.3632 0.65725 0.47665 0.0
O33 O 0.36568 0.78614 0.59772 0.0
O34 O 0.36195 0.72884 0.60411 0.0
C35 C 0.36978 0.7513 0.26596 0.0
C36 C 0.27446 0.73615 0.45313 0.0
O37 O 0.29187 0.70767 0.45814 0.0
O38 O 0.29008 0.76559 0.45273 0.0
C39 C 0.3661 0.64294 0.56781 0.0
O40 O 0.35223 0.65834 0.65129 0.0
C41 C 0.3691 0.75789 0.64919 0.0
Zn42 Zn 0.48497 0.09295 0.70652 0.0
Zn43 Zn 0.55339 0.0953 0.71224 0.0
O44 O 0.53773 0.11232 0.56308 0.0
O45 O 0.48033 0.1174 0.56576 0.0
O46 O 0.60312 0.11319 0.72666 0.0
O47 O 0.47423 0.11567 0.84772 0.0
O48 O 0.53154 0.11195 0.85414 0.0
C49 C 0.50906 0.11977 0.51598 0.0
C50 C 0.52422 0.02445 0.70314 0.0
O51 O 0.55269 0.04186 0.70817 0.0
O52 O 0.49478 0.04007 0.70272 0.0
C53 C 0.61744 0.1161 0.81781 0.0
O54 O 0.60204 0.10224 0.90131 0.0
C55 C 0.50249 0.11909 0.8992 0.0
Zn56 Zn 0.16763 0.77564 0.44469 0.0
Zn57 Zn 0.16505 0.70719 0.43897 0.0
O58 O 0.148 0.72284 0.58812 0.0
O59 O 0.1432 0.78027 0.58548 0.0
O60 O 0.14718 0.65745 0.42454 0.0
O61 O 0.14486 0.78636 0.30357 0.0
O62 O 0.14834 0.72904 0.29714 0.0
C63 C 0.14066 0.75154 0.63521 0.0
C64 C 0.236 0.73622 0.44795 0.0
O65 O 0.2185 0.7078 0.44299 0.0
O66 O 0.22048 0.76571 0.44836 0.0
C67 C 0.14434 0.6431 0.33341 0.0
O68 O 0.15821 0.6585 0.24993 0.0
C69 C 0.14127 0.75812 0.25214 0.0
Zn70 Zn 0.48473 0.91762 0.69468 0.0
Zn71 Zn 0.55318 0.91504 0.68899 0.0
O72 O 0.53752 0.89799 0.83814 0.0
O73 O 0.4801 0.89319 0.83547 0.0
O74 O 0.60291 0.89716 0.67455 0.0
O75 O 0.474 0.89485 0.55355 0.0
O76 O 0.53132 0.89833 0.54716 0.0
C77 C 0.50882 0.89065 0.88521 0.0
C78 C 0.52415 0.98599 0.69796 0.0
O79 O 0.55257 0.96849 0.69301 0.0
O80 O 0.49466 0.97047 0.69835 0.0
C81 C 0.61725 0.89433 0.58342 0.0
O82 O 0.60185 0.90821 0.49996 0.0
C83 C 0.50224 0.89126 0.50214 0.0
Zn84 Zn 0.34272 0.23471 0.94469 0.0
Zn85 Zn 0.3453 0.30316 0.939 0.0
O86 O 0.36235 0.2875 0.08816 0.0
O87 O 0.36715 0.23008 0.08548 0.0
O88 O 0.36317 0.35289 0.92456 0.0
O89 O 0.36548 0.22398 0.80357 0.0
O90 O 0.36201 0.2813 0.79718 0.0
C91 C 0.36969 0.25881 0.13523 0.0
C92 C 0.27434 0.27412 0.94795 0.0
O93 O 0.29185 0.30254 0.94301 0.0
O94 O 0.28987 0.24464 0.94835 0.0
C95 C 0.36601 0.36723 0.83343 0.0
O96 O 0.35213 0.35183 0.74996 0.0
C97 C 0.36907 0.25222 0.75215 0.0
Zn98 Zn 0.02561 0.09272 0.19471 0.0
Zn99 Zn 0.95717 0.0953 0.18899 0.0
O100 O 0.97282 0.11235 0.33815 0.0
O101 O 0.03024 0.11715 0.33551 0.0
O102 O 0.90743 0.11318 0.17452 0.0
O103 O 0.03635 0.11548 0.0536 0.0
O104 O 0.97903 0.11201 0.04718 0.0
C105 C 1.00152 0.11969 0.38524 0.0
C106 C 0.98619 0.02434 0.19795 0.0
O107 O 0.95777 0.04185 0.19299 0.0
O108 O 0.01568 0.03987 0.19837 0.0
C109 C 0.8931 0.11601 0.08337 0.0
O110 O 0.9085 0.10213 -8e-05 0.0
C111 C 0.00811 0.11907 0.00217 0.0
Zn112 Zn 0.84293 0.77538 0.94467 0.0
Zn113 Zn 0.84528 0.70695 0.93893 0.0
O114 O 0.8623 0.72261 0.08811 0.0
O115 O 0.86738 0.78 0.08543 0.0
O116 O 0.86318 0.65722 0.92449 0.0
O117 O 0.86565 0.78611 0.80348 0.0
O118 O 0.86192 0.72881 0.79705 0.0
C119 C 0.86975 0.75128 0.13521 0.0
C120 C 0.77443 0.73612 0.94802 0.0
O121 O 0.79184 0.70764 0.94299 0.0
O122 O 0.79005 0.76556 0.94845 0.0
C123 C 0.86609 0.64291 0.83333 0.0
O124 O 0.85222 0.65831 0.74984 0.0
C125 C 0.86907 0.75786 0.75199 0.0
Zn126 Zn 0.98493 0.09296 0.69477 0.0
Zn127 Zn 0.05338 0.0953 0.68904 0.0
O128 O 0.03773 0.11233 0.83822 0.0
O129 O 0.98032 0.11742 0.83553 0.0
O130 O 0.10311 0.11319 0.67458 0.0
O131 O 0.9742 0.11568 0.55357 0.0
O132 O 0.03151 0.11195 0.54717 0.0
C133 C 0.00906 0.11979 0.88529 0.0
C134 C 0.02419 0.02446 0.69813 0.0
O135 O 0.05267 0.04186 0.6931 0.0
O136 O 0.99476 0.04008 0.69855 0.0
C137 C 0.11741 0.11609 0.58341 0.0
O138 O 0.102 0.10222 0.49994 0.0
C139 C 1.00246 0.1191 0.50213 0.0
Zn140 Zn 0.66741 0.23497 0.44464 0.0
Zn141 Zn 0.66506 0.30339 0.43895 0.0
O142 O 0.64804 0.28773 0.58811 0.0
O143 O 0.64296 0.23033 0.5854 0.0
O144 O 0.64716 0.35312 0.42454 0.0
O145 O 0.64468 0.22423 0.30344 0.0
O146 O 0.64842 0.28153 0.29705 0.0
C147 C 0.64059 0.25906 0.6352 0.0
C148 C 0.73591 0.27422 0.44803 0.0
O149 O 0.7185 0.3027 0.44302 0.0
O150 O 0.72028 0.24478 0.44843 0.0
C151 C 0.64425 0.36743 0.33338 0.0
O152 O 0.65812 0.35203 0.24989 0.0
C153 C 0.64127 0.25249 0.25197 0.0
Zn154 Zn 0.52542 0.91738 0.19476 0.0
Zn155 Zn 0.45697 0.91504 0.18902 0.0
O156 O 0.47262 0.89801 0.33818 0.0
O157 O 0.53003 0.89293 0.33551 0.0
O158 O 0.40723 0.89716 0.17458 0.0
O159 O 0.53614 0.89466 0.05355 0.0
O160 O 0.47882 0.89838 0.04714 0.0
C161 C 0.50129 0.89055 0.38526 0.0
C162 C 0.48616 0.98589 0.19813 0.0
O163 O 0.45768 0.96848 0.1931 0.0
O164 O 0.51559 0.97026 0.19855 0.0
C165 C 0.39292 0.89426 0.08342 0.0
O166 O 0.40833 0.90812 -6e-05 0.0
C167 C 0.50788 0.89124 0.0021 0.0
Zn168 Zn 0.84274 0.23473 0.45647 0.0
Zn169 Zn 0.84532 0.30318 0.46219 0.0
O170 O 0.86237 0.28753 0.31304 0.0
O171 O 0.86717 0.23011 0.31568 0.0
O172 O 0.86319 0.35292 0.47665 0.0
O173 O 0.8655 0.224 0.59759 0.0
O174 O 0.86203 0.28132 0.60401 0.0
C175 C 0.86971 0.25883 0.26595 0.0
C176 C 0.77436 0.27415 0.45321 0.0
O177 O 0.79187 0.30257 0.45817 0.0
O178 O 0.78989 0.24466 0.4528 0.0
C179 C 0.86602 0.36726 0.56778 0.0
O180 O 0.85214 0.35186 0.65124 0.0
C181 C 0.8691 0.25224 0.64902 0.0
Zn182 Zn 0.52565 0.09271 0.20658 0.0
Zn183 Zn 0.45718 0.09529 0.21226 0.0
O184 O 0.47284 0.11235 0.06313 0.0
O185 O 0.53027 0.11715 0.0658 0.0
O186 O 0.40744 0.11316 0.22668 0.0
O187 O 0.53636 0.11548 0.34772 0.0
O188 O 0.47903 0.11201 0.3541 0.0
C189 C 0.50154 0.1197 0.01609 0.0
C190 C 0.48622 0.02434 0.20331 0.0
O191 O 0.4578 0.04185 0.20824 0.0
O192 O 0.51571 0.03987 0.20291 0.0
C193 C 0.3931 0.11599 0.3178 0.0
O194 O 0.4085 0.10212 0.40128 0.0
C195 C 0.50811 0.11908 0.3991 0.0
Zn196 Zn 0.6676 0.7756 -0.04353 0.0
Zn197 Zn 0.66502 0.70716 -0.03783 0.0
O198 O 0.64797 0.72281 0.813 0.0
O199 O 0.64316 0.78023 0.81568 0.0
O200 O 0.64714 0.65742 -0.02338 0.0
O201 O 0.64483 0.78634 0.09759 0.0
O202 O 0.64831 0.72902 0.10398 0.0
C203 C 0.64063 0.7515 0.76593 0.0
C204 C 0.73597 0.73619 -0.04679 0.0
O205 O 0.71847 0.70777 -0.04184 0.0
O206 O 0.72045 0.76567 -0.04719 0.0
C207 C 0.64432 0.64308 0.06776 0.0
O208 O 0.6582 0.65849 0.15122 0.0
C209 C 0.64124 0.7581 0.14901 0.0
Zn210 Zn 0.98469 0.91763 0.70655 0.0
Zn211 Zn 0.05316 0.91505 0.71227 0.0
O212 O 0.03751 0.89799 0.56312 0.0
O213 O 0.98007 0.89319 0.56576 0.0
O214 O 0.1029 0.89718 0.72671 0.0
O215 O 0.97397 0.89487 0.84767 0.0
O216 O 0.0313 0.89833 0.85408 0.0
C217 C 0.0088 0.89064 0.51606 0.0
C218 C 0.02412 0.986 0.70331 0.0
O219 O 0.05254 0.9685 0.70826 0.0
O220 O 0.99463 0.97048 0.7029 0.0
C221 C 0.11724 0.89435 0.81785 0.0
O222 O 0.10184 0.90822 0.90132 0.0
C223 C 1.00222 0.89127 0.89907 0.0
Zn224 Zn 0.66737 0.73492 0.45639 0.0
Zn225 Zn 0.66502 0.80336 0.46215 0.0
O226 O 0.64799 0.78772 0.31297 0.0
O227 O 0.64291 0.73031 0.31563 0.0
O228 O 0.64713 0.8531 0.47664 0.0
O229 O 0.64465 0.72419 0.59759 0.0
O230 O 0.64836 0.7815 0.60401 0.0
C231 C 0.64053 0.75905 0.26589 0.0
C232 C 0.73586 0.77418 0.45305 0.0
O233 O 0.71846 0.80266 0.45808 0.0
O234 O 0.72024 0.74475 0.45261 0.0
C235 C 0.64424 0.8674 0.56782 0.0
O236 O 0.65811 0.852 0.6513 0.0
C237 C 0.64122 0.75245 0.64905 0.0
Zn238 Zn 0.52538 0.41739 0.70651 0.0
Zn239 Zn 0.45696 0.41504 0.71222 0.0
O240 O 0.47261 0.39802 0.56304 0.0
O241 O 0.53001 0.39294 0.56574 0.0
O242 O 0.40723 0.39713 0.72668 0.0
O243 O 0.53612 0.39467 0.8477 0.0
O244 O 0.47882 0.39839 0.8541 0.0
C245 C 0.50128 0.39057 0.51594 0.0
C246 C 0.48612 0.48589 0.70315 0.0
O247 O 0.45765 0.46848 0.70816 0.0
O248 O 0.51556 0.47026 0.70273 0.0
C249 C 0.39293 0.39424 0.81785 0.0
O250 O 0.40832 0.40811 0.90135 0.0
C251 C 0.50787 0.39125 0.89917 0.0
Zn252 Zn 0.84298 0.27542 -0.04358 0.0
Zn253 Zn 0.84533 0.20698 -0.03787 0.0
O254 O 0.86236 0.22262 0.81296 0.0
O255 O 0.86744 0.28003 0.81566 0.0
O256 O 0.86322 0.15724 -0.0234 0.0
O257 O 0.86571 0.28615 0.09763 0.0
O258 O 0.86198 0.22884 0.10401 0.0
C259 C 0.86981 0.25129 0.7659 0.0
C260 C 0.77448 0.23616 -0.04696 0.0
O261 O 0.79189 0.20768 -0.04194 0.0
O262 O 0.79011 0.2656 -0.04737 0.0
C263 C 0.8661 0.14294 0.06777 0.0
O264 O 0.85223 0.15834 0.15125 0.0
C265 C 0.86913 0.25789 0.14907 0.0
Zn266 Zn 0.98496 0.59295 0.20652 0.0
Zn267 Zn 0.05338 0.5953 0.21225 0.0
O268 O 0.03772 0.61232 0.06308 0.0
O269 O 0.98032 0.6174 0.06576 0.0
O270 O 0.10311 0.6132 0.22668 0.0
O271 O 0.97422 0.61567 0.34772 0.0
O272 O 0.03152 0.61195 0.35413 0.0
C273 C 0.00905 0.61977 0.01598 0.0
C274 C 0.02421 0.52445 0.20315 0.0
O275 O 0.05269 0.54186 0.20817 0.0
O276 O 0.99477 0.54007 0.20273 0.0
C277 C 0.11742 0.6161 0.31785 0.0
O278 O 0.10203 0.60224 0.40135 0.0
C279 C 1.00248 0.61909 0.3992 0.0
Zn280 Zn 0.66765 0.27565 0.94461 0.0
Zn281 Zn 0.66507 0.20718 0.93889 0.0
O282 O 0.64801 0.22284 0.08803 0.0
O283 O 0.64322 0.28027 0.08539 0.0
O284 O 0.64721 0.15745 0.92447 0.0
O285 O 0.64489 0.28636 0.80348 0.0
O286 O 0.64835 0.22903 0.79707 0.0
C287 C 0.64067 0.25155 0.13509 0.0
C288 C 0.73603 0.23623 0.94786 0.0
O289 O 0.71852 0.20781 0.94291 0.0
O290 O 0.7205 0.26572 0.94827 0.0
C291 C 0.64437 0.1431 0.83335 0.0
O292 O 0.65823 0.15849 0.74984 0.0
C293 C 0.64129 0.25811 0.75208 0.0
Zn294 Zn 0.98473 0.41762 0.19469 0.0
Zn295 Zn 0.05318 0.41505 0.189 0.0
O296 O 0.03753 0.39799 0.33814 0.0
O297 O 0.98011 0.39319 0.33547 0.0
O298 O 0.10292 0.39717 0.17456 0.0
O299 O 0.97401 0.39485 0.05356 0.0
O300 O 0.03133 0.39833 0.04716 0.0
C301 C 0.00883 0.39065 0.38521 0.0
C302 C 0.02415 0.486 0.19796 0.0
O303 O 0.05257 0.46849 0.19302 0.0
O304 O 0.99466 0.47047 0.19836 0.0
C305 C 0.11726 0.39434 0.08343 0.0
O306 O 0.10186 0.40821 -6e-05 0.0
C307 C 1.00225 0.39126 0.00214 0.0
Zn308 Zn 0.8427 0.73469 0.4446 0.0
Zn309 Zn 0.84527 0.80316 0.43892 0.0
O310 O 0.86233 0.78751 0.58806 0.0
O311 O 0.86713 0.73007 0.58539 0.0
O312 O 0.86315 0.8529 0.4245 0.0
O313 O 0.86546 0.72398 0.30347 0.0
O314 O 0.86199 0.78131 0.2971 0.0
C315 C 0.86968 0.7588 0.63511 0.0
C316 C 0.77432 0.77412 0.44786 0.0
O317 O 0.79182 0.80254 0.44293 0.0
O318 O 0.78985 0.74463 0.44826 0.0
C319 C 0.86598 0.86724 0.33337 0.0
O320 O 0.85211 0.85184 0.24986 0.0
C321 C 0.86906 0.75222 0.25209 0.0
Zn322 Zn 0.52561 0.59272 0.69472 0.0
Zn323 Zn 0.45716 0.59529 0.68899 0.0
O324 O 0.47281 0.61235 0.83815 0.0
O325 O 0.53023 0.61715 0.83551 0.0
O326 O 0.40742 0.61317 0.67453 0.0
O327 O 0.53634 0.61548 0.5536 0.0
O328 O 0.47902 0.61201 0.54718 0.0
C329 C 0.50151 0.61969 0.88524 0.0
C330 C 0.48619 0.52434 0.69796 0.0
O331 O 0.45777 0.54185 0.693 0.0
O332 O 0.51568 0.53987 0.69837 0.0
C333 C 0.39309 0.616 0.58339 0.0
O334 O 0.40849 0.60213 0.4999 0.0
C335 C 0.5081 0.61907 0.50217 0.0
Zn336 Zn 0.34295 0.27539 0.44477 0.0
Zn337 Zn 0.3453 0.20695 0.43901 0.0
O338 O 0.36233 0.2226 0.58819 0.0
O339 O 0.36741 0.28 0.58553 0.0
O340 O 0.36319 0.15722 0.42455 0.0
O341 O 0.36567 0.28612 0.30357 0.0
O342 O 0.36195 0.22881 0.29715 0.0
C343 C 0.36978 0.25127 0.63527 0.0
C344 C 0.27445 0.23613 0.44811 0.0
O345 O 0.29186 0.20765 0.44308 0.0
O346 O 0.29007 0.26556 0.44855 0.0
C347 C 0.36609 0.14291 0.33337 0.0
O348 O 0.35223 0.15831 0.24988 0.0
C349 C 0.36909 0.25786 0.25211 0.0
Zn350 Zn 0.48492 0.59296 0.19477 0.0
Zn351 Zn 0.55337 0.59531 0.18904 0.0
O352 O 0.53772 0.61233 0.33822 0.0
O353 O 0.48032 0.61741 0.33553 0.0
O354 O 0.6031 0.6132 0.17455 0.0
O355 O 0.47419 0.61568 0.05357 0.0
O356 O 0.5315 0.61196 0.04718 0.0
C357 C 0.50905 0.61979 0.38529 0.0
C358 C 0.52419 0.52446 0.19812 0.0
O359 O 0.55267 0.54187 0.1931 0.0
O360 O 0.49475 0.54008 0.19854 0.0
C361 C 0.6174 0.61608 0.08337 0.0
O362 O 0.60199 0.60221 -0.0001 0.0
C363 C 0.50245 0.6191 0.00213 0.0
Zn364 Zn 0.16738 0.73495 0.94474 0.0
Zn365 Zn 0.16504 0.80339 0.93903 0.0
O366 O 0.14801 0.78774 0.0882 0.0
O367 O 0.14293 0.73034 0.08549 0.0
O368 O 0.14715 0.85313 0.92459 0.0
O369 O 0.14466 0.72423 0.80353 0.0
O370 O 0.14839 0.78154 0.79715 0.0
C371 C 0.14056 0.75907 0.13526 0.0
C372 C 0.23588 0.77421 0.94812 0.0
O373 O 0.21848 0.80269 0.94311 0.0
O374 O 0.22026 0.74478 0.94853 0.0
C375 C 0.14425 0.86743 0.83342 0.0
O376 O 0.15811 0.85203 0.74992 0.0
C377 C 0.14124 0.75248 0.75209 0.0
Zn378 Zn 0.02542 0.41739 0.69476 0.0
Zn379 Zn 0.95698 0.41504 0.68902 0.0
O380 O 0.97263 0.39801 0.83819 0.0
O381 O 0.03003 0.39293 0.83551 0.0
O382 O 0.90725 0.39715 0.67455 0.0
O383 O 0.03615 0.39466 0.55355 0.0
O384 O 0.97884 0.39838 0.54714 0.0
C385 C 1.0013 0.39055 0.88526 0.0
C386 C 0.98616 0.48588 0.69812 0.0
O387 O 0.95768 0.46848 0.6931 0.0
O388 O 0.0156 0.47026 0.69855 0.0
C389 C 0.89294 0.39426 0.58338 0.0
O390 O 0.90834 0.40813 0.4999 0.0
C391 C 0.00789 0.39124 0.5021 0.0
Zn392 Zn 0.34271 0.73472 -0.04345 0.0
Zn393 Zn 0.34529 0.80318 -0.03773 0.0
O394 O 0.36235 0.78753 0.81313 0.0
O395 O 0.36715 0.7301 0.81577 0.0
O396 O 0.36316 0.85292 -0.02329 0.0
O397 O 0.36548 0.724 0.09768 0.0
O398 O 0.36202 0.78133 0.10409 0.0
C399 C 0.3697 0.75883 0.76607 0.0
C400 C 0.27434 0.77414 -0.0467 0.0
O401 O 0.29185 0.80256 -0.04175 0.0
O402 O 0.28986 0.74465 -0.04711 0.0
C403 C 0.36599 0.86727 0.06784 0.0
O404 O 0.35212 0.85187 0.15133 0.0
C405 C 0.36908 0.75225 0.14908 0.0
Zn406 Zn 0.02564 0.59272 0.70658 0.0
Zn407 Zn 0.95718 0.59529 0.71226 0.0
O408 O 0.97283 0.61235 0.56313 0.0
O409 O 0.03026 0.61715 0.5658 0.0
O410 O 0.90744 0.61315 0.72667 0.0
O411 O 0.03635 0.61549 0.84771 0.0
O412 O 0.97902 0.61201 0.8541 0.0
C413 C 1.00153 0.6197 0.51609 0.0
C414 C 0.98622 0.52434 0.7033 0.0
O415 O 0.9578 0.54184 0.70824 0.0
O416 O 0.01571 0.53987 0.70291 0.0
C417 C 0.89309 0.61598 0.81779 0.0
O418 O 0.90848 0.60212 0.9013 0.0
C419 C 0.0081 0.61908 0.8991 0.0
Zn420 Zn 0.16762 0.27562 0.45656 0.0
Zn421 Zn 0.16504 0.20715 0.46224 0.0
O422 O 0.14799 0.2228 0.31309 0.0
O423 O 0.14319 0.28024 0.31577 0.0
O424 O 0.14717 0.15742 0.47669 0.0
O425 O 0.14486 0.28634 0.59768 0.0
O426 O 0.14833 0.22901 0.60406 0.0
C427 C 0.14064 0.25151 0.26605 0.0
C428 C 0.23599 0.23619 0.4533 0.0
O429 O 0.21849 0.20777 0.45823 0.0
O430 O 0.22047 0.26568 0.4529 0.0
C431 C 0.14434 0.14308 0.56782 0.0
O432 O 0.15822 0.15848 0.65131 0.0
C433 C 0.14126 0.25809 0.64907 0.0
Zn434 Zn 0.4847 0.41763 0.20655 0.0
Zn435 Zn 0.55317 0.41505 0.21227 0.0
O436 O 0.53752 0.39799 0.06311 0.0
O437 O 0.48008 0.39319 0.06576 0.0
O438 O 0.60291 0.39719 0.2267 0.0
O439 O 0.47398 0.39486 0.34767 0.0
O440 O 0.53131 0.39833 0.35408 0.0
C441 C 0.50881 0.39064 0.01606 0.0
C442 C 0.52412 0.486 0.2033 0.0
O443 O 0.55254 0.4685 0.20826 0.0
O444 O 0.49463 0.47048 0.20289 0.0
C445 C 0.61725 0.39436 0.31783 0.0
O446 O 0.60185 0.40822 0.40134 0.0
C447 C 0.50223 0.39127 0.39907 0.0
loop_
_geom_bond_atom_site_label_1
_geom_bond_atom_site_label_2
_geom_bond_distance
_geom_bond_site_symmetry_2
_ccdc_geom_bond_type
Zn0 O3 2.031 1_554 S
Zn0 O5 2.049 . S
Zn0 O10 2.067 . S
Zn1 O2 1.962 1_554 S
Zn1 O4 1.986 . S
Zn1 O6 1.996 . S
Zn1 O9 1.943 . S
O2 Zn1 1.962 1_556 S
O2 C7 1.254 . S
O3 Zn0 2.031 1_556 S
O3 C7 1.269 . S
O4 Zn1 1.986 . S
O4 C11 1.262 . S
O5 Zn0 2.049 . S
O5 C13 1.260 . S
O6 Zn1 1.996 . S
O6 C13 1.257 . S
C7 O2 1.254 . S
C7 O3 1.269 . S
C8 O9 1.249 . S
C8 O10 1.270 . S
O9 Zn1 1.943 . S
O9 C8 1.249 . S
O10 Zn0 2.067 . S
O10 C8 1.270 . S
C11 O4 1.262 . S
C11 O12 1.232 1_554 S
O12 C11 1.232 1_556 S
C13 O5 1.260 . S
C13 O6 1.257 . S
Zn14 O17 2.031 1_455 S
Zn14 O19 2.049 . S
Zn14 O24 2.067 1_455 S
Zn15 O16 1.962 . S
Zn15 O18 1.986 . S
Zn15 O20 1.996 . S
Zn15 O23 1.943 . S
O16 Zn15 1.962 . S
O16 C21 1.254 . S
O17 Zn14 2.031 1_655 S
O17 C21 1.269 . S
O18 Zn15 1.986 . S
O18 C25 1.262 . S
O19 Zn14 2.049 . S
O19 C27 1.260 . S
O20 Zn15 1.996 . S
O20 C27 1.257 1_655 S
C21 O16 1.254 . S
C21 O17 1.269 . S
C22 O23 1.249 . S
C22 O24 1.270 . S
O23 Zn15 1.943 . S
O23 C22 1.249 . S
O24 Zn14 2.067 1_655 S
O24 C22 1.270 . S
C25 O18 1.262 . S
C25 O26 1.232 . S
O26 C25 1.232 . S
C27 O19 1.260 . S
C27 O20 1.257 1_455 S
Zn28 O31 2.031 . S
Zn28 O33 2.049 . S
Zn28 O38 2.067 . S
Zn29 O30 1.962 . S
Zn29 O32 1.986 . S
Zn29 O34 1.996 . S
Zn29 O37 1.943 . S
O30 Zn29 1.962 . S
O30 C35 1.254 . S
O31 Zn28 2.031 . S
O31 C35 1.269 . S
O32 Zn29 1.986 . S
O32 C39 1.262 . S
O33 Zn28 2.049 . S
O33 C41 1.260 . S
O34 Zn29 1.996 . S
O34 C41 1.257 . S
C35 O30 1.254 . S
C35 O31 1.269 . S
C36 O37 1.249 . S
C36 O38 1.270 . S
O37 Zn29 1.943 . S
O37 C36 1.249 . S
O38 Zn28 2.067 . S
O38 C36 1.270 . S
C39 O32 1.262 . S
C39 O40 1.232 . S
O40 C39 1.232 . S
C41 O33 1.260 . S
C41 O34 1.257 . S
Zn42 O45 2.031 . S
Zn42 O47 2.049 1_556 S
Zn42 O52 2.067 . S
Zn43 O44 1.962 . S
Zn43 O46 1.986 . S
Zn43 O48 1.996 . S
Zn43 O51 1.943 . S
O44 Zn43 1.962 . S
O44 C49 1.254 . S
O45 Zn42 2.031 . S
O45 C49 1.269 . S
O46 Zn43 1.986 . S
O46 C53 1.262 . S
O47 Zn42 2.049 1_554 S
O47 C55 1.260 . S
O48 Zn43 1.996 . S
O48 C55 1.257 1_556 S
C49 O44 1.254 . S
C49 O45 1.269 . S
C50 O51 1.249 . S
C50 O52 1.270 . S
O51 Zn43 1.943 . S
O51 C50 1.249 . S
O52 Zn42 2.067 . S
O52 C50 1.270 . S
C53 O46 1.262 . S
C53 O54 1.232 . S
O54 C53 1.232 . S
C55 O47 1.260 . S
C55 O48 1.257 1_554 S
Zn56 O59 2.031 . S
Zn56 O61 2.049 . S
Zn56 O66 2.067 . S
Zn57 O58 1.962 . S
Zn57 O60 1.986 . S
Zn57 O62 1.996 . S
Zn57 O65 1.943 . S
O58 Zn57 1.962 . S
O58 C63 1.254 . S
O59 Zn56 2.031 . S
O59 C63 1.269 . S
O60 Zn57 1.986 . S
O60 C67 1.262 . S
O61 Zn56 2.049 . S
O61 C69 1.260 . S
O62 Zn57 1.996 . S
O62 C69 1.257 . S
C63 O58 1.254 . S
C63 O59 1.269 . S
C64 O65 1.249 . S
C64 O66 1.270 . S
O65 Zn57 1.943 . S
O65 C64 1.249 . S
O66 Zn56 2.067 . S
O66 C64 1.270 . S
C67 O60 1.262 . S
C67 O68 1.232 . S
O68 C67 1.232 . S
C69 O61 1.260 . S
C69 O62 1.257 . S
Zn70 O73 2.031 . S
Zn70 O75 2.049 . S
Zn70 O80 2.067 . S
Zn71 O72 1.962 . S
Zn71 O74 1.986 . S
Zn71 O76 1.996 . S
Zn71 O79 1.943 . S
O72 Zn71 1.962 . S
O72 C77 1.254 . S
O73 Zn70 2.031 . S
O73 C77 1.269 . S
O74 Zn71 1.986 . S
O74 C81 1.262 . S
O75 Zn70 2.049 . S
O75 C83 1.260 . S
O76 Zn71 1.996 . S
O76 C83 1.257 . S
C77 O72 1.254 . S
C77 O73 1.269 . S
C78 O79 1.249 . S
C78 O80 1.270 . S
O79 Zn71 1.943 . S
O79 C78 1.249 . S
O80 Zn70 2.067 . S
O80 C78 1.270 . S
C81 O74 1.262 . S
C81 O82 1.232 . S
O82 C81 1.232 . S
C83 O75 1.260 . S
C83 O76 1.257 . S
Zn84 O87 2.031 1_556 S
Zn84 O89 2.049 . S
Zn84 O94 2.067 . S
Zn85 O86 1.962 1_556 S
Zn85 O88 1.986 . S
Zn85 O90 1.996 . S
Zn85 O93 1.943 . S
O86 Zn85 1.962 1_554 S
O86 C91 1.254 . S
O87 Zn84 2.031 1_554 S
O87 C91 1.269 . S
O88 Zn85 1.986 . S
O88 C95 1.262 . S
O89 Zn84 2.049 . S
O89 C97 1.260 . S
O90 Zn85 1.996 . S
O90 C97 1.257 . S
C91 O86 1.254 . S
C91 O87 1.269 . S
C92 O93 1.249 . S
C92 O94 1.270 . S
O93 Zn85 1.943 . S
O93 C92 1.249 . S
O94 Zn84 2.067 . S
O94 C92 1.270 . S
C95 O88 1.262 . S
C95 O96 1.232 1_556 S
O96 C95 1.232 1_554 S
C97 O89 1.260 . S
C97 O90 1.257 . S
Zn98 O101 2.031 1_455 S
Zn98 O103 2.049 1_554 S
Zn98 O108 2.067 1_455 S
Zn99 O100 1.962 . S
Zn99 O102 1.986 . S
Zn99 O104 1.996 . S
Zn99 O107 1.943 . S
O100 Zn99 1.962 . S
O100 C105 1.254 . S
O101 Zn98 2.031 1_655 S
O101 C105 1.269 . S
O102 Zn99 1.986 . S
O102 C109 1.262 . S
O103 Zn98 2.049 1_556 S
O103 C111 1.260 . S
O104 Zn99 1.996 . S
O104 C111 1.257 1_654 S
C105 O100 1.254 . S
C105 O101 1.269 . S
C106 O107 1.249 . S
C106 O108 1.270 . S
O107 Zn99 1.943 . S
O107 C106 1.249 . S
O108 Zn98 2.067 1_655 S
O108 C106 1.270 . S
C109 O102 1.262 . S
C109 O110 1.232 . S
O110 C109 1.232 . S
C111 O103 1.260 . S
C111 O104 1.257 1_456 S
Zn112 O115 2.031 1_556 S
Zn112 O117 2.049 . S
Zn112 O122 2.067 . S
Zn113 O114 1.962 1_556 S
Zn113 O116 1.986 . S
Zn113 O118 1.996 . S
Zn113 O121 1.943 . S
O114 Zn113 1.962 1_554 S
O114 C119 1.254 . S
O115 Zn112 2.031 1_554 S
O115 C119 1.269 . S
O116 Zn113 1.986 . S
O116 C123 1.262 . S
O117 Zn112 2.049 . S
O117 C125 1.260 . S
O118 Zn113 1.996 . S
O118 C125 1.257 . S
C119 O114 1.254 . S
C119 O115 1.269 . S
C120 O121 1.249 . S
C120 O122 1.270 . S
O121 Zn113 1.943 . S
O121 C120 1.249 . S
O122 Zn112 2.067 . S
O122 C120 1.270 . S
C123 O116 1.262 . S
C123 O124 1.232 1_556 S
O124 C123 1.232 1_554 S
C125 O117 1.260 . S
C125 O118 1.257 . S
Zn126 O129 2.031 1_655 S
Zn126 O131 2.049 . S
Zn126 O136 2.067 1_655 S
Zn127 O128 1.962 . S
Zn127 O130 1.986 . S
Zn127 O132 1.996 . S
Zn127 O135 1.943 . S
O128 Zn127 1.962 . S
O128 C133 1.254 . S
O129 Zn126 2.031 1_455 S
O129 C133 1.269 . S
O130 Zn127 1.986 . S
O130 C137 1.262 . S
O131 Zn126 2.049 . S
O131 C139 1.260 . S
O132 Zn127 1.996 . S
O132 C139 1.257 1_455 S
C133 O128 1.254 . S
C133 O129 1.269 . S
C134 O135 1.249 . S
C134 O136 1.270 . S
O135 Zn127 1.943 . S
O135 C134 1.249 . S
O136 Zn126 2.067 1_455 S
O136 C134 1.270 . S
C137 O130 1.262 . S
C137 O138 1.232 . S
O138 C137 1.232 . S
C139 O131 1.260 . S
C139 O132 1.257 1_655 S
Zn140 O143 2.031 . S
Zn140 O145 2.049 . S
Zn140 O150 2.067 . S
Zn141 O142 1.962 . S
Zn141 O144 1.986 . S
Zn141 O146 1.996 . S
Zn141 O149 1.943 . S
O142 Zn141 1.962 . S
O142 C147 1.254 . S
O143 Zn140 2.031 . S
O143 C147 1.269 . S
O144 Zn141 1.986 . S
O144 C151 1.262 . S
O145 Zn140 2.049 . S
O145 C153 1.260 . S
O146 Zn141 1.996 . S
O146 C153 1.257 . S
C147 O142 1.254 . S
C147 O143 1.269 . S
C148 O149 1.249 . S
C148 O150 1.270 . S
O149 Zn141 1.943 . S
O149 C148 1.249 . S
O150 Zn140 2.067 . S
O150 C148 1.270 . S
C151 O144 1.262 . S
C151 O152 1.232 . S
O152 C151 1.232 . S
C153 O145 1.260 . S
C153 O146 1.257 . S
Zn154 O157 2.031 . S
Zn154 O159 2.049 1_554 S
Zn154 O164 2.067 . S
Zn155 O156 1.962 . S
Zn155 O158 1.986 . S
Zn155 O160 1.996 . S
Zn155 O163 1.943 . S
O156 Zn155 1.962 . S
O156 C161 1.254 . S
O157 Zn154 2.031 . S
O157 C161 1.269 . S
O158 Zn155 1.986 . S
O158 C165 1.262 . S
O159 Zn154 2.049 1_556 S
O159 C167 1.260 . S
O160 Zn155 1.996 . S
O160 C167 1.257 1_554 S
C161 O156 1.254 . S
C161 O157 1.269 . S
C162 O163 1.249 . S
C162 O164 1.270 . S
O163 Zn155 1.943 . S
O163 C162 1.249 . S
O164 Zn154 2.067 . S
O164 C162 1.270 . S
C165 O158 1.262 . S
C165 O166 1.232 . S
O166 C165 1.232 . S
C167 O159 1.260 . S
C167 O160 1.257 1_556 S
Zn168 O171 2.031 . S
Zn168 O173 2.049 . S
Zn168 O178 2.067 . S
Zn169 O170 1.962 . S
Zn169 O172 1.986 . S
Zn169 O174 1.996 . S
Zn169 O177 1.943 . S
O170 Zn169 1.962 . S
O170 C175 1.254 . S
O171 Zn168 2.031 . S
O171 C175 1.269 . S
O172 Zn169 1.986 . S
O172 C179 1.262 . S
O173 Zn168 2.049 . S
O173 C181 1.260 . S
O174 Zn169 1.996 . S
O174 C181 1.257 . S
C175 O170 1.254 . S
C175 O171 1.269 . S
C176 O177 1.249 . S
C176 O178 1.270 . S
O177 Zn169 1.943 . S
O177 C176 1.249 . S
O178 Zn168 2.067 . S
O178 C176 1.270 . S
C179 O172 1.262 . S
C179 O180 1.232 . S
O180 C179 1.232 . S
C181 O173 1.260 . S
C181 O174 1.257 . S
Zn182 O185 2.031 . S
Zn182 O187 2.049 . S
Zn182 O192 2.067 . S
Zn183 O184 1.962 . S
Zn183 O186 1.986 . S
Zn183 O188 1.996 . S
Zn183 O191 1.943 . S
O184 Zn183 1.962 . S
O184 C189 1.254 . S
O185 Zn182 2.031 . S
O185 C189 1.269 . S
O186 Zn183 1.986 . S
O186 C193 1.262 . S
O187 Zn182 2.049 . S
O187 C195 1.260 . S
O188 Zn183 1.996 . S
O188 C195 1.257 . S
C189 O184 1.254 . S
C189 O185 1.269 . S
C190 O191 1.249 . S
C190 O192 1.270 . S
O191 Zn183 1.943 . S
O191 C190 1.249 . S
O192 Zn182 2.067 . S
O192 C190 1.270 . S
C193 O186 1.262 . S
C193 O194 1.232 . S
O194 C193 1.232 . S
C195 O187 1.260 . S
C195 O188 1.257 . S
Zn196 O199 2.031 1_554 S
Zn196 O201 2.049 . S
Zn196 O206 2.067 . S
Zn197 O198 1.962 1_554 S
Zn197 O200 1.986 . S
Zn197 O202 1.996 . S
Zn197 O205 1.943 . S
O198 Zn197 1.962 1_556 S
O198 C203 1.254 . S
O199 Zn196 2.031 1_556 S
O199 C203 1.269 . S
O200 Zn197 1.986 . S
O200 C207 1.262 . S
O201 Zn196 2.049 . S
O201 C209 1.260 . S
O202 Zn197 1.996 . S
O202 C209 1.257 . S
C203 O198 1.254 . S
C203 O199 1.269 . S
C204 O205 1.249 . S
C204 O206 1.270 . S
O205 Zn197 1.943 . S
O205 C204 1.249 . S
O206 Zn196 2.067 . S
O206 C204 1.270 . S
C207 O200 1.262 . S
C207 O208 1.232 1_554 S
O208 C207 1.232 1_556 S
C209 O201 1.260 . S
C209 O202 1.257 . S
Zn210 O213 2.031 1_655 S
Zn210 O215 2.049 1_556 S
Zn210 O220 2.067 1_655 S
Zn211 O212 1.962 . S
Zn211 O214 1.986 . S
Zn211 O216 1.996 . S
Zn211 O219 1.943 . S
O212 Zn211 1.962 . S
O212 C217 1.254 . S
O213 Zn210 2.031 1_455 S
O213 C217 1.269 . S
O214 Zn211 1.986 . S
O214 C221 1.262 . S
O215 Zn210 2.049 1_554 S
O215 C223 1.260 . S
O216 Zn211 1.996 . S
O216 C223 1.257 1_456 S
C217 O212 1.254 . S
C217 O213 1.269 . S
C218 O219 1.249 . S
C218 O220 1.270 . S
O219 Zn211 1.943 . S
O219 C218 1.249 . S
O220 Zn210 2.067 1_455 S
O220 C218 1.270 . S
C221 O214 1.262 . S
C221 O222 1.232 . S
O222 C221 1.232 . S
C223 O215 1.260 . S
C223 O216 1.257 1_654 S
Zn224 O227 2.031 . S
Zn224 O229 2.049 . S
Zn224 O234 2.067 . S
Zn225 O226 1.962 . S
Zn225 O228 1.986 . S
Zn225 O230 1.996 . S
Zn225 O233 1.943 . S
O226 Zn225 1.962 . S
O226 C231 1.254 . S
O227 Zn224 2.031 . S
O227 C231 1.269 . S
O228 Zn225 1.986 . S
O228 C235 1.262 . S
O229 Zn224 2.049 . S
O229 C237 1.260 . S
O230 Zn225 1.996 . S
O230 C237 1.257 . S
C231 O226 1.254 . S
C231 O227 1.269 . S
C232 O233 1.249 . S
C232 O234 1.270 . S
O233 Zn225 1.943 . S
O233 C232 1.249 . S
O234 Zn224 2.067 . S
O234 C232 1.270 . S
C235 O228 1.262 . S
C235 O236 1.232 . S
O236 C235 1.232 . S
C237 O229 1.260 . S
C237 O230 1.257 . S
Zn238 O241 2.031 . S
Zn238 O243 2.049 1_556 S
Zn238 O248 2.067 . S
Zn239 O240 1.962 . S
Zn239 O242 1.986 . S
Zn239 O244 1.996 . S
Zn239 O247 1.943 . S
O240 Zn239 1.962 . S
O240 C245 1.254 . S
O241 Zn238 2.031 . S
O241 C245 1.269 . S
O242 Zn239 1.986 . S
O242 C249 1.262 . S
O243 Zn238 2.049 1_554 S
O243 C251 1.260 . S
O244 Zn239 1.996 . S
O244 C251 1.257 1_556 S
C245 O240 1.254 . S
C245 O241 1.269 . S
C246 O247 1.249 . S
C246 O248 1.270 . S
O247 Zn239 1.943 . S
O247 C246 1.249 . S
O248 Zn238 2.067 . S
O248 C246 1.270 . S
C249 O242 1.262 . S
C249 O250 1.232 . S
O250 C249 1.232 . S
C251 O243 1.260 . S
C251 O244 1.257 1_554 S
Zn252 O255 2.031 1_554 S
Zn252 O257 2.049 . S
Zn252 O262 2.067 . S
Zn253 O254 1.962 1_554 S
Zn253 O256 1.986 . S
Zn253 O258 1.996 . S
Zn253 O261 1.943 . S
O254 Zn253 1.962 1_556 S
O254 C259 1.254 . S
O255 Zn252 2.031 1_556 S
O255 C259 1.269 . S
O256 Zn253 1.986 . S
O256 C263 1.262 . S
O257 Zn252 2.049 . S
O257 C265 1.260 . S
O258 Zn253 1.996 . S
O258 C265 1.257 . S
C259 O254 1.254 . S
C259 O255 1.269 . S
C260 O261 1.249 . S
C260 O262 1.270 . S
O261 Zn253 1.943 . S
O261 C260 1.249 . S
O262 Zn252 2.067 . S
O262 C260 1.270 . S
C263 O256 1.262 . S
C263 O264 1.232 1_554 S
O264 C263 1.232 1_556 S
C265 O257 1.260 . S
C265 O258 1.257 . S
Zn266 O269 2.031 1_655 S
Zn266 O271 2.049 . S
Zn266 O276 2.067 1_655 S
Zn267 O268 1.962 . S
Zn267 O270 1.986 . S
Zn267 O272 1.996 . S
Zn267 O275 1.943 . S
O268 Zn267 1.962 . S
O268 C273 1.254 . S
O269 Zn266 2.031 1_455 S
O269 C273 1.269 . S
O270 Zn267 1.986 . S
O270 C277 1.262 . S
O271 Zn266 2.049 . S
O271 C279 1.260 . S
O272 Zn267 1.996 . S
O272 C279 1.257 1_455 S
C273 O268 1.254 . S
C273 O269 1.269 . S
C274 O275 1.249 . S
C274 O276 1.270 . S
O275 Zn267 1.943 . S
O275 C274 1.249 . S
O276 Zn266 2.067 1_455 S
O276 C274 1.270 . S
C277 O270 1.262 . S
C277 O278 1.232 . S
O278 C277 1.232 . S
C279 O271 1.260 . S
C279 O272 1.257 1_655 S
Zn280 O283 2.031 1_556 S
Zn280 O285 2.049 . S
Zn280 O290 2.067 . S
Zn281 O282 1.962 1_556 S
Zn281 O284 1.986 . S
Zn281 O286 1.996 . S
Zn281 O289 1.943 . S
O282 Zn281 1.962 1_554 S
O282 C287 1.254 . S
O283 Zn280 2.031 1_554 S
O283 C287 1.269 . S
O284 Zn281 1.986 . S
O284 C291 1.262 . S
O285 Zn280 2.049 . S
O285 C293 1.260 . S
O286 Zn281 1.996 . S
O286 C293 1.257 . S
C287 O282 1.254 . S
C287 O283 1.269 . S
C288 O289 1.249 . S
C288 O290 1.270 . S
O289 Zn281 1.943 . S
O289 C288 1.249 . S
O290 Zn280 2.067 . S
O290 C288 1.270 . S
C291 O284 1.262 . S
C291 O292 1.232 1_556 S
O292 C291 1.232 1_554 S
C293 O285 1.260 . S
C293 O286 1.257 . S
Zn294 O297 2.031 1_655 S
Zn294 O299 2.049 1_554 S
Zn294 O304 2.067 1_655 S
Zn295 O296 1.962 . S
Zn295 O298 1.986 . S
Zn295 O300 1.996 . S
Zn295 O303 1.943 . S
O296 Zn295 1.962 . S
O296 C301 1.254 . S
O297 Zn294 2.031 1_455 S
O297 C301 1.269 . S
O298 Zn295 1.986 . S
O298 C305 1.262 . S
O299 Zn294 2.049 1_556 S
O299 C307 1.260 . S
O300 Zn295 1.996 . S
O300 C307 1.257 1_454 S
C301 O296 1.254 . S
C301 O297 1.269 . S
C302 O303 1.249 . S
C302 O304 1.270 . S
O303 Zn295 1.943 . S
O303 C302 1.249 . S
O304 Zn294 2.067 1_455 S
O304 C302 1.270 . S
C305 O298 1.262 . S
C305 O306 1.232 . S
O306 C305 1.232 . S
C307 O299 1.260 . S
C307 O300 1.257 1_656 S
Zn308 O311 2.031 . S
Zn308 O313 2.049 . S
Zn308 O318 2.067 . S
Zn309 O310 1.962 . S
Zn309 O312 1.986 . S
Zn309 O314 1.996 . S
Zn309 O317 1.943 . S
O310 Zn309 1.962 . S
O310 C315 1.254 . S
O311 Zn308 2.031 . S
O311 C315 1.269 . S
O312 Zn309 1.986 . S
O312 C319 1.262 . S
O313 Zn308 2.049 . S
O313 C321 1.260 . S
O314 Zn309 1.996 . S
O314 C321 1.257 . S
C315 O310 1.254 . S
C315 O311 1.269 . S
C316 O317 1.249 . S
C316 O318 1.270 . S
O317 Zn309 1.943 . S
O317 C316 1.249 . S
O318 Zn308 2.067 . S
O318 C316 1.270 . S
C319 O312 1.262 . S
C319 O320 1.232 . S
O320 C319 1.232 . S
C321 O313 1.260 . S
C321 O314 1.257 . S
Zn322 O325 2.031 . S
Zn322 O327 2.049 . S
Zn322 O332 2.067 . S
Zn323 O324 1.962 . S
Zn323 O326 1.986 . S
Zn323 O328 1.996 . S
Zn323 O331 1.943 . S
O324 Zn323 1.962 . S
O324 C329 1.254 . S
O325 Zn322 2.031 . S
O325 C329 1.269 . S
O326 Zn323 1.986 . S
O326 C333 1.262 . S
O327 Zn322 2.049 . S
O327 C335 1.260 . S
O328 Zn323 1.996 . S
O328 C335 1.257 . S
C329 O324 1.254 . S
C329 O325 1.269 . S
C330 O331 1.249 . S
C330 O332 1.270 . S
O331 Zn323 1.943 . S
O331 C330 1.249 . S
O332 Zn322 2.067 . S
O332 C330 1.270 . S
C333 O326 1.262 . S
C333 O334 1.232 . S
O334 C333 1.232 . S
C335 O327 1.260 . S
C335 O328 1.257 . S
Zn336 O339 2.031 . S
Zn336 O341 2.049 . S
Zn336 O346 2.067 . S
Zn337 O338 1.962 . S
Zn337 O340 1.986 . S
Zn337 O342 1.996 . S
Zn337 O345 1.943 . S
O338 Zn337 1.962 . S
O338 C343 1.254 . S
O339 Zn336 2.031 . S
O339 C343 1.269 . S
O340 Zn337 1.986 . S
O340 C347 1.262 . S
O341 Zn336 2.049 . S
O341 C349 1.260 . S
O342 Zn337 1.996 . S
O342 C349 1.257 . S
C343 O338 1.254 . S
C343 O339 1.269 . S
C344 O345 1.249 . S
C344 O346 1.270 . S
O345 Zn337 1.943 . S
O345 C344 1.249 . S
O346 Zn336 2.067 . S
O346 C344 1.270 . S
C347 O340 1.262 . S
C347 O348 1.232 . S
O348 C347 1.232 . S
C349 O341 1.260 . S
C349 O342 1.257 . S
Zn350 O353 2.031 . S
Zn350 O355 2.049 1_554 S
Zn350 O360 2.067 . S
Zn351 O352 1.962 . S
Zn351 O354 1.986 . S
Zn351 O356 1.996 . S
Zn351 O359 1.943 . S
O352 Zn351 1.962 . S
O352 C357 1.254 . S
O353 Zn350 2.031 . S
O353 C357 1.269 . S
O354 Zn351 1.986 . S
O354 C361 1.262 . S
O355 Zn350 2.049 1_556 S
O355 C363 1.260 . S
O356 Zn351 1.996 . S
O356 C363 1.257 1_554 S
C357 O352 1.254 . S
C357 O353 1.269 . S
C358 O359 1.249 . S
C358 O360 1.270 . S
O359 Zn351 1.943 . S
O359 C358 1.249 . S
O360 Zn350 2.067 . S
O360 C358 1.270 . S
C361 O354 1.262 . S
C361 O362 1.232 . S
O362 C361 1.232 . S
C363 O355 1.260 . S
C363 O356 1.257 1_556 S
Zn364 O367 2.031 1_556 S
Zn364 O369 2.049 . S
Zn364 O374 2.067 . S
Zn365 O366 1.962 1_556 S
Zn365 O368 1.986 . S
Zn365 O370 1.996 . S
Zn365 O373 1.943 . S
O366 Zn365 1.962 1_554 S
O366 C371 1.254 . S
O367 Zn364 2.031 1_554 S
O367 C371 1.269 . S
O368 Zn365 1.986 . S
O368 C375 1.262 . S
O369 Zn364 2.049 . S
O369 C377 1.260 . S
O370 Zn365 1.996 . S
O370 C377 1.257 . S
C371 O366 1.254 . S
C371 O367 1.269 . S
C372 O373 1.249 . S
C372 O374 1.270 . S
O373 Zn365 1.943 . S
O373 C372 1.249 . S
O374 Zn364 2.067 . S
O374 C372 1.270 . S
C375 O368 1.262 . S
C375 O376 1.232 1_556 S
O376 C375 1.232 1_554 S
C377 O369 1.260 . S
C377 O370 1.257 . S
Zn378 O381 2.031 1_455 S
Zn378 O383 2.049 . S
Zn378 O388 2.067 1_455 S
Zn379 O380 1.962 . S
Zn379 O382 1.986 . S
Zn379 O384 1.996 . S
Zn379 O387 1.943 . S
O380 Zn379 1.962 . S
O380 C385 1.254 . S
O381 Zn378 2.031 1_655 S
O381 C385 1.269 . S
O382 Zn379 1.986 . S
O382 C389 1.262 . S
O383 Zn378 2.049 . S
O383 C391 1.260 . S
O384 Zn379 1.996 . S
O384 C391 1.257 1_655 S
C385 O380 1.254 . S
C385 O381 1.269 . S
C386 O387 1.249 . S
C386 O388 1.270 . S
O387 Zn379 1.943 . S
O387 C386 1.249 . S
O388 Zn378 2.067 1_655 S
O388 C386 1.270 . S
C389 O382 1.262 . S
C389 O390 1.232 . S
O390 C389 1.232 . S
C391 O383 1.260 . S
C391 O384 1.257 1_455 S
Zn392 O395 2.031 1_554 S
Zn392 O397 2.049 . S
Zn392 O402 2.067 . S
Zn393 O394 1.962 1_554 S
Zn393 O396 1.986 . S
Zn393 O398 1.996 . S
Zn393 O401 1.943 . S
O394 Zn393 1.962 1_556 S
O394 C399 1.254 . S
O395 Zn392 2.031 1_556 S
O395 C399 1.269 . S
O396 Zn393 1.986 . S
O396 C403 1.262 . S
O397 Zn392 2.049 . S
O397 C405 1.260 . S
O398 Zn393 1.996 . S
O398 C405 1.257 . S
C399 O394 1.254 . S
C399 O395 1.269 . S
C400 O401 1.249 . S
C400 O402 1.270 . S
O401 Zn393 1.943 . S
O401 C400 1.249 . S
O402 Zn392 2.067 . S
O402 C400 1.270 . S
C403 O396 1.262 . S
C403 O404 1.232 1_554 S
O404 C403 1.232 1_556 S
C405 O397 1.260 . S
C405 O398 1.257 . S
Zn406 O409 2.031 1_455 S
Zn406 O411 2.049 1_556 S
Zn406 O416 2.067 1_455 S
Zn407 O408 1.962 . S
Zn407 O410 1.986 . S
Zn407 O412 1.996 . S
Zn407 O415 1.943 . S
O408 Zn407 1.962 . S
O408 C413 1.254 . S
O409 Zn406 2.031 1_655 S
O409 C413 1.269 . S
O410 Zn407 1.986 . S
O410 C417 1.262 . S
O411 Zn406 2.049 1_554 S
O411 C419 1.260 . S
O412 Zn407 1.996 . S
O412 C419 1.257 1_656 S
C413 O408 1.254 . S
C413 O409 1.269 . S
C414 O415 1.249 . S
C414 O416 1.270 . S
O415 Zn407 1.943 . S
O415 C414 1.249 . S
O416 Zn406 2.067 1_655 S
O416 C414 1.270 . S
C417 O410 1.262 . S
C417 O418 1.232 . S
O418 C417 1.232 . S
C419 O411 1.260 . S
C419 O412 1.257 1_454 S
Zn420 O423 2.031 . S
Zn420 O425 2.049 . S
Zn420 O430 2.067 . S
Zn421 O422 1.962 . S
Zn421 O424 1.986 . S
Zn421 O426 1.996 . S
Zn421 O429 1.943 . S
O422 Zn421 1.962 . S
O422 C427 1.254 . S
O423 Zn420 2.031 . S
O423 C427 1.269 . S
O424 Zn421 1.986 . S
O424 C431 1.262 . S
O425 Zn420 2.049 . S
O425 C433 1.260 . S
O426 Zn421 1.996 . S
O426 C433 1.257 . S
C427 O422 1.254 . S
C427 O423 1.269 . S
C428 O429 1.249 . S
C428 O430 1.270 . S
O429 Zn421 1.943 . S
O429 C428 1.249 . S
O430 Zn420 2.067 . S
O430 C428 1.270 . S
C431 O424 1.262 . S
C431 O432 1.232 . S
O432 C431 1.232 . S
C433 O425 1.260 . S
C433 O426 1.257 . S
Zn434 O437 2.031 . S
Zn434 O439 2.049 . S
Zn434 O444 2.067 . S
Zn435 O436 1.962 . S
Zn435 O438 1.986 . S
Zn435 O440 1.996 . S
Zn435 O443 1.943 . S
O436 Zn435 1.962 . S
O436 C441 1.254 . S
O437 Zn434 2.031 . S
O437 C441 1.269 . S
O438 Zn435 1.986 . S
O438 C445 1.262 . S
O439 Zn434 2.049 . S
O439 C447 1.260 . S
O440 Zn435 1.996 . S
O440 C447 1.257 . S
C441 O436 1.254 . S
C441 O437 1.269 . S
C442 O443 1.249 . S
C442 O444 1.270 . S
O443 Zn435 1.943 . S
O443 C442 1.249 . S
O444 Zn434 2.067 . S
O444 C442 1.270 . S
C445 O438 1.262 . S
C445 O446 1.232 . S
O446 C445 1.232 . S
C447 O439 1.260 . S
C447 O440 1.257 . S
C92 C8 1.400 1_556 S
C22 C106 1.400 1_565 S
C64 C36 1.400 . S
C50 C78 1.400 1_545 S
C204 C120 1.400 1_554 S
C218 C134 1.400 1_565 S
C148 C176 1.400 . S
C162 C190 1.400 1_565 S
C232 C316 1.400 . S
C246 C330 1.400 . S
C288 C260 1.400 1_556 S
C302 C274 1.400 . S
C344 C428 1.400 . S
C442 C358 1.400 . S
C400 C372 1.400 1_554 S
C386 C414 1.400 . S
C7 C433 1.384 . S
C223 C21 1.384 . S
C35 C405 1.384 . S
C49 C195 1.384 . S
C377 C63 1.384 . S
C167 C77 1.384 . S
C91 C349 1.384 . S
C139 C105 1.384 . S
C119 C321 1.384 . S
C111 C133 1.384 . S
C147 C293 1.384 . S
C161 C83 1.384 . S
C265 C175 1.384 . S
C189 C55 1.384 . S
C203 C237 1.384 . S
C27 C217 1.384 . S
C231 C209 1.384 . S
C245 C447 1.384 . S
C181 C259 1.384 . S
C273 C419 1.384 . S
C153 C287 1.384 . S
C391 C301 1.384 . S
C125 C315 1.384 . S
C363 C329 1.384 . S
C343 C97 1.384 . S
C335 C357 1.384 . S
C69 C371 1.384 . S
C385 C307 1.384 . S
C399 C41 1.384 . S
C413 C279 1.384 . S
C13 C427 1.384 . S
C441 C251 1.384 . S
C11 C305 1.471 . S
C319 C25 1.471 . S
C39 C333 1.471 . S
C291 C53 1.471 . S
C277 C67 1.471 . S
C235 C81 1.471 . S
C249 C95 1.471 . S
C263 C109 1.471 . S
C123 C417 1.471 . S
C431 C137 1.471 . S
C445 C151 1.471 . S
C403 C165 1.471 . S
C389 C179 1.471 . S
C347 C193 1.471 . S
C207 C361 1.471 . S
C221 C375 1.471 . S
