# Generated by pormake.
# Topology rho, (4)-cn, num edge types: 1
# Building blocks:
#     Node 0, Type 0, BuildingBlock: AZAVOO_clean_sbu_0, # of connection points: 4
#     Node 1, Type 0, BuildingBlock: AZAVOO_clean_sbu_0, # of connection points: 4
#     Node 2, Type 0, BuildingBlock: AZAVOO_clean_sbu_0, # of connection points: 4
#     Node 3, Type 0, BuildingBlock: AZAVOO_clean_sbu_0, # of connection points: 4
#     Node 4, Type 0, BuildingBlock: AZAVOO_clean_sbu_0, # of connection points: 4
#     Node 5, Type 0, BuildingBlock: AZAVOO_clean_sbu_0, # of connection points: 4
#     Node 6, Type 0, BuildingBlock: AZAVOO_clean_sbu_0, # of connection points: 4
#     Node 7, Type 0, BuildingBlock: AZAVOO_clean_sbu_0, # of connection points: 4
#     Node 8, Type 0, BuildingBlock: AZAVOO_clean_sbu_0, # of connection points: 4
#     Node 9, Type 0, BuildingBlock: AZAVOO_clean_sbu_0, # of connection points: 4
#     Node 10, Type 0, BuildingBlock: AZAVOO_clean_sbu_0, # of connection points: 4
#     Node 11, Type 0, BuildingBlock: AZAVOO_clean_sbu_0, # of connection points: 4
#     Node 12, Type 0, BuildingBlock: AZAVOO_clean_sbu_0, # of connection points: 4
#     Node 13, Type 0, BuildingBlock: AZAVOO_clean_sbu_0, # of connection points: 4
#     Node 14, Type 0, BuildingBlock: AZAVOO_clean_sbu_0, # of connection points: 4
#     Node 15, Type 0, BuildingBlock: AZAVOO_clean_sbu_0, # of connection points: 4
#     Node 16, Type 0, BuildingBlock: AZAVOO_clean_sbu_0, # of connection points: 4
#     Node 17, Type 0, BuildingBlock: AZAVOO_clean_sbu_0, # of connection points: 4
#     Node 18, Type 0, BuildingBlock: AZAVOO_clean_sbu_0, # of connection points: 4
#     Node 19, Type 0, BuildingBlock: AZAVOO_clean_sbu_0, # of connection points: 4
#     Node 20, Type 0, BuildingBlock: AZAVOO_clean_sbu_0, # of connection points: 4
#     Node 21, Type 0, BuildingBlock: AZAVOO_clean_sbu_0, # of connection points: 4
#     Node 22, Type 0, BuildingBlock: AZAVOO_clean_sbu_0, # of connection points: 4
#     Node 23, Type 0, BuildingBlock: AZAVOO_clean_sbu_0, # of connection points: 4
#     Node 24, Type 0, BuildingBlock: AZAVOO_clean_sbu_0, # of connection points: 4
#     Node 25, Type 0, BuildingBlock: AZAVOO_clean_sbu_0, # of connection points: 4
#     Node 26, Type 0, BuildingBlock: AZAVOO_clean_sbu_0, # of connection points: 4
#     Node 27, Type 0, BuildingBlock: AZAVOO_clean_sbu_0, # of connection points: 4
#     Node 28, Type 0, BuildingBlock: AZAVOO_clean_sbu_0, # of connection points: 4
#     Node 29, Type 0, BuildingBlock: AZAVOO_clean_sbu_0, # of connection points: 4
#     Node 30, Type 0, BuildingBlock: AZAVOO_clean_sbu_0, # of connection points: 4
#     Node 31, Type 0, BuildingBlock: AZAVOO_clean_sbu_0, # of connection points: 4
#     Node 32, Type 0, BuildingBlock: AZAVOO_clean_sbu_0, # of connection points: 4
#     Node 33, Type 0, BuildingBlock: AZAVOO_clean_sbu_0, # of connection points: 4
#     Node 34, Type 0, BuildingBlock: AZAVOO_clean_sbu_0, # of connection points: 4
#     Node 35, Type 0, BuildingBlock: AZAVOO_clean_sbu_0, # of connection points: 4
#     Node 36, Type 0, BuildingBlock: AZAVOO_clean_sbu_0, # of connection points: 4
#     Node 37, Type 0, BuildingBlock: AZAVOO_clean_sbu_0, # of connection points: 4
#     Node 38, Type 0, BuildingBlock: AZAVOO_clean_sbu_0, # of connection points: 4
#     Node 39, Type 0, BuildingBlock: AZAVOO_clean_sbu_0, # of connection points: 4
#     Node 40, Type 0, BuildingBlock: AZAVOO_clean_sbu_0, # of connection points: 4
#     Node 41, Type 0, BuildingBlock: AZAVOO_clean_sbu_0, # of connection points: 4
#     Node 42, Type 0, BuildingBlock: AZAVOO_clean_sbu_0, # of connection points: 4
#     Node 43, Type 0, BuildingBlock: AZAVOO_clean_sbu_0, # of connection points: 4
#     Node 44, Type 0, BuildingBlock: AZAVOO_clean_sbu_0, # of connection points: 4
#     Node 45, Type 0, BuildingBlock: AZAVOO_clean_sbu_0, # of connection points: 4
#     Node 46, Type 0, BuildingBlock: AZAVOO_clean_sbu_0, # of connection points: 4
#     Node 47, Type 0, BuildingBlock: AZAVOO_clean_sbu_0, # of connection points: 4
#     Edge 48, Type (0, 0), BuildingBlock: UVAHIK_clean_linker_0, # of connection points: 2
#     Edge 49, Type (0, 0), BuildingBlock: UVAHIK_clean_linker_0, # of connection points: 2
#     Edge 50, Type (0, 0), BuildingBlock: UVAHIK_clean_linker_0, # of connection points: 2
#     Edge 51, Type (0, 0), BuildingBlock: UVAHIK_clean_linker_0, # of connection points: 2
#     Edge 52, Type (0, 0), BuildingBlock: UVAHIK_clean_linker_0, # of connection points: 2
#     Edge 53, Type (0, 0), BuildingBlock: UVAHIK_clean_linker_0, # of connection points: 2
#     Edge 54, Type (0, 0), BuildingBlock: UVAHIK_clean_linker_0, # of connection points: 2
#     Edge 55, Type (0, 0), BuildingBlock: UVAHIK_clean_linker_0, # of connection points: 2
#     Edge 56, Type (0, 0), BuildingBlock: UVAHIK_clean_linker_0, # of connection points: 2
#     Edge 57, Type (0, 0), BuildingBlock: UVAHIK_clean_linker_0, # of connection points: 2
#     Edge 58, Type (0, 0), BuildingBlock: UVAHIK_clean_linker_0, # of connection points: 2
#     Edge 59, Type (0, 0), BuildingBlock: UVAHIK_clean_linker_0, # of connection points: 2
#     Edge 60, Type (0, 0), BuildingBlock: UVAHIK_clean_linker_0, # of connection points: 2
#     Edge 61, Type (0, 0), BuildingBlock: UVAHIK_clean_linker_0, # of connection points: 2
#     Edge 62, Type (0, 0), BuildingBlock: UVAHIK_clean_linker_0, # of connection points: 2
#     Edge 63, Type (0, 0), BuildingBlock: UVAHIK_clean_linker_0, # of connection points: 2
#     Edge 64, Type (0, 0), BuildingBlock: UVAHIK_clean_linker_0, # of connection points: 2
#     Edge 65, Type (0, 0), BuildingBlock: UVAHIK_clean_linker_0, # of connection points: 2
#     Edge 66, Type (0, 0), BuildingBlock: UVAHIK_clean_linker_0, # of connection points: 2
#     Edge 67, Type (0, 0), BuildingBlock: UVAHIK_clean_linker_0, # of connection points: 2
#     Edge 68, Type (0, 0), BuildingBlock: UVAHIK_clean_linker_0, # of connection points: 2
#     Edge 69, Type (0, 0), BuildingBlock: UVAHIK_clean_linker_0, # of connection points: 2
#     Edge 70, Type (0, 0), BuildingBlock: UVAHIK_clean_linker_0, # of connection points: 2
#     Edge 71, Type (0, 0), BuildingBlock: UVAHIK_clean_linker_0, # of connection points: 2
#     Edge 72, Type (0, 0), BuildingBlock: UVAHIK_clean_linker_0, # of connection points: 2
#     Edge 73, Type (0, 0), BuildingBlock: UVAHIK_clean_linker_0, # of connection points: 2
#     Edge 74, Type (0, 0), BuildingBlock: UVAHIK_clean_linker_0, # of connection points: 2
#     Edge 75, Type (0, 0), BuildingBlock: UVAHIK_clean_linker_0, # of connection points: 2
#     Edge 76, Type (0, 0), BuildingBlock: UVAHIK_clean_linker_0, # of connection points: 2
#     Edge 77, Type (0, 0), BuildingBlock: UVAHIK_clean_linker_0, # of connection points: 2
#     Edge 78, Type (0, 0), BuildingBlock: UVAHIK_clean_linker_0, # of connection points: 2
#     Edge 79, Type (0, 0), BuildingBlock: UVAHIK_clean_linker_0, # of connection points: 2
#     Edge 80, Type (0, 0), BuildingBlock: UVAHIK_clean_linker_0, # of connection points: 2
#     Edge 81, Type (0, 0), BuildingBlock: UVAHIK_clean_linker_0, # of connection points: 2
#     Edge 82, Type (0, 0), BuildingBlock: UVAHIK_clean_linker_0, # of connection points: 2
#     Edge 83, Type (0, 0), BuildingBlock: UVAHIK_clean_linker_0, # of connection points: 2
#     Edge 84, Type (0, 0), BuildingBlock: UVAHIK_clean_linker_0, # of connection points: 2
#     Edge 85, Type (0, 0), BuildingBlock: UVAHIK_clean_linker_0, # of connection points: 2
#     Edge 86, Type (0, 0), BuildingBlock: UVAHIK_clean_linker_0, # of connection points: 2
#     Edge 87, Type (0, 0), BuildingBlock: UVAHIK_clean_linker_0, # of connection points: 2
#     Edge 88, Type (0, 0), BuildingBlock: UVAHIK_clean_linker_0, # of connection points: 2
#     Edge 89, Type (0, 0), BuildingBlock: UVAHIK_clean_linker_0, # of connection points: 2
#     Edge 90, Type (0, 0), BuildingBlock: UVAHIK_clean_linker_0, # of connection points: 2
#     Edge 91, Type (0, 0), BuildingBlock: UVAHIK_clean_linker_0, # of connection points: 2
#     Edge 92, Type (0, 0), BuildingBlock: UVAHIK_clean_linker_0, # of connection points: 2
#     Edge 93, Type (0, 0), BuildingBlock: UVAHIK_clean_linker_0, # of connection points: 2
#     Edge 94, Type (0, 0), BuildingBlock: UVAHIK_clean_linker_0, # of connection points: 2
#     Edge 95, Type (0, 0), BuildingBlock: UVAHIK_clean_linker_0, # of connection points: 2
#     Edge 96, Type (0, 0), BuildingBlock: UVAHIK_clean_linker_0, # of connection points: 2
#     Edge 97, Type (0, 0), BuildingBlock: UVAHIK_clean_linker_0, # of connection points: 2
#     Edge 98, Type (0, 0), BuildingBlock: UVAHIK_clean_linker_0, # of connection points: 2
#     Edge 99, Type (0, 0), BuildingBlock: UVAHIK_clean_linker_0, # of connection points: 2
#     Edge 100, Type (0, 0), BuildingBlock: UVAHIK_clean_linker_0, # of connection points: 2
#     Edge 101, Type (0, 0), BuildingBlock: UVAHIK_clean_linker_0, # of connection points: 2
#     Edge 102, Type (0, 0), BuildingBlock: UVAHIK_clean_linker_0, # of connection points: 2
#     Edge 103, Type (0, 0), BuildingBlock: UVAHIK_clean_linker_0, # of connection points: 2
#     Edge 104, Type (0, 0), BuildingBlock: UVAHIK_clean_linker_0, # of connection points: 2
#     Edge 105, Type (0, 0), BuildingBlock: UVAHIK_clean_linker_0, # of connection points: 2
#     Edge 106, Type (0, 0), BuildingBlock: UVAHIK_clean_linker_0, # of connection points: 2
#     Edge 107, Type (0, 0), BuildingBlock: UVAHIK_clean_linker_0, # of connection points: 2
#     Edge 108, Type (0, 0), BuildingBlock: UVAHIK_clean_linker_0, # of connection points: 2
#     Edge 109, Type (0, 0), BuildingBlock: UVAHIK_clean_linker_0, # of connection points: 2
#     Edge 110, Type (0, 0), BuildingBlock: UVAHIK_clean_linker_0, # of connection points: 2
#     Edge 111, Type (0, 0), BuildingBlock: UVAHIK_clean_linker_0, # of connection points: 2
#     Edge 112, Type (0, 0), BuildingBlock: UVAHIK_clean_linker_0, # of connection points: 2
#     Edge 113, Type (0, 0), BuildingBlock: UVAHIK_clean_linker_0, # of connection points: 2
#     Edge 114, Type (0, 0), BuildingBlock: UVAHIK_clean_linker_0, # of connection points: 2
#     Edge 115, Type (0, 0), BuildingBlock: UVAHIK_clean_linker_0, # of connection points: 2
#     Edge 116, Type (0, 0), BuildingBlock: UVAHIK_clean_linker_0, # of connection points: 2
#     Edge 117, Type (0, 0), BuildingBlock: UVAHIK_clean_linker_0, # of connection points: 2
#     Edge 118, Type (0, 0), BuildingBlock: UVAHIK_clean_linker_0, # of connection points: 2
#     Edge 119, Type (0, 0), BuildingBlock: UVAHIK_clean_linker_0, # of connection points: 2
#     Edge 120, Type (0, 0), BuildingBlock: UVAHIK_clean_linker_0, # of connection points: 2
#     Edge 121, Type (0, 0), BuildingBlock: UVAHIK_clean_linker_0, # of connection points: 2
#     Edge 122, Type (0, 0), BuildingBlock: UVAHIK_clean_linker_0, # of connection points: 2
#     Edge 123, Type (0, 0), BuildingBlock: UVAHIK_clean_linker_0, # of connection points: 2
#     Edge 124, Type (0, 0), BuildingBlock: UVAHIK_clean_linker_0, # of connection points: 2
#     Edge 125, Type (0, 0), BuildingBlock: UVAHIK_clean_linker_0, # of connection points: 2
#     Edge 126, Type (0, 0), BuildingBlock: UVAHIK_clean_linker_0, # of connection points: 2
#     Edge 127, Type (0, 0), BuildingBlock: UVAHIK_clean_linker_0, # of connection points: 2
#     Edge 128, Type (0, 0), BuildingBlock: UVAHIK_clean_linker_0, # of connection points: 2
#     Edge 129, Type (0, 0), BuildingBlock: UVAHIK_clean_linker_0, # of connection points: 2
#     Edge 130, Type (0, 0), BuildingBlock: UVAHIK_clean_linker_0, # of connection points: 2
#     Edge 131, Type (0, 0), BuildingBlock: UVAHIK_clean_linker_0, # of connection points: 2
#     Edge 132, Type (0, 0), BuildingBlock: UVAHIK_clean_linker_0, # of connection points: 2
#     Edge 133, Type (0, 0), BuildingBlock: UVAHIK_clean_linker_0, # of connection points: 2
#     Edge 134, Type (0, 0), BuildingBlock: UVAHIK_clean_linker_0, # of connection points: 2
#     Edge 135, Type (0, 0), BuildingBlock: UVAHIK_clean_linker_0, # of connection points: 2
#     Edge 136, Type (0, 0), BuildingBlock: UVAHIK_clean_linker_0, # of connection points: 2
#     Edge 137, Type (0, 0), BuildingBlock: UVAHIK_clean_linker_0, # of connection points: 2
#     Edge 138, Type (0, 0), BuildingBlock: UVAHIK_clean_linker_0, # of connection points: 2
#     Edge 139, Type (0, 0), BuildingBlock: UVAHIK_clean_linker_0, # of connection points: 2
#     Edge 140, Type (0, 0), BuildingBlock: UVAHIK_clean_linker_0, # of connection points: 2
#     Edge 141, Type (0, 0), BuildingBlock: UVAHIK_clean_linker_0, # of connection points: 2
#     Edge 142, Type (0, 0), BuildingBlock: UVAHIK_clean_linker_0, # of connection points: 2
#     Edge 143, Type (0, 0), BuildingBlock: UVAHIK_clean_linker_0, # of connection points: 2
# Relax obj value: 0.212
# Max RMSD: 0.251
# Mean RMSD: 0.231
data_MOF--net-rho--node1-AZAVOO_clean_sbu_0--edge1-UVAHIK_clean_linker_0
_symmetry_space_group_name_H-M    P1
_symmetry_Int_Tables_number       1
_symmetry_cell_setting            triclinic
loop_
_symmetry_equiv_pos_as_xyz
'x, y, z'
_cell_length_a     91.35773
_cell_length_b     89.838592
_cell_length_c     89.863252
_cell_angle_alpha  90.006334
_cell_angle_beta   89.975494
_cell_angle_gamma 89.954591
loop_
_atom_site_label
_atom_site_type_symbol
_atom_site_fract_x
_atom_site_fract_y
_atom_site_fract_z
_atom_type_partial_charge
Mg0 Mg 0.11244 0.25172 0.44949 0.0
O1 O 0.08822 0.25045 0.44246 0.0
O2 O 0.07835 0.23127 0.45473 0.0
Mg3 Mg 0.09563 0.22078 0.46969 0.0
C4 C 0.07735 0.24202 0.4455 0.0
C5 C 0.11736 0.28067 0.43016 0.0
O6 O 0.1136 0.28734 0.4426 0.0
O7 O 0.11738 0.23137 0.43545 0.0
O8 O 0.10763 0.21275 0.4486 0.0
O9 O 0.10669 0.26674 0.46844 0.0
O10 O 0.10735 0.24222 0.46993 0.0
C11 C 0.11466 0.21757 0.43728 0.0
C12 C 0.10453 0.2548 0.4762 0.0
O13 O 0.1176 0.26655 0.42966 0.0
Mg14 Mg 0.76405 0.08856 0.36902 0.0
O15 O 0.7553 0.08543 0.39292 0.0
O16 O 0.739 0.06689 0.39233 0.0
Mg17 Mg 0.73653 0.05895 0.36843 0.0
C18 C 0.7462 0.07678 0.39941 0.0
C19 C 0.77576 0.12038 0.36567 0.0
O20 O 0.7701 0.11779 0.35248 0.0
O21 O 0.74306 0.10054 0.36235 0.0
O22 O 0.72693 0.08178 0.36251 0.0
O23 O 0.78081 0.07093 0.37341 0.0
O24 O 0.75886 0.06673 0.36394 0.0
C25 C 0.7301 0.0955 0.36072 0.0
C26 C 0.77099 0.06152 0.369 0.0
O27 O 0.77487 0.11035 0.37559 0.0
Mg28 Mg 0.86372 0.72407 0.43022 0.0
O29 O 0.88778 0.73164 0.42894 0.0
O30 O 0.89038 0.75172 0.44341 0.0
Mg31 Mg 0.86801 0.75754 0.45297 0.0
C32 C 0.89566 0.74194 0.4346 0.0
C33 C 0.87374 0.69652 0.4112 0.0
O34 O 0.87911 0.69231 0.42409 0.0
O35 O 0.8575 0.74285 0.41468 0.0
O36 O 0.86054 0.76292 0.42903 0.0
O37 O 0.86922 0.7105 0.45011 0.0
O38 O 0.86186 0.73394 0.45112 0.0
C39 C 0.85729 0.75691 0.41656 0.0
C40 C 0.86702 0.72243 0.45789 0.0
O41 O 0.86706 0.70888 0.41027 0.0
Mg42 Mg 0.22859 0.91073 0.37761 0.0
O43 O 0.23636 0.9092 0.40205 0.0
O44 O 0.25581 0.92415 0.40409 0.0
Mg45 Mg 0.2607 0.93477 0.38174 0.0
C46 C 0.24661 0.91509 0.40974 0.0
C47 C 0.2113 0.88267 0.36914 0.0
O48 O 0.21722 0.88654 0.35638 0.0
O49 O 0.24757 0.89619 0.36975 0.0
O50 O 0.26642 0.91183 0.37238 0.0
O51 O 0.2146 0.93017 0.38374 0.0
O52 O 0.23747 0.93198 0.37597 0.0
C53 C 0.26119 0.89918 0.36871 0.0
C54 C 0.22599 0.93839 0.38126 0.0
O55 O 0.21404 0.89043 0.38063 0.0
Mg56 Mg 0.11926 0.76101 0.59818 0.0
O57 O 0.11761 0.75241 0.57395 0.0
O58 O 0.10258 0.7328 0.57474 0.0
Mg59 Mg 0.09417 0.72914 0.5982 0.0
C60 C 0.11088 0.74169 0.56757 0.0
C61 C 0.14667 0.77965 0.60341 0.0
O62 O 0.14429 0.77353 0.61647 0.0
O63 O 0.13395 0.74153 0.60543 0.0
O64 O 0.11721 0.72338 0.60599 0.0
O65 O 0.09949 0.77562 0.59484 0.0
O66 O 0.09875 0.75253 0.60307 0.0
C67 C 0.13025 0.72805 0.60798 0.0
C68 C 0.09181 0.7644 0.59937 0.0
O69 O 0.13855 0.77595 0.59255 0.0
Mg70 Mg 0.27967 0.15871 0.60117 0.0
O71 O 0.26672 0.13776 0.59463 0.0
O72 O 0.25623 0.1415 0.57248 0.0
Mg73 Mg 0.26153 0.16533 0.56539 0.0
C74 C 0.25893 0.13324 0.58371 0.0
C75 C 0.28934 0.13664 0.62558 0.0
O76 O 0.29167 0.12894 0.61337 0.0
O77 O 0.25826 0.17018 0.60786 0.0
O78 O 0.24842 0.17392 0.5854 0.0
O79 O 0.29874 0.15 0.58831 0.0
O80 O 0.28155 0.16446 0.57879 0.0
C81 C 0.24797 0.1751 0.59957 0.0
C82 C 0.29292 0.15624 0.57677 0.0
O83 O 0.28353 0.14947 0.62451 0.0
Mg84 Mg 0.89406 0.23413 0.60491 0.0
O85 O 0.89751 0.24334 0.58135 0.0
O86 O 0.91707 0.25824 0.58201 0.0
Mg87 Mg 0.92661 0.2579 0.60545 0.0
C88 C 0.90648 0.2522 0.575 0.0
C89 C 0.86098 0.22637 0.60796 0.0
O90 O 0.86343 0.23157 0.6214 0.0
O91 O 0.88543 0.25652 0.61308 0.0
O92 O 0.90613 0.2697 0.61432 0.0
O93 O 0.90856 0.2146 0.60013 0.0
O94 O 0.91632 0.23609 0.60912 0.0
C95 C 0.89234 0.26844 0.6163 0.0
C96 C 0.91934 0.22291 0.60439 0.0
O97 O 0.87133 0.22636 0.59852 0.0
Mg98 Mg 0.74357 0.86328 0.5997 0.0
O99 O 0.75101 0.88775 0.59907 0.0
O100 O 0.76813 0.88997 0.58144 0.0
Mg101 Mg 0.77183 0.86715 0.57105 0.0
C102 C 0.76006 0.89559 0.59159 0.0
C103 C 0.72293 0.87767 0.62343 0.0
O104 O 0.72042 0.88672 0.61222 0.0
O105 O 0.76457 0.85636 0.61154 0.0
O106 O 0.78094 0.85852 0.59317 0.0
O107 O 0.7269 0.86845 0.58222 0.0
O108 O 0.74946 0.86085 0.57756 0.0
C109 C 0.77763 0.85524 0.60659 0.0
C110 C 0.73712 0.86567 0.57261 0.0
O111 O 0.73206 0.86712 0.62179 0.0
Mg112 Mg 0.38918 0.09197 0.23193 0.0
O113 O 0.39008 0.06682 0.22746 0.0
O114 O 0.40549 0.06331 0.20849 0.0
Mg115 Mg 0.4146 0.08572 0.2011 0.0
C116 C 0.39671 0.05827 0.21832 0.0
C117 C 0.36809 0.07976 0.25671 0.0
O118 O 0.37938 0.0711 0.25945 0.0
O119 O 0.37532 0.09591 0.21131 0.0
O120 O 0.39179 0.09305 0.19312 0.0
O121 O 0.40823 0.09026 0.24751 0.0
O122 O 0.41015 0.0947 0.22343 0.0
C123 C 0.37884 0.0961 0.19756 0.0
C124 C 0.4165 0.09253 0.23601 0.0
O125 O 0.36883 0.08907 0.2461 0.0
Mg126 Mg 0.88832 0.38621 0.24635 0.0
O127 O 0.89092 0.41134 0.25158 0.0
O128 O 0.90505 0.41285 0.27182 0.0
Mg129 Mg 0.91103 0.38971 0.2798 0.0
C130 C 0.89762 0.41897 0.26148 0.0
C131 C 0.87454 0.39856 0.21799 0.0
O132 O 0.88793 0.40387 0.21754 0.0
O133 O 0.87177 0.38354 0.26526 0.0
O134 O 0.88678 0.38568 0.28483 0.0
O135 O 0.9089 0.38677 0.23298 0.0
O136 O 0.90812 0.38168 0.25699 0.0
C137 C 0.87405 0.38385 0.27928 0.0
C138 C 0.91582 0.38414 0.24525 0.0
O139 O 0.87056 0.39113 0.22931 0.0
Mg140 Mg 0.59554 0.91617 0.23512 0.0
O141 O 0.59708 0.94125 0.23091 0.0
O142 O 0.58305 0.94605 0.21113 0.0
Mg143 Mg 0.57131 0.92472 0.20397 0.0
C144 C 0.59186 0.95028 0.22131 0.0
C145 C 0.62363 0.90479 0.24885 0.0
O146 O 0.61913 0.89371 0.24048 0.0
O147 O 0.60913 0.9113 0.21455 0.0
O148 O 0.59303 0.91429 0.19611 0.0
O149 O 0.57661 0.91933 0.25062 0.0
O150 O 0.57458 0.91556 0.22644 0.0
C151 C 0.60569 0.91045 0.20082 0.0
C152 C 0.56828 0.91791 0.23903 0.0
O153 O 0.61603 0.91663 0.24931 0.0
Mg154 Mg 0.1443 0.58025 0.25533 0.0
O155 O 0.11951 0.57734 0.25152 0.0
O156 O 0.11593 0.55789 0.23642 0.0
Mg157 Mg 0.13836 0.54936 0.22941 0.0
C158 C 0.11104 0.56852 0.24443 0.0
C159 C 0.13253 0.60213 0.27866 0.0
O160 O 0.12701 0.58936 0.28304 0.0
O161 O 0.14618 0.59138 0.23262 0.0
O162 O 0.14155 0.57191 0.21779 0.0
O163 O 0.14295 0.56376 0.27369 0.0
O164 O 0.14767 0.55781 0.25027 0.0
C165 C 0.1442 0.58573 0.21975 0.0
C166 C 0.14477 0.55361 0.26365 0.0
O167 O 0.14017 0.60247 0.26684 0.0
Mg168 Mg 0.38308 0.88853 0.74551 0.0
O169 O 0.38646 0.91273 0.75362 0.0
O170 O 0.40235 0.91169 0.77249 0.0
Mg171 Mg 0.40882 0.88765 0.77674 0.0
C172 C 0.3941 0.91907 0.76371 0.0
C173 C 0.36628 0.90492 0.72102 0.0
O174 O 0.37951 0.91051 0.71979 0.0
O175 O 0.36846 0.88327 0.76548 0.0
O176 O 0.38522 0.88243 0.78358 0.0
O177 O 0.40232 0.89088 0.73031 0.0
O178 O 0.40374 0.88267 0.75341 0.0
C179 C 0.37201 0.8813 0.77909 0.0
C180 C 0.41033 0.88662 0.74138 0.0
O181 O 0.3637 0.89565 0.73136 0.0
Mg182 Mg 0.12 0.44751 0.72857 0.0
O183 O 0.09946 0.43918 0.74042 0.0
O184 O 0.09599 0.45145 0.76171 0.0
Mg185 Mg 0.11523 0.46771 0.76362 0.0
C186 C 0.09214 0.44158 0.75227 0.0
C187 C 0.10694 0.42358 0.7073 0.0
O188 O 0.09564 0.43256 0.70843 0.0
O189 O 0.13374 0.43461 0.74508 0.0
O190 O 0.13057 0.4475 0.76612 0.0
O191 O 0.10702 0.46542 0.71747 0.0
O192 O 0.11807 0.46791 0.73921 0.0
C193 C 0.13618 0.43663 0.75891 0.0
C194 C 0.10969 0.47346 0.72912 0.0
O195 O 0.11886 0.42711 0.71365 0.0
Mg196 Mg 0.63043 0.08018 0.74466 0.0
O197 O 0.60524 0.08036 0.74274 0.0
O198 O 0.59909 0.06343 0.72558 0.0
Mg199 Mg 0.61981 0.05263 0.71664 0.0
C200 C 0.59562 0.07341 0.73506 0.0
C201 C 0.63554 0.10152 0.77086 0.0
O202 O 0.64111 0.08899 0.77583 0.0
O203 O 0.63209 0.09285 0.72278 0.0
O204 O 0.62603 0.07518 0.70641 0.0
O205 O 0.62911 0.06243 0.76188 0.0
O206 O 0.63076 0.05797 0.73778 0.0
C207 C 0.62993 0.0885 0.70944 0.0
C208 C 0.62903 0.0529 0.75108 0.0
O209 O 0.63002 0.10182 0.75788 0.0
Mg210 Mg 0.87493 0.55016 0.7378 0.0
O211 O 0.89626 0.56167 0.74457 0.0
O212 O 0.90367 0.55256 0.7664 0.0
Mg213 Mg 0.8871 0.53471 0.77336 0.0
C214 C 0.90531 0.56137 0.75538 0.0
C215 C 0.87447 0.56667 0.70701 0.0
O216 O 0.87946 0.55376 0.70236 0.0
O217 O 0.86256 0.5636 0.75508 0.0
O218 O 0.8696 0.5529 0.77636 0.0
O219 O 0.88763 0.53212 0.72649 0.0
O220 O 0.88056 0.53143 0.74999 0.0
C221 C 0.86195 0.56244 0.76922 0.0
C222 C 0.88759 0.52532 0.7392 0.0
O223 O 0.87139 0.56834 0.72068 0.0
Mg224 Mg 0.23739 0.35667 0.09336 0.0
O225 O 0.24283 0.38159 0.09055 0.0
O226 O 0.25965 0.38363 0.07258 0.0
Mg227 Mg 0.26558 0.3604 0.06462 0.0
C228 C 0.25117 0.38945 0.08225 0.0
C229 C 0.21605 0.37161 0.11657 0.0
O230 O 0.21291 0.38011 0.1051 0.0
O231 O 0.25875 0.35287 0.10587 0.0
O232 O 0.27523 0.35565 0.08766 0.0
O233 O 0.22058 0.35892 0.07539 0.0
O234 O 0.24373 0.35281 0.07157 0.0
C235 C 0.27195 0.35323 0.10125 0.0
C236 C 0.23114 0.35627 0.06613 0.0
O237 O 0.22553 0.36136 0.11512 0.0
Mg238 Mg 0.24144 0.58628 0.85896 0.0
O239 O 0.23438 0.58342 0.88335 0.0
O240 O 0.21873 0.56436 0.88463 0.0
Mg241 Mg 0.21517 0.55555 0.86111 0.0
C242 C 0.22607 0.57475 0.89081 0.0
C243 C 0.25448 0.61803 0.85481 0.0
O244 O 0.24993 0.61537 0.8412 0.0
O245 O 0.21957 0.59744 0.85352 0.0
O246 O 0.20452 0.57785 0.85505 0.0
O247 O 0.25908 0.56941 0.86257 0.0
O248 O 0.23679 0.56402 0.85472 0.0
C249 C 0.2068 0.59169 0.85273 0.0
C250 C 0.24943 0.55946 0.85908 0.0
O251 O 0.25217 0.60836 0.86485 0.0
Mg252 Mg 0.3831 0.24609 0.93156 0.0
O253 O 0.40788 0.25062 0.9297 0.0
O254 O 0.41234 0.27205 0.94153 0.0
Mg255 Mg 0.39088 0.28126 0.95053 0.0
C256 C 0.41669 0.26079 0.93407 0.0
C257 C 0.38391 0.21451 0.91704 0.0
O258 O 0.38318 0.21068 0.93113 0.0
O259 O 0.37917 0.26364 0.91395 0.0
O260 O 0.38351 0.28479 0.92623 0.0
O261 O 0.38643 0.2342 0.95294 0.0
O262 O 0.38234 0.25838 0.95127 0.0
C263 C 0.37993 0.2778 0.91438 0.0
C264 C 0.38551 0.24703 0.95944 0.0
O265 O 0.38439 0.22823 0.91364 0.0
Mg266 Mg 0.75041 0.41103 0.86321 0.0
O267 O 0.75718 0.41444 0.88775 0.0
O268 O 0.77274 0.43365 0.88814 0.0
Mg269 Mg 0.7765 0.44197 0.86453 0.0
C270 C 0.76547 0.4235 0.89479 0.0
C271 C 0.73674 0.38023 0.85793 0.0
O272 O 0.74119 0.38401 0.84455 0.0
O273 O 0.77243 0.39989 0.85816 0.0
O274 O 0.78731 0.41961 0.85903 0.0
O275 O 0.73261 0.42773 0.86656 0.0
O276 O 0.75487 0.43331 0.85872 0.0
C277 C 0.78515 0.40569 0.85715 0.0
C278 C 0.74222 0.43777 0.8632 0.0
O279 O 0.73952 0.38888 0.86876 0.0
Mg280 Mg 0.60266 0.74196 0.93904 0.0
O281 O 0.57764 0.74123 0.93581 0.0
O282 O 0.5697 0.72141 0.94853 0.0
Mg283 Mg 0.58892 0.71009 0.96008 0.0
C284 C 0.56733 0.73262 0.94012 0.0
C285 C 0.6039 0.77188 0.92081 0.0
O286 O 0.5998 0.77758 0.93361 0.0
O287 O 0.60479 0.72247 0.92331 0.0
O288 O 0.59751 0.70305 0.93693 0.0
O289 O 0.60025 0.75613 0.95917 0.0
O290 O 0.60052 0.73155 0.95957 0.0
C291 C 0.60246 0.70857 0.92482 0.0
C292 C 0.59895 0.7439 0.96669 0.0
O293 O 0.60544 0.75788 0.91962 0.0
Mg294 Mg 0.77643 0.65407 0.09879 0.0
O295 O 0.76724 0.63082 0.09307 0.0
O296 O 0.75038 0.63346 0.0752 0.0
Mg297 Mg 0.7478 0.65815 0.0705 0.0
C298 C 0.75788 0.62534 0.08401 0.0
C299 C 0.79081 0.65323 0.13 0.0
O300 O 0.78603 0.66702 0.1295 0.0
O301 O 0.75591 0.65914 0.11249 0.0
O302 O 0.73927 0.66072 0.09428 0.0
O303 O 0.79247 0.65141 0.08024 0.0
O304 O 0.77054 0.6615 0.0777 0.0
C305 C 0.74277 0.66093 0.10803 0.0
C306 C 0.78232 0.65653 0.07158 0.0
O307 O 0.78823 0.64466 0.11906 0.0
Mg308 Mg 0.38384 0.73773 0.10308 0.0
O309 O 0.3885 0.74413 0.07889 0.0
O310 O 0.40401 0.76329 0.07859 0.0
Mg311 Mg 0.40952 0.76896 0.10273 0.0
C312 C 0.39604 0.75378 0.07185 0.0
C313 C 0.36667 0.71362 0.08545 0.0
O314 O 0.37974 0.71183 0.0796 0.0
O315 O 0.3691 0.75803 0.10581 0.0
O316 O 0.38569 0.77632 0.1064 0.0
O317 O 0.40327 0.72248 0.10359 0.0
O318 O 0.40386 0.74623 0.10983 0.0
C319 C 0.37245 0.77177 0.10709 0.0
C320 C 0.41076 0.73387 0.10806 0.0
O321 O 0.36479 0.72352 0.09536 0.0
Mg322 Mg 0.61947 0.25773 0.09376 0.0
O323 O 0.61754 0.25079 0.06921 0.0
O324 O 0.60341 0.23055 0.06837 0.0
Mg325 Mg 0.59593 0.22481 0.09187 0.0
C326 C 0.6112 0.24042 0.06194 0.0
C327 C 0.64718 0.27658 0.09838 0.0
O328 O 0.64576 0.27011 0.11141 0.0
O329 O 0.63512 0.23852 0.09871 0.0
O330 O 0.61954 0.21935 0.09858 0.0
O331 O 0.59924 0.27172 0.092 0.0
O332 O 0.59936 0.24806 0.09859 0.0
C333 C 0.63237 0.2247 0.10046 0.0
C334 C 0.59199 0.25994 0.09583 0.0
O335 O 0.63814 0.2734 0.08812 0.0
Mg336 Mg 0.91721 0.7394 0.64297 0.0
O337 O 0.91575 0.73652 0.61758 0.0
O338 O 0.93463 0.72254 0.61012 0.0
Mg339 Mg 0.94779 0.7161 0.63069 0.0
C340 C 0.92305 0.73 0.60734 0.0
C341 C 0.89124 0.75878 0.65302 0.0
O342 O 0.9011 0.76214 0.66311 0.0
O343 O 0.90864 0.71577 0.64593 0.0
O344 O 0.9279 0.70243 0.63821 0.0
O345 O 0.93166 0.75913 0.63975 0.0
O346 O 0.93959 0.73599 0.6422 0.0
C347 C 0.91483 0.70331 0.6432 0.0
C348 C 0.94245 0.74977 0.63957 0.0
O349 O 0.89434 0.74913 0.64318 0.0
Mg350 Mg 0.23208 0.95125 0.5958 0.0
O351 O 0.23866 0.9447 0.57215 0.0
O352 O 0.25819 0.95797 0.56533 0.0
Mg353 Mg 0.26355 0.97396 0.58441 0.0
C354 C 0.24853 0.94806 0.56268 0.0
C355 C 0.21886 0.92124 0.60785 0.0
O356 O 0.22673 0.92483 0.61954 0.0
O357 O 0.25194 0.93909 0.6054 0.0
O358 O 0.27024 0.95434 0.59913 0.0
O359 O 0.21739 0.96951 0.58714 0.0
O360 O 0.24082 0.97229 0.59246 0.0
C361 C 0.26545 0.94271 0.60569 0.0
C362 C 0.22891 0.9779 0.58734 0.0
O363 O 0.21838 0.9301 0.59683 0.0
Mg364 Mg 0.08031 0.2375 0.66339 0.0
O365 O 0.07667 0.24473 0.63917 0.0
O366 O 0.05368 0.2526 0.63602 0.0
Mg367 Mg 0.04327 0.25263 0.65917 0.0
C368 C 0.06639 0.24963 0.63089 0.0
C369 C 0.1086 0.22802 0.64716 0.0
O370 O 0.09844 0.22299 0.63812 0.0
O371 O 0.08298 0.26195 0.66956 0.0
O372 O 0.06013 0.27026 0.66633 0.0
O373 O 0.07108 0.21531 0.65762 0.0
O374 O 0.05786 0.23431 0.66575 0.0
C375 C 0.07357 0.27247 0.66963 0.0
C376 C 0.05834 0.22112 0.66015 0.0
O377 O 0.10476 0.23486 0.65891 0.0
Mg378 Mg 0.7421 0.08235 0.59212 0.0
O379 O 0.73766 0.08054 0.56711 0.0
O380 O 0.7199 0.06381 0.56383 0.0
Mg381 Mg 0.71324 0.05478 0.58664 0.0
C382 C 0.7291 0.07317 0.55866 0.0
C383 C 0.75402 0.11361 0.59851 0.0
O384 O 0.74634 0.11086 0.61057 0.0
O385 O 0.72108 0.09533 0.59549 0.0
O386 O 0.70397 0.07773 0.59334 0.0
O387 O 0.7585 0.06398 0.59054 0.0
O388 O 0.73501 0.06063 0.5954 0.0
C389 C 0.70774 0.0912 0.5959 0.0
C390 C 0.74772 0.05493 0.59295 0.0
O391 O 0.75463 0.10379 0.58835 0.0
Mg392 Mg 0.90555 0.25772 0.38263 0.0
O393 O 0.90495 0.26285 0.40772 0.0
O394 O 0.91986 0.28213 0.41183 0.0
Mg395 Mg 0.92908 0.28986 0.38964 0.0
C396 C 0.91106 0.27215 0.41652 0.0
C397 C 0.87687 0.24126 0.37444 0.0
O398 O 0.87912 0.24895 0.36221 0.0
O399 O 0.89087 0.27751 0.37794 0.0
O400 O 0.90576 0.29672 0.38246 0.0
O401 O 0.92456 0.24297 0.3864 0.0
O402 O 0.92649 0.26696 0.38121 0.0
C403 C 0.8933 0.29145 0.37871 0.0
C404 C 0.93274 0.25466 0.38507 0.0
O405 O 0.88581 0.24259 0.38518 0.0
Mg406 Mg 0.74686 0.87386 0.38842 0.0
O407 O 0.75636 0.89732 0.38986 0.0
O408 O 0.77354 0.89831 0.40747 0.0
Mg409 Mg 0.77536 0.87486 0.41702 0.0
C410 C 0.7659 0.9045 0.39733 0.0
C411 C 0.73385 0.87167 0.35607 0.0
O412 O 0.73882 0.85798 0.35697 0.0
O413 O 0.76716 0.86581 0.37608 0.0
O414 O 0.78365 0.86644 0.39443 0.0
O415 O 0.73068 0.87958 0.40612 0.0
O416 O 0.75258 0.87003 0.41047 0.0
C417 C 0.78014 0.8638 0.38092 0.0
C418 C 0.74055 0.87548 0.41561 0.0
O419 O 0.73567 0.88048 0.36695 0.0
Mg420 Mg 0.07243 0.75182 0.38001 0.0
O421 O 0.07793 0.74493 0.40395 0.0
O422 O 0.065 0.72463 0.40962 0.0
Mg423 Mg 0.05132 0.71843 0.38926 0.0
C424 C 0.07423 0.73472 0.41308 0.0
C425 C 0.09955 0.77 0.36884 0.0
O426 O 0.09612 0.76326 0.35634 0.0
O427 O 0.08637 0.73281 0.37084 0.0
O428 O 0.07244 0.71314 0.37649 0.0
O429 O 0.05355 0.76522 0.38852 0.0
O430 O 0.05204 0.74167 0.38162 0.0
C431 C 0.08392 0.71881 0.37068 0.0
C432 C 0.04582 0.7532 0.38729 0.0
O433 O 0.09192 0.76754 0.3804 0.0
Mg434 Mg 0.25964 0.12301 0.4038 0.0
O435 O 0.25213 0.09912 0.4084 0.0
O436 O 0.24093 0.0976 0.43047 0.0
Mg437 Mg 0.23962 0.12138 0.43919 0.0
C438 C 0.24568 0.09163 0.41853 0.0
C439 C 0.27403 0.10494 0.37896 0.0
O440 O 0.27808 0.09789 0.39109 0.0
O441 O 0.23627 0.12874 0.39704 0.0
O442 O 0.22504 0.12694 0.41913 0.0
O443 O 0.28034 0.1196 0.41655 0.0
O444 O 0.25954 0.12715 0.42665 0.0
C445 C 0.22478 0.12922 0.40511 0.0
C446 C 0.27298 0.12311 0.42834 0.0
O447 O 0.2658 0.1163 0.38017 0.0
Mg448 Mg 0.59087 0.86542 0.75868 0.0
O449 O 0.59295 0.89017 0.76428 0.0
O450 O 0.57519 0.89709 0.77989 0.0
Mg451 Mg 0.56261 0.87593 0.78575 0.0
C452 C 0.58635 0.90009 0.77191 0.0
C453 C 0.61435 0.87674 0.73713 0.0
O454 O 0.60332 0.88582 0.73467 0.0
O455 O 0.60123 0.85945 0.78099 0.0
O456 O 0.58323 0.86611 0.79654 0.0
O457 O 0.57453 0.87076 0.74089 0.0
O458 O 0.56878 0.86596 0.76428 0.0
C459 C 0.59599 0.86077 0.79411 0.0
C460 C 0.56464 0.86988 0.75117 0.0
O461 O 0.61293 0.86658 0.74687 0.0
Mg462 Mg 0.06076 0.65805 0.75302 0.0
O463 O 0.06241 0.63298 0.74769 0.0
O464 O 0.04746 0.62784 0.72868 0.0
Mg465 Mg 0.03768 0.64972 0.72082 0.0
C466 C 0.05662 0.62376 0.73859 0.0
C467 C 0.07983 0.64744 0.77933 0.0
O468 O 0.06742 0.64056 0.782 0.0
O469 O 0.07546 0.663 0.73326 0.0
O470 O 0.06109 0.65682 0.71411 0.0
O471 O 0.04192 0.65321 0.76773 0.0
O472 O 0.0397 0.65822 0.74375 0.0
C473 C 0.07333 0.66127 0.71935 0.0
C474 C 0.03377 0.65365 0.75597 0.0
O475 O 0.08072 0.65593 0.76806 0.0
Mg476 Mg 0.4162 0.11138 0.76184 0.0
O477 O 0.41332 0.08632 0.76639 0.0
O478 O 0.43003 0.07975 0.7833 0.0
Mg479 Mg 0.44333 0.10023 0.78976 0.0
C480 C 0.41945 0.07653 0.77461 0.0
C481 C 0.39141 0.10302 0.73919 0.0
O482 O 0.40106 0.09276 0.73566 0.0
O483 O 0.40541 0.11733 0.78398 0.0
O484 O 0.42282 0.11067 0.80019 0.0
O485 O 0.43306 0.10618 0.74445 0.0
O486 O 0.43805 0.11027 0.76814 0.0
C487 C 0.41024 0.11616 0.79726 0.0
C488 C 0.44262 0.10673 0.75508 0.0
O489 O 0.39432 0.11207 0.74965 0.0
Mg490 Mg 0.93976 0.34345 0.7693 0.0
O491 O 0.93813 0.3681 0.76256 0.0
O492 O 0.95421 0.37249 0.7443 0.0
Mg493 Mg 0.9651 0.35046 0.73852 0.0
C494 C 0.94434 0.37691 0.75334 0.0
C495 C 0.91756 0.35516 0.79298 0.0
O496 O 0.92884 0.3637 0.796 0.0
O497 O 0.92663 0.33733 0.74871 0.0
O498 O 0.94256 0.3423 0.73053 0.0
O499 O 0.95756 0.34962 0.785 0.0
O500 O 0.96129 0.34312 0.76157 0.0
C501 C 0.92992 0.3381 0.73494 0.0
C502 C 0.9664 0.34857 0.77378 0.0
O503 O 0.91865 0.34559 0.78263 0.0
Mg504 Mg 0.59379 0.1414 0.24367 0.0
O505 O 0.59642 0.11654 0.23756 0.0
O506 O 0.58263 0.1126 0.21737 0.0
Mg507 Mg 0.57192 0.13431 0.21034 0.0
C508 C 0.59134 0.10794 0.22745 0.0
C509 C 0.61077 0.142 0.27335 0.0
O510 O 0.59736 0.14457 0.27797 0.0
O511 O 0.60898 0.14768 0.22463 0.0
O512 O 0.59494 0.14316 0.2048 0.0
O513 O 0.57449 0.13559 0.25752 0.0
O514 O 0.57315 0.14151 0.2337 0.0
C515 C 0.60704 0.14734 0.21058 0.0
C516 C 0.56672 0.13666 0.24552 0.0
O517 O 0.61308 0.14005 0.25955 0.0
Mg518 Mg 0.93044 0.60859 0.25183 0.0
O519 O 0.92595 0.58375 0.25571 0.0
O520 O 0.94028 0.57609 0.27434 0.0
Mg521 Mg 0.95408 0.59578 0.28221 0.0
C522 C 0.93051 0.57359 0.26449 0.0
C523 C 0.90214 0.62185 0.23786 0.0
O524 O 0.90605 0.63278 0.24673 0.0
O525 O 0.91765 0.61454 0.2729 0.0
O526 O 0.93316 0.60709 0.29066 0.0
O527 O 0.94878 0.60271 0.23624 0.0
O528 O 0.95143 0.60638 0.26038 0.0
C529 C 0.92112 0.61308 0.2866 0.0
C530 C 0.95718 0.60271 0.24785 0.0
O531 O 0.90993 0.61012 0.23747 0.0
Mg532 Mg 0.393 0.8659 0.24269 0.0
O533 O 0.39241 0.89079 0.2361 0.0
O534 O 0.40802 0.89336 0.21709 0.0
Mg535 Mg 0.41769 0.87089 0.2111 0.0
C536 C 0.3989 0.89883 0.22637 0.0
C537 C 0.36739 0.8573 0.26324 0.0
O538 O 0.37349 0.84426 0.26091 0.0
O539 O 0.37892 0.86014 0.22267 0.0
O540 O 0.3947 0.8633 0.20397 0.0
O541 O 0.41142 0.87086 0.25797 0.0
O542 O 0.41428 0.86435 0.23442 0.0
C543 C 0.38196 0.86001 0.20882 0.0
C544 C 0.41999 0.86924 0.2466 0.0
O545 O 0.37279 0.86873 0.25698 0.0
Mg546 Mg 0.09768 0.36761 0.2654 0.0
O547 O 0.1005 0.39247 0.27016 0.0
O548 O 0.08533 0.39941 0.28843 0.0
Mg549 Mg 0.07197 0.37888 0.29475 0.0
C550 C 0.09531 0.4023 0.27895 0.0
C551 C 0.11907 0.37779 0.24132 0.0
O552 O 0.10791 0.38689 0.23975 0.0
O553 O 0.10975 0.36171 0.28694 0.0
O554 O 0.09297 0.36835 0.30385 0.0
O555 O 0.08024 0.3728 0.24888 0.0
O556 O 0.07609 0.36879 0.27277 0.0
C557 C 0.10545 0.36292 0.30043 0.0
C558 C 0.0711 0.37243 0.25988 0.0
O559 O 0.11864 0.36805 0.25158 0.0
Mg560 Mg 0.74078 0.6269 0.89362 0.0
O561 O 0.73895 0.60158 0.89585 0.0
O562 O 0.72542 0.59611 0.9158 0.0
Mg563 Mg 0.71874 0.61818 0.92646 0.0
C564 C 0.73288 0.59213 0.90447 0.0
C565 C 0.7602 0.63205 0.86592 0.0
O566 O 0.76483 0.64287 0.87455 0.0
O567 O 0.71741 0.62782 0.88494 0.0
O568 O 0.7048 0.62299 0.90572 0.0
O569 O 0.76044 0.62703 0.90839 0.0
O570 O 0.73766 0.62947 0.91632 0.0
C571 C 0.70532 0.62601 0.89182 0.0
C572 C 0.75138 0.62838 0.91939 0.0
O573 O 0.74989 0.62373 0.87044 0.0
Mg574 Mg 0.74951 0.43826 0.0864 0.0
O575 O 0.75671 0.43606 0.06199 0.0
O576 O 0.77608 0.45082 0.05861 0.0
Mg577 Mg 0.78122 0.46255 0.08051 0.0
C578 C 0.76671 0.4415 0.05369 0.0
C579 C 0.73463 0.40884 0.09507 0.0
O580 O 0.74143 0.41251 0.10742 0.0
O581 O 0.76894 0.42437 0.09433 0.0
O582 O 0.78746 0.44034 0.09126 0.0
O583 O 0.73539 0.45805 0.08057 0.0
O584 O 0.75845 0.45935 0.08769 0.0
C585 C 0.78247 0.42776 0.09548 0.0
C586 C 0.74685 0.46609 0.08327 0.0
O587 O 0.7355 0.41749 0.08392 0.0
Mg588 Mg 0.58477 0.74414 0.15892 0.0
O589 O 0.58168 0.74601 0.13359 0.0
O590 O 0.56251 0.7608 0.12896 0.0
Mg591 Mg 0.55487 0.7701 0.15122 0.0
C592 C 0.57284 0.7523 0.12453 0.0
C593 C 0.61323 0.72555 0.16518 0.0
O594 O 0.60729 0.72444 0.17845 0.0
O595 O 0.59595 0.76672 0.1588 0.0
O596 O 0.57722 0.78176 0.15337 0.0
O597 O 0.56826 0.7259 0.15913 0.0
O598 O 0.5629 0.74974 0.16207 0.0
C599 C 0.5908 0.77962 0.15602 0.0
C600 C 0.55845 0.73627 0.16013 0.0
O601 O 0.60658 0.73276 0.15507 0.0
Mg602 Mg 0.23647 0.57697 0.08273 0.0
O603 O 0.22957 0.57734 0.05822 0.0
O604 O 0.21053 0.56203 0.0555 0.0
Mg605 Mg 0.20525 0.55197 0.07821 0.0
C606 C 0.21985 0.57115 0.05012 0.0
C607 C 0.26067 0.59801 0.06969 0.0
O608 O 0.2636 0.5861 0.06172 0.0
O609 O 0.21694 0.59113 0.0893 0.0
O610 O 0.19842 0.57501 0.08716 0.0
O611 O 0.25117 0.55762 0.07832 0.0
O612 O 0.22805 0.55565 0.08531 0.0
C613 C 0.20339 0.5879 0.09046 0.0
C614 C 0.24002 0.54923 0.08131 0.0
O615 O 0.25023 0.59763 0.07901 0.0
Mg616 Mg 0.41746 0.25112 0.14992 0.0
O617 O 0.41757 0.2529 0.12427 0.0
O618 O 0.43451 0.23713 0.11553 0.0
Mg619 Mg 0.44282 0.22333 0.1349 0.0
C620 C 0.42488 0.24723 0.11353 0.0
C621 C 0.39864 0.27984 0.14966 0.0
O622 O 0.41182 0.28545 0.14806 0.0
O623 O 0.40338 0.23035 0.14791 0.0
O624 O 0.41933 0.21445 0.13768 0.0
O625 O 0.43622 0.2669 0.15079 0.0
O626 O 0.43867 0.24248 0.14943 0.0
C627 C 0.40649 0.21768 0.14232 0.0
C628 C 0.44462 0.25546 0.14891 0.0
O629 O 0.39718 0.26582 0.1508 0.0
Mg630 Mg 0.252 0.36878 0.88307 0.0
O631 O 0.25596 0.39398 0.88375 0.0
O632 O 0.27185 0.39906 0.90192 0.0
Mg633 Mg 0.27812 0.37701 0.91276 0.0
C634 C 0.26354 0.40322 0.8913 0.0
C635 C 0.23115 0.36226 0.85671 0.0
O636 O 0.22787 0.35104 0.86548 0.0
O637 O 0.27411 0.36528 0.87201 0.0
O638 O 0.28928 0.36995 0.89094 0.0
O639 O 0.23404 0.3712 0.89973 0.0
O640 O 0.25724 0.36716 0.90546 0.0
C641 C 0.28699 0.36629 0.8774 0.0
C642 C 0.24406 0.36978 0.90983 0.0
O643 O 0.24095 0.37142 0.86075 0.0
Mg644 Mg 0.59105 0.25825 0.87176 0.0
O645 O 0.59512 0.25051 0.89579 0.0
O646 O 0.57983 0.23181 0.90088 0.0
Mg647 Mg 0.5666 0.22694 0.87995 0.0
C648 C 0.58995 0.2408 0.90474 0.0
C649 C 0.62017 0.27368 0.86157 0.0
O650 O 0.61646 0.26725 0.84899 0.0
O651 O 0.60333 0.23807 0.86259 0.0
O652 O 0.58772 0.21969 0.8682 0.0
O653 O 0.5733 0.27325 0.88011 0.0
O654 O 0.56974 0.25009 0.87267 0.0
C655 C 0.59975 0.22433 0.86265 0.0
C656 C 0.56453 0.26203 0.87856 0.0
O657 O 0.612 0.27202 0.8729 0.0
Mg658 Mg 0.39362 0.74509 0.8791 0.0
O659 O 0.39243 0.75155 0.90389 0.0
O660 O 0.40782 0.77059 0.90729 0.0
Mg661 Mg 0.41808 0.77676 0.88505 0.0
C662 C 0.39862 0.76115 0.9123 0.0
C663 C 0.36504 0.72961 0.86995 0.0
O664 O 0.36872 0.73676 0.85775 0.0
O665 O 0.37978 0.76517 0.87286 0.0
O666 O 0.39541 0.78394 0.8764 0.0
O667 O 0.41217 0.73001 0.88446 0.0
O668 O 0.41483 0.75358 0.87792 0.0
C669 C 0.38282 0.77902 0.87263 0.0
C670 C 0.42064 0.74145 0.88279 0.0
O671 O 0.37316 0.73079 0.88136 0.0
C672 C 0.12304 0.34398 0.31041 0.0
C673 C 0.11436 0.35669 0.31264 0.0
C674 C 0.12869 0.33619 0.32263 0.0
C675 C 0.13406 0.33765 0.36368 0.0
H676 H 0.12089 0.29667 0.36245 0.0
C677 C 0.11885 0.30488 0.4164 0.0
C678 C 0.12115 0.28943 0.41676 0.0
C679 C 0.12186 0.31302 0.40349 0.0
C680 C 0.12497 0.30797 0.36295 0.0
H681 H 0.10597 0.37207 0.32918 0.0
H682 H 0.11588 0.35865 0.35038 0.0
H683 H 0.1207 0.31146 0.33983 0.0
H684 H 0.129 0.27048 0.40407 0.0
H685 H 0.13446 0.28469 0.38168 0.0
H686 H 0.13788 0.33428 0.38694 0.0
C687 C 0.1183 0.35458 0.3393 0.0
C688 C 0.12489 0.31645 0.34994 0.0
C689 C 0.11253 0.36222 0.32715 0.0
C690 C 0.12694 0.28236 0.4041 0.0
C691 C 0.13005 0.2905 0.39124 0.0
C692 C 0.13422 0.32914 0.3767 0.0
C693 C 0.12592 0.34115 0.33722 0.0
C694 C 0.12899 0.33151 0.35026 0.0
C695 C 0.12734 0.30589 0.3907 0.0
C696 C 0.12923 0.31433 0.37658 0.0
H697 H 0.12461 0.33947 0.29935 0.0
H698 H 0.13464 0.32594 0.32072 0.0
H699 H 0.13744 0.3492 0.36422 0.0
H700 H 0.1144 0.31067 0.42596 0.0
H701 H 0.11941 0.32481 0.40341 0.0
C702 C 0.70426 0.10397 0.36154 0.0
C703 C 0.71837 0.10547 0.35562 0.0
C704 C 0.69247 0.11139 0.35504 0.0
C705 C 0.68218 0.13865 0.32514 0.0
H706 H 0.64762 0.11368 0.32315 0.0
C707 C 0.63754 0.14137 0.27931 0.0
C708 C 0.62291 0.14093 0.28414 0.0
C709 C 0.64897 0.1397 0.2895 0.0
C710 C 0.65712 0.12087 0.32377 0.0
H711 H 0.73152 0.11637 0.33883 0.0
H712 H 0.71086 0.12871 0.32686 0.0
H713 H 0.66803 0.10618 0.33864 0.0
H714 H 0.60878 0.13877 0.30344 0.0
H715 H 0.6288 0.13545 0.32115 0.0
H716 H 0.67134 0.15281 0.30935 0.0
C717 C 0.70883 0.12225 0.33681 0.0
C718 C 0.66883 0.11665 0.33275 0.0
C719 C 0.7207 0.11514 0.34361 0.0
C720 C 0.61994 0.13912 0.29938 0.0
C721 C 0.63137 0.13722 0.30951 0.0
C722 C 0.67052 0.14273 0.3159 0.0
C723 C 0.69448 0.12005 0.34214 0.0
C724 C 0.68159 0.12541 0.33351 0.0
C725 C 0.64596 0.13734 0.30463 0.0
C726 C 0.65794 0.1338 0.31509 0.0
H727 H 0.70227 0.09669 0.37094 0.0
H728 H 0.6817 0.10984 0.35982 0.0
H729 H 0.6917 0.14581 0.32558 0.0
H730 H 0.64015 0.14284 0.26765 0.0
H731 H 0.66015 0.1397 0.28546 0.0
C732 C 0.8696 0.6915 0.38409 0.0
C733 C 0.87545 0.68702 0.39785 0.0
C734 C 0.87144 0.68267 0.37142 0.0
C735 C 0.88115 0.64451 0.35921 0.0
H736 H 0.8936 0.66418 0.32295 0.0
C737 C 0.9137 0.61527 0.31324 0.0
C738 C 0.91151 0.61933 0.2983 0.0
C739 C 0.90612 0.62247 0.32462 0.0
C740 C 0.88983 0.65852 0.33287 0.0
H741 H 0.88765 0.66965 0.40914 0.0
H742 H 0.89103 0.65436 0.38702 0.0
H743 H 0.88666 0.67905 0.34449 0.0
H744 H 0.89903 0.63362 0.28353 0.0
H745 H 0.88575 0.64628 0.30353 0.0
H746 H 0.88479 0.62396 0.34771 0.0
C747 C 0.88483 0.6646 0.38605 0.0
C748 C 0.88588 0.66704 0.34524 0.0
C749 C 0.883 0.67342 0.39871 0.0
C750 C 0.90099 0.63026 0.29493 0.0
C751 C 0.89345 0.63757 0.30638 0.0
C752 C 0.88511 0.63599 0.34684 0.0
C753 C 0.87914 0.66916 0.37224 0.0
C754 C 0.88182 0.66013 0.35866 0.0
C755 C 0.89619 0.63396 0.32136 0.0
C756 C 0.88983 0.6429 0.33366 0.0
H757 H 0.86365 0.70189 0.38305 0.0
H758 H 0.8668 0.68643 0.36099 0.0
H759 H 0.87778 0.63885 0.36929 0.0
H760 H 0.92164 0.60683 0.31622 0.0
H761 H 0.90859 0.61952 0.33603 0.0
C762 C 0.34867 0.87284 0.27626 0.0
C763 C 0.35515 0.85887 0.27389 0.0
C764 C 0.33795 0.87465 0.28717 0.0
C765 C 0.3116 0.85497 0.31125 0.0
H766 H 0.31623 0.8903 0.33556 0.0
C767 C 0.28606 0.88853 0.36542 0.0
C768 C 0.2712 0.88854 0.36151 0.0
C769 C 0.29633 0.88145 0.3564 0.0
C770 C 0.31488 0.88023 0.32909 0.0
H771 H 0.35504 0.83568 0.28066 0.0
H772 H 0.33637 0.83891 0.29987 0.0
H773 H 0.33371 0.88519 0.31596 0.0
H774 H 0.25518 0.88009 0.34588 0.0
H775 H 0.27321 0.86806 0.32977 0.0
H776 H 0.29268 0.85006 0.32454 0.0
C777 C 0.33955 0.84843 0.29322 0.0
C778 C 0.32478 0.87744 0.31766 0.0
C779 C 0.35029 0.84661 0.28227 0.0
C780 C 0.2666 0.88022 0.34914 0.0
C781 C 0.27693 0.87332 0.33993 0.0
C782 C 0.30161 0.85777 0.32275 0.0
C783 C 0.33351 0.86254 0.29598 0.0
C784 C 0.32316 0.86493 0.30847 0.0
C785 C 0.29197 0.87451 0.3431 0.0
C786 C 0.3031 0.87051 0.33173 0.0
H787 H 0.35205 0.88248 0.26989 0.0
H788 H 0.33327 0.8856 0.28883 0.0
H789 H 0.31008 0.84523 0.30432 0.0
H790 H 0.28984 0.8947 0.37504 0.0
H791 H 0.30779 0.88217 0.35939 0.0
C792 C 0.09562 0.67558 0.71161 0.0
C793 C 0.08547 0.66417 0.7089 0.0
C794 C 0.10645 0.67891 0.7011 0.0
C795 C 0.11311 0.6742 0.66071 0.0
H796 H 0.14932 0.69476 0.66979 0.0
C797 C 0.13972 0.70304 0.61392 0.0
C798 C 0.13964 0.71834 0.61706 0.0
C799 C 0.14049 0.69272 0.62551 0.0
C800 C 0.13935 0.68885 0.66708 0.0
H801 H 0.07939 0.64649 0.69375 0.0
H802 H 0.09865 0.6517 0.67582 0.0
H803 H 0.13511 0.68342 0.68991 0.0
H804 H 0.14304 0.73485 0.63423 0.0
H805 H 0.144 0.71696 0.65447 0.0
H806 H 0.11692 0.67993 0.6381 0.0
C807 C 0.0979 0.65863 0.68564 0.0
C808 C 0.13111 0.68247 0.67862 0.0
C809 C 0.08687 0.65559 0.69594 0.0
C810 C 0.14308 0.7231 0.63152 0.0
C811 C 0.14354 0.71278 0.64318 0.0
C812 C 0.12137 0.68037 0.64926 0.0
C813 C 0.10755 0.67066 0.6878 0.0
C814 C 0.11762 0.67547 0.67561 0.0
C815 C 0.14082 0.69762 0.64037 0.0
C816 C 0.13436 0.68818 0.65229 0.0
H817 H 0.0948 0.68233 0.72157 0.0
H818 H 0.11351 0.68836 0.70314 0.0
H819 H 0.10269 0.66925 0.65784 0.0
H820 H 0.13718 0.69911 0.60281 0.0
H821 H 0.13887 0.68105 0.62295 0.0
C822 C 0.29474 0.14038 0.65272 0.0
C823 C 0.29542 0.13139 0.63993 0.0
C824 C 0.30229 0.13631 0.66564 0.0
C825 C 0.32248 0.10511 0.68383 0.0
H826 H 0.34529 0.13707 0.70119 0.0
C827 C 0.37493 0.09529 0.71828 0.0
C828 C 0.37786 0.10482 0.73031 0.0
C829 C 0.36278 0.09774 0.70913 0.0
C830 C 0.33882 0.12804 0.69668 0.0
H831 H 0.30386 0.11065 0.63098 0.0
H832 H 0.31714 0.1037 0.65334 0.0
H833 H 0.32738 0.1427 0.68201 0.0
H834 H 0.36995 0.12403 0.74256 0.0
H835 H 0.34874 0.12825 0.72664 0.0
H836 H 0.33434 0.0904 0.69822 0.0
C837 C 0.3107 0.11382 0.6535 0.0
C838 C 0.3285 0.13128 0.68568 0.0
C839 C 0.30314 0.11787 0.64061 0.0
C840 C 0.36808 0.11654 0.73332 0.0
C841 C 0.35595 0.119 0.72416 0.0
C842 C 0.33284 0.10187 0.69482 0.0
C843 C 0.31069 0.12318 0.66604 0.0
C844 C 0.32038 0.11983 0.67893 0.0
C845 C 0.3533 0.10978 0.71181 0.0
C846 C 0.3413 0.11327 0.70119 0.0
H847 H 0.2888 0.15081 0.65261 0.0
H848 H 0.30184 0.14364 0.6752 0.0
H849 H 0.31625 0.09606 0.67903 0.0
H850 H 0.38222 0.08614 0.71566 0.0
H851 H 0.36115 0.09052 0.69962 0.0
C852 C 0.89126 0.29445 0.62569 0.0
C853 C 0.88497 0.28022 0.62499 0.0
C854 C 0.88772 0.30411 0.63729 0.0
C855 C 0.87983 0.29896 0.67618 0.0
H856 H 0.88791 0.3413 0.67687 0.0
C857 C 0.90581 0.32682 0.72746 0.0
C858 C 0.91873 0.33441 0.72361 0.0
C859 C 0.89565 0.32285 0.71648 0.0
C860 C 0.88546 0.3295 0.6769 0.0
H861 H 0.86853 0.26573 0.63462 0.0
H862 H 0.86231 0.28266 0.65495 0.0
H863 H 0.87882 0.32978 0.65406 0.0
H864 H 0.93072 0.34447 0.70533 0.0
H865 H 0.91318 0.3375 0.68632 0.0
H866 H 0.8874 0.29848 0.69867 0.0
C867 C 0.87017 0.28625 0.64666 0.0
C868 C 0.88023 0.32292 0.66386 0.0
C869 C 0.87366 0.27659 0.63496 0.0
C870 C 0.92097 0.33848 0.70868 0.0
C871 C 0.91079 0.33467 0.69779 0.0
C872 C 0.885 0.30556 0.68922 0.0
C873 C 0.87785 0.29969 0.64847 0.0
C874 C 0.87824 0.30742 0.66309 0.0
C875 C 0.89814 0.32661 0.7015 0.0
C876 C 0.8887 0.32072 0.68943 0.0
H877 H 0.89988 0.29763 0.61803 0.0
H878 H 0.89389 0.31435 0.63827 0.0
H879 H 0.8785 0.28699 0.67601 0.0
H880 H 0.90371 0.3236 0.73887 0.0
H881 H 0.88599 0.31663 0.71965 0.0
C882 C 0.71646 0.86873 0.649 0.0
C883 C 0.71443 0.87901 0.63738 0.0
C884 C 0.70764 0.86927 0.6617 0.0
C885 C 0.68182 0.89321 0.68267 0.0
H886 H 0.6651 0.8556 0.69528 0.0
C887 C 0.62911 0.8893 0.71739 0.0
C888 C 0.62782 0.87796 0.72807 0.0
C889 C 0.64133 0.89002 0.70811 0.0
C890 C 0.66987 0.86617 0.69211 0.0
H891 H 0.70193 0.89826 0.63024 0.0
H892 H 0.68647 0.89912 0.65233 0.0
H893 H 0.68361 0.85592 0.6758 0.0
H894 H 0.63861 0.85875 0.73775 0.0
H895 H 0.66007 0.86006 0.72156 0.0
H896 H 0.66782 0.90349 0.69879 0.0
C897 C 0.69495 0.89071 0.65168 0.0
C898 C 0.68048 0.86636 0.68092 0.0
C899 C 0.70375 0.89016 0.63897 0.0
C900 C 0.63924 0.86758 0.72957 0.0
C901 C 0.6515 0.86829 0.72026 0.0
C902 C 0.67122 0.89303 0.69388 0.0
C903 C 0.69664 0.88012 0.66307 0.0
C904 C 0.68639 0.8799 0.6759 0.0
C905 C 0.65259 0.87941 0.7093 0.0
C906 C 0.66493 0.87953 0.69854 0.0
H907 H 0.72466 0.86006 0.64818 0.0
H908 H 0.70934 0.86108 0.67038 0.0
H909 H 0.68635 0.9038 0.6792 0.0
H910 H 0.62052 0.8975 0.71595 0.0
H911 H 0.64172 0.89861 0.69967 0.0
C912 C 0.35488 0.07068 0.2794 0.0
C913 C 0.3552 0.07975 0.26667 0.0
C914 C 0.34338 0.07183 0.2896 0.0
C915 C 0.31681 0.09924 0.3029 0.0
H916 H 0.30094 0.06584 0.32493 0.0
C917 C 0.2766 0.10832 0.35136 0.0
C918 C 0.27992 0.1003 0.36435 0.0
C919 C 0.28327 0.10461 0.33784 0.0
C920 C 0.30529 0.07528 0.31889 0.0
H921 H 0.34327 0.09654 0.25422 0.0
H922 H 0.3232 0.09848 0.27197 0.0
H923 H 0.31739 0.0613 0.30398 0.0
H924 H 0.29232 0.08169 0.37321 0.0
H925 H 0.30409 0.07543 0.34981 0.0
H926 H 0.3052 0.11325 0.31806 0.0
C927 C 0.33196 0.09065 0.27419 0.0
C928 C 0.3147 0.07267 0.3069 0.0
C929 C 0.34344 0.08949 0.264 0.0
C930 C 0.28956 0.08814 0.36343 0.0
C931 C 0.29623 0.08446 0.34995 0.0
C932 C 0.30745 0.10184 0.3149 0.0
C933 C 0.33196 0.08208 0.28726 0.0
C934 C 0.32077 0.08464 0.29895 0.0
C935 C 0.29338 0.09282 0.33706 0.0
C936 C 0.30181 0.08991 0.32322 0.0
H937 H 0.36375 0.06303 0.28177 0.0
H938 H 0.34377 0.06516 0.29963 0.0
H939 H 0.32146 0.10871 0.29714 0.0
H940 H 0.26913 0.11768 0.35168 0.0
H941 H 0.28069 0.11114 0.32805 0.0
C942 C 0.87267 0.29829 0.36186 0.0
C943 C 0.88181 0.30191 0.37387 0.0
C944 C 0.86386 0.30919 0.35531 0.0
C945 C 0.86526 0.34978 0.35082 0.0
H946 H 0.83367 0.3419 0.32314 0.0
C947 C 0.8607 0.38789 0.30288 0.0
C948 C 0.86238 0.37969 0.28971 0.0
C949 C 0.85466 0.38121 0.31548 0.0
C950 C 0.84236 0.34436 0.33095 0.0
H951 H 0.88762 0.31912 0.38965 0.0
H952 H 0.87161 0.33793 0.37884 0.0
H953 H 0.83924 0.32386 0.34271 0.0
H954 H 0.85745 0.35892 0.27865 0.0
H955 H 0.84753 0.34697 0.30075 0.0
H956 H 0.869 0.36976 0.33881 0.0
C957 C 0.87176 0.32694 0.37392 0.0
C958 C 0.84562 0.33399 0.34212 0.0
C959 C 0.88089 0.31616 0.38018 0.0
C960 C 0.85618 0.36546 0.2887 0.0
C961 C 0.85047 0.35863 0.30143 0.0
C962 C 0.86194 0.36013 0.33982 0.0
C963 C 0.86378 0.32386 0.36086 0.0
C964 C 0.85763 0.33623 0.35171 0.0
C965 C 0.85077 0.36606 0.31523 0.0
C966 C 0.85095 0.35724 0.32925 0.0
H967 H 0.87316 0.28734 0.35681 0.0
H968 H 0.858 0.30632 0.34525 0.0
H969 H 0.8747 0.35196 0.35775 0.0
H970 H 0.86535 0.39894 0.30384 0.0
H971 H 0.85459 0.3874 0.32583 0.0
C972 C 0.72022 0.89137 0.34215 0.0
C973 C 0.72525 0.8766 0.34304 0.0
C974 C 0.71103 0.8958 0.33059 0.0
C975 C 0.69709 0.88522 0.29343 0.0
H976 H 0.66285 0.90762 0.30575 0.0
C977 C 0.64486 0.88972 0.25782 0.0
C978 C 0.63698 0.90316 0.25799 0.0
C979 C 0.657 0.88778 0.26703 0.0
C980 C 0.67246 0.90161 0.30204 0.0
H981 H 0.72508 0.85507 0.33212 0.0
H982 H 0.70887 0.86279 0.31196 0.0
H983 H 0.68179 0.90183 0.32383 0.0
H984 H 0.63596 0.9253 0.26756 0.0
H985 H 0.65728 0.92195 0.28358 0.0
H986 H 0.68757 0.8848 0.27166 0.0
C987 C 0.71214 0.87096 0.32018 0.0
C988 C 0.68332 0.89827 0.31242 0.0
C989 C 0.72136 0.86651 0.33177 0.0
C990 C 0.64174 0.91478 0.26726 0.0
C991 C 0.65392 0.91283 0.27647 0.0
C992 C 0.68621 0.88859 0.28302 0.0
C993 C 0.70665 0.88558 0.31964 0.0
C994 C 0.69567 0.8899 0.30828 0.0
C995 C 0.66156 0.89924 0.2766 0.0
C996 C 0.6737 0.89666 0.28726 0.0
H997 H 0.72313 0.89947 0.35057 0.0
H998 H 0.70717 0.90721 0.33033 0.0
H999 H 0.70657 0.87891 0.28987 0.0
H1000 H 0.64149 0.88055 0.25078 0.0
H1001 H 0.66252 0.8771 0.26699 0.0
C1002 C 0.12369 0.6145 0.30184 0.0
C1003 C 0.13055 0.61561 0.28789 0.0
C1004 C 0.12217 0.62699 0.3109 0.0
C1005 C 0.11975 0.66749 0.3101 0.0
H1006 H 0.12537 0.66325 0.35267 0.0
C1007 C 0.10331 0.71396 0.35143 0.0
C1008 C 0.0941 0.70871 0.36281 0.0
C1009 C 0.11132 0.70393 0.34268 0.0
C1010 C 0.12381 0.66463 0.34081 0.0
H1011 H 0.14107 0.63077 0.27244 0.0
H1012 H 0.13823 0.65275 0.28833 0.0
H1013 H 0.13238 0.64298 0.33608 0.0
H1014 H 0.08678 0.68898 0.37457 0.0
H1015 H 0.10069 0.67163 0.35946 0.0
H1016 H 0.11061 0.68892 0.31491 0.0
C1017 C 0.1341 0.64214 0.2922 0.0
C1018 C 0.12779 0.65303 0.33131 0.0
C1019 C 0.13573 0.62956 0.28314 0.0
C1020 C 0.0937 0.69338 0.36582 0.0
C1021 C 0.10178 0.68342 0.35722 0.0
C1022 C 0.11573 0.67912 0.31962 0.0
C1023 C 0.12739 0.64093 0.30623 0.0
C1024 C 0.12534 0.65413 0.31592 0.0
C1025 C 0.11041 0.68854 0.34534 0.0
C1026 C 0.11726 0.67759 0.33511 0.0
H1027 H 0.11955 0.60394 0.30584 0.0
H1028 H 0.1167 0.62577 0.32153 0.0
H1029 H 0.11769 0.66863 0.29828 0.0
H1030 H 0.10383 0.72573 0.34884 0.0
H1031 H 0.11796 0.70818 0.33364 0.0
C1032 C 0.34094 0.90217 0.71057 0.0
C1033 C 0.35505 0.90834 0.70968 0.0
C1034 C 0.33069 0.90478 0.69929 0.0
C1035 C 0.32288 0.93038 0.66802 0.0
H1036 H 0.29837 0.89827 0.65345 0.0
C1037 C 0.2908 0.93731 0.61441 0.0
C1038 C 0.27571 0.93446 0.6154 0.0
C1039 C 0.30031 0.93225 0.62541 0.0
C1040 C 0.3051 0.90733 0.65749 0.0
H1041 H 0.36945 0.92214 0.69632 0.0
H1042 H 0.35175 0.92648 0.67667 0.0
H1043 H 0.31505 0.8938 0.67434 0.0
H1044 H 0.25895 0.92292 0.62805 0.0
H1045 H 0.2757 0.91404 0.64736 0.0
H1046 H 0.31314 0.94385 0.65114 0.0
C1047 C 0.34846 0.91984 0.68615 0.0
C1048 C 0.31459 0.90481 0.66947 0.0
C1049 C 0.35865 0.91729 0.69741 0.0
C1050 C 0.27052 0.92534 0.62699 0.0
C1051 C 0.28009 0.92026 0.63805 0.0
C1052 C 0.31352 0.93284 0.65604 0.0
C1053 C 0.33437 0.91359 0.68692 0.0
C1054 C 0.32369 0.91629 0.67476 0.0
C1055 C 0.29496 0.92422 0.63766 0.0
C1056 C 0.30467 0.92132 0.65053 0.0
H1057 H 0.33784 0.89522 0.7199 0.0
H1058 H 0.31988 0.89995 0.70031 0.0
H1059 H 0.32946 0.93956 0.67204 0.0
H1060 H 0.29521 0.94408 0.6055 0.0
H1061 H 0.3118 0.93515 0.62466 0.0
C1062 C 0.09159 0.40404 0.69506 0.0
C1063 C 0.10526 0.40869 0.70048 0.0
C1064 C 0.08958 0.38944 0.69012 0.0
C1065 C 0.10461 0.35183 0.69521 0.0
H1066 H 0.07918 0.34222 0.66204 0.0
C1067 C 0.09303 0.29117 0.67625 0.0
C1068 C 0.07832 0.2879 0.67296 0.0
C1069 C 0.09745 0.30588 0.67873 0.0
C1070 C 0.08625 0.34474 0.67139 0.0
H1071 H 0.12772 0.40182 0.70437 0.0
H1072 H 0.12422 0.37638 0.69559 0.0
H1073 H 0.08507 0.36817 0.66729 0.0
H1074 H 0.05673 0.29759 0.6699 0.0
H1075 H 0.06443 0.32305 0.67434 0.0
H1076 H 0.1056 0.32839 0.69943 0.0
C1077 C 0.115 0.38397 0.69539 0.0
C1078 C 0.08962 0.35959 0.67438 0.0
C1079 C 0.11702 0.39858 0.70033 0.0
C1080 C 0.06816 0.29965 0.67236 0.0
C1081 C 0.07258 0.3143 0.67478 0.0
C1082 C 0.10125 0.33696 0.69219 0.0
C1083 C 0.10119 0.37917 0.69047 0.0
C1084 C 0.09865 0.36333 0.68647 0.0
C1085 C 0.08728 0.31761 0.6779 0.0
C1086 C 0.09183 0.33327 0.68041 0.0
H1087 H 0.08229 0.41153 0.69505 0.0
H1088 H 0.07875 0.38606 0.68655 0.0
H1089 H 0.11145 0.35434 0.70472 0.0
H1090 H 0.10116 0.28241 0.67677 0.0
H1091 H 0.10888 0.3081 0.68105 0.0
C1092 C 0.68181 0.09733 0.60238 0.0
C1093 C 0.69657 0.10165 0.60174 0.0
C1094 C 0.67193 0.10511 0.61131 0.0
C1095 C 0.67438 0.12336 0.64682 0.0
H1096 H 0.63212 0.12103 0.64395 0.0
C1097 C 0.64129 0.11171 0.69891 0.0
C1098 C 0.6329 0.09875 0.6969 0.0
C1099 C 0.64616 0.11985 0.68659 0.0
C1100 C 0.6439 0.12196 0.64493 0.0
H1101 H 0.71207 0.11872 0.60837 0.0
H1102 H 0.69478 0.13227 0.624 0.0
H1103 H 0.64684 0.12192 0.62128 0.0
H1104 H 0.62174 0.0851 0.68053 0.0
H1105 H 0.63036 0.099 0.65922 0.0
H1106 H 0.67163 0.12211 0.67034 0.0
C1107 C 0.69093 0.12271 0.61779 0.0
C1108 C 0.65232 0.12249 0.63195 0.0
C1109 C 0.70083 0.11494 0.60881 0.0
C1110 C 0.6284 0.09489 0.68247 0.0
C1111 C 0.63319 0.10302 0.67021 0.0
C1112 C 0.66598 0.12279 0.65977 0.0
C1113 C 0.67661 0.11736 0.61982 0.0
C1114 C 0.66769 0.12219 0.63277 0.0
C1115 C 0.64264 0.11523 0.67206 0.0
C1116 C 0.65071 0.12107 0.65894 0.0
H1117 H 0.6781 0.08729 0.59688 0.0
H1118 H 0.66101 0.10062 0.61261 0.0
H1119 H 0.68618 0.12309 0.64792 0.0
H1120 H 0.64481 0.11508 0.70992 0.0
H1121 H 0.65328 0.12931 0.68839 0.0
C1122 C 0.8959 0.68853 0.65699 0.0
C1123 C 0.90689 0.6893 0.64609 0.0
C1124 C 0.88966 0.67483 0.66076 0.0
C1125 C 0.89898 0.6349 0.65951 0.0
H1126 H 0.85942 0.62982 0.67429 0.0
C1127 C 0.88013 0.57875 0.68256 0.0
C1128 C 0.87407 0.57965 0.69691 0.0
C1129 C 0.88155 0.59153 0.67383 0.0
C1130 C 0.87048 0.63109 0.67014 0.0
H1131 H 0.9191 0.67661 0.62972 0.0
H1132 H 0.90789 0.65288 0.63589 0.0
H1133 H 0.86671 0.65365 0.66339 0.0
H1134 H 0.86383 0.59445 0.71294 0.0
H1135 H 0.8664 0.61672 0.69773 0.0
H1136 H 0.90286 0.61253 0.66647 0.0
C1137 C 0.90447 0.66269 0.64197 0.0
C1138 C 0.87468 0.64473 0.66396 0.0
C1139 C 0.91086 0.67631 0.63839 0.0
C1140 C 0.86865 0.5934 0.70197 0.0
C1141 C 0.87001 0.60615 0.69321 0.0
C1142 C 0.89476 0.62129 0.66556 0.0
C1143 C 0.89414 0.66168 0.65353 0.0
C1144 C 0.88907 0.64687 0.6588 0.0
C1145 C 0.87687 0.60543 0.67925 0.0
C1146 C 0.88056 0.61931 0.67117 0.0
H1147 H 0.89263 0.69839 0.66309 0.0
H1148 H 0.88183 0.67446 0.6698 0.0
H1149 H 0.91024 0.6362 0.65597 0.0
H1150 H 0.88431 0.56831 0.6783 0.0
H1151 H 0.88672 0.59063 0.66302 0.0
C1152 C 0.29741 0.35721 0.11003 0.0
C1153 C 0.28399 0.34981 0.11156 0.0
C1154 C 0.30969 0.35234 0.11783 0.0
C1155 C 0.32285 0.32503 0.14639 0.0
H1156 H 0.35719 0.32483 0.121 0.0
C1157 C 0.37154 0.28388 0.15141 0.0
C1158 C 0.38567 0.28965 0.14917 0.0
C1159 C 0.35924 0.293 0.14974 0.0
C1160 C 0.34778 0.325 0.12834 0.0
H1161 H 0.27255 0.3321 0.123 0.0
H1162 H 0.29417 0.32302 0.13612 0.0
H1163 H 0.33541 0.33791 0.113 0.0
H1164 H 0.39801 0.30966 0.14412 0.0
H1165 H 0.37654 0.32548 0.14104 0.0
H1166 H 0.33526 0.31127 0.16132 0.0
C1167 C 0.2952 0.33286 0.12925 0.0
C1168 C 0.33527 0.33259 0.1238 0.0
C1169 C 0.2828 0.33801 0.1217 0.0
C1170 C 0.38728 0.30484 0.14581 0.0
C1171 C 0.375 0.3139 0.14404 0.0
C1172 C 0.33538 0.31724 0.15085 0.0
C1173 C 0.30892 0.33965 0.12698 0.0
C1174 C 0.32257 0.33263 0.13269 0.0
C1175 C 0.36087 0.308 0.14569 0.0
C1176 C 0.34791 0.31708 0.14179 0.0
H1177 H 0.29851 0.3665 0.10241 0.0
H1178 H 0.31993 0.35817 0.11619 0.0
H1179 H 0.31335 0.32496 0.1536 0.0
H1180 H 0.36995 0.27224 0.15409 0.0
H1181 H 0.34846 0.28814 0.15096 0.0
C1182 C 0.34825 0.71164 0.88286 0.0
C1183 C 0.352 0.71983 0.87008 0.0
C1184 C 0.33633 0.70188 0.88266 0.0
C1185 C 0.30273 0.69232 0.86149 0.0
H1186 H 0.30844 0.65321 0.87878 0.0
C1187 C 0.26673 0.64165 0.84678 0.0
C1188 C 0.26341 0.63138 0.85809 0.0
C1189 C 0.27621 0.65354 0.84953 0.0
C1190 C 0.30656 0.66416 0.87411 0.0
H1191 H 0.34597 0.7244 0.84718 0.0
H1192 H 0.32537 0.70728 0.84679 0.0
H1193 H 0.32749 0.67198 0.88132 0.0
H1194 H 0.26701 0.6259 0.88132 0.0
H1195 H 0.28348 0.6467 0.88611 0.0
H1196 H 0.2819 0.68435 0.854 0.0
C1197 C 0.33149 0.70852 0.85702 0.0
C1198 C 0.31749 0.67493 0.87557 0.0
C1199 C 0.34339 0.71827 0.85722 0.0
C1200 C 0.2694 0.63356 0.87234 0.0
C1201 C 0.2789 0.64543 0.87507 0.0
C1202 C 0.2918 0.68154 0.86001 0.0
C1203 C 0.3279 0.7001 0.86969 0.0
C1204 C 0.31579 0.68907 0.8691 0.0
C1205 C 0.2826 0.65542 0.86363 0.0
C1206 C 0.29367 0.66727 0.86614 0.0
H1207 H 0.35462 0.71264 0.89297 0.0
H1208 H 0.33374 0.6957 0.89267 0.0
H1209 H 0.30097 0.70319 0.85659 0.0
H1210 H 0.2623 0.64031 0.83569 0.0
H1211 H 0.27894 0.66094 0.84043 0.0
C1212 C 0.31387 0.36482 0.87313 0.0
C1213 C 0.29964 0.36122 0.86849 0.0
C1214 C 0.32584 0.35688 0.86771 0.0
C1215 C 0.33119 0.31845 0.85869 0.0
H1216 H 0.37162 0.3303 0.86405 0.0
C1217 C 0.37012 0.27936 0.88831 0.0
C1218 C 0.37597 0.28645 0.90094 0.0
C1219 C 0.36463 0.28776 0.87645 0.0
C1220 C 0.36042 0.32675 0.8623 0.0
H1221 H 0.28695 0.34802 0.85294 0.0
H1222 H 0.30793 0.33405 0.84349 0.0
H1223 H 0.35371 0.34848 0.85529 0.0
H1224 H 0.38184 0.30786 0.9104 0.0
H1225 H 0.37203 0.32242 0.89002 0.0
H1226 H 0.33752 0.29714 0.86688 0.0
C1227 C 0.3098 0.34286 0.8515 0.0
C1228 C 0.35018 0.33715 0.85725 0.0
C1229 C 0.29778 0.35088 0.8569 0.0
C1230 C 0.37723 0.30203 0.90095 0.0
C1231 C 0.37178 0.3104 0.88912 0.0
C1232 C 0.34141 0.30807 0.8637 0.0
C1233 C 0.32381 0.34511 0.85759 0.0
C1234 C 0.33525 0.33339 0.85654 0.0
C1235 C 0.36492 0.30339 0.87698 0.0
C1236 C 0.35589 0.31243 0.86663 0.0
H1237 H 0.31567 0.37295 0.88183 0.0
H1238 H 0.33643 0.35897 0.87269 0.0
H1239 H 0.31981 0.31509 0.85827 0.0
H1240 H 0.36918 0.26736 0.88784 0.0
H1241 H 0.35954 0.28204 0.8672 0.0
C1242 C 0.64225 0.28534 0.84979 0.0
C1243 C 0.63348 0.28307 0.86244 0.0
C1244 C 0.65456 0.29456 0.85049 0.0
C1245 C 0.67009 0.32564 0.87211 0.0
H1246 H 0.70562 0.31594 0.85055 0.0
C1247 C 0.72063 0.36408 0.87382 0.0
C1248 C 0.72716 0.36708 0.85997 0.0
C1249 C 0.71038 0.3526 0.87526 0.0
C1250 C 0.69575 0.31884 0.85657 0.0
H1251 H 0.63094 0.28849 0.88583 0.0
H1252 H 0.65246 0.30448 0.88706 0.0
H1253 H 0.68535 0.29826 0.85088 0.0
H1254 H 0.72848 0.35996 0.83693 0.0
H1255 H 0.71058 0.34008 0.83943 0.0
H1256 H 0.68036 0.34631 0.87761 0.0
C1257 C 0.64971 0.29928 0.87654 0.0
C1258 C 0.68412 0.30872 0.85674 0.0
C1259 C 0.63741 0.29006 0.87585 0.0
C1260 C 0.72365 0.35797 0.84776 0.0
C1261 C 0.71343 0.3465 0.84921 0.0
C1262 C 0.6817 0.33575 0.87194 0.0
C1263 C 0.65838 0.30173 0.86384 0.0
C1264 C 0.67109 0.31207 0.86437 0.0
C1265 C 0.70647 0.34385 0.86291 0.0
C1266 C 0.69461 0.33256 0.86403 0.0
H1267 H 0.63953 0.28014 0.83928 0.0
H1268 H 0.66087 0.29635 0.84044 0.0
H1269 H 0.66013 0.32868 0.87792 0.0
H1270 H 0.72313 0.37084 0.88346 0.0
H1271 H 0.70537 0.3507 0.88602 0.0
C1272 C 0.67813 0.62449 0.89058 0.0
C1273 C 0.69136 0.62906 0.88409 0.0
C1274 C 0.66487 0.63038 0.8857 0.0
C1275 C 0.65372 0.66644 0.87287 0.0
H1276 H 0.61554 0.65022 0.88239 0.0
C1277 C 0.61134 0.70424 0.89876 0.0
C1278 C 0.60657 0.69846 0.91248 0.0
C1279 C 0.61739 0.69486 0.88798 0.0
C1280 C 0.62608 0.65494 0.87951 0.0
H1281 H 0.70096 0.64184 0.86608 0.0
H1282 H 0.67771 0.65223 0.85755 0.0
H1283 H 0.63534 0.6335 0.87499 0.0
H1284 H 0.60313 0.67814 0.92504 0.0
H1285 H 0.61403 0.66191 0.90655 0.0
H1286 H 0.64497 0.68766 0.87852 0.0
C1287 C 0.67763 0.64424 0.86658 0.0
C1288 C 0.6374 0.64537 0.87523 0.0
C1289 C 0.69094 0.63827 0.87145 0.0
C1290 C 0.60684 0.68299 0.91467 0.0
C1291 C 0.61296 0.67363 0.90394 0.0
C1292 C 0.64243 0.67597 0.87713 0.0
C1293 C 0.66457 0.64104 0.87424 0.0
C1294 C 0.6516 0.65094 0.87291 0.0
C1295 C 0.61887 0.67953 0.89074 0.0
C1296 C 0.62878 0.67022 0.88149 0.0
H1297 H 0.67807 0.61716 0.90016 0.0
H1298 H 0.65508 0.62766 0.89192 0.0
H1299 H 0.6645 0.67117 0.87121 0.0
H1300 H 0.61102 0.71609 0.89658 0.0
H1301 H 0.62161 0.69972 0.87782 0.0
C1302 C 0.6342 0.70885 0.17222 0.0
C1303 C 0.62736 0.71825 0.16181 0.0
C1304 C 0.64723 0.70147 0.16859 0.0
C1305 C 0.66762 0.68865 0.13572 0.0
H1306 H 0.70063 0.68472 0.16257 0.0
C1307 C 0.73223 0.67459 0.1298 0.0
C1308 C 0.73094 0.66359 0.1188 0.0
C1309 C 0.71981 0.67932 0.13765 0.0
C1310 C 0.6915 0.68574 0.15496 0.0
H1311 H 0.62913 0.72772 0.13966 0.0
H1312 H 0.6518 0.71507 0.13345 0.0
H1313 H 0.67852 0.69784 0.17081 0.0
H1314 H 0.71629 0.6478 0.10839 0.0
H1315 H 0.69484 0.65546 0.12253 0.0
H1316 H 0.68054 0.67722 0.11967 0.0
C1317 C 0.64699 0.71312 0.14429 0.0
C1318 C 0.67881 0.69314 0.15972 0.0
C1319 C 0.63401 0.72043 0.14788 0.0
C1320 C 0.71746 0.65646 0.1167 0.0
C1321 C 0.70518 0.66093 0.12472 0.0
C1322 C 0.68022 0.68134 0.13099 0.0
C1323 C 0.65362 0.70336 0.15449 0.0
C1324 C 0.66684 0.69485 0.15004 0.0
C1325 C 0.70603 0.67294 0.13471 0.0
C1326 C 0.69236 0.67985 0.14048 0.0
H1327 H 0.62936 0.70698 0.18306 0.0
H1328 H 0.65206 0.69398 0.17665 0.0
H1329 H 0.65851 0.68956 0.12807 0.0
H1330 H 0.74255 0.68026 0.13154 0.0
H1331 H 0.72084 0.68862 0.14525 0.0
C1332 C 0.34056 0.70554 0.08759 0.0
C1333 C 0.35451 0.7036 0.0813 0.0
C1334 C 0.32935 0.69543 0.08459 0.0
C1335 C 0.3179 0.66501 0.05932 0.0
H1336 H 0.29607 0.65169 0.09385 0.0
C1337 C 0.28301 0.61122 0.06031 0.0
C1338 C 0.26999 0.61141 0.06864 0.0
C1339 C 0.29239 0.62351 0.0604 0.0
C1340 C 0.30187 0.65545 0.08403 0.0
H1341 H 0.36749 0.68985 0.06645 0.0
H1342 H 0.34796 0.67207 0.06137 0.0
H1343 H 0.31406 0.67139 0.09655 0.0
H1344 H 0.25622 0.62492 0.08298 0.0
H1345 H 0.27245 0.64638 0.08296 0.0
H1346 H 0.3058 0.64882 0.04687 0.0
C1347 C 0.34565 0.6815 0.06852 0.0
C1348 C 0.3122 0.66675 0.08558 0.0
C1349 C 0.35687 0.69163 0.07151 0.0
C1350 C 0.26626 0.62435 0.07657 0.0
C1351 C 0.27558 0.63663 0.07662 0.0
C1352 C 0.30753 0.65368 0.05776 0.0
C1353 C 0.33185 0.68314 0.07525 0.0
C1354 C 0.32039 0.67162 0.07328 0.0
C1355 C 0.2889 0.63624 0.0688 0.0
C1356 C 0.29946 0.64872 0.07013 0.0
H1357 H 0.33833 0.71473 0.09507 0.0
H1358 H 0.31876 0.69714 0.08974 0.0
H1359 H 0.32394 0.66864 0.0496 0.0
H1360 H 0.28619 0.60142 0.05407 0.0
H1361 H 0.30262 0.62282 0.05435 0.0
C1362 C 0.7191 0.39062 0.08099 0.0
C1363 C 0.72645 0.39466 0.09413 0.0
C1364 C 0.7115 0.37714 0.08015 0.0
C1365 C 0.70867 0.34015 0.09798 0.0
H1366 H 0.66983 0.33969 0.08061 0.0
C1367 C 0.66748 0.29263 0.1079 0.0
C1368 C 0.65817 0.28847 0.09619 0.0
C1369 C 0.67693 0.30475 0.10635 0.0
C1370 C 0.68076 0.33955 0.08527 0.0
H1371 H 0.73159 0.38772 0.11666 0.0
H1372 H 0.71824 0.36433 0.11522 0.0
H1373 H 0.68406 0.36262 0.08037 0.0
H1374 H 0.6519 0.29337 0.07342 0.0
H1375 H 0.66851 0.31445 0.07067 0.0
H1376 H 0.70529 0.31713 0.10308 0.0
C1377 C 0.7185 0.37147 0.10551 0.0
C1378 C 0.68891 0.35271 0.08515 0.0
C1379 C 0.72607 0.38494 0.10637 0.0
C1380 C 0.65888 0.29635 0.08269 0.0
C1381 C 0.66833 0.30848 0.08114 0.0
C1382 C 0.70053 0.32699 0.09809 0.0
C1383 C 0.71113 0.36741 0.0924 0.0
C1384 C 0.70287 0.35321 0.09169 0.0
C1385 C 0.67728 0.31296 0.09304 0.0
C1386 C 0.68641 0.32659 0.09191 0.0
H1387 H 0.71923 0.39784 0.07135 0.0
H1388 H 0.70604 0.37426 0.06985 0.0
H1389 H 0.71951 0.34011 0.10287 0.0
H1390 H 0.66722 0.28679 0.11844 0.0
H1391 H 0.68357 0.308 0.11579 0.0
C1392 C 0.6136 0.8424 0.80506 0.0
C1393 C 0.60399 0.85447 0.80693 0.0
C1394 C 0.61849 0.83435 0.81743 0.0
C1395 C 0.61984 0.83387 0.85878 0.0
H1396 H 0.60945 0.7923 0.85413 0.0
C1397 C 0.60366 0.79684 0.90836 0.0
C1398 C 0.60719 0.78163 0.90798 0.0
C1399 C 0.60663 0.80595 0.89613 0.0
C1400 C 0.61273 0.80378 0.85562 0.0
H1401 H 0.59316 0.86851 0.82321 0.0
H1402 H 0.60173 0.85458 0.84469 0.0
H1403 H 0.61021 0.80838 0.83243 0.0
H1404 H 0.61705 0.76414 0.89465 0.0
H1405 H 0.62247 0.78007 0.87346 0.0
H1406 H 0.62199 0.82934 0.88206 0.0
C1407 C 0.60545 0.85124 0.83374 0.0
C1408 C 0.61319 0.81301 0.84314 0.0
C1409 C 0.60045 0.85916 0.82141 0.0
C1410 C 0.61403 0.77579 0.89523 0.0
C1411 C 0.61711 0.78492 0.88306 0.0
C1412 C 0.61948 0.82461 0.87128 0.0
C1413 C 0.614 0.83838 0.83185 0.0
C1414 C 0.61634 0.82824 0.84464 0.0
C1415 C 0.61331 0.80008 0.88329 0.0
C1416 C 0.61551 0.80955 0.86989 0.0
H1417 H 0.61653 0.83855 0.79403 0.0
H1418 H 0.62521 0.82457 0.81567 0.0
H1419 H 0.62244 0.84555 0.86024 0.0
H1420 H 0.59838 0.80167 0.91802 0.0
H1421 H 0.60332 0.81752 0.8966 0.0
C1422 C 0.19579 0.61323 0.83883 0.0
C1423 C 0.19414 0.60092 0.84833 0.0
C1424 C 0.18344 0.62032 0.83286 0.0
C1425 C 0.14511 0.61129 0.82404 0.0
H1426 H 0.14115 0.65344 0.81569 0.0
C1427 C 0.09163 0.6349 0.80104 0.0
C1428 C 0.09277 0.64453 0.78879 0.0
C1429 C 0.10399 0.63117 0.80936 0.0
C1430 C 0.14217 0.64163 0.8179 0.0
H1431 H 0.17839 0.58725 0.86012 0.0
H1432 H 0.157 0.59983 0.85015 0.0
H1433 H 0.16291 0.6443 0.82879 0.0
H1434 H 0.10771 0.65829 0.77601 0.0
H1435 H 0.12938 0.65164 0.79053 0.0
H1436 H 0.12454 0.60852 0.81315 0.0
C1437 C 0.16774 0.60369 0.84681 0.0
C1438 C 0.15462 0.63641 0.82538 0.0
C1439 C 0.18 0.59653 0.85259 0.0
C1440 C 0.10647 0.6508 0.78537 0.0
C1441 C 0.11887 0.64706 0.79372 0.0
C1442 C 0.13272 0.61649 0.81667 0.0
C1443 C 0.16928 0.61528 0.83643 0.0
C1444 C 0.15616 0.62117 0.82861 0.0
C1445 C 0.11779 0.63697 0.80562 0.0
C1446 C 0.13106 0.63171 0.81357 0.0
H1447 H 0.20658 0.61684 0.83536 0.0
H1448 H 0.18501 0.62921 0.82488 0.0
H1449 H 0.14612 0.59943 0.82595 0.0
H1450 H 0.08123 0.62998 0.80407 0.0
H1451 H 0.10276 0.62356 0.81862 0.0
C1452 C 0.40372 0.11731 0.82416 0.0
C1453 C 0.40197 0.12288 0.80967 0.0
C1454 C 0.39849 0.12532 0.83636 0.0
C1455 C 0.3769 0.15898 0.8476 0.0
H1456 H 0.40514 0.15977 0.87981 0.0
C1457 C 0.38195 0.20695 0.89028 0.0
C1458 C 0.38393 0.20299 0.90528 0.0
C1459 C 0.38201 0.19606 0.87917 0.0
C1460 C 0.39704 0.15952 0.87101 0.0
H1461 H 0.39262 0.14067 0.79647 0.0
H1462 H 0.38398 0.15497 0.81777 0.0
H1463 H 0.40842 0.14234 0.85946 0.0
H1464 H 0.38735 0.1845 0.92041 0.0
H1465 H 0.38771 0.16552 0.90096 0.0
H1466 H 0.366 0.1768 0.85901 0.0
C1467 C 0.38906 0.14427 0.81978 0.0
C1468 C 0.39885 0.14946 0.85934 0.0
C1469 C 0.39404 0.13609 0.80753 0.0
C1470 C 0.38584 0.18791 0.90896 0.0
C1471 C 0.38607 0.17705 0.89783 0.0
C1472 C 0.37521 0.1692 0.85922 0.0
C1473 C 0.39172 0.13925 0.83438 0.0
C1474 C 0.38888 0.14911 0.8474 0.0
C1475 C 0.38421 0.18103 0.88283 0.0
C1476 C 0.38535 0.16964 0.87096 0.0
H1477 H 0.40964 0.10704 0.82609 0.0
H1478 H 0.40032 0.12085 0.8474 0.0
H1479 H 0.3689 0.15891 0.83871 0.0
H1480 H 0.38038 0.21847 0.88709 0.0
H1481 H 0.38071 0.19945 0.86768 0.0
C1482 C 0.90242 0.36768 0.81254 0.0
C1483 C 0.90365 0.35694 0.80124 0.0
C1484 C 0.88917 0.36975 0.82002 0.0
C1485 C 0.84954 0.36456 0.8155 0.0
H1486 H 0.84893 0.37482 0.85741 0.0
C1487 C 0.79635 0.38281 0.84562 0.0
C1488 C 0.79795 0.39634 0.85331 0.0
C1489 C 0.80872 0.37499 0.84069 0.0
C1490 C 0.84892 0.37192 0.84571 0.0
H1491 H 0.89197 0.33976 0.78913 0.0
H1492 H 0.86884 0.34335 0.80227 0.0
H1493 H 0.87179 0.36678 0.84589 0.0
H1494 H 0.81373 0.41183 0.86258 0.0
H1495 H 0.83512 0.39823 0.85411 0.0
H1496 H 0.82673 0.37012 0.81527 0.0
C1497 C 0.8781 0.35026 0.80523 0.0
C1498 C 0.86201 0.36737 0.8391 0.0
C1499 C 0.89138 0.34816 0.79775 0.0
C1500 C 0.81211 0.4015 0.85658 0.0
C1501 C 0.8244 0.39363 0.85184 0.0
C1502 C 0.83641 0.36908 0.82214 0.0
C1503 C 0.87683 0.36114 0.8164 0.0
C1504 C 0.86257 0.36406 0.82382 0.0
C1505 C 0.82287 0.38045 0.8436 0.0
C1506 C 0.83607 0.37323 0.83721 0.0
H1507 H 0.91164 0.37465 0.81549 0.0
H1508 H 0.88851 0.37841 0.82839 0.0
H1509 H 0.8496 0.36219 0.80368 0.0
H1510 H 0.78558 0.37857 0.84293 0.0
H1511 H 0.80723 0.36481 0.83442 0.0
C1512 C 0.64134 0.19947 0.10722 0.0
C1513 C 0.64328 0.21496 0.10772 0.0
C1514 C 0.64752 0.1904 0.11813 0.0
C1515 C 0.65346 0.1956 0.15748 0.0
H1516 H 0.65423 0.1525 0.15599 0.0
C1517 C 0.63041 0.16128 0.20571 0.0
C1518 C 0.619 0.15214 0.20055 0.0
C1519 C 0.64075 0.16705 0.19575 0.0
C1520 C 0.65426 0.16454 0.15665 0.0
H1521 H 0.6552 0.23283 0.11848 0.0
H1522 H 0.66617 0.21694 0.13748 0.0
H1523 H 0.66154 0.16683 0.13412 0.0
H1524 H 0.61014 0.14096 0.18115 0.0
H1525 H 0.62804 0.15098 0.16388 0.0
H1526 H 0.64528 0.19333 0.17963 0.0
C1527 C 0.65954 0.21183 0.1289 0.0
C1528 C 0.65844 0.17276 0.14414 0.0
C1529 C 0.65334 0.22093 0.11793 0.0
C1530 C 0.61869 0.14812 0.18545 0.0
C1531 C 0.62909 0.15371 0.17557 0.0
C1532 C 0.64941 0.1874 0.17001 0.0
C1533 C 0.65576 0.19667 0.12978 0.0
C1534 C 0.65706 0.18836 0.14407 0.0
C1535 C 0.63999 0.16357 0.18051 0.0
C1536 C 0.64883 0.1718 0.16937 0.0
H1537 H 0.63385 0.19451 0.09931 0.0
H1538 H 0.64437 0.17879 0.11831 0.0
H1539 H 0.6522 0.20758 0.15792 0.0
H1540 H 0.631 0.16451 0.21731 0.0
H1541 H 0.64904 0.17461 0.19986 0.0
C1542 C 0.88529 0.61202 0.21813 0.0
C1543 C 0.8892 0.62344 0.22806 0.0
C1544 C 0.87344 0.61383 0.20844 0.0
C1545 C 0.84011 0.63654 0.20199 0.0
H1546 H 0.84558 0.62475 0.16085 0.0
C1547 C 0.8035 0.65794 0.15425 0.0
C1548 C 0.80012 0.64818 0.14252 0.0
C1549 C 0.81319 0.65364 0.16548 0.0
C1550 C 0.84376 0.62789 0.17234 0.0
H1551 H 0.88354 0.64558 0.2358 0.0
H1552 H 0.86301 0.64878 0.21883 0.0
H1553 H 0.86471 0.61958 0.17899 0.0
H1554 H 0.80387 0.62602 0.1337 0.0
H1555 H 0.82069 0.61847 0.15339 0.0
H1556 H 0.81925 0.64509 0.19525 0.0
C1557 C 0.86899 0.63837 0.21863 0.0
C1558 C 0.85474 0.62492 0.18275 0.0
C1559 C 0.88083 0.63657 0.22829 0.0
C1560 C 0.8063 0.63384 0.14253 0.0
C1561 C 0.81601 0.62954 0.15377 0.0
C1562 C 0.82912 0.63951 0.19157 0.0
C1563 C 0.86522 0.62708 0.20849 0.0
C1564 C 0.85312 0.62937 0.19766 0.0
C1565 C 0.81972 0.63947 0.16526 0.0
C1566 C 0.83089 0.63538 0.17659 0.0
H1567 H 0.89146 0.60173 0.21771 0.0
H1568 H 0.87071 0.60484 0.2009 0.0
H1569 H 0.83842 0.63989 0.21344 0.0
H1570 H 0.79893 0.66907 0.15459 0.0
H1571 H 0.81593 0.66162 0.17407 0.0
C1572 C 0.36394 0.7979 0.11032 0.0
C1573 C 0.36117 0.78261 0.1118 0.0
C1574 C 0.35599 0.80822 0.11862 0.0
C1575 C 0.34175 0.80793 0.15583 0.0
H1576 H 0.34193 0.85048 0.14881 0.0
C1577 C 0.35843 0.84698 0.2025 0.0
C1578 C 0.37072 0.85525 0.19798 0.0
C1579 C 0.34909 0.84064 0.1919 0.0
C1580 C 0.34158 0.83863 0.15098 0.0
H1581 H 0.34654 0.76626 0.12147 0.0
H1582 H 0.33262 0.78434 0.13606 0.0
H1583 H 0.3388 0.83342 0.1279 0.0
H1584 H 0.38202 0.86456 0.1789 0.0
H1585 H 0.36597 0.85346 0.16055 0.0
H1586 H 0.34574 0.81301 0.17865 0.0
C1587 C 0.3411 0.78833 0.12864 0.0
C1588 C 0.33977 0.82886 0.13901 0.0
C1589 C 0.34904 0.77797 0.12023 0.0
C1590 C 0.37278 0.85806 0.18275 0.0
C1591 C 0.36342 0.85185 0.17221 0.0
C1592 C 0.34352 0.81768 0.16778 0.0
C1593 C 0.34515 0.80344 0.12866 0.0
C1594 C 0.34097 0.8134 0.14118 0.0
C1595 C 0.3518 0.8426 0.17662 0.0
C1596 C 0.34454 0.83308 0.1653 0.0
H1597 H 0.37307 0.80183 0.10369 0.0
H1598 H 0.35947 0.81973 0.1183 0.0
H1599 H 0.34273 0.79611 0.15798 0.0
H1600 H 0.35646 0.84473 0.21418 0.0
H1601 H 0.34017 0.83364 0.19564 0.0
C1602 C 0.19747 0.38454 0.13256 0.0
C1603 C 0.20819 0.37345 0.13086 0.0
C1604 C 0.18958 0.38576 0.14584 0.0
C1605 C 0.17782 0.36339 0.17789 0.0
H1606 H 0.16737 0.40166 0.19481 0.0
C1607 C 0.14279 0.36789 0.23117 0.0
C1608 C 0.13136 0.37836 0.23061 0.0
C1609 C 0.15376 0.3679 0.2203 0.0
C1610 C 0.17014 0.39088 0.19018 0.0
H1611 H 0.21932 0.35519 0.14195 0.0
H1612 H 0.20559 0.35737 0.16509 0.0
H1613 H 0.18353 0.4006 0.1732 0.0
H1614 H 0.12277 0.39735 0.21848 0.0
H1615 H 0.14171 0.39723 0.19952 0.0
H1616 H 0.16418 0.35367 0.1946 0.0
C1617 C 0.20317 0.36501 0.15609 0.0
C1618 C 0.17938 0.39029 0.1778 0.0
C1619 C 0.21108 0.36381 0.14285 0.0
C1620 C 0.13139 0.3891 0.21924 0.0
C1621 C 0.14233 0.38911 0.20841 0.0
C1622 C 0.16855 0.36398 0.19024 0.0
C1623 C 0.19222 0.37589 0.15769 0.0
C1624 C 0.18318 0.37654 0.17141 0.0
C1625 C 0.15354 0.37839 0.20868 0.0
C1626 C 0.16444 0.37775 0.19641 0.0
H1627 H 0.195 0.39215 0.12356 0.0
H1628 H 0.18111 0.39416 0.14667 0.0
H1629 H 0.18038 0.35263 0.17311 0.0
H1630 H 0.14311 0.35951 0.23983 0.0
H1631 H 0.16236 0.35961 0.22093 0.0
C1632 C 0.78152 0.63525 0.8487 0.0
C1633 C 0.76827 0.62812 0.85221 0.0
C1634 C 0.79034 0.62988 0.83717 0.0
C1635 C 0.7983 0.59441 0.81944 0.0
H1636 H 0.8231 0.61776 0.79332 0.0
C1637 C 0.84296 0.58268 0.77032 0.0
C1638 C 0.85153 0.57188 0.7776 0.0
C1639 C 0.83238 0.59076 0.77816 0.0
C1640 C 0.81614 0.61112 0.80047 0.0
H1641 H 0.75326 0.61063 0.84558 0.0
H1642 H 0.76858 0.60137 0.82542 0.0
H1643 H 0.80422 0.63019 0.80825 0.0
H1644 H 0.85604 0.56154 0.79897 0.0
H1645 H 0.83763 0.57558 0.81254 0.0
H1646 H 0.81025 0.57541 0.81189 0.0
C1647 C 0.7723 0.6109 0.83177 0.0
C1648 C 0.80542 0.61822 0.80905 0.0
C1649 C 0.76351 0.61623 0.84329 0.0
C1650 C 0.84959 0.56968 0.79296 0.0
C1651 C 0.83898 0.57766 0.80074 0.0
C1652 C 0.80903 0.58737 0.81097 0.0
C1653 C 0.78604 0.61732 0.82895 0.0
C1654 C 0.79649 0.60992 0.81873 0.0
C1655 C 0.83011 0.58809 0.79338 0.0
C1656 C 0.8182 0.59566 0.80159 0.0
H1657 H 0.78546 0.64449 0.85532 0.0
H1658 H 0.8009 0.63502 0.83531 0.0
H1659 H 0.79175 0.58772 0.82693 0.0
H1660 H 0.84422 0.5847 0.7585 0.0
H1661 H 0.82565 0.59873 0.77224 0.0
C1662 C 0.35012 0.86566 0.78514 0.0
C1663 C 0.36117 0.87548 0.7898 0.0
C1664 C 0.34297 0.85659 0.79553 0.0
C1665 C 0.34146 0.84737 0.83632 0.0
H1666 H 0.35001 0.80759 0.82205 0.0
C1667 C 0.37381 0.80504 0.86909 0.0
C1668 C 0.37188 0.7897 0.86681 0.0
C1669 C 0.36492 0.81533 0.86178 0.0
C1670 C 0.34711 0.8185 0.82625 0.0
H1671 H 0.37194 0.88507 0.80901 0.0
H1672 H 0.35968 0.86938 0.827 0.0
H1673 H 0.34679 0.82761 0.80435 0.0
H1674 H 0.35835 0.77309 0.85596 0.0
H1675 H 0.34292 0.79116 0.84296 0.0
H1676 H 0.3431 0.83833 0.85833 0.0
C1677 C 0.35644 0.86848 0.81544 0.0
C1678 C 0.34522 0.83006 0.81604 0.0
C1679 C 0.3636 0.87743 0.80509 0.0
C1680 C 0.36018 0.78485 0.85787 0.0
C1681 C 0.35135 0.79518 0.85041 0.0
C1682 C 0.34343 0.8358 0.84654 0.0
C1683 C 0.34672 0.8573 0.81071 0.0
C1684 C 0.34333 0.84479 0.82099 0.0
C1685 C 0.35395 0.81053 0.85193 0.0
C1686 C 0.34718 0.82145 0.8416 0.0
H1687 H 0.34796 0.86399 0.7734 0.0
H1688 H 0.33535 0.84826 0.79156 0.0
H1689 H 0.33966 0.85853 0.84048 0.0
H1690 H 0.38261 0.80915 0.87604 0.0
H1691 H 0.36736 0.82706 0.86308 0.0
C1692 C 0.20978 0.35696 0.8401 0.0
C1693 C 0.22247 0.36523 0.84317 0.0
C1694 C 0.20054 0.36111 0.82842 0.0
C1695 C 0.1976 0.38536 0.79507 0.0
H1696 H 0.15736 0.39026 0.80796 0.0
C1697 C 0.14658 0.4265 0.78255 0.0
C1698 C 0.14559 0.42592 0.76696 0.0
C1699 C 0.15538 0.41642 0.79024 0.0
C1700 C 0.16854 0.38888 0.80417 0.0
H1701 H 0.23599 0.38367 0.83579 0.0
H1702 H 0.21986 0.39095 0.81556 0.0
H1703 H 0.17454 0.37676 0.82369 0.0
H1704 H 0.15302 0.4142 0.74721 0.0
H1705 H 0.16855 0.39664 0.76074 0.0
H1706 H 0.1917 0.39816 0.77588 0.0
C1707 C 0.21704 0.38123 0.82209 0.0
C1708 C 0.17834 0.381 0.81309 0.0
C1709 C 0.22622 0.37713 0.83378 0.0
C1710 C 0.15356 0.41496 0.75923 0.0
C1711 C 0.16247 0.40493 0.76694 0.0
C1712 C 0.18776 0.3932 0.78611 0.0
C1713 C 0.2039 0.37354 0.81955 0.0
C1714 C 0.19308 0.37955 0.80885 0.0
C1715 C 0.16344 0.40557 0.78252 0.0
C1716 C 0.17326 0.39542 0.79082 0.0
H1717 H 0.20665 0.34766 0.84707 0.0
H1718 H 0.19056 0.35488 0.8266 0.0
H1719 H 0.20886 0.38428 0.79146 0.0
H1720 H 0.14057 0.43475 0.78888 0.0
H1721 H 0.1561 0.41732 0.80224 0.0
C1722 C 0.63194 0.12896 0.77464 0.0
C1723 C 0.63518 0.11483 0.78052 0.0
C1724 C 0.63107 0.14138 0.78399 0.0
C1725 C 0.6212 0.15103 0.8216 0.0
H1726 H 0.64051 0.18879 0.81447 0.0
C1727 C 0.61105 0.19924 0.86141 0.0
C1728 C 0.60904 0.21333 0.85505 0.0
C1729 C 0.61729 0.18773 0.85315 0.0
C1730 C 0.63492 0.17837 0.81656 0.0
H1731 H 0.64031 0.1027 0.80074 0.0
H1732 H 0.63842 0.12432 0.81706 0.0
H1733 H 0.64514 0.16773 0.79783 0.0
H1734 H 0.61254 0.22678 0.8354 0.0
H1735 H 0.62276 0.2065 0.8206 0.0
H1736 H 0.6103 0.16156 0.83969 0.0
C1737 C 0.63668 0.12577 0.80522 0.0
C1738 C 0.63763 0.16633 0.80705 0.0
C1739 C 0.63778 0.11342 0.79586 0.0
C1740 C 0.61411 0.216 0.84056 0.0
C1741 C 0.61999 0.20435 0.83211 0.0
C1742 C 0.61828 0.16308 0.83091 0.0
C1743 C 0.63319 0.13983 0.79939 0.0
C1744 C 0.63078 0.15257 0.80952 0.0
C1745 C 0.62118 0.18991 0.83814 0.0
C1746 C 0.62509 0.17694 0.82856 0.0
H1747 H 0.62996 0.1304 0.76284 0.0
H1748 H 0.62826 0.1521 0.77927 0.0
H1749 H 0.6156 0.14059 0.8236 0.0
H1750 H 0.60733 0.197 0.87264 0.0
H1751 H 0.61852 0.17695 0.85839 0.0
C1752 C 0.87032 0.40639 0.19172 0.0
C1753 C 0.8649 0.39999 0.20486 0.0
C1754 C 0.86165 0.40708 0.17898 0.0
C1755 C 0.82868 0.39104 0.1612 0.0
H1756 H 0.83071 0.42713 0.13766 0.0
C1757 C 0.78686 0.40954 0.11604 0.0
C1758 C 0.79235 0.41813 0.10421 0.0
C1759 C 0.79633 0.40419 0.12706 0.0
C1760 C 0.8302 0.41685 0.14394 0.0
H1761 H 0.84605 0.38936 0.215 0.0
H1762 H 0.8307 0.39095 0.19277 0.0
H1763 H 0.84544 0.42495 0.15997 0.0
H1764 H 0.81211 0.42613 0.09353 0.0
H1765 H 0.82861 0.41651 0.11251 0.0
H1766 H 0.813 0.38321 0.14521 0.0
C1767 C 0.84179 0.39516 0.19227 0.0
C1768 C 0.83863 0.41562 0.15678 0.0
C1769 C 0.85053 0.39439 0.20503 0.0
C1770 C 0.80756 0.41976 0.10266 0.0
C1771 C 0.81699 0.41433 0.11357 0.0
C1772 C 0.82012 0.39232 0.14833 0.0
C1773 C 0.84727 0.40152 0.1791 0.0
C1774 C 0.83804 0.40269 0.16554 0.0
C1775 C 0.81139 0.40728 0.12631 0.0
C1776 C 0.82087 0.40523 0.13954 0.0
H1777 H 0.88138 0.41068 0.19115 0.0
H1778 H 0.86631 0.41183 0.16897 0.0
H1779 H 0.82807 0.38088 0.16765 0.0
H1780 H 0.77518 0.4081 0.11752 0.0
H1781 H 0.7917 0.39875 0.13673 0.0
C1782 C 0.6106 0.8983 0.17632 0.0
C1783 C 0.61542 0.90195 0.19071 0.0
C1784 C 0.61685 0.88638 0.16866 0.0
C1785 C 0.63155 0.85082 0.18042 0.0
H1786 H 0.6243 0.84164 0.13894 0.0
C1787 C 0.61442 0.79213 0.16306 0.0
C1788 C 0.60073 0.79262 0.15592 0.0
C1789 C 0.62304 0.80497 0.16411 0.0
C1790 C 0.62661 0.84402 0.15052 0.0
H1791 H 0.63232 0.8977 0.20716 0.0
H1792 H 0.6434 0.87709 0.19363 0.0
H1793 H 0.62899 0.86735 0.14636 0.0
H1794 H 0.58589 0.80663 0.14329 0.0
H1795 H 0.6008 0.82889 0.14517 0.0
H1796 H 0.62827 0.82769 0.18473 0.0
C1797 C 0.63441 0.88306 0.18852 0.0
C1798 C 0.62927 0.85874 0.15478 0.0
C1799 C 0.62808 0.89494 0.19625 0.0
C1800 C 0.59628 0.80592 0.14905 0.0
C1801 C 0.60494 0.81865 0.14994 0.0
C1802 C 0.62901 0.83612 0.17614 0.0
C1803 C 0.62814 0.87793 0.17517 0.0
C1804 C 0.63076 0.86244 0.16992 0.0
C1805 C 0.61822 0.81844 0.15782 0.0
C1806 C 0.62557 0.83273 0.1613 0.0
H1807 H 0.60107 0.90365 0.17155 0.0
H1808 H 0.61172 0.88288 0.15838 0.0
H1809 H 0.63259 0.85315 0.19219 0.0
H1810 H 0.61819 0.78201 0.16837 0.0
H1811 H 0.63323 0.80449 0.17024 0.0
C1812 C 0.13416 0.59394 0.19553 0.0
C1813 C 0.14502 0.59519 0.20646 0.0
C1814 C 0.13612 0.60044 0.18159 0.0
C1815 C 0.16205 0.62289 0.15821 0.0
H1816 H 0.1536 0.59164 0.12978 0.0
C1817 C 0.19915 0.60732 0.10979 0.0
C1818 C 0.19356 0.59827 0.09838 0.0
C1819 C 0.18977 0.61334 0.1205 0.0
C1820 C 0.15571 0.60081 0.13729 0.0
H1821 H 0.1659 0.60506 0.21201 0.0
H1822 H 0.16983 0.61577 0.18732 0.0
H1823 H 0.14316 0.59038 0.15422 0.0
H1824 H 0.17373 0.59046 0.08776 0.0
H1825 H 0.15728 0.6016 0.106 0.0
H1826 H 0.17542 0.63276 0.14126 0.0
C1827 C 0.15956 0.61019 0.18956 0.0
C1828 C 0.14968 0.60006 0.15148 0.0
C1829 C 0.15739 0.60398 0.20368 0.0
C1830 C 0.17834 0.59712 0.09665 0.0
C1831 C 0.16894 0.60344 0.10715 0.0
C1832 C 0.16812 0.62365 0.1439 0.0
C1833 C 0.14924 0.60788 0.17813 0.0
C1834 C 0.1532 0.61075 0.16233 0.0
C1835 C 0.17462 0.61062 0.11982 0.0
C1836 C 0.16549 0.61226 0.13347 0.0
H1837 H 0.12442 0.58737 0.19756 0.0
H1838 H 0.12775 0.59883 0.17322 0.0
H1839 H 0.16478 0.63145 0.16621 0.0
H1840 H 0.21085 0.60847 0.11137 0.0
H1841 H 0.1946 0.61882 0.13004 0.0
C1842 C 0.38463 0.20458 0.1528 0.0
C1843 C 0.39513 0.20607 0.1415 0.0
C1844 C 0.37557 0.19204 0.15325 0.0
C1845 C 0.37832 0.15319 0.14158 0.0
H1846 H 0.3424 0.14963 0.16425 0.0
C1847 C 0.37039 0.10029 0.17154 0.0
C1848 C 0.36891 0.10328 0.18679 0.0
C1849 C 0.36572 0.11072 0.16103 0.0
C1850 C 0.35236 0.1504 0.15776 0.0
H1851 H 0.40323 0.19671 0.12086 0.0
H1852 H 0.38703 0.1752 0.12125 0.0
H1853 H 0.34976 0.17391 0.15452 0.0
H1854 H 0.3593 0.11826 0.20298 0.0
H1855 H 0.35192 0.13673 0.18489 0.0
H1856 H 0.38165 0.13019 0.14556 0.0
C1857 C 0.38617 0.1833 0.13015 0.0
C1858 C 0.3566 0.16433 0.15222 0.0
C1859 C 0.39545 0.19562 0.1299 0.0
C1860 C 0.36073 0.11573 0.19128 0.0
C1861 C 0.35642 0.12636 0.18081 0.0
C1862 C 0.37413 0.13937 0.1471 0.0
C1863 C 0.37667 0.18092 0.14224 0.0
C1864 C 0.37003 0.166 0.14473 0.0
C1865 C 0.36002 0.12453 0.16568 0.0
C1866 C 0.36152 0.13791 0.15598 0.0
H1867 H 0.38413 0.21255 0.16183 0.0
H1868 H 0.36848 0.19059 0.1628 0.0
H1869 H 0.3888 0.15395 0.13602 0.0
H1870 H 0.37639 0.09058 0.16778 0.0
H1871 H 0.36807 0.10864 0.1494 0.0
C1872 C 0.86739 0.76435 0.6406 0.0
C1873 C 0.87754 0.76748 0.6519 0.0
C1874 C 0.85549 0.77378 0.63816 0.0
C1875 C 0.83349 0.8047 0.65361 0.0
H1876 H 0.82958 0.81542 0.61199 0.0
C1877 C 0.80389 0.85004 0.61191 0.0
C1878 C 0.78913 0.84847 0.61597 0.0
C1879 C 0.81464 0.84137 0.61867 0.0
C1880 C 0.8306 0.81266 0.62368 0.0
H1881 H 0.88264 0.78243 0.67015 0.0
H1882 H 0.86189 0.79899 0.66577 0.0
H1883 H 0.84751 0.79687 0.61928 0.0
H1884 H 0.77419 0.8375 0.6312 0.0
H1885 H 0.79306 0.82214 0.64294 0.0
H1886 H 0.81653 0.82072 0.6579 0.0
C1887 C 0.86313 0.7892 0.65885 0.0
C1888 C 0.84073 0.80186 0.62783 0.0
C1889 C 0.87505 0.77975 0.6613 0.0
C1890 C 0.78548 0.83892 0.6278 0.0
C1891 C 0.79628 0.83015 0.63454 0.0
C1892 C 0.82322 0.81551 0.64942 0.0
C1893 C 0.85351 0.78656 0.64696 0.0
C1894 C 0.84229 0.79774 0.64281 0.0
C1895 C 0.81086 0.83086 0.62958 0.0
C1896 C 0.82177 0.81965 0.63441 0.0
H1897 H 0.86889 0.75489 0.63327 0.0
H1898 H 0.84808 0.77131 0.62908 0.0
H1899 H 0.83446 0.80171 0.66524 0.0
H1900 H 0.80709 0.8575 0.60301 0.0
H1901 H 0.82585 0.84242 0.61489 0.0
C1902 C 0.86245 0.222 0.38828 0.0
C1903 C 0.8646 0.23057 0.37537 0.0
C1904 C 0.85142 0.21125 0.38881 0.0
C1905 C 0.81743 0.19872 0.37012 0.0
H1906 H 0.82824 0.16012 0.386 0.0
C1907 C 0.78533 0.14506 0.35725 0.0
C1908 C 0.78391 0.13431 0.36852 0.0
C1909 C 0.79388 0.15774 0.35951 0.0
C1910 C 0.82494 0.17089 0.38176 0.0
H1911 H 0.8566 0.23484 0.35304 0.0
H1912 H 0.83749 0.21597 0.35391 0.0
H1913 H 0.84555 0.18065 0.38738 0.0
H1914 H 0.78994 0.12869 0.39119 0.0
H1915 H 0.80478 0.15092 0.39515 0.0
H1916 H 0.79691 0.18883 0.36424 0.0
C1917 C 0.84421 0.21767 0.36369 0.0
C1918 C 0.83487 0.18267 0.38255 0.0
C1919 C 0.85524 0.22842 0.36316 0.0
C1920 C 0.79087 0.13673 0.38225 0.0
C1921 C 0.79944 0.14942 0.3845 0.0
C1922 C 0.80749 0.18693 0.36934 0.0
C1923 C 0.8423 0.20883 0.37645 0.0
C1924 C 0.8313 0.19667 0.37657 0.0
C1925 C 0.80119 0.15996 0.37308 0.0
C1926 C 0.81122 0.17283 0.37497 0.0
H1927 H 0.86941 0.22344 0.39792 0.0
H1928 H 0.85009 0.20476 0.39888 0.0
H1929 H 0.81427 0.20944 0.36562 0.0
H1930 H 0.78011 0.14354 0.34654 0.0
H1931 H 0.79514 0.16555 0.35042 0.0
C1932 C 0.78659 0.84573 0.36075 0.0
C1933 C 0.79104 0.85611 0.37153 0.0
C1934 C 0.79648 0.83504 0.3555 0.0
C1935 C 0.83509 0.82125 0.36058 0.0
H1936 H 0.81501 0.7851 0.37226 0.0
C1937 C 0.85623 0.78193 0.40446 0.0
C1938 C 0.85314 0.76662 0.40395 0.0
C1939 C 0.8515 0.79134 0.39311 0.0
C1940 C 0.82086 0.79491 0.36855 0.0
H1941 H 0.80971 0.86504 0.38341 0.0
H1942 H 0.82677 0.84651 0.37452 0.0
H1943 H 0.80096 0.80611 0.36339 0.0
H1944 H 0.84334 0.74906 0.3907 0.0
H1945 H 0.83471 0.76569 0.37098 0.0
H1946 H 0.85489 0.81033 0.36724 0.0
C1947 C 0.81577 0.84637 0.37006 0.0
C1948 C 0.81277 0.80702 0.36337 0.0
C1949 C 0.80591 0.85697 0.37533 0.0
C1950 C 0.84579 0.76083 0.39147 0.0
C1951 C 0.84089 0.77031 0.38017 0.0
C1952 C 0.84317 0.80915 0.36589 0.0
C1953 C 0.81092 0.83463 0.36094 0.0
C1954 C 0.8197 0.82069 0.36037 0.0
C1955 C 0.84346 0.78571 0.38103 0.0
C1956 C 0.83599 0.79624 0.37085 0.0
H1957 H 0.77521 0.84493 0.35749 0.0
H1958 H 0.79249 0.82634 0.34821 0.0
H1959 H 0.84079 0.83148 0.35796 0.0
H1960 H 0.86202 0.78672 0.41382 0.0
H1961 H 0.85345 0.80318 0.39424 0.0
C1962 C 0.12007 0.78387 0.35656 0.0
C1963 C 0.11194 0.78059 0.36942 0.0
C1964 C 0.13152 0.79418 0.35707 0.0
C1965 C 0.14504 0.82601 0.37899 0.0
H1966 H 0.18106 0.8193 0.35713 0.0
C1967 C 0.19412 0.86616 0.38333 0.0
C1968 C 0.20106 0.86994 0.36989 0.0
C1969 C 0.18391 0.85458 0.38381 0.0
C1970 C 0.17102 0.82138 0.36321 0.0
H1971 H 0.10964 0.78537 0.39299 0.0
H1972 H 0.12967 0.80322 0.39388 0.0
H1973 H 0.16194 0.80034 0.35691 0.0
H1974 H 0.20293 0.86432 0.34647 0.0
H1975 H 0.18505 0.84425 0.3473 0.0
H1976 H 0.15404 0.8471 0.38519 0.0
C1977 C 0.12707 0.79799 0.38335 0.0
C1978 C 0.16006 0.81053 0.36307 0.0
C1979 C 0.11563 0.7877 0.38285 0.0
C1980 C 0.19779 0.8617 0.35701 0.0
C1981 C 0.1876 0.85013 0.3575 0.0
C1982 C 0.15599 0.83686 0.37913 0.0
C1983 C 0.13509 0.80143 0.37045 0.0
C1984 C 0.14692 0.81275 0.3709 0.0
C1985 C 0.18044 0.84652 0.37087 0.0
C1986 C 0.16907 0.83471 0.37118 0.0
H1987 H 0.1175 0.77861 0.34604 0.0
H1988 H 0.13737 0.7967 0.34689 0.0
H1989 H 0.13496 0.82818 0.38495 0.0
H1990 H 0.19644 0.87224 0.39346 0.0
H1991 H 0.17873 0.85195 0.39433 0.0
C1992 C 0.19818 0.12522 0.40179 0.0
C1993 C 0.21073 0.13357 0.39854 0.0
C1994 C 0.18431 0.13118 0.39924 0.0
C1995 C 0.16044 0.15151 0.40897 0.0
H1996 H 0.1503 0.18425 0.38285 0.0
C1997 C 0.13203 0.21079 0.41679 0.0
C1998 C 0.12072 0.20668 0.42657 0.0
C1999 C 0.13938 0.2 0.40844 0.0
C2000 C 0.15293 0.17505 0.39017 0.0
H2001 H 0.21887 0.15403 0.38897 0.0
H2002 H 0.19467 0.16488 0.38522 0.0
H2003 H 0.17036 0.16751 0.37608 0.0
H2004 H 0.10721 0.18829 0.43405 0.0
H2005 H 0.11986 0.16953 0.41928 0.0
H2006 H 0.14367 0.15934 0.42342 0.0
C2007 C 0.19538 0.15356 0.38929 0.0
C2008 C 0.16442 0.16548 0.3863 0.0
C2009 C 0.20928 0.1474 0.39148 0.0
C2010 C 0.11608 0.19177 0.42685 0.0
C2011 C 0.12333 0.18102 0.41839 0.0
C2012 C 0.14898 0.16099 0.41278 0.0
C2013 C 0.18276 0.14583 0.39393 0.0
C2014 C 0.16867 0.15392 0.39596 0.0
C2015 C 0.13549 0.18491 0.40961 0.0
C2016 C 0.14544 0.17321 0.40373 0.0
H2017 H 0.19911 0.11445 0.40713 0.0
H2018 H 0.17483 0.12472 0.40248 0.0
H2019 H 0.16348 0.14297 0.41689 0.0
H2020 H 0.1358 0.2222 0.41623 0.0
H2021 H 0.14876 0.2034 0.4019 0.0
C2022 C 0.23398 0.18502 0.62169 0.0
C2023 C 0.23495 0.18234 0.6063 0.0
C2024 C 0.22156 0.19195 0.62772 0.0
C2025 C 0.18947 0.21487 0.61659 0.0
H2026 H 0.17124 0.19892 0.65214 0.0
C2027 C 0.12842 0.22139 0.62928 0.0
C2028 C 0.12419 0.22529 0.64379 0.0
C2029 C 0.14302 0.21818 0.62605 0.0
C2030 C 0.17634 0.20364 0.64233 0.0
H2031 H 0.22348 0.18471 0.58524 0.0
H2032 H 0.20199 0.1964 0.5957 0.0
H2033 H 0.19505 0.18935 0.64411 0.0
H2034 H 0.13193 0.22896 0.66631 0.0
H2035 H 0.15755 0.22299 0.66066 0.0
H2036 H 0.17047 0.22866 0.61443 0.0
C2037 C 0.2109 0.19352 0.60313 0.0
C2038 C 0.18998 0.19819 0.63775 0.0
C2039 C 0.22323 0.18668 0.59713 0.0
C2040 C 0.1349 0.22603 0.65501 0.0
C2041 C 0.14951 0.22256 0.65181 0.0
C2042 C 0.17583 0.2202 0.62108 0.0
C2043 C 0.20991 0.19634 0.61847 0.0
C2044 C 0.19649 0.20345 0.62458 0.0
C2045 C 0.15368 0.21859 0.6373 0.0
C2046 C 0.16896 0.21437 0.63378 0.0
H2047 H 0.24281 0.18183 0.62907 0.0
H2048 H 0.22114 0.19401 0.63959 0.0
H2049 H 0.19435 0.21945 0.6066 0.0
H2050 H 0.12043 0.22077 0.62039 0.0
H2051 H 0.14591 0.215 0.6148 0.0
C2052 C 0.76302 0.13767 0.60909 0.0
C2053 C 0.76232 0.12765 0.5971 0.0
C2054 C 0.77162 0.15048 0.60814 0.0
C2055 C 0.80392 0.1646 0.58842 0.0
H2056 H 0.79372 0.20175 0.60786 0.0
C2057 C 0.84469 0.21285 0.59016 0.0
C2058 C 0.84703 0.21884 0.60441 0.0
C2059 C 0.83249 0.20394 0.58734 0.0
C2060 C 0.79671 0.19144 0.60238 0.0
H2061 H 0.76953 0.12356 0.57446 0.0
H2062 H 0.78438 0.14602 0.57274 0.0
H2063 H 0.77564 0.18177 0.60632 0.0
H2064 H 0.8379 0.22101 0.6266 0.0
H2065 H 0.81671 0.2053 0.62172 0.0
H2066 H 0.82506 0.17405 0.5848 0.0
C2067 C 0.77852 0.14383 0.58298 0.0
C2068 C 0.78637 0.18 0.60152 0.0
C2069 C 0.76997 0.13098 0.58395 0.0
C2070 C 0.83645 0.2165 0.61552 0.0
C2071 C 0.82425 0.20756 0.6127 0.0
C2072 C 0.81421 0.17603 0.58924 0.0
C2073 C 0.77966 0.15358 0.59516 0.0
C2074 C 0.78997 0.16635 0.59476 0.0
C2075 C 0.82239 0.20082 0.59871 0.0
C2076 C 0.81081 0.18948 0.59645 0.0
H2077 H 0.75724 0.13545 0.61937 0.0
H2078 H 0.77239 0.15765 0.6178 0.0
H2079 H 0.80716 0.15416 0.58337 0.0
H2080 H 0.85254 0.21459 0.5813 0.0
H2081 H 0.8312 0.19912 0.57637 0.0
C2082 C 0.20439 0.90212 0.59388 0.0
C2083 C 0.21163 0.90652 0.60696 0.0
C2084 C 0.19827 0.88792 0.59271 0.0
C2085 C 0.20018 0.85018 0.6091 0.0
H2086 H 0.16235 0.84518 0.59022 0.0
C2087 C 0.16526 0.79687 0.6144 0.0
C2088 C 0.15691 0.79234 0.60207 0.0
C2089 C 0.17332 0.81007 0.61394 0.0
C2090 C 0.17303 0.84634 0.59531 0.0
H2091 H 0.21792 0.89951 0.62916 0.0
H2092 H 0.207 0.87483 0.62721 0.0
H2093 H 0.17313 0.8699 0.59188 0.0
H2094 H 0.15116 0.79771 0.57927 0.0
H2095 H 0.16533 0.82071 0.57844 0.0
H2096 H 0.19992 0.82661 0.61273 0.0
C2097 C 0.20629 0.88227 0.61775 0.0
C2098 C 0.17921 0.86053 0.59629 0.0
C2099 C 0.21244 0.89647 0.61892 0.0
C2100 C 0.15741 0.80091 0.58899 0.0
C2101 C 0.16544 0.81415 0.58855 0.0
C2102 C 0.19398 0.83598 0.60814 0.0
C2103 C 0.19921 0.87779 0.6046 0.0
C2104 C 0.19281 0.86264 0.60328 0.0
C2105 C 0.17319 0.81905 0.60114 0.0
C2106 C 0.18029 0.83392 0.60132 0.0
H2107 H 0.20363 0.90955 0.58442 0.0
H2108 H 0.19304 0.88478 0.58236 0.0
H2109 H 0.21079 0.85137 0.61432 0.0
H2110 H 0.16516 0.7905 0.62464 0.0
H2111 H 0.17909 0.81357 0.62386 0.0
C2112 C 0.09592 0.24237 0.49956 0.0
C2113 C 0.09882 0.25551 0.4916 0.0
C2114 C 0.09106 0.24297 0.51427 0.0
C2115 C 0.09258 0.26606 0.54749 0.0
H2116 H 0.06121 0.24054 0.56147 0.0
C2117 C 0.08374 0.25142 0.60937 0.0
C2118 C 0.06931 0.25176 0.61482 0.0
C2119 C 0.08653 0.25318 0.59419 0.0
C2120 C 0.0699 0.24782 0.5577 0.0
H2121 H 0.09888 0.27963 0.49291 0.0
H2122 H 0.09059 0.28065 0.51878 0.0
H2123 H 0.06714 0.24129 0.53495 0.0
H2124 H 0.0465 0.25425 0.60855 0.0
H2125 H 0.05141 0.25714 0.58198 0.0
H2126 H 0.09553 0.27236 0.57029 0.0
C2127 C 0.09201 0.26989 0.51352 0.0
C2128 C 0.07335 0.24817 0.54256 0.0
C2129 C 0.0967 0.2693 0.49871 0.0
C2130 C 0.05774 0.25395 0.60473 0.0
C2131 C 0.06053 0.25554 0.58952 0.0
C2132 C 0.08923 0.26558 0.56266 0.0
C2133 C 0.08918 0.25672 0.52145 0.0
C2134 C 0.08482 0.25718 0.53733 0.0
C2135 C 0.07495 0.25516 0.5841 0.0
C2136 C 0.07795 0.25635 0.56793 0.0
H2137 H 0.09761 0.23157 0.49455 0.0
H2138 H 0.08917 0.23264 0.52018 0.0
H2139 H 0.10153 0.27302 0.54377 0.0
H2140 H 0.09292 0.24977 0.61682 0.0
H2141 H 0.09775 0.25267 0.5903 0.0
C2142 C 0.72122 0.06681 0.53271 0.0
C2143 C 0.73024 0.07509 0.54231 0.0
C2144 C 0.72281 0.06795 0.5173 0.0
C2145 C 0.73796 0.09144 0.48729 0.0
H2146 H 0.73706 0.05453 0.46494 0.0
C2147 C 0.75281 0.08742 0.42446 0.0
C2148 C 0.74409 0.07791 0.41574 0.0
C2149 C 0.75112 0.08783 0.43995 0.0
C2150 C 0.73718 0.06496 0.47098 0.0
H2151 H 0.74778 0.09137 0.54314 0.0
H2152 H 0.75059 0.09324 0.5162 0.0
H2153 H 0.73393 0.05397 0.4918 0.0
H2154 H 0.72644 0.06173 0.41649 0.0
H2155 H 0.72343 0.06261 0.4433 0.0
H2156 H 0.74121 0.10241 0.46636 0.0
C2157 C 0.74223 0.08595 0.52065 0.0
C2158 C 0.73537 0.06464 0.48639 0.0
C2159 C 0.74065 0.08481 0.53609 0.0
C2160 C 0.73346 0.06909 0.42283 0.0
C2161 C 0.73177 0.06953 0.43825 0.0
C2162 C 0.73975 0.09177 0.47182 0.0
C2163 C 0.73345 0.07738 0.51109 0.0
C2164 C 0.73562 0.07787 0.49472 0.0
C2165 C 0.7407 0.07874 0.44702 0.0
C2166 C 0.73925 0.07853 0.46348 0.0
H2167 H 0.71301 0.05929 0.53707 0.0
H2168 H 0.7157 0.06139 0.51023 0.0
H2169 H 0.7381 0.10183 0.49339 0.0
H2170 H 0.76111 0.09436 0.41937 0.0
H2171 H 0.75823 0.09499 0.44641 0.0
C2172 C 0.88154 0.71264 0.47934 0.0
C2173 C 0.87195 0.72339 0.47351 0.0
C2174 C 0.88694 0.71402 0.49381 0.0
C2175 C 0.87956 0.73073 0.53015 0.0
H2176 H 0.92134 0.72613 0.53625 0.0
C2177 C 0.90631 0.74032 0.58769 0.0
C2178 C 0.9176 0.73051 0.59182 0.0
C2179 C 0.90086 0.74032 0.57314 0.0
C2180 C 0.90963 0.72726 0.5348 0.0
H2181 H 0.86014 0.74376 0.4784 0.0
H2182 H 0.86944 0.74604 0.50382 0.0
H2183 H 0.91124 0.72394 0.51126 0.0
H2184 H 0.93198 0.71298 0.58386 0.0
H2185 H 0.92226 0.71269 0.55875 0.0
H2186 H 0.87783 0.73364 0.55371 0.0
C2187 C 0.87283 0.73662 0.49713 0.0
C2188 C 0.90386 0.72605 0.52047 0.0
C2189 C 0.86758 0.73534 0.48257 0.0
C2190 C 0.92337 0.72078 0.58105 0.0
C2191 C 0.91783 0.72068 0.56659 0.0
C2192 C 0.8853 0.73178 0.54454 0.0
C2193 C 0.8827 0.72606 0.50281 0.0
C2194 C 0.88877 0.72768 0.51801 0.0
C2195 C 0.90648 0.73041 0.56243 0.0
C2196 C 0.90041 0.72996 0.54706 0.0
H2197 H 0.88513 0.70331 0.47262 0.0
H2198 H 0.89441 0.70564 0.49799 0.0
H2199 H 0.86787 0.73193 0.52856 0.0
H2200 H 0.90167 0.74802 0.59569 0.0
H2201 H 0.89228 0.74813 0.57029 0.0
C2202 C 0.25967 0.91722 0.43405 0.0
C2203 C 0.24738 0.91238 0.42599 0.0
C2204 C 0.25977 0.91672 0.44955 0.0
C2205 C 0.23428 0.91832 0.48085 0.0
H2206 H 0.26987 0.9133 0.50385 0.0
C2207 C 0.23684 0.93117 0.54385 0.0
C2208 C 0.24857 0.94042 0.54806 0.0
C2209 C 0.23656 0.92455 0.52977 0.0
C2210 C 0.25984 0.91472 0.49757 0.0
H2211 H 0.22586 0.90238 0.42791 0.0
H2212 H 0.22608 0.90141 0.45512 0.0
H2213 H 0.2696 0.90641 0.47757 0.0
H2214 H 0.2694 0.94955 0.54088 0.0
H2215 H 0.26887 0.938 0.51637 0.0
H2216 H 0.22465 0.92698 0.50077 0.0
C2217 C 0.23557 0.90578 0.44937 0.0
C2218 C 0.25967 0.91077 0.48254 0.0
C2219 C 0.23548 0.90624 0.43379 0.0
C2220 C 0.26017 0.94254 0.53801 0.0
C2221 C 0.25994 0.93583 0.52399 0.0
C2222 C 0.23443 0.92219 0.49592 0.0
C2223 C 0.24758 0.91135 0.45743 0.0
C2224 C 0.24703 0.91297 0.47388 0.0
C2225 C 0.24805 0.9269 0.51966 0.0
C2226 C 0.24734 0.92084 0.50431 0.0
H2227 H 0.26908 0.92193 0.42842 0.0
H2228 H 0.26914 0.92127 0.45535 0.0
H2229 H 0.22441 0.92033 0.4745 0.0
H2230 H 0.22773 0.92925 0.55132 0.0
H2231 H 0.22731 0.91764 0.52677 0.0
C2232 C 0.10669 0.72668 0.54462 0.0
C2233 C 0.11156 0.73998 0.55119 0.0
C2234 C 0.10496 0.72562 0.52925 0.0
C2235 C 0.11332 0.74297 0.49296 0.0
H2236 H 0.07573 0.72614 0.48209 0.0
C2237 C 0.08863 0.74703 0.43349 0.0
C2238 C 0.08055 0.73476 0.42828 0.0
C2239 C 0.09385 0.74735 0.44813 0.0
C2240 C 0.08637 0.73065 0.48487 0.0
H2241 H 0.11937 0.76231 0.54664 0.0
H2242 H 0.11624 0.76048 0.51963 0.0
H2243 H 0.08284 0.72711 0.50808 0.0
H2244 H 0.07221 0.71293 0.4342 0.0
H2245 H 0.08153 0.71339 0.45952 0.0
H2246 H 0.11677 0.74653 0.46962 0.0
C2247 C 0.1138 0.75087 0.52646 0.0
C2248 C 0.09045 0.73123 0.49979 0.0
C2249 C 0.11558 0.75191 0.54192 0.0
C2250 C 0.07823 0.72264 0.43788 0.0
C2251 C 0.08352 0.72293 0.45244 0.0
C2252 C 0.10925 0.74233 0.47794 0.0
C2253 C 0.108 0.73786 0.52004 0.0
C2254 C 0.10398 0.73731 0.50403 0.0
C2255 C 0.09118 0.73539 0.45784 0.0
C2256 C 0.09574 0.7361 0.47372 0.0
H2257 H 0.10372 0.71718 0.5514 0.0
H2258 H 0.10082 0.71533 0.5246 0.0
H2259 H 0.12384 0.74768 0.4959 0.0
H2260 H 0.09062 0.75656 0.42639 0.0
H2261 H 0.09959 0.75718 0.45195 0.0
C2262 C 0.27121 0.11957 0.45583 0.0
C2263 C 0.27975 0.12258 0.44322 0.0
C2264 C 0.27725 0.12059 0.47004 0.0
C2265 C 0.30428 0.14172 0.49008 0.0
H2266 H 0.29356 0.11547 0.52257 0.0
C2267 C 0.30478 0.13872 0.55875 0.0
C2268 C 0.29753 0.15223 0.56156 0.0
C2269 C 0.3071 0.13396 0.54411 0.0
C2270 C 0.29693 0.12277 0.51361 0.0
H2271 H 0.30148 0.12835 0.43547 0.0
H2272 H 0.31203 0.13049 0.46048 0.0
H2273 H 0.28911 0.10773 0.49692 0.0
H2274 H 0.28794 0.17182 0.5514 0.0
H2275 H 0.29212 0.16362 0.52592 0.0
H2276 H 0.31134 0.15711 0.50682 0.0
C2277 C 0.30066 0.12727 0.45931 0.0
C2278 C 0.29428 0.11839 0.49895 0.0
C2279 C 0.29465 0.126 0.44504 0.0
C2280 C 0.29348 0.16131 0.54954 0.0
C2281 C 0.29598 0.15667 0.53496 0.0
C2282 C 0.3068 0.14617 0.50476 0.0
C2283 C 0.29193 0.12481 0.47194 0.0
C2284 C 0.29747 0.12803 0.48708 0.0
C2285 C 0.30244 0.14277 0.53208 0.0
C2286 C 0.30268 0.13695 0.51667 0.0
H2287 H 0.25981 0.1166 0.4548 0.0
H2288 H 0.27022 0.11875 0.47958 0.0
H2289 H 0.30677 0.14942 0.48115 0.0
H2290 H 0.30799 0.13148 0.56782 0.0
H2291 H 0.31214 0.12321 0.54218 0.0
C2292 C 0.91331 0.26648 0.55214 0.0
C2293 C 0.90493 0.25523 0.55888 0.0
C2294 C 0.91263 0.2688 0.53681 0.0
C2295 C 0.89098 0.2607 0.5029 0.0
H2296 H 0.9281 0.26811 0.48331 0.0
C2297 C 0.89941 0.25978 0.43867 0.0
C2298 C 0.90844 0.27099 0.43275 0.0
C2299 C 0.89784 0.25819 0.45409 0.0
C2300 C 0.91763 0.26621 0.48863 0.0
H2301 H 0.88893 0.23786 0.55479 0.0
H2302 H 0.88797 0.24174 0.52793 0.0
H2303 H 0.92744 0.26473 0.51012 0.0
H2304 H 0.92245 0.28968 0.43844 0.0
H2305 H 0.91968 0.28689 0.46517 0.0
H2306 H 0.88127 0.262 0.4812 0.0
C2307 C 0.89493 0.24889 0.53457 0.0
C2308 C 0.91723 0.2643 0.50401 0.0
C2309 C 0.89553 0.24662 0.54996 0.0
C2310 C 0.9155 0.28083 0.44257 0.0
C2311 C 0.91398 0.27921 0.45792 0.0
C2312 C 0.8914 0.26255 0.48744 0.0
C2313 C 0.90366 0.25986 0.5278 0.0
C2314 C 0.9039 0.26166 0.51137 0.0
C2315 C 0.90533 0.26773 0.46385 0.0
C2316 C 0.90472 0.26545 0.48018 0.0
H2317 H 0.92052 0.27345 0.55868 0.0
H2318 H 0.91925 0.27757 0.532 0.0
H2319 H 0.88053 0.25879 0.50825 0.0
H2320 H 0.89378 0.25203 0.43143 0.0
H2321 H 0.89116 0.2492 0.45836 0.0
C2322 C 0.72577 0.88429 0.43751 0.0
C2323 C 0.73851 0.8776 0.43178 0.0
C2324 C 0.72396 0.88603 0.45289 0.0
C2325 C 0.74512 0.88742 0.48772 0.0
H2326 H 0.7103 0.87188 0.50695 0.0
C2327 C 0.74637 0.86496 0.54658 0.0
C2328 C 0.73532 0.86907 0.55664 0.0
C2329 C 0.74528 0.86866 0.5316 0.0
C2330 C 0.71995 0.87654 0.50171 0.0
H2331 H 0.75915 0.86721 0.43774 0.0
H2332 H 0.75611 0.87044 0.46431 0.0
H2333 H 0.71112 0.87392 0.47974 0.0
H2334 H 0.71417 0.87986 0.55877 0.0
H2335 H 0.71215 0.88615 0.53224 0.0
H2336 H 0.75421 0.88945 0.50953 0.0
C2337 C 0.74761 0.87455 0.45697 0.0
C2338 C 0.72042 0.87771 0.48618 0.0
C2339 C 0.74935 0.87269 0.4417 0.0
C2340 C 0.72289 0.87661 0.55128 0.0
C2341 C 0.72173 0.88021 0.53615 0.0
C2342 C 0.74465 0.88623 0.50316 0.0
C2343 C 0.73494 0.88125 0.46274 0.0
C2344 C 0.73323 0.88263 0.47905 0.0
C2345 C 0.73305 0.87645 0.52624 0.0
C2346 C 0.73229 0.88026 0.51026 0.0
H2347 H 0.71719 0.88813 0.43013 0.0
H2348 H 0.71406 0.89119 0.45708 0.0
H2349 H 0.75501 0.89153 0.4825 0.0
H2350 H 0.75591 0.85882 0.55023 0.0
H2351 H 0.75399 0.86529 0.52413 0.0
C2352 C 0.44104 0.09756 0.22488 0.0
C2353 C 0.43262 0.09341 0.23729 0.0
C2354 C 0.45603 0.10014 0.2263 0.0
C2355 C 0.48339 0.11089 0.25431 0.0
H2356 H 0.5107 0.10218 0.22241 0.0
C2357 C 0.5453 0.1244 0.25782 0.0
C2358 C 0.5515 0.13106 0.24514 0.0
C2359 C 0.5311 0.11864 0.25737 0.0
C2360 C 0.50318 0.10475 0.23137 0.0
H2361 H 0.43343 0.08813 0.26081 0.0
H2362 H 0.45974 0.09242 0.26326 0.0
H2363 H 0.48559 0.09311 0.22083 0.0
H2364 H 0.54747 0.13726 0.22218 0.0
H2365 H 0.52276 0.1271 0.22137 0.0
H2366 H 0.50101 0.12259 0.2648 0.0
C2367 C 0.45467 0.09391 0.25247 0.0
C2368 C 0.4888 0.09956 0.23048 0.0
C2369 C 0.43962 0.09135 0.25105 0.0
C2370 C 0.54313 0.132 0.23207 0.0
C2371 C 0.52897 0.12615 0.23159 0.0
C2372 C 0.49781 0.116 0.25524 0.0
C2373 C 0.46299 0.0986 0.24016 0.0
C2374 C 0.47866 0.10278 0.24182 0.0
C2375 C 0.52283 0.11936 0.24422 0.0
C2376 C 0.50778 0.11319 0.24367 0.0
H2377 H 0.436 0.09938 0.21414 0.0
H2378 H 0.46203 0.10395 0.21663 0.0
H2379 H 0.47583 0.11377 0.26314 0.0
H2380 H 0.55145 0.12349 0.26808 0.0
H2381 H 0.52667 0.1134 0.26726 0.0
C2382 C 0.91583 0.55419 0.2509 0.0
C2383 C 0.92426 0.55841 0.26331 0.0
C2384 C 0.91017 0.53975 0.24981 0.0
C2385 C 0.90057 0.50707 0.27254 0.0
H2386 H 0.90775 0.48403 0.23677 0.0
C2387 C 0.9025 0.44367 0.27316 0.0
C2388 C 0.89714 0.43546 0.26101 0.0
C2389 C 0.90298 0.45915 0.27269 0.0
C2390 C 0.90537 0.49039 0.24672 0.0
H2391 H 0.93316 0.5508 0.28438 0.0
H2392 H 0.92323 0.52576 0.28249 0.0
H2393 H 0.91395 0.5105 0.23729 0.0
H2394 H 0.88776 0.43719 0.23891 0.0
H2395 H 0.88861 0.46446 0.2381 0.0
H2396 H 0.89228 0.487 0.28212 0.0
C2397 C 0.92096 0.53361 0.27364 0.0
C2398 C 0.90896 0.50553 0.24703 0.0
C2399 C 0.92675 0.54794 0.27466 0.0
C2400 C 0.89196 0.44318 0.24846 0.0
C2401 C 0.89251 0.45878 0.24796 0.0
C2402 C 0.89692 0.492 0.27222 0.0
C2403 C 0.91265 0.52934 0.2612 0.0
C2404 C 0.907 0.5139 0.2601 0.0
C2405 C 0.89812 0.46691 0.26006 0.0
C2406 C 0.89972 0.48337 0.25948 0.0
H2407 H 0.91373 0.56198 0.24196 0.0
H2408 H 0.90376 0.53676 0.24012 0.0
H2409 H 0.89867 0.51333 0.28267 0.0
H2410 H 0.90656 0.43814 0.28305 0.0
H2411 H 0.9076 0.46502 0.28211 0.0
C2412 C 0.54524 0.91919 0.25417 0.0
C2413 C 0.55215 0.91752 0.2403 0.0
C2414 C 0.53023 0.91646 0.25566 0.0
C2415 C 0.49607 0.90991 0.23379 0.0
H2416 H 0.48509 0.8858 0.26781 0.0
C2417 C 0.4443 0.87368 0.23447 0.0
C2418 C 0.43522 0.87483 0.24704 0.0
C2419 C 0.45817 0.88017 0.23443 0.0
C2420 C 0.48797 0.89266 0.25834 0.0
H2421 H 0.54862 0.91233 0.21699 0.0
H2422 H 0.5227 0.90735 0.2196 0.0
H2423 H 0.50977 0.89603 0.26627 0.0
H2424 H 0.43388 0.88314 0.26969 0.0
H2425 H 0.4583 0.89421 0.26968 0.0
H2426 H 0.47441 0.90598 0.2256 0.0
C2427 C 0.52871 0.911 0.22932 0.0
C2428 C 0.50208 0.89862 0.25748 0.0
C2429 C 0.54364 0.9138 0.22783 0.0
C2430 C 0.44057 0.88209 0.2598 0.0
C2431 C 0.45455 0.88843 0.25981 0.0
C2432 C 0.48204 0.90382 0.23457 0.0
C2433 C 0.52186 0.91194 0.24331 0.0
C2434 C 0.50639 0.9071 0.24506 0.0
C2435 C 0.46336 0.88775 0.24703 0.0
C2436 C 0.47793 0.89495 0.24673 0.0
H2437 H 0.5515 0.9221 0.26398 0.0
H2438 H 0.52526 0.91754 0.26654 0.0
H2439 H 0.4989 0.91664 0.22421 0.0
H2440 H 0.44067 0.8679 0.22459 0.0
H2441 H 0.46489 0.87922 0.22453 0.0
C2442 C 0.14947 0.52652 0.26029 0.0
C2443 C 0.14128 0.53797 0.26681 0.0
C2444 C 0.14562 0.51165 0.26264 0.0
C2445 C 0.12048 0.48738 0.28535 0.0
H2446 H 0.12927 0.4592 0.254 0.0
C2447 C 0.10415 0.4256 0.291 0.0
C2448 C 0.10107 0.41755 0.27803 0.0
C2449 C 0.10994 0.43997 0.2901 0.0
C2450 C 0.12643 0.46691 0.26279 0.0
H2451 H 0.12256 0.54312 0.28063 0.0
H2452 H 0.11513 0.51739 0.2839 0.0
H2453 H 0.13702 0.48469 0.25143 0.0
H2454 H 0.10121 0.41811 0.25397 0.0
H2455 H 0.11016 0.44351 0.25226 0.0
H2456 H 0.10872 0.46995 0.29606 0.0
C2457 C 0.12501 0.51958 0.27763 0.0
C2458 C 0.13124 0.4816 0.26147 0.0
C2459 C 0.12918 0.53441 0.27569 0.0
C2460 C 0.10364 0.42411 0.26413 0.0
C2461 C 0.10894 0.43865 0.2632 0.0
C2462 C 0.11524 0.47282 0.28643 0.0
C2463 C 0.13314 0.50793 0.27111 0.0
C2464 C 0.12835 0.4921 0.27273 0.0
C2465 C 0.11232 0.4468 0.27617 0.0
C2466 C 0.11812 0.46233 0.27516 0.0
H2467 H 0.1589 0.52906 0.25343 0.0
H2468 H 0.15248 0.50312 0.25776 0.0
H2469 H 0.11826 0.49491 0.29448 0.0
H2470 H 0.1024 0.42065 0.30185 0.0
H2471 H 0.1127 0.44558 0.30037 0.0
C2472 C 0.43484 0.88216 0.75278 0.0
C2473 C 0.42648 0.88721 0.74069 0.0
C2474 C 0.45005 0.88291 0.7524 0.0
C2475 C 0.48144 0.88318 0.72764 0.0
H2476 H 0.50174 0.89647 0.76314 0.0
C2477 C 0.54483 0.8803 0.73476 0.0
C2478 C 0.54925 0.87408 0.7484 0.0
C2479 C 0.53016 0.88424 0.73244 0.0
C2480 C 0.49624 0.89274 0.75314 0.0
H2481 H 0.42757 0.8967 0.71851 0.0
H2482 H 0.45438 0.89778 0.71778 0.0
H2483 H 0.47524 0.89911 0.76153 0.0
H2484 H 0.54168 0.8667 0.77008 0.0
H2485 H 0.51637 0.87359 0.76608 0.0
H2486 H 0.50245 0.87627 0.71951 0.0
C2487 C 0.44903 0.89339 0.7276 0.0
C2488 C 0.48109 0.89426 0.75222 0.0
C2489 C 0.43372 0.89278 0.72804 0.0
C2490 C 0.53874 0.87176 0.75956 0.0
C2491 C 0.5242 0.87574 0.75728 0.0
C2492 C 0.49666 0.88161 0.72858 0.0
C2493 C 0.45731 0.88858 0.73985 0.0
C2494 C 0.4735 0.88906 0.73968 0.0
C2495 C 0.51974 0.88208 0.74375 0.0
C2496 C 0.50411 0.88592 0.74156 0.0
H2497 H 0.42967 0.8775 0.76256 0.0
H2498 H 0.45618 0.87881 0.76188 0.0
H2499 H 0.47582 0.87906 0.71786 0.0
H2500 H 0.55268 0.88218 0.72593 0.0
H2501 H 0.527 0.88909 0.72188 0.0
C2502 C 0.1075 0.4974 0.74308 0.0
C2503 C 0.10308 0.48835 0.73114 0.0
C2504 C 0.10174 0.51167 0.74482 0.0
C2505 C 0.07088 0.53583 0.73417 0.0
H2506 H 0.09801 0.56777 0.74321 0.0
C2507 C 0.05534 0.59774 0.72869 0.0
C2508 C 0.06093 0.60787 0.73919 0.0
C2509 C 0.05985 0.5829 0.72871 0.0
C2510 C 0.09024 0.55895 0.74092 0.0
H2511 H 0.08902 0.48712 0.71175 0.0
H2512 H 0.07897 0.51218 0.71476 0.0
H2513 H 0.107 0.54232 0.74117 0.0
H2514 H 0.07537 0.61017 0.75822 0.0
H2515 H 0.0831 0.58417 0.75836 0.0
H2516 H 0.05412 0.55248 0.73386 0.0
C2517 C 0.08681 0.50813 0.72284 0.0
C2518 C 0.09541 0.54437 0.73972 0.0
C2519 C 0.09262 0.49382 0.72107 0.0
C2520 C 0.07091 0.6027 0.74992 0.0
C2521 C 0.0754 0.58782 0.74995 0.0
C2522 C 0.0657 0.55041 0.73542 0.0
C2523 C 0.09142 0.51725 0.73467 0.0
C2524 C 0.0858 0.53266 0.73625 0.0
C2525 C 0.07002 0.57778 0.73925 0.0
C2526 C 0.07535 0.56216 0.73871 0.0
H2527 H 0.11559 0.49356 0.751 0.0
H2528 H 0.10538 0.51836 0.75414 0.0
H2529 H 0.06319 0.527 0.73169 0.0
H2530 H 0.04765 0.6013 0.72024 0.0
H2531 H 0.05564 0.57553 0.72019 0.0
C2532 C 0.46859 0.10649 0.7636 0.0
C2533 C 0.45819 0.10303 0.75261 0.0
C2534 C 0.48338 0.10338 0.76136 0.0
C2535 C 0.50843 0.07948 0.74051 0.0
H2536 H 0.53725 0.10968 0.75012 0.0
C2537 C 0.56954 0.07178 0.72672 0.0
C2538 C 0.57992 0.07705 0.73701 0.0
C2539 C 0.55472 0.0751 0.72843 0.0
C2540 C 0.52937 0.10104 0.74758 0.0
H2541 H 0.45514 0.09352 0.73066 0.0
H2542 H 0.48112 0.08792 0.72678 0.0
H2543 H 0.51128 0.11508 0.75331 0.0
H2544 H 0.58279 0.08991 0.75722 0.0
H2545 H 0.55683 0.09542 0.76042 0.0
H2546 H 0.52646 0.06531 0.73507 0.0
C2547 C 0.47774 0.09304 0.73714 0.0
C2548 C 0.51449 0.10417 0.74935 0.0
C2549 C 0.4629 0.0963 0.73933 0.0
C2550 C 0.5751 0.08574 0.74906 0.0
C2551 C 0.56021 0.08896 0.75084 0.0
C2552 C 0.52332 0.0763 0.73886 0.0
C2553 C 0.48812 0.09665 0.74811 0.0
C2554 C 0.50388 0.09342 0.74585 0.0
C2555 C 0.54984 0.08367 0.74054 0.0
C2556 C 0.53399 0.08704 0.74237 0.0
H2557 H 0.46534 0.11176 0.77393 0.0
H2558 H 0.49112 0.10613 0.77006 0.0
H2559 H 0.50049 0.07092 0.73791 0.0
H2560 H 0.57287 0.06517 0.71722 0.0
H2561 H 0.5471 0.07108 0.72012 0.0
C2562 C 0.89313 0.50295 0.75464 0.0
C2563 C 0.89526 0.51101 0.74141 0.0
C2564 C 0.89944 0.48894 0.75648 0.0
C2565 C 0.92848 0.4641 0.74312 0.0
H2566 H 0.90273 0.43287 0.75735 0.0
C2567 C 0.94439 0.40197 0.74114 0.0
C2568 C 0.93975 0.39271 0.75284 0.0
C2569 C 0.93966 0.41672 0.7403 0.0
C2570 C 0.91015 0.44149 0.7536 0.0
H2571 H 0.906 0.51087 0.71989 0.0
H2572 H 0.91712 0.48629 0.72316 0.0
H2573 H 0.89347 0.45815 0.75485 0.0
H2574 H 0.92679 0.39183 0.77306 0.0
H2575 H 0.91879 0.41767 0.77177 0.0
H2576 H 0.94522 0.44746 0.74198 0.0
C2577 C 0.91058 0.4909 0.73209 0.0
C2578 C 0.90482 0.45596 0.75212 0.0
C2579 C 0.90416 0.50492 0.7302 0.0
C2580 C 0.93048 0.39862 0.76383 0.0
C2581 C 0.92584 0.41342 0.76305 0.0
C2582 C 0.93387 0.44962 0.74471 0.0
C2583 C 0.90807 0.48269 0.74517 0.0
C2584 C 0.91391 0.4674 0.74684 0.0
C2585 C 0.93026 0.42261 0.75119 0.0
C2586 C 0.92474 0.43812 0.74993 0.0
H2587 H 0.8863 0.50729 0.76348 0.0
H2588 H 0.89747 0.48294 0.76674 0.0
H2589 H 0.93576 0.47275 0.73916 0.0
H2590 H 0.95148 0.39776 0.73244 0.0
H2591 H 0.94311 0.42339 0.7309 0.0
C2592 C 0.25351 0.52583 0.07472 0.0
C2593 C 0.24095 0.53283 0.08043 0.0
C2594 C 0.25469 0.51031 0.07482 0.0
C2595 C 0.24099 0.47736 0.0945 0.0
H2596 H 0.25498 0.4557 0.06 0.0
C2597 C 0.23909 0.41309 0.09075 0.0
C2598 C 0.25065 0.40589 0.08335 0.0
C2599 C 0.23813 0.42864 0.09076 0.0
C2600 C 0.25126 0.46158 0.06982 0.0
H2601 H 0.21972 0.52905 0.09058 0.0
H2602 H 0.22179 0.50202 0.09074 0.0
H2603 H 0.25288 0.48273 0.05893 0.0
H2604 H 0.2706 0.40939 0.0707 0.0
H2605 H 0.26913 0.43638 0.07106 0.0
H2606 H 0.23953 0.45628 0.10548 0.0
C2607 C 0.23074 0.50853 0.08626 0.0
C2608 C 0.25002 0.47706 0.06917 0.0
C2609 C 0.22952 0.52401 0.08604 0.0
C2610 C 0.26146 0.41456 0.07637 0.0
C2611 C 0.26056 0.43007 0.07649 0.0
C2612 C 0.24233 0.46188 0.09519 0.0
C2613 C 0.24338 0.50152 0.08077 0.0
C2614 C 0.24483 0.4851 0.08148 0.0
C2615 C 0.24877 0.4373 0.08347 0.0
C2616 C 0.24746 0.45379 0.08285 0.0
H2617 H 0.26252 0.53234 0.07034 0.0
H2618 H 0.2646 0.5052 0.0706 0.0
H2619 H 0.23715 0.4833 0.10424 0.0
H2620 H 0.23055 0.40674 0.09619 0.0
H2621 H 0.22882 0.43383 0.09613 0.0
C2622 C 0.26388 0.53848 0.87023 0.0
C2623 C 0.25212 0.54342 0.86145 0.0
C2624 C 0.26571 0.52329 0.87317 0.0
C2625 C 0.24472 0.48806 0.87365 0.0
H2626 H 0.28307 0.4696 0.87523 0.0
C2627 C 0.25235 0.42452 0.87728 0.0
C2628 C 0.26268 0.41927 0.88763 0.0
C2629 C 0.25143 0.43968 0.87396 0.0
C2630 C 0.2723 0.47465 0.87494 0.0
H2631 H 0.23348 0.53634 0.8483 0.0
H2632 H 0.23682 0.50994 0.85317 0.0
H2633 H 0.28098 0.4961 0.86946 0.0
H2634 H 0.28028 0.4259 0.90245 0.0
H2635 H 0.27866 0.45235 0.8966 0.0
H2636 H 0.23604 0.46661 0.87899 0.0
C2637 C 0.24439 0.51775 0.85815 0.0
C2638 C 0.2711 0.48982 0.87166 0.0
C2639 C 0.24252 0.53289 0.85531 0.0
C2640 C 0.27217 0.42954 0.89445 0.0
C2641 C 0.27132 0.44469 0.89104 0.0
C2642 C 0.24592 0.47291 0.87683 0.0
C2643 C 0.25587 0.51277 0.86731 0.0
C2644 C 0.25728 0.49669 0.87093 0.0
C2645 C 0.26089 0.44992 0.88082 0.0
C2646 C 0.25971 0.46603 0.87747 0.0
H2647 H 0.27144 0.54636 0.87514 0.0
H2648 H 0.27459 0.51985 0.88036 0.0
H2649 H 0.23393 0.49305 0.8735 0.0
H2650 H 0.24488 0.41693 0.8718 0.0
H2651 H 0.24339 0.44337 0.86591 0.0
C2652 C 0.4421 0.27124 0.93433 0.0
C2653 C 0.43234 0.26003 0.92975 0.0
C2654 C 0.45661 0.27123 0.92947 0.0
C2655 C 0.48545 0.24746 0.91332 0.0
H2656 H 0.50166 0.28503 0.89987 0.0
C2657 C 0.53972 0.25066 0.881 0.0
C2658 C 0.54943 0.26226 0.88449 0.0
C2659 C 0.5256 0.25045 0.8869 0.0
C2660 C 0.49737 0.27449 0.90377 0.0
H2661 H 0.43037 0.23978 0.91673 0.0
H2662 H 0.45574 0.23981 0.90821 0.0
H2663 H 0.4768 0.28421 0.90971 0.0
H2664 H 0.55188 0.28289 0.89676 0.0
H2665 H 0.52717 0.28248 0.90721 0.0
H2666 H 0.506 0.23772 0.90736 0.0
C2667 C 0.45213 0.24856 0.91565 0.0
C2668 C 0.48312 0.27401 0.9094 0.0
C2669 C 0.43758 0.24858 0.92049 0.0
C2670 C 0.54464 0.27381 0.89385 0.0
C2671 C 0.53048 0.27359 0.89979 0.0
C2672 C 0.49971 0.24793 0.90772 0.0
C2673 C 0.46175 0.26001 0.91993 0.0
C2674 C 0.47698 0.26049 0.91419 0.0
C2675 C 0.52083 0.26185 0.89645 0.0
C2676 C 0.50581 0.26144 0.90281 0.0
H2677 H 0.43851 0.2802 0.94153 0.0
H2678 H 0.46381 0.28006 0.93317 0.0
H2679 H 0.4811 0.23691 0.91712 0.0
H2680 H 0.54299 0.24171 0.87364 0.0
H2681 H 0.51836 0.24141 0.88385 0.0
C2682 C 0.72497 0.56563 0.90801 0.0
C2683 C 0.7339 0.5761 0.90074 0.0
C2684 C 0.72525 0.55065 0.90383 0.0
C2685 C 0.73595 0.52612 0.87246 0.0
H2686 H 0.73282 0.49486 0.90205 0.0
C2687 C 0.74897 0.46451 0.86023 0.0
C2688 C 0.73958 0.4537 0.86624 0.0
C2689 C 0.74729 0.4795 0.86397 0.0
C2690 C 0.73352 0.50348 0.89365 0.0
H2691 H 0.75046 0.57891 0.88365 0.0
H2692 H 0.75123 0.55276 0.87663 0.0
H2693 H 0.73242 0.52085 0.90989 0.0
H2694 H 0.72086 0.45011 0.88064 0.0
H2695 H 0.71797 0.47637 0.88726 0.0
H2696 H 0.73738 0.50869 0.85627 0.0
C2697 C 0.74371 0.55618 0.88531 0.0
C2698 C 0.73329 0.51838 0.89813 0.0
C2699 C 0.74336 0.57117 0.88942 0.0
C2700 C 0.72825 0.4582 0.87582 0.0
C2701 C 0.72666 0.4732 0.87969 0.0
C2702 C 0.73629 0.51124 0.868 0.0
C2703 C 0.73455 0.54575 0.89235 0.0
C2704 C 0.73458 0.52989 0.8876 0.0
C2705 C 0.73626 0.48397 0.8739 0.0
C2706 C 0.73515 0.49976 0.87855 0.0
H2707 H 0.71749 0.56904 0.91672 0.0
H2708 H 0.71792 0.54298 0.90937 0.0
H2709 H 0.73665 0.53469 0.86401 0.0
H2710 H 0.75775 0.46139 0.85275 0.0
H2711 H 0.75492 0.48753 0.85942 0.0
C2712 C 0.44107 0.72928 0.89677 0.0
C2713 C 0.43599 0.74112 0.88797 0.0
C2714 C 0.45531 0.72937 0.90242 0.0
C2715 C 0.49194 0.74521 0.89683 0.0
H2716 H 0.49743 0.73451 0.93826 0.0
C2717 C 0.54879 0.7473 0.92545 0.0
C2718 C 0.55218 0.73523 0.93481 0.0
C2719 C 0.53455 0.74921 0.92 0.0
C2720 C 0.49612 0.7374 0.92663 0.0
H2721 H 0.44202 0.76213 0.87778 0.0
H2722 H 0.46695 0.76225 0.88762 0.0
H2723 H 0.47284 0.73512 0.92783 0.0
H2724 H 0.54314 0.71579 0.94586 0.0
H2725 H 0.51858 0.71898 0.93623 0.0
H2726 H 0.51526 0.74718 0.89554 0.0
C2727 C 0.45988 0.75293 0.89018 0.0
C2728 C 0.48202 0.73775 0.92067 0.0
C2729 C 0.44558 0.75289 0.88463 0.0
C2730 C 0.54096 0.72526 0.93873 0.0
C2731 C 0.5268 0.72714 0.93328 0.0
C2732 C 0.50609 0.74476 0.90277 0.0
C2733 C 0.46482 0.74125 0.89928 0.0
C2734 C 0.47979 0.74149 0.90567 0.0
C2735 C 0.52341 0.7391 0.92381 0.0
C2736 C 0.50835 0.74067 0.91771 0.0
H2737 H 0.43396 0.72004 0.89954 0.0
H2738 H 0.45889 0.72012 0.90923 0.0
H2739 H 0.49055 0.74804 0.8852 0.0
H2740 H 0.55715 0.75522 0.92222 0.0
H2741 H 0.53227 0.75864 0.91286 0.0
C2742 C 0.76589 0.59935 0.09014 0.0
C2743 C 0.75577 0.60901 0.08341 0.0
C2744 C 0.76419 0.58394 0.08895 0.0
C2745 C 0.73726 0.5545 0.08221 0.0
H2746 H 0.77139 0.53106 0.07174 0.0
C2747 C 0.73529 0.49014 0.07484 0.0
C2748 C 0.74703 0.48243 0.08137 0.0
C2749 C 0.7357 0.5057 0.0736 0.0
C2750 C 0.76177 0.53742 0.07477 0.0
H2751 H 0.7357 0.61005 0.07049 0.0
H2752 H 0.73272 0.58314 0.06857 0.0
H2753 H 0.77335 0.55805 0.07319 0.0
H2754 H 0.76821 0.48502 0.09202 0.0
H2755 H 0.76885 0.51181 0.08998 0.0
H2756 H 0.72577 0.5338 0.08421 0.0
C2757 C 0.74197 0.58752 0.0747 0.0
C2758 C 0.76291 0.55287 0.0756 0.0
C2759 C 0.74374 0.60292 0.07575 0.0
C2760 C 0.7591 0.49054 0.08665 0.0
C2761 C 0.7595 0.50596 0.08544 0.0
C2762 C 0.73613 0.53898 0.0815 0.0
C2763 C 0.75226 0.57788 0.08114 0.0
C2764 C 0.75074 0.56155 0.07956 0.0
C2765 C 0.74785 0.51376 0.07887 0.0
C2766 C 0.74846 0.53026 0.07804 0.0
H2767 H 0.77526 0.60366 0.09612 0.0
H2768 H 0.7722 0.57674 0.09417 0.0
H2769 H 0.72771 0.56094 0.08532 0.0
H2770 H 0.72582 0.48418 0.07072 0.0
H2771 H 0.72657 0.51141 0.06844 0.0
C2772 C 0.53234 0.74432 0.1595 0.0
C2773 C 0.54289 0.73328 0.15681 0.0
C2774 C 0.51789 0.74234 0.15492 0.0
C2775 C 0.4958 0.72187 0.12754 0.0
H2776 H 0.46365 0.73806 0.15062 0.0
C2777 C 0.43415 0.71926 0.11012 0.0
C2778 C 0.42644 0.7327 0.11194 0.0
C2779 C 0.44851 0.71786 0.11545 0.0
C2780 C 0.47253 0.73353 0.14403 0.0
H2781 H 0.54646 0.7112 0.14775 0.0
H2782 H 0.52106 0.70762 0.13991 0.0
H2783 H 0.48816 0.73757 0.16124 0.0
H2784 H 0.42792 0.75531 0.12034 0.0
H2785 H 0.4528 0.75285 0.12951 0.0
H2786 H 0.48002 0.71792 0.11029 0.0
C2787 C 0.52406 0.71792 0.14536 0.0
C2788 C 0.48657 0.73325 0.1501 0.0
C2789 C 0.53856 0.71992 0.14996 0.0
C2790 C 0.43351 0.74481 0.11873 0.0
C2791 C 0.44774 0.74337 0.12412 0.0
C2792 C 0.48168 0.72205 0.12149 0.0
C2793 C 0.51361 0.72921 0.1476 0.0
C2794 C 0.49844 0.72776 0.1418 0.0
C2795 C 0.45528 0.72981 0.12281 0.0
C2796 C 0.46999 0.72823 0.12956 0.0
H2797 H 0.53529 0.75468 0.16487 0.0
H2798 H 0.5102 0.75134 0.15668 0.0
H2799 H 0.50473 0.71767 0.1208 0.0
H2800 H 0.42899 0.70973 0.10495 0.0
H2801 H 0.4541 0.70729 0.11428 0.0
C2802 C 0.56855 0.24723 0.10226 0.0
C2803 C 0.57592 0.2602 0.0978 0.0
C2804 C 0.55372 0.24768 0.10588 0.0
C2805 C 0.52583 0.27319 0.12 0.0
H2806 H 0.49967 0.2405 0.11074 0.0
C2807 C 0.46497 0.2711 0.13871 0.0
C2808 C 0.45988 0.25724 0.14378 0.0
C2809 C 0.47887 0.27238 0.13233 0.0
C2810 C 0.50688 0.24966 0.1135 0.0
H2811 H 0.57338 0.28375 0.09317 0.0
H2812 H 0.54733 0.28453 0.09951 0.0
H2813 H 0.52402 0.24117 0.09967 0.0
H2814 H 0.46568 0.23404 0.14693 0.0
H2815 H 0.4899 0.23627 0.13587 0.0
H2816 H 0.50873 0.28153 0.13404 0.0
C2817 C 0.55312 0.27403 0.10028 0.0
C2818 C 0.5208 0.25007 0.10712 0.0
C2819 C 0.568 0.27356 0.09656 0.0
C2820 C 0.46917 0.24482 0.14288 0.0
C2821 C 0.48303 0.24608 0.13649 0.0
C2822 C 0.51188 0.27279 0.12638 0.0
C2823 C 0.5459 0.26112 0.10519 0.0
C2824 C 0.53054 0.26168 0.11052 0.0
C2825 C 0.48793 0.25981 0.1309 0.0
C2826 C 0.50237 0.26086 0.12342 0.0
H2827 H 0.5743 0.23678 0.1035 0.0
H2828 H 0.54854 0.23758 0.10983 0.0
H2829 H 0.53315 0.28219 0.12297 0.0
H2830 H 0.45804 0.28088 0.13923 0.0
H2831 H 0.48234 0.2831 0.1281 0.0
C2832 C 0.58812 0.7446 0.10267 0.0
C2833 C 0.57481 0.75002 0.10835 0.0
C2834 C 0.59022 0.74325 0.08732 0.0
C2835 C 0.57555 0.75725 0.05148 0.0
H2836 H 0.59911 0.72537 0.03499 0.0
C2837 C 0.59473 0.7578 0.99042 0.0
C2838 C 0.59543 0.74419 0.98275 0.0
C2839 C 0.59184 0.75812 0.00568 0.0
C2840 C 0.59235 0.73425 0.03937 0.0
H2841 H 0.55308 0.75774 0.10241 0.0
H2842 H 0.55657 0.75497 0.07572 0.0
H2843 H 0.59434 0.72604 0.06161 0.0
H2844 H 0.59359 0.72024 0.98513 0.0
H2845 H 0.58802 0.72082 0.01158 0.0
H2846 H 0.57315 0.76519 0.0292 0.0
C2847 C 0.56557 0.75218 0.08306 0.0
C2848 C 0.58979 0.73476 0.05469 0.0
C2849 C 0.56353 0.75369 0.09838 0.0
C2850 C 0.59306 0.73092 0.99066 0.0
C2851 C 0.59002 0.73125 0.00589 0.0
C2852 C 0.578 0.75667 0.03615 0.0
C2853 C 0.57901 0.74714 0.07731 0.0
C2854 C 0.58142 0.74632 0.06095 0.0
C2855 C 0.58944 0.74485 0.01362 0.0
C2856 C 0.58651 0.74522 0.0299 0.0
H2857 H 0.59706 0.74175 0.11005 0.0
H2858 H 0.60079 0.73953 0.08331 0.0
H2859 H 0.56923 0.76644 0.0559 0.0
H2860 H 0.59663 0.76822 0.98468 0.0
H2861 H 0.59176 0.76879 0.01128 0.0
C2862 C 0.2342 0.5866 0.91477 0.0
C2863 C 0.22495 0.57667 0.90715 0.0
C2864 C 0.23334 0.58803 0.93025 0.0
C2865 C 0.20887 0.58108 0.96223 0.0
H2866 H 0.24478 0.57966 0.98517 0.0
C2867 C 0.20955 0.56697 0.02462 0.0
C2868 C 0.2197 0.57417 0.0339 0.0
C2869 C 0.20986 0.56915 0.00925 0.0
C2870 C 0.23466 0.58033 0.97895 0.0
H2871 H 0.20737 0.56064 0.90989 0.0
H2872 H 0.20592 0.56314 0.93679 0.0
H2873 H 0.24596 0.58016 0.95806 0.0
H2874 H 0.23793 0.58966 0.03426 0.0
H2875 H 0.23834 0.59358 0.0074 0.0
H2876 H 0.19754 0.58108 0.98307 0.0
C2877 C 0.21376 0.56989 0.93079 0.0
C2878 C 0.23534 0.5806 0.96341 0.0
C2879 C 0.21468 0.56838 0.91536 0.0
C2880 C 0.22998 0.58387 0.02745 0.0
C2881 C 0.23028 0.58607 0.01204 0.0
C2882 C 0.20818 0.58086 0.97776 0.0
C2883 C 0.22312 0.57966 0.93842 0.0
C2884 C 0.22245 0.58071 0.95489 0.0
C2885 C 0.2203 0.57863 0.00275 0.0
C2886 C 0.22106 0.58021 0.9863 0.0
H2887 H 0.24223 0.59317 0.9088 0.0
H2888 H 0.24062 0.59573 0.93582 0.0
H2889 H 0.19875 0.58142 0.95597 0.0
H2890 H 0.20149 0.55939 0.02918 0.0
H2891 H 0.20215 0.56307 0.00241 0.0
C2892 C 0.43229 0.25025 0.08704 0.0
C2893 C 0.4215 0.25156 0.09808 0.0
C2894 C 0.42873 0.25215 0.07207 0.0
C2895 C 0.39921 0.26431 0.04604 0.0
H2896 H 0.41792 0.23548 0.02015 0.0
C2897 C 0.38937 0.26268 0.98227 0.0
C2898 C 0.38904 0.24862 0.97543 0.0
C2899 C 0.39327 0.26408 0.99726 0.0
C2900 C 0.41246 0.24351 0.02722 0.0
H2901 H 0.39867 0.25659 0.10224 0.0
H2902 H 0.39226 0.25939 0.07602 0.0
H2903 H 0.42483 0.23666 0.04611 0.0
H2904 H 0.39193 0.22494 0.97912 0.0
H2905 H 0.39826 0.22731 0.00525 0.0
H2906 H 0.38631 0.27061 0.02717 0.0
C2907 C 0.40357 0.25721 0.0789 0.0
C2908 C 0.41663 0.24439 0.04211 0.0
C2909 C 0.40721 0.25557 0.09394 0.0
C2910 C 0.39226 0.23596 0.98399 0.0
C2911 C 0.396 0.23734 0.99897 0.0
C2912 C 0.39492 0.26333 0.03112 0.0
C2913 C 0.41421 0.25509 0.06776 0.0
C2914 C 0.41006 0.25478 0.05174 0.0
C2915 C 0.39676 0.25143 0.00576 0.0
C2916 C 0.40144 0.25284 0.02155 0.0
H2917 H 0.44345 0.24739 0.08995 0.0
H2918 H 0.43731 0.2509 0.06385 0.0
H2919 H 0.394 0.27253 0.05309 0.0
H2920 H 0.38677 0.27265 0.97607 0.0
H2921 H 0.39383 0.27511 0.00208 0.0
C2922 C 0.77797 0.44348 0.02835 0.0
C2923 C 0.76715 0.43744 0.03769 0.0
C2924 C 0.77789 0.44057 0.0131 0.0
C2925 C 0.76363 0.41541 0.98407 0.0
H2926 H 0.77035 0.44954 0.95857 0.0
C2927 C 0.7561 0.41459 0.91961 0.0
C2928 C 0.76631 0.4228 0.91125 0.0
C2929 C 0.75625 0.4152 0.9352 0.0
C2930 C 0.76864 0.43984 0.96551 0.0
H2931 H 0.74801 0.42314 0.0383 0.0
H2932 H 0.74786 0.41812 0.01157 0.0
H2933 H 0.77058 0.45268 0.98541 0.0
H2934 H 0.78518 0.43741 0.91276 0.0
H2935 H 0.78557 0.43823 0.93974 0.0
H2936 H 0.76171 0.40258 0.96403 0.0
C2937 C 0.75644 0.42507 0.01613 0.0
C2938 C 0.76876 0.44165 0.98091 0.0
C2939 C 0.7565 0.42801 0.03144 0.0
C2940 C 0.77701 0.43111 0.91881 0.0
C2941 C 0.7772 0.43165 0.93431 0.0
C2942 C 0.76354 0.41358 0.96859 0.0
C2943 C 0.76699 0.43154 0.00677 0.0
C2944 C 0.76642 0.42945 0.99039 0.0
C2945 C 0.76663 0.42399 0.9427 0.0
C2946 C 0.76621 0.42576 0.95914 0.0
H2947 H 0.78643 0.45069 0.03276 0.0
H2948 H 0.78634 0.44549 0.00623 0.0
H2949 H 0.76185 0.40578 0.9911 0.0
H2950 H 0.74771 0.40809 0.91413 0.0
H2951 H 0.74793 0.4092 0.94134 0.0
C2952 C 0.6049 0.25132 0.92573 0.0
C2953 C 0.59546 0.24023 0.92024 0.0
C2954 C 0.60934 0.2512 0.94062 0.0
C2955 C 0.612 0.22699 0.97386 0.0
H2956 H 0.60828 0.26388 0.99595 0.0
C2957 C 0.60585 0.22843 0.03738 0.0
C2958 C 0.61243 0.24002 0.04549 0.0
C2959 C 0.60624 0.22837 0.02186 0.0
C2960 C 0.60965 0.25354 0.98991 0.0
H2961 H 0.58365 0.2201 0.92607 0.0
H2962 H 0.59134 0.21995 0.95195 0.0
H2963 H 0.60463 0.2639 0.96907 0.0
H2964 H 0.62495 0.26046 0.04355 0.0
H2965 H 0.62567 0.26028 0.01637 0.0
H2966 H 0.61672 0.21657 0.99472 0.0
C2967 C 0.59539 0.22867 0.94473 0.0
C2968 C 0.60755 0.25356 0.9745 0.0
C2969 C 0.59089 0.22883 0.92989 0.0
C2970 C 0.61972 0.25139 0.03767 0.0
C2971 C 0.62008 0.25133 0.02209 0.0
C2972 C 0.61413 0.22699 0.98924 0.0
C2973 C 0.60453 0.23994 0.95031 0.0
C2974 C 0.60838 0.24022 0.96636 0.0
C2975 C 0.61322 0.23988 0.01402 0.0
C2976 C 0.61266 0.2402 0.9975 0.0
H2977 H 0.60865 0.26026 0.9186 0.0
H2978 H 0.61649 0.25996 0.94458 0.0
H2979 H 0.61298 0.21659 0.96784 0.0
H2980 H 0.60015 0.21948 0.043 0.0
H2981 H 0.60066 0.21949 0.016 0.0
C2982 C 0.77204 0.66056 0.04623 0.0
C2983 C 0.78293 0.65428 0.0553 0.0
C2984 C 0.77093 0.65653 0.0313 0.0
C2985 C 0.788 0.64424 0.99827 0.0
H2986 H 0.75167 0.62338 0.99022 0.0
C2987 C 0.7712 0.6261 0.93864 0.0
C2988 C 0.75646 0.62873 0.93499 0.0
C2989 C 0.77596 0.62732 0.9534 0.0
C2990 C 0.76183 0.62926 0.99223 0.0
H2991 H 0.80197 0.63981 0.05555 0.0
H2992 H 0.80019 0.63309 0.02911 0.0
H2993 H 0.75783 0.63029 0.01569 0.0
H2994 H 0.7352 0.63474 0.94393 0.0
H2995 H 0.74346 0.63712 0.9694 0.0
H2996 H 0.79164 0.644 0.97471 0.0
C2997 C 0.79241 0.6409 0.03377 0.0
C2998 C 0.76537 0.6331 0.00681 0.0
C2999 C 0.79341 0.64477 0.04884 0.0
C3000 C 0.74658 0.63244 0.94637 0.0
C3001 C 0.75133 0.63373 0.96104 0.0
C3002 C 0.78435 0.64057 0.98358 0.0
C3003 C 0.78087 0.64641 0.02508 0.0
C3004 C 0.7783 0.64088 0.00988 0.0
C3005 C 0.76608 0.63124 0.96476 0.0
C3006 C 0.77102 0.63338 0.98037 0.0
H3007 H 0.76404 0.66821 0.05075 0.0
H3008 H 0.76206 0.66104 0.02469 0.0
H3009 H 0.79802 0.65028 0.00047 0.0
H3010 H 0.77907 0.62322 0.93009 0.0
H3011 H 0.78737 0.6252 0.95591 0.0
C3012 C 0.40214 0.77166 0.93784 0.0
C3013 C 0.3957 0.76092 0.92853 0.0
C3014 C 0.40039 0.77094 0.95324 0.0
C3015 C 0.39262 0.74443 0.98331 0.0
H3016 H 0.38864 0.78033 0.00694 0.0
C3017 C 0.38685 0.74362 0.04755 0.0
C3018 C 0.39519 0.7542 0.05538 0.0
C3019 C 0.38576 0.74429 0.03204 0.0
C3020 C 0.38985 0.77022 0.0005 0.0
H3021 H 0.382 0.7412 0.92817 0.0
H3022 H 0.37884 0.74003 0.95514 0.0
H3023 H 0.38812 0.78197 0.97987 0.0
H3024 H 0.409 0.77372 0.05298 0.0
H3025 H 0.40716 0.77479 0.02599 0.0
H3026 H 0.3945 0.73271 0.00398 0.0
C3027 C 0.3854 0.74891 0.95046 0.0
C3028 C 0.38954 0.77115 0.98499 0.0
C3029 C 0.38714 0.74964 0.935 0.0
C3030 C 0.40246 0.7654 0.04734 0.0
C3031 C 0.40132 0.76609 0.03186 0.0
C3032 C 0.3929 0.7435 0.99884 0.0
C3033 C 0.39214 0.75948 0.95975 0.0
C3034 C 0.39115 0.7583 0.97621 0.0
C3035 C 0.39292 0.75558 0.02404 0.0
C3036 C 0.39174 0.75641 0.00759 0.0
H3037 H 0.40882 0.78052 0.93328 0.0
H3038 H 0.40589 0.77914 0.96007 0.0
H3039 H 0.39407 0.73434 0.97687 0.0
H3040 H 0.38109 0.73485 0.05337 0.0
H3041 H 0.37912 0.7361 0.02634 0.0
C3042 C 0.21698 0.36575 0.04405 0.0
C3043 C 0.22953 0.35886 0.04998 0.0
C3044 C 0.21626 0.3692 0.02885 0.0
C3045 C 0.24015 0.37808 0.99784 0.0
H3046 H 0.21063 0.3622 0.97123 0.0
C3047 C 0.25165 0.36886 0.93644 0.0
C3048 C 0.24069 0.37149 0.92582 0.0
C3049 C 0.24856 0.36993 0.95157 0.0
C3050 C 0.21877 0.36701 0.97855 0.0
H3051 H 0.25069 0.34933 0.04446 0.0
H3052 H 0.24958 0.35571 0.01824 0.0
H3053 H 0.20788 0.35905 0.9982 0.0
H3054 H 0.21784 0.37734 0.92275 0.0
H3055 H 0.21243 0.37921 0.9494 0.0
H3056 H 0.25125 0.38576 0.97839 0.0
C3057 C 0.24041 0.35862 0.02534 0.0
C3058 C 0.2172 0.36518 0.99394 0.0
C3059 C 0.24105 0.35501 0.04037 0.0
C3060 C 0.22653 0.37528 0.93068 0.0
C3061 C 0.22342 0.37631 0.94592 0.0
C3062 C 0.24166 0.38002 0.98255 0.0
C3063 C 0.22815 0.36596 0.01949 0.0
C3064 C 0.22817 0.37022 0.00363 0.0
C3065 C 0.23443 0.37364 0.9565 0.0
C3066 C 0.2313 0.37399 0.9727 0.0
H3067 H 0.2079 0.36878 0.05119 0.0
H3068 H 0.20666 0.37478 0.02451 0.0
H3069 H 0.24864 0.38226 0.00515 0.0
H3070 H 0.2626 0.36568 0.93311 0.0
H3071 H 0.25722 0.36745 0.95943 0.0
C3072 C 0.00999 0.64716 0.74351 0.0
C3073 C 0.01903 0.64678 0.75614 0.0
C3074 C 0.99674 0.63934 0.74331 0.0
C3075 C 0.96965 0.62048 0.76783 0.0
H3076 H 0.96088 0.59759 0.73236 0.0
C3077 C 0.92739 0.57279 0.76751 0.0
C3078 C 0.91793 0.57177 0.7552 0.0
C3079 C 0.9391 0.5828 0.76744 0.0
C3080 C 0.96307 0.60405 0.74228 0.0
H3081 H 0.021 0.6383 0.77867 0.0
H3082 H 0.99809 0.62463 0.77827 0.0
H3083 H 0.98209 0.61404 0.73262 0.0
H3084 H 0.91346 0.58053 0.73314 0.0
H3085 H 0.9339 0.59795 0.73306 0.0
H3086 H 0.95078 0.61025 0.77757 0.0
C3087 C 0.00109 0.63106 0.76854 0.0
C3088 C 0.97521 0.61352 0.74242 0.0
C3089 C 0.01429 0.63887 0.76875 0.0
C3090 C 0.92053 0.58097 0.7428 0.0
C3091 C 0.93228 0.59093 0.74272 0.0
C3092 C 0.95755 0.61097 0.7677 0.0
C3093 C 0.99224 0.631 0.75575 0.0
C3094 C 0.97874 0.62175 0.75525 0.0
C3095 C 0.94168 0.59199 0.75505 0.0
C3096 C 0.9542 0.60254 0.75498 0.0
H3097 H 0.01321 0.65332 0.73369 0.0
H3098 H 0.99006 0.63975 0.73336 0.0
H3099 H 0.9719 0.62684 0.77781 0.0
H3100 H 0.92574 0.56589 0.77724 0.0
H3101 H 0.94625 0.5832 0.77704 0.0
C3102 C 0.38724 0.9446 0.75427 0.0
C3103 C 0.39414 0.93554 0.76497 0.0
C3104 C 0.38854 0.96014 0.75497 0.0
C3105 C 0.41349 0.98863 0.76961 0.0
H3106 H 0.38143 0.01635 0.76385 0.0
C3107 C 0.42023 0.05022 0.78369 0.0
C3108 C 0.41463 0.06079 0.77367 0.0
C3109 C 0.41663 0.0352 0.7823 0.0
C3110 C 0.39052 0.00874 0.76532 0.0
H3111 H 0.40717 0.93584 0.78519 0.0
H3112 H 0.40931 0.9627 0.78638 0.0
H3113 H 0.37697 0.98951 0.76187 0.0
H3114 H 0.40041 0.06386 0.75456 0.0
H3115 H 0.39425 0.03749 0.75204 0.0
H3116 H 0.42707 0.00765 0.77299 0.0
C3117 C 0.40315 0.95783 0.77731 0.0
C3118 C 0.38796 0.99339 0.76418 0.0
C3119 C 0.40185 0.9424 0.77664 0.0
C3120 C 0.40494 0.05601 0.76247 0.0
C3121 C 0.40136 0.04091 0.76105 0.0
C3122 C 0.41604 0.00388 0.77069 0.0
C3123 C 0.39679 0.96687 0.76633 0.0
C3124 C 0.39939 0.98319 0.76658 0.0
C3125 C 0.40738 0.03031 0.7708 0.0
C3126 C 0.40456 0.01413 0.76882 0.0
H3127 H 0.3812 0.93969 0.74514 0.0
H3128 H 0.38352 0.96684 0.74634 0.0
H3129 H 0.4226 0.98106 0.77114 0.0
H3130 H 0.42757 0.05349 0.79257 0.0
H3131 H 0.42119 0.02739 0.79022 0.0
C3132 C 0.07107 0.43388 0.76856 0.0
C3133 C 0.07923 0.43208 0.75541 0.0
C3134 C 0.05938 0.42436 0.77178 0.0
C3135 C 0.0447 0.38717 0.76252 0.0
H3136 H 0.00821 0.40292 0.77795 0.0
C3137 C 0.99074 0.35393 0.76221 0.0
C3138 C 0.98088 0.35592 0.77404 0.0
C3139 C 0.00353 0.36239 0.76138 0.0
C3140 C 0.0184 0.39829 0.77389 0.0
H3141 H 0.08129 0.41893 0.73521 0.0
H3142 H 0.06087 0.40252 0.74077 0.0
H3143 H 0.02871 0.41969 0.77348 0.0
H3144 H 0.97709 0.36778 0.79472 0.0
H3145 H -0.00045 0.3824 0.79338 0.0
H3146 H 0.03435 0.36581 0.76276 0.0
C3147 C 0.06364 0.41114 0.74871 0.0
C3148 C 0.03015 0.40792 0.77129 0.0
C3149 C 0.07529 0.42066 0.74547 0.0
C3150 C 0.98444 0.36601 0.78543 0.0
C3151 C 0.99724 0.3745 0.78459 0.0
C3152 C 0.03297 0.37754 0.76513 0.0
C3153 C 0.05562 0.41281 0.76195 0.0
C3154 C 0.04337 0.4025 0.76541 0.0
C3155 C 0.00678 0.37301 0.77239 0.0
C3156 C 0.01963 0.38302 0.77068 0.0
H3157 H 0.07381 0.44253 0.77648 0.0
H3158 H 0.05346 0.42587 0.78212 0.0
H3159 H 0.05483 0.3826 0.75824 0.0
H3160 H 0.9884 0.34611 0.75336 0.0
H3161 H 0.01058 0.36102 0.75179 0.0
C3162 C 0.60601 0.91865 0.76638 0.0
C3163 C 0.59168 0.9156 0.77117 0.0
C3164 C 0.61094 0.93332 0.76525 0.0
C3165 C 0.61602 0.9648 0.75489 0.0
H3166 H 0.60151 0.99551 0.78136 0.0
C3167 C 0.62426 0.02696 0.74204 0.0
C3168 C 0.62595 0.03698 0.7539 0.0
C3169 C 0.62079 0.01207 0.74472 0.0
C3170 C 0.60587 0.98707 0.77398 0.0
H3171 H 0.57127 0.92552 0.77848 0.0
H3172 H 0.57962 0.95109 0.77592 0.0
H3173 H 0.59462 0.96976 0.7856 0.0
H3174 H 0.62591 0.03907 0.77795 0.0
H3175 H 0.62047 0.01298 0.78266 0.0
H3176 H 0.62778 0.98198 0.74367 0.0
C3177 C 0.58725 0.94219 0.77349 0.0
C3178 C 0.6017 0.97228 0.77627 0.0
C3179 C 0.58241 0.92751 0.77488 0.0
C3180 C 0.62452 0.03167 0.76854 0.0
C3181 C 0.62128 0.01671 0.77124 0.0
C3182 C 0.62037 0.97953 0.75275 0.0
C3183 C 0.60157 0.94531 0.76861 0.0
C3184 C 0.60657 0.96097 0.76664 0.0
C3185 C 0.61922 0.00673 0.75935 0.0
C3186 C 0.6152 0.99091 0.76214 0.0
H3187 H 0.61346 0.9097 0.76357 0.0
H3188 H 0.62212 0.93522 0.76176 0.0
H3189 H 0.61987 0.95647 0.74711 0.0
H3190 H 0.62546 0.03058 0.73064 0.0
H3191 H 0.61908 0.00483 0.73525 0.0
C3192 C 0.93928 0.38117 0.25922 0.0
C3193 C 0.93195 0.38493 0.24601 0.0
C3194 C 0.9545 0.38194 0.26002 0.0
C3195 C 0.98749 0.38061 0.23702 0.0
H3196 H 0.00614 0.39601 0.2726 0.0
C3197 C 0.05039 0.38152 0.24402 0.0
C3198 C 0.05554 0.37639 0.25783 0.0
C3199 C 0.03552 0.38458 0.24197 0.0
C3200 C 0.00109 0.39161 0.26262 0.0
H3201 H 0.93484 0.39236 0.22322 0.0
H3202 H 0.96153 0.39363 0.22463 0.0
H3203 H 0.97961 0.39752 0.27005 0.0
H3204 H 0.04916 0.37051 0.28033 0.0
H3205 H 0.02332 0.37575 0.27676 0.0
H3206 H 0.00894 0.37434 0.22976 0.0
C3207 C 0.95545 0.39009 0.23435 0.0
C3208 C 0.98591 0.39249 0.26116 0.0
C3209 C 0.94018 0.38939 0.23357 0.0
C3210 C 0.04558 0.3746 0.2696 0.0
C3211 C 0.03076 0.37766 0.26757 0.0
C3212 C 0.00269 0.3797 0.23849 0.0
C3213 C 0.96275 0.3864 0.24761 0.0
C3214 C 0.97893 0.38674 0.24848 0.0
C3215 C 0.02553 0.38258 0.25371 0.0
C3216 C 0.00962 0.38493 0.25144 0.0
H3217 H 0.9333 0.37746 0.26893 0.0
H3218 H 0.95983 0.37875 0.2703 0.0
H3219 H 0.9824 0.37597 0.22718 0.0
H3220 H 0.05781 0.38304 0.23474 0.0
H3221 H 0.03183 0.38848 0.2312 0.0
C3222 C 0.60248 0.08531 0.23956 0.0
C3223 C 0.5954 0.09197 0.22735 0.0
C3224 C 0.60549 0.07001 0.23954 0.0
C3225 C 0.60842 0.03736 0.21441 0.0
H3226 H 0.59625 0.01451 0.24885 0.0
C3227 C 0.59177 0.97605 0.21071 0.0
C3228 C 0.59575 0.96627 0.22223 0.0
C3229 C 0.59472 0.99124 0.21182 0.0
C3230 C 0.59996 0.02073 0.23925 0.0
H3231 H 0.58635 0.08781 0.20539 0.0
H3232 H 0.59149 0.06136 0.20543 0.0
H3233 H 0.59628 0.04167 0.25004 0.0
H3234 H 0.60622 0.9648 0.24387 0.0
H3235 H 0.61128 0.99145 0.24582 0.0
H3236 H 0.6116 0.01646 0.20344 0.0
C3237 C 0.59484 0.0679 0.21497 0.0
C3238 C 0.6 0.03629 0.23994 0.0
C3239 C 0.59176 0.08308 0.21502 0.0
C3240 C 0.603 0.97203 0.23479 0.0
C3241 C 0.60585 0.98728 0.23595 0.0
C3242 C 0.60837 0.02184 0.21371 0.0
C3243 C 0.60162 0.06114 0.22726 0.0
C3244 C 0.60381 0.04476 0.22737 0.0
C3245 C 0.60165 0.99706 0.22451 0.0
C3246 C 0.60373 0.01337 0.22598 0.0
H3247 H 0.60544 0.09184 0.24923 0.0
H3248 H 0.61079 0.06511 0.24914 0.0
H3249 H 0.61171 0.04358 0.20464 0.0
H3250 H 0.58621 0.97201 0.20087 0.0
H3251 H 0.59117 0.9985 0.20291 0.0
C3252 C 0.0858 0.5643 0.23443 0.0
C3253 C 0.09502 0.57095 0.24506 0.0
C3254 C 0.07074 0.56698 0.23461 0.0
C3255 C 0.04054 0.57807 0.25882 0.0
H3256 H 0.02129 0.59024 0.22232 0.0
C3257 C 0.98206 0.60144 0.25908 0.0
C3258 C 0.97271 0.59817 0.24712 0.0
C3259 C 0.99679 0.5974 0.25861 0.0
C3260 C 0.02641 0.5866 0.23256 0.0
H3261 H 0.09559 0.58545 0.26436 0.0
H3262 H 0.06919 0.58993 0.26479 0.0
H3263 H 0.04738 0.58439 0.22208 0.0
H3264 H 0.97142 0.58803 0.22529 0.0
H3265 H 0.99716 0.58056 0.22459 0.0
H3266 H 0.01964 0.57998 0.26932 0.0
C3267 C 0.07369 0.58269 0.2563 0.0
C3268 C 0.04137 0.58333 0.23242 0.0
C3269 C 0.0888 0.58018 0.25601 0.0
C3270 C 0.97839 0.59073 0.23465 0.0
C3271 C 0.99316 0.58653 0.23424 0.0
C3272 C 0.02556 0.58116 0.25894 0.0
C3273 C 0.06455 0.57621 0.24553 0.0
C3274 C 0.0486 0.57919 0.24558 0.0
C3275 C 0.00254 0.58983 0.24623 0.0
C3276 C 0.01832 0.58566 0.24585 0.0
H3277 H 0.09023 0.55717 0.22581 0.0
H3278 H 0.06392 0.56175 0.22625 0.0
H3279 H 0.04581 0.57469 0.26908 0.0
H3280 H 0.97807 0.60735 0.26877 0.0
H3281 H 0.00371 0.60047 0.26789 0.0
C3282 C 0.38649 0.0356 0.23111 0.0
C3283 C 0.39477 0.04194 0.21951 0.0
C3284 C 0.38566 0.02012 0.23271 0.0
C3285 C 0.40641 0.98641 0.22308 0.0
H3286 H 0.37044 0.96499 0.23123 0.0
C3287 C 0.40296 0.92376 0.21484 0.0
C3288 C 0.3964 0.91513 0.22606 0.0
C3289 C 0.40172 0.9392 0.21494 0.0
C3290 C 0.38058 0.97087 0.22914 0.0
H3291 H 0.40815 0.0369 0.20017 0.0
H3292 H 0.40659 0.01008 0.20292 0.0
H3293 H 0.3701 0.99226 0.2297 0.0
H3294 H 0.38289 0.91603 0.24591 0.0
H3295 H 0.38075 0.94324 0.24606 0.0
H3296 H 0.41691 0.96519 0.22237 0.0
C3297 C 0.40097 0.01705 0.21094 0.0
C3298 C 0.38039 0.98644 0.22826 0.0
C3299 C 0.40179 0.03245 0.20932 0.0
C3300 C 0.38811 0.92235 0.23712 0.0
C3301 C 0.38684 0.9379 0.2372 0.0
C3302 C 0.4066 0.97094 0.22396 0.0
C3303 C 0.39313 0.01071 0.22279 0.0
C3304 C 0.39327 0.99433 0.2249 0.0
C3305 C 0.3939 0.94647 0.22625 0.0
C3306 C 0.39365 0.96297 0.22667 0.0
H3307 H 0.38091 0.04259 0.23914 0.0
H3308 H 0.37955 0.01553 0.24197 0.0
H3309 H 0.41659 0.9922 0.22087 0.0
H3310 H 0.40929 0.91862 0.20602 0.0
H3311 H 0.40701 0.94548 0.20616 0.0
C3312 C 0.76305 0.03229 0.58803 0.0
C3313 C 0.7498 0.03862 0.59285 0.0
C3314 C 0.76509 0.01686 0.5885 0.0
C3315 C 0.75201 0.98316 0.60742 0.0
H3316 H 0.76747 0.96229 0.57308 0.0
C3317 C 0.74917 0.91922 0.60153 0.0
C3318 C 0.76054 0.9119 0.59395 0.0
C3319 C 0.74887 0.93476 0.60235 0.0
C3320 C 0.76339 0.96794 0.58289 0.0
H3321 H 0.72832 0.03376 0.60194 0.0
H3322 H 0.73192 0.00689 0.60277 0.0
H3323 H 0.7651 0.9893 0.57242 0.0
H3324 H 0.78093 0.91512 0.58197 0.0
H3325 H 0.78062 0.94214 0.58377 0.0
H3326 H 0.75037 0.96188 0.61796 0.0
C3327 C 0.74073 0.01385 0.59869 0.0
C3328 C 0.76199 0.98342 0.58246 0.0
C3329 C 0.73863 0.02923 0.59808 0.0
C3330 C 0.77192 0.92042 0.58776 0.0
C3331 C 0.77169 0.93593 0.5887 0.0
C3332 C 0.75353 0.96769 0.6079 0.0
C3333 C 0.75399 0.00751 0.59395 0.0
C3334 C 0.75613 0.99117 0.59466 0.0
C3335 C 0.76 0.94332 0.59573 0.0
C3336 C 0.75911 0.95986 0.59558 0.0
H3337 H 0.77186 0.03925 0.58396 0.0
H3338 H 0.77545 0.01226 0.58484 0.0
H3339 H 0.74766 0.98888 0.61707 0.0
H3340 H 0.74021 0.913 0.60637 0.0
H3341 H 0.73961 0.94005 0.60771 0.0
C3342 C 0.76308 0.03554 0.36396 0.0
C3343 C 0.77271 0.04534 0.37117 0.0
C3344 C 0.76359 0.02034 0.36687 0.0
C3345 C 0.78616 0.9901 0.38231 0.0
H3346 H 0.74836 0.9711 0.38737 0.0
C3347 C 0.77851 0.9289 0.40201 0.0
C3348 C 0.76791 0.92057 0.3943 0.0
C3349 C 0.78 0.94417 0.39941 0.0
C3350 C 0.75899 0.97621 0.38587 0.0
H3351 H 0.79086 0.04685 0.38663 0.0
H3352 H 0.79168 0.02009 0.39186 0.0
H3353 H 0.74955 0.99767 0.38241 0.0
H3354 H 0.75081 0.92173 0.37755 0.0
H3355 H 0.75346 0.94826 0.37305 0.0
H3356 H 0.79555 0.96848 0.38582 0.0
C3357 C 0.78377 0.02424 0.38389 0.0
C3358 C 0.75969 0.99143 0.38301 0.0
C3359 C 0.78329 0.03954 0.38093 0.0
C3360 C 0.75902 0.92779 0.38377 0.0
C3361 C 0.76048 0.94302 0.38123 0.0
C3362 C 0.78546 0.97481 0.38522 0.0
C3363 C 0.7737 0.01454 0.37711 0.0
C3364 C 0.77325 0.99851 0.38096 0.0
C3365 C 0.77088 0.9514 0.38912 0.0
C3366 C 0.77185 0.96769 0.38679 0.0
H3367 H 0.75498 0.03964 0.35617 0.0
H3368 H 0.75594 0.01311 0.36117 0.0
H3369 H 0.79676 0.99524 0.38073 0.0
H3370 H 0.78557 0.92368 0.41017 0.0
H3371 H 0.78805 0.95038 0.40571 0.0
C3372 C 0.91993 0.75488 0.43558 0.0
C3373 C 0.91139 0.74283 0.43064 0.0
C3374 C 0.93465 0.75603 0.43154 0.0
C3375 C 0.96607 0.73408 0.41832 0.0
H3376 H 0.98083 0.77223 0.40478 0.0
C3377 C 0.022 0.73982 0.38959 0.0
C3378 C 0.03064 0.75232 0.39291 0.0
C3379 C 0.00766 0.7388 0.39479 0.0
C3380 C 0.97695 0.76155 0.40874 0.0
H3381 H 0.91172 0.72243 0.41769 0.0
H3382 H 0.93744 0.72447 0.41065 0.0
H3383 H 0.9554 0.77004 0.41277 0.0
H3384 H 0.03099 0.77359 0.40429 0.0
H3385 H 0.0059 0.77173 0.41359 0.0
H3386 H 0.98759 0.72558 0.41435 0.0
C3387 C 0.93273 0.73298 0.41772 0.0
C3388 C 0.96237 0.76029 0.41329 0.0
C3389 C 0.91797 0.73186 0.4217 0.0
C3390 C 0.02459 0.76383 0.40152 0.0
C3391 C 0.0102 0.76279 0.40679 0.0
C3392 C 0.98066 0.73535 0.41384 0.0
C3393 C 0.94119 0.74512 0.42253 0.0
C3394 C 0.95676 0.74652 0.41803 0.0
C3395 C 0.00158 0.75024 0.40349 0.0
C3396 C 0.98624 0.74907 0.40888 0.0
H3397 H 0.91526 0.76354 0.44249 0.0
H3398 H 0.94094 0.76542 0.43556 0.0
H3399 H 0.96212 0.72338 0.42215 0.0
H3400 H 0.02626 0.73084 0.38279 0.0
H3401 H 0.00125 0.72912 0.39177 0.0
C3402 C 0.2401 0.06597 0.42787 0.0
C3403 C 0.2429 0.07565 0.41592 0.0
C3404 C 0.23703 0.05096 0.42526 0.0
C3405 C 0.22206 0.02553 0.39789 0.0
H3406 H 0.2471 0.99529 0.41528 0.0
C3407 C 0.21416 0.96104 0.39244 0.0
C3408 C 0.22635 0.95424 0.38569 0.0
C3409 C 0.21487 0.9759 0.39709 0.0
C3410 C 0.23995 0.00365 0.41051 0.0
H3411 H 0.24453 0.07726 0.39187 0.0
H3412 H 0.23885 0.05109 0.38735 0.0
H3413 H 0.25073 0.02151 0.4219 0.0
H3414 H 0.24857 0.95799 0.37794 0.0
H3415 H 0.24995 0.98355 0.38666 0.0
H3416 H 0.21135 0.00762 0.38643 0.0
C3417 C 0.23913 0.05514 0.3987 0.0
C3418 C 0.24198 0.01857 0.41431 0.0
C3419 C 0.2425 0.07006 0.40131 0.0
C3420 C 0.23912 0.96267 0.38347 0.0
C3421 C 0.23992 0.97735 0.38839 0.0
C3422 C 0.21982 0.01057 0.39434 0.0
C3423 C 0.23639 0.04549 0.41065 0.0
C3424 C 0.23326 0.02964 0.40778 0.0
C3425 C 0.22785 0.98404 0.39529 0.0
C3426 C 0.22896 -0.00042 0.40039 0.0
H3427 H 0.24035 0.06998 0.43924 0.0
H3428 H 0.23497 0.04366 0.43462 0.0
H3429 H 0.21518 0.03393 0.39278 0.0
H3430 H 0.20413 0.95488 0.39422 0.0
H3431 H 0.2054 0.98094 0.40233 0.0
C3432 C 0.06055 0.25733 0.42938 0.0
C3433 C 0.06318 0.24442 0.43783 0.0
C3434 C 0.04714 0.25933 0.4221 0.0
C3435 C 0.01582 0.23826 0.40742 0.0
H3436 H 0.99382 0.27488 0.41222 0.0
C3437 C 0.95426 0.24117 0.39562 0.0
C3438 C 0.94839 0.25413 0.38923 0.0
C3439 C 0.9689 0.24066 0.40001 0.0
C3440 C -8e-05 0.26468 0.41054 0.0
H3441 H 0.05376 0.22349 0.4452 0.0
H3442 H 0.03055 0.22696 0.4325 0.0
H3443 H 0.01847 0.27292 0.42264 0.0
H3444 H 0.95338 0.27663 0.38213 0.0
H3445 H 0.97905 0.2757 0.3897 0.0
H3446 H 0.99736 0.22993 0.39544 0.0
C3447 C 0.03885 0.2355 0.43144 0.0
C3448 C 0.01402 0.26356 0.41653 0.0
C3449 C 0.05213 0.23358 0.43881 0.0
C3450 C 0.95754 0.26653 0.38715 0.0
C3451 C 0.97224 0.26601 0.39152 0.0
C3452 C 0.0018 0.2394 0.40137 0.0
C3453 C 0.03621 0.24836 0.42298 0.0
C3454 C 0.02196 0.25022 0.41531 0.0
C3455 C 0.97807 0.25307 0.39804 0.0
C3456 C 0.99354 0.25249 0.40316 0.0
H3457 H 0.06882 0.26591 0.42841 0.0
H3458 H 0.04538 0.26933 0.41561 0.0
H3459 H 0.0218 0.22793 0.40608 0.0
H3460 H 0.94751 0.23144 0.39745 0.0
H3461 H 0.97294 0.23061 0.40524 0.0
C3462 C 0.25702 0.10799 0.59546 0.0
C3463 C 0.25335 0.11774 0.58381 0.0
C3464 C 0.25261 0.09311 0.59506 0.0
C3465 C 0.22693 0.06663 0.57745 0.0
H3466 H 0.25706 0.03788 0.58733 0.0
C3467 C 0.24085 -0.0005 0.57512 0.0
C3468 C 0.22863 0.99353 0.58242 0.0
C3469 C 0.24232 0.01484 0.57342 0.0
C3470 C 0.24855 0.04574 0.58439 0.0
H3471 H 0.24166 0.11955 0.56284 0.0
H3472 H 0.23405 0.09355 0.56216 0.0
H3473 H 0.26247 0.06429 0.58885 0.0
H3474 H 0.20775 0.99871 0.59259 0.0
H3475 H 0.21035 0.02574 0.58974 0.0
H3476 H 0.21304 0.04789 0.5729 0.0
C3477 C 0.24028 0.09747 0.57163 0.0
C3478 C 0.2516 0.0609 0.58547 0.0
C3479 C 0.24474 0.11236 0.57199 0.0
C3480 C 0.21728 0.00308 0.58689 0.0
C3481 C 0.21879 0.01853 0.58528 0.0
C3482 C 0.22384 0.05138 0.57644 0.0
C3483 C 0.24439 0.08763 0.58303 0.0
C3484 C 0.24085 0.07153 0.58203 0.0
C3485 C 0.23164 0.02456 0.5791 0.0
C3486 C 0.23466 0.04079 0.57983 0.0
H3487 H 0.26355 0.11175 0.60479 0.0
H3488 H 0.25576 0.08585 0.60414 0.0
H3489 H 0.2184 0.07458 0.57479 0.0
H3490 H 0.24954 0.99235 0.57115 0.0
H3491 H 0.25214 0.01914 0.5682 0.0
C3492 C 0.94627 0.22712 0.60314 0.0
C3493 C 0.93448 0.21728 0.60483 0.0
C3494 C 0.96052 0.22245 0.6062 0.0
C3495 C 0.97887 0.19839 0.63188 0.0
H3496 H 0.01377 0.21148 0.61108 0.0
C3497 C 0.04537 0.20519 0.64153 0.0
C3498 C 0.0449 0.21426 0.65427 0.0
C3499 C 0.0324 0.20088 0.63448 0.0
C3500 C 0.00417 0.20746 0.6169 0.0
H3501 H 0.92832 0.19461 0.61015 0.0
H3502 H 0.95332 0.18649 0.6159 0.0
H3503 H 0.99002 0.2126 0.59857 0.0
H3504 H 0.03063 0.22513 0.67017 0.0
H3505 H 0.008 0.2173 0.65811 0.0
H3506 H 0.99288 0.19421 0.65056 0.0
C3507 C 0.95151 0.19778 0.61208 0.0
C3508 C 0.99059 0.20819 0.60977 0.0
C3509 C 0.93725 0.2024 0.60874 0.0
C3510 C 0.03128 0.21814 0.66037 0.0
C3511 C 0.01834 0.21359 0.65351 0.0
C3512 C 0.99241 0.19786 0.63907 0.0
C3513 C 0.96321 0.20789 0.61123 0.0
C3514 C 0.97777 0.20412 0.61738 0.0
C3515 C 0.01878 0.20529 0.64027 0.0
C3516 C 0.0051 0.20285 0.63181 0.0
H3517 H 0.94446 0.23857 0.59992 0.0
H3518 H 0.96931 0.23051 0.60553 0.0
H3519 H 0.96915 0.1953 0.63805 0.0
H3520 H 0.05575 0.20215 0.63654 0.0
H3521 H 0.03299 0.19448 0.62428 0.0
C3522 C 0.06784 0.77815 0.59758 0.0
C3523 C 0.07576 0.7652 0.60118 0.0
C3524 C 0.05293 0.77925 0.60117 0.0
C3525 C 0.02726 0.76464 0.62849 0.0
H3526 H 0.99593 0.77374 0.60083 0.0
C3527 C 0.96916 0.74468 0.63815 0.0
C3528 C 0.95741 0.75438 0.63549 0.0
C3529 C 0.98334 0.74869 0.63418 0.0
C3530 C 0.0046 0.77147 0.60874 0.0
H3531 H 0.07409 0.7431 0.61085 0.0
H3532 H 0.04836 0.74501 0.6169 0.0
H3533 H 0.02154 0.77591 0.59272 0.0
H3534 H 0.95125 0.77592 0.62654 0.0
H3535 H 0.97628 0.78292 0.61943 0.0
H3536 H 0.01053 0.75976 0.64435 0.0
C3537 C 0.05364 0.75435 0.61147 0.0
C3538 C 0.0192 0.7727 0.6041 0.0
C3539 C 0.06839 0.75322 0.60785 0.0
C3540 C 0.96013 0.76824 0.62876 0.0
C3541 C 0.97439 0.77222 0.62464 0.0
C3542 C 0.01277 0.76345 0.6331 0.0
C3543 C 0.04586 0.76748 0.60852 0.0
C3544 C 0.0306 0.76876 0.61381 0.0
C3545 C 0.98612 0.76248 0.6274 0.0
C3546 C 0.0013 0.76632 0.62313 0.0
H3547 H 0.07324 0.78756 0.59244 0.0
H3548 H 0.0471 0.78947 0.59874 0.0
H3549 H 0.03588 0.76183 0.63627 0.0
H3550 H 0.96743 0.73395 0.64337 0.0
H3551 H 0.99213 0.74086 0.63624 0.0
loop_
_geom_bond_atom_site_label_1
_geom_bond_atom_site_label_2
_geom_bond_distance
_geom_bond_site_symmetry_2
_ccdc_geom_bond_type
Mg0 O1 2.028 . S
Mg0 O7 1.986 . S
Mg0 O9 2.114 . S
Mg0 O10 2.251 . S
Mg0 O13 2.010 . S
O1 Mg0 2.028 . S
O1 C4 1.250 . S
O2 Mg3 2.028 . S
O2 C4 1.248 . S
Mg3 O2 2.028 . S
Mg3 O8 2.032 . S
Mg3 O10 2.079 . S
C4 O1 1.250 . S
C4 O2 1.248 . S
C5 O6 1.264 . S
C5 O13 1.249 . S
O6 C5 1.264 . S
O7 Mg0 1.986 . S
O7 C11 1.246 . S
O8 Mg3 2.032 . S
O8 C11 1.259 . S
O9 Mg0 2.114 . S
O9 C12 1.252 . S
O10 Mg0 2.251 . S
O10 Mg3 2.079 . S
O10 C12 1.273 . S
C11 O7 1.246 . S
C11 O8 1.259 . S
C12 O9 1.252 . S
C12 O10 1.273 . S
O13 Mg0 2.010 . S
O13 C5 1.249 . S
Mg14 O15 2.028 . S
Mg14 O21 1.986 . S
Mg14 O23 2.114 . S
Mg14 O24 2.251 . S
Mg14 O27 2.010 . S
O15 Mg14 2.028 . S
O15 C18 1.250 . S
O16 Mg17 2.028 . S
O16 C18 1.248 . S
Mg17 O16 2.028 . S
Mg17 O22 2.032 . S
Mg17 O24 2.079 . S
C18 O15 1.250 . S
C18 O16 1.248 . S
C19 O20 1.264 . S
C19 O27 1.249 . S
O20 C19 1.264 . S
O21 Mg14 1.986 . S
O21 C25 1.246 . S
O22 Mg17 2.032 . S
O22 C25 1.259 . S
O23 Mg14 2.114 . S
O23 C26 1.252 . S
O24 Mg14 2.251 . S
O24 Mg17 2.079 . S
O24 C26 1.273 . S
C25 O21 1.246 . S
C25 O22 1.259 . S
C26 O23 1.252 . S
C26 O24 1.273 . S
O27 Mg14 2.010 . S
O27 C19 1.249 . S
Mg28 O29 2.028 . S
Mg28 O35 1.986 . S
Mg28 O37 2.114 . S
Mg28 O38 2.251 . S
Mg28 O41 2.010 . S
O29 Mg28 2.028 . S
O29 C32 1.250 . S
O30 Mg31 2.028 . S
O30 C32 1.248 . S
Mg31 O30 2.028 . S
Mg31 O36 2.032 . S
Mg31 O38 2.079 . S
C32 O29 1.250 . S
C32 O30 1.248 . S
C33 O34 1.264 . S
C33 O41 1.249 . S
O34 C33 1.264 . S
O35 Mg28 1.986 . S
O35 C39 1.246 . S
O36 Mg31 2.032 . S
O36 C39 1.259 . S
O37 Mg28 2.114 . S
O37 C40 1.252 . S
O38 Mg28 2.251 . S
O38 Mg31 2.079 . S
O38 C40 1.273 . S
C39 O35 1.246 . S
C39 O36 1.259 . S
C40 O37 1.252 . S
C40 O38 1.273 . S
O41 Mg28 2.010 . S
O41 C33 1.249 . S
Mg42 O43 2.028 . S
Mg42 O49 1.986 . S
Mg42 O51 2.114 . S
Mg42 O52 2.251 . S
Mg42 O55 2.010 . S
O43 Mg42 2.028 . S
O43 C46 1.250 . S
O44 Mg45 2.028 . S
O44 C46 1.248 . S
Mg45 O44 2.028 . S
Mg45 O50 2.032 . S
Mg45 O52 2.079 . S
C46 O43 1.250 . S
C46 O44 1.248 . S
C47 O48 1.264 . S
C47 O55 1.249 . S
O48 C47 1.264 . S
O49 Mg42 1.986 . S
O49 C53 1.246 . S
O50 Mg45 2.032 . S
O50 C53 1.259 . S
O51 Mg42 2.114 . S
O51 C54 1.252 . S
O52 Mg42 2.251 . S
O52 Mg45 2.079 . S
O52 C54 1.273 . S
C53 O49 1.246 . S
C53 O50 1.259 . S
C54 O51 1.252 . S
C54 O52 1.273 . S
O55 Mg42 2.010 . S
O55 C47 1.249 . S
Mg56 O57 2.028 . S
Mg56 O63 1.986 . S
Mg56 O65 2.114 . S
Mg56 O66 2.251 . S
Mg56 O69 2.010 . S
O57 Mg56 2.028 . S
O57 C60 1.250 . S
O58 Mg59 2.028 . S
O58 C60 1.248 . S
Mg59 O58 2.028 . S
Mg59 O64 2.032 . S
Mg59 O66 2.079 . S
C60 O57 1.250 . S
C60 O58 1.248 . S
C61 O62 1.264 . S
C61 O69 1.249 . S
O62 C61 1.264 . S
O63 Mg56 1.986 . S
O63 C67 1.246 . S
O64 Mg59 2.032 . S
O64 C67 1.259 . S
O65 Mg56 2.114 . S
O65 C68 1.252 . S
O66 Mg56 2.251 . S
O66 Mg59 2.079 . S
O66 C68 1.273 . S
C67 O63 1.246 . S
C67 O64 1.259 . S
C68 O65 1.252 . S
C68 O66 1.273 . S
O69 Mg56 2.010 . S
O69 C61 1.249 . S
Mg70 O71 2.028 . S
Mg70 O77 1.986 . S
Mg70 O79 2.114 . S
Mg70 O80 2.251 . S
Mg70 O83 2.010 . S
O71 Mg70 2.028 . S
O71 C74 1.250 . S
O72 Mg73 2.028 . S
O72 C74 1.248 . S
Mg73 O72 2.028 . S
Mg73 O78 2.032 . S
Mg73 O80 2.079 . S
C74 O71 1.250 . S
C74 O72 1.248 . S
C75 O76 1.264 . S
C75 O83 1.249 . S
O76 C75 1.264 . S
O77 Mg70 1.986 . S
O77 C81 1.246 . S
O78 Mg73 2.032 . S
O78 C81 1.259 . S
O79 Mg70 2.114 . S
O79 C82 1.252 . S
O80 Mg70 2.251 . S
O80 Mg73 2.079 . S
O80 C82 1.273 . S
C81 O77 1.246 . S
C81 O78 1.259 . S
C82 O79 1.252 . S
C82 O80 1.273 . S
O83 Mg70 2.010 . S
O83 C75 1.249 . S
Mg84 O85 2.028 . S
Mg84 O91 1.986 . S
Mg84 O93 2.114 . S
Mg84 O94 2.251 . S
Mg84 O97 2.010 . S
O85 Mg84 2.028 . S
O85 C88 1.250 . S
O86 Mg87 2.028 . S
O86 C88 1.248 . S
Mg87 O86 2.028 . S
Mg87 O92 2.032 . S
Mg87 O94 2.079 . S
C88 O85 1.250 . S
C88 O86 1.248 . S
C89 O90 1.264 . S
C89 O97 1.249 . S
O90 C89 1.264 . S
O91 Mg84 1.986 . S
O91 C95 1.246 . S
O92 Mg87 2.032 . S
O92 C95 1.259 . S
O93 Mg84 2.114 . S
O93 C96 1.252 . S
O94 Mg84 2.251 . S
O94 Mg87 2.079 . S
O94 C96 1.273 . S
C95 O91 1.246 . S
C95 O92 1.259 . S
C96 O93 1.252 . S
C96 O94 1.273 . S
O97 Mg84 2.010 . S
O97 C89 1.249 . S
Mg98 O99 2.028 . S
Mg98 O105 1.986 . S
Mg98 O107 2.114 . S
Mg98 O108 2.251 . S
Mg98 O111 2.010 . S
O99 Mg98 2.028 . S
O99 C102 1.250 . S
O100 Mg101 2.028 . S
O100 C102 1.248 . S
Mg101 O100 2.028 . S
Mg101 O106 2.032 . S
Mg101 O108 2.079 . S
C102 O99 1.250 . S
C102 O100 1.248 . S
C103 O104 1.264 . S
C103 O111 1.249 . S
O104 C103 1.264 . S
O105 Mg98 1.986 . S
O105 C109 1.246 . S
O106 Mg101 2.032 . S
O106 C109 1.259 . S
O107 Mg98 2.114 . S
O107 C110 1.252 . S
O108 Mg98 2.251 . S
O108 Mg101 2.079 . S
O108 C110 1.273 . S
C109 O105 1.246 . S
C109 O106 1.259 . S
C110 O107 1.252 . S
C110 O108 1.273 . S
O111 Mg98 2.010 . S
O111 C103 1.249 . S
Mg112 O113 2.028 . S
Mg112 O119 1.986 . S
Mg112 O121 2.114 . S
Mg112 O122 2.251 . S
Mg112 O125 2.010 . S
O113 Mg112 2.028 . S
O113 C116 1.250 . S
O114 Mg115 2.028 . S
O114 C116 1.248 . S
Mg115 O114 2.028 . S
Mg115 O120 2.032 . S
Mg115 O122 2.079 . S
C116 O113 1.250 . S
C116 O114 1.248 . S
C117 O118 1.264 . S
C117 O125 1.249 . S
O118 C117 1.264 . S
O119 Mg112 1.986 . S
O119 C123 1.246 . S
O120 Mg115 2.032 . S
O120 C123 1.259 . S
O121 Mg112 2.114 . S
O121 C124 1.252 . S
O122 Mg112 2.251 . S
O122 Mg115 2.079 . S
O122 C124 1.273 . S
C123 O119 1.246 . S
C123 O120 1.259 . S
C124 O121 1.252 . S
C124 O122 1.273 . S
O125 Mg112 2.010 . S
O125 C117 1.249 . S
Mg126 O127 2.028 . S
Mg126 O133 1.986 . S
Mg126 O135 2.114 . S
Mg126 O136 2.251 . S
Mg126 O139 2.010 . S
O127 Mg126 2.028 . S
O127 C130 1.250 . S
O128 Mg129 2.028 . S
O128 C130 1.248 . S
Mg129 O128 2.028 . S
Mg129 O134 2.032 . S
Mg129 O136 2.079 . S
C130 O127 1.250 . S
C130 O128 1.248 . S
C131 O132 1.264 . S
C131 O139 1.249 . S
O132 C131 1.264 . S
O133 Mg126 1.986 . S
O133 C137 1.246 . S
O134 Mg129 2.032 . S
O134 C137 1.259 . S
O135 Mg126 2.114 . S
O135 C138 1.252 . S
O136 Mg126 2.251 . S
O136 Mg129 2.079 . S
O136 C138 1.273 . S
C137 O133 1.246 . S
C137 O134 1.259 . S
C138 O135 1.252 . S
C138 O136 1.273 . S
O139 Mg126 2.010 . S
O139 C131 1.249 . S
Mg140 O141 2.028 . S
Mg140 O147 1.986 . S
Mg140 O149 2.114 . S
Mg140 O150 2.251 . S
Mg140 O153 2.010 . S
O141 Mg140 2.028 . S
O141 C144 1.250 . S
O142 Mg143 2.028 . S
O142 C144 1.248 . S
Mg143 O142 2.028 . S
Mg143 O148 2.032 . S
Mg143 O150 2.079 . S
C144 O141 1.250 . S
C144 O142 1.248 . S
C145 O146 1.264 . S
C145 O153 1.249 . S
O146 C145 1.264 . S
O147 Mg140 1.986 . S
O147 C151 1.246 . S
O148 Mg143 2.032 . S
O148 C151 1.259 . S
O149 Mg140 2.114 . S
O149 C152 1.252 . S
O150 Mg140 2.251 . S
O150 Mg143 2.079 . S
O150 C152 1.273 . S
C151 O147 1.246 . S
C151 O148 1.259 . S
C152 O149 1.252 . S
C152 O150 1.273 . S
O153 Mg140 2.010 . S
O153 C145 1.249 . S
Mg154 O155 2.028 . S
Mg154 O161 1.986 . S
Mg154 O163 2.114 . S
Mg154 O164 2.251 . S
Mg154 O167 2.010 . S
O155 Mg154 2.028 . S
O155 C158 1.250 . S
O156 Mg157 2.028 . S
O156 C158 1.248 . S
Mg157 O156 2.028 . S
Mg157 O162 2.032 . S
Mg157 O164 2.079 . S
C158 O155 1.250 . S
C158 O156 1.248 . S
C159 O160 1.264 . S
C159 O167 1.249 . S
O160 C159 1.264 . S
O161 Mg154 1.986 . S
O161 C165 1.246 . S
O162 Mg157 2.032 . S
O162 C165 1.259 . S
O163 Mg154 2.114 . S
O163 C166 1.252 . S
O164 Mg154 2.251 . S
O164 Mg157 2.079 . S
O164 C166 1.273 . S
C165 O161 1.246 . S
C165 O162 1.259 . S
C166 O163 1.252 . S
C166 O164 1.273 . S
O167 Mg154 2.010 . S
O167 C159 1.249 . S
Mg168 O169 2.028 . S
Mg168 O175 1.986 . S
Mg168 O177 2.114 . S
Mg168 O178 2.251 . S
Mg168 O181 2.010 . S
O169 Mg168 2.028 . S
O169 C172 1.250 . S
O170 Mg171 2.028 . S
O170 C172 1.248 . S
Mg171 O170 2.028 . S
Mg171 O176 2.032 . S
Mg171 O178 2.079 . S
C172 O169 1.250 . S
C172 O170 1.248 . S
C173 O174 1.264 . S
C173 O181 1.249 . S
O174 C173 1.264 . S
O175 Mg168 1.986 . S
O175 C179 1.246 . S
O176 Mg171 2.032 . S
O176 C179 1.259 . S
O177 Mg168 2.114 . S
O177 C180 1.252 . S
O178 Mg168 2.251 . S
O178 Mg171 2.079 . S
O178 C180 1.273 . S
C179 O175 1.246 . S
C179 O176 1.259 . S
C180 O177 1.252 . S
C180 O178 1.273 . S
O181 Mg168 2.010 . S
O181 C173 1.249 . S
Mg182 O183 2.028 . S
Mg182 O189 1.986 . S
Mg182 O191 2.114 . S
Mg182 O192 2.251 . S
Mg182 O195 2.010 . S
O183 Mg182 2.028 . S
O183 C186 1.250 . S
O184 Mg185 2.028 . S
O184 C186 1.248 . S
Mg185 O184 2.028 . S
Mg185 O190 2.032 . S
Mg185 O192 2.079 . S
C186 O183 1.250 . S
C186 O184 1.248 . S
C187 O188 1.264 . S
C187 O195 1.249 . S
O188 C187 1.264 . S
O189 Mg182 1.986 . S
O189 C193 1.246 . S
O190 Mg185 2.032 . S
O190 C193 1.259 . S
O191 Mg182 2.114 . S
O191 C194 1.252 . S
O192 Mg182 2.251 . S
O192 Mg185 2.079 . S
O192 C194 1.273 . S
C193 O189 1.246 . S
C193 O190 1.259 . S
C194 O191 1.252 . S
C194 O192 1.273 . S
O195 Mg182 2.010 . S
O195 C187 1.249 . S
Mg196 O197 2.028 . S
Mg196 O203 1.986 . S
Mg196 O205 2.114 . S
Mg196 O206 2.251 . S
Mg196 O209 2.010 . S
O197 Mg196 2.028 . S
O197 C200 1.250 . S
O198 Mg199 2.028 . S
O198 C200 1.248 . S
Mg199 O198 2.028 . S
Mg199 O204 2.032 . S
Mg199 O206 2.079 . S
C200 O197 1.250 . S
C200 O198 1.248 . S
C201 O202 1.264 . S
C201 O209 1.249 . S
O202 C201 1.264 . S
O203 Mg196 1.986 . S
O203 C207 1.246 . S
O204 Mg199 2.032 . S
O204 C207 1.259 . S
O205 Mg196 2.114 . S
O205 C208 1.252 . S
O206 Mg196 2.251 . S
O206 Mg199 2.079 . S
O206 C208 1.273 . S
C207 O203 1.246 . S
C207 O204 1.259 . S
C208 O205 1.252 . S
C208 O206 1.273 . S
O209 Mg196 2.010 . S
O209 C201 1.249 . S
Mg210 O211 2.028 . S
Mg210 O217 1.986 . S
Mg210 O219 2.114 . S
Mg210 O220 2.251 . S
Mg210 O223 2.010 . S
O211 Mg210 2.028 . S
O211 C214 1.250 . S
O212 Mg213 2.028 . S
O212 C214 1.248 . S
Mg213 O212 2.028 . S
Mg213 O218 2.032 . S
Mg213 O220 2.079 . S
C214 O211 1.250 . S
C214 O212 1.248 . S
C215 O216 1.264 . S
C215 O223 1.249 . S
O216 C215 1.264 . S
O217 Mg210 1.986 . S
O217 C221 1.246 . S
O218 Mg213 2.032 . S
O218 C221 1.259 . S
O219 Mg210 2.114 . S
O219 C222 1.252 . S
O220 Mg210 2.251 . S
O220 Mg213 2.079 . S
O220 C222 1.273 . S
C221 O217 1.246 . S
C221 O218 1.259 . S
C222 O219 1.252 . S
C222 O220 1.273 . S
O223 Mg210 2.010 . S
O223 C215 1.249 . S
Mg224 O225 2.028 . S
Mg224 O231 1.986 . S
Mg224 O233 2.114 . S
Mg224 O234 2.251 . S
Mg224 O237 2.010 . S
O225 Mg224 2.028 . S
O225 C228 1.250 . S
O226 Mg227 2.028 . S
O226 C228 1.248 . S
Mg227 O226 2.028 . S
Mg227 O232 2.032 . S
Mg227 O234 2.079 . S
C228 O225 1.250 . S
C228 O226 1.248 . S
C229 O230 1.264 . S
C229 O237 1.249 . S
O230 C229 1.264 . S
O231 Mg224 1.986 . S
O231 C235 1.246 . S
O232 Mg227 2.032 . S
O232 C235 1.259 . S
O233 Mg224 2.114 . S
O233 C236 1.252 . S
O234 Mg224 2.251 . S
O234 Mg227 2.079 . S
O234 C236 1.273 . S
C235 O231 1.246 . S
C235 O232 1.259 . S
C236 O233 1.252 . S
C236 O234 1.273 . S
O237 Mg224 2.010 . S
O237 C229 1.249 . S
Mg238 O239 2.028 . S
Mg238 O245 1.986 . S
Mg238 O247 2.114 . S
Mg238 O248 2.251 . S
Mg238 O251 2.010 . S
O239 Mg238 2.028 . S
O239 C242 1.250 . S
O240 Mg241 2.028 . S
O240 C242 1.248 . S
Mg241 O240 2.028 . S
Mg241 O246 2.032 . S
Mg241 O248 2.079 . S
C242 O239 1.250 . S
C242 O240 1.248 . S
C243 O244 1.264 . S
C243 O251 1.249 . S
O244 C243 1.264 . S
O245 Mg238 1.986 . S
O245 C249 1.246 . S
O246 Mg241 2.032 . S
O246 C249 1.259 . S
O247 Mg238 2.114 . S
O247 C250 1.252 . S
O248 Mg238 2.251 . S
O248 Mg241 2.079 . S
O248 C250 1.273 . S
C249 O245 1.246 . S
C249 O246 1.259 . S
C250 O247 1.252 . S
C250 O248 1.273 . S
O251 Mg238 2.010 . S
O251 C243 1.249 . S
Mg252 O253 2.028 . S
Mg252 O259 1.986 . S
Mg252 O261 2.114 . S
Mg252 O262 2.251 . S
Mg252 O265 2.010 . S
O253 Mg252 2.028 . S
O253 C256 1.250 . S
O254 Mg255 2.028 . S
O254 C256 1.248 . S
Mg255 O254 2.028 . S
Mg255 O260 2.032 . S
Mg255 O262 2.079 . S
C256 O253 1.250 . S
C256 O254 1.248 . S
C257 O258 1.264 . S
C257 O265 1.249 . S
O258 C257 1.264 . S
O259 Mg252 1.986 . S
O259 C263 1.246 . S
O260 Mg255 2.032 . S
O260 C263 1.259 . S
O261 Mg252 2.114 . S
O261 C264 1.252 . S
O262 Mg252 2.251 . S
O262 Mg255 2.079 . S
O262 C264 1.273 . S
C263 O259 1.246 . S
C263 O260 1.259 . S
C264 O261 1.252 . S
C264 O262 1.273 . S
O265 Mg252 2.010 . S
O265 C257 1.249 . S
Mg266 O267 2.028 . S
Mg266 O273 1.986 . S
Mg266 O275 2.114 . S
Mg266 O276 2.251 . S
Mg266 O279 2.010 . S
O267 Mg266 2.028 . S
O267 C270 1.250 . S
O268 Mg269 2.028 . S
O268 C270 1.248 . S
Mg269 O268 2.028 . S
Mg269 O274 2.032 . S
Mg269 O276 2.079 . S
C270 O267 1.250 . S
C270 O268 1.248 . S
C271 O272 1.264 . S
C271 O279 1.249 . S
O272 C271 1.264 . S
O273 Mg266 1.986 . S
O273 C277 1.246 . S
O274 Mg269 2.032 . S
O274 C277 1.259 . S
O275 Mg266 2.114 . S
O275 C278 1.252 . S
O276 Mg266 2.251 . S
O276 Mg269 2.079 . S
O276 C278 1.273 . S
C277 O273 1.246 . S
C277 O274 1.259 . S
C278 O275 1.252 . S
C278 O276 1.273 . S
O279 Mg266 2.010 . S
O279 C271 1.249 . S
Mg280 O281 2.028 . S
Mg280 O287 1.986 . S
Mg280 O289 2.114 . S
Mg280 O290 2.251 . S
Mg280 O293 2.010 . S
O281 Mg280 2.028 . S
O281 C284 1.250 . S
O282 Mg283 2.028 . S
O282 C284 1.248 . S
Mg283 O282 2.028 . S
Mg283 O288 2.032 . S
Mg283 O290 2.079 . S
C284 O281 1.250 . S
C284 O282 1.248 . S
C285 O286 1.264 . S
C285 O293 1.249 . S
O286 C285 1.264 . S
O287 Mg280 1.986 . S
O287 C291 1.246 . S
O288 Mg283 2.032 . S
O288 C291 1.259 . S
O289 Mg280 2.114 . S
O289 C292 1.252 . S
O290 Mg280 2.251 . S
O290 Mg283 2.079 . S
O290 C292 1.273 . S
C291 O287 1.246 . S
C291 O288 1.259 . S
C292 O289 1.252 . S
C292 O290 1.273 . S
O293 Mg280 2.010 . S
O293 C285 1.249 . S
Mg294 O295 2.028 . S
Mg294 O301 1.986 . S
Mg294 O303 2.114 . S
Mg294 O304 2.251 . S
Mg294 O307 2.010 . S
O295 Mg294 2.028 . S
O295 C298 1.250 . S
O296 Mg297 2.028 . S
O296 C298 1.248 . S
Mg297 O296 2.028 . S
Mg297 O302 2.032 . S
Mg297 O304 2.079 . S
C298 O295 1.250 . S
C298 O296 1.248 . S
C299 O300 1.264 . S
C299 O307 1.249 . S
O300 C299 1.264 . S
O301 Mg294 1.986 . S
O301 C305 1.246 . S
O302 Mg297 2.032 . S
O302 C305 1.259 . S
O303 Mg294 2.114 . S
O303 C306 1.252 . S
O304 Mg294 2.251 . S
O304 Mg297 2.079 . S
O304 C306 1.273 . S
C305 O301 1.246 . S
C305 O302 1.259 . S
C306 O303 1.252 . S
C306 O304 1.273 . S
O307 Mg294 2.010 . S
O307 C299 1.249 . S
Mg308 O309 2.028 . S
Mg308 O315 1.986 . S
Mg308 O317 2.114 . S
Mg308 O318 2.251 . S
Mg308 O321 2.010 . S
O309 Mg308 2.028 . S
O309 C312 1.250 . S
O310 Mg311 2.028 . S
O310 C312 1.248 . S
Mg311 O310 2.028 . S
Mg311 O316 2.032 . S
Mg311 O318 2.079 . S
C312 O309 1.250 . S
C312 O310 1.248 . S
C313 O314 1.264 . S
C313 O321 1.249 . S
O314 C313 1.264 . S
O315 Mg308 1.986 . S
O315 C319 1.246 . S
O316 Mg311 2.032 . S
O316 C319 1.259 . S
O317 Mg308 2.114 . S
O317 C320 1.252 . S
O318 Mg308 2.251 . S
O318 Mg311 2.079 . S
O318 C320 1.273 . S
C319 O315 1.246 . S
C319 O316 1.259 . S
C320 O317 1.252 . S
C320 O318 1.273 . S
O321 Mg308 2.010 . S
O321 C313 1.249 . S
Mg322 O323 2.028 . S
Mg322 O329 1.986 . S
Mg322 O331 2.114 . S
Mg322 O332 2.251 . S
Mg322 O335 2.010 . S
O323 Mg322 2.028 . S
O323 C326 1.250 . S
O324 Mg325 2.028 . S
O324 C326 1.248 . S
Mg325 O324 2.028 . S
Mg325 O330 2.032 . S
Mg325 O332 2.079 . S
C326 O323 1.250 . S
C326 O324 1.248 . S
C327 O328 1.264 . S
C327 O335 1.249 . S
O328 C327 1.264 . S
O329 Mg322 1.986 . S
O329 C333 1.246 . S
O330 Mg325 2.032 . S
O330 C333 1.259 . S
O331 Mg322 2.114 . S
O331 C334 1.252 . S
O332 Mg322 2.251 . S
O332 Mg325 2.079 . S
O332 C334 1.273 . S
C333 O329 1.246 . S
C333 O330 1.259 . S
C334 O331 1.252 . S
C334 O332 1.273 . S
O335 Mg322 2.010 . S
O335 C327 1.249 . S
Mg336 O337 2.028 . S
Mg336 O343 1.986 . S
Mg336 O345 2.114 . S
Mg336 O346 2.251 . S
Mg336 O349 2.010 . S
O337 Mg336 2.028 . S
O337 C340 1.250 . S
O338 Mg339 2.028 . S
O338 C340 1.248 . S
Mg339 O338 2.028 . S
Mg339 O344 2.032 . S
Mg339 O346 2.079 . S
C340 O337 1.250 . S
C340 O338 1.248 . S
C341 O342 1.264 . S
C341 O349 1.249 . S
O342 C341 1.264 . S
O343 Mg336 1.986 . S
O343 C347 1.246 . S
O344 Mg339 2.032 . S
O344 C347 1.259 . S
O345 Mg336 2.114 . S
O345 C348 1.252 . S
O346 Mg336 2.251 . S
O346 Mg339 2.079 . S
O346 C348 1.273 . S
C347 O343 1.246 . S
C347 O344 1.259 . S
C348 O345 1.252 . S
C348 O346 1.273 . S
O349 Mg336 2.010 . S
O349 C341 1.249 . S
Mg350 O351 2.028 . S
Mg350 O357 1.986 . S
Mg350 O359 2.114 . S
Mg350 O360 2.251 . S
Mg350 O363 2.010 . S
O351 Mg350 2.028 . S
O351 C354 1.250 . S
O352 Mg353 2.028 . S
O352 C354 1.248 . S
Mg353 O352 2.028 . S
Mg353 O358 2.032 . S
Mg353 O360 2.079 . S
C354 O351 1.250 . S
C354 O352 1.248 . S
C355 O356 1.264 . S
C355 O363 1.249 . S
O356 C355 1.264 . S
O357 Mg350 1.986 . S
O357 C361 1.246 . S
O358 Mg353 2.032 . S
O358 C361 1.259 . S
O359 Mg350 2.114 . S
O359 C362 1.252 . S
O360 Mg350 2.251 . S
O360 Mg353 2.079 . S
O360 C362 1.273 . S
C361 O357 1.246 . S
C361 O358 1.259 . S
C362 O359 1.252 . S
C362 O360 1.273 . S
O363 Mg350 2.010 . S
O363 C355 1.249 . S
Mg364 O365 2.028 . S
Mg364 O371 1.986 . S
Mg364 O373 2.114 . S
Mg364 O374 2.251 . S
Mg364 O377 2.010 . S
O365 Mg364 2.028 . S
O365 C368 1.250 . S
O366 Mg367 2.028 . S
O366 C368 1.248 . S
Mg367 O366 2.028 . S
Mg367 O372 2.032 . S
Mg367 O374 2.079 . S
C368 O365 1.250 . S
C368 O366 1.248 . S
C369 O370 1.264 . S
C369 O377 1.249 . S
O370 C369 1.264 . S
O371 Mg364 1.986 . S
O371 C375 1.246 . S
O372 Mg367 2.032 . S
O372 C375 1.259 . S
O373 Mg364 2.114 . S
O373 C376 1.252 . S
O374 Mg364 2.251 . S
O374 Mg367 2.079 . S
O374 C376 1.273 . S
C375 O371 1.246 . S
C375 O372 1.259 . S
C376 O373 1.252 . S
C376 O374 1.273 . S
O377 Mg364 2.010 . S
O377 C369 1.249 . S
Mg378 O379 2.028 . S
Mg378 O385 1.986 . S
Mg378 O387 2.114 . S
Mg378 O388 2.251 . S
Mg378 O391 2.010 . S
O379 Mg378 2.028 . S
O379 C382 1.250 . S
O380 Mg381 2.028 . S
O380 C382 1.248 . S
Mg381 O380 2.028 . S
Mg381 O386 2.032 . S
Mg381 O388 2.079 . S
C382 O379 1.250 . S
C382 O380 1.248 . S
C383 O384 1.264 . S
C383 O391 1.249 . S
O384 C383 1.264 . S
O385 Mg378 1.986 . S
O385 C389 1.246 . S
O386 Mg381 2.032 . S
O386 C389 1.259 . S
O387 Mg378 2.114 . S
O387 C390 1.252 . S
O388 Mg378 2.251 . S
O388 Mg381 2.079 . S
O388 C390 1.273 . S
C389 O385 1.246 . S
C389 O386 1.259 . S
C390 O387 1.252 . S
C390 O388 1.273 . S
O391 Mg378 2.010 . S
O391 C383 1.249 . S
Mg392 O393 2.028 . S
Mg392 O399 1.986 . S
Mg392 O401 2.114 . S
Mg392 O402 2.251 . S
Mg392 O405 2.010 . S
O393 Mg392 2.028 . S
O393 C396 1.250 . S
O394 Mg395 2.028 . S
O394 C396 1.248 . S
Mg395 O394 2.028 . S
Mg395 O400 2.032 . S
Mg395 O402 2.079 . S
C396 O393 1.250 . S
C396 O394 1.248 . S
C397 O398 1.264 . S
C397 O405 1.249 . S
O398 C397 1.264 . S
O399 Mg392 1.986 . S
O399 C403 1.246 . S
O400 Mg395 2.032 . S
O400 C403 1.259 . S
O401 Mg392 2.114 . S
O401 C404 1.252 . S
O402 Mg392 2.251 . S
O402 Mg395 2.079 . S
O402 C404 1.273 . S
C403 O399 1.246 . S
C403 O400 1.259 . S
C404 O401 1.252 . S
C404 O402 1.273 . S
O405 Mg392 2.010 . S
O405 C397 1.249 . S
Mg406 O407 2.028 . S
Mg406 O413 1.986 . S
Mg406 O415 2.114 . S
Mg406 O416 2.251 . S
Mg406 O419 2.010 . S
O407 Mg406 2.028 . S
O407 C410 1.250 . S
O408 Mg409 2.028 . S
O408 C410 1.248 . S
Mg409 O408 2.028 . S
Mg409 O414 2.032 . S
Mg409 O416 2.079 . S
C410 O407 1.250 . S
C410 O408 1.248 . S
C411 O412 1.264 . S
C411 O419 1.249 . S
O412 C411 1.264 . S
O413 Mg406 1.986 . S
O413 C417 1.246 . S
O414 Mg409 2.032 . S
O414 C417 1.259 . S
O415 Mg406 2.114 . S
O415 C418 1.252 . S
O416 Mg406 2.251 . S
O416 Mg409 2.079 . S
O416 C418 1.273 . S
C417 O413 1.246 . S
C417 O414 1.259 . S
C418 O415 1.252 . S
C418 O416 1.273 . S
O419 Mg406 2.010 . S
O419 C411 1.249 . S
Mg420 O421 2.028 . S
Mg420 O427 1.986 . S
Mg420 O429 2.114 . S
Mg420 O430 2.251 . S
Mg420 O433 2.010 . S
O421 Mg420 2.028 . S
O421 C424 1.250 . S
O422 Mg423 2.028 . S
O422 C424 1.248 . S
Mg423 O422 2.028 . S
Mg423 O428 2.032 . S
Mg423 O430 2.079 . S
C424 O421 1.250 . S
C424 O422 1.248 . S
C425 O426 1.264 . S
C425 O433 1.249 . S
O426 C425 1.264 . S
O427 Mg420 1.986 . S
O427 C431 1.246 . S
O428 Mg423 2.032 . S
O428 C431 1.259 . S
O429 Mg420 2.114 . S
O429 C432 1.252 . S
O430 Mg420 2.251 . S
O430 Mg423 2.079 . S
O430 C432 1.273 . S
C431 O427 1.246 . S
C431 O428 1.259 . S
C432 O429 1.252 . S
C432 O430 1.273 . S
O433 Mg420 2.010 . S
O433 C425 1.249 . S
Mg434 O435 2.028 . S
Mg434 O441 1.986 . S
Mg434 O443 2.114 . S
Mg434 O444 2.251 . S
Mg434 O447 2.010 . S
O435 Mg434 2.028 . S
O435 C438 1.250 . S
O436 Mg437 2.028 . S
O436 C438 1.248 . S
Mg437 O436 2.028 . S
Mg437 O442 2.032 . S
Mg437 O444 2.079 . S
C438 O435 1.250 . S
C438 O436 1.248 . S
C439 O440 1.264 . S
C439 O447 1.249 . S
O440 C439 1.264 . S
O441 Mg434 1.986 . S
O441 C445 1.246 . S
O442 Mg437 2.032 . S
O442 C445 1.259 . S
O443 Mg434 2.114 . S
O443 C446 1.252 . S
O444 Mg434 2.251 . S
O444 Mg437 2.079 . S
O444 C446 1.273 . S
C445 O441 1.246 . S
C445 O442 1.259 . S
C446 O443 1.252 . S
C446 O444 1.273 . S
O447 Mg434 2.010 . S
O447 C439 1.249 . S
Mg448 O449 2.028 . S
Mg448 O455 1.986 . S
Mg448 O457 2.114 . S
Mg448 O458 2.251 . S
Mg448 O461 2.010 . S
O449 Mg448 2.028 . S
O449 C452 1.250 . S
O450 Mg451 2.028 . S
O450 C452 1.248 . S
Mg451 O450 2.028 . S
Mg451 O456 2.032 . S
Mg451 O458 2.079 . S
C452 O449 1.250 . S
C452 O450 1.248 . S
C453 O454 1.264 . S
C453 O461 1.249 . S
O454 C453 1.264 . S
O455 Mg448 1.986 . S
O455 C459 1.246 . S
O456 Mg451 2.032 . S
O456 C459 1.259 . S
O457 Mg448 2.114 . S
O457 C460 1.252 . S
O458 Mg448 2.251 . S
O458 Mg451 2.079 . S
O458 C460 1.273 . S
C459 O455 1.246 . S
C459 O456 1.259 . S
C460 O457 1.252 . S
C460 O458 1.273 . S
O461 Mg448 2.010 . S
O461 C453 1.249 . S
Mg462 O463 2.028 . S
Mg462 O469 1.986 . S
Mg462 O471 2.114 . S
Mg462 O472 2.251 . S
Mg462 O475 2.010 . S
O463 Mg462 2.028 . S
O463 C466 1.250 . S
O464 Mg465 2.028 . S
O464 C466 1.248 . S
Mg465 O464 2.028 . S
Mg465 O470 2.032 . S
Mg465 O472 2.079 . S
C466 O463 1.250 . S
C466 O464 1.248 . S
C467 O468 1.264 . S
C467 O475 1.249 . S
O468 C467 1.264 . S
O469 Mg462 1.986 . S
O469 C473 1.246 . S
O470 Mg465 2.032 . S
O470 C473 1.259 . S
O471 Mg462 2.114 . S
O471 C474 1.252 . S
O472 Mg462 2.251 . S
O472 Mg465 2.079 . S
O472 C474 1.273 . S
C473 O469 1.246 . S
C473 O470 1.259 . S
C474 O471 1.252 . S
C474 O472 1.273 . S
O475 Mg462 2.010 . S
O475 C467 1.249 . S
Mg476 O477 2.028 . S
Mg476 O483 1.986 . S
Mg476 O485 2.114 . S
Mg476 O486 2.251 . S
Mg476 O489 2.010 . S
O477 Mg476 2.028 . S
O477 C480 1.250 . S
O478 Mg479 2.028 . S
O478 C480 1.248 . S
Mg479 O478 2.028 . S
Mg479 O484 2.032 . S
Mg479 O486 2.079 . S
C480 O477 1.250 . S
C480 O478 1.248 . S
C481 O482 1.264 . S
C481 O489 1.249 . S
O482 C481 1.264 . S
O483 Mg476 1.986 . S
O483 C487 1.246 . S
O484 Mg479 2.032 . S
O484 C487 1.259 . S
O485 Mg476 2.114 . S
O485 C488 1.252 . S
O486 Mg476 2.251 . S
O486 Mg479 2.079 . S
O486 C488 1.273 . S
C487 O483 1.246 . S
C487 O484 1.259 . S
C488 O485 1.252 . S
C488 O486 1.273 . S
O489 Mg476 2.010 . S
O489 C481 1.249 . S
Mg490 O491 2.028 . S
Mg490 O497 1.986 . S
Mg490 O499 2.114 . S
Mg490 O500 2.251 . S
Mg490 O503 2.010 . S
O491 Mg490 2.028 . S
O491 C494 1.250 . S
O492 Mg493 2.028 . S
O492 C494 1.248 . S
Mg493 O492 2.028 . S
Mg493 O498 2.032 . S
Mg493 O500 2.079 . S
C494 O491 1.250 . S
C494 O492 1.248 . S
C495 O496 1.264 . S
C495 O503 1.249 . S
O496 C495 1.264 . S
O497 Mg490 1.986 . S
O497 C501 1.246 . S
O498 Mg493 2.032 . S
O498 C501 1.259 . S
O499 Mg490 2.114 . S
O499 C502 1.252 . S
O500 Mg490 2.251 . S
O500 Mg493 2.079 . S
O500 C502 1.273 . S
C501 O497 1.246 . S
C501 O498 1.259 . S
C502 O499 1.252 . S
C502 O500 1.273 . S
O503 Mg490 2.010 . S
O503 C495 1.249 . S
Mg504 O505 2.028 . S
Mg504 O511 1.986 . S
Mg504 O513 2.114 . S
Mg504 O514 2.251 . S
Mg504 O517 2.010 . S
O505 Mg504 2.028 . S
O505 C508 1.250 . S
O506 Mg507 2.028 . S
O506 C508 1.248 . S
Mg507 O506 2.028 . S
Mg507 O512 2.032 . S
Mg507 O514 2.079 . S
C508 O505 1.250 . S
C508 O506 1.248 . S
C509 O510 1.264 . S
C509 O517 1.249 . S
O510 C509 1.264 . S
O511 Mg504 1.986 . S
O511 C515 1.246 . S
O512 Mg507 2.032 . S
O512 C515 1.259 . S
O513 Mg504 2.114 . S
O513 C516 1.252 . S
O514 Mg504 2.251 . S
O514 Mg507 2.079 . S
O514 C516 1.273 . S
C515 O511 1.246 . S
C515 O512 1.259 . S
C516 O513 1.252 . S
C516 O514 1.273 . S
O517 Mg504 2.010 . S
O517 C509 1.249 . S
Mg518 O519 2.028 . S
Mg518 O525 1.986 . S
Mg518 O527 2.114 . S
Mg518 O528 2.251 . S
Mg518 O531 2.010 . S
O519 Mg518 2.028 . S
O519 C522 1.250 . S
O520 Mg521 2.028 . S
O520 C522 1.248 . S
Mg521 O520 2.028 . S
Mg521 O526 2.032 . S
Mg521 O528 2.079 . S
C522 O519 1.250 . S
C522 O520 1.248 . S
C523 O524 1.264 . S
C523 O531 1.249 . S
O524 C523 1.264 . S
O525 Mg518 1.986 . S
O525 C529 1.246 . S
O526 Mg521 2.032 . S
O526 C529 1.259 . S
O527 Mg518 2.114 . S
O527 C530 1.252 . S
O528 Mg518 2.251 . S
O528 Mg521 2.079 . S
O528 C530 1.273 . S
C529 O525 1.246 . S
C529 O526 1.259 . S
C530 O527 1.252 . S
C530 O528 1.273 . S
O531 Mg518 2.010 . S
O531 C523 1.249 . S
Mg532 O533 2.028 . S
Mg532 O539 1.986 . S
Mg532 O541 2.114 . S
Mg532 O542 2.251 . S
Mg532 O545 2.010 . S
O533 Mg532 2.028 . S
O533 C536 1.250 . S
O534 Mg535 2.028 . S
O534 C536 1.248 . S
Mg535 O534 2.028 . S
Mg535 O540 2.032 . S
Mg535 O542 2.079 . S
C536 O533 1.250 . S
C536 O534 1.248 . S
C537 O538 1.264 . S
C537 O545 1.249 . S
O538 C537 1.264 . S
O539 Mg532 1.986 . S
O539 C543 1.246 . S
O540 Mg535 2.032 . S
O540 C543 1.259 . S
O541 Mg532 2.114 . S
O541 C544 1.252 . S
O542 Mg532 2.251 . S
O542 Mg535 2.079 . S
O542 C544 1.273 . S
C543 O539 1.246 . S
C543 O540 1.259 . S
C544 O541 1.252 . S
C544 O542 1.273 . S
O545 Mg532 2.010 . S
O545 C537 1.249 . S
Mg546 O547 2.028 . S
Mg546 O553 1.986 . S
Mg546 O555 2.114 . S
Mg546 O556 2.251 . S
Mg546 O559 2.010 . S
O547 Mg546 2.028 . S
O547 C550 1.250 . S
O548 Mg549 2.028 . S
O548 C550 1.248 . S
Mg549 O548 2.028 . S
Mg549 O554 2.032 . S
Mg549 O556 2.079 . S
C550 O547 1.250 . S
C550 O548 1.248 . S
C551 O552 1.264 . S
C551 O559 1.249 . S
O552 C551 1.264 . S
O553 Mg546 1.986 . S
O553 C557 1.246 . S
O554 Mg549 2.032 . S
O554 C557 1.259 . S
O555 Mg546 2.114 . S
O555 C558 1.252 . S
O556 Mg546 2.251 . S
O556 Mg549 2.079 . S
O556 C558 1.273 . S
C557 O553 1.246 . S
C557 O554 1.259 . S
C558 O555 1.252 . S
C558 O556 1.273 . S
O559 Mg546 2.010 . S
O559 C551 1.249 . S
Mg560 O561 2.028 . S
Mg560 O567 1.986 . S
Mg560 O569 2.114 . S
Mg560 O570 2.251 . S
Mg560 O573 2.010 . S
O561 Mg560 2.028 . S
O561 C564 1.250 . S
O562 Mg563 2.028 . S
O562 C564 1.248 . S
Mg563 O562 2.028 . S
Mg563 O568 2.032 . S
Mg563 O570 2.079 . S
C564 O561 1.250 . S
C564 O562 1.248 . S
C565 O566 1.264 . S
C565 O573 1.249 . S
O566 C565 1.264 . S
O567 Mg560 1.986 . S
O567 C571 1.246 . S
O568 Mg563 2.032 . S
O568 C571 1.259 . S
O569 Mg560 2.114 . S
O569 C572 1.252 . S
O570 Mg560 2.251 . S
O570 Mg563 2.079 . S
O570 C572 1.273 . S
C571 O567 1.246 . S
C571 O568 1.259 . S
C572 O569 1.252 . S
C572 O570 1.273 . S
O573 Mg560 2.010 . S
O573 C565 1.249 . S
Mg574 O575 2.028 . S
Mg574 O581 1.986 . S
Mg574 O583 2.114 . S
Mg574 O584 2.251 . S
Mg574 O587 2.010 . S
O575 Mg574 2.028 . S
O575 C578 1.250 . S
O576 Mg577 2.028 . S
O576 C578 1.248 . S
Mg577 O576 2.028 . S
Mg577 O582 2.032 . S
Mg577 O584 2.079 . S
C578 O575 1.250 . S
C578 O576 1.248 . S
C579 O580 1.264 . S
C579 O587 1.249 . S
O580 C579 1.264 . S
O581 Mg574 1.986 . S
O581 C585 1.246 . S
O582 Mg577 2.032 . S
O582 C585 1.259 . S
O583 Mg574 2.114 . S
O583 C586 1.252 . S
O584 Mg574 2.251 . S
O584 Mg577 2.079 . S
O584 C586 1.273 . S
C585 O581 1.246 . S
C585 O582 1.259 . S
C586 O583 1.252 . S
C586 O584 1.273 . S
O587 Mg574 2.010 . S
O587 C579 1.249 . S
Mg588 O589 2.028 . S
Mg588 O595 1.986 . S
Mg588 O597 2.114 . S
Mg588 O598 2.251 . S
Mg588 O601 2.010 . S
O589 Mg588 2.028 . S
O589 C592 1.250 . S
O590 Mg591 2.028 . S
O590 C592 1.248 . S
Mg591 O590 2.028 . S
Mg591 O596 2.032 . S
Mg591 O598 2.079 . S
C592 O589 1.250 . S
C592 O590 1.248 . S
C593 O594 1.264 . S
C593 O601 1.249 . S
O594 C593 1.264 . S
O595 Mg588 1.986 . S
O595 C599 1.246 . S
O596 Mg591 2.032 . S
O596 C599 1.259 . S
O597 Mg588 2.114 . S
O597 C600 1.252 . S
O598 Mg588 2.251 . S
O598 Mg591 2.079 . S
O598 C600 1.273 . S
C599 O595 1.246 . S
C599 O596 1.259 . S
C600 O597 1.252 . S
C600 O598 1.273 . S
O601 Mg588 2.010 . S
O601 C593 1.249 . S
Mg602 O603 2.028 . S
Mg602 O609 1.986 . S
Mg602 O611 2.114 . S
Mg602 O612 2.251 . S
Mg602 O615 2.010 . S
O603 Mg602 2.028 . S
O603 C606 1.250 . S
O604 Mg605 2.028 . S
O604 C606 1.248 . S
Mg605 O604 2.028 . S
Mg605 O610 2.032 . S
Mg605 O612 2.079 . S
C606 O603 1.250 . S
C606 O604 1.248 . S
C607 O608 1.264 . S
C607 O615 1.249 . S
O608 C607 1.264 . S
O609 Mg602 1.986 . S
O609 C613 1.246 . S
O610 Mg605 2.032 . S
O610 C613 1.259 . S
O611 Mg602 2.114 . S
O611 C614 1.252 . S
O612 Mg602 2.251 . S
O612 Mg605 2.079 . S
O612 C614 1.273 . S
C613 O609 1.246 . S
C613 O610 1.259 . S
C614 O611 1.252 . S
C614 O612 1.273 . S
O615 Mg602 2.010 . S
O615 C607 1.249 . S
Mg616 O617 2.028 . S
Mg616 O623 1.986 . S
Mg616 O625 2.114 . S
Mg616 O626 2.251 . S
Mg616 O629 2.010 . S
O617 Mg616 2.028 . S
O617 C620 1.250 . S
O618 Mg619 2.028 . S
O618 C620 1.248 . S
Mg619 O618 2.028 . S
Mg619 O624 2.032 . S
Mg619 O626 2.079 . S
C620 O617 1.250 . S
C620 O618 1.248 . S
C621 O622 1.264 . S
C621 O629 1.249 . S
O622 C621 1.264 . S
O623 Mg616 1.986 . S
O623 C627 1.246 . S
O624 Mg619 2.032 . S
O624 C627 1.259 . S
O625 Mg616 2.114 . S
O625 C628 1.252 . S
O626 Mg616 2.251 . S
O626 Mg619 2.079 . S
O626 C628 1.273 . S
C627 O623 1.246 . S
C627 O624 1.259 . S
C628 O625 1.252 . S
C628 O626 1.273 . S
O629 Mg616 2.010 . S
O629 C621 1.249 . S
Mg630 O631 2.028 . S
Mg630 O637 1.986 . S
Mg630 O639 2.114 . S
Mg630 O640 2.251 . S
Mg630 O643 2.010 . S
O631 Mg630 2.028 . S
O631 C634 1.250 . S
O632 Mg633 2.028 . S
O632 C634 1.248 . S
Mg633 O632 2.028 . S
Mg633 O638 2.032 . S
Mg633 O640 2.079 . S
C634 O631 1.250 . S
C634 O632 1.248 . S
C635 O636 1.264 . S
C635 O643 1.249 . S
O636 C635 1.264 . S
O637 Mg630 1.986 . S
O637 C641 1.246 . S
O638 Mg633 2.032 . S
O638 C641 1.259 . S
O639 Mg630 2.114 . S
O639 C642 1.252 . S
O640 Mg630 2.251 . S
O640 Mg633 2.079 . S
O640 C642 1.273 . S
C641 O637 1.246 . S
C641 O638 1.259 . S
C642 O639 1.252 . S
C642 O640 1.273 . S
O643 Mg630 2.010 . S
O643 C635 1.249 . S
Mg644 O645 2.028 . S
Mg644 O651 1.986 . S
Mg644 O653 2.114 . S
Mg644 O654 2.251 . S
Mg644 O657 2.010 . S
O645 Mg644 2.028 . S
O645 C648 1.250 . S
O646 Mg647 2.028 . S
O646 C648 1.248 . S
Mg647 O646 2.028 . S
Mg647 O652 2.032 . S
Mg647 O654 2.079 . S
C648 O645 1.250 . S
C648 O646 1.248 . S
C649 O650 1.264 . S
C649 O657 1.249 . S
O650 C649 1.264 . S
O651 Mg644 1.986 . S
O651 C655 1.246 . S
O652 Mg647 2.032 . S
O652 C655 1.259 . S
O653 Mg644 2.114 . S
O653 C656 1.252 . S
O654 Mg644 2.251 . S
O654 Mg647 2.079 . S
O654 C656 1.273 . S
C655 O651 1.246 . S
C655 O652 1.259 . S
C656 O653 1.252 . S
C656 O654 1.273 . S
O657 Mg644 2.010 . S
O657 C649 1.249 . S
Mg658 O659 2.028 . S
Mg658 O665 1.986 . S
Mg658 O667 2.114 . S
Mg658 O668 2.251 . S
Mg658 O671 2.010 . S
O659 Mg658 2.028 . S
O659 C662 1.250 . S
O660 Mg661 2.028 . S
O660 C662 1.248 . S
Mg661 O660 2.028 . S
Mg661 O666 2.032 . S
Mg661 O668 2.079 . S
C662 O659 1.250 . S
C662 O660 1.248 . S
C663 O664 1.264 . S
C663 O671 1.249 . S
O664 C663 1.264 . S
O665 Mg658 1.986 . S
O665 C669 1.246 . S
O666 Mg661 2.032 . S
O666 C669 1.259 . S
O667 Mg658 2.114 . S
O667 C670 1.252 . S
O668 Mg658 2.251 . S
O668 Mg661 2.079 . S
O668 C670 1.273 . S
C669 O665 1.246 . S
C669 O666 1.259 . S
C670 O667 1.252 . S
C670 O668 1.273 . S
O671 Mg658 2.010 . S
O671 C663 1.249 . S
C672 C673 1.349 . S
C672 C674 1.327 . S
C672 H697 0.950 . S
C673 C672 1.349 . S
C673 C689 1.349 . S
C674 C672 1.327 . S
C674 C693 1.429 . S
C674 H698 0.950 . S
C675 C692 1.574 . S
C675 C694 1.368 . S
C675 H699 0.949 . S
H676 C680 0.949 . S
C677 C678 1.349 . S
C677 C679 1.327 . S
C677 H700 0.950 . S
C678 C677 1.349 . S
C678 C690 1.349 . S
C679 C677 1.327 . S
C679 C695 1.429 . S
C679 H701 0.950 . S
C680 H676 0.949 . S
C680 C688 1.574 . S
C680 C696 1.368 . S
H681 C689 0.950 . S
H682 C687 0.950 . S
H683 C688 0.949 . S
H684 C690 0.950 . S
H685 C691 0.950 . S
H686 C692 0.949 . S
C687 H682 0.950 . S
C687 C689 1.327 . S
C687 C693 1.429 . S
C688 C680 1.574 . S
C688 H683 0.949 . S
C688 C694 1.368 . S
C689 C673 1.349 . S
C689 H681 0.950 . S
C689 C687 1.327 . S
C690 C678 1.349 . S
C690 H684 0.950 . S
C690 C691 1.327 . S
C691 H685 0.950 . S
C691 C690 1.327 . S
C691 C695 1.429 . S
C692 C675 1.574 . S
C692 H686 0.949 . S
C692 C696 1.368 . S
C693 C674 1.429 . S
C693 C687 1.429 . S
C693 C694 1.523 . S
C694 C675 1.368 . S
C694 C688 1.368 . S
C694 C693 1.523 . S
C695 C679 1.429 . S
C695 C691 1.429 . S
C695 C696 1.523 . S
C696 C680 1.368 . S
C696 C692 1.368 . S
C696 C695 1.523 . S
H697 C672 0.950 . S
H698 C674 0.950 . S
H699 C675 0.949 . S
H700 C677 0.950 . S
H701 C679 0.950 . S
C702 C703 1.349 . S
C702 C704 1.327 . S
C702 H727 0.950 . S
C703 C702 1.349 . S
C703 C719 1.349 . S
C704 C702 1.327 . S
C704 C723 1.429 . S
C704 H728 0.950 . S
C705 C722 1.574 . S
C705 C724 1.368 . S
C705 H729 0.949 . S
H706 C710 0.949 . S
C707 C708 1.349 . S
C707 C709 1.327 . S
C707 H730 0.950 . S
C708 C707 1.349 . S
C708 C720 1.349 . S
C709 C707 1.327 . S
C709 C725 1.429 . S
C709 H731 0.950 . S
C710 H706 0.949 . S
C710 C718 1.574 . S
C710 C726 1.368 . S
H711 C719 0.950 . S
H712 C717 0.950 . S
H713 C718 0.949 . S
H714 C720 0.950 . S
H715 C721 0.950 . S
H716 C722 0.949 . S
C717 H712 0.950 . S
C717 C719 1.327 . S
C717 C723 1.429 . S
C718 C710 1.574 . S
C718 H713 0.949 . S
C718 C724 1.368 . S
C719 C703 1.349 . S
C719 H711 0.950 . S
C719 C717 1.327 . S
C720 C708 1.349 . S
C720 H714 0.950 . S
C720 C721 1.327 . S
C721 H715 0.950 . S
C721 C720 1.327 . S
C721 C725 1.429 . S
C722 C705 1.574 . S
C722 H716 0.949 . S
C722 C726 1.368 . S
C723 C704 1.429 . S
C723 C717 1.429 . S
C723 C724 1.523 . S
C724 C705 1.368 . S
C724 C718 1.368 . S
C724 C723 1.523 . S
C725 C709 1.429 . S
C725 C721 1.429 . S
C725 C726 1.523 . S
C726 C710 1.368 . S
C726 C722 1.368 . S
C726 C725 1.523 . S
H727 C702 0.950 . S
H728 C704 0.950 . S
H729 C705 0.949 . S
H730 C707 0.950 . S
H731 C709 0.950 . S
C732 C733 1.349 . S
C732 C734 1.327 . S
C732 H757 0.950 . S
C733 C732 1.349 . S
C733 C749 1.349 . S
C734 C732 1.327 . S
C734 C753 1.429 . S
C734 H758 0.950 . S
C735 C752 1.574 . S
C735 C754 1.368 . S
C735 H759 0.949 . S
H736 C740 0.949 . S
C737 C738 1.349 . S
C737 C739 1.327 . S
C737 H760 0.950 . S
C738 C737 1.349 . S
C738 C750 1.349 . S
C739 C737 1.327 . S
C739 C755 1.429 . S
C739 H761 0.950 . S
C740 H736 0.949 . S
C740 C748 1.574 . S
C740 C756 1.368 . S
H741 C749 0.950 . S
H742 C747 0.950 . S
H743 C748 0.949 . S
H744 C750 0.950 . S
H745 C751 0.950 . S
H746 C752 0.949 . S
C747 H742 0.950 . S
C747 C749 1.327 . S
C747 C753 1.429 . S
C748 C740 1.574 . S
C748 H743 0.949 . S
C748 C754 1.368 . S
C749 C733 1.349 . S
C749 H741 0.950 . S
C749 C747 1.327 . S
C750 C738 1.349 . S
C750 H744 0.950 . S
C750 C751 1.327 . S
C751 H745 0.950 . S
C751 C750 1.327 . S
C751 C755 1.429 . S
C752 C735 1.574 . S
C752 H746 0.949 . S
C752 C756 1.368 . S
C753 C734 1.429 . S
C753 C747 1.429 . S
C753 C754 1.523 . S
C754 C735 1.368 . S
C754 C748 1.368 . S
C754 C753 1.523 . S
C755 C739 1.429 . S
C755 C751 1.429 . S
C755 C756 1.523 . S
C756 C740 1.368 . S
C756 C752 1.368 . S
C756 C755 1.523 . S
H757 C732 0.950 . S
H758 C734 0.950 . S
H759 C735 0.949 . S
H760 C737 0.950 . S
H761 C739 0.950 . S
C762 C763 1.349 . S
C762 C764 1.327 . S
C762 H787 0.950 . S
C763 C762 1.349 . S
C763 C779 1.349 . S
C764 C762 1.327 . S
C764 C783 1.429 . S
C764 H788 0.950 . S
C765 C782 1.574 . S
C765 C784 1.368 . S
C765 H789 0.949 . S
H766 C770 0.949 . S
C767 C768 1.349 . S
C767 C769 1.327 . S
C767 H790 0.950 . S
C768 C767 1.349 . S
C768 C780 1.349 . S
C769 C767 1.327 . S
C769 C785 1.429 . S
C769 H791 0.950 . S
C770 H766 0.949 . S
C770 C778 1.574 . S
C770 C786 1.368 . S
H771 C779 0.950 . S
H772 C777 0.950 . S
H773 C778 0.949 . S
H774 C780 0.950 . S
H775 C781 0.950 . S
H776 C782 0.949 . S
C777 H772 0.950 . S
C777 C779 1.327 . S
C777 C783 1.429 . S
C778 C770 1.574 . S
C778 H773 0.949 . S
C778 C784 1.368 . S
C779 C763 1.349 . S
C779 H771 0.950 . S
C779 C777 1.327 . S
C780 C768 1.349 . S
C780 H774 0.950 . S
C780 C781 1.327 . S
C781 H775 0.950 . S
C781 C780 1.327 . S
C781 C785 1.429 . S
C782 C765 1.574 . S
C782 H776 0.949 . S
C782 C786 1.368 . S
C783 C764 1.429 . S
C783 C777 1.429 . S
C783 C784 1.523 . S
C784 C765 1.368 . S
C784 C778 1.368 . S
C784 C783 1.523 . S
C785 C769 1.429 . S
C785 C781 1.429 . S
C785 C786 1.523 . S
C786 C770 1.368 . S
C786 C782 1.368 . S
C786 C785 1.523 . S
H787 C762 0.950 . S
H788 C764 0.950 . S
H789 C765 0.949 . S
H790 C767 0.950 . S
H791 C769 0.950 . S
C792 C793 1.349 . S
C792 C794 1.327 . S
C792 H817 0.950 . S
C793 C792 1.349 . S
C793 C809 1.349 . S
C794 C792 1.327 . S
C794 C813 1.429 . S
C794 H818 0.950 . S
C795 C812 1.574 . S
C795 C814 1.368 . S
C795 H819 0.949 . S
H796 C800 0.949 . S
C797 C798 1.349 . S
C797 C799 1.327 . S
C797 H820 0.950 . S
C798 C797 1.349 . S
C798 C810 1.349 . S
C799 C797 1.327 . S
C799 C815 1.429 . S
C799 H821 0.950 . S
C800 H796 0.949 . S
C800 C808 1.574 . S
C800 C816 1.368 . S
H801 C809 0.950 . S
H802 C807 0.950 . S
H803 C808 0.949 . S
H804 C810 0.950 . S
H805 C811 0.950 . S
H806 C812 0.949 . S
C807 H802 0.950 . S
C807 C809 1.327 . S
C807 C813 1.429 . S
C808 C800 1.574 . S
C808 H803 0.949 . S
C808 C814 1.368 . S
C809 C793 1.349 . S
C809 H801 0.950 . S
C809 C807 1.327 . S
C810 C798 1.349 . S
C810 H804 0.950 . S
C810 C811 1.327 . S
C811 H805 0.950 . S
C811 C810 1.327 . S
C811 C815 1.429 . S
C812 C795 1.574 . S
C812 H806 0.949 . S
C812 C816 1.368 . S
C813 C794 1.429 . S
C813 C807 1.429 . S
C813 C814 1.523 . S
C814 C795 1.368 . S
C814 C808 1.368 . S
C814 C813 1.523 . S
C815 C799 1.429 . S
C815 C811 1.429 . S
C815 C816 1.523 . S
C816 C800 1.368 . S
C816 C812 1.368 . S
C816 C815 1.523 . S
H817 C792 0.950 . S
H818 C794 0.950 . S
H819 C795 0.949 . S
H820 C797 0.950 . S
H821 C799 0.950 . S
C822 C823 1.349 . S
C822 C824 1.327 . S
C822 H847 0.950 . S
C823 C822 1.349 . S
C823 C839 1.349 . S
C824 C822 1.327 . S
C824 C843 1.429 . S
C824 H848 0.950 . S
C825 C842 1.574 . S
C825 C844 1.368 . S
C825 H849 0.949 . S
H826 C830 0.949 . S
C827 C828 1.349 . S
C827 C829 1.327 . S
C827 H850 0.950 . S
C828 C827 1.349 . S
C828 C840 1.349 . S
C829 C827 1.327 . S
C829 C845 1.429 . S
C829 H851 0.950 . S
C830 H826 0.949 . S
C830 C838 1.574 . S
C830 C846 1.368 . S
H831 C839 0.950 . S
H832 C837 0.950 . S
H833 C838 0.949 . S
H834 C840 0.950 . S
H835 C841 0.950 . S
H836 C842 0.949 . S
C837 H832 0.950 . S
C837 C839 1.327 . S
C837 C843 1.429 . S
C838 C830 1.574 . S
C838 H833 0.949 . S
C838 C844 1.368 . S
C839 C823 1.349 . S
C839 H831 0.950 . S
C839 C837 1.327 . S
C840 C828 1.349 . S
C840 H834 0.950 . S
C840 C841 1.327 . S
C841 H835 0.950 . S
C841 C840 1.327 . S
C841 C845 1.429 . S
C842 C825 1.574 . S
C842 H836 0.949 . S
C842 C846 1.368 . S
C843 C824 1.429 . S
C843 C837 1.429 . S
C843 C844 1.523 . S
C844 C825 1.368 . S
C844 C838 1.368 . S
C844 C843 1.523 . S
C845 C829 1.429 . S
C845 C841 1.429 . S
C845 C846 1.523 . S
C846 C830 1.368 . S
C846 C842 1.368 . S
C846 C845 1.523 . S
H847 C822 0.950 . S
H848 C824 0.950 . S
H849 C825 0.949 . S
H850 C827 0.950 . S
H851 C829 0.950 . S
C852 C853 1.349 . S
C852 C854 1.327 . S
C852 H877 0.950 . S
C853 C852 1.349 . S
C853 C869 1.349 . S
C854 C852 1.327 . S
C854 C873 1.429 . S
C854 H878 0.950 . S
C855 C872 1.574 . S
C855 C874 1.368 . S
C855 H879 0.949 . S
H856 C860 0.949 . S
C857 C858 1.349 . S
C857 C859 1.327 . S
C857 H880 0.950 . S
C858 C857 1.349 . S
C858 C870 1.349 . S
C859 C857 1.327 . S
C859 C875 1.429 . S
C859 H881 0.950 . S
C860 H856 0.949 . S
C860 C868 1.574 . S
C860 C876 1.368 . S
H861 C869 0.950 . S
H862 C867 0.950 . S
H863 C868 0.949 . S
H864 C870 0.950 . S
H865 C871 0.950 . S
H866 C872 0.949 . S
C867 H862 0.950 . S
C867 C869 1.327 . S
C867 C873 1.429 . S
C868 C860 1.574 . S
C868 H863 0.949 . S
C868 C874 1.368 . S
C869 C853 1.349 . S
C869 H861 0.950 . S
C869 C867 1.327 . S
C870 C858 1.349 . S
C870 H864 0.950 . S
C870 C871 1.327 . S
C871 H865 0.950 . S
C871 C870 1.327 . S
C871 C875 1.429 . S
C872 C855 1.574 . S
C872 H866 0.949 . S
C872 C876 1.368 . S
C873 C854 1.429 . S
C873 C867 1.429 . S
C873 C874 1.523 . S
C874 C855 1.368 . S
C874 C868 1.368 . S
C874 C873 1.523 . S
C875 C859 1.429 . S
C875 C871 1.429 . S
C875 C876 1.523 . S
C876 C860 1.368 . S
C876 C872 1.368 . S
C876 C875 1.523 . S
H877 C852 0.950 . S
H878 C854 0.950 . S
H879 C855 0.949 . S
H880 C857 0.950 . S
H881 C859 0.950 . S
C882 C883 1.349 . S
C882 C884 1.327 . S
C882 H907 0.950 . S
C883 C882 1.349 . S
C883 C899 1.349 . S
C884 C882 1.327 . S
C884 C903 1.429 . S
C884 H908 0.950 . S
C885 C902 1.574 . S
C885 C904 1.368 . S
C885 H909 0.949 . S
H886 C890 0.949 . S
C887 C888 1.349 . S
C887 C889 1.327 . S
C887 H910 0.950 . S
C888 C887 1.349 . S
C888 C900 1.349 . S
C889 C887 1.327 . S
C889 C905 1.429 . S
C889 H911 0.950 . S
C890 H886 0.949 . S
C890 C898 1.574 . S
C890 C906 1.368 . S
H891 C899 0.950 . S
H892 C897 0.950 . S
H893 C898 0.949 . S
H894 C900 0.950 . S
H895 C901 0.950 . S
H896 C902 0.949 . S
C897 H892 0.950 . S
C897 C899 1.327 . S
C897 C903 1.429 . S
C898 C890 1.574 . S
C898 H893 0.949 . S
C898 C904 1.368 . S
C899 C883 1.349 . S
C899 H891 0.950 . S
C899 C897 1.327 . S
C900 C888 1.349 . S
C900 H894 0.950 . S
C900 C901 1.327 . S
C901 H895 0.950 . S
C901 C900 1.327 . S
C901 C905 1.429 . S
C902 C885 1.574 . S
C902 H896 0.949 . S
C902 C906 1.368 . S
C903 C884 1.429 . S
C903 C897 1.429 . S
C903 C904 1.523 . S
C904 C885 1.368 . S
C904 C898 1.368 . S
C904 C903 1.523 . S
C905 C889 1.429 . S
C905 C901 1.429 . S
C905 C906 1.523 . S
C906 C890 1.368 . S
C906 C902 1.368 . S
C906 C905 1.523 . S
H907 C882 0.950 . S
H908 C884 0.950 . S
H909 C885 0.949 . S
H910 C887 0.950 . S
H911 C889 0.950 . S
C912 C913 1.349 . S
C912 C914 1.327 . S
C912 H937 0.950 . S
C913 C912 1.349 . S
C913 C929 1.349 . S
C914 C912 1.327 . S
C914 C933 1.429 . S
C914 H938 0.950 . S
C915 C932 1.574 . S
C915 C934 1.368 . S
C915 H939 0.949 . S
H916 C920 0.949 . S
C917 C918 1.349 . S
C917 C919 1.327 . S
C917 H940 0.950 . S
C918 C917 1.349 . S
C918 C930 1.349 . S
C919 C917 1.327 . S
C919 C935 1.429 . S
C919 H941 0.950 . S
C920 H916 0.949 . S
C920 C928 1.574 . S
C920 C936 1.368 . S
H921 C929 0.950 . S
H922 C927 0.950 . S
H923 C928 0.949 . S
H924 C930 0.950 . S
H925 C931 0.950 . S
H926 C932 0.949 . S
C927 H922 0.950 . S
C927 C929 1.327 . S
C927 C933 1.429 . S
C928 C920 1.574 . S
C928 H923 0.949 . S
C928 C934 1.368 . S
C929 C913 1.349 . S
C929 H921 0.950 . S
C929 C927 1.327 . S
C930 C918 1.349 . S
C930 H924 0.950 . S
C930 C931 1.327 . S
C931 H925 0.950 . S
C931 C930 1.327 . S
C931 C935 1.429 . S
C932 C915 1.574 . S
C932 H926 0.949 . S
C932 C936 1.368 . S
C933 C914 1.429 . S
C933 C927 1.429 . S
C933 C934 1.523 . S
C934 C915 1.368 . S
C934 C928 1.368 . S
C934 C933 1.523 . S
C935 C919 1.429 . S
C935 C931 1.429 . S
C935 C936 1.523 . S
C936 C920 1.368 . S
C936 C932 1.368 . S
C936 C935 1.523 . S
H937 C912 0.950 . S
H938 C914 0.950 . S
H939 C915 0.949 . S
H940 C917 0.950 . S
H941 C919 0.950 . S
C942 C943 1.349 . S
C942 C944 1.327 . S
C942 H967 0.950 . S
C943 C942 1.349 . S
C943 C959 1.349 . S
C944 C942 1.327 . S
C944 C963 1.429 . S
C944 H968 0.950 . S
C945 C962 1.574 . S
C945 C964 1.368 . S
C945 H969 0.949 . S
H946 C950 0.949 . S
C947 C948 1.349 . S
C947 C949 1.327 . S
C947 H970 0.950 . S
C948 C947 1.349 . S
C948 C960 1.349 . S
C949 C947 1.327 . S
C949 C965 1.429 . S
C949 H971 0.950 . S
C950 H946 0.949 . S
C950 C958 1.574 . S
C950 C966 1.368 . S
H951 C959 0.950 . S
H952 C957 0.950 . S
H953 C958 0.949 . S
H954 C960 0.950 . S
H955 C961 0.950 . S
H956 C962 0.949 . S
C957 H952 0.950 . S
C957 C959 1.327 . S
C957 C963 1.429 . S
C958 C950 1.574 . S
C958 H953 0.949 . S
C958 C964 1.368 . S
C959 C943 1.349 . S
C959 H951 0.950 . S
C959 C957 1.327 . S
C960 C948 1.349 . S
C960 H954 0.950 . S
C960 C961 1.327 . S
C961 H955 0.950 . S
C961 C960 1.327 . S
C961 C965 1.429 . S
C962 C945 1.574 . S
C962 H956 0.949 . S
C962 C966 1.368 . S
C963 C944 1.429 . S
C963 C957 1.429 . S
C963 C964 1.523 . S
C964 C945 1.368 . S
C964 C958 1.368 . S
C964 C963 1.523 . S
C965 C949 1.429 . S
C965 C961 1.429 . S
C965 C966 1.523 . S
C966 C950 1.368 . S
C966 C962 1.368 . S
C966 C965 1.523 . S
H967 C942 0.950 . S
H968 C944 0.950 . S
H969 C945 0.949 . S
H970 C947 0.950 . S
H971 C949 0.950 . S
C972 C973 1.349 . S
C972 C974 1.327 . S
C972 H997 0.950 . S
C973 C972 1.349 . S
C973 C989 1.349 . S
C974 C972 1.327 . S
C974 C993 1.429 . S
C974 H998 0.950 . S
C975 C992 1.574 . S
C975 C994 1.368 . S
C975 H999 0.949 . S
H976 C980 0.949 . S
C977 C978 1.349 . S
C977 C979 1.327 . S
C977 H1000 0.950 . S
C978 C977 1.349 . S
C978 C990 1.349 . S
C979 C977 1.327 . S
C979 C995 1.429 . S
C979 H1001 0.950 . S
C980 H976 0.949 . S
C980 C988 1.574 . S
C980 C996 1.368 . S
H981 C989 0.950 . S
H982 C987 0.950 . S
H983 C988 0.949 . S
H984 C990 0.950 . S
H985 C991 0.950 . S
H986 C992 0.949 . S
C987 H982 0.950 . S
C987 C989 1.327 . S
C987 C993 1.429 . S
C988 C980 1.574 . S
C988 H983 0.949 . S
C988 C994 1.368 . S
C989 C973 1.349 . S
C989 H981 0.950 . S
C989 C987 1.327 . S
C990 C978 1.349 . S
C990 H984 0.950 . S
C990 C991 1.327 . S
C991 H985 0.950 . S
C991 C990 1.327 . S
C991 C995 1.429 . S
C992 C975 1.574 . S
C992 H986 0.949 . S
C992 C996 1.368 . S
C993 C974 1.429 . S
C993 C987 1.429 . S
C993 C994 1.523 . S
C994 C975 1.368 . S
C994 C988 1.368 . S
C994 C993 1.523 . S
C995 C979 1.429 . S
C995 C991 1.429 . S
C995 C996 1.523 . S
C996 C980 1.368 . S
C996 C992 1.368 . S
C996 C995 1.523 . S
H997 C972 0.950 . S
H998 C974 0.950 . S
H999 C975 0.949 . S
H1000 C977 0.950 . S
H1001 C979 0.950 . S
C1002 C1003 1.349 . S
C1002 C1004 1.327 . S
C1002 H1027 0.950 . S
C1003 C1002 1.349 . S
C1003 C1019 1.349 . S
C1004 C1002 1.327 . S
C1004 C1023 1.429 . S
C1004 H1028 0.950 . S
C1005 C1022 1.574 . S
C1005 C1024 1.368 . S
C1005 H1029 0.949 . S
H1006 C1010 0.949 . S
C1007 C1008 1.349 . S
C1007 C1009 1.327 . S
C1007 H1030 0.950 . S
C1008 C1007 1.349 . S
C1008 C1020 1.349 . S
C1009 C1007 1.327 . S
C1009 C1025 1.429 . S
C1009 H1031 0.950 . S
C1010 H1006 0.949 . S
C1010 C1018 1.574 . S
C1010 C1026 1.368 . S
H1011 C1019 0.950 . S
H1012 C1017 0.950 . S
H1013 C1018 0.949 . S
H1014 C1020 0.950 . S
H1015 C1021 0.950 . S
H1016 C1022 0.949 . S
C1017 H1012 0.950 . S
C1017 C1019 1.327 . S
C1017 C1023 1.429 . S
C1018 C1010 1.574 . S
C1018 H1013 0.949 . S
C1018 C1024 1.368 . S
C1019 C1003 1.349 . S
C1019 H1011 0.950 . S
C1019 C1017 1.327 . S
C1020 C1008 1.349 . S
C1020 H1014 0.950 . S
C1020 C1021 1.327 . S
C1021 H1015 0.950 . S
C1021 C1020 1.327 . S
C1021 C1025 1.429 . S
C1022 C1005 1.574 . S
C1022 H1016 0.949 . S
C1022 C1026 1.368 . S
C1023 C1004 1.429 . S
C1023 C1017 1.429 . S
C1023 C1024 1.523 . S
C1024 C1005 1.368 . S
C1024 C1018 1.368 . S
C1024 C1023 1.523 . S
C1025 C1009 1.429 . S
C1025 C1021 1.429 . S
C1025 C1026 1.523 . S
C1026 C1010 1.368 . S
C1026 C1022 1.368 . S
C1026 C1025 1.523 . S
H1027 C1002 0.950 . S
H1028 C1004 0.950 . S
H1029 C1005 0.949 . S
H1030 C1007 0.950 . S
H1031 C1009 0.950 . S
C1032 C1033 1.349 . S
C1032 C1034 1.327 . S
C1032 H1057 0.950 . S
C1033 C1032 1.349 . S
C1033 C1049 1.349 . S
C1034 C1032 1.327 . S
C1034 C1053 1.429 . S
C1034 H1058 0.950 . S
C1035 C1052 1.574 . S
C1035 C1054 1.368 . S
C1035 H1059 0.949 . S
H1036 C1040 0.949 . S
C1037 C1038 1.349 . S
C1037 C1039 1.327 . S
C1037 H1060 0.950 . S
C1038 C1037 1.349 . S
C1038 C1050 1.349 . S
C1039 C1037 1.327 . S
C1039 C1055 1.429 . S
C1039 H1061 0.950 . S
C1040 H1036 0.949 . S
C1040 C1048 1.574 . S
C1040 C1056 1.368 . S
H1041 C1049 0.950 . S
H1042 C1047 0.950 . S
H1043 C1048 0.949 . S
H1044 C1050 0.950 . S
H1045 C1051 0.950 . S
H1046 C1052 0.949 . S
C1047 H1042 0.950 . S
C1047 C1049 1.327 . S
C1047 C1053 1.429 . S
C1048 C1040 1.574 . S
C1048 H1043 0.949 . S
C1048 C1054 1.368 . S
C1049 C1033 1.349 . S
C1049 H1041 0.950 . S
C1049 C1047 1.327 . S
C1050 C1038 1.349 . S
C1050 H1044 0.950 . S
C1050 C1051 1.327 . S
C1051 H1045 0.950 . S
C1051 C1050 1.327 . S
C1051 C1055 1.429 . S
C1052 C1035 1.574 . S
C1052 H1046 0.949 . S
C1052 C1056 1.368 . S
C1053 C1034 1.429 . S
C1053 C1047 1.429 . S
C1053 C1054 1.523 . S
C1054 C1035 1.368 . S
C1054 C1048 1.368 . S
C1054 C1053 1.523 . S
C1055 C1039 1.429 . S
C1055 C1051 1.429 . S
C1055 C1056 1.523 . S
C1056 C1040 1.368 . S
C1056 C1052 1.368 . S
C1056 C1055 1.523 . S
H1057 C1032 0.950 . S
H1058 C1034 0.950 . S
H1059 C1035 0.949 . S
H1060 C1037 0.950 . S
H1061 C1039 0.950 . S
C1062 C1063 1.349 . S
C1062 C1064 1.327 . S
C1062 H1087 0.950 . S
C1063 C1062 1.349 . S
C1063 C1079 1.349 . S
C1064 C1062 1.327 . S
C1064 C1083 1.429 . S
C1064 H1088 0.950 . S
C1065 C1082 1.574 . S
C1065 C1084 1.368 . S
C1065 H1089 0.949 . S
H1066 C1070 0.949 . S
C1067 C1068 1.349 . S
C1067 C1069 1.327 . S
C1067 H1090 0.950 . S
C1068 C1067 1.349 . S
C1068 C1080 1.349 . S
C1069 C1067 1.327 . S
C1069 C1085 1.429 . S
C1069 H1091 0.950 . S
C1070 H1066 0.949 . S
C1070 C1078 1.574 . S
C1070 C1086 1.368 . S
H1071 C1079 0.950 . S
H1072 C1077 0.950 . S
H1073 C1078 0.949 . S
H1074 C1080 0.950 . S
H1075 C1081 0.950 . S
H1076 C1082 0.949 . S
C1077 H1072 0.950 . S
C1077 C1079 1.327 . S
C1077 C1083 1.429 . S
C1078 C1070 1.574 . S
C1078 H1073 0.949 . S
C1078 C1084 1.368 . S
C1079 C1063 1.349 . S
C1079 H1071 0.950 . S
C1079 C1077 1.327 . S
C1080 C1068 1.349 . S
C1080 H1074 0.950 . S
C1080 C1081 1.327 . S
C1081 H1075 0.950 . S
C1081 C1080 1.327 . S
C1081 C1085 1.429 . S
C1082 C1065 1.574 . S
C1082 H1076 0.949 . S
C1082 C1086 1.368 . S
C1083 C1064 1.429 . S
C1083 C1077 1.429 . S
C1083 C1084 1.523 . S
C1084 C1065 1.368 . S
C1084 C1078 1.368 . S
C1084 C1083 1.523 . S
C1085 C1069 1.429 . S
C1085 C1081 1.429 . S
C1085 C1086 1.523 . S
C1086 C1070 1.368 . S
C1086 C1082 1.368 . S
C1086 C1085 1.523 . S
H1087 C1062 0.950 . S
H1088 C1064 0.950 . S
H1089 C1065 0.949 . S
H1090 C1067 0.950 . S
H1091 C1069 0.950 . S
C1092 C1093 1.349 . S
C1092 C1094 1.327 . S
C1092 H1117 0.950 . S
C1093 C1092 1.349 . S
C1093 C1109 1.349 . S
C1094 C1092 1.327 . S
C1094 C1113 1.429 . S
C1094 H1118 0.950 . S
C1095 C1112 1.574 . S
C1095 C1114 1.368 . S
C1095 H1119 0.949 . S
H1096 C1100 0.949 . S
C1097 C1098 1.349 . S
C1097 C1099 1.327 . S
C1097 H1120 0.950 . S
C1098 C1097 1.349 . S
C1098 C1110 1.349 . S
C1099 C1097 1.327 . S
C1099 C1115 1.429 . S
C1099 H1121 0.950 . S
C1100 H1096 0.949 . S
C1100 C1108 1.574 . S
C1100 C1116 1.368 . S
H1101 C1109 0.950 . S
H1102 C1107 0.950 . S
H1103 C1108 0.949 . S
H1104 C1110 0.950 . S
H1105 C1111 0.950 . S
H1106 C1112 0.949 . S
C1107 H1102 0.950 . S
C1107 C1109 1.327 . S
C1107 C1113 1.429 . S
C1108 C1100 1.574 . S
C1108 H1103 0.949 . S
C1108 C1114 1.368 . S
C1109 C1093 1.349 . S
C1109 H1101 0.950 . S
C1109 C1107 1.327 . S
C1110 C1098 1.349 . S
C1110 H1104 0.950 . S
C1110 C1111 1.327 . S
C1111 H1105 0.950 . S
C1111 C1110 1.327 . S
C1111 C1115 1.429 . S
C1112 C1095 1.574 . S
C1112 H1106 0.949 . S
C1112 C1116 1.368 . S
C1113 C1094 1.429 . S
C1113 C1107 1.429 . S
C1113 C1114 1.523 . S
C1114 C1095 1.368 . S
C1114 C1108 1.368 . S
C1114 C1113 1.523 . S
C1115 C1099 1.429 . S
C1115 C1111 1.429 . S
C1115 C1116 1.523 . S
C1116 C1100 1.368 . S
C1116 C1112 1.368 . S
C1116 C1115 1.523 . S
H1117 C1092 0.950 . S
H1118 C1094 0.950 . S
H1119 C1095 0.949 . S
H1120 C1097 0.950 . S
H1121 C1099 0.950 . S
C1122 C1123 1.349 . S
C1122 C1124 1.327 . S
C1122 H1147 0.950 . S
C1123 C1122 1.349 . S
C1123 C1139 1.349 . S
C1124 C1122 1.327 . S
C1124 C1143 1.429 . S
C1124 H1148 0.950 . S
C1125 C1142 1.574 . S
C1125 C1144 1.368 . S
C1125 H1149 0.949 . S
H1126 C1130 0.949 . S
C1127 C1128 1.349 . S
C1127 C1129 1.327 . S
C1127 H1150 0.950 . S
C1128 C1127 1.349 . S
C1128 C1140 1.349 . S
C1129 C1127 1.327 . S
C1129 C1145 1.429 . S
C1129 H1151 0.950 . S
C1130 H1126 0.949 . S
C1130 C1138 1.574 . S
C1130 C1146 1.368 . S
H1131 C1139 0.950 . S
H1132 C1137 0.950 . S
H1133 C1138 0.949 . S
H1134 C1140 0.950 . S
H1135 C1141 0.950 . S
H1136 C1142 0.949 . S
C1137 H1132 0.950 . S
C1137 C1139 1.327 . S
C1137 C1143 1.429 . S
C1138 C1130 1.574 . S
C1138 H1133 0.949 . S
C1138 C1144 1.368 . S
C1139 C1123 1.349 . S
C1139 H1131 0.950 . S
C1139 C1137 1.327 . S
C1140 C1128 1.349 . S
C1140 H1134 0.950 . S
C1140 C1141 1.327 . S
C1141 H1135 0.950 . S
C1141 C1140 1.327 . S
C1141 C1145 1.429 . S
C1142 C1125 1.574 . S
C1142 H1136 0.949 . S
C1142 C1146 1.368 . S
C1143 C1124 1.429 . S
C1143 C1137 1.429 . S
C1143 C1144 1.523 . S
C1144 C1125 1.368 . S
C1144 C1138 1.368 . S
C1144 C1143 1.523 . S
C1145 C1129 1.429 . S
C1145 C1141 1.429 . S
C1145 C1146 1.523 . S
C1146 C1130 1.368 . S
C1146 C1142 1.368 . S
C1146 C1145 1.523 . S
H1147 C1122 0.950 . S
H1148 C1124 0.950 . S
H1149 C1125 0.949 . S
H1150 C1127 0.950 . S
H1151 C1129 0.950 . S
C1152 C1153 1.349 . S
C1152 C1154 1.327 . S
C1152 H1177 0.950 . S
C1153 C1152 1.349 . S
C1153 C1169 1.349 . S
C1154 C1152 1.327 . S
C1154 C1173 1.429 . S
C1154 H1178 0.950 . S
C1155 C1172 1.574 . S
C1155 C1174 1.368 . S
C1155 H1179 0.949 . S
H1156 C1160 0.949 . S
C1157 C1158 1.349 . S
C1157 C1159 1.327 . S
C1157 H1180 0.950 . S
C1158 C1157 1.349 . S
C1158 C1170 1.349 . S
C1159 C1157 1.327 . S
C1159 C1175 1.429 . S
C1159 H1181 0.950 . S
C1160 H1156 0.949 . S
C1160 C1168 1.574 . S
C1160 C1176 1.368 . S
H1161 C1169 0.950 . S
H1162 C1167 0.950 . S
H1163 C1168 0.949 . S
H1164 C1170 0.950 . S
H1165 C1171 0.950 . S
H1166 C1172 0.949 . S
C1167 H1162 0.950 . S
C1167 C1169 1.327 . S
C1167 C1173 1.429 . S
C1168 C1160 1.574 . S
C1168 H1163 0.949 . S
C1168 C1174 1.368 . S
C1169 C1153 1.349 . S
C1169 H1161 0.950 . S
C1169 C1167 1.327 . S
C1170 C1158 1.349 . S
C1170 H1164 0.950 . S
C1170 C1171 1.327 . S
C1171 H1165 0.950 . S
C1171 C1170 1.327 . S
C1171 C1175 1.429 . S
C1172 C1155 1.574 . S
C1172 H1166 0.949 . S
C1172 C1176 1.368 . S
C1173 C1154 1.429 . S
C1173 C1167 1.429 . S
C1173 C1174 1.523 . S
C1174 C1155 1.368 . S
C1174 C1168 1.368 . S
C1174 C1173 1.523 . S
C1175 C1159 1.429 . S
C1175 C1171 1.429 . S
C1175 C1176 1.523 . S
C1176 C1160 1.368 . S
C1176 C1172 1.368 . S
C1176 C1175 1.523 . S
H1177 C1152 0.950 . S
H1178 C1154 0.950 . S
H1179 C1155 0.949 . S
H1180 C1157 0.950 . S
H1181 C1159 0.950 . S
C1182 C1183 1.349 . S
C1182 C1184 1.327 . S
C1182 H1207 0.950 . S
C1183 C1182 1.349 . S
C1183 C1199 1.349 . S
C1184 C1182 1.327 . S
C1184 C1203 1.429 . S
C1184 H1208 0.950 . S
C1185 C1202 1.574 . S
C1185 C1204 1.368 . S
C1185 H1209 0.949 . S
H1186 C1190 0.949 . S
C1187 C1188 1.349 . S
C1187 C1189 1.327 . S
C1187 H1210 0.950 . S
C1188 C1187 1.349 . S
C1188 C1200 1.349 . S
C1189 C1187 1.327 . S
C1189 C1205 1.429 . S
C1189 H1211 0.950 . S
C1190 H1186 0.949 . S
C1190 C1198 1.574 . S
C1190 C1206 1.368 . S
H1191 C1199 0.950 . S
H1192 C1197 0.950 . S
H1193 C1198 0.949 . S
H1194 C1200 0.950 . S
H1195 C1201 0.950 . S
H1196 C1202 0.949 . S
C1197 H1192 0.950 . S
C1197 C1199 1.327 . S
C1197 C1203 1.429 . S
C1198 C1190 1.574 . S
C1198 H1193 0.949 . S
C1198 C1204 1.368 . S
C1199 C1183 1.349 . S
C1199 H1191 0.950 . S
C1199 C1197 1.327 . S
C1200 C1188 1.349 . S
C1200 H1194 0.950 . S
C1200 C1201 1.327 . S
C1201 H1195 0.950 . S
C1201 C1200 1.327 . S
C1201 C1205 1.429 . S
C1202 C1185 1.574 . S
C1202 H1196 0.949 . S
C1202 C1206 1.368 . S
C1203 C1184 1.429 . S
C1203 C1197 1.429 . S
C1203 C1204 1.523 . S
C1204 C1185 1.368 . S
C1204 C1198 1.368 . S
C1204 C1203 1.523 . S
C1205 C1189 1.429 . S
C1205 C1201 1.429 . S
C1205 C1206 1.523 . S
C1206 C1190 1.368 . S
C1206 C1202 1.368 . S
C1206 C1205 1.523 . S
H1207 C1182 0.950 . S
H1208 C1184 0.950 . S
H1209 C1185 0.949 . S
H1210 C1187 0.950 . S
H1211 C1189 0.950 . S
C1212 C1213 1.349 . S
C1212 C1214 1.327 . S
C1212 H1237 0.950 . S
C1213 C1212 1.349 . S
C1213 C1229 1.349 . S
C1214 C1212 1.327 . S
C1214 C1233 1.429 . S
C1214 H1238 0.950 . S
C1215 C1232 1.574 . S
C1215 C1234 1.368 . S
C1215 H1239 0.949 . S
H1216 C1220 0.949 . S
C1217 C1218 1.349 . S
C1217 C1219 1.327 . S
C1217 H1240 0.950 . S
C1218 C1217 1.349 . S
C1218 C1230 1.349 . S
C1219 C1217 1.327 . S
C1219 C1235 1.429 . S
C1219 H1241 0.950 . S
C1220 H1216 0.949 . S
C1220 C1228 1.574 . S
C1220 C1236 1.368 . S
H1221 C1229 0.950 . S
H1222 C1227 0.950 . S
H1223 C1228 0.949 . S
H1224 C1230 0.950 . S
H1225 C1231 0.950 . S
H1226 C1232 0.949 . S
C1227 H1222 0.950 . S
C1227 C1229 1.327 . S
C1227 C1233 1.429 . S
C1228 C1220 1.574 . S
C1228 H1223 0.949 . S
C1228 C1234 1.368 . S
C1229 C1213 1.349 . S
C1229 H1221 0.950 . S
C1229 C1227 1.327 . S
C1230 C1218 1.349 . S
C1230 H1224 0.950 . S
C1230 C1231 1.327 . S
C1231 H1225 0.950 . S
C1231 C1230 1.327 . S
C1231 C1235 1.429 . S
C1232 C1215 1.574 . S
C1232 H1226 0.949 . S
C1232 C1236 1.368 . S
C1233 C1214 1.429 . S
C1233 C1227 1.429 . S
C1233 C1234 1.523 . S
C1234 C1215 1.368 . S
C1234 C1228 1.368 . S
C1234 C1233 1.523 . S
C1235 C1219 1.429 . S
C1235 C1231 1.429 . S
C1235 C1236 1.523 . S
C1236 C1220 1.368 . S
C1236 C1232 1.368 . S
C1236 C1235 1.523 . S
H1237 C1212 0.950 . S
H1238 C1214 0.950 . S
H1239 C1215 0.949 . S
H1240 C1217 0.950 . S
H1241 C1219 0.950 . S
C1242 C1243 1.349 . S
C1242 C1244 1.327 . S
C1242 H1267 0.950 . S
C1243 C1242 1.349 . S
C1243 C1259 1.349 . S
C1244 C1242 1.327 . S
C1244 C1263 1.429 . S
C1244 H1268 0.950 . S
C1245 C1262 1.574 . S
C1245 C1264 1.368 . S
C1245 H1269 0.949 . S
H1246 C1250 0.949 . S
C1247 C1248 1.349 . S
C1247 C1249 1.327 . S
C1247 H1270 0.950 . S
C1248 C1247 1.349 . S
C1248 C1260 1.349 . S
C1249 C1247 1.327 . S
C1249 C1265 1.429 . S
C1249 H1271 0.950 . S
C1250 H1246 0.949 . S
C1250 C1258 1.574 . S
C1250 C1266 1.368 . S
H1251 C1259 0.950 . S
H1252 C1257 0.950 . S
H1253 C1258 0.949 . S
H1254 C1260 0.950 . S
H1255 C1261 0.950 . S
H1256 C1262 0.949 . S
C1257 H1252 0.950 . S
C1257 C1259 1.327 . S
C1257 C1263 1.429 . S
C1258 C1250 1.574 . S
C1258 H1253 0.949 . S
C1258 C1264 1.368 . S
C1259 C1243 1.349 . S
C1259 H1251 0.950 . S
C1259 C1257 1.327 . S
C1260 C1248 1.349 . S
C1260 H1254 0.950 . S
C1260 C1261 1.327 . S
C1261 H1255 0.950 . S
C1261 C1260 1.327 . S
C1261 C1265 1.429 . S
C1262 C1245 1.574 . S
C1262 H1256 0.949 . S
C1262 C1266 1.368 . S
C1263 C1244 1.429 . S
C1263 C1257 1.429 . S
C1263 C1264 1.523 . S
C1264 C1245 1.368 . S
C1264 C1258 1.368 . S
C1264 C1263 1.523 . S
C1265 C1249 1.429 . S
C1265 C1261 1.429 . S
C1265 C1266 1.523 . S
C1266 C1250 1.368 . S
C1266 C1262 1.368 . S
C1266 C1265 1.523 . S
H1267 C1242 0.950 . S
H1268 C1244 0.950 . S
H1269 C1245 0.949 . S
H1270 C1247 0.950 . S
H1271 C1249 0.950 . S
C1272 C1273 1.349 . S
C1272 C1274 1.327 . S
C1272 H1297 0.950 . S
C1273 C1272 1.349 . S
C1273 C1289 1.349 . S
C1274 C1272 1.327 . S
C1274 C1293 1.429 . S
C1274 H1298 0.950 . S
C1275 C1292 1.574 . S
C1275 C1294 1.368 . S
C1275 H1299 0.949 . S
H1276 C1280 0.949 . S
C1277 C1278 1.349 . S
C1277 C1279 1.327 . S
C1277 H1300 0.950 . S
C1278 C1277 1.349 . S
C1278 C1290 1.349 . S
C1279 C1277 1.327 . S
C1279 C1295 1.429 . S
C1279 H1301 0.950 . S
C1280 H1276 0.949 . S
C1280 C1288 1.574 . S
C1280 C1296 1.368 . S
H1281 C1289 0.950 . S
H1282 C1287 0.950 . S
H1283 C1288 0.949 . S
H1284 C1290 0.950 . S
H1285 C1291 0.950 . S
H1286 C1292 0.949 . S
C1287 H1282 0.950 . S
C1287 C1289 1.327 . S
C1287 C1293 1.429 . S
C1288 C1280 1.574 . S
C1288 H1283 0.949 . S
C1288 C1294 1.368 . S
C1289 C1273 1.349 . S
C1289 H1281 0.950 . S
C1289 C1287 1.327 . S
C1290 C1278 1.349 . S
C1290 H1284 0.950 . S
C1290 C1291 1.327 . S
C1291 H1285 0.950 . S
C1291 C1290 1.327 . S
C1291 C1295 1.429 . S
C1292 C1275 1.574 . S
C1292 H1286 0.949 . S
C1292 C1296 1.368 . S
C1293 C1274 1.429 . S
C1293 C1287 1.429 . S
C1293 C1294 1.523 . S
C1294 C1275 1.368 . S
C1294 C1288 1.368 . S
C1294 C1293 1.523 . S
C1295 C1279 1.429 . S
C1295 C1291 1.429 . S
C1295 C1296 1.523 . S
C1296 C1280 1.368 . S
C1296 C1292 1.368 . S
C1296 C1295 1.523 . S
H1297 C1272 0.950 . S
H1298 C1274 0.950 . S
H1299 C1275 0.949 . S
H1300 C1277 0.950 . S
H1301 C1279 0.950 . S
C1302 C1303 1.349 . S
C1302 C1304 1.327 . S
C1302 H1327 0.950 . S
C1303 C1302 1.349 . S
C1303 C1319 1.349 . S
C1304 C1302 1.327 . S
C1304 C1323 1.429 . S
C1304 H1328 0.950 . S
C1305 C1322 1.574 . S
C1305 C1324 1.368 . S
C1305 H1329 0.949 . S
H1306 C1310 0.949 . S
C1307 C1308 1.349 . S
C1307 C1309 1.327 . S
C1307 H1330 0.950 . S
C1308 C1307 1.349 . S
C1308 C1320 1.349 . S
C1309 C1307 1.327 . S
C1309 C1325 1.429 . S
C1309 H1331 0.950 . S
C1310 H1306 0.949 . S
C1310 C1318 1.574 . S
C1310 C1326 1.368 . S
H1311 C1319 0.950 . S
H1312 C1317 0.950 . S
H1313 C1318 0.949 . S
H1314 C1320 0.950 . S
H1315 C1321 0.950 . S
H1316 C1322 0.949 . S
C1317 H1312 0.950 . S
C1317 C1319 1.327 . S
C1317 C1323 1.429 . S
C1318 C1310 1.574 . S
C1318 H1313 0.949 . S
C1318 C1324 1.368 . S
C1319 C1303 1.349 . S
C1319 H1311 0.950 . S
C1319 C1317 1.327 . S
C1320 C1308 1.349 . S
C1320 H1314 0.950 . S
C1320 C1321 1.327 . S
C1321 H1315 0.950 . S
C1321 C1320 1.327 . S
C1321 C1325 1.429 . S
C1322 C1305 1.574 . S
C1322 H1316 0.949 . S
C1322 C1326 1.368 . S
C1323 C1304 1.429 . S
C1323 C1317 1.429 . S
C1323 C1324 1.523 . S
C1324 C1305 1.368 . S
C1324 C1318 1.368 . S
C1324 C1323 1.523 . S
C1325 C1309 1.429 . S
C1325 C1321 1.429 . S
C1325 C1326 1.523 . S
C1326 C1310 1.368 . S
C1326 C1322 1.368 . S
C1326 C1325 1.523 . S
H1327 C1302 0.950 . S
H1328 C1304 0.950 . S
H1329 C1305 0.949 . S
H1330 C1307 0.950 . S
H1331 C1309 0.950 . S
C1332 C1333 1.349 . S
C1332 C1334 1.327 . S
C1332 H1357 0.950 . S
C1333 C1332 1.349 . S
C1333 C1349 1.349 . S
C1334 C1332 1.327 . S
C1334 C1353 1.429 . S
C1334 H1358 0.950 . S
C1335 C1352 1.574 . S
C1335 C1354 1.368 . S
C1335 H1359 0.949 . S
H1336 C1340 0.949 . S
C1337 C1338 1.349 . S
C1337 C1339 1.327 . S
C1337 H1360 0.950 . S
C1338 C1337 1.349 . S
C1338 C1350 1.349 . S
C1339 C1337 1.327 . S
C1339 C1355 1.429 . S
C1339 H1361 0.950 . S
C1340 H1336 0.949 . S
C1340 C1348 1.574 . S
C1340 C1356 1.368 . S
H1341 C1349 0.950 . S
H1342 C1347 0.950 . S
H1343 C1348 0.949 . S
H1344 C1350 0.950 . S
H1345 C1351 0.950 . S
H1346 C1352 0.949 . S
C1347 H1342 0.950 . S
C1347 C1349 1.327 . S
C1347 C1353 1.429 . S
C1348 C1340 1.574 . S
C1348 H1343 0.949 . S
C1348 C1354 1.368 . S
C1349 C1333 1.349 . S
C1349 H1341 0.950 . S
C1349 C1347 1.327 . S
C1350 C1338 1.349 . S
C1350 H1344 0.950 . S
C1350 C1351 1.327 . S
C1351 H1345 0.950 . S
C1351 C1350 1.327 . S
C1351 C1355 1.429 . S
C1352 C1335 1.574 . S
C1352 H1346 0.949 . S
C1352 C1356 1.368 . S
C1353 C1334 1.429 . S
C1353 C1347 1.429 . S
C1353 C1354 1.523 . S
C1354 C1335 1.368 . S
C1354 C1348 1.368 . S
C1354 C1353 1.523 . S
C1355 C1339 1.429 . S
C1355 C1351 1.429 . S
C1355 C1356 1.523 . S
C1356 C1340 1.368 . S
C1356 C1352 1.368 . S
C1356 C1355 1.523 . S
H1357 C1332 0.950 . S
H1358 C1334 0.950 . S
H1359 C1335 0.949 . S
H1360 C1337 0.950 . S
H1361 C1339 0.950 . S
C1362 C1363 1.349 . S
C1362 C1364 1.327 . S
C1362 H1387 0.950 . S
C1363 C1362 1.349 . S
C1363 C1379 1.349 . S
C1364 C1362 1.327 . S
C1364 C1383 1.429 . S
C1364 H1388 0.950 . S
C1365 C1382 1.574 . S
C1365 C1384 1.368 . S
C1365 H1389 0.949 . S
H1366 C1370 0.949 . S
C1367 C1368 1.349 . S
C1367 C1369 1.327 . S
C1367 H1390 0.950 . S
C1368 C1367 1.349 . S
C1368 C1380 1.349 . S
C1369 C1367 1.327 . S
C1369 C1385 1.429 . S
C1369 H1391 0.950 . S
C1370 H1366 0.949 . S
C1370 C1378 1.574 . S
C1370 C1386 1.368 . S
H1371 C1379 0.950 . S
H1372 C1377 0.950 . S
H1373 C1378 0.949 . S
H1374 C1380 0.950 . S
H1375 C1381 0.950 . S
H1376 C1382 0.949 . S
C1377 H1372 0.950 . S
C1377 C1379 1.327 . S
C1377 C1383 1.429 . S
C1378 C1370 1.574 . S
C1378 H1373 0.949 . S
C1378 C1384 1.368 . S
C1379 C1363 1.349 . S
C1379 H1371 0.950 . S
C1379 C1377 1.327 . S
C1380 C1368 1.349 . S
C1380 H1374 0.950 . S
C1380 C1381 1.327 . S
C1381 H1375 0.950 . S
C1381 C1380 1.327 . S
C1381 C1385 1.429 . S
C1382 C1365 1.574 . S
C1382 H1376 0.949 . S
C1382 C1386 1.368 . S
C1383 C1364 1.429 . S
C1383 C1377 1.429 . S
C1383 C1384 1.523 . S
C1384 C1365 1.368 . S
C1384 C1378 1.368 . S
C1384 C1383 1.523 . S
C1385 C1369 1.429 . S
C1385 C1381 1.429 . S
C1385 C1386 1.523 . S
C1386 C1370 1.368 . S
C1386 C1382 1.368 . S
C1386 C1385 1.523 . S
H1387 C1362 0.950 . S
H1388 C1364 0.950 . S
H1389 C1365 0.949 . S
H1390 C1367 0.950 . S
H1391 C1369 0.950 . S
C1392 C1393 1.349 . S
C1392 C1394 1.327 . S
C1392 H1417 0.950 . S
C1393 C1392 1.349 . S
C1393 C1409 1.349 . S
C1394 C1392 1.327 . S
C1394 C1413 1.429 . S
C1394 H1418 0.950 . S
C1395 C1412 1.574 . S
C1395 C1414 1.368 . S
C1395 H1419 0.949 . S
H1396 C1400 0.949 . S
C1397 C1398 1.349 . S
C1397 C1399 1.327 . S
C1397 H1420 0.950 . S
C1398 C1397 1.349 . S
C1398 C1410 1.349 . S
C1399 C1397 1.327 . S
C1399 C1415 1.429 . S
C1399 H1421 0.950 . S
C1400 H1396 0.949 . S
C1400 C1408 1.574 . S
C1400 C1416 1.368 . S
H1401 C1409 0.950 . S
H1402 C1407 0.950 . S
H1403 C1408 0.949 . S
H1404 C1410 0.950 . S
H1405 C1411 0.950 . S
H1406 C1412 0.949 . S
C1407 H1402 0.950 . S
C1407 C1409 1.327 . S
C1407 C1413 1.429 . S
C1408 C1400 1.574 . S
C1408 H1403 0.949 . S
C1408 C1414 1.368 . S
C1409 C1393 1.349 . S
C1409 H1401 0.950 . S
C1409 C1407 1.327 . S
C1410 C1398 1.349 . S
C1410 H1404 0.950 . S
C1410 C1411 1.327 . S
C1411 H1405 0.950 . S
C1411 C1410 1.327 . S
C1411 C1415 1.429 . S
C1412 C1395 1.574 . S
C1412 H1406 0.949 . S
C1412 C1416 1.368 . S
C1413 C1394 1.429 . S
C1413 C1407 1.429 . S
C1413 C1414 1.523 . S
C1414 C1395 1.368 . S
C1414 C1408 1.368 . S
C1414 C1413 1.523 . S
C1415 C1399 1.429 . S
C1415 C1411 1.429 . S
C1415 C1416 1.523 . S
C1416 C1400 1.368 . S
C1416 C1412 1.368 . S
C1416 C1415 1.523 . S
H1417 C1392 0.950 . S
H1418 C1394 0.950 . S
H1419 C1395 0.949 . S
H1420 C1397 0.950 . S
H1421 C1399 0.950 . S
C1422 C1423 1.349 . S
C1422 C1424 1.327 . S
C1422 H1447 0.950 . S
C1423 C1422 1.349 . S
C1423 C1439 1.349 . S
C1424 C1422 1.327 . S
C1424 C1443 1.429 . S
C1424 H1448 0.950 . S
C1425 C1442 1.574 . S
C1425 C1444 1.368 . S
C1425 H1449 0.949 . S
H1426 C1430 0.949 . S
C1427 C1428 1.349 . S
C1427 C1429 1.327 . S
C1427 H1450 0.950 . S
C1428 C1427 1.349 . S
C1428 C1440 1.349 . S
C1429 C1427 1.327 . S
C1429 C1445 1.429 . S
C1429 H1451 0.950 . S
C1430 H1426 0.949 . S
C1430 C1438 1.574 . S
C1430 C1446 1.368 . S
H1431 C1439 0.950 . S
H1432 C1437 0.950 . S
H1433 C1438 0.949 . S
H1434 C1440 0.950 . S
H1435 C1441 0.950 . S
H1436 C1442 0.949 . S
C1437 H1432 0.950 . S
C1437 C1439 1.327 . S
C1437 C1443 1.429 . S
C1438 C1430 1.574 . S
C1438 H1433 0.949 . S
C1438 C1444 1.368 . S
C1439 C1423 1.349 . S
C1439 H1431 0.950 . S
C1439 C1437 1.327 . S
C1440 C1428 1.349 . S
C1440 H1434 0.950 . S
C1440 C1441 1.327 . S
C1441 H1435 0.950 . S
C1441 C1440 1.327 . S
C1441 C1445 1.429 . S
C1442 C1425 1.574 . S
C1442 H1436 0.949 . S
C1442 C1446 1.368 . S
C1443 C1424 1.429 . S
C1443 C1437 1.429 . S
C1443 C1444 1.523 . S
C1444 C1425 1.368 . S
C1444 C1438 1.368 . S
C1444 C1443 1.523 . S
C1445 C1429 1.429 . S
C1445 C1441 1.429 . S
C1445 C1446 1.523 . S
C1446 C1430 1.368 . S
C1446 C1442 1.368 . S
C1446 C1445 1.523 . S
H1447 C1422 0.950 . S
H1448 C1424 0.950 . S
H1449 C1425 0.949 . S
H1450 C1427 0.950 . S
H1451 C1429 0.950 . S
C1452 C1453 1.349 . S
C1452 C1454 1.327 . S
C1452 H1477 0.950 . S
C1453 C1452 1.349 . S
C1453 C1469 1.349 . S
C1454 C1452 1.327 . S
C1454 C1473 1.429 . S
C1454 H1478 0.950 . S
C1455 C1472 1.574 . S
C1455 C1474 1.368 . S
C1455 H1479 0.949 . S
H1456 C1460 0.949 . S
C1457 C1458 1.349 . S
C1457 C1459 1.327 . S
C1457 H1480 0.950 . S
C1458 C1457 1.349 . S
C1458 C1470 1.349 . S
C1459 C1457 1.327 . S
C1459 C1475 1.429 . S
C1459 H1481 0.950 . S
C1460 H1456 0.949 . S
C1460 C1468 1.574 . S
C1460 C1476 1.368 . S
H1461 C1469 0.950 . S
H1462 C1467 0.950 . S
H1463 C1468 0.949 . S
H1464 C1470 0.950 . S
H1465 C1471 0.950 . S
H1466 C1472 0.949 . S
C1467 H1462 0.950 . S
C1467 C1469 1.327 . S
C1467 C1473 1.429 . S
C1468 C1460 1.574 . S
C1468 H1463 0.949 . S
C1468 C1474 1.368 . S
C1469 C1453 1.349 . S
C1469 H1461 0.950 . S
C1469 C1467 1.327 . S
C1470 C1458 1.349 . S
C1470 H1464 0.950 . S
C1470 C1471 1.327 . S
C1471 H1465 0.950 . S
C1471 C1470 1.327 . S
C1471 C1475 1.429 . S
C1472 C1455 1.574 . S
C1472 H1466 0.949 . S
C1472 C1476 1.368 . S
C1473 C1454 1.429 . S
C1473 C1467 1.429 . S
C1473 C1474 1.523 . S
C1474 C1455 1.368 . S
C1474 C1468 1.368 . S
C1474 C1473 1.523 . S
C1475 C1459 1.429 . S
C1475 C1471 1.429 . S
C1475 C1476 1.523 . S
C1476 C1460 1.368 . S
C1476 C1472 1.368 . S
C1476 C1475 1.523 . S
H1477 C1452 0.950 . S
H1478 C1454 0.950 . S
H1479 C1455 0.949 . S
H1480 C1457 0.950 . S
H1481 C1459 0.950 . S
C1482 C1483 1.349 . S
C1482 C1484 1.327 . S
C1482 H1507 0.950 . S
C1483 C1482 1.349 . S
C1483 C1499 1.349 . S
C1484 C1482 1.327 . S
C1484 C1503 1.429 . S
C1484 H1508 0.950 . S
C1485 C1502 1.574 . S
C1485 C1504 1.368 . S
C1485 H1509 0.949 . S
H1486 C1490 0.949 . S
C1487 C1488 1.349 . S
C1487 C1489 1.327 . S
C1487 H1510 0.950 . S
C1488 C1487 1.349 . S
C1488 C1500 1.349 . S
C1489 C1487 1.327 . S
C1489 C1505 1.429 . S
C1489 H1511 0.950 . S
C1490 H1486 0.949 . S
C1490 C1498 1.574 . S
C1490 C1506 1.368 . S
H1491 C1499 0.950 . S
H1492 C1497 0.950 . S
H1493 C1498 0.949 . S
H1494 C1500 0.950 . S
H1495 C1501 0.950 . S
H1496 C1502 0.949 . S
C1497 H1492 0.950 . S
C1497 C1499 1.327 . S
C1497 C1503 1.429 . S
C1498 C1490 1.574 . S
C1498 H1493 0.949 . S
C1498 C1504 1.368 . S
C1499 C1483 1.349 . S
C1499 H1491 0.950 . S
C1499 C1497 1.327 . S
C1500 C1488 1.349 . S
C1500 H1494 0.950 . S
C1500 C1501 1.327 . S
C1501 H1495 0.950 . S
C1501 C1500 1.327 . S
C1501 C1505 1.429 . S
C1502 C1485 1.574 . S
C1502 H1496 0.949 . S
C1502 C1506 1.368 . S
C1503 C1484 1.429 . S
C1503 C1497 1.429 . S
C1503 C1504 1.523 . S
C1504 C1485 1.368 . S
C1504 C1498 1.368 . S
C1504 C1503 1.523 . S
C1505 C1489 1.429 . S
C1505 C1501 1.429 . S
C1505 C1506 1.523 . S
C1506 C1490 1.368 . S
C1506 C1502 1.368 . S
C1506 C1505 1.523 . S
H1507 C1482 0.950 . S
H1508 C1484 0.950 . S
H1509 C1485 0.949 . S
H1510 C1487 0.950 . S
H1511 C1489 0.950 . S
C1512 C1513 1.349 . S
C1512 C1514 1.327 . S
C1512 H1537 0.950 . S
C1513 C1512 1.349 . S
C1513 C1529 1.349 . S
C1514 C1512 1.327 . S
C1514 C1533 1.429 . S
C1514 H1538 0.950 . S
C1515 C1532 1.574 . S
C1515 C1534 1.368 . S
C1515 H1539 0.949 . S
H1516 C1520 0.949 . S
C1517 C1518 1.349 . S
C1517 C1519 1.327 . S
C1517 H1540 0.950 . S
C1518 C1517 1.349 . S
C1518 C1530 1.349 . S
C1519 C1517 1.327 . S
C1519 C1535 1.429 . S
C1519 H1541 0.950 . S
C1520 H1516 0.949 . S
C1520 C1528 1.574 . S
C1520 C1536 1.368 . S
H1521 C1529 0.950 . S
H1522 C1527 0.950 . S
H1523 C1528 0.949 . S
H1524 C1530 0.950 . S
H1525 C1531 0.950 . S
H1526 C1532 0.949 . S
C1527 H1522 0.950 . S
C1527 C1529 1.327 . S
C1527 C1533 1.429 . S
C1528 C1520 1.574 . S
C1528 H1523 0.949 . S
C1528 C1534 1.368 . S
C1529 C1513 1.349 . S
C1529 H1521 0.950 . S
C1529 C1527 1.327 . S
C1530 C1518 1.349 . S
C1530 H1524 0.950 . S
C1530 C1531 1.327 . S
C1531 H1525 0.950 . S
C1531 C1530 1.327 . S
C1531 C1535 1.429 . S
C1532 C1515 1.574 . S
C1532 H1526 0.949 . S
C1532 C1536 1.368 . S
C1533 C1514 1.429 . S
C1533 C1527 1.429 . S
C1533 C1534 1.523 . S
C1534 C1515 1.368 . S
C1534 C1528 1.368 . S
C1534 C1533 1.523 . S
C1535 C1519 1.429 . S
C1535 C1531 1.429 . S
C1535 C1536 1.523 . S
C1536 C1520 1.368 . S
C1536 C1532 1.368 . S
C1536 C1535 1.523 . S
H1537 C1512 0.950 . S
H1538 C1514 0.950 . S
H1539 C1515 0.949 . S
H1540 C1517 0.950 . S
H1541 C1519 0.950 . S
C1542 C1543 1.349 . S
C1542 C1544 1.327 . S
C1542 H1567 0.950 . S
C1543 C1542 1.349 . S
C1543 C1559 1.349 . S
C1544 C1542 1.327 . S
C1544 C1563 1.429 . S
C1544 H1568 0.950 . S
C1545 C1562 1.574 . S
C1545 C1564 1.368 . S
C1545 H1569 0.949 . S
H1546 C1550 0.949 . S
C1547 C1548 1.349 . S
C1547 C1549 1.327 . S
C1547 H1570 0.950 . S
C1548 C1547 1.349 . S
C1548 C1560 1.349 . S
C1549 C1547 1.327 . S
C1549 C1565 1.429 . S
C1549 H1571 0.950 . S
C1550 H1546 0.949 . S
C1550 C1558 1.574 . S
C1550 C1566 1.368 . S
H1551 C1559 0.950 . S
H1552 C1557 0.950 . S
H1553 C1558 0.949 . S
H1554 C1560 0.950 . S
H1555 C1561 0.950 . S
H1556 C1562 0.949 . S
C1557 H1552 0.950 . S
C1557 C1559 1.327 . S
C1557 C1563 1.429 . S
C1558 C1550 1.574 . S
C1558 H1553 0.949 . S
C1558 C1564 1.368 . S
C1559 C1543 1.349 . S
C1559 H1551 0.950 . S
C1559 C1557 1.327 . S
C1560 C1548 1.349 . S
C1560 H1554 0.950 . S
C1560 C1561 1.327 . S
C1561 H1555 0.950 . S
C1561 C1560 1.327 . S
C1561 C1565 1.429 . S
C1562 C1545 1.574 . S
C1562 H1556 0.949 . S
C1562 C1566 1.368 . S
C1563 C1544 1.429 . S
C1563 C1557 1.429 . S
C1563 C1564 1.523 . S
C1564 C1545 1.368 . S
C1564 C1558 1.368 . S
C1564 C1563 1.523 . S
C1565 C1549 1.429 . S
C1565 C1561 1.429 . S
C1565 C1566 1.523 . S
C1566 C1550 1.368 . S
C1566 C1562 1.368 . S
C1566 C1565 1.523 . S
H1567 C1542 0.950 . S
H1568 C1544 0.950 . S
H1569 C1545 0.949 . S
H1570 C1547 0.950 . S
H1571 C1549 0.950 . S
C1572 C1573 1.349 . S
C1572 C1574 1.327 . S
C1572 H1597 0.950 . S
C1573 C1572 1.349 . S
C1573 C1589 1.349 . S
C1574 C1572 1.327 . S
C1574 C1593 1.429 . S
C1574 H1598 0.950 . S
C1575 C1592 1.574 . S
C1575 C1594 1.368 . S
C1575 H1599 0.949 . S
H1576 C1580 0.949 . S
C1577 C1578 1.349 . S
C1577 C1579 1.327 . S
C1577 H1600 0.950 . S
C1578 C1577 1.349 . S
C1578 C1590 1.349 . S
C1579 C1577 1.327 . S
C1579 C1595 1.429 . S
C1579 H1601 0.950 . S
C1580 H1576 0.949 . S
C1580 C1588 1.574 . S
C1580 C1596 1.368 . S
H1581 C1589 0.950 . S
H1582 C1587 0.950 . S
H1583 C1588 0.949 . S
H1584 C1590 0.950 . S
H1585 C1591 0.950 . S
H1586 C1592 0.949 . S
C1587 H1582 0.950 . S
C1587 C1589 1.327 . S
C1587 C1593 1.429 . S
C1588 C1580 1.574 . S
C1588 H1583 0.949 . S
C1588 C1594 1.368 . S
C1589 C1573 1.349 . S
C1589 H1581 0.950 . S
C1589 C1587 1.327 . S
C1590 C1578 1.349 . S
C1590 H1584 0.950 . S
C1590 C1591 1.327 . S
C1591 H1585 0.950 . S
C1591 C1590 1.327 . S
C1591 C1595 1.429 . S
C1592 C1575 1.574 . S
C1592 H1586 0.949 . S
C1592 C1596 1.368 . S
C1593 C1574 1.429 . S
C1593 C1587 1.429 . S
C1593 C1594 1.523 . S
C1594 C1575 1.368 . S
C1594 C1588 1.368 . S
C1594 C1593 1.523 . S
C1595 C1579 1.429 . S
C1595 C1591 1.429 . S
C1595 C1596 1.523 . S
C1596 C1580 1.368 . S
C1596 C1592 1.368 . S
C1596 C1595 1.523 . S
H1597 C1572 0.950 . S
H1598 C1574 0.950 . S
H1599 C1575 0.949 . S
H1600 C1577 0.950 . S
H1601 C1579 0.950 . S
C1602 C1603 1.349 . S
C1602 C1604 1.327 . S
C1602 H1627 0.950 . S
C1603 C1602 1.349 . S
C1603 C1619 1.349 . S
C1604 C1602 1.327 . S
C1604 C1623 1.429 . S
C1604 H1628 0.950 . S
C1605 C1622 1.574 . S
C1605 C1624 1.368 . S
C1605 H1629 0.949 . S
H1606 C1610 0.949 . S
C1607 C1608 1.349 . S
C1607 C1609 1.327 . S
C1607 H1630 0.950 . S
C1608 C1607 1.349 . S
C1608 C1620 1.349 . S
C1609 C1607 1.327 . S
C1609 C1625 1.429 . S
C1609 H1631 0.950 . S
C1610 H1606 0.949 . S
C1610 C1618 1.574 . S
C1610 C1626 1.368 . S
H1611 C1619 0.950 . S
H1612 C1617 0.950 . S
H1613 C1618 0.949 . S
H1614 C1620 0.950 . S
H1615 C1621 0.950 . S
H1616 C1622 0.949 . S
C1617 H1612 0.950 . S
C1617 C1619 1.327 . S
C1617 C1623 1.429 . S
C1618 C1610 1.574 . S
C1618 H1613 0.949 . S
C1618 C1624 1.368 . S
C1619 C1603 1.349 . S
C1619 H1611 0.950 . S
C1619 C1617 1.327 . S
C1620 C1608 1.349 . S
C1620 H1614 0.950 . S
C1620 C1621 1.327 . S
C1621 H1615 0.950 . S
C1621 C1620 1.327 . S
C1621 C1625 1.429 . S
C1622 C1605 1.574 . S
C1622 H1616 0.949 . S
C1622 C1626 1.368 . S
C1623 C1604 1.429 . S
C1623 C1617 1.429 . S
C1623 C1624 1.523 . S
C1624 C1605 1.368 . S
C1624 C1618 1.368 . S
C1624 C1623 1.523 . S
C1625 C1609 1.429 . S
C1625 C1621 1.429 . S
C1625 C1626 1.523 . S
C1626 C1610 1.368 . S
C1626 C1622 1.368 . S
C1626 C1625 1.523 . S
H1627 C1602 0.950 . S
H1628 C1604 0.950 . S
H1629 C1605 0.949 . S
H1630 C1607 0.950 . S
H1631 C1609 0.950 . S
C1632 C1633 1.349 . S
C1632 C1634 1.327 . S
C1632 H1657 0.950 . S
C1633 C1632 1.349 . S
C1633 C1649 1.349 . S
C1634 C1632 1.327 . S
C1634 C1653 1.429 . S
C1634 H1658 0.950 . S
C1635 C1652 1.574 . S
C1635 C1654 1.368 . S
C1635 H1659 0.949 . S
H1636 C1640 0.949 . S
C1637 C1638 1.349 . S
C1637 C1639 1.327 . S
C1637 H1660 0.950 . S
C1638 C1637 1.349 . S
C1638 C1650 1.349 . S
C1639 C1637 1.327 . S
C1639 C1655 1.429 . S
C1639 H1661 0.950 . S
C1640 H1636 0.949 . S
C1640 C1648 1.574 . S
C1640 C1656 1.368 . S
H1641 C1649 0.950 . S
H1642 C1647 0.950 . S
H1643 C1648 0.949 . S
H1644 C1650 0.950 . S
H1645 C1651 0.950 . S
H1646 C1652 0.949 . S
C1647 H1642 0.950 . S
C1647 C1649 1.327 . S
C1647 C1653 1.429 . S
C1648 C1640 1.574 . S
C1648 H1643 0.949 . S
C1648 C1654 1.368 . S
C1649 C1633 1.349 . S
C1649 H1641 0.950 . S
C1649 C1647 1.327 . S
C1650 C1638 1.349 . S
C1650 H1644 0.950 . S
C1650 C1651 1.327 . S
C1651 H1645 0.950 . S
C1651 C1650 1.327 . S
C1651 C1655 1.429 . S
C1652 C1635 1.574 . S
C1652 H1646 0.949 . S
C1652 C1656 1.368 . S
C1653 C1634 1.429 . S
C1653 C1647 1.429 . S
C1653 C1654 1.523 . S
C1654 C1635 1.368 . S
C1654 C1648 1.368 . S
C1654 C1653 1.523 . S
C1655 C1639 1.429 . S
C1655 C1651 1.429 . S
C1655 C1656 1.523 . S
C1656 C1640 1.368 . S
C1656 C1652 1.368 . S
C1656 C1655 1.523 . S
H1657 C1632 0.950 . S
H1658 C1634 0.950 . S
H1659 C1635 0.949 . S
H1660 C1637 0.950 . S
H1661 C1639 0.950 . S
C1662 C1663 1.349 . S
C1662 C1664 1.327 . S
C1662 H1687 0.950 . S
C1663 C1662 1.349 . S
C1663 C1679 1.349 . S
C1664 C1662 1.327 . S
C1664 C1683 1.429 . S
C1664 H1688 0.950 . S
C1665 C1682 1.574 . S
C1665 C1684 1.368 . S
C1665 H1689 0.949 . S
H1666 C1670 0.949 . S
C1667 C1668 1.349 . S
C1667 C1669 1.327 . S
C1667 H1690 0.950 . S
C1668 C1667 1.349 . S
C1668 C1680 1.349 . S
C1669 C1667 1.327 . S
C1669 C1685 1.429 . S
C1669 H1691 0.950 . S
C1670 H1666 0.949 . S
C1670 C1678 1.574 . S
C1670 C1686 1.368 . S
H1671 C1679 0.950 . S
H1672 C1677 0.950 . S
H1673 C1678 0.949 . S
H1674 C1680 0.950 . S
H1675 C1681 0.950 . S
H1676 C1682 0.949 . S
C1677 H1672 0.950 . S
C1677 C1679 1.327 . S
C1677 C1683 1.429 . S
C1678 C1670 1.574 . S
C1678 H1673 0.949 . S
C1678 C1684 1.368 . S
C1679 C1663 1.349 . S
C1679 H1671 0.950 . S
C1679 C1677 1.327 . S
C1680 C1668 1.349 . S
C1680 H1674 0.950 . S
C1680 C1681 1.327 . S
C1681 H1675 0.950 . S
C1681 C1680 1.327 . S
C1681 C1685 1.429 . S
C1682 C1665 1.574 . S
C1682 H1676 0.949 . S
C1682 C1686 1.368 . S
C1683 C1664 1.429 . S
C1683 C1677 1.429 . S
C1683 C1684 1.523 . S
C1684 C1665 1.368 . S
C1684 C1678 1.368 . S
C1684 C1683 1.523 . S
C1685 C1669 1.429 . S
C1685 C1681 1.429 . S
C1685 C1686 1.523 . S
C1686 C1670 1.368 . S
C1686 C1682 1.368 . S
C1686 C1685 1.523 . S
H1687 C1662 0.950 . S
H1688 C1664 0.950 . S
H1689 C1665 0.949 . S
H1690 C1667 0.950 . S
H1691 C1669 0.950 . S
C1692 C1693 1.349 . S
C1692 C1694 1.327 . S
C1692 H1717 0.950 . S
C1693 C1692 1.349 . S
C1693 C1709 1.349 . S
C1694 C1692 1.327 . S
C1694 C1713 1.429 . S
C1694 H1718 0.950 . S
C1695 C1712 1.574 . S
C1695 C1714 1.368 . S
C1695 H1719 0.949 . S
H1696 C1700 0.949 . S
C1697 C1698 1.349 . S
C1697 C1699 1.327 . S
C1697 H1720 0.950 . S
C1698 C1697 1.349 . S
C1698 C1710 1.349 . S
C1699 C1697 1.327 . S
C1699 C1715 1.429 . S
C1699 H1721 0.950 . S
C1700 H1696 0.949 . S
C1700 C1708 1.574 . S
C1700 C1716 1.368 . S
H1701 C1709 0.950 . S
H1702 C1707 0.950 . S
H1703 C1708 0.949 . S
H1704 C1710 0.950 . S
H1705 C1711 0.950 . S
H1706 C1712 0.949 . S
C1707 H1702 0.950 . S
C1707 C1709 1.327 . S
C1707 C1713 1.429 . S
C1708 C1700 1.574 . S
C1708 H1703 0.949 . S
C1708 C1714 1.368 . S
C1709 C1693 1.349 . S
C1709 H1701 0.950 . S
C1709 C1707 1.327 . S
C1710 C1698 1.349 . S
C1710 H1704 0.950 . S
C1710 C1711 1.327 . S
C1711 H1705 0.950 . S
C1711 C1710 1.327 . S
C1711 C1715 1.429 . S
C1712 C1695 1.574 . S
C1712 H1706 0.949 . S
C1712 C1716 1.368 . S
C1713 C1694 1.429 . S
C1713 C1707 1.429 . S
C1713 C1714 1.523 . S
C1714 C1695 1.368 . S
C1714 C1708 1.368 . S
C1714 C1713 1.523 . S
C1715 C1699 1.429 . S
C1715 C1711 1.429 . S
C1715 C1716 1.523 . S
C1716 C1700 1.368 . S
C1716 C1712 1.368 . S
C1716 C1715 1.523 . S
H1717 C1692 0.950 . S
H1718 C1694 0.950 . S
H1719 C1695 0.949 . S
H1720 C1697 0.950 . S
H1721 C1699 0.950 . S
C1722 C1723 1.349 . S
C1722 C1724 1.327 . S
C1722 H1747 0.950 . S
C1723 C1722 1.349 . S
C1723 C1739 1.349 . S
C1724 C1722 1.327 . S
C1724 C1743 1.429 . S
C1724 H1748 0.950 . S
C1725 C1742 1.574 . S
C1725 C1744 1.368 . S
C1725 H1749 0.949 . S
H1726 C1730 0.949 . S
C1727 C1728 1.349 . S
C1727 C1729 1.327 . S
C1727 H1750 0.950 . S
C1728 C1727 1.349 . S
C1728 C1740 1.349 . S
C1729 C1727 1.327 . S
C1729 C1745 1.429 . S
C1729 H1751 0.950 . S
C1730 H1726 0.949 . S
C1730 C1738 1.574 . S
C1730 C1746 1.368 . S
H1731 C1739 0.950 . S
H1732 C1737 0.950 . S
H1733 C1738 0.949 . S
H1734 C1740 0.950 . S
H1735 C1741 0.950 . S
H1736 C1742 0.949 . S
C1737 H1732 0.950 . S
C1737 C1739 1.327 . S
C1737 C1743 1.429 . S
C1738 C1730 1.574 . S
C1738 H1733 0.949 . S
C1738 C1744 1.368 . S
C1739 C1723 1.349 . S
C1739 H1731 0.950 . S
C1739 C1737 1.327 . S
C1740 C1728 1.349 . S
C1740 H1734 0.950 . S
C1740 C1741 1.327 . S
C1741 H1735 0.950 . S
C1741 C1740 1.327 . S
C1741 C1745 1.429 . S
C1742 C1725 1.574 . S
C1742 H1736 0.949 . S
C1742 C1746 1.368 . S
C1743 C1724 1.429 . S
C1743 C1737 1.429 . S
C1743 C1744 1.523 . S
C1744 C1725 1.368 . S
C1744 C1738 1.368 . S
C1744 C1743 1.523 . S
C1745 C1729 1.429 . S
C1745 C1741 1.429 . S
C1745 C1746 1.523 . S
C1746 C1730 1.368 . S
C1746 C1742 1.368 . S
C1746 C1745 1.523 . S
H1747 C1722 0.950 . S
H1748 C1724 0.950 . S
H1749 C1725 0.949 . S
H1750 C1727 0.950 . S
H1751 C1729 0.950 . S
C1752 C1753 1.349 . S
C1752 C1754 1.327 . S
C1752 H1777 0.950 . S
C1753 C1752 1.349 . S
C1753 C1769 1.349 . S
C1754 C1752 1.327 . S
C1754 C1773 1.429 . S
C1754 H1778 0.950 . S
C1755 C1772 1.574 . S
C1755 C1774 1.368 . S
C1755 H1779 0.949 . S
H1756 C1760 0.949 . S
C1757 C1758 1.349 . S
C1757 C1759 1.327 . S
C1757 H1780 0.950 . S
C1758 C1757 1.349 . S
C1758 C1770 1.349 . S
C1759 C1757 1.327 . S
C1759 C1775 1.429 . S
C1759 H1781 0.950 . S
C1760 H1756 0.949 . S
C1760 C1768 1.574 . S
C1760 C1776 1.368 . S
H1761 C1769 0.950 . S
H1762 C1767 0.950 . S
H1763 C1768 0.949 . S
H1764 C1770 0.950 . S
H1765 C1771 0.950 . S
H1766 C1772 0.949 . S
C1767 H1762 0.950 . S
C1767 C1769 1.327 . S
C1767 C1773 1.429 . S
C1768 C1760 1.574 . S
C1768 H1763 0.949 . S
C1768 C1774 1.368 . S
C1769 C1753 1.349 . S
C1769 H1761 0.950 . S
C1769 C1767 1.327 . S
C1770 C1758 1.349 . S
C1770 H1764 0.950 . S
C1770 C1771 1.327 . S
C1771 H1765 0.950 . S
C1771 C1770 1.327 . S
C1771 C1775 1.429 . S
C1772 C1755 1.574 . S
C1772 H1766 0.949 . S
C1772 C1776 1.368 . S
C1773 C1754 1.429 . S
C1773 C1767 1.429 . S
C1773 C1774 1.523 . S
C1774 C1755 1.368 . S
C1774 C1768 1.368 . S
C1774 C1773 1.523 . S
C1775 C1759 1.429 . S
C1775 C1771 1.429 . S
C1775 C1776 1.523 . S
C1776 C1760 1.368 . S
C1776 C1772 1.368 . S
C1776 C1775 1.523 . S
H1777 C1752 0.950 . S
H1778 C1754 0.950 . S
H1779 C1755 0.949 . S
H1780 C1757 0.950 . S
H1781 C1759 0.950 . S
C1782 C1783 1.349 . S
C1782 C1784 1.327 . S
C1782 H1807 0.950 . S
C1783 C1782 1.349 . S
C1783 C1799 1.349 . S
C1784 C1782 1.327 . S
C1784 C1803 1.429 . S
C1784 H1808 0.950 . S
C1785 C1802 1.574 . S
C1785 C1804 1.368 . S
C1785 H1809 0.949 . S
H1786 C1790 0.949 . S
C1787 C1788 1.349 . S
C1787 C1789 1.327 . S
C1787 H1810 0.950 . S
C1788 C1787 1.349 . S
C1788 C1800 1.349 . S
C1789 C1787 1.327 . S
C1789 C1805 1.429 . S
C1789 H1811 0.950 . S
C1790 H1786 0.949 . S
C1790 C1798 1.574 . S
C1790 C1806 1.368 . S
H1791 C1799 0.950 . S
H1792 C1797 0.950 . S
H1793 C1798 0.949 . S
H1794 C1800 0.950 . S
H1795 C1801 0.950 . S
H1796 C1802 0.949 . S
C1797 H1792 0.950 . S
C1797 C1799 1.327 . S
C1797 C1803 1.429 . S
C1798 C1790 1.574 . S
C1798 H1793 0.949 . S
C1798 C1804 1.368 . S
C1799 C1783 1.349 . S
C1799 H1791 0.950 . S
C1799 C1797 1.327 . S
C1800 C1788 1.349 . S
C1800 H1794 0.950 . S
C1800 C1801 1.327 . S
C1801 H1795 0.950 . S
C1801 C1800 1.327 . S
C1801 C1805 1.429 . S
C1802 C1785 1.574 . S
C1802 H1796 0.949 . S
C1802 C1806 1.368 . S
C1803 C1784 1.429 . S
C1803 C1797 1.429 . S
C1803 C1804 1.523 . S
C1804 C1785 1.368 . S
C1804 C1798 1.368 . S
C1804 C1803 1.523 . S
C1805 C1789 1.429 . S
C1805 C1801 1.429 . S
C1805 C1806 1.523 . S
C1806 C1790 1.368 . S
C1806 C1802 1.368 . S
C1806 C1805 1.523 . S
H1807 C1782 0.950 . S
H1808 C1784 0.950 . S
H1809 C1785 0.949 . S
H1810 C1787 0.950 . S
H1811 C1789 0.950 . S
C1812 C1813 1.349 . S
C1812 C1814 1.327 . S
C1812 H1837 0.950 . S
C1813 C1812 1.349 . S
C1813 C1829 1.349 . S
C1814 C1812 1.327 . S
C1814 C1833 1.429 . S
C1814 H1838 0.950 . S
C1815 C1832 1.574 . S
C1815 C1834 1.368 . S
C1815 H1839 0.949 . S
H1816 C1820 0.949 . S
C1817 C1818 1.349 . S
C1817 C1819 1.327 . S
C1817 H1840 0.950 . S
C1818 C1817 1.349 . S
C1818 C1830 1.349 . S
C1819 C1817 1.327 . S
C1819 C1835 1.429 . S
C1819 H1841 0.950 . S
C1820 H1816 0.949 . S
C1820 C1828 1.574 . S
C1820 C1836 1.368 . S
H1821 C1829 0.950 . S
H1822 C1827 0.950 . S
H1823 C1828 0.949 . S
H1824 C1830 0.950 . S
H1825 C1831 0.950 . S
H1826 C1832 0.949 . S
C1827 H1822 0.950 . S
C1827 C1829 1.327 . S
C1827 C1833 1.429 . S
C1828 C1820 1.574 . S
C1828 H1823 0.949 . S
C1828 C1834 1.368 . S
C1829 C1813 1.349 . S
C1829 H1821 0.950 . S
C1829 C1827 1.327 . S
C1830 C1818 1.349 . S
C1830 H1824 0.950 . S
C1830 C1831 1.327 . S
C1831 H1825 0.950 . S
C1831 C1830 1.327 . S
C1831 C1835 1.429 . S
C1832 C1815 1.574 . S
C1832 H1826 0.949 . S
C1832 C1836 1.368 . S
C1833 C1814 1.429 . S
C1833 C1827 1.429 . S
C1833 C1834 1.523 . S
C1834 C1815 1.368 . S
C1834 C1828 1.368 . S
C1834 C1833 1.523 . S
C1835 C1819 1.429 . S
C1835 C1831 1.429 . S
C1835 C1836 1.523 . S
C1836 C1820 1.368 . S
C1836 C1832 1.368 . S
C1836 C1835 1.523 . S
H1837 C1812 0.950 . S
H1838 C1814 0.950 . S
H1839 C1815 0.949 . S
H1840 C1817 0.950 . S
H1841 C1819 0.950 . S
C1842 C1843 1.349 . S
C1842 C1844 1.327 . S
C1842 H1867 0.950 . S
C1843 C1842 1.349 . S
C1843 C1859 1.349 . S
C1844 C1842 1.327 . S
C1844 C1863 1.429 . S
C1844 H1868 0.950 . S
C1845 C1862 1.574 . S
C1845 C1864 1.368 . S
C1845 H1869 0.949 . S
H1846 C1850 0.949 . S
C1847 C1848 1.349 . S
C1847 C1849 1.327 . S
C1847 H1870 0.950 . S
C1848 C1847 1.349 . S
C1848 C1860 1.349 . S
C1849 C1847 1.327 . S
C1849 C1865 1.429 . S
C1849 H1871 0.950 . S
C1850 H1846 0.949 . S
C1850 C1858 1.574 . S
C1850 C1866 1.368 . S
H1851 C1859 0.950 . S
H1852 C1857 0.950 . S
H1853 C1858 0.949 . S
H1854 C1860 0.950 . S
H1855 C1861 0.950 . S
H1856 C1862 0.949 . S
C1857 H1852 0.950 . S
C1857 C1859 1.327 . S
C1857 C1863 1.429 . S
C1858 C1850 1.574 . S
C1858 H1853 0.949 . S
C1858 C1864 1.368 . S
C1859 C1843 1.349 . S
C1859 H1851 0.950 . S
C1859 C1857 1.327 . S
C1860 C1848 1.349 . S
C1860 H1854 0.950 . S
C1860 C1861 1.327 . S
C1861 H1855 0.950 . S
C1861 C1860 1.327 . S
C1861 C1865 1.429 . S
C1862 C1845 1.574 . S
C1862 H1856 0.949 . S
C1862 C1866 1.368 . S
C1863 C1844 1.429 . S
C1863 C1857 1.429 . S
C1863 C1864 1.523 . S
C1864 C1845 1.368 . S
C1864 C1858 1.368 . S
C1864 C1863 1.523 . S
C1865 C1849 1.429 . S
C1865 C1861 1.429 . S
C1865 C1866 1.523 . S
C1866 C1850 1.368 . S
C1866 C1862 1.368 . S
C1866 C1865 1.523 . S
H1867 C1842 0.950 . S
H1868 C1844 0.950 . S
H1869 C1845 0.949 . S
H1870 C1847 0.950 . S
H1871 C1849 0.950 . S
C1872 C1873 1.349 . S
C1872 C1874 1.327 . S
C1872 H1897 0.950 . S
C1873 C1872 1.349 . S
C1873 C1889 1.349 . S
C1874 C1872 1.327 . S
C1874 C1893 1.429 . S
C1874 H1898 0.950 . S
C1875 C1892 1.574 . S
C1875 C1894 1.368 . S
C1875 H1899 0.949 . S
H1876 C1880 0.949 . S
C1877 C1878 1.349 . S
C1877 C1879 1.327 . S
C1877 H1900 0.950 . S
C1878 C1877 1.349 . S
C1878 C1890 1.349 . S
C1879 C1877 1.327 . S
C1879 C1895 1.429 . S
C1879 H1901 0.950 . S
C1880 H1876 0.949 . S
C1880 C1888 1.574 . S
C1880 C1896 1.368 . S
H1881 C1889 0.950 . S
H1882 C1887 0.950 . S
H1883 C1888 0.949 . S
H1884 C1890 0.950 . S
H1885 C1891 0.950 . S
H1886 C1892 0.949 . S
C1887 H1882 0.950 . S
C1887 C1889 1.327 . S
C1887 C1893 1.429 . S
C1888 C1880 1.574 . S
C1888 H1883 0.949 . S
C1888 C1894 1.368 . S
C1889 C1873 1.349 . S
C1889 H1881 0.950 . S
C1889 C1887 1.327 . S
C1890 C1878 1.349 . S
C1890 H1884 0.950 . S
C1890 C1891 1.327 . S
C1891 H1885 0.950 . S
C1891 C1890 1.327 . S
C1891 C1895 1.429 . S
C1892 C1875 1.574 . S
C1892 H1886 0.949 . S
C1892 C1896 1.368 . S
C1893 C1874 1.429 . S
C1893 C1887 1.429 . S
C1893 C1894 1.523 . S
C1894 C1875 1.368 . S
C1894 C1888 1.368 . S
C1894 C1893 1.523 . S
C1895 C1879 1.429 . S
C1895 C1891 1.429 . S
C1895 C1896 1.523 . S
C1896 C1880 1.368 . S
C1896 C1892 1.368 . S
C1896 C1895 1.523 . S
H1897 C1872 0.950 . S
H1898 C1874 0.950 . S
H1899 C1875 0.949 . S
H1900 C1877 0.950 . S
H1901 C1879 0.950 . S
C1902 C1903 1.349 . S
C1902 C1904 1.327 . S
C1902 H1927 0.950 . S
C1903 C1902 1.349 . S
C1903 C1919 1.349 . S
C1904 C1902 1.327 . S
C1904 C1923 1.429 . S
C1904 H1928 0.950 . S
C1905 C1922 1.574 . S
C1905 C1924 1.368 . S
C1905 H1929 0.949 . S
H1906 C1910 0.949 . S
C1907 C1908 1.349 . S
C1907 C1909 1.327 . S
C1907 H1930 0.950 . S
C1908 C1907 1.349 . S
C1908 C1920 1.349 . S
C1909 C1907 1.327 . S
C1909 C1925 1.429 . S
C1909 H1931 0.950 . S
C1910 H1906 0.949 . S
C1910 C1918 1.574 . S
C1910 C1926 1.368 . S
H1911 C1919 0.950 . S
H1912 C1917 0.950 . S
H1913 C1918 0.949 . S
H1914 C1920 0.950 . S
H1915 C1921 0.950 . S
H1916 C1922 0.949 . S
C1917 H1912 0.950 . S
C1917 C1919 1.327 . S
C1917 C1923 1.429 . S
C1918 C1910 1.574 . S
C1918 H1913 0.949 . S
C1918 C1924 1.368 . S
C1919 C1903 1.349 . S
C1919 H1911 0.950 . S
C1919 C1917 1.327 . S
C1920 C1908 1.349 . S
C1920 H1914 0.950 . S
C1920 C1921 1.327 . S
C1921 H1915 0.950 . S
C1921 C1920 1.327 . S
C1921 C1925 1.429 . S
C1922 C1905 1.574 . S
C1922 H1916 0.949 . S
C1922 C1926 1.368 . S
C1923 C1904 1.429 . S
C1923 C1917 1.429 . S
C1923 C1924 1.523 . S
C1924 C1905 1.368 . S
C1924 C1918 1.368 . S
C1924 C1923 1.523 . S
C1925 C1909 1.429 . S
C1925 C1921 1.429 . S
C1925 C1926 1.523 . S
C1926 C1910 1.368 . S
C1926 C1922 1.368 . S
C1926 C1925 1.523 . S
H1927 C1902 0.950 . S
H1928 C1904 0.950 . S
H1929 C1905 0.949 . S
H1930 C1907 0.950 . S
H1931 C1909 0.950 . S
C1932 C1933 1.349 . S
C1932 C1934 1.327 . S
C1932 H1957 0.950 . S
C1933 C1932 1.349 . S
C1933 C1949 1.349 . S
C1934 C1932 1.327 . S
C1934 C1953 1.429 . S
C1934 H1958 0.950 . S
C1935 C1952 1.574 . S
C1935 C1954 1.368 . S
C1935 H1959 0.949 . S
H1936 C1940 0.949 . S
C1937 C1938 1.349 . S
C1937 C1939 1.327 . S
C1937 H1960 0.950 . S
C1938 C1937 1.349 . S
C1938 C1950 1.349 . S
C1939 C1937 1.327 . S
C1939 C1955 1.429 . S
C1939 H1961 0.950 . S
C1940 H1936 0.949 . S
C1940 C1948 1.574 . S
C1940 C1956 1.368 . S
H1941 C1949 0.950 . S
H1942 C1947 0.950 . S
H1943 C1948 0.949 . S
H1944 C1950 0.950 . S
H1945 C1951 0.950 . S
H1946 C1952 0.949 . S
C1947 H1942 0.950 . S
C1947 C1949 1.327 . S
C1947 C1953 1.429 . S
C1948 C1940 1.574 . S
C1948 H1943 0.949 . S
C1948 C1954 1.368 . S
C1949 C1933 1.349 . S
C1949 H1941 0.950 . S
C1949 C1947 1.327 . S
C1950 C1938 1.349 . S
C1950 H1944 0.950 . S
C1950 C1951 1.327 . S
C1951 H1945 0.950 . S
C1951 C1950 1.327 . S
C1951 C1955 1.429 . S
C1952 C1935 1.574 . S
C1952 H1946 0.949 . S
C1952 C1956 1.368 . S
C1953 C1934 1.429 . S
C1953 C1947 1.429 . S
C1953 C1954 1.523 . S
C1954 C1935 1.368 . S
C1954 C1948 1.368 . S
C1954 C1953 1.523 . S
C1955 C1939 1.429 . S
C1955 C1951 1.429 . S
C1955 C1956 1.523 . S
C1956 C1940 1.368 . S
C1956 C1952 1.368 . S
C1956 C1955 1.523 . S
H1957 C1932 0.950 . S
H1958 C1934 0.950 . S
H1959 C1935 0.949 . S
H1960 C1937 0.950 . S
H1961 C1939 0.950 . S
C1962 C1963 1.349 . S
C1962 C1964 1.327 . S
C1962 H1987 0.950 . S
C1963 C1962 1.349 . S
C1963 C1979 1.349 . S
C1964 C1962 1.327 . S
C1964 C1983 1.429 . S
C1964 H1988 0.950 . S
C1965 C1982 1.574 . S
C1965 C1984 1.368 . S
C1965 H1989 0.949 . S
H1966 C1970 0.949 . S
C1967 C1968 1.349 . S
C1967 C1969 1.327 . S
C1967 H1990 0.950 . S
C1968 C1967 1.349 . S
C1968 C1980 1.349 . S
C1969 C1967 1.327 . S
C1969 C1985 1.429 . S
C1969 H1991 0.950 . S
C1970 H1966 0.949 . S
C1970 C1978 1.574 . S
C1970 C1986 1.368 . S
H1971 C1979 0.950 . S
H1972 C1977 0.950 . S
H1973 C1978 0.949 . S
H1974 C1980 0.950 . S
H1975 C1981 0.950 . S
H1976 C1982 0.949 . S
C1977 H1972 0.950 . S
C1977 C1979 1.327 . S
C1977 C1983 1.429 . S
C1978 C1970 1.574 . S
C1978 H1973 0.949 . S
C1978 C1984 1.368 . S
C1979 C1963 1.349 . S
C1979 H1971 0.950 . S
C1979 C1977 1.327 . S
C1980 C1968 1.349 . S
C1980 H1974 0.950 . S
C1980 C1981 1.327 . S
C1981 H1975 0.950 . S
C1981 C1980 1.327 . S
C1981 C1985 1.429 . S
C1982 C1965 1.574 . S
C1982 H1976 0.949 . S
C1982 C1986 1.368 . S
C1983 C1964 1.429 . S
C1983 C1977 1.429 . S
C1983 C1984 1.523 . S
C1984 C1965 1.368 . S
C1984 C1978 1.368 . S
C1984 C1983 1.523 . S
C1985 C1969 1.429 . S
C1985 C1981 1.429 . S
C1985 C1986 1.523 . S
C1986 C1970 1.368 . S
C1986 C1982 1.368 . S
C1986 C1985 1.523 . S
H1987 C1962 0.950 . S
H1988 C1964 0.950 . S
H1989 C1965 0.949 . S
H1990 C1967 0.950 . S
H1991 C1969 0.950 . S
C1992 C1993 1.349 . S
C1992 C1994 1.327 . S
C1992 H2017 0.950 . S
C1993 C1992 1.349 . S
C1993 C2009 1.349 . S
C1994 C1992 1.327 . S
C1994 C2013 1.429 . S
C1994 H2018 0.950 . S
C1995 C2012 1.574 . S
C1995 C2014 1.368 . S
C1995 H2019 0.949 . S
H1996 C2000 0.949 . S
C1997 C1998 1.349 . S
C1997 C1999 1.327 . S
C1997 H2020 0.950 . S
C1998 C1997 1.349 . S
C1998 C2010 1.349 . S
C1999 C1997 1.327 . S
C1999 C2015 1.429 . S
C1999 H2021 0.950 . S
C2000 H1996 0.949 . S
C2000 C2008 1.574 . S
C2000 C2016 1.368 . S
H2001 C2009 0.950 . S
H2002 C2007 0.950 . S
H2003 C2008 0.949 . S
H2004 C2010 0.950 . S
H2005 C2011 0.950 . S
H2006 C2012 0.949 . S
C2007 H2002 0.950 . S
C2007 C2009 1.327 . S
C2007 C2013 1.429 . S
C2008 C2000 1.574 . S
C2008 H2003 0.949 . S
C2008 C2014 1.368 . S
C2009 C1993 1.349 . S
C2009 H2001 0.950 . S
C2009 C2007 1.327 . S
C2010 C1998 1.349 . S
C2010 H2004 0.950 . S
C2010 C2011 1.327 . S
C2011 H2005 0.950 . S
C2011 C2010 1.327 . S
C2011 C2015 1.429 . S
C2012 C1995 1.574 . S
C2012 H2006 0.949 . S
C2012 C2016 1.368 . S
C2013 C1994 1.429 . S
C2013 C2007 1.429 . S
C2013 C2014 1.523 . S
C2014 C1995 1.368 . S
C2014 C2008 1.368 . S
C2014 C2013 1.523 . S
C2015 C1999 1.429 . S
C2015 C2011 1.429 . S
C2015 C2016 1.523 . S
C2016 C2000 1.368 . S
C2016 C2012 1.368 . S
C2016 C2015 1.523 . S
H2017 C1992 0.950 . S
H2018 C1994 0.950 . S
H2019 C1995 0.949 . S
H2020 C1997 0.950 . S
H2021 C1999 0.950 . S
C2022 C2023 1.349 . S
C2022 C2024 1.327 . S
C2022 H2047 0.950 . S
C2023 C2022 1.349 . S
C2023 C2039 1.349 . S
C2024 C2022 1.327 . S
C2024 C2043 1.429 . S
C2024 H2048 0.950 . S
C2025 C2042 1.574 . S
C2025 C2044 1.368 . S
C2025 H2049 0.949 . S
H2026 C2030 0.949 . S
C2027 C2028 1.349 . S
C2027 C2029 1.327 . S
C2027 H2050 0.950 . S
C2028 C2027 1.349 . S
C2028 C2040 1.349 . S
C2029 C2027 1.327 . S
C2029 C2045 1.429 . S
C2029 H2051 0.950 . S
C2030 H2026 0.949 . S
C2030 C2038 1.574 . S
C2030 C2046 1.368 . S
H2031 C2039 0.950 . S
H2032 C2037 0.950 . S
H2033 C2038 0.949 . S
H2034 C2040 0.950 . S
H2035 C2041 0.950 . S
H2036 C2042 0.949 . S
C2037 H2032 0.950 . S
C2037 C2039 1.327 . S
C2037 C2043 1.429 . S
C2038 C2030 1.574 . S
C2038 H2033 0.949 . S
C2038 C2044 1.368 . S
C2039 C2023 1.349 . S
C2039 H2031 0.950 . S
C2039 C2037 1.327 . S
C2040 C2028 1.349 . S
C2040 H2034 0.950 . S
C2040 C2041 1.327 . S
C2041 H2035 0.950 . S
C2041 C2040 1.327 . S
C2041 C2045 1.429 . S
C2042 C2025 1.574 . S
C2042 H2036 0.949 . S
C2042 C2046 1.368 . S
C2043 C2024 1.429 . S
C2043 C2037 1.429 . S
C2043 C2044 1.523 . S
C2044 C2025 1.368 . S
C2044 C2038 1.368 . S
C2044 C2043 1.523 . S
C2045 C2029 1.429 . S
C2045 C2041 1.429 . S
C2045 C2046 1.523 . S
C2046 C2030 1.368 . S
C2046 C2042 1.368 . S
C2046 C2045 1.523 . S
H2047 C2022 0.950 . S
H2048 C2024 0.950 . S
H2049 C2025 0.949 . S
H2050 C2027 0.950 . S
H2051 C2029 0.950 . S
C2052 C2053 1.349 . S
C2052 C2054 1.327 . S
C2052 H2077 0.950 . S
C2053 C2052 1.349 . S
C2053 C2069 1.349 . S
C2054 C2052 1.327 . S
C2054 C2073 1.429 . S
C2054 H2078 0.950 . S
C2055 C2072 1.574 . S
C2055 C2074 1.368 . S
C2055 H2079 0.949 . S
H2056 C2060 0.949 . S
C2057 C2058 1.349 . S
C2057 C2059 1.327 . S
C2057 H2080 0.950 . S
C2058 C2057 1.349 . S
C2058 C2070 1.349 . S
C2059 C2057 1.327 . S
C2059 C2075 1.429 . S
C2059 H2081 0.950 . S
C2060 H2056 0.949 . S
C2060 C2068 1.574 . S
C2060 C2076 1.368 . S
H2061 C2069 0.950 . S
H2062 C2067 0.950 . S
H2063 C2068 0.949 . S
H2064 C2070 0.950 . S
H2065 C2071 0.950 . S
H2066 C2072 0.949 . S
C2067 H2062 0.950 . S
C2067 C2069 1.327 . S
C2067 C2073 1.429 . S
C2068 C2060 1.574 . S
C2068 H2063 0.949 . S
C2068 C2074 1.368 . S
C2069 C2053 1.349 . S
C2069 H2061 0.950 . S
C2069 C2067 1.327 . S
C2070 C2058 1.349 . S
C2070 H2064 0.950 . S
C2070 C2071 1.327 . S
C2071 H2065 0.950 . S
C2071 C2070 1.327 . S
C2071 C2075 1.429 . S
C2072 C2055 1.574 . S
C2072 H2066 0.949 . S
C2072 C2076 1.368 . S
C2073 C2054 1.429 . S
C2073 C2067 1.429 . S
C2073 C2074 1.523 . S
C2074 C2055 1.368 . S
C2074 C2068 1.368 . S
C2074 C2073 1.523 . S
C2075 C2059 1.429 . S
C2075 C2071 1.429 . S
C2075 C2076 1.523 . S
C2076 C2060 1.368 . S
C2076 C2072 1.368 . S
C2076 C2075 1.523 . S
H2077 C2052 0.950 . S
H2078 C2054 0.950 . S
H2079 C2055 0.949 . S
H2080 C2057 0.950 . S
H2081 C2059 0.950 . S
C2082 C2083 1.349 . S
C2082 C2084 1.327 . S
C2082 H2107 0.950 . S
C2083 C2082 1.349 . S
C2083 C2099 1.349 . S
C2084 C2082 1.327 . S
C2084 C2103 1.429 . S
C2084 H2108 0.950 . S
C2085 C2102 1.574 . S
C2085 C2104 1.368 . S
C2085 H2109 0.949 . S
H2086 C2090 0.949 . S
C2087 C2088 1.349 . S
C2087 C2089 1.327 . S
C2087 H2110 0.950 . S
C2088 C2087 1.349 . S
C2088 C2100 1.349 . S
C2089 C2087 1.327 . S
C2089 C2105 1.429 . S
C2089 H2111 0.950 . S
C2090 H2086 0.949 . S
C2090 C2098 1.574 . S
C2090 C2106 1.368 . S
H2091 C2099 0.950 . S
H2092 C2097 0.950 . S
H2093 C2098 0.949 . S
H2094 C2100 0.950 . S
H2095 C2101 0.950 . S
H2096 C2102 0.949 . S
C2097 H2092 0.950 . S
C2097 C2099 1.327 . S
C2097 C2103 1.429 . S
C2098 C2090 1.574 . S
C2098 H2093 0.949 . S
C2098 C2104 1.368 . S
C2099 C2083 1.349 . S
C2099 H2091 0.950 . S
C2099 C2097 1.327 . S
C2100 C2088 1.349 . S
C2100 H2094 0.950 . S
C2100 C2101 1.327 . S
C2101 H2095 0.950 . S
C2101 C2100 1.327 . S
C2101 C2105 1.429 . S
C2102 C2085 1.574 . S
C2102 H2096 0.949 . S
C2102 C2106 1.368 . S
C2103 C2084 1.429 . S
C2103 C2097 1.429 . S
C2103 C2104 1.523 . S
C2104 C2085 1.368 . S
C2104 C2098 1.368 . S
C2104 C2103 1.523 . S
C2105 C2089 1.429 . S
C2105 C2101 1.429 . S
C2105 C2106 1.523 . S
C2106 C2090 1.368 . S
C2106 C2102 1.368 . S
C2106 C2105 1.523 . S
H2107 C2082 0.950 . S
H2108 C2084 0.950 . S
H2109 C2085 0.949 . S
H2110 C2087 0.950 . S
H2111 C2089 0.950 . S
C2112 C2113 1.349 . S
C2112 C2114 1.327 . S
C2112 H2137 0.950 . S
C2113 C2112 1.349 . S
C2113 C2129 1.349 . S
C2114 C2112 1.327 . S
C2114 C2133 1.429 . S
C2114 H2138 0.950 . S
C2115 C2132 1.574 . S
C2115 C2134 1.368 . S
C2115 H2139 0.949 . S
H2116 C2120 0.949 . S
C2117 C2118 1.349 . S
C2117 C2119 1.327 . S
C2117 H2140 0.950 . S
C2118 C2117 1.349 . S
C2118 C2130 1.349 . S
C2119 C2117 1.327 . S
C2119 C2135 1.429 . S
C2119 H2141 0.950 . S
C2120 H2116 0.949 . S
C2120 C2128 1.574 . S
C2120 C2136 1.368 . S
H2121 C2129 0.950 . S
H2122 C2127 0.950 . S
H2123 C2128 0.949 . S
H2124 C2130 0.950 . S
H2125 C2131 0.950 . S
H2126 C2132 0.949 . S
C2127 H2122 0.950 . S
C2127 C2129 1.327 . S
C2127 C2133 1.429 . S
C2128 C2120 1.574 . S
C2128 H2123 0.949 . S
C2128 C2134 1.368 . S
C2129 C2113 1.349 . S
C2129 H2121 0.950 . S
C2129 C2127 1.327 . S
C2130 C2118 1.349 . S
C2130 H2124 0.950 . S
C2130 C2131 1.327 . S
C2131 H2125 0.950 . S
C2131 C2130 1.327 . S
C2131 C2135 1.429 . S
C2132 C2115 1.574 . S
C2132 H2126 0.949 . S
C2132 C2136 1.368 . S
C2133 C2114 1.429 . S
C2133 C2127 1.429 . S
C2133 C2134 1.523 . S
C2134 C2115 1.368 . S
C2134 C2128 1.368 . S
C2134 C2133 1.523 . S
C2135 C2119 1.429 . S
C2135 C2131 1.429 . S
C2135 C2136 1.523 . S
C2136 C2120 1.368 . S
C2136 C2132 1.368 . S
C2136 C2135 1.523 . S
H2137 C2112 0.950 . S
H2138 C2114 0.950 . S
H2139 C2115 0.949 . S
H2140 C2117 0.950 . S
H2141 C2119 0.950 . S
C2142 C2143 1.349 . S
C2142 C2144 1.327 . S
C2142 H2167 0.950 . S
C2143 C2142 1.349 . S
C2143 C2159 1.349 . S
C2144 C2142 1.327 . S
C2144 C2163 1.429 . S
C2144 H2168 0.950 . S
C2145 C2162 1.574 . S
C2145 C2164 1.368 . S
C2145 H2169 0.949 . S
H2146 C2150 0.949 . S
C2147 C2148 1.349 . S
C2147 C2149 1.327 . S
C2147 H2170 0.950 . S
C2148 C2147 1.349 . S
C2148 C2160 1.349 . S
C2149 C2147 1.327 . S
C2149 C2165 1.429 . S
C2149 H2171 0.950 . S
C2150 H2146 0.949 . S
C2150 C2158 1.574 . S
C2150 C2166 1.368 . S
H2151 C2159 0.950 . S
H2152 C2157 0.950 . S
H2153 C2158 0.949 . S
H2154 C2160 0.950 . S
H2155 C2161 0.950 . S
H2156 C2162 0.949 . S
C2157 H2152 0.950 . S
C2157 C2159 1.327 . S
C2157 C2163 1.429 . S
C2158 C2150 1.574 . S
C2158 H2153 0.949 . S
C2158 C2164 1.368 . S
C2159 C2143 1.349 . S
C2159 H2151 0.950 . S
C2159 C2157 1.327 . S
C2160 C2148 1.349 . S
C2160 H2154 0.950 . S
C2160 C2161 1.327 . S
C2161 H2155 0.950 . S
C2161 C2160 1.327 . S
C2161 C2165 1.429 . S
C2162 C2145 1.574 . S
C2162 H2156 0.949 . S
C2162 C2166 1.368 . S
C2163 C2144 1.429 . S
C2163 C2157 1.429 . S
C2163 C2164 1.523 . S
C2164 C2145 1.368 . S
C2164 C2158 1.368 . S
C2164 C2163 1.523 . S
C2165 C2149 1.429 . S
C2165 C2161 1.429 . S
C2165 C2166 1.523 . S
C2166 C2150 1.368 . S
C2166 C2162 1.368 . S
C2166 C2165 1.523 . S
H2167 C2142 0.950 . S
H2168 C2144 0.950 . S
H2169 C2145 0.949 . S
H2170 C2147 0.950 . S
H2171 C2149 0.950 . S
C2172 C2173 1.349 . S
C2172 C2174 1.327 . S
C2172 H2197 0.950 . S
C2173 C2172 1.349 . S
C2173 C2189 1.349 . S
C2174 C2172 1.327 . S
C2174 C2193 1.429 . S
C2174 H2198 0.950 . S
C2175 C2192 1.574 . S
C2175 C2194 1.368 . S
C2175 H2199 0.949 . S
H2176 C2180 0.949 . S
C2177 C2178 1.349 . S
C2177 C2179 1.327 . S
C2177 H2200 0.950 . S
C2178 C2177 1.349 . S
C2178 C2190 1.349 . S
C2179 C2177 1.327 . S
C2179 C2195 1.429 . S
C2179 H2201 0.950 . S
C2180 H2176 0.949 . S
C2180 C2188 1.574 . S
C2180 C2196 1.368 . S
H2181 C2189 0.950 . S
H2182 C2187 0.950 . S
H2183 C2188 0.949 . S
H2184 C2190 0.950 . S
H2185 C2191 0.950 . S
H2186 C2192 0.949 . S
C2187 H2182 0.950 . S
C2187 C2189 1.327 . S
C2187 C2193 1.429 . S
C2188 C2180 1.574 . S
C2188 H2183 0.949 . S
C2188 C2194 1.368 . S
C2189 C2173 1.349 . S
C2189 H2181 0.950 . S
C2189 C2187 1.327 . S
C2190 C2178 1.349 . S
C2190 H2184 0.950 . S
C2190 C2191 1.327 . S
C2191 H2185 0.950 . S
C2191 C2190 1.327 . S
C2191 C2195 1.429 . S
C2192 C2175 1.574 . S
C2192 H2186 0.949 . S
C2192 C2196 1.368 . S
C2193 C2174 1.429 . S
C2193 C2187 1.429 . S
C2193 C2194 1.523 . S
C2194 C2175 1.368 . S
C2194 C2188 1.368 . S
C2194 C2193 1.523 . S
C2195 C2179 1.429 . S
C2195 C2191 1.429 . S
C2195 C2196 1.523 . S
C2196 C2180 1.368 . S
C2196 C2192 1.368 . S
C2196 C2195 1.523 . S
H2197 C2172 0.950 . S
H2198 C2174 0.950 . S
H2199 C2175 0.949 . S
H2200 C2177 0.950 . S
H2201 C2179 0.950 . S
C2202 C2203 1.349 . S
C2202 C2204 1.327 . S
C2202 H2227 0.950 . S
C2203 C2202 1.349 . S
C2203 C2219 1.349 . S
C2204 C2202 1.327 . S
C2204 C2223 1.429 . S
C2204 H2228 0.950 . S
C2205 C2222 1.574 . S
C2205 C2224 1.368 . S
C2205 H2229 0.949 . S
H2206 C2210 0.949 . S
C2207 C2208 1.349 . S
C2207 C2209 1.327 . S
C2207 H2230 0.950 . S
C2208 C2207 1.349 . S
C2208 C2220 1.349 . S
C2209 C2207 1.327 . S
C2209 C2225 1.429 . S
C2209 H2231 0.950 . S
C2210 H2206 0.949 . S
C2210 C2218 1.574 . S
C2210 C2226 1.368 . S
H2211 C2219 0.950 . S
H2212 C2217 0.950 . S
H2213 C2218 0.949 . S
H2214 C2220 0.950 . S
H2215 C2221 0.950 . S
H2216 C2222 0.949 . S
C2217 H2212 0.950 . S
C2217 C2219 1.327 . S
C2217 C2223 1.429 . S
C2218 C2210 1.574 . S
C2218 H2213 0.949 . S
C2218 C2224 1.368 . S
C2219 C2203 1.349 . S
C2219 H2211 0.950 . S
C2219 C2217 1.327 . S
C2220 C2208 1.349 . S
C2220 H2214 0.950 . S
C2220 C2221 1.327 . S
C2221 H2215 0.950 . S
C2221 C2220 1.327 . S
C2221 C2225 1.429 . S
C2222 C2205 1.574 . S
C2222 H2216 0.949 . S
C2222 C2226 1.368 . S
C2223 C2204 1.429 . S
C2223 C2217 1.429 . S
C2223 C2224 1.523 . S
C2224 C2205 1.368 . S
C2224 C2218 1.368 . S
C2224 C2223 1.523 . S
C2225 C2209 1.429 . S
C2225 C2221 1.429 . S
C2225 C2226 1.523 . S
C2226 C2210 1.368 . S
C2226 C2222 1.368 . S
C2226 C2225 1.523 . S
H2227 C2202 0.950 . S
H2228 C2204 0.950 . S
H2229 C2205 0.949 . S
H2230 C2207 0.950 . S
H2231 C2209 0.950 . S
C2232 C2233 1.349 . S
C2232 C2234 1.327 . S
C2232 H2257 0.950 . S
C2233 C2232 1.349 . S
C2233 C2249 1.349 . S
C2234 C2232 1.327 . S
C2234 C2253 1.429 . S
C2234 H2258 0.950 . S
C2235 C2252 1.574 . S
C2235 C2254 1.368 . S
C2235 H2259 0.949 . S
H2236 C2240 0.949 . S
C2237 C2238 1.349 . S
C2237 C2239 1.327 . S
C2237 H2260 0.950 . S
C2238 C2237 1.349 . S
C2238 C2250 1.349 . S
C2239 C2237 1.327 . S
C2239 C2255 1.429 . S
C2239 H2261 0.950 . S
C2240 H2236 0.949 . S
C2240 C2248 1.574 . S
C2240 C2256 1.368 . S
H2241 C2249 0.950 . S
H2242 C2247 0.950 . S
H2243 C2248 0.949 . S
H2244 C2250 0.950 . S
H2245 C2251 0.950 . S
H2246 C2252 0.949 . S
C2247 H2242 0.950 . S
C2247 C2249 1.327 . S
C2247 C2253 1.429 . S
C2248 C2240 1.574 . S
C2248 H2243 0.949 . S
C2248 C2254 1.368 . S
C2249 C2233 1.349 . S
C2249 H2241 0.950 . S
C2249 C2247 1.327 . S
C2250 C2238 1.349 . S
C2250 H2244 0.950 . S
C2250 C2251 1.327 . S
C2251 H2245 0.950 . S
C2251 C2250 1.327 . S
C2251 C2255 1.429 . S
C2252 C2235 1.574 . S
C2252 H2246 0.949 . S
C2252 C2256 1.368 . S
C2253 C2234 1.429 . S
C2253 C2247 1.429 . S
C2253 C2254 1.523 . S
C2254 C2235 1.368 . S
C2254 C2248 1.368 . S
C2254 C2253 1.523 . S
C2255 C2239 1.429 . S
C2255 C2251 1.429 . S
C2255 C2256 1.523 . S
C2256 C2240 1.368 . S
C2256 C2252 1.368 . S
C2256 C2255 1.523 . S
H2257 C2232 0.950 . S
H2258 C2234 0.950 . S
H2259 C2235 0.949 . S
H2260 C2237 0.950 . S
H2261 C2239 0.950 . S
C2262 C2263 1.349 . S
C2262 C2264 1.327 . S
C2262 H2287 0.950 . S
C2263 C2262 1.349 . S
C2263 C2279 1.349 . S
C2264 C2262 1.327 . S
C2264 C2283 1.429 . S
C2264 H2288 0.950 . S
C2265 C2282 1.574 . S
C2265 C2284 1.368 . S
C2265 H2289 0.949 . S
H2266 C2270 0.949 . S
C2267 C2268 1.349 . S
C2267 C2269 1.327 . S
C2267 H2290 0.950 . S
C2268 C2267 1.349 . S
C2268 C2280 1.349 . S
C2269 C2267 1.327 . S
C2269 C2285 1.429 . S
C2269 H2291 0.950 . S
C2270 H2266 0.949 . S
C2270 C2278 1.574 . S
C2270 C2286 1.368 . S
H2271 C2279 0.950 . S
H2272 C2277 0.950 . S
H2273 C2278 0.949 . S
H2274 C2280 0.950 . S
H2275 C2281 0.950 . S
H2276 C2282 0.949 . S
C2277 H2272 0.950 . S
C2277 C2279 1.327 . S
C2277 C2283 1.429 . S
C2278 C2270 1.574 . S
C2278 H2273 0.949 . S
C2278 C2284 1.368 . S
C2279 C2263 1.349 . S
C2279 H2271 0.950 . S
C2279 C2277 1.327 . S
C2280 C2268 1.349 . S
C2280 H2274 0.950 . S
C2280 C2281 1.327 . S
C2281 H2275 0.950 . S
C2281 C2280 1.327 . S
C2281 C2285 1.429 . S
C2282 C2265 1.574 . S
C2282 H2276 0.949 . S
C2282 C2286 1.368 . S
C2283 C2264 1.429 . S
C2283 C2277 1.429 . S
C2283 C2284 1.523 . S
C2284 C2265 1.368 . S
C2284 C2278 1.368 . S
C2284 C2283 1.523 . S
C2285 C2269 1.429 . S
C2285 C2281 1.429 . S
C2285 C2286 1.523 . S
C2286 C2270 1.368 . S
C2286 C2282 1.368 . S
C2286 C2285 1.523 . S
H2287 C2262 0.950 . S
H2288 C2264 0.950 . S
H2289 C2265 0.949 . S
H2290 C2267 0.950 . S
H2291 C2269 0.950 . S
C2292 C2293 1.349 . S
C2292 C2294 1.327 . S
C2292 H2317 0.950 . S
C2293 C2292 1.349 . S
C2293 C2309 1.349 . S
C2294 C2292 1.327 . S
C2294 C2313 1.429 . S
C2294 H2318 0.950 . S
C2295 C2312 1.574 . S
C2295 C2314 1.368 . S
C2295 H2319 0.949 . S
H2296 C2300 0.949 . S
C2297 C2298 1.349 . S
C2297 C2299 1.327 . S
C2297 H2320 0.950 . S
C2298 C2297 1.349 . S
C2298 C2310 1.349 . S
C2299 C2297 1.327 . S
C2299 C2315 1.429 . S
C2299 H2321 0.950 . S
C2300 H2296 0.949 . S
C2300 C2308 1.574 . S
C2300 C2316 1.368 . S
H2301 C2309 0.950 . S
H2302 C2307 0.950 . S
H2303 C2308 0.949 . S
H2304 C2310 0.950 . S
H2305 C2311 0.950 . S
H2306 C2312 0.949 . S
C2307 H2302 0.950 . S
C2307 C2309 1.327 . S
C2307 C2313 1.429 . S
C2308 C2300 1.574 . S
C2308 H2303 0.949 . S
C2308 C2314 1.368 . S
C2309 C2293 1.349 . S
C2309 H2301 0.950 . S
C2309 C2307 1.327 . S
C2310 C2298 1.349 . S
C2310 H2304 0.950 . S
C2310 C2311 1.327 . S
C2311 H2305 0.950 . S
C2311 C2310 1.327 . S
C2311 C2315 1.429 . S
C2312 C2295 1.574 . S
C2312 H2306 0.949 . S
C2312 C2316 1.368 . S
C2313 C2294 1.429 . S
C2313 C2307 1.429 . S
C2313 C2314 1.523 . S
C2314 C2295 1.368 . S
C2314 C2308 1.368 . S
C2314 C2313 1.523 . S
C2315 C2299 1.429 . S
C2315 C2311 1.429 . S
C2315 C2316 1.523 . S
C2316 C2300 1.368 . S
C2316 C2312 1.368 . S
C2316 C2315 1.523 . S
H2317 C2292 0.950 . S
H2318 C2294 0.950 . S
H2319 C2295 0.949 . S
H2320 C2297 0.950 . S
H2321 C2299 0.950 . S
C2322 C2323 1.349 . S
C2322 C2324 1.327 . S
C2322 H2347 0.950 . S
C2323 C2322 1.349 . S
C2323 C2339 1.349 . S
C2324 C2322 1.327 . S
C2324 C2343 1.429 . S
C2324 H2348 0.950 . S
C2325 C2342 1.574 . S
C2325 C2344 1.368 . S
C2325 H2349 0.949 . S
H2326 C2330 0.949 . S
C2327 C2328 1.349 . S
C2327 C2329 1.327 . S
C2327 H2350 0.950 . S
C2328 C2327 1.349 . S
C2328 C2340 1.349 . S
C2329 C2327 1.327 . S
C2329 C2345 1.429 . S
C2329 H2351 0.950 . S
C2330 H2326 0.949 . S
C2330 C2338 1.574 . S
C2330 C2346 1.368 . S
H2331 C2339 0.950 . S
H2332 C2337 0.950 . S
H2333 C2338 0.949 . S
H2334 C2340 0.950 . S
H2335 C2341 0.950 . S
H2336 C2342 0.949 . S
C2337 H2332 0.950 . S
C2337 C2339 1.327 . S
C2337 C2343 1.429 . S
C2338 C2330 1.574 . S
C2338 H2333 0.949 . S
C2338 C2344 1.368 . S
C2339 C2323 1.349 . S
C2339 H2331 0.950 . S
C2339 C2337 1.327 . S
C2340 C2328 1.349 . S
C2340 H2334 0.950 . S
C2340 C2341 1.327 . S
C2341 H2335 0.950 . S
C2341 C2340 1.327 . S
C2341 C2345 1.429 . S
C2342 C2325 1.574 . S
C2342 H2336 0.949 . S
C2342 C2346 1.368 . S
C2343 C2324 1.429 . S
C2343 C2337 1.429 . S
C2343 C2344 1.523 . S
C2344 C2325 1.368 . S
C2344 C2338 1.368 . S
C2344 C2343 1.523 . S
C2345 C2329 1.429 . S
C2345 C2341 1.429 . S
C2345 C2346 1.523 . S
C2346 C2330 1.368 . S
C2346 C2342 1.368 . S
C2346 C2345 1.523 . S
H2347 C2322 0.950 . S
H2348 C2324 0.950 . S
H2349 C2325 0.949 . S
H2350 C2327 0.950 . S
H2351 C2329 0.950 . S
C2352 C2353 1.349 . S
C2352 C2354 1.327 . S
C2352 H2377 0.950 . S
C2353 C2352 1.349 . S
C2353 C2369 1.349 . S
C2354 C2352 1.327 . S
C2354 C2373 1.429 . S
C2354 H2378 0.950 . S
C2355 C2372 1.574 . S
C2355 C2374 1.368 . S
C2355 H2379 0.949 . S
H2356 C2360 0.949 . S
C2357 C2358 1.349 . S
C2357 C2359 1.327 . S
C2357 H2380 0.950 . S
C2358 C2357 1.349 . S
C2358 C2370 1.349 . S
C2359 C2357 1.327 . S
C2359 C2375 1.429 . S
C2359 H2381 0.950 . S
C2360 H2356 0.949 . S
C2360 C2368 1.574 . S
C2360 C2376 1.368 . S
H2361 C2369 0.950 . S
H2362 C2367 0.950 . S
H2363 C2368 0.949 . S
H2364 C2370 0.950 . S
H2365 C2371 0.950 . S
H2366 C2372 0.949 . S
C2367 H2362 0.950 . S
C2367 C2369 1.327 . S
C2367 C2373 1.429 . S
C2368 C2360 1.574 . S
C2368 H2363 0.949 . S
C2368 C2374 1.368 . S
C2369 C2353 1.349 . S
C2369 H2361 0.950 . S
C2369 C2367 1.327 . S
C2370 C2358 1.349 . S
C2370 H2364 0.950 . S
C2370 C2371 1.327 . S
C2371 H2365 0.950 . S
C2371 C2370 1.327 . S
C2371 C2375 1.429 . S
C2372 C2355 1.574 . S
C2372 H2366 0.949 . S
C2372 C2376 1.368 . S
C2373 C2354 1.429 . S
C2373 C2367 1.429 . S
C2373 C2374 1.523 . S
C2374 C2355 1.368 . S
C2374 C2368 1.368 . S
C2374 C2373 1.523 . S
C2375 C2359 1.429 . S
C2375 C2371 1.429 . S
C2375 C2376 1.523 . S
C2376 C2360 1.368 . S
C2376 C2372 1.368 . S
C2376 C2375 1.523 . S
H2377 C2352 0.950 . S
H2378 C2354 0.950 . S
H2379 C2355 0.949 . S
H2380 C2357 0.950 . S
H2381 C2359 0.950 . S
C2382 C2383 1.349 . S
C2382 C2384 1.327 . S
C2382 H2407 0.950 . S
C2383 C2382 1.349 . S
C2383 C2399 1.349 . S
C2384 C2382 1.327 . S
C2384 C2403 1.429 . S
C2384 H2408 0.950 . S
C2385 C2402 1.574 . S
C2385 C2404 1.368 . S
C2385 H2409 0.949 . S
H2386 C2390 0.949 . S
C2387 C2388 1.349 . S
C2387 C2389 1.327 . S
C2387 H2410 0.950 . S
C2388 C2387 1.349 . S
C2388 C2400 1.349 . S
C2389 C2387 1.327 . S
C2389 C2405 1.429 . S
C2389 H2411 0.950 . S
C2390 H2386 0.949 . S
C2390 C2398 1.574 . S
C2390 C2406 1.368 . S
H2391 C2399 0.950 . S
H2392 C2397 0.950 . S
H2393 C2398 0.949 . S
H2394 C2400 0.950 . S
H2395 C2401 0.950 . S
H2396 C2402 0.949 . S
C2397 H2392 0.950 . S
C2397 C2399 1.327 . S
C2397 C2403 1.429 . S
C2398 C2390 1.574 . S
C2398 H2393 0.949 . S
C2398 C2404 1.368 . S
C2399 C2383 1.349 . S
C2399 H2391 0.950 . S
C2399 C2397 1.327 . S
C2400 C2388 1.349 . S
C2400 H2394 0.950 . S
C2400 C2401 1.327 . S
C2401 H2395 0.950 . S
C2401 C2400 1.327 . S
C2401 C2405 1.429 . S
C2402 C2385 1.574 . S
C2402 H2396 0.949 . S
C2402 C2406 1.368 . S
C2403 C2384 1.429 . S
C2403 C2397 1.429 . S
C2403 C2404 1.523 . S
C2404 C2385 1.368 . S
C2404 C2398 1.368 . S
C2404 C2403 1.523 . S
C2405 C2389 1.429 . S
C2405 C2401 1.429 . S
C2405 C2406 1.523 . S
C2406 C2390 1.368 . S
C2406 C2402 1.368 . S
C2406 C2405 1.523 . S
H2407 C2382 0.950 . S
H2408 C2384 0.950 . S
H2409 C2385 0.949 . S
H2410 C2387 0.950 . S
H2411 C2389 0.950 . S
C2412 C2413 1.349 . S
C2412 C2414 1.327 . S
C2412 H2437 0.950 . S
C2413 C2412 1.349 . S
C2413 C2429 1.349 . S
C2414 C2412 1.327 . S
C2414 C2433 1.429 . S
C2414 H2438 0.950 . S
C2415 C2432 1.574 . S
C2415 C2434 1.368 . S
C2415 H2439 0.949 . S
H2416 C2420 0.949 . S
C2417 C2418 1.349 . S
C2417 C2419 1.327 . S
C2417 H2440 0.950 . S
C2418 C2417 1.349 . S
C2418 C2430 1.349 . S
C2419 C2417 1.327 . S
C2419 C2435 1.429 . S
C2419 H2441 0.950 . S
C2420 H2416 0.949 . S
C2420 C2428 1.574 . S
C2420 C2436 1.368 . S
H2421 C2429 0.950 . S
H2422 C2427 0.950 . S
H2423 C2428 0.949 . S
H2424 C2430 0.950 . S
H2425 C2431 0.950 . S
H2426 C2432 0.949 . S
C2427 H2422 0.950 . S
C2427 C2429 1.327 . S
C2427 C2433 1.429 . S
C2428 C2420 1.574 . S
C2428 H2423 0.949 . S
C2428 C2434 1.368 . S
C2429 C2413 1.349 . S
C2429 H2421 0.950 . S
C2429 C2427 1.327 . S
C2430 C2418 1.349 . S
C2430 H2424 0.950 . S
C2430 C2431 1.327 . S
C2431 H2425 0.950 . S
C2431 C2430 1.327 . S
C2431 C2435 1.429 . S
C2432 C2415 1.574 . S
C2432 H2426 0.949 . S
C2432 C2436 1.368 . S
C2433 C2414 1.429 . S
C2433 C2427 1.429 . S
C2433 C2434 1.523 . S
C2434 C2415 1.368 . S
C2434 C2428 1.368 . S
C2434 C2433 1.523 . S
C2435 C2419 1.429 . S
C2435 C2431 1.429 . S
C2435 C2436 1.523 . S
C2436 C2420 1.368 . S
C2436 C2432 1.368 . S
C2436 C2435 1.523 . S
H2437 C2412 0.950 . S
H2438 C2414 0.950 . S
H2439 C2415 0.949 . S
H2440 C2417 0.950 . S
H2441 C2419 0.950 . S
C2442 C2443 1.349 . S
C2442 C2444 1.327 . S
C2442 H2467 0.950 . S
C2443 C2442 1.349 . S
C2443 C2459 1.349 . S
C2444 C2442 1.327 . S
C2444 C2463 1.429 . S
C2444 H2468 0.950 . S
C2445 C2462 1.574 . S
C2445 C2464 1.368 . S
C2445 H2469 0.949 . S
H2446 C2450 0.949 . S
C2447 C2448 1.349 . S
C2447 C2449 1.327 . S
C2447 H2470 0.950 . S
C2448 C2447 1.349 . S
C2448 C2460 1.349 . S
C2449 C2447 1.327 . S
C2449 C2465 1.429 . S
C2449 H2471 0.950 . S
C2450 H2446 0.949 . S
C2450 C2458 1.574 . S
C2450 C2466 1.368 . S
H2451 C2459 0.950 . S
H2452 C2457 0.950 . S
H2453 C2458 0.949 . S
H2454 C2460 0.950 . S
H2455 C2461 0.950 . S
H2456 C2462 0.949 . S
C2457 H2452 0.950 . S
C2457 C2459 1.327 . S
C2457 C2463 1.429 . S
C2458 C2450 1.574 . S
C2458 H2453 0.949 . S
C2458 C2464 1.368 . S
C2459 C2443 1.349 . S
C2459 H2451 0.950 . S
C2459 C2457 1.327 . S
C2460 C2448 1.349 . S
C2460 H2454 0.950 . S
C2460 C2461 1.327 . S
C2461 H2455 0.950 . S
C2461 C2460 1.327 . S
C2461 C2465 1.429 . S
C2462 C2445 1.574 . S
C2462 H2456 0.949 . S
C2462 C2466 1.368 . S
C2463 C2444 1.429 . S
C2463 C2457 1.429 . S
C2463 C2464 1.523 . S
C2464 C2445 1.368 . S
C2464 C2458 1.368 . S
C2464 C2463 1.523 . S
C2465 C2449 1.429 . S
C2465 C2461 1.429 . S
C2465 C2466 1.523 . S
C2466 C2450 1.368 . S
C2466 C2462 1.368 . S
C2466 C2465 1.523 . S
H2467 C2442 0.950 . S
H2468 C2444 0.950 . S
H2469 C2445 0.949 . S
H2470 C2447 0.950 . S
H2471 C2449 0.950 . S
C2472 C2473 1.349 . S
C2472 C2474 1.327 . S
C2472 H2497 0.950 . S
C2473 C2472 1.349 . S
C2473 C2489 1.349 . S
C2474 C2472 1.327 . S
C2474 C2493 1.429 . S
C2474 H2498 0.950 . S
C2475 C2492 1.574 . S
C2475 C2494 1.368 . S
C2475 H2499 0.949 . S
H2476 C2480 0.949 . S
C2477 C2478 1.349 . S
C2477 C2479 1.327 . S
C2477 H2500 0.950 . S
C2478 C2477 1.349 . S
C2478 C2490 1.349 . S
C2479 C2477 1.327 . S
C2479 C2495 1.429 . S
C2479 H2501 0.950 . S
C2480 H2476 0.949 . S
C2480 C2488 1.574 . S
C2480 C2496 1.368 . S
H2481 C2489 0.950 . S
H2482 C2487 0.950 . S
H2483 C2488 0.949 . S
H2484 C2490 0.950 . S
H2485 C2491 0.950 . S
H2486 C2492 0.949 . S
C2487 H2482 0.950 . S
C2487 C2489 1.327 . S
C2487 C2493 1.429 . S
C2488 C2480 1.574 . S
C2488 H2483 0.949 . S
C2488 C2494 1.368 . S
C2489 C2473 1.349 . S
C2489 H2481 0.950 . S
C2489 C2487 1.327 . S
C2490 C2478 1.349 . S
C2490 H2484 0.950 . S
C2490 C2491 1.327 . S
C2491 H2485 0.950 . S
C2491 C2490 1.327 . S
C2491 C2495 1.429 . S
C2492 C2475 1.574 . S
C2492 H2486 0.949 . S
C2492 C2496 1.368 . S
C2493 C2474 1.429 . S
C2493 C2487 1.429 . S
C2493 C2494 1.523 . S
C2494 C2475 1.368 . S
C2494 C2488 1.368 . S
C2494 C2493 1.523 . S
C2495 C2479 1.429 . S
C2495 C2491 1.429 . S
C2495 C2496 1.523 . S
C2496 C2480 1.368 . S
C2496 C2492 1.368 . S
C2496 C2495 1.523 . S
H2497 C2472 0.950 . S
H2498 C2474 0.950 . S
H2499 C2475 0.949 . S
H2500 C2477 0.950 . S
H2501 C2479 0.950 . S
C2502 C2503 1.349 . S
C2502 C2504 1.327 . S
C2502 H2527 0.950 . S
C2503 C2502 1.349 . S
C2503 C2519 1.349 . S
C2504 C2502 1.327 . S
C2504 C2523 1.429 . S
C2504 H2528 0.950 . S
C2505 C2522 1.574 . S
C2505 C2524 1.368 . S
C2505 H2529 0.949 . S
H2506 C2510 0.949 . S
C2507 C2508 1.349 . S
C2507 C2509 1.327 . S
C2507 H2530 0.950 . S
C2508 C2507 1.349 . S
C2508 C2520 1.349 . S
C2509 C2507 1.327 . S
C2509 C2525 1.429 . S
C2509 H2531 0.950 . S
C2510 H2506 0.949 . S
C2510 C2518 1.574 . S
C2510 C2526 1.368 . S
H2511 C2519 0.950 . S
H2512 C2517 0.950 . S
H2513 C2518 0.949 . S
H2514 C2520 0.950 . S
H2515 C2521 0.950 . S
H2516 C2522 0.949 . S
C2517 H2512 0.950 . S
C2517 C2519 1.327 . S
C2517 C2523 1.429 . S
C2518 C2510 1.574 . S
C2518 H2513 0.949 . S
C2518 C2524 1.368 . S
C2519 C2503 1.349 . S
C2519 H2511 0.950 . S
C2519 C2517 1.327 . S
C2520 C2508 1.349 . S
C2520 H2514 0.950 . S
C2520 C2521 1.327 . S
C2521 H2515 0.950 . S
C2521 C2520 1.327 . S
C2521 C2525 1.429 . S
C2522 C2505 1.574 . S
C2522 H2516 0.949 . S
C2522 C2526 1.368 . S
C2523 C2504 1.429 . S
C2523 C2517 1.429 . S
C2523 C2524 1.523 . S
C2524 C2505 1.368 . S
C2524 C2518 1.368 . S
C2524 C2523 1.523 . S
C2525 C2509 1.429 . S
C2525 C2521 1.429 . S
C2525 C2526 1.523 . S
C2526 C2510 1.368 . S
C2526 C2522 1.368 . S
C2526 C2525 1.523 . S
H2527 C2502 0.950 . S
H2528 C2504 0.950 . S
H2529 C2505 0.949 . S
H2530 C2507 0.950 . S
H2531 C2509 0.950 . S
C2532 C2533 1.349 . S
C2532 C2534 1.327 . S
C2532 H2557 0.950 . S
C2533 C2532 1.349 . S
C2533 C2549 1.349 . S
C2534 C2532 1.327 . S
C2534 C2553 1.429 . S
C2534 H2558 0.950 . S
C2535 C2552 1.574 . S
C2535 C2554 1.368 . S
C2535 H2559 0.949 . S
H2536 C2540 0.949 . S
C2537 C2538 1.349 . S
C2537 C2539 1.327 . S
C2537 H2560 0.950 . S
C2538 C2537 1.349 . S
C2538 C2550 1.349 . S
C2539 C2537 1.327 . S
C2539 C2555 1.429 . S
C2539 H2561 0.950 . S
C2540 H2536 0.949 . S
C2540 C2548 1.574 . S
C2540 C2556 1.368 . S
H2541 C2549 0.950 . S
H2542 C2547 0.950 . S
H2543 C2548 0.949 . S
H2544 C2550 0.950 . S
H2545 C2551 0.950 . S
H2546 C2552 0.949 . S
C2547 H2542 0.950 . S
C2547 C2549 1.327 . S
C2547 C2553 1.429 . S
C2548 C2540 1.574 . S
C2548 H2543 0.949 . S
C2548 C2554 1.368 . S
C2549 C2533 1.349 . S
C2549 H2541 0.950 . S
C2549 C2547 1.327 . S
C2550 C2538 1.349 . S
C2550 H2544 0.950 . S
C2550 C2551 1.327 . S
C2551 H2545 0.950 . S
C2551 C2550 1.327 . S
C2551 C2555 1.429 . S
C2552 C2535 1.574 . S
C2552 H2546 0.949 . S
C2552 C2556 1.368 . S
C2553 C2534 1.429 . S
C2553 C2547 1.429 . S
C2553 C2554 1.523 . S
C2554 C2535 1.368 . S
C2554 C2548 1.368 . S
C2554 C2553 1.523 . S
C2555 C2539 1.429 . S
C2555 C2551 1.429 . S
C2555 C2556 1.523 . S
C2556 C2540 1.368 . S
C2556 C2552 1.368 . S
C2556 C2555 1.523 . S
H2557 C2532 0.950 . S
H2558 C2534 0.950 . S
H2559 C2535 0.949 . S
H2560 C2537 0.950 . S
H2561 C2539 0.950 . S
C2562 C2563 1.349 . S
C2562 C2564 1.327 . S
C2562 H2587 0.950 . S
C2563 C2562 1.349 . S
C2563 C2579 1.349 . S
C2564 C2562 1.327 . S
C2564 C2583 1.429 . S
C2564 H2588 0.950 . S
C2565 C2582 1.574 . S
C2565 C2584 1.368 . S
C2565 H2589 0.949 . S
H2566 C2570 0.949 . S
C2567 C2568 1.349 . S
C2567 C2569 1.327 . S
C2567 H2590 0.950 . S
C2568 C2567 1.349 . S
C2568 C2580 1.349 . S
C2569 C2567 1.327 . S
C2569 C2585 1.429 . S
C2569 H2591 0.950 . S
C2570 H2566 0.949 . S
C2570 C2578 1.574 . S
C2570 C2586 1.368 . S
H2571 C2579 0.950 . S
H2572 C2577 0.950 . S
H2573 C2578 0.949 . S
H2574 C2580 0.950 . S
H2575 C2581 0.950 . S
H2576 C2582 0.949 . S
C2577 H2572 0.950 . S
C2577 C2579 1.327 . S
C2577 C2583 1.429 . S
C2578 C2570 1.574 . S
C2578 H2573 0.949 . S
C2578 C2584 1.368 . S
C2579 C2563 1.349 . S
C2579 H2571 0.950 . S
C2579 C2577 1.327 . S
C2580 C2568 1.349 . S
C2580 H2574 0.950 . S
C2580 C2581 1.327 . S
C2581 H2575 0.950 . S
C2581 C2580 1.327 . S
C2581 C2585 1.429 . S
C2582 C2565 1.574 . S
C2582 H2576 0.949 . S
C2582 C2586 1.368 . S
C2583 C2564 1.429 . S
C2583 C2577 1.429 . S
C2583 C2584 1.523 . S
C2584 C2565 1.368 . S
C2584 C2578 1.368 . S
C2584 C2583 1.523 . S
C2585 C2569 1.429 . S
C2585 C2581 1.429 . S
C2585 C2586 1.523 . S
C2586 C2570 1.368 . S
C2586 C2582 1.368 . S
C2586 C2585 1.523 . S
H2587 C2562 0.950 . S
H2588 C2564 0.950 . S
H2589 C2565 0.949 . S
H2590 C2567 0.950 . S
H2591 C2569 0.950 . S
C2592 C2593 1.349 . S
C2592 C2594 1.327 . S
C2592 H2617 0.950 . S
C2593 C2592 1.349 . S
C2593 C2609 1.349 . S
C2594 C2592 1.327 . S
C2594 C2613 1.429 . S
C2594 H2618 0.950 . S
C2595 C2612 1.574 . S
C2595 C2614 1.368 . S
C2595 H2619 0.949 . S
H2596 C2600 0.949 . S
C2597 C2598 1.349 . S
C2597 C2599 1.327 . S
C2597 H2620 0.950 . S
C2598 C2597 1.349 . S
C2598 C2610 1.349 . S
C2599 C2597 1.327 . S
C2599 C2615 1.429 . S
C2599 H2621 0.950 . S
C2600 H2596 0.949 . S
C2600 C2608 1.574 . S
C2600 C2616 1.368 . S
H2601 C2609 0.950 . S
H2602 C2607 0.950 . S
H2603 C2608 0.949 . S
H2604 C2610 0.950 . S
H2605 C2611 0.950 . S
H2606 C2612 0.949 . S
C2607 H2602 0.950 . S
C2607 C2609 1.327 . S
C2607 C2613 1.429 . S
C2608 C2600 1.574 . S
C2608 H2603 0.949 . S
C2608 C2614 1.368 . S
C2609 C2593 1.349 . S
C2609 H2601 0.950 . S
C2609 C2607 1.327 . S
C2610 C2598 1.349 . S
C2610 H2604 0.950 . S
C2610 C2611 1.327 . S
C2611 H2605 0.950 . S
C2611 C2610 1.327 . S
C2611 C2615 1.429 . S
C2612 C2595 1.574 . S
C2612 H2606 0.949 . S
C2612 C2616 1.368 . S
C2613 C2594 1.429 . S
C2613 C2607 1.429 . S
C2613 C2614 1.523 . S
C2614 C2595 1.368 . S
C2614 C2608 1.368 . S
C2614 C2613 1.523 . S
C2615 C2599 1.429 . S
C2615 C2611 1.429 . S
C2615 C2616 1.523 . S
C2616 C2600 1.368 . S
C2616 C2612 1.368 . S
C2616 C2615 1.523 . S
H2617 C2592 0.950 . S
H2618 C2594 0.950 . S
H2619 C2595 0.949 . S
H2620 C2597 0.950 . S
H2621 C2599 0.950 . S
C2622 C2623 1.349 . S
C2622 C2624 1.327 . S
C2622 H2647 0.950 . S
C2623 C2622 1.349 . S
C2623 C2639 1.349 . S
C2624 C2622 1.327 . S
C2624 C2643 1.429 . S
C2624 H2648 0.950 . S
C2625 C2642 1.574 . S
C2625 C2644 1.368 . S
C2625 H2649 0.949 . S
H2626 C2630 0.949 . S
C2627 C2628 1.349 . S
C2627 C2629 1.327 . S
C2627 H2650 0.950 . S
C2628 C2627 1.349 . S
C2628 C2640 1.349 . S
C2629 C2627 1.327 . S
C2629 C2645 1.429 . S
C2629 H2651 0.950 . S
C2630 H2626 0.949 . S
C2630 C2638 1.574 . S
C2630 C2646 1.368 . S
H2631 C2639 0.950 . S
H2632 C2637 0.950 . S
H2633 C2638 0.949 . S
H2634 C2640 0.950 . S
H2635 C2641 0.950 . S
H2636 C2642 0.949 . S
C2637 H2632 0.950 . S
C2637 C2639 1.327 . S
C2637 C2643 1.429 . S
C2638 C2630 1.574 . S
C2638 H2633 0.949 . S
C2638 C2644 1.368 . S
C2639 C2623 1.349 . S
C2639 H2631 0.950 . S
C2639 C2637 1.327 . S
C2640 C2628 1.349 . S
C2640 H2634 0.950 . S
C2640 C2641 1.327 . S
C2641 H2635 0.950 . S
C2641 C2640 1.327 . S
C2641 C2645 1.429 . S
C2642 C2625 1.574 . S
C2642 H2636 0.949 . S
C2642 C2646 1.368 . S
C2643 C2624 1.429 . S
C2643 C2637 1.429 . S
C2643 C2644 1.523 . S
C2644 C2625 1.368 . S
C2644 C2638 1.368 . S
C2644 C2643 1.523 . S
C2645 C2629 1.429 . S
C2645 C2641 1.429 . S
C2645 C2646 1.523 . S
C2646 C2630 1.368 . S
C2646 C2642 1.368 . S
C2646 C2645 1.523 . S
H2647 C2622 0.950 . S
H2648 C2624 0.950 . S
H2649 C2625 0.949 . S
H2650 C2627 0.950 . S
H2651 C2629 0.950 . S
C2652 C2653 1.349 . S
C2652 C2654 1.327 . S
C2652 H2677 0.950 . S
C2653 C2652 1.349 . S
C2653 C2669 1.349 . S
C2654 C2652 1.327 . S
C2654 C2673 1.429 . S
C2654 H2678 0.950 . S
C2655 C2672 1.574 . S
C2655 C2674 1.368 . S
C2655 H2679 0.949 . S
H2656 C2660 0.949 . S
C2657 C2658 1.349 . S
C2657 C2659 1.327 . S
C2657 H2680 0.950 . S
C2658 C2657 1.349 . S
C2658 C2670 1.349 . S
C2659 C2657 1.327 . S
C2659 C2675 1.429 . S
C2659 H2681 0.950 . S
C2660 H2656 0.949 . S
C2660 C2668 1.574 . S
C2660 C2676 1.368 . S
H2661 C2669 0.950 . S
H2662 C2667 0.950 . S
H2663 C2668 0.949 . S
H2664 C2670 0.950 . S
H2665 C2671 0.950 . S
H2666 C2672 0.949 . S
C2667 H2662 0.950 . S
C2667 C2669 1.327 . S
C2667 C2673 1.429 . S
C2668 C2660 1.574 . S
C2668 H2663 0.949 . S
C2668 C2674 1.368 . S
C2669 C2653 1.349 . S
C2669 H2661 0.950 . S
C2669 C2667 1.327 . S
C2670 C2658 1.349 . S
C2670 H2664 0.950 . S
C2670 C2671 1.327 . S
C2671 H2665 0.950 . S
C2671 C2670 1.327 . S
C2671 C2675 1.429 . S
C2672 C2655 1.574 . S
C2672 H2666 0.949 . S
C2672 C2676 1.368 . S
C2673 C2654 1.429 . S
C2673 C2667 1.429 . S
C2673 C2674 1.523 . S
C2674 C2655 1.368 . S
C2674 C2668 1.368 . S
C2674 C2673 1.523 . S
C2675 C2659 1.429 . S
C2675 C2671 1.429 . S
C2675 C2676 1.523 . S
C2676 C2660 1.368 . S
C2676 C2672 1.368 . S
C2676 C2675 1.523 . S
H2677 C2652 0.950 . S
H2678 C2654 0.950 . S
H2679 C2655 0.949 . S
H2680 C2657 0.950 . S
H2681 C2659 0.950 . S
C2682 C2683 1.349 . S
C2682 C2684 1.327 . S
C2682 H2707 0.950 . S
C2683 C2682 1.349 . S
C2683 C2699 1.349 . S
C2684 C2682 1.327 . S
C2684 C2703 1.429 . S
C2684 H2708 0.950 . S
C2685 C2702 1.574 . S
C2685 C2704 1.368 . S
C2685 H2709 0.949 . S
H2686 C2690 0.949 . S
C2687 C2688 1.349 . S
C2687 C2689 1.327 . S
C2687 H2710 0.950 . S
C2688 C2687 1.349 . S
C2688 C2700 1.349 . S
C2689 C2687 1.327 . S
C2689 C2705 1.429 . S
C2689 H2711 0.950 . S
C2690 H2686 0.949 . S
C2690 C2698 1.574 . S
C2690 C2706 1.368 . S
H2691 C2699 0.950 . S
H2692 C2697 0.950 . S
H2693 C2698 0.949 . S
H2694 C2700 0.950 . S
H2695 C2701 0.950 . S
H2696 C2702 0.949 . S
C2697 H2692 0.950 . S
C2697 C2699 1.327 . S
C2697 C2703 1.429 . S
C2698 C2690 1.574 . S
C2698 H2693 0.949 . S
C2698 C2704 1.368 . S
C2699 C2683 1.349 . S
C2699 H2691 0.950 . S
C2699 C2697 1.327 . S
C2700 C2688 1.349 . S
C2700 H2694 0.950 . S
C2700 C2701 1.327 . S
C2701 H2695 0.950 . S
C2701 C2700 1.327 . S
C2701 C2705 1.429 . S
C2702 C2685 1.574 . S
C2702 H2696 0.949 . S
C2702 C2706 1.368 . S
C2703 C2684 1.429 . S
C2703 C2697 1.429 . S
C2703 C2704 1.523 . S
C2704 C2685 1.368 . S
C2704 C2698 1.368 . S
C2704 C2703 1.523 . S
C2705 C2689 1.429 . S
C2705 C2701 1.429 . S
C2705 C2706 1.523 . S
C2706 C2690 1.368 . S
C2706 C2702 1.368 . S
C2706 C2705 1.523 . S
H2707 C2682 0.950 . S
H2708 C2684 0.950 . S
H2709 C2685 0.949 . S
H2710 C2687 0.950 . S
H2711 C2689 0.950 . S
C2712 C2713 1.349 . S
C2712 C2714 1.327 . S
C2712 H2737 0.950 . S
C2713 C2712 1.349 . S
C2713 C2729 1.349 . S
C2714 C2712 1.327 . S
C2714 C2733 1.429 . S
C2714 H2738 0.950 . S
C2715 C2732 1.574 . S
C2715 C2734 1.368 . S
C2715 H2739 0.949 . S
H2716 C2720 0.949 . S
C2717 C2718 1.349 . S
C2717 C2719 1.327 . S
C2717 H2740 0.950 . S
C2718 C2717 1.349 . S
C2718 C2730 1.349 . S
C2719 C2717 1.327 . S
C2719 C2735 1.429 . S
C2719 H2741 0.950 . S
C2720 H2716 0.949 . S
C2720 C2728 1.574 . S
C2720 C2736 1.368 . S
H2721 C2729 0.950 . S
H2722 C2727 0.950 . S
H2723 C2728 0.949 . S
H2724 C2730 0.950 . S
H2725 C2731 0.950 . S
H2726 C2732 0.949 . S
C2727 H2722 0.950 . S
C2727 C2729 1.327 . S
C2727 C2733 1.429 . S
C2728 C2720 1.574 . S
C2728 H2723 0.949 . S
C2728 C2734 1.368 . S
C2729 C2713 1.349 . S
C2729 H2721 0.950 . S
C2729 C2727 1.327 . S
C2730 C2718 1.349 . S
C2730 H2724 0.950 . S
C2730 C2731 1.327 . S
C2731 H2725 0.950 . S
C2731 C2730 1.327 . S
C2731 C2735 1.429 . S
C2732 C2715 1.574 . S
C2732 H2726 0.949 . S
C2732 C2736 1.368 . S
C2733 C2714 1.429 . S
C2733 C2727 1.429 . S
C2733 C2734 1.523 . S
C2734 C2715 1.368 . S
C2734 C2728 1.368 . S
C2734 C2733 1.523 . S
C2735 C2719 1.429 . S
C2735 C2731 1.429 . S
C2735 C2736 1.523 . S
C2736 C2720 1.368 . S
C2736 C2732 1.368 . S
C2736 C2735 1.523 . S
H2737 C2712 0.950 . S
H2738 C2714 0.950 . S
H2739 C2715 0.949 . S
H2740 C2717 0.950 . S
H2741 C2719 0.950 . S
C2742 C2743 1.349 . S
C2742 C2744 1.327 . S
C2742 H2767 0.950 . S
C2743 C2742 1.349 . S
C2743 C2759 1.349 . S
C2744 C2742 1.327 . S
C2744 C2763 1.429 . S
C2744 H2768 0.950 . S
C2745 C2762 1.574 . S
C2745 C2764 1.368 . S
C2745 H2769 0.949 . S
H2746 C2750 0.949 . S
C2747 C2748 1.349 . S
C2747 C2749 1.327 . S
C2747 H2770 0.950 . S
C2748 C2747 1.349 . S
C2748 C2760 1.349 . S
C2749 C2747 1.327 . S
C2749 C2765 1.429 . S
C2749 H2771 0.950 . S
C2750 H2746 0.949 . S
C2750 C2758 1.574 . S
C2750 C2766 1.368 . S
H2751 C2759 0.950 . S
H2752 C2757 0.950 . S
H2753 C2758 0.949 . S
H2754 C2760 0.950 . S
H2755 C2761 0.950 . S
H2756 C2762 0.949 . S
C2757 H2752 0.950 . S
C2757 C2759 1.327 . S
C2757 C2763 1.429 . S
C2758 C2750 1.574 . S
C2758 H2753 0.949 . S
C2758 C2764 1.368 . S
C2759 C2743 1.349 . S
C2759 H2751 0.950 . S
C2759 C2757 1.327 . S
C2760 C2748 1.349 . S
C2760 H2754 0.950 . S
C2760 C2761 1.327 . S
C2761 H2755 0.950 . S
C2761 C2760 1.327 . S
C2761 C2765 1.429 . S
C2762 C2745 1.574 . S
C2762 H2756 0.949 . S
C2762 C2766 1.368 . S
C2763 C2744 1.429 . S
C2763 C2757 1.429 . S
C2763 C2764 1.523 . S
C2764 C2745 1.368 . S
C2764 C2758 1.368 . S
C2764 C2763 1.523 . S
C2765 C2749 1.429 . S
C2765 C2761 1.429 . S
C2765 C2766 1.523 . S
C2766 C2750 1.368 . S
C2766 C2762 1.368 . S
C2766 C2765 1.523 . S
H2767 C2742 0.950 . S
H2768 C2744 0.950 . S
H2769 C2745 0.949 . S
H2770 C2747 0.950 . S
H2771 C2749 0.950 . S
C2772 C2773 1.349 . S
C2772 C2774 1.327 . S
C2772 H2797 0.950 . S
C2773 C2772 1.349 . S
C2773 C2789 1.349 . S
C2774 C2772 1.327 . S
C2774 C2793 1.429 . S
C2774 H2798 0.950 . S
C2775 C2792 1.574 . S
C2775 C2794 1.368 . S
C2775 H2799 0.949 . S
H2776 C2780 0.949 . S
C2777 C2778 1.349 . S
C2777 C2779 1.327 . S
C2777 H2800 0.950 . S
C2778 C2777 1.349 . S
C2778 C2790 1.349 . S
C2779 C2777 1.327 . S
C2779 C2795 1.429 . S
C2779 H2801 0.950 . S
C2780 H2776 0.949 . S
C2780 C2788 1.574 . S
C2780 C2796 1.368 . S
H2781 C2789 0.950 . S
H2782 C2787 0.950 . S
H2783 C2788 0.949 . S
H2784 C2790 0.950 . S
H2785 C2791 0.950 . S
H2786 C2792 0.949 . S
C2787 H2782 0.950 . S
C2787 C2789 1.327 . S
C2787 C2793 1.429 . S
C2788 C2780 1.574 . S
C2788 H2783 0.949 . S
C2788 C2794 1.368 . S
C2789 C2773 1.349 . S
C2789 H2781 0.950 . S
C2789 C2787 1.327 . S
C2790 C2778 1.349 . S
C2790 H2784 0.950 . S
C2790 C2791 1.327 . S
C2791 H2785 0.950 . S
C2791 C2790 1.327 . S
C2791 C2795 1.429 . S
C2792 C2775 1.574 . S
C2792 H2786 0.949 . S
C2792 C2796 1.368 . S
C2793 C2774 1.429 . S
C2793 C2787 1.429 . S
C2793 C2794 1.523 . S
C2794 C2775 1.368 . S
C2794 C2788 1.368 . S
C2794 C2793 1.523 . S
C2795 C2779 1.429 . S
C2795 C2791 1.429 . S
C2795 C2796 1.523 . S
C2796 C2780 1.368 . S
C2796 C2792 1.368 . S
C2796 C2795 1.523 . S
H2797 C2772 0.950 . S
H2798 C2774 0.950 . S
H2799 C2775 0.949 . S
H2800 C2777 0.950 . S
H2801 C2779 0.950 . S
C2802 C2803 1.349 . S
C2802 C2804 1.327 . S
C2802 H2827 0.950 . S
C2803 C2802 1.349 . S
C2803 C2819 1.349 . S
C2804 C2802 1.327 . S
C2804 C2823 1.429 . S
C2804 H2828 0.950 . S
C2805 C2822 1.574 . S
C2805 C2824 1.368 . S
C2805 H2829 0.949 . S
H2806 C2810 0.949 . S
C2807 C2808 1.349 . S
C2807 C2809 1.327 . S
C2807 H2830 0.950 . S
C2808 C2807 1.349 . S
C2808 C2820 1.349 . S
C2809 C2807 1.327 . S
C2809 C2825 1.429 . S
C2809 H2831 0.950 . S
C2810 H2806 0.949 . S
C2810 C2818 1.574 . S
C2810 C2826 1.368 . S
H2811 C2819 0.950 . S
H2812 C2817 0.950 . S
H2813 C2818 0.949 . S
H2814 C2820 0.950 . S
H2815 C2821 0.950 . S
H2816 C2822 0.949 . S
C2817 H2812 0.950 . S
C2817 C2819 1.327 . S
C2817 C2823 1.429 . S
C2818 C2810 1.574 . S
C2818 H2813 0.949 . S
C2818 C2824 1.368 . S
C2819 C2803 1.349 . S
C2819 H2811 0.950 . S
C2819 C2817 1.327 . S
C2820 C2808 1.349 . S
C2820 H2814 0.950 . S
C2820 C2821 1.327 . S
C2821 H2815 0.950 . S
C2821 C2820 1.327 . S
C2821 C2825 1.429 . S
C2822 C2805 1.574 . S
C2822 H2816 0.949 . S
C2822 C2826 1.368 . S
C2823 C2804 1.429 . S
C2823 C2817 1.429 . S
C2823 C2824 1.523 . S
C2824 C2805 1.368 . S
C2824 C2818 1.368 . S
C2824 C2823 1.523 . S
C2825 C2809 1.429 . S
C2825 C2821 1.429 . S
C2825 C2826 1.523 . S
C2826 C2810 1.368 . S
C2826 C2822 1.368 . S
C2826 C2825 1.523 . S
H2827 C2802 0.950 . S
H2828 C2804 0.950 . S
H2829 C2805 0.949 . S
H2830 C2807 0.950 . S
H2831 C2809 0.950 . S
C2832 C2833 1.349 . S
C2832 C2834 1.327 . S
C2832 H2857 0.950 . S
C2833 C2832 1.349 . S
C2833 C2849 1.349 . S
C2834 C2832 1.327 . S
C2834 C2853 1.429 . S
C2834 H2858 0.950 . S
C2835 C2852 1.549 1_554 S
C2835 C2854 1.368 . S
C2835 H2859 0.949 . S
H2836 C2840 0.949 . S
C2837 C2838 1.349 . S
C2837 C2839 1.327 . S
C2837 H2860 0.950 . S
C2838 C2837 1.349 . S
C2838 C2850 1.349 . S
C2839 C2837 1.327 . S
C2839 C2855 1.429 . S
C2839 H2861 0.950 . S
C2840 H2836 0.949 . S
C2840 C2848 1.574 1_556 S
C2840 C2856 1.368 . S
H2841 C2849 0.950 . S
H2842 C2847 0.950 . S
H2843 C2848 0.949 . S
H2844 C2850 0.950 . S
H2845 C2851 0.950 . S
H2846 C2852 0.962 . S
C2847 H2842 0.950 . S
C2847 C2849 1.327 . S
C2847 C2853 1.429 . S
C2848 C2840 1.574 1_554 S
C2848 H2843 0.949 . S
C2848 C2854 1.368 . S
C2849 C2833 1.349 . S
C2849 H2841 0.950 . S
C2849 C2847 1.327 . S
C2850 C2838 1.349 . S
C2850 H2844 0.950 . S
C2850 C2851 1.327 . S
C2851 H2845 0.950 . S
C2851 C2850 1.327 . S
C2851 C2855 1.429 . S
C2852 C2835 1.549 1_556 S
C2852 H2846 0.962 . S
C2852 C2856 1.379 . S
C2853 C2834 1.429 . S
C2853 C2847 1.429 . S
C2853 C2854 1.523 . S
C2854 C2835 1.368 . S
C2854 C2848 1.368 . S
C2854 C2853 1.523 . S
C2855 C2839 1.429 . S
C2855 C2851 1.429 . S
C2855 C2856 1.523 . S
C2856 C2840 1.368 . S
C2856 C2852 1.379 . S
C2856 C2855 1.523 . S
H2857 C2832 0.950 . S
H2858 C2834 0.950 . S
H2859 C2835 0.949 . S
H2860 C2837 0.950 . S
H2861 C2839 0.950 . S
C2862 C2863 1.349 . S
C2862 C2864 1.327 . S
C2862 H2887 0.950 . S
C2863 C2862 1.349 . S
C2863 C2879 1.349 . S
C2864 C2862 1.327 . S
C2864 C2883 1.429 . S
C2864 H2888 0.950 . S
C2865 C2882 1.574 1_556 S
C2865 C2884 1.368 . S
C2865 H2889 0.949 . S
H2866 C2870 0.949 . S
C2867 C2868 1.349 . S
C2867 C2869 1.327 . S
C2867 H2890 0.950 . S
C2868 C2867 1.349 . S
C2868 C2880 1.349 . S
C2869 C2867 1.327 . S
C2869 C2885 1.429 . S
C2869 H2891 0.950 . S
C2870 H2866 0.949 . S
C2870 C2878 1.574 1_554 S
C2870 C2886 1.368 . S
H2871 C2879 0.950 . S
H2872 C2877 0.950 . S
H2873 C2878 0.949 . S
H2874 C2880 0.950 . S
H2875 C2881 0.950 . S
H2876 C2882 0.949 . S
C2877 H2872 0.950 . S
C2877 C2879 1.327 . S
C2877 C2883 1.429 . S
C2878 C2870 1.574 1_556 S
C2878 H2873 0.949 . S
C2878 C2884 1.368 . S
C2879 C2863 1.349 . S
C2879 H2871 0.950 . S
C2879 C2877 1.327 . S
C2880 C2868 1.349 . S
C2880 H2874 0.950 . S
C2880 C2881 1.327 . S
C2881 H2875 0.950 . S
C2881 C2880 1.327 . S
C2881 C2885 1.429 . S
C2882 C2865 1.574 1_554 S
C2882 H2876 0.949 . S
C2882 C2886 1.368 . S
C2883 C2864 1.429 . S
C2883 C2877 1.429 . S
C2883 C2884 1.523 . S
C2884 C2865 1.368 . S
C2884 C2878 1.368 . S
C2884 C2883 1.523 . S
C2885 C2869 1.429 . S
C2885 C2881 1.429 . S
C2885 C2886 1.523 . S
C2886 C2870 1.368 . S
C2886 C2882 1.368 . S
C2886 C2885 1.523 . S
H2887 C2862 0.950 . S
H2888 C2864 0.950 . S
H2889 C2865 0.949 . S
H2890 C2867 0.950 . S
H2891 C2869 0.950 . S
C2892 C2893 1.349 . S
C2892 C2894 1.327 . S
C2892 H2917 0.950 . S
C2893 C2892 1.349 . S
C2893 C2909 1.349 . S
C2894 C2892 1.327 . S
C2894 C2913 1.429 . S
C2894 H2918 0.950 . S
C2895 C2912 1.574 1_554 S
C2895 C2914 1.368 . S
C2895 H2919 0.949 . S
H2896 C2900 0.949 . S
C2897 C2898 1.349 . S
C2897 C2899 1.327 . S
C2897 H2920 0.950 . S
C2898 C2897 1.349 . S
C2898 C2910 1.349 . S
C2899 C2897 1.327 . S
C2899 C2915 1.429 . S
C2899 H2921 0.950 . S
C2900 H2896 0.949 . S
C2900 C2908 1.574 1_556 S
C2900 C2916 1.368 . S
H2901 C2909 0.950 . S
H2902 C2907 0.950 . S
H2903 C2908 0.949 . S
H2904 C2910 0.950 . S
H2905 C2911 0.950 . S
H2906 C2912 0.949 . S
C2907 H2902 0.950 . S
C2907 C2909 1.327 . S
C2907 C2913 1.429 . S
C2908 C2900 1.574 1_554 S
C2908 H2903 0.949 . S
C2908 C2914 1.368 . S
C2909 C2893 1.349 . S
C2909 H2901 0.950 . S
C2909 C2907 1.327 . S
C2910 C2898 1.349 . S
C2910 H2904 0.950 . S
C2910 C2911 1.327 . S
C2911 H2905 0.950 . S
C2911 C2910 1.327 . S
C2911 C2915 1.429 . S
C2912 C2895 1.574 1_556 S
C2912 H2906 0.949 . S
C2912 C2916 1.368 . S
C2913 C2894 1.429 . S
C2913 C2907 1.429 . S
C2913 C2914 1.523 . S
C2914 C2895 1.368 . S
C2914 C2908 1.368 . S
C2914 C2913 1.523 . S
C2915 C2899 1.429 . S
C2915 C2911 1.429 . S
C2915 C2916 1.523 . S
C2916 C2900 1.368 . S
C2916 C2912 1.368 . S
C2916 C2915 1.523 . S
H2917 C2892 0.950 . S
H2918 C2894 0.950 . S
H2919 C2895 0.949 . S
H2920 C2897 0.950 . S
H2921 C2899 0.950 . S
C2922 C2923 1.349 . S
C2922 C2924 1.327 . S
C2922 H2947 0.950 . S
C2923 C2922 1.349 . S
C2923 C2939 1.349 . S
C2924 C2922 1.327 . S
C2924 C2943 1.429 . S
C2924 H2948 0.950 . S
C2925 C2942 1.574 1_554 S
C2925 C2944 1.368 . S
C2925 H2949 0.949 . S
H2926 C2930 0.949 . S
C2927 C2928 1.349 . S
C2927 C2929 1.327 . S
C2927 H2950 0.950 . S
C2928 C2927 1.349 . S
C2928 C2940 1.349 . S
C2929 C2927 1.327 . S
C2929 C2945 1.429 . S
C2929 H2951 0.950 . S
C2930 H2926 0.949 . S
C2930 C2938 1.574 1_556 S
C2930 C2946 1.368 . S
H2931 C2939 0.950 . S
H2932 C2937 0.950 . S
H2933 C2938 0.949 . S
H2934 C2940 0.950 . S
H2935 C2941 0.950 . S
H2936 C2942 0.949 . S
C2937 H2932 0.950 . S
C2937 C2939 1.327 . S
C2937 C2943 1.429 . S
C2938 C2930 1.574 1_554 S
C2938 H2933 0.949 . S
C2938 C2944 1.368 . S
C2939 C2923 1.349 . S
C2939 H2931 0.950 . S
C2939 C2937 1.327 . S
C2940 C2928 1.349 . S
C2940 H2934 0.950 . S
C2940 C2941 1.327 . S
C2941 H2935 0.950 . S
C2941 C2940 1.327 . S
C2941 C2945 1.429 . S
C2942 C2925 1.574 1_556 S
C2942 H2936 0.949 . S
C2942 C2946 1.368 . S
C2943 C2924 1.429 . S
C2943 C2937 1.429 . S
C2943 C2944 1.523 . S
C2944 C2925 1.368 . S
C2944 C2938 1.368 . S
C2944 C2943 1.523 . S
C2945 C2929 1.429 . S
C2945 C2941 1.429 . S
C2945 C2946 1.523 . S
C2946 C2930 1.368 . S
C2946 C2942 1.368 . S
C2946 C2945 1.523 . S
H2947 C2922 0.950 . S
H2948 C2924 0.950 . S
H2949 C2925 0.949 . S
H2950 C2927 0.950 . S
H2951 C2929 0.950 . S
C2952 C2953 1.349 . S
C2952 C2954 1.327 . S
C2952 H2977 0.950 . S
C2953 C2952 1.349 . S
C2953 C2969 1.349 . S
C2954 C2952 1.327 . S
C2954 C2973 1.429 . S
C2954 H2978 0.950 . S
C2955 C2972 1.574 1_556 S
C2955 C2974 1.368 . S
C2955 H2979 0.949 . S
H2956 C2960 0.949 . S
C2957 C2958 1.349 . S
C2957 C2959 1.327 . S
C2957 H2980 0.950 . S
C2958 C2957 1.349 . S
C2958 C2970 1.349 . S
C2959 C2957 1.327 . S
C2959 C2975 1.429 . S
C2959 H2981 0.950 . S
C2960 H2956 0.949 . S
C2960 C2968 1.574 1_554 S
C2960 C2976 1.368 . S
H2961 C2969 0.950 . S
H2962 C2967 0.950 . S
H2963 C2968 0.949 . S
H2964 C2970 0.950 . S
H2965 C2971 0.950 . S
H2966 C2972 0.949 . S
C2967 H2962 0.950 . S
C2967 C2969 1.327 . S
C2967 C2973 1.429 . S
C2968 C2960 1.574 1_556 S
C2968 H2963 0.949 . S
C2968 C2974 1.368 . S
C2969 C2953 1.349 . S
C2969 H2961 0.950 . S
C2969 C2967 1.327 . S
C2970 C2958 1.349 . S
C2970 H2964 0.950 . S
C2970 C2971 1.327 . S
C2971 H2965 0.950 . S
C2971 C2970 1.327 . S
C2971 C2975 1.429 . S
C2972 C2955 1.574 1_554 S
C2972 H2966 0.949 . S
C2972 C2976 1.368 . S
C2973 C2954 1.429 . S
C2973 C2967 1.429 . S
C2973 C2974 1.523 . S
C2974 C2955 1.368 . S
C2974 C2968 1.368 . S
C2974 C2973 1.523 . S
C2975 C2959 1.429 . S
C2975 C2971 1.429 . S
C2975 C2976 1.523 . S
C2976 C2960 1.368 . S
C2976 C2972 1.368 . S
C2976 C2975 1.523 . S
H2977 C2952 0.950 . S
H2978 C2954 0.950 . S
H2979 C2955 0.949 . S
H2980 C2957 0.950 . S
H2981 C2959 0.950 . S
C2982 C2983 1.349 . S
C2982 C2984 1.327 . S
C2982 H3007 0.950 . S
C2983 C2982 1.349 . S
C2983 C2999 1.349 . S
C2984 C2982 1.327 . S
C2984 C3003 1.429 . S
C2984 H3008 0.950 . S
C2985 C3002 1.574 1_554 S
C2985 C3004 1.368 . S
C2985 H3009 0.949 . S
H2986 C2990 0.949 . S
C2987 C2988 1.349 . S
C2987 C2989 1.327 . S
C2987 H3010 0.950 . S
C2988 C2987 1.349 . S
C2988 C3000 1.349 . S
C2989 C2987 1.327 . S
C2989 C3005 1.429 . S
C2989 H3011 0.950 . S
C2990 H2986 0.949 . S
C2990 C2998 1.574 1_556 S
C2990 C3006 1.368 . S
H2991 C2999 0.950 . S
H2992 C2997 0.950 . S
H2993 C2998 0.949 . S
H2994 C3000 0.950 . S
H2995 C3001 0.950 . S
H2996 C3002 0.949 . S
C2997 H2992 0.950 . S
C2997 C2999 1.327 . S
C2997 C3003 1.429 . S
C2998 C2990 1.574 1_554 S
C2998 H2993 0.949 . S
C2998 C3004 1.368 . S
C2999 C2983 1.349 . S
C2999 H2991 0.950 . S
C2999 C2997 1.327 . S
C3000 C2988 1.349 . S
C3000 H2994 0.950 . S
C3000 C3001 1.327 . S
C3001 H2995 0.950 . S
C3001 C3000 1.327 . S
C3001 C3005 1.429 . S
C3002 C2985 1.574 1_556 S
C3002 H2996 0.949 . S
C3002 C3006 1.368 . S
C3003 C2984 1.429 . S
C3003 C2997 1.429 . S
C3003 C3004 1.523 . S
C3004 C2985 1.368 . S
C3004 C2998 1.368 . S
C3004 C3003 1.523 . S
C3005 C2989 1.429 . S
C3005 C3001 1.429 . S
C3005 C3006 1.523 . S
C3006 C2990 1.368 . S
C3006 C3002 1.368 . S
C3006 C3005 1.523 . S
H3007 C2982 0.950 . S
H3008 C2984 0.950 . S
H3009 C2985 0.949 . S
H3010 C2987 0.950 . S
H3011 C2989 0.950 . S
C3012 C3013 1.349 . S
C3012 C3014 1.327 . S
C3012 H3037 0.950 . S
C3013 C3012 1.349 . S
C3013 C3029 1.349 . S
C3014 C3012 1.327 . S
C3014 C3033 1.429 . S
C3014 H3038 0.950 . S
C3015 C3032 1.574 1_556 S
C3015 C3034 1.368 . S
C3015 H3039 0.949 . S
H3016 C3020 0.949 . S
C3017 C3018 1.349 . S
C3017 C3019 1.327 . S
C3017 H3040 0.950 . S
C3018 C3017 1.349 . S
C3018 C3030 1.349 . S
C3019 C3017 1.327 . S
C3019 C3035 1.429 . S
C3019 H3041 0.950 . S
C3020 H3016 0.949 . S
C3020 C3028 1.574 1_554 S
C3020 C3036 1.368 . S
H3021 C3029 0.950 . S
H3022 C3027 0.950 . S
H3023 C3028 0.949 . S
H3024 C3030 0.950 . S
H3025 C3031 0.950 . S
H3026 C3032 0.949 . S
C3027 H3022 0.950 . S
C3027 C3029 1.327 . S
C3027 C3033 1.429 . S
C3028 C3020 1.574 1_556 S
C3028 H3023 0.949 . S
C3028 C3034 1.368 . S
C3029 C3013 1.349 . S
C3029 H3021 0.950 . S
C3029 C3027 1.327 . S
C3030 C3018 1.349 . S
C3030 H3024 0.950 . S
C3030 C3031 1.327 . S
C3031 H3025 0.950 . S
C3031 C3030 1.327 . S
C3031 C3035 1.429 . S
C3032 C3015 1.574 1_554 S
C3032 H3026 0.949 . S
C3032 C3036 1.368 . S
C3033 C3014 1.429 . S
C3033 C3027 1.429 . S
C3033 C3034 1.523 . S
C3034 C3015 1.368 . S
C3034 C3028 1.368 . S
C3034 C3033 1.523 . S
C3035 C3019 1.429 . S
C3035 C3031 1.429 . S
C3035 C3036 1.523 . S
C3036 C3020 1.368 . S
C3036 C3032 1.368 . S
C3036 C3035 1.523 . S
H3037 C3012 0.950 . S
H3038 C3014 0.950 . S
H3039 C3015 0.949 . S
H3040 C3017 0.950 . S
H3041 C3019 0.950 . S
C3042 C3043 1.349 . S
C3042 C3044 1.327 . S
C3042 H3067 0.950 . S
C3043 C3042 1.349 . S
C3043 C3059 1.349 . S
C3044 C3042 1.327 . S
C3044 C3063 1.429 . S
C3044 H3068 0.950 . S
C3045 C3062 1.574 1_554 S
C3045 C3064 1.368 . S
C3045 H3069 0.949 . S
H3046 C3050 0.949 . S
C3047 C3048 1.349 . S
C3047 C3049 1.327 . S
C3047 H3070 0.950 . S
C3048 C3047 1.349 . S
C3048 C3060 1.349 . S
C3049 C3047 1.327 . S
C3049 C3065 1.429 . S
C3049 H3071 0.950 . S
C3050 H3046 0.949 . S
C3050 C3058 1.574 1_556 S
C3050 C3066 1.368 . S
H3051 C3059 0.950 . S
H3052 C3057 0.950 . S
H3053 C3058 0.949 . S
H3054 C3060 0.950 . S
H3055 C3061 0.950 . S
H3056 C3062 0.949 . S
C3057 H3052 0.950 . S
C3057 C3059 1.327 . S
C3057 C3063 1.429 . S
C3058 C3050 1.574 1_554 S
C3058 H3053 0.949 . S
C3058 C3064 1.368 . S
C3059 C3043 1.349 . S
C3059 H3051 0.950 . S
C3059 C3057 1.327 . S
C3060 C3048 1.349 . S
C3060 H3054 0.950 . S
C3060 C3061 1.327 . S
C3061 H3055 0.950 . S
C3061 C3060 1.327 . S
C3061 C3065 1.429 . S
C3062 C3045 1.574 1_556 S
C3062 H3056 0.949 . S
C3062 C3066 1.368 . S
C3063 C3044 1.429 . S
C3063 C3057 1.429 . S
C3063 C3064 1.523 . S
C3064 C3045 1.368 . S
C3064 C3058 1.368 . S
C3064 C3063 1.523 . S
C3065 C3049 1.429 . S
C3065 C3061 1.429 . S
C3065 C3066 1.523 . S
C3066 C3050 1.368 . S
C3066 C3062 1.368 . S
C3066 C3065 1.523 . S
H3067 C3042 0.950 . S
H3068 C3044 0.950 . S
H3069 C3045 0.949 . S
H3070 C3047 0.950 . S
H3071 C3049 0.950 . S
C3072 C3073 1.349 . S
C3072 C3074 1.327 . S
C3072 H3097 0.950 . S
C3073 C3072 1.349 . S
C3073 C3089 1.349 . S
C3074 C3072 1.327 . S
C3074 C3093 1.429 . S
C3074 H3098 0.950 . S
C3075 C3092 1.574 1_455 S
C3075 C3094 1.368 . S
C3075 H3099 0.949 . S
H3076 C3080 0.949 . S
C3077 C3078 1.349 . S
C3077 C3079 1.327 . S
C3077 H3100 0.950 . S
C3078 C3077 1.349 . S
C3078 C3090 1.349 . S
C3079 C3077 1.327 . S
C3079 C3095 1.429 . S
C3079 H3101 0.950 . S
C3080 H3076 0.949 . S
C3080 C3088 1.574 . S
C3080 C3096 1.368 . S
H3081 C3089 0.950 . S
H3082 C3087 0.950 . S
H3083 C3088 0.949 1_455 S
H3084 C3090 0.950 . S
H3085 C3091 0.950 . S
H3086 C3092 0.949 . S
C3087 H3082 0.950 . S
C3087 C3089 1.327 . S
C3087 C3093 1.429 . S
C3088 C3080 1.574 . S
C3088 H3083 0.949 1_655 S
C3088 C3094 1.368 1_655 S
C3089 C3073 1.349 . S
C3089 H3081 0.950 . S
C3089 C3087 1.327 . S
C3090 C3078 1.349 . S
C3090 H3084 0.950 . S
C3090 C3091 1.327 . S
C3091 H3085 0.950 . S
C3091 C3090 1.327 . S
C3091 C3095 1.429 . S
C3092 C3075 1.574 1_655 S
C3092 H3086 0.949 . S
C3092 C3096 1.368 . S
C3093 C3074 1.429 . S
C3093 C3087 1.429 . S
C3093 C3094 1.523 . S
C3094 C3075 1.368 . S
C3094 C3088 1.368 1_455 S
C3094 C3093 1.523 . S
C3095 C3079 1.429 . S
C3095 C3091 1.429 . S
C3095 C3096 1.523 . S
C3096 C3080 1.368 . S
C3096 C3092 1.368 . S
C3096 C3095 1.523 . S
H3097 C3072 0.950 . S
H3098 C3074 0.950 . S
H3099 C3075 0.949 . S
H3100 C3077 0.950 . S
H3101 C3079 0.950 . S
C3102 C3103 1.349 . S
C3102 C3104 1.327 . S
C3102 H3127 0.950 . S
C3103 C3102 1.349 . S
C3103 C3119 1.349 . S
C3104 C3102 1.327 . S
C3104 C3123 1.429 . S
C3104 H3128 0.950 . S
C3105 C3122 1.574 1_565 S
C3105 C3124 1.368 . S
C3105 H3129 0.949 . S
H3106 C3110 0.949 . S
C3107 C3108 1.349 . S
C3107 C3109 1.327 . S
C3107 H3130 0.950 . S
C3108 C3107 1.349 . S
C3108 C3120 1.349 . S
C3109 C3107 1.327 . S
C3109 C3125 1.429 . S
C3109 H3131 0.950 . S
C3110 H3106 0.949 . S
C3110 C3118 1.574 1_545 S
C3110 C3126 1.368 . S
H3111 C3119 0.950 . S
H3112 C3117 0.950 . S
H3113 C3118 0.949 . S
H3114 C3120 0.950 . S
H3115 C3121 0.950 . S
H3116 C3122 0.949 . S
C3117 H3112 0.950 . S
C3117 C3119 1.327 . S
C3117 C3123 1.429 . S
C3118 C3110 1.574 1_565 S
C3118 H3113 0.949 . S
C3118 C3124 1.368 . S
C3119 C3103 1.349 . S
C3119 H3111 0.950 . S
C3119 C3117 1.327 . S
C3120 C3108 1.349 . S
C3120 H3114 0.950 . S
C3120 C3121 1.327 . S
C3121 H3115 0.950 . S
C3121 C3120 1.327 . S
C3121 C3125 1.429 . S
C3122 C3105 1.574 1_545 S
C3122 H3116 0.949 . S
C3122 C3126 1.368 . S
C3123 C3104 1.429 . S
C3123 C3117 1.429 . S
C3123 C3124 1.523 . S
C3124 C3105 1.368 . S
C3124 C3118 1.368 . S
C3124 C3123 1.523 . S
C3125 C3109 1.429 . S
C3125 C3121 1.429 . S
C3125 C3126 1.523 . S
C3126 C3110 1.368 . S
C3126 C3122 1.368 . S
C3126 C3125 1.523 . S
H3127 C3102 0.950 . S
H3128 C3104 0.950 . S
H3129 C3105 0.949 . S
H3130 C3107 0.950 . S
H3131 C3109 0.950 . S
C3132 C3133 1.349 . S
C3132 C3134 1.327 . S
C3132 H3157 0.950 . S
C3133 C3132 1.349 . S
C3133 C3149 1.349 . S
C3134 C3132 1.327 . S
C3134 C3153 1.429 . S
C3134 H3158 0.950 . S
C3135 C3152 1.505 1_455 S
C3135 C3154 1.368 . S
C3135 H3159 0.949 . S
H3136 C3140 0.962 . S
C3137 C3138 1.349 . S
C3137 C3139 1.327 . S
C3137 H3160 0.950 . S
C3138 C3137 1.349 . S
C3138 C3150 1.349 . S
C3139 C3137 1.327 . S
C3139 C3155 1.429 . S
C3139 H3161 0.950 . S
C3140 H3136 0.962 . S
C3140 C3148 1.551 1_655 S
C3140 C3156 1.378 . S
H3141 C3149 0.950 . S
H3142 C3147 0.950 . S
H3143 C3148 0.949 . S
H3144 C3150 0.950 . S
H3145 C3151 0.950 . S
H3146 C3152 0.990 . S
C3147 H3142 0.950 . S
C3147 C3149 1.327 . S
C3147 C3153 1.429 . S
C3148 C3140 1.551 1_455 S
C3148 H3143 0.949 . S
C3148 C3154 1.368 . S
C3149 C3133 1.349 . S
C3149 H3141 0.950 . S
C3149 C3147 1.327 . S
C3150 C3138 1.349 . S
C3150 H3144 0.950 . S
C3150 C3151 1.327 . S
C3151 H3145 0.950 . S
C3151 C3150 1.327 . S
C3151 C3155 1.429 . S
C3152 C3135 1.505 1_655 S
C3152 H3146 0.990 . S
C3152 C3156 1.395 . S
C3153 C3134 1.429 . S
C3153 C3147 1.429 . S
C3153 C3154 1.523 . S
C3154 C3135 1.368 . S
C3154 C3148 1.368 . S
C3154 C3153 1.523 . S
C3155 C3139 1.429 . S
C3155 C3151 1.429 . S
C3155 C3156 1.523 . S
C3156 C3140 1.378 . S
C3156 C3152 1.395 . S
C3156 C3155 1.523 . S
H3157 C3132 0.950 . S
H3158 C3134 0.950 . S
H3159 C3135 0.949 . S
H3160 C3137 0.950 . S
H3161 C3139 0.950 . S
C3162 C3163 1.349 . S
C3162 C3164 1.327 . S
C3162 H3187 0.950 . S
C3163 C3162 1.349 . S
C3163 C3179 1.349 . S
C3164 C3162 1.327 . S
C3164 C3183 1.429 . S
C3164 H3188 0.950 . S
C3165 C3182 1.574 1_565 S
C3165 C3184 1.368 . S
C3165 H3189 0.949 . S
H3166 C3170 0.949 . S
C3167 C3168 1.349 . S
C3167 C3169 1.327 . S
C3167 H3190 0.950 . S
C3168 C3167 1.349 . S
C3168 C3180 1.349 . S
C3169 C3167 1.327 . S
C3169 C3185 1.429 . S
C3169 H3191 0.950 . S
C3170 H3166 0.949 . S
C3170 C3178 1.574 1_545 S
C3170 C3186 1.368 . S
H3171 C3179 0.950 . S
H3172 C3177 0.950 . S
H3173 C3178 0.949 . S
H3174 C3180 0.950 . S
H3175 C3181 0.950 . S
H3176 C3182 0.949 . S
C3177 H3172 0.950 . S
C3177 C3179 1.327 . S
C3177 C3183 1.429 . S
C3178 C3170 1.574 1_565 S
C3178 H3173 0.949 . S
C3178 C3184 1.368 . S
C3179 C3163 1.349 . S
C3179 H3171 0.950 . S
C3179 C3177 1.327 . S
C3180 C3168 1.349 . S
C3180 H3174 0.950 . S
C3180 C3181 1.327 . S
C3181 H3175 0.950 . S
C3181 C3180 1.327 . S
C3181 C3185 1.429 . S
C3182 C3165 1.574 1_545 S
C3182 H3176 0.949 . S
C3182 C3186 1.368 . S
C3183 C3164 1.429 . S
C3183 C3177 1.429 . S
C3183 C3184 1.523 . S
C3184 C3165 1.368 . S
C3184 C3178 1.368 . S
C3184 C3183 1.523 . S
C3185 C3169 1.429 . S
C3185 C3181 1.429 . S
C3185 C3186 1.523 . S
C3186 C3170 1.368 . S
C3186 C3182 1.368 . S
C3186 C3185 1.523 . S
H3187 C3162 0.950 . S
H3188 C3164 0.950 . S
H3189 C3165 0.949 . S
H3190 C3167 0.950 . S
H3191 C3169 0.950 . S
C3192 C3193 1.349 . S
C3192 C3194 1.327 . S
C3192 H3217 0.950 . S
C3193 C3192 1.349 . S
C3193 C3209 1.349 . S
C3194 C3192 1.327 . S
C3194 C3213 1.429 . S
C3194 H3218 0.950 . S
C3195 C3212 1.574 1_655 S
C3195 C3214 1.368 . S
C3195 H3219 0.949 . S
H3196 C3200 0.949 . S
C3197 C3198 1.349 . S
C3197 C3199 1.327 . S
C3197 H3220 0.950 . S
C3198 C3197 1.349 . S
C3198 C3210 1.349 . S
C3199 C3197 1.327 . S
C3199 C3215 1.429 . S
C3199 H3221 0.950 . S
C3200 H3196 0.949 . S
C3200 C3208 1.574 1_455 S
C3200 C3216 1.368 . S
H3201 C3209 0.950 . S
H3202 C3207 0.950 . S
H3203 C3208 0.949 . S
H3204 C3210 0.950 . S
H3205 C3211 0.950 . S
H3206 C3212 0.949 . S
C3207 H3202 0.950 . S
C3207 C3209 1.327 . S
C3207 C3213 1.429 . S
C3208 C3200 1.574 1_655 S
C3208 H3203 0.949 . S
C3208 C3214 1.368 . S
C3209 C3193 1.349 . S
C3209 H3201 0.950 . S
C3209 C3207 1.327 . S
C3210 C3198 1.349 . S
C3210 H3204 0.950 . S
C3210 C3211 1.327 . S
C3211 H3205 0.950 . S
C3211 C3210 1.327 . S
C3211 C3215 1.429 . S
C3212 C3195 1.574 1_455 S
C3212 H3206 0.949 . S
C3212 C3216 1.368 . S
C3213 C3194 1.429 . S
C3213 C3207 1.429 . S
C3213 C3214 1.523 . S
C3214 C3195 1.368 . S
C3214 C3208 1.368 . S
C3214 C3213 1.523 . S
C3215 C3199 1.429 . S
C3215 C3211 1.429 . S
C3215 C3216 1.523 . S
C3216 C3200 1.368 . S
C3216 C3212 1.368 . S
C3216 C3215 1.523 . S
H3217 C3192 0.950 . S
H3218 C3194 0.950 . S
H3219 C3195 0.949 . S
H3220 C3197 0.950 . S
H3221 C3199 0.950 . S
C3222 C3223 1.349 . S
C3222 C3224 1.327 . S
C3222 H3247 0.950 . S
C3223 C3222 1.349 . S
C3223 C3239 1.349 . S
C3224 C3222 1.327 . S
C3224 C3243 1.429 . S
C3224 H3248 0.950 . S
C3225 C3242 1.574 1_545 S
C3225 C3244 1.368 . S
C3225 H3249 0.949 . S
H3226 C3230 0.949 . S
C3227 C3228 1.349 . S
C3227 C3229 1.327 . S
C3227 H3250 0.950 . S
C3228 C3227 1.349 . S
C3228 C3240 1.349 . S
C3229 C3227 1.327 . S
C3229 C3245 1.429 . S
C3229 H3251 0.950 . S
C3230 H3226 0.949 . S
C3230 C3238 1.574 1_565 S
C3230 C3246 1.368 . S
H3231 C3239 0.950 . S
H3232 C3237 0.950 . S
H3233 C3238 0.949 . S
H3234 C3240 0.950 . S
H3235 C3241 0.950 . S
H3236 C3242 0.949 . S
C3237 H3232 0.950 . S
C3237 C3239 1.327 . S
C3237 C3243 1.429 . S
C3238 C3230 1.574 1_545 S
C3238 H3233 0.949 . S
C3238 C3244 1.368 . S
C3239 C3223 1.349 . S
C3239 H3231 0.950 . S
C3239 C3237 1.327 . S
C3240 C3228 1.349 . S
C3240 H3234 0.950 . S
C3240 C3241 1.327 . S
C3241 H3235 0.950 . S
C3241 C3240 1.327 . S
C3241 C3245 1.429 . S
C3242 C3225 1.574 1_565 S
C3242 H3236 0.949 . S
C3242 C3246 1.368 . S
C3243 C3224 1.429 . S
C3243 C3237 1.429 . S
C3243 C3244 1.523 . S
C3244 C3225 1.368 . S
C3244 C3238 1.368 . S
C3244 C3243 1.523 . S
C3245 C3229 1.429 . S
C3245 C3241 1.429 . S
C3245 C3246 1.523 . S
C3246 C3230 1.368 . S
C3246 C3242 1.368 . S
C3246 C3245 1.523 . S
H3247 C3222 0.950 . S
H3248 C3224 0.950 . S
H3249 C3225 0.949 . S
H3250 C3227 0.950 . S
H3251 C3229 0.950 . S
C3252 C3253 1.349 . S
C3252 C3254 1.327 . S
C3252 H3277 0.950 . S
C3253 C3252 1.349 . S
C3253 C3269 1.349 . S
C3254 C3252 1.327 . S
C3254 C3273 1.429 . S
C3254 H3278 0.950 . S
C3255 C3272 1.587 . S
C3255 C3274 1.368 . S
C3255 H3279 0.949 . S
H3256 C3260 0.918 1_655 S
C3257 C3258 1.349 . S
C3257 C3259 1.327 . S
C3257 H3280 0.950 . S
C3258 C3257 1.349 . S
C3258 C3270 1.349 . S
C3259 C3257 1.327 . S
C3259 C3275 1.429 . S
C3259 H3281 0.950 . S
C3260 H3256 0.918 1_455 S
C3260 C3268 1.635 . S
C3260 C3276 1.345 1_455 S
H3261 C3269 0.950 . S
H3262 C3267 0.950 . S
H3263 C3268 0.949 . S
H3264 C3270 0.950 . S
H3265 C3271 0.950 . S
H3266 C3272 0.942 1_655 S
C3267 H3262 0.950 . S
C3267 C3269 1.327 . S
C3267 C3273 1.429 . S
C3268 C3260 1.635 . S
C3268 H3263 0.949 . S
C3268 C3274 1.368 . S
C3269 C3253 1.349 . S
C3269 H3261 0.950 . S
C3269 C3267 1.327 . S
C3270 C3258 1.349 . S
C3270 H3264 0.950 . S
C3270 C3271 1.327 . S
C3271 H3265 0.950 . S
C3271 C3270 1.327 . S
C3271 C3275 1.429 . S
C3272 C3255 1.587 . S
C3272 H3266 0.942 1_455 S
C3272 C3276 1.364 1_455 S
C3273 C3254 1.429 . S
C3273 C3267 1.429 . S
C3273 C3274 1.523 . S
C3274 C3255 1.368 . S
C3274 C3268 1.368 . S
C3274 C3273 1.523 . S
C3275 C3259 1.429 . S
C3275 C3271 1.429 . S
C3275 C3276 1.523 . S
C3276 C3260 1.345 1_655 S
C3276 C3272 1.364 1_655 S
C3276 C3275 1.523 . S
H3277 C3252 0.950 . S
H3278 C3254 0.950 . S
H3279 C3255 0.949 . S
H3280 C3257 0.950 . S
H3281 C3259 0.950 . S
C3282 C3283 1.349 . S
C3282 C3284 1.327 . S
C3282 H3307 0.950 . S
C3283 C3282 1.349 . S
C3283 C3299 1.349 . S
C3284 C3282 1.327 . S
C3284 C3303 1.429 . S
C3284 H3308 0.950 . S
C3285 C3302 1.574 1_545 S
C3285 C3304 1.368 . S
C3285 H3309 0.949 . S
H3286 C3290 0.949 . S
C3287 C3288 1.349 . S
C3287 C3289 1.327 . S
C3287 H3310 0.950 . S
C3288 C3287 1.349 . S
C3288 C3300 1.349 . S
C3289 C3287 1.327 . S
C3289 C3305 1.429 . S
C3289 H3311 0.950 . S
C3290 H3286 0.949 . S
C3290 C3298 1.574 1_565 S
C3290 C3306 1.368 . S
H3291 C3299 0.950 . S
H3292 C3297 0.950 . S
H3293 C3298 0.949 . S
H3294 C3300 0.950 . S
H3295 C3301 0.950 . S
H3296 C3302 0.949 . S
C3297 H3292 0.950 . S
C3297 C3299 1.327 . S
C3297 C3303 1.429 . S
C3298 C3290 1.574 1_545 S
C3298 H3293 0.949 . S
C3298 C3304 1.368 . S
C3299 C3283 1.349 . S
C3299 H3291 0.950 . S
C3299 C3297 1.327 . S
C3300 C3288 1.349 . S
C3300 H3294 0.950 . S
C3300 C3301 1.327 . S
C3301 H3295 0.950 . S
C3301 C3300 1.327 . S
C3301 C3305 1.429 . S
C3302 C3285 1.574 1_565 S
C3302 H3296 0.949 . S
C3302 C3306 1.368 . S
C3303 C3284 1.429 . S
C3303 C3297 1.429 . S
C3303 C3304 1.523 . S
C3304 C3285 1.368 . S
C3304 C3298 1.368 . S
C3304 C3303 1.523 . S
C3305 C3289 1.429 . S
C3305 C3301 1.429 . S
C3305 C3306 1.523 . S
C3306 C3290 1.368 . S
C3306 C3302 1.368 . S
C3306 C3305 1.523 . S
H3307 C3282 0.950 . S
H3308 C3284 0.950 . S
H3309 C3285 0.949 . S
H3310 C3287 0.950 . S
H3311 C3289 0.950 . S
C3312 C3313 1.349 . S
C3312 C3314 1.327 . S
C3312 H3337 0.950 . S
C3313 C3312 1.349 . S
C3313 C3329 1.349 . S
C3314 C3312 1.327 . S
C3314 C3333 1.429 . S
C3314 H3338 0.950 . S
C3315 C3332 1.574 1_545 S
C3315 C3334 1.368 . S
C3315 H3339 0.949 . S
H3316 C3320 0.949 . S
C3317 C3318 1.349 . S
C3317 C3319 1.327 . S
C3317 H3340 0.950 . S
C3318 C3317 1.349 . S
C3318 C3330 1.349 . S
C3319 C3317 1.327 . S
C3319 C3335 1.429 . S
C3319 H3341 0.950 . S
C3320 H3316 0.949 . S
C3320 C3328 1.574 1_565 S
C3320 C3336 1.368 . S
H3321 C3329 0.950 . S
H3322 C3327 0.950 . S
H3323 C3328 0.949 . S
H3324 C3330 0.950 . S
H3325 C3331 0.950 . S
H3326 C3332 0.949 . S
C3327 H3322 0.950 . S
C3327 C3329 1.327 . S
C3327 C3333 1.429 . S
C3328 C3320 1.574 1_545 S
C3328 H3323 0.949 . S
C3328 C3334 1.368 . S
C3329 C3313 1.349 . S
C3329 H3321 0.950 . S
C3329 C3327 1.327 . S
C3330 C3318 1.349 . S
C3330 H3324 0.950 . S
C3330 C3331 1.327 . S
C3331 H3325 0.950 . S
C3331 C3330 1.327 . S
C3331 C3335 1.429 . S
C3332 C3315 1.574 1_565 S
C3332 H3326 0.949 . S
C3332 C3336 1.368 . S
C3333 C3314 1.429 . S
C3333 C3327 1.429 . S
C3333 C3334 1.523 . S
C3334 C3315 1.368 . S
C3334 C3328 1.368 . S
C3334 C3333 1.523 . S
C3335 C3319 1.429 . S
C3335 C3331 1.429 . S
C3335 C3336 1.523 . S
C3336 C3320 1.368 . S
C3336 C3332 1.368 . S
C3336 C3335 1.523 . S
H3337 C3312 0.950 . S
H3338 C3314 0.950 . S
H3339 C3315 0.949 . S
H3340 C3317 0.950 . S
H3341 C3319 0.950 . S
C3342 C3343 1.349 . S
C3342 C3344 1.327 . S
C3342 H3367 0.950 . S
C3343 C3342 1.349 . S
C3343 C3359 1.349 . S
C3344 C3342 1.327 . S
C3344 C3363 1.429 . S
C3344 H3368 0.950 . S
C3345 C3362 1.574 1_545 S
C3345 C3364 1.368 . S
C3345 H3369 0.949 . S
H3346 C3350 0.949 . S
C3347 C3348 1.349 . S
C3347 C3349 1.327 . S
C3347 H3370 0.950 . S
C3348 C3347 1.349 . S
C3348 C3360 1.349 . S
C3349 C3347 1.327 . S
C3349 C3365 1.429 . S
C3349 H3371 0.950 . S
C3350 H3346 0.949 . S
C3350 C3358 1.574 1_565 S
C3350 C3366 1.368 . S
H3351 C3359 0.950 . S
H3352 C3357 0.950 . S
H3353 C3358 0.949 . S
H3354 C3360 0.950 . S
H3355 C3361 0.950 . S
H3356 C3362 0.949 . S
C3357 H3352 0.950 . S
C3357 C3359 1.327 . S
C3357 C3363 1.429 . S
C3358 C3350 1.574 1_545 S
C3358 H3353 0.949 . S
C3358 C3364 1.368 . S
C3359 C3343 1.349 . S
C3359 H3351 0.950 . S
C3359 C3357 1.327 . S
C3360 C3348 1.349 . S
C3360 H3354 0.950 . S
C3360 C3361 1.327 . S
C3361 H3355 0.950 . S
C3361 C3360 1.327 . S
C3361 C3365 1.429 . S
C3362 C3345 1.574 1_565 S
C3362 H3356 0.949 . S
C3362 C3366 1.368 . S
C3363 C3344 1.429 . S
C3363 C3357 1.429 . S
C3363 C3364 1.523 . S
C3364 C3345 1.368 . S
C3364 C3358 1.368 . S
C3364 C3363 1.523 . S
C3365 C3349 1.429 . S
C3365 C3361 1.429 . S
C3365 C3366 1.523 . S
C3366 C3350 1.368 . S
C3366 C3362 1.368 . S
C3366 C3365 1.523 . S
H3367 C3342 0.950 . S
H3368 C3344 0.950 . S
H3369 C3345 0.949 . S
H3370 C3347 0.950 . S
H3371 C3349 0.950 . S
C3372 C3373 1.349 . S
C3372 C3374 1.327 . S
C3372 H3397 0.950 . S
C3373 C3372 1.349 . S
C3373 C3389 1.349 . S
C3374 C3372 1.327 . S
C3374 C3393 1.429 . S
C3374 H3398 0.950 . S
C3375 C3392 1.574 1_655 S
C3375 C3394 1.368 . S
C3375 H3399 0.949 . S
H3376 C3380 0.949 . S
C3377 C3378 1.349 . S
C3377 C3379 1.327 . S
C3377 H3400 0.950 . S
C3378 C3377 1.349 . S
C3378 C3390 1.349 . S
C3379 C3377 1.327 . S
C3379 C3395 1.429 . S
C3379 H3401 0.950 . S
C3380 H3376 0.949 . S
C3380 C3388 1.574 1_455 S
C3380 C3396 1.368 . S
H3381 C3389 0.950 . S
H3382 C3387 0.950 . S
H3383 C3388 0.949 . S
H3384 C3390 0.950 . S
H3385 C3391 0.950 . S
H3386 C3392 0.949 . S
C3387 H3382 0.950 . S
C3387 C3389 1.327 . S
C3387 C3393 1.429 . S
C3388 C3380 1.574 1_655 S
C3388 H3383 0.949 . S
C3388 C3394 1.368 . S
C3389 C3373 1.349 . S
C3389 H3381 0.950 . S
C3389 C3387 1.327 . S
C3390 C3378 1.349 . S
C3390 H3384 0.950 . S
C3390 C3391 1.327 . S
C3391 H3385 0.950 . S
C3391 C3390 1.327 . S
C3391 C3395 1.429 . S
C3392 C3375 1.574 1_455 S
C3392 H3386 0.949 . S
C3392 C3396 1.368 . S
C3393 C3374 1.429 . S
C3393 C3387 1.429 . S
C3393 C3394 1.523 . S
C3394 C3375 1.368 . S
C3394 C3388 1.368 . S
C3394 C3393 1.523 . S
C3395 C3379 1.429 . S
C3395 C3391 1.429 . S
C3395 C3396 1.523 . S
C3396 C3380 1.368 . S
C3396 C3392 1.368 . S
C3396 C3395 1.523 . S
H3397 C3372 0.950 . S
H3398 C3374 0.950 . S
H3399 C3375 0.949 . S
H3400 C3377 0.950 . S
H3401 C3379 0.950 . S
C3402 C3403 1.349 . S
C3402 C3404 1.327 . S
C3402 H3427 0.950 . S
C3403 C3402 1.349 . S
C3403 C3419 1.349 . S
C3404 C3402 1.327 . S
C3404 C3423 1.429 . S
C3404 H3428 0.950 . S
C3405 C3422 1.574 1_545 S
C3405 C3424 1.368 . S
C3405 H3429 0.949 . S
H3406 C3410 0.977 . S
C3407 C3408 1.349 . S
C3407 C3409 1.327 . S
C3407 H3430 0.950 . S
C3408 C3407 1.349 . S
C3408 C3420 1.349 . S
C3409 C3407 1.327 . S
C3409 C3425 1.429 . S
C3409 H3431 0.950 . S
C3410 H3406 0.977 . S
C3410 C3418 1.523 1_565 S
C3410 C3426 1.390 . S
H3411 C3419 0.950 . S
H3412 C3417 0.950 . S
H3413 C3418 0.949 . S
H3414 C3420 0.950 . S
H3415 C3421 0.950 . S
H3416 C3422 0.949 . S
C3417 H3412 0.950 . S
C3417 C3419 1.327 . S
C3417 C3423 1.429 . S
C3418 C3410 1.523 1_545 S
C3418 H3413 0.949 . S
C3418 C3424 1.368 . S
C3419 C3403 1.349 . S
C3419 H3411 0.950 . S
C3419 C3417 1.327 . S
C3420 C3408 1.349 . S
C3420 H3414 0.950 . S
C3420 C3421 1.327 . S
C3421 H3415 0.950 . S
C3421 C3420 1.327 . S
C3421 C3425 1.429 . S
C3422 C3405 1.574 1_565 S
C3422 H3416 0.949 . S
C3422 C3426 1.368 . S
C3423 C3404 1.429 . S
C3423 C3417 1.429 . S
C3423 C3424 1.523 . S
C3424 C3405 1.368 . S
C3424 C3418 1.368 . S
C3424 C3423 1.523 . S
C3425 C3409 1.429 . S
C3425 C3421 1.429 . S
C3425 C3426 1.523 . S
C3426 C3410 1.390 . S
C3426 C3422 1.368 . S
C3426 C3425 1.523 . S
H3427 C3402 0.950 . S
H3428 C3404 0.950 . S
H3429 C3405 0.949 . S
H3430 C3407 0.950 . S
H3431 C3409 0.950 . S
C3432 C3433 1.349 . S
C3432 C3434 1.327 . S
C3432 H3457 0.950 . S
C3433 C3432 1.349 . S
C3433 C3449 1.349 . S
C3434 C3432 1.327 . S
C3434 C3453 1.429 . S
C3434 H3458 0.950 . S
C3435 C3452 1.574 1_455 S
C3435 C3454 1.368 . S
C3435 H3459 0.949 . S
H3436 C3440 0.949 . S
C3437 C3438 1.349 . S
C3437 C3439 1.327 . S
C3437 H3460 0.950 . S
C3438 C3437 1.349 . S
C3438 C3450 1.349 . S
C3439 C3437 1.327 . S
C3439 C3455 1.429 . S
C3439 H3461 0.950 . S
C3440 H3436 0.949 . S
C3440 C3448 1.574 1_655 S
C3440 C3456 1.368 . S
H3441 C3449 0.950 . S
H3442 C3447 0.950 . S
H3443 C3448 0.949 . S
H3444 C3450 0.950 . S
H3445 C3451 0.950 . S
H3446 C3452 0.949 . S
C3447 H3442 0.950 . S
C3447 C3449 1.327 . S
C3447 C3453 1.429 . S
C3448 C3440 1.574 1_455 S
C3448 H3443 0.949 . S
C3448 C3454 1.368 . S
C3449 C3433 1.349 . S
C3449 H3441 0.950 . S
C3449 C3447 1.327 . S
C3450 C3438 1.349 . S
C3450 H3444 0.950 . S
C3450 C3451 1.327 . S
C3451 H3445 0.950 . S
C3451 C3450 1.327 . S
C3451 C3455 1.429 . S
C3452 C3435 1.574 1_655 S
C3452 H3446 0.949 . S
C3452 C3456 1.368 . S
C3453 C3434 1.429 . S
C3453 C3447 1.429 . S
C3453 C3454 1.523 . S
C3454 C3435 1.368 . S
C3454 C3448 1.368 . S
C3454 C3453 1.523 . S
C3455 C3439 1.429 . S
C3455 C3451 1.429 . S
C3455 C3456 1.523 . S
C3456 C3440 1.368 . S
C3456 C3452 1.368 . S
C3456 C3455 1.523 . S
H3457 C3432 0.950 . S
H3458 C3434 0.950 . S
H3459 C3435 0.949 . S
H3460 C3437 0.950 . S
H3461 C3439 0.950 . S
C3462 C3463 1.349 . S
C3462 C3464 1.327 . S
C3462 H3487 0.950 . S
C3463 C3462 1.349 . S
C3463 C3479 1.349 . S
C3464 C3462 1.327 . S
C3464 C3483 1.429 . S
C3464 H3488 0.950 . S
C3465 C3482 1.574 1_545 S
C3465 C3484 1.368 . S
C3465 H3489 0.949 . S
H3466 C3470 0.949 . S
C3467 C3468 1.349 . S
C3467 C3469 1.327 . S
C3467 H3490 0.950 . S
C3468 C3467 1.349 . S
C3468 C3480 1.349 . S
C3469 C3467 1.327 . S
C3469 C3485 1.429 . S
C3469 H3491 0.950 . S
C3470 H3466 0.949 . S
C3470 C3478 1.574 1_565 S
C3470 C3486 1.368 . S
H3471 C3479 0.950 . S
H3472 C3477 0.950 . S
H3473 C3478 0.949 . S
H3474 C3480 0.950 . S
H3475 C3481 0.950 . S
H3476 C3482 0.949 . S
C3477 H3472 0.950 . S
C3477 C3479 1.327 . S
C3477 C3483 1.429 . S
C3478 C3470 1.574 1_545 S
C3478 H3473 0.949 . S
C3478 C3484 1.368 . S
C3479 C3463 1.349 . S
C3479 H3471 0.950 . S
C3479 C3477 1.327 . S
C3480 C3468 1.349 . S
C3480 H3474 0.950 . S
C3480 C3481 1.327 . S
C3481 H3475 0.950 . S
C3481 C3480 1.327 . S
C3481 C3485 1.429 . S
C3482 C3465 1.574 1_565 S
C3482 H3476 0.949 . S
C3482 C3486 1.368 . S
C3483 C3464 1.429 . S
C3483 C3477 1.429 . S
C3483 C3484 1.523 . S
C3484 C3465 1.368 . S
C3484 C3478 1.368 . S
C3484 C3483 1.523 . S
C3485 C3469 1.429 . S
C3485 C3481 1.429 . S
C3485 C3486 1.523 . S
C3486 C3470 1.368 . S
C3486 C3482 1.368 . S
C3486 C3485 1.523 . S
H3487 C3462 0.950 . S
H3488 C3464 0.950 . S
H3489 C3465 0.949 . S
H3490 C3467 0.950 . S
H3491 C3469 0.950 . S
C3492 C3493 1.349 . S
C3492 C3494 1.327 . S
C3492 H3517 0.950 . S
C3493 C3492 1.349 . S
C3493 C3509 1.349 . S
C3494 C3492 1.327 . S
C3494 C3513 1.429 . S
C3494 H3518 0.950 . S
C3495 C3512 1.574 1_655 S
C3495 C3514 1.368 . S
C3495 H3519 0.949 . S
H3496 C3500 0.949 . S
C3497 C3498 1.349 . S
C3497 C3499 1.327 . S
C3497 H3520 0.950 . S
C3498 C3497 1.349 . S
C3498 C3510 1.349 . S
C3499 C3497 1.327 . S
C3499 C3515 1.429 . S
C3499 H3521 0.950 . S
C3500 H3496 0.949 . S
C3500 C3508 1.574 1_455 S
C3500 C3516 1.368 . S
H3501 C3509 0.950 . S
H3502 C3507 0.950 . S
H3503 C3508 0.949 . S
H3504 C3510 0.950 . S
H3505 C3511 0.950 . S
H3506 C3512 0.949 . S
C3507 H3502 0.950 . S
C3507 C3509 1.327 . S
C3507 C3513 1.429 . S
C3508 C3500 1.574 1_655 S
C3508 H3503 0.949 . S
C3508 C3514 1.368 . S
C3509 C3493 1.349 . S
C3509 H3501 0.950 . S
C3509 C3507 1.327 . S
C3510 C3498 1.349 . S
C3510 H3504 0.950 . S
C3510 C3511 1.327 . S
C3511 H3505 0.950 . S
C3511 C3510 1.327 . S
C3511 C3515 1.429 . S
C3512 C3495 1.574 1_455 S
C3512 H3506 0.949 . S
C3512 C3516 1.368 . S
C3513 C3494 1.429 . S
C3513 C3507 1.429 . S
C3513 C3514 1.523 . S
C3514 C3495 1.368 . S
C3514 C3508 1.368 . S
C3514 C3513 1.523 . S
C3515 C3499 1.429 . S
C3515 C3511 1.429 . S
C3515 C3516 1.523 . S
C3516 C3500 1.368 . S
C3516 C3512 1.368 . S
C3516 C3515 1.523 . S
H3517 C3492 0.950 . S
H3518 C3494 0.950 . S
H3519 C3495 0.949 . S
H3520 C3497 0.950 . S
H3521 C3499 0.950 . S
C3522 C3523 1.349 . S
C3522 C3524 1.327 . S
C3522 H3547 0.950 . S
C3523 C3522 1.349 . S
C3523 C3539 1.349 . S
C3524 C3522 1.327 . S
C3524 C3543 1.429 . S
C3524 H3548 0.950 . S
C3525 C3542 1.574 1_455 S
C3525 C3544 1.368 . S
C3525 H3549 0.949 . S
H3526 C3530 0.949 . S
C3527 C3528 1.349 . S
C3527 C3529 1.327 . S
C3527 H3550 0.950 . S
C3528 C3527 1.349 . S
C3528 C3540 1.349 . S
C3529 C3527 1.327 . S
C3529 C3545 1.429 . S
C3529 H3551 0.950 . S
C3530 H3526 0.949 . S
C3530 C3538 1.574 1_655 S
C3530 C3546 1.368 . S
H3531 C3539 0.950 . S
H3532 C3537 0.950 . S
H3533 C3538 0.949 . S
H3534 C3540 0.950 . S
H3535 C3541 0.950 . S
H3536 C3542 0.949 . S
C3537 H3532 0.950 . S
C3537 C3539 1.327 . S
C3537 C3543 1.429 . S
C3538 C3530 1.574 1_455 S
C3538 H3533 0.949 . S
C3538 C3544 1.368 . S
C3539 C3523 1.349 . S
C3539 H3531 0.950 . S
C3539 C3537 1.327 . S
C3540 C3528 1.349 . S
C3540 H3534 0.950 . S
C3540 C3541 1.327 . S
C3541 H3535 0.950 . S
C3541 C3540 1.327 . S
C3541 C3545 1.429 . S
C3542 C3525 1.574 1_655 S
C3542 H3536 0.949 . S
C3542 C3546 1.368 . S
C3543 C3524 1.429 . S
C3543 C3537 1.429 . S
C3543 C3544 1.523 . S
C3544 C3525 1.368 . S
C3544 C3538 1.368 . S
C3544 C3543 1.523 . S
C3545 C3529 1.429 . S
C3545 C3541 1.429 . S
C3545 C3546 1.523 . S
C3546 C3530 1.368 . S
C3546 C3542 1.368 . S
C3546 C3545 1.523 . S
H3547 C3522 0.950 . S
H3548 C3524 0.950 . S
H3549 C3525 0.949 . S
H3550 C3527 0.950 . S
H3551 C3529 0.950 . S
C673 C557 0.996 . S
C678 C5 0.934 . S
C703 C25 1.187 . S
C708 C509 1.085 . S
C733 C33 1.000 . S
C738 C529 1.077 . S
C763 C537 1.084 . S
C768 C53 1.185 . S
C793 C473 1.120 . S
C798 C67 1.110 . S
C823 C75 0.987 . S
C828 C481 0.981 . S
C853 C95 1.111 . S
C858 C501 1.120 . S
C883 C103 0.920 . S
C888 C453 0.922 . S
C913 C117 0.966 . S
C918 C439 0.975 . S
C943 C403 1.144 . S
C948 C137 1.135 . S
C973 C411 0.976 . S
C978 C145 0.967 . S
C1003 C159 1.049 . S
C1008 C431 1.131 . S
C1033 C173 1.007 . S
C1038 C361 1.099 . S
C1063 C187 0.967 . S
C1068 C375 1.031 . S
C1093 C389 1.121 . S
C1098 C207 1.122 . S
C1123 C347 1.031 . S
C1128 C215 0.968 . S
C1153 C235 1.041 . S
C1158 C621 0.971 . S
C1183 C663 1.106 . S
C1188 C243 1.101 . S
C1213 C641 1.078 . S
C1218 C263 1.086 . S
C1243 C649 1.076 . S
C1248 C271 1.066 . S
C1273 C571 1.050 . S
C1278 C291 1.059 . S
C1303 C593 0.998 . S
C1308 C305 1.069 . S
C1333 C313 1.035 . S
C1338 C607 1.044 . S
C1363 C579 1.011 . S
C1368 C327 0.997 . S
C1393 C459 1.009 . S
C1398 C285 0.942 . S
C1423 C249 1.210 . S
C1428 C467 1.121 . S
C1453 C487 1.089 . S
C1458 C257 1.009 . S
C1483 C495 1.122 . S
C1488 C277 1.210 . S
C1513 C333 1.117 . S
C1518 C515 1.118 . S
C1543 C523 0.990 . S
C1548 C299 0.994 . S
C1573 C319 1.116 . S
C1578 C543 1.117 . S
C1603 C229 0.928 . S
C1608 C551 0.931 . S
C1633 C565 0.975 . S
C1638 C221 1.049 . S
C1663 C179 1.145 . S
C1668 C669 1.154 . S
C1693 C635 0.976 . S
C1698 C193 1.051 . S
C1723 C201 1.057 . S
C1728 C655 1.141 . S
C1753 C131 1.013 . S
C1758 C585 1.105 . S
C1783 C151 1.012 . S
C1788 C599 1.012 . S
C1813 C165 1.127 . S
C1818 C613 1.126 . S
C1843 C627 1.011 . S
C1848 C123 1.011 . S
C1873 C341 0.952 . S
C1878 C109 1.018 . S
C1903 C397 1.079 . S
C1908 C19 1.081 . S
C1933 C417 1.047 . S
C1938 C39 1.053 . S
C1963 C425 1.048 . S
C1968 C47 1.044 . S
C1993 C445 1.019 . S
C1998 C11 1.027 . S
C2023 C81 1.045 . S
C2028 C369 0.978 . S
C2053 C383 1.021 . S
C2058 C89 1.019 . S
C2083 C355 0.988 . S
C2088 C61 0.979 . S
C2113 C12 1.037 . S
C2118 C368 1.026 . S
C2143 C382 1.153 . S
C2148 C18 1.157 . S
C2173 C40 1.033 . S
C2178 C340 1.023 . S
C2203 C46 1.161 . S
C2208 C354 1.160 . S
C2233 C60 1.118 . S
C2238 C424 1.125 . S
C2263 C446 0.872 . S
C2268 C82 0.871 . S
C2293 C88 1.109 . S
C2298 C396 1.114 . S
C2323 C418 0.875 . S
C2328 C110 0.874 . S
C2353 C124 1.158 . S
C2358 C516 1.157 . S
C2383 C522 1.149 . S
C2388 C130 1.139 . S
C2413 C152 1.166 . S
C2418 C544 1.164 . S
C2443 C166 1.008 . S
C2448 C550 0.998 . S
C2473 C180 0.987 . S
C2478 C460 0.988 . S
C2503 C194 1.084 . S
C2508 C466 1.074 . S
C2533 C488 1.150 . S
C2538 C200 1.132 . S
C2563 C222 1.078 . S
C2568 C494 1.068 . S
C2593 C614 1.090 . S
C2598 C228 1.073 . S
C2623 C250 1.083 . S
C2628 C634 1.063 . S
C2653 C256 1.153 . S
C2658 C656 1.170 . S
C2683 C564 1.033 . S
C2688 C278 1.051 . S
C2713 C670 1.237 . S
C2718 C284 1.217 . S
C2743 C298 1.008 . S
C2748 C586 1.021 . S
C2773 C600 1.102 . S
C2778 C320 1.108 . S
C2803 C334 1.070 . S
C2808 C628 1.065 . S
C2833 C592 1.040 . S
C2838 C292 1.053 . S
C2863 C242 1.153 . S
C2868 C606 1.149 . S
C2893 C620 1.037 . S
C2898 C264 1.050 . S
C2923 C578 1.158 . S
C2928 C270 1.159 . S
C2953 C648 1.126 . S
C2958 C326 1.119 . S
C2983 C306 0.888 . S
C2988 C572 0.887 . S
C3013 C662 1.114 . S
C3018 C312 1.110 . S
C3043 C236 0.891 . S
C3048 C642 0.890 . S
C3073 C474 1.193 . S
C3078 C214 1.182 . S
C3103 C172 1.135 . S
C3108 C480 1.144 . S
C3133 C186 1.191 . S
C3138 C502 1.202 . S
C3163 C452 0.993 . S
C3168 C208 1.003 . S
C3193 C138 0.982 . S
C3198 C558 0.983 . S
C3223 C508 1.066 . S
C3228 C144 1.067 . S
C3253 C158 1.127 . S
C3258 C530 1.145 . S
C3283 C116 1.060 . S
C3288 C536 1.059 . S
C3313 C390 1.066 . S
C3318 C102 1.049 . S
C3343 C26 1.000 . S
C3348 C410 0.984 . S
C3373 C32 1.123 . S
C3378 C432 1.141 . S
C3403 C438 0.953 . S
C3408 C54 0.967 . S
C3433 C4 1.189 . S
C3438 C404 1.210 . S
C3463 C74 0.981 . S
C3468 C362 0.994 . S
C3493 C96 1.025 . S
C3498 C376 1.020 . S
C3523 C68 0.987 . S
C3528 C348 0.984 . S
