# Generated by pormake.
# Topology ooa, (5)-cn, num edge types: 1
# Building blocks:
#     Node 0, Type 0, BuildingBlock: XOMCOT_clean_sbu_1, # of connection points: 5
#     Node 1, Type 0, BuildingBlock: XOMCOT_clean_sbu_1, # of connection points: 5
#     Node 2, Type 0, BuildingBlock: XOMCOT_clean_sbu_1, # of connection points: 5
#     Node 3, Type 0, BuildingBlock: XOMCOT_clean_sbu_1, # of connection points: 5
#     Node 4, Type 0, BuildingBlock: XOMCOT_clean_sbu_1, # of connection points: 5
#     Node 5, Type 0, BuildingBlock: XOMCOT_clean_sbu_1, # of connection points: 5
#     Node 6, Type 0, BuildingBlock: XOMCOT_clean_sbu_1, # of connection points: 5
#     Node 7, Type 0, BuildingBlock: XOMCOT_clean_sbu_1, # of connection points: 5
#     Edge 8, Type (0, 0), BuildingBlock: XIVTED_clean_linker_0, # of connection points: 2
#     Edge 9, Type (0, 0), BuildingBlock: XIVTED_clean_linker_0, # of connection points: 2
#     Edge 10, Type (0, 0), BuildingBlock: XIVTED_clean_linker_0, # of connection points: 2
#     Edge 11, Type (0, 0), BuildingBlock: XIVTED_clean_linker_0, # of connection points: 2
#     Edge 12, Type (0, 0), BuildingBlock: XIVTED_clean_linker_0, # of connection points: 2
#     Edge 13, Type (0, 0), BuildingBlock: XIVTED_clean_linker_0, # of connection points: 2
#     Edge 14, Type (0, 0), BuildingBlock: XIVTED_clean_linker_0, # of connection points: 2
#     Edge 15, Type (0, 0), BuildingBlock: XIVTED_clean_linker_0, # of connection points: 2
#     Edge 16, Type (0, 0), BuildingBlock: XIVTED_clean_linker_0, # of connection points: 2
#     Edge 17, Type (0, 0), BuildingBlock: XIVTED_clean_linker_0, # of connection points: 2
#     Edge 18, Type (0, 0), BuildingBlock: XIVTED_clean_linker_0, # of connection points: 2
#     Edge 19, Type (0, 0), BuildingBlock: XIVTED_clean_linker_0, # of connection points: 2
#     Edge 20, Type (0, 0), BuildingBlock: XIVTED_clean_linker_0, # of connection points: 2
#     Edge 21, Type (0, 0), BuildingBlock: XIVTED_clean_linker_0, # of connection points: 2
#     Edge 22, Type (0, 0), BuildingBlock: XIVTED_clean_linker_0, # of connection points: 2
#     Edge 23, Type (0, 0), BuildingBlock: XIVTED_clean_linker_0, # of connection points: 2
#     Edge 24, Type (0, 0), BuildingBlock: XIVTED_clean_linker_0, # of connection points: 2
#     Edge 25, Type (0, 0), BuildingBlock: XIVTED_clean_linker_0, # of connection points: 2
#     Edge 26, Type (0, 0), BuildingBlock: XIVTED_clean_linker_0, # of connection points: 2
#     Edge 27, Type (0, 0), BuildingBlock: XIVTED_clean_linker_0, # of connection points: 2
# Relax obj value: 0.416
# Max RMSD: 0.218
# Mean RMSD: 0.218
data_MOF--net-ooa--node1-XOMCOT_clean_sbu_1--edge1-XIVTED_clean_linker_0
_symmetry_space_group_name_H-M    P1
_symmetry_Int_Tables_number       1
_symmetry_cell_setting            triclinic
loop_
_symmetry_equiv_pos_as_xyz
'x, y, z'
_cell_length_a     29.23407
_cell_length_b     30.776823
_cell_length_c     48.947919
_cell_angle_alpha  89.995846
_cell_angle_beta   90.182272
_cell_angle_gamma 90.073954
loop_
_atom_site_label
_atom_site_type_symbol
_atom_site_fract_x
_atom_site_fract_y
_atom_site_fract_z
_atom_type_partial_charge
C0 C 0.09112 0.14698 0.10883 0.0
C1 C 0.1195 0.11364 0.11656 0.0
N2 N 0.15016 0.107 0.09647 0.0
N3 N 0.10413 0.16178 0.08414 0.0
C4 C 0.13994 0.1366 0.07698 0.0
H5 H 0.06211 0.15907 0.12016 0.0
Co6 Co 0.07279 0.20372 0.06427 0.0
C7 C 0.1504 0.25738 0.04342 0.0
O8 O 0.13153 0.29308 0.05287 0.0
N9 N 0.0383 0.24397 0.04392 0.0
C10 C 1.00785 0.28237 0.00981 0.0
C11 C 0.04788 0.26719 0.02117 0.0
C12 C 0.99211 0.24455 0.04526 0.0
N13 N 0.9727 0.2676 0.02485 0.0
O14 O 0.06225 0.16195 0.03673 0.0
H15 H 0.0808 0.26934 0.01142 0.0
H16 H 0.97285 0.2256 0.05985 0.0
O17 O 0.12993 0.2209 0.0463 0.0
C18 C 0.02892 0.13695 0.04238 0.0
O19 O 1.00436 0.14523 0.0642 0.0
N20 N 0.0817 0.24299 0.09337 0.0
C21 C 0.0887 0.26331 0.1487 0.0
C22 C 0.12808 0.25847 0.13277 0.0
C23 C 0.12388 0.24748 0.10528 0.0
C24 C 0.0433 0.2529 0.10782 0.0
C25 C 0.04601 0.26325 0.13554 0.0
H26 H 0.15438 0.23679 0.09494 0.0
H27 H 1.00997 0.24717 0.09912 0.0
H28 H 0.15757 0.13949 0.05767 0.0
H29 H 0.11659 0.09469 0.13509 0.0
H30 H 1.00471 0.29928 0.9905 0.0
H31 H 0.16178 0.25873 0.14203 0.0
H32 H 1.01459 0.26627 0.14704 0.0
C33 C 0.44101 0.8297 0.10981 0.0
C34 C 0.41215 0.86238 0.11787 0.0
N35 N 0.38146 0.86936 0.09773 0.0
N36 N 0.42828 0.81563 0.08485 0.0
C37 C 0.39215 0.84062 0.07787 0.0
H38 H 0.47016 0.81757 0.12112 0.0
Co39 Co 0.46033 0.77475 0.06461 0.0
C40 C 0.3832 0.72079 0.04296 0.0
O41 O 0.40206 0.68503 0.05241 0.0
N42 N 0.49552 0.73568 0.04398 0.0
C43 C 0.52694 0.69782 0.01007 0.0
C44 C 0.48649 0.71184 0.02138 0.0
C45 C 0.54172 0.7366 0.04532 0.0
N46 N 0.56171 0.71391 0.02503 0.0
O47 O 0.47009 0.81738 0.03756 0.0
H48 H 0.4535 0.7083 0.01175 0.0
H49 H 0.56043 0.75612 0.05993 0.0
O50 O 0.40349 0.75728 0.0462 0.0
C51 C 0.50259 0.84321 0.04358 0.0
O52 O 0.52695 0.83553 0.06566 0.0
N53 N 0.45222 0.73449 0.09323 0.0
C54 C 0.44647 0.71268 0.14834 0.0
C55 C 0.40672 0.71767 0.1326 0.0
C56 C 0.41029 0.72929 0.10519 0.0
C57 C 0.49097 0.72441 0.10744 0.0
C58 C 0.48888 0.71327 0.13505 0.0
H59 H 0.37952 0.73992 0.09498 0.0
H60 H 0.52409 0.73058 0.09872 0.0
H61 H 0.37462 0.83824 0.05843 0.0
H62 H 0.41473 0.88069 0.13669 0.0
H63 H 0.53048 0.68061 0.99091 0.0
H64 H 0.37323 0.71705 0.142 0.0
H65 H 0.52054 0.71014 0.14641 0.0
C66 C 0.09296 0.33154 0.38983 0.0
C67 C 0.12175 0.3645 0.38194 0.0
N68 N 0.15278 0.37101 0.40197 0.0
N69 N 0.10609 0.31684 0.41457 0.0
C70 C 0.14238 0.34169 0.42158 0.0
H71 H 0.06354 0.31971 0.37861 0.0
Co72 Co 0.07422 0.27595 0.43507 0.0
C73 C 0.15203 0.22099 0.45453 0.0
O74 O 0.13291 0.18576 0.44445 0.0
N75 N 0.03932 0.23703 0.45609 0.0
C76 C 1.00862 0.19747 0.48952 0.0
C77 C 0.04889 0.21104 0.47765 0.0
C78 C 0.99317 0.23952 0.45593 0.0
N79 N 0.97358 0.21587 0.47593 0.0
O80 O 0.06622 0.31841 0.46244 0.0
H81 H 0.08239 0.20522 0.48611 0.0
H82 H 0.97429 0.26026 0.44211 0.0
O83 O 0.13157 0.25756 0.45245 0.0
C84 C 0.03398 0.3445 0.45652 0.0
O85 O 1.00942 0.33707 0.43447 0.0
N86 N 0.08021 0.23585 0.40614 0.0
C87 C 0.08049 0.21411 0.35096 0.0
C88 C 0.12177 0.22067 0.365 0.0
C89 C 0.1209 0.23173 0.39262 0.0
C90 C 0.04035 0.22434 0.39351 0.0
C91 C 0.03979 0.21292 0.36597 0.0
H92 H 0.15237 0.24299 0.40183 0.0
H93 H 1.00804 0.22912 0.4035 0.0
H94 H 0.16013 0.3389 0.44092 0.0
H95 H 0.11885 0.38335 0.36335 0.0
H96 H 1.0056 0.17852 0.50806 0.0
H97 H 0.15397 0.22243 0.35417 0.0
H98 H 1.00721 0.20742 0.35593 0.0
C99 C 0.44586 0.64739 0.38934 0.0
C100 C 0.41738 0.61429 0.38118 0.0
N101 N 0.38603 0.60768 0.4009 0.0
N102 N 0.43222 0.66207 0.41393 0.0
C103 C 0.39595 0.63704 0.42059 0.0
H104 H 0.47533 0.65944 0.37837 0.0
Co105 Co 0.46325 0.70359 0.43449 0.0
C106 C 0.38444 0.75734 0.45363 0.0
O107 O 0.40314 0.79294 0.44384 0.0
N108 N 0.49734 0.74327 0.4556 0.0
C109 C 0.52681 0.78292 0.48949 0.0
C110 C 0.48701 0.76843 0.47737 0.0
C111 C 0.54358 0.74216 0.45556 0.0
N112 N 0.56243 0.7659 0.47585 0.0
O113 O 0.47202 0.6614 0.46199 0.0
H114 H 0.45339 0.77289 0.48588 0.0
H115 H 0.5631 0.72213 0.44172 0.0
O116 O 0.40548 0.72108 0.45156 0.0
C117 C 0.50502 0.63607 0.45638 0.0
O118 O 0.52976 0.64412 0.43458 0.0
N119 N 0.45644 0.74337 0.40545 0.0
C120 C 0.45482 0.76505 0.35024 0.0
C121 C 0.41392 0.75824 0.36444 0.0
C122 C 0.41546 0.74709 0.39203 0.0
C123 C 0.49598 0.75496 0.39264 0.0
C124 C 0.49589 0.76625 0.36505 0.0
H125 H 0.38427 0.73549 0.40128 0.0
H126 H 0.52851 0.75032 0.40254 0.0
H127 H 0.37775 0.63986 0.43972 0.0
H128 H 0.42065 0.5955 0.3626 0.0
H129 H 0.52923 0.80138 0.50826 0.0
H130 H 0.38149 0.75634 0.35374 0.0
H131 H 0.52821 0.77178 0.35484 0.0
C132 C 0.94089 0.83251 0.89069 0.0
C133 C 0.91214 0.86556 0.88295 0.0
N134 N 0.88147 0.87196 0.90306 0.0
N135 N 0.9281 0.81764 0.9154 0.0
C136 C 0.89205 0.8425 0.92257 0.0
H137 H 0.97001 0.82068 0.87934 0.0
Co138 Co 0.95995 0.77604 0.93528 0.0
C139 C 0.88308 0.72136 0.95601 0.0
O140 O 0.90247 0.68605 0.94635 0.0
N141 N 0.99495 0.73616 0.95563 0.0
C142 C 0.02588 0.69752 0.98948 0.0
C143 C 0.98567 0.71254 0.97826 0.0
C144 C 0.04115 0.73601 0.95424 0.0
N145 N 0.06083 0.71278 0.97448 0.0
O146 O 0.96997 0.81792 0.96283 0.0
H147 H 0.95277 0.70988 0.98799 0.0
H148 H 0.0602 0.75525 0.93971 0.0
O149 O 0.90297 0.75815 0.95325 0.0
C150 C 1.00309 0.84312 0.95712 0.0
O151 O 0.02761 0.83497 0.93526 0.0
N152 N 0.95163 0.7367 0.90613 0.0
C153 C 0.94544 0.71643 0.85076 0.0
C154 C 0.90583 0.72096 0.86653 0.0
C155 C 0.90962 0.73186 0.89406 0.0
C156 C 0.99027 0.72712 0.89183 0.0
C157 C 0.98796 0.71677 0.8641 0.0
H158 H 0.87892 0.74221 0.90434 0.0
H159 H 0.02346 0.73312 0.90063 0.0
H160 H 0.8745 0.83951 0.94191 0.0
H161 H 0.9148 0.8845 0.86439 0.0
H162 H 0.02926 0.68025 0.00865 0.0
H163 H 0.87225 0.72049 0.85712 0.0
H164 H 0.01955 0.71401 0.85274 0.0
C165 C 0.58929 0.14835 0.8905 0.0
C166 C 0.61763 0.11529 0.88234 0.0
N167 N 0.64916 0.10871 0.90206 0.0
N168 N 0.60322 0.16304 0.91509 0.0
C169 C 0.63951 0.13806 0.92176 0.0
H170 H 0.55971 0.16035 0.87953 0.0
Co171 Co 0.57234 0.20437 0.93565 0.0
C172 C 0.65117 0.25841 0.95484 0.0
O173 O 0.63257 0.29389 0.94482 0.0
N174 N 0.53842 0.24383 0.95671 0.0
C175 C 0.50872 0.28384 0.9902 0.0
C176 C 0.54863 0.26959 0.97827 0.0
C177 C 0.49223 0.24214 0.95659 0.0
N178 N 0.47325 0.26608 0.97663 0.0
O179 O 0.56401 0.16213 0.96316 0.0
H180 H 0.58227 0.27476 0.98673 0.0
H181 H 0.47287 0.22167 0.94282 0.0
O182 O 0.63012 0.2221 0.95278 0.0
C183 C 0.53138 0.13621 0.95757 0.0
O184 O 0.50639 0.14371 0.93571 0.0
N185 N 0.57877 0.24424 0.90662 0.0
C186 C 0.57948 0.26583 0.8514 0.0
C187 C 0.62062 0.25895 0.86549 0.0
C188 C 0.61953 0.24793 0.89311 0.0
C189 C 0.53908 0.256 0.89392 0.0
C190 C 0.53873 0.26731 0.86635 0.0
H191 H 0.65084 0.23636 0.90233 0.0
H192 H 0.50668 0.2515 0.9039 0.0
H193 H 0.65789 0.14086 0.9409 0.0
H194 H 0.61413 0.09647 0.86377 0.0
H195 H 0.50617 0.30277 0.00877 0.0
H196 H 0.65284 0.2569 0.85471 0.0
H197 H 0.50625 0.27301 0.85626 0.0
C198 C 0.94715 0.64887 0.60956 0.0
C199 C 0.91889 0.61567 0.61771 0.0
N200 N 0.88735 0.60896 0.598 0.0
N201 N 0.93319 0.66353 0.58498 0.0
C202 C 0.89693 0.63839 0.57831 0.0
H203 H 0.97671 0.66099 0.62053 0.0
Co204 Co 0.96399 0.70507 0.56441 0.0
C205 C 0.88476 0.75865 0.54531 0.0
O206 O 0.90324 0.79431 0.55522 0.0
N207 N 0.99786 0.74471 0.54332 0.0
C208 C 0.02715 0.78453 0.50957 0.0
C209 C 0.9874 0.77033 0.52174 0.0
C210 C 0.04407 0.74311 0.54321 0.0
N211 N 0.06282 0.76691 0.52299 0.0
O212 O 0.97241 0.66293 0.53691 0.0
H213 H 0.95366 0.77535 0.51341 0.0
H214 H 0.0636 0.72274 0.55693 0.0
O215 O 0.90606 0.72251 0.54734 0.0
C216 C 1.00519 0.63727 0.54251 0.0
O217 O 0.03011 0.64492 0.56439 0.0
N218 N 0.95752 0.74487 0.59345 0.0
C219 C 0.95682 0.76647 0.64866 0.0
C220 C 0.91568 0.75949 0.63457 0.0
C221 C 0.91676 0.74843 0.60696 0.0
C222 C 0.99723 0.75667 0.60613 0.0
C223 C 0.99759 0.76796 0.63372 0.0
H224 H 0.88546 0.73674 0.59777 0.0
H225 H 0.02961 0.75224 0.59613 0.0
H226 H 0.87854 0.64114 0.55917 0.0
H227 H 0.92245 0.59685 0.63627 0.0
H228 H 0.02944 0.80326 0.4909 0.0
H229 H 0.88346 0.75739 0.64535 0.0
H230 H 0.03007 0.7737 0.64382 0.0
C231 C 0.59514 0.33238 0.60992 0.0
C232 C 0.62423 0.36527 0.61762 0.0
N233 N 0.65452 0.37188 0.59733 0.0
N234 N 0.60734 0.31782 0.58504 0.0
C235 C 0.64338 0.34271 0.57774 0.0
H236 H 0.56619 0.32047 0.62142 0.0
Co237 Co 0.57487 0.27656 0.5651 0.0
C238 C 0.65133 0.22183 0.54395 0.0
O239 O 0.63181 0.18639 0.5534 0.0
N240 N 0.5393 0.23708 0.54468 0.0
C241 C 0.50784 0.19929 0.51058 0.0
C242 C 0.54826 0.21365 0.52194 0.0
C243 C 0.49308 0.23745 0.54603 0.0
N244 N 0.47307 0.21478 0.52562 0.0
O245 O 0.56493 0.3187 0.53776 0.0
H246 H 0.58113 0.21075 0.51221 0.0
H247 H 0.47432 0.2567 0.56066 0.0
O248 O 0.63156 0.25859 0.54692 0.0
C249 C 0.53209 0.34402 0.54372 0.0
O250 O 0.50798 0.33597 0.56577 0.0
N251 N 0.5831 0.23686 0.59403 0.0
C252 C 0.5895 0.21597 0.64928 0.0
C253 C 0.62904 0.22041 0.63343 0.0
C254 C 0.62515 0.23165 0.60596 0.0
C255 C 0.54448 0.22732 0.60838 0.0
C256 C 0.54689 0.21667 0.63606 0.0
H257 H 0.65588 0.24196 0.59566 0.0
H258 H 0.51129 0.23357 0.59966 0.0
H259 H 0.6605 0.33996 0.55825 0.0
H260 H 0.62204 0.38395 0.6363 0.0
H261 H 0.50427 0.18238 0.4913 0.0
H262 H 0.66269 0.21966 0.64275 0.0
H263 H 0.51536 0.21398 0.64749 0.0
H264 H 0.95906 0.07911 0.04829 0.0
H265 H 0.07294 0.90097 0.95129 0.0
H266 H 0.08489 0.09976 0.00416 0.0
H267 H 0.947 0.88028 0.9953 0.0
H268 H 0.07848 0.97345 0.97106 0.0
H269 H 0.95347 0.0066 0.02854 0.0
C270 C 0.98532 0.06853 0.03423 0.0
C271 C 0.02256 0.09545 0.02789 0.0
C272 C 0.04974 0.95302 0.97651 0.0
C273 C 1.01663 0.01227 0.00547 0.0
C274 C 0.04663 0.91154 0.96533 0.0
C275 C 1.00938 0.88462 0.97163 0.0
C276 C 1.01526 0.96777 0.99408 0.0
C277 C 0.97637 0.89994 0.98997 0.0
C278 C 0.98219 0.02703 0.02306 0.0
C279 C 0.05552 0.0801 0.00953 0.0
N280 N 0.97997 0.94067 0.00045 0.0
N281 N 0.0519 0.03938 0.99906 0.0
H282 H 0.58711 0.10171 0.99714 0.0
H283 H 0.44816 0.8775 0.00338 0.0
H284 H 0.46373 0.07623 0.95109 0.0
H285 H 0.5698 0.90354 0.05094 0.0
H286 H 0.4544 0.94982 0.98313 0.0
H287 H 0.58118 0.02933 0.01746 0.0
C288 C 0.55851 0.08109 0.99155 0.0
C289 C 0.52591 0.09491 0.97238 0.0
C290 C 0.47984 0.93962 0.99791 0.0
C291 C 0.51926 0.01205 0.99518 0.0
C292 C 0.47645 0.89824 0.00933 0.0
C293 C 0.50845 0.88458 0.02889 0.0
C294 C 0.51548 0.96744 0.00615 0.0
C295 C 0.54428 0.91284 0.03599 0.0
C296 C 0.5553 0.0397 0.003 0.0
C297 C 0.48973 0.06681 0.96572 0.0
N298 N 0.54673 0.95301 0.02469 0.0
N299 N 0.48747 0.02665 0.97703 0.0
H300 H 0.94967 0.60253 0.50292 0.0
H301 H 0.08953 0.37922 0.49611 0.0
H302 H 0.07315 0.57774 0.54898 0.0
H303 H 0.96635 0.40428 0.44983 0.0
H304 H 0.0835 0.45161 0.51635 0.0
H305 H 0.95586 0.53024 0.4826 0.0
C306 C 0.97835 0.58208 0.50851 0.0
C307 C 1.01089 0.59605 0.52769 0.0
C308 C 0.05769 0.44116 0.50185 0.0
C309 C 0.01785 0.51328 0.50489 0.0
C310 C 0.06096 0.39975 0.49046 0.0
C311 C 0.02845 0.38583 0.47125 0.0
C312 C 0.02166 0.46868 0.49395 0.0
C313 C 0.99228 0.41381 0.46449 0.0
C314 C 0.98171 0.54072 0.49706 0.0
C315 C 0.0472 0.56817 0.53434 0.0
N316 N 0.98995 0.45398 0.47576 0.0
N317 N 0.0496 0.52803 0.52304 0.0
H318 H 0.57458 0.57815 0.45059 0.0
H319 H 0.46284 0.4022 0.55018 0.0
H320 H 0.44921 0.59951 0.495 0.0
H321 H 0.58695 0.38038 0.50461 0.0
H322 H 0.45683 0.47428 0.52987 0.0
H323 H 0.58038 0.50615 0.47094 0.0
C324 C 0.54844 0.56782 0.46483 0.0
C325 C 0.51128 0.59479 0.47108 0.0
C326 C 0.48527 0.45369 0.5242 0.0
C327 C 0.51748 0.51217 0.49422 0.0
C328 C 0.48864 0.41244 0.53569 0.0
C329 C 0.52553 0.38533 0.52909 0.0
C330 C 0.5191 0.46798 0.50602 0.0
C331 C 0.55788 0.40021 0.51019 0.0
C332 C 0.55169 0.5266 0.47635 0.0
C333 C 0.47849 0.57978 0.48969 0.0
N334 N 0.55403 0.4407 0.49941 0.0
N335 N 0.48225 0.53931 0.50052 0.0
H336 H 0.33909 0.9055 0.14126 0.0
H337 H 0.18789 0.06914 0.05152 0.0
H338 H 0.34409 0.90911 0.05319 0.0
H339 H 0.19131 0.06806 0.13967 0.0
H340 H 0.24427 0.01037 0.05115 0.0
H341 H 0.28331 0.96411 0.14056 0.0
C342 C 0.32857 0.91871 0.12174 0.0
C343 C 0.34661 0.90246 0.09726 0.0
C344 C 0.23266 0.02307 0.07056 0.0
C345 C 0.28217 0.96969 0.09626 0.0
C346 C 0.2007 0.05685 0.07078 0.0
C347 C 0.18463 0.07354 0.09569 0.0
C348 C 0.24869 0.00591 0.0954 0.0
C349 C 0.20206 0.05584 0.12 0.0
C350 C 0.29651 0.95215 0.12134 0.0
C351 C 0.33087 0.92034 0.07255 0.0
N352 N 0.23301 0.02305 0.11923 0.0
N353 N 0.29965 0.95312 0.07267 0.0
H354 H 0.1909 0.40918 0.44686 0.0
H355 H 0.34529 0.56983 0.35715 0.0
H356 H 0.19421 0.40925 0.35872 0.0
H357 H 0.34707 0.56929 0.44531 0.0
H358 H 0.28911 0.51137 0.35774 0.0
H359 H 0.2479 0.46751 0.44717 0.0
C360 C 0.20382 0.42115 0.42758 0.0
C361 C 0.18757 0.40427 0.4027 0.0
C362 C 0.3017 0.52399 0.377 0.0
C363 C 0.2524 0.47144 0.40292 0.0
C364 C 0.33399 0.55733 0.37666 0.0
C365 C 0.3512 0.57444 0.40121 0.0
C366 C 0.2863 0.5074 0.40207 0.0
C367 C 0.3345 0.55742 0.42589 0.0
C368 C 0.23615 0.45469 0.42777 0.0
C369 C 0.20515 0.4216 0.37836 0.0
N370 N 0.30308 0.52474 0.42569 0.0
N371 N 0.2365 0.45416 0.3791 0.0
H372 H 0.84407 0.91004 0.94801 0.0
H373 H 0.6895 0.07101 0.85835 0.0
H374 H 0.83939 0.91 0.85988 0.0
H375 H 0.68818 0.07015 0.9465 0.0
H376 H 0.74539 0.01246 0.85895 0.0
H377 H 0.78725 0.96842 0.94838 0.0
C378 C 0.83088 0.922 0.92875 0.0
C379 C 0.84671 0.90513 0.90385 0.0
C380 C 0.73297 0.02502 0.87821 0.0
C381 C 0.78212 0.97229 0.90413 0.0
C382 C 0.70085 0.05842 0.87787 0.0
C383 C 0.68386 0.07546 0.9024 0.0
C384 C 0.7484 0.00831 0.90329 0.0
C385 C 0.7006 0.05832 0.92709 0.0
C386 C 0.79866 0.95556 0.92897 0.0
C387 C 0.8288 0.9224 0.87953 0.0
N388 N 0.73185 0.02559 0.92691 0.0
N389 N 0.79758 0.95497 0.8803 0.0
H390 H 0.69142 0.41038 0.55231 0.0
H391 H 0.84741 0.57083 0.64175 0.0
H392 H 0.69749 0.40948 0.6404 0.0
H393 H 0.84787 0.57054 0.55359 0.0
H394 H 0.79151 0.51216 0.6412 0.0
H395 H 0.74842 0.46876 0.55184 0.0
C396 C 0.70494 0.42215 0.57153 0.0
C397 C 0.68943 0.40503 0.59646 0.0
C398 C 0.80375 0.52487 0.62193 0.0
C399 C 0.75424 0.47221 0.59607 0.0
C400 C 0.83589 0.55833 0.62224 0.0
C401 C 0.85265 0.57559 0.59769 0.0
C402 C 0.78804 0.50828 0.59687 0.0
C403 C 0.83565 0.55856 0.57301 0.0
C404 C 0.73726 0.45571 0.57125 0.0
C405 C 0.7078 0.42206 0.62074 0.0
N406 N 0.80437 0.52575 0.57323 0.0
N407 N 0.7391 0.45465 0.61992 0.0
H408 H 0.19865 0.19121 0.01949 0.0
H409 H 0.42787 0.33103 0.00236 0.0
H410 H 0.20805 0.32736 0.04002 0.0
H411 H 0.41024 0.20204 0.96946 0.0
H412 H 0.34795 0.33001 0.01731 0.0
H413 H 0.27667 0.19419 0.00176 0.0
C414 C 0.21701 0.22179 0.02016 0.0
C415 C 0.19673 0.25908 0.0313 0.0
C416 C 0.36152 0.30205 0.00666 0.0
C417 C 0.28627 0.26266 0.01119 0.0
C418 C 0.40716 0.30257 0.99824 0.0
C419 C 0.42577 0.26669 0.98455 0.0
C420 C 0.33437 0.26515 0.00161 0.0
C421 C 0.39727 0.23072 0.97955 0.0
C422 C 0.26158 0.22348 0.01001 0.0
C423 C 0.22224 0.2978 0.03161 0.0
N424 N 0.35316 0.2308 0.9882 0.0
N425 N 0.26572 0.29852 0.02185 0.0
H426 H 0.10591 0.64812 0.00067 0.0
H427 H 0.33563 0.78682 0.01816 0.0
H428 H 0.12487 0.77528 0.96544 0.0
H429 H 0.3256 0.65083 0.03897 0.0
H430 H 0.25807 0.78371 0.99935 0.0
H431 H 0.18596 0.6488 0.01562 0.0
C432 C 0.127 0.67606 0.99598 0.0
C433 C 0.10868 0.71159 0.98174 0.0
C434 C 0.27296 0.75449 0.00788 0.0
C435 C 0.20022 0.71282 0.99887 0.0
C436 C 0.31724 0.75626 0.01867 0.0
C437 C 0.33719 0.71905 0.03022 0.0
C438 C 0.24821 0.71534 0.00887 0.0
C439 C 0.31167 0.68034 0.03027 0.0
C440 C 0.1727 0.67641 0.00442 0.0
C441 C 0.13762 0.74691 0.97602 0.0
N442 N 0.26846 0.67957 0.01993 0.0
N443 N 0.18181 0.74676 0.98478 0.0
H444 H 0.40977 0.27761 0.53537 0.0
H445 H 0.20886 0.15048 0.45752 0.0
H446 H 0.42713 0.15147 0.49847 0.0
H447 H 0.20041 0.28572 0.48037 0.0
H448 H 0.28594 0.14754 0.47682 0.0
H449 H 0.33016 0.27807 0.52008 0.0
C450 C 0.39671 0.2497 0.52439 0.0
C451 C 0.42523 0.21433 0.51825 0.0
C452 C 0.26719 0.17783 0.47768 0.0
C453 C 0.33404 0.21495 0.50034 0.0
C454 C 0.22307 0.17954 0.46671 0.0
C455 C 0.19806 0.21846 0.46723 0.0
C456 C 0.28651 0.21524 0.48944 0.0
C457 C 0.21841 0.25504 0.47943 0.0
C458 C 0.3513 0.25018 0.51544 0.0
C459 C 0.40647 0.17949 0.50345 0.0
N460 N 0.26142 0.25253 0.49003 0.0
N461 N 0.36211 0.18067 0.49501 0.0
H462 H 0.1078 0.8314 0.49643 0.0
H463 H 0.33659 0.69152 0.47843 0.0
H464 H 0.12593 0.703 0.53007 0.0
H465 H 0.32637 0.82699 0.45637 0.0
H466 H 0.25891 0.69467 0.49671 0.0
H467 H 0.18724 0.83005 0.48065 0.0
C468 C 0.12851 0.803 0.50055 0.0
C469 C 0.11015 0.76738 0.51469 0.0
C470 C 0.27374 0.72377 0.48799 0.0
C471 C 0.20108 0.76546 0.49665 0.0
C472 C 0.31812 0.72198 0.47751 0.0
C473 C 0.33811 0.75904 0.46581 0.0
C474 C 0.24894 0.76281 0.48659 0.0
C475 C 0.31244 0.7976 0.46521 0.0
C476 C 0.1739 0.80228 0.49164 0.0
C477 C 0.1387 0.73149 0.51965 0.0
N478 N 0.26917 0.79842 0.47532 0.0
N479 N 0.18257 0.73137 0.51052 0.0
H480 H 0.62446 0.77748 0.03461 0.0
H481 H 0.82701 0.65031 0.95957 0.0
H482 H 0.60808 0.6506 0.99842 0.0
H483 H 0.83401 0.78632 0.9808 0.0
H484 H 0.74976 0.64715 0.9783 0.0
H485 H 0.70418 0.77828 0.01987 0.0
C486 C 0.63776 0.74949 0.02389 0.0
C487 C 0.60951 0.71379 0.0178 0.0
C488 C 0.76823 0.67766 0.97893 0.0
C489 C 0.70081 0.71479 0.00054 0.0
C490 C 0.81245 0.67949 0.9683 0.0
C491 C 0.83707 0.7187 0.96852 0.0
C492 C 0.74844 0.71522 0.99005 0.0
C493 C 0.8163 0.75543 0.98011 0.0
C494 C 0.68323 0.75016 0.01525 0.0
C495 C 0.62854 0.67887 0.00334 0.0
N496 N 0.77319 0.75279 0.99039 0.0
N497 N 0.67298 0.68022 0.99522 0.0
H498 H 0.69814 0.19313 0.98083 0.0
H499 H 0.92817 0.33174 0.99781 0.0
H500 H 0.70949 0.328 0.95751 0.0
H501 H 0.90833 0.20549 0.03416 0.0
H502 H 0.84844 0.33076 0.98228 0.0
H503 H 0.77546 0.19661 -6e-05 0.0
C504 C 0.71678 0.22353 0.97981 0.0
C505 C 0.69725 0.26032 0.9675 0.0
C506 C 0.86143 0.30342 0.99385 0.0
C507 C 0.78596 0.26445 0.98923 0.0
C508 C 0.90695 0.30395 0.00263 0.0
C509 C 0.92495 0.26875 0.01735 0.0
C510 C 0.83375 0.26718 0.99955 0.0
C511 C 0.89583 0.23362 0.02322 0.0
C512 C 0.76093 0.22551 0.99078 0.0
C513 C 0.72309 0.29882 0.96681 0.0
N514 N 0.85183 0.2336 0.01413 0.0
N515 N 0.76615 0.2998 0.97737 0.0
H516 H 0.83738 0.69267 0.52019 0.0
H517 H 0.60707 0.83059 0.50256 0.0
H518 H 0.82604 0.82785 0.54268 0.0
H519 H 0.62619 0.70275 0.46838 0.0
H520 H 0.68671 0.82987 0.51829 0.0
H521 H 0.75957 0.69532 0.50178 0.0
C522 C 0.81864 0.72296 0.52117 0.0
C523 C 0.83835 0.76009 0.53304 0.0
C524 C 0.67354 0.80209 0.50719 0.0
C525 C 0.74903 0.76328 0.51212 0.0
C526 C 0.62804 0.80245 0.49831 0.0
C527 C 0.6099 0.76679 0.48405 0.0
C528 C 0.70105 0.76559 0.50203 0.0
C529 C 0.63878 0.73126 0.47891 0.0
C530 C 0.77419 0.72447 0.51063 0.0
C531 C 0.81233 0.79843 0.53372 0.0
N532 N 0.68275 0.73147 0.48802 0.0
N533 N 0.769 0.79896 0.52354 0.0
H534 H 0.91176 0.28075 0.46847 0.0
H535 H 0.70732 0.15083 0.54008 0.0
H536 H 0.92673 0.15167 0.50165 0.0
H537 H 0.7011 0.2874 0.52025 0.0
H538 H 0.7851 0.14827 0.52207 0.0
H539 H 0.83211 0.28125 0.48315 0.0
C540 C 0.89819 0.25225 0.47855 0.0
C541 C 0.92602 0.21597 0.48373 0.0
C542 C 0.76668 0.17877 0.5216 0.0
C543 C 0.83468 0.2166 0.50093 0.0
C544 C 0.72216 0.18026 0.5318 0.0
C545 C 0.69758 0.21944 0.53175 0.0
C546 C 0.78683 0.21666 0.5111 0.0
C547 C 0.71873 0.2565 0.52077 0.0
C548 C 0.85272 0.25273 0.48715 0.0
C549 C 0.90662 0.18039 0.49743 0.0
N550 N 0.76211 0.25419 0.51091 0.0
N551 N 0.86215 0.18157 0.50552 0.0
H552 H 0.02024 0.26043 0.31995 0.0
H553 H 0.14512 0.2109 0.17873 0.0
H554 H 0.13899 0.17789 0.3133 0.0
H555 H 0.03718 0.30553 0.18757 0.0
H556 H 0.14309 0.19787 0.22768 0.0
H557 H 0.02354 0.27405 0.27105 0.0
C558 C 0.04648 0.24436 0.30811 0.0
C559 C 0.07914 0.21752 0.32075 0.0
C560 C 0.12013 0.22179 0.21899 0.0
C561 C 0.0839 0.23422 0.26468 0.0
C562 C 0.12164 0.22976 0.191 0.0
C563 C 0.09149 0.25975 0.17892 0.0
C564 C 0.08797 0.2436 0.23511 0.0
C565 C 0.06085 0.28197 0.19592 0.0
C566 C 0.04872 0.25273 0.2802 0.0
C567 C 0.11317 0.19879 0.30441 0.0
N568 N 0.05974 0.27329 0.22314 0.0
N569 N 0.11469 0.20753 0.2772 0.0
H570 H 0.49848 0.66932 0.18663 0.0
H571 H 0.39574 0.80221 0.31315 0.0
H572 H 0.39117 0.76491 0.17893 0.0
H573 H 0.51363 0.71834 0.31875 0.0
H574 H 0.3915 0.78716 0.26407 0.0
H575 H 0.50148 0.68371 0.23577 0.0
C576 C 0.47522 0.69293 0.19529 0.0
C577 C 0.44439 0.7157 0.17859 0.0
C578 C 0.41855 0.77239 0.27603 0.0
C579 C 0.44787 0.73264 0.23471 0.0
C580 C 0.42103 0.78111 0.30399 0.0
C581 C 0.45532 0.76188 0.32002 0.0
C582 C 0.4503 0.7439 0.2641 0.0
C583 C 0.48719 0.73464 0.30712 0.0
C584 C 0.47703 0.70125 0.22331 0.0
C585 C 0.41488 0.74585 0.19098 0.0
N586 N 0.48374 0.72629 0.27998 0.0
N587 N 0.41751 0.75355 0.21823 0.0
H588 H 1.01714 0.7207 0.67997 0.0
H589 H 0.88908 0.76851 0.82046 0.0
H590 H 0.89772 0.80247 0.68604 0.0
H591 H 0.99786 0.67462 0.81214 0.0
H592 H 0.89205 0.78192 0.77156 0.0
H593 H 1.01309 0.70685 0.72885 0.0
C594 C 0.9906 0.73657 0.69168 0.0
C595 C 0.95794 0.76321 0.67889 0.0
C596 C 0.915 0.75809 0.78036 0.0
C597 C 0.95231 0.74625 0.73489 0.0
C598 C 0.91295 0.74989 0.8083 0.0
C599 C 0.94307 0.72002 0.82053 0.0
C600 C 0.94767 0.73661 0.76441 0.0
C601 C 0.97419 0.69809 0.80368 0.0
C602 C 0.98793 0.72807 0.71957 0.0
C603 C 0.92354 0.78171 0.69505 0.0
N604 N 0.97583 0.70699 0.7765 0.0
N605 N 0.92158 0.77283 0.72223 0.0
H606 H 0.64649 0.26764 0.67952 0.0
H607 H 0.51898 0.21993 0.82022 0.0
H608 H 0.53705 0.17422 0.68796 0.0
H609 H 0.63861 0.30169 0.81392 0.0
H610 H 0.52277 0.20603 0.77135 0.0
H611 H 0.64395 0.28089 0.72843 0.0
C612 C 0.62257 0.24909 0.69171 0.0
C613 C 0.59213 0.2194 0.67951 0.0
C614 C 0.54803 0.22725 0.78058 0.0
C615 C 0.58803 0.23581 0.73566 0.0
C616 C 0.54552 0.23579 0.80846 0.0
C617 C 0.5783 0.26245 0.82119 0.0
C618 C 0.58361 0.24542 0.76518 0.0
C619 C 0.61269 0.28092 0.80496 0.0
C620 C 0.62077 0.25719 0.71966 0.0
C621 C 0.56096 0.19754 0.6964 0.0
N622 N 0.61449 0.27201 0.77778 0.0
N623 N 0.55956 0.20636 0.7236 0.0
loop_
_geom_bond_atom_site_label_1
_geom_bond_atom_site_label_2
_geom_bond_distance
_geom_bond_site_symmetry_2
_ccdc_geom_bond_type
C0 C1 1.351 . S
C0 N3 1.368 . S
C0 H5 0.931 . S
C1 C0 1.351 . S
C1 N2 1.373 . S
C1 H29 0.930 . S
N2 C1 1.373 . S
N2 C4 1.340 . S
N3 C0 1.368 . S
N3 C4 1.321 . S
N3 Co6 2.135 . S
C4 N2 1.340 . S
C4 N3 1.321 . S
C4 H28 0.930 . S
H5 C0 0.931 . S
Co6 N3 2.135 . S
Co6 N9 2.121 . S
Co6 O14 2.055 . S
Co6 O17 2.039 . S
Co6 N20 2.140 . S
C7 O8 1.227 . S
C7 O17 1.265 . S
O8 C7 1.227 . S
N9 Co6 2.121 . S
N9 C11 1.375 . S
N9 C12 1.313 1_455 S
C10 C11 1.338 . S
C10 N13 1.377 1_455 S
C10 H30 0.930 . S
C11 N9 1.375 . S
C11 C10 1.338 . S
C11 H15 0.931 . S
C12 N9 1.313 1_655 S
C12 N13 1.344 . S
C12 H16 0.930 . S
N13 C10 1.377 1_655 S
N13 C12 1.344 . S
O14 Co6 2.055 . S
O14 C18 1.253 . S
H15 C11 0.931 . S
H16 C12 0.930 . S
O17 Co6 2.039 . S
O17 C7 1.265 . S
C18 O14 1.253 . S
C18 O19 1.227 . S
O19 C18 1.227 . S
N20 Co6 2.140 . S
N20 C23 1.346 . S
N20 C24 1.345 . S
C21 C22 1.387 . S
C21 C25 1.391 . S
C22 C21 1.387 . S
C22 C23 1.369 . S
C22 H31 0.929 . S
C23 N20 1.346 . S
C23 C22 1.369 . S
C23 H26 0.928 . S
C24 N20 1.345 . S
C24 C25 1.371 . S
C24 H27 0.931 . S
C25 C21 1.391 . S
C25 C24 1.371 . S
C25 H32 0.930 1_455 S
H26 C23 0.928 . S
H27 C24 0.931 . S
H28 C4 0.930 . S
H29 C1 0.930 . S
H30 C10 0.930 . S
H31 C22 0.929 . S
H32 C25 0.930 1_655 S
C33 C34 1.351 . S
C33 N36 1.368 . S
C33 H38 0.931 . S
C34 C33 1.351 . S
C34 N35 1.373 . S
C34 H62 0.930 . S
N35 C34 1.373 . S
N35 C37 1.340 . S
N36 C33 1.368 . S
N36 C37 1.321 . S
N36 Co39 2.135 . S
C37 N35 1.340 . S
C37 N36 1.321 . S
C37 H61 0.930 . S
H38 C33 0.931 . S
Co39 N36 2.135 . S
Co39 N42 2.121 . S
Co39 O47 2.055 . S
Co39 O50 2.039 . S
Co39 N53 2.140 . S
C40 O41 1.227 . S
C40 O50 1.265 . S
O41 C40 1.227 . S
N42 Co39 2.121 . S
N42 C44 1.375 . S
N42 C45 1.313 . S
C43 C44 1.338 . S
C43 N46 1.377 . S
C43 H63 0.930 . S
C44 N42 1.375 . S
C44 C43 1.338 . S
C44 H48 0.931 . S
C45 N42 1.313 . S
C45 N46 1.344 . S
C45 H49 0.930 . S
N46 C43 1.377 . S
N46 C45 1.344 . S
O47 Co39 2.055 . S
O47 C51 1.253 . S
H48 C44 0.931 . S
H49 C45 0.930 . S
O50 Co39 2.039 . S
O50 C40 1.265 . S
C51 O47 1.253 . S
C51 O52 1.227 . S
O52 C51 1.227 . S
N53 Co39 2.140 . S
N53 C56 1.346 . S
N53 C57 1.345 . S
C54 C55 1.387 . S
C54 C58 1.391 . S
C55 C54 1.387 . S
C55 C56 1.369 . S
C55 H64 0.929 . S
C56 N53 1.346 . S
C56 C55 1.369 . S
C56 H59 0.928 . S
C57 N53 1.345 . S
C57 C58 1.371 . S
C57 H60 0.931 . S
C58 C54 1.391 . S
C58 C57 1.371 . S
C58 H65 0.930 . S
H59 C56 0.928 . S
H60 C57 0.931 . S
H61 C37 0.930 . S
H62 C34 0.930 . S
H63 C43 0.930 . S
H64 C55 0.929 . S
H65 C58 0.930 . S
C66 C67 1.351 . S
C66 N69 1.368 . S
C66 H71 0.931 . S
C67 C66 1.351 . S
C67 N68 1.373 . S
C67 H95 0.930 . S
N68 C67 1.373 . S
N68 C70 1.340 . S
N69 C66 1.368 . S
N69 C70 1.321 . S
N69 Co72 2.135 . S
C70 N68 1.340 . S
C70 N69 1.321 . S
C70 H94 0.930 . S
H71 C66 0.931 . S
Co72 N69 2.135 . S
Co72 N75 2.121 . S
Co72 O80 2.055 . S
Co72 O83 2.039 . S
Co72 N86 2.140 . S
C73 O74 1.227 . S
C73 O83 1.265 . S
O74 C73 1.227 . S
N75 Co72 2.121 . S
N75 C77 1.375 . S
N75 C78 1.313 1_455 S
C76 C77 1.338 . S
C76 N79 1.377 1_455 S
C76 H96 0.930 . S
C77 N75 1.375 . S
C77 C76 1.338 . S
C77 H81 0.931 . S
C78 N75 1.313 1_655 S
C78 N79 1.344 . S
C78 H82 0.930 . S
N79 C76 1.377 1_655 S
N79 C78 1.344 . S
O80 Co72 2.055 . S
O80 C84 1.253 . S
H81 C77 0.931 . S
H82 C78 0.930 . S
O83 Co72 2.039 . S
O83 C73 1.265 . S
C84 O80 1.253 . S
C84 O85 1.227 . S
O85 C84 1.227 . S
N86 Co72 2.140 . S
N86 C89 1.346 . S
N86 C90 1.345 . S
C87 C88 1.387 . S
C87 C91 1.391 . S
C88 C87 1.387 . S
C88 C89 1.369 . S
C88 H97 0.929 . S
C89 N86 1.346 . S
C89 C88 1.369 . S
C89 H92 0.928 . S
C90 N86 1.345 . S
C90 C91 1.371 . S
C90 H93 0.931 . S
C91 C87 1.391 . S
C91 C90 1.371 . S
C91 H98 0.930 1_455 S
H92 C89 0.928 . S
H93 C90 0.931 . S
H94 C70 0.930 . S
H95 C67 0.930 . S
H96 C76 0.930 . S
H97 C88 0.929 . S
H98 C91 0.930 1_655 S
C99 C100 1.351 . S
C99 N102 1.368 . S
C99 H104 0.931 . S
C100 C99 1.351 . S
C100 N101 1.373 . S
C100 H128 0.930 . S
N101 C100 1.373 . S
N101 C103 1.340 . S
N102 C99 1.368 . S
N102 C103 1.321 . S
N102 Co105 2.135 . S
C103 N101 1.340 . S
C103 N102 1.321 . S
C103 H127 0.930 . S
H104 C99 0.931 . S
Co105 N102 2.135 . S
Co105 N108 2.121 . S
Co105 O113 2.055 . S
Co105 O116 2.039 . S
Co105 N119 2.140 . S
C106 O107 1.227 . S
C106 O116 1.265 . S
O107 C106 1.227 . S
N108 Co105 2.121 . S
N108 C110 1.375 . S
N108 C111 1.313 . S
C109 C110 1.338 . S
C109 N112 1.377 . S
C109 H129 0.930 . S
C110 N108 1.375 . S
C110 C109 1.338 . S
C110 H114 0.931 . S
C111 N108 1.313 . S
C111 N112 1.344 . S
C111 H115 0.930 . S
N112 C109 1.377 . S
N112 C111 1.344 . S
O113 Co105 2.055 . S
O113 C117 1.253 . S
H114 C110 0.931 . S
H115 C111 0.930 . S
O116 Co105 2.039 . S
O116 C106 1.265 . S
C117 O113 1.253 . S
C117 O118 1.227 . S
O118 C117 1.227 . S
N119 Co105 2.140 . S
N119 C122 1.346 . S
N119 C123 1.345 . S
C120 C121 1.387 . S
C120 C124 1.391 . S
C121 C120 1.387 . S
C121 C122 1.369 . S
C121 H130 0.929 . S
C122 N119 1.346 . S
C122 C121 1.369 . S
C122 H125 0.928 . S
C123 N119 1.345 . S
C123 C124 1.371 . S
C123 H126 0.931 . S
C124 C120 1.391 . S
C124 C123 1.371 . S
C124 H131 0.930 . S
H125 C122 0.928 . S
H126 C123 0.931 . S
H127 C103 0.930 . S
H128 C100 0.930 . S
H129 C109 0.930 . S
H130 C121 0.929 . S
H131 C124 0.930 . S
C132 C133 1.351 . S
C132 N135 1.368 . S
C132 H137 0.931 . S
C133 C132 1.351 . S
C133 N134 1.373 . S
C133 H161 0.930 . S
N134 C133 1.373 . S
N134 C136 1.340 . S
N135 C132 1.368 . S
N135 C136 1.321 . S
N135 Co138 2.135 . S
C136 N134 1.340 . S
C136 N135 1.321 . S
C136 H160 0.930 . S
H137 C132 0.931 . S
Co138 N135 2.135 . S
Co138 N141 2.121 . S
Co138 O146 2.055 . S
Co138 O149 2.039 . S
Co138 N152 2.140 . S
C139 O140 1.227 . S
C139 O149 1.265 . S
O140 C139 1.227 . S
N141 Co138 2.121 . S
N141 C143 1.375 . S
N141 C144 1.313 1_655 S
C142 C143 1.338 . S
C142 N145 1.377 1_655 S
C142 H162 0.930 . S
C143 N141 1.375 . S
C143 C142 1.338 . S
C143 H147 0.931 . S
C144 N141 1.313 1_455 S
C144 N145 1.344 . S
C144 H148 0.930 . S
N145 C142 1.377 1_455 S
N145 C144 1.344 . S
O146 Co138 2.055 . S
O146 C150 1.253 . S
H147 C143 0.931 . S
H148 C144 0.930 . S
O149 Co138 2.039 . S
O149 C139 1.265 . S
C150 O146 1.253 . S
C150 O151 1.227 . S
O151 C150 1.227 . S
N152 Co138 2.140 . S
N152 C155 1.346 . S
N152 C156 1.345 . S
C153 C154 1.387 . S
C153 C157 1.391 . S
C154 C153 1.387 . S
C154 C155 1.369 . S
C154 H163 0.929 . S
C155 N152 1.346 . S
C155 C154 1.369 . S
C155 H158 0.928 . S
C156 N152 1.345 . S
C156 C157 1.371 . S
C156 H159 0.931 . S
C157 C153 1.391 . S
C157 C156 1.371 . S
C157 H164 0.930 1_655 S
H158 C155 0.928 . S
H159 C156 0.931 . S
H160 C136 0.930 . S
H161 C133 0.930 . S
H162 C142 0.930 . S
H163 C154 0.929 . S
H164 C157 0.930 1_455 S
C165 C166 1.351 . S
C165 N168 1.368 . S
C165 H170 0.931 . S
C166 C165 1.351 . S
C166 N167 1.373 . S
C166 H194 0.930 . S
N167 C166 1.373 . S
N167 C169 1.340 . S
N168 C165 1.368 . S
N168 C169 1.321 . S
N168 Co171 2.135 . S
C169 N167 1.340 . S
C169 N168 1.321 . S
C169 H193 0.930 . S
H170 C165 0.931 . S
Co171 N168 2.135 . S
Co171 N174 2.121 . S
Co171 O179 2.055 . S
Co171 O182 2.039 . S
Co171 N185 2.140 . S
C172 O173 1.227 . S
C172 O182 1.265 . S
O173 C172 1.227 . S
N174 Co171 2.121 . S
N174 C176 1.375 . S
N174 C177 1.313 . S
C175 C176 1.338 . S
C175 N178 1.377 . S
C175 H195 0.930 . S
C176 N174 1.375 . S
C176 C175 1.338 . S
C176 H180 0.931 . S
C177 N174 1.313 . S
C177 N178 1.344 . S
C177 H181 0.930 . S
N178 C175 1.377 . S
N178 C177 1.344 . S
O179 Co171 2.055 . S
O179 C183 1.253 . S
H180 C176 0.931 . S
H181 C177 0.930 . S
O182 Co171 2.039 . S
O182 C172 1.265 . S
C183 O179 1.253 . S
C183 O184 1.227 . S
O184 C183 1.227 . S
N185 Co171 2.140 . S
N185 C188 1.346 . S
N185 C189 1.345 . S
C186 C187 1.387 . S
C186 C190 1.391 . S
C187 C186 1.387 . S
C187 C188 1.369 . S
C187 H196 0.929 . S
C188 N185 1.346 . S
C188 C187 1.369 . S
C188 H191 0.928 . S
C189 N185 1.345 . S
C189 C190 1.371 . S
C189 H192 0.931 . S
C190 C186 1.391 . S
C190 C189 1.371 . S
C190 H197 0.930 . S
H191 C188 0.928 . S
H192 C189 0.931 . S
H193 C169 0.930 . S
H194 C166 0.930 . S
H195 C175 0.930 . S
H196 C187 0.929 . S
H197 C190 0.930 . S
C198 C199 1.351 . S
C198 N201 1.368 . S
C198 H203 0.931 . S
C199 C198 1.351 . S
C199 N200 1.373 . S
C199 H227 0.930 . S
N200 C199 1.373 . S
N200 C202 1.340 . S
N201 C198 1.368 . S
N201 C202 1.321 . S
N201 Co204 2.135 . S
C202 N200 1.340 . S
C202 N201 1.321 . S
C202 H226 0.930 . S
H203 C198 0.931 . S
Co204 N201 2.135 . S
Co204 N207 2.121 . S
Co204 O212 2.055 . S
Co204 O215 2.039 . S
Co204 N218 2.140 . S
C205 O206 1.227 . S
C205 O215 1.265 . S
O206 C205 1.227 . S
N207 Co204 2.121 . S
N207 C209 1.375 . S
N207 C210 1.313 1_655 S
C208 C209 1.338 . S
C208 N211 1.377 1_655 S
C208 H228 0.930 . S
C209 N207 1.375 . S
C209 C208 1.338 . S
C209 H213 0.931 . S
C210 N207 1.313 1_455 S
C210 N211 1.344 . S
C210 H214 0.930 . S
N211 C208 1.377 1_455 S
N211 C210 1.344 . S
O212 Co204 2.055 . S
O212 C216 1.253 . S
H213 C209 0.931 . S
H214 C210 0.930 . S
O215 Co204 2.039 . S
O215 C205 1.265 . S
C216 O212 1.253 . S
C216 O217 1.227 . S
O217 C216 1.227 . S
N218 Co204 2.140 . S
N218 C221 1.346 . S
N218 C222 1.345 . S
C219 C220 1.387 . S
C219 C223 1.391 . S
C220 C219 1.387 . S
C220 C221 1.369 . S
C220 H229 0.929 . S
C221 N218 1.346 . S
C221 C220 1.369 . S
C221 H224 0.928 . S
C222 N218 1.345 . S
C222 C223 1.371 . S
C222 H225 0.931 . S
C223 C219 1.391 . S
C223 C222 1.371 . S
C223 H230 0.930 1_655 S
H224 C221 0.928 . S
H225 C222 0.931 . S
H226 C202 0.930 . S
H227 C199 0.930 . S
H228 C208 0.930 . S
H229 C220 0.929 . S
H230 C223 0.930 1_455 S
C231 C232 1.351 . S
C231 N234 1.368 . S
C231 H236 0.931 . S
C232 C231 1.351 . S
C232 N233 1.373 . S
C232 H260 0.930 . S
N233 C232 1.373 . S
N233 C235 1.340 . S
N234 C231 1.368 . S
N234 C235 1.321 . S
N234 Co237 2.135 . S
C235 N233 1.340 . S
C235 N234 1.321 . S
C235 H259 0.930 . S
H236 C231 0.931 . S
Co237 N234 2.135 . S
Co237 N240 2.121 . S
Co237 O245 2.055 . S
Co237 O248 2.039 . S
Co237 N251 2.140 . S
C238 O239 1.227 . S
C238 O248 1.265 . S
O239 C238 1.227 . S
N240 Co237 2.121 . S
N240 C242 1.375 . S
N240 C243 1.313 . S
C241 C242 1.338 . S
C241 N244 1.377 . S
C241 H261 0.930 . S
C242 N240 1.375 . S
C242 C241 1.338 . S
C242 H246 0.931 . S
C243 N240 1.313 . S
C243 N244 1.344 . S
C243 H247 0.930 . S
N244 C241 1.377 . S
N244 C243 1.344 . S
O245 Co237 2.055 . S
O245 C249 1.253 . S
H246 C242 0.931 . S
H247 C243 0.930 . S
O248 Co237 2.039 . S
O248 C238 1.265 . S
C249 O245 1.253 . S
C249 O250 1.227 . S
O250 C249 1.227 . S
N251 Co237 2.140 . S
N251 C254 1.346 . S
N251 C255 1.345 . S
C252 C253 1.387 . S
C252 C256 1.391 . S
C253 C252 1.387 . S
C253 C254 1.369 . S
C253 H262 0.929 . S
C254 N251 1.346 . S
C254 C253 1.369 . S
C254 H257 0.928 . S
C255 N251 1.345 . S
C255 C256 1.371 . S
C255 H258 0.931 . S
C256 C252 1.391 . S
C256 C255 1.371 . S
C256 H263 0.930 . S
H257 C254 0.928 . S
H258 C255 0.931 . S
H259 C235 0.930 . S
H260 C232 0.930 . S
H261 C241 0.930 . S
H262 C253 0.929 . S
H263 C256 0.930 . S
H264 C270 0.930 . S
H265 C274 0.930 . S
H266 C279 0.929 1_556 S
H267 C277 0.929 1_554 S
H268 C272 0.929 1_545 S
H269 C278 0.929 1_565 S
C270 H264 0.930 . S
C270 C271 1.367 1_655 S
C270 C278 1.378 . S
C271 C270 1.367 1_455 S
C271 C279 1.433 . S
C272 H268 0.929 1_565 S
C272 C274 1.378 . S
C272 C276 1.349 1_455 S
C273 C276 1.462 1_444 S
C273 C278 1.349 1_455 S
C273 N281 1.428 1_554 S
C274 H265 0.930 . S
C274 C272 1.378 . S
C274 C275 1.367 1_455 S
C275 C274 1.367 1_655 S
C275 C277 1.433 . S
C276 C272 1.349 1_655 S
C276 C273 1.462 1_666 S
C276 N280 1.428 1_556 S
C277 H267 0.929 1_556 S
C277 C275 1.433 . S
C277 N280 1.384 1_556 S
C278 H269 0.929 1_545 S
C278 C270 1.378 . S
C278 C273 1.349 1_655 S
C279 H266 0.929 1_554 S
C279 C271 1.433 . S
C279 N281 1.384 1_554 S
N280 C276 1.428 1_554 S
N280 C277 1.384 1_554 S
N281 C273 1.428 1_556 S
N281 C279 1.384 1_556 S
H282 C288 0.930 1_554 S
H283 C292 0.930 1_556 S
H284 C297 0.929 . S
H285 C295 0.929 . S
H286 C290 0.929 . S
H287 C296 0.929 . S
C288 H282 0.930 1_556 S
C288 C289 1.367 . S
C288 C296 1.378 1_556 S
C289 C288 1.367 . S
C289 C297 1.433 . S
C290 H286 0.929 . S
C290 C292 1.378 1_556 S
C290 C294 1.350 1_556 S
C291 C294 1.463 1_546 S
C291 C296 1.350 1_556 S
C291 N299 1.427 . S
C292 H283 0.930 1_554 S
C292 C290 1.378 1_554 S
C292 C293 1.367 . S
C293 C292 1.367 . S
C293 C295 1.433 . S
C294 C290 1.350 1_554 S
C294 C291 1.463 1_564 S
C294 N298 1.427 . S
C295 H285 0.929 . S
C295 C293 1.433 . S
C295 N298 1.384 . S
C296 H287 0.929 . S
C296 C288 1.378 1_554 S
C296 C291 1.350 1_554 S
C297 H284 0.929 . S
C297 C289 1.433 . S
C297 N299 1.384 . S
N298 C294 1.427 . S
N298 C295 1.384 . S
N299 C291 1.427 . S
N299 C297 1.384 . S
H300 C306 0.930 . S
H301 C310 0.930 . S
H302 C315 0.929 . S
H303 C313 0.929 . S
H304 C308 0.929 . S
H305 C314 0.929 . S
C306 H300 0.930 . S
C306 C307 1.367 . S
C306 C314 1.378 . S
C307 C306 1.367 . S
C307 C315 1.433 1_655 S
C308 H304 0.929 . S
C308 C310 1.378 . S
C308 C312 1.350 . S
C309 C312 1.463 1_655 S
C309 C314 1.350 . S
C309 N317 1.427 1_655 S
C310 H301 0.930 . S
C310 C308 1.378 . S
C310 C311 1.367 . S
C311 C310 1.367 . S
C311 C313 1.433 1_455 S
C312 C308 1.350 . S
C312 C309 1.463 1_455 S
C312 N316 1.427 1_455 S
C313 H303 0.929 . S
C313 C311 1.433 1_655 S
C313 N316 1.384 . S
C314 H305 0.929 . S
C314 C306 1.378 . S
C314 C309 1.350 . S
C315 H302 0.929 . S
C315 C307 1.433 1_455 S
C315 N317 1.384 . S
N316 C312 1.427 1_655 S
N316 C313 1.384 . S
N317 C309 1.427 1_455 S
N317 C315 1.384 . S
H318 C324 0.930 . S
H319 C328 0.930 . S
H320 C333 0.929 . S
H321 C331 0.929 . S
H322 C326 0.929 . S
H323 C332 0.929 . S
C324 H318 0.930 . S
C324 C325 1.367 . S
C324 C332 1.378 . S
C325 C324 1.367 . S
C325 C333 1.433 . S
C326 H322 0.929 . S
C326 C328 1.378 . S
C326 C330 1.350 . S
C327 C330 1.463 . S
C327 C332 1.350 . S
C327 N335 1.427 . S
C328 H319 0.930 . S
C328 C326 1.378 . S
C328 C329 1.367 . S
C329 C328 1.367 . S
C329 C331 1.433 . S
C330 C326 1.350 . S
C330 C327 1.463 . S
C330 N334 1.427 . S
C331 H321 0.929 . S
C331 C329 1.433 . S
C331 N334 1.384 . S
C332 H323 0.929 . S
C332 C324 1.378 . S
C332 C327 1.350 . S
C333 H320 0.929 . S
C333 C325 1.433 . S
C333 N335 1.384 . S
N334 C330 1.427 . S
N334 C331 1.384 . S
N335 C327 1.427 . S
N335 C333 1.384 . S
H336 C342 0.930 . S
H337 C346 0.930 . S
H338 C351 0.929 . S
H339 C349 0.929 . S
H340 C344 0.929 . S
H341 C350 0.929 . S
C342 H336 0.930 . S
C342 C343 1.367 . S
C342 C350 1.378 . S
C343 C342 1.367 . S
C343 C351 1.433 . S
C344 H340 0.929 . S
C344 C346 1.378 . S
C344 C348 1.350 . S
C345 C348 1.463 1_565 S
C345 C350 1.350 . S
C345 N353 1.427 . S
C346 H337 0.930 . S
C346 C344 1.378 . S
C346 C347 1.367 . S
C347 C346 1.367 . S
C347 C349 1.433 . S
C348 C344 1.350 . S
C348 C345 1.463 1_545 S
C348 N352 1.427 . S
C349 H339 0.929 . S
C349 C347 1.433 . S
C349 N352 1.384 . S
C350 H341 0.929 . S
C350 C342 1.378 . S
C350 C345 1.350 . S
C351 H338 0.929 . S
C351 C343 1.433 . S
C351 N353 1.384 . S
N352 C348 1.427 . S
N352 C349 1.384 . S
N353 C345 1.427 . S
N353 C351 1.384 . S
H354 C360 0.930 . S
H355 C364 0.930 . S
H356 C369 0.929 . S
H357 C367 0.929 . S
H358 C362 0.929 . S
H359 C368 0.929 . S
C360 H354 0.930 . S
C360 C361 1.367 . S
C360 C368 1.378 . S
C361 C360 1.367 . S
C361 C369 1.433 . S
C362 H358 0.929 . S
C362 C364 1.378 . S
C362 C366 1.350 . S
C363 C366 1.463 . S
C363 C368 1.350 . S
C363 N371 1.427 . S
C364 H355 0.930 . S
C364 C362 1.378 . S
C364 C365 1.367 . S
C365 C364 1.367 . S
C365 C367 1.433 . S
C366 C362 1.350 . S
C366 C363 1.463 . S
C366 N370 1.427 . S
C367 H357 0.929 . S
C367 C365 1.433 . S
C367 N370 1.384 . S
C368 H359 0.929 . S
C368 C360 1.378 . S
C368 C363 1.350 . S
C369 H356 0.929 . S
C369 C361 1.433 . S
C369 N371 1.384 . S
N370 C366 1.427 . S
N370 C367 1.384 . S
N371 C363 1.427 . S
N371 C369 1.384 . S
H372 C378 0.930 . S
H373 C382 0.930 . S
H374 C387 0.929 . S
H375 C385 0.929 . S
H376 C380 0.929 . S
H377 C386 0.929 . S
C378 H372 0.930 . S
C378 C379 1.367 . S
C378 C386 1.378 . S
C379 C378 1.367 . S
C379 C387 1.433 . S
C380 H376 0.929 . S
C380 C382 1.378 . S
C380 C384 1.350 . S
C381 C384 1.463 1_565 S
C381 C386 1.350 . S
C381 N389 1.427 . S
C382 H373 0.930 . S
C382 C380 1.378 . S
C382 C383 1.367 . S
C383 C382 1.367 . S
C383 C385 1.433 . S
C384 C380 1.350 . S
C384 C381 1.463 1_545 S
C384 N388 1.427 . S
C385 H375 0.929 . S
C385 C383 1.433 . S
C385 N388 1.384 . S
C386 H377 0.929 . S
C386 C378 1.378 . S
C386 C381 1.350 . S
C387 H374 0.929 . S
C387 C379 1.433 . S
C387 N389 1.384 . S
N388 C384 1.427 . S
N388 C385 1.384 . S
N389 C381 1.427 . S
N389 C387 1.384 . S
H390 C396 0.930 . S
H391 C400 0.930 . S
H392 C405 0.929 . S
H393 C403 0.929 . S
H394 C398 0.929 . S
H395 C404 0.929 . S
C396 H390 0.930 . S
C396 C397 1.367 . S
C396 C404 1.378 . S
C397 C396 1.367 . S
C397 C405 1.433 . S
C398 H394 0.929 . S
C398 C400 1.378 . S
C398 C402 1.350 . S
C399 C402 1.463 . S
C399 C404 1.350 . S
C399 N407 1.427 . S
C400 H391 0.930 . S
C400 C398 1.378 . S
C400 C401 1.367 . S
C401 C400 1.367 . S
C401 C403 1.433 . S
C402 C398 1.350 . S
C402 C399 1.463 . S
C402 N406 1.427 . S
C403 H393 0.929 . S
C403 C401 1.433 . S
C403 N406 1.384 . S
C404 H395 0.929 . S
C404 C396 1.378 . S
C404 C399 1.350 . S
C405 H392 0.929 . S
C405 C397 1.433 . S
C405 N407 1.384 . S
N406 C402 1.427 . S
N406 C403 1.384 . S
N407 C399 1.427 . S
N407 C405 1.384 . S
H408 C414 0.930 . S
H409 C418 0.930 . S
H410 C423 0.929 . S
H411 C421 0.929 . S
H412 C416 0.929 . S
H413 C422 0.929 . S
C414 H408 0.930 . S
C414 C415 1.367 1_556 S
C414 C422 1.378 . S
C415 C414 1.367 1_554 S
C415 C423 1.433 . S
C416 H412 0.929 . S
C416 C418 1.378 . S
C416 C420 1.350 1_554 S
C417 C420 1.463 1_554 S
C417 C422 1.350 1_554 S
C417 N425 1.427 . S
C418 H409 0.930 . S
C418 C416 1.378 . S
C418 C419 1.367 1_554 S
C419 C418 1.367 1_556 S
C419 C421 1.433 . S
C420 C416 1.350 1_556 S
C420 C417 1.463 1_556 S
C420 N424 1.427 . S
C421 H411 0.929 . S
C421 C419 1.433 . S
C421 N424 1.384 . S
C422 H413 0.929 . S
C422 C414 1.378 . S
C422 C417 1.350 1_556 S
C423 H410 0.929 . S
C423 C415 1.433 . S
C423 N425 1.384 . S
N424 C420 1.427 . S
N424 C421 1.384 . S
N425 C417 1.427 . S
N425 C423 1.384 . S
H426 C432 0.930 1_554 S
H427 C436 0.930 . S
H428 C441 0.929 . S
H429 C439 0.929 . S
H430 C434 0.942 . S
H431 C440 0.929 . S
C432 H426 0.930 1_556 S
C432 C433 1.367 . S
C432 C440 1.378 1_556 S
C433 C432 1.367 . S
C433 C441 1.433 . S
C434 H430 0.942 . S
C434 C436 1.371 1_556 S
C434 C438 1.344 1_556 S
C435 C438 1.463 1_556 S
C435 C440 1.350 1_556 S
C435 N443 1.427 . S
C436 H427 0.930 . S
C436 C434 1.371 1_554 S
C436 C437 1.367 . S
C437 C436 1.367 . S
C437 C439 1.433 . S
C438 C434 1.344 1_554 S
C438 C435 1.463 1_554 S
C438 N442 1.427 . S
C439 H429 0.929 . S
C439 C437 1.433 . S
C439 N442 1.384 . S
C440 H431 0.929 . S
C440 C432 1.378 1_554 S
C440 C435 1.350 1_554 S
C441 H428 0.929 . S
C441 C433 1.433 . S
C441 N443 1.384 . S
N442 C438 1.427 . S
N442 C439 1.384 . S
N443 C435 1.427 . S
N443 C441 1.384 . S
H444 C450 0.930 . S
H445 C454 0.930 . S
H446 C459 0.929 . S
H447 C457 0.929 . S
H448 C452 0.929 . S
H449 C458 0.929 . S
C450 H444 0.930 . S
C450 C451 1.367 . S
C450 C458 1.378 . S
C451 C450 1.367 . S
C451 C459 1.433 . S
C452 H448 0.929 . S
C452 C454 1.378 . S
C452 C456 1.350 . S
C453 C456 1.463 . S
C453 C458 1.350 . S
C453 N461 1.427 . S
C454 H445 0.930 . S
C454 C452 1.378 . S
C454 C455 1.367 . S
C455 C454 1.367 . S
C455 C457 1.433 . S
C456 C452 1.350 . S
C456 C453 1.463 . S
C456 N460 1.427 . S
C457 H447 0.929 . S
C457 C455 1.433 . S
C457 N460 1.384 . S
C458 H449 0.929 . S
C458 C450 1.378 . S
C458 C453 1.350 . S
C459 H446 0.929 . S
C459 C451 1.433 . S
C459 N461 1.384 . S
N460 C456 1.427 . S
N460 C457 1.384 . S
N461 C453 1.427 . S
N461 C459 1.384 . S
H462 C468 0.930 . S
H463 C472 0.930 . S
H464 C477 0.929 . S
H465 C475 0.929 . S
H466 C470 0.929 . S
H467 C476 0.929 . S
C468 H462 0.930 . S
C468 C469 1.367 . S
C468 C476 1.378 . S
C469 C468 1.367 . S
C469 C477 1.433 . S
C470 H466 0.929 . S
C470 C472 1.378 . S
C470 C474 1.350 . S
C471 C474 1.463 . S
C471 C476 1.350 . S
C471 N479 1.427 . S
C472 H463 0.930 . S
C472 C470 1.378 . S
C472 C473 1.367 . S
C473 C472 1.367 . S
C473 C475 1.433 . S
C474 C470 1.350 . S
C474 C471 1.463 . S
C474 N478 1.427 . S
C475 H465 0.929 . S
C475 C473 1.433 . S
C475 N478 1.384 . S
C476 H467 0.929 . S
C476 C468 1.378 . S
C476 C471 1.350 . S
C477 H464 0.929 . S
C477 C469 1.433 . S
C477 N479 1.384 . S
N478 C474 1.427 . S
N478 C475 1.384 . S
N479 C471 1.427 . S
N479 C477 1.384 . S
H480 C486 0.930 . S
H481 C490 0.930 . S
H482 C495 0.929 . S
H483 C493 0.915 1_554 S
H484 C488 0.929 . S
H485 C494 0.929 . S
C486 H480 0.930 . S
C486 C487 1.367 . S
C486 C494 1.378 . S
C487 C486 1.367 . S
C487 C495 1.433 1_554 S
C488 H484 0.929 . S
C488 C490 1.378 . S
C488 C492 1.350 . S
C489 C492 1.463 1_554 S
C489 C494 1.350 . S
C489 N497 1.427 1_554 S
C490 H481 0.930 . S
C490 C488 1.378 . S
C490 C491 1.367 . S
C491 C490 1.367 . S
C491 C493 1.457 . S
C492 C488 1.350 . S
C492 C489 1.463 1_556 S
C492 N496 1.427 1_556 S
C493 H483 0.915 1_556 S
C493 C491 1.457 . S
C493 N496 1.375 1_556 S
C494 H485 0.929 . S
C494 C486 1.378 . S
C494 C489 1.350 . S
C495 H482 0.929 . S
C495 C487 1.433 1_556 S
C495 N497 1.384 . S
N496 C492 1.427 1_554 S
N496 C493 1.375 1_554 S
N497 C489 1.427 1_556 S
N497 C495 1.384 . S
H498 C504 0.930 . S
H499 C508 0.930 . S
H500 C513 0.929 . S
H501 C511 0.929 . S
H502 C506 0.929 . S
H503 C512 0.929 . S
C504 H498 0.930 . S
C504 C505 1.367 . S
C504 C512 1.378 . S
C505 C504 1.367 . S
C505 C513 1.433 . S
C506 H502 0.929 . S
C506 C508 1.378 . S
C506 C510 1.350 . S
C507 C510 1.463 1_556 S
C507 C512 1.350 . S
C507 N515 1.427 . S
C508 H499 0.930 . S
C508 C506 1.378 . S
C508 C509 1.367 . S
C509 C508 1.367 . S
C509 C511 1.433 . S
C510 C506 1.350 . S
C510 C507 1.463 1_554 S
C510 N514 1.427 . S
C511 H501 0.929 . S
C511 C509 1.433 . S
C511 N514 1.384 . S
C512 H503 0.929 . S
C512 C504 1.378 . S
C512 C507 1.350 . S
C513 H500 0.929 . S
C513 C505 1.433 . S
C513 N515 1.384 . S
N514 C510 1.427 . S
N514 C511 1.384 . S
N515 C507 1.427 . S
N515 C513 1.384 . S
H516 C522 0.930 . S
H517 C526 0.930 . S
H518 C531 0.929 . S
H519 C529 0.929 . S
H520 C524 0.929 . S
H521 C530 0.929 . S
C522 H516 0.930 . S
C522 C523 1.367 . S
C522 C530 1.378 . S
C523 C522 1.367 . S
C523 C531 1.433 . S
C524 H520 0.929 . S
C524 C526 1.378 . S
C524 C528 1.350 . S
C525 C528 1.463 . S
C525 C530 1.350 . S
C525 N533 1.427 . S
C526 H517 0.930 . S
C526 C524 1.378 . S
C526 C527 1.367 . S
C527 C526 1.367 . S
C527 C529 1.433 . S
C528 C524 1.350 . S
C528 C525 1.463 . S
C528 N532 1.427 . S
C529 H519 0.929 . S
C529 C527 1.433 . S
C529 N532 1.384 . S
C530 H521 0.929 . S
C530 C522 1.378 . S
C530 C525 1.350 . S
C531 H518 0.929 . S
C531 C523 1.433 . S
C531 N533 1.384 . S
N532 C528 1.427 . S
N532 C529 1.384 . S
N533 C525 1.427 . S
N533 C531 1.384 . S
H534 C540 0.930 . S
H535 C544 0.930 . S
H536 C549 0.929 . S
H537 C547 0.929 . S
H538 C542 0.929 . S
H539 C548 0.929 . S
C540 H534 0.930 . S
C540 C541 1.367 . S
C540 C548 1.378 . S
C541 C540 1.367 . S
C541 C549 1.433 . S
C542 H538 0.929 . S
C542 C544 1.378 . S
C542 C546 1.350 . S
C543 C546 1.463 . S
C543 C548 1.350 . S
C543 N551 1.427 . S
C544 H535 0.930 . S
C544 C542 1.378 . S
C544 C545 1.367 . S
C545 C544 1.367 . S
C545 C547 1.433 . S
C546 C542 1.350 . S
C546 C543 1.463 . S
C546 N550 1.427 . S
C547 H537 0.929 . S
C547 C545 1.433 . S
C547 N550 1.384 . S
C548 H539 0.929 . S
C548 C540 1.378 . S
C548 C543 1.350 . S
C549 H536 0.929 . S
C549 C541 1.433 . S
C549 N551 1.384 . S
N550 C546 1.427 . S
N550 C547 1.384 . S
N551 C543 1.427 . S
N551 C549 1.384 . S
H552 C558 0.930 . S
H553 C562 0.930 . S
H554 C567 0.929 . S
H555 C565 0.929 . S
H556 C560 0.929 . S
H557 C566 0.929 . S
C558 H552 0.930 . S
C558 C559 1.367 . S
C558 C566 1.378 . S
C559 C558 1.367 . S
C559 C567 1.433 . S
C560 H556 0.929 . S
C560 C562 1.378 . S
C560 C564 1.350 . S
C561 C564 1.463 . S
C561 C566 1.350 . S
C561 N569 1.427 . S
C562 H553 0.930 . S
C562 C560 1.378 . S
C562 C563 1.367 . S
C563 C562 1.367 . S
C563 C565 1.433 . S
C564 C560 1.350 . S
C564 C561 1.463 . S
C564 N568 1.427 . S
C565 H555 0.929 . S
C565 C563 1.433 . S
C565 N568 1.384 . S
C566 H557 0.929 . S
C566 C558 1.378 . S
C566 C561 1.350 . S
C567 H554 0.929 . S
C567 C559 1.433 . S
C567 N569 1.384 . S
N568 C564 1.427 . S
N568 C565 1.384 . S
N569 C561 1.427 . S
N569 C567 1.384 . S
H570 C576 0.930 . S
H571 C580 0.930 . S
H572 C585 0.929 . S
H573 C583 0.929 . S
H574 C578 0.929 . S
H575 C584 0.929 . S
C576 H570 0.930 . S
C576 C577 1.367 . S
C576 C584 1.378 . S
C577 C576 1.367 . S
C577 C585 1.433 . S
C578 H574 0.929 . S
C578 C580 1.378 . S
C578 C582 1.350 . S
C579 C582 1.463 . S
C579 C584 1.350 . S
C579 N587 1.427 . S
C580 H571 0.930 . S
C580 C578 1.378 . S
C580 C581 1.367 . S
C581 C580 1.367 . S
C581 C583 1.433 . S
C582 C578 1.350 . S
C582 C579 1.463 . S
C582 N586 1.427 . S
C583 H573 0.929 . S
C583 C581 1.433 . S
C583 N586 1.384 . S
C584 H575 0.929 . S
C584 C576 1.378 . S
C584 C579 1.350 . S
C585 H572 0.929 . S
C585 C577 1.433 . S
C585 N587 1.384 . S
N586 C582 1.427 . S
N586 C583 1.384 . S
N587 C579 1.427 . S
N587 C585 1.384 . S
H588 C594 0.930 . S
H589 C598 0.930 . S
H590 C603 0.929 . S
H591 C601 0.929 . S
H592 C596 0.929 . S
H593 C602 0.929 . S
C594 H588 0.930 . S
C594 C595 1.367 . S
C594 C602 1.378 . S
C595 C594 1.367 . S
C595 C603 1.433 . S
C596 H592 0.929 . S
C596 C598 1.378 . S
C596 C600 1.350 . S
C597 C600 1.463 . S
C597 C602 1.350 . S
C597 N605 1.427 . S
C598 H589 0.930 . S
C598 C596 1.378 . S
C598 C599 1.367 . S
C599 C598 1.367 . S
C599 C601 1.433 . S
C600 C596 1.350 . S
C600 C597 1.463 . S
C600 N604 1.427 . S
C601 H591 0.929 . S
C601 C599 1.433 . S
C601 N604 1.384 . S
C602 H593 0.929 . S
C602 C594 1.378 . S
C602 C597 1.350 . S
C603 H590 0.929 . S
C603 C595 1.433 . S
C603 N605 1.384 . S
N604 C600 1.427 . S
N604 C601 1.384 . S
N605 C597 1.427 . S
N605 C603 1.384 . S
H606 C612 0.930 . S
H607 C616 0.930 . S
H608 C621 0.929 . S
H609 C619 0.929 . S
H610 C614 0.929 . S
H611 C620 0.929 . S
C612 H606 0.930 . S
C612 C613 1.367 . S
C612 C620 1.378 . S
C613 C612 1.367 . S
C613 C621 1.433 . S
C614 H610 0.929 . S
C614 C616 1.378 . S
C614 C618 1.350 . S
C615 C618 1.463 . S
C615 C620 1.350 . S
C615 N623 1.427 . S
C616 H607 0.930 . S
C616 C614 1.378 . S
C616 C617 1.367 . S
C617 C616 1.367 . S
C617 C619 1.433 . S
C618 C614 1.350 . S
C618 C615 1.463 . S
C618 N622 1.427 . S
C619 H609 0.929 . S
C619 C617 1.433 . S
C619 N622 1.384 . S
C620 H611 0.929 . S
C620 C612 1.378 . S
C620 C615 1.350 . S
C621 H608 0.929 . S
C621 C613 1.433 . S
C621 N623 1.384 . S
N622 C618 1.427 . S
N622 C619 1.384 . S
N623 C615 1.427 . S
N623 C621 1.384 . S
C271 C18 1.059 . S
C275 C150 1.059 . S
C289 C183 1.058 . S
C293 C51 1.058 . S
C307 C216 1.050 . S
C311 C84 1.050 . S
C325 C117 1.063 . S
C329 C249 1.063 . S
C343 N35 0.691 . S
C347 N2 0.680 . S
C361 N68 0.679 . S
C365 N101 0.684 . S
C379 N134 0.703 . S
C383 N167 0.719 . S
C397 N233 0.683 . S
C401 N200 0.696 . S
C415 C7 1.769 . S
C419 N178 1.852 . S
C433 N145 1.854 . S
C437 C40 1.761 . S
C451 N244 1.849 . S
C455 C73 1.771 . S
C469 N211 1.853 . S
C473 C106 1.766 . S
C487 N46 1.850 . S
C491 C139 1.764 . S
C505 C172 1.758 . S
C509 N13 1.854 . S
C523 C205 1.760 . S
C527 N112 1.854 . S
C541 N79 1.849 . S
C545 C238 1.768 . S
C559 C87 1.466 . S
C563 C21 1.465 . S
C577 C54 1.473 . S
C581 C120 1.470 . S
C595 C219 1.465 . S
C599 C153 1.465 . S
C613 C252 1.466 . S
C617 C186 1.470 . S
