# Generated by pormake.
# Topology unm, (4)-cn, num edge types: 1
# Building blocks:
#     Node 0, Type 0, BuildingBlock: QUQFOY_clean_sbu_3, # of connection points: 4
#     Node 1, Type 0, BuildingBlock: QUQFOY_clean_sbu_3, # of connection points: 4
#     Node 2, Type 0, BuildingBlock: QUQFOY_clean_sbu_3, # of connection points: 4
#     Node 3, Type 0, BuildingBlock: QUQFOY_clean_sbu_3, # of connection points: 4
#     Node 4, Type 0, BuildingBlock: QUQFOY_clean_sbu_3, # of connection points: 4
#     Node 5, Type 0, BuildingBlock: QUQFOY_clean_sbu_3, # of connection points: 4
#     Node 6, Type 0, BuildingBlock: QUQFOY_clean_sbu_3, # of connection points: 4
#     Node 7, Type 0, BuildingBlock: QUQFOY_clean_sbu_3, # of connection points: 4
#     Edge 8, Type (0, 0), BuildingBlock: XUDNAN_clean_linker_2, # of connection points: 2
#     Edge 9, Type (0, 0), BuildingBlock: XUDNAN_clean_linker_2, # of connection points: 2
#     Edge 10, Type (0, 0), BuildingBlock: XUDNAN_clean_linker_2, # of connection points: 2
#     Edge 11, Type (0, 0), BuildingBlock: XUDNAN_clean_linker_2, # of connection points: 2
#     Edge 12, Type (0, 0), BuildingBlock: XUDNAN_clean_linker_2, # of connection points: 2
#     Edge 13, Type (0, 0), BuildingBlock: XUDNAN_clean_linker_2, # of connection points: 2
#     Edge 14, Type (0, 0), BuildingBlock: XUDNAN_clean_linker_2, # of connection points: 2
#     Edge 15, Type (0, 0), BuildingBlock: XUDNAN_clean_linker_2, # of connection points: 2
#     Edge 16, Type (0, 0), BuildingBlock: XUDNAN_clean_linker_2, # of connection points: 2
#     Edge 17, Type (0, 0), BuildingBlock: XUDNAN_clean_linker_2, # of connection points: 2
#     Edge 18, Type (0, 0), BuildingBlock: XUDNAN_clean_linker_2, # of connection points: 2
#     Edge 19, Type (0, 0), BuildingBlock: XUDNAN_clean_linker_2, # of connection points: 2
#     Edge 20, Type (0, 0), BuildingBlock: XUDNAN_clean_linker_2, # of connection points: 2
#     Edge 21, Type (0, 0), BuildingBlock: XUDNAN_clean_linker_2, # of connection points: 2
#     Edge 22, Type (0, 0), BuildingBlock: XUDNAN_clean_linker_2, # of connection points: 2
#     Edge 23, Type (0, 0), BuildingBlock: XUDNAN_clean_linker_2, # of connection points: 2
# Relax obj value: 0.175
# Max RMSD: 0.148
# Mean RMSD: 0.148
data_MOF--net-unm--node1-QUQFOY_clean_sbu_3--edge1-XUDNAN_clean_linker_2
_symmetry_space_group_name_H-M    P1
_symmetry_Int_Tables_number       1
_symmetry_cell_setting            triclinic
loop_
_symmetry_equiv_pos_as_xyz
'x, y, z'
_cell_length_a     26.340495
_cell_length_b     26.092699
_cell_length_c     46.231186
_cell_angle_alpha  89.996576
_cell_angle_beta   89.908459
_cell_angle_gamma 90.165822
loop_
_atom_site_label
_atom_site_type_symbol
_atom_site_fract_x
_atom_site_fract_y
_atom_site_fract_z
_atom_type_partial_charge
C0 C 0.04515 0.20019 0.1499 0.0
O1 O 0.03158 0.20498 0.12369 0.0
Cd2 Cd 0.07978 0.23758 0.08353 0.0
O3 O 0.08943 0.21367 0.15807 0.0
Cd4 Cd 0.16336 0.25649 0.1347 0.0
C5 C 0.0928 0.35737 0.11265 0.0
O6 O 0.16637 0.21534 0.08701 0.0
O7 O 0.20643 0.28706 0.09195 0.0
O8 O 0.23251 0.20843 0.15677 0.0
C9 C 0.19459 0.24963 0.07583 0.0
O10 O 0.07828 0.32912 0.09177 0.0
C11 C 0.25111 0.24614 0.17058 0.0
O12 O 0.11964 0.33986 0.13335 0.0
O13 O 0.22729 0.28833 0.16903 0.0
C14 C 0.28619 0.52504 0.65304 0.0
O15 O 0.27517 0.51444 0.62698 0.0
Cd16 Cd 0.23637 0.56609 0.59046 0.0
O17 O 0.2754 0.56863 0.66396 0.0
Cd18 Cd 0.22458 0.64252 0.6454 0.0
C19 C 0.12572 0.56345 0.62644 0.0
O20 O 0.26278 0.65227 0.59764 0.0
O21 O 0.19271 0.69245 0.60429 0.0
O22 O 0.25857 0.71392 0.67539 0.0
C23 C 0.22968 0.68254 0.58768 0.0
O24 O 0.14688 0.55473 0.60216 0.0
C25 C 0.21593 0.72273 0.68741 0.0
O26 O 0.14805 0.58958 0.64591 0.0
O27 O 0.17941 0.69334 0.68059 0.0
C28 C 0.92273 0.82961 0.17539 0.0
O29 O 0.9314 0.84946 0.15078 0.0
Cd30 Cd 0.90038 0.8165 0.10595 0.0
O31 O 0.8884 0.79541 0.17866 0.0
Cd32 Cd 0.8202 0.75261 0.1495 0.0
C33 C 0.91933 0.68698 0.12236 0.0
O34 O 0.81215 0.80913 0.10838 0.0
O35 O 0.78763 0.73131 0.10135 0.0
O36 O 0.74367 0.78198 0.17357 0.0
C37 C 0.7945 0.77588 0.09105 0.0
O38 O 0.92924 0.72782 0.10822 0.0
C39 C 0.72944 0.73834 0.18273 0.0
O40 O 0.88264 0.68493 0.14045 0.0
O41 O 0.75895 0.70072 0.178 0.0
C42 C 0.64012 0.4121 0.67046 0.0
O43 O 0.63326 0.43079 0.64541 0.0
Cd44 Cd 0.67286 0.40128 0.60196 0.0
O45 O 0.66456 0.37037 0.67404 0.0
Cd46 Cd 0.70456 0.30237 0.64325 0.0
C47 C 0.79386 0.39334 0.63043 0.0
O48 O 0.65632 0.31272 0.59942 0.0
O49 O 0.72757 0.27407 0.59384 0.0
O50 O 0.66544 0.22551 0.6643 0.0
C51 C 0.68717 0.29093 0.58243 0.0
O52 O 0.76354 0.41406 0.61243 0.0
C53 C 0.7069 0.20638 0.67326 0.0
O54 O 0.78084 0.35437 0.64532 0.0
O55 O 0.74698 0.23258 0.66906 0.0
C56 C 0.55642 0.26819 0.2914 0.0
O57 O 0.54273 0.28995 0.31475 0.0
Cd58 Cd 0.58621 0.28543 0.36061 0.0
O59 O 0.59902 0.24513 0.28972 0.0
Cd60 Cd 0.6747 0.22613 0.32004 0.0
C61 C 0.59197 0.15389 0.35944 0.0
O62 O 0.67365 0.29921 0.35214 0.0
O63 O 0.72154 0.23709 0.36531 0.0
O64 O 0.73323 0.24174 0.27975 0.0
C65 C 0.70273 0.28046 0.37122 0.0
O66 O 0.57612 0.19434 0.37199 0.0
C67 C 0.75776 0.20027 0.28338 0.0
O68 O 0.62434 0.15563 0.33893 0.0
O69 O 0.74285 0.17068 0.30351 0.0
C70 C 0.21051 0.03465 0.80663 0.0
O71 O 0.19269 0.03436 0.8322 0.0
Cd72 Cd 0.21438 0.08974 0.87179 0.0
O73 O 0.2402 0.07042 0.79814 0.0
Cd74 Cd 0.27518 0.15154 0.81952 0.0
C75 C 0.34321 0.07662 0.86533 0.0
O76 O 0.20954 0.17518 0.85479 0.0
O77 O 0.28103 0.21499 0.85749 0.0
O78 O 0.25951 0.2041 0.77645 0.0
C79 C 0.23675 0.20849 0.86746 0.0
O80 O 0.30314 0.06845 0.88007 0.0
C81 C 0.30444 0.22214 0.77546 0.0
O82 O 0.34283 0.10285 0.84211 0.0
O83 O 0.33612 0.2045 0.79355 0.0
C84 C 0.42151 0.70145 0.29885 0.0
O85 O 0.43352 0.68506 0.3238 0.0
Cd86 Cd 0.3874 0.70423 0.36829 0.0
O87 O 0.38119 0.72759 0.29546 0.0
Cd88 Cd 0.31293 0.76388 0.32563 0.0
C89 C 0.4029 0.83214 0.3617 0.0
O90 O 0.29659 0.70168 0.36484 0.0
O91 O 0.27051 0.77991 0.37015 0.0
O92 O 0.24028 0.74709 0.29387 0.0
C93 C 0.27219 0.73451 0.37976 0.0
O94 O 0.41086 0.79284 0.37735 0.0
C95 C 0.23046 0.79417 0.28953 0.0
O96 O 0.37293 0.83056 0.34009 0.0
O97 O 0.26058 0.8267 0.30071 0.0
C98 C 0.75944 0.90081 0.79208 0.0
O99 O 0.78728 0.91564 0.81294 0.0
Cd100 Cd 0.78711 0.88003 0.86128 0.0
O101 O 0.73251 0.86026 0.79437 0.0
Cd102 Cd 0.71229 0.79043 0.82925 0.0
C103 C 0.65677 0.88648 0.86832 0.0
O104 O 0.78685 0.78947 0.85951 0.0
O105 O 0.72145 0.74922 0.87606 0.0
O106 O 0.72339 0.71644 0.79752 0.0
C107 C 0.76634 0.76516 0.88032 0.0
O108 O 0.70091 0.90205 0.87555 0.0
C109 C 0.67665 0.70396 0.79741 0.0
O110 O 0.65076 0.84856 0.85118 0.0
O111 O 0.64639 0.73242 0.81156 0.0
H112 H 0.1623 0.18265 0.03348 0.0
H113 H 0.24681 0.32387 0.04691 0.0
H114 H 0.25812 0.3329 -0.00567 0.0
H115 H 0.23927 0.13603 0.97549 0.0
H116 H 0.18699 0.10836 0.95575 0.0
H117 H 0.18343 0.11419 -0.00551 0.0
H118 H 0.09948 0.16499 -0.01059 0.0
H119 H 0.10323 0.15992 0.95059 0.0
H120 H 0.09818 0.22202 0.96741 0.0
H121 H 0.26388 0.32547 0.94118 0.0
H122 H 0.26915 0.29824 0.89018 0.0
H123 H 0.17981 0.16282 0.91011 0.0
C124 C 0.18318 0.21543 0.02533 0.0
C125 C 0.20356 0.25262 0.04432 0.0
C126 C 0.23078 0.29491 0.03282 0.0
C127 C 0.23717 0.30059 0.00295 0.0
C128 C 0.21606 0.26374 -0.01518 0.0
C129 C 0.18997 0.22176 -0.00453 0.0
C130 C 0.17328 0.18657 0.97114 0.0
C131 C 0.19718 0.13314 0.97441 0.0
C132 C 0.11508 0.1832 0.96955 0.0
C133 C 0.1949 0.21498 0.94528 0.0
C134 C 0.21896 0.25967 0.95374 0.0
C135 C 0.24468 0.29092 0.93418 0.0
C136 C 0.24737 0.27525 0.9053 0.0
C137 C 0.22433 0.22891 0.89626 0.0
C138 C 0.19659 0.1991 0.91634 0.0
H139 H 0.29192 0.64757 0.54425 0.0
H140 H 0.16209 0.74557 0.56082 0.0
H141 H 0.15477 0.76297 0.50856 0.0
H142 H 0.34675 0.72401 0.48796 0.0
H143 H 0.36759 0.66988 0.46687 0.0
H144 H 0.36178 0.66428 0.50555 0.0
H145 H 0.30179 0.58625 0.49893 0.0
H146 H 0.3069 0.59208 0.46018 0.0
H147 H 0.24534 0.59288 0.47726 0.0
H148 H 0.16311 0.77243 0.4554 0.0
H149 H 0.18936 0.77708 0.40425 0.0
H150 H 0.31215 0.67092 0.42124 0.0
C151 C 0.26206 0.67283 0.53689 0.0
C152 C 0.22754 0.69527 0.55659 0.0
C153 C 0.18891 0.72797 0.54611 0.0
C154 C 0.1843 0.73788 0.51647 0.0
C155 C 0.21842 0.71456 0.4976 0.0
C156 C 0.25671 0.68292 0.50732 0.0
C157 C 0.28916 0.66388 0.48244 0.0
C158 C 0.34459 0.68159 0.48592 0.0
C159 C 0.28556 0.60529 0.47954 0.0
C160 C 0.26358 0.69049 0.45726 0.0
C161 C 0.22265 0.71924 0.46658 0.0
C162 C 0.19469 0.74967 0.44777 0.0
C163 C 0.20981 0.75198 0.41879 0.0
C164 C 0.25224 0.72381 0.40888 0.0
C165 C 0.27877 0.69173 0.42819 0.0
H166 H 0.74804 0.71783 0.04962 0.0
H167 H 0.84465 0.85125 0.06107 0.0
H168 H 0.85427 0.85851 0.00803 0.0
H169 H 0.81288 0.66343 -0.01114 0.0
H170 H 0.7556 0.64315 0.97085 0.0
H171 H 0.7571 0.64767 0.00972 0.0
H172 H 0.67985 0.70904 0.00899 0.0
H173 H 0.67755 0.7039 0.97019 0.0
H174 H 0.68239 0.76606 -0.01301 0.0
H175 H 0.85545 0.84918 0.95351 0.0
H176 H 0.83721 0.83241 0.9019 0.0
H177 H 0.73677 0.70771 0.92656 0.0
C178 C 0.77103 0.74871 0.04096 0.0
C179 C 0.79584 0.78377 0.05942 0.0
C180 C 0.82523 0.82397 0.0473 0.0
C181 C 0.83126 0.82816 0.01722 0.0
C182 C 0.80719 0.79221 -0.00038 0.0
C183 C 0.77687 0.75387 0.01104 0.0
C184 C 0.75304 0.72168 -0.01255 0.0
C185 C 0.77073 0.66567 -0.01065 0.0
C186 C 0.69476 0.72543 -0.01153 0.0
C187 C 0.77457 0.74795 0.96095 0.0
C188 C 0.8064 0.788 0.96837 0.0
C189 C 0.83043 0.81803 0.94744 0.0
C190 C 0.82011 0.80802 0.91818 0.0
C191 C 0.78542 0.76893 0.91027 0.0
C192 C 0.76349 0.73784 0.93198 0.0
H193 H 0.75744 0.24353 0.41685 0.0
H194 H 0.64153 0.35461 0.39456 0.0
H195 H 0.62663 0.37118 0.44648 0.0
H196 H 0.69463 0.18885 0.47506 0.0
H197 H 0.75001 0.17994 0.49733 0.0
H198 H 0.75618 0.18095 0.45857 0.0
H199 H 0.82211 0.2546 0.46187 0.0
H200 H 0.81696 0.25318 0.50074 0.0
H201 H 0.80631 0.31218 0.48142 0.0
H202 H 0.61712 0.36762 0.50053 0.0
H203 H 0.62069 0.35212 0.55314 0.0
H204 H 0.74422 0.2447 0.54019 0.0
C205 C 0.72979 0.27229 0.42285 0.0
C206 C 0.70059 0.29775 0.40166 0.0
C207 C 0.66453 0.33483 0.4104 0.0
C208 C 0.65563 0.34432 0.43985 0.0
C209 C 0.68359 0.31692 0.46019 0.0
C210 C 0.72065 0.2824 0.45208 0.0
C211 C 0.74402 0.25649 0.47817 0.0
C212 C 0.73568 0.19811 0.47721 0.0
C213 C 0.80071 0.26994 0.4807 0.0
C214 C 0.71346 0.28092 0.5022 0.0
C215 C 0.67876 0.3156 0.49137 0.0
C216 C 0.64466 0.34116 0.50929 0.0
C217 C 0.64674 0.33177 0.53912 0.0
C218 C 0.68288 0.29734 0.55076 0.0
C219 C 0.71643 0.27148 0.53195 0.0
H220 H 0.28882 0.30839 0.21356 0.0
H221 H 0.32479 0.17485 0.16155 0.0
H222 H 0.40964 0.17078 0.18402 0.0
H223 H 0.41354 0.36623 0.21339 0.0
H224 H 0.4103 0.38664 0.25059 0.0
H225 H 0.35299 0.3808 0.22961 0.0
H226 H 0.31497 0.31896 0.26786 0.0
H227 H 0.37186 0.32519 0.28912 0.0
H228 H 0.35003 0.26261 0.27817 0.0
H229 H 0.4911 0.1822 0.21121 0.0
H230 H 0.55914 0.20034 0.24634 0.0
H231 H 0.4688 0.32339 0.28291 0.0
C232 C 0.3146 0.27832 0.20694 0.0
C233 C 0.30035 0.24204 0.18573 0.0
C234 C 0.33486 0.20291 0.17784 0.0
C235 C 0.38329 0.20053 0.1903 0.0
C236 C 0.39642 0.23719 0.21089 0.0
C237 C 0.36282 0.27479 0.21957 0.0
C238 C 0.3854 0.30755 0.24341 0.0
C239 C 0.39088 0.36363 0.23365 0.0
C240 C 0.35369 0.30329 0.27129 0.0
C241 C 0.43683 0.28234 0.24683 0.0
C242 C 0.44272 0.24245 0.22748 0.0
C243 C 0.48691 0.21329 0.22652 0.0
C244 C 0.52552 0.22413 0.24647 0.0
C245 C 0.5194 0.26329 0.26743 0.0
C246 C 0.47473 0.29329 0.26715 0.0
H247 H 0.27854 0.80607 0.69781 0.0
H248 H 0.13352 0.73855 0.7217 0.0
H249 H 0.11505 0.8131 0.75253 0.0
H250 H 0.30649 0.86182 0.76786 0.0
H251 H 0.3347 0.91909 0.75301 0.0
H252 H 0.33708 0.85996 0.73296 0.0
H253 H 0.29454 0.90488 0.68932 0.0
H254 H 0.29148 0.96399 0.70939 0.0
H255 H 0.23447 0.93667 0.69427 0.0
H256 H 0.11206 0.89335 0.7812 0.0
H257 H 0.12621 0.97432 0.80753 0.0
H258 H 0.27154 -0.00705 0.76438 0.0
C259 C 0.24314 0.80685 0.70974 0.0
C260 C 0.20753 0.76634 0.70738 0.0
C261 C 0.16141 0.76904 0.72313 0.0
C262 C 0.15046 0.81131 0.74067 0.0
C263 C 0.18584 0.8509 0.74218 0.0
C264 C 0.23134 0.84915 0.72728 0.0
C265 C 0.26259 0.89714 0.73289 0.0
C266 C 0.31321 0.88369 0.74756 0.0
C267 C 0.27127 0.92746 0.70479 0.0
C268 C 0.22759 0.92578 0.75337 0.0
C269 C 0.18355 0.89827 0.75836 0.0
C270 C 0.14621 0.91548 0.77734 0.0
C271 C 0.15454 0.96154 0.79216 0.0
C272 C 0.19965 0.99017 0.78777 0.0
C273 C 0.23622 0.97242 0.7677 0.0
H274 H 0.51806 0.65992 0.29908 0.0
H275 H 0.40969 0.73829 0.24397 0.0
H276 H 0.476 0.75037 0.20713 0.0
H277 H 0.62058 0.73802 0.28536 0.0
H278 H 0.66833 0.6887 0.28437 0.0
H279 H 0.61126 0.67917 0.30514 0.0
H280 H 0.59213 0.59543 0.27713 0.0
H281 H 0.64971 0.60415 0.25655 0.0
H282 H 0.58986 0.59656 0.23817 0.0
H283 H 0.55577 0.76805 0.18054 0.0
H284 H 0.64293 0.77849 0.16175 0.0
H285 H 0.70038 0.68323 0.23115 0.0
C286 C 0.50782 0.67812 0.27888 0.0
C287 C 0.45845 0.69822 0.27457 0.0
C288 C 0.447 0.72245 0.24792 0.0
C289 C 0.48452 0.72963 0.2268 0.0
C290 C 0.53322 0.71155 0.2323 0.0
C291 C 0.54482 0.68512 0.25731 0.0
C292 C 0.60098 0.67188 0.25825 0.0
C293 C 0.62678 0.69589 0.28486 0.0
C294 C 0.60861 0.61353 0.25747 0.0
C295 C 0.61931 0.6968 0.23043 0.0
C296 C 0.57943 0.71961 0.21593 0.0
C297 C 0.58711 0.74924 0.19125 0.0
C298 C 0.63673 0.75532 0.18089 0.0
C299 C 0.67803 0.73125 0.19486 0.0
C300 C 0.6692 0.7012 0.21981 0.0
H301 H 0.77927 0.16894 0.71023 0.0
H302 H 0.63865 0.12825 0.66714 0.0
H303 H 0.64279 0.04154 0.68856 0.0
H304 H 0.84104 0.04419 0.70554 0.0
H305 H 0.86811 0.04855 0.74124 0.0
H306 H 0.85669 0.10596 0.7206 0.0
H307 H 0.8021 0.1426 0.76243 0.0
H308 H 0.8139 0.08565 0.78327 0.0
H309 H 0.74958 0.10543 0.77624 0.0
H310 H 0.66156 0.95982 0.71512 0.0
H311 H 0.68632 0.89341 0.75022 0.0
H312 H 0.81238 0.98874 0.7783 0.0
C313 C 0.74961 0.14158 0.70513 0.0
C314 C 0.70881 0.15509 0.68686 0.0
C315 C 0.6702 0.11865 0.6811 0.0
C316 C 0.67247 0.0692 0.69297 0.0
C317 C 0.71332 0.05697 0.71079 0.0
C318 C 0.75079 0.09235 0.71723 0.0
C319 C 0.78819 0.0709 0.73896 0.0
C320 C 0.84168 0.06718 0.72579 0.0
C321 C 0.78842 0.10305 0.76687 0.0
C322 C 0.76553 0.01817 0.74402 0.0
C323 C 0.723 0.01054 0.72709 0.0
C324 C 0.69487 0.96531 0.72845 0.0
C325 C 0.70946 0.92763 0.7484 0.0
C326 C 0.75135 0.93568 0.76712 0.0
C327 C 0.78039 0.98114 0.76424 0.0
H328 H 0.77929 0.2316 0.22822 0.0
H329 H 0.83859 0.14176 0.29941 0.0
H330 H 0.91764 0.12649 0.27179 0.0
H331 H 0.83346 0.15034 0.17074 0.0
H332 H 0.84583 0.20428 0.14738 0.0
H333 H 0.7933 0.2061 0.17237 0.0
H334 H 0.82843 0.29046 0.19434 0.0
H335 H 0.88096 0.28887 0.16946 0.0
H336 H 0.89261 0.29223 0.20782 0.0
H337 H -0.00576 0.13046 0.23857 0.0
H338 H 0.05863 0.14621 0.20031 0.0
H339 H 0.94553 0.22565 0.14929 0.0
C340 C 0.80875 0.20829 0.23783 0.0
C341 C 0.8031 0.18803 0.26593 0.0
C342 C 0.84222 0.15745 0.27781 0.0
C343 C 0.88723 0.14864 0.26232 0.0
C344 C 0.89191 0.16967 0.23474 0.0
C345 C 0.85331 0.19804 0.22239 0.0
C346 C 0.86783 0.21658 0.1925 0.0
C347 C 0.83304 0.1929 0.16938 0.0
C348 C 0.86745 0.27552 0.19096 0.0
C349 C 0.9212 0.19564 0.19032 0.0
C350 C 0.93464 0.1689 0.21493 0.0
C351 C 0.98376 0.1502 0.21889 0.0
C352 C 0.02006 0.15934 0.19715 0.0
C353 C 0.00661 0.18602 0.17167 0.0
C354 C 0.95639 0.20368 0.16816 0.0
H355 H 0.25161 0.42772 0.65275 0.0
H356 H 0.3575 0.52853 0.69655 0.0
H357 H 0.38162 0.45711 0.72932 0.0
H358 H 0.20504 0.37141 0.71601 0.0
H359 H 0.19515 0.30898 0.70027 0.0
H360 H 0.19264 0.36521 0.67783 0.0
H361 H 0.26194 0.327 0.64437 0.0
H362 H 0.26478 0.27057 0.66679 0.0
H363 H 0.32164 0.30706 0.65964 0.0
H364 H 0.39155 0.37465 0.75798 0.0
H365 H 0.37823 0.29367 0.78468 0.0
H366 H 0.25893 0.25093 0.72472 0.0
C367 C 0.28085 0.43437 0.66879 0.0
C368 C 0.30376 0.48304 0.6718 0.0
C369 C 0.34019 0.49115 0.69375 0.0
C370 C 0.35417 0.45081 0.71229 0.0
C371 C 0.3305 0.40319 0.70882 0.0
C372 C 0.29401 0.39519 0.68785 0.0
C373 C 0.2696 0.34283 0.69069 0.0
C374 C 0.21223 0.34741 0.69656 0.0
C375 C 0.28014 0.30993 0.66377 0.0
C376 C 0.29755 0.32257 0.7168 0.0
C377 C 0.33346 0.35734 0.72649 0.0
C378 C 0.36361 0.34719 0.75054 0.0
C379 C 0.35592 0.30098 0.76547 0.0
C380 C 0.31754 0.26611 0.75672 0.0
C381 C 0.2886 0.27684 0.73182 0.0
H382 H 0.14869 0.73526 0.27356 0.0
H383 H 0.208 0.89052 0.27022 0.0
H384 H 0.12991 0.919 0.24555 0.0
H385 H 0.09007 0.73533 0.20454 0.0
H386 H 0.03591 0.69801 0.21591 0.0
H387 H 0.09566 0.69089 0.23422 0.0
H388 H 0.05148 0.7116 0.28299 0.0
H389 H -0.00831 0.71967 0.26465 0.0
H390 H 0.01669 0.77062 0.28683 0.0
H391 H 0.04868 0.92913 0.21789 0.0
H392 H 0.97142 0.91928 0.18803 0.0
H393 H 0.96224 0.75902 0.2122 0.0
C394 C 0.14527 0.77525 0.26762 0.0
C395 C 0.18454 0.81066 0.27369 0.0
C396 C 0.17844 0.86271 0.26574 0.0
C397 C 0.13411 0.87931 0.25186 0.0
C398 C 0.09591 0.84354 0.24645 0.0
C399 C 0.101 0.7926 0.25409 0.0
C400 C 0.05499 0.76162 0.24498 0.0
C401 C 0.07007 0.71897 0.22364 0.0
C402 C 0.02707 0.73959 0.27145 0.0
C403 C 0.02381 0.80284 0.23035 0.0
C404 C 0.04797 0.8499 0.23157 0.0
C405 C 0.02886 0.89276 0.21729 0.0
C406 C 0.98489 0.88693 0.20051 0.0
C407 C 0.96028 0.83878 0.19845 0.0
C408 C 0.9792 0.79671 0.2143 0.0
H409 H 0.7066 0.44202 0.71144 0.0
H410 H 0.55148 0.46147 0.68282 0.0
H411 H 0.54075 0.53325 0.71736 0.0
H412 H 0.69043 0.48509 0.78874 0.0
H413 H 0.75039 0.51853 0.78795 0.0
H414 H 0.7416 0.46144 0.76656 0.0
H415 H 0.76849 0.51186 0.72075 0.0
H416 H 0.77638 0.56927 0.74176 0.0
H417 H 0.73444 0.56915 0.71099 0.0
H418 H 0.55042 0.60899 0.7507 0.0
H419 H 0.58023 0.68433 0.77845 0.0
H420 H 0.73187 0.62014 0.7811 0.0
C421 C 0.66966 0.45979 0.7136 0.0
C422 C 0.6292 0.44531 0.69538 0.0
C423 C 0.58229 0.47128 0.69731 0.0
C424 C 0.57601 0.51209 0.71677 0.0
C425 C 0.61738 0.52693 0.73367 0.0
C426 C 0.66336 0.50152 0.73224 0.0
C427 C 0.70404 0.52954 0.74919 0.0
C428 C 0.7227 0.49669 0.77463 0.0
C429 C 0.74842 0.54592 0.72949 0.0
C430 C 0.67423 0.57539 0.75972 0.0
C431 C 0.62404 0.5726 0.75116 0.0
C432 C 0.58953 0.61133 0.75772 0.0
C433 C 0.60681 0.65401 0.77341 0.0
C434 C 0.65837 0.65813 0.78174 0.0
C435 C 0.69229 0.61812 0.77488 0.0
H436 H 0.93263 0.60286 0.15768 0.0
H437 H 0.97909 0.66897 0.0755 0.0
H438 H 0.03378 0.59451 0.06632 0.0
H439 H 0.05664 0.54818 0.17549 0.0
H440 H 0.02993 0.49133 0.19171 0.0
H441 H -0.00482 0.55073 0.19263 0.0
H442 H 0.91829 0.50638 0.16812 0.0
H443 H 0.95264 0.44686 0.16732 0.0
H444 H 0.92733 0.47316 0.13432 0.0
H445 H 0.0776 0.51136 0.06384 0.0
H446 H 0.11019 0.42315 0.0689 0.0
H447 H 0.04094 0.41167 0.15377 0.0
C448 C 0.95439 0.6016 0.1378 0.0
C449 C 0.95157 0.64168 0.11729 0.0
C450 C 0.98082 0.63885 0.0916 0.0
C451 C 0.01208 0.59675 0.08617 0.0
C452 C 0.01423 0.55808 0.10681 0.0
C453 C -0.01351 0.56004 0.13218 0.0
C454 C -0.00468 0.5126 0.15042 0.0
C455 C 0.02079 0.52656 0.17927 0.0
C456 C 0.94543 0.48301 0.15532 0.0
C457 C 0.03128 0.48322 0.13092 0.0
C458 C 0.04165 0.5104 0.1059 0.0
C459 C 0.07065 0.49001 0.08352 0.0
C460 C 0.08895 0.44008 0.08656 0.0
C461 C 0.07875 0.41159 0.1119 0.0
C462 C 0.05033 0.43358 0.13458 0.0
H463 H 0.85507 0.44084 0.59073 0.0
H464 H 0.84524 0.39838 0.6813 0.0
H465 H 0.92776 0.44065 0.69045 0.0
H466 H -0.01065 0.41693 0.58414 0.0
H467 H 0.00016 0.46931 0.55944 0.0
H468 H 0.93931 0.43771 0.56034 0.0
H469 H 0.89544 0.52498 0.56967 0.0
H470 H 0.95621 0.55681 0.56898 0.0
H471 H 0.9152 0.56362 0.59998 0.0
H472 H 0.00912 0.49021 0.69007 0.0
H473 H 0.08973 0.53484 0.67925 0.0
H474 H 0.05004 0.53904 0.58819 0.0
C475 C 0.87037 0.44062 0.61246 0.0
C476 C 0.84396 0.41672 0.63538 0.0
C477 C 0.86521 0.41639 0.66347 0.0
C478 C 0.91178 0.44052 0.6689 0.0
C479 C 0.93685 0.46397 0.64586 0.0
C480 C 0.91738 0.46348 0.61812 0.0
C481 C 0.95329 0.48915 0.59697 0.0
C482 C 0.97161 0.45099 0.57386 0.0
C483 C 0.92854 0.53645 0.58309 0.0
C484 C -0.00415 0.50433 0.61721 0.0
C485 C 0.98519 0.49016 0.64538 0.0
C486 C 0.01812 0.5012 0.66808 0.0
C487 C 0.06361 0.52675 0.66174 0.0
C488 C 0.07603 0.54009 0.63289 0.0
C489 C 0.04158 0.52888 0.6104 0.0
H490 H 0.56217 0.08073 0.32169 0.0
H491 H 0.56574 0.11812 0.41302 0.0
H492 H 0.51981 0.03729 0.42412 0.0
H493 H 0.43609 0.03427 0.32231 0.0
H494 H 0.44715 0.98503 0.29571 0.0
H495 H 0.48507 0.04252 0.29541 0.0
H496 H 0.56717 0.98824 0.2987 0.0
H497 H 0.52951 0.93051 0.29876 0.0
H498 H 0.57399 0.94239 0.3276 0.0
H499 H 0.47405 0.95184 0.42473 0.0
H500 H 0.42545 0.8723 0.41465 0.0
H501 H 0.4445 0.89737 0.32256 0.0
C502 C 0.55419 0.07126 0.34407 0.0
C503 C 0.56815 0.10467 0.36663 0.0
C504 C 0.55564 0.09234 0.39557 0.0
C505 C 0.52972 0.04668 0.40201 0.0
C506 C 0.51585 0.01473 0.37916 0.0
C507 C 0.52718 0.0268 0.35075 0.0
C508 C 0.50451 0.98843 0.32994 0.0
C509 C 0.46591 0.01411 0.30966 0.0
C510 C 0.54629 0.96075 0.31275 0.0
C511 C 0.47865 0.95273 0.35105 0.0
C512 C 0.48631 0.96796 0.37937 0.0
C513 C 0.46744 0.93978 0.40265 0.0
C514 C 0.44 0.89484 0.39677 0.0
C515 C 0.43088 0.87955 0.36788 0.0
C516 C 0.45026 0.90895 0.34482 0.0
H517 H 0.37237 0.97953 0.85465 0.0
H518 H 0.42031 0.12133 0.89495 0.0
H519 H 0.50356 0.08238 0.90678 0.0
H520 H 0.44235 0.89003 0.90339 0.0
H521 H 0.45812 0.84778 0.87389 0.0
H522 H 0.39987 0.88387 0.87304 0.0
H523 H 0.42556 0.92241 0.82342 0.0
H524 H 0.48366 0.88652 0.8241 0.0
H525 H 0.48562 0.95519 0.81993 0.0
H526 H 0.58327 0.03134 0.90957 0.0
H527 H 0.65614 0.97473 0.90038 0.0
H528 H 0.55659 0.86666 0.85673 0.0
C529 C 0.40015 0.00164 0.86663 0.0
C530 C 0.39052 0.05278 0.87441 0.0
C531 C 0.42752 0.08173 0.88927 0.0
C532 C 0.47452 0.05987 0.89614 0.0
C533 C 0.4834 0.00926 0.88787 0.0
C534 C 0.44727 0.98053 0.87338 0.0
C535 C 0.46816 0.92921 0.86402 0.0
C536 C 0.44047 0.88512 0.87952 0.0
C537 C 0.46561 0.92302 0.83091 0.0
C538 C 0.52228 0.93434 0.87447 0.0
C539 C 0.52997 0.98025 0.88876 0.0
C540 C 0.57762 -0.00502 0.89877 0.0
C541 C 0.6188 0.96252 0.8934 0.0
C542 C 0.61211 0.91623 0.87777 0.0
C543 C 0.56292 0.90155 0.8689 0.0
loop_
_geom_bond_atom_site_label_1
_geom_bond_atom_site_label_2
_geom_bond_distance
_geom_bond_site_symmetry_2
_ccdc_geom_bond_type
C0 O1 1.306 . S
C0 O3 1.160 . S
O1 C0 1.306 . S
O1 Cd2 2.228 . S
Cd2 O1 2.228 . S
Cd2 O6 2.273 . S
Cd2 O10 2.277 . S
O3 C0 1.160 . S
O3 Cd4 2.203 . S
Cd4 O3 2.203 . S
Cd4 O6 2.411 . S
Cd4 O7 2.333 . S
Cd4 O8 2.352 . S
Cd4 O12 2.277 . S
Cd4 O13 2.356 . S
C5 O10 1.209 . S
C5 O12 1.226 . S
O6 Cd2 2.273 . S
O6 Cd4 2.411 . S
O6 C9 1.320 . S
O7 Cd4 2.333 . S
O7 C9 1.214 . S
O8 Cd4 2.352 . S
O8 C11 1.258 . S
C9 O6 1.320 . S
C9 O7 1.214 . S
O10 Cd2 2.277 . S
O10 C5 1.209 . S
C11 O8 1.258 . S
C11 O13 1.282 . S
O12 Cd4 2.277 . S
O12 C5 1.226 . S
O13 Cd4 2.356 . S
O13 C11 1.282 . S
C14 O15 1.306 . S
C14 O17 1.160 . S
O15 C14 1.306 . S
O15 Cd16 2.228 . S
Cd16 O15 2.228 . S
Cd16 O20 2.273 . S
Cd16 O24 2.277 . S
O17 C14 1.160 . S
O17 Cd18 2.203 . S
Cd18 O17 2.203 . S
Cd18 O20 2.411 . S
Cd18 O21 2.333 . S
Cd18 O22 2.352 . S
Cd18 O26 2.277 . S
Cd18 O27 2.356 . S
C19 O24 1.209 . S
C19 O26 1.226 . S
O20 Cd16 2.273 . S
O20 Cd18 2.411 . S
O20 C23 1.320 . S
O21 Cd18 2.333 . S
O21 C23 1.214 . S
O22 Cd18 2.352 . S
O22 C25 1.258 . S
C23 O20 1.320 . S
C23 O21 1.214 . S
O24 Cd16 2.277 . S
O24 C19 1.209 . S
C25 O22 1.258 . S
C25 O27 1.282 . S
O26 Cd18 2.277 . S
O26 C19 1.226 . S
O27 Cd18 2.356 . S
O27 C25 1.282 . S
C28 O29 1.306 . S
C28 O31 1.160 . S
O29 C28 1.306 . S
O29 Cd30 2.228 . S
Cd30 O29 2.228 . S
Cd30 O34 2.273 . S
Cd30 O38 2.277 . S
O31 C28 1.160 . S
O31 Cd32 2.203 . S
Cd32 O31 2.203 . S
Cd32 O34 2.411 . S
Cd32 O35 2.333 . S
Cd32 O36 2.352 . S
Cd32 O40 2.277 . S
Cd32 O41 2.356 . S
C33 O38 1.209 . S
C33 O40 1.226 . S
O34 Cd30 2.273 . S
O34 Cd32 2.411 . S
O34 C37 1.320 . S
O35 Cd32 2.333 . S
O35 C37 1.214 . S
O36 Cd32 2.352 . S
O36 C39 1.258 . S
C37 O34 1.320 . S
C37 O35 1.214 . S
O38 Cd30 2.277 . S
O38 C33 1.209 . S
C39 O36 1.258 . S
C39 O41 1.282 . S
O40 Cd32 2.277 . S
O40 C33 1.226 . S
O41 Cd32 2.356 . S
O41 C39 1.282 . S
C42 O43 1.306 . S
C42 O45 1.160 . S
O43 C42 1.306 . S
O43 Cd44 2.228 . S
Cd44 O43 2.228 . S
Cd44 O48 2.273 . S
Cd44 O52 2.277 . S
O45 C42 1.160 . S
O45 Cd46 2.203 . S
Cd46 O45 2.203 . S
Cd46 O48 2.411 . S
Cd46 O49 2.333 . S
Cd46 O50 2.352 . S
Cd46 O54 2.277 . S
Cd46 O55 2.356 . S
C47 O52 1.209 . S
C47 O54 1.226 . S
O48 Cd44 2.273 . S
O48 Cd46 2.411 . S
O48 C51 1.320 . S
O49 Cd46 2.333 . S
O49 C51 1.214 . S
O50 Cd46 2.352 . S
O50 C53 1.258 . S
C51 O48 1.320 . S
C51 O49 1.214 . S
O52 Cd44 2.277 . S
O52 C47 1.209 . S
C53 O50 1.258 . S
C53 O55 1.282 . S
O54 Cd46 2.277 . S
O54 C47 1.226 . S
O55 Cd46 2.356 . S
O55 C53 1.282 . S
C56 O57 1.306 . S
C56 O59 1.160 . S
O57 C56 1.306 . S
O57 Cd58 2.228 . S
Cd58 O57 2.228 . S
Cd58 O62 2.273 . S
Cd58 O66 2.277 . S
O59 C56 1.160 . S
O59 Cd60 2.203 . S
Cd60 O59 2.203 . S
Cd60 O62 2.411 . S
Cd60 O63 2.333 . S
Cd60 O64 2.352 . S
Cd60 O68 2.277 . S
Cd60 O69 2.356 . S
C61 O66 1.209 . S
C61 O68 1.226 . S
O62 Cd58 2.273 . S
O62 Cd60 2.411 . S
O62 C65 1.320 . S
O63 Cd60 2.333 . S
O63 C65 1.214 . S
O64 Cd60 2.352 . S
O64 C67 1.258 . S
C65 O62 1.320 . S
C65 O63 1.214 . S
O66 Cd58 2.277 . S
O66 C61 1.209 . S
C67 O64 1.258 . S
C67 O69 1.282 . S
O68 Cd60 2.277 . S
O68 C61 1.226 . S
O69 Cd60 2.356 . S
O69 C67 1.282 . S
C70 O71 1.306 . S
C70 O73 1.160 . S
O71 C70 1.306 . S
O71 Cd72 2.228 . S
Cd72 O71 2.228 . S
Cd72 O76 2.273 . S
Cd72 O80 2.277 . S
O73 C70 1.160 . S
O73 Cd74 2.203 . S
Cd74 O73 2.203 . S
Cd74 O76 2.411 . S
Cd74 O77 2.333 . S
Cd74 O78 2.352 . S
Cd74 O82 2.277 . S
Cd74 O83 2.356 . S
C75 O80 1.209 . S
C75 O82 1.226 . S
O76 Cd72 2.273 . S
O76 Cd74 2.411 . S
O76 C79 1.320 . S
O77 Cd74 2.333 . S
O77 C79 1.214 . S
O78 Cd74 2.352 . S
O78 C81 1.258 . S
C79 O76 1.320 . S
C79 O77 1.214 . S
O80 Cd72 2.277 . S
O80 C75 1.209 . S
C81 O78 1.258 . S
C81 O83 1.282 . S
O82 Cd74 2.277 . S
O82 C75 1.226 . S
O83 Cd74 2.356 . S
O83 C81 1.282 . S
C84 O85 1.306 . S
C84 O87 1.160 . S
O85 C84 1.306 . S
O85 Cd86 2.228 . S
Cd86 O85 2.228 . S
Cd86 O90 2.273 . S
Cd86 O94 2.277 . S
O87 C84 1.160 . S
O87 Cd88 2.203 . S
Cd88 O87 2.203 . S
Cd88 O90 2.411 . S
Cd88 O91 2.333 . S
Cd88 O92 2.352 . S
Cd88 O96 2.277 . S
Cd88 O97 2.356 . S
C89 O94 1.209 . S
C89 O96 1.226 . S
O90 Cd86 2.273 . S
O90 Cd88 2.411 . S
O90 C93 1.320 . S
O91 Cd88 2.333 . S
O91 C93 1.214 . S
O92 Cd88 2.352 . S
O92 C95 1.258 . S
C93 O90 1.320 . S
C93 O91 1.214 . S
O94 Cd86 2.277 . S
O94 C89 1.209 . S
C95 O92 1.258 . S
C95 O97 1.282 . S
O96 Cd88 2.277 . S
O96 C89 1.226 . S
O97 Cd88 2.356 . S
O97 C95 1.282 . S
C98 O99 1.306 . S
C98 O101 1.160 . S
O99 C98 1.306 . S
O99 Cd100 2.228 . S
Cd100 O99 2.228 . S
Cd100 O104 2.273 . S
Cd100 O108 2.277 . S
O101 C98 1.160 . S
O101 Cd102 2.203 . S
Cd102 O101 2.203 . S
Cd102 O104 2.411 . S
Cd102 O105 2.333 . S
Cd102 O106 2.352 . S
Cd102 O110 2.277 . S
Cd102 O111 2.356 . S
C103 O108 1.209 . S
C103 O110 1.226 . S
O104 Cd100 2.273 . S
O104 Cd102 2.411 . S
O104 C107 1.320 . S
O105 Cd102 2.333 . S
O105 C107 1.214 . S
O106 Cd102 2.352 . S
O106 C109 1.258 . S
C107 O104 1.320 . S
C107 O105 1.214 . S
O108 Cd100 2.277 . S
O108 C103 1.209 . S
C109 O106 1.258 . S
C109 O111 1.282 . S
O110 Cd102 2.277 . S
O110 C103 1.226 . S
O111 Cd102 2.356 . S
O111 C109 1.282 . S
H112 C124 0.930 . S
H113 C126 0.930 . S
H114 C127 0.930 . S
H115 C131 0.959 . S
H116 C131 0.959 . S
H117 C131 0.961 . S
H118 C132 0.960 . S
H119 C132 0.961 1_556 S
H120 C132 0.969 . S
H121 C135 0.929 . S
H122 C136 0.931 . S
H123 C138 0.930 . S
C124 H112 0.930 . S
C124 C125 1.399 . S
C124 C129 1.399 . S
C125 C124 1.399 . S
C125 C126 1.376 . S
C126 H113 0.930 . S
C126 C125 1.376 . S
C126 C127 1.388 . S
C127 H114 0.930 . S
C127 C126 1.388 . S
C127 C128 1.390 . S
C128 C127 1.390 . S
C128 C129 1.394 . S
C128 C134 1.465 1_554 S
C129 C124 1.399 . S
C129 C128 1.394 . S
C129 C130 1.516 . S
C130 C129 1.516 . S
C130 C131 1.502 . S
C130 C132 1.561 . S
C130 C133 1.526 1_554 S
C131 H115 0.959 . S
C131 H116 0.959 . S
C131 H117 0.961 . S
C131 C130 1.502 . S
C132 H118 0.960 . S
C132 H119 0.961 1_554 S
C132 H120 0.969 . S
C132 C130 1.561 . S
C133 C130 1.526 1_556 S
C133 C134 1.396 . S
C133 C138 1.390 . S
C134 C128 1.465 1_556 S
C134 C133 1.396 . S
C134 C135 1.399 . S
C135 H121 0.929 . S
C135 C134 1.399 . S
C135 C136 1.385 . S
C136 H122 0.931 . S
C136 C135 1.385 . S
C136 C137 1.389 . S
C137 C136 1.389 . S
C137 C138 1.387 . S
C138 H123 0.930 . S
C138 C133 1.390 . S
C138 C137 1.387 . S
H139 C151 0.930 . S
H140 C153 0.930 . S
H141 C154 0.930 . S
H142 C158 0.959 . S
H143 C158 0.959 . S
H144 C158 0.961 . S
H145 C159 0.960 . S
H146 C159 0.961 . S
H147 C159 0.959 . S
H148 C162 0.929 . S
H149 C163 0.931 . S
H150 C165 0.930 . S
C151 H139 0.930 . S
C151 C152 1.399 . S
C151 C156 1.399 . S
C152 C151 1.399 . S
C152 C153 1.376 . S
C153 H140 0.930 . S
C153 C152 1.376 . S
C153 C154 1.388 . S
C154 H141 0.930 . S
C154 C153 1.388 . S
C154 C155 1.390 . S
C155 C154 1.390 . S
C155 C156 1.394 . S
C155 C161 1.465 . S
C156 C151 1.399 . S
C156 C155 1.394 . S
C156 C157 1.516 . S
C157 C156 1.516 . S
C157 C158 1.502 . S
C157 C159 1.561 . S
C157 C160 1.526 . S
C158 H142 0.959 . S
C158 H143 0.959 . S
C158 H144 0.961 . S
C158 C157 1.502 . S
C159 H145 0.960 . S
C159 H146 0.961 . S
C159 H147 0.959 . S
C159 C157 1.561 . S
C160 C157 1.526 . S
C160 C161 1.396 . S
C160 C165 1.390 . S
C161 C155 1.465 . S
C161 C160 1.396 . S
C161 C162 1.399 . S
C162 H148 0.929 . S
C162 C161 1.399 . S
C162 C163 1.385 . S
C163 H149 0.931 . S
C163 C162 1.385 . S
C163 C164 1.389 . S
C164 C163 1.389 . S
C164 C165 1.387 . S
C165 H150 0.930 . S
C165 C160 1.390 . S
C165 C164 1.387 . S
H166 C178 0.930 . S
H167 C180 0.930 . S
H168 C181 0.930 . S
H169 C185 0.959 . S
H170 C185 0.959 . S
H171 C185 0.961 . S
H172 C186 0.960 . S
H173 C186 0.961 . S
H174 C186 0.959 . S
H175 C189 0.929 . S
H176 C190 0.931 . S
H177 C192 0.930 . S
C178 H166 0.930 . S
C178 C179 1.399 . S
C178 C183 1.399 . S
C179 C178 1.399 . S
C179 C180 1.376 . S
C180 H167 0.930 . S
C180 C179 1.376 . S
C180 C181 1.388 . S
C181 H168 0.930 . S
C181 C180 1.388 . S
C181 C182 1.390 . S
C182 C181 1.390 . S
C182 C183 1.394 . S
C182 C188 1.465 1_554 S
C183 C178 1.399 . S
C183 C182 1.394 . S
C183 C184 1.516 1_554 S
C184 C183 1.516 1_556 S
C184 C185 1.502 . S
C184 C186 1.561 . S
C184 C187 1.526 . S
C185 H169 0.959 . S
C185 H170 0.959 . S
C185 H171 0.961 . S
C185 C184 1.502 . S
C186 H172 0.960 . S
C186 H173 0.961 . S
C186 H174 0.959 . S
C186 C184 1.561 . S
C187 C184 1.526 . S
C187 C188 1.396 . S
C187 C192 1.390 . S
C188 C182 1.465 1_556 S
C188 C187 1.396 . S
C188 C189 1.399 . S
C189 H175 0.929 . S
C189 C188 1.399 . S
C189 C190 1.385 . S
C190 H176 0.931 . S
C190 C189 1.385 . S
C190 C191 1.389 . S
C191 C190 1.389 . S
C191 C192 1.387 . S
C192 H177 0.930 . S
C192 C187 1.390 . S
C192 C191 1.387 . S
H193 C205 0.930 . S
H194 C207 0.930 . S
H195 C208 0.930 . S
H196 C212 0.959 . S
H197 C212 0.959 . S
H198 C212 0.961 . S
H199 C213 0.960 . S
H200 C213 0.961 . S
H201 C213 0.959 . S
H202 C216 0.929 . S
H203 C217 0.931 . S
H204 C219 0.930 . S
C205 H193 0.930 . S
C205 C206 1.399 . S
C205 C210 1.399 . S
C206 C205 1.399 . S
C206 C207 1.376 . S
C207 H194 0.930 . S
C207 C206 1.376 . S
C207 C208 1.388 . S
C208 H195 0.930 . S
C208 C207 1.388 . S
C208 C209 1.390 . S
C209 C208 1.390 . S
C209 C210 1.394 . S
C209 C215 1.465 . S
C210 C205 1.399 . S
C210 C209 1.394 . S
C210 C211 1.516 . S
C211 C210 1.516 . S
C211 C212 1.502 . S
C211 C213 1.561 . S
C211 C214 1.526 . S
C212 H196 0.959 . S
C212 H197 0.959 . S
C212 H198 0.961 . S
C212 C211 1.502 . S
C213 H199 0.960 . S
C213 H200 0.961 . S
C213 H201 0.959 . S
C213 C211 1.561 . S
C214 C211 1.526 . S
C214 C215 1.396 . S
C214 C219 1.390 . S
C215 C209 1.465 . S
C215 C214 1.396 . S
C215 C216 1.399 . S
C216 H202 0.929 . S
C216 C215 1.399 . S
C216 C217 1.385 . S
C217 H203 0.931 . S
C217 C216 1.385 . S
C217 C218 1.389 . S
C218 C217 1.389 . S
C218 C219 1.387 . S
C219 H204 0.930 . S
C219 C214 1.390 . S
C219 C218 1.387 . S
H220 C232 0.930 . S
H221 C234 0.930 . S
H222 C235 0.930 . S
H223 C239 0.959 . S
H224 C239 0.959 . S
H225 C239 0.961 . S
H226 C240 0.960 . S
H227 C240 0.961 . S
H228 C240 0.959 . S
H229 C243 0.929 . S
H230 C244 0.931 . S
H231 C246 0.930 . S
C232 H220 0.930 . S
C232 C233 1.399 . S
C232 C237 1.399 . S
C233 C232 1.399 . S
C233 C234 1.376 . S
C234 H221 0.930 . S
C234 C233 1.376 . S
C234 C235 1.388 . S
C235 H222 0.930 . S
C235 C234 1.388 . S
C235 C236 1.390 . S
C236 C235 1.390 . S
C236 C237 1.394 . S
C236 C242 1.465 . S
C237 C232 1.399 . S
C237 C236 1.394 . S
C237 C238 1.516 . S
C238 C237 1.516 . S
C238 C239 1.502 . S
C238 C240 1.561 . S
C238 C241 1.526 . S
C239 H223 0.959 . S
C239 H224 0.959 . S
C239 H225 0.961 . S
C239 C238 1.502 . S
C240 H226 0.960 . S
C240 H227 0.961 . S
C240 H228 0.959 . S
C240 C238 1.561 . S
C241 C238 1.526 . S
C241 C242 1.396 . S
C241 C246 1.390 . S
C242 C236 1.465 . S
C242 C241 1.396 . S
C242 C243 1.399 . S
C243 H229 0.929 . S
C243 C242 1.399 . S
C243 C244 1.385 . S
C244 H230 0.931 . S
C244 C243 1.385 . S
C244 C245 1.389 . S
C245 C244 1.389 . S
C245 C246 1.387 . S
C246 H231 0.930 . S
C246 C241 1.390 . S
C246 C245 1.387 . S
H247 C259 0.930 . S
H248 C261 0.930 . S
H249 C262 0.930 . S
H250 C266 0.959 . S
H251 C266 0.959 . S
H252 C266 0.961 . S
H253 C267 0.960 . S
H254 C267 0.961 1_545 S
H255 C267 0.959 . S
H256 C270 0.929 . S
H257 C271 0.931 . S
H258 C273 0.930 . S
C259 H247 0.930 . S
C259 C260 1.399 . S
C259 C264 1.399 . S
C260 C259 1.399 . S
C260 C261 1.376 . S
C261 H248 0.930 . S
C261 C260 1.376 . S
C261 C262 1.388 . S
C262 H249 0.930 . S
C262 C261 1.388 . S
C262 C263 1.390 . S
C263 C262 1.390 . S
C263 C264 1.394 . S
C263 C269 1.465 . S
C264 C259 1.399 . S
C264 C263 1.394 . S
C264 C265 1.516 . S
C265 C264 1.516 . S
C265 C266 1.502 . S
C265 C267 1.561 . S
C265 C268 1.526 . S
C266 H250 0.959 . S
C266 H251 0.959 . S
C266 H252 0.961 . S
C266 C265 1.502 . S
C267 H253 0.960 . S
C267 H254 0.961 1_565 S
C267 H255 0.959 . S
C267 C265 1.561 . S
C268 C265 1.526 . S
C268 C269 1.396 . S
C268 C273 1.390 1_565 S
C269 C263 1.465 . S
C269 C268 1.396 . S
C269 C270 1.399 . S
C270 H256 0.929 . S
C270 C269 1.399 . S
C270 C271 1.385 1_565 S
C271 H257 0.931 . S
C271 C270 1.385 1_545 S
C271 C272 1.389 . S
C272 C271 1.389 . S
C272 C273 1.387 . S
C273 H258 0.930 . S
C273 C268 1.390 1_545 S
C273 C272 1.387 . S
H274 C286 0.930 . S
H275 C288 0.930 . S
H276 C289 0.930 . S
H277 C293 0.959 . S
H278 C293 0.959 . S
H279 C293 0.961 . S
H280 C294 0.960 . S
H281 C294 0.961 . S
H282 C294 0.959 . S
H283 C297 0.929 . S
H284 C298 0.931 . S
H285 C300 0.930 . S
C286 H274 0.930 . S
C286 C287 1.399 . S
C286 C291 1.399 . S
C287 C286 1.399 . S
C287 C288 1.376 . S
C288 H275 0.930 . S
C288 C287 1.376 . S
C288 C289 1.388 . S
C289 H276 0.930 . S
C289 C288 1.388 . S
C289 C290 1.390 . S
C290 C289 1.390 . S
C290 C291 1.394 . S
C290 C296 1.465 . S
C291 C286 1.399 . S
C291 C290 1.394 . S
C291 C292 1.516 . S
C292 C291 1.516 . S
C292 C293 1.502 . S
C292 C294 1.561 . S
C292 C295 1.526 . S
C293 H277 0.959 . S
C293 H278 0.959 . S
C293 H279 0.961 . S
C293 C292 1.502 . S
C294 H280 0.960 . S
C294 H281 0.961 . S
C294 H282 0.959 . S
C294 C292 1.561 . S
C295 C292 1.526 . S
C295 C296 1.396 . S
C295 C300 1.390 . S
C296 C290 1.465 . S
C296 C295 1.396 . S
C296 C297 1.399 . S
C297 H283 0.929 . S
C297 C296 1.399 . S
C297 C298 1.385 . S
C298 H284 0.931 . S
C298 C297 1.385 . S
C298 C299 1.389 . S
C299 C298 1.389 . S
C299 C300 1.387 . S
C300 H285 0.930 . S
C300 C295 1.390 . S
C300 C299 1.387 . S
H301 C313 0.930 . S
H302 C315 0.930 . S
H303 C316 0.930 . S
H304 C320 0.959 . S
H305 C320 0.959 . S
H306 C320 0.961 . S
H307 C321 0.960 . S
H308 C321 0.961 . S
H309 C321 0.959 . S
H310 C324 0.929 . S
H311 C325 0.931 . S
H312 C327 0.930 . S
C313 H301 0.930 . S
C313 C314 1.399 . S
C313 C318 1.399 . S
C314 C313 1.399 . S
C314 C315 1.376 . S
C315 H302 0.930 . S
C315 C314 1.376 . S
C315 C316 1.388 . S
C316 H303 0.930 . S
C316 C315 1.388 . S
C316 C317 1.390 . S
C317 C316 1.390 . S
C317 C318 1.394 . S
C317 C323 1.465 . S
C318 C313 1.399 . S
C318 C317 1.394 . S
C318 C319 1.516 . S
C319 C318 1.516 . S
C319 C320 1.502 . S
C319 C321 1.561 . S
C319 C322 1.526 . S
C320 H304 0.959 . S
C320 H305 0.959 . S
C320 H306 0.961 . S
C320 C319 1.502 . S
C321 H307 0.960 . S
C321 H308 0.961 . S
C321 H309 0.959 . S
C321 C319 1.561 . S
C322 C319 1.526 . S
C322 C323 1.396 . S
C322 C327 1.390 . S
C323 C317 1.465 . S
C323 C322 1.396 . S
C323 C324 1.399 1_545 S
C324 H310 0.929 . S
C324 C323 1.399 1_565 S
C324 C325 1.385 . S
C325 H311 0.931 . S
C325 C324 1.385 . S
C325 C326 1.389 . S
C326 C325 1.389 . S
C326 C327 1.387 1_565 S
C327 H312 0.930 . S
C327 C322 1.390 . S
C327 C326 1.387 1_545 S
H328 C340 0.930 . S
H329 C342 0.930 . S
H330 C343 0.930 . S
H331 C347 0.959 . S
H332 C347 0.959 . S
H333 C347 0.961 . S
H334 C348 0.960 . S
H335 C348 0.961 . S
H336 C348 0.959 . S
H337 C351 0.929 . S
H338 C352 0.931 . S
H339 C354 0.930 . S
C340 H328 0.930 . S
C340 C341 1.399 . S
C340 C345 1.399 . S
C341 C340 1.399 . S
C341 C342 1.376 . S
C342 H329 0.930 . S
C342 C341 1.376 . S
C342 C343 1.388 . S
C343 H330 0.930 . S
C343 C342 1.388 . S
C343 C344 1.390 . S
C344 C343 1.390 . S
C344 C345 1.394 . S
C344 C350 1.465 . S
C345 C340 1.399 . S
C345 C344 1.394 . S
C345 C346 1.516 . S
C346 C345 1.516 . S
C346 C347 1.502 . S
C346 C348 1.561 . S
C346 C349 1.526 . S
C347 H331 0.959 . S
C347 H332 0.959 . S
C347 H333 0.961 . S
C347 C346 1.502 . S
C348 H334 0.960 . S
C348 H335 0.961 . S
C348 H336 0.959 . S
C348 C346 1.561 . S
C349 C346 1.526 . S
C349 C350 1.396 . S
C349 C354 1.390 1_655 S
C350 C344 1.465 . S
C350 C349 1.396 . S
C350 C351 1.399 . S
C351 H337 0.929 . S
C351 C350 1.399 . S
C351 C352 1.385 1_655 S
C352 H338 0.931 . S
C352 C351 1.385 1_455 S
C352 C353 1.389 . S
C353 C352 1.389 . S
C353 C354 1.387 . S
C354 H339 0.930 . S
C354 C349 1.390 1_455 S
C354 C353 1.387 . S
H355 C367 0.930 . S
H356 C369 0.930 . S
H357 C370 0.930 . S
H358 C374 0.959 . S
H359 C374 0.959 . S
H360 C374 0.961 . S
H361 C375 0.960 . S
H362 C375 0.961 . S
H363 C375 0.959 . S
H364 C378 0.929 . S
H365 C379 0.931 . S
H366 C381 0.930 . S
C367 H355 0.930 . S
C367 C368 1.399 . S
C367 C372 1.399 . S
C368 C367 1.399 . S
C368 C369 1.376 . S
C369 H356 0.930 . S
C369 C368 1.376 . S
C369 C370 1.388 . S
C370 H357 0.930 . S
C370 C369 1.388 . S
C370 C371 1.390 . S
C371 C370 1.390 . S
C371 C372 1.394 . S
C371 C377 1.465 . S
C372 C367 1.399 . S
C372 C371 1.394 . S
C372 C373 1.516 . S
C373 C372 1.516 . S
C373 C374 1.502 . S
C373 C375 1.561 . S
C373 C376 1.526 . S
C374 H358 0.959 . S
C374 H359 0.959 . S
C374 H360 0.961 . S
C374 C373 1.502 . S
C375 H361 0.960 . S
C375 H362 0.961 . S
C375 H363 0.959 . S
C375 C373 1.561 . S
C376 C373 1.526 . S
C376 C377 1.396 . S
C376 C381 1.390 . S
C377 C371 1.465 . S
C377 C376 1.396 . S
C377 C378 1.399 . S
C378 H364 0.929 . S
C378 C377 1.399 . S
C378 C379 1.385 . S
C379 H365 0.931 . S
C379 C378 1.385 . S
C379 C380 1.389 . S
C380 C379 1.389 . S
C380 C381 1.387 . S
C381 H366 0.930 . S
C381 C376 1.390 . S
C381 C380 1.387 . S
H382 C394 0.930 . S
H383 C396 0.930 . S
H384 C397 0.930 . S
H385 C401 0.959 . S
H386 C401 0.959 . S
H387 C401 0.961 . S
H388 C402 0.960 . S
H389 C402 0.961 . S
H390 C402 0.959 . S
H391 C405 0.929 . S
H392 C406 0.931 . S
H393 C408 0.930 . S
C394 H382 0.930 . S
C394 C395 1.399 . S
C394 C399 1.399 . S
C395 C394 1.399 . S
C395 C396 1.376 . S
C396 H383 0.930 . S
C396 C395 1.376 . S
C396 C397 1.388 . S
C397 H384 0.930 . S
C397 C396 1.388 . S
C397 C398 1.390 . S
C398 C397 1.390 . S
C398 C399 1.394 . S
C398 C404 1.465 . S
C399 C394 1.399 . S
C399 C398 1.394 . S
C399 C400 1.516 . S
C400 C399 1.516 . S
C400 C401 1.502 . S
C400 C402 1.561 . S
C400 C403 1.526 . S
C401 H385 0.959 . S
C401 H386 0.959 . S
C401 H387 0.961 . S
C401 C400 1.502 . S
C402 H388 0.960 . S
C402 H389 0.961 . S
C402 H390 0.959 . S
C402 C400 1.561 . S
C403 C400 1.526 . S
C403 C404 1.396 . S
C403 C408 1.390 1_455 S
C404 C398 1.465 . S
C404 C403 1.396 . S
C404 C405 1.399 . S
C405 H391 0.929 . S
C405 C404 1.399 . S
C405 C406 1.385 1_455 S
C406 H392 0.931 . S
C406 C405 1.385 1_655 S
C406 C407 1.389 . S
C407 C406 1.389 . S
C407 C408 1.387 . S
C408 H393 0.930 . S
C408 C403 1.390 1_655 S
C408 C407 1.387 . S
H409 C421 0.930 . S
H410 C423 0.930 . S
H411 C424 0.930 . S
H412 C428 0.959 . S
H413 C428 0.959 . S
H414 C428 0.961 . S
H415 C429 0.960 . S
H416 C429 0.961 . S
H417 C429 0.959 . S
H418 C432 0.929 . S
H419 C433 0.931 . S
H420 C435 0.930 . S
C421 H409 0.930 . S
C421 C422 1.399 . S
C421 C426 1.399 . S
C422 C421 1.399 . S
C422 C423 1.376 . S
C423 H410 0.930 . S
C423 C422 1.376 . S
C423 C424 1.388 . S
C424 H411 0.930 . S
C424 C423 1.388 . S
C424 C425 1.390 . S
C425 C424 1.390 . S
C425 C426 1.394 . S
C425 C431 1.465 . S
C426 C421 1.399 . S
C426 C425 1.394 . S
C426 C427 1.516 . S
C427 C426 1.516 . S
C427 C428 1.502 . S
C427 C429 1.561 . S
C427 C430 1.526 . S
C428 H412 0.959 . S
C428 H413 0.959 . S
C428 H414 0.961 . S
C428 C427 1.502 . S
C429 H415 0.960 . S
C429 H416 0.961 . S
C429 H417 0.959 . S
C429 C427 1.561 . S
C430 C427 1.526 . S
C430 C431 1.396 . S
C430 C435 1.390 . S
C431 C425 1.465 . S
C431 C430 1.396 . S
C431 C432 1.399 . S
C432 H418 0.929 . S
C432 C431 1.399 . S
C432 C433 1.385 . S
C433 H419 0.931 . S
C433 C432 1.385 . S
C433 C434 1.389 . S
C434 C433 1.389 . S
C434 C435 1.387 . S
C435 H420 0.930 . S
C435 C430 1.390 . S
C435 C434 1.387 . S
H436 C448 0.930 . S
H437 C450 0.930 . S
H438 C451 0.930 . S
H439 C455 0.959 1_455 S
H440 C455 0.959 1_455 S
H441 C455 0.961 . S
H442 C456 0.960 . S
H443 C456 0.961 . S
H444 C456 0.959 . S
H445 C459 0.929 . S
H446 C460 0.931 . S
H447 C462 0.930 . S
C448 H436 0.930 . S
C448 C449 1.399 . S
C448 C453 1.399 . S
C449 C448 1.399 . S
C449 C450 1.376 . S
C450 H437 0.930 . S
C450 C449 1.376 . S
C450 C451 1.388 . S
C451 H438 0.930 . S
C451 C450 1.388 . S
C451 C452 1.390 . S
C452 C451 1.390 . S
C452 C453 1.394 . S
C452 C458 1.465 1_655 S
C453 C448 1.399 . S
C453 C452 1.394 . S
C453 C454 1.516 . S
C454 C453 1.516 . S
C454 C455 1.502 . S
C454 C456 1.561 . S
C454 C457 1.526 1_655 S
C455 H439 0.959 1_655 S
C455 H440 0.959 1_655 S
C455 H441 0.961 . S
C455 C454 1.502 . S
C456 H442 0.960 . S
C456 H443 0.961 . S
C456 H444 0.959 . S
C456 C454 1.561 . S
C457 C454 1.526 1_455 S
C457 C458 1.396 . S
C457 C462 1.390 . S
C458 C452 1.465 1_455 S
C458 C457 1.396 . S
C458 C459 1.399 . S
C459 H445 0.929 . S
C459 C458 1.399 . S
C459 C460 1.385 . S
C460 H446 0.931 . S
C460 C459 1.385 . S
C460 C461 1.389 . S
C461 C460 1.389 . S
C461 C462 1.387 . S
C462 H447 0.930 . S
C462 C457 1.390 . S
C462 C461 1.387 . S
H463 C475 0.930 . S
H464 C477 0.930 . S
H465 C478 0.930 . S
H466 C482 0.959 . S
H467 C482 0.959 . S
H468 C482 0.961 . S
H469 C483 0.960 . S
H470 C483 0.961 . S
H471 C483 0.959 . S
H472 C486 0.929 . S
H473 C487 0.931 . S
H474 C489 0.930 . S
C475 H463 0.930 . S
C475 C476 1.399 . S
C475 C480 1.399 . S
C476 C475 1.399 . S
C476 C477 1.376 . S
C477 H464 0.930 . S
C477 C476 1.376 . S
C477 C478 1.388 . S
C478 H465 0.930 . S
C478 C477 1.388 . S
C478 C479 1.390 . S
C479 C478 1.390 . S
C479 C480 1.394 . S
C479 C485 1.465 1_655 S
C480 C475 1.399 . S
C480 C479 1.394 . S
C480 C481 1.516 1_655 S
C481 C480 1.516 1_455 S
C481 C482 1.502 . S
C481 C483 1.561 1_455 S
C481 C484 1.526 . S
C482 H466 0.959 . S
C482 H467 0.959 . S
C482 H468 0.961 . S
C482 C481 1.502 . S
C483 H469 0.960 . S
C483 H470 0.961 . S
C483 H471 0.959 . S
C483 C481 1.561 1_655 S
C484 C481 1.526 . S
C484 C485 1.396 . S
C484 C489 1.390 . S
C485 C479 1.465 1_455 S
C485 C484 1.396 . S
C485 C486 1.399 . S
C486 H472 0.929 . S
C486 C485 1.399 . S
C486 C487 1.385 . S
C487 H473 0.931 . S
C487 C486 1.385 . S
C487 C488 1.389 . S
C488 C487 1.389 . S
C488 C489 1.387 . S
C489 H474 0.930 . S
C489 C484 1.390 . S
C489 C488 1.387 . S
H490 C502 0.930 . S
H491 C504 0.930 . S
H492 C505 0.930 . S
H493 C509 0.959 . S
H494 C509 0.959 . S
H495 C509 0.961 . S
H496 C510 0.950 1_545 S
H497 C510 0.961 . S
H498 C510 0.959 . S
H499 C513 0.929 . S
H500 C514 0.931 . S
H501 C516 0.930 . S
C502 H490 0.930 . S
C502 C503 1.399 . S
C502 C507 1.399 . S
C503 C502 1.399 . S
C503 C504 1.376 . S
C504 H491 0.930 . S
C504 C503 1.376 . S
C504 C505 1.388 . S
C505 H492 0.930 . S
C505 C504 1.388 . S
C505 C506 1.390 . S
C506 C505 1.390 . S
C506 C507 1.394 . S
C506 C512 1.465 1_545 S
C507 C502 1.399 . S
C507 C506 1.394 . S
C507 C508 1.516 . S
C508 C507 1.516 . S
C508 C509 1.502 . S
C508 C510 1.561 1_545 S
C508 C511 1.526 1_545 S
C509 H493 0.959 . S
C509 H494 0.959 . S
C509 H495 0.961 . S
C509 C508 1.502 . S
C510 H496 0.950 1_565 S
C510 H497 0.961 . S
C510 H498 0.959 . S
C510 C508 1.561 1_565 S
C511 C508 1.526 1_565 S
C511 C512 1.396 . S
C511 C516 1.390 . S
C512 C506 1.465 1_565 S
C512 C511 1.396 . S
C512 C513 1.399 . S
C513 H499 0.929 . S
C513 C512 1.399 . S
C513 C514 1.385 . S
C514 H500 0.931 . S
C514 C513 1.385 . S
C514 C515 1.389 . S
C515 C514 1.389 . S
C515 C516 1.387 . S
C516 H501 0.930 . S
C516 C511 1.390 . S
C516 C515 1.387 . S
H517 C529 0.930 . S
H518 C531 0.930 . S
H519 C532 0.930 . S
H520 C536 0.959 . S
H521 C536 0.959 . S
H522 C536 0.961 . S
H523 C537 0.960 . S
H524 C537 0.961 . S
H525 C537 0.959 . S
H526 C540 0.929 1_545 S
H527 C541 0.931 . S
H528 C543 0.930 . S
C529 H517 0.930 . S
C529 C530 1.399 . S
C529 C534 1.399 . S
C530 C529 1.399 . S
C530 C531 1.376 . S
C531 H518 0.930 . S
C531 C530 1.376 . S
C531 C532 1.388 . S
C532 H519 0.930 . S
C532 C531 1.388 . S
C532 C533 1.390 . S
C533 C532 1.390 . S
C533 C534 1.394 . S
C533 C539 1.465 1_545 S
C534 C529 1.399 . S
C534 C533 1.394 . S
C534 C535 1.516 1_545 S
C535 C534 1.516 1_565 S
C535 C536 1.502 . S
C535 C537 1.561 . S
C535 C538 1.526 . S
C536 H520 0.959 . S
C536 H521 0.959 . S
C536 H522 0.961 . S
C536 C535 1.502 . S
C537 H523 0.960 . S
C537 H524 0.961 . S
C537 H525 0.959 . S
C537 C535 1.561 . S
C538 C535 1.526 . S
C538 C539 1.396 . S
C538 C543 1.390 . S
C539 C533 1.465 1_565 S
C539 C538 1.396 . S
C539 C540 1.399 . S
C540 H526 0.929 1_565 S
C540 C539 1.399 . S
C540 C541 1.385 . S
C541 H527 0.931 . S
C541 C540 1.385 . S
C541 C542 1.389 . S
C542 C541 1.389 . S
C542 C543 1.387 . S
C543 H528 0.930 . S
C543 C538 1.390 . S
C543 C542 1.387 . S
C125 C9 1.338 . S
C137 C79 1.331 . S
C152 C23 1.332 . S
C164 C93 1.327 . S
C179 C37 1.330 . S
C191 C107 1.338 . S
C206 C65 1.334 . S
C218 C51 1.342 . S
C233 C11 1.619 . S
C245 C56 1.555 . S
C260 C25 1.583 . S
C272 C70 1.590 . S
C287 C84 1.572 . S
C299 C39 1.614 . S
C314 C53 1.615 . S
C326 C98 1.571 . S
C341 C67 1.617 . S
C353 C0 1.538 . S
C368 C14 1.598 . S
C380 C81 1.585 . S
C395 C95 1.586 . S
C407 C28 1.599 . S
C422 C42 1.538 . S
C434 C109 1.608 . S
C449 C33 0.635 . S
C461 C5 0.653 . S
C476 C47 0.527 . S
C488 C19 0.601 . S
C503 C61 0.674 . S
C515 C89 0.599 . S
C530 C75 0.652 . S
C542 C103 0.520 . S
