# Generated by pormake.
# Topology mdf, (4)-cn, num edge types: 1
# Building blocks:
#     Node 0, Type 0, BuildingBlock: UXUYUI_clean_sbu_0, # of connection points: 4
#     Node 1, Type 0, BuildingBlock: UXUYUI_clean_sbu_0, # of connection points: 4
#     Node 2, Type 0, BuildingBlock: UXUYUI_clean_sbu_0, # of connection points: 4
#     Node 3, Type 0, BuildingBlock: UXUYUI_clean_sbu_0, # of connection points: 4
#     Node 4, Type 0, BuildingBlock: UXUYUI_clean_sbu_0, # of connection points: 4
#     Node 5, Type 0, BuildingBlock: UXUYUI_clean_sbu_0, # of connection points: 4
#     Node 6, Type 0, BuildingBlock: UXUYUI_clean_sbu_0, # of connection points: 4
#     Node 7, Type 0, BuildingBlock: UXUYUI_clean_sbu_0, # of connection points: 4
#     Edge 8, Type (0, 0), BuildingBlock: ZUJKAS_clean_linker_0, # of connection points: 2
#     Edge 9, Type (0, 0), BuildingBlock: ZUJKAS_clean_linker_0, # of connection points: 2
#     Edge 10, Type (0, 0), BuildingBlock: ZUJKAS_clean_linker_0, # of connection points: 2
#     Edge 11, Type (0, 0), BuildingBlock: ZUJKAS_clean_linker_0, # of connection points: 2
#     Edge 12, Type (0, 0), BuildingBlock: ZUJKAS_clean_linker_0, # of connection points: 2
#     Edge 13, Type (0, 0), BuildingBlock: ZUJKAS_clean_linker_0, # of connection points: 2
#     Edge 14, Type (0, 0), BuildingBlock: ZUJKAS_clean_linker_0, # of connection points: 2
#     Edge 15, Type (0, 0), BuildingBlock: ZUJKAS_clean_linker_0, # of connection points: 2
#     Edge 16, Type (0, 0), BuildingBlock: ZUJKAS_clean_linker_0, # of connection points: 2
#     Edge 17, Type (0, 0), BuildingBlock: ZUJKAS_clean_linker_0, # of connection points: 2
#     Edge 18, Type (0, 0), BuildingBlock: ZUJKAS_clean_linker_0, # of connection points: 2
#     Edge 19, Type (0, 0), BuildingBlock: ZUJKAS_clean_linker_0, # of connection points: 2
#     Edge 20, Type (0, 0), BuildingBlock: ZUJKAS_clean_linker_0, # of connection points: 2
#     Edge 21, Type (0, 0), BuildingBlock: ZUJKAS_clean_linker_0, # of connection points: 2
#     Edge 22, Type (0, 0), BuildingBlock: ZUJKAS_clean_linker_0, # of connection points: 2
#     Edge 23, Type (0, 0), BuildingBlock: ZUJKAS_clean_linker_0, # of connection points: 2
# Relax obj value: 0.090
# Max RMSD: 0.078
# Mean RMSD: 0.078
data_MOF--net-mdf--node1-UXUYUI_clean_sbu_0--edge1-ZUJKAS_clean_linker_0
_symmetry_space_group_name_H-M    P1
_symmetry_Int_Tables_number       1
_symmetry_cell_setting            triclinic
loop_
_symmetry_equiv_pos_as_xyz
'x, y, z'
_cell_length_a     60.480045
_cell_length_b     60.490727
_cell_length_c     27.520897
_cell_angle_alpha  90.006407
_cell_angle_beta   90.014516
_cell_angle_gamma 90.007197
loop_
_atom_site_label
_atom_site_type_symbol
_atom_site_fract_x
_atom_site_fract_y
_atom_site_fract_z
_atom_type_partial_charge
Li0 Li 0.24276 0.56738 0.41781 0.0
Li1 Li 0.23167 0.53893 0.35926 0.0
Li2 Li 0.26977 0.53952 0.39711 0.0
Li3 Li 0.25989 0.56667 0.33449 0.0
C4 C 0.22914 0.53328 0.47077 0.0
N5 N 0.20566 0.53141 0.55678 0.0
C6 C 0.20638 0.52927 0.47012 0.0
C7 C 0.24001 0.53606 0.51517 0.0
C8 C 0.1948 0.52844 0.514 0.0
C9 C 0.22783 0.53515 0.55825 0.0
C10 C 0.21249 0.57838 0.32073 0.0
C11 C 0.19884 0.5809 0.23855 0.0
N12 N 0.18066 0.59183 0.25496 0.0
C13 C 0.19379 0.58984 0.33672 0.0
C14 C 0.21513 0.57403 0.27121 0.0
C15 C 0.17784 0.59642 0.30294 0.0
C16 C 0.24461 0.59706 0.4988 0.0
N17 N 0.23109 0.58529 0.46897 0.0
C18 C 0.19938 0.59632 0.51477 0.0
C19 C 0.20885 0.58497 0.47586 0.0
C20 C 0.21292 0.60827 0.5469 0.0
C21 C 0.23583 0.60876 0.53818 0.0
H22 H 0.26224 0.59712 0.4925 0.0
H23 H 0.19847 0.57547 0.45162 0.0
C24 C 0.2141 0.49768 0.33701 0.0
N25 N 0.20865 0.51946 0.33892 0.0
C26 C 0.19825 0.4819 0.3245 0.0
C27 C 0.17143 0.51125 0.31578 0.0
C28 C 0.18777 0.52646 0.32887 0.0
C29 C 0.17656 0.48862 0.31377 0.0
H30 H 0.2308 0.49259 0.34557 0.0
H31 H 0.18361 0.54374 0.33181 0.0
C32 C 0.29496 0.57443 0.41734 0.0
N33 N 0.3373 0.57787 0.45435 0.0
C34 C 0.3122 0.58203 0.38794 0.0
C35 C 0.2992 0.56885 0.46573 0.0
C36 C 0.3335 0.5836 0.40729 0.0
C37 C 0.32073 0.57061 0.48371 0.0
C38 C 0.26554 0.5247 0.28462 0.0
C39 C 0.2867 0.51659 0.27462 0.0
C40 C 0.24889 0.52253 0.24968 0.0
C41 C 0.29101 0.50703 0.22939 0.0
C42 C 0.25383 0.51285 0.20491 0.0
N43 N 0.27463 0.5054 0.19573 0.0
C44 C 0.28875 0.50516 0.45315 0.0
C45 C 0.31363 0.52288 0.3993 0.0
C46 C 0.30528 0.49049 0.46802 0.0
N47 N 0.29317 0.52089 0.41926 0.0
C48 C 0.33065 0.50863 0.41315 0.0
C49 C 0.32655 0.492 0.44766 0.0
H50 H 0.27226 0.50372 0.46795 0.0
H51 H 0.31669 0.5354 0.3721 0.0
C52 C 0.26218 0.60269 0.26705 0.0
N53 N 0.27169 0.58339 0.28142 0.0
C54 C 0.27079 0.61444 0.22755 0.0
C55 C 0.29924 0.58665 0.21956 0.0
C56 C 0.29007 0.57546 0.25904 0.0
C57 C 0.28949 0.60634 0.20296 0.0
H58 H 0.24783 0.60892 0.28606 0.0
H59 H 0.29785 0.56059 0.27232 0.0
O60 O 0.24068 0.53464 0.42813 0.0
O61 O 0.22817 0.5717 0.35347 0.0
O62 O 0.27404 0.57255 0.39886 0.0
O63 O 0.26101 0.53392 0.32901 0.0
H64 H 0.19769 0.52709 0.43611 0.0
H65 H 0.25763 0.53902 0.51635 0.0
H66 H 0.17715 0.52551 0.51403 0.0
H67 H 0.236 0.53743 0.59286 0.0
H68 H 0.20069 0.57762 0.20012 0.0
H69 H 0.19156 0.5936 0.37481 0.0
H70 H 0.22974 0.56576 0.25799 0.0
H71 H 0.16324 0.6052 0.31486 0.0
H72 H 0.18162 0.59574 0.51962 0.0
H73 H 0.24691 0.61761 0.5622 0.0
H74 H 0.20293 0.46463 0.323 0.0
H75 H 0.15482 0.51707 0.3085 0.0
H76 H 0.30918 0.58664 0.35058 0.0
H77 H 0.28606 0.56299 0.489 0.0
H78 H 0.34702 0.58936 0.38488 0.0
H79 H 0.32428 0.56617 0.52098 0.0
H80 H 0.29974 0.51779 0.30132 0.0
H81 H 0.23223 0.528 0.25709 0.0
H82 H 0.30737 0.50088 0.22108 0.0
H83 H 0.2411 0.51115 0.17755 0.0
H84 H 0.30125 0.47775 0.49418 0.0
H85 H 0.34684 0.5106 0.39691 0.0
H86 H 0.26269 0.62952 0.21602 0.0
H87 H 0.31401 0.58009 0.20266 0.0
Li88 Li 0.43564 0.74192 0.66603 0.0
Li89 Li 0.46313 0.73175 0.60483 0.0
Li90 Li 0.46358 0.76988 0.64155 0.0
Li91 Li 0.43553 0.75873 0.58158 0.0
C92 C 0.47571 0.73789 0.71975 0.0
N93 N 0.49094 0.73231 0.81369 0.0
C94 C 0.48511 0.71779 0.734 0.0
C95 C 0.47448 0.75527 0.75308 0.0
C96 C 0.49258 0.71525 0.78171 0.0
C97 C 0.48217 0.75211 0.80044 0.0
C98 C 0.42884 0.70672 0.58238 0.0
C99 C 0.43216 0.68183 0.5143 0.0
N100 N 0.42678 0.6646 0.54377 0.0
C101 C 0.42313 0.68881 0.61189 0.0
C102 C 0.43318 0.70326 0.5331 0.0
C103 C 0.42226 0.66763 0.59172 0.0
C104 C 0.39917 0.74001 0.73242 0.0
N105 N 0.4185 0.73039 0.71862 0.0
C106 C 0.41447 0.70255 0.77965 0.0
C107 C 0.42614 0.71189 0.74107 0.0
C108 C 0.39459 0.71225 0.79525 0.0
C109 C 0.38696 0.73126 0.7711 0.0
H110 H 0.39317 0.75442 0.71329 0.0
H111 H 0.44122 0.7042 0.72859 0.0
C112 C 0.49602 0.71106 0.54696 0.0
N113 N 0.48158 0.70799 0.58417 0.0
C114 C 0.51042 0.69411 0.53324 0.0
C115 C 0.49473 0.67114 0.59627 0.0
C116 C 0.48063 0.68851 0.60869 0.0
C117 C 0.51002 0.67387 0.55832 0.0
H118 H 0.49669 0.72682 0.52856 0.0
H119 H 0.46907 0.68656 0.63833 0.0
C120 C 0.42343 0.79105 0.67209 0.0
N121 N 0.40848 0.82691 0.72501 0.0
C122 C 0.41451 0.80943 0.64832 0.0
C123 C 0.42438 0.79078 0.72283 0.0
C124 C 0.40715 0.82743 0.6757 0.0
C125 C 0.41683 0.80909 0.74892 0.0
C126 C 0.47148 0.77158 0.53015 0.0
C127 C 0.47828 0.79367 0.53028 0.0
C128 C 0.46795 0.76078 0.48591 0.0
C129 C 0.48106 0.8047 0.48611 0.0
C130 C 0.47087 0.77239 0.44252 0.0
N131 N 0.4773 0.79394 0.44351 0.0
C132 C 0.50423 0.7871 0.67065 0.0
C133 C 0.47618 0.8144 0.66684 0.0
C134 C 0.51989 0.80298 0.68375 0.0
N135 N 0.48286 0.79302 0.66251 0.0
C136 C 0.49128 0.83081 0.68013 0.0
C137 C 0.5135 0.82521 0.68844 0.0
H138 H 0.50913 0.77001 0.66648 0.0
H139 H 0.45932 0.81887 0.65893 0.0
C140 C 0.40288 0.75652 0.50659 0.0
N141 N 0.41783 0.76979 0.52928 0.0
C142 C 0.39078 0.76443 0.46687 0.0
C143 C 0.40959 0.79949 0.47489 0.0
C144 C 0.42107 0.79102 0.51472 0.0
C145 C 0.3943 0.7861 0.45022 0.0
H146 H 0.40047 0.73975 0.51908 0.0
H147 H 0.43276 0.80136 0.53379 0.0
O148 O 0.46835 0.74064 0.67307 0.0
O149 O 0.43017 0.72753 0.60165 0.0
O150 O 0.43072 0.77329 0.64573 0.0
O151 O 0.46841 0.76058 0.57308 0.0
H152 H 0.4865 0.70423 0.7086 0.0
H153 H 0.46795 0.77115 0.74244 0.0
H154 H 0.49971 0.69972 0.79329 0.0
H155 H 0.48125 0.76543 0.82659 0.0
H156 H 0.43563 0.67891 0.47629 0.0
H157 H 0.41952 0.69119 0.64998 0.0
H158 H 0.43739 0.71696 0.50968 0.0
H159 H 0.418 0.65359 0.6142 0.0
H160 H 0.42106 0.68798 0.79733 0.0
H161 H 0.37155 0.73907 0.78144 0.0
H162 H 0.52215 0.69705 0.50423 0.0
H163 H 0.49368 0.65575 0.61623 0.0
H164 H 0.41335 0.80985 0.60916 0.0
H165 H 0.43058 0.77649 0.74199 0.0
H166 H 0.40035 0.84181 0.65773 0.0
H167 H 0.41752 0.8091 0.7882 0.0
H168 H 0.48119 0.80228 0.56409 0.0
H169 H 0.4629 0.74365 0.48507 0.0
H170 H 0.48617 0.82184 0.4857 0.0
H171 H 0.46804 0.76428 0.40805 0.0
H172 H 0.5368 0.7979 0.69023 0.0
H173 H 0.48573 0.8478 0.68257 0.0
H174 H 0.37915 0.75358 0.44876 0.0
H175 H 0.41252 0.81641 0.46372 0.0
Li176 Li 0.26883 0.96381 0.86181 0.0
Li177 Li 0.25768 0.93506 0.92041 0.0
Li178 Li 0.24236 0.93576 0.83789 0.0
Li179 Li 0.23206 0.96355 0.89483 0.0
C180 C 0.29513 0.92529 0.8665 0.0
N181 N 0.3384 0.91356 0.88573 0.0
C182 C 0.30737 0.93694 0.90119 0.0
C183 C 0.30488 0.90768 0.84165 0.0
C184 C 0.32922 0.93075 0.91038 0.0
C185 C 0.32679 0.90201 0.85186 0.0
C186 C 0.25301 0.97802 0.97163 0.0
C187 C 0.23173 0.97808 0.04579 0.0
N188 N 0.23685 0.99976 0.05251 0.0
C189 C 0.25811 1.00028 0.97936 0.0
C190 C 0.23974 0.9668 0.00515 0.0
C191 C 0.24976 0.01098 0.02045 0.0
C192 C 0.28964 0.00465 0.85185 0.0
N193 N 0.292 0.98294 0.84041 0.0
C194 C 0.32639 0.99035 0.80068 0.0
C195 C 0.30971 0.97563 0.8145 0.0
C196 C 0.32472 0.01279 0.81346 0.0
C197 C 0.30592 0.0199 0.83899 0.0
H198 H 0.27498 0.01011 0.87077 0.0
H199 H 0.31096 0.9584 0.80456 0.0
C200 C 0.265 0.89481 0.9721 0.0
N201 N 0.26823 0.91706 0.97254 0.0
C202 C 0.27319 0.88169 0.00999 0.0
C203 C 0.2877 0.91468 0.04795 0.0
C204 C 0.27955 0.92706 0.00915 0.0
C205 C 0.28454 0.89171 0.04874 0.0
H206 H 0.25613 0.88726 0.94224 0.0
H207 H 0.28242 0.94468 0.0081 0.0
C208 C 0.24542 0.97311 0.77922 0.0
N209 N 0.25484 0.9832 0.68352 0.0
C210 C 0.23442 0.99047 0.75607 0.0
C211 C 0.26123 0.96088 0.75371 0.0
C212 C 0.2394 0.99531 0.70765 0.0
C213 C 0.26576 0.96624 0.70536 0.0
C214 C 0.20503 0.9252 0.89192 0.0
C215 C 0.1917 0.93787 0.86117 0.0
C216 C 0.19643 0.90614 0.91346 0.0
C217 C 0.16994 0.93124 0.85246 0.0
C218 C 0.17457 0.90005 0.90387 0.0
N219 N 0.16189 0.91262 0.87382 0.0
C220 C 0.23887 0.89704 0.77875 0.0
C221 C 0.21596 0.92699 0.7555 0.0
C222 C 0.23049 0.88409 0.74078 0.0
N223 N 0.23148 0.91805 0.78537 0.0
C224 C 0.20716 0.9147 0.71728 0.0
C225 C 0.2143 0.89288 0.70956 0.0
H226 H 0.25116 0.8903 0.80318 0.0
H227 H 0.21031 0.94372 0.76138 0.0
C228 C 0.21001 0.00395 0.89654 0.0
N229 N 0.20909 0.98314 0.91498 0.0
C230 C 0.19381 0.01943 0.90851 0.0
C231 C 0.17609 0.99186 0.95877 0.0
C232 C 0.1927 0.9769 0.9459 0.0
C233 C 0.17643 0.01344 0.93974 0.0
H234 H 0.22341 0.00849 0.87249 0.0
H235 H 0.19247 0.96029 0.96041 0.0
O236 O 0.27363 0.93085 0.85701 0.0
O237 O 0.26049 0.96733 0.93098 0.0
O238 O 0.24065 0.9683 0.82667 0.0
O239 O 0.22643 0.93124 0.90091 0.0
H240 H 0.30016 0.95068 0.92067 0.0
H241 H 0.2956 0.89849 0.81473 0.0
H242 H 0.33889 0.93963 0.93709 0.0
H243 H 0.33456 0.88841 0.83287 0.0
H244 H 0.22135 0.96962 0.07184 0.0
H245 H 0.26841 0.00923 0.95406 0.0
H246 H 0.23539 0.94964 0.99944 0.0
H247 H 0.25354 0.02822 0.02683 0.0
H248 H 0.34059 0.98416 0.78094 0.0
H249 H 0.3037 0.03713 0.8485 0.0
H250 H 0.27046 0.864 0.00934 0.0
H251 H 0.29672 0.92296 0.07669 0.0
H252 H 0.22213 1.00009 0.77533 0.0
H253 H 0.26991 0.94736 0.77087 0.0
H254 H 0.231 0.0087 0.68927 0.0
H255 H 0.27794 0.95691 0.68519 0.0
H256 H 0.19807 0.95268 0.84421 0.0
H257 H 0.20657 0.89615 0.93733 0.0
H258 H 0.15944 0.94089 0.82873 0.0
H259 H 0.16769 0.88534 0.92031 0.0
H260 H 0.23634 0.86729 0.73644 0.0
H261 H 0.19502 0.92233 0.69372 0.0
H262 H 0.19502 0.03597 0.89374 0.0
H263 H 0.16294 0.98644 0.98266 0.0
Li264 Li 0.04008 0.76943 0.10919 0.0
Li265 Li 0.06782 0.75944 0.17081 0.0
Li266 Li 0.06785 0.74245 0.08736 0.0
Li267 Li 0.0399 0.73125 0.14683 0.0
C268 C 0.07514 0.7947 0.08837 0.0
N269 N 0.07904 0.83716 0.05234 0.0
C270 C 0.0831 0.81168 0.11805 0.0
C271 C 0.06941 0.79927 0.0402 0.0
C272 C 0.0849 0.83305 0.0992 0.0
C273 C 0.07142 0.82085 0.02272 0.0
C274 C 0.02622 0.76573 0.22181 0.0
C275 C 0.01496 0.7552 0.3027 0.0
N276 N 0.00758 0.77612 0.31068 0.0
C277 C 0.0182 0.78703 0.23061 0.0
C278 C 0.02432 0.7496 0.25797 0.0
C279 C 0.00898 0.792 0.27584 0.0
C280 C 0.00436 0.78752 0.05654 0.0
N281 N 0.02104 0.79265 0.08766 0.0
C282 C 0.00886 0.83022 0.09171 0.0
C283 C 0.02353 0.8135 0.10531 0.0
C284 C 0.99126 0.82535 0.06015 0.0
C285 C 0.98919 0.80369 0.04226 0.0
H286 H 0.00259 0.77076 0.04346 0.0
H287 H 0.03665 0.81708 0.13079 0.0
C288 C 0.10476 0.76144 0.23548 0.0
N289 N 0.08516 0.77098 0.22326 0.0
C290 C 0.11723 0.76978 0.27419 0.0
C291 C 0.08944 0.79794 0.2861 0.0
C292 C 0.07754 0.78906 0.24728 0.0
C293 C 0.10957 0.78827 0.30021 0.0
H294 H 0.11073 0.74736 0.21515 0.0
H295 H 0.06231 0.79678 0.23597 0.0
C296 C 0.03343 0.72931 0.03494 0.0
N297 N 0.03098 0.70693 0.94759 0.0
C298 C 0.02959 0.70653 0.03433 0.0
C299 C 0.03574 0.74076 0.99114 0.0
C300 C 0.02846 0.6955 0.98978 0.0
C301 C 0.03455 0.72913 0.94735 0.0
C302 C 0.07918 0.7119 0.18388 0.0
C303 C 0.09011 0.69294 0.16752 0.0
C304 C 0.07518 0.71461 0.23351 0.0
C305 C 0.0965 0.67683 0.20108 0.0
C306 C 0.08184 0.69814 0.26594 0.0
N307 N 0.09224 0.67973 0.24918 0.0
C308 C 0.09727 0.74466 0.0061 0.0
C309 C 0.08536 0.70875 0.02836 0.0
C310 C 0.10918 0.73606 0.96685 0.0
N311 N 0.08554 0.73097 0.03561 0.0
C312 C 0.09699 0.69946 0.98962 0.0
C313 C 0.10905 0.71316 0.95802 0.0
H314 H 0.09731 0.76225 0.01283 0.0
H315 H 0.0758 0.69826 0.0522 0.0
C316 C 0.99942 0.71385 0.17697 0.0
N317 N 0.02077 0.70813 0.16805 0.0
C318 C 0.98403 0.69783 0.19074 0.0
C319 C 0.01281 0.67023 0.18553 0.0
C320 C 0.02765 0.6868 0.17181 0.0
C321 C 0.99062 0.67564 0.19508 0.0
H322 H 0.99432 0.73088 0.17283 0.0
H323 H 0.04454 0.68252 0.16337 0.0
O324 O 0.07308 0.77372 0.10635 0.0
O325 O 0.03512 0.76055 0.17746 0.0
O326 O 0.03504 0.74031 0.07822 0.0
O327 O 0.0727 0.72776 0.15138 0.0
H328 H 0.08782 0.80841 0.15525 0.0
H329 H 0.0633 0.78632 0.0167 0.0
H330 H 0.09095 0.84636 0.12182 0.0
H331 H 0.06689 0.82464 0.98562 0.0
H332 H 0.01346 0.74288 0.33099 0.0
H333 H 0.01925 0.79966 0.20298 0.0
H334 H 0.02972 0.73284 0.2515 0.0
H335 H 0.0029 0.80848 0.28322 0.0
H336 H 0.01087 0.84661 0.10692 0.0
H337 H 0.97596 0.79927 0.01758 0.0
H338 H 0.13283 0.76202 0.28319 0.0
H339 H 0.08278 0.81212 0.30516 0.0
H340 H 0.02774 0.69741 0.06787 0.0
H341 H 0.03852 0.75841 0.99095 0.0
H342 H 0.02565 0.67785 0.98877 0.0
H343 H 0.03645 0.73776 0.91318 0.0
H344 H 0.09359 0.69065 0.12932 0.0
H345 H 0.06733 0.72941 0.24698 0.0
H346 H 0.10486 0.66203 0.18888 0.0
H347 H 0.07882 0.70005 0.30446 0.0
H348 H 0.11848 0.74722 0.94385 0.0
H349 H 0.09612 0.68177 0.98388 0.0
H350 H 0.96703 0.70274 0.19681 0.0
H351 H 0.01867 0.65338 0.18867 0.0
Li352 Li 0.74351 0.0663 0.91893 0.0
Li353 Li 0.73289 0.03835 0.85868 0.0
Li354 Li 0.7709 0.03875 0.89715 0.0
Li355 Li 0.76097 0.06644 0.83551 0.0
C356 C 0.73092 0.03079 0.97075 0.0
N357 N 0.70904 0.02588 0.05822 0.0
C358 C 0.70844 0.02543 0.97144 0.0
C359 C 0.74235 0.03332 0.01454 0.0
C360 C 0.69766 0.0231 0.01603 0.0
C361 C 0.73097 0.03088 0.05838 0.0
C362 C 0.71247 0.07769 0.82448 0.0
C363 C 0.6968 0.08181 0.74438 0.0
N364 N 0.67836 0.09095 0.76429 0.0
C365 C 0.69348 0.08738 0.8441 0.0
C366 C 0.71424 0.07509 0.77418 0.0
C367 C 0.67638 0.09387 0.8131 0.0
C368 C 0.74496 0.09776 0.99641 0.0
N369 N 0.73176 0.08391 0.97048 0.0
C370 C 0.70054 0.09362 0.01927 0.0
C371 C 0.70989 0.08184 0.98083 0.0
C372 C 0.71374 0.10795 0.04713 0.0
C373 C 0.73626 0.11 0.03506 0.0
H374 H 0.76225 0.09932 0.98711 0.0
H375 H 0.69972 0.07081 0.95951 0.0
C376 C 0.71583 0.99828 0.82438 0.0
N377 N 0.70989 0.01923 0.83659 0.0
C378 C 0.69985 0.98295 0.81003 0.0
C379 C 0.67184 0.01096 0.82141 0.0
C380 C 0.68838 0.02575 0.83558 0.0
C381 C 0.67746 0.98918 0.80856 0.0
H382 H 0.73301 0.9934 0.82644 0.0
H383 H 0.68395 0.04226 0.84672 0.0
C384 C 0.79552 0.07421 0.91981 0.0
N385 N 0.83736 0.07893 0.95883 0.0
C386 C 0.81291 0.08189 0.89095 0.0
C387 C 0.79934 0.06923 0.96868 0.0
C388 C 0.83396 0.0841 0.91131 0.0
C389 C 0.82063 0.07163 0.98768 0.0
C390 C 0.76747 0.02569 0.78351 0.0
C391 C 0.78855 0.01721 0.77428 0.0
C392 C 0.75148 0.02522 0.74684 0.0
C393 C 0.79347 0.00896 0.72811 0.0
C394 C 0.75702 0.0168 0.70118 0.0
N395 N 0.77774 0.00895 0.6928 0.0
C396 C 0.78958 0.00331 0.94997 0.0
C397 C 0.81506 0.02284 0.90068 0.0
C398 C 0.80603 0.98838 0.96391 0.0
N399 N 0.79433 0.02006 0.91878 0.0
C400 C 0.83204 0.00841 0.9139 0.0
C401 C 0.82761 0.9907 0.94554 0.0
H402 H 0.77287 0.00121 0.96313 0.0
H403 H 0.81833 0.03602 0.87521 0.0
C404 C 0.76305 0.10314 0.77003 0.0
N405 N 0.77273 0.08379 0.78345 0.0
C406 C 0.77178 0.11556 0.73165 0.0
C407 C 0.80052 0.08815 0.72244 0.0
C408 C 0.79128 0.07634 0.76093 0.0
C409 C 0.79076 0.10806 0.70717 0.0
H410 H 0.74858 0.10898 0.78921 0.0
H411 H 0.79909 0.06131 0.77323 0.0
O412 O 0.74169 0.03344 0.92743 0.0
O413 O 0.72933 0.07116 0.85442 0.0
O414 O 0.77484 0.07175 0.90038 0.0
O415 O 0.76238 0.03375 0.82865 0.0
H416 H 0.69936 0.02331 0.93792 0.0
H417 H 0.75979 0.03716 0.01469 0.0
H418 H 0.68023 0.01911 0.0171 0.0
H419 H 0.73958 0.03293 0.09254 0.0
H420 H 0.69796 0.07985 0.70539 0.0
H421 H 0.69191 0.08979 0.88287 0.0
H422 H 0.72904 0.06825 0.75823 0.0
H423 H 0.66153 0.10125 0.82784 0.0
H424 H 0.68321 0.09119 0.02751 0.0
H425 H 0.74702 0.12108 0.05495 0.0
H426 H 0.70494 0.96625 0.80136 0.0
H427 H 0.65484 0.01655 0.82058 0.0
H428 H 0.81021 0.08605 0.85322 0.0
H429 H 0.78604 0.06349 0.99162 0.0
H430 H 0.8476 0.08991 0.88932 0.0
H431 H 0.82384 0.0677 0.02536 0.0
H432 H 0.80106 0.01715 0.80232 0.0
H433 H 0.73487 0.03099 0.75365 0.0
H434 H 0.80978 0.00253 0.72039 0.0
H435 H 0.7448 0.01641 0.67247 0.0
H436 H 0.80169 0.97479 0.98767 0.0
H437 H 0.84843 0.01106 0.89921 0.0
H438 H 0.76391 0.13099 0.72174 0.0
H439 H 0.81504 0.08158 0.70455 0.0
Li440 Li 0.93481 0.24259 0.1665 0.0
Li441 Li 0.96257 0.23223 0.10576 0.0
Li442 Li 0.96235 0.27044 0.14385 0.0
Li443 Li 0.93447 0.25996 0.08262 0.0
C444 C 0.97179 0.23328 0.21991 0.0
N445 N 0.97984 0.21723 0.31225 0.0
C446 C 0.97809 0.21126 0.22654 0.0
C447 C 0.96999 0.24724 0.26016 0.0
C448 C 0.98197 0.20343 0.27353 0.0
C449 C 0.97402 0.2388 0.30657 0.0
C450 C 0.92515 0.20997 0.07501 0.0
C451 C 0.923 0.19128 0.99772 0.0
N452 N 0.91598 0.17265 0.02067 0.0
C453 C 0.91764 0.19073 0.09775 0.0
C454 C 0.92762 0.21034 0.02454 0.0
C455 C 0.9132 0.172 0.06968 0.0
C456 C 0.9022 0.2433 0.24187 0.0
N457 N 0.91768 0.23084 0.21877 0.0
C458 C 0.9107 0.20043 0.27207 0.0
C459 C 0.92182 0.20967 0.23261 0.0
C460 C 0.89491 0.213 0.29731 0.0
C461 C 0.89052 0.23464 0.28143 0.0
H462 H 0.89899 0.25999 0.22981 0.0
H463 H 0.9339 0.19997 0.21307 0.0
C464 C 0.99989 0.21409 0.05876 0.0
N465 N 0.9813 0.20887 0.08402 0.0
C466 C 0.01463 0.19755 0.04448 0.0
C467 C 0.99101 0.17055 0.08314 0.0
C468 C 0.97668 0.18761 0.09644 0.0
C469 C 0.01034 0.17544 0.05695 0.0
H470 H 0.00355 0.23118 0.05057 0.0
H471 H 0.96214 0.18394 0.11775 0.0
C472 C 0.92502 0.29412 0.16772 0.0
N473 N 0.91636 0.33498 0.20846 0.0
C474 C 0.91695 0.31136 0.1389 0.0
C475 C 0.92833 0.29757 0.2174 0.0
C476 C 0.91276 0.33192 0.16014 0.0
C477 C 0.92396 0.31836 0.23727 0.0
C478 C 0.97373 0.26932 0.0308 0.0
C479 C 0.9816 0.29094 0.02602 0.0
C480 C 0.97298 0.25555 0.99006 0.0
C481 C 0.98809 0.29859 0.9803 0.0
C482 C 0.97964 0.2638 0.94497 0.0
N483 N 0.98695 0.28498 0.94104 0.0
C484 C 0.99981 0.28808 0.19034 0.0
C485 C 0.97666 0.31521 0.15484 0.0
C486 C 0.01485 0.30429 0.20498 0.0
N487 N 0.98114 0.29376 0.16585 0.0
C488 C 0.99116 0.33199 0.16903 0.0
C489 C 0.01068 0.32663 0.19418 0.0
H490 H 0.00328 0.27086 0.19763 0.0
H491 H 0.9621 0.31931 0.13405 0.0
C492 C 0.89846 0.26011 0.01548 0.0
N493 N 0.91684 0.27118 0.03034 0.0
C494 C 0.88593 0.26803 0.97644 0.0
C495 C 0.91122 0.29879 0.9694 0.0
C496 C 0.92311 0.29038 0.0087 0.0
C497 C 0.89243 0.28751 0.95254 0.0
H498 H 0.89358 0.24507 0.03379 0.0
H499 H 0.93724 0.29935 0.02229 0.0
O500 O 0.96762 0.24117 0.1742 0.0
O501 O 0.92973 0.22843 0.10198 0.0
O502 O 0.92934 0.27392 0.14744 0.0
O503 O 0.96725 0.2616 0.07534 0.0
H504 H 0.97977 0.20027 0.1958 0.0
H505 H 0.96567 0.26444 0.25562 0.0
H506 H 0.98667 0.18637 0.2792 0.0
H507 H 0.97258 0.2494 0.33806 0.0
H508 H 0.92491 0.19134 0.95864 0.0
H509 H 0.91534 0.19021 0.13668 0.0
H510 H 0.93283 0.22523 0.00622 0.0
H511 H 0.90753 0.15695 0.08687 0.0
H512 H 0.9143 0.18354 0.28248 0.0
H513 H 0.87852 0.24491 0.29994 0.0
H514 H 0.02954 0.20211 0.02515 0.0
H515 H 0.98704 0.15373 0.09342 0.0
H516 H 0.91402 0.30893 0.10055 0.0
H517 H 0.93411 0.28432 0.24041 0.0
H518 H 0.90665 0.34544 0.1382 0.0
H519 H 0.92655 0.32128 0.27564 0.0
H520 H 0.98252 0.30177 0.05718 0.0
H521 H 0.9676 0.23859 0.99326 0.0
H522 H 0.99404 0.31534 0.97604 0.0
H523 H 0.97907 0.25332 0.91313 0.0
H524 H 0.02986 0.29928 0.22335 0.0
H525 H 0.98714 0.34895 0.16015 0.0
H526 H 0.87155 0.25883 0.96457 0.0
H527 H 0.91651 0.31413 0.95277 0.0
Li528 Li 0.76947 0.4632 0.35902 0.0
Li529 Li 0.75835 0.43462 0.41732 0.0
Li530 Li 0.74171 0.43528 0.33293 0.0
Li531 Li 0.73133 0.46225 0.39551 0.0
C532 C 0.79026 0.42324 0.32497 0.0
N533 N 0.82483 0.40819 0.26815 0.0
C534 C 0.80914 0.41426 0.34667 0.0
C535 C 0.78882 0.42415 0.27432 0.0
C536 C 0.82649 0.40687 0.31734 0.0
C537 C 0.8065 0.41657 0.24624 0.0
C538 C 0.77086 0.46938 0.47115 0.0
C539 C 0.77118 0.46655 0.55857 0.0
N540 N 0.79276 0.47288 0.55894 0.0
C541 C 0.79298 0.47603 0.47241 0.0
C542 C 0.75979 0.46478 0.51457 0.0
C543 C 0.80378 0.47765 0.51716 0.0
C544 C 0.78664 0.504 0.33029 0.0
N545 N 0.79256 0.48268 0.33891 0.0
C546 C 0.83044 0.49112 0.32223 0.0
C547 C 0.81398 0.47605 0.33537 0.0
C548 C 0.82481 0.51328 0.31314 0.0
C549 C 0.80254 0.51963 0.31717 0.0
H550 H 0.76951 0.50888 0.3339 0.0
H551 H 0.81843 0.45921 0.3437 0.0
C552 C 0.75606 0.40184 0.49182 0.0
N553 N 0.76953 0.41636 0.46846 0.0
C554 C 0.76418 0.38908 0.53027 0.0
C555 C 0.79986 0.40638 0.51965 0.0
C556 C 0.7911 0.41866 0.48131 0.0
C557 C 0.78638 0.39131 0.54483 0.0
H558 H 0.739 0.40018 0.48065 0.0
H559 H 0.80147 0.4303 0.46216 0.0
C560 C 0.73789 0.47693 0.28204 0.0
N561 N 0.73316 0.4953 0.19063 0.0
C562 C 0.71838 0.48794 0.26947 0.0
C563 C 0.75512 0.47563 0.24835 0.0
C564 C 0.71626 0.497 0.22301 0.0
C565 C 0.75239 0.48493 0.20229 0.0
C566 C 0.70597 0.4277 0.41342 0.0
C567 C 0.68885 0.4224 0.38133 0.0
C568 C 0.70122 0.43145 0.46243 0.0
C569 C 0.66718 0.42127 0.39873 0.0
C570 C 0.67934 0.43019 0.47841 0.0
N571 N 0.66291 0.42519 0.44648 0.0
C572 C 0.73877 0.39764 0.27111 0.0
C573 C 0.71442 0.42699 0.2515 0.0
C574 C 0.73077 0.38512 0.23213 0.0
N575 N 0.73068 0.41825 0.27966 0.0
C576 C 0.70604 0.41514 0.21207 0.0
C577 C 0.71427 0.39394 0.2018 0.0
H578 H 0.75151 0.39096 0.29447 0.0
H579 H 0.70769 0.44305 0.26001 0.0
C580 C 0.71022 0.49428 0.4551 0.0
N581 N 0.70745 0.48041 0.41672 0.0
C582 C 0.6932 0.50856 0.46904 0.0
C583 C 0.67076 0.49388 0.40391 0.0
C584 C 0.68819 0.4799 0.3913 0.0
C585 C 0.6732 0.50865 0.44297 0.0
H586 H 0.72581 0.4946 0.47427 0.0
H587 H 0.68648 0.46881 0.36071 0.0
O588 O 0.77309 0.43047 0.35326 0.0
O589 O 0.7601 0.46742 0.42763 0.0
O590 O 0.74021 0.46801 0.3275 0.0
O591 O 0.72724 0.42922 0.39691 0.0
H592 H 0.81047 0.41309 0.38572 0.0
H593 H 0.77412 0.43036 0.25673 0.0
H594 H 0.84125 0.40004 0.3337 0.0
H595 H 0.8056 0.41724 0.20701 0.0
H596 H 0.76286 0.46288 0.59241 0.0
H597 H 0.80178 0.47974 0.43921 0.0
H598 H 0.74265 0.45973 0.51428 0.0
H599 H 0.82094 0.48265 0.51866 0.0
H600 H 0.84745 0.4856 0.32038 0.0
H601 H 0.79743 0.53648 0.31009 0.0
H602 H 0.75324 0.37746 0.54808 0.0
H603 H 0.81695 0.40899 0.52992 0.0
H604 H 0.70496 0.48941 0.29519 0.0
H605 H 0.77059 0.46787 0.25781 0.0
H606 H 0.70119 0.50542 0.21272 0.0
H607 H 0.7656 0.484 0.17589 0.0
H608 H 0.69224 0.41934 0.34335 0.0
H609 H 0.71428 0.43543 0.48779 0.0
H610 H 0.65376 0.41732 0.37425 0.0
H611 H 0.67541 0.43321 0.51618 0.0
H612 H 0.7376 0.36886 0.22543 0.0
H613 H 0.69298 0.42237 0.19033 0.0
H614 H 0.69593 0.51987 0.49894 0.0
H615 H 0.65556 0.4932 0.38315 0.0
Li616 Li 0.53823 0.27 0.60964 0.0
Li617 Li 0.56649 0.25846 0.66814 0.0
Li618 Li 0.56581 0.2418 0.58404 0.0
Li619 Li 0.53849 0.23168 0.64634 0.0
C620 C 0.57777 0.28984 0.57377 0.0
N621 N 0.59155 0.32338 0.51266 0.0
C622 C 0.58797 0.30868 0.59282 0.0
C623 C 0.57492 0.28792 0.52356 0.0
C624 C 0.59472 0.3255 0.56136 0.0
C625 C 0.58191 0.30508 0.49329 0.0
C626 C 0.53198 0.27117 0.72198 0.0
C627 C 0.53371 0.27062 0.80952 0.0
N628 N 0.52909 0.29262 0.81039 0.0
C629 C 0.52704 0.29372 0.72374 0.0
C630 C 0.53514 0.25945 0.7652 0.0
C631 C 0.52572 0.30428 0.76879 0.0
C632 C 0.49793 0.28797 0.57902 0.0
N633 N 0.5192 0.29344 0.5895 0.0
C634 C 0.51146 0.33169 0.57554 0.0
C635 C 0.52615 0.31481 0.58819 0.0
C636 C 0.48936 0.32654 0.56448 0.0
C637 C 0.4827 0.30429 0.56618 0.0
H638 H 0.49274 0.27088 0.58126 0.0
H639 H 0.54295 0.31887 0.59792 0.0
C640 C 0.5978 0.25586 0.74582 0.0
N641 N 0.58459 0.26957 0.71957 0.0
C642 C 0.61019 0.2641 0.78474 0.0
C643 C 0.5953 0.30042 0.76849 0.0
C644 C 0.58333 0.2915 0.72984 0.0
C645 C 0.60896 0.28668 0.79673 0.0
H646 H 0.59868 0.23851 0.73666 0.0
H647 H 0.5727 0.30205 0.70841 0.0
C648 C 0.52403 0.23681 0.53363 0.0
N649 N 0.50533 0.22868 0.44369 0.0
C650 C 0.51453 0.21624 0.52354 0.0
C651 C 0.5236 0.25338 0.49823 0.0
C652 C 0.5053 0.2124 0.47778 0.0
C653 C 0.51417 0.24891 0.45293 0.0
C654 C 0.57358 0.20619 0.66544 0.0
C655 C 0.58062 0.18921 0.63468 0.0
C656 C 0.56882 0.20153 0.71406 0.0
C657 C 0.58244 0.16774 0.65293 0.0
C658 C 0.57081 0.17984 0.73092 0.0
N659 N 0.5775 0.16353 0.70025 0.0
C660 C 0.6026 0.2391 0.51902 0.0
C661 C 0.57414 0.21286 0.50586 0.0
C662 C 0.61465 0.23062 0.4798 0.0
N663 N 0.5826 0.2303 0.53082 0.0
C664 C 0.58552 0.20398 0.46636 0.0
C665 C 0.60602 0.21293 0.45266 0.0
H666 H 0.60916 0.25274 0.53995 0.0
H667 H 0.55867 0.20559 0.51708 0.0
C668 C 0.50392 0.21239 0.70122 0.0
N669 N 0.5198 0.20818 0.66755 0.0
C670 C 0.48918 0.19578 0.71524 0.0
C671 C 0.5076 0.17075 0.66008 0.0
C672 C 0.52187 0.18787 0.64695 0.0
C673 C 0.4908 0.17462 0.69434 0.0
H674 H 0.50238 0.2288 0.71645 0.0
H675 H 0.53441 0.18503 0.61969 0.0
O676 O 0.57104 0.27323 0.60418 0.0
O677 O 0.53371 0.26062 0.67817 0.0
O678 O 0.53306 0.24085 0.57842 0.0
O679 O 0.57148 0.22728 0.64807 0.0
H680 H 0.5906 0.31036 0.6315 0.0
H681 H 0.5677 0.27321 0.50801 0.0
H682 H 0.6025 0.34023 0.57566 0.0
H683 H 0.57976 0.3038 0.45436 0.0
H684 H 0.53627 0.26179 0.84324 0.0
H685 H 0.52447 0.30303 0.69068 0.0
H686 H 0.53874 0.24196 0.76452 0.0
H687 H 0.52207 0.32177 0.77068 0.0
H688 H 0.51738 0.34858 0.57446 0.0
H689 H 0.46575 0.29957 0.55884 0.0
H690 H 0.62073 0.25293 0.80496 0.0
H691 H 0.59351 0.31783 0.7767 0.0
H692 H 0.51443 0.20331 0.55061 0.0
H693 H 0.53015 0.26962 0.50575 0.0
H694 H 0.49807 0.19649 0.4694 0.0
H695 H 0.51379 0.26159 0.42521 0.0
H696 H 0.58457 0.19255 0.59708 0.0
H697 H 0.56351 0.21449 0.73843 0.0
H698 H 0.58776 0.15441 0.62947 0.0
H699 H 0.56703 0.17598 0.76839 0.0
H700 H 0.63039 0.23802 0.47045 0.0
H701 H 0.57851 0.18999 0.44722 0.0
H702 H 0.47629 0.19968 0.74115 0.0
H703 H 0.50968 0.15467 0.6434 0.0
H704 H 0.38668 0.66847 0.81308 0.0
H705 H 0.36739 0.65217 0.88238 0.0
H706 H 0.35473 0.71728 0.9398 0.0
H707 H 0.37406 0.73375 0.87049 0.0
H708 H 0.37844 0.65628 0.97946 0.0
H709 H 0.29374 0.68836 0.9459 0.0
H710 H 0.3151 0.68891 0.9001 0.0
H711 H 0.31493 0.70915 0.94792 0.0
C712 C 0.37981 0.67935 0.84045 0.0
C713 C 0.38195 0.70243 0.83629 0.0
C714 C 0.36869 0.67 0.87991 0.0
C715 C 0.35939 0.6835 0.91598 0.0
C716 C 0.36135 0.70655 0.91187 0.0
H717 H 0.29442 0.65115 0.1905 0.0
H718 H 0.31115 0.67043 0.12136 0.0
C719 C 0.37243 0.71594 0.87226 0.0
C720 C 0.34859 0.67328 0.95889 0.0
H721 H 0.29958 0.6693 0.02008 0.0
C722 C 0.36118 0.65909 0.98827 0.0
C723 C 0.32611 0.67708 0.97048 0.0
C724 C 0.31158 0.69155 0.93928 0.0
C725 C 0.35194 0.64862 0.02898 0.0
C726 C 0.3294 0.65217 0.0402 0.0
C727 C 0.31686 0.66661 0.01131 0.0
C728 C 0.31849 0.64059 0.08119 0.0
C729 C 0.36646 0.63403 0.05999 0.0
C730 C 0.31666 0.61748 0.08097 0.0
C731 C 0.30703 0.60643 0.12019 0.0
C732 C 0.29894 0.61828 0.16045 0.0
C733 C 0.30032 0.64152 0.15998 0.0
C734 C 0.30996 0.65256 0.12062 0.0
H735 H 0.38429 0.63751 0.05405 0.0
H736 H 0.36266 0.63624 0.09916 0.0
H737 H 0.36339 0.61647 0.05043 0.0
H738 H 0.32272 0.60796 0.0504 0.0
H739 H 0.30581 0.58858 0.11883 0.0
H740 H 0.41136 0.80878 0.37324 0.0
H741 H 0.39138 0.8247 0.30436 0.0
H742 H 0.33001 0.79944 0.36174 0.0
H743 H 0.35005 0.783 0.43028 0.0
H744 H 0.33216 0.79403 0.26448 0.0
H745 H 0.35485 0.88015 0.31106 0.0
H746 H 0.3786 0.86285 0.30253 0.0
H747 H 0.3598 0.85734 0.35178 0.0
C748 C 0.39359 0.80667 0.37121 0.0
C749 C 0.38222 0.79486 0.40739 0.0
C750 C 0.38219 0.81583 0.33192 0.0
C751 C 0.35912 0.81374 0.32846 0.0
C752 C 0.34779 0.80139 0.3638 0.0
H753 H 0.27999 0.89993 0.14553 0.0
H754 H 0.29644 0.87962 0.21334 0.0
C755 C 0.35924 0.79198 0.40288 0.0
C756 C 0.34683 0.82462 0.28824 0.0
H757 H 0.33842 0.87455 0.2335 0.0
C758 C 0.33341 0.81166 0.25783 0.0
C759 C 0.34815 0.84769 0.28007 0.0
C760 C 0.36093 0.86286 0.31339 0.0
C761 C 0.32162 0.82106 0.21893 0.0
C762 C 0.32377 0.84398 0.20944 0.0
C763 C 0.33691 0.85695 0.24039 0.0
C764 C 0.3124 0.85506 0.16813 0.0
C765 C 0.30666 0.80642 0.18912 0.0
C766 C 0.31573 0.84796 0.12003 0.0
C767 C 0.30608 0.85942 0.08122 0.0
C768 C 0.29333 0.87844 0.08977 0.0
C769 C 0.28987 0.8854 0.13789 0.0
C770 C 0.29925 0.8738 0.17663 0.0
H771 H 0.30158 0.79146 0.20973 0.0
H772 H 0.29157 0.8154 0.1774 0.0
H773 H 0.31567 0.80082 0.15622 0.0
H774 H 0.32629 0.83394 0.11234 0.0
H775 H 0.30925 0.85388 0.04445 0.0
H776 H 0.1321 0.76561 0.37111 0.0
H777 H 0.1522 0.78094 0.4406 0.0
H778 H 0.13559 0.84691 0.39384 0.0
H779 H 0.11621 0.83182 0.32338 0.0
H780 H 0.17923 0.84297 0.42227 0.0
H781 H 0.12292 0.80729 0.56113 0.0
H782 H 0.13491 0.78747 0.52031 0.0
H783 H 0.11608 0.80793 0.49731 0.0
C784 C 0.13293 0.78339 0.37528 0.0
C785 C 0.12237 0.79747 0.3418 0.0
C786 C 0.14422 0.79211 0.41535 0.0
C787 C 0.14505 0.81505 0.42288 0.0
C788 C 0.13501 0.82915 0.38895 0.0
H789 H 0.17114 0.89109 0.68008 0.0
H790 H 0.15575 0.87122 0.61065 0.0
C791 C 0.12377 0.82047 0.34889 0.0
C792 C 0.15628 0.82451 0.46614 0.0
H793 H 0.15422 0.8266 0.59011 0.0
C794 C 0.17385 0.83933 0.45901 0.0
C795 C 0.14904 0.81991 0.51399 0.0
C796 C 0.12958 0.80495 0.52386 0.0
C797 C 0.1843 0.8498 0.49838 0.0
C798 C 0.17723 0.845 0.54626 0.0
C799 C 0.15975 0.83007 0.5534 0.0
C800 C 0.18679 0.85636 0.58923 0.0
C801 C 0.20228 0.86647 0.48827 0.0
C802 C 0.20931 0.85431 0.60084 0.0
C803 C 0.21824 0.86585 0.64037 0.0
C804 C 0.20477 0.87958 0.66913 0.0
C805 C 0.18208 0.88102 0.65816 0.0
C806 C 0.17321 0.86953 0.61869 0.0
H807 H 0.20221 0.87197 0.44975 0.0
H808 H 0.20046 0.88121 0.51197 0.0
H809 H 0.21861 0.85886 0.49592 0.0
H810 H 0.22002 0.8439 0.57913 0.0
H811 H 0.23577 0.86441 0.64768 0.0
H812 H 0.11226 0.72979 0.86554 0.0
H813 H 0.13112 0.71335 0.7957 0.0
H814 H 0.15134 0.65817 0.88436 0.0
H815 H 0.13318 0.67483 0.95479 0.0
H816 H 0.18509 0.67426 0.8251 0.0
H817 H 0.10808 0.65987 0.71976 0.0
H818 H 0.11214 0.68798 0.7388 0.0
H819 H 0.10787 0.66677 0.78356 0.0
C820 C 0.12093 0.71428 0.87037 0.0
C821 C 0.12108 0.70357 0.91577 0.0
C822 C 0.1315 0.70479 0.83025 0.0
C823 C 0.14231 0.68435 0.83464 0.0
C824 C 0.14295 0.67388 0.88009 0.0
H825 H 0.18044 0.59326 0.60767 0.0
H826 H 0.16406 0.61223 0.67731 0.0
C827 C 0.13241 0.68335 0.92022 0.0
C828 C 0.15287 0.67377 0.79188 0.0
H829 H 0.14186 0.65225 0.6797 0.0
C830 C 0.17567 0.66946 0.79325 0.0
C831 C 0.14047 0.66728 0.75066 0.0
C832 C 0.11575 0.6705 0.74806 0.0
C833 C 0.18645 0.65894 0.75437 0.0
C834 C 0.17413 0.65288 0.71273 0.0
C835 C 0.15131 0.65709 0.71149 0.0
C836 C 0.18441 0.64149 0.67064 0.0
C837 C 0.21081 0.65393 0.75871 0.0
C838 C 0.20119 0.65171 0.64348 0.0
C839 C 0.21057 0.64092 0.60349 0.0
C840 C 0.20319 0.61977 0.58965 0.0
C841 C 0.18631 0.60965 0.61689 0.0
C842 C 0.17699 0.62042 0.65686 0.0
H843 H 0.21654 0.65466 0.79704 0.0
H844 H 0.21465 0.6373 0.74383 0.0
H845 H 0.22032 0.66633 0.7376 0.0
H846 H 0.20685 0.66816 0.65284 0.0
H847 H 0.22331 0.6493 0.58287 0.0
H848 H 0.83458 0.11472 0.68639 0.0
H849 H 0.85046 0.13385 0.61645 0.0
H850 H 0.78505 0.14978 0.56507 0.0
H851 H 0.76891 0.13021 0.63443 0.0
H852 H 0.84105 0.1231 0.51518 0.0
H853 H 0.81965 0.20983 0.56368 0.0
H854 H 0.82038 0.18787 0.60815 0.0
H855 H 0.79765 0.18984 0.56648 0.0
C856 C 0.82352 0.12217 0.66016 0.0
C857 C 0.80043 0.1208 0.666 0.0
C858 C 0.83265 0.13323 0.62038 0.0
C859 C 0.81894 0.14336 0.58587 0.0
C860 C 0.79592 0.14235 0.59176 0.0
H861 H 0.85084 0.21581 0.32007 0.0
H862 H 0.83171 0.19888 0.38926 0.0
C863 C 0.78673 0.13119 0.63149 0.0
C864 C 0.82883 0.15409 0.54264 0.0
H865 H 0.83711 0.20409 0.488 0.0
C866 C 0.8402 0.14081 0.50917 0.0
C867 C 0.82749 0.17714 0.53479 0.0
C868 C 0.81578 0.19213 0.57022 0.0
C869 C 0.85031 0.14996 0.46792 0.0
C870 C 0.8495 0.17312 0.46064 0.0
C871 C 0.83779 0.18637 0.49374 0.0
C872 C 0.86114 0.1839 0.41948 0.0
C873 C 0.86145 0.13467 0.43217 0.0
C874 C 0.8841 0.18151 0.41412 0.0
C875 C 0.89503 0.19108 0.37467 0.0
C876 C 0.88327 0.20349 0.34003 0.0
C877 C 0.86037 0.20643 0.34625 0.0
C878 C 0.84941 0.19671 0.38564 0.0
H879 H 0.85495 0.11754 0.43502 0.0
H880 H 0.85917 0.14051 0.39424 0.0
H881 H 0.87943 0.13412 0.44005 0.0
H882 H 0.8936 0.17223 0.44052 0.0
H883 H 0.91274 0.18891 0.37148 0.0
H884 H 0.90885 0.30342 0.867 0.0
H885 H 0.88819 0.31892 0.79847 0.0
H886 H 0.8269 0.3065 0.87359 0.0
H887 H 0.84747 0.29108 0.94262 0.0
H888 H 0.8512 0.29666 0.74271 0.0
H889 H 0.82793 0.37487 0.83663 0.0
H890 H 0.85106 0.35819 0.85611 0.0
H891 H 0.82336 0.34925 0.86839 0.0
C892 C 0.89097 0.30407 0.86903 0.0
C893 C 0.87978 0.29615 0.91032 0.0
C894 C 0.87921 0.3128 0.82977 0.0
C895 C 0.85607 0.31399 0.83124 0.0
C896 C 0.84478 0.30585 0.87202 0.0
H897 H 0.76585 0.3803 0.63054 0.0
H898 H 0.78125 0.35962 0.699 0.0
C899 C 0.85654 0.29693 0.91121 0.0
C900 C 0.84387 0.32398 0.79011 0.0
H901 H 0.81569 0.37035 0.75615 0.0
C902 C 0.84333 0.31273 0.74558 0.0
C903 C 0.83353 0.34484 0.79424 0.0
C904 C 0.834 0.35766 0.84125 0.0
C905 C 0.83275 0.32185 0.70481 0.0
C906 C 0.823 0.34308 0.70842 0.0
C907 C 0.82318 0.35411 0.75335 0.0
C908 C 0.81326 0.35454 0.66571 0.0
C909 C 0.8319 0.30852 0.6585 0.0
C910 C 0.82613 0.35865 0.62426 0.0
C911 C 0.81729 0.37019 0.5848 0.0
C912 C 0.79545 0.37821 0.58615 0.0
C913 C 0.78259 0.37408 0.62782 0.0
C914 C 0.79143 0.3624 0.66719 0.0
H915 H 0.8334 0.29053 0.66595 0.0
H916 H 0.81628 0.31149 0.63832 0.0
H917 H 0.84596 0.31335 0.63488 0.0
H918 H 0.84318 0.35322 0.62265 0.0
H919 H 0.82762 0.37282 0.5532 0.0
H920 H 0.70291 0.3501 0.19889 0.0
H921 H 0.68719 0.32952 0.13027 0.0
H922 H 0.68959 0.38838 0.0421 0.0
H923 H 0.70556 0.40896 0.11012 0.0
H924 H 0.64672 0.34064 0.0797 0.0
H925 H 0.71969 0.34014 0.9573 0.0
H926 H 0.72185 0.34538 0.02177 0.0
H927 H 0.71249 0.36679 0.98149 0.0
C928 C 0.70037 0.35857 0.16467 0.0
C929 C 0.70549 0.38115 0.15991 0.0
C930 C 0.6913 0.34683 0.12563 0.0
C931 C 0.68747 0.35738 0.08101 0.0
C932 C 0.69272 0.37985 0.07602 0.0
H933 H 0.62998 0.32676 0.80293 0.0
H934 H 0.64889 0.34267 0.87311 0.0
C935 C 0.70164 0.39163 0.11506 0.0
C936 C 0.67706 0.34523 0.0402 0.0
H937 H 0.68545 0.32887 0.92292 0.0
C938 C 0.65521 0.33784 0.04553 0.0
C939 C 0.6882 0.34174 0.99571 0.0
C940 C 0.71192 0.34874 0.98863 0.0
C941 C 0.64391 0.32768 0.00693 0.0
C942 C 0.65498 0.32435 0.96218 0.0
C943 C 0.67698 0.33143 0.9572 0.0
C944 C 0.64379 0.31426 0.91954 0.0
C945 C 0.61996 0.3214 0.01388 0.0
C946 C 0.63494 0.29283 0.92199 0.0
C947 C 0.62382 0.28378 0.88207 0.0
C948 C 0.62154 0.29589 0.83867 0.0
C949 C 0.63101 0.31712 0.836 0.0
C950 C 0.64201 0.32618 0.87599 0.0
H951 H 0.61243 0.33019 0.04522 0.0
H952 H 0.61011 0.32512 0.98082 0.0
H953 H 0.61883 0.30338 0.02108 0.0
H954 H 0.63653 0.28313 0.95487 0.0
H955 H 0.61664 0.26746 0.8856 0.0
H956 H 0.67273 0.12715 0.05299 0.0
H957 H 0.65613 0.14591 0.12266 0.0
H958 H 0.71607 0.13638 0.20474 0.0
H959 H 0.73268 0.11701 0.13572 0.0
H960 H 0.65161 0.12629 0.22033 0.0
H961 H 0.70073 0.2041 0.2177 0.0
H962 H 0.69799 0.18652 0.16495 0.0
H963 H 0.71587 0.17854 0.21392 0.0
C964 C 0.68239 0.12889 0.08589 0.0
C965 C 0.70406 0.12045 0.08868 0.0
C966 C 0.67291 0.13977 0.12555 0.0
C967 C 0.68495 0.14268 0.16861 0.0
C968 C 0.70664 0.13459 0.1715 0.0
H969 H 0.65033 0.20376 0.44581 0.0
H970 H 0.66991 0.18665 0.37747 0.0
C971 C 0.71612 0.12357 0.13193 0.0
C972 C 0.67437 0.1533 0.21116 0.0
H973 H 0.67541 0.19957 0.28224 0.0
C974 C 0.65677 0.14232 0.2339 0.0
C975 C 0.68132 0.1741 0.22891 0.0
C976 C 0.69992 0.18667 0.20509 0.0
C977 C 0.64594 0.15154 0.27418 0.0
C978 C 0.65251 0.17262 0.29134 0.0
C979 C 0.67034 0.18347 0.26894 0.0
C980 C 0.64085 0.18375 0.33202 0.0
C981 C 0.62783 0.13841 0.2985 0.0
C982 C 0.61814 0.1883 0.3287 0.0
C983 C 0.60693 0.19799 0.36763 0.0
C984 C 0.61826 0.2036 0.41054 0.0
C985 C 0.64116 0.19972 0.41319 0.0
C986 C 0.65235 0.18989 0.37425 0.0
H987 H 0.62932 0.12047 0.29055 0.0
H988 H 0.6281 0.14076 0.33852 0.0
H989 H 0.61156 0.14406 0.28463 0.0
H990 H 0.60904 0.18429 0.29596 0.0
H991 H 0.58938 0.20117 0.36409 0.0
H992 H 0.33586 0.47508 0.53791 0.0
H993 H 0.36425 0.44791 0.55931 0.0
H994 H 0.38534 0.44535 0.40979 0.0
H995 H 0.35689 0.47224 0.38791 0.0
H996 H 0.36931 0.40476 0.52267 0.0
H997 H 0.44322 0.45634 0.48466 0.0
H998 H 0.41587 0.46792 0.49141 0.0
H999 H 0.4238 0.45488 0.43537 0.0
C1000 C 0.34649 0.46869 0.50953 0.0
C1001 C 0.34414 0.47594 0.46121 0.0
C1002 C 0.36276 0.45325 0.52188 0.0
C1003 C 0.37709 0.44487 0.48627 0.0
C1004 C 0.37477 0.45199 0.43803 0.0
H1005 H 0.45669 0.32578 0.49542 0.0
H1006 H 0.42939 0.3545 0.47768 0.0
C1007 C 0.35851 0.46739 0.42562 0.0
C1008 C 0.39397 0.42811 0.4992 0.0
H1009 H 0.44954 0.41806 0.49886 0.0
C1010 C 0.38686 0.40769 0.51769 0.0
C1011 C 0.41685 0.43207 0.49312 0.0
C1012 C 0.42548 0.45405 0.47548 0.0
C1013 C 0.40202 0.39092 0.52932 0.0
C1014 C 0.42485 0.39462 0.52167 0.0
C1015 C 0.432 0.41521 0.5042 0.0
C1016 C 0.44159 0.37734 0.53193 0.0
C1017 C 0.3935 0.36949 0.55018 0.0
C1018 C 0.45782 0.38088 0.5675 0.0
C1019 C 0.47342 0.36448 0.57782 0.0
C1020 C 0.47318 0.34426 0.55249 0.0
C1021 C 0.4571 0.34097 0.51622 0.0
C1022 C 0.4415 0.35737 0.50599 0.0
H1023 H 0.37648 0.37127 0.56486 0.0
H1024 H 0.39309 0.35677 0.52112 0.0
H1025 H 0.40449 0.36342 0.57963 0.0
H1026 H 0.45819 0.39621 0.58784 0.0
H1027 H 0.48539 0.36749 0.60635 0.0
H1028 H 0.6364 0.98378 0.84916 0.0
H1029 H 0.6083 0.95633 0.82802 0.0
H1030 H 0.65106 0.93 0.71691 0.0
H1031 H 0.67915 0.95761 0.73715 0.0
H1032 H 0.58746 0.94838 0.7354 0.0
H1033 H 0.63487 0.87574 0.80204 0.0
H1034 H 0.6417 0.90376 0.81906 0.0
H1035 H 0.64942 0.89337 0.76031 0.0
C1036 C 0.63977 0.97233 0.81984 0.0
C1037 C 0.6601 0.97287 0.79497 0.0
C1038 C 0.62372 0.95658 0.80802 0.0
C1039 C 0.62775 0.94096 0.77142 0.0
C1040 C 0.64783 0.94164 0.74595 0.0
H1041 H 0.55541 0.82981 0.6526 0.0
H1042 H 0.58257 0.85835 0.67256 0.0
C1043 C 0.66386 0.95742 0.75763 0.0
C1044 C 0.6109 0.924 0.75971 0.0
H1045 H 0.60153 0.86835 0.76005 0.0
C1046 C 0.59046 0.93088 0.74092 0.0
C1047 C 0.61493 0.90122 0.76693 0.0
C1048 C 0.63633 0.893 0.78856 0.0
C1049 C 0.57405 0.91549 0.72816 0.0
C1050 C 0.57805 0.89267 0.73547 0.0
C1051 C 0.59849 0.88584 0.75444 0.0
C1052 C 0.56136 0.87555 0.72335 0.0
C1053 C 0.55283 0.9238 0.70579 0.0
C1054 C 0.5405 0.87558 0.74572 0.0
C1055 C 0.52492 0.85929 0.73432 0.0
C1056 C 0.53003 0.84249 0.70081 0.0
C1057 C 0.55105 0.84237 0.67895 0.0
C1058 C 0.56655 0.85873 0.69015 0.0
H1059 H 0.5548 0.94067 0.69046 0.0
H1060 H 0.54705 0.91257 0.6765 0.0
H1061 H 0.53984 0.92454 0.73419 0.0
H1062 H 0.53633 0.88806 0.77238 0.0
H1063 H 0.509 0.85963 0.75232 0.0
H1064 H 0.03244 0.1697 0.97106 0.0
H1065 H 0.0597 0.14119 0.95113 0.0
H1066 H 0.05202 0.11302 0.0941 0.0
H1067 H 0.0247 0.14137 0.11418 0.0
H1068 H 0.09937 0.13296 0.99544 0.0
H1069 H 0.04541 0.05901 0.00794 0.0
H1070 H 0.0345 0.08676 0.00551 0.0
H1071 H 0.04513 0.07585 0.06164 0.0
C1072 C 0.03653 0.1574 0.99821 0.0
C1073 C 0.02632 0.15772 0.04412 0.0
C1074 C 0.05205 0.14109 0.98672 0.0
C1075 C 0.05764 0.12477 0.02084 0.0
C1076 C 0.04754 0.12509 0.06675 0.0
H1077 H 0.15599 0.01995 0.0277 0.0
H1078 H 0.12711 0.04688 0.04738 0.0
C1079 C 0.03194 0.14133 0.0782 0.0
C1080 C 0.07473 0.10801 0.00908 0.0
H1081 H 0.08407 0.05242 0.00115 0.0
C1082 C 0.09599 0.11536 0.99641 0.0
C1083 C 0.0703 0.08504 0.01051 0.0
C1084 C 0.04755 0.07615 0.02168 0.0
C1085 C 0.11301 0.10036 0.98576 0.0
C1086 C 0.10858 0.07742 0.98735 0.0
C1087 C 0.08739 0.07003 1.00015 0.0
C1088 C 0.12572 0.06086 0.97513 0.0
C1089 C 0.13571 0.10913 0.97368 0.0
C1090 C 0.1342 0.0596 0.92781 0.0
C1091 C 0.15054 0.04414 0.91632 0.0
C1092 C 0.15873 0.0296 0.95197 0.0
C1093 C 0.14993 0.03073 0.99926 0.0
C1094 C 0.13352 0.04617 0.01065 0.0
H1095 H 0.13767 0.12669 0.98469 0.0
H1096 H 0.14873 0.09915 0.9918 0.0
H1097 H 0.13837 0.10804 0.93386 0.0
H1098 H 0.12809 0.07052 0.89966 0.0
H1099 H 0.15658 0.04344 0.87931 0.0
H1100 H 0.95719 0.67815 0.26215 0.0
H1101 H 0.92962 0.64994 0.2818 0.0
H1102 H 0.95946 0.60557 0.17826 0.0
H1103 H 0.9869 0.63377 0.15775 0.0
H1104 H 0.8994 0.62945 0.21608 0.0
H1105 H 0.95518 0.56836 0.30396 0.0
H1106 H 0.963 0.59685 0.29456 0.0
H1107 H 0.9637 0.57764 0.24483 0.0
C1108 C 0.95787 0.66243 0.24338 0.0
C1109 C 0.97431 0.65823 0.2084 0.0
C1110 C 0.94216 0.6463 0.25486 0.0
C1111 C 0.94268 0.6256 0.23192 0.0
C1112 C 0.95905 0.62129 0.19709 0.0
H1113 H 0.85998 0.50817 0.25134 0.0
H1114 H 0.88836 0.5355 0.23069 0.0
C1115 C 0.97475 0.63743 0.18549 0.0
C1116 C 0.92561 0.60881 0.24328 0.0
H1117 H 0.91816 0.55716 0.2906 0.0
C1118 C 0.90346 0.61367 0.23253 0.0
C1119 C 0.93102 0.58821 0.26444 0.0
C1120 C 0.95448 0.58243 0.27805 0.0
C1121 C 0.88655 0.59835 0.24187 0.0
C1122 C 0.89191 0.57781 0.26352 0.0
C1123 C 0.9141 0.57291 0.27402 0.0
C1124 C 0.87471 0.5613 0.27612 0.0
C1125 C 0.86316 0.60412 0.22754 0.0
C1126 C 0.85782 0.56664 0.30905 0.0
C1127 C 0.84161 0.55109 0.32091 0.0
C1128 C 0.84209 0.52979 0.30042 0.0
C1129 C 0.85924 0.52437 0.268 0.0
C1130 C 0.8754 0.53999 0.25603 0.0
H1131 H 0.86274 0.61735 0.19955 0.0
H1132 H 0.85428 0.58942 0.21325 0.0
H1133 H 0.85413 0.61023 0.25996 0.0
H1134 H 0.85728 0.5828 0.32596 0.0
H1135 H 0.8289 0.55564 0.34676 0.0
H1136 H 0.34239 0.04531 0.87042 0.0
H1137 H 0.37117 0.07201 0.84882 0.0
H1138 H 0.37638 0.04276 0.70642 0.0
H1139 H 0.34731 0.01619 0.72742 0.0
H1140 H 0.41578 0.06265 0.81571 0.0
H1141 H 0.36614 0.10993 0.68099 0.0
H1142 H 0.35366 0.09187 0.72546 0.0
H1143 H 0.36686 0.08045 0.6727 0.0
C1144 C 0.34952 0.04468 0.83434 0.0
C1145 C 0.34247 0.02872 0.80051 0.0
C1146 C 0.36604 0.05985 0.8222 0.0
C1147 C 0.3757 0.05948 0.7759 0.0
C1148 C 0.36892 0.04346 0.74216 0.0
H1149 H 0.47199 0.144 0.63363 0.0
H1150 H 0.44527 0.11522 0.65418 0.0
C1151 C 0.35245 0.02819 0.75436 0.0
C1152 C 0.39297 0.07583 0.76314 0.0
H1153 H 0.40365 0.11997 0.68958 0.0
C1154 C 0.41317 0.07522 0.78817 0.0
C1155 C 0.38948 0.09211 0.72712 0.0
C1156 C 0.36782 0.09386 0.70015 0.0
C1157 C 0.43014 0.09033 0.77771 0.0
C1158 C 0.42657 0.10683 0.74206 0.0
C1159 C 0.40637 0.10734 0.71689 0.0
C1160 C 0.44347 0.1238 0.73039 0.0
C1161 C 0.45189 0.08819 0.80421 0.0
C1162 C 0.45128 0.13829 0.76636 0.0
C1163 C 0.46682 0.1546 0.75488 0.0
C1164 C 0.47468 0.15692 0.70702 0.0
C1165 C 0.46666 0.14245 0.67103 0.0
C1166 C 0.45122 0.12609 0.68261 0.0
H1167 H 0.45419 0.0713 0.81922 0.0
H1168 H 0.46602 0.09204 0.77989 0.0
H1169 H 0.45219 0.1 0.83505 0.0
H1170 H 0.44518 0.13716 0.80327 0.0
H1171 H 0.47272 0.16533 0.78358 0.0
H1172 H 0.85998 0.97407 0.88601 0.0
H1173 H 0.88825 0.94676 0.90584 0.0
H1174 H 0.86275 0.94197 0.05176 0.0
H1175 H 0.83505 0.97015 0.03303 0.0
H1176 H 0.90762 0.94359 0.05051 0.0
H1177 H 0.87795 0.88097 0.91864 0.0
H1178 H 0.88429 0.90708 0.89103 0.0
H1179 H 0.86202 0.90517 0.93418 0.0
C1180 C 0.86052 0.96747 0.92257 0.0
C1181 C 0.84513 0.97432 0.95788 0.0
C1182 C 0.87652 0.95159 0.93361 0.0
C1183 C 0.87732 0.94196 0.97997 0.0
C1184 C 0.8623 0.94903 0.0156 0.0
H1185 H 0.9463 0.82112 0.0566 0.0
H1186 H 0.91899 0.84969 0.03787 0.0
C1187 C 0.84636 0.96502 0.00469 0.0
C1188 C 0.89393 0.92466 0.99145 0.0
H1189 H 0.91258 0.87381 0.95641 0.0
C1190 C 0.90868 0.92829 0.03004 0.0
C1191 C 0.89507 0.90457 0.96517 0.0
C1192 C 0.87885 0.89907 0.92527 0.0
C1193 C 0.92473 0.91252 0.04268 0.0
C1194 C 0.92639 0.8928 0.01523 0.0
C1195 C 0.91145 0.88905 0.97706 0.0
C1196 C 0.94314 0.87556 0.02621 0.0
C1197 C 0.9394 0.91695 0.08597 0.0
C1198 C 0.96582 0.88051 0.02516 0.0
C1199 C 0.98147 0.86421 0.03599 0.0
C1200 C 0.97474 0.84257 0.04741 0.0
C1201 C 0.95203 0.83757 0.04747 0.0
C1202 C 0.9364 0.8539 0.03698 0.0
H1203 H 0.93205 0.92947 0.1107 0.0
H1204 H 0.94248 0.90158 0.10696 0.0
H1205 H 0.95554 0.92343 0.07315 0.0
H1206 H 0.97144 0.89695 0.01569 0.0
H1207 H 0.99886 0.86848 0.03493 0.0
H1208 H 0.03568 0.32959 0.27727 0.0
H1209 H 0.06344 0.35754 0.29755 0.0
H1210 H 0.0501 0.39132 0.16285 0.0
H1211 H 0.02279 0.36317 0.14143 0.0
H1212 H 0.10203 0.36946 0.23539 0.0
H1213 H 0.04498 0.43953 0.27334 0.0
H1214 H 0.03612 0.41101 0.27549 0.0
H1215 H 0.04032 0.42436 0.21802 0.0
C1216 C 0.03871 0.34287 0.25175 0.0
C1217 C 0.02693 0.3441 0.20769 0.0
C1218 C 0.05449 0.35889 0.26358 0.0
C1219 C 0.05862 0.37656 0.2319 0.0
C1220 C 0.04687 0.37797 0.1881 0.0
H1221 H 0.14576 0.4907 0.24107 0.0
H1222 H 0.1175 0.46319 0.22065 0.0
C1223 C 0.03119 0.3619 0.17606 0.0
C1224 C 0.07577 0.39312 0.24387 0.0
H1225 H 0.08324 0.44738 0.27368 0.0
C1226 C 0.09798 0.38649 0.24395 0.0
C1227 C 0.07035 0.41531 0.25456 0.0
C1228 C 0.04665 0.42308 0.25576 0.0
C1229 C 0.11504 0.40159 0.25381 0.0
C1230 C 0.10963 0.42377 0.26523 0.0
C1231 C 0.08736 0.43038 0.26501 0.0
C1232 C 0.12681 0.44037 0.27767 0.0
C1233 C 0.13868 0.39373 0.25064 0.0
C1234 C 0.14121 0.43683 0.31691 0.0
C1235 C 0.15743 0.45243 0.32842 0.0
C1236 C 0.15934 0.47206 0.30138 0.0
C1237 C 0.14461 0.47578 0.26269 0.0
C1238 C 0.12851 0.46007 0.25093 0.0
H1239 H 0.14017 0.37866 0.22778 0.0
H1240 H 0.1496 0.40675 0.23538 0.0
H1241 H 0.14468 0.38953 0.28761 0.0
H1242 H 0.1398 0.42207 0.33895 0.0
H1243 H 0.16826 0.4493 0.35902 0.0
H1244 H 0.53306 0.64729 0.62087 0.0
H1245 H 0.56005 0.61862 0.60067 0.0
H1246 H 0.55007 0.63131 0.44805 0.0
H1247 H 0.52301 0.66001 0.46792 0.0
H1248 H 0.55537 0.58022 0.54568 0.0
H1249 H 0.61706 0.63683 0.463 0.0
H1250 H 0.59418 0.64667 0.49909 0.0
H1251 H 0.58994 0.63874 0.43681 0.0
C1252 C 0.53646 0.64386 0.58298 0.0
C1253 C 0.52595 0.656 0.54598 0.0
C1254 C 0.55196 0.62754 0.57152 0.0
C1255 C 0.55733 0.62309 0.52291 0.0
C1256 C 0.54655 0.63484 0.48585 0.0
H1257 H 0.64756 0.53264 0.38035 0.0
H1258 H 0.61873 0.55945 0.40041 0.0
C1259 C 0.53109 0.65122 0.49726 0.0
C1260 C 0.57413 0.60606 0.51108 0.0
H1261 H 0.624 0.59841 0.45541 0.0
C1262 C 0.57042 0.58419 0.5261 0.0
C1263 C 0.59376 0.61131 0.48561 0.0
C1264 C 0.59914 0.63469 0.47054 0.0
C1265 C 0.58565 0.56733 0.51555 0.0
C1266 C 0.60522 0.57258 0.48992 0.0
C1267 C 0.60893 0.59444 0.47494 0.0
C1268 C 0.62212 0.55566 0.47821 0.0
C1269 C 0.58047 0.54397 0.53104 0.0
C1270 C 0.63366 0.54471 0.51534 0.0
C1271 C 0.65009 0.52928 0.50401 0.0
C1272 C 0.65533 0.52457 0.45528 0.0
C1273 C 0.6437 0.5356 0.41822 0.0
C1274 C 0.62732 0.55104 0.4296 0.0
H1275 H 0.56265 0.5418 0.53957 0.0
H1276 H 0.58516 0.53199 0.50226 0.0
H1277 H 0.5901 0.53996 0.56421 0.0
H1278 H 0.63015 0.54831 0.55311 0.0
H1279 H 0.65865 0.521 0.53339 0.0
loop_
_geom_bond_atom_site_label_1
_geom_bond_atom_site_label_2
_geom_bond_distance
_geom_bond_site_symmetry_2
_ccdc_geom_bond_type
Li0 N17 1.990 . S
Li0 O60 1.956 . S
Li0 O61 1.970 . S
Li0 O62 1.961 . S
Li1 N25 1.990 . S
Li1 O60 1.970 . S
Li1 O61 1.956 . S
Li1 O63 1.961 . S
Li2 N47 1.990 . S
Li2 O60 1.961 . S
Li2 O62 1.956 . S
Li2 O63 1.970 . S
Li3 N53 1.990 . S
Li3 O61 1.961 . S
Li3 O62 1.970 . S
Li3 O63 1.956 . S
C4 C6 1.348 . S
C4 C7 1.356 . S
C4 O60 1.325 . S
N5 C8 1.314 . S
N5 C9 1.279 . S
C6 C4 1.348 . S
C6 C8 1.353 . S
C6 H64 0.929 . S
C7 C4 1.356 . S
C7 C9 1.358 . S
C7 H65 0.930 . S
C8 N5 1.314 . S
C8 C6 1.353 . S
C8 H66 0.930 . S
C9 N5 1.279 . S
C9 C7 1.358 . S
C9 H67 0.930 . S
C10 C13 1.348 . S
C10 C14 1.356 . S
C10 O61 1.325 . S
C11 N12 1.279 . S
C11 C14 1.358 . S
C11 H68 0.930 . S
N12 C11 1.279 . S
N12 C15 1.314 . S
C13 C10 1.348 . S
C13 C15 1.353 . S
C13 H69 0.929 . S
C14 C10 1.356 . S
C14 C11 1.358 . S
C14 H70 0.930 . S
C15 N12 1.314 . S
C15 C13 1.353 . S
C15 H71 0.930 . S
C16 N17 1.314 . S
C16 C21 1.353 . S
C16 H22 0.930 . S
N17 Li0 1.990 . S
N17 C16 1.314 . S
N17 C19 1.279 . S
C18 C19 1.358 . S
C18 C20 1.356 . S
C18 H72 0.930 . S
C19 N17 1.279 . S
C19 C18 1.358 . S
C19 H23 0.930 . S
C20 C18 1.356 . S
C20 C21 1.348 . S
C21 C16 1.353 . S
C21 C20 1.348 . S
C21 H73 0.929 . S
H22 C16 0.930 . S
H23 C19 0.930 . S
C24 N25 1.314 . S
C24 C26 1.353 . S
C24 H30 0.930 . S
N25 Li1 1.990 . S
N25 C24 1.314 . S
N25 C28 1.279 . S
C26 C24 1.353 . S
C26 C29 1.348 . S
C26 H74 0.929 . S
C27 C28 1.358 . S
C27 C29 1.356 . S
C27 H75 0.930 . S
C28 N25 1.279 . S
C28 C27 1.358 . S
C28 H31 0.930 . S
C29 C26 1.348 . S
C29 C27 1.356 . S
H30 C24 0.930 . S
H31 C28 0.930 . S
C32 C34 1.348 . S
C32 C35 1.356 . S
C32 O62 1.325 . S
N33 C36 1.314 . S
N33 C37 1.279 . S
C34 C32 1.348 . S
C34 C36 1.353 . S
C34 H76 0.929 . S
C35 C32 1.356 . S
C35 C37 1.358 . S
C35 H77 0.930 . S
C36 N33 1.314 . S
C36 C34 1.353 . S
C36 H78 0.930 . S
C37 N33 1.279 . S
C37 C35 1.358 . S
C37 H79 0.930 . S
C38 C39 1.348 . S
C38 C40 1.356 . S
C38 O63 1.325 . S
C39 C38 1.348 . S
C39 C41 1.353 . S
C39 H80 0.929 . S
C40 C38 1.356 . S
C40 C42 1.358 . S
C40 H81 0.930 . S
C41 C39 1.353 . S
C41 N43 1.314 . S
C41 H82 0.930 . S
C42 C40 1.358 . S
C42 N43 1.279 . S
C42 H83 0.930 . S
N43 C41 1.314 . S
N43 C42 1.279 . S
C44 C46 1.353 . S
C44 N47 1.314 . S
C44 H50 0.930 . S
C45 N47 1.279 . S
C45 C48 1.358 . S
C45 H51 0.930 . S
C46 C44 1.353 . S
C46 C49 1.348 . S
C46 H84 0.929 . S
N47 Li2 1.990 . S
N47 C44 1.314 . S
N47 C45 1.279 . S
C48 C45 1.358 . S
C48 C49 1.356 . S
C48 H85 0.930 . S
C49 C46 1.348 . S
C49 C48 1.356 . S
H50 C44 0.930 . S
H51 C45 0.930 . S
C52 N53 1.314 . S
C52 C54 1.353 . S
C52 H58 0.930 . S
N53 Li3 1.990 . S
N53 C52 1.314 . S
N53 C56 1.279 . S
C54 C52 1.353 . S
C54 C57 1.348 . S
C54 H86 0.929 . S
C55 C56 1.358 . S
C55 C57 1.356 . S
C55 H87 0.930 . S
C56 N53 1.279 . S
C56 C55 1.358 . S
C56 H59 0.930 . S
C57 C54 1.348 . S
C57 C55 1.356 . S
H58 C52 0.930 . S
H59 C56 0.930 . S
O60 Li0 1.956 . S
O60 Li1 1.970 . S
O60 Li2 1.961 . S
O60 C4 1.325 . S
O61 Li0 1.970 . S
O61 Li1 1.956 . S
O61 Li3 1.961 . S
O61 C10 1.325 . S
O62 Li0 1.961 . S
O62 Li2 1.956 . S
O62 Li3 1.970 . S
O62 C32 1.325 . S
O63 Li1 1.961 . S
O63 Li2 1.970 . S
O63 Li3 1.956 . S
O63 C38 1.325 . S
H64 C6 0.929 . S
H65 C7 0.930 . S
H66 C8 0.930 . S
H67 C9 0.930 . S
H68 C11 0.930 . S
H69 C13 0.929 . S
H70 C14 0.930 . S
H71 C15 0.930 . S
H72 C18 0.930 . S
H73 C21 0.929 . S
H74 C26 0.929 . S
H75 C27 0.930 . S
H76 C34 0.929 . S
H77 C35 0.930 . S
H78 C36 0.930 . S
H79 C37 0.930 . S
H80 C39 0.929 . S
H81 C40 0.930 . S
H82 C41 0.930 . S
H83 C42 0.930 . S
H84 C46 0.929 . S
H85 C48 0.930 . S
H86 C54 0.929 . S
H87 C55 0.930 . S
Li88 N105 1.990 . S
Li88 O148 1.956 . S
Li88 O149 1.970 . S
Li88 O150 1.961 . S
Li89 N113 1.990 . S
Li89 O148 1.970 . S
Li89 O149 1.956 . S
Li89 O151 1.961 . S
Li90 N135 1.990 . S
Li90 O148 1.961 . S
Li90 O150 1.956 . S
Li90 O151 1.970 . S
Li91 N141 1.990 . S
Li91 O149 1.961 . S
Li91 O150 1.970 . S
Li91 O151 1.956 . S
C92 C94 1.348 . S
C92 C95 1.356 . S
C92 O148 1.325 . S
N93 C96 1.314 . S
N93 C97 1.279 . S
C94 C92 1.348 . S
C94 C96 1.353 . S
C94 H152 0.929 . S
C95 C92 1.356 . S
C95 C97 1.358 . S
C95 H153 0.930 . S
C96 N93 1.314 . S
C96 C94 1.353 . S
C96 H154 0.930 . S
C97 N93 1.279 . S
C97 C95 1.358 . S
C97 H155 0.930 . S
C98 C101 1.348 . S
C98 C102 1.356 . S
C98 O149 1.325 . S
C99 N100 1.279 . S
C99 C102 1.358 . S
C99 H156 0.930 . S
N100 C99 1.279 . S
N100 C103 1.314 . S
C101 C98 1.348 . S
C101 C103 1.353 . S
C101 H157 0.929 . S
C102 C98 1.356 . S
C102 C99 1.358 . S
C102 H158 0.930 . S
C103 N100 1.314 . S
C103 C101 1.353 . S
C103 H159 0.930 . S
C104 N105 1.314 . S
C104 C109 1.353 . S
C104 H110 0.930 . S
N105 Li88 1.990 . S
N105 C104 1.314 . S
N105 C107 1.279 . S
C106 C107 1.358 . S
C106 C108 1.356 . S
C106 H160 0.930 . S
C107 N105 1.279 . S
C107 C106 1.358 . S
C107 H111 0.930 . S
C108 C106 1.356 . S
C108 C109 1.348 . S
C109 C104 1.353 . S
C109 C108 1.348 . S
C109 H161 0.929 . S
H110 C104 0.930 . S
H111 C107 0.930 . S
C112 N113 1.314 . S
C112 C114 1.353 . S
C112 H118 0.930 . S
N113 Li89 1.990 . S
N113 C112 1.314 . S
N113 C116 1.279 . S
C114 C112 1.353 . S
C114 C117 1.348 . S
C114 H162 0.929 . S
C115 C116 1.358 . S
C115 C117 1.356 . S
C115 H163 0.930 . S
C116 N113 1.279 . S
C116 C115 1.358 . S
C116 H119 0.930 . S
C117 C114 1.348 . S
C117 C115 1.356 . S
H118 C112 0.930 . S
H119 C116 0.930 . S
C120 C122 1.348 . S
C120 C123 1.356 . S
C120 O150 1.325 . S
N121 C124 1.314 . S
N121 C125 1.279 . S
C122 C120 1.348 . S
C122 C124 1.353 . S
C122 H164 0.929 . S
C123 C120 1.356 . S
C123 C125 1.358 . S
C123 H165 0.930 . S
C124 N121 1.314 . S
C124 C122 1.353 . S
C124 H166 0.930 . S
C125 N121 1.279 . S
C125 C123 1.358 . S
C125 H167 0.930 . S
C126 C127 1.348 . S
C126 C128 1.356 . S
C126 O151 1.325 . S
C127 C126 1.348 . S
C127 C129 1.353 . S
C127 H168 0.929 . S
C128 C126 1.356 . S
C128 C130 1.358 . S
C128 H169 0.930 . S
C129 C127 1.353 . S
C129 N131 1.314 . S
C129 H170 0.930 . S
C130 C128 1.358 . S
C130 N131 1.279 . S
C130 H171 0.930 . S
N131 C129 1.314 . S
N131 C130 1.279 . S
C132 C134 1.353 . S
C132 N135 1.314 . S
C132 H138 0.930 . S
C133 N135 1.279 . S
C133 C136 1.358 . S
C133 H139 0.930 . S
C134 C132 1.353 . S
C134 C137 1.348 . S
C134 H172 0.929 . S
N135 Li90 1.990 . S
N135 C132 1.314 . S
N135 C133 1.279 . S
C136 C133 1.358 . S
C136 C137 1.356 . S
C136 H173 0.930 . S
C137 C134 1.348 . S
C137 C136 1.356 . S
H138 C132 0.930 . S
H139 C133 0.930 . S
C140 N141 1.314 . S
C140 C142 1.353 . S
C140 H146 0.930 . S
N141 Li91 1.990 . S
N141 C140 1.314 . S
N141 C144 1.279 . S
C142 C140 1.353 . S
C142 C145 1.348 . S
C142 H174 0.929 . S
C143 C144 1.358 . S
C143 C145 1.356 . S
C143 H175 0.930 . S
C144 N141 1.279 . S
C144 C143 1.358 . S
C144 H147 0.930 . S
C145 C142 1.348 . S
C145 C143 1.356 . S
H146 C140 0.930 . S
H147 C144 0.930 . S
O148 Li88 1.956 . S
O148 Li89 1.970 . S
O148 Li90 1.961 . S
O148 C92 1.325 . S
O149 Li88 1.970 . S
O149 Li89 1.956 . S
O149 Li91 1.961 . S
O149 C98 1.325 . S
O150 Li88 1.961 . S
O150 Li90 1.956 . S
O150 Li91 1.970 . S
O150 C120 1.325 . S
O151 Li89 1.961 . S
O151 Li90 1.970 . S
O151 Li91 1.956 . S
O151 C126 1.325 . S
H152 C94 0.929 . S
H153 C95 0.930 . S
H154 C96 0.930 . S
H155 C97 0.930 . S
H156 C99 0.930 . S
H157 C101 0.929 . S
H158 C102 0.930 . S
H159 C103 0.930 . S
H160 C106 0.930 . S
H161 C109 0.929 . S
H162 C114 0.929 . S
H163 C115 0.930 . S
H164 C122 0.929 . S
H165 C123 0.930 . S
H166 C124 0.930 . S
H167 C125 0.930 . S
H168 C127 0.929 . S
H169 C128 0.930 . S
H170 C129 0.930 . S
H171 C130 0.930 . S
H172 C134 0.929 . S
H173 C136 0.930 . S
H174 C142 0.929 . S
H175 C143 0.930 . S
Li176 N193 1.990 . S
Li176 O236 1.956 . S
Li176 O237 1.970 . S
Li176 O238 1.961 . S
Li177 N201 1.990 . S
Li177 O236 1.970 . S
Li177 O237 1.956 . S
Li177 O239 1.961 . S
Li178 N223 1.990 . S
Li178 O236 1.961 . S
Li178 O238 1.956 . S
Li178 O239 1.970 . S
Li179 N229 1.990 . S
Li179 O237 1.961 . S
Li179 O238 1.970 . S
Li179 O239 1.956 . S
C180 C182 1.348 . S
C180 C183 1.356 . S
C180 O236 1.325 . S
N181 C184 1.314 . S
N181 C185 1.279 . S
C182 C180 1.348 . S
C182 C184 1.353 . S
C182 H240 0.929 . S
C183 C180 1.356 . S
C183 C185 1.358 . S
C183 H241 0.930 . S
C184 N181 1.314 . S
C184 C182 1.353 . S
C184 H242 0.930 . S
C185 N181 1.279 . S
C185 C183 1.358 . S
C185 H243 0.930 . S
C186 C189 1.348 . S
C186 C190 1.349 1_556 S
C186 O237 1.325 . S
C187 N188 1.281 . S
C187 C190 1.364 . S
C187 H244 0.930 . S
N188 C187 1.281 . S
N188 C191 1.315 1_554 S
C189 C186 1.348 . S
C189 C191 1.353 . S
C189 H245 0.929 . S
C190 C186 1.349 1_554 S
C190 C187 1.364 . S
C190 H246 0.931 . S
C191 N188 1.315 1_556 S
C191 C189 1.353 . S
C191 H247 0.930 1_565 S
C192 N193 1.332 . S
C192 C197 1.341 1_565 S
C192 H198 0.923 1_565 S
N193 Li176 1.990 . S
N193 C192 1.332 . S
N193 C195 1.279 . S
C194 C195 1.358 . S
C194 C196 1.356 1_565 S
C194 H248 0.930 . S
C195 N193 1.279 . S
C195 C194 1.358 . S
C195 H199 0.930 . S
C196 C194 1.356 1_545 S
C196 C197 1.348 . S
C197 C192 1.341 1_545 S
C197 C196 1.348 . S
C197 H249 0.929 . S
H198 C192 0.923 1_545 S
H199 C195 0.930 . S
C200 N201 1.314 . S
C200 C202 1.353 1_556 S
C200 H206 0.930 . S
N201 Li177 1.990 . S
N201 C200 1.314 . S
N201 C204 1.279 1_556 S
C202 C200 1.353 1_554 S
C202 C205 1.348 . S
C202 H250 0.929 . S
C203 C204 1.358 . S
C203 C205 1.356 . S
C203 H251 0.930 . S
C204 N201 1.279 1_554 S
C204 C203 1.358 . S
C204 H207 0.930 . S
C205 C202 1.348 . S
C205 C203 1.356 . S
H206 C200 0.930 . S
H207 C204 0.930 . S
C208 C210 1.348 . S
C208 C211 1.356 . S
C208 O238 1.325 . S
N209 C212 1.315 . S
N209 C213 1.281 . S
C210 C208 1.348 . S
C210 C212 1.353 . S
C210 H252 0.929 . S
C211 C208 1.356 . S
C211 C213 1.358 . S
C211 H253 0.930 . S
C212 N209 1.315 . S
C212 C210 1.353 . S
C212 H254 0.930 1_565 S
C213 N209 1.281 . S
C213 C211 1.358 . S
C213 H255 0.930 . S
C214 C215 1.348 . S
C214 C216 1.356 . S
C214 O239 1.325 . S
C215 C214 1.348 . S
C215 C217 1.353 . S
C215 H256 0.929 . S
C216 C214 1.356 . S
C216 C218 1.358 . S
C216 H257 0.930 . S
C217 C215 1.353 . S
C217 N219 1.314 . S
C217 H258 0.930 . S
C218 C216 1.358 . S
C218 N219 1.279 . S
C218 H259 0.930 1_556 S
N219 C217 1.314 . S
N219 C218 1.279 . S
C220 C222 1.353 . S
C220 N223 1.314 . S
C220 H226 0.930 . S
C221 N223 1.279 . S
C221 C224 1.358 . S
C221 H227 0.930 . S
C222 C220 1.353 . S
C222 C225 1.348 . S
C222 H260 0.929 . S
N223 Li178 1.990 . S
N223 C220 1.314 . S
N223 C221 1.279 . S
C224 C221 1.358 . S
C224 C225 1.356 . S
C224 H261 0.930 . S
C225 C222 1.348 . S
C225 C224 1.356 . S
H226 C220 0.930 . S
H227 C221 0.930 . S
C228 N229 1.332 . S
C228 C230 1.341 1_565 S
C228 H234 0.923 1_565 S
N229 Li179 1.990 . S
N229 C228 1.332 . S
N229 C232 1.279 . S
C230 C228 1.341 1_545 S
C230 C233 1.348 . S
C230 H262 0.929 . S
C231 C232 1.358 . S
C231 C233 1.356 1_565 S
C231 H263 0.930 . S
C232 N229 1.279 . S
C232 C231 1.358 . S
C232 H235 0.930 . S
C233 C230 1.348 . S
C233 C231 1.356 1_545 S
H234 C228 0.923 1_545 S
H235 C232 0.930 . S
O236 Li176 1.956 . S
O236 Li177 1.970 . S
O236 Li178 1.961 . S
O236 C180 1.325 . S
O237 Li176 1.970 . S
O237 Li177 1.956 . S
O237 Li179 1.961 . S
O237 C186 1.325 . S
O238 Li176 1.961 . S
O238 Li178 1.956 . S
O238 Li179 1.970 . S
O238 C208 1.325 . S
O239 Li177 1.961 . S
O239 Li178 1.970 . S
O239 Li179 1.956 . S
O239 C214 1.325 . S
H240 C182 0.929 . S
H241 C183 0.930 . S
H242 C184 0.930 . S
H243 C185 0.930 . S
H244 C187 0.930 . S
H245 C189 0.929 . S
H246 C190 0.931 . S
H247 C191 0.930 1_545 S
H248 C194 0.930 . S
H249 C197 0.929 . S
H250 C202 0.929 . S
H251 C203 0.930 . S
H252 C210 0.929 . S
H253 C211 0.930 . S
H254 C212 0.930 1_545 S
H255 C213 0.930 . S
H256 C215 0.929 . S
H257 C216 0.930 . S
H258 C217 0.930 . S
H259 C218 0.930 1_554 S
H260 C222 0.929 . S
H261 C224 0.930 . S
H262 C230 0.929 . S
H263 C231 0.930 . S
Li264 N281 1.990 . S
Li264 O324 1.956 . S
Li264 O325 1.970 . S
Li264 O326 1.961 . S
Li265 N289 1.990 . S
Li265 O324 1.970 . S
Li265 O325 1.956 . S
Li265 O327 1.961 . S
Li266 N311 1.990 . S
Li266 O324 1.961 . S
Li266 O326 1.956 . S
Li266 O327 1.970 . S
Li267 N317 1.990 . S
Li267 O325 1.961 . S
Li267 O326 1.970 . S
Li267 O327 1.956 . S
C268 C270 1.348 . S
C268 C271 1.356 . S
C268 O324 1.325 . S
N269 C272 1.314 . S
N269 C273 1.279 . S
C270 C268 1.348 . S
C270 C272 1.353 . S
C270 H328 0.929 . S
C271 C268 1.356 . S
C271 C273 1.358 . S
C271 H329 0.930 . S
C272 N269 1.314 . S
C272 C270 1.353 . S
C272 H330 0.930 . S
C273 N269 1.279 . S
C273 C271 1.358 . S
C273 H331 0.930 1_554 S
C274 C277 1.348 . S
C274 C278 1.356 . S
C274 O325 1.325 . S
C275 N276 1.281 . S
C275 C278 1.358 . S
C275 H332 0.930 . S
N276 C275 1.281 . S
N276 C279 1.315 . S
C277 C274 1.348 . S
C277 C279 1.353 . S
C277 H333 0.929 . S
C278 C274 1.356 . S
C278 C275 1.358 . S
C278 H334 0.930 . S
C279 N276 1.315 . S
C279 C277 1.353 . S
C279 H335 0.930 1_455 S
C280 N281 1.332 . S
C280 C285 1.341 1_455 S
C280 H286 0.923 1_455 S
N281 Li264 1.990 . S
N281 C280 1.332 . S
N281 C283 1.279 . S
C282 C283 1.358 . S
C282 C284 1.356 1_455 S
C282 H336 0.930 . S
C283 N281 1.279 . S
C283 C282 1.358 . S
C283 H287 0.930 . S
C284 C282 1.356 1_655 S
C284 C285 1.348 . S
C285 C280 1.341 1_655 S
C285 C284 1.348 . S
C285 H337 0.929 . S
H286 C280 0.923 1_655 S
H287 C283 0.930 . S
C288 N289 1.314 . S
C288 C290 1.353 . S
C288 H294 0.930 . S
N289 Li265 1.990 . S
N289 C288 1.314 . S
N289 C292 1.279 . S
C290 C288 1.353 . S
C290 C293 1.348 . S
C290 H338 0.929 . S
C291 C292 1.358 . S
C291 C293 1.356 . S
C291 H339 0.930 . S
C292 N289 1.279 . S
C292 C291 1.358 . S
C292 H295 0.930 . S
C293 C290 1.348 . S
C293 C291 1.356 . S
H294 C288 0.930 . S
H295 C292 0.930 . S
C296 C298 1.348 . S
C296 C299 1.349 1_554 S
C296 O326 1.325 . S
N297 C300 1.315 1_556 S
N297 C301 1.281 . S
C298 C296 1.348 . S
C298 C300 1.353 . S
C298 H340 0.929 . S
C299 C296 1.349 1_556 S
C299 C301 1.364 . S
C299 H341 0.931 . S
C300 N297 1.315 1_554 S
C300 C298 1.353 . S
C300 H342 0.930 1_455 S
C301 N297 1.281 . S
C301 C299 1.364 . S
C301 H343 0.930 . S
C302 C303 1.348 . S
C302 C304 1.356 . S
C302 O327 1.325 . S
C303 C302 1.348 . S
C303 C305 1.353 . S
C303 H344 0.929 . S
C304 C302 1.356 . S
C304 C306 1.358 . S
C304 H345 0.930 . S
C305 C303 1.353 . S
C305 N307 1.314 . S
C305 H346 0.930 . S
C306 C304 1.358 . S
C306 N307 1.279 . S
C306 H347 0.930 . S
N307 C305 1.314 . S
N307 C306 1.279 . S
C308 C310 1.353 1_554 S
C308 N311 1.314 . S
C308 H314 0.930 . S
C309 N311 1.279 1_556 S
C309 C312 1.358 . S
C309 H315 0.930 . S
C310 C308 1.353 1_556 S
C310 C313 1.348 . S
C310 H348 0.929 . S
N311 Li266 1.990 . S
N311 C308 1.314 . S
N311 C309 1.279 1_554 S
C312 C309 1.358 . S
C312 C313 1.356 . S
C312 H349 0.930 . S
C313 C310 1.348 . S
C313 C312 1.356 . S
H314 C308 0.930 . S
H315 C309 0.930 . S
C316 N317 1.332 . S
C316 C318 1.341 1_455 S
C316 H322 0.923 1_455 S
N317 Li267 1.990 . S
N317 C316 1.332 . S
N317 C320 1.279 . S
C318 C316 1.341 1_655 S
C318 C321 1.348 . S
C318 H350 0.929 . S
C319 C320 1.358 . S
C319 C321 1.356 1_455 S
C319 H351 0.930 . S
C320 N317 1.279 . S
C320 C319 1.358 . S
C320 H323 0.930 . S
C321 C318 1.348 . S
C321 C319 1.356 1_655 S
H322 C316 0.923 1_655 S
H323 C320 0.930 . S
O324 Li264 1.956 . S
O324 Li265 1.970 . S
O324 Li266 1.961 . S
O324 C268 1.325 . S
O325 Li264 1.970 . S
O325 Li265 1.956 . S
O325 Li267 1.961 . S
O325 C274 1.325 . S
O326 Li264 1.961 . S
O326 Li266 1.956 . S
O326 Li267 1.970 . S
O326 C296 1.325 . S
O327 Li265 1.961 . S
O327 Li266 1.970 . S
O327 Li267 1.956 . S
O327 C302 1.325 . S
H328 C270 0.929 . S
H329 C271 0.930 . S
H330 C272 0.930 . S
H331 C273 0.930 1_556 S
H332 C275 0.930 . S
H333 C277 0.929 . S
H334 C278 0.930 . S
H335 C279 0.930 1_655 S
H336 C282 0.930 . S
H337 C285 0.929 . S
H338 C290 0.929 . S
H339 C291 0.930 . S
H340 C298 0.929 . S
H341 C299 0.931 . S
H342 C300 0.930 1_655 S
H343 C301 0.930 . S
H344 C303 0.929 . S
H345 C304 0.930 . S
H346 C305 0.930 . S
H347 C306 0.930 . S
H348 C310 0.929 . S
H349 C312 0.930 . S
H350 C318 0.929 . S
H351 C319 0.930 . S
Li352 N369 1.990 . S
Li352 O412 1.956 . S
Li352 O413 1.970 . S
Li352 O414 1.961 . S
Li353 N377 1.990 . S
Li353 O412 1.970 . S
Li353 O413 1.956 . S
Li353 O415 1.961 . S
Li354 N399 1.990 . S
Li354 O412 1.961 . S
Li354 O414 1.956 . S
Li354 O415 1.970 . S
Li355 N405 1.990 . S
Li355 O413 1.961 . S
Li355 O414 1.970 . S
Li355 O415 1.956 . S
C356 C358 1.348 . S
C356 C359 1.349 1_556 S
C356 O412 1.325 . S
N357 C360 1.315 1_554 S
N357 C361 1.281 . S
C358 C356 1.348 . S
C358 C360 1.353 . S
C358 H416 0.929 . S
C359 C356 1.349 1_554 S
C359 C361 1.364 . S
C359 H417 0.931 . S
C360 N357 1.315 1_556 S
C360 C358 1.353 . S
C360 H418 0.930 1_545 S
C361 N357 1.281 . S
C361 C359 1.364 . S
C361 H419 0.930 . S
C362 C365 1.348 . S
C362 C366 1.356 . S
C362 O413 1.325 . S
C363 N364 1.279 . S
C363 C366 1.358 . S
C363 H420 0.930 . S
N364 C363 1.279 . S
N364 C367 1.314 . S
C365 C362 1.348 . S
C365 C367 1.353 . S
C365 H421 0.929 . S
C366 C362 1.356 . S
C366 C363 1.358 . S
C366 H422 0.930 . S
C367 N364 1.314 . S
C367 C365 1.353 . S
C367 H423 0.930 . S
C368 N369 1.314 . S
C368 C373 1.353 1_556 S
C368 H374 0.930 . S
N369 Li352 1.990 . S
N369 C368 1.314 . S
N369 C371 1.279 1_556 S
C370 C371 1.358 . S
C370 C372 1.356 . S
C370 H424 0.930 . S
C371 N369 1.279 1_554 S
C371 C370 1.358 . S
C371 H375 0.930 . S
C372 C370 1.356 . S
C372 C373 1.348 . S
C373 C368 1.353 1_554 S
C373 C372 1.348 . S
C373 H425 0.929 . S
H374 C368 0.930 . S
H375 C371 0.930 . S
C376 N377 1.332 . S
C376 C378 1.341 1_545 S
C376 H382 0.923 1_545 S
N377 Li353 1.990 . S
N377 C376 1.332 . S
N377 C380 1.279 . S
C378 C376 1.341 1_565 S
C378 C381 1.348 . S
C378 H426 0.929 . S
C379 C380 1.358 . S
C379 C381 1.356 1_545 S
C379 H427 0.930 . S
C380 N377 1.279 . S
C380 C379 1.358 . S
C380 H383 0.930 . S
C381 C378 1.348 . S
C381 C379 1.356 1_565 S
H382 C376 0.923 1_565 S
H383 C380 0.930 . S
C384 C386 1.348 . S
C384 C387 1.356 . S
C384 O414 1.325 . S
N385 C388 1.314 . S
N385 C389 1.279 . S
C386 C384 1.348 . S
C386 C388 1.353 . S
C386 H428 0.929 . S
C387 C384 1.356 . S
C387 C389 1.358 . S
C387 H429 0.930 . S
C388 N385 1.314 . S
C388 C386 1.353 . S
C388 H430 0.930 . S
C389 N385 1.279 . S
C389 C387 1.358 . S
C389 H431 0.930 1_556 S
C390 C391 1.348 . S
C390 C392 1.356 . S
C390 O415 1.325 . S
C391 C390 1.348 . S
C391 C393 1.353 . S
C391 H432 0.929 . S
C392 C390 1.356 . S
C392 C394 1.358 . S
C392 H433 0.930 . S
C393 C391 1.353 . S
C393 N395 1.315 . S
C393 H434 0.930 1_545 S
C394 C392 1.358 . S
C394 N395 1.281 . S
C394 H435 0.930 . S
N395 C393 1.315 . S
N395 C394 1.281 . S
C396 C398 1.341 1_545 S
C396 N399 1.332 . S
C396 H402 0.923 1_545 S
C397 N399 1.279 . S
C397 C400 1.358 . S
C397 H403 0.930 . S
C398 C396 1.341 1_565 S
C398 C401 1.348 . S
C398 H436 0.929 . S
N399 Li354 1.990 . S
N399 C396 1.332 . S
N399 C397 1.279 . S
C400 C397 1.358 . S
C400 C401 1.356 1_545 S
C400 H437 0.930 . S
C401 C398 1.348 . S
C401 C400 1.356 1_565 S
H402 C396 0.923 1_565 S
H403 C397 0.930 . S
C404 N405 1.314 . S
C404 C406 1.353 . S
C404 H410 0.930 . S
N405 Li355 1.990 . S
N405 C404 1.314 . S
N405 C408 1.279 . S
C406 C404 1.353 . S
C406 C409 1.348 . S
C406 H438 0.929 . S
C407 C408 1.358 . S
C407 C409 1.356 . S
C407 H439 0.930 . S
C408 N405 1.279 . S
C408 C407 1.358 . S
C408 H411 0.930 . S
C409 C406 1.348 . S
C409 C407 1.356 . S
H410 C404 0.930 . S
H411 C408 0.930 . S
O412 Li352 1.956 . S
O412 Li353 1.970 . S
O412 Li354 1.961 . S
O412 C356 1.325 . S
O413 Li352 1.970 . S
O413 Li353 1.956 . S
O413 Li355 1.961 . S
O413 C362 1.325 . S
O414 Li352 1.961 . S
O414 Li354 1.956 . S
O414 Li355 1.970 . S
O414 C384 1.325 . S
O415 Li353 1.961 . S
O415 Li354 1.970 . S
O415 Li355 1.956 . S
O415 C390 1.325 . S
H416 C358 0.929 . S
H417 C359 0.931 . S
H418 C360 0.930 1_565 S
H419 C361 0.930 . S
H420 C363 0.930 . S
H421 C365 0.929 . S
H422 C366 0.930 . S
H423 C367 0.930 . S
H424 C370 0.930 . S
H425 C373 0.929 . S
H426 C378 0.929 . S
H427 C379 0.930 . S
H428 C386 0.929 . S
H429 C387 0.930 . S
H430 C388 0.930 . S
H431 C389 0.930 1_554 S
H432 C391 0.929 . S
H433 C392 0.930 . S
H434 C393 0.930 1_565 S
H435 C394 0.930 . S
H436 C398 0.929 . S
H437 C400 0.930 . S
H438 C406 0.929 . S
H439 C407 0.930 . S
Li440 N457 1.990 . S
Li440 O500 1.956 . S
Li440 O501 1.970 . S
Li440 O502 1.961 . S
Li441 N465 1.990 . S
Li441 O500 1.970 . S
Li441 O501 1.956 . S
Li441 O503 1.961 . S
Li442 N487 1.990 . S
Li442 O500 1.961 . S
Li442 O502 1.956 . S
Li442 O503 1.970 . S
Li443 N493 1.990 . S
Li443 O501 1.961 . S
Li443 O502 1.970 . S
Li443 O503 1.956 . S
C444 C446 1.348 . S
C444 C447 1.356 . S
C444 O500 1.325 . S
N445 C448 1.315 . S
N445 C449 1.281 . S
C446 C444 1.348 . S
C446 C448 1.353 . S
C446 H504 0.929 . S
C447 C444 1.356 . S
C447 C449 1.358 . S
C447 H505 0.930 . S
C448 N445 1.315 . S
C448 C446 1.353 . S
C448 H506 0.930 1_655 S
C449 N445 1.281 . S
C449 C447 1.358 . S
C449 H507 0.930 . S
C450 C453 1.348 . S
C450 C454 1.356 . S
C450 O501 1.325 . S
C451 N452 1.279 . S
C451 C454 1.358 . S
C451 H508 0.930 1_554 S
N452 C451 1.279 . S
N452 C455 1.314 . S
C453 C450 1.348 . S
C453 C455 1.353 . S
C453 H509 0.929 . S
C454 C450 1.356 . S
C454 C451 1.358 . S
C454 H510 0.930 . S
C455 N452 1.314 . S
C455 C453 1.353 . S
C455 H511 0.930 . S
C456 N457 1.314 . S
C456 C461 1.353 . S
C456 H462 0.930 . S
N457 Li440 1.990 . S
N457 C456 1.314 . S
N457 C459 1.279 . S
C458 C459 1.358 . S
C458 C460 1.356 . S
C458 H512 0.930 . S
C459 N457 1.279 . S
C459 C458 1.358 . S
C459 H463 0.930 . S
C460 C458 1.356 . S
C460 C461 1.348 . S
C461 C456 1.353 . S
C461 C460 1.348 . S
C461 H513 0.929 . S
H462 C456 0.930 . S
H463 C459 0.930 . S
C464 N465 1.332 . S
C464 C466 1.341 1_655 S
C464 H470 0.923 1_655 S
N465 Li441 1.990 . S
N465 C464 1.332 . S
N465 C468 1.279 . S
C466 C464 1.341 1_455 S
C466 C469 1.348 . S
C466 H514 0.929 . S
C467 C468 1.358 . S
C467 C469 1.356 1_655 S
C467 H515 0.930 . S
C468 N465 1.279 . S
C468 C467 1.358 . S
C468 H471 0.930 . S
C469 C466 1.348 . S
C469 C467 1.356 1_455 S
H470 C464 0.923 1_455 S
H471 C468 0.930 . S
C472 C474 1.348 . S
C472 C475 1.356 . S
C472 O502 1.325 . S
N473 C476 1.314 . S
N473 C477 1.279 . S
C474 C472 1.348 . S
C474 C476 1.353 . S
C474 H516 0.929 . S
C475 C472 1.356 . S
C475 C477 1.358 . S
C475 H517 0.930 . S
C476 N473 1.314 . S
C476 C474 1.353 . S
C476 H518 0.930 . S
C477 N473 1.279 . S
C477 C475 1.358 . S
C477 H519 0.930 . S
C478 C479 1.348 . S
C478 C480 1.349 1_554 S
C478 O503 1.325 . S
C479 C478 1.348 . S
C479 C481 1.353 . S
C479 H520 0.929 . S
C480 C478 1.349 1_556 S
C480 C482 1.364 . S
C480 H521 0.931 . S
C481 C479 1.353 . S
C481 N483 1.315 1_554 S
C481 H522 0.930 1_655 S
C482 C480 1.364 . S
C482 N483 1.281 . S
C482 H523 0.930 . S
N483 C481 1.315 1_556 S
N483 C482 1.281 . S
C484 C486 1.341 1_655 S
C484 N487 1.332 . S
C484 H490 0.923 1_655 S
C485 N487 1.279 . S
C485 C488 1.358 . S
C485 H491 0.930 . S
C486 C484 1.341 1_455 S
C486 C489 1.348 . S
C486 H524 0.929 . S
N487 Li442 1.990 . S
N487 C484 1.332 . S
N487 C485 1.279 . S
C488 C485 1.358 . S
C488 C489 1.356 1_655 S
C488 H525 0.930 . S
C489 C486 1.348 . S
C489 C488 1.356 1_455 S
H490 C484 0.923 1_455 S
H491 C485 0.930 . S
C492 N493 1.314 . S
C492 C494 1.353 1_554 S
C492 H498 0.930 . S
N493 Li443 1.990 . S
N493 C492 1.314 . S
N493 C496 1.279 1_554 S
C494 C492 1.353 1_556 S
C494 C497 1.348 . S
C494 H526 0.929 . S
C495 C496 1.358 . S
C495 C497 1.356 . S
C495 H527 0.930 . S
C496 N493 1.279 1_556 S
C496 C495 1.358 . S
C496 H499 0.930 . S
C497 C494 1.348 . S
C497 C495 1.356 . S
H498 C492 0.930 . S
H499 C496 0.930 . S
O500 Li440 1.956 . S
O500 Li441 1.970 . S
O500 Li442 1.961 . S
O500 C444 1.325 . S
O501 Li440 1.970 . S
O501 Li441 1.956 . S
O501 Li443 1.961 . S
O501 C450 1.325 . S
O502 Li440 1.961 . S
O502 Li442 1.956 . S
O502 Li443 1.970 . S
O502 C472 1.325 . S
O503 Li441 1.961 . S
O503 Li442 1.970 . S
O503 Li443 1.956 . S
O503 C478 1.325 . S
H504 C446 0.929 . S
H505 C447 0.930 . S
H506 C448 0.930 1_455 S
H507 C449 0.930 . S
H508 C451 0.930 1_556 S
H509 C453 0.929 . S
H510 C454 0.930 . S
H511 C455 0.930 . S
H512 C458 0.930 . S
H513 C461 0.929 . S
H514 C466 0.929 . S
H515 C467 0.930 . S
H516 C474 0.929 . S
H517 C475 0.930 . S
H518 C476 0.930 . S
H519 C477 0.930 . S
H520 C479 0.929 . S
H521 C480 0.931 . S
H522 C481 0.930 1_455 S
H523 C482 0.930 . S
H524 C486 0.929 . S
H525 C488 0.930 . S
H526 C494 0.929 . S
H527 C495 0.930 . S
Li528 N545 1.990 . S
Li528 O588 1.956 . S
Li528 O589 1.970 . S
Li528 O590 1.961 . S
Li529 N553 1.990 . S
Li529 O588 1.970 . S
Li529 O589 1.956 . S
Li529 O591 1.961 . S
Li530 N575 1.990 . S
Li530 O588 1.961 . S
Li530 O590 1.956 . S
Li530 O591 1.970 . S
Li531 N581 1.990 . S
Li531 O589 1.961 . S
Li531 O590 1.970 . S
Li531 O591 1.956 . S
C532 C534 1.348 . S
C532 C535 1.356 . S
C532 O588 1.325 . S
N533 C536 1.314 . S
N533 C537 1.279 . S
C534 C532 1.348 . S
C534 C536 1.353 . S
C534 H592 0.929 . S
C535 C532 1.356 . S
C535 C537 1.358 . S
C535 H593 0.930 . S
C536 N533 1.314 . S
C536 C534 1.353 . S
C536 H594 0.930 . S
C537 N533 1.279 . S
C537 C535 1.358 . S
C537 H595 0.930 . S
C538 C541 1.348 . S
C538 C542 1.356 . S
C538 O589 1.325 . S
C539 N540 1.279 . S
C539 C542 1.358 . S
C539 H596 0.930 . S
N540 C539 1.279 . S
N540 C543 1.314 . S
C541 C538 1.348 . S
C541 C543 1.353 . S
C541 H597 0.929 . S
C542 C538 1.356 . S
C542 C539 1.358 . S
C542 H598 0.930 . S
C543 N540 1.314 . S
C543 C541 1.353 . S
C543 H599 0.930 . S
C544 N545 1.314 . S
C544 C549 1.353 . S
C544 H550 0.930 . S
N545 Li528 1.990 . S
N545 C544 1.314 . S
N545 C547 1.279 . S
C546 C547 1.358 . S
C546 C548 1.356 . S
C546 H600 0.930 . S
C547 N545 1.279 . S
C547 C546 1.358 . S
C547 H551 0.930 . S
C548 C546 1.356 . S
C548 C549 1.348 . S
C549 C544 1.353 . S
C549 C548 1.348 . S
C549 H601 0.929 . S
H550 C544 0.930 . S
H551 C547 0.930 . S
C552 N553 1.314 . S
C552 C554 1.353 . S
C552 H558 0.930 . S
N553 Li529 1.990 . S
N553 C552 1.314 . S
N553 C556 1.279 . S
C554 C552 1.353 . S
C554 C557 1.348 . S
C554 H602 0.929 . S
C555 C556 1.358 . S
C555 C557 1.356 . S
C555 H603 0.930 . S
C556 N553 1.279 . S
C556 C555 1.358 . S
C556 H559 0.930 . S
C557 C554 1.348 . S
C557 C555 1.356 . S
H558 C552 0.930 . S
H559 C556 0.930 . S
C560 C562 1.348 . S
C560 C563 1.356 . S
C560 O590 1.325 . S
N561 C564 1.314 . S
N561 C565 1.279 . S
C562 C560 1.348 . S
C562 C564 1.353 . S
C562 H604 0.929 . S
C563 C560 1.356 . S
C563 C565 1.358 . S
C563 H605 0.930 . S
C564 N561 1.314 . S
C564 C562 1.353 . S
C564 H606 0.930 . S
C565 N561 1.279 . S
C565 C563 1.358 . S
C565 H607 0.930 . S
C566 C567 1.348 . S
C566 C568 1.356 . S
C566 O591 1.325 . S
C567 C566 1.348 . S
C567 C569 1.353 . S
C567 H608 0.929 . S
C568 C566 1.356 . S
C568 C570 1.358 . S
C568 H609 0.930 . S
C569 C567 1.353 . S
C569 N571 1.314 . S
C569 H610 0.930 . S
C570 C568 1.358 . S
C570 N571 1.279 . S
C570 H611 0.930 . S
N571 C569 1.314 . S
N571 C570 1.279 . S
C572 C574 1.353 . S
C572 N575 1.314 . S
C572 H578 0.930 . S
C573 N575 1.279 . S
C573 C576 1.358 . S
C573 H579 0.930 . S
C574 C572 1.353 . S
C574 C577 1.348 . S
C574 H612 0.929 . S
N575 Li530 1.990 . S
N575 C572 1.314 . S
N575 C573 1.279 . S
C576 C573 1.358 . S
C576 C577 1.356 . S
C576 H613 0.930 . S
C577 C574 1.348 . S
C577 C576 1.356 . S
H578 C572 0.930 . S
H579 C573 0.930 . S
C580 N581 1.314 . S
C580 C582 1.353 . S
C580 H586 0.930 . S
N581 Li531 1.990 . S
N581 C580 1.314 . S
N581 C584 1.279 . S
C582 C580 1.353 . S
C582 C585 1.348 . S
C582 H614 0.929 . S
C583 C584 1.358 . S
C583 C585 1.356 . S
C583 H615 0.930 . S
C584 N581 1.279 . S
C584 C583 1.358 . S
C584 H587 0.930 . S
C585 C582 1.348 . S
C585 C583 1.356 . S
H586 C580 0.930 . S
H587 C584 0.930 . S
O588 Li528 1.956 . S
O588 Li529 1.970 . S
O588 Li530 1.961 . S
O588 C532 1.325 . S
O589 Li528 1.970 . S
O589 Li529 1.956 . S
O589 Li531 1.961 . S
O589 C538 1.325 . S
O590 Li528 1.961 . S
O590 Li530 1.956 . S
O590 Li531 1.970 . S
O590 C560 1.325 . S
O591 Li529 1.961 . S
O591 Li530 1.970 . S
O591 Li531 1.956 . S
O591 C566 1.325 . S
H592 C534 0.929 . S
H593 C535 0.930 . S
H594 C536 0.930 . S
H595 C537 0.930 . S
H596 C539 0.930 . S
H597 C541 0.929 . S
H598 C542 0.930 . S
H599 C543 0.930 . S
H600 C546 0.930 . S
H601 C549 0.929 . S
H602 C554 0.929 . S
H603 C555 0.930 . S
H604 C562 0.929 . S
H605 C563 0.930 . S
H606 C564 0.930 . S
H607 C565 0.930 . S
H608 C567 0.929 . S
H609 C568 0.930 . S
H610 C569 0.930 . S
H611 C570 0.930 . S
H612 C574 0.929 . S
H613 C576 0.930 . S
H614 C582 0.929 . S
H615 C583 0.930 . S
Li616 N633 1.990 . S
Li616 O676 1.956 . S
Li616 O677 1.970 . S
Li616 O678 1.961 . S
Li617 N641 1.990 . S
Li617 O676 1.970 . S
Li617 O677 1.956 . S
Li617 O679 1.961 . S
Li618 N663 1.990 . S
Li618 O676 1.961 . S
Li618 O678 1.956 . S
Li618 O679 1.970 . S
Li619 N669 1.990 . S
Li619 O677 1.961 . S
Li619 O678 1.970 . S
Li619 O679 1.956 . S
C620 C622 1.348 . S
C620 C623 1.356 . S
C620 O676 1.325 . S
N621 C624 1.314 . S
N621 C625 1.279 . S
C622 C620 1.348 . S
C622 C624 1.353 . S
C622 H680 0.929 . S
C623 C620 1.356 . S
C623 C625 1.358 . S
C623 H681 0.930 . S
C624 N621 1.314 . S
C624 C622 1.353 . S
C624 H682 0.930 . S
C625 N621 1.279 . S
C625 C623 1.358 . S
C625 H683 0.930 . S
C626 C629 1.348 . S
C626 C630 1.356 . S
C626 O677 1.325 . S
C627 N628 1.279 . S
C627 C630 1.358 . S
C627 H684 0.930 . S
N628 C627 1.279 . S
N628 C631 1.314 . S
C629 C626 1.348 . S
C629 C631 1.353 . S
C629 H685 0.929 . S
C630 C626 1.356 . S
C630 C627 1.358 . S
C630 H686 0.930 . S
C631 N628 1.314 . S
C631 C629 1.353 . S
C631 H687 0.930 . S
C632 N633 1.314 . S
C632 C637 1.353 . S
C632 H638 0.930 . S
N633 Li616 1.990 . S
N633 C632 1.314 . S
N633 C635 1.279 . S
C634 C635 1.358 . S
C634 C636 1.356 . S
C634 H688 0.930 . S
C635 N633 1.279 . S
C635 C634 1.358 . S
C635 H639 0.930 . S
C636 C634 1.356 . S
C636 C637 1.348 . S
C637 C632 1.353 . S
C637 C636 1.348 . S
C637 H689 0.929 . S
H638 C632 0.930 . S
H639 C635 0.930 . S
C640 N641 1.314 . S
C640 C642 1.353 . S
C640 H646 0.930 . S
N641 Li617 1.990 . S
N641 C640 1.314 . S
N641 C644 1.279 . S
C642 C640 1.353 . S
C642 C645 1.348 . S
C642 H690 0.929 . S
C643 C644 1.358 . S
C643 C645 1.356 . S
C643 H691 0.930 . S
C644 N641 1.279 . S
C644 C643 1.358 . S
C644 H647 0.930 . S
C645 C642 1.348 . S
C645 C643 1.356 . S
H646 C640 0.930 . S
H647 C644 0.930 . S
C648 C650 1.348 . S
C648 C651 1.356 . S
C648 O678 1.325 . S
N649 C652 1.314 . S
N649 C653 1.279 . S
C650 C648 1.348 . S
C650 C652 1.353 . S
C650 H692 0.929 . S
C651 C648 1.356 . S
C651 C653 1.358 . S
C651 H693 0.930 . S
C652 N649 1.314 . S
C652 C650 1.353 . S
C652 H694 0.930 . S
C653 N649 1.279 . S
C653 C651 1.358 . S
C653 H695 0.930 . S
C654 C655 1.348 . S
C654 C656 1.356 . S
C654 O679 1.325 . S
C655 C654 1.348 . S
C655 C657 1.353 . S
C655 H696 0.929 . S
C656 C654 1.356 . S
C656 C658 1.358 . S
C656 H697 0.930 . S
C657 C655 1.353 . S
C657 N659 1.314 . S
C657 H698 0.930 . S
C658 C656 1.358 . S
C658 N659 1.279 . S
C658 H699 0.930 . S
N659 C657 1.314 . S
N659 C658 1.279 . S
C660 C662 1.353 . S
C660 N663 1.314 . S
C660 H666 0.930 . S
C661 N663 1.279 . S
C661 C664 1.358 . S
C661 H667 0.930 . S
C662 C660 1.353 . S
C662 C665 1.348 . S
C662 H700 0.929 . S
N663 Li618 1.990 . S
N663 C660 1.314 . S
N663 C661 1.279 . S
C664 C661 1.358 . S
C664 C665 1.356 . S
C664 H701 0.930 . S
C665 C662 1.348 . S
C665 C664 1.356 . S
H666 C660 0.930 . S
H667 C661 0.930 . S
C668 N669 1.314 . S
C668 C670 1.353 . S
C668 H674 0.930 . S
N669 Li619 1.990 . S
N669 C668 1.314 . S
N669 C672 1.279 . S
C670 C668 1.353 . S
C670 C673 1.348 . S
C670 H702 0.929 . S
C671 C672 1.358 . S
C671 C673 1.356 . S
C671 H703 0.930 . S
C672 N669 1.279 . S
C672 C671 1.358 . S
C672 H675 0.930 . S
C673 C670 1.348 . S
C673 C671 1.356 . S
H674 C668 0.930 . S
H675 C672 0.930 . S
O676 Li616 1.956 . S
O676 Li617 1.970 . S
O676 Li618 1.961 . S
O676 C620 1.325 . S
O677 Li616 1.970 . S
O677 Li617 1.956 . S
O677 Li619 1.961 . S
O677 C626 1.325 . S
O678 Li616 1.961 . S
O678 Li618 1.956 . S
O678 Li619 1.970 . S
O678 C648 1.325 . S
O679 Li617 1.961 . S
O679 Li618 1.970 . S
O679 Li619 1.956 . S
O679 C654 1.325 . S
H680 C622 0.929 . S
H681 C623 0.930 . S
H682 C624 0.930 . S
H683 C625 0.930 . S
H684 C627 0.930 . S
H685 C629 0.929 . S
H686 C630 0.930 . S
H687 C631 0.930 . S
H688 C634 0.930 . S
H689 C637 0.929 . S
H690 C642 0.929 . S
H691 C643 0.930 . S
H692 C650 0.929 . S
H693 C651 0.930 . S
H694 C652 0.930 . S
H695 C653 0.930 . S
H696 C655 0.929 . S
H697 C656 0.930 . S
H698 C657 0.930 . S
H699 C658 0.930 . S
H700 C662 0.929 . S
H701 C664 0.930 . S
H702 C670 0.929 . S
H703 C671 0.930 . S
H704 C712 0.929 . S
H705 C714 0.930 . S
H706 C716 0.930 . S
H707 C719 0.929 . S
H708 C722 0.930 . S
H709 C724 0.960 . S
H710 C724 0.960 . S
H711 C724 0.960 . S
C712 H704 0.929 . S
C712 C713 1.377 . S
C712 C714 1.384 . S
C713 C712 1.377 . S
C713 C719 1.390 . S
C714 H705 0.930 . S
C714 C712 1.384 . S
C714 C715 1.372 . S
C715 C714 1.372 . S
C715 C716 1.400 . S
C715 C720 1.490 . S
C716 H706 0.930 . S
C716 C715 1.400 . S
C716 C719 1.386 . S
H717 C733 0.930 . S
H718 C734 0.931 . S
C719 H707 0.929 . S
C719 C713 1.390 . S
C719 C716 1.386 . S
C720 C715 1.490 . S
C720 C722 1.395 . S
C720 C723 1.403 . S
H721 C727 0.930 . S
C722 H708 0.930 . S
C722 C720 1.395 . S
C722 C725 1.403 1_556 S
C723 C720 1.403 . S
C723 C724 1.524 . S
C723 C727 1.400 1_556 S
C724 H709 0.960 . S
C724 H710 0.960 . S
C724 H711 0.960 . S
C724 C723 1.524 . S
C725 C722 1.403 1_554 S
C725 C726 1.392 . S
C725 C729 1.495 . S
C726 C725 1.392 . S
C726 C727 1.385 . S
C726 C728 1.478 . S
C727 H721 0.930 . S
C727 C723 1.400 1_554 S
C727 C726 1.385 . S
C728 C726 1.478 . S
C728 C730 1.381 . S
C728 C734 1.383 . S
C729 C725 1.495 . S
C729 H735 0.959 . S
C729 H736 0.961 . S
C729 H737 0.960 . S
C730 C728 1.381 . S
C730 C731 1.394 . S
C730 H738 0.930 . S
C731 C730 1.394 . S
C731 C732 1.383 . S
C731 H739 0.929 . S
C732 C731 1.383 . S
C732 C733 1.377 . S
C733 H717 0.930 . S
C733 C732 1.377 . S
C733 C734 1.379 . S
C734 H718 0.931 . S
C734 C728 1.383 . S
C734 C733 1.379 . S
H735 C729 0.959 . S
H736 C729 0.961 . S
H737 C729 0.960 . S
H738 C730 0.930 . S
H739 C731 0.929 . S
H740 C748 0.929 . S
H741 C750 0.930 . S
H742 C752 0.930 . S
H743 C755 0.929 . S
H744 C758 0.930 . S
H745 C760 0.960 . S
H746 C760 0.960 . S
H747 C760 0.960 . S
C748 H740 0.929 . S
C748 C749 1.377 . S
C748 C750 1.384 . S
C749 C748 1.377 . S
C749 C755 1.390 . S
C750 H741 0.930 . S
C750 C748 1.384 . S
C750 C751 1.372 . S
C751 C750 1.372 . S
C751 C752 1.400 . S
C751 C756 1.490 . S
C752 H742 0.930 . S
C752 C751 1.400 . S
C752 C755 1.386 . S
H753 C769 0.930 . S
H754 C770 0.931 . S
C755 H743 0.929 . S
C755 C749 1.390 . S
C755 C752 1.386 . S
C756 C751 1.490 . S
C756 C758 1.395 . S
C756 C759 1.403 . S
H757 C763 0.930 . S
C758 H744 0.930 . S
C758 C756 1.395 . S
C758 C761 1.403 . S
C759 C756 1.403 . S
C759 C760 1.524 . S
C759 C763 1.400 . S
C760 H745 0.960 . S
C760 H746 0.960 . S
C760 H747 0.960 . S
C760 C759 1.524 . S
C761 C758 1.403 . S
C761 C762 1.392 . S
C761 C765 1.495 . S
C762 C761 1.392 . S
C762 C763 1.385 . S
C762 C764 1.478 . S
C763 H757 0.930 . S
C763 C759 1.400 . S
C763 C762 1.385 . S
C764 C762 1.478 . S
C764 C766 1.381 . S
C764 C770 1.383 . S
C765 C761 1.495 . S
C765 H771 0.959 . S
C765 H772 0.961 . S
C765 H773 0.960 . S
C766 C764 1.381 . S
C766 C767 1.394 . S
C766 H774 0.930 . S
C767 C766 1.394 . S
C767 C768 1.383 . S
C767 H775 0.929 . S
C768 C767 1.383 . S
C768 C769 1.377 . S
C769 H753 0.930 . S
C769 C768 1.377 . S
C769 C770 1.379 . S
C770 H754 0.931 . S
C770 C764 1.383 . S
C770 C769 1.379 . S
H771 C765 0.959 . S
H772 C765 0.961 . S
H773 C765 0.960 . S
H774 C766 0.930 . S
H775 C767 0.929 . S
H776 C784 0.929 . S
H777 C786 0.930 . S
H778 C788 0.930 . S
H779 C791 0.929 . S
H780 C794 0.930 . S
H781 C796 0.960 . S
H782 C796 0.960 . S
H783 C796 0.960 . S
C784 H776 0.929 . S
C784 C785 1.377 . S
C784 C786 1.384 . S
C785 C784 1.377 . S
C785 C791 1.390 . S
C786 H777 0.930 . S
C786 C784 1.384 . S
C786 C787 1.372 . S
C787 C786 1.372 . S
C787 C788 1.400 . S
C787 C792 1.490 . S
C788 H778 0.930 . S
C788 C787 1.400 . S
C788 C791 1.386 . S
H789 C805 0.930 . S
H790 C806 0.931 . S
C791 H779 0.929 . S
C791 C785 1.390 . S
C791 C788 1.386 . S
C792 C787 1.490 . S
C792 C794 1.395 . S
C792 C795 1.403 . S
H793 C799 0.930 . S
C794 H780 0.930 . S
C794 C792 1.395 . S
C794 C797 1.403 . S
C795 C792 1.403 . S
C795 C796 1.524 . S
C795 C799 1.400 . S
C796 H781 0.960 . S
C796 H782 0.960 . S
C796 H783 0.960 . S
C796 C795 1.524 . S
C797 C794 1.403 . S
C797 C798 1.392 . S
C797 C801 1.495 . S
C798 C797 1.392 . S
C798 C799 1.385 . S
C798 C800 1.478 . S
C799 H793 0.930 . S
C799 C795 1.400 . S
C799 C798 1.385 . S
C800 C798 1.478 . S
C800 C802 1.381 . S
C800 C806 1.383 . S
C801 C797 1.495 . S
C801 H807 0.959 . S
C801 H808 0.961 . S
C801 H809 0.960 . S
C802 C800 1.381 . S
C802 C803 1.394 . S
C802 H810 0.930 . S
C803 C802 1.394 . S
C803 C804 1.383 . S
C803 H811 0.929 . S
C804 C803 1.383 . S
C804 C805 1.377 . S
C805 H789 0.930 . S
C805 C804 1.377 . S
C805 C806 1.379 . S
C806 H790 0.931 . S
C806 C800 1.383 . S
C806 C805 1.379 . S
H807 C801 0.959 . S
H808 C801 0.961 . S
H809 C801 0.960 . S
H810 C802 0.930 . S
H811 C803 0.929 . S
H812 C820 0.929 . S
H813 C822 0.930 . S
H814 C824 0.930 . S
H815 C827 0.929 . S
H816 C830 0.930 . S
H817 C832 0.960 . S
H818 C832 0.960 . S
H819 C832 0.960 . S
C820 H812 0.929 . S
C820 C821 1.377 . S
C820 C822 1.384 . S
C821 C820 1.377 . S
C821 C827 1.390 . S
C822 H813 0.930 . S
C822 C820 1.384 . S
C822 C823 1.372 . S
C823 C822 1.372 . S
C823 C824 1.400 . S
C823 C828 1.490 . S
C824 H814 0.930 . S
C824 C823 1.400 . S
C824 C827 1.386 . S
H825 C841 0.930 . S
H826 C842 0.931 . S
C827 H815 0.929 . S
C827 C821 1.390 . S
C827 C824 1.386 . S
C828 C823 1.490 . S
C828 C830 1.395 . S
C828 C831 1.403 . S
H829 C835 0.930 . S
C830 H816 0.930 . S
C830 C828 1.395 . S
C830 C833 1.403 . S
C831 C828 1.403 . S
C831 C832 1.524 . S
C831 C835 1.400 . S
C832 H817 0.960 . S
C832 H818 0.960 . S
C832 H819 0.960 . S
C832 C831 1.524 . S
C833 C830 1.403 . S
C833 C834 1.392 . S
C833 C837 1.495 . S
C834 C833 1.392 . S
C834 C835 1.385 . S
C834 C836 1.478 . S
C835 H829 0.930 . S
C835 C831 1.400 . S
C835 C834 1.385 . S
C836 C834 1.478 . S
C836 C838 1.381 . S
C836 C842 1.383 . S
C837 C833 1.495 . S
C837 H843 0.959 . S
C837 H844 0.961 . S
C837 H845 0.960 . S
C838 C836 1.381 . S
C838 C839 1.394 . S
C838 H846 0.930 . S
C839 C838 1.394 . S
C839 C840 1.383 . S
C839 H847 0.929 . S
C840 C839 1.383 . S
C840 C841 1.377 . S
C841 H825 0.930 . S
C841 C840 1.377 . S
C841 C842 1.379 . S
C842 H826 0.931 . S
C842 C836 1.383 . S
C842 C841 1.379 . S
H843 C837 0.959 . S
H844 C837 0.961 . S
H845 C837 0.960 . S
H846 C838 0.930 . S
H847 C839 0.929 . S
H848 C856 0.929 . S
H849 C858 0.930 . S
H850 C860 0.930 . S
H851 C863 0.929 . S
H852 C866 0.930 . S
H853 C868 0.960 . S
H854 C868 0.960 . S
H855 C868 0.960 . S
C856 H848 0.929 . S
C856 C857 1.377 . S
C856 C858 1.384 . S
C857 C856 1.377 . S
C857 C863 1.390 . S
C858 H849 0.930 . S
C858 C856 1.384 . S
C858 C859 1.372 . S
C859 C858 1.372 . S
C859 C860 1.400 . S
C859 C864 1.490 . S
C860 H850 0.930 . S
C860 C859 1.400 . S
C860 C863 1.386 . S
H861 C877 0.930 . S
H862 C878 0.931 . S
C863 H851 0.929 . S
C863 C857 1.390 . S
C863 C860 1.386 . S
C864 C859 1.490 . S
C864 C866 1.395 . S
C864 C867 1.403 . S
H865 C871 0.930 . S
C866 H852 0.930 . S
C866 C864 1.395 . S
C866 C869 1.403 . S
C867 C864 1.403 . S
C867 C868 1.524 . S
C867 C871 1.400 . S
C868 H853 0.960 . S
C868 H854 0.960 . S
C868 H855 0.960 . S
C868 C867 1.524 . S
C869 C866 1.403 . S
C869 C870 1.392 . S
C869 C873 1.495 . S
C870 C869 1.392 . S
C870 C871 1.385 . S
C870 C872 1.478 . S
C871 H865 0.930 . S
C871 C867 1.400 . S
C871 C870 1.385 . S
C872 C870 1.478 . S
C872 C874 1.381 . S
C872 C878 1.383 . S
C873 C869 1.495 . S
C873 H879 0.959 . S
C873 H880 0.961 . S
C873 H881 0.960 . S
C874 C872 1.381 . S
C874 C875 1.394 . S
C874 H882 0.930 . S
C875 C874 1.394 . S
C875 C876 1.383 . S
C875 H883 0.929 . S
C876 C875 1.383 . S
C876 C877 1.377 . S
C877 H861 0.930 . S
C877 C876 1.377 . S
C877 C878 1.379 . S
C878 H862 0.931 . S
C878 C872 1.383 . S
C878 C877 1.379 . S
H879 C873 0.959 . S
H880 C873 0.961 . S
H881 C873 0.960 . S
H882 C874 0.930 . S
H883 C875 0.929 . S
H884 C892 0.929 . S
H885 C894 0.930 . S
H886 C896 0.930 . S
H887 C899 0.929 . S
H888 C902 0.930 . S
H889 C904 0.960 . S
H890 C904 0.960 . S
H891 C904 0.960 . S
C892 H884 0.929 . S
C892 C893 1.377 . S
C892 C894 1.384 . S
C893 C892 1.377 . S
C893 C899 1.390 . S
C894 H885 0.930 . S
C894 C892 1.384 . S
C894 C895 1.372 . S
C895 C894 1.372 . S
C895 C896 1.400 . S
C895 C900 1.490 . S
C896 H886 0.930 . S
C896 C895 1.400 . S
C896 C899 1.386 . S
H897 C913 0.930 . S
H898 C914 0.931 . S
C899 H887 0.929 . S
C899 C893 1.390 . S
C899 C896 1.386 . S
C900 C895 1.490 . S
C900 C902 1.395 . S
C900 C903 1.403 . S
H901 C907 0.930 . S
C902 H888 0.930 . S
C902 C900 1.395 . S
C902 C905 1.403 . S
C903 C900 1.403 . S
C903 C904 1.524 . S
C903 C907 1.400 . S
C904 H889 0.960 . S
C904 H890 0.960 . S
C904 H891 0.960 . S
C904 C903 1.524 . S
C905 C902 1.403 . S
C905 C906 1.392 . S
C905 C909 1.495 . S
C906 C905 1.392 . S
C906 C907 1.385 . S
C906 C908 1.478 . S
C907 H901 0.930 . S
C907 C903 1.400 . S
C907 C906 1.385 . S
C908 C906 1.478 . S
C908 C910 1.381 . S
C908 C914 1.383 . S
C909 C905 1.495 . S
C909 H915 0.959 . S
C909 H916 0.961 . S
C909 H917 0.960 . S
C910 C908 1.381 . S
C910 C911 1.394 . S
C910 H918 0.930 . S
C911 C910 1.394 . S
C911 C912 1.383 . S
C911 H919 0.929 . S
C912 C911 1.383 . S
C912 C913 1.377 . S
C913 H897 0.930 . S
C913 C912 1.377 . S
C913 C914 1.379 . S
C914 H898 0.931 . S
C914 C908 1.383 . S
C914 C913 1.379 . S
H915 C909 0.959 . S
H916 C909 0.961 . S
H917 C909 0.960 . S
H918 C910 0.930 . S
H919 C911 0.929 . S
H920 C928 0.929 . S
H921 C930 0.930 . S
H922 C932 0.930 . S
H923 C935 0.929 . S
H924 C938 0.930 . S
H925 C940 0.960 1_556 S
H926 C940 0.960 . S
H927 C940 0.960 . S
C928 H920 0.929 . S
C928 C929 1.377 . S
C928 C930 1.384 . S
C929 C928 1.377 . S
C929 C935 1.390 . S
C930 H921 0.930 . S
C930 C928 1.384 . S
C930 C931 1.372 . S
C931 C930 1.372 . S
C931 C932 1.400 . S
C931 C936 1.490 . S
C932 H922 0.930 . S
C932 C931 1.400 . S
C932 C935 1.386 . S
H933 C949 0.930 . S
H934 C950 0.931 . S
C935 H923 0.929 . S
C935 C929 1.390 . S
C935 C932 1.386 . S
C936 C931 1.490 . S
C936 C938 1.395 . S
C936 C939 1.403 . S
H937 C943 0.930 . S
C938 H924 0.930 . S
C938 C936 1.395 . S
C938 C941 1.419 . S
C939 C936 1.403 . S
C939 C940 1.524 . S
C939 C943 1.400 1_554 S
C940 H925 0.960 1_554 S
C940 H926 0.960 . S
C940 H927 0.960 . S
C940 C939 1.524 . S
C941 C938 1.419 . S
C941 C942 1.377 1_554 S
C941 C945 1.495 . S
C942 C941 1.377 1_556 S
C942 C943 1.385 . S
C942 C944 1.478 . S
C943 H937 0.930 . S
C943 C939 1.400 1_556 S
C943 C942 1.385 . S
C944 C942 1.478 . S
C944 C946 1.381 . S
C944 C950 1.383 . S
C945 C941 1.495 . S
C945 H951 0.963 . S
C945 H952 0.957 1_554 S
C945 H953 0.959 1_554 S
C946 C944 1.381 . S
C946 C947 1.394 . S
C946 H954 0.930 . S
C947 C946 1.394 . S
C947 C948 1.383 . S
C947 H955 0.929 . S
C948 C947 1.383 . S
C948 C949 1.377 . S
C949 H933 0.930 . S
C949 C948 1.377 . S
C949 C950 1.379 . S
C950 H934 0.931 . S
C950 C944 1.383 . S
C950 C949 1.379 . S
H951 C945 0.963 . S
H952 C945 0.957 1_556 S
H953 C945 0.959 1_556 S
H954 C946 0.930 . S
H955 C947 0.929 . S
H956 C964 0.929 . S
H957 C966 0.930 . S
H958 C968 0.930 . S
H959 C971 0.929 . S
H960 C974 0.930 . S
H961 C976 0.960 . S
H962 C976 0.960 . S
H963 C976 0.960 . S
C964 H956 0.929 . S
C964 C965 1.377 . S
C964 C966 1.384 . S
C965 C964 1.377 . S
C965 C971 1.390 . S
C966 H957 0.930 . S
C966 C964 1.384 . S
C966 C967 1.372 . S
C967 C966 1.372 . S
C967 C968 1.400 . S
C967 C972 1.490 . S
C968 H958 0.930 . S
C968 C967 1.400 . S
C968 C971 1.386 . S
H969 C985 0.930 . S
H970 C986 0.931 . S
C971 H959 0.929 . S
C971 C965 1.390 . S
C971 C968 1.386 . S
C972 C967 1.490 . S
C972 C974 1.395 . S
C972 C975 1.403 . S
H973 C979 0.930 . S
C974 H960 0.930 . S
C974 C972 1.395 . S
C974 C977 1.403 . S
C975 C972 1.403 . S
C975 C976 1.524 . S
C975 C979 1.400 . S
C976 H961 0.960 . S
C976 H962 0.960 . S
C976 H963 0.960 . S
C976 C975 1.524 . S
C977 C974 1.403 . S
C977 C978 1.392 . S
C977 C981 1.495 . S
C978 C977 1.392 . S
C978 C979 1.385 . S
C978 C980 1.478 . S
C979 H973 0.930 . S
C979 C975 1.400 . S
C979 C978 1.385 . S
C980 C978 1.478 . S
C980 C982 1.381 . S
C980 C986 1.383 . S
C981 C977 1.495 . S
C981 H987 0.959 . S
C981 H988 0.961 . S
C981 H989 0.960 . S
C982 C980 1.381 . S
C982 C983 1.394 . S
C982 H990 0.930 . S
C983 C982 1.394 . S
C983 C984 1.383 . S
C983 H991 0.929 . S
C984 C983 1.383 . S
C984 C985 1.377 . S
C985 H969 0.930 . S
C985 C984 1.377 . S
C985 C986 1.379 . S
C986 H970 0.931 . S
C986 C980 1.383 . S
C986 C985 1.379 . S
H987 C981 0.959 . S
H988 C981 0.961 . S
H989 C981 0.960 . S
H990 C982 0.930 . S
H991 C983 0.929 . S
H992 C1000 0.929 . S
H993 C1002 0.930 . S
H994 C1004 0.930 . S
H995 C1007 0.929 . S
H996 C1010 0.930 . S
H997 C1012 0.960 . S
H998 C1012 0.960 . S
H999 C1012 0.960 . S
C1000 H992 0.929 . S
C1000 C1001 1.377 . S
C1000 C1002 1.384 . S
C1001 C1000 1.377 . S
C1001 C1007 1.390 . S
C1002 H993 0.930 . S
C1002 C1000 1.384 . S
C1002 C1003 1.372 . S
C1003 C1002 1.372 . S
C1003 C1004 1.400 . S
C1003 C1008 1.490 . S
C1004 H994 0.930 . S
C1004 C1003 1.400 . S
C1004 C1007 1.386 . S
H1005 C1021 0.930 . S
H1006 C1022 0.931 . S
C1007 H995 0.929 . S
C1007 C1001 1.390 . S
C1007 C1004 1.386 . S
C1008 C1003 1.490 . S
C1008 C1010 1.395 . S
C1008 C1011 1.403 . S
H1009 C1015 0.930 . S
C1010 H996 0.930 . S
C1010 C1008 1.395 . S
C1010 C1013 1.403 . S
C1011 C1008 1.403 . S
C1011 C1012 1.524 . S
C1011 C1015 1.400 . S
C1012 H997 0.960 . S
C1012 H998 0.960 . S
C1012 H999 0.960 . S
C1012 C1011 1.524 . S
C1013 C1010 1.403 . S
C1013 C1014 1.392 . S
C1013 C1017 1.495 . S
C1014 C1013 1.392 . S
C1014 C1015 1.385 . S
C1014 C1016 1.478 . S
C1015 H1009 0.930 . S
C1015 C1011 1.400 . S
C1015 C1014 1.385 . S
C1016 C1014 1.478 . S
C1016 C1018 1.381 . S
C1016 C1022 1.383 . S
C1017 C1013 1.495 . S
C1017 H1023 0.959 . S
C1017 H1024 0.961 . S
C1017 H1025 0.960 . S
C1018 C1016 1.381 . S
C1018 C1019 1.394 . S
C1018 H1026 0.930 . S
C1019 C1018 1.394 . S
C1019 C1020 1.383 . S
C1019 H1027 0.929 . S
C1020 C1019 1.383 . S
C1020 C1021 1.377 . S
C1021 H1005 0.930 . S
C1021 C1020 1.377 . S
C1021 C1022 1.379 . S
C1022 H1006 0.931 . S
C1022 C1016 1.383 . S
C1022 C1021 1.379 . S
H1023 C1017 0.959 . S
H1024 C1017 0.961 . S
H1025 C1017 0.960 . S
H1026 C1018 0.930 . S
H1027 C1019 0.929 . S
H1028 C1036 0.929 . S
H1029 C1038 0.930 . S
H1030 C1040 0.930 . S
H1031 C1043 0.929 . S
H1032 C1046 0.930 . S
H1033 C1048 0.960 . S
H1034 C1048 0.960 . S
H1035 C1048 0.960 . S
C1036 H1028 0.929 . S
C1036 C1037 1.377 . S
C1036 C1038 1.384 . S
C1037 C1036 1.377 . S
C1037 C1043 1.390 . S
C1038 H1029 0.930 . S
C1038 C1036 1.384 . S
C1038 C1039 1.372 . S
C1039 C1038 1.372 . S
C1039 C1040 1.400 . S
C1039 C1044 1.490 . S
C1040 H1030 0.930 . S
C1040 C1039 1.400 . S
C1040 C1043 1.386 . S
H1041 C1057 0.930 . S
H1042 C1058 0.931 . S
C1043 H1031 0.929 . S
C1043 C1037 1.390 . S
C1043 C1040 1.386 . S
C1044 C1039 1.490 . S
C1044 C1046 1.395 . S
C1044 C1047 1.403 . S
H1045 C1051 0.930 . S
C1046 H1032 0.930 . S
C1046 C1044 1.395 . S
C1046 C1049 1.403 . S
C1047 C1044 1.403 . S
C1047 C1048 1.524 . S
C1047 C1051 1.400 . S
C1048 H1033 0.960 . S
C1048 H1034 0.960 . S
C1048 H1035 0.960 . S
C1048 C1047 1.524 . S
C1049 C1046 1.403 . S
C1049 C1050 1.392 . S
C1049 C1053 1.495 . S
C1050 C1049 1.392 . S
C1050 C1051 1.385 . S
C1050 C1052 1.478 . S
C1051 H1045 0.930 . S
C1051 C1047 1.400 . S
C1051 C1050 1.385 . S
C1052 C1050 1.478 . S
C1052 C1054 1.381 . S
C1052 C1058 1.383 . S
C1053 C1049 1.495 . S
C1053 H1059 0.959 . S
C1053 H1060 0.961 . S
C1053 H1061 0.960 . S
C1054 C1052 1.381 . S
C1054 C1055 1.394 . S
C1054 H1062 0.930 . S
C1055 C1054 1.394 . S
C1055 C1056 1.383 . S
C1055 H1063 0.929 . S
C1056 C1055 1.383 . S
C1056 C1057 1.377 . S
C1057 H1041 0.930 . S
C1057 C1056 1.377 . S
C1057 C1058 1.379 . S
C1058 H1042 0.931 . S
C1058 C1052 1.383 . S
C1058 C1057 1.379 . S
H1059 C1053 0.959 . S
H1060 C1053 0.961 . S
H1061 C1053 0.960 . S
H1062 C1054 0.930 . S
H1063 C1055 0.929 . S
H1064 C1072 0.929 . S
H1065 C1074 0.930 . S
H1066 C1076 0.930 . S
H1067 C1079 0.929 . S
H1068 C1082 0.930 . S
H1069 C1084 0.960 . S
H1070 C1084 0.960 1_556 S
H1071 C1084 0.960 . S
C1072 H1064 0.929 . S
C1072 C1073 1.377 1_556 S
C1072 C1074 1.384 . S
C1073 C1072 1.377 1_554 S
C1073 C1079 1.390 . S
C1074 H1065 0.930 . S
C1074 C1072 1.384 . S
C1074 C1075 1.372 1_556 S
C1075 C1074 1.372 1_554 S
C1075 C1076 1.400 . S
C1075 C1080 1.490 . S
C1076 H1066 0.930 . S
C1076 C1075 1.400 . S
C1076 C1079 1.386 . S
H1077 C1093 0.930 . S
H1078 C1094 0.931 . S
C1079 H1067 0.929 . S
C1079 C1073 1.390 . S
C1079 C1076 1.386 . S
C1080 C1075 1.490 . S
C1080 C1082 1.395 1_554 S
C1080 C1083 1.403 . S
H1081 C1087 0.929 1_554 S
C1082 H1068 0.930 . S
C1082 C1080 1.395 1_556 S
C1082 C1085 1.403 . S
C1083 C1080 1.403 . S
C1083 C1084 1.524 . S
C1083 C1087 1.397 1_554 S
C1084 H1069 0.960 . S
C1084 H1070 0.960 1_554 S
C1084 H1071 0.960 . S
C1084 C1083 1.524 . S
C1085 C1082 1.403 . S
C1085 C1086 1.392 . S
C1085 C1089 1.495 . S
C1086 C1085 1.392 . S
C1086 C1087 1.389 . S
C1086 C1088 1.478 . S
C1087 H1081 0.929 1_556 S
C1087 C1083 1.397 1_556 S
C1087 C1086 1.389 . S
C1088 C1086 1.478 . S
C1088 C1090 1.381 . S
C1088 C1094 1.383 1_556 S
C1089 C1085 1.495 . S
C1089 H1095 0.959 . S
C1089 H1096 0.961 1_556 S
C1089 H1097 0.960 . S
C1090 C1088 1.381 . S
C1090 C1091 1.394 . S
C1090 H1098 0.930 . S
C1091 C1090 1.394 . S
C1091 C1092 1.383 . S
C1091 H1099 0.929 . S
C1092 C1091 1.383 . S
C1092 C1093 1.377 1_556 S
C1093 H1077 0.930 . S
C1093 C1092 1.377 1_554 S
C1093 C1094 1.379 . S
C1094 H1078 0.931 . S
C1094 C1088 1.383 1_554 S
C1094 C1093 1.379 . S
H1095 C1089 0.959 . S
H1096 C1089 0.961 1_554 S
H1097 C1089 0.960 . S
H1098 C1090 0.930 . S
H1099 C1091 0.929 . S
H1100 C1108 0.929 . S
H1101 C1110 0.930 . S
H1102 C1112 0.930 . S
H1103 C1115 0.929 . S
H1104 C1118 0.930 . S
H1105 C1120 0.960 . S
H1106 C1120 0.960 . S
H1107 C1120 0.960 . S
C1108 H1100 0.929 . S
C1108 C1109 1.377 . S
C1108 C1110 1.384 . S
C1109 C1108 1.377 . S
C1109 C1115 1.390 . S
C1110 H1101 0.930 . S
C1110 C1108 1.384 . S
C1110 C1111 1.372 . S
C1111 C1110 1.372 . S
C1111 C1112 1.400 . S
C1111 C1116 1.490 . S
C1112 H1102 0.930 . S
C1112 C1111 1.400 . S
C1112 C1115 1.386 . S
H1113 C1129 0.930 . S
H1114 C1130 0.931 . S
C1115 H1103 0.929 . S
C1115 C1109 1.390 . S
C1115 C1112 1.386 . S
C1116 C1111 1.490 . S
C1116 C1118 1.395 . S
C1116 C1119 1.403 . S
H1117 C1123 0.930 . S
C1118 H1104 0.930 . S
C1118 C1116 1.395 . S
C1118 C1121 1.403 . S
C1119 C1116 1.403 . S
C1119 C1120 1.524 . S
C1119 C1123 1.400 . S
C1120 H1105 0.960 . S
C1120 H1106 0.960 . S
C1120 H1107 0.960 . S
C1120 C1119 1.524 . S
C1121 C1118 1.403 . S
C1121 C1122 1.392 . S
C1121 C1125 1.495 . S
C1122 C1121 1.392 . S
C1122 C1123 1.385 . S
C1122 C1124 1.478 . S
C1123 H1117 0.930 . S
C1123 C1119 1.400 . S
C1123 C1122 1.385 . S
C1124 C1122 1.478 . S
C1124 C1126 1.381 . S
C1124 C1130 1.383 . S
C1125 C1121 1.495 . S
C1125 H1131 0.959 . S
C1125 H1132 0.961 . S
C1125 H1133 0.960 . S
C1126 C1124 1.381 . S
C1126 C1127 1.394 . S
C1126 H1134 0.930 . S
C1127 C1126 1.394 . S
C1127 C1128 1.383 . S
C1127 H1135 0.929 . S
C1128 C1127 1.383 . S
C1128 C1129 1.377 . S
C1129 H1113 0.930 . S
C1129 C1128 1.377 . S
C1129 C1130 1.379 . S
C1130 H1114 0.931 . S
C1130 C1124 1.383 . S
C1130 C1129 1.379 . S
H1131 C1125 0.959 . S
H1132 C1125 0.961 . S
H1133 C1125 0.960 . S
H1134 C1126 0.930 . S
H1135 C1127 0.929 . S
H1136 C1144 0.929 . S
H1137 C1146 0.930 . S
H1138 C1148 0.930 . S
H1139 C1151 0.929 . S
H1140 C1154 0.930 . S
H1141 C1156 0.960 . S
H1142 C1156 0.960 . S
H1143 C1156 0.960 . S
C1144 H1136 0.929 . S
C1144 C1145 1.377 . S
C1144 C1146 1.384 . S
C1145 C1144 1.377 . S
C1145 C1151 1.390 . S
C1146 H1137 0.930 . S
C1146 C1144 1.384 . S
C1146 C1147 1.372 . S
C1147 C1146 1.372 . S
C1147 C1148 1.400 . S
C1147 C1152 1.490 . S
C1148 H1138 0.930 . S
C1148 C1147 1.400 . S
C1148 C1151 1.386 . S
H1149 C1165 0.930 . S
H1150 C1166 0.931 . S
C1151 H1139 0.929 . S
C1151 C1145 1.390 . S
C1151 C1148 1.386 . S
C1152 C1147 1.490 . S
C1152 C1154 1.395 . S
C1152 C1155 1.403 . S
H1153 C1159 0.930 . S
C1154 H1140 0.930 . S
C1154 C1152 1.395 . S
C1154 C1157 1.403 . S
C1155 C1152 1.403 . S
C1155 C1156 1.524 . S
C1155 C1159 1.400 . S
C1156 H1141 0.960 . S
C1156 H1142 0.960 . S
C1156 H1143 0.960 . S
C1156 C1155 1.524 . S
C1157 C1154 1.403 . S
C1157 C1158 1.392 . S
C1157 C1161 1.495 . S
C1158 C1157 1.392 . S
C1158 C1159 1.385 . S
C1158 C1160 1.478 . S
C1159 H1153 0.930 . S
C1159 C1155 1.400 . S
C1159 C1158 1.385 . S
C1160 C1158 1.478 . S
C1160 C1162 1.381 . S
C1160 C1166 1.383 . S
C1161 C1157 1.495 . S
C1161 H1167 0.959 . S
C1161 H1168 0.961 . S
C1161 H1169 0.960 . S
C1162 C1160 1.381 . S
C1162 C1163 1.394 . S
C1162 H1170 0.930 . S
C1163 C1162 1.394 . S
C1163 C1164 1.383 . S
C1163 H1171 0.929 . S
C1164 C1163 1.383 . S
C1164 C1165 1.377 . S
C1165 H1149 0.930 . S
C1165 C1164 1.377 . S
C1165 C1166 1.379 . S
C1166 H1150 0.931 . S
C1166 C1160 1.383 . S
C1166 C1165 1.379 . S
H1167 C1161 0.959 . S
H1168 C1161 0.961 . S
H1169 C1161 0.960 . S
H1170 C1162 0.930 . S
H1171 C1163 0.929 . S
H1172 C1180 0.929 . S
H1173 C1182 0.930 . S
H1174 C1184 0.930 . S
H1175 C1187 0.929 1_554 S
H1176 C1190 0.930 . S
H1177 C1192 0.960 . S
H1178 C1192 0.960 . S
H1179 C1192 0.960 . S
C1180 H1172 0.929 . S
C1180 C1181 1.377 . S
C1180 C1182 1.384 . S
C1181 C1180 1.377 . S
C1181 C1187 1.390 . S
C1182 H1173 0.930 . S
C1182 C1180 1.384 . S
C1182 C1183 1.372 . S
C1183 C1182 1.372 . S
C1183 C1184 1.400 1_556 S
C1183 C1188 1.490 . S
C1184 H1174 0.930 . S
C1184 C1183 1.400 1_554 S
C1184 C1187 1.386 1_554 S
H1185 C1201 0.930 . S
H1186 C1202 0.931 . S
C1187 H1175 0.929 1_556 S
C1187 C1181 1.390 . S
C1187 C1184 1.386 1_556 S
C1188 C1183 1.490 . S
C1188 C1190 1.395 1_556 S
C1188 C1191 1.403 . S
H1189 C1195 0.930 . S
C1190 H1176 0.930 . S
C1190 C1188 1.395 1_554 S
C1190 C1193 1.403 . S
C1191 C1188 1.403 . S
C1191 C1192 1.524 . S
C1191 C1195 1.400 . S
C1192 H1177 0.960 . S
C1192 H1178 0.960 . S
C1192 H1179 0.960 . S
C1192 C1191 1.524 . S
C1193 C1190 1.403 . S
C1193 C1194 1.392 . S
C1193 C1197 1.495 . S
C1194 C1193 1.392 . S
C1194 C1195 1.385 1_554 S
C1194 C1196 1.478 . S
C1195 H1189 0.930 . S
C1195 C1191 1.400 . S
C1195 C1194 1.385 1_556 S
C1196 C1194 1.478 . S
C1196 C1198 1.381 1_554 S
C1196 C1202 1.383 . S
C1197 C1193 1.495 . S
C1197 H1203 0.959 . S
C1197 H1204 0.961 . S
C1197 H1205 0.960 . S
C1198 C1196 1.381 1_556 S
C1198 C1199 1.394 1_556 S
C1198 H1206 0.930 . S
C1199 C1198 1.394 1_554 S
C1199 C1200 1.383 . S
C1199 H1207 0.929 1_554 S
C1200 C1199 1.383 . S
C1200 C1201 1.377 . S
C1201 H1185 0.930 . S
C1201 C1200 1.377 . S
C1201 C1202 1.379 . S
C1202 H1186 0.931 . S
C1202 C1196 1.383 . S
C1202 C1201 1.379 . S
H1203 C1197 0.959 . S
H1204 C1197 0.961 . S
H1205 C1197 0.960 . S
H1206 C1198 0.930 . S
H1207 C1199 0.929 1_556 S
H1208 C1216 0.929 . S
H1209 C1218 0.930 . S
H1210 C1220 0.930 . S
H1211 C1223 0.929 . S
H1212 C1226 0.930 . S
H1213 C1228 0.960 . S
H1214 C1228 0.960 . S
H1215 C1228 0.960 . S
C1216 H1208 0.929 . S
C1216 C1217 1.377 . S
C1216 C1218 1.384 . S
C1217 C1216 1.377 . S
C1217 C1223 1.390 . S
C1218 H1209 0.930 . S
C1218 C1216 1.384 . S
C1218 C1219 1.372 . S
C1219 C1218 1.372 . S
C1219 C1220 1.400 . S
C1219 C1224 1.490 . S
C1220 H1210 0.930 . S
C1220 C1219 1.400 . S
C1220 C1223 1.386 . S
H1221 C1237 0.930 . S
H1222 C1238 0.931 . S
C1223 H1211 0.929 . S
C1223 C1217 1.390 . S
C1223 C1220 1.386 . S
C1224 C1219 1.490 . S
C1224 C1226 1.395 . S
C1224 C1227 1.403 . S
H1225 C1231 0.930 . S
C1226 H1212 0.930 . S
C1226 C1224 1.395 . S
C1226 C1229 1.403 . S
C1227 C1224 1.403 . S
C1227 C1228 1.524 . S
C1227 C1231 1.400 . S
C1228 H1213 0.960 . S
C1228 H1214 0.960 . S
C1228 H1215 0.960 . S
C1228 C1227 1.524 . S
C1229 C1226 1.403 . S
C1229 C1230 1.392 . S
C1229 C1233 1.495 . S
C1230 C1229 1.392 . S
C1230 C1231 1.385 . S
C1230 C1232 1.478 . S
C1231 H1225 0.930 . S
C1231 C1227 1.400 . S
C1231 C1230 1.385 . S
C1232 C1230 1.478 . S
C1232 C1234 1.381 . S
C1232 C1238 1.383 . S
C1233 C1229 1.495 . S
C1233 H1239 0.959 . S
C1233 H1240 0.961 . S
C1233 H1241 0.960 . S
C1234 C1232 1.381 . S
C1234 C1235 1.394 . S
C1234 H1242 0.930 . S
C1235 C1234 1.394 . S
C1235 C1236 1.383 . S
C1235 H1243 0.929 . S
C1236 C1235 1.383 . S
C1236 C1237 1.377 . S
C1237 H1221 0.930 . S
C1237 C1236 1.377 . S
C1237 C1238 1.379 . S
C1238 H1222 0.931 . S
C1238 C1232 1.383 . S
C1238 C1237 1.379 . S
H1239 C1233 0.959 . S
H1240 C1233 0.961 . S
H1241 C1233 0.960 . S
H1242 C1234 0.930 . S
H1243 C1235 0.929 . S
H1244 C1252 0.929 . S
H1245 C1254 0.930 . S
H1246 C1256 0.930 . S
H1247 C1259 0.929 . S
H1248 C1262 0.930 . S
H1249 C1264 0.960 . S
H1250 C1264 0.960 . S
H1251 C1264 0.960 . S
C1252 H1244 0.929 . S
C1252 C1253 1.377 . S
C1252 C1254 1.384 . S
C1253 C1252 1.377 . S
C1253 C1259 1.390 . S
C1254 H1245 0.930 . S
C1254 C1252 1.384 . S
C1254 C1255 1.372 . S
C1255 C1254 1.372 . S
C1255 C1256 1.400 . S
C1255 C1260 1.490 . S
C1256 H1246 0.930 . S
C1256 C1255 1.400 . S
C1256 C1259 1.386 . S
H1257 C1273 0.930 . S
H1258 C1274 0.931 . S
C1259 H1247 0.929 . S
C1259 C1253 1.390 . S
C1259 C1256 1.386 . S
C1260 C1255 1.490 . S
C1260 C1262 1.395 . S
C1260 C1263 1.403 . S
H1261 C1267 0.930 . S
C1262 H1248 0.930 . S
C1262 C1260 1.395 . S
C1262 C1265 1.403 . S
C1263 C1260 1.403 . S
C1263 C1264 1.524 . S
C1263 C1267 1.400 . S
C1264 H1249 0.960 . S
C1264 H1250 0.960 . S
C1264 H1251 0.960 . S
C1264 C1263 1.524 . S
C1265 C1262 1.403 . S
C1265 C1266 1.392 . S
C1265 C1269 1.495 . S
C1266 C1265 1.392 . S
C1266 C1267 1.385 . S
C1266 C1268 1.478 . S
C1267 H1261 0.930 . S
C1267 C1263 1.400 . S
C1267 C1266 1.385 . S
C1268 C1266 1.478 . S
C1268 C1270 1.381 . S
C1268 C1274 1.383 . S
C1269 C1265 1.495 . S
C1269 H1275 0.959 . S
C1269 H1276 0.961 . S
C1269 H1277 0.960 . S
C1270 C1268 1.381 . S
C1270 C1271 1.394 . S
C1270 H1278 0.930 . S
C1271 C1270 1.394 . S
C1271 C1272 1.383 . S
C1271 H1279 0.929 . S
C1272 C1271 1.383 . S
C1272 C1273 1.377 . S
C1273 H1257 0.930 . S
C1273 C1272 1.377 . S
C1273 C1274 1.379 . S
C1274 H1258 0.931 . S
C1274 C1268 1.383 . S
C1274 C1273 1.379 . S
H1275 C1269 0.959 . S
H1276 C1269 0.961 . S
H1277 C1269 0.960 . S
H1278 C1270 0.930 . S
H1279 C1271 0.929 . S
C713 C108 1.308 . S
C732 C57 1.297 . S
C749 C145 1.303 . S
C768 C205 1.315 . S
C785 C293 1.306 . S
C804 C225 1.300 . S
C821 C313 1.305 . S
C840 C20 1.304 . S
C857 C409 1.307 . S
C876 C460 1.300 . S
C893 C497 1.304 . S
C912 C557 1.315 . S
C929 C577 1.308 . S
C948 C645 1.291 . S
C965 C372 1.308 . S
C984 C665 1.293 . S
C1001 C49 1.487 . S
C1020 C636 1.474 . S
C1037 C381 1.483 . S
C1056 C137 1.487 . S
C1073 C469 1.487 . S
C1092 C233 1.477 . S
C1109 C321 1.486 . S
C1128 C548 1.487 . S
C1145 C196 1.483 . S
C1164 C673 1.490 . S
C1181 C401 1.483 . S
C1200 C284 1.481 . S
C1217 C489 1.487 . S
C1236 C29 1.475 . S
C1253 C117 1.483 . S
C1272 C585 1.489 . S
