# Generated by pormake.
# Topology unu, (4)-cn, num edge types: 1
# Building blocks:
#     Node 0, Type 0, BuildingBlock: ICAMEG_clean_sbu_1, # of connection points: 4
#     Node 1, Type 0, BuildingBlock: ICAMEG_clean_sbu_1, # of connection points: 4
#     Node 2, Type 0, BuildingBlock: ICAMEG_clean_sbu_1, # of connection points: 4
#     Node 3, Type 0, BuildingBlock: ICAMEG_clean_sbu_1, # of connection points: 4
#     Node 4, Type 0, BuildingBlock: ICAMEG_clean_sbu_1, # of connection points: 4
#     Node 5, Type 0, BuildingBlock: ICAMEG_clean_sbu_1, # of connection points: 4
#     Node 6, Type 0, BuildingBlock: ICAMEG_clean_sbu_1, # of connection points: 4
#     Node 7, Type 0, BuildingBlock: ICAMEG_clean_sbu_1, # of connection points: 4
#     Node 8, Type 0, BuildingBlock: ICAMEG_clean_sbu_1, # of connection points: 4
#     Node 9, Type 0, BuildingBlock: ICAMEG_clean_sbu_1, # of connection points: 4
#     Node 10, Type 0, BuildingBlock: ICAMEG_clean_sbu_1, # of connection points: 4
#     Node 11, Type 0, BuildingBlock: ICAMEG_clean_sbu_1, # of connection points: 4
#     Node 12, Type 0, BuildingBlock: ICAMEG_clean_sbu_1, # of connection points: 4
#     Node 13, Type 0, BuildingBlock: ICAMEG_clean_sbu_1, # of connection points: 4
#     Node 14, Type 0, BuildingBlock: ICAMEG_clean_sbu_1, # of connection points: 4
#     Node 15, Type 0, BuildingBlock: ICAMEG_clean_sbu_1, # of connection points: 4
#     Node 16, Type 0, BuildingBlock: ICAMEG_clean_sbu_1, # of connection points: 4
#     Node 17, Type 0, BuildingBlock: ICAMEG_clean_sbu_1, # of connection points: 4
#     Node 18, Type 0, BuildingBlock: ICAMEG_clean_sbu_1, # of connection points: 4
#     Node 19, Type 0, BuildingBlock: ICAMEG_clean_sbu_1, # of connection points: 4
#     Node 20, Type 0, BuildingBlock: ICAMEG_clean_sbu_1, # of connection points: 4
#     Node 21, Type 0, BuildingBlock: ICAMEG_clean_sbu_1, # of connection points: 4
#     Node 22, Type 0, BuildingBlock: ICAMEG_clean_sbu_1, # of connection points: 4
#     Node 23, Type 0, BuildingBlock: ICAMEG_clean_sbu_1, # of connection points: 4
#     Node 24, Type 0, BuildingBlock: ICAMEG_clean_sbu_1, # of connection points: 4
#     Node 25, Type 0, BuildingBlock: ICAMEG_clean_sbu_1, # of connection points: 4
#     Node 26, Type 0, BuildingBlock: ICAMEG_clean_sbu_1, # of connection points: 4
#     Node 27, Type 0, BuildingBlock: ICAMEG_clean_sbu_1, # of connection points: 4
#     Node 28, Type 0, BuildingBlock: ICAMEG_clean_sbu_1, # of connection points: 4
#     Node 29, Type 0, BuildingBlock: ICAMEG_clean_sbu_1, # of connection points: 4
#     Node 30, Type 0, BuildingBlock: ICAMEG_clean_sbu_1, # of connection points: 4
#     Node 31, Type 0, BuildingBlock: ICAMEG_clean_sbu_1, # of connection points: 4
#     Node 32, Type 0, BuildingBlock: ICAMEG_clean_sbu_1, # of connection points: 4
#     Node 33, Type 0, BuildingBlock: ICAMEG_clean_sbu_1, # of connection points: 4
#     Node 34, Type 0, BuildingBlock: ICAMEG_clean_sbu_1, # of connection points: 4
#     Node 35, Type 0, BuildingBlock: ICAMEG_clean_sbu_1, # of connection points: 4
#     Edge 36, Type (0, 0), None
#     Edge 37, Type (0, 0), None
#     Edge 38, Type (0, 0), None
#     Edge 39, Type (0, 0), None
#     Edge 40, Type (0, 0), None
#     Edge 41, Type (0, 0), None
#     Edge 42, Type (0, 0), None
#     Edge 43, Type (0, 0), None
#     Edge 44, Type (0, 0), None
#     Edge 45, Type (0, 0), None
#     Edge 46, Type (0, 0), None
#     Edge 47, Type (0, 0), None
#     Edge 48, Type (0, 0), None
#     Edge 49, Type (0, 0), None
#     Edge 50, Type (0, 0), None
#     Edge 51, Type (0, 0), None
#     Edge 52, Type (0, 0), None
#     Edge 53, Type (0, 0), None
#     Edge 54, Type (0, 0), None
#     Edge 55, Type (0, 0), None
#     Edge 56, Type (0, 0), None
#     Edge 57, Type (0, 0), None
#     Edge 58, Type (0, 0), None
#     Edge 59, Type (0, 0), None
#     Edge 60, Type (0, 0), None
#     Edge 61, Type (0, 0), None
#     Edge 62, Type (0, 0), None
#     Edge 63, Type (0, 0), None
#     Edge 64, Type (0, 0), None
#     Edge 65, Type (0, 0), None
#     Edge 66, Type (0, 0), None
#     Edge 67, Type (0, 0), None
#     Edge 68, Type (0, 0), None
#     Edge 69, Type (0, 0), None
#     Edge 70, Type (0, 0), None
#     Edge 71, Type (0, 0), None
#     Edge 72, Type (0, 0), None
#     Edge 73, Type (0, 0), None
#     Edge 74, Type (0, 0), None
#     Edge 75, Type (0, 0), None
#     Edge 76, Type (0, 0), None
#     Edge 77, Type (0, 0), None
#     Edge 78, Type (0, 0), None
#     Edge 79, Type (0, 0), None
#     Edge 80, Type (0, 0), None
#     Edge 81, Type (0, 0), None
#     Edge 82, Type (0, 0), None
#     Edge 83, Type (0, 0), None
#     Edge 84, Type (0, 0), None
#     Edge 85, Type (0, 0), None
#     Edge 86, Type (0, 0), None
#     Edge 87, Type (0, 0), None
#     Edge 88, Type (0, 0), None
#     Edge 89, Type (0, 0), None
#     Edge 90, Type (0, 0), None
#     Edge 91, Type (0, 0), None
#     Edge 92, Type (0, 0), None
#     Edge 93, Type (0, 0), None
#     Edge 94, Type (0, 0), None
#     Edge 95, Type (0, 0), None
#     Edge 96, Type (0, 0), None
#     Edge 97, Type (0, 0), None
#     Edge 98, Type (0, 0), None
#     Edge 99, Type (0, 0), None
#     Edge 100, Type (0, 0), None
#     Edge 101, Type (0, 0), None
#     Edge 102, Type (0, 0), None
#     Edge 103, Type (0, 0), None
#     Edge 104, Type (0, 0), None
#     Edge 105, Type (0, 0), None
#     Edge 106, Type (0, 0), None
#     Edge 107, Type (0, 0), None
# Relax obj value: 0.060
# Max RMSD: 0.143
# Mean RMSD: 0.143
data_MOF--net-unu--node1-ICAMEG_clean_sbu_1--edge1-none
_symmetry_space_group_name_H-M    P1
_symmetry_Int_Tables_number       1
_symmetry_cell_setting            triclinic
loop_
_symmetry_equiv_pos_as_xyz
'x, y, z'
_cell_length_a     22.519608
_cell_length_b     22.514184
_cell_length_c     60.7327
_cell_angle_alpha  90.105733
_cell_angle_beta   89.931298
_cell_angle_gamma 120.21952
loop_
_atom_site_label
_atom_site_type_symbol
_atom_site_fract_x
_atom_site_fract_y
_atom_site_fract_z
_atom_type_partial_charge
Co0 Co 0.17599 0.023 0.12633 0.0
Co1 Co 0.17724 0.01365 0.07035 0.0
O2 O 0.21309 0.01708 0.099 0.0
C3 C 0.31137 0.1536 0.13049 0.0
O4 O 0.29514 0.17828 0.11344 0.0
C5 C 0.17873 0.88731 0.05455 0.0
O6 O 0.11184 0.85773 0.05227 0.0
O7 O 0.08453 0.93535 0.07906 0.0
O8 O 0.07913 0.95534 0.11552 0.0
H9 H 0.96789 0.00417 -0.01264 0.0
H10 H 0.2936 0.99766 0.12817 0.0
O11 O 0.27188 0.09181 0.13677 0.0
H12 H 0.09911 0.79513 0.16287 0.0
H13 H 0.2201 0.05975 0.20537 0.0
H14 H 0.08007 0.06809 0.14494 0.0
H15 H 0.08283 0.88608 0.14645 0.0
H16 H 0.21802 0.00908 0.17067 0.0
O17 O 0.21293 0.9487 0.06218 0.0
H18 H 0.04912 0.98694 0.04726 0.0
H19 H 0.24213 0.01821 0.02985 0.0
H20 H 0.08489 0.12453 0.18058 0.0
H21 H 0.31334 0.91176 0.14666 0.0
H22 H 0.15557 0.11936 0.21093 0.0
H23 H 0.21605 0.80947 0.16358 0.0
O24 O 0.16109 0.09842 0.11539 0.0
H25 H 0.43606 0.15259 0.06729 0.0
H26 H 0.22081 0.14661 0.04793 0.0
H27 H 0.33162 0.24443 0.0359 0.0
H28 H 0.43954 0.24453 0.04393 0.0
H29 H 0.32401 0.053 0.07768 0.0
H30 H 0.22175 0.02336 -0.00856 0.0
H31 H 0.12219 0.02221 -0.02074 0.0
O32 O 0.1407 0.07717 0.07902 0.0
C33 C 0.05101 0.92476 0.09716 0.0
C34 C 0.07044 0.01018 0.01163 0.0
C35 C 0.18346 0.01759 0.00333 0.0
N36 N 0.1473 0.00889 0.04025 0.0
C37 C 0.08502 1.00085 0.03418 0.0
C38 C 0.1941 0.01418 0.02508 0.0
C39 C 0.12549 0.01784 -0.00309 0.0
C40 C 0.25073 0.95341 0.13572 0.0
N41 N 0.18717 0.94723 0.13633 0.0
C42 C 0.26213 0.9045 0.14587 0.0
C43 C 0.2073 0.84703 0.15551 0.0
C44 C 0.14192 0.8393 0.15518 0.0
C45 C 0.13281 0.8905 0.14557 0.0
C46 C 0.18627 0.05898 0.19279 0.0
C47 C 0.1088 0.06414 0.1584 0.0
C48 C 0.18363 0.02879 0.17272 0.0
N49 N 0.14652 0.03264 0.15546 0.0
C50 C 0.11079 0.09564 0.17851 0.0
C51 C 0.15024 0.09309 0.19566 0.0
C52 C 0.13901 0.10703 0.09697 0.0
C53 C 0.38891 0.15055 0.06247 0.0
C54 C 0.26787 0.14741 0.05211 0.0
C55 C 0.33037 0.20282 0.04518 0.0
C56 C 0.39105 0.20334 0.04995 0.0
N57 N 0.26577 0.09324 0.063 0.0
C58 C 0.32537 0.09493 0.0686 0.0
Co59 Co 0.99583 0.16605 0.12562 0.0
Co60 Co 0.00667 0.17286 0.06985 0.0
O61 O 0.99968 0.20608 0.09796 0.0
C62 C 0.86452 0.1685 0.12839 0.0
O63 O 0.84237 0.13 0.11065 0.0
C64 C 0.13096 0.30713 0.05646 0.0
O65 O 0.16705 0.27607 0.0563 0.0
O66 O 0.08738 0.16447 0.07932 0.0
O67 O 0.06553 0.13888 0.11559 0.0
H68 H 0.01159 0.96766 -0.01259 0.0
H69 H 0.01601 0.30684 0.12576 0.0
O70 O 0.92522 0.19035 0.13551 0.0
H71 H 0.21823 0.32604 0.16384 0.0
H72 H 0.96637 0.18022 0.20482 0.0
H73 H 0.95479 0.02679 0.14546 0.0
H74 H 0.13362 0.21694 0.14622 0.0
H75 H 0.00558 0.22438 0.16907 0.0
O76 O 0.0674 0.27409 0.06176 0.0
H77 H 0.03266 0.06946 0.04737 0.0
H78 H 0.00608 0.23309 0.02915 0.0
H79 H 0.91075 0.97892 0.18269 0.0
H80 H 0.09494 0.41362 0.14547 0.0
H81 H 0.92127 0.05762 0.21297 0.0
H82 H 0.19577 0.42365 0.16448 0.0
O83 O 0.92208 0.07443 0.1152 0.0
H84 H 0.86422 0.28329 0.05648 0.0
H85 H 0.87552 0.07199 0.04891 0.0
H86 H 0.77616 0.07539 0.0339 0.0
H87 H 0.77315 0.1836 0.03574 0.0
H88 H 0.96144 0.27726 0.07218 0.0
H89 H 0.99532 0.2034 -0.00866 0.0
H90 H 0.99116 0.10276 -0.02053 0.0
O91 O 0.94668 0.07307 0.07916 0.0
C92 C 0.09766 0.14225 0.09753 0.0
C93 C 0.0079 0.06569 0.01161 0.0
C94 C 1.00267 0.17207 0.00314 0.0
N95 N 0.01439 0.14743 0.04 0.0
C96 C 0.01962 0.09142 0.03411 0.0
C97 C 0.00965 0.18867 0.02468 0.0
C98 C 0.99901 0.11216 -0.00305 0.0
C99 C 0.06042 0.31078 0.13396 0.0
N100 N 0.06963 0.25531 0.13511 0.0
C101 C 0.10539 0.37178 0.14476 0.0
C102 C 0.16234 0.37732 0.15553 0.0
C103 C 0.17424 0.32227 0.15533 0.0
C104 C 0.12672 0.26097 0.14505 0.0
C105 C 0.96696 0.14606 0.19259 0.0
C106 C 0.95989 0.06072 0.15873 0.0
C107 C 0.99053 0.17142 0.17181 0.0
N108 N 0.98752 0.12943 0.155 0.0
C109 C 0.93546 0.03336 0.17971 0.0
C110 C 0.94026 0.0769 0.19675 0.0
C111 C 0.91491 0.04289 0.09703 0.0
C112 C 0.86606 0.23672 0.05489 0.0
C113 C 0.87246 0.11797 0.0512 0.0
C114 C 0.81639 0.11978 0.04237 0.0
C115 C 0.8144 0.18036 0.04364 0.0
N116 N 0.92474 0.17471 0.06125 0.0
C117 C 0.92097 0.2329 0.06383 0.0
Co118 Co 0.85244 0.84187 0.12585 0.0
Co119 Co 0.84159 0.84396 0.07007 0.0
O120 O 0.81021 0.80473 0.09832 0.0
C121 C 0.85684 0.71286 0.13346 0.0
O122 O 0.91521 0.73881 0.12275 0.0
C123 C 0.7088 0.83964 0.05743 0.0
O124 O 0.74366 0.90697 0.05614 0.0
O125 O 0.85397 0.93401 0.07983 0.0
O126 O 0.88174 0.93871 0.11594 0.0
H127 H 0.04839 0.04812 -0.01291 0.0
H128 H 0.70908 0.72301 0.12703 0.0
O129 O 0.82455 0.74559 0.13526 0.0
H130 H 0.6984 0.91513 0.16212 0.0
H131 H 0.84186 0.79918 0.20527 0.0
H132 H 0.99313 0.93997 0.14523 0.0
H133 H 0.80734 0.93278 0.14658 0.0
H134 H 0.79561 0.79497 0.16963 0.0
O135 O 0.73948 0.80693 0.06292 0.0
H136 H 0.95002 0.97038 0.04771 0.0
H137 H 0.77546 0.78708 0.02942 0.0
H138 H 0.04265 0.94297 0.18206 0.0
H139 H 0.60237 0.70158 0.14508 0.0
H140 H 0.96506 0.87311 0.21245 0.0
H141 H 0.59543 0.79794 0.16185 0.0
O142 O 0.94352 0.85973 0.1148 0.0
H143 H 0.71463 0.59675 0.04636 0.0
H144 H 0.9399 0.80724 0.05057 0.0
H145 H 0.92925 0.70606 0.03179 0.0
H146 H 0.81435 0.60156 0.02827 0.0
H147 H 0.72832 0.69546 0.06826 0.0
H148 H 0.8095 0.79889 -0.00792 0.0
H149 H 0.91504 0.88873 -0.0195 0.0
O150 O 0.94256 0.88235 0.07863 0.0
C151 C 0.8782 0.96689 0.09788 0.0
C152 C 0.95187 0.94725 0.01204 0.0
C153 C 0.84194 0.83779 0.00376 0.0
N154 N 0.86635 0.87707 0.04031 0.0
C155 C 0.92587 0.93557 0.03447 0.0
C156 C 0.82291 0.83237 0.02501 0.0
C157 C 0.90487 0.89039 -0.00224 0.0
C158 C 0.70724 0.76537 0.1347 0.0
N159 N 0.76471 0.82907 0.1358 0.0
C160 C 0.64607 0.75309 0.14448 0.0
C161 C 0.6425 0.80731 0.15411 0.0
C162 C 0.70038 0.87285 0.15434 0.0
C163 C 0.76169 0.88272 0.14524 0.0
C164 C 0.87549 0.83305 0.19275 0.0
C165 C 0.95973 0.91083 0.15856 0.0
C166 C 0.84914 0.83191 0.17214 0.0
N167 N 0.89072 0.87022 0.15514 0.0
C168 C 0.98807 0.91306 0.17931 0.0
C169 C 0.94517 0.87398 0.19645 0.0
C170 C 0.97427 0.88323 0.09644 0.0
C171 C 0.76443 0.64181 0.04831 0.0
C172 C 0.89096 0.76013 0.05105 0.0
C173 C 0.88502 0.70333 0.03984 0.0
C174 C 0.82078 0.64462 0.03793 0.0
N175 N 0.83479 0.75792 0.06067 0.0
C176 C 0.77271 0.69831 0.06039 0.0
Co177 Co 0.02067 0.17488 0.31423 0.0
Co178 Co 0.01345 0.17581 0.37017 0.0
O179 O 0.0174 0.21231 0.34172 0.0
C180 C 0.15096 0.3099 0.31013 0.0
O181 O 0.17477 0.29379 0.32743 0.0
C182 C 0.88714 0.17748 0.38588 0.0
O183 O 0.85712 0.11048 0.38793 0.0
O184 O 0.93485 0.08285 0.36137 0.0
O185 O 0.95343 0.07813 0.32484 0.0
H186 H 0.00533 0.96649 0.45281 0.0
H187 H 0.99875 0.29475 0.31249 0.0
O188 O 0.08956 0.27026 0.30356 0.0
H189 H 0.78712 0.10014 0.282 0.0
H190 H 0.02606 0.20207 0.23391 0.0
H191 H 0.07036 0.08382 0.29383 0.0
H192 H 0.87918 0.08235 0.29647 0.0
H193 H 0.99979 0.21542 0.2706 0.0
O194 O 0.94868 0.2116 0.37842 0.0
H195 H 0.98704 0.0477 0.39303 0.0
H196 H 0.0179 0.2404 0.41071 0.0
H197 H 0.10896 0.07956 0.25598 0.0
H198 H 0.91248 0.31582 0.29504 0.0
H199 H 0.07572 0.12967 0.22521 0.0
H200 H 0.80514 0.21854 0.28067 0.0
O201 O 0.09599 0.1586 0.32458 0.0
H202 H 0.15366 0.43473 0.37355 0.0
H203 H 0.14614 0.21853 0.39258 0.0
H204 H 0.24448 0.32895 0.40467 0.0
H205 H 0.24533 0.43735 0.39683 0.0
H206 H 0.05341 0.32304 0.36315 0.0
H207 H 0.02212 0.21939 0.4491 0.0
H208 H 0.02096 0.11975 0.46116 0.0
O209 O 0.07698 0.13964 0.3612 0.0
C210 C 0.92356 0.04957 0.34316 0.0
C211 C 0.00984 0.0686 0.42872 0.0
C212 C 0.01664 0.18129 0.43717 0.0
N213 N 0.00861 0.14561 0.4002 0.0
C214 C 1.00069 0.08336 0.40618 0.0
C215 C 0.01372 0.19227 0.41542 0.0
C216 C 0.01682 0.12326 0.44352 0.0
C217 C 0.95271 0.25183 0.30577 0.0
N218 N 0.94459 0.18741 0.30538 0.0
C219 C 0.90345 0.26403 0.29632 0.0
C220 C 0.84324 0.2092 0.288 0.0
C221 C 0.83346 0.14301 0.2887 0.0
C222 C 0.88536 0.13309 0.29728 0.0
C223 C 0.0336 0.17331 0.2465 0.0
C224 C 0.05896 0.10838 0.28067 0.0
C225 C 0.01674 0.17912 0.26787 0.0
N226 N 0.02703 0.14517 0.2848 0.0
C227 C 0.07965 0.10428 0.25923 0.0
C228 C 0.06379 0.13445 0.24198 0.0
C229 C 0.10596 0.13755 0.34308 0.0
C230 C 0.15122 0.38736 0.37832 0.0
C231 C 0.14724 0.26579 0.38849 0.0
C232 C 0.20295 0.32807 0.39545 0.0
C233 C 0.2039 0.38902 0.39078 0.0
N234 N 0.09318 0.26416 0.37766 0.0
C235 C 0.09525 0.32402 0.37218 0.0
Co236 Co 0.84201 0.85 0.31422 0.0
Co237 Co 0.84384 0.84023 0.37008 0.0
O238 O 0.80408 0.80909 0.34184 0.0
C239 C 0.71209 0.85225 0.30752 0.0
O240 O 0.73362 0.90385 0.32134 0.0
C241 C 0.83995 0.70736 0.38244 0.0
O242 O 0.90731 0.74204 0.38349 0.0
O243 O 0.93419 0.85299 0.36031 0.0
O244 O 0.93839 0.8794 0.3242 0.0
H245 H 0.04852 0.04705 0.45316 0.0
H246 H 0.72167 0.70791 0.31304 0.0
O247 O 0.74687 0.82289 0.30401 0.0
H248 H 0.91372 0.68921 0.28174 0.0
H249 H 0.80845 0.8322 0.23396 0.0
H250 H 0.93513 0.99115 0.29434 0.0
H251 H 0.93265 0.80066 0.29539 0.0
H252 H 0.80042 0.78958 0.27029 0.0
O253 O 0.80719 0.73815 0.37716 0.0
H254 H 0.9703 0.94873 0.39244 0.0
H255 H 0.78744 0.77386 0.41071 0.0
H256 H 0.93557 0.03674 0.25727 0.0
H257 H 0.69918 0.59918 0.29639 0.0
H258 H 0.87767 0.95577 0.22629 0.0
H259 H 0.7954 0.58785 0.28176 0.0
O260 O 0.86023 0.94194 0.32508 0.0
H261 H 0.59762 0.71238 0.39454 0.0
H262 H 0.80698 0.93833 0.38969 0.0
H263 H 0.70627 0.92725 0.40887 0.0
H264 H 0.60238 0.81202 0.4127 0.0
H265 H 0.69554 0.72652 0.37213 0.0
H266 H 0.80014 0.80702 0.44813 0.0
H267 H 0.8905 0.91211 0.45987 0.0
O268 O 0.88153 0.941 0.36149 0.0
C269 C 0.96686 0.87662 0.34221 0.0
C270 C 0.94794 0.94999 0.42821 0.0
C271 C 0.83877 0.83973 0.43645 0.0
N272 N 0.87725 0.86492 0.39985 0.0
C273 C 0.93581 0.92438 0.40572 0.0
C274 C 0.83281 0.82124 0.41512 0.0
C275 C 0.89163 0.90241 0.44254 0.0
C276 C 0.76402 0.70452 0.30608 0.0
N277 N 0.82838 0.76112 0.30507 0.0
C278 C 0.7511 0.64206 0.29718 0.0
C279 C 0.80526 0.63611 0.28871 0.0
C280 C 0.87142 0.69308 0.28862 0.0
C281 C 0.88198 0.75586 0.29667 0.0
C282 C 0.83886 0.86768 0.24668 0.0
C283 C 0.90858 0.95596 0.28107 0.0
C284 C 0.83605 0.84336 0.26773 0.0
N285 N 0.8713 0.8868 0.2848 0.0
C286 C 0.91028 0.9823 0.26005 0.0
C287 C 0.8767 0.93743 0.24269 0.0
C288 C 0.88268 0.97265 0.34362 0.0
C289 C 0.64233 0.76233 0.39242 0.0
C290 C 0.76002 0.88924 0.38931 0.0
C291 C 0.70351 0.88306 0.40077 0.0
C292 C 0.64516 0.81863 0.40286 0.0
N293 N 0.75782 0.83313 0.37963 0.0
C294 C 0.69841 0.77087 0.38005 0.0
Co295 Co 0.16604 0.99592 0.31423 0.0
Co296 Co 0.17284 0.0057 0.37008 0.0
O297 O 0.20526 0.99795 0.34195 0.0
C298 C 0.17059 0.86619 0.31151 0.0
O299 O 0.13459 0.84564 0.32977 0.0
C300 C 0.30821 0.13028 0.38299 0.0
O301 O 0.27803 0.16718 0.38264 0.0
O302 O 0.16438 0.08658 0.36066 0.0
O303 O 0.13829 0.06473 0.32447 0.0
H304 H 0.96803 0.00947 0.45291 0.0
H305 H 0.30583 0.01397 0.31352 0.0
O306 O 0.19018 0.92577 0.30378 0.0
H307 H 0.3327 0.22803 0.28225 0.0
H308 H 0.18788 0.99057 0.23351 0.0
H309 H 0.02606 0.94965 0.29378 0.0
H310 H 0.22 0.138 0.29618 0.0
H311 H 0.22772 0.01523 0.27052 0.0
O312 O 0.27435 0.06636 0.3781 0.0
H313 H 0.06922 0.03105 0.39272 0.0
H314 H 0.23382 0.00587 0.41073 0.0
H315 H 0.98228 0.91275 0.25584 0.0
H316 H 0.41572 0.09799 0.29665 0.0
H317 H 0.06534 0.94154 0.2251 0.0
H318 H 0.43033 0.2056 0.28164 0.0
O319 O 0.0741 0.92171 0.3245 0.0
H320 H 0.28293 0.86318 0.38403 0.0
H321 H 0.07181 0.8749 0.39105 0.0
H322 H 0.07495 0.77577 0.40634 0.0
H323 H 0.18303 0.77259 0.40479 0.0
H324 H 0.27706 0.96008 0.36795 0.0
H325 H 0.20527 0.99619 0.44857 0.0
H326 H 0.10478 0.99204 0.46067 0.0
O327 O 0.07314 0.94558 0.36074 0.0
C328 C 0.14174 0.09675 0.3425 0.0
C329 C 0.06641 0.00712 0.42854 0.0
C330 C 0.17348 1.00303 0.43684 0.0
N331 N 0.14782 0.01375 0.39999 0.0
C332 C 0.09163 0.01852 0.40597 0.0
C333 C 0.18948 0.00947 0.41525 0.0
C334 C 0.11366 0.99929 0.44315 0.0
C335 C 0.31105 0.06048 0.30657 0.0
N336 N 0.256 0.07041 0.30558 0.0
C337 C 0.37399 0.10849 0.29754 0.0
C338 C 0.38198 0.16915 0.28893 0.0
C339 C 0.32699 0.18112 0.28914 0.0
C340 C 0.26357 0.13038 0.29735 0.0
C341 C 0.15173 0.98313 0.24629 0.0
C342 C 0.06179 0.95979 0.28058 0.0
C343 C 0.1746 0.99927 0.26773 0.0
N344 N 0.13061 0.99 0.2847 0.0
C345 C 0.03657 0.93967 0.25912 0.0
C346 C 0.08246 0.95394 0.24185 0.0
C347 C 0.04288 0.91381 0.34285 0.0
C348 C 0.23637 0.86508 0.38547 0.0
C349 C 0.11772 0.8717 0.38883 0.0
C350 C 0.11939 0.81576 0.39784 0.0
C351 C 0.17991 0.81369 0.39673 0.0
N352 N 0.17452 0.92373 0.37875 0.0
C353 C 0.23265 0.91982 0.37632 0.0
Co354 Co 0.83241 0.9839 0.81398 0.0
Co355 Co 0.83121 0.99327 0.86996 0.0
O356 O 0.79533 0.98983 0.84132 0.0
C357 C 0.69703 0.85329 0.80982 0.0
O358 O 0.71328 0.82859 0.82686 0.0
C359 C 0.82971 0.11961 0.88576 0.0
O360 O 0.8966 0.14919 0.88804 0.0
O361 O 0.92391 0.07157 0.86125 0.0
O362 O 0.92927 0.05156 0.82478 0.0
H363 H 0.04062 1.00278 0.95293 0.0
H364 H 0.7148 0.00924 0.81215 0.0
O365 O 0.73651 0.91509 0.80354 0.0
H366 H 0.90926 0.21173 0.77742 0.0
H367 H 0.78815 0.94698 0.73495 0.0
H368 H 0.92832 0.93881 0.79537 0.0
H369 H 0.92556 0.12081 0.79385 0.0
H370 H 0.79034 0.9978 0.76963 0.0
O371 O 0.79551 0.05821 0.87813 0.0
H372 H 0.95934 0.01999 0.89304 0.0
H373 H 0.76634 0.98871 0.91046 0.0
H374 H 0.92338 0.88224 0.75974 0.0
H375 H 0.69504 0.09511 0.79364 0.0
H376 H 0.85262 0.8873 0.72941 0.0
H377 H 0.79232 0.19738 0.77671 0.0
O378 O 0.84732 0.90848 0.82492 0.0
H379 H 0.57238 0.85429 0.87303 0.0
H380 H 0.78766 0.86032 0.89238 0.0
H381 H 0.67686 0.76248 0.90441 0.0
H382 H 0.56893 0.76235 0.89639 0.0
H383 H 0.68442 0.9539 0.86265 0.0
H384 H 0.78674 0.98356 0.94887 0.0
H385 H 0.88632 0.98474 0.96105 0.0
O386 O 0.86775 0.92976 0.86129 0.0
C387 C 0.95741 0.08215 0.84314 0.0
C388 C 0.93805 0.99676 0.92868 0.0
C389 C 0.82503 0.98934 0.93698 0.0
N390 N 0.86117 0.99804 0.90006 0.0
C391 C 0.92345 0.00608 0.90612 0.0
C392 C 0.81437 0.99274 0.91523 0.0
C393 C 0.883 0.9891 0.9434 0.0
C394 C 0.75766 0.05349 0.80459 0.0
N395 N 0.82122 0.05967 0.80398 0.0
C396 C 0.74626 0.10238 0.79443 0.0
C397 C 0.80108 0.15984 0.78478 0.0
C398 C 0.86646 0.16757 0.78512 0.0
C399 C 0.87557 0.11638 0.79473 0.0
C400 C 0.82201 0.94779 0.74753 0.0
C401 C 0.89956 0.94272 0.78191 0.0
C402 C 0.82472 0.97806 0.76759 0.0
N403 N 0.86185 0.97423 0.78485 0.0
C404 C 0.89751 0.91115 0.76181 0.0
C405 C 0.85801 0.91365 0.74466 0.0
C406 C 0.86942 0.89988 0.84334 0.0
C407 C 0.61954 0.85634 0.87785 0.0
C408 C 0.7406 0.8595 0.8882 0.0
C409 C 0.6781 0.80409 0.89513 0.0
C410 C 0.61742 0.80355 0.89037 0.0
N411 N 0.74268 0.91367 0.87731 0.0
C412 C 0.68307 0.91198 0.87172 0.0
Co413 Co 0.01258 0.84085 0.81468 0.0
Co414 Co 1.00177 0.83405 0.87045 0.0
O415 O 0.00875 0.80084 0.84234 0.0
C416 C 0.14389 0.83841 0.81191 0.0
O417 O 0.16601 0.87688 0.82965 0.0
C418 C 0.87748 0.69979 0.88384 0.0
O419 O 0.84139 0.73084 0.884 0.0
O420 O 0.92106 0.84245 0.86099 0.0
O421 O 0.94288 0.86801 0.82472 0.0
H422 H 0.99692 0.0393 0.95289 0.0
H423 H 0.99243 0.70007 0.81453 0.0
O424 O 0.0832 0.81657 0.80478 0.0
H425 H 0.79012 0.6808 0.7765 0.0
H426 H 0.04189 0.82663 0.73547 0.0
H427 H 0.05358 0.9801 0.79484 0.0
H428 H 0.87475 0.78993 0.7941 0.0
H429 H 1.00282 0.7825 0.77123 0.0
O430 O 0.94104 0.73283 0.87855 0.0
H431 H 0.9758 0.93747 0.89293 0.0
H432 H 1.00236 0.77383 0.91115 0.0
H433 H 0.09749 0.02793 0.75759 0.0
H434 H 0.91348 0.59328 0.79483 0.0
H435 H 0.0869 0.94921 0.72731 0.0
H436 H 0.8126 0.58321 0.77585 0.0
O437 O 0.08632 0.93248 0.8251 0.0
H438 H 0.14422 0.72363 0.88383 0.0
H439 H 0.13293 0.93494 0.89138 0.0
H440 H 0.23229 0.93154 0.90639 0.0
H441 H 0.23529 0.82333 0.90456 0.0
H442 H 0.047 0.72966 0.86813 0.0
H443 H 0.01315 0.80354 0.94896 0.0
H444 H 0.01735 0.90419 0.96083 0.0
O445 O 0.06175 0.93385 0.86114 0.0
C446 C 0.91076 0.86466 0.84277 0.0
C447 C 1.00058 0.94125 0.92869 0.0
C448 C 0.00581 0.83487 0.93716 0.0
N449 N 0.99406 0.8595 0.9003 0.0
C450 C 0.98885 0.91551 0.90619 0.0
C451 C 0.9988 0.81825 0.91562 0.0
C452 C 0.00948 0.89479 0.94335 0.0
C453 C 0.94801 0.69612 0.80634 0.0
N454 N 0.93878 0.75158 0.8052 0.0
C455 C 0.90303 0.63511 0.79554 0.0
C456 C 0.84604 0.62955 0.7848 0.0
C457 C 0.83413 0.68459 0.785 0.0
C458 C 0.88166 0.74591 0.79527 0.0
C459 C 0.04133 0.86079 0.7477 0.0
C460 C 0.04846 0.94616 0.78156 0.0
C461 C 0.01784 0.83546 0.76849 0.0
N462 N 0.02086 0.87745 0.7853 0.0
C463 C 0.07281 0.9735 0.76058 0.0
C464 C 0.06798 0.92994 0.74354 0.0
C465 C 0.09351 0.96402 0.84327 0.0
C466 C 0.14238 0.7702 0.88542 0.0
C467 C 0.13599 0.88896 0.88909 0.0
C468 C 0.19206 0.88715 0.89793 0.0
C469 C 0.19404 0.82657 0.89666 0.0
N470 N 0.0837 0.83221 0.87904 0.0
C471 C 0.08747 0.77402 0.87648 0.0
Co472 Co 0.15595 0.16502 0.81443 0.0
Co473 Co 0.16685 0.16297 0.87022 0.0
O474 O 0.19821 0.20219 0.84196 0.0
C475 C 0.15162 0.29408 0.80686 0.0
O476 O 0.0934 0.26824 0.81765 0.0
C477 C 0.29965 0.16729 0.88286 0.0
O478 O 0.26478 0.09997 0.88415 0.0
O479 O 0.15447 0.07291 0.86046 0.0
O480 O 0.12665 0.06819 0.82436 0.0
H481 H 0.96012 0.95883 0.95322 0.0
H482 H 0.29932 0.28385 0.81325 0.0
O483 O 0.18384 0.26128 0.80501 0.0
H484 H 0.30994 0.09169 0.77817 0.0
H485 H 0.16643 0.20768 0.73502 0.0
H486 H 0.01523 0.06691 0.79508 0.0
H487 H 0.20101 0.07408 0.7937 0.0
H488 H 0.21274 0.21185 0.77064 0.0
O489 O 0.26897 0.2 0.87736 0.0
H490 H 0.05844 0.03655 0.89258 0.0
H491 H 0.233 0.21987 0.91087 0.0
H492 H 0.96566 0.06396 0.75826 0.0
H493 H 0.40603 0.30524 0.79521 0.0
H494 H 0.0432 0.13385 0.72787 0.0
H495 H 0.41293 0.20885 0.77845 0.0
O496 O 0.06489 0.14719 0.82549 0.0
H497 H 0.29382 0.41017 0.89393 0.0
H498 H 0.06854 0.19968 0.88971 0.0
H499 H 0.0792 0.30086 0.9085 0.0
H500 H 0.19411 0.40536 0.91203 0.0
H501 H 0.28011 0.31147 0.87202 0.0
H502 H 0.199 0.20806 0.9482 0.0
H503 H 0.09348 0.1182 0.95979 0.0
O504 O 0.06587 0.12457 0.86166 0.0
C505 C 0.13022 0.04002 0.84241 0.0
C506 C 0.05662 0.05969 0.92825 0.0
C507 C 0.16655 0.16916 0.93653 0.0
N508 N 0.14211 0.12987 0.89998 0.0
C509 C 0.0826 0.07137 0.90582 0.0
C510 C 0.18556 0.17458 0.91527 0.0
C511 C 0.10364 0.11655 0.94253 0.0
C512 C 0.30115 0.24148 0.80558 0.0
N513 N 0.24366 0.17779 0.80448 0.0
C514 C 0.36232 0.25373 0.79581 0.0
C515 C 0.36587 0.1995 0.78618 0.0
C516 C 0.30797 0.13397 0.78595 0.0
C517 C 0.24667 0.12413 0.79504 0.0
C518 C 0.13281 0.17382 0.74754 0.0
C519 C 0.04861 0.09605 0.78174 0.0
C520 C 0.1592 0.17493 0.76814 0.0
N521 N 0.11763 0.13664 0.78515 0.0
C522 C 0.02024 0.09385 0.761 0.0
C523 C 0.06312 0.13293 0.74385 0.0
C524 C 0.03415 0.12368 0.84385 0.0
C525 C 0.24402 0.36511 0.89198 0.0
C526 C 0.11748 0.24679 0.88923 0.0
C527 C 0.12343 0.30359 0.90046 0.0
C528 C 0.18767 0.3623 0.90236 0.0
N529 N 0.17365 0.249 0.87962 0.0
C530 C 0.23573 0.30862 0.87989 0.0
Co531 Co 0.98773 0.83204 0.62607 0.0
Co532 Co 0.99497 0.83113 0.57013 0.0
O533 O 0.99102 0.79463 0.59858 0.0
C534 C 0.85744 0.69702 0.63018 0.0
O535 O 0.8336 0.71313 0.61288 0.0
C536 C 0.12128 0.82946 0.55442 0.0
O537 O 0.1513 0.89646 0.55237 0.0
O538 O 0.07357 0.92409 0.57893 0.0
O539 O 0.05497 0.9288 0.61546 0.0
H540 H 1.0031 0.04046 0.48749 0.0
H541 H 0.00969 0.7122 0.6278 0.0
O542 O 0.91885 0.73666 0.63674 0.0
H543 H 0.22125 0.90683 0.65834 0.0
H544 H 0.98218 0.80477 0.70639 0.0
H545 H 0.93803 0.9231 0.64646 0.0
H546 H 0.12918 0.92459 0.64385 0.0
H547 H 0.00857 0.79149 0.6697 0.0
O548 O 0.05973 0.79534 0.56188 0.0
H549 H 0.02138 0.95924 0.54727 0.0
H550 H 0.99052 0.76654 0.52959 0.0
H551 H 0.89932 0.92728 0.6843 0.0
H552 H 0.09598 0.69116 0.64526 0.0
H553 H 0.9325 0.87716 0.71507 0.0
H554 H 0.20327 0.78845 0.65966 0.0
O555 O 0.9124 0.84831 0.61571 0.0
H556 H 0.85474 0.57221 0.56676 0.0
H557 H 0.86228 0.78841 0.54772 0.0
H558 H 0.76393 0.678 0.53563 0.0
H559 H 0.76308 0.56959 0.54347 0.0
H560 H 0.955 0.6839 0.57715 0.0
H561 H 0.98631 0.78756 0.4912 0.0
H562 H 0.98748 0.88721 0.47914 0.0
O563 O 0.93144 0.8673 0.5791 0.0
C564 C 0.08485 0.95737 0.59715 0.0
C565 C 0.99858 0.93835 0.51159 0.0
C566 C 0.99179 0.82566 0.50313 0.0
N567 N 0.99981 0.86134 0.5401 0.0
C568 C 0.00773 0.92359 0.53412 0.0
C569 C 0.9947 0.81468 0.52488 0.0
C570 C 0.99161 0.8837 0.49678 0.0
C571 C 0.05572 0.75513 0.63453 0.0
N572 N 0.06382 0.81953 0.63492 0.0
C573 C 0.10498 0.74294 0.64399 0.0
C574 C 0.16517 0.79778 0.65232 0.0
C575 C 0.17493 0.86396 0.65162 0.0
C576 C 0.12303 0.87386 0.64304 0.0
C577 C 0.97469 0.83355 0.6938 0.0
C578 C 0.9494 0.89853 0.65963 0.0
C579 C 0.99161 0.82778 0.67243 0.0
N580 N 0.98134 0.86174 0.6555 0.0
C581 C 0.92865 0.90259 0.68106 0.0
C582 C 0.94447 0.8724 0.69831 0.0
C583 C 0.90244 0.86937 0.59722 0.0
C584 C 0.85719 0.61958 0.56198 0.0
C585 C 0.86118 0.74115 0.55181 0.0
C586 C 0.80547 0.67887 0.54486 0.0
C587 C 0.8045 0.61792 0.54952 0.0
N588 N 0.91524 0.74278 0.56264 0.0
C589 C 0.91317 0.68292 0.56812 0.0
Co590 Co 0.1664 0.15692 0.62609 0.0
Co591 Co 0.16457 0.16671 0.57023 0.0
O592 O 0.20433 0.19784 0.59847 0.0
C593 C 0.29632 0.15468 0.63278 0.0
O594 O 0.27479 0.1031 0.61895 0.0
C595 C 0.16846 0.29958 0.55786 0.0
O596 O 0.10111 0.2649 0.55682 0.0
O597 O 0.07422 0.15394 0.58 0.0
O598 O 0.07002 0.12754 0.61611 0.0
H599 H 0.95991 0.95991 0.48714 0.0
H600 H 0.28674 0.29901 0.62727 0.0
O601 O 0.26153 0.18402 0.6363 0.0
H602 H 0.09469 0.31773 0.65856 0.0
H603 H 0.19995 0.17469 0.70634 0.0
H604 H 0.07324 0.01577 0.64597 0.0
H605 H 0.07576 0.20627 0.64492 0.0
H606 H 0.20799 0.21733 0.67002 0.0
O607 O 0.20123 0.26879 0.56315 0.0
H608 H 0.03812 0.05822 0.54787 0.0
H609 H 0.22098 0.23309 0.5296 0.0
H610 H 0.07277 0.97016 0.68303 0.0
H611 H 0.30923 0.40775 0.64391 0.0
H612 H 0.13072 0.05112 0.71401 0.0
H613 H 0.21301 0.41909 0.65853 0.0
O614 O 0.14817 0.06499 0.61522 0.0
H615 H 0.41079 0.29458 0.54576 0.0
H616 H 0.20144 0.06861 0.55062 0.0
H617 H 0.30215 0.07971 0.53143 0.0
H618 H 0.40603 0.19495 0.5276 0.0
H619 H 0.31288 0.28042 0.56818 0.0
H620 H 0.20828 0.19994 0.49218 0.0
H621 H 0.11793 0.09485 0.48044 0.0
O622 O 0.12689 0.06594 0.57882 0.0
C623 C 0.04155 0.13031 0.59809 0.0
C624 C 0.06049 0.05696 0.5121 0.0
C625 C 0.16965 0.16722 0.50386 0.0
N626 N 0.13117 0.14203 0.54046 0.0
C627 C 0.07262 0.08256 0.53459 0.0
C628 C 0.17561 0.18571 0.52518 0.0
C629 C 0.11679 0.10455 0.49777 0.0
C630 C 0.24439 0.3024 0.63423 0.0
N631 N 0.18003 0.24581 0.63524 0.0
C632 C 0.25732 0.36487 0.64312 0.0
C633 C 0.20315 0.37083 0.65159 0.0
C634 C 0.13699 0.31386 0.65168 0.0
C635 C 0.12643 0.25107 0.64364 0.0
C636 C 0.16953 0.13922 0.69363 0.0
C637 C 0.0998 0.05096 0.65923 0.0
C638 C 0.17234 0.16355 0.67257 0.0
N639 N 0.13709 0.12011 0.65551 0.0
C640 C 0.09809 0.0246 0.68025 0.0
C641 C 0.13168 0.06947 0.69761 0.0
C642 C 0.12573 0.03428 0.59669 0.0
C643 C 0.36608 0.24462 0.54789 0.0
C644 C 0.2484 0.1177 0.55099 0.0
C645 C 0.3049 0.1239 0.53953 0.0
C646 C 0.36326 0.18833 0.53744 0.0
N647 N 0.2506 0.17381 0.56068 0.0
C648 C 0.31 0.23608 0.56025 0.0
Co649 Co 0.84237 0.01101 0.62607 0.0
Co650 Co 0.83558 1.00124 0.57022 0.0
O651 O 0.80316 0.00899 0.59836 0.0
C652 C 0.83781 0.14073 0.62879 0.0
O653 O 0.8738 0.16127 0.61053 0.0
C654 C 0.70019 0.87666 0.55731 0.0
O655 O 0.73037 0.83975 0.55767 0.0
O656 O 0.84404 0.92036 0.57964 0.0
O657 O 0.87012 0.9422 0.61583 0.0
H658 H 0.0404 0.99749 0.48739 0.0
H659 H 0.70258 0.99297 0.62679 0.0
O660 O 0.81822 0.08115 0.63653 0.0
H661 H 0.67567 0.77883 0.658 0.0
H662 H 0.82046 0.01618 0.7068 0.0
H663 H 0.98235 0.05731 0.64653 0.0
H664 H 0.78838 0.86889 0.6441 0.0
H665 H 0.78066 0.99165 0.66978 0.0
O666 O 0.73407 0.94058 0.5622 0.0
H667 H 0.9392 0.9759 0.54758 0.0
H668 H 0.7746 1.00107 0.52957 0.0
H669 H 0.02609 0.09412 0.68448 0.0
H670 H 0.59267 0.90892 0.64365 0.0
H671 H 0.94299 0.06518 0.71522 0.0
H672 H 0.57803 0.80126 0.65862 0.0
O673 O 0.93431 0.08522 0.61581 0.0
H674 H 0.7255 0.14377 0.55627 0.0
H675 H 0.93661 0.13204 0.54925 0.0
H676 H 0.93348 0.23118 0.53397 0.0
H677 H 0.82541 0.23436 0.53551 0.0
H678 H 0.73136 0.04686 0.57235 0.0
H679 H 0.80315 0.01074 0.49173 0.0
H680 H 0.90364 0.0149 0.47963 0.0
O681 O 0.93528 0.06136 0.57956 0.0
C682 C 0.86667 0.91018 0.59779 0.0
C683 C 0.94201 0.99983 0.51177 0.0
C684 C 0.83494 0.00391 0.50346 0.0
N685 N 0.8606 0.99319 0.54031 0.0
C686 C 0.91679 0.98842 0.53433 0.0
C687 C 0.81894 0.99748 0.52505 0.0
C688 C 0.89477 0.00766 0.49716 0.0
C689 C 0.69736 0.94644 0.63373 0.0
N690 N 0.7524 0.93651 0.63472 0.0
C691 C 0.6344 0.89841 0.64275 0.0
C692 C 0.6264 0.83773 0.65135 0.0
C693 C 0.68138 0.82576 0.65112 0.0
C694 C 0.74482 0.87653 0.64293 0.0
C695 C 0.85663 0.02367 0.69401 0.0
C696 C 0.9466 0.04712 0.65973 0.0
C697 C 0.83378 0.0076 0.67257 0.0
N698 N 0.87778 0.01691 0.65561 0.0
C699 C 0.9718 0.06719 0.68119 0.0
C700 C 0.92589 0.05285 0.69846 0.0
C701 C 0.96553 0.09312 0.59745 0.0
C702 C 0.77206 0.14187 0.55483 0.0
C703 C 0.89071 0.13525 0.55147 0.0
C704 C 0.88904 0.19118 0.54246 0.0
C705 C 0.82852 0.19326 0.54357 0.0
N706 N 0.8339 0.08321 0.56155 0.0
C707 C 0.77577 0.08712 0.56398 0.0
Co708 Co 0.8369 0.35212 0.46182 0.0
Co709 Co 0.83933 0.33661 0.40599 0.0
O710 O 0.8766 0.3454 0.43489 0.0
C711 C 0.97246 0.47981 0.46428 0.0
O712 O 0.95907 0.49746 0.44514 0.0
C713 C 0.84827 0.21243 0.39198 0.0
O714 O 0.78111 0.17875 0.39003 0.0
O715 O 0.74903 0.25646 0.41524 0.0
O716 O 0.74163 0.28319 0.4508 0.0
H717 H 0.63256 0.31985 0.32061 0.0
H718 H 0.95491 0.32885 0.46452 0.0
O719 O 0.93077 0.42188 0.47282 0.0
H720 H 0.75942 0.12128 0.49657 0.0
H721 H 0.85831 0.38091 0.54256 0.0
H722 H 0.73916 0.39862 0.47761 0.0
H723 H 0.74398 0.21557 0.48257 0.0
H724 H 0.86891 0.33613 0.5078 0.0
O725 O 0.87942 0.27464 0.39894 0.0
H726 H 0.71088 0.30627 0.38188 0.0
H727 H 0.90487 0.33786 0.366 0.0
H728 H 0.73846 0.4565 0.5122 0.0
H729 H 0.9735 0.23867 0.48012 0.0
H730 H 0.7996 0.44832 0.54489 0.0
H731 H 0.87593 0.13443 0.49585 0.0
O732 O 0.82308 0.42642 0.44963 0.0
H733 H 0.09286 0.47064 0.39303 0.0
H734 H 0.87472 0.46795 0.38397 0.0
H735 H 0.97969 0.56159 0.36738 0.0
H736 H 0.08818 0.55892 0.36962 0.0
H737 H 0.98775 0.37971 0.41018 0.0
H738 H 0.88793 0.34392 0.32776 0.0
H739 H 0.78811 0.33958 0.31421 0.0
O740 O 0.79902 0.39746 0.41378 0.0
C741 C 0.71492 0.24836 0.43302 0.0
C742 C 0.7338 0.32774 0.34604 0.0
C743 C 0.84803 0.33681 0.33908 0.0
N744 N 0.80889 0.32739 0.37565 0.0
C745 C 0.74707 0.3192 0.36894 0.0
C746 C 0.85674 0.33283 0.3609 0.0
C747 C 0.79017 0.33584 0.33194 0.0
C748 C 0.91197 0.28381 0.47171 0.0
N749 N 0.84852 0.27774 0.47277 0.0
C750 C 0.92269 0.2325 0.48016 0.0
C751 C 0.86751 0.17361 0.48898 0.0
C752 C 0.80245 0.16668 0.48949 0.0
C753 C 0.79393 0.21995 0.4814 0.0
C754 C 0.83206 0.38553 0.52852 0.0
C755 C 0.76631 0.39564 0.49167 0.0
C756 C 0.8355 0.35739 0.50858 0.0
N757 N 0.80352 0.36301 0.4902 0.0
C758 C 0.76482 0.4277 0.51128 0.0
C759 C 0.79847 0.42277 0.52974 0.0
C760 C 0.7992 0.43098 0.43107 0.0
C761 C 0.04551 0.4708 0.39104 0.0
C762 C 0.92289 0.46944 0.3866 0.0
C763 C 0.98195 0.522 0.3768 0.0
C764 C 0.04299 0.52092 0.37831 0.0
N765 N 0.92487 0.41758 0.39769 0.0
C766 C 0.98575 0.41954 0.40088 0.0
Co767 Co 0.65634 0.49499 0.45635 0.0
Co768 Co 0.6746 0.49904 0.40088 0.0
O769 O 0.6664 0.53471 0.42825 0.0
C770 C 0.52516 0.48745 0.46844 0.0
O771 O 0.49874 0.42137 0.47197 0.0
C772 C 0.80278 0.63253 0.38786 0.0
O773 O 0.8371 0.59964 0.38813 0.0
O774 O 0.75272 0.48997 0.41207 0.0
O775 O 0.7251 0.46454 0.44826 0.0
H776 H 0.6769 0.28409 0.32147 0.0
H777 H 0.68189 0.63886 0.45612 0.0
O778 O 0.58746 0.52457 0.46246 0.0
H779 H 0.87314 0.64749 0.49822 0.0
H780 H 0.60801 0.50804 0.53508 0.0
H781 H 0.60926 0.35662 0.47685 0.0
H782 H 0.79003 0.54135 0.47897 0.0
H783 H 0.66157 0.555 0.50011 0.0
O784 O 0.73852 0.60048 0.39253 0.0
H785 H 0.69502 0.38915 0.3806 0.0
H786 H 0.68313 0.55887 0.3593 0.0
H787 H 0.54386 0.30677 0.51112 0.0
H788 H 0.75771 0.74181 0.47787 0.0
H789 H 0.54852 0.38231 0.54118 0.0
H790 H 0.85441 0.74738 0.4986 0.0
O791 O 0.58186 0.40311 0.4455 0.0
H792 H 0.54302 0.61472 0.37723 0.0
H793 H 0.54169 0.39635 0.38117 0.0
H794 H 0.44542 0.39968 0.36377 0.0
H795 H 0.44867 0.51086 0.36065 0.0
H796 H 0.63528 0.60861 0.39749 0.0
H797 H 0.66216 0.52017 0.32232 0.0
H798 H 0.64814 0.41465 0.31252 0.0
O799 O 0.61286 0.39879 0.41059 0.0
C800 C 0.75925 0.46711 0.43071 0.0
C801 C 0.67038 0.38234 0.34473 0.0
C802 C 0.66914 0.48988 0.33464 0.0
N803 N 0.68412 0.47073 0.3717 0.0
C804 C 0.68418 0.4112 0.36685 0.0
C805 C 0.68222 0.51162 0.35567 0.0
C806 C 0.65981 0.42681 0.32964 0.0
C807 C 0.72363 0.64018 0.46528 0.0
N808 N 0.73048 0.58329 0.46659 0.0
C809 C 0.76724 0.69936 0.47719 0.0
C810 C 0.82144 0.70221 0.48901 0.0
C811 C 0.83144 0.64597 0.48891 0.0
C812 C 0.7848 0.5863 0.47766 0.0
C813 C 0.60998 0.47434 0.52281 0.0
C814 C 0.61051 0.39008 0.48971 0.0
C815 C 0.6421 0.50104 0.50276 0.0
N816 N 0.64147 0.45911 0.48621 0.0
C817 C 0.57489 0.36144 0.50929 0.0
C818 C 0.57584 0.40391 0.52604 0.0
C819 C 0.57871 0.36927 0.42822 0.0
C820 C 0.54168 0.56655 0.37909 0.0
C821 C 0.54097 0.4439 0.38159 0.0
C822 C 0.48668 0.4456 0.37127 0.0
C823 C 0.48812 0.50778 0.36964 0.0
N824 N 0.59435 0.50215 0.39061 0.0
C825 C 0.59387 0.56259 0.39019 0.0
Co826 Co 0.51513 0.16938 0.46062 0.0
Co827 Co 0.50856 0.16356 0.4046 0.0
O828 O 0.47572 0.1294 0.43324 0.0
C829 C 0.51298 0.03563 0.46429 0.0
O830 O 0.54914 0.05134 0.44607 0.0
C831 C 0.38215 0.16385 0.38882 0.0
O832 O 0.42097 0.23046 0.38606 0.0
O833 O 0.52443 0.25732 0.41211 0.0
O834 O 0.54199 0.26535 0.44901 0.0
H835 H 0.71298 0.36454 0.3209 0.0
H836 H 0.37673 0.04424 0.46376 0.0
O837 O 0.4929 0.07558 0.47191 0.0
H838 H 0.34375 0.2351 0.48749 0.0
H839 H 0.48936 0.16245 0.54188 0.0
H840 H 0.65386 0.26863 0.48116 0.0
H841 H 0.45775 0.25778 0.47539 0.0
H842 H 0.45365 0.12839 0.50454 0.0
O843 O 0.40824 0.1288 0.39632 0.0
H844 H 0.612 0.28949 0.38078 0.0
H845 H 0.44774 0.09611 0.36453 0.0
H846 H 0.69405 0.29268 0.52 0.0
H847 H 0.26622 0.01899 0.47959 0.0
H848 H 0.60925 0.25125 0.55014 0.0
H849 H 0.24759 0.11411 0.49022 0.0
O850 O 0.6079 0.18888 0.45089 0.0
H851 H 0.38293 0.9046 0.40191 0.0
H852 H 0.59769 0.11729 0.38368 0.0
H853 H 0.58214 0.0055 0.37186 0.0
H854 H 0.47134 0.89912 0.37903 0.0
H855 H 0.39814 0.01762 0.41214 0.0
H856 H 0.47786 0.11006 0.32645 0.0
H857 H 0.57789 0.20781 0.31377 0.0
O858 O 0.60795 0.19969 0.41376 0.0
C859 C 0.54332 0.29224 0.43003 0.0
C860 C 0.61546 0.26393 0.34562 0.0
C861 C 0.50941 0.15027 0.33793 0.0
N862 N 0.53459 0.19106 0.37442 0.0
C863 C 0.59018 0.25219 0.36804 0.0
C864 C 0.49299 0.14306 0.35954 0.0
C865 C 0.5689 0.20693 0.33131 0.0
C866 C 0.37049 0.0864 0.46925 0.0
N867 N 0.42445 0.15246 0.4689 0.0
C868 C 0.30702 0.07172 0.47769 0.0
C869 C 0.29688 0.1254 0.48389 0.0
C870 C 0.3509 0.19302 0.48239 0.0
C871 C 0.41517 0.20562 0.4752 0.0
C872 C 0.52593 0.18723 0.52886 0.0
C873 C 0.6175 0.24587 0.49439 0.0
C874 C 0.50542 0.16958 0.50721 0.0
N875 N 0.54956 0.20233 0.49007 0.0
C876 C 0.64062 0.2612 0.51621 0.0
C877 C 0.59362 0.23515 0.53339 0.0
C878 C 0.63878 0.20609 0.43226 0.0
C879 C 0.42928 0.9512 0.39735 0.0
C880 C 0.55034 0.07079 0.38768 0.0
C881 C 0.54175 0.00775 0.38083 0.0
C882 C 0.47995 0.94788 0.38516 0.0
N883 N 0.49815 0.07415 0.39807 0.0
C884 C 0.43877 0.01526 0.40341 0.0
Co885 Co 0.67899 0.50093 0.64704 0.0
Co886 Co 0.67366 0.50113 0.70329 0.0
O887 O 0.67976 0.53998 0.67489 0.0
C888 C 0.81259 0.63303 0.64229 0.0
O889 O 0.83622 0.61647 0.65954 0.0
C890 C 0.54776 0.50717 0.71793 0.0
O891 O 0.51582 0.43996 0.71957 0.0
O892 O 0.59322 0.41065 0.6946 0.0
O893 O 0.60897 0.40473 0.65801 0.0
H894 H 0.68069 0.29597 0.78556 0.0
H895 H 0.66717 0.62633 0.645 0.0
O896 O 0.75068 0.59462 0.63599 0.0
H897 H 0.44345 0.43856 0.61915 0.0
H898 H 0.66762 0.51412 0.56557 0.0
H899 H 0.71572 0.40028 0.62623 0.0
H900 H 0.53339 0.41408 0.63134 0.0
H901 H 0.66229 0.545 0.60324 0.0
O902 O 0.61087 0.54012 0.71169 0.0
H903 H 0.65378 0.37374 0.72552 0.0
H904 H 0.67418 0.56137 0.74416 0.0
H905 H 0.73396 0.37781 0.58742 0.0
H906 H 0.58403 0.6537 0.62903 0.0
H907 H 0.69832 0.42567 0.55713 0.0
H908 H 0.47011 0.56005 0.61735 0.0
O909 O 0.75139 0.48058 0.65669 0.0
H910 H 0.81725 0.7575 0.71413 0.0
H911 H 0.80571 0.53529 0.72408 0.0
H912 H 0.90488 0.64052 0.73858 0.0
H913 H 0.90743 0.75149 0.73535 0.0
H914 H 0.71773 0.65081 0.69984 0.0
H915 H 0.68617 0.54284 0.78201 0.0
H916 H 0.69318 0.4477 0.79361 0.0
O917 O 0.73388 0.46185 0.69347 0.0
C918 C 0.58021 0.37689 0.67656 0.0
C919 C 0.67809 0.39447 0.76134 0.0
C920 C 0.67945 0.50446 0.7701 0.0
N921 N 0.6681 0.46851 0.73317 0.0
C922 C 0.66572 0.40829 0.73889 0.0
C923 C 0.67194 0.51396 0.74858 0.0
C924 C 0.6849 0.44908 0.77613 0.0
C925 C 0.61884 0.58485 0.63902 0.0
N926 N 0.60597 0.51866 0.6388 0.0
C927 C 0.57109 0.60069 0.63057 0.0
C928 C 0.50725 0.54785 0.62378 0.0
C929 C 0.49269 0.47995 0.62472 0.0
C930 C 0.54354 0.46631 0.63193 0.0
C931 C 0.67771 0.48814 0.57861 0.0
C932 C 0.70469 0.42502 0.61303 0.0
C933 C 0.67248 0.50378 0.60036 0.0
N934 N 0.68137 0.46924 0.61741 0.0
C935 C 0.71407 0.41097 0.5912 0.0
C936 C 0.69684 0.43999 0.57398 0.0
C937 C 0.76099 0.4587 0.67503 0.0
C938 C 0.81427 0.70872 0.71648 0.0
C939 C 0.8082 0.58398 0.72154 0.0
C940 C 0.86422 0.64327 0.73001 0.0
C941 C 0.86602 0.70562 0.728 0.0
N942 N 0.7553 0.5867 0.71144 0.0
C943 C 0.75868 0.64834 0.70827 0.0
Co944 Co 0.49208 0.17548 0.64903 0.0
Co945 Co 0.50094 0.16956 0.70487 0.0
O946 O 0.45895 0.1351 0.67695 0.0
C947 C 0.36193 0.17965 0.64411 0.0
O948 O 0.38523 0.23291 0.65732 0.0
C949 C 0.49418 0.03879 0.72022 0.0
O950 O 0.5615 0.07376 0.72144 0.0
O951 O 0.58943 0.17831 0.69439 0.0
O952 O 0.58966 0.20242 0.65802 0.0
H953 H 0.72206 0.37658 0.7851 0.0
H954 H 0.37105 0.03363 0.64951 0.0
O955 O 0.39584 0.14941 0.64057 0.0
H956 H 0.54909 0.02002 0.60617 0.0
H957 H 0.43306 0.16722 0.57085 0.0
H958 H 0.58705 0.31484 0.62944 0.0
H959 H 0.57677 0.12595 0.6264 0.0
H960 H 0.44055 0.11792 0.6049 0.0
O961 O 0.46156 0.06831 0.71341 0.0
H962 H 0.63237 0.27361 0.72572 0.0
H963 H 0.44243 0.11226 0.74617 0.0
H964 H 0.57233 0.3669 0.59565 0.0
H965 H 0.33986 0.92955 0.62777 0.0
H966 H 0.50115 0.29341 0.56534 0.0
H967 H 0.42814 0.92275 0.6057 0.0
O968 O 0.51208 0.26767 0.65996 0.0
H969 H 0.24521 0.06258 0.71453 0.0
H970 H 0.47088 0.26791 0.72763 0.0
H971 H 0.36666 0.26495 0.74142 0.0
H972 H 0.25336 0.15956 0.73636 0.0
H973 H 0.35072 0.06633 0.70147 0.0
H974 H 0.47105 0.13699 0.78419 0.0
H975 H 0.57283 0.23481 0.79496 0.0
O976 O 0.54064 0.26985 0.69561 0.0
C977 C 0.62 0.19947 0.67575 0.0
C978 C 0.61856 0.27586 0.762 0.0
C979 C 0.50717 0.16938 0.77176 0.0
N980 N 0.53666 0.19628 0.73439 0.0
C981 C 0.59972 0.25149 0.73953 0.0
C982 C 0.49207 0.15556 0.75019 0.0
C983 C 0.56671 0.22736 0.7774 0.0
C984 C 0.41045 0.03092 0.64014 0.0
N985 N 0.47535 0.08659 0.63876 0.0
C986 C 0.3925 0.97154 0.62804 0.0
C987 C 0.44242 0.96767 0.61567 0.0
C988 C 0.5099 0.02246 0.61581 0.0
C989 C 0.52556 0.08202 0.62754 0.0
C990 C 0.46962 0.20019 0.58306 0.0
C991 C 0.55489 0.28214 0.61643 0.0
C992 C 0.47539 0.17208 0.60267 0.0
N993 N 0.51676 0.21281 0.61944 0.0
C994 C 0.54829 0.31209 0.59714 0.0
C995 C 0.50655 0.27076 0.58024 0.0
C996 C 0.53887 0.30012 0.67781 0.0
C997 C 0.29459 0.10714 0.71779 0.0
C998 C 0.42143 0.2227 0.72462 0.0
C999 C 0.36267 0.22127 0.7326 0.0
C1000 C 0.29906 0.16234 0.72959 0.0
N1001 N 0.41699 0.16683 0.71406 0.0
C1002 C 0.35446 0.10995 0.71022 0.0
Co1003 Co 0.81336 0.31481 0.64418 0.0
Co1004 Co 0.83232 0.32814 0.69999 0.0
O1005 O 0.86015 0.32091 0.67086 0.0
C1006 C 0.82011 0.18674 0.64065 0.0
O1007 O 0.78673 0.16694 0.6594 0.0
C1008 C 0.96337 0.45512 0.71371 0.0
O1009 O 0.92701 0.48545 0.71621 0.0
O1010 O 0.81942 0.40664 0.69142 0.0
O1011 O 0.78693 0.38302 0.65567 0.0
H1012 H 0.64157 0.33713 0.78626 0.0
H1013 H 0.95501 0.33843 0.64043 0.0
O1014 O 0.83762 0.24564 0.63271 0.0
H1015 H 0.96783 0.5488 0.61125 0.0
H1016 H 0.80547 0.28626 0.56347 0.0
H1017 H 0.66898 0.26821 0.62863 0.0
H1018 H 0.85749 0.45265 0.62448 0.0
H1019 H 0.86176 0.33337 0.59803 0.0
O1020 O 0.93461 0.39301 0.70661 0.0
H1021 H 0.73211 0.35283 0.72437 0.0
H1022 H 0.89944 0.32898 0.73945 0.0
H1023 H 0.61023 0.20877 0.59416 0.0
H1024 H 0.06408 0.43007 0.6252 0.0
H1025 H 0.67936 0.2161 0.56164 0.0
H1026 H 0.07175 0.53677 0.61136 0.0
O1027 O 0.72461 0.23999 0.65649 0.0
H1028 H 0.95188 0.19109 0.70642 0.0
H1029 H 0.74204 0.19821 0.72367 0.0
H1030 H 0.75658 0.10492 0.73876 0.0
H1031 H 0.8653 0.10531 0.73214 0.0
H1032 H 0.9374 0.28598 0.69262 0.0
H1033 H 0.88043 0.32785 0.77796 0.0
H1034 H 0.78359 0.32865 0.79187 0.0
O1035 O 0.73065 0.26525 0.69273 0.0
C1036 C 0.79407 0.41602 0.67378 0.0
C1037 C 0.73696 0.33516 0.76024 0.0
C1038 C 0.84566 0.33197 0.76674 0.0
N1039 N 0.81178 0.33623 0.73037 0.0
C1040 C 0.75707 0.34225 0.73726 0.0
C1041 C 0.85615 0.33331 0.74484 0.0
C1042 C 0.78815 0.33133 0.77413 0.0
C1043 C 0.95717 0.38398 0.63381 0.0
N1044 N 0.89969 0.38991 0.63328 0.0
C1045 C 0.0195 0.43627 0.62561 0.0
C1046 C 0.02364 0.49622 0.61775 0.0
C1047 C 0.96527 0.5027 0.61764 0.0
C1048 C 0.9031 0.44834 0.62532 0.0
C1049 C 0.77493 0.28187 0.57757 0.0
C1050 C 0.69908 0.27153 0.61451 0.0
C1051 C 0.8068 0.31104 0.59741 0.0
N1052 N 0.7691 0.30474 0.61588 0.0
C1053 C 0.66544 0.23869 0.59501 0.0
C1054 C 0.70398 0.24325 0.57658 0.0
C1055 C 0.69651 0.23365 0.67531 0.0
C1056 C 0.90655 0.1933 0.7107 0.0
C1057 C 0.78812 0.19675 0.71974 0.0
C1058 C 0.79629 0.14417 0.72854 0.0
C1059 C 0.85701 0.14397 0.72458 0.0
N1060 N 0.83971 0.2485 0.70777 0.0
C1061 C 0.89745 0.24611 0.70258 0.0
Co1062 Co 0.50811 0.33085 0.14776 0.0
Co1063 Co 0.50918 0.3379 0.20393 0.0
O1064 O 0.46927 0.33056 0.17563 0.0
C1065 C 0.37545 0.19792 0.14267 0.0
O1066 O 0.39216 0.17327 0.15962 0.0
C1067 C 0.49976 0.46396 0.2171 0.0
O1068 O 0.56715 0.49989 0.21717 0.0
O1069 O 0.59899 0.41844 0.19502 0.0
O1070 O 0.60482 0.39966 0.1587 0.0
H1071 H 0.71322 0.32767 0.28597 0.0
H1072 H 0.38472 0.34637 0.14573 0.0
O1073 O 0.4138 0.26026 0.13673 0.0
H1074 H 0.57611 0.56741 0.11957 0.0
H1075 H 0.49343 0.34025 0.06629 0.0
H1076 H 0.60746 0.29244 0.12698 0.0
H1077 H 0.59742 0.47542 0.13178 0.0
H1078 H 0.46419 0.3478 0.104 0.0
O1079 O 0.46913 0.39989 0.21214 0.0
H1080 H 0.63611 0.35574 0.22589 0.0
H1081 H 0.45192 0.34229 0.24503 0.0
H1082 H 0.6284 0.27227 0.08818 0.0
H1083 H 0.3604 0.43201 0.12987 0.0
H1084 H 0.58011 0.30722 0.05784 0.0
H1085 H 0.45593 0.54446 0.11804 0.0
O1086 O 0.52688 0.25745 0.15747 0.0
H1087 H 0.25917 0.20708 0.22255 0.0
H1088 H 0.47594 0.20481 0.22398 0.0
H1089 H 0.37376 0.11138 0.24194 0.0
H1090 H 0.26578 0.11568 0.24273 0.0
H1091 H 0.36034 0.29658 0.20312 0.0
H1092 H 0.47061 0.33001 0.28268 0.0
H1093 H 0.56224 0.31706 0.29399 0.0
O1094 O 0.5485 0.27753 0.19407 0.0
C1095 C 0.63284 0.42957 0.17711 0.0
C1096 C 0.61578 0.33238 0.26179 0.0
C1097 C 0.50811 0.33517 0.27071 0.0
N1098 N 0.54292 0.34485 0.23373 0.0
C1099 C 0.60221 0.34517 0.23934 0.0
C1100 C 0.49877 0.34321 0.24924 0.0
C1101 C 0.56175 0.32669 0.27659 0.0
C1102 C 0.42695 0.39423 0.13977 0.0
N1103 N 0.49243 0.4052 0.13947 0.0
C1104 C 0.41286 0.44335 0.1314 0.0
C1105 C 0.46676 0.50636 0.12447 0.0
C1106 C 0.53393 0.51885 0.12525 0.0
C1107 C 0.54577 0.46683 0.13248 0.0
C1108 C 0.51947 0.33024 0.07934 0.0
C1109 C 0.58275 0.30344 0.11377 0.0
C1110 C 0.50478 0.33669 0.10109 0.0
N1111 N 0.53927 0.32764 0.11813 0.0
C1112 C 0.59588 0.29292 0.09194 0.0
C1113 C 0.56667 0.30987 0.07471 0.0
C1114 C 0.54985 0.24879 0.17575 0.0
C1115 C 0.30597 0.20549 0.22246 0.0
C1116 C 0.42776 0.20415 0.22277 0.0
C1117 C 0.3704 0.1517 0.23337 0.0
C1118 C 0.3098 0.15386 0.23376 0.0
N1119 N 0.42445 0.25674 0.21268 0.0
C1120 C 0.36366 0.2561 0.21152 0.0
Co1121 Co 0.69147 0.1937 0.14471 0.0
Co1122 Co 0.67799 0.1746 0.20049 0.0
O1123 O 0.68533 0.14671 0.17138 0.0
C1124 C 0.81904 0.18638 0.14049 0.0
O1125 O 0.84035 0.2212 0.15896 0.0
C1126 C 0.55118 0.04223 0.21404 0.0
O1127 O 0.51968 0.07751 0.21648 0.0
O1128 O 0.59973 0.18784 0.19189 0.0
O1129 O 0.6247 0.22185 0.15634 0.0
H1130 H 0.67337 0.36811 0.28672 0.0
H1131 H 0.66389 0.05037 0.14114 0.0
O1132 O 0.75926 0.16771 0.13308 0.0
H1133 H 0.45689 0.04406 0.11159 0.0
H1134 H 0.72016 0.20084 0.06409 0.0
H1135 H 0.73911 0.3383 0.12917 0.0
H1136 H 0.55497 0.15305 0.12482 0.0
H1137 H 0.67264 0.14504 0.09867 0.0
O1138 O 0.61323 0.07209 0.20696 0.0
H1139 H 0.65591 0.27675 0.22476 0.0
H1140 H 0.67445 0.10635 0.24006 0.0
H1141 H 0.79854 0.39662 0.09465 0.0
H1142 H 0.56972 0.94205 0.12615 0.0
H1143 H 0.79075 0.32699 0.06219 0.0
H1144 H 0.46484 0.93787 0.11204 0.0
O1145 O 0.76723 0.28197 0.15699 0.0
H1146 H 0.80486 0.04732 0.2111 0.0
H1147 H 0.80879 0.26497 0.22397 0.0
H1148 H 0.89645 0.24604 0.2415 0.0
H1149 H 0.89035 0.13355 0.2369 0.0
H1150 H 0.71731 0.06731 0.19424 0.0
H1151 H 0.67604 0.12591 0.2785 0.0
H1152 H 0.6792 0.22465 0.29228 0.0
O1153 O 0.74142 0.27637 0.19319 0.0
C1154 C 0.59154 0.21464 0.1744 0.0
C1155 C 0.67312 0.27157 0.26065 0.0
C1156 C 0.67298 0.16117 0.26723 0.0
N1157 N 0.66966 0.19531 0.23084 0.0
C1158 C 0.66548 0.25117 0.23768 0.0
C1159 C 0.67114 0.15029 0.24536 0.0
C1160 C 0.67577 0.21976 0.27456 0.0
C1161 C 0.61897 0.04949 0.1345 0.0
N1162 N 0.61509 0.10811 0.13384 0.0
C1163 C 0.56534 0.98769 0.12639 0.0
C1164 C 0.5064 0.98547 0.11838 0.0
C1165 C 0.50216 0.04511 0.11809 0.0
C1166 C 0.55763 0.10653 0.12576 0.0
C1167 C 0.72463 0.23164 0.07815 0.0
C1168 C 0.73548 0.30804 0.11504 0.0
C1169 C 0.69529 0.20006 0.09799 0.0
N1170 N 0.70184 0.23801 0.11643 0.0
C1171 C 0.76833 0.34141 0.09552 0.0
C1172 C 0.76351 0.30259 0.07712 0.0
C1173 C 0.77344 0.31032 0.17578 0.0
C1174 C 0.80547 0.09467 0.21428 0.0
C1175 C 0.80841 0.21753 0.22079 0.0
C1176 C 0.85747 0.20669 0.23109 0.0
C1177 C 0.85418 0.14371 0.22844 0.0
N1178 N 0.75689 0.16648 0.20858 0.0
C1179 C 0.7568 0.10687 0.20442 0.0
Co1180 Co 0.83362 0.51545 0.14946 0.0
Co1181 Co 0.84015 0.50689 0.20526 0.0
O1182 O 0.8744 0.54816 0.17732 0.0
C1183 C 0.82787 0.64468 0.14332 0.0
O1184 O 0.76852 0.6175 0.1535 0.0
C1185 C 0.9711 0.51358 0.22044 0.0
O1186 O 0.93685 0.44623 0.22169 0.0
O1187 O 0.82976 0.41761 0.19479 0.0
O1188 O 0.80583 0.41746 0.15838 0.0
H1189 H 0.63262 0.2876 0.28552 0.0
H1190 H 0.97624 0.63588 0.14956 0.0
O1191 O 0.86066 0.61248 0.14146 0.0
H1192 H 0.98746 0.45486 0.10714 0.0
H1193 H 0.84206 0.57402 0.07115 0.0
H1194 H 0.69387 0.42136 0.12983 0.0
H1195 H 0.88152 0.42939 0.1269 0.0
H1196 H 0.89099 0.5674 0.10543 0.0
O1197 O 0.94115 0.54551 0.21355 0.0
H1198 H 0.73576 0.37613 0.22616 0.0
H1199 H 0.89882 0.56521 0.24658 0.0
H1200 H 0.64217 0.43512 0.09578 0.0
H1201 H 0.08024 0.66492 0.12811 0.0
H1202 H 0.71593 0.50561 0.06543 0.0
H1203 H 0.08607 0.57502 0.10666 0.0
O1204 O 0.74192 0.49591 0.16049 0.0
H1205 H 0.95648 0.76216 0.21631 0.0
H1206 H 0.74453 0.54088 0.22825 0.0
H1207 H 0.75383 0.64677 0.2435 0.0
H1208 H 0.86286 0.75756 0.23901 0.0
H1209 H 0.94608 0.65551 0.20171 0.0
H1210 H 0.87479 0.5363 0.28458 0.0
H1211 H 0.77626 0.4352 0.29541 0.0
O1212 O 0.73981 0.46853 0.19624 0.0
C1213 C 0.8083 0.38697 0.17616 0.0
C1214 C 0.7343 0.39003 0.26243 0.0
C1215 C 0.84183 0.50053 0.27216 0.0
N1216 N 0.81379 0.47158 0.23481 0.0
C1217 C 0.75834 0.40874 0.23996 0.0
C1218 C 0.85519 0.51581 0.2506 0.0
C1219 C 0.78353 0.44135 0.27784 0.0
C1220 C 0.97833 0.59585 0.14036 0.0
N1221 N 0.92209 0.53129 0.13907 0.0
C1222 C 0.03774 0.61256 0.12847 0.0
C1223 C 0.04101 0.56176 0.11641 0.0
C1224 C 0.98547 0.49471 0.11655 0.0
C1225 C 0.92589 0.48033 0.12802 0.0
C1226 C 0.80897 0.53781 0.08339 0.0
C1227 C 0.72669 0.45326 0.11681 0.0
C1228 C 0.83686 0.53256 0.10313 0.0
N1229 N 0.796 0.49134 0.11988 0.0
C1230 C 0.69695 0.45933 0.09738 0.0
C1231 C 0.73844 0.50069 0.08046 0.0
C1232 C 0.70959 0.4701 0.1784 0.0
C1233 C 0.91038 0.71381 0.21931 0.0
C1234 C 0.79099 0.58946 0.22544 0.0
C1235 C 0.79615 0.64906 0.2343 0.0
C1236 C 0.85709 0.71126 0.23169 0.0
N1237 N 0.84527 0.59186 0.21447 0.0
C1238 C 0.90376 0.65325 0.21083 0.0
Co1239 Co 0.65566 0.1703 0.96152 0.0
Co1240 Co 0.67086 0.16816 0.90561 0.0
O1241 O 0.66179 0.13052 0.93449 0.0
C1242 C 0.5277 0.03508 0.96421 0.0
O1243 O 0.50935 0.04843 0.94519 0.0
C1244 C 0.79504 0.15877 0.89184 0.0
O1245 O 0.82924 0.22601 0.89015 0.0
O1246 O 0.75109 0.2583 0.91499 0.0
O1247 O 0.72463 0.26554 0.95058 0.0
H1248 H 0.68641 0.37521 0.82042 0.0
H1249 H 0.67835 0.05192 0.96395 0.0
O1250 O 0.586 0.07658 -0.02747 0.0
H1251 H 0.88597 0.2463 -0.00351 0.0
H1252 H 0.62724 0.14824 0.04228 0.0
H1253 H 0.6096 0.26822 -0.02248 0.0
H1254 H 0.79244 0.26267 -0.01771 0.0
H1255 H 0.67173 0.13778 0.00743 0.0
O1256 O 0.73262 0.12781 0.89856 0.0
H1257 H 0.70025 0.29642 0.8818 0.0
H1258 H 0.67059 0.10345 0.86546 0.0
H1259 H 0.55247 0.26926 0.01223 0.0
H1260 H 0.76766 0.03239 -0.02023 0.0
H1261 H 0.5609 0.20802 0.04484 0.0
H1262 H 0.87183 0.12933 -0.00422 0.0
O1263 O 0.58151 0.18451 0.94942 0.0
H1264 H 0.53558 0.91444 0.89267 0.0
H1265 H 0.54041 0.13356 0.88318 0.0
H1266 H 0.44634 0.02869 0.86658 0.0
H1267 H 0.44748 0.91944 0.86927 0.0
H1268 H 0.6271 0.01953 0.90972 0.0
H1269 H 0.67156 0.12391 0.82709 0.0
H1270 H 0.67568 0.22384 0.81374 0.0
O1271 O 0.61003 0.20849 0.91352 0.0
C1272 C 0.75933 0.29233 0.93281 0.0
C1273 C 0.68212 0.27541 0.84574 0.0
C1274 C 0.67612 0.16255 0.83858 0.0
N1275 N 0.68055 0.19913 0.87529 0.0
C1276 C 0.68872 0.26106 0.8687 0.0
C1277 C 0.67639 0.15197 0.86045 0.0
C1278 C 0.67744 0.22065 0.83149 0.0
C1279 C 0.72342 0.09463 -0.02877 0.0
N1280 N 0.72988 0.15826 -0.02765 0.0
C1281 C 0.77425 0.08338 -0.02019 0.0
C1282 C 0.83311 0.13822 -0.01121 0.0
C1283 C 0.84055 0.20352 -0.0107 0.0
C1284 C 0.78774 0.21258 -0.01891 0.0
C1285 C 0.62282 0.17484 0.02829 0.0
C1286 C 0.61271 0.24102 -0.00845 0.0
C1287 C 0.65071 0.1714 0.0083 0.0
N1288 N 0.64514 0.20364 -0.01002 0.0
C1289 C 0.58104 0.24268 0.01122 0.0
C1290 C 0.58605 0.20891 0.02963 0.0
C1291 C 0.57679 0.20841 0.93089 0.0
C1292 C 0.53589 0.962 0.89058 0.0
C1293 C 0.53848 0.08519 0.88587 0.0
C1294 C 0.48564 0.02618 0.87609 0.0
C1295 C 0.48594 0.96476 0.87781 0.0
N1296 N 0.58993 0.08285 0.89709 0.0
C1297 C 0.5875 0.02176 0.90035 0.0
Co1298 Co 0.8382 0.49199 0.96065 0.0
Co1299 Co 0.84396 0.49894 0.90464 0.0
O1300 O 0.87824 0.53135 0.93331 0.0
C1301 C 0.97204 0.49454 0.96428 0.0
O1302 O 0.95653 0.45864 0.946 0.0
C1303 C 0.84353 0.6259 0.88961 0.0
O1304 O 0.77675 0.58763 0.88718 0.0
O1305 O 0.75027 0.48288 0.91221 0.0
O1306 O 0.74225 0.46531 0.94907 0.0
H1307 H 0.64407 0.29463 0.82062 0.0
H1308 H 0.96334 0.63028 0.96355 0.0
O1309 O 0.93187 0.51419 -0.02803 0.0
H1310 H 0.77348 0.6636 -0.01189 0.0
H1311 H 0.84553 0.51749 0.04196 0.0
H1312 H 0.73948 0.35313 -0.01888 0.0
H1313 H 0.75022 0.54955 -0.02428 0.0
H1314 H 0.87907 0.55352 0.00462 0.0
O1315 O 0.8786 0.59932 0.89666 0.0
H1316 H 0.7186 0.39532 0.88086 0.0
H1317 H 0.91085 0.56105 0.86466 0.0
H1318 H 0.71614 0.3127 0.01992 0.0
H1319 H 0.98925 0.7408 -0.02043 0.0
H1320 H 0.75736 0.39742 0.05014 0.0
H1321 H 0.89465 0.75952 -0.0093 0.0
O1322 O 0.81862 0.39923 0.9508 0.0
H1323 H 0.10289 0.62425 0.90208 0.0
H1324 H 0.88995 0.41057 0.88307 0.0
H1325 H 1.00161 0.42643 0.87099 0.0
H1326 H 0.10817 0.53665 0.87865 0.0
H1327 H 0.98998 0.60896 0.91245 0.0
H1328 H 0.89456 0.53444 0.82633 0.0
H1329 H 0.79698 0.43439 0.81348 0.0
O1330 O 0.80802 0.39943 0.91364 0.0
C1331 C 0.71537 0.46402 0.93009 0.0
C1332 C 0.74278 0.39388 0.84545 0.0
C1333 C 0.85521 0.50163 0.83785 0.0
N1334 N 0.81627 0.47357 0.87444 0.0
C1335 C 0.7552 0.41794 0.86802 0.0
C1336 C 0.86369 0.51614 0.8596 0.0
C1337 C 0.79851 0.44235 0.83109 0.0
C1338 C 0.92141 0.63661 0.96921 0.0
N1339 N 0.85531 0.58271 0.96898 0.0
C1340 C 0.93645 0.70009 -0.02225 0.0
C1341 C 0.88304 0.71028 -0.01578 0.0
C1342 C 0.81534 0.65637 -0.01719 0.0
C1343 C 0.8024 0.59209 -0.02453 0.0
C1344 C 0.82077 0.48096 0.0289 0.0
C1345 C 0.76214 0.38947 -0.00563 0.0
C1346 C 0.83807 0.50165 0.00726 0.0
N1347 N 0.80533 0.4575 -0.00991 0.0
C1348 C 0.74722 0.3662 0.01617 0.0
C1349 C 0.77323 0.41315 0.0334 0.0
C1350 C 0.80158 0.36849 0.93212 0.0
C1351 C 0.05624 0.57818 0.89733 0.0
C1352 C 0.93651 0.45773 0.8872 0.0
C1353 C 0.99948 0.46647 0.88023 0.0
C1354 C 0.05944 0.52796 0.88482 0.0
N1355 N 0.93329 0.50951 0.89794 0.0
C1356 C 0.99224 0.56862 0.90347 0.0
Co1357 Co 0.51274 0.35126 0.95632 0.0
Co1358 Co 0.50856 0.33297 0.90081 0.0
O1359 O 0.47316 0.34145 0.9282 0.0
C1360 C 0.52027 0.48251 0.96846 0.0
O1361 O 0.58633 0.50895 -0.02796 0.0
C1362 C 0.37452 0.20442 0.88823 0.0
O1363 O 0.40706 0.16977 0.88879 0.0
O1364 O 0.51774 0.25496 0.91201 0.0
O1365 O 0.5431 0.28235 0.94822 0.0
H1366 H 0.72462 0.33318 0.82124 0.0
H1367 H 0.36901 0.32575 0.95578 0.0
O1368 O 0.48322 0.4202 0.96246 0.0
H1369 H 0.3601 0.13547 -0.00148 0.0
H1370 H 0.49951 0.39818 0.0353 0.0
H1371 H 0.65102 0.39806 -0.02307 0.0
H1372 H 0.46617 0.21778 -0.02091 0.0
H1373 H 0.45275 0.34615 8e-05 0.0
O1374 O 0.40696 0.26895 0.89256 0.0
H1375 H 0.61909 0.31401 0.88056 0.0
H1376 H 0.44787 0.32303 0.85927 0.0
H1377 H 0.70072 0.46219 0.01143 0.0
H1378 H 0.26609 0.25066 -0.02241 0.0
H1379 H 0.62514 0.4568 0.04157 0.0
H1380 H 0.26053 0.15471 -0.00125 0.0
O1381 O 0.60462 0.4256 0.94554 0.0
H1382 H 0.39291 0.46497 0.87759 0.0
H1383 H 0.6107 0.46492 0.88062 0.0
H1384 H 0.60702 0.56074 0.86296 0.0
H1385 H 0.49608 0.55814 0.86034 0.0
H1386 H 0.3993 0.37274 0.89777 0.0
H1387 H 0.48332 0.33813 0.82199 0.0
H1388 H 0.58912 0.35306 0.81205 0.0
O1389 O 0.60885 0.39492 0.91053 0.0
C1390 C 0.54062 0.24836 0.93062 0.0
C1391 C 0.62425 0.33567 0.84449 0.0
C1392 C 0.51485 0.33344 0.8344 0.0
N1393 N 0.5366 0.32303 0.87161 0.0
C1394 C 0.59633 0.32342 0.86673 0.0
C1395 C 0.49483 0.32346 0.85561 0.0
C1396 C 0.5779 0.34298 0.82928 0.0
C1397 C 0.36758 0.28417 0.96505 0.0
N1398 N 0.42438 0.27722 0.96649 0.0
C1399 C 0.30844 0.24098 -0.02298 0.0
C1400 C 0.30559 0.18716 -0.01094 0.0
C1401 C 0.36167 0.17692 -0.01095 0.0
C1402 C 0.42127 0.22307 -0.02229 0.0
C1403 C 0.5332 0.39649 0.02297 0.0
C1404 C 0.61752 0.39662 -0.01021 0.0
C1405 C 0.50662 0.36523 0.00279 0.0
N1406 N 0.54855 0.36598 -0.01378 0.0
C1407 C 0.64607 0.43149 0.0095 0.0
C1408 C 0.60358 0.43014 0.0263 0.0
C1409 C 0.63838 0.42884 0.92823 0.0
C1410 C 0.44095 0.46592 0.87916 0.0
C1411 C 0.5633 0.46591 0.88115 0.0
C1412 C 0.5614 0.51994 0.87072 0.0
C1413 C 0.49936 0.51887 0.86936 0.0
N1414 N 0.50534 0.41302 0.89045 0.0
C1415 C 0.44507 0.41381 0.89025 0.0
Co1416 Co 0.5003 0.67606 0.79255 0.0
Co1417 Co 0.49922 0.669 0.73637 0.0
O1418 O 0.53914 0.67635 0.76467 0.0
C1419 C 0.63295 0.80899 0.79764 0.0
O1420 O 0.61623 0.83366 0.7807 0.0
C1421 C 0.50863 0.54294 0.72321 0.0
O1422 O 0.44123 0.507 0.72313 0.0
O1423 O 0.40941 0.58847 0.74528 0.0
O1424 O 0.40359 0.60725 0.7816 0.0
H1425 H 0.29518 0.67927 0.65434 0.0
H1426 H 0.62369 0.66053 0.79457 0.0
O1427 O 0.59461 0.74664 0.80357 0.0
H1428 H 0.4323 0.4395 0.82074 0.0
H1429 H 0.515 0.66667 0.87401 0.0
H1430 H 0.40095 0.71446 0.81332 0.0
H1431 H 0.41099 0.53148 0.80852 0.0
H1432 H 0.54423 0.65911 0.8363 0.0
O1433 O 0.53926 0.60701 0.72816 0.0
H1434 H 0.37229 0.65119 0.71441 0.0
H1435 H 0.55644 0.66457 0.69527 0.0
H1436 H 0.38001 0.73463 0.85212 0.0
H1437 H 0.64801 0.5749 0.81043 0.0
H1438 H 0.42832 0.69969 0.88246 0.0
H1439 H 0.55248 0.46245 0.82227 0.0
O1440 O 0.48153 0.74945 0.78283 0.0
H1441 H 0.74916 0.79972 0.71766 0.0
H1442 H 0.53244 0.80211 0.71634 0.0
H1443 H 0.63458 0.89551 0.69835 0.0
H1444 H 0.74253 0.89115 0.69751 0.0
H1445 H 0.64806 0.71029 0.73714 0.0
H1446 H 0.53776 0.67687 0.65762 0.0
H1447 H 0.44616 0.68987 0.64632 0.0
O1448 O 0.4599 0.72937 0.74623 0.0
C1449 C 0.37557 0.57734 0.76319 0.0
C1450 C 0.39262 0.67455 0.67852 0.0
C1451 C 0.50026 0.67173 0.6696 0.0
N1452 N 0.46546 0.66205 0.70657 0.0
C1453 C 0.40619 0.66175 0.70096 0.0
C1454 C 0.5096 0.66367 0.69105 0.0
C1455 C 0.44664 0.68023 0.66372 0.0
C1456 C 0.58146 0.61268 0.80053 0.0
N1457 N 0.51598 0.60171 0.80083 0.0
C1458 C 0.59555 0.56355 0.80891 0.0
C1459 C 0.54165 0.50055 0.81583 0.0
C1460 C 0.47448 0.48806 0.81506 0.0
C1461 C 0.46264 0.54008 0.80783 0.0
C1462 C 0.48896 0.67668 0.86096 0.0
C1463 C 0.42566 0.70347 0.82654 0.0
C1464 C 0.50364 0.67022 0.83921 0.0
N1465 N 0.46914 0.67926 0.82217 0.0
C1466 C 0.41254 0.71399 0.84836 0.0
C1467 C 0.44175 0.69704 0.86559 0.0
C1468 C 0.45856 0.75811 0.76456 0.0
C1469 C 0.70237 0.80135 0.71778 0.0
C1470 C 0.58062 0.80276 0.71753 0.0
C1471 C 0.63795 0.85518 0.70691 0.0
C1472 C 0.69853 0.85299 0.7065 0.0
N1473 N 0.58394 0.75016 0.72761 0.0
C1474 C 0.64473 0.75078 0.72874 0.0
Co1475 Co 0.31694 0.8132 0.7956 0.0
Co1476 Co 0.33041 0.83232 0.73982 0.0
O1477 O 0.32308 0.8602 0.76894 0.0
C1478 C 0.18938 0.82054 0.79981 0.0
O1479 O 0.16809 0.78574 0.78134 0.0
C1480 C 0.45722 0.96467 0.72627 0.0
O1481 O 0.48871 0.92938 0.72382 0.0
O1482 O 0.40865 0.81906 0.74842 0.0
O1483 O 0.38371 0.78506 0.78397 0.0
H1484 H 0.33502 0.63882 0.65359 0.0
H1485 H 0.34452 0.95653 0.79917 0.0
O1486 O 0.24915 0.83919 0.80723 0.0
H1487 H 0.55153 0.96284 0.82871 0.0
H1488 H 0.28827 0.80605 0.87622 0.0
H1489 H 0.26928 0.66859 0.81114 0.0
H1490 H 0.45345 0.85384 0.81548 0.0
H1491 H 0.33578 0.86185 0.84165 0.0
O1492 O 0.39518 0.93482 0.73335 0.0
H1493 H 0.35248 0.73017 0.71555 0.0
H1494 H 0.33393 0.90058 0.70025 0.0
H1495 H 0.20985 0.61027 0.84565 0.0
H1496 H 0.43869 0.06485 0.81417 0.0
H1497 H 0.21766 0.6799 0.87811 0.0
H1498 H 0.54359 0.06902 0.82827 0.0
O1499 O 0.24118 0.72493 0.78332 0.0
H1500 H 0.20351 0.9596 0.72928 0.0
H1501 H 0.19962 0.742 0.71633 0.0
H1502 H 0.11196 0.76097 0.69882 0.0
H1503 H 0.11804 0.87344 0.70345 0.0
H1504 H 0.29109 0.9396 0.7461 0.0
H1505 H 0.33238 0.88104 0.66181 0.0
H1506 H 0.32924 0.78231 0.64803 0.0
O1507 O 0.26696 0.73055 0.74711 0.0
C1508 C 0.41686 0.79226 0.7659 0.0
C1509 C 0.33528 0.73537 0.67966 0.0
C1510 C 0.33543 0.84577 0.67308 0.0
N1511 N 0.33873 0.81161 0.70946 0.0
C1512 C 0.34291 0.75576 0.70262 0.0
C1513 C 0.33724 0.85663 0.69495 0.0
C1514 C 0.33265 0.78719 0.66575 0.0
C1515 C 0.38944 0.9574 0.80582 0.0
N1516 N 0.39332 0.89879 0.80647 0.0
C1517 C 0.44308 0.01921 0.81392 0.0
C1518 C 0.50202 0.02142 0.82192 0.0
C1519 C 0.50626 0.96179 0.82222 0.0
C1520 C 0.45079 0.90036 0.81454 0.0
C1521 C 0.28379 0.77525 0.86216 0.0
C1522 C 0.27292 0.69885 0.82527 0.0
C1523 C 0.31313 0.80683 0.84232 0.0
N1524 N 0.30657 0.76888 0.82388 0.0
C1525 C 0.24007 0.66548 0.84479 0.0
C1526 C 0.2449 0.7043 0.86319 0.0
C1527 C 0.23495 0.69658 0.76453 0.0
C1528 C 0.20292 0.91227 0.72607 0.0
C1529 C 0.19999 0.78944 0.71953 0.0
C1530 C 0.15093 0.80029 0.70924 0.0
C1531 C 0.15421 0.86327 0.71191 0.0
N1532 N 0.25151 0.84046 0.73174 0.0
C1533 C 0.2516 0.90006 0.73592 0.0
Co1534 Co 0.17479 0.49146 0.79084 0.0
Co1535 Co 0.16826 0.50003 0.73505 0.0
O1536 O 0.13402 0.45874 0.76298 0.0
C1537 C 0.1805 0.36219 0.79695 0.0
O1538 O 0.23973 0.38928 0.7867 0.0
C1539 C 0.03729 0.49332 0.71986 0.0
O1540 O 0.07153 0.56066 0.71861 0.0
O1541 O 0.17864 0.58929 0.74552 0.0
O1542 O 0.20257 0.58945 0.78192 0.0
H1543 H 0.37578 0.71934 0.65478 0.0
H1544 H 0.03218 0.37102 0.79074 0.0
O1545 O 0.14776 0.39444 0.79885 0.0
H1546 H 0.02094 0.55203 0.83317 0.0
H1547 H 0.16636 0.43289 0.86916 0.0
H1548 H 0.31454 0.58556 0.81047 0.0
H1549 H 0.12688 0.57751 0.8134 0.0
H1550 H 0.11742 0.43952 0.83488 0.0
O1551 O 0.06725 0.46139 0.72675 0.0
H1552 H 0.27264 0.63079 0.71415 0.0
H1553 H 0.1096 0.44172 0.69372 0.0
H1554 H 0.36624 0.5718 0.84452 0.0
H1555 H 0.92817 0.34198 0.81219 0.0
H1556 H 0.29249 0.50131 0.87487 0.0
H1557 H 0.92233 0.43186 0.83364 0.0
O1558 O 0.26649 0.511 0.77981 0.0
H1559 H 0.05193 0.24477 0.72396 0.0
H1560 H 0.26391 0.46606 0.71205 0.0
H1561 H 0.25462 0.3602 0.6968 0.0
H1562 H 0.14559 0.2494 0.70127 0.0
H1563 H 0.06233 0.3514 0.73858 0.0
H1564 H 0.1336 0.47065 0.65573 0.0
H1565 H 0.23212 0.57176 0.6449 0.0
O1566 O 0.2686 0.53839 0.74407 0.0
C1567 C 0.20009 0.61993 0.76415 0.0
C1568 C 0.27409 0.61691 0.67787 0.0
C1569 C 0.16657 0.50641 0.66814 0.0
N1570 N 0.19461 0.53535 0.70549 0.0
C1571 C 0.25006 0.59819 0.70035 0.0
C1572 C 0.15322 0.49112 0.6897 0.0
C1573 C 0.22486 0.5656 0.66247 0.0
C1574 C 0.03008 0.41104 0.79994 0.0
N1575 N 0.08632 0.47562 0.80124 0.0
C1576 C 0.97067 0.39433 0.81183 0.0
C1577 C 0.96739 0.44513 0.82389 0.0
C1578 C 0.02293 0.51218 0.82376 0.0
C1579 C 0.08251 0.52656 0.81229 0.0
C1580 C 0.19945 0.46911 0.85692 0.0
C1581 C 0.28172 0.55366 0.82349 0.0
C1582 C 0.17156 0.47436 0.83718 0.0
N1583 N 0.21241 0.51558 0.82042 0.0
C1584 C 0.31147 0.54759 0.84292 0.0
C1585 C 0.26998 0.50623 0.85984 0.0
C1586 C 0.29882 0.53681 0.76191 0.0
C1587 C 0.09804 0.29313 0.72097 0.0
C1588 C 0.21744 0.41748 0.71486 0.0
C1589 C 0.21229 0.35789 0.70599 0.0
C1590 C 0.15135 0.29569 0.7086 0.0
N1591 N 0.16315 0.41507 0.72583 0.0
C1592 C 0.10466 0.35367 0.72946 0.0
Co1593 Co 0.35278 0.83662 -0.02121 0.0
Co1594 Co 0.33758 0.83875 0.03469 0.0
O1595 O 0.34665 0.8764 0.00581 0.0
C1596 C 0.48075 0.97184 -0.0239 0.0
O1597 O 0.49909 0.95849 -0.00488 0.0
C1598 C 0.2134 0.84815 0.04847 0.0
O1599 O 0.1792 0.78091 0.05016 0.0
O1600 O 0.25735 0.74861 0.02532 0.0
O1601 O 0.28381 0.74137 -0.01027 0.0
H1602 H 0.32201 0.63169 0.11988 0.0
H1603 H 0.33009 0.955 -0.02365 0.0
O1604 O 0.42244 0.93034 0.96777 0.0
H1605 H 0.12249 0.76063 0.9438 0.0
H1606 H 0.38122 0.85868 0.89803 0.0
H1607 H 0.39885 0.7387 0.96278 0.0
H1608 H 0.216 0.74425 0.95801 0.0
H1609 H 0.33672 0.86914 0.93287 0.0
O1610 O 0.27581 0.8791 0.04175 0.0
H1611 H 0.30817 0.71049 0.0585 0.0
H1612 H 0.33785 0.90346 0.07484 0.0
H1613 H 0.45599 0.73767 0.92808 0.0
H1614 H 0.24079 0.97453 0.96053 0.0
H1615 H 0.44757 0.7989 0.89547 0.0
H1616 H 0.13664 0.8776 0.94451 0.0
O1617 O 0.42693 0.82241 -0.00912 0.0
H1618 H 0.47285 0.09248 0.04762 0.0
H1619 H 0.46803 0.87337 0.05712 0.0
H1620 H 0.56209 0.97825 0.07373 0.0
H1621 H 0.56094 0.08749 0.07103 0.0
H1622 H 0.38133 0.98738 0.03058 0.0
H1623 H 0.33687 0.88299 0.11322 0.0
H1624 H 0.33275 0.78305 0.12656 0.0
O1625 O 0.39841 0.79843 0.02678 0.0
C1626 C 0.24911 0.71459 0.00749 0.0
C1627 C 0.32631 0.73149 0.09457 0.0
C1628 C 0.33231 0.84436 0.10173 0.0
N1629 N 0.32789 0.80778 0.06501 0.0
C1630 C 0.31971 0.74585 0.07161 0.0
C1631 C 0.33204 0.85494 0.07986 0.0
C1632 C 0.33099 0.78625 0.10881 0.0
C1633 C 0.28502 0.91228 0.96907 0.0
N1634 N 0.27856 0.84866 0.96795 0.0
C1635 C 0.23421 0.92354 0.96049 0.0
C1636 C 0.17535 0.86871 0.95151 0.0
C1637 C 0.1679 0.8034 0.95099 0.0
C1638 C 0.22071 0.79434 0.95921 0.0
C1639 C 0.38564 0.83209 0.91201 0.0
C1640 C 0.39574 0.7659 0.94876 0.0
C1641 C 0.35774 0.83552 0.932 0.0
N1642 N 0.36331 0.80328 0.95032 0.0
C1643 C 0.42742 0.76425 0.92909 0.0
C1644 C 0.42242 0.79802 0.91067 0.0
C1645 C 0.43165 0.7985 0.00942 0.0
C1646 C 0.47254 0.04492 0.04972 0.0
C1647 C 0.46995 0.92174 0.05444 0.0
C1648 C 0.52279 0.98076 0.06422 0.0
C1649 C 0.52248 0.04218 0.06249 0.0
N1650 N 0.4185 0.92407 0.04321 0.0
C1651 C 0.42093 0.98515 0.03995 0.0
Co1652 Co 0.17025 0.51493 -0.02035 0.0
Co1653 Co 0.16448 0.50797 0.03566 0.0
O1654 O 0.13021 0.47557 0.00699 0.0
C1655 C 0.03641 0.51237 -0.02399 0.0
O1656 O 0.05191 0.54827 -0.0057 0.0
C1657 C 0.16491 0.38101 0.05069 0.0
O1658 O 0.23169 0.41929 0.05312 0.0
O1659 O 0.25817 0.52403 0.02809 0.0
O1660 O 0.2662 0.54161 -0.00877 0.0
H1661 H 0.36435 0.71226 0.11969 0.0
H1662 H 0.04511 0.37664 -0.02325 0.0
O1663 O 0.07658 0.49273 0.96833 0.0
H1664 H 0.23499 0.34334 0.95219 0.0
H1665 H 0.16294 0.48944 0.89834 0.0
H1666 H 0.26897 0.6538 0.95918 0.0
H1667 H 0.25824 0.45738 0.96458 0.0
H1668 H 0.12939 0.4534 0.93568 0.0
O1669 O 0.12984 0.40759 0.04364 0.0
H1670 H 0.28983 0.61159 0.05944 0.0
H1671 H 0.09758 0.44585 0.07564 0.0
H1672 H 0.29233 0.69423 0.92038 0.0
H1673 H 0.01922 0.26612 0.96072 0.0
H1674 H 0.25111 0.60951 0.89016 0.0
H1675 H 0.11383 0.24741 0.9496 0.0
O1676 O 0.18982 0.60768 -0.0105 0.0
H1677 H 0.90555 0.38265 0.03822 0.0
H1678 H 0.11848 0.59633 0.05723 0.0
H1679 H 0.00681 0.58046 0.06931 0.0
H1680 H 0.90026 0.47023 0.06165 0.0
H1681 H 0.01846 0.39795 0.02785 0.0
H1682 H 0.11386 0.47246 0.11397 0.0
H1683 H 0.21143 0.57251 0.12682 0.0
O1684 O 0.20041 0.60748 0.02666 0.0
C1685 C 0.29308 0.5429 0.01021 0.0
C1686 C 0.26564 0.61302 0.09485 0.0
C1687 C 0.15321 0.50527 0.10245 0.0
N1688 N 0.19216 0.53334 0.06586 0.0
C1689 C 0.25323 0.58896 0.07228 0.0
C1690 C 0.14474 0.49076 0.0807 0.0
C1691 C 0.20991 0.56455 0.10921 0.0
C1692 C 0.08705 0.37031 -0.02892 0.0
N1693 N 0.15314 0.42421 -0.02868 0.0
C1694 C 0.07202 0.30683 0.96254 0.0
C1695 C 0.12543 0.29665 0.95608 0.0
C1696 C 0.19313 0.35056 0.95748 0.0
C1697 C 0.20606 0.41484 0.96483 0.0
C1698 C 0.18769 0.52597 0.9114 0.0
C1699 C 0.24631 0.61745 0.94593 0.0
C1700 C 0.17039 0.50528 0.93304 0.0
N1701 N 0.20313 0.54942 0.95021 0.0
C1702 C 0.26124 0.64072 0.92413 0.0
C1703 C 0.23524 0.59378 0.90691 0.0
C1704 C 0.20686 0.63842 0.00818 0.0
C1705 C 0.95219 0.42872 0.04297 0.0
C1706 C 0.07192 0.54917 0.0531 0.0
C1707 C 0.00895 0.54042 0.06007 0.0
C1708 C 0.949 0.47893 0.05548 0.0
N1709 N 0.07514 0.49739 0.04236 0.0
C1710 C 0.01619 0.43828 0.03682 0.0
Co1711 Co 0.4957 0.65567 -0.01602 0.0
Co1712 Co 0.49988 0.67395 0.03949 0.0
O1713 O 0.53528 0.66547 0.01211 0.0
C1714 C 0.48818 0.52441 -0.02816 0.0
O1715 O 0.42212 0.49797 0.96827 0.0
C1716 C 0.63392 0.80251 0.05206 0.0
O1717 O 0.60139 0.83717 0.05149 0.0
O1718 O 0.49069 0.75195 0.02829 0.0
O1719 O 0.46534 0.72457 -0.00791 0.0
H1720 H 0.28381 0.67371 0.11906 0.0
H1721 H 0.63944 0.68117 -0.01547 0.0
O1722 O 0.52523 0.58672 -0.02215 0.0
H1723 H 0.64836 0.87147 0.94179 0.0
H1724 H 0.50895 0.60875 0.905 0.0
H1725 H 0.35743 0.60886 0.96338 0.0
H1726 H 0.54229 0.78915 0.96122 0.0
H1727 H 0.5557 0.66078 0.94023 0.0
O1728 O 0.60147 0.73798 0.04774 0.0
H1729 H 0.38934 0.6929 0.05974 0.0
H1730 H 0.56057 0.68391 0.08103 0.0
H1731 H 0.30773 0.54473 0.92888 0.0
H1732 H 0.74235 0.75625 0.96271 0.0
H1733 H 0.38332 0.55013 0.89873 0.0
H1734 H 0.74792 0.85222 0.94156 0.0
O1735 O 0.40382 0.58132 -0.00523 0.0
H1736 H 0.61555 0.54197 0.06272 0.0
H1737 H 0.39775 0.54199 0.05968 0.0
H1738 H 0.40144 0.44618 0.07735 0.0
H1739 H 0.51239 0.4488 0.07996 0.0
H1740 H 0.60915 0.63419 0.04254 0.0
H1741 H 0.5251 0.66877 0.11831 0.0
H1742 H 0.41929 0.6538 0.12825 0.0
O1743 O 0.39959 0.612 0.02977 0.0
C1744 C 0.46782 0.75856 0.00968 0.0
C1745 C 0.38417 0.67122 0.09581 0.0
C1746 C 0.49357 0.67346 0.1059 0.0
N1747 N 0.47184 0.68388 0.06869 0.0
C1748 C 0.4121 0.68349 0.07358 0.0
C1749 C 0.5136 0.68347 0.08469 0.0
C1750 C 0.43051 0.66391 0.11102 0.0
C1751 C 0.64086 0.72275 -0.02475 0.0
N1752 N 0.58406 0.7297 -0.02619 0.0
C1753 C 0.70001 0.76594 0.96329 0.0
C1754 C 0.70287 0.81976 0.95125 0.0
C1755 C 0.64679 0.83001 0.95126 0.0
C1756 C 0.58719 0.78385 0.9626 0.0
C1757 C 0.47525 0.61044 0.91733 0.0
C1758 C 0.39093 0.6103 0.95052 0.0
C1759 C 0.50184 0.64169 0.93751 0.0
N1760 N 0.4599 0.64094 0.95408 0.0
C1761 C 0.36238 0.57543 0.9308 0.0
C1762 C 0.40488 0.57678 0.914 0.0
C1763 C 0.37006 0.57808 0.01207 0.0
C1764 C 0.56751 0.54102 0.06114 0.0
C1765 C 0.44515 0.54101 0.05915 0.0
C1766 C 0.44706 0.48699 0.06959 0.0
C1767 C 0.50911 0.48807 0.07095 0.0
N1768 N 0.50311 0.5939 0.04985 0.0
C1769 C 0.56338 0.59313 0.05005 0.0
Co1770 Co 0.17152 0.65482 0.47848 0.0
Co1771 Co 0.16908 0.67032 0.53431 0.0
O1772 O 0.13181 0.66154 0.50541 0.0
C1773 C 0.03595 0.52713 0.47603 0.0
O1774 O 0.04934 0.50948 0.49516 0.0
C1775 C 0.16014 0.79451 0.54832 0.0
O1776 O 0.2273 0.82819 0.55028 0.0
O1777 O 0.25938 0.75047 0.52507 0.0
O1778 O 0.26678 0.72375 0.4895 0.0
H1779 H 0.37585 0.6871 0.6197 0.0
H1780 H 0.0535 0.67808 0.47578 0.0
O1781 O 0.07764 0.58505 0.46748 0.0
H1782 H 0.24899 0.88566 0.44374 0.0
H1783 H 0.15011 0.62603 0.39774 0.0
H1784 H 0.26925 0.60832 0.4627 0.0
H1785 H 0.26443 0.79137 0.45773 0.0
H1786 H 0.13951 0.67081 0.4325 0.0
O1787 O 0.129 0.7323 0.54136 0.0
H1788 H 0.29752 0.70067 0.55842 0.0
H1789 H 0.10353 0.66908 0.5743 0.0
H1790 H 0.26995 0.55043 0.4281 0.0
H1791 H 0.03491 0.76826 0.46018 0.0
H1792 H 0.20881 0.55861 0.39541 0.0
H1793 H 0.13248 0.8725 0.44445 0.0
O1794 O 0.18533 0.58052 0.49067 0.0
H1795 H 0.91555 0.53631 0.54726 0.0
H1796 H 0.13367 0.53898 0.55633 0.0
H1797 H 0.02869 0.44535 0.57293 0.0
H1798 H 0.92021 0.44804 0.57068 0.0
H1799 H 0.02066 0.62724 0.53012 0.0
H1800 H 0.12047 0.66302 0.61254 0.0
H1801 H 0.2203 0.66737 0.62609 0.0
O1802 O 0.20938 0.60947 0.52652 0.0
C1803 C 0.29349 0.75857 0.50728 0.0
C1804 C 0.2746 0.67921 0.59427 0.0
C1805 C 0.16037 0.67014 0.60122 0.0
N1806 N 0.19951 0.67954 0.56465 0.0
C1807 C 0.26133 0.68774 0.57137 0.0
C1808 C 0.15166 0.67411 0.5794 0.0
C1809 C 0.21824 0.67111 0.60837 0.0
C1810 C 0.09644 0.72312 0.46859 0.0
N1811 N 0.15989 0.72919 0.46753 0.0
C1812 C 0.08572 0.77443 0.46014 0.0
C1813 C 0.14089 0.83332 0.45132 0.0
C1814 C 0.20596 0.84025 0.45081 0.0
C1815 C 0.21448 0.78699 0.4589 0.0
C1816 C 0.17635 0.62141 0.41178 0.0
C1817 C 0.2421 0.6113 0.44863 0.0
C1818 C 0.17291 0.64954 0.43172 0.0
N1819 N 0.20489 0.64392 0.4501 0.0
C1820 C 0.24359 0.57923 0.42903 0.0
C1821 C 0.20995 0.58416 0.41056 0.0
C1822 C 0.20921 0.57595 0.50923 0.0
C1823 C 0.96289 0.53615 0.54926 0.0
C1824 C 0.0855 0.5375 0.5537 0.0
C1825 C 0.02645 0.48494 0.56351 0.0
C1826 C 0.96541 0.48603 0.56199 0.0
N1827 N 0.08353 0.58936 0.54261 0.0
C1828 C 0.02266 0.58741 0.53942 0.0
Co1829 Co 0.35208 0.51195 0.48396 0.0
Co1830 Co 0.33381 0.50791 0.53943 0.0
O1831 O 0.34201 0.47223 0.51205 0.0
C1832 C 0.48325 0.51949 0.47187 0.0
O1833 O 0.50968 0.58557 0.46834 0.0
C1834 C 0.20563 0.37441 0.55244 0.0
O1835 O 0.17131 0.40731 0.55217 0.0
O1836 O 0.25569 0.51697 0.52823 0.0
O1837 O 0.28331 0.5424 0.49205 0.0
H1838 H 0.33151 0.72285 0.61883 0.0
H1839 H 0.32653 0.36808 0.48418 0.0
O1840 O 0.42096 0.48237 0.47785 0.0
H1841 H 0.13528 0.35944 0.44208 0.0
H1842 H 0.40043 0.4989 0.40523 0.0
H1843 H 0.39914 0.65032 0.46345 0.0
H1844 H 0.21839 0.46559 0.46133 0.0
H1845 H 0.34686 0.45195 0.4402 0.0
O1846 O 0.26989 0.40646 0.54778 0.0
H1847 H 0.31339 0.61779 0.5597 0.0
H1848 H 0.32529 0.44808 0.58101 0.0
H1849 H 0.46454 0.70017 0.42919 0.0
H1850 H 0.25072 0.26513 0.46243 0.0
H1851 H 0.4599 0.62463 0.39912 0.0
H1852 H 0.15402 0.25956 0.4417 0.0
O1853 O 0.42655 0.60383 0.49481 0.0
H1854 H 0.46541 0.39224 0.56307 0.0
H1855 H 0.46672 0.6106 0.55914 0.0
H1856 H 0.563 0.60727 0.57653 0.0
H1857 H 0.55975 0.4961 0.57965 0.0
H1858 H 0.37314 0.39834 0.54282 0.0
H1859 H 0.34625 0.48678 0.61799 0.0
H1860 H 0.36026 0.5923 0.62778 0.0
O1861 O 0.39555 0.60816 0.52972 0.0
C1862 C 0.24916 0.53983 0.5096 0.0
C1863 C 0.33803 0.62461 0.59557 0.0
C1864 C 0.33927 0.51706 0.60566 0.0
N1865 N 0.3243 0.53622 0.56861 0.0
C1866 C 0.32423 0.59575 0.57345 0.0
C1867 C 0.3262 0.49532 0.58463 0.0
C1868 C 0.3486 0.58014 0.61066 0.0
C1869 C 0.28479 0.36676 0.47503 0.0
N1870 N 0.27794 0.42365 0.47372 0.0
C1871 C 0.24118 0.30758 0.46311 0.0
C1872 C 0.18698 0.30473 0.4513 0.0
C1873 C 0.17698 0.36097 0.4514 0.0
C1874 C 0.22362 0.42064 0.46264 0.0
C1875 C 0.39844 0.5326 0.4175 0.0
C1876 C 0.3979 0.61686 0.4506 0.0
C1877 C 0.36633 0.5059 0.43754 0.0
N1878 N 0.36694 0.54783 0.4541 0.0
C1879 C 0.43352 0.6455 0.43102 0.0
C1880 C 0.43257 0.60303 0.41427 0.0
C1881 C 0.4297 0.63767 0.51209 0.0
C1882 C 0.46675 0.4404 0.56121 0.0
C1883 C 0.46744 0.56305 0.55871 0.0
C1884 C 0.52174 0.56136 0.56903 0.0
C1885 C 0.5203 0.49918 0.57067 0.0
N1886 N 0.41406 0.5048 0.54969 0.0
C1887 C 0.41455 0.44436 0.55012 0.0
Co1888 Co 0.49327 0.83756 0.47968 0.0
Co1889 Co 0.49985 0.84339 0.53571 0.0
O1890 O 0.53269 0.87754 0.50706 0.0
C1891 C 0.49542 0.97131 0.47602 0.0
O1892 O 0.45927 0.9556 0.49424 0.0
C1893 C 0.62626 0.84309 0.55148 0.0
O1894 O 0.58744 0.77649 0.55424 0.0
O1895 O 0.48398 0.74963 0.52819 0.0
O1896 O 0.46642 0.7416 0.49129 0.0
H1897 H 0.29542 0.64241 0.61941 0.0
H1898 H 0.63168 0.9627 0.47655 0.0
O1899 O 0.51551 0.93136 0.4684 0.0
H1900 H 0.66466 0.77184 0.45281 0.0
H1901 H 0.51904 0.8445 0.39843 0.0
H1902 H 0.35455 0.73831 0.45915 0.0
H1903 H 0.55066 0.74916 0.46491 0.0
H1904 H 0.55475 0.87856 0.43576 0.0
O1905 O 0.60017 0.87814 0.54399 0.0
H1906 H 0.39641 0.71746 0.55953 0.0
H1907 H 0.56066 0.91084 0.57578 0.0
H1908 H 0.31436 0.71426 0.42031 0.0
H1909 H 0.74219 0.98796 0.46071 0.0
H1910 H 0.39916 0.75569 0.39016 0.0
H1911 H 0.76081 0.89283 0.45008 0.0
O1912 O 0.40051 0.81806 0.48941 0.0
H1913 H 0.62548 0.10234 0.53839 0.0
H1914 H 0.41071 0.88965 0.55661 0.0
H1915 H 0.42627 1.00145 0.56844 0.0
H1916 H 0.53707 0.10782 0.56127 0.0
H1917 H 0.61027 0.98932 0.52817 0.0
H1918 H 0.53054 0.8969 0.61385 0.0
H1919 H 0.43051 0.79914 0.62653 0.0
O1920 O 0.40046 0.80725 0.52654 0.0
C1921 C 0.46509 0.71471 0.51028 0.0
C1922 C 0.39294 0.74301 0.59469 0.0
C1923 C 0.49899 0.85668 0.60237 0.0
N1924 N 0.47381 0.81589 0.56588 0.0
C1925 C 0.41823 0.75475 0.57226 0.0
C1926 C 0.51542 0.86389 0.58076 0.0
C1927 C 0.4395 0.80002 0.609 0.0
C1928 C 0.63792 0.92054 0.47105 0.0
N1929 N 0.58395 0.85448 0.47141 0.0
C1930 C 0.70139 0.93522 0.46261 0.0
C1931 C 0.71152 0.88154 0.45642 0.0
C1932 C 0.65751 0.81393 0.45791 0.0
C1933 C 0.59323 0.80133 0.4651 0.0
C1934 C 0.48247 0.81971 0.41145 0.0
C1935 C 0.39091 0.76106 0.44592 0.0
C1936 C 0.50299 0.83736 0.43309 0.0
N1937 N 0.45884 0.80461 0.45024 0.0
C1938 C 0.36778 0.74574 0.4241 0.0
C1939 C 0.41479 0.77179 0.40691 0.0
C1940 C 0.36963 0.80085 0.50804 0.0
C1941 C 0.57913 0.05575 0.54295 0.0
C1942 C 0.45807 0.93616 0.55262 0.0
C1943 C 0.46666 0.9992 0.55947 0.0
C1944 C 0.52846 0.05907 0.55514 0.0
N1945 N 0.51025 0.93279 0.54223 0.0
C1946 C 0.56965 0.99169 0.5369 0.0
Co1947 Co 0.32942 0.50599 0.29327 0.0
Co1948 Co 0.33473 0.50575 0.23703 0.0
O1949 O 0.32865 0.46692 0.26542 0.0
C1950 C 0.19582 0.37389 0.29802 0.0
O1951 O 0.17222 0.39044 0.28075 0.0
C1952 C 0.46062 0.49972 0.22237 0.0
O1953 O 0.49255 0.56693 0.22073 0.0
O1954 O 0.41516 0.59624 0.2457 0.0
O1955 O 0.39944 0.60218 0.2823 0.0
H1956 H 0.32772 0.71089 0.15474 0.0
H1957 H 0.34122 0.38058 0.29532 0.0
O1958 O 0.25773 0.4123 0.30433 0.0
H1959 H 0.56497 0.56834 0.32116 0.0
H1960 H 0.3408 0.49283 0.37474 0.0
H1961 H 0.29269 0.60664 0.31408 0.0
H1962 H 0.47502 0.59283 0.30896 0.0
H1963 H 0.34612 0.46193 0.33708 0.0
O1964 O 0.39753 0.46676 0.22862 0.0
H1965 H 0.35463 0.63313 0.21478 0.0
H1966 H 0.33418 0.44547 0.19615 0.0
H1967 H 0.27446 0.62913 0.35289 0.0
H1968 H 0.42437 0.35321 0.31128 0.0
H1969 H 0.31011 0.58129 0.38318 0.0
H1970 H 0.5383 0.44685 0.32295 0.0
O1971 O 0.25702 0.52633 0.28362 0.0
H1972 H 0.19115 0.24935 0.22625 0.0
H1973 H 0.20267 0.47153 0.21622 0.0
H1974 H 0.10351 0.36626 0.20173 0.0
H1975 H 0.10097 0.25531 0.205 0.0
H1976 H 0.29068 0.35608 0.24051 0.0
H1977 H 0.32219 0.464 0.1583 0.0
H1978 H 0.31521 0.55914 0.14669 0.0
O1979 O 0.2745 0.54502 0.24684 0.0
C1980 C 0.42818 0.63001 0.26375 0.0
C1981 C 0.3303 0.61238 0.17896 0.0
C1982 C 0.32892 0.50238 0.17021 0.0
N1983 N 0.34027 0.53835 0.20714 0.0
C1984 C 0.34267 0.59857 0.20142 0.0
C1985 C 0.33642 0.49288 0.19173 0.0
C1986 C 0.32348 0.55777 0.16417 0.0
C1987 C 0.38956 0.42206 0.30129 0.0
N1988 N 0.40244 0.48825 0.30151 0.0
C1989 C 0.43731 0.40622 0.30974 0.0
C1990 C 0.50116 0.45906 0.31653 0.0
C1991 C 0.51572 0.52696 0.31559 0.0
C1992 C 0.46487 0.5406 0.30838 0.0
C1993 C 0.33071 0.5188 0.3617 0.0
C1994 C 0.30372 0.58191 0.32728 0.0
C1995 C 0.33594 0.50315 0.33996 0.0
N1996 N 0.32704 0.53768 0.3229 0.0
C1997 C 0.29434 0.59596 0.34911 0.0
C1998 C 0.31158 0.56695 0.36633 0.0
C1999 C 0.24741 0.54819 0.26527 0.0
C2000 C 0.19413 0.29813 0.22388 0.0
C2001 C 0.20019 0.42285 0.21878 0.0
C2002 C 0.14418 0.36353 0.21031 0.0
C2003 C 0.14238 0.30119 0.21234 0.0
N2004 N 0.2531 0.42016 0.22888 0.0
C2005 C 0.24972 0.35853 0.23207 0.0
Co2006 Co 0.51633 0.83143 0.29127 0.0
Co2007 Co 0.50745 0.83733 0.23543 0.0
O2008 O 0.54945 0.87179 0.26334 0.0
C2009 C 0.64647 0.82726 0.2962 0.0
O2010 O 0.62317 0.77398 0.283 0.0
C2011 C 0.51422 0.9681 0.22009 0.0
O2012 O 0.4469 0.93314 0.21886 0.0
O2013 O 0.41897 0.8286 0.24591 0.0
O2014 O 0.41874 0.80448 0.28228 0.0
H2015 H 0.28634 0.63028 0.15521 0.0
H2016 H 0.63735 0.97328 0.29079 0.0
O2017 O 0.61256 0.85751 0.29973 0.0
H2018 H 0.45928 0.98689 0.33411 0.0
H2019 H 0.57533 0.83972 0.36945 0.0
H2020 H 0.42137 0.69207 0.31086 0.0
H2021 H 0.43161 0.88096 0.31389 0.0
H2022 H 0.56785 0.889 0.33539 0.0
O2023 O 0.54684 0.93858 0.22689 0.0
H2024 H 0.37603 0.73326 0.21458 0.0
H2025 H 0.56596 0.89462 0.19413 0.0
H2026 H 0.43608 0.64003 0.34466 0.0
H2027 H 0.66852 0.07735 0.31253 0.0
H2028 H 0.50726 0.71353 0.37497 0.0
H2029 H 0.58023 0.08416 0.33458 0.0
O2030 O 0.49633 0.73924 0.28034 0.0
H2031 H 0.76317 0.94424 0.22575 0.0
H2032 H 0.53747 0.73894 0.21268 0.0
H2033 H 0.64166 0.74185 0.19888 0.0
H2034 H 0.75498 0.84723 0.20393 0.0
H2035 H 0.65769 0.94054 0.23882 0.0
H2036 H 0.53736 0.86984 0.15611 0.0
H2037 H 0.43559 0.77201 0.14534 0.0
O2038 O 0.46774 0.73704 0.2447 0.0
C2039 C 0.3884 0.80743 0.26455 0.0
C2040 C 0.38985 0.73099 0.17831 0.0
C2041 C 0.50124 0.83747 0.16854 0.0
N2042 N 0.47173 0.8106 0.2059 0.0
C2043 C 0.40868 0.75538 0.20077 0.0
C2044 C 0.51632 0.85131 0.1901 0.0
C2045 C 0.44171 0.77947 0.1629 0.0
C2046 C 0.59795 0.97599 0.30016 0.0
N2047 N 0.53305 0.92032 0.30153 0.0
C2048 C 0.61588 0.03537 0.31226 0.0
C2049 C 0.56596 0.03924 0.32462 0.0
C2050 C 0.49848 0.98445 0.32448 0.0
C2051 C 0.48283 0.92489 0.31275 0.0
C2052 C 0.53878 0.80675 0.35725 0.0
C2053 C 0.45352 0.72478 0.32387 0.0
C2054 C 0.53301 0.83484 0.33763 0.0
N2055 N 0.49165 0.7941 0.32085 0.0
C2056 C 0.46012 0.69484 0.34316 0.0
C2057 C 0.50186 0.73617 0.36006 0.0
C2058 C 0.46952 0.70678 0.26249 0.0
C2059 C 0.71379 0.89969 0.2225 0.0
C2060 C 0.58692 0.78414 0.21569 0.0
C2061 C 0.64567 0.78555 0.2077 0.0
C2062 C 0.70929 0.84446 0.2107 0.0
N2063 N 0.59139 0.84004 0.22624 0.0
C2064 C 0.65393 0.89691 0.23007 0.0
Co2065 Co 0.19505 0.69211 0.29612 0.0
Co2066 Co 0.17609 0.67875 0.24031 0.0
O2067 O 0.14825 0.686 0.26944 0.0
C2068 C 0.1883 0.82018 0.29965 0.0
O2069 O 0.22169 0.83999 0.28091 0.0
C2070 C 0.04503 0.55176 0.22659 0.0
O2071 O 0.08138 0.52143 0.2241 0.0
O2072 O 0.18897 0.60025 0.24889 0.0
O2073 O 0.22148 0.62389 0.28464 0.0
H2074 H 0.36682 0.66972 0.15404 0.0
H2075 H 0.0534 0.66849 0.29986 0.0
O2076 O 0.17078 0.76128 0.30759 0.0
H2077 H 0.04057 0.45813 0.32906 0.0
H2078 H 0.20293 0.72068 0.37683 0.0
H2079 H 0.33943 0.73871 0.31167 0.0
H2080 H 0.15091 0.55427 0.31583 0.0
H2081 H 0.14665 0.67356 0.34227 0.0
O2082 O 0.0738 0.61388 0.23369 0.0
H2083 H 0.27628 0.65404 0.21593 0.0
H2084 H 0.10896 0.6779 0.20085 0.0
H2085 H 0.39817 0.79815 0.34614 0.0
H2086 H 0.94432 0.57685 0.3151 0.0
H2087 H 0.32905 0.79083 0.37865 0.0
H2088 H 0.93666 0.47016 0.32895 0.0
O2089 O 0.28379 0.76692 0.28381 0.0
H2090 H 0.05652 0.81578 0.23386 0.0
H2091 H 0.26637 0.80867 0.21663 0.0
H2092 H 0.25183 0.90195 0.20152 0.0
H2093 H 0.1431 0.90155 0.20813 0.0
H2094 H 0.071 0.72091 0.24767 0.0
H2095 H 0.12798 0.67902 0.16234 0.0
H2096 H 0.22482 0.67823 0.14843 0.0
O2097 O 0.27775 0.74164 0.24757 0.0
C2098 C 0.21433 0.59087 0.26652 0.0
C2099 C 0.27144 0.6717 0.18006 0.0
C2100 C 0.16275 0.67491 0.17356 0.0
N2101 N 0.19662 0.67065 0.20993 0.0
C2102 C 0.25133 0.66461 0.20304 0.0
C2103 C 0.15226 0.67356 0.19546 0.0
C2104 C 0.22026 0.67554 0.16617 0.0
C2105 C 0.05124 0.62294 0.30649 0.0
N2106 N 0.10871 0.61701 0.30702 0.0
C2107 C 0.9889 0.57066 0.3147 0.0
C2108 C 0.98476 0.5107 0.32256 0.0
C2109 C 0.04313 0.50422 0.32266 0.0
C2110 C 0.1053 0.55858 0.31498 0.0
C2111 C 0.23347 0.72506 0.36273 0.0
C2112 C 0.30932 0.73539 0.32579 0.0
C2113 C 0.20161 0.69589 0.34289 0.0
N2114 N 0.2393 0.70218 0.32442 0.0
C2115 C 0.34297 0.76824 0.34529 0.0
C2116 C 0.30443 0.76368 0.36372 0.0
C2117 C 0.31189 0.77325 0.26499 0.0
C2118 C 0.10185 0.81357 0.22958 0.0
C2119 C 0.22029 0.81013 0.22056 0.0
C2120 C 0.21212 0.8627 0.21175 0.0
C2121 C 0.15139 0.8629 0.2157 0.0
N2122 N 0.1687 0.75838 0.23252 0.0
C2123 C 0.11096 0.76077 0.23771 0.0
loop_
_geom_bond_atom_site_label_1
_geom_bond_atom_site_label_2
_geom_bond_distance
_geom_bond_site_symmetry_2
_ccdc_geom_bond_type
Co0 O2 2.143 . S
Co0 O8 2.074 1_545 S
Co0 O11 2.093 . S
Co0 O24 2.097 . S
Co0 N41 2.151 1_545 S
Co0 N49 2.214 . S
Co1 O2 2.160 . S
Co1 O7 2.058 1_545 S
Co1 O17 2.057 1_545 S
Co1 O32 2.037 . S
Co1 N36 2.145 . S
Co1 N57 2.257 . S
O2 Co0 2.143 . S
O2 Co1 2.160 . S
C3 O4 1.278 . S
C3 O11 1.224 . S
O4 C3 1.278 . S
C5 O6 1.245 . S
C5 O17 1.232 . S
O6 C5 1.245 . S
O7 Co1 2.058 1_565 S
O7 C33 1.269 . S
O8 Co0 2.074 1_565 S
O8 C33 1.257 . S
H9 C34 0.930 1_655 S
H10 C40 0.930 1_545 S
O11 Co0 2.093 . S
O11 C3 1.224 . S
H12 C44 0.929 . S
H13 C46 0.930 . S
H14 C47 0.930 . S
H15 C45 0.929 . S
H16 C48 0.928 . S
O17 Co1 2.057 1_565 S
O17 C5 1.232 . S
H18 C37 0.929 . S
H19 C38 0.929 . S
H20 C50 0.931 . S
H21 C42 0.929 . S
H22 C51 0.930 1_655 S
H23 C43 0.931 . S
O24 Co0 2.097 . S
O24 C52 1.214 . S
H25 C53 0.929 . S
H26 C54 0.929 . S
H27 C55 0.930 . S
H28 C56 0.929 . S
H29 C58 0.930 . S
H30 C35 0.930 . S
H31 C39 0.930 1_546 S
O32 Co1 2.037 . S
O32 C52 1.234 . S
C33 O7 1.269 . S
C33 O8 1.257 . S
C34 H9 0.930 1_455 S
C34 C37 1.388 . S
C34 C39 1.418 1_545 S
C35 H30 0.930 . S
C35 C38 1.404 . S
C35 C39 1.353 . S
N36 Co1 2.145 . S
N36 C37 1.397 . S
N36 C38 1.334 1_545 S
C37 H18 0.929 . S
C37 C34 1.388 . S
C37 N36 1.397 . S
C38 H19 0.929 . S
C38 C35 1.404 . S
C38 N36 1.334 1_565 S
C39 H31 0.930 1_564 S
C39 C34 1.418 1_565 S
C39 C35 1.353 . S
C40 H10 0.930 1_565 S
C40 N41 1.330 . S
C40 C42 1.446 . S
N41 Co0 2.151 1_565 S
N41 C40 1.330 . S
N41 C45 1.418 . S
C42 H21 0.929 . S
C42 C40 1.446 . S
C42 C43 1.332 . S
C43 H23 0.931 . S
C43 C42 1.332 . S
C43 C44 1.267 . S
C44 H12 0.929 . S
C44 C43 1.267 . S
C44 C45 1.251 . S
C45 H15 0.929 . S
C45 N41 1.418 . S
C45 C44 1.251 . S
C46 H13 0.930 . S
C46 C48 1.406 . S
C46 C51 1.261 . S
C47 H14 0.930 . S
C47 N49 1.325 . S
C47 C50 1.357 1_455 S
C48 H16 0.928 . S
C48 C46 1.406 . S
C48 N49 1.261 . S
N49 Co0 2.214 . S
N49 C47 1.325 . S
N49 C48 1.261 . S
C50 H20 0.931 . S
C50 C47 1.357 1_655 S
C50 C51 1.312 1_655 S
C51 H22 0.930 1_455 S
C51 C46 1.261 . S
C51 C50 1.312 1_455 S
C52 O24 1.214 . S
C52 O32 1.234 . S
C53 H25 0.929 . S
C53 C56 1.391 . S
C53 C58 1.391 . S
C54 H26 0.929 . S
C54 C55 1.390 . S
C54 N57 1.391 . S
C55 H27 0.930 . S
C55 C54 1.390 . S
C55 C56 1.392 . S
C56 H28 0.929 . S
C56 C53 1.391 . S
C56 C55 1.392 . S
N57 Co1 2.257 . S
N57 C54 1.391 . S
N57 C58 1.388 . S
C58 H29 0.930 . S
C58 C53 1.391 . S
C58 N57 1.388 . S
Co59 O61 2.143 . S
Co59 O67 2.074 1_655 S
Co59 O70 2.093 . S
Co59 O83 2.097 . S
Co59 N100 2.151 1_655 S
Co59 N108 2.214 . S
Co60 O61 2.160 . S
Co60 O66 2.058 1_655 S
Co60 O76 2.057 1_655 S
Co60 O91 2.037 . S
Co60 N95 2.145 . S
Co60 N116 2.257 . S
O61 Co59 2.143 . S
O61 Co60 2.160 . S
C62 O63 1.278 . S
C62 O70 1.224 . S
O63 C62 1.278 . S
C64 O65 1.245 . S
C64 O76 1.232 . S
O65 C64 1.245 . S
O66 Co60 2.058 1_455 S
O66 C92 1.269 . S
O67 Co59 2.074 1_455 S
O67 C92 1.257 . S
H68 C93 0.930 1_565 S
H69 C99 0.930 1_655 S
O70 Co59 2.093 . S
O70 C62 1.224 . S
H71 C103 0.929 . S
H72 C105 0.930 . S
H73 C106 0.930 . S
H74 C104 0.929 . S
H75 C107 0.928 . S
O76 Co60 2.057 1_455 S
O76 C64 1.232 . S
H77 C96 0.929 . S
H78 C97 0.929 . S
H79 C109 0.931 . S
H80 C101 0.929 . S
H81 C110 0.930 . S
H82 C102 0.931 . S
O83 Co59 2.097 . S
O83 C111 1.214 . S
H84 C112 0.929 . S
H85 C113 0.929 . S
H86 C114 0.930 . S
H87 C115 0.929 . S
H88 C117 0.930 . S
H89 C94 0.930 . S
H90 C98 0.930 1_656 S
O91 Co60 2.037 . S
O91 C111 1.234 . S
C92 O66 1.269 . S
C92 O67 1.257 . S
C93 H68 0.930 1_545 S
C93 C96 1.388 . S
C93 C98 1.418 1_655 S
C94 H89 0.930 . S
C94 C97 1.404 . S
C94 C98 1.353 . S
N95 Co60 2.145 . S
N95 C96 1.397 . S
N95 C97 1.334 1_655 S
C96 H77 0.929 . S
C96 C93 1.388 . S
C96 N95 1.397 . S
C97 H78 0.929 . S
C97 C94 1.404 . S
C97 N95 1.334 1_455 S
C98 H90 0.930 1_454 S
C98 C93 1.418 1_455 S
C98 C94 1.353 . S
C99 H69 0.930 1_455 S
C99 N100 1.330 . S
C99 C101 1.446 . S
N100 Co59 2.151 1_455 S
N100 C99 1.330 . S
N100 C104 1.418 . S
C101 H80 0.929 . S
C101 C99 1.446 . S
C101 C102 1.332 . S
C102 H82 0.931 . S
C102 C101 1.332 . S
C102 C103 1.267 . S
C103 H71 0.929 . S
C103 C102 1.267 . S
C103 C104 1.251 . S
C104 H74 0.929 . S
C104 N100 1.418 . S
C104 C103 1.251 . S
C105 H72 0.930 . S
C105 C107 1.406 . S
C105 C110 1.261 1_545 S
C106 H73 0.930 . S
C106 N108 1.325 1_565 S
C106 C109 1.357 . S
C107 H75 0.928 . S
C107 C105 1.406 . S
C107 N108 1.261 . S
N108 Co59 2.214 . S
N108 C106 1.325 1_545 S
N108 C107 1.261 . S
C109 H79 0.931 . S
C109 C106 1.357 . S
C109 C110 1.312 . S
C110 H81 0.930 . S
C110 C105 1.261 1_565 S
C110 C109 1.312 . S
C111 O83 1.214 . S
C111 O91 1.234 . S
C112 H84 0.929 . S
C112 C115 1.391 . S
C112 C117 1.391 . S
C113 H85 0.929 . S
C113 C114 1.390 . S
C113 N116 1.391 . S
C114 H86 0.930 . S
C114 C113 1.390 . S
C114 C115 1.392 . S
C115 H87 0.929 . S
C115 C112 1.391 . S
C115 C114 1.392 . S
N116 Co60 2.257 . S
N116 C113 1.391 . S
N116 C117 1.388 . S
C117 H88 0.930 . S
C117 C112 1.391 . S
C117 N116 1.388 . S
Co118 O120 2.143 . S
Co118 O126 2.074 . S
Co118 O129 2.093 . S
Co118 O142 2.097 . S
Co118 N159 2.151 . S
Co118 N167 2.214 . S
Co119 O120 2.160 . S
Co119 O125 2.058 . S
Co119 O135 2.057 . S
Co119 O150 2.037 . S
Co119 N154 2.145 . S
Co119 N175 2.257 . S
O120 Co118 2.143 . S
O120 Co119 2.160 . S
C121 O122 1.278 . S
C121 O129 1.224 . S
O122 C121 1.278 . S
C123 O124 1.245 . S
C123 O135 1.232 . S
O124 C123 1.245 . S
O125 Co119 2.058 . S
O125 C151 1.269 . S
O126 Co118 2.074 . S
O126 C151 1.257 . S
H127 C152 0.930 1_445 S
H128 C158 0.930 . S
O129 Co118 2.093 . S
O129 C121 1.224 . S
H130 C162 0.929 . S
H131 C164 0.930 . S
H132 C165 0.930 . S
H133 C163 0.929 . S
H134 C166 0.928 . S
O135 Co119 2.057 . S
O135 C123 1.232 . S
H136 C155 0.929 . S
H137 C156 0.929 . S
H138 C168 0.931 . S
H139 C160 0.929 . S
H140 C169 0.930 1_545 S
H141 C161 0.931 . S
O142 Co118 2.097 . S
O142 C170 1.214 . S
H143 C171 0.929 . S
H144 C172 0.929 . S
H145 C173 0.930 . S
H146 C174 0.929 . S
H147 C176 0.930 . S
H148 C153 0.930 . S
H149 C157 0.930 1_556 S
O150 Co119 2.037 . S
O150 C170 1.234 . S
C151 O125 1.269 . S
C151 O126 1.257 . S
C152 H127 0.930 1_665 S
C152 C155 1.388 . S
C152 C157 1.418 . S
C153 H148 0.930 . S
C153 C156 1.404 . S
C153 C157 1.353 . S
N154 Co119 2.145 . S
N154 C155 1.397 . S
N154 C156 1.334 . S
C155 H136 0.929 . S
C155 C152 1.388 . S
C155 N154 1.397 . S
C156 H137 0.929 . S
C156 C153 1.404 . S
C156 N154 1.334 . S
C157 H149 0.930 1_554 S
C157 C152 1.418 . S
C157 C153 1.353 . S
C158 H128 0.930 . S
C158 N159 1.330 . S
C158 C160 1.446 . S
N159 Co118 2.151 . S
N159 C158 1.330 . S
N159 C163 1.418 . S
C160 H139 0.929 . S
C160 C158 1.446 . S
C160 C161 1.332 . S
C161 H141 0.931 . S
C161 C160 1.332 . S
C161 C162 1.267 . S
C162 H130 0.929 . S
C162 C161 1.267 . S
C162 C163 1.251 . S
C163 H133 0.929 . S
C163 N159 1.418 . S
C163 C162 1.251 . S
C164 H131 0.930 . S
C164 C166 1.406 . S
C164 C169 1.261 1_655 S
C165 H132 0.930 . S
C165 N167 1.325 1_455 S
C165 C168 1.357 1_565 S
C166 H134 0.928 . S
C166 C164 1.406 . S
C166 N167 1.261 . S
N167 Co118 2.214 . S
N167 C165 1.325 1_655 S
N167 C166 1.261 . S
C168 H138 0.931 . S
C168 C165 1.357 1_545 S
C168 C169 1.312 1_545 S
C169 H140 0.930 1_565 S
C169 C164 1.261 1_455 S
C169 C168 1.312 1_565 S
C170 O142 1.214 . S
C170 O150 1.234 . S
C171 H143 0.929 . S
C171 C174 1.391 . S
C171 C176 1.391 . S
C172 H144 0.929 . S
C172 C173 1.390 . S
C172 N175 1.391 . S
C173 H145 0.930 . S
C173 C172 1.390 . S
C173 C174 1.392 . S
C174 H146 0.929 . S
C174 C171 1.391 . S
C174 C173 1.392 . S
N175 Co119 2.257 . S
N175 C172 1.391 . S
N175 C176 1.388 . S
C176 H147 0.930 . S
C176 C171 1.391 . S
C176 N175 1.388 . S
Co177 O179 2.143 . S
Co177 O185 2.074 1_455 S
Co177 O188 2.093 . S
Co177 O201 2.097 . S
Co177 N218 2.151 1_455 S
Co177 N226 2.214 . S
Co178 O179 2.160 . S
Co178 O184 2.058 1_455 S
Co178 O194 2.057 1_455 S
Co178 O209 2.037 . S
Co178 N213 2.145 . S
Co178 N234 2.257 . S
O179 Co177 2.143 . S
O179 Co178 2.160 . S
C180 O181 1.278 . S
C180 O188 1.224 . S
O181 C180 1.278 . S
C182 O183 1.245 . S
C182 O194 1.232 . S
O183 C182 1.245 . S
O184 Co178 2.058 1_655 S
O184 C210 1.269 . S
O185 Co177 2.074 1_655 S
O185 C210 1.257 . S
H186 C211 0.930 1_565 S
H187 C217 0.930 1_455 S
O188 Co177 2.093 . S
O188 C180 1.224 . S
H189 C221 0.929 . S
H190 C223 0.930 . S
H191 C224 0.930 . S
H192 C222 0.929 . S
H193 C225 0.928 . S
O194 Co178 2.057 1_655 S
O194 C182 1.232 . S
H195 C214 0.929 . S
H196 C215 0.929 . S
H197 C227 0.931 . S
H198 C219 0.929 . S
H199 C228 0.930 1_565 S
H200 C220 0.931 . S
O201 Co177 2.097 . S
O201 C229 1.214 . S
H202 C230 0.929 . S
H203 C231 0.929 . S
H204 C232 0.930 . S
H205 C233 0.929 . S
H206 C235 0.930 . S
H207 C212 0.930 . S
H208 C216 0.930 1_455 S
O209 Co178 2.037 . S
O209 C229 1.234 . S
C210 O184 1.269 . S
C210 O185 1.257 . S
C211 H186 0.930 1_545 S
C211 C214 1.388 . S
C211 C216 1.418 1_455 S
C212 H207 0.930 . S
C212 C215 1.404 . S
C212 C216 1.353 . S
N213 Co178 2.145 . S
N213 C214 1.397 . S
N213 C215 1.334 1_455 S
C214 H195 0.929 . S
C214 C211 1.388 . S
C214 N213 1.397 . S
C215 H196 0.929 . S
C215 C212 1.404 . S
C215 N213 1.334 1_655 S
C216 H208 0.930 1_655 S
C216 C211 1.418 1_655 S
C216 C212 1.353 . S
C217 H187 0.930 1_655 S
C217 N218 1.330 . S
C217 C219 1.446 . S
N218 Co177 2.151 1_655 S
N218 C217 1.330 . S
N218 C222 1.418 . S
C219 H198 0.929 . S
C219 C217 1.446 . S
C219 C220 1.332 . S
C220 H200 0.931 . S
C220 C219 1.332 . S
C220 C221 1.267 . S
C221 H189 0.929 . S
C221 C220 1.267 . S
C221 C222 1.251 . S
C222 H192 0.929 . S
C222 N218 1.418 . S
C222 C221 1.251 . S
C223 H190 0.930 . S
C223 C225 1.406 . S
C223 C228 1.261 . S
C224 H191 0.930 . S
C224 N226 1.325 . S
C224 C227 1.357 1_545 S
C225 H193 0.928 . S
C225 C223 1.406 . S
C225 N226 1.261 . S
N226 Co177 2.214 . S
N226 C224 1.325 . S
N226 C225 1.261 . S
C227 H197 0.931 . S
C227 C224 1.357 1_565 S
C227 C228 1.312 1_565 S
C228 H199 0.930 1_545 S
C228 C223 1.261 . S
C228 C227 1.312 1_545 S
C229 O201 1.214 . S
C229 O209 1.234 . S
C230 H202 0.929 . S
C230 C233 1.391 . S
C230 C235 1.391 . S
C231 H203 0.929 . S
C231 C232 1.390 . S
C231 N234 1.391 . S
C232 H204 0.930 . S
C232 C231 1.390 . S
C232 C233 1.392 . S
C233 H205 0.929 . S
C233 C230 1.391 . S
C233 C232 1.392 . S
N234 Co178 2.257 . S
N234 C231 1.391 . S
N234 C235 1.388 . S
C235 H206 0.930 . S
C235 C230 1.391 . S
C235 N234 1.388 . S
Co236 O238 2.143 . S
Co236 O244 2.074 . S
Co236 O247 2.093 . S
Co236 O260 2.097 . S
Co236 N277 2.151 . S
Co236 N285 2.214 . S
Co237 O238 2.160 . S
Co237 O243 2.058 . S
Co237 O253 2.057 . S
Co237 O268 2.037 . S
Co237 N272 2.145 . S
Co237 N293 2.257 . S
O238 Co236 2.143 . S
O238 Co237 2.160 . S
C239 O240 1.278 . S
C239 O247 1.224 . S
O240 C239 1.278 . S
C241 O242 1.245 . S
C241 O253 1.232 . S
O242 C241 1.245 . S
O243 Co237 2.058 . S
O243 C269 1.269 . S
O244 Co236 2.074 . S
O244 C269 1.257 . S
H245 C270 0.930 1_445 S
H246 C276 0.930 . S
O247 Co236 2.093 . S
O247 C239 1.224 . S
H248 C280 0.929 . S
H249 C282 0.930 . S
H250 C283 0.930 . S
H251 C281 0.929 . S
H252 C284 0.928 . S
O253 Co237 2.057 . S
O253 C241 1.232 . S
H254 C273 0.929 . S
H255 C274 0.929 . S
H256 C286 0.931 . S
H257 C278 0.929 . S
H258 C287 0.930 1_455 S
H259 C279 0.931 . S
O260 Co236 2.097 . S
O260 C288 1.214 . S
H261 C289 0.929 . S
H262 C290 0.929 . S
H263 C291 0.930 . S
H264 C292 0.929 . S
H265 C294 0.930 . S
H266 C271 0.930 . S
H267 C275 0.930 . S
O268 Co237 2.037 . S
O268 C288 1.234 . S
C269 O243 1.269 . S
C269 O244 1.257 . S
C270 H245 0.930 1_665 S
C270 C273 1.388 . S
C270 C275 1.418 . S
C271 H266 0.930 . S
C271 C274 1.404 . S
C271 C275 1.353 . S
N272 Co237 2.145 . S
N272 C273 1.397 . S
N272 C274 1.334 . S
C273 H254 0.929 . S
C273 C270 1.388 . S
C273 N272 1.397 . S
C274 H255 0.929 . S
C274 C271 1.404 . S
C274 N272 1.334 . S
C275 H267 0.930 . S
C275 C270 1.418 . S
C275 C271 1.353 . S
C276 H246 0.930 . S
C276 N277 1.330 . S
C276 C278 1.446 . S
N277 Co236 2.151 . S
N277 C276 1.330 . S
N277 C281 1.418 . S
C278 H257 0.929 . S
C278 C276 1.446 . S
C278 C279 1.332 . S
C279 H259 0.931 . S
C279 C278 1.332 . S
C279 C280 1.267 . S
C280 H248 0.929 . S
C280 C279 1.267 . S
C280 C281 1.251 . S
C281 H251 0.929 . S
C281 N277 1.418 . S
C281 C280 1.251 . S
C282 H249 0.930 . S
C282 C284 1.406 . S
C282 C287 1.261 1_565 S
C283 H250 0.930 . S
C283 N285 1.325 1_545 S
C283 C286 1.357 1_655 S
C284 H252 0.928 . S
C284 C282 1.406 . S
C284 N285 1.261 . S
N285 Co236 2.214 . S
N285 C283 1.325 1_565 S
N285 C284 1.261 . S
C286 H256 0.931 . S
C286 C283 1.357 1_455 S
C286 C287 1.312 1_455 S
C287 H258 0.930 1_655 S
C287 C282 1.261 1_545 S
C287 C286 1.312 1_655 S
C288 O260 1.214 . S
C288 O268 1.234 . S
C289 H261 0.929 . S
C289 C292 1.391 . S
C289 C294 1.391 . S
C290 H262 0.929 . S
C290 C291 1.390 . S
C290 N293 1.391 . S
C291 H263 0.930 . S
C291 C290 1.390 . S
C291 C292 1.392 . S
C292 H264 0.929 . S
C292 C289 1.391 . S
C292 C291 1.392 . S
N293 Co237 2.257 . S
N293 C290 1.391 . S
N293 C294 1.388 . S
C294 H265 0.930 . S
C294 C289 1.391 . S
C294 N293 1.388 . S
Co295 O297 2.143 . S
Co295 O303 2.074 1_565 S
Co295 O306 2.093 . S
Co295 O319 2.097 . S
Co295 N336 2.151 1_565 S
Co295 N344 2.214 . S
Co296 O297 2.160 . S
Co296 O302 2.058 1_565 S
Co296 O312 2.057 1_565 S
Co296 O327 2.037 . S
Co296 N331 2.145 . S
Co296 N352 2.257 . S
O297 Co295 2.143 . S
O297 Co296 2.160 . S
C298 O299 1.278 . S
C298 O306 1.224 . S
O299 C298 1.278 . S
C300 O301 1.245 . S
C300 O312 1.232 . S
O301 C300 1.245 . S
O302 Co296 2.058 1_545 S
O302 C328 1.269 . S
O303 Co295 2.074 1_545 S
O303 C328 1.257 . S
H304 C329 0.930 1_655 S
H305 C335 0.930 1_565 S
O306 Co295 2.093 . S
O306 C298 1.224 . S
H307 C339 0.929 . S
H308 C341 0.930 . S
H309 C342 0.930 . S
H310 C340 0.929 . S
H311 C343 0.928 . S
O312 Co296 2.057 1_545 S
O312 C300 1.232 . S
H313 C332 0.929 . S
H314 C333 0.929 . S
H315 C345 0.931 . S
H316 C337 0.929 . S
H317 C346 0.930 . S
H318 C338 0.931 . S
O319 Co295 2.097 . S
O319 C347 1.214 . S
H320 C348 0.929 . S
H321 C349 0.929 . S
H322 C350 0.930 . S
H323 C351 0.929 . S
H324 C353 0.930 . S
H325 C330 0.930 . S
H326 C334 0.930 1_565 S
O327 Co296 2.037 . S
O327 C347 1.234 . S
C328 O302 1.269 . S
C328 O303 1.257 . S
C329 H304 0.930 1_455 S
C329 C332 1.388 . S
C329 C334 1.418 1_565 S
C330 H325 0.930 . S
C330 C333 1.404 . S
C330 C334 1.353 . S
N331 Co296 2.145 . S
N331 C332 1.397 . S
N331 C333 1.334 1_565 S
C332 H313 0.929 . S
C332 C329 1.388 . S
C332 N331 1.397 . S
C333 H314 0.929 . S
C333 C330 1.404 . S
C333 N331 1.334 1_545 S
C334 H326 0.930 1_545 S
C334 C329 1.418 1_545 S
C334 C330 1.353 . S
C335 H305 0.930 1_545 S
C335 N336 1.330 . S
C335 C337 1.446 . S
N336 Co295 2.151 1_545 S
N336 C335 1.330 . S
N336 C340 1.418 . S
C337 H316 0.929 . S
C337 C335 1.446 . S
C337 C338 1.332 . S
C338 H318 0.931 . S
C338 C337 1.332 . S
C338 C339 1.267 . S
C339 H307 0.929 . S
C339 C338 1.267 . S
C339 C340 1.251 . S
C340 H310 0.929 . S
C340 N336 1.418 . S
C340 C339 1.251 . S
C341 H308 0.930 . S
C341 C343 1.406 . S
C341 C346 1.261 1_455 S
C342 H309 0.930 . S
C342 N344 1.325 1_655 S
C342 C345 1.357 . S
C343 H311 0.928 . S
C343 C341 1.406 . S
C343 N344 1.261 . S
N344 Co295 2.214 . S
N344 C342 1.325 1_455 S
N344 C343 1.261 . S
C345 H315 0.931 . S
C345 C342 1.357 . S
C345 C346 1.312 . S
C346 H317 0.930 . S
C346 C341 1.261 1_655 S
C346 C345 1.312 . S
C347 O319 1.214 . S
C347 O327 1.234 . S
C348 H320 0.929 . S
C348 C351 1.391 . S
C348 C353 1.391 . S
C349 H321 0.929 . S
C349 C350 1.390 . S
C349 N352 1.391 . S
C350 H322 0.930 . S
C350 C349 1.390 . S
C350 C351 1.392 . S
C351 H323 0.929 . S
C351 C348 1.391 . S
C351 C350 1.392 . S
N352 Co296 2.257 . S
N352 C349 1.391 . S
N352 C353 1.388 . S
C353 H324 0.930 . S
C353 C348 1.391 . S
C353 N352 1.388 . S
Co354 O356 2.143 . S
Co354 O362 2.074 1_565 S
Co354 O365 2.093 . S
Co354 O378 2.097 . S
Co354 N395 2.151 1_565 S
Co354 N403 2.214 . S
Co355 O356 2.160 . S
Co355 O361 2.058 1_565 S
Co355 O371 2.057 1_565 S
Co355 O386 2.037 . S
Co355 N390 2.145 . S
Co355 N411 2.257 . S
O356 Co354 2.143 . S
O356 Co355 2.160 . S
C357 O358 1.278 . S
C357 O365 1.224 . S
O358 C357 1.278 . S
C359 O360 1.245 . S
C359 O371 1.232 . S
O360 C359 1.245 . S
O361 Co355 2.058 1_545 S
O361 C387 1.269 . S
O362 Co354 2.074 1_545 S
O362 C387 1.257 . S
H363 C388 0.930 1_455 S
H364 C394 0.930 1_565 S
O365 Co354 2.093 . S
O365 C357 1.224 . S
H366 C398 0.929 . S
H367 C400 0.930 . S
H368 C401 0.930 . S
H369 C399 0.929 . S
H370 C402 0.928 . S
O371 Co355 2.057 1_545 S
O371 C359 1.232 . S
H372 C391 0.929 . S
H373 C392 0.929 . S
H374 C404 0.931 . S
H375 C396 0.929 . S
H376 C405 0.930 1_455 S
H377 C397 0.931 . S
O378 Co354 2.097 . S
O378 C406 1.214 . S
H379 C407 0.929 . S
H380 C408 0.929 . S
H381 C409 0.930 . S
H382 C410 0.929 . S
H383 C412 0.930 . S
H384 C389 0.930 . S
H385 C393 0.930 1_564 S
O386 Co355 2.037 . S
O386 C406 1.234 . S
C387 O361 1.269 . S
C387 O362 1.257 . S
C388 H363 0.930 1_655 S
C388 C391 1.388 . S
C388 C393 1.418 1_565 S
C389 H384 0.930 . S
C389 C392 1.404 . S
C389 C393 1.353 . S
N390 Co355 2.145 . S
N390 C391 1.397 . S
N390 C392 1.334 1_565 S
C391 H372 0.929 . S
C391 C388 1.388 . S
C391 N390 1.397 . S
C392 H373 0.929 . S
C392 C389 1.404 . S
C392 N390 1.334 1_545 S
C393 H385 0.930 1_546 S
C393 C388 1.418 1_545 S
C393 C389 1.353 . S
C394 H364 0.930 1_545 S
C394 N395 1.330 . S
C394 C396 1.446 . S
N395 Co354 2.151 1_545 S
N395 C394 1.330 . S
N395 C399 1.418 . S
C396 H375 0.929 . S
C396 C394 1.446 . S
C396 C397 1.332 . S
C397 H377 0.931 . S
C397 C396 1.332 . S
C397 C398 1.267 . S
C398 H366 0.929 . S
C398 C397 1.267 . S
C398 C399 1.251 . S
C399 H369 0.929 . S
C399 N395 1.418 . S
C399 C398 1.251 . S
C400 H367 0.930 . S
C400 C402 1.406 . S
C400 C405 1.261 . S
C401 H368 0.930 . S
C401 N403 1.325 . S
C401 C404 1.357 1_655 S
C402 H370 0.928 . S
C402 C400 1.406 . S
C402 N403 1.261 . S
N403 Co354 2.214 . S
N403 C401 1.325 . S
N403 C402 1.261 . S
C404 H374 0.931 . S
C404 C401 1.357 1_455 S
C404 C405 1.312 1_455 S
C405 H376 0.930 1_655 S
C405 C400 1.261 . S
C405 C404 1.312 1_655 S
C406 O378 1.214 . S
C406 O386 1.234 . S
C407 H379 0.929 . S
C407 C410 1.391 . S
C407 C412 1.391 . S
C408 H380 0.929 . S
C408 C409 1.390 . S
C408 N411 1.391 . S
C409 H381 0.930 . S
C409 C408 1.390 . S
C409 C410 1.392 . S
C410 H382 0.929 . S
C410 C407 1.391 . S
C410 C409 1.392 . S
N411 Co355 2.257 . S
N411 C408 1.391 . S
N411 C412 1.388 . S
C412 H383 0.930 . S
C412 C407 1.391 . S
C412 N411 1.388 . S
Co413 O415 2.143 . S
Co413 O421 2.074 1_455 S
Co413 O424 2.093 . S
Co413 O437 2.097 . S
Co413 N454 2.151 1_455 S
Co413 N462 2.214 . S
Co414 O415 2.160 . S
Co414 O420 2.058 1_455 S
Co414 O430 2.057 1_455 S
Co414 O445 2.037 . S
Co414 N449 2.145 . S
Co414 N470 2.257 . S
O415 Co413 2.143 . S
O415 Co414 2.160 . S
C416 O417 1.278 . S
C416 O424 1.224 . S
O417 C416 1.278 . S
C418 O419 1.245 . S
C418 O430 1.232 . S
O419 C418 1.245 . S
O420 Co414 2.058 1_655 S
O420 C446 1.269 . S
O421 Co413 2.074 1_655 S
O421 C446 1.257 . S
H422 C447 0.930 1_545 S
H423 C453 0.930 1_455 S
O424 Co413 2.093 . S
O424 C416 1.224 . S
H425 C457 0.929 . S
H426 C459 0.930 . S
H427 C460 0.930 . S
H428 C458 0.929 . S
H429 C461 0.928 . S
O430 Co414 2.057 1_655 S
O430 C418 1.232 . S
H431 C450 0.929 . S
H432 C451 0.929 . S
H433 C463 0.931 . S
H434 C455 0.929 . S
H435 C464 0.930 . S
H436 C456 0.931 . S
O437 Co413 2.097 . S
O437 C465 1.214 . S
H438 C466 0.929 . S
H439 C467 0.929 . S
H440 C468 0.930 . S
H441 C469 0.929 . S
H442 C471 0.930 . S
H443 C448 0.930 . S
H444 C452 0.930 1_454 S
O445 Co414 2.037 . S
O445 C465 1.234 . S
C446 O420 1.269 . S
C446 O421 1.257 . S
C447 H422 0.930 1_565 S
C447 C450 1.388 . S
C447 C452 1.418 1_455 S
C448 H443 0.930 . S
C448 C451 1.404 . S
C448 C452 1.353 . S
N449 Co414 2.145 . S
N449 C450 1.397 . S
N449 C451 1.334 1_455 S
C450 H431 0.929 . S
C450 C447 1.388 . S
C450 N449 1.397 . S
C451 H432 0.929 . S
C451 C448 1.404 . S
C451 N449 1.334 1_655 S
C452 H444 0.930 1_656 S
C452 C447 1.418 1_655 S
C452 C448 1.353 . S
C453 H423 0.930 1_655 S
C453 N454 1.330 . S
C453 C455 1.446 . S
N454 Co413 2.151 1_655 S
N454 C453 1.330 . S
N454 C458 1.418 . S
C455 H434 0.929 . S
C455 C453 1.446 . S
C455 C456 1.332 . S
C456 H436 0.931 . S
C456 C455 1.332 . S
C456 C457 1.267 . S
C457 H425 0.929 . S
C457 C456 1.267 . S
C457 C458 1.251 . S
C458 H428 0.929 . S
C458 N454 1.418 . S
C458 C457 1.251 . S
C459 H426 0.930 . S
C459 C461 1.406 . S
C459 C464 1.261 1_565 S
C460 H427 0.930 . S
C460 N462 1.325 1_545 S
C460 C463 1.357 . S
C461 H429 0.928 . S
C461 C459 1.406 . S
C461 N462 1.261 . S
N462 Co413 2.214 . S
N462 C460 1.325 1_565 S
N462 C461 1.261 . S
C463 H433 0.931 . S
C463 C460 1.357 . S
C463 C464 1.312 . S
C464 H435 0.930 . S
C464 C459 1.261 1_545 S
C464 C463 1.312 . S
C465 O437 1.214 . S
C465 O445 1.234 . S
C466 H438 0.929 . S
C466 C469 1.391 . S
C466 C471 1.391 . S
C467 H439 0.929 . S
C467 C468 1.390 . S
C467 N470 1.391 . S
C468 H440 0.930 . S
C468 C467 1.390 . S
C468 C469 1.392 . S
C469 H441 0.929 . S
C469 C466 1.391 . S
C469 C468 1.392 . S
N470 Co414 2.257 . S
N470 C467 1.391 . S
N470 C471 1.388 . S
C471 H442 0.930 . S
C471 C466 1.391 . S
C471 N470 1.388 . S
Co472 O474 2.143 . S
Co472 O480 2.074 . S
Co472 O483 2.093 . S
Co472 O496 2.097 . S
Co472 N513 2.151 . S
Co472 N521 2.214 . S
Co473 O474 2.160 . S
Co473 O479 2.058 . S
Co473 O489 2.057 . S
Co473 O504 2.037 . S
Co473 N508 2.145 . S
Co473 N529 2.257 . S
O474 Co472 2.143 . S
O474 Co473 2.160 . S
C475 O476 1.278 . S
C475 O483 1.224 . S
O476 C475 1.278 . S
C477 O478 1.245 . S
C477 O489 1.232 . S
O478 C477 1.245 . S
O479 Co473 2.058 . S
O479 C505 1.269 . S
O480 Co472 2.074 . S
O480 C505 1.257 . S
H481 C506 0.930 1_665 S
H482 C512 0.930 . S
O483 Co472 2.093 . S
O483 C475 1.224 . S
H484 C516 0.929 . S
H485 C518 0.930 . S
H486 C519 0.930 . S
H487 C517 0.929 . S
H488 C520 0.928 . S
O489 Co473 2.057 . S
O489 C477 1.232 . S
H490 C509 0.929 . S
H491 C510 0.929 . S
H492 C522 0.931 . S
H493 C514 0.929 . S
H494 C523 0.930 1_565 S
H495 C515 0.931 . S
O496 Co472 2.097 . S
O496 C524 1.214 . S
H497 C525 0.929 . S
H498 C526 0.929 . S
H499 C527 0.930 . S
H500 C528 0.929 . S
H501 C530 0.930 . S
H502 C507 0.930 . S
H503 C511 0.930 1_554 S
O504 Co473 2.037 . S
O504 C524 1.234 . S
C505 O479 1.269 . S
C505 O480 1.257 . S
C506 H481 0.930 1_445 S
C506 C509 1.388 . S
C506 C511 1.418 . S
C507 H502 0.930 . S
C507 C510 1.404 . S
C507 C511 1.353 . S
N508 Co473 2.145 . S
N508 C509 1.397 . S
N508 C510 1.334 . S
C509 H490 0.929 . S
C509 C506 1.388 . S
C509 N508 1.397 . S
C510 H491 0.929 . S
C510 C507 1.404 . S
C510 N508 1.334 . S
C511 H503 0.930 1_556 S
C511 C506 1.418 . S
C511 C507 1.353 . S
C512 H482 0.930 . S
C512 N513 1.330 . S
C512 C514 1.446 . S
N513 Co472 2.151 . S
N513 C512 1.330 . S
N513 C517 1.418 . S
C514 H493 0.929 . S
C514 C512 1.446 . S
C514 C515 1.332 . S
C515 H495 0.931 . S
C515 C514 1.332 . S
C515 C516 1.267 . S
C516 H484 0.929 . S
C516 C515 1.267 . S
C516 C517 1.251 . S
C517 H487 0.929 . S
C517 N513 1.418 . S
C517 C516 1.251 . S
C518 H485 0.930 . S
C518 C520 1.406 . S
C518 C523 1.261 1_455 S
C519 H486 0.930 . S
C519 N521 1.325 1_655 S
C519 C522 1.357 1_545 S
C520 H488 0.928 . S
C520 C518 1.406 . S
C520 N521 1.261 . S
N521 Co472 2.214 . S
N521 C519 1.325 1_455 S
N521 C520 1.261 . S
C522 H492 0.931 . S
C522 C519 1.357 1_565 S
C522 C523 1.312 1_565 S
C523 H494 0.930 1_545 S
C523 C518 1.261 1_655 S
C523 C522 1.312 1_545 S
C524 O496 1.214 . S
C524 O504 1.234 . S
C525 H497 0.929 . S
C525 C528 1.391 . S
C525 C530 1.391 . S
C526 H498 0.929 . S
C526 C527 1.390 . S
C526 N529 1.391 . S
C527 H499 0.930 . S
C527 C526 1.390 . S
C527 C528 1.392 . S
C528 H500 0.929 . S
C528 C525 1.391 . S
C528 C527 1.392 . S
N529 Co473 2.257 . S
N529 C526 1.391 . S
N529 C530 1.388 . S
C530 H501 0.930 . S
C530 C525 1.391 . S
C530 N529 1.388 . S
Co531 O533 2.143 . S
Co531 O539 2.074 1_655 S
Co531 O542 2.093 . S
Co531 O555 2.097 . S
Co531 N572 2.151 1_655 S
Co531 N580 2.214 . S
Co532 O533 2.160 . S
Co532 O538 2.058 1_655 S
Co532 O548 2.057 1_655 S
Co532 O563 2.037 . S
Co532 N567 2.145 . S
Co532 N588 2.257 . S
O533 Co531 2.143 . S
O533 Co532 2.160 . S
C534 O535 1.278 . S
C534 O542 1.224 . S
O535 C534 1.278 . S
C536 O537 1.245 . S
C536 O548 1.232 . S
O537 C536 1.245 . S
O538 Co532 2.058 1_455 S
O538 C564 1.269 . S
O539 Co531 2.074 1_455 S
O539 C564 1.257 . S
H540 C565 0.930 1_545 S
H541 C571 0.930 1_655 S
O542 Co531 2.093 . S
O542 C534 1.224 . S
H543 C575 0.929 . S
H544 C577 0.930 . S
H545 C578 0.930 . S
H546 C576 0.929 . S
H547 C579 0.928 . S
O548 Co532 2.057 1_455 S
O548 C536 1.232 . S
H549 C568 0.929 . S
H550 C569 0.929 . S
H551 C581 0.931 . S
H552 C573 0.929 . S
H553 C582 0.930 1_545 S
H554 C574 0.931 . S
O555 Co531 2.097 . S
O555 C583 1.214 . S
H556 C584 0.929 . S
H557 C585 0.929 . S
H558 C586 0.930 . S
H559 C587 0.929 . S
H560 C589 0.930 . S
H561 C566 0.930 . S
H562 C570 0.930 1_655 S
O563 Co532 2.037 . S
O563 C583 1.234 . S
C564 O538 1.269 . S
C564 O539 1.257 . S
C565 H540 0.930 1_565 S
C565 C568 1.388 . S
C565 C570 1.418 1_655 S
C566 H561 0.930 . S
C566 C569 1.404 . S
C566 C570 1.353 . S
N567 Co532 2.145 . S
N567 C568 1.397 . S
N567 C569 1.334 1_655 S
C568 H549 0.929 . S
C568 C565 1.388 . S
C568 N567 1.397 . S
C569 H550 0.929 . S
C569 C566 1.404 . S
C569 N567 1.334 1_455 S
C570 H562 0.930 1_455 S
C570 C565 1.418 1_455 S
C570 C566 1.353 . S
C571 H541 0.930 1_455 S
C571 N572 1.330 . S
C571 C573 1.446 . S
N572 Co531 2.151 1_455 S
N572 C571 1.330 . S
N572 C576 1.418 . S
C573 H552 0.929 . S
C573 C571 1.446 . S
C573 C574 1.332 . S
C574 H554 0.931 . S
C574 C573 1.332 . S
C574 C575 1.267 . S
C575 H543 0.929 . S
C575 C574 1.267 . S
C575 C576 1.251 . S
C576 H546 0.929 . S
C576 N572 1.418 . S
C576 C575 1.251 . S
C577 H544 0.930 . S
C577 C579 1.406 . S
C577 C582 1.261 . S
C578 H545 0.930 . S
C578 N580 1.325 . S
C578 C581 1.357 1_565 S
C579 H547 0.928 . S
C579 C577 1.406 . S
C579 N580 1.261 . S
N580 Co531 2.214 . S
N580 C578 1.325 . S
N580 C579 1.261 . S
C581 H551 0.931 . S
C581 C578 1.357 1_545 S
C581 C582 1.312 1_545 S
C582 H553 0.930 1_565 S
C582 C577 1.261 . S
C582 C581 1.312 1_565 S
C583 O555 1.214 . S
C583 O563 1.234 . S
C584 H556 0.929 . S
C584 C587 1.391 . S
C584 C589 1.391 . S
C585 H557 0.929 . S
C585 C586 1.390 . S
C585 N588 1.391 . S
C586 H558 0.930 . S
C586 C585 1.390 . S
C586 C587 1.392 . S
C587 H559 0.929 . S
C587 C584 1.391 . S
C587 C586 1.392 . S
N588 Co532 2.257 . S
N588 C585 1.391 . S
N588 C589 1.388 . S
C589 H560 0.930 . S
C589 C584 1.391 . S
C589 N588 1.388 . S
Co590 O592 2.143 . S
Co590 O598 2.074 . S
Co590 O601 2.093 . S
Co590 O614 2.097 . S
Co590 N631 2.151 . S
Co590 N639 2.214 . S
Co591 O592 2.160 . S
Co591 O597 2.058 . S
Co591 O607 2.057 . S
Co591 O622 2.037 . S
Co591 N626 2.145 . S
Co591 N647 2.257 . S
O592 Co590 2.143 . S
O592 Co591 2.160 . S
C593 O594 1.278 . S
C593 O601 1.224 . S
O594 C593 1.278 . S
C595 O596 1.245 . S
C595 O607 1.232 . S
O596 C595 1.245 . S
O597 Co591 2.058 . S
O597 C623 1.269 . S
O598 Co590 2.074 . S
O598 C623 1.257 . S
H599 C624 0.930 1_665 S
H600 C630 0.930 . S
O601 Co590 2.093 . S
O601 C593 1.224 . S
H602 C634 0.929 . S
H603 C636 0.930 . S
H604 C637 0.930 . S
H605 C635 0.929 . S
H606 C638 0.928 . S
O607 Co591 2.057 . S
O607 C595 1.232 . S
H608 C627 0.929 . S
H609 C628 0.929 . S
H610 C640 0.931 . S
H611 C632 0.929 . S
H612 C641 0.930 1_655 S
H613 C633 0.931 . S
O614 Co590 2.097 . S
O614 C642 1.214 . S
H615 C643 0.929 . S
H616 C644 0.929 . S
H617 C645 0.930 . S
H618 C646 0.929 . S
H619 C648 0.930 . S
H620 C625 0.930 . S
H621 C629 0.930 . S
O622 Co591 2.037 . S
O622 C642 1.234 . S
C623 O597 1.269 . S
C623 O598 1.257 . S
C624 H599 0.930 1_445 S
C624 C627 1.388 . S
C624 C629 1.418 . S
C625 H620 0.930 . S
C625 C628 1.404 . S
C625 C629 1.353 . S
N626 Co591 2.145 . S
N626 C627 1.397 . S
N626 C628 1.334 . S
C627 H608 0.929 . S
C627 C624 1.388 . S
C627 N626 1.397 . S
C628 H609 0.929 . S
C628 C625 1.404 . S
C628 N626 1.334 . S
C629 H621 0.930 . S
C629 C624 1.418 . S
C629 C625 1.353 . S
C630 H600 0.930 . S
C630 N631 1.330 . S
C630 C632 1.446 . S
N631 Co590 2.151 . S
N631 C630 1.330 . S
N631 C635 1.418 . S
C632 H611 0.929 . S
C632 C630 1.446 . S
C632 C633 1.332 . S
C633 H613 0.931 . S
C633 C632 1.332 . S
C633 C634 1.267 . S
C634 H602 0.929 . S
C634 C633 1.267 . S
C634 C635 1.251 . S
C635 H605 0.929 . S
C635 N631 1.418 . S
C635 C634 1.251 . S
C636 H603 0.930 . S
C636 C638 1.406 . S
C636 C641 1.261 1_545 S
C637 H604 0.930 . S
C637 N639 1.325 1_565 S
C637 C640 1.357 1_455 S
C638 H606 0.928 . S
C638 C636 1.406 . S
C638 N639 1.261 . S
N639 Co590 2.214 . S
N639 C637 1.325 1_545 S
N639 C638 1.261 . S
C640 H610 0.931 . S
C640 C637 1.357 1_655 S
C640 C641 1.312 1_655 S
C641 H612 0.930 1_455 S
C641 C636 1.261 1_565 S
C641 C640 1.312 1_455 S
C642 O614 1.214 . S
C642 O622 1.234 . S
C643 H615 0.929 . S
C643 C646 1.391 . S
C643 C648 1.391 . S
C644 H616 0.929 . S
C644 C645 1.390 . S
C644 N647 1.391 . S
C645 H617 0.930 . S
C645 C644 1.390 . S
C645 C646 1.392 . S
C646 H618 0.929 . S
C646 C643 1.391 . S
C646 C645 1.392 . S
N647 Co591 2.257 . S
N647 C644 1.391 . S
N647 C648 1.388 . S
C648 H619 0.930 . S
C648 C643 1.391 . S
C648 N647 1.388 . S
Co649 O651 2.143 . S
Co649 O657 2.074 1_545 S
Co649 O660 2.093 . S
Co649 O673 2.097 . S
Co649 N690 2.151 1_545 S
Co649 N698 2.214 . S
Co650 O651 2.160 . S
Co650 O656 2.058 1_545 S
Co650 O666 2.057 1_545 S
Co650 O681 2.037 . S
Co650 N685 2.145 . S
Co650 N706 2.257 . S
O651 Co649 2.143 . S
O651 Co650 2.160 . S
C652 O653 1.278 . S
C652 O660 1.224 . S
O653 C652 1.278 . S
C654 O655 1.245 . S
C654 O666 1.232 . S
O655 C654 1.245 . S
O656 Co650 2.058 1_565 S
O656 C682 1.269 . S
O657 Co649 2.074 1_565 S
O657 C682 1.257 . S
H658 C683 0.930 1_455 S
H659 C689 0.930 1_545 S
O660 Co649 2.093 . S
O660 C652 1.224 . S
H661 C693 0.929 . S
H662 C695 0.930 . S
H663 C696 0.930 . S
H664 C694 0.929 . S
H665 C697 0.928 . S
O666 Co650 2.057 1_565 S
O666 C654 1.232 . S
H667 C686 0.929 . S
H668 C687 0.929 . S
H669 C699 0.931 . S
H670 C691 0.929 . S
H671 C700 0.930 . S
H672 C692 0.931 . S
O673 Co649 2.097 . S
O673 C701 1.214 . S
H674 C702 0.929 . S
H675 C703 0.929 . S
H676 C704 0.930 . S
H677 C705 0.929 . S
H678 C707 0.930 . S
H679 C684 0.930 . S
H680 C688 0.930 1_545 S
O681 Co650 2.037 . S
O681 C701 1.234 . S
C682 O656 1.269 . S
C682 O657 1.257 . S
C683 H658 0.930 1_655 S
C683 C686 1.388 . S
C683 C688 1.418 1_545 S
C684 H679 0.930 . S
C684 C687 1.404 . S
C684 C688 1.353 . S
N685 Co650 2.145 . S
N685 C686 1.397 . S
N685 C687 1.334 1_545 S
C686 H667 0.929 . S
C686 C683 1.388 . S
C686 N685 1.397 . S
C687 H668 0.929 . S
C687 C684 1.404 . S
C687 N685 1.334 1_565 S
C688 H680 0.930 1_565 S
C688 C683 1.418 1_565 S
C688 C684 1.353 . S
C689 H659 0.930 1_565 S
C689 N690 1.330 . S
C689 C691 1.446 . S
N690 Co649 2.151 1_565 S
N690 C689 1.330 . S
N690 C694 1.418 . S
C691 H670 0.929 . S
C691 C689 1.446 . S
C691 C692 1.332 . S
C692 H672 0.931 . S
C692 C691 1.332 . S
C692 C693 1.267 . S
C693 H661 0.929 . S
C693 C692 1.267 . S
C693 C694 1.251 . S
C694 H664 0.929 . S
C694 N690 1.418 . S
C694 C693 1.251 . S
C695 H662 0.930 . S
C695 C697 1.406 . S
C695 C700 1.261 1_655 S
C696 H663 0.930 . S
C696 N698 1.325 1_455 S
C696 C699 1.357 . S
C697 H665 0.928 . S
C697 C695 1.406 . S
C697 N698 1.261 . S
N698 Co649 2.214 . S
N698 C696 1.325 1_655 S
N698 C697 1.261 . S
C699 H669 0.931 . S
C699 C696 1.357 . S
C699 C700 1.312 . S
C700 H671 0.930 . S
C700 C695 1.261 1_455 S
C700 C699 1.312 . S
C701 O673 1.214 . S
C701 O681 1.234 . S
C702 H674 0.929 . S
C702 C705 1.391 . S
C702 C707 1.391 . S
C703 H675 0.929 . S
C703 C704 1.390 . S
C703 N706 1.391 . S
C704 H676 0.930 . S
C704 C703 1.390 . S
C704 C705 1.392 . S
C705 H677 0.929 . S
C705 C702 1.391 . S
C705 C704 1.392 . S
N706 Co650 2.257 . S
N706 C703 1.391 . S
N706 C707 1.388 . S
C707 H678 0.930 . S
C707 C702 1.391 . S
C707 N706 1.388 . S
Co708 O710 2.143 . S
Co708 O716 2.074 . S
Co708 O719 2.093 . S
Co708 O732 2.097 . S
Co708 N749 2.151 . S
Co708 N757 2.214 . S
Co709 O710 2.160 . S
Co709 O715 2.058 . S
Co709 O725 2.057 . S
Co709 O740 2.037 . S
Co709 N744 2.145 . S
Co709 N765 2.257 . S
O710 Co708 2.143 . S
O710 Co709 2.160 . S
C711 O712 1.278 . S
C711 O719 1.224 . S
O712 C711 1.278 . S
C713 O714 1.245 . S
C713 O725 1.232 . S
O714 C713 1.245 . S
O715 Co709 2.058 . S
O715 C741 1.269 . S
O716 Co708 2.074 . S
O716 C741 1.257 . S
H717 C742 0.930 . S
H718 C748 0.930 . S
O719 Co708 2.093 . S
O719 C711 1.224 . S
H720 C752 0.929 . S
H721 C754 0.930 . S
H722 C755 0.930 . S
H723 C753 0.929 . S
H724 C756 0.928 . S
O725 Co709 2.057 . S
O725 C713 1.232 . S
H726 C745 0.929 . S
H727 C746 0.929 . S
H728 C758 0.931 . S
H729 C750 0.929 . S
H730 C759 0.930 . S
H731 C751 0.931 . S
O732 Co708 2.097 . S
O732 C760 1.214 . S
H733 C761 0.929 . S
H734 C762 0.929 . S
H735 C763 0.930 . S
H736 C764 0.929 . S
H737 C766 0.930 . S
H738 C743 0.930 . S
H739 C747 0.930 . S
O740 Co709 2.037 . S
O740 C760 1.234 . S
C741 O715 1.269 . S
C741 O716 1.257 . S
C742 H717 0.930 . S
C742 C745 1.388 . S
C742 C747 1.418 . S
C743 H738 0.930 . S
C743 C746 1.404 . S
C743 C747 1.353 . S
N744 Co709 2.145 . S
N744 C745 1.397 . S
N744 C746 1.334 . S
C745 H726 0.929 . S
C745 C742 1.388 . S
C745 N744 1.397 . S
C746 H727 0.929 . S
C746 C743 1.404 . S
C746 N744 1.334 . S
C747 H739 0.930 . S
C747 C742 1.418 . S
C747 C743 1.353 . S
C748 H718 0.930 . S
C748 N749 1.330 . S
C748 C750 1.446 . S
N749 Co708 2.151 . S
N749 C748 1.330 . S
N749 C753 1.418 . S
C750 H729 0.929 . S
C750 C748 1.446 . S
C750 C751 1.332 . S
C751 H731 0.931 . S
C751 C750 1.332 . S
C751 C752 1.267 . S
C752 H720 0.929 . S
C752 C751 1.267 . S
C752 C753 1.251 . S
C753 H723 0.929 . S
C753 N749 1.418 . S
C753 C752 1.251 . S
C754 H721 0.930 . S
C754 C756 1.406 . S
C754 C759 1.261 . S
C755 H722 0.930 . S
C755 N757 1.325 . S
C755 C758 1.357 . S
C756 H724 0.928 . S
C756 C754 1.406 . S
C756 N757 1.261 . S
N757 Co708 2.214 . S
N757 C755 1.325 . S
N757 C756 1.261 . S
C758 H728 0.931 . S
C758 C755 1.357 . S
C758 C759 1.312 . S
C759 H730 0.930 . S
C759 C754 1.261 . S
C759 C758 1.312 . S
C760 O732 1.214 . S
C760 O740 1.234 . S
C761 H733 0.929 . S
C761 C764 1.391 . S
C761 C766 1.391 1_455 S
C762 H734 0.929 . S
C762 C763 1.390 . S
C762 N765 1.391 . S
C763 H735 0.930 . S
C763 C762 1.390 . S
C763 C764 1.392 1_655 S
C764 H736 0.929 . S
C764 C761 1.391 . S
C764 C763 1.392 1_455 S
N765 Co709 2.257 . S
N765 C762 1.391 . S
N765 C766 1.388 . S
C766 H737 0.930 . S
C766 C761 1.391 1_655 S
C766 N765 1.388 . S
Co767 O769 2.143 . S
Co767 O775 2.074 . S
Co767 O778 2.093 . S
Co767 O791 2.097 . S
Co767 N808 2.151 . S
Co767 N816 2.214 . S
Co768 O769 2.160 . S
Co768 O774 2.058 . S
Co768 O784 2.057 . S
Co768 O799 2.037 . S
Co768 N803 2.145 . S
Co768 N824 2.257 . S
O769 Co767 2.143 . S
O769 Co768 2.160 . S
C770 O771 1.278 . S
C770 O778 1.224 . S
O771 C770 1.278 . S
C772 O773 1.245 . S
C772 O784 1.232 . S
O773 C772 1.245 . S
O774 Co768 2.058 . S
O774 C800 1.269 . S
O775 Co767 2.074 . S
O775 C800 1.257 . S
H776 C801 0.930 . S
H777 C807 0.930 . S
O778 Co767 2.093 . S
O778 C770 1.224 . S
H779 C811 0.929 . S
H780 C813 0.930 . S
H781 C814 0.930 . S
H782 C812 0.929 . S
H783 C815 0.928 . S
O784 Co768 2.057 . S
O784 C772 1.232 . S
H785 C804 0.929 . S
H786 C805 0.929 . S
H787 C817 0.931 . S
H788 C809 0.929 . S
H789 C818 0.930 . S
H790 C810 0.931 . S
O791 Co767 2.097 . S
O791 C819 1.214 . S
H792 C820 0.929 . S
H793 C821 0.929 . S
H794 C822 0.930 . S
H795 C823 0.929 . S
H796 C825 0.930 . S
H797 C802 0.930 . S
H798 C806 0.930 . S
O799 Co768 2.037 . S
O799 C819 1.234 . S
C800 O774 1.269 . S
C800 O775 1.257 . S
C801 H776 0.930 . S
C801 C804 1.388 . S
C801 C806 1.418 . S
C802 H797 0.930 . S
C802 C805 1.404 . S
C802 C806 1.353 . S
N803 Co768 2.145 . S
N803 C804 1.397 . S
N803 C805 1.334 . S
C804 H785 0.929 . S
C804 C801 1.388 . S
C804 N803 1.397 . S
C805 H786 0.929 . S
C805 C802 1.404 . S
C805 N803 1.334 . S
C806 H798 0.930 . S
C806 C801 1.418 . S
C806 C802 1.353 . S
C807 H777 0.930 . S
C807 N808 1.330 . S
C807 C809 1.446 . S
N808 Co767 2.151 . S
N808 C807 1.330 . S
N808 C812 1.418 . S
C809 H788 0.929 . S
C809 C807 1.446 . S
C809 C810 1.332 . S
C810 H790 0.931 . S
C810 C809 1.332 . S
C810 C811 1.267 . S
C811 H779 0.929 . S
C811 C810 1.267 . S
C811 C812 1.251 . S
C812 H782 0.929 . S
C812 N808 1.418 . S
C812 C811 1.251 . S
C813 H780 0.930 . S
C813 C815 1.406 . S
C813 C818 1.261 . S
C814 H781 0.930 . S
C814 N816 1.325 . S
C814 C817 1.357 . S
C815 H783 0.928 . S
C815 C813 1.406 . S
C815 N816 1.261 . S
N816 Co767 2.214 . S
N816 C814 1.325 . S
N816 C815 1.261 . S
C817 H787 0.931 . S
C817 C814 1.357 . S
C817 C818 1.312 . S
C818 H789 0.930 . S
C818 C813 1.261 . S
C818 C817 1.312 . S
C819 O791 1.214 . S
C819 O799 1.234 . S
C820 H792 0.929 . S
C820 C823 1.391 . S
C820 C825 1.391 . S
C821 H793 0.929 . S
C821 C822 1.390 . S
C821 N824 1.391 . S
C822 H794 0.930 . S
C822 C821 1.390 . S
C822 C823 1.392 . S
C823 H795 0.929 . S
C823 C820 1.391 . S
C823 C822 1.392 . S
N824 Co768 2.257 . S
N824 C821 1.391 . S
N824 C825 1.388 . S
C825 H796 0.930 . S
C825 C820 1.391 . S
C825 N824 1.388 . S
Co826 O828 2.143 . S
Co826 O834 2.074 . S
Co826 O837 2.093 . S
Co826 O850 2.097 . S
Co826 N867 2.151 . S
Co826 N875 2.214 . S
Co827 O828 2.160 . S
Co827 O833 2.058 . S
Co827 O843 2.057 . S
Co827 O858 2.037 . S
Co827 N862 2.145 . S
Co827 N883 2.257 . S
O828 Co826 2.143 . S
O828 Co827 2.160 . S
C829 O830 1.278 . S
C829 O837 1.224 . S
O830 C829 1.278 . S
C831 O832 1.245 . S
C831 O843 1.232 . S
O832 C831 1.245 . S
O833 Co827 2.058 . S
O833 C859 1.269 . S
O834 Co826 2.074 . S
O834 C859 1.257 . S
H835 C860 0.930 . S
H836 C866 0.930 . S
O837 Co826 2.093 . S
O837 C829 1.224 . S
H838 C870 0.929 . S
H839 C872 0.930 . S
H840 C873 0.930 . S
H841 C871 0.929 . S
H842 C874 0.928 . S
O843 Co827 2.057 . S
O843 C831 1.232 . S
H844 C863 0.929 . S
H845 C864 0.929 . S
H846 C876 0.931 . S
H847 C868 0.929 . S
H848 C877 0.930 . S
H849 C869 0.931 . S
O850 Co826 2.097 . S
O850 C878 1.214 . S
H851 C879 0.929 . S
H852 C880 0.929 . S
H853 C881 0.930 . S
H854 C882 0.929 . S
H855 C884 0.930 . S
H856 C861 0.930 . S
H857 C865 0.930 . S
O858 Co827 2.037 . S
O858 C878 1.234 . S
C859 O833 1.269 . S
C859 O834 1.257 . S
C860 H835 0.930 . S
C860 C863 1.388 . S
C860 C865 1.418 . S
C861 H856 0.930 . S
C861 C864 1.404 . S
C861 C865 1.353 . S
N862 Co827 2.145 . S
N862 C863 1.397 . S
N862 C864 1.334 . S
C863 H844 0.929 . S
C863 C860 1.388 . S
C863 N862 1.397 . S
C864 H845 0.929 . S
C864 C861 1.404 . S
C864 N862 1.334 . S
C865 H857 0.930 . S
C865 C860 1.418 . S
C865 C861 1.353 . S
C866 H836 0.930 . S
C866 N867 1.330 . S
C866 C868 1.446 . S
N867 Co826 2.151 . S
N867 C866 1.330 . S
N867 C871 1.418 . S
C868 H847 0.929 . S
C868 C866 1.446 . S
C868 C869 1.332 . S
C869 H849 0.931 . S
C869 C868 1.332 . S
C869 C870 1.267 . S
C870 H838 0.929 . S
C870 C869 1.267 . S
C870 C871 1.251 . S
C871 H841 0.929 . S
C871 N867 1.418 . S
C871 C870 1.251 . S
C872 H839 0.930 . S
C872 C874 1.406 . S
C872 C877 1.261 . S
C873 H840 0.930 . S
C873 N875 1.325 . S
C873 C876 1.357 . S
C874 H842 0.928 . S
C874 C872 1.406 . S
C874 N875 1.261 . S
N875 Co826 2.214 . S
N875 C873 1.325 . S
N875 C874 1.261 . S
C876 H846 0.931 . S
C876 C873 1.357 . S
C876 C877 1.312 . S
C877 H848 0.930 . S
C877 C872 1.261 . S
C877 C876 1.312 . S
C878 O850 1.214 . S
C878 O858 1.234 . S
C879 H851 0.929 . S
C879 C882 1.391 . S
C879 C884 1.391 1_565 S
C880 H852 0.929 . S
C880 C881 1.390 . S
C880 N883 1.391 . S
C881 H853 0.930 . S
C881 C880 1.390 . S
C881 C882 1.392 1_545 S
C882 H854 0.929 . S
C882 C879 1.391 . S
C882 C881 1.392 1_565 S
N883 Co827 2.257 . S
N883 C880 1.391 . S
N883 C884 1.388 . S
C884 H855 0.930 . S
C884 C879 1.391 1_545 S
C884 N883 1.388 . S
Co885 O887 2.143 . S
Co885 O893 2.074 . S
Co885 O896 2.093 . S
Co885 O909 2.097 . S
Co885 N926 2.151 . S
Co885 N934 2.214 . S
Co886 O887 2.160 . S
Co886 O892 2.058 . S
Co886 O902 2.057 . S
Co886 O917 2.037 . S
Co886 N921 2.145 . S
Co886 N942 2.257 . S
O887 Co885 2.143 . S
O887 Co886 2.160 . S
C888 O889 1.278 . S
C888 O896 1.224 . S
O889 C888 1.278 . S
C890 O891 1.245 . S
C890 O902 1.232 . S
O891 C890 1.245 . S
O892 Co886 2.058 . S
O892 C918 1.269 . S
O893 Co885 2.074 . S
O893 C918 1.257 . S
H894 C919 0.930 . S
H895 C925 0.930 . S
O896 Co885 2.093 . S
O896 C888 1.224 . S
H897 C929 0.929 . S
H898 C931 0.930 . S
H899 C932 0.930 . S
H900 C930 0.929 . S
H901 C933 0.928 . S
O902 Co886 2.057 . S
O902 C890 1.232 . S
H903 C922 0.929 . S
H904 C923 0.929 . S
H905 C935 0.931 . S
H906 C927 0.929 . S
H907 C936 0.930 . S
H908 C928 0.931 . S
O909 Co885 2.097 . S
O909 C937 1.214 . S
H910 C938 0.929 . S
H911 C939 0.929 . S
H912 C940 0.930 . S
H913 C941 0.929 . S
H914 C943 0.930 . S
H915 C920 0.930 . S
H916 C924 0.930 . S
O917 Co886 2.037 . S
O917 C937 1.234 . S
C918 O892 1.269 . S
C918 O893 1.257 . S
C919 H894 0.930 . S
C919 C922 1.388 . S
C919 C924 1.418 . S
C920 H915 0.930 . S
C920 C923 1.404 . S
C920 C924 1.353 . S
N921 Co886 2.145 . S
N921 C922 1.397 . S
N921 C923 1.334 . S
C922 H903 0.929 . S
C922 C919 1.388 . S
C922 N921 1.397 . S
C923 H904 0.929 . S
C923 C920 1.404 . S
C923 N921 1.334 . S
C924 H916 0.930 . S
C924 C919 1.418 . S
C924 C920 1.353 . S
C925 H895 0.930 . S
C925 N926 1.330 . S
C925 C927 1.446 . S
N926 Co885 2.151 . S
N926 C925 1.330 . S
N926 C930 1.418 . S
C927 H906 0.929 . S
C927 C925 1.446 . S
C927 C928 1.332 . S
C928 H908 0.931 . S
C928 C927 1.332 . S
C928 C929 1.267 . S
C929 H897 0.929 . S
C929 C928 1.267 . S
C929 C930 1.251 . S
C930 H900 0.929 . S
C930 N926 1.418 . S
C930 C929 1.251 . S
C931 H898 0.930 . S
C931 C933 1.406 . S
C931 C936 1.261 . S
C932 H899 0.930 . S
C932 N934 1.325 . S
C932 C935 1.357 . S
C933 H901 0.928 . S
C933 C931 1.406 . S
C933 N934 1.261 . S
N934 Co885 2.214 . S
N934 C932 1.325 . S
N934 C933 1.261 . S
C935 H905 0.931 . S
C935 C932 1.357 . S
C935 C936 1.312 . S
C936 H907 0.930 . S
C936 C931 1.261 . S
C936 C935 1.312 . S
C937 O909 1.214 . S
C937 O917 1.234 . S
C938 H910 0.929 . S
C938 C941 1.391 . S
C938 C943 1.391 . S
C939 H911 0.929 . S
C939 C940 1.390 . S
C939 N942 1.391 . S
C940 H912 0.930 . S
C940 C939 1.390 . S
C940 C941 1.392 . S
C941 H913 0.929 . S
C941 C938 1.391 . S
C941 C940 1.392 . S
N942 Co886 2.257 . S
N942 C939 1.391 . S
N942 C943 1.388 . S
C943 H914 0.930 . S
C943 C938 1.391 . S
C943 N942 1.388 . S
Co944 O946 2.143 . S
Co944 O952 2.074 . S
Co944 O955 2.093 . S
Co944 O968 2.097 . S
Co944 N985 2.151 . S
Co944 N993 2.214 . S
Co945 O946 2.160 . S
Co945 O951 2.058 . S
Co945 O961 2.057 . S
Co945 O976 2.037 . S
Co945 N980 2.145 . S
Co945 N1001 2.257 . S
O946 Co944 2.143 . S
O946 Co945 2.160 . S
C947 O948 1.278 . S
C947 O955 1.224 . S
O948 C947 1.278 . S
C949 O950 1.245 . S
C949 O961 1.232 . S
O950 C949 1.245 . S
O951 Co945 2.058 . S
O951 C977 1.269 . S
O952 Co944 2.074 . S
O952 C977 1.257 . S
H953 C978 0.930 . S
H954 C984 0.930 . S
O955 Co944 2.093 . S
O955 C947 1.224 . S
H956 C988 0.929 . S
H957 C990 0.930 . S
H958 C991 0.930 . S
H959 C989 0.929 . S
H960 C992 0.928 . S
O961 Co945 2.057 . S
O961 C949 1.232 . S
H962 C981 0.929 . S
H963 C982 0.929 . S
H964 C994 0.931 . S
H965 C986 0.929 1_565 S
H966 C995 0.930 . S
H967 C987 0.931 1_565 S
O968 Co944 2.097 . S
O968 C996 1.214 . S
H969 C997 0.929 . S
H970 C998 0.929 . S
H971 C999 0.930 . S
H972 C1000 0.929 . S
H973 C1002 0.930 . S
H974 C979 0.930 . S
H975 C983 0.930 . S
O976 Co945 2.037 . S
O976 C996 1.234 . S
C977 O951 1.269 . S
C977 O952 1.257 . S
C978 H953 0.930 . S
C978 C981 1.388 . S
C978 C983 1.418 . S
C979 H974 0.930 . S
C979 C982 1.404 . S
C979 C983 1.353 . S
N980 Co945 2.145 . S
N980 C981 1.397 . S
N980 C982 1.334 . S
C981 H962 0.929 . S
C981 C978 1.388 . S
C981 N980 1.397 . S
C982 H963 0.929 . S
C982 C979 1.404 . S
C982 N980 1.334 . S
C983 H975 0.930 . S
C983 C978 1.418 . S
C983 C979 1.353 . S
C984 H954 0.930 . S
C984 N985 1.330 . S
C984 C986 1.446 . S
N985 Co944 2.151 . S
N985 C984 1.330 . S
N985 C989 1.418 . S
C986 H965 0.929 1_545 S
C986 C984 1.446 . S
C986 C987 1.332 . S
C987 H967 0.931 1_545 S
C987 C986 1.332 . S
C987 C988 1.267 . S
C988 H956 0.929 . S
C988 C987 1.267 . S
C988 C989 1.251 . S
C989 H959 0.929 . S
C989 N985 1.418 . S
C989 C988 1.251 . S
C990 H957 0.930 . S
C990 C992 1.406 . S
C990 C995 1.261 . S
C991 H958 0.930 . S
C991 N993 1.325 . S
C991 C994 1.357 . S
C992 H960 0.928 . S
C992 C990 1.406 . S
C992 N993 1.261 . S
N993 Co944 2.214 . S
N993 C991 1.325 . S
N993 C992 1.261 . S
C994 H964 0.931 . S
C994 C991 1.357 . S
C994 C995 1.312 . S
C995 H966 0.930 . S
C995 C990 1.261 . S
C995 C994 1.312 . S
C996 O968 1.214 . S
C996 O976 1.234 . S
C997 H969 0.929 . S
C997 C1000 1.391 . S
C997 C1002 1.391 . S
C998 H970 0.929 . S
C998 C999 1.390 . S
C998 N1001 1.391 . S
C999 H971 0.930 . S
C999 C998 1.390 . S
C999 C1000 1.392 . S
C1000 H972 0.929 . S
C1000 C997 1.391 . S
C1000 C999 1.392 . S
N1001 Co945 2.257 . S
N1001 C998 1.391 . S
N1001 C1002 1.388 . S
C1002 H973 0.930 . S
C1002 C997 1.391 . S
C1002 N1001 1.388 . S
Co1003 O1005 2.143 . S
Co1003 O1011 2.074 . S
Co1003 O1014 2.093 . S
Co1003 O1027 2.097 . S
Co1003 N1044 2.151 . S
Co1003 N1052 2.214 . S
Co1004 O1005 2.160 . S
Co1004 O1010 2.058 . S
Co1004 O1020 2.057 . S
Co1004 O1035 2.037 . S
Co1004 N1039 2.145 . S
Co1004 N1060 2.257 . S
O1005 Co1003 2.143 . S
O1005 Co1004 2.160 . S
C1006 O1007 1.278 . S
C1006 O1014 1.224 . S
O1007 C1006 1.278 . S
C1008 O1009 1.245 . S
C1008 O1020 1.232 . S
O1009 C1008 1.245 . S
O1010 Co1004 2.058 . S
O1010 C1036 1.269 . S
O1011 Co1003 2.074 . S
O1011 C1036 1.257 . S
H1012 C1037 0.930 . S
H1013 C1043 0.930 . S
O1014 Co1003 2.093 . S
O1014 C1006 1.224 . S
H1015 C1047 0.929 . S
H1016 C1049 0.930 . S
H1017 C1050 0.930 . S
H1018 C1048 0.929 . S
H1019 C1051 0.928 . S
O1020 Co1004 2.057 . S
O1020 C1008 1.232 . S
H1021 C1040 0.929 . S
H1022 C1041 0.929 . S
H1023 C1053 0.931 . S
H1024 C1045 0.929 1_455 S
H1025 C1054 0.930 . S
H1026 C1046 0.931 1_455 S
O1027 Co1003 2.097 . S
O1027 C1055 1.214 . S
H1028 C1056 0.929 . S
H1029 C1057 0.929 . S
H1030 C1058 0.930 . S
H1031 C1059 0.929 . S
H1032 C1061 0.930 . S
H1033 C1038 0.930 . S
H1034 C1042 0.930 . S
O1035 Co1004 2.037 . S
O1035 C1055 1.234 . S
C1036 O1010 1.269 . S
C1036 O1011 1.257 . S
C1037 H1012 0.930 . S
C1037 C1040 1.388 . S
C1037 C1042 1.418 . S
C1038 H1033 0.930 . S
C1038 C1041 1.404 . S
C1038 C1042 1.353 . S
N1039 Co1004 2.145 . S
N1039 C1040 1.397 . S
N1039 C1041 1.334 . S
C1040 H1021 0.929 . S
C1040 C1037 1.388 . S
C1040 N1039 1.397 . S
C1041 H1022 0.929 . S
C1041 C1038 1.404 . S
C1041 N1039 1.334 . S
C1042 H1034 0.930 . S
C1042 C1037 1.418 . S
C1042 C1038 1.353 . S
C1043 H1013 0.930 . S
C1043 N1044 1.330 . S
C1043 C1045 1.446 . S
N1044 Co1003 2.151 . S
N1044 C1043 1.330 . S
N1044 C1048 1.418 . S
C1045 H1024 0.929 1_655 S
C1045 C1043 1.446 . S
C1045 C1046 1.332 . S
C1046 H1026 0.931 1_655 S
C1046 C1045 1.332 . S
C1046 C1047 1.267 . S
C1047 H1015 0.929 . S
C1047 C1046 1.267 . S
C1047 C1048 1.251 . S
C1048 H1018 0.929 . S
C1048 N1044 1.418 . S
C1048 C1047 1.251 . S
C1049 H1016 0.930 . S
C1049 C1051 1.406 . S
C1049 C1054 1.261 . S
C1050 H1017 0.930 . S
C1050 N1052 1.325 . S
C1050 C1053 1.357 . S
C1051 H1019 0.928 . S
C1051 C1049 1.406 . S
C1051 N1052 1.261 . S
N1052 Co1003 2.214 . S
N1052 C1050 1.325 . S
N1052 C1051 1.261 . S
C1053 H1023 0.931 . S
C1053 C1050 1.357 . S
C1053 C1054 1.312 . S
C1054 H1025 0.930 . S
C1054 C1049 1.261 . S
C1054 C1053 1.312 . S
C1055 O1027 1.214 . S
C1055 O1035 1.234 . S
C1056 H1028 0.929 . S
C1056 C1059 1.391 . S
C1056 C1061 1.391 . S
C1057 H1029 0.929 . S
C1057 C1058 1.390 . S
C1057 N1060 1.391 . S
C1058 H1030 0.930 . S
C1058 C1057 1.390 . S
C1058 C1059 1.392 . S
C1059 H1031 0.929 . S
C1059 C1056 1.391 . S
C1059 C1058 1.392 . S
N1060 Co1004 2.257 . S
N1060 C1057 1.391 . S
N1060 C1061 1.388 . S
C1061 H1032 0.930 . S
C1061 C1056 1.391 . S
C1061 N1060 1.388 . S
Co1062 O1064 2.143 . S
Co1062 O1070 2.074 . S
Co1062 O1073 2.093 . S
Co1062 O1086 2.097 . S
Co1062 N1103 2.151 . S
Co1062 N1111 2.214 . S
Co1063 O1064 2.160 . S
Co1063 O1069 2.058 . S
Co1063 O1079 2.057 . S
Co1063 O1094 2.037 . S
Co1063 N1098 2.145 . S
Co1063 N1119 2.257 . S
O1064 Co1062 2.143 . S
O1064 Co1063 2.160 . S
C1065 O1066 1.278 . S
C1065 O1073 1.224 . S
O1066 C1065 1.278 . S
C1067 O1068 1.245 . S
C1067 O1079 1.232 . S
O1068 C1067 1.245 . S
O1069 Co1063 2.058 . S
O1069 C1095 1.269 . S
O1070 Co1062 2.074 . S
O1070 C1095 1.257 . S
H1071 C1096 0.930 . S
H1072 C1102 0.930 . S
O1073 Co1062 2.093 . S
O1073 C1065 1.224 . S
H1074 C1106 0.929 . S
H1075 C1108 0.930 . S
H1076 C1109 0.930 . S
H1077 C1107 0.929 . S
H1078 C1110 0.928 . S
O1079 Co1063 2.057 . S
O1079 C1067 1.232 . S
H1080 C1099 0.929 . S
H1081 C1100 0.929 . S
H1082 C1112 0.931 . S
H1083 C1104 0.929 . S
H1084 C1113 0.930 . S
H1085 C1105 0.931 . S
O1086 Co1062 2.097 . S
O1086 C1114 1.214 . S
H1087 C1115 0.929 . S
H1088 C1116 0.929 . S
H1089 C1117 0.930 . S
H1090 C1118 0.929 . S
H1091 C1120 0.930 . S
H1092 C1097 0.930 . S
H1093 C1101 0.930 . S
O1094 Co1063 2.037 . S
O1094 C1114 1.234 . S
C1095 O1069 1.269 . S
C1095 O1070 1.257 . S
C1096 H1071 0.930 . S
C1096 C1099 1.388 . S
C1096 C1101 1.418 . S
C1097 H1092 0.930 . S
C1097 C1100 1.404 . S
C1097 C1101 1.353 . S
N1098 Co1063 2.145 . S
N1098 C1099 1.397 . S
N1098 C1100 1.334 . S
C1099 H1080 0.929 . S
C1099 C1096 1.388 . S
C1099 N1098 1.397 . S
C1100 H1081 0.929 . S
C1100 C1097 1.404 . S
C1100 N1098 1.334 . S
C1101 H1093 0.930 . S
C1101 C1096 1.418 . S
C1101 C1097 1.353 . S
C1102 H1072 0.930 . S
C1102 N1103 1.330 . S
C1102 C1104 1.446 . S
N1103 Co1062 2.151 . S
N1103 C1102 1.330 . S
N1103 C1107 1.418 . S
C1104 H1083 0.929 . S
C1104 C1102 1.446 . S
C1104 C1105 1.332 . S
C1105 H1085 0.931 . S
C1105 C1104 1.332 . S
C1105 C1106 1.267 . S
C1106 H1074 0.929 . S
C1106 C1105 1.267 . S
C1106 C1107 1.251 . S
C1107 H1077 0.929 . S
C1107 N1103 1.418 . S
C1107 C1106 1.251 . S
C1108 H1075 0.930 . S
C1108 C1110 1.406 . S
C1108 C1113 1.261 . S
C1109 H1076 0.930 . S
C1109 N1111 1.325 . S
C1109 C1112 1.357 . S
C1110 H1078 0.928 . S
C1110 C1108 1.406 . S
C1110 N1111 1.261 . S
N1111 Co1062 2.214 . S
N1111 C1109 1.325 . S
N1111 C1110 1.261 . S
C1112 H1082 0.931 . S
C1112 C1109 1.357 . S
C1112 C1113 1.312 . S
C1113 H1084 0.930 . S
C1113 C1108 1.261 . S
C1113 C1112 1.312 . S
C1114 O1086 1.214 . S
C1114 O1094 1.234 . S
C1115 H1087 0.929 . S
C1115 C1118 1.391 . S
C1115 C1120 1.391 . S
C1116 H1088 0.929 . S
C1116 C1117 1.390 . S
C1116 N1119 1.391 . S
C1117 H1089 0.930 . S
C1117 C1116 1.390 . S
C1117 C1118 1.392 . S
C1118 H1090 0.929 . S
C1118 C1115 1.391 . S
C1118 C1117 1.392 . S
N1119 Co1063 2.257 . S
N1119 C1116 1.391 . S
N1119 C1120 1.388 . S
C1120 H1091 0.930 . S
C1120 C1115 1.391 . S
C1120 N1119 1.388 . S
Co1121 O1123 2.143 . S
Co1121 O1129 2.074 . S
Co1121 O1132 2.093 . S
Co1121 O1145 2.097 . S
Co1121 N1162 2.151 . S
Co1121 N1170 2.214 . S
Co1122 O1123 2.160 . S
Co1122 O1128 2.058 . S
Co1122 O1138 2.057 . S
Co1122 O1153 2.037 . S
Co1122 N1157 2.145 . S
Co1122 N1178 2.257 . S
O1123 Co1121 2.143 . S
O1123 Co1122 2.160 . S
C1124 O1125 1.278 . S
C1124 O1132 1.224 . S
O1125 C1124 1.278 . S
C1126 O1127 1.245 . S
C1126 O1138 1.232 . S
O1127 C1126 1.245 . S
O1128 Co1122 2.058 . S
O1128 C1154 1.269 . S
O1129 Co1121 2.074 . S
O1129 C1154 1.257 . S
H1130 C1155 0.930 . S
H1131 C1161 0.930 . S
O1132 Co1121 2.093 . S
O1132 C1124 1.224 . S
H1133 C1165 0.929 . S
H1134 C1167 0.930 . S
H1135 C1168 0.930 . S
H1136 C1166 0.929 . S
H1137 C1169 0.928 . S
O1138 Co1122 2.057 . S
O1138 C1126 1.232 . S
H1139 C1158 0.929 . S
H1140 C1159 0.929 . S
H1141 C1171 0.931 . S
H1142 C1163 0.929 1_565 S
H1143 C1172 0.930 . S
H1144 C1164 0.931 1_565 S
O1145 Co1121 2.097 . S
O1145 C1173 1.214 . S
H1146 C1174 0.929 . S
H1147 C1175 0.929 . S
H1148 C1176 0.930 . S
H1149 C1177 0.929 . S
H1150 C1179 0.930 . S
H1151 C1156 0.930 . S
H1152 C1160 0.930 . S
O1153 Co1122 2.037 . S
O1153 C1173 1.234 . S
C1154 O1128 1.269 . S
C1154 O1129 1.257 . S
C1155 H1130 0.930 . S
C1155 C1158 1.388 . S
C1155 C1160 1.418 . S
C1156 H1151 0.930 . S
C1156 C1159 1.404 . S
C1156 C1160 1.353 . S
N1157 Co1122 2.145 . S
N1157 C1158 1.397 . S
N1157 C1159 1.334 . S
C1158 H1139 0.929 . S
C1158 C1155 1.388 . S
C1158 N1157 1.397 . S
C1159 H1140 0.929 . S
C1159 C1156 1.404 . S
C1159 N1157 1.334 . S
C1160 H1152 0.930 . S
C1160 C1155 1.418 . S
C1160 C1156 1.353 . S
C1161 H1131 0.930 . S
C1161 N1162 1.330 . S
C1161 C1163 1.446 . S
N1162 Co1121 2.151 . S
N1162 C1161 1.330 . S
N1162 C1166 1.418 . S
C1163 H1142 0.929 1_545 S
C1163 C1161 1.446 . S
C1163 C1164 1.332 . S
C1164 H1144 0.931 1_545 S
C1164 C1163 1.332 . S
C1164 C1165 1.267 . S
C1165 H1133 0.929 . S
C1165 C1164 1.267 . S
C1165 C1166 1.251 . S
C1166 H1136 0.929 . S
C1166 N1162 1.418 . S
C1166 C1165 1.251 . S
C1167 H1134 0.930 . S
C1167 C1169 1.406 . S
C1167 C1172 1.261 . S
C1168 H1135 0.930 . S
C1168 N1170 1.325 . S
C1168 C1171 1.357 . S
C1169 H1137 0.928 . S
C1169 C1167 1.406 . S
C1169 N1170 1.261 . S
N1170 Co1121 2.214 . S
N1170 C1168 1.325 . S
N1170 C1169 1.261 . S
C1171 H1141 0.931 . S
C1171 C1168 1.357 . S
C1171 C1172 1.312 . S
C1172 H1143 0.930 . S
C1172 C1167 1.261 . S
C1172 C1171 1.312 . S
C1173 O1145 1.214 . S
C1173 O1153 1.234 . S
C1174 H1146 0.929 . S
C1174 C1177 1.391 . S
C1174 C1179 1.391 . S
C1175 H1147 0.929 . S
C1175 C1176 1.390 . S
C1175 N1178 1.391 . S
C1176 H1148 0.930 . S
C1176 C1175 1.390 . S
C1176 C1177 1.392 . S
C1177 H1149 0.929 . S
C1177 C1174 1.391 . S
C1177 C1176 1.392 . S
N1178 Co1122 2.257 . S
N1178 C1175 1.391 . S
N1178 C1179 1.388 . S
C1179 H1150 0.930 . S
C1179 C1174 1.391 . S
C1179 N1178 1.388 . S
Co1180 O1182 2.143 . S
Co1180 O1188 2.074 . S
Co1180 O1191 2.093 . S
Co1180 O1204 2.097 . S
Co1180 N1221 2.151 . S
Co1180 N1229 2.214 . S
Co1181 O1182 2.160 . S
Co1181 O1187 2.058 . S
Co1181 O1197 2.057 . S
Co1181 O1212 2.037 . S
Co1181 N1216 2.145 . S
Co1181 N1237 2.257 . S
O1182 Co1180 2.143 . S
O1182 Co1181 2.160 . S
C1183 O1184 1.278 . S
C1183 O1191 1.224 . S
O1184 C1183 1.278 . S
C1185 O1186 1.245 . S
C1185 O1197 1.232 . S
O1186 C1185 1.245 . S
O1187 Co1181 2.058 . S
O1187 C1213 1.269 . S
O1188 Co1180 2.074 . S
O1188 C1213 1.257 . S
H1189 C1214 0.930 . S
H1190 C1220 0.930 . S
O1191 Co1180 2.093 . S
O1191 C1183 1.224 . S
H1192 C1224 0.929 . S
H1193 C1226 0.930 . S
H1194 C1227 0.930 . S
H1195 C1225 0.929 . S
H1196 C1228 0.928 . S
O1197 Co1181 2.057 . S
O1197 C1185 1.232 . S
H1198 C1217 0.929 . S
H1199 C1218 0.929 . S
H1200 C1230 0.931 . S
H1201 C1222 0.929 1_455 S
H1202 C1231 0.930 . S
H1203 C1223 0.931 1_455 S
O1204 Co1180 2.097 . S
O1204 C1232 1.214 . S
H1205 C1233 0.929 . S
H1206 C1234 0.929 . S
H1207 C1235 0.930 . S
H1208 C1236 0.929 . S
H1209 C1238 0.930 . S
H1210 C1215 0.930 . S
H1211 C1219 0.930 . S
O1212 Co1181 2.037 . S
O1212 C1232 1.234 . S
C1213 O1187 1.269 . S
C1213 O1188 1.257 . S
C1214 H1189 0.930 . S
C1214 C1217 1.388 . S
C1214 C1219 1.418 . S
C1215 H1210 0.930 . S
C1215 C1218 1.404 . S
C1215 C1219 1.353 . S
N1216 Co1181 2.145 . S
N1216 C1217 1.397 . S
N1216 C1218 1.334 . S
C1217 H1198 0.929 . S
C1217 C1214 1.388 . S
C1217 N1216 1.397 . S
C1218 H1199 0.929 . S
C1218 C1215 1.404 . S
C1218 N1216 1.334 . S
C1219 H1211 0.930 . S
C1219 C1214 1.418 . S
C1219 C1215 1.353 . S
C1220 H1190 0.930 . S
C1220 N1221 1.330 . S
C1220 C1222 1.446 . S
N1221 Co1180 2.151 . S
N1221 C1220 1.330 . S
N1221 C1225 1.418 . S
C1222 H1201 0.929 1_655 S
C1222 C1220 1.446 . S
C1222 C1223 1.332 . S
C1223 H1203 0.931 1_655 S
C1223 C1222 1.332 . S
C1223 C1224 1.267 . S
C1224 H1192 0.929 . S
C1224 C1223 1.267 . S
C1224 C1225 1.251 . S
C1225 H1195 0.929 . S
C1225 N1221 1.418 . S
C1225 C1224 1.251 . S
C1226 H1193 0.930 . S
C1226 C1228 1.406 . S
C1226 C1231 1.261 . S
C1227 H1194 0.930 . S
C1227 N1229 1.325 . S
C1227 C1230 1.357 . S
C1228 H1196 0.928 . S
C1228 C1226 1.406 . S
C1228 N1229 1.261 . S
N1229 Co1180 2.214 . S
N1229 C1227 1.325 . S
N1229 C1228 1.261 . S
C1230 H1200 0.931 . S
C1230 C1227 1.357 . S
C1230 C1231 1.312 . S
C1231 H1202 0.930 . S
C1231 C1226 1.261 . S
C1231 C1230 1.312 . S
C1232 O1204 1.214 . S
C1232 O1212 1.234 . S
C1233 H1205 0.929 . S
C1233 C1236 1.391 . S
C1233 C1238 1.391 . S
C1234 H1206 0.929 . S
C1234 C1235 1.390 . S
C1234 N1237 1.391 . S
C1235 H1207 0.930 . S
C1235 C1234 1.390 . S
C1235 C1236 1.392 . S
C1236 H1208 0.929 . S
C1236 C1233 1.391 . S
C1236 C1235 1.392 . S
N1237 Co1181 2.257 . S
N1237 C1234 1.391 . S
N1237 C1238 1.388 . S
C1238 H1209 0.930 . S
C1238 C1233 1.391 . S
C1238 N1237 1.388 . S
Co1239 O1241 2.143 . S
Co1239 O1247 2.074 . S
Co1239 O1250 2.072 1_556 S
Co1239 O1263 2.097 . S
Co1239 N1280 2.151 1_556 S
Co1239 N1288 2.214 1_556 S
Co1240 O1241 2.160 . S
Co1240 O1246 2.058 . S
Co1240 O1256 2.057 . S
Co1240 O1271 2.037 . S
Co1240 N1275 2.145 . S
Co1240 N1296 2.257 . S
O1241 Co1239 2.143 . S
O1241 Co1240 2.160 . S
C1242 O1243 1.278 . S
C1242 O1250 1.204 1_556 S
O1243 C1242 1.278 . S
C1244 O1245 1.245 . S
C1244 O1256 1.232 . S
O1245 C1244 1.245 . S
O1246 Co1240 2.058 . S
O1246 C1272 1.269 . S
O1247 Co1239 2.074 . S
O1247 C1272 1.257 . S
H1248 C1273 0.930 . S
H1249 C1279 0.930 . S
O1250 Co1239 2.072 1_554 S
O1250 C1242 1.204 1_554 S
H1251 C1283 0.929 . S
H1252 C1285 0.930 . S
H1253 C1286 0.930 1_556 S
H1254 C1284 0.929 . S
H1255 C1287 0.928 . S
O1256 Co1240 2.057 . S
O1256 C1244 1.232 . S
H1257 C1276 0.929 . S
H1258 C1277 0.929 . S
H1259 C1289 0.931 . S
H1260 C1281 0.929 . S
H1261 C1290 0.930 . S
H1262 C1282 0.931 . S
O1263 Co1239 2.097 . S
O1263 C1291 1.214 . S
H1264 C1292 0.929 . S
H1265 C1293 0.929 . S
H1266 C1294 0.930 . S
H1267 C1295 0.929 . S
H1268 C1297 0.930 . S
H1269 C1274 0.930 . S
H1270 C1278 0.930 . S
O1271 Co1240 2.037 . S
O1271 C1291 1.234 . S
C1272 O1246 1.269 . S
C1272 O1247 1.257 . S
C1273 H1248 0.930 . S
C1273 C1276 1.388 . S
C1273 C1278 1.418 . S
C1274 H1269 0.930 . S
C1274 C1277 1.404 . S
C1274 C1278 1.353 . S
N1275 Co1240 2.145 . S
N1275 C1276 1.397 . S
N1275 C1277 1.334 . S
C1276 H1257 0.929 . S
C1276 C1273 1.388 . S
C1276 N1275 1.397 . S
C1277 H1258 0.929 . S
C1277 C1274 1.404 . S
C1277 N1275 1.334 . S
C1278 H1270 0.930 . S
C1278 C1273 1.418 . S
C1278 C1274 1.353 . S
C1279 H1249 0.930 . S
C1279 N1280 1.330 . S
C1279 C1281 1.446 . S
N1280 Co1239 2.151 1_554 S
N1280 C1279 1.330 . S
N1280 C1284 1.418 . S
C1281 H1260 0.929 . S
C1281 C1279 1.446 . S
C1281 C1282 1.332 . S
C1282 H1262 0.931 . S
C1282 C1281 1.332 . S
C1282 C1283 1.267 . S
C1283 H1251 0.929 . S
C1283 C1282 1.267 . S
C1283 C1284 1.251 . S
C1284 H1254 0.929 . S
C1284 N1280 1.418 . S
C1284 C1283 1.251 . S
C1285 H1252 0.930 . S
C1285 C1287 1.406 . S
C1285 C1290 1.261 . S
C1286 H1253 0.930 1_554 S
C1286 N1288 1.325 . S
C1286 C1289 1.357 . S
C1287 H1255 0.928 . S
C1287 C1285 1.406 . S
C1287 N1288 1.261 . S
N1288 Co1239 2.214 1_554 S
N1288 C1286 1.325 . S
N1288 C1287 1.261 . S
C1289 H1259 0.931 . S
C1289 C1286 1.357 . S
C1289 C1290 1.312 . S
C1290 H1261 0.930 . S
C1290 C1285 1.261 . S
C1290 C1289 1.312 . S
C1291 O1263 1.214 . S
C1291 O1271 1.234 . S
C1292 H1264 0.929 . S
C1292 C1295 1.391 . S
C1292 C1297 1.391 1_565 S
C1293 H1265 0.929 . S
C1293 C1294 1.390 . S
C1293 N1296 1.391 . S
C1294 H1266 0.930 . S
C1294 C1293 1.390 . S
C1294 C1295 1.392 1_545 S
C1295 H1267 0.929 . S
C1295 C1292 1.391 . S
C1295 C1294 1.392 1_565 S
N1296 Co1240 2.257 . S
N1296 C1293 1.391 . S
N1296 C1297 1.388 . S
C1297 H1268 0.930 . S
C1297 C1292 1.391 1_545 S
C1297 N1296 1.388 . S
Co1298 O1300 2.143 . S
Co1298 O1306 2.074 . S
Co1298 O1309 2.093 1_556 S
Co1298 O1322 2.097 . S
Co1298 N1339 2.151 1_556 S
Co1298 N1347 2.214 1_556 S
Co1299 O1300 2.160 . S
Co1299 O1305 2.058 . S
Co1299 O1315 2.057 . S
Co1299 O1330 2.037 . S
Co1299 N1334 2.145 . S
Co1299 N1355 2.257 . S
O1300 Co1298 2.143 . S
O1300 Co1299 2.160 . S
C1301 O1302 1.278 . S
C1301 O1309 1.224 1_556 S
O1302 C1301 1.278 . S
C1303 O1304 1.245 . S
C1303 O1315 1.232 . S
O1304 C1303 1.245 . S
O1305 Co1299 2.058 . S
O1305 C1331 1.269 . S
O1306 Co1298 2.074 . S
O1306 C1331 1.257 . S
H1307 C1332 0.930 . S
H1308 C1338 0.930 . S
O1309 Co1298 2.093 1_554 S
O1309 C1301 1.224 1_554 S
H1310 C1342 0.929 . S
H1311 C1344 0.930 . S
H1312 C1345 0.930 1_556 S
H1313 C1343 0.929 . S
H1314 C1346 0.928 . S
O1315 Co1299 2.057 . S
O1315 C1303 1.232 . S
H1316 C1335 0.929 . S
H1317 C1336 0.929 . S
H1318 C1348 0.931 . S
H1319 C1340 0.929 . S
H1320 C1349 0.930 . S
H1321 C1341 0.931 . S
O1322 Co1298 2.097 . S
O1322 C1350 1.214 . S
H1323 C1351 0.929 . S
H1324 C1352 0.929 . S
H1325 C1353 0.930 . S
H1326 C1354 0.929 . S
H1327 C1356 0.930 . S
H1328 C1333 0.930 . S
H1329 C1337 0.930 . S
O1330 Co1299 2.037 . S
O1330 C1350 1.234 . S
C1331 O1305 1.269 . S
C1331 O1306 1.257 . S
C1332 H1307 0.930 . S
C1332 C1335 1.388 . S
C1332 C1337 1.418 . S
C1333 H1328 0.930 . S
C1333 C1336 1.404 . S
C1333 C1337 1.353 . S
N1334 Co1299 2.145 . S
N1334 C1335 1.397 . S
N1334 C1336 1.334 . S
C1335 H1316 0.929 . S
C1335 C1332 1.388 . S
C1335 N1334 1.397 . S
C1336 H1317 0.929 . S
C1336 C1333 1.404 . S
C1336 N1334 1.334 . S
C1337 H1329 0.930 . S
C1337 C1332 1.418 . S
C1337 C1333 1.353 . S
C1338 H1308 0.930 . S
C1338 N1339 1.330 . S
C1338 C1340 1.446 . S
N1339 Co1298 2.151 1_554 S
N1339 C1338 1.330 . S
N1339 C1343 1.418 . S
C1340 H1319 0.929 . S
C1340 C1338 1.446 . S
C1340 C1341 1.332 . S
C1341 H1321 0.931 . S
C1341 C1340 1.332 . S
C1341 C1342 1.267 . S
C1342 H1310 0.929 . S
C1342 C1341 1.267 . S
C1342 C1343 1.251 . S
C1343 H1313 0.929 . S
C1343 N1339 1.418 . S
C1343 C1342 1.251 . S
C1344 H1311 0.930 . S
C1344 C1346 1.406 . S
C1344 C1349 1.261 . S
C1345 H1312 0.930 1_554 S
C1345 N1347 1.325 . S
C1345 C1348 1.357 . S
C1346 H1314 0.928 . S
C1346 C1344 1.406 . S
C1346 N1347 1.261 . S
N1347 Co1298 2.214 1_554 S
N1347 C1345 1.325 . S
N1347 C1346 1.261 . S
C1348 H1318 0.931 . S
C1348 C1345 1.357 . S
C1348 C1349 1.312 . S
C1349 H1320 0.930 . S
C1349 C1344 1.261 . S
C1349 C1348 1.312 . S
C1350 O1322 1.214 . S
C1350 O1330 1.234 . S
C1351 H1323 0.929 . S
C1351 C1354 1.391 . S
C1351 C1356 1.391 1_455 S
C1352 H1324 0.929 . S
C1352 C1353 1.390 . S
C1352 N1355 1.391 . S
C1353 H1325 0.930 . S
C1353 C1352 1.390 . S
C1353 C1354 1.392 1_655 S
C1354 H1326 0.929 . S
C1354 C1351 1.391 . S
C1354 C1353 1.392 1_455 S
N1355 Co1299 2.257 . S
N1355 C1352 1.391 . S
N1355 C1356 1.388 . S
C1356 H1327 0.930 . S
C1356 C1351 1.391 1_655 S
C1356 N1355 1.388 . S
Co1357 O1359 2.143 . S
Co1357 O1365 2.074 . S
Co1357 O1368 2.093 1_556 S
Co1357 O1381 2.097 . S
Co1357 N1398 2.151 1_556 S
Co1357 N1406 2.214 1_556 S
Co1358 O1359 2.160 . S
Co1358 O1364 2.058 . S
Co1358 O1374 2.057 . S
Co1358 O1389 2.037 . S
Co1358 N1393 2.145 . S
Co1358 N1414 2.257 . S
O1359 Co1357 2.143 . S
O1359 Co1358 2.160 . S
C1360 O1361 1.278 . S
C1360 O1368 1.224 1_556 S
O1361 C1360 1.278 . S
C1362 O1363 1.245 . S
C1362 O1374 1.232 . S
O1363 C1362 1.245 . S
O1364 Co1358 2.058 . S
O1364 C1390 1.269 . S
O1365 Co1357 2.074 . S
O1365 C1390 1.257 . S
H1366 C1391 0.930 . S
H1367 C1397 0.930 . S
O1368 Co1357 2.093 1_554 S
O1368 C1360 1.224 1_554 S
H1369 C1401 0.929 . S
H1370 C1403 0.930 . S
H1371 C1404 0.930 1_556 S
H1372 C1402 0.929 . S
H1373 C1405 0.928 . S
O1374 Co1358 2.057 . S
O1374 C1362 1.232 . S
H1375 C1394 0.929 . S
H1376 C1395 0.929 . S
H1377 C1407 0.931 . S
H1378 C1399 0.929 . S
H1379 C1408 0.930 . S
H1380 C1400 0.931 . S
O1381 Co1357 2.097 . S
O1381 C1409 1.214 . S
H1382 C1410 0.929 . S
H1383 C1411 0.929 . S
H1384 C1412 0.930 . S
H1385 C1413 0.929 . S
H1386 C1415 0.930 . S
H1387 C1392 0.930 . S
H1388 C1396 0.930 . S
O1389 Co1358 2.037 . S
O1389 C1409 1.234 . S
C1390 O1364 1.269 . S
C1390 O1365 1.257 . S
C1391 H1366 0.930 . S
C1391 C1394 1.388 . S
C1391 C1396 1.418 . S
C1392 H1387 0.930 . S
C1392 C1395 1.404 . S
C1392 C1396 1.353 . S
N1393 Co1358 2.145 . S
N1393 C1394 1.397 . S
N1393 C1395 1.334 . S
C1394 H1375 0.929 . S
C1394 C1391 1.388 . S
C1394 N1393 1.397 . S
C1395 H1376 0.929 . S
C1395 C1392 1.404 . S
C1395 N1393 1.334 . S
C1396 H1388 0.930 . S
C1396 C1391 1.418 . S
C1396 C1392 1.353 . S
C1397 H1367 0.930 . S
C1397 N1398 1.330 . S
C1397 C1399 1.446 . S
N1398 Co1357 2.151 1_554 S
N1398 C1397 1.330 . S
N1398 C1402 1.418 . S
C1399 H1378 0.929 . S
C1399 C1397 1.446 . S
C1399 C1400 1.332 . S
C1400 H1380 0.931 . S
C1400 C1399 1.332 . S
C1400 C1401 1.267 . S
C1401 H1369 0.929 . S
C1401 C1400 1.267 . S
C1401 C1402 1.251 . S
C1402 H1372 0.929 . S
C1402 N1398 1.418 . S
C1402 C1401 1.251 . S
C1403 H1370 0.930 . S
C1403 C1405 1.406 . S
C1403 C1408 1.261 . S
C1404 H1371 0.930 1_554 S
C1404 N1406 1.325 . S
C1404 C1407 1.357 . S
C1405 H1373 0.928 . S
C1405 C1403 1.406 . S
C1405 N1406 1.261 . S
N1406 Co1357 2.214 1_554 S
N1406 C1404 1.325 . S
N1406 C1405 1.261 . S
C1407 H1377 0.931 . S
C1407 C1404 1.357 . S
C1407 C1408 1.312 . S
C1408 H1379 0.930 . S
C1408 C1403 1.261 . S
C1408 C1407 1.312 . S
C1409 O1381 1.214 . S
C1409 O1389 1.234 . S
C1410 H1382 0.929 . S
C1410 C1413 1.391 . S
C1410 C1415 1.391 . S
C1411 H1383 0.929 . S
C1411 C1412 1.390 . S
C1411 N1414 1.391 . S
C1412 H1384 0.930 . S
C1412 C1411 1.390 . S
C1412 C1413 1.392 . S
C1413 H1385 0.929 . S
C1413 C1410 1.391 . S
C1413 C1412 1.392 . S
N1414 Co1358 2.257 . S
N1414 C1411 1.391 . S
N1414 C1415 1.388 . S
C1415 H1386 0.930 . S
C1415 C1410 1.391 . S
C1415 N1414 1.388 . S
Co1416 O1418 2.143 . S
Co1416 O1424 2.074 . S
Co1416 O1427 2.093 . S
Co1416 O1440 2.097 . S
Co1416 N1457 2.151 . S
Co1416 N1465 2.214 . S
Co1417 O1418 2.160 . S
Co1417 O1423 2.058 . S
Co1417 O1433 2.057 . S
Co1417 O1448 2.037 . S
Co1417 N1452 2.145 . S
Co1417 N1473 2.257 . S
O1418 Co1416 2.143 . S
O1418 Co1417 2.160 . S
C1419 O1420 1.278 . S
C1419 O1427 1.224 . S
O1420 C1419 1.278 . S
C1421 O1422 1.245 . S
C1421 O1433 1.232 . S
O1422 C1421 1.245 . S
O1423 Co1417 2.058 . S
O1423 C1449 1.269 . S
O1424 Co1416 2.074 . S
O1424 C1449 1.257 . S
H1425 C1450 0.930 . S
H1426 C1456 0.930 . S
O1427 Co1416 2.093 . S
O1427 C1419 1.224 . S
H1428 C1460 0.929 . S
H1429 C1462 0.930 . S
H1430 C1463 0.930 . S
H1431 C1461 0.929 . S
H1432 C1464 0.928 . S
O1433 Co1417 2.057 . S
O1433 C1421 1.232 . S
H1434 C1453 0.929 . S
H1435 C1454 0.929 . S
H1436 C1466 0.931 . S
H1437 C1458 0.929 . S
H1438 C1467 0.930 . S
H1439 C1459 0.931 . S
O1440 Co1416 2.097 . S
O1440 C1468 1.214 . S
H1441 C1469 0.929 . S
H1442 C1470 0.929 . S
H1443 C1471 0.930 . S
H1444 C1472 0.929 . S
H1445 C1474 0.930 . S
H1446 C1451 0.930 . S
H1447 C1455 0.930 . S
O1448 Co1417 2.037 . S
O1448 C1468 1.234 . S
C1449 O1423 1.269 . S
C1449 O1424 1.257 . S
C1450 H1425 0.930 . S
C1450 C1453 1.388 . S
C1450 C1455 1.418 . S
C1451 H1446 0.930 . S
C1451 C1454 1.404 . S
C1451 C1455 1.353 . S
N1452 Co1417 2.145 . S
N1452 C1453 1.397 . S
N1452 C1454 1.334 . S
C1453 H1434 0.929 . S
C1453 C1450 1.388 . S
C1453 N1452 1.397 . S
C1454 H1435 0.929 . S
C1454 C1451 1.404 . S
C1454 N1452 1.334 . S
C1455 H1447 0.930 . S
C1455 C1450 1.418 . S
C1455 C1451 1.353 . S
C1456 H1426 0.930 . S
C1456 N1457 1.330 . S
C1456 C1458 1.446 . S
N1457 Co1416 2.151 . S
N1457 C1456 1.330 . S
N1457 C1461 1.418 . S
C1458 H1437 0.929 . S
C1458 C1456 1.446 . S
C1458 C1459 1.332 . S
C1459 H1439 0.931 . S
C1459 C1458 1.332 . S
C1459 C1460 1.267 . S
C1460 H1428 0.929 . S
C1460 C1459 1.267 . S
C1460 C1461 1.251 . S
C1461 H1431 0.929 . S
C1461 N1457 1.418 . S
C1461 C1460 1.251 . S
C1462 H1429 0.930 . S
C1462 C1464 1.406 . S
C1462 C1467 1.261 . S
C1463 H1430 0.930 . S
C1463 N1465 1.325 . S
C1463 C1466 1.357 . S
C1464 H1432 0.928 . S
C1464 C1462 1.406 . S
C1464 N1465 1.261 . S
N1465 Co1416 2.214 . S
N1465 C1463 1.325 . S
N1465 C1464 1.261 . S
C1466 H1436 0.931 . S
C1466 C1463 1.357 . S
C1466 C1467 1.312 . S
C1467 H1438 0.930 . S
C1467 C1462 1.261 . S
C1467 C1466 1.312 . S
C1468 O1440 1.214 . S
C1468 O1448 1.234 . S
C1469 H1441 0.929 . S
C1469 C1472 1.391 . S
C1469 C1474 1.391 . S
C1470 H1442 0.929 . S
C1470 C1471 1.390 . S
C1470 N1473 1.391 . S
C1471 H1443 0.930 . S
C1471 C1470 1.390 . S
C1471 C1472 1.392 . S
C1472 H1444 0.929 . S
C1472 C1469 1.391 . S
C1472 C1471 1.392 . S
N1473 Co1417 2.257 . S
N1473 C1470 1.391 . S
N1473 C1474 1.388 . S
C1474 H1445 0.930 . S
C1474 C1469 1.391 . S
C1474 N1473 1.388 . S
Co1475 O1477 2.143 . S
Co1475 O1483 2.074 . S
Co1475 O1486 2.093 . S
Co1475 O1499 2.097 . S
Co1475 N1516 2.151 . S
Co1475 N1524 2.214 . S
Co1476 O1477 2.160 . S
Co1476 O1482 2.058 . S
Co1476 O1492 2.057 . S
Co1476 O1507 2.037 . S
Co1476 N1511 2.145 . S
Co1476 N1532 2.257 . S
O1477 Co1475 2.143 . S
O1477 Co1476 2.160 . S
C1478 O1479 1.278 . S
C1478 O1486 1.224 . S
O1479 C1478 1.278 . S
C1480 O1481 1.245 . S
C1480 O1492 1.232 . S
O1481 C1480 1.245 . S
O1482 Co1476 2.058 . S
O1482 C1508 1.269 . S
O1483 Co1475 2.074 . S
O1483 C1508 1.257 . S
H1484 C1509 0.930 . S
H1485 C1515 0.930 . S
O1486 Co1475 2.093 . S
O1486 C1478 1.224 . S
H1487 C1519 0.929 . S
H1488 C1521 0.930 . S
H1489 C1522 0.930 . S
H1490 C1520 0.929 . S
H1491 C1523 0.928 . S
O1492 Co1476 2.057 . S
O1492 C1480 1.232 . S
H1493 C1512 0.929 . S
H1494 C1513 0.929 . S
H1495 C1525 0.931 . S
H1496 C1517 0.929 1_545 S
H1497 C1526 0.930 . S
H1498 C1518 0.931 1_545 S
O1499 Co1475 2.097 . S
O1499 C1527 1.214 . S
H1500 C1528 0.929 . S
H1501 C1529 0.929 . S
H1502 C1530 0.930 . S
H1503 C1531 0.929 . S
H1504 C1533 0.930 . S
H1505 C1510 0.930 . S
H1506 C1514 0.930 . S
O1507 Co1476 2.037 . S
O1507 C1527 1.234 . S
C1508 O1482 1.269 . S
C1508 O1483 1.257 . S
C1509 H1484 0.930 . S
C1509 C1512 1.388 . S
C1509 C1514 1.418 . S
C1510 H1505 0.930 . S
C1510 C1513 1.404 . S
C1510 C1514 1.353 . S
N1511 Co1476 2.145 . S
N1511 C1512 1.397 . S
N1511 C1513 1.334 . S
C1512 H1493 0.929 . S
C1512 C1509 1.388 . S
C1512 N1511 1.397 . S
C1513 H1494 0.929 . S
C1513 C1510 1.404 . S
C1513 N1511 1.334 . S
C1514 H1506 0.930 . S
C1514 C1509 1.418 . S
C1514 C1510 1.353 . S
C1515 H1485 0.930 . S
C1515 N1516 1.330 . S
C1515 C1517 1.446 . S
N1516 Co1475 2.151 . S
N1516 C1515 1.330 . S
N1516 C1520 1.418 . S
C1517 H1496 0.929 1_565 S
C1517 C1515 1.446 . S
C1517 C1518 1.332 . S
C1518 H1498 0.931 1_565 S
C1518 C1517 1.332 . S
C1518 C1519 1.267 . S
C1519 H1487 0.929 . S
C1519 C1518 1.267 . S
C1519 C1520 1.251 . S
C1520 H1490 0.929 . S
C1520 N1516 1.418 . S
C1520 C1519 1.251 . S
C1521 H1488 0.930 . S
C1521 C1523 1.406 . S
C1521 C1526 1.261 . S
C1522 H1489 0.930 . S
C1522 N1524 1.325 . S
C1522 C1525 1.357 . S
C1523 H1491 0.928 . S
C1523 C1521 1.406 . S
C1523 N1524 1.261 . S
N1524 Co1475 2.214 . S
N1524 C1522 1.325 . S
N1524 C1523 1.261 . S
C1525 H1495 0.931 . S
C1525 C1522 1.357 . S
C1525 C1526 1.312 . S
C1526 H1497 0.930 . S
C1526 C1521 1.261 . S
C1526 C1525 1.312 . S
C1527 O1499 1.214 . S
C1527 O1507 1.234 . S
C1528 H1500 0.929 . S
C1528 C1531 1.391 . S
C1528 C1533 1.391 . S
C1529 H1501 0.929 . S
C1529 C1530 1.390 . S
C1529 N1532 1.391 . S
C1530 H1502 0.930 . S
C1530 C1529 1.390 . S
C1530 C1531 1.392 . S
C1531 H1503 0.929 . S
C1531 C1528 1.391 . S
C1531 C1530 1.392 . S
N1532 Co1476 2.257 . S
N1532 C1529 1.391 . S
N1532 C1533 1.388 . S
C1533 H1504 0.930 . S
C1533 C1528 1.391 . S
C1533 N1532 1.388 . S
Co1534 O1536 2.143 . S
Co1534 O1542 2.074 . S
Co1534 O1545 2.093 . S
Co1534 O1558 2.097 . S
Co1534 N1575 2.151 . S
Co1534 N1583 2.214 . S
Co1535 O1536 2.160 . S
Co1535 O1541 2.058 . S
Co1535 O1551 2.057 . S
Co1535 O1566 2.037 . S
Co1535 N1570 2.145 . S
Co1535 N1591 2.257 . S
O1536 Co1534 2.143 . S
O1536 Co1535 2.160 . S
C1537 O1538 1.278 . S
C1537 O1545 1.224 . S
O1538 C1537 1.278 . S
C1539 O1540 1.245 . S
C1539 O1551 1.232 . S
O1540 C1539 1.245 . S
O1541 Co1535 2.058 . S
O1541 C1567 1.269 . S
O1542 Co1534 2.074 . S
O1542 C1567 1.257 . S
H1543 C1568 0.930 . S
H1544 C1574 0.930 . S
O1545 Co1534 2.093 . S
O1545 C1537 1.224 . S
H1546 C1578 0.929 . S
H1547 C1580 0.930 . S
H1548 C1581 0.930 . S
H1549 C1579 0.929 . S
H1550 C1582 0.928 . S
O1551 Co1535 2.057 . S
O1551 C1539 1.232 . S
H1552 C1571 0.929 . S
H1553 C1572 0.929 . S
H1554 C1584 0.931 . S
H1555 C1576 0.929 1_655 S
H1556 C1585 0.930 . S
H1557 C1577 0.931 1_655 S
O1558 Co1534 2.097 . S
O1558 C1586 1.214 . S
H1559 C1587 0.929 . S
H1560 C1588 0.929 . S
H1561 C1589 0.930 . S
H1562 C1590 0.929 . S
H1563 C1592 0.930 . S
H1564 C1569 0.930 . S
H1565 C1573 0.930 . S
O1566 Co1535 2.037 . S
O1566 C1586 1.234 . S
C1567 O1541 1.269 . S
C1567 O1542 1.257 . S
C1568 H1543 0.930 . S
C1568 C1571 1.388 . S
C1568 C1573 1.418 . S
C1569 H1564 0.930 . S
C1569 C1572 1.404 . S
C1569 C1573 1.353 . S
N1570 Co1535 2.145 . S
N1570 C1571 1.397 . S
N1570 C1572 1.334 . S
C1571 H1552 0.929 . S
C1571 C1568 1.388 . S
C1571 N1570 1.397 . S
C1572 H1553 0.929 . S
C1572 C1569 1.404 . S
C1572 N1570 1.334 . S
C1573 H1565 0.930 . S
C1573 C1568 1.418 . S
C1573 C1569 1.353 . S
C1574 H1544 0.930 . S
C1574 N1575 1.330 . S
C1574 C1576 1.446 . S
N1575 Co1534 2.151 . S
N1575 C1574 1.330 . S
N1575 C1579 1.418 . S
C1576 H1555 0.929 1_455 S
C1576 C1574 1.446 . S
C1576 C1577 1.332 . S
C1577 H1557 0.931 1_455 S
C1577 C1576 1.332 . S
C1577 C1578 1.267 . S
C1578 H1546 0.929 . S
C1578 C1577 1.267 . S
C1578 C1579 1.251 . S
C1579 H1549 0.929 . S
C1579 N1575 1.418 . S
C1579 C1578 1.251 . S
C1580 H1547 0.930 . S
C1580 C1582 1.406 . S
C1580 C1585 1.261 . S
C1581 H1548 0.930 . S
C1581 N1583 1.325 . S
C1581 C1584 1.357 . S
C1582 H1550 0.928 . S
C1582 C1580 1.406 . S
C1582 N1583 1.261 . S
N1583 Co1534 2.214 . S
N1583 C1581 1.325 . S
N1583 C1582 1.261 . S
C1584 H1554 0.931 . S
C1584 C1581 1.357 . S
C1584 C1585 1.312 . S
C1585 H1556 0.930 . S
C1585 C1580 1.261 . S
C1585 C1584 1.312 . S
C1586 O1558 1.214 . S
C1586 O1566 1.234 . S
C1587 H1559 0.929 . S
C1587 C1590 1.391 . S
C1587 C1592 1.391 . S
C1588 H1560 0.929 . S
C1588 C1589 1.390 . S
C1588 N1591 1.391 . S
C1589 H1561 0.930 . S
C1589 C1588 1.390 . S
C1589 C1590 1.392 . S
C1590 H1562 0.929 . S
C1590 C1587 1.391 . S
C1590 C1589 1.392 . S
N1591 Co1535 2.257 . S
N1591 C1588 1.391 . S
N1591 C1592 1.388 . S
C1592 H1563 0.930 . S
C1592 C1587 1.391 . S
C1592 N1591 1.388 . S
Co1593 O1595 2.143 . S
Co1593 O1601 2.074 . S
Co1593 O1604 2.072 1_554 S
Co1593 O1617 2.097 . S
Co1593 N1634 2.151 1_554 S
Co1593 N1642 2.214 1_554 S
Co1594 O1595 2.160 . S
Co1594 O1600 2.058 . S
Co1594 O1610 2.057 . S
Co1594 O1625 2.037 . S
Co1594 N1629 2.145 . S
Co1594 N1650 2.257 . S
O1595 Co1593 2.143 . S
O1595 Co1594 2.160 . S
C1596 O1597 1.278 . S
C1596 O1604 1.204 1_554 S
O1597 C1596 1.278 . S
C1598 O1599 1.245 . S
C1598 O1610 1.232 . S
O1599 C1598 1.245 . S
O1600 Co1594 2.058 . S
O1600 C1626 1.269 . S
O1601 Co1593 2.074 . S
O1601 C1626 1.257 . S
H1602 C1627 0.930 . S
H1603 C1633 0.930 . S
O1604 Co1593 2.072 1_556 S
O1604 C1596 1.204 1_556 S
H1605 C1637 0.929 . S
H1606 C1639 0.930 . S
H1607 C1640 0.930 1_554 S
H1608 C1638 0.929 . S
H1609 C1641 0.928 . S
O1610 Co1594 2.057 . S
O1610 C1598 1.232 . S
H1611 C1630 0.929 . S
H1612 C1631 0.929 . S
H1613 C1643 0.931 . S
H1614 C1635 0.929 . S
H1615 C1644 0.930 . S
H1616 C1636 0.931 . S
O1617 Co1593 2.097 . S
O1617 C1645 1.214 . S
H1618 C1646 0.929 . S
H1619 C1647 0.929 . S
H1620 C1648 0.930 . S
H1621 C1649 0.929 . S
H1622 C1651 0.930 . S
H1623 C1628 0.930 . S
H1624 C1632 0.930 . S
O1625 Co1594 2.037 . S
O1625 C1645 1.234 . S
C1626 O1600 1.269 . S
C1626 O1601 1.257 . S
C1627 H1602 0.930 . S
C1627 C1630 1.388 . S
C1627 C1632 1.418 . S
C1628 H1623 0.930 . S
C1628 C1631 1.404 . S
C1628 C1632 1.353 . S
N1629 Co1594 2.145 . S
N1629 C1630 1.397 . S
N1629 C1631 1.334 . S
C1630 H1611 0.929 . S
C1630 C1627 1.388 . S
C1630 N1629 1.397 . S
C1631 H1612 0.929 . S
C1631 C1628 1.404 . S
C1631 N1629 1.334 . S
C1632 H1624 0.930 . S
C1632 C1627 1.418 . S
C1632 C1628 1.353 . S
C1633 H1603 0.930 . S
C1633 N1634 1.330 . S
C1633 C1635 1.446 . S
N1634 Co1593 2.151 1_556 S
N1634 C1633 1.330 . S
N1634 C1638 1.418 . S
C1635 H1614 0.929 . S
C1635 C1633 1.446 . S
C1635 C1636 1.332 . S
C1636 H1616 0.931 . S
C1636 C1635 1.332 . S
C1636 C1637 1.267 . S
C1637 H1605 0.929 . S
C1637 C1636 1.267 . S
C1637 C1638 1.251 . S
C1638 H1608 0.929 . S
C1638 N1634 1.418 . S
C1638 C1637 1.251 . S
C1639 H1606 0.930 . S
C1639 C1641 1.406 . S
C1639 C1644 1.261 . S
C1640 H1607 0.930 1_556 S
C1640 N1642 1.325 . S
C1640 C1643 1.357 . S
C1641 H1609 0.928 . S
C1641 C1639 1.406 . S
C1641 N1642 1.261 . S
N1642 Co1593 2.214 1_556 S
N1642 C1640 1.325 . S
N1642 C1641 1.261 . S
C1643 H1613 0.931 . S
C1643 C1640 1.357 . S
C1643 C1644 1.312 . S
C1644 H1615 0.930 . S
C1644 C1639 1.261 . S
C1644 C1643 1.312 . S
C1645 O1617 1.214 . S
C1645 O1625 1.234 . S
C1646 H1618 0.929 . S
C1646 C1649 1.391 . S
C1646 C1651 1.391 1_545 S
C1647 H1619 0.929 . S
C1647 C1648 1.390 . S
C1647 N1650 1.391 . S
C1648 H1620 0.930 . S
C1648 C1647 1.390 . S
C1648 C1649 1.392 1_565 S
C1649 H1621 0.929 . S
C1649 C1646 1.391 . S
C1649 C1648 1.392 1_545 S
N1650 Co1594 2.257 . S
N1650 C1647 1.391 . S
N1650 C1651 1.388 . S
C1651 H1622 0.930 . S
C1651 C1646 1.391 1_565 S
C1651 N1650 1.388 . S
Co1652 O1654 2.143 . S
Co1652 O1660 2.074 . S
Co1652 O1663 2.093 1_554 S
Co1652 O1676 2.097 . S
Co1652 N1693 2.151 1_554 S
Co1652 N1701 2.214 1_554 S
Co1653 O1654 2.160 . S
Co1653 O1659 2.058 . S
Co1653 O1669 2.057 . S
Co1653 O1684 2.037 . S
Co1653 N1688 2.145 . S
Co1653 N1709 2.257 . S
O1654 Co1652 2.143 . S
O1654 Co1653 2.160 . S
C1655 O1656 1.278 . S
C1655 O1663 1.224 1_554 S
O1656 C1655 1.278 . S
C1657 O1658 1.245 . S
C1657 O1669 1.232 . S
O1658 C1657 1.245 . S
O1659 Co1653 2.058 . S
O1659 C1685 1.269 . S
O1660 Co1652 2.074 . S
O1660 C1685 1.257 . S
H1661 C1686 0.930 . S
H1662 C1692 0.930 . S
O1663 Co1652 2.093 1_556 S
O1663 C1655 1.224 1_556 S
H1664 C1696 0.929 . S
H1665 C1698 0.930 . S
H1666 C1699 0.930 1_554 S
H1667 C1697 0.929 . S
H1668 C1700 0.928 . S
O1669 Co1653 2.057 . S
O1669 C1657 1.232 . S
H1670 C1689 0.929 . S
H1671 C1690 0.929 . S
H1672 C1702 0.931 . S
H1673 C1694 0.929 . S
H1674 C1703 0.930 . S
H1675 C1695 0.931 . S
O1676 Co1652 2.097 . S
O1676 C1704 1.214 . S
H1677 C1705 0.929 . S
H1678 C1706 0.929 . S
H1679 C1707 0.930 . S
H1680 C1708 0.929 . S
H1681 C1710 0.930 . S
H1682 C1687 0.930 . S
H1683 C1691 0.930 . S
O1684 Co1653 2.037 . S
O1684 C1704 1.234 . S
C1685 O1659 1.269 . S
C1685 O1660 1.257 . S
C1686 H1661 0.930 . S
C1686 C1689 1.388 . S
C1686 C1691 1.418 . S
C1687 H1682 0.930 . S
C1687 C1690 1.404 . S
C1687 C1691 1.353 . S
N1688 Co1653 2.145 . S
N1688 C1689 1.397 . S
N1688 C1690 1.334 . S
C1689 H1670 0.929 . S
C1689 C1686 1.388 . S
C1689 N1688 1.397 . S
C1690 H1671 0.929 . S
C1690 C1687 1.404 . S
C1690 N1688 1.334 . S
C1691 H1683 0.930 . S
C1691 C1686 1.418 . S
C1691 C1687 1.353 . S
C1692 H1662 0.930 . S
C1692 N1693 1.330 . S
C1692 C1694 1.446 . S
N1693 Co1652 2.151 1_556 S
N1693 C1692 1.330 . S
N1693 C1697 1.418 . S
C1694 H1673 0.929 . S
C1694 C1692 1.446 . S
C1694 C1695 1.332 . S
C1695 H1675 0.931 . S
C1695 C1694 1.332 . S
C1695 C1696 1.267 . S
C1696 H1664 0.929 . S
C1696 C1695 1.267 . S
C1696 C1697 1.251 . S
C1697 H1667 0.929 . S
C1697 N1693 1.418 . S
C1697 C1696 1.251 . S
C1698 H1665 0.930 . S
C1698 C1700 1.406 . S
C1698 C1703 1.261 . S
C1699 H1666 0.930 1_556 S
C1699 N1701 1.325 . S
C1699 C1702 1.357 . S
C1700 H1668 0.928 . S
C1700 C1698 1.406 . S
C1700 N1701 1.261 . S
N1701 Co1652 2.214 1_556 S
N1701 C1699 1.325 . S
N1701 C1700 1.261 . S
C1702 H1672 0.931 . S
C1702 C1699 1.357 . S
C1702 C1703 1.312 . S
C1703 H1674 0.930 . S
C1703 C1698 1.261 . S
C1703 C1702 1.312 . S
C1704 O1676 1.214 . S
C1704 O1684 1.234 . S
C1705 H1677 0.929 . S
C1705 C1708 1.391 . S
C1705 C1710 1.391 1_655 S
C1706 H1678 0.929 . S
C1706 C1707 1.390 . S
C1706 N1709 1.391 . S
C1707 H1679 0.930 . S
C1707 C1706 1.390 . S
C1707 C1708 1.392 1_455 S
C1708 H1680 0.929 . S
C1708 C1705 1.391 . S
C1708 C1707 1.392 1_655 S
N1709 Co1653 2.257 . S
N1709 C1706 1.391 . S
N1709 C1710 1.388 . S
C1710 H1681 0.930 . S
C1710 C1705 1.391 1_455 S
C1710 N1709 1.388 . S
Co1711 O1713 2.143 . S
Co1711 O1719 2.074 . S
Co1711 O1722 2.093 1_554 S
Co1711 O1735 2.097 . S
Co1711 N1752 2.151 1_554 S
Co1711 N1760 2.214 1_554 S
Co1712 O1713 2.160 . S
Co1712 O1718 2.058 . S
Co1712 O1728 2.057 . S
Co1712 O1743 2.037 . S
Co1712 N1747 2.145 . S
Co1712 N1768 2.257 . S
O1713 Co1711 2.143 . S
O1713 Co1712 2.160 . S
C1714 O1715 1.278 . S
C1714 O1722 1.224 1_554 S
O1715 C1714 1.278 . S
C1716 O1717 1.245 . S
C1716 O1728 1.232 . S
O1717 C1716 1.245 . S
O1718 Co1712 2.058 . S
O1718 C1744 1.269 . S
O1719 Co1711 2.074 . S
O1719 C1744 1.257 . S
H1720 C1745 0.930 . S
H1721 C1751 0.930 . S
O1722 Co1711 2.093 1_556 S
O1722 C1714 1.224 1_556 S
H1723 C1755 0.929 . S
H1724 C1757 0.930 . S
H1725 C1758 0.930 1_554 S
H1726 C1756 0.929 . S
H1727 C1759 0.928 . S
O1728 Co1712 2.057 . S
O1728 C1716 1.232 . S
H1729 C1748 0.929 . S
H1730 C1749 0.929 . S
H1731 C1761 0.931 . S
H1732 C1753 0.929 . S
H1733 C1762 0.930 . S
H1734 C1754 0.931 . S
O1735 Co1711 2.097 . S
O1735 C1763 1.214 . S
H1736 C1764 0.929 . S
H1737 C1765 0.929 . S
H1738 C1766 0.930 . S
H1739 C1767 0.929 . S
H1740 C1769 0.930 . S
H1741 C1746 0.930 . S
H1742 C1750 0.930 . S
O1743 Co1712 2.037 . S
O1743 C1763 1.234 . S
C1744 O1718 1.269 . S
C1744 O1719 1.257 . S
C1745 H1720 0.930 . S
C1745 C1748 1.388 . S
C1745 C1750 1.418 . S
C1746 H1741 0.930 . S
C1746 C1749 1.404 . S
C1746 C1750 1.353 . S
N1747 Co1712 2.145 . S
N1747 C1748 1.397 . S
N1747 C1749 1.334 . S
C1748 H1729 0.929 . S
C1748 C1745 1.388 . S
C1748 N1747 1.397 . S
C1749 H1730 0.929 . S
C1749 C1746 1.404 . S
C1749 N1747 1.334 . S
C1750 H1742 0.930 . S
C1750 C1745 1.418 . S
C1750 C1746 1.353 . S
C1751 H1721 0.930 . S
C1751 N1752 1.330 . S
C1751 C1753 1.446 . S
N1752 Co1711 2.151 1_556 S
N1752 C1751 1.330 . S
N1752 C1756 1.418 . S
C1753 H1732 0.929 . S
C1753 C1751 1.446 . S
C1753 C1754 1.332 . S
C1754 H1734 0.931 . S
C1754 C1753 1.332 . S
C1754 C1755 1.267 . S
C1755 H1723 0.929 . S
C1755 C1754 1.267 . S
C1755 C1756 1.251 . S
C1756 H1726 0.929 . S
C1756 N1752 1.418 . S
C1756 C1755 1.251 . S
C1757 H1724 0.930 . S
C1757 C1759 1.406 . S
C1757 C1762 1.261 . S
C1758 H1725 0.930 1_556 S
C1758 N1760 1.325 . S
C1758 C1761 1.357 . S
C1759 H1727 0.928 . S
C1759 C1757 1.406 . S
C1759 N1760 1.261 . S
N1760 Co1711 2.214 1_556 S
N1760 C1758 1.325 . S
N1760 C1759 1.261 . S
C1761 H1731 0.931 . S
C1761 C1758 1.357 . S
C1761 C1762 1.312 . S
C1762 H1733 0.930 . S
C1762 C1757 1.261 . S
C1762 C1761 1.312 . S
C1763 O1735 1.214 . S
C1763 O1743 1.234 . S
C1764 H1736 0.929 . S
C1764 C1767 1.391 . S
C1764 C1769 1.391 . S
C1765 H1737 0.929 . S
C1765 C1766 1.390 . S
C1765 N1768 1.391 . S
C1766 H1738 0.930 . S
C1766 C1765 1.390 . S
C1766 C1767 1.392 . S
C1767 H1739 0.929 . S
C1767 C1764 1.391 . S
C1767 C1766 1.392 . S
N1768 Co1712 2.257 . S
N1768 C1765 1.391 . S
N1768 C1769 1.388 . S
C1769 H1740 0.930 . S
C1769 C1764 1.391 . S
C1769 N1768 1.388 . S
Co1770 O1772 2.143 . S
Co1770 O1778 2.074 . S
Co1770 O1781 2.093 . S
Co1770 O1794 2.097 . S
Co1770 N1811 2.151 . S
Co1770 N1819 2.214 . S
Co1771 O1772 2.160 . S
Co1771 O1777 2.058 . S
Co1771 O1787 2.057 . S
Co1771 O1802 2.037 . S
Co1771 N1806 2.145 . S
Co1771 N1827 2.257 . S
O1772 Co1770 2.143 . S
O1772 Co1771 2.160 . S
C1773 O1774 1.278 . S
C1773 O1781 1.224 . S
O1774 C1773 1.278 . S
C1775 O1776 1.245 . S
C1775 O1787 1.232 . S
O1776 C1775 1.245 . S
O1777 Co1771 2.058 . S
O1777 C1803 1.269 . S
O1778 Co1770 2.074 . S
O1778 C1803 1.257 . S
H1779 C1804 0.930 . S
H1780 C1810 0.930 . S
O1781 Co1770 2.093 . S
O1781 C1773 1.224 . S
H1782 C1814 0.929 . S
H1783 C1816 0.930 . S
H1784 C1817 0.930 . S
H1785 C1815 0.929 . S
H1786 C1818 0.928 . S
O1787 Co1771 2.057 . S
O1787 C1775 1.232 . S
H1788 C1807 0.929 . S
H1789 C1808 0.929 . S
H1790 C1820 0.931 . S
H1791 C1812 0.929 . S
H1792 C1821 0.930 . S
H1793 C1813 0.931 . S
O1794 Co1770 2.097 . S
O1794 C1822 1.214 . S
H1795 C1823 0.929 . S
H1796 C1824 0.929 . S
H1797 C1825 0.930 . S
H1798 C1826 0.929 . S
H1799 C1828 0.930 . S
H1800 C1805 0.930 . S
H1801 C1809 0.930 . S
O1802 Co1771 2.037 . S
O1802 C1822 1.234 . S
C1803 O1777 1.269 . S
C1803 O1778 1.257 . S
C1804 H1779 0.930 . S
C1804 C1807 1.388 . S
C1804 C1809 1.418 . S
C1805 H1800 0.930 . S
C1805 C1808 1.404 . S
C1805 C1809 1.353 . S
N1806 Co1771 2.145 . S
N1806 C1807 1.397 . S
N1806 C1808 1.334 . S
C1807 H1788 0.929 . S
C1807 C1804 1.388 . S
C1807 N1806 1.397 . S
C1808 H1789 0.929 . S
C1808 C1805 1.404 . S
C1808 N1806 1.334 . S
C1809 H1801 0.930 . S
C1809 C1804 1.418 . S
C1809 C1805 1.353 . S
C1810 H1780 0.930 . S
C1810 N1811 1.330 . S
C1810 C1812 1.446 . S
N1811 Co1770 2.151 . S
N1811 C1810 1.330 . S
N1811 C1815 1.418 . S
C1812 H1791 0.929 . S
C1812 C1810 1.446 . S
C1812 C1813 1.332 . S
C1813 H1793 0.931 . S
C1813 C1812 1.332 . S
C1813 C1814 1.267 . S
C1814 H1782 0.929 . S
C1814 C1813 1.267 . S
C1814 C1815 1.251 . S
C1815 H1785 0.929 . S
C1815 N1811 1.418 . S
C1815 C1814 1.251 . S
C1816 H1783 0.930 . S
C1816 C1818 1.406 . S
C1816 C1821 1.261 . S
C1817 H1784 0.930 . S
C1817 N1819 1.325 . S
C1817 C1820 1.357 . S
C1818 H1786 0.928 . S
C1818 C1816 1.406 . S
C1818 N1819 1.261 . S
N1819 Co1770 2.214 . S
N1819 C1817 1.325 . S
N1819 C1818 1.261 . S
C1820 H1790 0.931 . S
C1820 C1817 1.357 . S
C1820 C1821 1.312 . S
C1821 H1792 0.930 . S
C1821 C1816 1.261 . S
C1821 C1820 1.312 . S
C1822 O1794 1.214 . S
C1822 O1802 1.234 . S
C1823 H1795 0.929 . S
C1823 C1826 1.391 . S
C1823 C1828 1.391 1_655 S
C1824 H1796 0.929 . S
C1824 C1825 1.390 . S
C1824 N1827 1.391 . S
C1825 H1797 0.930 . S
C1825 C1824 1.390 . S
C1825 C1826 1.392 1_455 S
C1826 H1798 0.929 . S
C1826 C1823 1.391 . S
C1826 C1825 1.392 1_655 S
N1827 Co1771 2.257 . S
N1827 C1824 1.391 . S
N1827 C1828 1.388 . S
C1828 H1799 0.930 . S
C1828 C1823 1.391 1_455 S
C1828 N1827 1.388 . S
Co1829 O1831 2.143 . S
Co1829 O1837 2.074 . S
Co1829 O1840 2.093 . S
Co1829 O1853 2.097 . S
Co1829 N1870 2.151 . S
Co1829 N1878 2.214 . S
Co1830 O1831 2.160 . S
Co1830 O1836 2.058 . S
Co1830 O1846 2.057 . S
Co1830 O1861 2.037 . S
Co1830 N1865 2.145 . S
Co1830 N1886 2.257 . S
O1831 Co1829 2.143 . S
O1831 Co1830 2.160 . S
C1832 O1833 1.278 . S
C1832 O1840 1.224 . S
O1833 C1832 1.278 . S
C1834 O1835 1.245 . S
C1834 O1846 1.232 . S
O1835 C1834 1.245 . S
O1836 Co1830 2.058 . S
O1836 C1862 1.269 . S
O1837 Co1829 2.074 . S
O1837 C1862 1.257 . S
H1838 C1863 0.930 . S
H1839 C1869 0.930 . S
O1840 Co1829 2.093 . S
O1840 C1832 1.224 . S
H1841 C1873 0.929 . S
H1842 C1875 0.930 . S
H1843 C1876 0.930 . S
H1844 C1874 0.929 . S
H1845 C1877 0.928 . S
O1846 Co1830 2.057 . S
O1846 C1834 1.232 . S
H1847 C1866 0.929 . S
H1848 C1867 0.929 . S
H1849 C1879 0.931 . S
H1850 C1871 0.929 . S
H1851 C1880 0.930 . S
H1852 C1872 0.931 . S
O1853 Co1829 2.097 . S
O1853 C1881 1.214 . S
H1854 C1882 0.929 . S
H1855 C1883 0.929 . S
H1856 C1884 0.930 . S
H1857 C1885 0.929 . S
H1858 C1887 0.930 . S
H1859 C1864 0.930 . S
H1860 C1868 0.930 . S
O1861 Co1830 2.037 . S
O1861 C1881 1.234 . S
C1862 O1836 1.269 . S
C1862 O1837 1.257 . S
C1863 H1838 0.930 . S
C1863 C1866 1.388 . S
C1863 C1868 1.418 . S
C1864 H1859 0.930 . S
C1864 C1867 1.404 . S
C1864 C1868 1.353 . S
N1865 Co1830 2.145 . S
N1865 C1866 1.397 . S
N1865 C1867 1.334 . S
C1866 H1847 0.929 . S
C1866 C1863 1.388 . S
C1866 N1865 1.397 . S
C1867 H1848 0.929 . S
C1867 C1864 1.404 . S
C1867 N1865 1.334 . S
C1868 H1860 0.930 . S
C1868 C1863 1.418 . S
C1868 C1864 1.353 . S
C1869 H1839 0.930 . S
C1869 N1870 1.330 . S
C1869 C1871 1.446 . S
N1870 Co1829 2.151 . S
N1870 C1869 1.330 . S
N1870 C1874 1.418 . S
C1871 H1850 0.929 . S
C1871 C1869 1.446 . S
C1871 C1872 1.332 . S
C1872 H1852 0.931 . S
C1872 C1871 1.332 . S
C1872 C1873 1.267 . S
C1873 H1841 0.929 . S
C1873 C1872 1.267 . S
C1873 C1874 1.251 . S
C1874 H1844 0.929 . S
C1874 N1870 1.418 . S
C1874 C1873 1.251 . S
C1875 H1842 0.930 . S
C1875 C1877 1.406 . S
C1875 C1880 1.261 . S
C1876 H1843 0.930 . S
C1876 N1878 1.325 . S
C1876 C1879 1.357 . S
C1877 H1845 0.928 . S
C1877 C1875 1.406 . S
C1877 N1878 1.261 . S
N1878 Co1829 2.214 . S
N1878 C1876 1.325 . S
N1878 C1877 1.261 . S
C1879 H1849 0.931 . S
C1879 C1876 1.357 . S
C1879 C1880 1.312 . S
C1880 H1851 0.930 . S
C1880 C1875 1.261 . S
C1880 C1879 1.312 . S
C1881 O1853 1.214 . S
C1881 O1861 1.234 . S
C1882 H1854 0.929 . S
C1882 C1885 1.391 . S
C1882 C1887 1.391 . S
C1883 H1855 0.929 . S
C1883 C1884 1.390 . S
C1883 N1886 1.391 . S
C1884 H1856 0.930 . S
C1884 C1883 1.390 . S
C1884 C1885 1.392 . S
C1885 H1857 0.929 . S
C1885 C1882 1.391 . S
C1885 C1884 1.392 . S
N1886 Co1830 2.257 . S
N1886 C1883 1.391 . S
N1886 C1887 1.388 . S
C1887 H1858 0.930 . S
C1887 C1882 1.391 . S
C1887 N1886 1.388 . S
Co1888 O1890 2.143 . S
Co1888 O1896 2.074 . S
Co1888 O1899 2.093 . S
Co1888 O1912 2.097 . S
Co1888 N1929 2.151 . S
Co1888 N1937 2.214 . S
Co1889 O1890 2.160 . S
Co1889 O1895 2.058 . S
Co1889 O1905 2.057 . S
Co1889 O1920 2.037 . S
Co1889 N1924 2.145 . S
Co1889 N1945 2.257 . S
O1890 Co1888 2.143 . S
O1890 Co1889 2.160 . S
C1891 O1892 1.278 . S
C1891 O1899 1.224 . S
O1892 C1891 1.278 . S
C1893 O1894 1.245 . S
C1893 O1905 1.232 . S
O1894 C1893 1.245 . S
O1895 Co1889 2.058 . S
O1895 C1921 1.269 . S
O1896 Co1888 2.074 . S
O1896 C1921 1.257 . S
H1897 C1922 0.930 . S
H1898 C1928 0.930 . S
O1899 Co1888 2.093 . S
O1899 C1891 1.224 . S
H1900 C1932 0.929 . S
H1901 C1934 0.930 . S
H1902 C1935 0.930 . S
H1903 C1933 0.929 . S
H1904 C1936 0.928 . S
O1905 Co1889 2.057 . S
O1905 C1893 1.232 . S
H1906 C1925 0.929 . S
H1907 C1926 0.929 . S
H1908 C1938 0.931 . S
H1909 C1930 0.929 . S
H1910 C1939 0.930 . S
H1911 C1931 0.931 . S
O1912 Co1888 2.097 . S
O1912 C1940 1.214 . S
H1913 C1941 0.929 . S
H1914 C1942 0.929 . S
H1915 C1943 0.930 . S
H1916 C1944 0.929 . S
H1917 C1946 0.930 . S
H1918 C1923 0.930 . S
H1919 C1927 0.930 . S
O1920 Co1889 2.037 . S
O1920 C1940 1.234 . S
C1921 O1895 1.269 . S
C1921 O1896 1.257 . S
C1922 H1897 0.930 . S
C1922 C1925 1.388 . S
C1922 C1927 1.418 . S
C1923 H1918 0.930 . S
C1923 C1926 1.404 . S
C1923 C1927 1.353 . S
N1924 Co1889 2.145 . S
N1924 C1925 1.397 . S
N1924 C1926 1.334 . S
C1925 H1906 0.929 . S
C1925 C1922 1.388 . S
C1925 N1924 1.397 . S
C1926 H1907 0.929 . S
C1926 C1923 1.404 . S
C1926 N1924 1.334 . S
C1927 H1919 0.930 . S
C1927 C1922 1.418 . S
C1927 C1923 1.353 . S
C1928 H1898 0.930 . S
C1928 N1929 1.330 . S
C1928 C1930 1.446 . S
N1929 Co1888 2.151 . S
N1929 C1928 1.330 . S
N1929 C1933 1.418 . S
C1930 H1909 0.929 . S
C1930 C1928 1.446 . S
C1930 C1931 1.332 . S
C1931 H1911 0.931 . S
C1931 C1930 1.332 . S
C1931 C1932 1.267 . S
C1932 H1900 0.929 . S
C1932 C1931 1.267 . S
C1932 C1933 1.251 . S
C1933 H1903 0.929 . S
C1933 N1929 1.418 . S
C1933 C1932 1.251 . S
C1934 H1901 0.930 . S
C1934 C1936 1.406 . S
C1934 C1939 1.261 . S
C1935 H1902 0.930 . S
C1935 N1937 1.325 . S
C1935 C1938 1.357 . S
C1936 H1904 0.928 . S
C1936 C1934 1.406 . S
C1936 N1937 1.261 . S
N1937 Co1888 2.214 . S
N1937 C1935 1.325 . S
N1937 C1936 1.261 . S
C1938 H1908 0.931 . S
C1938 C1935 1.357 . S
C1938 C1939 1.312 . S
C1939 H1910 0.930 . S
C1939 C1934 1.261 . S
C1939 C1938 1.312 . S
C1940 O1912 1.214 . S
C1940 O1920 1.234 . S
C1941 H1913 0.929 . S
C1941 C1944 1.391 . S
C1941 C1946 1.391 1_545 S
C1942 H1914 0.929 . S
C1942 C1943 1.390 . S
C1942 N1945 1.391 . S
C1943 H1915 0.930 . S
C1943 C1942 1.390 . S
C1943 C1944 1.392 1_565 S
C1944 H1916 0.929 . S
C1944 C1941 1.391 . S
C1944 C1943 1.392 1_545 S
N1945 Co1889 2.257 . S
N1945 C1942 1.391 . S
N1945 C1946 1.388 . S
C1946 H1917 0.930 . S
C1946 C1941 1.391 1_565 S
C1946 N1945 1.388 . S
Co1947 O1949 2.143 . S
Co1947 O1955 2.074 . S
Co1947 O1958 2.093 . S
Co1947 O1971 2.097 . S
Co1947 N1988 2.151 . S
Co1947 N1996 2.214 . S
Co1948 O1949 2.160 . S
Co1948 O1954 2.058 . S
Co1948 O1964 2.057 . S
Co1948 O1979 2.037 . S
Co1948 N1983 2.145 . S
Co1948 N2004 2.257 . S
O1949 Co1947 2.143 . S
O1949 Co1948 2.160 . S
C1950 O1951 1.278 . S
C1950 O1958 1.224 . S
O1951 C1950 1.278 . S
C1952 O1953 1.245 . S
C1952 O1964 1.232 . S
O1953 C1952 1.245 . S
O1954 Co1948 2.058 . S
O1954 C1980 1.269 . S
O1955 Co1947 2.074 . S
O1955 C1980 1.257 . S
H1956 C1981 0.930 . S
H1957 C1987 0.930 . S
O1958 Co1947 2.093 . S
O1958 C1950 1.224 . S
H1959 C1991 0.929 . S
H1960 C1993 0.930 . S
H1961 C1994 0.930 . S
H1962 C1992 0.929 . S
H1963 C1995 0.928 . S
O1964 Co1948 2.057 . S
O1964 C1952 1.232 . S
H1965 C1984 0.929 . S
H1966 C1985 0.929 . S
H1967 C1997 0.931 . S
H1968 C1989 0.929 . S
H1969 C1998 0.930 . S
H1970 C1990 0.931 . S
O1971 Co1947 2.097 . S
O1971 C1999 1.214 . S
H1972 C2000 0.929 . S
H1973 C2001 0.929 . S
H1974 C2002 0.930 . S
H1975 C2003 0.929 . S
H1976 C2005 0.930 . S
H1977 C1982 0.930 . S
H1978 C1986 0.930 . S
O1979 Co1948 2.037 . S
O1979 C1999 1.234 . S
C1980 O1954 1.269 . S
C1980 O1955 1.257 . S
C1981 H1956 0.930 . S
C1981 C1984 1.388 . S
C1981 C1986 1.418 . S
C1982 H1977 0.930 . S
C1982 C1985 1.404 . S
C1982 C1986 1.353 . S
N1983 Co1948 2.145 . S
N1983 C1984 1.397 . S
N1983 C1985 1.334 . S
C1984 H1965 0.929 . S
C1984 C1981 1.388 . S
C1984 N1983 1.397 . S
C1985 H1966 0.929 . S
C1985 C1982 1.404 . S
C1985 N1983 1.334 . S
C1986 H1978 0.930 . S
C1986 C1981 1.418 . S
C1986 C1982 1.353 . S
C1987 H1957 0.930 . S
C1987 N1988 1.330 . S
C1987 C1989 1.446 . S
N1988 Co1947 2.151 . S
N1988 C1987 1.330 . S
N1988 C1992 1.418 . S
C1989 H1968 0.929 . S
C1989 C1987 1.446 . S
C1989 C1990 1.332 . S
C1990 H1970 0.931 . S
C1990 C1989 1.332 . S
C1990 C1991 1.267 . S
C1991 H1959 0.929 . S
C1991 C1990 1.267 . S
C1991 C1992 1.251 . S
C1992 H1962 0.929 . S
C1992 N1988 1.418 . S
C1992 C1991 1.251 . S
C1993 H1960 0.930 . S
C1993 C1995 1.406 . S
C1993 C1998 1.261 . S
C1994 H1961 0.930 . S
C1994 N1996 1.325 . S
C1994 C1997 1.357 . S
C1995 H1963 0.928 . S
C1995 C1993 1.406 . S
C1995 N1996 1.261 . S
N1996 Co1947 2.214 . S
N1996 C1994 1.325 . S
N1996 C1995 1.261 . S
C1997 H1967 0.931 . S
C1997 C1994 1.357 . S
C1997 C1998 1.312 . S
C1998 H1969 0.930 . S
C1998 C1993 1.261 . S
C1998 C1997 1.312 . S
C1999 O1971 1.214 . S
C1999 O1979 1.234 . S
C2000 H1972 0.929 . S
C2000 C2003 1.391 . S
C2000 C2005 1.391 . S
C2001 H1973 0.929 . S
C2001 C2002 1.390 . S
C2001 N2004 1.391 . S
C2002 H1974 0.930 . S
C2002 C2001 1.390 . S
C2002 C2003 1.392 . S
C2003 H1975 0.929 . S
C2003 C2000 1.391 . S
C2003 C2002 1.392 . S
N2004 Co1948 2.257 . S
N2004 C2001 1.391 . S
N2004 C2005 1.388 . S
C2005 H1976 0.930 . S
C2005 C2000 1.391 . S
C2005 N2004 1.388 . S
Co2006 O2008 2.143 . S
Co2006 O2014 2.074 . S
Co2006 O2017 2.093 . S
Co2006 O2030 2.097 . S
Co2006 N2047 2.151 . S
Co2006 N2055 2.214 . S
Co2007 O2008 2.160 . S
Co2007 O2013 2.058 . S
Co2007 O2023 2.057 . S
Co2007 O2038 2.037 . S
Co2007 N2042 2.145 . S
Co2007 N2063 2.257 . S
O2008 Co2006 2.143 . S
O2008 Co2007 2.160 . S
C2009 O2010 1.278 . S
C2009 O2017 1.224 . S
O2010 C2009 1.278 . S
C2011 O2012 1.245 . S
C2011 O2023 1.232 . S
O2012 C2011 1.245 . S
O2013 Co2007 2.058 . S
O2013 C2039 1.269 . S
O2014 Co2006 2.074 . S
O2014 C2039 1.257 . S
H2015 C2040 0.930 . S
H2016 C2046 0.930 . S
O2017 Co2006 2.093 . S
O2017 C2009 1.224 . S
H2018 C2050 0.929 . S
H2019 C2052 0.930 . S
H2020 C2053 0.930 . S
H2021 C2051 0.929 . S
H2022 C2054 0.928 . S
O2023 Co2007 2.057 . S
O2023 C2011 1.232 . S
H2024 C2043 0.929 . S
H2025 C2044 0.929 . S
H2026 C2056 0.931 . S
H2027 C2048 0.929 1_545 S
H2028 C2057 0.930 . S
H2029 C2049 0.931 1_545 S
O2030 Co2006 2.097 . S
O2030 C2058 1.214 . S
H2031 C2059 0.929 . S
H2032 C2060 0.929 . S
H2033 C2061 0.930 . S
H2034 C2062 0.929 . S
H2035 C2064 0.930 . S
H2036 C2041 0.930 . S
H2037 C2045 0.930 . S
O2038 Co2007 2.037 . S
O2038 C2058 1.234 . S
C2039 O2013 1.269 . S
C2039 O2014 1.257 . S
C2040 H2015 0.930 . S
C2040 C2043 1.388 . S
C2040 C2045 1.418 . S
C2041 H2036 0.930 . S
C2041 C2044 1.404 . S
C2041 C2045 1.353 . S
N2042 Co2007 2.145 . S
N2042 C2043 1.397 . S
N2042 C2044 1.334 . S
C2043 H2024 0.929 . S
C2043 C2040 1.388 . S
C2043 N2042 1.397 . S
C2044 H2025 0.929 . S
C2044 C2041 1.404 . S
C2044 N2042 1.334 . S
C2045 H2037 0.930 . S
C2045 C2040 1.418 . S
C2045 C2041 1.353 . S
C2046 H2016 0.930 . S
C2046 N2047 1.330 . S
C2046 C2048 1.446 . S
N2047 Co2006 2.151 . S
N2047 C2046 1.330 . S
N2047 C2051 1.418 . S
C2048 H2027 0.929 1_565 S
C2048 C2046 1.446 . S
C2048 C2049 1.332 . S
C2049 H2029 0.931 1_565 S
C2049 C2048 1.332 . S
C2049 C2050 1.267 . S
C2050 H2018 0.929 . S
C2050 C2049 1.267 . S
C2050 C2051 1.251 . S
C2051 H2021 0.929 . S
C2051 N2047 1.418 . S
C2051 C2050 1.251 . S
C2052 H2019 0.930 . S
C2052 C2054 1.406 . S
C2052 C2057 1.261 . S
C2053 H2020 0.930 . S
C2053 N2055 1.325 . S
C2053 C2056 1.357 . S
C2054 H2022 0.928 . S
C2054 C2052 1.406 . S
C2054 N2055 1.261 . S
N2055 Co2006 2.214 . S
N2055 C2053 1.325 . S
N2055 C2054 1.261 . S
C2056 H2026 0.931 . S
C2056 C2053 1.357 . S
C2056 C2057 1.312 . S
C2057 H2028 0.930 . S
C2057 C2052 1.261 . S
C2057 C2056 1.312 . S
C2058 O2030 1.214 . S
C2058 O2038 1.234 . S
C2059 H2031 0.929 . S
C2059 C2062 1.391 . S
C2059 C2064 1.391 . S
C2060 H2032 0.929 . S
C2060 C2061 1.390 . S
C2060 N2063 1.391 . S
C2061 H2033 0.930 . S
C2061 C2060 1.390 . S
C2061 C2062 1.392 . S
C2062 H2034 0.929 . S
C2062 C2059 1.391 . S
C2062 C2061 1.392 . S
N2063 Co2007 2.257 . S
N2063 C2060 1.391 . S
N2063 C2064 1.388 . S
C2064 H2035 0.930 . S
C2064 C2059 1.391 . S
C2064 N2063 1.388 . S
Co2065 O2067 2.143 . S
Co2065 O2073 2.074 . S
Co2065 O2076 2.093 . S
Co2065 O2089 2.097 . S
Co2065 N2106 2.151 . S
Co2065 N2114 2.214 . S
Co2066 O2067 2.160 . S
Co2066 O2072 2.058 . S
Co2066 O2082 2.057 . S
Co2066 O2097 2.037 . S
Co2066 N2101 2.145 . S
Co2066 N2122 2.257 . S
O2067 Co2065 2.143 . S
O2067 Co2066 2.160 . S
C2068 O2069 1.278 . S
C2068 O2076 1.224 . S
O2069 C2068 1.278 . S
C2070 O2071 1.245 . S
C2070 O2082 1.232 . S
O2071 C2070 1.245 . S
O2072 Co2066 2.058 . S
O2072 C2098 1.269 . S
O2073 Co2065 2.074 . S
O2073 C2098 1.257 . S
H2074 C2099 0.930 . S
H2075 C2105 0.930 . S
O2076 Co2065 2.093 . S
O2076 C2068 1.224 . S
H2077 C2109 0.929 . S
H2078 C2111 0.930 . S
H2079 C2112 0.930 . S
H2080 C2110 0.929 . S
H2081 C2113 0.928 . S
O2082 Co2066 2.057 . S
O2082 C2070 1.232 . S
H2083 C2102 0.929 . S
H2084 C2103 0.929 . S
H2085 C2115 0.931 . S
H2086 C2107 0.929 1_655 S
H2087 C2116 0.930 . S
H2088 C2108 0.931 1_655 S
O2089 Co2065 2.097 . S
O2089 C2117 1.214 . S
H2090 C2118 0.929 . S
H2091 C2119 0.929 . S
H2092 C2120 0.930 . S
H2093 C2121 0.929 . S
H2094 C2123 0.930 . S
H2095 C2100 0.930 . S
H2096 C2104 0.930 . S
O2097 Co2066 2.037 . S
O2097 C2117 1.234 . S
C2098 O2072 1.269 . S
C2098 O2073 1.257 . S
C2099 H2074 0.930 . S
C2099 C2102 1.388 . S
C2099 C2104 1.418 . S
C2100 H2095 0.930 . S
C2100 C2103 1.404 . S
C2100 C2104 1.353 . S
N2101 Co2066 2.145 . S
N2101 C2102 1.397 . S
N2101 C2103 1.334 . S
C2102 H2083 0.929 . S
C2102 C2099 1.388 . S
C2102 N2101 1.397 . S
C2103 H2084 0.929 . S
C2103 C2100 1.404 . S
C2103 N2101 1.334 . S
C2104 H2096 0.930 . S
C2104 C2099 1.418 . S
C2104 C2100 1.353 . S
C2105 H2075 0.930 . S
C2105 N2106 1.330 . S
C2105 C2107 1.446 . S
N2106 Co2065 2.151 . S
N2106 C2105 1.330 . S
N2106 C2110 1.418 . S
C2107 H2086 0.929 1_455 S
C2107 C2105 1.446 . S
C2107 C2108 1.332 . S
C2108 H2088 0.931 1_455 S
C2108 C2107 1.332 . S
C2108 C2109 1.267 . S
C2109 H2077 0.929 . S
C2109 C2108 1.267 . S
C2109 C2110 1.251 . S
C2110 H2080 0.929 . S
C2110 N2106 1.418 . S
C2110 C2109 1.251 . S
C2111 H2078 0.930 . S
C2111 C2113 1.406 . S
C2111 C2116 1.261 . S
C2112 H2079 0.930 . S
C2112 N2114 1.325 . S
C2112 C2115 1.357 . S
C2113 H2081 0.928 . S
C2113 C2111 1.406 . S
C2113 N2114 1.261 . S
N2114 Co2065 2.214 . S
N2114 C2112 1.325 . S
N2114 C2113 1.261 . S
C2115 H2085 0.931 . S
C2115 C2112 1.357 . S
C2115 C2116 1.312 . S
C2116 H2087 0.930 . S
C2116 C2111 1.261 . S
C2116 C2115 1.312 . S
C2117 O2089 1.214 . S
C2117 O2097 1.234 . S
C2118 H2090 0.929 . S
C2118 C2121 1.391 . S
C2118 C2123 1.391 . S
C2119 H2091 0.929 . S
C2119 C2120 1.390 . S
C2119 N2122 1.391 . S
C2120 H2092 0.930 . S
C2120 C2119 1.390 . S
C2120 C2121 1.392 . S
C2121 H2093 0.929 . S
C2121 C2118 1.391 . S
C2121 C2120 1.392 . S
N2122 Co2066 2.257 . S
N2122 C2119 1.391 . S
N2122 C2123 1.388 . S
C2123 H2094 0.930 . S
C2123 C2118 1.391 . S
C2123 N2122 1.388 . S
C3 C1065 1.426 . S
C1124 C62 1.426 . S
C1183 C121 1.426 . S
C180 C1950 1.426 . S
C239 C2009 1.426 . S
C298 C2068 1.426 . S
C1419 C357 1.426 . S
C416 C1478 1.426 . S
C475 C1537 1.426 . S
C888 C534 1.426 . S
C947 C593 1.426 . S
C1006 C652 1.426 . S
C1773 C711 1.426 1_455 S
C1832 C770 1.426 . S
C829 C1891 1.427 1_545 S
C1596 C1242 1.426 1_564 S
C1301 C1655 1.427 1_656 S
C1360 C1714 1.426 1_556 S
C5 C1598 1.511 . S
C1657 C64 1.511 . S
C1716 C123 1.512 . S
C713 C182 1.511 . S
C772 C241 1.512 . S
C831 C300 1.511 . S
C359 C1244 1.511 . S
C1303 C418 1.511 . S
C1362 C477 1.512 . S
C536 C1775 1.511 . S
C595 C1834 1.512 . S
C654 C1893 1.511 . S
C890 C1421 1.511 . S
C949 C1480 1.511 1_545 S
C1008 C1539 1.511 1_655 S
C1067 C1952 1.511 . S
C2011 C1126 1.511 1_565 S
C1185 C2070 1.511 1_655 S
C92 C52 1.302 . S
C111 C151 1.302 1_545 S
C170 C33 1.302 1_655 S
C229 C328 1.302 . S
C210 C288 1.302 1_545 S
C347 C269 1.302 1_455 S
C406 C446 1.302 . S
C465 C505 1.302 1_565 S
C524 C387 1.302 1_455 S
C682 C583 1.302 . S
C642 C564 1.302 1_545 S
C623 C701 1.302 1_455 S
C800 C760 1.302 . S
C859 C819 1.302 . S
C741 C878 1.302 . S
C937 C1036 1.302 . S
C996 C918 1.302 . S
C1055 C977 1.302 . S
C1154 C1114 1.302 . S
C1173 C1213 1.302 . S
C1232 C1095 1.302 . S
C1291 C1390 1.302 . S
C1350 C1272 1.302 . S
C1331 C1409 1.302 . S
C1508 C1468 1.302 . S
C1527 C1567 1.302 . S
C1449 C1586 1.302 . S
C1645 C1744 1.302 . S
C1704 C1626 1.302 . S
C1763 C1685 1.302 . S
C1822 C1862 1.302 . S
C1881 C1921 1.302 . S
C1940 C1803 1.302 . S
C1999 C2098 1.302 . S
C2058 C1980 1.302 . S
C2039 C2117 1.302 . S
