# Generated by pormake.
# Topology uoc, (4)-cn, num edge types: 1
# Building blocks:
#     Node 0, Type 0, BuildingBlock: ICAMEG_clean_sbu_1, # of connection points: 4
#     Node 1, Type 0, BuildingBlock: ICAMEG_clean_sbu_1, # of connection points: 4
#     Node 2, Type 0, BuildingBlock: ICAMEG_clean_sbu_1, # of connection points: 4
#     Node 3, Type 0, BuildingBlock: ICAMEG_clean_sbu_1, # of connection points: 4
#     Node 4, Type 0, BuildingBlock: ICAMEG_clean_sbu_1, # of connection points: 4
#     Node 5, Type 0, BuildingBlock: ICAMEG_clean_sbu_1, # of connection points: 4
#     Node 6, Type 0, BuildingBlock: ICAMEG_clean_sbu_1, # of connection points: 4
#     Node 7, Type 0, BuildingBlock: ICAMEG_clean_sbu_1, # of connection points: 4
#     Edge 8, Type (0, 0), BuildingBlock: MIFKUJ_clean_linker_0, # of connection points: 2
#     Edge 9, Type (0, 0), BuildingBlock: MIFKUJ_clean_linker_0, # of connection points: 2
#     Edge 10, Type (0, 0), BuildingBlock: MIFKUJ_clean_linker_0, # of connection points: 2
#     Edge 11, Type (0, 0), BuildingBlock: MIFKUJ_clean_linker_0, # of connection points: 2
#     Edge 12, Type (0, 0), BuildingBlock: MIFKUJ_clean_linker_0, # of connection points: 2
#     Edge 13, Type (0, 0), BuildingBlock: MIFKUJ_clean_linker_0, # of connection points: 2
#     Edge 14, Type (0, 0), BuildingBlock: MIFKUJ_clean_linker_0, # of connection points: 2
#     Edge 15, Type (0, 0), BuildingBlock: MIFKUJ_clean_linker_0, # of connection points: 2
#     Edge 16, Type (0, 0), BuildingBlock: MIFKUJ_clean_linker_0, # of connection points: 2
#     Edge 17, Type (0, 0), BuildingBlock: MIFKUJ_clean_linker_0, # of connection points: 2
#     Edge 18, Type (0, 0), BuildingBlock: MIFKUJ_clean_linker_0, # of connection points: 2
#     Edge 19, Type (0, 0), BuildingBlock: MIFKUJ_clean_linker_0, # of connection points: 2
#     Edge 20, Type (0, 0), BuildingBlock: MIFKUJ_clean_linker_0, # of connection points: 2
#     Edge 21, Type (0, 0), BuildingBlock: MIFKUJ_clean_linker_0, # of connection points: 2
#     Edge 22, Type (0, 0), BuildingBlock: MIFKUJ_clean_linker_0, # of connection points: 2
#     Edge 23, Type (0, 0), BuildingBlock: MIFKUJ_clean_linker_0, # of connection points: 2
# Relax obj value: 0.092
# Max RMSD: 0.103
# Mean RMSD: 0.103
data_MOF--net-uoc--node1-ICAMEG_clean_sbu_1--edge1-MIFKUJ_clean_linker_0
_symmetry_space_group_name_H-M    P1
_symmetry_Int_Tables_number       1
_symmetry_cell_setting            triclinic
loop_
_symmetry_equiv_pos_as_xyz
'x, y, z'
_cell_length_a     36.41894
_cell_length_b     36.47601
_cell_length_c     76.08609
_cell_angle_alpha  90.034173
_cell_angle_beta   89.992236
_cell_angle_gamma 99.49356
loop_
_atom_site_label
_atom_site_type_symbol
_atom_site_fract_x
_atom_site_fract_y
_atom_site_fract_z
_atom_type_partial_charge
Co0 Co 0.1558 0.25145 0.12789 0.0
Co1 Co 0.07064 0.25481 0.11006 0.0
O2 O 0.11162 0.27527 0.12567 0.0
C3 C 0.13454 0.26354 0.16485 0.0
O4 O 0.10015 0.24971 0.16051 0.0
C5 C 0.08201 0.33549 0.10145 0.0
O6 O 0.11789 0.33536 0.09982 0.0
O7 O 0.10558 0.25889 0.08987 0.0
O8 O 0.15298 0.23629 0.10233 0.0
H9 H 0.01001 0.17214 0.06177 0.0
H10 H 0.15947 0.3297 0.13917 0.0
O11 O 0.16029 0.26624 0.15335 0.0
H12 H 0.25599 0.33261 0.09349 0.0
H13 H 0.2843 0.24125 0.14964 0.0
H14 H 0.17603 0.18031 0.11556 0.0
H15 H 0.2179 0.27326 0.10237 0.0
H16 H 0.22895 0.27147 0.14607 0.0
O17 O 0.06006 0.30585 0.10544 0.0
H18 H 0.06068 0.19731 0.08209 0.0
H19 H 0.9938 0.27075 0.10405 0.0
H20 H 0.23092 0.14924 0.11867 0.0
H21 H 0.19719 0.38967 0.1308 0.0
H22 H 0.28557 0.17976 0.13582 0.0
H23 H 0.2458 0.39137 0.10777 0.0
O24 O 0.12387 0.20375 0.13457 0.0
H25 H 0.0148 0.30096 0.1645 0.0
H26 H 0.01245 0.19465 0.12422 0.0
H27 H 0.9707 0.18859 0.14993 0.0
H28 H 0.97164 0.24204 0.17027 0.0
H29 H 0.05649 0.30566 0.13876 0.0
H30 H 0.94251 0.24656 0.08387 0.0
H31 H 0.9504 0.19679 0.06258 0.0
O32 O 0.07918 0.20286 0.1143 0.0
C33 C 0.13538 0.24491 0.08879 0.0
C34 C 0.0062 0.19376 0.07102 0.0
C35 C 0.96834 0.23556 0.0834 0.0
N36 N 0.03015 0.23532 0.09432 0.0
C37 C 0.03477 0.20808 0.08259 0.0
C38 C 0.99752 0.24922 0.09477 0.0
C39 C 0.97277 0.20763 0.07147 0.0
C40 C 0.1808 0.33021 0.12925 0.0
N41 N 0.18658 0.29802 0.12133 0.0
C42 C 0.20197 0.36425 0.12452 0.0
C43 C 0.2292 0.36519 0.11158 0.0
C44 C 0.23492 0.33224 0.10355 0.0
C45 C 0.2132 0.29872 0.10861 0.0
C46 C 0.26069 0.2277 0.14211 0.0
C47 C 0.19979 0.19385 0.12296 0.0
C48 C 0.22924 0.24464 0.14008 0.0
N49 N 0.19941 0.22778 0.1305 0.0
C50 C 0.23075 0.17609 0.12471 0.0
C51 C 0.26139 0.19321 0.13435 0.0
C52 C 0.09619 0.18694 0.12592 0.0
C53 C 0.01406 0.27752 0.15571 0.0
C54 C 0.01319 0.21798 0.13305 0.0
C55 C 0.98938 0.21442 0.14756 0.0
C56 C 0.9899 0.24443 0.15895 0.0
N57 N 0.03687 0.25052 0.12997 0.0
C58 C 0.03747 0.28007 0.14107 0.0
Co59 Co 0.75142 0.66273 0.37477 0.0
Co60 Co 0.76124 0.5784 0.39227 0.0
O61 O 0.7778 0.62041 0.37671 0.0
C62 C 0.76048 0.63975 0.33789 0.0
O63 O 0.74833 0.60545 0.34287 0.0
C64 C 0.83205 0.57278 0.41062 0.0
O65 O 0.81561 0.57844 0.42551 0.0
O66 O 0.76232 0.61289 0.41257 0.0
O67 O 0.73945 0.66062 0.40058 0.0
H68 H 0.68532 0.51127 0.44115 0.0
H69 H 0.82875 0.66895 0.36156 0.0
O70 O 0.76308 0.66621 0.34899 0.0
H71 H 0.83244 0.76838 0.40579 0.0
H72 H 0.73228 0.78791 0.35216 0.0
H73 H 0.68058 0.68045 0.38895 0.0
H74 H 0.77353 0.72701 0.39899 0.0
H75 H 0.76574 0.73475 0.35539 0.0
O76 O 0.81476 0.57369 0.3961 0.0
H77 H 0.70534 0.56325 0.42078 0.0
H78 H 0.78398 0.50404 0.39748 0.0
H79 H 0.64636 0.73318 0.38622 0.0
H80 H 0.88824 0.70994 0.36783 0.0
H81 H 0.67222 0.7874 0.36771 0.0
H82 H 0.89033 0.76006 0.39011 0.0
O83 O 0.70395 0.62876 0.36966 0.0
H84 H 0.81198 0.52884 0.33731 0.0
H85 H 0.70524 0.51625 0.37801 0.0
H86 H 0.70257 0.47516 0.35212 0.0
H87 H 0.75615 0.48128 0.33159 0.0
H88 H 0.81342 0.56965 0.36322 0.0
H89 H 0.7649 0.45143 0.41766 0.0
H90 H 0.7152 0.45483 0.43967 0.0
O91 O 0.70761 0.58201 0.38842 0.0
C92 C 0.74812 0.64249 0.41391 0.0
C93 C 0.70696 0.50941 0.43159 0.0
C94 C 0.75163 0.47584 0.41841 0.0
N95 N 0.74571 0.53665 0.40791 0.0
C96 C 0.71838 0.53875 0.42 0.0
C97 C 0.76232 0.50571 0.40702 0.0
C98 C 0.72374 0.47777 0.43076 0.0
C99 C 0.82941 0.69083 0.3712 0.0
N100 N 0.79768 0.69567 0.37985 0.0
C101 C 0.86319 0.71389 0.37473 0.0
C102 C 0.86435 0.74198 0.38724 0.0
C103 C 0.83189 0.74666 0.39605 0.0
C104 C 0.79863 0.72307 0.39219 0.0
C105 C 0.72076 0.76447 0.36029 0.0
C106 C 0.69211 0.70405 0.38096 0.0
C107 C 0.73953 0.73425 0.36213 0.0
N108 N 0.72523 0.70466 0.37245 0.0
C109 C 0.67256 0.73378 0.37942 0.0
C110 C 0.68707 0.76417 0.36902 0.0
C111 C 0.68936 0.59971 0.37802 0.0
C112 C 0.78848 0.52581 0.3462 0.0
C113 C 0.72867 0.51921 0.36911 0.0
C114 C 0.727 0.49579 0.35449 0.0
C115 C 0.75712 0.49919 0.34298 0.0
N116 N 0.75956 0.54523 0.3722 0.0
C117 C 0.78921 0.54871 0.36096 0.0
Co118 Co 0.3526 0.23905 0.62635 0.0
Co119 Co 0.4435 0.24175 0.61231 0.0
O120 O 0.39846 0.21767 0.62439 0.0
C121 C 0.37169 0.22602 0.66348 0.0
O122 O 0.40598 0.24158 0.65985 0.0
C123 C 0.42684 0.16785 0.59519 0.0
O124 O 0.39143 0.17089 0.59483 0.0
O125 O 0.41411 0.25199 0.59125 0.0
O126 O 0.35692 0.25597 0.60135 0.0
H127 H 0.52007 0.34321 0.57717 0.0
H128 H 0.35252 0.16075 0.63676 0.0
O129 O 0.34693 0.22246 0.65149 0.0
H130 H 0.26024 0.15511 0.58899 0.0
H131 H 0.22081 0.23979 0.64616 0.0
H132 H 0.32864 0.30884 0.61448 0.0
H133 H 0.29397 0.21547 0.59935 0.0
H134 H 0.27871 0.21355 0.64305 0.0
O135 O 0.45073 0.19352 0.60175 0.0
H136 H 0.4641 0.31244 0.59287 0.0
H137 H 0.51858 0.22162 0.60573 0.0
H138 H 0.27115 0.33596 0.61713 0.0
H139 H 0.31926 0.0998 0.62688 0.0
H140 H 0.21672 0.30136 0.63308 0.0
H141 H 0.2728 0.09673 0.6028 0.0
O142 O 0.38066 0.28809 0.63414 0.0
H143 H 0.48009 0.16174 0.66086 0.0
H144 H 0.50332 0.28631 0.63389 0.0
H145 H 0.53849 0.27405 0.66035 0.0
H146 H 0.52698 0.21134 0.674 0.0
H147 H 0.44529 0.17533 0.63449 0.0
H148 H 0.57505 0.25128 0.59008 0.0
H149 H 0.57607 0.31258 0.57572 0.0
O150 O 0.43808 0.29037 0.62278 0.0
C151 C 0.38103 0.25845 0.58905 0.0
C152 C 0.52002 0.31656 0.58343 0.0
C153 C 0.55085 0.26493 0.59065 0.0
N154 N 0.48817 0.26542 0.60031 0.0
C155 C 0.48845 0.29905 0.59237 0.0
C156 C 0.51877 0.24824 0.59946 0.0
C157 C 0.55141 0.29934 0.5826 0.0
C158 C 0.33209 0.15965 0.62639 0.0
N159 N 0.32507 0.19163 0.6187 0.0
C160 C 0.31345 0.12505 0.6208 0.0
C161 C 0.28743 0.12335 0.60727 0.0
C162 C 0.28039 0.15609 0.59951 0.0
C163 C 0.29963 0.19018 0.60541 0.0
C164 C 0.24431 0.2551 0.63916 0.0
C165 C 0.30499 0.29353 0.62135 0.0
C166 C 0.2772 0.24043 0.63739 0.0
N167 N 0.30694 0.25956 0.6285 0.0
C168 C 0.27255 0.30907 0.62285 0.0
C169 C 0.24204 0.28965 0.63181 0.0
C170 C 0.4138 0.30456 0.63128 0.0
C171 C 0.48538 0.18915 0.65502 0.0
C172 C 0.49801 0.25904 0.63982 0.0
C173 C 0.5181 0.25221 0.65476 0.0
C174 C 0.51165 0.21701 0.6624 0.0
N175 N 0.47223 0.2316 0.63268 0.0
C176 C 0.46584 0.19699 0.64007 0.0
Co177 Co 0.74267 0.84494 0.87546 0.0
Co178 Co 0.7415 0.93512 0.88948 0.0
O179 O 0.71952 0.88969 0.87717 0.0
C180 C 0.73057 0.86451 0.83833 0.0
O181 O 0.74464 0.89896 0.84238 0.0
C182 C 0.66608 0.9161 0.90547 0.0
O183 O 0.66921 0.88076 0.90543 0.0
O184 O 0.75187 0.90621 0.91066 0.0
O185 O 0.75803 0.84952 0.90068 0.0
H186 H 0.83911 0.01501 0.92556 0.0
H187 H 0.66452 0.84214 0.86384 0.0
O188 O 0.72771 0.83928 0.85007 0.0
H189 H 0.65902 0.75008 0.91161 0.0
H190 H 0.74887 0.71452 0.85544 0.0
H191 H 0.81268 0.82295 0.88847 0.0
H192 H 0.71922 0.78583 0.90215 0.0
H193 H 0.72053 0.77118 0.85821 0.0
O194 O 0.6921 0.94048 0.89952 0.0
H195 H 0.81101 0.95828 0.90968 0.0
H196 H 0.71791 0.00866 0.89582 0.0
H197 H 0.84189 0.76676 0.88616 0.0
H198 H 0.60376 0.80674 0.87278 0.0
H199 H 0.80993 0.71202 0.86953 0.0
H200 H 0.60074 0.76041 0.89686 0.0
O201 O 0.79165 0.87445 0.86849 0.0
H202 H 0.66189 0.96895 0.84008 0.0
H203 H 0.78495 0.99664 0.86854 0.0
H204 H 0.77245 0.03163 0.84207 0.0
H205 H 0.71045 0.01791 0.8277 0.0
H206 H 0.67571 0.93445 0.86649 0.0
H207 H 0.74482 0.06577 0.91168 0.0
H208 H 0.80593 0.06925 0.92663 0.0
O209 O 0.79141 0.93157 0.87963 0.0
C210 C 0.75935 0.87356 0.91295 0.0
C211 C 0.81252 0.01387 0.91905 0.0
C212 C 0.75957 0.04234 0.91129 0.0
N213 N 0.76301 0.98026 0.90172 0.0
C214 C 0.79653 0.98187 0.91 0.0
C215 C 0.74443 0.00988 0.90236 0.0
C216 C 0.79387 0.04428 0.91966 0.0
C217 C 0.66347 0.82174 0.87421 0.0
N218 N 0.69539 0.81593 0.8824 0.0
C219 C 0.62897 0.8019 0.87926 0.0
C220 C 0.62729 0.77595 0.8928 0.0
C221 C 0.65998 0.77016 0.90109 0.0
C222 C 0.69397 0.79055 0.8957 0.0
C223 C 0.76306 0.73818 0.86273 0.0
C224 C 0.79854 0.79919 0.88128 0.0
C225 C 0.74719 0.77037 0.8643 0.0
N226 N 0.76488 0.80029 0.87355 0.0
C227 C 0.81524 0.76747 0.87999 0.0
C228 C 0.79731 0.73679 0.87065 0.0
C229 C 0.80722 0.90778 0.87159 0.0
C230 C 0.68897 0.97522 0.84625 0.0
C231 C 0.75808 0.99028 0.86225 0.0
C232 C 0.75106 0.01031 0.84733 0.0
C233 C 0.71626 0.00264 0.83929 0.0
N234 N 0.73119 0.9634 0.86899 0.0
C235 C 0.69695 0.95582 0.86121 0.0
Co236 Co 0.64566 0.74511 0.62322 0.0
Co237 Co 0.55815 0.7504 0.60769 0.0
O238 O 0.60185 0.76968 0.62183 0.0
C239 C 0.62625 0.75444 0.66066 0.0
O240 O 0.59192 0.73956 0.65671 0.0
C241 C 0.5739 0.82977 0.59659 0.0
O242 O 0.60908 0.82716 0.59414 0.0
O243 O 0.5898 0.74887 0.58645 0.0
O244 O 0.64146 0.73161 0.59763 0.0
H245 H 0.48572 0.66508 0.56347 0.0
H246 H 0.64988 0.82277 0.63558 0.0
O247 O 0.65126 0.75854 0.64878 0.0
H248 H 0.7445 0.82817 0.58887 0.0
H249 H 0.77489 0.73304 0.64325 0.0
H250 H 0.66509 0.67476 0.60943 0.0
H251 H 0.70701 0.76833 0.59748 0.0
H252 H 0.71954 0.76366 0.64086 0.0
O253 O 0.55096 0.80191 0.60189 0.0
H254 H 0.54021 0.68937 0.58177 0.0
H255 H 0.48295 0.77162 0.6031 0.0
H256 H 0.71997 0.64331 0.61134 0.0
H257 H 0.6871 0.88319 0.62754 0.0
H258 H 0.77538 0.6725 0.62835 0.0
H259 H 0.73471 0.88617 0.60398 0.0
O260 O 0.61414 0.69668 0.62953 0.0
H261 H 0.51598 0.80866 0.66236 0.0
H262 H 0.49762 0.69692 0.62482 0.0
H263 H 0.46018 0.69775 0.65176 0.0
H264 H 0.46922 0.75395 0.67074 0.0
H265 H 0.55309 0.80649 0.63538 0.0
H266 H 0.42795 0.74843 0.58492 0.0
H267 H 0.42906 0.69468 0.56497 0.0
O268 O 0.5632 0.69839 0.61326 0.0
C269 C 0.62075 0.73714 0.58466 0.0
C270 C 0.48486 0.68847 0.57213 0.0
C271 C 0.45246 0.73528 0.58415 0.0
N272 N 0.51471 0.73177 0.59355 0.0
C273 C 0.51561 0.70231 0.58255 0.0
C274 C 0.48373 0.74837 0.59438 0.0
C275 C 0.45309 0.70511 0.57297 0.0
C276 C 0.67078 0.8238 0.62542 0.0
N277 N 0.67628 0.79203 0.61702 0.0
C278 C 0.69168 0.85811 0.62089 0.0
C279 C 0.71835 0.85977 0.60765 0.0
C280 C 0.72384 0.82724 0.59915 0.0
C281 C 0.70242 0.79344 0.60404 0.0
C282 C 0.75094 0.72007 0.63577 0.0
C283 C 0.68919 0.68771 0.61677 0.0
C284 C 0.71949 0.73723 0.63441 0.0
N285 N 0.68923 0.72111 0.62492 0.0
C286 C 0.72013 0.66974 0.61785 0.0
C287 C 0.7512 0.68611 0.62741 0.0
C288 C 0.58315 0.68125 0.623 0.0
C289 C 0.51172 0.78404 0.65418 0.0
C290 C 0.50186 0.7214 0.63303 0.0
C291 C 0.48048 0.72176 0.64825 0.0
C292 C 0.48553 0.75331 0.65889 0.0
N293 N 0.52751 0.75163 0.6285 0.0
C294 C 0.53256 0.7827 0.63885 0.0
Co295 Co 0.24015 0.15217 0.87772 0.0
Co296 Co 0.26134 0.07044 0.89406 0.0
O297 O 0.27254 0.1147 0.87941 0.0
C298 C 0.25138 0.13154 0.84072 0.0
O299 O 0.24134 0.09676 0.84551 0.0
C300 C 0.33198 0.0725 0.91362 0.0
O301 O 0.31294 0.07284 0.92826 0.0
O302 O 0.25532 0.10205 0.91495 0.0
O303 O 0.22844 0.14785 0.90349 0.0
H304 H 0.19137 0.9895 0.94054 0.0
H305 H 0.31765 0.16889 0.86442 0.0
O306 O 0.25177 0.15753 0.85196 0.0
H307 H 0.30845 0.26422 0.90947 0.0
H308 H 0.20448 0.27165 0.85577 0.0
H309 H 0.16608 0.15984 0.89201 0.0
H310 H 0.25422 0.2165 0.90245 0.0
H311 H 0.24528 0.2243 0.8587 0.0
O312 O 0.31589 0.07417 0.89883 0.0
H313 H 0.20501 0.04453 0.92134 0.0
H314 H 0.29567 0.00186 0.89845 0.0
H315 H 0.12456 0.20663 0.88957 0.0
H316 H 0.37249 0.21633 0.87091 0.0
H317 H 0.14371 0.26303 0.87134 0.0
H318 H 0.36809 0.26442 0.89359 0.0
O319 O 0.1963 0.11336 0.87247 0.0
H320 H 0.32467 0.03765 0.8389 0.0
H321 H 0.217 0.0021 0.87816 0.0
H322 H 0.22289 0.96509 0.85151 0.0
H323 H 0.27709 0.98276 0.83167 0.0
H324 H 0.31744 0.07415 0.86559 0.0
H325 H 0.28322 0.94655 0.91752 0.0
H326 H 0.23069 0.94008 0.93873 0.0
O327 O 0.20687 0.0654 0.88909 0.0
C328 C 0.23851 0.12996 0.91659 0.0
C329 C 0.21432 0.99199 0.93134 0.0
C330 C 0.26585 0.96787 0.91841 0.0
N331 N 0.25105 0.02639 0.90877 0.0
C332 C 0.22214 0.02305 0.92042 0.0
C333 C 0.27278 0.99926 0.90766 0.0
C334 C 0.23639 0.96426 0.93032 0.0
C335 C 0.31546 0.18986 0.87423 0.0
N336 N 0.28272 0.19003 0.88298 0.0
C337 C 0.34663 0.21659 0.87788 0.0
C338 C 0.34415 0.24354 0.89063 0.0
C339 C 0.31071 0.24344 0.89955 0.0
C340 C 0.28012 0.21628 0.89555 0.0
C341 C 0.19586 0.24723 0.86378 0.0
C342 C 0.17469 0.18442 0.88414 0.0
C343 C 0.2188 0.22029 0.86546 0.0
N344 N 0.20817 0.1895 0.87563 0.0
C345 C 0.15102 0.21077 0.88277 0.0
C346 C 0.16177 0.24238 0.87253 0.0
C347 C 0.18588 0.08146 0.87934 0.0
C348 C 0.30099 0.0296 0.84747 0.0
C349 C 0.24053 0.01011 0.86956 0.0
C350 C 0.24381 0.98895 0.85451 0.0
C351 C 0.27425 0.99885 0.8434 0.0
N352 N 0.26686 0.04025 0.87348 0.0
C353 C 0.29682 0.05006 0.86265 0.0
Co354 Co 0.85072 0.75224 0.12285 0.0
Co355 Co 0.93603 0.74952 0.10489 0.0
O356 O 0.89466 0.72819 0.12014 0.0
C357 C 0.87106 0.73694 0.15957 0.0
O358 O 0.90577 0.75018 0.15555 0.0
C359 C 0.92275 0.66961 0.09507 0.0
O360 O 0.8869 0.67055 0.09431 0.0
O361 O 0.90132 0.74791 0.08471 0.0
O362 O 0.85396 0.76966 0.09765 0.0
H363 H 0.99782 0.83561 0.05815 0.0
H364 H 0.84597 0.67312 0.13273 0.0
O365 O 0.84567 0.73547 0.14796 0.0
H366 H 0.75032 0.67476 0.087 0.0
H367 H 0.72224 0.76209 0.1448 0.0
H368 H 0.83171 0.82492 0.11212 0.0
H369 H 0.78892 0.73308 0.0969 0.0
H370 H 0.77706 0.73136 0.1405 0.0
O371 O 0.94561 0.69867 0.09901 0.0
H372 H 0.94701 0.80965 0.07824 0.0
H373 H 0.01235 0.73278 0.09823 0.0
H374 H 0.7774 0.85656 0.11599 0.0
H375 H 0.80773 0.61415 0.12333 0.0
H376 H 0.72214 0.82509 0.13243 0.0
H377 H 0.75956 0.61475 0.10027 0.0
O378 O 0.88298 0.79892 0.13046 0.0
H379 H 0.99037 0.69665 0.15801 0.0
H380 H 0.99517 0.80721 0.12026 0.0
H381 H 0.0368 0.80979 0.14594 0.0
H382 H 0.03463 0.7542 0.165 0.0
H383 H 0.94886 0.69544 0.13233 0.0
H384 H 0.06377 0.75778 0.07826 0.0
H385 H 0.05669 0.80963 0.05806 0.0
O386 O 0.92846 0.80138 0.11045 0.0
C387 C 0.87161 0.76204 0.08396 0.0
C388 C 0.00126 0.81308 0.06692 0.0
C389 C 0.03826 0.76937 0.0782 0.0
N390 N 0.97679 0.7699 0.08949 0.0
C391 C 0.97263 0.79833 0.07836 0.0
C392 C 0.00902 0.75529 0.08945 0.0
C393 C 0.03428 0.79847 0.06687 0.0
C394 C 0.82482 0.67361 0.12281 0.0
N395 N 0.8196 0.70649 0.11543 0.0
C396 C 0.80336 0.64013 0.11749 0.0
C397 C 0.77638 0.64048 0.10453 0.0
C398 C 0.7712 0.67414 0.09706 0.0
C399 C 0.79322 0.70707 0.10269 0.0
C400 C 0.74612 0.77605 0.13758 0.0
C401 C 0.80768 0.81096 0.1192 0.0
C402 C 0.77726 0.75882 0.13513 0.0
N403 N 0.80742 0.77622 0.12595 0.0
C404 C 0.77705 0.82905 0.12139 0.0
C405 C 0.74607 0.81139 0.13063 0.0
C406 C 0.91126 0.81624 0.12241 0.0
C407 C 0.99165 0.72102 0.14978 0.0
C408 C 0.9939 0.78295 0.12854 0.0
C409 C 0.01764 0.78455 0.14303 0.0
C410 C 0.01643 0.75334 0.15371 0.0
N411 N 0.96964 0.75116 0.12477 0.0
C412 C 0.96833 0.72044 0.13517 0.0
Co413 Co 0.25374 0.34952 0.37982 0.0
Co414 Co 0.24743 0.43363 0.39845 0.0
O415 O 0.22764 0.39198 0.38303 0.0
C416 C 0.23713 0.37063 0.34333 0.0
O417 O 0.24872 0.40541 0.34774 0.0
C418 C 0.16751 0.41558 0.40823 0.0
O419 O 0.16974 0.3801 0.40719 0.0
O420 O 0.24864 0.39891 0.41842 0.0
O421 O 0.27126 0.35255 0.40503 0.0
H422 H 0.33546 0.50003 0.44339 0.0
H423 H 0.17427 0.34129 0.36965 0.0
O424 O 0.23703 0.34488 0.35465 0.0
H425 H 0.17971 0.24612 0.41516 0.0
H426 H 0.26827 0.2233 0.35674 0.0
H427 H 0.32759 0.33283 0.39037 0.0
H428 H 0.23685 0.28711 0.40552 0.0
H429 H 0.23546 0.27648 0.36147 0.0
O430 O 0.19584 0.44014 0.40514 0.0
H431 H 0.30954 0.44778 0.4241 0.0
H432 H 0.22632 0.50773 0.40604 0.0
H433 H 0.36126 0.28011 0.3861 0.0
H434 H 0.11649 0.30047 0.37871 0.0
H435 H 0.33157 0.22484 0.36917 0.0
H436 H 0.11899 0.25258 0.40168 0.0
O437 O 0.29968 0.38345 0.37247 0.0
H438 H 0.18808 0.48693 0.34688 0.0
H439 H 0.30199 0.49501 0.38271 0.0
H440 H 0.30091 0.5374 0.35757 0.0
H441 H 0.24359 0.53365 0.3395 0.0
H442 H 0.19059 0.44459 0.37195 0.0
H443 H 0.25104 0.56042 0.42532 0.0
H444 H 0.30615 0.55685 0.44409 0.0
O445 O 0.29981 0.42892 0.39233 0.0
C446 C 0.26389 0.36989 0.41887 0.0
C447 C 0.31146 0.50193 0.43526 0.0
C448 C 0.26406 0.53581 0.42513 0.0
N449 N 0.26661 0.47478 0.41386 0.0
C450 C 0.29672 0.47247 0.42427 0.0
C451 C 0.25012 0.50583 0.41428 0.0
C452 C 0.29498 0.53379 0.43565 0.0
C453 C 0.17562 0.32022 0.3795 0.0
N454 N 0.20889 0.31655 0.38701 0.0
C455 C 0.1428 0.29731 0.38464 0.0
C456 C 0.14421 0.27049 0.39755 0.0
C457 C 0.17826 0.26688 0.40513 0.0
C458 C 0.21051 0.29028 0.39967 0.0
C459 C 0.28147 0.24719 0.36417 0.0
C460 C 0.3144 0.30878 0.38309 0.0
C461 C 0.26306 0.27742 0.36686 0.0
N462 N 0.27949 0.3076 0.3763 0.0
C463 C 0.33364 0.27906 0.38066 0.0
C464 C 0.31698 0.24807 0.37115 0.0
C465 C 0.31584 0.41197 0.38072 0.0
C466 C 0.21319 0.4889 0.35468 0.0
C467 C 0.27703 0.49297 0.37483 0.0
C468 C 0.27654 0.51717 0.36065 0.0
C469 C 0.24436 0.51507 0.35053 0.0
N470 N 0.24633 0.46739 0.37883 0.0
C471 C 0.21471 0.46511 0.36894 0.0
H472 H 0.18825 0.20206 0.08088 0.0
H473 H 0.20742 0.18379 0.05191 0.0
H474 H 0.13285 0.24915 0.02761 0.0
H475 H 0.11245 0.26644 0.05661 0.0
H476 H 0.12608 0.1857 0.01195 0.0
H477 H 0.23096 0.27608 0.02862 0.0
H478 H 0.28216 0.30503 0.04784 0.0
H479 H 0.3322 0.20655 0.04478 0.0
H480 H 0.28098 0.17677 0.02576 0.0
H481 H 0.19781 0.18403 0.92545 0.0
H482 H 0.18251 0.20396 0.95476 0.0
H483 H 0.24356 0.12444 0.97788 0.0
H484 H 0.25904 0.10403 0.9485 0.0
H485 H 0.25825 0.19475 0.99401 0.0
H486 H 0.15187 0.10477 0.97766 0.0
H487 H 0.10007 0.0765 0.95867 0.0
H488 H 0.05328 0.17707 0.96075 0.0
H489 H 0.10506 0.20605 0.97968 0.0
C490 C 0.17607 0.21282 0.06939 0.0
C491 C 0.14879 0.23581 0.07112 0.0
C492 C 0.18725 0.20246 0.05278 0.0
C493 C 0.17202 0.21545 0.03748 0.0
C494 C 0.14506 0.23872 0.03918 0.0
C495 C 0.1335 0.24871 0.0558 0.0
C496 C 0.18311 0.20367 0.01974 0.0
C497 C 0.155 0.1883 0.00797 0.0
C498 C 0.22087 0.20608 0.0146 0.0
C499 C 0.25193 0.22407 0.02589 0.0
C500 C 0.25275 0.2605 0.03214 0.0
C501 C 0.28179 0.27707 0.04299 0.0
C502 C 0.31037 0.25761 0.04756 0.0
C503 C 0.31002 0.22157 0.04125 0.0
C504 C 0.28101 0.20484 0.03042 0.0
C505 C 0.20811 0.17067 0.93672 0.0
C506 C 0.22966 0.14227 0.93453 0.0
C507 C 0.19922 0.18211 0.9535 0.0
C508 C 0.21166 0.16553 0.96852 0.0
C509 C 0.23367 0.13762 0.96646 0.0
C510 C 0.24239 0.12592 0.94964 0.0
C511 C 0.2012 0.17713 0.98633 0.0
C512 C 0.22938 0.19235 0.99805 0.0
C513 C 0.16353 0.17493 0.99141 0.0
C514 C 0.1325 0.15767 0.97995 0.0
C515 C 0.1307 0.12096 0.97395 0.0
C516 C 0.10129 0.10478 0.96322 0.0
C517 C 0.07343 0.12501 0.95845 0.0
C518 C 0.0749 0.16145 0.96444 0.0
C519 C 0.10424 0.17774 0.97519 0.0
H520 H 0.05061 0.11244 0.95018 0.0
H521 H 0.33283 0.27048 0.05597 0.0
H522 H 0.77123 0.70719 0.32152 0.0
H523 H 0.79032 0.72118 0.2912 0.0
H524 H 0.79666 0.60549 0.28238 0.0
H525 H 0.77612 0.59109 0.31259 0.0
H526 H 0.84961 0.71794 0.27382 0.0
H527 H 0.77904 0.58244 0.23976 0.0
H528 H 0.72392 0.53375 0.24351 0.0
H529 H 0.66771 0.61077 0.27129 0.0
H530 H 0.72229 0.66002 0.26751 0.0
H531 H 0.91715 0.72181 0.18617 0.0
H532 H 0.8996 0.70225 0.21622 0.0
H533 H 0.78447 0.70601 0.20416 0.0
H534 H 0.80162 0.72408 0.17405 0.0
H535 H 0.78658 0.64868 0.22315 0.0
H536 H 0.84235 0.77697 0.22757 0.0
H537 H 0.89149 0.83158 0.22365 0.0
H538 H 0.96643 0.77953 0.25495 0.0
H539 H 0.91785 0.72438 0.25886 0.0
C540 C 0.77652 0.68466 0.31311 0.0
C541 C 0.77191 0.64798 0.31943 0.0
C542 C 0.7876 0.69274 0.29577 0.0
C543 C 0.79467 0.66441 0.28437 0.0
C544 C 0.79066 0.62777 0.29075 0.0
C545 C 0.77901 0.61957 0.30806 0.0
C546 C 0.80626 0.67346 0.26587 0.0
C547 C 0.83584 0.70269 0.26276 0.0
C548 C 0.78806 0.65405 0.25134 0.0
C549 C 0.75493 0.62476 0.25352 0.0
C550 C 0.75487 0.58899 0.24662 0.0
C551 C 0.72373 0.5613 0.24876 0.0
C552 C 0.69239 0.56912 0.25769 0.0
C553 C 0.69206 0.6047 0.26444 0.0
C554 C 0.72311 0.6325 0.26232 0.0
C555 C 0.8881 0.71837 0.18993 0.0
C556 C 0.86082 0.72466 0.17774 0.0
C557 C 0.87809 0.70732 0.20714 0.0
C558 C 0.84071 0.70312 0.2126 0.0
C559 C 0.81346 0.70893 0.20033 0.0
C560 C 0.82335 0.71941 0.18309 0.0
C561 C 0.82982 0.69326 0.23111 0.0
C562 C 0.80048 0.66378 0.23422 0.0
C563 C 0.8474 0.71326 0.24562 0.0
C564 C 0.87661 0.74641 0.24335 0.0
C565 C 0.8694 0.77707 0.23351 0.0
C566 C 0.89713 0.80813 0.23131 0.0
C567 C 0.93209 0.80898 0.239 0.0
C568 C 0.93936 0.77881 0.24897 0.0
C569 C 0.91173 0.74765 0.25119 0.0
H570 H 0.95353 0.83305 0.23728 0.0
H571 H 0.66833 0.54764 0.25934 0.0
H572 H 0.4171 0.25385 0.55762 0.0
H573 H 0.39747 0.2711 0.52847 0.0
H574 H 0.3002 0.30588 0.55118 0.0
H575 H 0.31886 0.28745 0.5802 0.0
H576 H 0.28063 0.27021 0.52261 0.0
H577 H 0.37943 0.3687 0.5377 0.0
H578 H 0.44261 0.3965 0.54726 0.0
H579 H 0.48918 0.35043 0.5021 0.0
H580 H 0.42627 0.32189 0.49239 0.0
H581 H 0.23897 0.38569 0.45154 0.0
H582 H 0.25935 0.36506 0.48004 0.0
H583 H 0.33611 0.305 0.45391 0.0
H584 H 0.31544 0.32481 0.42534 0.0
H585 H 0.36655 0.35266 0.48345 0.0
H586 H 0.26447 0.25594 0.46849 0.0
H587 H 0.20007 0.23186 0.45935 0.0
H588 H 0.15837 0.27986 0.50525 0.0
H589 H 0.22257 0.30482 0.51451 0.0
C590 C 0.39155 0.26522 0.55642 0.0
C591 C 0.36966 0.26935 0.57131 0.0
C592 C 0.38042 0.27524 0.53973 0.0
C593 C 0.34757 0.29035 0.53759 0.0
C594 C 0.32562 0.29429 0.55243 0.0
C595 C 0.33645 0.28383 0.56906 0.0
C596 C 0.33585 0.30187 0.51993 0.0
C597 C 0.29938 0.2886 0.51418 0.0
C598 C 0.36032 0.32545 0.5087 0.0
C599 C 0.39817 0.34284 0.51442 0.0
C600 C 0.40317 0.36428 0.52987 0.0
C601 C 0.43892 0.3802 0.53531 0.0
C602 C 0.46989 0.37514 0.52532 0.0
C603 C 0.46516 0.35426 0.50984 0.0
C604 C 0.42946 0.33823 0.50435 0.0
C605 C 0.26009 0.36798 0.45184 0.0
C606 C 0.27546 0.3568 0.43615 0.0
C607 C 0.27169 0.35623 0.46813 0.0
C608 C 0.29922 0.33352 0.46905 0.0
C609 C 0.31487 0.32257 0.45346 0.0
C610 C 0.30284 0.33375 0.43715 0.0
C611 C 0.31153 0.32109 0.48632 0.0
C612 C 0.34801 0.33422 0.49195 0.0
C613 C 0.28694 0.2979 0.49755 0.0
C614 C 0.24833 0.28258 0.4921 0.0
C615 C 0.24157 0.26166 0.47656 0.0
C616 C 0.2051 0.24779 0.47137 0.0
C617 C 0.17514 0.2544 0.48169 0.0
C618 C 0.18161 0.27481 0.49726 0.0
C619 C 0.21803 0.2888 0.50248 0.0
H620 H 0.14692 0.24364 0.47766 0.0
H621 H 0.49756 0.38747 0.52956 0.0
H622 H 0.70474 0.79529 0.82513 0.0
H623 H 0.68637 0.77855 0.79494 0.0
H624 H 0.7105 0.89397 0.77987 0.0
H625 H 0.72871 0.91111 0.81016 0.0
H626 H 0.64582 0.8592 0.76504 0.0
H627 H 0.77154 0.83756 0.77036 0.0
H628 H 0.82339 0.81175 0.78377 0.0
H629 H 0.7653 0.70096 0.77492 0.0
H630 H 0.71284 0.72613 0.76167 0.0
H631 H 0.69486 0.78504 0.67316 0.0
H632 H 0.71165 0.80552 0.70306 0.0
H633 H 0.59775 0.77183 0.71951 0.0
H634 H 0.58051 0.75168 0.68949 0.0
H635 H 0.70938 0.76877 0.73317 0.0
H636 H 0.57833 0.8303 0.75233 0.0
H637 H 0.52987 0.85988 0.73805 0.0
H638 H 0.60532 0.89832 0.69609 0.0
H639 H 0.65436 0.86944 0.71024 0.0
C640 C 0.70607 0.81721 0.81544 0.0
C641 C 0.71848 0.85456 0.82007 0.0
C642 C 0.69562 0.80754 0.79815 0.0
C643 C 0.69742 0.83494 0.78509 0.0
C644 C 0.70893 0.87235 0.78973 0.0
C645 C 0.7195 0.88207 0.80704 0.0
C646 C 0.68805 0.82437 0.76654 0.0
C647 C 0.65967 0.83939 0.75807 0.0
C648 C 0.70651 0.79898 0.75733 0.0
C649 C 0.73812 0.78374 0.76517 0.0
C650 C 0.76971 0.8077 0.77139 0.0
C651 C 0.79922 0.79318 0.77894 0.0
C652 C 0.7976 0.75474 0.78023 0.0
C653 C 0.7665 0.73073 0.77393 0.0
C654 C 0.73688 0.74511 0.76638 0.0
C655 C 0.67328 0.78201 0.6831 0.0
C656 C 0.63628 0.76672 0.67889 0.0
C657 C 0.683 0.79365 0.70023 0.0
C658 C 0.65597 0.79049 0.71354 0.0
C659 C 0.61902 0.77503 0.70942 0.0
C660 C 0.60924 0.76336 0.69226 0.0
C661 C 0.6667 0.80313 0.73171 0.0
C662 C 0.69538 0.78847 0.74013 0.0
C663 C 0.64894 0.82934 0.74074 0.0
C664 C 0.61986 0.84736 0.73227 0.0
C665 C 0.58461 0.8452 0.74009 0.0
C666 C 0.55704 0.86182 0.73202 0.0
C667 C 0.56447 0.88085 0.71614 0.0
C668 C 0.59955 0.88345 0.70835 0.0
C669 C 0.62723 0.86692 0.71639 0.0
H670 H 0.54307 0.89366 0.7099 0.0
H671 H 0.82048 0.74356 0.78609 0.0
H672 H 0.22739 0.3021 0.32793 0.0
H673 H 0.20905 0.28584 0.29773 0.0
H674 H 0.19911 0.4001 0.28733 0.0
H675 H 0.21894 0.41683 0.31744 0.0
H676 H 0.15047 0.28582 0.27946 0.0
H677 H 0.2178 0.42153 0.24467 0.0
H678 H 0.27113 0.47223 0.2485 0.0
H679 H 0.32929 0.39931 0.27793 0.0
H680 H 0.27653 0.34809 0.27407 0.0
H681 H 0.08672 0.27657 0.19109 0.0
H682 H 0.10246 0.29688 0.22122 0.0
H683 H 0.21881 0.29742 0.21022 0.0
H684 H 0.20339 0.27854 0.17998 0.0
H685 H 0.2138 0.35471 0.22878 0.0
H686 H 0.16253 0.22553 0.23389 0.0
H687 H 0.11555 0.16914 0.23001 0.0
H688 H 0.03665 0.21884 0.25994 0.0
H689 H 0.08304 0.27574 0.2638 0.0
C690 C 0.22134 0.32384 0.31923 0.0
C691 C 0.22489 0.36084 0.32508 0.0
C692 C 0.21071 0.31445 0.30194 0.0
C693 C 0.20304 0.34173 0.29009 0.0
C694 C 0.20564 0.3786 0.29604 0.0
C695 C 0.21685 0.38814 0.3133 0.0
C696 C 0.19266 0.33139 0.27154 0.0
C697 C 0.16429 0.30101 0.26839 0.0
C698 C 0.211 0.35064 0.257 0.0
C699 C 0.24304 0.38114 0.25924 0.0
C700 C 0.24202 0.41631 0.25191 0.0
C701 C 0.27214 0.44513 0.25409 0.0
C702 C 0.30352 0.43903 0.26351 0.0
C703 C 0.30491 0.40405 0.2707 0.0
C704 C 0.2749 0.37513 0.26853 0.0
C705 C 0.11565 0.28102 0.1951 0.0
C706 C 0.14377 0.27577 0.18315 0.0
C707 C 0.12463 0.29252 0.21237 0.0
C708 C 0.16183 0.29824 0.21815 0.0
C709 C 0.18992 0.29331 0.20614 0.0
C710 C 0.18103 0.28236 0.18883 0.0
C711 C 0.17167 0.30909 0.2367 0.0
C712 C 0.19984 0.33966 0.23984 0.0
C713 C 0.15403 0.28922 0.25123 0.0
C714 C 0.12612 0.25502 0.24898 0.0
C715 C 0.13507 0.22453 0.23954 0.0
C716 C 0.10857 0.19246 0.23736 0.0
C717 C 0.07311 0.19045 0.24468 0.0
C718 C 0.06411 0.22047 0.25425 0.0
C719 C 0.0905 0.25262 0.25645 0.0
H720 H 0.05263 0.1656 0.24298 0.0
H721 H 0.32678 0.46139 0.2652 0.0
H722 H 0.68887 0.72152 0.57485 0.0
H723 H 0.70979 0.70794 0.54547 0.0
H724 H 0.6023 0.71878 0.52435 0.0
H725 H 0.58108 0.73315 0.55376 0.0
H726 H 0.63135 0.65435 0.51227 0.0
H727 H 0.66771 0.78669 0.51747 0.0
H728 H 0.69739 0.84431 0.53214 0.0
H729 H 0.80351 0.80788 0.52944 0.0
H730 H 0.77433 0.74973 0.515 0.0
H731 H 0.72384 0.70733 0.42275 0.0
H732 H 0.70297 0.72546 0.4515 0.0
H733 H 0.7293 0.62455 0.47406 0.0
H734 H 0.75045 0.60613 0.44537 0.0
H735 H 0.73756 0.73669 0.48439 0.0
H736 H 0.6578 0.59203 0.50262 0.0
H737 H 0.62854 0.53457 0.48763 0.0
H738 H 0.60688 0.59792 0.44236 0.0
H739 H 0.63539 0.65579 0.45719 0.0
C740 C 0.66961 0.72131 0.564 0.0
C741 C 0.63333 0.72888 0.56671 0.0
C742 C 0.68167 0.71344 0.5472 0.0
C743 C 0.65767 0.71254 0.53274 0.0
C744 C 0.62125 0.71938 0.53536 0.0
C745 C 0.60926 0.72777 0.55217 0.0
C746 C 0.67099 0.70485 0.51488 0.0
C747 C 0.6545 0.67237 0.50616 0.0
C748 C 0.70104 0.72851 0.50687 0.0
C749 C 0.71877 0.76371 0.51529 0.0
C750 C 0.69733 0.79084 0.52012 0.0
C751 C 0.71407 0.82362 0.52838 0.0
C752 C 0.7523 0.82971 0.53176 0.0
C753 C 0.77389 0.8031 0.52683 0.0
C754 C 0.75727 0.77024 0.51859 0.0
C755 C 0.72564 0.68911 0.43383 0.0
C756 C 0.73872 0.65513 0.43167 0.0
C757 C 0.71376 0.69962 0.45028 0.0
C758 C 0.71424 0.67621 0.46487 0.0
C759 C 0.72838 0.64287 0.46292 0.0
C760 C 0.74056 0.63245 0.4465 0.0
C761 C 0.69837 0.68586 0.48191 0.0
C762 C 0.71438 0.71869 0.49049 0.0
C763 C 0.66774 0.66263 0.48974 0.0
C764 C 0.64904 0.62819 0.48098 0.0
C765 C 0.64653 0.59372 0.48952 0.0
C766 C 0.63012 0.56107 0.48104 0.0
C767 C 0.61597 0.56258 0.46403 0.0
C768 C 0.61795 0.59677 0.45551 0.0
C769 C 0.63423 0.6295 0.46395 0.0
H770 H 0.60343 0.53727 0.45746 0.0
H771 H 0.76521 0.85509 0.53817 0.0
H772 H 0.3031 0.1936 0.6753 0.0
H773 H 0.28453 0.17663 0.70541 0.0
H774 H 0.39696 0.21416 0.72308 0.0
H775 H 0.41601 0.23088 0.69285 0.0
H776 H 0.36675 0.14982 0.73924 0.0
H777 H 0.33189 0.26889 0.72852 0.0
H778 H 0.30195 0.31447 0.71229 0.0
H779 H 0.19502 0.24654 0.71966 0.0
H780 H 0.22441 0.20027 0.73574 0.0
H781 H 0.27455 0.20042 0.82661 0.0
H782 H 0.2966 0.21559 0.79677 0.0
H783 H 0.27772 0.09905 0.78341 0.0
H784 H 0.25619 0.08354 0.81337 0.0
H785 H 0.2641 0.2055 0.76565 0.0
H786 H 0.34316 0.08266 0.75349 0.0
H787 H 0.37616 0.04064 0.77055 0.0
H788 H 0.40111 0.12363 0.81077 0.0
H789 H 0.36876 0.16633 0.79384 0.0
C790 C 0.32401 0.19812 0.68554 0.0
C791 C 0.36103 0.21393 0.68166 0.0
C792 C 0.31328 0.18846 0.70278 0.0
C793 C 0.33922 0.19459 0.71655 0.0
C794 C 0.37645 0.20927 0.71267 0.0
C795 C 0.38726 0.21894 0.69539 0.0
C796 C 0.32712 0.18671 0.73503 0.0
C797 C 0.34428 0.16195 0.74501 0.0
C798 C 0.29822 0.20301 0.74269 0.0
C799 C 0.2804 0.23097 0.7332 0.0
C800 C 0.30202 0.26356 0.72658 0.0
C801 C 0.28514 0.28953 0.71742 0.0
C802 C 0.24661 0.28336 0.71491 0.0
C803 C 0.22487 0.25126 0.7216 0.0
C804 C 0.24162 0.22517 0.73076 0.0
C805 C 0.27503 0.17796 0.81734 0.0
C806 C 0.26364 0.14072 0.82242 0.0
C807 C 0.28757 0.18672 0.80025 0.0
C808 C 0.28917 0.15849 0.78786 0.0
C809 C 0.27728 0.1213 0.7928 0.0
C810 C 0.26478 0.11249 0.80992 0.0
C811 C 0.30329 0.1681 0.76981 0.0
C812 C 0.28649 0.19324 0.75989 0.0
C813 C 0.33296 0.15266 0.76234 0.0
C814 C 0.3532 0.12752 0.77246 0.0
C815 C 0.35585 0.09199 0.76593 0.0
C816 C 0.37441 0.06805 0.77559 0.0
C817 C 0.39061 0.07941 0.79176 0.0
C818 C 0.38843 0.11481 0.79827 0.0
C819 C 0.36996 0.13888 0.78866 0.0
H820 H 0.4049 0.06081 0.79923 0.0
H821 H 0.2336 0.3035 0.7078 0.0
H822 H 0.88864 0.73639 0.05164 0.0
H823 H 0.86818 0.75509 0.02292 0.0
H824 H 0.80519 0.83082 0.04804 0.0
H825 H 0.82416 0.81095 0.07681 0.0
H826 H 0.76678 0.80026 0.02216 0.0
H827 H 0.89296 0.86006 0.02804 0.0
H828 H 0.96001 0.86375 0.03397 0.0
H829 H 0.9696 0.79125 0.99033 0.0
H830 H 0.90244 0.78678 0.98425 0.0
H831 H 0.75203 0.90876 0.94439 0.0
H832 H 0.7704 0.89021 0.97365 0.0
H833 H 0.81092 0.79612 0.95103 0.0
H834 H 0.79229 0.81397 0.92186 0.0
H835 H 0.86081 0.83832 0.97562 0.0
H836 H 0.73165 0.78051 0.97057 0.0
H837 H 0.66491 0.7809 0.96528 0.0
H838 H 0.66233 0.85651 0.00837 0.0
H839 H 0.72924 0.85702 0.01374 0.0
C840 C 0.87031 0.75692 0.05105 0.0
C841 C 0.85823 0.77232 0.06652 0.0
C842 C 0.85878 0.76778 0.0346 0.0
C843 C 0.83575 0.79504 0.03322 0.0
C844 C 0.82302 0.80984 0.04869 0.0
C845 C 0.83398 0.79849 0.06516 0.0
C846 C 0.82522 0.80835 0.01569 0.0
C847 C 0.78748 0.80906 0.0121 0.0
C848 C 0.85205 0.81964 0.00242 0.0
C849 C 0.8926 0.82283 0.00579 0.0
C850 C 0.90933 0.84476 0.01976 0.0
C851 C 0.94735 0.84699 0.02315 0.0
C852 C 0.96903 0.82763 0.01258 0.0
C853 C 0.95275 0.80618 0.99852 0.0
C854 C 0.91472 0.80383 0.99508 0.0
C855 C 0.76486 0.88412 0.94563 0.0
C856 C 0.77056 0.86282 0.93074 0.0
C857 C 0.77528 0.87355 0.96236 0.0
C858 C 0.79194 0.84175 0.96449 0.0
C859 C 0.79816 0.82078 0.94966 0.0
C860 C 0.78731 0.83099 0.93299 0.0
C861 C 0.80255 0.82997 0.98218 0.0
C862 C 0.84028 0.82961 0.98576 0.0
C863 C 0.77583 0.81973 0.99554 0.0
C864 C 0.73553 0.8191 0.99244 0.0
C865 C 0.71692 0.79746 0.97882 0.0
C866 C 0.67905 0.79748 0.97583 0.0
C867 C 0.65941 0.81879 0.98645 0.0
C868 C 0.67759 0.84005 1.00013 0.0
C869 C 0.71547 0.84018 0.00317 0.0
H870 H 0.6301 0.81878 0.98411 0.0
H871 H 0.99846 0.82933 0.01525 0.0
H872 H 0.09235 0.14913 0.15723 0.0
H873 H 0.05821 0.08611 0.1627 0.0
H874 H 0.03392 0.07343 0.10728 0.0
H875 H 0.06679 0.13604 0.10192 0.0
H876 H 0.9726 0.05575 0.12554 0.0
H877 H 0.09878 0.02884 0.12876 0.0
H878 H 0.16238 0.03557 0.14084 0.0
H879 H 0.11803 0.0023 0.19175 0.0
H880 H 0.05411 0.99583 0.17999 0.0
H881 H 0.94601 0.86913 0.10041 0.0
H882 H 0.97383 0.93283 0.10761 0.0
H883 H 0.93793 0.9156 0.1614 0.0
H884 H 0.90902 0.8514 0.15418 0.0
H885 H 0.02197 0.94976 0.15222 0.0
H886 H 0.89455 0.96622 0.14571 0.0
H887 H 0.83315 0.95635 0.13123 0.0
H888 H 0.88245 0.00768 0.08419 0.0
H889 H 0.94427 0.01725 0.09829 0.0
C890 C 0.08032 0.13244 0.14624 0.0
C891 C 0.08201 0.14735 0.12918 0.0
C892 C 0.06072 0.09659 0.14937 0.0
C893 C 0.0432 0.07518 0.13541 0.0
C894 C 0.04671 0.08958 0.11829 0.0
C895 C 0.0657 0.12529 0.11522 0.0
C896 C 0.01975 0.03839 0.13831 0.0
C897 C 0.98343 0.03266 0.13145 0.0
C898 C 0.03333 0.00848 0.14652 0.0
C899 C 0.0717 0.01235 0.15356 0.0
C900 C 0.1026 0.02328 0.14256 0.0
C901 C 0.13869 0.02698 0.14935 0.0
C902 C 0.14424 0.0195 0.16707 0.0
C903 C 0.11369 0.00818 0.17804 0.0
C904 C 0.07753 0.00449 0.17132 0.0
C905 C 0.94374 0.8789 0.11376 0.0
C906 C 0.92526 0.85543 0.12674 0.0
C907 C 0.95969 0.91523 0.11784 0.0
C908 C 0.95796 0.92867 0.13501 0.0
C909 C 0.93951 0.9055 0.14808 0.0
C910 C 0.92281 0.86912 0.14391 0.0
C911 C 0.97572 0.96719 0.13883 0.0
C912 C 0.01086 0.97324 0.14688 0.0
C913 C 0.96134 0.9974 0.1315 0.0
C914 C 0.9241 0.99228 0.12305 0.0
C915 C 0.89235 0.97516 0.13224 0.0
C916 C 0.85746 0.96965 0.1241 0.0
C917 C 0.85391 0.98134 0.10679 0.0
C918 C 0.88524 0.99864 0.0976 0.0
C919 C 0.92021 0.00417 0.10567 0.0
H920 H 0.82687 0.97703 0.10051 0.0
H921 H 0.17221 0.02237 0.1723 0.0
H922 H 0.09748 0.37973 0.40013 0.0
H923 H 0.03919 0.40526 0.40234 0.0
H924 H 0.09859 0.50443 0.42657 0.0
H925 H 0.15692 0.47982 0.42389 0.0
H926 H 0.0109 0.45192 0.43877 0.0
H927 H 0.09296 0.53824 0.39694 0.0
H928 H 0.13618 0.54305 0.37172 0.0
H929 H 0.0554 0.46928 0.34184 0.0
H930 H 0.01205 0.46356 0.36705 0.0
H931 H 0.88391 0.57906 0.437 0.0
H932 H 0.94119 0.55216 0.43782 0.0
H933 H 0.9177 0.50713 0.38578 0.0
H934 H 0.8616 0.53533 0.38458 0.0
H935 H 0.98723 0.52931 0.38765 0.0
H936 H 0.89981 0.45396 0.4249 0.0
H937 H 0.85462 0.44047 0.44912 0.0
H938 H 0.93974 0.482 0.48649 0.0
H939 H 0.98535 0.49624 0.46246 0.0
C940 C 0.09791 0.40667 0.40621 0.0
C941 C 0.13165 0.42794 0.41174 0.0
C942 C 0.06471 0.42117 0.40745 0.0
C943 C 0.06484 0.4567 0.41456 0.0
C944 C 0.09809 0.477 0.42101 0.0
C945 C 0.13132 0.46294 0.41943 0.0
C946 C 0.03112 0.47423 0.4138 0.0
C947 C 0.00571 0.46918 0.42774 0.0
C948 C 0.0241 0.4957 0.39915 0.0
C949 C 0.04949 0.50028 0.38385 0.0
C950 C 0.08455 0.52295 0.38501 0.0
C951 C 0.10905 0.52582 0.37073 0.0
C952 C 0.09857 0.50643 0.3552 0.0
C953 C 0.06351 0.48424 0.35389 0.0
C954 C 0.03898 0.48116 0.36816 0.0
C955 C 0.89122 0.56375 0.42568 0.0
C956 C 0.8682 0.55929 0.41075 0.0
C957 C 0.92382 0.54811 0.4262 0.0
C958 C 0.93346 0.52685 0.412 0.0
C959 C 0.91096 0.52331 0.39691 0.0
C960 C 0.87882 0.5395 0.39625 0.0
C961 C 0.96661 0.50784 0.41288 0.0
C962 C 0.99208 0.51234 0.39885 0.0
C963 C 0.97318 0.48524 0.42736 0.0
C964 C 0.9459 0.47649 0.44186 0.0
C965 C 0.90883 0.46044 0.43827 0.0
C966 C 0.88315 0.45263 0.45197 0.0
C967 C 0.89428 0.46045 0.46933 0.0
C968 C 0.93115 0.476 0.47304 0.0
C969 C 0.95694 0.48392 0.45938 0.0
H970 H 0.87436 0.45439 0.47992 0.0
H971 H 0.11758 0.50865 0.34417 0.0
H972 H 0.47397 0.33079 0.65112 0.0
H973 H 0.50257 0.396 0.65456 0.0
H974 H 0.40959 0.42982 0.62751 0.0
H975 H 0.38068 0.36439 0.62422 0.0
H976 H 0.4816 0.4514 0.61164 0.0
H977 H 0.42156 0.45399 0.66795 0.0
H978 H 0.40528 0.4321 0.69804 0.0
H979 H 0.52089 0.45174 0.71239 0.0
H980 H 0.53793 0.47324 0.68229 0.0
H981 H 0.51771 0.64184 0.61145 0.0
H982 H 0.49161 0.5779 0.61728 0.0
H983 H 0.5876 0.56521 0.64846 0.0
H984 H 0.61418 0.63084 0.64305 0.0
H985 H 0.52036 0.53089 0.66355 0.0
H986 H 0.58147 0.52996 0.60851 0.0
H987 H 0.59993 0.55086 0.57851 0.0
H988 H 0.48608 0.52537 0.56164 0.0
H989 H 0.4668 0.50488 0.59162 0.0
C990 C 0.45918 0.35226 0.6464 0.0
C991 C 0.42531 0.34287 0.63736 0.0
C992 C 0.47544 0.38941 0.64842 0.0
C993 C 0.45822 0.41758 0.64123 0.0
C994 C 0.42317 0.40834 0.63319 0.0
C995 C 0.40659 0.37112 0.63142 0.0
C996 C 0.47916 0.45576 0.63982 0.0
C997 C 0.48962 0.46902 0.62296 0.0
C998 C 0.49126 0.47772 0.65469 0.0
C999 C 0.48105 0.46484 0.6728 0.0
C1000 C 0.44355 0.45329 0.67746 0.0
C1001 C 0.43418 0.44103 0.69454 0.0
C1002 C 0.46204 0.44042 0.7071 0.0
C1003 C 0.49934 0.45217 0.70263 0.0
C1004 C 0.50887 0.46443 0.68557 0.0
C1005 C 0.53355 0.62589 0.61965 0.0
C1006 C 0.56828 0.64171 0.62675 0.0
C1007 C 0.51847 0.58907 0.62291 0.0
C1008 C 0.53788 0.56666 0.63306 0.0
C1009 C 0.57228 0.58215 0.64051 0.0
C1010 C 0.58747 0.6195 0.63734 0.0
C1011 C 0.52178 0.52694 0.63531 0.0
C1012 C 0.51252 0.51319 0.65224 0.0
C1013 C 0.51119 0.50409 0.62051 0.0
C1014 C 0.52266 0.51609 0.60237 0.0
C1015 C 0.56031 0.52904 0.59844 0.0
C1016 C 0.57094 0.5408 0.58143 0.0
C1017 C 0.54419 0.5395 0.56819 0.0
C1018 C 0.50676 0.52637 0.57192 0.0
C1019 C 0.49598 0.51463 0.58892 0.0
H1020 H 0.55247 0.54862 0.55503 0.0
H1021 H 0.45472 0.43094 0.72032 0.0
H1022 H 0.59517 0.87614 0.90601 0.0
H1023 H 0.53718 0.90144 0.91014 0.0
H1024 H 0.60111 0.00915 0.92168 0.0
H1025 H 0.65862 0.98445 0.91733 0.0
H1026 H 0.50349 0.94046 0.93582 0.0
H1027 H 0.56838 0.07212 0.89698 0.0
H1028 H 0.61749 0.08949 0.87471 0.0
H1029 H 0.6016 0.97695 0.85593 0.0
H1030 H 0.55213 0.95908 0.87786 0.0
H1031 H 0.37748 0.06835 0.94205 0.0
H1032 H 0.43512 0.04199 0.94273 0.0
H1033 H 0.427 0.02329 0.88674 0.0
H1034 H 0.37067 0.05083 0.88585 0.0
H1035 H 0.49518 0.04367 0.89424 0.0
H1036 H 0.39749 0.95348 0.91791 0.0
H1037 H 0.34562 0.93006 0.93791 0.0
H1038 H 0.41955 0.94844 0.98217 0.0
H1039 H 0.47176 0.97256 0.96245 0.0
C1040 C 0.59672 0.90498 0.90982 0.0
C1041 C 0.63131 0.92851 0.91105 0.0
C1042 C 0.56365 0.91936 0.9122 0.0
C1043 C 0.56495 0.9573 0.9159 0.0
C1044 C 0.59952 0.97994 0.91855 0.0
C1045 C 0.63235 0.96578 0.91602 0.0
C1046 C 0.5309 0.97454 0.91506 0.0
C1047 C 0.50156 0.96304 0.92678 0.0
C1048 C 0.52806 0.00328 0.90289 0.0
C1049 C 0.55681 0.01423 0.88919 0.0
C1050 C 0.57522 0.05117 0.88801 0.0
C1051 C 0.60317 0.06108 0.87547 0.0
C1052 C 0.6128 0.03431 0.86396 0.0
C1053 C 0.59429 0.99764 0.86489 0.0
C1054 C 0.5663 0.98761 0.87738 0.0
C1055 C 0.38837 0.05919 0.92986 0.0
C1056 C 0.36936 0.06157 0.91393 0.0
C1057 C 0.42113 0.04382 0.93028 0.0
C1058 C 0.43499 0.02985 0.91484 0.0
C1059 C 0.41689 0.03374 0.89884 0.0
C1060 C 0.38458 0.04958 0.89836 0.0
C1061 C 0.46767 0.01022 0.91527 0.0
C1062 C 0.49691 0.02122 0.90339 0.0
C1063 C 0.46967 0.98013 0.92686 0.0
C1064 C 0.43846 0.96514 0.93872 0.0
C1065 C 0.40264 0.95273 0.93192 0.0
C1066 C 0.37318 0.93932 0.9432 0.0
C1067 C 0.37927 0.93783 0.9613 0.0
C1068 C 0.41486 0.94965 0.96815 0.0
C1069 C 0.4444 0.96318 0.95692 0.0
H1070 H 0.35643 0.92745 0.97002 0.0
H1071 H 0.63453 0.042 0.8543 0.0
H1072 H 0.88386 0.59835 0.0944 0.0
H1073 H 0.90996 0.54053 0.09299 0.0
H1074 H 0.02055 0.60399 0.08877 0.0
H1075 H 0.99491 0.66151 0.09001 0.0
H1076 H 0.01149 0.54367 0.06708 0.0
H1077 H 0.98914 0.57111 0.12771 0.0
H1078 H 0.95092 0.58505 0.15283 0.0
H1079 H 0.87838 0.48072 0.14568 0.0
H1080 H 0.91588 0.46641 0.12032 0.0
H1081 H 0.11889 0.40644 0.09516 0.0
H1082 H 0.09123 0.46304 0.09194 0.0
H1083 H 0.98166 0.39865 0.0987 0.0
H1084 H 0.00879 0.34255 0.10217 0.0
H1085 H 0.98943 0.45918 0.11844 0.0
H1086 H 0.01325 0.43071 0.05824 0.0
H1087 H 0.05159 0.41718 0.03309 0.0
H1088 H 0.12164 0.52321 0.03941 0.0
H1089 H 0.08398 0.53717 0.06476 0.0
C1090 C 0.91366 0.59992 0.09293 0.0
C1091 C 0.93733 0.63448 0.09249 0.0
C1092 C 0.92854 0.56692 0.09219 0.0
C1093 C 0.96724 0.56805 0.09097 0.0
C1094 C 0.99066 0.60249 0.08972 0.0
C1095 C 0.9759 0.63536 0.09054 0.0
C1096 C 0.98378 0.53361 0.09204 0.0
C1097 C 0.00692 0.52529 0.07835 0.0
C1098 C 0.97745 0.50949 0.10667 0.0
C1099 C 0.95507 0.51788 0.12201 0.0
C1100 C 0.96487 0.55127 0.13141 0.0
C1101 C 0.94336 0.55922 0.1457 0.0
C1102 C 0.91218 0.53383 0.15082 0.0
C1103 C 0.9025 0.50039 0.14168 0.0
C1104 C 0.92388 0.49233 0.12735 0.0
C1105 C 0.08892 0.40438 0.09588 0.0
C1106 C 0.06611 0.36996 0.09893 0.0
C1107 C 0.07314 0.43669 0.09398 0.0
C1108 C 0.03432 0.43501 0.09498 0.0
C1109 C 0.01164 0.40065 0.09793 0.0
C1110 C 0.02729 0.36854 0.09987 0.0
C1111 C 0.01705 0.46898 0.09342 0.0
C1112 C 0.99387 0.47735 0.10709 0.0
C1113 C 0.0234 0.4931 0.07877 0.0
C1114 C 0.04602 0.48481 0.06351 0.0
C1115 C 0.037 0.45101 0.05436 0.0
C1116 C 0.05858 0.44329 0.04005 0.0
C1117 C 0.08909 0.46927 0.03469 0.0
C1118 C 0.09803 0.50308 0.04359 0.0
C1119 C 0.07656 0.51093 0.05792 0.0
H1120 H 0.10576 0.46324 0.02361 0.0
H1121 H 0.89556 0.54004 0.16189 0.0
H1122 H 0.36904 0.43154 0.40502 0.0
H1123 H 0.4319 0.46511 0.40031 0.0
H1124 H 0.41373 0.4611 0.34423 0.0
H1125 H 0.35079 0.42572 0.34898 0.0
H1126 H 0.48507 0.45475 0.3521 0.0
H1127 H 0.40279 0.53812 0.36698 0.0
H1128 H 0.35294 0.55988 0.38401 0.0
H1129 H 0.42182 0.56986 0.43011 0.0
H1130 H 0.4719 0.54754 0.41345 0.0
H1131 H 0.64597 0.60244 0.34876 0.0
H1132 H 0.58034 0.57362 0.34511 0.0
H1133 H 0.57717 0.53679 0.39901 0.0
H1134 H 0.6425 0.56449 0.40262 0.0
H1135 H 0.51332 0.57153 0.38668 0.0
H1136 H 0.58739 0.4744 0.37245 0.0
H1137 H 0.63617 0.45026 0.35566 0.0
H1138 H 0.5816 0.46955 0.3073 0.0
H1139 H 0.53236 0.49372 0.32389 0.0
C1140 C 0.37876 0.43719 0.39168 0.0
C1141 C 0.35525 0.42639 0.37735 0.0
C1142 C 0.41453 0.45656 0.38899 0.0
C1143 C 0.42706 0.46664 0.37195 0.0
C1144 C 0.40444 0.45391 0.3575 0.0
C1145 C 0.36866 0.43368 0.36019 0.0
C1146 C 0.46292 0.49213 0.36962 0.0
C1147 C 0.49094 0.48071 0.35932 0.0
C1148 C 0.47061 0.52613 0.37901 0.0
C1149 C 0.44113 0.54104 0.38895 0.0
C1150 C 0.40731 0.54488 0.38076 0.0
C1151 C 0.37898 0.55726 0.39035 0.0
C1152 C 0.38421 0.56623 0.40812 0.0
C1153 C 0.41784 0.56294 0.41633 0.0
C1154 C 0.44625 0.55049 0.4068 0.0
C1155 C 0.63105 0.58851 0.35985 0.0
C1156 C 0.64926 0.5855 0.37594 0.0
C1157 C 0.59374 0.57205 0.35774 0.0
C1158 C 0.57409 0.55315 0.37181 0.0
C1159 C 0.5919 0.55136 0.38803 0.0
C1160 C 0.62923 0.56702 0.39003 0.0
C1161 C 0.5355 0.53347 0.36964 0.0
C1162 C 0.507 0.54608 0.37909 0.0
C1163 C 0.52724 0.50093 0.35931 0.0
C1164 C 0.55652 0.48619 0.34936 0.0
C1165 C 0.58596 0.4737 0.35823 0.0
C1166 C 0.61365 0.45998 0.34876 0.0
C1167 C 0.61216 0.45862 0.33041 0.0
C1168 C 0.58278 0.47072 0.32151 0.0
C1169 C 0.55492 0.48433 0.33094 0.0
H1170 H 0.63368 0.44805 0.3231 0.0
H1171 H 0.36224 0.57579 0.41553 0.0
H1172 H 0.3862 0.09774 0.59332 0.0
H1173 H 0.41092 0.03961 0.5894 0.0
H1174 H 0.52088 0.10205 0.58118 0.0
H1175 H 0.49652 0.15997 0.58506 0.0
H1176 H 0.50615 0.03818 0.55997 0.0
H1177 H 0.49945 0.07491 0.62051 0.0
H1178 H 0.46762 0.09429 0.64669 0.0
H1179 H 0.39094 0.99136 0.64574 0.0
H1180 H 0.42194 0.97166 0.61933 0.0
H1181 H 0.61326 0.89814 0.58716 0.0
H1182 H 0.58845 0.95639 0.58347 0.0
H1183 H 0.47813 0.89884 0.59554 0.0
H1184 H 0.50233 0.84132 0.59938 0.0
H1185 H 0.49431 0.96145 0.61416 0.0
H1186 H 0.50287 0.92395 0.55372 0.0
H1187 H 0.53495 0.9057 0.52737 0.0
H1188 H 0.6092 0.01017 0.52825 0.0
H1189 H 0.57786 0.02884 0.55477 0.0
C1190 C 0.41542 0.09903 0.59023 0.0
C1191 C 0.43955 0.13325 0.58972 0.0
C1192 C 0.42951 0.06589 0.58804 0.0
C1193 C 0.46779 0.06667 0.58521 0.0
C1194 C 0.49131 0.10089 0.58337 0.0
C1195 C 0.47736 0.13391 0.58571 0.0
C1196 C 0.48412 0.03221 0.58627 0.0
C1197 C 0.50381 0.02144 0.57183 0.0
C1198 C 0.481 0.01054 0.60176 0.0
C1199 C 0.46276 0.02199 0.61784 0.0
C1200 C 0.47563 0.05653 0.62581 0.0
C1201 C 0.45776 0.06757 0.64069 0.0
C1202 C 0.42721 0.04412 0.64785 0.0
C1203 C 0.41456 0.00952 0.64016 0.0
C1204 C 0.43228 0.9984 0.62524 0.0
C1205 C 0.58372 0.89796 0.58892 0.0
C1206 C 0.55986 0.86508 0.59361 0.0
C1207 C 0.56957 0.93117 0.58677 0.0
C1208 C 0.5314 0.93185 0.58919 0.0
C1209 C 0.50766 0.89899 0.59367 0.0
C1210 C 0.52165 0.86604 0.59583 0.0
C1211 C 0.51585 0.96678 0.58772 0.0
C1212 C 0.49654 0.97793 0.60222 0.0
C1213 C 0.51949 0.98875 0.5723 0.0
C1214 C 0.53828 0.97762 0.55634 0.0
C1215 C 0.52624 0.9429 0.54838 0.0
C1216 C 0.54425 0.93251 0.5334 0.0
C1217 C 0.57416 0.95672 0.52617 0.0
C1218 C 0.58606 0.99142 0.53388 0.0
C1219 C 0.56817 0.00194 0.54888 0.0
H1220 H 0.58806 0.94862 0.51457 0.0
H1221 H 0.4134 0.05271 0.65937 0.0
H1222 H 0.83871 0.97463 0.85827 0.0
H1223 H 0.90508 0.9988 0.85534 0.0
H1224 H 0.93111 0.89275 0.87154 0.0
H1225 H 0.86437 0.86816 0.87424 0.0
H1226 H 0.96352 0.95621 0.89229 0.0
H1227 H 0.95233 0.91734 0.83208 0.0
H1228 H 0.92458 0.91264 0.80245 0.0
H1229 H 0.94936 0.03128 0.79686 0.0
H1230 H 0.97676 0.03676 0.82658 0.0
H1231 H 0.15644 0.01038 0.88871 0.0
H1232 H 0.094 0.97726 0.88337 0.0
H1233 H 0.06511 0.07382 0.85753 0.0
H1234 H 0.12855 0.10703 0.86218 0.0
H1235 H 0.03468 0.01207 0.84055 0.0
H1236 H 0.04037 0.05357 0.89994 0.0
H1237 H 0.0662 0.06246 0.9298 0.0
H1238 H 0.04782 0.94432 0.93779 0.0
H1239 H 0.02263 0.93466 0.90773 0.0
C1240 C 0.85854 0.95625 0.86086 0.0
C1241 C 0.84649 0.91964 0.86661 0.0
C1242 C 0.89642 0.97002 0.85909 0.0
C1243 C 0.92291 0.94755 0.86324 0.0
C1244 C 0.91098 0.91043 0.86822 0.0
C1245 C 0.87294 0.89639 0.86968 0.0
C1246 C 0.96271 0.9643 0.86429 0.0
C1247 C 0.97942 0.96769 0.88093 0.0
C1248 C 0.98267 0.98068 0.84955 0.0
C1249 C 0.96633 0.97748 0.83163 0.0
C1250 C 0.95158 0.94247 0.8246 0.0
C1251 C 0.93596 0.93965 0.80777 0.0
C1252 C 0.93513 0.97165 0.79779 0.0
C1253 C 0.94999 0.00652 0.80461 0.0
C1254 C 0.96561 0.00949 0.82144 0.0
C1255 C 0.1371 0.02466 0.88172 0.0
C1256 C 0.14767 0.06152 0.87589 0.0
C1257 C 0.10122 0.00563 0.87875 0.0
C1258 C 0.07467 0.0232 0.87028 0.0
C1259 C 0.08517 0.05971 0.86411 0.0
C1260 C 0.12138 0.07872 0.86686 0.0
C1261 C 0.03566 0.00376 0.86857 0.0
C1262 C 0.01899 0.00017 0.85188 0.0
C1263 C 0.01532 0.98777 0.88333 0.0
C1264 C 0.02998 0.99339 0.90151 0.0
C1265 C 0.04209 0.02946 0.90801 0.0
C1266 C 0.05659 0.03464 0.92499 0.0
C1267 C 0.05869 0.00398 0.93572 0.0
C1268 C 0.04622 0.96805 0.92947 0.0
C1269 C 0.03185 0.9627 0.91244 0.0
H1270 H 0.06991 0.00806 0.94887 0.0
H1271 H 0.92303 0.96941 0.78477 0.0
loop_
_geom_bond_atom_site_label_1
_geom_bond_atom_site_label_2
_geom_bond_distance
_geom_bond_site_symmetry_2
_ccdc_geom_bond_type
Co0 O2 2.143 . S
Co0 O8 2.074 . S
Co0 O11 2.093 . S
Co0 O24 2.097 . S
Co0 N41 2.151 . S
Co0 N49 2.214 . S
Co1 O2 2.160 . S
Co1 O7 2.058 . S
Co1 O17 2.057 . S
Co1 O32 2.037 . S
Co1 N36 2.145 . S
Co1 N57 2.257 . S
O2 Co0 2.143 . S
O2 Co1 2.160 . S
C3 O4 1.278 . S
C3 O11 1.224 . S
O4 C3 1.278 . S
C5 O6 1.245 . S
C5 O17 1.232 . S
O6 C5 1.245 . S
O7 Co1 2.058 . S
O7 C33 1.269 . S
O8 Co0 2.074 . S
O8 C33 1.257 . S
H9 C34 0.930 . S
H10 C40 0.930 . S
O11 Co0 2.093 . S
O11 C3 1.224 . S
H12 C44 0.929 . S
H13 C46 0.930 . S
H14 C47 0.930 . S
H15 C45 0.929 . S
H16 C48 0.928 . S
O17 Co1 2.057 . S
O17 C5 1.232 . S
H18 C37 0.929 . S
H19 C38 0.929 . S
H20 C50 0.931 . S
H21 C42 0.929 . S
H22 C51 0.930 . S
H23 C43 0.931 . S
O24 Co0 2.097 . S
O24 C52 1.214 . S
H25 C53 0.929 . S
H26 C54 0.929 . S
H27 C55 0.930 1_655 S
H28 C56 0.929 1_655 S
H29 C58 0.930 . S
H30 C35 0.930 . S
H31 C39 0.930 . S
O32 Co1 2.037 . S
O32 C52 1.234 . S
C33 O7 1.269 . S
C33 O8 1.257 . S
C34 H9 0.930 . S
C34 C37 1.388 . S
C34 C39 1.418 1_455 S
C35 H30 0.930 . S
C35 C38 1.404 1_655 S
C35 C39 1.353 . S
N36 Co1 2.145 . S
N36 C37 1.397 . S
N36 C38 1.334 . S
C37 H18 0.929 . S
C37 C34 1.388 . S
C37 N36 1.397 . S
C38 H19 0.929 . S
C38 C35 1.404 1_455 S
C38 N36 1.334 . S
C39 H31 0.930 . S
C39 C34 1.418 1_655 S
C39 C35 1.353 . S
C40 H10 0.930 . S
C40 N41 1.330 . S
C40 C42 1.446 . S
N41 Co0 2.151 . S
N41 C40 1.330 . S
N41 C45 1.418 . S
C42 H21 0.929 . S
C42 C40 1.446 . S
C42 C43 1.332 . S
C43 H23 0.931 . S
C43 C42 1.332 . S
C43 C44 1.267 . S
C44 H12 0.929 . S
C44 C43 1.267 . S
C44 C45 1.251 . S
C45 H15 0.929 . S
C45 N41 1.418 . S
C45 C44 1.251 . S
C46 H13 0.930 . S
C46 C48 1.406 . S
C46 C51 1.261 . S
C47 H14 0.930 . S
C47 N49 1.325 . S
C47 C50 1.357 . S
C48 H16 0.928 . S
C48 C46 1.406 . S
C48 N49 1.261 . S
N49 Co0 2.214 . S
N49 C47 1.325 . S
N49 C48 1.261 . S
C50 H20 0.931 . S
C50 C47 1.357 . S
C50 C51 1.312 . S
C51 H22 0.930 . S
C51 C46 1.261 . S
C51 C50 1.312 . S
C52 O24 1.214 . S
C52 O32 1.234 . S
C53 H25 0.929 . S
C53 C56 1.391 . S
C53 C58 1.391 . S
C54 H26 0.929 . S
C54 C55 1.390 . S
C54 N57 1.391 . S
C55 H27 0.930 1_455 S
C55 C54 1.390 . S
C55 C56 1.392 . S
C56 H28 0.929 1_455 S
C56 C53 1.391 . S
C56 C55 1.392 . S
N57 Co1 2.257 . S
N57 C54 1.391 . S
N57 C58 1.388 . S
C58 H29 0.930 . S
C58 C53 1.391 . S
C58 N57 1.388 . S
Co59 O61 2.143 . S
Co59 O67 2.074 . S
Co59 O70 2.093 . S
Co59 O83 2.097 . S
Co59 N100 2.151 . S
Co59 N108 2.214 . S
Co60 O61 2.160 . S
Co60 O66 2.058 . S
Co60 O76 2.057 . S
Co60 O91 2.037 . S
Co60 N95 2.145 . S
Co60 N116 2.257 . S
O61 Co59 2.143 . S
O61 Co60 2.160 . S
C62 O63 1.278 . S
C62 O70 1.224 . S
O63 C62 1.278 . S
C64 O65 1.245 . S
C64 O76 1.232 . S
O65 C64 1.245 . S
O66 Co60 2.058 . S
O66 C92 1.269 . S
O67 Co59 2.074 . S
O67 C92 1.257 . S
H68 C93 0.930 . S
H69 C99 0.930 . S
O70 Co59 2.093 . S
O70 C62 1.224 . S
H71 C103 0.929 . S
H72 C105 0.930 . S
H73 C106 0.930 . S
H74 C104 0.929 . S
H75 C107 0.928 . S
O76 Co60 2.057 . S
O76 C64 1.232 . S
H77 C96 0.929 . S
H78 C97 0.929 . S
H79 C109 0.931 . S
H80 C101 0.929 . S
H81 C110 0.930 . S
H82 C102 0.931 . S
O83 Co59 2.097 . S
O83 C111 1.214 . S
H84 C112 0.929 . S
H85 C113 0.929 . S
H86 C114 0.930 . S
H87 C115 0.929 . S
H88 C117 0.930 . S
H89 C94 0.930 . S
H90 C98 0.930 . S
O91 Co60 2.037 . S
O91 C111 1.234 . S
C92 O66 1.269 . S
C92 O67 1.257 . S
C93 H68 0.930 . S
C93 C96 1.388 . S
C93 C98 1.418 . S
C94 H89 0.930 . S
C94 C97 1.404 . S
C94 C98 1.353 . S
N95 Co60 2.145 . S
N95 C96 1.397 . S
N95 C97 1.334 . S
C96 H77 0.929 . S
C96 C93 1.388 . S
C96 N95 1.397 . S
C97 H78 0.929 . S
C97 C94 1.404 . S
C97 N95 1.334 . S
C98 H90 0.930 . S
C98 C93 1.418 . S
C98 C94 1.353 . S
C99 H69 0.930 . S
C99 N100 1.330 . S
C99 C101 1.446 . S
N100 Co59 2.151 . S
N100 C99 1.330 . S
N100 C104 1.418 . S
C101 H80 0.929 . S
C101 C99 1.446 . S
C101 C102 1.332 . S
C102 H82 0.931 . S
C102 C101 1.332 . S
C102 C103 1.267 . S
C103 H71 0.929 . S
C103 C102 1.267 . S
C103 C104 1.251 . S
C104 H74 0.929 . S
C104 N100 1.418 . S
C104 C103 1.251 . S
C105 H72 0.930 . S
C105 C107 1.406 . S
C105 C110 1.261 . S
C106 H73 0.930 . S
C106 N108 1.325 . S
C106 C109 1.357 . S
C107 H75 0.928 . S
C107 C105 1.406 . S
C107 N108 1.261 . S
N108 Co59 2.214 . S
N108 C106 1.325 . S
N108 C107 1.261 . S
C109 H79 0.931 . S
C109 C106 1.357 . S
C109 C110 1.312 . S
C110 H81 0.930 . S
C110 C105 1.261 . S
C110 C109 1.312 . S
C111 O83 1.214 . S
C111 O91 1.234 . S
C112 H84 0.929 . S
C112 C115 1.391 . S
C112 C117 1.391 . S
C113 H85 0.929 . S
C113 C114 1.390 . S
C113 N116 1.391 . S
C114 H86 0.930 . S
C114 C113 1.390 . S
C114 C115 1.392 . S
C115 H87 0.929 . S
C115 C112 1.391 . S
C115 C114 1.392 . S
N116 Co60 2.257 . S
N116 C113 1.391 . S
N116 C117 1.388 . S
C117 H88 0.930 . S
C117 C112 1.391 . S
C117 N116 1.388 . S
Co118 O120 2.143 . S
Co118 O126 2.074 . S
Co118 O129 2.093 . S
Co118 O142 2.097 . S
Co118 N159 2.151 . S
Co118 N167 2.214 . S
Co119 O120 2.160 . S
Co119 O125 2.058 . S
Co119 O135 2.057 . S
Co119 O150 2.037 . S
Co119 N154 2.145 . S
Co119 N175 2.257 . S
O120 Co118 2.143 . S
O120 Co119 2.160 . S
C121 O122 1.278 . S
C121 O129 1.224 . S
O122 C121 1.278 . S
C123 O124 1.245 . S
C123 O135 1.232 . S
O124 C123 1.245 . S
O125 Co119 2.058 . S
O125 C151 1.269 . S
O126 Co118 2.074 . S
O126 C151 1.257 . S
H127 C152 0.930 . S
H128 C158 0.930 . S
O129 Co118 2.093 . S
O129 C121 1.224 . S
H130 C162 0.929 . S
H131 C164 0.930 . S
H132 C165 0.930 . S
H133 C163 0.929 . S
H134 C166 0.928 . S
O135 Co119 2.057 . S
O135 C123 1.232 . S
H136 C155 0.929 . S
H137 C156 0.929 . S
H138 C168 0.931 . S
H139 C160 0.929 . S
H140 C169 0.930 . S
H141 C161 0.931 . S
O142 Co118 2.097 . S
O142 C170 1.214 . S
H143 C171 0.929 . S
H144 C172 0.929 . S
H145 C173 0.930 . S
H146 C174 0.929 . S
H147 C176 0.930 . S
H148 C153 0.930 . S
H149 C157 0.930 . S
O150 Co119 2.037 . S
O150 C170 1.234 . S
C151 O125 1.269 . S
C151 O126 1.257 . S
C152 H127 0.930 . S
C152 C155 1.388 . S
C152 C157 1.418 . S
C153 H148 0.930 . S
C153 C156 1.404 . S
C153 C157 1.353 . S
N154 Co119 2.145 . S
N154 C155 1.397 . S
N154 C156 1.334 . S
C155 H136 0.929 . S
C155 C152 1.388 . S
C155 N154 1.397 . S
C156 H137 0.929 . S
C156 C153 1.404 . S
C156 N154 1.334 . S
C157 H149 0.930 . S
C157 C152 1.418 . S
C157 C153 1.353 . S
C158 H128 0.930 . S
C158 N159 1.330 . S
C158 C160 1.446 . S
N159 Co118 2.151 . S
N159 C158 1.330 . S
N159 C163 1.418 . S
C160 H139 0.929 . S
C160 C158 1.446 . S
C160 C161 1.332 . S
C161 H141 0.931 . S
C161 C160 1.332 . S
C161 C162 1.267 . S
C162 H130 0.929 . S
C162 C161 1.267 . S
C162 C163 1.251 . S
C163 H133 0.929 . S
C163 N159 1.418 . S
C163 C162 1.251 . S
C164 H131 0.930 . S
C164 C166 1.406 . S
C164 C169 1.261 . S
C165 H132 0.930 . S
C165 N167 1.325 . S
C165 C168 1.357 . S
C166 H134 0.928 . S
C166 C164 1.406 . S
C166 N167 1.261 . S
N167 Co118 2.214 . S
N167 C165 1.325 . S
N167 C166 1.261 . S
C168 H138 0.931 . S
C168 C165 1.357 . S
C168 C169 1.312 . S
C169 H140 0.930 . S
C169 C164 1.261 . S
C169 C168 1.312 . S
C170 O142 1.214 . S
C170 O150 1.234 . S
C171 H143 0.929 . S
C171 C174 1.391 . S
C171 C176 1.391 . S
C172 H144 0.929 . S
C172 C173 1.390 . S
C172 N175 1.391 . S
C173 H145 0.930 . S
C173 C172 1.390 . S
C173 C174 1.392 . S
C174 H146 0.929 . S
C174 C171 1.391 . S
C174 C173 1.392 . S
N175 Co119 2.257 . S
N175 C172 1.391 . S
N175 C176 1.388 . S
C176 H147 0.930 . S
C176 C171 1.391 . S
C176 N175 1.388 . S
Co177 O179 2.143 . S
Co177 O185 2.074 . S
Co177 O188 2.093 . S
Co177 O201 2.097 . S
Co177 N218 2.151 . S
Co177 N226 2.214 . S
Co178 O179 2.160 . S
Co178 O184 2.058 . S
Co178 O194 2.057 . S
Co178 O209 2.037 . S
Co178 N213 2.145 . S
Co178 N234 2.257 . S
O179 Co177 2.143 . S
O179 Co178 2.160 . S
C180 O181 1.278 . S
C180 O188 1.224 . S
O181 C180 1.278 . S
C182 O183 1.245 . S
C182 O194 1.232 . S
O183 C182 1.245 . S
O184 Co178 2.058 . S
O184 C210 1.269 . S
O185 Co177 2.074 . S
O185 C210 1.257 . S
H186 C211 0.930 . S
H187 C217 0.930 . S
O188 Co177 2.093 . S
O188 C180 1.224 . S
H189 C221 0.929 . S
H190 C223 0.930 . S
H191 C224 0.930 . S
H192 C222 0.929 . S
H193 C225 0.928 . S
O194 Co178 2.057 . S
O194 C182 1.232 . S
H195 C214 0.929 . S
H196 C215 0.929 . S
H197 C227 0.931 . S
H198 C219 0.929 . S
H199 C228 0.930 . S
H200 C220 0.931 . S
O201 Co177 2.097 . S
O201 C229 1.214 . S
H202 C230 0.929 . S
H203 C231 0.929 . S
H204 C232 0.930 1_545 S
H205 C233 0.929 1_545 S
H206 C235 0.930 . S
H207 C212 0.930 . S
H208 C216 0.930 . S
O209 Co178 2.037 . S
O209 C229 1.234 . S
C210 O184 1.269 . S
C210 O185 1.257 . S
C211 H186 0.930 . S
C211 C214 1.388 . S
C211 C216 1.418 1_565 S
C212 H207 0.930 . S
C212 C215 1.404 1_545 S
C212 C216 1.353 . S
N213 Co178 2.145 . S
N213 C214 1.397 . S
N213 C215 1.334 . S
C214 H195 0.929 . S
C214 C211 1.388 . S
C214 N213 1.397 . S
C215 H196 0.929 . S
C215 C212 1.404 1_565 S
C215 N213 1.334 . S
C216 H208 0.930 . S
C216 C211 1.418 1_545 S
C216 C212 1.353 . S
C217 H187 0.930 . S
C217 N218 1.330 . S
C217 C219 1.446 . S
N218 Co177 2.151 . S
N218 C217 1.330 . S
N218 C222 1.418 . S
C219 H198 0.929 . S
C219 C217 1.446 . S
C219 C220 1.332 . S
C220 H200 0.931 . S
C220 C219 1.332 . S
C220 C221 1.267 . S
C221 H189 0.929 . S
C221 C220 1.267 . S
C221 C222 1.251 . S
C222 H192 0.929 . S
C222 N218 1.418 . S
C222 C221 1.251 . S
C223 H190 0.930 . S
C223 C225 1.406 . S
C223 C228 1.261 . S
C224 H191 0.930 . S
C224 N226 1.325 . S
C224 C227 1.357 . S
C225 H193 0.928 . S
C225 C223 1.406 . S
C225 N226 1.261 . S
N226 Co177 2.214 . S
N226 C224 1.325 . S
N226 C225 1.261 . S
C227 H197 0.931 . S
C227 C224 1.357 . S
C227 C228 1.312 . S
C228 H199 0.930 . S
C228 C223 1.261 . S
C228 C227 1.312 . S
C229 O201 1.214 . S
C229 O209 1.234 . S
C230 H202 0.929 . S
C230 C233 1.391 . S
C230 C235 1.391 . S
C231 H203 0.929 . S
C231 C232 1.390 . S
C231 N234 1.391 . S
C232 H204 0.930 1_565 S
C232 C231 1.390 . S
C232 C233 1.392 . S
C233 H205 0.929 1_565 S
C233 C230 1.391 . S
C233 C232 1.392 . S
N234 Co178 2.257 . S
N234 C231 1.391 . S
N234 C235 1.388 . S
C235 H206 0.930 . S
C235 C230 1.391 . S
C235 N234 1.388 . S
Co236 O238 2.143 . S
Co236 O244 2.074 . S
Co236 O247 2.093 . S
Co236 O260 2.097 . S
Co236 N277 2.151 . S
Co236 N285 2.214 . S
Co237 O238 2.160 . S
Co237 O243 2.058 . S
Co237 O253 2.057 . S
Co237 O268 2.037 . S
Co237 N272 2.145 . S
Co237 N293 2.257 . S
O238 Co236 2.143 . S
O238 Co237 2.160 . S
C239 O240 1.278 . S
C239 O247 1.224 . S
O240 C239 1.278 . S
C241 O242 1.245 . S
C241 O253 1.232 . S
O242 C241 1.245 . S
O243 Co237 2.058 . S
O243 C269 1.269 . S
O244 Co236 2.074 . S
O244 C269 1.257 . S
H245 C270 0.930 . S
H246 C276 0.930 . S
O247 Co236 2.093 . S
O247 C239 1.224 . S
H248 C280 0.929 . S
H249 C282 0.930 . S
H250 C283 0.930 . S
H251 C281 0.929 . S
H252 C284 0.928 . S
O253 Co237 2.057 . S
O253 C241 1.232 . S
H254 C273 0.929 . S
H255 C274 0.929 . S
H256 C286 0.931 . S
H257 C278 0.929 . S
H258 C287 0.930 . S
H259 C279 0.931 . S
O260 Co236 2.097 . S
O260 C288 1.214 . S
H261 C289 0.929 . S
H262 C290 0.929 . S
H263 C291 0.930 . S
H264 C292 0.929 . S
H265 C294 0.930 . S
H266 C271 0.930 . S
H267 C275 0.930 . S
O268 Co237 2.037 . S
O268 C288 1.234 . S
C269 O243 1.269 . S
C269 O244 1.257 . S
C270 H245 0.930 . S
C270 C273 1.388 . S
C270 C275 1.418 . S
C271 H266 0.930 . S
C271 C274 1.404 . S
C271 C275 1.353 . S
N272 Co237 2.145 . S
N272 C273 1.397 . S
N272 C274 1.334 . S
C273 H254 0.929 . S
C273 C270 1.388 . S
C273 N272 1.397 . S
C274 H255 0.929 . S
C274 C271 1.404 . S
C274 N272 1.334 . S
C275 H267 0.930 . S
C275 C270 1.418 . S
C275 C271 1.353 . S
C276 H246 0.930 . S
C276 N277 1.330 . S
C276 C278 1.446 . S
N277 Co236 2.151 . S
N277 C276 1.330 . S
N277 C281 1.418 . S
C278 H257 0.929 . S
C278 C276 1.446 . S
C278 C279 1.332 . S
C279 H259 0.931 . S
C279 C278 1.332 . S
C279 C280 1.267 . S
C280 H248 0.929 . S
C280 C279 1.267 . S
C280 C281 1.251 . S
C281 H251 0.929 . S
C281 N277 1.418 . S
C281 C280 1.251 . S
C282 H249 0.930 . S
C282 C284 1.406 . S
C282 C287 1.261 . S
C283 H250 0.930 . S
C283 N285 1.325 . S
C283 C286 1.357 . S
C284 H252 0.928 . S
C284 C282 1.406 . S
C284 N285 1.261 . S
N285 Co236 2.214 . S
N285 C283 1.325 . S
N285 C284 1.261 . S
C286 H256 0.931 . S
C286 C283 1.357 . S
C286 C287 1.312 . S
C287 H258 0.930 . S
C287 C282 1.261 . S
C287 C286 1.312 . S
C288 O260 1.214 . S
C288 O268 1.234 . S
C289 H261 0.929 . S
C289 C292 1.391 . S
C289 C294 1.391 . S
C290 H262 0.929 . S
C290 C291 1.390 . S
C290 N293 1.391 . S
C291 H263 0.930 . S
C291 C290 1.390 . S
C291 C292 1.392 . S
C292 H264 0.929 . S
C292 C289 1.391 . S
C292 C291 1.392 . S
N293 Co237 2.257 . S
N293 C290 1.391 . S
N293 C294 1.388 . S
C294 H265 0.930 . S
C294 C289 1.391 . S
C294 N293 1.388 . S
Co295 O297 2.143 . S
Co295 O303 2.074 . S
Co295 O306 2.093 . S
Co295 O319 2.097 . S
Co295 N336 2.151 . S
Co295 N344 2.214 . S
Co296 O297 2.160 . S
Co296 O302 2.058 . S
Co296 O312 2.057 . S
Co296 O327 2.037 . S
Co296 N331 2.145 . S
Co296 N352 2.257 . S
O297 Co295 2.143 . S
O297 Co296 2.160 . S
C298 O299 1.278 . S
C298 O306 1.224 . S
O299 C298 1.278 . S
C300 O301 1.245 . S
C300 O312 1.232 . S
O301 C300 1.245 . S
O302 Co296 2.058 . S
O302 C328 1.269 . S
O303 Co295 2.074 . S
O303 C328 1.257 . S
H304 C329 0.930 . S
H305 C335 0.930 . S
O306 Co295 2.093 . S
O306 C298 1.224 . S
H307 C339 0.929 . S
H308 C341 0.930 . S
H309 C342 0.930 . S
H310 C340 0.929 . S
H311 C343 0.928 . S
O312 Co296 2.057 . S
O312 C300 1.232 . S
H313 C332 0.929 . S
H314 C333 0.929 . S
H315 C345 0.931 . S
H316 C337 0.929 . S
H317 C346 0.930 . S
H318 C338 0.931 . S
O319 Co295 2.097 . S
O319 C347 1.214 . S
H320 C348 0.929 . S
H321 C349 0.929 . S
H322 C350 0.930 1_565 S
H323 C351 0.929 1_565 S
H324 C353 0.930 . S
H325 C330 0.930 . S
H326 C334 0.930 . S
O327 Co296 2.037 . S
O327 C347 1.234 . S
C328 O302 1.269 . S
C328 O303 1.257 . S
C329 H304 0.930 . S
C329 C332 1.388 . S
C329 C334 1.418 1_545 S
C330 H325 0.930 . S
C330 C333 1.404 1_565 S
C330 C334 1.353 . S
N331 Co296 2.145 . S
N331 C332 1.397 . S
N331 C333 1.334 . S
C332 H313 0.929 . S
C332 C329 1.388 . S
C332 N331 1.397 . S
C333 H314 0.929 . S
C333 C330 1.404 1_545 S
C333 N331 1.334 . S
C334 H326 0.930 . S
C334 C329 1.418 1_565 S
C334 C330 1.353 . S
C335 H305 0.930 . S
C335 N336 1.330 . S
C335 C337 1.446 . S
N336 Co295 2.151 . S
N336 C335 1.330 . S
N336 C340 1.418 . S
C337 H316 0.929 . S
C337 C335 1.446 . S
C337 C338 1.332 . S
C338 H318 0.931 . S
C338 C337 1.332 . S
C338 C339 1.267 . S
C339 H307 0.929 . S
C339 C338 1.267 . S
C339 C340 1.251 . S
C340 H310 0.929 . S
C340 N336 1.418 . S
C340 C339 1.251 . S
C341 H308 0.930 . S
C341 C343 1.406 . S
C341 C346 1.261 . S
C342 H309 0.930 . S
C342 N344 1.325 . S
C342 C345 1.357 . S
C343 H311 0.928 . S
C343 C341 1.406 . S
C343 N344 1.261 . S
N344 Co295 2.214 . S
N344 C342 1.325 . S
N344 C343 1.261 . S
C345 H315 0.931 . S
C345 C342 1.357 . S
C345 C346 1.312 . S
C346 H317 0.930 . S
C346 C341 1.261 . S
C346 C345 1.312 . S
C347 O319 1.214 . S
C347 O327 1.234 . S
C348 H320 0.929 . S
C348 C351 1.391 . S
C348 C353 1.391 . S
C349 H321 0.929 . S
C349 C350 1.390 . S
C349 N352 1.391 . S
C350 H322 0.930 1_545 S
C350 C349 1.390 . S
C350 C351 1.392 . S
C351 H323 0.929 1_545 S
C351 C348 1.391 . S
C351 C350 1.392 . S
N352 Co296 2.257 . S
N352 C349 1.391 . S
N352 C353 1.388 . S
C353 H324 0.930 . S
C353 C348 1.391 . S
C353 N352 1.388 . S
Co354 O356 2.143 . S
Co354 O362 2.074 . S
Co354 O365 2.093 . S
Co354 O378 2.097 . S
Co354 N395 2.151 . S
Co354 N403 2.214 . S
Co355 O356 2.160 . S
Co355 O361 2.058 . S
Co355 O371 2.057 . S
Co355 O386 2.037 . S
Co355 N390 2.145 . S
Co355 N411 2.257 . S
O356 Co354 2.143 . S
O356 Co355 2.160 . S
C357 O358 1.278 . S
C357 O365 1.224 . S
O358 C357 1.278 . S
C359 O360 1.245 . S
C359 O371 1.232 . S
O360 C359 1.245 . S
O361 Co355 2.058 . S
O361 C387 1.269 . S
O362 Co354 2.074 . S
O362 C387 1.257 . S
H363 C388 0.930 . S
H364 C394 0.930 . S
O365 Co354 2.093 . S
O365 C357 1.224 . S
H366 C398 0.929 . S
H367 C400 0.930 . S
H368 C401 0.930 . S
H369 C399 0.929 . S
H370 C402 0.928 . S
O371 Co355 2.057 . S
O371 C359 1.232 . S
H372 C391 0.929 . S
H373 C392 0.929 . S
H374 C404 0.931 . S
H375 C396 0.929 . S
H376 C405 0.930 . S
H377 C397 0.931 . S
O378 Co354 2.097 . S
O378 C406 1.214 . S
H379 C407 0.929 . S
H380 C408 0.929 . S
H381 C409 0.930 1_455 S
H382 C410 0.929 1_455 S
H383 C412 0.930 . S
H384 C389 0.930 . S
H385 C393 0.930 . S
O386 Co355 2.037 . S
O386 C406 1.234 . S
C387 O361 1.269 . S
C387 O362 1.257 . S
C388 H363 0.930 . S
C388 C391 1.388 . S
C388 C393 1.418 1_655 S
C389 H384 0.930 . S
C389 C392 1.404 1_455 S
C389 C393 1.353 . S
N390 Co355 2.145 . S
N390 C391 1.397 . S
N390 C392 1.334 . S
C391 H372 0.929 . S
C391 C388 1.388 . S
C391 N390 1.397 . S
C392 H373 0.929 . S
C392 C389 1.404 1_655 S
C392 N390 1.334 . S
C393 H385 0.930 . S
C393 C388 1.418 1_455 S
C393 C389 1.353 . S
C394 H364 0.930 . S
C394 N395 1.330 . S
C394 C396 1.446 . S
N395 Co354 2.151 . S
N395 C394 1.330 . S
N395 C399 1.418 . S
C396 H375 0.929 . S
C396 C394 1.446 . S
C396 C397 1.332 . S
C397 H377 0.931 . S
C397 C396 1.332 . S
C397 C398 1.267 . S
C398 H366 0.929 . S
C398 C397 1.267 . S
C398 C399 1.251 . S
C399 H369 0.929 . S
C399 N395 1.418 . S
C399 C398 1.251 . S
C400 H367 0.930 . S
C400 C402 1.406 . S
C400 C405 1.261 . S
C401 H368 0.930 . S
C401 N403 1.325 . S
C401 C404 1.357 . S
C402 H370 0.928 . S
C402 C400 1.406 . S
C402 N403 1.261 . S
N403 Co354 2.214 . S
N403 C401 1.325 . S
N403 C402 1.261 . S
C404 H374 0.931 . S
C404 C401 1.357 . S
C404 C405 1.312 . S
C405 H376 0.930 . S
C405 C400 1.261 . S
C405 C404 1.312 . S
C406 O378 1.214 . S
C406 O386 1.234 . S
C407 H379 0.929 . S
C407 C410 1.391 . S
C407 C412 1.391 . S
C408 H380 0.929 . S
C408 C409 1.390 . S
C408 N411 1.391 . S
C409 H381 0.930 1_655 S
C409 C408 1.390 . S
C409 C410 1.392 . S
C410 H382 0.929 1_655 S
C410 C407 1.391 . S
C410 C409 1.392 . S
N411 Co355 2.257 . S
N411 C408 1.391 . S
N411 C412 1.388 . S
C412 H383 0.930 . S
C412 C407 1.391 . S
C412 N411 1.388 . S
Co413 O415 2.143 . S
Co413 O421 2.074 . S
Co413 O424 2.093 . S
Co413 O437 2.097 . S
Co413 N454 2.151 . S
Co413 N462 2.214 . S
Co414 O415 2.160 . S
Co414 O420 2.058 . S
Co414 O430 2.057 . S
Co414 O445 2.037 . S
Co414 N449 2.145 . S
Co414 N470 2.257 . S
O415 Co413 2.143 . S
O415 Co414 2.160 . S
C416 O417 1.278 . S
C416 O424 1.224 . S
O417 C416 1.278 . S
C418 O419 1.245 . S
C418 O430 1.232 . S
O419 C418 1.245 . S
O420 Co414 2.058 . S
O420 C446 1.269 . S
O421 Co413 2.074 . S
O421 C446 1.257 . S
H422 C447 0.930 . S
H423 C453 0.930 . S
O424 Co413 2.093 . S
O424 C416 1.224 . S
H425 C457 0.929 . S
H426 C459 0.930 . S
H427 C460 0.930 . S
H428 C458 0.929 . S
H429 C461 0.928 . S
O430 Co414 2.057 . S
O430 C418 1.232 . S
H431 C450 0.929 . S
H432 C451 0.929 . S
H433 C463 0.931 . S
H434 C455 0.929 . S
H435 C464 0.930 . S
H436 C456 0.931 . S
O437 Co413 2.097 . S
O437 C465 1.214 . S
H438 C466 0.929 . S
H439 C467 0.929 . S
H440 C468 0.930 . S
H441 C469 0.929 . S
H442 C471 0.930 . S
H443 C448 0.930 . S
H444 C452 0.930 . S
O445 Co414 2.037 . S
O445 C465 1.234 . S
C446 O420 1.269 . S
C446 O421 1.257 . S
C447 H422 0.930 . S
C447 C450 1.388 . S
C447 C452 1.418 . S
C448 H443 0.930 . S
C448 C451 1.404 . S
C448 C452 1.353 . S
N449 Co414 2.145 . S
N449 C450 1.397 . S
N449 C451 1.334 . S
C450 H431 0.929 . S
C450 C447 1.388 . S
C450 N449 1.397 . S
C451 H432 0.929 . S
C451 C448 1.404 . S
C451 N449 1.334 . S
C452 H444 0.930 . S
C452 C447 1.418 . S
C452 C448 1.353 . S
C453 H423 0.930 . S
C453 N454 1.330 . S
C453 C455 1.446 . S
N454 Co413 2.151 . S
N454 C453 1.330 . S
N454 C458 1.418 . S
C455 H434 0.929 . S
C455 C453 1.446 . S
C455 C456 1.332 . S
C456 H436 0.931 . S
C456 C455 1.332 . S
C456 C457 1.267 . S
C457 H425 0.929 . S
C457 C456 1.267 . S
C457 C458 1.251 . S
C458 H428 0.929 . S
C458 N454 1.418 . S
C458 C457 1.251 . S
C459 H426 0.930 . S
C459 C461 1.406 . S
C459 C464 1.261 . S
C460 H427 0.930 . S
C460 N462 1.325 . S
C460 C463 1.357 . S
C461 H429 0.928 . S
C461 C459 1.406 . S
C461 N462 1.261 . S
N462 Co413 2.214 . S
N462 C460 1.325 . S
N462 C461 1.261 . S
C463 H433 0.931 . S
C463 C460 1.357 . S
C463 C464 1.312 . S
C464 H435 0.930 . S
C464 C459 1.261 . S
C464 C463 1.312 . S
C465 O437 1.214 . S
C465 O445 1.234 . S
C466 H438 0.929 . S
C466 C469 1.391 . S
C466 C471 1.391 . S
C467 H439 0.929 . S
C467 C468 1.390 . S
C467 N470 1.391 . S
C468 H440 0.930 . S
C468 C467 1.390 . S
C468 C469 1.392 . S
C469 H441 0.929 . S
C469 C466 1.391 . S
C469 C468 1.392 . S
N470 Co414 2.257 . S
N470 C467 1.391 . S
N470 C471 1.388 . S
C471 H442 0.930 . S
C471 C466 1.391 . S
C471 N470 1.388 . S
H472 C490 0.951 . S
H473 C492 0.951 . S
H474 C494 0.950 . S
H475 C495 0.950 . S
H476 C497 0.950 . S
H477 C500 0.950 . S
H478 C501 0.950 . S
H479 C503 0.950 . S
H480 C504 0.950 . S
H481 C505 0.951 . S
H482 C507 0.951 . S
H483 C509 0.950 . S
H484 C510 0.950 . S
H485 C512 0.950 . S
H486 C515 0.950 . S
H487 C516 0.950 . S
H488 C518 0.950 . S
H489 C519 0.950 . S
C490 H472 0.951 . S
C490 C491 1.366 . S
C490 C492 1.388 . S
C491 C490 1.366 . S
C491 C495 1.385 . S
C492 H473 0.951 . S
C492 C490 1.388 . S
C492 C493 1.366 . S
C493 C492 1.366 . S
C493 C494 1.414 . S
C493 C496 1.499 . S
C494 H474 0.950 . S
C494 C493 1.414 . S
C494 C495 1.374 . S
C495 H475 0.950 . S
C495 C491 1.385 . S
C495 C494 1.374 . S
C496 C493 1.499 . S
C496 C497 1.373 . S
C496 C498 1.389 . S
C497 H476 0.950 . S
C497 C496 1.373 . S
C497 C513 1.377 1_554 S
C498 C496 1.389 . S
C498 C499 1.524 . S
C498 C512 1.377 1_554 S
C499 C498 1.524 . S
C499 C500 1.397 . S
C499 C504 1.363 . S
C500 H477 0.950 . S
C500 C499 1.397 . S
C500 C501 1.334 . S
C501 H478 0.950 . S
C501 C500 1.334 . S
C501 C502 1.287 . S
C502 C501 1.287 . S
C502 C503 1.524 . S
C502 H521 0.913 . S
C503 H479 0.950 . S
C503 C502 1.524 . S
C503 C504 1.415 . S
C504 H480 0.950 . S
C504 C499 1.363 . S
C504 C503 1.415 . S
C505 H481 0.951 . S
C505 C506 1.366 . S
C505 C507 1.388 . S
C506 C505 1.366 . S
C506 C510 1.385 . S
C507 H482 0.951 . S
C507 C505 1.388 . S
C507 C508 1.366 . S
C508 C507 1.366 . S
C508 C509 1.414 . S
C508 C511 1.499 . S
C509 H483 0.950 . S
C509 C508 1.414 . S
C509 C510 1.374 . S
C510 H484 0.950 . S
C510 C506 1.385 . S
C510 C509 1.374 . S
C511 C508 1.499 . S
C511 C512 1.373 . S
C511 C513 1.389 . S
C512 H485 0.950 . S
C512 C498 1.377 1_556 S
C512 C511 1.373 . S
C513 C497 1.377 1_556 S
C513 C511 1.389 . S
C513 C514 1.524 . S
C514 C513 1.524 . S
C514 C515 1.397 . S
C514 C519 1.363 . S
C515 H486 0.950 . S
C515 C514 1.397 . S
C515 C516 1.334 . S
C516 H487 0.950 . S
C516 C515 1.334 . S
C516 C517 1.287 . S
C517 C516 1.287 . S
C517 C518 1.524 . S
C517 H520 0.999 . S
C518 H488 0.950 . S
C518 C517 1.524 . S
C518 C519 1.415 . S
C519 H489 0.950 . S
C519 C514 1.363 . S
C519 C518 1.415 . S
H520 C517 0.999 . S
H521 C502 0.913 . S
H522 C540 0.951 . S
H523 C542 0.951 . S
H524 C544 0.950 . S
H525 C545 0.950 . S
H526 C547 0.950 . S
H527 C550 0.950 . S
H528 C551 0.950 . S
H529 C553 0.950 . S
H530 C554 0.950 . S
H531 C555 0.951 . S
H532 C557 0.951 . S
H533 C559 0.950 . S
H534 C560 0.950 . S
H535 C562 0.950 . S
H536 C565 0.950 . S
H537 C566 0.950 . S
H538 C568 0.950 . S
H539 C569 0.950 . S
C540 H522 0.951 . S
C540 C541 1.366 . S
C540 C542 1.388 . S
C541 C540 1.366 . S
C541 C545 1.385 . S
C542 H523 0.951 . S
C542 C540 1.388 . S
C542 C543 1.366 . S
C543 C542 1.366 . S
C543 C544 1.414 . S
C543 C546 1.499 . S
C544 H524 0.950 . S
C544 C543 1.414 . S
C544 C545 1.374 . S
C545 H525 0.950 . S
C545 C541 1.385 . S
C545 C544 1.374 . S
C546 C543 1.499 . S
C546 C547 1.373 . S
C546 C548 1.389 . S
C547 H526 0.950 . S
C547 C546 1.373 . S
C547 C563 1.377 . S
C548 C546 1.389 . S
C548 C549 1.524 . S
C548 C562 1.377 . S
C549 C548 1.524 . S
C549 C550 1.397 . S
C549 C554 1.363 . S
C550 H527 0.950 . S
C550 C549 1.397 . S
C550 C551 1.334 . S
C551 H528 0.950 . S
C551 C550 1.334 . S
C551 C552 1.287 . S
C552 C551 1.287 . S
C552 C553 1.524 . S
C552 H571 0.913 . S
C553 H529 0.950 . S
C553 C552 1.524 . S
C553 C554 1.415 . S
C554 H530 0.950 . S
C554 C549 1.363 . S
C554 C553 1.415 . S
C555 H531 0.951 . S
C555 C556 1.366 . S
C555 C557 1.388 . S
C556 C555 1.366 . S
C556 C560 1.385 . S
C557 H532 0.951 . S
C557 C555 1.388 . S
C557 C558 1.366 . S
C558 C557 1.366 . S
C558 C559 1.414 . S
C558 C561 1.499 . S
C559 H533 0.950 . S
C559 C558 1.414 . S
C559 C560 1.374 . S
C560 H534 0.950 . S
C560 C556 1.385 . S
C560 C559 1.374 . S
C561 C558 1.499 . S
C561 C562 1.373 . S
C561 C563 1.389 . S
C562 H535 0.950 . S
C562 C548 1.377 . S
C562 C561 1.373 . S
C563 C547 1.377 . S
C563 C561 1.389 . S
C563 C564 1.524 . S
C564 C563 1.524 . S
C564 C565 1.397 . S
C564 C569 1.363 . S
C565 H536 0.950 . S
C565 C564 1.397 . S
C565 C566 1.334 . S
C566 H537 0.950 . S
C566 C565 1.334 . S
C566 C567 1.287 . S
C567 C566 1.287 . S
C567 C568 1.524 . S
C567 H570 0.999 . S
C568 H538 0.950 . S
C568 C567 1.524 . S
C568 C569 1.415 . S
C569 H539 0.950 . S
C569 C564 1.363 . S
C569 C568 1.415 . S
H570 C567 0.999 . S
H571 C552 0.913 . S
H572 C590 0.951 . S
H573 C592 0.951 . S
H574 C594 0.950 . S
H575 C595 0.950 . S
H576 C597 0.950 . S
H577 C600 0.950 . S
H578 C601 0.950 . S
H579 C603 0.950 . S
H580 C604 0.950 . S
H581 C605 0.951 . S
H582 C607 0.951 . S
H583 C609 0.950 . S
H584 C610 0.950 . S
H585 C612 0.950 . S
H586 C615 0.950 . S
H587 C616 0.950 . S
H588 C618 0.950 . S
H589 C619 0.950 . S
C590 H572 0.951 . S
C590 C591 1.366 . S
C590 C592 1.388 . S
C591 C590 1.366 . S
C591 C595 1.385 . S
C592 H573 0.951 . S
C592 C590 1.388 . S
C592 C593 1.366 . S
C593 C592 1.366 . S
C593 C594 1.414 . S
C593 C596 1.499 . S
C594 H574 0.950 . S
C594 C593 1.414 . S
C594 C595 1.374 . S
C595 H575 0.950 . S
C595 C591 1.385 . S
C595 C594 1.374 . S
C596 C593 1.499 . S
C596 C597 1.373 . S
C596 C598 1.389 . S
C597 H576 0.950 . S
C597 C596 1.373 . S
C597 C613 1.377 . S
C598 C596 1.389 . S
C598 C599 1.524 . S
C598 C612 1.377 . S
C599 C598 1.524 . S
C599 C600 1.397 . S
C599 C604 1.363 . S
C600 H577 0.950 . S
C600 C599 1.397 . S
C600 C601 1.334 . S
C601 H578 0.950 . S
C601 C600 1.334 . S
C601 C602 1.287 . S
C602 C601 1.287 . S
C602 C603 1.524 . S
C602 H621 0.913 . S
C603 H579 0.950 . S
C603 C602 1.524 . S
C603 C604 1.415 . S
C604 H580 0.950 . S
C604 C599 1.363 . S
C604 C603 1.415 . S
C605 H581 0.951 . S
C605 C606 1.366 . S
C605 C607 1.388 . S
C606 C605 1.366 . S
C606 C610 1.385 . S
C607 H582 0.951 . S
C607 C605 1.388 . S
C607 C608 1.366 . S
C608 C607 1.366 . S
C608 C609 1.414 . S
C608 C611 1.499 . S
C609 H583 0.950 . S
C609 C608 1.414 . S
C609 C610 1.374 . S
C610 H584 0.950 . S
C610 C606 1.385 . S
C610 C609 1.374 . S
C611 C608 1.499 . S
C611 C612 1.373 . S
C611 C613 1.389 . S
C612 H585 0.950 . S
C612 C598 1.377 . S
C612 C611 1.373 . S
C613 C597 1.377 . S
C613 C611 1.389 . S
C613 C614 1.524 . S
C614 C613 1.524 . S
C614 C615 1.397 . S
C614 C619 1.363 . S
C615 H586 0.950 . S
C615 C614 1.397 . S
C615 C616 1.334 . S
C616 H587 0.950 . S
C616 C615 1.334 . S
C616 C617 1.287 . S
C617 C616 1.287 . S
C617 C618 1.524 . S
C617 H620 0.999 . S
C618 H588 0.950 . S
C618 C617 1.524 . S
C618 C619 1.415 . S
C619 H589 0.950 . S
C619 C614 1.363 . S
C619 C618 1.415 . S
H620 C617 0.999 . S
H621 C602 0.913 . S
H622 C640 0.951 . S
H623 C642 0.951 . S
H624 C644 0.950 . S
H625 C645 0.950 . S
H626 C647 0.950 . S
H627 C650 0.950 . S
H628 C651 0.950 . S
H629 C653 0.950 . S
H630 C654 0.950 . S
H631 C655 0.951 . S
H632 C657 0.951 . S
H633 C659 0.950 . S
H634 C660 0.950 . S
H635 C662 0.950 . S
H636 C665 0.950 . S
H637 C666 0.950 . S
H638 C668 0.950 . S
H639 C669 0.950 . S
C640 H622 0.951 . S
C640 C641 1.366 . S
C640 C642 1.388 . S
C641 C640 1.366 . S
C641 C645 1.385 . S
C642 H623 0.951 . S
C642 C640 1.388 . S
C642 C643 1.366 . S
C643 C642 1.366 . S
C643 C644 1.414 . S
C643 C646 1.499 . S
C644 H624 0.950 . S
C644 C643 1.414 . S
C644 C645 1.374 . S
C645 H625 0.950 . S
C645 C641 1.385 . S
C645 C644 1.374 . S
C646 C643 1.499 . S
C646 C647 1.373 . S
C646 C648 1.389 . S
C647 H626 0.950 . S
C647 C646 1.373 . S
C647 C663 1.377 . S
C648 C646 1.389 . S
C648 C649 1.524 . S
C648 C662 1.377 . S
C649 C648 1.524 . S
C649 C650 1.397 . S
C649 C654 1.363 . S
C650 H627 0.950 . S
C650 C649 1.397 . S
C650 C651 1.334 . S
C651 H628 0.950 . S
C651 C650 1.334 . S
C651 C652 1.287 . S
C652 C651 1.287 . S
C652 C653 1.524 . S
C652 H671 0.913 . S
C653 H629 0.950 . S
C653 C652 1.524 . S
C653 C654 1.415 . S
C654 H630 0.950 . S
C654 C649 1.363 . S
C654 C653 1.415 . S
C655 H631 0.951 . S
C655 C656 1.366 . S
C655 C657 1.388 . S
C656 C655 1.366 . S
C656 C660 1.385 . S
C657 H632 0.951 . S
C657 C655 1.388 . S
C657 C658 1.366 . S
C658 C657 1.366 . S
C658 C659 1.414 . S
C658 C661 1.499 . S
C659 H633 0.950 . S
C659 C658 1.414 . S
C659 C660 1.374 . S
C660 H634 0.950 . S
C660 C656 1.385 . S
C660 C659 1.374 . S
C661 C658 1.499 . S
C661 C662 1.373 . S
C661 C663 1.389 . S
C662 H635 0.950 . S
C662 C648 1.377 . S
C662 C661 1.373 . S
C663 C647 1.377 . S
C663 C661 1.389 . S
C663 C664 1.524 . S
C664 C663 1.524 . S
C664 C665 1.397 . S
C664 C669 1.363 . S
C665 H636 0.950 . S
C665 C664 1.397 . S
C665 C666 1.334 . S
C666 H637 0.950 . S
C666 C665 1.334 . S
C666 C667 1.287 . S
C667 C666 1.287 . S
C667 C668 1.524 . S
C667 H670 0.999 . S
C668 H638 0.950 . S
C668 C667 1.524 . S
C668 C669 1.415 . S
C669 H639 0.950 . S
C669 C664 1.363 . S
C669 C668 1.415 . S
H670 C667 0.999 . S
H671 C652 0.913 . S
H672 C690 0.951 . S
H673 C692 0.951 . S
H674 C694 0.950 . S
H675 C695 0.950 . S
H676 C697 0.950 . S
H677 C700 0.950 . S
H678 C701 0.950 . S
H679 C703 0.950 . S
H680 C704 0.950 . S
H681 C705 0.951 . S
H682 C707 0.951 . S
H683 C709 0.950 . S
H684 C710 0.950 . S
H685 C712 0.950 . S
H686 C715 0.950 . S
H687 C716 0.950 . S
H688 C718 0.950 . S
H689 C719 0.950 . S
C690 H672 0.951 . S
C690 C691 1.366 . S
C690 C692 1.388 . S
C691 C690 1.366 . S
C691 C695 1.385 . S
C692 H673 0.951 . S
C692 C690 1.388 . S
C692 C693 1.366 . S
C693 C692 1.366 . S
C693 C694 1.414 . S
C693 C696 1.499 . S
C694 H674 0.950 . S
C694 C693 1.414 . S
C694 C695 1.374 . S
C695 H675 0.950 . S
C695 C691 1.385 . S
C695 C694 1.374 . S
C696 C693 1.499 . S
C696 C697 1.373 . S
C696 C698 1.389 . S
C697 H676 0.950 . S
C697 C696 1.373 . S
C697 C713 1.377 . S
C698 C696 1.389 . S
C698 C699 1.524 . S
C698 C712 1.377 . S
C699 C698 1.524 . S
C699 C700 1.397 . S
C699 C704 1.363 . S
C700 H677 0.950 . S
C700 C699 1.397 . S
C700 C701 1.334 . S
C701 H678 0.950 . S
C701 C700 1.334 . S
C701 C702 1.287 . S
C702 C701 1.287 . S
C702 C703 1.524 . S
C702 H721 0.913 . S
C703 H679 0.950 . S
C703 C702 1.524 . S
C703 C704 1.415 . S
C704 H680 0.950 . S
C704 C699 1.363 . S
C704 C703 1.415 . S
C705 H681 0.951 . S
C705 C706 1.366 . S
C705 C707 1.388 . S
C706 C705 1.366 . S
C706 C710 1.385 . S
C707 H682 0.951 . S
C707 C705 1.388 . S
C707 C708 1.366 . S
C708 C707 1.366 . S
C708 C709 1.414 . S
C708 C711 1.499 . S
C709 H683 0.950 . S
C709 C708 1.414 . S
C709 C710 1.374 . S
C710 H684 0.950 . S
C710 C706 1.385 . S
C710 C709 1.374 . S
C711 C708 1.499 . S
C711 C712 1.373 . S
C711 C713 1.389 . S
C712 H685 0.950 . S
C712 C698 1.377 . S
C712 C711 1.373 . S
C713 C697 1.377 . S
C713 C711 1.389 . S
C713 C714 1.524 . S
C714 C713 1.524 . S
C714 C715 1.397 . S
C714 C719 1.363 . S
C715 H686 0.950 . S
C715 C714 1.397 . S
C715 C716 1.334 . S
C716 H687 0.950 . S
C716 C715 1.334 . S
C716 C717 1.287 . S
C717 C716 1.287 . S
C717 C718 1.524 . S
C717 H720 0.999 . S
C718 H688 0.950 . S
C718 C717 1.524 . S
C718 C719 1.415 . S
C719 H689 0.950 . S
C719 C714 1.363 . S
C719 C718 1.415 . S
H720 C717 0.999 . S
H721 C702 0.913 . S
H722 C740 0.951 . S
H723 C742 0.951 . S
H724 C744 0.950 . S
H725 C745 0.950 . S
H726 C747 0.950 . S
H727 C750 0.950 . S
H728 C751 0.950 . S
H729 C753 0.950 . S
H730 C754 0.950 . S
H731 C755 0.951 . S
H732 C757 0.951 . S
H733 C759 0.950 . S
H734 C760 0.950 . S
H735 C762 0.950 . S
H736 C765 0.950 . S
H737 C766 0.950 . S
H738 C768 0.950 . S
H739 C769 0.950 . S
C740 H722 0.951 . S
C740 C741 1.366 . S
C740 C742 1.388 . S
C741 C740 1.366 . S
C741 C745 1.385 . S
C742 H723 0.951 . S
C742 C740 1.388 . S
C742 C743 1.366 . S
C743 C742 1.366 . S
C743 C744 1.414 . S
C743 C746 1.499 . S
C744 H724 0.950 . S
C744 C743 1.414 . S
C744 C745 1.374 . S
C745 H725 0.950 . S
C745 C741 1.385 . S
C745 C744 1.374 . S
C746 C743 1.499 . S
C746 C747 1.373 . S
C746 C748 1.389 . S
C747 H726 0.950 . S
C747 C746 1.373 . S
C747 C763 1.377 . S
C748 C746 1.389 . S
C748 C749 1.524 . S
C748 C762 1.377 . S
C749 C748 1.524 . S
C749 C750 1.397 . S
C749 C754 1.363 . S
C750 H727 0.950 . S
C750 C749 1.397 . S
C750 C751 1.334 . S
C751 H728 0.950 . S
C751 C750 1.334 . S
C751 C752 1.287 . S
C752 C751 1.287 . S
C752 C753 1.524 . S
C752 H771 0.913 . S
C753 H729 0.950 . S
C753 C752 1.524 . S
C753 C754 1.415 . S
C754 H730 0.950 . S
C754 C749 1.363 . S
C754 C753 1.415 . S
C755 H731 0.951 . S
C755 C756 1.366 . S
C755 C757 1.388 . S
C756 C755 1.366 . S
C756 C760 1.385 . S
C757 H732 0.951 . S
C757 C755 1.388 . S
C757 C758 1.366 . S
C758 C757 1.366 . S
C758 C759 1.414 . S
C758 C761 1.499 . S
C759 H733 0.950 . S
C759 C758 1.414 . S
C759 C760 1.374 . S
C760 H734 0.950 . S
C760 C756 1.385 . S
C760 C759 1.374 . S
C761 C758 1.499 . S
C761 C762 1.373 . S
C761 C763 1.389 . S
C762 H735 0.950 . S
C762 C748 1.377 . S
C762 C761 1.373 . S
C763 C747 1.377 . S
C763 C761 1.389 . S
C763 C764 1.524 . S
C764 C763 1.524 . S
C764 C765 1.397 . S
C764 C769 1.363 . S
C765 H736 0.950 . S
C765 C764 1.397 . S
C765 C766 1.334 . S
C766 H737 0.950 . S
C766 C765 1.334 . S
C766 C767 1.287 . S
C767 C766 1.287 . S
C767 C768 1.524 . S
C767 H770 0.999 . S
C768 H738 0.950 . S
C768 C767 1.524 . S
C768 C769 1.415 . S
C769 H739 0.950 . S
C769 C764 1.363 . S
C769 C768 1.415 . S
H770 C767 0.999 . S
H771 C752 0.913 . S
H772 C790 0.951 . S
H773 C792 0.951 . S
H774 C794 0.950 . S
H775 C795 0.950 . S
H776 C797 0.950 . S
H777 C800 0.950 . S
H778 C801 0.950 . S
H779 C803 0.950 . S
H780 C804 0.950 . S
H781 C805 0.951 . S
H782 C807 0.951 . S
H783 C809 0.950 . S
H784 C810 0.950 . S
H785 C812 0.950 . S
H786 C815 0.950 . S
H787 C816 0.950 . S
H788 C818 0.950 . S
H789 C819 0.950 . S
C790 H772 0.951 . S
C790 C791 1.366 . S
C790 C792 1.388 . S
C791 C790 1.366 . S
C791 C795 1.385 . S
C792 H773 0.951 . S
C792 C790 1.388 . S
C792 C793 1.366 . S
C793 C792 1.366 . S
C793 C794 1.414 . S
C793 C796 1.499 . S
C794 H774 0.950 . S
C794 C793 1.414 . S
C794 C795 1.374 . S
C795 H775 0.950 . S
C795 C791 1.385 . S
C795 C794 1.374 . S
C796 C793 1.499 . S
C796 C797 1.373 . S
C796 C798 1.389 . S
C797 H776 0.950 . S
C797 C796 1.373 . S
C797 C813 1.377 . S
C798 C796 1.389 . S
C798 C799 1.524 . S
C798 C812 1.377 . S
C799 C798 1.524 . S
C799 C800 1.397 . S
C799 C804 1.363 . S
C800 H777 0.950 . S
C800 C799 1.397 . S
C800 C801 1.334 . S
C801 H778 0.950 . S
C801 C800 1.334 . S
C801 C802 1.287 . S
C802 C801 1.287 . S
C802 C803 1.524 . S
C802 H821 0.913 . S
C803 H779 0.950 . S
C803 C802 1.524 . S
C803 C804 1.415 . S
C804 H780 0.950 . S
C804 C799 1.363 . S
C804 C803 1.415 . S
C805 H781 0.951 . S
C805 C806 1.366 . S
C805 C807 1.388 . S
C806 C805 1.366 . S
C806 C810 1.385 . S
C807 H782 0.951 . S
C807 C805 1.388 . S
C807 C808 1.366 . S
C808 C807 1.366 . S
C808 C809 1.414 . S
C808 C811 1.499 . S
C809 H783 0.950 . S
C809 C808 1.414 . S
C809 C810 1.374 . S
C810 H784 0.950 . S
C810 C806 1.385 . S
C810 C809 1.374 . S
C811 C808 1.499 . S
C811 C812 1.373 . S
C811 C813 1.389 . S
C812 H785 0.950 . S
C812 C798 1.377 . S
C812 C811 1.373 . S
C813 C797 1.377 . S
C813 C811 1.389 . S
C813 C814 1.524 . S
C814 C813 1.524 . S
C814 C815 1.397 . S
C814 C819 1.363 . S
C815 H786 0.950 . S
C815 C814 1.397 . S
C815 C816 1.334 . S
C816 H787 0.950 . S
C816 C815 1.334 . S
C816 C817 1.287 . S
C817 C816 1.287 . S
C817 C818 1.524 . S
C817 H820 0.999 . S
C818 H788 0.950 . S
C818 C817 1.524 . S
C818 C819 1.415 . S
C819 H789 0.950 . S
C819 C814 1.363 . S
C819 C818 1.415 . S
H820 C817 0.999 . S
H821 C802 0.913 . S
H822 C840 0.951 . S
H823 C842 0.951 . S
H824 C844 0.950 . S
H825 C845 0.950 . S
H826 C847 0.950 . S
H827 C850 0.950 . S
H828 C851 0.950 . S
H829 C853 0.950 . S
H830 C854 0.950 . S
H831 C855 0.951 . S
H832 C857 0.951 . S
H833 C859 0.950 . S
H834 C860 0.950 . S
H835 C862 0.950 . S
H836 C865 0.950 . S
H837 C866 0.950 . S
H838 C868 0.950 . S
H839 C869 0.950 . S
C840 H822 0.951 . S
C840 C841 1.366 . S
C840 C842 1.388 . S
C841 C840 1.366 . S
C841 C845 1.385 . S
C842 H823 0.951 . S
C842 C840 1.388 . S
C842 C843 1.366 . S
C843 C842 1.366 . S
C843 C844 1.414 . S
C843 C846 1.499 . S
C844 H824 0.950 . S
C844 C843 1.414 . S
C844 C845 1.374 . S
C845 H825 0.950 . S
C845 C841 1.385 . S
C845 C844 1.374 . S
C846 C843 1.499 . S
C846 C847 1.373 . S
C846 C848 1.389 . S
C847 H826 0.950 . S
C847 C846 1.373 . S
C847 C863 1.377 1_554 S
C848 C846 1.389 . S
C848 C849 1.524 . S
C848 C862 1.377 1_554 S
C849 C848 1.524 . S
C849 C850 1.397 . S
C849 C854 1.363 1_554 S
C850 H827 0.950 . S
C850 C849 1.397 . S
C850 C851 1.334 . S
C851 H828 0.950 . S
C851 C850 1.334 . S
C851 C852 1.287 . S
C852 C851 1.287 . S
C852 C853 1.524 1_554 S
C852 H871 0.913 . S
C853 H829 0.950 . S
C853 C852 1.524 1_556 S
C853 C854 1.415 . S
C854 H830 0.950 . S
C854 C849 1.363 1_556 S
C854 C853 1.415 . S
C855 H831 0.951 . S
C855 C856 1.366 . S
C855 C857 1.388 . S
C856 C855 1.366 . S
C856 C860 1.385 . S
C857 H832 0.951 . S
C857 C855 1.388 . S
C857 C858 1.366 . S
C858 C857 1.366 . S
C858 C859 1.414 . S
C858 C861 1.499 . S
C859 H833 0.950 . S
C859 C858 1.414 . S
C859 C860 1.374 . S
C860 H834 0.950 . S
C860 C856 1.385 . S
C860 C859 1.374 . S
C861 C858 1.499 . S
C861 C862 1.373 . S
C861 C863 1.389 . S
C862 H835 0.950 . S
C862 C848 1.377 1_556 S
C862 C861 1.373 . S
C863 C847 1.377 1_556 S
C863 C861 1.389 . S
C863 C864 1.524 . S
C864 C863 1.524 . S
C864 C865 1.397 . S
C864 C869 1.363 1_556 S
C865 H836 0.950 . S
C865 C864 1.397 . S
C865 C866 1.334 . S
C866 H837 0.950 . S
C866 C865 1.334 . S
C866 C867 1.287 . S
C867 C866 1.287 . S
C867 C868 1.524 1_556 S
C867 H870 0.999 . S
C868 H838 0.950 . S
C868 C867 1.524 1_554 S
C868 C869 1.415 . S
C869 H839 0.950 . S
C869 C864 1.363 1_554 S
C869 C868 1.415 . S
H870 C867 0.999 . S
H871 C852 0.913 . S
H872 C890 0.951 . S
H873 C892 0.951 . S
H874 C894 0.950 . S
H875 C895 0.950 . S
H876 C897 0.950 . S
H877 C900 0.950 . S
H878 C901 0.950 . S
H879 C903 0.950 . S
H880 C904 0.950 . S
H881 C905 0.951 . S
H882 C907 0.951 . S
H883 C909 0.950 . S
H884 C910 0.950 . S
H885 C912 0.950 . S
H886 C915 0.950 . S
H887 C916 0.950 . S
H888 C918 0.950 . S
H889 C919 0.950 . S
C890 H872 0.951 . S
C890 C891 1.366 . S
C890 C892 1.388 . S
C891 C890 1.366 . S
C891 C895 1.385 . S
C892 H873 0.951 . S
C892 C890 1.388 . S
C892 C893 1.366 . S
C893 C892 1.366 . S
C893 C894 1.414 . S
C893 C896 1.499 . S
C894 H874 0.950 . S
C894 C893 1.414 . S
C894 C895 1.374 . S
C895 H875 0.950 . S
C895 C891 1.385 . S
C895 C894 1.374 . S
C896 C893 1.499 . S
C896 C897 1.373 1_455 S
C896 C898 1.389 . S
C897 H876 0.950 . S
C897 C896 1.373 1_655 S
C897 C913 1.377 1_545 S
C898 C896 1.389 . S
C898 C899 1.524 . S
C898 C912 1.377 1_545 S
C899 C898 1.524 . S
C899 C900 1.397 . S
C899 C904 1.363 1_545 S
C900 H877 0.950 . S
C900 C899 1.397 . S
C900 C901 1.334 . S
C901 H878 0.950 . S
C901 C900 1.334 . S
C901 C902 1.287 . S
C902 C901 1.287 . S
C902 C903 1.524 1_545 S
C902 H921 0.913 . S
C903 H879 0.950 . S
C903 C902 1.524 1_565 S
C903 C904 1.415 . S
C904 H880 0.950 . S
C904 C899 1.363 1_565 S
C904 C903 1.415 . S
C905 H881 0.951 . S
C905 C906 1.366 . S
C905 C907 1.388 . S
C906 C905 1.366 . S
C906 C910 1.385 . S
C907 H882 0.951 . S
C907 C905 1.388 . S
C907 C908 1.366 . S
C908 C907 1.366 . S
C908 C909 1.414 . S
C908 C911 1.499 . S
C909 H883 0.950 . S
C909 C908 1.414 . S
C909 C910 1.374 . S
C910 H884 0.950 . S
C910 C906 1.385 . S
C910 C909 1.374 . S
C911 C908 1.499 . S
C911 C912 1.373 1_655 S
C911 C913 1.389 . S
C912 H885 0.950 . S
C912 C898 1.377 1_565 S
C912 C911 1.373 1_455 S
C913 C897 1.377 1_565 S
C913 C911 1.389 . S
C913 C914 1.524 . S
C914 C913 1.524 . S
C914 C915 1.397 . S
C914 C919 1.363 1_565 S
C915 H886 0.950 . S
C915 C914 1.397 . S
C915 C916 1.334 . S
C916 H887 0.950 . S
C916 C915 1.334 . S
C916 C917 1.287 . S
C917 C916 1.287 . S
C917 C918 1.524 1_565 S
C917 H920 0.999 . S
C918 H888 0.950 . S
C918 C917 1.524 1_545 S
C918 C919 1.415 . S
C919 H889 0.950 . S
C919 C914 1.363 1_545 S
C919 C918 1.415 . S
H920 C917 0.999 . S
H921 C902 0.913 . S
H922 C940 0.951 . S
H923 C942 0.951 . S
H924 C944 0.950 . S
H925 C945 0.950 . S
H926 C947 0.950 . S
H927 C950 0.950 . S
H928 C951 0.950 . S
H929 C953 0.950 . S
H930 C954 0.950 1_655 S
H931 C955 0.951 . S
H932 C957 0.951 . S
H933 C959 0.950 . S
H934 C960 0.950 . S
H935 C962 0.950 . S
H936 C965 0.950 . S
H937 C966 0.950 . S
H938 C968 0.950 . S
H939 C969 0.950 1_455 S
C940 H922 0.951 . S
C940 C941 1.366 . S
C940 C942 1.388 . S
C941 C940 1.366 . S
C941 C945 1.385 . S
C942 H923 0.951 . S
C942 C940 1.388 . S
C942 C943 1.366 . S
C943 C942 1.366 . S
C943 C944 1.414 . S
C943 C946 1.499 . S
C944 H924 0.950 . S
C944 C943 1.414 . S
C944 C945 1.374 . S
C945 H925 0.950 . S
C945 C941 1.385 . S
C945 C944 1.374 . S
C946 C943 1.499 . S
C946 C947 1.373 . S
C946 C948 1.389 . S
C947 H926 0.950 . S
C947 C946 1.373 . S
C947 C963 1.377 1_455 S
C948 C946 1.389 . S
C948 C949 1.524 . S
C948 C962 1.377 1_455 S
C949 C948 1.524 . S
C949 C950 1.397 . S
C949 C954 1.363 . S
C950 H927 0.950 . S
C950 C949 1.397 . S
C950 C951 1.334 . S
C951 H928 0.950 . S
C951 C950 1.334 . S
C951 C952 1.287 . S
C952 C951 1.287 . S
C952 C953 1.524 . S
C952 H971 0.913 . S
C953 H929 0.950 . S
C953 C952 1.524 . S
C953 C954 1.415 . S
C954 H930 0.950 1_455 S
C954 C949 1.363 . S
C954 C953 1.415 . S
C955 H931 0.951 . S
C955 C956 1.366 . S
C955 C957 1.388 . S
C956 C955 1.366 . S
C956 C960 1.385 . S
C957 H932 0.951 . S
C957 C955 1.388 . S
C957 C958 1.366 . S
C958 C957 1.366 . S
C958 C959 1.414 . S
C958 C961 1.499 . S
C959 H933 0.950 . S
C959 C958 1.414 . S
C959 C960 1.374 . S
C960 H934 0.950 . S
C960 C956 1.385 . S
C960 C959 1.374 . S
C961 C958 1.499 . S
C961 C962 1.373 . S
C961 C963 1.389 . S
C962 H935 0.950 . S
C962 C948 1.377 1_655 S
C962 C961 1.373 . S
C963 C947 1.377 1_655 S
C963 C961 1.389 . S
C963 C964 1.524 . S
C964 C963 1.524 . S
C964 C965 1.397 . S
C964 C969 1.363 . S
C965 H936 0.950 . S
C965 C964 1.397 . S
C965 C966 1.334 . S
C966 H937 0.950 . S
C966 C965 1.334 . S
C966 C967 1.287 . S
C967 C966 1.287 . S
C967 C968 1.524 . S
C967 H970 0.999 . S
C968 H938 0.950 . S
C968 C967 1.524 . S
C968 C969 1.415 . S
C969 H939 0.950 1_655 S
C969 C964 1.363 . S
C969 C968 1.415 . S
H970 C967 0.999 . S
H971 C952 0.913 . S
H972 C990 0.951 . S
H973 C992 0.951 . S
H974 C994 0.950 . S
H975 C995 0.950 . S
H976 C997 0.950 . S
H977 C1000 0.950 . S
H978 C1001 0.950 . S
H979 C1003 0.950 . S
H980 C1004 0.950 . S
H981 C1005 0.951 . S
H982 C1007 0.951 . S
H983 C1009 0.950 . S
H984 C1010 0.950 . S
H985 C1012 0.950 . S
H986 C1015 0.950 . S
H987 C1016 0.950 . S
H988 C1018 0.950 . S
H989 C1019 0.950 . S
C990 H972 0.951 . S
C990 C991 1.366 . S
C990 C992 1.388 . S
C991 C990 1.366 . S
C991 C995 1.385 . S
C992 H973 0.951 . S
C992 C990 1.388 . S
C992 C993 1.366 . S
C993 C992 1.366 . S
C993 C994 1.414 . S
C993 C996 1.499 . S
C994 H974 0.950 . S
C994 C993 1.414 . S
C994 C995 1.374 . S
C995 H975 0.950 . S
C995 C991 1.385 . S
C995 C994 1.374 . S
C996 C993 1.499 . S
C996 C997 1.373 . S
C996 C998 1.389 . S
C997 H976 0.950 . S
C997 C996 1.373 . S
C997 C1013 1.377 . S
C998 C996 1.389 . S
C998 C999 1.524 . S
C998 C1012 1.377 . S
C999 C998 1.524 . S
C999 C1000 1.397 . S
C999 C1004 1.363 . S
C1000 H977 0.950 . S
C1000 C999 1.397 . S
C1000 C1001 1.334 . S
C1001 H978 0.950 . S
C1001 C1000 1.334 . S
C1001 C1002 1.287 . S
C1002 C1001 1.287 . S
C1002 C1003 1.524 . S
C1002 H1021 0.913 . S
C1003 H979 0.950 . S
C1003 C1002 1.524 . S
C1003 C1004 1.415 . S
C1004 H980 0.950 . S
C1004 C999 1.363 . S
C1004 C1003 1.415 . S
C1005 H981 0.951 . S
C1005 C1006 1.366 . S
C1005 C1007 1.388 . S
C1006 C1005 1.366 . S
C1006 C1010 1.385 . S
C1007 H982 0.951 . S
C1007 C1005 1.388 . S
C1007 C1008 1.366 . S
C1008 C1007 1.366 . S
C1008 C1009 1.414 . S
C1008 C1011 1.499 . S
C1009 H983 0.950 . S
C1009 C1008 1.414 . S
C1009 C1010 1.374 . S
C1010 H984 0.950 . S
C1010 C1006 1.385 . S
C1010 C1009 1.374 . S
C1011 C1008 1.499 . S
C1011 C1012 1.373 . S
C1011 C1013 1.389 . S
C1012 H985 0.950 . S
C1012 C998 1.377 . S
C1012 C1011 1.373 . S
C1013 C997 1.377 . S
C1013 C1011 1.389 . S
C1013 C1014 1.524 . S
C1014 C1013 1.524 . S
C1014 C1015 1.397 . S
C1014 C1019 1.363 . S
C1015 H986 0.950 . S
C1015 C1014 1.397 . S
C1015 C1016 1.334 . S
C1016 H987 0.950 . S
C1016 C1015 1.334 . S
C1016 C1017 1.287 . S
C1017 C1016 1.287 . S
C1017 C1018 1.524 . S
C1017 H1020 0.999 . S
C1018 H988 0.950 . S
C1018 C1017 1.524 . S
C1018 C1019 1.415 . S
C1019 H989 0.950 . S
C1019 C1014 1.363 . S
C1019 C1018 1.415 . S
H1020 C1017 0.999 . S
H1021 C1002 0.913 . S
H1022 C1040 0.951 . S
H1023 C1042 0.951 . S
H1024 C1044 0.950 . S
H1025 C1045 0.950 . S
H1026 C1047 0.950 . S
H1027 C1050 0.950 . S
H1028 C1051 0.950 . S
H1029 C1053 0.950 . S
H1030 C1054 0.950 . S
H1031 C1055 0.951 . S
H1032 C1057 0.951 . S
H1033 C1059 0.950 . S
H1034 C1060 0.950 . S
H1035 C1062 0.950 . S
H1036 C1065 0.950 . S
H1037 C1066 0.950 . S
H1038 C1068 0.950 . S
H1039 C1069 0.950 . S
C1040 H1022 0.951 . S
C1040 C1041 1.366 . S
C1040 C1042 1.388 . S
C1041 C1040 1.366 . S
C1041 C1045 1.385 . S
C1042 H1023 0.951 . S
C1042 C1040 1.388 . S
C1042 C1043 1.366 . S
C1043 C1042 1.366 . S
C1043 C1044 1.414 . S
C1043 C1046 1.499 . S
C1044 H1024 0.950 . S
C1044 C1043 1.414 . S
C1044 C1045 1.374 . S
C1045 H1025 0.950 . S
C1045 C1041 1.385 . S
C1045 C1044 1.374 . S
C1046 C1043 1.499 . S
C1046 C1047 1.373 . S
C1046 C1048 1.389 . S
C1047 H1026 0.950 . S
C1047 C1046 1.373 . S
C1047 C1063 1.377 1_565 S
C1048 C1046 1.389 . S
C1048 C1049 1.524 . S
C1048 C1062 1.377 1_565 S
C1049 C1048 1.524 . S
C1049 C1050 1.397 1_565 S
C1049 C1054 1.363 . S
C1050 H1027 0.950 . S
C1050 C1049 1.397 1_545 S
C1050 C1051 1.334 . S
C1051 H1028 0.950 . S
C1051 C1050 1.334 . S
C1051 C1052 1.287 1_545 S
C1052 C1051 1.287 1_565 S
C1052 C1053 1.524 . S
C1052 H1071 0.913 . S
C1053 H1029 0.950 . S
C1053 C1052 1.524 . S
C1053 C1054 1.415 . S
C1054 H1030 0.950 . S
C1054 C1049 1.363 . S
C1054 C1053 1.415 . S
C1055 H1031 0.951 . S
C1055 C1056 1.366 . S
C1055 C1057 1.388 . S
C1056 C1055 1.366 . S
C1056 C1060 1.385 . S
C1057 H1032 0.951 . S
C1057 C1055 1.388 . S
C1057 C1058 1.366 . S
C1058 C1057 1.366 . S
C1058 C1059 1.414 . S
C1058 C1061 1.499 . S
C1059 H1033 0.950 . S
C1059 C1058 1.414 . S
C1059 C1060 1.374 . S
C1060 H1034 0.950 . S
C1060 C1056 1.385 . S
C1060 C1059 1.374 . S
C1061 C1058 1.499 . S
C1061 C1062 1.373 . S
C1061 C1063 1.389 . S
C1062 H1035 0.950 . S
C1062 C1048 1.377 1_545 S
C1062 C1061 1.373 . S
C1063 C1047 1.377 1_545 S
C1063 C1061 1.389 . S
C1063 C1064 1.524 . S
C1064 C1063 1.524 . S
C1064 C1065 1.397 1_545 S
C1064 C1069 1.363 . S
C1065 H1036 0.950 . S
C1065 C1064 1.397 1_565 S
C1065 C1066 1.334 . S
C1066 H1037 0.950 . S
C1066 C1065 1.334 . S
C1066 C1067 1.287 1_565 S
C1067 C1066 1.287 1_545 S
C1067 C1068 1.524 . S
C1067 H1070 0.999 . S
C1068 H1038 0.950 . S
C1068 C1067 1.524 . S
C1068 C1069 1.415 . S
C1069 H1039 0.950 . S
C1069 C1064 1.363 . S
C1069 C1068 1.415 . S
H1070 C1067 0.999 . S
H1071 C1052 0.913 . S
H1072 C1090 0.951 . S
H1073 C1092 0.951 . S
H1074 C1094 0.926 1_455 S
H1075 C1095 0.950 . S
H1076 C1097 0.950 . S
H1077 C1100 0.950 . S
H1078 C1101 0.950 . S
H1079 C1103 0.950 . S
H1080 C1104 0.950 . S
H1081 C1105 0.951 . S
H1082 C1107 0.951 . S
H1083 C1109 0.926 1_655 S
H1084 C1110 0.950 . S
H1085 C1112 0.950 . S
H1086 C1115 0.950 . S
H1087 C1116 0.950 . S
H1088 C1118 0.950 . S
H1089 C1119 0.950 . S
C1090 H1072 0.951 . S
C1090 C1091 1.366 . S
C1090 C1092 1.388 . S
C1091 C1090 1.366 . S
C1091 C1095 1.385 . S
C1092 H1073 0.951 . S
C1092 C1090 1.388 . S
C1092 C1093 1.366 . S
C1093 C1092 1.366 . S
C1093 C1094 1.414 . S
C1093 C1096 1.499 . S
C1094 H1074 0.926 1_655 S
C1094 C1093 1.414 . S
C1094 C1095 1.374 . S
C1095 H1075 0.950 . S
C1095 C1091 1.385 . S
C1095 C1094 1.374 . S
C1096 C1093 1.499 . S
C1096 C1097 1.373 1_655 S
C1096 C1098 1.389 . S
C1097 H1076 0.950 . S
C1097 C1096 1.373 1_455 S
C1097 C1113 1.377 . S
C1098 C1096 1.389 . S
C1098 C1099 1.524 . S
C1098 C1112 1.377 . S
C1099 C1098 1.524 . S
C1099 C1100 1.397 . S
C1099 C1104 1.363 . S
C1100 H1077 0.950 . S
C1100 C1099 1.397 . S
C1100 C1101 1.334 . S
C1101 H1078 0.950 . S
C1101 C1100 1.334 . S
C1101 C1102 1.287 . S
C1102 C1101 1.287 . S
C1102 C1103 1.524 . S
C1102 H1121 0.913 . S
C1103 H1079 0.950 . S
C1103 C1102 1.524 . S
C1103 C1104 1.415 . S
C1104 H1080 0.950 . S
C1104 C1099 1.363 . S
C1104 C1103 1.415 . S
C1105 H1081 0.951 . S
C1105 C1106 1.366 . S
C1105 C1107 1.388 . S
C1106 C1105 1.366 . S
C1106 C1110 1.385 . S
C1107 H1082 0.951 . S
C1107 C1105 1.388 . S
C1107 C1108 1.366 . S
C1108 C1107 1.366 . S
C1108 C1109 1.414 . S
C1108 C1111 1.499 . S
C1109 H1083 0.926 1_455 S
C1109 C1108 1.414 . S
C1109 C1110 1.374 . S
C1110 H1084 0.950 . S
C1110 C1106 1.385 . S
C1110 C1109 1.374 . S
C1111 C1108 1.499 . S
C1111 C1112 1.373 1_455 S
C1111 C1113 1.389 . S
C1112 H1085 0.950 . S
C1112 C1098 1.377 . S
C1112 C1111 1.373 1_655 S
C1113 C1097 1.377 . S
C1113 C1111 1.389 . S
C1113 C1114 1.524 . S
C1114 C1113 1.524 . S
C1114 C1115 1.397 . S
C1114 C1119 1.363 . S
C1115 H1086 0.950 . S
C1115 C1114 1.397 . S
C1115 C1116 1.334 . S
C1116 H1087 0.950 . S
C1116 C1115 1.334 . S
C1116 C1117 1.287 . S
C1117 C1116 1.287 . S
C1117 C1118 1.524 . S
C1117 H1120 0.999 . S
C1118 H1088 0.950 . S
C1118 C1117 1.524 . S
C1118 C1119 1.415 . S
C1119 H1089 0.950 . S
C1119 C1114 1.363 . S
C1119 C1118 1.415 . S
H1120 C1117 0.999 . S
H1121 C1102 0.913 . S
H1122 C1140 0.951 . S
H1123 C1142 0.951 . S
H1124 C1144 0.950 . S
H1125 C1145 0.950 . S
H1126 C1147 0.950 . S
H1127 C1150 0.950 . S
H1128 C1151 0.950 . S
H1129 C1153 0.950 . S
H1130 C1154 0.950 . S
H1131 C1155 0.951 . S
H1132 C1157 0.951 . S
H1133 C1159 0.950 . S
H1134 C1160 0.950 . S
H1135 C1162 0.950 . S
H1136 C1165 0.950 . S
H1137 C1166 0.950 . S
H1138 C1168 0.950 . S
H1139 C1169 0.950 . S
C1140 H1122 0.951 . S
C1140 C1141 1.366 . S
C1140 C1142 1.388 . S
C1141 C1140 1.366 . S
C1141 C1145 1.385 . S
C1142 H1123 0.951 . S
C1142 C1140 1.388 . S
C1142 C1143 1.366 . S
C1143 C1142 1.366 . S
C1143 C1144 1.414 . S
C1143 C1146 1.499 . S
C1144 H1124 0.950 . S
C1144 C1143 1.414 . S
C1144 C1145 1.374 . S
C1145 H1125 0.950 . S
C1145 C1141 1.385 . S
C1145 C1144 1.374 . S
C1146 C1143 1.499 . S
C1146 C1147 1.373 . S
C1146 C1148 1.389 . S
C1147 H1126 0.950 . S
C1147 C1146 1.373 . S
C1147 C1163 1.377 . S
C1148 C1146 1.389 . S
C1148 C1149 1.524 . S
C1148 C1162 1.377 . S
C1149 C1148 1.524 . S
C1149 C1150 1.397 . S
C1149 C1154 1.363 . S
C1150 H1127 0.950 . S
C1150 C1149 1.397 . S
C1150 C1151 1.334 . S
C1151 H1128 0.950 . S
C1151 C1150 1.334 . S
C1151 C1152 1.287 . S
C1152 C1151 1.287 . S
C1152 C1153 1.524 . S
C1152 H1171 0.913 . S
C1153 H1129 0.950 . S
C1153 C1152 1.524 . S
C1153 C1154 1.415 . S
C1154 H1130 0.950 . S
C1154 C1149 1.363 . S
C1154 C1153 1.415 . S
C1155 H1131 0.951 . S
C1155 C1156 1.366 . S
C1155 C1157 1.388 . S
C1156 C1155 1.366 . S
C1156 C1160 1.385 . S
C1157 H1132 0.951 . S
C1157 C1155 1.388 . S
C1157 C1158 1.366 . S
C1158 C1157 1.366 . S
C1158 C1159 1.414 . S
C1158 C1161 1.499 . S
C1159 H1133 0.950 . S
C1159 C1158 1.414 . S
C1159 C1160 1.374 . S
C1160 H1134 0.950 . S
C1160 C1156 1.385 . S
C1160 C1159 1.374 . S
C1161 C1158 1.499 . S
C1161 C1162 1.373 . S
C1161 C1163 1.389 . S
C1162 H1135 0.950 . S
C1162 C1148 1.377 . S
C1162 C1161 1.373 . S
C1163 C1147 1.377 . S
C1163 C1161 1.389 . S
C1163 C1164 1.524 . S
C1164 C1163 1.524 . S
C1164 C1165 1.397 . S
C1164 C1169 1.363 . S
C1165 H1136 0.950 . S
C1165 C1164 1.397 . S
C1165 C1166 1.334 . S
C1166 H1137 0.950 . S
C1166 C1165 1.334 . S
C1166 C1167 1.287 . S
C1167 C1166 1.287 . S
C1167 C1168 1.524 . S
C1167 H1170 0.999 . S
C1168 H1138 0.950 . S
C1168 C1167 1.524 . S
C1168 C1169 1.415 . S
C1169 H1139 0.950 . S
C1169 C1164 1.363 . S
C1169 C1168 1.415 . S
H1170 C1167 0.999 . S
H1171 C1152 0.913 . S
H1172 C1190 0.951 . S
H1173 C1192 0.951 . S
H1174 C1194 0.950 . S
H1175 C1195 0.950 . S
H1176 C1197 0.950 . S
H1177 C1200 0.950 . S
H1178 C1201 0.950 . S
H1179 C1203 0.950 . S
H1180 C1204 0.950 . S
H1181 C1205 0.951 . S
H1182 C1207 0.951 . S
H1183 C1209 0.950 . S
H1184 C1210 0.950 . S
H1185 C1212 0.950 . S
H1186 C1215 0.950 . S
H1187 C1216 0.950 . S
H1188 C1218 0.950 . S
H1189 C1219 0.950 . S
C1190 H1172 0.951 . S
C1190 C1191 1.366 . S
C1190 C1192 1.388 . S
C1191 C1190 1.366 . S
C1191 C1195 1.385 . S
C1192 H1173 0.951 . S
C1192 C1190 1.388 . S
C1192 C1193 1.366 . S
C1193 C1192 1.366 . S
C1193 C1194 1.414 . S
C1193 C1196 1.499 . S
C1194 H1174 0.950 . S
C1194 C1193 1.414 . S
C1194 C1195 1.374 . S
C1195 H1175 0.950 . S
C1195 C1191 1.385 . S
C1195 C1194 1.374 . S
C1196 C1193 1.499 . S
C1196 C1197 1.373 . S
C1196 C1198 1.389 . S
C1197 H1176 0.950 . S
C1197 C1196 1.373 . S
C1197 C1213 1.377 1_545 S
C1198 C1196 1.389 . S
C1198 C1199 1.524 . S
C1198 C1212 1.377 1_545 S
C1199 C1198 1.524 . S
C1199 C1200 1.397 . S
C1199 C1204 1.363 1_545 S
C1200 H1177 0.950 . S
C1200 C1199 1.397 . S
C1200 C1201 1.334 . S
C1201 H1178 0.950 . S
C1201 C1200 1.334 . S
C1201 C1202 1.287 . S
C1202 C1201 1.287 . S
C1202 C1203 1.524 1_545 S
C1202 H1221 0.913 . S
C1203 H1179 0.950 . S
C1203 C1202 1.524 1_565 S
C1203 C1204 1.415 . S
C1204 H1180 0.950 . S
C1204 C1199 1.363 1_565 S
C1204 C1203 1.415 . S
C1205 H1181 0.951 . S
C1205 C1206 1.366 . S
C1205 C1207 1.388 . S
C1206 C1205 1.366 . S
C1206 C1210 1.385 . S
C1207 H1182 0.951 . S
C1207 C1205 1.388 . S
C1207 C1208 1.366 . S
C1208 C1207 1.366 . S
C1208 C1209 1.414 . S
C1208 C1211 1.499 . S
C1209 H1183 0.950 . S
C1209 C1208 1.414 . S
C1209 C1210 1.374 . S
C1210 H1184 0.950 . S
C1210 C1206 1.385 . S
C1210 C1209 1.374 . S
C1211 C1208 1.499 . S
C1211 C1212 1.373 . S
C1211 C1213 1.389 . S
C1212 H1185 0.950 . S
C1212 C1198 1.377 1_565 S
C1212 C1211 1.373 . S
C1213 C1197 1.377 1_565 S
C1213 C1211 1.389 . S
C1213 C1214 1.524 . S
C1214 C1213 1.524 . S
C1214 C1215 1.397 . S
C1214 C1219 1.363 1_565 S
C1215 H1186 0.950 . S
C1215 C1214 1.397 . S
C1215 C1216 1.334 . S
C1216 H1187 0.950 . S
C1216 C1215 1.334 . S
C1216 C1217 1.287 . S
C1217 C1216 1.287 . S
C1217 C1218 1.524 1_565 S
C1217 H1220 0.999 . S
C1218 H1188 0.950 . S
C1218 C1217 1.524 1_545 S
C1218 C1219 1.415 . S
C1219 H1189 0.950 . S
C1219 C1214 1.363 1_545 S
C1219 C1218 1.415 . S
H1220 C1217 0.999 . S
H1221 C1202 0.913 . S
H1222 C1240 0.951 . S
H1223 C1242 0.951 . S
H1224 C1244 0.950 . S
H1225 C1245 0.950 . S
H1226 C1247 0.950 . S
H1227 C1250 0.950 . S
H1228 C1251 0.950 . S
H1229 C1253 0.950 . S
H1230 C1254 0.950 1_545 S
H1231 C1255 0.951 . S
H1232 C1257 0.951 . S
H1233 C1259 0.950 . S
H1234 C1260 0.950 . S
H1235 C1262 0.950 . S
H1236 C1265 0.950 . S
H1237 C1266 0.950 . S
H1238 C1268 0.950 . S
H1239 C1269 0.950 1_565 S
C1240 H1222 0.951 . S
C1240 C1241 1.366 . S
C1240 C1242 1.388 . S
C1241 C1240 1.366 . S
C1241 C1245 1.385 . S
C1242 H1223 0.951 . S
C1242 C1240 1.388 . S
C1242 C1243 1.366 . S
C1243 C1242 1.366 . S
C1243 C1244 1.414 . S
C1243 C1246 1.499 . S
C1244 H1224 0.950 . S
C1244 C1243 1.414 . S
C1244 C1245 1.374 . S
C1245 H1225 0.950 . S
C1245 C1241 1.385 . S
C1245 C1244 1.374 . S
C1246 C1243 1.499 . S
C1246 C1247 1.373 . S
C1246 C1248 1.389 . S
C1247 H1226 0.950 . S
C1247 C1246 1.373 . S
C1247 C1263 1.377 1_665 S
C1248 C1246 1.389 . S
C1248 C1249 1.524 . S
C1248 C1262 1.377 1_665 S
C1249 C1248 1.524 . S
C1249 C1250 1.397 . S
C1249 C1254 1.363 . S
C1250 H1227 0.950 . S
C1250 C1249 1.397 . S
C1250 C1251 1.334 . S
C1251 H1228 0.950 . S
C1251 C1250 1.334 . S
C1251 C1252 1.287 . S
C1252 C1251 1.287 . S
C1252 C1253 1.524 . S
C1252 H1271 0.913 . S
C1253 H1229 0.950 . S
C1253 C1252 1.524 . S
C1253 C1254 1.415 . S
C1254 H1230 0.950 1_565 S
C1254 C1249 1.363 . S
C1254 C1253 1.415 . S
C1255 H1231 0.951 . S
C1255 C1256 1.366 . S
C1255 C1257 1.388 . S
C1256 C1255 1.366 . S
C1256 C1260 1.385 . S
C1257 H1232 0.951 . S
C1257 C1255 1.388 . S
C1257 C1258 1.366 . S
C1258 C1257 1.366 . S
C1258 C1259 1.414 . S
C1258 C1261 1.499 . S
C1259 H1233 0.950 . S
C1259 C1258 1.414 . S
C1259 C1260 1.374 . S
C1260 H1234 0.950 . S
C1260 C1256 1.385 . S
C1260 C1259 1.374 . S
C1261 C1258 1.499 . S
C1261 C1262 1.373 . S
C1261 C1263 1.389 . S
C1262 H1235 0.950 . S
C1262 C1248 1.377 1_445 S
C1262 C1261 1.373 . S
C1263 C1247 1.377 1_445 S
C1263 C1261 1.389 . S
C1263 C1264 1.524 . S
C1264 C1263 1.524 . S
C1264 C1265 1.397 . S
C1264 C1269 1.363 . S
C1265 H1236 0.950 . S
C1265 C1264 1.397 . S
C1265 C1266 1.334 . S
C1266 H1237 0.950 . S
C1266 C1265 1.334 . S
C1266 C1267 1.287 . S
C1267 C1266 1.287 . S
C1267 C1268 1.524 . S
C1267 H1270 0.999 . S
C1268 H1238 0.950 . S
C1268 C1267 1.524 . S
C1268 C1269 1.415 . S
C1269 H1239 0.950 1_545 S
C1269 C1264 1.363 . S
C1269 C1268 1.415 . S
H1270 C1267 0.999 . S
H1271 C1252 0.913 . S
C491 C33 1.237 . S
C506 C328 1.237 . S
C541 C62 1.358 . S
C556 C357 1.358 . S
C591 C151 1.237 . S
C606 C446 1.237 . S
C641 C180 1.358 . S
C656 C239 1.358 . S
C691 C416 1.358 . S
C706 C3 1.358 . S
C741 C269 1.237 . S
C756 C92 1.237 . S
C791 C121 1.358 . S
C806 C298 1.358 . S
C841 C387 1.237 . S
C856 C210 1.237 . S
C891 C52 1.652 . S
C906 C406 1.652 . S
C941 C418 1.621 . S
C956 C64 1.621 . S
C991 C170 1.653 . S
C1006 C288 1.653 . S
C1041 C182 1.621 . S
C1056 C300 1.621 . S
C1091 C359 1.621 . S
C1106 C5 1.620 . S
C1141 C465 1.653 . S
C1156 C111 1.653 . S
C1191 C123 1.621 . S
C1206 C241 1.621 . S
C1241 C229 1.653 . S
C1256 C347 1.653 . S
