# Generated by pormake.
# Topology xfc, (7)-cn, num edge types: 1
# Building blocks:
#     Node 0, Type 0, BuildingBlock: NUHQUE_clean_sbu_2, # of connection points: 7
#     Node 1, Type 0, BuildingBlock: NUHQUE_clean_sbu_2, # of connection points: 7
#     Node 2, Type 0, BuildingBlock: NUHQUE_clean_sbu_2, # of connection points: 7
#     Node 3, Type 0, BuildingBlock: NUHQUE_clean_sbu_2, # of connection points: 7
#     Node 4, Type 0, BuildingBlock: NUHQUE_clean_sbu_2, # of connection points: 7
#     Node 5, Type 0, BuildingBlock: NUHQUE_clean_sbu_2, # of connection points: 7
#     Node 6, Type 0, BuildingBlock: NUHQUE_clean_sbu_2, # of connection points: 7
#     Node 7, Type 0, BuildingBlock: NUHQUE_clean_sbu_2, # of connection points: 7
#     Node 8, Type 0, BuildingBlock: NUHQUE_clean_sbu_2, # of connection points: 7
#     Node 9, Type 0, BuildingBlock: NUHQUE_clean_sbu_2, # of connection points: 7
#     Node 10, Type 0, BuildingBlock: NUHQUE_clean_sbu_2, # of connection points: 7
#     Node 11, Type 0, BuildingBlock: NUHQUE_clean_sbu_2, # of connection points: 7
#     Node 12, Type 0, BuildingBlock: NUHQUE_clean_sbu_2, # of connection points: 7
#     Node 13, Type 0, BuildingBlock: NUHQUE_clean_sbu_2, # of connection points: 7
#     Node 14, Type 0, BuildingBlock: NUHQUE_clean_sbu_2, # of connection points: 7
#     Node 15, Type 0, BuildingBlock: NUHQUE_clean_sbu_2, # of connection points: 7
#     Edge 16, Type (0, 0), BuildingBlock: AJUNOK_clean_linker_0, # of connection points: 2
#     Edge 17, Type (0, 0), BuildingBlock: AJUNOK_clean_linker_0, # of connection points: 2
#     Edge 18, Type (0, 0), BuildingBlock: AJUNOK_clean_linker_0, # of connection points: 2
#     Edge 19, Type (0, 0), BuildingBlock: AJUNOK_clean_linker_0, # of connection points: 2
#     Edge 20, Type (0, 0), BuildingBlock: AJUNOK_clean_linker_0, # of connection points: 2
#     Edge 21, Type (0, 0), BuildingBlock: AJUNOK_clean_linker_0, # of connection points: 2
#     Edge 22, Type (0, 0), BuildingBlock: AJUNOK_clean_linker_0, # of connection points: 2
#     Edge 23, Type (0, 0), BuildingBlock: AJUNOK_clean_linker_0, # of connection points: 2
#     Edge 24, Type (0, 0), BuildingBlock: AJUNOK_clean_linker_0, # of connection points: 2
#     Edge 25, Type (0, 0), BuildingBlock: AJUNOK_clean_linker_0, # of connection points: 2
#     Edge 26, Type (0, 0), BuildingBlock: AJUNOK_clean_linker_0, # of connection points: 2
#     Edge 27, Type (0, 0), BuildingBlock: AJUNOK_clean_linker_0, # of connection points: 2
#     Edge 28, Type (0, 0), BuildingBlock: AJUNOK_clean_linker_0, # of connection points: 2
#     Edge 29, Type (0, 0), BuildingBlock: AJUNOK_clean_linker_0, # of connection points: 2
#     Edge 30, Type (0, 0), BuildingBlock: AJUNOK_clean_linker_0, # of connection points: 2
#     Edge 31, Type (0, 0), BuildingBlock: AJUNOK_clean_linker_0, # of connection points: 2
#     Edge 32, Type (0, 0), BuildingBlock: AJUNOK_clean_linker_0, # of connection points: 2
#     Edge 33, Type (0, 0), BuildingBlock: AJUNOK_clean_linker_0, # of connection points: 2
#     Edge 34, Type (0, 0), BuildingBlock: AJUNOK_clean_linker_0, # of connection points: 2
#     Edge 35, Type (0, 0), BuildingBlock: AJUNOK_clean_linker_0, # of connection points: 2
#     Edge 36, Type (0, 0), BuildingBlock: AJUNOK_clean_linker_0, # of connection points: 2
#     Edge 37, Type (0, 0), BuildingBlock: AJUNOK_clean_linker_0, # of connection points: 2
#     Edge 38, Type (0, 0), BuildingBlock: AJUNOK_clean_linker_0, # of connection points: 2
#     Edge 39, Type (0, 0), BuildingBlock: AJUNOK_clean_linker_0, # of connection points: 2
#     Edge 40, Type (0, 0), BuildingBlock: AJUNOK_clean_linker_0, # of connection points: 2
#     Edge 41, Type (0, 0), BuildingBlock: AJUNOK_clean_linker_0, # of connection points: 2
#     Edge 42, Type (0, 0), BuildingBlock: AJUNOK_clean_linker_0, # of connection points: 2
#     Edge 43, Type (0, 0), BuildingBlock: AJUNOK_clean_linker_0, # of connection points: 2
#     Edge 44, Type (0, 0), BuildingBlock: AJUNOK_clean_linker_0, # of connection points: 2
#     Edge 45, Type (0, 0), BuildingBlock: AJUNOK_clean_linker_0, # of connection points: 2
#     Edge 46, Type (0, 0), BuildingBlock: AJUNOK_clean_linker_0, # of connection points: 2
#     Edge 47, Type (0, 0), BuildingBlock: AJUNOK_clean_linker_0, # of connection points: 2
#     Edge 48, Type (0, 0), BuildingBlock: AJUNOK_clean_linker_0, # of connection points: 2
#     Edge 49, Type (0, 0), BuildingBlock: AJUNOK_clean_linker_0, # of connection points: 2
#     Edge 50, Type (0, 0), BuildingBlock: AJUNOK_clean_linker_0, # of connection points: 2
#     Edge 51, Type (0, 0), BuildingBlock: AJUNOK_clean_linker_0, # of connection points: 2
#     Edge 52, Type (0, 0), BuildingBlock: AJUNOK_clean_linker_0, # of connection points: 2
#     Edge 53, Type (0, 0), BuildingBlock: AJUNOK_clean_linker_0, # of connection points: 2
#     Edge 54, Type (0, 0), BuildingBlock: AJUNOK_clean_linker_0, # of connection points: 2
#     Edge 55, Type (0, 0), BuildingBlock: AJUNOK_clean_linker_0, # of connection points: 2
#     Edge 56, Type (0, 0), BuildingBlock: AJUNOK_clean_linker_0, # of connection points: 2
#     Edge 57, Type (0, 0), BuildingBlock: AJUNOK_clean_linker_0, # of connection points: 2
#     Edge 58, Type (0, 0), BuildingBlock: AJUNOK_clean_linker_0, # of connection points: 2
#     Edge 59, Type (0, 0), BuildingBlock: AJUNOK_clean_linker_0, # of connection points: 2
#     Edge 60, Type (0, 0), BuildingBlock: AJUNOK_clean_linker_0, # of connection points: 2
#     Edge 61, Type (0, 0), BuildingBlock: AJUNOK_clean_linker_0, # of connection points: 2
#     Edge 62, Type (0, 0), BuildingBlock: AJUNOK_clean_linker_0, # of connection points: 2
#     Edge 63, Type (0, 0), BuildingBlock: AJUNOK_clean_linker_0, # of connection points: 2
#     Edge 64, Type (0, 0), BuildingBlock: AJUNOK_clean_linker_0, # of connection points: 2
#     Edge 65, Type (0, 0), BuildingBlock: AJUNOK_clean_linker_0, # of connection points: 2
#     Edge 66, Type (0, 0), BuildingBlock: AJUNOK_clean_linker_0, # of connection points: 2
#     Edge 67, Type (0, 0), BuildingBlock: AJUNOK_clean_linker_0, # of connection points: 2
#     Edge 68, Type (0, 0), BuildingBlock: AJUNOK_clean_linker_0, # of connection points: 2
#     Edge 69, Type (0, 0), BuildingBlock: AJUNOK_clean_linker_0, # of connection points: 2
#     Edge 70, Type (0, 0), BuildingBlock: AJUNOK_clean_linker_0, # of connection points: 2
#     Edge 71, Type (0, 0), BuildingBlock: AJUNOK_clean_linker_0, # of connection points: 2
# Relax obj value: 0.450
# Max RMSD: 0.231
# Mean RMSD: 0.231
data_MOF--net-xfc--node1-NUHQUE_clean_sbu_2--edge1-AJUNOK_clean_linker_0
_symmetry_space_group_name_H-M    P1
_symmetry_Int_Tables_number       1
_symmetry_cell_setting            triclinic
loop_
_symmetry_equiv_pos_as_xyz
'x, y, z'
_cell_length_a     29.493202
_cell_length_b     29.647783
_cell_length_c     36.824464
_cell_angle_alpha  90.228931
_cell_angle_beta   89.68796
_cell_angle_gamma 89.788789
loop_
_atom_site_label
_atom_site_type_symbol
_atom_site_fract_x
_atom_site_fract_y
_atom_site_fract_z
_atom_type_partial_charge
O0 O 0.08999 0.89872 0.13272 0.0
Tb1 Tb 0.0667 0.96482 0.11704 0.0
Eu2 Eu 0.02518 0.98368 0.20956 0.0
C3 C 0.10953 0.89496 0.16448 0.0
O4 O 0.11481 0.93119 0.18444 0.0
C5 C 0.10283 0.04116 0.16276 0.0
O6 O 0.96978 0.03573 0.2071 0.0
C7 C 0.04757 0.96571 0.27673 0.0
C8 C 0.92921 0.02955 0.19324 0.0
O9 O 0.91407 0.98862 0.1875 0.0
C10 C 0.97809 0.92906 0.1459 0.0
C11 C 0.04367 0.93539 0.30916 0.0
C12 C 0.08262 0.91378 0.32376 0.0
C13 C 0.07986 0.88956 0.35683 0.0
C14 C 0.03838 0.88845 0.37547 0.0
C15 C 0.9997 0.90924 0.36165 0.0
C16 C 1.00208 0.93208 0.32834 0.0
O17 O 0.11546 0.00403 0.14662 0.0
O18 O 0.06642 0.04194 0.18402 0.0
O19 O 0.07983 0.95151 0.05979 0.0
O20 O 0.06322 0.01842 0.07752 0.0
C21 C 0.07284 0.99313 0.04967 0.0
O22 O 0.98952 0.92543 0.18038 0.0
O23 O 0.99472 0.9623 0.12693 0.0
O24 O 0.01146 0.98905 0.26733 0.0
O25 O 0.07284 0.95353 0.24868 0.0
H26 H 0.11481 0.91596 0.30958 0.0
H27 H 0.0359 0.87073 0.40114 0.0
H28 H 0.97173 0.94811 0.31801 0.0
O29 O 0.34786 0.82077 0.50036 0.0
Tb30 Tb 0.32293 0.78394 0.45318 0.0
Eu31 Eu 0.25346 0.70708 0.48523 0.0
C32 C 0.38033 0.85062 0.49862 0.0
O33 O 0.39318 0.87184 0.52814 0.0
C34 C 0.21883 0.79522 0.44124 0.0
O35 O 0.20029 0.6545 0.47602 0.0
C36 C 0.2711 0.73404 0.55111 0.0
C37 C 0.20023 0.64063 0.44202 0.0
O38 O 0.23051 0.65813 0.41999 0.0
C39 C 0.35038 0.68527 0.45404 0.0
C40 C 0.30605 0.7348 0.58037 0.0
C41 C 0.32014 0.77685 0.5947 0.0
C42 C 0.3515 0.7787 0.62332 0.0
C43 C 0.36788 0.73858 0.6381 0.0
C44 C 0.35558 0.69644 0.62413 0.0
C45 C 0.3243 0.69463 0.59518 0.0
O46 O 0.25617 0.81535 0.45167 0.0
O47 O 0.21134 0.75271 0.44941 0.0
O48 O 0.35649 0.81097 0.40504 0.0
O49 O 0.31733 0.75021 0.40124 0.0
C50 C 0.34295 0.77844 0.38362 0.0
O51 O 0.30888 0.67065 0.45558 0.0
O52 O 0.35958 0.72392 0.46969 0.0
O53 O 0.25056 0.69561 0.5437 0.0
O54 O 0.27865 0.7589 0.52211 0.0
H55 H 0.30713 0.80799 0.5834 0.0
H56 H 0.39112 0.74043 0.6608 0.0
H57 H 0.31481 0.66227 0.58386 0.0
O58 O 0.39439 0.06967 0.70315 0.0
Tb59 Tb 0.44571 0.02305 0.68531 0.0
Eu60 Eu 0.52491 0.97579 0.73063 0.0
C61 C 0.3516 0.06285 0.69584 0.0
O62 O 0.33843 0.02154 0.68842 0.0
C63 C 0.43963 0.9255 0.70018 0.0
O64 O 0.58424 0.92941 0.72043 0.0
C65 C 0.49458 0.99243 0.79589 0.0
C66 C 0.59751 0.92933 0.68619 0.0
O67 O 0.57744 0.9577 0.66409 0.0
C68 C 0.54146 0.07123 0.69124 0.0
C69 C 0.49856 0.02551 0.82635 0.0
C70 C 0.46036 0.05072 0.83852 0.0
C71 C 0.46451 0.08213 0.8673 0.0
C72 C 0.50665 0.08756 0.8839 0.0
C73 C 0.54457 0.06263 0.87265 0.0
C74 C 0.54031 0.03144 0.84409 0.0
O75 O 0.41972 0.96276 0.71082 0.0
O76 O 0.48393 0.92526 0.69924 0.0
O77 O 0.41448 0.02508 0.63182 0.0
O78 O 0.47601 0.988 0.63903 0.0
C79 C 0.44461 0.99924 0.61604 0.0
O80 O 0.56014 0.0351 0.70534 0.0
O81 O 0.49723 0.07561 0.68839 0.0
O82 O 0.52984 0.96605 0.78893 0.0
O83 O 0.47375 0.00623 0.76631 0.0
H84 H 0.42784 0.04634 0.82544 0.0
H85 H 0.51009 0.11219 0.90558 0.0
H86 H 0.5697 0.01197 0.83566 0.0
O87 O 0.19586 0.1596 0.96568 0.0
Tb88 Tb 0.22836 0.21001 0.9318 0.0
Eu89 Eu 0.28204 0.28651 0.96519 0.0
C90 C 0.17438 0.1252 0.95184 0.0
O91 O 0.16355 0.09099 0.97262 0.0
C92 C 0.32887 0.19708 0.9383 0.0
O93 O 0.33801 0.33752 0.96197 0.0
C94 C 0.25991 0.25641 0.02953 0.0
C95 C 0.33531 0.37161 0.93921 0.0
O96 O 0.29574 0.3832 0.926 0.0
C97 C 0.18615 0.30545 0.92838 0.0
C98 C 0.227 0.25253 0.06035 0.0
C99 C 0.21158 0.20936 0.07147 0.0
C100 C 0.18361 0.20477 0.10246 0.0
C101 C 0.17297 0.24319 0.12288 0.0
C102 C 0.18626 0.28639 0.11189 0.0
C103 C 0.21334 0.29091 0.08048 0.0
O104 O 0.29112 0.18099 0.95146 0.0
O105 O 0.33218 0.24099 0.93566 0.0
O106 O 0.22774 0.18257 0.87679 0.0
O107 O 0.26352 0.24383 0.88783 0.0
C108 C 0.2533 0.21418 0.86301 0.0
O109 O 0.22719 0.32129 0.93299 0.0
O110 O 0.17709 0.26328 0.93692 0.0
O111 O 0.2811 0.29498 0.02413 0.0
O112 O 0.25121 0.23453 0.99928 0.0
H113 H 0.22112 0.17958 0.05603 0.0
H114 H 0.15326 0.23924 0.14762 0.0
H115 H 0.22351 0.32415 0.07158 0.0
O116 O 0.10155 0.09422 0.79052 0.0
Tb117 Tb 0.06202 0.0573 0.83062 0.0
Eu118 Eu 0.99017 0.99775 0.80045 0.0
C119 C 0.13585 0.11969 0.79954 0.0
O120 O 0.1583 0.14159 0.77439 0.0
C121 C 0.08159 0.95588 0.83301 0.0
O122 O 0.93688 0.94568 0.81222 0.0
C123 C 0.01317 0.02039 0.73463 0.0
C124 C 0.92814 0.94374 0.84734 0.0
O125 O 0.95011 0.97178 0.86851 0.0
C126 C 0.96444 0.09255 0.83722 0.0
C127 C 0.00739 0.05692 0.70712 0.0
C128 C 0.04548 0.08149 0.69455 0.0
C129 C 0.04073 0.11477 0.66746 0.0
C130 C 0.9977 0.12358 0.6533 0.0
C131 C 0.95929 0.10079 0.66616 0.0
C132 C 0.96439 0.06709 0.69269 0.0
O133 O 0.09981 0.99423 0.82274 0.0
O134 O 0.0376 0.95078 0.83014 0.0
O135 O 0.08478 0.07523 0.88446 0.0
O136 O 0.03216 0.02552 0.87756 0.0
C137 C 0.05704 0.0475 0.90079 0.0
O138 O 0.95152 0.05105 0.83123 0.0
O139 O 0.00571 0.10485 0.82844 0.0
O140 O 0.97805 0.99435 0.74214 0.0
O141 O 0.0378 0.03002 0.76337 0.0
H142 H 0.07873 0.07475 0.70575 0.0
H143 H 0.99374 0.15038 0.63358 0.0
H144 H 0.93469 0.04922 0.70228 0.0
O145 O 0.18812 0.70386 0.22296 0.0
Tb146 Tb 0.24197 0.73495 0.19111 0.0
Eu147 Eu 0.25234 0.74197 0.06865 0.0
C148 C 0.14728 0.72088 0.22541 0.0
O149 O 0.11507 0.69845 0.24208 0.0
C150 C 0.27759 0.8055 0.13677 0.0
O151 O 0.30692 0.68726 0.07147 0.0
C152 C 0.23205 0.77457 1.00453 0.0
C153 C 0.32758 0.68386 0.103 0.0
O154 O 0.31856 0.71431 0.12773 0.0
C155 C 0.20131 0.68224 0.12833 0.0
C156 C 0.20559 0.7748 0.96985 0.0
C157 C 0.19362 0.81653 0.95341 0.0
C158 C 0.17241 0.81744 0.91905 0.0
C159 C 0.16359 0.77676 0.90141 0.0
C160 C 0.17166 0.73516 0.91811 0.0
C161 C 0.19377 0.73423 0.95205 0.0
O162 O 0.23997 0.78857 0.15095 0.0
O163 O 0.28814 0.79533 0.10278 0.0
O164 O 0.27265 0.78163 0.22864 0.0
O165 O 0.30631 0.71899 0.21726 0.0
C166 C 0.3079 0.75676 0.23585 0.0
O167 O 0.19667 0.70086 0.09587 0.0
O168 O 0.23967 0.68768 0.14601 0.0
O169 O 0.2623 0.74246 1.00978 0.0
O170 O 0.21243 0.78826 0.03483 0.0
H171 H 0.20083 0.84801 0.96722 0.0
H172 H 0.14837 0.77774 0.87466 0.0
H173 H 0.20115 0.70216 0.96477 0.0
O174 O 0.47376 0.92364 0.35082 0.0
Tb175 Tb 0.48141 0.97522 0.3926 0.0
Eu176 Eu 0.52317 0.02085 0.31583 0.0
C177 C 0.45528 0.88448 0.35758 0.0
O178 O 0.45579 0.85271 0.33264 0.0
C179 C 0.4454 0.0653 0.36657 0.0
O180 O 0.5709 0.08026 0.31269 0.0
C181 C 0.4805 0.99546 0.25733 0.0
C182 C 0.61082 0.07933 0.32873 0.0
O183 O 0.62953 0.0402 0.3359 0.0
C184 C 0.57945 0.96874 0.37363 0.0
C185 C 0.47817 0.95843 0.22958 0.0
C186 C 0.43717 0.93493 0.22314 0.0
C187 C 0.43422 0.90186 0.1953 0.0
C188 C 0.47373 0.8922 0.17462 0.0
C189 C 0.51509 0.91419 0.18117 0.0
C190 C 0.51637 0.94807 0.208 0.0
O191 O 0.43243 0.02423 0.37359 0.0
O192 O 0.48431 0.07212 0.35003 0.0
O193 O 0.48097 0.93779 0.44405 0.0
O194 O 0.44673 1.0007 0.44055 0.0
C195 C 0.45757 0.96796 0.46202 0.0
O196 O 0.5693 0.96715 0.33895 0.0
O197 O 0.55258 0.9916 0.39538 0.0
O198 O 0.51693 0.02129 0.25712 0.0
O199 O 0.46533 0.98703 0.2904 0.0
H200 H 0.40782 0.94241 0.23993 0.0
H201 H 0.47252 0.86699 0.1533 0.0
H202 H 0.54742 0.96681 0.21191 0.0
O203 O 0.29334 0.23522 0.59478 0.0
Tb204 Tb 0.26422 0.26727 0.64287 0.0
Eu205 Eu 0.24447 0.29174 0.55892 0.0
C206 C 0.304 0.19246 0.59259 0.0
O207 O 0.31676 0.17531 0.56122 0.0
C208 C 0.17638 0.24331 0.61502 0.0
O209 O 0.1834 0.33731 0.56951 0.0
C210 C 0.26016 0.26921 0.49144 0.0
C211 C 0.18454 0.3696 0.59418 0.0
O212 O 0.2237 0.3816 0.60765 0.0
C213 C 0.3176 0.34242 0.61206 0.0
C214 C 0.29698 0.26683 0.46332 0.0
C215 C 0.31482 0.22431 0.45247 0.0
C216 C 0.34727 0.22121 0.42436 0.0
C217 C 0.35992 0.26039 0.40602 0.0
C218 C 0.34589 0.30323 0.41786 0.0
C219 C 0.31359 0.30621 0.44624 0.0
O220 O 0.19256 0.27315 0.63745 0.0
O221 O 0.19903 0.23667 0.58431 0.0
O222 O 0.25601 0.21743 0.68608 0.0
O223 O 0.29758 0.27462 0.69508 0.0
C224 C 0.28088 0.23852 0.70974 0.0
O225 O 0.31135 0.32286 0.58011 0.0
O226 O 0.28918 0.33429 0.63851 0.0
O227 O 0.24407 0.30907 0.50125 0.0
O228 O 0.26293 0.24076 0.51866 0.0
H229 H 0.30388 0.19383 0.46605 0.0
H230 H 0.38211 0.25717 0.38259 0.0
H231 H 0.30167 0.33905 0.45512 0.0
O232 O 0.6274 0.28443 0.67974 0.0
Tb233 Tb 0.70026 0.28711 0.67091 0.0
Eu234 Eu 0.73012 0.25118 0.57393 0.0
C235 C 0.59702 0.31024 0.66433 0.0
O236 O 0.55395 0.30372 0.67173 0.0
C237 C 0.7719 0.33283 0.62437 0.0
O238 O 0.78206 0.19668 0.58644 0.0
C239 C 0.72049 0.27046 0.5053 0.0
C240 C 0.79911 0.19607 0.61952 0.0
O241 O 0.78665 0.22768 0.64247 0.0
C242 C 0.66776 0.20404 0.63177 0.0
C243 C 0.69197 0.27146 0.47176 0.0
C244 C 0.67379 0.31298 0.45987 0.0
C245 C 0.65189 0.31631 0.42615 0.0
C246 C 0.64814 0.27814 0.40417 0.0
C247 C 0.66344 0.23577 0.41587 0.0
C248 C 0.68598 0.23271 0.44966 0.0
O249 O 0.73073 0.33926 0.63747 0.0
O250 O 0.77964 0.2999 0.60086 0.0
O251 O 0.69874 0.31062 0.72662 0.0
O252 O 0.75403 0.26929 0.70838 0.0
C253 C 0.73631 0.29083 0.73584 0.0
O254 O 0.66623 0.2207 0.5987 0.0
O255 O 0.6999 0.21745 0.65351 0.0
O256 O 0.73706 0.23173 0.51682 0.0
O257 O 0.71078 0.29896 0.53185 0.0
H258 H 0.67701 0.34295 0.47661 0.0
H259 H 0.63122 0.28131 0.37822 0.0
H260 H 0.69823 0.2003 0.45895 0.0
O261 O 0.8538 0.67303 0.09491 0.0
Tb262 Tb 0.80971 0.73086 0.09083 0.0
Eu263 Eu 0.73882 0.7959 0.05444 0.0
C264 C 0.83905 0.6318 0.08955 0.0
O265 O 0.80578 0.62418 0.06687 0.0
C266 C 0.70836 0.70595 0.09474 0.0
O267 O 0.67743 0.83922 0.06827 0.0
C268 C 0.75349 0.75981 0.99066 0.0
C269 C 0.67889 0.8565 0.10138 0.0
O270 O 0.71721 0.85223 0.11903 0.0
C271 C 0.83956 0.82313 0.07114 0.0
C272 C 0.78799 0.75665 0.96076 0.0
C273 C 0.80676 0.71436 0.95007 0.0
C274 C 0.83932 0.71173 0.92175 0.0
C275 C 0.85282 0.75135 0.90436 0.0
C276 C 0.83474 0.79332 0.91445 0.0
C277 C 0.80201 0.7957 0.94231 0.0
O278 O 0.74836 0.68992 0.08516 0.0
O279 O 0.6996 0.749 0.0906 0.0
O280 O 0.83637 0.7447 0.14478 0.0
O281 O 0.77162 0.77062 0.13048 0.0
C282 C 0.80155 0.76789 0.15596 0.0
O283 O 0.79754 0.83607 0.07665 0.0
O284 O 0.84637 0.78144 0.06006 0.0
O285 O 0.73172 0.79854 0.99556 0.0
O286 O 0.76361 0.73959 0.02137 0.0
H287 H 0.79645 0.68383 0.96388 0.0
H288 H 0.87875 0.74953 0.88337 0.0
H289 H 0.78773 0.82819 0.94974 0.0
O290 O 0.84047 0.32937 0.99081 0.0
Tb291 Tb 0.81064 0.28167 0.95286 0.0
Eu292 Eu 0.75481 0.20641 0.98248 0.0
C293 C 0.85491 0.36908 0.98063 0.0
O294 O 0.86185 0.40052 1.00513 0.0
C295 C 0.70932 0.2966 0.95456 0.0
O296 O 0.70519 0.15073 0.97208 0.0
C297 C 0.77585 0.23098 0.04818 0.0
C298 C 0.70289 0.14116 0.93718 0.0
O299 O 0.72915 0.16411 0.91517 0.0
C300 C 0.85137 0.18844 0.94363 0.0
C301 C 0.81133 0.22936 0.07683 0.0
C302 C 0.83366 0.26953 0.08757 0.0
C303 C 0.86474 0.26904 0.11645 0.0
C304 C 0.87253 0.2289 0.13491 0.0
C305 C 0.85306 0.18816 0.12352 0.0
C306 C 0.82201 0.18862 0.09463 0.0
O307 O 0.74676 0.31353 0.96759 0.0
O308 O 0.70516 0.2526 0.95409 0.0
O309 O 0.81902 0.30695 0.8984 0.0
O310 O 0.77619 0.24961 0.90767 0.0
C311 C 0.79319 0.27677 0.88351 0.0
O312 O 0.81054 0.17293 0.94991 0.0
O313 O 0.86191 0.22898 0.95516 0.0
O314 O 0.75277 0.19396 0.04079 0.0
O315 O 0.78457 0.25557 1.0193 0.0
H316 H 0.82694 0.30093 0.07358 0.0
H317 H 0.89587 0.22922 0.15759 0.0
H318 H 0.80709 0.15729 0.08547 0.0
O319 O 0.73464 0.74295 0.39903 0.0
Tb320 Tb 0.78324 0.79149 0.37973 0.0
Eu321 Eu 0.77803 0.77561 0.46732 0.0
C322 C 0.73498 0.70186 0.38576 0.0
O323 O 0.76282 0.692 0.35887 0.0
C324 C 0.83846 0.71555 0.41275 0.0
O325 O 0.84293 0.81156 0.452 0.0
C326 C 0.76551 0.74881 0.5339 0.0
C327 C 0.84909 0.85554 0.45238 0.0
O328 O 0.81949 0.88208 0.46861 0.0
C329 C 0.72661 0.85317 0.42471 0.0
C330 C 0.7339 0.74611 0.56554 0.0
C331 C 0.71697 0.7036 0.57638 0.0
C332 C 0.68889 0.69948 0.60725 0.0
C333 C 0.67714 0.73839 0.62689 0.0
C334 C 0.69334 0.78099 0.61665 0.0
C335 C 0.72191 0.7846 0.58599 0.0
O336 O 0.84228 0.75191 0.39289 0.0
O337 O 0.80772 0.71364 0.43887 0.0
O338 O 0.74881 0.78456 0.32786 0.0
O339 O 0.81533 0.81223 0.32925 0.0
C340 C 0.78176 0.80098 0.30844 0.0
O341 O 0.71921 0.81912 0.44704 0.0
O342 O 0.76416 0.85364 0.40563 0.0
O343 O 0.78518 0.78751 0.52577 0.0
O344 O 0.75473 0.72475 0.50516 0.0
H345 H 0.72594 0.6736 0.56097 0.0
H346 H 0.65334 0.73564 0.6493 0.0
H347 H 0.73446 0.81742 0.578 0.0
O348 O 0.57406 0.4858 0.56768 0.0
Tb349 Tb 0.52087 0.48265 0.60908 0.0
Eu350 Eu 0.53366 0.48896 0.71727 0.0
C351 C 0.607 0.45605 0.56397 0.0
O352 O 0.63514 0.45941 0.53637 0.0
C353 C 0.58275 0.5446 0.65349 0.0
O354 O 0.48839 0.54933 0.7059 0.0
C355 C 0.56013 0.47599 0.784 0.0
C356 C 0.44653 0.54425 0.69405 0.0
O357 O 0.42867 0.50387 0.69395 0.0
C358 C 0.48778 0.41691 0.66636 0.0
C359 C 0.55235 0.44788 0.81701 0.0
C360 C 0.58968 0.42707 0.83461 0.0
C361 C 0.58297 0.40132 0.86635 0.0
C362 C 0.53933 0.39783 0.88076 0.0
C363 C 0.50177 0.41675 0.86345 0.0
C364 C 0.50831 0.4421 0.83161 0.0
O365 O 0.54356 0.54304 0.63676 0.0
O366 O 0.59014 0.51967 0.68268 0.0
O367 O 0.47002 0.46561 0.56876 0.0
O368 O 0.45669 0.51918 0.60534 0.0
C369 C 0.44079 0.4968 0.57775 0.0
O370 O 0.48664 0.43307 0.69957 0.0
O371 O 0.52305 0.42692 0.64628 0.0
O372 O 0.52856 0.50543 0.77491 0.0
O373 O 0.57931 0.4562 0.75572 0.0
H374 H 0.62354 0.43037 0.82339 0.0
H375 H 0.53445 0.37913 0.90576 0.0
H376 H 0.47925 0.45653 0.81797 0.0
O377 O 0.94168 0.50079 0.19952 0.0
Tb378 Tb 0.98432 0.49642 0.15073 0.0
Eu379 Eu 0.02349 0.47573 0.23268 0.0
C380 C 0.90043 0.51692 0.20355 0.0
O381 O 0.88113 0.51428 0.2357 0.0
C382 C 0.98544 0.40474 0.17634 0.0
O383 O 0.07769 0.42406 0.22064 0.0
C384 C 0.99972 0.48579 0.30033 0.0
C385 C 0.11379 0.43296 0.2008 0.0
O386 O 0.1245 0.47498 0.19394 0.0
C387 C 0.06457 0.55456 0.17848 0.0
C388 C 1.00099 0.51817 0.33126 0.0
C389 C 0.96188 0.54299 0.34143 0.0
C390 C 0.963 0.57293 0.3712 0.0
C391 C 1.00357 0.57882 0.39008 0.0
C392 C 0.04293 0.55537 0.37989 0.0
C393 C 0.04102 0.52395 0.35131 0.0
O394 O 0.01023 0.42897 0.15457 0.0
O395 O 0.97646 0.42247 0.20834 0.0
O396 O 0.96385 0.53066 0.10064 0.0
O397 O 0.95823 0.45943 0.10479 0.0
C398 C 0.95418 0.49355 0.08318 0.0
O399 O 0.0566 0.54128 0.21227 0.0
O400 O 0.04559 0.53518 0.15042 0.0
O401 O 0.03821 0.46672 0.28996 0.0
O402 O 0.97301 0.496 0.27299 0.0
H403 H 0.93072 0.5392 0.32626 0.0
H404 H 0.00517 0.60417 0.41136 0.0
H405 H 0.07122 0.50492 0.34414 0.0
O406 O 0.56576 0.59004 0.43159 0.0
Tb407 Tb 0.50651 0.56147 0.4065 0.0
Eu408 Eu 0.49767 0.51705 0.3057 0.0
C409 C 0.60548 0.5701 0.43005 0.0
O410 O 0.60824 0.52794 0.41933 0.0
C411 C 0.54768 0.47141 0.37618 0.0
O412 O 0.45679 0.45555 0.32054 0.0
C413 C 0.52833 0.5224 0.23919 0.0
C414 C 0.42063 0.45912 0.34156 0.0
O415 O 0.40445 0.49934 0.34931 0.0
C416 C 0.46673 0.60434 0.34287 0.0
C417 C 0.52562 0.55056 0.20568 0.0
C418 C 0.56492 0.57222 0.19227 0.0
C419 C 0.56271 0.60043 0.1616 0.0
C420 C 0.52067 0.60706 0.1447 0.0
C421 C 0.48101 0.58593 0.15721 0.0
C422 C 0.48432 0.55635 0.18708 0.0
O423 O 0.52359 0.49134 0.40175 0.0
O424 O 0.55335 0.48896 0.34326 0.0
O425 O 0.46849 0.59115 0.45141 0.0
O426 O 0.43832 0.53899 0.42084 0.0
C427 C 0.4328 0.56568 0.44861 0.0
O428 O 0.45108 0.57638 0.31858 0.0
O429 O 0.50643 0.59361 0.35497 0.0
O430 O 0.49268 0.49819 0.24851 0.0
O431 O 0.54902 0.54039 0.26733 0.0
H432 H 0.59691 0.56803 0.20623 0.0
H433 H 0.51878 0.63032 0.12215 0.0
H434 H 0.45468 0.53824 0.19628 0.0
O435 O 0.90758 0.43077 0.81849 0.0
Tb436 Tb 0.95423 0.46235 0.85684 0.0
Eu437 Eu 0.0261 0.51665 0.81804 0.0
C438 C 0.87265 0.40664 0.82862 0.0
O439 O 0.84494 0.39014 0.8042 0.0
C440 C 0.94071 0.56339 0.85481 0.0
O441 O 0.07552 0.57443 0.81949 0.0
C442 C 0.98876 0.49636 0.75564 0.0
C443 C 0.10888 0.57364 0.8432 0.0
O444 O 0.11951 0.53533 0.85878 0.0
C445 C 0.05325 0.42279 0.85592 0.0
C446 C 0.9849 0.46273 0.72516 0.0
C447 C 0.94221 0.4442 0.71544 0.0
C448 C 0.93785 0.41498 0.68497 0.0
C449 C 0.97736 0.40451 0.66473 0.0
C450 C 0.01993 0.42277 0.67351 0.0
C451 C 0.02313 0.4518 0.70377 0.0
O452 O 0.92109 0.52618 0.84416 0.0
O453 O 0.98506 0.56511 0.85317 0.0
O454 O 0.92725 0.44628 0.90986 0.0
O455 O 0.97893 0.49675 0.90529 0.0
C456 C 0.95202 0.47531 0.92738 0.0
O457 O 0.0681 0.462 0.84451 0.0
O458 O 0.00976 0.41313 0.85421 0.0
O459 O 0.02682 0.51935 0.75887 0.0
O460 O 0.97041 0.48641 0.78724 0.0
H461 H 0.91263 0.45245 0.73173 0.0
H462 H 0.97498 0.38164 0.64187 0.0
H463 H 0.05561 0.46657 0.71034 0.0
C464 C 0.06148 0.98965 0.94819 0.0
C465 C 0.0599 0.03543 0.93898 0.0
C466 C 0.0672 0.97624 0.98411 0.0
C467 C 0.07022 0.00839 1.012 0.0
H468 H 0.05893 0.96404 0.9274 0.0
H469 H 0.0684 0.94049 0.99008 0.0
S470 S 0.06376 0.13285 1.00192 0.0
N471 N 0.05958 0.11306 0.96005 0.0
N472 N 0.06905 0.0882 0.02832 0.0
C473 C 0.06743 0.0545 1.00322 0.0
C474 C 0.06249 0.06802 0.96641 0.0
C475 C 0.3523 0.73245 0.32797 0.0
C476 C 0.35016 0.77539 0.34423 0.0
C477 C 0.34523 0.72689 0.29067 0.0
C478 C 0.33459 0.76413 0.26889 0.0
H479 H 0.35593 0.70267 0.34461 0.0
H480 H 0.34297 0.69293 0.27985 0.0
S481 S 0.33351 0.88425 0.29725 0.0
N482 N 0.34397 0.85619 0.33498 0.0
N483 N 0.32959 0.84582 0.26483 0.0
C484 C 0.33757 0.80762 0.28407 0.0
C485 C 0.34553 0.81328 0.32195 0.0
C486 C 0.42127 0.00376 0.51562 0.0
C487 C 0.44945 0.96952 0.50147 0.0
C488 C 0.41852 0.01193 0.55297 0.0
C489 C 0.44429 0.98645 0.57741 0.0
H490 H 0.40234 0.0256 0.49763 0.0
H491 H 0.39755 0.03964 0.56258 0.0
S492 S 0.5174 0.88814 0.55478 0.0
N493 N 0.49917 0.90629 0.51506 0.0
N494 N 0.49467 0.92218 0.58554 0.0
C495 C 0.47046 0.9503 0.56391 0.0
C496 C 0.47284 0.94163 0.52579 0.0
C497 C 0.25981 0.19012 0.76224 0.0
C498 C 0.28214 0.22844 0.74885 0.0
C499 C 0.25276 0.18449 0.79961 0.0
C500 C 0.267 0.21733 0.82458 0.0
H501 H 0.24617 0.16523 0.74371 0.0
H502 H 0.23481 0.15494 0.80891 0.0
S503 S 0.33411 0.31973 0.80374 0.0
N504 N 0.32412 0.29653 0.76375 0.0
N505 N 0.3099 0.28634 0.83385 0.0
C506 C 0.29249 0.25397 0.81175 0.0
C507 C 0.30024 0.25942 0.77381 0.0
C508 C 0.73401 0.28444 0.83745 0.0
C509 C 0.77978 0.27791 0.84576 0.0
C510 C 0.72045 0.28984 0.80154 0.0
C511 C 0.75226 0.28753 0.77308 0.0
H512 H 0.70877 0.28646 0.85886 0.0
H513 H 0.68476 0.2951 0.79602 0.0
S514 S 0.87605 0.26922 0.78128 0.0
N515 N 0.85692 0.2689 0.82354 0.0
N516 N 0.83121 0.27735 0.75535 0.0
C517 C 0.79809 0.28009 0.78107 0.0
C518 C 0.81198 0.27573 0.81776 0.0
C519 C 0.83187 0.79501 0.21448 0.0
C520 C 0.79447 0.78278 0.19337 0.0
C521 C 0.82675 0.80376 0.25157 0.0
C522 C 0.78428 0.79935 0.26869 0.0
H523 H 0.86542 0.79677 0.20243 0.0
H524 H 0.85669 0.81183 0.26719 0.0
S525 S 0.67575 0.76895 0.22464 0.0
N526 N 0.71345 0.76838 0.19133 0.0
N527 N 0.70391 0.78349 0.26151 0.0
C528 C 0.74632 0.78859 0.24753 0.0
C529 C 0.75142 0.78061 0.20962 0.0
C530 C 0.39531 0.50797 0.48596 0.0
C531 C 0.40535 0.55382 0.48058 0.0
C532 C 0.39806 0.48929 0.52078 0.0
C533 C 0.41 0.51637 0.55064 0.0
H534 H 0.39314 0.48511 0.463 0.0
H535 H 0.39791 0.45287 0.52328 0.0
S536 S 0.41917 0.64093 0.55156 0.0
N537 N 0.41241 0.62759 0.50842 0.0
N538 N 0.41639 0.59291 0.57405 0.0
C539 C 0.4087 0.56346 0.54644 0.0
C540 C 0.40655 0.58228 0.51099 0.0
C541 C 0.94609 0.52704 0.02127 0.0
C542 C 0.94998 0.48883 0.04356 0.0
C543 C 0.94714 0.52276 0.98328 0.0
C544 C 0.95193 0.48017 0.96684 0.0
H545 H 0.94283 0.56038 0.03322 0.0
H546 H 0.94387 0.5527 0.96674 0.0
S547 S 0.96773 0.37057 1.01268 0.0
N548 N 0.96113 0.40735 0.04604 0.0
N549 N 0.96368 0.40001 0.97491 0.0
C550 C 0.95643 0.44205 0.98866 0.0
C551 C 0.95522 0.44617 0.02707 0.0
C552 C 0.19009 0.1245 0.12538 0.0
C553 C 0.1631 0.16112 0.11429 0.0
C554 C 0.1705 0.08627 0.14197 0.0
C555 C 0.12339 0.08369 0.14882 0.0
H556 H 0.22656 0.12587 0.12205 0.0
H557 H 0.19245 0.05863 0.1498 0.0
S558 S 0.03773 0.16819 0.12047 0.0
N559 N 0.08661 0.19041 0.10814 0.0
N560 N 0.05025 0.11948 0.13965 0.0
C561 C 0.09616 0.11957 0.13681 0.0
C562 C 0.11589 0.15794 0.11947 0.0
C563 C 0.11242 0.82053 0.38617 0.0
C564 C 0.11893 0.8649 0.37355 0.0
C565 C 0.14456 0.79876 0.40802 0.0
C566 C 0.18504 0.82019 0.41843 0.0
H567 H 0.08136 0.80278 0.37987 0.0
H568 H 0.13717 0.76486 0.41711 0.0
S569 S 0.22041 0.93523 0.39004 0.0
N570 N 0.17002 0.92874 0.37145 0.0
N571 N 0.23112 0.88785 0.4119 0.0
C572 C 0.19293 0.86402 0.40472 0.0
C573 C 0.15989 0.88624 0.38238 0.0
C574 C 0.41787 0.82731 0.63612 0.0
C575 C 0.37064 0.82145 0.6377 0.0
C576 C 0.43936 0.86095 0.65637 0.0
C577 C 0.41462 0.89059 0.67909 0.0
H578 H 0.43866 0.80432 0.62018 0.0
H579 H 0.47594 0.8632 0.6544 0.0
S580 S 0.28952 0.89119 0.69096 0.0
N581 N 0.29929 0.849 0.66245 0.0
N582 N 0.33955 0.91327 0.7002 0.0
C583 C 0.367 0.88646 0.67965 0.0
C584 C 0.34506 0.85173 0.65901 0.0
C585 C 0.40021 0.18512 0.90184 0.0
C586 C 0.3623 0.16662 0.91971 0.0
C587 C 0.43148 0.1577 0.88307 0.0
C588 C 0.42618 0.11053 0.88103 0.0
H589 H 0.40615 0.22115 0.90255 0.0
H590 H 0.46084 0.17345 0.87075 0.0
S591 S 0.3325 0.04481 0.92191 0.0
N592 N 0.32077 0.09761 0.93305 0.0
N593 N 0.37991 0.04649 0.89788 0.0
C594 C 0.38798 0.09157 0.89784 0.0
C595 C 0.35607 0.11944 0.91718 0.0
C596 C 0.10628 0.86611 0.90431 0.0
C597 C 0.15334 0.85894 0.90191 0.0
C598 C 0.08394 0.89662 0.88139 0.0
C599 C 0.10757 0.92242 0.85534 0.0
H600 H 0.08614 0.84623 0.92299 0.0
H601 H 0.04753 0.90006 0.88438 0.0
S602 S 0.2309 0.9137 0.83606 0.0
N603 N 0.22263 0.87791 0.86974 0.0
N604 N 0.18101 0.93697 0.82768 0.0
C605 C 0.15484 0.91593 0.85282 0.0
C606 C 0.17756 0.88387 0.87579 0.0
C607 C 0.39375 0.83055 0.17672 0.0
C608 C 0.391 0.87635 0.18706 0.0
C609 C 0.35645 0.80735 0.16244 0.0
C610 C 0.31347 0.8277 0.15926 0.0
H611 H 0.42571 0.81259 0.17829 0.0
H612 H 0.36224 0.77345 0.15291 0.0
S613 S 0.28506 0.94492 0.18657 0.0
N614 N 0.33981 0.94036 0.19524 0.0
N615 N 0.26913 0.89532 0.1706 0.0
C616 C 0.30893 0.87224 0.17212 0.0
C617 C 0.34756 0.89673 0.18568 0.0
C618 C 0.34834 0.14079 0.40065 0.0
C619 C 0.37146 0.17853 0.4145 0.0
C620 C 0.37233 0.10382 0.38554 0.0
C621 C 0.42012 0.10386 0.38311 0.0
H622 H 0.31162 0.14057 0.4003 0.0
H623 H 0.35334 0.07566 0.3747 0.0
S624 S 0.49627 0.19149 0.42079 0.0
N625 N 0.44471 0.21096 0.4289 0.0
N626 N 0.4894 0.14276 0.39971 0.0
C627 C 0.44341 0.1405 0.39842 0.0
C628 C 0.41918 0.17742 0.41433 0.0
C629 C 0.09326 0.14427 0.61893 0.0
C630 C 0.07908 0.14396 0.65554 0.0
C631 C 0.12475 0.1762 0.60599 0.0
C632 C 0.14248 0.20986 0.62895 0.0
H633 H 0.07931 0.12001 0.60001 0.0
H634 H 0.13467 0.17489 0.57765 0.0
S635 S 0.11434 0.22439 0.72712 0.0
N636 N 0.08446 0.18014 0.71441 0.0
N637 N 0.1425 0.24057 0.6906 0.0
C638 C 0.12827 0.20974 0.66577 0.0
C639 C 0.09692 0.17675 0.67891 0.0
C640 C 0.88146 0.87322 0.84296 0.0
C641 C 0.89917 0.90856 0.86405 0.0
C642 C 0.85881 0.83693 0.85929 0.0
C643 C 0.85301 0.83472 0.89727 0.0
H644 H 0.88639 0.87278 0.81379 0.0
H645 H 0.84672 0.80979 0.84215 0.0
S646 S 0.89103 0.91958 0.96469 0.0
N647 N 0.90688 0.94014 0.92506 0.0
N648 N 0.86582 0.87138 0.95538 0.0
C649 C 0.86906 0.87058 0.91852 0.0
C650 C 0.89177 0.9076 0.902 0.0
C651 C 0.86584 0.14603 0.60548 0.0
C652 C 0.83474 0.16378 0.63085 0.0
C653 C 0.9049 0.12294 0.61699 0.0
C654 C 0.91381 0.11633 0.65419 0.0
H655 H 0.86149 0.15236 0.57676 0.0
H656 H 0.92934 0.11191 0.59672 0.0
S657 S 0.84009 0.1517 0.73118 0.0
N658 N 0.81317 0.1693 0.69467 0.0
N659 N 0.88655 0.12653 0.71607 0.0
C660 C 0.88136 0.13122 0.6796 0.0
C661 C 0.84184 0.15483 0.66797 0.0
C662 C 0.59715 0.15617 0.35465 0.0
C663 C 0.62747 0.12045 0.34772 0.0
C664 C 0.60915 0.19243 0.377 0.0
C665 C 0.65234 0.19534 0.39312 0.0
H666 H 0.56308 0.15554 0.34385 0.0
H667 H 0.58382 0.21825 0.38209 0.0
S668 S 0.74581 0.11239 0.38122 0.0
N669 N 0.70351 0.09097 0.35761 0.0
N670 N 0.72657 0.16023 0.39866 0.0
C671 C 0.68355 0.16045 0.38569 0.0
C672 C 0.67108 0.12296 0.36315 0.0
C673 C 0.59576 0.87873 0.10362 0.0
C674 C 0.63778 0.87379 0.12118 0.0
C675 C 0.55644 0.89222 0.1229 0.0
C676 C 0.55735 0.90096 0.16064 0.0
H677 H 0.59308 0.87188 0.0748 0.0
H678 H 0.52508 0.89591 0.10803 0.0
S679 S 0.65842 0.89139 0.21998 0.0
N680 N 0.67753 0.87892 0.17899 0.0
N681 N 0.60388 0.90171 0.21492 0.0
C682 C 0.59914 0.89582 0.17849 0.0
C683 C 0.63916 0.88291 0.15889 0.0
C684 C 0.91649 0.14177 0.14712 0.0
C685 C 0.86983 0.1456 0.14015 0.0
C686 C 0.93436 0.10487 0.1653 0.0
C687 C 0.90688 0.06883 0.17626 0.0
H688 H 0.93972 0.16789 0.1386 0.0
H689 H 0.97046 0.10437 0.17018 0.0
S690 S 0.78257 0.06043 0.16348 0.0
N691 N 0.79599 0.10971 0.14563 0.0
N692 N 0.83057 0.03813 0.17804 0.0
C693 C 0.86025 0.071 0.16854 0.0
C694 C 0.84155 0.10972 0.15075 0.0
C695 C 0.59233 0.0781 0.92731 0.0
C696 C 0.58903 0.07273 0.88936 0.0
C697 C 0.63076 0.09749 0.94317 0.0
C698 C 0.66722 0.11205 0.92158 0.0
H699 H 0.56398 0.06937 0.94472 0.0
H700 H 0.63069 0.10338 0.97222 0.0
S701 S 0.67792 0.09965 0.8213 0.0
N702 N 0.62717 0.07969 0.83101 0.0
N703 N 0.69998 0.11445 0.86063 0.0
C704 C 0.66592 0.10322 0.88389 0.0
C705 C 0.62667 0.08391 0.8678 0.0
C706 C 0.65814 0.85764 0.61563 0.0
C707 C 0.67611 0.82187 0.63591 0.0
C708 C 0.63487 0.89319 0.63255 0.0
C709 C 0.62825 0.89445 0.67053 0.0
H710 H 0.65996 0.8571 0.58623 0.0
H711 H 0.6203 0.9189 0.61531 0.0
S712 S 0.67449 0.81217 0.73642 0.0
N713 N 0.69049 0.79236 0.69635 0.0
N714 N 0.64575 0.85893 0.7282 0.0
C715 C 0.64837 0.86028 0.69138 0.0
C716 C 0.67245 0.82406 0.67407 0.0
C717 C 0.92579 0.87089 0.37045 0.0
C718 C 0.95666 0.90369 0.38202 0.0
C719 C 0.89062 0.85655 0.39332 0.0
C720 C 0.88467 0.8746 0.42844 0.0
H721 H 0.93031 0.85448 0.34432 0.0
H722 H 0.86824 0.83062 0.38356 0.0
S723 S 0.95454 0.96403 0.4704 0.0
N724 N 0.97812 0.95558 0.4301 0.0
N725 N 0.9108 0.92942 0.47268 0.0
C726 C 0.91374 0.90929 0.43956 0.0
C727 C 0.95015 0.92349 0.41647 0.0
C728 C 0.64057 0.63204 0.59377 0.0
C729 C 0.66852 0.6555 0.6181 0.0
C730 C 0.61447 0.59514 0.60531 0.0
C731 C 0.6157 0.57969 0.64152 0.0
H732 H 0.63702 0.64372 0.56608 0.0
H733 H 0.59211 0.57935 0.58582 0.0
S734 S 0.68691 0.62713 0.71499 0.0
N735 N 0.69828 0.65903 0.67943 0.0
N736 N 0.64992 0.58925 0.70094 0.0
C737 C 0.64553 0.60131 0.66559 0.0
C738 C 0.67164 0.63933 0.65394 0.0
C739 C 0.61296 0.329 0.89127 0.0
C740 C 0.61948 0.37537 0.88498 0.0
C741 C 0.64126 0.30451 0.91453 0.0
C742 C 0.67775 0.3251 0.93261 0.0
H743 H 0.58475 0.31166 0.87873 0.0
H744 H 0.63442 0.26894 0.91816 0.0
S745 S 0.7098 0.44596 0.92498 0.0
N746 N 0.66507 0.44109 0.89848 0.0
N747 N 0.71918 0.39521 0.9418 0.0
C748 C 0.6852 0.37147 0.92605 0.0
C749 C 0.65605 0.39647 0.90227 0.0
C750 C 0.90911 0.36725 0.17201 0.0
C751 C 0.95451 0.37067 0.16008 0.0
C752 C 0.87884 0.33664 0.15579 0.0
C753 C 0.89276 0.30848 0.12698 0.0
H754 H 0.89681 0.38834 0.19406 0.0
H755 H 0.84479 0.33381 0.16671 0.0
S756 S 0.00826 0.30225 0.08701 0.0
N757 N 0.01172 0.34255 0.11796 0.0
N758 N 0.95524 0.2845 0.08828 0.0
C759 C 0.93786 0.31167 0.11475 0.0
C760 C 0.96855 0.34295 0.13102 0.0
C761 C 0.88154 0.67112 0.36609 0.0
C762 C 0.86559 0.67529 0.40215 0.0
C763 C 0.91013 0.6355 0.35546 0.0
C764 C 0.92431 0.60297 0.38057 0.0
H765 H 0.87266 0.69614 0.34596 0.0
H766 H 0.92328 0.63489 0.32793 0.0
S767 S 0.88959 0.5961 0.47734 0.0
N768 N 0.86352 0.64167 0.46222 0.0
N769 N 0.91823 0.57525 0.44238 0.0
C770 C 0.90705 0.60545 0.41624 0.0
C771 C 0.87738 0.64142 0.42698 0.0
C772 C 0.6143 0.41766 0.37024 0.0
C773 C 0.57439 0.43148 0.38834 0.0
C774 C 0.64045 0.38132 0.38328 0.0
C775 C 0.62775 0.35792 0.41496 0.0
H776 H 0.6256 0.43515 0.34609 0.0
H777 H 0.67057 0.37116 0.36836 0.0
S778 S 0.52386 0.37672 0.46987 0.0
N779 N 0.52211 0.4161 0.43841 0.0
N780 N 0.57104 0.34819 0.46193 0.0
C781 C 0.58769 0.37071 0.43274 0.0
C782 C 0.56112 0.4074 0.41972 0.0
C783 C 0.89221 0.34955 0.66027 0.0
C784 C 0.8931 0.39443 0.6733 0.0
C785 C 0.8532 0.33061 0.64466 0.0
C786 C 0.81221 0.35493 0.64189 0.0
H787 H 0.92233 0.32864 0.66169 0.0
H788 H 0.85532 0.2962 0.63479 0.0
S789 S 0.79409 0.47256 0.67373 0.0
N790 N 0.8479 0.46233 0.68308 0.0
N791 N 0.7741 0.42577 0.65539 0.0
C792 C 0.81156 0.39905 0.65632 0.0
C793 C 0.85187 0.41889 0.67164 0.0
C794 C 0.84247 0.64114 0.88344 0.0
C795 C 0.86207 0.66892 0.91016 0.0
C796 C 0.86776 0.60663 0.86606 0.0
C797 C 0.91394 0.59934 0.87406 0.0
H798 H 0.80792 0.6473 0.87491 0.0
H799 H 0.85141 0.58652 0.84533 0.0
S800 S 0.97957 0.66026 0.94467 0.0
N801 N 0.92921 0.68479 0.94557 0.0
N802 N 0.97672 0.62066 0.91309 0.0
C803 C 0.93329 0.62599 0.9017 0.0
C804 C 0.9074 0.66057 0.91962 0.0
C805 C 0.59784 0.67267 0.14099 0.0
C806 C 0.60274 0.62626 0.14782 0.0
C807 C 0.63207 0.69747 0.1239 0.0
C808 C 0.67327 0.67728 0.1128 0.0
H809 H 0.56676 0.69003 0.14848 0.0
H810 H 0.62574 0.73298 0.11922 0.0
S811 S 0.70486 0.55721 0.12691 0.0
N812 N 0.65294 0.56124 0.14377 0.0
N813 N 0.71799 0.6081 0.11216 0.0
C814 C 0.67948 0.63113 0.12068 0.0
C815 C 0.64421 0.60566 0.13814 0.0
C816 C 0.33869 0.38165 0.39157 0.0
C817 C 0.36591 0.34408 0.40016 0.0
C818 C 0.35652 0.41862 0.37242 0.0
C819 C 0.40193 0.419 0.36034 0.0
H820 H 0.30312 0.38221 0.399 0.0
H821 H 0.33433 0.44683 0.36655 0.0
S822 S 0.48872 0.33107 0.37836 0.0
N823 N 0.4423 0.31227 0.39821 0.0
N824 N 0.47428 0.37956 0.35978 0.0
C825 C 0.42966 0.38206 0.36911 0.0
C826 C 0.41208 0.34527 0.38966 0.0
C827 C 0.43314 0.61091 0.10382 0.0
C828 C 0.43626 0.59949 0.14109 0.0
C829 C 0.39563 0.63481 0.09004 0.0
C830 C 0.35947 0.64721 0.11288 0.0
H831 H 0.46111 0.60375 0.0855 0.0
H832 H 0.39657 0.64642 0.06219 0.0
S833 S 0.34486 0.61643 0.20983 0.0
N834 N 0.3958 0.59752 0.19896 0.0
N835 N 0.32454 0.63871 0.17229 0.0
C836 C 0.35948 0.63111 0.14879 0.0
C837 C 0.39794 0.60805 0.1631 0.0
C838 C 0.16866 0.61719 0.87629 0.0
C839 C 0.12582 0.61609 0.85951 0.0
C840 C 0.18321 0.65535 0.89576 0.0
C841 C 0.15508 0.69348 0.89971 0.0
H842 H 0.19108 0.58824 0.87442 0.0
H843 H 0.21684 0.65516 0.90743 0.0
S844 S 0.03781 0.70574 0.86429 0.0
N845 N 0.05468 0.65574 0.84964 0.0
N846 N 0.08072 0.7261 0.88767 0.0
C847 C 0.11158 0.69214 0.88394 0.0
C848 C 0.09733 0.6539 0.86342 0.0
C849 C 0.14219 0.38972 0.6508 0.0
C850 C 0.14232 0.38477 0.61278 0.0
C851 C 0.10269 0.40184 0.66992 0.0
C852 C 0.06157 0.41053 0.65186 0.0
H853 H 0.17268 0.38294 0.66616 0.0
H854 H 0.10435 0.40361 0.69926 0.0
S855 S 0.04521 0.40598 0.55178 0.0
N856 N 0.09859 0.39061 0.55745 0.0
N857 N 0.02479 0.41612 0.59288 0.0
C858 C 0.06162 0.40674 0.61356 0.0
C859 C 0.1018 0.39323 0.59418 0.0
C860 C 0.42442 0.65658 0.64803 0.0
C861 C 0.37765 0.65556 0.64003 0.0
C862 C 0.44597 0.62101 0.66604 0.0
C863 C 0.42195 0.58236 0.67661 0.0
H864 H 0.4448 0.68532 0.64021 0.0
H865 H 0.48198 0.62371 0.67124 0.0
S866 S 0.2992 0.56178 0.66143 0.0
N867 N 0.30812 0.6122 0.64394 0.0
N868 N 0.34874 0.54456 0.67692 0.0
C869 C 0.37536 0.58023 0.66811 0.0
C870 C 0.35325 0.61686 0.64997 0.0
C871 C 0.12785 0.59742 0.44906 0.0
C872 C 0.16399 0.61175 0.42696 0.0
C873 C 0.08992 0.57617 0.43396 0.0
C874 C 0.08674 0.56868 0.39625 0.0
H875 H 0.12793 0.60429 0.47797 0.0
H876 H 0.06199 0.56725 0.45174 0.0
S877 S 0.17387 0.59645 0.32684 0.0
N878 N 0.19591 0.61318 0.36567 0.0
N879 N 0.12397 0.57521 0.33745 0.0
C880 C 0.12374 0.58058 0.37415 0.0
C881 C 0.1625 0.60167 0.38948 0.0
C882 C 0.10768 0.35924 0.16921 0.0
C883 C 0.13465 0.39612 0.17921 0.0
C884 C 0.1243 0.32544 0.14625 0.0
C885 C 0.16931 0.3259 0.13325 0.0
H886 H 0.07288 0.35681 0.17846 0.0
H887 H 0.10147 0.29844 0.13878 0.0
S888 S 0.25457 0.41449 0.15259 0.0
N889 N 0.20844 0.43182 0.17423 0.0
N890 N 0.24102 0.3663 0.13282 0.0
C891 C 0.19693 0.36256 0.14316 0.0
C892 C 0.17937 0.39795 0.16585 0.0
C893 C 0.44682 0.36216 0.88949 0.0
C894 C 0.45627 0.40676 0.8789 0.0
C895 C 0.40823 0.35174 0.90977 0.0
C896 C 0.37668 0.38524 0.91956 0.0
H897 H 0.4702 0.33504 0.88279 0.0
H898 H 0.40282 0.31689 0.9174 0.0
S899 S 0.38299 0.50652 0.89621 0.0
N900 N 0.42981 0.48454 0.87857 0.0
N901 N 0.35538 0.46426 0.91525 0.0
C902 C 0.38414 0.42958 0.90761 0.0
C903 C 0.4243 0.4405 0.88752 0.0
C904 C 0.1109 0.76903 0.17927 0.0
C905 C 0.13809 0.765 0.21013 0.0
C906 C 0.10294 0.8113 0.16382 0.0
C907 C 0.12146 0.85057 0.17929 0.0
H908 H 0.09584 0.73942 0.16704 0.0
H909 H 0.08135 0.81324 0.14017 0.0
S910 S 0.19435 0.85655 0.26119 0.0
N911 N 0.18289 0.80241 0.2562 0.0
N912 N 0.16848 0.88222 0.22736 0.0
C913 C 0.1489 0.84655 0.2103 0.0
C914 C 0.15705 0.80353 0.22575 0.0
C915 C 0.45396 0.84197 0.41533 0.0
C916 C 0.43573 0.87595 0.39326 0.0
C917 C 0.43678 0.83491 0.45037 0.0
C918 C 0.40072 0.8613 0.46372 0.0
H919 H 0.48182 0.82123 0.40559 0.0
H920 H 0.45113 0.80829 0.46684 0.0
S921 S 0.34128 0.95378 0.41622 0.0
N922 N 0.38012 0.93605 0.38692 0.0
N923 N 0.34714 0.92201 0.45269 0.0
C924 C 0.38218 0.89517 0.44191 0.0
C925 C 0.39989 0.90266 0.40649 0.0
C926 C 0.2831 0.12412 0.627 0.0
C927 C 0.30673 0.16495 0.62511 0.0
C928 C 0.29289 0.09283 0.6542 0.0
C929 C 0.3273 0.10139 0.67966 0.0
H930 H 0.25898 0.11521 0.60608 0.0
H931 H 0.27668 0.06015 0.65287 0.0
S932 S 0.39305 0.20743 0.68911 0.0
N933 N 0.36192 0.21487 0.65247 0.0
N934 N 0.37872 0.15748 0.70506 0.0
C935 C 0.34699 0.14468 0.68043 0.0
C936 C 0.33766 0.17594 0.65233 0.0
C937 C 0.1385 0.15728 0.89711 0.0
C938 C 0.16569 0.1237 0.91299 0.0
C939 C 0.13029 0.1569 0.85965 0.0
C940 C 0.14913 0.12297 0.83748 0.0
H941 H 0.12328 0.18355 0.91375 0.0
H942 H 0.1083 0.18241 0.84816 0.0
S943 S 0.22504 0.03016 0.86587 0.0
N944 N 0.21299 0.05746 0.90391 0.0
N945 N 0.19753 0.05673 0.8333 0.0
C946 C 0.17717 0.09006 0.85292 0.0
C947 C 0.18534 0.09031 0.89094 0.0
C948 C 0.95359 0.15373 0.88462 0.0
C949 C 0.9349 0.12168 0.86058 0.0
C950 C 0.92683 0.17498 0.91172 0.0
C951 C 0.88051 0.16455 0.91614 0.0
H952 H 0.9895 0.16123 0.88345 0.0
H953 H 0.94274 0.19908 0.92972 0.0
S954 S 0.8144 0.08643 0.85737 0.0
N955 N 0.86648 0.08365 0.84104 0.0
N956 N 0.81674 0.12216 0.89172 0.0
C957 C 0.86135 0.13357 0.89134 0.0
C958 C 0.88832 0.11261 0.86366 0.0
C959 C 0.64646 0.1428 0.67506 0.0
C960 C 0.63432 0.17064 0.64569 0.0
C961 C 0.61605 0.11155 0.68995 0.0
C962 C 0.57163 0.10727 0.67668 0.0
H963 H 0.68019 0.14469 0.68653 0.0
H964 H 0.62754 0.09056 0.71209 0.0
S965 S 0.52217 0.17291 0.60063 0.0
N966 N 0.57449 0.19211 0.60406 0.0
N967 N 0.51684 0.13404 0.63237 0.0
C968 C 0.55868 0.13538 0.64764 0.0
C969 C 0.59007 0.16677 0.632 0.0
C970 C 0.68766 0.89887 0.3772 0.0
C971 C 0.68953 0.88421 0.41355 0.0
C972 C 0.65233 0.92648 0.36479 0.0
C973 C 0.61771 0.94149 0.38832 0.0
H974 H 0.71317 0.888 0.35772 0.0
H975 H 0.65214 0.936 0.33642 0.0
S976 S 0.60816 0.9146 0.4866 0.0
N977 N 0.65432 0.88749 0.47314 0.0
N978 N 0.58839 0.94056 0.45033 0.0
C979 C 0.61972 0.928 0.42503 0.0
C980 C 0.65539 0.89901 0.43749 0.0
C981 C 0.90354 0.88743 0.14491 0.0
C982 C 0.94492 0.8983 0.12804 0.0
C983 C 0.86967 0.8636 0.12604 0.0
C984 C 0.87642 0.84817 0.09004 0.0
H985 H 0.89654 0.89886 0.17234 0.0
H986 H 0.83785 0.85718 0.13984 0.0
S987 S 0.97996 0.86519 0.03453 0.0
N988 N 0.99109 0.89082 0.07339 0.0
N989 N 0.92854 0.84389 0.03903 0.0
C990 C 0.91829 0.8572 0.07345 0.0
C991 C 0.95219 0.88277 0.09216 0.0
C992 C 0.61985 0.42478 0.62562 0.0
C993 C 0.61084 0.41763 0.58865 0.0
C994 C 0.61911 0.38872 0.65017 0.0
C995 C 0.60943 0.34486 0.63811 0.0
H996 H 0.62602 0.4585 0.63571 0.0
H997 H 0.62349 0.39557 0.67886 0.0
S998 S 0.58979 0.30794 0.54355 0.0
N999 N 0.59734 0.36303 0.54066 0.0
N1000 N 0.59461 0.29548 0.58701 0.0
C1001 C 0.60331 0.33698 0.60101 0.0
C1002 C 0.60456 0.37344 0.57608 0.0
C1003 C 0.83393 0.41297 0.92602 0.0
C1004 C 0.86036 0.37909 0.94212 0.0
C1005 C 0.83658 0.42078 0.88855 0.0
C1006 C 0.86666 0.39562 0.86673 0.0
H1007 H 0.81095 0.43313 0.94244 0.0
H1008 H 0.81606 0.44729 0.87677 0.0
S1009 S 0.93765 0.29926 0.89486 0.0
N1010 N 0.91427 0.31775 0.93305 0.0
N1011 N 0.92037 0.33378 0.8627 0.0
C1012 C 0.8933 0.36187 0.88245 0.0
C1013 C 0.89027 0.35354 0.92041 0.0
C1014 C 0.87581 0.52689 0.13945 0.0
C1015 C 0.87855 0.54325 0.17514 0.0
C1016 C 0.86098 0.55495 0.11122 0.0
C1017 C 0.84784 0.59953 0.11868 0.0
H1018 H 0.88586 0.49257 0.13346 0.0
H1019 H 0.86155 0.54244 0.08354 0.0
S1020 S 0.83417 0.65237 0.20964 0.0
N1021 N 0.85783 0.60288 0.2176 0.0
N1022 N 0.82734 0.6545 0.16523 0.0
C1023 C 0.84471 0.61385 0.15503 0.0
C1024 C 0.86054 0.58581 0.18331 0.0
C1025 C 0.67879 0.58914 0.40096 0.0
C1026 C 0.64528 0.59947 0.42697 0.0
C1027 C 0.70875 0.6222 0.38868 0.0
C1028 C 0.7064 0.66659 0.40222 0.0
H1029 H 0.67974 0.55633 0.38785 0.0
H1030 H 0.73252 0.61328 0.36731 0.0
S1031 S 0.63093 0.70766 0.47656 0.0
N1032 N 0.61585 0.65468 0.47003 0.0
N1033 N 0.67244 0.71707 0.44733 0.0
C1034 C 0.6759 0.67607 0.43083 0.0
C1035 C 0.6453 0.64239 0.4432 0.0
C1036 C 0.36386 0.63325 0.40106 0.0
C1037 C 0.38093 0.66574 0.42562 0.0
C1038 C 0.39058 0.61559 0.37266 0.0
C1039 C 0.4358 0.6291 0.36798 0.0
H1040 H 0.32942 0.6211 0.40365 0.0
H1041 H 0.37619 0.58988 0.35529 0.0
S1042 S 0.49643 0.71478 0.42307 0.0
N1043 N 0.4455 0.71226 0.44177 0.0
N1044 N 0.49593 0.67855 0.38891 0.0
C1045 C 0.45289 0.66257 0.39147 0.0
C1046 C 0.42554 0.68089 0.42019 0.0
C1047 C 0.14001 0.59359 0.18595 0.0
C1048 C 0.09668 0.59192 0.17028 0.0
C1049 C 0.17328 0.62369 0.1729 0.0
C1050 C 0.16428 0.6538 0.14411 0.0
H1051 H 0.14908 0.56995 0.20707 0.0
H1052 H 0.20677 0.6223 0.18478 0.0
S1053 S 0.05385 0.66639 0.09714 0.0
N1054 N 0.04531 0.62542 0.12658 0.0
N1055 N 0.10699 0.68215 0.10269 0.0
C1056 C 0.12021 0.65385 0.12962 0.0
C1057 C 0.08667 0.62304 0.14262 0.0
C1058 C 0.16483 0.36661 0.88421 0.0
C1059 C 0.15143 0.33441 0.91021 0.0
C1060 C 0.13291 0.39387 0.86611 0.0
C1061 C 0.08601 0.39041 0.87323 0.0
H1062 H 0.2004 0.37058 0.87748 0.0
H1063 H 0.14523 0.4181 0.8465 0.0
S1064 S 0.03427 0.315 0.94233 0.0
N1065 N 0.08868 0.30242 0.94367 0.0
N1066 N 0.02874 0.35433 0.91094 0.0
C1067 C 0.07239 0.3588 0.89975 0.0
C1068 C 0.10498 0.33069 0.91784 0.0
C1069 C 0.36313 0.38773 0.65574 0.0
C1070 C 0.36082 0.36549 0.62192 0.0
C1071 C 0.40414 0.40358 0.66964 0.0
C1072 C 0.4451 0.39905 0.65016 0.0
H1073 H 0.33303 0.3919 0.67243 0.0
H1074 H 0.40346 0.41917 0.69626 0.0
S1075 S 0.45846 0.34374 0.56007 0.0
N1076 N 0.40364 0.33986 0.569 0.0
N1077 N 0.48095 0.37044 0.59503 0.0
C1078 C 0.44349 0.37772 0.6159 0.0
C1079 C 0.40138 0.36105 0.60173 0.0
loop_
_geom_bond_atom_site_label_1
_geom_bond_atom_site_label_2
_geom_bond_distance
_geom_bond_site_symmetry_2
_ccdc_geom_bond_type
O0 Tb1 2.292 . S
O0 C3 1.255 . S
Tb1 O0 2.292 . S
Tb1 O17 2.326 1_565 S
Tb1 O19 2.500 1_565 S
Tb1 O20 2.473 1_565 S
Tb1 O23 2.324 1_455 S
Eu2 O6 2.292 . S
Eu2 C7 2.852 . S
Eu2 O18 2.324 1_655 S
Eu2 O22 2.326 . S
Eu2 O24 2.500 . S
Eu2 O25 2.473 1_655 S
C3 O0 1.255 . S
C3 O4 1.247 . S
O4 C3 1.247 . S
C5 O17 1.242 . S
C5 O18 1.258 . S
O6 Eu2 2.292 . S
O6 C8 1.255 . S
C7 Eu2 2.852 . S
C7 C11 1.503 . S
C7 O24 1.273 . S
C7 O25 1.257 1_655 S
C8 O6 1.255 . S
C8 O9 1.247 . S
O9 C8 1.247 . S
C10 O22 1.242 . S
C10 O23 1.258 1_545 S
C11 C7 1.503 . S
C11 C12 1.379 1_655 S
C11 C16 1.392 . S
C12 C11 1.379 1_455 S
C12 C13 1.404 1_545 S
C12 H26 0.929 . S
C13 C12 1.404 1_565 S
C13 C14 1.389 1_455 S
C14 C13 1.389 1_655 S
C14 C15 1.399 1_565 S
C14 H27 0.931 . S
C15 C14 1.399 1_545 S
C15 C16 1.390 . S
C16 C11 1.392 . S
C16 C15 1.390 . S
C16 H28 0.929 . S
O17 Tb1 2.326 1_545 S
O17 C5 1.242 . S
O18 Eu2 2.324 1_455 S
O18 C5 1.258 . S
O19 Tb1 2.500 1_545 S
O19 C21 1.273 . S
O20 Tb1 2.473 1_545 S
O20 C21 1.257 . S
C21 O19 1.273 . S
C21 O20 1.257 . S
O22 Eu2 2.326 . S
O22 C10 1.242 . S
O23 Tb1 2.324 1_655 S
O23 C10 1.258 1_565 S
O24 Eu2 2.500 . S
O24 C7 1.273 . S
O25 Eu2 2.473 1_455 S
O25 C7 1.257 1_455 S
H26 C12 0.929 . S
H27 C14 0.931 . S
H28 C16 0.929 . S
O29 Tb30 2.292 . S
O29 C32 1.255 . S
Tb30 O29 2.292 . S
Tb30 O46 2.326 . S
Tb30 O48 2.500 . S
Tb30 O49 2.473 . S
Tb30 O52 2.324 . S
Eu31 O35 2.292 . S
Eu31 C36 2.852 . S
Eu31 O47 2.324 . S
Eu31 O51 2.326 . S
Eu31 O53 2.500 . S
Eu31 O54 2.473 . S
C32 O29 1.255 . S
C32 O33 1.247 . S
O33 C32 1.247 . S
C34 O46 1.242 . S
C34 O47 1.258 . S
O35 Eu31 2.292 . S
O35 C37 1.255 . S
C36 Eu31 2.852 . S
C36 C40 1.503 . S
C36 O53 1.273 . S
C36 O54 1.257 . S
C37 O35 1.255 . S
C37 O38 1.247 . S
O38 C37 1.247 . S
C39 O51 1.242 . S
C39 O52 1.258 . S
C40 C36 1.503 . S
C40 C41 1.379 . S
C40 C45 1.392 . S
C41 C40 1.379 . S
C41 C42 1.404 . S
C41 H55 0.929 . S
C42 C41 1.404 . S
C42 C43 1.389 . S
C43 C42 1.389 . S
C43 C44 1.399 . S
C43 H56 0.931 . S
C44 C43 1.399 . S
C44 C45 1.390 . S
C45 C40 1.392 . S
C45 C44 1.390 . S
C45 H57 0.929 . S
O46 Tb30 2.326 . S
O46 C34 1.242 . S
O47 Eu31 2.324 . S
O47 C34 1.258 . S
O48 Tb30 2.500 . S
O48 C50 1.273 . S
O49 Tb30 2.473 . S
O49 C50 1.257 . S
C50 O48 1.273 . S
C50 O49 1.257 . S
O51 Eu31 2.326 . S
O51 C39 1.242 . S
O52 Tb30 2.324 . S
O52 C39 1.258 . S
O53 Eu31 2.500 . S
O53 C36 1.273 . S
O54 Eu31 2.473 . S
O54 C36 1.257 . S
H55 C41 0.929 . S
H56 C43 0.931 . S
H57 C45 0.929 . S
O58 Tb59 2.292 . S
O58 C61 1.255 . S
Tb59 O58 2.292 . S
Tb59 O75 2.326 1_545 S
Tb59 O77 2.500 1_545 S
Tb59 O78 2.473 1_545 S
Tb59 O81 2.324 . S
Eu60 O64 2.292 . S
Eu60 C65 2.852 . S
Eu60 O76 2.324 . S
Eu60 O80 2.326 . S
Eu60 O82 2.500 . S
Eu60 O83 2.473 . S
C61 O58 1.255 . S
C61 O62 1.247 . S
O62 C61 1.247 . S
C63 O75 1.242 . S
C63 O76 1.258 . S
O64 Eu60 2.292 . S
O64 C66 1.255 . S
C65 Eu60 2.852 . S
C65 C69 1.503 . S
C65 O82 1.273 . S
C65 O83 1.257 . S
C66 O64 1.255 . S
C66 O67 1.247 . S
O67 C66 1.247 . S
C68 O80 1.242 . S
C68 O81 1.258 1_565 S
C69 C65 1.503 . S
C69 C70 1.379 . S
C69 C74 1.392 . S
C70 C69 1.379 . S
C70 C71 1.404 1_565 S
C70 H84 0.929 . S
C71 C70 1.404 1_545 S
C71 C72 1.389 . S
C72 C71 1.389 . S
C72 C73 1.399 1_545 S
C72 H85 0.931 . S
C73 C72 1.399 1_565 S
C73 C74 1.390 . S
C74 C69 1.392 . S
C74 C73 1.390 . S
C74 H86 0.929 . S
O75 Tb59 2.326 1_565 S
O75 C63 1.242 . S
O76 Eu60 2.324 . S
O76 C63 1.258 . S
O77 Tb59 2.500 1_565 S
O77 C79 1.273 . S
O78 Tb59 2.473 1_565 S
O78 C79 1.257 . S
C79 O77 1.273 . S
C79 O78 1.257 . S
O80 Eu60 2.326 . S
O80 C68 1.242 . S
O81 Tb59 2.324 . S
O81 C68 1.258 1_545 S
O82 Eu60 2.500 . S
O82 C65 1.273 . S
O83 Eu60 2.473 . S
O83 C65 1.257 . S
H84 C70 0.929 . S
H85 C72 0.931 . S
H86 C74 0.929 . S
O87 Tb88 2.292 . S
O87 C90 1.255 . S
Tb88 O87 2.292 . S
Tb88 O104 2.326 . S
Tb88 O106 2.500 . S
Tb88 O107 2.473 . S
Tb88 O110 2.324 . S
Eu89 O93 2.292 . S
Eu89 C94 2.852 1_556 S
Eu89 O105 2.324 . S
Eu89 O109 2.326 . S
Eu89 O111 2.499 1_556 S
Eu89 O112 2.473 . S
C90 O87 1.255 . S
C90 O91 1.247 . S
O91 C90 1.247 . S
C92 O104 1.242 . S
C92 O105 1.258 . S
O93 Eu89 2.292 . S
O93 C95 1.255 . S
C94 Eu89 2.852 1_554 S
C94 C98 1.503 . S
C94 O111 1.273 . S
C94 O112 1.257 1_554 S
C95 O93 1.255 . S
C95 O96 1.247 . S
O96 C95 1.247 . S
C97 O109 1.242 . S
C97 O110 1.258 . S
C98 C94 1.503 . S
C98 C99 1.379 . S
C98 C103 1.392 . S
C99 C98 1.379 . S
C99 C100 1.404 . S
C99 H113 0.929 . S
C100 C99 1.404 . S
C100 C101 1.389 . S
C101 C100 1.389 . S
C101 C102 1.399 . S
C101 H114 0.931 . S
C102 C101 1.399 . S
C102 C103 1.390 . S
C103 C98 1.392 . S
C103 C102 1.390 . S
C103 H115 0.929 . S
O104 Tb88 2.326 . S
O104 C92 1.242 . S
O105 Eu89 2.324 . S
O105 C92 1.258 . S
O106 Tb88 2.500 . S
O106 C108 1.273 . S
O107 Tb88 2.473 . S
O107 C108 1.257 . S
C108 O106 1.273 . S
C108 O107 1.257 . S
O109 Eu89 2.326 . S
O109 C97 1.242 . S
O110 Tb88 2.324 . S
O110 C97 1.258 . S
O111 Eu89 2.499 1_554 S
O111 C94 1.273 . S
O112 Eu89 2.473 . S
O112 C94 1.257 1_556 S
H113 C99 0.929 . S
H114 C101 0.931 . S
H115 C103 0.929 . S
O116 Tb117 2.292 . S
O116 C119 1.255 . S
Tb117 O116 2.292 . S
Tb117 O133 2.326 1_545 S
Tb117 O135 2.500 1_545 S
Tb117 O136 2.473 1_545 S
Tb117 O139 2.324 1_455 S
Eu118 O122 2.292 . S
Eu118 C123 2.852 . S
Eu118 O134 2.324 1_655 S
Eu118 O138 2.326 . S
Eu118 O140 2.500 . S
Eu118 O141 2.473 1_655 S
C119 O116 1.255 . S
C119 O120 1.247 . S
O120 C119 1.247 . S
C121 O133 1.242 . S
C121 O134 1.258 . S
O122 Eu118 2.292 . S
O122 C124 1.255 . S
C123 Eu118 2.852 . S
C123 C127 1.503 . S
C123 O140 1.273 . S
C123 O141 1.257 1_655 S
C124 O122 1.255 . S
C124 O125 1.247 . S
O125 C124 1.247 . S
C126 O138 1.242 . S
C126 O139 1.258 1_565 S
C127 C123 1.503 . S
C127 C128 1.379 1_655 S
C127 C132 1.392 . S
C128 C127 1.379 1_455 S
C128 C129 1.404 1_565 S
C128 H142 0.929 . S
C129 C128 1.404 1_545 S
C129 C130 1.389 1_455 S
C130 C129 1.389 1_655 S
C130 C131 1.399 1_545 S
C130 H143 0.931 . S
C131 C130 1.399 1_565 S
C131 C132 1.390 . S
C132 C127 1.392 . S
C132 C131 1.390 . S
C132 H144 0.929 . S
O133 Tb117 2.326 1_565 S
O133 C121 1.242 . S
O134 Eu118 2.324 1_455 S
O134 C121 1.258 . S
O135 Tb117 2.500 1_565 S
O135 C137 1.273 . S
O136 Tb117 2.473 1_565 S
O136 C137 1.257 . S
C137 O135 1.273 . S
C137 O136 1.257 . S
O138 Eu118 2.326 . S
O138 C126 1.242 . S
O139 Tb117 2.324 1_655 S
O139 C126 1.258 1_545 S
O140 Eu118 2.500 . S
O140 C123 1.273 . S
O141 Eu118 2.473 1_455 S
O141 C123 1.257 1_455 S
H142 C128 0.929 . S
H143 C130 0.931 . S
H144 C132 0.929 . S
O145 Tb146 2.292 . S
O145 C148 1.255 . S
Tb146 O145 2.292 . S
Tb146 O162 2.326 . S
Tb146 O164 2.500 . S
Tb146 O165 2.473 . S
Tb146 O168 2.324 . S
Eu147 O151 2.292 . S
Eu147 C152 2.852 1_554 S
Eu147 O163 2.324 . S
Eu147 O167 2.326 . S
Eu147 O169 2.499 1_554 S
Eu147 O170 2.473 . S
C148 O145 1.255 . S
C148 O149 1.247 . S
O149 C148 1.247 . S
C150 O162 1.242 . S
C150 O163 1.258 . S
O151 Eu147 2.292 . S
O151 C153 1.255 . S
C152 Eu147 2.852 1_556 S
C152 C156 1.503 . S
C152 O169 1.273 . S
C152 O170 1.257 1_556 S
C153 O151 1.255 . S
C153 O154 1.247 . S
O154 C153 1.247 . S
C155 O167 1.242 . S
C155 O168 1.258 . S
C156 C152 1.503 . S
C156 C157 1.379 . S
C156 C161 1.392 . S
C157 C156 1.379 . S
C157 C158 1.404 . S
C157 H171 0.929 . S
C158 C157 1.404 . S
C158 C159 1.389 . S
C159 C158 1.389 . S
C159 C160 1.399 . S
C159 H172 0.931 . S
C160 C159 1.399 . S
C160 C161 1.390 . S
C161 C156 1.392 . S
C161 C160 1.390 . S
C161 H173 0.929 . S
O162 Tb146 2.326 . S
O162 C150 1.242 . S
O163 Eu147 2.324 . S
O163 C150 1.258 . S
O164 Tb146 2.500 . S
O164 C166 1.273 . S
O165 Tb146 2.473 . S
O165 C166 1.257 . S
C166 O164 1.273 . S
C166 O165 1.257 . S
O167 Eu147 2.326 . S
O167 C155 1.242 . S
O168 Tb146 2.324 . S
O168 C155 1.258 . S
O169 Eu147 2.499 1_556 S
O169 C152 1.273 . S
O170 Eu147 2.473 . S
O170 C152 1.257 1_554 S
H171 C157 0.929 . S
H172 C159 0.931 . S
H173 C161 0.929 . S
O174 Tb175 2.292 . S
O174 C177 1.255 . S
Tb175 O174 2.292 . S
Tb175 O191 2.326 1_565 S
Tb175 O193 2.500 1_565 S
Tb175 O194 2.473 1_565 S
Tb175 O197 2.324 . S
Eu176 O180 2.292 . S
Eu176 C181 2.852 . S
Eu176 O192 2.324 . S
Eu176 O196 2.326 . S
Eu176 O198 2.500 . S
Eu176 O199 2.473 . S
C177 O174 1.255 . S
C177 O178 1.247 . S
O178 C177 1.247 . S
C179 O191 1.242 . S
C179 O192 1.258 . S
O180 Eu176 2.292 . S
O180 C182 1.255 . S
C181 Eu176 2.852 . S
C181 C185 1.503 . S
C181 O198 1.273 . S
C181 O199 1.257 . S
C182 O180 1.255 . S
C182 O183 1.247 . S
O183 C182 1.247 . S
C184 O196 1.242 . S
C184 O197 1.258 1_545 S
C185 C181 1.503 . S
C185 C186 1.379 . S
C185 C190 1.392 . S
C186 C185 1.379 . S
C186 C187 1.404 1_545 S
C186 H200 0.929 . S
C187 C186 1.404 1_565 S
C187 C188 1.389 . S
C188 C187 1.389 . S
C188 C189 1.399 1_565 S
C188 H201 0.931 . S
C189 C188 1.399 1_545 S
C189 C190 1.390 . S
C190 C185 1.392 . S
C190 C189 1.390 . S
C190 H202 0.929 . S
O191 Tb175 2.326 1_545 S
O191 C179 1.242 . S
O192 Eu176 2.324 . S
O192 C179 1.258 . S
O193 Tb175 2.500 1_545 S
O193 C195 1.273 . S
O194 Tb175 2.473 1_545 S
O194 C195 1.257 . S
C195 O193 1.273 . S
C195 O194 1.257 . S
O196 Eu176 2.326 . S
O196 C184 1.242 . S
O197 Tb175 2.324 . S
O197 C184 1.258 1_565 S
O198 Eu176 2.500 . S
O198 C181 1.273 . S
O199 Eu176 2.473 . S
O199 C181 1.257 . S
H200 C186 0.929 . S
H201 C188 0.931 . S
H202 C190 0.929 . S
O203 Tb204 2.292 . S
O203 C206 1.255 . S
Tb204 O203 2.292 . S
Tb204 O220 2.326 . S
Tb204 O222 2.500 . S
Tb204 O223 2.473 . S
Tb204 O226 2.324 . S
Eu205 O209 2.292 . S
Eu205 C210 2.852 . S
Eu205 O221 2.324 . S
Eu205 O225 2.326 . S
Eu205 O227 2.500 . S
Eu205 O228 2.473 . S
C206 O203 1.255 . S
C206 O207 1.247 . S
O207 C206 1.247 . S
C208 O220 1.242 . S
C208 O221 1.258 . S
O209 Eu205 2.292 . S
O209 C211 1.255 . S
C210 Eu205 2.852 . S
C210 C214 1.503 . S
C210 O227 1.273 . S
C210 O228 1.257 . S
C211 O209 1.255 . S
C211 O212 1.247 . S
O212 C211 1.247 . S
C213 O225 1.242 . S
C213 O226 1.258 . S
C214 C210 1.503 . S
C214 C215 1.379 . S
C214 C219 1.392 . S
C215 C214 1.379 . S
C215 C216 1.404 . S
C215 H229 0.929 . S
C216 C215 1.404 . S
C216 C217 1.389 . S
C217 C216 1.389 . S
C217 C218 1.399 . S
C217 H230 0.931 . S
C218 C217 1.399 . S
C218 C219 1.390 . S
C219 C214 1.392 . S
C219 C218 1.390 . S
C219 H231 0.929 . S
O220 Tb204 2.326 . S
O220 C208 1.242 . S
O221 Eu205 2.324 . S
O221 C208 1.258 . S
O222 Tb204 2.500 . S
O222 C224 1.273 . S
O223 Tb204 2.473 . S
O223 C224 1.257 . S
C224 O222 1.273 . S
C224 O223 1.257 . S
O225 Eu205 2.326 . S
O225 C213 1.242 . S
O226 Tb204 2.324 . S
O226 C213 1.258 . S
O227 Eu205 2.500 . S
O227 C210 1.273 . S
O228 Eu205 2.473 . S
O228 C210 1.257 . S
H229 C215 0.929 . S
H230 C217 0.931 . S
H231 C219 0.929 . S
O232 Tb233 2.292 . S
O232 C235 1.255 . S
Tb233 O232 2.292 . S
Tb233 O249 2.326 . S
Tb233 O251 2.500 . S
Tb233 O252 2.473 . S
Tb233 O255 2.324 . S
Eu234 O238 2.292 . S
Eu234 C239 2.852 . S
Eu234 O250 2.324 . S
Eu234 O254 2.326 . S
Eu234 O256 2.500 . S
Eu234 O257 2.473 . S
C235 O232 1.255 . S
C235 O236 1.247 . S
O236 C235 1.247 . S
C237 O249 1.242 . S
C237 O250 1.258 . S
O238 Eu234 2.292 . S
O238 C240 1.255 . S
C239 Eu234 2.852 . S
C239 C243 1.503 . S
C239 O256 1.273 . S
C239 O257 1.257 . S
C240 O238 1.255 . S
C240 O241 1.247 . S
O241 C240 1.247 . S
C242 O254 1.242 . S
C242 O255 1.258 . S
C243 C239 1.503 . S
C243 C244 1.379 . S
C243 C248 1.392 . S
C244 C243 1.379 . S
C244 C245 1.404 . S
C244 H258 0.929 . S
C245 C244 1.404 . S
C245 C246 1.389 . S
C246 C245 1.389 . S
C246 C247 1.399 . S
C246 H259 0.931 . S
C247 C246 1.399 . S
C247 C248 1.390 . S
C248 C243 1.392 . S
C248 C247 1.390 . S
C248 H260 0.929 . S
O249 Tb233 2.326 . S
O249 C237 1.242 . S
O250 Eu234 2.324 . S
O250 C237 1.258 . S
O251 Tb233 2.500 . S
O251 C253 1.273 . S
O252 Tb233 2.473 . S
O252 C253 1.257 . S
C253 O251 1.273 . S
C253 O252 1.257 . S
O254 Eu234 2.326 . S
O254 C242 1.242 . S
O255 Tb233 2.324 . S
O255 C242 1.258 . S
O256 Eu234 2.500 . S
O256 C239 1.273 . S
O257 Eu234 2.473 . S
O257 C239 1.257 . S
H258 C244 0.929 . S
H259 C246 0.931 . S
H260 C248 0.929 . S
O261 Tb262 2.292 . S
O261 C264 1.255 . S
Tb262 O261 2.292 . S
Tb262 O278 2.326 . S
Tb262 O280 2.500 . S
Tb262 O281 2.473 . S
Tb262 O284 2.324 . S
Eu263 O267 2.292 . S
Eu263 C268 2.852 1_554 S
Eu263 O279 2.324 . S
Eu263 O283 2.326 . S
Eu263 O285 2.499 1_554 S
Eu263 O286 2.473 . S
C264 O261 1.255 . S
C264 O265 1.247 . S
O265 C264 1.247 . S
C266 O278 1.242 . S
C266 O279 1.258 . S
O267 Eu263 2.292 . S
O267 C269 1.255 . S
C268 Eu263 2.852 1_556 S
C268 C272 1.503 . S
C268 O285 1.273 . S
C268 O286 1.257 1_556 S
C269 O267 1.255 . S
C269 O270 1.247 . S
O270 C269 1.247 . S
C271 O283 1.242 . S
C271 O284 1.258 . S
C272 C268 1.503 . S
C272 C273 1.379 . S
C272 C277 1.392 . S
C273 C272 1.379 . S
C273 C274 1.404 . S
C273 H287 0.929 . S
C274 C273 1.404 . S
C274 C275 1.389 . S
C275 C274 1.389 . S
C275 C276 1.399 . S
C275 H288 0.931 . S
C276 C275 1.399 . S
C276 C277 1.390 . S
C277 C272 1.392 . S
C277 C276 1.390 . S
C277 H289 0.929 . S
O278 Tb262 2.326 . S
O278 C266 1.242 . S
O279 Eu263 2.324 . S
O279 C266 1.258 . S
O280 Tb262 2.500 . S
O280 C282 1.273 . S
O281 Tb262 2.473 . S
O281 C282 1.257 . S
C282 O280 1.273 . S
C282 O281 1.257 . S
O283 Eu263 2.326 . S
O283 C271 1.242 . S
O284 Tb262 2.324 . S
O284 C271 1.258 . S
O285 Eu263 2.499 1_556 S
O285 C268 1.273 . S
O286 Eu263 2.473 . S
O286 C268 1.257 1_554 S
H287 C273 0.929 . S
H288 C275 0.931 . S
H289 C277 0.929 . S
O290 Tb291 2.292 . S
O290 C293 1.255 . S
Tb291 O290 2.292 . S
Tb291 O307 2.326 . S
Tb291 O309 2.500 . S
Tb291 O310 2.473 . S
Tb291 O313 2.324 . S
Eu292 O296 2.292 . S
Eu292 C297 2.852 1_556 S
Eu292 O308 2.324 . S
Eu292 O312 2.326 . S
Eu292 O314 2.499 1_556 S
Eu292 O315 2.473 . S
C293 O290 1.255 . S
C293 O294 1.247 . S
O294 C293 1.247 . S
C295 O307 1.242 . S
C295 O308 1.258 . S
O296 Eu292 2.292 . S
O296 C298 1.255 . S
C297 Eu292 2.852 1_554 S
C297 C301 1.503 . S
C297 O314 1.273 . S
C297 O315 1.257 1_554 S
C298 O296 1.255 . S
C298 O299 1.247 . S
O299 C298 1.247 . S
C300 O312 1.242 . S
C300 O313 1.258 . S
C301 C297 1.503 . S
C301 C302 1.379 . S
C301 C306 1.392 . S
C302 C301 1.379 . S
C302 C303 1.404 . S
C302 H316 0.929 . S
C303 C302 1.404 . S
C303 C304 1.389 . S
C304 C303 1.389 . S
C304 C305 1.399 . S
C304 H317 0.931 . S
C305 C304 1.399 . S
C305 C306 1.390 . S
C306 C301 1.392 . S
C306 C305 1.390 . S
C306 H318 0.929 . S
O307 Tb291 2.326 . S
O307 C295 1.242 . S
O308 Eu292 2.324 . S
O308 C295 1.258 . S
O309 Tb291 2.500 . S
O309 C311 1.273 . S
O310 Tb291 2.473 . S
O310 C311 1.257 . S
C311 O309 1.273 . S
C311 O310 1.257 . S
O312 Eu292 2.326 . S
O312 C300 1.242 . S
O313 Tb291 2.324 . S
O313 C300 1.258 . S
O314 Eu292 2.499 1_554 S
O314 C297 1.273 . S
O315 Eu292 2.473 . S
O315 C297 1.257 1_556 S
H316 C302 0.929 . S
H317 C304 0.931 . S
H318 C306 0.929 . S
O319 Tb320 2.292 . S
O319 C322 1.255 . S
Tb320 O319 2.292 . S
Tb320 O336 2.326 . S
Tb320 O338 2.500 . S
Tb320 O339 2.473 . S
Tb320 O342 2.324 . S
Eu321 O325 2.292 . S
Eu321 C326 2.852 . S
Eu321 O337 2.324 . S
Eu321 O341 2.326 . S
Eu321 O343 2.500 . S
Eu321 O344 2.473 . S
C322 O319 1.255 . S
C322 O323 1.247 . S
O323 C322 1.247 . S
C324 O336 1.242 . S
C324 O337 1.258 . S
O325 Eu321 2.292 . S
O325 C327 1.255 . S
C326 Eu321 2.852 . S
C326 C330 1.503 . S
C326 O343 1.273 . S
C326 O344 1.257 . S
C327 O325 1.255 . S
C327 O328 1.247 . S
O328 C327 1.247 . S
C329 O341 1.242 . S
C329 O342 1.258 . S
C330 C326 1.503 . S
C330 C331 1.379 . S
C330 C335 1.392 . S
C331 C330 1.379 . S
C331 C332 1.404 . S
C331 H345 0.929 . S
C332 C331 1.404 . S
C332 C333 1.389 . S
C333 C332 1.389 . S
C333 C334 1.399 . S
C333 H346 0.931 . S
C334 C333 1.399 . S
C334 C335 1.390 . S
C335 C330 1.392 . S
C335 C334 1.390 . S
C335 H347 0.929 . S
O336 Tb320 2.326 . S
O336 C324 1.242 . S
O337 Eu321 2.324 . S
O337 C324 1.258 . S
O338 Tb320 2.500 . S
O338 C340 1.273 . S
O339 Tb320 2.473 . S
O339 C340 1.257 . S
C340 O338 1.273 . S
C340 O339 1.257 . S
O341 Eu321 2.326 . S
O341 C329 1.242 . S
O342 Tb320 2.324 . S
O342 C329 1.258 . S
O343 Eu321 2.500 . S
O343 C326 1.273 . S
O344 Eu321 2.473 . S
O344 C326 1.257 . S
H345 C331 0.929 . S
H346 C333 0.931 . S
H347 C335 0.929 . S
O348 Tb349 2.292 . S
O348 C351 1.255 . S
Tb349 O348 2.292 . S
Tb349 O365 2.326 . S
Tb349 O367 2.500 . S
Tb349 O368 2.473 . S
Tb349 O371 2.324 . S
Eu350 O354 2.292 . S
Eu350 C355 2.852 . S
Eu350 O366 2.324 . S
Eu350 O370 2.326 . S
Eu350 O372 2.500 . S
Eu350 O373 2.473 . S
C351 O348 1.255 . S
C351 O352 1.247 . S
O352 C351 1.247 . S
C353 O365 1.242 . S
C353 O366 1.258 . S
O354 Eu350 2.292 . S
O354 C356 1.255 . S
C355 Eu350 2.852 . S
C355 C359 1.503 . S
C355 O372 1.273 . S
C355 O373 1.257 . S
C356 O354 1.255 . S
C356 O357 1.247 . S
O357 C356 1.247 . S
C358 O370 1.242 . S
C358 O371 1.258 . S
C359 C355 1.503 . S
C359 C360 1.379 . S
C359 C364 1.392 . S
C360 C359 1.379 . S
C360 C361 1.404 . S
C360 H374 0.929 . S
C361 C360 1.404 . S
C361 C362 1.389 . S
C362 C361 1.389 . S
C362 C363 1.399 . S
C362 H375 0.931 . S
C363 C362 1.399 . S
C363 C364 1.390 . S
C364 C359 1.392 . S
C364 C363 1.390 . S
C364 H376 0.929 . S
O365 Tb349 2.326 . S
O365 C353 1.242 . S
O366 Eu350 2.324 . S
O366 C353 1.258 . S
O367 Tb349 2.500 . S
O367 C369 1.273 . S
O368 Tb349 2.473 . S
O368 C369 1.257 . S
C369 O367 1.273 . S
C369 O368 1.257 . S
O370 Eu350 2.326 . S
O370 C358 1.242 . S
O371 Tb349 2.324 . S
O371 C358 1.258 . S
O372 Eu350 2.500 . S
O372 C355 1.273 . S
O373 Eu350 2.473 . S
O373 C355 1.257 . S
H374 C360 0.929 . S
H375 C362 0.931 . S
H376 C364 0.929 . S
O377 Tb378 2.292 . S
O377 C380 1.255 . S
Tb378 O377 2.292 . S
Tb378 O394 2.326 . S
Tb378 O396 2.500 . S
Tb378 O397 2.473 1_655 S
Tb378 O400 2.324 1_655 S
Eu379 O383 2.292 . S
Eu379 C384 2.852 . S
Eu379 O395 2.324 1_455 S
Eu379 O399 2.326 . S
Eu379 O401 2.500 . S
Eu379 O402 2.473 1_455 S
C380 O377 1.255 . S
C380 O381 1.247 . S
O381 C380 1.247 . S
C382 O394 1.242 . S
C382 O395 1.258 . S
O383 Eu379 2.292 . S
O383 C385 1.255 . S
C384 Eu379 2.852 . S
C384 C388 1.503 . S
C384 O401 1.273 . S
C384 O402 1.257 1_455 S
C385 O383 1.255 . S
C385 O386 1.247 . S
O386 C385 1.247 . S
C387 O399 1.242 . S
C387 O400 1.258 . S
C388 C384 1.503 . S
C388 C389 1.379 1_455 S
C388 C393 1.392 . S
C389 C388 1.379 1_655 S
C389 C390 1.404 . S
C389 H403 0.929 . S
C390 C389 1.404 . S
C390 C391 1.389 1_655 S
C391 C390 1.389 1_455 S
C391 C392 1.399 . S
C391 H404 0.931 . S
C392 C391 1.399 . S
C392 C393 1.390 . S
C393 C388 1.392 . S
C393 C392 1.390 . S
C393 H405 0.929 . S
O394 Tb378 2.326 . S
O394 C382 1.242 . S
O395 Eu379 2.324 1_655 S
O395 C382 1.258 . S
O396 Tb378 2.500 . S
O396 C398 1.273 . S
O397 Tb378 2.473 1_455 S
O397 C398 1.257 1_455 S
C398 O396 1.273 . S
C398 O397 1.257 1_655 S
O399 Eu379 2.326 . S
O399 C387 1.242 . S
O400 Tb378 2.324 1_455 S
O400 C387 1.258 . S
O401 Eu379 2.500 . S
O401 C384 1.273 . S
O402 Eu379 2.473 1_655 S
O402 C384 1.257 1_655 S
H403 C389 0.929 . S
H404 C391 0.931 . S
H405 C393 0.929 . S
O406 Tb407 2.292 . S
O406 C409 1.255 . S
Tb407 O406 2.292 . S
Tb407 O423 2.326 . S
Tb407 O425 2.500 . S
Tb407 O426 2.473 . S
Tb407 O429 2.324 . S
Eu408 O412 2.292 . S
Eu408 C413 2.852 . S
Eu408 O424 2.324 . S
Eu408 O428 2.326 . S
Eu408 O430 2.500 . S
Eu408 O431 2.473 . S
C409 O406 1.255 . S
C409 O410 1.247 . S
O410 C409 1.247 . S
C411 O423 1.242 . S
C411 O424 1.258 . S
O412 Eu408 2.292 . S
O412 C414 1.255 . S
C413 Eu408 2.852 . S
C413 C417 1.503 . S
C413 O430 1.273 . S
C413 O431 1.257 . S
C414 O412 1.255 . S
C414 O415 1.247 . S
O415 C414 1.247 . S
C416 O428 1.242 . S
C416 O429 1.258 . S
C417 C413 1.503 . S
C417 C418 1.379 . S
C417 C422 1.392 . S
C418 C417 1.379 . S
C418 C419 1.404 . S
C418 H432 0.929 . S
C419 C418 1.404 . S
C419 C420 1.389 . S
C420 C419 1.389 . S
C420 C421 1.399 . S
C420 H433 0.931 . S
C421 C420 1.399 . S
C421 C422 1.390 . S
C422 C417 1.392 . S
C422 C421 1.390 . S
C422 H434 0.929 . S
O423 Tb407 2.326 . S
O423 C411 1.242 . S
O424 Eu408 2.324 . S
O424 C411 1.258 . S
O425 Tb407 2.500 . S
O425 C427 1.273 . S
O426 Tb407 2.473 . S
O426 C427 1.257 . S
C427 O425 1.273 . S
C427 O426 1.257 . S
O428 Eu408 2.326 . S
O428 C416 1.242 . S
O429 Tb407 2.324 . S
O429 C416 1.258 . S
O430 Eu408 2.500 . S
O430 C413 1.273 . S
O431 Eu408 2.473 . S
O431 C413 1.257 . S
H432 C418 0.929 . S
H433 C420 0.931 . S
H434 C422 0.929 . S
O435 Tb436 2.292 . S
O435 C438 1.255 . S
Tb436 O435 2.292 . S
Tb436 O452 2.326 . S
Tb436 O454 2.500 . S
Tb436 O455 2.473 1_655 S
Tb436 O458 2.324 1_655 S
Eu437 O441 2.292 . S
Eu437 C442 2.852 . S
Eu437 O453 2.324 1_455 S
Eu437 O457 2.326 . S
Eu437 O459 2.500 . S
Eu437 O460 2.473 1_455 S
C438 O435 1.255 . S
C438 O439 1.247 . S
O439 C438 1.247 . S
C440 O452 1.242 . S
C440 O453 1.258 . S
O441 Eu437 2.292 . S
O441 C443 1.255 . S
C442 Eu437 2.852 . S
C442 C446 1.503 . S
C442 O459 1.273 . S
C442 O460 1.257 1_455 S
C443 O441 1.255 . S
C443 O444 1.247 . S
O444 C443 1.247 . S
C445 O457 1.242 . S
C445 O458 1.258 . S
C446 C442 1.503 . S
C446 C447 1.379 1_455 S
C446 C451 1.392 . S
C447 C446 1.379 1_655 S
C447 C448 1.404 . S
C447 H461 0.929 . S
C448 C447 1.404 . S
C448 C449 1.389 1_655 S
C449 C448 1.389 1_455 S
C449 C450 1.399 . S
C449 H462 0.931 . S
C450 C449 1.399 . S
C450 C451 1.390 . S
C451 C446 1.392 . S
C451 C450 1.390 . S
C451 H463 0.929 . S
O452 Tb436 2.326 . S
O452 C440 1.242 . S
O453 Eu437 2.324 1_655 S
O453 C440 1.258 . S
O454 Tb436 2.500 . S
O454 C456 1.273 . S
O455 Tb436 2.473 1_455 S
O455 C456 1.257 1_455 S
C456 O454 1.273 . S
C456 O455 1.257 1_655 S
O457 Eu437 2.326 . S
O457 C445 1.242 . S
O458 Tb436 2.324 1_455 S
O458 C445 1.258 . S
O459 Eu437 2.500 . S
O459 C442 1.273 . S
O460 Eu437 2.473 1_655 S
O460 C442 1.257 1_655 S
H461 C447 0.929 . S
H462 C449 0.931 . S
H463 C451 0.929 . S
C464 C465 1.369 1_554 S
C464 C466 1.419 . S
C464 H468 0.930 . S
C465 C464 1.369 1_556 S
C465 C474 1.429 1_565 S
C466 C464 1.419 . S
C466 C467 1.363 1_565 S
C466 H469 0.929 . S
C467 C466 1.363 1_545 S
C467 C473 1.428 1_554 S
H468 C464 0.930 . S
H469 C466 0.929 . S
S470 N471 1.613 . S
S470 N472 1.610 . S
N471 S470 1.613 . S
N471 C474 1.350 . S
N472 S470 1.610 . S
N472 C473 1.351 . S
C473 C467 1.428 1_556 S
C473 N472 1.351 . S
C473 C474 1.434 . S
C474 C465 1.429 1_545 S
C474 N471 1.350 . S
C474 C473 1.434 . S
C475 C476 1.369 . S
C475 C477 1.419 . S
C475 H479 0.930 . S
C476 C475 1.369 . S
C476 C485 1.429 . S
C477 C475 1.419 . S
C477 C478 1.363 . S
C477 H480 0.929 . S
C478 C477 1.363 . S
C478 C484 1.428 . S
H479 C475 0.930 . S
H480 C477 0.929 . S
S481 N482 1.613 . S
S481 N483 1.610 . S
N482 S481 1.613 . S
N482 C485 1.350 . S
N483 S481 1.610 . S
N483 C484 1.351 . S
C484 C478 1.428 . S
C484 N483 1.351 . S
C484 C485 1.434 . S
C485 C476 1.429 . S
C485 N482 1.350 . S
C485 C484 1.434 . S
C486 C487 1.369 . S
C486 C488 1.419 . S
C486 H490 0.930 . S
C487 C486 1.369 . S
C487 C496 1.429 1_545 S
C488 C486 1.419 . S
C488 C489 1.363 1_545 S
C488 H491 0.929 . S
C489 C488 1.363 1_565 S
C489 C495 1.428 . S
H490 C486 0.930 . S
H491 C488 0.929 . S
S492 N493 1.613 . S
S492 N494 1.610 . S
N493 S492 1.613 . S
N493 C496 1.350 . S
N494 S492 1.610 . S
N494 C495 1.351 . S
C495 C489 1.428 . S
C495 N494 1.351 . S
C495 C496 1.434 . S
C496 C487 1.429 1_565 S
C496 N493 1.350 . S
C496 C495 1.434 . S
C497 C498 1.369 . S
C497 C499 1.419 . S
C497 H501 0.930 . S
C498 C497 1.369 . S
C498 C507 1.429 . S
C499 C497 1.419 . S
C499 C500 1.363 . S
C499 H502 0.929 . S
C500 C499 1.363 . S
C500 C506 1.428 . S
H501 C497 0.930 . S
H502 C499 0.929 . S
S503 N504 1.613 . S
S503 N505 1.610 . S
N504 S503 1.613 . S
N504 C507 1.350 . S
N505 S503 1.610 . S
N505 C506 1.351 . S
C506 C500 1.428 . S
C506 N505 1.351 . S
C506 C507 1.434 . S
C507 C498 1.429 . S
C507 N504 1.350 . S
C507 C506 1.434 . S
C508 C509 1.369 . S
C508 C510 1.419 . S
C508 H512 0.930 . S
C509 C508 1.369 . S
C509 C518 1.429 . S
C510 C508 1.419 . S
C510 C511 1.363 . S
C510 H513 0.929 . S
C511 C510 1.363 . S
C511 C517 1.428 . S
H512 C508 0.930 . S
H513 C510 0.929 . S
S514 N515 1.613 . S
S514 N516 1.610 . S
N515 S514 1.613 . S
N515 C518 1.350 . S
N516 S514 1.610 . S
N516 C517 1.351 . S
C517 C511 1.428 . S
C517 N516 1.351 . S
C517 C518 1.434 . S
C518 C509 1.429 . S
C518 N515 1.350 . S
C518 C517 1.434 . S
C519 C520 1.369 . S
C519 C521 1.419 . S
C519 H523 0.930 . S
C520 C519 1.369 . S
C520 C529 1.429 . S
C521 C519 1.419 . S
C521 C522 1.363 . S
C521 H524 0.929 . S
C522 C521 1.363 . S
C522 C528 1.428 . S
H523 C519 0.930 . S
H524 C521 0.929 . S
S525 N526 1.613 . S
S525 N527 1.610 . S
N526 S525 1.613 . S
N526 C529 1.350 . S
N527 S525 1.610 . S
N527 C528 1.351 . S
C528 C522 1.428 . S
C528 N527 1.351 . S
C528 C529 1.434 . S
C529 C520 1.429 . S
C529 N526 1.350 . S
C529 C528 1.434 . S
C530 C531 1.369 . S
C530 C532 1.419 . S
C530 H534 0.930 . S
C531 C530 1.369 . S
C531 C540 1.429 . S
C532 C530 1.419 . S
C532 C533 1.363 . S
C532 H535 0.929 . S
C533 C532 1.363 . S
C533 C539 1.428 . S
H534 C530 0.930 . S
H535 C532 0.929 . S
S536 N537 1.613 . S
S536 N538 1.610 . S
N537 S536 1.613 . S
N537 C540 1.350 . S
N538 S536 1.610 . S
N538 C539 1.351 . S
C539 C533 1.428 . S
C539 N538 1.351 . S
C539 C540 1.434 . S
C540 C531 1.429 . S
C540 N537 1.350 . S
C540 C539 1.434 . S
C541 C542 1.369 . S
C541 C543 1.419 . S
C541 H545 0.930 . S
C542 C541 1.369 . S
C542 C551 1.429 1_554 S
C543 C541 1.419 . S
C543 C544 1.363 1_554 S
C543 H546 0.929 . S
C544 C543 1.363 1_556 S
C544 C550 1.428 . S
H545 C541 0.930 . S
H546 C543 0.929 . S
S547 N548 1.613 . S
S547 N549 1.610 . S
N548 S547 1.613 . S
N548 C551 1.350 . S
N549 S547 1.610 . S
N549 C550 1.351 . S
C550 C544 1.428 . S
C550 N549 1.351 . S
C550 C551 1.434 . S
C551 C542 1.429 1_556 S
C551 N548 1.350 . S
C551 C550 1.434 . S
C552 C553 1.369 . S
C552 C554 1.419 . S
C552 H556 0.930 . S
C553 C552 1.369 . S
C553 C562 1.429 . S
C554 C552 1.419 . S
C554 C555 1.363 . S
C554 H557 0.929 . S
C555 C554 1.363 . S
C555 C561 1.428 . S
H556 C552 0.930 . S
H557 C554 0.929 . S
S558 N559 1.613 . S
S558 N560 1.610 . S
N559 S558 1.613 . S
N559 C562 1.350 . S
N560 S558 1.610 . S
N560 C561 1.351 . S
C561 C555 1.428 . S
C561 N560 1.351 . S
C561 C562 1.434 . S
C562 C553 1.429 . S
C562 N559 1.350 . S
C562 C561 1.434 . S
C563 C564 1.369 . S
C563 C565 1.419 . S
C563 H567 0.930 . S
C564 C563 1.369 . S
C564 C573 1.429 . S
C565 C563 1.419 . S
C565 C566 1.363 . S
C565 H568 0.929 . S
C566 C565 1.363 . S
C566 C572 1.428 . S
H567 C563 0.930 . S
H568 C565 0.929 . S
S569 N570 1.613 . S
S569 N571 1.610 . S
N570 S569 1.613 . S
N570 C573 1.350 . S
N571 S569 1.610 . S
N571 C572 1.351 . S
C572 C566 1.428 . S
C572 N571 1.351 . S
C572 C573 1.434 . S
C573 C564 1.429 . S
C573 N570 1.350 . S
C573 C572 1.434 . S
C574 C575 1.369 . S
C574 C576 1.419 . S
C574 H578 0.930 . S
C575 C574 1.369 . S
C575 C584 1.429 . S
C576 C574 1.419 . S
C576 C577 1.363 . S
C576 H579 0.929 . S
C577 C576 1.363 . S
C577 C583 1.428 . S
H578 C574 0.930 . S
H579 C576 0.929 . S
S580 N581 1.613 . S
S580 N582 1.610 . S
N581 S580 1.613 . S
N581 C584 1.350 . S
N582 S580 1.610 . S
N582 C583 1.351 . S
C583 C577 1.428 . S
C583 N582 1.351 . S
C583 C584 1.434 . S
C584 C575 1.429 . S
C584 N581 1.350 . S
C584 C583 1.434 . S
C585 C586 1.369 . S
C585 C587 1.419 . S
C585 H589 0.930 . S
C586 C585 1.369 . S
C586 C595 1.429 . S
C587 C585 1.419 . S
C587 C588 1.363 . S
C587 H590 0.929 . S
C588 C587 1.363 . S
C588 C594 1.428 . S
H589 C585 0.930 . S
H590 C587 0.929 . S
S591 N592 1.613 . S
S591 N593 1.610 . S
N592 S591 1.613 . S
N592 C595 1.350 . S
N593 S591 1.610 . S
N593 C594 1.351 . S
C594 C588 1.428 . S
C594 N593 1.351 . S
C594 C595 1.434 . S
C595 C586 1.429 . S
C595 N592 1.350 . S
C595 C594 1.434 . S
C596 C597 1.369 . S
C596 C598 1.419 . S
C596 H600 0.930 . S
C597 C596 1.369 . S
C597 C606 1.429 . S
C598 C596 1.419 . S
C598 C599 1.363 . S
C598 H601 0.929 . S
C599 C598 1.363 . S
C599 C605 1.428 . S
H600 C596 0.930 . S
H601 C598 0.929 . S
S602 N603 1.613 . S
S602 N604 1.610 . S
N603 S602 1.613 . S
N603 C606 1.350 . S
N604 S602 1.610 . S
N604 C605 1.351 . S
C605 C599 1.428 . S
C605 N604 1.351 . S
C605 C606 1.434 . S
C606 C597 1.429 . S
C606 N603 1.350 . S
C606 C605 1.434 . S
C607 C608 1.369 . S
C607 C609 1.419 . S
C607 H611 0.930 . S
C608 C607 1.369 . S
C608 C617 1.429 . S
C609 C607 1.419 . S
C609 C610 1.363 . S
C609 H612 0.929 . S
C610 C609 1.363 . S
C610 C616 1.428 . S
H611 C607 0.930 . S
H612 C609 0.929 . S
S613 N614 1.613 . S
S613 N615 1.610 . S
N614 S613 1.613 . S
N614 C617 1.350 . S
N615 S613 1.610 . S
N615 C616 1.351 . S
C616 C610 1.428 . S
C616 N615 1.351 . S
C616 C617 1.434 . S
C617 C608 1.429 . S
C617 N614 1.350 . S
C617 C616 1.434 . S
C618 C619 1.369 . S
C618 C620 1.419 . S
C618 H622 0.930 . S
C619 C618 1.369 . S
C619 C628 1.429 . S
C620 C618 1.419 . S
C620 C621 1.363 . S
C620 H623 0.929 . S
C621 C620 1.363 . S
C621 C627 1.428 . S
H622 C618 0.930 . S
H623 C620 0.929 . S
S624 N625 1.613 . S
S624 N626 1.610 . S
N625 S624 1.613 . S
N625 C628 1.350 . S
N626 S624 1.610 . S
N626 C627 1.351 . S
C627 C621 1.428 . S
C627 N626 1.351 . S
C627 C628 1.434 . S
C628 C619 1.429 . S
C628 N625 1.350 . S
C628 C627 1.434 . S
C629 C630 1.369 . S
C629 C631 1.419 . S
C629 H633 0.930 . S
C630 C629 1.369 . S
C630 C639 1.429 . S
C631 C629 1.419 . S
C631 C632 1.363 . S
C631 H634 0.929 . S
C632 C631 1.363 . S
C632 C638 1.428 . S
H633 C629 0.930 . S
H634 C631 0.929 . S
S635 N636 1.613 . S
S635 N637 1.610 . S
N636 S635 1.613 . S
N636 C639 1.350 . S
N637 S635 1.610 . S
N637 C638 1.351 . S
C638 C632 1.428 . S
C638 N637 1.351 . S
C638 C639 1.434 . S
C639 C630 1.429 . S
C639 N636 1.350 . S
C639 C638 1.434 . S
C640 C641 1.369 . S
C640 C642 1.419 . S
C640 H644 0.930 . S
C641 C640 1.369 . S
C641 C650 1.429 . S
C642 C640 1.419 . S
C642 C643 1.363 . S
C642 H645 0.929 . S
C643 C642 1.363 . S
C643 C649 1.428 . S
H644 C640 0.930 . S
H645 C642 0.929 . S
S646 N647 1.613 . S
S646 N648 1.610 . S
N647 S646 1.613 . S
N647 C650 1.350 . S
N648 S646 1.610 . S
N648 C649 1.351 . S
C649 C643 1.428 . S
C649 N648 1.351 . S
C649 C650 1.434 . S
C650 C641 1.429 . S
C650 N647 1.350 . S
C650 C649 1.434 . S
C651 C652 1.369 . S
C651 C653 1.419 1_545 S
C651 H655 0.930 . S
C652 C651 1.369 . S
C652 C661 1.429 . S
C653 C651 1.419 1_565 S
C653 C654 1.363 . S
C653 H656 0.929 . S
C654 C653 1.363 . S
C654 C660 1.428 1_565 S
H655 C651 0.930 . S
H656 C653 0.929 . S
S657 N658 1.630 . S
S657 N659 1.617 . S
N658 S657 1.630 . S
N658 C661 1.350 . S
N659 S657 1.617 . S
N659 C660 1.351 . S
C660 C654 1.428 1_545 S
C660 N659 1.351 . S
C660 C661 1.434 . S
C661 C652 1.429 . S
C661 N658 1.350 . S
C661 C660 1.434 . S
C662 C663 1.369 . S
C662 C664 1.419 . S
C662 H666 0.930 . S
C663 C662 1.369 . S
C663 C672 1.429 . S
C664 C662 1.419 . S
C664 C665 1.363 . S
C664 H667 0.929 . S
C665 C664 1.363 . S
C665 C671 1.428 . S
H666 C662 0.930 . S
H667 C664 0.929 . S
S668 N669 1.613 . S
S668 N670 1.610 . S
N669 S668 1.613 . S
N669 C672 1.350 . S
N670 S668 1.610 . S
N670 C671 1.351 . S
C671 C665 1.428 . S
C671 N670 1.351 . S
C671 C672 1.434 . S
C672 C663 1.429 . S
C672 N669 1.350 . S
C672 C671 1.434 . S
C673 C674 1.369 . S
C673 C675 1.419 . S
C673 H677 0.930 . S
C674 C673 1.369 . S
C674 C683 1.429 . S
C675 C673 1.419 . S
C675 C676 1.363 1_565 S
C675 H678 0.929 1_565 S
C676 C675 1.363 1_545 S
C676 C682 1.429 1_545 S
H677 C673 0.930 . S
H678 C675 0.929 1_545 S
S679 N680 1.613 . S
S679 N681 1.610 . S
N680 S679 1.613 . S
N680 C683 1.350 . S
N681 S679 1.610 . S
N681 C682 1.351 . S
C682 C676 1.429 1_565 S
C682 N681 1.351 . S
C682 C683 1.434 . S
C683 C674 1.429 . S
C683 N680 1.350 . S
C683 C682 1.434 . S
C684 C685 1.369 . S
C684 C686 1.419 . S
C684 H688 0.930 . S
C685 C684 1.369 . S
C685 C694 1.429 . S
C686 C684 1.419 . S
C686 C687 1.363 . S
C686 H689 0.929 . S
C687 C686 1.363 . S
C687 C693 1.428 . S
H688 C684 0.930 . S
H689 C686 0.929 . S
S690 N691 1.613 . S
S690 N692 1.610 . S
N691 S690 1.613 . S
N691 C694 1.350 . S
N692 S690 1.610 . S
N692 C693 1.351 . S
C693 C687 1.428 . S
C693 N692 1.351 . S
C693 C694 1.434 . S
C694 C685 1.429 . S
C694 N691 1.350 . S
C694 C693 1.434 . S
C695 C696 1.364 1_545 S
C695 C697 1.419 . S
C695 H699 0.930 . S
C696 C695 1.364 1_565 S
C696 C705 1.424 1_565 S
C697 C695 1.419 . S
C697 C698 1.363 . S
C697 H700 0.929 . S
C698 C697 1.363 . S
C698 C704 1.428 . S
H699 C695 0.930 . S
H700 C697 0.929 . S
S701 N702 1.605 1_545 S
S701 N703 1.610 . S
N702 S701 1.605 1_565 S
N702 C705 1.344 1_565 S
N703 S701 1.610 . S
N703 C704 1.351 . S
C704 C698 1.428 . S
C704 N703 1.351 . S
C704 C705 1.434 . S
C705 C696 1.424 1_545 S
C705 N702 1.344 1_545 S
C705 C704 1.434 . S
C706 C707 1.369 . S
C706 C708 1.419 . S
C706 H710 0.930 . S
C707 C706 1.369 . S
C707 C716 1.429 . S
C708 C706 1.419 . S
C708 C709 1.363 . S
C708 H711 0.929 . S
C709 C708 1.363 . S
C709 C715 1.428 . S
H710 C706 0.930 . S
H711 C708 0.929 . S
S712 N713 1.613 . S
S712 N714 1.610 . S
N713 S712 1.613 . S
N713 C716 1.350 . S
N714 S712 1.610 . S
N714 C715 1.351 . S
C715 C709 1.428 . S
C715 N714 1.351 . S
C715 C716 1.434 . S
C716 C707 1.429 . S
C716 N713 1.350 . S
C716 C715 1.434 . S
C717 C718 1.352 1_565 S
C717 C719 1.419 . S
C717 H721 0.930 . S
C718 C717 1.352 1_545 S
C718 C727 1.431 . S
C719 C717 1.419 . S
C719 C720 1.363 . S
C719 H722 0.929 . S
C720 C719 1.363 . S
C720 C726 1.428 . S
H721 C717 0.930 . S
H722 C719 0.929 . S
S723 N724 1.613 . S
S723 N725 1.610 1_545 S
N724 S723 1.613 . S
N724 C727 1.350 . S
N725 S723 1.610 1_565 S
N725 C726 1.351 . S
C726 C720 1.428 . S
C726 N725 1.351 . S
C726 C727 1.434 1_565 S
C727 C718 1.431 . S
C727 N724 1.350 . S
C727 C726 1.434 1_545 S
C728 C729 1.369 . S
C728 C730 1.419 . S
C728 H732 0.930 . S
C729 C728 1.369 . S
C729 C738 1.429 . S
C730 C728 1.419 . S
C730 C731 1.363 . S
C730 H733 0.929 . S
C731 C730 1.363 . S
C731 C737 1.428 . S
H732 C728 0.930 . S
H733 C730 0.929 . S
S734 N735 1.613 . S
S734 N736 1.610 . S
N735 S734 1.613 . S
N735 C738 1.350 . S
N736 S734 1.610 . S
N736 C737 1.351 . S
C737 C731 1.428 . S
C737 N736 1.351 . S
C737 C738 1.434 . S
C738 C729 1.429 . S
C738 N735 1.350 . S
C738 C737 1.434 . S
C739 C740 1.369 . S
C739 C741 1.419 . S
C739 H743 0.930 . S
C740 C739 1.369 . S
C740 C749 1.429 . S
C741 C739 1.419 . S
C741 C742 1.363 . S
C741 H744 0.929 . S
C742 C741 1.363 . S
C742 C748 1.428 . S
H743 C739 0.930 . S
H744 C741 0.929 . S
S745 N746 1.613 . S
S745 N747 1.610 . S
N746 S745 1.613 . S
N746 C749 1.350 . S
N747 S745 1.610 . S
N747 C748 1.351 . S
C748 C742 1.428 . S
C748 N747 1.351 . S
C748 C749 1.434 . S
C749 C740 1.429 . S
C749 N746 1.350 . S
C749 C748 1.434 . S
C750 C751 1.369 . S
C750 C752 1.419 . S
C750 H754 0.930 . S
C751 C750 1.369 . S
C751 C760 1.429 . S
C752 C750 1.419 . S
C752 C753 1.363 . S
C752 H755 0.929 . S
C753 C752 1.363 . S
C753 C759 1.428 . S
H754 C750 0.930 . S
H755 C752 0.929 . S
S756 N757 1.613 . S
S756 N758 1.610 . S
N757 S756 1.613 . S
N757 C760 1.350 . S
N758 S756 1.610 . S
N758 C759 1.351 . S
C759 C753 1.428 . S
C759 N758 1.351 . S
C759 C760 1.434 . S
C760 C751 1.429 . S
C760 N757 1.350 . S
C760 C759 1.434 . S
C761 C762 1.369 . S
C761 C763 1.419 . S
C761 H765 0.930 . S
C762 C761 1.369 . S
C762 C771 1.429 . S
C763 C761 1.419 . S
C763 C764 1.363 . S
C763 H766 0.929 . S
C764 C763 1.363 . S
C764 C770 1.428 . S
H765 C761 0.930 . S
H766 C763 0.929 . S
S767 N768 1.613 . S
S767 N769 1.610 . S
N768 S767 1.613 . S
N768 C771 1.350 . S
N769 S767 1.610 . S
N769 C770 1.351 . S
C770 C764 1.428 . S
C770 N769 1.351 . S
C770 C771 1.434 . S
C771 C762 1.429 . S
C771 N768 1.350 . S
C771 C770 1.434 . S
C772 C773 1.369 . S
C772 C774 1.419 . S
C772 H776 0.930 . S
C773 C772 1.369 . S
C773 C782 1.429 . S
C774 C772 1.419 . S
C774 C775 1.363 . S
C774 H777 0.929 . S
C775 C774 1.363 . S
C775 C781 1.428 . S
H776 C772 0.930 . S
H777 C774 0.929 . S
S778 N779 1.613 . S
S778 N780 1.610 . S
N779 S778 1.613 . S
N779 C782 1.350 . S
N780 S778 1.610 . S
N780 C781 1.351 . S
C781 C775 1.428 . S
C781 N780 1.351 . S
C781 C782 1.434 . S
C782 C773 1.429 . S
C782 N779 1.350 . S
C782 C781 1.434 . S
C783 C784 1.369 . S
C783 C785 1.419 . S
C783 H787 0.930 . S
C784 C783 1.369 . S
C784 C793 1.429 . S
C785 C783 1.419 . S
C785 C786 1.363 . S
C785 H788 0.929 . S
C786 C785 1.363 . S
C786 C792 1.428 . S
H787 C783 0.930 . S
H788 C785 0.929 . S
S789 N790 1.613 . S
S789 N791 1.610 . S
N790 S789 1.613 . S
N790 C793 1.350 . S
N791 S789 1.610 . S
N791 C792 1.351 . S
C792 C786 1.428 . S
C792 N791 1.351 . S
C792 C793 1.434 . S
C793 C784 1.429 . S
C793 N790 1.350 . S
C793 C792 1.434 . S
C794 C795 1.369 . S
C794 C796 1.419 . S
C794 H798 0.930 . S
C795 C794 1.369 . S
C795 C804 1.429 . S
C796 C794 1.419 . S
C796 C797 1.363 . S
C796 H799 0.929 . S
C797 C796 1.363 . S
C797 C803 1.428 . S
H798 C794 0.930 . S
H799 C796 0.929 . S
S800 N801 1.613 . S
S800 N802 1.610 . S
N801 S800 1.613 . S
N801 C804 1.350 . S
N802 S800 1.610 . S
N802 C803 1.351 . S
C803 C797 1.428 . S
C803 N802 1.351 . S
C803 C804 1.434 . S
C804 C795 1.429 . S
C804 N801 1.350 . S
C804 C803 1.434 . S
C805 C806 1.369 . S
C805 C807 1.419 . S
C805 H809 0.930 . S
C806 C805 1.369 . S
C806 C815 1.429 . S
C807 C805 1.419 . S
C807 C808 1.363 . S
C807 H810 0.929 . S
C808 C807 1.363 . S
C808 C814 1.428 . S
H809 C805 0.930 . S
H810 C807 0.929 . S
S811 N812 1.613 . S
S811 N813 1.610 . S
N812 S811 1.613 . S
N812 C815 1.350 . S
N813 S811 1.610 . S
N813 C814 1.351 . S
C814 C808 1.428 . S
C814 N813 1.351 . S
C814 C815 1.434 . S
C815 C806 1.429 . S
C815 N812 1.350 . S
C815 C814 1.434 . S
C816 C817 1.369 . S
C816 C818 1.419 . S
C816 H820 0.930 . S
C817 C816 1.369 . S
C817 C826 1.429 . S
C818 C816 1.419 . S
C818 C819 1.363 . S
C818 H821 0.929 . S
C819 C818 1.363 . S
C819 C825 1.428 . S
H820 C816 0.930 . S
H821 C818 0.929 . S
S822 N823 1.613 . S
S822 N824 1.610 . S
N823 S822 1.613 . S
N823 C826 1.350 . S
N824 S822 1.610 . S
N824 C825 1.351 . S
C825 C819 1.428 . S
C825 N824 1.351 . S
C825 C826 1.434 . S
C826 C817 1.429 . S
C826 N823 1.350 . S
C826 C825 1.434 . S
C827 C828 1.369 . S
C827 C829 1.419 . S
C827 H831 0.930 . S
C828 C827 1.369 . S
C828 C837 1.429 . S
C829 C827 1.419 . S
C829 C830 1.363 . S
C829 H832 0.929 . S
C830 C829 1.363 . S
C830 C836 1.428 . S
H831 C827 0.930 . S
H832 C829 0.929 . S
S833 N834 1.613 . S
S833 N835 1.610 . S
N834 S833 1.613 . S
N834 C837 1.350 . S
N835 S833 1.610 . S
N835 C836 1.351 . S
C836 C830 1.428 . S
C836 N835 1.351 . S
C836 C837 1.434 . S
C837 C828 1.429 . S
C837 N834 1.350 . S
C837 C836 1.434 . S
C838 C839 1.369 . S
C838 C840 1.419 . S
C838 H842 0.930 . S
C839 C838 1.369 . S
C839 C848 1.429 . S
C840 C838 1.419 . S
C840 C841 1.363 . S
C840 H843 0.929 . S
C841 C840 1.363 . S
C841 C847 1.428 . S
H842 C838 0.930 . S
H843 C840 0.929 . S
S844 N845 1.613 . S
S844 N846 1.610 . S
N845 S844 1.613 . S
N845 C848 1.350 . S
N846 S844 1.610 . S
N846 C847 1.351 . S
C847 C841 1.428 . S
C847 N846 1.351 . S
C847 C848 1.434 . S
C848 C839 1.429 . S
C848 N845 1.350 . S
C848 C847 1.434 . S
C849 C850 1.369 . S
C849 C851 1.419 . S
C849 H853 0.930 . S
C850 C849 1.369 . S
C850 C859 1.429 . S
C851 C849 1.419 . S
C851 C852 1.363 . S
C851 H854 0.929 . S
C852 C851 1.363 . S
C852 C858 1.428 . S
H853 C849 0.930 . S
H854 C851 0.929 . S
S855 N856 1.613 . S
S855 N857 1.610 . S
N856 S855 1.613 . S
N856 C859 1.350 . S
N857 S855 1.610 . S
N857 C858 1.351 . S
C858 C852 1.428 . S
C858 N857 1.351 . S
C858 C859 1.434 . S
C859 C850 1.429 . S
C859 N856 1.350 . S
C859 C858 1.434 . S
C860 C861 1.369 . S
C860 C862 1.419 . S
C860 H864 0.930 . S
C861 C860 1.369 . S
C861 C870 1.429 . S
C862 C860 1.419 . S
C862 C863 1.363 . S
C862 H865 0.929 . S
C863 C862 1.363 . S
C863 C869 1.428 . S
H864 C860 0.930 . S
H865 C862 0.929 . S
S866 N867 1.613 . S
S866 N868 1.610 . S
N867 S866 1.613 . S
N867 C870 1.350 . S
N868 S866 1.610 . S
N868 C869 1.351 . S
C869 C863 1.428 . S
C869 N868 1.351 . S
C869 C870 1.434 . S
C870 C861 1.429 . S
C870 N867 1.350 . S
C870 C869 1.434 . S
C871 C872 1.369 . S
C871 C873 1.419 . S
C871 H875 0.930 . S
C872 C871 1.369 . S
C872 C881 1.429 . S
C873 C871 1.419 . S
C873 C874 1.363 . S
C873 H876 0.929 . S
C874 C873 1.363 . S
C874 C880 1.428 . S
H875 C871 0.930 . S
H876 C873 0.929 . S
S877 N878 1.613 . S
S877 N879 1.610 . S
N878 S877 1.613 . S
N878 C881 1.350 . S
N879 S877 1.610 . S
N879 C880 1.351 . S
C880 C874 1.428 . S
C880 N879 1.351 . S
C880 C881 1.434 . S
C881 C872 1.429 . S
C881 N878 1.350 . S
C881 C880 1.434 . S
C882 C883 1.369 . S
C882 C884 1.419 . S
C882 H886 0.930 . S
C883 C882 1.369 . S
C883 C892 1.429 . S
C884 C882 1.419 . S
C884 C885 1.363 . S
C884 H887 0.929 . S
C885 C884 1.363 . S
C885 C891 1.428 . S
H886 C882 0.930 . S
H887 C884 0.929 . S
S888 N889 1.613 . S
S888 N890 1.610 . S
N889 S888 1.613 . S
N889 C892 1.350 . S
N890 S888 1.610 . S
N890 C891 1.351 . S
C891 C885 1.428 . S
C891 N890 1.351 . S
C891 C892 1.434 . S
C892 C883 1.429 . S
C892 N889 1.350 . S
C892 C891 1.434 . S
C893 C894 1.369 . S
C893 C895 1.419 . S
C893 H897 0.930 . S
C894 C893 1.369 . S
C894 C903 1.429 . S
C895 C893 1.419 . S
C895 C896 1.363 . S
C895 H898 0.929 . S
C896 C895 1.363 . S
C896 C902 1.428 . S
H897 C893 0.930 . S
H898 C895 0.929 . S
S899 N900 1.613 . S
S899 N901 1.610 . S
N900 S899 1.613 . S
N900 C903 1.350 . S
N901 S899 1.610 . S
N901 C902 1.351 . S
C902 C896 1.428 . S
C902 N901 1.351 . S
C902 C903 1.434 . S
C903 C894 1.429 . S
C903 N900 1.350 . S
C903 C902 1.434 . S
C904 C905 1.369 . S
C904 C906 1.419 . S
C904 H908 0.930 . S
C905 C904 1.369 . S
C905 C914 1.429 . S
C906 C904 1.419 . S
C906 C907 1.363 . S
C906 H909 0.929 1_565 S
C907 C906 1.363 . S
C907 C913 1.428 . S
H908 C904 0.930 . S
H909 C906 0.929 1_545 S
S910 N911 1.613 . S
S910 N912 1.610 . S
N911 S910 1.613 . S
N911 C914 1.350 . S
N912 S910 1.610 . S
N912 C913 1.351 . S
C913 C907 1.428 . S
C913 N912 1.351 . S
C913 C914 1.434 . S
C914 C905 1.429 . S
C914 N911 1.350 . S
C914 C913 1.434 . S
C915 C916 1.369 . S
C915 C917 1.419 . S
C915 H919 0.930 . S
C916 C915 1.369 . S
C916 C925 1.429 . S
C917 C915 1.419 . S
C917 C918 1.363 . S
C917 H920 0.929 . S
C918 C917 1.363 . S
C918 C924 1.428 . S
H919 C915 0.930 . S
H920 C917 0.929 . S
S921 N922 1.613 . S
S921 N923 1.610 1_545 S
N922 S921 1.613 . S
N922 C925 1.350 1_545 S
N923 S921 1.610 1_565 S
N923 C924 1.351 . S
C924 C918 1.428 . S
C924 N923 1.351 . S
C924 C925 1.434 . S
C925 C916 1.429 . S
C925 N922 1.350 1_565 S
C925 C924 1.434 . S
C926 C927 1.369 . S
C926 C928 1.419 . S
C926 H930 0.930 . S
C927 C926 1.369 . S
C927 C936 1.429 . S
C928 C926 1.419 . S
C928 C929 1.363 . S
C928 H931 0.929 1_545 S
C929 C928 1.363 . S
C929 C935 1.428 . S
H930 C926 0.930 . S
H931 C928 0.929 1_565 S
S932 N933 1.613 . S
S932 N934 1.610 . S
N933 S932 1.613 . S
N933 C936 1.350 . S
N934 S932 1.610 . S
N934 C935 1.351 . S
C935 C929 1.428 . S
C935 N934 1.351 . S
C935 C936 1.434 . S
C936 C927 1.429 . S
C936 N933 1.350 . S
C936 C935 1.434 . S
C937 C938 1.369 . S
C937 C939 1.419 . S
C937 H941 0.930 . S
C938 C937 1.369 . S
C938 C947 1.429 . S
C939 C937 1.419 . S
C939 C940 1.363 . S
C939 H942 0.929 . S
C940 C939 1.363 . S
C940 C946 1.428 . S
H941 C937 0.930 . S
H942 C939 0.929 . S
S943 N944 1.613 1_565 S
S943 N945 1.610 . S
N944 S943 1.613 1_545 S
N944 C947 1.350 . S
N945 S943 1.610 . S
N945 C946 1.351 1_565 S
C946 C940 1.428 . S
C946 N945 1.351 1_545 S
C946 C947 1.434 . S
C947 C938 1.429 . S
C947 N944 1.350 . S
C947 C946 1.434 . S
C948 C949 1.369 . S
C948 C950 1.419 . S
C948 H952 0.930 . S
C949 C948 1.369 . S
C949 C958 1.429 . S
C950 C948 1.419 . S
C950 C951 1.363 . S
C950 H953 0.929 . S
C951 C950 1.363 . S
C951 C957 1.428 . S
H952 C948 0.930 . S
H953 C950 0.929 . S
S954 N955 1.613 . S
S954 N956 1.610 . S
N955 S954 1.613 . S
N955 C958 1.350 . S
N956 S954 1.610 . S
N956 C957 1.351 . S
C957 C951 1.428 . S
C957 N956 1.351 . S
C957 C958 1.434 . S
C958 C949 1.429 . S
C958 N955 1.350 . S
C958 C957 1.434 . S
C959 C960 1.369 . S
C959 C961 1.419 . S
C959 H963 0.930 . S
C960 C959 1.369 . S
C960 C969 1.429 . S
C961 C959 1.419 . S
C961 C962 1.363 . S
C961 H964 0.929 . S
C962 C961 1.363 . S
C962 C968 1.428 . S
H963 C959 0.930 . S
H964 C961 0.929 . S
S965 N966 1.613 . S
S965 N967 1.610 . S
N966 S965 1.613 . S
N966 C969 1.350 . S
N967 S965 1.610 . S
N967 C968 1.351 . S
C968 C962 1.428 . S
C968 N967 1.351 . S
C968 C969 1.434 . S
C969 C960 1.429 . S
C969 N966 1.350 . S
C969 C968 1.434 . S
C970 C971 1.369 . S
C970 C972 1.419 . S
C970 H974 0.930 . S
C971 C970 1.369 . S
C971 C980 1.429 . S
C972 C970 1.419 . S
C972 C973 1.363 . S
C972 H975 0.929 . S
C973 C972 1.363 . S
C973 C979 1.428 . S
H974 C970 0.930 . S
H975 C972 0.929 . S
S976 N977 1.613 . S
S976 N978 1.610 . S
N977 S976 1.613 . S
N977 C980 1.350 . S
N978 S976 1.610 . S
N978 C979 1.351 . S
C979 C973 1.428 . S
C979 N978 1.351 . S
C979 C980 1.434 . S
C980 C971 1.429 . S
C980 N977 1.350 . S
C980 C979 1.434 . S
C981 C982 1.369 . S
C981 C983 1.419 . S
C981 H985 0.930 . S
C982 C981 1.369 . S
C982 C991 1.429 . S
C983 C981 1.419 . S
C983 C984 1.363 . S
C983 H986 0.929 . S
C984 C983 1.363 . S
C984 C990 1.428 . S
H985 C981 0.930 . S
H986 C983 0.929 . S
S987 N988 1.613 . S
S987 N989 1.610 . S
N988 S987 1.613 . S
N988 C991 1.350 . S
N989 S987 1.610 . S
N989 C990 1.351 . S
C990 C984 1.428 . S
C990 N989 1.351 . S
C990 C991 1.434 . S
C991 C982 1.429 . S
C991 N988 1.350 . S
C991 C990 1.434 . S
C992 C993 1.369 . S
C992 C994 1.419 . S
C992 H996 0.930 . S
C993 C992 1.369 . S
C993 C1002 1.429 . S
C994 C992 1.419 . S
C994 C995 1.363 . S
C994 H997 0.929 . S
C995 C994 1.363 . S
C995 C1001 1.428 . S
H996 C992 0.930 . S
H997 C994 0.929 . S
S998 N999 1.613 . S
S998 N1000 1.610 . S
N999 S998 1.613 . S
N999 C1002 1.350 . S
N1000 S998 1.610 . S
N1000 C1001 1.351 . S
C1001 C995 1.428 . S
C1001 N1000 1.351 . S
C1001 C1002 1.434 . S
C1002 C993 1.429 . S
C1002 N999 1.350 . S
C1002 C1001 1.434 . S
C1003 C1004 1.369 . S
C1003 C1005 1.419 . S
C1003 H1007 0.930 . S
C1004 C1003 1.369 . S
C1004 C1013 1.429 . S
C1005 C1003 1.419 . S
C1005 C1006 1.363 . S
C1005 H1008 0.929 . S
C1006 C1005 1.363 . S
C1006 C1012 1.428 . S
H1007 C1003 0.930 . S
H1008 C1005 0.929 . S
S1009 N1010 1.613 . S
S1009 N1011 1.610 . S
N1010 S1009 1.613 . S
N1010 C1013 1.350 . S
N1011 S1009 1.610 . S
N1011 C1012 1.351 . S
C1012 C1006 1.428 . S
C1012 N1011 1.351 . S
C1012 C1013 1.434 . S
C1013 C1004 1.429 . S
C1013 N1010 1.350 . S
C1013 C1012 1.434 . S
C1014 C1015 1.369 . S
C1014 C1016 1.419 . S
C1014 H1018 0.930 . S
C1015 C1014 1.369 . S
C1015 C1024 1.429 . S
C1016 C1014 1.419 . S
C1016 C1017 1.363 . S
C1016 H1019 0.929 . S
C1017 C1016 1.363 . S
C1017 C1023 1.428 . S
H1018 C1014 0.930 . S
H1019 C1016 0.929 . S
S1020 N1021 1.613 . S
S1020 N1022 1.610 . S
N1021 S1020 1.613 . S
N1021 C1024 1.350 . S
N1022 S1020 1.610 . S
N1022 C1023 1.351 . S
C1023 C1017 1.428 . S
C1023 N1022 1.351 . S
C1023 C1024 1.434 . S
C1024 C1015 1.429 . S
C1024 N1021 1.350 . S
C1024 C1023 1.434 . S
C1025 C1026 1.369 . S
C1025 C1027 1.419 . S
C1025 H1029 0.930 . S
C1026 C1025 1.369 . S
C1026 C1035 1.429 . S
C1027 C1025 1.419 . S
C1027 C1028 1.363 . S
C1027 H1030 0.929 . S
C1028 C1027 1.363 . S
C1028 C1034 1.428 . S
H1029 C1025 0.930 . S
H1030 C1027 0.929 . S
S1031 N1032 1.613 . S
S1031 N1033 1.610 . S
N1032 S1031 1.613 . S
N1032 C1035 1.350 . S
N1033 S1031 1.610 . S
N1033 C1034 1.351 . S
C1034 C1028 1.428 . S
C1034 N1033 1.351 . S
C1034 C1035 1.434 . S
C1035 C1026 1.429 . S
C1035 N1032 1.350 . S
C1035 C1034 1.434 . S
C1036 C1037 1.369 . S
C1036 C1038 1.419 . S
C1036 H1040 0.930 . S
C1037 C1036 1.369 . S
C1037 C1046 1.429 . S
C1038 C1036 1.419 . S
C1038 C1039 1.363 . S
C1038 H1041 0.929 . S
C1039 C1038 1.363 . S
C1039 C1045 1.428 . S
H1040 C1036 0.930 . S
H1041 C1038 0.929 . S
S1042 N1043 1.613 . S
S1042 N1044 1.610 . S
N1043 S1042 1.613 . S
N1043 C1046 1.350 . S
N1044 S1042 1.610 . S
N1044 C1045 1.351 . S
C1045 C1039 1.428 . S
C1045 N1044 1.351 . S
C1045 C1046 1.434 . S
C1046 C1037 1.429 . S
C1046 N1043 1.350 . S
C1046 C1045 1.434 . S
C1047 C1048 1.369 . S
C1047 C1049 1.419 . S
C1047 H1051 0.930 . S
C1048 C1047 1.369 . S
C1048 C1057 1.429 . S
C1049 C1047 1.419 . S
C1049 C1050 1.363 . S
C1049 H1052 0.929 . S
C1050 C1049 1.363 . S
C1050 C1056 1.428 . S
H1051 C1047 0.930 . S
H1052 C1049 0.929 . S
S1053 N1054 1.613 . S
S1053 N1055 1.610 . S
N1054 S1053 1.613 . S
N1054 C1057 1.350 . S
N1055 S1053 1.610 . S
N1055 C1056 1.351 . S
C1056 C1050 1.428 . S
C1056 N1055 1.351 . S
C1056 C1057 1.434 . S
C1057 C1048 1.429 . S
C1057 N1054 1.350 . S
C1057 C1056 1.434 . S
C1058 C1059 1.369 . S
C1058 C1060 1.419 . S
C1058 H1062 0.930 . S
C1059 C1058 1.369 . S
C1059 C1068 1.429 . S
C1060 C1058 1.419 . S
C1060 C1061 1.363 . S
C1060 H1063 0.929 . S
C1061 C1060 1.363 . S
C1061 C1067 1.428 . S
H1062 C1058 0.930 . S
H1063 C1060 0.929 . S
S1064 N1065 1.613 . S
S1064 N1066 1.610 . S
N1065 S1064 1.613 . S
N1065 C1068 1.350 . S
N1066 S1064 1.610 . S
N1066 C1067 1.351 . S
C1067 C1061 1.428 . S
C1067 N1066 1.351 . S
C1067 C1068 1.434 . S
C1068 C1059 1.429 . S
C1068 N1065 1.350 . S
C1068 C1067 1.434 . S
C1069 C1070 1.369 . S
C1069 C1071 1.419 . S
C1069 H1073 0.930 . S
C1070 C1069 1.369 . S
C1070 C1079 1.429 . S
C1071 C1069 1.419 . S
C1071 C1072 1.363 . S
C1071 H1074 0.929 . S
C1072 C1071 1.363 . S
C1072 C1078 1.428 . S
H1073 C1069 0.930 . S
H1074 C1071 0.929 . S
S1075 N1076 1.613 . S
S1075 N1077 1.610 . S
N1076 S1075 1.613 . S
N1076 C1079 1.350 . S
N1077 S1075 1.610 . S
N1077 C1078 1.351 . S
C1078 C1072 1.428 . S
C1078 N1077 1.351 . S
C1078 C1079 1.434 . S
C1079 C1070 1.429 . S
C1079 N1076 1.350 . S
C1079 C1078 1.434 . S
C465 C137 1.491 . S
C467 C21 1.506 . S
C476 C50 1.503 . S
C478 C166 1.497 . S
C487 C195 1.491 . S
C489 C79 1.506 . S
C498 C224 1.504 . S
C500 C108 1.497 . S
C509 C311 1.492 . S
C511 C253 1.506 . S
C520 C282 1.508 . S
C522 C340 1.493 . S
C531 C427 1.491 . S
C533 C369 1.506 . S
C542 C398 1.507 . S
C544 C456 1.494 . S
C553 C100 2.046 . S
C555 C5 2.056 . S
C564 C13 2.049 . S
C566 C34 2.059 . S
C575 C42 2.047 . S
C577 C63 2.060 . S
C586 C92 2.060 . S
C588 C71 2.047 . S
C597 C158 2.049 . S
C599 C121 2.059 . S
C608 C187 2.049 . S
C610 C150 2.057 . S
C619 C216 2.046 . S
C621 C179 2.056 . S
C630 C129 2.048 . S
C632 C208 2.056 . S
C641 C124 1.292 . S
C643 C276 1.337 . S
C652 C240 1.297 . S
C654 C131 1.331 . S
C663 C182 1.305 . S
C665 C247 1.341 . S
C674 C269 1.290 . S
C676 C189 1.334 . S
C685 C305 1.343 . S
C687 C8 1.304 . S
C696 C73 1.349 . S
C698 C298 1.299 . S
C707 C334 1.335 . S
C709 C66 1.305 . S
C718 C15 1.351 . S
C720 C327 1.305 . S
C729 C332 2.045 . S
C731 C353 2.060 . S
C740 C361 2.046 . S
C742 C295 2.060 . S
C751 C382 2.056 . S
C753 C303 2.048 . S
C762 C324 2.059 . S
C764 C390 2.044 . S
C773 C411 2.056 . S
C775 C245 2.048 . S
C784 C448 2.046 . S
C786 C237 2.060 . S
C795 C274 2.044 . S
C797 C440 2.057 . S
C806 C419 2.049 . S
C808 C266 2.057 . S
C817 C218 1.328 . S
C819 C414 1.296 . S
C828 C421 1.330 . S
C830 C153 1.293 . S
C839 C443 1.299 . S
C841 C160 1.331 . S
C850 C211 1.307 . S
C852 C450 1.340 . S
C861 C44 1.339 . S
C863 C356 1.306 . S
C872 C37 1.292 . S
C874 C392 1.337 . S
C883 C385 1.297 . S
C885 C102 1.341 . S
C894 C363 1.339 . S
C896 C95 1.306 . S
C905 C148 0.832 . S
C907 C3 0.834 . S
C916 C177 0.846 . S
C918 C32 0.846 . S
C927 C206 0.832 . S
C929 C61 0.836 . S
C938 C90 0.847 . S
C940 C119 0.846 . S
C949 C126 3.195 1_545 S
C951 C300 3.198 . S
C960 C242 3.193 . S
C962 C68 3.197 1_545 S
C971 C329 3.198 . S
C973 C184 3.194 1_565 S
C982 C10 3.194 1_565 S
C984 C271 3.195 . S
C993 C351 0.842 . S
C995 C235 0.846 . S
C1004 C293 0.835 . S
C1006 C438 0.833 . S
C1015 C380 0.847 . S
C1017 C264 0.841 . S
C1026 C409 0.834 . S
C1028 C322 0.834 . S
C1037 C39 3.193 . S
C1039 C416 3.197 . S
C1048 C387 3.195 . S
C1050 C155 3.198 . S
C1059 C97 3.197 . S
C1061 C445 3.194 . S
C1070 C213 3.194 . S
C1072 C358 3.195 . S
