# Generated by pormake.
# Topology una, (4)-cn, num edge types: 1
# Building blocks:
#     Node 0, Type 0, BuildingBlock: AZAVOO_clean_sbu_0, # of connection points: 4
#     Node 1, Type 0, BuildingBlock: AZAVOO_clean_sbu_0, # of connection points: 4
#     Node 2, Type 0, BuildingBlock: AZAVOO_clean_sbu_0, # of connection points: 4
#     Node 3, Type 0, BuildingBlock: AZAVOO_clean_sbu_0, # of connection points: 4
#     Node 4, Type 0, BuildingBlock: AZAVOO_clean_sbu_0, # of connection points: 4
#     Node 5, Type 0, BuildingBlock: AZAVOO_clean_sbu_0, # of connection points: 4
#     Node 6, Type 0, BuildingBlock: AZAVOO_clean_sbu_0, # of connection points: 4
#     Node 7, Type 0, BuildingBlock: AZAVOO_clean_sbu_0, # of connection points: 4
#     Node 8, Type 0, BuildingBlock: AZAVOO_clean_sbu_0, # of connection points: 4
#     Node 9, Type 0, BuildingBlock: AZAVOO_clean_sbu_0, # of connection points: 4
#     Node 10, Type 0, BuildingBlock: AZAVOO_clean_sbu_0, # of connection points: 4
#     Node 11, Type 0, BuildingBlock: AZAVOO_clean_sbu_0, # of connection points: 4
#     Edge 12, Type (0, 0), BuildingBlock: OJICUG_clean_linker_0, # of connection points: 2
#     Edge 13, Type (0, 0), BuildingBlock: OJICUG_clean_linker_0, # of connection points: 2
#     Edge 14, Type (0, 0), BuildingBlock: OJICUG_clean_linker_0, # of connection points: 2
#     Edge 15, Type (0, 0), BuildingBlock: OJICUG_clean_linker_0, # of connection points: 2
#     Edge 16, Type (0, 0), BuildingBlock: OJICUG_clean_linker_0, # of connection points: 2
#     Edge 17, Type (0, 0), BuildingBlock: OJICUG_clean_linker_0, # of connection points: 2
#     Edge 18, Type (0, 0), BuildingBlock: OJICUG_clean_linker_0, # of connection points: 2
#     Edge 19, Type (0, 0), BuildingBlock: OJICUG_clean_linker_0, # of connection points: 2
#     Edge 20, Type (0, 0), BuildingBlock: OJICUG_clean_linker_0, # of connection points: 2
#     Edge 21, Type (0, 0), BuildingBlock: OJICUG_clean_linker_0, # of connection points: 2
#     Edge 22, Type (0, 0), BuildingBlock: OJICUG_clean_linker_0, # of connection points: 2
#     Edge 23, Type (0, 0), BuildingBlock: OJICUG_clean_linker_0, # of connection points: 2
#     Edge 24, Type (0, 0), BuildingBlock: OJICUG_clean_linker_0, # of connection points: 2
#     Edge 25, Type (0, 0), BuildingBlock: OJICUG_clean_linker_0, # of connection points: 2
#     Edge 26, Type (0, 0), BuildingBlock: OJICUG_clean_linker_0, # of connection points: 2
#     Edge 27, Type (0, 0), BuildingBlock: OJICUG_clean_linker_0, # of connection points: 2
#     Edge 28, Type (0, 0), BuildingBlock: OJICUG_clean_linker_0, # of connection points: 2
#     Edge 29, Type (0, 0), BuildingBlock: OJICUG_clean_linker_0, # of connection points: 2
#     Edge 30, Type (0, 0), BuildingBlock: OJICUG_clean_linker_0, # of connection points: 2
#     Edge 31, Type (0, 0), BuildingBlock: OJICUG_clean_linker_0, # of connection points: 2
#     Edge 32, Type (0, 0), BuildingBlock: OJICUG_clean_linker_0, # of connection points: 2
#     Edge 33, Type (0, 0), BuildingBlock: OJICUG_clean_linker_0, # of connection points: 2
#     Edge 34, Type (0, 0), BuildingBlock: OJICUG_clean_linker_0, # of connection points: 2
#     Edge 35, Type (0, 0), BuildingBlock: OJICUG_clean_linker_0, # of connection points: 2
# Relax obj value: 0.179
# Max RMSD: 0.209
# Mean RMSD: 0.204
data_MOF--net-una--node1-AZAVOO_clean_sbu_0--edge1-OJICUG_clean_linker_0
_symmetry_space_group_name_H-M    P1
_symmetry_Int_Tables_number       1
_symmetry_cell_setting            triclinic
loop_
_symmetry_equiv_pos_as_xyz
'x, y, z'
_cell_length_a     41284926.0
_cell_length_b     39.201961
_cell_length_c     17.776964
_cell_angle_alpha  90.505428
_cell_angle_beta   89.252177
_cell_angle_gamma 122.75742
loop_
_atom_site_label
_atom_site_type_symbol
_atom_site_fract_x
_atom_site_fract_y
_atom_site_fract_z
_atom_type_partial_charge
Mg0 Mg 0.0 0.43348 -0.00713 0.0
O1 O 0.0 0.49186 0.04992 0.0
O2 O 0.0 0.5251 0.08901 0.0
Mg3 Mg 0.0 0.48647 0.06858 0.0
C4 C 0.0 0.5228 0.08 0.0
C5 C 0.0 0.39089 -0.0504 0.0
O6 O 0.0 0.3645 -0.00543 0.0
O7 O 0.0 0.47138 0.89592 0.0
O8 O 0.0 0.49733 0.94305 0.0
O9 O 0.0 0.3987 0.10242 0.0
O10 O 0.0 0.43218 0.05584 0.0
C11 C 0.0 0.49176 0.88885 0.0
C12 C 0.0 0.41011 0.10819 0.0
O13 O 0.0 0.42454 0.93787 0.0
Mg14 Mg 0.0 0.15411 0.17828 0.0
O15 O 0.0 0.1869 0.06493 0.0
O16 O 0.0 0.14818 -0.01319 0.0
Mg17 Mg 0.0 0.09185 0.04939 0.0
C18 C 0.0 0.18004 0.00052 0.0
C19 C 0.0 0.22513 0.2375 0.0
O20 O 0.0 0.20567 0.20124 0.0
O21 O 0.0 0.17158 0.2043 0.0
O22 O 0.0 0.13225 0.12359 0.0
O23 O 0.0 0.11905 0.13635 0.0
O24 O 0.0 0.09864 0.12725 0.0
C25 C 0.0 0.15907 0.17548 0.0
C26 C 0.0 0.09247 0.11289 0.0
O27 O 0.0 0.21179 0.23498 0.0
Mg28 Mg 0.0 0.73208 0.29903 0.0
O29 O 0.0 0.67869 0.32217 0.0
O30 O 0.0 0.70761 0.35447 0.0
Mg31 Mg 0.0 0.77618 0.35947 0.0
C32 C 0.0 0.67627 0.34068 0.0
C33 C 0.0 0.68471 0.27473 0.0
O34 O 0.0 0.69937 0.34302 0.0
O35 O 0.0 0.74656 0.18764 0.0
O36 O 0.0 0.77559 0.2326 0.0
O37 O 0.0 0.73574 0.4221 0.0
O38 O 0.0 0.76946 0.37176 0.0
C39 C 0.0 0.76443 0.17772 0.0
C40 C 0.0 0.76125 0.43026 0.0
O41 O 0.0 0.69078 0.24042 0.0
Mg42 Mg 0.0 0.61436 0.49062 0.0
O43 O 0.0 0.5571 0.54959 0.0
O44 O 0.0 0.52476 0.59333 0.0
Mg45 Mg 0.0 0.56312 0.57447 0.0
C46 C 0.0 0.52682 0.5824 0.0
C47 C 0.0 0.6328 0.35973 0.0
O48 O 0.0 0.6377 0.33207 0.0
O49 O 0.0 0.57462 0.3981 0.0
O50 O 0.0 0.55023 0.44848 0.0
O51 O 0.0 0.65095 0.59809 0.0
O52 O 0.0 0.61694 0.55797 0.0
C53 C 0.0 0.5547 0.39303 0.0
C54 C 0.0 0.63958 0.6081 0.0
O55 O 0.0 0.6222 0.42819 0.0
Mg56 Mg 0.0 0.91453 0.65384 0.0
O57 O 0.0 0.87342 0.54952 0.0
O58 O 0.0 0.90706 0.46335 0.0
Mg59 Mg 0.0 0.96973 0.50745 0.0
C60 C 0.0 0.87579 0.48473 0.0
C61 C 0.0 0.83825 0.72615 0.0
O62 O 0.0 0.84625 0.67896 0.0
O63 O 0.0 0.90271 0.67807 0.0
O64 O 0.0 0.93903 0.58983 0.0
O65 O 0.0 0.94341 0.61001 0.0
O66 O 0.0 0.96505 0.58633 0.0
C67 C 0.0 0.91563 0.64695 0.0
C68 C 0.0 0.96795 0.57439 0.0
O69 O 0.0 0.86029 0.72654 0.0
Mg70 Mg 0.0 0.33037 0.83973 0.0
O71 O 0.0 0.38182 0.85012 0.0
O72 O 0.0 0.35146 0.89604 0.0
Mg73 Mg 0.0 0.28554 0.92677 0.0
C74 C 0.0 0.38266 0.87037 0.0
C75 C 0.0 0.34461 0.70728 0.0
O76 O 0.0 0.30581 0.70431 0.0
O77 O 0.0 0.30234 0.74196 0.0
O78 O 0.0 0.27073 0.80168 0.0
O79 O 0.0 0.34175 -0.0426 0.0
O80 O 0.0 0.3014 0.92933 0.0
C81 C 0.0 0.27902 0.7417 0.0
C82 C 0.0 0.31766 -0.02027 0.0
O83 O 0.0 0.3662 0.75868 0.0
Mg84 Mg 0.0 0.92433 0.78964 0.0
O85 O 0.0 0.87321 0.87752 0.0
O86 O 0.0 0.89316 -0.02846 0.0
Mg87 Mg 0.0 0.95687 -0.04975 0.0
C88 C 0.0 0.86709 0.9408 0.0
C89 C 0.0 0.85135 0.70343 0.0
O90 O 0.0 0.84142 0.76879 0.0
O91 O 0.0 0.90758 0.75805 0.0
O92 O 0.0 0.93097 0.85592 0.0
O93 O 0.0 0.95541 0.84426 0.0
O94 O 0.0 0.96574 0.87424 0.0
C95 C 0.0 0.91386 0.79159 0.0
C96 C 0.0 0.9725 0.88766 0.0
O97 O 0.0 0.88191 0.69851 0.0
Mg98 Mg 0.0 0.61569 -0.00746 0.0
O99 O 0.0 0.55842 0.93231 0.0
O100 O 0.0 0.52552 0.89076 0.0
Mg101 Mg 0.0 0.5637 0.91297 0.0
C102 C 0.0 0.52795 0.90011 0.0
C103 C 0.0 0.63163 0.11926 0.0
O104 O 0.0 0.63431 0.15492 0.0
O105 O 0.0 0.57606 0.08678 0.0
O106 O 0.0 0.55089 0.03841 0.0
O107 O 0.0 0.65189 0.88512 0.0
O108 O 0.0 0.61803 0.92799 0.0
C109 C 0.0 0.55567 0.09298 0.0
C110 C 0.0 0.64043 0.87689 0.0
O111 O 0.0 0.62352 0.04927 0.0
Mg112 Mg 0.0 0.72436 0.12862 0.0
O113 O 0.0 0.67206 0.11798 0.0
O114 O 0.0 0.70168 0.07827 0.0
Mg115 Mg 0.0 0.76854 0.05269 0.0
C116 C 0.0 0.67053 0.10042 0.0
C117 C 0.0 0.68353 0.17598 0.0
O118 O 0.0 0.69942 0.11001 0.0
O119 O 0.0 0.74914 0.23253 0.0
O120 O 0.0 0.77927 0.1783 0.0
O121 O 0.0 0.71705 0.00811 0.0
O122 O 0.0 0.75562 0.04342 0.0
C123 C 0.0 0.77077 0.2364 0.0
C124 C 0.0 0.7418 -0.01002 0.0
O125 O 0.0 0.68669 0.20139 0.0
Mg126 Mg 0.0 0.15631 0.3032 0.0
O127 O 0.0 0.18827 0.41755 0.0
O128 O 0.0 0.14843 0.49467 0.0
Mg129 Mg 0.0 0.09208 0.43057 0.0
C130 C 0.0 0.18075 0.4818 0.0
C131 C 0.0 0.22846 0.24447 0.0
O132 O 0.0 0.20912 0.27939 0.0
O133 O 0.0 0.17287 0.27844 0.0
O134 O 0.0 0.1323 0.35794 0.0
O135 O 0.0 0.12175 0.3432 0.0
O136 O 0.0 0.10034 0.35255 0.0
C137 C 0.0 0.15956 0.30701 0.0
C138 C 0.0 0.09457 0.36591 0.0
O139 O 0.0 0.21472 0.24776 0.0
Mg140 Mg 0.0 0.4367 0.48262 0.0
O141 O 0.0 0.49572 0.42343 0.0
O142 O 0.0 0.52511 0.38442 0.0
Mg143 Mg 0.0 0.48445 0.4089 0.0
C144 C 0.0 0.52511 0.3922 0.0
C145 C 0.0 0.39825 0.52226 0.0
O146 O 0.0 0.37222 0.47435 0.0
O147 O 0.0 0.47399 0.57987 0.0
O148 O 0.0 0.49681 0.53378 0.0
O149 O 0.0 0.40138 0.37339 0.0
O150 O 0.0 0.43237 0.42103 0.0
C151 C 0.0 0.49284 0.58747 0.0
C152 C 0.0 0.41098 0.3683 0.0
O153 O 0.0 0.4306 0.5367 0.0
Mg154 Mg 0.0 0.32641 0.6427 0.0
O155 O 0.0 0.379 0.63246 0.0
O156 O 0.0 0.34964 0.58668 0.0
Mg157 Mg 0.0 0.28336 0.55636 0.0
C158 C 0.0 0.38054 0.61219 0.0
C159 C 0.0 0.33871 0.77094 0.0
O160 O 0.0 0.29985 0.77153 0.0
O161 O 0.0 0.29952 0.7411 0.0
O162 O 0.0 0.26917 0.68156 0.0
O163 O 0.0 0.33698 0.52499 0.0
O164 O 0.0 0.29784 0.55336 0.0
C165 C 0.0 0.27709 0.74149 0.0
C166 C 0.0 0.31352 0.50284 0.0
O167 O 0.0 0.36131 0.72287 0.0
C168 C 0.0 0.40151 0.16674 0.0
C169 C 0.0 0.40205 0.17455 0.0
H170 H 0.0 0.403 0.22274 0.0
C171 C 0.0 0.39953 0.24623 0.0
H172 H 0.0 0.40303 0.1116 0.0
C173 C 0.0 0.40003 0.30953 0.0
C174 C 0.0 0.4023 0.30177 0.0
H175 H 0.0 0.39988 0.25351 0.0
H176 H 0.0 0.40045 0.36472 0.0
C177 C 0.0 0.40126 0.23001 0.0
C178 C 0.0 0.28696 0.38037 0.0
C179 C 0.0 0.30257 0.42358 0.0
H180 H 0.0 0.24977 0.2862 0.0
C181 C 0.0 0.29924 0.39666 0.0
H182 H 0.0 0.28905 0.40044 0.0
C183 C 0.0 0.27697 0.33173 0.0
C184 C 0.0 0.2572 0.29293 0.0
H185 H 0.0 0.31169 0.42849 0.0
H186 H 0.0 0.27292 0.31511 0.0
C187 C 0.0 0.26427 0.31533 0.0
C188 C 0.0 0.81377 0.50309 0.0
C189 C 0.0 0.78191 0.50235 0.0
H190 H 0.0 0.86034 0.56609 0.0
C191 C 0.0 0.77233 0.56918 0.0
H192 H 0.0 0.82254 0.45259 0.0
C193 C 0.0 0.79453 0.63528 0.0
C194 C 0.0 0.82679 0.6352 0.0
H195 H 0.0 0.74807 0.5702 0.0
H196 H 0.0 0.78677 0.68598 0.0
C197 C 0.0 0.83585 0.56841 0.0
C198 C 0.0 0.65052 0.67296 0.0
C199 C 0.0 0.64821 0.67689 0.0
H200 H 0.0 0.65084 0.73401 0.0
C201 C 0.0 0.64902 0.74705 0.0
H202 H 0.0 0.65018 0.61906 0.0
C203 C 0.0 0.64868 0.81254 0.0
C204 C 0.0 0.6484 0.80853 0.0
H205 H 0.0 0.64714 0.75131 0.0
H206 H 0.0 0.64696 0.86638 0.0
C207 C 0.0 0.65106 0.73843 0.0
C208 C 0.0 0.79458 0.82601 0.0
C209 C 0.0 0.80643 0.78425 0.0
H210 H 0.0 0.76317 0.9221 0.0
C211 C 0.0 0.79031 0.80339 0.0
H212 H 0.0 0.80561 0.8117 0.0
C213 C 0.0 0.76582 0.86737 0.0
C214 C 0.0 0.75727 0.91282 0.0
H215 H 0.0 0.7986 0.77184 0.0
H216 H 0.0 0.75619 0.88426 0.0
C217 C 0.0 0.77026 0.88948 0.0
C218 C 0.0 0.28004 0.15105 0.0
C219 C 0.0 0.2608 0.18932 0.0
H220 H 0.0 0.3145 0.0548 0.0
C221 C 0.0 0.26864 0.16659 0.0
H222 H 0.0 0.27538 0.16791 0.0
C223 C 0.0 0.29156 0.10174 0.0
C224 C 0.0 0.30662 0.059 0.0
H225 H 0.0 0.25459 0.19531 0.0
H226 H 0.0 0.29423 0.08139 0.0
C227 C 0.0 0.30253 0.08628 0.0
C228 C 0.0 0.5964 0.11204 0.0
C229 C 0.0 0.5592 0.09638 0.0
H230 H 0.0 0.66046 0.12527 0.0
C231 C 0.0 0.55836 0.08919 0.0
H232 H 0.0 0.59834 0.11824 0.0
C233 C 0.0 0.59428 0.09402 0.0
C234 C 0.0 0.63168 0.10489 0.0
H235 H 0.0 0.53019 0.07739 0.0
H236 H 0.0 0.59301 0.08577 0.0
C237 C 0.0 0.63216 0.11566 0.0
C238 C 0.0 0.17368 0.16345 0.0
C239 C 0.0 0.17129 0.20889 0.0
H240 H 0.0 0.17333 0.15962 0.0
C241 C 0.0 0.17304 0.28736 0.0
H242 H 0.0 0.17246 0.10271 0.0
C243 C 0.0 0.17255 0.31984 0.0
C244 C 0.0 0.17146 0.2743 0.0
H245 H 0.0 0.17102 0.3236 0.0
H246 H 0.0 0.17047 0.38048 0.0
C247 C 0.0 0.17433 0.19596 0.0
C248 C 0.0 0.59721 0.34934 0.0
C249 C 0.0 0.56216 0.37064 0.0
H250 H 0.0 0.66031 0.32344 0.0
C251 C 0.0 0.56416 0.37637 0.0
H252 H 0.0 0.59695 0.34396 0.0
C253 C 0.0 0.60085 0.36378 0.0
C254 C 0.0 0.63622 0.34639 0.0
H255 H 0.0 0.53769 0.39241 0.0
H256 H 0.0 0.60186 0.37052 0.0
C257 C 0.0 0.63373 0.33788 0.0
C258 C 0.0 0.45401 0.61932 0.0
C259 C 0.0 0.491 0.60117 0.0
H260 H 0.0 0.39033 0.63694 0.0
C261 C 0.0 0.49212 0.59468 0.0
H262 H 0.0 0.45189 0.62512 0.0
C263 C 0.0 0.45657 0.60254 0.0
C264 C 0.0 0.41927 0.61571 0.0
H265 H 0.0 0.52016 0.58113 0.0
H266 H 0.0 0.45792 0.59444 0.0
C267 C 0.0 0.41859 0.62587 0.0
C268 C 0.0 0.91009 0.63895 0.0
C269 C 0.0 0.90668 0.68157 0.0
H270 H 0.0 0.91391 0.64036 0.0
C271 C 0.0 0.89935 0.75913 0.0
H272 H 0.0 0.91534 0.57885 0.0
C273 C 0.0 0.89909 0.79438 0.0
C274 C 0.0 0.90534 0.7525 0.0
H275 H 0.0 0.8965 0.79341 0.0
H276 H 0.0 0.89585 0.85498 0.0
C277 C 0.0 0.90902 0.67403 0.0
C278 C 0.0 0.41962 0.85868 0.0
C279 C 0.0 0.42099 0.86683 0.0
H280 H 0.0 0.45223 0.86092 0.0
C281 C 0.0 0.45871 0.8777 0.0
H282 H 0.0 0.39103 0.84936 0.0
C283 C 0.0 0.49403 0.88531 0.0
C284 C 0.0 0.49227 0.8809 0.0
H285 H 0.0 0.46063 0.88416 0.0
H286 H 0.0 0.52243 0.89714 0.0
C287 C 0.0 0.45483 0.86499 0.0
C288 C 0.0 0.50667 0.72243 0.0
C289 C 0.0 0.5043 0.66353 0.0
H290 H 0.0 0.50569 0.84113 0.0
C291 C 0.0 0.50633 0.67988 0.0
H292 H 0.0 0.50576 0.71125 0.0
C293 C 0.0 0.50555 0.75418 0.0
C294 C 0.0 0.50361 0.813 0.0
H295 H 0.0 0.50494 0.63552 0.0
H296 H 0.0 0.50382 0.76534 0.0
C297 C 0.0 0.50675 0.79675 0.0
C298 C 0.0 0.23637 0.94113 0.0
C299 C 0.0 0.20873 0.93828 0.0
H300 H 0.0 0.27985 0.88098 0.0
C301 C 0.0 0.20686 0.87309 0.0
H302 H 0.0 0.23856 -0.00925 0.0
C303 C 0.0 0.23062 0.81082 0.0
C304 C 0.0 0.25663 0.81176 0.0
H305 H 0.0 0.1863 0.86941 0.0
H306 H 0.0 0.22743 0.76095 0.0
C307 C 0.0 0.26002 0.87826 0.0
C308 C 0.0 0.79093 0.04925 0.0
C309 C 0.0 0.77848 0.10233 0.0
H310 H 0.0 0.82921 -0.04579 0.0
C311 C 0.0 0.78803 0.09007 0.0
H312 H 0.0 0.78398 0.05732 0.0
C313 C 0.0 0.81413 0.03221 0.0
C314 C 0.0 0.83064 -0.01522 0.0
H315 H 0.0 0.77825 0.12931 0.0
H316 H 0.0 0.82379 0.02809 0.0
C317 C 0.0 0.81688 -0.00958 0.0
C318 C 0.0 0.54142 0.30227 0.0
C319 C 0.0 0.54266 0.31773 0.0
H320 H 0.0 0.54464 0.21762 0.0
C321 C 0.0 0.53939 0.25827 0.0
H322 H 0.0 0.54364 0.34711 0.0
C323 C 0.0 0.53924 0.18417 0.0
C324 C 0.0 0.54326 0.16861 0.0
H325 H 0.0 0.53976 0.26881 0.0
H326 H 0.0 0.53968 0.13939 0.0
C327 C 0.0 0.54214 0.22812 0.0
C328 C 0.0 0.79306 0.369 0.0
C329 C 0.0 0.79056 0.30799 0.0
H330 H 0.0 0.82213 0.47412 0.0
C331 C 0.0 0.81171 0.31195 0.0
H332 H 0.0 0.777 0.36783 0.0
C333 C 0.0 0.83765 0.37186 0.0
C334 C 0.0 0.84268 0.42986 0.0
H335 H 0.0 0.80995 0.26671 0.0
H336 H 0.0 0.85505 0.37119 0.0
C337 C 0.0 0.81888 0.42979 0.0
C338 C 0.0 0.26236 0.60476 0.0
C339 C 0.0 0.25794 0.6715 0.0
H340 H 0.0 0.2415 0.49189 0.0
C341 C 0.0 0.23043 0.67263 0.0
H342 H 0.0 0.28334 0.60189 0.0
C343 C 0.0 0.20636 0.61018 0.0
C344 C 0.0 0.20938 0.54465 0.0
H345 H 0.0 0.22639 0.72272 0.0
H346 H 0.0 0.18472 0.61396 0.0
C347 C 0.0 0.23838 0.54175 0.0
C348 C 0.0 0.40587 0.85474 0.0
C349 C 0.0 0.37976 0.9085 0.0
H350 H 0.0 0.41359 0.76915 0.0
C351 C 0.0 0.34153 0.92007 0.0
H352 H 0.0 0.43559 0.84463 0.0
C353 C 0.0 0.32899 0.87697 0.0
C354 C 0.0 0.35436 0.82123 0.0
H355 H 0.0 0.32071 -0.03873 0.0
H356 H 0.0 0.29892 0.88639 0.0
C357 C 0.0 0.39331 0.81157 0.0
C358 C 0.0 0.99133 0.02078 0.0
C359 C 0.0 0.99764 -0.04716 0.0
H360 H 0.0 1.0168 0.12569 0.0
C361 C 0.0 0.03239 0.94437 0.0
H362 H 0.0 0.9644 0.02915 0.0
C363 C 0.0 0.06247 0.00053 0.0
C364 C 0.0 0.05776 0.06495 0.0
H365 H 0.0 0.03792 0.892 0.0
H366 H 0.0 0.09067 -0.00944 0.0
C367 C 0.0 1.02118 0.07615 0.0
C368 C 0.0 0.6483 0.23735 0.0
C369 C 0.0 0.64093 0.15948 0.0
H370 H 0.0 0.66726 0.33466 0.0
C371 C 0.0 0.64461 0.12066 0.0
H372 H 0.0 0.64537 0.26921 0.0
C373 C 0.0 0.65723 0.15847 0.0
C374 C 0.0 0.66635 0.2358 0.0
H375 H 0.0 0.63897 0.06068 0.0
H376 H 0.0 0.66112 0.12663 0.0
C377 C 0.0 0.66081 0.275 0.0
C378 C 0.0 0.65598 0.29814 0.0
C379 C 0.0 0.6663 0.22214 0.0
H380 H 0.0 0.63716 0.40171 0.0
C381 C 0.0 0.66265 0.19118 0.0
H382 H 0.0 0.65843 0.32366 0.0
C383 C 0.0 0.65064 0.23563 0.0
C384 C 0.0 0.6419 0.31231 0.0
H385 H 0.0 0.67001 0.13275 0.0
H386 H 0.0 0.64904 0.20996 0.0
C387 C 0.0 0.64386 0.34286 0.0
C388 C 0.0 0.06342 0.48055 0.0
C389 C 0.0 0.05905 0.41061 0.0
H390 H 0.0 0.03654 0.58914 0.0
C391 C 0.0 1.02144 0.3907 0.0
H392 H 0.0 0.09247 0.49737 0.0
C393 C 0.0 0.98977 0.44229 0.0
C394 C 0.0 0.99525 0.51489 0.0
H395 H 0.0 1.01755 0.33715 0.0
H396 H 0.0 0.9621 0.42739 0.0
C397 C 0.0 0.03153 0.53283 0.0
C398 C 0.0 0.41213 0.62336 0.0
C399 C 0.0 0.38747 0.56457 0.0
H400 H 0.0 0.41813 0.71466 0.0
C401 C 0.0 0.35054 0.54959 0.0
H402 H 0.0 0.44082 0.63624 0.0
C403 C 0.0 0.33758 0.59442 0.0
C404 C 0.0 0.36124 0.65531 0.0
H405 H 0.0 0.33091 0.50446 0.0
H406 H 0.0 0.30841 0.58231 0.0
C407 C 0.0 0.39916 0.66826 0.0
loop_
_geom_bond_atom_site_label_1
_geom_bond_atom_site_label_2
_geom_bond_distance
_geom_bond_site_symmetry_2
_ccdc_geom_bond_type
Mg0 O1 2.028 . S
Mg0 O7 1.986 1_554 S
Mg0 O9 2.114 . S
Mg0 O10 2.251 . S
Mg0 O13 2.010 1_554 S
O1 Mg0 2.028 . S
O1 C4 1.250 . S
O2 Mg3 2.028 . S
O2 C4 1.248 . S
Mg3 O2 2.028 . S
Mg3 O8 2.032 1_554 S
Mg3 O10 2.079 . S
C4 O1 1.250 . S
C4 O2 1.248 . S
C5 O6 1.264 . S
C5 O13 1.249 . S
O6 C5 1.264 . S
O7 Mg0 1.986 1_556 S
O7 C11 1.246 . S
O8 Mg3 2.032 1_556 S
O8 C11 1.259 . S
O9 Mg0 2.114 . S
O9 C12 1.252 . S
O10 Mg0 2.251 . S
O10 Mg3 2.079 . S
O10 C12 1.273 . S
C11 O7 1.246 . S
C11 O8 1.259 . S
C12 O9 1.252 . S
C12 O10 1.273 . S
O13 Mg0 2.010 1_556 S
O13 C5 1.249 . S
Mg14 O15 2.028 . S
Mg14 O21 1.986 . S
Mg14 O23 2.114 . S
Mg14 O24 2.251 . S
Mg14 O27 2.010 . S
O15 Mg14 2.028 . S
O15 C18 1.250 . S
O16 Mg17 2.028 . S
O16 C18 1.248 . S
Mg17 O16 2.028 . S
Mg17 O22 2.032 . S
Mg17 O24 2.079 . S
C18 O15 1.250 . S
C18 O16 1.248 . S
C19 O20 1.264 . S
C19 O27 1.249 . S
O20 C19 1.264 . S
O21 Mg14 1.986 . S
O21 C25 1.246 . S
O22 Mg17 2.032 . S
O22 C25 1.259 . S
O23 Mg14 2.114 . S
O23 C26 1.252 . S
O24 Mg14 2.251 . S
O24 Mg17 2.079 . S
O24 C26 1.273 . S
C25 O21 1.246 . S
C25 O22 1.259 . S
C26 O23 1.252 . S
C26 O24 1.273 . S
O27 Mg14 2.010 . S
O27 C19 1.249 . S
Mg28 O29 2.028 . S
Mg28 O35 1.986 . S
Mg28 O37 2.114 . S
Mg28 O38 2.251 . S
Mg28 O41 2.010 . S
O29 Mg28 2.028 . S
O29 C32 1.250 . S
O30 Mg31 2.028 . S
O30 C32 1.248 . S
Mg31 O30 2.028 . S
Mg31 O36 2.032 . S
Mg31 O38 2.079 . S
C32 O29 1.250 . S
C32 O30 1.248 . S
C33 O34 1.264 . S
C33 O41 1.249 . S
O34 C33 1.264 . S
O35 Mg28 1.986 . S
O35 C39 1.246 . S
O36 Mg31 2.032 . S
O36 C39 1.259 . S
O37 Mg28 2.114 . S
O37 C40 1.252 . S
O38 Mg28 2.251 . S
O38 Mg31 2.079 . S
O38 C40 1.273 . S
C39 O35 1.246 . S
C39 O36 1.259 . S
C40 O37 1.252 . S
C40 O38 1.273 . S
O41 Mg28 2.010 . S
O41 C33 1.249 . S
Mg42 O43 2.028 . S
Mg42 O49 1.986 . S
Mg42 O51 2.114 . S
Mg42 O52 2.251 . S
Mg42 O55 2.010 . S
O43 Mg42 2.028 . S
O43 C46 1.250 . S
O44 Mg45 2.028 . S
O44 C46 1.248 . S
Mg45 O44 2.028 . S
Mg45 O50 2.032 . S
Mg45 O52 2.079 . S
C46 O43 1.250 . S
C46 O44 1.248 . S
C47 O48 1.264 . S
C47 O55 1.249 . S
O48 C47 1.264 . S
O49 Mg42 1.986 . S
O49 C53 1.246 . S
O50 Mg45 2.032 . S
O50 C53 1.259 . S
O51 Mg42 2.114 . S
O51 C54 1.252 . S
O52 Mg42 2.251 . S
O52 Mg45 2.079 . S
O52 C54 1.273 . S
C53 O49 1.246 . S
C53 O50 1.259 . S
C54 O51 1.252 . S
C54 O52 1.273 . S
O55 Mg42 2.010 . S
O55 C47 1.249 . S
Mg56 O57 2.028 . S
Mg56 O63 1.986 . S
Mg56 O65 2.114 . S
Mg56 O66 2.251 . S
Mg56 O69 2.010 . S
O57 Mg56 2.028 . S
O57 C60 1.250 . S
O58 Mg59 2.028 . S
O58 C60 1.248 . S
Mg59 O58 2.028 . S
Mg59 O64 2.032 . S
Mg59 O66 2.079 . S
C60 O57 1.250 . S
C60 O58 1.248 . S
C61 O62 1.264 . S
C61 O69 1.249 . S
O62 C61 1.264 . S
O63 Mg56 1.986 . S
O63 C67 1.246 . S
O64 Mg59 2.032 . S
O64 C67 1.259 . S
O65 Mg56 2.114 . S
O65 C68 1.252 . S
O66 Mg56 2.251 . S
O66 Mg59 2.079 . S
O66 C68 1.273 . S
C67 O63 1.246 . S
C67 O64 1.259 . S
C68 O65 1.252 . S
C68 O66 1.273 . S
O69 Mg56 2.010 . S
O69 C61 1.249 . S
Mg70 O71 2.028 . S
Mg70 O77 1.986 . S
Mg70 O79 2.114 . S
Mg70 O80 2.251 . S
Mg70 O83 2.010 . S
O71 Mg70 2.028 . S
O71 C74 1.250 . S
O72 Mg73 2.028 . S
O72 C74 1.248 . S
Mg73 O72 2.028 . S
Mg73 O78 2.032 . S
Mg73 O80 2.079 . S
C74 O71 1.250 . S
C74 O72 1.248 . S
C75 O76 1.264 . S
C75 O83 1.249 . S
O76 C75 1.264 . S
O77 Mg70 1.986 . S
O77 C81 1.246 . S
O78 Mg73 2.032 . S
O78 C81 1.259 . S
O79 Mg70 2.114 . S
O79 C82 1.252 . S
O80 Mg70 2.251 . S
O80 Mg73 2.079 . S
O80 C82 1.273 . S
C81 O77 1.246 . S
C81 O78 1.259 . S
C82 O79 1.252 . S
C82 O80 1.273 . S
O83 Mg70 2.010 . S
O83 C75 1.249 . S
Mg84 O85 2.028 . S
Mg84 O91 1.986 . S
Mg84 O93 2.114 . S
Mg84 O94 2.251 . S
Mg84 O97 2.010 . S
O85 Mg84 2.028 . S
O85 C88 1.250 . S
O86 Mg87 2.028 . S
O86 C88 1.248 1_554 S
Mg87 O86 2.028 . S
Mg87 O92 2.032 1_554 S
Mg87 O94 2.079 1_554 S
C88 O85 1.250 . S
C88 O86 1.248 1_556 S
C89 O90 1.264 . S
C89 O97 1.249 . S
O90 C89 1.264 . S
O91 Mg84 1.986 . S
O91 C95 1.246 . S
O92 Mg87 2.032 1_556 S
O92 C95 1.259 . S
O93 Mg84 2.114 . S
O93 C96 1.252 . S
O94 Mg84 2.251 . S
O94 Mg87 2.079 1_556 S
O94 C96 1.273 . S
C95 O91 1.246 . S
C95 O92 1.259 . S
C96 O93 1.252 . S
C96 O94 1.273 . S
O97 Mg84 2.010 . S
O97 C89 1.249 . S
Mg98 O99 2.028 . S
Mg98 O105 1.986 . S
Mg98 O107 2.114 1_554 S
Mg98 O108 2.251 1_554 S
Mg98 O111 2.010 . S
O99 Mg98 2.028 . S
O99 C102 1.250 . S
O100 Mg101 2.028 . S
O100 C102 1.248 1_556 S
Mg101 O100 2.028 . S
Mg101 O106 2.032 1_556 S
Mg101 O108 2.079 . S
C102 O99 1.250 . S
C102 O100 1.248 1_554 S
C103 O104 1.264 . S
C103 O111 1.249 . S
O104 C103 1.264 . S
O105 Mg98 1.986 . S
O105 C109 1.246 . S
O106 Mg101 2.032 1_554 S
O106 C109 1.259 . S
O107 Mg98 2.114 1_556 S
O107 C110 1.252 . S
O108 Mg98 2.251 1_556 S
O108 Mg101 2.079 . S
O108 C110 1.273 . S
C109 O105 1.246 . S
C109 O106 1.259 . S
C110 O107 1.252 . S
C110 O108 1.273 . S
O111 Mg98 2.010 . S
O111 C103 1.249 . S
Mg112 O113 2.028 . S
Mg112 O119 1.986 . S
Mg112 O121 2.114 . S
Mg112 O122 2.251 . S
Mg112 O125 2.010 . S
O113 Mg112 2.028 . S
O113 C116 1.250 . S
O114 Mg115 2.028 . S
O114 C116 1.248 . S
Mg115 O114 2.028 . S
Mg115 O120 2.032 . S
Mg115 O122 2.079 . S
C116 O113 1.250 . S
C116 O114 1.248 . S
C117 O118 1.264 . S
C117 O125 1.249 . S
O118 C117 1.264 . S
O119 Mg112 1.986 . S
O119 C123 1.246 . S
O120 Mg115 2.032 . S
O120 C123 1.259 . S
O121 Mg112 2.114 . S
O121 C124 1.252 . S
O122 Mg112 2.251 . S
O122 Mg115 2.079 . S
O122 C124 1.273 . S
C123 O119 1.246 . S
C123 O120 1.259 . S
C124 O121 1.252 . S
C124 O122 1.273 . S
O125 Mg112 2.010 . S
O125 C117 1.249 . S
Mg126 O127 2.028 . S
Mg126 O133 1.986 . S
Mg126 O135 2.114 . S
Mg126 O136 2.251 . S
Mg126 O139 2.010 . S
O127 Mg126 2.028 . S
O127 C130 1.250 . S
O128 Mg129 2.028 . S
O128 C130 1.248 . S
Mg129 O128 2.028 . S
Mg129 O134 2.032 . S
Mg129 O136 2.079 . S
C130 O127 1.250 . S
C130 O128 1.248 . S
C131 O132 1.264 . S
C131 O139 1.249 . S
O132 C131 1.264 . S
O133 Mg126 1.986 . S
O133 C137 1.246 . S
O134 Mg129 2.032 . S
O134 C137 1.259 . S
O135 Mg126 2.114 . S
O135 C138 1.252 . S
O136 Mg126 2.251 . S
O136 Mg129 2.079 . S
O136 C138 1.273 . S
C137 O133 1.246 . S
C137 O134 1.259 . S
C138 O135 1.252 . S
C138 O136 1.273 . S
O139 Mg126 2.010 . S
O139 C131 1.249 . S
Mg140 O141 2.028 . S
Mg140 O147 1.986 . S
Mg140 O149 2.114 . S
Mg140 O150 2.251 . S
Mg140 O153 2.010 . S
O141 Mg140 2.028 . S
O141 C144 1.250 . S
O142 Mg143 2.028 . S
O142 C144 1.248 . S
Mg143 O142 2.028 . S
Mg143 O148 2.032 . S
Mg143 O150 2.079 . S
C144 O141 1.250 . S
C144 O142 1.248 . S
C145 O146 1.264 . S
C145 O153 1.249 . S
O146 C145 1.264 . S
O147 Mg140 1.986 . S
O147 C151 1.246 . S
O148 Mg143 2.032 . S
O148 C151 1.259 . S
O149 Mg140 2.114 . S
O149 C152 1.252 . S
O150 Mg140 2.251 . S
O150 Mg143 2.079 . S
O150 C152 1.273 . S
C151 O147 1.246 . S
C151 O148 1.259 . S
C152 O149 1.252 . S
C152 O150 1.273 . S
O153 Mg140 2.010 . S
O153 C145 1.249 . S
Mg154 O155 2.028 . S
Mg154 O161 1.986 . S
Mg154 O163 2.114 . S
Mg154 O164 2.251 . S
Mg154 O167 2.010 . S
O155 Mg154 2.028 . S
O155 C158 1.250 . S
O156 Mg157 2.028 . S
O156 C158 1.248 . S
Mg157 O156 2.028 . S
Mg157 O162 2.032 . S
Mg157 O164 2.079 . S
C158 O155 1.250 . S
C158 O156 1.248 . S
C159 O160 1.264 . S
C159 O167 1.249 . S
O160 C159 1.264 . S
O161 Mg154 1.986 . S
O161 C165 1.246 . S
O162 Mg157 2.032 . S
O162 C165 1.259 . S
O163 Mg154 2.114 . S
O163 C166 1.252 . S
O164 Mg154 2.251 . S
O164 Mg157 2.079 . S
O164 C166 1.273 . S
C165 O161 1.246 . S
C165 O162 1.259 . S
C166 O163 1.252 . S
C166 O164 1.273 . S
O167 Mg154 2.010 . S
O167 C159 1.249 . S
C168 C169 1.387 . S
C168 H172 0.950 . S
C168 C177 1.390 . S
C169 C168 1.387 . S
C169 C171 1.387 . S
H170 C177 0.950 . S
C171 C169 1.387 . S
C171 C173 1.390 . S
C171 H175 0.950 . S
H172 C168 0.950 . S
C173 C171 1.390 . S
C173 C174 1.387 . S
C173 H176 0.950 . S
C174 C173 1.387 . S
C174 C177 1.387 . S
H175 C171 0.950 . S
H176 C173 0.950 . S
C177 C168 1.390 . S
C177 H170 0.950 . S
C177 C174 1.387 . S
C178 C179 1.387 . S
C178 H182 0.950 . S
C178 C187 1.390 . S
C179 C178 1.387 . S
C179 C181 1.387 . S
H180 C187 0.950 . S
C181 C179 1.387 . S
C181 C183 1.390 . S
C181 H185 0.950 . S
H182 C178 0.950 . S
C183 C181 1.390 . S
C183 C184 1.387 . S
C183 H186 0.950 . S
C184 C183 1.387 . S
C184 C187 1.387 . S
H185 C181 0.950 . S
H186 C183 0.950 . S
C187 C178 1.390 . S
C187 H180 0.950 . S
C187 C184 1.387 . S
C188 C189 1.387 . S
C188 H192 0.950 . S
C188 C197 1.390 . S
C189 C188 1.387 . S
C189 C191 1.387 . S
H190 C197 0.950 . S
C191 C189 1.387 . S
C191 C193 1.390 . S
C191 H195 0.950 . S
H192 C188 0.950 . S
C193 C191 1.390 . S
C193 C194 1.387 . S
C193 H196 0.950 . S
C194 C193 1.387 . S
C194 C197 1.387 . S
H195 C191 0.950 . S
H196 C193 0.950 . S
C197 C188 1.390 . S
C197 H190 0.950 . S
C197 C194 1.387 . S
C198 C199 1.387 . S
C198 H202 0.950 . S
C198 C207 1.390 . S
C199 C198 1.387 . S
C199 C201 1.387 . S
H200 C207 0.950 . S
C201 C199 1.387 . S
C201 C203 1.390 . S
C201 H205 0.950 . S
H202 C198 0.950 . S
C203 C201 1.390 . S
C203 C204 1.387 . S
C203 H206 0.950 . S
C204 C203 1.387 . S
C204 C207 1.387 . S
H205 C201 0.950 . S
H206 C203 0.950 . S
C207 C198 1.390 . S
C207 H200 0.950 . S
C207 C204 1.387 . S
C208 C209 1.387 . S
C208 H212 0.950 . S
C208 C217 1.390 . S
C209 C208 1.387 . S
C209 C211 1.387 1_556 S
H210 C217 0.950 . S
C211 C209 1.387 1_554 S
C211 C213 1.390 . S
C211 H215 0.950 . S
H212 C208 0.950 . S
C213 C211 1.390 . S
C213 C214 1.387 . S
C213 H216 0.950 . S
C214 C213 1.387 . S
C214 C217 1.387 1_554 S
H215 C211 0.950 . S
H216 C213 0.950 . S
C217 C208 1.390 . S
C217 H210 0.950 . S
C217 C214 1.387 1_556 S
C218 C219 1.387 . S
C218 H222 0.950 . S
C218 C227 1.390 . S
C219 C218 1.387 . S
C219 C221 1.387 . S
H220 C227 0.950 . S
C221 C219 1.387 . S
C221 C223 1.390 . S
C221 H225 0.950 . S
H222 C218 0.950 . S
C223 C221 1.390 . S
C223 C224 1.387 . S
C223 H226 0.950 . S
C224 C223 1.387 . S
C224 C227 1.387 . S
H225 C221 0.950 . S
H226 C223 0.950 . S
C227 C218 1.390 . S
C227 H220 0.950 . S
C227 C224 1.387 . S
C228 C229 1.387 . S
C228 H232 0.950 . S
C228 C237 1.390 . S
C229 C228 1.387 . S
C229 C231 1.387 . S
H230 C237 0.950 . S
C231 C229 1.387 . S
C231 C233 1.390 . S
C231 H235 0.950 1_554 S
H232 C228 0.950 . S
C233 C231 1.390 . S
C233 C234 1.387 . S
C233 H236 0.950 . S
C234 C233 1.387 . S
C234 C237 1.387 . S
H235 C231 0.950 1_556 S
H236 C233 0.950 . S
C237 C228 1.390 . S
C237 H230 0.950 . S
C237 C234 1.387 . S
C238 C239 1.387 . S
C238 H242 0.950 . S
C238 C247 1.390 . S
C239 C238 1.387 . S
C239 C241 1.387 . S
H240 C247 0.950 . S
C241 C239 1.387 . S
C241 C243 1.390 . S
C241 H245 0.950 . S
H242 C238 0.950 . S
C243 C241 1.390 . S
C243 C244 1.387 . S
C243 H246 0.950 . S
C244 C243 1.387 . S
C244 C247 1.387 . S
H245 C241 0.950 . S
H246 C243 0.950 . S
C247 C238 1.390 . S
C247 H240 0.950 . S
C247 C244 1.387 . S
C248 C249 1.387 . S
C248 H252 0.950 . S
C248 C257 1.390 . S
C249 C248 1.387 . S
C249 C251 1.387 . S
H250 C257 0.950 . S
C251 C249 1.387 . S
C251 C253 1.390 . S
C251 H255 0.950 . S
H252 C248 0.950 . S
C253 C251 1.390 . S
C253 C254 1.387 . S
C253 H256 0.950 . S
C254 C253 1.387 . S
C254 C257 1.387 . S
H255 C251 0.950 . S
H256 C253 0.950 . S
C257 C248 1.390 . S
C257 H250 0.950 . S
C257 C254 1.387 . S
C258 C259 1.387 . S
C258 H262 0.950 . S
C258 C267 1.390 . S
C259 C258 1.387 . S
C259 C261 1.387 . S
H260 C267 0.950 . S
C261 C259 1.387 . S
C261 C263 1.390 . S
C261 H265 0.950 . S
H262 C258 0.950 . S
C263 C261 1.390 . S
C263 C264 1.387 . S
C263 H266 0.950 . S
C264 C263 1.387 . S
C264 C267 1.387 . S
H265 C261 0.950 . S
H266 C263 0.950 . S
C267 C258 1.390 . S
C267 H260 0.950 . S
C267 C264 1.387 . S
C268 C269 1.387 . S
C268 H272 0.950 . S
C268 C277 1.390 . S
C269 C268 1.387 . S
C269 C271 1.387 . S
H270 C277 0.950 . S
C271 C269 1.387 . S
C271 C273 1.390 . S
C271 H275 0.950 . S
H272 C268 0.950 . S
C273 C271 1.390 . S
C273 C274 1.387 . S
C273 H276 0.950 . S
C274 C273 1.387 . S
C274 C277 1.387 . S
H275 C271 0.950 . S
H276 C273 0.950 . S
C277 C268 1.390 . S
C277 H270 0.950 . S
C277 C274 1.387 . S
C278 C279 1.387 . S
C278 H282 0.950 . S
C278 C287 1.390 1_556 S
C279 C278 1.387 . S
C279 C281 1.387 . S
H280 C287 0.950 . S
C281 C279 1.387 . S
C281 C283 1.390 . S
C281 H285 0.950 . S
H282 C278 0.950 . S
C283 C281 1.390 . S
C283 C284 1.387 . S
C283 H286 0.950 . S
C284 C283 1.387 . S
C284 C287 1.387 1_556 S
H285 C281 0.950 . S
H286 C283 0.950 . S
C287 C278 1.390 1_554 S
C287 H280 0.950 . S
C287 C284 1.387 1_554 S
C288 C289 1.387 . S
C288 H292 0.950 . S
C288 C297 1.390 . S
C289 C288 1.387 . S
C289 C291 1.387 . S
H290 C297 0.950 . S
C291 C289 1.387 . S
C291 C293 1.390 . S
C291 H295 0.950 . S
H292 C288 0.950 . S
C293 C291 1.390 . S
C293 C294 1.387 . S
C293 H296 0.950 . S
C294 C293 1.387 . S
C294 C297 1.387 . S
H295 C291 0.950 . S
H296 C293 0.950 . S
C297 C288 1.390 . S
C297 H290 0.950 . S
C297 C294 1.387 . S
C298 C299 1.387 . S
C298 H302 0.950 . S
C298 C307 1.390 . S
C299 C298 1.387 . S
C299 C301 1.387 1_554 S
H300 C307 0.950 . S
C301 C299 1.387 1_556 S
C301 C303 1.390 . S
C301 H305 0.950 . S
H302 C298 0.950 . S
C303 C301 1.390 . S
C303 C304 1.387 . S
C303 H306 0.950 . S
C304 C303 1.387 . S
C304 C307 1.387 1_556 S
H305 C301 0.950 . S
H306 C303 0.950 . S
C307 C298 1.390 . S
C307 H300 0.950 . S
C307 C304 1.387 1_554 S
C308 C309 1.387 . S
C308 H312 0.950 . S
C308 C317 1.390 . S
C309 C308 1.387 . S
C309 C311 1.387 . S
H310 C317 0.950 1_556 S
C311 C309 1.387 . S
C311 C313 1.390 . S
C311 H315 0.950 . S
H312 C308 0.950 . S
C313 C311 1.390 . S
C313 C314 1.387 . S
C313 H316 0.950 . S
C314 C313 1.387 . S
C314 C317 1.387 . S
H315 C311 0.950 . S
H316 C313 0.950 . S
C317 C308 1.390 . S
C317 H310 0.950 1_554 S
C317 C314 1.387 . S
C318 C319 1.387 . S
C318 H322 0.950 . S
C318 C327 1.390 . S
C319 C318 1.387 . S
C319 C321 1.387 . S
H320 C327 0.950 . S
C321 C319 1.387 . S
C321 C323 1.390 . S
C321 H325 0.950 . S
H322 C318 0.950 . S
C323 C321 1.390 . S
C323 C324 1.387 . S
C323 H326 0.950 . S
C324 C323 1.387 . S
C324 C327 1.387 . S
H325 C321 0.950 . S
H326 C323 0.950 . S
C327 C318 1.390 . S
C327 H320 0.950 . S
C327 C324 1.387 . S
C328 C329 1.387 . S
C328 H332 0.950 . S
C328 C337 1.390 . S
C329 C328 1.387 . S
C329 C331 1.387 . S
H330 C337 0.950 . S
C331 C329 1.387 . S
C331 C333 1.390 . S
C331 H335 0.950 . S
H332 C328 0.950 . S
C333 C331 1.390 . S
C333 C334 1.387 . S
C333 H336 0.950 . S
C334 C333 1.387 . S
C334 C337 1.387 . S
H335 C331 0.950 . S
H336 C333 0.950 . S
C337 C328 1.390 . S
C337 H330 0.950 . S
C337 C334 1.387 . S
C338 C339 1.387 . S
C338 H342 0.950 . S
C338 C347 1.390 . S
C339 C338 1.387 . S
C339 C341 1.387 . S
H340 C347 0.950 . S
C341 C339 1.387 . S
C341 C343 1.390 . S
C341 H345 0.950 . S
H342 C338 0.950 . S
C343 C341 1.390 . S
C343 C344 1.387 . S
C343 H346 0.950 . S
C344 C343 1.387 . S
C344 C347 1.387 . S
H345 C341 0.950 . S
H346 C343 0.950 . S
C347 C338 1.390 . S
C347 H340 0.950 . S
C347 C344 1.387 . S
C348 C349 1.387 . S
C348 H352 0.950 . S
C348 C357 1.390 . S
C349 C348 1.387 . S
C349 C351 1.387 . S
H350 C357 0.950 . S
C351 C349 1.387 . S
C351 C353 1.390 1_455 S
C351 H355 0.950 1_556 S
H352 C348 0.950 . S
C353 C351 1.390 1_655 S
C353 C354 1.387 . S
C353 H356 0.950 . S
C354 C353 1.387 . S
C354 C357 1.387 1_655 S
H355 C351 0.950 1_554 S
H356 C353 0.950 . S
C357 C348 1.390 . S
C357 H350 0.950 . S
C357 C354 1.387 1_455 S
C358 C359 1.387 1_554 S
C358 H362 0.950 1_554 S
C358 C367 1.390 1_565 S
C359 C358 1.387 1_556 S
C359 C361 1.387 1_556 S
H360 C367 0.950 . S
C361 C359 1.387 1_554 S
C361 C363 1.390 1_565 S
C361 H365 0.950 1_554 S
H362 C358 0.950 1_556 S
C363 C361 1.390 1_545 S
C363 C364 1.387 . S
C363 H366 0.950 . S
C364 C363 1.387 . S
C364 C367 1.387 . S
H365 C361 0.950 1_556 S
H366 C363 0.950 . S
C367 C358 1.390 1_545 S
C367 H360 0.950 . S
C367 C364 1.387 . S
C368 C369 1.387 . S
C368 H372 0.950 . S
C368 C377 1.390 . S
C369 C368 1.387 . S
C369 C371 1.387 . S
H370 C377 0.950 . S
C371 C369 1.387 . S
C371 C373 1.390 . S
C371 H375 0.950 . S
H372 C368 0.950 . S
C373 C371 1.390 . S
C373 C374 1.387 . S
C373 H376 0.950 . S
C374 C373 1.387 . S
C374 C377 1.387 . S
H375 C371 0.950 . S
H376 C373 0.950 . S
C377 C368 1.390 . S
C377 H370 0.950 . S
C377 C374 1.387 . S
C378 C379 1.387 . S
C378 H382 0.950 . S
C378 C387 1.390 1_455 S
C379 C378 1.387 . S
C379 C381 1.387 . S
H380 C387 0.950 . S
C381 C379 1.387 . S
C381 C383 1.390 1_455 S
C381 H385 0.950 . S
H382 C378 0.950 . S
C383 C381 1.390 1_655 S
C383 C384 1.387 . S
C383 H386 0.950 . S
C384 C383 1.387 . S
C384 C387 1.387 . S
H385 C381 0.950 . S
H386 C383 0.950 . S
C387 C378 1.390 1_655 S
C387 H380 0.950 . S
C387 C384 1.387 . S
C388 C389 1.387 . S
C388 H392 0.950 . S
C388 C397 1.390 1_545 S
C389 C388 1.387 . S
C389 C391 1.387 . S
H390 C397 0.950 . S
C391 C389 1.387 . S
C391 C393 1.390 1_545 S
C391 H395 0.950 . S
H392 C388 0.950 . S
C393 C391 1.390 1_565 S
C393 C394 1.387 . S
C393 H396 0.950 . S
C394 C393 1.387 . S
C394 C397 1.387 . S
H395 C391 0.950 . S
H396 C393 0.950 . S
C397 C388 1.390 1_565 S
C397 H390 0.950 . S
C397 C394 1.387 . S
C398 C399 1.387 . S
C398 H402 0.950 . S
C398 C407 1.390 . S
C399 C398 1.387 . S
C399 C401 1.387 . S
H400 C407 0.950 . S
C401 C399 1.387 . S
C401 C403 1.390 . S
C401 H405 0.950 . S
H402 C398 0.950 . S
C403 C401 1.390 . S
C403 C404 1.387 . S
C403 H406 0.950 . S
C404 C403 1.387 . S
C404 C407 1.387 . S
H405 C401 0.950 . S
H406 C403 0.950 . S
C407 C398 1.390 . S
C407 H400 0.950 . S
C407 C404 1.387 . S
C169 C12 1.347 . S
C174 C152 1.347 . S
C179 C166 1.319 . S
C184 C19 1.220 . S
C189 C40 1.318 . S
C194 C89 1.224 . S
C199 C54 1.347 . S
C204 C110 1.347 . S
C209 C61 1.224 . S
C214 C124 1.317 . S
C219 C131 1.225 . S
C224 C82 1.317 1_554 S
C229 C4 1.562 . S
C234 C116 1.544 . S
C239 C25 1.523 . S
C244 C137 1.523 . S
C249 C144 1.561 . S
C254 C32 1.546 . S
C259 C46 1.562 . S
C264 C158 1.544 . S
C269 C67 1.523 . S
C274 C95 1.523 . S
C279 C74 1.545 . S
C284 C102 1.560 1_556 S
C289 C151 1.059 . S
C294 C11 1.059 . S
C299 C18 1.101 . S
C304 C165 1.110 . S
C309 C39 1.110 . S
C314 C88 1.102 1_554 S
C319 C53 1.059 . S
C324 C109 1.059 . S
C329 C123 1.109 . S
C334 C60 1.103 . S
C339 C81 1.110 . S
C344 C130 1.102 . S
C349 C5 1.358 . S
C354 C159 1.384 . S
C359 C96 1.535 . S
C364 C26 1.535 . S
C369 C103 1.353 . S
C374 C33 1.386 . S
C379 C117 1.387 . S
C384 C47 1.356 . S
C389 C138 1.532 . S
C394 C68 1.532 . S
C399 C145 1.355 . S
C404 C75 1.388 . S
