# Generated by pormake.
# Topology uol, (4)-cn, num edge types: 1
# Building blocks:
#     Node 0, Type 0, BuildingBlock: QUQFOY_clean_sbu_1, # of connection points: 4
#     Node 1, Type 0, BuildingBlock: QUQFOY_clean_sbu_1, # of connection points: 4
#     Node 2, Type 0, BuildingBlock: QUQFOY_clean_sbu_1, # of connection points: 4
#     Node 3, Type 0, BuildingBlock: QUQFOY_clean_sbu_1, # of connection points: 4
#     Node 4, Type 0, BuildingBlock: QUQFOY_clean_sbu_1, # of connection points: 4
#     Node 5, Type 0, BuildingBlock: QUQFOY_clean_sbu_1, # of connection points: 4
#     Node 6, Type 0, BuildingBlock: QUQFOY_clean_sbu_1, # of connection points: 4
#     Node 7, Type 0, BuildingBlock: QUQFOY_clean_sbu_1, # of connection points: 4
#     Node 8, Type 0, BuildingBlock: QUQFOY_clean_sbu_1, # of connection points: 4
#     Node 9, Type 0, BuildingBlock: QUQFOY_clean_sbu_1, # of connection points: 4
#     Node 10, Type 0, BuildingBlock: QUQFOY_clean_sbu_1, # of connection points: 4
#     Node 11, Type 0, BuildingBlock: QUQFOY_clean_sbu_1, # of connection points: 4
#     Edge 12, Type (0, 0), BuildingBlock: KIFKEQ_clean_linker_1, # of connection points: 2
#     Edge 13, Type (0, 0), BuildingBlock: KIFKEQ_clean_linker_1, # of connection points: 2
#     Edge 14, Type (0, 0), BuildingBlock: KIFKEQ_clean_linker_1, # of connection points: 2
#     Edge 15, Type (0, 0), BuildingBlock: KIFKEQ_clean_linker_1, # of connection points: 2
#     Edge 16, Type (0, 0), BuildingBlock: KIFKEQ_clean_linker_1, # of connection points: 2
#     Edge 17, Type (0, 0), BuildingBlock: KIFKEQ_clean_linker_1, # of connection points: 2
#     Edge 18, Type (0, 0), BuildingBlock: KIFKEQ_clean_linker_1, # of connection points: 2
#     Edge 19, Type (0, 0), BuildingBlock: KIFKEQ_clean_linker_1, # of connection points: 2
#     Edge 20, Type (0, 0), BuildingBlock: KIFKEQ_clean_linker_1, # of connection points: 2
#     Edge 21, Type (0, 0), BuildingBlock: KIFKEQ_clean_linker_1, # of connection points: 2
#     Edge 22, Type (0, 0), BuildingBlock: KIFKEQ_clean_linker_1, # of connection points: 2
#     Edge 23, Type (0, 0), BuildingBlock: KIFKEQ_clean_linker_1, # of connection points: 2
#     Edge 24, Type (0, 0), BuildingBlock: KIFKEQ_clean_linker_1, # of connection points: 2
#     Edge 25, Type (0, 0), BuildingBlock: KIFKEQ_clean_linker_1, # of connection points: 2
#     Edge 26, Type (0, 0), BuildingBlock: KIFKEQ_clean_linker_1, # of connection points: 2
#     Edge 27, Type (0, 0), BuildingBlock: KIFKEQ_clean_linker_1, # of connection points: 2
#     Edge 28, Type (0, 0), BuildingBlock: KIFKEQ_clean_linker_1, # of connection points: 2
#     Edge 29, Type (0, 0), BuildingBlock: KIFKEQ_clean_linker_1, # of connection points: 2
#     Edge 30, Type (0, 0), BuildingBlock: KIFKEQ_clean_linker_1, # of connection points: 2
#     Edge 31, Type (0, 0), BuildingBlock: KIFKEQ_clean_linker_1, # of connection points: 2
#     Edge 32, Type (0, 0), BuildingBlock: KIFKEQ_clean_linker_1, # of connection points: 2
#     Edge 33, Type (0, 0), BuildingBlock: KIFKEQ_clean_linker_1, # of connection points: 2
#     Edge 34, Type (0, 0), BuildingBlock: KIFKEQ_clean_linker_1, # of connection points: 2
#     Edge 35, Type (0, 0), BuildingBlock: KIFKEQ_clean_linker_1, # of connection points: 2
# Relax obj value: 0.041
# Max RMSD: 0.148
# Mean RMSD: 0.148
data_MOF--net-uol--node1-QUQFOY_clean_sbu_1--edge1-KIFKEQ_clean_linker_1
_symmetry_space_group_name_H-M    P1
_symmetry_Int_Tables_number       1
_symmetry_cell_setting            triclinic
loop_
_symmetry_equiv_pos_as_xyz
'x, y, z'
_cell_length_a     33.485548
_cell_length_b     33.457743
_cell_length_c     72.58789
_cell_angle_alpha  89.992273
_cell_angle_beta   89.952617
_cell_angle_gamma 120.03582
loop_
_atom_site_label
_atom_site_type_symbol
_atom_site_fract_x
_atom_site_fract_y
_atom_site_fract_z
_atom_type_partial_charge
O0 O 0.20641 0.35082 0.08978 0.0
Cd1 Cd 0.20095 0.37408 0.11574 0.0
Cd2 Cd 0.13133 0.28561 0.11791 0.0
O3 O 0.14101 0.28417 0.08971 0.0
O4 O 0.23483 0.44308 0.11467 0.0
O5 O 0.15921 0.40124 0.11827 0.0
C6 C 0.19568 0.44139 0.11645 0.0
C7 C 0.06121 0.25746 0.13363 0.0
C8 C 0.17733 0.3142 0.08142 0.0
C9 C 0.21366 0.3138 0.14235 0.0
O10 O 0.17888 0.28138 0.13431 0.0
O11 O 0.22692 0.3556 0.13828 0.0
O12 O 0.07275 0.22989 0.12599 0.0
O13 O 0.08742 0.30125 0.13077 0.0
O14 O 0.86323 0.1991 0.25726 0.0
Cd15 Cd 0.83279 0.1949 0.28252 0.0
Cd16 Cd 0.84294 0.11961 0.28522 0.0
O17 O 0.85634 0.12994 0.25695 0.0
O18 O 0.79912 0.2298 0.27997 0.0
O19 O 0.76383 0.15458 0.28516 0.0
C20 C 0.76111 0.19125 0.28221 0.0
C21 C 0.79738 0.04877 0.30012 0.0
C22 C 0.86746 0.168 0.2489 0.0
C23 C 0.89962 0.20121 0.31045 0.0
O24 O 0.89363 0.16421 0.30303 0.0
O25 O 0.87614 0.21942 0.30518 0.0
O26 O 0.83602 0.05867 0.29245 0.0
O27 O 0.78226 0.07716 0.29766 0.0
O28 O 0.66837 0.84602 0.42261 0.0
Cd29 Cd 0.64466 0.81874 0.44867 0.0
Cd30 Cd 0.73305 0.83743 0.45121 0.0
O31 O 0.73518 0.84787 0.42291 0.0
O32 O 0.57594 0.78518 0.44664 0.0
O33 O 0.61539 0.74982 0.45238 0.0
C34 C 0.57607 0.74717 0.44943 0.0
C35 C 0.75809 0.79341 0.46738 0.0
C36 C 0.70511 0.85354 0.41439 0.0
C37 C 0.70489 0.89252 0.47511 0.0
O38 O 0.73746 0.88973 0.4674 0.0
O39 O 0.66319 0.86431 0.47081 0.0
O40 O 0.78703 0.83157 0.45939 0.0
O41 O 0.7146 0.778 0.46468 0.0
O42 O 0.82724 0.65717 0.58909 0.0
Cd43 Cd 0.82908 0.63104 0.61474 0.0
Cd44 Cd 0.90325 0.71906 0.61846 0.0
O45 O 0.89218 0.7241 0.59047 0.0
O46 O 0.7939 0.56244 0.61198 0.0
O47 O 0.8685 0.60158 0.61824 0.0
C48 C 0.83189 0.56242 0.61488 0.0
C49 C 0.97469 0.74575 0.63293 0.0
C50 C 0.85664 0.69495 0.58155 0.0
C51 C 0.82008 0.68971 0.64333 0.0
O52 O 0.85788 0.72163 0.6368 0.0
O53 O 0.80206 0.64883 0.63704 0.0
O54 O 0.9632 0.774 0.62594 0.0
O55 O 0.94756 0.70214 0.63003 0.0
O56 O 0.17623 0.8183 0.75515 0.0
Cd57 Cd 0.20238 0.82094 0.78132 0.0
Cd58 Cd 0.186 0.89206 0.78381 0.0
O59 O 0.17594 0.8841 0.75549 0.0
O60 O 0.2345 0.78436 0.77941 0.0
O61 O 0.27125 0.85922 0.78526 0.0
C62 C 0.27292 0.822 0.7823 0.0
C63 C 0.23197 0.96075 0.79996 0.0
C64 C 0.16973 0.84818 0.74693 0.0
C65 C 0.12855 0.80894 0.8075 0.0
O66 O 0.13266 0.84501 0.7999 0.0
O67 O 0.15598 0.79445 0.80323 0.0
O68 O 0.19439 0.95303 0.79193 0.0
O69 O 0.24567 0.93125 0.79737 0.0
O70 O 0.36476 0.16207 0.92288 0.0
Cd71 Cd 0.38717 0.19013 0.94894 0.0
Cd72 Cd 0.30037 0.17393 0.95074 0.0
O73 O 0.29987 0.16407 0.92245 0.0
O74 O 0.4562 0.22461 0.94841 0.0
O75 O 0.41491 0.25911 0.9515 0.0
C76 C 0.45489 0.26234 0.95 0.0
C77 C 0.27741 0.21987 0.96672 0.0
C78 C 0.32908 0.15633 0.91431 0.0
C79 C 0.32423 0.11683 0.9751 0.0
O80 O 0.29259 0.1201 0.96682 0.0
O81 O 0.36636 0.14498 0.97135 0.0
O82 O 0.24772 0.18262 0.95841 0.0
O83 O 0.32065 0.23339 0.96443 0.0
O84 O 0.66678 0.81176 0.79958 0.0
Cd85 Cd 0.64111 0.81404 0.77391 0.0
Cd86 Cd 0.72867 0.88857 0.77044 0.0
O87 O 0.73327 0.87722 0.79844 0.0
O88 O 0.57254 0.77914 0.77652 0.0
O89 O 0.61219 0.85393 0.77046 0.0
C90 C 0.57287 0.81739 0.77372 0.0
C91 C 0.7551 0.96016 0.75606 0.0
C92 C 0.7042 0.84134 0.80725 0.0
C93 C 0.70037 0.80589 0.7454 0.0
O94 O 0.73198 0.84365 0.75207 0.0
O95 O 0.65936 0.78754 0.75158 0.0
O96 O 0.78341 0.94886 0.76311 0.0
O97 O 0.71152 0.93273 0.75887 0.0
O98 O 0.85781 0.6542 0.96544 0.0
Cd99 Cd 0.82942 0.63186 0.93941 0.0
Cd100 Cd 0.84714 0.7194 0.93767 0.0
O101 O 0.85687 0.7197 0.96594 0.0
O102 O 0.79471 0.56278 0.93998 0.0
O103 O 0.76049 0.60435 0.93699 0.0
C104 C 0.75709 0.56427 0.93847 0.0
C105 C 0.80215 0.74341 0.92166 0.0
C106 C 0.86407 0.69007 0.97405 0.0
C107 C 0.90278 0.69414 0.91312 0.0
O108 O 0.90043 0.72617 0.92153 0.0
O109 O 0.87408 0.65212 0.91684 0.0
O110 O 0.83962 0.77274 0.92993 0.0
O111 O 0.78788 0.69998 0.92403 0.0
O112 O 0.20425 0.84312 0.1321 0.0
Cd113 Cd 0.19836 0.81472 0.10608 0.0
Cd114 Cd 0.12782 0.83113 0.10429 0.0
O115 O 0.13762 0.84168 0.13254 0.0
O116 O 0.23298 0.78033 0.1066 0.0
O117 O 0.15717 0.74569 0.10362 0.0
C118 C 0.19396 0.74254 0.10507 0.0
C119 C 0.0587 0.78486 0.08852 0.0
C120 C 0.17454 0.8493 0.14065 0.0
C121 C 0.20865 0.88765 0.07972 0.0
O122 O 0.17373 0.88451 0.08797 0.0
O123 O 0.22268 0.85963 0.0836 0.0
O124 O 0.06639 0.82229 0.09671 0.0
O125 O 0.08843 0.77137 0.09081 0.0
O126 O 0.36271 0.18837 0.29987 0.0
Cd127 Cd 0.38659 0.18647 0.27367 0.0
Cd128 Cd 0.2988 0.11529 0.27093 0.0
O129 O 0.29642 0.12276 0.29929 0.0
O130 O 0.45525 0.2232 0.27576 0.0
O131 O 0.41749 0.14853 0.26954 0.0
C132 C 0.45626 0.18575 0.2727 0.0
C133 C 0.27531 0.04657 0.25464 0.0
C134 C 0.32615 0.1584 0.30798 0.0
C135 C 0.3252 0.19925 0.24758 0.0
O136 O 0.29311 0.16291 0.255 0.0
O137 O 0.36706 0.21365 0.25191 0.0
O138 O 0.24576 0.05472 0.26271 0.0
O139 O 0.31861 0.07566 0.25724 0.0
O140 O 0.17504 0.34793 0.46661 0.0
Cd141 Cd 0.20331 0.37459 0.44107 0.0
Cd142 Cd 0.18911 0.28617 0.43705 0.0
O143 O 0.17224 0.28064 0.465 0.0
O144 O 0.23627 0.44311 0.44407 0.0
O145 O 0.27227 0.40461 0.43761 0.0
C146 C 0.27448 0.44355 0.44112 0.0
C147 C 0.23365 0.25919 0.42257 0.0
C148 C 0.16611 0.30985 0.47402 0.0
C149 C 0.13615 0.31657 0.41221 0.0
O150 O 0.14196 0.28446 0.41854 0.0
O151 O 0.1587 0.35721 0.41875 0.0
O152 O 0.19368 0.23106 0.42944 0.0
O153 O 0.25047 0.30279 0.42565 0.0
O154 O 0.82801 0.1626 0.63387 0.0
Cd155 Cd 0.83064 0.18906 0.60771 0.0
Cd156 Cd 0.8999 0.1696 0.60491 0.0
O157 O 0.89279 0.16042 0.63327 0.0
O158 O 0.79505 0.22215 0.60992 0.0
O159 O 0.86965 0.25796 0.60369 0.0
C160 C 0.83287 0.26028 0.60686 0.0
C161 C 0.96845 0.21248 0.58824 0.0
C162 C 0.85742 0.15523 0.64197 0.0
C163 C 0.81556 0.11395 0.58169 0.0
O164 O 0.85099 0.11666 0.58928 0.0
O165 O 0.80274 0.14279 0.58582 0.0
O166 O 0.95915 0.17452 0.59642 0.0
O167 O 0.94075 0.22834 0.59098 0.0
H168 H 0.12025 0.65825 0.11417 0.0
H169 H 0.263 0.72446 0.09748 0.0
H170 H 0.11918 0.58518 0.11775 0.0
H171 H 0.26151 0.65133 0.09991 0.0
H172 H 0.2645 0.52908 0.12338 0.0
H173 H 0.26221 0.60027 0.12086 0.0
H174 H 0.1192 0.52234 0.10411 0.0
H175 H 0.12113 0.45079 0.10778 0.0
C176 C 0.15119 0.65696 0.11096 0.0
C177 C 0.19179 0.69718 0.10566 0.0
C178 C 0.15059 0.61495 0.11293 0.0
C179 C 0.19042 0.61196 0.10934 0.0
C180 C 0.23048 0.65214 0.10339 0.0
C181 C 0.23129 0.69419 0.10179 0.0
C182 C 0.23247 0.52716 0.11929 0.0
C183 C 0.19303 0.48431 0.11575 0.0
C184 C 0.23121 0.56815 0.11763 0.0
C185 C 0.1907 0.56763 0.11197 0.0
C186 C 0.15095 0.52447 0.1087 0.0
C187 C 0.15203 0.48331 0.11072 0.0
H188 H 0.74519 0.26004 0.27137 0.0
H189 H 0.67476 0.11818 0.28972 0.0
H190 H 0.67173 0.25742 0.26828 0.0
H191 H 0.60085 0.11595 0.28727 0.0
H192 H 0.47255 0.11509 0.26413 0.0
H193 H 0.54565 0.11549 0.26615 0.0
H194 H 0.61236 0.25602 0.28608 0.0
H195 H 0.54015 0.25606 0.28343 0.0
C196 C 0.71399 0.22834 0.27493 0.0
C197 C 0.71595 0.18938 0.28087 0.0
C198 C 0.67172 0.22689 0.27325 0.0
C199 C 0.6301 0.18656 0.27763 0.0
C200 C 0.63204 0.14746 0.28355 0.0
C201 C 0.67446 0.14882 0.2851 0.0
C202 C 0.50296 0.14611 0.26884 0.0
C203 C 0.50052 0.18563 0.2735 0.0
C204 C 0.54483 0.14625 0.27014 0.0
C205 C 0.58519 0.18584 0.27624 0.0
C206 C 0.58243 0.22518 0.28097 0.0
C207 C 0.5408 0.22514 0.27954 0.0
H208 H 0.49102 0.7315 0.43943 0.0
H209 H 0.56231 0.66077 0.45734 0.0
H210 H 0.41965 0.6582 0.43701 0.0
H211 H 0.49009 0.58698 0.45554 0.0
H212 H 0.36107 0.45894 0.43252 0.0
H213 H 0.4343 0.53164 0.43459 0.0
H214 H 0.36214 0.59927 0.45527 0.0
H215 H 0.28934 0.52745 0.45259 0.0
C216 C 0.49138 0.70028 0.44305 0.0
C217 C 0.53243 0.70211 0.44865 0.0
C218 C 0.45025 0.65809 0.44176 0.0
C219 C 0.44878 0.61642 0.44619 0.0
C220 C 0.48991 0.61822 0.4518 0.0
C221 C 0.53129 0.66058 0.45298 0.0
C222 C 0.36093 0.48944 0.43743 0.0
C223 C 0.31927 0.48741 0.44225 0.0
C224 C 0.40298 0.53109 0.43876 0.0
C225 C 0.40434 0.57161 0.44503 0.0
C226 C 0.36257 0.5692 0.45002 0.0
C227 C 0.32067 0.5278 0.44856 0.0
H228 H 0.763 0.47793 0.60389 0.0
H229 H 0.90385 0.54806 0.62321 0.0
H230 H 0.76468 0.40646 0.6013 0.0
H231 H 0.90512 0.47573 0.62122 0.0
H232 H 0.76328 0.2753 0.61725 0.0
H233 H 0.7645 0.34826 0.61962 0.0
H234 H 0.90554 0.42028 0.60027 0.0
H235 H 0.90472 0.34686 0.5985 0.0
C236 C 0.79427 0.47802 0.60777 0.0
C237 C 0.83323 0.51876 0.61385 0.0
C238 C 0.79518 0.43683 0.60637 0.0
C239 C 0.83494 0.43498 0.61116 0.0
C240 C 0.87405 0.47584 0.6172 0.0
C241 C 0.87324 0.51728 0.61848 0.0
C242 C 0.79458 0.30663 0.61344 0.0
C243 C 0.83385 0.30513 0.60761 0.0
C244 C 0.79522 0.34861 0.61471 0.0
C245 C 0.83503 0.3904 0.61003 0.0
C246 C 0.87442 0.38894 0.60419 0.0
C247 C 0.87386 0.34679 0.60304 0.0
H248 H 0.48826 0.74891 0.78482 0.0
H249 H 0.55925 0.88986 0.76539 0.0
H250 H 0.41727 0.75136 0.78759 0.0
H251 H 0.48741 0.8919 0.76754 0.0
H252 H 0.35984 0.89323 0.79046 0.0
H253 H 0.43269 0.89308 0.78857 0.0
H254 H 0.35913 0.75175 0.76955 0.0
H255 H 0.28673 0.75149 0.77206 0.0
C256 C 0.48863 0.78036 0.78095 0.0
C257 C 0.52947 0.81912 0.7748 0.0
C258 C 0.44772 0.7817 0.78246 0.0
C259 C 0.44627 0.82173 0.77769 0.0
C260 C 0.48723 0.86063 0.77155 0.0
C261 C 0.52838 0.85938 0.77018 0.0
C262 C 0.35931 0.86209 0.78598 0.0
C263 C 0.31739 0.82229 0.78154 0.0
C264 C 0.40113 0.86209 0.78475 0.0
C265 C 0.40201 0.82235 0.77895 0.0
C266 C 0.35995 0.78273 0.77442 0.0
C267 C 0.31828 0.78264 0.77578 0.0
H268 H 0.46513 0.34661 0.94116 0.0
H269 H 0.54223 0.2806 0.95722 0.0
H270 H 0.53696 0.41981 0.93751 0.0
H271 H 0.61374 0.35387 0.95471 0.0
H272 H 0.7385 0.47677 0.93118 0.0
H273 H 0.66518 0.40535 0.93373 0.0
H274 H 0.59982 0.48254 0.95117 0.0
H275 H 0.67308 0.5543 0.94748 0.0
C276 C 0.49744 0.34796 0.94422 0.0
C277 C 0.49803 0.30777 0.94937 0.0
C278 C 0.53877 0.39005 0.9422 0.0
C279 C 0.58169 0.39315 0.9456 0.0
C280 C 0.5818 0.35298 0.95139 0.0
C281 C 0.54063 0.31086 0.95304 0.0
C282 C 0.70836 0.47848 0.93542 0.0
C283 C 0.71162 0.52119 0.93915 0.0
C284 C 0.66621 0.43736 0.93709 0.0
C285 C 0.62619 0.4376 0.94296 0.0
C286 C 0.62946 0.48062 0.94642 0.0
C287 C 0.67158 0.52191 0.94438 0.0
H288 H 0.38304 0.27316 0.22547 0.0
H289 H 0.23902 0.17842 0.23703 0.0
H290 H 0.36051 0.30556 0.19977 0.0
H291 H 0.21711 0.21062 0.21171 0.0
H292 H 0.19565 0.22787 0.15194 0.0
H293 H 0.22662 0.20557 0.17754 0.0
H294 H 0.31462 0.34876 0.19209 0.0
H295 H 0.2834 0.37171 0.16609 0.0
C296 C 0.34673 0.25962 0.2227 0.0
C297 C 0.31288 0.22276 0.23318 0.0
C298 C 0.3339 0.27826 0.20804 0.0
C299 C 0.2871 0.26008 0.20359 0.0
C300 C 0.25347 0.22472 0.21459 0.0
C301 C 0.26614 0.20636 0.22917 0.0
C302 C 0.22178 0.2549 0.16045 0.0
C303 C 0.23657 0.30166 0.15705 0.0
C304 C 0.23942 0.24198 0.17519 0.0
C305 C 0.27246 0.27536 0.18699 0.0
C306 C 0.28908 0.32233 0.1832 0.0
C307 C 0.27115 0.3354 0.16837 0.0
H308 H 0.92764 0.15609 0.33319 0.0
H309 H 0.9468 0.29153 0.32246 0.0
H310 H 0.98416 0.18734 0.35762 0.0
H311 H 1.00591 0.32386 0.34663 0.0
H312 H 0.08133 0.35391 0.40372 0.0
H313 H 0.02319 0.32861 0.37916 0.0
H314 H 0.06398 0.23158 0.36037 0.0
H315 H 0.11942 0.25494 0.38519 0.0
C316 C 0.9444 0.1928 0.33595 0.0
C317 C 0.9332 0.22144 0.32572 0.0
C318 C 0.97717 0.21089 0.34992 0.0
C319 C 1.00063 0.25843 0.35388 0.0
C320 C 0.98855 0.28709 0.34399 0.0
C321 C 0.95488 0.26867 0.3301 0.0
C322 C 0.07772 0.32731 0.39423 0.0
C323 C 0.10418 0.30575 0.39654 0.0
C324 C 0.0446 0.31291 0.38014 0.0
C325 C 0.03803 0.27723 0.36799 0.0
C326 C 0.06666 0.25786 0.36982 0.0
C327 C 0.09879 0.2715 0.384 0.0
H328 H 0.83094 0.04411 0.57245 0.0
H329 H 0.74617 0.10329 0.55808 0.0
H330 H 0.79952 0.99128 0.54667 0.0
H331 H 0.71448 0.04957 0.53195 0.0
H332 H 0.64605 0.90656 0.49743 0.0
H333 H 0.66755 0.95957 0.52379 0.0
H334 H 0.81142 0.00949 0.51239 0.0
H335 H 0.79057 0.95744 0.48639 0.0
C336 C 0.80529 0.04569 0.56389 0.0
C337 C 0.79161 0.07851 0.56721 0.0
C338 C 0.78737 0.01538 0.54907 0.0
C339 C 0.75517 0.01687 0.53715 0.0
C340 C 0.73935 0.04782 0.54094 0.0
C341 C 0.75756 0.07855 0.55585 0.0
C342 C 0.68224 0.92925 0.50046 0.0
C343 C 0.71653 0.92728 0.48991 0.0
C344 C 0.69447 0.9596 0.5155 0.0
C345 C 0.7411 0.98803 0.52027 0.0
C346 C 0.77518 0.98733 0.50924 0.0
C347 C 0.76311 0.9575 0.49427 0.0
H348 H 0.86461 0.75646 0.66871 0.0
H349 H 0.72827 0.64851 0.65331 0.0
H350 H 0.83225 0.78001 0.69335 0.0
H351 H 0.69501 0.67374 0.67778 0.0
H352 H 0.66018 0.71423 0.73525 0.0
H353 H 0.68628 0.68183 0.71076 0.0
H354 H 0.7916 0.81989 0.69546 0.0
H355 H 0.76719 0.8514 0.72013 0.0
C356 C 0.8275 0.73794 0.67052 0.0
C357 C 0.79893 0.7011 0.65888 0.0
C358 C 0.80882 0.75166 0.68462 0.0
C359 C 0.76083 0.72964 0.6873 0.0
C360 C 0.73211 0.69152 0.6761 0.0
C361 C 0.75107 0.67717 0.66206 0.0
C362 C 0.68881 0.73739 0.72656 0.0
C363 C 0.71224 0.78523 0.72982 0.0
C364 C 0.70366 0.71893 0.7125 0.0
C365 C 0.74178 0.74814 0.70137 0.0
C366 C 0.76327 0.7961 0.70413 0.0
C367 C 0.74907 0.81429 0.71825 0.0
H368 H 0.91572 0.6369 0.88944 0.0
H369 H 0.96946 0.78057 0.90329 0.0
H370 H 0.96987 0.66035 0.86342 0.0
H371 H 0.02284 0.80341 0.87765 0.0
H372 H 0.06361 0.83032 0.81817 0.0
H373 H 1.00968 0.79855 0.8436 0.0
H374 H 0.05797 0.70354 0.85562 0.0
H375 H 0.11263 0.73546 0.82981 0.0
C376 C 0.93927 0.67332 0.88708 0.0
C377 C 0.93781 0.70683 0.89835 0.0
C378 C 0.97028 0.68667 0.87223 0.0
C379 C 1.00004 0.73371 0.86836 0.0
C380 C 0.9997 0.76692 0.88006 0.0
C381 C 0.9691 0.75372 0.89484 0.0
C382 C 0.06279 0.80247 0.82608 0.0
C383 C 0.09296 0.78586 0.82204 0.0
C384 C 0.03189 0.78437 0.84074 0.0
C385 C 0.03012 0.74908 0.85178 0.0
C386 C 0.05867 0.73079 0.84733 0.0
C387 C 0.08998 0.74915 0.8326 0.0
H388 H 0.18675 0.95239 0.06928 0.0
H389 H 0.28123 0.90336 0.05693 0.0
H390 H 0.21833 1.00688 0.04402 0.0
H391 H 0.31292 0.95852 0.03127 0.0
H392 H 0.38062 0.10178 0.99839 0.0
H393 H 0.3565 0.04639 0.02398 0.0
H394 H 0.21388 0.9961 1.01001 0.0
H395 H 0.23742 0.05081 0.98481 0.0
C396 C 0.21443 0.95327 0.06123 0.0
C397 C 0.23108 0.92303 0.06506 0.0
C398 C 0.23241 0.98449 0.04667 0.0
C399 C 0.26762 0.98651 0.03549 0.0
C400 C 0.28576 0.95768 0.03967 0.0
C401 C 0.26752 0.92605 0.05431 0.0
C402 C 0.34417 0.0786 1.00072 0.0
C403 C 0.311 0.08118 0.98966 0.0
C404 C 0.33041 0.04683 0.01532 0.0
C405 C 0.28331 0.01742 0.01915 0.0
C406 C 0.25041 0.01894 1.00764 0.0
C407 C 0.26403 0.0503 0.99312 0.0
H408 H 0.13208 0.23417 0.06132 0.0
H409 H 0.24721 0.37358 0.05857 0.0
H410 H 0.1551 0.21684 0.03193 0.0
H411 H 0.26946 0.35672 0.02889 0.0
H412 H 0.33031 0.28843 0.99122 0.0
H413 H 0.30377 0.3146 0.01732 0.0
H414 H 0.16271 0.22843 0.99952 0.0
H415 H 0.18931 0.2012 0.9737 0.0
C416 C 0.16181 0.26143 0.05429 0.0
C417 C 0.18793 0.30518 0.06245 0.0
C418 C 0.17496 0.25156 0.03732 0.0
C419 C 0.21444 0.28526 0.02796 0.0
C420 C 0.23942 0.32958 0.03579 0.0
C421 C 0.22643 0.33936 0.05281 0.0
C422 C 0.29369 0.27573 0.99265 0.0
C423 C 0.26198 0.24247 0.98039 0.0
C424 C 0.27837 0.29084 1.00766 0.0
C425 C 0.23091 0.27329 1.01076 0.0
C426 C 0.19941 0.24199 0.99786 0.0
C427 C 0.21473 0.2267 0.98291 0.0
H428 H 0.86288 0.10696 0.22236 0.0
H429 H 0.9206 0.25239 0.23323 0.0
H430 H 0.90084 0.12519 0.19232 0.0
H431 H 0.96081 0.27091 0.20404 0.0
H432 H 0.01565 0.30042 0.14707 0.0
H433 H 0.96142 0.2756 0.17274 0.0
H434 H 0.97046 0.15153 0.17801 0.0
H435 H 0.02173 0.17501 0.15165 0.0
C436 C 0.88378 0.14282 0.21835 0.0
C437 C 0.88862 0.17814 0.23022 0.0
C438 C 0.90595 0.15345 0.20113 0.0
C439 C 0.9344 0.19974 0.1955 0.0
C440 C 0.93858 0.23485 0.20742 0.0
C441 C 0.91569 0.2242 0.22438 0.0
C442 C 1.00512 0.26737 0.15349 0.0
C443 C 0.02308 0.23979 0.14731 0.0
C444 C 0.9744 0.25326 0.16843 0.0
C445 C 0.96181 0.21174 0.17792 0.0
C446 C 0.97845 0.18336 0.17112 0.0
C447 C 1.00824 0.19698 0.15594 0.0
H448 H 0.72628 0.02906 0.32388 0.0
H449 H 0.81933 0.98164 0.30715 0.0
H450 H 0.70083 0.97577 0.34981 0.0
H451 H 0.79287 0.9272 0.33278 0.0
H452 H 0.78604 0.89096 0.39474 0.0
H453 H 0.80298 0.93111 0.36527 0.0
H454 H 0.66123 0.89908 0.3612 0.0
H455 H 0.64474 0.86022 0.39092 0.0
C456 C 0.7404 1.00635 0.32543 0.0
C457 C 0.77507 0.00991 0.31346 0.0
C458 C 0.72573 0.97559 0.34034 0.0
C459 C 0.74513 0.94735 0.34363 0.0
C460 C 0.77784 0.94904 0.33098 0.0
C461 C 0.79269 0.97998 0.31613 0.0
C462 C 0.75832 0.89193 0.38745 0.0
C463 C 0.71412 0.87263 0.39533 0.0
C464 C 0.76797 0.91484 0.37045 0.0
C465 C 0.73359 0.91881 0.3608 0.0
C466 C 0.68887 0.89764 0.36833 0.0
C467 C 0.67932 0.87502 0.38537 0.0
H468 H 0.90021 0.7781 0.56328 0.0
H469 H 0.79097 0.63663 0.55717 0.0
H470 H 0.87818 0.7975 0.53405 0.0
H471 H 0.76983 0.65562 0.52774 0.0
H472 H 0.70595 0.72164 0.4908 0.0
H473 H 0.7327 0.69556 0.51685 0.0
H474 H 0.87403 0.79008 0.50134 0.0
H475 H 0.84711 0.81708 0.47557 0.0
C476 C 0.87205 0.75092 0.55555 0.0
C477 C 0.84718 0.70589 0.56271 0.0
C478 C 0.85947 0.76199 0.5387 0.0
C479 C 0.82186 0.72824 0.52849 0.0
C480 C 0.79832 0.68279 0.53533 0.0
C481 C 0.81069 0.67181 0.5522 0.0
C482 C 0.74273 0.73627 0.49272 0.0
C483 C 0.77431 0.77162 0.4811 0.0
C484 C 0.75819 0.72122 0.5077 0.0
C485 C 0.80567 0.74096 0.51141 0.0
C486 C 0.83724 0.77469 0.49919 0.0
C487 C 0.82177 0.78987 0.48426 0.0
H488 H 0.16443 0.78235 0.72307 0.0
H489 H 0.13196 0.89167 0.72756 0.0
H490 H 0.12602 0.76051 0.69328 0.0
H491 H 0.09211 0.86889 0.69806 0.0
H492 H 0.04059 0.83522 0.64019 0.0
H493 H 0.09539 0.86343 0.66563 0.0
H494 H 0.04985 0.72272 0.68183 0.0
H495 H 0.99633 0.69473 0.65605 0.0
C496 C 0.14934 0.80197 0.71765 0.0
C497 C 0.1511 0.83864 0.72781 0.0
C498 C 0.12696 0.7892 0.70058 0.0
C499 C 0.10533 0.81247 0.69322 0.0
C500 C 0.10873 0.85037 0.70308 0.0
C501 C 0.13148 0.8634 0.7201 0.0
C502 C 0.04303 0.8103 0.64894 0.0
C503 C 0.01387 0.76266 0.64609 0.0
C504 C 0.07417 0.82651 0.66369 0.0
C505 C 0.07678 0.79551 0.67607 0.0
C506 C 0.04934 0.74782 0.67257 0.0
C507 C 0.01845 0.73164 0.65774 0.0
H508 H 0.38761 0.14436 0.89155 0.0
H509 H 0.24947 0.12319 0.89412 0.0
H510 H 0.37015 0.10497 0.86193 0.0
H511 H 0.23146 0.08246 0.86481 0.0
H512 H 0.21438 0.03095 0.80686 0.0
H513 H 0.24246 0.08521 0.83251 0.0
H514 H 0.32723 0.0288 0.85042 0.0
H515 H 0.3003 0.97575 0.82443 0.0
C516 C 0.35355 0.13156 0.88575 0.0
C517 C 0.31989 0.13682 0.89532 0.0
C518 C 0.3434 0.10861 0.86878 0.0
C519 C 0.2992 0.08996 0.86093 0.0
C520 C 0.26607 0.09674 0.87021 0.0
C521 C 0.27633 0.11999 0.88713 0.0
C522 C 0.23974 0.03078 0.81606 0.0
C523 C 0.25493 0.99881 0.81359 0.0
C524 C 0.25553 0.06164 0.83092 0.0
C525 C 0.28671 0.06118 0.8438 0.0
C526 C 0.30361 0.0307 0.84076 0.0
C527 C 0.28806 1.00006 0.82582 0.0
H528 H 0.78665 0.88578 0.82589 0.0
H529 H 0.64589 0.77459 0.83134 0.0
H530 H 0.80569 0.86379 0.85521 0.0
H531 H 0.66451 0.75346 0.86086 0.0
H532 H 0.73151 0.69077 0.89794 0.0
H533 H 0.70538 0.71728 0.87184 0.0
H534 H 0.79701 0.85885 0.88793 0.0
H535 H 0.82409 0.83221 0.91378 0.0
C536 C 0.75954 0.85718 0.83349 0.0
C537 C 0.71483 0.83177 0.82612 0.0
C538 C 0.77039 0.84463 0.8504 0.0
C539 C 0.73675 0.8065 0.86044 0.0
C540 C 0.6916 0.78238 0.8534 0.0
C541 C 0.68084 0.79474 0.83647 0.0
C542 C 0.74547 0.72754 0.89614 0.0
C543 C 0.78008 0.75929 0.90795 0.0
C544 C 0.73039 0.74285 0.88113 0.0
C545 C 0.74935 0.79037 0.87757 0.0
C546 C 0.78226 0.82206 0.88997 0.0
C547 C 0.79746 0.80673 0.90494 0.0
H548 H 0.89759 0.76955 0.99442 0.0
H549 H 0.87529 0.63084 0.99667 0.0
H550 H 0.9379 0.78686 0.02379 0.0
H551 H 0.91429 0.64762 0.02636 0.0
H552 H 0.0433 0.71649 0.06396 0.0
H553 H 0.9904 0.69006 0.03796 0.0
H554 H 0.93459 0.77523 0.0561 0.0
H555 H 0.98869 0.80279 0.08179 0.0
C556 C 0.90046 0.74242 1.00134 0.0
C557 C 0.88343 0.6989 0.99305 0.0
C558 C 0.92346 0.75227 0.0183 0.0
C559 C 0.9298 0.71878 0.02752 0.0
C560 C 0.91098 0.67463 0.01956 0.0
C561 C 0.88826 0.66489 1.00255 0.0
C562 C 0.01914 0.72891 0.06263 0.0
C563 C 0.02053 0.76201 0.07494 0.0
C564 C 0.98859 0.71364 0.04767 0.0
C565 C 0.95836 0.73084 0.04469 0.0
C566 C 0.95798 0.76195 0.05766 0.0
C567 C 0.98874 0.77743 0.07254 0.0
H568 H 0.12881 0.88351 0.16075 0.0
H569 H 0.24497 0.86109 0.16337 0.0
H570 H 0.15204 0.92481 0.18992 0.0
H571 H 0.2674 0.90105 0.19287 0.0
H572 H 0.32804 0.03072 0.23011 0.0
H573 H 0.30136 0.97742 0.2042 0.0
H574 H 0.16039 0.92256 0.22223 0.0
H575 H 0.18715 0.97707 0.24779 0.0
C576 C 0.15879 0.88655 0.16772 0.0
C577 C 0.18515 0.86919 0.15958 0.0
C578 C 0.17209 0.91014 0.18456 0.0
C579 C 0.21193 0.91674 0.19383 0.0
C580 C 0.2371 0.89758 0.18603 0.0
C581 C 0.224 0.87429 0.16913 0.0
C582 C 0.29141 1.00671 0.22876 0.0
C583 C 0.25978 0.00845 0.24101 0.0
C584 C 0.276 0.97592 0.21387 0.0
C585 C 0.22852 0.94578 0.21088 0.0
C586 C 0.1971 0.94585 0.22377 0.0
C587 C 0.21251 0.97686 0.23858 0.0
H588 H 0.38674 0.22316 0.33214 0.0
H589 H 0.24454 0.11505 0.32719 0.0
H590 H 0.37008 0.24443 0.36205 0.0
H591 H 0.2274 0.13729 0.35681 0.0
H592 H 0.20919 0.16968 0.41487 0.0
H593 H 0.23562 0.14172 0.38926 0.0
H594 H 0.3323 0.28257 0.37374 0.0
H595 H 0.30693 0.31029 0.39969 0.0
C596 C 0.35191 0.20368 0.33748 0.0
C597 C 0.31692 0.16752 0.32715 0.0
C598 C 0.34227 0.21613 0.35462 0.0
C599 C 0.29724 0.19305 0.36189 0.0
C600 C 0.26264 0.15564 0.35186 0.0
C601 C 0.27239 0.14293 0.33477 0.0
C602 C 0.23684 0.19466 0.40624 0.0
C603 C 0.2558 0.24228 0.40933 0.0
C604 C 0.25168 0.17861 0.39139 0.0
C605 C 0.28568 0.20974 0.37914 0.0
C606 C 0.30638 0.25736 0.38289 0.0
C607 C 0.29176 0.27339 0.39782 0.0
H608 H 0.12518 0.22626 0.49201 0.0
H609 H 0.15937 0.36821 0.49857 0.0
H610 H 0.0833 0.20678 0.52117 0.0
H611 H 0.11876 0.34912 0.52791 0.0
H612 H 0.98865 0.28425 0.56475 0.0
H613 H 0.04138 0.30976 0.53863 0.0
H614 H 0.08646 0.21382 0.55396 0.0
H615 H 0.03267 0.18742 0.57981 0.0
C616 C 0.12452 0.2535 0.49982 0.0
C617 C 0.14539 0.29872 0.49281 0.0
C618 C 0.1006 0.24239 0.51663 0.0
C619 C 0.09717 0.27627 0.52694 0.0
C620 C 0.11975 0.32186 0.52025 0.0
C621 C 0.14337 0.33289 0.50342 0.0
C622 C 0.01039 0.26916 0.56276 0.0
C623 C 1.00621 0.23365 0.57438 0.0
C624 C 0.04083 0.28387 0.54775 0.0
C625 C 0.0681 0.26363 0.54399 0.0
C626 C 0.06544 0.22962 0.55616 0.0
C627 C 0.03487 0.21479 0.57113 0.0
H628 H 0.84447 0.02628 0.74881 0.0
H629 H 0.70409 0.98189 0.733 0.0
H630 H 0.87266 0.08118 0.72335 0.0
H631 H 0.73209 0.03557 0.7072 0.0
H632 H 0.79194 0.15043 0.66592 0.0
H633 H 0.77009 0.11205 0.69575 0.0
H634 H 0.87785 0.07741 0.69087 0.0
H635 H 0.90061 0.11713 0.66132 0.0
C636 C 0.81957 0.02872 0.74007 0.0
C637 C 0.77196 0.99947 0.74293 0.0
C638 C 0.83577 0.05992 0.72532 0.0
C639 C 0.8048 0.06252 0.71294 0.0
C640 C 0.75715 0.03504 0.71646 0.0
C641 C 0.74097 1.00406 0.7313 0.0
C642 C 0.81143 0.13518 0.67132 0.0
C643 C 0.84791 0.13668 0.66111 0.0
C644 C 0.79865 0.11284 0.68842 0.0
C645 C 0.82176 0.09103 0.69576 0.0
C646 C 0.85947 0.09418 0.68586 0.0
C647 C 0.87248 0.11685 0.66881 0.0
loop_
_geom_bond_atom_site_label_1
_geom_bond_atom_site_label_2
_geom_bond_distance
_geom_bond_site_symmetry_2
_ccdc_geom_bond_type
O0 Cd1 2.223 . S
O0 C8 1.315 . S
Cd1 O0 2.223 . S
Cd1 O4 2.297 . S
Cd1 O5 2.439 . S
Cd1 O11 2.240 . S
Cd2 O3 2.240 . S
Cd2 O10 2.223 . S
Cd2 O12 2.297 . S
Cd2 O13 2.439 . S
O3 Cd2 2.240 . S
O3 C8 1.279 . S
O4 Cd1 2.297 . S
O4 C6 1.247 . S
O5 Cd1 2.439 . S
O5 C6 1.208 . S
C6 O4 1.247 . S
C6 O5 1.208 . S
C7 O12 1.247 . S
C7 O13 1.208 . S
C8 O0 1.315 . S
C8 O3 1.279 . S
C9 O10 1.315 . S
C9 O11 1.279 . S
O10 Cd2 2.223 . S
O10 C9 1.315 . S
O11 Cd1 2.240 . S
O11 C9 1.279 . S
O12 Cd2 2.297 . S
O12 C7 1.247 . S
O13 Cd2 2.439 . S
O13 C7 1.208 . S
O14 Cd15 2.223 . S
O14 C22 1.315 . S
Cd15 O14 2.223 . S
Cd15 O18 2.297 . S
Cd15 O19 2.439 . S
Cd15 O25 2.240 . S
Cd16 O17 2.240 . S
Cd16 O24 2.223 . S
Cd16 O26 2.297 . S
Cd16 O27 2.439 . S
O17 Cd16 2.240 . S
O17 C22 1.279 . S
O18 Cd15 2.297 . S
O18 C20 1.247 . S
O19 Cd15 2.439 . S
O19 C20 1.208 . S
C20 O18 1.247 . S
C20 O19 1.208 . S
C21 O26 1.247 . S
C21 O27 1.208 . S
C22 O14 1.315 . S
C22 O17 1.279 . S
C23 O24 1.315 . S
C23 O25 1.279 . S
O24 Cd16 2.223 . S
O24 C23 1.315 . S
O25 Cd15 2.240 . S
O25 C23 1.279 . S
O26 Cd16 2.297 . S
O26 C21 1.247 . S
O27 Cd16 2.439 . S
O27 C21 1.208 . S
O28 Cd29 2.223 . S
O28 C36 1.315 . S
Cd29 O28 2.223 . S
Cd29 O32 2.297 . S
Cd29 O33 2.439 . S
Cd29 O39 2.240 . S
Cd30 O31 2.240 . S
Cd30 O38 2.223 . S
Cd30 O40 2.297 . S
Cd30 O41 2.439 . S
O31 Cd30 2.240 . S
O31 C36 1.279 . S
O32 Cd29 2.297 . S
O32 C34 1.247 . S
O33 Cd29 2.439 . S
O33 C34 1.208 . S
C34 O32 1.247 . S
C34 O33 1.208 . S
C35 O40 1.247 . S
C35 O41 1.208 . S
C36 O28 1.315 . S
C36 O31 1.279 . S
C37 O38 1.315 . S
C37 O39 1.279 . S
O38 Cd30 2.223 . S
O38 C37 1.315 . S
O39 Cd29 2.240 . S
O39 C37 1.279 . S
O40 Cd30 2.297 . S
O40 C35 1.247 . S
O41 Cd30 2.439 . S
O41 C35 1.208 . S
O42 Cd43 2.223 . S
O42 C50 1.315 . S
Cd43 O42 2.223 . S
Cd43 O46 2.297 . S
Cd43 O47 2.439 . S
Cd43 O53 2.240 . S
Cd44 O45 2.240 . S
Cd44 O52 2.223 . S
Cd44 O54 2.297 . S
Cd44 O55 2.439 . S
O45 Cd44 2.240 . S
O45 C50 1.279 . S
O46 Cd43 2.297 . S
O46 C48 1.247 . S
O47 Cd43 2.439 . S
O47 C48 1.208 . S
C48 O46 1.247 . S
C48 O47 1.208 . S
C49 O54 1.247 . S
C49 O55 1.208 . S
C50 O42 1.315 . S
C50 O45 1.279 . S
C51 O52 1.315 . S
C51 O53 1.279 . S
O52 Cd44 2.223 . S
O52 C51 1.315 . S
O53 Cd43 2.240 . S
O53 C51 1.279 . S
O54 Cd44 2.297 . S
O54 C49 1.247 . S
O55 Cd44 2.439 . S
O55 C49 1.208 . S
O56 Cd57 2.223 . S
O56 C64 1.315 . S
Cd57 O56 2.223 . S
Cd57 O60 2.297 . S
Cd57 O61 2.439 . S
Cd57 O67 2.240 . S
Cd58 O59 2.240 . S
Cd58 O66 2.223 . S
Cd58 O68 2.297 . S
Cd58 O69 2.439 . S
O59 Cd58 2.240 . S
O59 C64 1.279 . S
O60 Cd57 2.297 . S
O60 C62 1.247 . S
O61 Cd57 2.439 . S
O61 C62 1.208 . S
C62 O60 1.247 . S
C62 O61 1.208 . S
C63 O68 1.247 . S
C63 O69 1.208 . S
C64 O56 1.315 . S
C64 O59 1.279 . S
C65 O66 1.315 . S
C65 O67 1.279 . S
O66 Cd58 2.223 . S
O66 C65 1.315 . S
O67 Cd57 2.240 . S
O67 C65 1.279 . S
O68 Cd58 2.297 . S
O68 C63 1.247 . S
O69 Cd58 2.439 . S
O69 C63 1.208 . S
O70 Cd71 2.223 . S
O70 C78 1.315 . S
Cd71 O70 2.223 . S
Cd71 O74 2.297 . S
Cd71 O75 2.439 . S
Cd71 O81 2.240 . S
Cd72 O73 2.240 . S
Cd72 O80 2.223 . S
Cd72 O82 2.297 1_556 S
Cd72 O83 2.439 . S
O73 Cd72 2.240 . S
O73 C78 1.279 . S
O74 Cd71 2.297 . S
O74 C76 1.247 . S
O75 Cd71 2.439 . S
O75 C76 1.208 . S
C76 O74 1.247 . S
C76 O75 1.208 . S
C77 O82 1.247 . S
C77 O83 1.208 1_554 S
C78 O70 1.315 . S
C78 O73 1.279 . S
C79 O80 1.315 . S
C79 O81 1.279 . S
O80 Cd72 2.223 . S
O80 C79 1.315 . S
O81 Cd71 2.240 . S
O81 C79 1.279 . S
O82 Cd72 2.297 1_554 S
O82 C77 1.247 . S
O83 Cd72 2.439 . S
O83 C77 1.208 1_556 S
O84 Cd85 2.223 . S
O84 C92 1.315 . S
Cd85 O84 2.223 . S
Cd85 O88 2.297 . S
Cd85 O89 2.439 . S
Cd85 O95 2.240 . S
Cd86 O87 2.240 . S
Cd86 O94 2.223 . S
Cd86 O96 2.297 . S
Cd86 O97 2.439 . S
O87 Cd86 2.240 . S
O87 C92 1.279 . S
O88 Cd85 2.297 . S
O88 C90 1.247 . S
O89 Cd85 2.439 . S
O89 C90 1.208 . S
C90 O88 1.247 . S
C90 O89 1.208 . S
C91 O96 1.247 . S
C91 O97 1.208 . S
C92 O84 1.315 . S
C92 O87 1.279 . S
C93 O94 1.315 . S
C93 O95 1.279 . S
O94 Cd86 2.223 . S
O94 C93 1.315 . S
O95 Cd85 2.240 . S
O95 C93 1.279 . S
O96 Cd86 2.297 . S
O96 C91 1.247 . S
O97 Cd86 2.439 . S
O97 C91 1.208 . S
O98 Cd99 2.223 . S
O98 C106 1.315 . S
Cd99 O98 2.223 . S
Cd99 O102 2.297 . S
Cd99 O103 2.439 . S
Cd99 O109 2.240 . S
Cd100 O101 2.240 . S
Cd100 O108 2.223 . S
Cd100 O110 2.297 . S
Cd100 O111 2.439 . S
O101 Cd100 2.240 . S
O101 C106 1.279 . S
O102 Cd99 2.297 . S
O102 C104 1.247 . S
O103 Cd99 2.439 . S
O103 C104 1.208 . S
C104 O102 1.247 . S
C104 O103 1.208 . S
C105 O110 1.247 . S
C105 O111 1.208 . S
C106 O98 1.315 . S
C106 O101 1.279 . S
C107 O108 1.315 . S
C107 O109 1.279 . S
O108 Cd100 2.223 . S
O108 C107 1.315 . S
O109 Cd99 2.240 . S
O109 C107 1.279 . S
O110 Cd100 2.297 . S
O110 C105 1.247 . S
O111 Cd100 2.439 . S
O111 C105 1.208 . S
O112 Cd113 2.223 . S
O112 C120 1.315 . S
Cd113 O112 2.223 . S
Cd113 O116 2.297 . S
Cd113 O117 2.439 . S
Cd113 O123 2.240 . S
Cd114 O115 2.240 . S
Cd114 O122 2.223 . S
Cd114 O124 2.297 . S
Cd114 O125 2.439 . S
O115 Cd114 2.240 . S
O115 C120 1.279 . S
O116 Cd113 2.297 . S
O116 C118 1.247 . S
O117 Cd113 2.439 . S
O117 C118 1.208 . S
C118 O116 1.247 . S
C118 O117 1.208 . S
C119 O124 1.247 . S
C119 O125 1.208 . S
C120 O112 1.315 . S
C120 O115 1.279 . S
C121 O122 1.315 . S
C121 O123 1.279 . S
O122 Cd114 2.223 . S
O122 C121 1.315 . S
O123 Cd113 2.240 . S
O123 C121 1.279 . S
O124 Cd114 2.297 . S
O124 C119 1.247 . S
O125 Cd114 2.439 . S
O125 C119 1.208 . S
O126 Cd127 2.223 . S
O126 C134 1.315 . S
Cd127 O126 2.223 . S
Cd127 O130 2.297 . S
Cd127 O131 2.439 . S
Cd127 O137 2.240 . S
Cd128 O129 2.240 . S
Cd128 O136 2.223 . S
Cd128 O138 2.297 . S
Cd128 O139 2.439 . S
O129 Cd128 2.240 . S
O129 C134 1.279 . S
O130 Cd127 2.297 . S
O130 C132 1.247 . S
O131 Cd127 2.439 . S
O131 C132 1.208 . S
C132 O130 1.247 . S
C132 O131 1.208 . S
C133 O138 1.247 . S
C133 O139 1.208 . S
C134 O126 1.315 . S
C134 O129 1.279 . S
C135 O136 1.315 . S
C135 O137 1.279 . S
O136 Cd128 2.223 . S
O136 C135 1.315 . S
O137 Cd127 2.240 . S
O137 C135 1.279 . S
O138 Cd128 2.297 . S
O138 C133 1.247 . S
O139 Cd128 2.439 . S
O139 C133 1.208 . S
O140 Cd141 2.223 . S
O140 C148 1.315 . S
Cd141 O140 2.223 . S
Cd141 O144 2.297 . S
Cd141 O145 2.439 . S
Cd141 O151 2.240 . S
Cd142 O143 2.240 . S
Cd142 O150 2.223 . S
Cd142 O152 2.297 . S
Cd142 O153 2.439 . S
O143 Cd142 2.240 . S
O143 C148 1.279 . S
O144 Cd141 2.297 . S
O144 C146 1.247 . S
O145 Cd141 2.439 . S
O145 C146 1.208 . S
C146 O144 1.247 . S
C146 O145 1.208 . S
C147 O152 1.247 . S
C147 O153 1.208 . S
C148 O140 1.315 . S
C148 O143 1.279 . S
C149 O150 1.315 . S
C149 O151 1.279 . S
O150 Cd142 2.223 . S
O150 C149 1.315 . S
O151 Cd141 2.240 . S
O151 C149 1.279 . S
O152 Cd142 2.297 . S
O152 C147 1.247 . S
O153 Cd142 2.439 . S
O153 C147 1.208 . S
O154 Cd155 2.223 . S
O154 C162 1.315 . S
Cd155 O154 2.223 . S
Cd155 O158 2.297 . S
Cd155 O159 2.439 . S
Cd155 O165 2.240 . S
Cd156 O157 2.240 . S
Cd156 O164 2.223 . S
Cd156 O166 2.297 . S
Cd156 O167 2.439 . S
O157 Cd156 2.240 . S
O157 C162 1.279 . S
O158 Cd155 2.297 . S
O158 C160 1.247 . S
O159 Cd155 2.439 . S
O159 C160 1.208 . S
C160 O158 1.247 . S
C160 O159 1.208 . S
C161 O166 1.247 . S
C161 O167 1.208 . S
C162 O154 1.315 . S
C162 O157 1.279 . S
C163 O164 1.315 . S
C163 O165 1.279 . S
O164 Cd156 2.223 . S
O164 C163 1.315 . S
O165 Cd155 2.240 . S
O165 C163 1.279 . S
O166 Cd156 2.297 . S
O166 C161 1.247 . S
O167 Cd156 2.439 . S
O167 C161 1.208 . S
H168 C176 0.950 . S
H169 C181 0.950 . S
H170 C178 0.950 . S
H171 C180 0.950 . S
H172 C182 0.950 . S
H173 C184 0.950 . S
H174 C186 0.950 . S
H175 C187 0.950 . S
C176 H168 0.950 . S
C176 C177 1.386 . S
C176 C178 1.391 . S
C177 C176 1.386 . S
C177 C181 1.393 . S
C178 H170 0.950 . S
C178 C176 1.391 . S
C178 C179 1.400 . S
C179 C178 1.400 . S
C179 C180 1.398 . S
C179 C185 1.491 . S
C180 H171 0.950 . S
C180 C179 1.398 . S
C180 C181 1.391 . S
C181 H169 0.950 . S
C181 C177 1.393 . S
C181 C180 1.391 . S
C182 H172 0.950 . S
C182 C183 1.386 . S
C182 C184 1.391 . S
C183 C182 1.386 . S
C183 C187 1.393 . S
C184 H173 0.950 . S
C184 C182 1.391 . S
C184 C185 1.400 . S
C185 C179 1.491 . S
C185 C184 1.400 . S
C185 C186 1.398 . S
C186 H174 0.950 . S
C186 C185 1.398 . S
C186 C187 1.391 . S
C187 H175 0.950 . S
C187 C183 1.393 . S
C187 C186 1.391 . S
H188 C196 0.950 . S
H189 C201 0.950 . S
H190 C198 0.950 . S
H191 C200 0.950 . S
H192 C202 0.950 . S
H193 C204 0.950 . S
H194 C206 0.950 . S
H195 C207 0.950 . S
C196 H188 0.950 . S
C196 C197 1.386 . S
C196 C198 1.391 . S
C197 C196 1.386 . S
C197 C201 1.393 . S
C198 H190 0.950 . S
C198 C196 1.391 . S
C198 C199 1.400 . S
C199 C198 1.400 . S
C199 C200 1.398 . S
C199 C205 1.491 . S
C200 H191 0.950 . S
C200 C199 1.398 . S
C200 C201 1.391 . S
C201 H189 0.950 . S
C201 C197 1.393 . S
C201 C200 1.391 . S
C202 H192 0.950 . S
C202 C203 1.386 . S
C202 C204 1.391 . S
C203 C202 1.386 . S
C203 C207 1.393 . S
C204 H193 0.950 . S
C204 C202 1.391 . S
C204 C205 1.400 . S
C205 C199 1.491 . S
C205 C204 1.400 . S
C205 C206 1.398 . S
C206 H194 0.950 . S
C206 C205 1.398 . S
C206 C207 1.391 . S
C207 H195 0.950 . S
C207 C203 1.393 . S
C207 C206 1.391 . S
H208 C216 0.950 . S
H209 C221 0.950 . S
H210 C218 0.950 . S
H211 C220 0.950 . S
H212 C222 0.950 . S
H213 C224 0.950 . S
H214 C226 0.950 . S
H215 C227 0.950 . S
C216 H208 0.950 . S
C216 C217 1.386 . S
C216 C218 1.391 . S
C217 C216 1.386 . S
C217 C221 1.393 . S
C218 H210 0.950 . S
C218 C216 1.391 . S
C218 C219 1.400 . S
C219 C218 1.400 . S
C219 C220 1.398 . S
C219 C225 1.491 . S
C220 H211 0.950 . S
C220 C219 1.398 . S
C220 C221 1.391 . S
C221 H209 0.950 . S
C221 C217 1.393 . S
C221 C220 1.391 . S
C222 H212 0.950 . S
C222 C223 1.386 . S
C222 C224 1.391 . S
C223 C222 1.386 . S
C223 C227 1.393 . S
C224 H213 0.950 . S
C224 C222 1.391 . S
C224 C225 1.400 . S
C225 C219 1.491 . S
C225 C224 1.400 . S
C225 C226 1.398 . S
C226 H214 0.950 . S
C226 C225 1.398 . S
C226 C227 1.391 . S
C227 H215 0.950 . S
C227 C223 1.393 . S
C227 C226 1.391 . S
H228 C236 0.950 . S
H229 C241 0.950 . S
H230 C238 0.950 . S
H231 C240 0.950 . S
H232 C242 0.950 . S
H233 C244 0.950 . S
H234 C246 0.950 . S
H235 C247 0.950 . S
C236 H228 0.950 . S
C236 C237 1.386 . S
C236 C238 1.391 . S
C237 C236 1.386 . S
C237 C241 1.393 . S
C238 H230 0.950 . S
C238 C236 1.391 . S
C238 C239 1.400 . S
C239 C238 1.400 . S
C239 C240 1.398 . S
C239 C245 1.491 . S
C240 H231 0.950 . S
C240 C239 1.398 . S
C240 C241 1.391 . S
C241 H229 0.950 . S
C241 C237 1.393 . S
C241 C240 1.391 . S
C242 H232 0.950 . S
C242 C243 1.386 . S
C242 C244 1.391 . S
C243 C242 1.386 . S
C243 C247 1.393 . S
C244 H233 0.950 . S
C244 C242 1.391 . S
C244 C245 1.400 . S
C245 C239 1.491 . S
C245 C244 1.400 . S
C245 C246 1.398 . S
C246 H234 0.950 . S
C246 C245 1.398 . S
C246 C247 1.391 . S
C247 H235 0.950 . S
C247 C243 1.393 . S
C247 C246 1.391 . S
H248 C256 0.950 . S
H249 C261 0.950 . S
H250 C258 0.950 . S
H251 C260 0.950 . S
H252 C262 0.950 . S
H253 C264 0.950 . S
H254 C266 0.950 . S
H255 C267 0.950 . S
C256 H248 0.950 . S
C256 C257 1.386 . S
C256 C258 1.391 . S
C257 C256 1.386 . S
C257 C261 1.393 . S
C258 H250 0.950 . S
C258 C256 1.391 . S
C258 C259 1.400 . S
C259 C258 1.400 . S
C259 C260 1.398 . S
C259 C265 1.491 . S
C260 H251 0.950 . S
C260 C259 1.398 . S
C260 C261 1.391 . S
C261 H249 0.950 . S
C261 C257 1.393 . S
C261 C260 1.391 . S
C262 H252 0.950 . S
C262 C263 1.386 . S
C262 C264 1.391 . S
C263 C262 1.386 . S
C263 C267 1.393 . S
C264 H253 0.950 . S
C264 C262 1.391 . S
C264 C265 1.400 . S
C265 C259 1.491 . S
C265 C264 1.400 . S
C265 C266 1.398 . S
C266 H254 0.950 . S
C266 C265 1.398 . S
C266 C267 1.391 . S
C267 H255 0.950 . S
C267 C263 1.393 . S
C267 C266 1.391 . S
H268 C276 0.950 . S
H269 C281 0.950 . S
H270 C278 0.950 . S
H271 C280 0.950 . S
H272 C282 0.950 . S
H273 C284 0.950 . S
H274 C286 0.950 . S
H275 C287 0.950 . S
C276 H268 0.950 . S
C276 C277 1.386 . S
C276 C278 1.391 . S
C277 C276 1.386 . S
C277 C281 1.393 . S
C278 H270 0.950 . S
C278 C276 1.391 . S
C278 C279 1.400 . S
C279 C278 1.400 . S
C279 C280 1.398 . S
C279 C285 1.491 . S
C280 H271 0.950 . S
C280 C279 1.398 . S
C280 C281 1.391 . S
C281 H269 0.950 . S
C281 C277 1.393 . S
C281 C280 1.391 . S
C282 H272 0.950 . S
C282 C283 1.386 . S
C282 C284 1.391 . S
C283 C282 1.386 . S
C283 C287 1.393 . S
C284 H273 0.950 . S
C284 C282 1.391 . S
C284 C285 1.400 . S
C285 C279 1.491 . S
C285 C284 1.400 . S
C285 C286 1.398 . S
C286 H274 0.950 . S
C286 C285 1.398 . S
C286 C287 1.391 . S
C287 H275 0.950 . S
C287 C283 1.393 . S
C287 C286 1.391 . S
H288 C296 0.950 . S
H289 C301 0.950 . S
H290 C298 0.950 . S
H291 C300 0.950 . S
H292 C302 0.950 . S
H293 C304 0.950 . S
H294 C306 0.950 . S
H295 C307 0.950 . S
C296 H288 0.950 . S
C296 C297 1.386 . S
C296 C298 1.391 . S
C297 C296 1.386 . S
C297 C301 1.393 . S
C298 H290 0.950 . S
C298 C296 1.391 . S
C298 C299 1.400 . S
C299 C298 1.400 . S
C299 C300 1.398 . S
C299 C305 1.491 . S
C300 H291 0.950 . S
C300 C299 1.398 . S
C300 C301 1.391 . S
C301 H289 0.950 . S
C301 C297 1.393 . S
C301 C300 1.391 . S
C302 H292 0.950 . S
C302 C303 1.386 . S
C302 C304 1.391 . S
C303 C302 1.386 . S
C303 C307 1.393 . S
C304 H293 0.950 . S
C304 C302 1.391 . S
C304 C305 1.400 . S
C305 C299 1.491 . S
C305 C304 1.400 . S
C305 C306 1.398 . S
C306 H294 0.950 . S
C306 C305 1.398 . S
C306 C307 1.391 . S
C307 H295 0.950 . S
C307 C303 1.393 . S
C307 C306 1.391 . S
H308 C316 0.950 . S
H309 C321 0.950 . S
H310 C318 0.950 . S
H311 C320 0.950 . S
H312 C322 0.950 . S
H313 C324 0.950 . S
H314 C326 0.950 . S
H315 C327 0.950 . S
C316 H308 0.950 . S
C316 C317 1.386 . S
C316 C318 1.391 . S
C317 C316 1.386 . S
C317 C321 1.393 . S
C318 H310 0.950 . S
C318 C316 1.391 . S
C318 C319 1.400 . S
C319 C318 1.400 . S
C319 C320 1.398 . S
C319 C325 1.491 1_655 S
C320 H311 0.950 . S
C320 C319 1.398 . S
C320 C321 1.391 . S
C321 H309 0.950 . S
C321 C317 1.393 . S
C321 C320 1.391 . S
C322 H312 0.950 . S
C322 C323 1.386 . S
C322 C324 1.391 . S
C323 C322 1.386 . S
C323 C327 1.393 . S
C324 H313 0.950 . S
C324 C322 1.391 . S
C324 C325 1.400 . S
C325 C319 1.491 1_455 S
C325 C324 1.400 . S
C325 C326 1.398 . S
C326 H314 0.950 . S
C326 C325 1.398 . S
C326 C327 1.391 . S
C327 H315 0.950 . S
C327 C323 1.393 . S
C327 C326 1.391 . S
H328 C336 0.950 . S
H329 C341 0.950 . S
H330 C338 0.950 . S
H331 C340 0.950 . S
H332 C342 0.950 . S
H333 C344 0.950 . S
H334 C346 0.950 . S
H335 C347 0.950 . S
C336 H328 0.950 . S
C336 C337 1.386 . S
C336 C338 1.391 . S
C337 C336 1.386 . S
C337 C341 1.393 . S
C338 H330 0.950 . S
C338 C336 1.391 . S
C338 C339 1.400 . S
C339 C338 1.400 . S
C339 C340 1.398 . S
C339 C345 1.491 1_545 S
C340 H331 0.950 . S
C340 C339 1.398 . S
C340 C341 1.391 . S
C341 H329 0.950 . S
C341 C337 1.393 . S
C341 C340 1.391 . S
C342 H332 0.950 . S
C342 C343 1.386 . S
C342 C344 1.391 . S
C343 C342 1.386 . S
C343 C347 1.393 . S
C344 H333 0.950 . S
C344 C342 1.391 . S
C344 C345 1.400 . S
C345 C339 1.491 1_565 S
C345 C344 1.400 . S
C345 C346 1.398 . S
C346 H334 0.950 . S
C346 C345 1.398 . S
C346 C347 1.391 . S
C347 H335 0.950 . S
C347 C343 1.393 . S
C347 C346 1.391 . S
H348 C356 0.950 . S
H349 C361 0.950 . S
H350 C358 0.950 . S
H351 C360 0.950 . S
H352 C362 0.950 . S
H353 C364 0.950 . S
H354 C366 0.950 . S
H355 C367 0.950 . S
C356 H348 0.950 . S
C356 C357 1.386 . S
C356 C358 1.391 . S
C357 C356 1.386 . S
C357 C361 1.393 . S
C358 H350 0.950 . S
C358 C356 1.391 . S
C358 C359 1.400 . S
C359 C358 1.400 . S
C359 C360 1.398 . S
C359 C365 1.491 . S
C360 H351 0.950 . S
C360 C359 1.398 . S
C360 C361 1.391 . S
C361 H349 0.950 . S
C361 C357 1.393 . S
C361 C360 1.391 . S
C362 H352 0.950 . S
C362 C363 1.386 . S
C362 C364 1.391 . S
C363 C362 1.386 . S
C363 C367 1.393 . S
C364 H353 0.950 . S
C364 C362 1.391 . S
C364 C365 1.400 . S
C365 C359 1.491 . S
C365 C364 1.400 . S
C365 C366 1.398 . S
C366 H354 0.950 . S
C366 C365 1.398 . S
C366 C367 1.391 . S
C367 H355 0.950 . S
C367 C363 1.393 . S
C367 C366 1.391 . S
H368 C376 0.950 . S
H369 C381 0.950 . S
H370 C378 0.950 . S
H371 C380 0.950 . S
H372 C382 0.950 . S
H373 C384 0.950 . S
H374 C386 0.950 . S
H375 C387 0.950 . S
C376 H368 0.950 . S
C376 C377 1.386 . S
C376 C378 1.391 . S
C377 C376 1.386 . S
C377 C381 1.393 . S
C378 H370 0.950 . S
C378 C376 1.391 . S
C378 C379 1.400 . S
C379 C378 1.400 . S
C379 C380 1.398 . S
C379 C385 1.491 1_655 S
C380 H371 0.950 . S
C380 C379 1.398 . S
C380 C381 1.391 . S
C381 H369 0.950 . S
C381 C377 1.393 . S
C381 C380 1.391 . S
C382 H372 0.950 . S
C382 C383 1.386 . S
C382 C384 1.391 . S
C383 C382 1.386 . S
C383 C387 1.393 . S
C384 H373 0.950 . S
C384 C382 1.391 . S
C384 C385 1.400 . S
C385 C379 1.491 1_455 S
C385 C384 1.400 . S
C385 C386 1.398 . S
C386 H374 0.950 . S
C386 C385 1.398 . S
C386 C387 1.391 . S
C387 H375 0.950 . S
C387 C383 1.393 . S
C387 C386 1.391 . S
H388 C396 0.950 . S
H389 C401 0.950 . S
H390 C398 0.967 . S
H391 C400 0.950 . S
H392 C402 0.950 . S
H393 C404 0.950 . S
H394 C406 0.950 . S
H395 C407 0.950 . S
C396 H388 0.950 . S
C396 C397 1.386 . S
C396 C398 1.391 . S
C397 C396 1.386 . S
C397 C401 1.393 . S
C398 H390 0.967 . S
C398 C396 1.391 . S
C398 C399 1.400 . S
C399 C398 1.400 . S
C399 C400 1.398 . S
C399 C405 1.491 1_565 S
C400 H391 0.950 . S
C400 C399 1.398 . S
C400 C401 1.391 . S
C401 H389 0.950 . S
C401 C397 1.393 . S
C401 C400 1.391 . S
C402 H392 0.950 . S
C402 C403 1.386 1_554 S
C402 C404 1.391 . S
C403 C402 1.386 1_556 S
C403 C407 1.393 . S
C404 H393 0.950 . S
C404 C402 1.391 . S
C404 C405 1.400 . S
C405 C399 1.491 1_545 S
C405 C404 1.400 . S
C405 C406 1.398 1_554 S
C406 H394 0.950 . S
C406 C405 1.398 1_556 S
C406 C407 1.391 . S
C407 H395 0.950 . S
C407 C403 1.393 . S
C407 C406 1.391 . S
H408 C416 0.950 . S
H409 C421 0.950 . S
H410 C418 0.950 . S
H411 C420 0.950 . S
H412 C422 0.950 . S
H413 C424 0.950 . S
H414 C426 0.950 . S
H415 C427 0.950 . S
C416 H408 0.950 . S
C416 C417 1.386 . S
C416 C418 1.391 . S
C417 C416 1.386 . S
C417 C421 1.393 . S
C418 H410 0.950 . S
C418 C416 1.391 . S
C418 C419 1.400 . S
C419 C418 1.400 . S
C419 C420 1.398 . S
C419 C425 1.491 . S
C420 H411 0.950 . S
C420 C419 1.398 . S
C420 C421 1.391 . S
C421 H409 0.950 . S
C421 C417 1.393 . S
C421 C420 1.391 . S
C422 H412 0.950 . S
C422 C423 1.386 . S
C422 C424 1.391 . S
C423 C422 1.386 . S
C423 C427 1.393 . S
C424 H413 0.950 . S
C424 C422 1.391 . S
C424 C425 1.400 . S
C425 C419 1.491 . S
C425 C424 1.400 . S
C425 C426 1.398 . S
C426 H414 0.950 . S
C426 C425 1.398 . S
C426 C427 1.391 . S
C427 H415 0.950 . S
C427 C423 1.393 . S
C427 C426 1.391 . S
H428 C436 0.950 . S
H429 C441 0.950 . S
H430 C438 0.950 . S
H431 C440 0.950 . S
H432 C442 0.950 . S
H433 C444 0.950 1_455 S
H434 C446 0.950 . S
H435 C447 0.950 . S
C436 H428 0.950 . S
C436 C437 1.386 . S
C436 C438 1.391 . S
C437 C436 1.386 . S
C437 C441 1.393 . S
C438 H430 0.950 . S
C438 C436 1.391 . S
C438 C439 1.400 . S
C439 C438 1.400 . S
C439 C440 1.398 . S
C439 C445 1.491 . S
C440 H431 0.950 . S
C440 C439 1.398 . S
C440 C441 1.391 . S
C441 H429 0.950 . S
C441 C437 1.393 . S
C441 C440 1.391 . S
C442 H432 0.950 . S
C442 C443 1.392 . S
C442 C444 1.391 1_455 S
C443 C442 1.392 . S
C443 C447 1.379 1_455 S
C444 H433 0.950 1_655 S
C444 C442 1.391 1_655 S
C444 C445 1.400 . S
C445 C439 1.491 . S
C445 C444 1.400 . S
C445 C446 1.398 . S
C446 H434 0.950 . S
C446 C445 1.398 . S
C446 C447 1.391 . S
C447 H435 0.950 . S
C447 C443 1.379 1_655 S
C447 C446 1.391 . S
H448 C456 0.950 . S
H449 C461 0.951 . S
H450 C458 0.950 . S
H451 C460 0.950 . S
H452 C462 0.950 . S
H453 C464 0.950 . S
H454 C466 0.950 . S
H455 C467 0.950 . S
C456 H448 0.950 . S
C456 C457 1.386 . S
C456 C458 1.391 . S
C457 C456 1.386 . S
C457 C461 1.393 . S
C458 H450 0.950 . S
C458 C456 1.391 . S
C458 C459 1.400 . S
C459 C458 1.400 . S
C459 C460 1.398 . S
C459 C465 1.491 . S
C460 H451 0.950 . S
C460 C459 1.398 . S
C460 C461 1.391 . S
C461 H449 0.951 . S
C461 C457 1.393 . S
C461 C460 1.391 . S
C462 H452 0.950 . S
C462 C463 1.386 . S
C462 C464 1.391 . S
C463 C462 1.386 . S
C463 C467 1.393 . S
C464 H453 0.950 . S
C464 C462 1.391 . S
C464 C465 1.400 . S
C465 C459 1.491 . S
C465 C464 1.400 . S
C465 C466 1.398 . S
C466 H454 0.950 . S
C466 C465 1.398 . S
C466 C467 1.391 . S
C467 H455 0.950 . S
C467 C463 1.393 . S
C467 C466 1.391 . S
H468 C476 0.950 . S
H469 C481 0.950 . S
H470 C478 0.950 . S
H471 C480 0.950 . S
H472 C482 0.950 . S
H473 C484 0.950 . S
H474 C486 0.950 . S
H475 C487 0.950 . S
C476 H468 0.950 . S
C476 C477 1.386 . S
C476 C478 1.391 . S
C477 C476 1.386 . S
C477 C481 1.393 . S
C478 H470 0.950 . S
C478 C476 1.391 . S
C478 C479 1.400 . S
C479 C478 1.400 . S
C479 C480 1.398 . S
C479 C485 1.491 . S
C480 H471 0.950 . S
C480 C479 1.398 . S
C480 C481 1.391 . S
C481 H469 0.950 . S
C481 C477 1.393 . S
C481 C480 1.391 . S
C482 H472 0.950 . S
C482 C483 1.386 . S
C482 C484 1.391 . S
C483 C482 1.386 . S
C483 C487 1.393 . S
C484 H473 0.950 . S
C484 C482 1.391 . S
C484 C485 1.400 . S
C485 C479 1.491 . S
C485 C484 1.400 . S
C485 C486 1.398 . S
C486 H474 0.950 . S
C486 C485 1.398 . S
C486 C487 1.391 . S
C487 H475 0.950 . S
C487 C483 1.393 . S
C487 C486 1.391 . S
H488 C496 0.950 . S
H489 C501 0.950 . S
H490 C498 0.950 . S
H491 C500 0.950 . S
H492 C502 0.950 1_655 S
H493 C504 0.950 . S
H494 C506 0.950 . S
H495 C507 0.950 . S
C496 H488 0.950 . S
C496 C497 1.386 . S
C496 C498 1.391 . S
C497 C496 1.386 . S
C497 C501 1.393 . S
C498 H490 0.950 . S
C498 C496 1.391 . S
C498 C499 1.400 . S
C499 C498 1.400 . S
C499 C500 1.398 . S
C499 C505 1.491 . S
C500 H491 0.950 . S
C500 C499 1.398 . S
C500 C501 1.391 . S
C501 H489 0.950 . S
C501 C497 1.393 . S
C501 C500 1.391 . S
C502 H492 0.950 1_455 S
C502 C503 1.386 . S
C502 C504 1.391 . S
C503 C502 1.386 . S
C503 C507 1.393 . S
C504 H493 0.950 . S
C504 C502 1.391 . S
C504 C505 1.400 . S
C505 C499 1.491 . S
C505 C504 1.400 . S
C505 C506 1.398 . S
C506 H494 0.950 . S
C506 C505 1.398 . S
C506 C507 1.391 . S
C507 H495 0.950 . S
C507 C503 1.393 . S
C507 C506 1.391 . S
H508 C516 0.950 . S
H509 C521 0.950 . S
H510 C518 0.950 . S
H511 C520 0.950 . S
H512 C522 0.950 . S
H513 C524 0.950 . S
H514 C526 0.950 . S
H515 C527 0.950 1_565 S
C516 H508 0.950 . S
C516 C517 1.386 . S
C516 C518 1.391 . S
C517 C516 1.386 . S
C517 C521 1.393 . S
C518 H510 0.950 . S
C518 C516 1.391 . S
C518 C519 1.400 . S
C519 C518 1.400 . S
C519 C520 1.398 . S
C519 C525 1.491 . S
C520 H511 0.950 . S
C520 C519 1.398 . S
C520 C521 1.391 . S
C521 H509 0.950 . S
C521 C517 1.393 . S
C521 C520 1.391 . S
C522 H512 0.950 . S
C522 C523 1.386 . S
C522 C524 1.391 . S
C523 C522 1.386 . S
C523 C527 1.393 . S
C524 H513 0.950 . S
C524 C522 1.391 . S
C524 C525 1.400 . S
C525 C519 1.491 . S
C525 C524 1.400 . S
C525 C526 1.398 . S
C526 H514 0.950 . S
C526 C525 1.398 . S
C526 C527 1.391 . S
C527 H515 0.950 1_545 S
C527 C523 1.393 . S
C527 C526 1.391 . S
H528 C536 0.950 . S
H529 C541 0.950 . S
H530 C538 0.950 . S
H531 C540 0.950 . S
H532 C542 0.950 . S
H533 C544 0.950 . S
H534 C546 0.950 . S
H535 C547 0.950 . S
C536 H528 0.950 . S
C536 C537 1.386 . S
C536 C538 1.391 . S
C537 C536 1.386 . S
C537 C541 1.393 . S
C538 H530 0.950 . S
C538 C536 1.391 . S
C538 C539 1.400 . S
C539 C538 1.400 . S
C539 C540 1.398 . S
C539 C545 1.491 . S
C540 H531 0.950 . S
C540 C539 1.398 . S
C540 C541 1.391 . S
C541 H529 0.950 . S
C541 C537 1.393 . S
C541 C540 1.391 . S
C542 H532 0.950 . S
C542 C543 1.386 . S
C542 C544 1.391 . S
C543 C542 1.386 . S
C543 C547 1.393 . S
C544 H533 0.950 . S
C544 C542 1.391 . S
C544 C545 1.400 . S
C545 C539 1.491 . S
C545 C544 1.400 . S
C545 C546 1.398 . S
C546 H534 0.950 . S
C546 C545 1.398 . S
C546 C547 1.391 . S
C547 H535 0.950 . S
C547 C543 1.393 . S
C547 C546 1.391 . S
H548 C556 0.950 . S
H549 C561 0.950 . S
H550 C558 0.950 . S
H551 C560 0.950 . S
H552 C562 0.950 . S
H553 C564 0.950 . S
H554 C566 0.950 . S
H555 C567 0.950 . S
C556 H548 0.950 . S
C556 C557 1.386 . S
C556 C558 1.391 . S
C557 C556 1.386 . S
C557 C561 1.393 . S
C558 H550 0.950 . S
C558 C556 1.391 . S
C558 C559 1.400 . S
C559 C558 1.400 . S
C559 C560 1.398 . S
C559 C565 1.491 . S
C560 H551 0.950 . S
C560 C559 1.398 . S
C560 C561 1.391 . S
C561 H549 0.950 . S
C561 C557 1.393 . S
C561 C560 1.391 . S
C562 H552 0.950 . S
C562 C563 1.386 1_556 S
C562 C564 1.391 1_455 S
C563 C562 1.386 1_554 S
C563 C567 1.393 1_455 S
C564 H553 0.950 . S
C564 C562 1.391 1_655 S
C564 C565 1.400 . S
C565 C559 1.491 . S
C565 C564 1.400 . S
C565 C566 1.398 . S
C566 H554 0.950 . S
C566 C565 1.398 . S
C566 C567 1.391 1_556 S
C567 H555 0.950 . S
C567 C563 1.393 1_655 S
C567 C566 1.391 1_554 S
H568 C576 0.950 . S
H569 C581 0.950 . S
H570 C578 0.950 . S
H571 C580 0.950 . S
H572 C582 0.950 . S
H573 C584 0.950 . S
H574 C586 0.950 . S
H575 C587 0.950 1_545 S
C576 H568 0.950 . S
C576 C577 1.386 . S
C576 C578 1.391 . S
C577 C576 1.386 . S
C577 C581 1.393 . S
C578 H570 0.950 . S
C578 C576 1.391 . S
C578 C579 1.400 . S
C579 C578 1.400 . S
C579 C580 1.398 . S
C579 C585 1.491 . S
C580 H571 0.950 . S
C580 C579 1.398 . S
C580 C581 1.391 . S
C581 H569 0.950 . S
C581 C577 1.393 . S
C581 C580 1.391 . S
C582 H572 0.950 . S
C582 C583 1.386 . S
C582 C584 1.391 . S
C583 C582 1.386 . S
C583 C587 1.393 . S
C584 H573 0.950 . S
C584 C582 1.391 . S
C584 C585 1.400 . S
C585 C579 1.491 . S
C585 C584 1.400 . S
C585 C586 1.398 . S
C586 H574 0.950 . S
C586 C585 1.398 . S
C586 C587 1.391 . S
C587 H575 0.950 1_565 S
C587 C583 1.393 . S
C587 C586 1.391 . S
H588 C596 0.950 . S
H589 C601 0.950 . S
H590 C598 0.950 . S
H591 C600 0.950 . S
H592 C602 0.950 . S
H593 C604 0.950 . S
H594 C606 0.950 . S
H595 C607 0.950 . S
C596 H588 0.950 . S
C596 C597 1.386 . S
C596 C598 1.391 . S
C597 C596 1.386 . S
C597 C601 1.393 . S
C598 H590 0.950 . S
C598 C596 1.391 . S
C598 C599 1.400 . S
C599 C598 1.400 . S
C599 C600 1.398 . S
C599 C605 1.491 . S
C600 H591 0.950 . S
C600 C599 1.398 . S
C600 C601 1.391 . S
C601 H589 0.950 . S
C601 C597 1.393 . S
C601 C600 1.391 . S
C602 H592 0.950 . S
C602 C603 1.386 . S
C602 C604 1.391 . S
C603 C602 1.386 . S
C603 C607 1.393 . S
C604 H593 0.950 . S
C604 C602 1.391 . S
C604 C605 1.400 . S
C605 C599 1.491 . S
C605 C604 1.400 . S
C605 C606 1.398 . S
C606 H594 0.950 . S
C606 C605 1.398 . S
C606 C607 1.391 . S
C607 H595 0.950 . S
C607 C603 1.393 . S
C607 C606 1.391 . S
H608 C616 0.950 . S
H609 C621 0.950 . S
H610 C618 0.950 . S
H611 C620 0.950 . S
H612 C622 0.950 . S
H613 C624 0.950 . S
H614 C626 0.950 . S
H615 C627 0.950 . S
C616 H608 0.950 . S
C616 C617 1.386 . S
C616 C618 1.391 . S
C617 C616 1.386 . S
C617 C621 1.393 . S
C618 H610 0.950 . S
C618 C616 1.391 . S
C618 C619 1.400 . S
C619 C618 1.400 . S
C619 C620 1.398 . S
C619 C625 1.491 . S
C620 H611 0.950 . S
C620 C619 1.398 . S
C620 C621 1.391 . S
C621 H609 0.950 . S
C621 C617 1.393 . S
C621 C620 1.391 . S
C622 H612 0.950 . S
C622 C623 1.386 . S
C622 C624 1.391 . S
C623 C622 1.386 . S
C623 C627 1.393 1_455 S
C624 H613 0.950 . S
C624 C622 1.391 . S
C624 C625 1.400 . S
C625 C619 1.491 . S
C625 C624 1.400 . S
C625 C626 1.398 . S
C626 H614 0.950 . S
C626 C625 1.398 . S
C626 C627 1.391 1_455 S
C627 H615 0.950 . S
C627 C623 1.393 1_655 S
C627 C626 1.391 1_655 S
H628 C636 0.950 . S
H629 C641 0.950 . S
H630 C638 0.957 . S
H631 C640 0.950 . S
H632 C642 0.950 . S
H633 C644 0.950 . S
H634 C646 0.950 . S
H635 C647 0.950 . S
C636 H628 0.950 . S
C636 C637 1.369 1_565 S
C636 C638 1.391 1_565 S
C637 C636 1.369 1_545 S
C637 C641 1.423 . S
C638 H630 0.957 . S
C638 C636 1.391 1_545 S
C638 C639 1.400 . S
C639 C638 1.400 . S
C639 C640 1.398 . S
C639 C645 1.491 . S
C640 H631 0.950 . S
C640 C639 1.398 . S
C640 C641 1.391 . S
C641 H629 0.950 . S
C641 C637 1.423 . S
C641 C640 1.391 . S
C642 H632 0.950 . S
C642 C643 1.386 . S
C642 C644 1.391 . S
C643 C642 1.386 . S
C643 C647 1.393 . S
C644 H633 0.950 . S
C644 C642 1.391 . S
C644 C645 1.400 . S
C645 C639 1.491 . S
C645 C644 1.400 . S
C645 C646 1.398 . S
C646 H634 0.950 . S
C646 C645 1.398 . S
C646 C647 1.391 . S
C647 H635 0.950 . S
C647 C643 1.393 . S
C647 C646 1.391 . S
C177 C118 1.348 . S
C183 C6 1.357 . S
C197 C20 1.343 . S
C203 C132 1.354 . S
C217 C34 1.351 . S
C223 C146 1.345 . S
C237 C48 1.358 . S
C243 C160 1.343 . S
C257 C90 1.343 . S
C263 C62 1.354 . S
C277 C76 1.354 . S
C283 C104 1.352 . S
C297 C135 1.022 . S
C303 C9 0.989 . S
C317 C23 1.009 . S
C323 C149 0.995 . S
C337 C163 1.022 . S
C343 C37 0.990 . S
C357 C51 1.009 . S
C363 C93 0.995 . S
C377 C107 1.018 . S
C383 C65 0.995 . S
C397 C121 0.989 . S
C403 C79 1.017 . S
C417 C8 1.423 . S
C423 C77 1.437 . S
C437 C22 1.414 . S
C443 C7 1.441 . S
C457 C21 1.440 1_565 S
C463 C36 1.424 . S
C477 C50 1.434 . S
C483 C35 1.447 . S
C497 C64 1.421 . S
C503 C49 1.438 1_455 S
C517 C78 1.434 . S
C523 C63 1.449 1_545 S
C537 C92 1.417 . S
C543 C105 1.433 . S
C557 C106 1.418 . S
C563 C119 1.433 . S
C577 C120 1.431 . S
C583 C133 1.444 1_565 S
C597 C134 1.424 . S
C603 C147 1.441 . S
C617 C148 1.438 . S
C623 C161 1.451 1_455 S
C637 C91 1.435 1_545 S
C643 C162 1.439 . S
