# Generated by pormake.
# Topology unw, (4)-cn, num edge types: 1
# Building blocks:
#     Node 0, Type 0, BuildingBlock: MUDLON_clean_sbu_0, # of connection points: 4
#     Node 1, Type 0, BuildingBlock: MUDLON_clean_sbu_0, # of connection points: 4
#     Node 2, Type 0, BuildingBlock: MUDLON_clean_sbu_0, # of connection points: 4
#     Node 3, Type 0, BuildingBlock: MUDLON_clean_sbu_0, # of connection points: 4
#     Node 4, Type 0, BuildingBlock: MUDLON_clean_sbu_0, # of connection points: 4
#     Node 5, Type 0, BuildingBlock: MUDLON_clean_sbu_0, # of connection points: 4
#     Node 6, Type 0, BuildingBlock: MUDLON_clean_sbu_0, # of connection points: 4
#     Node 7, Type 0, BuildingBlock: MUDLON_clean_sbu_0, # of connection points: 4
#     Node 8, Type 0, BuildingBlock: MUDLON_clean_sbu_0, # of connection points: 4
#     Node 9, Type 0, BuildingBlock: MUDLON_clean_sbu_0, # of connection points: 4
#     Node 10, Type 0, BuildingBlock: MUDLON_clean_sbu_0, # of connection points: 4
#     Node 11, Type 0, BuildingBlock: MUDLON_clean_sbu_0, # of connection points: 4
#     Node 12, Type 0, BuildingBlock: MUDLON_clean_sbu_0, # of connection points: 4
#     Node 13, Type 0, BuildingBlock: MUDLON_clean_sbu_0, # of connection points: 4
#     Node 14, Type 0, BuildingBlock: MUDLON_clean_sbu_0, # of connection points: 4
#     Node 15, Type 0, BuildingBlock: MUDLON_clean_sbu_0, # of connection points: 4
#     Node 16, Type 0, BuildingBlock: MUDLON_clean_sbu_0, # of connection points: 4
#     Node 17, Type 0, BuildingBlock: MUDLON_clean_sbu_0, # of connection points: 4
#     Node 18, Type 0, BuildingBlock: MUDLON_clean_sbu_0, # of connection points: 4
#     Node 19, Type 0, BuildingBlock: MUDLON_clean_sbu_0, # of connection points: 4
#     Node 20, Type 0, BuildingBlock: MUDLON_clean_sbu_0, # of connection points: 4
#     Node 21, Type 0, BuildingBlock: MUDLON_clean_sbu_0, # of connection points: 4
#     Node 22, Type 0, BuildingBlock: MUDLON_clean_sbu_0, # of connection points: 4
#     Node 23, Type 0, BuildingBlock: MUDLON_clean_sbu_0, # of connection points: 4
#     Edge 24, Type (0, 0), BuildingBlock: EZIPEK_clean_linker_0, # of connection points: 2
#     Edge 25, Type (0, 0), BuildingBlock: EZIPEK_clean_linker_0, # of connection points: 2
#     Edge 26, Type (0, 0), BuildingBlock: EZIPEK_clean_linker_0, # of connection points: 2
#     Edge 27, Type (0, 0), BuildingBlock: EZIPEK_clean_linker_0, # of connection points: 2
#     Edge 28, Type (0, 0), BuildingBlock: EZIPEK_clean_linker_0, # of connection points: 2
#     Edge 29, Type (0, 0), BuildingBlock: EZIPEK_clean_linker_0, # of connection points: 2
#     Edge 30, Type (0, 0), BuildingBlock: EZIPEK_clean_linker_0, # of connection points: 2
#     Edge 31, Type (0, 0), BuildingBlock: EZIPEK_clean_linker_0, # of connection points: 2
#     Edge 32, Type (0, 0), BuildingBlock: EZIPEK_clean_linker_0, # of connection points: 2
#     Edge 33, Type (0, 0), BuildingBlock: EZIPEK_clean_linker_0, # of connection points: 2
#     Edge 34, Type (0, 0), BuildingBlock: EZIPEK_clean_linker_0, # of connection points: 2
#     Edge 35, Type (0, 0), BuildingBlock: EZIPEK_clean_linker_0, # of connection points: 2
#     Edge 36, Type (0, 0), BuildingBlock: EZIPEK_clean_linker_0, # of connection points: 2
#     Edge 37, Type (0, 0), BuildingBlock: EZIPEK_clean_linker_0, # of connection points: 2
#     Edge 38, Type (0, 0), BuildingBlock: EZIPEK_clean_linker_0, # of connection points: 2
#     Edge 39, Type (0, 0), BuildingBlock: EZIPEK_clean_linker_0, # of connection points: 2
#     Edge 40, Type (0, 0), BuildingBlock: EZIPEK_clean_linker_0, # of connection points: 2
#     Edge 41, Type (0, 0), BuildingBlock: EZIPEK_clean_linker_0, # of connection points: 2
#     Edge 42, Type (0, 0), BuildingBlock: EZIPEK_clean_linker_0, # of connection points: 2
#     Edge 43, Type (0, 0), BuildingBlock: EZIPEK_clean_linker_0, # of connection points: 2
#     Edge 44, Type (0, 0), BuildingBlock: EZIPEK_clean_linker_0, # of connection points: 2
#     Edge 45, Type (0, 0), BuildingBlock: EZIPEK_clean_linker_0, # of connection points: 2
#     Edge 46, Type (0, 0), BuildingBlock: EZIPEK_clean_linker_0, # of connection points: 2
#     Edge 47, Type (0, 0), BuildingBlock: EZIPEK_clean_linker_0, # of connection points: 2
#     Edge 48, Type (0, 0), BuildingBlock: EZIPEK_clean_linker_0, # of connection points: 2
#     Edge 49, Type (0, 0), BuildingBlock: EZIPEK_clean_linker_0, # of connection points: 2
#     Edge 50, Type (0, 0), BuildingBlock: EZIPEK_clean_linker_0, # of connection points: 2
#     Edge 51, Type (0, 0), BuildingBlock: EZIPEK_clean_linker_0, # of connection points: 2
#     Edge 52, Type (0, 0), BuildingBlock: EZIPEK_clean_linker_0, # of connection points: 2
#     Edge 53, Type (0, 0), BuildingBlock: EZIPEK_clean_linker_0, # of connection points: 2
#     Edge 54, Type (0, 0), BuildingBlock: EZIPEK_clean_linker_0, # of connection points: 2
#     Edge 55, Type (0, 0), BuildingBlock: EZIPEK_clean_linker_0, # of connection points: 2
#     Edge 56, Type (0, 0), BuildingBlock: EZIPEK_clean_linker_0, # of connection points: 2
#     Edge 57, Type (0, 0), BuildingBlock: EZIPEK_clean_linker_0, # of connection points: 2
#     Edge 58, Type (0, 0), BuildingBlock: EZIPEK_clean_linker_0, # of connection points: 2
#     Edge 59, Type (0, 0), BuildingBlock: EZIPEK_clean_linker_0, # of connection points: 2
#     Edge 60, Type (0, 0), BuildingBlock: EZIPEK_clean_linker_0, # of connection points: 2
#     Edge 61, Type (0, 0), BuildingBlock: EZIPEK_clean_linker_0, # of connection points: 2
#     Edge 62, Type (0, 0), BuildingBlock: EZIPEK_clean_linker_0, # of connection points: 2
#     Edge 63, Type (0, 0), BuildingBlock: EZIPEK_clean_linker_0, # of connection points: 2
#     Edge 64, Type (0, 0), BuildingBlock: EZIPEK_clean_linker_0, # of connection points: 2
#     Edge 65, Type (0, 0), BuildingBlock: EZIPEK_clean_linker_0, # of connection points: 2
#     Edge 66, Type (0, 0), BuildingBlock: EZIPEK_clean_linker_0, # of connection points: 2
#     Edge 67, Type (0, 0), BuildingBlock: EZIPEK_clean_linker_0, # of connection points: 2
#     Edge 68, Type (0, 0), BuildingBlock: EZIPEK_clean_linker_0, # of connection points: 2
#     Edge 69, Type (0, 0), BuildingBlock: EZIPEK_clean_linker_0, # of connection points: 2
#     Edge 70, Type (0, 0), BuildingBlock: EZIPEK_clean_linker_0, # of connection points: 2
#     Edge 71, Type (0, 0), BuildingBlock: EZIPEK_clean_linker_0, # of connection points: 2
# Relax obj value: 0.469
# Max RMSD: 0.265
# Mean RMSD: 0.265
data_MOF--net-unw--node1-MUDLON_clean_sbu_0--edge1-EZIPEK_clean_linker_0
_symmetry_space_group_name_H-M    P1
_symmetry_Int_Tables_number       1
_symmetry_cell_setting            triclinic
loop_
_symmetry_equiv_pos_as_xyz
'x, y, z'
_cell_length_a     37.179408
_cell_length_b     37.029152
_cell_length_c     37.071027
_cell_angle_alpha  89.84108
_cell_angle_beta   89.753004
_cell_angle_gamma 89.933329
loop_
_atom_site_label
_atom_site_type_symbol
_atom_site_fract_x
_atom_site_fract_y
_atom_site_fract_z
_atom_type_partial_charge
Mg0 Mg 0.12126 0.39439 0.24999 0.0
C1 C 0.15169 0.33571 0.2866 0.0
O2 O 0.13201 0.3246 0.25947 0.0
C3 C 0.15707 0.46758 0.24792 0.0
O4 O 0.17647 0.45315 0.27375 0.0
C5 C 0.0639 0.37264 0.30138 0.0
O6 O 0.08706 0.38931 0.32216 0.0
O7 O 0.06891 0.37296 0.26726 0.0
O8 O 0.1547 0.36968 0.29064 0.0
O9 O 0.14756 0.36993 0.20332 0.0
C10 C 0.18106 0.37691 0.20517 0.0
O11 O 0.19176 0.39559 0.23307 0.0
O12 O 0.12808 0.45208 0.23848 0.0
Mg13 Mg 0.63156 0.13403 0.25464 0.0
C14 C 0.66435 0.15296 0.17722 0.0
O15 O 0.67224 0.14282 0.1442 0.0
C16 C 0.66186 0.06204 0.28187 0.0
O17 O 0.68504 0.06919 0.25608 0.0
C18 C 0.55257 0.14203 0.23233 0.0
O19 O 0.55795 0.10799 0.22396 0.0
O20 O 0.57744 0.15912 0.24878 0.0
O21 O 0.65041 0.1297 0.19873 0.0
O22 O 0.67196 0.16494 0.28347 0.0
C23 C 0.70449 0.15844 0.27461 0.0
O24 O 0.71078 0.13722 0.2471 0.0
O25 O 0.63438 0.08246 0.28569 0.0
Mg26 Mg 0.87683 0.63201 0.25221 0.0
C27 C 0.86364 0.69664 0.29409 0.0
O28 O 0.89321 0.70335 0.27586 0.0
C29 C 0.84186 0.55292 0.25327 0.0
O30 O 0.83709 0.55602 0.28826 0.0
C31 C 0.95021 0.64272 0.28621 0.0
O32 O 0.93684 0.61809 0.30804 0.0
O33 O 0.934 0.64899 0.25652 0.0
O34 O 0.85049 0.66477 0.29334 0.0
O35 O 0.84494 0.65579 0.20974 0.0
C36 C 0.81249 0.64511 0.21381 0.0
O37 O 0.80416 0.62444 0.24139 0.0
O38 O 0.86049 0.57667 0.2367 0.0
Mg39 Mg 0.38315 0.88242 0.2531 0.0
C40 C 0.36963 0.81825 0.21607 0.0
O41 O 0.38683 0.81195 0.24627 0.0
C42 C 0.34528 0.95968 0.25344 0.0
O43 O 0.32935 0.95056 0.22325 0.0
C44 C 0.4475 0.86329 0.2085 0.0
O45 O 0.42275 0.87241 0.185 0.0
O46 O 0.44061 0.86819 0.24205 0.0
O47 O 0.35875 0.85052 0.21066 0.0
O48 O 0.35412 0.8571 0.29761 0.0
C49 C 0.32035 0.85998 0.29218 0.0
O50 O 0.30922 0.87696 0.26313 0.0
O51 O 0.36943 0.939 0.26652 0.0
Mg52 Mg 0.1453 0.6163 0.72188 0.0
C53 C 0.19679 0.63287 0.65285 0.0
O54 O 0.20988 0.6208 0.62219 0.0
C55 C 0.18111 0.54523 0.74923 0.0
O56 O 0.19816 0.54772 0.71821 0.0
C57 C 0.07078 0.62786 0.68103 0.0
O58 O 0.08741 0.61086 0.65477 0.0
O59 O 0.08699 0.63211 0.71125 0.0
O60 O 0.17644 0.6117 0.67116 0.0
O61 O 0.17177 0.65642 0.75508 0.0
C62 C 0.20584 0.65396 0.75716 0.0
O63 O 0.22254 0.62941 0.73781 0.0
O64 O 0.15578 0.5677 0.75603 0.0
Mg65 Mg 0.38593 0.11755 0.74399 0.0
C66 C 0.33112 0.1448 0.80501 0.0
O67 O 0.31405 0.11381 0.8059 0.0
C68 C 0.36273 0.0361 0.74015 0.0
O69 O 0.33903 0.04429 0.76521 0.0
C70 C 0.45022 0.14585 0.7823 0.0
O71 O 0.42987 0.13284 0.80829 0.0
O72 O 0.44013 0.14172 0.74958 0.0
O73 O 0.36027 0.14786 0.78743 0.0
O74 O 0.34956 0.13794 0.70163 0.0
C75 C 0.31936 0.12179 0.6981 0.0
O76 O 0.31468 0.09022 0.71333 0.0
O77 O 0.38735 0.05877 0.73243 0.0
Mg78 Mg 0.856 0.36796 0.73439 0.0
C79 C 0.81056 0.32556 0.66904 0.0
O80 O 0.78508 0.33218 0.64546 0.0
C81 C 0.83116 0.45117 0.73998 0.0
O82 O 0.80908 0.4432 0.7136 0.0
C83 C 0.92338 0.3366 0.69544 0.0
O84 O 0.90201 0.3413 0.66771 0.0
O85 O 0.91177 0.34505 0.72693 0.0
O86 O 0.82115 0.35214 0.68855 0.0
O87 O 0.82295 0.34849 0.77971 0.0
C88 C 0.79235 0.36417 0.77835 0.0
O89 O 0.78656 0.38747 0.75241 0.0
O90 O 0.85485 0.42767 0.74934 0.0
Mg91 Mg 0.62515 0.88978 0.76154 0.0
C92 C 0.65711 0.85892 0.8398 0.0
O93 O 0.63863 0.8764 0.86443 0.0
C94 C 0.66975 0.95567 0.74066 0.0
O95 O 0.69518 0.93351 0.75118 0.0
C96 C 0.55229 0.88603 0.79994 0.0
O97 O 0.5678 0.91145 0.819 0.0
O98 O 0.56852 0.87396 0.77201 0.0
O99 O 0.65191 0.86451 0.80656 0.0
O100 O 0.6534 0.85754 0.72055 0.0
C101 C 0.68572 0.84844 0.72813 0.0
O102 O 0.7004 0.86029 0.75792 0.0
O103 O 0.63696 0.9462 0.74471 0.0
Mg104 Mg 0.28505 0.16182 0.3626 0.0
C105 C 0.35874 0.19363 0.33126 0.0
O106 O 0.39057 0.2079 0.33664 0.0
C107 C 0.25726 0.19365 0.43364 0.0
O108 O 0.27728 0.21994 0.42093 0.0
C109 C 0.30091 0.08061 0.34511 0.0
O110 O 0.30604 0.0778 0.38004 0.0
O111 O 0.28986 0.11054 0.33206 0.0
O112 O 0.33892 0.18636 0.35873 0.0
O113 O 0.24868 0.19888 0.33673 0.0
C114 C 0.25612 0.23239 0.33656 0.0
O115 O 0.28772 0.24271 0.34811 0.0
O116 O 0.25789 0.16328 0.41709 0.0
Mg117 Mg 0.88037 0.25956 0.38597 0.0
C118 C 0.86712 0.30245 0.32484 0.0
O119 O 0.89542 0.28244 0.31773 0.0
C120 C 0.84105 0.25852 0.46103 0.0
O121 O 0.81969 0.28288 0.44669 0.0
C122 C 0.94984 0.29995 0.38097 0.0
O123 O 0.93238 0.31967 0.40471 0.0
O124 O 0.93713 0.2692 0.37241 0.0
O125 O 0.85432 0.30259 0.35683 0.0
O126 O 0.85184 0.21821 0.35582 0.0
C127 C 0.81797 0.2215 0.36051 0.0
O128 O 0.80614 0.24393 0.38518 0.0
O129 O 0.86791 0.24788 0.44251 0.0
Mg130 Mg 0.73957 0.8688 0.38538 0.0
C131 C 0.78249 0.81203 0.35949 0.0
O132 O 0.74997 0.79999 0.36646 0.0
C133 C 0.73089 0.94654 0.35693 0.0
O134 O 0.75377 0.93496 0.33256 0.0
C135 C 0.77535 0.84249 0.4535 0.0
O136 O 0.79824 0.86682 0.44162 0.0
O137 O 0.74463 0.84003 0.43804 0.0
O138 O 0.78885 0.84559 0.3641 0.0
O139 O 0.7023 0.84996 0.34333 0.0
C140 C 0.71486 0.85365 0.31138 0.0
O141 O 0.74735 0.86678 0.30711 0.0
O142 O 0.72467 0.92702 0.38472 0.0
Mg143 Mg 0.12777 0.76786 0.37365 0.0
C144 C 0.16096 0.68339 0.3554 0.0
O145 O 0.15499 0.65712 0.37846 0.0
C146 C 0.15058 0.77349 0.45353 0.0
O147 O 0.17111 0.74593 0.44485 0.0
C148 C 0.06259 0.72827 0.35186 0.0
O149 O 0.07836 0.70664 0.37504 0.0
O150 O 0.07521 0.76009 0.34714 0.0
O151 O 0.14871 0.71461 0.36211 0.0
O152 O 0.16853 0.80427 0.35121 0.0
C153 C 0.19942 0.79438 0.36238 0.0
O154 O 0.20105 0.76319 0.37891 0.0
O155 O 0.12735 0.78483 0.43092 0.0
Mg156 Mg 0.24277 0.86275 0.6442 0.0
C157 C 0.22856 0.78555 0.67142 0.0
O158 O 0.21245 0.80385 0.69711 0.0
C159 C 0.28821 0.92667 0.66496 0.0
O160 O 0.25548 0.9372 0.67313 0.0
C161 C 0.19014 0.84371 0.5876 0.0
O162 O 0.17881 0.82505 0.61547 0.0
O163 O 0.21451 0.86743 0.59245 0.0
O164 O 0.24649 0.80265 0.64732 0.0
O165 O 0.21283 0.87818 0.69317 0.0
C166 C 0.21819 0.88305 0.72703 0.0
O167 O 0.19007 0.89232 0.74654 0.0
O168 O 0.29249 0.89672 0.64837 0.0
Mg169 Mg 0.13955 0.25454 0.63207 0.0
C170 C 0.18577 0.30559 0.69028 0.0
O171 O 0.21106 0.31741 0.66842 0.0
C172 C 0.1836 0.25222 0.55782 0.0
O173 O 0.20898 0.26963 0.57499 0.0
C174 C 0.07011 0.29086 0.65821 0.0
O175 O 0.09449 0.31558 0.6648 0.0
O176 O 0.08021 0.26115 0.64344 0.0
O177 O 0.16111 0.28485 0.67868 0.0
O178 O 0.16773 0.20468 0.64596 0.0
C179 C 0.2016 0.21019 0.64797 0.0
O180 O 0.21361 0.24315 0.64322 0.0
O181 O 0.15282 0.2482 0.57292 0.0
Mg182 Mg 0.76728 0.14927 0.64879 0.0
C183 C 0.84772 0.17227 0.66782 0.0
O184 O 0.88132 0.16324 0.67387 0.0
C185 C 0.743 0.07537 0.67586 0.0
O186 O 0.7692 0.08185 0.69848 0.0
C187 C 0.77986 0.16621 0.57178 0.0
O188 O 0.79646 0.1354 0.57752 0.0
O189 O 0.76284 0.17962 0.59839 0.0
O190 O 0.82508 0.14719 0.66084 0.0
O191 O 0.74223 0.17517 0.69393 0.0
C192 C 0.75572 0.16844 0.72467 0.0
O193 O 0.78505 0.14883 0.72674 0.0
O194 O 0.73782 0.09714 0.64964 0.0
Mg195 Mg 0.85047 0.71193 0.64056 0.0
C196 C 0.81594 0.63957 0.6684 0.0
O197 O 0.80037 0.60841 0.66246 0.0
C198 C 0.81961 0.73961 0.56545 0.0
O199 O 0.79813 0.71164 0.56818 0.0
C200 C 0.92721 0.67893 0.63973 0.0
O201 O 0.91601 0.66803 0.60803 0.0
O202 O 0.90679 0.69971 0.65837 0.0
O203 O 0.82398 0.65944 0.64126 0.0
O204 O 0.81618 0.74427 0.67618 0.0
C205 C 0.78395 0.74547 0.66445 0.0
O206 O 0.77591 0.72578 0.6363 0.0
O207 O 0.84458 0.74389 0.58882 0.0
Mg208 Mg 0.35123 0.23254 0.14372 0.0
C209 C 0.31383 0.16405 0.18377 0.0
O210 O 0.29442 0.13465 0.18041 0.0
C211 C 0.32374 0.25162 0.06708 0.0
O212 O 0.29632 0.23241 0.07844 0.0
C213 C 0.41971 0.19634 0.17068 0.0
O214 O 0.40386 0.16932 0.15433 0.0
O215 O 0.40475 0.22742 0.16998 0.0
O216 O 0.32064 0.18266 0.15528 0.0
O217 O 0.318 0.2762 0.16327 0.0
C218 C 0.28416 0.27311 0.15916 0.0
O219 O 0.27141 0.24222 0.14763 0.0
O220 O 0.35215 0.25271 0.08644 0.0
Mg221 Mg 0.35065 0.78715 0.88151 0.0
C222 C 0.32376 0.8332 0.82792 0.0
O223 O 0.3521 0.81621 0.81522 0.0
C224 C 0.30918 0.77349 0.95162 0.0
O225 O 0.2878 0.79803 0.93763 0.0
C226 C 0.41651 0.83386 0.86048 0.0
O227 O 0.39444 0.85973 0.87047 0.0
O228 O 0.40668 0.80094 0.86432 0.0
O229 O 0.31607 0.82963 0.86119 0.0
O230 O 0.32731 0.74443 0.84828 0.0
C231 C 0.29387 0.73874 0.85381 0.0
O232 O 0.27768 0.75522 0.88056 0.0
O233 O 0.33969 0.76772 0.93681 0.0
Mg234 Mg 0.2429 0.35272 0.8701 0.0
C235 C 0.16578 0.32574 0.84397 0.0
O236 O 0.13221 0.31776 0.85165 0.0
C237 C 0.26219 0.3249 0.94617 0.0
O238 O 0.23486 0.30375 0.93913 0.0
C239 C 0.22825 0.43402 0.85224 0.0
O240 O 0.22115 0.43592 0.88692 0.0
O241 O 0.24144 0.40474 0.83948 0.0
O242 O 0.1863 0.33605 0.86966 0.0
O243 O 0.27218 0.3085 0.84495 0.0
C244 C 0.26097 0.27688 0.85274 0.0
O245 O 0.23116 0.27339 0.87145 0.0
O246 O 0.26956 0.35069 0.92427 0.0
Mg247 Mg 0.62784 0.26048 0.8855 0.0
C248 C 0.69502 0.22567 0.85586 0.0
O249 O 0.70957 0.25622 0.86593 0.0
C250 C 0.66106 0.27145 0.95909 0.0
O251 O 0.68717 0.25352 0.94319 0.0
C252 C 0.57486 0.22418 0.83539 0.0
O253 O 0.60514 0.21929 0.81774 0.0
O254 O 0.57512 0.24195 0.86493 0.0
O255 O 0.66347 0.2179 0.86653 0.0
O256 O 0.64912 0.30835 0.85742 0.0
C257 C 0.67499 0.32621 0.87115 0.0
O258 O 0.6853 0.31721 0.90363 0.0
O259 O 0.63073 0.27343 0.94339 0.0
Mg260 Mg 0.77014 0.65744 0.84911 0.0
C261 C 0.84626 0.68276 0.81664 0.0
O262 O 0.87764 0.6981 0.82187 0.0
C263 C 0.75169 0.68006 0.93028 0.0
O264 O 0.78348 0.69545 0.93045 0.0
C265 C 0.80057 0.58554 0.81943 0.0
O266 O 0.82899 0.59873 0.83563 0.0
O267 O 0.771 0.60344 0.82104 0.0
O268 O 0.82498 0.67933 0.84377 0.0
O269 O 0.73652 0.70183 0.82945 0.0
C270 C 0.74526 0.73095 0.84565 0.0
O271 O 0.77448 0.7309 0.86535 0.0
O272 O 0.74324 0.65949 0.90385 0.0
Mg273 Mg 0.63265 0.74891 0.11973 0.0
C274 C 0.67406 0.80821 0.16935 0.0
O275 O 0.69428 0.82118 0.14322 0.0
C276 C 0.64814 0.72095 0.0439 0.0
O277 O 0.62293 0.69822 0.05411 0.0
C278 C 0.56959 0.79373 0.1375 0.0
O279 O 0.59525 0.81674 0.12934 0.0
O280 O 0.57521 0.76008 0.13176 0.0
O281 O 0.65119 0.78383 0.16284 0.0
O282 O 0.66233 0.70323 0.14225 0.0
C283 C 0.69439 0.70036 0.13001 0.0
O284 O 0.70397 0.71929 0.10164 0.0
O285 O 0.65353 0.74914 0.06314 0.0
Mg286 Mg 0.23539 0.65427 0.13842 0.0
C287 C 0.28603 0.70835 0.15577 0.0
O288 O 0.25501 0.72408 0.14932 0.0
C289 C 0.23772 0.57731 0.16991 0.0
O290 O 0.27109 0.58494 0.17844 0.0
C291 C 0.25884 0.68037 0.06694 0.0
O292 O 0.28748 0.66465 0.08043 0.0
O293 O 0.22908 0.67751 0.08404 0.0
O294 O 0.28822 0.67417 0.15292 0.0
O295 O 0.20303 0.67612 0.18229 0.0
C296 C 0.21847 0.6677 0.21178 0.0
O297 O 0.25015 0.65229 0.21054 0.0
O298 O 0.22082 0.59793 0.14827 0.0
Mg299 Mg 0.73031 0.37022 0.15851 0.0
C300 C 0.78329 0.35733 0.20998 0.0
O301 O 0.75481 0.37123 0.22586 0.0
C302 C 0.72001 0.36158 0.07212 0.0
O303 O 0.74054 0.38935 0.06419 0.0
C304 C 0.76827 0.44009 0.17131 0.0
O305 O 0.79219 0.41945 0.15528 0.0
O306 O 0.73588 0.42841 0.17315 0.0
O307 O 0.78209 0.35164 0.17624 0.0
O308 O 0.6985 0.33064 0.18951 0.0
C309 C 0.708 0.29958 0.1778 0.0
O310 O 0.73303 0.29809 0.15272 0.0
O311 O 0.71428 0.35279 0.10472 0.0
C312 C 0.20049 0.52042 0.16988 0.0
C313 C 0.21742 0.54846 0.18956 0.0
C314 C 0.18591 0.52827 0.24457 0.0
C315 C 0.17287 0.49764 0.22614 0.0
N316 N 0.17097 0.46232 0.1712 0.0
N317 N 0.23066 0.57511 0.24781 0.0
C318 C 0.18065 0.49325 0.18867 0.0
C319 C 0.21148 0.55124 0.22752 0.0
N320 N 0.2036 0.51946 0.13313 0.0
N321 N 0.17294 0.53606 0.27824 0.0
H322 H 0.25023 0.5921 0.23735 0.0
H323 H 0.22987 0.57548 0.2759 0.0
H324 H 0.15365 0.5201 0.29117 0.0
H325 H 0.17812 0.56026 0.29151 0.0
H326 H 0.18793 0.50289 0.11686 0.0
H327 H 0.2205 0.53663 0.11855 0.0
H328 H 0.18072 0.45524 0.1458 0.0
H329 H 0.15485 0.44243 0.18257 0.0
C330 C 0.49334 0.17565 0.24025 0.0
C331 C 0.52044 0.16135 0.2171 0.0
C332 C 0.48499 0.18068 0.16427 0.0
C333 C 0.45592 0.19012 0.18718 0.0
N334 N 0.43168 0.19715 0.24696 0.0
N335 N 0.54133 0.14874 0.15648 0.0
C336 C 0.4601 0.18829 0.22524 0.0
C337 C 0.51612 0.16366 0.17894 0.0
N338 N 0.49918 0.17663 0.27662 0.0
N339 N 0.48313 0.18901 0.12836 0.0
H340 H 0.56546 0.13769 0.16546 0.0
H341 H 0.53748 0.14528 0.12891 0.0
H342 H 0.46089 0.20189 0.11699 0.0
H343 H 0.50474 0.18661 0.11058 0.0
H344 H 0.48236 0.18975 0.29486 0.0
H345 H 0.52225 0.16606 0.28857 0.0
H346 H 0.43098 0.19248 0.27462 0.0
H347 H 0.40781 0.20793 0.23692 0.0
C348 C 0.81325 0.49048 0.17614 0.0
C349 C 0.78168 0.47367 0.19008 0.0
C350 C 0.78523 0.51558 0.24147 0.0
C351 C 0.8211 0.52539 0.23176 0.0
N352 N 0.87142 0.51461 0.19149 0.0
N353 N 0.74146 0.46766 0.2418 0.0
C354 C 0.83573 0.51079 0.19946 0.0
C355 C 0.76849 0.48554 0.22429 0.0
N356 N 0.82157 0.48773 0.14035 0.0
N357 N 0.76602 0.53582 0.26553 0.0
H358 H 0.72862 0.44492 0.23187 0.0
H359 H 0.7342 0.47361 0.26834 0.0
H360 H 0.77536 0.56006 0.27611 0.0
H361 H 0.73888 0.5311 0.27095 0.0
H362 H 0.84298 0.50168 0.12857 0.0
H363 H 0.80439 0.47541 0.1219 0.0
H364 H 0.88348 0.50189 0.16947 0.0
H365 H 0.88971 0.52646 0.20907 0.0
C366 C 0.52577 0.79657 0.19064 0.0
C367 C 0.5364 0.80823 0.15553 0.0
C368 C 0.49626 0.86062 0.16173 0.0
C369 C 0.48157 0.84641 0.19425 0.0
N370 N 0.47975 0.7969 0.2371 0.0
N371 N 0.52541 0.84748 0.10482 0.0
C372 C 0.49563 0.81331 0.20813 0.0
C373 C 0.51966 0.83909 0.14029 0.0
N374 N 0.54536 0.7708 0.20825 0.0
N375 N 0.48896 0.89545 0.1519 0.0
H376 H 0.54137 0.83162 0.08787 0.0
H377 H 0.51124 0.86772 0.09138 0.0
H378 H 0.47382 0.91287 0.16804 0.0
H379 H 0.50146 0.90823 0.13013 0.0
H380 H 0.54141 0.76439 0.23536 0.0
H381 H 0.56766 0.75805 0.19688 0.0
H382 H 0.48612 0.77073 0.24529 0.0
H383 H 0.45837 0.80804 0.2514 0.0
C384 C 0.24203 0.4834 0.80649 0.0
C385 C 0.21643 0.464 0.82741 0.0
C386 C 0.1676 0.49618 0.79563 0.0
C387 C 0.19313 0.51772 0.7768 0.0
N388 N 0.25503 0.53732 0.77166 0.0
N389 N 0.15444 0.45796 0.847 0.0
C390 C 0.2305 0.51277 0.78416 0.0
C391 C 0.17918 0.47263 0.82388 0.0
N392 N 0.27757 0.47413 0.80813 0.0
N393 N 0.13244 0.49612 0.78497 0.0
H394 H 0.16067 0.43869 0.86649 0.0
H395 H 0.12786 0.46684 0.84841 0.0
H396 H 0.12298 0.51137 0.76333 0.0
H397 H 0.11346 0.47794 0.79493 0.0
H398 H 0.29687 0.48413 0.79027 0.0
H399 H 0.28748 0.45469 0.82591 0.0
H400 H 0.28192 0.53739 0.7794 0.0
H401 H 0.24799 0.56012 0.75677 0.0
C402 C 0.5196 0.22144 0.7961 0.0
C403 C 0.54198 0.20518 0.8225 0.0
C404 C 0.50863 0.14826 0.816 0.0
C405 C 0.48384 0.16552 0.79246 0.0
N406 N 0.46258 0.22049 0.7645 0.0
N407 N 0.55524 0.15459 0.86121 0.0
C408 C 0.4886 0.20261 0.78344 0.0
C409 C 0.53567 0.16901 0.83354 0.0
N410 N 0.52823 0.25478 0.78274 0.0
N411 N 0.50718 0.11162 0.82047 0.0
H412 H 0.57565 0.16871 0.87425 0.0
H413 H 0.54932 0.12986 0.87327 0.0
H414 H 0.48857 0.09543 0.80712 0.0
H415 H 0.52652 0.09682 0.83438 0.0
H416 H 0.51561 0.26631 0.76048 0.0
H417 H 0.54976 0.26993 0.79242 0.0
H418 H 0.46249 0.24836 0.76074 0.0
H419 H 0.43945 0.20797 0.75491 0.0
C420 C 0.81559 0.51849 0.8188 0.0
C421 C 0.80435 0.55 0.79982 0.0
C422 C 0.81612 0.5182 0.74254 0.0
C423 C 0.8246 0.48563 0.76124 0.0
N424 N 0.82302 0.45349 0.8182 0.0
N425 N 0.7855 0.57598 0.7434 0.0
C426 C 0.82198 0.48544 0.79971 0.0
C427 C 0.80186 0.54857 0.76168 0.0
N428 N 0.81972 0.51983 0.85538 0.0
N429 N 0.82359 0.52108 0.70654 0.0
H430 H 0.77576 0.59916 0.75592 0.0
H431 H 0.77803 0.57357 0.7165 0.0
H432 H 0.83598 0.50051 0.69186 0.0
H433 H 0.82136 0.54527 0.69231 0.0
H434 H 0.83244 0.49955 0.87013 0.0
H435 H 0.81201 0.54206 0.87083 0.0
H436 H 0.81705 0.45128 0.8456 0.0
H437 H 0.82612 0.42856 0.80581 0.0
C438 C 0.48576 0.87284 0.79341 0.0
C439 C 0.51797 0.86933 0.81349 0.0
C440 C 0.48443 0.83633 0.861 0.0
C441 C 0.45164 0.84369 0.843 0.0
N442 N 0.4206 0.87285 0.79362 0.0
N443 N 0.54744 0.85071 0.86846 0.0
C444 C 0.4522 0.86289 0.80955 0.0
C445 C 0.51713 0.85178 0.8478 0.0
N446 N 0.48706 0.88594 0.75891 0.0
N447 N 0.48443 0.8147 0.89097 0.0
H448 H 0.57226 0.85994 0.85939 0.0
H449 H 0.54766 0.84284 0.89544 0.0
H450 H 0.46103 0.80459 0.90278 0.0
H451 H 0.50776 0.80454 0.90269 0.0
H452 H 0.46539 0.88492 0.74123 0.0
H453 H 0.51057 0.89551 0.74685 0.0
H454 H 0.41905 0.89069 0.77193 0.0
H455 H 0.3955 0.86553 0.80361 0.0
C456 C 0.19358 0.25111 0.49003 0.0
C457 C 0.19334 0.23269 0.52355 0.0
C458 C 0.22929 0.18349 0.49636 0.0
C459 C 0.2305 0.20256 0.46309 0.0
N460 N 0.20101 0.24624 0.4252 0.0
N461 N 0.19903 0.17552 0.5541 0.0
C462 C 0.20864 0.23389 0.45902 0.0
C463 C 0.20727 0.19689 0.5252 0.0
N464 N 0.18002 0.28531 0.48785 0.0
N465 N 0.25045 0.15375 0.50123 0.0
H466 H 0.18247 0.18441 0.57504 0.0
H467 H 0.20579 0.14824 0.55558 0.0
H468 H 0.26649 0.14303 0.48076 0.0
H469 H 0.25383 0.14126 0.52621 0.0
H470 H 0.18311 0.30165 0.46512 0.0
H471 H 0.1673 0.29791 0.50959 0.0
H472 H 0.18281 0.26705 0.42013 0.0
H473 H 0.20975 0.23271 0.40212 0.0
C474 C 0.81609 0.17566 0.51502 0.0
C475 C 0.78957 0.18876 0.53918 0.0
C476 C 0.79977 0.25008 0.51526 0.0
C477 C 0.82836 0.23688 0.49323 0.0
N478 N 0.87285 0.18922 0.48727 0.0
N479 N 0.74633 0.23593 0.55038 0.0
C480 C 0.83925 0.20029 0.49733 0.0
C481 C 0.77857 0.22541 0.5361 0.0
N482 N 0.81786 0.13975 0.50701 0.0
N483 N 0.79485 0.28647 0.51864 0.0
H484 H 0.72817 0.2175 0.56145 0.0
H485 H 0.7353 0.26151 0.54654 0.0
H486 H 0.81241 0.30514 0.50697 0.0
H487 H 0.77675 0.29804 0.53674 0.0
H488 H 0.83532 0.12946 0.48747 0.0
H489 H 0.79819 0.12154 0.5156 0.0
H490 H 0.88207 0.16299 0.49183 0.0
H491 H 0.89338 0.20722 0.48076 0.0
C492 C 0.76942 0.81579 0.5164 0.0
C493 C 0.78718 0.81646 0.48242 0.0
C494 C 0.82776 0.76763 0.50341 0.0
C495 C 0.81111 0.76825 0.53786 0.0
N496 N 0.77129 0.79822 0.57943 0.0
N497 N 0.83801 0.79734 0.446 0.0
C498 C 0.78336 0.79384 0.54492 0.0
C499 C 0.8179 0.79382 0.47676 0.0
N500 N 0.7393 0.83635 0.52163 0.0
N501 N 0.85215 0.7411 0.49562 0.0
H502 H 0.83063 0.81367 0.42436 0.0
H503 H 0.86305 0.7852 0.44248 0.0
H504 H 0.86098 0.72243 0.51478 0.0
H505 H 0.86175 0.73601 0.46968 0.0
H506 H 0.72254 0.83384 0.54407 0.0
H507 H 0.72963 0.85457 0.50249 0.0
H508 H 0.75395 0.81876 0.58756 0.0
H509 H 0.78169 0.78338 0.60075 0.0
C510 C 0.13306 0.80367 0.51263 0.0
C511 C 0.15954 0.7953 0.48623 0.0
C512 C 0.20631 0.82025 0.52559 0.0
C513 C 0.17964 0.83123 0.55086 0.0
N514 N 0.11682 0.84018 0.56454 0.0
N515 N 0.21942 0.8067 0.46333 0.0
C516 C 0.14271 0.82507 0.54309 0.0
C517 C 0.19554 0.80703 0.49141 0.0
N518 N 0.09916 0.78983 0.50961 0.0
N519 N 0.24191 0.8199 0.53471 0.0
H520 H 0.21221 0.79904 0.43739 0.0
H521 H 0.24496 0.8182 0.46483 0.0
H522 H 0.25152 0.82734 0.55994 0.0
H523 H 0.26168 0.80835 0.51837 0.0
H524 H 0.07988 0.79173 0.52999 0.0
H525 H 0.09124 0.77377 0.488 0.0
H526 H 0.08951 0.83948 0.55845 0.0
H527 H 0.12299 0.85659 0.5865 0.0
C528 C 0.70008 0.98234 0.68621 0.0
C529 C 0.68023 0.98789 0.71861 0.0
C530 C 0.69105 0.05316 0.7132 0.0
C531 C 0.71653 0.04653 0.6853 0.0
N532 N 0.74473 0.00536 0.6439 0.0
N533 N 0.65575 0.02861 0.76289 0.0
C534 C 0.72047 0.01131 0.67103 0.0
C535 C 0.67477 0.02344 0.73172 0.0
N536 N 0.69883 0.94939 0.66972 0.0
N537 N 0.68243 0.08798 0.72178 0.0
H538 H 0.64286 0.00758 0.77652 0.0
H539 H 0.65429 0.05323 0.77629 0.0
H540 H 0.69383 0.11008 0.70846 0.0
H541 H 0.66192 0.095 0.73964 0.0
H542 H 0.71017 0.94413 0.64456 0.0
H543 H 0.68336 0.92807 0.67976 0.0
H544 H 0.75222 0.97976 0.63507 0.0
H545 H 0.7587 0.02632 0.63124 0.0
C546 C 0.97032 0.62924 0.65986 0.0
C547 C 0.96343 0.66659 0.65316 0.0
C548 C 0.02791 0.67835 0.66209 0.0
C549 C 0.03347 0.64228 0.67435 0.0
N550 N 0.00756 0.58493 0.69044 0.0
N551 N 0.98606 0.72766 0.65224 0.0
C552 C 0.00381 0.61833 0.67519 0.0
C553 C 0.99224 0.69152 0.65633 0.0
N554 N 0.94587 0.60371 0.64992 0.0
N555 N 0.05668 0.69913 0.65263 0.0
H556 H 0.96095 0.73831 0.6457 0.0
H557 H 0.00541 0.74716 0.65793 0.0
H558 H 0.0826 0.68879 0.65208 0.0
H559 H 0.05439 0.72447 0.64057 0.0
H560 H 0.95117 0.57609 0.65099 0.0
H561 H 0.92176 0.60993 0.6372 0.0
H562 H 0.98587 0.56769 0.69509 0.0
H563 H 0.03174 0.57595 0.70153 0.0
C564 C 0.35203 0.96945 0.7307 0.0
C565 C 0.3551 1.00471 0.71581 0.0
C566 C 0.32341 0.98432 0.66131 0.0
C567 C 0.31879 0.94975 0.67703 0.0
N568 N 0.339 0.906 0.72034 0.0
N569 N 0.35455 0.04166 0.6616 0.0
C570 C 0.33666 0.94119 0.70967 0.0
C571 C 0.34459 0.0108 0.67928 0.0
N572 N 0.36313 0.9632 0.76525 0.0
N573 N 0.30621 0.99233 0.62977 0.0
H574 H 0.37024 0.06176 0.67302 0.0
H575 H 0.35036 0.04583 0.63415 0.0
H576 H 0.29255 0.97284 0.61485 0.0
H577 H 0.30399 0.01839 0.61937 0.0
H578 H 0.35775 0.93945 0.77936 0.0
H579 H 0.37667 0.98262 0.78035 0.0
H580 H 0.35337 0.89729 0.74278 0.0
H581 H 0.3298 0.88509 0.70413 0.0
C582 C 0.01632 0.33175 0.65102 0.0
C583 C 0.03134 0.2999 0.66634 0.0
C584 C 0.97532 0.29161 0.70182 0.0
C585 C 0.96171 0.32503 0.68851 0.0
N586 N 0.97334 0.38072 0.65685 0.0
N587 N 0.02739 0.2528 0.71115 0.0
C588 C 0.98343 0.34612 0.66491 0.0
C589 C 0.0114 0.28065 0.69304 0.0
N590 N 0.03297 0.34778 0.62219 0.0
N591 N 0.95343 0.26972 0.72187 0.0
H592 H 0.05335 0.24381 0.70524 0.0
H593 H 0.01602 0.2404 0.73371 0.0
H594 H 0.92729 0.277 0.72919 0.0
H595 H 0.96019 0.24337 0.72904 0.0
H596 H 0.02157 0.36884 0.60747 0.0
H597 H 0.05648 0.3376 0.61058 0.0
H598 H 0.98983 0.39885 0.64304 0.0
H599 H 0.95006 0.39259 0.66727 0.0
C600 C 0.67435 0.9706 0.32839 0.0
C601 C 0.70692 0.97753 0.34716 0.0
C602 C 0.69933 0.04222 0.33444 0.0
C603 C 0.67178 0.03416 0.30934 0.0
N604 N 0.6324 0.99062 0.28229 0.0
N605 N 0.75059 0.02022 0.36851 0.0
C606 C 0.65867 0.99837 0.30671 0.0
C607 C 0.71923 0.01355 0.3507 0.0
N608 N 0.65852 0.93746 0.33123 0.0
N609 N 0.70598 0.07738 0.34312 0.0
H610 H 0.76479 1.00001 0.38204 0.0
H611 H 0.7633 0.04528 0.36832 0.0
H612 H 0.69125 0.09869 0.33206 0.0
H613 H 0.72358 0.08512 0.36347 0.0
H614 H 0.63329 0.93154 0.3207 0.0
H615 H 0.66933 0.91671 0.34685 0.0
H616 H 0.62475 0.96441 0.27572 0.0
H617 H 0.61955 0.0106 0.26717 0.0
C618 C 0.97096 0.68666 0.33398 0.0
C619 C 0.9776 0.66887 0.30048 0.0
C620 C 0.03592 0.70047 0.29611 0.0
C621 C 0.0311 0.71397 0.33166 0.0
N622 N 0.99516 0.7185 0.38555 0.0
N623 N 0.01756 0.65712 0.25053 0.0
C624 C 0.99881 0.70683 0.35074 0.0
C625 C 0.01021 0.67578 0.28146 0.0
N626 N 0.93752 0.68543 0.34936 0.0
N627 N 0.0654 0.71092 0.27659 0.0
H628 H 0.99959 0.6388 0.23923 0.0
H629 H 0.04234 0.65767 0.2374 0.0
H630 H 0.085 0.72813 0.28689 0.0
H631 H 0.06919 0.70491 0.24943 0.0
H632 H 0.92973 0.70137 0.37113 0.0
H633 H 0.91629 0.67098 0.33844 0.0
H634 H 0.97478 0.70981 0.40286 0.0
H635 H 0.01374 0.73556 0.39785 0.0
C636 C 0.35949 0.01457 0.29122 0.0
C637 C 0.33333 0.99236 0.27445 0.0
C638 C 0.28575 0.03141 0.30018 0.0
C639 C 0.31185 0.05032 0.32061 0.0
N640 N 0.37365 0.05506 0.34017 0.0
N641 N 0.27045 0.97575 0.26986 0.0
C642 C 0.34867 0.04025 0.3177 0.0
C643 C 0.29609 0.99989 0.28046 0.0
N644 N 0.39466 0.0126 0.2805 0.0
N645 N 0.25085 0.043 0.3001 0.0
H646 H 0.27632 0.95123 0.25753 0.0
H647 H 0.24342 0.97802 0.27702 0.0
H648 H 0.2417 0.06442 0.31587 0.0
H649 H 0.23159 0.03298 0.28241 0.0
H650 H 0.41426 0.03065 0.28918 0.0
H651 H 0.40343 0.99578 0.25972 0.0
H652 H 0.39989 0.04534 0.3421 0.0
H653 H 0.36781 0.07559 0.35844 0.0
C654 C 0.04263 0.32207 0.34206 0.0
C655 C 0.0343 0.35141 0.31848 0.0
C656 C 0.97078 0.34698 0.33601 0.0
C657 C 0.97885 0.31681 0.35862 0.0
N658 N 0.02118 0.27181 0.37853 0.0
N659 N 0.9898 0.38763 0.28813 0.0
C660 C 0.01438 0.30306 0.36001 0.0
C661 C 0.99813 0.36236 0.31378 0.0
N662 N 0.07769 0.31284 0.34807 0.0
N663 N 0.93712 0.36177 0.33646 0.0
H664 H 0.00912 0.40113 0.27278 0.0
H665 H 0.96363 0.39338 0.28006 0.0
H666 H 0.91591 0.35077 0.35104 0.0
H667 H 0.93063 0.38635 0.32444 0.0
H668 H 0.08594 0.29512 0.36825 0.0
H669 H 0.09905 0.32449 0.33417 0.0
H670 H 0.04547 0.25788 0.37704 0.0
H671 H 1.00166 0.25824 0.3936 0.0
C672 C 0.71119 0.66393 0.98349 0.0
C673 C 0.72433 0.69021 0.95881 0.0
C674 C 0.68384 0.7354 0.987 0.0
C675 C 0.67401 0.71031 0.01423 0.0
N676 N 0.6856 0.65241 0.04253 0.0
N677 N 0.72707 0.75337 0.94162 0.0
C678 C 0.68943 0.67492 0.01347 0.0
C679 C 0.7119 0.72665 0.96201 0.0
N680 N 0.71988 0.62838 0.97883 0.0
N681 N 0.66529 0.76714 0.98379 0.0
H682 H 0.74688 0.74869 0.92245 0.0
H683 H 0.72212 0.78073 0.94587 0.0
H684 H 0.64408 0.7742 1.00088 0.0
H685 H 0.66835 0.78468 0.96197 0.0
H686 H 0.70756 0.60756 0.99323 0.0
H687 H 0.73743 0.6194 0.95876 0.0
H688 H 0.69942 0.62806 0.04514 0.0
H689 H 0.67199 0.65963 0.06599 0.0
C690 C 0.28173 0.68788 1.00368 0.0
C691 C 0.26361 0.70307 0.03385 0.0
C692 C 0.27732 0.76396 0.01107 0.0
C693 C 0.29479 0.74892 0.98042 0.0
N694 N 0.30535 0.69608 0.94335 0.0
N695 N 0.23551 0.75547 0.06065 0.0
C696 C 0.29473 0.71072 0.97551 0.0
C697 C 0.25826 0.74103 0.03549 0.0
N698 N 0.28673 0.65132 1.00206 0.0
N699 N 0.28075 0.80002 0.01815 0.0
H700 H 0.22143 0.74001 0.07942 0.0
H701 H 0.22788 0.78254 0.06069 0.0
H702 H 0.29581 0.81746 1.00194 0.0
H703 H 0.27195 0.81196 0.04201 0.0
H704 H 0.30427 0.6389 0.98394 0.0
H705 H 0.27428 0.63342 0.01994 0.0
H706 H 0.30158 0.66905 0.93669 0.0
H707 H 0.31513 0.71118 0.9218 0.0
C708 C 0.31415 0.28872 0.97081 0.0
C709 C 0.2865 0.31463 0.97677 0.0
C710 C 0.2963 0.30854 0.04208 0.0
C711 C 0.31772 0.27729 0.03618 0.0
N712 N 0.3482 0.23787 0.99471 0.0
N713 N 0.25132 0.34984 0.01838 0.0
C714 C 0.32748 0.26778 1.00043 0.0
C715 C 0.27793 0.32507 0.01255 0.0
N716 N 0.32765 0.28428 0.9368 0.0
N717 N 0.29412 0.32273 0.07595 0.0
H718 H 0.23866 0.36357 0.99733 0.0
H719 H 0.24067 0.35538 0.04381 0.0
H720 H 0.30847 0.31185 0.09751 0.0
H721 H 0.28125 0.34702 0.08185 0.0
H722 H 0.34979 0.26805 0.9309 0.0
H723 H 0.31841 0.29933 0.91488 0.0
H724 H 0.35282 0.22684 0.9693 0.0
H725 H 0.35939 0.22306 0.01589 0.0
C726 C 0.71163 0.30154 0.04194 0.0
C727 C 0.70365 0.33901 0.04336 0.0
C728 C 0.66323 0.3324 0.99148 0.0
C729 C 0.67008 0.29435 0.99108 0.0
N730 N 0.69266 0.24213 0.02259 0.0
N731 N 0.66562 0.38844 0.02518 0.0
C732 C 0.69177 0.27882 0.01846 0.0
C733 C 0.67765 0.35395 0.01978 0.0
N734 N 0.73934 0.28782 0.06189 0.0
N735 N 0.64453 0.34869 0.96425 0.0
H736 H 0.67562 0.40519 0.04536 0.0
H737 H 0.64353 0.39937 0.01182 0.0
H738 H 0.63122 0.33497 0.94392 0.0
H739 H 0.64399 0.37657 0.96046 0.0
H740 H 0.74878 0.26147 0.05919 0.0
H741 H 0.7553 0.30373 0.07859 0.0
H742 H 0.70518 0.22928 0.04419 0.0
H743 H 0.67742 0.22478 0.00663 0.0
C744 C 0.17114 0.27201 0.2973 0.0
C745 C 0.17308 0.30872 0.30771 0.0
C746 C 0.22478 0.2929 0.34559 0.0
C747 C 0.22818 0.25943 0.32661 0.0
N748 N 0.2066 0.22161 0.27782 0.0
N749 N 0.19851 0.35264 0.34845 0.0
C750 C 0.20195 0.25021 0.30056 0.0
C751 C 0.1991 0.31892 0.3337 0.0
N752 N 0.13949 0.25723 0.28613 0.0
N753 N 0.24362 0.29895 0.37661 0.0
H754 H 0.1757 0.36898 0.34837 0.0
H755 H 0.22045 0.36381 0.36178 0.0
H756 H 0.26016 0.27994 0.38878 0.0
H757 H 0.23938 0.3212 0.3932 0.0
H758 H 0.13694 0.22981 0.28022 0.0
H759 H 0.11506 0.27095 0.28837 0.0
H760 H 0.1887 0.21613 0.25694 0.0
H761 H 0.23012 0.20634 0.27671 0.0
C762 C 0.78946 0.16718 0.33173 0.0
C763 C 0.79157 0.20511 0.33553 0.0
C764 C 0.73661 0.21256 0.29953 0.0
C765 C 0.73512 0.17458 0.29459 0.0
N766 N 0.76463 0.11621 0.30005 0.0
N767 N 0.77215 0.2644 0.31636 0.0
C768 C 0.76308 0.15209 0.30855 0.0
C769 C 0.76651 0.22793 0.31757 0.0
N770 N 0.81108 0.14533 0.35212 0.0
N771 N 0.70959 0.23422 0.2869 0.0
H772 H 0.79358 0.27693 0.32915 0.0
H773 H 0.75782 0.28196 0.29978 0.0
H774 H 0.68919 0.22522 0.27001 0.0
H775 H 0.70647 0.26115 0.29434 0.0
H776 H 0.80759 0.1175 0.35422 0.0
H777 H 0.83068 0.15522 0.3695 0.0
H778 H 0.78704 0.10011 0.30517 0.0
H779 H 0.74464 0.1025 0.28623 0.0
C780 C 0.84121 0.76075 0.29419 0.0
C781 C 0.84516 0.72705 0.31255 0.0
C782 C 0.81254 0.75163 0.3645 0.0
C783 C 0.80975 0.78566 0.34658 0.0
N784 N 0.83024 0.8249 0.29839 0.0
N785 N 0.84225 0.69359 0.36849 0.0
C786 C 0.82725 0.79108 0.31296 0.0
C787 C 0.83305 0.72338 0.34867 0.0
N788 N 0.84836 0.76345 0.25802 0.0
N789 N 0.79502 0.74593 0.39654 0.0
H790 H 0.85691 0.67202 0.35809 0.0
H791 H 0.83816 0.69161 0.39624 0.0
H792 H 0.78252 0.76644 0.41113 0.0
H793 H 0.79155 0.72045 0.40802 0.0
H794 H 0.8416 0.78599 0.24258 0.0
H795 H 0.85697 0.742 0.24208 0.0
H796 H 0.84646 0.83063 0.27612 0.0
H797 H 0.81987 0.84806 0.31029 0.0
C798 C 0.29408 0.80915 0.32936 0.0
C799 C 0.29301 0.84554 0.3177 0.0
C800 C 0.23263 0.85215 0.34433 0.0
C801 C 0.23337 0.81501 0.3542 0.0
N802 N 0.27443 0.76889 0.37625 0.0
N803 N 0.26711 0.90471 0.32536 0.0
C804 C 0.26697 0.79657 0.35306 0.0
C805 C 0.26393 0.86807 0.32857 0.0
N806 N 0.3198 0.78591 0.31695 0.0
N807 N 0.20275 0.8725 0.35122 0.0
H808 H 0.29068 0.91701 0.31615 0.0
H809 H 0.24822 0.923 0.3352 0.0
H810 H 0.18234 0.86389 0.36857 0.0
H811 H 0.19846 0.89798 0.34007 0.0
H812 H 0.31895 0.75826 0.32237 0.0
H813 H 0.33977 0.79339 0.29866 0.0
H814 H 0.29946 0.75617 0.37692 0.0
H815 H 0.25862 0.76318 0.39879 0.0
C816 C 0.24202 0.68302 0.66221 0.0
C817 C 0.20565 0.67091 0.66359 0.0
C818 C 0.18526 0.73371 0.66949 0.0
C819 C 0.22141 0.74604 0.66839 0.0
N820 N 0.28468 0.73207 0.67033 0.0
N821 N 0.1443 0.68475 0.67867 0.0
C822 C 0.25 0.72058 0.66647 0.0
C823 C 0.17798 0.69621 0.67052 0.0
N824 N 0.26902 0.65844 0.65718 0.0
N825 N 0.15723 0.75761 0.6673 0.0
H826 H 0.13563 0.65885 0.67323 0.0
H827 H 0.12605 0.70086 0.6928 0.0
H828 H 0.16027 0.78548 0.66616 0.0
H829 H 0.13066 0.74961 0.66342 0.0
H830 H 0.29539 0.66539 0.65076 0.0
H831 H 0.26482 0.63062 0.6587 0.0
H832 H 0.30658 0.71484 0.67338 0.0
H833 H 0.2915 0.75916 0.673 0.0
C834 C 0.2882 0.15456 0.64767 0.0
C835 C 0.28742 0.14092 0.68326 0.0
C836 C 0.22518 0.16287 0.69052 0.0
C837 C 0.22817 0.18155 0.65723 0.0
N838 N 0.26393 0.19686 0.60454 0.0
N839 N 0.25638 0.13612 0.74066 0.0
C840 C 0.26003 0.17769 0.63584 0.0
C841 C 0.25604 0.14563 0.70505 0.0
N842 N 0.31529 0.14448 0.62474 0.0
N843 N 0.19328 0.16212 0.70903 0.0
H844 H 0.27801 0.12347 0.75285 0.0
H845 H 0.23665 0.14391 0.75911 0.0
H846 H 0.17041 0.17628 0.70136 0.0
H847 H 0.18854 0.14492 0.73082 0.0
H848 H 0.31527 0.15019 0.59721 0.0
H849 H 0.33619 0.12735 0.63252 0.0
H850 H 0.28814 0.19893 0.59046 0.0
H851 H 0.24347 0.2124 0.59352 0.0
C852 C 0.83948 0.23208 0.63616 0.0
C853 C 0.83802 0.21149 0.66851 0.0
C854 C 0.8233 0.26649 0.70276 0.0
C855 C 0.82511 0.28753 0.67066 0.0
N856 N 0.84109 0.29153 0.60772 0.0
N857 N 0.83912 0.21088 0.73355 0.0
C858 C 0.83508 0.27051 0.63758 0.0
C859 C 0.83334 0.22931 0.70209 0.0
N860 N 0.84614 0.21483 0.60423 0.0
N861 N 0.80938 0.28119 0.73342 0.0
H862 H 0.84607 0.1836 0.73434 0.0
H863 H 0.84009 0.22334 0.75868 0.0
H864 H 0.79937 0.30728 0.7339 0.0
H865 H 0.80405 0.26652 0.75685 0.0
H866 H 0.84643 0.22731 0.57913 0.0
H867 H 0.85048 0.18706 0.6025 0.0
H868 H 0.8491 0.28189 0.58265 0.0
H869 H 0.84065 0.31968 0.60855 0.0
C870 C 0.72116 0.76225 0.68552 0.0
C871 C 0.75729 0.77275 0.67754 0.0
C872 C 0.74301 0.8351 0.69516 0.0
C873 C 0.70768 0.8241 0.70506 0.0
N874 N 0.66081 0.77908 0.7042 0.0
N875 N 0.79902 0.82116 0.66456 0.0
C876 C 0.69599 0.78833 0.69831 0.0
C877 C 0.76729 0.80975 0.67962 0.0
N878 N 0.71104 0.72694 0.68233 0.0
N879 N 0.7534 0.87006 0.70081 0.0
H880 H 0.81705 0.80402 0.65151 0.0
H881 H 0.80613 0.84817 0.66156 0.0
H882 H 0.73531 0.89042 0.70782 0.0
H883 H 0.77998 0.87878 0.69977 0.0
H884 H 0.68781 0.71613 0.69372 0.0
H885 H 0.72639 0.70747 0.66941 0.0
H886 H 0.64918 0.7553 0.69503 0.0
H887 H 0.64202 0.79596 0.71636 0.0
C888 C 0.3296 0.21293 0.27306 0.0
C889 C 0.34759 0.18605 0.29337 0.0
C890 C 0.35122 0.14877 0.23846 0.0
C891 C 0.32772 0.1732 0.22046 0.0
N892 N 0.28551 0.22222 0.22671 0.0
N893 N 0.37648 0.12791 0.2953 0.0
C894 C 0.31452 0.20373 0.2393 0.0
C895 C 0.35857 0.15367 0.27602 0.0
N896 N 0.32803 0.24764 0.28514 0.0
N897 N 0.36709 0.12146 0.2194 0.0
H898 H 0.38309 0.13118 0.32241 0.0
H899 H 0.38321 0.10267 0.28508 0.0
H900 H 0.36239 0.11734 0.192 0.0
H901 H 0.38715 0.10479 0.22968 0.0
H902 H 0.31687 0.26855 0.27001 0.0
H903 H 0.34112 0.25601 0.30851 0.0
H904 H 0.27386 0.24374 0.24061 0.0
H905 H 0.27026 0.2125 0.20537 0.0
C906 C 0.83943 0.35599 0.29335 0.0
C907 C 0.84765 0.31855 0.29413 0.0
C908 C 0.82829 0.31224 0.23139 0.0
C909 C 0.8145 0.34766 0.23266 0.0
N910 N 0.81444 0.40649 0.25948 0.0
N911 N 0.84322 0.25953 0.26621 0.0
C912 C 0.82271 0.37062 0.2621 0.0
C913 C 0.84067 0.29632 0.26364 0.0
N914 N 0.84736 0.37724 0.32236 0.0
N915 N 0.83015 0.2939 0.19952 0.0
H916 H 0.84977 0.24607 0.28997 0.0
H917 H 0.83453 0.2421 0.24604 0.0
H918 H 0.82367 0.30553 0.17482 0.0
H919 H 0.84279 0.26892 0.19691 0.0
H920 H 0.84391 0.40506 0.32322 0.0
H921 H 0.85756 0.36708 0.34641 0.0
H922 H 0.81696 0.42528 0.28007 0.0
H923 H 0.80578 0.41776 0.23525 0.0
C924 C 0.67935 0.85757 0.21547 0.0
C925 C 0.6789 0.82019 0.2074 0.0
C926 C 0.68695 0.80648 0.27197 0.0
C927 C 0.69478 0.84329 0.2784 0.0
N928 N 0.69875 0.90453 0.25616 0.0
N929 N 0.6852 0.75828 0.22841 0.0
C930 C 0.69079 0.86905 0.25014 0.0
C931 C 0.68286 0.79437 0.23583 0.0
N932 N 0.66755 0.88205 0.1905 0.0
N933 N 0.6839 0.78283 0.30018 0.0
H934 H 0.68252 0.74737 0.20279 0.0
H935 H 0.69312 0.73905 0.24735 0.0
H936 H 0.68715 0.79035 0.32698 0.0
H937 H 0.67436 0.75655 0.29733 0.0
H938 H 0.66384 0.90935 0.1961 0.0
H939 H 0.65778 0.87451 0.16528 0.0
H940 H 0.70088 0.92372 0.23567 0.0
H941 H 0.70512 0.91445 0.28159 0.0
C942 C 0.22141 0.69209 0.27408 0.0
C943 C 0.20168 0.67307 0.24755 0.0
C944 C 0.15538 0.6584 0.29253 0.0
C945 C 0.1763 0.67583 0.31932 0.0
N946 N 0.23355 0.69949 0.3377 0.0
N947 N 0.1545 0.63063 0.23339 0.0
C948 C 0.21066 0.68973 0.31071 0.0
C949 C 0.16988 0.65408 0.25721 0.0
N950 N 0.24982 0.71337 0.26412 0.0
N951 N 0.12134 0.64688 0.30049 0.0
H952 H 0.16432 0.62657 0.20733 0.0
H953 H 0.13389 0.61292 0.24049 0.0
H954 H 0.11009 0.6488 0.32623 0.0
H955 H 0.10339 0.63784 0.28101 0.0
H956 H 0.26302 0.7305 0.28194 0.0
H957 H 0.25782 0.71673 0.23731 0.0
H958 H 0.26034 0.70641 0.33316 0.0
H959 H 0.22679 0.69684 0.36494 0.0
C960 C 0.286 0.88501 0.80406 0.0
C961 C 0.29789 0.84861 0.80189 0.0
C962 C 0.27276 0.84459 0.7419 0.0
C963 C 0.25316 0.87684 0.74677 0.0
N964 N 0.24614 0.93174 0.7808 0.0
N965 N 0.29687 0.79171 0.76935 0.0
C966 C 0.26138 0.89835 0.77751 0.0
C967 C 0.28911 0.82774 0.77131 0.0
N968 N 0.29927 0.90703 0.83032 0.0
N969 N 0.28155 0.83301 0.70859 0.0
H970 H 0.3085 0.77714 0.79024 0.0
H971 H 0.28794 0.77564 0.74809 0.0
H972 H 0.27693 0.84938 0.68696 0.0
H973 H 0.2999 0.81222 0.70385 0.0
H974 H 0.29453 0.93471 0.83131 0.0
H975 H 0.31734 0.89797 0.84981 0.0
H976 H 0.24733 0.94718 0.80418 0.0
H977 H 0.23183 0.94374 0.75975 0.0
C978 C 0.18225 0.28646 0.7911 0.0
C979 C 0.17812 0.32165 0.80569 0.0
C980 C 0.18237 0.34744 0.7442 0.0
C981 C 0.18764 0.31225 0.73003 0.0
N982 N 0.20175 0.24966 0.74075 0.0
N983 N 0.17613 0.38591 0.79687 0.0
C984 C 0.19033 0.28221 0.75378 0.0
C985 C 0.17932 0.35225 0.78241 0.0
N986 N 0.17683 0.25684 0.81255 0.0
N987 N 0.17809 0.37588 0.72097 0.0
H988 H 0.17139 0.39 0.82425 0.0
H989 H 0.18013 0.40961 0.78236 0.0
H990 H 0.18052 0.37334 0.69307 0.0
H991 H 0.17026 0.40169 0.72876 0.0
H992 H 0.17512 0.23062 0.80263 0.0
H993 H 0.17127 0.25857 0.84008 0.0
H994 H 0.20767 0.22751 0.75705 0.0
H995 H 0.20951 0.24611 0.71398 0.0
C996 C 0.73386 0.15888 0.78833 0.0
C997 C 0.73848 0.1821 0.75793 0.0
C998 C 0.70644 0.22974 0.78983 0.0
C999 C 0.70807 0.20918 0.8221 0.0
N1000 N 0.72528 0.15472 0.85312 0.0
N1001 N 0.73423 0.24224 0.73242 0.0
C1002 C 0.72232 0.17382 0.82171 0.0
C1003 C 0.7261 0.21825 0.75932 0.0
N1004 N 0.73847 0.12243 0.78495 0.0
N1005 N 0.68476 0.25942 0.78774 0.0
H1006 H 0.75036 0.23598 0.71028 0.0
H1007 H 0.72831 0.26965 0.73415 0.0
H1008 H 0.66821 0.26741 0.80894 0.0
H1009 H 0.67968 0.27298 0.76362 0.0
H1010 H 0.73199 0.10411 0.80533 0.0
H1011 H 0.74485 0.11005 0.76057 0.0
H1012 H 0.73906 0.13026 0.85498 0.0
H1013 H 0.71616 0.16467 0.87784 0.0
C1014 C 0.7975 0.66854 0.72706 0.0
C1015 C 0.82383 0.65023 0.70646 0.0
C1016 C 0.86136 0.64622 0.761 0.0
C1017 C 0.83736 0.66988 0.77941 0.0
N1018 N 0.78869 0.71241 0.77379 0.0
N1019 N 0.88161 0.62127 0.70389 0.0
C1020 C 0.80694 0.68334 0.76087 0.0
C1021 C 0.85614 0.6391 0.72347 0.0
N1022 N 0.76287 0.67027 0.71548 0.0
N1023 N 0.88828 0.62943 0.77965 0.0
H1024 H 0.87709 0.61325 0.6774 0.0
H1025 H 0.90749 0.61618 0.71323 0.0
H1026 H 0.89226 0.63315 0.80722 0.0
H1027 H 0.90453 0.60929 0.76875 0.0
H1028 H 0.7422 0.68027 0.73177 0.0
H1029 H 0.7545 0.65789 0.69172 0.0
H1030 H 0.76794 0.72491 0.75955 0.0
H1031 H 0.79764 0.72633 0.79633 0.0
C1032 C 0.24522 0.36192 0.19303 0.0
C1033 C 0.20888 0.35857 0.18245 0.0
C1034 C 0.22716 0.3078 0.1445 0.0
C1035 C 0.25929 0.30414 0.16538 0.0
N1036 N 0.2953 0.32777 0.21479 0.0
N1037 N 0.16696 0.3327 0.14036 0.0
C1038 C 0.26769 0.33139 0.19089 0.0
C1039 C 0.20018 0.33274 0.1558 0.0
N1040 N 0.25848 0.39423 0.20447 0.0
N1041 N 0.22337 0.28967 0.11269 0.0
H1042 H 0.14934 0.35451 0.14244 0.0
H1043 H 0.1573 0.3112 0.12513 0.0
H1044 H 0.24378 0.27425 0.10121 0.0
H1045 H 0.20192 0.29379 0.09516 0.0
H1046 H 0.28558 0.39789 0.21068 0.0
H1047 H 0.24351 0.41804 0.20257 0.0
H1048 H 0.29986 0.3466 0.23516 0.0
H1049 H 0.31053 0.3044 0.21759 0.0
C1050 C 0.27714 0.67949 0.8257 0.0
C1051 C 0.27182 0.71727 0.82851 0.0
C1052 C 0.22268 0.71406 0.78452 0.0
C1053 C 0.2266 0.67596 0.78333 0.0
N1054 N 0.24993 0.62198 0.81139 0.0
N1055 N 0.23469 0.76968 0.81608 0.0
C1056 C 0.25186 0.6585 0.8062 0.0
C1057 C 0.24298 0.73423 0.80979 0.0
N1058 N 0.30583 0.66344 0.84222 0.0
N1059 N 0.20086 0.7314 0.76049 0.0
H1060 H 0.25049 0.78685 0.83156 0.0
H1061 H 0.21103 0.7818 0.80718 0.0
H1062 H 0.18461 0.71796 0.74223 0.0
H1063 H 0.20083 0.7593 0.75683 0.0
H1064 H 0.31322 0.63669 0.83768 0.0
H1065 H 0.32381 0.67746 0.8585 0.0
H1066 H 0.26547 0.60806 0.83016 0.0
H1067 H 0.22966 0.60618 0.80021 0.0
C1068 C 0.2879 0.23877 0.80365 0.0
C1069 C 0.28068 0.24396 0.84086 0.0
C1070 C 0.30641 0.18395 0.85478 0.0
C1071 C 0.31306 0.17856 0.81754 0.0
N1072 N 0.31397 0.2021 0.75662 0.0
N1073 N 0.28102 0.22129 0.90214 0.0
C1074 C 0.30502 0.20644 0.7921 0.0
C1075 C 0.28938 0.21646 0.8665 0.0
N1076 N 0.27595 0.26355 0.7789 0.0
N1077 N 0.31851 0.15889 0.87911 0.0
H1078 H 0.27189 0.24566 0.91264 0.0
H1079 H 0.28189 0.20094 0.92151 0.0
H1080 H 0.33096 0.13483 0.87145 0.0
H1081 H 0.31864 0.16259 0.9069 0.0
H1082 H 0.27652 0.25976 0.75113 0.0
H1083 H 0.2626 0.2873 0.78567 0.0
H1084 H 0.31492 0.22291 0.73773 0.0
H1085 H 0.322 0.17758 0.74601 0.0
C1086 C 0.73346 0.35965 0.86267 0.0
C1087 C 0.70083 0.34677 0.84773 0.0
C1088 C 0.72758 0.34821 0.78751 0.0
C1089 C 0.76187 0.35566 0.80296 0.0
N1090 N 0.79769 0.3686 0.85564 0.0
N1091 N 0.66282 0.3489 0.79569 0.0
C1092 C 0.76492 0.36152 0.84069 0.0
C1093 C 0.69658 0.34708 0.80995 0.0
N1094 N 0.73334 0.37305 0.89698 0.0
N1095 N 0.72476 0.3406 0.75154 0.0
H1096 H 0.64006 0.35238 0.81187 0.0
H1097 H 0.65768 0.35218 0.76829 0.0
H1098 H 0.74672 0.33947 0.73407 0.0
H1099 H 0.70108 0.33198 0.73945 0.0
H1100 H 0.75534 0.38553 0.9089 0.0
H1101 H 0.70955 0.37606 0.91175 0.0
H1102 H 0.80219 0.36898 0.88334 0.0
H1103 H 0.82114 0.37176 0.84052 0.0
C1104 C 0.73813 0.79856 0.84086 0.0
C1105 C 0.72218 0.76386 0.84562 0.0
C1106 C 0.66298 0.79247 0.85171 0.0
C1107 C 0.67926 0.82701 0.8489 0.0
N1108 N 0.73263 0.86337 0.84913 0.0
N1109 N 0.67098 0.72955 0.86713 0.0
C1110 C 0.71701 0.83011 0.84635 0.0
C1111 C 0.68502 0.76124 0.85439 0.0
N1112 N 0.77295 0.80159 0.82931 0.0
N1113 N 0.62643 0.78922 0.8504 0.0
H1114 H 0.68635 0.70638 0.87131 0.0
H1115 H 0.64492 0.72745 0.87738 0.0
H1116 H 0.60932 0.81143 0.8491 0.0
H1117 H 0.61339 0.76445 0.84792 0.0
H1118 H 0.78458 0.826 0.82158 0.0
H1119 H 0.78943 0.77951 0.8241 0.0
H1120 H 0.7603 0.86721 0.85115 0.0
H1121 H 0.7176 0.88688 0.85307 0.0
C1122 C 0.74655 0.70969 0.17112 0.0
C1123 C 0.72343 0.68546 0.15266 0.0
C1124 C 0.76218 0.63493 0.1703 0.0
C1125 C 0.78297 0.65905 0.19139 0.0
N1126 N 0.78696 0.71665 0.22116 0.0
N1127 N 0.70614 0.62452 0.13839 0.0
C1128 C 0.773 0.69569 0.19442 0.0
C1129 C 0.73021 0.6478 0.15348 0.0
N1130 N 0.74388 0.74614 0.16612 0.0
N1131 N 0.77346 0.60007 0.16574 0.0
H1132 H 0.68267 0.63334 0.1258 0.0
H1133 H 0.70789 0.59656 0.14085 0.0
H1134 H 0.79679 0.58995 0.17765 0.0
H1135 H 0.76142 0.58203 0.14803 0.0
H1136 H 0.76268 0.76435 0.17619 0.0
H1137 H 0.72455 0.75803 0.14978 0.0
H1138 H 0.77753 0.74255 0.22687 0.0
H1139 H 0.80477 0.70655 0.24031 0.0
C1140 C 0.36415 0.75142 0.20518 0.0
C1141 C 0.35975 0.78729 0.19221 0.0
C1142 C 0.32271 0.76322 0.14367 0.0
C1143 C 0.31726 0.7314 0.16444 0.0
N1144 N 0.33445 0.69468 0.21584 0.0
N1145 N 0.34403 0.825 0.14144 0.0
C1146 C 0.33883 0.72491 0.19515 0.0
C1147 C 0.34192 0.79258 0.15888 0.0
N1148 N 0.39352 0.74204 0.22506 0.0
N1149 N 0.31078 0.76441 0.10894 0.0
H1150 H 0.36315 0.84443 0.14801 0.0
H1151 H 0.32741 0.83223 0.12006 0.0
H1152 H 0.29925 0.74191 0.09684 0.0
H1153 H 0.31593 0.78562 0.09118 0.0
H1154 H 0.39865 0.71556 0.23321 0.0
H1155 H 0.4154 0.75931 0.228 0.0
H1156 H 0.34697 0.69151 0.24078 0.0
H1157 H 0.31676 0.67396 0.20954 0.0
C1158 C 0.65681 0.25516 0.18792 0.0
C1159 C 0.69364 0.26449 0.19151 0.0
C1160 C 0.7103 0.20053 0.19152 0.0
C1161 C 0.67358 0.19063 0.18813 0.0
N1162 N 0.61124 0.20816 0.1894 0.0
N1163 N 0.75252 0.24625 0.21067 0.0
C1164 C 0.64658 0.21791 0.18904 0.0
C1165 C 0.7193 0.23707 0.19815 0.0
N1166 N 0.63203 0.28145 0.18079 0.0
N1167 N 0.7369 0.17553 0.18639 0.0
H1168 H 0.75907 0.27294 0.21681 0.0
H1169 H 0.77151 0.22725 0.21891 0.0
H1170 H 0.73177 0.14829 0.18151 0.0
H1171 H 0.76404 0.18237 0.1846 0.0
H1172 H 0.60562 0.27614 0.17327 0.0
H1173 H 0.6383 0.30885 0.18087 0.0
H1174 H 0.59016 0.22621 0.19367 0.0
H1175 H 0.60329 0.18132 0.18791 0.0
loop_
_geom_bond_atom_site_label_1
_geom_bond_atom_site_label_2
_geom_bond_distance
_geom_bond_site_symmetry_2
_ccdc_geom_bond_type
Mg0 O7 2.141 . S
Mg0 O8 2.048 . S
Mg0 O9 2.048 . S
Mg0 O12 2.141 . S
C1 O2 1.313 . S
C1 O8 1.195 . S
O2 C1 1.313 . S
C3 O4 1.245 . S
C3 O12 1.289 . S
O4 C3 1.245 . S
C5 O6 1.245 . S
C5 O7 1.289 . S
O6 C5 1.245 . S
O7 Mg0 2.141 . S
O7 C5 1.289 . S
O8 Mg0 2.048 . S
O8 C1 1.195 . S
O9 Mg0 2.048 . S
O9 C10 1.195 . S
C10 O9 1.195 . S
C10 O11 1.313 . S
O11 C10 1.313 . S
O12 Mg0 2.141 . S
O12 C3 1.289 . S
Mg13 O20 2.141 . S
Mg13 O21 2.048 . S
Mg13 O22 2.048 . S
Mg13 O25 2.141 . S
C14 O15 1.313 . S
C14 O21 1.195 . S
O15 C14 1.313 . S
C16 O17 1.245 . S
C16 O25 1.289 . S
O17 C16 1.245 . S
C18 O19 1.245 . S
C18 O20 1.289 . S
O19 C18 1.245 . S
O20 Mg13 2.141 . S
O20 C18 1.289 . S
O21 Mg13 2.048 . S
O21 C14 1.195 . S
O22 Mg13 2.048 . S
O22 C23 1.195 . S
C23 O22 1.195 . S
C23 O24 1.313 . S
O24 C23 1.313 . S
O25 Mg13 2.141 . S
O25 C16 1.289 . S
Mg26 O33 2.141 . S
Mg26 O34 2.048 . S
Mg26 O35 2.048 . S
Mg26 O38 2.141 . S
C27 O28 1.313 . S
C27 O34 1.195 . S
O28 C27 1.313 . S
C29 O30 1.245 . S
C29 O38 1.289 . S
O30 C29 1.245 . S
C31 O32 1.245 . S
C31 O33 1.289 . S
O32 C31 1.245 . S
O33 Mg26 2.141 . S
O33 C31 1.289 . S
O34 Mg26 2.048 . S
O34 C27 1.195 . S
O35 Mg26 2.048 . S
O35 C36 1.195 . S
C36 O35 1.195 . S
C36 O37 1.313 . S
O37 C36 1.313 . S
O38 Mg26 2.141 . S
O38 C29 1.289 . S
Mg39 O46 2.141 . S
Mg39 O47 2.048 . S
Mg39 O48 2.048 . S
Mg39 O51 2.141 . S
C40 O41 1.313 . S
C40 O47 1.195 . S
O41 C40 1.313 . S
C42 O43 1.245 . S
C42 O51 1.289 . S
O43 C42 1.245 . S
C44 O45 1.245 . S
C44 O46 1.289 . S
O45 C44 1.245 . S
O46 Mg39 2.141 . S
O46 C44 1.289 . S
O47 Mg39 2.048 . S
O47 C40 1.195 . S
O48 Mg39 2.048 . S
O48 C49 1.195 . S
C49 O48 1.195 . S
C49 O50 1.313 . S
O50 C49 1.313 . S
O51 Mg39 2.141 . S
O51 C42 1.289 . S
Mg52 O59 2.141 . S
Mg52 O60 2.048 . S
Mg52 O61 2.048 . S
Mg52 O64 2.141 . S
C53 O54 1.313 . S
C53 O60 1.195 . S
O54 C53 1.313 . S
C55 O56 1.245 . S
C55 O64 1.289 . S
O56 C55 1.245 . S
C57 O58 1.245 . S
C57 O59 1.289 . S
O58 C57 1.245 . S
O59 Mg52 2.141 . S
O59 C57 1.289 . S
O60 Mg52 2.048 . S
O60 C53 1.195 . S
O61 Mg52 2.048 . S
O61 C62 1.195 . S
C62 O61 1.195 . S
C62 O63 1.313 . S
O63 C62 1.313 . S
O64 Mg52 2.141 . S
O64 C55 1.289 . S
Mg65 O72 2.141 . S
Mg65 O73 2.048 . S
Mg65 O74 2.048 . S
Mg65 O77 2.141 . S
C66 O67 1.313 . S
C66 O73 1.195 . S
O67 C66 1.313 . S
C68 O69 1.245 . S
C68 O77 1.289 . S
O69 C68 1.245 . S
C70 O71 1.245 . S
C70 O72 1.289 . S
O71 C70 1.245 . S
O72 Mg65 2.141 . S
O72 C70 1.289 . S
O73 Mg65 2.048 . S
O73 C66 1.195 . S
O74 Mg65 2.048 . S
O74 C75 1.195 . S
C75 O74 1.195 . S
C75 O76 1.313 . S
O76 C75 1.313 . S
O77 Mg65 2.141 . S
O77 C68 1.289 . S
Mg78 O85 2.141 . S
Mg78 O86 2.048 . S
Mg78 O87 2.048 . S
Mg78 O90 2.141 . S
C79 O80 1.313 . S
C79 O86 1.195 . S
O80 C79 1.313 . S
C81 O82 1.245 . S
C81 O90 1.289 . S
O82 C81 1.245 . S
C83 O84 1.245 . S
C83 O85 1.289 . S
O84 C83 1.245 . S
O85 Mg78 2.141 . S
O85 C83 1.289 . S
O86 Mg78 2.048 . S
O86 C79 1.195 . S
O87 Mg78 2.048 . S
O87 C88 1.195 . S
C88 O87 1.195 . S
C88 O89 1.313 . S
O89 C88 1.313 . S
O90 Mg78 2.141 . S
O90 C81 1.289 . S
Mg91 O98 2.141 . S
Mg91 O99 2.048 . S
Mg91 O100 2.048 . S
Mg91 O103 2.141 . S
C92 O93 1.313 . S
C92 O99 1.195 . S
O93 C92 1.313 . S
C94 O95 1.245 . S
C94 O103 1.289 . S
O95 C94 1.245 . S
C96 O97 1.245 . S
C96 O98 1.289 . S
O97 C96 1.245 . S
O98 Mg91 2.141 . S
O98 C96 1.289 . S
O99 Mg91 2.048 . S
O99 C92 1.195 . S
O100 Mg91 2.048 . S
O100 C101 1.195 . S
C101 O100 1.195 . S
C101 O102 1.313 . S
O102 C101 1.313 . S
O103 Mg91 2.141 . S
O103 C94 1.289 . S
Mg104 O111 2.141 . S
Mg104 O112 2.048 . S
Mg104 O113 2.048 . S
Mg104 O116 2.141 . S
C105 O106 1.313 . S
C105 O112 1.195 . S
O106 C105 1.313 . S
C107 O108 1.245 . S
C107 O116 1.289 . S
O108 C107 1.245 . S
C109 O110 1.245 . S
C109 O111 1.289 . S
O110 C109 1.245 . S
O111 Mg104 2.141 . S
O111 C109 1.289 . S
O112 Mg104 2.048 . S
O112 C105 1.195 . S
O113 Mg104 2.048 . S
O113 C114 1.195 . S
C114 O113 1.195 . S
C114 O115 1.313 . S
O115 C114 1.313 . S
O116 Mg104 2.141 . S
O116 C107 1.289 . S
Mg117 O124 2.141 . S
Mg117 O125 2.048 . S
Mg117 O126 2.048 . S
Mg117 O129 2.141 . S
C118 O119 1.313 . S
C118 O125 1.195 . S
O119 C118 1.313 . S
C120 O121 1.245 . S
C120 O129 1.289 . S
O121 C120 1.245 . S
C122 O123 1.245 . S
C122 O124 1.289 . S
O123 C122 1.245 . S
O124 Mg117 2.141 . S
O124 C122 1.289 . S
O125 Mg117 2.048 . S
O125 C118 1.195 . S
O126 Mg117 2.048 . S
O126 C127 1.195 . S
C127 O126 1.195 . S
C127 O128 1.313 . S
O128 C127 1.313 . S
O129 Mg117 2.141 . S
O129 C120 1.289 . S
Mg130 O137 2.141 . S
Mg130 O138 2.048 . S
Mg130 O139 2.048 . S
Mg130 O142 2.141 . S
C131 O132 1.313 . S
C131 O138 1.195 . S
O132 C131 1.313 . S
C133 O134 1.245 . S
C133 O142 1.289 . S
O134 C133 1.245 . S
C135 O136 1.245 . S
C135 O137 1.289 . S
O136 C135 1.245 . S
O137 Mg130 2.141 . S
O137 C135 1.289 . S
O138 Mg130 2.048 . S
O138 C131 1.195 . S
O139 Mg130 2.048 . S
O139 C140 1.195 . S
C140 O139 1.195 . S
C140 O141 1.313 . S
O141 C140 1.313 . S
O142 Mg130 2.141 . S
O142 C133 1.289 . S
Mg143 O150 2.141 . S
Mg143 O151 2.048 . S
Mg143 O152 2.048 . S
Mg143 O155 2.141 . S
C144 O145 1.313 . S
C144 O151 1.195 . S
O145 C144 1.313 . S
C146 O147 1.245 . S
C146 O155 1.289 . S
O147 C146 1.245 . S
C148 O149 1.245 . S
C148 O150 1.289 . S
O149 C148 1.245 . S
O150 Mg143 2.141 . S
O150 C148 1.289 . S
O151 Mg143 2.048 . S
O151 C144 1.195 . S
O152 Mg143 2.048 . S
O152 C153 1.195 . S
C153 O152 1.195 . S
C153 O154 1.313 . S
O154 C153 1.313 . S
O155 Mg143 2.141 . S
O155 C146 1.289 . S
Mg156 O163 2.141 . S
Mg156 O164 2.048 . S
Mg156 O165 2.048 . S
Mg156 O168 2.141 . S
C157 O158 1.313 . S
C157 O164 1.195 . S
O158 C157 1.313 . S
C159 O160 1.245 . S
C159 O168 1.289 . S
O160 C159 1.245 . S
C161 O162 1.245 . S
C161 O163 1.289 . S
O162 C161 1.245 . S
O163 Mg156 2.141 . S
O163 C161 1.289 . S
O164 Mg156 2.048 . S
O164 C157 1.195 . S
O165 Mg156 2.048 . S
O165 C166 1.195 . S
C166 O165 1.195 . S
C166 O167 1.313 . S
O167 C166 1.313 . S
O168 Mg156 2.141 . S
O168 C159 1.289 . S
Mg169 O176 2.141 . S
Mg169 O177 2.048 . S
Mg169 O178 2.048 . S
Mg169 O181 2.141 . S
C170 O171 1.313 . S
C170 O177 1.195 . S
O171 C170 1.313 . S
C172 O173 1.245 . S
C172 O181 1.289 . S
O173 C172 1.245 . S
C174 O175 1.245 . S
C174 O176 1.289 . S
O175 C174 1.245 . S
O176 Mg169 2.141 . S
O176 C174 1.289 . S
O177 Mg169 2.048 . S
O177 C170 1.195 . S
O178 Mg169 2.048 . S
O178 C179 1.195 . S
C179 O178 1.195 . S
C179 O180 1.313 . S
O180 C179 1.313 . S
O181 Mg169 2.141 . S
O181 C172 1.289 . S
Mg182 O189 2.141 . S
Mg182 O190 2.048 . S
Mg182 O191 2.048 . S
Mg182 O194 2.141 . S
C183 O184 1.313 . S
C183 O190 1.195 . S
O184 C183 1.313 . S
C185 O186 1.245 . S
C185 O194 1.289 . S
O186 C185 1.245 . S
C187 O188 1.245 . S
C187 O189 1.289 . S
O188 C187 1.245 . S
O189 Mg182 2.141 . S
O189 C187 1.289 . S
O190 Mg182 2.048 . S
O190 C183 1.195 . S
O191 Mg182 2.048 . S
O191 C192 1.195 . S
C192 O191 1.195 . S
C192 O193 1.313 . S
O193 C192 1.313 . S
O194 Mg182 2.141 . S
O194 C185 1.289 . S
Mg195 O202 2.141 . S
Mg195 O203 2.048 . S
Mg195 O204 2.048 . S
Mg195 O207 2.141 . S
C196 O197 1.313 . S
C196 O203 1.195 . S
O197 C196 1.313 . S
C198 O199 1.245 . S
C198 O207 1.289 . S
O199 C198 1.245 . S
C200 O201 1.245 . S
C200 O202 1.289 . S
O201 C200 1.245 . S
O202 Mg195 2.141 . S
O202 C200 1.289 . S
O203 Mg195 2.048 . S
O203 C196 1.195 . S
O204 Mg195 2.048 . S
O204 C205 1.195 . S
C205 O204 1.195 . S
C205 O206 1.313 . S
O206 C205 1.313 . S
O207 Mg195 2.141 . S
O207 C198 1.289 . S
Mg208 O215 2.141 . S
Mg208 O216 2.048 . S
Mg208 O217 2.048 . S
Mg208 O220 2.141 . S
C209 O210 1.313 . S
C209 O216 1.195 . S
O210 C209 1.313 . S
C211 O212 1.245 . S
C211 O220 1.289 . S
O212 C211 1.245 . S
C213 O214 1.245 . S
C213 O215 1.289 . S
O214 C213 1.245 . S
O215 Mg208 2.141 . S
O215 C213 1.289 . S
O216 Mg208 2.048 . S
O216 C209 1.195 . S
O217 Mg208 2.048 . S
O217 C218 1.195 . S
C218 O217 1.195 . S
C218 O219 1.313 . S
O219 C218 1.313 . S
O220 Mg208 2.141 . S
O220 C211 1.289 . S
Mg221 O228 2.141 . S
Mg221 O229 2.048 . S
Mg221 O230 2.048 . S
Mg221 O233 2.141 . S
C222 O223 1.313 . S
C222 O229 1.195 . S
O223 C222 1.313 . S
C224 O225 1.245 . S
C224 O233 1.289 . S
O225 C224 1.245 . S
C226 O227 1.245 . S
C226 O228 1.289 . S
O227 C226 1.245 . S
O228 Mg221 2.141 . S
O228 C226 1.289 . S
O229 Mg221 2.048 . S
O229 C222 1.195 . S
O230 Mg221 2.048 . S
O230 C231 1.195 . S
C231 O230 1.195 . S
C231 O232 1.313 . S
O232 C231 1.313 . S
O233 Mg221 2.141 . S
O233 C224 1.289 . S
Mg234 O241 2.141 . S
Mg234 O242 2.048 . S
Mg234 O243 2.048 . S
Mg234 O246 2.141 . S
C235 O236 1.313 . S
C235 O242 1.195 . S
O236 C235 1.313 . S
C237 O238 1.245 . S
C237 O246 1.289 . S
O238 C237 1.245 . S
C239 O240 1.245 . S
C239 O241 1.289 . S
O240 C239 1.245 . S
O241 Mg234 2.141 . S
O241 C239 1.289 . S
O242 Mg234 2.048 . S
O242 C235 1.195 . S
O243 Mg234 2.048 . S
O243 C244 1.195 . S
C244 O243 1.195 . S
C244 O245 1.313 . S
O245 C244 1.313 . S
O246 Mg234 2.141 . S
O246 C237 1.289 . S
Mg247 O254 2.141 . S
Mg247 O255 2.048 . S
Mg247 O256 2.048 . S
Mg247 O259 2.141 . S
C248 O249 1.313 . S
C248 O255 1.195 . S
O249 C248 1.313 . S
C250 O251 1.245 . S
C250 O259 1.289 . S
O251 C250 1.245 . S
C252 O253 1.245 . S
C252 O254 1.289 . S
O253 C252 1.245 . S
O254 Mg247 2.141 . S
O254 C252 1.289 . S
O255 Mg247 2.048 . S
O255 C248 1.195 . S
O256 Mg247 2.048 . S
O256 C257 1.195 . S
C257 O256 1.195 . S
C257 O258 1.313 . S
O258 C257 1.313 . S
O259 Mg247 2.141 . S
O259 C250 1.289 . S
Mg260 O267 2.141 . S
Mg260 O268 2.048 . S
Mg260 O269 2.048 . S
Mg260 O272 2.141 . S
C261 O262 1.313 . S
C261 O268 1.195 . S
O262 C261 1.313 . S
C263 O264 1.245 . S
C263 O272 1.289 . S
O264 C263 1.245 . S
C265 O266 1.245 . S
C265 O267 1.289 . S
O266 C265 1.245 . S
O267 Mg260 2.141 . S
O267 C265 1.289 . S
O268 Mg260 2.048 . S
O268 C261 1.195 . S
O269 Mg260 2.048 . S
O269 C270 1.195 . S
C270 O269 1.195 . S
C270 O271 1.313 . S
O271 C270 1.313 . S
O272 Mg260 2.141 . S
O272 C263 1.289 . S
Mg273 O280 2.141 . S
Mg273 O281 2.048 . S
Mg273 O282 2.048 . S
Mg273 O285 2.141 . S
C274 O275 1.313 . S
C274 O281 1.195 . S
O275 C274 1.313 . S
C276 O277 1.245 . S
C276 O285 1.289 . S
O277 C276 1.245 . S
C278 O279 1.245 . S
C278 O280 1.289 . S
O279 C278 1.245 . S
O280 Mg273 2.141 . S
O280 C278 1.289 . S
O281 Mg273 2.048 . S
O281 C274 1.195 . S
O282 Mg273 2.048 . S
O282 C283 1.195 . S
C283 O282 1.195 . S
C283 O284 1.313 . S
O284 C283 1.313 . S
O285 Mg273 2.141 . S
O285 C276 1.289 . S
Mg286 O293 2.141 . S
Mg286 O294 2.048 . S
Mg286 O295 2.048 . S
Mg286 O298 2.141 . S
C287 O288 1.313 . S
C287 O294 1.195 . S
O288 C287 1.313 . S
C289 O290 1.245 . S
C289 O298 1.289 . S
O290 C289 1.245 . S
C291 O292 1.245 . S
C291 O293 1.289 . S
O292 C291 1.245 . S
O293 Mg286 2.141 . S
O293 C291 1.289 . S
O294 Mg286 2.048 . S
O294 C287 1.195 . S
O295 Mg286 2.048 . S
O295 C296 1.195 . S
C296 O295 1.195 . S
C296 O297 1.313 . S
O297 C296 1.313 . S
O298 Mg286 2.141 . S
O298 C289 1.289 . S
Mg299 O306 2.141 . S
Mg299 O307 2.048 . S
Mg299 O308 2.048 . S
Mg299 O311 2.141 . S
C300 O301 1.313 . S
C300 O307 1.195 . S
O301 C300 1.313 . S
C302 O303 1.245 . S
C302 O311 1.289 . S
O303 C302 1.245 . S
C304 O305 1.245 . S
C304 O306 1.289 . S
O305 C304 1.245 . S
O306 Mg299 2.141 . S
O306 C304 1.289 . S
O307 Mg299 2.048 . S
O307 C300 1.195 . S
O308 Mg299 2.048 . S
O308 C309 1.195 . S
C309 O308 1.195 . S
C309 O310 1.313 . S
O310 C309 1.313 . S
O311 Mg299 2.141 . S
O311 C302 1.289 . S
C312 C313 1.363 . S
C312 C318 1.379 . S
C312 N320 1.356 . S
C313 C312 1.363 . S
C313 C319 1.363 . S
C314 C315 1.363 . S
C314 C319 1.379 . S
C314 N321 1.356 . S
C315 C314 1.363 . S
C315 C318 1.363 . S
N316 C318 1.356 . S
N316 H328 0.984 . S
N316 H329 0.985 . S
N317 C319 1.356 . S
N317 H322 0.984 . S
N317 H323 0.985 . S
C318 C312 1.379 . S
C318 C315 1.363 . S
C318 N316 1.356 . S
C319 C313 1.363 . S
C319 C314 1.379 . S
C319 N317 1.356 . S
N320 C312 1.356 . S
N320 H326 0.984 . S
N320 H327 0.984 . S
N321 C314 1.356 . S
N321 H324 0.984 . S
N321 H325 0.985 . S
H322 N317 0.984 . S
H323 N317 0.985 . S
H324 N321 0.984 . S
H325 N321 0.985 . S
H326 N320 0.984 . S
H327 N320 0.984 . S
H328 N316 0.984 . S
H329 N316 0.985 . S
C330 C331 1.363 . S
C330 C336 1.379 . S
C330 N338 1.356 . S
C331 C330 1.363 . S
C331 C337 1.363 . S
C332 C333 1.363 . S
C332 C337 1.379 . S
C332 N339 1.356 . S
C333 C332 1.363 . S
C333 C336 1.363 . S
N334 C336 1.356 . S
N334 H346 0.984 . S
N334 H347 0.985 . S
N335 C337 1.356 . S
N335 H340 0.984 . S
N335 H341 0.985 . S
C336 C330 1.379 . S
C336 C333 1.363 . S
C336 N334 1.356 . S
C337 C331 1.363 . S
C337 C332 1.379 . S
C337 N335 1.356 . S
N338 C330 1.356 . S
N338 H344 0.984 . S
N338 H345 0.984 . S
N339 C332 1.356 . S
N339 H342 0.984 . S
N339 H343 0.985 . S
H340 N335 0.984 . S
H341 N335 0.985 . S
H342 N339 0.984 . S
H343 N339 0.985 . S
H344 N338 0.984 . S
H345 N338 0.984 . S
H346 N334 0.984 . S
H347 N334 0.985 . S
C348 C349 1.363 . S
C348 C354 1.379 . S
C348 N356 1.356 . S
C349 C348 1.363 . S
C349 C355 1.363 . S
C350 C351 1.363 . S
C350 C355 1.379 . S
C350 N357 1.356 . S
C351 C350 1.363 . S
C351 C354 1.363 . S
N352 C354 1.356 . S
N352 H364 0.984 . S
N352 H365 0.985 . S
N353 C355 1.356 . S
N353 H358 0.984 . S
N353 H359 0.985 . S
C354 C348 1.379 . S
C354 C351 1.363 . S
C354 N352 1.356 . S
C355 C349 1.363 . S
C355 C350 1.379 . S
C355 N353 1.356 . S
N356 C348 1.356 . S
N356 H362 0.984 . S
N356 H363 0.984 . S
N357 C350 1.356 . S
N357 H360 0.984 . S
N357 H361 0.985 . S
H358 N353 0.984 . S
H359 N353 0.985 . S
H360 N357 0.984 . S
H361 N357 0.985 . S
H362 N356 0.984 . S
H363 N356 0.984 . S
H364 N352 0.984 . S
H365 N352 0.985 . S
C366 C367 1.363 . S
C366 C372 1.379 . S
C366 N374 1.356 . S
C367 C366 1.363 . S
C367 C373 1.363 . S
C368 C369 1.363 . S
C368 C373 1.379 . S
C368 N375 1.356 . S
C369 C368 1.363 . S
C369 C372 1.363 . S
N370 C372 1.356 . S
N370 H382 0.984 . S
N370 H383 0.985 . S
N371 C373 1.356 . S
N371 H376 0.984 . S
N371 H377 0.985 . S
C372 C366 1.379 . S
C372 C369 1.363 . S
C372 N370 1.356 . S
C373 C367 1.363 . S
C373 C368 1.379 . S
C373 N371 1.356 . S
N374 C366 1.356 . S
N374 H380 0.984 . S
N374 H381 0.984 . S
N375 C368 1.356 . S
N375 H378 0.984 . S
N375 H379 0.985 . S
H376 N371 0.984 . S
H377 N371 0.985 . S
H378 N375 0.984 . S
H379 N375 0.985 . S
H380 N374 0.984 . S
H381 N374 0.984 . S
H382 N370 0.984 . S
H383 N370 0.985 . S
C384 C385 1.363 . S
C384 C390 1.379 . S
C384 N392 1.356 . S
C385 C384 1.363 . S
C385 C391 1.363 . S
C386 C387 1.363 . S
C386 C391 1.379 . S
C386 N393 1.356 . S
C387 C386 1.363 . S
C387 C390 1.363 . S
N388 C390 1.356 . S
N388 H400 0.984 . S
N388 H401 0.985 . S
N389 C391 1.356 . S
N389 H394 0.984 . S
N389 H395 0.985 . S
C390 C384 1.379 . S
C390 C387 1.363 . S
C390 N388 1.356 . S
C391 C385 1.363 . S
C391 C386 1.379 . S
C391 N389 1.356 . S
N392 C384 1.356 . S
N392 H398 0.984 . S
N392 H399 0.984 . S
N393 C386 1.356 . S
N393 H396 0.984 . S
N393 H397 0.985 . S
H394 N389 0.984 . S
H395 N389 0.985 . S
H396 N393 0.984 . S
H397 N393 0.985 . S
H398 N392 0.984 . S
H399 N392 0.984 . S
H400 N388 0.984 . S
H401 N388 0.985 . S
C402 C403 1.363 . S
C402 C408 1.379 . S
C402 N410 1.356 . S
C403 C402 1.363 . S
C403 C409 1.363 . S
C404 C405 1.363 . S
C404 C409 1.379 . S
C404 N411 1.356 . S
C405 C404 1.363 . S
C405 C408 1.363 . S
N406 C408 1.356 . S
N406 H418 0.984 . S
N406 H419 0.985 . S
N407 C409 1.356 . S
N407 H412 0.984 . S
N407 H413 0.985 . S
C408 C402 1.379 . S
C408 C405 1.363 . S
C408 N406 1.356 . S
C409 C403 1.363 . S
C409 C404 1.379 . S
C409 N407 1.356 . S
N410 C402 1.356 . S
N410 H416 0.984 . S
N410 H417 0.984 . S
N411 C404 1.356 . S
N411 H414 0.984 . S
N411 H415 0.985 . S
H412 N407 0.984 . S
H413 N407 0.985 . S
H414 N411 0.984 . S
H415 N411 0.985 . S
H416 N410 0.984 . S
H417 N410 0.984 . S
H418 N406 0.984 . S
H419 N406 0.985 . S
C420 C421 1.363 . S
C420 C426 1.379 . S
C420 N428 1.356 . S
C421 C420 1.363 . S
C421 C427 1.363 . S
C422 C423 1.363 . S
C422 C427 1.379 . S
C422 N429 1.356 . S
C423 C422 1.363 . S
C423 C426 1.363 . S
N424 C426 1.356 . S
N424 H436 0.984 . S
N424 H437 0.985 . S
N425 C427 1.356 . S
N425 H430 0.984 . S
N425 H431 0.985 . S
C426 C420 1.379 . S
C426 C423 1.363 . S
C426 N424 1.356 . S
C427 C421 1.363 . S
C427 C422 1.379 . S
C427 N425 1.356 . S
N428 C420 1.356 . S
N428 H434 0.984 . S
N428 H435 0.984 . S
N429 C422 1.356 . S
N429 H432 0.984 . S
N429 H433 0.985 . S
H430 N425 0.984 . S
H431 N425 0.985 . S
H432 N429 0.984 . S
H433 N429 0.985 . S
H434 N428 0.984 . S
H435 N428 0.984 . S
H436 N424 0.984 . S
H437 N424 0.985 . S
C438 C439 1.363 . S
C438 C444 1.379 . S
C438 N446 1.356 . S
C439 C438 1.363 . S
C439 C445 1.363 . S
C440 C441 1.363 . S
C440 C445 1.379 . S
C440 N447 1.356 . S
C441 C440 1.363 . S
C441 C444 1.363 . S
N442 C444 1.356 . S
N442 H454 0.984 . S
N442 H455 0.985 . S
N443 C445 1.356 . S
N443 H448 0.984 . S
N443 H449 0.985 . S
C444 C438 1.379 . S
C444 C441 1.363 . S
C444 N442 1.356 . S
C445 C439 1.363 . S
C445 C440 1.379 . S
C445 N443 1.356 . S
N446 C438 1.356 . S
N446 H452 0.984 . S
N446 H453 0.984 . S
N447 C440 1.356 . S
N447 H450 0.984 . S
N447 H451 0.985 . S
H448 N443 0.984 . S
H449 N443 0.985 . S
H450 N447 0.984 . S
H451 N447 0.985 . S
H452 N446 0.984 . S
H453 N446 0.984 . S
H454 N442 0.984 . S
H455 N442 0.985 . S
C456 C457 1.363 . S
C456 C462 1.379 . S
C456 N464 1.356 . S
C457 C456 1.363 . S
C457 C463 1.363 . S
C458 C459 1.363 . S
C458 C463 1.379 . S
C458 N465 1.356 . S
C459 C458 1.363 . S
C459 C462 1.363 . S
N460 C462 1.356 . S
N460 H472 0.984 . S
N460 H473 0.985 . S
N461 C463 1.356 . S
N461 H466 0.984 . S
N461 H467 0.985 . S
C462 C456 1.379 . S
C462 C459 1.363 . S
C462 N460 1.356 . S
C463 C457 1.363 . S
C463 C458 1.379 . S
C463 N461 1.356 . S
N464 C456 1.356 . S
N464 H470 0.984 . S
N464 H471 0.984 . S
N465 C458 1.356 . S
N465 H468 0.984 . S
N465 H469 0.985 . S
H466 N461 0.984 . S
H467 N461 0.985 . S
H468 N465 0.984 . S
H469 N465 0.985 . S
H470 N464 0.984 . S
H471 N464 0.984 . S
H472 N460 0.984 . S
H473 N460 0.985 . S
C474 C475 1.363 . S
C474 C480 1.379 . S
C474 N482 1.356 . S
C475 C474 1.363 . S
C475 C481 1.363 . S
C476 C477 1.363 . S
C476 C481 1.379 . S
C476 N483 1.356 . S
C477 C476 1.363 . S
C477 C480 1.363 . S
N478 C480 1.356 . S
N478 H490 0.984 . S
N478 H491 0.985 . S
N479 C481 1.356 . S
N479 H484 0.984 . S
N479 H485 0.985 . S
C480 C474 1.379 . S
C480 C477 1.363 . S
C480 N478 1.356 . S
C481 C475 1.363 . S
C481 C476 1.379 . S
C481 N479 1.356 . S
N482 C474 1.356 . S
N482 H488 0.984 . S
N482 H489 0.984 . S
N483 C476 1.356 . S
N483 H486 0.984 . S
N483 H487 0.985 . S
H484 N479 0.984 . S
H485 N479 0.985 . S
H486 N483 0.984 . S
H487 N483 0.985 . S
H488 N482 0.984 . S
H489 N482 0.984 . S
H490 N478 0.984 . S
H491 N478 0.985 . S
C492 C493 1.363 . S
C492 C498 1.379 . S
C492 N500 1.356 . S
C493 C492 1.363 . S
C493 C499 1.363 . S
C494 C495 1.363 . S
C494 C499 1.379 . S
C494 N501 1.356 . S
C495 C494 1.363 . S
C495 C498 1.363 . S
N496 C498 1.356 . S
N496 H508 0.984 . S
N496 H509 0.985 . S
N497 C499 1.356 . S
N497 H502 0.984 . S
N497 H503 0.985 . S
C498 C492 1.379 . S
C498 C495 1.363 . S
C498 N496 1.356 . S
C499 C493 1.363 . S
C499 C494 1.379 . S
C499 N497 1.356 . S
N500 C492 1.356 . S
N500 H506 0.984 . S
N500 H507 0.984 . S
N501 C494 1.356 . S
N501 H504 0.984 . S
N501 H505 0.985 . S
H502 N497 0.984 . S
H503 N497 0.985 . S
H504 N501 0.984 . S
H505 N501 0.985 . S
H506 N500 0.984 . S
H507 N500 0.984 . S
H508 N496 0.984 . S
H509 N496 0.985 . S
C510 C511 1.363 . S
C510 C516 1.379 . S
C510 N518 1.356 . S
C511 C510 1.363 . S
C511 C517 1.363 . S
C512 C513 1.363 . S
C512 C517 1.379 . S
C512 N519 1.356 . S
C513 C512 1.363 . S
C513 C516 1.363 . S
N514 C516 1.356 . S
N514 H526 0.984 . S
N514 H527 0.985 . S
N515 C517 1.356 . S
N515 H520 0.984 . S
N515 H521 0.985 . S
C516 C510 1.379 . S
C516 C513 1.363 . S
C516 N514 1.356 . S
C517 C511 1.363 . S
C517 C512 1.379 . S
C517 N515 1.356 . S
N518 C510 1.356 . S
N518 H524 0.984 . S
N518 H525 0.984 . S
N519 C512 1.356 . S
N519 H522 0.984 . S
N519 H523 0.985 . S
H520 N515 0.984 . S
H521 N515 0.985 . S
H522 N519 0.984 . S
H523 N519 0.985 . S
H524 N518 0.984 . S
H525 N518 0.984 . S
H526 N514 0.984 . S
H527 N514 0.985 . S
C528 C529 1.363 . S
C528 C534 1.379 . S
C528 N536 1.356 . S
C529 C528 1.363 . S
C529 C535 1.363 1_565 S
C530 C531 1.363 . S
C530 C535 1.379 . S
C530 N537 1.356 . S
C531 C530 1.363 . S
C531 C534 1.363 1_545 S
N532 C534 1.356 . S
N532 H544 0.984 . S
N532 H545 0.985 1_565 S
N533 C535 1.356 . S
N533 H538 0.984 1_545 S
N533 H539 0.985 . S
C534 C528 1.379 . S
C534 C531 1.363 1_565 S
C534 N532 1.356 . S
C535 C529 1.363 1_545 S
C535 C530 1.379 . S
C535 N533 1.356 . S
N536 C528 1.356 . S
N536 H542 0.984 . S
N536 H543 0.984 . S
N537 C530 1.356 . S
N537 H540 0.984 . S
N537 H541 0.985 . S
H538 N533 0.984 1_565 S
H539 N533 0.985 . S
H540 N537 0.984 . S
H541 N537 0.985 . S
H542 N536 0.984 . S
H543 N536 0.984 . S
H544 N532 0.984 . S
H545 N532 0.985 1_545 S
C546 C547 1.363 . S
C546 C552 1.379 . S
C546 N554 1.356 . S
C547 C546 1.363 . S
C547 C553 1.363 1_655 S
C548 C549 1.363 . S
C548 C553 1.379 . S
C548 N555 1.356 . S
C549 C548 1.363 . S
C549 C552 1.363 1_455 S
N550 C552 1.356 . S
N550 H562 0.984 . S
N550 H563 0.985 1_655 S
N551 C553 1.356 . S
N551 H556 0.984 1_455 S
N551 H557 0.985 . S
C552 C546 1.379 . S
C552 C549 1.363 1_655 S
C552 N550 1.356 . S
C553 C547 1.363 1_455 S
C553 C548 1.379 . S
C553 N551 1.356 . S
N554 C546 1.356 . S
N554 H560 0.984 . S
N554 H561 0.984 . S
N555 C548 1.356 . S
N555 H558 0.984 . S
N555 H559 0.985 . S
H556 N551 0.984 1_655 S
H557 N551 0.985 . S
H558 N555 0.984 . S
H559 N555 0.985 . S
H560 N554 0.984 . S
H561 N554 0.984 . S
H562 N550 0.984 . S
H563 N550 0.985 1_455 S
C564 C565 1.363 1_565 S
C564 C570 1.379 . S
C564 N572 1.356 . S
C565 C564 1.363 1_545 S
C565 C571 1.363 . S
C566 C567 1.363 1_545 S
C566 C571 1.379 . S
C566 N573 1.356 . S
C567 C566 1.363 1_565 S
C567 C570 1.363 . S
N568 C570 1.356 . S
N568 H580 0.984 . S
N568 H581 0.985 . S
N569 C571 1.356 . S
N569 H574 0.984 . S
N569 H575 0.985 . S
C570 C564 1.379 . S
C570 C567 1.363 . S
C570 N568 1.356 . S
C571 C565 1.363 . S
C571 C566 1.379 . S
C571 N569 1.356 . S
N572 C564 1.356 . S
N572 H578 0.984 . S
N572 H579 0.984 1_565 S
N573 C566 1.356 . S
N573 H576 0.984 1_545 S
N573 H577 0.985 . S
H574 N569 0.984 . S
H575 N569 0.985 . S
H576 N573 0.984 1_565 S
H577 N573 0.985 . S
H578 N572 0.984 . S
H579 N572 0.984 1_545 S
H580 N568 0.984 . S
H581 N568 0.985 . S
C582 C583 1.363 . S
C582 C588 1.379 . S
C582 N590 1.356 . S
C583 C582 1.363 . S
C583 C589 1.363 1_455 S
C584 C585 1.363 . S
C584 C589 1.379 . S
C584 N591 1.356 . S
C585 C584 1.363 . S
C585 C588 1.363 1_655 S
N586 C588 1.356 . S
N586 H598 0.984 . S
N586 H599 0.985 1_455 S
N587 C589 1.356 . S
N587 H592 0.984 1_655 S
N587 H593 0.985 . S
C588 C582 1.379 . S
C588 C585 1.363 1_455 S
C588 N586 1.356 . S
C589 C583 1.363 1_655 S
C589 C584 1.379 . S
C589 N587 1.356 . S
N590 C582 1.356 . S
N590 H596 0.984 . S
N590 H597 0.984 . S
N591 C584 1.356 . S
N591 H594 0.984 . S
N591 H595 0.985 . S
H592 N587 0.984 1_455 S
H593 N587 0.985 . S
H594 N591 0.984 . S
H595 N591 0.985 . S
H596 N590 0.984 . S
H597 N590 0.984 . S
H598 N586 0.984 . S
H599 N586 0.985 1_655 S
C600 C601 1.363 . S
C600 C606 1.379 . S
C600 N608 1.356 . S
C601 C600 1.363 . S
C601 C607 1.363 1_565 S
C602 C603 1.363 . S
C602 C607 1.379 . S
C602 N609 1.356 . S
C603 C602 1.363 . S
C603 C606 1.363 1_545 S
N604 C606 1.356 . S
N604 H616 0.984 . S
N604 H617 0.985 1_565 S
N605 C607 1.356 . S
N605 H610 0.984 1_545 S
N605 H611 0.985 . S
C606 C600 1.379 . S
C606 C603 1.363 1_565 S
C606 N604 1.356 . S
C607 C601 1.363 1_545 S
C607 C602 1.379 . S
C607 N605 1.356 . S
N608 C600 1.356 . S
N608 H614 0.984 . S
N608 H615 0.984 . S
N609 C602 1.356 . S
N609 H612 0.984 . S
N609 H613 0.985 . S
H610 N605 0.984 1_565 S
H611 N605 0.985 . S
H612 N609 0.984 . S
H613 N609 0.985 . S
H614 N608 0.984 . S
H615 N608 0.984 . S
H616 N604 0.984 . S
H617 N604 0.985 1_545 S
C618 C619 1.363 . S
C618 C624 1.379 . S
C618 N626 1.356 . S
C619 C618 1.363 . S
C619 C625 1.363 1_655 S
C620 C621 1.363 . S
C620 C625 1.379 . S
C620 N627 1.356 . S
C621 C620 1.363 . S
C621 C624 1.363 1_455 S
N622 C624 1.356 . S
N622 H634 0.984 . S
N622 H635 0.985 1_655 S
N623 C625 1.356 . S
N623 H628 0.984 1_455 S
N623 H629 0.985 . S
C624 C618 1.379 . S
C624 C621 1.363 1_655 S
C624 N622 1.356 . S
C625 C619 1.363 1_455 S
C625 C620 1.379 . S
C625 N623 1.356 . S
N626 C618 1.356 . S
N626 H632 0.984 . S
N626 H633 0.984 . S
N627 C620 1.356 . S
N627 H630 0.984 . S
N627 H631 0.985 . S
H628 N623 0.984 1_655 S
H629 N623 0.985 . S
H630 N627 0.984 . S
H631 N627 0.985 . S
H632 N626 0.984 . S
H633 N626 0.984 . S
H634 N622 0.984 . S
H635 N622 0.985 1_455 S
C636 C637 1.363 1_545 S
C636 C642 1.379 . S
C636 N644 1.352 1_545 S
C637 C636 1.363 1_565 S
C637 C643 1.363 . S
C638 C639 1.363 1_565 S
C638 C643 1.379 . S
C638 N645 1.352 1_565 S
C639 C638 1.363 1_545 S
C639 C642 1.363 . S
N640 C642 1.356 . S
N640 H652 0.984 . S
N640 H653 0.985 . S
N641 C643 1.356 . S
N641 H646 0.984 . S
N641 H647 0.985 . S
C642 C636 1.379 . S
C642 C639 1.363 . S
C642 N640 1.356 . S
C643 C637 1.363 . S
C643 C638 1.379 . S
C643 N641 1.356 . S
N644 C636 1.352 1_565 S
N644 H650 0.965 1_565 S
N644 H651 1.009 . S
N645 C638 1.352 1_545 S
N645 H648 1.009 . S
N645 H649 0.965 1_545 S
H646 N641 0.984 . S
H647 N641 0.985 . S
H648 N645 1.009 . S
H649 N645 0.965 1_565 S
H650 N644 0.965 1_545 S
H651 N644 1.009 . S
H652 N640 0.984 . S
H653 N640 0.985 . S
C654 C655 1.363 . S
C654 C660 1.379 . S
C654 N662 1.356 . S
C655 C654 1.363 . S
C655 C661 1.363 1_455 S
C656 C657 1.363 . S
C656 C661 1.379 . S
C656 N663 1.356 . S
C657 C656 1.363 . S
C657 C660 1.363 1_655 S
N658 C660 1.356 . S
N658 H670 0.984 . S
N658 H671 0.985 1_455 S
N659 C661 1.356 . S
N659 H664 0.984 1_655 S
N659 H665 0.985 . S
C660 C654 1.379 . S
C660 C657 1.363 1_455 S
C660 N658 1.356 . S
C661 C655 1.363 1_655 S
C661 C656 1.379 . S
C661 N659 1.356 . S
N662 C654 1.356 . S
N662 H668 0.984 . S
N662 H669 0.984 . S
N663 C656 1.356 . S
N663 H666 0.984 . S
N663 H667 0.985 . S
H664 N659 0.984 1_455 S
H665 N659 0.985 . S
H666 N663 0.984 . S
H667 N663 0.985 . S
H668 N662 0.984 . S
H669 N662 0.984 . S
H670 N658 0.984 . S
H671 N658 0.985 1_655 S
C672 C673 1.363 . S
C672 C678 1.379 1_556 S
C672 N680 1.356 . S
C673 C672 1.363 . S
C673 C679 1.363 . S
C674 C675 1.363 . S
C674 C679 1.379 1_554 S
C674 N681 1.356 . S
C675 C674 1.363 . S
C675 C678 1.363 . S
N676 C678 1.356 . S
N676 H688 0.984 . S
N676 H689 0.985 . S
N677 C679 1.356 . S
N677 H682 0.984 . S
N677 H683 0.985 . S
C678 C672 1.379 1_554 S
C678 C675 1.363 . S
C678 N676 1.356 . S
C679 C673 1.363 . S
C679 C674 1.379 1_556 S
C679 N677 1.356 . S
N680 C672 1.356 . S
N680 H686 0.984 . S
N680 H687 0.984 . S
N681 C674 1.356 . S
N681 H684 0.984 . S
N681 H685 0.985 . S
H682 N677 0.984 . S
H683 N677 0.985 . S
H684 N681 0.984 . S
H685 N681 0.985 . S
H686 N680 0.984 . S
H687 N680 0.984 . S
H688 N676 0.984 . S
H689 N676 0.985 . S
C690 C691 1.363 . S
C690 C696 1.379 1_554 S
C690 N698 1.356 . S
C691 C690 1.363 . S
C691 C697 1.363 . S
C692 C693 1.363 . S
C692 C697 1.379 1_556 S
C692 N699 1.356 . S
C693 C692 1.363 . S
C693 C696 1.363 . S
N694 C696 1.356 . S
N694 H706 0.984 . S
N694 H707 0.985 . S
N695 C697 1.356 . S
N695 H700 0.984 . S
N695 H701 0.985 . S
C696 C690 1.379 1_556 S
C696 C693 1.363 . S
C696 N694 1.356 . S
C697 C691 1.363 . S
C697 C692 1.379 1_554 S
C697 N695 1.356 . S
N698 C690 1.356 . S
N698 H704 0.984 . S
N698 H705 0.984 . S
N699 C692 1.356 . S
N699 H702 0.984 . S
N699 H703 0.985 . S
H700 N695 0.984 . S
H701 N695 0.985 . S
H702 N699 0.984 . S
H703 N699 0.985 . S
H704 N698 0.984 . S
H705 N698 0.984 . S
H706 N694 0.984 . S
H707 N694 0.985 . S
C708 C709 1.363 . S
C708 C714 1.379 . S
C708 N716 1.356 . S
C709 C708 1.363 . S
C709 C715 1.363 1_556 S
C710 C711 1.363 . S
C710 C715 1.379 . S
C710 N717 1.356 . S
C711 C710 1.363 . S
C711 C714 1.363 1_554 S
N712 C714 1.356 . S
N712 H724 0.984 . S
N712 H725 0.985 1_556 S
N713 C715 1.356 . S
N713 H718 0.984 1_554 S
N713 H719 0.985 . S
C714 C708 1.379 . S
C714 C711 1.363 1_556 S
C714 N712 1.356 . S
C715 C709 1.363 1_554 S
C715 C710 1.379 . S
C715 N713 1.356 . S
N716 C708 1.356 . S
N716 H722 0.984 . S
N716 H723 0.984 . S
N717 C710 1.356 . S
N717 H720 0.984 . S
N717 H721 0.985 . S
H718 N713 0.984 1_556 S
H719 N713 0.985 . S
H720 N717 0.984 . S
H721 N717 0.985 . S
H722 N716 0.984 . S
H723 N716 0.984 . S
H724 N712 0.984 . S
H725 N712 0.985 1_554 S
C726 C727 1.363 . S
C726 C732 1.379 1_554 S
C726 N734 1.356 . S
C727 C726 1.363 . S
C727 C733 1.363 . S
C728 C729 1.363 . S
C728 C733 1.379 1_556 S
C728 N735 1.356 . S
C729 C728 1.363 . S
C729 C732 1.363 . S
N730 C732 1.356 . S
N730 H742 0.984 . S
N730 H743 0.985 . S
N731 C733 1.356 . S
N731 H736 0.984 . S
N731 H737 0.985 . S
C732 C726 1.379 1_556 S
C732 C729 1.363 . S
C732 N730 1.356 . S
C733 C727 1.363 . S
C733 C728 1.379 1_554 S
C733 N731 1.356 . S
N734 C726 1.356 . S
N734 H740 0.984 . S
N734 H741 0.984 . S
N735 C728 1.356 . S
N735 H738 0.984 . S
N735 H739 0.985 . S
H736 N731 0.984 . S
H737 N731 0.985 . S
H738 N735 0.984 . S
H739 N735 0.985 . S
H740 N734 0.984 . S
H741 N734 0.984 . S
H742 N730 0.984 . S
H743 N730 0.985 . S
C744 C745 1.363 . S
C744 C750 1.379 . S
C744 N752 1.356 . S
C745 C744 1.363 . S
C745 C751 1.363 . S
C746 C747 1.363 . S
C746 C751 1.379 . S
C746 N753 1.356 . S
C747 C746 1.363 . S
C747 C750 1.363 . S
N748 C750 1.356 . S
N748 H760 0.984 . S
N748 H761 0.985 . S
N749 C751 1.356 . S
N749 H754 0.984 . S
N749 H755 0.985 . S
C750 C744 1.379 . S
C750 C747 1.363 . S
C750 N748 1.356 . S
C751 C745 1.363 . S
C751 C746 1.379 . S
C751 N749 1.356 . S
N752 C744 1.356 . S
N752 H758 0.984 . S
N752 H759 0.984 . S
N753 C746 1.356 . S
N753 H756 0.984 . S
N753 H757 0.985 . S
H754 N749 0.984 . S
H755 N749 0.985 . S
H756 N753 0.984 . S
H757 N753 0.985 . S
H758 N752 0.984 . S
H759 N752 0.984 . S
H760 N748 0.984 . S
H761 N748 0.985 . S
C762 C763 1.363 . S
C762 C768 1.379 . S
C762 N770 1.356 . S
C763 C762 1.363 . S
C763 C769 1.363 . S
C764 C765 1.363 . S
C764 C769 1.379 . S
C764 N771 1.356 . S
C765 C764 1.363 . S
C765 C768 1.363 . S
N766 C768 1.356 . S
N766 H778 0.984 . S
N766 H779 0.985 . S
N767 C769 1.356 . S
N767 H772 0.984 . S
N767 H773 0.985 . S
C768 C762 1.379 . S
C768 C765 1.363 . S
C768 N766 1.356 . S
C769 C763 1.363 . S
C769 C764 1.379 . S
C769 N767 1.356 . S
N770 C762 1.356 . S
N770 H776 0.984 . S
N770 H777 0.984 . S
N771 C764 1.356 . S
N771 H774 0.984 . S
N771 H775 0.985 . S
H772 N767 0.984 . S
H773 N767 0.985 . S
H774 N771 0.984 . S
H775 N771 0.985 . S
H776 N770 0.984 . S
H777 N770 0.984 . S
H778 N766 0.984 . S
H779 N766 0.985 . S
C780 C781 1.363 . S
C780 C786 1.379 . S
C780 N788 1.356 . S
C781 C780 1.363 . S
C781 C787 1.363 . S
C782 C783 1.363 . S
C782 C787 1.379 . S
C782 N789 1.356 . S
C783 C782 1.363 . S
C783 C786 1.363 . S
N784 C786 1.356 . S
N784 H796 0.984 . S
N784 H797 0.985 . S
N785 C787 1.356 . S
N785 H790 0.984 . S
N785 H791 0.985 . S
C786 C780 1.379 . S
C786 C783 1.363 . S
C786 N784 1.356 . S
C787 C781 1.363 . S
C787 C782 1.379 . S
C787 N785 1.356 . S
N788 C780 1.356 . S
N788 H794 0.984 . S
N788 H795 0.984 . S
N789 C782 1.356 . S
N789 H792 0.984 . S
N789 H793 0.985 . S
H790 N785 0.984 . S
H791 N785 0.985 . S
H792 N789 0.984 . S
H793 N789 0.985 . S
H794 N788 0.984 . S
H795 N788 0.984 . S
H796 N784 0.984 . S
H797 N784 0.985 . S
C798 C799 1.363 . S
C798 C804 1.379 . S
C798 N806 1.356 . S
C799 C798 1.363 . S
C799 C805 1.363 . S
C800 C801 1.363 . S
C800 C805 1.379 . S
C800 N807 1.356 . S
C801 C800 1.363 . S
C801 C804 1.363 . S
N802 C804 1.356 . S
N802 H814 0.984 . S
N802 H815 0.985 . S
N803 C805 1.356 . S
N803 H808 0.984 . S
N803 H809 0.985 . S
C804 C798 1.379 . S
C804 C801 1.363 . S
C804 N802 1.356 . S
C805 C799 1.363 . S
C805 C800 1.379 . S
C805 N803 1.356 . S
N806 C798 1.356 . S
N806 H812 0.984 . S
N806 H813 0.984 . S
N807 C800 1.356 . S
N807 H810 0.984 . S
N807 H811 0.985 . S
H808 N803 0.984 . S
H809 N803 0.985 . S
H810 N807 0.984 . S
H811 N807 0.985 . S
H812 N806 0.984 . S
H813 N806 0.984 . S
H814 N802 0.984 . S
H815 N802 0.985 . S
C816 C817 1.363 . S
C816 C822 1.379 . S
C816 N824 1.356 . S
C817 C816 1.363 . S
C817 C823 1.363 . S
C818 C819 1.363 . S
C818 C823 1.379 . S
C818 N825 1.356 . S
C819 C818 1.363 . S
C819 C822 1.363 . S
N820 C822 1.356 . S
N820 H832 0.984 . S
N820 H833 0.985 . S
N821 C823 1.356 . S
N821 H826 0.984 . S
N821 H827 0.985 . S
C822 C816 1.379 . S
C822 C819 1.363 . S
C822 N820 1.356 . S
C823 C817 1.363 . S
C823 C818 1.379 . S
C823 N821 1.356 . S
N824 C816 1.356 . S
N824 H830 0.984 . S
N824 H831 0.984 . S
N825 C818 1.356 . S
N825 H828 0.984 . S
N825 H829 0.985 . S
H826 N821 0.984 . S
H827 N821 0.985 . S
H828 N825 0.984 . S
H829 N825 0.985 . S
H830 N824 0.984 . S
H831 N824 0.984 . S
H832 N820 0.984 . S
H833 N820 0.985 . S
C834 C835 1.363 . S
C834 C840 1.379 . S
C834 N842 1.356 . S
C835 C834 1.363 . S
C835 C841 1.363 . S
C836 C837 1.363 . S
C836 C841 1.379 . S
C836 N843 1.356 . S
C837 C836 1.363 . S
C837 C840 1.363 . S
N838 C840 1.356 . S
N838 H850 0.984 . S
N838 H851 0.985 . S
N839 C841 1.356 . S
N839 H844 0.984 . S
N839 H845 0.985 . S
C840 C834 1.379 . S
C840 C837 1.363 . S
C840 N838 1.356 . S
C841 C835 1.363 . S
C841 C836 1.379 . S
C841 N839 1.356 . S
N842 C834 1.356 . S
N842 H848 0.984 . S
N842 H849 0.984 . S
N843 C836 1.356 . S
N843 H846 0.984 . S
N843 H847 0.985 . S
H844 N839 0.984 . S
H845 N839 0.985 . S
H846 N843 0.984 . S
H847 N843 0.985 . S
H848 N842 0.984 . S
H849 N842 0.984 . S
H850 N838 0.984 . S
H851 N838 0.985 . S
C852 C853 1.363 . S
C852 C858 1.379 . S
C852 N860 1.356 . S
C853 C852 1.363 . S
C853 C859 1.363 . S
C854 C855 1.363 . S
C854 C859 1.379 . S
C854 N861 1.356 . S
C855 C854 1.363 . S
C855 C858 1.363 . S
N856 C858 1.356 . S
N856 H868 0.984 . S
N856 H869 0.985 . S
N857 C859 1.356 . S
N857 H862 0.984 . S
N857 H863 0.985 . S
C858 C852 1.379 . S
C858 C855 1.363 . S
C858 N856 1.356 . S
C859 C853 1.363 . S
C859 C854 1.379 . S
C859 N857 1.356 . S
N860 C852 1.356 . S
N860 H866 0.984 . S
N860 H867 0.984 . S
N861 C854 1.356 . S
N861 H864 0.984 . S
N861 H865 0.985 . S
H862 N857 0.984 . S
H863 N857 0.985 . S
H864 N861 0.984 . S
H865 N861 0.985 . S
H866 N860 0.984 . S
H867 N860 0.984 . S
H868 N856 0.984 . S
H869 N856 0.985 . S
C870 C871 1.363 . S
C870 C876 1.379 . S
C870 N878 1.356 . S
C871 C870 1.363 . S
C871 C877 1.363 . S
C872 C873 1.363 . S
C872 C877 1.379 . S
C872 N879 1.356 . S
C873 C872 1.363 . S
C873 C876 1.363 . S
N874 C876 1.356 . S
N874 H886 0.984 . S
N874 H887 0.985 . S
N875 C877 1.356 . S
N875 H880 0.984 . S
N875 H881 0.985 . S
C876 C870 1.379 . S
C876 C873 1.363 . S
C876 N874 1.356 . S
C877 C871 1.363 . S
C877 C872 1.379 . S
C877 N875 1.356 . S
N878 C870 1.356 . S
N878 H884 0.984 . S
N878 H885 0.984 . S
N879 C872 1.356 . S
N879 H882 0.984 . S
N879 H883 0.985 . S
H880 N875 0.984 . S
H881 N875 0.985 . S
H882 N879 0.984 . S
H883 N879 0.985 . S
H884 N878 0.984 . S
H885 N878 0.984 . S
H886 N874 0.984 . S
H887 N874 0.985 . S
C888 C889 1.363 . S
C888 C894 1.379 . S
C888 N896 1.356 . S
C889 C888 1.363 . S
C889 C895 1.363 . S
C890 C891 1.363 . S
C890 C895 1.379 . S
C890 N897 1.356 . S
C891 C890 1.363 . S
C891 C894 1.363 . S
N892 C894 1.356 . S
N892 H904 0.984 . S
N892 H905 0.985 . S
N893 C895 1.356 . S
N893 H898 0.984 . S
N893 H899 0.985 . S
C894 C888 1.379 . S
C894 C891 1.363 . S
C894 N892 1.356 . S
C895 C889 1.363 . S
C895 C890 1.379 . S
C895 N893 1.356 . S
N896 C888 1.356 . S
N896 H902 0.984 . S
N896 H903 0.984 . S
N897 C890 1.356 . S
N897 H900 0.984 . S
N897 H901 0.985 . S
H898 N893 0.984 . S
H899 N893 0.985 . S
H900 N897 0.984 . S
H901 N897 0.985 . S
H902 N896 0.984 . S
H903 N896 0.984 . S
H904 N892 0.984 . S
H905 N892 0.985 . S
C906 C907 1.363 . S
C906 C912 1.379 . S
C906 N914 1.356 . S
C907 C906 1.363 . S
C907 C913 1.363 . S
C908 C909 1.363 . S
C908 C913 1.379 . S
C908 N915 1.356 . S
C909 C908 1.363 . S
C909 C912 1.363 . S
N910 C912 1.356 . S
N910 H922 0.984 . S
N910 H923 0.985 . S
N911 C913 1.356 . S
N911 H916 0.984 . S
N911 H917 0.985 . S
C912 C906 1.379 . S
C912 C909 1.363 . S
C912 N910 1.356 . S
C913 C907 1.363 . S
C913 C908 1.379 . S
C913 N911 1.356 . S
N914 C906 1.356 . S
N914 H920 0.984 . S
N914 H921 0.984 . S
N915 C908 1.356 . S
N915 H918 0.984 . S
N915 H919 0.985 . S
H916 N911 0.984 . S
H917 N911 0.985 . S
H918 N915 0.984 . S
H919 N915 0.985 . S
H920 N914 0.984 . S
H921 N914 0.984 . S
H922 N910 0.984 . S
H923 N910 0.985 . S
C924 C925 1.363 . S
C924 C930 1.379 . S
C924 N932 1.356 . S
C925 C924 1.363 . S
C925 C931 1.363 . S
C926 C927 1.363 . S
C926 C931 1.379 . S
C926 N933 1.356 . S
C927 C926 1.363 . S
C927 C930 1.363 . S
N928 C930 1.356 . S
N928 H940 0.984 . S
N928 H941 0.985 . S
N929 C931 1.356 . S
N929 H934 0.984 . S
N929 H935 0.985 . S
C930 C924 1.379 . S
C930 C927 1.363 . S
C930 N928 1.356 . S
C931 C925 1.363 . S
C931 C926 1.379 . S
C931 N929 1.356 . S
N932 C924 1.356 . S
N932 H938 0.984 . S
N932 H939 0.984 . S
N933 C926 1.356 . S
N933 H936 0.984 . S
N933 H937 0.985 . S
H934 N929 0.984 . S
H935 N929 0.985 . S
H936 N933 0.984 . S
H937 N933 0.985 . S
H938 N932 0.984 . S
H939 N932 0.984 . S
H940 N928 0.984 . S
H941 N928 0.985 . S
C942 C943 1.363 . S
C942 C948 1.379 . S
C942 N950 1.356 . S
C943 C942 1.363 . S
C943 C949 1.363 . S
C944 C945 1.363 . S
C944 C949 1.379 . S
C944 N951 1.356 . S
C945 C944 1.363 . S
C945 C948 1.363 . S
N946 C948 1.356 . S
N946 H958 0.984 . S
N946 H959 0.985 . S
N947 C949 1.356 . S
N947 H952 0.984 . S
N947 H953 0.985 . S
C948 C942 1.379 . S
C948 C945 1.363 . S
C948 N946 1.356 . S
C949 C943 1.363 . S
C949 C944 1.379 . S
C949 N947 1.356 . S
N950 C942 1.356 . S
N950 H956 0.984 . S
N950 H957 0.984 . S
N951 C944 1.356 . S
N951 H954 0.984 . S
N951 H955 0.985 . S
H952 N947 0.984 . S
H953 N947 0.985 . S
H954 N951 0.984 . S
H955 N951 0.985 . S
H956 N950 0.984 . S
H957 N950 0.984 . S
H958 N946 0.984 . S
H959 N946 0.985 . S
C960 C961 1.363 . S
C960 C966 1.379 . S
C960 N968 1.356 . S
C961 C960 1.363 . S
C961 C967 1.363 . S
C962 C963 1.363 . S
C962 C967 1.379 . S
C962 N969 1.356 . S
C963 C962 1.363 . S
C963 C966 1.363 . S
N964 C966 1.356 . S
N964 H976 0.984 . S
N964 H977 0.985 . S
N965 C967 1.356 . S
N965 H970 0.984 . S
N965 H971 0.985 . S
C966 C960 1.379 . S
C966 C963 1.363 . S
C966 N964 1.356 . S
C967 C961 1.363 . S
C967 C962 1.379 . S
C967 N965 1.356 . S
N968 C960 1.356 . S
N968 H974 0.984 . S
N968 H975 0.984 . S
N969 C962 1.356 . S
N969 H972 0.984 . S
N969 H973 0.985 . S
H970 N965 0.984 . S
H971 N965 0.985 . S
H972 N969 0.984 . S
H973 N969 0.985 . S
H974 N968 0.984 . S
H975 N968 0.984 . S
H976 N964 0.984 . S
H977 N964 0.985 . S
C978 C979 1.363 . S
C978 C984 1.379 . S
C978 N986 1.356 . S
C979 C978 1.363 . S
C979 C985 1.363 . S
C980 C981 1.363 . S
C980 C985 1.379 . S
C980 N987 1.356 . S
C981 C980 1.363 . S
C981 C984 1.363 . S
N982 C984 1.356 . S
N982 H994 0.984 . S
N982 H995 0.985 . S
N983 C985 1.356 . S
N983 H988 0.984 . S
N983 H989 0.985 . S
C984 C978 1.379 . S
C984 C981 1.363 . S
C984 N982 1.356 . S
C985 C979 1.363 . S
C985 C980 1.379 . S
C985 N983 1.356 . S
N986 C978 1.356 . S
N986 H992 0.984 . S
N986 H993 0.984 . S
N987 C980 1.356 . S
N987 H990 0.984 . S
N987 H991 0.985 . S
H988 N983 0.984 . S
H989 N983 0.985 . S
H990 N987 0.984 . S
H991 N987 0.985 . S
H992 N986 0.984 . S
H993 N986 0.984 . S
H994 N982 0.984 . S
H995 N982 0.985 . S
C996 C997 1.363 . S
C996 C1002 1.379 . S
C996 N1004 1.356 . S
C997 C996 1.363 . S
C997 C1003 1.363 . S
C998 C999 1.363 . S
C998 C1003 1.379 . S
C998 N1005 1.356 . S
C999 C998 1.363 . S
C999 C1002 1.363 . S
N1000 C1002 1.356 . S
N1000 H1012 0.984 . S
N1000 H1013 0.985 . S
N1001 C1003 1.356 . S
N1001 H1006 0.984 . S
N1001 H1007 0.985 . S
C1002 C996 1.379 . S
C1002 C999 1.363 . S
C1002 N1000 1.356 . S
C1003 C997 1.363 . S
C1003 C998 1.379 . S
C1003 N1001 1.356 . S
N1004 C996 1.356 . S
N1004 H1010 0.984 . S
N1004 H1011 0.984 . S
N1005 C998 1.356 . S
N1005 H1008 0.984 . S
N1005 H1009 0.985 . S
H1006 N1001 0.984 . S
H1007 N1001 0.985 . S
H1008 N1005 0.984 . S
H1009 N1005 0.985 . S
H1010 N1004 0.984 . S
H1011 N1004 0.984 . S
H1012 N1000 0.984 . S
H1013 N1000 0.985 . S
C1014 C1015 1.363 . S
C1014 C1020 1.379 . S
C1014 N1022 1.356 . S
C1015 C1014 1.363 . S
C1015 C1021 1.363 . S
C1016 C1017 1.363 . S
C1016 C1021 1.379 . S
C1016 N1023 1.356 . S
C1017 C1016 1.363 . S
C1017 C1020 1.363 . S
N1018 C1020 1.356 . S
N1018 H1030 0.984 . S
N1018 H1031 0.985 . S
N1019 C1021 1.356 . S
N1019 H1024 0.984 . S
N1019 H1025 0.985 . S
C1020 C1014 1.379 . S
C1020 C1017 1.363 . S
C1020 N1018 1.356 . S
C1021 C1015 1.363 . S
C1021 C1016 1.379 . S
C1021 N1019 1.356 . S
N1022 C1014 1.356 . S
N1022 H1028 0.984 . S
N1022 H1029 0.984 . S
N1023 C1016 1.356 . S
N1023 H1026 0.984 . S
N1023 H1027 0.985 . S
H1024 N1019 0.984 . S
H1025 N1019 0.985 . S
H1026 N1023 0.984 . S
H1027 N1023 0.985 . S
H1028 N1022 0.984 . S
H1029 N1022 0.984 . S
H1030 N1018 0.984 . S
H1031 N1018 0.985 . S
C1032 C1033 1.363 . S
C1032 C1038 1.379 . S
C1032 N1040 1.356 . S
C1033 C1032 1.363 . S
C1033 C1039 1.363 . S
C1034 C1035 1.363 . S
C1034 C1039 1.379 . S
C1034 N1041 1.356 . S
C1035 C1034 1.363 . S
C1035 C1038 1.363 . S
N1036 C1038 1.356 . S
N1036 H1048 0.984 . S
N1036 H1049 0.985 . S
N1037 C1039 1.356 . S
N1037 H1042 0.984 . S
N1037 H1043 0.985 . S
C1038 C1032 1.379 . S
C1038 C1035 1.363 . S
C1038 N1036 1.356 . S
C1039 C1033 1.363 . S
C1039 C1034 1.379 . S
C1039 N1037 1.356 . S
N1040 C1032 1.356 . S
N1040 H1046 0.984 . S
N1040 H1047 0.984 . S
N1041 C1034 1.356 . S
N1041 H1044 0.984 . S
N1041 H1045 0.985 . S
H1042 N1037 0.984 . S
H1043 N1037 0.985 . S
H1044 N1041 0.984 . S
H1045 N1041 0.985 . S
H1046 N1040 0.984 . S
H1047 N1040 0.984 . S
H1048 N1036 0.984 . S
H1049 N1036 0.985 . S
C1050 C1051 1.363 . S
C1050 C1056 1.379 . S
C1050 N1058 1.356 . S
C1051 C1050 1.363 . S
C1051 C1057 1.363 . S
C1052 C1053 1.363 . S
C1052 C1057 1.379 . S
C1052 N1059 1.356 . S
C1053 C1052 1.363 . S
C1053 C1056 1.363 . S
N1054 C1056 1.356 . S
N1054 H1066 0.984 . S
N1054 H1067 0.985 . S
N1055 C1057 1.356 . S
N1055 H1060 0.984 . S
N1055 H1061 0.985 . S
C1056 C1050 1.379 . S
C1056 C1053 1.363 . S
C1056 N1054 1.356 . S
C1057 C1051 1.363 . S
C1057 C1052 1.379 . S
C1057 N1055 1.356 . S
N1058 C1050 1.356 . S
N1058 H1064 0.984 . S
N1058 H1065 0.984 . S
N1059 C1052 1.356 . S
N1059 H1062 0.984 . S
N1059 H1063 0.985 . S
H1060 N1055 0.984 . S
H1061 N1055 0.985 . S
H1062 N1059 0.984 . S
H1063 N1059 0.985 . S
H1064 N1058 0.984 . S
H1065 N1058 0.984 . S
H1066 N1054 0.984 . S
H1067 N1054 0.985 . S
C1068 C1069 1.363 . S
C1068 C1074 1.379 . S
C1068 N1076 1.356 . S
C1069 C1068 1.363 . S
C1069 C1075 1.363 . S
C1070 C1071 1.363 . S
C1070 C1075 1.379 . S
C1070 N1077 1.356 . S
C1071 C1070 1.363 . S
C1071 C1074 1.363 . S
N1072 C1074 1.356 . S
N1072 H1084 0.984 . S
N1072 H1085 0.985 . S
N1073 C1075 1.356 . S
N1073 H1078 0.984 . S
N1073 H1079 0.985 . S
C1074 C1068 1.379 . S
C1074 C1071 1.363 . S
C1074 N1072 1.356 . S
C1075 C1069 1.363 . S
C1075 C1070 1.379 . S
C1075 N1073 1.356 . S
N1076 C1068 1.356 . S
N1076 H1082 0.984 . S
N1076 H1083 0.984 . S
N1077 C1070 1.356 . S
N1077 H1080 0.984 . S
N1077 H1081 0.985 . S
H1078 N1073 0.984 . S
H1079 N1073 0.985 . S
H1080 N1077 0.984 . S
H1081 N1077 0.985 . S
H1082 N1076 0.984 . S
H1083 N1076 0.984 . S
H1084 N1072 0.984 . S
H1085 N1072 0.985 . S
C1086 C1087 1.363 . S
C1086 C1092 1.379 . S
C1086 N1094 1.356 . S
C1087 C1086 1.363 . S
C1087 C1093 1.363 . S
C1088 C1089 1.363 . S
C1088 C1093 1.379 . S
C1088 N1095 1.356 . S
C1089 C1088 1.363 . S
C1089 C1092 1.363 . S
N1090 C1092 1.356 . S
N1090 H1102 0.984 . S
N1090 H1103 0.985 . S
N1091 C1093 1.356 . S
N1091 H1096 0.984 . S
N1091 H1097 0.985 . S
C1092 C1086 1.379 . S
C1092 C1089 1.363 . S
C1092 N1090 1.356 . S
C1093 C1087 1.363 . S
C1093 C1088 1.379 . S
C1093 N1091 1.356 . S
N1094 C1086 1.356 . S
N1094 H1100 0.984 . S
N1094 H1101 0.984 . S
N1095 C1088 1.356 . S
N1095 H1098 0.984 . S
N1095 H1099 0.985 . S
H1096 N1091 0.984 . S
H1097 N1091 0.985 . S
H1098 N1095 0.984 . S
H1099 N1095 0.985 . S
H1100 N1094 0.984 . S
H1101 N1094 0.984 . S
H1102 N1090 0.984 . S
H1103 N1090 0.985 . S
C1104 C1105 1.363 . S
C1104 C1110 1.379 . S
C1104 N1112 1.356 . S
C1105 C1104 1.363 . S
C1105 C1111 1.363 . S
C1106 C1107 1.363 . S
C1106 C1111 1.379 . S
C1106 N1113 1.356 . S
C1107 C1106 1.363 . S
C1107 C1110 1.363 . S
N1108 C1110 1.356 . S
N1108 H1120 0.984 . S
N1108 H1121 0.985 . S
N1109 C1111 1.356 . S
N1109 H1114 0.984 . S
N1109 H1115 0.985 . S
C1110 C1104 1.379 . S
C1110 C1107 1.363 . S
C1110 N1108 1.356 . S
C1111 C1105 1.363 . S
C1111 C1106 1.379 . S
C1111 N1109 1.356 . S
N1112 C1104 1.356 . S
N1112 H1118 0.984 . S
N1112 H1119 0.984 . S
N1113 C1106 1.356 . S
N1113 H1116 0.984 . S
N1113 H1117 0.985 . S
H1114 N1109 0.984 . S
H1115 N1109 0.985 . S
H1116 N1113 0.984 . S
H1117 N1113 0.985 . S
H1118 N1112 0.984 . S
H1119 N1112 0.984 . S
H1120 N1108 0.984 . S
H1121 N1108 0.985 . S
C1122 C1123 1.363 . S
C1122 C1128 1.379 . S
C1122 N1130 1.356 . S
C1123 C1122 1.363 . S
C1123 C1129 1.363 . S
C1124 C1125 1.363 . S
C1124 C1129 1.379 . S
C1124 N1131 1.356 . S
C1125 C1124 1.363 . S
C1125 C1128 1.363 . S
N1126 C1128 1.356 . S
N1126 H1138 0.984 . S
N1126 H1139 0.985 . S
N1127 C1129 1.356 . S
N1127 H1132 0.984 . S
N1127 H1133 0.985 . S
C1128 C1122 1.379 . S
C1128 C1125 1.363 . S
C1128 N1126 1.356 . S
C1129 C1123 1.363 . S
C1129 C1124 1.379 . S
C1129 N1127 1.356 . S
N1130 C1122 1.356 . S
N1130 H1136 0.984 . S
N1130 H1137 0.984 . S
N1131 C1124 1.356 . S
N1131 H1134 0.984 . S
N1131 H1135 0.985 . S
H1132 N1127 0.984 . S
H1133 N1127 0.985 . S
H1134 N1131 0.984 . S
H1135 N1131 0.985 . S
H1136 N1130 0.984 . S
H1137 N1130 0.984 . S
H1138 N1126 0.984 . S
H1139 N1126 0.985 . S
C1140 C1141 1.363 . S
C1140 C1146 1.379 . S
C1140 N1148 1.356 . S
C1141 C1140 1.363 . S
C1141 C1147 1.363 . S
C1142 C1143 1.363 . S
C1142 C1147 1.379 . S
C1142 N1149 1.356 . S
C1143 C1142 1.363 . S
C1143 C1146 1.363 . S
N1144 C1146 1.356 . S
N1144 H1156 0.984 . S
N1144 H1157 0.985 . S
N1145 C1147 1.356 . S
N1145 H1150 0.984 . S
N1145 H1151 0.985 . S
C1146 C1140 1.379 . S
C1146 C1143 1.363 . S
C1146 N1144 1.356 . S
C1147 C1141 1.363 . S
C1147 C1142 1.379 . S
C1147 N1145 1.356 . S
N1148 C1140 1.356 . S
N1148 H1154 0.984 . S
N1148 H1155 0.984 . S
N1149 C1142 1.356 . S
N1149 H1152 0.984 . S
N1149 H1153 0.985 . S
H1150 N1145 0.984 . S
H1151 N1145 0.985 . S
H1152 N1149 0.984 . S
H1153 N1149 0.985 . S
H1154 N1148 0.984 . S
H1155 N1148 0.984 . S
H1156 N1144 0.984 . S
H1157 N1144 0.985 . S
C1158 C1159 1.363 . S
C1158 C1164 1.379 . S
C1158 N1166 1.356 . S
C1159 C1158 1.363 . S
C1159 C1165 1.363 . S
C1160 C1161 1.363 . S
C1160 C1165 1.379 . S
C1160 N1167 1.356 . S
C1161 C1160 1.363 . S
C1161 C1164 1.363 . S
N1162 C1164 1.356 . S
N1162 H1174 0.984 . S
N1162 H1175 0.985 . S
N1163 C1165 1.356 . S
N1163 H1168 0.984 . S
N1163 H1169 0.985 . S
C1164 C1158 1.379 . S
C1164 C1161 1.363 . S
C1164 N1162 1.356 . S
C1165 C1159 1.363 . S
C1165 C1160 1.379 . S
C1165 N1163 1.356 . S
N1166 C1158 1.356 . S
N1166 H1172 0.984 . S
N1166 H1173 0.984 . S
N1167 C1160 1.356 . S
N1167 H1170 0.984 . S
N1167 H1171 0.985 . S
H1168 N1163 0.984 . S
H1169 N1163 0.985 . S
H1170 N1167 0.984 . S
H1171 N1167 0.985 . S
H1172 N1166 0.984 . S
H1173 N1166 0.984 . S
H1174 N1162 0.984 . S
H1175 N1162 0.985 . S
C313 C289 1.925 . S
C315 C3 1.925 . S
C331 C18 1.937 . S
C333 C213 1.937 . S
C349 C304 1.937 . S
C351 C29 1.925 . S
C367 C278 1.937 . S
C369 C44 1.937 . S
C385 C239 1.937 . S
C387 C55 1.925 . S
C403 C252 1.937 . S
C405 C70 1.937 . S
C421 C265 1.937 . S
C423 C81 1.925 . S
C439 C96 1.937 . S
C441 C226 1.937 . S
C457 C172 1.925 . S
C459 C107 1.925 . S
C475 C187 1.937 . S
C477 C120 1.925 . S
C493 C135 1.937 . S
C495 C198 1.925 . S
C511 C146 1.925 . S
C513 C161 1.937 . S
C529 C94 1.925 . S
C531 C185 1.925 . S
C547 C200 1.937 . S
C549 C57 1.937 . S
C565 C68 1.925 . S
C567 C159 1.925 . S
C583 C174 1.937 . S
C585 C83 1.937 . S
C601 C133 1.925 . S
C603 C16 1.925 . S
C619 C31 1.937 . S
C621 C148 1.937 . S
C637 C42 1.925 . S
C639 C109 1.937 . S
C655 C5 1.937 . S
C657 C122 1.937 . S
C673 C263 1.925 . S
C675 C276 1.925 . S
C691 C291 1.937 . S
C693 C224 1.925 . S
C709 C237 1.925 . S
C711 C211 1.925 . S
C727 C302 1.925 . S
C729 C250 1.925 . S
C745 C1 1.190 . S
C747 C114 1.257 . S
C763 C127 1.257 . S
C765 C23 1.257 . S
C781 C27 1.190 . S
C783 C131 1.190 . S
C799 C49 1.257 . S
C801 C153 1.257 . S
C817 C53 1.190 . S
C819 C157 1.190 . S
C835 C75 1.257 . S
C837 C179 1.257 . S
C853 C183 1.190 . S
C855 C79 1.190 . S
C871 C205 1.257 . S
C873 C101 1.257 . S
C889 C105 1.190 . S
C891 C209 1.190 . S
C907 C118 1.190 . S
C909 C300 1.190 . S
C925 C274 1.190 . S
C927 C140 1.257 . S
C943 C296 1.257 . S
C945 C144 1.190 . S
C961 C222 1.190 . S
C963 C166 1.257 . S
C979 C235 1.190 . S
C981 C170 1.190 . S
C997 C192 1.257 . S
C999 C248 1.190 . S
C1015 C196 1.190 . S
C1017 C261 1.190 . S
C1033 C10 1.257 . S
C1035 C218 1.257 . S
C1051 C231 1.257 . S
C1053 C62 1.257 . S
C1069 C244 1.257 . S
C1071 C66 1.190 . S
C1087 C257 1.257 . S
C1089 C88 1.257 . S
C1105 C270 1.257 . S
C1107 C92 1.190 . S
C1123 C283 1.257 . S
C1125 C36 1.257 . S
C1141 C40 1.190 . S
C1143 C287 1.190 . S
C1159 C309 1.257 . S
C1161 C14 1.190 . S
