# Generated by pormake.
# Topology zfi, (5)-cn, num edge types: 1
# Building blocks:
#     Node 0, Type 0, BuildingBlock: XOMCOT_clean_sbu_1, # of connection points: 5
#     Node 1, Type 0, BuildingBlock: XOMCOT_clean_sbu_1, # of connection points: 5
#     Node 2, Type 0, BuildingBlock: XOMCOT_clean_sbu_1, # of connection points: 5
#     Node 3, Type 0, BuildingBlock: XOMCOT_clean_sbu_1, # of connection points: 5
#     Node 4, Type 0, BuildingBlock: XOMCOT_clean_sbu_1, # of connection points: 5
#     Node 5, Type 0, BuildingBlock: XOMCOT_clean_sbu_1, # of connection points: 5
#     Node 6, Type 0, BuildingBlock: XOMCOT_clean_sbu_1, # of connection points: 5
#     Node 7, Type 0, BuildingBlock: XOMCOT_clean_sbu_1, # of connection points: 5
#     Node 8, Type 0, BuildingBlock: XOMCOT_clean_sbu_1, # of connection points: 5
#     Node 9, Type 0, BuildingBlock: XOMCOT_clean_sbu_1, # of connection points: 5
#     Node 10, Type 0, BuildingBlock: XOMCOT_clean_sbu_1, # of connection points: 5
#     Node 11, Type 0, BuildingBlock: XOMCOT_clean_sbu_1, # of connection points: 5
#     Node 12, Type 0, BuildingBlock: XOMCOT_clean_sbu_1, # of connection points: 5
#     Node 13, Type 0, BuildingBlock: XOMCOT_clean_sbu_1, # of connection points: 5
#     Node 14, Type 0, BuildingBlock: XOMCOT_clean_sbu_1, # of connection points: 5
#     Node 15, Type 0, BuildingBlock: XOMCOT_clean_sbu_1, # of connection points: 5
#     Edge 16, Type (0, 0), BuildingBlock: UVAHIK_clean_linker_0, # of connection points: 2
#     Edge 17, Type (0, 0), BuildingBlock: UVAHIK_clean_linker_0, # of connection points: 2
#     Edge 18, Type (0, 0), BuildingBlock: UVAHIK_clean_linker_0, # of connection points: 2
#     Edge 19, Type (0, 0), BuildingBlock: UVAHIK_clean_linker_0, # of connection points: 2
#     Edge 20, Type (0, 0), BuildingBlock: UVAHIK_clean_linker_0, # of connection points: 2
#     Edge 21, Type (0, 0), BuildingBlock: UVAHIK_clean_linker_0, # of connection points: 2
#     Edge 22, Type (0, 0), BuildingBlock: UVAHIK_clean_linker_0, # of connection points: 2
#     Edge 23, Type (0, 0), BuildingBlock: UVAHIK_clean_linker_0, # of connection points: 2
#     Edge 24, Type (0, 0), BuildingBlock: UVAHIK_clean_linker_0, # of connection points: 2
#     Edge 25, Type (0, 0), BuildingBlock: UVAHIK_clean_linker_0, # of connection points: 2
#     Edge 26, Type (0, 0), BuildingBlock: UVAHIK_clean_linker_0, # of connection points: 2
#     Edge 27, Type (0, 0), BuildingBlock: UVAHIK_clean_linker_0, # of connection points: 2
#     Edge 28, Type (0, 0), BuildingBlock: UVAHIK_clean_linker_0, # of connection points: 2
#     Edge 29, Type (0, 0), BuildingBlock: UVAHIK_clean_linker_0, # of connection points: 2
#     Edge 30, Type (0, 0), BuildingBlock: UVAHIK_clean_linker_0, # of connection points: 2
#     Edge 31, Type (0, 0), BuildingBlock: UVAHIK_clean_linker_0, # of connection points: 2
#     Edge 32, Type (0, 0), BuildingBlock: UVAHIK_clean_linker_0, # of connection points: 2
#     Edge 33, Type (0, 0), BuildingBlock: UVAHIK_clean_linker_0, # of connection points: 2
#     Edge 34, Type (0, 0), BuildingBlock: UVAHIK_clean_linker_0, # of connection points: 2
#     Edge 35, Type (0, 0), BuildingBlock: UVAHIK_clean_linker_0, # of connection points: 2
#     Edge 36, Type (0, 0), BuildingBlock: UVAHIK_clean_linker_0, # of connection points: 2
#     Edge 37, Type (0, 0), BuildingBlock: UVAHIK_clean_linker_0, # of connection points: 2
#     Edge 38, Type (0, 0), BuildingBlock: UVAHIK_clean_linker_0, # of connection points: 2
#     Edge 39, Type (0, 0), BuildingBlock: UVAHIK_clean_linker_0, # of connection points: 2
#     Edge 40, Type (0, 0), BuildingBlock: UVAHIK_clean_linker_0, # of connection points: 2
#     Edge 41, Type (0, 0), BuildingBlock: UVAHIK_clean_linker_0, # of connection points: 2
#     Edge 42, Type (0, 0), BuildingBlock: UVAHIK_clean_linker_0, # of connection points: 2
#     Edge 43, Type (0, 0), BuildingBlock: UVAHIK_clean_linker_0, # of connection points: 2
#     Edge 44, Type (0, 0), BuildingBlock: UVAHIK_clean_linker_0, # of connection points: 2
#     Edge 45, Type (0, 0), BuildingBlock: UVAHIK_clean_linker_0, # of connection points: 2
#     Edge 46, Type (0, 0), BuildingBlock: UVAHIK_clean_linker_0, # of connection points: 2
#     Edge 47, Type (0, 0), BuildingBlock: UVAHIK_clean_linker_0, # of connection points: 2
#     Edge 48, Type (0, 0), BuildingBlock: UVAHIK_clean_linker_0, # of connection points: 2
#     Edge 49, Type (0, 0), BuildingBlock: UVAHIK_clean_linker_0, # of connection points: 2
#     Edge 50, Type (0, 0), BuildingBlock: UVAHIK_clean_linker_0, # of connection points: 2
#     Edge 51, Type (0, 0), BuildingBlock: UVAHIK_clean_linker_0, # of connection points: 2
#     Edge 52, Type (0, 0), BuildingBlock: UVAHIK_clean_linker_0, # of connection points: 2
#     Edge 53, Type (0, 0), BuildingBlock: UVAHIK_clean_linker_0, # of connection points: 2
#     Edge 54, Type (0, 0), BuildingBlock: UVAHIK_clean_linker_0, # of connection points: 2
#     Edge 55, Type (0, 0), BuildingBlock: UVAHIK_clean_linker_0, # of connection points: 2
# Relax obj value: 0.102
# Max RMSD: 0.122
# Mean RMSD: 0.122
data_MOF--net-zfi--node1-XOMCOT_clean_sbu_1--edge1-UVAHIK_clean_linker_0
_symmetry_space_group_name_H-M    P1
_symmetry_Int_Tables_number       1
_symmetry_cell_setting            triclinic
loop_
_symmetry_equiv_pos_as_xyz
'x, y, z'
_cell_length_a     48.630378
_cell_length_b     48.698766
_cell_length_c     63.252879
_cell_angle_alpha  89.938735
_cell_angle_beta   90.283721
_cell_angle_gamma 90.059286
loop_
_atom_site_label
_atom_site_type_symbol
_atom_site_fract_x
_atom_site_fract_y
_atom_site_fract_z
_atom_type_partial_charge
C0 C 0.6462 0.09968 0.08867 0.0
C1 C 0.65731 0.12557 0.08746 0.0
N2 N 0.66812 0.13195 0.10644 0.0
N3 N 0.65006 0.08956 0.10833 0.0
C4 C 0.66323 0.10995 0.11891 0.0
H5 H 0.63774 0.08834 0.0755 0.0
Co6 Co 0.64551 0.05263 0.11614 0.0
C7 C 0.60928 0.06644 0.15311 0.0
O8 O 0.58621 0.06127 0.14299 0.0
N9 N 0.64114 0.01556 0.12363 0.0
C10 C 0.64849 0.97077 0.12766 0.0
C11 C 0.66013 0.99546 0.12205 0.0
C12 C 0.61799 1.00246 0.12978 0.0
N13 N 0.62193 0.97523 0.1324 0.0
O14 O 0.60921 0.05208 0.10351 0.0
H15 H 0.68096 0.99833 0.11656 0.0
H16 H 0.59836 0.01247 0.13172 0.0
O17 O 0.63224 0.06404 0.14367 0.0
C18 C 0.61073 0.04111 0.08522 0.0
O19 O 0.63509 0.03364 0.07837 0.0
N20 N 0.68159 0.05201 0.12657 0.0
C21 C 0.73654 0.04212 0.13652 0.0
C22 C 0.71627 0.04068 0.15221 0.0
C23 C 0.68879 0.04575 0.14692 0.0
C24 C 0.70113 0.05455 0.11134 0.0
C25 C 0.72878 0.04996 0.11601 0.0
H26 H 0.67325 0.04286 0.15886 0.0
H27 H 0.69501 0.05885 0.09521 0.0
H28 H 0.67136 0.1077 0.13479 0.0
H29 H 0.65882 0.13812 0.07337 0.0
H30 H 0.65844 0.9509 0.12732 0.0
H31 H 0.72146 0.03463 0.16822 0.0
H32 H 0.74366 0.05081 0.10334 0.0
C33 C 0.39633 0.62459 0.13047 0.0
C34 C 0.36987 0.63444 0.1288 0.0
N35 N 0.37075 0.65958 0.11986 0.0
N36 N 0.41393 0.6434 0.12268 0.0
C37 C 0.3977 0.66429 0.11608 0.0
H38 H 0.4024 0.60523 0.13746 0.0
Co39 Co 0.45237 0.64128 0.123 0.0
C40 C 0.46699 0.62725 0.16781 0.0
O41 O 0.48934 0.64231 0.16627 0.0
N42 N 0.49113 0.63849 0.12305 0.0
C43 C 0.53646 0.64502 0.12179 0.0
C44 C 0.51114 0.65723 0.11942 0.0
C45 C 0.50501 0.61494 0.12703 0.0
N46 N 0.53249 0.61843 0.12657 0.0
O47 O 0.45095 0.60544 0.11008 0.0
H48 H 0.50808 0.67849 0.11538 0.0
H49 H 0.49512 0.59571 0.13102 0.0
O50 O 0.45077 0.62515 0.15184 0.0
C51 C 0.45059 0.60753 0.08996 0.0
O52 O 0.44688 0.63203 0.08168 0.0
N53 N 0.45399 0.6776 0.13327 0.0
C54 C 0.46204 0.73323 0.14155 0.0
C55 C 0.45479 0.71513 0.15787 0.0
C56 C 0.44995 0.68739 0.15327 0.0
C57 C 0.4586 0.69544 0.11705 0.0
C58 C 0.46286 0.72328 0.12082 0.0
H59 H 0.44318 0.67409 0.16582 0.0
H60 H 0.46019 0.68764 0.1011 0.0
H61 H 0.40551 0.6828 0.10885 0.0
H62 H 0.35157 0.62428 0.13455 0.0
H63 H 0.55627 0.6549 0.12 0.0
H64 H 0.45303 0.72234 0.174 0.0
H65 H 0.46811 0.73662 0.10773 0.0
C66 C 0.88225 0.39243 0.12764 0.0
C67 C 0.87318 0.36562 0.12745 0.0
N68 N 0.84587 0.36575 0.12395 0.0
N69 N 0.86082 0.40945 0.12404 0.0
C70 C 0.83892 0.39244 0.12183 0.0
H71 H 0.90316 0.39912 0.13048 0.0
Co72 Co 0.86256 0.44805 0.12318 0.0
C73 C 0.87856 0.46458 0.16695 0.0
O74 O 0.86326 0.48671 0.16523 0.0
N75 N 0.86505 0.48689 0.12205 0.0
C76 C 0.85764 0.532 0.11997 0.0
C77 C 0.84573 0.50643 0.11865 0.0
C78 C 0.88864 0.50134 0.12483 0.0
N79 N 0.88463 0.52871 0.12387 0.0
O80 O 0.89786 0.44645 0.10972 0.0
H81 H 0.82423 0.50288 0.11555 0.0
H82 H 0.9083 0.49197 0.12838 0.0
O83 O 0.87988 0.44769 0.15147 0.0
C84 C 0.89534 0.44529 0.08967 0.0
O85 O 0.87061 0.44164 0.08168 0.0
N86 N 0.8267 0.4498 0.13411 0.0
C87 C 0.77115 0.45682 0.14296 0.0
C88 C 0.78991 0.45098 0.15926 0.0
C89 C 0.81765 0.44664 0.1544 0.0
C90 C 0.80828 0.45321 0.11802 0.0
C91 C 0.78044 0.45692 0.12207 0.0
H92 H 0.8315 0.44089 0.16697 0.0
H93 H 0.81558 0.45415 0.1019 0.0
H94 H 0.81817 0.39927 0.11868 0.0
H95 H 0.88554 0.34749 0.13023 0.0
H96 H 0.84726 0.55152 0.11813 0.0
H97 H 0.78321 0.44991 0.17554 0.0
H98 H 0.76656 0.46116 0.10902 0.0
C99 C 0.11457 0.87941 0.12639 0.0
C100 C 0.1412 0.86996 0.12542 0.0
N101 N 0.14094 0.8447 0.1167 0.0
N102 N 0.09745 0.86023 0.11839 0.0
C103 C 0.11417 0.8395 0.11237 0.0
H104 H 0.10803 0.89877 0.13305 0.0
Co105 Co 0.05899 0.86207 0.11783 0.0
C106 C 0.04345 0.87543 0.16253 0.0
O107 O 0.02108 0.86039 0.1609 0.0
N108 N 0.02025 0.86458 0.11702 0.0
C109 C 0.97513 0.85767 0.11377 0.0
C110 C 1.00069 0.84594 0.11184 0.0
C111 C 0.00588 0.88766 0.12143 0.0
N112 N 0.97849 0.88392 0.11982 0.0
O113 O 0.06048 0.8984 0.10592 0.0
H114 H 1.00425 0.82511 0.10687 0.0
H115 H 0.01535 0.9067 0.12647 0.0
O116 O 0.05979 0.87734 0.14677 0.0
C117 C 0.06106 0.89806 0.08576 0.0
O118 O 0.06481 0.87435 0.0763 0.0
N119 N 0.05727 0.82538 0.12739 0.0
C120 C 0.04813 0.76965 0.13462 0.0
C121 C 0.05465 0.78729 0.15144 0.0
C122 C 0.06001 0.81508 0.14741 0.0
C123 C 0.05351 0.80797 0.11077 0.0
C124 C 0.04873 0.78008 0.114 0.0
H125 H 0.06603 0.82803 0.16042 0.0
H126 H 0.05285 0.81618 0.09488 0.0
H127 H 0.10686 0.82075 0.10516 0.0
H128 H 0.1592 0.88049 0.13145 0.0
H129 H 0.95558 0.84774 0.11075 0.0
H130 H 0.05533 0.7797 0.16754 0.0
H131 H 0.04407 0.76713 0.10053 0.0
C132 C 0.12826 0.89895 0.40717 0.0
C133 C 0.13803 0.87255 0.40913 0.0
N134 N 0.16323 0.87358 0.41808 0.0
N135 N 0.1472 0.91665 0.41478 0.0
C136 C 0.1681 0.90054 0.42156 0.0
H137 H 0.10886 0.90492 0.40011 0.0
Co138 Co 0.14497 0.95496 0.41417 0.0
C139 C 0.13198 0.96859 0.36913 0.0
O140 O 0.14728 0.99078 0.37048 0.0
N141 N 0.142 0.99372 0.41372 0.0
C142 C 0.14838 0.03907 0.41433 0.0
C143 C 0.16078 0.0139 0.41679 0.0
C144 C 0.11826 0.00741 0.40983 0.0
N145 N 0.12164 0.03487 0.40999 0.0
O146 O 0.10882 0.95345 0.42626 0.0
H147 H 0.18223 0.01109 0.42048 0.0
H148 H 0.09893 0.9974 0.40622 0.0
O149 O 0.12957 0.95282 0.38525 0.0
C150 C 0.10994 0.95221 0.44638 0.0
O151 O 0.13404 0.94825 0.45537 0.0
N152 N 0.18154 0.9565 0.40463 0.0
C153 C 0.23772 0.96308 0.39754 0.0
C154 C 0.22001 0.95517 0.38101 0.0
C155 C 0.19195 0.95126 0.38502 0.0
C156 C 0.19886 0.96177 0.42112 0.0
C157 C 0.22691 0.96548 0.41793 0.0
H158 H 0.17892 0.94406 0.37236 0.0
H159 H 0.1905 0.96426 0.43683 0.0
H160 H 0.18671 0.90842 0.42871 0.0
H161 H 0.12778 0.85415 0.40361 0.0
H162 H 0.15821 0.05893 0.41583 0.0
H163 H 0.22777 0.95208 0.36517 0.0
H164 H 0.23975 0.97135 0.43122 0.0
C165 C 0.58542 0.17534 0.44447 0.0
C166 C 0.60932 0.18817 0.45038 0.0
N167 N 0.6287 0.18267 0.43585 0.0
N168 N 0.58944 0.16141 0.42635 0.0
C169 C 0.61633 0.16578 0.42168 0.0
H170 H 0.56574 0.17803 0.45203 0.0
Co171 Co 0.55962 0.14697 0.41077 0.0
C172 C 0.59133 0.14628 0.36903 0.0
O173 O 0.58432 0.17131 0.36379 0.0
N174 N 0.52978 0.13209 0.39523 0.0
C175 C 0.50104 0.12203 0.36887 0.0
C176 C 0.5241 0.13652 0.37458 0.0
C177 C 0.50959 0.1149 0.40172 0.0
N178 N 0.49186 0.10838 0.38596 0.0
O179 O 0.56511 0.11161 0.42416 0.0
H180 H 0.53562 0.14984 0.36427 0.0
H181 H 0.50755 0.10766 0.41777 0.0
O182 O 0.58354 0.13586 0.38667 0.0
C183 C 0.55284 0.11227 0.44199 0.0
O184 O 0.5394 0.13465 0.44712 0.0
N185 N 0.55161 0.183 0.40048 0.0
C186 C 0.53443 0.23727 0.3938 0.0
C187 C 0.56226 0.23019 0.39229 0.0
C188 C 0.57047 0.20315 0.39619 0.0
C189 C 0.52464 0.19009 0.40299 0.0
C190 C 0.51557 0.21677 0.3993 0.0
H191 H 0.59214 0.19869 0.39573 0.0
H192 H 0.50996 0.17532 0.40886 0.0
H193 H 0.62577 0.1593 0.40706 0.0
H194 H 0.61171 0.20201 0.46364 0.0
H195 H 0.49194 0.12147 0.35323 0.0
H196 H 0.57766 0.24546 0.38848 0.0
H197 H 0.49407 0.22152 0.40177 0.0
C198 C 0.3837 0.61878 0.41223 0.0
C199 C 0.37433 0.64543 0.41318 0.0
N200 N 0.34966 0.64544 0.42284 0.0
N201 N 0.36502 0.60198 0.42117 0.0
C202 C 0.3448 0.61888 0.42779 0.0
H203 H 0.40251 0.61198 0.40484 0.0
Co204 Co 0.36571 0.56364 0.42195 0.0
C205 C 0.37825 0.54692 0.37733 0.0
O206 O 0.36221 0.52534 0.37931 0.0
N207 N 0.36697 0.52501 0.42308 0.0
C208 C 0.35888 0.48024 0.42678 0.0
C209 C 0.34793 0.50612 0.4287 0.0
C210 C 0.38954 0.50998 0.4185 0.0
N211 N 0.38506 0.4828 0.42035 0.0
O212 O 0.402 0.56415 0.43434 0.0
H213 H 0.32734 0.51033 0.43398 0.0
H214 H 0.40871 0.51882 0.41312 0.0
O215 O 0.38122 0.56344 0.39296 0.0
C216 C 0.40088 0.56473 0.45449 0.0
O217 O 0.37689 0.56925 0.4633 0.0
N218 N 0.329 0.56295 0.41203 0.0
C219 C 0.27309 0.55529 0.40415 0.0
C220 C 0.2911 0.5616 0.38757 0.0
C221 C 0.31899 0.56629 0.39196 0.0
C222 C 0.31125 0.55956 0.42843 0.0
C223 C 0.28327 0.55549 0.42488 0.0
H224 H 0.33225 0.57223 0.37916 0.0
H225 H 0.31924 0.55862 0.44442 0.0
H226 H 0.32655 0.61178 0.43578 0.0
H227 H 0.38435 0.66319 0.40638 0.0
H228 H 0.34848 0.46104 0.43001 0.0
H229 H 0.28372 0.5626 0.3714 0.0
H230 H 0.27002 0.55103 0.43817 0.0
C231 C 0.89758 0.38495 0.4131 0.0
C232 C 0.87104 0.37509 0.41404 0.0
N233 N 0.87191 0.34887 0.42082 0.0
N234 N 0.91518 0.36511 0.41935 0.0
C235 C 0.89884 0.34344 0.4241 0.0
H236 H 0.90371 0.40516 0.40778 0.0
Co237 Co 0.95371 0.36757 0.41962 0.0
C238 C 0.9689 0.38095 0.37517 0.0
O239 O 0.99102 0.36564 0.37706 0.0
N240 N 0.99259 0.37071 0.42014 0.0
C241 C 0.03795 0.36442 0.42209 0.0
C242 C 0.01264 0.3521 0.42409 0.0
C243 C 0.00649 0.39433 0.41631 0.0
N244 N 0.03398 0.39099 0.41722 0.0
O245 O 0.95194 0.40366 0.43189 0.0
H246 H 0.00963 0.33082 0.42811 0.0
H247 H 0.99662 0.4135 0.41214 0.0
O248 O 0.95245 0.38327 0.39083 0.0
C249 C 0.95165 0.40309 0.45204 0.0
O250 O 0.94832 0.37924 0.46144 0.0
N251 N 0.95561 0.33119 0.40964 0.0
C252 C 0.96222 0.27544 0.40141 0.0
C253 C 0.95483 0.29359 0.38513 0.0
C254 C 0.95072 0.3214 0.38972 0.0
C255 C 0.96045 0.31336 0.42585 0.0
C256 C 0.96405 0.28544 0.4221 0.0
H257 H 0.94363 0.33473 0.37725 0.0
H258 H 0.9625 0.32118 0.44179 0.0
H259 H 0.90642 0.32393 0.42978 0.0
H260 H 0.85263 0.38609 0.40944 0.0
H261 H 0.05776 0.35465 0.42424 0.0
H262 H 0.95231 0.28633 0.36905 0.0
H263 H 0.96941 0.27203 0.43515 0.0
C264 C 0.37362 0.89047 0.92748 0.0
C265 C 0.36483 0.86369 0.9265 0.0
N266 N 0.34232 0.86266 0.91412 0.0
N267 N 0.35662 0.90664 0.91593 0.0
C268 C 0.33807 0.88873 0.90761 0.0
H269 H 0.39079 0.89747 0.9369 0.0
Co270 Co 0.35677 0.9457 0.91495 0.0
C271 C 0.37723 0.9602 0.8709 0.0
O272 O 0.37171 0.98638 0.87314 0.0
N273 N 0.35691 0.98453 0.91479 0.0
C274 C 0.34495 0.02863 0.91635 0.0
C275 C 0.33546 1.00205 0.91649 0.0
C276 C 0.37926 1.00114 0.91444 0.0
N277 N 0.37252 0.02797 0.91499 0.0
O278 O 0.39309 0.94676 0.92758 0.0
H279 H 0.31413 0.99621 0.91784 0.0
H280 H 0.40009 0.99374 0.9127 0.0
O281 O 0.37213 0.94332 0.88598 0.0
C282 C 0.39082 0.95104 0.94743 0.0
O283 O 0.36599 0.9511 0.95556 0.0
N284 N 0.32033 0.94561 0.90489 0.0
C285 C 0.26458 0.95555 0.89801 0.0
C286 C 0.28331 0.95678 0.88123 0.0
C287 C 0.31117 0.95165 0.88497 0.0
C288 C 0.30212 0.94219 0.921 0.0
C289 C 0.27411 0.94701 0.91791 0.0
H290 H 0.32512 0.95389 0.87198 0.0
H291 H 0.30971 0.93744 0.93668 0.0
H292 H 0.32064 0.89471 0.89799 0.0
H293 H 0.37369 0.84646 0.93494 0.0
H294 H 0.33251 0.047 0.91728 0.0
H295 H 0.27667 0.96283 0.86554 0.0
H296 H 0.26044 0.94597 0.93135 0.0
C297 C 0.58127 0.33904 0.95013 0.0
C298 C 0.60512 0.3258 0.95561 0.0
N299 N 0.62392 0.33048 0.94047 0.0
N300 N 0.58479 0.35232 0.93163 0.0
C301 C 0.61131 0.34721 0.92632 0.0
H302 H 0.56187 0.33708 0.95826 0.0
Co303 Co 0.55482 0.36692 0.91637 0.0
C304 C 0.58304 0.36185 0.87349 0.0
O305 O 0.5718 0.33799 0.86942 0.0
N306 N 0.52477 0.38201 0.90124 0.0
C307 C 0.49459 0.39207 0.87586 0.0
C308 C 0.51773 0.37738 0.88087 0.0
C309 C 0.50523 0.3995 0.9083 0.0
N310 N 0.48663 0.406 0.89314 0.0
O311 O 0.56284 0.40308 0.92766 0.0
H312 H 0.5281 0.36365 0.87026 0.0
H313 H 0.50419 0.4068 0.92438 0.0
O314 O 0.57815 0.37434 0.89096 0.0
C315 C 0.55232 0.40451 0.94613 0.0
O316 O 0.539 0.38306 0.95341 0.0
N317 N 0.54451 0.33055 0.9082 0.0
C318 C 0.52481 0.27682 0.90349 0.0
C319 C 0.55288 0.28257 0.90147 0.0
C320 C 0.56238 0.30941 0.90431 0.0
C321 C 0.51735 0.32476 0.91141 0.0
C322 C 0.50701 0.29832 0.90868 0.0
H323 H 0.58415 0.31305 0.90297 0.0
H324 H 0.50348 0.34048 0.9169 0.0
H325 H 0.62022 0.35301 0.91132 0.0
H326 H 0.6078 0.31222 0.96902 0.0
H327 H 0.4845 0.39243 0.86058 0.0
H328 H 0.56745 0.26648 0.89779 0.0
H329 H 0.48536 0.2946 0.91143 0.0
C330 C 0.12778 0.60741 0.93761 0.0
C331 C 0.13678 0.6341 0.93778 0.0
N332 N 0.15435 0.63755 0.92165 0.0
N333 N 0.13952 0.59373 0.92142 0.0
C334 C 0.15529 0.61299 0.91175 0.0
H335 H 0.11454 0.59853 0.94941 0.0
Co336 Co 0.13798 0.55533 0.91706 0.0
C337 C 0.12539 0.54675 0.87118 0.0
O338 O 0.13888 0.52342 0.87186 0.0
N339 N 0.13624 0.5168 0.91344 0.0
C340 C 0.14494 0.47195 0.91162 0.0
C341 C 0.15617 0.49753 0.91501 0.0
C342 C 0.11307 0.50223 0.90944 0.0
N343 N 0.1178 0.47503 0.9082 0.0
O344 O 0.1011 0.55405 0.92835 0.0
H345 H 0.17755 0.50144 0.91848 0.0
H346 H 0.09307 0.51145 0.907 0.0
O347 O 0.12376 0.5616 0.8879 0.0
C348 C 0.10276 0.54629 0.94763 0.0
O349 O 0.12735 0.54298 0.95596 0.0
N350 N 0.17511 0.55576 0.90868 0.0
C351 C 0.23173 0.54897 0.90402 0.0
C352 C 0.21492 0.55453 0.88643 0.0
C353 C 0.18662 0.55816 0.88909 0.0
C354 C 0.19146 0.55276 0.92608 0.0
C355 C 0.21975 0.54905 0.92414 0.0
H356 H 0.17445 0.56311 0.8754 0.0
H357 H 0.18215 0.55167 0.94155 0.0
H358 H 0.16866 0.60878 0.89856 0.0
H359 H 0.13167 0.64949 0.94945 0.0
H360 H 0.15578 0.45255 0.9121 0.0
H361 H 0.2235 0.55573 0.87068 0.0
H362 H 0.23182 0.54486 0.9382 0.0
C363 C 0.88935 0.12518 0.91089 0.0
C364 C 0.86283 0.13506 0.91172 0.0
N365 N 0.86366 0.16096 0.91917 0.0
N366 N 0.90687 0.1447 0.91787 0.0
C367 C 0.89052 0.16616 0.92295 0.0
H368 H 0.89553 0.10517 0.90523 0.0
Co369 Co 0.94529 0.14234 0.91905 0.0
C370 C 0.96237 0.12908 0.87497 0.0
O371 O 0.98426 0.14463 0.8774 0.0
N372 N 0.98404 0.13935 0.92062 0.0
C373 C 0.02919 0.14548 0.92471 0.0
C374 C 1.00377 0.15767 0.92611 0.0
C375 C 0.99816 0.11598 0.91659 0.0
N376 N 0.02555 0.11926 0.91873 0.0
O377 O 0.94309 0.10626 0.93134 0.0
H378 H 1.00047 0.17859 0.93094 0.0
H379 H 0.98855 0.09707 0.91144 0.0
O380 O 0.94529 0.12656 0.89023 0.0
C381 C 0.94242 0.10684 0.95148 0.0
O382 O 0.93886 0.13068 0.96078 0.0
N383 N 0.94759 0.17872 0.90898 0.0
C384 C 0.95569 0.23421 0.90039 0.0
C385 C 0.94844 0.21601 0.88413 0.0
C386 C 0.94353 0.18836 0.88889 0.0
C387 C 0.95201 0.1967 0.92513 0.0
C388 C 0.95638 0.22448 0.92121 0.0
H389 H 0.93664 0.17499 0.87638 0.0
H390 H 0.95323 0.18906 0.94118 0.0
H391 H 0.89806 0.18534 0.9293 0.0
H392 H 0.84445 0.12431 0.90667 0.0
H393 H 0.04882 0.1551 0.92803 0.0
H394 H 0.94671 0.22309 0.86794 0.0
H395 H 0.96155 0.23795 0.93426 0.0
C396 C 0.88777 0.11583 0.6292 0.0
C397 C 0.87714 0.14201 0.62823 0.0
N398 N 0.8523 0.14084 0.61872 0.0
N399 N 0.8697 0.09816 0.62038 0.0
C400 C 0.84854 0.11409 0.61385 0.0
H401 H 0.90705 0.10993 0.63648 0.0
Co402 Co 0.87236 0.05989 0.61959 0.0
C403 C 0.8854 0.0435 0.66401 0.0
O404 O 0.87014 0.0214 0.66175 0.0
N405 N 0.87567 0.02121 0.61856 0.0
C406 C 0.86974 0.97591 0.61616 0.0
C407 C 0.85718 1.0011 0.61437 0.0
C408 C 0.89942 0.00751 0.62233 0.0
N409 N 0.8963 0.98007 0.62114 0.0
O410 O 0.90841 0.06242 0.6075 0.0
H411 H 0.83583 1.00397 0.61037 0.0
H412 H 0.91853 0.01746 0.62669 0.0
O413 O 0.8879 0.0603 0.64853 0.0
C414 C 0.90731 0.06432 0.58741 0.0
O415 O 0.88321 0.06849 0.57848 0.0
N416 N 0.83592 0.0575 0.6293 0.0
C417 C 0.77993 0.05133 0.63696 0.0
C418 C 0.798 0.05831 0.65344 0.0
C419 C 0.82595 0.06219 0.64914 0.0
C420 C 0.81821 0.05293 0.61292 0.0
C421 C 0.79018 0.04954 0.61638 0.0
H422 H 0.83923 0.06907 0.66175 0.0
H423 H 0.82619 0.05108 0.59705 0.0
H424 H 0.83046 0.10616 0.60597 0.0
H425 H 0.8865 0.16027 0.63486 0.0
H426 H 0.86013 0.95607 0.61384 0.0
H427 H 0.79055 0.06082 0.66944 0.0
H428 H 0.77684 0.04449 0.60318 0.0
C429 C 0.43318 0.84286 0.58378 0.0
C430 C 0.40946 0.82994 0.57751 0.0
N431 N 0.38973 0.83532 0.59178 0.0
N432 N 0.42862 0.85659 0.60192 0.0
C433 C 0.40166 0.85217 0.60615 0.0
H434 H 0.45308 0.84036 0.57651 0.0
Co435 Co 0.45748 0.87126 0.61832 0.0
C436 C 0.42647 0.86657 0.65996 0.0
O437 O 0.43735 0.84262 0.66424 0.0
N438 N 0.48642 0.8866 0.63459 0.0
C439 C 0.51375 0.89878 0.66136 0.0
C440 C 0.49172 0.88291 0.65541 0.0
C441 C 0.50607 0.90444 0.62819 0.0
N442 N 0.52272 0.91232 0.64421 0.0
O443 O 0.4504 0.90712 0.60623 0.0
H444 H 0.48082 0.86918 0.66575 0.0
H445 H 0.50809 0.91186 0.61217 0.0
O446 O 0.43238 0.8791 0.64266 0.0
C447 C 0.46244 0.9075 0.58828 0.0
O448 O 0.47657 0.8858 0.58259 0.0
N449 N 0.46701 0.83495 0.62727 0.0
C450 C 0.48544 0.78085 0.63219 0.0
C451 C 0.45735 0.78692 0.63279 0.0
C452 C 0.44856 0.81393 0.62993 0.0
C453 C 0.49439 0.82893 0.62574 0.0
C454 C 0.50406 0.80226 0.62863 0.0
H455 H 0.42676 0.81777 0.63023 0.0
H456 H 0.50901 0.8446 0.62133 0.0
H457 H 0.39185 0.85849 0.62067 0.0
H458 H 0.40744 0.81606 0.56423 0.0
H459 H 0.52287 0.89985 0.67699 0.0
H460 H 0.44224 0.77091 0.63533 0.0
H461 H 0.52588 0.79827 0.62716 0.0
C462 C 0.67243 0.41623 0.58406 0.0
C463 C 0.68157 0.39021 0.57963 0.0
N464 N 0.67593 0.37389 0.59626 0.0
N465 N 0.6608 0.41648 0.60336 0.0
C466 C 0.66287 0.39024 0.61029 0.0
H467 H 0.67611 0.43427 0.57451 0.0
Co468 Co 0.65099 0.44881 0.61753 0.0
C469 C 0.65691 0.42311 0.6615 0.0
O470 O 0.68245 0.43109 0.66376 0.0
N471 N 0.6407 0.48111 0.63183 0.0
C472 C 0.63713 0.51379 0.65618 0.0
C473 C 0.64905 0.48916 0.65127 0.0
C474 C 0.62374 0.50141 0.62523 0.0
N475 N 0.6212 0.52151 0.63979 0.0
O476 O 0.61314 0.44405 0.60843 0.0
H477 H 0.6635 0.47838 0.66118 0.0
H478 H 0.61391 0.50186 0.60989 0.0
O479 O 0.64345 0.42848 0.64446 0.0
C480 C 0.61106 0.45318 0.5895 0.0
O481 O 0.63319 0.4631 0.58045 0.0
N482 N 0.68896 0.45573 0.62334 0.0
C483 C 0.74403 0.47169 0.62726 0.0
C484 C 0.73641 0.44418 0.63005 0.0
C485 C 0.70884 0.43649 0.62749 0.0
C486 C 0.69678 0.48192 0.61847 0.0
C487 C 0.7239 0.49048 0.62084 0.0
H488 H 0.70353 0.41517 0.62962 0.0
H489 H 0.68198 0.49649 0.6124 0.0
H490 H 0.6569 0.3837 0.62595 0.0
H491 H 0.69365 0.3844 0.56602 0.0
H492 H 0.63993 0.52505 0.67077 0.0
H493 H 0.75148 0.42881 0.63442 0.0
H494 H 0.72914 0.5116 0.61727 0.0
C495 C 0.12383 0.63184 0.62573 0.0
C496 C 0.15047 0.64145 0.62468 0.0
N497 N 0.14992 0.66689 0.61631 0.0
N498 N 0.1066 0.65111 0.61798 0.0
C499 C 0.12318 0.67209 0.61219 0.0
H500 H 0.11738 0.61223 0.63205 0.0
Co501 Co 0.06826 0.64929 0.61658 0.0
C502 C 0.05049 0.63734 0.66079 0.0
O503 O 0.02872 0.65291 0.65796 0.0
N504 N 0.02957 0.64683 0.61478 0.0
C505 C 0.98459 0.65319 0.60998 0.0
C506 C 0.01013 0.66524 0.60892 0.0
C507 C 0.01518 0.6236 0.61878 0.0
N508 N 0.9879 0.62699 0.61615 0.0
O509 O 0.07008 0.61289 0.60489 0.0
H510 H 0.01372 0.68608 0.60397 0.0
H511 H 0.02452 0.60465 0.62414 0.0
O512 O 0.06768 0.6343 0.64566 0.0
C513 C 0.0709 0.61307 0.58475 0.0
O514 O 0.07477 0.6367 0.57516 0.0
N515 N 0.06644 0.68595 0.62604 0.0
C516 C 0.05932 0.74176 0.63371 0.0
C517 C 0.06608 0.72383 0.65029 0.0
C518 C 0.07049 0.69599 0.64599 0.0
C519 C 0.06246 0.70361 0.60958 0.0
C520 C 0.0586 0.73156 0.61305 0.0
H521 H 0.07702 0.68281 0.65874 0.0
H522 H 0.06122 0.69562 0.59365 0.0
H523 H 0.11589 0.69092 0.60509 0.0
H524 H 0.16871 0.63088 0.63022 0.0
H525 H 0.96513 0.66283 0.60621 0.0
H526 H 0.06779 0.73126 0.66638 0.0
H527 H 0.0538 0.7448 0.59977 0.0
C528 C 0.60875 0.93119 0.1488 0.0
C529 C 0.60156 0.95467 0.1371 0.0
C530 C 0.58955 0.91028 0.15219 0.0
C531 C 0.5298 0.87882 0.12756 0.0
H532 H 0.52074 0.84202 0.18148 0.0
C533 C 0.46059 0.78365 0.13375 0.0
C534 C 0.47086 0.7618 0.14593 0.0
C535 C 0.47233 0.8098 0.13531 0.0
C536 C 0.52316 0.85189 0.16626 0.0
H537 H 0.56858 0.97484 0.11997 0.0
H538 H 0.53505 0.93805 0.12566 0.0
H539 H 0.54987 0.88279 0.17915 0.0
H540 H 0.50069 0.75026 0.16982 0.0
H541 H 0.5218 0.79553 0.17215 0.0
H542 H 0.50448 0.8474 0.1143 0.0
C543 C 0.55551 0.93598 0.13233 0.0
C544 C 0.53976 0.87532 0.16498 0.0
C545 C 0.5746 0.95708 0.12921 0.0
C546 C 0.49219 0.76686 0.16043 0.0
C547 C 0.50424 0.79289 0.16176 0.0
C548 C 0.51354 0.85521 0.12876 0.0
C549 C 0.56287 0.91225 0.14369 0.0
C550 C 0.54349 0.88883 0.14556 0.0
C551 C 0.49497 0.81456 0.14879 0.0
C552 C 0.51023 0.84118 0.14807 0.0
H553 H 0.62933 0.92893 0.15516 0.0
H554 H 0.59588 0.89214 0.16086 0.0
H555 H 0.53259 0.88859 0.11233 0.0
H556 H 0.444 0.7803 0.12255 0.0
H557 H 0.4641 0.82608 0.12548 0.0
C558 C 0.7376 0.48759 0.16084 0.0
C559 C 0.74255 0.46523 0.14744 0.0
C560 C 0.71149 0.49949 0.16169 0.0
C561 C 0.64942 0.50615 0.12801 0.0
H562 H 0.62263 0.54788 0.17582 0.0
C563 C 0.54953 0.57076 0.12475 0.0
C564 C 0.55321 0.59818 0.13105 0.0
C565 C 0.57003 0.55125 0.12869 0.0
C566 C 0.62986 0.53623 0.16238 0.0
H567 H 0.72387 0.43628 0.12576 0.0
H568 H 0.67791 0.45616 0.12793 0.0
H569 H 0.66241 0.51784 0.1803 0.0
H570 H 0.58062 0.62655 0.14697 0.0
H571 H 0.61635 0.59243 0.15408 0.0
H572 H 0.61678 0.52464 0.11016 0.0
C573 C 0.69431 0.46527 0.1372 0.0
C574 C 0.65272 0.5191 0.16488 0.0
C575 C 0.72054 0.45368 0.13609 0.0
C576 C 0.57744 0.60561 0.14177 0.0
C577 C 0.59771 0.58605 0.14602 0.0
C578 C 0.62635 0.52294 0.12561 0.0
C579 C 0.68968 0.48902 0.14935 0.0
C580 C 0.66323 0.50434 0.14759 0.0
C581 C 0.59431 0.55875 0.13936 0.0
C582 C 0.61675 0.53862 0.14263 0.0
H583 H 0.75434 0.49705 0.16955 0.0
H584 H 0.70894 0.5179 0.17105 0.0
H585 H 0.65709 0.4956 0.11419 0.0
H586 H 0.53109 0.56457 0.11636 0.0
H587 H 0.56692 0.53032 0.1234 0.0
C588 C 0.0165 0.73632 0.15217 0.0
C589 C 0.03842 0.74119 0.13831 0.0
C590 C 1.00385 0.71054 0.15291 0.0
C591 C 0.99448 0.64856 0.11945 0.0
H592 H 0.95611 0.62156 0.16888 0.0
C593 C 0.93177 0.547 0.11994 0.0
C594 C 0.90469 0.55003 0.12723 0.0
C595 C 0.95097 0.56816 0.1227 0.0
C596 C 0.96678 0.62886 0.15497 0.0
H597 H 0.06558 0.72254 0.11544 0.0
H598 H 0.04439 0.67716 0.11737 0.0
H599 H 0.98593 0.66171 0.17198 0.0
H600 H 0.87671 0.57702 0.14371 0.0
H601 H 0.91031 0.61383 0.14882 0.0
H602 H 0.97533 0.61548 0.10255 0.0
C603 C 0.03619 0.69343 0.12713 0.0
C604 C 0.98377 0.65196 0.15668 0.0
C605 C 0.04854 0.71935 0.12615 0.0
C606 C 0.89736 0.5743 0.13775 0.0
C607 C 0.91664 0.59521 0.14085 0.0
C608 C 0.97782 0.62523 0.11783 0.0
C609 C 0.01308 0.68889 0.14001 0.0
C610 C 0.99741 0.66251 0.13884 0.0
C611 C 0.94356 0.59248 0.1332 0.0
C612 C 0.96337 0.61549 0.13547 0.0
H613 H 0.00806 0.7529 0.16151 0.0
H614 H 0.98593 0.70811 0.16282 0.0
H615 H 1.00414 0.65623 0.10523 0.0
H616 H 0.93787 0.52853 0.11168 0.0
H617 H 0.97161 0.56553 0.11668 0.0
C618 C 0.961 0.93155 0.11983 0.0
C619 C 0.95724 0.90354 0.12436 0.0
C620 C 0.94002 0.95044 0.12389 0.0
C621 C 0.87741 0.96072 0.15539 0.0
H622 H 0.85382 0.00799 0.10944 0.0
C623 C 0.76911 0.00719 0.15117 0.0
C624 C 0.76493 0.03225 0.14063 0.0
C625 C 0.79525 0.99542 0.15213 0.0
C626 C 0.86045 0.99546 0.12265 0.0
H627 H 0.92906 0.87344 0.13719 0.0
H628 H 0.89249 0.90639 0.14438 0.0
H629 H 0.89491 0.97997 0.1054 0.0
H630 H 0.78513 0.06553 0.12406 0.0
H631 H 0.83101 0.04528 0.12615 0.0
H632 H 0.8429 0.97592 0.17262 0.0
C633 C 0.91159 0.91375 0.13768 0.0
C634 C 0.88397 0.97931 0.12027 0.0
C635 C 0.93237 0.89486 0.13335 0.0
C636 C 0.78772 0.04604 0.13209 0.0
C637 C 0.81395 0.03436 0.1332 0.0
C638 C 0.85406 0.97707 0.15787 0.0
C639 C 0.91511 0.9417 0.13286 0.0
C640 C 0.89227 0.96127 0.13641 0.0
C641 C 0.81791 0.00851 0.14271 0.0
C642 C 0.84484 0.9941 0.14132 0.0
H643 H 0.97993 0.93872 0.11276 0.0
H644 H 0.94327 0.97188 0.12004 0.0
H645 H 0.88362 0.94728 0.16821 0.0
H646 H 0.7519 0.99585 0.15762 0.0
H647 H 0.79733 0.97532 0.1593 0.0
C648 C 0.95952 0.22511 0.40917 0.0
C649 C 0.97013 0.24672 0.39697 0.0
C650 C 0.97054 0.19871 0.40752 0.0
C651 C 0.02033 0.15588 0.37661 0.0
H652 H 0.03072 0.1198 0.43076 0.0
C653 C 0.10781 0.07953 0.39505 0.0
C654 C 0.10106 0.05544 0.40608 0.0
C655 C 0.08809 0.09991 0.39171 0.0
C656 C 0.02763 0.12941 0.41548 0.0
H657 H 0.9997 0.25763 0.37293 0.0
H658 H 0.01965 0.21196 0.3705 0.0
H659 H 1.00227 0.16072 0.42856 0.0
H660 H 0.06849 0.03361 0.42219 0.0
H661 H 0.03398 0.06969 0.41678 0.0
H662 H 0.04726 0.12522 0.36395 0.0
C663 C 1.00234 0.21494 0.38094 0.0
C664 C 0.01117 0.15284 0.41414 0.0
C665 C 0.99097 0.24121 0.38234 0.0
C666 C 0.07411 0.05195 0.41353 0.0
C667 C 0.05448 0.07258 0.41052 0.0
C668 C 0.03716 0.13268 0.37805 0.0
C669 C 0.9928 0.19348 0.39395 0.0
C670 C 0.00766 0.16671 0.39475 0.0
C671 C 0.06134 0.09678 0.39963 0.0
C672 C 0.04129 0.11951 0.39756 0.0
H673 H 0.94327 0.22885 0.42045 0.0
H674 H 0.96214 0.1826 0.41738 0.0
H675 H 0.01769 0.16559 0.36134 0.0
H676 H 0.12838 0.08256 0.38899 0.0
H677 H 0.09398 0.11849 0.38344 0.0
C678 C 0.27367 0.98799 0.37669 0.0
C679 C 0.26686 0.97063 0.39363 0.0
C680 C 0.30021 0.99881 0.37494 0.0
C681 C 0.35993 0.01597 0.4085 0.0
H682 H 0.39482 0.03149 0.35483 0.0
C683 C 0.46603 0.06999 0.4024 0.0
C684 C 0.46803 0.09072 0.38697 0.0
C685 C 0.44306 0.05263 0.403 0.0
C686 C 0.38526 0.02741 0.36994 0.0
H687 H 0.28306 0.94938 0.42113 0.0
H688 H 0.32947 0.96796 0.41792 0.0
H689 H 0.35237 0.00475 0.35558 0.0
H690 H 0.44694 0.10975 0.36043 0.0
H691 H 0.40721 0.07957 0.36143 0.0
H692 H 0.39262 0.03896 0.42282 0.0
C693 C 0.31413 0.9738 0.40629 0.0
C694 C 0.36094 0.01209 0.37037 0.0
C695 C 0.28758 0.96307 0.40809 0.0
C696 C 0.44645 0.09372 0.37226 0.0
C697 C 0.42361 0.07636 0.37282 0.0
C698 C 0.38429 0.03123 0.40807 0.0
C699 C 0.32058 0.9924 0.39004 0.0
C700 C 0.34774 0.00653 0.38963 0.0
C701 C 0.42165 0.05556 0.38814 0.0
C702 C 0.39699 0.03751 0.38876 0.0
H703 H 0.25809 0.99445 0.36545 0.0
H704 H 0.30434 0.01327 0.36233 0.0
H705 H 0.35012 0.01247 0.4236 0.0
H706 H 0.48238 0.06683 0.41381 0.0
H707 H 0.44225 0.03666 0.41491 0.0
C708 C 0.4997 0.27178 0.38152 0.0
C709 C 0.52506 0.2661 0.3913 0.0
C710 C 0.48901 0.29834 0.38158 0.0
C711 C 0.49286 0.36188 0.41278 0.0
H712 H 0.44418 0.38887 0.3687 0.0
C713 C 0.43215 0.464 0.41933 0.0
C714 C 0.40385 0.46106 0.41532 0.0
C715 C 0.45033 0.44273 0.41445 0.0
C716 C 0.4578 0.3816 0.3811 0.0
H717 H 0.55977 0.2842 0.40788 0.0
H718 H 0.5415 0.3308 0.40737 0.0
H719 H 0.47132 0.34755 0.36256 0.0
H720 H 0.37244 0.43407 0.40266 0.0
H721 H 0.40417 0.39697 0.39402 0.0
H722 H 0.47902 0.39589 0.43135 0.0
C723 C 0.52959 0.31455 0.40006 0.0
C724 C 0.47327 0.35791 0.37763 0.0
C725 C 0.54023 0.28789 0.40011 0.0
C726 C 0.39411 0.4367 0.4061 0.0
C727 C 0.41229 0.41565 0.40095 0.0
C728 C 0.4776 0.38575 0.41615 0.0
C729 C 0.50353 0.31995 0.39127 0.0
C730 C 0.49038 0.3473 0.39366 0.0
C731 C 0.44054 0.41841 0.40515 0.0
C732 C 0.45937 0.39536 0.40055 0.0
H733 H 0.48769 0.25552 0.37431 0.0
H734 H 0.46876 0.3016 0.37484 0.0
H735 H 0.50552 0.35415 0.42559 0.0
H736 H 0.4401 0.48254 0.42655 0.0
H737 H 0.47203 0.44532 0.41784 0.0
C738 C 0.05125 0.43861 0.41988 0.0
C739 C 0.0548 0.41133 0.41322 0.0
C740 C 0.07199 0.45809 0.4166 0.0
C741 C 0.13227 0.47379 0.384 0.0
H742 H 0.1595 0.51296 0.43313 0.0
C743 C 0.23962 0.52392 0.38636 0.0
C744 C 0.24453 0.54602 0.4001 0.0
C745 C 0.21374 0.51141 0.38556 0.0
C746 C 0.15185 0.50281 0.41906 0.0
H747 H 0.08224 0.38323 0.39732 0.0
H748 H 0.11833 0.41732 0.39128 0.0
H749 H 0.11906 0.48384 0.43627 0.0
H750 H 0.22588 0.57371 0.42258 0.0
H751 H 0.18031 0.55279 0.4205 0.0
H752 H 0.16485 0.49274 0.36668 0.0
C753 C 0.09963 0.4236 0.39915 0.0
C754 C 0.1287 0.48596 0.42095 0.0
C755 C 0.07914 0.40405 0.40277 0.0
C756 C 0.22263 0.55654 0.41197 0.0
C757 C 0.19662 0.54434 0.41091 0.0
C758 C 0.15518 0.49098 0.382 0.0
C759 C 0.09639 0.45074 0.40621 0.0
C760 C 0.11905 0.47084 0.40356 0.0
C761 C 0.19205 0.52097 0.39827 0.0
C762 C 0.1657 0.50527 0.39963 0.0
H763 H 0.03273 0.44467 0.42807 0.0
H764 H 0.06899 0.47889 0.42218 0.0
H765 H 0.12503 0.46257 0.37028 0.0
H766 H 0.25626 0.51519 0.37725 0.0
H767 H 0.2113 0.4933 0.37582 0.0
C768 C 0.38195 0.07514 0.90286 0.0
C769 C 0.39086 0.05099 0.91291 0.0
C770 C 0.39988 0.09723 0.90024 0.0
C771 C 0.46179 0.1289 0.92225 0.0
H772 H 0.46183 0.16896 0.8692 0.0
C773 C 0.52797 0.22614 0.91055 0.0
C774 C 0.51404 0.24846 0.90132 0.0
C775 C 0.51641 0.19985 0.9101 0.0
C776 C 0.46199 0.15805 0.88414 0.0
H777 H 0.42542 0.03118 0.92839 0.0
H778 H 0.45687 0.06999 0.92385 0.0
H779 H 0.43466 0.12706 0.87245 0.0
H780 H 0.4778 0.26047 0.8835 0.0
H781 H 0.4574 0.21487 0.88307 0.0
H782 H 0.48839 0.16035 0.93418 0.0
C783 C 0.43599 0.0717 0.91796 0.0
C784 C 0.44644 0.13408 0.88598 0.0
C785 C 0.41808 0.04946 0.92043 0.0
C786 C 0.48886 0.24375 0.89097 0.0
C787 C 0.47734 0.21753 0.89051 0.0
C788 C 0.47726 0.15298 0.92043 0.0
C789 C 0.42708 0.09575 0.90773 0.0
C790 C 0.44573 0.11958 0.90519 0.0
C791 C 0.49075 0.19535 0.90036 0.0
C792 C 0.47705 0.16814 0.90149 0.0
H793 H 0.36122 0.0768 0.89669 0.0
H794 H 0.39232 0.11564 0.89255 0.0
H795 H 0.46147 0.11825 0.93728 0.0
H796 H 0.54733 0.22915 0.91876 0.0
H797 H 0.52738 0.18312 0.91763 0.0
C798 C 0.44061 0.42058 0.88082 0.0
C799 C 0.46292 0.42366 0.89485 0.0
C800 C 0.418 0.43808 0.88184 0.0
C801 C 0.37999 0.48351 0.91721 0.0
H802 H 0.34767 0.50976 0.86476 0.0
C803 C 0.28116 0.54939 0.91612 0.0
C804 C 0.26104 0.54104 0.90142 0.0
C805 C 0.308 0.5392 0.91496 0.0
C806 C 0.35637 0.50253 0.87954 0.0
H807 H 0.47865 0.44764 0.92117 0.0
H808 H 0.43875 0.47807 0.92314 0.0
H809 H 0.39042 0.48371 0.86394 0.0
H810 H 0.25358 0.51583 0.87371 0.0
H811 H 0.30019 0.49821 0.87165 0.0
H812 H 0.34549 0.50163 0.93277 0.0
C813 C 0.43896 0.46199 0.91133 0.0
C814 C 0.38086 0.48762 0.87907 0.0
C815 C 0.46176 0.44449 0.91023 0.0
C816 C 0.26864 0.52308 0.88508 0.0
C817 C 0.29542 0.51292 0.88392 0.0
C818 C 0.35539 0.49838 0.91768 0.0
C819 C 0.41696 0.45909 0.89699 0.0
C820 C 0.39262 0.47742 0.89785 0.0
C821 C 0.31531 0.52048 0.89905 0.0
C822 C 0.34299 0.50754 0.8988 0.0
H823 H 0.44039 0.40442 0.86911 0.0
H824 H 0.40109 0.43488 0.8709 0.0
H825 H 0.38846 0.47576 0.93191 0.0
H826 H 0.27608 0.56351 0.92872 0.0
H827 H 0.32296 0.54575 0.92666 0.0
C828 C 0.95462 0.28469 0.90774 0.0
C829 C 0.96473 0.26262 0.89584 0.0
C830 C 0.96667 0.31066 0.90611 0.0
C831 C 0.01832 0.35177 0.87562 0.0
H832 H 0.02863 0.38791 0.92969 0.0
C833 C 0.10498 0.42997 0.89328 0.0
C834 C 0.09784 0.45371 0.90456 0.0
C835 C 0.08575 0.409 0.89015 0.0
C836 C 0.02562 0.37827 0.91443 0.0
H837 H 0.9945 0.25049 0.87232 0.0
H838 H 0.01614 0.29546 0.86988 0.0
H839 H 0.99962 0.34736 0.92745 0.0
H840 H 0.06506 0.47418 0.92144 0.0
H841 H 0.03151 0.43729 0.91625 0.0
H842 H 0.04566 0.38216 0.86296 0.0
C843 C 0.9985 0.29313 0.88009 0.0
C844 C 0.00883 0.35506 0.91307 0.0
C845 C 0.98614 0.26727 0.88149 0.0
C846 C 0.07103 0.45619 0.91253 0.0
C847 C 0.05192 0.43505 0.90968 0.0
C848 C 0.03544 0.3748 0.87706 0.0
C849 C 0.98945 0.31499 0.89285 0.0
C850 C 1.00519 0.34126 0.8937 0.0
C851 C 0.05913 0.41121 0.89852 0.0
C852 C 0.03948 0.38807 0.89653 0.0
H853 H 0.93795 0.28163 0.91879 0.0
H854 H 0.95863 0.32714 0.91575 0.0
H855 H 0.01565 0.34203 0.86036 0.0
H856 H 0.12542 0.42768 0.88683 0.0
H857 H 0.09192 0.39072 0.88167 0.0
C858 C 0.23196 0.99149 0.88504 0.0
C859 C 0.23622 0.96642 0.89555 0.0
C860 C 0.20615 1.00397 0.88507 0.0
C861 C 0.14238 0.00603 0.91643 0.0
H862 H 0.11816 0.0533 0.87061 0.0
C863 C 0.04247 0.07143 0.91945 0.0
C864 C 0.0466 0.09928 0.91457 0.0
C865 C 0.06319 0.05216 0.91563 0.0
C866 C 0.12467 0.04012 0.88351 0.0
H867 H 0.2164 0.93406 0.91342 0.0
H868 H 0.171 0.95559 0.91311 0.0
H869 H 0.15812 0.0238 0.86571 0.0
H870 H 0.07519 0.12874 0.90143 0.0
H871 H 0.11127 0.09512 0.89454 0.0
H872 H 0.10883 0.02259 0.93419 0.0
C873 C 0.18781 0.96592 0.90524 0.0
C874 C 0.1476 0.02329 0.88076 0.0
C875 C 0.21377 0.95351 0.90534 0.0
C876 C 0.07161 0.10745 0.90552 0.0
C877 C 0.0921 0.08818 0.90139 0.0
C878 C 0.11922 0.02265 0.91908 0.0
C879 C 0.18382 0.99162 0.89549 0.0
C880 C 0.15724 0.00658 0.89738 0.0
C881 C 0.08817 0.06037 0.90649 0.0
C882 C 0.11059 0.04037 0.90283 0.0
H883 H 0.24892 1.00225 0.8777 0.0
H884 H 0.2041 0.02398 0.87775 0.0
H885 H 0.14934 0.99374 0.92968 0.0
H886 H 0.02342 0.06467 0.92657 0.0
H887 H 0.05966 0.03084 0.9197 0.0
C888 C 0.02914 0.7756 0.65185 0.0
C889 C 0.05071 0.77038 0.63779 0.0
C890 C 0.01719 0.80165 0.65281 0.0
C891 C 0.00856 0.86335 0.61911 0.0
H892 H 0.96976 0.89049 0.66823 0.0
C893 C 0.94407 0.96344 0.6184 0.0
C894 C 0.91685 0.95949 0.62509 0.0
C895 C 0.96382 0.943 0.62171 0.0
C896 C 0.98062 0.88316 0.65443 0.0
H897 H 0.07818 0.78857 0.61487 0.0
H898 H 0.05826 0.83446 0.61719 0.0
H899 H 1.00001 0.85075 0.67175 0.0
H900 H 0.88907 0.93169 0.64106 0.0
H901 H 0.92368 0.89608 0.64717 0.0
H902 H 0.98913 0.89596 0.60189 0.0
C903 C 0.04976 0.81828 0.62693 0.0
C904 C 0.99783 0.86032 0.65638 0.0
C905 C 0.06138 0.79209 0.62572 0.0
C906 C 0.90986 0.93507 0.63558 0.0
C907 C 0.92969 0.91487 0.63925 0.0
C908 C 0.99172 0.88646 0.61727 0.0
C909 C 0.02684 0.82317 0.63991 0.0
C910 C 0.0115 0.84964 0.63862 0.0
C911 C 0.95677 0.91853 0.63217 0.0
C912 C 0.97709 0.89616 0.63478 0.0
H913 H 0.02033 0.7591 0.66113 0.0
H914 H 0.99939 0.80436 0.66279 0.0
H915 H 0.01825 0.85558 0.60496 0.0
H916 H 0.94987 0.98206 0.61017 0.0
H917 H 0.98458 0.94627 0.61609 0.0
C918 C 0.7445 0.02386 0.65601 0.0
C919 C 0.75088 0.04415 0.64106 0.0
C920 C 0.71772 0.01367 0.65754 0.0
C921 C 0.65405 0.00752 0.62535 0.0
H922 H 0.6253 0.97717 0.67739 0.0
C923 C 0.56315 0.93134 0.62587 0.0
C924 C 0.54558 0.93101 0.64338 0.0
C925 C 0.58648 0.94815 0.6258 0.0
C926 C 0.63269 0.98591 0.66274 0.0
H927 H 0.73417 0.07104 0.61696 0.0
H928 H 0.68709 0.05418 0.62021 0.0
H929 H 0.66809 1.00278 0.6781 0.0
H930 H 0.53763 0.94894 0.67402 0.0
H931 H 0.57764 0.97907 0.67369 0.0
H932 H 0.61821 0.99142 0.6101 0.0
C933 C 0.70286 0.04533 0.63025 0.0
C934 C 0.65757 1.00028 0.66311 0.0
C935 C 0.72974 0.05519 0.62849 0.0
C936 C 0.55116 0.9485 0.66049 0.0
C937 C 0.57418 0.96566 0.6603 0.0
C938 C 0.62897 0.99349 0.62504 0.0
C939 C 0.69663 0.02385 0.64435 0.0
C940 C 0.66886 0.01086 0.64436 0.0
C941 C 0.59246 0.96536 0.64313 0.0
C942 C 0.61817 0.98206 0.64366 0.0
H943 H 0.76053 0.01478 0.66569 0.0
H944 H 0.71393 0.99688 0.66838 0.0
H945 H 0.66217 0.01501 0.61052 0.0
H946 H 0.55939 0.91784 0.61257 0.0
H947 H 0.60023 0.94696 0.61243 0.0
C948 C 0.6131 0.56969 0.64975 0.0
C949 C 0.60515 0.54626 0.63832 0.0
C950 C 0.59709 0.59336 0.64925 0.0
C951 C 0.54491 0.63006 0.61828 0.0
H952 H 0.53529 0.67006 0.67074 0.0
C953 C 0.48215 0.73077 0.62334 0.0
C954 C 0.49533 0.75223 0.63427 0.0
C955 C 0.49251 0.70404 0.62437 0.0
C956 C 0.53787 0.65916 0.65596 0.0
H957 H 0.57428 0.52944 0.61712 0.0
H958 H 0.54621 0.57111 0.61613 0.0
H959 H 0.55913 0.62608 0.67106 0.0
H960 H 0.52912 0.76247 0.6553 0.0
H961 H 0.54732 0.71591 0.657 0.0
H962 H 0.524 0.66348 0.60315 0.0
C963 C 0.56497 0.57104 0.62544 0.0
C964 C 0.55153 0.63401 0.65614 0.0
C965 C 0.58106 0.54724 0.62596 0.0
C966 C 0.51868 0.74636 0.6466 0.0
C967 C 0.52892 0.71966 0.64773 0.0
C968 C 0.53117 0.65526 0.61811 0.0
C969 C 0.57271 0.59423 0.63729 0.0
C970 C 0.55575 0.6195 0.63724 0.0
C971 C 0.5161 0.69828 0.63648 0.0
C972 C 0.52805 0.67032 0.6369 0.0
H973 H 0.63186 0.56985 0.65902 0.0
H974 H 0.60398 0.61113 0.65811 0.0
H975 H 0.548 0.61941 0.60345 0.0
H976 H 0.46425 0.73475 0.61355 0.0
H977 H 0.48213 0.68791 0.61565 0.0
C978 C 0.94133 0.6151 0.62815 0.0
C979 C 0.9667 0.60698 0.61975 0.0
C980 C 0.92065 0.5958 0.63169 0.0
C981 C 0.89413 0.53067 0.61293 0.0
H982 H 0.85169 0.53265 0.66465 0.0
C983 C 0.79512 0.46624 0.62257 0.0
C984 C 0.77273 0.48115 0.63055 0.0
C985 C 0.82181 0.47693 0.62396 0.0
C986 C 0.8633 0.53185 0.65009 0.0
H987 H 0.99037 0.57246 0.6083 0.0
H988 H 0.95382 0.53856 0.61416 0.0
H989 H 0.89295 0.56085 0.66152 0.0
H990 H 0.76089 0.51804 0.64735 0.0
H991 H 0.807 0.53691 0.64933 0.0
H992 H 0.86375 0.50282 0.60102 0.0
C993 C 0.95015 0.55985 0.61818 0.0
C994 C 0.88693 0.54794 0.64835 0.0
C995 C 0.97103 0.57916 0.61494 0.0
C996 C 0.77769 0.50627 0.64078 0.0
C997 C 0.80423 0.51691 0.64216 0.0
C998 C 0.8703 0.51474 0.61459 0.0
C999 C 0.92479 0.56802 0.62665 0.0
C1000 C 0.90213 0.54808 0.62954 0.0
C1001 C 0.82658 0.50264 0.63345 0.0
C1002 C 0.85416 0.5158 0.63297 0.0
H1003 H 0.93758 0.63637 0.63215 0.0
H1004 H 0.90117 0.6027 0.63799 0.0
H1005 H 0.90544 0.53052 0.59821 0.0
H1006 H 0.7919 0.44685 0.61457 0.0
H1007 H 0.83863 0.46531 0.61728 0.0
C1008 C 0.70738 0.16105 0.09645 0.0
C1009 C 0.68629 0.15463 0.11074 0.0
C1010 C 0.72481 0.18337 0.10011 0.0
C1011 C 0.7279 0.25094 0.12166 0.0
H1012 H 0.80691 0.24097 0.12439 0.0
C1013 C 0.80162 0.34361 0.13282 0.0
C1014 C 0.82773 0.34232 0.12351 0.0
C1015 C 0.78434 0.32057 0.13296 0.0
C1016 C 0.78496 0.24433 0.12329 0.0
H1017 H 0.66684 0.1663 0.14003 0.0
H1018 H 0.69691 0.20644 0.14611 0.0
H1019 H 0.77688 0.20105 0.12157 0.0
H1020 H 0.856 0.31627 0.10656 0.0
H1021 H 0.82556 0.27654 0.10567 0.0
H1022 H 0.73566 0.29413 0.12206 0.0
C1023 C 0.70005 0.1938 0.13226 0.0
C1024 C 0.76777 0.22134 0.12193 0.0
C1025 C 0.683 0.17092 0.12885 0.0
C1026 C 0.83608 0.31768 0.11405 0.0
C1027 C 0.81861 0.29482 0.11374 0.0
C1028 C 0.7451 0.27403 0.12253 0.0
C1029 C 0.72114 0.20014 0.1179 0.0
C1030 C 0.73912 0.22443 0.121 0.0
C1031 C 0.79251 0.29577 0.12336 0.0
C1032 C 0.77396 0.27112 0.1232 0.0
H1033 H 0.71043 0.14861 0.08248 0.0
H1034 H 0.74085 0.18789 0.0888 0.0
H1035 H 0.70584 0.25384 0.12071 0.0
H1036 H 0.79485 0.36228 0.14046 0.0
H1037 H 0.76476 0.32219 0.14091 0.0
C1038 C 0.32081 0.66855 0.11548 0.0
C1039 C 0.34799 0.67835 0.11686 0.0
C1040 C 0.29866 0.68678 0.11379 0.0
C1041 C 0.27976 0.75911 0.12463 0.0
H1042 H 0.21597 0.74218 0.08999 0.0
C1043 C 0.19106 0.83668 0.11318 0.0
C1044 C 0.16409 0.82633 0.11432 0.0
C1045 C 0.21361 0.81891 0.11212 0.0
C1046 C 0.23354 0.74712 0.09987 0.0
H1047 H 0.37295 0.71534 0.1173 0.0
H1048 H 0.33451 0.74694 0.11383 0.0
H1049 H 0.25509 0.71082 0.09046 0.0
H1050 H 0.1399 0.78886 0.11509 0.0
H1051 H 0.17913 0.75796 0.11312 0.0
H1052 H 0.2582 0.79533 0.13411 0.0
C1053 C 0.33027 0.72512 0.11437 0.0
C1054 C 0.25598 0.72911 0.10016 0.0
C1055 C 0.35242 0.70691 0.11608 0.0
C1056 C 0.16027 0.79767 0.11392 0.0
C1057 C 0.18282 0.77989 0.11281 0.0
C1058 C 0.25737 0.77712 0.1243 0.0
C1059 C 0.30306 0.71533 0.11342 0.0
C1060 C 0.27937 0.73481 0.11261 0.0
C1061 C 0.20981 0.79027 0.11212 0.0
C1062 C 0.23391 0.77133 0.11198 0.0
H1063 H 0.31657 0.64674 0.1158 0.0
H1064 H 0.27801 0.67845 0.11329 0.0
H1065 H 0.29715 0.76397 0.13471 0.0
H1066 H 0.19482 0.85858 0.1131 0.0
H1067 H 0.23406 0.82763 0.11123 0.0
C1068 C 0.34098 0.69555 0.42512 0.0
C1069 C 0.33106 0.6684 0.42511 0.0
C1070 C 0.3228 0.71779 0.42606 0.0
C1071 C 0.25021 0.73582 0.41503 0.0
H1072 H 0.26724 0.80148 0.44717 0.0
C1073 C 0.17188 0.82395 0.42361 0.0
C1074 C 0.18192 0.85089 0.42136 0.0
C1075 C 0.18996 0.80176 0.4255 0.0
C1076 C 0.26228 0.78337 0.43798 0.0
H1077 H 0.29397 0.64358 0.42626 0.0
H1078 H 0.26252 0.68216 0.42842 0.0
H1079 H 0.29899 0.76267 0.44794 0.0
H1080 H 0.2191 0.87543 0.41948 0.0
H1081 H 0.25056 0.83679 0.42283 0.0
H1082 H 0.21361 0.7565 0.40497 0.0
C1083 C 0.28436 0.68631 0.42742 0.0
C1084 C 0.2805 0.76112 0.4384 0.0
C1085 C 0.3025 0.6641 0.42647 0.0
C1086 C 0.21056 0.85509 0.4215 0.0
C1087 C 0.22865 0.83288 0.4234 0.0
C1088 C 0.232 0.75802 0.41463 0.0
C1089 C 0.29422 0.71345 0.42699 0.0
C1090 C 0.27471 0.73707 0.4269 0.0
C1091 C 0.21858 0.8059 0.42519 0.0
C1092 C 0.23781 0.7821 0.42606 0.0
H1093 H 0.36281 0.69967 0.4243 0.0
H1094 H 0.33114 0.73841 0.42553 0.0
H1095 H 0.2453 0.71787 0.40565 0.0
H1096 H 0.14999 0.81998 0.42393 0.0
H1097 H 0.18148 0.78131 0.42723 0.0
C1098 C 0.85212 0.30193 0.41898 0.0
C1099 C 0.84897 0.33019 0.42295 0.0
C1100 C 0.8296 0.28402 0.42041 0.0
C1101 C 0.76167 0.27706 0.44528 0.0
H1102 H 0.74536 0.22522 0.40041 0.0
C1103 C 0.65646 0.22473 0.44022 0.0
C1104 C 0.65447 0.19722 0.43369 0.0
C1105 C 0.68124 0.23903 0.43882 0.0
C1106 C 0.74982 0.23924 0.41326 0.0
H1107 H 0.81981 0.36163 0.43185 0.0
H1108 H 0.78063 0.33043 0.4346 0.0
H1109 H 0.78686 0.25363 0.39851 0.0
H1110 H 0.6769 0.16338 0.41995 0.0
H1111 H 0.72081 0.18831 0.41781 0.0
H1112 H 0.72507 0.26274 0.46022 0.0
C1113 C 0.80049 0.32211 0.43031 0.0
C1114 C 0.77358 0.25558 0.41213 0.0
C1115 C 0.82287 0.34004 0.42859 0.0
C1116 C 0.67787 0.18452 0.42517 0.0
C1117 C 0.70295 0.19887 0.42391 0.0
C1118 C 0.73817 0.26061 0.44652 0.0
C1119 C 0.80354 0.2939 0.42618 0.0
C1120 C 0.77948 0.27505 0.42794 0.0
C1121 C 0.70501 0.22627 0.43098 0.0
C1122 C 0.73152 0.24188 0.43032 0.0
H1123 H 0.87189 0.29375 0.41437 0.0
H1124 H 0.83264 0.26239 0.41723 0.0
H1125 H 0.76591 0.29144 0.45794 0.0
H1126 H 0.63866 0.23547 0.44622 0.0
H1127 H 0.68162 0.26032 0.44375 0.0
C1128 C 0.18172 0.67605 0.93574 0.0
C1129 C 0.17204 0.66094 0.91834 0.0
C1130 C 0.19909 0.69852 0.9329 0.0
C1131 C 0.24615 0.73175 0.89437 0.0
H1132 H 0.24057 0.79183 0.93433 0.0
C1133 C 0.30902 0.83547 0.89296 0.0
C1134 C 0.32371 0.8398 0.91188 0.0
C1135 C 0.28993 0.81393 0.89137 0.0
C1136 C 0.24228 0.77523 0.92303 0.0
H1137 H 0.17313 0.65743 0.88426 0.0
H1138 H 0.20304 0.69746 0.8791 0.0
H1139 H 0.20729 0.75453 0.93556 0.0
H1140 H 0.32972 0.82521 0.94395 0.0
H1141 H 0.29607 0.78816 0.9413 0.0
H1142 H 0.28109 0.75323 0.88171 0.0
C1143 C 0.19753 0.69159 0.89504 0.0
C1144 C 0.22337 0.75369 0.9238 0.0
C1145 C 0.18032 0.66874 0.89794 0.0
C1146 C 0.31902 0.82217 0.9291 0.0
C1147 C 0.29963 0.80111 0.92764 0.0
C1148 C 0.26485 0.75367 0.89337 0.0
C1149 C 0.20705 0.70688 0.91253 0.0
C1150 C 0.22548 0.73121 0.90991 0.0
C1151 C 0.28481 0.79687 0.90884 0.0
C1152 C 0.26343 0.77522 0.90805 0.0
H1153 H 0.17634 0.67014 0.95169 0.0
H1154 H 0.20663 0.70907 0.94683 0.0
H1155 H 0.24859 0.7148 0.88349 0.0
H1156 H 0.31231 0.84876 0.87948 0.0
H1157 H 0.27866 0.81105 0.87672 0.0
C1158 C 0.6507 0.28777 0.9443 0.0
C1159 C 0.64917 0.31532 0.93777 0.0
C1160 C 0.67497 0.27282 0.94217 0.0
C1161 C 0.74242 0.27146 0.91467 0.0
H1162 H 0.75906 0.21781 0.95826 0.0
C1163 C 0.84414 0.20795 0.91826 0.0
C1164 C 0.84081 0.17957 0.92162 0.0
C1165 C 0.82178 0.2259 0.92018 0.0
C1166 C 0.75464 0.2326 0.94591 0.0
H1167 H 0.67184 0.34861 0.92338 0.0
H1168 H 0.7149 0.32262 0.92006 0.0
H1169 H 0.71893 0.24716 0.96184 0.0
H1170 H 0.81149 0.14789 0.92987 0.0
H1171 H 0.77255 0.17921 0.93354 0.0
H1172 H 0.77869 0.25693 0.899 0.0
C1173 C 0.69707 0.31248 0.92665 0.0
C1174 C 0.73152 0.24941 0.94788 0.0
C1175 C 0.67249 0.32744 0.9286 0.0
C1176 C 0.81467 0.1696 0.92709 0.0
C1177 C 0.79244 0.18757 0.92932 0.0
C1178 C 0.76582 0.2548 0.91283 0.0
C1179 C 0.69869 0.28499 0.93362 0.0
C1180 C 0.72471 0.26872 0.9321 0.0
C1181 C 0.7957 0.21592 0.92585 0.0
C1182 C 0.7719 0.23486 0.92826 0.0
H1183 H 0.63289 0.27752 0.95082 0.0
H1184 H 0.67496 0.25151 0.94706 0.0
H1185 H 0.7378 0.28588 0.90211 0.0
H1186 H 0.86396 0.21622 0.9138 0.0
H1187 H 0.82496 0.24764 0.91749 0.0
C1188 C 0.80435 0.15766 0.61533 0.0
C1189 C 0.83279 0.163 0.61618 0.0
C1190 C 0.78542 0.17919 0.61375 0.0
C1191 C 0.77847 0.25387 0.62335 0.0
H1192 H 0.71449 0.24744 0.58686 0.0
C1193 C 0.69328 0.32963 0.58273 0.0
C1194 C 0.68758 0.34702 0.59989 0.0
C1195 C 0.70833 0.30546 0.58566 0.0
C1196 C 0.73227 0.2496 0.5971 0.0
H1197 H 0.86349 0.19527 0.61553 0.0
H1198 H 0.83053 0.23279 0.61269 0.0
H1199 H 0.74696 0.2094 0.58939 0.0
H1200 H 0.69235 0.35194 0.63378 0.0
H1201 H 0.7181 0.30949 0.63897 0.0
H1202 H 0.76427 0.29432 0.6306 0.0
C1203 C 0.82284 0.21194 0.61363 0.0
C1204 C 0.75078 0.22768 0.5987 0.0
C1205 C 0.84178 0.19042 0.61521 0.0
C1206 C 0.69614 0.33896 0.62023 0.0
C1207 C 0.71126 0.31479 0.62316 0.0
C1208 C 0.75996 0.27575 0.62178 0.0
C1209 C 0.79441 0.20663 0.613 0.0
C1210 C 0.77425 0.22963 0.6117 0.0
C1211 C 0.7181 0.29806 0.60583 0.0
C1212 C 0.73673 0.27399 0.60851 0.0
H1213 H 0.79659 0.13688 0.61643 0.0
H1214 H 0.76367 0.17435 0.6136 0.0
H1215 H 0.79611 0.25596 0.63375 0.0
H1216 H 0.68677 0.33516 0.5669 0.0
H1217 H 0.71332 0.29322 0.57192 0.0
C1218 C 0.3408 0.83288 0.60268 0.0
C1219 C 0.36419 0.82048 0.59393 0.0
C1220 C 0.31616 0.81804 0.60468 0.0
C1221 C 0.28168 0.75428 0.58484 0.0
H1222 H 0.23522 0.7631 0.63398 0.0
C1223 C 0.19893 0.67502 0.60822 0.0
C1224 C 0.17285 0.68529 0.61341 0.0
C1225 C 0.22118 0.69287 0.60542 0.0
C1226 C 0.2479 0.76061 0.62008 0.0
H1227 H 0.38044 0.78237 0.58147 0.0
H1228 H 0.33822 0.75658 0.58529 0.0
H1229 H 0.27595 0.7921 0.62995 0.0
H1230 H 0.14978 0.72226 0.62023 0.0
H1231 H 0.1888 0.75347 0.61558 0.0
H1232 H 0.2541 0.72221 0.57535 0.0
C1233 C 0.33825 0.778 0.58985 0.0
C1234 C 0.27119 0.7773 0.61771 0.0
C1235 C 0.3626 0.79284 0.58767 0.0
C1236 C 0.16956 0.71379 0.61598 0.0
C1237 C 0.19193 0.73162 0.61351 0.0
C1238 C 0.25867 0.73742 0.58736 0.0
C1239 C 0.31455 0.79038 0.59818 0.0
C1240 C 0.28862 0.77411 0.60017 0.0
C1241 C 0.21794 0.72135 0.60808 0.0
C1242 C 0.24168 0.74018 0.6051 0.0
H1243 H 0.34149 0.85413 0.60768 0.0
H1244 H 0.29832 0.82834 0.61106 0.0
H1245 H 0.2941 0.75166 0.57083 0.0
H1246 H 0.20203 0.6532 0.60605 0.0
H1247 H 0.24105 0.68436 0.6014 0.0
C1248 C 0.59017 0.03298 0.04965 0.0
C1249 C 0.58638 0.03599 0.07155 0.0
C1250 C 0.56842 0.02523 0.03647 0.0
C1251 C 0.50292 0.98776 0.03699 0.0
H1252 H 0.49364 0.01925 0.98104 0.0
C1253 C 0.41081 0.95983 0.98322 0.0
C1254 C 0.41461 0.95821 0.96122 0.0
C1255 C 0.43185 0.96903 0.99654 0.0
C1256 C 0.49617 0.00992 0.99647 0.0
H1257 H 0.55655 0.03368 0.09678 0.0
H1258 H 0.51818 0.01991 0.07361 0.0
H1259 H 0.52861 0.03772 1.0049 0.0
H1260 H 0.44392 0.9646 0.93602 0.0
H1261 H 0.48112 0.9803 0.9594 0.0
H1262 H 0.47083 0.9597 0.02852 0.0
C1263 C 0.53818 0.02359 0.0667 0.0
C1264 C 0.51614 0.02065 1.01023 0.0
C1265 C 0.56003 0.03172 0.07995 0.0
C1266 C 0.44036 0.96546 0.95289 0.0
C1267 C 0.46156 0.97474 0.9663 0.0
C1268 C 0.48305 0.97694 0.0232 0.0
C1269 C 0.54223 0.01999 0.0448 0.0
C1270 C 0.51982 0.00968 0.03065 0.0
C1271 C 0.45748 0.97688 0.98831 0.0
C1272 C 0.47937 0.98786 1.00273 0.0
H1273 H 0.61023 0.03615 0.04266 0.0
H1274 H 0.57243 0.0224 0.01978 0.0
H1275 H 0.50552 0.97847 0.05243 0.0
H1276 H 0.39125 0.95449 0.99024 0.0
H1277 H 0.42767 0.97073 1.01328 0.0
C1278 C 0.474 0.56199 0.08357 0.0
C1279 C 0.45908 0.58464 0.07587 0.0
C1280 C 0.48562 0.54296 0.06951 0.0
C1281 C 0.5079 0.53694 1.01336 0.0
H1282 H 0.50977 0.459 0.0254 0.0
C1283 C 0.53874 0.45371 0.95133 0.0
C1284 C 0.55149 0.4298 0.95898 0.0
C1285 C 0.5301 0.47423 0.96546 0.0
C1286 C 0.50987 0.48076 0.02188 0.0
H1287 H 0.44361 0.60423 0.0474 0.0
H1288 H 0.46316 0.57096 0.02313 0.0
H1289 H 0.48839 0.49015 0.05048 0.0
H1290 H 0.56669 0.40927 0.98702 0.0
H1291 H 0.55301 0.44535 1.01143 0.0
H1292 H 0.52927 0.52748 0.98468 0.0
C1293 C 0.4666 0.56816 0.03992 0.0
C1294 C 0.4975 0.49866 0.03632 0.0
C1295 C 0.45511 0.58713 0.0539 0.0
C1296 C 0.55715 0.42765 0.9807 0.0
C1297 C 0.54884 0.44814 0.99473 0.0
C1298 C 0.52032 0.51903 0.99891 0.0
C1299 C 0.48254 0.54613 0.04745 0.0
C1300 C 0.49621 0.527 0.03224 0.0
C1301 C 0.53414 0.47118 0.98747 0.0
C1302 C 0.52149 0.49065 1.00296 0.0
H1303 H 0.47771 0.55962 0.10037 0.0
H1304 H 0.49788 0.52634 0.07592 0.0
H1305 H 0.50775 0.5587 1.0098 0.0
H1306 H 0.53349 0.45553 0.93472 0.0
H1307 H 0.51875 0.49159 0.95925 0.0
C1308 C 0.91498 0.44909 0.05335 0.0
C1309 C 0.91831 0.4525 0.0753 0.0
C1310 C 0.93456 0.4592 0.03924 0.0
C1311 C 0.98962 0.51144 0.03545 0.0
H1312 H 0.00787 0.47302 0.9837 0.0
C1313 C 0.08099 0.54218 0.98293 0.0
C1314 C 0.07843 0.54029 0.96084 0.0
C1315 C 0.05998 0.53313 0.99615 0.0
C1316 C 1.00266 0.48421 0.99791 0.0
H1317 H 0.9454 0.46851 0.09964 0.0
H1318 H 0.97998 0.48579 0.07498 0.0
H1319 H 0.97609 0.45213 1.00877 0.0
H1320 H 0.05148 0.52797 0.93521 0.0
H1321 H 0.01437 0.51193 0.95847 0.0
H1322 H 0.01646 0.54336 0.02469 0.0
C1323 C 0.96192 0.47561 0.06867 0.0
C1324 C 0.98451 0.47219 1.01236 0.0
C1325 C 0.94227 0.46541 0.08285 0.0
C1326 C 0.05389 0.52991 0.95218 0.0
C1327 C 0.03283 0.52047 0.9655 0.0
C1328 C 0.00782 0.52341 0.02104 0.0
C1329 C 0.95807 0.47305 0.04665 0.0
C1330 C 0.97784 0.48557 0.03139 0.0
C1331 C 0.03582 0.52167 0.98768 0.0
C1332 C 0.01472 0.50988 1.00214 0.0
H1333 H 0.89675 0.43928 0.04696 0.0
H1334 H 0.93069 0.45704 0.02245 0.0
H1335 H 0.98453 0.52267 0.04966 0.0
H1336 H 0.09967 0.55008 0.9901 0.0
H1337 H 0.06318 0.53411 1.01309 0.0
C1338 C 0.96513 0.06059 0.95564 0.0
C1339 C 0.95076 0.08278 0.96449 0.0
C1340 C 0.97673 0.04026 0.96867 0.0
C1341 C 0.97513 0.01148 0.0234 0.0
H1342 H 0.04921 0.98773 1.0105 0.0
C1343 C 0.03821 0.9443 0.08185 0.0
C1344 C 0.05267 0.92222 0.0729 0.0
C1345 C 0.02666 0.96475 0.06891 0.0
C1346 C 0.02843 0.99394 1.01427 0.0
H1347 H 0.93635 0.10034 0.99391 0.0
H1348 H 0.95631 0.06509 1.01647 0.0
H1349 H 0.02573 0.01967 0.98684 0.0
H1350 H 0.06725 0.90502 0.0434 0.0
H1351 H 0.04733 0.94044 0.02102 0.0
H1352 H 0.97781 0.98572 0.05081 0.0
C1353 C 0.95865 0.06318 0.99951 0.0
C1354 C 0.0149 0.01221 1.00062 0.0
C1355 C 0.94724 0.08351 0.98654 0.0
C1356 C 0.05629 0.92174 0.05086 0.0
C1357 C 0.04492 0.94218 0.03798 0.0
C1358 C 0.98866 0.9932 0.03704 0.0
C1359 C 0.97403 0.04156 0.99083 0.0
C1360 C 0.98805 0.02124 1.00498 0.0
C1361 C 0.02947 0.9637 0.04675 0.0
C1362 C 0.0155 0.98414 0.03267 0.0
H1363 H 0.96838 0.05947 0.93873 0.0
H1364 H 0.98813 0.02372 0.96139 0.0
H1365 H 0.95435 0.0177 0.02716 0.0
H1366 H 0.03488 0.94521 0.09876 0.0
H1367 H 0.01522 0.98121 0.07626 0.0
C1368 C 0.95329 0.04162 0.58193 0.0
C1369 C 0.931 0.0568 0.57388 0.0
C1370 C 0.97309 0.0307 0.56824 0.0
C1371 C 1.00015 0.03541 0.51323 0.0
H1372 H 0.02264 0.96014 0.52315 0.0
C1373 C 0.06393 0.97495 0.45166 0.0
C1374 C 0.08622 0.95986 0.45982 0.0
C1375 C 0.04404 0.9859 0.46527 0.0
C1376 C 0.01676 0.98125 0.52021 0.0
H1377 H 0.9128 0.0735 0.54526 0.0
H1378 H 0.94714 0.0547 0.52157 0.0
H1379 H 0.99202 0.98267 0.54812 0.0
H1380 H 0.10434 0.94338 0.48854 0.0
H1381 H 0.06986 0.96221 0.51208 0.0
H1382 H 0.02489 0.03399 0.48532 0.0
C1383 C 0.94951 0.05118 0.53839 0.0
C1384 C 0.99928 0.99423 0.53461 0.0
C1385 C 0.92971 0.06192 0.55201 0.0
C1386 C 0.08744 0.95489 0.48171 0.0
C1387 C 0.06755 0.96564 0.49524 0.0
C1388 C 0.01763 0.02243 0.49883 0.0
C1389 C 0.97115 0.03492 0.54623 0.0
C1390 C 0.99072 0.0215 0.53133 0.0
C1391 C 0.04589 0.98178 0.4873 0.0
C1392 C 0.02621 0.99517 0.50213 0.0
H1393 H 0.95482 0.03718 0.59868 0.0
H1394 H 0.9897 0.0186 0.57487 0.0
H1395 H 0.99427 0.05652 0.51029 0.0
H1396 H 0.06247 0.97929 0.43489 0.0
H1397 H 0.02743 0.99793 0.45857 0.0
C1398 C 0.54148 0.06273 0.44905 0.0
C1399 C 0.55043 0.08845 0.45635 0.0
C1400 C 0.53215 0.0428 0.46346 0.0
C1401 C 0.50307 0.03861 0.51775 0.0
H1402 H 0.51324 0.9603 0.51092 0.0
C1403 C 0.47279 0.95734 0.58166 0.0
C1404 C 0.46363 0.93173 0.57426 0.0
C1405 C 0.48159 0.97755 0.56728 0.0
C1406 C 0.50986 0.98211 0.51294 0.0
H1407 H 0.55827 0.11298 0.48424 0.0
H1408 H 0.54329 0.07812 0.50927 0.0
H1409 H 0.53428 0.99185 0.48581 0.0
H1410 H 0.45477 0.90774 0.54626 0.0
H1411 H 0.46894 0.94306 0.52133 0.0
H1412 H 0.47873 0.02884 0.54494 0.0
C1413 C 0.54254 0.07339 0.49255 0.0
C1414 C 0.52202 1.00022 0.49851 0.0
C1415 C 0.55154 0.09325 0.47822 0.0
C1416 C 0.46164 0.92739 0.55237 0.0
C1417 C 0.47018 0.94749 0.53808 0.0
C1418 C 0.49095 0.02049 0.5322 0.0
C1419 C 0.53173 0.04828 0.48538 0.0
C1420 C 0.51886 0.02875 0.50072 0.0
C1421 C 0.48133 0.97242 0.54531 0.0
C1422 C 0.4941 0.99198 0.52997 0.0
H1423 H 0.53983 0.05876 0.43225 0.0
H1424 H 0.52388 0.02374 0.45733 0.0
H1425 H 0.49967 0.06042 0.51977 0.0
H1426 H 0.47511 0.96095 0.59847 0.0
H1427 H 0.49011 0.99649 0.57343 0.0
C1428 C 0.42289 0.55949 0.49007 0.0
C1429 C 0.42421 0.55556 0.46807 0.0
C1430 C 0.44231 0.54753 0.50361 0.0
C1431 C 0.49199 0.48992 0.5063 0.0
H1432 H 0.51777 0.52726 0.55677 0.0
C1433 C 0.58435 0.45217 0.5561 0.0
C1434 C 0.58466 0.45645 0.57805 0.0
C1435 C 0.56256 0.46163 0.54361 0.0
C1436 C 0.51041 0.51631 0.54296 0.0
H1437 H 0.44762 0.53649 0.44301 0.0
H1438 H 0.48193 0.51588 0.46666 0.0
H1439 H 0.4865 0.55071 0.53255 0.0
H1440 H 0.56192 0.47329 0.60432 0.0
H1441 H 0.52335 0.48977 0.58247 0.0
H1442 H 0.51617 0.45562 0.51662 0.0
C1443 C 0.46556 0.528 0.47347 0.0
C1444 C 0.49254 0.52984 0.52896 0.0
C1445 C 0.4461 0.54011 0.45986 0.0
C1446 C 0.56194 0.46921 0.58749 0.0
C1447 C 0.54012 0.47904 0.5749 0.0
C1448 C 0.50989 0.4764 0.52029 0.0
C1449 C 0.46366 0.53119 0.49559 0.0
C1450 C 0.48316 0.51691 0.51035 0.0
C1451 C 0.54053 0.476 0.5527 0.0
C1452 C 0.51951 0.48945 0.53876 0.0
H1453 H 0.40627 0.57119 0.49698 0.0
H1454 H 0.4399 0.55029 0.52049 0.0
H1455 H 0.4848 0.47903 0.49241 0.0
H1456 H 0.60179 0.44271 0.54839 0.0
H1457 H 0.56387 0.45911 0.52664 0.0
C1458 C 0.06579 0.58928 0.54994 0.0
C1459 C 0.06243 0.58883 0.57201 0.0
C1460 C 0.0543 0.56877 0.53721 0.0
C1461 C 0.99821 0.51741 0.53684 0.0
H1462 H 0.03478 0.49105 0.48645 0.0
C1463 C 0.95683 0.42652 0.487 0.0
C1464 C 0.96001 0.42724 0.46492 0.0
C1465 C 0.96824 0.447 0.49981 0.0
C1466 C 0.02409 0.49848 0.50029 0.0
H1467 H 0.04503 0.5658 0.59806 0.0
H1468 H 0.02515 0.52969 0.57582 0.0
H1469 H 0.05839 0.52322 0.50982 0.0
H1470 H 0.97699 0.45072 0.43893 0.0
H1471 H 0.99677 0.48672 0.46132 0.0
H1472 H 0.96392 0.49261 0.52732 0.0
C1473 C 0.03647 0.54618 0.56834 0.0
C1474 C 0.03769 0.51689 0.51377 0.0
C1475 C 0.04814 0.56671 0.58113 0.0
C1476 C 0.97403 0.44959 0.45587 0.0
C1477 C 0.98564 0.47006 0.46874 0.0
C1478 C 0.98461 0.49898 0.52337 0.0
C1479 C 0.03901 0.5472 0.54615 0.0
C1480 C 0.02494 0.52665 0.53224 0.0
C1481 C 0.98329 0.46877 0.49093 0.0
C1482 C 0.99735 0.48926 0.50489 0.0
H1483 H 0.07661 0.60603 0.54236 0.0
H1484 H 0.0565 0.57048 0.52023 0.0
H1485 H 0.9875 0.52484 0.55067 0.0
H1486 H 0.94621 0.40959 0.49452 0.0
H1487 H 0.96617 0.44511 0.51679 0.0
C1488 C 0.58496 0.10735 0.34399 0.0
C1489 C 0.60145 0.12883 0.3517 0.0
C1490 C 0.5889 0.09712 0.3235 0.0
C1491 C 0.61902 0.12073 0.27239 0.0
H1492 H 0.59605 0.04886 0.25279 0.0
C1493 C 0.63236 0.08481 0.18575 0.0
C1494 C 0.6091 0.07299 0.17605 0.0
C1495 C 0.63274 0.09009 0.2075 0.0
C1496 C 0.60243 0.06906 0.25806 0.0
H1497 H 0.63626 0.15492 0.34488 0.0
H1498 H 0.64468 0.13572 0.30996 0.0
H1499 H 0.59682 0.0587 0.29068 0.0
H1500 H 0.56809 0.05719 0.18174 0.0
H1501 H 0.56896 0.06608 0.21986 0.0
H1502 H 0.62507 0.13082 0.23976 0.0
C1503 C 0.62782 0.12752 0.31912 0.0
C1504 C 0.60283 0.07477 0.27981 0.0
C1505 C 0.62343 0.13817 0.33936 0.0
C1506 C 0.58626 0.06649 0.18868 0.0
C1507 C 0.58683 0.07134 0.21053 0.0
C1508 C 0.61905 0.11486 0.25075 0.0
C1509 C 0.60971 0.1079 0.3104 0.0
C1510 C 0.61097 0.10079 0.28733 0.0
C1511 C 0.61007 0.08326 0.22017 0.0
C1512 C 0.61055 0.08906 0.2433 0.0
H1513 H 0.56746 0.10023 0.35301 0.0
H1514 H 0.57436 0.08217 0.3175 0.0
H1515 H 0.62465 0.14128 0.27726 0.0
H1516 H 0.65032 0.09006 0.17651 0.0
H1517 H 0.65098 0.09918 0.21448 0.0
C1518 C 0.40843 0.57528 0.35331 0.0
C1519 C 0.38927 0.55396 0.35608 0.0
C1520 C 0.41774 0.58229 0.33303 0.0
C1521 C 0.41935 0.55658 0.27695 0.0
H1522 H 0.4352 0.63285 0.26435 0.0
C1523 C 0.4361 0.59911 0.19151 0.0
C1524 C 0.45879 0.61673 0.18897 0.0
C1525 C 0.428 0.59052 0.21177 0.0
C1526 C 0.43099 0.61142 0.26766 0.0
H1527 H 0.36479 0.52344 0.33953 0.0
H1528 H 0.38012 0.53615 0.30446 0.0
H1529 H 0.42075 0.61995 0.29983 0.0
H1530 H 0.4908 0.63894 0.20588 0.0
H1531 H 0.47645 0.62432 0.24092 0.0
H1532 H 0.42892 0.54839 0.24446 0.0
C1533 C 0.38874 0.54704 0.31785 0.0
C1534 C 0.42286 0.60395 0.28809 0.0
C1535 C 0.37975 0.53982 0.33809 0.0
C1536 C 0.47324 0.62535 0.20714 0.0
C1537 C 0.46492 0.61712 0.22731 0.0
C1538 C 0.42711 0.56416 0.25643 0.0
C1539 C 0.40786 0.56841 0.31493 0.0
C1540 C 0.41696 0.57638 0.29312 0.0
C1541 C 0.44214 0.59973 0.22991 0.0
C1542 C 0.43314 0.59165 0.25156 0.0
H1543 H 0.41626 0.58654 0.36682 0.0
H1544 H 0.43282 0.59854 0.3316 0.0
H1545 H 0.41557 0.53508 0.28015 0.0
H1546 H 0.42449 0.59211 0.17789 0.0
H1547 H 0.41028 0.57718 0.21328 0.0
C1548 C 0.88245 0.47201 0.206 0.0
C1549 C 0.89046 0.45738 0.1879 0.0
C1550 C 0.8921 0.46453 0.22603 0.0
C1551 C 0.92444 0.4062 0.25516 0.0
H1552 H 0.93507 0.46148 0.29857 0.0
C1553 C 0.97521 0.38255 0.33593 0.0
C1554 C 0.96118 0.39173 0.35399 0.0
C1555 C 0.96721 0.39118 0.31575 0.0
C1556 C 0.932 0.44582 0.28664 0.0
H1557 H 0.91552 0.42372 0.17666 0.0
H1558 H 0.93329 0.41122 0.21155 0.0
H1559 H 0.92147 0.47542 0.26299 0.0
H1560 H 0.92804 0.41775 0.36496 0.0
H1561 H 0.91442 0.43337 0.32954 0.0
H1562 H 0.93576 0.37673 0.27885 0.0
C1563 C 0.91886 0.42807 0.21036 0.0
C1564 C 0.9241 0.45375 0.26621 0.0
C1565 C 0.90887 0.43536 0.19028 0.0
C1566 C 0.93928 0.4103 0.35138 0.0
C1567 C 0.93154 0.41929 0.33113 0.0
C1568 C 0.93274 0.39835 0.2755 0.0
C1569 C 0.9104 0.4424 0.22858 0.0
C1570 C 0.91999 0.43404 0.25017 0.0
C1571 C 0.94523 0.40953 0.31309 0.0
C1572 C 0.93647 0.41804 0.29149 0.0
H1573 H 0.8681 0.48895 0.20482 0.0
H1574 H 0.88458 0.47577 0.23957 0.0
H1575 H 0.921 0.39031 0.24349 0.0
H1576 H 0.99214 0.3682 0.3373 0.0
H1577 H 0.97832 0.38353 0.30217 0.0
C1578 C 0.10236 0.93812 0.34616 0.0
C1579 C 0.12095 0.96013 0.34816 0.0
C1580 C 0.09301 0.92976 0.32614 0.0
C1581 C 0.11265 0.92999 0.27011 0.0
H1582 H 0.03532 0.91708 0.25887 0.0
C1583 C 0.07331 0.90548 0.18557 0.0
C1584 C 0.05136 0.88688 0.18347 0.0
C1585 C 0.08117 0.91534 0.20554 0.0
C1586 C 0.05707 0.92016 0.26174 0.0
H1587 H 0.14414 0.99062 0.33061 0.0
H1588 H 0.12815 0.97579 0.29591 0.0
H1589 H 0.0501 0.93143 0.29407 0.0
H1590 H 0.02053 0.86399 0.20084 0.0
H1591 H 0.03468 0.8803 0.23545 0.0
H1592 H 0.11992 0.91804 0.23811 0.0
C1593 C 0.12078 0.96503 0.30977 0.0
C1594 C 0.06549 0.92849 0.28196 0.0
C1595 C 0.1298 0.97362 0.32972 0.0
C1596 C 0.0374 0.87849 0.2018 0.0
C1597 C 0.04545 0.88804 0.22174 0.0
C1598 C 0.10431 0.92129 0.24998 0.0
C1599 C 0.10238 0.94294 0.30772 0.0
C1600 C 0.09336 0.9336 0.28635 0.0
C1601 C 0.06749 0.90659 0.22397 0.0
C1602 C 0.07637 0.91628 0.24544 0.0
H1603 H 0.09515 0.92727 0.36002 0.0
H1604 H 0.07891 0.91258 0.32505 0.0
H1605 H 0.13434 0.93345 0.27308 0.0
H1606 H 0.08443 0.91247 0.17177 0.0
H1607 H 0.0979 0.92997 0.20646 0.0
C1608 C 0.37886 0.92289 0.84335 0.0
C1609 C 0.38418 0.95014 0.84942 0.0
C1610 C 0.38212 0.91473 0.82224 0.0
C1611 C 0.38643 0.94386 0.76764 0.0
H1612 H 0.41165 0.87074 0.7536 0.0
C1613 C 0.4189 0.90784 0.68302 0.0
C1614 C 0.4126 0.88053 0.67771 0.0
C1615 C 0.41257 0.91801 0.70322 0.0
C1616 C 0.40424 0.89116 0.75723 0.0
H1617 H 0.39832 0.98981 0.83826 0.0
H1618 H 0.40484 0.97545 0.80183 0.0
H1619 H 0.40828 0.88425 0.7905 0.0
H1620 H 0.39271 0.84331 0.68853 0.0
H1621 H 0.38112 0.86113 0.72331 0.0
H1622 H 0.38298 0.95077 0.73418 0.0
C1623 C 0.39731 0.96052 0.8131 0.0
C1624 C 0.40229 0.89892 0.77845 0.0
C1625 C 0.39383 0.9687 0.8341 0.0
C1626 C 0.39786 0.86444 0.69222 0.0
C1627 C 0.39152 0.87453 0.71224 0.0
C1628 C 0.38859 0.93613 0.74635 0.0
C1629 C 0.391 0.93356 0.80674 0.0
C1630 C 0.39328 0.92535 0.78401 0.0
C1631 C 0.39987 0.90099 0.71836 0.0
C1632 C 0.39736 0.90961 0.74089 0.0
H1633 H 0.37113 0.90815 0.85471 0.0
H1634 H 0.3768 0.89386 0.81798 0.0
H1635 H 0.37897 0.96426 0.77123 0.0
H1636 H 0.43066 0.92055 0.67228 0.0
H1637 H 0.41926 0.93851 0.70743 0.0
C1638 C 0.62064 0.42678 0.68927 0.0
C1639 C 0.64325 0.41281 0.68073 0.0
C1640 C 0.61324 0.42271 0.7105 0.0
C1641 C 0.64571 0.3995 0.76089 0.0
H1642 H 0.57171 0.40266 0.78317 0.0
C1643 C 0.61634 0.36133 0.84405 0.0
C1644 C 0.59639 0.37571 0.85553 0.0
C1645 C 0.62342 0.36956 0.82361 0.0
C1646 C 0.59255 0.40217 0.77721 0.0
H1647 H 0.67461 0.3824 0.68702 0.0
H1648 H 0.66089 0.37408 0.72344 0.0
H1649 H 0.57903 0.40701 0.74508 0.0
H1650 H 0.56853 0.41031 0.85491 0.0
H1651 H 0.58088 0.42485 0.81896 0.0
H1652 H 0.65915 0.39395 0.79292 0.0
C1653 C 0.64939 0.38893 0.71422 0.0
C1654 C 0.59674 0.40457 0.75534 0.0
C1655 C 0.65697 0.39329 0.69321 0.0
C1656 C 0.58453 0.39933 0.84658 0.0
C1657 C 0.59125 0.40733 0.8259 0.0
C1658 C 0.64149 0.3969 0.78266 0.0
C1659 C 0.62826 0.40448 0.7235 0.0
C1660 C 0.62338 0.40281 0.74683 0.0
C1661 C 0.61023 0.39205 0.81397 0.0
C1662 C 0.61485 0.39785 0.79109 0.0
H1663 H 0.61014 0.44243 0.68011 0.0
H1664 H 0.59689 0.43511 0.71703 0.0
H1665 H 0.66662 0.39891 0.75511 0.0
H1666 H 0.62528 0.34268 0.85043 0.0
H1667 H 0.63791 0.35718 0.81485 0.0
C1668 C 0.07877 0.60874 0.68602 0.0
C1669 C 0.057 0.62712 0.68239 0.0
C1670 C 0.08541 0.60031 0.70664 0.0
C1671 C 0.05808 0.59911 0.76204 0.0
H1672 H 0.13458 0.58624 0.77628 0.0
C1673 C 0.09877 0.5801 0.84816 0.0
C1674 C 0.11616 0.55718 0.85021 0.0
C1675 C 0.09082 0.58956 0.82803 0.0
C1676 C 0.11311 0.58972 0.77252 0.0
H1677 H 0.02517 0.65105 0.69768 0.0
H1678 H 0.03721 0.63717 0.73337 0.0
H1679 H 0.12225 0.60033 0.74052 0.0
H1680 H 0.13888 0.5264 0.83262 0.0
H1681 H 0.12543 0.54311 0.79794 0.0
H1682 H 0.04924 0.58895 0.79436 0.0
C1683 C 0.04878 0.62856 0.7204 0.0
C1684 C 0.10596 0.59759 0.75194 0.0
C1685 C 0.04195 0.63669 0.69982 0.0
C1686 C 0.12542 0.54407 0.83174 0.0
C1687 C 0.11787 0.55374 0.81178 0.0
C1688 C 0.06531 0.59159 0.78273 0.0
C1689 C 0.07068 0.61032 0.72418 0.0
C1690 C 0.0783 0.60216 0.74629 0.0
C1691 C 0.10054 0.57659 0.80963 0.0
C1692 C 0.09287 0.58652 0.78813 0.0
H1693 H 0.09072 0.60089 0.67295 0.0
H1694 H 0.10207 0.58582 0.70877 0.0
H1695 H 0.03652 0.60199 0.75834 0.0
H1696 H 0.09129 0.59064 0.86205 0.0
H1697 H 0.07746 0.60729 0.82682 0.0
C1698 C 0.9707 0.12728 0.83596 0.0
C1699 C 0.95574 0.11814 0.85362 0.0
C1700 C 0.96383 0.11845 0.8156 0.0
C1701 C 0.93033 0.06339 0.7857 0.0
H1702 H 0.92231 0.11845 0.74176 0.0
C1703 C 0.88652 0.03631 0.70322 0.0
C1704 C 0.89581 0.05083 0.6854 0.0
C1705 C 0.89471 0.04398 0.72359 0.0
C1706 C 0.92494 0.10268 0.75367 0.0
H1707 H 0.92212 0.09203 0.86367 0.0
H1708 H 0.91046 0.07608 0.82794 0.0
H1709 H 0.93473 0.1324 0.77753 0.0
H1710 H 0.92166 0.08448 0.67506 0.0
H1711 H 0.93686 0.09729 0.71056 0.0
H1712 H 0.92132 0.03354 0.76188 0.0
C1713 C 0.92743 0.09027 0.82999 0.0
C1714 C 0.93189 0.11075 0.77425 0.0
C1715 C 0.93405 0.09945 0.85042 0.0
C1716 C 0.91402 0.07292 0.68845 0.0
C1717 C 0.92254 0.0804 0.70887 0.0
C1718 C 0.92377 0.05525 0.76504 0.0
C1719 C 0.94206 0.09996 0.81234 0.0
C1720 C 0.93455 0.09122 0.79051 0.0
C1721 C 0.91278 0.0662 0.72679 0.0
C1722 C 0.9208 0.07478 0.74871 0.0
H1723 H 0.9875 0.14171 0.83777 0.0
H1724 H 0.97566 0.12605 0.80235 0.0
H1725 H 0.93259 0.04785 0.79784 0.0
H1726 H 0.87228 0.01933 0.70153 0.0
H1727 H 0.88624 0.03281 0.73686 0.0
loop_
_geom_bond_atom_site_label_1
_geom_bond_atom_site_label_2
_geom_bond_distance
_geom_bond_site_symmetry_2
_ccdc_geom_bond_type
C0 C1 1.351 . S
C0 N3 1.368 . S
C0 H5 0.931 . S
C1 C0 1.351 . S
C1 N2 1.373 . S
C1 H29 0.930 . S
N2 C1 1.373 . S
N2 C4 1.340 . S
N3 C0 1.368 . S
N3 C4 1.321 . S
N3 Co6 2.135 . S
C4 N2 1.340 . S
C4 N3 1.321 . S
C4 H28 0.930 . S
H5 C0 0.931 . S
Co6 N3 2.135 . S
Co6 N9 2.150 . S
Co6 O14 2.055 . S
Co6 O17 2.039 . S
Co6 N20 2.140 . S
C7 O8 1.227 . S
C7 O17 1.265 . S
O8 C7 1.227 . S
N9 Co6 2.150 . S
N9 C11 1.361 1_545 S
N9 C12 1.292 1_545 S
C10 C11 1.338 . S
C10 N13 1.377 . S
C10 H30 0.930 . S
C11 N9 1.361 1_565 S
C11 C10 1.338 . S
C11 H15 0.931 . S
C12 N9 1.292 1_565 S
C12 N13 1.344 . S
C12 H16 0.930 . S
N13 C10 1.377 . S
N13 C12 1.344 . S
O14 Co6 2.055 . S
O14 C18 1.253 . S
H15 C11 0.931 . S
H16 C12 0.930 . S
O17 Co6 2.039 . S
O17 C7 1.265 . S
C18 O14 1.253 . S
C18 O19 1.227 . S
O19 C18 1.227 . S
N20 Co6 2.140 . S
N20 C23 1.346 . S
N20 C24 1.322 1_545 S
C21 C22 1.387 . S
C21 C25 1.391 1_545 S
C22 C21 1.387 . S
C22 C23 1.369 . S
C22 H31 0.929 . S
C23 N20 1.346 . S
C23 C22 1.369 . S
C23 H26 0.928 . S
C24 N20 1.322 1_565 S
C24 C25 1.382 . S
C24 H27 0.945 . S
C25 C21 1.391 1_565 S
C25 C24 1.382 . S
C25 H32 0.930 . S
H26 C23 0.928 . S
H27 C24 0.945 . S
H28 C4 0.930 . S
H29 C1 0.930 . S
H30 C10 0.930 . S
H31 C22 0.929 . S
H32 C25 0.930 . S
C33 C34 1.351 . S
C33 N36 1.368 . S
C33 H38 0.931 . S
C34 C33 1.351 . S
C34 N35 1.373 . S
C34 H62 0.930 . S
N35 C34 1.373 . S
N35 C37 1.340 . S
N36 C33 1.368 . S
N36 C37 1.321 . S
N36 Co39 2.135 . S
C37 N35 1.340 . S
C37 N36 1.321 . S
C37 H61 0.930 . S
H38 C33 0.931 . S
Co39 N36 2.135 . S
Co39 N42 2.121 . S
Co39 O47 2.055 . S
Co39 O50 2.039 . S
Co39 N53 2.140 . S
C40 O41 1.227 . S
C40 O50 1.265 . S
O41 C40 1.227 . S
N42 Co39 2.121 . S
N42 C44 1.375 . S
N42 C45 1.313 . S
C43 C44 1.338 . S
C43 N46 1.377 . S
C43 H63 0.930 . S
C44 N42 1.375 . S
C44 C43 1.338 . S
C44 H48 0.931 . S
C45 N42 1.313 . S
C45 N46 1.344 . S
C45 H49 0.930 . S
N46 C43 1.377 . S
N46 C45 1.344 . S
O47 Co39 2.055 . S
O47 C51 1.253 . S
H48 C44 0.931 . S
H49 C45 0.930 . S
O50 Co39 2.039 . S
O50 C40 1.265 . S
C51 O47 1.253 . S
C51 O52 1.227 . S
O52 C51 1.227 . S
N53 Co39 2.140 . S
N53 C56 1.346 . S
N53 C57 1.345 . S
C54 C55 1.387 . S
C54 C58 1.391 . S
C55 C54 1.387 . S
C55 C56 1.369 . S
C55 H64 0.929 . S
C56 N53 1.346 . S
C56 C55 1.369 . S
C56 H59 0.928 . S
C57 N53 1.345 . S
C57 C58 1.371 . S
C57 H60 0.931 . S
C58 C54 1.391 . S
C58 C57 1.371 . S
C58 H65 0.930 . S
H59 C56 0.928 . S
H60 C57 0.931 . S
H61 C37 0.930 . S
H62 C34 0.930 . S
H63 C43 0.930 . S
H64 C55 0.929 . S
H65 C58 0.930 . S
C66 C67 1.351 . S
C66 N69 1.368 . S
C66 H71 0.931 . S
C67 C66 1.351 . S
C67 N68 1.373 . S
C67 H95 0.930 . S
N68 C67 1.373 . S
N68 C70 1.340 . S
N69 C66 1.368 . S
N69 C70 1.321 . S
N69 Co72 2.135 . S
C70 N68 1.340 . S
C70 N69 1.321 . S
C70 H94 0.930 . S
H71 C66 0.931 . S
Co72 N69 2.135 . S
Co72 N75 2.121 . S
Co72 O80 2.055 . S
Co72 O83 2.039 . S
Co72 N86 2.140 . S
C73 O74 1.227 . S
C73 O83 1.265 . S
O74 C73 1.227 . S
N75 Co72 2.121 . S
N75 C77 1.375 . S
N75 C78 1.313 . S
C76 C77 1.338 . S
C76 N79 1.377 . S
C76 H96 0.930 . S
C77 N75 1.375 . S
C77 C76 1.338 . S
C77 H81 0.931 . S
C78 N75 1.313 . S
C78 N79 1.344 . S
C78 H82 0.930 . S
N79 C76 1.377 . S
N79 C78 1.344 . S
O80 Co72 2.055 . S
O80 C84 1.253 . S
H81 C77 0.931 . S
H82 C78 0.930 . S
O83 Co72 2.039 . S
O83 C73 1.265 . S
C84 O80 1.253 . S
C84 O85 1.227 . S
O85 C84 1.227 . S
N86 Co72 2.140 . S
N86 C89 1.346 . S
N86 C90 1.345 . S
C87 C88 1.387 . S
C87 C91 1.391 . S
C88 C87 1.387 . S
C88 C89 1.369 . S
C88 H97 0.929 . S
C89 N86 1.346 . S
C89 C88 1.369 . S
C89 H92 0.928 . S
C90 N86 1.345 . S
C90 C91 1.371 . S
C90 H93 0.931 . S
C91 C87 1.391 . S
C91 C90 1.371 . S
C91 H98 0.930 . S
H92 C89 0.928 . S
H93 C90 0.931 . S
H94 C70 0.930 . S
H95 C67 0.930 . S
H96 C76 0.930 . S
H97 C88 0.929 . S
H98 C91 0.930 . S
C99 C100 1.351 . S
C99 N102 1.368 . S
C99 H104 0.931 . S
C100 C99 1.351 . S
C100 N101 1.373 . S
C100 H128 0.930 . S
N101 C100 1.373 . S
N101 C103 1.340 . S
N102 C99 1.368 . S
N102 C103 1.321 . S
N102 Co105 2.135 . S
C103 N101 1.340 . S
C103 N102 1.321 . S
C103 H127 0.930 . S
H104 C99 0.931 . S
Co105 N102 2.135 . S
Co105 N108 2.150 . S
Co105 O113 2.055 . S
Co105 O116 2.039 . S
Co105 N119 2.140 . S
C106 O107 1.227 . S
C106 O116 1.265 . S
O107 C106 1.227 . S
N108 Co105 2.150 . S
N108 C110 1.361 1_455 S
N108 C111 1.292 1_455 S
C109 C110 1.338 . S
C109 N112 1.377 . S
C109 H129 0.930 . S
C110 N108 1.361 1_655 S
C110 C109 1.338 . S
C110 H114 0.931 . S
C111 N108 1.292 1_655 S
C111 N112 1.344 . S
C111 H115 0.930 . S
N112 C109 1.377 . S
N112 C111 1.344 . S
O113 Co105 2.055 . S
O113 C117 1.253 . S
H114 C110 0.931 . S
H115 C111 0.930 . S
O116 Co105 2.039 . S
O116 C106 1.265 . S
C117 O113 1.253 . S
C117 O118 1.227 . S
O118 C117 1.227 . S
N119 Co105 2.140 . S
N119 C122 1.346 . S
N119 C123 1.322 1_455 S
C120 C121 1.387 . S
C120 C124 1.391 1_455 S
C121 C120 1.387 . S
C121 C122 1.369 . S
C121 H130 0.929 . S
C122 N119 1.346 . S
C122 C121 1.369 . S
C122 H125 0.928 . S
C123 N119 1.322 1_655 S
C123 C124 1.382 . S
C123 H126 0.945 . S
C124 C120 1.391 1_655 S
C124 C123 1.382 . S
C124 H131 0.930 . S
H125 C122 0.928 . S
H126 C123 0.945 . S
H127 C103 0.930 . S
H128 C100 0.930 . S
H129 C109 0.930 . S
H130 C121 0.929 . S
H131 C124 0.930 . S
C132 C133 1.351 . S
C132 N135 1.368 . S
C132 H137 0.931 . S
C133 C132 1.351 . S
C133 N134 1.373 . S
C133 H161 0.930 . S
N134 C133 1.373 . S
N134 C136 1.340 . S
N135 C132 1.368 . S
N135 C136 1.321 . S
N135 Co138 2.135 . S
C136 N134 1.340 . S
C136 N135 1.321 . S
C136 H160 0.930 . S
H137 C132 0.931 . S
Co138 N135 2.135 . S
Co138 N141 2.150 . S
Co138 O146 2.055 . S
Co138 O149 2.039 . S
Co138 N152 2.140 . S
C139 O140 1.227 . S
C139 O149 1.265 . S
O140 C139 1.227 . S
N141 Co138 2.150 . S
N141 C143 1.361 1_565 S
N141 C144 1.292 1_565 S
C142 C143 1.338 . S
C142 N145 1.377 . S
C142 H162 0.930 . S
C143 N141 1.361 1_545 S
C143 C142 1.338 . S
C143 H147 0.931 . S
C144 N141 1.292 1_545 S
C144 N145 1.344 . S
C144 H148 0.930 . S
N145 C142 1.377 . S
N145 C144 1.344 . S
O146 Co138 2.055 . S
O146 C150 1.253 . S
H147 C143 0.931 . S
H148 C144 0.930 . S
O149 Co138 2.039 . S
O149 C139 1.265 . S
C150 O146 1.253 . S
C150 O151 1.227 . S
O151 C150 1.227 . S
N152 Co138 2.140 . S
N152 C155 1.346 . S
N152 C156 1.322 1_565 S
C153 C154 1.387 . S
C153 C157 1.391 1_565 S
C154 C153 1.387 . S
C154 C155 1.369 . S
C154 H163 0.929 . S
C155 N152 1.346 . S
C155 C154 1.369 . S
C155 H158 0.928 . S
C156 N152 1.322 1_545 S
C156 C157 1.382 . S
C156 H159 0.945 . S
C157 C153 1.391 1_545 S
C157 C156 1.382 . S
C157 H164 0.930 . S
H158 C155 0.928 . S
H159 C156 0.945 . S
H160 C136 0.930 . S
H161 C133 0.930 . S
H162 C142 0.930 . S
H163 C154 0.929 . S
H164 C157 0.930 . S
C165 C166 1.351 . S
C165 N168 1.368 . S
C165 H170 0.931 . S
C166 C165 1.351 . S
C166 N167 1.373 . S
C166 H194 0.930 . S
N167 C166 1.373 . S
N167 C169 1.340 . S
N168 C165 1.368 . S
N168 C169 1.321 . S
N168 Co171 2.135 . S
C169 N167 1.340 . S
C169 N168 1.321 . S
C169 H193 0.930 . S
H170 C165 0.931 . S
Co171 N168 2.135 . S
Co171 N174 2.121 . S
Co171 O179 2.055 . S
Co171 O182 2.039 . S
Co171 N185 2.140 . S
C172 O173 1.227 . S
C172 O182 1.265 . S
O173 C172 1.227 . S
N174 Co171 2.121 . S
N174 C176 1.375 . S
N174 C177 1.313 . S
C175 C176 1.338 . S
C175 N178 1.377 . S
C175 H195 0.930 . S
C176 N174 1.375 . S
C176 C175 1.338 . S
C176 H180 0.931 . S
C177 N174 1.313 . S
C177 N178 1.344 . S
C177 H181 0.930 . S
N178 C175 1.377 . S
N178 C177 1.344 . S
O179 Co171 2.055 . S
O179 C183 1.253 . S
H180 C176 0.931 . S
H181 C177 0.930 . S
O182 Co171 2.039 . S
O182 C172 1.265 . S
C183 O179 1.253 . S
C183 O184 1.227 . S
O184 C183 1.227 . S
N185 Co171 2.140 . S
N185 C188 1.346 . S
N185 C189 1.345 . S
C186 C187 1.387 . S
C186 C190 1.391 . S
C187 C186 1.387 . S
C187 C188 1.369 . S
C187 H196 0.929 . S
C188 N185 1.346 . S
C188 C187 1.369 . S
C188 H191 0.928 . S
C189 N185 1.345 . S
C189 C190 1.371 . S
C189 H192 0.931 . S
C190 C186 1.391 . S
C190 C189 1.371 . S
C190 H197 0.930 . S
H191 C188 0.928 . S
H192 C189 0.931 . S
H193 C169 0.930 . S
H194 C166 0.930 . S
H195 C175 0.930 . S
H196 C187 0.929 . S
H197 C190 0.930 . S
C198 C199 1.351 . S
C198 N201 1.368 . S
C198 H203 0.931 . S
C199 C198 1.351 . S
C199 N200 1.373 . S
C199 H227 0.930 . S
N200 C199 1.373 . S
N200 C202 1.340 . S
N201 C198 1.368 . S
N201 C202 1.321 . S
N201 Co204 2.135 . S
C202 N200 1.340 . S
C202 N201 1.321 . S
C202 H226 0.930 . S
H203 C198 0.931 . S
Co204 N201 2.135 . S
Co204 N207 2.121 . S
Co204 O212 2.055 . S
Co204 O215 2.039 . S
Co204 N218 2.140 . S
C205 O206 1.227 . S
C205 O215 1.265 . S
O206 C205 1.227 . S
N207 Co204 2.121 . S
N207 C209 1.375 . S
N207 C210 1.313 . S
C208 C209 1.338 . S
C208 N211 1.377 . S
C208 H228 0.930 . S
C209 N207 1.375 . S
C209 C208 1.338 . S
C209 H213 0.931 . S
C210 N207 1.313 . S
C210 N211 1.344 . S
C210 H214 0.930 . S
N211 C208 1.377 . S
N211 C210 1.344 . S
O212 Co204 2.055 . S
O212 C216 1.253 . S
H213 C209 0.931 . S
H214 C210 0.930 . S
O215 Co204 2.039 . S
O215 C205 1.265 . S
C216 O212 1.253 . S
C216 O217 1.227 . S
O217 C216 1.227 . S
N218 Co204 2.140 . S
N218 C221 1.346 . S
N218 C222 1.345 . S
C219 C220 1.387 . S
C219 C223 1.391 . S
C220 C219 1.387 . S
C220 C221 1.369 . S
C220 H229 0.929 . S
C221 N218 1.346 . S
C221 C220 1.369 . S
C221 H224 0.928 . S
C222 N218 1.345 . S
C222 C223 1.371 . S
C222 H225 0.931 . S
C223 C219 1.391 . S
C223 C222 1.371 . S
C223 H230 0.930 . S
H224 C221 0.928 . S
H225 C222 0.931 . S
H226 C202 0.930 . S
H227 C199 0.930 . S
H228 C208 0.930 . S
H229 C220 0.929 . S
H230 C223 0.930 . S
C231 C232 1.351 . S
C231 N234 1.368 . S
C231 H236 0.931 . S
C232 C231 1.351 . S
C232 N233 1.373 . S
C232 H260 0.930 . S
N233 C232 1.373 . S
N233 C235 1.340 . S
N234 C231 1.368 . S
N234 C235 1.321 . S
N234 Co237 2.135 . S
C235 N233 1.340 . S
C235 N234 1.321 . S
C235 H259 0.930 . S
H236 C231 0.931 . S
Co237 N234 2.135 . S
Co237 N240 2.150 . S
Co237 O245 2.055 . S
Co237 O248 2.039 . S
Co237 N251 2.140 . S
C238 O239 1.227 . S
C238 O248 1.265 . S
O239 C238 1.227 . S
N240 Co237 2.150 . S
N240 C242 1.361 1_655 S
N240 C243 1.292 1_655 S
C241 C242 1.338 . S
C241 N244 1.377 . S
C241 H261 0.930 . S
C242 N240 1.361 1_455 S
C242 C241 1.338 . S
C242 H246 0.931 . S
C243 N240 1.292 1_455 S
C243 N244 1.344 . S
C243 H247 0.930 . S
N244 C241 1.377 . S
N244 C243 1.344 . S
O245 Co237 2.055 . S
O245 C249 1.253 . S
H246 C242 0.931 . S
H247 C243 0.930 . S
O248 Co237 2.039 . S
O248 C238 1.265 . S
C249 O245 1.253 . S
C249 O250 1.227 . S
O250 C249 1.227 . S
N251 Co237 2.140 . S
N251 C254 1.346 . S
N251 C255 1.322 1_655 S
C252 C253 1.387 . S
C252 C256 1.391 1_655 S
C253 C252 1.387 . S
C253 C254 1.369 . S
C253 H262 0.929 . S
C254 N251 1.346 . S
C254 C253 1.369 . S
C254 H257 0.928 . S
C255 N251 1.322 1_455 S
C255 C256 1.382 . S
C255 H258 0.945 . S
C256 C252 1.391 1_455 S
C256 C255 1.382 . S
C256 H263 0.930 . S
H257 C254 0.928 . S
H258 C255 0.945 . S
H259 C235 0.930 . S
H260 C232 0.930 . S
H261 C241 0.930 . S
H262 C253 0.929 . S
H263 C256 0.930 . S
C264 C265 1.351 . S
C264 N267 1.368 . S
C264 H269 0.931 . S
C265 C264 1.351 . S
C265 N266 1.373 . S
C265 H293 0.930 . S
N266 C265 1.373 . S
N266 C268 1.340 . S
N267 C264 1.368 . S
N267 C268 1.321 . S
N267 Co270 2.135 . S
C268 N266 1.340 . S
C268 N267 1.321 . S
C268 H292 0.930 . S
H269 C264 0.931 . S
Co270 N267 2.135 . S
Co270 N273 2.150 . S
Co270 O278 2.055 . S
Co270 O281 2.039 . S
Co270 N284 2.140 . S
C271 O272 1.227 . S
C271 O281 1.265 . S
O272 C271 1.227 . S
N273 Co270 2.150 . S
N273 C275 1.361 1_565 S
N273 C276 1.292 1_565 S
C274 C275 1.338 . S
C274 N277 1.377 . S
C274 H294 0.930 . S
C275 N273 1.361 1_545 S
C275 C274 1.338 . S
C275 H279 0.931 . S
C276 N273 1.292 1_545 S
C276 N277 1.344 . S
C276 H280 0.930 . S
N277 C274 1.377 . S
N277 C276 1.344 . S
O278 Co270 2.055 . S
O278 C282 1.253 . S
H279 C275 0.931 . S
H280 C276 0.930 . S
O281 Co270 2.039 . S
O281 C271 1.265 . S
C282 O278 1.253 . S
C282 O283 1.227 . S
O283 C282 1.227 . S
N284 Co270 2.140 . S
N284 C287 1.346 . S
N284 C288 1.322 1_565 S
C285 C286 1.387 . S
C285 C289 1.391 1_565 S
C286 C285 1.387 . S
C286 C287 1.369 . S
C286 H295 0.929 . S
C287 N284 1.346 . S
C287 C286 1.369 . S
C287 H290 0.928 . S
C288 N284 1.322 1_545 S
C288 C289 1.382 . S
C288 H291 0.945 . S
C289 C285 1.391 1_545 S
C289 C288 1.382 . S
C289 H296 0.930 . S
H290 C287 0.928 . S
H291 C288 0.945 . S
H292 C268 0.930 . S
H293 C265 0.930 . S
H294 C274 0.930 . S
H295 C286 0.929 . S
H296 C289 0.930 . S
C297 C298 1.351 . S
C297 N300 1.368 . S
C297 H302 0.931 . S
C298 C297 1.351 . S
C298 N299 1.373 . S
C298 H326 0.930 . S
N299 C298 1.373 . S
N299 C301 1.340 . S
N300 C297 1.368 . S
N300 C301 1.321 . S
N300 Co303 2.135 . S
C301 N299 1.340 . S
C301 N300 1.321 . S
C301 H325 0.930 . S
H302 C297 0.931 . S
Co303 N300 2.135 . S
Co303 N306 2.121 . S
Co303 O311 2.055 . S
Co303 O314 2.039 . S
Co303 N317 2.140 . S
C304 O305 1.227 . S
C304 O314 1.265 . S
O305 C304 1.227 . S
N306 Co303 2.121 . S
N306 C308 1.375 . S
N306 C309 1.313 . S
C307 C308 1.338 . S
C307 N310 1.377 . S
C307 H327 0.930 . S
C308 N306 1.375 . S
C308 C307 1.338 . S
C308 H312 0.931 . S
C309 N306 1.313 . S
C309 N310 1.344 . S
C309 H313 0.930 . S
N310 C307 1.377 . S
N310 C309 1.344 . S
O311 Co303 2.055 . S
O311 C315 1.253 . S
H312 C308 0.931 . S
H313 C309 0.930 . S
O314 Co303 2.039 . S
O314 C304 1.265 . S
C315 O311 1.253 . S
C315 O316 1.227 . S
O316 C315 1.227 . S
N317 Co303 2.140 . S
N317 C320 1.346 . S
N317 C321 1.345 . S
C318 C319 1.387 . S
C318 C322 1.391 . S
C319 C318 1.387 . S
C319 C320 1.369 . S
C319 H328 0.929 . S
C320 N317 1.346 . S
C320 C319 1.369 . S
C320 H323 0.928 . S
C321 N317 1.345 . S
C321 C322 1.371 . S
C321 H324 0.931 . S
C322 C318 1.391 . S
C322 C321 1.371 . S
C322 H329 0.930 . S
H323 C320 0.928 . S
H324 C321 0.931 . S
H325 C301 0.930 . S
H326 C298 0.930 . S
H327 C307 0.930 . S
H328 C319 0.929 . S
H329 C322 0.930 . S
C330 C331 1.351 . S
C330 N333 1.368 . S
C330 H335 0.931 . S
C331 C330 1.351 . S
C331 N332 1.373 . S
C331 H359 0.930 . S
N332 C331 1.373 . S
N332 C334 1.340 . S
N333 C330 1.368 . S
N333 C334 1.321 . S
N333 Co336 2.135 . S
C334 N332 1.340 . S
C334 N333 1.321 . S
C334 H358 0.930 . S
H335 C330 0.931 . S
Co336 N333 2.135 . S
Co336 N339 2.121 . S
Co336 O344 2.055 . S
Co336 O347 2.039 . S
Co336 N350 2.140 . S
C337 O338 1.227 . S
C337 O347 1.265 . S
O338 C337 1.227 . S
N339 Co336 2.121 . S
N339 C341 1.375 . S
N339 C342 1.313 . S
C340 C341 1.338 . S
C340 N343 1.377 . S
C340 H360 0.930 . S
C341 N339 1.375 . S
C341 C340 1.338 . S
C341 H345 0.931 . S
C342 N339 1.313 . S
C342 N343 1.344 . S
C342 H346 0.930 . S
N343 C340 1.377 . S
N343 C342 1.344 . S
O344 Co336 2.055 . S
O344 C348 1.253 . S
H345 C341 0.931 . S
H346 C342 0.930 . S
O347 Co336 2.039 . S
O347 C337 1.265 . S
C348 O344 1.253 . S
C348 O349 1.227 . S
O349 C348 1.227 . S
N350 Co336 2.140 . S
N350 C353 1.346 . S
N350 C354 1.345 . S
C351 C352 1.387 . S
C351 C355 1.391 . S
C352 C351 1.387 . S
C352 C353 1.369 . S
C352 H361 0.929 . S
C353 N350 1.346 . S
C353 C352 1.369 . S
C353 H356 0.928 . S
C354 N350 1.345 . S
C354 C355 1.371 . S
C354 H357 0.931 . S
C355 C351 1.391 . S
C355 C354 1.371 . S
C355 H362 0.930 . S
H356 C353 0.928 . S
H357 C354 0.931 . S
H358 C334 0.930 . S
H359 C331 0.930 . S
H360 C340 0.930 . S
H361 C352 0.929 . S
H362 C355 0.930 . S
C363 C364 1.351 . S
C363 N366 1.368 . S
C363 H368 0.931 . S
C364 C363 1.351 . S
C364 N365 1.373 . S
C364 H392 0.930 . S
N365 C364 1.373 . S
N365 C367 1.340 . S
N366 C363 1.368 . S
N366 C367 1.321 . S
N366 Co369 2.135 . S
C367 N365 1.340 . S
C367 N366 1.321 . S
C367 H391 0.930 . S
H368 C363 0.931 . S
Co369 N366 2.135 . S
Co369 N372 2.150 . S
Co369 O377 2.055 . S
Co369 O380 2.039 . S
Co369 N383 2.140 . S
C370 O371 1.227 . S
C370 O380 1.265 . S
O371 C370 1.227 . S
N372 Co369 2.150 . S
N372 C374 1.361 1_655 S
N372 C375 1.292 1_655 S
C373 C374 1.338 . S
C373 N376 1.377 . S
C373 H393 0.930 . S
C374 N372 1.361 1_455 S
C374 C373 1.338 . S
C374 H378 0.931 . S
C375 N372 1.292 1_455 S
C375 N376 1.344 . S
C375 H379 0.930 . S
N376 C373 1.377 . S
N376 C375 1.344 . S
O377 Co369 2.055 . S
O377 C381 1.253 . S
H378 C374 0.931 . S
H379 C375 0.930 . S
O380 Co369 2.039 . S
O380 C370 1.265 . S
C381 O377 1.253 . S
C381 O382 1.227 . S
O382 C381 1.227 . S
N383 Co369 2.140 . S
N383 C386 1.346 . S
N383 C387 1.322 1_655 S
C384 C385 1.387 . S
C384 C388 1.391 1_655 S
C385 C384 1.387 . S
C385 C386 1.369 . S
C385 H394 0.929 . S
C386 N383 1.346 . S
C386 C385 1.369 . S
C386 H389 0.928 . S
C387 N383 1.322 1_455 S
C387 C388 1.382 . S
C387 H390 0.945 . S
C388 C384 1.391 1_455 S
C388 C387 1.382 . S
C388 H395 0.930 . S
H389 C386 0.928 . S
H390 C387 0.945 . S
H391 C367 0.930 . S
H392 C364 0.930 . S
H393 C373 0.930 . S
H394 C385 0.929 . S
H395 C388 0.930 . S
C396 C397 1.351 . S
C396 N399 1.368 . S
C396 H401 0.931 . S
C397 C396 1.351 . S
C397 N398 1.373 . S
C397 H425 0.930 . S
N398 C397 1.373 . S
N398 C400 1.340 . S
N399 C396 1.368 . S
N399 C400 1.321 . S
N399 Co402 2.135 . S
C400 N398 1.340 . S
C400 N399 1.321 . S
C400 H424 0.930 . S
H401 C396 0.931 . S
Co402 N399 2.135 . S
Co402 N405 2.150 . S
Co402 O410 2.055 . S
Co402 O413 2.039 . S
Co402 N416 2.140 . S
C403 O404 1.227 . S
C403 O413 1.265 . S
O404 C403 1.227 . S
N405 Co402 2.150 . S
N405 C407 1.361 1_545 S
N405 C408 1.292 1_545 S
C406 C407 1.338 . S
C406 N409 1.377 . S
C406 H426 0.930 . S
C407 N405 1.361 1_565 S
C407 C406 1.338 . S
C407 H411 0.931 . S
C408 N405 1.292 1_565 S
C408 N409 1.344 . S
C408 H412 0.930 . S
N409 C406 1.377 . S
N409 C408 1.344 . S
O410 Co402 2.055 . S
O410 C414 1.253 . S
H411 C407 0.931 . S
H412 C408 0.930 . S
O413 Co402 2.039 . S
O413 C403 1.265 . S
C414 O410 1.253 . S
C414 O415 1.227 . S
O415 C414 1.227 . S
N416 Co402 2.140 . S
N416 C419 1.346 . S
N416 C420 1.322 1_545 S
C417 C418 1.387 . S
C417 C421 1.391 1_545 S
C418 C417 1.387 . S
C418 C419 1.369 . S
C418 H427 0.929 . S
C419 N416 1.346 . S
C419 C418 1.369 . S
C419 H422 0.928 . S
C420 N416 1.322 1_565 S
C420 C421 1.382 . S
C420 H423 0.945 . S
C421 C417 1.391 1_565 S
C421 C420 1.382 . S
C421 H428 0.930 . S
H422 C419 0.928 . S
H423 C420 0.945 . S
H424 C400 0.930 . S
H425 C397 0.930 . S
H426 C406 0.930 . S
H427 C418 0.929 . S
H428 C421 0.930 . S
C429 C430 1.351 . S
C429 N432 1.368 . S
C429 H434 0.931 . S
C430 C429 1.351 . S
C430 N431 1.373 . S
C430 H458 0.930 . S
N431 C430 1.373 . S
N431 C433 1.340 . S
N432 C429 1.368 . S
N432 C433 1.321 . S
N432 Co435 2.135 . S
C433 N431 1.340 . S
C433 N432 1.321 . S
C433 H457 0.930 . S
H434 C429 0.931 . S
Co435 N432 2.135 . S
Co435 N438 2.121 . S
Co435 O443 2.055 . S
Co435 O446 2.039 . S
Co435 N449 2.140 . S
C436 O437 1.227 . S
C436 O446 1.265 . S
O437 C436 1.227 . S
N438 Co435 2.121 . S
N438 C440 1.375 . S
N438 C441 1.313 . S
C439 C440 1.338 . S
C439 N442 1.377 . S
C439 H459 0.930 . S
C440 N438 1.375 . S
C440 C439 1.338 . S
C440 H444 0.931 . S
C441 N438 1.313 . S
C441 N442 1.344 . S
C441 H445 0.930 . S
N442 C439 1.377 . S
N442 C441 1.344 . S
O443 Co435 2.055 . S
O443 C447 1.253 . S
H444 C440 0.931 . S
H445 C441 0.930 . S
O446 Co435 2.039 . S
O446 C436 1.265 . S
C447 O443 1.253 . S
C447 O448 1.227 . S
O448 C447 1.227 . S
N449 Co435 2.140 . S
N449 C452 1.346 . S
N449 C453 1.345 . S
C450 C451 1.387 . S
C450 C454 1.391 . S
C451 C450 1.387 . S
C451 C452 1.369 . S
C451 H460 0.929 . S
C452 N449 1.346 . S
C452 C451 1.369 . S
C452 H455 0.928 . S
C453 N449 1.345 . S
C453 C454 1.371 . S
C453 H456 0.931 . S
C454 C450 1.391 . S
C454 C453 1.371 . S
C454 H461 0.930 . S
H455 C452 0.928 . S
H456 C453 0.931 . S
H457 C433 0.930 . S
H458 C430 0.930 . S
H459 C439 0.930 . S
H460 C451 0.929 . S
H461 C454 0.930 . S
C462 C463 1.351 . S
C462 N465 1.368 . S
C462 H467 0.931 . S
C463 C462 1.351 . S
C463 N464 1.373 . S
C463 H491 0.930 . S
N464 C463 1.373 . S
N464 C466 1.340 . S
N465 C462 1.368 . S
N465 C466 1.321 . S
N465 Co468 2.135 . S
C466 N464 1.340 . S
C466 N465 1.321 . S
C466 H490 0.930 . S
H467 C462 0.931 . S
Co468 N465 2.135 . S
Co468 N471 2.121 . S
Co468 O476 2.055 . S
Co468 O479 2.039 . S
Co468 N482 2.140 . S
C469 O470 1.227 . S
C469 O479 1.265 . S
O470 C469 1.227 . S
N471 Co468 2.121 . S
N471 C473 1.375 . S
N471 C474 1.313 . S
C472 C473 1.338 . S
C472 N475 1.377 . S
C472 H492 0.930 . S
C473 N471 1.375 . S
C473 C472 1.338 . S
C473 H477 0.931 . S
C474 N471 1.313 . S
C474 N475 1.344 . S
C474 H478 0.930 . S
N475 C472 1.377 . S
N475 C474 1.344 . S
O476 Co468 2.055 . S
O476 C480 1.253 . S
H477 C473 0.931 . S
H478 C474 0.930 . S
O479 Co468 2.039 . S
O479 C469 1.265 . S
C480 O476 1.253 . S
C480 O481 1.227 . S
O481 C480 1.227 . S
N482 Co468 2.140 . S
N482 C485 1.346 . S
N482 C486 1.345 . S
C483 C484 1.387 . S
C483 C487 1.391 . S
C484 C483 1.387 . S
C484 C485 1.369 . S
C484 H493 0.929 . S
C485 N482 1.346 . S
C485 C484 1.369 . S
C485 H488 0.928 . S
C486 N482 1.345 . S
C486 C487 1.371 . S
C486 H489 0.931 . S
C487 C483 1.391 . S
C487 C486 1.371 . S
C487 H494 0.930 . S
H488 C485 0.928 . S
H489 C486 0.931 . S
H490 C466 0.930 . S
H491 C463 0.930 . S
H492 C472 0.930 . S
H493 C484 0.929 . S
H494 C487 0.930 . S
C495 C496 1.351 . S
C495 N498 1.368 . S
C495 H500 0.931 . S
C496 C495 1.351 . S
C496 N497 1.373 . S
C496 H524 0.930 . S
N497 C496 1.373 . S
N497 C499 1.340 . S
N498 C495 1.368 . S
N498 C499 1.321 . S
N498 Co501 2.135 . S
C499 N497 1.340 . S
C499 N498 1.321 . S
C499 H523 0.930 . S
H500 C495 0.931 . S
Co501 N498 2.135 . S
Co501 N504 2.150 . S
Co501 O509 2.055 . S
Co501 O512 2.039 . S
Co501 N515 2.140 . S
C502 O503 1.227 . S
C502 O512 1.265 . S
O503 C502 1.227 . S
N504 Co501 2.150 . S
N504 C506 1.361 1_455 S
N504 C507 1.292 1_455 S
C505 C506 1.338 . S
C505 N508 1.377 . S
C505 H525 0.930 . S
C506 N504 1.361 1_655 S
C506 C505 1.338 . S
C506 H510 0.931 . S
C507 N504 1.292 1_655 S
C507 N508 1.344 . S
C507 H511 0.930 . S
N508 C505 1.377 . S
N508 C507 1.344 . S
O509 Co501 2.055 . S
O509 C513 1.253 . S
H510 C506 0.931 . S
H511 C507 0.930 . S
O512 Co501 2.039 . S
O512 C502 1.265 . S
C513 O509 1.253 . S
C513 O514 1.227 . S
O514 C513 1.227 . S
N515 Co501 2.140 . S
N515 C518 1.346 . S
N515 C519 1.322 1_455 S
C516 C517 1.387 . S
C516 C520 1.391 1_455 S
C517 C516 1.387 . S
C517 C518 1.369 . S
C517 H526 0.929 . S
C518 N515 1.346 . S
C518 C517 1.369 . S
C518 H521 0.928 . S
C519 N515 1.322 1_655 S
C519 C520 1.382 . S
C519 H522 0.945 . S
C520 C516 1.391 1_655 S
C520 C519 1.382 . S
C520 H527 0.930 . S
H521 C518 0.928 . S
H522 C519 0.945 . S
H523 C499 0.930 . S
H524 C496 0.930 . S
H525 C505 0.930 . S
H526 C517 0.929 . S
H527 C520 0.930 . S
C528 C529 1.349 . S
C528 C530 1.327 . S
C528 H553 0.950 . S
C529 C528 1.349 . S
C529 C545 1.349 . S
C530 C528 1.327 . S
C530 C549 1.429 . S
C530 H554 0.950 . S
C531 C548 1.574 . S
C531 C550 1.368 . S
C531 H555 0.949 . S
H532 C536 0.949 . S
C533 C534 1.349 . S
C533 C535 1.327 . S
C533 H556 0.950 . S
C534 C533 1.349 . S
C534 C546 1.349 . S
C535 C533 1.327 . S
C535 C551 1.429 . S
C535 H557 0.950 . S
C536 H532 0.949 . S
C536 C544 1.574 . S
C536 C552 1.368 . S
H537 C545 0.950 . S
H538 C543 0.950 . S
H539 C544 0.949 . S
H540 C546 0.950 . S
H541 C547 0.950 . S
H542 C548 0.949 . S
C543 H538 0.950 . S
C543 C545 1.327 . S
C543 C549 1.429 . S
C544 C536 1.574 . S
C544 H539 0.949 . S
C544 C550 1.368 . S
C545 C529 1.349 . S
C545 H537 0.950 . S
C545 C543 1.327 . S
C546 C534 1.349 . S
C546 H540 0.950 . S
C546 C547 1.327 . S
C547 H541 0.950 . S
C547 C546 1.327 . S
C547 C551 1.429 . S
C548 C531 1.574 . S
C548 H542 0.949 . S
C548 C552 1.368 . S
C549 C530 1.429 . S
C549 C543 1.429 . S
C549 C550 1.523 . S
C550 C531 1.368 . S
C550 C544 1.368 . S
C550 C549 1.523 . S
C551 C535 1.429 . S
C551 C547 1.429 . S
C551 C552 1.523 . S
C552 C536 1.368 . S
C552 C548 1.368 . S
C552 C551 1.523 . S
H553 C528 0.950 . S
H554 C530 0.950 . S
H555 C531 0.949 . S
H556 C533 0.950 . S
H557 C535 0.950 . S
C558 C559 1.349 . S
C558 C560 1.327 . S
C558 H583 0.950 . S
C559 C558 1.349 . S
C559 C575 1.349 . S
C560 C558 1.327 . S
C560 C579 1.429 . S
C560 H584 0.950 . S
C561 C578 1.574 . S
C561 C580 1.368 . S
C561 H585 0.949 . S
H562 C566 0.949 . S
C563 C564 1.349 . S
C563 C565 1.327 . S
C563 H586 0.950 . S
C564 C563 1.349 . S
C564 C576 1.349 . S
C565 C563 1.327 . S
C565 C581 1.429 . S
C565 H587 0.950 . S
C566 H562 0.949 . S
C566 C574 1.574 . S
C566 C582 1.368 . S
H567 C575 0.950 . S
H568 C573 0.950 . S
H569 C574 0.949 . S
H570 C576 0.950 . S
H571 C577 0.950 . S
H572 C578 0.949 . S
C573 H568 0.950 . S
C573 C575 1.327 . S
C573 C579 1.429 . S
C574 C566 1.574 . S
C574 H569 0.949 . S
C574 C580 1.368 . S
C575 C559 1.349 . S
C575 H567 0.950 . S
C575 C573 1.327 . S
C576 C564 1.349 . S
C576 H570 0.950 . S
C576 C577 1.327 . S
C577 H571 0.950 . S
C577 C576 1.327 . S
C577 C581 1.429 . S
C578 C561 1.574 . S
C578 H572 0.949 . S
C578 C582 1.368 . S
C579 C560 1.429 . S
C579 C573 1.429 . S
C579 C580 1.523 . S
C580 C561 1.368 . S
C580 C574 1.368 . S
C580 C579 1.523 . S
C581 C565 1.429 . S
C581 C577 1.429 . S
C581 C582 1.523 . S
C582 C566 1.368 . S
C582 C578 1.368 . S
C582 C581 1.523 . S
H583 C558 0.950 . S
H584 C560 0.950 . S
H585 C561 0.949 . S
H586 C563 0.950 . S
H587 C565 0.950 . S
C588 C589 1.349 . S
C588 C590 1.327 . S
C588 H613 0.950 . S
C589 C588 1.349 . S
C589 C605 1.349 1_655 S
C590 C588 1.327 . S
C590 C609 1.429 . S
C590 H614 0.950 . S
C591 C608 1.574 . S
C591 C610 1.368 . S
C591 H615 0.949 . S
H592 C596 0.949 . S
C593 C594 1.349 . S
C593 C595 1.327 . S
C593 H616 0.950 . S
C594 C593 1.349 . S
C594 C606 1.349 . S
C595 C593 1.327 . S
C595 C611 1.429 . S
C595 H617 0.950 . S
C596 H592 0.949 . S
C596 C604 1.574 . S
C596 C612 1.368 . S
H597 C605 0.950 . S
H598 C603 0.950 . S
H599 C604 0.949 . S
H600 C606 0.950 . S
H601 C607 0.950 . S
H602 C608 0.949 . S
C603 H598 0.950 . S
C603 C605 1.327 1_655 S
C603 C609 1.429 . S
C604 C596 1.574 . S
C604 H599 0.949 . S
C604 C610 1.368 . S
C605 C589 1.349 1_455 S
C605 H597 0.950 . S
C605 C603 1.327 1_455 S
C606 C594 1.349 . S
C606 H600 0.950 . S
C606 C607 1.327 . S
C607 H601 0.950 . S
C607 C606 1.327 . S
C607 C611 1.429 . S
C608 C591 1.574 . S
C608 H602 0.949 . S
C608 C612 1.368 . S
C609 C590 1.429 . S
C609 C603 1.429 . S
C609 C610 1.523 . S
C610 C591 1.368 . S
C610 C604 1.368 . S
C610 C609 1.523 . S
C611 C595 1.429 . S
C611 C607 1.429 . S
C611 C612 1.523 . S
C612 C596 1.368 . S
C612 C608 1.368 . S
C612 C611 1.523 . S
H613 C588 0.950 . S
H614 C590 0.950 . S
H615 C591 0.949 . S
H616 C593 0.950 . S
H617 C595 0.950 . S
C618 C619 1.349 . S
C618 C620 1.327 . S
C618 H643 0.950 . S
C619 C618 1.349 . S
C619 C635 1.349 . S
C620 C618 1.327 . S
C620 C639 1.429 . S
C620 H644 0.950 . S
C621 C638 1.574 . S
C621 C640 1.368 . S
C621 H645 0.949 . S
H622 C626 0.949 . S
C623 C624 1.349 1_545 S
C623 C625 1.327 1_545 S
C623 H646 0.950 . S
C624 C623 1.349 1_565 S
C624 C636 1.349 . S
C625 C623 1.327 1_565 S
C625 C641 1.429 . S
C625 H647 0.950 1_565 S
C626 H622 0.949 . S
C626 C634 1.574 . S
C626 C642 1.368 . S
H627 C635 0.950 . S
H628 C633 0.950 . S
H629 C634 0.949 . S
H630 C636 0.950 . S
H631 C637 0.950 . S
H632 C638 0.949 . S
C633 H628 0.950 . S
C633 C635 1.327 . S
C633 C639 1.429 . S
C634 C626 1.574 . S
C634 H629 0.949 . S
C634 C640 1.368 . S
C635 C619 1.349 . S
C635 H627 0.950 . S
C635 C633 1.327 . S
C636 C624 1.349 . S
C636 H630 0.950 . S
C636 C637 1.327 . S
C637 H631 0.950 . S
C637 C636 1.327 . S
C637 C641 1.429 . S
C638 C621 1.574 . S
C638 H632 0.949 . S
C638 C642 1.368 . S
C639 C620 1.429 . S
C639 C633 1.429 . S
C639 C640 1.523 . S
C640 C621 1.368 . S
C640 C634 1.368 . S
C640 C639 1.523 . S
C641 C625 1.429 . S
C641 C637 1.429 . S
C641 C642 1.523 . S
C642 C626 1.368 . S
C642 C638 1.368 . S
C642 C641 1.523 . S
H643 C618 0.950 . S
H644 C620 0.950 . S
H645 C621 0.949 . S
H646 C623 0.950 . S
H647 C625 0.950 1_545 S
C648 C649 1.349 1_655 S
C648 C650 1.327 1_655 S
C648 H673 0.950 . S
C649 C648 1.349 1_455 S
C649 C665 1.349 . S
C650 C648 1.327 1_455 S
C650 C669 1.429 . S
C650 H674 0.950 . S
C651 C668 1.574 . S
C651 C670 1.368 . S
C651 H675 0.949 . S
H652 C656 0.949 . S
C653 C654 1.349 . S
C653 C655 1.327 . S
C653 H676 0.950 . S
C654 C653 1.349 . S
C654 C666 1.349 . S
C655 C653 1.327 . S
C655 C671 1.429 . S
C655 H677 0.950 . S
C656 H652 0.949 . S
C656 C664 1.574 . S
C656 C672 1.368 . S
H657 C665 0.950 . S
H658 C663 0.950 . S
H659 C664 0.949 . S
H660 C666 0.950 . S
H661 C667 0.950 . S
H662 C668 0.949 . S
C663 H658 0.950 . S
C663 C665 1.327 . S
C663 C669 1.429 . S
C664 C656 1.574 . S
C664 H659 0.949 . S
C664 C670 1.368 . S
C665 C649 1.349 . S
C665 H657 0.950 . S
C665 C663 1.327 . S
C666 C654 1.349 . S
C666 H660 0.950 . S
C666 C667 1.327 . S
C667 H661 0.950 . S
C667 C666 1.327 . S
C667 C671 1.429 . S
C668 C651 1.574 . S
C668 H662 0.949 . S
C668 C672 1.368 . S
C669 C650 1.429 . S
C669 C663 1.429 . S
C669 C670 1.523 . S
C670 C651 1.368 . S
C670 C664 1.368 . S
C670 C669 1.523 . S
C671 C655 1.429 . S
C671 C667 1.429 . S
C671 C672 1.523 . S
C672 C656 1.368 . S
C672 C668 1.368 . S
C672 C671 1.523 . S
H673 C648 0.950 . S
H674 C650 0.950 . S
H675 C651 0.949 . S
H676 C653 0.950 . S
H677 C655 0.950 . S
C678 C679 1.349 . S
C678 C680 1.327 . S
C678 H703 0.950 . S
C679 C678 1.349 . S
C679 C695 1.349 1_545 S
C680 C678 1.327 . S
C680 C699 1.429 . S
C680 H704 0.950 . S
C681 C698 1.574 . S
C681 C700 1.368 . S
C681 H705 0.949 . S
H682 C686 0.949 . S
C683 C684 1.349 . S
C683 C685 1.327 . S
C683 H706 0.950 . S
C684 C683 1.349 . S
C684 C696 1.349 . S
C685 C683 1.327 . S
C685 C701 1.429 . S
C685 H707 0.950 . S
C686 H682 0.949 . S
C686 C694 1.574 . S
C686 C702 1.368 . S
H687 C695 0.950 . S
H688 C693 0.950 . S
H689 C694 0.949 . S
H690 C696 0.950 . S
H691 C697 0.950 . S
H692 C698 0.949 . S
C693 H688 0.950 . S
C693 C695 1.327 1_545 S
C693 C699 1.429 . S
C694 C686 1.574 . S
C694 H689 0.949 . S
C694 C700 1.368 . S
C695 C679 1.349 1_565 S
C695 H687 0.950 . S
C695 C693 1.327 1_565 S
C696 C684 1.349 . S
C696 H690 0.950 . S
C696 C697 1.327 . S
C697 H691 0.950 . S
C697 C696 1.327 . S
C697 C701 1.429 . S
C698 C681 1.574 . S
C698 H692 0.949 . S
C698 C702 1.368 . S
C699 C680 1.429 . S
C699 C693 1.429 . S
C699 C700 1.523 . S
C700 C681 1.368 . S
C700 C694 1.368 . S
C700 C699 1.523 . S
C701 C685 1.429 . S
C701 C697 1.429 . S
C701 C702 1.523 . S
C702 C686 1.368 . S
C702 C698 1.368 . S
C702 C701 1.523 . S
H703 C678 0.950 . S
H704 C680 0.950 . S
H705 C681 0.949 . S
H706 C683 0.950 . S
H707 C685 0.950 . S
C708 C709 1.349 . S
C708 C710 1.327 . S
C708 H733 0.950 . S
C709 C708 1.349 . S
C709 C725 1.349 . S
C710 C708 1.327 . S
C710 C729 1.429 . S
C710 H734 0.950 . S
C711 C728 1.574 . S
C711 C730 1.368 . S
C711 H735 0.949 . S
H712 C716 0.949 . S
C713 C714 1.349 . S
C713 C715 1.327 . S
C713 H736 0.950 . S
C714 C713 1.349 . S
C714 C726 1.349 . S
C715 C713 1.327 . S
C715 C731 1.429 . S
C715 H737 0.950 . S
C716 H712 0.949 . S
C716 C724 1.574 . S
C716 C732 1.368 . S
H717 C725 0.950 . S
H718 C723 0.950 . S
H719 C724 0.949 . S
H720 C726 0.950 . S
H721 C727 0.950 . S
H722 C728 0.949 . S
C723 H718 0.950 . S
C723 C725 1.327 . S
C723 C729 1.429 . S
C724 C716 1.574 . S
C724 H719 0.949 . S
C724 C730 1.368 . S
C725 C709 1.349 . S
C725 H717 0.950 . S
C725 C723 1.327 . S
C726 C714 1.349 . S
C726 H720 0.950 . S
C726 C727 1.327 . S
C727 H721 0.950 . S
C727 C726 1.327 . S
C727 C731 1.429 . S
C728 C711 1.574 . S
C728 H722 0.949 . S
C728 C732 1.368 . S
C729 C710 1.429 . S
C729 C723 1.429 . S
C729 C730 1.523 . S
C730 C711 1.368 . S
C730 C724 1.368 . S
C730 C729 1.523 . S
C731 C715 1.429 . S
C731 C727 1.429 . S
C731 C732 1.523 . S
C732 C716 1.368 . S
C732 C728 1.368 . S
C732 C731 1.523 . S
H733 C708 0.950 . S
H734 C710 0.950 . S
H735 C711 0.949 . S
H736 C713 0.950 . S
H737 C715 0.950 . S
C738 C739 1.349 . S
C738 C740 1.327 . S
C738 H763 0.950 . S
C739 C738 1.349 . S
C739 C755 1.349 . S
C740 C738 1.327 . S
C740 C759 1.429 . S
C740 H764 0.950 . S
C741 C758 1.574 . S
C741 C760 1.368 . S
C741 H765 0.949 . S
H742 C746 0.949 . S
C743 C744 1.349 . S
C743 C745 1.327 . S
C743 H766 0.950 . S
C744 C743 1.349 . S
C744 C756 1.349 . S
C745 C743 1.327 . S
C745 C761 1.429 . S
C745 H767 0.950 . S
C746 H742 0.949 . S
C746 C754 1.574 . S
C746 C762 1.368 . S
H747 C755 0.950 . S
H748 C753 0.950 . S
H749 C754 0.949 . S
H750 C756 0.950 . S
H751 C757 0.950 . S
H752 C758 0.949 . S
C753 H748 0.950 . S
C753 C755 1.327 . S
C753 C759 1.429 . S
C754 C746 1.574 . S
C754 H749 0.949 . S
C754 C760 1.368 . S
C755 C739 1.349 . S
C755 H747 0.950 . S
C755 C753 1.327 . S
C756 C744 1.349 . S
C756 H750 0.950 . S
C756 C757 1.327 . S
C757 H751 0.950 . S
C757 C756 1.327 . S
C757 C761 1.429 . S
C758 C741 1.574 . S
C758 H752 0.949 . S
C758 C762 1.368 . S
C759 C740 1.429 . S
C759 C753 1.429 . S
C759 C760 1.523 . S
C760 C741 1.368 . S
C760 C754 1.368 . S
C760 C759 1.523 . S
C761 C745 1.429 . S
C761 C757 1.429 . S
C761 C762 1.523 . S
C762 C746 1.368 . S
C762 C758 1.368 . S
C762 C761 1.523 . S
H763 C738 0.950 . S
H764 C740 0.950 . S
H765 C741 0.949 . S
H766 C743 0.950 . S
H767 C745 0.950 . S
C768 C769 1.349 . S
C768 C770 1.327 . S
C768 H793 0.950 . S
C769 C768 1.349 . S
C769 C785 1.349 . S
C770 C768 1.327 . S
C770 C789 1.429 . S
C770 H794 0.950 . S
C771 C788 1.574 . S
C771 C790 1.368 . S
C771 H795 0.949 . S
H772 C776 0.949 . S
C773 C774 1.349 . S
C773 C775 1.327 . S
C773 H796 0.950 . S
C774 C773 1.349 . S
C774 C786 1.349 . S
C775 C773 1.327 . S
C775 C791 1.429 . S
C775 H797 0.950 . S
C776 H772 0.949 . S
C776 C784 1.574 . S
C776 C792 1.368 . S
H777 C785 0.950 . S
H778 C783 0.950 . S
H779 C784 0.949 . S
H780 C786 0.950 . S
H781 C787 0.950 . S
H782 C788 0.949 . S
C783 H778 0.950 . S
C783 C785 1.327 . S
C783 C789 1.429 . S
C784 C776 1.574 . S
C784 H779 0.949 . S
C784 C790 1.368 . S
C785 C769 1.349 . S
C785 H777 0.950 . S
C785 C783 1.327 . S
C786 C774 1.349 . S
C786 H780 0.950 . S
C786 C787 1.327 . S
C787 H781 0.950 . S
C787 C786 1.327 . S
C787 C791 1.429 . S
C788 C771 1.574 . S
C788 H782 0.949 . S
C788 C792 1.368 . S
C789 C770 1.429 . S
C789 C783 1.429 . S
C789 C790 1.523 . S
C790 C771 1.368 . S
C790 C784 1.368 . S
C790 C789 1.523 . S
C791 C775 1.429 . S
C791 C787 1.429 . S
C791 C792 1.523 . S
C792 C776 1.368 . S
C792 C788 1.368 . S
C792 C791 1.523 . S
H793 C768 0.950 . S
H794 C770 0.950 . S
H795 C771 0.949 . S
H796 C773 0.950 . S
H797 C775 0.950 . S
C798 C799 1.349 . S
C798 C800 1.327 . S
C798 H823 0.950 . S
C799 C798 1.349 . S
C799 C815 1.349 . S
C800 C798 1.327 . S
C800 C819 1.429 . S
C800 H824 0.950 . S
C801 C818 1.574 . S
C801 C820 1.368 . S
C801 H825 0.949 . S
H802 C806 0.949 . S
C803 C804 1.349 . S
C803 C805 1.327 . S
C803 H826 0.950 . S
C804 C803 1.349 . S
C804 C816 1.349 . S
C805 C803 1.327 . S
C805 C821 1.429 . S
C805 H827 0.950 . S
C806 H802 0.949 . S
C806 C814 1.574 . S
C806 C822 1.368 . S
H807 C815 0.950 . S
H808 C813 0.950 . S
H809 C814 0.949 . S
H810 C816 0.950 . S
H811 C817 0.950 . S
H812 C818 0.949 . S
C813 H808 0.950 . S
C813 C815 1.327 . S
C813 C819 1.429 . S
C814 C806 1.574 . S
C814 H809 0.949 . S
C814 C820 1.368 . S
C815 C799 1.349 . S
C815 H807 0.950 . S
C815 C813 1.327 . S
C816 C804 1.349 . S
C816 H810 0.950 . S
C816 C817 1.327 . S
C817 H811 0.950 . S
C817 C816 1.327 . S
C817 C821 1.429 . S
C818 C801 1.574 . S
C818 H812 0.949 . S
C818 C822 1.368 . S
C819 C800 1.429 . S
C819 C813 1.429 . S
C819 C820 1.523 . S
C820 C801 1.368 . S
C820 C814 1.368 . S
C820 C819 1.523 . S
C821 C805 1.429 . S
C821 C817 1.429 . S
C821 C822 1.523 . S
C822 C806 1.368 . S
C822 C818 1.368 . S
C822 C821 1.523 . S
H823 C798 0.950 . S
H824 C800 0.950 . S
H825 C801 0.949 . S
H826 C803 0.950 . S
H827 C805 0.950 . S
C828 C829 1.349 . S
C828 C830 1.327 . S
C828 H853 0.950 . S
C829 C828 1.349 . S
C829 C845 1.349 1_455 S
C830 C828 1.327 . S
C830 C849 1.429 . S
C830 H854 0.950 . S
C831 C848 1.574 . S
C831 C850 1.368 . S
C831 H855 0.949 . S
H832 C836 0.949 . S
C833 C834 1.349 . S
C833 C835 1.327 . S
C833 H856 0.950 . S
C834 C833 1.349 . S
C834 C846 1.349 . S
C835 C833 1.327 . S
C835 C851 1.429 . S
C835 H857 0.950 . S
C836 H832 0.949 . S
C836 C844 1.574 . S
C836 C852 1.368 . S
H837 C845 0.950 . S
H838 C843 0.959 . S
H839 C844 0.949 . S
H840 C846 0.950 . S
H841 C847 0.950 . S
H842 C848 0.949 . S
C843 H838 0.959 . S
C843 C845 1.327 1_455 S
C843 C849 1.429 . S
C844 C836 1.574 . S
C844 H839 0.949 . S
C844 C850 1.368 . S
C845 C829 1.349 1_655 S
C845 H837 0.950 . S
C845 C843 1.327 1_655 S
C846 C834 1.349 . S
C846 H840 0.950 . S
C846 C847 1.327 . S
C847 H841 0.950 . S
C847 C846 1.327 . S
C847 C851 1.429 . S
C848 C831 1.574 . S
C848 H842 0.949 . S
C848 C852 1.368 . S
C849 C830 1.429 . S
C849 C843 1.429 . S
C849 C850 1.523 . S
C850 C831 1.368 . S
C850 C844 1.368 . S
C850 C849 1.523 . S
C851 C835 1.429 . S
C851 C847 1.429 . S
C851 C852 1.523 . S
C852 C836 1.368 . S
C852 C848 1.368 . S
C852 C851 1.523 . S
H853 C828 0.950 . S
H854 C830 0.950 . S
H855 C831 0.949 . S
H856 C833 0.950 . S
H857 C835 0.950 . S
C858 C859 1.349 1_565 S
C858 C860 1.327 1_565 S
C858 H883 0.950 . S
C859 C858 1.349 1_545 S
C859 C875 1.349 . S
C860 C858 1.327 1_545 S
C860 C879 1.429 . S
C860 H884 0.950 1_545 S
C861 C878 1.574 . S
C861 C880 1.368 . S
C861 H885 0.949 . S
H862 C866 0.949 . S
C863 C864 1.349 . S
C863 C865 1.327 . S
C863 H886 0.950 . S
C864 C863 1.349 . S
C864 C876 1.349 . S
C865 C863 1.327 . S
C865 C881 1.429 . S
C865 H887 0.950 . S
C866 H862 0.949 . S
C866 C874 1.574 . S
C866 C882 1.368 . S
H867 C875 0.950 . S
H868 C873 0.950 . S
H869 C874 0.949 . S
H870 C876 0.950 . S
H871 C877 0.950 . S
H872 C878 0.949 . S
C873 H868 0.950 . S
C873 C875 1.327 . S
C873 C879 1.429 . S
C874 C866 1.574 . S
C874 H869 0.949 . S
C874 C880 1.368 . S
C875 C859 1.349 . S
C875 H867 0.950 . S
C875 C873 1.327 . S
C876 C864 1.349 . S
C876 H870 0.950 . S
C876 C877 1.327 . S
C877 H871 0.950 . S
C877 C876 1.327 . S
C877 C881 1.429 . S
C878 C861 1.574 . S
C878 H872 0.949 . S
C878 C882 1.368 . S
C879 C860 1.429 . S
C879 C873 1.429 . S
C879 C880 1.523 . S
C880 C861 1.368 . S
C880 C874 1.368 . S
C880 C879 1.523 . S
C881 C865 1.429 . S
C881 C877 1.429 . S
C881 C882 1.523 . S
C882 C866 1.368 . S
C882 C878 1.368 . S
C882 C881 1.523 . S
H883 C858 0.950 . S
H884 C860 0.950 1_565 S
H885 C861 0.949 . S
H886 C863 0.950 . S
H887 C865 0.950 . S
C888 C889 1.349 1_455 S
C888 C890 1.327 1_455 S
C888 H913 0.950 . S
C889 C888 1.349 1_655 S
C889 C905 1.349 . S
C890 C888 1.327 1_655 S
C890 C909 1.429 . S
C890 H914 0.950 1_655 S
C891 C908 1.574 . S
C891 C910 1.368 . S
C891 H915 0.949 . S
H892 C896 0.949 . S
C893 C894 1.349 . S
C893 C895 1.327 . S
C893 H916 0.950 . S
C894 C893 1.349 . S
C894 C906 1.349 . S
C895 C893 1.327 . S
C895 C911 1.429 . S
C895 H917 0.950 . S
C896 H892 0.949 . S
C896 C904 1.574 . S
C896 C912 1.368 . S
H897 C905 0.950 . S
H898 C903 0.950 . S
H899 C904 0.949 . S
H900 C906 0.950 . S
H901 C907 0.950 . S
H902 C908 0.949 . S
C903 H898 0.950 . S
C903 C905 1.327 . S
C903 C909 1.429 . S
C904 C896 1.574 . S
C904 H899 0.949 . S
C904 C910 1.368 . S
C905 C889 1.349 . S
C905 H897 0.950 . S
C905 C903 1.327 . S
C906 C894 1.349 . S
C906 H900 0.950 . S
C906 C907 1.327 . S
C907 H901 0.950 . S
C907 C906 1.327 . S
C907 C911 1.429 . S
C908 C891 1.574 . S
C908 H902 0.949 . S
C908 C912 1.368 . S
C909 C890 1.429 . S
C909 C903 1.429 . S
C909 C910 1.523 . S
C910 C891 1.368 . S
C910 C904 1.368 . S
C910 C909 1.523 . S
C911 C895 1.429 . S
C911 C907 1.429 . S
C911 C912 1.523 . S
C912 C896 1.368 . S
C912 C908 1.368 . S
C912 C911 1.523 . S
H913 C888 0.950 . S
H914 C890 0.950 1_455 S
H915 C891 0.949 . S
H916 C893 0.950 . S
H917 C895 0.950 . S
C918 C919 1.349 1_545 S
C918 C920 1.327 1_545 S
C918 H943 0.950 . S
C919 C918 1.349 1_565 S
C919 C935 1.349 . S
C920 C918 1.327 1_565 S
C920 C939 1.429 . S
C920 H944 0.950 . S
C921 C938 1.574 . S
C921 C940 1.368 . S
C921 H945 0.949 . S
H922 C926 0.949 . S
C923 C924 1.349 . S
C923 C925 1.327 . S
C923 H946 0.950 . S
C924 C923 1.349 . S
C924 C936 1.349 . S
C925 C923 1.327 . S
C925 C941 1.429 . S
C925 H947 0.950 . S
C926 H922 0.949 . S
C926 C934 1.574 . S
C926 C942 1.368 . S
H927 C935 0.950 . S
H928 C933 0.950 . S
H929 C934 0.949 . S
H930 C936 0.950 . S
H931 C937 0.950 . S
H932 C938 0.949 . S
C933 H928 0.950 . S
C933 C935 1.327 . S
C933 C939 1.429 . S
C934 C926 1.574 . S
C934 H929 0.949 . S
C934 C940 1.368 . S
C935 C919 1.349 . S
C935 H927 0.950 . S
C935 C933 1.327 . S
C936 C924 1.349 . S
C936 H930 0.950 . S
C936 C937 1.327 . S
C937 H931 0.950 . S
C937 C936 1.327 . S
C937 C941 1.429 . S
C938 C921 1.574 . S
C938 H932 0.949 . S
C938 C942 1.368 . S
C939 C920 1.429 . S
C939 C933 1.429 . S
C939 C940 1.523 . S
C940 C921 1.368 . S
C940 C934 1.368 . S
C940 C939 1.523 . S
C941 C925 1.429 . S
C941 C937 1.429 . S
C941 C942 1.523 . S
C942 C926 1.368 . S
C942 C938 1.368 . S
C942 C941 1.523 . S
H943 C918 0.950 . S
H944 C920 0.950 . S
H945 C921 0.949 . S
H946 C923 0.950 . S
H947 C925 0.950 . S
C948 C949 1.349 . S
C948 C950 1.327 . S
C948 H973 0.950 . S
C949 C948 1.349 . S
C949 C965 1.349 . S
C950 C948 1.327 . S
C950 C969 1.429 . S
C950 H974 0.950 . S
C951 C968 1.574 . S
C951 C970 1.368 . S
C951 H975 0.949 . S
H952 C956 0.949 . S
C953 C954 1.349 . S
C953 C955 1.327 . S
C953 H976 0.950 . S
C954 C953 1.349 . S
C954 C966 1.349 . S
C955 C953 1.327 . S
C955 C971 1.429 . S
C955 H977 0.950 . S
C956 H952 0.949 . S
C956 C964 1.574 . S
C956 C972 1.368 . S
H957 C965 0.950 . S
H958 C963 0.950 . S
H959 C964 0.949 . S
H960 C966 0.950 . S
H961 C967 0.950 . S
H962 C968 0.949 . S
C963 H958 0.950 . S
C963 C965 1.327 . S
C963 C969 1.429 . S
C964 C956 1.574 . S
C964 H959 0.949 . S
C964 C970 1.368 . S
C965 C949 1.349 . S
C965 H957 0.950 . S
C965 C963 1.327 . S
C966 C954 1.349 . S
C966 H960 0.950 . S
C966 C967 1.327 . S
C967 H961 0.950 . S
C967 C966 1.327 . S
C967 C971 1.429 . S
C968 C951 1.574 . S
C968 H962 0.949 . S
C968 C972 1.368 . S
C969 C950 1.429 . S
C969 C963 1.429 . S
C969 C970 1.523 . S
C970 C951 1.368 . S
C970 C964 1.368 . S
C970 C969 1.523 . S
C971 C955 1.429 . S
C971 C967 1.429 . S
C971 C972 1.523 . S
C972 C956 1.368 . S
C972 C968 1.368 . S
C972 C971 1.523 . S
H973 C948 0.950 . S
H974 C950 0.950 . S
H975 C951 0.949 . S
H976 C953 0.950 . S
H977 C955 0.950 . S
C978 C979 1.349 . S
C978 C980 1.327 . S
C978 H1003 0.950 . S
C979 C978 1.349 . S
C979 C995 1.349 . S
C980 C978 1.327 . S
C980 C999 1.429 . S
C980 H1004 0.950 . S
C981 C998 1.574 . S
C981 C1000 1.368 . S
C981 H1005 0.949 . S
H982 C986 0.949 . S
C983 C984 1.349 . S
C983 C985 1.327 . S
C983 H1006 0.950 . S
C984 C983 1.349 . S
C984 C996 1.349 . S
C985 C983 1.327 . S
C985 C1001 1.429 . S
C985 H1007 0.950 . S
C986 H982 0.949 . S
C986 C994 1.574 . S
C986 C1002 1.368 . S
H987 C995 0.950 . S
H988 C993 0.950 . S
H989 C994 0.949 . S
H990 C996 0.950 . S
H991 C997 0.950 . S
H992 C998 0.949 . S
C993 H988 0.950 . S
C993 C995 1.327 . S
C993 C999 1.429 . S
C994 C986 1.574 . S
C994 H989 0.949 . S
C994 C1000 1.368 . S
C995 C979 1.349 . S
C995 H987 0.950 . S
C995 C993 1.327 . S
C996 C984 1.349 . S
C996 H990 0.950 . S
C996 C997 1.327 . S
C997 H991 0.950 . S
C997 C996 1.327 . S
C997 C1001 1.429 . S
C998 C981 1.574 . S
C998 H992 0.949 . S
C998 C1002 1.368 . S
C999 C980 1.429 . S
C999 C993 1.429 . S
C999 C1000 1.523 . S
C1000 C981 1.368 . S
C1000 C994 1.368 . S
C1000 C999 1.523 . S
C1001 C985 1.429 . S
C1001 C997 1.429 . S
C1001 C1002 1.523 . S
C1002 C986 1.368 . S
C1002 C998 1.368 . S
C1002 C1001 1.523 . S
H1003 C978 0.950 . S
H1004 C980 0.950 . S
H1005 C981 0.949 . S
H1006 C983 0.950 . S
H1007 C985 0.950 . S
C1008 C1009 1.349 . S
C1008 C1010 1.327 . S
C1008 H1033 0.950 . S
C1009 C1008 1.349 . S
C1009 C1025 1.349 . S
C1010 C1008 1.327 . S
C1010 C1029 1.429 . S
C1010 H1034 0.950 . S
C1011 C1028 1.574 . S
C1011 C1030 1.368 . S
C1011 H1035 0.949 . S
H1012 C1016 0.949 . S
C1013 C1014 1.349 . S
C1013 C1015 1.327 . S
C1013 H1036 0.950 . S
C1014 C1013 1.349 . S
C1014 C1026 1.349 . S
C1015 C1013 1.327 . S
C1015 C1031 1.429 . S
C1015 H1037 0.950 . S
C1016 H1012 0.949 . S
C1016 C1024 1.574 . S
C1016 C1032 1.368 . S
H1017 C1025 0.950 . S
H1018 C1023 0.950 . S
H1019 C1024 0.949 . S
H1020 C1026 0.950 . S
H1021 C1027 0.950 . S
H1022 C1028 0.949 . S
C1023 H1018 0.950 . S
C1023 C1025 1.327 . S
C1023 C1029 1.429 . S
C1024 C1016 1.574 . S
C1024 H1019 0.949 . S
C1024 C1030 1.368 . S
C1025 C1009 1.349 . S
C1025 H1017 0.950 . S
C1025 C1023 1.327 . S
C1026 C1014 1.349 . S
C1026 H1020 0.950 . S
C1026 C1027 1.327 . S
C1027 H1021 0.950 . S
C1027 C1026 1.327 . S
C1027 C1031 1.429 . S
C1028 C1011 1.574 . S
C1028 H1022 0.949 . S
C1028 C1032 1.368 . S
C1029 C1010 1.429 . S
C1029 C1023 1.429 . S
C1029 C1030 1.523 . S
C1030 C1011 1.368 . S
C1030 C1024 1.368 . S
C1030 C1029 1.523 . S
C1031 C1015 1.429 . S
C1031 C1027 1.429 . S
C1031 C1032 1.523 . S
C1032 C1016 1.368 . S
C1032 C1028 1.368 . S
C1032 C1031 1.523 . S
H1033 C1008 0.950 . S
H1034 C1010 0.950 . S
H1035 C1011 0.949 . S
H1036 C1013 0.950 . S
H1037 C1015 0.950 . S
C1038 C1039 1.349 . S
C1038 C1040 1.327 . S
C1038 H1063 0.950 . S
C1039 C1038 1.349 . S
C1039 C1055 1.349 . S
C1040 C1038 1.327 . S
C1040 C1059 1.429 . S
C1040 H1064 0.950 . S
C1041 C1058 1.574 . S
C1041 C1060 1.368 . S
C1041 H1065 0.949 . S
H1042 C1046 0.949 . S
C1043 C1044 1.349 . S
C1043 C1045 1.327 . S
C1043 H1066 0.950 . S
C1044 C1043 1.349 . S
C1044 C1056 1.349 . S
C1045 C1043 1.327 . S
C1045 C1061 1.429 . S
C1045 H1067 0.950 . S
C1046 H1042 0.949 . S
C1046 C1054 1.574 . S
C1046 C1062 1.368 . S
H1047 C1055 0.950 . S
H1048 C1053 0.950 . S
H1049 C1054 0.949 . S
H1050 C1056 0.950 . S
H1051 C1057 0.950 . S
H1052 C1058 0.949 . S
C1053 H1048 0.950 . S
C1053 C1055 1.327 . S
C1053 C1059 1.429 . S
C1054 C1046 1.574 . S
C1054 H1049 0.949 . S
C1054 C1060 1.368 . S
C1055 C1039 1.349 . S
C1055 H1047 0.950 . S
C1055 C1053 1.327 . S
C1056 C1044 1.349 . S
C1056 H1050 0.950 . S
C1056 C1057 1.327 . S
C1057 H1051 0.950 . S
C1057 C1056 1.327 . S
C1057 C1061 1.429 . S
C1058 C1041 1.574 . S
C1058 H1052 0.949 . S
C1058 C1062 1.368 . S
C1059 C1040 1.429 . S
C1059 C1053 1.429 . S
C1059 C1060 1.523 . S
C1060 C1041 1.368 . S
C1060 C1054 1.368 . S
C1060 C1059 1.523 . S
C1061 C1045 1.429 . S
C1061 C1057 1.429 . S
C1061 C1062 1.523 . S
C1062 C1046 1.368 . S
C1062 C1058 1.368 . S
C1062 C1061 1.523 . S
H1063 C1038 0.950 . S
H1064 C1040 0.950 . S
H1065 C1041 0.949 . S
H1066 C1043 0.950 . S
H1067 C1045 0.950 . S
C1068 C1069 1.349 . S
C1068 C1070 1.327 . S
C1068 H1093 0.950 . S
C1069 C1068 1.349 . S
C1069 C1085 1.349 . S
C1070 C1068 1.327 . S
C1070 C1089 1.429 . S
C1070 H1094 0.950 . S
C1071 C1088 1.574 . S
C1071 C1090 1.368 . S
C1071 H1095 0.949 . S
H1072 C1076 0.949 . S
C1073 C1074 1.349 . S
C1073 C1075 1.327 . S
C1073 H1096 0.950 . S
C1074 C1073 1.349 . S
C1074 C1086 1.349 . S
C1075 C1073 1.327 . S
C1075 C1091 1.429 . S
C1075 H1097 0.950 . S
C1076 H1072 0.949 . S
C1076 C1084 1.574 . S
C1076 C1092 1.368 . S
H1077 C1085 0.950 . S
H1078 C1083 0.950 . S
H1079 C1084 0.949 . S
H1080 C1086 0.950 . S
H1081 C1087 0.950 . S
H1082 C1088 0.949 . S
C1083 H1078 0.950 . S
C1083 C1085 1.327 . S
C1083 C1089 1.429 . S
C1084 C1076 1.574 . S
C1084 H1079 0.949 . S
C1084 C1090 1.368 . S
C1085 C1069 1.349 . S
C1085 H1077 0.950 . S
C1085 C1083 1.327 . S
C1086 C1074 1.349 . S
C1086 H1080 0.950 . S
C1086 C1087 1.327 . S
C1087 H1081 0.950 . S
C1087 C1086 1.327 . S
C1087 C1091 1.429 . S
C1088 C1071 1.574 . S
C1088 H1082 0.949 . S
C1088 C1092 1.368 . S
C1089 C1070 1.429 . S
C1089 C1083 1.429 . S
C1089 C1090 1.523 . S
C1090 C1071 1.368 . S
C1090 C1084 1.368 . S
C1090 C1089 1.523 . S
C1091 C1075 1.429 . S
C1091 C1087 1.429 . S
C1091 C1092 1.523 . S
C1092 C1076 1.368 . S
C1092 C1088 1.368 . S
C1092 C1091 1.523 . S
H1093 C1068 0.950 . S
H1094 C1070 0.950 . S
H1095 C1071 0.949 . S
H1096 C1073 0.950 . S
H1097 C1075 0.950 . S
C1098 C1099 1.349 . S
C1098 C1100 1.327 . S
C1098 H1123 0.950 . S
C1099 C1098 1.349 . S
C1099 C1115 1.349 . S
C1100 C1098 1.327 . S
C1100 C1119 1.429 . S
C1100 H1124 0.950 . S
C1101 C1118 1.574 . S
C1101 C1120 1.368 . S
C1101 H1125 0.949 . S
H1102 C1106 0.949 . S
C1103 C1104 1.349 . S
C1103 C1105 1.327 . S
C1103 H1126 0.950 . S
C1104 C1103 1.349 . S
C1104 C1116 1.349 . S
C1105 C1103 1.327 . S
C1105 C1121 1.429 . S
C1105 H1127 0.950 . S
C1106 H1102 0.949 . S
C1106 C1114 1.574 . S
C1106 C1122 1.368 . S
H1107 C1115 0.950 . S
H1108 C1113 0.950 . S
H1109 C1114 0.949 . S
H1110 C1116 0.950 . S
H1111 C1117 0.950 . S
H1112 C1118 0.949 . S
C1113 H1108 0.950 . S
C1113 C1115 1.327 . S
C1113 C1119 1.429 . S
C1114 C1106 1.574 . S
C1114 H1109 0.949 . S
C1114 C1120 1.368 . S
C1115 C1099 1.349 . S
C1115 H1107 0.950 . S
C1115 C1113 1.327 . S
C1116 C1104 1.349 . S
C1116 H1110 0.950 . S
C1116 C1117 1.327 . S
C1117 H1111 0.950 . S
C1117 C1116 1.327 . S
C1117 C1121 1.429 . S
C1118 C1101 1.574 . S
C1118 H1112 0.949 . S
C1118 C1122 1.368 . S
C1119 C1100 1.429 . S
C1119 C1113 1.429 . S
C1119 C1120 1.523 . S
C1120 C1101 1.368 . S
C1120 C1114 1.368 . S
C1120 C1119 1.523 . S
C1121 C1105 1.429 . S
C1121 C1117 1.429 . S
C1121 C1122 1.523 . S
C1122 C1106 1.368 . S
C1122 C1118 1.368 . S
C1122 C1121 1.523 . S
H1123 C1098 0.950 . S
H1124 C1100 0.950 . S
H1125 C1101 0.949 . S
H1126 C1103 0.950 . S
H1127 C1105 0.950 . S
C1128 C1129 1.349 . S
C1128 C1130 1.327 . S
C1128 H1153 0.950 . S
C1129 C1128 1.349 . S
C1129 C1145 1.349 . S
C1130 C1128 1.327 . S
C1130 C1149 1.429 . S
C1130 H1154 0.950 . S
C1131 C1148 1.574 . S
C1131 C1150 1.368 . S
C1131 H1155 0.949 . S
H1132 C1136 0.949 . S
C1133 C1134 1.349 . S
C1133 C1135 1.327 . S
C1133 H1156 0.950 . S
C1134 C1133 1.349 . S
C1134 C1146 1.349 . S
C1135 C1133 1.327 . S
C1135 C1151 1.429 . S
C1135 H1157 0.950 . S
C1136 H1132 0.949 . S
C1136 C1144 1.574 . S
C1136 C1152 1.368 . S
H1137 C1145 0.950 . S
H1138 C1143 0.950 . S
H1139 C1144 0.949 . S
H1140 C1146 0.950 . S
H1141 C1147 0.950 . S
H1142 C1148 0.949 . S
C1143 H1138 0.950 . S
C1143 C1145 1.327 . S
C1143 C1149 1.429 . S
C1144 C1136 1.574 . S
C1144 H1139 0.949 . S
C1144 C1150 1.368 . S
C1145 C1129 1.349 . S
C1145 H1137 0.950 . S
C1145 C1143 1.327 . S
C1146 C1134 1.349 . S
C1146 H1140 0.950 . S
C1146 C1147 1.327 . S
C1147 H1141 0.950 . S
C1147 C1146 1.327 . S
C1147 C1151 1.429 . S
C1148 C1131 1.574 . S
C1148 H1142 0.949 . S
C1148 C1152 1.368 . S
C1149 C1130 1.429 . S
C1149 C1143 1.429 . S
C1149 C1150 1.523 . S
C1150 C1131 1.368 . S
C1150 C1144 1.368 . S
C1150 C1149 1.523 . S
C1151 C1135 1.429 . S
C1151 C1147 1.429 . S
C1151 C1152 1.523 . S
C1152 C1136 1.368 . S
C1152 C1148 1.368 . S
C1152 C1151 1.523 . S
H1153 C1128 0.950 . S
H1154 C1130 0.950 . S
H1155 C1131 0.949 . S
H1156 C1133 0.950 . S
H1157 C1135 0.950 . S
C1158 C1159 1.349 . S
C1158 C1160 1.327 . S
C1158 H1183 0.950 . S
C1159 C1158 1.349 . S
C1159 C1175 1.349 . S
C1160 C1158 1.327 . S
C1160 C1179 1.429 . S
C1160 H1184 0.950 . S
C1161 C1178 1.574 . S
C1161 C1180 1.368 . S
C1161 H1185 0.949 . S
H1162 C1166 0.949 . S
C1163 C1164 1.349 . S
C1163 C1165 1.327 . S
C1163 H1186 0.950 . S
C1164 C1163 1.349 . S
C1164 C1176 1.349 . S
C1165 C1163 1.327 . S
C1165 C1181 1.429 . S
C1165 H1187 0.950 . S
C1166 H1162 0.949 . S
C1166 C1174 1.574 . S
C1166 C1182 1.368 . S
H1167 C1175 0.950 . S
H1168 C1173 0.950 . S
H1169 C1174 0.949 . S
H1170 C1176 0.950 . S
H1171 C1177 0.950 . S
H1172 C1178 0.949 . S
C1173 H1168 0.950 . S
C1173 C1175 1.327 . S
C1173 C1179 1.429 . S
C1174 C1166 1.574 . S
C1174 H1169 0.949 . S
C1174 C1180 1.368 . S
C1175 C1159 1.349 . S
C1175 H1167 0.950 . S
C1175 C1173 1.327 . S
C1176 C1164 1.349 . S
C1176 H1170 0.950 . S
C1176 C1177 1.327 . S
C1177 H1171 0.950 . S
C1177 C1176 1.327 . S
C1177 C1181 1.429 . S
C1178 C1161 1.574 . S
C1178 H1172 0.949 . S
C1178 C1182 1.368 . S
C1179 C1160 1.429 . S
C1179 C1173 1.429 . S
C1179 C1180 1.523 . S
C1180 C1161 1.368 . S
C1180 C1174 1.368 . S
C1180 C1179 1.523 . S
C1181 C1165 1.429 . S
C1181 C1177 1.429 . S
C1181 C1182 1.523 . S
C1182 C1166 1.368 . S
C1182 C1178 1.368 . S
C1182 C1181 1.523 . S
H1183 C1158 0.950 . S
H1184 C1160 0.950 . S
H1185 C1161 0.949 . S
H1186 C1163 0.950 . S
H1187 C1165 0.950 . S
C1188 C1189 1.349 . S
C1188 C1190 1.327 . S
C1188 H1213 0.950 . S
C1189 C1188 1.349 . S
C1189 C1205 1.349 . S
C1190 C1188 1.327 . S
C1190 C1209 1.429 . S
C1190 H1214 0.950 . S
C1191 C1208 1.574 . S
C1191 C1210 1.368 . S
C1191 H1215 0.949 . S
H1192 C1196 0.949 . S
C1193 C1194 1.349 . S
C1193 C1195 1.327 . S
C1193 H1216 0.950 . S
C1194 C1193 1.349 . S
C1194 C1206 1.349 . S
C1195 C1193 1.327 . S
C1195 C1211 1.429 . S
C1195 H1217 0.950 . S
C1196 H1192 0.949 . S
C1196 C1204 1.574 . S
C1196 C1212 1.368 . S
H1197 C1205 0.950 . S
H1198 C1203 0.950 . S
H1199 C1204 0.949 . S
H1200 C1206 0.950 . S
H1201 C1207 0.950 . S
H1202 C1208 0.949 . S
C1203 H1198 0.950 . S
C1203 C1205 1.327 . S
C1203 C1209 1.429 . S
C1204 C1196 1.574 . S
C1204 H1199 0.949 . S
C1204 C1210 1.368 . S
C1205 C1189 1.349 . S
C1205 H1197 0.950 . S
C1205 C1203 1.327 . S
C1206 C1194 1.349 . S
C1206 H1200 0.950 . S
C1206 C1207 1.327 . S
C1207 H1201 0.950 . S
C1207 C1206 1.327 . S
C1207 C1211 1.429 . S
C1208 C1191 1.574 . S
C1208 H1202 0.949 . S
C1208 C1212 1.368 . S
C1209 C1190 1.429 . S
C1209 C1203 1.429 . S
C1209 C1210 1.523 . S
C1210 C1191 1.368 . S
C1210 C1204 1.368 . S
C1210 C1209 1.523 . S
C1211 C1195 1.429 . S
C1211 C1207 1.429 . S
C1211 C1212 1.523 . S
C1212 C1196 1.368 . S
C1212 C1208 1.368 . S
C1212 C1211 1.523 . S
H1213 C1188 0.950 . S
H1214 C1190 0.950 . S
H1215 C1191 0.949 . S
H1216 C1193 0.950 . S
H1217 C1195 0.950 . S
C1218 C1219 1.349 . S
C1218 C1220 1.327 . S
C1218 H1243 0.950 . S
C1219 C1218 1.349 . S
C1219 C1235 1.349 . S
C1220 C1218 1.327 . S
C1220 C1239 1.429 . S
C1220 H1244 0.950 . S
C1221 C1238 1.574 . S
C1221 C1240 1.368 . S
C1221 H1245 0.949 . S
H1222 C1226 0.949 . S
C1223 C1224 1.349 . S
C1223 C1225 1.327 . S
C1223 H1246 0.950 . S
C1224 C1223 1.349 . S
C1224 C1236 1.349 . S
C1225 C1223 1.327 . S
C1225 C1241 1.429 . S
C1225 H1247 0.950 . S
C1226 H1222 0.949 . S
C1226 C1234 1.574 . S
C1226 C1242 1.368 . S
H1227 C1235 0.950 . S
H1228 C1233 0.950 . S
H1229 C1234 0.949 . S
H1230 C1236 0.950 . S
H1231 C1237 0.950 . S
H1232 C1238 0.949 . S
C1233 H1228 0.950 . S
C1233 C1235 1.327 . S
C1233 C1239 1.429 . S
C1234 C1226 1.574 . S
C1234 H1229 0.949 . S
C1234 C1240 1.368 . S
C1235 C1219 1.349 . S
C1235 H1227 0.950 . S
C1235 C1233 1.327 . S
C1236 C1224 1.349 . S
C1236 H1230 0.950 . S
C1236 C1237 1.327 . S
C1237 H1231 0.950 . S
C1237 C1236 1.327 . S
C1237 C1241 1.429 . S
C1238 C1221 1.574 . S
C1238 H1232 0.949 . S
C1238 C1242 1.368 . S
C1239 C1220 1.429 . S
C1239 C1233 1.429 . S
C1239 C1240 1.523 . S
C1240 C1221 1.368 . S
C1240 C1234 1.368 . S
C1240 C1239 1.523 . S
C1241 C1225 1.429 . S
C1241 C1237 1.429 . S
C1241 C1242 1.523 . S
C1242 C1226 1.368 . S
C1242 C1238 1.368 . S
C1242 C1241 1.523 . S
H1243 C1218 0.950 . S
H1244 C1220 0.950 . S
H1245 C1221 0.949 . S
H1246 C1223 0.950 . S
H1247 C1225 0.950 . S
C1248 C1249 1.349 . S
C1248 C1250 1.327 . S
C1248 H1273 0.950 . S
C1249 C1248 1.349 . S
C1249 C1265 1.349 . S
C1250 C1248 1.327 . S
C1250 C1269 1.429 . S
C1250 H1274 0.950 . S
C1251 C1268 1.574 . S
C1251 C1270 1.368 1_565 S
C1251 H1275 0.949 . S
H1252 C1256 0.949 . S
C1253 C1254 1.349 . S
C1253 C1255 1.327 . S
C1253 H1276 0.950 . S
C1254 C1253 1.349 . S
C1254 C1266 1.349 . S
C1255 C1253 1.327 . S
C1255 C1271 1.429 . S
C1255 H1277 0.950 . S
C1256 H1252 0.949 . S
C1256 C1264 1.574 . S
C1256 C1272 1.368 1_545 S
H1257 C1265 0.950 . S
H1258 C1263 0.950 1_565 S
H1259 C1264 0.949 . S
H1260 C1266 0.950 . S
H1261 C1267 0.950 1_545 S
H1262 C1268 0.949 . S
C1263 H1258 0.950 1_545 S
C1263 C1265 1.327 . S
C1263 C1269 1.429 . S
C1264 C1256 1.574 . S
C1264 H1259 0.949 . S
C1264 C1270 1.368 1_556 S
C1265 C1249 1.349 . S
C1265 H1257 0.950 . S
C1265 C1263 1.327 . S
C1266 C1254 1.349 . S
C1266 H1260 0.950 . S
C1266 C1267 1.327 . S
C1267 H1261 0.950 1_565 S
C1267 C1266 1.327 . S
C1267 C1271 1.429 . S
C1268 C1251 1.574 . S
C1268 H1262 0.949 . S
C1268 C1272 1.368 1_554 S
C1269 C1250 1.429 . S
C1269 C1263 1.429 . S
C1269 C1270 1.523 . S
C1270 C1251 1.368 1_545 S
C1270 C1264 1.368 1_554 S
C1270 C1269 1.523 . S
C1271 C1255 1.429 . S
C1271 C1267 1.429 . S
C1271 C1272 1.523 . S
C1272 C1256 1.368 1_565 S
C1272 C1268 1.368 1_556 S
C1272 C1271 1.523 . S
H1273 C1248 0.950 . S
H1274 C1250 0.950 . S
H1275 C1251 0.949 . S
H1276 C1253 0.950 . S
H1277 C1255 0.950 . S
C1278 C1279 1.349 . S
C1278 C1280 1.327 . S
C1278 H1303 0.950 . S
C1279 C1278 1.349 . S
C1279 C1295 1.349 . S
C1280 C1278 1.327 . S
C1280 C1299 1.429 . S
C1280 H1304 0.950 . S
C1281 C1298 1.574 . S
C1281 C1300 1.368 1_556 S
C1281 H1305 0.949 . S
H1282 C1286 0.949 . S
C1283 C1284 1.349 . S
C1283 C1285 1.327 . S
C1283 H1306 0.950 . S
C1284 C1283 1.349 . S
C1284 C1296 1.349 . S
C1285 C1283 1.327 . S
C1285 C1301 1.429 . S
C1285 H1307 0.950 . S
C1286 H1282 0.949 . S
C1286 C1294 1.574 . S
C1286 C1302 1.368 1_554 S
H1287 C1295 0.950 . S
H1288 C1293 0.950 . S
H1289 C1294 0.949 . S
H1290 C1296 0.950 . S
H1291 C1297 0.950 . S
H1292 C1298 0.949 . S
C1293 H1288 0.950 . S
C1293 C1295 1.327 . S
C1293 C1299 1.429 . S
C1294 C1286 1.574 . S
C1294 H1289 0.949 . S
C1294 C1300 1.368 . S
C1295 C1279 1.349 . S
C1295 H1287 0.950 . S
C1295 C1293 1.327 . S
C1296 C1284 1.349 . S
C1296 H1290 0.950 . S
C1296 C1297 1.327 . S
C1297 H1291 0.950 . S
C1297 C1296 1.327 . S
C1297 C1301 1.429 . S
C1298 C1281 1.574 . S
C1298 H1292 0.949 . S
C1298 C1302 1.368 . S
C1299 C1280 1.429 . S
C1299 C1293 1.429 . S
C1299 C1300 1.523 . S
C1300 C1281 1.368 1_554 S
C1300 C1294 1.368 . S
C1300 C1299 1.523 . S
C1301 C1285 1.429 . S
C1301 C1297 1.429 . S
C1301 C1302 1.523 . S
C1302 C1286 1.368 1_556 S
C1302 C1298 1.368 . S
C1302 C1301 1.523 . S
H1303 C1278 0.950 . S
H1304 C1280 0.950 . S
H1305 C1281 0.949 . S
H1306 C1283 0.950 . S
H1307 C1285 0.950 . S
C1308 C1309 1.349 . S
C1308 C1310 1.327 . S
C1308 H1333 0.950 . S
C1309 C1308 1.349 . S
C1309 C1325 1.349 . S
C1310 C1308 1.327 . S
C1310 C1329 1.429 . S
C1310 H1334 0.950 . S
C1311 C1328 1.574 1_655 S
C1311 C1330 1.368 . S
C1311 H1335 0.949 . S
H1312 C1316 0.949 . S
C1313 C1314 1.349 . S
C1313 C1315 1.327 . S
C1313 H1336 0.950 . S
C1314 C1313 1.349 . S
C1314 C1326 1.349 . S
C1315 C1313 1.327 . S
C1315 C1331 1.429 . S
C1315 H1337 0.950 . S
C1316 H1312 0.949 . S
C1316 C1324 1.574 1_455 S
C1316 C1332 1.368 . S
H1317 C1325 0.950 . S
H1318 C1323 0.950 . S
H1319 C1324 0.949 . S
H1320 C1326 0.950 . S
H1321 C1327 0.950 . S
H1322 C1328 0.949 . S
C1323 H1318 0.950 . S
C1323 C1325 1.327 . S
C1323 C1329 1.429 . S
C1324 C1316 1.574 1_655 S
C1324 H1319 0.949 . S
C1324 C1330 1.368 1_556 S
C1325 C1309 1.349 . S
C1325 H1317 0.950 . S
C1325 C1323 1.327 . S
C1326 C1314 1.349 . S
C1326 H1320 0.950 . S
C1326 C1327 1.327 . S
C1327 H1321 0.950 . S
C1327 C1326 1.327 . S
C1327 C1331 1.429 . S
C1328 C1311 1.574 1_455 S
C1328 H1322 0.949 . S
C1328 C1332 1.368 1_554 S
C1329 C1310 1.429 . S
C1329 C1323 1.429 . S
C1329 C1330 1.523 . S
C1330 C1311 1.368 . S
C1330 C1324 1.368 1_554 S
C1330 C1329 1.523 . S
C1331 C1315 1.429 . S
C1331 C1327 1.429 . S
C1331 C1332 1.523 . S
C1332 C1316 1.368 . S
C1332 C1328 1.368 1_556 S
C1332 C1331 1.523 . S
H1333 C1308 0.950 . S
H1334 C1310 0.950 . S
H1335 C1311 0.949 . S
H1336 C1313 0.950 . S
H1337 C1315 0.950 . S
C1338 C1339 1.349 . S
C1338 C1340 1.327 . S
C1338 H1363 0.948 1_655 S
C1339 C1338 1.349 . S
C1339 C1355 1.349 . S
C1340 C1338 1.327 . S
C1340 C1359 1.429 . S
C1340 H1364 0.950 1_655 S
C1341 C1358 1.574 1_545 S
C1341 C1360 1.368 1_554 S
C1341 H1365 0.949 . S
H1342 C1346 0.949 . S
C1343 C1344 1.349 . S
C1343 C1345 1.327 . S
C1343 H1366 0.948 1_455 S
C1344 C1343 1.349 . S
C1344 C1356 1.349 . S
C1345 C1343 1.327 . S
C1345 C1361 1.429 . S
C1345 H1367 0.950 1_455 S
C1346 H1342 0.949 . S
C1346 C1354 1.574 1_565 S
C1346 C1362 1.368 1_556 S
H1347 C1355 0.950 . S
H1348 C1353 0.950 . S
H1349 C1354 0.949 . S
H1350 C1356 0.950 . S
H1351 C1357 0.950 . S
H1352 C1358 0.949 . S
C1353 H1348 0.950 . S
C1353 C1355 1.327 . S
C1353 C1359 1.429 . S
C1354 C1346 1.574 1_545 S
C1354 H1349 0.949 . S
C1354 C1360 1.368 1_455 S
C1355 C1339 1.349 . S
C1355 H1347 0.950 . S
C1355 C1353 1.327 . S
C1356 C1344 1.349 . S
C1356 H1350 0.950 . S
C1356 C1357 1.327 . S
C1357 H1351 0.950 . S
C1357 C1356 1.327 . S
C1357 C1361 1.429 . S
C1358 C1341 1.574 1_565 S
C1358 H1352 0.949 . S
C1358 C1362 1.368 1_655 S
C1359 C1340 1.429 . S
C1359 C1353 1.429 . S
C1359 C1360 1.523 . S
C1360 C1341 1.368 1_556 S
C1360 C1354 1.368 1_655 S
C1360 C1359 1.523 . S
C1361 C1345 1.429 . S
C1361 C1357 1.429 . S
C1361 C1362 1.523 . S
C1362 C1346 1.368 1_554 S
C1362 C1358 1.368 1_455 S
C1362 C1361 1.523 . S
H1363 C1338 0.948 1_455 S
H1364 C1340 0.950 1_455 S
H1365 C1341 0.949 . S
H1366 C1343 0.948 1_655 S
H1367 C1345 0.950 1_655 S
C1368 C1369 1.349 . S
C1368 C1370 1.327 . S
C1368 H1393 0.950 1_545 S
C1369 C1368 1.349 . S
C1369 C1385 1.349 . S
C1370 C1368 1.327 . S
C1370 C1389 1.428 . S
C1370 H1394 0.951 1_545 S
C1371 C1388 1.574 1_655 S
C1371 C1390 1.368 . S
C1371 H1395 0.949 . S
H1372 C1376 0.949 . S
C1373 C1374 1.349 . S
C1373 C1375 1.327 . S
C1373 H1396 0.950 1_565 S
C1374 C1373 1.349 . S
C1374 C1386 1.349 . S
C1375 C1373 1.327 . S
C1375 C1391 1.428 . S
C1375 H1397 0.951 1_565 S
C1376 H1372 0.949 . S
C1376 C1384 1.574 1_455 S
C1376 C1392 1.368 . S
H1377 C1385 0.950 . S
H1378 C1383 0.950 . S
H1379 C1384 0.949 . S
H1380 C1386 0.950 . S
H1381 C1387 0.950 . S
H1382 C1388 0.949 . S
C1383 H1378 0.950 . S
C1383 C1385 1.327 . S
C1383 C1389 1.429 . S
C1384 C1376 1.574 1_655 S
C1384 H1379 0.949 . S
C1384 C1390 1.368 1_565 S
C1385 C1369 1.349 . S
C1385 H1377 0.950 . S
C1385 C1383 1.327 . S
C1386 C1374 1.349 . S
C1386 H1380 0.950 . S
C1386 C1387 1.327 . S
C1387 H1381 0.950 . S
C1387 C1386 1.327 . S
C1387 C1391 1.429 . S
C1388 C1371 1.574 1_455 S
C1388 H1382 0.949 . S
C1388 C1392 1.368 1_545 S
C1389 C1370 1.428 . S
C1389 C1383 1.429 . S
C1389 C1390 1.523 . S
C1390 C1371 1.368 . S
C1390 C1384 1.368 1_545 S
C1390 C1389 1.523 . S
C1391 C1375 1.428 . S
C1391 C1387 1.429 . S
C1391 C1392 1.523 . S
C1392 C1376 1.368 . S
C1392 C1388 1.368 1_565 S
C1392 C1391 1.523 . S
H1393 C1368 0.950 1_565 S
H1394 C1370 0.951 1_565 S
H1395 C1371 0.949 . S
H1396 C1373 0.950 1_545 S
H1397 C1375 0.951 1_545 S
C1398 C1399 1.349 . S
C1398 C1400 1.327 . S
C1398 H1423 0.950 . S
C1399 C1398 1.349 . S
C1399 C1415 1.349 . S
C1400 C1398 1.327 . S
C1400 C1419 1.429 . S
C1400 H1424 0.950 . S
C1401 C1418 1.574 . S
C1401 C1420 1.368 . S
C1401 H1425 0.949 . S
H1402 C1406 0.949 . S
C1403 C1404 1.349 . S
C1403 C1405 1.327 . S
C1403 H1426 0.950 . S
C1404 C1403 1.349 . S
C1404 C1416 1.349 . S
C1405 C1403 1.327 . S
C1405 C1421 1.429 . S
C1405 H1427 0.950 . S
C1406 H1402 0.949 . S
C1406 C1414 1.574 . S
C1406 C1422 1.368 . S
H1407 C1415 0.950 . S
H1408 C1413 0.950 . S
H1409 C1414 0.949 . S
H1410 C1416 0.950 . S
H1411 C1417 0.950 . S
H1412 C1418 0.949 . S
C1413 H1408 0.950 . S
C1413 C1415 1.327 . S
C1413 C1419 1.429 . S
C1414 C1406 1.574 . S
C1414 H1409 0.949 . S
C1414 C1420 1.368 1_565 S
C1415 C1399 1.349 . S
C1415 H1407 0.950 . S
C1415 C1413 1.327 . S
C1416 C1404 1.349 . S
C1416 H1410 0.950 . S
C1416 C1417 1.327 . S
C1417 H1411 0.950 . S
C1417 C1416 1.327 . S
C1417 C1421 1.429 . S
C1418 C1401 1.574 . S
C1418 H1412 0.949 . S
C1418 C1422 1.368 1_545 S
C1419 C1400 1.429 . S
C1419 C1413 1.429 . S
C1419 C1420 1.523 . S
C1420 C1401 1.368 . S
C1420 C1414 1.368 1_545 S
C1420 C1419 1.523 . S
C1421 C1405 1.429 . S
C1421 C1417 1.429 . S
C1421 C1422 1.523 . S
C1422 C1406 1.368 . S
C1422 C1418 1.368 1_565 S
C1422 C1421 1.523 . S
H1423 C1398 0.950 . S
H1424 C1400 0.950 . S
H1425 C1401 0.949 . S
H1426 C1403 0.950 . S
H1427 C1405 0.950 . S
C1428 C1429 1.349 . S
C1428 C1430 1.327 . S
C1428 H1453 0.950 . S
C1429 C1428 1.349 . S
C1429 C1445 1.349 . S
C1430 C1428 1.327 . S
C1430 C1449 1.429 . S
C1430 H1454 0.950 . S
C1431 C1448 1.574 . S
C1431 C1450 1.368 . S
C1431 H1455 0.949 . S
H1432 C1436 0.949 . S
C1433 C1434 1.349 . S
C1433 C1435 1.327 . S
C1433 H1456 0.950 . S
C1434 C1433 1.349 . S
C1434 C1446 1.349 . S
C1435 C1433 1.327 . S
C1435 C1451 1.429 . S
C1435 H1457 0.950 . S
C1436 H1432 0.949 . S
C1436 C1444 1.574 . S
C1436 C1452 1.368 . S
H1437 C1445 0.950 . S
H1438 C1443 0.950 . S
H1439 C1444 0.949 . S
H1440 C1446 0.950 . S
H1441 C1447 0.950 . S
H1442 C1448 0.949 . S
C1443 H1438 0.950 . S
C1443 C1445 1.327 . S
C1443 C1449 1.429 . S
C1444 C1436 1.574 . S
C1444 H1439 0.949 . S
C1444 C1450 1.368 . S
C1445 C1429 1.349 . S
C1445 H1437 0.950 . S
C1445 C1443 1.327 . S
C1446 C1434 1.349 . S
C1446 H1440 0.950 . S
C1446 C1447 1.327 . S
C1447 H1441 0.950 . S
C1447 C1446 1.327 . S
C1447 C1451 1.429 . S
C1448 C1431 1.574 . S
C1448 H1442 0.949 . S
C1448 C1452 1.368 . S
C1449 C1430 1.429 . S
C1449 C1443 1.429 . S
C1449 C1450 1.523 . S
C1450 C1431 1.368 . S
C1450 C1444 1.368 . S
C1450 C1449 1.523 . S
C1451 C1435 1.429 . S
C1451 C1447 1.429 . S
C1451 C1452 1.523 . S
C1452 C1436 1.368 . S
C1452 C1448 1.368 . S
C1452 C1451 1.523 . S
H1453 C1428 0.950 . S
H1454 C1430 0.950 . S
H1455 C1431 0.949 . S
H1456 C1433 0.950 . S
H1457 C1435 0.950 . S
C1458 C1459 1.349 . S
C1458 C1460 1.327 . S
C1458 H1483 0.950 . S
C1459 C1458 1.349 . S
C1459 C1475 1.349 . S
C1460 C1458 1.327 . S
C1460 C1479 1.429 . S
C1460 H1484 0.950 . S
C1461 C1478 1.574 . S
C1461 C1480 1.368 1_655 S
C1461 H1485 0.949 . S
H1462 C1466 0.949 . S
C1463 C1464 1.349 . S
C1463 C1465 1.327 . S
C1463 H1486 0.950 . S
C1464 C1463 1.349 . S
C1464 C1476 1.349 . S
C1465 C1463 1.327 . S
C1465 C1481 1.429 . S
C1465 H1487 0.950 . S
C1466 H1462 0.949 . S
C1466 C1474 1.574 . S
C1466 C1482 1.368 1_455 S
H1467 C1475 0.950 . S
H1468 C1473 0.950 . S
H1469 C1474 0.949 . S
H1470 C1476 0.950 . S
H1471 C1477 0.950 . S
H1472 C1478 0.949 . S
C1473 H1468 0.950 . S
C1473 C1475 1.327 . S
C1473 C1479 1.429 . S
C1474 C1466 1.574 . S
C1474 H1469 0.949 . S
C1474 C1480 1.368 . S
C1475 C1459 1.349 . S
C1475 H1467 0.950 . S
C1475 C1473 1.327 . S
C1476 C1464 1.349 . S
C1476 H1470 0.950 . S
C1476 C1477 1.327 . S
C1477 H1471 0.950 . S
C1477 C1476 1.327 . S
C1477 C1481 1.429 . S
C1478 C1461 1.574 . S
C1478 H1472 0.949 . S
C1478 C1482 1.368 . S
C1479 C1460 1.429 . S
C1479 C1473 1.429 . S
C1479 C1480 1.523 . S
C1480 C1461 1.368 1_455 S
C1480 C1474 1.368 . S
C1480 C1479 1.523 . S
C1481 C1465 1.429 . S
C1481 C1477 1.429 . S
C1481 C1482 1.523 . S
C1482 C1466 1.368 1_655 S
C1482 C1478 1.368 . S
C1482 C1481 1.523 . S
H1483 C1458 0.950 . S
H1484 C1460 0.950 . S
H1485 C1461 0.949 . S
H1486 C1463 0.950 . S
H1487 C1465 0.950 . S
C1488 C1489 1.349 . S
C1488 C1490 1.327 . S
C1488 H1513 0.950 . S
C1489 C1488 1.349 . S
C1489 C1505 1.349 . S
C1490 C1488 1.327 . S
C1490 C1509 1.429 . S
C1490 H1514 0.950 . S
C1491 C1508 1.574 . S
C1491 C1510 1.368 . S
C1491 H1515 0.949 . S
H1492 C1496 0.949 . S
C1493 C1494 1.349 . S
C1493 C1495 1.327 . S
C1493 H1516 0.950 . S
C1494 C1493 1.349 . S
C1494 C1506 1.349 . S
C1495 C1493 1.327 . S
C1495 C1511 1.429 . S
C1495 H1517 0.950 . S
C1496 H1492 0.949 . S
C1496 C1504 1.574 . S
C1496 C1512 1.368 . S
H1497 C1505 0.950 . S
H1498 C1503 0.950 . S
H1499 C1504 0.949 . S
H1500 C1506 0.950 . S
H1501 C1507 0.950 . S
H1502 C1508 0.949 . S
C1503 H1498 0.950 . S
C1503 C1505 1.327 . S
C1503 C1509 1.429 . S
C1504 C1496 1.574 . S
C1504 H1499 0.949 . S
C1504 C1510 1.368 . S
C1505 C1489 1.349 . S
C1505 H1497 0.950 . S
C1505 C1503 1.327 . S
C1506 C1494 1.349 . S
C1506 H1500 0.950 . S
C1506 C1507 1.327 . S
C1507 H1501 0.950 . S
C1507 C1506 1.327 . S
C1507 C1511 1.429 . S
C1508 C1491 1.574 . S
C1508 H1502 0.949 . S
C1508 C1512 1.368 . S
C1509 C1490 1.429 . S
C1509 C1503 1.429 . S
C1509 C1510 1.523 . S
C1510 C1491 1.368 . S
C1510 C1504 1.368 . S
C1510 C1509 1.523 . S
C1511 C1495 1.429 . S
C1511 C1507 1.429 . S
C1511 C1512 1.523 . S
C1512 C1496 1.368 . S
C1512 C1508 1.368 . S
C1512 C1511 1.523 . S
H1513 C1488 0.950 . S
H1514 C1490 0.950 . S
H1515 C1491 0.949 . S
H1516 C1493 0.950 . S
H1517 C1495 0.950 . S
C1518 C1519 1.349 . S
C1518 C1520 1.327 . S
C1518 H1543 0.950 . S
C1519 C1518 1.349 . S
C1519 C1535 1.349 . S
C1520 C1518 1.327 . S
C1520 C1539 1.429 . S
C1520 H1544 0.950 . S
C1521 C1538 1.574 . S
C1521 C1540 1.368 . S
C1521 H1545 0.949 . S
H1522 C1526 0.949 . S
C1523 C1524 1.349 . S
C1523 C1525 1.327 . S
C1523 H1546 0.950 . S
C1524 C1523 1.349 . S
C1524 C1536 1.349 . S
C1525 C1523 1.327 . S
C1525 C1541 1.429 . S
C1525 H1547 0.950 . S
C1526 H1522 0.949 . S
C1526 C1534 1.574 . S
C1526 C1542 1.368 . S
H1527 C1535 0.950 . S
H1528 C1533 0.950 . S
H1529 C1534 0.949 . S
H1530 C1536 0.950 . S
H1531 C1537 0.950 . S
H1532 C1538 0.949 . S
C1533 H1528 0.950 . S
C1533 C1535 1.327 . S
C1533 C1539 1.429 . S
C1534 C1526 1.574 . S
C1534 H1529 0.949 . S
C1534 C1540 1.368 . S
C1535 C1519 1.349 . S
C1535 H1527 0.950 . S
C1535 C1533 1.327 . S
C1536 C1524 1.349 . S
C1536 H1530 0.950 . S
C1536 C1537 1.327 . S
C1537 H1531 0.950 . S
C1537 C1536 1.327 . S
C1537 C1541 1.429 . S
C1538 C1521 1.574 . S
C1538 H1532 0.949 . S
C1538 C1542 1.368 . S
C1539 C1520 1.429 . S
C1539 C1533 1.429 . S
C1539 C1540 1.523 . S
C1540 C1521 1.368 . S
C1540 C1534 1.368 . S
C1540 C1539 1.523 . S
C1541 C1525 1.429 . S
C1541 C1537 1.429 . S
C1541 C1542 1.523 . S
C1542 C1526 1.368 . S
C1542 C1538 1.368 . S
C1542 C1541 1.523 . S
H1543 C1518 0.950 . S
H1544 C1520 0.950 . S
H1545 C1521 0.949 . S
H1546 C1523 0.950 . S
H1547 C1525 0.950 . S
C1548 C1549 1.349 . S
C1548 C1550 1.327 . S
C1548 H1573 0.950 . S
C1549 C1548 1.349 . S
C1549 C1565 1.349 . S
C1550 C1548 1.327 . S
C1550 C1569 1.429 . S
C1550 H1574 0.950 . S
C1551 C1568 1.574 . S
C1551 C1570 1.368 . S
C1551 H1575 0.949 . S
H1552 C1556 0.949 . S
C1553 C1554 1.349 . S
C1553 C1555 1.327 . S
C1553 H1576 0.950 . S
C1554 C1553 1.349 . S
C1554 C1566 1.349 . S
C1555 C1553 1.327 . S
C1555 C1571 1.429 . S
C1555 H1577 0.950 . S
C1556 H1552 0.949 . S
C1556 C1564 1.574 . S
C1556 C1572 1.368 . S
H1557 C1565 0.950 . S
H1558 C1563 0.950 . S
H1559 C1564 0.949 . S
H1560 C1566 0.950 . S
H1561 C1567 0.950 . S
H1562 C1568 0.949 . S
C1563 H1558 0.950 . S
C1563 C1565 1.327 . S
C1563 C1569 1.429 . S
C1564 C1556 1.574 . S
C1564 H1559 0.949 . S
C1564 C1570 1.368 . S
C1565 C1549 1.349 . S
C1565 H1557 0.950 . S
C1565 C1563 1.327 . S
C1566 C1554 1.349 . S
C1566 H1560 0.950 . S
C1566 C1567 1.327 . S
C1567 H1561 0.950 . S
C1567 C1566 1.327 . S
C1567 C1571 1.429 . S
C1568 C1551 1.574 . S
C1568 H1562 0.949 . S
C1568 C1572 1.368 . S
C1569 C1550 1.429 . S
C1569 C1563 1.429 . S
C1569 C1570 1.523 . S
C1570 C1551 1.368 . S
C1570 C1564 1.368 . S
C1570 C1569 1.523 . S
C1571 C1555 1.429 . S
C1571 C1567 1.429 . S
C1571 C1572 1.523 . S
C1572 C1556 1.368 . S
C1572 C1568 1.368 . S
C1572 C1571 1.523 . S
H1573 C1548 0.950 . S
H1574 C1550 0.950 . S
H1575 C1551 0.949 . S
H1576 C1553 0.950 . S
H1577 C1555 0.950 . S
C1578 C1579 1.349 . S
C1578 C1580 1.327 . S
C1578 H1603 0.950 . S
C1579 C1578 1.349 . S
C1579 C1595 1.349 . S
C1580 C1578 1.327 . S
C1580 C1599 1.429 . S
C1580 H1604 0.950 . S
C1581 C1598 1.574 . S
C1581 C1600 1.368 . S
C1581 H1605 0.949 . S
H1582 C1586 0.949 . S
C1583 C1584 1.349 . S
C1583 C1585 1.327 . S
C1583 H1606 0.950 . S
C1584 C1583 1.349 . S
C1584 C1596 1.349 . S
C1585 C1583 1.327 . S
C1585 C1601 1.429 . S
C1585 H1607 0.950 . S
C1586 H1582 0.949 . S
C1586 C1594 1.574 . S
C1586 C1602 1.368 . S
H1587 C1595 0.950 . S
H1588 C1593 0.950 . S
H1589 C1594 0.949 . S
H1590 C1596 0.950 . S
H1591 C1597 0.950 . S
H1592 C1598 0.949 . S
C1593 H1588 0.950 . S
C1593 C1595 1.327 . S
C1593 C1599 1.429 . S
C1594 C1586 1.574 . S
C1594 H1589 0.949 . S
C1594 C1600 1.368 . S
C1595 C1579 1.349 . S
C1595 H1587 0.950 . S
C1595 C1593 1.327 . S
C1596 C1584 1.349 . S
C1596 H1590 0.950 . S
C1596 C1597 1.327 . S
C1597 H1591 0.950 . S
C1597 C1596 1.327 . S
C1597 C1601 1.429 . S
C1598 C1581 1.574 . S
C1598 H1592 0.949 . S
C1598 C1602 1.368 . S
C1599 C1580 1.429 . S
C1599 C1593 1.429 . S
C1599 C1600 1.523 . S
C1600 C1581 1.368 . S
C1600 C1594 1.368 . S
C1600 C1599 1.523 . S
C1601 C1585 1.429 . S
C1601 C1597 1.429 . S
C1601 C1602 1.523 . S
C1602 C1586 1.368 . S
C1602 C1598 1.368 . S
C1602 C1601 1.523 . S
H1603 C1578 0.950 . S
H1604 C1580 0.950 . S
H1605 C1581 0.949 . S
H1606 C1583 0.950 . S
H1607 C1585 0.950 . S
C1608 C1609 1.349 . S
C1608 C1610 1.327 . S
C1608 H1633 0.950 . S
C1609 C1608 1.349 . S
C1609 C1625 1.349 . S
C1610 C1608 1.327 . S
C1610 C1629 1.429 . S
C1610 H1634 0.950 . S
C1611 C1628 1.574 . S
C1611 C1630 1.368 . S
C1611 H1635 0.949 . S
H1612 C1616 0.949 . S
C1613 C1614 1.349 . S
C1613 C1615 1.327 . S
C1613 H1636 0.950 . S
C1614 C1613 1.349 . S
C1614 C1626 1.349 . S
C1615 C1613 1.327 . S
C1615 C1631 1.429 . S
C1615 H1637 0.950 . S
C1616 H1612 0.949 . S
C1616 C1624 1.574 . S
C1616 C1632 1.368 . S
H1617 C1625 0.950 . S
H1618 C1623 0.950 . S
H1619 C1624 0.949 . S
H1620 C1626 0.950 . S
H1621 C1627 0.950 . S
H1622 C1628 0.949 . S
C1623 H1618 0.950 . S
C1623 C1625 1.327 . S
C1623 C1629 1.429 . S
C1624 C1616 1.574 . S
C1624 H1619 0.949 . S
C1624 C1630 1.368 . S
C1625 C1609 1.349 . S
C1625 H1617 0.950 . S
C1625 C1623 1.327 . S
C1626 C1614 1.349 . S
C1626 H1620 0.950 . S
C1626 C1627 1.327 . S
C1627 H1621 0.950 . S
C1627 C1626 1.327 . S
C1627 C1631 1.429 . S
C1628 C1611 1.574 . S
C1628 H1622 0.949 . S
C1628 C1632 1.368 . S
C1629 C1610 1.429 . S
C1629 C1623 1.429 . S
C1629 C1630 1.523 . S
C1630 C1611 1.368 . S
C1630 C1624 1.368 . S
C1630 C1629 1.523 . S
C1631 C1615 1.429 . S
C1631 C1627 1.429 . S
C1631 C1632 1.523 . S
C1632 C1616 1.368 . S
C1632 C1628 1.368 . S
C1632 C1631 1.523 . S
H1633 C1608 0.950 . S
H1634 C1610 0.950 . S
H1635 C1611 0.949 . S
H1636 C1613 0.950 . S
H1637 C1615 0.950 . S
C1638 C1639 1.349 . S
C1638 C1640 1.327 . S
C1638 H1663 0.950 . S
C1639 C1638 1.349 . S
C1639 C1655 1.349 . S
C1640 C1638 1.327 . S
C1640 C1659 1.429 . S
C1640 H1664 0.950 . S
C1641 C1658 1.574 . S
C1641 C1660 1.368 . S
C1641 H1665 0.949 . S
H1642 C1646 0.949 . S
C1643 C1644 1.349 . S
C1643 C1645 1.327 . S
C1643 H1666 0.950 . S
C1644 C1643 1.349 . S
C1644 C1656 1.349 . S
C1645 C1643 1.327 . S
C1645 C1661 1.429 . S
C1645 H1667 0.950 . S
C1646 H1642 0.949 . S
C1646 C1654 1.574 . S
C1646 C1662 1.368 . S
H1647 C1655 0.950 . S
H1648 C1653 0.950 . S
H1649 C1654 0.949 . S
H1650 C1656 0.950 . S
H1651 C1657 0.950 . S
H1652 C1658 0.949 . S
C1653 H1648 0.950 . S
C1653 C1655 1.327 . S
C1653 C1659 1.429 . S
C1654 C1646 1.574 . S
C1654 H1649 0.949 . S
C1654 C1660 1.368 . S
C1655 C1639 1.349 . S
C1655 H1647 0.950 . S
C1655 C1653 1.327 . S
C1656 C1644 1.349 . S
C1656 H1650 0.950 . S
C1656 C1657 1.327 . S
C1657 H1651 0.950 . S
C1657 C1656 1.327 . S
C1657 C1661 1.429 . S
C1658 C1641 1.574 . S
C1658 H1652 0.949 . S
C1658 C1662 1.368 . S
C1659 C1640 1.429 . S
C1659 C1653 1.429 . S
C1659 C1660 1.523 . S
C1660 C1641 1.368 . S
C1660 C1654 1.368 . S
C1660 C1659 1.523 . S
C1661 C1645 1.429 . S
C1661 C1657 1.429 . S
C1661 C1662 1.523 . S
C1662 C1646 1.368 . S
C1662 C1658 1.368 . S
C1662 C1661 1.523 . S
H1663 C1638 0.950 . S
H1664 C1640 0.950 . S
H1665 C1641 0.949 . S
H1666 C1643 0.950 . S
H1667 C1645 0.950 . S
C1668 C1669 1.349 . S
C1668 C1670 1.327 . S
C1668 H1693 0.950 . S
C1669 C1668 1.349 . S
C1669 C1685 1.349 . S
C1670 C1668 1.327 . S
C1670 C1689 1.429 . S
C1670 H1694 0.950 . S
C1671 C1688 1.574 . S
C1671 C1690 1.368 . S
C1671 H1695 0.949 . S
H1672 C1676 0.949 . S
C1673 C1674 1.349 . S
C1673 C1675 1.327 . S
C1673 H1696 0.950 . S
C1674 C1673 1.349 . S
C1674 C1686 1.349 . S
C1675 C1673 1.327 . S
C1675 C1691 1.429 . S
C1675 H1697 0.950 . S
C1676 H1672 0.949 . S
C1676 C1684 1.574 . S
C1676 C1692 1.368 . S
H1677 C1685 0.950 . S
H1678 C1683 0.950 . S
H1679 C1684 0.949 . S
H1680 C1686 0.950 . S
H1681 C1687 0.950 . S
H1682 C1688 0.949 . S
C1683 H1678 0.950 . S
C1683 C1685 1.327 . S
C1683 C1689 1.429 . S
C1684 C1676 1.574 . S
C1684 H1679 0.949 . S
C1684 C1690 1.368 . S
C1685 C1669 1.349 . S
C1685 H1677 0.950 . S
C1685 C1683 1.327 . S
C1686 C1674 1.349 . S
C1686 H1680 0.950 . S
C1686 C1687 1.327 . S
C1687 H1681 0.950 . S
C1687 C1686 1.327 . S
C1687 C1691 1.429 . S
C1688 C1671 1.574 . S
C1688 H1682 0.949 . S
C1688 C1692 1.368 . S
C1689 C1670 1.429 . S
C1689 C1683 1.429 . S
C1689 C1690 1.523 . S
C1690 C1671 1.368 . S
C1690 C1684 1.368 . S
C1690 C1689 1.523 . S
C1691 C1675 1.429 . S
C1691 C1687 1.429 . S
C1691 C1692 1.523 . S
C1692 C1676 1.368 . S
C1692 C1688 1.368 . S
C1692 C1691 1.523 . S
H1693 C1668 0.950 . S
H1694 C1670 0.950 . S
H1695 C1671 0.949 . S
H1696 C1673 0.950 . S
H1697 C1675 0.950 . S
C1698 C1699 1.349 . S
C1698 C1700 1.327 . S
C1698 H1723 0.950 . S
C1699 C1698 1.349 . S
C1699 C1715 1.349 . S
C1700 C1698 1.327 . S
C1700 C1719 1.429 . S
C1700 H1724 0.950 . S
C1701 C1718 1.574 . S
C1701 C1720 1.368 . S
C1701 H1725 0.949 . S
H1702 C1706 0.949 . S
C1703 C1704 1.349 . S
C1703 C1705 1.327 . S
C1703 H1726 0.950 . S
C1704 C1703 1.349 . S
C1704 C1716 1.349 . S
C1705 C1703 1.327 . S
C1705 C1721 1.429 . S
C1705 H1727 0.950 . S
C1706 H1702 0.949 . S
C1706 C1714 1.574 . S
C1706 C1722 1.368 . S
H1707 C1715 0.950 . S
H1708 C1713 0.950 . S
H1709 C1714 0.949 . S
H1710 C1716 0.950 . S
H1711 C1717 0.950 . S
H1712 C1718 0.949 . S
C1713 H1708 0.950 . S
C1713 C1715 1.327 . S
C1713 C1719 1.429 . S
C1714 C1706 1.574 . S
C1714 H1709 0.949 . S
C1714 C1720 1.368 . S
C1715 C1699 1.349 . S
C1715 H1707 0.950 . S
C1715 C1713 1.327 . S
C1716 C1704 1.349 . S
C1716 H1710 0.950 . S
C1716 C1717 1.327 . S
C1717 H1711 0.950 . S
C1717 C1716 1.327 . S
C1717 C1721 1.429 . S
C1718 C1701 1.574 . S
C1718 H1712 0.949 . S
C1718 C1722 1.368 . S
C1719 C1700 1.429 . S
C1719 C1713 1.429 . S
C1719 C1720 1.523 . S
C1720 C1701 1.368 . S
C1720 C1714 1.368 . S
C1720 C1719 1.523 . S
C1721 C1705 1.429 . S
C1721 C1717 1.429 . S
C1721 C1722 1.523 . S
C1722 C1706 1.368 . S
C1722 C1718 1.368 . S
C1722 C1721 1.523 . S
H1723 C1698 0.950 . S
H1724 C1700 0.950 . S
H1725 C1701 0.949 . S
H1726 C1703 0.950 . S
H1727 C1705 0.950 . S
C529 N13 0.653 . S
C534 C54 0.650 . S
C559 C87 0.650 . S
C564 N46 0.653 . S
C589 C120 0.650 1_655 S
C594 N79 0.653 . S
C619 N112 0.653 . S
C624 C21 0.650 1_565 S
C649 C252 0.650 1_455 S
C654 N145 0.653 . S
C679 C153 0.650 1_545 S
C684 N178 0.653 . S
C709 C186 0.650 . S
C714 N211 0.653 . S
C739 N244 0.653 . S
C744 C219 0.650 . S
C769 N277 0.653 . S
C774 C318 0.650 . S
C799 N310 0.653 . S
C804 C351 0.650 . S
C829 C384 0.650 1_455 S
C834 N343 0.653 . S
C859 C285 0.650 1_545 S
C864 N376 0.653 . S
C889 C516 0.650 1_655 S
C894 N409 0.653 . S
C919 C417 0.650 1_565 S
C924 N442 0.653 . S
C949 N475 0.653 . S
C954 C450 0.650 . S
C979 N508 0.653 . S
C984 C483 0.650 . S
C1009 N2 1.939 . S
C1014 N68 1.939 . S
C1039 N35 1.940 . S
C1044 N101 1.940 . S
C1069 N200 1.940 . S
C1074 N134 1.940 . S
C1099 N233 1.939 . S
C1104 N167 1.939 . S
C1129 N332 1.939 . S
C1134 N266 1.939 . S
C1159 N299 1.940 . S
C1164 N365 1.940 . S
C1189 N398 1.940 . S
C1194 N464 1.940 . S
C1219 N431 1.939 . S
C1224 N497 1.939 . S
C1249 C18 1.807 . S
C1254 C282 1.807 . S
C1279 C51 1.807 . S
C1284 C315 1.807 . S
C1309 C84 1.808 . S
C1314 C348 1.808 . S
C1339 C381 1.808 . S
C1344 C117 1.808 . S
C1369 C414 1.808 . S
C1374 C150 1.808 . S
C1399 C183 1.808 . S
C1404 C447 1.808 . S
C1429 C216 1.807 . S
C1434 C480 1.807 . S
C1459 C513 1.807 . S
C1464 C249 1.807 . S
C1489 C172 1.609 . S
C1494 C7 1.609 . S
C1519 C205 1.609 . S
C1524 C40 1.609 . S
C1549 C73 1.609 . S
C1554 C238 1.609 . S
C1579 C139 1.609 . S
C1584 C106 1.609 . S
C1609 C271 1.609 . S
C1614 C436 1.609 . S
C1639 C469 1.609 . S
C1644 C304 1.609 . S
C1669 C502 1.609 . S
C1674 C337 1.609 . S
C1699 C370 1.609 . S
C1704 C403 1.609 . S
