# Generated by pormake.
# Topology ung, (4)-cn, num edge types: 1
# Building blocks:
#     Node 0, Type 0, BuildingBlock: KUFVIS_clean_sbu_0, # of connection points: 4
#     Node 1, Type 0, BuildingBlock: KUFVIS_clean_sbu_0, # of connection points: 4
#     Node 2, Type 0, BuildingBlock: KUFVIS_clean_sbu_0, # of connection points: 4
#     Node 3, Type 0, BuildingBlock: KUFVIS_clean_sbu_0, # of connection points: 4
#     Node 4, Type 0, BuildingBlock: KUFVIS_clean_sbu_0, # of connection points: 4
#     Node 5, Type 0, BuildingBlock: KUFVIS_clean_sbu_0, # of connection points: 4
#     Node 6, Type 0, BuildingBlock: KUFVIS_clean_sbu_0, # of connection points: 4
#     Node 7, Type 0, BuildingBlock: KUFVIS_clean_sbu_0, # of connection points: 4
#     Node 8, Type 0, BuildingBlock: KUFVIS_clean_sbu_0, # of connection points: 4
#     Node 9, Type 0, BuildingBlock: KUFVIS_clean_sbu_0, # of connection points: 4
#     Node 10, Type 0, BuildingBlock: KUFVIS_clean_sbu_0, # of connection points: 4
#     Node 11, Type 0, BuildingBlock: KUFVIS_clean_sbu_0, # of connection points: 4
#     Node 12, Type 0, BuildingBlock: KUFVIS_clean_sbu_0, # of connection points: 4
#     Node 13, Type 0, BuildingBlock: KUFVIS_clean_sbu_0, # of connection points: 4
#     Node 14, Type 0, BuildingBlock: KUFVIS_clean_sbu_0, # of connection points: 4
#     Node 15, Type 0, BuildingBlock: KUFVIS_clean_sbu_0, # of connection points: 4
#     Node 16, Type 0, BuildingBlock: KUFVIS_clean_sbu_0, # of connection points: 4
#     Node 17, Type 0, BuildingBlock: KUFVIS_clean_sbu_0, # of connection points: 4
#     Edge 18, Type (0, 0), None
#     Edge 19, Type (0, 0), None
#     Edge 20, Type (0, 0), None
#     Edge 21, Type (0, 0), None
#     Edge 22, Type (0, 0), None
#     Edge 23, Type (0, 0), None
#     Edge 24, Type (0, 0), None
#     Edge 25, Type (0, 0), None
#     Edge 26, Type (0, 0), None
#     Edge 27, Type (0, 0), None
#     Edge 28, Type (0, 0), None
#     Edge 29, Type (0, 0), None
#     Edge 30, Type (0, 0), None
#     Edge 31, Type (0, 0), None
#     Edge 32, Type (0, 0), None
#     Edge 33, Type (0, 0), None
#     Edge 34, Type (0, 0), None
#     Edge 35, Type (0, 0), None
#     Edge 36, Type (0, 0), None
#     Edge 37, Type (0, 0), None
#     Edge 38, Type (0, 0), None
#     Edge 39, Type (0, 0), None
#     Edge 40, Type (0, 0), None
#     Edge 41, Type (0, 0), None
#     Edge 42, Type (0, 0), None
#     Edge 43, Type (0, 0), None
#     Edge 44, Type (0, 0), None
#     Edge 45, Type (0, 0), None
#     Edge 46, Type (0, 0), None
#     Edge 47, Type (0, 0), None
#     Edge 48, Type (0, 0), None
#     Edge 49, Type (0, 0), None
#     Edge 50, Type (0, 0), None
#     Edge 51, Type (0, 0), None
#     Edge 52, Type (0, 0), None
#     Edge 53, Type (0, 0), None
# Relax obj value: 0.112
# Max RMSD: 0.245
# Mean RMSD: 0.224
data_MOF--net-ung--node1-KUFVIS_clean_sbu_0--edge1-none
_symmetry_space_group_name_H-M    P1
_symmetry_Int_Tables_number       1
_symmetry_cell_setting            triclinic
loop_
_symmetry_equiv_pos_as_xyz
'x, y, z'
_cell_length_a     32.330647
_cell_length_b     33.527284
_cell_length_c     10.076272
_cell_angle_alpha  90.308281
_cell_angle_beta   88.090304
_cell_angle_gamma 120.70393
loop_
_atom_site_label
_atom_site_type_symbol
_atom_site_fract_x
_atom_site_fract_y
_atom_site_fract_z
_atom_type_partial_charge
Mn0 Mn 0.08904 0.64913 0.26429 0.0
Mn1 Mn 0.97423 0.5627 0.26543 0.0
C2 C 0.03533 0.65877 0.13912 0.0
C3 C 0.14091 0.71055 0.40126 0.0
C4 C 0.05237 0.56383 0.08773 0.0
O5 O 0.087 0.60551 0.40602 0.0
O6 O 0.00703 0.56098 0.42697 0.0
C7 C 0.93263 0.58427 0.50194 0.0
N8 N 0.93229 0.57568 0.36969 0.0
C9 C 0.84972 0.55538 0.35774 0.0
C10 C 0.84818 0.56051 0.49487 0.0
C11 C 0.89047 0.57824 0.56562 0.0
C12 C 0.89314 0.56417 0.2984 0.0
H13 H 0.96418 0.59413 0.55856 0.0
C14 C 0.04934 0.57654 0.46995 0.0
O15 O 0.15847 0.69364 0.31441 0.0
O16 O 0.0952 0.69295 0.40424 0.0
N17 N 0.93783 0.56121 0.11943 0.0
C18 C 0.94624 0.55889 0.98803 0.0
C19 C 0.91261 0.55542 0.89787 0.0
C20 C 0.86803 0.54881 0.9444 0.0
C21 C 0.85929 0.54895 0.08127 0.0
C22 C 0.89677 0.55826 0.16488 0.0
H23 H 0.9796 0.56244 0.95121 0.0
O24 O 0.08117 0.68778 0.12805 0.0
O25 O 0.02184 0.62769 0.23326 0.0
O26 O 0.0878 0.6046 0.115 0.0
O27 O 0.01193 0.54425 0.15161 0.0
C28 C 0.81479 0.53917 0.13888 0.0
C29 C 0.80954 0.54034 0.2781 0.0
H30 H 0.81464 0.55015 0.54693 0.0
H31 H 0.88961 0.58567 0.66935 0.0
H32 H 0.92064 0.55499 0.79346 0.0
H33 H 0.84076 0.54311 0.87478 0.0
H34 H 0.78423 0.52962 0.07772 0.0
H35 H 0.77467 0.52979 0.32304 0.0
Mn36 Mn 0.51485 0.48641 0.24886 0.0
Mn37 Mn 0.47493 0.56102 0.25914 0.0
C38 C 0.44625 0.46798 0.38634 0.0
C39 C 0.50744 0.42683 0.1015 0.0
C40 C 0.55552 0.57212 0.43092 0.0
O41 O 0.55773 0.53232 0.10338 0.0
O42 O 0.51904 0.57126 0.10315 0.0
C43 C 0.41892 0.52793 0.01592 0.0
N44 N 0.42088 0.53713 0.14815 0.0
C45 C 0.33984 0.5222 0.15544 0.0
C46 C 0.33723 0.51336 0.01886 0.0
C47 C 0.37669 0.51552 0.94935 0.0
C48 C 0.38248 0.53328 0.21724 0.0
H49 H 0.44953 0.5306 0.96117 0.0
C50 C 0.54985 0.56182 0.05191 0.0
O51 O 0.54198 0.4451 0.18457 0.0
O52 O 0.4776 0.44108 0.11034 0.0
N53 N 0.43122 0.55568 0.40038 0.0
C54 C 0.44139 0.57066 0.52769 0.0
C55 C 0.40566 0.57062 0.61079 0.0
C56 C 0.36015 0.55636 0.56137 0.0
C57 C 0.35114 0.54313 0.42837 0.0
C58 C 0.38794 0.54319 0.35071 0.0
H59 H 0.47648 0.58265 0.56575 0.0
O60 O 0.46712 0.44394 0.39073 0.0
O61 O 0.46356 0.49946 0.29267 0.0
O62 O 0.55635 0.53518 0.39466 0.0
O63 O 0.52909 0.58563 0.37866 0.0
C64 C 0.30783 0.53189 0.36834 0.0
C65 C 0.30235 0.52176 0.23181 0.0
H66 H 0.30536 0.50538 0.96597 0.0
H67 H 0.37489 0.50841 0.84426 0.0
H68 H 0.41352 0.58239 0.71199 0.0
H69 H 0.33288 0.55695 0.62535 0.0
H70 H 0.27881 0.53175 0.42569 0.0
H71 H 0.26926 0.51399 0.18632 0.0
Mn72 Mn 0.63732 0.02696 0.27342 0.0
Mn73 Mn 0.62984 0.08417 0.22361 0.0
C74 C 0.72077 0.09335 0.18235 0.0
C75 C 0.67549 -0.00368 0.42068 0.0
C76 C 0.56408 0.03147 0.08778 0.0
O77 O 0.57802 -0.00382 0.40053 0.0
O78 O 0.60304 0.0684 0.41276 0.0
C79 C 0.62834 0.16367 0.40459 0.0
N80 N 0.63759 0.14389 0.26372 0.0
C81 C 0.71069 0.25981 0.17042 0.0
C82 C 0.69583 0.27168 0.33628 0.0
C83 C 0.65621 0.22442 0.44239 0.0
C84 C 0.6684 0.17336 0.1376 0.0
H85 H 0.62933 0.14297 0.32801 0.0
C86 C 0.57584 0.02785 0.45962 0.0
O87 O 0.65439 0.97593 0.31535 0.0
O88 O 0.67649 0.03411 0.4366 0.0
N89 N 0.65582 0.10512 0.03599 0.0
C90 C 0.66079 0.08032 0.93556 0.0
C91 C 0.68234 0.10105 0.81461 0.0
C92 C 0.70405 0.14873 0.79345 0.0
C93 C 0.70676 0.18171 0.89297 0.0
C94 C 0.67335 0.1506 0.01683 0.0
H95 H 0.64923 0.04414 0.946 0.0
O96 O 0.69717 0.05183 0.14559 0.0
O97 O 0.69524 0.10078 0.26833 0.0
O98 O 0.59072 0.01348 0.10901 0.0
O99 O 0.56783 0.06335 0.16263 0.0
C100 C 0.75338 0.27223 0.91656 0.0
C101 C 0.74628 0.2945 0.05049 0.0
H102 H 0.70855 0.27284 0.24317 0.0
H103 H 0.64642 0.23313 0.53647 0.0
H104 H 0.68411 0.07971 0.73599 0.0
H105 H 0.71983 0.15779 0.6969 0.0
H106 H 0.77993 0.29943 0.84964 0.0
H107 H 0.76522 0.33146 0.06503 0.0
Mn108 Mn 0.07458 0.49473 0.77444 0.0
Mn109 Mn 0.00429 0.4886 0.72518 0.0
C110 C 0.0188 0.41439 0.6771 0.0
C111 C 0.12443 0.47918 0.92099 0.0
C112 C 0.0525 0.55913 0.60014 0.0
O113 O 0.09006 0.54776 0.90258 0.0
O114 O 0.01361 0.5081 0.91737 0.0
C115 C 0.91016 0.4667 0.90779 0.0
N116 N 0.93702 0.46697 0.76592 0.0
C117 C 0.82385 0.37947 0.67854 0.0
C118 C 0.8052 0.38555 0.83939 0.0
C119 C 0.84722 0.42751 0.94721 0.0
C120 C 0.91216 0.43627 0.64039 0.0
H121 H 0.93537 0.47284 0.8306 0.0
C122 C 0.05273 0.53899 0.96558 0.0
O123 O 0.14284 0.50643 0.81915 0.0
O124 O 0.07889 0.45918 0.9301 0.0
N125 N 0.98795 0.46618 0.53478 0.0
C126 C 0.01793 0.46895 0.43233 0.0
C127 C -8e-05 0.44666 0.31237 0.0
C128 C 0.95059 0.41681 0.29356 0.0
C129 C 0.91332 0.40628 0.39559 0.0
C130 C 0.94022 0.44002 0.51808 0.0
H131 H 0.05641 0.48743 0.44106 0.0
O132 O 0.06281 0.4428 0.64695 0.0
O133 O 0.00203 0.4317 0.76307 0.0
O134 O 0.07791 0.53934 0.6141 0.0
O135 O 0.0161 0.54703 0.67633 0.0
C136 C 0.81971 0.3447 0.4315 0.0
C137 C 0.79319 0.34424 0.56873 0.0
H138 H 0.76746 0.36583 0.86829 0.0
H139 H 0.83296 0.43202 0.04011 0.0
H140 H 0.02531 0.45088 0.23287 0.0
H141 H 0.94394 0.40066 0.19896 0.0
H142 H 0.79437 0.31698 0.36727 0.0
H143 H 0.75524 0.31984 0.58649 0.0
Mn144 Mn 0.66106 0.64076 0.73365 0.0
Mn145 Mn 0.57084 0.6609 0.76722 0.0
C146 C 0.67129 0.70107 0.87645 0.0
C147 C 0.7283 0.66289 0.57957 0.0
C148 C 0.57571 0.58767 0.92841 0.0
O149 O 0.61584 0.59737 0.59447 0.0
O150 O 0.56624 0.62522 0.60164 0.0
C151 C 0.58886 0.72076 0.533 0.0
N152 N 0.58148 0.71335 0.66658 0.0
C153 C 0.55628 0.76917 0.68913 0.0
C154 C 0.56179 0.77612 0.5513 0.0
C155 C 0.58054 0.75372 0.4738 0.0
C156 C 0.5682 0.73834 0.74366 0.0
H157 H 0.59938 0.70054 0.47211 0.0
C158 C 0.58127 0.59975 0.54855 0.0
O159 O 0.71416 0.62857 0.6626 0.0
O160 O 0.70419 0.68336 0.58889 0.0
N161 N 0.56898 0.69433 0.91919 0.0
C162 C 0.56337 0.68182 0.04978 0.0
C163 C 0.5485 0.70369 0.14245 0.0
C164 C 0.53927 0.73814 0.09997 0.0
C165 C 0.5456 0.75063 0.96502 0.0
C166 C 0.56203 0.72858 0.87794 0.0
H167 H 0.57036 0.65551 0.08302 0.0
O168 O 0.7003 0.68542 0.87143 0.0
O169 O 0.63931 0.68446 0.78425 0.0
O170 O 0.61725 0.59449 0.88742 0.0
O171 O 0.55526 0.60737 0.87696 0.0
C172 C 0.53293 0.78152 0.91193 0.0
C173 C 0.53686 0.78952 0.77367 0.0
H174 H 0.55092 0.79786 0.50368 0.0
H175 H 0.58659 0.76057 0.36821 0.0
H176 H 0.5427 0.6928 0.24554 0.0
H177 H 0.52638 0.754 0.17118 0.0
H178 H 0.51824 0.79775 0.97568 0.0
H179 H 0.52329 0.81005 0.73283 0.0
Mn180 Mn 0.4988 0.06053 0.75079 0.0
Mn181 Mn 0.4699 0.95001 0.78761 0.0
C182 C 0.43189 0.01398 0.88782 0.0
C183 C 0.49317 0.10882 0.58658 0.0
C184 C 0.54036 0.02545 0.96044 0.0
O185 O 0.54632 0.05559 0.62838 0.0
O186 O 0.51334 0.97898 0.62257 0.0
C187 C 0.41045 0.91613 0.5501 0.0
N188 N 0.41493 0.91363 0.68318 0.0
C189 C 0.33622 0.84548 0.70613 0.0
C190 C 0.33191 0.84584 0.56835 0.0
C191 C 0.36823 0.88235 0.49097 0.0
C192 C 0.37851 0.88078 0.76029 0.0
H193 H 0.43913 0.94329 0.48959 0.0
C194 C 0.5438 0.0199 0.57862 0.0
O195 O 0.52584 0.12669 0.67592 0.0
O196 O 0.46457 0.06474 0.59573 0.0
N197 N 0.4291 0.91555 0.93665 0.0
C198 C 0.44248 0.9147 0.06311 0.0
C199 C 0.41003 0.88033 0.15296 0.0
C200 C 0.36409 0.84676 0.11236 0.0
C201 C 0.35188 0.84675 0.98019 0.0
C202 C 0.38598 0.88177 0.89443 0.0
H203 H 0.47815 0.93918 0.09484 0.0
O204 O 0.44847 0.05791 0.87346 0.0
O205 O 0.45172 -0.00267 0.80608 0.0
O206 O 0.53635 0.05929 0.9137 0.0
O207 O 0.52455 0.9863 0.90373 0.0
C208 C 0.30846 0.81164 0.92837 0.0
C209 C 0.30069 0.81095 0.79135 0.0
H210 H 0.30054 0.81859 0.52097 0.0
H211 H 0.36365 0.88408 0.38603 0.0
H212 H 0.42109 0.87906 0.2522 0.0
H213 H 0.3393 0.81999 0.1819 0.0
H214 H 0.2814 0.78423 0.99236 0.0
H215 H 0.26762 0.78323 0.7523 0.0
Mn216 Mn 0.76781 0.98432 0.6129 0.0
Mn217 Mn 0.65833 0.88968 0.60686 0.0
C218 C 0.71029 0.98862 0.49061 0.0
C219 C 0.81259 0.04358 0.76908 0.0
C220 C 0.73757 0.90278 0.41614 0.0
O221 O 0.77281 0.94228 0.74156 0.0
O222 O 0.6964 0.88482 0.75588 0.0
C223 C 0.62663 0.91151 0.86118 0.0
N224 N 0.62027 0.90206 0.72934 0.0
C225 C 0.54445 0.89881 0.73954 0.0
C226 C 0.54935 0.90709 0.87628 0.0
C227 C 0.59147 0.91523 0.93629 0.0
C228 C 0.58221 0.89878 0.66793 0.0
H229 H 0.65811 0.91588 0.9087 0.0
C230 C 0.73984 0.90574 0.79569 0.0
O231 O 0.83501 0.03385 0.67627 0.0
O232 O 0.7667 0.02201 0.76286 0.0
N233 N 0.61645 0.88795 0.47437 0.0
C234 C 0.61459 0.87497 0.34509 0.0
C235 C 0.57481 0.86578 0.27071 0.0
C236 C 0.53686 0.86914 0.3302 0.0
C237 C 0.53867 0.88083 0.46455 0.0
C238 C 0.57977 0.89066 0.53322 0.0
H239 H 0.6425 0.87027 0.29987 0.0
O240 O 0.75478 0.02183 0.48566 0.0
O241 O 0.70053 0.95605 0.57789 0.0
O242 O 0.77001 0.94365 0.45692 0.0
O243 O 0.6963 0.87733 0.47375 0.0
C244 C 0.49971 0.87946 0.53549 0.0
C245 C 0.50242 0.8877 0.6732 0.0
H246 H 0.52095 0.907 0.93629 0.0
H247 H 0.59629 0.92337 0.0406 0.0
H248 H 0.57267 0.85451 0.16912 0.0
H249 H 0.50567 0.86086 0.27325 0.0
H250 H 0.46688 0.87049 0.48605 0.0
H251 H 0.47155 0.88404 0.72847 0.0
Mn252 Mn 0.19998 0.80331 0.69657 0.0
Mn253 Mn 0.14942 0.86663 0.67787 0.0
C254 C 0.11501 0.77129 0.78731 0.0
C255 C 0.16904 0.74766 0.49542 0.0
C256 C 0.22879 0.89239 0.86227 0.0
O257 O 0.2483 0.85412 0.56173 0.0
O258 O 0.19662 0.87699 0.51555 0.0
C259 C 0.07749 0.89777 0.49549 0.0
N260 N 0.08494 0.88489 0.66459 0.0
C261 C 0.01771 0.90482 0.59921 0.0
C262 C 0.00656 0.90451 0.46834 0.0
C263 C 0.04092 0.90172 0.39251 0.0
C264 C 0.06744 0.89599 0.59429 0.0
H265 H 0.10092 0.90017 0.39941 0.0
C266 C 0.23574 0.87687 0.48909 0.0
O267 O 0.19388 0.74603 0.58352 0.0
O268 O 0.15914 0.7776 0.52534 0.0
N269 N 0.11624 0.85961 0.80601 0.0
C270 C 0.12512 0.84862 0.92819 0.0
C271 C 0.10263 0.85005 0.03887 0.0
C272 C 0.06735 0.85913 0.02681 0.0
C273 C 0.05459 0.87125 0.89909 0.0
C274 C 0.08778 0.87572 0.76842 0.0
H275 H 0.14911 0.83615 0.94257 0.0
O276 O 0.14135 0.75482 0.81979 0.0
O277 O 0.13806 0.80401 0.70188 0.0
O278 O 0.22656 0.85318 0.84628 0.0
O279 O 0.2051 0.90517 0.79201 0.0
C280 C 0.99458 0.88734 0.83593 0.0
C281 C 0.98698 0.90071 0.70694 0.0
H282 H 0.9744 0.90133 0.43113 0.0
H283 H 0.04505 0.90465 0.28646 0.0
H284 H 0.11035 0.84067 0.13391 0.0
H285 H 0.0496 0.85383 0.12358 0.0
H286 H 0.96362 0.8855 0.89148 0.0
H287 H 0.95573 0.9036 0.6895 0.0
Mn288 Mn 0.3319 0.41313 0.62931 0.0
Mn289 Mn 0.27431 0.35495 0.69288 0.0
C290 C 0.3627 0.35858 0.72007 0.0
C291 C 0.40116 0.45203 0.46675 0.0
C292 C 0.25165 0.40224 0.82716 0.0
O293 O 0.29262 0.43228 0.50689 0.0
O294 O 0.26009 0.35989 0.50263 0.0
C295 C 0.19232 0.2674 0.54313 0.0
N296 N 0.22314 0.2927 0.67325 0.0
C297 C 0.18943 0.1823 0.77489 0.0
C298 C 0.16023 0.16468 0.62378 0.0
C299 C 0.16241 0.20634 0.51333 0.0
C300 C 0.22894 0.26861 0.7961 0.0
H301 H 0.19607 0.28794 0.45793 0.0
C302 C 0.26257 0.39544 0.45273 0.0
O303 O 0.39747 0.47156 0.5717 0.0
O304 O 0.36673 0.41067 0.45784 0.0
N305 N 0.28288 0.34122 0.88336 0.0
C306 C 0.31383 0.36975 0.976 0.0
C307 C 0.3188 0.35218 0.09539 0.0
C308 C 0.29628 0.30452 0.12218 0.0
C309 C 0.26544 0.26872 0.03044 0.0
C310 C 0.25814 0.29549 0.90903 0.0
H311 H 0.33656 0.40661 0.9596 0.0
O312 O 0.37683 0.40031 0.74707 0.0
O313 O 0.32667 0.34394 0.64491 0.0
O314 O 0.2979 0.42423 0.80523 0.0
O315 O 0.22737 0.3695 0.75065 0.0
C316 C 0.22509 0.17738 0.01184 0.0
C317 C 0.19385 0.15204 0.88487 0.0
H318 H 0.13991 0.12825 0.60012 0.0
H319 H 0.14354 0.19378 0.42248 0.0
H320 H 0.34276 0.37633 0.16753 0.0
H321 H 0.30566 0.2978 0.21567 0.0
H322 H 0.22839 0.15291 0.07473 0.0
H323 H 0.17664 0.11519 0.87221 0.0
Mn324 Mn 0.73196 0.81059 0.09051 0.0
Mn325 Mn 0.83464 0.91193 0.11105 0.0
C326 C 0.79454 0.81014 0.20319 0.0
C327 C 0.68949 0.74538 0.94831 0.0
C328 C 0.7484 0.88431 0.29447 0.0
O329 O 0.72208 0.84902 0.9583 0.0
O330 O 0.79582 0.91213 0.95687 0.0
C331 C 0.8932 0.93587 0.8653 0.0
N332 N 0.88859 0.92445 0.9967 0.0
C333 C 0.97477 0.97346 0.01917 0.0
C334 C 0.97997 0.98412 0.88381 0.0
C335 C 0.93898 0.96644 0.80801 0.0
C336 C 0.92818 0.94349 0.07257 0.0
H337 H 0.86182 0.92471 0.80698 0.0
C338 C 0.75331 0.88796 0.91055 0.0
O339 O 0.66658 0.7542 0.04146 0.0
O340 O 0.73522 0.77313 0.94227 0.0
N341 N 0.87402 0.91647 0.25237 0.0
C342 C 0.86189 0.90924 0.38416 0.0
C343 C 0.89809 0.92909 0.47628 0.0
C344 C 0.94618 0.95779 0.43204 0.0
C345 C 0.95791 0.96196 0.29567 0.0
C346 C 0.92022 0.93903 0.20826 0.0
H347 H 0.82476 0.88954 0.41874 0.0
O348 O 0.74938 0.77963 0.21962 0.0
O349 O 0.80392 0.84252 0.11282 0.0
O350 O 0.71964 0.84353 0.25077 0.0
O351 O 0.78856 0.91156 0.23882 0.0
C352 C 0.00517 0.98956 0.24338 0.0
C353 C 0.01351 -0.00429 0.10514 0.0
H354 H 0.01497 0.00816 0.83871 0.0
H355 H 0.94281 0.97858 0.7073 0.0
H356 H 0.88829 0.92293 0.5804 0.0
H357 H 0.97427 0.97482 0.50303 0.0
H358 H 0.03505 0.00775 0.30859 0.0
H359 H 0.04964 0.01912 0.06601 0.0
Mn360 Mn 0.33118 0.96877 0.16167 0.0
Mn361 Mn 0.23047 0.95892 0.23179 0.0
C362 C 0.34034 0.03817 0.2668 0.0
C363 C 0.39089 0.98974 0.98504 0.0
C364 C 0.26175 0.90104 0.36033 0.0
O365 O 0.28324 0.91775 0.03937 0.0
O366 O 0.22526 0.93568 0.0462 0.0
C367 C 0.17388 0.99028 0.04089 0.0
N368 N 0.20085 -0.00736 0.17655 0.0
C369 C 0.18199 0.08186 0.26036 0.0
C370 C 0.1557 0.07312 0.10481 0.0
C371 C 0.1524 0.029 -0.00037 0.0
C372 C 0.20823 0.02419 0.29634 0.0
H373 H 0.16955 0.96475 0.96826 0.0
C374 C 0.24764 0.91755 0.98776 0.0
O375 O 0.38666 0.96181 0.08006 0.0
O376 O 0.36272 0.00599 -0.00252 0.0
N377 N 0.24129 0.98691 0.41274 0.0
C378 C 0.26879 0.9857 0.51003 0.0
C379 C 0.27916 0.01306 0.62159 0.0
C380 C 0.26656 0.04688 0.63477 0.0
C381 C 0.24213 0.05777 0.53579 0.0
C382 C 0.23031 0.02054 0.4187 0.0
H383 H 0.28663 0.96661 0.50267 0.0
O384 O 0.36888 0.02205 0.27825 0.0
O385 O 0.30176 0.00963 0.19611 0.0
O386 O 0.30697 0.9264 0.3383 0.0
O387 O 0.2359 0.90561 0.28091 0.0
C388 C 0.2181 0.12098 0.50049 0.0
C389 C 0.19054 0.11928 0.36814 0.0
H390 H 0.13899 0.09265 0.07823 0.0
H391 H 0.13635 0.02543 0.90541 0.0
H392 H 0.30007 0.00964 0.69789 0.0
H393 H 0.27913 0.06502 0.72325 0.0
H394 H 0.22622 0.15117 0.55903 0.0
H395 H 0.1764 0.14187 0.35457 0.0
Mn396 Mn 0.17629 0.4233 0.15431 0.0
Mn397 Mn 0.15669 0.31616 0.1558 0.0
C398 C 0.11338 0.3676 0.29554 0.0
C399 C 0.14893 0.46202 0.0061 0.0
C400 C 0.23011 0.3902 0.33936 0.0
O401 O 0.22149 0.42898 0.00185 0.0
O402 O 0.20635 0.3568 0.01511 0.0
C403 C 0.11164 0.30101 0.89508 0.0
N404 N 0.10972 0.28669 0.02262 0.0
C405 C 0.03262 0.21824 0.99083 0.0
C406 C 0.03505 0.23116 0.85767 0.0
C407 C 0.07423 0.27334 0.81055 0.0
C408 C 0.07083 0.24766 0.07104 0.0
H409 H 0.14124 0.33347 0.85796 0.0
C410 C 0.22847 0.39739 0.96104 0.0
O411 O 0.18439 0.48579 0.08363 0.0
O412 O 0.12941 0.41858 0.02075 0.0
N413 N 0.10788 0.26959 0.274 0.0
C414 C 0.10803 0.2638 0.40709 0.0
C415 C 0.06969 0.22442 0.47134 0.0
C416 C 0.03157 0.19112 0.39838 0.0
C417 C 0.03115 0.19816 0.2622 0.0
C418 C 0.0702 0.23811 0.20351 0.0
H419 H 0.13359 0.29212 0.46567 0.0
O420 O 0.128 0.41114 0.30291 0.0
O421 O 0.13338 0.35777 0.19612 0.0
O422 O 0.22569 0.42448 0.29521 0.0
O423 O 0.20498 0.34823 0.29614 0.0
C424 C 0.99297 0.16738 0.18291 0.0
C425 C 0.99375 0.1774 0.04709 0.0
H426 H 0.0067 0.20927 0.79146 0.0
H427 H 0.07576 0.28454 0.70931 0.0
H428 H 0.06795 0.22058 0.57761 0.0
H429 H 0.00196 0.16119 0.44882 0.0
H430 H 0.96256 0.13618 0.22579 0.0
H431 H 0.96412 0.15365 0.98708 0.0
Mn432 Mn 0.45771 0.32736 0.84631 0.0
Mn433 Mn 0.35207 0.23525 0.82962 0.0
C434 C 0.39556 0.33839 0.74588 0.0
C435 C 0.49458 0.38674 0.01493 0.0
C436 C 0.43488 0.25257 0.64474 0.0
O437 O 0.46592 0.28158 0.96682 0.0
O438 O 0.38753 0.23023 0.9787 0.0
C439 C 0.29873 0.225 0.11512 0.0
N440 N 0.3042 0.23136 0.95345 0.0
C441 C 0.191 0.21853 0.97383 0.0
C442 C 0.19501 0.21413 0.14616 0.0
C443 C 0.24688 0.21647 0.20989 0.0
C444 C 0.26539 0.22883 0.85647 0.0
H445 H 0.31132 0.23012 0.01581 0.0
C446 C 0.43043 0.24456 0.01582 0.0
O447 O 0.52035 0.38414 0.91819 0.0
O448 O 0.45032 0.35657 0.01152 0.0
N449 N 0.31725 0.23897 0.67975 0.0
C450 C 0.33647 0.25591 0.55845 0.0
C451 C 0.31006 0.26227 0.46613 0.0
C452 C 0.26259 0.25213 0.49313 0.0
C453 C 0.23595 0.23357 0.61941 0.0
C454 C 0.27395 0.23225 0.71341 0.0
H455 H 0.37395 0.26944 0.53563 0.0
O456 O 0.44097 0.36724 0.7327 0.0
O457 O 0.38747 0.30387 0.82594 0.0
O458 O 0.46547 0.29538 0.67102 0.0
O459 O 0.39589 0.22973 0.71055 0.0
C460 C 0.15548 0.22324 0.73488 0.0
C461 C 0.14888 0.21676 0.89387 0.0
H462 H 0.16482 0.20742 0.21042 0.0
H463 H 0.24462 0.20402 0.30696 0.0
H464 H 0.3287 0.27751 0.37366 0.0
H465 H 0.24978 0.2629 0.41157 0.0
H466 H 0.1255 0.22464 0.69372 0.0
H467 H 0.11649 0.21093 0.9447 0.0
Mn468 Mn 0.85053 0.13724 0.04227 0.0
Mn469 Mn 0.8309 0.22342 0.07154 0.0
C470 C 0.77524 0.11975 0.15653 0.0
C471 C 0.83422 0.08159 0.86616 0.0
C472 C 0.90062 0.2131 0.24015 0.0
O473 O 0.90475 0.18602 0.92088 0.0
O474 O 0.8719 0.23027 0.91206 0.0
C475 C 0.78497 0.23261 0.79708 0.0
N476 N 0.78465 0.22516 0.95872 0.0
C477 C 0.67684 0.22413 0.97156 0.0
C478 C 0.68355 0.23067 0.79601 0.0
C479 C 0.73809 0.23579 0.71211 0.0
C480 C 0.74601 0.22218 0.06648 0.0
H481 H 0.79327 0.22814 0.89389 0.0
C482 C 0.90297 0.21943 0.87056 0.0
O483 O 0.86332 0.08693 0.95907 0.0
O484 O 0.81464 0.10586 0.8803 0.0
N485 N 0.7908 0.2157 0.2316 0.0
C486 C 0.79566 0.20182 0.352 0.0
C487 C 0.76341 0.19446 0.45515 0.0
C488 C 0.72176 0.19712 0.43934 0.0
C489 C 0.70895 0.20886 0.31424 0.0
C490 C 0.75118 0.21698 0.2087 0.0
H491 H 0.82216 0.19247 0.36821 0.0
O492 O 0.79398 0.09396 0.16231 0.0
O493 O 0.80031 0.15502 0.07358 0.0
O494 O 0.89026 0.17145 0.21205 0.0
O495 O 0.88246 0.23293 0.18013 0.0
C496 C 0.63425 0.2099 0.22198 0.0
C497 C 0.63329 0.21814 0.06443 0.0
H498 H 0.65042 0.23124 0.75444 0.0
H499 H 0.70754 0.23352 0.74092 0.0
H500 H 0.77096 0.18408 0.54734 0.0
H501 H 0.69807 0.18527 0.52548 0.0
H502 H 0.6009 0.20416 0.27202 0.0
H503 H 0.60303 0.2183 0.02245 0.0
Mn504 Mn 0.97117 0.69337 0.87899 0.0
Mn505 Mn 0.97475 0.75002 0.81782 0.0
C506 C 0.06118 0.74721 0.819 0.0
C507 C 0.00336 0.66582 0.05513 0.0
C508 C 0.91233 0.70282 0.66219 0.0
O509 O 0.90623 0.66337 0.9835 0.0
O510 O 0.94022 0.73641 -0.00052 0.0
C511 C 0.97637 0.83225 0.00456 0.0
N512 N 0.97956 0.81098 0.85564 0.0
C513 C 0.07388 0.93472 0.78442 0.0
C514 C 0.06036 0.94242 0.95502 0.0
C515 C 0.01315 0.89382 0.05736 0.0
C516 C 0.00927 0.83839 0.72567 0.0
H517 H 0.97398 0.81173 0.92336 0.0
C518 C 0.90738 0.6969 0.04149 0.0
O519 O 0.98987 0.64699 0.94361 0.0
O520 O 0.0008 0.70184 0.06435 0.0
N521 N 0.01173 0.7672 0.63467 0.0
C522 C 0.02337 0.74345 0.54308 0.0
C523 C 0.06245 0.76554 0.445 0.0
C524 C 0.10132 0.81261 0.44359 0.0
C525 C 0.10099 0.84323 0.53577 0.0
C526 C 0.03589 0.81201 0.61741 0.0
H527 H 0.00261 0.70602 0.5419 0.0
O528 O 0.03382 0.70757 0.77594 0.0
O529 O 0.0368 0.762 0.88403 0.0
O530 O 0.93495 0.68149 0.69208 0.0
O531 O 0.91729 0.73487 0.73627 0.0
C532 C 0.15459 0.91734 0.56788 0.0
C533 C 0.13973 0.95731 0.69509 0.0
H534 H 0.07611 0.94647 0.85218 0.0
H535 H 0.04134 0.92662 0.02179 0.0
H536 H 0.06388 0.74371 0.36817 0.0
H537 H 0.13011 0.82421 0.369 0.0
H538 H 0.15657 0.943 0.62807 0.0
H539 H 0.16803 0.98901 0.74869 0.0
Mn540 Mn 0.44294 0.16307 0.34473 0.0
Mn541 Mn 0.34661 0.16815 0.33249 0.0
C542 C 0.37144 0.09261 0.2586 0.0
C543 C 0.47923 0.13523 0.49936 0.0
C544 C 0.43198 0.22335 0.14485 0.0
O545 O 0.4606 0.21924 0.46847 0.0
O546 O 0.38561 0.20558 0.48001 0.0
C547 C 0.28673 0.13529 0.6161 0.0
N548 N 0.29373 0.13166 0.45531 0.0
C549 C 0.17299 0.0459 0.46367 0.0
C550 C 0.17399 0.05589 0.63673 0.0
C551 C 0.23098 0.10035 0.70932 0.0
C552 C 0.25369 0.09945 0.35504 0.0
H553 H 0.30054 0.14004 0.51804 0.0
C554 C 0.42942 0.22829 0.5162 0.0
O555 O 0.50389 0.16152 0.39888 0.0
O556 O 0.43565 0.1252 0.50668 0.0
N557 N 0.30998 0.13298 0.18122 0.0
C558 C 0.32807 0.13278 0.05947 0.0
C559 C 0.29839 0.10603 0.96092 0.0
C560 C 0.24897 0.07428 0.98453 0.0
C561 C 0.22463 0.06676 0.11464 0.0
C562 C 0.26454 0.10204 0.21212 0.0
H563 H 0.36605 0.15113 0.03803 0.0
O564 O 0.41584 0.10655 0.22784 0.0
O565 O 0.3698 0.12295 0.34028 0.0
O566 O 0.45665 0.20419 0.16987 0.0
O567 O 0.39457 0.21303 0.21229 0.0
C568 C 0.13865 0.00691 0.22246 0.0
C569 C 0.12979 0.00953 0.37985 0.0
H570 H 0.13491 0.03363 0.68395 0.0
H571 H 0.19849 0.07597 0.6861 0.0
H572 H 0.31626 0.10994 0.86633 0.0
H573 H 0.23183 0.05334 0.90027 0.0
H574 H 0.10625 0.97905 0.1784 0.0
H575 H 0.09501 0.98872 0.42783 0.0
Mn576 Mn 0.00082 0.30139 0.5343 0.0
Mn577 Mn 0.89636 0.29261 0.57088 0.0
C578 C 0.00036 0.36379 0.6492 0.0
C579 C 0.06835 0.33522 0.37227 0.0
C580 C 0.9257 0.23917 0.73861 0.0
O581 O 0.96036 0.24675 0.40915 0.0
O582 O 0.89907 0.25971 0.41038 0.0
C583 C 0.87307 0.33079 0.306 0.0
N584 N 0.88208 0.3309 0.46343 0.0
C585 C 0.857 0.41906 0.47845 0.0
C586 C 0.85101 0.41283 0.30615 0.0
C587 C 0.8578 0.36922 0.2253 0.0
C588 C 0.87632 0.36145 0.57015 0.0
H589 H 0.8746 0.30503 0.24495 0.0
C590 C 0.92017 0.23821 0.36622 0.0
O591 O 0.06508 0.30891 0.4693 0.0
O592 O 0.03337 0.34237 0.37132 0.0
N593 N 0.89491 0.32473 0.73329 0.0
C594 C 0.91495 0.32541 0.84926 0.0
C595 C 0.91582 0.35299 0.9522 0.0
C596 C 0.9001 0.38455 0.93817 0.0
C597 C 0.88063 0.39133 0.81747 0.0
C598 C 0.8826 0.35635 0.71181 0.0
H599 H 0.93528 0.3087 0.86028 0.0
O600 O 0.03378 0.35417 0.65644 0.0
O601 O 0.96727 0.33706 0.56436 0.0
O602 O 0.9708 0.25939 0.70681 0.0
O603 O 0.89717 0.24539 0.67347 0.0
C604 C 0.86079 0.45353 0.72759 0.0
C605 C 0.85207 0.45448 0.57163 0.0
H606 H 0.8402 0.43371 0.25352 0.0
H607 H 0.84348 0.35965 0.12865 0.0
H608 H 0.93284 0.35217 0.04162 0.0
H609 H 0.90948 0.40688 0.02194 0.0
H610 H 0.85633 0.47981 0.7785 0.0
H611 H 0.84287 0.47847 0.53112 0.0
Mn612 Mn 0.8399 0.73594 0.35655 0.0
Mn613 Mn 0.80601 0.62346 0.38244 0.0
C614 C 0.775 0.68788 0.50288 0.0
C615 C 0.8238 0.78807 0.2307 0.0
C616 C 0.88645 0.69681 0.5391 0.0
O617 O 0.87918 0.7289 0.20584 0.0
O618 O 0.84842 0.65181 0.21539 0.0
C619 C 0.7431 0.59467 0.1521 0.0
N620 N 0.7491 0.59045 0.28328 0.0
C621 C 0.66639 0.53 0.31566 0.0
C622 C 0.65955 0.53314 0.18018 0.0
C623 C 0.6978 0.56606 0.09864 0.0
C624 C 0.71198 0.56017 0.36386 0.0
H625 H 0.77266 0.61967 0.08906 0.0
C626 C 0.87614 0.69195 0.16079 0.0
O627 O 0.86086 0.80443 0.30548 0.0
O628 O 0.80043 0.74366 0.22427 0.0
N629 N 0.76577 0.59122 0.53485 0.0
C630 C 0.77834 0.59305 0.66384 0.0
C631 C 0.74455 0.56153 0.75771 0.0
C632 C 0.6978 0.5292 0.71917 0.0
C633 C 0.68554 0.52837 0.58653 0.0
C634 C 0.72111 0.55987 0.49644 0.0
H635 H 0.81432 0.61732 0.69424 0.0
O636 O 0.79585 0.73243 0.50425 0.0
O637 O 0.79066 0.67229 0.40606 0.0
O638 O 0.8833 0.7316 0.49689 0.0
O639 O 0.86296 0.65591 0.49304 0.0
C640 C 0.63953 0.49731 0.53998 0.0
C641 C 0.62995 0.49824 0.40498 0.0
H642 H 0.62522 0.5107 0.13715 0.0
H643 H 0.69229 0.56921 0.99485 0.0
H644 H 0.75466 0.56208 0.85927 0.0
H645 H 0.67166 0.50516 0.79215 0.0
H646 H 0.61119 0.4726 0.60717 0.0
H647 H 0.59436 0.47423 0.3719 0.0
loop_
_geom_bond_atom_site_label_1
_geom_bond_atom_site_label_2
_geom_bond_distance
_geom_bond_site_symmetry_2
_ccdc_geom_bond_type
Mn0 O5 2.095 . S
Mn0 O15 2.162 . S
Mn0 O16 2.297 . S
Mn0 O24 2.385 . S
Mn0 O25 2.209 . S
Mn0 O26 2.094 . S
Mn1 O6 2.121 . S
Mn1 N8 2.257 . S
Mn1 N17 2.282 1_554 S
Mn1 O25 2.215 1_655 S
Mn1 O27 2.117 1_655 S
C2 O24 1.234 . S
C2 O25 1.283 . S
C3 O15 1.281 . S
C3 O16 1.236 . S
C4 O26 1.240 . S
C4 O27 1.264 . S
O5 Mn0 2.095 . S
O5 C14 1.250 . S
O6 Mn1 2.121 . S
O6 C14 1.258 1_655 S
C7 N8 1.326 . S
C7 C11 1.460 . S
C7 H13 0.929 . S
N8 Mn1 2.257 . S
N8 C7 1.326 . S
N8 C12 1.362 . S
C9 C10 1.258 . S
C9 C12 1.431 . S
C9 C29 1.449 . S
C10 C9 1.258 . S
C10 C11 1.477 . S
C10 H30 0.931 . S
C11 C7 1.460 . S
C11 C10 1.477 . S
C11 H31 0.930 . S
C12 N8 1.362 . S
C12 C9 1.431 . S
C12 C22 1.476 1_554 S
H13 C7 0.929 . S
C14 O5 1.250 . S
C14 O6 1.258 1_455 S
O15 Mn0 2.162 . S
O15 C3 1.281 . S
O16 Mn0 2.297 . S
O16 C3 1.236 . S
N17 Mn1 2.282 1_556 S
N17 C18 1.328 . S
N17 C22 1.318 . S
C18 N17 1.328 . S
C18 C19 1.457 . S
C18 H23 0.918 1_655 S
C19 C18 1.457 . S
C19 C20 1.291 . S
C19 H32 0.931 . S
C20 C19 1.291 . S
C20 C21 1.373 . S
C20 H33 0.929 . S
C21 C20 1.373 . S
C21 C22 1.396 . S
C21 C28 1.403 . S
C22 C12 1.476 1_556 S
C22 N17 1.318 . S
C22 C21 1.396 . S
H23 C18 0.918 1_455 S
O24 Mn0 2.385 . S
O24 C2 1.234 . S
O25 Mn0 2.209 . S
O25 Mn1 2.215 1_455 S
O25 C2 1.283 . S
O26 Mn0 2.094 . S
O26 C4 1.240 . S
O27 Mn1 2.117 1_455 S
O27 C4 1.264 . S
C28 C21 1.403 . S
C28 C29 1.399 1_556 S
C28 H34 0.929 . S
C29 C9 1.449 . S
C29 C28 1.399 1_554 S
C29 H35 0.930 . S
H30 C10 0.931 . S
H31 C11 0.930 . S
H32 C19 0.931 . S
H33 C20 0.929 . S
H34 C28 0.929 . S
H35 C29 0.930 . S
Mn36 O41 2.095 . S
Mn36 O51 2.162 . S
Mn36 O52 2.297 . S
Mn36 O60 2.385 . S
Mn36 O61 2.209 . S
Mn36 O62 2.094 . S
Mn37 O42 2.121 . S
Mn37 N44 2.257 . S
Mn37 N53 2.282 . S
Mn37 O61 2.215 . S
Mn37 O63 2.117 . S
C38 O60 1.234 . S
C38 O61 1.283 . S
C39 O51 1.281 . S
C39 O52 1.236 . S
C40 O62 1.240 . S
C40 O63 1.264 . S
O41 Mn36 2.095 . S
O41 C50 1.250 . S
O42 Mn37 2.121 . S
O42 C50 1.258 . S
C43 N44 1.326 . S
C43 C47 1.460 . S
C43 H49 0.929 . S
N44 Mn37 2.257 . S
N44 C43 1.326 . S
N44 C48 1.362 . S
C45 C46 1.258 . S
C45 C48 1.431 . S
C45 C65 1.449 . S
C46 C45 1.258 . S
C46 C47 1.477 . S
C46 H66 0.931 . S
C47 C43 1.460 . S
C47 C46 1.477 . S
C47 H67 0.930 . S
C48 N44 1.362 . S
C48 C45 1.431 . S
C48 C58 1.476 . S
H49 C43 0.929 . S
C50 O41 1.250 . S
C50 O42 1.258 . S
O51 Mn36 2.162 . S
O51 C39 1.281 . S
O52 Mn36 2.297 . S
O52 C39 1.236 . S
N53 Mn37 2.282 . S
N53 C54 1.328 . S
N53 C58 1.318 . S
C54 N53 1.328 . S
C54 C55 1.457 . S
C54 H59 0.929 . S
C55 C54 1.457 . S
C55 C56 1.291 . S
C55 H68 0.931 . S
C56 C55 1.291 . S
C56 C57 1.373 . S
C56 H69 0.929 . S
C57 C56 1.373 . S
C57 C58 1.396 . S
C57 C64 1.403 . S
C58 C48 1.476 . S
C58 N53 1.318 . S
C58 C57 1.396 . S
H59 C54 0.929 . S
O60 Mn36 2.385 . S
O60 C38 1.234 . S
O61 Mn36 2.209 . S
O61 Mn37 2.215 . S
O61 C38 1.283 . S
O62 Mn36 2.094 . S
O62 C40 1.240 . S
O63 Mn37 2.117 . S
O63 C40 1.264 . S
C64 C57 1.403 . S
C64 C65 1.399 . S
C64 H70 0.929 . S
C65 C45 1.449 . S
C65 C64 1.399 . S
C65 H71 0.930 . S
H66 C46 0.931 . S
H67 C47 0.930 . S
H68 C55 0.931 . S
H69 C56 0.929 . S
H70 C64 0.929 . S
H71 C65 0.930 . S
Mn72 O77 2.095 . S
Mn72 O87 2.162 1_545 S
Mn72 O88 2.297 . S
Mn72 O96 2.385 . S
Mn72 O97 2.209 . S
Mn72 O98 2.094 . S
Mn73 O78 2.121 . S
Mn73 N80 2.257 . S
Mn73 N89 2.282 . S
Mn73 O97 2.215 . S
Mn73 O99 2.117 . S
C74 O96 1.234 . S
C74 O97 1.283 . S
C75 O87 1.281 1_545 S
C75 O88 1.236 . S
C76 O98 1.240 . S
C76 O99 1.264 . S
O77 Mn72 2.095 . S
O77 C86 1.250 . S
O78 Mn73 2.121 . S
O78 C86 1.258 . S
C79 N80 1.326 . S
C79 C83 1.460 . S
C79 H85 0.929 . S
N80 Mn73 2.257 . S
N80 C79 1.326 . S
N80 C84 1.362 . S
C81 C82 1.258 . S
C81 C84 1.431 . S
C81 C101 1.449 . S
C82 C81 1.258 . S
C82 C83 1.477 . S
C82 H102 0.931 . S
C83 C79 1.460 . S
C83 C82 1.477 . S
C83 H103 0.930 . S
C84 N80 1.362 . S
C84 C81 1.431 . S
C84 C94 1.476 . S
H85 C79 0.929 . S
C86 O77 1.250 . S
C86 O78 1.258 . S
O87 Mn72 2.162 1_565 S
O87 C75 1.281 1_565 S
O88 Mn72 2.297 . S
O88 C75 1.236 . S
N89 Mn73 2.282 . S
N89 C90 1.328 1_554 S
N89 C94 1.318 . S
C90 N89 1.328 1_556 S
C90 C91 1.457 . S
C90 H95 0.929 . S
C91 C90 1.457 . S
C91 C92 1.291 . S
C91 H104 0.931 . S
C92 C91 1.291 . S
C92 C93 1.373 . S
C92 H105 0.929 . S
C93 C92 1.373 . S
C93 C94 1.396 1_556 S
C93 C100 1.403 . S
C94 C84 1.476 . S
C94 N89 1.318 . S
C94 C93 1.396 1_554 S
H95 C90 0.929 . S
O96 Mn72 2.385 . S
O96 C74 1.234 . S
O97 Mn72 2.209 . S
O97 Mn73 2.215 . S
O97 C74 1.283 . S
O98 Mn72 2.094 . S
O98 C76 1.240 . S
O99 Mn73 2.117 . S
O99 C76 1.264 . S
C100 C93 1.403 . S
C100 C101 1.399 1_556 S
C100 H106 0.929 . S
C101 C81 1.449 . S
C101 C100 1.399 1_554 S
C101 H107 0.930 . S
H102 C82 0.931 . S
H103 C83 0.930 . S
H104 C91 0.931 . S
H105 C92 0.929 . S
H106 C100 0.929 . S
H107 C101 0.930 . S
Mn108 O113 2.095 . S
Mn108 O123 2.162 . S
Mn108 O124 2.297 . S
Mn108 O132 2.385 . S
Mn108 O133 2.209 . S
Mn108 O134 2.094 . S
Mn109 O114 2.121 . S
Mn109 N116 2.257 . S
Mn109 N125 2.282 . S
Mn109 O133 2.215 1_655 S
Mn109 O135 2.117 1_655 S
C110 O132 1.234 . S
C110 O133 1.283 . S
C111 O123 1.281 . S
C111 O124 1.236 . S
C112 O134 1.240 . S
C112 O135 1.264 . S
O113 Mn108 2.095 . S
O113 C122 1.250 . S
O114 Mn109 2.121 . S
O114 C122 1.258 1_655 S
C115 N116 1.326 . S
C115 C119 1.460 . S
C115 H121 0.929 . S
N116 Mn109 2.257 . S
N116 C115 1.326 . S
N116 C120 1.362 . S
C117 C118 1.258 . S
C117 C120 1.431 . S
C117 C137 1.449 . S
C118 C117 1.258 . S
C118 C119 1.477 . S
C118 H138 0.931 . S
C119 C115 1.460 . S
C119 C118 1.477 . S
C119 H139 0.930 . S
C120 N116 1.362 . S
C120 C117 1.431 . S
C120 C130 1.476 . S
H121 C115 0.929 . S
C122 O113 1.250 . S
C122 O114 1.258 1_455 S
O123 Mn108 2.162 . S
O123 C111 1.281 . S
O124 Mn108 2.297 . S
O124 C111 1.236 . S
N125 Mn109 2.282 . S
N125 C126 1.328 . S
N125 C130 1.318 . S
C126 N125 1.328 . S
C126 C127 1.457 . S
C126 H131 0.929 . S
C127 C126 1.457 . S
C127 C128 1.291 . S
C127 H140 0.931 . S
C128 C127 1.291 . S
C128 C129 1.373 . S
C128 H141 0.929 . S
C129 C128 1.373 . S
C129 C130 1.396 . S
C129 C136 1.403 . S
C130 C120 1.476 . S
C130 N125 1.318 . S
C130 C129 1.396 . S
H131 C126 0.929 . S
O132 Mn108 2.385 . S
O132 C110 1.234 . S
O133 Mn108 2.209 . S
O133 Mn109 2.215 1_455 S
O133 C110 1.283 . S
O134 Mn108 2.094 . S
O134 C112 1.240 . S
O135 Mn109 2.117 1_455 S
O135 C112 1.264 . S
C136 C129 1.403 . S
C136 C137 1.399 . S
C136 H142 0.929 . S
C137 C117 1.449 . S
C137 C136 1.399 . S
C137 H143 0.930 . S
H138 C118 0.931 . S
H139 C119 0.930 . S
H140 C127 0.931 . S
H141 C128 0.929 . S
H142 C136 0.929 . S
H143 C137 0.930 . S
Mn144 O149 2.095 . S
Mn144 O159 2.162 . S
Mn144 O160 2.297 . S
Mn144 O168 2.385 . S
Mn144 O169 2.209 . S
Mn144 O170 2.094 . S
Mn145 O150 2.121 . S
Mn145 N152 2.257 . S
Mn145 N161 2.282 . S
Mn145 O169 2.215 . S
Mn145 O171 2.117 . S
C146 O168 1.234 . S
C146 O169 1.283 . S
C147 O159 1.281 . S
C147 O160 1.236 . S
C148 O170 1.240 . S
C148 O171 1.264 . S
O149 Mn144 2.095 . S
O149 C158 1.250 . S
O150 Mn145 2.121 . S
O150 C158 1.258 . S
C151 N152 1.326 . S
C151 C155 1.460 . S
C151 H157 0.929 . S
N152 Mn145 2.257 . S
N152 C151 1.326 . S
N152 C156 1.362 . S
C153 C154 1.258 . S
C153 C156 1.431 . S
C153 C173 1.449 . S
C154 C153 1.258 . S
C154 C155 1.477 . S
C154 H174 0.931 . S
C155 C151 1.460 . S
C155 C154 1.477 . S
C155 H175 0.930 . S
C156 N152 1.362 . S
C156 C153 1.431 . S
C156 C166 1.476 . S
H157 C151 0.929 . S
C158 O149 1.250 . S
C158 O150 1.258 . S
O159 Mn144 2.162 . S
O159 C147 1.281 . S
O160 Mn144 2.297 . S
O160 C147 1.236 . S
N161 Mn145 2.282 . S
N161 C162 1.328 1_556 S
N161 C166 1.318 . S
C162 N161 1.328 1_554 S
C162 C163 1.457 . S
C162 H167 0.929 . S
C163 C162 1.457 . S
C163 C164 1.291 . S
C163 H176 0.931 . S
C164 C163 1.291 . S
C164 C165 1.373 . S
C164 H177 0.929 . S
C165 C164 1.373 . S
C165 C166 1.396 1_554 S
C165 C172 1.403 . S
C166 C156 1.476 . S
C166 N161 1.318 . S
C166 C165 1.396 1_556 S
H167 C162 0.929 . S
O168 Mn144 2.385 . S
O168 C146 1.234 . S
O169 Mn144 2.209 . S
O169 Mn145 2.215 . S
O169 C146 1.283 . S
O170 Mn144 2.094 . S
O170 C148 1.240 . S
O171 Mn145 2.117 . S
O171 C148 1.264 . S
C172 C165 1.403 . S
C172 C173 1.399 1_554 S
C172 H178 0.929 . S
C173 C153 1.449 . S
C173 C172 1.399 1_556 S
C173 H179 0.930 . S
H174 C154 0.931 . S
H175 C155 0.930 . S
H176 C163 0.931 . S
H177 C164 0.929 . S
H178 C172 0.929 . S
H179 C173 0.930 . S
Mn180 O185 2.095 . S
Mn180 O195 2.162 . S
Mn180 O196 2.297 . S
Mn180 O204 2.385 . S
Mn180 O205 2.209 . S
Mn180 O206 2.094 . S
Mn181 O186 2.121 1_565 S
Mn181 N188 2.257 . S
Mn181 N197 2.282 1_556 S
Mn181 O205 2.215 1_565 S
Mn181 O207 2.117 1_565 S
C182 O204 1.234 . S
C182 O205 1.283 . S
C183 O195 1.281 . S
C183 O196 1.236 . S
C184 O206 1.240 . S
C184 O207 1.264 . S
O185 Mn180 2.095 . S
O185 C194 1.250 . S
O186 Mn181 2.121 1_545 S
O186 C194 1.258 . S
C187 N188 1.326 . S
C187 C191 1.460 . S
C187 H193 0.929 . S
N188 Mn181 2.257 . S
N188 C187 1.326 . S
N188 C192 1.362 . S
C189 C190 1.258 . S
C189 C192 1.431 . S
C189 C209 1.449 . S
C190 C189 1.258 . S
C190 C191 1.477 . S
C190 H210 0.931 . S
C191 C187 1.460 . S
C191 C190 1.477 . S
C191 H211 0.930 . S
C192 N188 1.362 . S
C192 C189 1.431 . S
C192 C202 1.476 1_556 S
H193 C187 0.929 . S
C194 O185 1.250 . S
C194 O186 1.258 . S
O195 Mn180 2.162 . S
O195 C183 1.281 . S
O196 Mn180 2.297 . S
O196 C183 1.236 . S
N197 Mn181 2.282 1_554 S
N197 C198 1.328 . S
N197 C202 1.318 . S
C198 N197 1.328 . S
C198 C199 1.457 . S
C198 H203 0.929 1_565 S
C199 C198 1.457 . S
C199 C200 1.291 . S
C199 H212 0.931 . S
C200 C199 1.291 . S
C200 C201 1.373 . S
C200 H213 0.929 . S
C201 C200 1.373 . S
C201 C202 1.396 . S
C201 C208 1.403 . S
C202 C192 1.476 1_554 S
C202 N197 1.318 . S
C202 C201 1.396 . S
H203 C198 0.929 1_545 S
O204 Mn180 2.385 . S
O204 C182 1.234 . S
O205 Mn180 2.209 . S
O205 Mn181 2.215 1_545 S
O205 C182 1.283 . S
O206 Mn180 2.094 . S
O206 C184 1.240 . S
O207 Mn181 2.117 1_545 S
O207 C184 1.264 . S
C208 C201 1.403 . S
C208 C209 1.399 1_554 S
C208 H214 0.929 . S
C209 C189 1.449 . S
C209 C208 1.399 1_556 S
C209 H215 0.930 . S
H210 C190 0.931 . S
H211 C191 0.930 . S
H212 C199 0.931 . S
H213 C200 0.929 . S
H214 C208 0.929 . S
H215 C209 0.930 . S
Mn216 O221 2.095 . S
Mn216 O231 2.162 1_565 S
Mn216 O232 2.297 1_565 S
Mn216 O240 2.385 1_565 S
Mn216 O241 2.209 . S
Mn216 O242 2.094 . S
Mn217 O222 2.121 . S
Mn217 N224 2.257 . S
Mn217 N233 2.282 . S
Mn217 O241 2.215 . S
Mn217 O243 2.117 . S
C218 O240 1.234 1_565 S
C218 O241 1.283 . S
C219 O231 1.281 . S
C219 O232 1.236 . S
C220 O242 1.240 . S
C220 O243 1.264 . S
O221 Mn216 2.095 . S
O221 C230 1.250 . S
O222 Mn217 2.121 . S
O222 C230 1.258 . S
C223 N224 1.326 . S
C223 C227 1.460 . S
C223 H229 0.929 . S
N224 Mn217 2.257 . S
N224 C223 1.326 . S
N224 C228 1.362 . S
C225 C226 1.258 . S
C225 C228 1.431 . S
C225 C245 1.449 . S
C226 C225 1.258 . S
C226 C227 1.477 . S
C226 H246 0.931 . S
C227 C223 1.460 . S
C227 C226 1.477 . S
C227 H247 0.930 . S
C228 N224 1.362 . S
C228 C225 1.431 . S
C228 C238 1.476 . S
H229 C223 0.929 . S
C230 O221 1.250 . S
C230 O222 1.258 . S
O231 Mn216 2.162 1_545 S
O231 C219 1.281 . S
O232 Mn216 2.297 1_545 S
O232 C219 1.236 . S
N233 Mn217 2.282 . S
N233 C234 1.328 . S
N233 C238 1.318 . S
C234 N233 1.328 . S
C234 C235 1.457 . S
C234 H239 0.929 . S
C235 C234 1.457 . S
C235 C236 1.291 . S
C235 H248 0.931 . S
C236 C235 1.291 . S
C236 C237 1.373 . S
C236 H249 0.929 . S
C237 C236 1.373 . S
C237 C238 1.396 . S
C237 C244 1.403 . S
C238 C228 1.476 . S
C238 N233 1.318 . S
C238 C237 1.396 . S
H239 C234 0.929 . S
O240 Mn216 2.385 1_545 S
O240 C218 1.234 1_545 S
O241 Mn216 2.209 . S
O241 Mn217 2.215 . S
O241 C218 1.283 . S
O242 Mn216 2.094 . S
O242 C220 1.240 . S
O243 Mn217 2.117 . S
O243 C220 1.264 . S
C244 C237 1.403 . S
C244 C245 1.399 . S
C244 H250 0.929 . S
C245 C225 1.449 . S
C245 C244 1.399 . S
C245 H251 0.930 . S
H246 C226 0.931 . S
H247 C227 0.930 . S
H248 C235 0.931 . S
H249 C236 0.929 . S
H250 C244 0.929 . S
H251 C245 0.930 . S
Mn252 O257 2.095 . S
Mn252 O267 2.162 . S
Mn252 O268 2.297 . S
Mn252 O276 2.385 . S
Mn252 O277 2.209 . S
Mn252 O278 2.094 . S
Mn253 O258 2.121 . S
Mn253 N260 2.257 . S
Mn253 N269 2.282 . S
Mn253 O277 2.215 . S
Mn253 O279 2.117 . S
C254 O276 1.234 . S
C254 O277 1.283 . S
C255 O267 1.281 . S
C255 O268 1.236 . S
C256 O278 1.240 . S
C256 O279 1.264 . S
O257 Mn252 2.095 . S
O257 C266 1.250 . S
O258 Mn253 2.121 . S
O258 C266 1.258 . S
C259 N260 1.326 . S
C259 C263 1.460 . S
C259 H265 0.929 . S
N260 Mn253 2.257 . S
N260 C259 1.326 . S
N260 C264 1.362 . S
C261 C262 1.258 . S
C261 C264 1.431 . S
C261 C281 1.449 . S
C262 C261 1.258 . S
C262 C263 1.477 . S
C262 H282 0.931 . S
C263 C259 1.460 . S
C263 C262 1.477 . S
C263 H283 0.930 . S
C264 N260 1.362 . S
C264 C261 1.431 . S
C264 C274 1.476 . S
H265 C259 0.929 . S
C266 O257 1.250 . S
C266 O258 1.258 . S
O267 Mn252 2.162 . S
O267 C255 1.281 . S
O268 Mn252 2.297 . S
O268 C255 1.236 . S
N269 Mn253 2.282 . S
N269 C270 1.328 . S
N269 C274 1.318 . S
C270 N269 1.328 . S
C270 C271 1.457 1_556 S
C270 H275 0.929 . S
C271 C270 1.457 1_554 S
C271 C272 1.291 . S
C271 H284 0.931 . S
C272 C271 1.291 . S
C272 C273 1.373 1_554 S
C272 H285 0.929 . S
C273 C272 1.373 1_556 S
C273 C274 1.396 . S
C273 C280 1.403 . S
C274 C264 1.476 . S
C274 N269 1.318 . S
C274 C273 1.396 . S
H275 C270 0.929 . S
O276 Mn252 2.385 . S
O276 C254 1.234 . S
O277 Mn252 2.209 . S
O277 Mn253 2.215 . S
O277 C254 1.283 . S
O278 Mn252 2.094 . S
O278 C256 1.240 . S
O279 Mn253 2.117 . S
O279 C256 1.264 . S
C280 C273 1.403 . S
C280 C281 1.399 . S
C280 H286 0.929 1_556 S
C281 C261 1.449 . S
C281 C280 1.399 . S
C281 H287 0.930 . S
H282 C262 0.931 . S
H283 C263 0.930 . S
H284 C271 0.931 . S
H285 C272 0.929 . S
H286 C280 0.929 1_554 S
H287 C281 0.930 . S
Mn288 O293 2.095 . S
Mn288 O303 2.162 . S
Mn288 O304 2.297 . S
Mn288 O312 2.385 . S
Mn288 O313 2.209 . S
Mn288 O314 2.094 . S
Mn289 O294 2.121 . S
Mn289 N296 2.257 . S
Mn289 N305 2.282 . S
Mn289 O313 2.215 . S
Mn289 O315 2.117 . S
C290 O312 1.234 . S
C290 O313 1.283 . S
C291 O303 1.281 . S
C291 O304 1.236 . S
C292 O314 1.240 . S
C292 O315 1.264 . S
O293 Mn288 2.095 . S
O293 C302 1.250 . S
O294 Mn289 2.121 . S
O294 C302 1.258 . S
C295 N296 1.326 . S
C295 C299 1.460 . S
C295 H301 0.929 . S
N296 Mn289 2.257 . S
N296 C295 1.326 . S
N296 C300 1.362 . S
C297 C298 1.258 . S
C297 C300 1.431 . S
C297 C317 1.449 . S
C298 C297 1.258 . S
C298 C299 1.477 . S
C298 H318 0.931 . S
C299 C295 1.460 . S
C299 C298 1.477 . S
C299 H319 0.930 . S
C300 N296 1.362 . S
C300 C297 1.431 . S
C300 C310 1.476 . S
H301 C295 0.929 . S
C302 O293 1.250 . S
C302 O294 1.258 . S
O303 Mn288 2.162 . S
O303 C291 1.281 . S
O304 Mn288 2.297 . S
O304 C291 1.236 . S
N305 Mn289 2.282 . S
N305 C306 1.328 . S
N305 C310 1.318 . S
C306 N305 1.328 . S
C306 C307 1.457 1_556 S
C306 H311 0.929 . S
C307 C306 1.457 1_554 S
C307 C308 1.291 . S
C307 H320 0.931 . S
C308 C307 1.291 . S
C308 C309 1.373 1_554 S
C308 H321 0.929 . S
C309 C308 1.373 1_556 S
C309 C310 1.396 . S
C309 C316 1.403 . S
C310 C300 1.476 . S
C310 N305 1.318 . S
C310 C309 1.396 . S
H311 C306 0.929 . S
O312 Mn288 2.385 . S
O312 C290 1.234 . S
O313 Mn288 2.209 . S
O313 Mn289 2.215 . S
O313 C290 1.283 . S
O314 Mn288 2.094 . S
O314 C292 1.240 . S
O315 Mn289 2.117 . S
O315 C292 1.264 . S
C316 C309 1.403 . S
C316 C317 1.399 . S
C316 H322 0.929 . S
C317 C297 1.449 . S
C317 C316 1.399 . S
C317 H323 0.930 . S
H318 C298 0.931 . S
H319 C299 0.930 . S
H320 C307 0.931 . S
H321 C308 0.929 . S
H322 C316 0.929 . S
H323 C317 0.930 . S
Mn324 O329 2.095 1_554 S
Mn324 O339 2.162 . S
Mn324 O340 2.297 1_554 S
Mn324 O348 2.385 . S
Mn324 O349 2.209 . S
Mn324 O350 2.094 . S
Mn325 O330 2.121 1_554 S
Mn325 N332 2.257 . S
Mn325 N341 2.282 . S
Mn325 O349 2.215 . S
Mn325 O351 2.117 . S
C326 O348 1.234 . S
C326 O349 1.283 . S
C327 O339 1.281 1_556 S
C327 O340 1.236 . S
C328 O350 1.240 . S
C328 O351 1.264 . S
O329 Mn324 2.095 1_556 S
O329 C338 1.250 . S
O330 Mn325 2.121 1_556 S
O330 C338 1.258 . S
C331 N332 1.326 1_556 S
C331 C335 1.460 . S
C331 H337 0.929 . S
N332 Mn325 2.257 . S
N332 C331 1.326 1_554 S
N332 C336 1.362 . S
C333 C334 1.258 1_655 S
C333 C336 1.431 . S
C333 C353 1.449 1_655 S
C334 C333 1.258 1_455 S
C334 C335 1.477 1_454 S
C334 H354 0.931 1_554 S
C335 C331 1.460 . S
C335 C334 1.477 1_656 S
C335 H355 0.930 . S
C336 N332 1.362 . S
C336 C333 1.431 . S
C336 C346 1.476 . S
H337 C331 0.929 . S
C338 O329 1.250 . S
C338 O330 1.258 . S
O339 Mn324 2.162 . S
O339 C327 1.281 1_554 S
O340 Mn324 2.297 1_556 S
O340 C327 1.236 . S
N341 Mn325 2.282 . S
N341 C342 1.328 . S
N341 C346 1.318 . S
C342 N341 1.328 . S
C342 C343 1.457 . S
C342 H347 0.929 . S
C343 C342 1.457 . S
C343 C344 1.291 . S
C343 H356 0.931 . S
C344 C343 1.291 . S
C344 C345 1.373 . S
C344 H357 0.929 . S
C345 C344 1.373 . S
C345 C346 1.396 . S
C345 C352 1.403 . S
C346 C336 1.476 . S
C346 N341 1.318 . S
C346 C345 1.396 . S
H347 C342 0.929 . S
O348 Mn324 2.385 . S
O348 C326 1.234 . S
O349 Mn324 2.209 . S
O349 Mn325 2.215 . S
O349 C326 1.283 . S
O350 Mn324 2.094 . S
O350 C328 1.240 . S
O351 Mn325 2.117 . S
O351 C328 1.264 . S
C352 C345 1.403 . S
C352 C353 1.399 1_655 S
C352 H358 0.929 1_655 S
C353 C333 1.449 1_455 S
C353 C352 1.399 1_455 S
C353 H359 0.930 . S
H354 C334 0.931 1_556 S
H355 C335 0.930 . S
H356 C343 0.931 . S
H357 C344 0.929 . S
H358 C352 0.929 1_455 S
H359 C353 0.930 . S
Mn360 O365 2.095 1_554 S
Mn360 O375 2.162 . S
Mn360 O376 2.297 1_564 S
Mn360 O384 2.385 1_565 S
Mn360 O385 2.209 1_565 S
Mn360 O386 2.094 . S
Mn361 O366 2.121 1_554 S
Mn361 N368 2.257 1_565 S
Mn361 N377 2.282 1_565 S
Mn361 O385 2.215 1_565 S
Mn361 O387 2.117 . S
C362 O384 1.234 . S
C362 O385 1.283 . S
C363 O375 1.281 1_546 S
C363 O376 1.236 . S
C364 O386 1.240 . S
C364 O387 1.264 . S
O365 Mn360 2.095 1_556 S
O365 C374 1.250 . S
O366 Mn361 2.121 1_556 S
O366 C374 1.258 . S
C367 N368 1.326 1_556 S
C367 C371 1.460 . S
C367 H373 0.929 . S
N368 Mn361 2.257 1_545 S
N368 C367 1.326 1_554 S
N368 C372 1.362 . S
C369 C370 1.258 . S
C369 C372 1.431 . S
C369 C389 1.449 . S
C370 C369 1.258 . S
C370 C371 1.477 1_554 S
C370 H390 0.931 . S
C371 C367 1.460 . S
C371 C370 1.477 1_556 S
C371 H391 0.930 . S
C372 N368 1.362 . S
C372 C369 1.431 . S
C372 C382 1.476 . S
H373 C367 0.929 . S
C374 O365 1.250 . S
C374 O366 1.258 . S
O375 Mn360 2.162 . S
O375 C363 1.281 1_564 S
O376 Mn360 2.297 1_546 S
O376 C363 1.236 . S
N377 Mn361 2.282 1_545 S
N377 C378 1.328 . S
N377 C382 1.318 . S
C378 N377 1.328 . S
C378 C379 1.457 . S
C378 H383 0.929 1_545 S
C379 C378 1.457 . S
C379 C380 1.291 . S
C379 H392 0.931 . S
C380 C379 1.291 . S
C380 C381 1.373 . S
C380 H393 0.929 . S
C381 C380 1.373 . S
C381 C382 1.396 . S
C381 C388 1.403 . S
C382 C372 1.476 . S
C382 N377 1.318 . S
C382 C381 1.396 . S
H383 C378 0.929 1_565 S
O384 Mn360 2.385 1_545 S
O384 C362 1.234 . S
O385 Mn360 2.209 1_545 S
O385 Mn361 2.215 1_545 S
O385 C362 1.283 . S
O386 Mn360 2.094 . S
O386 C364 1.240 . S
O387 Mn361 2.117 . S
O387 C364 1.264 . S
C388 C381 1.403 . S
C388 C389 1.399 . S
C388 H394 0.929 . S
C389 C369 1.449 . S
C389 C388 1.399 . S
C389 H395 0.930 . S
H390 C370 0.931 . S
H391 C371 0.930 . S
H392 C379 0.931 . S
H393 C380 0.929 . S
H394 C388 0.929 . S
H395 C389 0.930 . S
Mn396 O401 2.095 1_554 S
Mn396 O411 2.162 . S
Mn396 O412 2.297 1_554 S
Mn396 O420 2.385 . S
Mn396 O421 2.209 . S
Mn396 O422 2.094 . S
Mn397 O402 2.121 1_554 S
Mn397 N404 2.257 . S
Mn397 N413 2.282 . S
Mn397 O421 2.215 . S
Mn397 O423 2.117 . S
C398 O420 1.234 . S
C398 O421 1.283 . S
C399 O411 1.281 1_556 S
C399 O412 1.236 . S
C400 O422 1.240 . S
C400 O423 1.264 . S
O401 Mn396 2.095 1_556 S
O401 C410 1.250 . S
O402 Mn397 2.121 1_556 S
O402 C410 1.258 . S
C403 N404 1.326 . S
C403 C407 1.460 . S
C403 H409 0.929 1_554 S
N404 Mn397 2.257 . S
N404 C403 1.326 . S
N404 C408 1.362 . S
C405 C406 1.258 . S
C405 C408 1.431 . S
C405 C425 1.449 . S
C406 C405 1.258 . S
C406 C407 1.477 . S
C406 H426 0.931 . S
C407 C403 1.460 . S
C407 C406 1.477 . S
C407 H427 0.930 1_554 S
C408 N404 1.362 . S
C408 C405 1.431 . S
C408 C418 1.476 . S
H409 C403 0.929 1_556 S
C410 O401 1.250 . S
C410 O402 1.258 . S
O411 Mn396 2.162 . S
O411 C399 1.281 1_554 S
O412 Mn396 2.297 1_556 S
O412 C399 1.236 . S
N413 Mn397 2.282 . S
N413 C414 1.328 . S
N413 C418 1.318 . S
C414 N413 1.328 . S
C414 C415 1.457 . S
C414 H419 0.929 . S
C415 C414 1.457 . S
C415 C416 1.291 . S
C415 H428 0.931 . S
C416 C415 1.291 . S
C416 C417 1.373 . S
C416 H429 0.929 . S
C417 C416 1.373 . S
C417 C418 1.396 . S
C417 C424 1.403 . S
C418 C408 1.476 . S
C418 N413 1.318 . S
C418 C417 1.396 . S
H419 C414 0.929 . S
O420 Mn396 2.385 . S
O420 C398 1.234 . S
O421 Mn396 2.209 . S
O421 Mn397 2.215 . S
O421 C398 1.283 . S
O422 Mn396 2.094 . S
O422 C400 1.240 . S
O423 Mn397 2.117 . S
O423 C400 1.264 . S
C424 C417 1.403 . S
C424 C425 1.399 . S
C424 H430 0.929 . S
C425 C405 1.449 . S
C425 C424 1.399 . S
C425 H431 0.930 . S
H426 C406 0.931 . S
H427 C407 0.930 1_556 S
H428 C415 0.931 . S
H429 C416 0.929 . S
H430 C424 0.929 . S
H431 C425 0.930 . S
Mn432 O437 2.095 . S
Mn432 O447 2.162 . S
Mn432 O448 2.297 1_556 S
Mn432 O456 2.385 . S
Mn432 O457 2.209 . S
Mn432 O458 2.094 . S
Mn433 O438 2.121 1_556 S
Mn433 N440 2.257 . S
Mn433 N449 2.282 . S
Mn433 O457 2.215 . S
Mn433 O459 2.117 . S
C434 O456 1.234 . S
C434 O457 1.283 . S
C435 O447 1.281 . S
C435 O448 1.236 1_556 S
C436 O458 1.240 . S
C436 O459 1.264 . S
O437 Mn432 2.095 . S
O437 C446 1.250 1_556 S
O438 Mn433 2.121 1_554 S
O438 C446 1.258 . S
C439 N440 1.318 1_554 S
C439 C443 1.461 . S
C439 H445 0.936 . S
N440 Mn433 2.257 . S
N440 C439 1.318 1_556 S
N440 C444 1.362 . S
C441 C442 1.258 . S
C441 C444 1.431 . S
C441 C461 1.449 . S
C442 C441 1.258 . S
C442 C443 1.477 1_556 S
C442 H462 0.931 . S
C443 C439 1.461 . S
C443 C442 1.477 1_554 S
C443 H463 0.930 . S
C444 N440 1.362 . S
C444 C441 1.431 . S
C444 C454 1.476 . S
H445 C439 0.936 . S
C446 O437 1.250 1_554 S
C446 O438 1.258 . S
O447 Mn432 2.162 . S
O447 C435 1.281 . S
O448 Mn432 2.297 1_554 S
O448 C435 1.236 1_554 S
N449 Mn433 2.282 . S
N449 C450 1.328 . S
N449 C454 1.318 . S
C450 N449 1.328 . S
C450 C451 1.457 . S
C450 H455 0.929 . S
C451 C450 1.457 . S
C451 C452 1.291 . S
C451 H464 0.931 . S
C452 C451 1.291 . S
C452 C453 1.373 . S
C452 H465 0.929 . S
C453 C452 1.373 . S
C453 C454 1.396 . S
C453 C460 1.403 . S
C454 C444 1.476 . S
C454 N449 1.318 . S
C454 C453 1.396 . S
H455 C450 0.929 . S
O456 Mn432 2.385 . S
O456 C434 1.234 . S
O457 Mn432 2.209 . S
O457 Mn433 2.215 . S
O457 C434 1.283 . S
O458 Mn432 2.094 . S
O458 C436 1.240 . S
O459 Mn433 2.117 . S
O459 C436 1.264 . S
C460 C453 1.403 . S
C460 C461 1.399 . S
C460 H466 0.929 . S
C461 C441 1.449 . S
C461 C460 1.399 . S
C461 H467 0.930 . S
H462 C442 0.931 . S
H463 C443 0.930 . S
H464 C451 0.931 . S
H465 C452 0.929 . S
H466 C460 0.929 . S
H467 C461 0.930 . S
Mn468 O473 2.095 . S
Mn468 O483 2.162 . S
Mn468 O484 2.297 . S
Mn468 O492 2.385 1_556 S
Mn468 O493 2.209 1_556 S
Mn468 O494 2.094 1_556 S
Mn469 O474 2.121 1_554 S
Mn469 N476 2.257 1_554 S
Mn469 N485 2.282 . S
Mn469 O493 2.215 . S
Mn469 O495 2.117 . S
C470 O492 1.234 . S
C470 O493 1.283 . S
C471 O483 1.281 . S
C471 O484 1.236 . S
C472 O494 1.240 . S
C472 O495 1.264 . S
O473 Mn468 2.095 . S
O473 C482 1.250 . S
O474 Mn469 2.121 1_556 S
O474 C482 1.258 . S
C475 N476 1.326 . S
C475 C479 1.460 . S
C475 H481 0.929 . S
N476 Mn469 2.257 1_556 S
N476 C475 1.326 . S
N476 C480 1.362 1_556 S
C477 C478 1.258 1_554 S
C477 C480 1.431 . S
C477 C497 1.449 . S
C478 C477 1.258 1_556 S
C478 C479 1.477 . S
C478 H498 0.931 . S
C479 C475 1.460 . S
C479 C478 1.477 . S
C479 H499 0.930 . S
C480 N476 1.362 1_554 S
C480 C477 1.431 . S
C480 C490 1.476 . S
H481 C475 0.929 . S
C482 O473 1.250 . S
C482 O474 1.258 . S
O483 Mn468 2.162 . S
O483 C471 1.281 . S
O484 Mn468 2.297 . S
O484 C471 1.236 . S
N485 Mn469 2.282 . S
N485 C486 1.328 . S
N485 C490 1.318 . S
C486 N485 1.328 . S
C486 C487 1.457 . S
C486 H491 0.929 . S
C487 C486 1.457 . S
C487 C488 1.291 . S
C487 H500 0.931 . S
C488 C487 1.291 . S
C488 C489 1.373 . S
C488 H501 0.929 . S
C489 C488 1.373 . S
C489 C490 1.396 . S
C489 C496 1.403 . S
C490 C480 1.476 . S
C490 N485 1.318 . S
C490 C489 1.396 . S
H491 C486 0.929 . S
O492 Mn468 2.385 1_554 S
O492 C470 1.234 . S
O493 Mn468 2.209 1_554 S
O493 Mn469 2.215 . S
O493 C470 1.283 . S
O494 Mn468 2.094 1_554 S
O494 C472 1.240 . S
O495 Mn469 2.117 . S
O495 C472 1.264 . S
C496 C489 1.403 . S
C496 C497 1.399 . S
C496 H502 0.929 . S
C497 C477 1.449 . S
C497 C496 1.399 . S
C497 H503 0.930 . S
H498 C478 0.931 . S
H499 C479 0.930 . S
H500 C487 0.931 . S
H501 C488 0.929 . S
H502 C496 0.929 . S
H503 C497 0.930 . S
Mn504 O509 2.095 1_556 S
Mn504 O519 2.162 . S
Mn504 O520 2.297 1_656 S
Mn504 O528 2.385 1_655 S
Mn504 O529 2.209 1_655 S
Mn504 O530 2.094 . S
Mn505 O510 2.121 1_556 S
Mn505 N512 2.257 1_655 S
Mn505 N521 2.282 1_655 S
Mn505 O529 2.215 1_655 S
Mn505 O531 2.117 . S
C506 O528 1.234 . S
C506 O529 1.283 . S
C507 O519 1.281 1_454 S
C507 O520 1.236 . S
C508 O530 1.240 . S
C508 O531 1.264 . S
O509 Mn504 2.095 1_554 S
O509 C518 1.250 . S
O510 Mn505 2.121 1_554 S
O510 C518 1.258 . S
C511 N512 1.326 1_554 S
C511 C515 1.460 . S
C511 H517 0.929 . S
N512 Mn505 2.257 1_455 S
N512 C511 1.326 1_556 S
N512 C516 1.362 . S
C513 C514 1.258 . S
C513 C516 1.431 . S
C513 C533 1.449 1_565 S
C514 C513 1.258 . S
C514 C515 1.477 1_556 S
C514 H534 0.931 1_565 S
C515 C511 1.460 . S
C515 C514 1.477 1_554 S
C515 H535 0.930 . S
C516 N512 1.362 . S
C516 C513 1.431 . S
C516 C526 1.476 . S
H517 C511 0.929 . S
C518 O509 1.250 . S
C518 O510 1.258 . S
O519 Mn504 2.162 . S
O519 C507 1.281 1_656 S
O520 Mn504 2.297 1_454 S
O520 C507 1.236 . S
N521 Mn505 2.282 1_455 S
N521 C522 1.328 . S
N521 C526 1.318 . S
C522 N521 1.328 . S
C522 C523 1.457 . S
C522 H527 0.929 . S
C523 C522 1.457 . S
C523 C524 1.291 . S
C523 H536 0.931 . S
C524 C523 1.291 . S
C524 C525 1.373 . S
C524 H537 0.929 . S
C525 C524 1.373 . S
C525 C526 1.396 . S
C525 C532 1.403 . S
C526 C516 1.476 . S
C526 N521 1.318 . S
C526 C525 1.396 . S
H527 C522 0.929 . S
O528 Mn504 2.385 1_455 S
O528 C506 1.234 . S
O529 Mn504 2.209 1_455 S
O529 Mn505 2.215 1_455 S
O529 C506 1.283 . S
O530 Mn504 2.094 . S
O530 C508 1.240 . S
O531 Mn505 2.117 . S
O531 C508 1.264 . S
C532 C525 1.403 . S
C532 C533 1.399 1_565 S
C532 H538 0.929 1_565 S
C533 C513 1.449 1_545 S
C533 C532 1.399 1_545 S
C533 H539 0.930 . S
H534 C514 0.931 1_545 S
H535 C515 0.930 . S
H536 C523 0.931 . S
H537 C524 0.929 . S
H538 C532 0.929 1_545 S
H539 C533 0.930 . S
Mn540 O545 2.095 . S
Mn540 O555 2.162 . S
Mn540 O556 2.297 . S
Mn540 O564 2.385 . S
Mn540 O565 2.209 . S
Mn540 O566 2.094 . S
Mn541 O546 2.121 . S
Mn541 N548 2.257 . S
Mn541 N557 2.282 . S
Mn541 O565 2.215 . S
Mn541 O567 2.117 . S
C542 O564 1.234 . S
C542 O565 1.283 . S
C543 O555 1.281 . S
C543 O556 1.236 . S
C544 O566 1.240 . S
C544 O567 1.264 . S
O545 Mn540 2.095 . S
O545 C554 1.250 . S
O546 Mn541 2.121 . S
O546 C554 1.258 . S
C547 N548 1.326 . S
C547 C551 1.460 . S
C547 H553 0.929 . S
N548 Mn541 2.257 . S
N548 C547 1.326 . S
N548 C552 1.362 . S
C549 C550 1.258 . S
C549 C552 1.431 . S
C549 C569 1.450 . S
C550 C549 1.258 . S
C550 C551 1.477 . S
C550 H570 0.936 . S
C551 C547 1.460 . S
C551 C550 1.477 . S
C551 H571 0.930 . S
C552 N548 1.362 . S
C552 C549 1.431 . S
C552 C562 1.476 . S
H553 C547 0.929 . S
C554 O545 1.250 . S
C554 O546 1.258 . S
O555 Mn540 2.162 . S
O555 C543 1.281 . S
O556 Mn540 2.297 . S
O556 C543 1.236 . S
N557 Mn541 2.282 . S
N557 C558 1.328 . S
N557 C562 1.318 . S
C558 N557 1.328 . S
C558 C559 1.457 1_554 S
C558 H563 0.929 1_554 S
C559 C558 1.457 1_556 S
C559 C560 1.291 . S
C559 H572 0.931 . S
C560 C559 1.291 . S
C560 C561 1.373 1_556 S
C560 H573 0.929 . S
C561 C560 1.373 1_554 S
C561 C562 1.396 . S
C561 C568 1.403 . S
C562 C552 1.476 . S
C562 N557 1.318 . S
C562 C561 1.396 . S
H563 C558 0.929 1_556 S
O564 Mn540 2.385 . S
O564 C542 1.234 . S
O565 Mn540 2.209 . S
O565 Mn541 2.215 . S
O565 C542 1.283 . S
O566 Mn540 2.094 . S
O566 C544 1.240 . S
O567 Mn541 2.117 . S
O567 C544 1.264 . S
C568 C561 1.403 . S
C568 C569 1.399 . S
C568 H574 0.925 1_544 S
C569 C549 1.450 . S
C569 C568 1.399 . S
C569 H575 0.929 1_545 S
H570 C550 0.936 . S
H571 C551 0.930 . S
H572 C559 0.931 . S
H573 C560 0.929 . S
H574 C568 0.925 1_566 S
H575 C569 0.929 1_565 S
Mn576 O581 2.095 . S
Mn576 O591 2.162 1_655 S
Mn576 O592 2.297 1_655 S
Mn576 O600 2.385 1_655 S
Mn576 O601 2.209 . S
Mn576 O602 2.094 . S
Mn577 O582 2.121 . S
Mn577 N584 2.257 . S
Mn577 N593 2.282 . S
Mn577 O601 2.215 . S
Mn577 O603 2.117 . S
C578 O600 1.234 . S
C578 O601 1.283 1_455 S
C579 O591 1.281 . S
C579 O592 1.236 . S
C580 O602 1.240 . S
C580 O603 1.264 . S
O581 Mn576 2.095 . S
O581 C590 1.250 . S
O582 Mn577 2.121 . S
O582 C590 1.258 . S
C583 N584 1.326 . S
C583 C587 1.460 . S
C583 H589 0.929 . S
N584 Mn577 2.257 . S
N584 C583 1.326 . S
N584 C588 1.362 . S
C585 C586 1.258 . S
C585 C588 1.431 . S
C585 C605 1.449 . S
C586 C585 1.258 . S
C586 C587 1.477 . S
C586 H606 0.931 . S
C587 C583 1.460 . S
C587 C586 1.477 . S
C587 H607 0.930 . S
C588 N584 1.362 . S
C588 C585 1.431 . S
C588 C598 1.476 . S
H589 C583 0.929 . S
C590 O581 1.250 . S
C590 O582 1.258 . S
O591 Mn576 2.162 1_455 S
O591 C579 1.281 . S
O592 Mn576 2.297 1_455 S
O592 C579 1.236 . S
N593 Mn577 2.282 . S
N593 C594 1.328 . S
N593 C598 1.318 . S
C594 N593 1.328 . S
C594 C595 1.457 . S
C594 H599 0.929 . S
C595 C594 1.457 . S
C595 C596 1.291 . S
C595 H608 0.931 1_556 S
C596 C595 1.291 . S
C596 C597 1.373 . S
C596 H609 0.929 . S
C597 C596 1.373 . S
C597 C598 1.396 . S
C597 C604 1.403 . S
C598 C588 1.476 . S
C598 N593 1.318 . S
C598 C597 1.396 . S
H599 C594 0.929 . S
O600 Mn576 2.385 1_455 S
O600 C578 1.234 . S
O601 Mn576 2.209 . S
O601 Mn577 2.215 . S
O601 C578 1.283 1_655 S
O602 Mn576 2.094 . S
O602 C580 1.240 . S
O603 Mn577 2.117 . S
O603 C580 1.264 . S
C604 C597 1.403 . S
C604 C605 1.399 . S
C604 H610 0.929 . S
C605 C585 1.449 . S
C605 C604 1.399 . S
C605 H611 0.930 . S
H606 C586 0.931 . S
H607 C587 0.930 . S
H608 C595 0.931 1_554 S
H609 C596 0.929 . S
H610 C604 0.929 . S
H611 C605 0.930 . S
Mn612 O617 2.095 . S
Mn612 O627 2.162 . S
Mn612 O628 2.297 . S
Mn612 O636 2.385 . S
Mn612 O637 2.209 . S
Mn612 O638 2.094 . S
Mn613 O618 2.121 . S
Mn613 N620 2.257 . S
Mn613 N629 2.282 . S
Mn613 O637 2.215 . S
Mn613 O639 2.117 . S
C614 O636 1.234 . S
C614 O637 1.283 . S
C615 O627 1.281 . S
C615 O628 1.236 . S
C616 O638 1.240 . S
C616 O639 1.264 . S
O617 Mn612 2.095 . S
O617 C626 1.250 . S
O618 Mn613 2.121 . S
O618 C626 1.258 . S
C619 N620 1.326 . S
C619 C623 1.460 . S
C619 H625 0.929 . S
N620 Mn613 2.257 . S
N620 C619 1.326 . S
N620 C624 1.362 . S
C621 C622 1.258 . S
C621 C624 1.431 . S
C621 C641 1.449 . S
C622 C621 1.258 . S
C622 C623 1.477 . S
C622 H642 0.931 . S
C623 C619 1.460 . S
C623 C622 1.477 . S
C623 H643 0.930 . S
C624 N620 1.362 . S
C624 C621 1.431 . S
C624 C634 1.476 . S
H625 C619 0.929 . S
C626 O617 1.250 . S
C626 O618 1.258 . S
O627 Mn612 2.162 . S
O627 C615 1.281 . S
O628 Mn612 2.297 . S
O628 C615 1.236 . S
N629 Mn613 2.282 . S
N629 C630 1.328 . S
N629 C634 1.318 . S
C630 N629 1.328 . S
C630 C631 1.457 . S
C630 H635 0.929 . S
C631 C630 1.457 . S
C631 C632 1.291 . S
C631 H644 0.931 . S
C632 C631 1.291 . S
C632 C633 1.373 . S
C632 H645 0.929 . S
C633 C632 1.373 . S
C633 C634 1.396 . S
C633 C640 1.403 . S
C634 C624 1.476 . S
C634 N629 1.318 . S
C634 C633 1.396 . S
H635 C630 0.929 . S
O636 Mn612 2.385 . S
O636 C614 1.234 . S
O637 Mn612 2.209 . S
O637 Mn613 2.215 . S
O637 C614 1.283 . S
O638 Mn612 2.094 . S
O638 C616 1.240 . S
O639 Mn613 2.117 . S
O639 C616 1.264 . S
C640 C633 1.403 . S
C640 C641 1.399 . S
C640 H646 0.929 . S
C641 C621 1.449 . S
C641 C640 1.399 . S
C641 H647 0.930 . S
H642 C622 0.931 . S
H643 C623 0.930 . S
H644 C631 0.931 . S
H645 C632 0.929 . S
H646 C640 0.929 . S
H647 C641 0.930 . S
C122 C4 1.838 1_556 S
C148 C50 1.740 1_556 S
C76 C184 1.489 1_554 S
C86 C194 2.061 . S
C14 C112 1.773 . S
C158 C40 1.826 . S
C328 C220 1.518 . S
C266 C364 1.676 . S
C302 C400 1.784 . S
C410 C292 1.706 . S
C338 C230 2.127 . S
C374 C256 1.729 . S
C436 C554 1.732 . S
C482 C580 1.690 . S
C508 C616 1.507 . S
C626 C518 1.924 . S
C544 C446 1.805 . S
C590 C472 1.732 . S
C3 C255 1.436 . S
C38 C291 1.321 . S
C218 C75 1.337 1_565 S
C74 C470 1.258 . S
C507 C2 1.337 . S
C435 C39 1.452 1_556 S
C578 C110 1.271 . S
C147 C614 1.348 . S
C543 C183 1.448 . S
C363 C182 1.336 . S
C111 C399 1.445 . S
C146 C327 1.350 . S
C219 C471 1.425 . S
C254 C506 1.248 . S
C290 C434 1.269 . S
C579 C398 1.326 . S
C615 C326 1.406 . S
C362 C542 1.252 . S
