# Generated by pormake.
# Topology sod, (4)-cn, num edge types: 1
# Building blocks:
#     Node 0, Type 0, BuildingBlock: TATPOV_clean_sbu_0, # of connection points: 4
#     Node 1, Type 0, BuildingBlock: TATPOV_clean_sbu_0, # of connection points: 4
#     Node 2, Type 0, BuildingBlock: TATPOV_clean_sbu_0, # of connection points: 4
#     Node 3, Type 0, BuildingBlock: TATPOV_clean_sbu_0, # of connection points: 4
#     Node 4, Type 0, BuildingBlock: TATPOV_clean_sbu_0, # of connection points: 4
#     Node 5, Type 0, BuildingBlock: TATPOV_clean_sbu_0, # of connection points: 4
#     Node 6, Type 0, BuildingBlock: TATPOV_clean_sbu_0, # of connection points: 4
#     Node 7, Type 0, BuildingBlock: TATPOV_clean_sbu_0, # of connection points: 4
#     Node 8, Type 0, BuildingBlock: TATPOV_clean_sbu_0, # of connection points: 4
#     Node 9, Type 0, BuildingBlock: TATPOV_clean_sbu_0, # of connection points: 4
#     Node 10, Type 0, BuildingBlock: TATPOV_clean_sbu_0, # of connection points: 4
#     Node 11, Type 0, BuildingBlock: TATPOV_clean_sbu_0, # of connection points: 4
#     Edge 12, Type (0, 0), BuildingBlock: XUDNAN_clean_linker_2, # of connection points: 2
#     Edge 13, Type (0, 0), BuildingBlock: XUDNAN_clean_linker_2, # of connection points: 2
#     Edge 14, Type (0, 0), BuildingBlock: XUDNAN_clean_linker_2, # of connection points: 2
#     Edge 15, Type (0, 0), BuildingBlock: XUDNAN_clean_linker_2, # of connection points: 2
#     Edge 16, Type (0, 0), BuildingBlock: XUDNAN_clean_linker_2, # of connection points: 2
#     Edge 17, Type (0, 0), BuildingBlock: XUDNAN_clean_linker_2, # of connection points: 2
#     Edge 18, Type (0, 0), BuildingBlock: XUDNAN_clean_linker_2, # of connection points: 2
#     Edge 19, Type (0, 0), BuildingBlock: XUDNAN_clean_linker_2, # of connection points: 2
#     Edge 20, Type (0, 0), BuildingBlock: XUDNAN_clean_linker_2, # of connection points: 2
#     Edge 21, Type (0, 0), BuildingBlock: XUDNAN_clean_linker_2, # of connection points: 2
#     Edge 22, Type (0, 0), BuildingBlock: XUDNAN_clean_linker_2, # of connection points: 2
#     Edge 23, Type (0, 0), BuildingBlock: XUDNAN_clean_linker_2, # of connection points: 2
#     Edge 24, Type (0, 0), BuildingBlock: XUDNAN_clean_linker_2, # of connection points: 2
#     Edge 25, Type (0, 0), BuildingBlock: XUDNAN_clean_linker_2, # of connection points: 2
#     Edge 26, Type (0, 0), BuildingBlock: XUDNAN_clean_linker_2, # of connection points: 2
#     Edge 27, Type (0, 0), BuildingBlock: XUDNAN_clean_linker_2, # of connection points: 2
#     Edge 28, Type (0, 0), BuildingBlock: XUDNAN_clean_linker_2, # of connection points: 2
#     Edge 29, Type (0, 0), BuildingBlock: XUDNAN_clean_linker_2, # of connection points: 2
#     Edge 30, Type (0, 0), BuildingBlock: XUDNAN_clean_linker_2, # of connection points: 2
#     Edge 31, Type (0, 0), BuildingBlock: XUDNAN_clean_linker_2, # of connection points: 2
#     Edge 32, Type (0, 0), BuildingBlock: XUDNAN_clean_linker_2, # of connection points: 2
#     Edge 33, Type (0, 0), BuildingBlock: XUDNAN_clean_linker_2, # of connection points: 2
#     Edge 34, Type (0, 0), BuildingBlock: XUDNAN_clean_linker_2, # of connection points: 2
#     Edge 35, Type (0, 0), BuildingBlock: XUDNAN_clean_linker_2, # of connection points: 2
# Relax obj value: 0.090
# Max RMSD: 0.145
# Mean RMSD: 0.126
data_MOF--net-sod--node1-TATPOV_clean_sbu_0--edge1-XUDNAN_clean_linker_2
_symmetry_space_group_name_H-M    P1
_symmetry_Int_Tables_number       1
_symmetry_cell_setting            triclinic
loop_
_symmetry_equiv_pos_as_xyz
'x, y, z'
_cell_length_a     41.991968
_cell_length_b     42.407693
_cell_length_c     43.64755
_cell_angle_alpha  90.578503
_cell_angle_beta   90.525615
_cell_angle_gamma 92.636689
loop_
_atom_site_label
_atom_site_type_symbol
_atom_site_fract_x
_atom_site_fract_y
_atom_site_fract_z
_atom_type_partial_charge
Zn0 Zn 0.98567 0.2199 0.43919 0.0
Zn1 Zn -0.00999 0.25188 0.49255 0.0
O2 O 0.03618 0.23854 0.48546 0.0
O3 O 0.03297 0.21463 0.44038 0.0
O4 O -0.00832 0.27771 0.53249 0.0
O5 O 0.96857 0.25636 0.41746 0.0
O6 O 0.97387 0.28376 0.46045 0.0
C7 C 0.04937 0.22433 0.46335 0.0
C8 C 0.94828 0.19014 0.48585 0.0
O9 O 0.95948 0.21342 0.50202 0.0
O10 O 0.95571 0.18766 0.45793 0.0
C11 C 0.01253 0.27491 0.55357 0.0
O12 O 0.0345 0.25413 0.55006 0.0
C13 C 0.96632 0.28204 0.43203 0.0
Zn14 Zn 0.81505 0.92878 0.55282 0.0
Zn15 Zn 0.78279 0.94301 0.50158 0.0
O16 O 0.80375 0.90097 0.49014 0.0
O17 O 0.83028 0.89035 0.53245 0.0
O18 O 0.75806 0.95494 0.46329 0.0
O19 O 0.77502 0.92442 0.57636 0.0
O20 O 0.7488 0.94024 0.53568 0.0
C21 C 0.8216 0.88315 0.50539 0.0
C22 C 0.8341 0.98955 0.5294 0.0
O23 O 0.81415 0.98147 0.50821 0.0
O24 O 0.83891 0.97111 0.55142 0.0
C25 C 0.73094 0.94285 0.45509 0.0
O26 O 0.71745 0.92042 0.47174 0.0
C27 C 0.7493 0.93187 0.56369 0.0
Zn28 Zn 0.05825 0.75963 0.44142 0.0
Zn29 Zn 0.05353 0.72803 0.49487 0.0
O30 O 0.00783 0.74182 0.48674 0.0
O31 O 0.01149 0.76798 0.44344 0.0
O32 O 0.05104 0.70459 0.53525 0.0
O33 O 0.07299 0.72077 0.4212 0.0
O34 O 0.06811 0.69447 0.46428 0.0
C35 C -0.00506 0.75748 0.46552 0.0
C36 C 0.09821 0.78756 0.48776 0.0
O37 O 0.08584 0.76528 0.50383 0.0
O38 O 0.09046 0.79016 0.45988 0.0
C39 C 0.0272 0.68632 0.5417 0.0
O40 O 0.0036 0.68279 0.5218 0.0
C41 C 0.07512 0.69541 0.43594 0.0
Zn42 Zn 0.22655 0.04764 0.56296 0.0
Zn43 Zn 0.26146 0.03703 0.51316 0.0
O44 O 0.23773 0.07785 0.50351 0.0
O45 O 0.21128 0.08751 0.54564 0.0
O46 O 0.29058 0.03147 0.47638 0.0
O47 O 0.26426 0.04739 0.59039 0.0
O48 O 0.29335 0.03875 0.5496 0.0
C49 C 0.21925 0.0951 0.51875 0.0
C50 C 0.21104 0.98774 0.53443 0.0
O51 O 0.23252 -0.00361 0.51537 0.0
O52 O 0.20343 0.006 0.55599 0.0
C53 C 0.28603 0.01148 0.4546 0.0
O54 O 0.26039 -0.00746 0.45469 0.0
C55 C 0.29086 0.04215 0.57855 0.0
Zn56 Zn 0.52714 0.06284 0.3024 0.0
Zn57 Zn 0.51803 0.01531 0.26379 0.0
O58 O 0.47666 0.0124 0.29044 0.0
O59 O 0.48593 0.05137 0.32348 0.0
O60 O 0.51366 0.97768 0.23398 0.0
O61 O 0.52838 0.09387 0.26831 0.0
O62 O 0.52187 0.05496 0.23484 0.0
C63 C 0.46812 0.0285 0.31367 0.0
C64 C 0.5763 0.02041 0.30905 0.0
O65 O 0.55944 0.00523 0.28877 0.0
O66 O 0.56819 0.04709 0.31854 0.0
C67 C 0.4983 0.97769 0.20866 0.0
O68 O 0.48334 0.00302 0.20098 0.0
C69 C 0.5259 0.08449 0.24075 0.0
Zn70 Zn 0.00324 0.55247 0.21357 0.0
Zn71 Zn 0.98213 0.50231 0.24737 0.0
O72 O 0.00597 0.4787 0.21424 0.0
O73 O 0.02047 0.51942 0.18557 0.0
O74 O 0.96666 0.47101 0.27853 0.0
O75 O 0.02992 0.57016 0.24923 0.0
O76 O 0.01137 0.52925 0.27506 0.0
C77 C 0.01927 0.48995 0.19033 0.0
C78 C 0.93561 0.54602 0.21589 0.0
O79 O 0.94163 0.52179 0.23156 0.0
O80 O 0.95801 0.56419 0.20626 0.0
C81 C 0.95827 0.44203 0.27547 0.0
O82 O 0.95836 0.42871 0.24816 0.0
C83 C 0.02885 0.55442 0.27371 0.0
Zn84 Zn 0.54823 0.06757 0.70208 0.0
Zn85 Zn 0.53811 0.02037 0.74325 0.0
O86 O 0.57783 0.0078 0.72048 0.0
O87 O 0.58922 0.04815 0.69043 0.0
O88 O 0.53222 0.989 0.77712 0.0
O89 O 0.54373 0.09994 0.73583 0.0
O90 O 0.53931 0.06074 0.76838 0.0
C91 C 0.5954 0.02111 0.70032 0.0
C92 C 0.4901 0.02948 0.69208 0.0
O93 O 0.49798 0.01591 0.71673 0.0
O94 O 0.50803 0.05111 0.68077 0.0
C95 C 0.51313 0.9649 0.77663 0.0
O96 O 0.49674 0.95773 0.75154 0.0
C97 C 0.54016 0.09008 0.7629 0.0
Zn98 Zn 0.94367 0.48746 0.72907 0.0
Zn99 Zn -0.0008 0.48955 0.75956 0.0
O100 O 0.00338 0.52816 0.73069 0.0
O101 O 0.95709 0.52724 0.70657 0.0
O102 O 0.04138 0.49268 0.78358 0.0
O103 O 0.91876 0.48943 0.76831 0.0
O104 O 0.96439 0.49254 0.79356 0.0
C105 C 0.98473 0.53981 0.71096 0.0
C106 C 0.98083 0.43392 0.71513 0.0
O107 O 0.00035 0.44736 0.73438 0.0
O108 O 0.95439 0.446 0.70957 0.0
C109 C 0.04615 0.47971 0.80934 0.0
O110 O 0.02296 0.46235 0.82157 0.0
C111 C 0.93392 0.49207 0.79348 0.0
Zn112 Zn 0.2643 0.49538 0.07835 0.0
Zn113 Zn 0.24357 0.48864 0.02065 0.0
O114 O 0.27775 0.45469 0.02264 0.0
O115 O 0.29574 0.46267 0.06993 0.0
O116 O 0.22123 0.48465 0.97883 0.0
O117 O 0.22324 0.47946 0.09586 0.0
O118 O 0.20512 0.47687 0.04832 0.0
C119 C 0.29625 0.44768 0.04474 0.0
C120 C 0.2737 0.5524 0.04531 0.0
O121 O 0.26302 0.53482 0.02322 0.0
O122 O 0.27507 0.54148 0.07215 0.0
C123 C 0.22639 0.50216 0.95571 0.0
O124 O 0.24976 0.52384 0.95698 0.0
C125 C 0.20093 0.47296 0.07693 0.0
Zn126 Zn 0.50014 0.27662 0.95458 0.0
Zn127 Zn 0.50436 0.24122 0.00074 0.0
O128 O 0.46717 0.27068 0.011 0.0
O129 O 0.46985 0.30499 0.9735 0.0
O130 O 0.50788 0.21337 0.03844 0.0
O131 O 0.48213 0.24249 0.92829 0.0
O132 O 0.49524 0.20956 0.96443 0.0
C133 C 0.45732 0.2954 -0.0019 0.0
C134 C 0.56228 0.28107 0.97739 0.0
O135 O 0.54878 0.2651 -0.00132 0.0
O136 O 0.54673 0.28766 0.95358 0.0
C137 C 0.51733 0.22702 0.06318 0.0
O138 O 0.52369 0.25766 0.06283 0.0
C139 C 0.48471 0.21461 0.93747 0.0
Zn140 Zn 0.69141 0.51733 0.05387 0.0
Zn141 Zn 0.73843 0.5223 0.01278 0.0
O142 O 0.7092 0.55834 -0.00029 0.0
O143 O 0.67167 0.55434 0.03468 0.0
O144 O 0.77632 0.5239 0.98357 0.0
O145 O 0.7211 0.52468 0.08892 0.0
O146 O 0.75988 0.53024 0.05542 0.0
C147 C 0.68377 0.56815 0.0117 0.0
C148 C 0.69671 0.46067 0.0195 0.0
O149 O 0.71899 0.47675 0.00635 0.0
O150 O 0.68079 0.473 0.04055 0.0
C151 C 0.77409 0.5146 0.95575 0.0
O152 O 0.74605 0.50482 0.94484 0.0
C153 C 0.75023 0.53016 0.0831 0.0
Zn154 Zn 0.46833 0.74053 0.94136 0.0
Zn155 Zn 0.48037 0.76976 -0.00481 0.0
O156 O 0.51934 0.74176 0.99039 0.0
O157 O 0.51149 0.72182 0.9439 0.0
O158 O 0.48852 0.79451 0.03535 0.0
O159 O 0.46436 0.78124 0.9195 0.0
O160 O 0.47942 0.8051 0.96258 0.0
C161 C 0.52854 0.72507 0.96789 0.0
C162 C 0.42158 0.72337 0.98597 0.0
O163 O 0.43809 0.74329 0.00241 0.0
O164 O 0.42985 0.7176 0.95875 0.0
C165 C 0.47544 0.82059 0.04039 0.0
O166 O 0.45596 0.83122 0.01958 0.0
C167 C 0.47221 0.80631 0.93416 0.0
H168 H 0.95091 0.28488 0.37137 0.0
H169 H 0.96258 0.34315 0.45343 0.0
H170 H 0.95438 0.39068 0.4224 0.0
H171 H -0.00484 0.33312 0.32443 0.0
H172 H 0.97099 0.32607 0.29049 0.0
H173 H 0.97195 0.29653 0.31966 0.0
H174 H 0.91045 0.29656 0.3242 0.0
H175 H 0.90924 0.32604 0.29479 0.0
H176 H 0.89154 0.33316 0.33154 0.0
H177 H 0.95181 0.43186 0.38157 0.0
H178 H 0.95589 0.46353 0.33467 0.0
H179 H 0.94707 0.37786 0.27931 0.0
C180 C 0.95096 0.30751 0.38309 0.0
C181 C 0.95729 0.31028 0.41491 0.0
C182 C 0.95758 0.34043 0.42914 0.0
C183 C 0.95288 0.36753 0.4117 0.0
C184 C 0.94768 0.36395 0.38019 0.0
C185 C 0.94649 0.33463 0.36608 0.0
C186 C 0.94382 0.33719 0.33159 0.0
C187 C 0.97217 0.32237 0.31563 0.0
C188 C 0.91185 0.32236 0.31985 0.0
C189 C 0.94502 0.37266 0.32829 0.0
C190 C 0.94664 0.38766 0.3566 0.0
C191 C 0.95007 0.42036 0.35933 0.0
C192 C 0.95247 0.43813 0.33249 0.0
C193 C 0.95178 0.42316 0.30324 0.0
C194 C 0.94734 0.39003 0.30125 0.0
H195 H 0.67132 0.92435 0.4325 0.0
H196 H 0.75206 0.9895 0.41624 0.0
H197 H 0.72306 0.01215 0.37294 0.0
H198 H 0.64787 0.912 0.35117 0.0
H199 H 0.60588 0.91066 0.35956 0.0
H200 H 0.63399 0.89745 0.38758 0.0
H201 H 0.61261 0.93654 0.42759 0.0
H202 H 0.58441 0.94973 0.39979 0.0
H203 H 0.6118 0.97787 0.41847 0.0
H204 H 0.68355 0.03164 0.33528 0.0
H205 H 0.63607 0.04642 0.30571 0.0
H206 H 0.58129 0.96771 0.3443 0.0
C207 C 0.68313 0.94304 0.41955 0.0
C208 C 0.7141 0.95505 0.42782 0.0
C209 C 0.72846 0.97979 0.4104 0.0
C210 C 0.71219 -0.00723 0.38565 0.0
C211 C 0.68162 0.98064 0.37834 0.0
C212 C 0.66724 0.95623 0.39465 0.0
C213 C 0.63345 0.94881 0.38314 0.0
C214 C 0.63011 0.91523 0.36955 0.0
C215 C 0.60914 0.95354 0.40877 0.0
C216 C 0.63077 0.97344 0.35836 0.0
C217 C 0.65897 0.9914 0.35587 0.0
C218 C 0.66161 0.01731 0.33651 0.0
C219 C 0.63461 0.02548 0.31974 0.0
C220 C 0.60548 0.00762 0.3221 0.0
C221 C 0.60368 0.98096 0.34125 0.0
H222 H 0.06597 0.60868 0.28032 0.0
H223 H 0.03004 0.52661 0.33 0.0
H224 H 0.05166 0.55001 0.37807 0.0
H225 H 0.13893 0.62756 0.3326 0.0
H226 H 0.1336 0.66924 0.32849 0.0
H227 H 0.12363 0.64247 0.29712 0.0
H228 H 0.06657 0.6633 0.295 0.0
H229 H 0.07633 0.68996 0.32611 0.0
H230 H 0.04266 0.66225 0.32913 0.0
H231 H 0.06475 0.58676 0.42117 0.0
H232 H 0.06716 0.63393 0.45483 0.0
H233 H 0.09637 0.69162 0.37761 0.0
C234 C 0.0637 0.59515 0.30113 0.0
C235 C 0.04627 0.56596 0.30143 0.0
C236 C 0.04333 0.5491 0.3292 0.0
C237 C 0.05578 0.56206 0.35664 0.0
C238 C 0.0716 0.59163 0.35585 0.0
C239 C 0.076 0.60778 0.32869 0.0
C240 C 0.08917 0.64109 0.33444 0.0
C241 C 0.12338 0.64532 0.32246 0.0
C242 C 0.06737 0.66554 0.32037 0.0
C243 C 0.08874 0.64202 0.36907 0.0
C244 C 0.07957 0.61301 0.3811 0.0
C245 C 0.07292 0.60937 0.41218 0.0
C246 C 0.0743 0.6363 0.43116 0.0
C247 C 0.08184 0.66639 0.41876 0.0
C248 C 0.09077 0.66885 0.38776 0.0
H249 H 0.34153 0.04747 0.44712 0.0
H250 H 0.2844 0.9703 0.40552 0.0
H251 H 0.3242 0.96611 0.36446 0.0
H252 H 0.36721 0.08374 0.37674 0.0
H253 H 0.40656 0.09457 0.39127 0.0
H254 H 0.3734 0.09143 0.41711 0.0
H255 H 0.40341 0.05145 0.44987 0.0
H256 H 0.43665 0.05447 0.42412 0.0
H257 H 0.41771 0.01642 0.43189 0.0
H258 H 0.37151 0.97013 0.32785 0.0
H259 H 0.42133 0.98247 0.29941 0.0
H260 H 0.44633 0.05705 0.36538 0.0
C261 C 0.33728 0.0297 0.42937 0.0
C262 C 0.30974 0.00923 0.42963 0.0
C263 C 0.30524 0.98631 0.40589 0.0
C264 C 0.32775 0.98373 0.38243 0.0
C265 C 0.35467 0.00425 0.38293 0.0
C266 C 0.35943 0.02683 0.4058 0.0
C267 C 0.39031 0.04598 0.4013 0.0
C268 C 0.38398 0.081 0.3963 0.0
C269 C 0.41338 0.04181 0.4284 0.0
C270 C 0.40225 0.03067 0.37237 0.0
C271 C 0.38148 0.00662 0.36202 0.0
C272 C 0.38789 0.98899 0.33576 0.0
C273 C 0.41625 -0.00385 0.31973 0.0
C274 C 0.43783 0.02076 0.33 0.0
C275 C 0.43044 0.03813 0.3567 0.0
H276 H 0.95311 0.56458 0.66234 0.0
H277 H 0.04193 0.5744 0.71395 0.0
H278 H 0.06174 0.61519 0.67772 0.0
H279 H 0.98713 0.57 0.5894 0.0
H280 H 0.95541 0.59164 0.57279 0.0
H281 H 0.94728 0.56553 0.60429 0.0
H282 H 0.92417 0.61145 0.63535 0.0
H283 H 0.93205 0.6377 0.60384 0.0
H284 H 0.94803 0.64744 0.6414 0.0
H285 H 0.07275 0.65304 0.63366 0.0
H286 H 0.07404 0.68417 0.58602 0.0
H287 H 0.9782 0.64812 0.56337 0.0
C288 C 0.97655 0.57562 0.66644 0.0
C289 C -0.00412 0.56635 0.69119 0.0
C290 C 0.02659 0.58118 0.6953 0.0
C291 C 0.03804 0.60438 0.67482 0.0
C292 C 0.01851 0.61248 0.65035 0.0
C293 C 0.98836 0.59856 0.6462 0.0
C294 C 0.97261 0.61011 0.61732 0.0
C295 C 0.96519 0.58269 0.59462 0.0
C296 C 0.94243 0.62773 0.62495 0.0
C297 C -0.00126 0.63243 0.60554 0.0
C298 C 0.02496 0.63372 0.62498 0.0
C299 C 0.05226 0.65231 0.6184 0.0
C300 C 0.05277 0.6699 0.59126 0.0
C301 C 0.02623 0.66863 0.57089 0.0
C302 C -0.00111 0.6497 0.57839 0.0
H303 H 0.4718 0.04189 0.63349 0.0
H304 H 0.43748 0.00188 0.7189 0.0
H305 H 0.38279 -0.00194 0.69754 0.0
H306 H 0.40936 0.08962 0.61968 0.0
H307 H 0.40739 0.08351 0.57877 0.0
H308 H 0.44449 0.07951 0.59898 0.0
H309 H 0.44857 0.02272 0.57737 0.0
H310 H 0.41171 0.02671 0.55659 0.0
H311 H 0.41587 -0.00575 0.58246 0.0
H312 H 0.3318 0.00633 0.67037 0.0
H313 H 0.28741 0.01915 0.63615 0.0
H314 H 0.35483 0.05108 0.56698 0.0
C315 C 0.45287 0.03166 0.64745 0.0
C316 C 0.45871 0.02227 0.67785 0.0
C317 C 0.43346 0.00903 0.69548 0.0
C318 C 0.40236 0.00686 0.68359 0.0
C319 C 0.39723 0.01746 0.65392 0.0
C320 C 0.42184 0.02891 0.63579 0.0
C321 C 0.40969 0.03994 0.60512 0.0
C322 C 0.41824 0.07524 0.60039 0.0
C323 C 0.4222 0.01969 0.57883 0.0
C324 C 0.37425 0.03401 0.60931 0.0
C325 C 0.36764 0.02109 0.63766 0.0
C326 C 0.33663 0.01581 0.64787 0.0
C327 C 0.31163 0.02349 0.62839 0.0
C328 C 0.31783 0.03602 0.59895 0.0
C329 C 0.34953 0.0412 0.58925 0.0
H330 H 0.96746 0.31651 0.57115 0.0
H331 H 0.05762 0.27944 0.59949 0.0
H332 H 0.05839 0.31398 0.64544 0.0
H333 H 0.98493 0.39602 0.59446 0.0
H334 H 0.94512 0.40257 0.60744 0.0
H335 H 0.95133 0.37412 0.57745 0.0
H336 H 0.92131 0.33091 0.60904 0.0
H337 H 0.91511 0.35923 0.63919 0.0
H338 H 0.93444 0.32319 0.64757 0.0
H339 H 0.05042 0.35506 0.68743 0.0
H340 H 0.03398 0.39838 0.72149 0.0
H341 H 0.94844 0.40685 0.66614 0.0
C342 C 0.98732 0.31551 0.58706 0.0
C343 C 0.01249 0.2952 0.5816 0.0
C344 C 0.038 0.2947 0.60311 0.0
C345 C 0.03865 0.31425 0.62934 0.0
C346 C 0.01351 0.33406 0.63396 0.0
C347 C 0.98825 0.33469 0.61345 0.0
C348 C 0.96442 0.35841 0.6234 0.0
C349 C 0.96128 0.38431 0.59926 0.0
C350 C 0.9319 0.34194 0.63021 0.0
C351 C 0.9804 0.37136 0.65245 0.0
C352 C 0.00867 0.35706 0.65827 0.0
C353 C 0.02815 0.3662 0.68323 0.0
C354 C 0.01861 0.39081 0.7025 0.0
C355 C -0.01021 0.40595 0.69677 0.0
C356 C 0.97041 0.39562 0.67155 0.0
H357 H 0.62342 0.03454 0.64564 0.0
H358 H 0.62123 0.96616 0.71909 0.0
H359 H 0.65668 0.9327 0.68925 0.0
H360 H 0.6209 0.97825 0.58396 0.0
H361 H 0.64719 0.00169 0.55993 0.0
H362 H 0.62234 0.0207 0.58729 0.0
H363 H 0.67198 0.04978 0.61205 0.0
H364 H 0.69683 0.03151 0.58428 0.0
H365 H 0.70494 0.02722 0.62461 0.0
H366 H 0.69337 0.90779 0.65204 0.0
H367 H 0.73165 0.89486 0.61164 0.0
H368 H 0.70649 0.9779 0.56134 0.0
C369 C 0.63072 0.01276 0.65573 0.0
C370 C 0.6198 0.00303 0.6848 0.0
C371 C 0.6295 0.97411 0.69692 0.0
C372 C 0.64939 0.95488 0.68006 0.0
C373 C 0.6589 0.96479 0.65106 0.0
C374 C 0.65003 -0.00688 0.63909 0.0
C375 C 0.66358 -0.00148 0.6075 0.0
C376 C 0.6369 -0.00014 0.58324 0.0
C377 C 0.68565 0.02852 0.60711 0.0
C378 C 0.68206 0.96902 0.60375 0.0
C379 C 0.67892 0.94978 0.62907 0.0
C380 C 0.69568 0.92239 0.63192 0.0
C381 C 0.7172 0.91517 0.60886 0.0
C382 C 0.72144 0.93514 0.58328 0.0
C383 C 0.70288 0.96177 0.58021 0.0
H384 H 0.42005 0.33558 0.96748 0.0
H385 H 0.43491 0.29507 0.05714 0.0
H386 H 0.39258 0.32772 0.07813 0.0
H387 H 0.40812 0.41297 0.99183 0.0
H388 H 0.37764 0.42025 0.96375 0.0
H389 H 0.40741 0.39224 0.95554 0.0
H390 H 0.36313 0.34891 0.94453 0.0
H391 H 0.33315 0.37683 0.95261 0.0
H392 H 0.33341 0.34019 0.97315 0.0
H393 H 0.35262 0.36818 0.08985 0.0
H394 H 0.31546 0.4114 0.09155 0.0
H395 H 0.32497 0.42386 0.99343 0.0
C396 C 0.41428 0.33335 0.99152 0.0
C397 C 0.43085 0.31296 0.01082 0.0
C398 C 0.42243 0.31052 0.04202 0.0
C399 C 0.39849 0.32896 0.05408 0.0
C400 C 0.38299 0.34919 0.03443 0.0
C401 C 0.3903 0.35118 0.00374 0.0
C402 C 0.37071 0.37526 0.98761 0.0
C403 C 0.39226 0.40174 0.97389 0.0
C404 C 0.3488 0.35934 0.96302 0.0
C405 C 0.35174 0.38723 0.01422 0.0
C406 C 0.3592 0.37183 0.04099 0.0
C407 C 0.34628 0.38007 0.06899 0.0
C408 C 0.32534 0.40477 0.0697 0.0
C409 C 0.3173 0.42086 0.04256 0.0
C410 C 0.33036 0.41165 0.0144 0.0
H411 H 0.29735 0.57665 0.99153 0.0
H412 H 0.283 0.60017 0.08721 0.0
H413 H 0.31424 0.65028 0.08078 0.0
H414 H 0.37605 0.60177 0.98949 0.0
H415 H 0.37544 0.6175 0.9513 0.0
H416 H 0.34722 0.58636 0.96166 0.0
H417 H 0.30049 0.6206 0.94549 0.0
H418 H 0.32865 0.65184 0.93477 0.0
H419 H 0.29766 0.6596 0.96177 0.0
H420 H 0.3532 0.69406 0.06603 0.0
H421 H 0.39596 0.72836 0.0436 0.0
H422 H 0.38511 0.67625 0.95771 0.0
C423 C 0.29984 0.59287 0.01082 0.0
C424 C 0.28752 0.5846 0.0398 0.0
C425 C 0.29211 0.60606 0.06475 0.0
C426 C 0.30977 0.63465 0.06131 0.0
C427 C 0.32265 0.64158 0.03275 0.0
C428 C 0.31766 0.62145 0.00784 0.0
C429 C 0.33675 0.6329 0.98051 0.0
C430 C 0.36025 0.60816 0.97016 0.0
C431 C 0.31456 0.64177 0.95407 0.0
C432 C 0.35407 0.66189 -0.00571 0.0
C433 C 0.34531 0.66679 0.0243 0.0
C434 C 0.35984 0.69081 0.04236 0.0
C435 C 0.38418 0.71014 0.02945 0.0
C436 C 0.39386 0.70518 -0.00114 0.0
C437 C 0.3781 0.681 0.98105 0.0
H438 H 0.58756 0.3068 0.02984 0.0
H439 H 0.60706 0.29195 0.9337 0.0
H440 H 0.65309 0.33015 0.93734 0.0
H441 H 0.59485 0.38402 0.02784 0.0
H442 H 0.61309 0.39134 0.06493 0.0
H443 H 0.58914 0.35582 0.05818 0.0
H444 H 0.63606 0.32195 0.07449 0.0
H445 H 0.6602 0.35753 0.08191 0.0
H446 H 0.6742 0.32772 0.05626 0.0
H447 H 0.68839 0.37786 0.94805 0.0
H448 H 0.70933 0.43079 0.965 0.0
H449 H 0.66494 0.41631 0.05338 0.0
C450 C 0.60271 0.3103 0.0101 0.0
C451 C 0.59429 0.29615 0.98168 0.0
C452 C 0.61356 0.30232 0.9558 0.0
C453 C 0.63977 0.32393 0.95768 0.0
C454 C 0.64633 0.33918 0.98561 0.0
C455 C 0.62854 0.33236 0.01151 0.0
C456 C 0.63646 0.3559 0.03705 0.0
C457 C 0.60662 0.37275 0.04757 0.0
C458 C 0.65271 0.33981 0.06402 0.0
C459 C 0.65966 0.37819 0.02078 0.0
C460 C 0.66594 0.36767 0.9915 0.0
C461 C 0.68429 0.38598 0.97121 0.0
C462 C 0.69599 0.41604 0.98094 0.0
C463 C 0.68861 0.42762 0.0104 0.0
C464 C 0.67099 0.40802 0.03071 0.0
H465 H 0.6449 0.60605 0.04311 0.0
H466 H 0.68643 0.59286 0.95351 0.0
H467 H 0.655 0.63646 0.93348 0.0
H468 H 0.56824 0.61912 0.01887 0.0
H469 H 0.56056 0.6486 0.04757 0.0
H470 H 0.58889 0.61909 0.05527 0.0
H471 H 0.63238 0.6629 0.06743 0.0
H472 H 0.60411 0.69263 0.05981 0.0
H473 H 0.64132 0.69299 0.03952 0.0
H474 H 0.61345 0.67622 0.92217 0.0
H475 H 0.56755 0.71062 0.92078 0.0
H476 H 0.55557 0.69948 0.01868 0.0
C477 C 0.64779 0.61258 0.01934 0.0
C478 C 0.66795 0.596 -0.00025 0.0
C479 C 0.67119 0.60537 0.96888 0.0
C480 C 0.65344 0.63007 0.95738 0.0
C481 C 0.6332 0.64545 0.97725 0.0
C482 C 0.6307 0.63731 0.00771 0.0
C483 C 0.60617 0.65622 0.02407 0.0
C484 C 0.57939 0.63446 0.0372 0.0
C485 C 0.62195 0.67745 0.04919 0.0
C486 C 0.59423 0.67556 -0.00219 0.0
C487 C 0.61022 0.66914 0.97101 0.0
C488 C 0.6013 0.68193 0.94313 0.0
C489 C 0.57515 0.70134 0.94256 0.0
C490 C 0.55835 0.70799 0.96972 0.0
C491 C 0.56851 0.69545 -0.00225 0.0
H492 H 0.45444 0.81688 0.87496 0.0
H493 H 0.49955 0.86298 0.95447 0.0
H494 H 0.51269 0.91005 0.92321 0.0
H495 H 0.51044 0.84229 0.82173 0.0
H496 H 0.48232 0.84786 0.79103 0.0
H497 H 0.47319 0.81938 0.8203 0.0
H498 H 0.42066 0.8466 0.83236 0.0
H499 H 0.42939 0.87497 0.80279 0.0
H500 H 0.42188 0.88824 0.84131 0.0
H501 H 0.52593 0.94947 0.8818 0.0
H502 H 0.53477 0.97998 0.83455 0.0
H503 H 0.48035 0.90787 0.78251 0.0
C504 C 0.46652 0.83708 0.88605 0.0
C505 C 0.47598 0.83624 0.91718 0.0
C506 C 0.49191 0.86314 0.9307 0.0
C507 C 0.49954 0.88994 0.91311 0.0
C508 C 0.49078 0.88949 0.88219 0.0
C509 C 0.47421 0.86391 0.86891 0.0
C510 C 0.46884 0.86862 0.83496 0.0
C511 C 0.48465 0.84302 0.8159 0.0
C512 C 0.43307 0.86968 0.82742 0.0
C513 C 0.48565 0.90057 0.83098 0.0
C514 C 0.49808 0.91227 0.85848 0.0
C515 C 0.51594 0.94073 0.86023 0.0
C516 C 0.52098 0.95778 0.83321 0.0
C517 C 0.50817 0.94633 0.80482 0.0
C518 C 0.49024 0.91737 0.80386 0.0
H519 H 0.16898 0.46828 0.94992 0.0
H520 H 0.23358 0.53198 0.90058 0.0
H521 H 0.19559 0.5315 0.85702 0.0
H522 H 0.13967 0.42187 0.88362 0.0
H523 H 0.09953 0.41805 0.89785 0.0
H524 H 0.1327 0.42186 0.92432 0.0
H525 H 0.10767 0.47013 0.94986 0.0
H526 H 0.07451 0.46655 0.92343 0.0
H527 H 0.09773 0.50327 0.92665 0.0
H528 H 0.14936 0.52582 0.81949 0.0
H529 H 0.09865 0.51556 0.79122 0.0
H530 H 0.06382 0.45614 0.86528 0.0
C531 C 0.17539 0.48179 0.9298 0.0
C532 C 0.20446 0.50004 0.92869 0.0
C533 C 0.21159 0.51773 0.90202 0.0
C534 C 0.19013 0.5176 0.87711 0.0
C535 C 0.16154 0.4997 0.87913 0.0
C536 C 0.15416 0.48208 0.90478 0.0
C537 C 0.12129 0.46586 0.90167 0.0
C538 C 0.12344 0.42977 0.90187 0.0
C539 C 0.09899 0.47714 0.9269 0.0
C540 C 0.11121 0.47734 0.87039 0.0
C541 C 0.13483 0.4967 0.8577 0.0
C542 C 0.13078 0.51057 0.82918 0.0
C543 C 0.10183 0.5046 0.81327 0.0
C544 C 0.07713 0.485 0.82591 0.0
C545 C 0.08215 0.47115 0.85485 0.0
H546 H 0.55695 0.09254 0.82379 0.0
H547 H 0.49638 0.13387 0.75542 0.0
H548 H 0.46827 0.16179 0.79612 0.0
H549 H 0.4991 0.08426 0.88483 0.0
H550 H 0.52688 0.09659 0.91482 0.0
H551 H 0.54088 0.07722 0.88088 0.0
H552 H 0.5809 0.12432 0.87072 0.0
H553 H 0.56777 0.14313 0.90518 0.0
H554 H 0.56655 0.16371 0.86927 0.0
H555 H 0.4461 0.18386 0.84291 0.0
H556 H 0.44129 0.2127 0.89162 0.0
H557 H 0.51898 0.16157 0.93029 0.0
C558 C 0.538 0.1078 0.81755 0.0
C559 C 0.52874 0.11126 0.78665 0.0
C560 C 0.50401 0.13137 0.77902 0.0
C561 C 0.48752 0.14677 0.80198 0.0
C562 C 0.49647 0.14213 0.83232 0.0
C563 C 0.52186 0.12417 0.84017 0.0
C564 C 0.52898 0.12645 0.87425 0.0
C565 C 0.52363 0.0942 0.88959 0.0
C566 C 0.56306 0.14024 0.8802 0.0
C567 C 0.50404 0.14912 0.88412 0.0
C568 C 0.48479 0.15671 0.85963 0.0
C569 C 0.46096 0.1782 0.86229 0.0
C570 C 0.4583 0.1943 0.89009 0.0
C571 C 0.47984 0.18931 0.91451 0.0
C572 C 0.50183 0.16525 0.91214 0.0
H573 H 0.86916 0.48607 0.80094 0.0
H574 H 0.95733 0.5063 0.85154 0.0
H575 H 0.92629 0.5146 0.89873 0.0
H576 H 0.82286 0.54314 0.8381 0.0
H577 H 0.78681 0.51837 0.83795 0.0
H578 H 0.81605 0.51351 0.80856 0.0
H579 H 0.8192 0.4544 0.82223 0.0
H580 H 0.78984 0.45903 0.85155 0.0
H581 H 0.82791 0.4436 0.86116 0.0
H582 H 0.88465 0.52233 0.94031 0.0
H583 H 0.83689 0.52621 0.97269 0.0
H584 H 0.7766 0.49998 0.89438 0.0
C585 C 0.88209 0.49213 0.82192 0.0
C586 C 0.9158 0.49559 0.82242 0.0
C587 C 0.93158 0.50346 0.85051 0.0
C588 C 0.91412 0.50829 0.87742 0.0
C589 C 0.88088 0.505 0.87596 0.0
C590 C 0.86511 0.49686 0.84891 0.0
C591 C 0.82931 0.49465 0.85325 0.0
C592 C 0.8128 0.51886 0.83328 0.0
C593 C 0.81578 0.46092 0.84666 0.0
C594 C 0.82725 0.50301 0.88696 0.0
C595 C 0.8572 0.509 0.89971 0.0
C596 C 0.86113 0.51755 0.93052 0.0
C597 C 0.83382 0.51979 0.94873 0.0
C598 C 0.80289 0.51338 0.93618 0.0
C599 C 0.79981 0.50497 0.9048 0.0
H600 H 0.50882 0.07914 0.1787 0.0
H601 H 0.54871 0.14498 0.24739 0.0
H602 H 0.55154 0.18692 0.20927 0.0
H603 H 0.55578 0.11058 0.11434 0.0
H604 H 0.52352 0.10563 0.08695 0.0
H605 H 0.52547 0.07958 0.11922 0.0
H606 H 0.46862 0.09396 0.13497 0.0
H607 H 0.46652 0.12012 0.10282 0.0
H608 H 0.46005 0.13482 0.14105 0.0
H609 H 0.5489 0.22251 0.16558 0.0
H610 H 0.5414 0.25039 0.11723 0.0
H611 H 0.50311 0.16344 0.07469 0.0
C612 C 0.51841 0.10231 0.18555 0.0
C613 C 0.52847 0.10861 0.21622 0.0
C614 C 0.54064 0.13939 0.22424 0.0
C615 C 0.54246 0.16351 0.20269 0.0
C616 C 0.53203 0.15677 0.17296 0.0
C617 C 0.52029 0.12703 0.16415 0.0
C618 C 0.51005 0.1269 0.13058 0.0
C619 C 0.52989 0.10433 0.11166 0.0
C620 C 0.47418 0.11845 0.12717 0.0
C621 C 0.51773 0.16119 0.12223 0.0
C622 C 0.53045 0.17778 0.14718 0.0
C623 C 0.53907 0.2098 0.14578 0.0
C624 C 0.53464 0.22546 0.11812 0.0
C625 C 0.52168 0.20923 0.09201 0.0
C626 C 0.51317 0.17654 0.09417 0.0
H627 H 0.91841 0.57038 0.16141 0.0
H628 H 0.87984 0.52803 0.24397 0.0
H629 H 0.82597 0.52582 0.22042 0.0
H630 H 0.84679 0.61456 0.13778 0.0
H631 H 0.85282 0.60517 0.09795 0.0
H632 H 0.88656 0.61008 0.12367 0.0
H633 H 0.90439 0.55454 0.108 0.0
H634 H 0.87053 0.54918 0.08269 0.0
H635 H 0.87708 0.52084 0.11233 0.0
H636 H 0.77837 0.52221 0.18606 0.0
H637 H 0.74028 0.51565 0.14301 0.0
H638 H 0.81109 0.5566 0.08138 0.0
C639 C 0.89839 0.56189 0.17499 0.0
C640 C 0.90297 0.54997 0.20469 0.0
C641 C 0.87656 0.53768 0.22133 0.0
C642 C 0.84597 0.5364 0.20816 0.0
C643 C 0.84244 0.54724 0.17832 0.0
C644 C 0.86794 0.55976 0.16192 0.0
C645 C 0.85879 0.56553 0.12889 0.0
C646 C 0.86139 0.60095 0.12166 0.0
C647 C 0.87889 0.54637 0.1067 0.0
C648 C 0.82444 0.55328 0.12898 0.0
C649 C 0.81529 0.54356 0.15787 0.0
C650 C 0.7851 0.53012 0.16343 0.0
C651 C 0.76369 0.52642 0.13879 0.0
C652 C 0.7728 0.5356 0.10885 0.0
C653 C 0.80351 0.54938 0.10401 0.0
H654 H 0.45443 0.87908 0.05552 0.0
H655 H 0.51217 0.80464 0.08998 0.0
H656 H 0.52374 0.83618 0.13711 0.0
H657 H 0.50441 0.94393 0.08384 0.0
H658 H 0.47158 0.96811 0.09314 0.0
H659 H 0.46747 0.93937 0.06254 0.0
H660 H 0.41759 0.91385 0.08863 0.0
H661 H 0.42156 0.94251 0.11932 0.0
H662 H 0.42043 0.90095 0.12775 0.0
H663 H 0.52915 0.87651 0.18071 0.0
H664 H 0.52859 0.92214 0.21638 0.0
H665 H 0.4676 0.97015 0.1529 0.0
C666 C 0.46944 0.86927 0.07298 0.0
C667 C 0.48232 0.83924 0.06898 0.0
C668 C 0.50198 0.82751 0.09244 0.0
C669 C 0.50867 0.84528 0.11933 0.0
C670 C 0.4956 0.8748 0.12247 0.0
C671 C 0.47643 0.8867 0.09987 0.0
C672 C 0.46564 0.91921 0.10857 0.0
C673 C 0.47803 0.94412 0.08566 0.0
C674 C 0.42914 0.91911 0.11123 0.0
C675 C 0.48173 0.92382 0.13962 0.0
C676 C 0.49885 0.89793 0.1473 0.0
C677 C 0.51579 0.89687 0.17488 0.0
C678 C 0.51531 0.92294 0.19504 0.0
C679 C 0.49805 0.94983 0.18757 0.0
C680 C 0.48102 0.95003 0.15943 0.0
H681 H 0.14157 0.49088 0.06166 0.0
H682 H 0.19248 0.42765 0.11958 0.0
H683 H 0.14258 0.41233 0.14598 0.0
H684 H 0.10296 0.52364 0.11712 0.0
H685 H 0.06567 0.52907 0.09748 0.0
H686 H 0.10145 0.52615 0.0759 0.0
H687 H 0.0753 0.47958 0.04437 0.0
H688 H 0.03922 0.48234 0.06617 0.0
H689 H 0.0587 0.44541 0.06383 0.0
H690 H 0.09249 0.41366 0.17395 0.0
H691 H 0.04942 0.43602 0.20414 0.0
H692 H 0.03054 0.50022 0.1303 0.0
C693 C 0.14164 0.4727 0.07891 0.0
C694 C 0.17041 0.46006 0.08847 0.0
C695 C 0.17037 0.43734 0.11193 0.0
C696 C 0.1421 0.42826 0.12678 0.0
C697 C 0.11412 0.44228 0.11802 0.0
C698 C 0.11364 0.46406 0.09453 0.0
C699 C 0.08265 0.48089 0.09407 0.0
C700 C 0.08857 0.51703 0.09632 0.0
C701 C 0.06279 0.47147 0.06541 0.0
C702 C 0.06729 0.46751 0.12269 0.0
C703 C 0.08498 0.44407 0.13527 0.0
C704 C 0.07792 0.43133 0.16394 0.0
C705 C 0.05338 0.44412 0.18097 0.0
C706 C 0.03691 0.46983 0.16945 0.0
C707 C 0.04274 0.48033 0.13936 0.0
H708 H 0.85948 0.87781 0.4557 0.0
H709 H 0.81352 0.82469 0.52832 0.0
H710 H 0.84733 0.77992 0.51776 0.0
H711 H 0.87996 0.80552 0.40466 0.0
H712 H 0.91772 0.82474 0.3952 0.0
H713 H 0.88329 0.84787 0.40123 0.0
H714 H 0.915 0.88126 0.44217 0.0
H715 H 0.94915 0.85802 0.43685 0.0
H716 H 0.93228 0.86181 0.47447 0.0
H717 H 0.89429 0.74839 0.50983 0.0
H718 H 0.94879 0.73048 0.5022 0.0
H719 H 0.96522 0.80338 0.43438 0.0
C720 C 0.85529 0.8559 0.46787 0.0
C721 C 0.83353 0.85411 0.49219 0.0
C722 C 0.82966 0.82597 0.50909 0.0
C723 C 0.84878 0.80048 0.50326 0.0
C724 C 0.87163 0.80357 0.48042 0.0
C725 C 0.8746 0.83035 0.46251 0.0
C726 C 0.90444 0.83004 0.44327 0.0
C727 C 0.89583 0.82684 0.40906 0.0
C728 C 0.92649 0.85951 0.44961 0.0
C729 C 0.91893 0.80035 0.45496 0.0
C730 C 0.8993 0.78501 0.47584 0.0
C731 C 0.90944 0.75952 0.49276 0.0
C732 C 0.94052 0.74967 0.48849 0.0
C733 C 0.96111 0.76536 0.46753 0.0
C734 C 0.94977 0.79046 0.45006 0.0
H735 H 0.90877 0.14702 0.45592 0.0
H736 H 0.94349 0.17477 0.54665 0.0
H737 H 0.91581 0.1273 0.5682 0.0
H738 H 0.8303 0.11385 0.48051 0.0
H739 H 0.83023 0.08269 0.45211 0.0
H740 H 0.85038 0.12022 0.44462 0.0
H741 H 0.90246 0.09177 0.43371 0.0
H742 H 0.88265 0.05424 0.44154 0.0
H743 H 0.91839 0.06647 0.46246 0.0
H744 H 0.88972 0.0738 0.57852 0.0
H745 H 0.86259 0.02094 0.57804 0.0
H746 H 0.84323 0.02937 0.48067 0.0
C747 C 0.91012 0.14343 0.48042 0.0
C748 C 0.92832 0.16452 0.49965 0.0
C749 C 0.92949 0.15902 0.53156 0.0
C750 C 0.91396 0.13208 0.54396 0.0
C751 C 0.89701 0.11128 0.52416 0.0
C752 C 0.89452 0.11697 0.49315 0.0
C753 C 0.87568 0.09054 0.47663 0.0
C754 C 0.84481 0.10255 0.46265 0.0
C755 C 0.89602 0.07484 0.45215 0.0
C756 C 0.86869 0.06857 0.50304 0.0
C757 C 0.88121 0.08094 0.53025 0.0
C758 C 0.87939 0.06412 0.55745 0.0
C759 C 0.86412 0.03402 0.55687 0.0
C760 C 0.85068 0.02109 0.52932 0.0
C761 C 0.85295 0.03875 0.50213 0.0
H762 H 0.13773 0.8296 0.45806 0.0
H763 H 0.10669 0.80156 0.54881 0.0
H764 H 0.13646 0.84806 0.57107 0.0
H765 H 0.21826 0.86279 0.48195 0.0
H766 H 0.21675 0.8941 0.45442 0.0
H767 H 0.19679 0.85636 0.44631 0.0
H768 H 0.14393 0.88418 0.43716 0.0
H769 H 0.16352 0.92189 0.44566 0.0
H770 H 0.12878 0.90901 0.46693 0.0
H771 H 0.16198 0.90108 0.58212 0.0
H772 H 0.18651 0.95492 0.58246 0.0
H773 H 0.2029 0.94781 0.48463 0.0
C774 C 0.13779 0.83281 0.48271 0.0
C775 C 0.11987 0.81207 0.50177 0.0
C776 C 0.12043 0.81708 0.53386 0.0
C777 C 0.13721 0.84343 0.54666 0.0
C778 C 0.15365 0.86406 0.52706 0.0
C779 C 0.15461 0.85874 0.49583 0.0
C780 C 0.17241 0.88549 0.4796 0.0
C781 C 0.20287 0.87399 0.4647 0.0
C782 C 0.15086 0.90105 0.45596 0.0
C783 C 0.1802 0.90736 0.50646 0.0
C784 C 0.16925 0.89444 0.53361 0.0
C785 C 0.17124 0.91117 0.56116 0.0
C786 C 0.18493 0.94184 0.56102 0.0
C787 C 0.19663 0.95543 0.53354 0.0
C788 C 0.19451 0.93781 0.50599 0.0
H789 H 0.08485 0.21683 0.51528 0.0
H790 H 0.08878 0.21047 0.41622 0.0
H791 H 0.14044 0.18533 0.41995 0.0
H792 H 0.17484 0.22582 0.53008 0.0
H793 H 0.17119 0.20123 0.56342 0.0
H794 H 0.13933 0.22625 0.55296 0.0
H795 H 0.09969 0.17758 0.55229 0.0
H796 H 0.13128 0.15247 0.56243 0.0
H797 H 0.10777 0.14405 0.52831 0.0
H798 H 0.18523 0.15161 0.43421 0.0
H799 H 0.21857 0.1118 0.45798 0.0
H800 H 0.18516 0.13946 0.54767 0.0
C801 C 0.09733 0.21147 0.4944 0.0
C802 C 0.08302 0.21583 0.4655 0.0
C803 C 0.09946 0.20747 0.43862 0.0
C804 C 0.12891 0.19332 0.4405 0.0
C805 C 0.14169 0.18783 0.46942 0.0
C806 C 0.12656 0.19695 0.49593 0.0
C807 C 0.14252 0.18405 0.52406 0.0
C808 C 0.15789 0.21095 0.54379 0.0
C809 C 0.11891 0.16331 0.54284 0.0
C810 C 0.16761 0.16466 0.50916 0.0
C811 C 0.1674 0.16779 0.47769 0.0
C812 C 0.18619 0.14954 0.45889 0.0
C813 C 0.20503 0.12694 0.47257 0.0
C814 C 0.20447 0.12252 0.50465 0.0
C815 C 0.18631 0.14242 0.52308 0.0
loop_
_geom_bond_atom_site_label_1
_geom_bond_atom_site_label_2
_geom_bond_distance
_geom_bond_site_symmetry_2
_ccdc_geom_bond_type
Zn0 O3 2.031 . S
Zn0 O5 2.049 . S
Zn0 O10 2.067 1_455 S
Zn1 O2 1.962 . S
Zn1 O4 1.986 . S
Zn1 O6 1.996 . S
Zn1 O9 1.943 1_455 S
O2 Zn1 1.962 . S
O2 C7 1.254 . S
O3 Zn0 2.031 . S
O3 C7 1.269 . S
O4 Zn1 1.986 . S
O4 C11 1.262 . S
O5 Zn0 2.049 . S
O5 C13 1.260 . S
O6 Zn1 1.996 . S
O6 C13 1.257 . S
C7 O2 1.254 . S
C7 O3 1.269 . S
C8 O9 1.249 . S
C8 O10 1.270 . S
O9 Zn1 1.943 1_655 S
O9 C8 1.249 . S
O10 Zn0 2.067 1_655 S
O10 C8 1.270 . S
C11 O4 1.262 . S
C11 O12 1.232 . S
O12 C11 1.232 . S
C13 O5 1.260 . S
C13 O6 1.257 . S
Zn14 O17 2.031 1_545 S
Zn14 O19 2.049 . S
Zn14 O24 2.067 . S
Zn15 O16 1.962 1_545 S
Zn15 O18 1.986 . S
Zn15 O20 1.996 . S
Zn15 O23 1.943 . S
O16 Zn15 1.962 1_565 S
O16 C21 1.254 . S
O17 Zn14 2.031 1_565 S
O17 C21 1.269 . S
O18 Zn15 1.986 . S
O18 C25 1.262 . S
O19 Zn14 2.049 . S
O19 C27 1.260 . S
O20 Zn15 1.996 . S
O20 C27 1.257 . S
C21 O16 1.254 . S
C21 O17 1.269 . S
C22 O23 1.249 . S
C22 O24 1.270 . S
O23 Zn15 1.943 . S
O23 C22 1.249 . S
O24 Zn14 2.067 . S
O24 C22 1.270 . S
C25 O18 1.262 . S
C25 O26 1.232 . S
O26 C25 1.232 . S
C27 O19 1.260 . S
C27 O20 1.257 . S
Zn28 O31 2.031 1_455 S
Zn28 O33 2.049 . S
Zn28 O38 2.067 . S
Zn29 O30 1.962 1_455 S
Zn29 O32 1.986 . S
Zn29 O34 1.996 . S
Zn29 O37 1.943 . S
O30 Zn29 1.962 1_655 S
O30 C35 1.254 . S
O31 Zn28 2.031 1_655 S
O31 C35 1.269 . S
O32 Zn29 1.986 . S
O32 C39 1.262 . S
O33 Zn28 2.049 . S
O33 C41 1.260 . S
O34 Zn29 1.996 . S
O34 C41 1.257 . S
C35 O30 1.254 . S
C35 O31 1.269 . S
C36 O37 1.249 . S
C36 O38 1.270 . S
O37 Zn29 1.943 . S
O37 C36 1.249 . S
O38 Zn28 2.067 . S
O38 C36 1.270 . S
C39 O32 1.262 . S
C39 O40 1.232 . S
O40 C39 1.232 . S
C41 O33 1.260 . S
C41 O34 1.257 . S
Zn42 O45 2.031 . S
Zn42 O47 2.049 . S
Zn42 O52 2.067 1_545 S
Zn43 O44 1.962 . S
Zn43 O46 1.986 . S
Zn43 O48 1.996 . S
Zn43 O51 1.943 1_545 S
O44 Zn43 1.962 . S
O44 C49 1.254 . S
O45 Zn42 2.031 . S
O45 C49 1.269 . S
O46 Zn43 1.986 . S
O46 C53 1.262 . S
O47 Zn42 2.049 . S
O47 C55 1.260 . S
O48 Zn43 1.996 . S
O48 C55 1.257 . S
C49 O44 1.254 . S
C49 O45 1.269 . S
C50 O51 1.249 . S
C50 O52 1.270 . S
O51 Zn43 1.943 1_565 S
O51 C50 1.249 . S
O52 Zn42 2.067 1_565 S
O52 C50 1.270 . S
C53 O46 1.262 . S
C53 O54 1.232 . S
O54 C53 1.232 . S
C55 O47 1.260 . S
C55 O48 1.257 . S
Zn56 O59 2.031 . S
Zn56 O61 2.049 . S
Zn56 O66 2.067 . S
Zn57 O58 1.962 1_545 S
Zn57 O60 1.986 1_545 S
Zn57 O62 1.996 . S
Zn57 O65 1.943 . S
O58 Zn57 1.962 1_565 S
O58 C63 1.254 1_565 S
O59 Zn56 2.031 . S
O59 C63 1.269 . S
O60 Zn57 1.986 1_565 S
O60 C67 1.262 . S
O61 Zn56 2.049 . S
O61 C69 1.260 . S
O62 Zn57 1.996 . S
O62 C69 1.257 . S
C63 O58 1.254 1_545 S
C63 O59 1.269 . S
C64 O65 1.249 . S
C64 O66 1.270 . S
O65 Zn57 1.943 . S
O65 C64 1.249 . S
O66 Zn56 2.067 . S
O66 C64 1.270 . S
C67 O60 1.262 . S
C67 O68 1.232 . S
O68 C67 1.232 . S
C69 O61 1.260 . S
C69 O62 1.257 . S
Zn70 O73 2.031 . S
Zn70 O75 2.049 . S
Zn70 O80 2.067 1_455 S
Zn71 O72 1.962 . S
Zn71 O74 1.986 . S
Zn71 O76 1.996 . S
Zn71 O79 1.943 1_455 S
O72 Zn71 1.962 . S
O72 C77 1.254 . S
O73 Zn70 2.031 . S
O73 C77 1.269 . S
O74 Zn71 1.986 . S
O74 C81 1.262 . S
O75 Zn70 2.049 . S
O75 C83 1.260 . S
O76 Zn71 1.996 . S
O76 C83 1.257 . S
C77 O72 1.254 . S
C77 O73 1.269 . S
C78 O79 1.249 . S
C78 O80 1.270 . S
O79 Zn71 1.943 1_655 S
O79 C78 1.249 . S
O80 Zn70 2.067 1_655 S
O80 C78 1.270 . S
C81 O74 1.262 . S
C81 O82 1.232 . S
O82 C81 1.232 . S
C83 O75 1.260 . S
C83 O76 1.257 . S
Zn84 O87 2.031 . S
Zn84 O89 2.049 . S
Zn84 O94 2.067 . S
Zn85 O86 1.963 . S
Zn85 O88 2.000 . S
Zn85 O90 1.967 1_565 S
Zn85 O93 1.943 . S
O86 Zn85 1.963 . S
O86 C91 1.254 1_565 S
O87 Zn84 2.031 . S
O87 C91 1.269 . S
O88 Zn85 2.000 . S
O88 C95 1.262 . S
O89 Zn84 2.049 . S
O89 C97 1.260 . S
O90 Zn85 1.967 1_545 S
O90 C97 1.257 . S
C91 O86 1.254 1_545 S
C91 O87 1.269 . S
C92 O93 1.249 1_545 S
C92 O94 1.270 . S
O93 Zn85 1.943 . S
O93 C92 1.249 1_565 S
O94 Zn84 2.067 . S
O94 C92 1.270 . S
C95 O88 1.262 . S
C95 O96 1.232 . S
O96 C95 1.232 . S
C97 O89 1.260 . S
C97 O90 1.257 . S
Zn98 O101 2.031 . S
Zn98 O103 2.049 . S
Zn98 O108 2.067 . S
Zn99 O100 1.962 . S
Zn99 O102 1.986 . S
Zn99 O104 1.996 1_455 S
Zn99 O107 1.943 . S
O100 Zn99 1.962 . S
O100 C105 1.254 . S
O101 Zn98 2.031 . S
O101 C105 1.269 1_655 S
O102 Zn99 1.986 . S
O102 C109 1.262 . S
O103 Zn98 2.049 . S
O103 C111 1.260 . S
O104 Zn99 1.996 1_655 S
O104 C111 1.257 . S
C105 O100 1.254 . S
C105 O101 1.269 1_455 S
C106 O107 1.249 . S
C106 O108 1.270 1_455 S
O107 Zn99 1.943 . S
O107 C106 1.249 . S
O108 Zn98 2.067 . S
O108 C106 1.270 1_655 S
C109 O102 1.262 . S
C109 O110 1.232 . S
O110 C109 1.232 . S
C111 O103 1.260 . S
C111 O104 1.257 . S
Zn112 O115 2.031 . S
Zn112 O117 2.049 . S
Zn112 O122 2.067 . S
Zn113 O114 1.962 . S
Zn113 O116 1.986 . S
Zn113 O118 1.996 1_556 S
Zn113 O121 1.943 . S
O114 Zn113 1.962 . S
O114 C119 1.254 1_556 S
O115 Zn112 2.031 . S
O115 C119 1.269 . S
O116 Zn113 1.986 . S
O116 C123 1.262 . S
O117 Zn112 2.049 . S
O117 C125 1.260 . S
O118 Zn113 1.996 1_554 S
O118 C125 1.257 . S
C119 O114 1.254 1_554 S
C119 O115 1.269 . S
C120 O121 1.249 1_554 S
C120 O122 1.270 . S
O121 Zn113 1.943 . S
O121 C120 1.249 1_556 S
O122 Zn112 2.067 . S
O122 C120 1.270 . S
C123 O116 1.262 . S
C123 O124 1.232 . S
O124 C123 1.232 . S
C125 O117 1.260 . S
C125 O118 1.257 . S
Zn126 O129 2.031 . S
Zn126 O131 2.049 . S
Zn126 O136 2.067 . S
Zn127 O128 1.962 . S
Zn127 O130 1.986 . S
Zn127 O132 1.996 1_554 S
Zn127 O135 1.943 . S
O128 Zn127 1.962 . S
O128 C133 1.254 . S
O129 Zn126 2.031 . S
O129 C133 1.269 1_556 S
O130 Zn127 1.986 . S
O130 C137 1.262 . S
O131 Zn126 2.049 . S
O131 C139 1.260 . S
O132 Zn127 1.996 1_556 S
O132 C139 1.257 . S
C133 O128 1.254 . S
C133 O129 1.269 1_554 S
C134 O135 1.249 1_556 S
C134 O136 1.270 . S
O135 Zn127 1.943 . S
O135 C134 1.249 1_554 S
O136 Zn126 2.067 . S
O136 C134 1.270 . S
C137 O130 1.262 . S
C137 O138 1.232 . S
O138 C137 1.232 . S
C139 O131 1.260 . S
C139 O132 1.257 . S
Zn140 O143 2.031 . S
Zn140 O145 2.049 . S
Zn140 O150 2.067 . S
Zn141 O142 1.962 . S
Zn141 O144 1.986 . S
Zn141 O146 1.996 1_556 S
Zn141 O149 1.943 . S
O142 Zn141 1.962 . S
O142 C147 1.254 1_556 S
O143 Zn140 2.031 . S
O143 C147 1.269 . S
O144 Zn141 1.986 . S
O144 C151 1.262 . S
O145 Zn140 2.049 . S
O145 C153 1.260 . S
O146 Zn141 1.996 1_554 S
O146 C153 1.257 . S
C147 O142 1.254 1_554 S
C147 O143 1.269 . S
C148 O149 1.249 1_554 S
C148 O150 1.270 . S
O149 Zn141 1.943 . S
O149 C148 1.249 1_556 S
O150 Zn140 2.067 . S
O150 C148 1.270 . S
C151 O144 1.262 . S
C151 O152 1.232 . S
O152 C151 1.232 . S
C153 O145 1.260 . S
C153 O146 1.257 . S
Zn154 O157 2.031 . S
Zn154 O159 2.049 . S
Zn154 O164 2.067 . S
Zn155 O156 1.962 . S
Zn155 O158 1.986 . S
Zn155 O160 1.996 1_554 S
Zn155 O163 1.943 . S
O156 Zn155 1.962 . S
O156 C161 1.254 . S
O157 Zn154 2.031 . S
O157 C161 1.269 1_556 S
O158 Zn155 1.986 . S
O158 C165 1.262 . S
O159 Zn154 2.049 . S
O159 C167 1.260 . S
O160 Zn155 1.996 1_556 S
O160 C167 1.257 . S
C161 O156 1.254 . S
C161 O157 1.269 1_554 S
C162 O163 1.249 1_556 S
C162 O164 1.270 . S
O163 Zn155 1.943 . S
O163 C162 1.249 1_554 S
O164 Zn154 2.067 . S
O164 C162 1.270 . S
C165 O158 1.262 . S
C165 O166 1.232 . S
O166 C165 1.232 . S
C167 O159 1.260 . S
C167 O160 1.257 . S
H168 C180 0.930 . S
H169 C182 0.930 . S
H170 C183 0.930 . S
H171 C187 0.959 . S
H172 C187 0.959 . S
H173 C187 0.961 . S
H174 C188 0.960 . S
H175 C188 0.961 1_455 S
H176 C188 0.959 . S
H177 C191 0.929 . S
H178 C192 0.931 1_655 S
H179 C194 0.930 . S
C180 H168 0.930 . S
C180 C181 1.399 . S
C180 C185 1.399 . S
C181 C180 1.399 . S
C181 C182 1.376 1_455 S
C182 H169 0.930 . S
C182 C181 1.376 1_655 S
C182 C183 1.388 . S
C183 H170 0.930 . S
C183 C182 1.388 . S
C183 C184 1.390 1_655 S
C184 C183 1.390 1_455 S
C184 C185 1.394 . S
C184 C190 1.465 . S
C185 C180 1.399 . S
C185 C184 1.394 . S
C185 C186 1.516 . S
C186 C185 1.516 . S
C186 C187 1.502 . S
C186 C188 1.561 1_455 S
C186 C189 1.526 . S
C187 H171 0.959 . S
C187 H172 0.959 . S
C187 H173 0.961 . S
C187 C186 1.502 . S
C188 H174 0.960 . S
C188 H175 0.961 1_655 S
C188 H176 0.959 . S
C188 C186 1.561 1_655 S
C189 C186 1.526 . S
C189 C190 1.396 . S
C189 C194 1.390 . S
C190 C184 1.465 . S
C190 C189 1.396 . S
C190 C191 1.399 1_455 S
C191 H177 0.929 . S
C191 C190 1.399 1_655 S
C191 C192 1.385 1_655 S
C192 H178 0.931 1_455 S
C192 C191 1.385 1_455 S
C192 C193 1.389 . S
C193 C192 1.389 . S
C193 C194 1.387 . S
C194 H179 0.930 . S
C194 C189 1.390 . S
C194 C193 1.387 . S
H195 C207 0.930 . S
H196 C209 0.930 . S
H197 C210 0.930 . S
H198 C214 0.959 . S
H199 C214 0.959 . S
H200 C214 0.961 . S
H201 C215 0.960 . S
H202 C215 0.961 . S
H203 C215 0.959 . S
H204 C218 0.929 . S
H205 C219 0.931 . S
H206 C221 0.930 . S
C207 H195 0.930 . S
C207 C208 1.399 1_565 S
C207 C212 1.407 . S
C208 C207 1.399 1_545 S
C208 C209 1.376 . S
C209 H196 0.930 . S
C209 C208 1.376 . S
C209 C210 1.388 . S
C210 H197 0.930 . S
C210 C209 1.388 . S
C210 C211 1.390 . S
C211 C210 1.390 . S
C211 C212 1.364 1_545 S
C211 C217 1.465 . S
C212 C207 1.407 . S
C212 C211 1.364 1_565 S
C212 C213 1.535 . S
C213 C212 1.535 . S
C213 C214 1.502 . S
C213 C215 1.561 . S
C213 C216 1.521 1_565 S
C214 H198 0.959 . S
C214 H199 0.959 . S
C214 H200 0.961 . S
C214 C213 1.502 . S
C215 H201 0.960 . S
C215 H202 0.961 . S
C215 H203 0.959 . S
C215 C213 1.561 . S
C216 C213 1.521 1_545 S
C216 C217 1.403 . S
C216 C221 1.389 1_545 S
C217 C211 1.465 . S
C217 C216 1.403 . S
C217 C218 1.399 . S
C218 H204 0.929 . S
C218 C217 1.399 . S
C218 C219 1.385 . S
C219 H205 0.931 . S
C219 C218 1.385 . S
C219 C220 1.389 . S
C220 C219 1.389 . S
C220 C221 1.387 1_545 S
C221 H206 0.930 . S
C221 C216 1.389 1_565 S
C221 C220 1.387 1_565 S
H222 C234 0.930 . S
H223 C236 0.930 . S
H224 C237 0.930 . S
H225 C241 0.959 . S
H226 C241 0.959 . S
H227 C241 0.961 . S
H228 C242 0.960 . S
H229 C242 0.961 . S
H230 C242 0.959 . S
H231 C245 0.929 . S
H232 C246 0.931 . S
H233 C248 0.930 . S
C234 H222 0.930 . S
C234 C235 1.399 . S
C234 C239 1.399 . S
C235 C234 1.399 . S
C235 C236 1.376 1_455 S
C236 H223 0.930 . S
C236 C235 1.376 1_655 S
C236 C237 1.388 . S
C237 H224 0.930 . S
C237 C236 1.388 . S
C237 C238 1.405 . S
C238 C237 1.405 . S
C238 C239 1.375 1_655 S
C238 C244 1.466 1_655 S
C239 C234 1.399 . S
C239 C238 1.375 1_455 S
C239 C240 1.516 . S
C240 C239 1.516 . S
C240 C241 1.502 . S
C240 C242 1.561 . S
C240 C243 1.526 . S
C241 H225 0.959 . S
C241 H226 0.959 . S
C241 H227 0.961 . S
C241 C240 1.502 . S
C242 H228 0.960 . S
C242 H229 0.961 . S
C242 H230 0.959 . S
C242 C240 1.561 . S
C243 C240 1.526 . S
C243 C244 1.403 . S
C243 C248 1.390 . S
C244 C238 1.466 1_455 S
C244 C243 1.403 . S
C244 C245 1.393 1_455 S
C245 H231 0.929 . S
C245 C244 1.393 1_655 S
C245 C246 1.385 . S
C246 H232 0.931 . S
C246 C245 1.385 . S
C246 C247 1.389 1_655 S
C247 C246 1.389 1_455 S
C247 C248 1.387 . S
C248 H233 0.930 . S
C248 C243 1.390 . S
C248 C247 1.387 . S
H249 C261 0.930 . S
H250 C263 0.930 . S
H251 C264 0.930 . S
H252 C268 0.959 . S
H253 C268 0.959 . S
H254 C268 0.961 . S
H255 C269 0.960 . S
H256 C269 0.961 . S
H257 C269 0.959 . S
H258 C272 0.929 . S
H259 C273 0.931 . S
H260 C275 0.930 . S
C261 H249 0.930 . S
C261 C262 1.399 . S
C261 C266 1.399 . S
C262 C261 1.399 . S
C262 C263 1.376 1_545 S
C263 H250 0.930 . S
C263 C262 1.376 1_565 S
C263 C264 1.388 . S
C264 H251 0.930 . S
C264 C263 1.388 . S
C264 C265 1.390 . S
C265 C264 1.390 . S
C265 C266 1.394 1_565 S
C265 C271 1.465 . S
C266 C261 1.399 . S
C266 C265 1.394 1_545 S
C266 C267 1.516 . S
C267 C266 1.516 . S
C267 C268 1.502 . S
C267 C269 1.561 . S
C267 C270 1.526 . S
C268 H252 0.959 . S
C268 H253 0.959 . S
C268 H254 0.961 . S
C268 C267 1.502 . S
C269 H255 0.960 . S
C269 H256 0.961 . S
C269 H257 0.959 . S
C269 C267 1.561 . S
C270 C267 1.526 . S
C270 C271 1.396 1_545 S
C270 C275 1.390 . S
C271 C265 1.465 . S
C271 C270 1.396 1_565 S
C271 C272 1.399 . S
C272 H258 0.929 . S
C272 C271 1.399 . S
C272 C273 1.385 . S
C273 H259 0.931 . S
C273 C272 1.385 . S
C273 C274 1.389 1_565 S
C274 C273 1.389 1_545 S
C274 C275 1.387 . S
C275 H260 0.930 . S
C275 C270 1.390 . S
C275 C274 1.387 . S
H276 C288 0.930 1_655 S
H277 C290 0.930 . S
H278 C291 0.930 . S
H279 C295 0.959 . S
H280 C295 0.959 . S
H281 C295 0.961 . S
H282 C296 0.960 . S
H283 C296 0.961 . S
H284 C296 0.959 . S
H285 C299 0.929 . S
H286 C300 0.931 . S
H287 C302 0.912 1_655 S
C288 H276 0.930 1_455 S
C288 C289 1.399 . S
C288 C293 1.399 . S
C289 C288 1.399 . S
C289 C290 1.376 . S
C290 H277 0.930 . S
C290 C289 1.376 . S
C290 C291 1.388 . S
C291 H278 0.930 . S
C291 C290 1.388 . S
C291 C292 1.390 . S
C292 C291 1.390 . S
C292 C293 1.394 . S
C292 C298 1.465 . S
C293 C288 1.399 . S
C293 C292 1.394 . S
C293 C294 1.516 1_455 S
C294 C293 1.516 1_655 S
C294 C295 1.502 . S
C294 C296 1.561 1_655 S
C294 C297 1.526 1_655 S
C295 H279 0.959 . S
C295 H280 0.959 . S
C295 H281 0.961 . S
C295 C294 1.502 . S
C296 H282 0.960 . S
C296 H283 0.961 . S
C296 H284 0.959 . S
C296 C294 1.561 1_455 S
C297 C294 1.526 1_455 S
C297 C298 1.396 . S
C297 C302 1.396 . S
C298 C292 1.465 . S
C298 C297 1.396 . S
C298 C299 1.399 . S
C299 H285 0.929 . S
C299 C298 1.399 . S
C299 C300 1.385 . S
C300 H286 0.931 . S
C300 C299 1.385 . S
C300 C301 1.389 . S
C301 C300 1.389 . S
C301 C302 1.399 . S
C302 H287 0.912 1_455 S
C302 C297 1.396 . S
C302 C301 1.399 . S
H303 C315 0.930 . S
H304 C317 0.930 . S
H305 C318 0.930 . S
H306 C322 0.959 . S
H307 C322 0.959 . S
H308 C322 0.961 . S
H309 C323 0.960 . S
H310 C323 0.961 . S
H311 C323 0.959 . S
H312 C326 0.929 . S
H313 C327 0.931 . S
H314 C329 0.930 . S
C315 H303 0.930 . S
C315 C316 1.399 1_565 S
C315 C320 1.399 . S
C316 C315 1.399 1_545 S
C316 C317 1.376 . S
C317 H304 0.930 . S
C317 C316 1.376 . S
C317 C318 1.388 . S
C318 H305 0.930 . S
C318 C317 1.388 . S
C318 C319 1.390 . S
C319 C318 1.390 . S
C319 C320 1.394 1_545 S
C319 C325 1.465 . S
C320 C315 1.399 . S
C320 C319 1.394 1_565 S
C320 C321 1.516 . S
C321 C320 1.516 . S
C321 C322 1.502 . S
C321 C323 1.561 . S
C321 C324 1.526 . S
C322 H306 0.959 . S
C322 H307 0.959 . S
C322 H308 0.961 . S
C322 C321 1.502 . S
C323 H309 0.960 . S
C323 H310 0.961 . S
C323 H311 0.959 . S
C323 C321 1.561 . S
C324 C321 1.526 . S
C324 C325 1.396 1_565 S
C324 C329 1.390 . S
C325 C319 1.465 . S
C325 C324 1.396 1_545 S
C325 C326 1.399 . S
C326 H312 0.929 . S
C326 C325 1.399 . S
C326 C327 1.385 . S
C327 H313 0.931 . S
C327 C326 1.385 . S
C327 C328 1.389 . S
C328 C327 1.389 . S
C328 C329 1.387 1_545 S
C329 H314 0.930 . S
C329 C324 1.390 . S
C329 C328 1.387 1_565 S
H330 C342 0.930 . S
H331 C344 0.930 . S
H332 C345 0.930 . S
H333 C349 0.959 . S
H334 C349 0.959 . S
H335 C349 0.961 . S
H336 C350 0.960 . S
H337 C350 0.961 . S
H338 C350 0.959 1_655 S
H339 C353 0.929 . S
H340 C354 0.931 . S
H341 C356 0.930 . S
C342 H330 0.930 . S
C342 C343 1.399 . S
C342 C347 1.399 . S
C343 C342 1.399 . S
C343 C344 1.376 1_455 S
C344 H331 0.930 . S
C344 C343 1.376 1_655 S
C344 C345 1.388 . S
C345 H332 0.930 . S
C345 C344 1.388 . S
C345 C346 1.391 . S
C346 C345 1.391 . S
C346 C347 1.392 1_655 S
C346 C352 1.465 . S
C347 C342 1.399 . S
C347 C346 1.392 1_455 S
C347 C348 1.516 . S
C348 C347 1.516 . S
C348 C349 1.502 . S
C348 C350 1.561 . S
C348 C351 1.526 . S
C349 H333 0.959 . S
C349 H334 0.959 . S
C349 H335 0.961 . S
C349 C348 1.502 . S
C350 H336 0.960 . S
C350 H337 0.961 . S
C350 H338 0.959 1_455 S
C350 C348 1.561 . S
C351 C348 1.526 . S
C351 C352 1.391 1_455 S
C351 C356 1.390 . S
C352 C346 1.465 . S
C352 C351 1.391 1_655 S
C352 C353 1.403 . S
C353 H339 0.929 . S
C353 C352 1.403 . S
C353 C354 1.385 . S
C354 H340 0.931 . S
C354 C353 1.385 . S
C354 C355 1.389 1_655 S
C355 C354 1.389 1_455 S
C355 C356 1.387 . S
C356 H341 0.930 . S
C356 C351 1.390 . S
C356 C355 1.387 . S
H357 C369 0.930 . S
H358 C371 0.930 . S
H359 C372 0.930 . S
H360 C376 0.959 . S
H361 C376 0.959 . S
H362 C376 0.961 . S
H363 C377 0.960 . S
H364 C377 0.961 . S
H365 C377 0.959 . S
H366 C380 0.929 . S
H367 C381 0.931 . S
H368 C383 0.930 . S
C369 H357 0.930 . S
C369 C370 1.399 . S
C369 C374 1.399 . S
C370 C369 1.399 . S
C370 C371 1.376 1_545 S
C371 H358 0.930 . S
C371 C370 1.376 1_565 S
C371 C372 1.388 . S
C372 H359 0.930 . S
C372 C371 1.388 . S
C372 C373 1.390 . S
C373 C372 1.390 . S
C373 C374 1.394 1_565 S
C373 C379 1.466 . S
C374 C369 1.399 . S
C374 C373 1.394 1_545 S
C374 C375 1.516 . S
C375 C374 1.516 . S
C375 C376 1.502 . S
C375 C377 1.561 . S
C375 C378 1.526 . S
C376 H360 0.959 . S
C376 H361 0.959 . S
C376 H362 0.961 . S
C376 C375 1.502 . S
C377 H363 0.960 . S
C377 H364 0.961 . S
C377 H365 0.959 . S
C377 C375 1.561 . S
C378 C375 1.526 . S
C378 C379 1.378 1_545 S
C378 C383 1.390 . S
C379 C373 1.466 . S
C379 C378 1.378 1_565 S
C379 C380 1.413 . S
C380 H366 0.929 . S
C380 C379 1.413 . S
C380 C381 1.385 . S
C381 H367 0.931 . S
C381 C380 1.385 . S
C381 C382 1.389 1_565 S
C382 C381 1.389 1_545 S
C382 C383 1.387 . S
C383 H368 0.930 . S
C383 C378 1.390 . S
C383 C382 1.387 . S
H384 C396 0.930 . S
H385 C398 0.930 . S
H386 C399 0.930 . S
H387 C403 0.959 . S
H388 C403 0.959 . S
H389 C403 0.961 . S
H390 C404 0.960 . S
H391 C404 0.961 . S
H392 C404 0.959 . S
H393 C407 0.929 . S
H394 C408 0.931 . S
H395 C410 0.930 . S
C396 H384 0.930 . S
C396 C397 1.399 1_556 S
C396 C401 1.399 1_556 S
C397 C396 1.399 1_554 S
C397 C398 1.376 . S
C398 H385 0.930 . S
C398 C397 1.376 . S
C398 C399 1.388 . S
C399 H386 0.930 . S
C399 C398 1.388 . S
C399 C400 1.390 . S
C400 C399 1.390 . S
C400 C401 1.394 . S
C400 C406 1.465 . S
C401 C396 1.399 1_554 S
C401 C400 1.394 . S
C401 C402 1.516 1_554 S
C402 C401 1.516 1_556 S
C402 C403 1.502 . S
C402 C404 1.561 1_556 S
C402 C405 1.518 1_556 S
C403 H387 0.959 . S
C403 H388 0.959 . S
C403 H389 0.961 . S
C403 C402 1.502 . S
C404 H390 0.960 . S
C404 H391 0.961 . S
C404 H392 0.959 . S
C404 C402 1.561 1_554 S
C405 C402 1.518 1_554 S
C405 C406 1.413 . S
C405 C410 1.384 1_554 S
C406 C400 1.465 . S
C406 C405 1.413 . S
C406 C407 1.399 . S
C407 H393 0.929 . S
C407 C406 1.399 . S
C407 C408 1.385 . S
C408 H394 0.931 . S
C408 C407 1.385 . S
C408 C409 1.389 . S
C409 C408 1.389 . S
C409 C410 1.387 1_554 S
C410 H395 0.930 . S
C410 C405 1.384 1_556 S
C410 C409 1.387 1_556 S
H411 C423 0.930 . S
H412 C425 0.930 . S
H413 C426 0.930 . S
H414 C430 0.959 . S
H415 C430 0.959 . S
H416 C430 0.961 . S
H417 C431 0.960 . S
H418 C431 0.961 . S
H419 C431 0.959 . S
H420 C434 0.929 . S
H421 C435 0.931 . S
H422 C437 0.930 . S
C423 H411 0.930 . S
C423 C424 1.399 1_556 S
C423 C428 1.399 . S
C424 C423 1.399 1_554 S
C424 C425 1.376 . S
C425 H412 0.930 . S
C425 C424 1.376 . S
C425 C426 1.388 . S
C426 H413 0.930 . S
C426 C425 1.388 . S
C426 C427 1.390 . S
C427 C426 1.390 . S
C427 C428 1.394 1_554 S
C427 C433 1.465 . S
C428 C423 1.399 . S
C428 C427 1.394 1_556 S
C428 C429 1.516 . S
C429 C428 1.516 . S
C429 C430 1.502 . S
C429 C431 1.561 . S
C429 C432 1.526 . S
C430 H414 0.959 . S
C430 H415 0.959 . S
C430 H416 0.961 . S
C430 C429 1.502 . S
C431 H417 0.960 . S
C431 H418 0.961 . S
C431 H419 0.959 . S
C431 C429 1.561 . S
C432 C429 1.526 . S
C432 C433 1.396 1_556 S
C432 C437 1.390 . S
C433 C427 1.465 . S
C433 C432 1.396 1_554 S
C433 C434 1.399 . S
C434 H420 0.929 . S
C434 C433 1.399 . S
C434 C435 1.385 . S
C435 H421 0.931 . S
C435 C434 1.385 . S
C435 C436 1.389 . S
C436 C435 1.389 . S
C436 C437 1.387 1_554 S
C437 H422 0.930 . S
C437 C432 1.390 . S
C437 C436 1.387 1_556 S
H438 C450 0.930 . S
H439 C452 0.930 . S
H440 C453 0.930 . S
H441 C457 0.959 . S
H442 C457 0.959 . S
H443 C457 0.961 . S
H444 C458 0.960 . S
H445 C458 0.961 . S
H446 C458 0.959 . S
H447 C461 0.929 . S
H448 C462 0.931 . S
H449 C464 0.930 . S
C450 H438 0.930 . S
C450 C451 1.399 . S
C450 C455 1.399 . S
C451 C450 1.399 . S
C451 C452 1.376 1_554 S
C452 H439 0.930 . S
C452 C451 1.376 1_556 S
C452 C453 1.388 . S
C453 H440 0.930 . S
C453 C452 1.388 . S
C453 C454 1.390 . S
C454 C453 1.390 . S
C454 C455 1.394 1_556 S
C454 C460 1.465 . S
C455 C450 1.399 . S
C455 C454 1.394 1_554 S
C455 C456 1.516 . S
C456 C455 1.516 . S
C456 C457 1.502 . S
C456 C458 1.561 . S
C456 C459 1.526 . S
C457 H441 0.959 . S
C457 H442 0.959 . S
C457 H443 0.961 . S
C457 C456 1.502 . S
C458 H444 0.960 . S
C458 H445 0.961 . S
C458 H446 0.959 . S
C458 C456 1.561 . S
C459 C456 1.526 . S
C459 C460 1.396 1_554 S
C459 C464 1.390 . S
C460 C454 1.465 . S
C460 C459 1.396 1_556 S
C460 C461 1.399 . S
C461 H447 0.929 . S
C461 C460 1.399 . S
C461 C462 1.385 . S
C462 H448 0.931 . S
C462 C461 1.385 . S
C462 C463 1.389 1_556 S
C463 C462 1.389 1_554 S
C463 C464 1.387 . S
C464 H449 0.930 . S
C464 C459 1.390 . S
C464 C463 1.387 . S
H465 C477 0.930 . S
H466 C479 0.930 . S
H467 C480 0.930 . S
H468 C484 0.959 . S
H469 C484 0.959 . S
H470 C484 0.961 . S
H471 C485 0.960 . S
H472 C485 0.961 . S
H473 C485 0.959 . S
H474 C488 0.929 . S
H475 C489 0.931 . S
H476 C491 0.930 . S
C477 H465 0.930 . S
C477 C478 1.399 . S
C477 C482 1.399 . S
C478 C477 1.399 . S
C478 C479 1.376 1_554 S
C479 H466 0.930 . S
C479 C478 1.376 1_556 S
C479 C480 1.388 . S
C480 H467 0.930 . S
C480 C479 1.388 . S
C480 C481 1.390 . S
C481 C480 1.390 . S
C481 C482 1.394 1_556 S
C481 C487 1.465 . S
C482 C477 1.399 . S
C482 C481 1.394 1_554 S
C482 C483 1.516 . S
C483 C482 1.516 . S
C483 C484 1.502 . S
C483 C485 1.561 . S
C483 C486 1.526 . S
C484 H468 0.959 . S
C484 H469 0.959 . S
C484 H470 0.961 . S
C484 C483 1.502 . S
C485 H471 0.960 . S
C485 H472 0.961 . S
C485 H473 0.959 . S
C485 C483 1.561 . S
C486 C483 1.526 . S
C486 C487 1.396 1_554 S
C486 C491 1.390 . S
C487 C481 1.465 . S
C487 C486 1.396 1_556 S
C487 C488 1.399 . S
C488 H474 0.929 . S
C488 C487 1.399 . S
C488 C489 1.385 . S
C489 H475 0.931 . S
C489 C488 1.385 . S
C489 C490 1.389 1_556 S
C490 C489 1.389 1_554 S
C490 C491 1.387 . S
C491 H476 0.930 . S
C491 C486 1.390 . S
C491 C490 1.387 . S
H492 C504 0.930 . S
H493 C506 0.930 . S
H494 C507 0.930 . S
H495 C511 0.959 . S
H496 C511 0.959 . S
H497 C511 0.961 . S
H498 C512 0.960 . S
H499 C512 0.961 . S
H500 C512 0.959 . S
H501 C515 0.929 . S
H502 C516 0.931 . S
H503 C518 0.930 . S
C504 H492 0.930 . S
C504 C505 1.399 . S
C504 C509 1.399 . S
C505 C504 1.399 . S
C505 C506 1.376 . S
C506 H493 0.930 . S
C506 C505 1.376 . S
C506 C507 1.388 . S
C507 H494 0.930 . S
C507 C506 1.388 . S
C507 C508 1.390 . S
C508 C507 1.390 . S
C508 C509 1.394 . S
C508 C514 1.465 . S
C509 C504 1.399 . S
C509 C508 1.394 . S
C509 C510 1.516 . S
C510 C509 1.516 . S
C510 C511 1.502 . S
C510 C512 1.561 . S
C510 C513 1.526 . S
C511 H495 0.959 . S
C511 H496 0.959 . S
C511 H497 0.961 . S
C511 C510 1.502 . S
C512 H498 0.960 . S
C512 H499 0.961 . S
C512 H500 0.959 . S
C512 C510 1.561 . S
C513 C510 1.526 . S
C513 C514 1.396 . S
C513 C518 1.390 . S
C514 C508 1.465 . S
C514 C513 1.396 . S
C514 C515 1.399 . S
C515 H501 0.929 . S
C515 C514 1.399 . S
C515 C516 1.385 . S
C516 H502 0.931 . S
C516 C515 1.385 . S
C516 C517 1.389 . S
C517 C516 1.389 . S
C517 C518 1.387 . S
C518 H503 0.930 . S
C518 C513 1.390 . S
C518 C517 1.387 . S
H519 C531 0.930 . S
H520 C533 0.930 . S
H521 C534 0.930 . S
H522 C538 0.959 . S
H523 C538 0.959 . S
H524 C538 0.961 . S
H525 C539 0.960 . S
H526 C539 0.961 . S
H527 C539 0.959 . S
H528 C542 0.929 . S
H529 C543 0.931 . S
H530 C545 0.930 . S
C531 H519 0.930 . S
C531 C532 1.399 . S
C531 C536 1.399 . S
C532 C531 1.399 . S
C532 C533 1.376 . S
C533 H520 0.930 . S
C533 C532 1.376 . S
C533 C534 1.388 . S
C534 H521 0.930 . S
C534 C533 1.388 . S
C534 C535 1.390 . S
C535 C534 1.390 . S
C535 C536 1.394 . S
C535 C541 1.465 . S
C536 C531 1.399 . S
C536 C535 1.394 . S
C536 C537 1.516 . S
C537 C536 1.516 . S
C537 C538 1.502 . S
C537 C539 1.561 . S
C537 C540 1.526 . S
C538 H522 0.959 . S
C538 H523 0.959 . S
C538 H524 0.961 . S
C538 C537 1.502 . S
C539 H525 0.960 . S
C539 H526 0.961 . S
C539 H527 0.959 . S
C539 C537 1.561 . S
C540 C537 1.526 . S
C540 C541 1.396 . S
C540 C545 1.390 . S
C541 C535 1.465 . S
C541 C540 1.396 . S
C541 C542 1.399 . S
C542 H528 0.929 . S
C542 C541 1.399 . S
C542 C543 1.385 . S
C543 H529 0.931 . S
C543 C542 1.385 . S
C543 C544 1.389 . S
C544 C543 1.389 . S
C544 C545 1.387 . S
C545 H530 0.930 . S
C545 C540 1.390 . S
C545 C544 1.387 . S
H546 C558 0.930 . S
H547 C560 0.930 . S
H548 C561 0.930 . S
H549 C565 0.959 . S
H550 C565 0.959 . S
H551 C565 0.961 . S
H552 C566 0.960 . S
H553 C566 0.961 . S
H554 C566 0.959 . S
H555 C569 0.929 . S
H556 C570 0.931 . S
H557 C572 0.930 . S
C558 H546 0.930 . S
C558 C559 1.399 . S
C558 C563 1.399 . S
C559 C558 1.399 . S
C559 C560 1.376 . S
C560 H547 0.930 . S
C560 C559 1.376 . S
C560 C561 1.388 . S
C561 H548 0.930 . S
C561 C560 1.388 . S
C561 C562 1.390 . S
C562 C561 1.390 . S
C562 C563 1.394 . S
C562 C568 1.465 . S
C563 C558 1.399 . S
C563 C562 1.394 . S
C563 C564 1.516 . S
C564 C563 1.516 . S
C564 C565 1.502 . S
C564 C566 1.561 . S
C564 C567 1.526 . S
C565 H549 0.959 . S
C565 H550 0.959 . S
C565 H551 0.961 . S
C565 C564 1.502 . S
C566 H552 0.960 . S
C566 H553 0.961 . S
C566 H554 0.959 . S
C566 C564 1.561 . S
C567 C564 1.526 . S
C567 C568 1.396 . S
C567 C572 1.390 . S
C568 C562 1.465 . S
C568 C567 1.396 . S
C568 C569 1.399 . S
C569 H555 0.929 . S
C569 C568 1.399 . S
C569 C570 1.385 . S
C570 H556 0.931 . S
C570 C569 1.385 . S
C570 C571 1.389 . S
C571 C570 1.389 . S
C571 C572 1.387 . S
C572 H557 0.930 . S
C572 C567 1.390 . S
C572 C571 1.387 . S
H573 C585 0.930 . S
H574 C587 0.930 . S
H575 C588 0.930 . S
H576 C592 0.959 . S
H577 C592 0.959 . S
H578 C592 0.961 . S
H579 C593 0.960 . S
H580 C593 0.961 . S
H581 C593 0.959 . S
H582 C596 0.929 . S
H583 C597 0.931 . S
H584 C599 0.930 . S
C585 H573 0.930 . S
C585 C586 1.399 . S
C585 C590 1.399 . S
C586 C585 1.399 . S
C586 C587 1.376 . S
C587 H574 0.930 . S
C587 C586 1.376 . S
C587 C588 1.388 . S
C588 H575 0.930 . S
C588 C587 1.388 . S
C588 C589 1.390 . S
C589 C588 1.390 . S
C589 C590 1.394 . S
C589 C595 1.465 . S
C590 C585 1.399 . S
C590 C589 1.394 . S
C590 C591 1.516 . S
C591 C590 1.516 . S
C591 C592 1.502 . S
C591 C593 1.561 . S
C591 C594 1.526 . S
C592 H576 0.959 . S
C592 H577 0.959 . S
C592 H578 0.961 . S
C592 C591 1.502 . S
C593 H579 0.960 . S
C593 H580 0.961 . S
C593 H581 0.959 . S
C593 C591 1.561 . S
C594 C591 1.526 . S
C594 C595 1.396 . S
C594 C599 1.390 . S
C595 C589 1.465 . S
C595 C594 1.396 . S
C595 C596 1.399 . S
C596 H582 0.929 . S
C596 C595 1.399 . S
C596 C597 1.385 . S
C597 H583 0.931 . S
C597 C596 1.385 . S
C597 C598 1.389 . S
C598 C597 1.389 . S
C598 C599 1.387 . S
C599 H584 0.930 . S
C599 C594 1.390 . S
C599 C598 1.387 . S
H600 C612 0.930 . S
H601 C614 0.930 . S
H602 C615 0.930 . S
H603 C619 0.959 . S
H604 C619 0.959 . S
H605 C619 0.961 . S
H606 C620 0.960 . S
H607 C620 0.961 . S
H608 C620 0.959 . S
H609 C623 0.929 . S
H610 C624 0.931 . S
H611 C626 0.930 . S
C612 H600 0.930 . S
C612 C613 1.399 . S
C612 C617 1.399 . S
C613 C612 1.399 . S
C613 C614 1.376 . S
C614 H601 0.930 . S
C614 C613 1.376 . S
C614 C615 1.388 . S
C615 H602 0.930 . S
C615 C614 1.388 . S
C615 C616 1.390 . S
C616 C615 1.390 . S
C616 C617 1.394 . S
C616 C622 1.465 . S
C617 C612 1.399 . S
C617 C616 1.394 . S
C617 C618 1.516 . S
C618 C617 1.516 . S
C618 C619 1.502 . S
C618 C620 1.561 . S
C618 C621 1.526 . S
C619 H603 0.959 . S
C619 H604 0.959 . S
C619 H605 0.961 . S
C619 C618 1.502 . S
C620 H606 0.960 . S
C620 H607 0.961 . S
C620 H608 0.959 . S
C620 C618 1.561 . S
C621 C618 1.526 . S
C621 C622 1.396 . S
C621 C626 1.390 . S
C622 C616 1.465 . S
C622 C621 1.396 . S
C622 C623 1.399 . S
C623 H609 0.929 . S
C623 C622 1.399 . S
C623 C624 1.385 . S
C624 H610 0.931 . S
C624 C623 1.385 . S
C624 C625 1.389 . S
C625 C624 1.389 . S
C625 C626 1.387 . S
C626 H611 0.930 . S
C626 C621 1.390 . S
C626 C625 1.387 . S
H627 C639 0.930 . S
H628 C641 0.930 . S
H629 C642 0.930 . S
H630 C646 0.959 . S
H631 C646 0.959 . S
H632 C646 0.961 . S
H633 C647 0.960 . S
H634 C647 0.961 . S
H635 C647 0.959 . S
H636 C650 0.929 . S
H637 C651 0.931 . S
H638 C653 0.930 . S
C639 H627 0.930 . S
C639 C640 1.399 . S
C639 C644 1.399 . S
C640 C639 1.399 . S
C640 C641 1.376 . S
C641 H628 0.930 . S
C641 C640 1.376 . S
C641 C642 1.388 . S
C642 H629 0.930 . S
C642 C641 1.388 . S
C642 C643 1.390 . S
C643 C642 1.390 . S
C643 C644 1.394 . S
C643 C649 1.465 . S
C644 C639 1.399 . S
C644 C643 1.394 . S
C644 C645 1.516 . S
C645 C644 1.516 . S
C645 C646 1.502 . S
C645 C647 1.561 . S
C645 C648 1.526 . S
C646 H630 0.959 . S
C646 H631 0.959 . S
C646 H632 0.961 . S
C646 C645 1.502 . S
C647 H633 0.960 . S
C647 H634 0.961 . S
C647 H635 0.959 . S
C647 C645 1.561 . S
C648 C645 1.526 . S
C648 C649 1.396 . S
C648 C653 1.390 . S
C649 C643 1.465 . S
C649 C648 1.396 . S
C649 C650 1.399 . S
C650 H636 0.929 . S
C650 C649 1.399 . S
C650 C651 1.385 . S
C651 H637 0.931 . S
C651 C650 1.385 . S
C651 C652 1.389 . S
C652 C651 1.389 . S
C652 C653 1.387 . S
C653 H638 0.930 . S
C653 C648 1.390 . S
C653 C652 1.387 . S
H654 C666 0.930 . S
H655 C668 0.930 . S
H656 C669 0.930 . S
H657 C673 0.959 . S
H658 C673 0.959 . S
H659 C673 0.961 . S
H660 C674 0.960 . S
H661 C674 0.961 . S
H662 C674 0.959 . S
H663 C677 0.929 . S
H664 C678 0.931 . S
H665 C680 0.930 . S
C666 H654 0.930 . S
C666 C667 1.399 . S
C666 C671 1.399 . S
C667 C666 1.399 . S
C667 C668 1.376 . S
C668 H655 0.930 . S
C668 C667 1.376 . S
C668 C669 1.388 . S
C669 H656 0.930 . S
C669 C668 1.388 . S
C669 C670 1.390 . S
C670 C669 1.390 . S
C670 C671 1.394 . S
C670 C676 1.465 . S
C671 C666 1.399 . S
C671 C670 1.394 . S
C671 C672 1.516 . S
C672 C671 1.516 . S
C672 C673 1.502 . S
C672 C674 1.561 . S
C672 C675 1.526 . S
C673 H657 0.959 . S
C673 H658 0.959 . S
C673 H659 0.961 . S
C673 C672 1.502 . S
C674 H660 0.960 . S
C674 H661 0.961 . S
C674 H662 0.959 . S
C674 C672 1.561 . S
C675 C672 1.526 . S
C675 C676 1.396 . S
C675 C680 1.390 . S
C676 C670 1.465 . S
C676 C675 1.396 . S
C676 C677 1.399 . S
C677 H663 0.929 . S
C677 C676 1.399 . S
C677 C678 1.385 . S
C678 H664 0.931 . S
C678 C677 1.385 . S
C678 C679 1.389 . S
C679 C678 1.389 . S
C679 C680 1.387 . S
C680 H665 0.930 . S
C680 C675 1.390 . S
C680 C679 1.387 . S
H681 C693 0.930 . S
H682 C695 0.930 . S
H683 C696 0.930 . S
H684 C700 0.959 . S
H685 C700 0.959 . S
H686 C700 0.961 . S
H687 C701 0.960 . S
H688 C701 0.961 . S
H689 C701 0.959 . S
H690 C704 0.929 . S
H691 C705 0.931 . S
H692 C707 0.930 . S
C693 H681 0.930 . S
C693 C694 1.399 . S
C693 C698 1.399 . S
C694 C693 1.399 . S
C694 C695 1.376 . S
C695 H682 0.930 . S
C695 C694 1.376 . S
C695 C696 1.388 . S
C696 H683 0.930 . S
C696 C695 1.388 . S
C696 C697 1.390 . S
C697 C696 1.390 . S
C697 C698 1.394 . S
C697 C703 1.465 . S
C698 C693 1.399 . S
C698 C697 1.394 . S
C698 C699 1.516 . S
C699 C698 1.516 . S
C699 C700 1.502 . S
C699 C701 1.561 . S
C699 C702 1.526 . S
C700 H684 0.959 . S
C700 H685 0.959 . S
C700 H686 0.961 . S
C700 C699 1.502 . S
C701 H687 0.960 . S
C701 H688 0.961 . S
C701 H689 0.959 . S
C701 C699 1.561 . S
C702 C699 1.526 . S
C702 C703 1.396 . S
C702 C707 1.390 . S
C703 C697 1.465 . S
C703 C702 1.396 . S
C703 C704 1.399 . S
C704 H690 0.929 . S
C704 C703 1.399 . S
C704 C705 1.385 . S
C705 H691 0.931 . S
C705 C704 1.385 . S
C705 C706 1.389 . S
C706 C705 1.389 . S
C706 C707 1.387 . S
C707 H692 0.930 . S
C707 C702 1.390 . S
C707 C706 1.387 . S
H708 C720 0.930 . S
H709 C722 0.930 . S
H710 C723 0.930 . S
H711 C727 0.959 . S
H712 C727 0.959 . S
H713 C727 0.961 . S
H714 C728 0.960 . S
H715 C728 0.961 . S
H716 C728 0.959 . S
H717 C731 0.929 . S
H718 C732 0.931 . S
H719 C734 0.930 . S
C720 H708 0.930 . S
C720 C721 1.399 . S
C720 C725 1.399 . S
C721 C720 1.399 . S
C721 C722 1.376 . S
C722 H709 0.930 . S
C722 C721 1.376 . S
C722 C723 1.388 . S
C723 H710 0.930 . S
C723 C722 1.388 . S
C723 C724 1.390 . S
C724 C723 1.390 . S
C724 C725 1.394 . S
C724 C730 1.465 . S
C725 C720 1.399 . S
C725 C724 1.394 . S
C725 C726 1.516 . S
C726 C725 1.516 . S
C726 C727 1.502 . S
C726 C728 1.561 . S
C726 C729 1.526 . S
C727 H711 0.959 . S
C727 H712 0.959 . S
C727 H713 0.961 . S
C727 C726 1.502 . S
C728 H714 0.960 . S
C728 H715 0.961 . S
C728 H716 0.959 . S
C728 C726 1.561 . S
C729 C726 1.526 . S
C729 C730 1.396 . S
C729 C734 1.390 . S
C730 C724 1.465 . S
C730 C729 1.396 . S
C730 C731 1.399 . S
C731 H717 0.929 . S
C731 C730 1.399 . S
C731 C732 1.385 . S
C732 H718 0.931 . S
C732 C731 1.385 . S
C732 C733 1.389 . S
C733 C732 1.389 . S
C733 C734 1.387 . S
C734 H719 0.930 . S
C734 C729 1.390 . S
C734 C733 1.387 . S
H735 C747 0.930 . S
H736 C749 0.930 . S
H737 C750 0.930 . S
H738 C754 0.959 . S
H739 C754 0.959 . S
H740 C754 0.961 . S
H741 C755 0.960 . S
H742 C755 0.961 . S
H743 C755 0.959 . S
H744 C758 0.929 . S
H745 C759 0.931 . S
H746 C761 0.930 . S
C747 H735 0.930 . S
C747 C748 1.399 . S
C747 C752 1.399 . S
C748 C747 1.399 . S
C748 C749 1.376 . S
C749 H736 0.930 . S
C749 C748 1.376 . S
C749 C750 1.388 . S
C750 H737 0.930 . S
C750 C749 1.388 . S
C750 C751 1.390 . S
C751 C750 1.390 . S
C751 C752 1.394 . S
C751 C757 1.465 . S
C752 C747 1.399 . S
C752 C751 1.394 . S
C752 C753 1.516 . S
C753 C752 1.516 . S
C753 C754 1.502 . S
C753 C755 1.561 . S
C753 C756 1.526 . S
C754 H738 0.959 . S
C754 H739 0.959 . S
C754 H740 0.961 . S
C754 C753 1.502 . S
C755 H741 0.960 . S
C755 H742 0.961 . S
C755 H743 0.959 . S
C755 C753 1.561 . S
C756 C753 1.526 . S
C756 C757 1.396 . S
C756 C761 1.390 . S
C757 C751 1.465 . S
C757 C756 1.396 . S
C757 C758 1.399 . S
C758 H744 0.929 . S
C758 C757 1.399 . S
C758 C759 1.385 . S
C759 H745 0.931 . S
C759 C758 1.385 . S
C759 C760 1.389 . S
C760 C759 1.389 . S
C760 C761 1.387 . S
C761 H746 0.930 . S
C761 C756 1.390 . S
C761 C760 1.387 . S
H762 C774 0.930 . S
H763 C776 0.930 . S
H764 C777 0.930 . S
H765 C781 0.959 . S
H766 C781 0.959 . S
H767 C781 0.961 . S
H768 C782 0.960 . S
H769 C782 0.961 . S
H770 C782 0.959 . S
H771 C785 0.929 . S
H772 C786 0.931 . S
H773 C788 0.930 . S
C774 H762 0.930 . S
C774 C775 1.399 . S
C774 C779 1.399 . S
C775 C774 1.399 . S
C775 C776 1.376 . S
C776 H763 0.930 . S
C776 C775 1.376 . S
C776 C777 1.388 . S
C777 H764 0.930 . S
C777 C776 1.388 . S
C777 C778 1.390 . S
C778 C777 1.390 . S
C778 C779 1.394 . S
C778 C784 1.465 . S
C779 C774 1.399 . S
C779 C778 1.394 . S
C779 C780 1.516 . S
C780 C779 1.516 . S
C780 C781 1.502 . S
C780 C782 1.561 . S
C780 C783 1.526 . S
C781 H765 0.959 . S
C781 H766 0.959 . S
C781 H767 0.961 . S
C781 C780 1.502 . S
C782 H768 0.960 . S
C782 H769 0.961 . S
C782 H770 0.959 . S
C782 C780 1.561 . S
C783 C780 1.526 . S
C783 C784 1.396 . S
C783 C788 1.390 . S
C784 C778 1.465 . S
C784 C783 1.396 . S
C784 C785 1.399 . S
C785 H771 0.929 . S
C785 C784 1.399 . S
C785 C786 1.385 . S
C786 H772 0.931 . S
C786 C785 1.385 . S
C786 C787 1.389 . S
C787 C786 1.389 . S
C787 C788 1.387 . S
C788 H773 0.930 . S
C788 C783 1.390 . S
C788 C787 1.387 . S
H789 C801 0.930 . S
H790 C803 0.930 . S
H791 C804 0.930 . S
H792 C808 0.959 . S
H793 C808 0.959 . S
H794 C808 0.961 . S
H795 C809 0.960 . S
H796 C809 0.961 . S
H797 C809 0.959 . S
H798 C812 0.929 . S
H799 C813 0.931 . S
H800 C815 0.930 . S
C801 H789 0.930 . S
C801 C802 1.399 . S
C801 C806 1.399 . S
C802 C801 1.399 . S
C802 C803 1.376 . S
C803 H790 0.930 . S
C803 C802 1.376 . S
C803 C804 1.388 . S
C804 H791 0.930 . S
C804 C803 1.388 . S
C804 C805 1.390 . S
C805 C804 1.390 . S
C805 C806 1.394 . S
C805 C811 1.465 . S
C806 C801 1.399 . S
C806 C805 1.394 . S
C806 C807 1.516 . S
C807 C806 1.516 . S
C807 C808 1.502 . S
C807 C809 1.561 . S
C807 C810 1.526 . S
C808 H792 0.959 . S
C808 H793 0.959 . S
C808 H794 0.961 . S
C808 C807 1.502 . S
C809 H795 0.960 . S
C809 H796 0.961 . S
C809 H797 0.959 . S
C809 C807 1.561 . S
C810 C807 1.526 . S
C810 C811 1.396 . S
C810 C815 1.390 . S
C811 C805 1.465 . S
C811 C810 1.396 . S
C811 C812 1.399 . S
C812 H798 0.929 . S
C812 C811 1.399 . S
C812 C813 1.385 . S
C813 H799 0.931 . S
C813 C812 1.385 . S
C813 C814 1.389 . S
C814 C813 1.389 . S
C814 C815 1.387 . S
C815 H800 0.930 . S
C815 C810 1.390 . S
C815 C814 1.387 . S
C181 C13 1.350 . S
C193 C81 1.367 . S
C208 C25 1.278 . S
C220 C64 1.234 . S
C235 C83 1.325 . S
C247 C41 1.304 . S
C262 C53 1.320 . S
C274 C63 1.324 . S
C289 C105 1.394 . S
C301 C39 1.391 . S
C316 C92 1.401 . S
C328 C55 1.349 . S
C343 C11 1.378 . S
C355 C106 1.336 . S
C370 C91 1.441 . S
C382 C27 1.336 . S
C397 C133 1.309 . S
C409 C119 1.277 . S
C424 C120 1.165 . S
C436 C162 1.223 1_554 S
C451 C134 1.225 1_554 S
C463 C148 1.281 . S
C478 C147 1.323 . S
C490 C161 1.283 . S
C505 C167 1.368 . S
C517 C95 1.383 . S
C532 C123 1.141 . S
C544 C109 1.127 . S
C559 C97 1.334 . S
C571 C139 1.342 . S
C586 C111 1.206 . S
C598 C151 1.220 . S
C613 C69 1.220 . S
C625 C137 1.308 . S
C640 C78 1.486 . S
C652 C153 1.490 . S
C667 C165 1.218 . S
C679 C67 1.230 . S
C694 C125 1.375 . S
C706 C77 1.457 . S
C721 C21 1.387 . S
C733 C35 1.420 . S
C748 C8 1.330 . S
C760 C22 1.285 . S
C775 C36 1.386 . S
C787 C50 1.368 . S
C802 C7 1.395 . S
C814 C49 1.424 . S
