# Generated by pormake.
# Topology uou, (4)-cn, num edge types: 1
# Building blocks:
#     Node 0, Type 0, BuildingBlock: AZAVOO_clean_sbu_0, # of connection points: 4
#     Node 1, Type 0, BuildingBlock: AZAVOO_clean_sbu_0, # of connection points: 4
#     Node 2, Type 0, BuildingBlock: AZAVOO_clean_sbu_0, # of connection points: 4
#     Node 3, Type 0, BuildingBlock: AZAVOO_clean_sbu_0, # of connection points: 4
#     Node 4, Type 0, BuildingBlock: AZAVOO_clean_sbu_0, # of connection points: 4
#     Node 5, Type 0, BuildingBlock: AZAVOO_clean_sbu_0, # of connection points: 4
#     Node 6, Type 0, BuildingBlock: AZAVOO_clean_sbu_0, # of connection points: 4
#     Node 7, Type 0, BuildingBlock: AZAVOO_clean_sbu_0, # of connection points: 4
#     Node 8, Type 0, BuildingBlock: AZAVOO_clean_sbu_0, # of connection points: 4
#     Node 9, Type 0, BuildingBlock: AZAVOO_clean_sbu_0, # of connection points: 4
#     Node 10, Type 0, BuildingBlock: AZAVOO_clean_sbu_0, # of connection points: 4
#     Node 11, Type 0, BuildingBlock: AZAVOO_clean_sbu_0, # of connection points: 4
#     Node 12, Type 0, BuildingBlock: AZAVOO_clean_sbu_0, # of connection points: 4
#     Node 13, Type 0, BuildingBlock: AZAVOO_clean_sbu_0, # of connection points: 4
#     Node 14, Type 0, BuildingBlock: AZAVOO_clean_sbu_0, # of connection points: 4
#     Node 15, Type 0, BuildingBlock: AZAVOO_clean_sbu_0, # of connection points: 4
#     Edge 16, Type (0, 0), BuildingBlock: KIFKEQ_clean_linker_1, # of connection points: 2
#     Edge 17, Type (0, 0), BuildingBlock: KIFKEQ_clean_linker_1, # of connection points: 2
#     Edge 18, Type (0, 0), BuildingBlock: KIFKEQ_clean_linker_1, # of connection points: 2
#     Edge 19, Type (0, 0), BuildingBlock: KIFKEQ_clean_linker_1, # of connection points: 2
#     Edge 20, Type (0, 0), BuildingBlock: KIFKEQ_clean_linker_1, # of connection points: 2
#     Edge 21, Type (0, 0), BuildingBlock: KIFKEQ_clean_linker_1, # of connection points: 2
#     Edge 22, Type (0, 0), BuildingBlock: KIFKEQ_clean_linker_1, # of connection points: 2
#     Edge 23, Type (0, 0), BuildingBlock: KIFKEQ_clean_linker_1, # of connection points: 2
#     Edge 24, Type (0, 0), BuildingBlock: KIFKEQ_clean_linker_1, # of connection points: 2
#     Edge 25, Type (0, 0), BuildingBlock: KIFKEQ_clean_linker_1, # of connection points: 2
#     Edge 26, Type (0, 0), BuildingBlock: KIFKEQ_clean_linker_1, # of connection points: 2
#     Edge 27, Type (0, 0), BuildingBlock: KIFKEQ_clean_linker_1, # of connection points: 2
#     Edge 28, Type (0, 0), BuildingBlock: KIFKEQ_clean_linker_1, # of connection points: 2
#     Edge 29, Type (0, 0), BuildingBlock: KIFKEQ_clean_linker_1, # of connection points: 2
#     Edge 30, Type (0, 0), BuildingBlock: KIFKEQ_clean_linker_1, # of connection points: 2
#     Edge 31, Type (0, 0), BuildingBlock: KIFKEQ_clean_linker_1, # of connection points: 2
#     Edge 32, Type (0, 0), BuildingBlock: KIFKEQ_clean_linker_1, # of connection points: 2
#     Edge 33, Type (0, 0), BuildingBlock: KIFKEQ_clean_linker_1, # of connection points: 2
#     Edge 34, Type (0, 0), BuildingBlock: KIFKEQ_clean_linker_1, # of connection points: 2
#     Edge 35, Type (0, 0), BuildingBlock: KIFKEQ_clean_linker_1, # of connection points: 2
#     Edge 36, Type (0, 0), BuildingBlock: KIFKEQ_clean_linker_1, # of connection points: 2
#     Edge 37, Type (0, 0), BuildingBlock: KIFKEQ_clean_linker_1, # of connection points: 2
#     Edge 38, Type (0, 0), BuildingBlock: KIFKEQ_clean_linker_1, # of connection points: 2
#     Edge 39, Type (0, 0), BuildingBlock: KIFKEQ_clean_linker_1, # of connection points: 2
#     Edge 40, Type (0, 0), BuildingBlock: KIFKEQ_clean_linker_1, # of connection points: 2
#     Edge 41, Type (0, 0), BuildingBlock: KIFKEQ_clean_linker_1, # of connection points: 2
#     Edge 42, Type (0, 0), BuildingBlock: KIFKEQ_clean_linker_1, # of connection points: 2
#     Edge 43, Type (0, 0), BuildingBlock: KIFKEQ_clean_linker_1, # of connection points: 2
#     Edge 44, Type (0, 0), BuildingBlock: KIFKEQ_clean_linker_1, # of connection points: 2
#     Edge 45, Type (0, 0), BuildingBlock: KIFKEQ_clean_linker_1, # of connection points: 2
#     Edge 46, Type (0, 0), BuildingBlock: KIFKEQ_clean_linker_1, # of connection points: 2
#     Edge 47, Type (0, 0), BuildingBlock: KIFKEQ_clean_linker_1, # of connection points: 2
# Relax obj value: 0.174
# Max RMSD: 0.206
# Mean RMSD: 0.189
data_MOF--net-uou--node1-AZAVOO_clean_sbu_0--edge1-KIFKEQ_clean_linker_1
_symmetry_space_group_name_H-M    P1
_symmetry_Int_Tables_number       1
_symmetry_cell_setting            triclinic
loop_
_symmetry_equiv_pos_as_xyz
'x, y, z'
_cell_length_a     39.877052
_cell_length_b     37.702584
_cell_length_c     53.425816
_cell_angle_alpha  90.231156
_cell_angle_beta   90.058777
_cell_angle_gamma 89.920626
loop_
_atom_site_label
_atom_site_type_symbol
_atom_site_fract_x
_atom_site_fract_y
_atom_site_fract_z
_atom_type_partial_charge
Mg0 Mg 0.13304 0.11585 0.12498 0.0
O1 O 0.09899 0.08508 0.15146 0.0
O2 O 0.11372 0.02784 0.15131 0.0
Mg3 Mg 0.15862 0.02267 0.12468 0.0
C4 C 0.0953 0.05331 0.15913 0.0
C5 C 0.10675 0.19271 0.11963 0.0
O6 O 0.13747 0.19638 0.11114 0.0
O7 O 0.10645 0.09216 0.09078 0.0
O8 O 0.12545 0.03634 0.09091 0.0
O9 O 0.16758 0.12443 0.15753 0.0
O10 O 0.1704 0.07909 0.13098 0.0
C11 C 0.10823 0.06122 0.081 0.0
C12 C 0.18043 0.09412 0.15131 0.0
O13 O 0.09692 0.16226 0.12651 0.0
Mg14 Mg 0.35371 0.8849 0.11279 0.0
O15 O 0.38569 0.92064 0.13782 0.0
O16 O 0.3633 0.97494 0.13933 0.0
Mg17 Mg 0.31827 0.97419 0.11259 0.0
C18 C 0.3855 0.95246 0.14607 0.0
C19 C 0.38826 0.81282 0.10459 0.0
O20 O 0.35853 0.80684 0.09482 0.0
O21 O 0.37609 0.91042 0.07815 0.0
O22 O 0.35307 0.96449 0.07875 0.0
O23 O 0.32281 0.87338 0.14649 0.0
O24 O 0.31267 0.91687 0.11959 0.0
C25 C 0.37207 0.94116 0.06866 0.0
C26 C 0.30613 0.90159 0.14054 0.0
O27 O 0.39466 0.84332 0.11351 0.0
Mg28 Mg 0.57123 0.94115 0.34132 0.0
O29 O 0.53725 0.96051 0.30998 0.0
O30 O 0.54746 0.01751 0.3021 0.0
Mg31 Mg 0.58927 0.03434 0.32923 0.0
C32 C 0.53161 0.98878 0.29764 0.0
C33 C 0.54851 0.86553 0.35716 0.0
O34 O 0.57786 0.86658 0.36833 0.0
O35 O 0.54135 0.97094 0.37064 0.0
O36 O 0.5554 0.02752 0.36407 0.0
O37 O 0.60968 0.92592 0.31336 0.0
O38 O 0.60691 0.97861 0.33172 0.0
C39 C 0.54003 0.00372 0.3766 0.0
C40 C 0.62118 0.95789 0.31566 0.0
O41 O 0.5385 0.89244 0.34503 0.0
Mg42 Mg 0.89276 0.05053 0.34895 0.0
O43 O 0.93027 0.03823 0.31797 0.0
O44 O 0.92876 0.9802 0.3094 0.0
Mg45 Mg 0.88789 0.95626 0.33443 0.0
C46 C 0.94036 0.01126 0.30559 0.0
C47 C 0.9041 0.13236 0.35573 0.0
O48 O 0.87237 0.13358 0.34916 0.0
O49 O 0.92471 0.02384 0.37812 0.0
O50 O 0.9191 0.96588 0.37056 0.0
O51 O 0.85468 0.06182 0.32008 0.0
O52 O 0.86291 0.00893 0.33698 0.0
C53 C 0.93047 0.9916 0.38373 0.0
C54 C 0.84728 0.02837 0.3209 0.0
O55 O 0.91897 0.1026 0.35673 0.0
Mg56 Mg 0.94416 0.98417 0.88635 0.0
O57 O 0.95741 0.92543 0.89285 0.0
O58 O 0.94443 0.9123 0.93229 0.0
Mg59 Mg 0.92208 0.96215 0.95082 0.0
C60 C 0.95641 0.90353 0.91098 0.0
C61 C 0.96255 0.99938 0.83093 0.0
O62 O 0.97074 0.02971 0.84146 0.0
O63 O 0.88752 0.97389 0.88433 0.0
O64 O 0.87612 0.96436 0.92468 0.0
O65 O -0.00494 0.99952 0.90093 0.0
O66 O 0.94969 0.9958 0.92435 0.0
C67 C 0.86657 0.96852 0.90202 0.0
C68 C 0.98135 1.00162 0.92286 0.0
O69 O 0.95045 0.97491 0.84446 0.0
Mg70 Mg 0.54689 0.02719 0.8822 0.0
O71 O 0.53462 0.08572 0.89081 0.0
O72 O 0.54605 0.0955 0.9311 0.0
Mg73 Mg 0.56646 0.04389 0.94805 0.0
C74 C 0.53522 0.10616 0.90992 0.0
C75 C 0.53514 0.01378 0.82576 0.0
O76 O 0.53084 0.98186 0.835 0.0
O77 O 0.60381 0.0361 0.88209 0.0
O78 O 0.61349 0.04244 0.92305 0.0
O79 O 0.49495 0.01249 0.89459 0.0
O80 O 0.53914 0.01328 0.91947 0.0
C81 C 0.62401 0.03969 0.90052 0.0
C82 C 0.5074 0.00873 0.91682 0.0
O83 O 0.54262 0.03904 0.84055 0.0
Mg84 Mg 0.438 0.05556 0.5947 0.0
O85 O 0.44709 0.11569 0.59855 0.0
O86 O 0.41746 0.1426 0.56864 0.0
Mg87 Mg 0.39289 0.0997 0.54409 0.0
C88 C 0.43736 0.14376 0.58736 0.0
C89 C 0.4827 0.06045 0.64388 0.0
O90 O 0.50151 0.08087 0.62983 0.0
O91 O 0.38384 0.05816 0.60822 0.0
O92 O 0.357 0.08076 0.57519 0.0
O93 O 0.48277 0.05096 0.56994 0.0
O94 O 0.43141 0.06098 0.55616 0.0
C95 C 0.3568 0.06681 0.59696 0.0
C96 C 0.4628 0.05693 0.55127 0.0
O97 O 0.45626 0.04684 0.63466 0.0
Mg98 Mg 0.05463 0.96128 0.59796 0.0
O99 O 0.04717 0.90096 0.60158 0.0
O100 O 0.07508 0.87494 0.57026 0.0
Mg101 Mg 0.09765 0.91854 0.54562 0.0
C102 C 0.05647 0.87323 0.58965 0.0
C103 C 0.01163 0.9571 0.64769 0.0
O104 O 0.99105 0.93918 0.63319 0.0
O105 O 0.10953 0.96008 0.60973 0.0
O106 O 0.13495 0.93779 0.57592 0.0
O107 O 0.00812 0.964 0.57505 0.0
O108 O 0.05871 0.95597 0.55914 0.0
C109 C 0.13608 0.95176 0.59774 0.0
C110 C 0.02681 0.95828 0.55561 0.0
O111 O 0.03874 0.96911 0.63857 0.0
Mg112 Mg 0.57834 0.53729 0.1409 0.0
O113 O 0.5493 0.51907 0.17502 0.0
O114 O 0.56457 0.46377 0.18458 0.0
Mg115 Mg 0.605 0.44731 0.15619 0.0
C116 C 0.54709 0.49158 0.18875 0.0
C117 C 0.5525 0.61229 0.12778 0.0
O118 O 0.58464 0.61601 0.12307 0.0
O119 O 0.54725 0.50202 0.11582 0.0
O120 O 0.56718 0.44764 0.12328 0.0
O121 O 0.61831 0.55849 0.16561 0.0
O122 O 0.61738 0.50383 0.15033 0.0
C123 C 0.54803 0.46882 0.11125 0.0
C124 C 0.63163 0.52716 0.16447 0.0
O125 O 0.54184 0.58267 0.13568 0.0
Mg126 Mg 0.91825 0.47533 0.13347 0.0
O127 O 0.94828 0.49208 0.16761 0.0
O128 O 0.93462 0.54744 0.17854 0.0
Mg129 Mg 0.89421 0.56574 0.15072 0.0
C130 C 0.95145 0.51901 0.18193 0.0
C131 C 0.9573 0.40592 0.14455 0.0
O132 O 0.94091 0.40994 0.1657 0.0
O133 O 0.94982 0.51027 0.10879 0.0
O134 O 0.93152 0.56501 0.11758 0.0
O135 O 0.87839 0.45483 0.15833 0.0
O136 O 0.88024 0.50978 0.14393 0.0
C137 C 0.94988 0.54363 0.10496 0.0
C138 C 0.86595 0.48659 0.15801 0.0
O139 O 0.95347 0.42875 0.12736 0.0
Mg140 Mg 0.10155 0.39841 0.37396 0.0
O141 O 0.07673 0.43746 0.34725 0.0
O142 O 0.10685 0.48729 0.34541 0.0
Mg143 Mg 0.15038 0.48032 0.37302 0.0
C144 C 0.0819 0.46842 0.3385 0.0
C145 C 0.0489 0.34358 0.39101 0.0
O146 O 0.06881 0.34412 0.41062 0.0
O147 O 0.08193 0.42994 0.40719 0.0
O148 O 0.11349 0.47887 0.40613 0.0
O149 O 0.13206 0.3791 0.34171 0.0
O150 O 0.14705 0.42244 0.36769 0.0
C151 C 0.09057 0.46002 0.41616 0.0
C152 C 0.15246 0.4045 0.34754 0.0
O153 O 0.05509 0.36409 0.37282 0.0
Mg154 Mg 0.36099 0.58404 0.37369 0.0
O155 O 0.39611 0.55278 0.34796 0.0
O156 O 0.37933 0.49625 0.34645 0.0
Mg157 Mg 0.33318 0.49155 0.37166 0.0
C158 C 0.39921 0.52104 0.33984 0.0
C159 C 0.40689 0.64437 0.35462 0.0
O160 O 0.39504 0.63222 0.3333 0.0
O161 O 0.38549 0.55854 0.40758 0.0
O162 O 0.36585 0.50304 0.40625 0.0
O163 O 0.32801 0.59506 0.34063 0.0
O164 O 0.32365 0.54831 0.36552 0.0
C165 C 0.38323 0.52739 0.41672 0.0
C166 C 0.31475 0.56454 0.34544 0.0
O167 O 0.39783 0.62979 0.3749 0.0
Mg168 Mg 0.43133 0.42996 0.89725 0.0
O169 O 0.43069 0.36905 0.89719 0.0
O170 O 0.39961 0.35119 0.92938 0.0
Mg171 Mg 0.3791 0.40089 0.94922 0.0
C172 C 0.41861 0.34438 0.91075 0.0
C173 C 0.46235 0.45558 0.84675 0.0
O174 O 0.46221 0.48595 0.8589 0.0
O175 O 0.378 0.436 0.88251 0.0
O176 O 0.3474 0.42094 0.9158 0.0
O177 O 0.47547 0.42755 0.92283 0.0
O178 O 0.4229 0.4312 0.93573 0.0
C179 C 0.34974 0.43269 0.89344 0.0
C180 C 0.45421 0.42795 0.94116 0.0
O181 O 0.45179 0.42792 0.85767 0.0
Mg182 Mg 0.06761 0.58226 0.89208 0.0
O183 O 0.06653 0.64342 0.89143 0.0
O184 O 0.09722 0.66219 0.92376 0.0
Mg185 Mg 0.11881 0.61388 0.94423 0.0
C186 C 0.07811 0.66846 0.9051 0.0
C187 C 0.02985 0.55402 0.84562 0.0
O188 O 0.02464 0.52834 0.8617 0.0
O189 O 0.12126 0.5771 0.87765 0.0
O190 O 0.15098 0.59336 0.91125 0.0
O191 O 0.02327 0.58401 0.91742 0.0
O192 O 0.07584 0.58254 0.93056 0.0
C193 C 0.14925 0.58107 0.88894 0.0
C194 C 0.04444 0.58487 0.93583 0.0
O195 O 0.04673 0.5809 0.85252 0.0
Mg196 Mg 0.93789 0.5523 0.61139 0.0
O197 O 0.94804 0.61199 0.60789 0.0
O198 O 0.92882 0.63015 0.57087 0.0
Mg199 Mg 0.90944 0.581 0.54971 0.0
C200 C 0.94303 0.6364 0.59184 0.0
C201 C 0.9582 0.53029 0.66522 0.0
O202 O 0.96355 0.50038 0.65316 0.0
O203 O 0.88115 0.55906 0.61628 0.0
O204 O 0.86592 0.57156 0.57705 0.0
O205 O 0.98811 0.54121 0.59438 0.0
O206 O 0.9411 0.5459 0.57277 0.0
C207 C 0.85852 0.56434 0.59974 0.0
C208 C 0.97303 0.54114 0.57289 0.0
O209 O 0.94705 0.55683 0.65322 0.0
Mg210 Mg 0.55009 0.46674 0.61172 0.0
O211 O 0.54264 0.40633 0.60875 0.0
O212 O 0.56117 0.38863 0.57133 0.0
Mg213 Mg 0.57795 0.43817 0.54973 0.0
C214 C 0.54803 0.38197 0.59258 0.0
C215 C 0.51674 0.44898 0.66261 0.0
O216 O 0.49487 0.43491 0.64708 0.0
O217 O 0.60715 0.46287 0.61576 0.0
O218 O 0.62187 0.45019 0.57641 0.0
O219 O 0.49883 0.47449 0.59568 0.0
O220 O 0.54516 0.47175 0.57313 0.0
C221 C 0.62955 0.45824 0.59897 0.0
C222 C 0.51303 0.47451 0.57389 0.0
O223 O 0.5427 0.46391 0.65382 0.0
H224 H 0.32882 0.93949 0.18005 0.0
H225 H 0.23892 0.90896 0.1407 0.0
H226 H 0.29899 0.98987 0.1988 0.0
H227 H 0.20865 0.95791 0.16025 0.0
H228 H 0.15909 0.04915 0.187 0.0
H229 H 0.19034 0.99641 0.19987 0.0
H230 H 0.27966 0.03919 0.16588 0.0
H231 H 0.248 0.09101 0.15225 0.0
C232 C 0.30219 0.94242 0.17661 0.0
C233 C 0.28596 0.92074 0.15897 0.0
C234 C 0.28519 0.97113 0.18735 0.0
C235 C 0.25161 0.97774 0.18094 0.0
C236 C 0.23441 0.95315 0.16581 0.0
C237 C 0.25165 0.92515 0.15455 0.0
C238 C 0.1858 0.04799 0.18348 0.0
C239 C 0.20128 0.07366 0.16851 0.0
C240 C 0.20365 0.01792 0.19089 0.0
C241 C 0.23724 0.01365 0.18363 0.0
C242 C 0.25385 0.04197 0.17192 0.0
C243 C 0.23581 0.07166 0.16409 0.0
H244 H 0.66452 0.91635 0.28884 0.0
H245 H 0.64805 0.02423 0.31354 0.0
H246 H 0.72197 0.93148 0.27731 0.0
H247 H 0.70505 0.03918 0.30229 0.0
H248 H 0.80758 0.06369 0.28756 0.0
H249 H 0.75212 0.04534 0.27332 0.0
H250 H 0.76683 0.94305 0.30784 0.0
H251 H 0.82222 0.96108 0.32167 0.0
C252 C 0.67277 0.94353 0.29108 0.0
C253 C 0.65205 0.96893 0.30266 0.0
C254 C 0.70568 0.95215 0.28451 0.0
C255 C 0.71822 0.98634 0.28924 0.0
C256 C 0.69621 0.01262 0.29823 0.0
C257 C 0.66349 0.00397 0.30493 0.0
C258 C 0.7994 0.03687 0.29138 0.0
C259 C 0.8188 0.01415 0.30636 0.0
C260 C 0.76764 0.0264 0.28322 0.0
C261 C 0.75481 0.99308 0.28994 0.0
C262 C 0.77593 0.96889 0.30229 0.0
C263 C 0.80767 0.97935 0.31043 0.0
H264 H 0.81496 0.95261 0.93349 0.0
H265 H 0.8353 0.99607 0.86032 0.0
H266 H 0.75696 0.97179 0.9302 0.0
H267 H 0.77678 0.01545 0.85716 0.0
H268 H 0.6569 0.01511 0.85848 0.0
H269 H 0.71542 0.99546 0.8559 0.0
H270 H 0.73225 0.03254 0.9314 0.0
H271 H 0.67429 0.05199 0.93409 0.0
C272 C 0.80699 0.96575 0.91649 0.0
C273 C 0.83005 0.97315 0.89732 0.0
C274 C 0.77373 0.97704 0.91472 0.0
C275 C 0.7625 0.99597 0.8937 0.0
C276 C 0.78476 1.00112 0.87365 0.0
C277 C 0.81827 0.98987 0.87545 0.0
C278 C 0.67329 0.01979 0.87432 0.0
C279 C 0.66067 0.03477 0.89662 0.0
C280 C 0.70678 0.00838 0.87285 0.0
C281 C 0.72818 0.01161 0.89367 0.0
C282 C 0.71613 0.02876 0.91527 0.0
C283 C 0.6829 0.04022 0.91672 0.0
H284 H 0.14785 0.00901 0.62789 0.0
H285 H 0.19849 0.92507 0.5876 0.0
H286 H 0.2016 0.03872 0.63475 0.0
H287 H 0.25229 0.95437 0.59522 0.0
H288 H 0.29423 0.09431 0.58884 0.0
H289 H 0.24061 0.0649 0.5967 0.0
H290 H 0.29238 0.97907 0.63337 0.0
H291 H 0.34597 0.00889 0.62628 0.0
C292 C 0.17053 0.99622 0.62128 0.0
C293 C 0.1689 0.9647 0.60711 0.0
C294 C 0.20123 0.0134 0.6251 0.0
C295 C 0.23096 0.99887 0.61546 0.0
C296 C 0.2297 0.96599 0.603 0.0
C297 C 0.19893 0.94926 0.59862 0.0
C298 C 0.29408 0.06979 0.59933 0.0
C299 C 0.32434 0.05396 0.60691 0.0
C300 C 0.26342 0.05297 0.60384 0.0
C301 C 0.2625 0.01964 0.6155 0.0
C302 C 0.29249 0.00474 0.62434 0.0
C303 C 0.3231 0.02198 0.6204 0.0
H304 H 0.82949 0.44323 0.1885 0.0
H305 H 0.832 0.54935 0.15829 0.0
H306 H 0.77215 0.45323 0.20282 0.0
H307 H 0.77491 0.55904 0.17207 0.0
H308 H 0.67108 0.57255 0.19156 0.0
H309 H 0.72993 0.56354 0.20246 0.0
H310 H 0.72379 0.45552 0.17545 0.0
H311 H 0.66536 0.46428 0.16505 0.0
C312 C 0.81813 0.46897 0.18547 0.0
C313 C 0.83491 0.49521 0.17172 0.0
C314 C 0.78532 0.47468 0.19368 0.0
C315 C 0.76876 0.50666 0.18819 0.0
C316 C 0.78689 0.53415 0.17677 0.0
C317 C 0.81965 0.52847 0.16862 0.0
C318 C 0.68207 0.54657 0.1887 0.0
C319 C 0.66386 0.51938 0.17686 0.0
C320 C 0.71577 0.54144 0.19492 0.0
C321 C 0.7317 0.50907 0.18938 0.0
C322 C 0.71236 0.48077 0.18011 0.0
C323 C 0.67878 0.48589 0.1739 0.0
H324 H 0.24877 0.57661 0.33782 0.0
H325 H 0.33135 0.5106 0.31444 0.0
H326 H 0.20932 0.5325 0.32208 0.0
H327 H 0.29206 0.46612 0.29871 0.0
H328 H 0.21897 0.39298 0.34919 0.0
H329 H 0.26088 0.43294 0.33221 0.0
H330 H 0.18355 0.4887 0.29143 0.0
H331 H 0.1417 0.44766 0.30812 0.0
C332 C 0.25837 0.55348 0.32806 0.0
C333 C 0.2928 0.54645 0.32761 0.0
C334 C 0.23585 0.5282 0.31894 0.0
C335 C 0.2477 0.49553 0.30959 0.0
C336 C 0.28231 0.49088 0.30606 0.0
C337 C 0.30475 0.51621 0.31514 0.0
C338 C 0.21135 0.41242 0.33541 0.0
C339 C 0.17743 0.41754 0.32992 0.0
C340 C 0.23529 0.43537 0.32561 0.0
C341 C 0.22537 0.46429 0.31073 0.0
C342 C 0.1918 0.46673 0.30291 0.0
C343 C 0.16793 0.44328 0.3124 0.0
H344 H 0.21489 0.59881 0.89694 0.0
H345 H 0.15206 0.52238 0.859 0.0
H346 H 0.26374 0.56085 0.88959 0.0
H347 H 0.20081 0.48399 0.85245 0.0
H348 H 0.28371 0.41643 0.90123 0.0
H349 H 0.23528 0.45385 0.89147 0.0
H350 H 0.29975 0.52712 0.85276 0.0
H351 H 0.3481 0.48922 0.86174 0.0
C352 C 0.2117 0.57448 0.88635 0.0
C353 C 0.17961 0.56365 0.87857 0.0
C354 C 0.23964 0.55275 0.88216 0.0
C355 C 0.23592 0.51941 0.87062 0.0
C356 C 0.20429 0.50956 0.8614 0.0
C357 C 0.17647 0.53172 0.86501 0.0
C358 C 0.28737 0.43983 0.88986 0.0
C359 C 0.31975 0.44982 0.88229 0.0
C360 C 0.25967 0.46124 0.88427 0.0
C361 C 0.26389 0.49344 0.87149 0.0
C362 C 0.29588 0.50242 0.86262 0.0
C363 C 0.32348 0.48055 0.86765 0.0
H364 H 0.6556 0.48957 0.64154 0.0
H365 H 0.68357 0.45122 0.56805 0.0
H366 H 0.71064 0.51803 0.64569 0.0
H367 H 0.73781 0.47987 0.57224 0.0
H368 H 0.8037 0.5762 0.57038 0.0
H369 H 0.74897 0.54844 0.57398 0.0
H370 H 0.77744 0.50335 0.64497 0.0
H371 H 0.83291 0.53092 0.64139 0.0
C372 C 0.67362 0.48648 0.62654 0.0
C373 C 0.66487 0.46847 0.60429 0.0
C374 C 0.70505 0.50291 0.62892 0.0
C375 C 0.72804 0.50184 0.60903 0.0
C376 C 0.72021 0.48176 0.58763 0.0
C377 C 0.68914 0.46514 0.58534 0.0
C378 C 0.79827 0.56101 0.58706 0.0
C379 C 0.82303 0.55538 0.60539 0.0
C380 C 0.76692 0.54491 0.58901 0.0
C381 C 0.75934 0.52307 0.60945 0.0
C382 C 0.78281 0.51988 0.62894 0.0
C383 C 0.81449 0.53582 0.6269 0.0
H384 H 0.9486 0.07142 0.27863 0.0
H385 H 0.98464 0.96379 0.2849 0.0
H386 H 0.9841 0.08057 0.2425 0.0
H387 H 0.0222 0.97352 0.24952 0.0
H388 H 0.0638 0.99106 0.17117 0.0
H389 H 0.0261 0.98042 0.20633 0.0
H390 H 0.03813 0.08965 0.22985 0.0
H391 H 0.0737 0.10052 0.19402 0.0
C392 C 0.96471 0.04989 0.27256 0.0
C393 C 0.96399 0.01695 0.2847 0.0
C394 C 0.98529 0.05516 0.25183 0.0
C395 C 0.00641 0.02792 0.243 0.0
C396 C 0.00594 0.99499 0.2554 0.0
C397 C 0.98468 0.98946 0.27586 0.0
C398 C 0.05796 0.01279 0.18377 0.0
C399 C 0.07134 0.04671 0.17967 0.0
C400 C 0.03663 0.00666 0.2041 0.0
C401 C 0.02884 0.03415 0.22109 0.0
C402 C 0.04264 0.06796 0.21695 0.0
C403 C 0.06324 0.07424 0.19637 0.0
H404 H 0.43798 0.91303 0.16343 0.0
H405 H 0.38717 0.01327 0.17461 0.0
H406 H 0.47261 0.92465 0.19998 0.0
H407 H 0.42198 0.02468 0.21148 0.0
H408 H 0.51594 0.04104 0.26373 0.0
H409 H 0.48166 0.03508 0.22593 0.0
H410 H 0.45979 0.9265 0.24536 0.0
H411 H 0.49392 0.93213 0.28279 0.0
C412 C 0.43437 0.93773 0.17351 0.0
C413 C 0.40954 0.96207 0.16616 0.0
C414 C 0.45411 0.94425 0.19458 0.0
C415 C 0.44959 0.97528 0.20883 0.0
C416 C 0.426 1.00054 0.20084 0.0
C417 C 0.40609 0.99397 0.17971 0.0
C418 C 0.50354 0.01601 0.26006 0.0
C419 C 0.50798 0.98697 0.27622 0.0
C420 C 0.4839 0.01265 0.23842 0.0
C421 C 0.46855 0.98015 0.2325 0.0
C422 C 0.47195 0.95164 0.24914 0.0
C423 C 0.49136 0.955 0.27073 0.0
H424 H 0.0494 0.99218 0.68252 0.0
H425 H 0.95573 0.93602 0.67342 0.0
H426 H 0.03661 1.00222 0.72649 0.0
H427 H 0.94264 0.94673 0.71745 0.0
H428 H 0.94997 0.93929 0.80352 0.0
H429 H 0.96117 0.92914 0.75919 0.0
H430 H -0.00147 0.0362 0.75261 0.0
H431 H 0.98797 0.04615 0.79697 0.0
C432 C 0.02598 0.98211 0.68986 0.0
C433 C 0.00357 0.96331 0.67442 0.0
C434 C 0.01856 0.98807 0.71506 0.0
C435 C 0.98854 0.97541 0.72548 0.0
C436 C 0.96613 0.95652 0.71007 0.0
C437 C 0.97356 0.95055 0.6848 0.0
C438 C 0.9605 0.9607 0.7926 0.0
C439 C 0.9682 0.9935 0.80382 0.0
C440 C 0.96674 0.95493 0.76715 0.0
C441 C 0.98085 0.98182 0.75236 0.0
C442 C 0.98813 0.01475 0.76354 0.0
C443 C 0.98189 0.02052 0.78897 0.0
H444 H 0.44996 0.01809 0.67717 0.0
H445 H 0.53599 0.087 0.67044 0.0
H446 H 0.46422 0.00696 0.72071 0.0
H447 H 0.55056 0.07533 0.71408 0.0
H448 H 0.54073 0.07672 0.80064 0.0
H449 H 0.52934 0.08782 0.75646 0.0
H450 H 0.50684 0.97679 0.74551 0.0
H451 H 0.51767 0.96576 0.78967 0.0
C452 C 0.47203 0.03075 0.68493 0.0
C453 C 0.49184 0.05344 0.67029 0.0
C454 C 0.48032 0.02418 0.70988 0.0
C455 C 0.5086 0.04014 0.72084 0.0
C456 C 0.52844 0.06288 0.70624 0.0
C457 C 0.52018 0.0694 0.6812 0.0
C458 C 0.53349 0.05465 0.78878 0.0
C459 C 0.52993 0.02038 0.79872 0.0
C460 C 0.52714 0.06099 0.76343 0.0
C461 C 0.51702 0.03322 0.7475 0.0
C462 C 0.51409 0.99886 0.75737 0.0
C463 C 0.52048 0.99251 0.78267 0.0
H464 H 0.50615 0.54602 0.20301 0.0
H465 H 0.53814 0.441 0.22506 0.0
H466 H 0.47275 0.55088 0.2408 0.0
H467 H 0.50474 0.44624 0.26325 0.0
H468 H 0.40887 0.45939 0.31336 0.0
H469 H 0.44538 0.45039 0.27727 0.0
H470 H 0.48334 0.55698 0.28586 0.0
H471 H 0.44665 0.56631 0.32161 0.0
C472 C 0.50606 0.5239 0.21588 0.0
C473 C 0.52501 0.49316 0.21101 0.0
C474 C 0.48709 0.52684 0.23767 0.0
C475 C 0.48652 0.49916 0.25516 0.0
C476 C 0.50469 0.46799 0.25007 0.0
C477 C 0.52383 0.46503 0.22821 0.0
C478 C 0.42533 0.48076 0.30778 0.0
C479 C 0.42455 0.51371 0.32025 0.0
C480 C 0.4463 0.47554 0.28713 0.0
C481 C 0.46684 0.50315 0.27854 0.0
C482 C 0.46725 0.53546 0.29174 0.0
C483 C 0.44635 0.54069 0.31234 0.0
H484 H 0.0276 0.43482 0.31842 0.0
H485 H 0.08744 0.52987 0.31123 0.0
H486 H -0.00298 0.45045 0.28071 0.0
H487 H 0.0564 0.54543 0.27325 0.0
H488 H 0.96511 0.56925 0.21806 0.0
H489 H -0.00399 0.56047 0.25723 0.0
H490 H 0.01724 0.45236 0.23554 0.0
H491 H 0.9868 0.4608 0.19667 0.0
C492 C 0.03402 0.45928 0.30901 0.0
C493 C 0.06029 0.48088 0.31775 0.0
C494 C 0.01656 0.4681 0.28732 0.0
C495 C 0.02477 0.49881 0.2739 0.0
C496 C 0.04966 0.52156 0.28329 0.0
C497 C 0.0674 0.51261 0.305 0.0
C498 C 0.9767 0.54374 0.22153 0.0
C499 C 0.97316 0.51564 0.2043 0.0
C500 C -0.00562 0.5388 0.24392 0.0
C501 C 0.00846 0.50559 0.24951 0.0
C502 C 0.00604 0.47803 0.23188 0.0
C503 C 0.98873 0.483 0.20952 0.0
H504 H 0.46548 0.41664 0.68746 0.0
H505 H 0.55409 0.48043 0.6995 0.0
H506 H 0.45417 0.41768 0.73227 0.0
H507 H 0.54291 0.48107 0.74439 0.0
H508 H 0.48625 0.50941 0.81758 0.0
H509 H 0.50089 0.50682 0.77327 0.0
H510 H 0.47743 0.39501 0.77179 0.0
H511 H 0.46239 0.3976 0.81594 0.0
C512 C 0.48265 0.43071 0.69967 0.0
C513 C 0.51063 0.44853 0.6899 0.0
C514 C 0.47627 0.43113 0.72536 0.0
C515 C 0.49765 0.44947 0.74185 0.0
C516 C 0.52579 0.46704 0.73212 0.0
C517 C 0.53227 0.46649 0.70642 0.0
C518 C 0.48437 0.48424 0.80783 0.0
C519 C 0.473 0.45376 0.82026 0.0
C520 C 0.49293 0.48272 0.78249 0.0
C521 C 0.49017 0.45074 0.76903 0.0
C522 C 0.47937 0.42015 0.78157 0.0
C523 C 0.47093 0.42162 0.80691 0.0
H524 H -0.00606 0.49968 0.82481 0.0
H525 H 0.03731 0.60171 0.8076 0.0
H526 H 0.97455 0.4941 0.78168 0.0
H527 H 0.01842 0.59579 0.7644 0.0
H528 H 0.95207 0.58896 0.69514 0.0
H529 H 0.96735 0.59483 0.73914 0.0
H530 H -0.00129 0.48511 0.74012 0.0
H531 H 0.9829 0.47902 0.69623 0.0
C532 C -0.00067 0.52092 0.81184 0.0
C533 C 0.01724 0.55111 0.81964 0.0
C534 C 0.98837 0.51762 0.7871 0.0
C535 C -0.00499 0.54445 0.7696 0.0
C536 C 0.01254 0.57484 0.77749 0.0
C537 C 0.02354 0.57813 0.80223 0.0
C538 C 0.96207 0.56602 0.70476 0.0
C539 C 0.96635 0.53353 0.69216 0.0
C540 C 0.971 0.56946 0.72995 0.0
C541 C 0.98435 0.54048 0.7431 0.0
C542 C 0.98814 0.50784 0.73059 0.0
C543 C 0.97925 0.50441 0.70539 0.0
H544 H 0.11968 0.2613 0.10637 0.0
H545 H 0.0433 0.19455 0.13885 0.0
H546 H 0.08363 0.31297 0.11225 0.0
H547 H 0.00715 0.24613 0.14437 0.0
H548 H 0.96951 0.3515 0.17691 0.0
H549 H 0.00556 0.30006 0.1703 0.0
H550 H 0.0308 0.3384 0.09661 0.0
H551 H -0.00486 0.39015 0.10331 0.0
C552 C 0.09514 0.25761 0.11462 0.0
C553 C 0.0844 0.22384 0.12221 0.0
C554 C 0.07443 0.28719 0.11788 0.0
C555 C 0.04261 0.28363 0.12886 0.0
C556 C 0.03174 0.24979 0.13618 0.0
C557 C 0.05238 0.22021 0.13286 0.0
C558 C 0.98277 0.349 0.1593 0.0
C559 C 0.97943 0.3749 0.14063 0.0
C560 C 0.00326 0.31942 0.15547 0.0
C561 C 0.02093 0.31513 0.1329 0.0
C562 C 0.01776 0.34114 0.11429 0.0
C563 C -0.0028 0.3707 0.11809 0.0
H564 H 0.38173 0.74421 0.08875 0.0
H565 H 0.45137 0.81622 0.12446 0.0
H566 H 0.42209 0.69605 0.0933 0.0
H567 H 0.49146 0.76788 0.12936 0.0
H568 H 0.56701 0.6794 0.11189 0.0
H569 H 0.52785 0.72815 0.10486 0.0
H570 H 0.44568 0.66115 0.12772 0.0
H571 H 0.48462 0.6123 0.13438 0.0
C572 C 0.40566 0.74979 0.09753 0.0
C573 C 0.4133 0.784 0.10633 0.0
C574 C 0.42869 0.72215 0.10026 0.0
C575 C 0.45986 0.72814 0.11181 0.0
C576 C 0.46777 0.76251 0.12017 0.0
C577 C 0.44472 0.79015 0.11747 0.0
C578 C 0.54059 0.67507 0.11538 0.0
C579 C 0.52892 0.64198 0.12368 0.0
C580 C 0.51819 0.70304 0.11146 0.0
C581 C 0.48369 0.69845 0.11568 0.0
C582 C 0.47206 0.66535 0.12395 0.0
C583 C 0.49443 0.63744 0.12793 0.0
H584 H 0.4267 0.68494 0.3151 0.0
H585 H 0.43763 0.67447 0.39525 0.0
H586 H 0.4617 0.73787 0.31611 0.0
H587 H 0.47237 0.72767 0.39622 0.0
H588 H 0.56107 0.80394 0.38248 0.0
H589 H 0.52791 0.74952 0.38185 0.0
H590 H 0.45637 0.79917 0.33232 0.0
H591 H 0.48951 0.85334 0.3327 0.0
C592 C 0.43662 0.69386 0.33292 0.0
C593 C 0.42926 0.67559 0.35511 0.0
C594 C 0.45651 0.7243 0.33351 0.0
C595 C 0.46959 0.73701 0.35626 0.0
C596 C 0.46283 0.71834 0.37838 0.0
C597 C 0.44279 0.68798 0.37783 0.0
C598 C 0.53823 0.80326 0.3715 0.0
C599 C 0.52797 0.83293 0.35761 0.0
C600 C 0.5192 0.77215 0.37122 0.0
C601 C 0.48966 0.77006 0.35693 0.0
C602 C 0.47929 0.79983 0.34321 0.0
C603 C 0.49818 0.83094 0.34358 0.0
H604 H 0.00366 0.33535 0.35296 0.0
H605 H 0.03444 0.29012 0.4236 0.0
H606 H 0.9654 0.28581 0.34631 0.0
H607 H -0.00411 0.24081 0.41699 0.0
H608 H 0.96667 0.13732 0.37589 0.0
H609 H -0.00245 0.19075 0.3867 0.0
H610 H 0.9141 0.25501 0.36215 0.0
H611 H 0.88299 0.20125 0.3511 0.0
C612 C 0.00188 0.31515 0.36726 0.0
C613 C 0.02242 0.3164 0.38866 0.0
C614 C 0.97981 0.28689 0.36349 0.0
C615 C 0.97796 0.25929 0.38101 0.0
C616 C -0.00278 0.26148 0.403 0.0
C617 C 0.01917 0.2898 0.40683 0.0
C618 C 0.95479 0.16279 0.37283 0.0
C619 C 0.92242 0.16506 0.36254 0.0
C620 C 0.97239 0.19341 0.37925 0.0
C621 C 0.95814 0.22703 0.37542 0.0
C622 C 0.92571 0.2294 0.36522 0.0
C623 C 0.90792 0.19866 0.35895 0.0
H624 H 0.09034 0.72682 0.93436 0.0
H625 H 0.03431 0.69309 0.86919 0.0
H626 H 0.06072 0.78326 0.93409 0.0
H627 H 0.00467 0.74994 0.86902 0.0
H628 H 0.98041 0.87218 0.86792 0.0
H629 H 0.01185 0.8166 0.86415 0.0
H630 H 0.00115 0.79949 0.94356 0.0
H631 H 0.96982 0.85469 0.94743 0.0
C632 C 0.07214 0.73157 0.91969 0.0
C633 C 0.06463 0.70508 0.90191 0.0
C634 C 0.05492 0.7639 0.9197 0.0
C635 C 0.02991 0.77085 0.90182 0.0
C636 C 0.02377 0.74536 0.88308 0.0
C637 C 0.04082 0.71277 0.88318 0.0
C638 C 0.98448 0.85641 0.88455 0.0
C639 C 0.97258 0.8681 0.90801 0.0
C640 C 0.00249 0.82454 0.88236 0.0
C641 C 0.0094 0.80387 0.9036 0.0
C642 C -0.00321 0.81512 0.92689 0.0
C643 C 0.97852 0.84667 0.92906 0.0
H644 H 0.40698 0.28637 0.94024 0.0
H645 H 0.4599 0.31885 0.8736 0.0
H646 H 0.43515 0.22907 0.93857 0.0
H647 H 0.48822 0.26141 0.87211 0.0
H648 H 0.51066 0.13994 0.86814 0.0
H649 H 0.48016 0.19618 0.86639 0.0
H650 H 0.49362 0.20966 0.94604 0.0
H651 H 0.52387 0.15364 0.94791 0.0
C652 C 0.42419 0.28118 0.92498 0.0
C653 C 0.43124 0.3075 0.90715 0.0
C654 C 0.44062 0.24838 0.92419 0.0
C655 C 0.46438 0.24086 0.90546 0.0
C656 C 0.47007 0.26634 0.8868 0.0
C657 C 0.45379 0.29931 0.88767 0.0
C658 C 0.5074 0.15503 0.88526 0.0
C659 C 0.51974 0.14206 0.90819 0.0
C660 C 0.4899 0.1873 0.88422 0.0
C661 C 0.48404 0.20719 0.90612 0.0
C662 C 0.4971 0.19466 0.92889 0.0
C663 C 0.51478 0.16264 0.92991 0.0
H664 H 0.41066 0.21009 0.58155 0.0
H665 H 0.4993 0.15558 0.60764 0.0
H666 H 0.43909 0.26709 0.58734 0.0
H667 H 0.52796 0.21263 0.61266 0.0
H668 H 0.56993 0.31917 0.57243 0.0
H669 H 0.54342 0.26081 0.5759 0.0
H670 H 0.46871 0.30486 0.62541 0.0
H671 H 0.49567 0.36302 0.62262 0.0
C672 C 0.43601 0.21031 0.58885 0.0
C673 C 0.45269 0.17833 0.59418 0.0
C674 C 0.45224 0.24291 0.5922 0.0
C675 C 0.48572 0.24417 0.60036 0.0
C676 C 0.50215 0.21233 0.60632 0.0
C677 C 0.48565 0.17975 0.60358 0.0
C678 C 0.54827 0.31626 0.58446 0.0
C679 C 0.53495 0.34574 0.59726 0.0
C680 C 0.53316 0.28287 0.58648 0.0
C681 C 0.50399 0.27845 0.60086 0.0
C682 C 0.49116 0.30762 0.61419 0.0
C683 C 0.50674 0.34082 0.61267 0.0
H684 H -0.00434 0.86095 0.61137 0.0
H685 H 0.08264 0.80704 0.58161 0.0
H686 H 0.96676 0.80395 0.61533 0.0
H687 H 0.05399 0.75002 0.58637 0.0
H688 H -0.00304 0.65346 0.62102 0.0
H689 H 0.02504 0.711 0.62448 0.0
H690 H 0.94985 0.75773 0.57678 0.0
H691 H 0.9222 0.69997 0.5726 0.0
C692 C 0.00895 0.83689 0.60632 0.0
C693 C 0.04147 0.83849 0.59617 0.0
C694 C 0.99229 0.80436 0.60843 0.0
C695 C 0.00815 0.77273 0.60109 0.0
C696 C 0.0413 0.77406 0.59226 0.0
C697 C 0.05765 0.80666 0.58953 0.0
C698 C 0.98609 0.6761 0.61157 0.0
C699 C 0.95733 0.67215 0.59651 0.0
C700 C 0.00228 0.70893 0.61347 0.0
C701 C 0.98956 0.73868 0.60092 0.0
C702 C 0.96001 0.73518 0.58677 0.0
C703 C 0.94427 0.70215 0.58434 0.0
H704 H 0.04976 1.00276 0.9286 0.0
H705 H 0.95701 0.02045 0.96853 0.0
H706 H 0.08134 0.01844 0.96645 0.0
H707 H 0.98847 0.03619 0.00605 0.0
H708 H 0.11874 0.00577 0.04896 0.0
H709 H 0.08911 0.99228 0.01017 0.0
H710 H 0.02774 0.08564 0.0202 0.0
H711 H 0.05751 0.09943 0.05912 0.0
C712 C 0.03615 0.00994 0.94542 0.0
C713 C 0.00093 0.01022 0.94561 0.0
C714 C 0.05419 0.01884 0.96705 0.0
C715 C 0.03731 0.0287 0.98913 0.0
C716 C 0.00213 0.0291 0.98924 0.0
C717 C 0.98415 0.01977 0.96778 0.0
C718 C 0.09896 0.02351 0.04293 0.0
C719 C 0.09038 0.05363 0.05723 0.0
C720 C 0.08219 0.01587 0.0206 0.0
C721 C 0.05616 0.03789 0.01219 0.0
C722 C 0.0476 0.06809 0.02636 0.0
C723 C 0.06471 0.07604 0.04857 0.0
H724 H 0.43868 0.00866 0.92008 0.0
H725 H 0.5286 0.98829 0.96292 0.0
H726 H 0.40456 0.99182 0.95628 0.0
H727 H 0.49467 0.9716 -0.00121 0.0
H728 H 0.42391 0.90507 0.04667 0.0
H729 H 0.45529 0.92154 0.00933 0.0
H730 H 0.39316 0.01454 0.00067 0.0
H731 H 0.36165 0.99822 0.03804 0.0
C732 C 0.45113 1.00072 0.93719 0.0
C733 C 0.48631 0.99986 0.93866 0.0
C734 C 0.43163 0.99121 0.9579 0.0
C735 C 0.44701 0.9802 0.98027 0.0
C736 C 0.48215 0.97954 0.9817 0.0
C737 C 0.50156 0.9894 0.96118 0.0
C738 C 0.41678 0.92894 0.03677 0.0
C739 C 0.39036 0.9504 0.04545 0.0
C740 C 0.43487 0.93843 0.01545 0.0
C741 C 0.42672 0.96938 0.00218 0.0
C742 C 0.39983 0.99043 0.01046 0.0
C743 C 0.38196 0.98116 0.03195 0.0
H744 H 0.52195 0.02979 0.53452 0.0
H745 H 0.4308 0.0801 0.5089 0.0
H746 H 0.53844 0.019 0.49114 0.0
H747 H 0.44787 0.0699 0.46544 0.0
H748 H 0.52083 0.07006 0.39261 0.0
H749 H 0.50172 0.08689 0.43467 0.0
H750 H 0.50582 0.97726 0.45722 0.0
H751 H 0.52409 0.96017 0.41538 0.0
C752 C 0.50577 0.03923 0.51967 0.0
C753 C 0.47498 0.05564 0.52515 0.0
C754 C 0.51513 0.03284 0.49488 0.0
C755 C 0.49422 0.04337 0.4751 0.0
C756 C 0.46435 0.06157 0.48044 0.0
C757 C 0.45463 0.06735 0.50529 0.0
C758 C 0.51711 0.0495 0.40643 0.0
C759 C 0.52406 0.01378 0.40064 0.0
C760 C 0.50624 0.05917 0.43043 0.0
C761 C 0.50283 0.03337 0.44912 0.0
C762 C 0.50868 0.99764 0.44314 0.0
C763 C 0.51887 0.98789 0.41911 0.0
H764 H 0.96343 0.97638 0.54165 0.0
H765 H 0.05732 0.93732 0.51194 0.0
H766 H 0.9414 0.98153 0.49919 0.0
H767 H 0.03477 0.94188 0.46943 0.0
H768 H 0.95777 0.92859 0.39999 0.0
H769 H 0.98146 0.9162 0.44154 0.0
H770 H 0.96449 0.02503 0.4633 0.0
H771 H 0.94164 0.03777 0.42211 0.0
C772 C 0.97916 0.96825 0.52613 0.0
C773 C 0.01221 0.95665 0.53017 0.0
C774 C 0.96656 0.97133 0.50185 0.0
C775 C 0.98653 0.9623 0.48116 0.0
C776 C 0.01892 0.94889 0.48515 0.0
C777 C 0.03178 0.94638 0.50947 0.0
C778 C 0.95946 0.94992 0.41357 0.0
C779 C 0.94775 0.98414 0.40772 0.0
C780 C 0.97298 0.9428 0.43726 0.0
C781 C 0.97431 0.9696 0.45557 0.0
C782 C 0.96332 0.00385 0.44956 0.0
C783 C 0.95046 0.01113 0.42587 0.0
H784 H 0.49518 0.50064 0.08793 0.0
H785 H 0.55802 0.4072 0.08496 0.0
H786 H 0.46988 0.48399 0.04814 0.0
H787 H 0.53249 0.39053 0.04499 0.0
H788 H 0.51756 0.41555 0.95883 0.0
H789 H 0.53655 0.41878 0.00225 0.0
H790 H 0.43487 0.43846 0.02638 0.0
H791 H 0.41587 0.43552 0.98307 0.0
C792 C 0.50315 0.47619 0.07902 0.0
C793 C 0.52881 0.45541 0.08951 0.0
C794 C 0.48852 0.46655 0.05627 0.0
C795 C 0.4994 0.43608 0.0434 0.0
C796 C 0.52388 0.41433 0.05443 0.0
C797 C 0.53829 0.42377 0.07739 0.0
C798 C 0.4992 0.42004 0.97343 0.0
C799 C 0.46528 0.42558 0.9675 0.0
C800 C 0.51004 0.42164 -0.00169 0.0
C801 C 0.48718 0.42904 0.01766 0.0
C802 C 0.45306 0.43303 0.01181 0.0
C803 C 0.4422 0.4312 0.987 0.0
H804 H 0.94009 0.6055 0.07935 0.0
H805 H 0.00263 0.51182 0.08149 0.0
H806 H 0.96578 0.6225 0.03962 0.0
H807 H 0.02818 0.52888 0.04197 0.0
H808 H 0.98086 0.59669 0.95316 0.0
H809 H 0.96165 0.59358 -0.0035 0.0
H810 H 0.06341 0.57551 0.02109 0.0
H811 H 0.08266 0.57844 0.97788 0.0
C812 C 0.95982 0.58897 0.07166 0.0
C813 C 0.96918 0.55717 0.08344 0.0
C814 C 0.97432 0.5986 0.04886 0.0
C815 C -0.00122 0.5769 0.0377 0.0
C816 C 0.00955 0.54626 0.05024 0.0
C817 C -0.00521 0.53639 0.07281 0.0
C818 C -0.00082 0.59262 0.96785 0.0
C819 C 0.0332 0.5875 0.96209 0.0
C820 C 0.98823 0.59109 0.99267 0.0
C821 C 0.01107 0.58414 0.0121 0.0
C822 C 0.04527 0.58062 0.00643 0.0
C823 C 0.05625 0.58243 0.98168 0.0
H824 H 0.94612 0.5308 0.5266 0.0
H825 H 0.04085 0.53466 0.56591 0.0
H826 H 0.975 0.51292 0.48847 0.0
H827 H 0.06979 0.51661 0.52752 0.0
H828 H 0.10948 0.51591 0.44577 0.0
H829 H 0.08163 0.53827 0.48333 0.0
H830 H 0.00583 0.45728 0.47573 0.0
H831 H 0.03352 0.43481 0.43819 0.0
C832 C 0.97316 0.52827 0.52705 0.0
C833 C 0.99121 0.53407 0.54931 0.0
C834 C 0.98964 0.51775 0.50523 0.0
C835 C 0.02455 0.51305 0.50512 0.0
C836 C 0.04284 0.52016 0.52709 0.0
C837 C 0.02628 0.53041 0.54904 0.0
C838 C 0.08684 0.50288 0.45206 0.0
C839 C 0.07369 0.47358 0.43894 0.0
C840 C 0.07104 0.51561 0.47364 0.0
C841 C 0.04156 0.49958 0.48236 0.0
C842 C 0.02834 0.47038 0.46924 0.0
C843 C 0.04432 0.4574 0.44783 0.0
H844 H 0.44483 0.47164 0.56809 0.0
H845 H 0.53702 0.48754 0.52718 0.0
H846 H 0.41273 0.48356 0.52992 0.0
H847 H 0.50497 0.49954 0.4893 0.0
H848 H 0.37329 0.47103 0.44786 0.0
H849 H 0.40419 0.45645 0.48596 0.0
H850 H 0.46542 0.54973 0.47639 0.0
H851 H 0.43454 0.56455 0.43835 0.0
C852 C 0.45821 0.47737 0.55095 0.0
C853 C 0.49342 0.4787 0.55063 0.0
C854 C 0.43987 0.4841 0.52914 0.0
C855 C 0.45643 0.49275 0.50678 0.0
C856 C 0.49161 0.49337 0.50638 0.0
C857 C 0.50992 0.48622 0.52804 0.0
C858 C 0.39333 0.48846 0.45388 0.0
C859 C 0.40152 0.51893 0.44004 0.0
C860 C 0.41085 0.48018 0.47574 0.0
C861 C 0.43721 0.50189 0.484 0.0
C862 C 0.44538 0.53237 0.47025 0.0
C863 C 0.42758 0.54094 0.44858 0.0
loop_
_geom_bond_atom_site_label_1
_geom_bond_atom_site_label_2
_geom_bond_distance
_geom_bond_site_symmetry_2
_ccdc_geom_bond_type
Mg0 O1 2.028 . S
Mg0 O7 1.986 . S
Mg0 O9 2.114 . S
Mg0 O10 2.251 . S
Mg0 O13 2.010 . S
O1 Mg0 2.028 . S
O1 C4 1.250 . S
O2 Mg3 2.028 . S
O2 C4 1.248 1_565 S
Mg3 O2 2.028 . S
Mg3 O8 2.032 . S
Mg3 O10 2.079 1_565 S
C4 O1 1.250 . S
C4 O2 1.248 1_545 S
C5 O6 1.264 . S
C5 O13 1.249 . S
O6 C5 1.264 . S
O7 Mg0 1.986 . S
O7 C11 1.246 . S
O8 Mg3 2.032 . S
O8 C11 1.259 1_565 S
O9 Mg0 2.114 . S
O9 C12 1.252 . S
O10 Mg0 2.251 . S
O10 Mg3 2.079 1_545 S
O10 C12 1.273 . S
C11 O7 1.246 . S
C11 O8 1.259 1_545 S
C12 O9 1.252 . S
C12 O10 1.273 . S
O13 Mg0 2.010 . S
O13 C5 1.249 . S
Mg14 O15 2.028 . S
Mg14 O21 1.986 . S
Mg14 O23 2.114 . S
Mg14 O24 2.251 . S
Mg14 O27 2.010 . S
O15 Mg14 2.028 . S
O15 C18 1.250 . S
O16 Mg17 2.028 . S
O16 C18 1.248 1_545 S
Mg17 O16 2.028 . S
Mg17 O22 2.032 . S
Mg17 O24 2.079 1_545 S
C18 O15 1.250 . S
C18 O16 1.248 1_565 S
C19 O20 1.264 . S
C19 O27 1.249 . S
O20 C19 1.264 . S
O21 Mg14 1.986 . S
O21 C25 1.246 . S
O22 Mg17 2.032 . S
O22 C25 1.259 1_545 S
O23 Mg14 2.114 . S
O23 C26 1.252 . S
O24 Mg14 2.251 . S
O24 Mg17 2.079 1_565 S
O24 C26 1.273 . S
C25 O21 1.246 . S
C25 O22 1.259 1_565 S
C26 O23 1.252 . S
C26 O24 1.273 . S
O27 Mg14 2.010 . S
O27 C19 1.249 . S
Mg28 O29 2.028 . S
Mg28 O35 1.986 . S
Mg28 O37 2.114 . S
Mg28 O38 2.251 . S
Mg28 O41 2.010 . S
O29 Mg28 2.028 . S
O29 C32 1.250 . S
O30 Mg31 2.028 . S
O30 C32 1.248 1_545 S
Mg31 O30 2.028 . S
Mg31 O36 2.032 . S
Mg31 O38 2.079 1_545 S
C32 O29 1.250 . S
C32 O30 1.248 1_565 S
C33 O34 1.264 . S
C33 O41 1.249 . S
O34 C33 1.264 . S
O35 Mg28 1.986 . S
O35 C39 1.246 . S
O36 Mg31 2.032 . S
O36 C39 1.259 1_545 S
O37 Mg28 2.114 . S
O37 C40 1.252 . S
O38 Mg28 2.251 . S
O38 Mg31 2.079 1_565 S
O38 C40 1.273 . S
C39 O35 1.246 . S
C39 O36 1.259 1_565 S
C40 O37 1.252 . S
C40 O38 1.273 . S
O41 Mg28 2.010 . S
O41 C33 1.249 . S
Mg42 O43 2.028 . S
Mg42 O49 1.986 . S
Mg42 O51 2.114 . S
Mg42 O52 2.251 . S
Mg42 O55 2.010 . S
O43 Mg42 2.028 . S
O43 C46 1.250 . S
O44 Mg45 2.028 . S
O44 C46 1.248 1_565 S
Mg45 O44 2.028 . S
Mg45 O50 2.032 . S
Mg45 O52 2.079 1_565 S
C46 O43 1.250 . S
C46 O44 1.248 1_545 S
C47 O48 1.264 . S
C47 O55 1.249 . S
O48 C47 1.264 . S
O49 Mg42 1.986 . S
O49 C53 1.246 . S
O50 Mg45 2.032 . S
O50 C53 1.259 1_565 S
O51 Mg42 2.114 . S
O51 C54 1.252 . S
O52 Mg42 2.251 . S
O52 Mg45 2.079 1_545 S
O52 C54 1.273 . S
C53 O49 1.246 . S
C53 O50 1.259 1_545 S
C54 O51 1.252 . S
C54 O52 1.273 . S
O55 Mg42 2.010 . S
O55 C47 1.249 . S
Mg56 O57 2.028 . S
Mg56 O63 1.986 . S
Mg56 O65 2.114 . S
Mg56 O66 2.251 . S
Mg56 O69 2.010 . S
O57 Mg56 2.028 . S
O57 C60 1.250 . S
O58 Mg59 2.028 . S
O58 C60 1.248 . S
Mg59 O58 2.028 . S
Mg59 O64 2.032 . S
Mg59 O66 2.079 . S
C60 O57 1.250 . S
C60 O58 1.248 . S
C61 O62 1.252 1_565 S
C61 O69 1.249 . S
O62 C61 1.252 1_545 S
O63 Mg56 1.986 . S
O63 C67 1.246 . S
O64 Mg59 2.032 . S
O64 C67 1.259 . S
O65 Mg56 2.114 . S
O65 C68 1.252 . S
O66 Mg56 2.251 . S
O66 Mg59 2.079 . S
O66 C68 1.273 . S
C67 O63 1.246 . S
C67 O64 1.259 . S
C68 O65 1.252 . S
C68 O66 1.273 . S
O69 Mg56 2.010 . S
O69 C61 1.249 . S
Mg70 O71 2.028 . S
Mg70 O77 1.986 . S
Mg70 O79 2.114 . S
Mg70 O80 2.251 . S
Mg70 O83 2.010 . S
O71 Mg70 2.028 . S
O71 C74 1.250 . S
O72 Mg73 2.028 . S
O72 C74 1.248 . S
Mg73 O72 2.028 . S
Mg73 O78 2.032 . S
Mg73 O80 2.079 . S
C74 O71 1.250 . S
C74 O72 1.248 . S
C75 O76 1.252 1_545 S
C75 O83 1.249 . S
O76 C75 1.252 1_565 S
O77 Mg70 1.986 . S
O77 C81 1.246 . S
O78 Mg73 2.032 . S
O78 C81 1.259 . S
O79 Mg70 2.114 . S
O79 C82 1.252 . S
O80 Mg70 2.251 . S
O80 Mg73 2.079 . S
O80 C82 1.273 . S
C81 O77 1.246 . S
C81 O78 1.259 . S
C82 O79 1.252 . S
C82 O80 1.273 . S
O83 Mg70 2.010 . S
O83 C75 1.249 . S
Mg84 O85 2.028 . S
Mg84 O91 1.986 . S
Mg84 O93 2.114 . S
Mg84 O94 2.251 . S
Mg84 O97 2.010 . S
O85 Mg84 2.028 . S
O85 C88 1.250 . S
O86 Mg87 2.028 . S
O86 C88 1.248 . S
Mg87 O86 2.028 . S
Mg87 O92 2.032 . S
Mg87 O94 2.079 . S
C88 O85 1.250 . S
C88 O86 1.248 . S
C89 O90 1.252 1_545 S
C89 O97 1.249 . S
O90 C89 1.252 1_565 S
O91 Mg84 1.986 . S
O91 C95 1.246 . S
O92 Mg87 2.032 . S
O92 C95 1.259 . S
O93 Mg84 2.114 . S
O93 C96 1.252 . S
O94 Mg84 2.251 . S
O94 Mg87 2.079 . S
O94 C96 1.273 . S
C95 O91 1.246 . S
C95 O92 1.259 . S
C96 O93 1.252 . S
C96 O94 1.273 . S
O97 Mg84 2.010 . S
O97 C89 1.249 . S
Mg98 O99 2.028 . S
Mg98 O105 1.986 . S
Mg98 O107 2.114 . S
Mg98 O108 2.251 . S
Mg98 O111 2.010 . S
O99 Mg98 2.028 . S
O99 C102 1.250 . S
O100 Mg101 2.028 . S
O100 C102 1.248 . S
Mg101 O100 2.028 . S
Mg101 O106 2.032 . S
Mg101 O108 2.079 . S
C102 O99 1.250 . S
C102 O100 1.248 . S
C103 O104 1.252 1_565 S
C103 O111 1.249 . S
O104 C103 1.252 1_545 S
O105 Mg98 1.986 . S
O105 C109 1.246 . S
O106 Mg101 2.032 . S
O106 C109 1.259 . S
O107 Mg98 2.114 . S
O107 C110 1.252 . S
O108 Mg98 2.251 . S
O108 Mg101 2.079 . S
O108 C110 1.273 . S
C109 O105 1.246 . S
C109 O106 1.259 . S
C110 O107 1.252 . S
C110 O108 1.273 . S
O111 Mg98 2.010 . S
O111 C103 1.249 . S
Mg112 O113 2.028 . S
Mg112 O119 1.986 . S
Mg112 O121 2.114 . S
Mg112 O122 2.251 . S
Mg112 O125 2.010 . S
O113 Mg112 2.028 . S
O113 C116 1.250 . S
O114 Mg115 2.028 . S
O114 C116 1.248 . S
Mg115 O114 2.028 . S
Mg115 O120 2.032 . S
Mg115 O122 2.079 . S
C116 O113 1.250 . S
C116 O114 1.248 . S
C117 O118 1.264 . S
C117 O125 1.249 . S
O118 C117 1.264 . S
O119 Mg112 1.986 . S
O119 C123 1.246 . S
O120 Mg115 2.032 . S
O120 C123 1.259 . S
O121 Mg112 2.114 . S
O121 C124 1.252 . S
O122 Mg112 2.251 . S
O122 Mg115 2.079 . S
O122 C124 1.273 . S
C123 O119 1.246 . S
C123 O120 1.259 . S
C124 O121 1.252 . S
C124 O122 1.273 . S
O125 Mg112 2.010 . S
O125 C117 1.249 . S
Mg126 O127 2.028 . S
Mg126 O133 1.986 . S
Mg126 O135 2.114 . S
Mg126 O136 2.251 . S
Mg126 O139 2.010 . S
O127 Mg126 2.028 . S
O127 C130 1.250 . S
O128 Mg129 2.028 . S
O128 C130 1.248 . S
Mg129 O128 2.028 . S
Mg129 O134 2.032 . S
Mg129 O136 2.079 . S
C130 O127 1.250 . S
C130 O128 1.248 . S
C131 O132 1.264 . S
C131 O139 1.249 . S
O132 C131 1.264 . S
O133 Mg126 1.986 . S
O133 C137 1.246 . S
O134 Mg129 2.032 . S
O134 C137 1.259 . S
O135 Mg126 2.114 . S
O135 C138 1.252 . S
O136 Mg126 2.251 . S
O136 Mg129 2.079 . S
O136 C138 1.273 . S
C137 O133 1.246 . S
C137 O134 1.259 . S
C138 O135 1.252 . S
C138 O136 1.273 . S
O139 Mg126 2.010 . S
O139 C131 1.249 . S
Mg140 O141 2.028 . S
Mg140 O147 1.986 . S
Mg140 O149 2.114 . S
Mg140 O150 2.251 . S
Mg140 O153 2.010 . S
O141 Mg140 2.028 . S
O141 C144 1.250 . S
O142 Mg143 2.028 . S
O142 C144 1.248 . S
Mg143 O142 2.028 . S
Mg143 O148 2.032 . S
Mg143 O150 2.079 . S
C144 O141 1.250 . S
C144 O142 1.248 . S
C145 O146 1.264 . S
C145 O153 1.249 . S
O146 C145 1.264 . S
O147 Mg140 1.986 . S
O147 C151 1.246 . S
O148 Mg143 2.032 . S
O148 C151 1.259 . S
O149 Mg140 2.114 . S
O149 C152 1.252 . S
O150 Mg140 2.251 . S
O150 Mg143 2.079 . S
O150 C152 1.273 . S
C151 O147 1.246 . S
C151 O148 1.259 . S
C152 O149 1.252 . S
C152 O150 1.273 . S
O153 Mg140 2.010 . S
O153 C145 1.249 . S
Mg154 O155 2.028 . S
Mg154 O161 1.986 . S
Mg154 O163 2.114 . S
Mg154 O164 2.251 . S
Mg154 O167 2.010 . S
O155 Mg154 2.028 . S
O155 C158 1.250 . S
O156 Mg157 2.028 . S
O156 C158 1.248 . S
Mg157 O156 2.028 . S
Mg157 O162 2.032 . S
Mg157 O164 2.079 . S
C158 O155 1.250 . S
C158 O156 1.248 . S
C159 O160 1.264 . S
C159 O167 1.249 . S
O160 C159 1.264 . S
O161 Mg154 1.986 . S
O161 C165 1.246 . S
O162 Mg157 2.032 . S
O162 C165 1.259 . S
O163 Mg154 2.114 . S
O163 C166 1.252 . S
O164 Mg154 2.251 . S
O164 Mg157 2.079 . S
O164 C166 1.273 . S
C165 O161 1.246 . S
C165 O162 1.259 . S
C166 O163 1.252 . S
C166 O164 1.273 . S
O167 Mg154 2.010 . S
O167 C159 1.249 . S
Mg168 O169 2.028 . S
Mg168 O175 1.986 . S
Mg168 O177 2.114 . S
Mg168 O178 2.251 . S
Mg168 O181 2.010 . S
O169 Mg168 2.028 . S
O169 C172 1.250 . S
O170 Mg171 2.028 . S
O170 C172 1.248 . S
Mg171 O170 2.028 . S
Mg171 O176 2.032 . S
Mg171 O178 2.079 . S
C172 O169 1.250 . S
C172 O170 1.248 . S
C173 O174 1.264 . S
C173 O181 1.249 . S
O174 C173 1.264 . S
O175 Mg168 1.986 . S
O175 C179 1.246 . S
O176 Mg171 2.032 . S
O176 C179 1.259 . S
O177 Mg168 2.114 . S
O177 C180 1.252 . S
O178 Mg168 2.251 . S
O178 Mg171 2.079 . S
O178 C180 1.273 . S
C179 O175 1.246 . S
C179 O176 1.259 . S
C180 O177 1.252 . S
C180 O178 1.273 . S
O181 Mg168 2.010 . S
O181 C173 1.249 . S
Mg182 O183 2.028 . S
Mg182 O189 1.986 . S
Mg182 O191 2.114 . S
Mg182 O192 2.251 . S
Mg182 O195 2.010 . S
O183 Mg182 2.028 . S
O183 C186 1.250 . S
O184 Mg185 2.028 . S
O184 C186 1.248 . S
Mg185 O184 2.028 . S
Mg185 O190 2.032 . S
Mg185 O192 2.079 . S
C186 O183 1.250 . S
C186 O184 1.248 . S
C187 O188 1.264 . S
C187 O195 1.249 . S
O188 C187 1.264 . S
O189 Mg182 1.986 . S
O189 C193 1.246 . S
O190 Mg185 2.032 . S
O190 C193 1.259 . S
O191 Mg182 2.114 . S
O191 C194 1.252 . S
O192 Mg182 2.251 . S
O192 Mg185 2.079 . S
O192 C194 1.273 . S
C193 O189 1.246 . S
C193 O190 1.259 . S
C194 O191 1.252 . S
C194 O192 1.273 . S
O195 Mg182 2.010 . S
O195 C187 1.249 . S
Mg196 O197 2.028 . S
Mg196 O203 1.986 . S
Mg196 O205 2.114 . S
Mg196 O206 2.251 . S
Mg196 O209 2.010 . S
O197 Mg196 2.028 . S
O197 C200 1.250 . S
O198 Mg199 2.028 . S
O198 C200 1.248 . S
Mg199 O198 2.028 . S
Mg199 O204 2.032 . S
Mg199 O206 2.079 . S
C200 O197 1.250 . S
C200 O198 1.248 . S
C201 O202 1.264 . S
C201 O209 1.249 . S
O202 C201 1.264 . S
O203 Mg196 1.986 . S
O203 C207 1.246 . S
O204 Mg199 2.032 . S
O204 C207 1.259 . S
O205 Mg196 2.114 . S
O205 C208 1.252 . S
O206 Mg196 2.251 . S
O206 Mg199 2.079 . S
O206 C208 1.273 . S
C207 O203 1.246 . S
C207 O204 1.259 . S
C208 O205 1.252 . S
C208 O206 1.273 . S
O209 Mg196 2.010 . S
O209 C201 1.249 . S
Mg210 O211 2.028 . S
Mg210 O217 1.986 . S
Mg210 O219 2.114 . S
Mg210 O220 2.251 . S
Mg210 O223 2.010 . S
O211 Mg210 2.028 . S
O211 C214 1.250 . S
O212 Mg213 2.028 . S
O212 C214 1.248 . S
Mg213 O212 2.028 . S
Mg213 O218 2.032 . S
Mg213 O220 2.079 . S
C214 O211 1.250 . S
C214 O212 1.248 . S
C215 O216 1.264 . S
C215 O223 1.249 . S
O216 C215 1.264 . S
O217 Mg210 1.986 . S
O217 C221 1.246 . S
O218 Mg213 2.032 . S
O218 C221 1.259 . S
O219 Mg210 2.114 . S
O219 C222 1.252 . S
O220 Mg210 2.251 . S
O220 Mg213 2.079 . S
O220 C222 1.273 . S
C221 O217 1.246 . S
C221 O218 1.259 . S
C222 O219 1.252 . S
C222 O220 1.273 . S
O223 Mg210 2.010 . S
O223 C215 1.249 . S
H224 C232 0.960 . S
H225 C237 0.950 . S
H226 C234 0.950 . S
H227 C236 0.950 . S
H228 C238 0.960 . S
H229 C240 0.950 . S
H230 C242 0.950 . S
H231 C243 0.950 . S
C232 H224 0.960 . S
C232 C233 1.369 1_545 S
C232 C234 1.398 . S
C233 C232 1.369 1_565 S
C233 C237 1.393 . S
C234 H226 0.950 . S
C234 C232 1.398 . S
C234 C235 1.400 1_545 S
C235 C234 1.400 1_565 S
C235 C236 1.398 . S
C235 C241 1.491 1_565 S
C236 H227 0.950 . S
C236 C235 1.398 . S
C236 C237 1.391 . S
C237 H225 0.950 . S
C237 C233 1.393 . S
C237 C236 1.391 . S
C238 H228 0.960 . S
C238 C239 1.370 1_565 S
C238 C240 1.398 . S
C239 C238 1.370 1_545 S
C239 C243 1.393 . S
C240 H229 0.950 . S
C240 C238 1.398 . S
C240 C241 1.400 1_565 S
C241 C235 1.491 1_545 S
C241 C240 1.400 1_545 S
C241 C242 1.398 . S
C242 H230 0.950 . S
C242 C241 1.398 . S
C242 C243 1.391 . S
C243 H231 0.950 . S
C243 C239 1.393 . S
C243 C242 1.391 . S
H244 C252 0.950 . S
H245 C257 0.950 . S
H246 C254 0.950 . S
H247 C256 0.950 . S
H248 C258 0.950 . S
H249 C260 0.950 . S
H250 C262 0.950 . S
H251 C263 0.950 . S
C252 H244 0.950 . S
C252 C253 1.386 . S
C252 C254 1.391 . S
C253 C252 1.386 . S
C253 C257 1.393 1_565 S
C254 H246 0.950 . S
C254 C252 1.391 . S
C254 C255 1.400 . S
C255 C254 1.400 . S
C255 C256 1.398 1_565 S
C255 C261 1.491 1_565 S
C256 H247 0.950 . S
C256 C255 1.398 1_545 S
C256 C257 1.391 . S
C257 H245 0.950 . S
C257 C253 1.393 1_545 S
C257 C256 1.391 . S
C258 H248 0.950 . S
C258 C259 1.386 . S
C258 C260 1.391 . S
C259 C258 1.386 . S
C259 C263 1.393 1_545 S
C260 H249 0.950 . S
C260 C258 1.391 . S
C260 C261 1.400 . S
C261 C255 1.491 1_545 S
C261 C260 1.400 . S
C261 C262 1.398 1_545 S
C262 H250 0.950 . S
C262 C261 1.398 1_565 S
C262 C263 1.391 . S
C263 H251 0.950 . S
C263 C259 1.393 1_565 S
C263 C262 1.391 . S
H264 C272 0.950 . S
H265 C277 0.950 . S
H266 C274 0.950 . S
H267 C276 0.951 1_545 S
H268 C278 0.950 . S
H269 C280 0.950 . S
H270 C282 0.951 1_565 S
H271 C283 0.950 . S
C272 H264 0.950 . S
C272 C273 1.386 . S
C272 C274 1.391 . S
C273 C272 1.386 . S
C273 C277 1.393 . S
C274 H266 0.950 . S
C274 C272 1.391 . S
C274 C275 1.400 . S
C275 C274 1.400 . S
C275 C276 1.398 . S
C275 C281 1.491 1_565 S
C276 H267 0.951 1_565 S
C276 C275 1.398 . S
C276 C277 1.390 . S
C277 H265 0.950 . S
C277 C273 1.393 . S
C277 C276 1.390 . S
C278 H268 0.950 . S
C278 C279 1.386 . S
C278 C280 1.391 . S
C279 C278 1.386 . S
C279 C283 1.393 . S
C280 H269 0.950 . S
C280 C278 1.391 . S
C280 C281 1.400 . S
C281 C275 1.491 1_545 S
C281 C280 1.400 . S
C281 C282 1.398 . S
C282 H270 0.951 1_545 S
C282 C281 1.398 . S
C282 C283 1.390 . S
C283 H271 0.950 . S
C283 C279 1.393 . S
C283 C282 1.390 . S
H284 C292 0.950 . S
H285 C297 0.950 . S
H286 C294 0.950 . S
H287 C296 0.950 . S
H288 C298 0.950 . S
H289 C300 0.950 . S
H290 C302 0.950 . S
H291 C303 0.950 . S
C292 H284 0.950 . S
C292 C293 1.386 . S
C292 C294 1.391 . S
C293 C292 1.386 . S
C293 C297 1.393 . S
C294 H286 0.950 . S
C294 C292 1.391 . S
C294 C295 1.400 . S
C295 C294 1.400 . S
C295 C296 1.398 . S
C295 C301 1.491 1_565 S
C296 H287 0.950 . S
C296 C295 1.398 . S
C296 C297 1.391 . S
C297 H285 0.950 . S
C297 C293 1.393 . S
C297 C296 1.391 . S
C298 H288 0.950 . S
C298 C299 1.386 . S
C298 C300 1.391 . S
C299 C298 1.386 . S
C299 C303 1.393 . S
C300 H289 0.950 . S
C300 C298 1.391 . S
C300 C301 1.400 . S
C301 C295 1.491 1_545 S
C301 C300 1.400 . S
C301 C302 1.398 . S
C302 H290 0.950 . S
C302 C301 1.398 . S
C302 C303 1.391 . S
C303 H291 0.950 . S
C303 C299 1.393 . S
C303 C302 1.391 . S
H304 C312 0.950 . S
H305 C317 0.950 . S
H306 C314 0.950 . S
H307 C316 0.950 . S
H308 C318 0.950 . S
H309 C320 0.950 . S
H310 C322 0.950 . S
H311 C323 0.950 . S
C312 H304 0.950 . S
C312 C313 1.386 . S
C312 C314 1.391 . S
C313 C312 1.386 . S
C313 C317 1.393 . S
C314 H306 0.950 . S
C314 C312 1.391 . S
C314 C315 1.400 . S
C315 C314 1.400 . S
C315 C316 1.398 . S
C315 C321 1.491 . S
C316 H307 0.950 . S
C316 C315 1.398 . S
C316 C317 1.391 . S
C317 H305 0.950 . S
C317 C313 1.393 . S
C317 C316 1.391 . S
C318 H308 0.950 . S
C318 C319 1.386 . S
C318 C320 1.391 . S
C319 C318 1.386 . S
C319 C323 1.393 . S
C320 H309 0.950 . S
C320 C318 1.391 . S
C320 C321 1.400 . S
C321 C315 1.491 . S
C321 C320 1.400 . S
C321 C322 1.398 . S
C322 H310 0.950 . S
C322 C321 1.398 . S
C322 C323 1.391 . S
C323 H311 0.950 . S
C323 C319 1.393 . S
C323 C322 1.391 . S
H324 C332 0.950 . S
H325 C337 0.950 . S
H326 C334 0.950 . S
H327 C336 0.950 . S
H328 C338 0.950 . S
H329 C340 0.950 . S
H330 C342 0.950 . S
H331 C343 0.950 . S
C332 H324 0.950 . S
C332 C333 1.386 . S
C332 C334 1.391 . S
C333 C332 1.386 . S
C333 C337 1.393 . S
C334 H326 0.950 . S
C334 C332 1.391 . S
C334 C335 1.400 . S
C335 C334 1.400 . S
C335 C336 1.398 . S
C335 C341 1.491 . S
C336 H327 0.950 . S
C336 C335 1.398 . S
C336 C337 1.391 . S
C337 H325 0.950 . S
C337 C333 1.393 . S
C337 C336 1.391 . S
C338 H328 0.950 . S
C338 C339 1.386 . S
C338 C340 1.391 . S
C339 C338 1.386 . S
C339 C343 1.393 . S
C340 H329 0.950 . S
C340 C338 1.391 . S
C340 C341 1.400 . S
C341 C335 1.491 . S
C341 C340 1.400 . S
C341 C342 1.398 . S
C342 H330 0.950 . S
C342 C341 1.398 . S
C342 C343 1.391 . S
C343 H331 0.950 . S
C343 C339 1.393 . S
C343 C342 1.391 . S
H344 C352 0.950 . S
H345 C357 0.950 . S
H346 C354 0.950 . S
H347 C356 0.950 . S
H348 C358 0.950 . S
H349 C360 0.950 . S
H350 C362 0.950 . S
H351 C363 0.950 . S
C352 H344 0.950 . S
C352 C353 1.386 . S
C352 C354 1.391 . S
C353 C352 1.386 . S
C353 C357 1.393 . S
C354 H346 0.950 . S
C354 C352 1.391 . S
C354 C355 1.400 . S
C355 C354 1.400 . S
C355 C356 1.398 . S
C355 C361 1.491 . S
C356 H347 0.950 . S
C356 C355 1.398 . S
C356 C357 1.391 . S
C357 H345 0.950 . S
C357 C353 1.393 . S
C357 C356 1.391 . S
C358 H348 0.950 . S
C358 C359 1.386 . S
C358 C360 1.391 . S
C359 C358 1.386 . S
C359 C363 1.393 . S
C360 H349 0.950 . S
C360 C358 1.391 . S
C360 C361 1.400 . S
C361 C355 1.491 . S
C361 C360 1.400 . S
C361 C362 1.398 . S
C362 H350 0.950 . S
C362 C361 1.398 . S
C362 C363 1.391 . S
C363 H351 0.950 . S
C363 C359 1.393 . S
C363 C362 1.391 . S
H364 C372 0.950 . S
H365 C377 0.950 . S
H366 C374 0.950 . S
H367 C376 0.950 . S
H368 C378 0.950 . S
H369 C380 0.950 . S
H370 C382 0.950 . S
H371 C383 0.950 . S
C372 H364 0.950 . S
C372 C373 1.386 . S
C372 C374 1.391 . S
C373 C372 1.386 . S
C373 C377 1.393 . S
C374 H366 0.950 . S
C374 C372 1.391 . S
C374 C375 1.400 . S
C375 C374 1.400 . S
C375 C376 1.398 . S
C375 C381 1.491 . S
C376 H367 0.950 . S
C376 C375 1.398 . S
C376 C377 1.391 . S
C377 H365 0.950 . S
C377 C373 1.393 . S
C377 C376 1.391 . S
C378 H368 0.950 . S
C378 C379 1.386 . S
C378 C380 1.391 . S
C379 C378 1.386 . S
C379 C383 1.393 . S
C380 H369 0.950 . S
C380 C378 1.391 . S
C380 C381 1.400 . S
C381 C375 1.491 . S
C381 C380 1.400 . S
C381 C382 1.398 . S
C382 H370 0.950 . S
C382 C381 1.398 . S
C382 C383 1.391 . S
C383 H371 0.950 . S
C383 C379 1.393 . S
C383 C382 1.391 . S
H384 C392 0.950 . S
H385 C397 0.950 . S
H386 C394 0.964 . S
H387 C396 0.950 . S
H388 C398 0.950 . S
H389 C400 0.964 . S
H390 C402 0.950 . S
H391 C403 0.950 . S
C392 H384 0.950 . S
C392 C393 1.386 . S
C392 C394 1.383 1_655 S
C393 C392 1.386 . S
C393 C397 1.393 1_545 S
C394 H386 0.964 . S
C394 C392 1.383 1_455 S
C394 C395 1.396 1_455 S
C395 C394 1.396 1_655 S
C395 C396 1.398 1_545 S
C395 C401 1.491 1_655 S
C396 H387 0.950 . S
C396 C395 1.398 1_565 S
C396 C397 1.391 . S
C397 H385 0.950 . S
C397 C393 1.393 1_565 S
C397 C396 1.391 . S
C398 H388 0.950 . S
C398 C399 1.386 1_565 S
C398 C400 1.383 1_455 S
C399 C398 1.386 1_545 S
C399 C403 1.393 . S
C400 H389 0.964 . S
C400 C398 1.383 1_655 S
C400 C401 1.396 1_665 S
C401 C395 1.491 1_455 S
C401 C400 1.396 1_445 S
C401 C402 1.398 . S
C402 H390 0.950 . S
C402 C401 1.398 . S
C402 C403 1.391 . S
C403 H391 0.950 . S
C403 C399 1.393 . S
C403 C402 1.391 . S
H404 C412 0.950 . S
H405 C417 0.950 . S
H406 C414 0.950 . S
H407 C416 0.950 . S
H408 C418 0.950 . S
H409 C420 0.950 . S
H410 C422 0.950 . S
H411 C423 0.950 . S
C412 H404 0.950 . S
C412 C413 1.386 . S
C412 C414 1.391 . S
C413 C412 1.386 . S
C413 C417 1.393 . S
C414 H406 0.950 . S
C414 C412 1.391 . S
C414 C415 1.400 . S
C415 C414 1.400 . S
C415 C416 1.398 . S
C415 C421 1.491 . S
C416 H407 0.950 . S
C416 C415 1.398 . S
C416 C417 1.391 . S
C417 H405 0.950 . S
C417 C413 1.393 . S
C417 C416 1.391 . S
C418 H408 0.950 . S
C418 C419 1.386 . S
C418 C420 1.391 . S
C419 C418 1.386 . S
C419 C423 1.393 . S
C420 H409 0.950 . S
C420 C418 1.391 . S
C420 C421 1.400 . S
C421 C415 1.491 . S
C421 C420 1.400 . S
C421 C422 1.398 . S
C422 H410 0.950 . S
C422 C421 1.398 . S
C422 C423 1.391 . S
C423 H411 0.950 . S
C423 C419 1.393 . S
C423 C422 1.391 . S
H424 C432 0.950 . S
H425 C437 0.950 . S
H426 C434 0.950 . S
H427 C436 0.950 . S
H428 C438 0.950 . S
H429 C440 0.950 . S
H430 C442 0.950 . S
H431 C443 0.950 . S
C432 H424 0.950 . S
C432 C433 1.386 . S
C432 C434 1.391 . S
C433 C432 1.386 . S
C433 C437 1.393 1_455 S
C434 H426 0.950 . S
C434 C432 1.391 . S
C434 C435 1.400 . S
C435 C434 1.400 . S
C435 C436 1.398 1_455 S
C435 C441 1.491 1_455 S
C436 H427 0.950 . S
C436 C435 1.398 1_655 S
C436 C437 1.391 . S
C437 H425 0.950 . S
C437 C433 1.393 1_655 S
C437 C436 1.391 . S
C438 H428 0.950 . S
C438 C439 1.386 . S
C438 C440 1.391 . S
C439 C438 1.386 . S
C439 C443 1.393 1_655 S
C440 H429 0.950 . S
C440 C438 1.391 . S
C440 C441 1.400 . S
C441 C435 1.491 1_655 S
C441 C440 1.400 . S
C441 C442 1.398 1_655 S
C442 H430 0.950 . S
C442 C441 1.398 1_455 S
C442 C443 1.391 . S
C443 H431 0.950 . S
C443 C439 1.393 1_455 S
C443 C442 1.391 . S
H444 C452 0.950 . S
H445 C457 0.950 . S
H446 C454 0.950 . S
H447 C456 0.950 . S
H448 C458 0.950 . S
H449 C460 0.950 . S
H450 C462 0.950 . S
H451 C463 0.950 . S
C452 H444 0.950 . S
C452 C453 1.386 . S
C452 C454 1.391 . S
C453 C452 1.386 . S
C453 C457 1.393 . S
C454 H446 0.950 . S
C454 C452 1.391 . S
C454 C455 1.400 . S
C455 C454 1.400 . S
C455 C456 1.398 . S
C455 C461 1.491 . S
C456 H447 0.950 . S
C456 C455 1.398 . S
C456 C457 1.391 . S
C457 H445 0.950 . S
C457 C453 1.393 . S
C457 C456 1.391 . S
C458 H448 0.950 . S
C458 C459 1.386 . S
C458 C460 1.391 . S
C459 C458 1.386 . S
C459 C463 1.393 . S
C460 H449 0.950 . S
C460 C458 1.391 . S
C460 C461 1.400 . S
C461 C455 1.491 . S
C461 C460 1.400 . S
C461 C462 1.398 . S
C462 H450 0.950 . S
C462 C461 1.398 . S
C462 C463 1.391 . S
C463 H451 0.950 . S
C463 C459 1.393 . S
C463 C462 1.391 . S
H464 C472 0.950 . S
H465 C477 0.950 . S
H466 C474 0.950 . S
H467 C476 0.950 . S
H468 C478 0.950 . S
H469 C480 0.950 . S
H470 C482 0.950 . S
H471 C483 0.950 . S
C472 H464 0.950 . S
C472 C473 1.386 . S
C472 C474 1.391 . S
C473 C472 1.386 . S
C473 C477 1.393 . S
C474 H466 0.950 . S
C474 C472 1.391 . S
C474 C475 1.400 . S
C475 C474 1.400 . S
C475 C476 1.398 . S
C475 C481 1.491 . S
C476 H467 0.950 . S
C476 C475 1.398 . S
C476 C477 1.391 . S
C477 H465 0.950 . S
C477 C473 1.393 . S
C477 C476 1.391 . S
C478 H468 0.950 . S
C478 C479 1.386 . S
C478 C480 1.391 . S
C479 C478 1.386 . S
C479 C483 1.393 . S
C480 H469 0.950 . S
C480 C478 1.391 . S
C480 C481 1.400 . S
C481 C475 1.491 . S
C481 C480 1.400 . S
C481 C482 1.398 . S
C482 H470 0.950 . S
C482 C481 1.398 . S
C482 C483 1.391 . S
C483 H471 0.950 . S
C483 C479 1.393 . S
C483 C482 1.391 . S
H484 C492 0.950 . S
H485 C497 0.950 . S
H486 C494 0.950 . S
H487 C496 0.950 . S
H488 C498 0.950 . S
H489 C500 0.950 . S
H490 C502 0.950 . S
H491 C503 0.950 . S
C492 H484 0.950 . S
C492 C493 1.386 1_655 S
C492 C494 1.391 . S
C493 C492 1.386 1_455 S
C493 C497 1.393 . S
C494 H486 0.950 . S
C494 C492 1.391 . S
C494 C495 1.400 1_655 S
C495 C494 1.400 1_455 S
C495 C496 1.398 . S
C495 C501 1.491 1_455 S
C496 H487 0.950 . S
C496 C495 1.398 . S
C496 C497 1.391 . S
C497 H485 0.950 . S
C497 C493 1.393 . S
C497 C496 1.391 . S
C498 H488 0.950 . S
C498 C499 1.386 1_455 S
C498 C500 1.391 . S
C499 C498 1.386 1_655 S
C499 C503 1.393 . S
C500 H489 0.950 . S
C500 C498 1.391 . S
C500 C501 1.400 1_455 S
C501 C495 1.491 1_655 S
C501 C500 1.400 1_655 S
C501 C502 1.398 . S
C502 H490 0.950 . S
C502 C501 1.398 . S
C502 C503 1.391 . S
C503 H491 0.950 . S
C503 C499 1.393 . S
C503 C502 1.391 . S
H504 C512 0.950 . S
H505 C517 0.950 . S
H506 C514 0.950 . S
H507 C516 0.950 . S
H508 C518 0.950 . S
H509 C520 0.950 . S
H510 C522 0.950 . S
H511 C523 0.950 . S
C512 H504 0.950 . S
C512 C513 1.386 . S
C512 C514 1.391 . S
C513 C512 1.386 . S
C513 C517 1.393 . S
C514 H506 0.950 . S
C514 C512 1.391 . S
C514 C515 1.400 . S
C515 C514 1.400 . S
C515 C516 1.398 . S
C515 C521 1.491 . S
C516 H507 0.950 . S
C516 C515 1.398 . S
C516 C517 1.391 . S
C517 H505 0.950 . S
C517 C513 1.393 . S
C517 C516 1.391 . S
C518 H508 0.950 . S
C518 C519 1.386 . S
C518 C520 1.391 . S
C519 C518 1.386 . S
C519 C523 1.393 . S
C520 H509 0.950 . S
C520 C518 1.391 . S
C520 C521 1.400 . S
C521 C515 1.491 . S
C521 C520 1.400 . S
C521 C522 1.398 . S
C522 H510 0.950 . S
C522 C521 1.398 . S
C522 C523 1.391 . S
C523 H511 0.950 . S
C523 C519 1.393 . S
C523 C522 1.391 . S
H524 C532 0.950 . S
H525 C537 0.950 . S
H526 C534 0.950 . S
H527 C536 0.950 . S
H528 C538 0.950 . S
H529 C540 0.950 . S
H530 C542 0.950 . S
H531 C543 0.950 . S
C532 H524 0.950 . S
C532 C533 1.386 1_655 S
C532 C534 1.391 . S
C533 C532 1.386 1_455 S
C533 C537 1.393 . S
C534 H526 0.950 . S
C534 C532 1.391 . S
C534 C535 1.400 1_655 S
C535 C534 1.400 1_455 S
C535 C536 1.398 . S
C535 C541 1.491 1_455 S
C536 H527 0.950 . S
C536 C535 1.398 . S
C536 C537 1.391 . S
C537 H525 0.950 . S
C537 C533 1.393 . S
C537 C536 1.391 . S
C538 H528 0.950 . S
C538 C539 1.386 1_455 S
C538 C540 1.391 . S
C539 C538 1.386 1_655 S
C539 C543 1.393 . S
C540 H529 0.950 . S
C540 C538 1.391 . S
C540 C541 1.400 1_455 S
C541 C535 1.491 1_655 S
C541 C540 1.400 1_655 S
C541 C542 1.398 . S
C542 H530 0.950 . S
C542 C541 1.398 . S
C542 C543 1.391 . S
C543 H531 0.950 . S
C543 C539 1.393 . S
C543 C542 1.391 . S
H544 C552 0.950 . S
H545 C557 0.960 . S
H546 C554 0.950 . S
H547 C556 0.950 . S
H548 C558 0.950 . S
H549 C560 0.950 . S
H550 C562 0.950 . S
H551 C563 0.960 . S
C552 H544 0.950 . S
C552 C553 1.386 . S
C552 C554 1.391 . S
C553 C552 1.386 . S
C553 C557 1.377 1_455 S
C554 H546 0.950 . S
C554 C552 1.391 . S
C554 C555 1.400 . S
C555 C554 1.400 . S
C555 C556 1.398 1_455 S
C555 C561 1.491 1_455 S
C556 H547 0.950 . S
C556 C555 1.398 1_655 S
C556 C557 1.397 . S
C557 H545 0.960 . S
C557 C553 1.377 1_655 S
C557 C556 1.397 . S
C558 H548 0.950 . S
C558 C559 1.386 . S
C558 C560 1.391 . S
C559 C558 1.386 . S
C559 C563 1.377 1_655 S
C560 H549 0.950 . S
C560 C558 1.391 . S
C560 C561 1.400 . S
C561 C555 1.491 1_655 S
C561 C560 1.400 . S
C561 C562 1.398 1_655 S
C562 H550 0.950 . S
C562 C561 1.398 1_455 S
C562 C563 1.397 . S
C563 H551 0.960 . S
C563 C559 1.377 1_455 S
C563 C562 1.397 . S
H564 C572 0.950 . S
H565 C577 0.950 . S
H566 C574 0.950 . S
H567 C576 0.950 . S
H568 C578 0.950 . S
H569 C580 0.950 . S
H570 C582 0.950 . S
H571 C583 0.950 . S
C572 H564 0.950 . S
C572 C573 1.386 . S
C572 C574 1.391 . S
C573 C572 1.386 . S
C573 C577 1.393 . S
C574 H566 0.950 . S
C574 C572 1.391 . S
C574 C575 1.400 . S
C575 C574 1.400 . S
C575 C576 1.398 . S
C575 C581 1.491 . S
C576 H567 0.950 . S
C576 C575 1.398 . S
C576 C577 1.391 . S
C577 H565 0.950 . S
C577 C573 1.393 . S
C577 C576 1.391 . S
C578 H568 0.950 . S
C578 C579 1.386 . S
C578 C580 1.391 . S
C579 C578 1.386 . S
C579 C583 1.393 . S
C580 H569 0.950 . S
C580 C578 1.391 . S
C580 C581 1.400 . S
C581 C575 1.491 . S
C581 C580 1.400 . S
C581 C582 1.398 . S
C582 H570 0.950 . S
C582 C581 1.398 . S
C582 C583 1.391 . S
C583 H571 0.950 . S
C583 C579 1.393 . S
C583 C582 1.391 . S
H584 C592 0.950 . S
H585 C597 0.950 . S
H586 C594 0.950 . S
H587 C596 0.950 . S
H588 C598 0.950 . S
H589 C600 0.950 . S
H590 C602 0.950 . S
H591 C603 0.950 . S
C592 H584 0.950 . S
C592 C593 1.386 . S
C592 C594 1.391 . S
C593 C592 1.386 . S
C593 C597 1.393 . S
C594 H586 0.950 . S
C594 C592 1.391 . S
C594 C595 1.400 . S
C595 C594 1.400 . S
C595 C596 1.398 . S
C595 C601 1.491 . S
C596 H587 0.950 . S
C596 C595 1.398 . S
C596 C597 1.391 . S
C597 H585 0.950 . S
C597 C593 1.393 . S
C597 C596 1.391 . S
C598 H588 0.950 . S
C598 C599 1.386 . S
C598 C600 1.391 . S
C599 C598 1.386 . S
C599 C603 1.393 . S
C600 H589 0.950 . S
C600 C598 1.391 . S
C600 C601 1.400 . S
C601 C595 1.491 . S
C601 C600 1.400 . S
C601 C602 1.398 . S
C602 H590 0.950 . S
C602 C601 1.398 . S
C602 C603 1.391 . S
C603 H591 0.950 . S
C603 C599 1.393 . S
C603 C602 1.391 . S
H604 C612 0.950 1_655 S
H605 C617 0.950 . S
H606 C614 0.950 . S
H607 C616 0.950 . S
H608 C618 0.950 1_455 S
H609 C620 0.950 . S
H610 C622 0.950 . S
H611 C623 0.950 . S
C612 H604 0.950 1_455 S
C612 C613 1.386 . S
C612 C614 1.391 1_455 S
C613 C612 1.386 . S
C613 C617 1.393 . S
C614 H606 0.950 . S
C614 C612 1.391 1_655 S
C614 C615 1.400 1_655 S
C615 C614 1.400 1_455 S
C615 C616 1.398 . S
C615 C621 1.491 1_455 S
C616 H607 0.950 . S
C616 C615 1.398 . S
C616 C617 1.391 . S
C617 H605 0.950 . S
C617 C613 1.393 . S
C617 C616 1.391 . S
C618 H608 0.950 1_655 S
C618 C619 1.386 . S
C618 C620 1.391 1_655 S
C619 C618 1.386 . S
C619 C623 1.393 . S
C620 H609 0.950 . S
C620 C618 1.391 1_455 S
C620 C621 1.400 1_455 S
C621 C615 1.491 1_655 S
C621 C620 1.400 1_655 S
C621 C622 1.398 . S
C622 H610 0.950 . S
C622 C621 1.398 . S
C622 C623 1.391 . S
C623 H611 0.950 . S
C623 C619 1.393 . S
C623 C622 1.391 . S
H624 C632 0.950 . S
H625 C637 0.950 . S
H626 C634 0.950 . S
H627 C636 0.950 . S
H628 C638 0.950 . S
H629 C640 0.950 . S
H630 C642 0.950 . S
H631 C643 0.950 . S
C632 H624 0.950 . S
C632 C633 1.386 . S
C632 C634 1.391 . S
C633 C632 1.386 . S
C633 C637 1.393 . S
C634 H626 0.950 . S
C634 C632 1.391 . S
C634 C635 1.400 . S
C635 C634 1.400 . S
C635 C636 1.398 . S
C635 C641 1.491 1_455 S
C636 H627 0.950 . S
C636 C635 1.398 . S
C636 C637 1.391 . S
C637 H625 0.950 . S
C637 C633 1.393 . S
C637 C636 1.391 . S
C638 H628 0.950 . S
C638 C639 1.386 . S
C638 C640 1.391 . S
C639 C638 1.386 . S
C639 C643 1.393 . S
C640 H629 0.950 . S
C640 C638 1.391 . S
C640 C641 1.400 . S
C641 C635 1.491 1_655 S
C641 C640 1.400 . S
C641 C642 1.398 . S
C642 H630 0.950 . S
C642 C641 1.398 . S
C642 C643 1.391 . S
C643 H631 0.950 . S
C643 C639 1.393 . S
C643 C642 1.391 . S
H644 C652 0.950 . S
H645 C657 0.950 . S
H646 C654 0.950 . S
H647 C656 0.950 . S
H648 C658 0.950 . S
H649 C660 0.950 . S
H650 C662 0.950 . S
H651 C663 0.950 . S
C652 H644 0.950 . S
C652 C653 1.386 . S
C652 C654 1.391 . S
C653 C652 1.386 . S
C653 C657 1.393 . S
C654 H646 0.950 . S
C654 C652 1.391 . S
C654 C655 1.400 . S
C655 C654 1.400 . S
C655 C656 1.398 . S
C655 C661 1.491 . S
C656 H647 0.950 . S
C656 C655 1.398 . S
C656 C657 1.391 . S
C657 H645 0.950 . S
C657 C653 1.393 . S
C657 C656 1.391 . S
C658 H648 0.950 . S
C658 C659 1.386 . S
C658 C660 1.391 . S
C659 C658 1.386 . S
C659 C663 1.393 . S
C660 H649 0.950 . S
C660 C658 1.391 . S
C660 C661 1.400 . S
C661 C655 1.491 . S
C661 C660 1.400 . S
C661 C662 1.398 . S
C662 H650 0.950 . S
C662 C661 1.398 . S
C662 C663 1.391 . S
C663 H651 0.950 . S
C663 C659 1.393 . S
C663 C662 1.391 . S
H664 C672 0.950 . S
H665 C677 0.950 . S
H666 C674 0.950 . S
H667 C676 0.950 . S
H668 C678 0.950 . S
H669 C680 0.950 . S
H670 C682 0.950 . S
H671 C683 0.950 . S
C672 H664 0.950 . S
C672 C673 1.386 . S
C672 C674 1.391 . S
C673 C672 1.386 . S
C673 C677 1.393 . S
C674 H666 0.950 . S
C674 C672 1.391 . S
C674 C675 1.400 . S
C675 C674 1.400 . S
C675 C676 1.398 . S
C675 C681 1.491 . S
C676 H667 0.950 . S
C676 C675 1.398 . S
C676 C677 1.391 . S
C677 H665 0.950 . S
C677 C673 1.393 . S
C677 C676 1.391 . S
C678 H668 0.950 . S
C678 C679 1.386 . S
C678 C680 1.391 . S
C679 C678 1.386 . S
C679 C683 1.393 . S
C680 H669 0.950 . S
C680 C678 1.391 . S
C680 C681 1.400 . S
C681 C675 1.491 . S
C681 C680 1.400 . S
C681 C682 1.398 . S
C682 H670 0.950 . S
C682 C681 1.398 . S
C682 C683 1.391 . S
C683 H671 0.950 . S
C683 C679 1.393 . S
C683 C682 1.391 . S
H684 C692 0.950 1_655 S
H685 C697 0.950 . S
H686 C694 0.950 . S
H687 C696 0.950 . S
H688 C698 0.950 1_455 S
H689 C700 0.950 . S
H690 C702 0.950 . S
H691 C703 0.950 . S
C692 H684 0.950 1_455 S
C692 C693 1.386 . S
C692 C694 1.391 1_455 S
C693 C692 1.386 . S
C693 C697 1.393 . S
C694 H686 0.950 . S
C694 C692 1.391 1_655 S
C694 C695 1.400 1_655 S
C695 C694 1.400 1_455 S
C695 C696 1.398 . S
C695 C701 1.491 1_455 S
C696 H687 0.950 . S
C696 C695 1.398 . S
C696 C697 1.391 . S
C697 H685 0.950 . S
C697 C693 1.393 . S
C697 C696 1.391 . S
C698 H688 0.950 1_655 S
C698 C699 1.386 . S
C698 C700 1.391 1_655 S
C699 C698 1.386 . S
C699 C703 1.393 . S
C700 H689 0.950 . S
C700 C698 1.391 1_455 S
C700 C701 1.400 1_455 S
C701 C695 1.491 1_655 S
C701 C700 1.400 1_655 S
C701 C702 1.398 . S
C702 H690 0.950 . S
C702 C701 1.398 . S
C702 C703 1.391 . S
C703 H691 0.950 . S
C703 C699 1.393 . S
C703 C702 1.391 . S
H704 C712 0.950 . S
H705 C717 0.950 . S
H706 C714 0.950 1_545 S
H707 C716 0.950 1_554 S
H708 C718 0.950 . S
H709 C720 0.950 . S
H710 C722 0.950 . S
H711 C723 0.950 . S
C712 H704 0.950 . S
C712 C713 1.386 1_455 S
C712 C714 1.391 . S
C713 C712 1.386 1_655 S
C713 C717 1.393 . S
C714 H706 0.950 1_565 S
C714 C712 1.391 . S
C714 C715 1.400 1_455 S
C715 C714 1.400 1_655 S
C715 C716 1.398 . S
C715 C721 1.491 1_656 S
C716 H707 0.950 1_556 S
C716 C715 1.398 . S
C716 C717 1.391 . S
C717 H705 0.950 . S
C717 C713 1.393 . S
C717 C716 1.391 . S
C718 H708 0.950 . S
C718 C719 1.386 1_655 S
C718 C720 1.391 . S
C719 C718 1.386 1_455 S
C719 C723 1.393 1_565 S
C720 H709 0.950 . S
C720 C718 1.391 . S
C720 C721 1.400 1_655 S
C721 C715 1.491 1_454 S
C721 C720 1.400 1_455 S
C721 C722 1.398 1_565 S
C722 H710 0.950 . S
C722 C721 1.398 1_545 S
C722 C723 1.391 . S
C723 H711 0.950 . S
C723 C719 1.393 1_545 S
C723 C722 1.391 . S
H724 C732 0.950 . S
H725 C737 0.950 1_565 S
H726 C734 0.950 1_554 S
H727 C736 0.950 . S
H728 C738 0.950 . S
H729 C740 0.950 . S
H730 C742 0.950 . S
H731 C743 0.950 . S
C732 H724 0.950 . S
C732 C733 1.386 . S
C732 C734 1.391 . S
C733 C732 1.386 . S
C733 C737 1.393 . S
C734 H726 0.950 1_556 S
C734 C732 1.391 . S
C734 C735 1.400 . S
C735 C734 1.400 . S
C735 C736 1.398 1_545 S
C735 C741 1.491 1_556 S
C736 H727 0.950 . S
C736 C735 1.398 1_565 S
C736 C737 1.391 1_565 S
C737 H725 0.950 1_545 S
C737 C733 1.393 . S
C737 C736 1.391 1_545 S
C738 H728 0.950 . S
C738 C739 1.386 1_565 S
C738 C740 1.391 . S
C739 C738 1.386 1_545 S
C739 C743 1.393 . S
C740 H729 0.950 . S
C740 C738 1.391 . S
C740 C741 1.400 1_565 S
C741 C735 1.491 1_554 S
C741 C740 1.400 1_545 S
C741 C742 1.398 . S
C742 H730 0.950 . S
C742 C741 1.398 . S
C742 C743 1.391 . S
C743 H731 0.950 . S
C743 C739 1.393 . S
C743 C742 1.391 . S
H744 C752 0.950 . S
H745 C757 0.950 . S
H746 C754 0.950 . S
H747 C756 0.950 . S
H748 C758 0.950 . S
H749 C760 0.950 . S
H750 C762 0.950 . S
H751 C763 0.950 1_565 S
C752 H744 0.950 . S
C752 C753 1.386 . S
C752 C754 1.391 . S
C753 C752 1.386 . S
C753 C757 1.393 . S
C754 H746 0.950 . S
C754 C752 1.391 . S
C754 C755 1.400 . S
C755 C754 1.400 . S
C755 C756 1.398 . S
C755 C761 1.491 . S
C756 H747 0.950 . S
C756 C755 1.398 . S
C756 C757 1.391 . S
C757 H745 0.950 . S
C757 C753 1.393 . S
C757 C756 1.391 . S
C758 H748 0.950 . S
C758 C759 1.386 . S
C758 C760 1.391 . S
C759 C758 1.386 . S
C759 C763 1.393 . S
C760 H749 0.950 . S
C760 C758 1.391 . S
C760 C761 1.400 . S
C761 C755 1.491 . S
C761 C760 1.400 . S
C761 C762 1.398 . S
C762 H750 0.950 . S
C762 C761 1.398 . S
C762 C763 1.391 . S
C763 H751 0.950 1_545 S
C763 C759 1.393 . S
C763 C762 1.391 . S
H764 C772 0.950 1_655 S
H765 C777 0.950 . S
H766 C774 0.950 . S
H767 C776 0.950 . S
H768 C778 0.950 1_455 S
H769 C780 0.950 . S
H770 C782 0.950 . S
H771 C783 0.950 . S
C772 H764 0.950 1_455 S
C772 C773 1.386 1_545 S
C772 C774 1.391 1_455 S
C773 C772 1.386 1_565 S
C773 C777 1.393 . S
C774 H766 0.950 . S
C774 C772 1.391 1_655 S
C774 C775 1.400 1_645 S
C775 C774 1.400 1_465 S
C775 C776 1.398 . S
C775 C781 1.491 1_455 S
C776 H767 0.950 . S
C776 C775 1.398 . S
C776 C777 1.391 . S
C777 H765 0.950 . S
C777 C773 1.393 . S
C777 C776 1.391 . S
C778 H768 0.950 1_655 S
C778 C779 1.386 . S
C778 C780 1.391 1_655 S
C779 C778 1.386 . S
C779 C783 1.393 1_565 S
C780 H769 0.950 . S
C780 C778 1.391 1_455 S
C780 C781 1.400 1_455 S
C781 C775 1.491 1_655 S
C781 C780 1.400 1_655 S
C781 C782 1.398 1_565 S
C782 H770 0.950 . S
C782 C781 1.398 1_545 S
C782 C783 1.391 . S
C783 H771 0.950 . S
C783 C779 1.393 1_545 S
C783 C782 1.391 . S
H784 C792 0.950 . S
H785 C797 0.950 . S
H786 C794 0.950 . S
H787 C796 0.950 . S
H788 C798 0.950 . S
H789 C800 0.950 1_554 S
H790 C802 0.950 . S
H791 C803 0.950 . S
C792 H784 0.950 . S
C792 C793 1.386 . S
C792 C794 1.391 . S
C793 C792 1.386 . S
C793 C797 1.393 . S
C794 H786 0.950 . S
C794 C792 1.391 . S
C794 C795 1.400 . S
C795 C794 1.400 . S
C795 C796 1.398 . S
C795 C801 1.491 1_554 S
C796 H787 0.950 . S
C796 C795 1.398 . S
C796 C797 1.391 . S
C797 H785 0.950 . S
C797 C793 1.393 . S
C797 C796 1.391 . S
C798 H788 0.950 . S
C798 C799 1.386 . S
C798 C800 1.391 . S
C799 C798 1.386 . S
C799 C803 1.393 . S
C800 H789 0.950 1_556 S
C800 C798 1.391 . S
C800 C801 1.400 . S
C801 C795 1.491 1_556 S
C801 C800 1.400 . S
C801 C802 1.398 . S
C802 H790 0.950 . S
C802 C801 1.398 . S
C802 C803 1.391 . S
C803 H791 0.950 . S
C803 C799 1.393 . S
C803 C802 1.391 . S
H804 C812 0.950 . S
H805 C817 0.950 . S
H806 C814 0.950 . S
H807 C816 0.950 . S
H808 C818 0.950 . S
H809 C820 0.947 1_655 S
H810 C822 0.965 . S
H811 C823 0.950 . S
C812 H804 0.950 . S
C812 C813 1.386 . S
C812 C814 1.391 1_655 S
C813 C812 1.386 . S
C813 C817 1.393 . S
C814 H806 0.950 . S
C814 C812 1.391 1_455 S
C814 C815 1.400 1_455 S
C815 C814 1.400 1_655 S
C815 C816 1.398 . S
C815 C821 1.491 1_654 S
C816 H807 0.950 . S
C816 C815 1.398 . S
C816 C817 1.391 . S
C817 H805 0.950 . S
C817 C813 1.393 . S
C817 C816 1.391 . S
C818 H808 0.950 . S
C818 C819 1.386 . S
C818 C820 1.393 . S
C819 C818 1.386 . S
C819 C823 1.393 . S
C820 H809 0.947 1_455 S
C820 C818 1.393 . S
C820 C821 1.401 . S
C821 C815 1.491 1_456 S
C821 C820 1.401 . S
C821 C822 1.398 . S
C822 H810 0.965 . S
C822 C821 1.398 . S
C822 C823 1.391 . S
C823 H811 0.950 . S
C823 C819 1.393 . S
C823 C822 1.391 . S
H824 C832 0.950 . S
H825 C837 0.950 . S
H826 C834 0.950 . S
H827 C836 0.950 . S
H828 C838 0.950 . S
H829 C840 0.950 . S
H830 C842 0.950 . S
H831 C843 0.950 . S
C832 H824 0.950 . S
C832 C833 1.386 1_455 S
C832 C834 1.391 . S
C833 C832 1.386 1_655 S
C833 C837 1.393 . S
C834 H826 0.950 . S
C834 C832 1.391 . S
C834 C835 1.400 1_455 S
C835 C834 1.400 1_655 S
C835 C836 1.398 . S
C835 C841 1.491 1_655 S
C836 H827 0.950 . S
C836 C835 1.398 . S
C836 C837 1.391 . S
C837 H825 0.950 . S
C837 C833 1.393 . S
C837 C836 1.391 . S
C838 H828 0.950 . S
C838 C839 1.386 1_655 S
C838 C840 1.391 . S
C839 C838 1.386 1_455 S
C839 C843 1.393 . S
C840 H829 0.950 . S
C840 C838 1.391 . S
C840 C841 1.400 1_655 S
C841 C835 1.491 1_455 S
C841 C840 1.400 1_455 S
C841 C842 1.398 . S
C842 H830 0.950 . S
C842 C841 1.398 . S
C842 C843 1.391 . S
C843 H831 0.950 . S
C843 C839 1.393 . S
C843 C842 1.391 . S
H844 C852 0.950 . S
H845 C857 0.950 . S
H846 C854 0.950 . S
H847 C856 0.950 . S
H848 C858 0.950 . S
H849 C860 0.950 . S
H850 C862 0.950 . S
H851 C863 0.950 . S
C852 H844 0.950 . S
C852 C853 1.386 . S
C852 C854 1.391 . S
C853 C852 1.386 . S
C853 C857 1.393 . S
C854 H846 0.950 . S
C854 C852 1.391 . S
C854 C855 1.400 . S
C855 C854 1.400 . S
C855 C856 1.398 . S
C855 C861 1.491 . S
C856 H847 0.950 . S
C856 C855 1.398 . S
C856 C857 1.391 . S
C857 H845 0.950 . S
C857 C853 1.393 . S
C857 C856 1.391 . S
C858 H848 0.950 . S
C858 C859 1.386 . S
C858 C860 1.391 . S
C859 C858 1.386 . S
C859 C863 1.393 . S
C860 H849 0.950 . S
C860 C858 1.391 . S
C860 C861 1.400 . S
C861 C855 1.491 . S
C861 C860 1.400 . S
C861 C862 1.398 . S
C862 H850 0.950 . S
C862 C861 1.398 . S
C862 C863 1.391 . S
C863 H851 0.950 . S
C863 C859 1.393 . S
C863 C862 1.391 . S
C233 C26 1.480 . S
C239 C12 1.482 . S
C253 C40 1.484 . S
C259 C54 1.480 . S
C273 C67 1.543 . S
C279 C81 1.549 . S
C293 C109 1.551 . S
C299 C95 1.552 . S
C313 C138 1.484 . S
C319 C124 1.481 . S
C333 C166 1.484 . S
C339 C152 1.482 . S
C353 C193 1.542 . S
C359 C179 1.553 . S
C373 C221 1.555 . S
C379 C207 1.546 . S
C393 C46 1.002 . S
C399 C4 1.006 . S
C413 C18 0.993 . S
C419 C32 1.002 . S
C433 C103 1.057 . S
C439 C61 1.107 . S
C453 C89 1.058 . S
C459 C75 1.100 . S
C473 C116 1.004 . S
C479 C158 0.996 . S
C493 C144 0.994 . S
C499 C130 1.003 . S
C513 C215 1.103 . S
C519 C173 1.058 . S
C533 C187 1.111 . S
C539 C201 1.071 . S
C553 C5 1.258 . S
C559 C131 1.301 . S
C573 C19 1.256 . S
C579 C117 1.280 . S
C593 C159 1.255 . S
C599 C33 1.299 . S
C613 C145 1.301 . S
C619 C47 1.263 . S
C633 C186 1.634 . S
C639 C60 1.633 . S
C653 C172 1.637 . S
C659 C74 1.629 . S
C673 C88 1.638 . S
C679 C214 1.625 . S
C693 C102 1.625 . S
C699 C200 1.638 . S
C713 C68 1.116 . S
C719 C11 1.114 1_565 S
C733 C82 1.116 . S
C739 C25 1.126 1_545 S
C753 C96 1.120 . S
C759 C39 1.117 1_545 S
C773 C110 1.109 . S
C779 C53 1.109 1_565 S
C793 C123 1.112 . S
C799 C180 1.115 . S
C813 C137 1.127 . S
C819 C194 1.118 . S
C833 C208 1.111 . S
C839 C151 1.110 . S
C853 C222 1.114 . S
C859 C165 1.112 . S
