# Generated by pormake.
# Topology rob, (6)-cn, num edge types: 1
# Building blocks:
#     Node 0, Type 0, BuildingBlock: UKALOJ_clean_sbu_0, # of connection points: 6
#     Node 1, Type 0, BuildingBlock: UKALOJ_clean_sbu_0, # of connection points: 6
#     Node 2, Type 0, BuildingBlock: UKALOJ_clean_sbu_0, # of connection points: 6
#     Node 3, Type 0, BuildingBlock: UKALOJ_clean_sbu_0, # of connection points: 6
#     Edge 4, Type (0, 0), BuildingBlock: TEMPAE_clean_linker_10, # of connection points: 2
#     Edge 5, Type (0, 0), BuildingBlock: TEMPAE_clean_linker_10, # of connection points: 2
#     Edge 6, Type (0, 0), BuildingBlock: TEMPAE_clean_linker_10, # of connection points: 2
#     Edge 7, Type (0, 0), BuildingBlock: TEMPAE_clean_linker_10, # of connection points: 2
#     Edge 8, Type (0, 0), BuildingBlock: TEMPAE_clean_linker_10, # of connection points: 2
#     Edge 9, Type (0, 0), BuildingBlock: TEMPAE_clean_linker_10, # of connection points: 2
#     Edge 10, Type (0, 0), BuildingBlock: TEMPAE_clean_linker_10, # of connection points: 2
#     Edge 11, Type (0, 0), BuildingBlock: TEMPAE_clean_linker_10, # of connection points: 2
#     Edge 12, Type (0, 0), BuildingBlock: TEMPAE_clean_linker_10, # of connection points: 2
#     Edge 13, Type (0, 0), BuildingBlock: TEMPAE_clean_linker_10, # of connection points: 2
#     Edge 14, Type (0, 0), BuildingBlock: TEMPAE_clean_linker_10, # of connection points: 2
#     Edge 15, Type (0, 0), BuildingBlock: TEMPAE_clean_linker_10, # of connection points: 2
# Relax obj value: 0.151
# Max RMSD: 0.190
# Mean RMSD: 0.190
data_MOF--net-rob--node1-UKALOJ_clean_sbu_0--edge1-TEMPAE_clean_linker_10
_symmetry_space_group_name_H-M    P1
_symmetry_Int_Tables_number       1
_symmetry_cell_setting            triclinic
loop_
_symmetry_equiv_pos_as_xyz
'x, y, z'
_cell_length_a     14.505732
_cell_length_b     37.879281
_cell_length_c     24.89961
_cell_angle_alpha  100.89644
_cell_angle_beta   90.191878
_cell_angle_gamma 89.726169
loop_
_atom_site_label
_atom_site_type_symbol
_atom_site_fract_x
_atom_site_fract_y
_atom_site_fract_z
_atom_type_partial_charge
Zn0 Zn 0.28279 0.2962 -0.01591 0.0
O1 O 0.39477 0.27638 0.93452 0.0
C2 C 0.16702 0.29641 0.88708 0.0
Zn3 Zn 0.20751 0.24435 0.95983 0.0
C4 C 0.39158 0.24454 0.90698 0.0
O5 O 0.32087 0.22538 0.91014 0.0
C6 C 0.0986 0.29601 0.03688 0.0
O7 O 0.26856 0.22426 0.02471 0.0
O8 O 0.3416 0.27542 0.04859 0.0
N9 N 0.14128 0.19663 0.93277 0.0
C10 C 0.09787 0.17316 0.95857 0.0
C11 C 0.1023 0.14985 0.87378 0.0
N12 N 0.14301 0.1822 0.88009 0.0
N13 N 0.07311 0.14325 0.92231 0.0
C14 C 0.39353 0.36766 -0.01248 0.0
C15 C 0.38989 0.38927 0.07293 0.0
N16 N 0.34918 0.34375 0.01202 0.0
N17 N 0.34791 0.35715 0.06507 0.0
N18 N 0.41945 0.3968 0.02504 0.0
H19 H 0.37021 0.3395 0.90426 0.0
H20 H 0.483 0.35659 0.91824 0.0
H21 H 0.38993 0.38729 0.91176 0.0
C22 C 0.40906 0.36253 0.92698 0.0
C23 C 0.08227 0.1794 0.01922 0.0
H24 H 0.11939 0.20316 0.04108 0.0
H25 H 0.10321 0.15534 0.03577 0.0
H26 H 0.008 0.18472 0.02766 0.0
O27 O 0.09558 0.26419 0.00933 0.0
O28 O 0.16928 0.3152 0.0338 0.0
C29 C 0.32328 0.24413 0.05674 0.0
O30 O 0.22184 0.3163 0.9191 0.0
O31 O 0.14864 0.26511 0.89527 0.0
Zn32 Zn 0.79293 0.79713 -0.01263 0.0
O33 O 0.84937 0.78232 0.90905 0.0
C34 C 0.60611 0.79976 0.94028 0.0
Zn35 Zn 0.72074 0.74448 0.9787 0.0
C36 C 0.82814 0.75222 0.87989 0.0
O37 O 0.77603 0.73094 0.89929 0.0
C38 C 0.68592 0.78946 0.08624 0.0
O39 O 0.83726 0.72244 0.0117 0.0
O40 O 0.90704 0.77451 0.01992 0.0
N41 N 0.65584 0.69575 0.96503 0.0
C42 C 0.65153 0.66837 -0.00738 0.0
C43 C 0.57924 0.65207 0.91746 0.0
N44 N 0.61079 0.6855 0.91844 0.0
N45 N 0.60418 0.64038 0.96331 0.0
C46 C 0.86037 0.87285 0.97137 0.0
C47 C 0.93138 0.89092 0.0465 0.0
N48 N 0.85713 0.84607 0.00019 0.0
N49 N 0.90142 0.8574 0.04676 0.0
N50 N 0.90607 0.90156 -0.00014 0.0
H51 H 0.81324 0.84192 0.894 0.0
H52 H 0.86744 0.88407 0.88978 0.0
H53 H 0.75309 0.88309 0.91735 0.0
C54 C 0.82192 0.87014 0.91476 0.0
C55 C 0.69067 0.6699 0.04879 0.0
H56 H 0.70018 0.69793 0.07039 0.0
H57 H 0.7592 0.65663 0.04528 0.0
H58 H 0.64505 0.65568 0.07332 0.0
O59 O 0.66492 0.75915 0.0575 0.0
O60 O 0.7373 0.81075 0.06634 0.0
C61 C 0.90715 0.74206 0.0265 0.0
O62 O 0.67661 0.81912 0.95446 0.0
O63 O 0.60613 0.76728 0.94665 0.0
Zn64 Zn 0.22109 0.80112 0.48863 0.0
O65 O 0.33522 0.82401 0.45558 0.0
C66 C 0.19109 0.75486 0.38096 0.0
Zn67 Zn 0.29632 0.74891 0.48112 0.0
C68 C 0.407 0.80501 0.44249 0.0
O69 O 0.40937 0.77294 0.45061 0.0
C70 C 0.10975 0.74511 0.52689 0.0
O71 O 0.34764 0.76434 0.56055 0.0
O72 O 0.27508 0.81608 0.56814 0.0
N73 N 0.36949 0.70175 0.47104 0.0
C74 C 0.36991 0.67399 0.49789 0.0
C75 C 0.46913 0.66202 0.434 0.0
N76 N 0.43146 0.69425 0.43148 0.0
N77 N 0.43143 0.64876 0.47528 0.0
C78 C 0.14802 0.87625 0.47201 0.0
C79 C 0.07397 0.89334 0.54619 0.0
N80 N 0.15202 0.84923 0.50034 0.0
N81 N 0.10572 0.85993 0.54629 0.0
N82 N 0.10009 0.90451 0.50027 0.0
H83 H 0.19642 0.84596 0.39471 0.0
H84 H 0.25666 0.88685 0.41981 0.0
H85 H 0.14308 0.88863 0.39105 0.0
C86 C 0.1878 0.87413 0.41601 0.0
C87 C 0.31364 0.6722 0.54756 0.0
H88 H 0.35072 0.65675 0.57468 0.0
H89 H 0.24839 0.65803 0.53437 0.0
H90 H 0.29759 0.69948 0.57066 0.0
O91 O 0.18033 0.7257 0.51207 0.0
O92 O 0.10884 0.77767 0.52089 0.0
C93 C 0.32613 0.79479 0.58873 0.0
O94 O 0.16682 0.78483 0.40973 0.0
O95 O 0.24511 0.73421 0.40097 0.0
Zn96 Zn 0.70102 0.29655 0.48259 0.0
O97 O 0.75209 0.31515 0.41429 0.0
C98 C 0.6038 0.24022 0.40624 0.0
Zn99 Zn 0.78668 0.24681 0.46171 0.0
C100 C 0.81363 0.29699 0.38514 0.0
O101 O 0.84228 0.26771 0.39709 0.0
C102 C 0.67292 0.24612 0.55868 0.0
O103 O 0.89256 0.27071 0.51273 0.0
O104 O 0.81098 0.32051 0.53212 0.0
N105 N 0.86291 0.20096 0.43727 0.0
C106 C 0.90657 0.17781 0.46395 0.0
C107 C 0.91128 0.15538 0.37886 0.0
N108 N 0.8671 0.18712 0.38444 0.0
N109 N 0.93685 0.14855 0.42804 0.0
C110 C 0.63511 0.37604 0.49758 0.0
C111 C 0.50689 0.37491 0.53881 0.0
N112 N 0.62246 0.34203 0.50488 0.0
N113 N 0.5429 0.34143 0.5307 0.0
N114 N 0.56347 0.39704 0.5182 0.0
H115 H 0.78137 0.37408 0.48201 0.0
H116 H 0.73021 0.41826 0.48883 0.0
H117 H 0.71055 0.38518 0.42791 0.0
C118 C 0.71947 0.38917 0.47293 0.0
C119 C 0.91766 0.18388 0.52493 0.0
H120 H 0.88084 0.20819 0.54558 0.0
H121 H 0.99147 0.18836 0.53555 0.0
H122 H 0.89353 0.16005 0.54078 0.0
O123 O 0.72888 0.22656 0.52698 0.0
O124 O 0.64987 0.27677 0.54933 0.0
C125 C 0.88396 0.30294 0.53826 0.0
O126 O 0.59286 0.27179 0.43377 0.0
O127 O 0.67902 0.22363 0.41029 0.0
C128 C 0.50062 0.58835 0.95407 0.0
C129 C 0.58228 0.60544 0.97496 0.0
C130 C 0.479 0.55369 0.96205 0.0
C131 C 0.53954 0.53584 -0.00717 0.0
C132 C 0.62205 0.55283 0.01419 0.0
C133 C 0.64351 0.58704 0.00382 0.0
C134 C 0.39146 0.53612 0.93733 0.0
C135 C 0.68754 0.53494 0.04813 0.0
C136 C 0.42744 0.46254 0.05425 0.0
C137 C 0.45526 0.43122 0.01812 0.0
C138 C 0.45746 0.4966 0.04779 0.0
C139 C 0.51514 0.49966 0.00326 0.0
C140 C 0.54579 0.46824 0.96748 0.0
C141 C 0.5174 0.43436 0.97623 0.0
C142 C 0.42576 0.52937 0.08798 0.0
C143 C 0.60643 0.47042 0.91905 0.0
H144 H 0.45354 0.60218 0.93112 0.0
H145 H 0.7091 0.59882 0.01745 0.0
H146 H 0.40762 0.50967 0.91131 0.0
H147 H 0.34469 0.53111 0.9702 0.0
H148 H 0.35427 0.55289 0.9121 0.0
H149 H 0.74601 0.55264 0.06445 0.0
H150 H 0.6502 0.52725 0.08299 0.0
H151 H 0.71573 0.5099 0.02313 0.0
H152 H 0.38052 0.46048 0.08726 0.0
H153 H 0.54435 0.41057 0.95021 0.0
H154 H 0.37967 0.54597 0.06709 0.0
H155 H 0.48577 0.54627 0.10391 0.0
H156 H 0.38797 0.52218 0.12311 0.0
H157 H 0.57093 0.48618 0.89175 0.0
H158 H 0.62393 0.44346 0.89494 0.0
H159 H 0.67134 0.48464 0.93294 0.0
C160 C 0.37739 0.58976 0.48888 0.0
C161 C 0.44956 0.61401 0.48803 0.0
C162 C 0.39498 0.55461 0.49664 0.0
C163 C 0.48691 0.5438 0.50447 0.0
C164 C 0.55974 0.56869 0.50528 0.0
C165 C 0.54019 0.60342 0.49625 0.0
C166 C 0.31568 0.52869 0.49435 0.0
C167 C 0.65839 0.5584 0.51452 0.0
C168 C 0.52338 0.4588 0.56238 0.0
C169 C 0.54539 0.43387 0.51514 0.0
C170 C 0.50546 0.49492 0.55978 0.0
C171 C 0.50741 0.50589 0.50846 0.0
C172 C 0.52827 0.4805 0.46053 0.0
C173 C 0.54762 0.4448 0.46457 0.0
C174 C 0.485 0.52133 0.61183 0.0
C175 C 0.52917 0.49092 0.40491 0.0
H176 H 0.30761 0.59796 0.48137 0.0
H177 H 0.59557 0.62241 0.49543 0.0
H178 H 0.32472 0.50624 0.45901 0.0
H179 H 0.31464 0.51681 0.53178 0.0
H180 H 0.24798 0.54178 0.49025 0.0
H181 H 0.70579 0.5817 0.51834 0.0
H182 H 0.6637 0.54684 0.55217 0.0
H183 H 0.68176 0.53741 0.47989 0.0
H184 H 0.52166 0.45001 0.60133 0.0
H185 H 0.56293 0.42513 0.42807 0.0
H186 H 0.41531 0.53313 0.60948 0.0
H187 H 0.53503 0.5438 0.617 0.0
H188 H 0.48831 0.50864 0.64854 0.0
H189 H 0.46101 0.50211 0.39635 0.0
H190 H 0.54535 0.46778 0.37165 0.0
H191 H 0.58106 0.51224 0.40415 0.0
C192 C 0.07032 0.07718 0.89721 0.0
C193 C 0.0399 0.10892 0.93134 0.0
C194 C 0.04348 0.04327 0.90621 0.0
C195 C 0.98656 0.04088 0.95136 0.0
C196 C 0.95336 0.07268 -0.01488 0.0
C197 C 0.97832 0.10628 0.97373 0.0
C198 C 0.07748 1.01 0.86796 0.0
C199 C 0.89355 0.07125 0.0342 0.0
C200 C 0.86307 0.95337 0.95672 0.0
C201 C 0.92568 0.93627 -0.01338 0.0
C202 C 0.8827 0.98708 0.94395 0.0
C203 C 0.96453 1.00508 0.96416 0.0
C204 C 0.02623 0.98871 -0.00372 0.0
C205 C 0.00658 0.95438 0.00652 0.0
C206 C 0.81603 1.00331 0.90859 0.0
C207 C 0.1129 1.00751 0.02002 0.0
H208 H 0.1168 0.07883 0.86382 0.0
H209 H 0.94923 0.13026 -0.00186 0.0
H210 H 0.12478 0.99465 0.89017 0.0
H211 H 0.01867 0.99216 0.85296 0.0
H212 H 0.11463 1.01653 0.83215 0.0
H213 H 0.87515 0.09846 0.05707 0.0
H214 H 0.8291 0.05643 0.02119 0.0
H215 H 0.93011 0.05645 0.0624 0.0
H216 H 0.79783 0.94093 0.94403 0.0
H217 H 0.05459 0.94161 0.03036 0.0
H218 H 0.8528 1.01045 0.87313 0.0
H219 H 0.78613 0.02848 0.93223 0.0
H220 H 0.75877 0.98475 0.89306 0.0
H221 H 0.15924 1.0119 -0.01342 0.0
H222 H 0.15108 0.99191 0.04655 0.0
H223 H 0.09543 0.03433 0.04446 0.0
C224 C 0.94274 0.08261 0.40112 0.0
C225 C 0.96958 0.11404 0.43723 0.0
C226 C 0.96914 0.04849 0.40977 0.0
C227 C 0.0221 0.0455 0.45646 0.0
C228 C 0.05166 0.07697 0.4924 0.0
C229 C 0.02698 0.11087 0.48155 0.0
C230 C 0.9388 1.01562 0.36943 0.0
C231 C 0.1074 0.07486 0.54303 0.0
C232 C -0.00124 0.95739 0.50654 0.0
C233 C 0.08092 0.93958 0.488 0.0
C234 C 0.97976 0.99216 0.49761 0.0
C235 C 0.04371 1.00935 0.46841 0.0
C236 C 0.12693 0.99166 0.44967 0.0
C237 C 0.14549 0.95737 0.46088 0.0
C238 C 0.89126 1.01052 0.5195 0.0
C239 C 0.19616 1.00883 0.41752 0.0
H240 H 0.89932 0.08464 0.36635 0.0
H241 H 0.05325 0.13462 0.50781 0.0
H242 H -0.00092 0.99814 0.35559 0.0
H243 H 0.89029 0.99966 0.38949 0.0
H244 H 0.90417 0.02266 0.33299 0.0
H245 H 0.1239 0.10185 0.56723 0.0
H246 H 0.0686 0.05961 0.56943 0.0
H247 H 0.17282 0.06014 0.53164 0.0
H248 H 0.94924 0.94403 0.52827 0.0
H249 H 0.21143 0.94499 0.44927 0.0
H250 H 0.84749 1.01562 0.48514 0.0
H251 H 0.90664 0.03698 0.5456 0.0
H252 H 0.85122 0.99424 0.54392 0.0
H253 H 0.16242 1.01623 0.38111 0.0
H254 H 0.25545 0.99077 0.40364 0.0
H255 H 0.2228 0.03397 0.44287 0.0
C256 C 0.45646 0.24508 0.35674 0.0
C257 C 0.53749 0.22589 0.3627 0.0
C258 C 0.40837 0.23909 0.30707 0.0
C259 C 0.44298 0.21354 0.26274 0.0
C260 C 0.51641 0.19054 0.27119 0.0
C261 C 0.56297 0.19694 0.32142 0.0
C262 C 0.32798 0.2633 0.30006 0.0
C263 C 0.55331 0.16225 0.22528 0.0
C264 C 0.31496 0.20604 0.12814 0.0
C265 C 0.36043 0.23233 0.10544 0.0
C266 C 0.34297 0.19831 0.17866 0.0
C267 C 0.41825 0.21724 0.20643 0.0
C268 C 0.46754 0.24229 0.18199 0.0
C269 C 0.43761 0.24963 0.13189 0.0
C270 C 0.28875 0.17147 0.20335 0.0
C271 C 0.5496 0.2626 0.20981 0.0
H272 H 0.43496 0.26686 0.38913 0.0
H273 H 0.62441 0.18141 0.32621 0.0
H274 H 0.35132 0.28441 0.27781 0.0
H275 H 0.2724 0.24791 0.27552 0.0
H276 H 0.29912 0.27671 0.34005 0.0
H277 H 0.59522 0.14176 0.24102 0.0
H278 H 0.4964 0.14858 0.19972 0.0
H279 H 0.59782 0.17528 0.19858 0.0
H280 H 0.25498 0.19268 0.10774 0.0
H281 H 0.47344 0.26964 0.11399 0.0
H282 H 0.23854 0.18608 0.23312 0.0
H283 H 0.33433 0.15552 0.22564 0.0
H284 H 0.24966 0.15279 0.17167 0.0
H285 H 0.52749 0.28008 0.24858 0.0
H286 H 0.58279 0.27975 0.18387 0.0
H287 H 0.60199 0.24353 0.22021 0.0
C288 C 0.57911 0.78187 0.16095 0.0
C289 C 0.65512 0.79914 0.14333 0.0
C290 C 0.55154 0.78956 0.21569 0.0
C291 C 0.6025 0.81468 0.25378 0.0
C292 C 0.67896 0.83243 0.23616 0.0
C293 C 0.70413 0.82458 0.18088 0.0
C294 C 0.46848 0.7704 0.23282 0.0
C295 C 0.73575 0.85881 0.27578 0.0
C296 C 0.45754 0.84415 0.37857 0.0
C297 C 0.4778 0.8166 0.40726 0.0
C298 C 0.50528 0.8466 0.33066 0.0
C299 C 0.57546 0.82124 0.31204 0.0
C300 C 0.60556 0.79712 0.34546 0.0
C301 C 0.55598 0.79501 0.39287 0.0
C302 C 0.47244 0.87323 0.29661 0.0
C303 C 0.68232 0.77043 0.32781 0.0
H304 H 0.54109 0.7623 0.13188 0.0
H305 H 0.76378 0.83764 0.16736 0.0
H306 H 0.48945 0.7538 0.26308 0.0
H307 H 0.41686 0.79029 0.25283 0.0
H308 H 0.43477 0.75263 0.19771 0.0
H309 H 0.78446 0.87399 0.25442 0.0
H310 H 0.6907 0.87823 0.30275 0.0
H311 H 0.77625 0.84407 0.3024 0.0
H312 H 0.39851 0.86143 0.39009 0.0
H313 H 0.57345 0.77421 0.41575 0.0
H314 H 0.4283 0.85914 0.26283 0.0
H315 H 0.53138 0.88501 0.27798 0.0
H316 H 0.43132 0.89532 0.3212 0.0
H317 H 0.65562 0.74797 0.29649 0.0
H318 H 0.70967 0.75903 0.36266 0.0
H319 H 0.73977 0.78305 0.30913 0.0
C320 C 0.45717 0.79008 0.89005 0.0
C321 C 0.53289 0.81229 0.90714 0.0
C322 C 0.40517 0.79466 0.84441 0.0
C323 C 0.43073 0.82176 0.8154 0.0
C324 C 0.49745 0.84757 0.83757 0.0
C325 C 0.54754 0.84265 0.88374 0.0
C326 C 0.33143 0.76755 0.82322 0.0
C327 C 0.52478 0.87745 0.80852 0.0
C328 C 0.43524 0.78829 0.66292 0.0
C329 C 0.35612 0.80433 0.64595 0.0
C330 C 0.46145 0.79482 0.7179 0.0
C331 C 0.40592 0.81746 0.75691 0.0
C332 C 0.32676 0.83434 0.73989 0.0
C333 C 0.30299 0.8277 0.68427 0.0
C334 C 0.54756 0.77673 0.73429 0.0
C335 C 0.265 0.85804 0.78032 0.0
H336 H 0.44357 0.76717 0.90915 0.0
H337 H 0.60405 0.86059 0.89784 0.0
H338 H 0.27177 0.78069 0.80696 0.0
H339 H 0.35996 0.74725 0.78923 0.0
H340 H 0.30681 0.75333 0.85557 0.0
H341 H 0.56236 0.89916 0.83617 0.0
H342 H 0.57072 0.86639 0.77378 0.0
H343 H 0.46345 0.88921 0.79165 0.0
H344 H 0.47644 0.77037 0.63314 0.0
H345 H 0.24097 0.83975 0.67109 0.0
H346 H 0.52909 0.75789 0.76163 0.0
H347 H 0.59504 0.79707 0.75728 0.0
H348 H 0.58515 0.76139 0.69846 0.0
H349 H 0.22048 0.8409 0.8008 0.0
H350 H 0.21963 0.87525 0.75992 0.0
H351 H 0.3058 0.87551 0.81251 0.0
C352 C 0.55799 0.2498 0.6325 0.0
C353 C 0.63969 0.23493 0.60839 0.0
C354 C 0.53068 0.24356 0.68353 0.0
C355 C 0.5874 0.22224 0.71134 0.0
C356 C 0.66802 0.20578 0.68614 0.0
C357 C 0.69314 0.21223 0.63453 0.0
C358 C 0.44302 0.26114 0.7086 0.0
C359 C 0.73056 0.18316 0.7146 0.0
C360 C 0.53698 0.25423 0.85919 0.0
C361 C 0.46224 0.23204 0.86532 0.0
C362 C 0.58842 0.24827 0.81088 0.0
C363 C 0.56337 0.21974 0.76808 0.0
C364 C 0.49728 0.19429 0.77734 0.0
C365 C 0.44726 0.20072 0.82619 0.0
C366 C 0.66125 0.27518 0.8031 0.0
C367 C 0.47095 0.16291 0.73313 0.0
H368 H 0.51635 0.26708 0.61193 0.0
H369 H 0.75682 0.20093 0.61597 0.0
H370 H 0.39697 0.24072 0.72074 0.0
H371 H 0.45979 0.28104 0.74606 0.0
H372 H 0.40456 0.27521 0.68014 0.0
H373 H 0.77401 0.16476 0.68487 0.0
H374 H 0.77711 0.20108 0.74279 0.0
H375 H 0.69077 0.16701 0.73922 0.0
H376 H 0.5506 0.27794 0.89006 0.0
H377 H 0.39107 0.18289 0.83133 0.0
H378 H 0.63229 0.29402 0.77821 0.0
H379 H 0.72157 0.26152 0.78089 0.0
H380 H 0.68501 0.29113 0.84279 0.0
H381 H 0.42419 0.17248 0.70347 0.0
H382 H 0.43461 0.14176 0.75019 0.0
H383 H 0.53264 0.15088 0.7104 0.0
C384 C 0.05647 0.75185 0.07616 0.0
C385 C 0.97903 0.73017 0.06116 0.0
C386 C 0.10762 0.74884 0.12284 0.0
C387 C 0.07973 0.72377 0.155 0.0
C388 C 0.01045 0.69838 0.13552 0.0
C389 C 0.96102 0.70176 0.08835 0.0
C390 C 0.18346 0.77558 0.14137 0.0
C391 C 0.98029 0.6707 0.16809 0.0
C392 C 0.21045 0.72011 0.28603 0.0
C393 C 0.16007 0.74495 0.32384 0.0
C394 C 0.18484 0.71237 0.2307 0.0
C395 C 0.10675 0.7297 0.21334 0.0
C396 C 0.05433 0.7541 0.25175 0.0
C397 C 0.08216 0.76161 0.30649 0.0
C398 C 0.24314 0.6867 0.19082 0.0
C399 C 0.96959 0.77283 0.23495 0.0
H400 H 0.07221 0.7733 0.05435 0.0
H401 H 0.90246 0.68443 0.07632 0.0
H402 H 0.15657 0.79734 0.17383 0.0
H403 H 0.24218 0.76264 0.15888 0.0
H404 H 0.20907 0.78795 0.10723 0.0
H405 H 0.94011 0.64876 0.14265 0.0
H406 H 0.04052 0.65883 0.18587 0.0
H407 H 0.93599 0.68386 0.20243 0.0
H408 H 0.27148 0.7075 0.29935 0.0
H409 H 0.04298 0.78069 0.33576 0.0
H410 H 0.28562 0.70222 0.16655 0.0
H411 H 0.19941 0.66815 0.16171 0.0
H412 H 0.29026 0.67057 0.21201 0.0
H413 H 0.98896 0.79004 0.20537 0.0
H414 H 0.93482 0.78996 0.27033 0.0
H415 H 0.91933 0.75272 0.2143 0.0
C416 C 0.79254 0.32951 0.30772 0.0
C417 C 0.84722 0.30802 0.33534 0.0
C418 C 0.81853 0.33566 0.25609 0.0
C419 C 0.90107 0.32005 0.23228 0.0
C420 C 0.95899 0.30011 0.26164 0.0
C421 C 0.931 0.29424 0.31275 0.0
C422 C 0.75496 0.357 0.2261 0.0
C423 C 0.04859 0.28343 0.23805 0.0
C424 C 0.95426 0.28583 0.08528 0.0
C425 C 0.02755 0.3085 0.07831 0.0
C426 C 0.90252 0.29213 0.13347 0.0
C427 C 0.92552 0.3216 0.17525 0.0
C428 C 0.99 0.34735 0.165 0.0
C429 C 0.04061 0.34048 0.11636 0.0
C430 C 0.8317 0.26473 0.14234 0.0
C431 C 0.01384 0.37974 0.208 0.0
H432 H 0.72736 0.34006 0.32517 0.0
H433 H 0.97371 0.27796 0.33447 0.0
H434 H 0.79403 0.37305 0.201 0.0
H435 H 0.70996 0.33819 0.19818 0.0
H436 H 0.70993 0.37534 0.25491 0.0
H437 H 0.08759 0.27042 0.26757 0.0
H438 H 0.03429 0.26281 0.20101 0.0
H439 H 0.09315 0.30418 0.22558 0.0
H440 H 0.94212 0.26156 0.05526 0.0
H441 H 0.09562 0.35865 0.11052 0.0
H442 H 0.77003 0.2781 0.16339 0.0
H443 H 0.8617 0.24707 0.16878 0.0
H444 H 0.80974 0.24759 0.10317 0.0
H445 H 0.95122 0.39145 0.23006 0.0
H446 H 0.04859 0.40081 0.18993 0.0
H447 H 0.06125 0.37141 0.23845 0.0
C448 C 0.03117 0.29787 0.58758 0.0
C449 C 0.94991 0.31704 0.5821 0.0
C450 C 0.07917 0.30331 0.63726 0.0
C451 C 0.04418 0.32826 0.68219 0.0
C452 C 0.9701 0.35119 0.67448 0.0
C453 C 0.92373 0.34539 0.62415 0.0
C454 C 0.16 0.27913 0.64347 0.0
C455 C 0.93247 0.37874 0.72113 0.0
C456 C 0.05261 0.29075 0.81186 0.0
C457 C 0.12937 0.30829 0.83851 0.0
C458 C 0.02186 0.29842 0.7621 0.0
C459 C 0.06982 0.32406 0.73819 0.0
C460 C 0.14482 0.34311 0.7661 0.0
C461 C 0.17369 0.33504 0.81627 0.0
C462 C 0.94029 0.27788 0.73406 0.0
C463 C 0.19772 0.37052 0.74189 0.0
H464 H 0.053 0.2765 0.55464 0.0
H465 H 0.86186 0.36079 0.61982 0.0
H466 H 0.21533 0.29435 0.66848 0.0
H467 H 0.13705 0.25752 0.66485 0.0
H468 H 0.18909 0.26634 0.60322 0.0
H469 H 0.88978 0.39933 0.70616 0.0
H470 H 0.88858 0.36505 0.74729 0.0
H471 H 0.98903 0.39238 0.74704 0.0
H472 H 0.01765 0.27036 0.82935 0.0
H473 H 0.23336 0.34857 0.83679 0.0
H474 H 0.96264 0.26086 0.69496 0.0
H475 H 0.88708 0.29683 0.72422 0.0
H476 H 0.90805 0.26026 0.75961 0.0
H477 H 0.24663 0.35638 0.71086 0.0
H478 H 0.23804 0.38873 0.77355 0.0
H479 H 0.15094 0.38694 0.7211 0.0
C480 C 0.9611 0.75473 0.57707 0.0
C481 C 0.03816 0.73283 0.56098 0.0
C482 C 0.91046 0.751 0.62341 0.0
C483 C 0.93847 0.72499 0.65412 0.0
C484 C 0.00721 0.69949 0.6334 0.0
C485 C 0.05604 0.70359 0.58658 0.0
C486 C 0.8349 0.77781 0.64317 0.0
C487 C 0.03737 0.67078 0.66434 0.0
C488 C 0.93716 0.75989 0.80646 0.0
C489 C 0.85946 0.74302 0.82287 0.0
C490 C 0.96468 0.75333 0.75173 0.0
C491 C 0.91198 0.72979 0.71237 0.0
C492 C 0.83413 0.71221 0.72879 0.0
C493 C 0.80899 0.71892 0.78413 0.0
C494 C 0.0493 0.77221 0.73597 0.0
C495 C 0.77532 0.68752 0.68794 0.0
H496 H 0.94526 0.77683 0.55647 0.0
H497 H 0.11397 0.68603 0.57362 0.0
H498 H 0.77613 0.76461 0.65969 0.0
H499 H 0.86199 0.79878 0.67669 0.0
H500 H 0.80931 0.79123 0.60997 0.0
H501 H 0.07758 0.64916 0.63805 0.0
H502 H 0.08159 0.68309 0.6993 0.0
H503 H 0.97711 0.65863 0.68115 0.0
H504 H 0.97634 0.77841 0.83647 0.0
H505 H 0.74803 0.7062 0.79675 0.0
H506 H 0.02967 0.79031 0.70757 0.0
H507 H 0.09926 0.75224 0.71431 0.0
H508 H 0.08449 0.78846 0.77198 0.0
H509 H 0.73094 0.70391 0.66568 0.0
H510 H 0.72993 0.67045 0.70817 0.0
H511 H 0.81845 0.66986 0.65719 0.0
loop_
_geom_bond_atom_site_label_1
_geom_bond_atom_site_label_2
_geom_bond_distance
_geom_bond_site_symmetry_2
_ccdc_geom_bond_type
Zn0 O1 2.055 1_554 S
Zn0 O8 2.046 . S
Zn0 N16 2.036 . S
Zn0 O28 2.053 . S
Zn0 O30 2.066 1_554 S
O1 Zn0 2.055 1_556 S
O1 C4 1.259 . S
C2 O30 1.256 . S
C2 O31 1.244 . S
Zn3 O5 2.046 . S
Zn3 O7 2.055 1_556 S
Zn3 N9 2.036 . S
Zn3 O27 2.066 1_556 S
Zn3 O31 2.053 . S
C4 O1 1.259 . S
C4 O5 1.254 . S
O5 Zn3 2.046 . S
O5 C4 1.254 . S
C6 O27 1.256 . S
C6 O28 1.244 . S
O7 Zn3 2.055 1_554 S
O7 C29 1.259 . S
O8 Zn0 2.046 . S
O8 C29 1.254 . S
N9 Zn3 2.036 . S
N9 C10 1.298 1_556 S
N9 N12 1.398 . S
C10 N9 1.298 1_554 S
C10 N13 1.367 1_554 S
C10 C23 1.481 . S
C11 N12 1.299 . S
C11 N13 1.379 . S
N12 N9 1.398 . S
N12 C11 1.299 . S
N13 C10 1.367 1_556 S
N13 C11 1.379 . S
C14 N16 1.298 1_556 S
C14 N18 1.367 1_556 S
C14 C22 1.481 . S
C15 N17 1.299 . S
C15 N18 1.379 . S
N16 Zn0 2.036 . S
N16 C14 1.298 1_554 S
N16 N17 1.398 . S
N17 C15 1.299 . S
N17 N16 1.398 . S
N18 C14 1.367 1_554 S
N18 C15 1.379 . S
H19 C22 0.980 . S
H20 C22 0.981 . S
H21 C22 0.981 . S
C22 C14 1.481 . S
C22 H19 0.980 . S
C22 H20 0.981 . S
C22 H21 0.981 . S
C23 C10 1.481 . S
C23 H24 0.980 . S
C23 H25 0.981 . S
C23 H26 0.981 . S
H24 C23 0.980 . S
H25 C23 0.981 . S
H26 C23 0.981 . S
O27 Zn3 2.066 1_554 S
O27 C6 1.256 . S
O28 Zn0 2.053 . S
O28 C6 1.244 . S
C29 O7 1.259 . S
C29 O8 1.254 . S
O30 Zn0 2.066 1_556 S
O30 C2 1.256 . S
O31 C2 1.244 . S
O31 Zn3 2.053 . S
Zn32 O33 2.055 1_554 S
Zn32 O40 2.046 . S
Zn32 N48 2.036 . S
Zn32 O60 2.053 . S
Zn32 O62 2.066 1_554 S
O33 Zn32 2.055 1_556 S
O33 C36 1.259 . S
C34 O62 1.256 . S
C34 O63 1.244 . S
Zn35 O37 2.046 . S
Zn35 O39 2.055 1_556 S
Zn35 N41 2.036 . S
Zn35 O59 2.066 1_556 S
Zn35 O63 2.053 . S
C36 O33 1.259 . S
C36 O37 1.254 . S
O37 Zn35 2.046 . S
O37 C36 1.254 . S
C38 O59 1.256 . S
C38 O60 1.244 . S
O39 Zn35 2.055 1_554 S
O39 C61 1.259 . S
O40 Zn32 2.046 . S
O40 C61 1.254 . S
N41 Zn35 2.036 . S
N41 C42 1.298 1_556 S
N41 N44 1.398 . S
C42 N41 1.298 1_554 S
C42 N45 1.367 1_554 S
C42 C55 1.481 . S
C43 N44 1.299 . S
C43 N45 1.379 . S
N44 N41 1.398 . S
N44 C43 1.299 . S
N45 C42 1.367 1_556 S
N45 C43 1.379 . S
C46 N48 1.298 1_556 S
C46 N50 1.367 1_556 S
C46 C54 1.481 . S
C47 N49 1.299 . S
C47 N50 1.379 . S
N48 Zn32 2.036 . S
N48 C46 1.298 1_554 S
N48 N49 1.398 . S
N49 C47 1.299 . S
N49 N48 1.398 . S
N50 C46 1.367 1_554 S
N50 C47 1.379 . S
H51 C54 0.980 . S
H52 C54 0.981 . S
H53 C54 0.981 . S
C54 C46 1.481 . S
C54 H51 0.980 . S
C54 H52 0.981 . S
C54 H53 0.981 . S
C55 C42 1.481 . S
C55 H56 0.980 . S
C55 H57 0.981 . S
C55 H58 0.981 . S
H56 C55 0.980 . S
H57 C55 0.981 . S
H58 C55 0.981 . S
O59 Zn35 2.066 1_554 S
O59 C38 1.256 . S
O60 Zn32 2.053 . S
O60 C38 1.244 . S
C61 O39 1.259 . S
C61 O40 1.254 . S
O62 Zn32 2.066 1_556 S
O62 C34 1.256 . S
O63 C34 1.244 . S
O63 Zn35 2.053 . S
Zn64 O65 2.055 . S
Zn64 O72 2.046 . S
Zn64 N80 2.036 . S
Zn64 O92 2.053 . S
Zn64 O94 2.066 . S
O65 Zn64 2.055 . S
O65 C68 1.259 . S
C66 O94 1.256 . S
C66 O95 1.244 . S
Zn67 O69 2.046 . S
Zn67 O71 2.055 . S
Zn67 N73 2.036 . S
Zn67 O91 2.066 . S
Zn67 O95 2.053 . S
C68 O65 1.259 . S
C68 O69 1.254 . S
O69 Zn67 2.046 . S
O69 C68 1.254 . S
C70 O91 1.256 . S
C70 O92 1.244 . S
O71 Zn67 2.055 . S
O71 C93 1.259 . S
O72 Zn64 2.046 . S
O72 C93 1.254 . S
N73 Zn67 2.036 . S
N73 C74 1.298 . S
N73 N76 1.398 . S
C74 N73 1.298 . S
C74 N77 1.367 . S
C74 C87 1.481 . S
C75 N76 1.299 . S
C75 N77 1.379 . S
N76 N73 1.398 . S
N76 C75 1.299 . S
N77 C74 1.367 . S
N77 C75 1.379 . S
C78 N80 1.298 . S
C78 N82 1.367 . S
C78 C86 1.481 . S
C79 N81 1.299 . S
C79 N82 1.379 . S
N80 Zn64 2.036 . S
N80 C78 1.298 . S
N80 N81 1.398 . S
N81 C79 1.299 . S
N81 N80 1.398 . S
N82 C78 1.367 . S
N82 C79 1.379 . S
H83 C86 0.980 . S
H84 C86 0.981 . S
H85 C86 0.981 . S
C86 C78 1.481 . S
C86 H83 0.980 . S
C86 H84 0.981 . S
C86 H85 0.981 . S
C87 C74 1.481 . S
C87 H88 0.980 . S
C87 H89 0.981 . S
C87 H90 0.981 . S
H88 C87 0.980 . S
H89 C87 0.981 . S
H90 C87 0.981 . S
O91 Zn67 2.066 . S
O91 C70 1.256 . S
O92 Zn64 2.053 . S
O92 C70 1.244 . S
C93 O71 1.259 . S
C93 O72 1.254 . S
O94 Zn64 2.066 . S
O94 C66 1.256 . S
O95 C66 1.244 . S
O95 Zn67 2.053 . S
Zn96 O97 2.055 . S
Zn96 O104 2.046 . S
Zn96 N112 2.036 . S
Zn96 O124 2.053 . S
Zn96 O126 2.066 . S
O97 Zn96 2.055 . S
O97 C100 1.259 . S
C98 O126 1.256 . S
C98 O127 1.244 . S
Zn99 O101 2.046 . S
Zn99 O103 2.055 . S
Zn99 N105 2.036 . S
Zn99 O123 2.066 . S
Zn99 O127 2.053 . S
C100 O97 1.259 . S
C100 O101 1.254 . S
O101 Zn99 2.046 . S
O101 C100 1.254 . S
C102 O123 1.256 . S
C102 O124 1.244 . S
O103 Zn99 2.055 . S
O103 C125 1.259 . S
O104 Zn96 2.046 . S
O104 C125 1.254 . S
N105 Zn99 2.036 . S
N105 C106 1.298 . S
N105 N108 1.398 . S
C106 N105 1.298 . S
C106 N109 1.367 . S
C106 C119 1.481 . S
C107 N108 1.299 . S
C107 N109 1.379 . S
N108 N105 1.398 . S
N108 C107 1.299 . S
N109 C106 1.367 . S
N109 C107 1.379 . S
C110 N112 1.298 . S
C110 N114 1.367 . S
C110 C118 1.481 . S
C111 N113 1.299 . S
C111 N114 1.379 . S
N112 Zn96 2.036 . S
N112 C110 1.298 . S
N112 N113 1.398 . S
N113 C111 1.299 . S
N113 N112 1.398 . S
N114 C110 1.367 . S
N114 C111 1.379 . S
H115 C118 0.980 . S
H116 C118 0.981 . S
H117 C118 0.981 . S
C118 C110 1.481 . S
C118 H115 0.980 . S
C118 H116 0.981 . S
C118 H117 0.981 . S
C119 C106 1.481 . S
C119 H120 0.980 . S
C119 H121 0.981 . S
C119 H122 0.981 . S
H120 C119 0.980 . S
H121 C119 0.981 . S
H122 C119 0.981 . S
O123 Zn99 2.066 . S
O123 C102 1.256 . S
O124 Zn96 2.053 . S
O124 C102 1.244 . S
C125 O103 1.259 . S
C125 O104 1.254 . S
O126 Zn96 2.066 . S
O126 C98 1.256 . S
O127 C98 1.244 . S
O127 Zn99 2.053 . S
C128 C129 1.391 . S
C128 C130 1.394 . S
C128 H144 0.931 . S
C129 C128 1.391 . S
C129 C133 1.376 1_556 S
C130 C128 1.394 . S
C130 C131 1.369 . S
C130 C134 1.531 . S
C131 C130 1.369 . S
C131 C132 1.410 1_556 S
C131 C139 1.503 . S
C132 C131 1.410 1_554 S
C132 C133 1.392 . S
C132 C135 1.511 . S
C133 C129 1.376 1_554 S
C133 C132 1.392 . S
C133 H145 0.929 . S
C134 C130 1.531 . S
C134 H146 0.960 . S
C134 H147 0.962 . S
C134 H148 0.960 . S
C135 C132 1.511 . S
C135 H149 0.961 . S
C135 H150 0.961 . S
C135 H151 0.961 1_554 S
C136 C137 1.357 1_554 S
C136 C138 1.363 . S
C136 H152 0.931 . S
C137 C136 1.357 1_556 S
C137 C141 1.426 . S
C138 C136 1.363 . S
C138 C139 1.370 1_554 S
C138 C142 1.524 . S
C139 C131 1.503 . S
C139 C138 1.370 1_556 S
C139 C140 1.403 . S
C140 C139 1.403 . S
C140 C141 1.404 . S
C140 C143 1.539 . S
C141 C137 1.426 . S
C141 C140 1.404 . S
C141 H153 0.930 . S
C142 C138 1.524 . S
C142 H154 0.956 . S
C142 H155 0.961 . S
C142 H156 0.961 . S
C143 C140 1.539 . S
C143 H157 0.958 . S
C143 H158 0.961 . S
C143 H159 0.960 . S
H144 C128 0.931 . S
H145 C133 0.929 . S
H146 C134 0.960 . S
H147 C134 0.962 . S
H148 C134 0.960 . S
H149 C135 0.961 . S
H150 C135 0.961 . S
H151 C135 0.961 1_556 S
H152 C136 0.931 . S
H153 C141 0.930 . S
H154 C142 0.956 . S
H155 C142 0.961 . S
H156 C142 0.961 . S
H157 C143 0.958 . S
H158 C143 0.961 . S
H159 C143 0.960 . S
C160 C161 1.391 . S
C160 C162 1.394 . S
C160 H176 0.931 . S
C161 C160 1.391 . S
C161 C165 1.376 . S
C162 C160 1.394 . S
C162 C163 1.369 . S
C162 C166 1.531 . S
C163 C162 1.369 . S
C163 C164 1.410 . S
C163 C171 1.503 . S
C164 C163 1.410 . S
C164 C165 1.392 . S
C164 C167 1.511 . S
C165 C161 1.376 . S
C165 C164 1.392 . S
C165 H177 0.929 . S
C166 C162 1.531 . S
C166 H178 0.960 . S
C166 H179 0.962 . S
C166 H180 0.960 . S
C167 C164 1.511 . S
C167 H181 0.961 . S
C167 H182 0.961 . S
C167 H183 0.961 . S
C168 C169 1.370 . S
C168 C170 1.363 . S
C168 H184 0.931 . S
C169 C168 1.370 . S
C169 C173 1.408 . S
C170 C168 1.363 . S
C170 C171 1.370 . S
C170 C174 1.524 . S
C171 C163 1.503 . S
C171 C170 1.370 . S
C171 C172 1.403 . S
C172 C171 1.403 . S
C172 C173 1.404 . S
C172 C175 1.539 . S
C173 C169 1.408 . S
C173 C172 1.404 . S
C173 H185 0.930 . S
C174 C170 1.524 . S
C174 H186 0.956 . S
C174 H187 0.961 . S
C174 H188 0.961 . S
C175 C172 1.539 . S
C175 H189 0.958 . S
C175 H190 0.961 . S
C175 H191 0.960 . S
H176 C160 0.931 . S
H177 C165 0.929 . S
H178 C166 0.960 . S
H179 C166 0.962 . S
H180 C166 0.960 . S
H181 C167 0.961 . S
H182 C167 0.961 . S
H183 C167 0.961 . S
H184 C168 0.931 . S
H185 C173 0.930 . S
H186 C174 0.956 . S
H187 C174 0.961 . S
H188 C174 0.961 . S
H189 C175 0.958 . S
H190 C175 0.961 . S
H191 C175 0.960 . S
C192 C193 1.391 1_556 S
C192 C194 1.394 . S
C192 H208 0.931 . S
C193 C192 1.391 1_554 S
C193 C197 1.376 . S
C194 C192 1.394 . S
C194 C195 1.369 1_556 S
C194 C198 1.531 1_545 S
C195 C194 1.369 1_554 S
C195 C196 1.410 1_455 S
C195 C203 1.503 1_445 S
C196 C195 1.410 1_655 S
C196 C197 1.392 1_655 S
C196 C199 1.511 . S
C197 C193 1.376 . S
C197 C196 1.392 1_455 S
C197 H209 0.929 1_455 S
C198 C194 1.531 1_565 S
C198 H210 0.960 . S
C198 H211 0.962 . S
C198 H212 0.960 . S
C199 C196 1.511 . S
C199 H213 0.961 . S
C199 H214 0.961 . S
C199 H215 0.961 . S
C200 C201 1.370 1_556 S
C200 C202 1.363 . S
C200 H216 0.931 . S
C201 C200 1.370 1_554 S
C201 C205 1.408 . S
C202 C200 1.363 . S
C202 C203 1.370 1_556 S
C202 C206 1.524 . S
C203 C195 1.503 1_665 S
C203 C202 1.370 1_554 S
C203 C204 1.403 . S
C204 C203 1.403 . S
C204 C205 1.404 . S
C204 C207 1.539 1_655 S
C205 C201 1.408 . S
C205 C204 1.404 . S
C205 H217 0.930 . S
C206 C202 1.524 . S
C206 H218 0.956 . S
C206 H219 0.961 1_565 S
C206 H220 0.961 . S
C207 C204 1.539 1_455 S
C207 H221 0.958 . S
C207 H222 0.961 1_455 S
C207 H223 0.960 1_565 S
H208 C192 0.931 . S
H209 C197 0.929 1_655 S
H210 C198 0.960 . S
H211 C198 0.962 . S
H212 C198 0.960 . S
H213 C199 0.961 . S
H214 C199 0.961 . S
H215 C199 0.961 . S
H216 C200 0.931 . S
H217 C205 0.930 . S
H218 C206 0.956 . S
H219 C206 0.961 1_545 S
H220 C206 0.961 . S
H221 C207 0.958 . S
H222 C207 0.961 1_655 S
H223 C207 0.960 1_545 S
C224 C225 1.391 . S
C224 C226 1.394 . S
C224 H240 0.931 . S
C225 C224 1.391 . S
C225 C229 1.376 . S
C226 C224 1.394 . S
C226 C227 1.369 . S
C226 C230 1.531 1_545 S
C227 C226 1.369 . S
C227 C228 1.410 . S
C227 C235 1.503 1_645 S
C228 C227 1.410 . S
C228 C229 1.392 . S
C228 C231 1.511 1_655 S
C229 C225 1.376 . S
C229 C228 1.392 . S
C229 H241 0.929 . S
C230 C226 1.531 1_565 S
C230 H242 0.960 . S
C230 H243 0.962 . S
C230 H244 0.960 . S
C231 C228 1.511 1_455 S
C231 H245 0.961 . S
C231 H246 0.961 . S
C231 H247 0.961 . S
C232 C233 1.370 . S
C232 C234 1.363 1_455 S
C232 H248 0.931 . S
C233 C232 1.370 . S
C233 C237 1.408 . S
C234 C232 1.363 1_655 S
C234 C235 1.370 1_655 S
C234 C238 1.524 . S
C235 C227 1.503 1_465 S
C235 C234 1.370 1_455 S
C235 C236 1.403 . S
C236 C235 1.403 . S
C236 C237 1.404 . S
C236 C239 1.539 . S
C237 C233 1.408 . S
C237 C236 1.404 . S
C237 H249 0.930 . S
C238 C234 1.524 . S
C238 H250 0.956 . S
C238 H251 0.961 1_565 S
C238 H252 0.961 . S
C239 C236 1.539 . S
C239 H253 0.958 . S
C239 H254 0.961 . S
C239 H255 0.960 1_565 S
H240 C224 0.931 . S
H241 C229 0.929 . S
H242 C230 0.960 . S
H243 C230 0.962 . S
H244 C230 0.960 . S
H245 C231 0.961 . S
H246 C231 0.961 . S
H247 C231 0.961 . S
H248 C232 0.931 . S
H249 C237 0.930 . S
H250 C238 0.956 . S
H251 C238 0.961 1_545 S
H252 C238 0.961 . S
H253 C239 0.958 . S
H254 C239 0.961 . S
H255 C239 0.960 1_545 S
C256 C257 1.391 . S
C256 C258 1.394 . S
C256 H272 0.931 . S
C257 C256 1.391 . S
C257 C261 1.376 . S
C258 C256 1.394 . S
C258 C259 1.369 . S
C258 C262 1.531 . S
C259 C258 1.369 . S
C259 C260 1.410 . S
C259 C267 1.503 . S
C260 C259 1.410 . S
C260 C261 1.392 . S
C260 C263 1.511 . S
C261 C257 1.376 . S
C261 C260 1.392 . S
C261 H273 0.929 . S
C262 C258 1.531 . S
C262 H274 0.960 . S
C262 H275 0.962 . S
C262 H276 0.960 . S
C263 C260 1.511 . S
C263 H277 0.961 . S
C263 H278 0.961 . S
C263 H279 0.961 . S
C264 C265 1.370 . S
C264 C266 1.363 . S
C264 H280 0.931 . S
C265 C264 1.370 . S
C265 C269 1.408 . S
C266 C264 1.363 . S
C266 C267 1.370 . S
C266 C270 1.524 . S
C267 C259 1.503 . S
C267 C266 1.370 . S
C267 C268 1.403 . S
C268 C267 1.403 . S
C268 C269 1.404 . S
C268 C271 1.539 . S
C269 C265 1.408 . S
C269 C268 1.404 . S
C269 H281 0.930 . S
C270 C266 1.524 . S
C270 H282 0.956 . S
C270 H283 0.961 . S
C270 H284 0.961 . S
C271 C268 1.539 . S
C271 H285 0.958 . S
C271 H286 0.961 . S
C271 H287 0.960 . S
H272 C256 0.931 . S
H273 C261 0.929 . S
H274 C262 0.960 . S
H275 C262 0.962 . S
H276 C262 0.960 . S
H277 C263 0.961 . S
H278 C263 0.961 . S
H279 C263 0.961 . S
H280 C264 0.931 . S
H281 C269 0.930 . S
H282 C270 0.956 . S
H283 C270 0.961 . S
H284 C270 0.961 . S
H285 C271 0.958 . S
H286 C271 0.961 . S
H287 C271 0.960 . S
C288 C289 1.391 . S
C288 C290 1.394 . S
C288 H304 0.931 . S
C289 C288 1.391 . S
C289 C293 1.376 . S
C290 C288 1.394 . S
C290 C291 1.369 . S
C290 C294 1.531 . S
C291 C290 1.369 . S
C291 C292 1.410 . S
C291 C299 1.503 . S
C292 C291 1.410 . S
C292 C293 1.392 . S
C292 C295 1.511 . S
C293 C289 1.376 . S
C293 C292 1.392 . S
C293 H305 0.929 . S
C294 C290 1.531 . S
C294 H306 0.960 . S
C294 H307 0.962 . S
C294 H308 0.960 . S
C295 C292 1.511 . S
C295 H309 0.961 . S
C295 H310 0.961 . S
C295 H311 0.961 . S
C296 C297 1.370 . S
C296 C298 1.363 . S
C296 H312 0.931 . S
C297 C296 1.370 . S
C297 C301 1.408 . S
C298 C296 1.363 . S
C298 C299 1.370 . S
C298 C302 1.524 . S
C299 C291 1.503 . S
C299 C298 1.370 . S
C299 C300 1.403 . S
C300 C299 1.403 . S
C300 C301 1.404 . S
C300 C303 1.539 . S
C301 C297 1.408 . S
C301 C300 1.404 . S
C301 H313 0.930 . S
C302 C298 1.524 . S
C302 H314 0.956 . S
C302 H315 0.961 . S
C302 H316 0.961 . S
C303 C300 1.539 . S
C303 H317 0.958 . S
C303 H318 0.961 . S
C303 H319 0.960 . S
H304 C288 0.931 . S
H305 C293 0.929 . S
H306 C294 0.960 . S
H307 C294 0.962 . S
H308 C294 0.960 . S
H309 C295 0.961 . S
H310 C295 0.961 . S
H311 C295 0.961 . S
H312 C296 0.931 . S
H313 C301 0.930 . S
H314 C302 0.956 . S
H315 C302 0.961 . S
H316 C302 0.961 . S
H317 C303 0.958 . S
H318 C303 0.961 . S
H319 C303 0.960 . S
C320 C321 1.391 . S
C320 C322 1.394 . S
C320 H336 0.931 . S
C321 C320 1.391 . S
C321 C325 1.376 . S
C322 C320 1.394 . S
C322 C323 1.369 . S
C322 C326 1.531 . S
C323 C322 1.369 . S
C323 C324 1.410 . S
C323 C331 1.503 . S
C324 C323 1.410 . S
C324 C325 1.392 . S
C324 C327 1.511 . S
C325 C321 1.376 . S
C325 C324 1.392 . S
C325 H337 0.929 . S
C326 C322 1.531 . S
C326 H338 0.960 . S
C326 H339 0.962 . S
C326 H340 0.960 . S
C327 C324 1.511 . S
C327 H341 0.961 . S
C327 H342 0.961 . S
C327 H343 0.961 . S
C328 C329 1.370 . S
C328 C330 1.363 . S
C328 H344 0.931 . S
C329 C328 1.370 . S
C329 C333 1.408 . S
C330 C328 1.363 . S
C330 C331 1.370 . S
C330 C334 1.524 . S
C331 C323 1.503 . S
C331 C330 1.370 . S
C331 C332 1.403 . S
C332 C331 1.403 . S
C332 C333 1.404 . S
C332 C335 1.539 . S
C333 C329 1.408 . S
C333 C332 1.404 . S
C333 H345 0.930 . S
C334 C330 1.524 . S
C334 H346 0.956 . S
C334 H347 0.961 . S
C334 H348 0.961 . S
C335 C332 1.539 . S
C335 H349 0.958 . S
C335 H350 0.961 . S
C335 H351 0.960 . S
H336 C320 0.931 . S
H337 C325 0.929 . S
H338 C326 0.960 . S
H339 C326 0.962 . S
H340 C326 0.960 . S
H341 C327 0.961 . S
H342 C327 0.961 . S
H343 C327 0.961 . S
H344 C328 0.931 . S
H345 C333 0.930 . S
H346 C334 0.956 . S
H347 C334 0.961 . S
H348 C334 0.961 . S
H349 C335 0.958 . S
H350 C335 0.961 . S
H351 C335 0.960 . S
C352 C353 1.391 . S
C352 C354 1.394 . S
C352 H368 0.931 . S
C353 C352 1.391 . S
C353 C357 1.376 . S
C354 C352 1.394 . S
C354 C355 1.369 . S
C354 C358 1.531 . S
C355 C354 1.369 . S
C355 C356 1.410 . S
C355 C363 1.503 . S
C356 C355 1.410 . S
C356 C357 1.392 . S
C356 C359 1.511 . S
C357 C353 1.376 . S
C357 C356 1.392 . S
C357 H369 0.929 . S
C358 C354 1.531 . S
C358 H370 0.960 . S
C358 H371 0.962 . S
C358 H372 0.960 . S
C359 C356 1.511 . S
C359 H373 0.961 . S
C359 H374 0.961 . S
C359 H375 0.961 . S
C360 C361 1.370 . S
C360 C362 1.363 . S
C360 H376 0.931 . S
C361 C360 1.370 . S
C361 C365 1.408 . S
C362 C360 1.363 . S
C362 C363 1.370 . S
C362 C366 1.524 . S
C363 C355 1.503 . S
C363 C362 1.370 . S
C363 C364 1.403 . S
C364 C363 1.403 . S
C364 C365 1.404 . S
C364 C367 1.539 . S
C365 C361 1.408 . S
C365 C364 1.404 . S
C365 H377 0.930 . S
C366 C362 1.524 . S
C366 H378 0.956 . S
C366 H379 0.961 . S
C366 H380 0.961 . S
C367 C364 1.539 . S
C367 H381 0.958 . S
C367 H382 0.961 . S
C367 H383 0.960 . S
H368 C352 0.931 . S
H369 C357 0.929 . S
H370 C358 0.960 . S
H371 C358 0.962 . S
H372 C358 0.960 . S
H373 C359 0.961 . S
H374 C359 0.961 . S
H375 C359 0.961 . S
H376 C360 0.931 . S
H377 C365 0.930 . S
H378 C366 0.956 . S
H379 C366 0.961 . S
H380 C366 0.961 . S
H381 C367 0.958 . S
H382 C367 0.961 . S
H383 C367 0.960 . S
C384 C385 1.399 . S
C384 C386 1.391 1_655 S
C384 H400 0.926 1_655 S
C385 C384 1.399 . S
C385 C389 1.376 . S
C386 C384 1.391 1_455 S
C386 C387 1.369 1_455 S
C386 C390 1.531 . S
C387 C386 1.369 1_655 S
C387 C388 1.410 . S
C387 C395 1.503 1_655 S
C388 C387 1.410 . S
C388 C389 1.392 . S
C388 C391 1.511 . S
C389 C385 1.376 . S
C389 C388 1.392 . S
C389 H401 0.929 . S
C390 C386 1.531 . S
C390 H402 0.960 . S
C390 H403 0.962 . S
C390 H404 0.960 . S
C391 C388 1.511 . S
C391 H405 0.961 . S
C391 H406 0.961 . S
C391 H407 0.961 . S
C392 C393 1.370 . S
C392 C394 1.363 . S
C392 H408 0.931 . S
C393 C392 1.370 . S
C393 C397 1.408 . S
C394 C392 1.363 . S
C394 C395 1.370 . S
C394 C398 1.524 . S
C395 C387 1.503 1_455 S
C395 C394 1.370 . S
C395 C396 1.403 . S
C396 C395 1.403 . S
C396 C397 1.404 . S
C396 C399 1.539 1_455 S
C397 C393 1.408 . S
C397 C396 1.404 . S
C397 H409 0.930 . S
C398 C394 1.524 . S
C398 H410 0.956 . S
C398 H411 0.961 . S
C398 H412 0.961 . S
C399 C396 1.539 1_655 S
C399 H413 0.958 1_655 S
C399 H414 0.961 . S
C399 H415 0.960 . S
H400 C384 0.926 1_455 S
H401 C389 0.929 . S
H402 C390 0.960 . S
H403 C390 0.962 . S
H404 C390 0.960 . S
H405 C391 0.961 . S
H406 C391 0.961 . S
H407 C391 0.961 . S
H408 C392 0.931 . S
H409 C397 0.930 . S
H410 C398 0.956 . S
H411 C398 0.961 . S
H412 C398 0.961 . S
H413 C399 0.958 1_455 S
H414 C399 0.961 . S
H415 C399 0.960 . S
C416 C417 1.391 . S
C416 C418 1.394 . S
C416 H432 0.931 . S
C417 C416 1.391 . S
C417 C421 1.376 1_655 S
C418 C416 1.394 . S
C418 C419 1.361 1_655 S
C418 C422 1.531 . S
C419 C418 1.361 1_455 S
C419 C420 1.414 . S
C419 C427 1.507 . S
C420 C419 1.414 . S
C420 C421 1.392 . S
C420 C423 1.511 . S
C421 C417 1.376 1_455 S
C421 C420 1.392 . S
C421 H433 0.929 . S
C422 C418 1.531 . S
C422 H434 0.960 . S
C422 H435 0.962 . S
C422 H436 0.960 . S
C423 C420 1.511 . S
C423 H437 0.961 . S
C423 H438 0.961 . S
C423 H439 0.961 . S
C424 C425 1.370 . S
C424 C426 1.363 . S
C424 H440 0.931 . S
C425 C424 1.370 . S
C425 C429 1.408 . S
C426 C424 1.363 . S
C426 C427 1.370 . S
C426 C430 1.524 1_455 S
C427 C419 1.507 . S
C427 C426 1.370 . S
C427 C428 1.403 . S
C428 C427 1.403 . S
C428 C429 1.404 . S
C428 C431 1.539 . S
C429 C425 1.408 . S
C429 C428 1.404 . S
C429 H441 0.930 . S
C430 C426 1.524 1_655 S
C430 H442 0.956 . S
C430 H443 0.961 . S
C430 H444 0.961 . S
C431 C428 1.539 . S
C431 H445 0.958 . S
C431 H446 0.961 . S
C431 H447 0.960 . S
H432 C416 0.931 . S
H433 C421 0.929 . S
H434 C422 0.960 . S
H435 C422 0.962 . S
H436 C422 0.960 . S
H437 C423 0.961 . S
H438 C423 0.961 . S
H439 C423 0.961 . S
H440 C424 0.931 . S
H441 C429 0.930 . S
H442 C430 0.956 . S
H443 C430 0.961 . S
H444 C430 0.961 . S
H445 C431 0.958 . S
H446 C431 0.961 . S
H447 C431 0.960 . S
C448 C449 1.391 . S
C448 C450 1.394 1_655 S
C448 H464 0.931 1_655 S
C449 C448 1.391 . S
C449 C453 1.376 . S
C450 C448 1.394 1_455 S
C450 C451 1.369 1_455 S
C450 C454 1.531 . S
C451 C450 1.369 1_655 S
C451 C452 1.410 . S
C451 C459 1.503 1_655 S
C452 C451 1.410 . S
C452 C453 1.392 . S
C452 C455 1.511 . S
C453 C449 1.376 . S
C453 C452 1.392 . S
C453 H465 0.929 . S
C454 C450 1.531 . S
C454 H466 0.960 . S
C454 H467 0.962 . S
C454 H468 0.960 . S
C455 C452 1.511 . S
C455 H469 0.961 . S
C455 H470 0.961 . S
C455 H471 0.961 . S
C456 C457 1.370 . S
C456 C458 1.363 . S
C456 H472 0.931 . S
C457 C456 1.370 . S
C457 C461 1.408 . S
C458 C456 1.363 . S
C458 C459 1.370 . S
C458 C462 1.524 . S
C459 C451 1.503 1_455 S
C459 C458 1.370 . S
C459 C460 1.403 . S
C460 C459 1.403 . S
C460 C461 1.404 . S
C460 C463 1.539 1_455 S
C461 C457 1.408 . S
C461 C460 1.404 . S
C461 H473 0.930 . S
C462 C458 1.524 . S
C462 H474 0.956 . S
C462 H475 0.961 . S
C462 H476 0.961 . S
C463 C460 1.539 1_655 S
C463 H477 0.958 . S
C463 H478 0.961 . S
C463 H479 0.960 . S
H464 C448 0.931 1_455 S
H465 C453 0.929 . S
H466 C454 0.960 . S
H467 C454 0.962 . S
H468 C454 0.960 . S
H469 C455 0.961 . S
H470 C455 0.961 . S
H471 C455 0.961 . S
H472 C456 0.931 . S
H473 C461 0.930 . S
H474 C462 0.956 . S
H475 C462 0.961 . S
H476 C462 0.961 . S
H477 C463 0.958 . S
H478 C463 0.961 . S
H479 C463 0.960 . S
C480 C481 1.391 . S
C480 C482 1.394 . S
C480 H496 0.931 . S
C481 C480 1.391 . S
C481 C485 1.376 . S
C482 C480 1.394 . S
C482 C483 1.369 . S
C482 C486 1.531 1_455 S
C483 C482 1.369 . S
C483 C484 1.410 . S
C483 C491 1.503 . S
C484 C483 1.410 . S
C484 C485 1.392 . S
C484 C487 1.511 . S
C485 C481 1.376 . S
C485 C484 1.392 . S
C485 H497 0.929 . S
C486 C482 1.531 1_655 S
C486 H498 0.960 . S
C486 H499 0.962 . S
C486 H500 0.960 . S
C487 C484 1.511 . S
C487 H501 0.961 . S
C487 H502 0.961 . S
C487 H503 0.961 . S
C488 C489 1.370 . S
C488 C490 1.363 . S
C488 H504 0.931 . S
C489 C488 1.370 . S
C489 C493 1.408 . S
C490 C488 1.363 . S
C490 C491 1.370 1_655 S
C490 C494 1.524 . S
C491 C483 1.503 . S
C491 C490 1.370 1_455 S
C491 C492 1.403 . S
C492 C491 1.403 . S
C492 C493 1.404 1_455 S
C492 C495 1.539 . S
C493 C489 1.408 . S
C493 C492 1.404 1_655 S
C493 H505 0.930 . S
C494 C490 1.524 . S
C494 H506 0.956 . S
C494 H507 0.961 . S
C494 H508 0.961 . S
C495 C492 1.539 . S
C495 H509 0.958 . S
C495 H510 0.961 . S
C495 H511 0.960 . S
H496 C480 0.931 . S
H497 C485 0.929 . S
H498 C486 0.960 . S
H499 C486 0.962 . S
H500 C486 0.960 . S
H501 C487 0.961 . S
H502 C487 0.961 . S
H503 C487 0.961 . S
H504 C488 0.931 . S
H505 C493 0.930 . S
H506 C494 0.956 . S
H507 C494 0.961 . S
H508 C494 0.961 . S
H509 C495 0.958 . S
H510 C495 0.961 . S
H511 C495 0.960 . S
C129 N45 1.576 . S
C137 N18 1.569 1_556 S
C161 N77 1.546 . S
C169 N114 1.610 . S
C193 N13 1.623 1_554 S
C201 N50 1.559 . S
C225 N109 1.536 . S
C233 N82 1.611 . S
C257 C98 0.976 . S
C265 C29 0.975 . S
C289 C38 0.955 . S
C297 C68 0.986 . S
C321 C34 1.001 . S
C329 C93 1.011 . S
C353 C102 1.011 . S
C361 C4 0.998 . S
C385 C61 0.967 . S
C393 C66 0.976 . S
C417 C100 0.995 . S
C425 C6 0.974 . S
C449 C125 1.005 . S
C457 C2 1.010 . S
C481 C70 0.995 . S
C489 C36 1.012 . S
