# Generated by pormake.
# Topology wna, (6)-cn, num edge types: 1
# Building blocks:
#     Node 0, Type 0, BuildingBlock: GEDQOX_clean_sbu_0, # of connection points: 6
#     Node 1, Type 0, BuildingBlock: GEDQOX_clean_sbu_0, # of connection points: 6
#     Node 2, Type 0, BuildingBlock: GEDQOX_clean_sbu_0, # of connection points: 6
#     Node 3, Type 0, BuildingBlock: GEDQOX_clean_sbu_0, # of connection points: 6
#     Node 4, Type 0, BuildingBlock: GEDQOX_clean_sbu_0, # of connection points: 6
#     Node 5, Type 0, BuildingBlock: GEDQOX_clean_sbu_0, # of connection points: 6
#     Node 6, Type 0, BuildingBlock: GEDQOX_clean_sbu_0, # of connection points: 6
#     Node 7, Type 0, BuildingBlock: GEDQOX_clean_sbu_0, # of connection points: 6
#     Node 8, Type 0, BuildingBlock: GEDQOX_clean_sbu_0, # of connection points: 6
#     Node 9, Type 0, BuildingBlock: GEDQOX_clean_sbu_0, # of connection points: 6
#     Node 10, Type 0, BuildingBlock: GEDQOX_clean_sbu_0, # of connection points: 6
#     Node 11, Type 0, BuildingBlock: GEDQOX_clean_sbu_0, # of connection points: 6
#     Node 12, Type 0, BuildingBlock: GEDQOX_clean_sbu_0, # of connection points: 6
#     Node 13, Type 0, BuildingBlock: GEDQOX_clean_sbu_0, # of connection points: 6
#     Node 14, Type 0, BuildingBlock: GEDQOX_clean_sbu_0, # of connection points: 6
#     Node 15, Type 0, BuildingBlock: GEDQOX_clean_sbu_0, # of connection points: 6
#     Node 16, Type 0, BuildingBlock: GEDQOX_clean_sbu_0, # of connection points: 6
#     Node 17, Type 0, BuildingBlock: GEDQOX_clean_sbu_0, # of connection points: 6
#     Node 18, Type 0, BuildingBlock: GEDQOX_clean_sbu_0, # of connection points: 6
#     Node 19, Type 0, BuildingBlock: GEDQOX_clean_sbu_0, # of connection points: 6
#     Node 20, Type 0, BuildingBlock: GEDQOX_clean_sbu_0, # of connection points: 6
#     Node 21, Type 0, BuildingBlock: GEDQOX_clean_sbu_0, # of connection points: 6
#     Node 22, Type 0, BuildingBlock: GEDQOX_clean_sbu_0, # of connection points: 6
#     Node 23, Type 0, BuildingBlock: GEDQOX_clean_sbu_0, # of connection points: 6
#     Node 24, Type 0, BuildingBlock: GEDQOX_clean_sbu_0, # of connection points: 6
#     Node 25, Type 0, BuildingBlock: GEDQOX_clean_sbu_0, # of connection points: 6
#     Node 26, Type 0, BuildingBlock: GEDQOX_clean_sbu_0, # of connection points: 6
#     Node 27, Type 0, BuildingBlock: GEDQOX_clean_sbu_0, # of connection points: 6
#     Node 28, Type 0, BuildingBlock: GEDQOX_clean_sbu_0, # of connection points: 6
#     Node 29, Type 0, BuildingBlock: GEDQOX_clean_sbu_0, # of connection points: 6
#     Node 30, Type 0, BuildingBlock: GEDQOX_clean_sbu_0, # of connection points: 6
#     Node 31, Type 0, BuildingBlock: GEDQOX_clean_sbu_0, # of connection points: 6
#     Node 32, Type 0, BuildingBlock: GEDQOX_clean_sbu_0, # of connection points: 6
#     Node 33, Type 0, BuildingBlock: GEDQOX_clean_sbu_0, # of connection points: 6
#     Node 34, Type 0, BuildingBlock: GEDQOX_clean_sbu_0, # of connection points: 6
#     Node 35, Type 0, BuildingBlock: GEDQOX_clean_sbu_0, # of connection points: 6
#     Edge 36, Type (0, 0), BuildingBlock: AJUNOK_clean_linker_0, # of connection points: 2
#     Edge 37, Type (0, 0), BuildingBlock: AJUNOK_clean_linker_0, # of connection points: 2
#     Edge 38, Type (0, 0), BuildingBlock: AJUNOK_clean_linker_0, # of connection points: 2
#     Edge 39, Type (0, 0), BuildingBlock: AJUNOK_clean_linker_0, # of connection points: 2
#     Edge 40, Type (0, 0), BuildingBlock: AJUNOK_clean_linker_0, # of connection points: 2
#     Edge 41, Type (0, 0), BuildingBlock: AJUNOK_clean_linker_0, # of connection points: 2
#     Edge 42, Type (0, 0), BuildingBlock: AJUNOK_clean_linker_0, # of connection points: 2
#     Edge 43, Type (0, 0), BuildingBlock: AJUNOK_clean_linker_0, # of connection points: 2
#     Edge 44, Type (0, 0), BuildingBlock: AJUNOK_clean_linker_0, # of connection points: 2
#     Edge 45, Type (0, 0), BuildingBlock: AJUNOK_clean_linker_0, # of connection points: 2
#     Edge 46, Type (0, 0), BuildingBlock: AJUNOK_clean_linker_0, # of connection points: 2
#     Edge 47, Type (0, 0), BuildingBlock: AJUNOK_clean_linker_0, # of connection points: 2
#     Edge 48, Type (0, 0), BuildingBlock: AJUNOK_clean_linker_0, # of connection points: 2
#     Edge 49, Type (0, 0), BuildingBlock: AJUNOK_clean_linker_0, # of connection points: 2
#     Edge 50, Type (0, 0), BuildingBlock: AJUNOK_clean_linker_0, # of connection points: 2
#     Edge 51, Type (0, 0), BuildingBlock: AJUNOK_clean_linker_0, # of connection points: 2
#     Edge 52, Type (0, 0), BuildingBlock: AJUNOK_clean_linker_0, # of connection points: 2
#     Edge 53, Type (0, 0), BuildingBlock: AJUNOK_clean_linker_0, # of connection points: 2
#     Edge 54, Type (0, 0), BuildingBlock: AJUNOK_clean_linker_0, # of connection points: 2
#     Edge 55, Type (0, 0), BuildingBlock: AJUNOK_clean_linker_0, # of connection points: 2
#     Edge 56, Type (0, 0), BuildingBlock: AJUNOK_clean_linker_0, # of connection points: 2
#     Edge 57, Type (0, 0), BuildingBlock: AJUNOK_clean_linker_0, # of connection points: 2
#     Edge 58, Type (0, 0), BuildingBlock: AJUNOK_clean_linker_0, # of connection points: 2
#     Edge 59, Type (0, 0), BuildingBlock: AJUNOK_clean_linker_0, # of connection points: 2
#     Edge 60, Type (0, 0), BuildingBlock: AJUNOK_clean_linker_0, # of connection points: 2
#     Edge 61, Type (0, 0), BuildingBlock: AJUNOK_clean_linker_0, # of connection points: 2
#     Edge 62, Type (0, 0), BuildingBlock: AJUNOK_clean_linker_0, # of connection points: 2
#     Edge 63, Type (0, 0), BuildingBlock: AJUNOK_clean_linker_0, # of connection points: 2
#     Edge 64, Type (0, 0), BuildingBlock: AJUNOK_clean_linker_0, # of connection points: 2
#     Edge 65, Type (0, 0), BuildingBlock: AJUNOK_clean_linker_0, # of connection points: 2
#     Edge 66, Type (0, 0), BuildingBlock: AJUNOK_clean_linker_0, # of connection points: 2
#     Edge 67, Type (0, 0), BuildingBlock: AJUNOK_clean_linker_0, # of connection points: 2
#     Edge 68, Type (0, 0), BuildingBlock: AJUNOK_clean_linker_0, # of connection points: 2
#     Edge 69, Type (0, 0), BuildingBlock: AJUNOK_clean_linker_0, # of connection points: 2
#     Edge 70, Type (0, 0), BuildingBlock: AJUNOK_clean_linker_0, # of connection points: 2
#     Edge 71, Type (0, 0), BuildingBlock: AJUNOK_clean_linker_0, # of connection points: 2
#     Edge 72, Type (0, 0), BuildingBlock: AJUNOK_clean_linker_0, # of connection points: 2
#     Edge 73, Type (0, 0), BuildingBlock: AJUNOK_clean_linker_0, # of connection points: 2
#     Edge 74, Type (0, 0), BuildingBlock: AJUNOK_clean_linker_0, # of connection points: 2
#     Edge 75, Type (0, 0), BuildingBlock: AJUNOK_clean_linker_0, # of connection points: 2
#     Edge 76, Type (0, 0), BuildingBlock: AJUNOK_clean_linker_0, # of connection points: 2
#     Edge 77, Type (0, 0), BuildingBlock: AJUNOK_clean_linker_0, # of connection points: 2
#     Edge 78, Type (0, 0), BuildingBlock: AJUNOK_clean_linker_0, # of connection points: 2
#     Edge 79, Type (0, 0), BuildingBlock: AJUNOK_clean_linker_0, # of connection points: 2
#     Edge 80, Type (0, 0), BuildingBlock: AJUNOK_clean_linker_0, # of connection points: 2
#     Edge 81, Type (0, 0), BuildingBlock: AJUNOK_clean_linker_0, # of connection points: 2
#     Edge 82, Type (0, 0), BuildingBlock: AJUNOK_clean_linker_0, # of connection points: 2
#     Edge 83, Type (0, 0), BuildingBlock: AJUNOK_clean_linker_0, # of connection points: 2
#     Edge 84, Type (0, 0), BuildingBlock: AJUNOK_clean_linker_0, # of connection points: 2
#     Edge 85, Type (0, 0), BuildingBlock: AJUNOK_clean_linker_0, # of connection points: 2
#     Edge 86, Type (0, 0), BuildingBlock: AJUNOK_clean_linker_0, # of connection points: 2
#     Edge 87, Type (0, 0), BuildingBlock: AJUNOK_clean_linker_0, # of connection points: 2
#     Edge 88, Type (0, 0), BuildingBlock: AJUNOK_clean_linker_0, # of connection points: 2
#     Edge 89, Type (0, 0), BuildingBlock: AJUNOK_clean_linker_0, # of connection points: 2
#     Edge 90, Type (0, 0), BuildingBlock: AJUNOK_clean_linker_0, # of connection points: 2
#     Edge 91, Type (0, 0), BuildingBlock: AJUNOK_clean_linker_0, # of connection points: 2
#     Edge 92, Type (0, 0), BuildingBlock: AJUNOK_clean_linker_0, # of connection points: 2
#     Edge 93, Type (0, 0), BuildingBlock: AJUNOK_clean_linker_0, # of connection points: 2
#     Edge 94, Type (0, 0), BuildingBlock: AJUNOK_clean_linker_0, # of connection points: 2
#     Edge 95, Type (0, 0), BuildingBlock: AJUNOK_clean_linker_0, # of connection points: 2
#     Edge 96, Type (0, 0), BuildingBlock: AJUNOK_clean_linker_0, # of connection points: 2
#     Edge 97, Type (0, 0), BuildingBlock: AJUNOK_clean_linker_0, # of connection points: 2
#     Edge 98, Type (0, 0), BuildingBlock: AJUNOK_clean_linker_0, # of connection points: 2
#     Edge 99, Type (0, 0), BuildingBlock: AJUNOK_clean_linker_0, # of connection points: 2
#     Edge 100, Type (0, 0), BuildingBlock: AJUNOK_clean_linker_0, # of connection points: 2
#     Edge 101, Type (0, 0), BuildingBlock: AJUNOK_clean_linker_0, # of connection points: 2
#     Edge 102, Type (0, 0), BuildingBlock: AJUNOK_clean_linker_0, # of connection points: 2
#     Edge 103, Type (0, 0), BuildingBlock: AJUNOK_clean_linker_0, # of connection points: 2
#     Edge 104, Type (0, 0), BuildingBlock: AJUNOK_clean_linker_0, # of connection points: 2
#     Edge 105, Type (0, 0), BuildingBlock: AJUNOK_clean_linker_0, # of connection points: 2
#     Edge 106, Type (0, 0), BuildingBlock: AJUNOK_clean_linker_0, # of connection points: 2
#     Edge 107, Type (0, 0), BuildingBlock: AJUNOK_clean_linker_0, # of connection points: 2
#     Edge 108, Type (0, 0), BuildingBlock: AJUNOK_clean_linker_0, # of connection points: 2
#     Edge 109, Type (0, 0), BuildingBlock: AJUNOK_clean_linker_0, # of connection points: 2
#     Edge 110, Type (0, 0), BuildingBlock: AJUNOK_clean_linker_0, # of connection points: 2
#     Edge 111, Type (0, 0), BuildingBlock: AJUNOK_clean_linker_0, # of connection points: 2
#     Edge 112, Type (0, 0), BuildingBlock: AJUNOK_clean_linker_0, # of connection points: 2
#     Edge 113, Type (0, 0), BuildingBlock: AJUNOK_clean_linker_0, # of connection points: 2
#     Edge 114, Type (0, 0), BuildingBlock: AJUNOK_clean_linker_0, # of connection points: 2
#     Edge 115, Type (0, 0), BuildingBlock: AJUNOK_clean_linker_0, # of connection points: 2
#     Edge 116, Type (0, 0), BuildingBlock: AJUNOK_clean_linker_0, # of connection points: 2
#     Edge 117, Type (0, 0), BuildingBlock: AJUNOK_clean_linker_0, # of connection points: 2
#     Edge 118, Type (0, 0), BuildingBlock: AJUNOK_clean_linker_0, # of connection points: 2
#     Edge 119, Type (0, 0), BuildingBlock: AJUNOK_clean_linker_0, # of connection points: 2
#     Edge 120, Type (0, 0), BuildingBlock: AJUNOK_clean_linker_0, # of connection points: 2
#     Edge 121, Type (0, 0), BuildingBlock: AJUNOK_clean_linker_0, # of connection points: 2
#     Edge 122, Type (0, 0), BuildingBlock: AJUNOK_clean_linker_0, # of connection points: 2
#     Edge 123, Type (0, 0), BuildingBlock: AJUNOK_clean_linker_0, # of connection points: 2
#     Edge 124, Type (0, 0), BuildingBlock: AJUNOK_clean_linker_0, # of connection points: 2
#     Edge 125, Type (0, 0), BuildingBlock: AJUNOK_clean_linker_0, # of connection points: 2
#     Edge 126, Type (0, 0), BuildingBlock: AJUNOK_clean_linker_0, # of connection points: 2
#     Edge 127, Type (0, 0), BuildingBlock: AJUNOK_clean_linker_0, # of connection points: 2
#     Edge 128, Type (0, 0), BuildingBlock: AJUNOK_clean_linker_0, # of connection points: 2
#     Edge 129, Type (0, 0), BuildingBlock: AJUNOK_clean_linker_0, # of connection points: 2
#     Edge 130, Type (0, 0), BuildingBlock: AJUNOK_clean_linker_0, # of connection points: 2
#     Edge 131, Type (0, 0), BuildingBlock: AJUNOK_clean_linker_0, # of connection points: 2
#     Edge 132, Type (0, 0), BuildingBlock: AJUNOK_clean_linker_0, # of connection points: 2
#     Edge 133, Type (0, 0), BuildingBlock: AJUNOK_clean_linker_0, # of connection points: 2
#     Edge 134, Type (0, 0), BuildingBlock: AJUNOK_clean_linker_0, # of connection points: 2
#     Edge 135, Type (0, 0), BuildingBlock: AJUNOK_clean_linker_0, # of connection points: 2
#     Edge 136, Type (0, 0), BuildingBlock: AJUNOK_clean_linker_0, # of connection points: 2
#     Edge 137, Type (0, 0), BuildingBlock: AJUNOK_clean_linker_0, # of connection points: 2
#     Edge 138, Type (0, 0), BuildingBlock: AJUNOK_clean_linker_0, # of connection points: 2
#     Edge 139, Type (0, 0), BuildingBlock: AJUNOK_clean_linker_0, # of connection points: 2
#     Edge 140, Type (0, 0), BuildingBlock: AJUNOK_clean_linker_0, # of connection points: 2
#     Edge 141, Type (0, 0), BuildingBlock: AJUNOK_clean_linker_0, # of connection points: 2
#     Edge 142, Type (0, 0), BuildingBlock: AJUNOK_clean_linker_0, # of connection points: 2
#     Edge 143, Type (0, 0), BuildingBlock: AJUNOK_clean_linker_0, # of connection points: 2
# Relax obj value: 0.314
# Max RMSD: 0.246
# Mean RMSD: 0.211
data_MOF--net-wna--node1-GEDQOX_clean_sbu_0--edge1-AJUNOK_clean_linker_0
_symmetry_space_group_name_H-M    P1
_symmetry_Int_Tables_number       1
_symmetry_cell_setting            triclinic
loop_
_symmetry_equiv_pos_as_xyz
'x, y, z'
_cell_length_a     33.528731
_cell_length_b     33.675298
_cell_length_c     91.639596
_cell_angle_alpha  89.989566
_cell_angle_beta   89.736816
_cell_angle_gamma 119.96687
loop_
_atom_site_label
_atom_site_type_symbol
_atom_site_fract_x
_atom_site_fract_y
_atom_site_fract_z
_atom_type_partial_charge
Nd0 Nd 0.30072 0.39574 0.20872 0.0
Nd1 Nd 0.22502 0.32296 0.18981 0.0
C2 C 0.3543 0.47 0.22393 0.0
C3 C 0.38046 0.51905 0.22114 0.0
C4 C 0.36802 0.53587 0.20903 0.0
C5 C 0.40249 0.56522 0.19944 0.0
C6 C 0.44676 0.57241 0.20167 0.0
C7 C 0.45979 0.57309 0.21628 0.0
C8 C 0.42598 0.54321 0.22604 0.0
C9 C 0.29563 0.31343 0.2093 0.0
C10 C 0.31496 0.38084 0.17252 0.0
C11 C 0.15989 0.25133 0.17688 0.0
C12 C 0.11352 0.22079 0.18211 0.0
C13 C 1.10197 0.17647 0.18648 0.0
C14 C 1.0608 0.14918 0.19369 0.0
C15 C 1.03074 0.16592 0.19643 0.0
C16 C 1.04214 0.21016 0.19215 0.0
C17 C 1.08345 0.23762 0.18502 0.0
C18 C 0.23545 0.40932 0.18857 0.0
C19 C 0.20499 0.32146 0.22502 0.0
O20 O 0.30965 0.45179 0.22319 0.0
O21 O 0.36945 0.44563 0.21716 0.0
O22 O 0.30542 0.33832 0.22094 0.0
O23 O 0.29167 0.33311 0.19832 0.0
O24 O 0.32623 0.41107 0.1836 0.0
O25 O 0.28408 0.33804 0.17484 0.0
O26 O 0.19183 0.24968 0.18459 0.0
O27 O 0.16953 0.29305 0.17355 0.0
O28 O 0.22694 0.38321 0.17731 0.0
O29 O 0.23614 0.38876 0.19991 0.0
O30 O 0.18968 0.30022 0.21242 0.0
O31 O 0.24495 0.35943 0.2261 0.0
H32 H 0.33256 0.52029 0.20568 0.0
H33 H 0.3928 0.57135 0.18888 0.0
H34 H 0.49499 0.58357 0.21877 0.0
H35 H 0.4363 0.53242 0.23577 0.0
H36 H 0.12518 0.16333 0.18455 0.0
H37 H 1.05165 0.11443 0.1966 0.0
H38 H 1.01856 0.22288 0.19403 0.0
H39 H 1.09192 0.27206 0.18199 0.0
Nd40 Nd 0.78029 0.93139 0.20672 0.0
Nd41 Nd 0.86176 0.92765 0.19201 0.0
C42 C 0.71193 0.91501 0.22468 0.0
C43 C 0.66264 0.89806 0.22376 0.0
C44 C 0.63407 0.85868 0.2157 0.0
C45 C 0.59877 0.85721 0.2073 0.0
C46 C 0.59032 0.89384 0.20797 0.0
C47 C 0.61176 0.92696 0.21915 0.0
C48 C 0.64794 0.92909 0.22694 0.0
C49 C 0.8564 1.01241 0.20394 0.0
C50 C 0.7899 0.93915 0.17104 0.0
C51 C 0.93542 0.93936 0.1788 0.0
C52 C 0.96659 0.92656 0.18538 0.0
C53 C 1.01418 0.95487 0.18392 0.0
C54 C 1.04343 0.94482 0.19181 0.0
C55 C 1.02507 0.90695 0.20124 0.0
C56 C 0.97759 0.87944 0.203 0.0
C57 C 0.94844 0.88927 0.19514 0.0
C58 C 0.78211 0.84784 0.19656 0.0
C59 C 0.85442 0.91287 0.22628 0.0
O60 O 0.72609 0.88564 0.22251 0.0
O61 O 0.73744 0.95422 0.21797 0.0
O62 O 0.81594 1.00762 0.20202 0.0
O63 O 0.85567 0.9761 0.20748 0.0
O64 O 0.75913 0.92426 0.18197 0.0
O65 O 0.83372 0.95328 0.17362 0.0
O66 O 0.93425 0.97309 0.18554 0.0
O67 O 0.8946 0.90477 0.17573 0.0
O68 O 0.82141 0.84924 0.19792 0.0
O69 O 0.78743 0.88471 0.19199 0.0
O70 O 0.88278 0.92402 0.21511 0.0
O71 O 0.81352 0.90963 0.2251 0.0
H72 H 0.64196 0.83158 0.21486 0.0
H73 H 0.58123 0.83001 0.19942 0.0
H74 H 0.60573 0.95544 0.2206 0.0
H75 H 0.66858 0.95887 0.23368 0.0
H76 H 1.0285 0.98444 0.17674 0.0
H77 H 1.08017 0.96511 0.19011 0.0
H78 H 0.96321 0.84949 0.21002 0.0
H79 H 0.91167 0.86774 0.19677 0.0
Nd80 Nd 0.25538 0.88687 0.21081 0.0
Nd81 Nd 0.23151 0.95163 0.19438 0.0
C82 C 0.28629 0.83621 0.22233 0.0
C83 C 0.31004 0.81541 0.2152 0.0
C84 C 0.32268 0.82946 0.20064 0.0
C85 C 0.30283 0.79736 0.18961 0.0
C86 C 0.27215 0.75207 0.19351 0.0
C87 C 0.27198 0.73715 0.20782 0.0
C88 C 0.29298 0.76939 0.21879 0.0
C89 C 0.16541 0.86588 0.21217 0.0
C90 C 0.25398 0.88767 0.17394 0.0
C91 C 0.19728 0.99629 0.18147 0.0
C92 C 0.21219 1.04373 0.18506 0.0
C93 C 0.17975 1.05681 0.18863 0.0
C94 C 0.19396 0.09884 0.19536 0.0
C95 C 0.24063 0.12762 0.19853 0.0
C96 C 0.27302 0.11474 0.19489 0.0
C97 C 0.25902 0.07335 0.18807 0.0
C98 C 0.32252 0.98803 0.2017 0.0
C99 C 0.25455 0.96829 0.22884 0.0
O100 O 0.30896 0.88094 0.22304 0.0
O101 O 0.2438 0.81946 0.21774 0.0
O102 O 0.18817 0.86644 0.22357 0.0
O103 O 0.19054 0.87796 0.20103 0.0
O104 O 0.26769 0.8755 0.18598 0.0
O105 O 0.23436 0.91297 0.1746 0.0
O106 O 0.17541 0.96757 0.19219 0.0
O107 O 0.22879 0.98974 0.17518 0.0
O108 O 0.30356 1.01321 0.20038 0.0
O109 O 0.29549 0.94842 0.19726 0.0
O110 O 0.22992 0.97171 0.21821 0.0
O111 O 0.27379 0.9426 0.22778 0.0
H112 H 0.3356 0.86459 0.19752 0.0
H113 H 0.30375 0.80917 0.17853 0.0
H114 H 0.24815 0.70222 0.21098 0.0
H115 H 0.28449 0.75803 0.23003 0.0
H116 H 0.14363 1.03439 0.18645 0.0
H117 H 0.16893 0.10942 0.19772 0.0
H118 H 0.30935 0.13736 0.19699 0.0
H119 H 0.28495 1.06434 0.18542 0.0
Nd120 Nd 0.34413 0.18153 0.34254 0.0
Nd121 Nd 0.34301 0.18799 0.3689 0.0
C122 C 0.34521 0.18411 0.31372 0.0
C123 C 0.33265 0.1493 0.30224 0.0
C124 C 0.28743 0.11214 0.30109 0.0
C125 C 0.27567 0.08072 0.28973 0.0
C126 C 0.30887 0.08595 0.27936 0.0
C127 C 0.35452 0.12162 0.28095 0.0
C128 C 0.36625 0.1532 0.29226 0.0
C129 C 0.3914 0.13252 0.35124 0.0
C130 C 0.25889 0.08747 0.35607 0.0
C131 C 0.35444 0.17976 0.39744 0.0
C132 C 0.3664 0.19914 0.41249 0.0
C133 C 0.41251 0.22838 0.41658 0.0
C134 C 0.42445 0.2395 0.4313 0.0
C135 C 0.3906 0.22216 0.44239 0.0
C136 C 0.34433 0.19423 0.43819 0.0
C137 C 0.33247 0.18273 0.42349 0.0
C138 C 0.27203 0.20561 0.35983 0.0
C139 C 0.40134 0.2941 0.35456 0.0
O140 O 0.31166 0.18166 0.32162 0.0
O141 O 0.38148 0.19364 0.32143 0.0
O142 O 0.35832 0.11985 0.34192 0.0
O143 O 0.39666 0.17078 0.35687 0.0
O144 O 0.27453 0.11059 0.34372 0.0
O145 O 0.28275 0.10905 0.36793 0.0
O146 O 0.38705 0.19351 0.38767 0.0
O147 O 0.31492 0.16945 0.39173 0.0
O148 O 0.30382 0.22951 0.36936 0.0
O149 O 0.28067 0.17565 0.35449 0.0
O150 O 0.39163 0.27079 0.36707 0.0
O151 O 0.3851 0.26623 0.34301 0.0
H152 H 0.26086 0.10773 0.30878 0.0
H153 H 0.2403 1.05331 0.28875 0.0
H154 H 0.38092 0.1256 0.27326 0.0
H155 H 0.40145 0.18108 0.29309 0.0
H156 H 0.43979 0.24112 0.40848 0.0
H157 H 0.46056 0.25995 0.43398 0.0
H158 H 0.31716 0.18034 0.44632 0.0
H159 H 0.29675 0.15952 0.4208 0.0
Nd160 Nd 0.99258 0.19057 0.34285 0.0
Nd161 Nd 0.9853 0.18066 0.37019 0.0
C162 C 1.00256 0.18242 0.31449 0.0
C163 C 1.03512 0.20792 0.30238 0.0
C164 C 1.07092 0.19902 0.29901 0.0
C165 C 1.09982 0.21991 0.28701 0.0
C166 C 1.0937 0.2502 0.27801 0.0
C167 C 1.05839 0.25972 0.28145 0.0
C168 C 1.02941 0.23885 0.29353 0.0
C169 C 1.03425 0.28838 0.34984 0.0
C170 C 1.08611 0.19883 0.35802 0.0
C171 C 0.97323 0.18115 0.39909 0.0
C172 C 0.95843 0.18192 0.41453 0.0
C173 C 0.98498 0.22005 0.42344 0.0
C174 C 0.97351 0.22023 0.43821 0.0
C175 C 0.9351 0.18216 0.44467 0.0
C176 C 0.90842 0.1439 0.43571 0.0
C177 C 0.91998 0.14373 0.42089 0.0
C178 C 0.98756 0.10227 0.36053 0.0
C179 C 0.88016 0.13825 0.35368 0.0
O180 O 1.01797 0.16638 0.32464 0.0
O181 O 0.97632 0.19773 0.31972 0.0
O182 O 1.02623 0.26859 0.33729 0.0
O183 O 1.01814 0.25527 0.35962 0.0
O184 O 1.06306 0.19122 0.34573 0.0
O185 O 1.06479 0.20151 0.36993 0.0
O186 O 1.00253 0.21761 0.39183 0.0
O187 O 0.94957 0.14573 0.39079 0.0
O188 O 1.01016 0.12844 0.37133 0.0
O189 O 0.96478 0.11934 0.35435 0.0
O190 O 0.90286 0.14984 0.36635 0.0
O191 O 0.90836 0.15146 0.34211 0.0
H192 H 1.07608 0.17501 0.30545 0.0
H193 H 0.12611 0.21119 0.28451 0.0
H194 H 1.053 0.28306 0.27472 0.0
H195 H 1.00209 0.24633 0.29577 0.0
H196 H 1.01515 0.24981 0.41904 0.0
H197 H 0.99528 0.25031 0.44465 0.0
H198 H 0.87809 0.11428 0.44007 0.0
H199 H 0.89887 0.11347 0.41443 0.0
Nd200 Nd 0.98199 0.82782 0.34269 0.0
Nd201 Nd 0.98913 0.83216 0.36826 0.0
C202 C 0.98239 0.84272 0.31429 0.0
C203 C 0.95502 0.85247 0.30382 0.0
C204 C 0.96209 0.89717 0.30239 0.0
C205 C 0.94064 0.90767 0.29126 0.0
C206 C 0.91179 0.87374 0.28138 0.0
C207 C 0.90232 0.82852 0.28333 0.0
C208 C 0.924 0.81799 0.29442 0.0
C209 C 0.88552 0.77013 0.3518 0.0
C210 C 0.97532 0.9154 0.35676 0.0
C211 C 0.97041 0.80612 0.39605 0.0
C212 C 0.97631 0.78997 0.41054 0.0
C213 C 0.93914 0.75047 0.41658 0.0
C214 C 0.94023 0.73783 0.43105 0.0
C215 C 0.97894 0.76394 0.4399 0.0
C216 C 1.01653 0.80335 0.4338 0.0
C217 C 1.01522 0.81631 0.41929 0.0
C218 C 1.0737 0.9093 0.36035 0.0
C219 C 1.03679 0.77185 0.35339 0.0
O220 O 1.00619 0.8746 0.32376 0.0
O221 O 0.96366 0.80173 0.31995 0.0
O222 O 0.90905 0.75883 0.34314 0.0
O223 O 0.91627 0.80928 0.35719 0.0
O224 O 0.9801 0.89765 0.34445 0.0
O225 O 0.97305 0.89251 0.36872 0.0
O226 O 0.95219 0.77755 0.38517 0.0
O227 O 0.99911 0.84792 0.39189 0.0
O228 O 1.04807 0.90614 0.3714 0.0
O229 O 1.05479 0.87025 0.35354 0.0
O230 O 1.02681 0.78584 0.36583 0.0
O231 O 1.02187 0.78414 0.34175 0.0
H232 H 0.98558 0.92456 0.30949 0.0
H233 H 0.94818 0.94273 0.28995 0.0
H234 H 0.88031 0.80195 0.27574 0.0
H235 H 0.91789 0.7833 0.29528 0.0
H236 H 0.90822 0.73022 0.41026 0.0
H237 H 0.90982 0.70834 0.43543 0.0
H238 H 1.04677 0.82444 0.4403 0.0
H239 H 1.04416 0.84749 0.41506 0.0
Nd240 Nd 1.01453 0.82931 0.84656 0.0
Nd241 Nd 0.94503 0.73412 0.83314 0.0
C242 C 1.0702 0.91612 0.85187 0.0
C243 C 0.1111 0.94895 0.84403 0.0
C244 C 0.12539 0.99551 0.84481 0.0
C245 C 0.16756 1.02723 0.83878 0.0
C246 C 0.19543 1.01223 0.83207 0.0
C247 C 0.1791 0.96548 0.83008 0.0
C248 C 0.13693 0.93381 0.83608 0.0
C249 C 1.02957 0.75935 0.85324 0.0
C250 C 1.02798 0.80905 0.81254 0.0
C251 C 0.90314 0.65183 0.8217 0.0
C252 C 0.86288 0.61309 0.82824 0.0
C253 C 0.82377 0.58953 0.81959 0.0
C254 C 0.78128 0.58001 0.82524 0.0
C255 C 0.77863 0.59591 0.83924 0.0
C256 C 0.81595 0.60873 0.84875 0.0
C257 C 0.85758 0.61576 0.84333 0.0
C258 C 0.91622 0.79604 0.83382 0.0
C259 C 0.93226 0.7554 0.86741 0.0
O260 O 1.0316 0.90171 0.84484 0.0
O261 O 1.07378 0.88339 0.85829 0.0
O262 O 1.03766 0.79221 0.86225 0.0
O263 O 1.01753 0.7668 0.84105 0.0
O264 O 1.04757 0.83475 0.82413 0.0
O265 O 0.98756 0.77127 0.81301 0.0
O266 O 0.94079 0.66741 0.8293 0.0
O267 O 0.89548 0.68451 0.81734 0.0
O268 O 0.88782 0.75269 0.83615 0.0
O269 O 0.95614 0.80411 0.831 0.0
O270 O 0.92558 0.72294 0.85783 0.0
O271 O 0.95817 0.79923 0.86414 0.0
H272 H 0.10523 1.00732 0.85073 0.0
H273 H 0.18017 1.06346 0.8404 0.0
H274 H 0.2006 0.95357 0.8251 0.0
H275 H 0.12595 0.8977 0.8353 0.0
H276 H 0.82699 0.58567 0.80798 0.0
H277 H 0.75271 0.56626 0.81787 0.0
H278 H 0.81599 0.62002 0.85979 0.0
H279 H 0.88727 0.63223 0.85041 0.0
Nd280 Nd 0.35523 0.2194 0.84164 0.0
Nd281 Nd 0.44929 0.24176 0.82875 0.0
C282 C 0.27807 0.19262 0.85551 0.0
C283 C 0.24383 0.20505 0.8519 0.0
C284 C 0.23807 0.2129 0.83723 0.0
C285 C 0.20945 0.22996 0.83366 0.0
C286 C 0.18639 0.23918 0.84473 0.0
C287 C 0.19416 0.23398 0.85942 0.0
C288 C 0.22303 0.21695 0.86302 0.0
C289 C 0.40569 0.30534 0.83008 0.0
C290 C 0.36608 0.22353 0.80689 0.0
C291 C 0.53639 0.27939 0.82059 0.0
C292 C 0.57465 0.27843 0.82771 0.0
C293 C 0.60072 0.26437 0.81951 0.0
C294 C 0.61162 0.23301 0.82561 0.0
C295 C 0.59277 0.21355 0.8393 0.0
C296 C 0.57946 0.23825 0.84861 0.0
C297 C 0.57105 0.27132 0.84281 0.0
C298 C 0.38446 0.15091 0.83062 0.0
C299 C 0.43605 0.23626 0.86474 0.0
O300 O 0.28316 0.16616 0.84603 0.0
O301 O 0.31683 0.22782 0.85971 0.0
O302 O 0.36107 0.28406 0.83041 0.0
O303 O 0.42043 0.2838 0.83734 0.0
O304 O 0.33723 0.2 0.8176 0.0
O305 O 0.41091 0.24885 0.80915 0.0
O306 O 0.51949 0.30166 0.82747 0.0
O307 O 0.50425 0.23905 0.81617 0.0
O308 O 0.41169 0.16812 0.81942 0.0
O309 O 0.39353 0.18113 0.84005 0.0
O310 O 0.46299 0.23834 0.85369 0.0
O311 O 0.39497 0.23089 0.8626 0.0
H312 H 0.25556 0.20576 0.82853 0.0
H313 H 0.20315 0.23344 0.82226 0.0
H314 H 0.17594 0.2406 0.86801 0.0
H315 H 0.22899 0.2129 0.87439 0.0
H316 H 0.60595 0.27147 0.80791 0.0
H317 H 0.62794 0.21899 0.81876 0.0
H318 H 0.56798 0.22767 0.85967 0.0
H319 H 0.55342 0.28412 0.8496 0.0
Nd320 Nd 0.93537 0.15429 0.84704 0.0
Nd321 Nd 0.93675 0.23531 0.83097 0.0
C322 C 0.93531 0.08369 0.8586 0.0
C323 C 0.92677 1.04042 0.85289 0.0
C324 C 0.94172 1.03737 0.83885 0.0
C325 C 0.92994 0.99474 0.83315 0.0
C326 C 0.90182 0.95541 0.84135 0.0
C327 C 0.88362 0.95846 0.8548 0.0
C328 C 0.89665 1.00095 0.86066 0.0
C329 C 0.86075 0.16449 0.8519 0.0
C330 C 0.92009 0.14546 0.81178 0.0
C331 C 0.91815 0.29106 0.81608 0.0
C332 C 0.91474 0.32893 0.82234 0.0
C333 C 0.91065 0.32824 0.83755 0.0
C334 C 0.94025 0.3669 0.84539 0.0
C335 C 0.97368 0.40595 0.83793 0.0
C336 C 0.96418 0.41065 0.82321 0.0
C337 C 0.93634 0.37121 0.81514 0.0
C338 C 1.01994 0.24172 0.83433 0.0
C339 C 0.9605 0.24265 0.86598 0.0
O340 O 0.97376 0.12063 0.85473 0.0
O341 O 0.89879 0.08796 0.85787 0.0
O342 O 0.87933 0.15155 0.86169 0.0
O343 O 0.88055 0.1693 0.8398 0.0
O344 O 0.9216 0.12476 0.82386 0.0
O345 O 0.92522 0.18697 0.81178 0.0
O346 O 0.88657 0.2505 0.82038 0.0
O347 O 0.95955 0.29651 0.81692 0.0
O348 O 1.01428 0.27698 0.83584 0.0
O349 O 0.98323 0.20631 0.83098 0.0
O350 O 0.93962 0.25392 0.85575 0.0
O351 O 0.97443 0.21311 0.86302 0.0
H352 H 0.96275 1.06777 0.83246 0.0
H353 H 0.9448 0.99259 0.82285 0.0
H354 H 0.86236 0.92802 0.86126 0.0
H355 H 0.88335 1.00305 0.87126 0.0
H356 H 0.89278 0.29624 0.84347 0.0
H357 H 0.94062 0.36219 0.85689 0.0
H358 H 0.98464 0.44249 0.81733 0.0
H359 H 0.93807 0.37293 0.80333 0.0
Nd360 Nd 0.86794 0.94954 0.66656 0.0
Nd361 Nd 0.86485 0.95188 0.69261 0.0
C362 C 0.84316 0.94211 0.63858 0.0
C363 C 0.82926 0.92075 0.62382 0.0
C364 C 0.78263 0.89273 0.62015 0.0
C365 C 0.76941 0.88015 0.60557 0.0
C366 C 0.8024 0.89547 0.5942 0.0
C367 C 0.84913 0.92218 0.598 0.0
C368 C 0.86233 0.93449 0.61256 0.0
C369 C 0.94542 0.94217 0.67417 0.0
C370 C 0.80872 0.84152 0.68187 0.0
C371 C 0.8816 0.96592 0.7209 0.0
C372 C 0.88716 0.99966 0.73213 0.0
C373 C 0.93154 1.03508 0.73574 0.0
C374 C 0.93794 1.06401 0.74745 0.0
C375 C 0.90017 1.05767 0.75586 0.0
C376 C 0.85559 1.02408 0.75181 0.0
C377 C 0.84909 0.99512 0.74005 0.0
C378 C 0.80506 0.98916 0.68421 0.0
C379 C 0.95187 1.04675 0.6786 0.0
O380 O 0.81369 0.92906 0.64941 0.0
O381 O 0.88541 0.95827 0.64291 0.0
O382 O 0.94242 0.96511 0.66332 0.0
O383 O 0.90614 0.92164 0.68097 0.0
O384 O 0.81946 0.86578 0.66943 0.0
O385 O 0.82407 0.86843 0.69355 0.0
O386 O 0.91357 0.98007 0.71091 0.0
O387 O 0.84053 0.93914 0.71567 0.0
O388 O 0.79653 0.95704 0.69366 0.0
O389 O 0.8435 0.99716 0.6781 0.0
O390 O 0.93579 1.02206 0.69064 0.0
O391 O 0.9272 1.02771 0.66674 0.0
H392 H 0.75612 0.88193 0.62846 0.0
H393 H 0.73311 0.85932 0.60314 0.0
H394 H 0.87558 0.9357 0.58963 0.0
H395 H 0.8985 0.95685 0.61489 0.0
H396 H 0.96158 1.03946 0.72986 0.0
H397 H 0.9726 0.09013 0.75031 0.0
H398 H 0.82602 1.01863 0.75821 0.0
H399 H 0.8145 0.96819 0.73752 0.0
Nd400 Nd 0.22325 0.95251 0.66698 0.0
Nd401 Nd 0.21818 0.94321 0.69243 0.0
C402 C 0.24158 0.94433 0.63931 0.0
C403 C 0.2519 0.94135 0.62368 0.0
C404 C 0.25971 0.90635 0.61873 0.0
C405 C 0.27168 0.90503 0.60411 0.0
C406 C 0.2771 0.93925 0.59411 0.0
C407 C 0.2688 0.97403 0.59909 0.0
C408 C 0.25629 0.97501 0.61366 0.0
C409 C 0.22824 1.03511 0.6754 0.0
C410 C 0.32985 0.99886 0.68245 0.0
C411 C 0.20419 0.94653 0.72071 0.0
C412 C 0.17293 0.91835 0.73247 0.0
C413 C 0.14271 0.93132 0.7386 0.0
C414 C 0.11586 0.9081 0.75069 0.0
C415 C 0.11926 0.87192 0.75693 0.0
C416 C 0.14791 0.85753 0.75046 0.0
C417 C 0.17461 0.88058 0.73828 0.0
C418 C 0.18125 0.84717 0.68381 0.0
C419 C 0.12352 0.9349 0.6779 0.0
O420 O 0.24776 0.92171 0.64983 0.0
O421 O 0.22393 0.96923 0.64353 0.0
O422 O 0.20552 1.00974 0.66444 0.0
O423 O 0.24885 1.0164 0.68205 0.0
O424 O 0.30679 0.99111 0.67 0.0
O425 O 0.30179 0.98181 0.6939 0.0
O426 O 0.18652 0.96053 0.71072 0.0
O427 O 0.23312 0.93494 0.71542 0.0
O428 O 0.21124 0.86975 0.69388 0.0
O429 O 0.17496 0.87794 0.67722 0.0
O430 O 0.14585 0.94 0.69025 0.0
O431 O 0.14539 0.93402 0.66594 0.0
H432 H 0.25648 0.87985 0.62615 0.0
H433 H 0.27615 0.87677 0.60063 0.0
H434 H 0.27263 1.00098 0.59177 0.0
H435 H 0.25086 1.0027 0.61715 0.0
H436 H 0.14088 0.96036 0.73431 0.0
H437 H 1.09404 0.91976 0.75557 0.0
H438 H 0.15049 0.82927 0.75507 0.0
H439 H 0.19736 0.86963 0.7337 0.0
Nd440 Nd 0.22108 0.30241 0.66728 0.0
Nd441 Nd 0.22792 0.30639 0.69325 0.0
C442 C 0.24036 0.32947 0.63956 0.0
C443 C 0.2343 0.34538 0.62501 0.0
C444 C 0.26739 0.38915 0.62006 0.0
C445 C 0.26734 0.40254 0.60559 0.0
C446 C 0.23385 0.37273 0.59564 0.0
C447 C 0.20022 0.32904 0.60064 0.0
C448 C 0.20045 0.31549 0.61515 0.0
C449 C 0.1368 0.22518 0.67526 0.0
C450 C 0.17355 0.36287 0.68212 0.0
C451 C 0.22145 0.28902 0.72166 0.0
C452 C 0.24654 0.28124 0.73326 0.0
C453 C 0.22548 0.2672 0.74694 0.0
C454 C 0.24634 0.25545 0.7579 0.0
C455 C 0.28852 0.25721 0.75531 0.0
C456 C 0.3103 0.27248 0.74166 0.0
C457 C 0.28922 0.28418 0.73063 0.0
C458 C 0.32484 0.36463 0.68475 0.0
C459 C 0.23612 0.21975 0.67907 0.0
O460 O 0.25669 0.35784 0.65057 0.0
O461 O 0.21318 0.28711 0.64357 0.0
O462 O 0.16192 0.22846 0.66404 0.0
O463 O 0.15575 0.2642 0.68208 0.0
O464 O 0.18175 0.34715 0.66973 0.0
O465 O 0.19001 0.3521 0.69374 0.0
O466 O 0.20431 0.25748 0.71167 0.0
O467 O 0.23952 0.33031 0.71628 0.0
O468 O 0.30188 0.37303 0.69452 0.0
O469 O 0.29403 0.32697 0.6785 0.0
O470 O 0.23094 0.23742 0.69134 0.0
O471 O 0.23791 0.24222 0.66703 0.0
H472 H 0.29463 0.41253 0.62723 0.0
H473 H 0.29467 0.43587 0.60209 0.0
H474 H 0.17397 0.30518 0.59329 0.0
H475 H 0.17488 0.28117 0.6185 0.0
H476 H 0.19247 0.26467 0.74909 0.0
H477 H 0.22948 0.24502 0.76845 0.0
H478 H 0.34304 0.27449 0.73947 0.0
H479 H 0.3057 0.29474 0.72002 0.0
Nd480 Nd 0.93136 0.72525 0.53595 0.0
Nd481 Nd 0.85525 0.64059 0.51923 0.0
C482 C 0.9779 0.79765 0.55283 0.0
C483 C 1.02354 0.83807 0.55153 0.0
C484 C 1.03662 0.86337 0.53845 0.0
C485 C 1.08104 0.88005 0.53307 0.0
C486 C 0.11066 0.86871 0.54041 0.0
C487 C 1.10098 0.85512 0.5552 0.0
C488 C 1.05747 0.84055 0.56083 0.0
C489 C 0.94885 0.65619 0.53226 0.0
C490 C 0.94581 0.71148 0.50127 0.0
C491 C 0.78888 0.56316 0.50927 0.0
C492 C 0.74857 0.52916 0.5171 0.0
C493 C 0.75258 0.51827 0.53161 0.0
C494 C 0.71332 0.4926 0.54 0.0
C495 C 0.66984 0.47818 0.53402 0.0
C496 C 0.666 0.48952 0.51956 0.0
C497 C 0.70521 0.51486 0.51113 0.0
C498 C 0.85628 0.72125 0.5152 0.0
C499 C 0.84091 0.64841 0.5542 0.0
O500 O 0.94809 0.79417 0.54319 0.0
O501 O 0.97769 0.75896 0.55463 0.0
O502 O 0.98167 0.69877 0.53203 0.0
O503 O 0.91004 0.65151 0.53515 0.0
O504 O 0.95406 0.74282 0.51153 0.0
O505 O 0.91649 0.66756 0.50363 0.0
O506 O 0.82854 0.56793 0.51323 0.0
O507 O 0.78944 0.60199 0.50779 0.0
O508 O 0.84743 0.6917 0.50492 0.0
O509 O 0.86217 0.70618 0.52708 0.0
O510 O 0.82244 0.62544 0.54207 0.0
O511 O 0.88151 0.68587 0.55443 0.0
H512 H 1.01143 0.86453 0.5314 0.0
H513 H 1.08945 0.89568 0.52235 0.0
H514 H 0.12323 0.84803 0.56184 0.0
H515 H 1.04834 0.82302 0.57128 0.0
H516 H 0.78595 0.53026 0.53656 0.0
H517 H 0.71676 0.48328 0.55106 0.0
H518 H 0.63262 0.47725 0.51458 0.0
H519 H 0.70178 0.52414 0.50007 0.0
Nd520 Nd 0.43189 0.22912 0.53952 0.0
Nd521 Nd 0.52509 0.24935 0.52567 0.0
C522 C 0.34402 0.19443 0.54616 0.0
C523 C 0.31046 0.20296 0.53884 0.0
C524 C 0.28741 0.22005 0.54724 0.0
C525 C 0.28467 0.25759 0.54207 0.0
C526 C 0.30815 0.27956 0.52911 0.0
C527 C 0.32026 0.25483 0.51941 0.0
C528 C 0.31895 0.21507 0.52408 0.0
C529 C 0.50134 0.31734 0.54204 0.0
C530 C 0.4462 0.24405 0.50369 0.0
C531 C 0.60442 0.28059 0.51267 0.0
C532 C 0.64375 0.27752 0.51798 0.0
C533 C 0.66678 0.30145 0.53063 0.0
C534 C 0.69664 0.29075 0.53769 0.0
C535 C 0.70387 0.25618 0.53218 0.0
C536 C 0.68229 0.23322 0.51932 0.0
C537 C 0.65251 0.24404 0.51218 0.0
C538 C 0.46822 0.16134 0.53436 0.0
C539 C 0.51043 0.23198 0.56063 0.0
O540 O 0.3598 0.17242 0.53853 0.0
O541 O 0.37699 0.23092 0.55242 0.0
O542 O 0.46977 0.29743 0.55195 0.0
O543 O 0.4934 0.2924 0.53095 0.0
O544 O 0.42062 0.24109 0.51519 0.0
O545 O 0.48598 0.24557 0.50494 0.0
O546 O 0.59381 0.30718 0.5202 0.0
O547 O 0.56857 0.24106 0.50927 0.0
O548 O 0.51264 0.17898 0.53425 0.0
O549 O 0.45697 0.18763 0.52828 0.0
O550 O 0.54102 0.25374 0.55018 0.0
O551 O 0.46561 0.21209 0.55841 0.0
H552 H 0.27822 0.20941 0.5585 0.0
H553 H 0.26927 0.27226 0.54904 0.0
H554 H 0.33628 0.26829 0.50894 0.0
H555 H 0.33346 0.19976 0.517 0.0
H556 H 0.66063 0.3273 0.53542 0.0
H557 H 0.71407 0.30936 0.54746 0.0
H558 H 0.68897 0.20744 0.51471 0.0
H559 H 0.63498 0.22504 0.50248 0.0
Nd560 Nd 0.92746 0.21901 0.5424 0.0
Nd561 Nd 0.93106 0.29593 0.52346 0.0
C562 C 0.94774 0.1654 0.55789 0.0
C563 C 0.95422 0.12638 0.55515 0.0
C564 C 0.97191 0.12534 0.54137 0.0
C565 C 0.94456 0.08973 0.53203 0.0
C566 C 0.90206 1.0553 0.53716 0.0
C567 C 0.89309 1.04923 0.55218 0.0
C568 C 0.92082 0.08501 0.56147 0.0
C569 C 0.85105 0.22619 0.5441 0.0
C570 C 0.89957 0.20436 0.50659 0.0
C571 C 0.93199 0.36521 0.51051 0.0
C572 C 0.93677 0.40712 0.51679 0.0
C573 C 0.89844 0.40725 0.52296 0.0
C574 C 0.90335 0.447 0.52911 0.0
C575 C 0.9465 0.48695 0.52901 0.0
C576 C 0.98529 0.48634 0.5237 0.0
C577 C 0.98044 0.44662 0.51751 0.0
C578 C 1.00694 0.28578 0.52321 0.0
C579 C 0.9465 0.31255 0.55848 0.0
O580 O 0.97899 0.20489 0.55248 0.0
O581 O 0.90562 0.15696 0.55553 0.0
O582 O 0.86503 0.21213 0.55502 0.0
O583 O 0.87376 0.23099 0.53266 0.0
O584 O 0.91619 0.1913 0.51783 0.0
O585 O 0.88969 0.23712 0.50836 0.0
O586 O 0.89363 0.32736 0.51356 0.0
O587 O 0.96859 0.36095 0.51141 0.0
O588 O 0.98876 0.29092 0.51143 0.0
O589 O 0.98443 0.2852 0.53423 0.0
O590 O 0.93569 0.32571 0.5463 0.0
O591 O 0.95071 0.27586 0.55919 0.0
H592 H 1.00016 0.15604 0.53681 0.0
H593 H 0.95256 0.09297 0.52049 0.0
H594 H 0.86093 1.02116 0.55628 0.0
H595 H 0.9085 0.08442 0.57247 0.0
H596 H 0.86448 0.37715 0.5227 0.0
H597 H 0.87304 0.4475 0.53303 0.0
H598 H 1.01859 0.5174 0.52333 0.0
H599 H 1.01062 0.44721 0.51298 0.0
Nd600 Nd 1.01093 0.51693 0.67575 0.0
Nd601 Nd 1.0066 0.52105 0.70121 0.0
C602 C 0.99354 0.50325 0.64751 0.0
C603 C 0.98923 0.47077 0.63603 0.0
C604 C 0.9458 0.43303 0.63279 0.0
C605 C 0.94045 0.40503 0.6209 0.0
C606 C 0.97829 0.41465 0.61198 0.0
C607 C 1.02207 0.45088 0.61559 0.0
C608 C 1.02751 0.47887 0.62751 0.0
C609 C 1.07002 0.47908 0.68418 0.0
C610 C 0.92409 0.42289 0.69021 0.0
C611 C 1.03186 0.53685 0.72887 0.0
C612 C 1.04619 0.54588 0.74433 0.0
C613 C 1.09057 0.58101 0.74794 0.0
C614 C 1.10417 0.59023 0.76253 0.0
C615 C 1.07401 0.56387 0.77388 0.0
C616 C 1.02909 0.52958 0.77024 0.0
C617 C 1.01527 0.5208 0.75563 0.0
C618 C 0.92888 0.52672 0.69323 0.0
C619 C 1.06617 0.62807 0.6861 0.0
O620 O 0.96179 0.48749 0.6576 0.0
O621 O 1.03448 0.53097 0.65267 0.0
O622 O 1.07699 0.50834 0.67387 0.0
O623 O 1.03319 0.47336 0.69093 0.0
O624 O 0.94099 0.44562 0.67787 0.0
O625 O 0.94768 0.44367 0.70206 0.0
O626 O 1.06148 0.54922 0.71811 0.0
O627 O 0.98886 0.51445 0.72493 0.0
O628 O 0.93184 0.50423 0.70421 0.0
O629 O 0.96818 0.54724 0.68643 0.0
O630 O 1.05167 0.60437 0.69852 0.0
O631 O 1.05476 0.60064 0.67454 0.0
H632 H 0.91559 0.42596 0.63913 0.0
H633 H 0.90638 0.37719 0.61828 0.0
H634 H 1.0518 0.45833 0.60894 0.0
H635 H 1.06138 0.5076 0.62976 0.0
H636 H 0.11473 0.60169 0.73947 0.0
H637 H 0.13844 0.61804 0.76492 0.0
H638 H 1.00492 0.50873 0.77868 0.0
H639 H 0.98058 0.49393 0.75318 0.0
Nd640 Nd 0.65581 0.52484 0.67641 0.0
Nd641 Nd 0.65286 0.5187 0.70225 0.0
C642 C 0.668 0.52084 0.64801 0.0
C643 C 0.69849 0.54805 0.63589 0.0
C644 C 0.73796 0.54521 0.63252 0.0
C645 C 0.7631 0.56544 0.61984 0.0
C646 C 0.74892 0.5884 0.61025 0.0
C647 C 0.71116 0.59359 0.61402 0.0
C648 C 0.68597 0.57337 0.62671 0.0
C649 C 0.69321 0.62166 0.68463 0.0
C650 C 0.751 0.53362 0.69018 0.0
C651 C 0.645 0.53647 0.73015 0.0
C652 C 0.62432 0.53075 0.74498 0.0
C653 C 0.61839 0.56608 0.75079 0.0
C654 C 0.60644 0.56561 0.76551 0.0
C655 C 0.60014 0.52978 0.7749 0.0
C656 C 0.60423 0.49338 0.76891 0.0
C657 C 0.6165 0.49401 0.75418 0.0
C658 C 0.64662 0.43462 0.69448 0.0
C659 C 0.54482 0.4695 0.68725 0.0
O660 O 0.68554 0.50634 0.6579 0.0
O661 O 0.64007 0.53344 0.6535 0.0
O662 O 0.66093 0.59789 0.67528 0.0
O663 O 0.7009 0.59141 0.69088 0.0
O664 O 0.72728 0.5265 0.67805 0.0
O665 O 0.73078 0.53693 0.70219 0.0
O666 O 0.63321 0.55376 0.71933 0.0
O667 O 0.65964 0.50908 0.72587 0.0
O668 O 0.66942 0.46059 0.70533 0.0
O669 O 0.62576 0.45306 0.68781 0.0
O670 O 0.56866 0.48161 0.69971 0.0
O671 O 0.57222 0.48283 0.67559 0.0
H672 H 0.7484 0.52577 0.63935 0.0
H673 H 0.79225 0.56117 0.61716 0.0
H674 H 0.70029 0.61208 0.60691 0.0
H675 H 0.65578 0.57619 0.62903 0.0
H676 H 0.62484 0.5952 0.74408 0.0
H677 H 0.60389 0.59435 0.76968 0.0
H678 H 0.59848 0.46456 0.77565 0.0
H679 H 0.62103 0.46632 0.75012 0.0
Nd680 Nd 0.6477 0.16377 0.67616 0.0
Nd681 Nd 0.65731 0.16738 0.70255 0.0
C682 C 0.65805 0.179 0.64774 0.0
C683 C 0.63287 0.18453 0.63558 0.0
C684 C 0.65821 0.21551 0.62444 0.0
C685 C 0.6358 0.22448 0.61324 0.0
C686 C 0.58753 0.20299 0.61306 0.0
C687 C 0.56202 0.17148 0.62416 0.0
C688 C 0.58455 0.16239 0.63537 0.0
C689 C 0.54938 0.10838 0.68288 0.0
C690 C 0.63897 0.24944 0.69056 0.0
C691 C 0.65515 0.15627 0.73143 0.0
C692 C 0.64862 0.13199 0.74553 0.0
C693 C 0.60478 0.09896 0.75062 0.0
C694 C 0.59899 0.08139 0.76486 0.0
C695 C 0.63686 0.09654 0.77432 0.0
C696 C 0.68069 0.12909 0.76911 0.0
C697 C 0.68649 0.14652 0.7549 0.0
C698 C 0.73672 0.24804 0.69328 0.0
C699 C 0.69967 0.10387 0.68706 0.0
O700 O 0.67311 0.21159 0.65747 0.0
O701 O 0.64164 0.13808 0.65348 0.0
O702 O 0.56973 0.12155 0.67042 0.0
O703 O 0.58195 0.12365 0.69276 0.0
O704 O 0.64361 0.23202 0.6782 0.0
O705 O 0.63962 0.22767 0.70254 0.0
O706 O 0.61972 0.15019 0.72383 0.0
O707 O 0.69108 0.16648 0.72337 0.0
O708 O 0.70961 0.2444 0.70389 0.0
O709 O 0.71988 0.20849 0.68701 0.0
O710 O 0.68886 0.11633 0.69963 0.0
O711 O 0.68579 0.11776 0.67548 0.0
H712 H 0.6955 0.23307 0.62446 0.0
H713 H 0.65633 0.24789 0.60461 0.0
H714 H 0.52475 0.15424 0.62423 0.0
H715 H 0.5642 0.13844 0.64387 0.0
H716 H 0.57478 0.08763 0.74378 0.0
H717 H 0.56459 1.05701 0.76862 0.0
H718 H 0.71053 0.14142 0.77609 0.0
H719 H 0.72057 0.17254 0.75137 0.0
Nd720 Nd 0.66979 0.1327 0.18019 0.0
Nd721 Nd 0.57877 1.06198 0.16283 0.0
C722 C 0.75103 0.1882 0.19026 0.0
C723 C 0.78911 0.22682 0.18344 0.0
C724 C 0.78137 0.25045 0.1722 0.0
C725 C 0.81822 0.28851 0.16594 0.0
C726 C 0.86247 0.3011 0.17054 0.0
C727 C 0.87037 0.27361 0.18026 0.0
C728 C 0.8335 0.23697 0.187 0.0
C729 C 0.64181 1.04188 0.18156 0.0
C730 C 0.67034 0.13674 0.14444 0.0
C731 C 0.52259 0.98622 0.14857 0.0
C732 C 0.48452 0.94201 0.15355 0.0
C733 C 0.48936 0.92926 0.16771 0.0
C734 C 0.46109 0.93042 0.17868 0.0
C735 C 0.42584 0.93912 0.17481 0.0
C736 C 0.41138 0.93301 0.1602 0.0
C737 C 0.44071 0.93317 0.14935 0.0
C738 C 0.58748 0.1467 0.16287 0.0
C739 C 0.57751 0.08529 0.19882 0.0
O740 O 0.7154 0.19297 0.19346 0.0
O741 O 0.74086 0.14959 0.18386 0.0
O742 O 0.65676 0.06885 0.19269 0.0
O743 O 0.64211 1.06349 0.17042 0.0
O744 O 0.68963 0.15884 0.15664 0.0
O745 O 0.63119 0.0972 0.14424 0.0
O746 O 0.56399 0.99625 0.15262 0.0
O747 O 0.51513 1.02062 0.15043 0.0
O748 O 0.55256 0.11171 0.15685 0.0
O749 O 0.61382 0.1346 0.16839 0.0
O750 O 0.55797 1.05388 0.1881 0.0
O751 O 0.61525 0.12497 0.19635 0.0
H752 H 0.74703 0.24036 0.1686 0.0
H753 H 0.81217 0.30957 0.15834 0.0
H754 H 0.90499 0.28319 0.18363 0.0
H755 H 0.83955 0.21726 0.19515 0.0
H756 H 0.52066 0.92988 0.17076 0.0
H757 H 0.47087 0.93134 0.18994 0.0
H758 H 0.38208 0.93609 0.15706 0.0
H759 H 0.43437 0.93883 0.13817 0.0
Nd760 Nd 1.0182 0.54488 0.18038 0.0
Nd761 Nd 1.10048 0.55444 0.1615 0.0
C762 C 0.93907 0.52141 0.1923 0.0
C763 C 0.90529 0.53171 0.18648 0.0
C764 C 0.89202 0.52148 0.17181 0.0
C765 C 0.86788 0.53968 0.16518 0.0
C766 C 0.85657 0.56802 0.17315 0.0
C767 C 0.86951 0.5782 0.1878 0.0
C768 C 0.89383 0.56 0.19446 0.0
C769 C 1.08995 0.63217 0.17647 0.0
C770 C 1.01624 0.55808 0.14501 0.0
C771 C 0.17286 0.57553 0.14501 0.0
C772 C 0.21951 0.58595 0.14818 0.0
C773 C 0.24462 0.61867 0.15889 0.0
C774 C 0.26863 0.60915 0.16939 0.0
C775 C 0.2701 0.56868 0.16822 0.0
C776 C 0.25277 0.54128 0.15559 0.0
C777 C 0.2291 0.551 0.14531 0.0
C778 C 1.02664 0.47005 0.16383 0.0
C779 C 1.09707 0.53998 0.19834 0.0
O780 O 0.94596 0.49278 0.18452 0.0
O781 O 0.97709 0.55775 0.19649 0.0
O782 O 1.06554 0.61861 0.18836 0.0
O783 O 1.07401 0.60082 0.16724 0.0
O784 O 0.99183 0.54563 0.15723 0.0
O785 O 1.05924 0.56732 0.14443 0.0
O786 O 0.16157 0.60594 0.14897 0.0
O787 O 0.14152 0.53348 0.14849 0.0
O788 O 1.04891 0.48507 0.15165 0.0
O789 O 1.04434 0.49851 0.17388 0.0
O790 O 0.12348 0.55349 0.18628 0.0
O791 O 1.0532 0.52708 0.19781 0.0
H792 H 0.90106 0.5003 0.16528 0.0
H793 H 0.85694 0.53074 0.15396 0.0
H794 H 0.85933 0.59875 0.19421 0.0
H795 H 0.90468 0.56886 0.20569 0.0
H796 H 0.24119 0.64863 0.15996 0.0
H797 H 0.28342 0.63143 0.17872 0.0
H798 H 0.25349 0.50966 0.15427 0.0
H799 H 0.21109 0.52614 0.13677 0.0
Nd800 Nd 0.61332 0.50396 0.17537 0.0
Nd801 Nd 0.62237 0.58742 0.1609 0.0
C802 C 0.61787 0.44117 0.1906 0.0
C803 C 0.6146 0.39931 0.1852 0.0
C804 C 0.64008 0.40072 0.17279 0.0
C805 C 0.632 0.36036 0.16628 0.0
C806 C 0.59818 0.31854 0.17204 0.0
C807 C 0.57187 0.31687 0.18416 0.0
C808 C 0.58018 0.3573 0.19078 0.0
C809 C 0.53242 0.50194 0.16936 0.0
C810 C 0.60659 0.49786 0.1411 0.0
C811 C 0.60778 0.64554 0.14659 0.0
C812 C 0.58798 0.66882 0.15447 0.0
C813 C 0.56912 0.64885 0.16811 0.0
C814 C 0.5815 0.67531 0.18055 0.0
C815 C 0.61317 0.72157 0.17925 0.0
C816 C 0.62302 0.74299 0.16542 0.0
C817 C 0.60958 0.71628 0.15288 0.0
C818 C 0.70296 0.58972 0.16413 0.0
C819 C 0.62725 0.58498 0.19651 0.0
O820 O 0.65479 0.47928 0.18667 0.0
O821 O 0.57971 0.44236 0.18922 0.0
O822 O 0.53724 0.46617 0.16827 0.0
O823 O 0.56807 0.53482 0.17462 0.0
O824 O 0.61771 0.48157 0.15248 0.0
O825 O 0.60215 0.53467 0.14214 0.0
O826 O 0.58063 0.60129 0.14521 0.0
O827 O 0.64854 0.65653 0.15164 0.0
O828 O 0.69939 0.62591 0.1662 0.0
O829 O 0.66591 0.55584 0.16026 0.0
O830 O 0.61038 0.59818 0.18561 0.0
O831 O 0.6418 0.55621 0.19379 0.0
H832 H 0.66599 0.43285 0.16804 0.0
H833 H 0.65316 0.3616 0.15712 0.0
H834 H 0.54644 0.28433 0.18885 0.0
H835 H 0.55948 0.35591 0.20009 0.0
H836 H 0.55456 0.6126 0.16979 0.0
H837 H 0.57312 0.65873 0.19113 0.0
H838 H 0.64717 0.77936 0.16425 0.0
H839 H 0.62448 0.73235 0.14249 0.0
Nd840 Nd 0.53547 0.2798 1.001 0.0
Nd841 Nd 0.53188 0.28373 0.02654 0.0
C842 C 0.51174 0.26621 0.97307 0.0
C843 C 0.50028 0.25921 0.95727 0.0
C844 C 0.45481 0.24162 0.95244 0.0
C845 C 0.44453 0.23543 0.93749 0.0
C846 C 0.47943 0.24642 0.927 0.0
C847 C 0.5248 0.26359 0.93187 0.0
C848 C 0.53508 0.26984 0.94679 0.0
C849 C 0.61336 0.27397 1.00904 0.0
C850 C 0.47544 0.17257 1.01643 0.0
C851 C 0.5507 0.29823 0.05462 0.0
C852 C 0.55985 0.3343 0.06528 0.0
C853 C 0.60543 0.36402 0.0696 0.0
C854 C 0.61492 0.39662 0.08035 0.0
C855 C 0.57898 0.39978 0.08705 0.0
C856 C 0.53352 0.37133 0.08239 0.0
C857 C 0.52397 0.33876 0.07155 0.0
C858 C 0.47277 0.32161 1.01839 0.0
C859 C 0.61781 0.37888 1.01198 0.0
O860 O 0.48159 0.25738 0.98349 0.0
O861 O 0.55382 0.28287 0.9776 0.0
O862 O 0.61078 0.29745 0.99828 0.0
O863 O 0.57381 0.25303 1.01565 0.0
O864 O 0.48865 0.19625 1.00394 0.0
O865 O 0.48832 0.20014 0.02798 0.0
O866 O 0.58186 0.30932 0.04449 0.0
O867 O 0.50885 0.27361 0.04969 0.0
O868 O 0.46484 0.29064 0.02822 0.0
O869 O 0.51001 0.32808 1.01171 0.0
O870 O 0.60111 0.35613 0.02434 0.0
O871 O 0.59425 0.35756 1.00016 0.0
H872 H 0.42717 0.23282 0.96021 0.0
H873 H 0.40917 0.22202 0.93412 0.0
H874 H 0.55266 0.27333 0.92412 0.0
H875 H 0.57051 0.28344 0.95011 0.0
H876 H 0.63373 0.36134 0.06492 0.0
H877 H 0.65023 0.41834 0.08379 0.0
H878 H 0.50521 0.37274 0.08761 0.0
H879 H 0.48851 0.31636 0.0684 0.0
Nd880 Nd 0.89107 0.28353 1.0019 0.0
Nd881 Nd 0.88563 0.27564 0.0277 0.0
C882 C 0.90747 0.2739 0.97411 0.0
C883 C 0.91802 0.27171 0.95844 0.0
C884 C 0.91046 0.23057 0.9521 0.0
C885 C 0.92054 0.22898 0.93727 0.0
C886 C 0.93898 0.26865 0.92843 0.0
C887 C 0.94766 0.31004 0.93498 0.0
C888 C 0.93683 0.31141 0.94972 0.0
C889 C 0.89543 0.36638 1.00993 0.0
C890 C 0.99771 0.33078 1.01777 0.0
C891 C 0.86878 0.27866 0.05585 0.0
C892 C 0.83301 0.25242 0.06693 0.0
C893 C 0.79969 0.26486 0.07025 0.0
C894 C 0.7688 0.24387 0.08177 0.0
C895 C 0.77089 0.21035 0.09028 0.0
C896 C 0.80262 0.19627 0.08656 0.0
C897 C 0.83359 0.21726 0.07502 0.0
C898 C 0.84883 0.17923 0.01909 0.0
C899 C 0.79112 0.26641 1.01283 0.0
O900 O 0.9084 0.24733 0.98436 0.0
O901 O 0.89653 0.30382 0.97868 0.0
O902 O 0.87232 0.34008 0.99918 0.0
O903 O 0.91643 0.34814 1.01668 0.0
O904 O 0.97463 0.31897 1.00521 0.0
O905 O 0.96948 0.31729 0.02927 0.0
O906 O 0.8577 0.29824 0.04565 0.0
O907 O 0.89384 0.26178 0.05094 0.0
O908 O 0.87984 0.20237 0.02888 0.0
O909 O 0.84207 0.20993 1.01264 0.0
O910 O 0.81332 0.27195 0.02521 0.0
O911 O 0.81307 0.26516 1.00093 0.0
H912 H 0.8962 0.19946 0.95856 0.0
H913 H 0.91316 0.1964 0.93268 0.0
H914 H 0.96332 0.34168 0.92879 0.0
H915 H 0.94382 0.34386 0.95434 0.0
H916 H 0.79829 0.29179 0.06421 0.0
H917 H 0.74405 0.25469 0.08427 0.0
H918 H 0.80478 0.17041 0.09299 0.0
H919 H 0.85882 0.20692 0.07274 0.0
Nd920 Nd 0.88857 0.63488 1.00097 0.0
Nd921 Nd 0.89376 0.63785 0.02663 0.0
C922 C 0.90758 0.66103 0.97314 0.0
C923 C 0.90267 0.67838 0.95871 0.0
C924 C 0.94059 0.71768 0.95284 0.0
C925 C 0.94045 0.73099 0.93838 0.0
C926 C 0.902 0.70576 0.92934 0.0
C927 C 0.86352 0.66681 0.93531 0.0
C928 C 0.86387 0.65319 0.94981 0.0
C929 C 0.80393 0.55686 1.00837 0.0
C930 C 0.83974 0.6944 1.0158 0.0
C931 C 0.88847 0.62115 0.05498 0.0
C932 C 0.91502 0.61528 0.06668 0.0
C933 C 0.91199 0.57254 0.06893 0.0
C934 C 0.93195 0.56517 0.08117 0.0
C935 C 0.95496 0.60024 0.09139 0.0
C936 C 0.96044 0.64375 0.08872 0.0
C937 C 0.94036 0.65114 0.07649 0.0
C938 C 0.99128 0.69696 1.01847 0.0
C939 C 0.90324 0.55168 1.01282 0.0
O940 O 0.92715 0.68904 0.98406 0.0
O941 O 0.87742 0.61968 0.97729 0.0
O942 O 0.83121 0.56042 0.99778 0.0
O943 O 0.82183 0.59578 1.01521 0.0
O944 O 0.85182 0.68211 1.0034 0.0
O945 O 0.85273 0.68046 0.0275 0.0
O946 O 0.87125 0.58929 0.04506 0.0
O947 O 0.90403 0.66217 0.04958 0.0
O948 O 0.96737 0.70542 0.02789 0.0
O949 O 0.96098 0.65899 1.0123 0.0
O950 O 0.89739 0.5691 0.02503 0.0
O951 O 0.90524 0.5743 1.00077 0.0
H952 H 0.97141 0.73714 0.95928 0.0
H953 H 0.97143 0.76014 0.93413 0.0
H954 H 0.83335 0.64645 0.92871 0.0
H955 H 0.83429 0.62227 0.95389 0.0
H956 H 0.89274 0.54416 0.06157 0.0
H957 H 0.9275 0.53139 0.08298 0.0
H958 H 0.97912 0.67164 0.0963 0.0
H959 H 0.94341 0.68446 0.07498 0.0
Nd960 Nd 0.60228 1.04918 0.87021 0.0
Nd961 Nd 0.53426 0.95502 0.85659 0.0
C962 C 0.643 0.12796 0.8843 0.0
C963 C 0.66969 0.17371 0.87821 0.0
C964 C 0.69973 0.21082 0.88687 0.0
C965 C 0.73822 0.24759 0.88028 0.0
C966 C 0.74907 0.24218 0.86583 0.0
C967 C 0.71149 0.21436 0.85673 0.0
C968 C 0.67283 0.17799 0.86301 0.0
C969 C 0.63403 0.98967 0.86687 0.0
C970 C 0.60592 1.03454 0.83524 0.0
C971 C 0.48073 0.86782 0.85197 0.0
C972 C 0.43689 0.84135 0.85949 0.0
C973 C 0.41811 0.79451 0.86204 0.0
C974 C 0.3754 0.77018 0.86898 0.0
C975 C 0.35141 0.79265 0.87318 0.0
C976 C 0.37184 0.84003 0.87157 0.0
C977 C 0.41444 0.86431 0.86479 0.0
C978 C 0.51116 1.02138 0.85264 0.0
C979 C 0.52223 0.97081 0.89097 0.0
O980 O 0.59974 0.10682 0.8808 0.0
O981 O 0.66178 0.10229 0.88254 0.0
O982 O 0.65965 1.03282 0.86365 0.0
O983 O 0.59498 0.98047 0.87122 0.0
O984 O 0.61051 1.06476 0.8454 0.0
O985 O 0.58789 0.9905 0.83846 0.0
O986 O 0.51679 0.88312 0.8604 0.0
O987 O 0.48233 0.89894 0.84307 0.0
O988 O 0.502 0.98943 0.84313 0.0
O989 O 0.52783 1.01415 0.86391 0.0
O990 O 0.50176 0.94699 0.87918 0.0
O991 O 0.56286 1.00846 0.89049 0.0
H992 H 0.69652 0.20908 0.89865 0.0
H993 H 0.76422 0.27359 0.88721 0.0
H994 H 0.7155 0.21257 0.84507 0.0
H995 H 0.64902 0.15033 0.85606 0.0
H996 H 0.43577 0.77684 0.8583 0.0
H997 H 0.35981 0.73354 0.87028 0.0
H998 H 0.3535 0.85766 0.87468 0.0
H999 H 0.42896 0.90083 0.86315 0.0
Nd1000 Nd 0.11558 0.56253 0.8701 0.0
Nd1001 Nd 0.21233 0.60809 0.85689 0.0
C1002 C 1.02783 0.51192 0.87747 0.0
C1003 C 0.99006 0.52118 0.87974 0.0
C1004 C 0.9568 0.50873 0.86878 0.0
C1005 C 0.93752 0.53636 0.86619 0.0
C1006 C 0.95286 0.57657 0.87437 0.0
C1007 C 0.97556 0.58076 0.88765 0.0
C1008 C 0.99459 0.55326 0.89027 0.0
C1009 C 0.16504 0.65647 0.87244 0.0
C1010 C 0.13324 0.58798 0.83468 0.0
C1011 C 0.30072 0.65251 0.85249 0.0
C1012 C 0.32765 0.63281 0.85806 0.0
C1013 C 0.37512 0.65898 0.86023 0.0
C1014 C 0.3985 0.63837 0.86626 0.0
C1015 C 0.37446 0.59147 0.8698 0.0
C1016 C 0.32696 0.56574 0.8679 0.0
C1017 C 0.30362 0.58645 0.86226 0.0
C1018 C 0.16252 0.51348 0.85494 0.0
C1019 C 0.19615 0.57427 0.89118 0.0
O1020 O 1.04305 0.51737 0.86403 0.0
O1021 O 1.06126 0.52942 0.88696 0.0
O1022 O 0.13737 0.63012 0.88255 0.0
O1023 O 0.16288 0.63302 0.86157 0.0
O1024 O 1.10473 0.55992 0.84486 0.0
O1025 O 0.17629 0.61842 0.83769 0.0
O1026 O 0.28151 0.66445 0.86274 0.0
O1027 O 0.272 0.62823 0.84216 0.0
O1028 O 0.19215 0.53967 0.84518 0.0
O1029 O 0.16485 0.53794 0.86548 0.0
O1030 O 0.22429 0.60538 0.8817 0.0
O1031 O 0.15277 0.54632 0.88781 0.0
H1032 H 0.9513 0.48246 0.86091 0.0
H1033 H 0.91734 0.5307 0.85641 0.0
H1034 H 0.98636 0.61021 0.89468 0.0
H1035 H 1.01841 0.56216 0.89927 0.0
H1036 H 0.39397 0.69471 0.85711 0.0
H1037 H 0.43541 0.65842 0.86762 0.0
H1038 H 0.30819 0.52943 0.87044 0.0
H1039 H 0.26669 0.56597 0.86101 0.0
Nd1040 Nd 0.59457 0.56139 0.87299 0.0
Nd1041 Nd 0.55752 0.61921 0.85836 0.0
C1042 C 0.62762 0.50845 0.88142 0.0
C1043 C 0.61673 0.46437 0.87469 0.0
C1044 C 0.63222 0.46562 0.8603 0.0
C1045 C 0.60039 0.43892 0.84971 0.0
C1046 C 0.5542 0.41135 0.8537 0.0
C1047 C 0.54352 0.39932 0.86847 0.0
C1048 C 0.57557 0.42538 0.87909 0.0
C1049 C 0.50118 0.5285 0.87455 0.0
C1050 C 0.57186 0.55274 0.83715 0.0
C1051 C 0.51598 0.66481 0.85174 0.0
C1052 C 0.53703 0.71367 0.85442 0.0
C1053 C 0.51531 0.73846 0.85072 0.0
C1054 C 0.53885 0.78598 0.85257 0.0
C1055 C 0.58395 0.80845 0.8581 0.0
C1056 C 0.60513 0.78331 0.86194 0.0
C1057 C 0.58177 0.73619 0.86014 0.0
C1058 C 0.65062 0.65539 0.85587 0.0
C1059 C 0.59271 0.63847 0.89285 0.0
O1060 O 0.65061 0.54461 0.87319 0.0
O1061 O 0.5929 0.50874 0.88789 0.0
O1062 O 0.52523 0.52848 0.88553 0.0
O1063 O 0.52667 0.54503 0.86362 0.0
O1064 O 0.59711 0.54927 0.84775 0.0
O1065 O 0.54423 0.56918 0.8399 0.0
O1066 O 0.50586 0.63971 0.86357 0.0
O1067 O 0.53833 0.65485 0.84203 0.0
O1068 O 0.62632 0.66288 0.84648 0.0
O1069 O 0.62626 0.63546 0.86685 0.0
O1070 O 0.56629 0.64156 0.88271 0.0
O1071 O 0.61392 0.61484 0.89082 0.0
H1072 H 0.6656 0.49298 0.85673 0.0
H1073 H 0.61051 0.44406 0.83841 0.0
H1074 H 0.50888 0.37421 0.87184 0.0
H1075 H 0.56413 0.42114 0.89036 0.0
H1076 H 0.48084 0.72135 0.84627 0.0
H1077 H 0.52205 0.8052 0.84968 0.0
H1078 H 0.63997 0.80025 0.8661 0.0
H1079 H 0.59902 0.71729 0.86292 0.0
Nd1080 Nd 0.67646 0.8482 1.01049 0.0
Nd1081 Nd 0.67391 0.85099 0.03668 0.0
C1082 C 0.65884 0.83474 0.98215 0.0
C1083 C 0.65246 0.80175 0.97047 0.0
C1084 C 0.60921 0.76234 0.96836 0.0
C1085 C 0.60148 0.73403 0.95633 0.0
C1086 C 0.63659 0.74487 0.94605 0.0
C1087 C 0.68039 0.78306 0.94846 0.0
C1088 C 0.68822 0.81134 0.96054 0.0
C1089 C 0.73607 0.81062 0.01863 0.0
C1090 C 0.59041 0.75303 0.02493 0.0
C1091 C 0.69821 0.85899 0.06475 0.0
C1092 C 0.71195 0.88133 0.0794 0.0
C1093 C 0.75854 0.90563 0.08348 0.0
C1094 C 0.77112 0.9185 0.09807 0.0
C1095 C 0.7375 0.90709 0.10905 0.0
C1096 C 0.69101 0.88506 0.10484 0.0
C1097 C 0.67839 0.87216 0.09024 0.0
C1098 C 0.59577 0.85715 0.0291 0.0
C1099 C 0.73289 0.95899 0.02145 0.0
O1100 O 0.62724 0.82062 0.99227 0.0
O1101 O 0.70016 0.86072 0.98731 0.0
O1102 O 0.74415 0.84219 1.00901 0.0
O1103 O 0.69836 0.80338 0.02509 0.0
O1104 O 0.60644 0.77693 1.01272 0.0
O1105 O 0.61468 0.77303 0.03677 0.0
O1106 O 0.72782 0.87143 0.05397 0.0
O1107 O 0.6561 0.84286 0.0603 0.0
O1108 O 0.59909 0.8337 0.03973 0.0
O1109 O 0.63513 0.8783 0.02234 0.0
O1110 O 0.72116 0.93477 0.03389 0.0
O1111 O 0.71857 0.93199 1.00974 0.0
H1112 H 0.58073 0.75418 0.97569 0.0
H1113 H 0.5674 0.70482 0.9547 0.0
H1114 H 0.70826 0.79166 0.9408 0.0
H1115 H 0.72185 0.84146 0.96185 0.0
H1116 H 0.78535 0.91306 0.07552 0.0
H1117 H 0.80732 0.93631 0.10084 0.0
H1118 H 0.66419 0.8757 0.11297 0.0
H1119 H 0.64212 0.85302 0.08759 0.0
Nd1120 Nd 0.32321 0.85623 1.01131 0.0
Nd1121 Nd 0.31856 0.8488 0.03726 0.0
C1122 C 0.33763 0.85136 0.98309 0.0
C1123 C 0.37137 0.87628 0.97139 0.0
C1124 C 0.40274 0.86202 0.96734 0.0
C1125 C 0.4308 0.88071 0.95511 0.0
C1126 C 0.42772 0.91365 0.94661 0.0
C1127 C 0.39841 0.92998 0.95106 0.0
C1128 C 0.37019 0.91124 0.96335 0.0
C1129 C 0.36006 0.95285 0.01951 0.0
C1130 C 0.41843 0.86647 0.02583 0.0
C1131 C 0.30442 0.85665 0.06549 0.0
C1132 C 0.29677 0.85955 0.08146 0.0
C1133 C 0.2857 0.89189 0.08689 0.0
C1134 C 0.27896 0.89469 0.10192 0.0
C1135 C 0.28338 0.86544 0.11201 0.0
C1136 C 0.29318 0.83222 0.1065 0.0
C1137 C 0.29992 0.82941 0.09146 0.0
C1138 C 0.31429 0.76608 0.02901 0.0
C1139 C 0.21151 0.8015 0.0216 0.0
O1140 O 0.35072 0.83351 0.9933 0.0
O1141 O 0.31259 0.86812 0.98811 0.0
O1142 O 0.32985 0.9296 1.00954 0.0
O1143 O 0.36637 0.92243 0.02636 0.0
O1144 O 0.39574 0.85988 1.01349 0.0
O1145 O 0.39697 0.86888 0.03768 0.0
O1146 O 0.2985 0.88075 0.05542 0.0
O1147 O 0.31871 0.82979 0.06047 0.0
O1148 O 0.33836 0.79298 0.03949 0.0
O1149 O 0.29255 0.78401 0.02256 0.0
O1150 O 0.23493 0.8128 0.03412 0.0
O1151 O 0.23936 0.81535 1.01002 0.0
H1152 H 0.40446 0.83516 0.97332 0.0
H1153 H 0.45378 0.86823 0.95198 0.0
H1154 H 0.39571 0.95553 0.94463 0.0
H1155 H 0.34639 0.92295 0.96622 0.0
H1156 H 0.2824 0.91523 0.07952 0.0
H1157 H 0.27014 0.91987 0.10565 0.0
H1158 H 0.29667 0.80901 0.11387 0.0
H1159 H 0.30788 0.80367 0.08767 0.0
Nd1160 Nd 0.31479 0.49502 1.01147 0.0
Nd1161 Nd 0.32191 0.49726 0.03813 0.0
C1162 C 0.32021 0.51379 0.98318 0.0
C1163 C 0.29568 0.52217 0.9713 0.0
C1164 C 0.30629 0.56726 0.96806 0.0
C1165 C 0.28808 0.57648 0.95573 0.0
C1166 C 0.25917 0.5409 0.94633 0.0
C1167 C 0.24671 0.49556 0.94988 0.0
C1168 C 0.26505 0.48627 0.96223 0.0
C1169 C 0.21811 0.43558 0.02023 0.0
C1170 C 0.30586 0.58029 0.02623 0.0
C1171 C 0.3078 0.4729 0.0664 0.0
C1172 C 0.31759 0.45794 0.08078 0.0
C1173 C 0.28968 0.41254 0.08569 0.0
C1174 C 0.2927 0.39979 0.10011 0.0
C1175 C 0.32389 0.43193 0.11014 0.0
C1176 C 0.35295 0.47706 0.10511 0.0
C1177 C 0.3497 0.48992 0.09069 0.0
C1178 C 0.40538 0.57495 0.02945 0.0
C1179 C 0.36928 0.43798 0.02193 0.0
O1180 O 0.33779 0.5448 0.99335 0.0
O1181 O 0.30319 0.47221 0.98829 0.0
O1182 O 0.24097 0.42834 1.0101 0.0
O1183 O 0.24896 0.47255 0.02683 0.0
O1184 O 0.31212 0.56398 1.01385 0.0
O1185 O 0.30312 0.55651 0.03812 0.0
O1186 O 0.28851 0.44384 0.0557 0.0
O1187 O 0.33443 0.51463 0.06175 0.0
O1188 O 0.38049 0.57192 0.0407 0.0
O1189 O 0.38638 0.53546 0.02296 0.0
O1190 O 0.35775 0.44954 0.03459 0.0
O1191 O 0.35596 0.45252 1.01041 0.0
H1192 H 0.32986 0.59574 0.9748 0.0
H1193 H 0.29745 0.61161 0.95333 0.0
H1194 H 0.22433 0.46756 0.94278 0.0
H1195 H 0.25641 0.45123 0.96439 0.0
H1196 H 0.26409 0.38705 0.07853 0.0
H1197 H 0.26984 0.36471 0.1035 0.0
H1198 H 0.37688 0.50302 0.11252 0.0
H1199 H 0.37123 0.52544 0.08749 0.0
Nd1200 Nd 0.31873 0.51655 0.51376 0.0
Nd1201 Nd 0.27048 0.42359 0.4992 0.0
C1202 C 0.35977 0.60347 0.51922 0.0
C1203 C 0.407 0.62995 0.51423 0.0
C1204 C 0.42663 0.67576 0.50988 0.0
C1205 C 0.47031 0.6974 0.50345 0.0
C1206 C 0.49373 0.67304 0.50144 0.0
C1207 C 0.4731 0.62687 0.50509 0.0
C1208 C 0.42998 0.60545 0.51139 0.0
C1209 C 0.36209 0.46688 0.51752 0.0
C1210 C 0.34585 0.50403 0.47939 0.0
C1211 C 0.23233 0.33894 0.48973 0.0
C1212 C 0.21121 0.29574 0.49746 0.0
C1213 C 0.21789 0.29551 0.51253 0.0
C1214 C 0.18284 0.26297 0.52132 0.0
C1215 C 0.13929 0.23469 0.51515 0.0
C1216 C 0.13776 0.22819 0.49977 0.0
C1217 C 0.17359 0.25905 0.49099 0.0
C1218 C 0.23238 0.47878 0.49502 0.0
C1219 C 0.2558 0.43307 0.53451 0.0
O1220 O 0.33087 0.58552 0.50845 0.0
O1221 O 0.35325 0.57378 0.52952 0.0
O1222 O 0.36176 0.49432 0.52737 0.0
O1223 O 0.34339 0.47007 0.50609 0.0
O1224 O 0.34812 0.5325 0.48982 0.0
O1225 O 0.32175 0.45951 0.48115 0.0
O1226 O 0.27657 0.36481 0.49138 0.0
O1227 O 0.20982 0.36122 0.49113 0.0
O1228 O 0.23854 0.45637 0.48459 0.0
O1229 O 0.24623 0.47111 0.5068 0.0
O1230 O 0.25875 0.40695 0.52417 0.0
O1231 O 0.267 0.4758 0.53161 0.0
H1232 H 0.4086 0.69454 0.51144 0.0
H1233 H 0.48664 0.7333 0.50055 0.0
H1234 H 0.49123 0.608 0.50366 0.0
H1235 H 0.41456 0.56946 0.51402 0.0
H1236 H 0.24677 0.32406 0.51774 0.0
H1237 H 0.18736 0.26632 0.53302 0.0
H1238 H 0.10714 0.20535 0.49388 0.0
H1239 H 0.1684 0.25848 0.4793 0.0
Nd1240 Nd 0.6663 0.86005 0.51111 0.0
Nd1241 Nd 0.75734 0.87568 0.4961 0.0
C1242 C 0.58007 0.83114 0.51718 0.0
C1243 C 0.55366 0.85007 0.5107 0.0
C1244 C 0.50577 0.82432 0.50997 0.0
C1245 C 0.48163 0.84285 0.5032 0.0
C1246 C 0.50505 0.88786 0.49774 0.0
C1247 C 0.55309 0.91297 0.49804 0.0
C1248 C 0.57735 0.89385 0.50428 0.0
C1249 C 0.73364 0.95059 0.50884 0.0
C1250 C 0.67931 0.876 0.47545 0.0
C1251 C 0.83926 0.89907 0.48544 0.0
C1252 C 0.8841 0.92225 0.49236 0.0
C1253 C 0.9243 0.93353 0.48444 0.0
C1254 C 0.96133 0.9346 0.49192 0.0
C1255 C 0.95259 0.91663 0.5062 0.0
C1256 C 0.92517 0.92902 0.51451 0.0
C1257 C 0.88599 0.92364 0.50764 0.0
C1258 C 0.68581 0.78831 0.49694 0.0
C1259 C 0.74355 0.86791 0.53283 0.0
O1260 O 0.5926 0.8099 0.50787 0.0
O1261 O 0.61348 0.85949 0.52571 0.0
O1262 O 0.7018 0.93523 0.51882 0.0
O1263 O 0.72521 0.91919 0.49987 0.0
O1264 O 0.6508 0.86067 0.48671 0.0
O1265 O 0.72318 0.8884 0.47664 0.0
O1266 O 0.81988 0.92379 0.48313 0.0
O1267 O 0.81109 0.85865 0.49101 0.0
O1268 O 0.71172 0.80543 0.4855 0.0
O1269 O 0.69873 0.81696 0.50709 0.0
O1270 O 0.77284 0.88383 0.52153 0.0
O1271 O 0.69871 0.84855 0.53104 0.0
H1272 H 0.48713 0.79052 0.51484 0.0
H1273 H 0.44467 0.82284 0.50285 0.0
H1274 H 0.57158 0.94788 0.49399 0.0
H1275 H 0.61462 0.91375 0.50445 0.0
H1276 H 0.92485 0.93527 0.47263 0.0
H1277 H 0.98946 0.9361 0.48563 0.0
H1278 H 0.92423 0.92687 0.5263 0.0
H1279 H 0.85613 0.91592 0.51419 0.0
Nd1280 Nd 0.31964 0.84867 0.51002 0.0
Nd1281 Nd 0.27686 0.90362 0.49738 0.0
C1282 C 0.36379 0.80451 0.51478 0.0
C1283 C 0.34972 0.75867 0.50924 0.0
C1284 C 0.33285 0.74716 0.49493 0.0
C1285 C 0.30721 0.70156 0.49074 0.0
C1286 C 0.29869 0.66672 0.50071 0.0
C1287 C 0.31738 0.67826 0.51483 0.0
C1288 C 0.3429 0.72399 0.51905 0.0
C1289 C 0.22624 0.80804 0.51371 0.0
C1290 C 0.28216 0.83223 0.47597 0.0
C1291 C 0.23333 0.94856 0.49123 0.0
C1292 C 0.2366 0.98793 0.49928 0.0
C1293 C 0.22753 0.98268 0.51439 0.0
C1294 C 0.25946 1.01506 0.5239 0.0
C1295 C 0.29952 1.05195 0.51815 0.0
C1296 C 0.30001 1.06388 0.50342 0.0
C1297 C 0.26773 1.03182 0.49391 0.0
C1298 C 0.37078 0.94109 0.49451 0.0
C1299 C 0.3093 0.91585 0.5325 0.0
O1300 O 0.37729 0.83703 0.50494 0.0
O1301 O 0.33515 0.8053 0.52435 0.0
O1302 O 0.25278 0.80085 0.5222 0.0
O1303 O 0.24886 0.8297 0.50267 0.0
O1304 O 0.31302 0.83296 0.4851 0.0
O1305 O 0.25673 0.85056 0.47939 0.0
O1306 O 0.21402 0.90954 0.49828 0.0
O1307 O 0.27153 0.95665 0.48469 0.0
O1308 O 0.34473 0.93944 0.48381 0.0
O1309 O 0.34665 0.92287 0.50561 0.0
O1310 O 0.28222 0.91915 0.52252 0.0
O1311 O 0.33466 0.89717 0.52921 0.0
H1312 H 0.33729 0.77316 0.48714 0.0
H1313 H 0.29269 0.6936 0.47988 0.0
H1314 H 0.31159 0.65192 0.5227 0.0
H1315 H 0.35511 0.73215 0.53018 0.0
H1316 H 0.20141 0.95026 0.51892 0.0
H1317 H 0.25623 1.00746 0.53541 0.0
H1318 H 0.3295 0.09391 0.49888 0.0
H1319 H 0.27375 1.03775 0.48227 0.0
Nd1320 Nd 0.20418 0.61473 0.33396 0.0
Nd1321 Nd 0.19972 0.61876 0.35994 0.0
C1322 C 0.18253 0.60019 0.30585 0.0
C1323 C 0.17264 0.59165 0.28996 0.0
C1324 C 0.13317 0.58921 0.28385 0.0
C1325 C 0.12373 0.58012 0.26891 0.0
C1326 C 0.15323 0.5727 0.25967 0.0
C1327 C 0.19254 0.57481 0.2659 0.0
C1328 C 0.20227 0.5845 0.28079 0.0
C1329 C 0.28197 0.60988 0.34246 0.0
C1330 C 0.14346 0.50779 0.34958 0.0
C1331 C 0.21763 0.63119 0.38823 0.0
C1332 C 0.22545 0.66355 0.40009 0.0
C1333 C 0.26635 0.68072 0.40804 0.0
C1334 C 0.27503 0.71062 0.41961 0.0
C1335 C 0.24298 0.72409 0.42346 0.0
C1336 C 0.20193 0.70706 0.41549 0.0
C1337 C 0.19327 0.67709 0.4038 0.0
C1338 C 0.14059 0.65609 0.35126 0.0
C1339 C 0.28583 0.71397 0.34542 0.0
O1340 O 0.15236 0.59552 0.31581 0.0
O1341 O 0.22352 0.61376 0.3109 0.0
O1342 O 0.27984 0.6343 0.33193 0.0
O1343 O 0.2421 0.58837 0.34893 0.0
O1344 O 0.15784 0.53131 0.33709 0.0
O1345 O 0.15518 0.53528 0.36113 0.0
O1346 O 0.24927 0.64574 0.37812 0.0
O1347 O 0.17609 0.60669 0.38306 0.0
O1348 O 0.13339 0.62672 0.36156 0.0
O1349 O 0.17772 0.66214 0.34462 0.0
O1350 O 0.26862 0.69106 0.35773 0.0
O1351 O 0.26312 0.69276 0.33345 0.0
H1352 H 0.10959 0.59441 0.29061 0.0
H1353 H 1.09321 0.57905 0.26459 0.0
H1354 H 0.21536 0.56787 0.25939 0.0
H1355 H 0.23271 0.5855 0.28518 0.0
H1356 H 0.29151 0.67055 0.40537 0.0
H1357 H 0.30647 0.72247 0.42577 0.0
H1358 H 0.17671 0.717 0.41829 0.0
H1359 H 0.16152 0.66443 0.39777 0.0
Nd1360 Nd 0.55841 0.61755 0.33372 0.0
Nd1361 Nd 0.55397 0.61138 0.35999 0.0
C1362 C 0.57244 0.60928 0.30549 0.0
C1363 C 0.58004 0.60618 0.28951 0.0
C1364 C 0.59211 0.57449 0.28412 0.0
C1365 C 0.60113 0.57313 0.26916 0.0
C1366 C 0.5991 0.60394 0.25913 0.0
C1367 C 0.58634 0.63519 0.26456 0.0
C1368 C 0.57697 0.63629 0.27949 0.0
C1369 C 0.56259 0.70059 0.34174 0.0
C1370 C 0.66544 0.66556 0.34928 0.0
C1371 C 0.54234 0.6197 0.38827 0.0
C1372 C 0.51201 0.60001 0.40106 0.0
C1373 C 0.50005 0.62833 0.4089 0.0
C1374 C 0.47263 0.61215 0.42138 0.0
C1375 C 0.45661 0.56725 0.42633 0.0
C1376 C 0.46848 0.53866 0.41844 0.0
C1377 C 0.49591 0.55489 0.40584 0.0
C1378 C 0.51707 0.51439 0.35172 0.0
C1379 C 0.4587 0.60017 0.34538 0.0
O1380 O 0.57811 0.58513 0.3156 0.0
O1381 O 0.55813 0.63618 0.31046 0.0
O1382 O 0.53869 0.67338 0.33131 0.0
O1383 O 0.58438 0.68287 0.34828 0.0
O1384 O 0.64192 0.6516 0.33682 0.0
O1385 O 0.63784 0.65421 0.36088 0.0
O1386 O 0.52756 0.63565 0.37797 0.0
O1387 O 0.56492 0.60024 0.38326 0.0
O1388 O 0.54745 0.5378 0.36165 0.0
O1389 O 0.51045 0.54485 0.34505 0.0
O1390 O 0.48175 0.60789 0.35769 0.0
O1391 O 0.47972 0.59671 0.33356 0.0
H1392 H 0.59468 0.55069 0.29147 0.0
H1393 H 0.60925 0.54746 0.26546 0.0
H1394 H 0.58435 0.6595 0.2573 0.0
H1395 H 0.56791 0.66131 0.28321 0.0
H1396 H 0.51219 0.66328 0.40539 0.0
H1397 H 0.4637 0.63476 0.42714 0.0
H1398 H 0.45716 0.50405 0.42212 0.0
H1399 H 0.50475 0.53241 0.39997 0.0
Nd1400 Nd 0.55515 0.96944 0.33325 0.0
Nd1401 Nd 0.56276 0.97334 0.35906 0.0
C1402 C 0.57222 0.99612 0.3054 0.0
C1403 C 0.56732 1.01199 0.29068 0.0
C1404 C 0.60731 1.0396 0.28251 0.0
C1405 C 0.60476 1.05192 0.26807 0.0
C1406 C 0.56199 1.0373 0.26131 0.0
C1407 C 0.52172 1.01025 0.26966 0.0
C1408 C 0.52434 0.99738 0.28412 0.0
C1409 C 0.47141 0.89181 0.34145 0.0
C1410 C 0.50776 1.02939 0.34867 0.0
C1411 C 0.55744 0.95498 0.38731 0.0
C1412 C 0.58175 0.94321 0.39832 0.0
C1413 C 0.56917 0.89709 0.40062 0.0
C1414 C 0.58801 0.885 0.41211 0.0
C1415 C 0.61949 0.91871 0.42154 0.0
C1416 C 0.6341 0.96502 0.41882 0.0
C1417 C 0.61515 0.97721 0.40732 0.0
C1418 C 0.65954 1.03236 0.35055 0.0
C1419 C 0.57133 0.88685 0.34479 0.0
O1420 O 0.59063 1.02462 0.31628 0.0
O1421 O 0.54369 0.95427 0.30956 0.0
O1422 O 0.49717 0.89482 0.33044 0.0
O1423 O 0.49008 0.93105 0.34814 0.0
O1424 O 0.51456 1.01277 0.33624 0.0
O1425 O 0.52593 1.01989 0.3601 0.0
O1426 O 0.53535 0.92432 0.37734 0.0
O1427 O 0.57794 0.99665 0.38213 0.0
O1428 O 0.63616 1.04045 0.36026 0.0
O1429 O 0.62891 0.99465 0.34421 0.0
O1430 O 0.56756 0.90504 0.35715 0.0
O1431 O 0.57174 0.90899 0.3328 0.0
H1432 H 0.64088 1.05077 0.2872 0.0
H1433 H 0.63658 0.07216 0.26207 0.0
H1434 H 0.48808 0.99908 0.26507 0.0
H1435 H 0.49284 0.97581 0.29012 0.0
H1436 H 0.54362 0.87004 0.39386 0.0
H1437 H 0.57689 0.84914 0.41393 0.0
H1438 H 0.65846 0.9915 0.42601 0.0
H1439 H 0.6255 1.01298 0.4058 0.0
C1440 C 0.29958 0.25428 0.19544 0.0
C1441 C 0.28725 0.26712 0.20848 0.0
C1442 C 0.28493 0.20874 0.19262 0.0
C1443 C 0.25733 0.17478 0.20273 0.0
H1444 H 0.31937 0.27949 0.18711 0.0
H1445 H 0.29393 0.19983 0.18223 0.0
S1446 S 0.21629 0.19093 0.23858 0.0
N1447 N 0.24678 0.24324 0.23175 0.0
N1448 N 0.21885 0.1561 0.22637 0.0
C1449 C 0.24552 0.18696 0.216 0.0
C1450 C 0.26086 0.2338 0.21895 0.0
C1451 C 0.94856 0.12558 0.19124 0.0
C1452 C 0.98414 0.13391 0.20096 0.0
C1453 C 0.90556 0.08692 0.19286 0.0
C1454 C 0.89785 1.05592 0.2041 0.0
H1455 H 0.955 0.14703 0.1817 0.0
H1456 H 0.87945 0.07955 0.1847 0.0
S1457 S 0.97747 1.06633 0.23363 0.0
N1458 N 1.00758 0.11181 0.22317 0.0
N1459 N 0.92605 1.03769 0.22609 0.0
C1460 C 0.9319 1.06536 0.2145 0.0
C1461 C 0.97548 0.10504 0.21297 0.0
C1462 C 0.12037 0.90136 0.22072 0.0
C1463 C 0.12286 0.8674 0.21252 0.0
C1464 C 1.08689 0.91328 0.21756 0.0
C1465 C 1.05474 0.89027 0.2065 0.0
H1466 H 0.14635 0.92113 0.22876 0.0
H1467 H 1.08734 0.94171 0.22325 0.0
S1468 S 1.04371 0.79551 0.18333 0.0
N1469 N 1.08828 0.80872 0.19392 0.0
N1470 N 1.02466 0.83022 0.18825 0.0
C1471 C 1.05475 0.85404 0.19911 0.0
C1472 C 1.08907 0.84266 0.2021 0.0
C1473 C 0.21043 0.22495 0.36978 0.0
C1474 C 0.22434 0.2034 0.35915 0.0
C1475 C 0.1665 0.22287 0.36954 0.0
C1476 C 0.13338 0.20005 0.35843 0.0
H1477 H 0.23371 0.2435 0.3786 0.0
H1478 H 0.15875 0.24006 0.37814 0.0
S1479 S 0.14975 0.13502 0.32826 0.0
N1480 N 0.19831 0.1558 0.33749 0.0
N1481 N 0.11828 0.15325 0.33672 0.0
C1482 C 0.14665 0.17792 0.34779 0.0
C1483 C 0.19094 0.17921 0.34823 0.0
C1484 C 0.96319 0.98103 0.34579 0.0
C1485 C 0.97682 0.96238 0.35745 0.0
C1486 C 0.96515 1.02482 0.34669 0.0
C1487 C 0.98197 1.05347 0.35919 0.0
H1488 H 0.9505 0.96144 0.33583 0.0
H1489 H 0.95416 1.03659 0.33737 0.0
S1490 S 1.0259 1.02338 0.39237 0.0
N1491 N 1.00967 0.97857 0.38168 0.0
N1492 N 1.01461 1.05885 0.38328 0.0
C1493 C 0.99663 1.03533 0.3707 0.0
C1494 C 0.99376 0.99081 0.36988 0.0
C1495 C 0.14502 0.98074 0.37088 0.0
C1496 C 0.12297 0.95206 0.35864 0.0
C1497 C 0.18838 1.02261 0.37003 0.0
C1498 C 0.21301 1.04023 0.35677 0.0
H1499 H 0.12829 0.97085 0.38145 0.0
H1500 H 0.20216 1.04204 0.37996 0.0
S1501 S 0.17083 0.98158 0.32094 0.0
N1502 N 0.13037 0.94666 0.33248 0.0
N1503 N 0.20973 1.02459 0.33076 0.0
C1504 C 0.19117 1.01233 0.34434 0.0
C1505 C 0.14725 0.96896 0.34528 0.0
C1506 C 0.93019 0.86405 0.84724 0.0
C1507 C 0.9063 0.83267 0.83616 0.0
C1508 C 0.92911 0.90424 0.84843 0.0
C1509 C 0.90344 0.91408 0.83864 0.0
H1510 H 0.95114 0.8588 0.85491 0.0
H1511 H 0.9486 0.92795 0.85709 0.0
S1512 S 0.83684 0.84487 0.80712 0.0
N1513 N 0.85786 0.81465 0.81471 0.0
N1514 N 0.85498 0.89151 0.81716 0.0
C1515 C 0.87956 0.8837 0.82734 0.0
C1516 C 0.88089 0.84231 0.8261 0.0
C1517 C 0.31502 0.09543 0.84366 0.0
C1518 C 0.33932 0.10932 0.8304 0.0
C1519 C 0.2684 1.06352 0.84393 0.0
C1520 C 0.24471 1.04398 0.83098 0.0
H1521 H 0.33156 0.11119 0.85387 0.0
H1522 H 0.25046 1.05477 0.85434 0.0
S1523 S 0.29353 1.06286 0.79371 0.0
N1524 N 0.33741 0.09765 0.8041 0.0
N1525 N 0.24882 1.03575 0.8048 0.0
C1526 C 0.2689 1.05451 0.81775 0.0
C1527 C 0.31668 0.08771 0.81742 0.0
C1528 C 1.10169 0.28098 0.84197 0.0
C1529 C 1.06332 0.24217 0.83615 0.0
C1530 C 0.14271 0.28084 0.84446 0.0
C1531 C 0.14604 0.24214 0.84095 0.0
H1532 H 1.09971 0.31111 0.84491 0.0
H1533 H 0.17159 0.31062 0.8493 0.0
S1534 S 1.05627 0.13233 0.82561 0.0
N1535 N 1.03171 0.16419 0.82693 0.0
N1536 N 0.10902 0.16449 0.83168 0.0
C1537 C 0.10839 0.20357 0.83498 0.0
C1538 C 1.06681 0.20343 0.83254 0.0
C1539 C 1.0198 0.94765 0.66383 0.0
C1540 C 0.98848 0.93616 0.67576 0.0
C1541 C 1.06161 0.94603 0.66455 0.0
C1542 C 1.07645 0.93388 0.67739 0.0
H1543 H 1.01207 0.95843 0.65361 0.0
H1544 H 1.08322 0.95562 0.6549 0.0
S1545 S 1.00992 0.90268 0.71233 0.0
N1546 N 0.97733 0.91278 0.70118 0.0
N1547 N 1.05535 0.91109 0.70271 0.0
C1548 C 1.04595 0.92291 0.68955 0.0
C1549 C 1.0026 0.92365 0.6887 0.0
C1550 C 0.22997 0.1493 0.66549 0.0
C1551 C 0.23698 0.17385 0.67868 0.0
C1552 C 0.22838 0.10609 0.66475 0.0
C1553 C 0.23477 0.08409 0.67705 0.0
H1554 H 0.22453 0.16313 0.65551 0.0
H1555 H 0.2217 0.08946 0.65421 0.0
S1556 S 0.25279 0.13167 0.71464 0.0
N1557 N 0.24898 0.17064 0.70471 0.0
N1558 N 0.24725 0.09125 0.7032 0.0
C1559 C 0.24206 0.1082 0.69037 0.0
C1560 C 0.2428 0.15209 0.69119 0.0
C1561 C 1.01633 0.11942 0.66528 0.0
C1562 C 0.99801 0.09391 0.67836 0.0
C1563 C 1.05943 0.16172 0.66465 0.0
C1564 C 1.08745 0.18285 0.67707 0.0
H1565 H 0.99753 0.10614 0.65521 0.0
H1566 H 1.07125 0.17801 0.65409 0.0
S1567 S 1.05933 0.12957 0.71402 0.0
N1568 N 1.01491 0.0932 0.70412 0.0
N1569 N 1.09378 0.17163 0.7029 0.0
C1570 C 1.0699 0.1577 0.69023 0.0
C1571 C 1.02622 0.11408 0.69087 0.0
C1572 C 0.9247 0.54156 0.52019 0.0
C1573 C 0.94871 0.53082 0.53045 0.0
C1574 C 0.92832 0.58433 0.52019 0.0
C1575 C 0.95512 0.61704 0.5306 0.0
H1576 H 0.90353 0.51694 0.51197 0.0
H1577 H 0.90986 0.59175 0.51204 0.0
S1578 S 1.02668 0.60628 0.5592 0.0
N1579 N 1.00243 0.55644 0.55067 0.0
N1580 N 1.00781 0.63748 0.55101 0.0
C1581 C 0.98057 0.60748 0.54064 0.0
C1582 C 0.97748 0.56389 0.54052 0.0
C1583 C 0.58561 0.36122 0.54573 0.0
C1584 C 0.54384 0.36082 0.54416 0.0
C1585 C 0.6274 0.40159 0.54451 0.0
C1586 C 0.62861 0.44279 0.54135 0.0
H1587 H 0.58705 0.33042 0.54693 0.0
H1588 H 0.65864 0.3995 0.54443 0.0
S1589 S 0.52917 0.46177 0.53944 0.0
N1590 N 0.50596 0.40588 0.5419 0.0
N1591 N 0.58552 0.48292 0.53926 0.0
C1592 C 0.58739 0.44399 0.54144 0.0
C1593 C 0.54459 0.40256 0.54287 0.0
C1594 C 0.78452 0.28571 0.53844 0.0
C1595 C 0.73927 0.2489 0.53855 0.0
C1596 C 0.82095 0.27842 0.54128 0.0
C1597 C 0.81281 0.23444 0.54462 0.0
H1598 H 0.79194 0.31963 0.53512 0.0
H1599 H 0.85558 0.30695 0.54017 0.0
S1600 S 0.70027 0.12812 0.54814 0.0
N1601 N 0.68753 0.16786 0.54342 0.0
N1602 N 0.75699 0.15457 0.54936 0.0
C1603 C 0.76768 0.19806 0.54597 0.0
C1604 C 0.73044 0.2052 0.54275 0.0
C1605 C 0.85818 0.52713 0.7042 0.0
C1606 C 0.88628 0.53323 0.69176 0.0
C1607 C 0.81623 0.52846 0.70362 0.0
C1608 C 0.7981 0.53483 0.69045 0.0
H1609 H 0.86859 0.52083 0.71472 0.0
H1610 H 0.79716 0.52325 0.71368 0.0
S1611 S 0.85519 0.54963 0.65422 0.0
N1612 N 0.89074 0.54472 0.66555 0.0
N1613 N 0.81247 0.54595 0.66432 0.0
C1614 C 0.82541 0.54035 0.67782 0.0
C1615 C 0.86888 0.53991 0.67848 0.0
C1616 C 0.65044 0.32255 0.70396 0.0
C1617 C 0.63814 0.2955 0.69113 0.0
C1618 C 0.65216 0.3659 0.70473 0.0
C1619 C 0.64068 0.38567 0.69287 0.0
H1620 H 0.66003 0.31063 0.71358 0.0
H1621 H 0.663 0.38439 0.71494 0.0
S1622 S 0.60727 0.33081 0.65631 0.0
N1623 N 0.61549 0.29389 0.66588 0.0
N1624 N 0.61741 0.37337 0.66749 0.0
C1625 C 0.62814 0.35903 0.67993 0.0
C1626 C 0.62727 0.31501 0.67904 0.0
C1627 C 0.85727 0.34744 0.67868 0.0
C1628 C 0.87737 0.37691 0.69092 0.0
C1629 C 0.81343 0.30551 0.67937 0.0
C1630 C 0.78611 0.29067 0.69227 0.0
H1631 H 0.87563 0.35684 0.66837 0.0
H1632 H 0.80038 0.28523 0.66955 0.0
S1633 S 0.82051 0.35571 0.72732 0.0
N1634 N 0.86417 0.38718 0.7163 0.0
N1635 N 0.7837 0.31138 0.71756 0.0
C1636 C 0.80576 0.32034 0.70446 0.0
C1637 C 0.85039 0.36221 0.70382 0.0
C1638 C 0.55868 0.2002 0.15832 0.0
C1639 C 0.59305 0.19228 0.16395 0.0
C1640 C 0.56103 0.24234 0.16038 0.0
C1641 C 0.59823 0.27731 0.16786 0.0
H1642 H 0.52911 0.17331 0.15272 0.0
H1643 H 0.53332 0.24726 0.1565 0.0
S1644 S 0.69629 0.2743 0.18476 0.0
N1645 N 0.66499 0.22318 0.17733 0.0
N1646 N 0.66958 0.30278 0.18087 0.0
C1647 C 0.63331 0.27052 0.17313 0.0
C1648 C 0.63071 0.22772 0.17124 0.0
C1649 C 0.95997 0.40309 0.15292 0.0
C1650 C 0.98269 0.42871 0.16535 0.0
C1651 C 0.91848 0.36215 0.15438 0.0
C1652 C 0.89916 0.34728 0.16824 0.0
H1653 H 0.97493 0.41396 0.14214 0.0
H1654 H 0.90261 0.34119 0.14484 0.0
S1655 S 0.94157 0.40476 0.20378 0.0
N1656 N 0.98177 0.43689 0.19181 0.0
N1657 N 0.90071 0.36306 0.19416 0.0
C1658 C 0.91927 0.37457 0.1805 0.0
C1659 C 0.96229 0.41452 0.17918 0.0
C1660 C 0.77978 0.54011 0.16373 0.0
C1661 C 0.8223 0.57776 0.16745 0.0
C1662 C 0.74174 0.54521 0.16217 0.0
C1663 C 0.74513 0.58803 0.16434 0.0
H1664 H 0.77502 0.50584 0.1631 0.0
H1665 H 0.70909 0.51478 0.15992 0.0
S1666 S 0.85091 0.69831 0.17174 0.0
N1667 N 0.86788 0.65992 0.1714 0.0
N1668 N 0.79496 0.66974 0.16856 0.0
C1669 C 0.78813 0.62669 0.16696 0.0
C1670 C 0.82725 0.62146 0.16847 0.0
C1671 C 0.72828 0.27556 0.99926 0.0
C1672 C 0.74403 0.26531 1.01228 0.0
C1673 C 0.68651 0.27725 0.99852 0.0
C1674 C 0.65618 0.26771 1.01062 0.0
H1675 H 0.74913 0.28359 0.98947 0.0
H1676 H 0.678 0.28654 0.98816 0.0
S1677 S 0.68049 0.24031 0.04771 0.0
N1678 N 0.72498 0.2468 0.03795 0.0
N1679 N 0.64705 0.24862 0.03639 0.0
C1680 C 0.67122 0.25718 0.02374 0.0
C1681 C 0.71452 0.25638 0.02459 0.0
C1682 C 0.88706 0.43332 0.99961 0.0
C1683 C 0.90116 0.4153 1.01132 0.0
C1684 C 0.8889 0.47673 1.00011 0.0
C1685 C 0.90393 0.50561 1.01251 0.0
H1686 H 0.87404 0.41339 0.98973 0.0
H1687 H 0.8772 0.48725 0.99064 0.0
S1688 S 0.94357 0.47614 0.04669 0.0
N1689 N 0.9307 0.43174 0.03603 0.0
N1690 N 0.93275 0.51137 0.03716 0.0
C1691 C 0.91763 0.48801 0.02444 0.0
C1692 C 0.91668 0.44393 0.02381 0.0
C1693 C 0.68465 0.45517 0.02343 0.0
C1694 C 0.66412 0.42574 1.01117 0.0
C1695 C 0.728 0.49783 0.02262 0.0
C1696 C 0.75452 0.51375 1.00954 0.0
H1697 H 0.66707 0.44514 0.03386 0.0
H1698 H 0.74139 0.51778 0.03247 0.0
S1699 S 0.71891 0.44945 0.97438 0.0
N1700 N 0.67626 0.4169 0.98558 0.0
N1701 N 0.75565 0.49392 0.9841 0.0
C1702 C 0.73443 0.48416 0.99735 0.0
C1703 C 0.69031 0.44152 0.99813 0.0
C1704 C 0.63495 0.93412 0.84996 0.0
C1705 C 0.64374 0.95292 0.86404 0.0
C1706 C 0.61701 0.88706 0.848 0.0
C1707 C 0.60894 0.85822 0.86003 0.0
H1708 H 0.63737 0.95477 0.8406 0.0
H1709 H 0.60719 0.8728 0.83714 0.0
S1710 S 0.63421 0.89268 0.89875 0.0
N1711 N 0.64886 0.94077 0.88988 0.0
N1712 N 0.61633 0.85228 0.88619 0.0
C1713 C 0.62254 0.8775 0.87394 0.0
C1714 C 0.64018 0.92515 0.87592 0.0
C1715 C 0.22739 0.72941 0.8633 0.0
C1716 C 0.2072 0.69975 0.87522 0.0
C1717 C 0.27395 0.7622 0.86334 0.0
C1718 C 0.3017 0.76581 0.87524 0.0
H1719 H 0.20793 0.72474 0.8534 0.0
H1720 H 0.28911 0.78241 0.85356 0.0
S1721 S 0.26452 0.70083 0.90985 0.0
N1722 N 0.21716 0.67977 0.89997 0.0
N1723 N 0.3059 0.74109 0.89974 0.0
C1724 C 0.28158 0.739 0.88767 0.0
C1725 C 0.23373 0.70607 0.88777 0.0
C1726 C 0.43294 0.52358 0.86336 0.0
C1727 C 0.46014 0.5328 0.87587 0.0
C1728 C 0.40274 0.54036 0.86199 0.0
C1729 C 0.39967 0.56765 0.87297 0.0
H1730 H 0.43764 0.50637 0.85408 0.0
H1731 H 0.38414 0.53473 0.85185 0.0
S1732 S 0.4607 0.59913 0.90824 0.0
N1733 N 0.47941 0.56788 0.89996 0.0
N1734 N 0.4231 0.60087 0.89705 0.0
C1735 C 0.42441 0.57501 0.88589 0.0
C1736 C 0.45456 0.557 0.88745 0.0
C1737 C 0.53818 0.87618 1.01516 0.0
C1738 C 0.55269 0.86348 0.02803 0.0
C1739 C 0.49565 0.87725 1.01442 0.0
C1740 C 0.46511 0.86671 0.02657 0.0
H1741 H 0.55916 0.8842 1.0054 0.0
H1742 H 0.48665 0.88647 1.00413 0.0
S1743 S 0.48439 0.82897 0.06271 0.0
N1744 N 0.52999 0.83822 0.05311 0.0
N1745 N 0.45321 0.84131 0.05173 0.0
C1746 C 0.47935 0.854 0.03939 0.0
C1747 C 0.52181 0.85211 0.04009 0.0
C1748 C 0.29853 0.69075 1.01497 0.0
C1749 C 0.30739 0.71659 0.02804 0.0
C1750 C 0.29784 0.64748 1.01439 0.0
C1751 C 0.30504 0.62639 0.02687 0.0
H1752 H 0.2935 0.70467 1.00495 0.0
H1753 H 0.29176 0.63046 1.00394 0.0
S1754 S 0.33098 0.67924 0.06379 0.0
N1755 N 0.32471 0.71645 0.05376 0.0
N1756 N 0.32238 0.63718 0.05267 0.0
C1757 C 0.31364 0.65186 0.03991 0.0
C1758 C 0.3151 0.6959 0.04047 0.0
C1759 C 0.47905 0.64389 0.03988 0.0
C1760 C 0.4546 0.6175 0.0275 0.0
C1761 C 0.52225 0.68587 0.03894 0.0
C1762 C 0.54435 0.7059 0.0255 0.0
H1763 H 0.46435 0.63206 0.05063 0.0
H1764 H 0.53802 0.7034 0.04901 0.0
S1765 S 0.49447 0.65435 0.98934 0.0
N1766 N 0.45643 0.61722 1.00105 0.0
N1767 N 0.53559 0.69529 0.99922 0.0
C1768 C 0.51995 0.68038 1.01294 0.0
C1769 C 0.47613 0.63692 1.01394 0.0
C1770 C 0.21999 0.53979 0.50449 0.0
C1771 C 0.23441 0.52283 0.49285 0.0
C1772 C 0.23782 0.58681 0.50623 0.0
C1773 C 0.27102 0.61822 0.49646 0.0
H1774 H 0.19831 0.51693 0.51307 0.0
H1775 H 0.22843 0.59877 0.51592 0.0
S1776 S 0.31435 0.59049 0.4629 0.0
N1777 N 0.27784 0.54019 0.47012 0.0
N1778 N 0.31342 0.62905 0.4738 0.0
C1779 C 0.28175 0.60147 0.48387 0.0
C1780 C 0.26276 0.5534 0.48194 0.0
C1781 C 0.6183 0.73075 0.50992 0.0
C1782 C 0.63877 0.75084 0.49653 0.0
C1783 C 0.57089 0.70437 0.51117 0.0
C1784 C 0.54291 0.69749 0.49905 0.0
H1785 H 0.63888 0.73785 0.51969 0.0
H1786 H 0.55586 0.69091 0.5218 0.0
S1787 S 0.57965 0.73786 0.46128 0.0
N1788 N 0.62808 0.75894 0.47062 0.0
N1789 N 0.53766 0.70846 0.47312 0.0
C1790 C 0.56264 0.71484 0.48541 0.0
C1791 C 0.61122 0.74165 0.48408 0.0
C1792 C 0.452 0.9019 0.4824 0.0
C1793 C 0.47928 0.91154 0.4949 0.0
C1794 C 0.42038 0.91751 0.48128 0.0
C1795 C 0.41447 0.94163 0.49281 0.0
H1796 H 0.4532 0.88008 0.47392 0.0
H1797 H 0.39754 0.90698 0.47207 0.0
S1798 S 0.48057 0.97812 0.5272 0.0
N1799 N 0.50155 0.9498 0.51835 0.0
N1800 N 0.44103 0.97769 0.51642 0.0
C1801 C 0.44401 0.95412 0.50482 0.0
C1802 C 0.47658 0.93911 0.50586 0.0
C1803 C 0.34145 0.59458 0.35666 0.0
C1804 C 0.32416 0.60231 0.34348 0.0
C1805 C 0.38397 0.59358 0.35726 0.0
C1806 C 0.41177 0.59936 0.3447 0.0
H1807 H 0.32285 0.59078 0.36673 0.0
H1808 H 0.39531 0.58849 0.36778 0.0
S1809 S 0.38378 0.62195 0.30746 0.0
N1810 N 0.34059 0.61692 0.31754 0.0
N1811 N 0.41764 0.61421 0.31869 0.0
C1812 C 0.39456 0.60682 0.33154 0.0
C1813 C 0.35201 0.60853 0.33095 0.0
C1814 C 0.58353 0.77843 0.35536 0.0
C1815 C 0.56828 0.74971 0.34282 0.0
C1816 C 0.58449 0.82187 0.35606 0.0
C1817 C 0.5713 0.8403 0.34419 0.0
H1818 H 0.59384 0.76686 0.36489 0.0
H1819 H 0.59587 0.84129 0.36609 0.0
S1820 S 0.5262 0.77903 0.30903 0.0
N1821 N 0.53764 0.74413 0.31841 0.0
N1822 N 0.54065 0.82361 0.31968 0.0
C1823 C 0.55599 0.81182 0.33171 0.0
C1824 C 0.55419 0.76765 0.33107 0.0
C1825 C 0.35708 0.77839 0.33174 0.0
C1826 C 0.33191 0.76102 0.34492 0.0
C1827 C 0.40049 0.82015 0.33095 0.0
C1828 C 0.42217 0.84899 0.34318 0.0
H1829 H 0.34363 0.75886 0.3218 0.0
H1830 H 0.41753 0.82985 0.32042 0.0
S1831 S 0.37316 0.81987 0.38077 0.0
N1832 N 0.33445 0.77683 0.37091 0.0
N1833 N 0.414 0.85464 0.3693 0.0
C1834 C 0.39747 0.83226 0.3565 0.0
C1835 C 0.35342 0.78896 0.35738 0.0
C1836 C 0.46179 0.50821 0.19645 0.0
C1837 C 0.4599 0.54695 0.19137 0.0
C1838 C 0.47462 0.48364 0.1873 0.0
C1839 C 0.48911 0.49895 0.17309 0.0
H1840 H 0.45517 0.49747 0.20774 0.0
H1841 H 0.48065 0.45765 0.1921 0.0
S1842 S 0.47132 0.58391 0.15274 0.0
N1843 N 0.45811 0.58838 0.16984 0.0
N1844 N 0.48676 0.54436 0.15287 0.0
C1845 C 0.47967 0.53175 0.16715 0.0
C1846 C 0.46474 0.55586 0.17633 0.0
C1847 C 0.57729 0.97918 0.1948 0.0
C1848 C 0.60986 0.99335 0.18352 0.0
C1849 C 0.55236 0.93345 0.19902 0.0
C1850 C 0.57046 0.90536 0.19536 0.0
H1851 H 0.57492 1.00378 0.20154 0.0
H1852 H 0.53078 0.92531 0.20863 0.0
S1853 S 0.63744 0.91866 0.16157 0.0
N1854 N 0.64173 0.96931 0.16391 0.0
N1855 N 0.60529 0.88581 0.17517 0.0
C1856 C 0.59516 0.91535 0.18206 0.0
C1857 C 0.61509 0.96027 0.17603 0.0
C1858 C 0.21577 0.68145 0.18169 0.0
C1859 C 0.2299 0.72647 0.18523 0.0
C1860 C 0.17131 0.65267 0.17695 0.0
C1861 C 0.13838 0.66656 0.17688 0.0
H1862 H 0.23853 0.66786 0.18347 0.0
H1863 H 0.16269 0.61884 0.17415 0.0
S1864 S 0.15819 0.78172 0.18494 0.0
N1865 N 0.20832 0.78515 0.18778 0.0
N1866 N 0.12281 0.72875 0.17968 0.0
C1867 C 0.15211 0.71192 0.1799 0.0
C1868 C 0.19829 0.7423 0.18406 0.0
C1869 C 0.43561 0.3776 0.34071 0.0
C1870 C 0.42986 0.35049 0.35362 0.0
C1871 C 0.46134 0.42826 0.34003 0.0
C1872 C 0.48524 0.45805 0.35213 0.0
H1873 H 0.41971 0.35939 0.33075 0.0
H1874 H 0.46306 0.44417 0.32961 0.0
S1875 S 0.48082 0.40827 0.38909 0.0
N1876 N 0.45056 0.3618 0.37917 0.0
N1877 N 0.49773 0.45232 0.3779 0.0
C1878 C 0.47918 0.43123 0.36506 0.0
C1879 C 0.45243 0.37997 0.3658 0.0
C1880 C 0.7464 1.06449 0.33886 0.0
C1881 C 0.71596 1.05693 0.35103 0.0
C1882 C 0.79718 0.08999 0.33962 0.0
C1883 C 0.82369 0.11034 0.35266 0.0
H1884 H 0.7309 1.05125 0.32834 0.0
H1885 H 0.816 0.09356 0.32962 0.0
S1886 S 0.76399 0.0988 0.38832 0.0
N1887 N 0.72029 0.07234 0.377 0.0
N1888 N 0.81116 0.11673 0.37839 0.0
C1889 C 0.79356 0.10171 0.3649 0.0
C1890 C 0.74215 0.07661 0.3641 0.0
C1891 C 1.07995 0.72903 0.36499 0.0
C1892 C 1.06453 0.74333 0.35249 0.0
C1893 C 1.10398 0.70267 0.3644 0.0
C1894 C 0.11674 0.68826 0.35124 0.0
H1895 H 1.07297 0.73797 0.37567 0.0
H1896 H 0.11297 0.69351 0.3747 0.0
S1897 S 1.08575 0.71464 0.31477 0.0
N1898 N 1.06515 0.73843 0.32604 0.0
N1899 N 0.10972 0.69196 0.32503 0.0
C1900 C 1.10219 0.70285 0.33862 0.0
C1901 C 1.07687 0.72902 0.33921 0.0
C1902 C 0.70777 0.63263 0.86174 0.0
C1903 C 0.68747 0.64692 0.85126 0.0
C1904 C 0.73365 0.61251 0.85765 0.0
C1905 C 0.74366 0.60937 0.84289 0.0
H1906 H 0.70117 0.63431 0.87326 0.0
H1907 H 0.74557 0.59914 0.86628 0.0
S1908 S 0.7036 0.64947 0.81116 0.0
N1909 N 0.68022 0.65943 0.82554 0.0
N1910 N 0.73409 0.62743 0.8177 0.0
C1911 C 0.72568 0.62662 0.83225 0.0
C1912 C 0.69709 0.6448 0.83647 0.0
C1913 C 0.56298 0.14706 0.85651 0.0
C1914 C 0.57342 0.16355 0.84207 0.0
C1915 C 0.53604 0.10051 0.85952 0.0
C1916 C 0.52331 1.06803 0.84847 0.0
H1917 H 0.57549 0.17003 0.86573 0.0
H1918 H 0.52698 0.08955 0.87074 0.0
S1919 S 0.53495 0.09033 0.80868 0.0
N1920 N 0.56088 0.14159 0.81624 0.0
N1921 N 0.51705 1.05368 0.82241 0.0
C1922 C 0.5317 0.08291 0.83394 0.0
C1923 C 0.55623 0.13069 0.83066 0.0
C1924 C 1.05837 0.44878 0.83241 0.0
C1925 C 1.02272 0.43043 0.84305 0.0
C1926 C 1.10459 0.47069 0.8362 0.0
C1927 C 0.11761 0.47532 0.85081 0.0
H1928 H 1.05141 0.44681 0.82086 0.0
H1929 H 0.13012 0.48711 0.82764 0.0
S1930 S 1.04158 0.42395 0.883 0.0
N1931 N 1.00626 0.4128 0.86916 0.0
N1932 N 1.0937 0.45216 0.87584 0.0
C1933 C 1.08362 0.4526 0.8615 0.0
C1934 C 1.0361 0.43079 0.85775 0.0
C1935 C 0.75482 0.70733 0.69539 0.0
C1936 C 0.72443 0.67793 0.68416 0.0
C1937 C 0.78056 0.75792 0.69475 0.0
C1938 C 0.77999 0.78526 0.68267 0.0
H1939 H 0.75852 0.69115 0.70509 0.0
H1940 H 0.80184 0.77592 0.70402 0.0
S1941 S 0.7085 0.72863 0.64978 0.0
N1942 N 0.69751 0.68428 0.66022 0.0
N1943 N 0.74502 0.77481 0.65891 0.0
C1944 C 0.75058 0.75622 0.67133 0.0
C1945 C 0.72367 0.70501 0.6721 0.0
C1946 C 0.46543 0.07085 0.67114 0.0
C1947 C 0.49324 0.0799 0.68399 0.0
C1948 C 0.41516 1.04591 0.67084 0.0
C1949 C 0.38597 1.02662 0.68336 0.0
H1950 H 0.48301 0.08362 0.66081 0.0
H1951 H 0.39886 1.04181 0.66034 0.0
S1952 S 0.43717 1.03942 0.72055 0.0
N1953 N 0.48362 1.0662 0.71012 0.0
N1954 N 0.39227 1.02074 0.70961 0.0
C1955 C 0.41302 1.03563 0.69642 0.0
C1956 C 0.46467 1.06132 0.69673 0.0
C1957 C 1.09877 0.42483 0.67149 0.0
C1958 C 1.09376 0.44677 0.6843 0.0
C1959 C 0.12293 0.39853 0.67091 0.0
C1960 C 0.14601 0.39164 0.68301 0.0
H1961 H 1.08347 0.42786 0.66148 0.0
H1962 H 0.1236 0.38342 0.66055 0.0
S1963 S 0.14827 0.44325 0.71944 0.0
N1964 N 0.11751 0.4593 0.70961 0.0
N1965 N 0.16185 0.41262 0.70856 0.0
C1966 C 0.14159 0.4137 0.6959 0.0
C1967 C 0.11643 0.44002 0.69652 0.0
C1968 C 0.17804 0.85719 0.53999 0.0
C1969 C 0.14244 0.85795 0.53223 0.0
C1970 C 0.20124 0.83618 0.53442 0.0
C1971 C 0.19319 0.8189 0.5202 0.0
H1972 H 0.18751 0.87173 0.55077 0.0
H1973 H 0.22759 0.83588 0.54112 0.0
S1974 S 0.10592 0.81299 0.49445 0.0
N1975 N 1.09927 0.83717 0.50923 0.0
N1976 N 0.14862 0.80351 0.4981 0.0
C1977 C 0.159 0.82015 0.51192 0.0
C1978 C 0.13288 0.83909 0.51795 0.0
C1979 C 0.33659 0.34748 0.51243 0.0
C1980 C 0.3267 0.32953 0.52673 0.0
C1981 C 0.35489 0.39405 0.5098 0.0
C1982 C 0.36077 0.42406 0.52118 0.0
H1983 H 0.32819 0.32557 0.50299 0.0
H1984 H 0.36081 0.40603 0.49859 0.0
S1985 S 0.35214 0.39877 0.56074 0.0
N1986 N 0.33538 0.34905 0.55273 0.0
N1987 N 0.36422 0.43589 0.54736 0.0
C1988 C 0.35516 0.40822 0.53557 0.0
C1989 C 0.33869 0.36096 0.53842 0.0
C1990 C 0.81634 0.97753 0.5105 0.0
C1991 C 0.78031 0.98675 0.51224 0.0
C1992 C 0.85767 1.00247 0.51779 0.0
C1993 C 0.86347 1.03669 0.52725 0.0
H1994 H 0.81082 0.9477 0.50501 0.0
H1995 H 0.88421 0.99352 0.51696 0.0
S1996 S 0.78733 0.08618 0.5316 0.0
N1997 N 0.75791 1.04073 0.52114 0.0
N1998 N 0.83656 0.08822 0.5352 0.0
C1999 C 0.83076 1.0511 0.52763 0.0
C2000 C 0.78861 1.02574 0.52004 0.0
C2001 C 0.13068 0.76172 0.67156 0.0
C2002 C 0.14912 0.79122 0.68407 0.0
C2003 C 0.10519 0.71121 0.67216 0.0
C2004 C 1.09437 0.68419 0.68534 0.0
H2005 H 0.13685 0.77778 0.66093 0.0
H2006 H 1.09369 0.69303 0.66193 0.0
S2007 S 0.12955 0.74151 0.72174 0.0
N2008 N 0.15087 0.78564 0.71041 0.0
N2009 N 1.10392 0.69508 0.7115 0.0
C2010 C 0.11137 0.71338 0.69789 0.0
C2011 C 0.13793 0.76454 0.69726 0.0
C2012 C 0.40801 0.41058 0.69771 0.0
C2013 C 0.38105 0.38889 0.68491 0.0
C2014 C 0.45844 0.43465 0.69843 0.0
C2015 C 0.4885 0.44132 0.68631 0.0
H2016 H 0.38964 0.40881 0.70765 0.0
H2017 H 0.47414 0.44898 0.70884 0.0
S2018 S 0.43942 0.39273 0.6496 0.0
N2019 N 0.39242 0.37665 0.6595 0.0
N2020 N 0.48362 0.42156 0.66062 0.0
C2021 C 0.46212 0.41979 0.67338 0.0
C2022 C 0.41053 0.39426 0.67274 0.0
C2023 C 0.77381 1.04393 0.67252 0.0
C2024 C 0.78031 1.02066 0.68469 0.0
C2025 C 0.74843 0.06923 0.67318 0.0
C2026 C 0.72731 0.07515 0.68615 0.0
H2027 H 0.78784 1.04197 0.66206 0.0
H2028 H 0.74569 0.08479 0.66318 0.0
S2029 S 0.7358 1.02575 0.7218 0.0
N2030 N 0.76293 1.00873 0.71057 0.0
N2031 N 0.71888 1.05546 0.71184 0.0
C2032 C 0.73487 1.05324 0.69842 0.0
C2033 C 0.75975 1.02679 0.69768 0.0
C2034 C 0.38298 0.97346 0.20794 0.0
C2035 C 0.37171 1.00448 0.2016 0.0
C2036 C 0.40087 0.95191 0.19922 0.0
C2037 C 0.41323 0.96552 0.18471 0.0
H2038 H 0.37005 0.95982 0.21869 0.0
H2039 H 0.40267 0.92306 0.20355 0.0
S2040 S 0.42165 0.06928 0.16758 0.0
N2041 N 0.39369 1.06303 0.18307 0.0
N2042 N 0.43335 1.02709 0.16708 0.0
C2043 C 0.41472 1.00606 0.18 0.0
C2044 C 0.39431 1.02607 0.1887 0.0
C2045 C 0.25232 0.52803 0.19149 0.0
C2046 C 0.28489 0.55067 0.18028 0.0
C2047 C 0.23921 0.4827 0.19527 0.0
C2048 C 0.25728 0.45941 0.18744 0.0
H2049 H 0.23168 0.54216 0.19552 0.0
H2050 H 0.21127 0.46441 0.20298 0.0
S2051 S 0.35006 0.51027 0.1593 0.0
N2052 N 0.34498 0.55354 0.16527 0.0
N2053 N 0.31179 0.46582 0.16873 0.0
C2054 C 0.29395 0.48475 0.17767 0.0
C2055 C 0.31158 0.53223 0.17563 0.0
C2056 C 0.65628 0.78868 0.19392 0.0
C2057 C 0.64628 0.74448 0.19087 0.0
C2058 C 0.70034 0.82116 0.19779 0.0
C2059 C 0.73562 0.81025 0.19905 0.0
H2060 H 0.63219 0.79993 0.19098 0.0
H2061 H 0.70755 0.85615 0.19778 0.0
S2062 S 0.72305 0.69559 0.19636 0.0
N2063 N 0.67193 0.68831 0.19214 0.0
N2064 N 0.75541 0.75041 0.20037 0.0
C2065 C 0.72423 0.76456 0.1986 0.0
C2066 C 0.67903 0.73113 0.19429 0.0
C2067 C 0.41341 1.03899 0.03127 0.0
C2068 C 0.39198 1.00903 0.01901 0.0
C2069 C 0.43897 0.08955 0.0305 0.0
C2070 C 0.44701 0.11632 1.01736 0.0
H2071 H 0.40971 1.02327 0.04186 0.0
H2072 H 0.45288 0.10799 0.04058 0.0
S2073 S 0.40312 1.05792 0.98149 0.0
N2074 N 0.38426 1.01408 0.99287 0.0
N2075 N 0.43134 0.10461 0.99147 0.0
C2076 C 0.42698 0.08669 1.00504 0.0
C2077 C 0.40032 1.03548 1.00585 0.0
C2078 C 0.13455 0.38762 1.00756 0.0
C2079 C 0.16175 0.41106 0.02016 0.0
C2080 C 1.08411 0.36363 1.00686 0.0
C2081 C 1.05409 0.35874 0.01882 0.0
H2082 H 0.15275 0.3879 0.99774 0.0
H2083 H 1.06834 0.34791 0.99659 0.0
S2084 S 1.10361 0.41316 0.05489 0.0
N2085 N 0.15052 0.42739 0.04516 0.0
N2086 N 1.05928 0.38261 0.04409 0.0
C2087 C 1.08064 0.38214 0.03154 0.0
C2088 C 0.13231 0.40761 0.03214 0.0
C2089 C 0.79106 0.72913 0.02954 0.0
C2090 C 0.81211 0.72309 1.01657 0.0
C2091 C 0.76625 0.75496 0.03023 0.0
C2092 C 0.76037 0.77873 1.0181 0.0
H2093 H 0.79352 0.71334 0.03952 0.0
H2094 H 0.7522 0.75694 0.04069 0.0
S2095 S 0.80538 0.77398 0.98103 0.0
N2096 N 0.82147 0.7435 0.99094 0.0
N2097 N 0.77839 0.79118 0.99226 0.0
C2098 C 0.78092 0.77255 1.0051 0.0
C2099 C 0.80524 0.74556 1.00434 0.0
C2100 C 0.8208 0.20658 0.84502 0.0
C2101 C 0.83664 0.189 0.8559 0.0
C2102 C 0.80167 0.23382 0.8485 0.0
C2103 C 0.79124 0.2387 0.86308 0.0
H2104 H 0.82151 0.19771 0.83375 0.0
H2105 H 0.79009 0.24657 0.83958 0.0
S2106 S 0.82808 0.1994 0.89591 0.0
N2107 N 0.8455 0.18147 0.88187 0.0
N2108 N 0.80399 0.22712 0.88874 0.0
C2109 C 0.80932 0.22285 0.8742 0.0
C2110 C 0.83178 0.19787 0.87054 0.0
C2111 C 0.98931 0.70007 0.872 0.0
C2112 C 1.0118 0.71274 0.85846 0.0
C2113 C 0.96319 0.65423 0.87597 0.0
C2114 C 0.96244 0.6197 0.86721 0.0
H2115 H 0.99071 0.72566 0.87945 0.0
H2116 H 0.94632 0.64599 0.88655 0.0
S2117 S 1.01809 0.63669 0.83066 0.0
N2118 N 1.03188 0.6887 0.83606 0.0
N2119 N 0.98629 0.60194 0.84393 0.0
C2120 C 0.98512 0.63221 0.8535 0.0
C2121 C 1.0101 0.67903 0.84923 0.0
C2122 C 0.47785 0.36415 0.82078 0.0
C2123 C 0.4357 0.35404 0.82727 0.0
C2124 C 0.5185 0.38671 0.82892 0.0
C2125 C 0.51713 0.40136 0.84316 0.0
H2126 H 0.47802 0.34607 0.81101 0.0
H2127 H 0.54928 0.38788 0.8247 0.0
S2128 S 0.42098 0.41154 0.85929 0.0
N2129 N 0.39929 0.38083 0.84436 0.0
N2130 N 0.47546 0.42463 0.85977 0.0
C2131 C 0.47803 0.404 0.84735 0.0
C2132 C 0.4373 0.38136 0.83892 0.0
C2133 C 0.76714 1.04278 1.00789 0.0
C2134 C 0.76148 1.01539 0.02072 0.0
C2135 C 0.79285 0.09341 1.00731 0.0
C2136 C 0.81693 0.12293 0.01943 0.0
H2137 H 0.75111 1.02478 0.99791 0.0
H2138 H 0.79445 0.10954 0.99693 0.0
S2139 S 0.81321 0.07243 0.05621 0.0
N2140 N 0.78264 1.02615 0.04624 0.0
N2141 N 0.82995 0.11671 0.04513 0.0
C2142 C 0.81107 0.09587 0.03229 0.0
C2143 C 0.78425 1.04459 0.03294 0.0
C2144 C 1.07793 0.72982 1.00678 0.0
C2145 C 1.04756 0.72119 0.01904 0.0
C2146 C 0.12864 0.7549 1.00755 0.0
C2147 C 0.15511 0.7736 0.02069 0.0
H2148 H 1.06241 0.71785 0.99619 0.0
H2149 H 0.14745 0.75955 0.99747 0.0
S2150 S 1.09547 0.75867 0.05657 0.0
N2151 N 1.05177 0.73374 0.04518 0.0
N2152 N 0.14267 0.77735 0.04659 0.0
C2153 C 0.12505 0.76389 0.03302 0.0
C2154 C 1.07366 0.73926 0.03221 0.0
C2155 C 0.4023 0.3846 0.03255 0.0
C2156 C 0.39694 0.40936 0.02067 0.0
C2157 C 0.42596 0.35793 0.0316 0.0
C2158 C 0.44854 0.35357 0.01878 0.0
H2159 H 0.38723 0.38513 0.04297 0.0
H2160 H 0.42671 0.34035 0.04139 0.0
S2161 S 0.44871 0.41221 0.98404 0.0
N2162 N 0.41914 0.42671 0.99516 0.0
N2163 N 0.46335 0.37991 0.99364 0.0
C2164 C 0.44455 0.37911 1.00685 0.0
C2165 C 0.4194 0.4055 1.00772 0.0
C2166 C 1.10342 0.26462 0.53301 0.0
C2167 C 1.09766 0.23036 0.52281 0.0
C2168 C 1.07268 0.28132 0.53345 0.0
C2169 C 1.03671 0.2657 0.52339 0.0
H2170 H 0.13392 0.28236 0.53964 0.0
H2171 H 1.07914 0.30892 0.54089 0.0
S2172 S 0.99707 0.16515 0.4992 0.0
N2173 N 1.0411 0.16806 0.508 0.0
N2174 N 0.99296 0.20945 0.50483 0.0
C2175 C 1.02775 0.22828 0.51456 0.0
C2176 C 1.05518 0.2073 0.51569 0.0
C2177 C 0.92306 0.84695 0.52194 0.0
C2178 C 0.93733 0.86651 0.50791 0.0
C2179 C 0.89125 0.80062 0.5238 0.0
C2180 C 0.87842 0.77031 0.51215 0.0
H2181 H 0.9337 0.86817 0.53161 0.0
H2182 H 0.87776 0.78797 0.53463 0.0
S2183 S 0.90418 0.79989 0.47304 0.0
N2184 N 0.93319 0.84903 0.4817 0.0
N2185 N 0.87878 0.76106 0.48594 0.0
C2186 C 0.89301 0.78778 0.49808 0.0
C2187 C 0.92263 0.83571 0.49587 0.0
C2188 C 0.37998 1.0672 0.51767 0.0
C2189 C 0.3438 1.06734 0.52556 0.0
C2190 C 0.42459 0.0886 0.52321 0.0
C2191 C 0.43428 0.11317 0.53625 0.0
H2192 H 0.37448 1.05314 0.50675 0.0
H2193 H 0.45239 0.09348 0.51598 0.0
S2194 S 0.3491 0.10287 0.56406 0.0
N2195 N 0.31812 0.07775 0.54942 0.0
N2196 N 0.40295 0.11948 0.55952 0.0
C2197 C 0.39728 0.10372 0.54562 0.0
C2198 C 0.35155 0.0813 0.54016 0.0
C2199 C 1.10404 0.42286 0.33785 0.0
C2200 C 0.1153 0.45166 0.35045 0.0
C2201 C 1.079 0.37271 0.33814 0.0
C2202 C 1.06187 0.34445 0.35103 0.0
H2203 H 0.11488 0.43939 0.3273 0.0
H2204 H 1.07307 0.35558 0.32772 0.0
S2205 S 1.08177 0.39929 0.38782 0.0
N2206 N 0.10632 0.44434 0.37684 0.0
N2207 N 1.06106 0.35337 0.3773 0.0
C2208 C 1.0733 0.37262 0.36385 0.0
C2209 C 1.09894 0.42415 0.36356 0.0
C2210 C 0.8008 0.70155 0.34463 0.0
C2211 C 0.82916 0.7449 0.35171 0.0
C2212 C 0.7504 0.67749 0.34381 0.0
C2213 C 0.72171 0.69334 0.3502 0.0
H2214 H 0.81802 0.68534 0.33943 0.0
H2215 H 0.73355 0.64506 0.33812 0.0
S2216 S 0.77473 0.80713 0.36901 0.0
N2217 N 0.82057 0.80344 0.36447 0.0
N2218 N 0.72934 0.75942 0.36332 0.0
C2219 C 0.74941 0.73702 0.35719 0.0
C2220 C 0.80102 0.76194 0.35784 0.0
C2221 C 0.42292 0.08042 0.33934 0.0
C2222 C 0.42396 0.10904 0.3512 0.0
C2223 C 0.44938 1.05662 0.33857 0.0
C2224 C 0.47946 1.05727 0.34976 0.0
H2225 H 0.40087 0.07613 0.33018 0.0
H2226 H 0.44534 1.03648 0.32891 0.0
S2227 S 0.49522 0.12357 0.3842 0.0
N2228 N 0.45926 0.13414 0.37497 0.0
N2229 N 0.50607 0.08982 0.37385 0.0
C2230 C 0.48028 0.08496 0.3619 0.0
C2231 C 0.45393 0.11017 0.36254 0.0
C2232 C 0.28163 0.3945 0.1336 0.0
C2233 C 0.3236 0.41899 0.12598 0.0
C2234 C 0.28004 0.3821 0.14837 0.0
C2235 C 0.32033 0.39465 0.15658 0.0
H2236 H 0.24949 0.38488 0.12813 0.0
H2237 H 0.24647 0.36257 0.15341 0.0
S2238 S 0.43746 0.44706 0.1407 0.0
N2239 N 0.40578 0.44785 0.12709 0.0
N2240 N 0.40262 0.42538 0.15494 0.0
C2241 C 0.36232 0.41696 0.14892 0.0
C2242 C 0.36397 0.42914 0.1337 0.0
C2243 C 0.73323 0.93617 0.13435 0.0
C2244 C 0.75069 0.91522 0.1249 0.0
C2245 C 0.74576 0.94398 0.14926 0.0
C2246 C 0.77542 0.93038 0.15538 0.0
H2247 H 0.71044 0.94748 0.13013 0.0
H2248 H 0.73334 0.96198 0.15596 0.0
S2249 S 0.82825 0.8713 0.13567 0.0
N2250 N 0.7979 0.87934 0.12309 0.0
N2251 N 0.82085 0.89345 0.15082 0.0
C2252 C 0.79263 0.90889 0.14607 0.0
C2253 C 0.7803 0.90132 0.13096 0.0
C2254 C 0.24591 0.83687 0.1523 0.0
C2255 C 0.2667 0.88035 0.15894 0.0
C2256 C 0.25198 0.83201 0.13722 0.0
C2257 C 0.27893 0.87045 0.12818 0.0
H2258 H 0.22327 0.80662 0.15856 0.0
H2259 H 0.23416 0.79802 0.13251 0.0
S2260 S 0.34315 0.99138 0.14054 0.0
N2261 N 0.31621 0.96222 0.15536 0.0
N2262 N 0.32923 0.95302 0.12748 0.0
C2263 C 0.30097 0.91378 0.13488 0.0
C2264 C 0.29432 0.91871 0.15008 0.0
C2265 C 0.39348 0.19978 0.48333 0.0
C2266 C 0.42887 0.24166 0.48865 0.0
C2267 C 0.38115 0.19409 0.46849 0.0
C2268 C 0.40341 0.23028 0.4583 0.0
H2269 H 0.37648 0.1706 0.49059 0.0
H2270 H 0.35483 0.16047 0.46492 0.0
S2271 S 0.49737 0.34798 0.4671 0.0
N2272 N 0.48606 0.32015 0.48279 0.0
N2273 N 0.46152 0.31071 0.45513 0.0
C2274 C 0.43837 0.27285 0.46367 0.0
C2275 C 0.45143 0.27821 0.47875 0.0
C2276 C 0.92565 0.22479 0.46577 0.0
C2277 C 0.92248 0.18414 0.46045 0.0
C2278 C 0.91679 0.22959 0.48045 0.0
C2279 C 0.90409 0.19404 0.49084 0.0
H2280 H 0.93537 0.25364 0.45851 0.0
H2281 H 0.92132 0.26251 0.48373 0.0
S2282 S 0.887 0.0789 0.48264 0.0
N2283 N 0.90356 0.10636 0.46685 0.0
N2284 N 0.88552 0.11537 0.4944 0.0
C2285 C 0.8989 0.15247 0.48565 0.0
C2286 C 0.9083 0.14752 0.47055 0.0
C2287 C 0.99335 0.78418 0.46674 0.0
C2288 C 0.97853 0.75095 0.4556 0.0
C2289 C 0.98577 0.77156 0.48162 0.0
C2290 C 0.96332 0.72522 0.48596 0.0
H2291 H 1.00815 0.82009 0.46397 0.0
H2292 H 0.99509 0.79825 0.48968 0.0
S2293 S 0.92794 0.62564 0.46109 0.0
N2294 N 0.94791 0.67036 0.45008 0.0
N2295 N 0.93346 0.64642 0.47773 0.0
C2296 C 0.95246 0.69201 0.47492 0.0
C2297 C 0.96006 0.70491 0.45985 0.0
C2298 C 0.89399 0.69698 0.88761 0.0
C2299 C 0.91688 0.74311 0.88301 0.0
C2300 C 0.88773 0.68507 0.90254 0.0
C2301 C 0.90346 0.71874 0.91356 0.0
H2302 H 0.88286 0.66975 0.87966 0.0
H2303 H 0.87233 0.64919 0.90543 0.0
S2304 S 0.95751 0.84425 0.90751 0.0
N2305 N 0.95014 0.82259 0.89094 0.0
N2306 N 0.93694 0.79995 0.91872 0.0
C2307 C 0.92304 0.76479 0.9091 0.0
C2308 C 0.92987 0.77701 0.89394 0.0
C2309 C 0.43291 0.25903 0.89048 0.0
C2310 C 0.45023 0.23983 0.88031 0.0
C2311 C 0.44211 0.26048 0.90545 0.0
C2312 C 0.46902 0.24271 0.91102 0.0
H2313 H 0.41191 0.27325 0.88685 0.0
H2314 H 0.42844 0.27625 0.9127 0.0
S2315 S 0.51754 0.18334 0.8894 0.0
N2316 N 0.49219 0.19907 0.8771 0.0
N2317 N 0.50995 0.20199 0.90526 0.0
C2318 C 0.48581 0.22252 0.90104 0.0
C2319 C 0.47634 0.22104 0.88572 0.0
C2320 C 0.9737 0.23455 0.89267 0.0
C2321 C 0.96071 0.25544 0.88172 0.0
C2322 C 0.96759 0.2398 0.90762 0.0
C2323 C 0.9485 0.26649 0.91244 0.0
H2324 H 0.98735 0.21248 0.88974 0.0
H2325 H 0.9775 0.22228 0.91547 0.0
S2326 S 0.90976 0.3295 0.88842 0.0
N2327 N 0.92884 0.30481 0.877 0.0
N2328 N 0.91748 0.31489 0.9049 0.0
C2329 C 0.937 0.28898 0.90167 0.0
C2330 C 0.94301 0.28337 0.88642 0.0
C2331 C 0.73702 0.88568 0.559 0.0
C2332 C 0.76029 0.87492 0.54822 0.0
C2333 C 0.75061 0.8918 0.5737 0.0
C2334 C 0.78786 0.88689 0.57844 0.0
H2335 H 0.70823 0.8901 0.55601 0.0
H2336 H 0.73211 0.90124 0.58137 0.0
S2337 S 0.8574 0.85445 0.5548 0.0
N2338 N 0.82098 0.85748 0.54341 0.0
N2339 N 0.84582 0.8674 0.57108 0.0
C2340 C 0.81089 0.87522 0.56779 0.0
C2341 C 0.79734 0.86966 0.55272 0.0
C2342 C 0.27576 0.94223 0.55237 0.0
C2343 C 0.30722 0.92829 0.54813 0.0
C2344 C 0.26719 0.94692 0.56713 0.0
C2345 C 0.28992 0.93796 0.57845 0.0
H2346 H 0.25515 0.9466 0.54426 0.0
H2347 H 0.24087 0.95558 0.56966 0.0
S2348 S 0.38101 0.90697 0.57347 0.0
N2349 N 0.3648 0.90982 0.55671 0.0
N2350 N 0.34948 0.91956 0.58432 0.0
C2351 C 0.32359 0.92658 0.57441 0.0
C2352 C 0.33217 0.92166 0.55934 0.0
C2353 C 0.23592 0.37195 0.55378 0.0
C2354 C 0.24526 0.41643 0.55001 0.0
C2355 C 0.23085 0.35751 0.56846 0.0
C2356 C 0.23515 0.38699 0.58004 0.0
H2357 H 0.23386 0.34844 0.54536 0.0
H2358 H 0.22521 0.32354 0.57076 0.0
S2359 S 0.25578 0.50555 0.57627 0.0
N2360 N 0.25625 0.48903 0.55935 0.0
N2361 N 0.24593 0.46152 0.58665 0.0
C2362 C 0.24284 0.43087 0.57642 0.0
C2363 C 0.24804 0.44563 0.56153 0.0
C2364 C 1.06098 0.57021 0.80078 0.0
C2365 C 1.0898 0.57088 0.78938 0.0
C2366 C 1.0748 0.57507 0.81546 0.0
C2367 C 0.11844 0.58229 0.81925 0.0
H2368 H 1.02745 0.56589 0.79835 0.0
H2369 H 1.05139 0.57352 0.82389 0.0
S2370 S 0.20449 0.58091 0.79397 0.0
N2371 N 0.16212 0.57424 0.78327 0.0
N2372 N 0.18884 0.58593 0.81066 0.0
C2373 C 0.14729 0.58236 0.80805 0.0
C2374 C 0.13286 0.57622 0.79318 0.0
C2375 C 0.55975 0.54564 0.79554 0.0
C2376 C 0.59094 0.53168 0.7909 0.0
C2377 C 0.55279 0.55063 0.81043 0.0
C2378 C 0.57709 0.5425 0.8215 0.0
H2379 H 0.54052 0.55298 0.78757 0.0
H2380 H 0.52867 0.562 0.81321 0.0
S2381 S 0.66213 0.50446 0.81521 0.0
N2382 N 0.64556 0.50868 0.79867 0.0
N2383 N 0.63393 0.51992 0.82651 0.0
C2384 C 0.60816 0.52827 0.817 0.0
C2385 C 0.61464 0.52235 0.8018 0.0
C2386 C 0.64981 0.11102 0.80136 0.0
C2387 C 0.63062 0.07974 0.78973 0.0
C2388 C 0.64268 0.09615 0.81599 0.0
C2389 C 0.6166 1.04929 0.81963 0.0
H2390 H 0.66944 0.14749 0.79915 0.0
H2391 H 0.65714 0.12174 0.82451 0.0
S2392 S 0.56088 0.95324 0.7931 0.0
N2393 N 0.58599 0.9997 0.78281 0.0
N2394 N 0.57245 0.9715 0.81011 0.0
C2395 C 0.59819 1.01756 0.80803 0.0
C2396 C 0.60515 1.03282 0.79317 0.0
C2397 C 0.59441 0.10579 0.2255 0.0
C2398 C 0.56531 0.07399 0.21486 0.0
C2399 C 0.59201 0.0942 0.24037 0.0
C2400 C 0.56031 1.05014 0.2456 0.0
H2401 H 0.6211 0.13984 0.22233 0.0
H2402 H 0.61611 0.11996 0.24779 0.0
S2403 S 0.47395 0.95484 0.22315 0.0
N2404 N 0.50057 0.99731 0.21132 0.0
N2405 N 0.49799 0.97501 0.23907 0.0
C2406 C 0.52949 1.0187 0.23536 0.0
C2407 C 0.53137 1.03074 0.22015 0.0
C2408 C 1.09582 0.53144 0.23975 0.0
C2409 C 0.14172 0.56128 0.24379 0.0
C2410 C 1.08292 0.52224 0.22506 0.0
C2411 C 0.11506 0.54273 0.2135 0.0
H2412 H 1.06924 0.51522 0.24801 0.0
H2413 H 1.04667 0.49987 0.22282 0.0
S2414 S 0.24067 0.61856 0.21803 0.0
N2415 N 0.22042 0.60799 0.2349 0.0
N2416 N 0.19565 0.59097 0.20727 0.0
C2417 C 0.16144 0.57059 0.21733 0.0
C2418 C 0.17483 0.57981 0.23242 0.0
C2419 C 0.58979 0.60466 0.21721 0.0
C2420 C 0.62461 0.59624 0.21225 0.0
C2421 C 0.58243 0.60806 0.23226 0.0
C2422 C 0.60954 0.60312 0.24309 0.0
H2423 H 0.56686 0.60672 0.2094 0.0
H2424 H 0.55431 0.61324 0.2355 0.0
S2425 S 0.71024 0.58798 0.23581 0.0
N2426 N 0.68965 0.58762 0.21945 0.0
N2427 N 0.67656 0.595 0.24745 0.0
C2428 C 0.64613 0.59715 0.2382 0.0
C2429 C 0.65345 0.59347 0.22291 0.0
C2430 C 1.10211 0.26554 0.25099 0.0
C2431 C 0.12277 0.26984 0.26469 0.0
C2432 C 0.12869 0.28126 0.23813 0.0
C2433 C 0.17701 0.30273 0.23854 0.0
H2434 H 1.06499 0.2491 0.25016 0.0
H2435 H 0.11132 0.27724 0.22784 0.0
S2436 S 0.24799 0.32252 0.27167 0.0
N2437 N 0.19452 0.29717 0.27786 0.0
N2438 N 0.2444 0.32696 0.25384 0.0
C2439 C 0.19809 0.30746 0.2522 0.0
C2440 C 0.17103 0.29098 0.26523 0.0
C2441 C 0.85022 0.86628 0.26434 0.0
C2442 C 0.89706 0.88662 0.26792 0.0
C2443 C 0.8365 0.87585 0.25097 0.0
C2444 C 0.8693 0.90505 0.24062 0.0
H2445 H 0.82416 0.84263 0.27188 0.0
H2446 H 0.80008 0.85926 0.24855 0.0
S2447 S 0.99632 0.96706 0.24505 0.0
N2448 N 0.9761 0.93791 0.26038 0.0
N2449 N 0.95069 0.95497 0.23513 0.0
C2450 C 0.91624 0.92586 0.24421 0.0
C2451 C 0.93003 0.91688 0.2579 0.0
C2452 C 0.27006 1.00808 0.26795 0.0
C2453 C 0.2951 1.05607 0.26639 0.0
C2454 C 0.25625 0.9795 0.25568 0.0
C2455 C 0.26591 0.99819 0.24155 0.0
H2456 H 0.26174 0.99261 0.27872 0.0
H2457 H 0.2379 0.94266 0.25723 0.0
S2458 S 0.33072 0.1212 0.23157 0.0
N2459 N 0.32938 0.12077 0.24959 0.0
N2460 N 0.30249 1.06688 0.22658 0.0
C2461 C 0.29052 1.04589 0.23983 0.0
C2462 C 0.3054 0.07492 0.25226 0.0
C2463 C 1.02624 0.82 0.78581 0.0
C2464 C 1.0515 0.82326 0.7984 0.0
C2465 C 1.04823 0.83483 0.77226 0.0
C2466 C 1.09587 0.85226 0.77089 0.0
H2467 H 0.9895 0.80709 0.7865 0.0
H2468 H 1.02804 0.83311 0.76283 0.0
S2469 S 0.17654 0.86527 0.80048 0.0
N2470 N 0.1259 0.84363 0.80865 0.0
N2471 N 0.16733 0.8708 0.7831 0.0
C2472 C 0.12117 0.8544 0.78333 0.0
C2473 C 1.09893 0.84014 0.79714 0.0
C2474 C 0.3552 0.27527 0.77148 0.0
C2475 C 0.30993 0.24446 0.76715 0.0
C2476 C 0.37373 0.26697 0.78401 0.0
C2477 C 0.34757 0.22767 0.79269 0.0
H2478 H 0.37568 0.30705 0.76556 0.0
H2479 H 0.40809 0.29276 0.78726 0.0
S2480 S 0.22962 0.13314 0.78467 0.0
N2481 N 0.24132 0.17059 0.77138 0.0
N2482 N 0.2756 0.1555 0.79519 0.0
C2483 C 0.30309 0.19542 0.78801 0.0
C2484 C 0.28444 0.20367 0.77516 0.0
C2485 C 0.88941 0.12758 0.78644 0.0
C2486 C 0.91567 0.12315 0.79758 0.0
C2487 C 0.88483 0.10679 0.77282 0.0
C2488 C 0.90751 0.08213 0.76981 0.0
H2489 H 0.87158 0.14651 0.78836 0.0
H2490 H 0.86346 0.10997 0.7646 0.0
S2491 S 0.98327 1.0636 0.79483 0.0
N2492 N 0.96624 0.09402 0.80441 0.0
N2493 N 0.95846 1.0558 0.77876 0.0
C2494 C 0.93501 0.07871 0.78068 0.0
C2495 C 0.93886 0.099 0.7946 0.0
C2496 C 0.81962 0.63119 0.59493 0.0
C2497 C 0.77155 0.60396 0.59588 0.0
C2498 C 0.84164 0.64517 0.58136 0.0
C2499 C 0.81639 0.63198 0.56826 0.0
H2500 H 0.84029 0.64198 0.60474 0.0
H2501 H 0.87883 0.66624 0.58117 0.0
S2502 S 0.68966 0.55995 0.56499 0.0
N2503 N 0.69931 0.56344 0.58272 0.0
N2504 N 0.74071 0.59011 0.55718 0.0
C2505 C 0.76832 0.60441 0.5691 0.0
C2506 C 0.74589 0.59041 0.58292 0.0
C2507 C 0.5286 0.17472 0.59328 0.0
C2508 C 0.5642 0.21178 0.60082 0.0
C2509 C 0.51014 0.18182 0.58052 0.0
C2510 C 0.52696 0.22608 0.57483 0.0
H2511 H 0.51628 0.13985 0.59689 0.0
H2512 H 0.48405 0.1523 0.57472 0.0
S2513 S 0.61432 0.33502 0.59164 0.0
N2514 N 0.6112 0.29477 0.60268 0.0
N2515 N 0.57758 0.3078 0.57834 0.0
C2516 C 0.56088 0.26358 0.58258 0.0
C2517 C 0.57917 0.25649 0.5957 0.0
C2518 C 0.94925 0.34111 0.59846 0.0
C2519 C 0.97124 0.38917 0.59828 0.0
C2520 C 0.94127 0.31652 0.58546 0.0
C2521 C 0.95418 0.33923 0.57189 0.0
H2522 H 0.93852 0.32252 0.60871 0.0
H2523 H 0.92448 0.27947 0.58603 0.0
S2524 S 1.01154 0.46453 0.56565 0.0
N2525 N 1.00516 0.45855 0.58353 0.0
N2526 N 0.98939 0.41213 0.55905 0.0
C2527 C 0.97546 0.38715 0.57158 0.0
C2528 C 0.98431 0.41221 0.58481 0.0
C2529 C 0.71578 0.14486 0.10598 0.0
C2530 C 0.74249 0.19236 0.10365 0.0
C2531 C 0.69144 0.12724 0.11907 0.0
C2532 C 0.69378 0.1565 0.1304 0.0
H2533 H 0.71403 0.12118 0.09766 0.0
H2534 H 0.67179 0.09038 0.12049 0.0
S2535 S 0.75658 0.28368 0.12929 0.0
N2536 N 0.76818 0.26847 0.1134 0.0
N2537 N 0.7226 0.23537 0.13805 0.0
C2538 C 0.71941 0.20413 0.12805 0.0
C2539 C 0.74369 0.22205 0.11465 0.0
C2540 C 1.01043 0.55704 0.11806 0.0
C2541 C 0.99751 0.56651 0.13167 0.0
C2542 C 0.99683 0.56838 0.10505 0.0
C2543 C 0.97047 0.59022 0.10524 0.0
H2544 H 1.03138 0.54088 0.11746 0.0
H2545 H 1.0074 0.56044 0.09478 0.0
S2546 S 0.92982 0.62454 0.13803 0.0
N2547 N 0.95848 0.60045 0.1446 0.0
N2548 N 0.93225 0.62132 0.1201 0.0
C2549 C 0.95762 0.6002 0.11878 0.0
C2550 C 0.9712 0.58833 0.13202 0.0
C2551 C 0.61856 0.44578 0.12485 0.0
C2552 C 0.6011 0.47566 0.12685 0.0
C2553 C 0.61239 0.42261 0.11172 0.0
C2554 C 0.58837 0.42827 0.10014 0.0
H2555 H 0.63683 0.43982 0.13352 0.0
H2556 H 0.62537 0.39899 0.11078 0.0
S2557 S 0.53818 0.50441 0.09943 0.0
N2558 N 0.56046 0.51123 0.1159 0.0
N2559 N 0.54894 0.46724 0.0911 0.0
C2560 C 0.57171 0.45882 0.10179 0.0
C2561 C 0.5782 0.48275 0.11518 0.0
C2562 C 0.50533 0.98803 0.91597 0.0
C2563 C 0.49849 0.95557 0.90515 0.0
C2564 C 0.48212 0.97439 0.92939 0.0
C2565 C 0.4521 0.92785 0.93248 0.0
H2566 H 0.52816 1.02426 0.91397 0.0
H2567 H 0.48791 1.00029 0.93744 0.0
S2568 S 0.42312 0.8295 0.90799 0.0
N2569 N 0.46003 0.87494 0.89851 0.0
N2570 N 0.41654 0.84934 0.92375 0.0
C2571 C 0.44526 0.8951 0.92182 0.0
C2572 C 0.46842 0.90896 0.90813 0.0
C2573 C 0.19701 0.52854 0.92892 0.0
C2574 C 0.24393 0.55127 0.93246 0.0
C2575 C 0.18205 0.53689 0.91565 0.0
C2576 C 0.21349 0.56796 0.90533 0.0
H2577 H 0.17168 0.50419 0.9365 0.0
H2578 H 0.14543 0.51849 0.91346 0.0
S2579 S 0.34063 0.63478 0.90927 0.0
N2580 N 0.32203 0.60535 0.92463 0.0
N2581 N 0.29413 0.62081 0.89955 0.0
C2582 C 0.26067 0.59087 0.90876 0.0
C2583 C 0.27581 0.58259 0.92235 0.0
C2584 C 0.59406 0.64425 0.91995 0.0
C2585 C 0.60261 0.6657 0.90624 0.0
C2586 C 0.60517 0.67003 0.93284 0.0
C2587 C 0.62632 0.71814 0.93237 0.0
H2588 H 0.57841 0.60732 0.9207 0.0
H2589 H 0.59764 0.65232 0.94324 0.0
S2590 S 0.6582 0.79029 0.89906 0.0
N2591 N 0.63435 0.73732 0.89285 0.0
N2592 N 0.65603 0.78605 0.91703 0.0
C2593 C 0.63558 0.73986 0.91868 0.0
C2594 C 0.62346 0.71354 0.9056 0.0
C2595 C 0.41329 0.56375 0.46508 0.0
C2596 C 0.37238 0.52119 0.46561 0.0
C2597 C 0.44049 0.57824 0.45237 0.0
C2598 C 0.42762 0.55081 0.43971 0.0
H2599 H 0.42499 0.5855 0.47464 0.0
H2600 H 0.47223 0.61091 0.45251 0.0
S2601 S 0.32128 0.43852 0.43498 0.0
N2602 N 0.31883 0.45302 0.45203 0.0
N2603 N 0.3697 0.48066 0.42822 0.0
C2604 C 0.38623 0.50877 0.43999 0.0
C2605 C 0.35864 0.49393 0.4529 0.0
C2606 C 0.68092 0.92369 0.4379 0.0
C2607 C 0.634 0.90528 0.43489 0.0
C2608 C 0.69514 0.91285 0.45089 0.0
C2609 C 0.66289 0.88387 0.46141 0.0
H2610 H 0.70675 0.94676 0.43019 0.0
H2611 H 0.73176 0.92833 0.45281 0.0
S2612 S 0.53564 0.82781 0.45862 0.0
N2613 N 0.55519 0.85699 0.44326 0.0
N2614 N 0.58169 0.83718 0.46785 0.0
C2615 C 0.61573 0.86521 0.45846 0.0
C2616 C 0.60134 0.87575 0.44514 0.0
C2617 C 0.22918 0.76709 0.4603 0.0
C2618 C 0.27243 0.80637 0.4623 0.0
C2619 C 0.21917 0.74127 0.44746 0.0
C2620 C 0.25206 0.75432 0.4362 0.0
H2621 H 0.20332 0.75572 0.46886 0.0
H2622 H 0.18607 0.71024 0.44652 0.0
S2623 S 0.36777 0.85832 0.43538 0.0
N2624 N 0.34653 0.85946 0.45156 0.0
N2625 N 0.32768 0.81162 0.4273 0.0
C2626 C 0.29462 0.79476 0.43785 0.0
C2627 C 0.30486 0.82064 0.45097 0.0
loop_
_geom_bond_atom_site_label_1
_geom_bond_atom_site_label_2
_geom_bond_distance
_geom_bond_site_symmetry_2
_ccdc_geom_bond_type
Nd0 C2 2.836 . S
Nd0 O20 2.500 . S
Nd0 O21 2.492 . S
Nd0 O22 2.487 . S
Nd0 O23 2.682 . S
Nd0 O24 2.410 . S
Nd0 O29 2.414 . S
Nd0 O31 2.424 . S
Nd1 C11 2.836 . S
Nd1 O23 2.414 . S
Nd1 O25 2.424 . S
Nd1 O26 2.500 . S
Nd1 O27 2.492 . S
Nd1 O28 2.487 . S
Nd1 O29 2.682 . S
Nd1 O30 2.410 . S
C2 Nd0 2.836 . S
C2 C3 1.498 . S
C2 O20 1.258 . S
C2 O21 1.239 . S
C3 C2 1.498 . S
C3 C4 1.366 . S
C3 C8 1.407 . S
C4 C3 1.366 . S
C4 C5 1.392 . S
C4 H32 0.930 . S
C5 C4 1.392 . S
C5 C6 1.398 . S
C5 H33 0.929 . S
C6 C5 1.398 . S
C6 C7 1.352 . S
C7 C6 1.352 . S
C7 C8 1.384 . S
C7 H34 0.930 . S
C8 C3 1.407 . S
C8 C7 1.384 . S
C8 H35 0.929 . S
C9 O22 1.241 . S
C9 O23 1.273 . S
C10 O24 1.251 . S
C10 O25 1.268 . S
C11 Nd1 2.836 . S
C11 C12 1.498 1_455 S
C11 O26 1.258 . S
C11 O27 1.239 . S
C12 C11 1.498 1_655 S
C12 C13 1.366 . S
C12 C17 1.407 . S
C13 C12 1.366 . S
C13 C14 1.392 . S
C13 H36 0.930 . S
C14 C13 1.392 . S
C14 C15 1.398 . S
C14 H37 0.929 . S
C15 C14 1.398 . S
C15 C16 1.352 . S
C16 C15 1.352 . S
C16 C17 1.384 . S
C16 H38 0.930 . S
C17 C12 1.407 . S
C17 C16 1.384 . S
C17 H39 0.929 . S
C18 O28 1.241 . S
C18 O29 1.273 . S
C19 O30 1.251 . S
C19 O31 1.268 . S
O20 Nd0 2.500 . S
O20 C2 1.258 . S
O21 Nd0 2.492 . S
O21 C2 1.239 . S
O22 Nd0 2.487 . S
O22 C9 1.241 . S
O23 Nd0 2.682 . S
O23 Nd1 2.414 . S
O23 C9 1.273 . S
O24 Nd0 2.410 . S
O24 C10 1.251 . S
O25 Nd1 2.424 . S
O25 C10 1.268 . S
O26 Nd1 2.500 . S
O26 C11 1.258 . S
O27 Nd1 2.492 . S
O27 C11 1.239 . S
O28 Nd1 2.487 . S
O28 C18 1.241 . S
O29 Nd0 2.414 . S
O29 Nd1 2.682 . S
O29 C18 1.273 . S
O30 Nd1 2.410 . S
O30 C19 1.251 . S
O31 Nd0 2.424 . S
O31 C19 1.268 . S
H32 C4 0.930 . S
H33 C5 0.929 . S
H34 C7 0.930 . S
H35 C8 0.929 . S
H36 C13 0.930 . S
H37 C14 0.929 . S
H38 C16 0.930 . S
H39 C17 0.929 . S
Nd40 C42 2.836 . S
Nd40 O60 2.500 . S
Nd40 O61 2.492 . S
Nd40 O62 2.487 . S
Nd40 O63 2.682 . S
Nd40 O64 2.410 . S
Nd40 O69 2.414 . S
Nd40 O71 2.424 . S
Nd41 C51 2.836 . S
Nd41 O63 2.414 . S
Nd41 O65 2.424 . S
Nd41 O66 2.500 . S
Nd41 O67 2.492 . S
Nd41 O68 2.487 . S
Nd41 O69 2.682 . S
Nd41 O70 2.410 . S
C42 Nd40 2.836 . S
C42 C43 1.498 . S
C42 O60 1.258 . S
C42 O61 1.239 . S
C43 C42 1.498 . S
C43 C44 1.366 . S
C43 C48 1.407 . S
C44 C43 1.366 . S
C44 C45 1.392 . S
C44 H72 0.930 . S
C45 C44 1.392 . S
C45 C46 1.398 . S
C45 H73 0.929 . S
C46 C45 1.398 . S
C46 C47 1.352 . S
C47 C46 1.352 . S
C47 C48 1.384 . S
C47 H74 0.930 . S
C48 C43 1.407 . S
C48 C47 1.384 . S
C48 H75 0.929 . S
C49 O62 1.241 . S
C49 O63 1.273 . S
C50 O64 1.251 . S
C50 O65 1.268 . S
C51 Nd41 2.836 . S
C51 C52 1.498 . S
C51 O66 1.258 . S
C51 O67 1.239 . S
C52 C51 1.498 . S
C52 C53 1.366 . S
C52 C57 1.407 . S
C53 C52 1.366 . S
C53 C54 1.392 . S
C53 H76 0.930 . S
C54 C53 1.392 . S
C54 C55 1.398 . S
C54 H77 0.929 . S
C55 C54 1.398 . S
C55 C56 1.352 . S
C56 C55 1.352 . S
C56 C57 1.384 . S
C56 H78 0.930 . S
C57 C52 1.407 . S
C57 C56 1.384 . S
C57 H79 0.929 . S
C58 O68 1.241 . S
C58 O69 1.273 . S
C59 O70 1.251 . S
C59 O71 1.268 . S
O60 Nd40 2.500 . S
O60 C42 1.258 . S
O61 Nd40 2.492 . S
O61 C42 1.239 . S
O62 Nd40 2.487 . S
O62 C49 1.241 . S
O63 Nd40 2.682 . S
O63 Nd41 2.414 . S
O63 C49 1.273 . S
O64 Nd40 2.410 . S
O64 C50 1.251 . S
O65 Nd41 2.424 . S
O65 C50 1.268 . S
O66 Nd41 2.500 . S
O66 C51 1.258 . S
O67 Nd41 2.492 . S
O67 C51 1.239 . S
O68 Nd41 2.487 . S
O68 C58 1.241 . S
O69 Nd40 2.414 . S
O69 Nd41 2.682 . S
O69 C58 1.273 . S
O70 Nd41 2.410 . S
O70 C59 1.251 . S
O71 Nd40 2.424 . S
O71 C59 1.268 . S
H72 C44 0.930 . S
H73 C45 0.929 . S
H74 C47 0.930 . S
H75 C48 0.929 . S
H76 C53 0.930 . S
H77 C54 0.929 . S
H78 C56 0.930 . S
H79 C57 0.929 . S
Nd80 C82 2.836 . S
Nd80 O100 2.500 . S
Nd80 O101 2.492 . S
Nd80 O102 2.487 . S
Nd80 O103 2.682 . S
Nd80 O104 2.410 . S
Nd80 O109 2.414 . S
Nd80 O111 2.424 . S
Nd81 C91 2.836 . S
Nd81 O103 2.414 . S
Nd81 O105 2.424 . S
Nd81 O106 2.500 . S
Nd81 O107 2.492 . S
Nd81 O108 2.487 . S
Nd81 O109 2.682 . S
Nd81 O110 2.410 . S
C82 Nd80 2.836 . S
C82 C83 1.498 . S
C82 O100 1.258 . S
C82 O101 1.239 . S
C83 C82 1.498 . S
C83 C84 1.366 . S
C83 C88 1.407 . S
C84 C83 1.366 . S
C84 C85 1.392 . S
C84 H112 0.930 . S
C85 C84 1.392 . S
C85 C86 1.398 . S
C85 H113 0.929 . S
C86 C85 1.398 . S
C86 C87 1.352 . S
C87 C86 1.352 . S
C87 C88 1.384 . S
C87 H114 0.930 . S
C88 C83 1.407 . S
C88 C87 1.384 . S
C88 H115 0.929 . S
C89 O102 1.241 . S
C89 O103 1.273 . S
C90 O104 1.251 . S
C90 O105 1.268 . S
C91 Nd81 2.836 . S
C91 C92 1.498 1_565 S
C91 O106 1.258 . S
C91 O107 1.239 . S
C92 C91 1.498 1_545 S
C92 C93 1.366 . S
C92 C97 1.407 . S
C93 C92 1.366 . S
C93 C94 1.392 . S
C93 H116 0.930 . S
C94 C93 1.392 . S
C94 C95 1.398 . S
C94 H117 0.929 . S
C95 C94 1.398 . S
C95 C96 1.352 . S
C96 C95 1.352 . S
C96 C97 1.384 . S
C96 H118 0.930 . S
C97 C92 1.407 . S
C97 C96 1.384 . S
C97 H119 0.929 . S
C98 O108 1.241 . S
C98 O109 1.273 . S
C99 O110 1.251 . S
C99 O111 1.268 . S
O100 Nd80 2.500 . S
O100 C82 1.258 . S
O101 Nd80 2.492 . S
O101 C82 1.239 . S
O102 Nd80 2.487 . S
O102 C89 1.241 . S
O103 Nd80 2.682 . S
O103 Nd81 2.414 . S
O103 C89 1.273 . S
O104 Nd80 2.410 . S
O104 C90 1.251 . S
O105 Nd81 2.424 . S
O105 C90 1.268 . S
O106 Nd81 2.500 . S
O106 C91 1.258 . S
O107 Nd81 2.492 . S
O107 C91 1.239 . S
O108 Nd81 2.487 . S
O108 C98 1.241 . S
O109 Nd80 2.414 . S
O109 Nd81 2.682 . S
O109 C98 1.273 . S
O110 Nd81 2.410 . S
O110 C99 1.251 . S
O111 Nd80 2.424 . S
O111 C99 1.268 . S
H112 C84 0.930 . S
H113 C85 0.929 . S
H114 C87 0.930 . S
H115 C88 0.929 . S
H116 C93 0.930 . S
H117 C94 0.929 . S
H118 C96 0.930 . S
H119 C97 0.929 . S
Nd120 C122 2.836 . S
Nd120 O140 2.500 . S
Nd120 O141 2.492 . S
Nd120 O142 2.487 . S
Nd120 O143 2.682 . S
Nd120 O144 2.410 . S
Nd120 O149 2.414 . S
Nd120 O151 2.424 . S
Nd121 C131 2.836 . S
Nd121 O143 2.414 . S
Nd121 O145 2.424 . S
Nd121 O146 2.500 . S
Nd121 O147 2.492 . S
Nd121 O148 2.487 . S
Nd121 O149 2.682 . S
Nd121 O150 2.410 . S
C122 Nd120 2.836 . S
C122 C123 1.498 . S
C122 O140 1.258 . S
C122 O141 1.239 . S
C123 C122 1.498 . S
C123 C124 1.366 . S
C123 C128 1.407 . S
C124 C123 1.366 . S
C124 C125 1.392 . S
C124 H152 0.930 . S
C125 C124 1.392 . S
C125 C126 1.398 . S
C125 H153 0.929 . S
C126 C125 1.398 . S
C126 C127 1.352 . S
C127 C126 1.352 . S
C127 C128 1.384 . S
C127 H154 0.930 . S
C128 C123 1.407 . S
C128 C127 1.384 . S
C128 H155 0.929 . S
C129 O142 1.241 . S
C129 O143 1.273 . S
C130 O144 1.251 . S
C130 O145 1.268 . S
C131 Nd121 2.836 . S
C131 C132 1.498 . S
C131 O146 1.258 . S
C131 O147 1.239 . S
C132 C131 1.498 . S
C132 C133 1.366 . S
C132 C137 1.407 . S
C133 C132 1.366 . S
C133 C134 1.392 . S
C133 H156 0.930 . S
C134 C133 1.392 . S
C134 C135 1.398 . S
C134 H157 0.929 . S
C135 C134 1.398 . S
C135 C136 1.352 . S
C136 C135 1.352 . S
C136 C137 1.384 . S
C136 H158 0.930 . S
C137 C132 1.407 . S
C137 C136 1.384 . S
C137 H159 0.929 . S
C138 O148 1.241 . S
C138 O149 1.273 . S
C139 O150 1.251 . S
C139 O151 1.268 . S
O140 Nd120 2.500 . S
O140 C122 1.258 . S
O141 Nd120 2.492 . S
O141 C122 1.239 . S
O142 Nd120 2.487 . S
O142 C129 1.241 . S
O143 Nd120 2.682 . S
O143 Nd121 2.414 . S
O143 C129 1.273 . S
O144 Nd120 2.410 . S
O144 C130 1.251 . S
O145 Nd121 2.424 . S
O145 C130 1.268 . S
O146 Nd121 2.500 . S
O146 C131 1.258 . S
O147 Nd121 2.492 . S
O147 C131 1.239 . S
O148 Nd121 2.487 . S
O148 C138 1.241 . S
O149 Nd120 2.414 . S
O149 Nd121 2.682 . S
O149 C138 1.273 . S
O150 Nd121 2.410 . S
O150 C139 1.251 . S
O151 Nd120 2.424 . S
O151 C139 1.268 . S
H152 C124 0.930 . S
H153 C125 0.929 . S
H154 C127 0.930 . S
H155 C128 0.929 . S
H156 C133 0.930 . S
H157 C134 0.929 . S
H158 C136 0.930 . S
H159 C137 0.929 . S
Nd160 C162 2.836 . S
Nd160 O180 2.500 . S
Nd160 O181 2.492 . S
Nd160 O182 2.487 . S
Nd160 O183 2.682 . S
Nd160 O184 2.410 . S
Nd160 O189 2.414 . S
Nd160 O191 2.424 . S
Nd161 C171 2.836 . S
Nd161 O183 2.414 . S
Nd161 O185 2.424 . S
Nd161 O186 2.500 . S
Nd161 O187 2.492 . S
Nd161 O188 2.487 . S
Nd161 O189 2.682 . S
Nd161 O190 2.410 . S
C162 Nd160 2.836 . S
C162 C163 1.498 . S
C162 O180 1.258 . S
C162 O181 1.239 . S
C163 C162 1.498 . S
C163 C164 1.366 . S
C163 C168 1.407 . S
C164 C163 1.366 . S
C164 C165 1.392 . S
C164 H192 0.930 . S
C165 C164 1.392 . S
C165 C166 1.398 . S
C165 H193 0.929 . S
C166 C165 1.398 . S
C166 C167 1.352 . S
C167 C166 1.352 . S
C167 C168 1.384 . S
C167 H194 0.930 . S
C168 C163 1.407 . S
C168 C167 1.384 . S
C168 H195 0.929 . S
C169 O182 1.241 . S
C169 O183 1.273 . S
C170 O184 1.251 . S
C170 O185 1.268 . S
C171 Nd161 2.836 . S
C171 C172 1.498 . S
C171 O186 1.258 . S
C171 O187 1.239 . S
C172 C171 1.498 . S
C172 C173 1.366 . S
C172 C177 1.407 . S
C173 C172 1.366 . S
C173 C174 1.392 . S
C173 H196 0.930 . S
C174 C173 1.392 . S
C174 C175 1.398 . S
C174 H197 0.929 . S
C175 C174 1.398 . S
C175 C176 1.352 . S
C176 C175 1.352 . S
C176 C177 1.384 . S
C176 H198 0.930 . S
C177 C172 1.407 . S
C177 C176 1.384 . S
C177 H199 0.929 . S
C178 O188 1.241 . S
C178 O189 1.273 . S
C179 O190 1.251 . S
C179 O191 1.268 . S
O180 Nd160 2.500 . S
O180 C162 1.258 . S
O181 Nd160 2.492 . S
O181 C162 1.239 . S
O182 Nd160 2.487 . S
O182 C169 1.241 . S
O183 Nd160 2.682 . S
O183 Nd161 2.414 . S
O183 C169 1.273 . S
O184 Nd160 2.410 . S
O184 C170 1.251 . S
O185 Nd161 2.424 . S
O185 C170 1.268 . S
O186 Nd161 2.500 . S
O186 C171 1.258 . S
O187 Nd161 2.492 . S
O187 C171 1.239 . S
O188 Nd161 2.487 . S
O188 C178 1.241 . S
O189 Nd160 2.414 . S
O189 Nd161 2.682 . S
O189 C178 1.273 . S
O190 Nd161 2.410 . S
O190 C179 1.251 . S
O191 Nd160 2.424 . S
O191 C179 1.268 . S
H192 C164 0.930 . S
H193 C165 0.929 . S
H194 C167 0.930 . S
H195 C168 0.929 . S
H196 C173 0.930 . S
H197 C174 0.929 . S
H198 C176 0.930 . S
H199 C177 0.929 . S
Nd200 C202 2.836 . S
Nd200 O220 2.500 . S
Nd200 O221 2.492 . S
Nd200 O222 2.487 . S
Nd200 O223 2.682 . S
Nd200 O224 2.410 . S
Nd200 O229 2.414 . S
Nd200 O231 2.424 . S
Nd201 C211 2.836 . S
Nd201 O223 2.414 . S
Nd201 O225 2.424 . S
Nd201 O226 2.500 . S
Nd201 O227 2.492 . S
Nd201 O228 2.487 . S
Nd201 O229 2.682 . S
Nd201 O230 2.410 . S
C202 Nd200 2.836 . S
C202 C203 1.498 . S
C202 O220 1.258 . S
C202 O221 1.239 . S
C203 C202 1.498 . S
C203 C204 1.366 . S
C203 C208 1.407 . S
C204 C203 1.366 . S
C204 C205 1.392 . S
C204 H232 0.930 . S
C205 C204 1.392 . S
C205 C206 1.398 . S
C205 H233 0.929 . S
C206 C205 1.398 . S
C206 C207 1.352 . S
C207 C206 1.352 . S
C207 C208 1.384 . S
C207 H234 0.930 . S
C208 C203 1.407 . S
C208 C207 1.384 . S
C208 H235 0.929 . S
C209 O222 1.241 . S
C209 O223 1.273 . S
C210 O224 1.251 . S
C210 O225 1.268 . S
C211 Nd201 2.836 . S
C211 C212 1.498 . S
C211 O226 1.258 . S
C211 O227 1.239 . S
C212 C211 1.498 . S
C212 C213 1.366 . S
C212 C217 1.407 . S
C213 C212 1.366 . S
C213 C214 1.392 . S
C213 H236 0.930 . S
C214 C213 1.392 . S
C214 C215 1.398 . S
C214 H237 0.929 . S
C215 C214 1.398 . S
C215 C216 1.352 . S
C216 C215 1.352 . S
C216 C217 1.384 . S
C216 H238 0.930 . S
C217 C212 1.407 . S
C217 C216 1.384 . S
C217 H239 0.929 . S
C218 O228 1.241 . S
C218 O229 1.273 . S
C219 O230 1.251 . S
C219 O231 1.268 . S
O220 Nd200 2.500 . S
O220 C202 1.258 . S
O221 Nd200 2.492 . S
O221 C202 1.239 . S
O222 Nd200 2.487 . S
O222 C209 1.241 . S
O223 Nd200 2.682 . S
O223 Nd201 2.414 . S
O223 C209 1.273 . S
O224 Nd200 2.410 . S
O224 C210 1.251 . S
O225 Nd201 2.424 . S
O225 C210 1.268 . S
O226 Nd201 2.500 . S
O226 C211 1.258 . S
O227 Nd201 2.492 . S
O227 C211 1.239 . S
O228 Nd201 2.487 . S
O228 C218 1.241 . S
O229 Nd200 2.414 . S
O229 Nd201 2.682 . S
O229 C218 1.273 . S
O230 Nd201 2.410 . S
O230 C219 1.251 . S
O231 Nd200 2.424 . S
O231 C219 1.268 . S
H232 C204 0.930 . S
H233 C205 0.929 . S
H234 C207 0.930 . S
H235 C208 0.929 . S
H236 C213 0.930 . S
H237 C214 0.929 . S
H238 C216 0.930 . S
H239 C217 0.929 . S
Nd240 C242 2.836 . S
Nd240 O260 2.500 . S
Nd240 O261 2.492 . S
Nd240 O262 2.487 . S
Nd240 O263 2.682 . S
Nd240 O264 2.410 . S
Nd240 O269 2.414 . S
Nd240 O271 2.424 . S
Nd241 C251 2.836 . S
Nd241 O263 2.414 . S
Nd241 O265 2.424 . S
Nd241 O266 2.500 . S
Nd241 O267 2.492 . S
Nd241 O268 2.487 . S
Nd241 O269 2.682 . S
Nd241 O270 2.410 . S
C242 Nd240 2.836 . S
C242 C243 1.498 1_655 S
C242 O260 1.258 . S
C242 O261 1.239 . S
C243 C242 1.498 1_455 S
C243 C244 1.366 . S
C243 C248 1.407 . S
C244 C243 1.366 . S
C244 C245 1.392 . S
C244 H272 0.930 . S
C245 C244 1.392 . S
C245 C246 1.398 . S
C245 H273 0.929 . S
C246 C245 1.398 . S
C246 C247 1.352 . S
C247 C246 1.352 . S
C247 C248 1.384 . S
C247 H274 0.930 . S
C248 C243 1.407 . S
C248 C247 1.384 . S
C248 H275 0.929 . S
C249 O262 1.241 . S
C249 O263 1.273 . S
C250 O264 1.251 . S
C250 O265 1.268 . S
C251 Nd241 2.836 . S
C251 C252 1.498 . S
C251 O266 1.258 . S
C251 O267 1.239 . S
C252 C251 1.498 . S
C252 C253 1.366 . S
C252 C257 1.407 . S
C253 C252 1.366 . S
C253 C254 1.392 . S
C253 H276 0.930 . S
C254 C253 1.392 . S
C254 C255 1.398 . S
C254 H277 0.929 . S
C255 C254 1.398 . S
C255 C256 1.352 . S
C256 C255 1.352 . S
C256 C257 1.384 . S
C256 H278 0.930 . S
C257 C252 1.407 . S
C257 C256 1.384 . S
C257 H279 0.929 . S
C258 O268 1.241 . S
C258 O269 1.273 . S
C259 O270 1.251 . S
C259 O271 1.268 . S
O260 Nd240 2.500 . S
O260 C242 1.258 . S
O261 Nd240 2.492 . S
O261 C242 1.239 . S
O262 Nd240 2.487 . S
O262 C249 1.241 . S
O263 Nd240 2.682 . S
O263 Nd241 2.414 . S
O263 C249 1.273 . S
O264 Nd240 2.410 . S
O264 C250 1.251 . S
O265 Nd241 2.424 . S
O265 C250 1.268 . S
O266 Nd241 2.500 . S
O266 C251 1.258 . S
O267 Nd241 2.492 . S
O267 C251 1.239 . S
O268 Nd241 2.487 . S
O268 C258 1.241 . S
O269 Nd240 2.414 . S
O269 Nd241 2.682 . S
O269 C258 1.273 . S
O270 Nd241 2.410 . S
O270 C259 1.251 . S
O271 Nd240 2.424 . S
O271 C259 1.268 . S
H272 C244 0.930 . S
H273 C245 0.929 . S
H274 C247 0.930 . S
H275 C248 0.929 . S
H276 C253 0.930 . S
H277 C254 0.929 . S
H278 C256 0.930 . S
H279 C257 0.929 . S
Nd280 C282 2.836 . S
Nd280 O300 2.500 . S
Nd280 O301 2.492 . S
Nd280 O302 2.487 . S
Nd280 O303 2.682 . S
Nd280 O304 2.410 . S
Nd280 O309 2.414 . S
Nd280 O311 2.424 . S
Nd281 C291 2.836 . S
Nd281 O303 2.414 . S
Nd281 O305 2.424 . S
Nd281 O306 2.500 . S
Nd281 O307 2.492 . S
Nd281 O308 2.487 . S
Nd281 O309 2.682 . S
Nd281 O310 2.410 . S
C282 Nd280 2.836 . S
C282 C283 1.498 . S
C282 O300 1.258 . S
C282 O301 1.239 . S
C283 C282 1.498 . S
C283 C284 1.366 . S
C283 C288 1.407 . S
C284 C283 1.366 . S
C284 C285 1.392 . S
C284 H312 0.930 . S
C285 C284 1.392 . S
C285 C286 1.398 . S
C285 H313 0.929 . S
C286 C285 1.398 . S
C286 C287 1.352 . S
C287 C286 1.352 . S
C287 C288 1.384 . S
C287 H314 0.930 . S
C288 C283 1.407 . S
C288 C287 1.384 . S
C288 H315 0.929 . S
C289 O302 1.241 . S
C289 O303 1.273 . S
C290 O304 1.251 . S
C290 O305 1.268 . S
C291 Nd281 2.836 . S
C291 C292 1.498 . S
C291 O306 1.258 . S
C291 O307 1.239 . S
C292 C291 1.498 . S
C292 C293 1.366 . S
C292 C297 1.407 . S
C293 C292 1.366 . S
C293 C294 1.392 . S
C293 H316 0.930 . S
C294 C293 1.392 . S
C294 C295 1.398 . S
C294 H317 0.929 . S
C295 C294 1.398 . S
C295 C296 1.352 . S
C296 C295 1.352 . S
C296 C297 1.384 . S
C296 H318 0.930 . S
C297 C292 1.407 . S
C297 C296 1.384 . S
C297 H319 0.929 . S
C298 O308 1.241 . S
C298 O309 1.273 . S
C299 O310 1.251 . S
C299 O311 1.268 . S
O300 Nd280 2.500 . S
O300 C282 1.258 . S
O301 Nd280 2.492 . S
O301 C282 1.239 . S
O302 Nd280 2.487 . S
O302 C289 1.241 . S
O303 Nd280 2.682 . S
O303 Nd281 2.414 . S
O303 C289 1.273 . S
O304 Nd280 2.410 . S
O304 C290 1.251 . S
O305 Nd281 2.424 . S
O305 C290 1.268 . S
O306 Nd281 2.500 . S
O306 C291 1.258 . S
O307 Nd281 2.492 . S
O307 C291 1.239 . S
O308 Nd281 2.487 . S
O308 C298 1.241 . S
O309 Nd280 2.414 . S
O309 Nd281 2.682 . S
O309 C298 1.273 . S
O310 Nd281 2.410 . S
O310 C299 1.251 . S
O311 Nd280 2.424 . S
O311 C299 1.268 . S
H312 C284 0.930 . S
H313 C285 0.929 . S
H314 C287 0.930 . S
H315 C288 0.929 . S
H316 C293 0.930 . S
H317 C294 0.929 . S
H318 C296 0.930 . S
H319 C297 0.929 . S
Nd320 C322 2.836 . S
Nd320 O340 2.500 . S
Nd320 O341 2.492 . S
Nd320 O342 2.487 . S
Nd320 O343 2.682 . S
Nd320 O344 2.410 . S
Nd320 O349 2.414 . S
Nd320 O351 2.424 . S
Nd321 C331 2.836 . S
Nd321 O343 2.414 . S
Nd321 O345 2.424 . S
Nd321 O346 2.500 . S
Nd321 O347 2.492 . S
Nd321 O348 2.487 . S
Nd321 O349 2.682 . S
Nd321 O350 2.410 . S
C322 Nd320 2.836 . S
C322 C323 1.498 1_545 S
C322 O340 1.258 . S
C322 O341 1.239 . S
C323 C322 1.498 1_565 S
C323 C324 1.366 . S
C323 C328 1.407 . S
C324 C323 1.366 . S
C324 C325 1.392 . S
C324 H352 0.930 . S
C325 C324 1.392 . S
C325 C326 1.398 . S
C325 H353 0.929 . S
C326 C325 1.398 . S
C326 C327 1.352 . S
C327 C326 1.352 . S
C327 C328 1.384 . S
C327 H354 0.930 . S
C328 C323 1.407 . S
C328 C327 1.384 . S
C328 H355 0.929 . S
C329 O342 1.241 . S
C329 O343 1.273 . S
C330 O344 1.251 . S
C330 O345 1.268 . S
C331 Nd321 2.836 . S
C331 C332 1.498 . S
C331 O346 1.258 . S
C331 O347 1.239 . S
C332 C331 1.498 . S
C332 C333 1.366 . S
C332 C337 1.407 . S
C333 C332 1.366 . S
C333 C334 1.392 . S
C333 H356 0.930 . S
C334 C333 1.392 . S
C334 C335 1.398 . S
C334 H357 0.929 . S
C335 C334 1.398 . S
C335 C336 1.352 . S
C336 C335 1.352 . S
C336 C337 1.384 . S
C336 H358 0.930 . S
C337 C332 1.407 . S
C337 C336 1.384 . S
C337 H359 0.929 . S
C338 O348 1.241 . S
C338 O349 1.273 . S
C339 O350 1.251 . S
C339 O351 1.268 . S
O340 Nd320 2.500 . S
O340 C322 1.258 . S
O341 Nd320 2.492 . S
O341 C322 1.239 . S
O342 Nd320 2.487 . S
O342 C329 1.241 . S
O343 Nd320 2.682 . S
O343 Nd321 2.414 . S
O343 C329 1.273 . S
O344 Nd320 2.410 . S
O344 C330 1.251 . S
O345 Nd321 2.424 . S
O345 C330 1.268 . S
O346 Nd321 2.500 . S
O346 C331 1.258 . S
O347 Nd321 2.492 . S
O347 C331 1.239 . S
O348 Nd321 2.487 . S
O348 C338 1.241 . S
O349 Nd320 2.414 . S
O349 Nd321 2.682 . S
O349 C338 1.273 . S
O350 Nd321 2.410 . S
O350 C339 1.251 . S
O351 Nd320 2.424 . S
O351 C339 1.268 . S
H352 C324 0.930 . S
H353 C325 0.929 . S
H354 C327 0.930 . S
H355 C328 0.929 . S
H356 C333 0.930 . S
H357 C334 0.929 . S
H358 C336 0.930 . S
H359 C337 0.929 . S
Nd360 C362 2.836 . S
Nd360 O380 2.500 . S
Nd360 O381 2.492 . S
Nd360 O382 2.487 . S
Nd360 O383 2.682 . S
Nd360 O384 2.410 . S
Nd360 O389 2.414 . S
Nd360 O391 2.424 . S
Nd361 C371 2.836 . S
Nd361 O383 2.414 . S
Nd361 O385 2.424 . S
Nd361 O386 2.500 . S
Nd361 O387 2.492 . S
Nd361 O388 2.487 . S
Nd361 O389 2.682 . S
Nd361 O390 2.410 . S
C362 Nd360 2.836 . S
C362 C363 1.498 . S
C362 O380 1.258 . S
C362 O381 1.239 . S
C363 C362 1.498 . S
C363 C364 1.366 . S
C363 C368 1.407 . S
C364 C363 1.366 . S
C364 C365 1.392 . S
C364 H392 0.930 . S
C365 C364 1.392 . S
C365 C366 1.398 . S
C365 H393 0.929 . S
C366 C365 1.398 . S
C366 C367 1.352 . S
C367 C366 1.352 . S
C367 C368 1.384 . S
C367 H394 0.930 . S
C368 C363 1.407 . S
C368 C367 1.384 . S
C368 H395 0.929 . S
C369 O382 1.241 . S
C369 O383 1.273 . S
C370 O384 1.251 . S
C370 O385 1.268 . S
C371 Nd361 2.836 . S
C371 C372 1.498 . S
C371 O386 1.258 . S
C371 O387 1.239 . S
C372 C371 1.498 . S
C372 C373 1.366 . S
C372 C377 1.407 . S
C373 C372 1.366 . S
C373 C374 1.392 . S
C373 H396 0.930 . S
C374 C373 1.392 . S
C374 C375 1.398 . S
C374 H397 0.929 . S
C375 C374 1.398 . S
C375 C376 1.352 . S
C376 C375 1.352 . S
C376 C377 1.384 . S
C376 H398 0.930 . S
C377 C372 1.407 . S
C377 C376 1.384 . S
C377 H399 0.929 . S
C378 O388 1.241 . S
C378 O389 1.273 . S
C379 O390 1.251 . S
C379 O391 1.268 . S
O380 Nd360 2.500 . S
O380 C362 1.258 . S
O381 Nd360 2.492 . S
O381 C362 1.239 . S
O382 Nd360 2.487 . S
O382 C369 1.241 . S
O383 Nd360 2.682 . S
O383 Nd361 2.414 . S
O383 C369 1.273 . S
O384 Nd360 2.410 . S
O384 C370 1.251 . S
O385 Nd361 2.424 . S
O385 C370 1.268 . S
O386 Nd361 2.500 . S
O386 C371 1.258 . S
O387 Nd361 2.492 . S
O387 C371 1.239 . S
O388 Nd361 2.487 . S
O388 C378 1.241 . S
O389 Nd360 2.414 . S
O389 Nd361 2.682 . S
O389 C378 1.273 . S
O390 Nd361 2.410 . S
O390 C379 1.251 . S
O391 Nd360 2.424 . S
O391 C379 1.268 . S
H392 C364 0.930 . S
H393 C365 0.929 . S
H394 C367 0.930 . S
H395 C368 0.929 . S
H396 C373 0.930 . S
H397 C374 0.929 . S
H398 C376 0.930 . S
H399 C377 0.929 . S
Nd400 C402 2.836 . S
Nd400 O420 2.500 . S
Nd400 O421 2.492 . S
Nd400 O422 2.487 . S
Nd400 O423 2.682 . S
Nd400 O424 2.410 . S
Nd400 O429 2.414 . S
Nd400 O431 2.424 . S
Nd401 C411 2.836 . S
Nd401 O423 2.414 . S
Nd401 O425 2.424 . S
Nd401 O426 2.500 . S
Nd401 O427 2.492 . S
Nd401 O428 2.487 . S
Nd401 O429 2.682 . S
Nd401 O430 2.410 . S
C402 Nd400 2.836 . S
C402 C403 1.498 . S
C402 O420 1.258 . S
C402 O421 1.239 . S
C403 C402 1.498 . S
C403 C404 1.366 . S
C403 C408 1.407 . S
C404 C403 1.366 . S
C404 C405 1.392 . S
C404 H432 0.930 . S
C405 C404 1.392 . S
C405 C406 1.398 . S
C405 H433 0.929 . S
C406 C405 1.398 . S
C406 C407 1.352 . S
C407 C406 1.352 . S
C407 C408 1.384 . S
C407 H434 0.930 . S
C408 C403 1.407 . S
C408 C407 1.384 . S
C408 H435 0.929 . S
C409 O422 1.241 . S
C409 O423 1.273 . S
C410 O424 1.251 . S
C410 O425 1.268 . S
C411 Nd401 2.836 . S
C411 C412 1.498 . S
C411 O426 1.258 . S
C411 O427 1.239 . S
C412 C411 1.498 . S
C412 C413 1.366 . S
C412 C417 1.407 . S
C413 C412 1.366 . S
C413 C414 1.392 . S
C413 H436 0.930 . S
C414 C413 1.392 . S
C414 C415 1.398 . S
C414 H437 0.929 . S
C415 C414 1.398 . S
C415 C416 1.352 . S
C416 C415 1.352 . S
C416 C417 1.384 . S
C416 H438 0.930 . S
C417 C412 1.407 . S
C417 C416 1.384 . S
C417 H439 0.929 . S
C418 O428 1.241 . S
C418 O429 1.273 . S
C419 O430 1.251 . S
C419 O431 1.268 . S
O420 Nd400 2.500 . S
O420 C402 1.258 . S
O421 Nd400 2.492 . S
O421 C402 1.239 . S
O422 Nd400 2.487 . S
O422 C409 1.241 . S
O423 Nd400 2.682 . S
O423 Nd401 2.414 . S
O423 C409 1.273 . S
O424 Nd400 2.410 . S
O424 C410 1.251 . S
O425 Nd401 2.424 . S
O425 C410 1.268 . S
O426 Nd401 2.500 . S
O426 C411 1.258 . S
O427 Nd401 2.492 . S
O427 C411 1.239 . S
O428 Nd401 2.487 . S
O428 C418 1.241 . S
O429 Nd400 2.414 . S
O429 Nd401 2.682 . S
O429 C418 1.273 . S
O430 Nd401 2.410 . S
O430 C419 1.251 . S
O431 Nd400 2.424 . S
O431 C419 1.268 . S
H432 C404 0.930 . S
H433 C405 0.929 . S
H434 C407 0.930 . S
H435 C408 0.929 . S
H436 C413 0.930 . S
H437 C414 0.929 . S
H438 C416 0.930 . S
H439 C417 0.929 . S
Nd440 C442 2.836 . S
Nd440 O460 2.500 . S
Nd440 O461 2.492 . S
Nd440 O462 2.487 . S
Nd440 O463 2.682 . S
Nd440 O464 2.410 . S
Nd440 O469 2.414 . S
Nd440 O471 2.424 . S
Nd441 C451 2.836 . S
Nd441 O463 2.414 . S
Nd441 O465 2.424 . S
Nd441 O466 2.500 . S
Nd441 O467 2.492 . S
Nd441 O468 2.487 . S
Nd441 O469 2.682 . S
Nd441 O470 2.410 . S
C442 Nd440 2.836 . S
C442 C443 1.498 . S
C442 O460 1.258 . S
C442 O461 1.239 . S
C443 C442 1.498 . S
C443 C444 1.366 . S
C443 C448 1.407 . S
C444 C443 1.366 . S
C444 C445 1.392 . S
C444 H472 0.930 . S
C445 C444 1.392 . S
C445 C446 1.398 . S
C445 H473 0.929 . S
C446 C445 1.398 . S
C446 C447 1.352 . S
C447 C446 1.352 . S
C447 C448 1.384 . S
C447 H474 0.930 . S
C448 C443 1.407 . S
C448 C447 1.384 . S
C448 H475 0.929 . S
C449 O462 1.241 . S
C449 O463 1.273 . S
C450 O464 1.251 . S
C450 O465 1.268 . S
C451 Nd441 2.836 . S
C451 C452 1.498 . S
C451 O466 1.258 . S
C451 O467 1.239 . S
C452 C451 1.498 . S
C452 C453 1.366 . S
C452 C457 1.407 . S
C453 C452 1.366 . S
C453 C454 1.392 . S
C453 H476 0.930 . S
C454 C453 1.392 . S
C454 C455 1.398 . S
C454 H477 0.929 . S
C455 C454 1.398 . S
C455 C456 1.352 . S
C456 C455 1.352 . S
C456 C457 1.384 . S
C456 H478 0.930 . S
C457 C452 1.407 . S
C457 C456 1.384 . S
C457 H479 0.929 . S
C458 O468 1.241 . S
C458 O469 1.273 . S
C459 O470 1.251 . S
C459 O471 1.268 . S
O460 Nd440 2.500 . S
O460 C442 1.258 . S
O461 Nd440 2.492 . S
O461 C442 1.239 . S
O462 Nd440 2.487 . S
O462 C449 1.241 . S
O463 Nd440 2.682 . S
O463 Nd441 2.414 . S
O463 C449 1.273 . S
O464 Nd440 2.410 . S
O464 C450 1.251 . S
O465 Nd441 2.424 . S
O465 C450 1.268 . S
O466 Nd441 2.500 . S
O466 C451 1.258 . S
O467 Nd441 2.492 . S
O467 C451 1.239 . S
O468 Nd441 2.487 . S
O468 C458 1.241 . S
O469 Nd440 2.414 . S
O469 Nd441 2.682 . S
O469 C458 1.273 . S
O470 Nd441 2.410 . S
O470 C459 1.251 . S
O471 Nd440 2.424 . S
O471 C459 1.268 . S
H472 C444 0.930 . S
H473 C445 0.929 . S
H474 C447 0.930 . S
H475 C448 0.929 . S
H476 C453 0.930 . S
H477 C454 0.929 . S
H478 C456 0.930 . S
H479 C457 0.929 . S
Nd480 C482 2.836 . S
Nd480 O500 2.500 . S
Nd480 O501 2.492 . S
Nd480 O502 2.487 . S
Nd480 O503 2.682 . S
Nd480 O504 2.410 . S
Nd480 O509 2.414 . S
Nd480 O511 2.424 . S
Nd481 C491 2.836 . S
Nd481 O503 2.414 . S
Nd481 O505 2.424 . S
Nd481 O506 2.500 . S
Nd481 O507 2.492 . S
Nd481 O508 2.487 . S
Nd481 O509 2.682 . S
Nd481 O510 2.410 . S
C482 Nd480 2.836 . S
C482 C483 1.498 . S
C482 O500 1.258 . S
C482 O501 1.239 . S
C483 C482 1.498 . S
C483 C484 1.366 . S
C483 C488 1.407 1_655 S
C484 C483 1.366 . S
C484 C485 1.392 1_655 S
C484 H512 0.930 . S
C485 C484 1.392 1_455 S
C485 C486 1.398 . S
C485 H513 0.929 . S
C486 C485 1.398 . S
C486 C487 1.352 . S
C487 C486 1.352 . S
C487 C488 1.384 . S
C487 H514 0.930 . S
C488 C483 1.407 1_455 S
C488 C487 1.384 . S
C488 H515 0.929 . S
C489 O502 1.241 . S
C489 O503 1.273 . S
C490 O504 1.251 . S
C490 O505 1.268 . S
C491 Nd481 2.836 . S
C491 C492 1.498 . S
C491 O506 1.258 . S
C491 O507 1.239 . S
C492 C491 1.498 . S
C492 C493 1.366 . S
C492 C497 1.407 . S
C493 C492 1.366 . S
C493 C494 1.392 . S
C493 H516 0.930 . S
C494 C493 1.392 . S
C494 C495 1.398 . S
C494 H517 0.929 . S
C495 C494 1.398 . S
C495 C496 1.352 . S
C496 C495 1.352 . S
C496 C497 1.384 . S
C496 H518 0.930 . S
C497 C492 1.407 . S
C497 C496 1.384 . S
C497 H519 0.929 . S
C498 O508 1.241 . S
C498 O509 1.273 . S
C499 O510 1.251 . S
C499 O511 1.268 . S
O500 Nd480 2.500 . S
O500 C482 1.258 . S
O501 Nd480 2.492 . S
O501 C482 1.239 . S
O502 Nd480 2.487 . S
O502 C489 1.241 . S
O503 Nd480 2.682 . S
O503 Nd481 2.414 . S
O503 C489 1.273 . S
O504 Nd480 2.410 . S
O504 C490 1.251 . S
O505 Nd481 2.424 . S
O505 C490 1.268 . S
O506 Nd481 2.500 . S
O506 C491 1.258 . S
O507 Nd481 2.492 . S
O507 C491 1.239 . S
O508 Nd481 2.487 . S
O508 C498 1.241 . S
O509 Nd480 2.414 . S
O509 Nd481 2.682 . S
O509 C498 1.273 . S
O510 Nd481 2.410 . S
O510 C499 1.251 . S
O511 Nd480 2.424 . S
O511 C499 1.268 . S
H512 C484 0.930 . S
H513 C485 0.929 . S
H514 C487 0.930 . S
H515 C488 0.929 . S
H516 C493 0.930 . S
H517 C494 0.929 . S
H518 C496 0.930 . S
H519 C497 0.929 . S
Nd520 C522 2.836 . S
Nd520 O540 2.500 . S
Nd520 O541 2.492 . S
Nd520 O542 2.487 . S
Nd520 O543 2.682 . S
Nd520 O544 2.410 . S
Nd520 O549 2.414 . S
Nd520 O551 2.424 . S
Nd521 C531 2.836 . S
Nd521 O543 2.414 . S
Nd521 O545 2.424 . S
Nd521 O546 2.500 . S
Nd521 O547 2.492 . S
Nd521 O548 2.487 . S
Nd521 O549 2.682 . S
Nd521 O550 2.410 . S
C522 Nd520 2.836 . S
C522 C523 1.498 . S
C522 O540 1.258 . S
C522 O541 1.239 . S
C523 C522 1.498 . S
C523 C524 1.366 . S
C523 C528 1.407 . S
C524 C523 1.366 . S
C524 C525 1.392 . S
C524 H552 0.930 . S
C525 C524 1.392 . S
C525 C526 1.398 . S
C525 H553 0.929 . S
C526 C525 1.398 . S
C526 C527 1.352 . S
C527 C526 1.352 . S
C527 C528 1.384 . S
C527 H554 0.930 . S
C528 C523 1.407 . S
C528 C527 1.384 . S
C528 H555 0.929 . S
C529 O542 1.241 . S
C529 O543 1.273 . S
C530 O544 1.251 . S
C530 O545 1.268 . S
C531 Nd521 2.836 . S
C531 C532 1.498 . S
C531 O546 1.258 . S
C531 O547 1.239 . S
C532 C531 1.498 . S
C532 C533 1.366 . S
C532 C537 1.407 . S
C533 C532 1.366 . S
C533 C534 1.392 . S
C533 H556 0.930 . S
C534 C533 1.392 . S
C534 C535 1.398 . S
C534 H557 0.929 . S
C535 C534 1.398 . S
C535 C536 1.352 . S
C536 C535 1.352 . S
C536 C537 1.384 . S
C536 H558 0.930 . S
C537 C532 1.407 . S
C537 C536 1.384 . S
C537 H559 0.929 . S
C538 O548 1.241 . S
C538 O549 1.273 . S
C539 O550 1.251 . S
C539 O551 1.268 . S
O540 Nd520 2.500 . S
O540 C522 1.258 . S
O541 Nd520 2.492 . S
O541 C522 1.239 . S
O542 Nd520 2.487 . S
O542 C529 1.241 . S
O543 Nd520 2.682 . S
O543 Nd521 2.414 . S
O543 C529 1.273 . S
O544 Nd520 2.410 . S
O544 C530 1.251 . S
O545 Nd521 2.424 . S
O545 C530 1.268 . S
O546 Nd521 2.500 . S
O546 C531 1.258 . S
O547 Nd521 2.492 . S
O547 C531 1.239 . S
O548 Nd521 2.487 . S
O548 C538 1.241 . S
O549 Nd520 2.414 . S
O549 Nd521 2.682 . S
O549 C538 1.273 . S
O550 Nd521 2.410 . S
O550 C539 1.251 . S
O551 Nd520 2.424 . S
O551 C539 1.268 . S
H552 C524 0.930 . S
H553 C525 0.929 . S
H554 C527 0.930 . S
H555 C528 0.929 . S
H556 C533 0.930 . S
H557 C534 0.929 . S
H558 C536 0.930 . S
H559 C537 0.929 . S
Nd560 C562 2.836 . S
Nd560 O580 2.500 . S
Nd560 O581 2.492 . S
Nd560 O582 2.487 . S
Nd560 O583 2.682 . S
Nd560 O584 2.410 . S
Nd560 O589 2.414 . S
Nd560 O591 2.424 . S
Nd561 C571 2.836 . S
Nd561 O583 2.414 . S
Nd561 O585 2.424 . S
Nd561 O586 2.500 . S
Nd561 O587 2.492 . S
Nd561 O588 2.487 . S
Nd561 O589 2.682 . S
Nd561 O590 2.410 . S
C562 Nd560 2.836 . S
C562 C563 1.498 . S
C562 O580 1.258 . S
C562 O581 1.239 . S
C563 C562 1.498 . S
C563 C564 1.366 . S
C563 C568 1.407 1_545 S
C564 C563 1.366 . S
C564 C565 1.392 1_545 S
C564 H592 0.930 . S
C565 C564 1.392 1_565 S
C565 C566 1.398 . S
C565 H593 0.929 . S
C566 C565 1.398 . S
C566 C567 1.352 . S
C567 C566 1.352 . S
C567 C568 1.384 . S
C567 H594 0.930 . S
C568 C563 1.407 1_565 S
C568 C567 1.384 . S
C568 H595 0.929 . S
C569 O582 1.241 . S
C569 O583 1.273 . S
C570 O584 1.251 . S
C570 O585 1.268 . S
C571 Nd561 2.836 . S
C571 C572 1.498 . S
C571 O586 1.258 . S
C571 O587 1.239 . S
C572 C571 1.498 . S
C572 C573 1.366 . S
C572 C577 1.407 . S
C573 C572 1.366 . S
C573 C574 1.392 . S
C573 H596 0.930 . S
C574 C573 1.392 . S
C574 C575 1.398 . S
C574 H597 0.929 . S
C575 C574 1.398 . S
C575 C576 1.352 . S
C576 C575 1.352 . S
C576 C577 1.384 . S
C576 H598 0.930 . S
C577 C572 1.407 . S
C577 C576 1.384 . S
C577 H599 0.929 . S
C578 O588 1.241 . S
C578 O589 1.273 . S
C579 O590 1.251 . S
C579 O591 1.268 . S
O580 Nd560 2.500 . S
O580 C562 1.258 . S
O581 Nd560 2.492 . S
O581 C562 1.239 . S
O582 Nd560 2.487 . S
O582 C569 1.241 . S
O583 Nd560 2.682 . S
O583 Nd561 2.414 . S
O583 C569 1.273 . S
O584 Nd560 2.410 . S
O584 C570 1.251 . S
O585 Nd561 2.424 . S
O585 C570 1.268 . S
O586 Nd561 2.500 . S
O586 C571 1.258 . S
O587 Nd561 2.492 . S
O587 C571 1.239 . S
O588 Nd561 2.487 . S
O588 C578 1.241 . S
O589 Nd560 2.414 . S
O589 Nd561 2.682 . S
O589 C578 1.273 . S
O590 Nd561 2.410 . S
O590 C579 1.251 . S
O591 Nd560 2.424 . S
O591 C579 1.268 . S
H592 C564 0.930 . S
H593 C565 0.929 . S
H594 C567 0.930 . S
H595 C568 0.929 . S
H596 C573 0.930 . S
H597 C574 0.929 . S
H598 C576 0.930 . S
H599 C577 0.929 . S
Nd600 C602 2.836 . S
Nd600 O620 2.500 . S
Nd600 O621 2.492 . S
Nd600 O622 2.487 . S
Nd600 O623 2.682 . S
Nd600 O624 2.410 . S
Nd600 O629 2.414 . S
Nd600 O631 2.424 . S
Nd601 C611 2.836 . S
Nd601 O623 2.414 . S
Nd601 O625 2.424 . S
Nd601 O626 2.500 . S
Nd601 O627 2.492 . S
Nd601 O628 2.487 . S
Nd601 O629 2.682 . S
Nd601 O630 2.410 . S
C602 Nd600 2.836 . S
C602 C603 1.498 . S
C602 O620 1.258 . S
C602 O621 1.239 . S
C603 C602 1.498 . S
C603 C604 1.366 . S
C603 C608 1.407 . S
C604 C603 1.366 . S
C604 C605 1.392 . S
C604 H632 0.930 . S
C605 C604 1.392 . S
C605 C606 1.398 . S
C605 H633 0.929 . S
C606 C605 1.398 . S
C606 C607 1.352 . S
C607 C606 1.352 . S
C607 C608 1.384 . S
C607 H634 0.930 . S
C608 C603 1.407 . S
C608 C607 1.384 . S
C608 H635 0.929 . S
C609 O622 1.241 . S
C609 O623 1.273 . S
C610 O624 1.251 . S
C610 O625 1.268 . S
C611 Nd601 2.836 . S
C611 C612 1.498 . S
C611 O626 1.258 . S
C611 O627 1.239 . S
C612 C611 1.498 . S
C612 C613 1.366 . S
C612 C617 1.407 . S
C613 C612 1.366 . S
C613 C614 1.392 1_655 S
C613 H636 0.930 1_655 S
C614 C613 1.392 1_455 S
C614 C615 1.398 1_455 S
C614 H637 0.929 . S
C615 C614 1.398 1_655 S
C615 C616 1.352 . S
C616 C615 1.352 . S
C616 C617 1.384 . S
C616 H638 0.930 . S
C617 C612 1.407 . S
C617 C616 1.384 . S
C617 H639 0.929 . S
C618 O628 1.241 . S
C618 O629 1.273 . S
C619 O630 1.251 . S
C619 O631 1.268 . S
O620 Nd600 2.500 . S
O620 C602 1.258 . S
O621 Nd600 2.492 . S
O621 C602 1.239 . S
O622 Nd600 2.487 . S
O622 C609 1.241 . S
O623 Nd600 2.682 . S
O623 Nd601 2.414 . S
O623 C609 1.273 . S
O624 Nd600 2.410 . S
O624 C610 1.251 . S
O625 Nd601 2.424 . S
O625 C610 1.268 . S
O626 Nd601 2.500 . S
O626 C611 1.258 . S
O627 Nd601 2.492 . S
O627 C611 1.239 . S
O628 Nd601 2.487 . S
O628 C618 1.241 . S
O629 Nd600 2.414 . S
O629 Nd601 2.682 . S
O629 C618 1.273 . S
O630 Nd601 2.410 . S
O630 C619 1.251 . S
O631 Nd600 2.424 . S
O631 C619 1.268 . S
H632 C604 0.930 . S
H633 C605 0.929 . S
H634 C607 0.930 . S
H635 C608 0.929 . S
H636 C613 0.930 1_455 S
H637 C614 0.929 . S
H638 C616 0.930 . S
H639 C617 0.929 . S
Nd640 C642 2.836 . S
Nd640 O660 2.500 . S
Nd640 O661 2.492 . S
Nd640 O662 2.487 . S
Nd640 O663 2.682 . S
Nd640 O664 2.410 . S
Nd640 O669 2.414 . S
Nd640 O671 2.424 . S
Nd641 C651 2.836 . S
Nd641 O663 2.414 . S
Nd641 O665 2.424 . S
Nd641 O666 2.500 . S
Nd641 O667 2.492 . S
Nd641 O668 2.487 . S
Nd641 O669 2.682 . S
Nd641 O670 2.410 . S
C642 Nd640 2.836 . S
C642 C643 1.498 . S
C642 O660 1.258 . S
C642 O661 1.239 . S
C643 C642 1.498 . S
C643 C644 1.366 . S
C643 C648 1.407 . S
C644 C643 1.366 . S
C644 C645 1.392 . S
C644 H672 0.930 . S
C645 C644 1.392 . S
C645 C646 1.398 . S
C645 H673 0.929 . S
C646 C645 1.398 . S
C646 C647 1.352 . S
C647 C646 1.352 . S
C647 C648 1.384 . S
C647 H674 0.930 . S
C648 C643 1.407 . S
C648 C647 1.384 . S
C648 H675 0.929 . S
C649 O662 1.241 . S
C649 O663 1.273 . S
C650 O664 1.251 . S
C650 O665 1.268 . S
C651 Nd641 2.836 . S
C651 C652 1.498 . S
C651 O666 1.258 . S
C651 O667 1.239 . S
C652 C651 1.498 . S
C652 C653 1.366 . S
C652 C657 1.407 . S
C653 C652 1.366 . S
C653 C654 1.392 . S
C653 H676 0.930 . S
C654 C653 1.392 . S
C654 C655 1.398 . S
C654 H677 0.929 . S
C655 C654 1.398 . S
C655 C656 1.352 . S
C656 C655 1.352 . S
C656 C657 1.384 . S
C656 H678 0.930 . S
C657 C652 1.407 . S
C657 C656 1.384 . S
C657 H679 0.929 . S
C658 O668 1.241 . S
C658 O669 1.273 . S
C659 O670 1.251 . S
C659 O671 1.268 . S
O660 Nd640 2.500 . S
O660 C642 1.258 . S
O661 Nd640 2.492 . S
O661 C642 1.239 . S
O662 Nd640 2.487 . S
O662 C649 1.241 . S
O663 Nd640 2.682 . S
O663 Nd641 2.414 . S
O663 C649 1.273 . S
O664 Nd640 2.410 . S
O664 C650 1.251 . S
O665 Nd641 2.424 . S
O665 C650 1.268 . S
O666 Nd641 2.500 . S
O666 C651 1.258 . S
O667 Nd641 2.492 . S
O667 C651 1.239 . S
O668 Nd641 2.487 . S
O668 C658 1.241 . S
O669 Nd640 2.414 . S
O669 Nd641 2.682 . S
O669 C658 1.273 . S
O670 Nd641 2.410 . S
O670 C659 1.251 . S
O671 Nd640 2.424 . S
O671 C659 1.268 . S
H672 C644 0.930 . S
H673 C645 0.929 . S
H674 C647 0.930 . S
H675 C648 0.929 . S
H676 C653 0.930 . S
H677 C654 0.929 . S
H678 C656 0.930 . S
H679 C657 0.929 . S
Nd680 C682 2.836 . S
Nd680 O700 2.500 . S
Nd680 O701 2.492 . S
Nd680 O702 2.487 . S
Nd680 O703 2.682 . S
Nd680 O704 2.410 . S
Nd680 O709 2.414 . S
Nd680 O711 2.424 . S
Nd681 C691 2.836 . S
Nd681 O703 2.414 . S
Nd681 O705 2.424 . S
Nd681 O706 2.500 . S
Nd681 O707 2.492 . S
Nd681 O708 2.487 . S
Nd681 O709 2.682 . S
Nd681 O710 2.410 . S
C682 Nd680 2.836 . S
C682 C683 1.498 . S
C682 O700 1.258 . S
C682 O701 1.239 . S
C683 C682 1.498 . S
C683 C684 1.366 . S
C683 C688 1.407 . S
C684 C683 1.366 . S
C684 C685 1.392 . S
C684 H712 0.930 . S
C685 C684 1.392 . S
C685 C686 1.398 . S
C685 H713 0.929 . S
C686 C685 1.398 . S
C686 C687 1.352 . S
C687 C686 1.352 . S
C687 C688 1.384 . S
C687 H714 0.930 . S
C688 C683 1.407 . S
C688 C687 1.384 . S
C688 H715 0.929 . S
C689 O702 1.241 . S
C689 O703 1.273 . S
C690 O704 1.251 . S
C690 O705 1.268 . S
C691 Nd681 2.836 . S
C691 C692 1.498 . S
C691 O706 1.258 . S
C691 O707 1.239 . S
C692 C691 1.498 . S
C692 C693 1.366 . S
C692 C697 1.407 . S
C693 C692 1.366 . S
C693 C694 1.392 1_545 S
C693 H716 0.930 1_545 S
C694 C693 1.392 1_565 S
C694 C695 1.398 1_565 S
C694 H717 0.929 . S
C695 C694 1.398 1_545 S
C695 C696 1.352 . S
C696 C695 1.352 . S
C696 C697 1.384 . S
C696 H718 0.930 . S
C697 C692 1.407 . S
C697 C696 1.384 . S
C697 H719 0.929 . S
C698 O708 1.241 . S
C698 O709 1.273 . S
C699 O710 1.251 . S
C699 O711 1.268 . S
O700 Nd680 2.500 . S
O700 C682 1.258 . S
O701 Nd680 2.492 . S
O701 C682 1.239 . S
O702 Nd680 2.487 . S
O702 C689 1.241 . S
O703 Nd680 2.682 . S
O703 Nd681 2.414 . S
O703 C689 1.273 . S
O704 Nd680 2.410 . S
O704 C690 1.251 . S
O705 Nd681 2.424 . S
O705 C690 1.268 . S
O706 Nd681 2.500 . S
O706 C691 1.258 . S
O707 Nd681 2.492 . S
O707 C691 1.239 . S
O708 Nd681 2.487 . S
O708 C698 1.241 . S
O709 Nd680 2.414 . S
O709 Nd681 2.682 . S
O709 C698 1.273 . S
O710 Nd681 2.410 . S
O710 C699 1.251 . S
O711 Nd680 2.424 . S
O711 C699 1.268 . S
H712 C684 0.930 . S
H713 C685 0.929 . S
H714 C687 0.930 . S
H715 C688 0.929 . S
H716 C693 0.930 1_565 S
H717 C694 0.929 . S
H718 C696 0.930 . S
H719 C697 0.929 . S
Nd720 C722 2.836 . S
Nd720 O740 2.500 . S
Nd720 O741 2.492 . S
Nd720 O742 2.487 . S
Nd720 O743 2.682 . S
Nd720 O744 2.410 . S
Nd720 O749 2.414 . S
Nd720 O751 2.424 . S
Nd721 C731 2.836 1_545 S
Nd721 O743 2.414 . S
Nd721 O745 2.424 . S
Nd721 O746 2.500 1_545 S
Nd721 O747 2.492 1_545 S
Nd721 O748 2.487 . S
Nd721 O749 2.682 . S
Nd721 O750 2.410 . S
C722 Nd720 2.836 . S
C722 C723 1.498 . S
C722 O740 1.258 . S
C722 O741 1.239 . S
C723 C722 1.498 . S
C723 C724 1.366 . S
C723 C728 1.407 . S
C724 C723 1.366 . S
C724 C725 1.392 . S
C724 H752 0.930 . S
C725 C724 1.392 . S
C725 C726 1.398 . S
C725 H753 0.929 . S
C726 C725 1.398 . S
C726 C727 1.352 . S
C727 C726 1.352 . S
C727 C728 1.384 . S
C727 H754 0.930 . S
C728 C723 1.407 . S
C728 C727 1.384 . S
C728 H755 0.929 . S
C729 O742 1.241 . S
C729 O743 1.273 . S
C730 O744 1.251 . S
C730 O745 1.268 . S
C731 Nd721 2.836 1_565 S
C731 C732 1.498 . S
C731 O746 1.258 . S
C731 O747 1.239 . S
C732 C731 1.498 . S
C732 C733 1.366 . S
C732 C737 1.407 . S
C733 C732 1.366 . S
C733 C734 1.392 . S
C733 H756 0.930 . S
C734 C733 1.392 . S
C734 C735 1.398 . S
C734 H757 0.929 . S
C735 C734 1.398 . S
C735 C736 1.352 . S
C736 C735 1.352 . S
C736 C737 1.384 . S
C736 H758 0.930 . S
C737 C732 1.407 . S
C737 C736 1.384 . S
C737 H759 0.929 . S
C738 O748 1.241 . S
C738 O749 1.273 . S
C739 O750 1.251 . S
C739 O751 1.268 . S
O740 Nd720 2.500 . S
O740 C722 1.258 . S
O741 Nd720 2.492 . S
O741 C722 1.239 . S
O742 Nd720 2.487 . S
O742 C729 1.241 . S
O743 Nd720 2.682 . S
O743 Nd721 2.414 . S
O743 C729 1.273 . S
O744 Nd720 2.410 . S
O744 C730 1.251 . S
O745 Nd721 2.424 . S
O745 C730 1.268 . S
O746 Nd721 2.500 1_565 S
O746 C731 1.258 . S
O747 Nd721 2.492 1_565 S
O747 C731 1.239 . S
O748 Nd721 2.487 . S
O748 C738 1.241 . S
O749 Nd720 2.414 . S
O749 Nd721 2.682 . S
O749 C738 1.273 . S
O750 Nd721 2.410 . S
O750 C739 1.251 . S
O751 Nd720 2.424 . S
O751 C739 1.268 . S
H752 C724 0.930 . S
H753 C725 0.929 . S
H754 C727 0.930 . S
H755 C728 0.929 . S
H756 C733 0.930 . S
H757 C734 0.929 . S
H758 C736 0.930 . S
H759 C737 0.929 . S
Nd760 C762 2.836 . S
Nd760 O780 2.500 . S
Nd760 O781 2.492 . S
Nd760 O782 2.487 . S
Nd760 O783 2.682 . S
Nd760 O784 2.410 . S
Nd760 O789 2.414 . S
Nd760 O791 2.424 . S
Nd761 C771 2.836 1_655 S
Nd761 O783 2.414 . S
Nd761 O785 2.424 . S
Nd761 O786 2.500 1_655 S
Nd761 O787 2.492 1_655 S
Nd761 O788 2.487 . S
Nd761 O789 2.682 . S
Nd761 O790 2.410 . S
C762 Nd760 2.836 . S
C762 C763 1.498 . S
C762 O780 1.258 . S
C762 O781 1.239 . S
C763 C762 1.498 . S
C763 C764 1.366 . S
C763 C768 1.407 . S
C764 C763 1.366 . S
C764 C765 1.392 . S
C764 H792 0.930 . S
C765 C764 1.392 . S
C765 C766 1.398 . S
C765 H793 0.929 . S
C766 C765 1.398 . S
C766 C767 1.352 . S
C767 C766 1.352 . S
C767 C768 1.384 . S
C767 H794 0.930 . S
C768 C763 1.407 . S
C768 C767 1.384 . S
C768 H795 0.929 . S
C769 O782 1.241 . S
C769 O783 1.273 . S
C770 O784 1.251 . S
C770 O785 1.268 . S
C771 Nd761 2.836 1_455 S
C771 C772 1.498 . S
C771 O786 1.258 . S
C771 O787 1.239 . S
C772 C771 1.498 . S
C772 C773 1.366 . S
C772 C777 1.407 . S
C773 C772 1.366 . S
C773 C774 1.392 . S
C773 H796 0.930 . S
C774 C773 1.392 . S
C774 C775 1.398 . S
C774 H797 0.929 . S
C775 C774 1.398 . S
C775 C776 1.352 . S
C776 C775 1.352 . S
C776 C777 1.384 . S
C776 H798 0.930 . S
C777 C772 1.407 . S
C777 C776 1.384 . S
C777 H799 0.929 . S
C778 O788 1.241 . S
C778 O789 1.273 . S
C779 O790 1.251 . S
C779 O791 1.268 . S
O780 Nd760 2.500 . S
O780 C762 1.258 . S
O781 Nd760 2.492 . S
O781 C762 1.239 . S
O782 Nd760 2.487 . S
O782 C769 1.241 . S
O783 Nd760 2.682 . S
O783 Nd761 2.414 . S
O783 C769 1.273 . S
O784 Nd760 2.410 . S
O784 C770 1.251 . S
O785 Nd761 2.424 . S
O785 C770 1.268 . S
O786 Nd761 2.500 1_455 S
O786 C771 1.258 . S
O787 Nd761 2.492 1_455 S
O787 C771 1.239 . S
O788 Nd761 2.487 . S
O788 C778 1.241 . S
O789 Nd760 2.414 . S
O789 Nd761 2.682 . S
O789 C778 1.273 . S
O790 Nd761 2.410 . S
O790 C779 1.251 . S
O791 Nd760 2.424 . S
O791 C779 1.268 . S
H792 C764 0.930 . S
H793 C765 0.929 . S
H794 C767 0.930 . S
H795 C768 0.929 . S
H796 C773 0.930 . S
H797 C774 0.929 . S
H798 C776 0.930 . S
H799 C777 0.929 . S
Nd800 C802 2.836 . S
Nd800 O820 2.500 . S
Nd800 O821 2.492 . S
Nd800 O822 2.487 . S
Nd800 O823 2.682 . S
Nd800 O824 2.410 . S
Nd800 O829 2.414 . S
Nd800 O831 2.424 . S
Nd801 C811 2.836 . S
Nd801 O823 2.414 . S
Nd801 O825 2.424 . S
Nd801 O826 2.500 . S
Nd801 O827 2.492 . S
Nd801 O828 2.487 . S
Nd801 O829 2.682 . S
Nd801 O830 2.410 . S
C802 Nd800 2.836 . S
C802 C803 1.498 . S
C802 O820 1.258 . S
C802 O821 1.239 . S
C803 C802 1.498 . S
C803 C804 1.366 . S
C803 C808 1.407 . S
C804 C803 1.366 . S
C804 C805 1.392 . S
C804 H832 0.930 . S
C805 C804 1.392 . S
C805 C806 1.398 . S
C805 H833 0.929 . S
C806 C805 1.398 . S
C806 C807 1.352 . S
C807 C806 1.352 . S
C807 C808 1.384 . S
C807 H834 0.930 . S
C808 C803 1.407 . S
C808 C807 1.384 . S
C808 H835 0.929 . S
C809 O822 1.241 . S
C809 O823 1.273 . S
C810 O824 1.251 . S
C810 O825 1.268 . S
C811 Nd801 2.836 . S
C811 C812 1.498 . S
C811 O826 1.258 . S
C811 O827 1.239 . S
C812 C811 1.498 . S
C812 C813 1.366 . S
C812 C817 1.407 . S
C813 C812 1.366 . S
C813 C814 1.392 . S
C813 H836 0.930 . S
C814 C813 1.392 . S
C814 C815 1.398 . S
C814 H837 0.929 . S
C815 C814 1.398 . S
C815 C816 1.352 . S
C816 C815 1.352 . S
C816 C817 1.384 . S
C816 H838 0.930 . S
C817 C812 1.407 . S
C817 C816 1.384 . S
C817 H839 0.929 . S
C818 O828 1.241 . S
C818 O829 1.273 . S
C819 O830 1.251 . S
C819 O831 1.268 . S
O820 Nd800 2.500 . S
O820 C802 1.258 . S
O821 Nd800 2.492 . S
O821 C802 1.239 . S
O822 Nd800 2.487 . S
O822 C809 1.241 . S
O823 Nd800 2.682 . S
O823 Nd801 2.414 . S
O823 C809 1.273 . S
O824 Nd800 2.410 . S
O824 C810 1.251 . S
O825 Nd801 2.424 . S
O825 C810 1.268 . S
O826 Nd801 2.500 . S
O826 C811 1.258 . S
O827 Nd801 2.492 . S
O827 C811 1.239 . S
O828 Nd801 2.487 . S
O828 C818 1.241 . S
O829 Nd800 2.414 . S
O829 Nd801 2.682 . S
O829 C818 1.273 . S
O830 Nd801 2.410 . S
O830 C819 1.251 . S
O831 Nd800 2.424 . S
O831 C819 1.268 . S
H832 C804 0.930 . S
H833 C805 0.929 . S
H834 C807 0.930 . S
H835 C808 0.929 . S
H836 C813 0.930 . S
H837 C814 0.929 . S
H838 C816 0.930 . S
H839 C817 0.929 . S
Nd840 C842 2.836 . S
Nd840 O860 2.500 . S
Nd840 O861 2.492 . S
Nd840 O862 2.487 . S
Nd840 O863 2.682 1_556 S
Nd840 O864 2.410 . S
Nd840 O869 2.414 . S
Nd840 O871 2.424 . S
Nd841 C851 2.836 . S
Nd841 O863 2.414 . S
Nd841 O865 2.424 . S
Nd841 O866 2.500 . S
Nd841 O867 2.492 . S
Nd841 O868 2.487 . S
Nd841 O869 2.682 1_554 S
Nd841 O870 2.410 . S
C842 Nd840 2.836 . S
C842 C843 1.498 . S
C842 O860 1.258 . S
C842 O861 1.239 . S
C843 C842 1.498 . S
C843 C844 1.366 . S
C843 C848 1.407 . S
C844 C843 1.366 . S
C844 C845 1.392 . S
C844 H872 0.930 . S
C845 C844 1.392 . S
C845 C846 1.398 . S
C845 H873 0.929 . S
C846 C845 1.398 . S
C846 C847 1.352 . S
C847 C846 1.352 . S
C847 C848 1.384 . S
C847 H874 0.930 . S
C848 C843 1.407 . S
C848 C847 1.384 . S
C848 H875 0.929 . S
C849 O862 1.241 . S
C849 O863 1.273 1_556 S
C850 O864 1.251 . S
C850 O865 1.268 1_556 S
C851 Nd841 2.836 . S
C851 C852 1.498 . S
C851 O866 1.258 . S
C851 O867 1.239 . S
C852 C851 1.498 . S
C852 C853 1.366 . S
C852 C857 1.407 . S
C853 C852 1.366 . S
C853 C854 1.392 . S
C853 H876 0.930 . S
C854 C853 1.392 . S
C854 C855 1.398 . S
C854 H877 0.929 . S
C855 C854 1.398 . S
C855 C856 1.352 . S
C856 C855 1.352 . S
C856 C857 1.384 . S
C856 H878 0.930 . S
C857 C852 1.407 . S
C857 C856 1.384 . S
C857 H879 0.929 . S
C858 O868 1.323 . S
C858 O869 1.234 1_554 S
C859 O870 1.251 . S
C859 O871 1.268 1_554 S
O860 Nd840 2.500 . S
O860 C842 1.258 . S
O861 Nd840 2.492 . S
O861 C842 1.239 . S
O862 Nd840 2.487 . S
O862 C849 1.241 . S
O863 Nd840 2.682 1_554 S
O863 Nd841 2.414 . S
O863 C849 1.273 1_554 S
O864 Nd840 2.410 . S
O864 C850 1.251 . S
O865 Nd841 2.424 . S
O865 C850 1.268 1_554 S
O866 Nd841 2.500 . S
O866 C851 1.258 . S
O867 Nd841 2.492 . S
O867 C851 1.239 . S
O868 Nd841 2.487 . S
O868 C858 1.323 . S
O869 Nd840 2.414 . S
O869 Nd841 2.682 1_556 S
O869 C858 1.234 1_556 S
O870 Nd841 2.410 . S
O870 C859 1.251 . S
O871 Nd840 2.424 . S
O871 C859 1.268 1_556 S
H872 C844 0.930 . S
H873 C845 0.929 . S
H874 C847 0.930 . S
H875 C848 0.929 . S
H876 C853 0.930 . S
H877 C854 0.929 . S
H878 C856 0.930 . S
H879 C857 0.929 . S
Nd880 C882 2.836 . S
Nd880 O900 2.500 . S
Nd880 O901 2.492 . S
Nd880 O902 2.487 . S
Nd880 O903 2.682 1_556 S
Nd880 O904 2.410 . S
Nd880 O909 2.414 . S
Nd880 O911 2.424 . S
Nd881 C891 2.836 . S
Nd881 O903 2.414 . S
Nd881 O905 2.424 . S
Nd881 O906 2.500 . S
Nd881 O907 2.492 . S
Nd881 O908 2.487 . S
Nd881 O909 2.682 1_554 S
Nd881 O910 2.410 . S
C882 Nd880 2.836 . S
C882 C883 1.498 . S
C882 O900 1.258 . S
C882 O901 1.239 . S
C883 C882 1.498 . S
C883 C884 1.366 . S
C883 C888 1.407 . S
C884 C883 1.366 . S
C884 C885 1.392 . S
C884 H912 0.930 . S
C885 C884 1.392 . S
C885 C886 1.398 . S
C885 H913 0.929 . S
C886 C885 1.398 . S
C886 C887 1.352 . S
C887 C886 1.352 . S
C887 C888 1.384 . S
C887 H914 0.930 . S
C888 C883 1.407 . S
C888 C887 1.384 . S
C888 H915 0.929 . S
C889 O902 1.241 . S
C889 O903 1.273 1_556 S
C890 O904 1.251 . S
C890 O905 1.268 1_556 S
C891 Nd881 2.836 . S
C891 C892 1.498 . S
C891 O906 1.258 . S
C891 O907 1.239 . S
C892 C891 1.498 . S
C892 C893 1.366 . S
C892 C897 1.407 . S
C893 C892 1.366 . S
C893 C894 1.392 . S
C893 H916 0.930 . S
C894 C893 1.392 . S
C894 C895 1.398 . S
C894 H917 0.929 . S
C895 C894 1.398 . S
C895 C896 1.352 . S
C896 C895 1.352 . S
C896 C897 1.384 . S
C896 H918 0.930 . S
C897 C892 1.407 . S
C897 C896 1.384 . S
C897 H919 0.929 . S
C898 O908 1.323 . S
C898 O909 1.234 1_554 S
C899 O910 1.251 . S
C899 O911 1.268 1_554 S
O900 Nd880 2.500 . S
O900 C882 1.258 . S
O901 Nd880 2.492 . S
O901 C882 1.239 . S
O902 Nd880 2.487 . S
O902 C889 1.241 . S
O903 Nd880 2.682 1_554 S
O903 Nd881 2.414 . S
O903 C889 1.273 1_554 S
O904 Nd880 2.410 . S
O904 C890 1.251 . S
O905 Nd881 2.424 . S
O905 C890 1.268 1_554 S
O906 Nd881 2.500 . S
O906 C891 1.258 . S
O907 Nd881 2.492 . S
O907 C891 1.239 . S
O908 Nd881 2.487 . S
O908 C898 1.323 . S
O909 Nd880 2.414 . S
O909 Nd881 2.682 1_556 S
O909 C898 1.234 1_556 S
O910 Nd881 2.410 . S
O910 C899 1.251 . S
O911 Nd880 2.424 . S
O911 C899 1.268 1_556 S
H912 C884 0.930 . S
H913 C885 0.929 . S
H914 C887 0.930 . S
H915 C888 0.929 . S
H916 C893 0.930 . S
H917 C894 0.929 . S
H918 C896 0.930 . S
H919 C897 0.929 . S
Nd920 C922 2.836 . S
Nd920 O940 2.500 . S
Nd920 O941 2.492 . S
Nd920 O942 2.487 . S
Nd920 O943 2.682 1_556 S
Nd920 O944 2.410 . S
Nd920 O949 2.414 . S
Nd920 O951 2.424 . S
Nd921 C931 2.836 . S
Nd921 O943 2.414 . S
Nd921 O945 2.424 . S
Nd921 O946 2.500 . S
Nd921 O947 2.492 . S
Nd921 O948 2.487 . S
Nd921 O949 2.682 1_554 S
Nd921 O950 2.410 . S
C922 Nd920 2.836 . S
C922 C923 1.498 . S
C922 O940 1.258 . S
C922 O941 1.239 . S
C923 C922 1.498 . S
C923 C924 1.366 . S
C923 C928 1.407 . S
C924 C923 1.366 . S
C924 C925 1.392 . S
C924 H952 0.930 . S
C925 C924 1.392 . S
C925 C926 1.398 . S
C925 H953 0.929 . S
C926 C925 1.398 . S
C926 C927 1.352 . S
C927 C926 1.352 . S
C927 C928 1.384 . S
C927 H954 0.930 . S
C928 C923 1.407 . S
C928 C927 1.384 . S
C928 H955 0.929 . S
C929 O942 1.241 . S
C929 O943 1.273 1_556 S
C930 O944 1.251 . S
C930 O945 1.268 1_556 S
C931 Nd921 2.836 . S
C931 C932 1.498 . S
C931 O946 1.258 . S
C931 O947 1.239 . S
C932 C931 1.498 . S
C932 C933 1.366 . S
C932 C937 1.407 . S
C933 C932 1.366 . S
C933 C934 1.392 . S
C933 H956 0.930 . S
C934 C933 1.392 . S
C934 C935 1.398 . S
C934 H957 0.929 . S
C935 C934 1.398 . S
C935 C936 1.352 . S
C936 C935 1.352 . S
C936 C937 1.384 . S
C936 H958 0.930 . S
C937 C932 1.407 . S
C937 C936 1.384 . S
C937 H959 0.929 . S
C938 O948 1.323 . S
C938 O949 1.234 1_554 S
C939 O950 1.251 . S
C939 O951 1.268 1_554 S
O940 Nd920 2.500 . S
O940 C922 1.258 . S
O941 Nd920 2.492 . S
O941 C922 1.239 . S
O942 Nd920 2.487 . S
O942 C929 1.241 . S
O943 Nd920 2.682 1_554 S
O943 Nd921 2.414 . S
O943 C929 1.273 1_554 S
O944 Nd920 2.410 . S
O944 C930 1.251 . S
O945 Nd921 2.424 . S
O945 C930 1.268 1_554 S
O946 Nd921 2.500 . S
O946 C931 1.258 . S
O947 Nd921 2.492 . S
O947 C931 1.239 . S
O948 Nd921 2.487 . S
O948 C938 1.323 . S
O949 Nd920 2.414 . S
O949 Nd921 2.682 1_556 S
O949 C938 1.234 1_556 S
O950 Nd921 2.410 . S
O950 C939 1.251 . S
O951 Nd920 2.424 . S
O951 C939 1.268 1_556 S
H952 C924 0.930 . S
H953 C925 0.929 . S
H954 C927 0.930 . S
H955 C928 0.929 . S
H956 C933 0.930 . S
H957 C934 0.929 . S
H958 C936 0.930 . S
H959 C937 0.929 . S
Nd960 C962 2.836 1_565 S
Nd960 O980 2.500 1_565 S
Nd960 O981 2.492 1_565 S
Nd960 O982 2.487 . S
Nd960 O983 2.682 . S
Nd960 O984 2.410 . S
Nd960 O989 2.414 . S
Nd960 O991 2.424 . S
Nd961 C971 2.836 . S
Nd961 O983 2.414 . S
Nd961 O985 2.424 . S
Nd961 O986 2.500 . S
Nd961 O987 2.492 . S
Nd961 O988 2.487 . S
Nd961 O989 2.682 . S
Nd961 O990 2.410 . S
C962 Nd960 2.836 1_545 S
C962 C963 1.498 . S
C962 O980 1.258 . S
C962 O981 1.239 . S
C963 C962 1.498 . S
C963 C964 1.366 . S
C963 C968 1.407 . S
C964 C963 1.366 . S
C964 C965 1.392 . S
C964 H992 0.930 . S
C965 C964 1.392 . S
C965 C966 1.398 . S
C965 H993 0.929 . S
C966 C965 1.398 . S
C966 C967 1.352 . S
C967 C966 1.352 . S
C967 C968 1.384 . S
C967 H994 0.930 . S
C968 C963 1.407 . S
C968 C967 1.384 . S
C968 H995 0.929 . S
C969 O982 1.241 . S
C969 O983 1.273 . S
C970 O984 1.251 . S
C970 O985 1.268 . S
C971 Nd961 2.836 . S
C971 C972 1.498 . S
C971 O986 1.258 . S
C971 O987 1.239 . S
C972 C971 1.498 . S
C972 C973 1.366 . S
C972 C977 1.407 . S
C973 C972 1.366 . S
C973 C974 1.392 . S
C973 H996 0.930 . S
C974 C973 1.392 . S
C974 C975 1.398 . S
C974 H997 0.929 . S
C975 C974 1.398 . S
C975 C976 1.352 . S
C976 C975 1.352 . S
C976 C977 1.384 . S
C976 H998 0.930 . S
C977 C972 1.407 . S
C977 C976 1.384 . S
C977 H999 0.929 . S
C978 O988 1.241 . S
C978 O989 1.273 . S
C979 O990 1.251 . S
C979 O991 1.268 . S
O980 Nd960 2.500 1_545 S
O980 C962 1.258 . S
O981 Nd960 2.492 1_545 S
O981 C962 1.239 . S
O982 Nd960 2.487 . S
O982 C969 1.241 . S
O983 Nd960 2.682 . S
O983 Nd961 2.414 . S
O983 C969 1.273 . S
O984 Nd960 2.410 . S
O984 C970 1.251 . S
O985 Nd961 2.424 . S
O985 C970 1.268 . S
O986 Nd961 2.500 . S
O986 C971 1.258 . S
O987 Nd961 2.492 . S
O987 C971 1.239 . S
O988 Nd961 2.487 . S
O988 C978 1.241 . S
O989 Nd960 2.414 . S
O989 Nd961 2.682 . S
O989 C978 1.273 . S
O990 Nd961 2.410 . S
O990 C979 1.251 . S
O991 Nd960 2.424 . S
O991 C979 1.268 . S
H992 C964 0.930 . S
H993 C965 0.929 . S
H994 C967 0.930 . S
H995 C968 0.929 . S
H996 C973 0.930 . S
H997 C974 0.929 . S
H998 C976 0.930 . S
H999 C977 0.929 . S
Nd1000 C1002 2.836 1_455 S
Nd1000 O1020 2.500 1_455 S
Nd1000 O1021 2.492 1_455 S
Nd1000 O1022 2.487 . S
Nd1000 O1023 2.682 . S
Nd1000 O1024 2.410 . S
Nd1000 O1029 2.414 . S
Nd1000 O1031 2.424 . S
Nd1001 C1011 2.836 . S
Nd1001 O1023 2.414 . S
Nd1001 O1025 2.424 . S
Nd1001 O1026 2.500 . S
Nd1001 O1027 2.492 . S
Nd1001 O1028 2.487 . S
Nd1001 O1029 2.682 . S
Nd1001 O1030 2.410 . S
C1002 Nd1000 2.836 1_655 S
C1002 C1003 1.498 . S
C1002 O1020 1.258 . S
C1002 O1021 1.239 . S
C1003 C1002 1.498 . S
C1003 C1004 1.366 . S
C1003 C1008 1.407 . S
C1004 C1003 1.366 . S
C1004 C1005 1.392 . S
C1004 H1032 0.930 . S
C1005 C1004 1.392 . S
C1005 C1006 1.398 . S
C1005 H1033 0.929 . S
C1006 C1005 1.398 . S
C1006 C1007 1.352 . S
C1007 C1006 1.352 . S
C1007 C1008 1.384 . S
C1007 H1034 0.930 . S
C1008 C1003 1.407 . S
C1008 C1007 1.384 . S
C1008 H1035 0.929 . S
C1009 O1022 1.241 . S
C1009 O1023 1.273 . S
C1010 O1024 1.251 . S
C1010 O1025 1.268 . S
C1011 Nd1001 2.836 . S
C1011 C1012 1.498 . S
C1011 O1026 1.258 . S
C1011 O1027 1.239 . S
C1012 C1011 1.498 . S
C1012 C1013 1.366 . S
C1012 C1017 1.407 . S
C1013 C1012 1.366 . S
C1013 C1014 1.392 . S
C1013 H1036 0.930 . S
C1014 C1013 1.392 . S
C1014 C1015 1.398 . S
C1014 H1037 0.929 . S
C1015 C1014 1.398 . S
C1015 C1016 1.352 . S
C1016 C1015 1.352 . S
C1016 C1017 1.384 . S
C1016 H1038 0.930 . S
C1017 C1012 1.407 . S
C1017 C1016 1.384 . S
C1017 H1039 0.929 . S
C1018 O1028 1.241 . S
C1018 O1029 1.273 . S
C1019 O1030 1.251 . S
C1019 O1031 1.268 . S
O1020 Nd1000 2.500 1_655 S
O1020 C1002 1.258 . S
O1021 Nd1000 2.492 1_655 S
O1021 C1002 1.239 . S
O1022 Nd1000 2.487 . S
O1022 C1009 1.241 . S
O1023 Nd1000 2.682 . S
O1023 Nd1001 2.414 . S
O1023 C1009 1.273 . S
O1024 Nd1000 2.410 . S
O1024 C1010 1.251 . S
O1025 Nd1001 2.424 . S
O1025 C1010 1.268 . S
O1026 Nd1001 2.500 . S
O1026 C1011 1.258 . S
O1027 Nd1001 2.492 . S
O1027 C1011 1.239 . S
O1028 Nd1001 2.487 . S
O1028 C1018 1.241 . S
O1029 Nd1000 2.414 . S
O1029 Nd1001 2.682 . S
O1029 C1018 1.273 . S
O1030 Nd1001 2.410 . S
O1030 C1019 1.251 . S
O1031 Nd1000 2.424 . S
O1031 C1019 1.268 . S
H1032 C1004 0.930 . S
H1033 C1005 0.929 . S
H1034 C1007 0.930 . S
H1035 C1008 0.929 . S
H1036 C1013 0.930 . S
H1037 C1014 0.929 . S
H1038 C1016 0.930 . S
H1039 C1017 0.929 . S
Nd1040 C1042 2.836 . S
Nd1040 O1060 2.500 . S
Nd1040 O1061 2.492 . S
Nd1040 O1062 2.487 . S
Nd1040 O1063 2.682 . S
Nd1040 O1064 2.410 . S
Nd1040 O1069 2.414 . S
Nd1040 O1071 2.424 . S
Nd1041 C1051 2.836 . S
Nd1041 O1063 2.414 . S
Nd1041 O1065 2.424 . S
Nd1041 O1066 2.500 . S
Nd1041 O1067 2.492 . S
Nd1041 O1068 2.487 . S
Nd1041 O1069 2.682 . S
Nd1041 O1070 2.410 . S
C1042 Nd1040 2.836 . S
C1042 C1043 1.498 . S
C1042 O1060 1.258 . S
C1042 O1061 1.239 . S
C1043 C1042 1.498 . S
C1043 C1044 1.366 . S
C1043 C1048 1.407 . S
C1044 C1043 1.366 . S
C1044 C1045 1.392 . S
C1044 H1072 0.930 . S
C1045 C1044 1.392 . S
C1045 C1046 1.398 . S
C1045 H1073 0.929 . S
C1046 C1045 1.398 . S
C1046 C1047 1.352 . S
C1047 C1046 1.352 . S
C1047 C1048 1.384 . S
C1047 H1074 0.930 . S
C1048 C1043 1.407 . S
C1048 C1047 1.384 . S
C1048 H1075 0.929 . S
C1049 O1062 1.241 . S
C1049 O1063 1.273 . S
C1050 O1064 1.251 . S
C1050 O1065 1.268 . S
C1051 Nd1041 2.836 . S
C1051 C1052 1.498 . S
C1051 O1066 1.258 . S
C1051 O1067 1.239 . S
C1052 C1051 1.498 . S
C1052 C1053 1.366 . S
C1052 C1057 1.407 . S
C1053 C1052 1.366 . S
C1053 C1054 1.392 . S
C1053 H1076 0.930 . S
C1054 C1053 1.392 . S
C1054 C1055 1.398 . S
C1054 H1077 0.929 . S
C1055 C1054 1.398 . S
C1055 C1056 1.352 . S
C1056 C1055 1.352 . S
C1056 C1057 1.384 . S
C1056 H1078 0.930 . S
C1057 C1052 1.407 . S
C1057 C1056 1.384 . S
C1057 H1079 0.929 . S
C1058 O1068 1.241 . S
C1058 O1069 1.273 . S
C1059 O1070 1.251 . S
C1059 O1071 1.268 . S
O1060 Nd1040 2.500 . S
O1060 C1042 1.258 . S
O1061 Nd1040 2.492 . S
O1061 C1042 1.239 . S
O1062 Nd1040 2.487 . S
O1062 C1049 1.241 . S
O1063 Nd1040 2.682 . S
O1063 Nd1041 2.414 . S
O1063 C1049 1.273 . S
O1064 Nd1040 2.410 . S
O1064 C1050 1.251 . S
O1065 Nd1041 2.424 . S
O1065 C1050 1.268 . S
O1066 Nd1041 2.500 . S
O1066 C1051 1.258 . S
O1067 Nd1041 2.492 . S
O1067 C1051 1.239 . S
O1068 Nd1041 2.487 . S
O1068 C1058 1.241 . S
O1069 Nd1040 2.414 . S
O1069 Nd1041 2.682 . S
O1069 C1058 1.273 . S
O1070 Nd1041 2.410 . S
O1070 C1059 1.251 . S
O1071 Nd1040 2.424 . S
O1071 C1059 1.268 . S
H1072 C1044 0.930 . S
H1073 C1045 0.929 . S
H1074 C1047 0.930 . S
H1075 C1048 0.929 . S
H1076 C1053 0.930 . S
H1077 C1054 0.929 . S
H1078 C1056 0.930 . S
H1079 C1057 0.929 . S
Nd1080 C1082 2.836 . S
Nd1080 O1100 2.500 . S
Nd1080 O1101 2.492 . S
Nd1080 O1102 2.487 . S
Nd1080 O1103 2.682 1_556 S
Nd1080 O1104 2.410 . S
Nd1080 O1109 2.414 . S
Nd1080 O1111 2.424 . S
Nd1081 C1091 2.836 . S
Nd1081 O1103 2.414 . S
Nd1081 O1105 2.424 . S
Nd1081 O1106 2.500 . S
Nd1081 O1107 2.492 . S
Nd1081 O1108 2.487 . S
Nd1081 O1109 2.682 1_554 S
Nd1081 O1110 2.410 . S
C1082 Nd1080 2.836 . S
C1082 C1083 1.498 . S
C1082 O1100 1.258 . S
C1082 O1101 1.239 . S
C1083 C1082 1.498 . S
C1083 C1084 1.366 . S
C1083 C1088 1.407 . S
C1084 C1083 1.366 . S
C1084 C1085 1.392 . S
C1084 H1112 0.930 . S
C1085 C1084 1.392 . S
C1085 C1086 1.398 . S
C1085 H1113 0.929 . S
C1086 C1085 1.398 . S
C1086 C1087 1.352 . S
C1087 C1086 1.352 . S
C1087 C1088 1.384 . S
C1087 H1114 0.930 . S
C1088 C1083 1.407 . S
C1088 C1087 1.384 . S
C1088 H1115 0.929 . S
C1089 O1102 1.323 . S
C1089 O1103 1.234 1_556 S
C1090 O1104 1.251 . S
C1090 O1105 1.268 1_556 S
C1091 Nd1081 2.836 . S
C1091 C1092 1.498 . S
C1091 O1106 1.258 . S
C1091 O1107 1.239 . S
C1092 C1091 1.498 . S
C1092 C1093 1.366 . S
C1092 C1097 1.407 . S
C1093 C1092 1.366 . S
C1093 C1094 1.392 . S
C1093 H1116 0.930 . S
C1094 C1093 1.392 . S
C1094 C1095 1.398 . S
C1094 H1117 0.929 . S
C1095 C1094 1.398 . S
C1095 C1096 1.352 . S
C1096 C1095 1.352 . S
C1096 C1097 1.384 . S
C1096 H1118 0.930 . S
C1097 C1092 1.407 . S
C1097 C1096 1.384 . S
C1097 H1119 0.929 . S
C1098 O1108 1.241 . S
C1098 O1109 1.273 1_554 S
C1099 O1110 1.251 . S
C1099 O1111 1.268 1_554 S
O1100 Nd1080 2.500 . S
O1100 C1082 1.258 . S
O1101 Nd1080 2.492 . S
O1101 C1082 1.239 . S
O1102 Nd1080 2.487 . S
O1102 C1089 1.323 . S
O1103 Nd1080 2.682 1_554 S
O1103 Nd1081 2.414 . S
O1103 C1089 1.234 1_554 S
O1104 Nd1080 2.410 . S
O1104 C1090 1.251 . S
O1105 Nd1081 2.424 . S
O1105 C1090 1.268 1_554 S
O1106 Nd1081 2.500 . S
O1106 C1091 1.258 . S
O1107 Nd1081 2.492 . S
O1107 C1091 1.239 . S
O1108 Nd1081 2.487 . S
O1108 C1098 1.241 . S
O1109 Nd1080 2.414 . S
O1109 Nd1081 2.682 1_556 S
O1109 C1098 1.273 1_556 S
O1110 Nd1081 2.410 . S
O1110 C1099 1.251 . S
O1111 Nd1080 2.424 . S
O1111 C1099 1.268 1_556 S
H1112 C1084 0.930 . S
H1113 C1085 0.929 . S
H1114 C1087 0.930 . S
H1115 C1088 0.929 . S
H1116 C1093 0.930 . S
H1117 C1094 0.929 . S
H1118 C1096 0.930 . S
H1119 C1097 0.929 . S
Nd1120 C1122 2.836 . S
Nd1120 O1140 2.500 . S
Nd1120 O1141 2.492 . S
Nd1120 O1142 2.487 . S
Nd1120 O1143 2.682 1_556 S
Nd1120 O1144 2.410 . S
Nd1120 O1149 2.414 . S
Nd1120 O1151 2.424 . S
Nd1121 C1131 2.836 . S
Nd1121 O1143 2.414 . S
Nd1121 O1145 2.424 . S
Nd1121 O1146 2.500 . S
Nd1121 O1147 2.492 . S
Nd1121 O1148 2.487 . S
Nd1121 O1149 2.682 1_554 S
Nd1121 O1150 2.410 . S
C1122 Nd1120 2.836 . S
C1122 C1123 1.498 . S
C1122 O1140 1.258 . S
C1122 O1141 1.239 . S
C1123 C1122 1.498 . S
C1123 C1124 1.366 . S
C1123 C1128 1.407 . S
C1124 C1123 1.366 . S
C1124 C1125 1.392 . S
C1124 H1152 0.930 . S
C1125 C1124 1.392 . S
C1125 C1126 1.398 . S
C1125 H1153 0.929 . S
C1126 C1125 1.398 . S
C1126 C1127 1.352 . S
C1127 C1126 1.352 . S
C1127 C1128 1.384 . S
C1127 H1154 0.930 . S
C1128 C1123 1.407 . S
C1128 C1127 1.384 . S
C1128 H1155 0.929 . S
C1129 O1142 1.323 . S
C1129 O1143 1.234 1_556 S
C1130 O1144 1.251 . S
C1130 O1145 1.268 1_556 S
C1131 Nd1121 2.836 . S
C1131 C1132 1.498 . S
C1131 O1146 1.258 . S
C1131 O1147 1.239 . S
C1132 C1131 1.498 . S
C1132 C1133 1.366 . S
C1132 C1137 1.407 . S
C1133 C1132 1.366 . S
C1133 C1134 1.392 . S
C1133 H1156 0.930 . S
C1134 C1133 1.392 . S
C1134 C1135 1.398 . S
C1134 H1157 0.929 . S
C1135 C1134 1.398 . S
C1135 C1136 1.352 . S
C1136 C1135 1.352 . S
C1136 C1137 1.384 . S
C1136 H1158 0.930 . S
C1137 C1132 1.407 . S
C1137 C1136 1.384 . S
C1137 H1159 0.929 . S
C1138 O1148 1.241 . S
C1138 O1149 1.273 1_554 S
C1139 O1150 1.251 . S
C1139 O1151 1.268 1_554 S
O1140 Nd1120 2.500 . S
O1140 C1122 1.258 . S
O1141 Nd1120 2.492 . S
O1141 C1122 1.239 . S
O1142 Nd1120 2.487 . S
O1142 C1129 1.323 . S
O1143 Nd1120 2.682 1_554 S
O1143 Nd1121 2.414 . S
O1143 C1129 1.234 1_554 S
O1144 Nd1120 2.410 . S
O1144 C1130 1.251 . S
O1145 Nd1121 2.424 . S
O1145 C1130 1.268 1_554 S
O1146 Nd1121 2.500 . S
O1146 C1131 1.258 . S
O1147 Nd1121 2.492 . S
O1147 C1131 1.239 . S
O1148 Nd1121 2.487 . S
O1148 C1138 1.241 . S
O1149 Nd1120 2.414 . S
O1149 Nd1121 2.682 1_556 S
O1149 C1138 1.273 1_556 S
O1150 Nd1121 2.410 . S
O1150 C1139 1.251 . S
O1151 Nd1120 2.424 . S
O1151 C1139 1.268 1_556 S
H1152 C1124 0.930 . S
H1153 C1125 0.929 . S
H1154 C1127 0.930 . S
H1155 C1128 0.929 . S
H1156 C1133 0.930 . S
H1157 C1134 0.929 . S
H1158 C1136 0.930 . S
H1159 C1137 0.929 . S
Nd1160 C1162 2.836 . S
Nd1160 O1180 2.500 . S
Nd1160 O1181 2.492 . S
Nd1160 O1182 2.487 . S
Nd1160 O1183 2.682 1_556 S
Nd1160 O1184 2.410 . S
Nd1160 O1189 2.414 . S
Nd1160 O1191 2.424 . S
Nd1161 C1171 2.836 . S
Nd1161 O1183 2.414 . S
Nd1161 O1185 2.424 . S
Nd1161 O1186 2.500 . S
Nd1161 O1187 2.492 . S
Nd1161 O1188 2.487 . S
Nd1161 O1189 2.682 1_554 S
Nd1161 O1190 2.410 . S
C1162 Nd1160 2.836 . S
C1162 C1163 1.498 . S
C1162 O1180 1.258 . S
C1162 O1181 1.239 . S
C1163 C1162 1.498 . S
C1163 C1164 1.366 . S
C1163 C1168 1.407 . S
C1164 C1163 1.366 . S
C1164 C1165 1.392 . S
C1164 H1192 0.930 . S
C1165 C1164 1.392 . S
C1165 C1166 1.398 . S
C1165 H1193 0.929 . S
C1166 C1165 1.398 . S
C1166 C1167 1.352 . S
C1167 C1166 1.352 . S
C1167 C1168 1.384 . S
C1167 H1194 0.930 . S
C1168 C1163 1.407 . S
C1168 C1167 1.384 . S
C1168 H1195 0.929 . S
C1169 O1182 1.323 . S
C1169 O1183 1.234 1_556 S
C1170 O1184 1.251 . S
C1170 O1185 1.268 1_556 S
C1171 Nd1161 2.836 . S
C1171 C1172 1.498 . S
C1171 O1186 1.258 . S
C1171 O1187 1.239 . S
C1172 C1171 1.498 . S
C1172 C1173 1.366 . S
C1172 C1177 1.407 . S
C1173 C1172 1.366 . S
C1173 C1174 1.392 . S
C1173 H1196 0.930 . S
C1174 C1173 1.392 . S
C1174 C1175 1.398 . S
C1174 H1197 0.929 . S
C1175 C1174 1.398 . S
C1175 C1176 1.352 . S
C1176 C1175 1.352 . S
C1176 C1177 1.384 . S
C1176 H1198 0.930 . S
C1177 C1172 1.407 . S
C1177 C1176 1.384 . S
C1177 H1199 0.929 . S
C1178 O1188 1.241 . S
C1178 O1189 1.273 1_554 S
C1179 O1190 1.251 . S
C1179 O1191 1.268 1_554 S
O1180 Nd1160 2.500 . S
O1180 C1162 1.258 . S
O1181 Nd1160 2.492 . S
O1181 C1162 1.239 . S
O1182 Nd1160 2.487 . S
O1182 C1169 1.323 . S
O1183 Nd1160 2.682 1_554 S
O1183 Nd1161 2.414 . S
O1183 C1169 1.234 1_554 S
O1184 Nd1160 2.410 . S
O1184 C1170 1.251 . S
O1185 Nd1161 2.424 . S
O1185 C1170 1.268 1_554 S
O1186 Nd1161 2.500 . S
O1186 C1171 1.258 . S
O1187 Nd1161 2.492 . S
O1187 C1171 1.239 . S
O1188 Nd1161 2.487 . S
O1188 C1178 1.241 . S
O1189 Nd1160 2.414 . S
O1189 Nd1161 2.682 1_556 S
O1189 C1178 1.273 1_556 S
O1190 Nd1161 2.410 . S
O1190 C1179 1.251 . S
O1191 Nd1160 2.424 . S
O1191 C1179 1.268 1_556 S
H1192 C1164 0.930 . S
H1193 C1165 0.929 . S
H1194 C1167 0.930 . S
H1195 C1168 0.929 . S
H1196 C1173 0.930 . S
H1197 C1174 0.929 . S
H1198 C1176 0.930 . S
H1199 C1177 0.929 . S
Nd1200 C1202 2.836 . S
Nd1200 O1220 2.500 . S
Nd1200 O1221 2.492 . S
Nd1200 O1222 2.487 . S
Nd1200 O1223 2.682 . S
Nd1200 O1224 2.410 . S
Nd1200 O1229 2.414 . S
Nd1200 O1231 2.424 . S
Nd1201 C1211 2.836 . S
Nd1201 O1223 2.414 . S
Nd1201 O1225 2.424 . S
Nd1201 O1226 2.500 . S
Nd1201 O1227 2.492 . S
Nd1201 O1228 2.487 . S
Nd1201 O1229 2.682 . S
Nd1201 O1230 2.410 . S
C1202 Nd1200 2.836 . S
C1202 C1203 1.498 . S
C1202 O1220 1.258 . S
C1202 O1221 1.239 . S
C1203 C1202 1.498 . S
C1203 C1204 1.366 . S
C1203 C1208 1.407 . S
C1204 C1203 1.366 . S
C1204 C1205 1.392 . S
C1204 H1232 0.930 . S
C1205 C1204 1.392 . S
C1205 C1206 1.398 . S
C1205 H1233 0.929 . S
C1206 C1205 1.398 . S
C1206 C1207 1.352 . S
C1207 C1206 1.352 . S
C1207 C1208 1.384 . S
C1207 H1234 0.930 . S
C1208 C1203 1.407 . S
C1208 C1207 1.384 . S
C1208 H1235 0.929 . S
C1209 O1222 1.241 . S
C1209 O1223 1.273 . S
C1210 O1224 1.251 . S
C1210 O1225 1.268 . S
C1211 Nd1201 2.836 . S
C1211 C1212 1.498 . S
C1211 O1226 1.258 . S
C1211 O1227 1.239 . S
C1212 C1211 1.498 . S
C1212 C1213 1.366 . S
C1212 C1217 1.407 1_455 S
C1213 C1212 1.366 . S
C1213 C1214 1.392 1_455 S
C1213 H1236 0.930 . S
C1214 C1213 1.392 1_655 S
C1214 C1215 1.398 . S
C1214 H1237 0.929 . S
C1215 C1214 1.398 . S
C1215 C1216 1.352 . S
C1216 C1215 1.352 . S
C1216 C1217 1.384 . S
C1216 H1238 0.930 . S
C1217 C1212 1.407 1_655 S
C1217 C1216 1.384 . S
C1217 H1239 0.929 . S
C1218 O1228 1.241 . S
C1218 O1229 1.273 . S
C1219 O1230 1.251 . S
C1219 O1231 1.268 . S
O1220 Nd1200 2.500 . S
O1220 C1202 1.258 . S
O1221 Nd1200 2.492 . S
O1221 C1202 1.239 . S
O1222 Nd1200 2.487 . S
O1222 C1209 1.241 . S
O1223 Nd1200 2.682 . S
O1223 Nd1201 2.414 . S
O1223 C1209 1.273 . S
O1224 Nd1200 2.410 . S
O1224 C1210 1.251 . S
O1225 Nd1201 2.424 . S
O1225 C1210 1.268 . S
O1226 Nd1201 2.500 . S
O1226 C1211 1.258 . S
O1227 Nd1201 2.492 . S
O1227 C1211 1.239 . S
O1228 Nd1201 2.487 . S
O1228 C1218 1.241 . S
O1229 Nd1200 2.414 . S
O1229 Nd1201 2.682 . S
O1229 C1218 1.273 . S
O1230 Nd1201 2.410 . S
O1230 C1219 1.251 . S
O1231 Nd1200 2.424 . S
O1231 C1219 1.268 . S
H1232 C1204 0.930 . S
H1233 C1205 0.929 . S
H1234 C1207 0.930 . S
H1235 C1208 0.929 . S
H1236 C1213 0.930 . S
H1237 C1214 0.929 . S
H1238 C1216 0.930 . S
H1239 C1217 0.929 . S
Nd1240 C1242 2.836 . S
Nd1240 O1260 2.500 . S
Nd1240 O1261 2.492 . S
Nd1240 O1262 2.487 . S
Nd1240 O1263 2.682 . S
Nd1240 O1264 2.410 . S
Nd1240 O1269 2.414 . S
Nd1240 O1271 2.424 . S
Nd1241 C1251 2.836 . S
Nd1241 O1263 2.414 . S
Nd1241 O1265 2.424 . S
Nd1241 O1266 2.500 . S
Nd1241 O1267 2.492 . S
Nd1241 O1268 2.487 . S
Nd1241 O1269 2.682 . S
Nd1241 O1270 2.410 . S
C1242 Nd1240 2.836 . S
C1242 C1243 1.498 . S
C1242 O1260 1.258 . S
C1242 O1261 1.239 . S
C1243 C1242 1.498 . S
C1243 C1244 1.366 . S
C1243 C1248 1.407 . S
C1244 C1243 1.366 . S
C1244 C1245 1.392 . S
C1244 H1272 0.930 . S
C1245 C1244 1.392 . S
C1245 C1246 1.398 . S
C1245 H1273 0.929 . S
C1246 C1245 1.398 . S
C1246 C1247 1.352 . S
C1247 C1246 1.352 . S
C1247 C1248 1.384 . S
C1247 H1274 0.930 . S
C1248 C1243 1.407 . S
C1248 C1247 1.384 . S
C1248 H1275 0.929 . S
C1249 O1262 1.241 . S
C1249 O1263 1.273 . S
C1250 O1264 1.251 . S
C1250 O1265 1.268 . S
C1251 Nd1241 2.836 . S
C1251 C1252 1.498 . S
C1251 O1266 1.258 . S
C1251 O1267 1.239 . S
C1252 C1251 1.498 . S
C1252 C1253 1.366 . S
C1252 C1257 1.407 . S
C1253 C1252 1.366 . S
C1253 C1254 1.392 . S
C1253 H1276 0.930 . S
C1254 C1253 1.392 . S
C1254 C1255 1.398 . S
C1254 H1277 0.929 . S
C1255 C1254 1.398 . S
C1255 C1256 1.352 . S
C1256 C1255 1.352 . S
C1256 C1257 1.384 . S
C1256 H1278 0.930 . S
C1257 C1252 1.407 . S
C1257 C1256 1.384 . S
C1257 H1279 0.929 . S
C1258 O1268 1.241 . S
C1258 O1269 1.273 . S
C1259 O1270 1.251 . S
C1259 O1271 1.268 . S
O1260 Nd1240 2.500 . S
O1260 C1242 1.258 . S
O1261 Nd1240 2.492 . S
O1261 C1242 1.239 . S
O1262 Nd1240 2.487 . S
O1262 C1249 1.241 . S
O1263 Nd1240 2.682 . S
O1263 Nd1241 2.414 . S
O1263 C1249 1.273 . S
O1264 Nd1240 2.410 . S
O1264 C1250 1.251 . S
O1265 Nd1241 2.424 . S
O1265 C1250 1.268 . S
O1266 Nd1241 2.500 . S
O1266 C1251 1.258 . S
O1267 Nd1241 2.492 . S
O1267 C1251 1.239 . S
O1268 Nd1241 2.487 . S
O1268 C1258 1.241 . S
O1269 Nd1240 2.414 . S
O1269 Nd1241 2.682 . S
O1269 C1258 1.273 . S
O1270 Nd1241 2.410 . S
O1270 C1259 1.251 . S
O1271 Nd1240 2.424 . S
O1271 C1259 1.268 . S
H1272 C1244 0.930 . S
H1273 C1245 0.929 . S
H1274 C1247 0.930 . S
H1275 C1248 0.929 . S
H1276 C1253 0.930 . S
H1277 C1254 0.929 . S
H1278 C1256 0.930 . S
H1279 C1257 0.929 . S
Nd1280 C1282 2.836 . S
Nd1280 O1300 2.500 . S
Nd1280 O1301 2.492 . S
Nd1280 O1302 2.487 . S
Nd1280 O1303 2.682 . S
Nd1280 O1304 2.410 . S
Nd1280 O1309 2.414 . S
Nd1280 O1311 2.424 . S
Nd1281 C1291 2.836 . S
Nd1281 O1303 2.414 . S
Nd1281 O1305 2.424 . S
Nd1281 O1306 2.500 . S
Nd1281 O1307 2.492 . S
Nd1281 O1308 2.487 . S
Nd1281 O1309 2.682 . S
Nd1281 O1310 2.410 . S
C1282 Nd1280 2.836 . S
C1282 C1283 1.498 . S
C1282 O1300 1.258 . S
C1282 O1301 1.239 . S
C1283 C1282 1.498 . S
C1283 C1284 1.366 . S
C1283 C1288 1.407 . S
C1284 C1283 1.366 . S
C1284 C1285 1.392 . S
C1284 H1312 0.930 . S
C1285 C1284 1.392 . S
C1285 C1286 1.398 . S
C1285 H1313 0.929 . S
C1286 C1285 1.398 . S
C1286 C1287 1.352 . S
C1287 C1286 1.352 . S
C1287 C1288 1.384 . S
C1287 H1314 0.930 . S
C1288 C1283 1.407 . S
C1288 C1287 1.384 . S
C1288 H1315 0.929 . S
C1289 O1302 1.241 . S
C1289 O1303 1.273 . S
C1290 O1304 1.251 . S
C1290 O1305 1.268 . S
C1291 Nd1281 2.836 . S
C1291 C1292 1.498 . S
C1291 O1306 1.258 . S
C1291 O1307 1.239 . S
C1292 C1291 1.498 . S
C1292 C1293 1.366 . S
C1292 C1297 1.407 1_565 S
C1293 C1292 1.366 . S
C1293 C1294 1.392 1_565 S
C1293 H1316 0.930 . S
C1294 C1293 1.392 1_545 S
C1294 C1295 1.398 . S
C1294 H1317 0.929 . S
C1295 C1294 1.398 . S
C1295 C1296 1.352 . S
C1296 C1295 1.352 . S
C1296 C1297 1.384 . S
C1296 H1318 0.930 . S
C1297 C1292 1.407 1_545 S
C1297 C1296 1.384 . S
C1297 H1319 0.929 . S
C1298 O1308 1.241 . S
C1298 O1309 1.273 . S
C1299 O1310 1.251 . S
C1299 O1311 1.268 . S
O1300 Nd1280 2.500 . S
O1300 C1282 1.258 . S
O1301 Nd1280 2.492 . S
O1301 C1282 1.239 . S
O1302 Nd1280 2.487 . S
O1302 C1289 1.241 . S
O1303 Nd1280 2.682 . S
O1303 Nd1281 2.414 . S
O1303 C1289 1.273 . S
O1304 Nd1280 2.410 . S
O1304 C1290 1.251 . S
O1305 Nd1281 2.424 . S
O1305 C1290 1.268 . S
O1306 Nd1281 2.500 . S
O1306 C1291 1.258 . S
O1307 Nd1281 2.492 . S
O1307 C1291 1.239 . S
O1308 Nd1281 2.487 . S
O1308 C1298 1.241 . S
O1309 Nd1280 2.414 . S
O1309 Nd1281 2.682 . S
O1309 C1298 1.273 . S
O1310 Nd1281 2.410 . S
O1310 C1299 1.251 . S
O1311 Nd1280 2.424 . S
O1311 C1299 1.268 . S
H1312 C1284 0.930 . S
H1313 C1285 0.929 . S
H1314 C1287 0.930 . S
H1315 C1288 0.929 . S
H1316 C1293 0.930 . S
H1317 C1294 0.929 . S
H1318 C1296 0.930 . S
H1319 C1297 0.929 . S
Nd1320 C1322 2.836 . S
Nd1320 O1340 2.500 . S
Nd1320 O1341 2.492 . S
Nd1320 O1342 2.487 . S
Nd1320 O1343 2.682 . S
Nd1320 O1344 2.410 . S
Nd1320 O1349 2.414 . S
Nd1320 O1351 2.424 . S
Nd1321 C1331 2.836 . S
Nd1321 O1343 2.414 . S
Nd1321 O1345 2.424 . S
Nd1321 O1346 2.500 . S
Nd1321 O1347 2.492 . S
Nd1321 O1348 2.487 . S
Nd1321 O1349 2.682 . S
Nd1321 O1350 2.410 . S
C1322 Nd1320 2.836 . S
C1322 C1323 1.498 . S
C1322 O1340 1.258 . S
C1322 O1341 1.239 . S
C1323 C1322 1.498 . S
C1323 C1324 1.366 . S
C1323 C1328 1.407 . S
C1324 C1323 1.366 . S
C1324 C1325 1.392 1_455 S
C1324 H1352 0.930 1_455 S
C1325 C1324 1.392 1_655 S
C1325 C1326 1.398 1_655 S
C1325 H1353 0.929 . S
C1326 C1325 1.398 1_455 S
C1326 C1327 1.352 . S
C1327 C1326 1.352 . S
C1327 C1328 1.384 . S
C1327 H1354 0.930 . S
C1328 C1323 1.407 . S
C1328 C1327 1.384 . S
C1328 H1355 0.929 . S
C1329 O1342 1.241 . S
C1329 O1343 1.273 . S
C1330 O1344 1.251 . S
C1330 O1345 1.268 . S
C1331 Nd1321 2.836 . S
C1331 C1332 1.498 . S
C1331 O1346 1.258 . S
C1331 O1347 1.239 . S
C1332 C1331 1.498 . S
C1332 C1333 1.366 . S
C1332 C1337 1.407 . S
C1333 C1332 1.366 . S
C1333 C1334 1.392 . S
C1333 H1356 0.930 . S
C1334 C1333 1.392 . S
C1334 C1335 1.398 . S
C1334 H1357 0.929 . S
C1335 C1334 1.398 . S
C1335 C1336 1.352 . S
C1336 C1335 1.352 . S
C1336 C1337 1.384 . S
C1336 H1358 0.930 . S
C1337 C1332 1.407 . S
C1337 C1336 1.384 . S
C1337 H1359 0.929 . S
C1338 O1348 1.241 . S
C1338 O1349 1.273 . S
C1339 O1350 1.251 . S
C1339 O1351 1.268 . S
O1340 Nd1320 2.500 . S
O1340 C1322 1.258 . S
O1341 Nd1320 2.492 . S
O1341 C1322 1.239 . S
O1342 Nd1320 2.487 . S
O1342 C1329 1.241 . S
O1343 Nd1320 2.682 . S
O1343 Nd1321 2.414 . S
O1343 C1329 1.273 . S
O1344 Nd1320 2.410 . S
O1344 C1330 1.251 . S
O1345 Nd1321 2.424 . S
O1345 C1330 1.268 . S
O1346 Nd1321 2.500 . S
O1346 C1331 1.258 . S
O1347 Nd1321 2.492 . S
O1347 C1331 1.239 . S
O1348 Nd1321 2.487 . S
O1348 C1338 1.241 . S
O1349 Nd1320 2.414 . S
O1349 Nd1321 2.682 . S
O1349 C1338 1.273 . S
O1350 Nd1321 2.410 . S
O1350 C1339 1.251 . S
O1351 Nd1320 2.424 . S
O1351 C1339 1.268 . S
H1352 C1324 0.930 1_655 S
H1353 C1325 0.929 . S
H1354 C1327 0.930 . S
H1355 C1328 0.929 . S
H1356 C1333 0.930 . S
H1357 C1334 0.929 . S
H1358 C1336 0.930 . S
H1359 C1337 0.929 . S
Nd1360 C1362 2.836 . S
Nd1360 O1380 2.500 . S
Nd1360 O1381 2.492 . S
Nd1360 O1382 2.487 . S
Nd1360 O1383 2.682 . S
Nd1360 O1384 2.410 . S
Nd1360 O1389 2.414 . S
Nd1360 O1391 2.424 . S
Nd1361 C1371 2.836 . S
Nd1361 O1383 2.414 . S
Nd1361 O1385 2.424 . S
Nd1361 O1386 2.500 . S
Nd1361 O1387 2.492 . S
Nd1361 O1388 2.487 . S
Nd1361 O1389 2.682 . S
Nd1361 O1390 2.410 . S
C1362 Nd1360 2.836 . S
C1362 C1363 1.498 . S
C1362 O1380 1.258 . S
C1362 O1381 1.239 . S
C1363 C1362 1.498 . S
C1363 C1364 1.366 . S
C1363 C1368 1.407 . S
C1364 C1363 1.366 . S
C1364 C1365 1.392 . S
C1364 H1392 0.930 . S
C1365 C1364 1.392 . S
C1365 C1366 1.398 . S
C1365 H1393 0.929 . S
C1366 C1365 1.398 . S
C1366 C1367 1.352 . S
C1367 C1366 1.352 . S
C1367 C1368 1.384 . S
C1367 H1394 0.930 . S
C1368 C1363 1.407 . S
C1368 C1367 1.384 . S
C1368 H1395 0.929 . S
C1369 O1382 1.241 . S
C1369 O1383 1.273 . S
C1370 O1384 1.251 . S
C1370 O1385 1.268 . S
C1371 Nd1361 2.836 . S
C1371 C1372 1.498 . S
C1371 O1386 1.258 . S
C1371 O1387 1.239 . S
C1372 C1371 1.498 . S
C1372 C1373 1.366 . S
C1372 C1377 1.407 . S
C1373 C1372 1.366 . S
C1373 C1374 1.392 . S
C1373 H1396 0.930 . S
C1374 C1373 1.392 . S
C1374 C1375 1.398 . S
C1374 H1397 0.929 . S
C1375 C1374 1.398 . S
C1375 C1376 1.352 . S
C1376 C1375 1.352 . S
C1376 C1377 1.384 . S
C1376 H1398 0.930 . S
C1377 C1372 1.407 . S
C1377 C1376 1.384 . S
C1377 H1399 0.929 . S
C1378 O1388 1.241 . S
C1378 O1389 1.273 . S
C1379 O1390 1.251 . S
C1379 O1391 1.268 . S
O1380 Nd1360 2.500 . S
O1380 C1362 1.258 . S
O1381 Nd1360 2.492 . S
O1381 C1362 1.239 . S
O1382 Nd1360 2.487 . S
O1382 C1369 1.241 . S
O1383 Nd1360 2.682 . S
O1383 Nd1361 2.414 . S
O1383 C1369 1.273 . S
O1384 Nd1360 2.410 . S
O1384 C1370 1.251 . S
O1385 Nd1361 2.424 . S
O1385 C1370 1.268 . S
O1386 Nd1361 2.500 . S
O1386 C1371 1.258 . S
O1387 Nd1361 2.492 . S
O1387 C1371 1.239 . S
O1388 Nd1361 2.487 . S
O1388 C1378 1.241 . S
O1389 Nd1360 2.414 . S
O1389 Nd1361 2.682 . S
O1389 C1378 1.273 . S
O1390 Nd1361 2.410 . S
O1390 C1379 1.251 . S
O1391 Nd1360 2.424 . S
O1391 C1379 1.268 . S
H1392 C1364 0.930 . S
H1393 C1365 0.929 . S
H1394 C1367 0.930 . S
H1395 C1368 0.929 . S
H1396 C1373 0.930 . S
H1397 C1374 0.929 . S
H1398 C1376 0.930 . S
H1399 C1377 0.929 . S
Nd1400 C1402 2.836 . S
Nd1400 O1420 2.500 . S
Nd1400 O1421 2.492 . S
Nd1400 O1422 2.487 . S
Nd1400 O1423 2.682 . S
Nd1400 O1424 2.410 . S
Nd1400 O1429 2.414 . S
Nd1400 O1431 2.424 . S
Nd1401 C1411 2.836 . S
Nd1401 O1423 2.414 . S
Nd1401 O1425 2.424 . S
Nd1401 O1426 2.500 . S
Nd1401 O1427 2.492 . S
Nd1401 O1428 2.487 . S
Nd1401 O1429 2.682 . S
Nd1401 O1430 2.410 . S
C1402 Nd1400 2.836 . S
C1402 C1403 1.498 . S
C1402 O1420 1.258 . S
C1402 O1421 1.239 . S
C1403 C1402 1.498 . S
C1403 C1404 1.366 . S
C1403 C1408 1.407 . S
C1404 C1403 1.366 . S
C1404 C1405 1.392 1_565 S
C1404 H1432 0.930 1_565 S
C1405 C1404 1.392 1_545 S
C1405 C1406 1.398 1_545 S
C1405 H1433 0.929 . S
C1406 C1405 1.398 1_565 S
C1406 C1407 1.352 . S
C1407 C1406 1.352 . S
C1407 C1408 1.384 . S
C1407 H1434 0.930 . S
C1408 C1403 1.407 . S
C1408 C1407 1.384 . S
C1408 H1435 0.929 . S
C1409 O1422 1.241 . S
C1409 O1423 1.273 . S
C1410 O1424 1.251 . S
C1410 O1425 1.268 . S
C1411 Nd1401 2.836 . S
C1411 C1412 1.498 . S
C1411 O1426 1.258 . S
C1411 O1427 1.239 . S
C1412 C1411 1.498 . S
C1412 C1413 1.366 . S
C1412 C1417 1.407 . S
C1413 C1412 1.366 . S
C1413 C1414 1.392 . S
C1413 H1436 0.930 . S
C1414 C1413 1.392 . S
C1414 C1415 1.398 . S
C1414 H1437 0.929 . S
C1415 C1414 1.398 . S
C1415 C1416 1.352 . S
C1416 C1415 1.352 . S
C1416 C1417 1.384 . S
C1416 H1438 0.930 . S
C1417 C1412 1.407 . S
C1417 C1416 1.384 . S
C1417 H1439 0.929 . S
C1418 O1428 1.241 . S
C1418 O1429 1.273 . S
C1419 O1430 1.251 . S
C1419 O1431 1.268 . S
O1420 Nd1400 2.500 . S
O1420 C1402 1.258 . S
O1421 Nd1400 2.492 . S
O1421 C1402 1.239 . S
O1422 Nd1400 2.487 . S
O1422 C1409 1.241 . S
O1423 Nd1400 2.682 . S
O1423 Nd1401 2.414 . S
O1423 C1409 1.273 . S
O1424 Nd1400 2.410 . S
O1424 C1410 1.251 . S
O1425 Nd1401 2.424 . S
O1425 C1410 1.268 . S
O1426 Nd1401 2.500 . S
O1426 C1411 1.258 . S
O1427 Nd1401 2.492 . S
O1427 C1411 1.239 . S
O1428 Nd1401 2.487 . S
O1428 C1418 1.241 . S
O1429 Nd1400 2.414 . S
O1429 Nd1401 2.682 . S
O1429 C1418 1.273 . S
O1430 Nd1401 2.410 . S
O1430 C1419 1.251 . S
O1431 Nd1400 2.424 . S
O1431 C1419 1.268 . S
H1432 C1404 0.930 1_545 S
H1433 C1405 0.929 . S
H1434 C1407 0.930 . S
H1435 C1408 0.929 . S
H1436 C1413 0.930 . S
H1437 C1414 0.929 . S
H1438 C1416 0.930 . S
H1439 C1417 0.929 . S
C1440 C1441 1.369 . S
C1440 C1442 1.419 . S
C1440 H1444 0.930 . S
C1441 C1440 1.369 . S
C1441 C1450 1.429 . S
C1442 C1440 1.419 . S
C1442 C1443 1.363 . S
C1442 H1445 0.929 . S
C1443 C1442 1.363 . S
C1443 C1449 1.428 . S
H1444 C1440 0.930 . S
H1445 C1442 0.929 . S
S1446 N1447 1.613 . S
S1446 N1448 1.610 . S
N1447 S1446 1.613 . S
N1447 C1450 1.350 . S
N1448 S1446 1.610 . S
N1448 C1449 1.351 . S
C1449 C1443 1.428 . S
C1449 N1448 1.351 . S
C1449 C1450 1.434 . S
C1450 C1441 1.429 . S
C1450 N1447 1.350 . S
C1450 C1449 1.434 . S
C1451 C1452 1.369 . S
C1451 C1453 1.419 . S
C1451 H1455 0.930 . S
C1452 C1451 1.369 . S
C1452 C1461 1.429 . S
C1453 C1451 1.419 . S
C1453 C1454 1.363 1_545 S
C1453 H1456 0.929 1_545 S
C1454 C1453 1.363 1_565 S
C1454 C1460 1.428 . S
H1455 C1451 0.930 . S
H1456 C1453 0.929 1_565 S
S1457 N1458 1.613 1_565 S
S1457 N1459 1.610 . S
N1458 S1457 1.613 1_545 S
N1458 C1461 1.350 . S
N1459 S1457 1.610 . S
N1459 C1460 1.351 . S
C1460 C1454 1.428 . S
C1460 N1459 1.351 . S
C1460 C1461 1.434 1_565 S
C1461 C1452 1.429 . S
C1461 N1458 1.350 . S
C1461 C1460 1.434 1_545 S
C1462 C1463 1.369 . S
C1462 C1464 1.419 1_455 S
C1462 H1466 0.930 . S
C1463 C1462 1.369 . S
C1463 C1472 1.429 1_455 S
C1464 C1462 1.419 1_655 S
C1464 C1465 1.363 . S
C1464 H1467 0.929 . S
C1465 C1464 1.363 . S
C1465 C1471 1.428 . S
H1466 C1462 0.930 . S
H1467 C1464 0.929 . S
S1468 N1469 1.613 . S
S1468 N1470 1.610 . S
N1469 S1468 1.613 . S
N1469 C1472 1.350 . S
N1470 S1468 1.610 . S
N1470 C1471 1.351 . S
C1471 C1465 1.428 . S
C1471 N1470 1.351 . S
C1471 C1472 1.434 . S
C1472 C1463 1.429 1_655 S
C1472 N1469 1.350 . S
C1472 C1471 1.434 . S
C1473 C1474 1.369 . S
C1473 C1475 1.419 . S
C1473 H1477 0.930 . S
C1474 C1473 1.369 . S
C1474 C1483 1.429 . S
C1475 C1473 1.419 . S
C1475 C1476 1.363 . S
C1475 H1478 0.929 . S
C1476 C1475 1.363 . S
C1476 C1482 1.428 . S
H1477 C1473 0.930 . S
H1478 C1475 0.929 . S
S1479 N1480 1.613 . S
S1479 N1481 1.633 . S
N1480 S1479 1.613 . S
N1480 C1483 1.350 . S
N1481 S1479 1.633 . S
N1481 C1482 1.361 . S
C1482 C1476 1.428 . S
C1482 N1481 1.361 . S
C1482 C1483 1.434 . S
C1483 C1474 1.429 . S
C1483 N1480 1.350 . S
C1483 C1482 1.434 . S
C1484 C1485 1.369 . S
C1484 C1486 1.419 . S
C1484 H1488 0.930 . S
C1485 C1484 1.369 . S
C1485 C1494 1.429 . S
C1486 C1484 1.419 . S
C1486 C1487 1.363 . S
C1486 H1489 0.929 . S
C1487 C1486 1.363 . S
C1487 C1493 1.428 . S
H1488 C1484 0.930 . S
H1489 C1486 0.929 . S
S1490 N1491 1.613 . S
S1490 N1492 1.610 . S
N1491 S1490 1.613 . S
N1491 C1494 1.350 . S
N1492 S1490 1.610 . S
N1492 C1493 1.351 . S
C1493 C1487 1.428 . S
C1493 N1492 1.351 . S
C1493 C1494 1.434 . S
C1494 C1485 1.429 . S
C1494 N1491 1.350 . S
C1494 C1493 1.434 . S
C1495 C1496 1.369 . S
C1495 C1497 1.419 . S
C1495 H1499 0.930 . S
C1496 C1495 1.369 . S
C1496 C1505 1.429 . S
C1497 C1495 1.419 . S
C1497 C1498 1.363 . S
C1497 H1500 0.929 . S
C1498 C1497 1.363 . S
C1498 C1504 1.428 . S
H1499 C1495 0.930 . S
H1500 C1497 0.929 . S
S1501 N1502 1.613 . S
S1501 N1503 1.610 . S
N1502 S1501 1.613 . S
N1502 C1505 1.350 . S
N1503 S1501 1.610 . S
N1503 C1504 1.351 . S
C1504 C1498 1.428 . S
C1504 N1503 1.351 . S
C1504 C1505 1.434 . S
C1505 C1496 1.429 . S
C1505 N1502 1.350 . S
C1505 C1504 1.434 . S
C1506 C1507 1.369 . S
C1506 C1508 1.419 . S
C1506 H1510 0.930 . S
C1507 C1506 1.369 . S
C1507 C1516 1.429 . S
C1508 C1506 1.419 . S
C1508 C1509 1.363 . S
C1508 H1511 0.929 . S
C1509 C1508 1.363 . S
C1509 C1515 1.428 . S
H1510 C1506 0.930 . S
H1511 C1508 0.929 . S
S1512 N1513 1.613 . S
S1512 N1514 1.610 . S
N1513 S1512 1.613 . S
N1513 C1516 1.350 . S
N1514 S1512 1.610 . S
N1514 C1515 1.351 . S
C1515 C1509 1.428 . S
C1515 N1514 1.351 . S
C1515 C1516 1.434 . S
C1516 C1507 1.429 . S
C1516 N1513 1.350 . S
C1516 C1515 1.434 . S
C1517 C1518 1.369 1_565 S
C1517 C1519 1.419 . S
C1517 H1521 0.930 . S
C1518 C1517 1.369 1_545 S
C1518 C1527 1.429 . S
C1519 C1517 1.419 . S
C1519 C1520 1.363 . S
C1519 H1522 0.929 . S
C1520 C1519 1.363 . S
C1520 C1526 1.428 . S
H1521 C1517 0.930 . S
H1522 C1519 0.929 . S
S1523 N1524 1.613 . S
S1523 N1525 1.610 1_545 S
N1524 S1523 1.613 . S
N1524 C1527 1.350 . S
N1525 S1523 1.610 1_565 S
N1525 C1526 1.351 . S
C1526 C1520 1.428 . S
C1526 N1525 1.351 . S
C1526 C1527 1.434 1_565 S
C1527 C1518 1.429 . S
C1527 N1524 1.350 . S
C1527 C1526 1.434 1_545 S
C1528 C1529 1.371 . S
C1528 C1530 1.411 1_655 S
C1528 H1532 0.936 . S
C1529 C1528 1.371 . S
C1529 C1538 1.429 . S
C1530 C1528 1.411 1_455 S
C1530 C1531 1.363 . S
C1530 H1533 0.929 . S
C1531 C1530 1.363 . S
C1531 C1537 1.428 . S
H1532 C1528 0.936 . S
H1533 C1530 0.929 . S
S1534 N1535 1.613 1_455 S
S1534 N1536 1.610 . S
N1535 S1534 1.613 1_655 S
N1535 C1538 1.350 . S
N1536 S1534 1.610 . S
N1536 C1537 1.351 . S
C1537 C1531 1.428 . S
C1537 N1536 1.351 . S
C1537 C1538 1.434 1_455 S
C1538 C1529 1.429 . S
C1538 N1535 1.350 . S
C1538 C1537 1.434 1_655 S
C1539 C1540 1.369 . S
C1539 C1541 1.419 . S
C1539 H1543 0.930 . S
C1540 C1539 1.369 . S
C1540 C1549 1.429 . S
C1541 C1539 1.419 . S
C1541 C1542 1.363 . S
C1541 H1544 0.929 . S
C1542 C1541 1.363 . S
C1542 C1548 1.428 . S
H1543 C1539 0.930 . S
H1544 C1541 0.929 . S
S1545 N1546 1.613 . S
S1545 N1547 1.610 . S
N1546 S1545 1.613 . S
N1546 C1549 1.350 . S
N1547 S1545 1.610 . S
N1547 C1548 1.351 . S
C1548 C1542 1.428 . S
C1548 N1547 1.351 . S
C1548 C1549 1.434 . S
C1549 C1540 1.429 . S
C1549 N1546 1.350 . S
C1549 C1548 1.434 . S
C1550 C1551 1.369 . S
C1550 C1552 1.419 . S
C1550 H1554 0.930 . S
C1551 C1550 1.369 . S
C1551 C1560 1.429 . S
C1552 C1550 1.419 . S
C1552 C1553 1.363 . S
C1552 H1555 0.929 . S
C1553 C1552 1.363 . S
C1553 C1559 1.428 . S
H1554 C1550 0.930 . S
H1555 C1552 0.929 . S
S1556 N1557 1.613 . S
S1556 N1558 1.610 1_545 S
N1557 S1556 1.613 . S
N1557 C1560 1.350 . S
N1558 S1556 1.610 1_565 S
N1558 C1559 1.351 1_565 S
C1559 C1553 1.428 . S
C1559 N1558 1.351 1_545 S
C1559 C1560 1.434 . S
C1560 C1551 1.429 . S
C1560 N1557 1.350 . S
C1560 C1559 1.434 . S
C1561 C1562 1.369 . S
C1561 C1563 1.419 . S
C1561 H1565 0.930 . S
C1562 C1561 1.369 . S
C1562 C1571 1.429 . S
C1563 C1561 1.419 . S
C1563 C1564 1.363 . S
C1563 H1566 0.929 . S
C1564 C1563 1.363 . S
C1564 C1570 1.428 . S
H1565 C1561 0.930 . S
H1566 C1563 0.929 . S
S1567 N1568 1.613 . S
S1567 N1569 1.610 1_655 S
N1568 S1567 1.613 . S
N1568 C1571 1.350 . S
N1569 S1567 1.610 1_455 S
N1569 C1570 1.351 1_455 S
C1570 C1564 1.428 . S
C1570 N1569 1.351 1_655 S
C1570 C1571 1.434 . S
C1571 C1562 1.429 . S
C1571 N1568 1.350 . S
C1571 C1570 1.434 . S
C1572 C1573 1.369 . S
C1572 C1574 1.419 . S
C1572 H1576 0.930 . S
C1573 C1572 1.369 . S
C1573 C1582 1.429 . S
C1574 C1572 1.419 . S
C1574 C1575 1.363 . S
C1574 H1577 0.929 . S
C1575 C1574 1.363 . S
C1575 C1581 1.428 . S
H1576 C1572 0.930 . S
H1577 C1574 0.929 . S
S1578 N1579 1.613 . S
S1578 N1580 1.610 . S
N1579 S1578 1.613 . S
N1579 C1582 1.350 . S
N1580 S1578 1.610 . S
N1580 C1581 1.351 . S
C1581 C1575 1.428 . S
C1581 N1580 1.351 . S
C1581 C1582 1.434 . S
C1582 C1573 1.429 . S
C1582 N1579 1.350 . S
C1582 C1581 1.434 . S
C1583 C1584 1.369 . S
C1583 C1585 1.419 . S
C1583 H1587 0.930 . S
C1584 C1583 1.369 . S
C1584 C1593 1.429 . S
C1585 C1583 1.419 . S
C1585 C1586 1.363 . S
C1585 H1588 0.929 . S
C1586 C1585 1.363 . S
C1586 C1592 1.428 . S
H1587 C1583 0.930 . S
H1588 C1585 0.929 . S
S1589 N1590 1.613 . S
S1589 N1591 1.610 . S
N1590 S1589 1.613 . S
N1590 C1593 1.350 . S
N1591 S1589 1.610 . S
N1591 C1592 1.351 . S
C1592 C1586 1.428 . S
C1592 N1591 1.351 . S
C1592 C1593 1.434 . S
C1593 C1584 1.429 . S
C1593 N1590 1.350 . S
C1593 C1592 1.434 . S
C1594 C1595 1.369 . S
C1594 C1596 1.419 . S
C1594 H1598 0.930 . S
C1595 C1594 1.369 . S
C1595 C1604 1.429 . S
C1596 C1594 1.419 . S
C1596 C1597 1.363 . S
C1596 H1599 0.929 . S
C1597 C1596 1.363 . S
C1597 C1603 1.428 . S
H1598 C1594 0.930 . S
H1599 C1596 0.929 . S
S1600 N1601 1.613 . S
S1600 N1602 1.610 . S
N1601 S1600 1.613 . S
N1601 C1604 1.350 . S
N1602 S1600 1.610 . S
N1602 C1603 1.351 . S
C1603 C1597 1.428 . S
C1603 N1602 1.351 . S
C1603 C1604 1.434 . S
C1604 C1595 1.429 . S
C1604 N1601 1.350 . S
C1604 C1603 1.434 . S
C1605 C1606 1.369 . S
C1605 C1607 1.419 . S
C1605 H1609 0.930 . S
C1606 C1605 1.369 . S
C1606 C1615 1.429 . S
C1607 C1605 1.419 . S
C1607 C1608 1.363 . S
C1607 H1610 0.929 . S
C1608 C1607 1.363 . S
C1608 C1614 1.428 . S
H1609 C1605 0.930 . S
H1610 C1607 0.929 . S
S1611 N1612 1.613 . S
S1611 N1613 1.610 . S
N1612 S1611 1.613 . S
N1612 C1615 1.350 . S
N1613 S1611 1.610 . S
N1613 C1614 1.351 . S
C1614 C1608 1.428 . S
C1614 N1613 1.351 . S
C1614 C1615 1.434 . S
C1615 C1606 1.429 . S
C1615 N1612 1.350 . S
C1615 C1614 1.434 . S
C1616 C1617 1.369 . S
C1616 C1618 1.419 . S
C1616 H1620 0.930 . S
C1617 C1616 1.369 . S
C1617 C1626 1.429 . S
C1618 C1616 1.419 . S
C1618 C1619 1.363 . S
C1618 H1621 0.929 . S
C1619 C1618 1.363 . S
C1619 C1625 1.428 . S
H1620 C1616 0.930 . S
H1621 C1618 0.929 . S
S1622 N1623 1.613 . S
S1622 N1624 1.610 . S
N1623 S1622 1.613 . S
N1623 C1626 1.350 . S
N1624 S1622 1.610 . S
N1624 C1625 1.351 . S
C1625 C1619 1.428 . S
C1625 N1624 1.351 . S
C1625 C1626 1.434 . S
C1626 C1617 1.429 . S
C1626 N1623 1.350 . S
C1626 C1625 1.434 . S
C1627 C1628 1.369 . S
C1627 C1629 1.419 . S
C1627 H1631 0.930 . S
C1628 C1627 1.369 . S
C1628 C1637 1.429 . S
C1629 C1627 1.419 . S
C1629 C1630 1.363 . S
C1629 H1632 0.929 . S
C1630 C1629 1.363 . S
C1630 C1636 1.428 . S
H1631 C1627 0.930 . S
H1632 C1629 0.929 . S
S1633 N1634 1.613 . S
S1633 N1635 1.610 . S
N1634 S1633 1.613 . S
N1634 C1637 1.350 . S
N1635 S1633 1.610 . S
N1635 C1636 1.351 . S
C1636 C1630 1.428 . S
C1636 N1635 1.351 . S
C1636 C1637 1.434 . S
C1637 C1628 1.429 . S
C1637 N1634 1.350 . S
C1637 C1636 1.434 . S
C1638 C1639 1.369 . S
C1638 C1640 1.419 . S
C1638 H1642 0.930 . S
C1639 C1638 1.369 . S
C1639 C1648 1.429 . S
C1640 C1638 1.419 . S
C1640 C1641 1.363 . S
C1640 H1643 0.929 . S
C1641 C1640 1.363 . S
C1641 C1647 1.428 . S
H1642 C1638 0.930 . S
H1643 C1640 0.929 . S
S1644 N1645 1.613 . S
S1644 N1646 1.610 . S
N1645 S1644 1.613 . S
N1645 C1648 1.350 . S
N1646 S1644 1.610 . S
N1646 C1647 1.351 . S
C1647 C1641 1.428 . S
C1647 N1646 1.351 . S
C1647 C1648 1.434 . S
C1648 C1639 1.429 . S
C1648 N1645 1.350 . S
C1648 C1647 1.434 . S
C1649 C1650 1.369 . S
C1649 C1651 1.419 . S
C1649 H1653 0.930 . S
C1650 C1649 1.369 . S
C1650 C1659 1.429 . S
C1651 C1649 1.419 . S
C1651 C1652 1.363 . S
C1651 H1654 0.929 . S
C1652 C1651 1.363 . S
C1652 C1658 1.428 . S
H1653 C1649 0.930 . S
H1654 C1651 0.929 . S
S1655 N1656 1.613 . S
S1655 N1657 1.610 . S
N1656 S1655 1.613 . S
N1656 C1659 1.350 . S
N1657 S1655 1.610 . S
N1657 C1658 1.351 . S
C1658 C1652 1.428 . S
C1658 N1657 1.351 . S
C1658 C1659 1.434 . S
C1659 C1650 1.429 . S
C1659 N1656 1.350 . S
C1659 C1658 1.434 . S
C1660 C1661 1.369 . S
C1660 C1662 1.419 . S
C1660 H1664 0.930 . S
C1661 C1660 1.369 . S
C1661 C1670 1.429 . S
C1662 C1660 1.419 . S
C1662 C1663 1.363 . S
C1662 H1665 0.929 . S
C1663 C1662 1.363 . S
C1663 C1669 1.428 . S
H1664 C1660 0.930 . S
H1665 C1662 0.929 . S
S1666 N1667 1.613 . S
S1666 N1668 1.610 . S
N1667 S1666 1.613 . S
N1667 C1670 1.350 . S
N1668 S1666 1.610 . S
N1668 C1669 1.351 . S
C1669 C1663 1.428 . S
C1669 N1668 1.351 . S
C1669 C1670 1.434 . S
C1670 C1661 1.429 . S
C1670 N1667 1.350 . S
C1670 C1669 1.434 . S
C1671 C1672 1.369 1_556 S
C1671 C1673 1.419 . S
C1671 H1675 0.930 . S
C1672 C1671 1.369 1_554 S
C1672 C1681 1.429 . S
C1673 C1671 1.419 . S
C1673 C1674 1.362 1_556 S
C1673 H1676 0.929 . S
C1674 C1673 1.362 1_554 S
C1674 C1680 1.429 . S
H1675 C1671 0.930 . S
H1676 C1673 0.929 . S
S1677 N1678 1.613 . S
S1677 N1679 1.610 . S
N1678 S1677 1.613 . S
N1678 C1681 1.350 . S
N1679 S1677 1.610 . S
N1679 C1680 1.351 . S
C1680 C1674 1.429 . S
C1680 N1679 1.351 . S
C1680 C1681 1.434 . S
C1681 C1672 1.429 . S
C1681 N1678 1.350 . S
C1681 C1680 1.434 . S
C1682 C1683 1.370 . S
C1682 C1684 1.419 . S
C1682 H1686 0.930 . S
C1683 C1682 1.370 . S
C1683 C1692 1.428 1_554 S
C1684 C1682 1.419 . S
C1684 C1685 1.363 . S
C1684 H1687 0.929 . S
C1685 C1684 1.363 . S
C1685 C1691 1.424 1_554 S
H1686 C1682 0.930 . S
H1687 C1684 0.929 . S
S1688 N1689 1.613 . S
S1688 N1690 1.610 . S
N1689 S1688 1.613 . S
N1689 C1692 1.350 . S
N1690 S1688 1.610 . S
N1690 C1691 1.354 . S
C1691 C1685 1.424 1_556 S
C1691 N1690 1.354 . S
C1691 C1692 1.436 . S
C1692 C1683 1.428 1_556 S
C1692 N1689 1.350 . S
C1692 C1691 1.436 . S
C1693 C1694 1.369 . S
C1693 C1695 1.419 . S
C1693 H1697 0.930 . S
C1694 C1693 1.369 . S
C1694 C1703 1.429 1_554 S
C1695 C1693 1.419 . S
C1695 C1696 1.369 1_554 S
C1695 H1698 0.929 . S
C1696 C1695 1.369 1_556 S
C1696 C1702 1.423 . S
H1697 C1693 0.930 . S
H1698 C1695 0.929 . S
S1699 N1700 1.613 . S
S1699 N1701 1.610 . S
N1700 S1699 1.613 . S
N1700 C1703 1.350 . S
N1701 S1699 1.610 . S
N1701 C1702 1.351 . S
C1702 C1696 1.423 . S
C1702 N1701 1.351 . S
C1702 C1703 1.434 . S
C1703 C1694 1.429 1_556 S
C1703 N1700 1.350 . S
C1703 C1702 1.434 . S
C1704 C1705 1.369 . S
C1704 C1706 1.419 . S
C1704 H1708 0.930 . S
C1705 C1704 1.369 . S
C1705 C1714 1.429 . S
C1706 C1704 1.419 . S
C1706 C1707 1.363 . S
C1706 H1709 0.929 . S
C1707 C1706 1.363 . S
C1707 C1713 1.428 . S
H1708 C1704 0.930 . S
H1709 C1706 0.929 . S
S1710 N1711 1.613 . S
S1710 N1712 1.610 . S
N1711 S1710 1.613 . S
N1711 C1714 1.350 . S
N1712 S1710 1.610 . S
N1712 C1713 1.351 . S
C1713 C1707 1.428 . S
C1713 N1712 1.351 . S
C1713 C1714 1.434 . S
C1714 C1705 1.429 . S
C1714 N1711 1.350 . S
C1714 C1713 1.434 . S
C1715 C1716 1.369 . S
C1715 C1717 1.419 . S
C1715 H1719 0.930 . S
C1716 C1715 1.369 . S
C1716 C1725 1.429 . S
C1717 C1715 1.419 . S
C1717 C1718 1.363 . S
C1717 H1720 0.929 . S
C1718 C1717 1.363 . S
C1718 C1724 1.428 . S
H1719 C1715 0.930 . S
H1720 C1717 0.929 . S
S1721 N1722 1.613 . S
S1721 N1723 1.610 . S
N1722 S1721 1.613 . S
N1722 C1725 1.350 . S
N1723 S1721 1.610 . S
N1723 C1724 1.351 . S
C1724 C1718 1.428 . S
C1724 N1723 1.351 . S
C1724 C1725 1.434 . S
C1725 C1716 1.429 . S
C1725 N1722 1.350 . S
C1725 C1724 1.434 . S
C1726 C1727 1.369 . S
C1726 C1728 1.419 . S
C1726 H1730 0.930 . S
C1727 C1726 1.369 . S
C1727 C1736 1.429 . S
C1728 C1726 1.419 . S
C1728 C1729 1.363 . S
C1728 H1731 0.929 . S
C1729 C1728 1.363 . S
C1729 C1735 1.428 . S
H1730 C1726 0.930 . S
H1731 C1728 0.929 . S
S1732 N1733 1.613 . S
S1732 N1734 1.610 . S
N1733 S1732 1.613 . S
N1733 C1736 1.350 . S
N1734 S1732 1.610 . S
N1734 C1735 1.351 . S
C1735 C1729 1.428 . S
C1735 N1734 1.351 . S
C1735 C1736 1.434 . S
C1736 C1727 1.429 . S
C1736 N1733 1.350 . S
C1736 C1735 1.434 . S
C1737 C1738 1.375 1_556 S
C1737 C1739 1.419 . S
C1737 H1741 0.930 . S
C1738 C1737 1.375 1_554 S
C1738 C1747 1.423 . S
C1739 C1737 1.419 . S
C1739 C1740 1.363 . S
C1739 H1742 0.929 . S
C1740 C1739 1.363 . S
C1740 C1746 1.428 1_556 S
H1741 C1737 0.930 . S
H1742 C1739 0.929 . S
S1743 N1744 1.613 . S
S1743 N1745 1.610 . S
N1744 S1743 1.613 . S
N1744 C1747 1.350 . S
N1745 S1743 1.610 . S
N1745 C1746 1.351 . S
C1746 C1740 1.428 1_554 S
C1746 N1745 1.351 . S
C1746 C1747 1.434 . S
C1747 C1738 1.423 . S
C1747 N1744 1.350 . S
C1747 C1746 1.434 . S
C1748 C1749 1.370 1_556 S
C1748 C1750 1.419 . S
C1748 H1752 0.930 . S
C1749 C1748 1.370 1_554 S
C1749 C1758 1.428 . S
C1750 C1748 1.419 . S
C1750 C1751 1.363 . S
C1750 H1753 0.929 . S
C1751 C1750 1.363 . S
C1751 C1757 1.428 1_556 S
H1752 C1748 0.930 . S
H1753 C1750 0.929 . S
S1754 N1755 1.613 . S
S1754 N1756 1.610 . S
N1755 S1754 1.613 . S
N1755 C1758 1.350 . S
N1756 S1754 1.610 . S
N1756 C1757 1.351 . S
C1757 C1751 1.428 1_554 S
C1757 N1756 1.351 . S
C1757 C1758 1.434 . S
C1758 C1749 1.428 . S
C1758 N1755 1.350 . S
C1758 C1757 1.434 . S
C1759 C1760 1.367 1_554 S
C1759 C1761 1.419 . S
C1759 H1763 0.930 . S
C1760 C1759 1.367 1_556 S
C1760 C1769 1.432 . S
C1761 C1759 1.419 . S
C1761 C1762 1.363 1_554 S
C1761 H1764 0.929 . S
C1762 C1761 1.363 1_556 S
C1762 C1768 1.428 . S
H1763 C1759 0.930 . S
H1764 C1761 0.929 . S
S1765 N1766 1.613 . S
S1765 N1767 1.610 . S
N1766 S1765 1.613 . S
N1766 C1769 1.350 . S
N1767 S1765 1.610 . S
N1767 C1768 1.351 . S
C1768 C1762 1.428 . S
C1768 N1767 1.351 . S
C1768 C1769 1.434 . S
C1769 C1760 1.432 . S
C1769 N1766 1.350 . S
C1769 C1768 1.434 . S
C1770 C1771 1.369 . S
C1770 C1772 1.419 . S
C1770 H1774 0.930 . S
C1771 C1770 1.369 . S
C1771 C1780 1.429 . S
C1772 C1770 1.419 . S
C1772 C1773 1.363 . S
C1772 H1775 0.929 . S
C1773 C1772 1.363 . S
C1773 C1779 1.428 . S
H1774 C1770 0.930 . S
H1775 C1772 0.929 . S
S1776 N1777 1.613 . S
S1776 N1778 1.610 . S
N1777 S1776 1.613 . S
N1777 C1780 1.350 . S
N1778 S1776 1.610 . S
N1778 C1779 1.351 . S
C1779 C1773 1.428 . S
C1779 N1778 1.351 . S
C1779 C1780 1.434 . S
C1780 C1771 1.429 . S
C1780 N1777 1.350 . S
C1780 C1779 1.434 . S
C1781 C1782 1.369 . S
C1781 C1783 1.419 . S
C1781 H1785 0.930 . S
C1782 C1781 1.369 . S
C1782 C1791 1.429 . S
C1783 C1781 1.419 . S
C1783 C1784 1.363 . S
C1783 H1786 0.929 . S
C1784 C1783 1.363 . S
C1784 C1790 1.428 . S
H1785 C1781 0.930 . S
H1786 C1783 0.929 . S
S1787 N1788 1.613 . S
S1787 N1789 1.610 . S
N1788 S1787 1.613 . S
N1788 C1791 1.350 . S
N1789 S1787 1.610 . S
N1789 C1790 1.351 . S
C1790 C1784 1.428 . S
C1790 N1789 1.351 . S
C1790 C1791 1.434 . S
C1791 C1782 1.429 . S
C1791 N1788 1.350 . S
C1791 C1790 1.434 . S
C1792 C1793 1.369 . S
C1792 C1794 1.419 . S
C1792 H1796 0.930 . S
C1793 C1792 1.369 . S
C1793 C1802 1.429 . S
C1794 C1792 1.419 . S
C1794 C1795 1.363 . S
C1794 H1797 0.929 . S
C1795 C1794 1.363 . S
C1795 C1801 1.428 . S
H1796 C1792 0.930 . S
H1797 C1794 0.929 . S
S1798 N1799 1.613 . S
S1798 N1800 1.610 . S
N1799 S1798 1.613 . S
N1799 C1802 1.350 . S
N1800 S1798 1.610 . S
N1800 C1801 1.351 . S
C1801 C1795 1.428 . S
C1801 N1800 1.351 . S
C1801 C1802 1.434 . S
C1802 C1793 1.429 . S
C1802 N1799 1.350 . S
C1802 C1801 1.434 . S
C1803 C1804 1.369 . S
C1803 C1805 1.419 . S
C1803 H1807 0.930 . S
C1804 C1803 1.369 . S
C1804 C1813 1.429 . S
C1805 C1803 1.419 . S
C1805 C1806 1.363 . S
C1805 H1808 0.929 . S
C1806 C1805 1.363 . S
C1806 C1812 1.428 . S
H1807 C1803 0.930 . S
H1808 C1805 0.929 . S
S1809 N1810 1.613 . S
S1809 N1811 1.610 . S
N1810 S1809 1.613 . S
N1810 C1813 1.350 . S
N1811 S1809 1.610 . S
N1811 C1812 1.351 . S
C1812 C1806 1.428 . S
C1812 N1811 1.351 . S
C1812 C1813 1.434 . S
C1813 C1804 1.429 . S
C1813 N1810 1.350 . S
C1813 C1812 1.434 . S
C1814 C1815 1.369 . S
C1814 C1816 1.419 . S
C1814 H1818 0.930 . S
C1815 C1814 1.369 . S
C1815 C1824 1.429 . S
C1816 C1814 1.419 . S
C1816 C1817 1.363 . S
C1816 H1819 0.929 . S
C1817 C1816 1.363 . S
C1817 C1823 1.428 . S
H1818 C1814 0.930 . S
H1819 C1816 0.929 . S
S1820 N1821 1.613 . S
S1820 N1822 1.610 . S
N1821 S1820 1.613 . S
N1821 C1824 1.350 . S
N1822 S1820 1.610 . S
N1822 C1823 1.351 . S
C1823 C1817 1.428 . S
C1823 N1822 1.351 . S
C1823 C1824 1.434 . S
C1824 C1815 1.429 . S
C1824 N1821 1.350 . S
C1824 C1823 1.434 . S
C1825 C1826 1.369 . S
C1825 C1827 1.419 . S
C1825 H1829 0.930 . S
C1826 C1825 1.369 . S
C1826 C1835 1.429 . S
C1827 C1825 1.419 . S
C1827 C1828 1.363 . S
C1827 H1830 0.929 . S
C1828 C1827 1.363 . S
C1828 C1834 1.428 . S
H1829 C1825 0.930 . S
H1830 C1827 0.929 . S
S1831 N1832 1.613 . S
S1831 N1833 1.610 . S
N1832 S1831 1.613 . S
N1832 C1835 1.350 . S
N1833 S1831 1.610 . S
N1833 C1834 1.351 . S
C1834 C1828 1.428 . S
C1834 N1833 1.351 . S
C1834 C1835 1.434 . S
C1835 C1826 1.429 . S
C1835 N1832 1.350 . S
C1835 C1834 1.434 . S
C1836 C1837 1.369 . S
C1836 C1838 1.419 . S
C1836 H1840 0.930 . S
C1837 C1836 1.369 . S
C1837 C1846 1.429 . S
C1838 C1836 1.419 . S
C1838 C1839 1.363 . S
C1838 H1841 0.929 . S
C1839 C1838 1.363 . S
C1839 C1845 1.428 . S
H1840 C1836 0.930 . S
H1841 C1838 0.929 . S
S1842 N1843 1.613 . S
S1842 N1844 1.610 . S
N1843 S1842 1.613 . S
N1843 C1846 1.350 . S
N1844 S1842 1.610 . S
N1844 C1845 1.351 . S
C1845 C1839 1.428 . S
C1845 N1844 1.351 . S
C1845 C1846 1.434 . S
C1846 C1837 1.429 . S
C1846 N1843 1.350 . S
C1846 C1845 1.434 . S
C1847 C1848 1.369 . S
C1847 C1849 1.419 . S
C1847 H1851 0.930 1_565 S
C1848 C1847 1.369 . S
C1848 C1857 1.429 . S
C1849 C1847 1.419 . S
C1849 C1850 1.363 . S
C1849 H1852 0.929 . S
C1850 C1849 1.363 . S
C1850 C1856 1.428 . S
H1851 C1847 0.930 1_545 S
H1852 C1849 0.929 . S
S1853 N1854 1.613 . S
S1853 N1855 1.610 . S
N1854 S1853 1.613 . S
N1854 C1857 1.350 . S
N1855 S1853 1.610 . S
N1855 C1856 1.351 . S
C1856 C1850 1.428 . S
C1856 N1855 1.351 . S
C1856 C1857 1.434 . S
C1857 C1848 1.429 . S
C1857 N1854 1.350 . S
C1857 C1856 1.434 . S
C1858 C1859 1.369 . S
C1858 C1860 1.419 . S
C1858 H1862 0.930 . S
C1859 C1858 1.369 . S
C1859 C1868 1.429 . S
C1860 C1858 1.419 . S
C1860 C1861 1.363 . S
C1860 H1863 0.929 . S
C1861 C1860 1.363 . S
C1861 C1867 1.428 . S
H1862 C1858 0.930 . S
H1863 C1860 0.929 . S
S1864 N1865 1.613 . S
S1864 N1866 1.610 . S
N1865 S1864 1.613 . S
N1865 C1868 1.350 . S
N1866 S1864 1.610 . S
N1866 C1867 1.351 . S
C1867 C1861 1.428 . S
C1867 N1866 1.351 . S
C1867 C1868 1.434 . S
C1868 C1859 1.429 . S
C1868 N1865 1.350 . S
C1868 C1867 1.434 . S
C1869 C1870 1.369 . S
C1869 C1871 1.419 . S
C1869 H1873 0.930 . S
C1870 C1869 1.369 . S
C1870 C1879 1.429 . S
C1871 C1869 1.419 . S
C1871 C1872 1.363 . S
C1871 H1874 0.929 . S
C1872 C1871 1.363 . S
C1872 C1878 1.428 . S
H1873 C1869 0.930 . S
H1874 C1871 0.929 . S
S1875 N1876 1.613 . S
S1875 N1877 1.610 . S
N1876 S1875 1.613 . S
N1876 C1879 1.350 . S
N1877 S1875 1.610 . S
N1877 C1878 1.351 . S
C1878 C1872 1.428 . S
C1878 N1877 1.351 . S
C1878 C1879 1.434 . S
C1879 C1870 1.429 . S
C1879 N1876 1.350 . S
C1879 C1878 1.434 . S
C1880 C1881 1.369 . S
C1880 C1882 1.419 . S
C1880 H1884 0.930 . S
C1881 C1880 1.369 . S
C1881 C1890 1.429 . S
C1882 C1880 1.419 . S
C1882 C1883 1.363 . S
C1882 H1885 0.929 . S
C1883 C1882 1.363 . S
C1883 C1889 1.428 . S
H1884 C1880 0.930 . S
H1885 C1882 0.929 . S
S1886 N1887 1.613 . S
S1886 N1888 1.610 . S
N1887 S1886 1.613 . S
N1887 C1890 1.350 . S
N1888 S1886 1.610 . S
N1888 C1889 1.351 . S
C1889 C1883 1.428 . S
C1889 N1888 1.351 . S
C1889 C1890 1.434 . S
C1890 C1881 1.429 . S
C1890 N1887 1.350 . S
C1890 C1889 1.434 . S
C1891 C1892 1.369 . S
C1891 C1893 1.419 1_655 S
C1891 H1895 0.930 1_655 S
C1892 C1891 1.369 . S
C1892 C1901 1.429 . S
C1893 C1891 1.419 1_455 S
C1893 C1894 1.363 1_455 S
C1893 H1896 0.929 . S
C1894 C1893 1.363 1_655 S
C1894 C1900 1.428 . S
H1895 C1891 0.930 1_455 S
H1896 C1893 0.929 . S
S1897 N1898 1.613 . S
S1897 N1899 1.610 . S
N1898 S1897 1.613 . S
N1898 C1901 1.350 . S
N1899 S1897 1.610 . S
N1899 C1900 1.351 . S
C1900 C1894 1.428 . S
C1900 N1899 1.351 . S
C1900 C1901 1.434 . S
C1901 C1892 1.429 . S
C1901 N1898 1.350 . S
C1901 C1900 1.434 . S
C1902 C1903 1.369 . S
C1902 C1904 1.419 . S
C1902 H1906 0.930 . S
C1903 C1902 1.369 . S
C1903 C1912 1.429 . S
C1904 C1902 1.419 . S
C1904 C1905 1.363 . S
C1904 H1907 0.929 . S
C1905 C1904 1.363 . S
C1905 C1911 1.428 . S
H1906 C1902 0.930 . S
H1907 C1904 0.929 . S
S1908 N1909 1.613 . S
S1908 N1910 1.610 . S
N1909 S1908 1.613 . S
N1909 C1912 1.350 . S
N1910 S1908 1.610 . S
N1910 C1911 1.351 . S
C1911 C1905 1.428 . S
C1911 N1910 1.351 . S
C1911 C1912 1.434 . S
C1912 C1903 1.429 . S
C1912 N1909 1.350 . S
C1912 C1911 1.434 . S
C1913 C1914 1.369 . S
C1913 C1915 1.419 . S
C1913 H1917 0.930 . S
C1914 C1913 1.369 . S
C1914 C1923 1.429 . S
C1915 C1913 1.419 . S
C1915 C1916 1.363 . S
C1915 H1918 0.929 . S
C1916 C1915 1.363 . S
C1916 C1922 1.428 . S
H1917 C1913 0.930 . S
H1918 C1915 0.929 . S
S1919 N1920 1.613 1_565 S
S1919 N1921 1.610 . S
N1920 S1919 1.613 1_545 S
N1920 C1923 1.350 . S
N1921 S1919 1.610 . S
N1921 C1922 1.351 1_565 S
C1922 C1916 1.428 . S
C1922 N1921 1.351 1_545 S
C1922 C1923 1.434 . S
C1923 C1914 1.429 . S
C1923 N1920 1.350 . S
C1923 C1922 1.434 . S
C1924 C1925 1.369 . S
C1924 C1926 1.419 . S
C1924 H1928 0.930 . S
C1925 C1924 1.369 . S
C1925 C1934 1.429 . S
C1926 C1924 1.419 . S
C1926 C1927 1.363 . S
C1926 H1929 0.929 1_655 S
C1927 C1926 1.363 . S
C1927 C1933 1.428 . S
H1928 C1924 0.930 . S
H1929 C1926 0.929 1_455 S
S1930 N1931 1.613 . S
S1930 N1932 1.610 . S
N1931 S1930 1.613 . S
N1931 C1934 1.350 . S
N1932 S1930 1.610 . S
N1932 C1933 1.351 . S
C1933 C1927 1.428 . S
C1933 N1932 1.351 . S
C1933 C1934 1.434 . S
C1934 C1925 1.429 . S
C1934 N1931 1.350 . S
C1934 C1933 1.434 . S
C1935 C1936 1.369 . S
C1935 C1937 1.419 . S
C1935 H1939 0.930 . S
C1936 C1935 1.369 . S
C1936 C1945 1.429 . S
C1937 C1935 1.419 . S
C1937 C1938 1.363 . S
C1937 H1940 0.929 . S
C1938 C1937 1.363 . S
C1938 C1944 1.428 . S
H1939 C1935 0.930 . S
H1940 C1937 0.929 . S
S1941 N1942 1.613 . S
S1941 N1943 1.610 . S
N1942 S1941 1.613 . S
N1942 C1945 1.350 . S
N1943 S1941 1.610 . S
N1943 C1944 1.351 . S
C1944 C1938 1.428 . S
C1944 N1943 1.351 . S
C1944 C1945 1.434 . S
C1945 C1936 1.429 . S
C1945 N1942 1.350 . S
C1945 C1944 1.434 . S
C1946 C1947 1.369 1_545 S
C1946 C1948 1.419 1_545 S
C1946 H1950 0.930 . S
C1947 C1946 1.369 1_565 S
C1947 C1956 1.429 . S
C1948 C1946 1.419 1_565 S
C1948 C1949 1.363 . S
C1948 H1951 0.929 . S
C1949 C1948 1.363 . S
C1949 C1955 1.428 . S
H1950 C1946 0.930 . S
H1951 C1948 0.929 . S
S1952 N1953 1.613 . S
S1952 N1954 1.610 . S
N1953 S1952 1.613 . S
N1953 C1956 1.350 . S
N1954 S1952 1.610 . S
N1954 C1955 1.351 . S
C1955 C1949 1.428 . S
C1955 N1954 1.351 . S
C1955 C1956 1.434 . S
C1956 C1947 1.429 . S
C1956 N1953 1.350 . S
C1956 C1955 1.434 . S
C1957 C1958 1.369 1_655 S
C1957 C1959 1.419 1_655 S
C1957 H1961 0.930 . S
C1958 C1957 1.369 1_455 S
C1958 C1967 1.429 . S
C1959 C1957 1.419 1_455 S
C1959 C1960 1.363 . S
C1959 H1962 0.929 1_455 S
C1960 C1959 1.363 . S
C1960 C1966 1.428 . S
H1961 C1957 0.930 . S
H1962 C1959 0.929 1_655 S
S1963 N1964 1.613 . S
S1963 N1965 1.610 . S
N1964 S1963 1.613 . S
N1964 C1967 1.350 . S
N1965 S1963 1.610 . S
N1965 C1966 1.351 . S
C1966 C1960 1.428 . S
C1966 N1965 1.351 . S
C1966 C1967 1.434 . S
C1967 C1958 1.429 . S
C1967 N1964 1.350 . S
C1967 C1966 1.434 . S
C1968 C1969 1.369 . S
C1968 C1970 1.419 . S
C1968 H1972 0.930 . S
C1969 C1968 1.369 . S
C1969 C1978 1.429 . S
C1970 C1968 1.419 . S
C1970 C1971 1.363 . S
C1970 H1973 0.929 . S
C1971 C1970 1.363 . S
C1971 C1977 1.428 . S
H1972 C1968 0.930 . S
H1973 C1970 0.929 . S
S1974 N1975 1.613 . S
S1974 N1976 1.610 . S
N1975 S1974 1.613 . S
N1975 C1978 1.350 . S
N1976 S1974 1.610 . S
N1976 C1977 1.351 . S
C1977 C1971 1.428 . S
C1977 N1976 1.351 . S
C1977 C1978 1.434 . S
C1978 C1969 1.429 . S
C1978 N1975 1.350 . S
C1978 C1977 1.434 . S
C1979 C1980 1.369 . S
C1979 C1981 1.419 . S
C1979 H1983 0.930 . S
C1980 C1979 1.369 . S
C1980 C1989 1.429 . S
C1981 C1979 1.419 . S
C1981 C1982 1.363 . S
C1981 H1984 0.929 . S
C1982 C1981 1.363 . S
C1982 C1988 1.428 . S
H1983 C1979 0.930 . S
H1984 C1981 0.929 . S
S1985 N1986 1.613 . S
S1985 N1987 1.610 . S
N1986 S1985 1.613 . S
N1986 C1989 1.350 . S
N1987 S1985 1.610 . S
N1987 C1988 1.351 . S
C1988 C1982 1.428 . S
C1988 N1987 1.351 . S
C1988 C1989 1.434 . S
C1989 C1980 1.429 . S
C1989 N1986 1.350 . S
C1989 C1988 1.434 . S
C1990 C1991 1.369 . S
C1990 C1992 1.419 . S
C1990 H1994 0.930 . S
C1991 C1990 1.369 . S
C1991 C2000 1.429 . S
C1992 C1990 1.419 . S
C1992 C1993 1.363 . S
C1992 H1995 0.929 . S
C1993 C1992 1.363 . S
C1993 C1999 1.428 . S
H1994 C1990 0.930 . S
H1995 C1992 0.929 . S
S1996 N1997 1.613 1_545 S
S1996 N1998 1.610 1_545 S
N1997 S1996 1.613 1_565 S
N1997 C2000 1.350 . S
N1998 S1996 1.610 1_565 S
N1998 C1999 1.351 . S
C1999 C1993 1.428 . S
C1999 N1998 1.351 . S
C1999 C2000 1.434 . S
C2000 C1991 1.429 . S
C2000 N1997 1.350 . S
C2000 C1999 1.434 . S
C2001 C2002 1.369 . S
C2001 C2003 1.419 . S
C2001 H2005 0.930 . S
C2002 C2001 1.369 . S
C2002 C2011 1.429 . S
C2003 C2001 1.419 . S
C2003 C2004 1.363 . S
C2003 H2006 0.929 . S
C2004 C2003 1.363 . S
C2004 C2010 1.428 . S
H2005 C2001 0.930 . S
H2006 C2003 0.929 . S
S2007 N2008 1.613 1_655 S
S2007 N2009 1.610 . S
N2008 S2007 1.613 1_455 S
N2008 C2011 1.350 . S
N2009 S2007 1.610 . S
N2009 C2010 1.351 1_655 S
C2010 C2004 1.428 . S
C2010 N2009 1.351 1_455 S
C2010 C2011 1.434 . S
C2011 C2002 1.429 . S
C2011 N2008 1.350 . S
C2011 C2010 1.434 . S
C2012 C2013 1.369 . S
C2012 C2014 1.419 . S
C2012 H2016 0.930 . S
C2013 C2012 1.369 . S
C2013 C2022 1.429 . S
C2014 C2012 1.419 . S
C2014 C2015 1.363 . S
C2014 H2017 0.929 . S
C2015 C2014 1.363 . S
C2015 C2021 1.428 . S
H2016 C2012 0.930 . S
H2017 C2014 0.929 . S
S2018 N2019 1.613 . S
S2018 N2020 1.610 . S
N2019 S2018 1.613 . S
N2019 C2022 1.350 . S
N2020 S2018 1.610 . S
N2020 C2021 1.351 . S
C2021 C2015 1.428 . S
C2021 N2020 1.351 . S
C2021 C2022 1.434 . S
C2022 C2013 1.429 . S
C2022 N2019 1.350 . S
C2022 C2021 1.434 . S
C2023 C2024 1.369 . S
C2023 C2025 1.419 . S
C2023 H2027 0.930 . S
C2024 C2023 1.369 . S
C2024 C2033 1.429 . S
C2025 C2023 1.419 . S
C2025 C2026 1.363 . S
C2025 H2028 0.929 . S
C2026 C2025 1.363 . S
C2026 C2032 1.428 . S
H2027 C2023 0.930 . S
H2028 C2025 0.929 . S
S2029 N2030 1.613 . S
S2029 N2031 1.610 . S
N2030 S2029 1.613 . S
N2030 C2033 1.350 . S
N2031 S2029 1.610 . S
N2031 C2032 1.351 . S
C2032 C2026 1.428 . S
C2032 N2031 1.351 . S
C2032 C2033 1.434 . S
C2033 C2024 1.429 . S
C2033 N2030 1.350 . S
C2033 C2032 1.434 . S
C2034 C2035 1.369 . S
C2034 C2036 1.419 . S
C2034 H2038 0.930 . S
C2035 C2034 1.369 . S
C2035 C2044 1.429 . S
C2036 C2034 1.419 . S
C2036 C2037 1.363 . S
C2036 H2039 0.929 . S
C2037 C2036 1.363 . S
C2037 C2043 1.428 . S
H2038 C2034 0.930 . S
H2039 C2036 0.929 . S
S2040 N2041 1.613 . S
S2040 N2042 1.610 . S
N2041 S2040 1.613 . S
N2041 C2044 1.350 . S
N2042 S2040 1.610 . S
N2042 C2043 1.351 . S
C2043 C2037 1.428 . S
C2043 N2042 1.351 . S
C2043 C2044 1.434 . S
C2044 C2035 1.429 . S
C2044 N2041 1.350 . S
C2044 C2043 1.434 . S
C2045 C2046 1.369 . S
C2045 C2047 1.419 . S
C2045 H2049 0.930 . S
C2046 C2045 1.369 . S
C2046 C2055 1.429 . S
C2047 C2045 1.419 . S
C2047 C2048 1.363 . S
C2047 H2050 0.929 . S
C2048 C2047 1.363 . S
C2048 C2054 1.428 . S
H2049 C2045 0.930 . S
H2050 C2047 0.929 . S
S2051 N2052 1.613 . S
S2051 N2053 1.610 . S
N2052 S2051 1.613 . S
N2052 C2055 1.350 . S
N2053 S2051 1.610 . S
N2053 C2054 1.351 . S
C2054 C2048 1.428 . S
C2054 N2053 1.351 . S
C2054 C2055 1.434 . S
C2055 C2046 1.429 . S
C2055 N2052 1.350 . S
C2055 C2054 1.434 . S
C2056 C2057 1.369 . S
C2056 C2058 1.419 . S
C2056 H2060 0.930 . S
C2057 C2056 1.369 . S
C2057 C2066 1.429 . S
C2058 C2056 1.419 . S
C2058 C2059 1.363 . S
C2058 H2061 0.929 . S
C2059 C2058 1.363 . S
C2059 C2065 1.428 . S
H2060 C2056 0.930 . S
H2061 C2058 0.929 . S
S2062 N2063 1.613 . S
S2062 N2064 1.610 . S
N2063 S2062 1.613 . S
N2063 C2066 1.350 . S
N2064 S2062 1.610 . S
N2064 C2065 1.351 . S
C2065 C2059 1.428 . S
C2065 N2064 1.351 . S
C2065 C2066 1.434 . S
C2066 C2057 1.429 . S
C2066 N2063 1.350 . S
C2066 C2065 1.434 . S
C2067 C2068 1.353 1_554 S
C2067 C2069 1.419 1_565 S
C2067 H2071 0.930 . S
C2068 C2067 1.353 1_556 S
C2068 C2077 1.448 . S
C2069 C2067 1.419 1_545 S
C2069 C2070 1.363 1_554 S
C2069 H2072 0.929 . S
C2070 C2069 1.363 1_556 S
C2070 C2076 1.428 . S
H2071 C2067 0.930 . S
H2072 C2069 0.929 . S
S2073 N2074 1.613 . S
S2073 N2075 1.610 1_565 S
N2074 S2073 1.613 . S
N2074 C2077 1.350 . S
N2075 S2073 1.610 1_545 S
N2075 C2076 1.351 . S
C2076 C2070 1.428 . S
C2076 N2075 1.351 . S
C2076 C2077 1.434 1_545 S
C2077 C2068 1.448 . S
C2077 N2074 1.350 . S
C2077 C2076 1.434 1_565 S
C2078 C2079 1.365 . S
C2078 C2080 1.419 1_455 S
C2078 H2082 0.930 . S
C2079 C2078 1.365 . S
C2079 C2088 1.432 1_556 S
C2080 C2078 1.419 1_655 S
C2080 C2081 1.363 . S
C2080 H2083 0.929 . S
C2081 C2080 1.363 . S
C2081 C2087 1.428 1_556 S
H2082 C2078 0.930 . S
H2083 C2080 0.929 . S
S2084 N2085 1.613 . S
S2084 N2086 1.610 1_455 S
N2085 S2084 1.613 . S
N2085 C2088 1.350 . S
N2086 S2084 1.610 1_655 S
N2086 C2087 1.351 . S
C2087 C2081 1.428 1_554 S
C2087 N2086 1.351 . S
C2087 C2088 1.434 1_655 S
C2088 C2079 1.432 1_554 S
C2088 N2085 1.350 . S
C2088 C2087 1.434 1_455 S
C2089 C2090 1.369 1_554 S
C2089 C2091 1.419 . S
C2089 H2093 0.930 . S
C2090 C2089 1.369 1_556 S
C2090 C2099 1.429 . S
C2091 C2089 1.419 . S
C2091 C2092 1.357 1_554 S
C2091 H2094 0.929 . S
C2092 C2091 1.357 1_556 S
C2092 C2098 1.436 . S
H2093 C2089 0.930 . S
H2094 C2091 0.929 . S
S2095 N2096 1.613 . S
S2095 N2097 1.610 . S
N2096 S2095 1.613 . S
N2096 C2099 1.350 . S
N2097 S2095 1.610 . S
N2097 C2098 1.351 . S
C2098 C2092 1.436 . S
C2098 N2097 1.351 . S
C2098 C2099 1.434 . S
C2099 C2090 1.429 . S
C2099 N2096 1.350 . S
C2099 C2098 1.434 . S
C2100 C2101 1.369 . S
C2100 C2102 1.419 . S
C2100 H2104 0.930 . S
C2101 C2100 1.369 . S
C2101 C2110 1.429 . S
C2102 C2100 1.419 . S
C2102 C2103 1.363 . S
C2102 H2105 0.929 . S
C2103 C2102 1.363 . S
C2103 C2109 1.428 . S
H2104 C2100 0.930 . S
H2105 C2102 0.929 . S
S2106 N2107 1.613 . S
S2106 N2108 1.610 . S
N2107 S2106 1.613 . S
N2107 C2110 1.350 . S
N2108 S2106 1.610 . S
N2108 C2109 1.351 . S
C2109 C2103 1.428 . S
C2109 N2108 1.351 . S
C2109 C2110 1.434 . S
C2110 C2101 1.429 . S
C2110 N2107 1.350 . S
C2110 C2109 1.434 . S
C2111 C2112 1.369 . S
C2111 C2113 1.419 . S
C2111 H2115 0.930 . S
C2112 C2111 1.369 . S
C2112 C2121 1.429 . S
C2113 C2111 1.419 . S
C2113 C2114 1.363 . S
C2113 H2116 0.929 . S
C2114 C2113 1.363 . S
C2114 C2120 1.428 . S
H2115 C2111 0.930 . S
H2116 C2113 0.929 . S
S2117 N2118 1.613 . S
S2117 N2119 1.610 . S
N2118 S2117 1.613 . S
N2118 C2121 1.350 . S
N2119 S2117 1.610 . S
N2119 C2120 1.351 . S
C2120 C2114 1.428 . S
C2120 N2119 1.351 . S
C2120 C2121 1.434 . S
C2121 C2112 1.429 . S
C2121 N2118 1.350 . S
C2121 C2120 1.434 . S
C2122 C2123 1.369 . S
C2122 C2124 1.419 . S
C2122 H2126 0.930 . S
C2123 C2122 1.369 . S
C2123 C2132 1.429 . S
C2124 C2122 1.419 . S
C2124 C2125 1.363 . S
C2124 H2127 0.929 . S
C2125 C2124 1.363 . S
C2125 C2131 1.428 . S
H2126 C2122 0.930 . S
H2127 C2124 0.929 . S
S2128 N2129 1.613 . S
S2128 N2130 1.610 . S
N2129 S2128 1.613 . S
N2129 C2132 1.350 . S
N2130 S2128 1.610 . S
N2130 C2131 1.351 . S
C2131 C2125 1.428 . S
C2131 N2130 1.351 . S
C2131 C2132 1.434 . S
C2132 C2123 1.429 . S
C2132 N2129 1.350 . S
C2132 C2131 1.434 . S
C2133 C2134 1.369 1_556 S
C2133 C2135 1.419 1_565 S
C2133 H2137 0.930 . S
C2134 C2133 1.369 1_554 S
C2134 C2143 1.429 . S
C2135 C2133 1.419 1_545 S
C2135 C2136 1.355 1_556 S
C2135 H2138 0.929 . S
C2136 C2135 1.355 1_554 S
C2136 C2142 1.439 . S
H2137 C2133 0.930 . S
H2138 C2135 0.929 . S
S2139 N2140 1.613 1_545 S
S2139 N2141 1.610 . S
N2140 S2139 1.613 1_565 S
N2140 C2143 1.350 . S
N2141 S2139 1.610 . S
N2141 C2142 1.351 . S
C2142 C2136 1.439 . S
C2142 N2141 1.351 . S
C2142 C2143 1.434 1_545 S
C2143 C2134 1.429 . S
C2143 N2140 1.350 . S
C2143 C2142 1.434 1_565 S
C2144 C2145 1.354 1_556 S
C2144 C2146 1.419 1_655 S
C2144 H2148 0.930 . S
C2145 C2144 1.354 1_554 S
C2145 C2154 1.447 . S
C2146 C2144 1.419 1_455 S
C2146 C2147 1.363 1_556 S
C2146 H2149 0.929 . S
C2147 C2146 1.363 1_554 S
C2147 C2153 1.428 . S
H2148 C2144 0.930 . S
H2149 C2146 0.929 . S
S2150 N2151 1.613 . S
S2150 N2152 1.610 1_655 S
N2151 S2150 1.613 . S
N2151 C2154 1.350 . S
N2152 S2150 1.610 1_455 S
N2152 C2153 1.351 . S
C2153 C2147 1.428 . S
C2153 N2152 1.351 . S
C2153 C2154 1.434 1_455 S
C2154 C2145 1.447 . S
C2154 N2151 1.350 . S
C2154 C2153 1.434 1_655 S
C2155 C2156 1.369 . S
C2155 C2157 1.419 . S
C2155 H2159 0.930 . S
C2156 C2155 1.369 . S
C2156 C2165 1.429 1_554 S
C2157 C2155 1.419 . S
C2157 C2158 1.359 . S
C2157 H2160 0.929 . S
C2158 C2157 1.359 . S
C2158 C2164 1.431 1_554 S
H2159 C2155 0.930 . S
H2160 C2157 0.929 . S
S2161 N2162 1.613 . S
S2161 N2163 1.610 . S
N2162 S2161 1.613 . S
N2162 C2165 1.350 . S
N2163 S2161 1.610 . S
N2163 C2164 1.351 . S
C2164 C2158 1.431 1_556 S
C2164 N2163 1.351 . S
C2164 C2165 1.434 . S
C2165 C2156 1.429 1_556 S
C2165 N2162 1.350 . S
C2165 C2164 1.434 . S
C2166 C2167 1.369 . S
C2166 C2168 1.419 . S
C2166 H2170 0.930 . S
C2167 C2166 1.369 . S
C2167 C2176 1.429 . S
C2168 C2166 1.419 . S
C2168 C2169 1.363 . S
C2168 H2171 0.929 . S
C2169 C2168 1.363 . S
C2169 C2175 1.428 . S
H2170 C2166 0.930 . S
H2171 C2168 0.929 . S
S2172 N2173 1.613 . S
S2172 N2174 1.610 . S
N2173 S2172 1.613 . S
N2173 C2176 1.350 . S
N2174 S2172 1.610 . S
N2174 C2175 1.351 . S
C2175 C2169 1.428 . S
C2175 N2174 1.351 . S
C2175 C2176 1.434 . S
C2176 C2167 1.429 . S
C2176 N2173 1.350 . S
C2176 C2175 1.434 . S
C2177 C2178 1.369 . S
C2177 C2179 1.419 . S
C2177 H2181 0.930 . S
C2178 C2177 1.369 . S
C2178 C2187 1.429 . S
C2179 C2177 1.419 . S
C2179 C2180 1.363 . S
C2179 H2182 0.929 . S
C2180 C2179 1.363 . S
C2180 C2186 1.428 . S
H2181 C2177 0.930 . S
H2182 C2179 0.929 . S
S2183 N2184 1.613 . S
S2183 N2185 1.610 . S
N2184 S2183 1.613 . S
N2184 C2187 1.350 . S
N2185 S2183 1.610 . S
N2185 C2186 1.351 . S
C2186 C2180 1.428 . S
C2186 N2185 1.351 . S
C2186 C2187 1.434 . S
C2187 C2178 1.429 . S
C2187 N2184 1.350 . S
C2187 C2186 1.434 . S
C2188 C2189 1.369 . S
C2188 C2190 1.419 . S
C2188 H2192 0.930 . S
C2189 C2188 1.369 . S
C2189 C2198 1.429 . S
C2190 C2188 1.419 . S
C2190 C2191 1.363 . S
C2190 H2193 0.929 . S
C2191 C2190 1.363 . S
C2191 C2197 1.428 . S
H2192 C2188 0.930 . S
H2193 C2190 0.929 . S
S2194 N2195 1.613 . S
S2194 N2196 1.610 . S
N2195 S2194 1.613 . S
N2195 C2198 1.350 . S
N2196 S2194 1.610 . S
N2196 C2197 1.351 . S
C2197 C2191 1.428 . S
C2197 N2196 1.351 . S
C2197 C2198 1.434 . S
C2198 C2189 1.429 . S
C2198 N2195 1.350 . S
C2198 C2197 1.434 . S
C2199 C2200 1.369 . S
C2199 C2201 1.419 . S
C2199 H2203 0.930 . S
C2200 C2199 1.369 . S
C2200 C2209 1.429 . S
C2201 C2199 1.419 . S
C2201 C2202 1.363 . S
C2201 H2204 0.929 . S
C2202 C2201 1.363 . S
C2202 C2208 1.428 . S
H2203 C2199 0.930 . S
H2204 C2201 0.929 . S
S2205 N2206 1.613 . S
S2205 N2207 1.610 . S
N2206 S2205 1.613 . S
N2206 C2209 1.350 . S
N2207 S2205 1.610 . S
N2207 C2208 1.351 . S
C2208 C2202 1.428 . S
C2208 N2207 1.351 . S
C2208 C2209 1.434 . S
C2209 C2200 1.429 . S
C2209 N2206 1.350 . S
C2209 C2208 1.434 . S
C2210 C2211 1.369 . S
C2210 C2212 1.419 . S
C2210 H2214 0.930 . S
C2211 C2210 1.369 . S
C2211 C2220 1.429 . S
C2212 C2210 1.419 . S
C2212 C2213 1.363 . S
C2212 H2215 0.929 . S
C2213 C2212 1.363 . S
C2213 C2219 1.428 . S
H2214 C2210 0.930 . S
H2215 C2212 0.929 . S
S2216 N2217 1.613 . S
S2216 N2218 1.610 . S
N2217 S2216 1.613 . S
N2217 C2220 1.350 . S
N2218 S2216 1.610 . S
N2218 C2219 1.351 . S
C2219 C2213 1.428 . S
C2219 N2218 1.351 . S
C2219 C2220 1.434 . S
C2220 C2211 1.429 . S
C2220 N2217 1.350 . S
C2220 C2219 1.434 . S
C2221 C2222 1.369 . S
C2221 C2223 1.419 . S
C2221 H2225 0.930 . S
C2222 C2221 1.369 . S
C2222 C2231 1.429 . S
C2223 C2221 1.419 . S
C2223 C2224 1.363 . S
C2223 H2226 0.929 1_545 S
C2224 C2223 1.363 . S
C2224 C2230 1.428 . S
H2225 C2221 0.930 . S
H2226 C2223 0.929 1_565 S
S2227 N2228 1.613 . S
S2227 N2229 1.610 . S
N2228 S2227 1.613 . S
N2228 C2231 1.350 . S
N2229 S2227 1.610 . S
N2229 C2230 1.351 . S
C2230 C2224 1.428 . S
C2230 N2229 1.351 . S
C2230 C2231 1.434 . S
C2231 C2222 1.429 . S
C2231 N2228 1.350 . S
C2231 C2230 1.434 . S
C2232 C2233 1.369 . S
C2232 C2234 1.419 . S
C2232 H2236 0.930 . S
C2233 C2232 1.369 . S
C2233 C2242 1.429 . S
C2234 C2232 1.419 . S
C2234 C2235 1.363 . S
C2234 H2237 0.929 . S
C2235 C2234 1.363 . S
C2235 C2241 1.428 . S
H2236 C2232 0.930 . S
H2237 C2234 0.929 . S
S2238 N2239 1.613 . S
S2238 N2240 1.610 . S
N2239 S2238 1.613 . S
N2239 C2242 1.350 . S
N2240 S2238 1.610 . S
N2240 C2241 1.351 . S
C2241 C2235 1.428 . S
C2241 N2240 1.351 . S
C2241 C2242 1.434 . S
C2242 C2233 1.429 . S
C2242 N2239 1.350 . S
C2242 C2241 1.434 . S
C2243 C2244 1.369 . S
C2243 C2245 1.419 . S
C2243 H2247 0.930 . S
C2244 C2243 1.369 . S
C2244 C2253 1.429 . S
C2245 C2243 1.419 . S
C2245 C2246 1.363 . S
C2245 H2248 0.929 . S
C2246 C2245 1.363 . S
C2246 C2252 1.428 . S
H2247 C2243 0.930 . S
H2248 C2245 0.929 . S
S2249 N2250 1.613 . S
S2249 N2251 1.610 . S
N2250 S2249 1.613 . S
N2250 C2253 1.350 . S
N2251 S2249 1.610 . S
N2251 C2252 1.351 . S
C2252 C2246 1.428 . S
C2252 N2251 1.351 . S
C2252 C2253 1.434 . S
C2253 C2244 1.429 . S
C2253 N2250 1.350 . S
C2253 C2252 1.434 . S
C2254 C2255 1.369 . S
C2254 C2256 1.419 . S
C2254 H2258 0.930 . S
C2255 C2254 1.369 . S
C2255 C2264 1.429 . S
C2256 C2254 1.419 . S
C2256 C2257 1.363 . S
C2256 H2259 0.929 . S
C2257 C2256 1.363 . S
C2257 C2263 1.428 . S
H2258 C2254 0.930 . S
H2259 C2256 0.929 . S
S2260 N2261 1.613 . S
S2260 N2262 1.610 . S
N2261 S2260 1.613 . S
N2261 C2264 1.350 . S
N2262 S2260 1.610 . S
N2262 C2263 1.351 . S
C2263 C2257 1.428 . S
C2263 N2262 1.351 . S
C2263 C2264 1.434 . S
C2264 C2255 1.429 . S
C2264 N2261 1.350 . S
C2264 C2263 1.434 . S
C2265 C2266 1.369 . S
C2265 C2267 1.419 . S
C2265 H2269 0.930 . S
C2266 C2265 1.369 . S
C2266 C2275 1.429 . S
C2267 C2265 1.419 . S
C2267 C2268 1.363 . S
C2267 H2270 0.929 . S
C2268 C2267 1.363 . S
C2268 C2274 1.428 . S
H2269 C2265 0.930 . S
H2270 C2267 0.929 . S
S2271 N2272 1.613 . S
S2271 N2273 1.610 . S
N2272 S2271 1.613 . S
N2272 C2275 1.350 . S
N2273 S2271 1.610 . S
N2273 C2274 1.351 . S
C2274 C2268 1.428 . S
C2274 N2273 1.351 . S
C2274 C2275 1.434 . S
C2275 C2266 1.429 . S
C2275 N2272 1.350 . S
C2275 C2274 1.434 . S
C2276 C2277 1.369 . S
C2276 C2278 1.419 . S
C2276 H2280 0.930 . S
C2277 C2276 1.369 . S
C2277 C2286 1.429 . S
C2278 C2276 1.419 . S
C2278 C2279 1.363 . S
C2278 H2281 0.929 . S
C2279 C2278 1.363 . S
C2279 C2285 1.428 . S
H2280 C2276 0.930 . S
H2281 C2278 0.929 . S
S2282 N2283 1.613 . S
S2282 N2284 1.610 . S
N2283 S2282 1.613 . S
N2283 C2286 1.350 . S
N2284 S2282 1.610 . S
N2284 C2285 1.351 . S
C2285 C2279 1.428 . S
C2285 N2284 1.351 . S
C2285 C2286 1.434 . S
C2286 C2277 1.429 . S
C2286 N2283 1.350 . S
C2286 C2285 1.434 . S
C2287 C2288 1.369 . S
C2287 C2289 1.419 . S
C2287 H2291 0.930 . S
C2288 C2287 1.369 . S
C2288 C2297 1.429 . S
C2289 C2287 1.419 . S
C2289 C2290 1.363 . S
C2289 H2292 0.929 . S
C2290 C2289 1.363 . S
C2290 C2296 1.428 . S
H2291 C2287 0.930 . S
H2292 C2289 0.929 . S
S2293 N2294 1.613 . S
S2293 N2295 1.610 . S
N2294 S2293 1.613 . S
N2294 C2297 1.350 . S
N2295 S2293 1.610 . S
N2295 C2296 1.351 . S
C2296 C2290 1.428 . S
C2296 N2295 1.351 . S
C2296 C2297 1.434 . S
C2297 C2288 1.429 . S
C2297 N2294 1.350 . S
C2297 C2296 1.434 . S
C2298 C2299 1.369 . S
C2298 C2300 1.419 . S
C2298 H2302 0.930 . S
C2299 C2298 1.369 . S
C2299 C2308 1.429 . S
C2300 C2298 1.419 . S
C2300 C2301 1.363 . S
C2300 H2303 0.929 . S
C2301 C2300 1.363 . S
C2301 C2307 1.428 . S
H2302 C2298 0.930 . S
H2303 C2300 0.929 . S
S2304 N2305 1.613 . S
S2304 N2306 1.610 . S
N2305 S2304 1.613 . S
N2305 C2308 1.350 . S
N2306 S2304 1.610 . S
N2306 C2307 1.351 . S
C2307 C2301 1.428 . S
C2307 N2306 1.351 . S
C2307 C2308 1.434 . S
C2308 C2299 1.429 . S
C2308 N2305 1.350 . S
C2308 C2307 1.434 . S
C2309 C2310 1.369 . S
C2309 C2311 1.419 . S
C2309 H2313 0.930 . S
C2310 C2309 1.369 . S
C2310 C2319 1.429 . S
C2311 C2309 1.419 . S
C2311 C2312 1.363 . S
C2311 H2314 0.929 . S
C2312 C2311 1.363 . S
C2312 C2318 1.428 . S
H2313 C2309 0.930 . S
H2314 C2311 0.929 . S
S2315 N2316 1.613 . S
S2315 N2317 1.610 . S
N2316 S2315 1.613 . S
N2316 C2319 1.350 . S
N2317 S2315 1.610 . S
N2317 C2318 1.351 . S
C2318 C2312 1.428 . S
C2318 N2317 1.351 . S
C2318 C2319 1.434 . S
C2319 C2310 1.429 . S
C2319 N2316 1.350 . S
C2319 C2318 1.434 . S
C2320 C2321 1.369 . S
C2320 C2322 1.419 . S
C2320 H2324 0.930 . S
C2321 C2320 1.369 . S
C2321 C2330 1.429 . S
C2322 C2320 1.419 . S
C2322 C2323 1.363 . S
C2322 H2325 0.929 . S
C2323 C2322 1.363 . S
C2323 C2329 1.428 . S
H2324 C2320 0.930 . S
H2325 C2322 0.929 . S
S2326 N2327 1.613 . S
S2326 N2328 1.610 . S
N2327 S2326 1.613 . S
N2327 C2330 1.350 . S
N2328 S2326 1.610 . S
N2328 C2329 1.351 . S
C2329 C2323 1.428 . S
C2329 N2328 1.351 . S
C2329 C2330 1.434 . S
C2330 C2321 1.429 . S
C2330 N2327 1.350 . S
C2330 C2329 1.434 . S
C2331 C2332 1.369 . S
C2331 C2333 1.419 . S
C2331 H2335 0.930 . S
C2332 C2331 1.369 . S
C2332 C2341 1.429 . S
C2333 C2331 1.419 . S
C2333 C2334 1.363 . S
C2333 H2336 0.929 . S
C2334 C2333 1.363 . S
C2334 C2340 1.428 . S
H2335 C2331 0.930 . S
H2336 C2333 0.929 . S
S2337 N2338 1.613 . S
S2337 N2339 1.610 . S
N2338 S2337 1.613 . S
N2338 C2341 1.350 . S
N2339 S2337 1.610 . S
N2339 C2340 1.351 . S
C2340 C2334 1.428 . S
C2340 N2339 1.351 . S
C2340 C2341 1.434 . S
C2341 C2332 1.429 . S
C2341 N2338 1.350 . S
C2341 C2340 1.434 . S
C2342 C2343 1.369 . S
C2342 C2344 1.419 . S
C2342 H2346 0.930 . S
C2343 C2342 1.369 . S
C2343 C2352 1.429 . S
C2344 C2342 1.419 . S
C2344 C2345 1.363 . S
C2344 H2347 0.929 . S
C2345 C2344 1.363 . S
C2345 C2351 1.428 . S
H2346 C2342 0.930 . S
H2347 C2344 0.929 . S
S2348 N2349 1.613 . S
S2348 N2350 1.610 . S
N2349 S2348 1.613 . S
N2349 C2352 1.350 . S
N2350 S2348 1.610 . S
N2350 C2351 1.351 . S
C2351 C2345 1.428 . S
C2351 N2350 1.351 . S
C2351 C2352 1.434 . S
C2352 C2343 1.429 . S
C2352 N2349 1.350 . S
C2352 C2351 1.434 . S
C2353 C2354 1.369 . S
C2353 C2355 1.419 . S
C2353 H2357 0.930 . S
C2354 C2353 1.369 . S
C2354 C2363 1.429 . S
C2355 C2353 1.419 . S
C2355 C2356 1.363 . S
C2355 H2358 0.929 . S
C2356 C2355 1.363 . S
C2356 C2362 1.428 . S
H2357 C2353 0.930 . S
H2358 C2355 0.929 . S
S2359 N2360 1.613 . S
S2359 N2361 1.610 . S
N2360 S2359 1.613 . S
N2360 C2363 1.350 . S
N2361 S2359 1.610 . S
N2361 C2362 1.351 . S
C2362 C2356 1.428 . S
C2362 N2361 1.351 . S
C2362 C2363 1.434 . S
C2363 C2354 1.429 . S
C2363 N2360 1.350 . S
C2363 C2362 1.434 . S
C2364 C2365 1.369 . S
C2364 C2366 1.419 . S
C2364 H2368 0.930 . S
C2365 C2364 1.369 . S
C2365 C2374 1.429 . S
C2366 C2364 1.419 . S
C2366 C2367 1.363 . S
C2366 H2369 0.929 . S
C2367 C2366 1.363 . S
C2367 C2373 1.428 . S
H2368 C2364 0.930 . S
H2369 C2366 0.929 . S
S2370 N2371 1.632 1_655 S
S2370 N2372 1.611 1_655 S
N2371 S2370 1.632 1_455 S
N2371 C2374 1.347 . S
N2372 S2370 1.611 1_455 S
N2372 C2373 1.351 . S
C2373 C2367 1.428 . S
C2373 N2372 1.351 . S
C2373 C2374 1.434 . S
C2374 C2365 1.429 . S
C2374 N2371 1.347 . S
C2374 C2373 1.434 . S
C2375 C2376 1.369 . S
C2375 C2377 1.419 . S
C2375 H2379 0.930 . S
C2376 C2375 1.369 . S
C2376 C2385 1.429 . S
C2377 C2375 1.419 . S
C2377 C2378 1.363 . S
C2377 H2380 0.929 . S
C2378 C2377 1.363 . S
C2378 C2384 1.428 . S
H2379 C2375 0.930 . S
H2380 C2377 0.929 . S
S2381 N2382 1.613 . S
S2381 N2383 1.610 . S
N2382 S2381 1.613 . S
N2382 C2385 1.350 . S
N2383 S2381 1.610 . S
N2383 C2384 1.351 . S
C2384 C2378 1.428 . S
C2384 N2383 1.351 . S
C2384 C2385 1.434 . S
C2385 C2376 1.429 . S
C2385 N2382 1.350 . S
C2385 C2384 1.434 . S
C2386 C2387 1.369 1_545 S
C2386 C2388 1.419 . S
C2386 H2390 0.930 . S
C2387 C2386 1.369 1_565 S
C2387 C2396 1.429 . S
C2388 C2386 1.419 . S
C2388 C2389 1.363 1_545 S
C2388 H2391 0.929 . S
C2389 C2388 1.363 1_565 S
C2389 C2395 1.428 . S
H2390 C2386 0.930 . S
H2391 C2388 0.929 . S
S2392 N2393 1.613 . S
S2392 N2394 1.610 . S
N2393 S2392 1.613 . S
N2393 C2396 1.350 . S
N2394 S2392 1.610 . S
N2394 C2395 1.351 . S
C2395 C2389 1.428 . S
C2395 N2394 1.351 . S
C2395 C2396 1.434 . S
C2396 C2387 1.429 . S
C2396 N2393 1.350 . S
C2396 C2395 1.434 . S
C2397 C2398 1.369 . S
C2397 C2399 1.419 . S
C2397 H2401 0.930 . S
C2398 C2397 1.369 . S
C2398 C2407 1.429 1_545 S
C2399 C2397 1.419 . S
C2399 C2400 1.363 . S
C2399 H2402 0.929 . S
C2400 C2399 1.363 . S
C2400 C2406 1.428 1_545 S
H2401 C2397 0.930 . S
H2402 C2399 0.929 . S
S2403 N2404 1.613 . S
S2403 N2405 1.610 . S
N2404 S2403 1.613 . S
N2404 C2407 1.350 . S
N2405 S2403 1.610 . S
N2405 C2406 1.351 . S
C2406 C2400 1.428 1_565 S
C2406 N2405 1.351 . S
C2406 C2407 1.434 . S
C2407 C2398 1.429 1_565 S
C2407 N2404 1.350 . S
C2407 C2406 1.434 . S
C2408 C2409 1.369 . S
C2408 C2410 1.419 . S
C2408 H2412 0.930 . S
C2409 C2408 1.369 . S
C2409 C2418 1.429 1_655 S
C2410 C2408 1.419 . S
C2410 C2411 1.363 . S
C2410 H2413 0.929 . S
C2411 C2410 1.363 . S
C2411 C2417 1.428 1_655 S
H2412 C2408 0.930 . S
H2413 C2410 0.929 . S
S2414 N2415 1.613 . S
S2414 N2416 1.610 . S
N2415 S2414 1.613 . S
N2415 C2418 1.350 . S
N2416 S2414 1.610 . S
N2416 C2417 1.351 . S
C2417 C2411 1.428 1_455 S
C2417 N2416 1.351 . S
C2417 C2418 1.434 . S
C2418 C2409 1.429 1_455 S
C2418 N2415 1.350 . S
C2418 C2417 1.434 . S
C2419 C2420 1.369 . S
C2419 C2421 1.419 . S
C2419 H2423 0.930 . S
C2420 C2419 1.369 . S
C2420 C2429 1.429 . S
C2421 C2419 1.419 . S
C2421 C2422 1.363 . S
C2421 H2424 0.929 . S
C2422 C2421 1.363 . S
C2422 C2428 1.428 . S
H2423 C2419 0.930 . S
H2424 C2421 0.929 . S
S2425 N2426 1.613 . S
S2425 N2427 1.610 . S
N2426 S2425 1.613 . S
N2426 C2429 1.350 . S
N2427 S2425 1.610 . S
N2427 C2428 1.351 . S
C2428 C2422 1.428 . S
C2428 N2427 1.351 . S
C2428 C2429 1.434 . S
C2429 C2420 1.429 . S
C2429 N2426 1.350 . S
C2429 C2428 1.434 . S
C2430 C2431 1.369 . S
C2430 C2432 1.419 . S
C2430 H2434 0.930 1_455 S
C2431 C2430 1.369 . S
C2431 C2440 1.429 . S
C2432 C2430 1.419 . S
C2432 C2433 1.363 . S
C2432 H2435 0.929 . S
C2433 C2432 1.363 . S
C2433 C2439 1.428 . S
H2434 C2430 0.930 1_655 S
H2435 C2432 0.929 . S
S2436 N2437 1.613 . S
S2436 N2438 1.610 . S
N2437 S2436 1.613 . S
N2437 C2440 1.350 . S
N2438 S2436 1.610 . S
N2438 C2439 1.351 . S
C2439 C2433 1.428 . S
C2439 N2438 1.351 . S
C2439 C2440 1.434 . S
C2440 C2431 1.429 . S
C2440 N2437 1.350 . S
C2440 C2439 1.434 . S
C2441 C2442 1.369 . S
C2441 C2443 1.419 . S
C2441 H2445 0.930 . S
C2442 C2441 1.369 . S
C2442 C2451 1.429 . S
C2443 C2441 1.419 . S
C2443 C2444 1.363 . S
C2443 H2446 0.929 . S
C2444 C2443 1.363 . S
C2444 C2450 1.428 . S
H2445 C2441 0.930 . S
H2446 C2443 0.929 . S
S2447 N2448 1.613 . S
S2447 N2449 1.610 . S
N2448 S2447 1.613 . S
N2448 C2451 1.350 . S
N2449 S2447 1.610 . S
N2449 C2450 1.351 . S
C2450 C2444 1.428 . S
C2450 N2449 1.351 . S
C2450 C2451 1.434 . S
C2451 C2442 1.429 . S
C2451 N2448 1.350 . S
C2451 C2450 1.434 . S
C2452 C2453 1.369 . S
C2452 C2454 1.419 . S
C2452 H2456 0.930 . S
C2453 C2452 1.369 . S
C2453 C2462 1.429 . S
C2454 C2452 1.419 . S
C2454 C2455 1.363 . S
C2454 H2457 0.929 . S
C2455 C2454 1.363 . S
C2455 C2461 1.428 . S
H2456 C2452 0.930 . S
H2457 C2454 0.929 . S
S2458 N2459 1.613 . S
S2458 N2460 1.610 1_545 S
N2459 S2458 1.613 . S
N2459 C2462 1.350 1_545 S
N2460 S2458 1.610 1_565 S
N2460 C2461 1.351 . S
C2461 C2455 1.428 . S
C2461 N2460 1.351 . S
C2461 C2462 1.434 . S
C2462 C2453 1.429 . S
C2462 N2459 1.350 1_565 S
C2462 C2461 1.434 . S
C2463 C2464 1.369 . S
C2463 C2465 1.419 . S
C2463 H2467 0.930 . S
C2464 C2463 1.369 . S
C2464 C2473 1.429 . S
C2465 C2463 1.419 . S
C2465 C2466 1.363 . S
C2465 H2468 0.929 . S
C2466 C2465 1.363 . S
C2466 C2472 1.428 . S
H2467 C2463 0.930 . S
H2468 C2465 0.929 . S
S2469 N2470 1.613 1_455 S
S2469 N2471 1.610 . S
N2470 S2469 1.613 1_655 S
N2470 C2473 1.350 . S
N2471 S2469 1.610 . S
N2471 C2472 1.351 1_455 S
C2472 C2466 1.428 . S
C2472 N2471 1.351 1_655 S
C2472 C2473 1.434 . S
C2473 C2464 1.429 . S
C2473 N2470 1.350 . S
C2473 C2472 1.434 . S
C2474 C2475 1.369 . S
C2474 C2476 1.419 . S
C2474 H2478 0.930 . S
C2475 C2474 1.369 . S
C2475 C2484 1.429 . S
C2476 C2474 1.419 . S
C2476 C2477 1.363 . S
C2476 H2479 0.929 . S
C2477 C2476 1.363 . S
C2477 C2483 1.428 . S
H2478 C2474 0.930 . S
H2479 C2476 0.929 . S
S2480 N2481 1.613 . S
S2480 N2482 1.610 . S
N2481 S2480 1.613 . S
N2481 C2484 1.350 . S
N2482 S2480 1.610 . S
N2482 C2483 1.351 . S
C2483 C2477 1.428 . S
C2483 N2482 1.351 . S
C2483 C2484 1.434 . S
C2484 C2475 1.429 . S
C2484 N2481 1.350 . S
C2484 C2483 1.434 . S
C2485 C2486 1.369 . S
C2485 C2487 1.419 . S
C2485 H2489 0.930 . S
C2486 C2485 1.369 . S
C2486 C2495 1.429 . S
C2487 C2485 1.419 . S
C2487 C2488 1.363 . S
C2487 H2490 0.929 . S
C2488 C2487 1.363 . S
C2488 C2494 1.428 . S
H2489 C2485 0.930 . S
H2490 C2487 0.929 . S
S2491 N2492 1.613 . S
S2491 N2493 1.610 . S
N2492 S2491 1.613 . S
N2492 C2495 1.350 . S
N2493 S2491 1.610 . S
N2493 C2494 1.351 . S
C2494 C2488 1.428 . S
C2494 N2493 1.351 . S
C2494 C2495 1.434 . S
C2495 C2486 1.429 . S
C2495 N2492 1.350 . S
C2495 C2494 1.434 . S
C2496 C2497 1.369 . S
C2496 C2498 1.419 . S
C2496 H2500 0.930 . S
C2497 C2496 1.369 . S
C2497 C2506 1.429 . S
C2498 C2496 1.419 . S
C2498 C2499 1.363 . S
C2498 H2501 0.929 . S
C2499 C2498 1.363 . S
C2499 C2505 1.428 . S
H2500 C2496 0.930 . S
H2501 C2498 0.929 . S
S2502 N2503 1.613 . S
S2502 N2504 1.610 . S
N2503 S2502 1.613 . S
N2503 C2506 1.350 . S
N2504 S2502 1.610 . S
N2504 C2505 1.351 . S
C2505 C2499 1.428 . S
C2505 N2504 1.351 . S
C2505 C2506 1.434 . S
C2506 C2497 1.429 . S
C2506 N2503 1.350 . S
C2506 C2505 1.434 . S
C2507 C2508 1.369 . S
C2507 C2509 1.419 . S
C2507 H2511 0.930 . S
C2508 C2507 1.369 . S
C2508 C2517 1.429 . S
C2509 C2507 1.419 . S
C2509 C2510 1.363 . S
C2509 H2512 0.929 . S
C2510 C2509 1.363 . S
C2510 C2516 1.428 . S
H2511 C2507 0.930 . S
H2512 C2509 0.929 . S
S2513 N2514 1.613 . S
S2513 N2515 1.610 . S
N2514 S2513 1.613 . S
N2514 C2517 1.350 . S
N2515 S2513 1.610 . S
N2515 C2516 1.351 . S
C2516 C2510 1.428 . S
C2516 N2515 1.351 . S
C2516 C2517 1.434 . S
C2517 C2508 1.429 . S
C2517 N2514 1.350 . S
C2517 C2516 1.434 . S
C2518 C2519 1.369 . S
C2518 C2520 1.419 . S
C2518 H2522 0.930 . S
C2519 C2518 1.369 . S
C2519 C2528 1.429 . S
C2520 C2518 1.419 . S
C2520 C2521 1.363 . S
C2520 H2523 0.929 . S
C2521 C2520 1.363 . S
C2521 C2527 1.428 . S
H2522 C2518 0.930 . S
H2523 C2520 0.929 . S
S2524 N2525 1.613 . S
S2524 N2526 1.610 . S
N2525 S2524 1.613 . S
N2525 C2528 1.350 . S
N2526 S2524 1.610 . S
N2526 C2527 1.351 . S
C2527 C2521 1.428 . S
C2527 N2526 1.351 . S
C2527 C2528 1.434 . S
C2528 C2519 1.429 . S
C2528 N2525 1.350 . S
C2528 C2527 1.434 . S
C2529 C2530 1.369 . S
C2529 C2531 1.419 . S
C2529 H2533 0.930 . S
C2530 C2529 1.369 . S
C2530 C2539 1.429 . S
C2531 C2529 1.419 . S
C2531 C2532 1.363 . S
C2531 H2534 0.929 . S
C2532 C2531 1.363 . S
C2532 C2538 1.428 . S
H2533 C2529 0.930 . S
H2534 C2531 0.929 . S
S2535 N2536 1.613 . S
S2535 N2537 1.610 . S
N2536 S2535 1.613 . S
N2536 C2539 1.350 . S
N2537 S2535 1.610 . S
N2537 C2538 1.351 . S
C2538 C2532 1.428 . S
C2538 N2537 1.351 . S
C2538 C2539 1.434 . S
C2539 C2530 1.429 . S
C2539 N2536 1.350 . S
C2539 C2538 1.434 . S
C2540 C2541 1.369 . S
C2540 C2542 1.419 . S
C2540 H2544 0.930 . S
C2541 C2540 1.369 . S
C2541 C2550 1.429 . S
C2542 C2540 1.419 . S
C2542 C2543 1.363 . S
C2542 H2545 0.929 . S
C2543 C2542 1.363 . S
C2543 C2549 1.428 . S
H2544 C2540 0.930 . S
H2545 C2542 0.929 . S
S2546 N2547 1.613 . S
S2546 N2548 1.610 . S
N2547 S2546 1.613 . S
N2547 C2550 1.350 . S
N2548 S2546 1.610 . S
N2548 C2549 1.351 . S
C2549 C2543 1.428 . S
C2549 N2548 1.351 . S
C2549 C2550 1.434 . S
C2550 C2541 1.429 . S
C2550 N2547 1.350 . S
C2550 C2549 1.434 . S
C2551 C2552 1.369 . S
C2551 C2553 1.419 . S
C2551 H2555 0.930 . S
C2552 C2551 1.369 . S
C2552 C2561 1.429 . S
C2553 C2551 1.419 . S
C2553 C2554 1.363 . S
C2553 H2556 0.929 . S
C2554 C2553 1.363 . S
C2554 C2560 1.428 . S
H2555 C2551 0.930 . S
H2556 C2553 0.929 . S
S2557 N2558 1.613 . S
S2557 N2559 1.610 . S
N2558 S2557 1.613 . S
N2558 C2561 1.350 . S
N2559 S2557 1.610 . S
N2559 C2560 1.351 . S
C2560 C2554 1.428 . S
C2560 N2559 1.351 . S
C2560 C2561 1.434 . S
C2561 C2552 1.429 . S
C2561 N2558 1.350 . S
C2561 C2560 1.434 . S
C2562 C2563 1.369 . S
C2562 C2564 1.419 . S
C2562 H2566 0.930 . S
C2563 C2562 1.369 . S
C2563 C2572 1.429 . S
C2564 C2562 1.419 . S
C2564 C2565 1.363 . S
C2564 H2567 0.929 . S
C2565 C2564 1.363 . S
C2565 C2571 1.428 . S
H2566 C2562 0.930 . S
H2567 C2564 0.929 . S
S2568 N2569 1.613 . S
S2568 N2570 1.610 . S
N2569 S2568 1.613 . S
N2569 C2572 1.350 . S
N2570 S2568 1.610 . S
N2570 C2571 1.351 . S
C2571 C2565 1.428 . S
C2571 N2570 1.351 . S
C2571 C2572 1.434 . S
C2572 C2563 1.429 . S
C2572 N2569 1.350 . S
C2572 C2571 1.434 . S
C2573 C2574 1.369 . S
C2573 C2575 1.419 . S
C2573 H2577 0.930 . S
C2574 C2573 1.369 . S
C2574 C2583 1.429 . S
C2575 C2573 1.419 . S
C2575 C2576 1.363 . S
C2575 H2578 0.929 . S
C2576 C2575 1.363 . S
C2576 C2582 1.428 . S
H2577 C2573 0.930 . S
H2578 C2575 0.929 . S
S2579 N2580 1.613 . S
S2579 N2581 1.610 . S
N2580 S2579 1.613 . S
N2580 C2583 1.350 . S
N2581 S2579 1.610 . S
N2581 C2582 1.351 . S
C2582 C2576 1.428 . S
C2582 N2581 1.351 . S
C2582 C2583 1.434 . S
C2583 C2574 1.429 . S
C2583 N2580 1.350 . S
C2583 C2582 1.434 . S
C2584 C2585 1.369 . S
C2584 C2586 1.419 . S
C2584 H2588 0.930 . S
C2585 C2584 1.369 . S
C2585 C2594 1.429 . S
C2586 C2584 1.419 . S
C2586 C2587 1.363 . S
C2586 H2589 0.929 . S
C2587 C2586 1.363 . S
C2587 C2593 1.428 . S
H2588 C2584 0.930 . S
H2589 C2586 0.929 . S
S2590 N2591 1.613 . S
S2590 N2592 1.610 . S
N2591 S2590 1.613 . S
N2591 C2594 1.350 . S
N2592 S2590 1.610 . S
N2592 C2593 1.351 . S
C2593 C2587 1.428 . S
C2593 N2592 1.351 . S
C2593 C2594 1.434 . S
C2594 C2585 1.429 . S
C2594 N2591 1.350 . S
C2594 C2593 1.434 . S
C2595 C2596 1.369 . S
C2595 C2597 1.419 . S
C2595 H2599 0.930 . S
C2596 C2595 1.369 . S
C2596 C2605 1.429 . S
C2597 C2595 1.419 . S
C2597 C2598 1.363 . S
C2597 H2600 0.929 . S
C2598 C2597 1.363 . S
C2598 C2604 1.428 . S
H2599 C2595 0.930 . S
H2600 C2597 0.929 . S
S2601 N2602 1.613 . S
S2601 N2603 1.610 . S
N2602 S2601 1.613 . S
N2602 C2605 1.350 . S
N2603 S2601 1.610 . S
N2603 C2604 1.351 . S
C2604 C2598 1.428 . S
C2604 N2603 1.351 . S
C2604 C2605 1.434 . S
C2605 C2596 1.429 . S
C2605 N2602 1.350 . S
C2605 C2604 1.434 . S
C2606 C2607 1.369 . S
C2606 C2608 1.419 . S
C2606 H2610 0.930 . S
C2607 C2606 1.369 . S
C2607 C2616 1.429 . S
C2608 C2606 1.419 . S
C2608 C2609 1.363 . S
C2608 H2611 0.929 . S
C2609 C2608 1.363 . S
C2609 C2615 1.428 . S
H2610 C2606 0.930 . S
H2611 C2608 0.929 . S
S2612 N2613 1.613 . S
S2612 N2614 1.610 . S
N2613 S2612 1.613 . S
N2613 C2616 1.350 . S
N2614 S2612 1.610 . S
N2614 C2615 1.351 . S
C2615 C2609 1.428 . S
C2615 N2614 1.351 . S
C2615 C2616 1.434 . S
C2616 C2607 1.429 . S
C2616 N2613 1.350 . S
C2616 C2615 1.434 . S
C2617 C2618 1.369 . S
C2617 C2619 1.419 . S
C2617 H2621 0.930 . S
C2618 C2617 1.369 . S
C2618 C2627 1.429 . S
C2619 C2617 1.419 . S
C2619 C2620 1.363 . S
C2619 H2622 0.929 . S
C2620 C2619 1.363 . S
C2620 C2626 1.428 . S
H2621 C2617 0.930 . S
H2622 C2619 0.929 . S
S2623 N2624 1.613 . S
S2623 N2625 1.610 . S
N2624 S2623 1.613 . S
N2624 C2627 1.350 . S
N2625 S2623 1.610 . S
N2625 C2626 1.351 . S
C2626 C2620 1.428 . S
C2626 N2625 1.351 . S
C2626 C2627 1.434 . S
C2627 C2618 1.429 . S
C2627 N2624 1.350 . S
C2627 C2626 1.434 . S
C1441 C9 1.205 . S
C1443 C95 1.170 . S
C1452 C15 1.175 . S
C1454 C49 1.202 . S
C1463 C89 1.207 . S
C1465 C55 1.165 . S
C1474 C138 2.629 . S
C1476 C170 2.687 1_455 S
C1485 C210 2.685 . S
C1487 C178 2.628 1_565 S
C1496 C218 2.632 1_455 S
C1498 C130 2.687 1_565 S
C1507 C258 1.200 . S
C1509 C326 1.174 . S
C1518 C298 1.204 . S
C1520 C246 1.172 . S
C1529 C338 1.212 . S
C1531 C286 1.162 . S
C1540 C369 2.632 . S
C1542 C419 2.687 1_655 S
C1551 C459 2.687 . S
C1553 C409 2.630 1_545 S
C1562 C379 2.687 1_545 S
C1564 C449 2.630 1_655 S
C1573 C575 1.176 . S
C1575 C489 1.201 . S
C1584 C529 1.203 . S
C1586 C495 1.169 . S
C1595 C535 1.175 . S
C1597 C569 1.201 . S
C1606 C618 2.632 . S
C1608 C650 2.688 . S
C1617 C690 2.687 . S
C1619 C658 2.632 . S
C1628 C610 2.685 . S
C1630 C698 2.628 . S
C1639 C738 1.212 . S
C1641 C806 1.163 . S
C1650 C778 1.210 . S
C1652 C726 1.163 . S
C1661 C766 1.171 . S
C1663 C818 1.202 . S
C1672 C899 2.686 . S
C1674 C849 2.631 1_554 S
C1683 C889 2.631 1_554 S
C1685 C939 2.686 . S
C1694 C859 2.685 . S
C1696 C929 2.627 . S
C1705 C969 1.200 . S
C1707 C1055 1.173 . S
C1716 C1009 1.204 . S
C1718 C975 1.171 . S
C1727 C1049 1.200 . S
C1729 C1015 1.174 . S
C1738 C1098 2.626 . S
C1740 C1130 2.686 . S
C1749 C1138 2.627 . S
C1751 C1170 2.685 . S
C1760 C1178 2.628 1_556 S
C1762 C1090 2.687 . S
C1771 C1218 1.211 . S
C1773 C1286 1.165 . S
C1782 C1258 1.205 . S
C1784 C1206 1.171 . S
C1793 C1246 1.162 . S
C1795 C1298 1.208 . S
C1804 C1329 2.629 . S
C1806 C1379 2.686 . S
C1815 C1369 2.627 . S
C1817 C1419 2.685 . S
C1826 C1339 2.688 . S
C1828 C1409 2.631 . S
C1837 C6 0.768 . S
C1839 C809 0.776 . S
C1848 C729 0.777 1_565 S
C1850 C46 0.766 . S
C1859 C86 0.747 . S
C1861 C769 0.767 1_455 S
C1870 C139 3.210 . S
C1872 C1378 3.162 . S
C1881 C1418 3.162 1_545 S
C1883 C179 3.210 . S
C1892 C219 3.210 . S
C1894 C1338 3.165 1_655 S
C1903 C1058 0.759 . S
C1905 C255 0.770 . S
C1914 C295 0.755 . S
C1916 C978 0.759 1_545 S
C1925 C335 0.769 . S
C1927 C1018 0.776 1_655 S
C1936 C649 3.163 . S
C1938 C370 3.209 . S
C1947 C689 3.165 1_565 S
C1949 C410 3.209 . S
C1958 C609 3.165 1_455 S
C1960 C450 3.210 . S
C1969 C486 0.749 . S
C1971 C1289 0.777 . S
C1980 C526 0.760 . S
C1982 C1209 0.759 . S
C1991 C1249 0.777 . S
C1993 C566 0.750 . S
C2002 C418 3.160 . S
C2004 C619 3.208 1_455 S
C2013 C458 3.164 . S
C2015 C659 3.206 . S
C2024 C378 3.163 . S
C2026 C699 3.210 1_565 S
C2035 C98 0.759 . S
C2037 C735 0.755 . S
C2046 C775 0.771 . S
C2048 C18 0.760 . S
C2057 C815 0.745 . S
C2059 C58 0.770 . S
C2068 C1129 3.160 . S
C2070 C850 3.209 . S
C2079 C1169 3.164 . S
C2081 C890 3.206 . S
C2090 C930 3.210 . S
C2092 C1089 3.163 . S
C2101 C329 0.756 . S
C2103 C966 0.760 . S
C2112 C249 0.780 . S
C2114 C1006 0.762 . S
C2123 C289 0.768 . S
C2125 C1046 0.749 . S
C2134 C1099 3.210 . S
C2136 C898 3.161 . S
C2145 C938 3.161 . S
C2147 C1139 3.209 . S
C2156 C1179 3.206 . S
C2158 C858 3.164 . S
C2167 C1215 0.776 . S
C2169 C578 0.764 . S
C2178 C1255 0.762 . S
C2180 C498 0.758 . S
C2189 C1295 0.777 . S
C2191 C538 0.768 . S
C2200 C1330 3.206 1_655 S
C2202 C169 3.165 . S
C2211 C209 3.164 . S
C2213 C1370 3.206 . S
C2222 C129 3.166 . S
C2224 C1410 3.209 1_545 S
C2233 C1175 2.536 . S
C2235 C10 2.632 . S
C2244 C1095 2.529 . S
C2246 C50 2.633 . S
C2255 C90 2.632 . S
C2257 C1135 2.530 . S
C2266 C530 2.632 . S
C2268 C135 2.535 . S
C2277 C175 2.533 . S
C2279 C570 2.633 . S
C2288 C215 2.534 . S
C2290 C490 2.631 . S
C2299 C259 2.631 . S
C2301 C926 2.535 . S
C2310 C299 2.633 . S
C2312 C846 2.534 . S
C2321 C339 2.634 . S
C2323 C886 2.532 . S
C2332 C1259 2.631 . S
C2334 C366 2.535 . S
C2343 C1299 2.631 . S
C2345 C406 2.532 . S
C2354 C1219 2.630 . S
C2356 C446 2.535 . S
C2365 C615 2.529 1_455 S
C2367 C1010 2.633 . S
C2376 C655 2.530 . S
C2378 C1050 2.634 . S
C2387 C695 2.533 1_565 S
C2389 C970 2.631 . S
C2398 C739 2.634 . S
C2400 C1406 2.531 1_545 S
C2409 C1326 2.530 1_655 S
C2411 C779 2.634 . S
C2420 C819 2.630 . S
C2422 C1366 2.535 . S
C2431 C166 1.467 1_455 S
C2433 C19 1.567 . S
C2442 C206 1.477 . S
C2444 C59 1.562 . S
C2453 C126 1.474 1_565 S
C2455 C99 1.561 . S
C2464 C250 1.562 . S
C2466 C415 1.469 1_655 S
C2475 C455 1.477 . S
C2477 C290 1.563 . S
C2486 C330 1.561 . S
C2488 C375 1.476 1_545 S
C2497 C646 1.475 . S
C2499 C499 1.561 . S
C2508 C686 1.469 . S
C2510 C539 1.566 . S
C2519 C606 1.473 . S
C2521 C579 1.561 . S
C2530 C895 1.475 . S
C2532 C730 1.561 . S
C2541 C770 1.560 . S
C2543 C935 1.473 . S
C2552 C810 1.565 . S
C2554 C855 1.466 . S
C2563 C979 1.561 . S
C2565 C1126 1.476 . S
C2574 C1166 1.477 . S
C2576 C1019 1.561 . S
C2585 C1059 1.561 . S
C2587 C1086 1.472 . S
C2596 C1210 1.567 . S
C2598 C1375 1.466 . S
C2607 C1415 1.477 . S
C2609 C1250 1.561 . S
C2618 C1290 1.566 . S
C2620 C1335 1.471 . S
