# Generated by pormake.
# Topology uol, (4)-cn, num edge types: 1
# Building blocks:
#     Node 0, Type 0, BuildingBlock: NAWXER_clean_sbu_0, # of connection points: 4
#     Node 1, Type 0, BuildingBlock: NAWXER_clean_sbu_0, # of connection points: 4
#     Node 2, Type 0, BuildingBlock: NAWXER_clean_sbu_0, # of connection points: 4
#     Node 3, Type 0, BuildingBlock: NAWXER_clean_sbu_0, # of connection points: 4
#     Node 4, Type 0, BuildingBlock: NAWXER_clean_sbu_0, # of connection points: 4
#     Node 5, Type 0, BuildingBlock: NAWXER_clean_sbu_0, # of connection points: 4
#     Node 6, Type 0, BuildingBlock: NAWXER_clean_sbu_0, # of connection points: 4
#     Node 7, Type 0, BuildingBlock: NAWXER_clean_sbu_0, # of connection points: 4
#     Node 8, Type 0, BuildingBlock: NAWXER_clean_sbu_0, # of connection points: 4
#     Node 9, Type 0, BuildingBlock: NAWXER_clean_sbu_0, # of connection points: 4
#     Node 10, Type 0, BuildingBlock: NAWXER_clean_sbu_0, # of connection points: 4
#     Node 11, Type 0, BuildingBlock: NAWXER_clean_sbu_0, # of connection points: 4
#     Edge 12, Type (0, 0), BuildingBlock: UVAHIK_clean_linker_0, # of connection points: 2
#     Edge 13, Type (0, 0), BuildingBlock: UVAHIK_clean_linker_0, # of connection points: 2
#     Edge 14, Type (0, 0), BuildingBlock: UVAHIK_clean_linker_0, # of connection points: 2
#     Edge 15, Type (0, 0), BuildingBlock: UVAHIK_clean_linker_0, # of connection points: 2
#     Edge 16, Type (0, 0), BuildingBlock: UVAHIK_clean_linker_0, # of connection points: 2
#     Edge 17, Type (0, 0), BuildingBlock: UVAHIK_clean_linker_0, # of connection points: 2
#     Edge 18, Type (0, 0), BuildingBlock: UVAHIK_clean_linker_0, # of connection points: 2
#     Edge 19, Type (0, 0), BuildingBlock: UVAHIK_clean_linker_0, # of connection points: 2
#     Edge 20, Type (0, 0), BuildingBlock: UVAHIK_clean_linker_0, # of connection points: 2
#     Edge 21, Type (0, 0), BuildingBlock: UVAHIK_clean_linker_0, # of connection points: 2
#     Edge 22, Type (0, 0), BuildingBlock: UVAHIK_clean_linker_0, # of connection points: 2
#     Edge 23, Type (0, 0), BuildingBlock: UVAHIK_clean_linker_0, # of connection points: 2
#     Edge 24, Type (0, 0), BuildingBlock: UVAHIK_clean_linker_0, # of connection points: 2
#     Edge 25, Type (0, 0), BuildingBlock: UVAHIK_clean_linker_0, # of connection points: 2
#     Edge 26, Type (0, 0), BuildingBlock: UVAHIK_clean_linker_0, # of connection points: 2
#     Edge 27, Type (0, 0), BuildingBlock: UVAHIK_clean_linker_0, # of connection points: 2
#     Edge 28, Type (0, 0), BuildingBlock: UVAHIK_clean_linker_0, # of connection points: 2
#     Edge 29, Type (0, 0), BuildingBlock: UVAHIK_clean_linker_0, # of connection points: 2
#     Edge 30, Type (0, 0), BuildingBlock: UVAHIK_clean_linker_0, # of connection points: 2
#     Edge 31, Type (0, 0), BuildingBlock: UVAHIK_clean_linker_0, # of connection points: 2
#     Edge 32, Type (0, 0), BuildingBlock: UVAHIK_clean_linker_0, # of connection points: 2
#     Edge 33, Type (0, 0), BuildingBlock: UVAHIK_clean_linker_0, # of connection points: 2
#     Edge 34, Type (0, 0), BuildingBlock: UVAHIK_clean_linker_0, # of connection points: 2
#     Edge 35, Type (0, 0), BuildingBlock: UVAHIK_clean_linker_0, # of connection points: 2
# Relax obj value: 0.141
# Max RMSD: 0.284
# Mean RMSD: 0.284
data_MOF--net-uol--node1-NAWXER_clean_sbu_0--edge1-UVAHIK_clean_linker_0
_symmetry_space_group_name_H-M    P1
_symmetry_Int_Tables_number       1
_symmetry_cell_setting            triclinic
loop_
_symmetry_equiv_pos_as_xyz
'x, y, z'
_cell_length_a     43.622409
_cell_length_b     43.609315
_cell_length_c     84.846897
_cell_angle_alpha  90.148508
_cell_angle_beta   89.89971
_cell_angle_gamma 119.91457
loop_
_atom_site_label
_atom_site_type_symbol
_atom_site_fract_x
_atom_site_fract_y
_atom_site_fract_z
_atom_type_partial_charge
C0 C 0.13254 0.32202 0.08709 0.0
C1 C 0.05171 0.29684 0.13106 0.0
O2 O 0.14823 0.34234 0.09889 0.0
Zn3 Zn 0.13297 0.35122 0.12207 0.0
O4 O 0.09949 0.30069 0.08779 0.0
Zn5 Zn 0.09216 0.31179 0.1089 0.0
O6 O 0.09742 0.36383 0.10651 0.0
O7 O 0.1424 0.39885 0.12164 0.0
O8 O 0.04556 0.28316 0.1174 0.0
O9 O 0.08278 0.3224 0.13436 0.0
O10 O 0.16366 0.3432 0.13513 0.0
O11 O 0.12326 0.29508 0.123 0.0
C12 C 0.11815 0.39473 0.11221 0.0
C13 C 0.14991 0.31034 0.13236 0.0
C14 C 0.83586 0.14403 0.30347 0.0
C15 C 0.72126 0.11574 0.28255 0.0
O16 O 0.8237 0.11711 0.29419 0.0
Zn17 Zn 0.77555 0.08642 0.28026 0.0
O18 O 0.81775 0.159 0.30606 0.0
Zn19 Zn 0.77891 0.12916 0.29284 0.0
O20 O 0.75623 0.07981 0.30574 0.0
O21 O 0.75559 0.04007 0.28943 0.0
O22 O 0.74206 0.14072 0.29155 0.0
O23 O 0.73014 0.09346 0.27756 0.0
O24 O 0.79379 0.09201 0.25913 0.0
O25 O 0.80339 0.14218 0.26978 0.0
C26 C 0.74913 0.04796 0.30297 0.0
C27 C 0.80703 0.12529 0.25818 0.0
C28 C 0.67343 0.84313 0.47992 0.0
C29 C 0.5909 0.72924 0.45663 0.0
O30 O 0.68968 0.83034 0.47205 0.0
Zn31 Zn 0.67483 0.78292 0.45824 0.0
O32 O 0.63995 0.82557 0.48097 0.0
Zn33 Zn 0.63288 0.7858 0.46855 0.0
O34 O 0.65545 0.76124 0.48319 0.0
O35 O 0.69774 0.76129 0.46894 0.0
O36 O 0.58482 0.74897 0.46558 0.0
O37 O 0.62297 0.73867 0.45298 0.0
O38 O 0.69296 0.80231 0.4378 0.0
O39 O 0.64846 0.80938 0.44528 0.0
C40 C 0.68016 0.75357 0.48168 0.0
C41 C 0.67203 0.81395 0.43501 0.0
C42 C 0.83031 0.65624 0.60679 0.0
C43 C 0.91596 0.66977 0.64761 0.0
O44 O 0.82229 0.64268 0.62051 0.0
Zn45 Zn 0.871 0.66124 0.62794 0.0
O46 O 0.86281 0.67581 0.60293 0.0
Zn47 Zn 0.91428 0.69685 0.61261 0.0
O48 O 0.93569 0.6774 0.59857 0.0
O49 O 0.89089 0.63648 0.61239 0.0
O50 O 0.92961 0.68698 0.63489 0.0
O51 O 0.88248 0.65119 0.64895 0.0
O52 O 0.88742 0.71538 0.63049 0.0
O53 O 0.92999 0.74775 0.61359 0.0
C54 C 0.91517 0.64498 0.60198 0.0
C55 C 0.90928 0.74552 0.62468 0.0
C56 C 0.18467 0.84361 0.80334 0.0
C57 C 0.29298 0.86907 0.77593 0.0
O58 O 0.19341 0.86786 0.79288 0.0
Zn59 Zn 0.23618 0.89535 0.77592 0.0
O60 O 0.20418 0.83 0.8055 0.0
Zn61 Zn 0.23827 0.8567 0.78954 0.0
O62 O 0.26339 0.90938 0.79997 0.0
O63 O 0.25636 0.94337 0.78286 0.0
O64 O 0.27551 0.84593 0.78628 0.0
O65 O 0.28169 0.88953 0.77111 0.0
O66 O 0.21068 0.88365 0.75635 0.0
O67 O 0.20553 0.83687 0.76862 0.0
C68 C 0.26772 0.93978 0.79609 0.0
C69 C 0.19725 0.85032 0.75708 0.0
C70 C 0.3085 0.24979 0.96161 0.0
C71 C 0.33421 0.19153 0.91874 0.0
O72 O 0.33416 0.24459 0.96514 0.0
Zn73 Zn 0.3631 0.2225 0.95347 0.0
O74 O 0.29469 0.24126 0.948 0.0
Zn75 Zn 0.32338 0.22275 0.93995 0.0
O76 O 0.307 0.17609 0.95469 0.0
O77 O 0.35505 0.18449 0.9671 0.0
O78 O 0.31246 0.20284 0.91907 0.0
O79 O 0.35453 0.19713 0.93062 0.0
O80 O 0.41069 0.26083 0.95263 0.0
O81 O 0.37522 0.26922 0.93707 0.0
C82 C 0.32221 0.16526 0.96435 0.0
C83 C 0.40624 0.27999 0.94274 0.0
C84 C 0.71401 0.87971 0.69962 0.0
C85 C 0.61729 0.8906 0.72249 0.0
O86 O 0.72525 0.90425 0.71011 0.0
Zn87 Zn 0.70158 0.92608 0.72605 0.0
O88 O 0.68107 0.86158 0.69682 0.0
Zn89 Zn 0.66627 0.88502 0.71155 0.0
O90 O 0.68976 0.93802 0.70141 0.0
O91 O 0.72508 0.97445 0.71973 0.0
O92 O 0.61635 0.86857 0.71244 0.0
O93 O 0.64713 0.91359 0.72838 0.0
O94 O 0.71329 0.91683 0.74664 0.0
O95 O 0.67701 0.86807 0.73383 0.0
C96 C 0.7121 0.96958 0.70597 0.0
C97 C 0.69551 0.88332 0.74613 0.0
C98 C 0.80444 0.66589 0.91526 0.0
C99 C 0.7521 0.6941 0.8711 0.0
O100 O 0.8004 0.64597 0.90334 0.0
Zn101 Zn 0.77686 0.63803 0.87993 0.0
O102 O 0.79266 0.68723 0.91463 0.0
Zn103 Zn 0.77555 0.67708 0.89344 0.0
O104 O 0.72872 0.62541 0.89562 0.0
O105 O 0.73814 0.59056 0.88004 0.0
O106 O 0.75871 0.70669 0.88497 0.0
O107 O 0.75726 0.66835 0.86763 0.0
O108 O 0.81574 0.64592 0.86695 0.0
O109 O 0.82433 0.69333 0.88009 0.0
C110 C 0.71829 0.59463 0.88971 0.0
C111 C 0.83562 0.67828 0.87049 0.0
C112 C 0.14979 0.82368 0.03862 0.0
C113 C 0.11849 0.70988 0.06137 0.0
O114 O 0.12303 0.81313 0.04787 0.0
Zn115 Zn 0.09227 0.76695 0.06288 0.0
O116 O 0.16378 0.80449 0.03664 0.0
Zn117 Zn 0.13295 0.76701 0.05025 0.0
O118 O 0.08261 0.74464 0.03781 0.0
O119 O 0.04565 0.74795 0.05452 0.0
O120 O 0.14245 0.729 0.05162 0.0
O121 O 0.09778 0.72056 0.06666 0.0
O122 O 0.09939 0.78801 0.08332 0.0
O123 O 0.14813 0.79291 0.07316 0.0
C124 C 0.05154 0.73936 0.04104 0.0
C125 C 0.13228 0.79917 0.08442 0.0
C126 C 0.31243 0.04692 0.20911 0.0
C127 C 0.32907 0.12345 0.25402 0.0
O128 O 0.33746 0.07873 0.20661 0.0
Zn129 Zn 0.36363 0.1278 0.21999 0.0
O130 O 0.29714 0.03896 0.22243 0.0
Zn131 Zn 0.32259 0.08514 0.23174 0.0
O132 O 0.30704 0.11614 0.21699 0.0
O133 O 0.35654 0.15916 0.20693 0.0
O134 O 0.30741 0.09063 0.25238 0.0
O135 O 0.35135 0.14019 0.24299 0.0
O136 O 0.41151 0.13846 0.22207 0.0
O137 O 0.37458 0.09162 0.23584 0.0
C138 C 0.32315 0.14386 0.20831 0.0
C139 C 0.40623 0.11356 0.23134 0.0
C140 C 0.29396 0.41212 0.39448 0.0
C141 C 0.18139 0.32279 0.37271 0.0
O142 O 0.28386 0.38184 0.40079 0.0
Zn143 Zn 0.23962 0.32896 0.39811 0.0
O144 O 0.27524 0.4147 0.38373 0.0
Zn145 Zn 0.23781 0.36632 0.38336 0.0
O146 O 0.21137 0.35853 0.40595 0.0
O147 O 0.21917 0.31903 0.4188 0.0
O148 O 0.19987 0.3553 0.36912 0.0
O149 O 0.19276 0.30963 0.38318 0.0
O150 O 0.26058 0.30149 0.39108 0.0
O151 O 0.26068 0.33726 0.37279 0.0
C152 C 0.20636 0.33954 0.41827 0.0
C153 C 0.26756 0.31314 0.37708 0.0
C154 C 0.89397 0.31817 0.55924 0.0
C155 C 0.8568 0.19899 0.54096 0.0
O156 O 0.91474 0.30777 0.56463 0.0
Zn157 Zn 0.91692 0.25923 0.56339 0.0
O158 O 0.86774 0.29718 0.55089 0.0
Zn159 Zn 0.87589 0.25792 0.55054 0.0
O160 O 0.86117 0.23486 0.57387 0.0
O161 O 0.91049 0.24318 0.58481 0.0
O162 O 0.84387 0.21873 0.53794 0.0
O163 O 0.88387 0.21042 0.55008 0.0
O164 O 0.96256 0.2744 0.55468 0.0
O165 O 0.92558 0.27692 0.53774 0.0
C166 C 0.87742 0.2312 0.58567 0.0
C167 C 0.95636 0.2814 0.54094 0.0
C168 C 0.13785 0.66476 0.06036 0.0
C169 C 0.1151 0.67589 0.06659 0.0
C170 C 0.13581 0.63341 0.06544 0.0
C171 C 0.0782 0.54822 0.08516 0.0
H172 H 0.16717 0.55091 0.09269 0.0
C173 C 0.13665 0.45883 0.11466 0.0
C174 C 0.11451 0.42561 0.10775 0.0
C175 C 0.13457 0.48847 0.11014 0.0
C176 C 0.14205 0.54971 0.09077 0.0
H177 H 0.07181 0.66228 0.08287 0.0
H178 H 0.06842 0.60735 0.09187 0.0
H179 H 0.16741 0.60413 0.0841 0.0
H180 H 0.07218 0.39743 0.09088 0.0
H181 H 0.06883 0.44952 0.08284 0.0
H182 H 0.05293 0.49368 0.09207 0.0
C183 C 0.08769 0.62294 0.08295 0.0
C184 C 0.1422 0.58016 0.08567 0.0
C185 C 0.08976 0.65449 0.07785 0.0
C186 C 0.08965 0.42263 0.09642 0.0
C187 C 0.08759 0.45243 0.09188 0.0
C188 C 0.07805 0.5176 0.09025 0.0
C189 C 0.111 0.61228 0.07691 0.0
C190 C 0.11032 0.5798 0.08272 0.0
C191 C 0.11038 0.48579 0.09855 0.0
C192 C 0.11002 0.51804 0.09313 0.0
H193 H 0.15752 0.68039 0.05158 0.0
H194 H 0.15371 0.62566 0.06033 0.0
H195 H 0.0532 0.54702 0.0829 0.0
H196 H 0.1559 0.46209 0.12352 0.0
H197 H 0.15206 0.51361 0.11573 0.0
C198 C 0.65908 0.08049 0.27243 0.0
C199 C 0.68729 0.11277 0.27778 0.0
C200 C 0.62683 0.07787 0.26821 0.0
C201 C 0.57652 0.12644 0.27191 0.0
H202 H 0.52143 0.06528 0.23742 0.0
C203 C 0.47046 0.14081 0.23759 0.0
C204 C 0.43658 0.11068 0.2372 0.0
C205 C 0.49929 0.13865 0.24333 0.0
C206 C 0.53647 0.08219 0.24716 0.0
H207 H 0.70423 0.16782 0.28249 0.0
H208 H 0.64902 0.16384 0.27446 0.0
H209 H 0.5757 0.06657 0.24567 0.0
H210 H 0.40638 0.05454 0.24226 0.0
H211 H 0.45745 0.05058 0.25182 0.0
H212 H 0.53805 0.14333 0.27273 0.0
C213 C 0.65093 0.14004 0.2741 0.0
C214 C 0.56749 0.08288 0.25197 0.0
C215 C 0.68282 0.14246 0.27859 0.0
C216 C 0.43219 0.07819 0.24248 0.0
C217 C 0.4613 0.07587 0.24788 0.0
C218 C 0.54598 0.12626 0.26688 0.0
C219 C 0.6223 0.10765 0.26897 0.0
C220 C 0.58819 0.10533 0.26431 0.0
C221 C 0.49499 0.10618 0.24846 0.0
C222 C 0.52587 0.10437 0.2544 0.0
H223 H 0.6617 0.05709 0.27177 0.0
H224 H 0.60536 0.05235 0.26455 0.0
H225 H 0.59103 0.14333 0.28173 0.0
H226 H 0.47463 0.16624 0.23367 0.0
H227 H 0.5251 0.16232 0.2436 0.0
C228 C 0.56758 0.67439 0.44001 0.0
C229 C 0.56121 0.69592 0.45031 0.0
C230 C 0.53945 0.64331 0.43383 0.0
C231 C 0.44344 0.60017 0.42601 0.0
H232 H 0.44999 0.51501 0.42206 0.0
C233 C 0.34603 0.44194 0.41275 0.0
C234 C 0.32642 0.444 0.40007 0.0
C235 C 0.37562 0.4724 0.4185 0.0
C236 C 0.44766 0.53851 0.42317 0.0
H237 H 0.52022 0.70136 0.46234 0.0
H238 H 0.47131 0.64707 0.4517 0.0
H239 H 0.49933 0.5684 0.4333 0.0
H240 H 0.32314 0.47965 0.38325 0.0
H241 H 0.37489 0.53258 0.39314 0.0
H242 H 0.39155 0.57019 0.41622 0.0
C243 C 0.49801 0.65446 0.4482 0.0
C244 C 0.4761 0.56922 0.42945 0.0
C245 C 0.5261 0.6855 0.45438 0.0
C246 C 0.3375 0.47711 0.39309 0.0
C247 C 0.36707 0.50752 0.39882 0.0
C248 C 0.41507 0.56952 0.41973 0.0
C249 C 0.50431 0.63306 0.43779 0.0
C250 C 0.47428 0.6004 0.43099 0.0
C251 C 0.38629 0.50562 0.4117 0.0
C252 C 0.41679 0.53829 0.41823 0.0
H253 H 0.59429 0.68167 0.4366 0.0
H254 H 0.54522 0.62765 0.42571 0.0
H255 H 0.44129 0.62382 0.42685 0.0
H256 H 0.33819 0.41687 0.41842 0.0
H257 H 0.38961 0.47003 0.42853 0.0
C258 C 0.88755 0.58398 0.59119 0.0
C259 C 0.91833 0.61641 0.59417 0.0
C260 C 0.88972 0.5553 0.58522 0.0
C261 C 0.94292 0.51404 0.58644 0.0
H262 H 0.88596 0.45896 0.55099 0.0
C263 C 0.93358 0.38117 0.56789 0.0
C264 C 0.90049 0.35435 0.5625 0.0
C265 C 0.93972 0.41557 0.5704 0.0
C266 C 0.90173 0.47374 0.56103 0.0
H267 H 0.97555 0.64453 0.59313 0.0
H268 H 0.97943 0.59349 0.58309 0.0
H269 H 0.88983 0.5153 0.55735 0.0
H270 H 0.84765 0.34238 0.55592 0.0
H271 H 0.85774 0.40151 0.56086 0.0
H272 H 0.95323 0.4717 0.59077 0.0
C273 C 0.95367 0.59072 0.58517 0.0
C274 C 0.9042 0.5062 0.56455 0.0
C275 C 0.95145 0.61985 0.5908 0.0
C276 C 0.87357 0.3625 0.55992 0.0
C277 C 0.87951 0.39663 0.56262 0.0
C278 C 0.94 0.48121 0.58309 0.0
C279 C 0.92276 0.55815 0.58243 0.0
C280 C 0.9243 0.52636 0.57744 0.0
C281 C 0.91276 0.42381 0.56775 0.0
C282 C 0.91872 0.46024 0.57053 0.0
H283 H 0.86168 0.58065 0.59367 0.0
H284 H 0.86552 0.53044 0.58332 0.0
H285 H 0.9583 0.52898 0.59655 0.0
H286 H 0.95494 0.37575 0.5699 0.0
H287 H 0.96576 0.43578 0.57419 0.0
C288 C 0.55164 0.858 0.72632 0.0
C289 C 0.58421 0.88954 0.72744 0.0
C290 C 0.52038 0.85673 0.73119 0.0
C291 C 0.48709 0.90758 0.75442 0.0
H292 H 0.39843 0.84145 0.73437 0.0
C293 C 0.35295 0.90476 0.76358 0.0
C294 C 0.32611 0.87235 0.76956 0.0
C295 C 0.38471 0.90795 0.75807 0.0
C296 C 0.42306 0.86003 0.74004 0.0
H297 H 0.60955 0.94473 0.73424 0.0
H298 H 0.555 0.94321 0.74194 0.0
H299 H 0.45334 0.84574 0.72509 0.0
H300 H 0.31112 0.81773 0.77412 0.0
H301 H 0.36612 0.82307 0.76392 0.0
H302 H 0.45634 0.92261 0.76893 0.0
C303 C 0.55346 0.91892 0.73789 0.0
C304 C 0.4546 0.86233 0.73486 0.0
C305 C 0.58484 0.91994 0.73336 0.0
C306 C 0.33138 0.84307 0.76964 0.0
C307 C 0.36273 0.84604 0.76376 0.0
C308 C 0.4556 0.90582 0.75933 0.0
C309 C 0.5207 0.88723 0.73697 0.0
C310 C 0.48712 0.88582 0.74209 0.0
C311 C 0.38977 0.87857 0.75807 0.0
C312 C 0.4233 0.88175 0.75231 0.0
H313 H 0.55037 0.83403 0.72195 0.0
H314 H 0.49606 0.83156 0.73061 0.0
H315 H 0.51123 0.92552 0.76056 0.0
H316 H 0.34967 0.9278 0.76344 0.0
H317 H 0.40522 0.93328 0.75369 0.0
C318 C 0.47063 0.32526 0.9439 0.0
C319 C 0.43683 0.31405 0.93764 0.0
C320 C 0.49989 0.35661 0.93877 0.0
C321 C 0.52689 0.44142 0.91867 0.0
H322 H 0.61331 0.43906 0.91086 0.0
C323 C 0.67308 0.53032 0.88776 0.0
C324 C 0.68404 0.56377 0.89442 0.0
C325 C 0.64182 0.50068 0.89269 0.0
C326 C 0.58933 0.44014 0.91286 0.0
H327 H 0.40725 0.32749 0.92126 0.0
H328 H 0.45858 0.38229 0.91221 0.0
H329 H 0.56091 0.38601 0.92005 0.0
H330 H 0.67016 0.59237 0.91127 0.0
H331 H 0.61552 0.54037 0.91997 0.0
H332 H 0.55544 0.4956 0.91125 0.0
C333 C 0.46228 0.36684 0.92119 0.0
C334 C 0.55939 0.40981 0.91832 0.0
C335 C 0.43291 0.33534 0.92632 0.0
C336 C 0.66249 0.56699 0.90589 0.0
C337 C 0.6311 0.53724 0.91083 0.0
C338 C 0.55699 0.47189 0.91325 0.0
C339 C 0.49617 0.37761 0.92724 0.0
C340 C 0.52781 0.41006 0.92132 0.0
C341 C 0.62066 0.50366 0.90442 0.0
C342 C 0.58853 0.47155 0.91025 0.0
H343 H 0.47463 0.30967 0.95271 0.0
H344 H 0.52551 0.36443 0.94387 0.0
H345 H 0.50304 0.44253 0.92098 0.0
H346 H 0.68886 0.52687 0.87881 0.0
H347 H 0.63424 0.47533 0.8873 0.0
C348 C 0.32105 0.1926 0.19387 0.0
C349 C 0.3032 0.15813 0.19999 0.0
C350 C 0.30258 0.20637 0.18597 0.0
C351 C 0.21235 0.19309 0.17997 0.0
H352 H 0.25889 0.2585 0.14552 0.0
C353 C 0.14582 0.25309 0.14054 0.0
C354 C 0.16527 0.29021 0.13958 0.0
C355 C 0.16077 0.23441 0.14741 0.0
C356 C 0.24561 0.24026 0.15512 0.0
H357 H 0.25191 0.1109 0.20254 0.0
H358 H 0.21965 0.13453 0.18828 0.0
H359 H 0.28819 0.22994 0.15813 0.0
H360 H 0.21567 0.3368 0.1449 0.0
H361 H 0.24188 0.30415 0.15654 0.0
H362 H 0.16946 0.20328 0.17662 0.0
C363 C 0.24788 0.15128 0.18991 0.0
C364 C 0.26245 0.22405 0.16244 0.0
C365 C 0.26638 0.13765 0.19802 0.0
C366 C 0.19996 0.30822 0.14551 0.0
C367 C 0.21506 0.28956 0.15209 0.0
C368 C 0.19526 0.20896 0.17245 0.0
C369 C 0.26578 0.18585 0.18376 0.0
C370 C 0.24641 0.20082 0.17519 0.0
C371 C 0.19563 0.25253 0.15312 0.0
C372 C 0.21207 0.2332 0.16018 0.0
H373 H 0.34937 0.20922 0.19533 0.0
H374 H 0.31721 0.23338 0.18178 0.0
H375 H 0.1993 0.17567 0.18983 0.0
H376 H 0.119 0.23852 0.1361 0.0
H377 H 0.14533 0.20583 0.14805 0.0
C378 C 0.89485 0.14745 0.3056 0.0
C379 C 0.87094 0.15795 0.31094 0.0
C380 C 0.92851 0.16183 0.31232 0.0
C381 C 0.97951 0.20631 0.34792 0.0
H382 H 0.06113 0.24512 0.32021 0.0
C383 C 0.12267 0.26696 0.37124 0.0
C384 C 0.14665 0.30046 0.36511 0.0
C385 C 0.08926 0.24657 0.36445 0.0
C386 C 0.03856 0.23432 0.32808 0.0
H387 H 0.8633 0.19113 0.32776 0.0
H388 H 0.92181 0.21586 0.33956 0.0
H389 H 1.00158 0.21449 0.30896 0.0
H390 H 0.1547 0.33845 0.34682 0.0
H391 H 0.09649 0.30272 0.33492 0.0
H392 H 0.01644 0.22665 0.36702 0.0
C393 C 0.91454 0.19656 0.33018 0.0
C394 C 1.00453 0.21656 0.32165 0.0
C395 C 0.88112 0.18255 0.32334 0.0
C396 C 0.13681 0.31279 0.35185 0.0
C397 C 0.10357 0.29225 0.34496 0.0
C398 C 0.01352 0.22371 0.35434 0.0
C399 C 0.93868 0.18657 0.32466 0.0
C400 C 0.97469 0.20287 0.3315 0.0
C401 C 0.07933 0.25909 0.35128 0.0
C402 C 0.04337 0.23835 0.34448 0.0
H403 H 0.8878 0.12858 0.29605 0.0
H404 H 0.94656 0.15353 0.30791 0.0
H405 H 0.95695 0.19577 0.35578 0.0
H406 H 0.12946 0.25671 0.38146 0.0
H407 H 0.07116 0.221 0.36949 0.0
C408 C 0.85761 0.14316 0.53444 0.0
C409 C 0.83994 0.16268 0.53441 0.0
C410 C 0.84121 0.1087 0.52835 0.0
C411 C 0.76511 0.04647 0.50316 0.0
H412 H 0.78045 0.97511 0.52288 0.0
C413 C 0.67598 0.89731 0.49135 0.0
C414 C 0.69344 0.87879 0.48706 0.0
C415 C 0.69504 0.93184 0.49717 0.0
C416 C 0.77614 0.99488 0.51722 0.0
H417 H 0.79096 0.16114 0.52825 0.0
H418 H 0.76199 0.101 0.51824 0.0
H419 H 0.81151 0.03576 0.53289 0.0
H420 H 0.74447 0.88162 0.48594 0.0
H421 H 0.7777 0.94187 0.4965 0.0
H422 H 0.7288 0.00513 0.48787 0.0
C423 C 0.78893 0.11245 0.52243 0.0
C424 C 0.79406 0.02969 0.52287 0.0
C425 C 0.80549 0.14697 0.52828 0.0
C426 C 0.73029 0.89524 0.48911 0.0
C427 C 0.74929 0.92962 0.49519 0.0
C428 C 0.74684 0.01161 0.4977 0.0
C429 C 0.80657 0.09283 0.5223 0.0
C430 C 0.78861 0.05595 0.51597 0.0
C431 C 0.73188 0.94839 0.49906 0.0
C432 C 0.75203 0.98546 0.50472 0.0
H433 H 0.88425 0.15461 0.53904 0.0
H434 H 0.85588 0.0947 0.52826 0.0
H435 H 0.76084 0.06599 0.49725 0.0
H436 H 0.64764 0.88543 0.48989 0.0
H437 H 0.68097 0.94567 0.50019 0.0
C438 C 0.90944 0.78024 0.64761 0.0
C439 C 0.90845 0.7764 0.63117 0.0
C440 C 0.896 0.79986 0.65478 0.0
C441 C 0.86086 0.86047 0.64975 0.0
H442 H 0.7896 0.7969 0.67937 0.0
C443 C 0.77565 0.89688 0.69094 0.0
C444 C 0.73915 0.87234 0.69093 0.0
C445 C 0.79932 0.88943 0.68294 0.0
C446 C 0.80937 0.81495 0.67114 0.0
H447 H 0.89522 0.79208 0.6092 0.0
H448 H 0.87168 0.82689 0.6218 0.0
H449 H 0.82916 0.77965 0.66702 0.0
H450 H 0.6989 0.82095 0.68236 0.0
H451 H 0.74027 0.80768 0.66876 0.0
H452 H 0.84064 0.89577 0.65403 0.0
C453 C 0.88323 0.81497 0.62911 0.0
C454 C 0.83225 0.80525 0.66418 0.0
C455 C 0.8969 0.79529 0.62189 0.0
C456 C 0.72683 0.8404 0.68262 0.0
C457 C 0.7505 0.83275 0.67486 0.0
C458 C 0.83819 0.87049 0.65698 0.0
C459 C 0.88093 0.81575 0.64565 0.0
C460 C 0.85817 0.82778 0.65337 0.0
C461 C 0.78698 0.85706 0.67502 0.0
C462 C 0.812 0.84759 0.66762 0.0
H463 H 0.91794 0.76562 0.65499 0.0
H464 H 0.89503 0.80046 0.66753 0.0
H465 H 0.88052 0.87824 0.64143 0.0
H466 H 0.78595 0.92182 0.69715 0.0
H467 H 0.82735 0.90852 0.68331 0.0
C468 C 0.8964 0.73175 0.86971 0.0
C469 C 0.87192 0.69793 0.86401 0.0
C470 C 0.93121 0.74932 0.86409 0.0
C471 C 0.99647 0.73196 0.84394 0.0
H472 H 0.04582 0.8329 0.83594 0.0
C473 C 0.12705 0.84163 0.80811 0.0
C474 C 0.15118 0.8305 0.8122 0.0
C475 C 0.09431 0.82743 0.81567 0.0
C476 C 0.03235 0.80465 0.83805 0.0
H477 H 0.86455 0.65649 0.84763 0.0
H478 H 0.92478 0.68734 0.83764 0.0
H479 H 0.98543 0.80397 0.84605 0.0
H480 H 0.16038 0.79669 0.82787 0.0
H481 H 0.10354 0.77242 0.84128 0.0
H482 H 0.04272 0.73228 0.8354 0.0
C483 C 0.91745 0.7 0.84672 0.0
C484 C 0.99786 0.78814 0.84401 0.0
C485 C 0.88279 0.6824 0.85237 0.0
C486 C 0.14228 0.80563 0.82435 0.0
C487 C 0.1096 0.79157 0.83198 0.0
C488 C 0.03083 0.74842 0.83793 0.0
C489 C 0.94222 0.7335 0.85262 0.0
C490 C 0.97938 0.75152 0.84688 0.0
C491 C 0.08498 0.80189 0.82756 0.0
C492 C 0.04913 0.78492 0.83479 0.0
H493 H 0.8889 0.74438 0.87873 0.0
H494 H 0.94969 0.77497 0.869 0.0
H495 H 0.98325 0.70381 0.84625 0.0
H496 H 0.13302 0.86067 0.79876 0.0
H497 H 0.07587 0.83566 0.81181 0.0
C498 C 0.14536 0.87577 0.02902 0.0
C499 C 0.16482 0.8582 0.03052 0.0
C500 C 0.15988 0.90835 0.02124 0.0
C501 C 0.23363 0.96639 0.99405 0.0
H502 H 0.21487 0.03946 0.00916 0.0
C503 C 0.31982 0.11338 0.97795 0.0
C504 C 0.302 0.13014 0.97186 0.0
C505 C 0.30093 0.07971 0.98458 0.0
C506 C 0.22004 0.01913 0.00476 0.0
H507 H 0.21502 0.86134 0.02538 0.0
H508 H 0.24077 0.9184 0.01246 0.0
H509 H 0.18605 0.98148 0.02187 0.0
H510 H 0.25048 0.12511 0.96826 0.0
H511 H 0.21743 0.06633 0.98033 0.0
H512 H 0.26881 0.00472 0.97741 0.0
C513 C 0.21385 0.9067 0.01672 0.0
C514 C 0.20344 0.98585 0.01197 0.0
C515 C 0.19917 0.874 0.02426 0.0
C516 C 0.26489 0.11277 0.97281 0.0
C517 C 0.24601 0.07929 0.97975 0.0
C518 C 0.25061 0.99977 0.98706 0.0
C519 C 0.19437 0.92426 0.01498 0.0
C520 C 0.21034 0.95913 0.00682 0.0
C521 C 0.2639 0.06236 0.98554 0.0
C522 C 0.24423 0.02651 0.99244 0.0
H523 H 0.11875 0.86414 0.03368 0.0
H524 H 0.14388 0.92079 0.01997 0.0
H525 H 0.23891 0.94631 0.98944 0.0
H526 H 0.34838 0.12602 0.97734 0.0
H527 H 0.31531 0.06727 0.98907 0.0
C528 C 0.19008 0.33698 0.07419 0.0
C529 C 0.15313 0.32172 0.07324 0.0
C530 C 0.2092 0.33382 0.06165 0.0
C531 C 0.20644 0.31598 0.01913 0.0
H532 H 0.26888 0.27954 0.02936 0.0
C533 C 0.26045 0.26055 0.97145 0.0
C534 C 0.29389 0.26382 0.97359 0.0
C535 C 0.24543 0.27134 0.98324 0.0
C536 C 0.25217 0.29041 0.02625 0.0
H537 H 0.10748 0.29238 0.05813 0.0
H538 H 0.141 0.28743 0.03614 0.0
H539 H 0.23923 0.29266 0.05043 0.0
H540 H 0.3384 0.28229 0.98956 0.0
H541 H 0.31285 0.30229 0.0099 0.0
H542 H 0.21954 0.31416 0.99497 0.0
C543 C 0.1551 0.30166 0.04663 0.0
C544 C 0.23505 0.29779 0.03837 0.0
C545 C 0.1359 0.30437 0.05925 0.0
C546 C 0.31245 0.27913 0.9876 0.0
C547 C 0.29763 0.29037 0.99932 0.0
C548 C 0.22393 0.30905 0.007 0.0
C549 C 0.19185 0.31581 0.0478 0.0
C550 C 0.21169 0.31024 0.03493 0.0
C551 C 0.26365 0.28612 0.99742 0.0
C552 C 0.24671 0.29571 0.01037 0.0
H553 H 0.20416 0.35045 0.08481 0.0
H554 H 0.23755 0.34522 0.06282 0.0
H555 H 0.18885 0.32591 0.01616 0.0
H556 H 0.24534 0.24864 0.96084 0.0
H557 H 0.21902 0.26704 0.9814 0.0
C558 C 0.8278 0.12671 0.23043 0.0
C559 C 0.82836 0.14481 0.24427 0.0
C560 C 0.8497 0.14501 0.21769 0.0
C561 C 0.93401 0.22364 0.20877 0.0
H562 H 0.90042 0.2082 0.16562 0.0
C563 C 0.02786 0.30066 0.15747 0.0
C564 C 0.02384 0.28218 0.14334 0.0
C565 C 1.00244 0.28583 0.16941 0.0
C566 C 0.9104 0.21253 0.17757 0.0
H567 H 0.85203 0.19642 0.25547 0.0
H568 H 0.89061 0.22819 0.23331 0.0
H569 H 0.85877 0.17808 0.18707 0.0
H570 H 0.9898 0.23373 0.1306 0.0
H571 H 0.94621 0.20739 0.15152 0.0
H572 H 0.98574 0.25691 0.19942 0.0
C573 C 0.87313 0.19987 0.23233 0.0
C574 C 0.88644 0.19536 0.18985 0.0
C575 C 0.85088 0.18168 0.24498 0.0
C576 C 0.99359 0.24879 0.14131 0.0
C577 C 0.96842 0.23375 0.15331 0.0
C578 C 0.95805 0.24042 0.1965 0.0
C579 C 0.87298 0.18169 0.21862 0.0
C580 C 0.89804 0.20068 0.20557 0.0
C581 C 0.9726 0.25191 0.1676 0.0
C582 C 0.94663 0.23504 0.18071 0.0
H583 H 0.81072 0.09833 0.22951 0.0
H584 H 0.84921 0.1303 0.2073 0.0
H585 H 0.94377 0.22787 0.22077 0.0
H586 H 0.05074 0.32657 0.15936 0.0
H587 H 0.00628 0.301 0.18008 0.0
C588 C 0.72361 0.98544 0.3125 0.0
C589 C 0.73544 0.02126 0.31574 0.0
C590 C 0.71283 0.96071 0.32472 0.0
C591 C 0.68741 0.94776 0.36725 0.0
H592 H 0.71441 0.87563 0.36459 0.0
C593 C 0.65011 0.84308 0.4162 0.0
C594 C 0.67572 0.83395 0.42035 0.0
C595 C 0.6545 0.86342 0.40276 0.0
C596 C 0.70688 0.89575 0.3656 0.0
H597 H 0.74482 0.05907 0.33439 0.0
H598 H 0.72699 0.0163 0.35567 0.0
H599 H 0.72764 0.9164 0.34279 0.0
H600 H 0.72592 0.83884 0.41354 0.0
H601 H 0.73405 0.875 0.39043 0.0
H602 H 0.66825 0.92825 0.39039 0.0
C603 C 0.7252 0.007 0.34368 0.0
C604 C 0.714 0.91886 0.35296 0.0
C605 C 0.73564 0.03164 0.33145 0.0
C606 C 0.70556 0.84522 0.41064 0.0
C607 C 0.71012 0.86583 0.3973 0.0
C608 C 0.68057 0.92485 0.37996 0.0
C609 C 0.71394 0.97123 0.34051 0.0
C610 C 0.70463 0.9454 0.35366 0.0
C611 C 0.68477 0.87543 0.39322 0.0
C612 C 0.69048 0.8987 0.37936 0.0
H613 H 0.72291 0.97652 0.30051 0.0
H614 H 0.70371 0.93331 0.32177 0.0
H615 H 0.67931 0.96747 0.36816 0.0
H616 H 0.62669 0.83463 0.42336 0.0
H617 H 0.63409 0.86971 0.39987 0.0
C618 C 0.80983 0.64776 0.57917 0.0
C619 C 0.8034 0.65151 0.59506 0.0
C620 C 0.79045 0.65229 0.56729 0.0
C621 C 0.71347 0.66281 0.55763 0.0
H622 H 0.7776 0.72563 0.52568 0.0
C623 C 0.67405 0.73317 0.50984 0.0
C624 C 0.68892 0.73674 0.49475 0.0
C625 C 0.68427 0.71926 0.52234 0.0
C626 C 0.75915 0.70767 0.53433 0.0
H627 H 0.77016 0.6606 0.61114 0.0
H628 H 0.73616 0.66906 0.5902 0.0
H629 H 0.80041 0.7057 0.54691 0.0
H630 H 0.72494 0.72693 0.48084 0.0
H631 H 0.7422 0.7023 0.50243 0.0
H632 H 0.67217 0.66518 0.5449 0.0
C633 C 0.75602 0.66219 0.58697 0.0
C634 C 0.77225 0.69621 0.54655 0.0
C635 C 0.77533 0.65723 0.59895 0.0
C636 C 0.71327 0.725 0.49234 0.0
C637 C 0.72331 0.711 0.50476 0.0
C638 C 0.70023 0.67428 0.54529 0.0
C639 C 0.76453 0.6613 0.57101 0.0
C640 C 0.74961 0.67332 0.55825 0.0
C641 C 0.70952 0.70859 0.52 0.0
C642 C 0.72294 0.69658 0.5334 0.0
H643 H 0.83122 0.64314 0.57589 0.0
H644 H 0.79702 0.65047 0.55513 0.0
H645 H 0.69538 0.64525 0.56649 0.0
H646 H 0.65517 0.74192 0.51209 0.0
H647 H 0.67327 0.71796 0.53393 0.0
C648 C 0.16109 0.84179 0.73282 0.0
C649 C 0.16989 0.82709 0.74555 0.0
C650 C 0.13326 0.82027 0.72271 0.0
C651 C 0.05102 0.73379 0.72057 0.0
H652 H 0.06073 0.75345 0.67577 0.0
C653 C 0.93332 0.68037 0.67615 0.0
C654 C 0.94022 0.67425 0.66064 0.0
C655 C 0.96041 0.69351 0.68746 0.0
C656 C 0.05761 0.7472 0.68822 0.0
H657 H 0.15649 0.77801 0.75749 0.0
H658 H 0.10806 0.7404 0.73972 0.0
H659 H 0.1107 0.78757 0.69309 0.0
H660 H 0.97944 0.67377 0.64511 0.0
H661 H 0.02602 0.69523 0.66485 0.0
H662 H 0.99772 0.69324 0.71557 0.0
C663 C 0.12253 0.76867 0.73768 0.0
C664 C 0.08621 0.76715 0.69819 0.0
C665 C 0.15052 0.79022 0.74776 0.0
C666 C 0.97354 0.67858 0.65697 0.0
C667 C 1.00032 0.69121 0.66825 0.0
C668 C 0.02224 0.71379 0.71055 0.0
C669 C 0.11343 0.78349 0.72509 0.0
C670 C 0.08325 0.76092 0.7145 0.0
C671 C 0.99464 0.70043 0.68341 0.0
C672 C 0.0252 0.72032 0.69424 0.0
H673 H 0.17529 0.87008 0.7308 0.0
H674 H 0.12672 0.83262 0.71325 0.0
H675 H 0.04778 0.72854 0.73311 0.0
H676 H 0.90792 0.67755 0.67921 0.0
H677 H 0.95515 0.70036 0.69904 0.0
C678 C 0.31724 0.16889 0.89107 0.0
C679 C 0.33467 0.17023 0.90519 0.0
C680 C 0.31567 0.14689 0.87869 0.0
C681 C 0.31578 0.0646 0.87131 0.0
H682 H 0.33189 0.09515 0.82773 0.0
C683 C 0.29938 0.96751 0.82139 0.0
C684 C 0.28305 0.96956 0.80749 0.0
C685 C 0.31077 0.99422 0.83281 0.0
C686 C 0.32691 0.08602 0.83981 0.0
H687 H 0.36466 0.14995 0.91728 0.0
H688 H 0.36141 0.11117 0.89573 0.0
H689 H 0.34167 0.13776 0.84857 0.0
H690 H 0.26663 1.00173 0.79452 0.0
H691 H 0.28534 0.04751 0.81451 0.0
H692 H 0.29955 0.01266 0.86269 0.0
C693 C 0.34907 0.12723 0.89425 0.0
C694 C 0.33268 0.11053 0.85175 0.0
C695 C 0.35107 0.14959 0.90655 0.0
C696 C 0.27929 0.99938 0.80505 0.0
C697 C 0.29025 0.02584 0.81653 0.0
C698 C 0.30955 0.03999 0.85939 0.0
C699 C 0.33108 0.12542 0.88025 0.0
C700 C 0.32692 0.10001 0.86761 0.0
C701 C 0.3057 0.02341 0.83068 0.0
C702 C 0.31472 0.05025 0.84344 0.0
H703 H 0.30439 0.18449 0.88964 0.0
H704 H 0.30141 0.14583 0.86807 0.0
H705 H 0.3107 0.05564 0.88343 0.0
H706 H 0.30291 0.945 0.82358 0.0
H707 H 0.32323 0.99173 0.84338 0.0
C708 C 0.68587 0.82604 0.75746 0.0
C709 C 0.69708 0.86213 0.75941 0.0
C710 C 0.68928 0.80661 0.76977 0.0
C711 C 0.73843 0.81936 0.80729 0.0
H712 H 0.67026 0.72007 0.81359 0.0
C713 C 0.74237 0.74306 0.86178 0.0
C714 C 0.74083 0.71056 0.85883 0.0
C715 C 0.73471 0.76026 0.84987 0.0
C716 C 0.68958 0.74774 0.8119 0.0
H717 H 0.71943 0.90581 0.776 0.0
H718 H 0.72422 0.87184 0.79758 0.0
H719 H 0.66089 0.75274 0.79257 0.0
H720 H 0.72874 0.67008 0.84115 0.0
H721 H 0.71485 0.70003 0.82036 0.0
H722 H 0.76673 0.81443 0.82679 0.0
C723 C 0.71386 0.85865 0.78641 0.0
C724 C 0.68433 0.76648 0.79982 0.0
C725 C 0.71088 0.87813 0.77406 0.0
C726 C 0.73024 0.6951 0.84381 0.0
C727 C 0.72216 0.71216 0.83192 0.0
C728 C 0.74341 0.80075 0.81945 0.0
C729 C 0.70361 0.82273 0.78439 0.0
C730 C 0.70872 0.80259 0.79734 0.0
C731 C 0.72493 0.74522 0.83476 0.0
C732 C 0.71909 0.76476 0.82189 0.0
H733 H 0.67528 0.81296 0.74629 0.0
H734 H 0.68151 0.77919 0.76765 0.0
H735 H 0.75828 0.84682 0.80556 0.0
H736 H 0.7504 0.75573 0.87321 0.0
H737 H 0.73667 0.78552 0.85244 0.0
C738 C 0.84933 0.65398 0.92796 0.0
C739 C 0.82503 0.66613 0.92916 0.0
C740 C 0.87174 0.65811 0.94057 0.0
C741 C 0.90873 0.71243 0.97679 0.0
H742 H 0.94195 0.64662 0.98548 0.0
C743 C 0.9919 0.72625 0.03157 0.0
C744 C 0.02336 0.72551 0.0289 0.0
C745 C 0.96639 0.71603 0.01976 0.0
C746 C 0.93297 0.66527 0.98312 0.0
H747 H 0.8037 0.69024 0.9448 0.0
H748 H 0.84154 0.69608 0.96697 0.0
H749 H 0.89859 0.63333 0.96454 0.0
H750 H 0.05201 0.71215 0.01187 0.0
H751 H 0.00699 0.6938 0.99124 0.0
H752 H 0.94267 0.74402 0.99552 0.0
C753 C 0.84441 0.68459 0.95613 0.0
C754 C 0.90822 0.65776 0.97109 0.0
C755 C 0.82244 0.68096 0.94345 0.0
C756 C 0.02812 0.71311 0.0143 0.0
C757 C 1.00231 0.70247 1.00251 0.0
C758 C 0.93304 0.71965 0.9889 0.0
C759 C 0.87002 0.67407 0.95475 0.0
C760 C 0.89577 0.68128 0.96776 0.0
C761 C 0.9715 0.70447 0.00504 0.0
C762 C 0.94545 0.69621 0.99219 0.0
H763 H 0.8521 0.64263 0.91705 0.0
H764 H 0.89129 0.64999 0.93897 0.0
H765 H 0.90063 0.73171 0.97435 0.0
H766 H 0.9873 0.73558 0.04268 0.0
H767 H 0.94271 0.71747 0.02209 0.0
C768 C 0.13746 0.83659 0.10777 0.0
C769 C 0.15251 0.82148 0.09802 0.0
C770 C 0.15727 0.86011 0.11977 0.0
C771 C 0.23214 0.88754 0.1462 0.0
H772 H 0.23426 0.97756 0.14698 0.0
C773 C 0.27773 0.9842 0.19957 0.0
C774 C 0.29981 0.02035 0.19626 0.0
C775 C 0.2633 0.95947 0.18732 0.0
C776 C 0.23412 0.95265 0.14685 0.0
H777 H 0.19983 0.81828 0.0936 0.0
H778 H 0.23425 0.85891 0.11495 0.0
H779 H 0.20124 0.93447 0.12632 0.0
H780 H 0.32475 0.05875 0.17753 0.0
H781 H 0.29893 0.01558 0.15616 0.0
H782 H 0.26434 0.9055 0.16703 0.0
C783 C 0.20717 0.85267 0.11311 0.0
C784 C 0.21502 0.92792 0.13511 0.0
C785 C 0.1875 0.82953 0.10089 0.0
C786 C 0.30789 0.0311 0.18047 0.0
C787 C 0.293 0.00645 0.16823 0.0
C788 C 0.25078 0.91209 0.15814 0.0
C789 C 0.1924 0.86865 0.12247 0.0
C790 C 0.21369 0.89507 0.13471 0.0
C791 C 0.27021 0.97047 0.17154 0.0
C792 C 0.25188 0.94486 0.15858 0.0
H793 H 0.11062 0.83104 0.10587 0.0
H794 H 0.14516 0.87182 0.12693 0.0
H795 H 0.23142 0.86235 0.14616 0.0
H796 H 0.27108 0.97507 0.21161 0.0
H797 H 0.24563 0.93193 0.1902 0.0
C798 C 0.35484 0.17748 0.27119 0.0
C799 C 0.32765 0.14274 0.26816 0.0
C800 C 0.35251 0.19655 0.28397 0.0
C801 C 0.30262 0.18668 0.32121 0.0
H802 H 0.33511 0.28615 0.31452 0.0
C803 C 0.2915 0.273 0.37017 0.0
C804 C 0.28094 0.29721 0.36544 0.0
C805 C 0.30129 0.25583 0.35897 0.0
C806 C 0.32566 0.25835 0.31658 0.0
H807 H 0.27689 0.1006 0.27631 0.0
H808 H 0.27229 0.13408 0.29827 0.0
H809 H 0.34315 0.2521 0.29388 0.0
H810 H 0.27299 0.3228 0.34522 0.0
H811 H 0.2891 0.29236 0.32576 0.0
H812 H 0.28343 0.19252 0.34357 0.0
C813 C 0.29587 0.14645 0.29104 0.0
C814 C 0.33077 0.23887 0.3048 0.0
C815 C 0.2984 0.12725 0.27837 0.0
C816 C 0.28119 0.30448 0.34929 0.0
C817 C 0.29064 0.28709 0.33811 0.0
C818 C 0.29721 0.2061 0.33293 0.0
C819 C 0.32273 0.18151 0.29393 0.0
C820 C 0.31902 0.20267 0.30688 0.0
C821 C 0.30045 0.26223 0.34277 0.0
C822 C 0.30833 0.24213 0.33071 0.0
H823 H 0.37789 0.1901 0.26363 0.0
H824 H 0.37406 0.22318 0.28598 0.0
H825 H 0.2937 0.15903 0.32336 0.0
H826 H 0.29178 0.26695 0.38252 0.0
H827 H 0.30931 0.23737 0.36304 0.0
C828 C 0.18388 0.32492 0.44601 0.0
C829 C 0.18415 0.34005 0.43137 0.0
C830 C 0.16125 0.32344 0.45805 0.0
C831 C 0.07653 0.31898 0.46431 0.0
H832 H 0.10809 0.34321 0.50757 0.0
C833 C 0.97997 0.30601 0.51407 0.0
C834 C 0.98405 0.2932 0.52863 0.0
C835 C 1.0057 0.31578 0.50229 0.0
C836 C 0.09869 0.33593 0.49559 0.0
H837 H 0.16118 0.3659 0.41795 0.0
H838 H 0.12126 0.36277 0.43894 0.0
H839 H 0.15086 0.35251 0.48693 0.0
H840 H 0.01842 0.28067 0.54225 0.0
H841 H 0.06246 0.29651 0.52168 0.0
H842 H 0.02422 0.30105 0.47292 0.0
C843 C 0.13869 0.35221 0.44108 0.0
C844 C 0.12328 0.34144 0.48377 0.0
C845 C 0.16169 0.35416 0.42911 0.0
C846 C 0.01454 0.29068 0.53121 0.0
C847 C 0.04 0.30004 0.51941 0.0
C848 C 0.05184 0.31303 0.47615 0.0
C849 C 0.13808 0.3366 0.45562 0.0
C850 C 0.1124 0.33274 0.46804 0.0
C851 C 0.03592 0.31259 0.50475 0.0
C852 C 0.06252 0.32108 0.49199 0.0
H853 H 0.20089 0.31386 0.44813 0.0
H854 H 0.16114 0.31103 0.46911 0.0
H855 H 0.06735 0.31168 0.4523 0.0
H856 H 0.95688 0.30846 0.51174 0.0
H857 H 1.00188 0.32586 0.49126 0.0
C858 C 0.70859 0.99584 0.68015 0.0
C859 C 0.72473 0.99978 0.69493 0.0
C860 C 0.72266 0.02365 0.66926 0.0
C861 C 0.80693 0.09912 0.65793 0.0
H862 H 0.75166 0.13039 0.63423 0.0
C863 C 0.87495 0.21326 0.61384 0.0
C864 C 0.85747 0.21022 0.59955 0.0
C865 C 0.85715 0.19051 0.62637 0.0
C866 C 0.76746 0.12173 0.6406 0.0
H867 H 0.76768 0.03642 0.71001 0.0
H868 H 0.79236 0.08455 0.69095 0.0
H869 H 0.72285 0.08425 0.65418 0.0
H870 H 0.80732 0.1816 0.58732 0.0
H871 H 0.77657 0.14105 0.60892 0.0
H872 H 0.85118 0.13507 0.6441 0.0
C873 C 0.76887 0.05998 0.68781 0.0
C874 C 0.75092 0.0954 0.65207 0.0
C875 C 0.75459 0.03243 0.69874 0.0
C876 C 0.82145 0.18476 0.59824 0.0
C877 C 0.80377 0.16155 0.61069 0.0
C878 C 0.82334 0.12498 0.64635 0.0
C879 C 0.75338 0.05571 0.67288 0.0
C880 C 0.77055 0.08392 0.66086 0.0
C881 C 0.82158 0.16363 0.62482 0.0
C882 C 0.80391 0.13677 0.63752 0.0
H883 H 0.68552 0.97106 0.67686 0.0
H884 H 0.71031 0.01963 0.6578 0.0
H885 H 0.8226 0.09034 0.66435 0.0
H886 H 0.90263 0.23287 0.61525 0.0
H887 H 0.87154 0.19368 0.6372 0.0
loop_
_geom_bond_atom_site_label_1
_geom_bond_atom_site_label_2
_geom_bond_distance
_geom_bond_site_symmetry_2
_ccdc_geom_bond_type
C0 O2 1.247 . S
C0 O4 1.258 . S
C1 O8 1.247 . S
C1 O9 1.258 . S
O2 C0 1.247 . S
O2 Zn3 2.028 . S
Zn3 O2 2.028 . S
Zn3 O7 2.035 . S
Zn3 O9 2.035 . S
Zn3 O10 2.028 . S
O4 C0 1.258 . S
O4 Zn5 2.035 . S
Zn5 O4 2.035 . S
Zn5 O6 2.028 . S
Zn5 O8 2.028 . S
Zn5 O11 2.035 . S
O6 Zn5 2.028 . S
O6 C12 1.247 . S
O7 Zn3 2.035 . S
O7 C12 1.258 . S
O8 C1 1.247 . S
O8 Zn5 2.028 . S
O9 C1 1.258 . S
O9 Zn3 2.035 . S
O10 Zn3 2.028 . S
O10 C13 1.247 . S
O11 Zn5 2.035 . S
O11 C13 1.258 . S
C12 O6 1.247 . S
C12 O7 1.258 . S
C13 O10 1.247 . S
C13 O11 1.258 . S
C14 O16 1.247 . S
C14 O18 1.258 . S
C15 O22 1.247 . S
C15 O23 1.258 . S
O16 C14 1.247 . S
O16 Zn17 2.028 . S
Zn17 O16 2.028 . S
Zn17 O21 2.035 . S
Zn17 O23 2.035 . S
Zn17 O24 2.028 . S
O18 C14 1.258 . S
O18 Zn19 2.035 . S
Zn19 O18 2.035 . S
Zn19 O20 2.028 . S
Zn19 O22 2.028 . S
Zn19 O25 2.035 . S
O20 Zn19 2.028 . S
O20 C26 1.247 . S
O21 Zn17 2.035 . S
O21 C26 1.258 . S
O22 C15 1.247 . S
O22 Zn19 2.028 . S
O23 C15 1.258 . S
O23 Zn17 2.035 . S
O24 Zn17 2.028 . S
O24 C27 1.247 . S
O25 Zn19 2.035 . S
O25 C27 1.258 . S
C26 O20 1.247 . S
C26 O21 1.258 . S
C27 O24 1.247 . S
C27 O25 1.258 . S
C28 O30 1.247 . S
C28 O32 1.258 . S
C29 O36 1.247 . S
C29 O37 1.258 . S
O30 C28 1.247 . S
O30 Zn31 2.028 . S
Zn31 O30 2.028 . S
Zn31 O35 2.035 . S
Zn31 O37 2.035 . S
Zn31 O38 2.028 . S
O32 C28 1.258 . S
O32 Zn33 2.035 . S
Zn33 O32 2.035 . S
Zn33 O34 2.028 . S
Zn33 O36 2.028 . S
Zn33 O39 2.035 . S
O34 Zn33 2.028 . S
O34 C40 1.247 . S
O35 Zn31 2.035 . S
O35 C40 1.258 . S
O36 C29 1.247 . S
O36 Zn33 2.028 . S
O37 C29 1.258 . S
O37 Zn31 2.035 . S
O38 Zn31 2.028 . S
O38 C41 1.247 . S
O39 Zn33 2.035 . S
O39 C41 1.258 . S
C40 O34 1.247 . S
C40 O35 1.258 . S
C41 O38 1.247 . S
C41 O39 1.258 . S
C42 O44 1.247 . S
C42 O46 1.258 . S
C43 O50 1.247 . S
C43 O51 1.258 . S
O44 C42 1.247 . S
O44 Zn45 2.028 . S
Zn45 O44 2.028 . S
Zn45 O49 2.035 . S
Zn45 O51 2.035 . S
Zn45 O52 2.028 . S
O46 C42 1.258 . S
O46 Zn47 2.035 . S
Zn47 O46 2.035 . S
Zn47 O48 2.028 . S
Zn47 O50 2.028 . S
Zn47 O53 2.035 . S
O48 Zn47 2.028 . S
O48 C54 1.247 . S
O49 Zn45 2.035 . S
O49 C54 1.258 . S
O50 C43 1.247 . S
O50 Zn47 2.028 . S
O51 C43 1.258 . S
O51 Zn45 2.035 . S
O52 Zn45 2.028 . S
O52 C55 1.247 . S
O53 Zn47 2.035 . S
O53 C55 1.258 . S
C54 O48 1.247 . S
C54 O49 1.258 . S
C55 O52 1.247 . S
C55 O53 1.258 . S
C56 O58 1.247 . S
C56 O60 1.258 . S
C57 O64 1.247 . S
C57 O65 1.258 . S
O58 C56 1.247 . S
O58 Zn59 2.028 . S
Zn59 O58 2.028 . S
Zn59 O63 2.035 . S
Zn59 O65 2.035 . S
Zn59 O66 2.028 . S
O60 C56 1.258 . S
O60 Zn61 2.035 . S
Zn61 O60 2.035 . S
Zn61 O62 2.028 . S
Zn61 O64 2.028 . S
Zn61 O67 2.035 . S
O62 Zn61 2.028 . S
O62 C68 1.247 . S
O63 Zn59 2.035 . S
O63 C68 1.258 . S
O64 C57 1.247 . S
O64 Zn61 2.028 . S
O65 C57 1.258 . S
O65 Zn59 2.035 . S
O66 Zn59 2.028 . S
O66 C69 1.247 . S
O67 Zn61 2.035 . S
O67 C69 1.258 . S
C68 O62 1.247 . S
C68 O63 1.258 . S
C69 O66 1.247 . S
C69 O67 1.258 . S
C70 O72 1.247 . S
C70 O74 1.258 . S
C71 O78 1.247 . S
C71 O79 1.258 . S
O72 C70 1.247 . S
O72 Zn73 2.028 . S
Zn73 O72 2.028 . S
Zn73 O77 2.035 . S
Zn73 O79 2.035 . S
Zn73 O80 2.028 . S
O74 C70 1.258 . S
O74 Zn75 2.035 . S
Zn75 O74 2.035 . S
Zn75 O76 2.028 . S
Zn75 O78 2.028 . S
Zn75 O81 2.035 . S
O76 Zn75 2.028 . S
O76 C82 1.247 . S
O77 Zn73 2.035 . S
O77 C82 1.258 . S
O78 C71 1.247 . S
O78 Zn75 2.028 . S
O79 C71 1.258 . S
O79 Zn73 2.035 . S
O80 Zn73 2.028 . S
O80 C83 1.247 . S
O81 Zn75 2.035 . S
O81 C83 1.258 . S
C82 O76 1.247 . S
C82 O77 1.258 . S
C83 O80 1.247 . S
C83 O81 1.258 . S
C84 O86 1.247 . S
C84 O88 1.258 . S
C85 O92 1.247 . S
C85 O93 1.258 . S
O86 C84 1.247 . S
O86 Zn87 2.028 . S
Zn87 O86 2.028 . S
Zn87 O91 2.035 . S
Zn87 O93 2.035 . S
Zn87 O94 2.028 . S
O88 C84 1.258 . S
O88 Zn89 2.035 . S
Zn89 O88 2.035 . S
Zn89 O90 2.028 . S
Zn89 O92 2.028 . S
Zn89 O95 2.035 . S
O90 Zn89 2.028 . S
O90 C96 1.247 . S
O91 Zn87 2.035 . S
O91 C96 1.258 . S
O92 C85 1.247 . S
O92 Zn89 2.028 . S
O93 C85 1.258 . S
O93 Zn87 2.035 . S
O94 Zn87 2.028 . S
O94 C97 1.247 . S
O95 Zn89 2.035 . S
O95 C97 1.258 . S
C96 O90 1.247 . S
C96 O91 1.258 . S
C97 O94 1.247 . S
C97 O95 1.258 . S
C98 O100 1.247 . S
C98 O102 1.258 . S
C99 O106 1.247 . S
C99 O107 1.258 . S
O100 C98 1.247 . S
O100 Zn101 2.028 . S
Zn101 O100 2.028 . S
Zn101 O105 2.035 . S
Zn101 O107 2.035 . S
Zn101 O108 2.028 . S
O102 C98 1.258 . S
O102 Zn103 2.035 . S
Zn103 O102 2.035 . S
Zn103 O104 2.028 . S
Zn103 O106 2.028 . S
Zn103 O109 2.035 . S
O104 Zn103 2.028 . S
O104 C110 1.247 . S
O105 Zn101 2.035 . S
O105 C110 1.258 . S
O106 C99 1.247 . S
O106 Zn103 2.028 . S
O107 C99 1.258 . S
O107 Zn101 2.035 . S
O108 Zn101 2.028 . S
O108 C111 1.247 . S
O109 Zn103 2.035 . S
O109 C111 1.258 . S
C110 O104 1.247 . S
C110 O105 1.258 . S
C111 O108 1.247 . S
C111 O109 1.258 . S
C112 O114 1.247 . S
C112 O116 1.258 . S
C113 O120 1.247 . S
C113 O121 1.258 . S
O114 C112 1.247 . S
O114 Zn115 2.028 . S
Zn115 O114 2.028 . S
Zn115 O119 2.035 . S
Zn115 O121 2.035 . S
Zn115 O122 2.028 . S
O116 C112 1.258 . S
O116 Zn117 2.035 . S
Zn117 O116 2.035 . S
Zn117 O118 2.028 . S
Zn117 O120 2.028 . S
Zn117 O123 2.035 . S
O118 Zn117 2.028 . S
O118 C124 1.247 . S
O119 Zn115 2.035 . S
O119 C124 1.258 . S
O120 C113 1.247 . S
O120 Zn117 2.028 . S
O121 C113 1.258 . S
O121 Zn115 2.035 . S
O122 Zn115 2.028 . S
O122 C125 1.247 . S
O123 Zn117 2.035 . S
O123 C125 1.258 . S
C124 O118 1.247 . S
C124 O119 1.258 . S
C125 O122 1.247 . S
C125 O123 1.258 . S
C126 O128 1.247 . S
C126 O130 1.258 . S
C127 O134 1.247 . S
C127 O135 1.258 . S
O128 C126 1.247 . S
O128 Zn129 2.028 . S
Zn129 O128 2.028 . S
Zn129 O133 2.035 . S
Zn129 O135 2.035 . S
Zn129 O136 2.028 . S
O130 C126 1.258 . S
O130 Zn131 2.035 . S
Zn131 O130 2.035 . S
Zn131 O132 2.028 . S
Zn131 O134 2.028 . S
Zn131 O137 2.035 . S
O132 Zn131 2.028 . S
O132 C138 1.247 . S
O133 Zn129 2.035 . S
O133 C138 1.258 . S
O134 C127 1.247 . S
O134 Zn131 2.028 . S
O135 C127 1.258 . S
O135 Zn129 2.035 . S
O136 Zn129 2.028 . S
O136 C139 1.247 . S
O137 Zn131 2.035 . S
O137 C139 1.258 . S
C138 O132 1.247 . S
C138 O133 1.258 . S
C139 O136 1.247 . S
C139 O137 1.258 . S
C140 O142 1.247 . S
C140 O144 1.258 . S
C141 O148 1.247 . S
C141 O149 1.258 . S
O142 C140 1.247 . S
O142 Zn143 2.028 . S
Zn143 O142 2.028 . S
Zn143 O147 2.035 . S
Zn143 O149 2.035 . S
Zn143 O150 2.028 . S
O144 C140 1.258 . S
O144 Zn145 2.035 . S
Zn145 O144 2.035 . S
Zn145 O146 2.028 . S
Zn145 O148 2.028 . S
Zn145 O151 2.035 . S
O146 Zn145 2.028 . S
O146 C152 1.247 . S
O147 Zn143 2.035 . S
O147 C152 1.258 . S
O148 C141 1.247 . S
O148 Zn145 2.028 . S
O149 C141 1.258 . S
O149 Zn143 2.035 . S
O150 Zn143 2.028 . S
O150 C153 1.247 . S
O151 Zn145 2.035 . S
O151 C153 1.258 . S
C152 O146 1.247 . S
C152 O147 1.258 . S
C153 O150 1.247 . S
C153 O151 1.258 . S
C154 O156 1.247 . S
C154 O158 1.258 . S
C155 O162 1.247 . S
C155 O163 1.258 . S
O156 C154 1.247 . S
O156 Zn157 2.028 . S
Zn157 O156 2.028 . S
Zn157 O161 2.035 . S
Zn157 O163 2.035 . S
Zn157 O164 2.028 . S
O158 C154 1.258 . S
O158 Zn159 2.035 . S
Zn159 O158 2.035 . S
Zn159 O160 2.028 . S
Zn159 O162 2.028 . S
Zn159 O165 2.035 . S
O160 Zn159 2.028 . S
O160 C166 1.247 . S
O161 Zn157 2.035 . S
O161 C166 1.258 . S
O162 C155 1.247 . S
O162 Zn159 2.028 . S
O163 C155 1.258 . S
O163 Zn157 2.035 . S
O164 Zn157 2.028 . S
O164 C167 1.247 . S
O165 Zn159 2.035 . S
O165 C167 1.258 . S
C166 O160 1.247 . S
C166 O161 1.258 . S
C167 O164 1.247 . S
C167 O165 1.258 . S
C168 C169 1.349 . S
C168 C170 1.327 . S
C168 H193 0.950 . S
C169 C168 1.349 . S
C169 C185 1.349 . S
C170 C168 1.327 . S
C170 C189 1.429 . S
C170 H194 0.950 . S
C171 C188 1.574 . S
C171 C190 1.368 . S
C171 H195 0.949 . S
H172 C176 0.949 . S
C173 C174 1.349 . S
C173 C175 1.327 . S
C173 H196 0.950 . S
C174 C173 1.349 . S
C174 C186 1.349 . S
C175 C173 1.327 . S
C175 C191 1.429 . S
C175 H197 0.950 . S
C176 H172 0.949 . S
C176 C184 1.574 . S
C176 C192 1.368 . S
H177 C185 0.950 . S
H178 C183 0.950 . S
H179 C184 0.949 . S
H180 C186 0.950 . S
H181 C187 0.950 . S
H182 C188 0.949 . S
C183 H178 0.950 . S
C183 C185 1.327 . S
C183 C189 1.429 . S
C184 C176 1.574 . S
C184 H179 0.949 . S
C184 C190 1.368 . S
C185 C169 1.349 . S
C185 H177 0.950 . S
C185 C183 1.327 . S
C186 C174 1.349 . S
C186 H180 0.950 . S
C186 C187 1.327 . S
C187 H181 0.950 . S
C187 C186 1.327 . S
C187 C191 1.429 . S
C188 C171 1.574 . S
C188 H182 0.949 . S
C188 C192 1.368 . S
C189 C170 1.429 . S
C189 C183 1.429 . S
C189 C190 1.523 . S
C190 C171 1.368 . S
C190 C184 1.368 . S
C190 C189 1.523 . S
C191 C175 1.429 . S
C191 C187 1.429 . S
C191 C192 1.523 . S
C192 C176 1.368 . S
C192 C188 1.368 . S
C192 C191 1.523 . S
H193 C168 0.950 . S
H194 C170 0.950 . S
H195 C171 0.949 . S
H196 C173 0.950 . S
H197 C175 0.950 . S
C198 C199 1.349 . S
C198 C200 1.327 . S
C198 H223 0.950 . S
C199 C198 1.349 . S
C199 C215 1.349 . S
C200 C198 1.327 . S
C200 C219 1.429 . S
C200 H224 0.950 . S
C201 C218 1.574 . S
C201 C220 1.368 . S
C201 H225 0.949 . S
H202 C206 0.949 . S
C203 C204 1.349 . S
C203 C205 1.327 . S
C203 H226 0.950 . S
C204 C203 1.349 . S
C204 C216 1.349 . S
C205 C203 1.327 . S
C205 C221 1.429 . S
C205 H227 0.950 . S
C206 H202 0.949 . S
C206 C214 1.574 . S
C206 C222 1.368 . S
H207 C215 0.950 . S
H208 C213 0.950 . S
H209 C214 0.949 . S
H210 C216 0.950 . S
H211 C217 0.950 . S
H212 C218 0.949 . S
C213 H208 0.950 . S
C213 C215 1.327 . S
C213 C219 1.429 . S
C214 C206 1.574 . S
C214 H209 0.949 . S
C214 C220 1.368 . S
C215 C199 1.349 . S
C215 H207 0.950 . S
C215 C213 1.327 . S
C216 C204 1.349 . S
C216 H210 0.950 . S
C216 C217 1.327 . S
C217 H211 0.950 . S
C217 C216 1.327 . S
C217 C221 1.429 . S
C218 C201 1.574 . S
C218 H212 0.949 . S
C218 C222 1.368 . S
C219 C200 1.429 . S
C219 C213 1.429 . S
C219 C220 1.523 . S
C220 C201 1.368 . S
C220 C214 1.368 . S
C220 C219 1.523 . S
C221 C205 1.429 . S
C221 C217 1.429 . S
C221 C222 1.523 . S
C222 C206 1.368 . S
C222 C218 1.368 . S
C222 C221 1.523 . S
H223 C198 0.950 . S
H224 C200 0.950 . S
H225 C201 0.949 . S
H226 C203 0.950 . S
H227 C205 0.950 . S
C228 C229 1.349 . S
C228 C230 1.327 . S
C228 H253 0.950 . S
C229 C228 1.349 . S
C229 C245 1.349 . S
C230 C228 1.327 . S
C230 C249 1.429 . S
C230 H254 0.950 . S
C231 C248 1.574 . S
C231 C250 1.368 . S
C231 H255 0.949 . S
H232 C236 0.949 . S
C233 C234 1.349 . S
C233 C235 1.327 . S
C233 H256 0.950 . S
C234 C233 1.349 . S
C234 C246 1.349 . S
C235 C233 1.327 . S
C235 C251 1.429 . S
C235 H257 0.950 . S
C236 H232 0.949 . S
C236 C244 1.574 . S
C236 C252 1.368 . S
H237 C245 0.950 . S
H238 C243 0.950 . S
H239 C244 0.949 . S
H240 C246 0.950 . S
H241 C247 0.950 . S
H242 C248 0.949 . S
C243 H238 0.950 . S
C243 C245 1.327 . S
C243 C249 1.429 . S
C244 C236 1.574 . S
C244 H239 0.949 . S
C244 C250 1.368 . S
C245 C229 1.349 . S
C245 H237 0.950 . S
C245 C243 1.327 . S
C246 C234 1.349 . S
C246 H240 0.950 . S
C246 C247 1.327 . S
C247 H241 0.950 . S
C247 C246 1.327 . S
C247 C251 1.429 . S
C248 C231 1.574 . S
C248 H242 0.949 . S
C248 C252 1.368 . S
C249 C230 1.429 . S
C249 C243 1.429 . S
C249 C250 1.523 . S
C250 C231 1.368 . S
C250 C244 1.368 . S
C250 C249 1.523 . S
C251 C235 1.429 . S
C251 C247 1.429 . S
C251 C252 1.523 . S
C252 C236 1.368 . S
C252 C248 1.368 . S
C252 C251 1.523 . S
H253 C228 0.950 . S
H254 C230 0.950 . S
H255 C231 0.949 . S
H256 C233 0.950 . S
H257 C235 0.950 . S
C258 C259 1.349 . S
C258 C260 1.327 . S
C258 H283 0.950 . S
C259 C258 1.349 . S
C259 C275 1.349 . S
C260 C258 1.327 . S
C260 C279 1.429 . S
C260 H284 0.950 . S
C261 C278 1.574 . S
C261 C280 1.368 . S
C261 H285 0.949 . S
H262 C266 0.949 . S
C263 C264 1.349 . S
C263 C265 1.327 . S
C263 H286 0.950 . S
C264 C263 1.349 . S
C264 C276 1.349 . S
C265 C263 1.327 . S
C265 C281 1.429 . S
C265 H287 0.950 . S
C266 H262 0.949 . S
C266 C274 1.574 . S
C266 C282 1.368 . S
H267 C275 0.950 . S
H268 C273 0.950 . S
H269 C274 0.949 . S
H270 C276 0.950 . S
H271 C277 0.950 . S
H272 C278 0.949 . S
C273 H268 0.950 . S
C273 C275 1.327 . S
C273 C279 1.429 . S
C274 C266 1.574 . S
C274 H269 0.949 . S
C274 C280 1.368 . S
C275 C259 1.349 . S
C275 H267 0.950 . S
C275 C273 1.327 . S
C276 C264 1.349 . S
C276 H270 0.950 . S
C276 C277 1.327 . S
C277 H271 0.950 . S
C277 C276 1.327 . S
C277 C281 1.429 . S
C278 C261 1.574 . S
C278 H272 0.949 . S
C278 C282 1.368 . S
C279 C260 1.429 . S
C279 C273 1.429 . S
C279 C280 1.523 . S
C280 C261 1.368 . S
C280 C274 1.368 . S
C280 C279 1.523 . S
C281 C265 1.429 . S
C281 C277 1.429 . S
C281 C282 1.523 . S
C282 C266 1.368 . S
C282 C278 1.368 . S
C282 C281 1.523 . S
H283 C258 0.950 . S
H284 C260 0.950 . S
H285 C261 0.949 . S
H286 C263 0.950 . S
H287 C265 0.950 . S
C288 C289 1.349 . S
C288 C290 1.327 . S
C288 H313 0.950 . S
C289 C288 1.349 . S
C289 C305 1.349 . S
C290 C288 1.327 . S
C290 C309 1.429 . S
C290 H314 0.950 . S
C291 C308 1.574 . S
C291 C310 1.368 . S
C291 H315 0.949 . S
H292 C296 0.949 . S
C293 C294 1.349 . S
C293 C295 1.327 . S
C293 H316 0.950 . S
C294 C293 1.349 . S
C294 C306 1.349 . S
C295 C293 1.327 . S
C295 C311 1.429 . S
C295 H317 0.950 . S
C296 H292 0.949 . S
C296 C304 1.574 . S
C296 C312 1.368 . S
H297 C305 0.950 . S
H298 C303 0.950 . S
H299 C304 0.949 . S
H300 C306 0.950 . S
H301 C307 0.950 . S
H302 C308 0.949 . S
C303 H298 0.950 . S
C303 C305 1.327 . S
C303 C309 1.429 . S
C304 C296 1.574 . S
C304 H299 0.949 . S
C304 C310 1.368 . S
C305 C289 1.349 . S
C305 H297 0.950 . S
C305 C303 1.327 . S
C306 C294 1.349 . S
C306 H300 0.950 . S
C306 C307 1.327 . S
C307 H301 0.950 . S
C307 C306 1.327 . S
C307 C311 1.429 . S
C308 C291 1.574 . S
C308 H302 0.949 . S
C308 C312 1.368 . S
C309 C290 1.429 . S
C309 C303 1.429 . S
C309 C310 1.523 . S
C310 C291 1.368 . S
C310 C304 1.368 . S
C310 C309 1.523 . S
C311 C295 1.429 . S
C311 C307 1.429 . S
C311 C312 1.523 . S
C312 C296 1.368 . S
C312 C308 1.368 . S
C312 C311 1.523 . S
H313 C288 0.950 . S
H314 C290 0.950 . S
H315 C291 0.949 . S
H316 C293 0.950 . S
H317 C295 0.950 . S
C318 C319 1.349 . S
C318 C320 1.327 . S
C318 H343 0.950 . S
C319 C318 1.349 . S
C319 C335 1.349 . S
C320 C318 1.327 . S
C320 C339 1.429 . S
C320 H344 0.950 . S
C321 C338 1.574 . S
C321 C340 1.368 . S
C321 H345 0.949 . S
H322 C326 0.949 . S
C323 C324 1.349 . S
C323 C325 1.327 . S
C323 H346 0.950 . S
C324 C323 1.349 . S
C324 C336 1.349 . S
C325 C323 1.327 . S
C325 C341 1.429 . S
C325 H347 0.950 . S
C326 H322 0.949 . S
C326 C334 1.574 . S
C326 C342 1.368 . S
H327 C335 0.950 . S
H328 C333 0.950 . S
H329 C334 0.949 . S
H330 C336 0.950 . S
H331 C337 0.950 . S
H332 C338 0.949 . S
C333 H328 0.950 . S
C333 C335 1.327 . S
C333 C339 1.429 . S
C334 C326 1.574 . S
C334 H329 0.949 . S
C334 C340 1.368 . S
C335 C319 1.349 . S
C335 H327 0.950 . S
C335 C333 1.327 . S
C336 C324 1.349 . S
C336 H330 0.950 . S
C336 C337 1.327 . S
C337 H331 0.950 . S
C337 C336 1.327 . S
C337 C341 1.429 . S
C338 C321 1.574 . S
C338 H332 0.949 . S
C338 C342 1.368 . S
C339 C320 1.429 . S
C339 C333 1.429 . S
C339 C340 1.523 . S
C340 C321 1.368 . S
C340 C334 1.368 . S
C340 C339 1.523 . S
C341 C325 1.429 . S
C341 C337 1.429 . S
C341 C342 1.523 . S
C342 C326 1.368 . S
C342 C338 1.368 . S
C342 C341 1.523 . S
H343 C318 0.950 . S
H344 C320 0.950 . S
H345 C321 0.949 . S
H346 C323 0.950 . S
H347 C325 0.950 . S
C348 C349 1.349 . S
C348 C350 1.327 . S
C348 H373 0.950 . S
C349 C348 1.349 . S
C349 C365 1.349 . S
C350 C348 1.327 . S
C350 C369 1.429 . S
C350 H374 0.950 . S
C351 C368 1.574 . S
C351 C370 1.368 . S
C351 H375 0.949 . S
H352 C356 0.949 . S
C353 C354 1.349 . S
C353 C355 1.327 . S
C353 H376 0.950 . S
C354 C353 1.349 . S
C354 C366 1.349 . S
C355 C353 1.327 . S
C355 C371 1.429 . S
C355 H377 0.950 . S
C356 H352 0.949 . S
C356 C364 1.574 . S
C356 C372 1.368 . S
H357 C365 0.950 . S
H358 C363 0.950 . S
H359 C364 0.949 . S
H360 C366 0.950 . S
H361 C367 0.950 . S
H362 C368 0.949 . S
C363 H358 0.950 . S
C363 C365 1.327 . S
C363 C369 1.429 . S
C364 C356 1.574 . S
C364 H359 0.949 . S
C364 C370 1.368 . S
C365 C349 1.349 . S
C365 H357 0.950 . S
C365 C363 1.327 . S
C366 C354 1.349 . S
C366 H360 0.950 . S
C366 C367 1.327 . S
C367 H361 0.950 . S
C367 C366 1.327 . S
C367 C371 1.429 . S
C368 C351 1.574 . S
C368 H362 0.949 . S
C368 C372 1.368 . S
C369 C350 1.429 . S
C369 C363 1.429 . S
C369 C370 1.523 . S
C370 C351 1.368 . S
C370 C364 1.368 . S
C370 C369 1.523 . S
C371 C355 1.429 . S
C371 C367 1.429 . S
C371 C372 1.523 . S
C372 C356 1.368 . S
C372 C368 1.368 . S
C372 C371 1.523 . S
H373 C348 0.950 . S
H374 C350 0.950 . S
H375 C351 0.949 . S
H376 C353 0.950 . S
H377 C355 0.950 . S
C378 C379 1.349 . S
C378 C380 1.327 . S
C378 H403 0.950 . S
C379 C378 1.349 . S
C379 C395 1.349 . S
C380 C378 1.327 . S
C380 C399 1.429 . S
C380 H404 0.950 . S
C381 C398 1.574 1_655 S
C381 C400 1.368 . S
C381 H405 0.949 . S
H382 C386 0.949 . S
C383 C384 1.349 . S
C383 C385 1.327 . S
C383 H406 0.950 . S
C384 C383 1.349 . S
C384 C396 1.349 . S
C385 C383 1.327 . S
C385 C401 1.429 . S
C385 H407 0.950 . S
C386 H382 0.949 . S
C386 C394 1.574 1_455 S
C386 C402 1.368 . S
H387 C395 0.950 . S
H388 C393 0.950 . S
H389 C394 0.949 . S
H390 C396 0.950 . S
H391 C397 0.950 . S
H392 C398 0.949 . S
C393 H388 0.950 . S
C393 C395 1.327 . S
C393 C399 1.429 . S
C394 C386 1.574 1_655 S
C394 H389 0.949 . S
C394 C400 1.368 . S
C395 C379 1.349 . S
C395 H387 0.950 . S
C395 C393 1.327 . S
C396 C384 1.349 . S
C396 H390 0.950 . S
C396 C397 1.327 . S
C397 H391 0.950 . S
C397 C396 1.327 . S
C397 C401 1.429 . S
C398 C381 1.574 1_455 S
C398 H392 0.949 . S
C398 C402 1.368 . S
C399 C380 1.429 . S
C399 C393 1.429 . S
C399 C400 1.523 . S
C400 C381 1.368 . S
C400 C394 1.368 . S
C400 C399 1.523 . S
C401 C385 1.429 . S
C401 C397 1.429 . S
C401 C402 1.523 . S
C402 C386 1.368 . S
C402 C398 1.368 . S
C402 C401 1.523 . S
H403 C378 0.950 . S
H404 C380 0.950 . S
H405 C381 0.949 . S
H406 C383 0.950 . S
H407 C385 0.950 . S
C408 C409 1.349 . S
C408 C410 1.327 . S
C408 H433 0.950 . S
C409 C408 1.349 . S
C409 C425 1.349 . S
C410 C408 1.327 . S
C410 C429 1.429 . S
C410 H434 0.950 . S
C411 C428 1.574 1_545 S
C411 C430 1.368 . S
C411 H435 0.949 . S
H412 C416 0.949 . S
C413 C414 1.349 . S
C413 C415 1.327 . S
C413 H436 0.950 . S
C414 C413 1.349 . S
C414 C426 1.349 . S
C415 C413 1.327 . S
C415 C431 1.429 . S
C415 H437 0.950 . S
C416 H412 0.949 . S
C416 C424 1.574 1_565 S
C416 C432 1.368 . S
H417 C425 0.950 . S
H418 C423 0.950 . S
H419 C424 0.949 . S
H420 C426 0.950 . S
H421 C427 0.950 . S
H422 C428 0.949 . S
C423 H418 0.950 . S
C423 C425 1.327 . S
C423 C429 1.429 . S
C424 C416 1.574 1_545 S
C424 H419 0.949 . S
C424 C430 1.368 . S
C425 C409 1.349 . S
C425 H417 0.950 . S
C425 C423 1.327 . S
C426 C414 1.349 . S
C426 H420 0.950 . S
C426 C427 1.327 . S
C427 H421 0.950 . S
C427 C426 1.327 . S
C427 C431 1.429 . S
C428 C411 1.574 1_565 S
C428 H422 0.949 . S
C428 C432 1.368 . S
C429 C410 1.429 . S
C429 C423 1.429 . S
C429 C430 1.523 . S
C430 C411 1.368 . S
C430 C424 1.368 . S
C430 C429 1.523 . S
C431 C415 1.429 . S
C431 C427 1.429 . S
C431 C432 1.523 . S
C432 C416 1.368 . S
C432 C428 1.368 . S
C432 C431 1.523 . S
H433 C408 0.950 . S
H434 C410 0.950 . S
H435 C411 0.949 . S
H436 C413 0.950 . S
H437 C415 0.950 . S
C438 C439 1.349 . S
C438 C440 1.327 . S
C438 H463 0.950 . S
C439 C438 1.349 . S
C439 C455 1.349 . S
C440 C438 1.327 . S
C440 C459 1.429 . S
C440 H464 0.950 . S
C441 C458 1.574 . S
C441 C460 1.368 . S
C441 H465 0.949 . S
H442 C446 0.949 . S
C443 C444 1.349 . S
C443 C445 1.327 . S
C443 H466 0.950 . S
C444 C443 1.349 . S
C444 C456 1.349 . S
C445 C443 1.327 . S
C445 C461 1.429 . S
C445 H467 0.950 . S
C446 H442 0.949 . S
C446 C454 1.574 . S
C446 C462 1.368 . S
H447 C455 0.950 . S
H448 C453 0.950 . S
H449 C454 0.949 . S
H450 C456 0.950 . S
H451 C457 0.950 . S
H452 C458 0.949 . S
C453 H448 0.950 . S
C453 C455 1.327 . S
C453 C459 1.429 . S
C454 C446 1.574 . S
C454 H449 0.949 . S
C454 C460 1.368 . S
C455 C439 1.349 . S
C455 H447 0.950 . S
C455 C453 1.327 . S
C456 C444 1.349 . S
C456 H450 0.950 . S
C456 C457 1.327 . S
C457 H451 0.950 . S
C457 C456 1.327 . S
C457 C461 1.429 . S
C458 C441 1.574 . S
C458 H452 0.949 . S
C458 C462 1.368 . S
C459 C440 1.429 . S
C459 C453 1.429 . S
C459 C460 1.523 . S
C460 C441 1.368 . S
C460 C454 1.368 . S
C460 C459 1.523 . S
C461 C445 1.429 . S
C461 C457 1.429 . S
C461 C462 1.523 . S
C462 C446 1.368 . S
C462 C458 1.368 . S
C462 C461 1.523 . S
H463 C438 0.950 . S
H464 C440 0.950 . S
H465 C441 0.949 . S
H466 C443 0.950 . S
H467 C445 0.950 . S
C468 C469 1.349 . S
C468 C470 1.327 . S
C468 H493 0.950 . S
C469 C468 1.349 . S
C469 C485 1.349 . S
C470 C468 1.327 . S
C470 C489 1.429 . S
C470 H494 0.950 . S
C471 C488 1.574 . S
C471 C490 1.368 . S
C471 H495 0.949 . S
H472 C476 0.949 . S
C473 C474 1.349 . S
C473 C475 1.327 . S
C473 H496 0.950 . S
C474 C473 1.349 . S
C474 C486 1.349 . S
C475 C473 1.327 . S
C475 C491 1.429 . S
C475 H497 0.950 . S
C476 H472 0.949 . S
C476 C484 1.574 . S
C476 C492 1.368 . S
H477 C485 0.950 . S
H478 C483 0.950 . S
H479 C484 0.949 . S
H480 C486 0.950 . S
H481 C487 0.950 . S
H482 C488 0.949 . S
C483 H478 0.950 . S
C483 C485 1.327 . S
C483 C489 1.429 . S
C484 C476 1.574 . S
C484 H479 0.949 . S
C484 C490 1.368 1_455 S
C485 C469 1.349 . S
C485 H477 0.950 . S
C485 C483 1.327 . S
C486 C474 1.349 . S
C486 H480 0.950 . S
C486 C487 1.327 . S
C487 H481 0.950 . S
C487 C486 1.327 . S
C487 C491 1.429 . S
C488 C471 1.574 . S
C488 H482 0.949 . S
C488 C492 1.368 1_655 S
C489 C470 1.429 . S
C489 C483 1.429 . S
C489 C490 1.523 . S
C490 C471 1.368 . S
C490 C484 1.368 1_655 S
C490 C489 1.523 . S
C491 C475 1.429 . S
C491 C487 1.429 . S
C491 C492 1.523 . S
C492 C476 1.368 . S
C492 C488 1.368 1_455 S
C492 C491 1.523 . S
H493 C468 0.950 . S
H494 C470 0.950 . S
H495 C471 0.949 . S
H496 C473 0.950 . S
H497 C475 0.950 . S
C498 C499 1.349 . S
C498 C500 1.327 . S
C498 H523 0.950 . S
C499 C498 1.349 . S
C499 C515 1.349 . S
C500 C498 1.327 . S
C500 C519 1.429 . S
C500 H524 0.950 . S
C501 C518 1.574 1_565 S
C501 C520 1.368 . S
C501 H525 0.949 . S
H502 C506 0.949 . S
C503 C504 1.349 . S
C503 C505 1.327 . S
C503 H526 0.950 . S
C504 C503 1.349 . S
C504 C516 1.349 . S
C505 C503 1.327 . S
C505 C521 1.429 . S
C505 H527 0.950 . S
C506 H502 0.949 . S
C506 C514 1.574 1_545 S
C506 C522 1.368 . S
H507 C515 0.950 . S
H508 C513 0.950 . S
H509 C514 0.949 . S
H510 C516 0.950 . S
H511 C517 0.950 . S
H512 C518 0.949 . S
C513 H508 0.950 . S
C513 C515 1.327 . S
C513 C519 1.429 . S
C514 C506 1.574 1_565 S
C514 H509 0.949 . S
C514 C520 1.368 1_556 S
C515 C499 1.349 . S
C515 H507 0.950 . S
C515 C513 1.327 . S
C516 C504 1.349 . S
C516 H510 0.950 . S
C516 C517 1.327 . S
C517 H511 0.950 . S
C517 C516 1.327 . S
C517 C521 1.429 . S
C518 C501 1.574 1_545 S
C518 H512 0.949 . S
C518 C522 1.368 1_554 S
C519 C500 1.429 . S
C519 C513 1.429 . S
C519 C520 1.523 . S
C520 C501 1.368 . S
C520 C514 1.368 1_554 S
C520 C519 1.523 . S
C521 C505 1.429 . S
C521 C517 1.429 . S
C521 C522 1.523 . S
C522 C506 1.368 . S
C522 C518 1.368 1_556 S
C522 C521 1.523 . S
H523 C498 0.950 . S
H524 C500 0.950 . S
H525 C501 0.949 . S
H526 C503 0.950 . S
H527 C505 0.950 . S
C528 C529 1.349 . S
C528 C530 1.327 . S
C528 H553 0.950 . S
C529 C528 1.349 . S
C529 C545 1.349 . S
C530 C528 1.327 . S
C530 C549 1.429 . S
C530 H554 0.950 . S
C531 C548 1.574 . S
C531 C550 1.368 . S
C531 H555 0.949 . S
H532 C536 0.949 . S
C533 C534 1.349 . S
C533 C535 1.327 . S
C533 H556 0.950 . S
C534 C533 1.349 . S
C534 C546 1.349 . S
C535 C533 1.327 . S
C535 C551 1.429 1_556 S
C535 H557 0.950 . S
C536 H532 0.949 . S
C536 C544 1.574 . S
C536 C552 1.368 . S
H537 C545 0.950 . S
H538 C543 0.950 . S
H539 C544 0.949 . S
H540 C546 0.950 1_554 S
H541 C547 0.950 . S
H542 C548 0.949 . S
C543 H538 0.950 . S
C543 C545 1.327 . S
C543 C549 1.429 . S
C544 C536 1.574 . S
C544 H539 0.949 . S
C544 C550 1.368 . S
C545 C529 1.349 . S
C545 H537 0.950 . S
C545 C543 1.327 . S
C546 C534 1.349 . S
C546 H540 0.950 1_556 S
C546 C547 1.327 1_556 S
C547 H541 0.950 . S
C547 C546 1.327 1_554 S
C547 C551 1.429 . S
C548 C531 1.574 . S
C548 H542 0.949 . S
C548 C552 1.368 . S
C549 C530 1.429 . S
C549 C543 1.429 . S
C549 C550 1.523 . S
C550 C531 1.368 . S
C550 C544 1.368 . S
C550 C549 1.523 . S
C551 C535 1.429 1_554 S
C551 C547 1.429 . S
C551 C552 1.523 . S
C552 C536 1.368 . S
C552 C548 1.368 . S
C552 C551 1.523 . S
H553 C528 0.950 . S
H554 C530 0.950 . S
H555 C531 0.949 . S
H556 C533 0.950 . S
H557 C535 0.950 . S
C558 C559 1.349 . S
C558 C560 1.327 . S
C558 H583 0.950 . S
C559 C558 1.349 . S
C559 C575 1.349 . S
C560 C558 1.327 . S
C560 C579 1.429 . S
C560 H584 0.950 . S
C561 C578 1.574 1_655 S
C561 C580 1.368 . S
C561 H585 0.949 . S
H562 C566 0.949 . S
C563 C564 1.349 . S
C563 C565 1.327 . S
C563 H586 0.950 . S
C564 C563 1.349 . S
C564 C576 1.349 . S
C565 C563 1.327 . S
C565 C581 1.429 . S
C565 H587 0.950 . S
C566 H562 0.949 . S
C566 C574 1.574 . S
C566 C582 1.368 . S
H567 C575 0.950 . S
H568 C573 0.950 . S
H569 C574 0.949 . S
H570 C576 0.950 . S
H571 C577 0.950 1_655 S
H572 C578 0.949 . S
C573 H568 0.950 . S
C573 C575 1.327 . S
C573 C579 1.429 . S
C574 C566 1.574 . S
C574 H569 0.949 . S
C574 C580 1.368 . S
C575 C559 1.349 . S
C575 H567 0.950 . S
C575 C573 1.327 . S
C576 C564 1.349 . S
C576 H570 0.950 . S
C576 C577 1.327 . S
C577 H571 0.950 1_455 S
C577 C576 1.327 . S
C577 C581 1.429 . S
C578 C561 1.574 1_455 S
C578 H572 0.949 . S
C578 C582 1.368 1_455 S
C579 C560 1.429 . S
C579 C573 1.429 . S
C579 C580 1.523 . S
C580 C561 1.368 . S
C580 C574 1.368 . S
C580 C579 1.523 . S
C581 C565 1.429 . S
C581 C577 1.429 . S
C581 C582 1.523 1_455 S
C582 C566 1.368 . S
C582 C578 1.368 1_655 S
C582 C581 1.523 1_655 S
H583 C558 0.950 . S
H584 C560 0.950 . S
H585 C561 0.949 . S
H586 C563 0.950 . S
H587 C565 0.950 . S
C588 C589 1.349 . S
C588 C590 1.327 . S
C588 H613 0.950 . S
C589 C588 1.349 . S
C589 C605 1.349 . S
C590 C588 1.327 . S
C590 C609 1.429 . S
C590 H614 0.950 1_545 S
C591 C608 1.574 1_545 S
C591 C610 1.368 1_545 S
C591 H615 0.949 . S
H592 C596 0.949 . S
C593 C594 1.349 . S
C593 C595 1.327 . S
C593 H616 0.950 . S
C594 C593 1.349 . S
C594 C606 1.349 . S
C595 C593 1.327 . S
C595 C611 1.429 . S
C595 H617 0.950 . S
C596 H592 0.949 . S
C596 C604 1.574 . S
C596 C612 1.368 . S
H597 C605 0.950 . S
H598 C603 0.950 . S
H599 C604 0.949 . S
H600 C606 0.950 . S
H601 C607 0.950 . S
H602 C608 0.949 . S
C603 H598 0.950 . S
C603 C605 1.327 . S
C603 C609 1.429 . S
C604 C596 1.574 . S
C604 H599 0.949 . S
C604 C610 1.368 . S
C605 C589 1.349 . S
C605 H597 0.950 . S
C605 C603 1.327 . S
C606 C594 1.349 . S
C606 H600 0.950 . S
C606 C607 1.327 . S
C607 H601 0.950 . S
C607 C606 1.327 . S
C607 C611 1.429 . S
C608 C591 1.574 1_565 S
C608 H602 0.949 . S
C608 C612 1.368 . S
C609 C590 1.429 . S
C609 C603 1.429 . S
C609 C610 1.523 1_545 S
C610 C591 1.368 1_565 S
C610 C604 1.368 . S
C610 C609 1.523 1_565 S
C611 C595 1.429 . S
C611 C607 1.429 . S
C611 C612 1.523 . S
C612 C596 1.368 . S
C612 C608 1.368 . S
C612 C611 1.523 . S
H613 C588 0.950 . S
H614 C590 0.950 1_565 S
H615 C591 0.949 . S
H616 C593 0.950 . S
H617 C595 0.950 . S
C618 C619 1.349 . S
C618 C620 1.327 . S
C618 H643 0.950 . S
C619 C618 1.349 . S
C619 C635 1.349 . S
C620 C618 1.327 . S
C620 C639 1.429 . S
C620 H644 0.950 . S
C621 C638 1.574 . S
C621 C640 1.368 . S
C621 H645 0.949 . S
H622 C626 0.949 . S
C623 C624 1.349 . S
C623 C625 1.327 . S
C623 H646 0.950 . S
C624 C623 1.349 . S
C624 C636 1.349 . S
C625 C623 1.327 . S
C625 C641 1.429 . S
C625 H647 0.950 . S
C626 H622 0.949 . S
C626 C634 1.574 . S
C626 C642 1.368 . S
H627 C635 0.950 . S
H628 C633 0.950 . S
H629 C634 0.949 . S
H630 C636 0.950 . S
H631 C637 0.950 . S
H632 C638 0.949 . S
C633 H628 0.950 . S
C633 C635 1.327 . S
C633 C639 1.429 . S
C634 C626 1.574 . S
C634 H629 0.949 . S
C634 C640 1.368 . S
C635 C619 1.349 . S
C635 H627 0.950 . S
C635 C633 1.327 . S
C636 C624 1.349 . S
C636 H630 0.950 . S
C636 C637 1.327 . S
C637 H631 0.950 . S
C637 C636 1.327 . S
C637 C641 1.429 . S
C638 C621 1.574 . S
C638 H632 0.949 . S
C638 C642 1.368 . S
C639 C620 1.429 . S
C639 C633 1.429 . S
C639 C640 1.523 . S
C640 C621 1.368 . S
C640 C634 1.368 . S
C640 C639 1.523 . S
C641 C625 1.429 . S
C641 C637 1.429 . S
C641 C642 1.523 . S
C642 C626 1.368 . S
C642 C638 1.368 . S
C642 C641 1.523 . S
H643 C618 0.950 . S
H644 C620 0.950 . S
H645 C621 0.949 . S
H646 C623 0.950 . S
H647 C625 0.950 . S
C648 C649 1.349 . S
C648 C650 1.327 . S
C648 H673 0.950 . S
C649 C648 1.349 . S
C649 C665 1.349 . S
C650 C648 1.327 . S
C650 C669 1.429 . S
C650 H674 0.950 . S
C651 C668 1.574 1_455 S
C651 C670 1.368 . S
C651 H675 0.949 . S
H652 C656 0.949 . S
C653 C654 1.349 . S
C653 C655 1.327 . S
C653 H676 0.950 . S
C654 C653 1.349 . S
C654 C666 1.349 . S
C655 C653 1.327 . S
C655 C671 1.429 . S
C655 H677 0.950 . S
C656 H652 0.949 . S
C656 C664 1.574 . S
C656 C672 1.368 . S
H657 C665 0.950 . S
H658 C663 0.950 . S
H659 C664 0.949 . S
H660 C666 0.950 . S
H661 C667 0.950 1_455 S
H662 C668 0.949 . S
C663 H658 0.950 . S
C663 C665 1.327 . S
C663 C669 1.429 . S
C664 C656 1.574 . S
C664 H659 0.949 . S
C664 C670 1.368 . S
C665 C649 1.349 . S
C665 H657 0.950 . S
C665 C663 1.327 . S
C666 C654 1.349 . S
C666 H660 0.950 . S
C666 C667 1.327 . S
C667 H661 0.950 1_655 S
C667 C666 1.327 . S
C667 C671 1.429 . S
C668 C651 1.574 1_655 S
C668 H662 0.949 . S
C668 C672 1.368 1_655 S
C669 C650 1.429 . S
C669 C663 1.429 . S
C669 C670 1.523 . S
C670 C651 1.368 . S
C670 C664 1.368 . S
C670 C669 1.523 . S
C671 C655 1.429 . S
C671 C667 1.429 . S
C671 C672 1.523 1_655 S
C672 C656 1.368 . S
C672 C668 1.368 1_455 S
C672 C671 1.523 1_455 S
H673 C648 0.950 . S
H674 C650 0.950 . S
H675 C651 0.949 . S
H676 C653 0.950 . S
H677 C655 0.950 . S
C678 C679 1.349 . S
C678 C680 1.327 . S
C678 H703 0.950 . S
C679 C678 1.349 . S
C679 C695 1.349 . S
C680 C678 1.327 . S
C680 C699 1.429 . S
C680 H704 0.950 . S
C681 C698 1.574 1_545 S
C681 C700 1.368 . S
C681 H705 0.949 . S
H682 C686 0.949 . S
C683 C684 1.349 . S
C683 C685 1.327 . S
C683 H706 0.950 . S
C684 C683 1.349 . S
C684 C696 1.349 . S
C685 C683 1.327 . S
C685 C701 1.429 . S
C685 H707 0.950 . S
C686 H682 0.949 . S
C686 C694 1.574 . S
C686 C702 1.368 . S
H687 C695 0.950 . S
H688 C693 0.950 . S
H689 C694 0.949 . S
H690 C696 0.950 . S
H691 C697 0.950 1_545 S
H692 C698 0.949 . S
C693 H688 0.950 . S
C693 C695 1.327 . S
C693 C699 1.429 . S
C694 C686 1.574 . S
C694 H689 0.949 . S
C694 C700 1.368 . S
C695 C679 1.349 . S
C695 H687 0.950 . S
C695 C693 1.327 . S
C696 C684 1.349 . S
C696 H690 0.950 . S
C696 C697 1.327 . S
C697 H691 0.950 1_565 S
C697 C696 1.327 . S
C697 C701 1.429 . S
C698 C681 1.574 1_565 S
C698 H692 0.949 . S
C698 C702 1.368 1_565 S
C699 C680 1.429 . S
C699 C693 1.429 . S
C699 C700 1.523 . S
C700 C681 1.368 . S
C700 C694 1.368 . S
C700 C699 1.523 . S
C701 C685 1.429 . S
C701 C697 1.429 . S
C701 C702 1.523 1_565 S
C702 C686 1.368 . S
C702 C698 1.368 1_545 S
C702 C701 1.523 1_545 S
H703 C678 0.950 . S
H704 C680 0.950 . S
H705 C681 0.949 . S
H706 C683 0.950 . S
H707 C685 0.950 . S
C708 C709 1.349 . S
C708 C710 1.327 . S
C708 H733 0.950 . S
C709 C708 1.349 . S
C709 C725 1.349 . S
C710 C708 1.327 . S
C710 C729 1.429 . S
C710 H734 0.950 . S
C711 C728 1.574 . S
C711 C730 1.368 . S
C711 H735 0.949 . S
H712 C716 0.949 . S
C713 C714 1.349 . S
C713 C715 1.327 . S
C713 H736 0.950 . S
C714 C713 1.349 . S
C714 C726 1.349 . S
C715 C713 1.327 . S
C715 C731 1.429 . S
C715 H737 0.950 . S
C716 H712 0.949 . S
C716 C724 1.574 . S
C716 C732 1.368 . S
H717 C725 0.950 . S
H718 C723 0.950 . S
H719 C724 0.949 . S
H720 C726 0.950 . S
H721 C727 0.950 . S
H722 C728 0.949 . S
C723 H718 0.950 . S
C723 C725 1.327 . S
C723 C729 1.429 . S
C724 C716 1.574 . S
C724 H719 0.949 . S
C724 C730 1.368 . S
C725 C709 1.349 . S
C725 H717 0.950 . S
C725 C723 1.327 . S
C726 C714 1.349 . S
C726 H720 0.950 . S
C726 C727 1.327 . S
C727 H721 0.950 . S
C727 C726 1.327 . S
C727 C731 1.429 . S
C728 C711 1.574 . S
C728 H722 0.949 . S
C728 C732 1.368 . S
C729 C710 1.429 . S
C729 C723 1.429 . S
C729 C730 1.523 . S
C730 C711 1.368 . S
C730 C724 1.368 . S
C730 C729 1.523 . S
C731 C715 1.429 . S
C731 C727 1.429 . S
C731 C732 1.523 . S
C732 C716 1.368 . S
C732 C728 1.368 . S
C732 C731 1.523 . S
H733 C708 0.950 . S
H734 C710 0.950 . S
H735 C711 0.949 . S
H736 C713 0.950 . S
H737 C715 0.950 . S
C738 C739 1.349 . S
C738 C740 1.327 . S
C738 H763 0.950 . S
C739 C738 1.349 . S
C739 C755 1.349 . S
C740 C738 1.327 . S
C740 C759 1.429 . S
C740 H764 0.950 . S
C741 C758 1.574 . S
C741 C760 1.368 . S
C741 H765 0.949 . S
H742 C746 0.964 . S
C743 C744 1.349 . S
C743 C745 1.327 . S
C743 H766 0.950 . S
C744 C743 1.349 . S
C744 C756 1.349 . S
C745 C743 1.327 . S
C745 C761 1.429 1_554 S
C745 H767 0.950 . S
C746 H742 0.964 . S
C746 C754 1.574 . S
C746 C762 1.368 . S
H747 C755 0.950 . S
H748 C753 0.950 . S
H749 C754 0.949 . S
H750 C756 0.950 . S
H751 C757 0.950 . S
H752 C758 0.949 . S
C753 H748 0.950 . S
C753 C755 1.327 . S
C753 C759 1.429 . S
C754 C746 1.574 . S
C754 H749 0.949 . S
C754 C760 1.368 . S
C755 C739 1.349 . S
C755 H747 0.950 . S
C755 C753 1.327 . S
C756 C744 1.349 . S
C756 H750 0.950 . S
C756 C757 1.327 1_554 S
C757 H751 0.950 . S
C757 C756 1.327 1_556 S
C757 C761 1.429 . S
C758 C741 1.574 . S
C758 H752 0.949 . S
C758 C762 1.368 . S
C759 C740 1.429 . S
C759 C753 1.429 . S
C759 C760 1.523 . S
C760 C741 1.368 . S
C760 C754 1.368 . S
C760 C759 1.523 . S
C761 C745 1.429 1_556 S
C761 C757 1.429 . S
C761 C762 1.523 1_455 S
C762 C746 1.368 . S
C762 C758 1.368 . S
C762 C761 1.523 1_655 S
H763 C738 0.950 . S
H764 C740 0.950 . S
H765 C741 0.949 . S
H766 C743 0.950 . S
H767 C745 0.950 . S
C768 C769 1.349 . S
C768 C770 1.327 . S
C768 H793 0.950 . S
C769 C768 1.349 . S
C769 C785 1.349 . S
C770 C768 1.327 . S
C770 C789 1.429 . S
C770 H794 0.950 . S
C771 C788 1.574 . S
C771 C790 1.368 . S
C771 H795 0.949 . S
H772 C776 0.949 1_545 S
C773 C774 1.349 . S
C773 C775 1.327 . S
C773 H796 0.950 . S
C774 C773 1.349 . S
C774 C786 1.349 . S
C775 C773 1.327 . S
C775 C791 1.429 . S
C775 H797 0.950 . S
C776 H772 0.949 1_565 S
C776 C784 1.574 . S
C776 C792 1.368 . S
H777 C785 0.950 . S
H778 C783 0.950 . S
H779 C784 0.949 . S
H780 C786 0.950 . S
H781 C787 0.950 . S
H782 C788 0.949 . S
C783 H778 0.950 . S
C783 C785 1.327 . S
C783 C789 1.429 . S
C784 C776 1.574 . S
C784 H779 0.949 . S
C784 C790 1.368 . S
C785 C769 1.349 . S
C785 H777 0.950 . S
C785 C783 1.327 . S
C786 C774 1.349 . S
C786 H780 0.950 . S
C786 C787 1.327 . S
C787 H781 0.950 . S
C787 C786 1.327 . S
C787 C791 1.429 . S
C788 C771 1.574 . S
C788 H782 0.949 . S
C788 C792 1.368 . S
C789 C770 1.429 . S
C789 C783 1.429 . S
C789 C790 1.523 . S
C790 C771 1.368 . S
C790 C784 1.368 . S
C790 C789 1.523 . S
C791 C775 1.429 . S
C791 C787 1.429 . S
C791 C792 1.523 1_545 S
C792 C776 1.368 . S
C792 C788 1.368 . S
C792 C791 1.523 1_565 S
H793 C768 0.950 . S
H794 C770 0.950 . S
H795 C771 0.949 . S
H796 C773 0.950 . S
H797 C775 0.950 . S
C798 C799 1.349 . S
C798 C800 1.327 . S
C798 H823 0.950 . S
C799 C798 1.349 . S
C799 C815 1.349 . S
C800 C798 1.327 . S
C800 C819 1.429 . S
C800 H824 0.950 . S
C801 C818 1.574 . S
C801 C820 1.368 . S
C801 H825 0.949 . S
H802 C806 0.949 . S
C803 C804 1.349 . S
C803 C805 1.327 . S
C803 H826 0.950 . S
C804 C803 1.349 . S
C804 C816 1.349 . S
C805 C803 1.327 . S
C805 C821 1.429 . S
C805 H827 0.950 . S
C806 H802 0.949 . S
C806 C814 1.574 . S
C806 C822 1.368 . S
H807 C815 0.950 . S
H808 C813 0.950 . S
H809 C814 0.949 . S
H810 C816 0.950 . S
H811 C817 0.950 . S
H812 C818 0.949 . S
C813 H808 0.950 . S
C813 C815 1.327 . S
C813 C819 1.429 . S
C814 C806 1.574 . S
C814 H809 0.949 . S
C814 C820 1.368 . S
C815 C799 1.349 . S
C815 H807 0.950 . S
C815 C813 1.327 . S
C816 C804 1.349 . S
C816 H810 0.950 . S
C816 C817 1.327 . S
C817 H811 0.950 . S
C817 C816 1.327 . S
C817 C821 1.429 . S
C818 C801 1.574 . S
C818 H812 0.949 . S
C818 C822 1.368 . S
C819 C800 1.429 . S
C819 C813 1.429 . S
C819 C820 1.523 . S
C820 C801 1.368 . S
C820 C814 1.368 . S
C820 C819 1.523 . S
C821 C805 1.429 . S
C821 C817 1.429 . S
C821 C822 1.523 . S
C822 C806 1.368 . S
C822 C818 1.368 . S
C822 C821 1.523 . S
H823 C798 0.950 . S
H824 C800 0.950 . S
H825 C801 0.949 . S
H826 C803 0.950 . S
H827 C805 0.950 . S
C828 C829 1.349 . S
C828 C830 1.327 . S
C828 H853 0.950 . S
C829 C828 1.349 . S
C829 C845 1.349 . S
C830 C828 1.327 . S
C830 C849 1.429 . S
C830 H854 0.950 . S
C831 C848 1.574 1_455 S
C831 C850 1.368 . S
C831 H855 0.949 . S
H832 C836 0.949 . S
C833 C834 1.349 . S
C833 C835 1.327 . S
C833 H856 0.950 . S
C834 C833 1.349 . S
C834 C846 1.349 . S
C835 C833 1.327 . S
C835 C851 1.429 . S
C835 H857 0.950 . S
C836 H832 0.949 . S
C836 C844 1.574 . S
C836 C852 1.368 . S
H837 C845 0.950 . S
H838 C843 0.950 . S
H839 C844 0.949 . S
H840 C846 0.950 . S
H841 C847 0.950 1_455 S
H842 C848 0.949 . S
C843 H838 0.950 . S
C843 C845 1.327 . S
C843 C849 1.429 . S
C844 C836 1.574 . S
C844 H839 0.949 . S
C844 C850 1.368 . S
C845 C829 1.349 . S
C845 H837 0.950 . S
C845 C843 1.327 . S
C846 C834 1.349 . S
C846 H840 0.950 . S
C846 C847 1.327 . S
C847 H841 0.950 1_655 S
C847 C846 1.327 . S
C847 C851 1.429 . S
C848 C831 1.574 1_655 S
C848 H842 0.949 . S
C848 C852 1.368 1_655 S
C849 C830 1.429 . S
C849 C843 1.429 . S
C849 C850 1.523 . S
C850 C831 1.368 . S
C850 C844 1.368 . S
C850 C849 1.523 . S
C851 C835 1.429 . S
C851 C847 1.429 . S
C851 C852 1.523 1_655 S
C852 C836 1.368 . S
C852 C848 1.368 1_455 S
C852 C851 1.523 1_455 S
H853 C828 0.950 . S
H854 C830 0.950 . S
H855 C831 0.949 . S
H856 C833 0.950 . S
H857 C835 0.950 . S
C858 C859 1.349 . S
C858 C860 1.327 . S
C858 H883 0.950 . S
C859 C858 1.349 . S
C859 C875 1.349 . S
C860 C858 1.327 . S
C860 C879 1.429 . S
C860 H884 0.950 . S
C861 C878 1.574 . S
C861 C880 1.368 . S
C861 H885 0.949 . S
H862 C866 0.949 . S
C863 C864 1.349 . S
C863 C865 1.327 . S
C863 H886 0.950 . S
C864 C863 1.349 . S
C864 C876 1.349 . S
C865 C863 1.327 . S
C865 C881 1.429 . S
C865 H887 0.950 . S
C866 H862 0.949 . S
C866 C874 1.574 . S
C866 C882 1.368 . S
H867 C875 0.950 . S
H868 C873 0.950 . S
H869 C874 0.949 . S
H870 C876 0.950 . S
H871 C877 0.950 . S
H872 C878 0.949 . S
C873 H868 0.950 . S
C873 C875 1.327 . S
C873 C879 1.429 . S
C874 C866 1.574 . S
C874 H869 0.949 . S
C874 C880 1.368 . S
C875 C859 1.349 . S
C875 H867 0.950 . S
C875 C873 1.327 . S
C876 C864 1.349 . S
C876 H870 0.950 . S
C876 C877 1.327 . S
C877 H871 0.950 . S
C877 C876 1.327 . S
C877 C881 1.429 . S
C878 C861 1.574 . S
C878 H872 0.949 . S
C878 C882 1.368 . S
C879 C860 1.429 . S
C879 C873 1.429 . S
C879 C880 1.523 1_565 S
C880 C861 1.368 . S
C880 C874 1.368 . S
C880 C879 1.523 1_545 S
C881 C865 1.429 . S
C881 C877 1.429 . S
C881 C882 1.523 . S
C882 C866 1.368 . S
C882 C878 1.368 . S
C882 C881 1.523 . S
H883 C858 0.950 . S
H884 C860 0.950 . S
H885 C861 0.949 . S
H886 C863 0.950 . S
H887 C865 0.950 . S
C169 C113 1.554 . S
C174 C12 1.556 . S
C199 C15 1.554 . S
C204 C139 1.554 . S
C229 C29 1.554 . S
C234 C140 1.556 . S
C259 C54 1.556 . S
C264 C154 1.556 . S
C289 C85 1.554 . S
C294 C57 1.554 . S
C319 C83 1.554 . S
C324 C110 1.556 . S
C349 C138 1.309 . S
C354 C13 1.308 . S
C379 C14 1.309 . S
C384 C141 1.308 . S
C409 C155 1.308 . S
C414 C28 1.309 . S
C439 C55 1.308 . S
C444 C84 1.309 . S
C469 C111 1.308 . S
C474 C56 1.309 . S
C499 C112 1.309 . S
C504 C82 1.309 . S
C529 C0 2.016 . S
C534 C70 1.984 . S
C559 C27 2.015 . S
C564 C1 1.982 . S
C589 C26 1.984 . S
C594 C41 2.015 . S
C619 C42 2.016 . S
C624 C40 1.984 . S
C649 C69 2.015 . S
C654 C43 1.982 . S
C679 C71 2.015 . S
C684 C68 1.984 . S
C709 C97 2.015 . S
C714 C99 1.982 . S
C739 C98 2.016 . S
C744 C124 1.984 . S
C769 C125 2.015 . S
C774 C126 1.984 . S
C799 C127 2.015 . S
C804 C153 1.982 . S
C829 C152 2.016 . S
C834 C167 1.982 . S
C859 C96 1.984 . S
C864 C166 2.016 . S
