# Generated by pormake.
# Topology ukw, (4)-cn, num edge types: 1
# Building blocks:
#     Node 0, Type 0, BuildingBlock: NAWXER_clean_sbu_0, # of connection points: 4
#     Node 1, Type 0, BuildingBlock: NAWXER_clean_sbu_0, # of connection points: 4
#     Node 2, Type 0, BuildingBlock: NAWXER_clean_sbu_0, # of connection points: 4
#     Node 3, Type 0, BuildingBlock: NAWXER_clean_sbu_0, # of connection points: 4
#     Node 4, Type 0, BuildingBlock: NAWXER_clean_sbu_0, # of connection points: 4
#     Node 5, Type 0, BuildingBlock: NAWXER_clean_sbu_0, # of connection points: 4
#     Node 6, Type 0, BuildingBlock: NAWXER_clean_sbu_0, # of connection points: 4
#     Node 7, Type 0, BuildingBlock: NAWXER_clean_sbu_0, # of connection points: 4
#     Node 8, Type 0, BuildingBlock: NAWXER_clean_sbu_0, # of connection points: 4
#     Node 9, Type 0, BuildingBlock: NAWXER_clean_sbu_0, # of connection points: 4
#     Node 10, Type 0, BuildingBlock: NAWXER_clean_sbu_0, # of connection points: 4
#     Node 11, Type 0, BuildingBlock: NAWXER_clean_sbu_0, # of connection points: 4
#     Node 12, Type 0, BuildingBlock: NAWXER_clean_sbu_0, # of connection points: 4
#     Node 13, Type 0, BuildingBlock: NAWXER_clean_sbu_0, # of connection points: 4
#     Node 14, Type 0, BuildingBlock: NAWXER_clean_sbu_0, # of connection points: 4
#     Node 15, Type 0, BuildingBlock: NAWXER_clean_sbu_0, # of connection points: 4
#     Node 16, Type 0, BuildingBlock: NAWXER_clean_sbu_0, # of connection points: 4
#     Node 17, Type 0, BuildingBlock: NAWXER_clean_sbu_0, # of connection points: 4
#     Node 18, Type 0, BuildingBlock: NAWXER_clean_sbu_0, # of connection points: 4
#     Node 19, Type 0, BuildingBlock: NAWXER_clean_sbu_0, # of connection points: 4
#     Node 20, Type 0, BuildingBlock: NAWXER_clean_sbu_0, # of connection points: 4
#     Node 21, Type 0, BuildingBlock: NAWXER_clean_sbu_0, # of connection points: 4
#     Node 22, Type 0, BuildingBlock: NAWXER_clean_sbu_0, # of connection points: 4
#     Node 23, Type 0, BuildingBlock: NAWXER_clean_sbu_0, # of connection points: 4
#     Node 24, Type 0, BuildingBlock: NAWXER_clean_sbu_0, # of connection points: 4
#     Node 25, Type 0, BuildingBlock: NAWXER_clean_sbu_0, # of connection points: 4
#     Node 26, Type 0, BuildingBlock: NAWXER_clean_sbu_0, # of connection points: 4
#     Node 27, Type 0, BuildingBlock: NAWXER_clean_sbu_0, # of connection points: 4
#     Node 28, Type 0, BuildingBlock: NAWXER_clean_sbu_0, # of connection points: 4
#     Node 29, Type 0, BuildingBlock: NAWXER_clean_sbu_0, # of connection points: 4
#     Node 30, Type 0, BuildingBlock: NAWXER_clean_sbu_0, # of connection points: 4
#     Node 31, Type 0, BuildingBlock: NAWXER_clean_sbu_0, # of connection points: 4
#     Node 32, Type 0, BuildingBlock: NAWXER_clean_sbu_0, # of connection points: 4
#     Node 33, Type 0, BuildingBlock: NAWXER_clean_sbu_0, # of connection points: 4
#     Node 34, Type 0, BuildingBlock: NAWXER_clean_sbu_0, # of connection points: 4
#     Node 35, Type 0, BuildingBlock: NAWXER_clean_sbu_0, # of connection points: 4
#     Node 36, Type 0, BuildingBlock: NAWXER_clean_sbu_0, # of connection points: 4
#     Node 37, Type 0, BuildingBlock: NAWXER_clean_sbu_0, # of connection points: 4
#     Node 38, Type 0, BuildingBlock: NAWXER_clean_sbu_0, # of connection points: 4
#     Node 39, Type 0, BuildingBlock: NAWXER_clean_sbu_0, # of connection points: 4
#     Node 40, Type 0, BuildingBlock: NAWXER_clean_sbu_0, # of connection points: 4
#     Node 41, Type 0, BuildingBlock: NAWXER_clean_sbu_0, # of connection points: 4
#     Node 42, Type 0, BuildingBlock: NAWXER_clean_sbu_0, # of connection points: 4
#     Node 43, Type 0, BuildingBlock: NAWXER_clean_sbu_0, # of connection points: 4
#     Node 44, Type 0, BuildingBlock: NAWXER_clean_sbu_0, # of connection points: 4
#     Node 45, Type 0, BuildingBlock: NAWXER_clean_sbu_0, # of connection points: 4
#     Node 46, Type 0, BuildingBlock: NAWXER_clean_sbu_0, # of connection points: 4
#     Node 47, Type 0, BuildingBlock: NAWXER_clean_sbu_0, # of connection points: 4
#     Node 48, Type 0, BuildingBlock: NAWXER_clean_sbu_0, # of connection points: 4
#     Node 49, Type 0, BuildingBlock: NAWXER_clean_sbu_0, # of connection points: 4
#     Node 50, Type 0, BuildingBlock: NAWXER_clean_sbu_0, # of connection points: 4
#     Node 51, Type 0, BuildingBlock: NAWXER_clean_sbu_0, # of connection points: 4
#     Node 52, Type 0, BuildingBlock: NAWXER_clean_sbu_0, # of connection points: 4
#     Node 53, Type 0, BuildingBlock: NAWXER_clean_sbu_0, # of connection points: 4
#     Node 54, Type 0, BuildingBlock: NAWXER_clean_sbu_0, # of connection points: 4
#     Node 55, Type 0, BuildingBlock: NAWXER_clean_sbu_0, # of connection points: 4
#     Node 56, Type 0, BuildingBlock: NAWXER_clean_sbu_0, # of connection points: 4
#     Node 57, Type 0, BuildingBlock: NAWXER_clean_sbu_0, # of connection points: 4
#     Node 58, Type 0, BuildingBlock: NAWXER_clean_sbu_0, # of connection points: 4
#     Node 59, Type 0, BuildingBlock: NAWXER_clean_sbu_0, # of connection points: 4
#     Node 60, Type 0, BuildingBlock: NAWXER_clean_sbu_0, # of connection points: 4
#     Node 61, Type 0, BuildingBlock: NAWXER_clean_sbu_0, # of connection points: 4
#     Node 62, Type 0, BuildingBlock: NAWXER_clean_sbu_0, # of connection points: 4
#     Node 63, Type 0, BuildingBlock: NAWXER_clean_sbu_0, # of connection points: 4
#     Node 64, Type 0, BuildingBlock: NAWXER_clean_sbu_0, # of connection points: 4
#     Node 65, Type 0, BuildingBlock: NAWXER_clean_sbu_0, # of connection points: 4
#     Node 66, Type 0, BuildingBlock: NAWXER_clean_sbu_0, # of connection points: 4
#     Node 67, Type 0, BuildingBlock: NAWXER_clean_sbu_0, # of connection points: 4
#     Node 68, Type 0, BuildingBlock: NAWXER_clean_sbu_0, # of connection points: 4
#     Node 69, Type 0, BuildingBlock: NAWXER_clean_sbu_0, # of connection points: 4
#     Node 70, Type 0, BuildingBlock: NAWXER_clean_sbu_0, # of connection points: 4
#     Node 71, Type 0, BuildingBlock: NAWXER_clean_sbu_0, # of connection points: 4
#     Node 72, Type 0, BuildingBlock: NAWXER_clean_sbu_0, # of connection points: 4
#     Node 73, Type 0, BuildingBlock: NAWXER_clean_sbu_0, # of connection points: 4
#     Node 74, Type 0, BuildingBlock: NAWXER_clean_sbu_0, # of connection points: 4
#     Node 75, Type 0, BuildingBlock: NAWXER_clean_sbu_0, # of connection points: 4
#     Node 76, Type 0, BuildingBlock: NAWXER_clean_sbu_0, # of connection points: 4
#     Node 77, Type 0, BuildingBlock: NAWXER_clean_sbu_0, # of connection points: 4
#     Node 78, Type 0, BuildingBlock: NAWXER_clean_sbu_0, # of connection points: 4
#     Node 79, Type 0, BuildingBlock: NAWXER_clean_sbu_0, # of connection points: 4
#     Node 80, Type 0, BuildingBlock: NAWXER_clean_sbu_0, # of connection points: 4
#     Node 81, Type 0, BuildingBlock: NAWXER_clean_sbu_0, # of connection points: 4
#     Node 82, Type 0, BuildingBlock: NAWXER_clean_sbu_0, # of connection points: 4
#     Node 83, Type 0, BuildingBlock: NAWXER_clean_sbu_0, # of connection points: 4
#     Node 84, Type 0, BuildingBlock: NAWXER_clean_sbu_0, # of connection points: 4
#     Node 85, Type 0, BuildingBlock: NAWXER_clean_sbu_0, # of connection points: 4
#     Node 86, Type 0, BuildingBlock: NAWXER_clean_sbu_0, # of connection points: 4
#     Node 87, Type 0, BuildingBlock: NAWXER_clean_sbu_0, # of connection points: 4
#     Node 88, Type 0, BuildingBlock: NAWXER_clean_sbu_0, # of connection points: 4
#     Node 89, Type 0, BuildingBlock: NAWXER_clean_sbu_0, # of connection points: 4
#     Node 90, Type 0, BuildingBlock: NAWXER_clean_sbu_0, # of connection points: 4
#     Node 91, Type 0, BuildingBlock: NAWXER_clean_sbu_0, # of connection points: 4
#     Node 92, Type 0, BuildingBlock: NAWXER_clean_sbu_0, # of connection points: 4
#     Node 93, Type 0, BuildingBlock: NAWXER_clean_sbu_0, # of connection points: 4
#     Node 94, Type 0, BuildingBlock: NAWXER_clean_sbu_0, # of connection points: 4
#     Node 95, Type 0, BuildingBlock: NAWXER_clean_sbu_0, # of connection points: 4
#     Edge 96, Type (0, 0), BuildingBlock: KIFKEQ_clean_linker_1, # of connection points: 2
#     Edge 97, Type (0, 0), BuildingBlock: KIFKEQ_clean_linker_1, # of connection points: 2
#     Edge 98, Type (0, 0), BuildingBlock: KIFKEQ_clean_linker_1, # of connection points: 2
#     Edge 99, Type (0, 0), BuildingBlock: KIFKEQ_clean_linker_1, # of connection points: 2
#     Edge 100, Type (0, 0), BuildingBlock: KIFKEQ_clean_linker_1, # of connection points: 2
#     Edge 101, Type (0, 0), BuildingBlock: KIFKEQ_clean_linker_1, # of connection points: 2
#     Edge 102, Type (0, 0), BuildingBlock: KIFKEQ_clean_linker_1, # of connection points: 2
#     Edge 103, Type (0, 0), BuildingBlock: KIFKEQ_clean_linker_1, # of connection points: 2
#     Edge 104, Type (0, 0), BuildingBlock: KIFKEQ_clean_linker_1, # of connection points: 2
#     Edge 105, Type (0, 0), BuildingBlock: KIFKEQ_clean_linker_1, # of connection points: 2
#     Edge 106, Type (0, 0), BuildingBlock: KIFKEQ_clean_linker_1, # of connection points: 2
#     Edge 107, Type (0, 0), BuildingBlock: KIFKEQ_clean_linker_1, # of connection points: 2
#     Edge 108, Type (0, 0), BuildingBlock: KIFKEQ_clean_linker_1, # of connection points: 2
#     Edge 109, Type (0, 0), BuildingBlock: KIFKEQ_clean_linker_1, # of connection points: 2
#     Edge 110, Type (0, 0), BuildingBlock: KIFKEQ_clean_linker_1, # of connection points: 2
#     Edge 111, Type (0, 0), BuildingBlock: KIFKEQ_clean_linker_1, # of connection points: 2
#     Edge 112, Type (0, 0), BuildingBlock: KIFKEQ_clean_linker_1, # of connection points: 2
#     Edge 113, Type (0, 0), BuildingBlock: KIFKEQ_clean_linker_1, # of connection points: 2
#     Edge 114, Type (0, 0), BuildingBlock: KIFKEQ_clean_linker_1, # of connection points: 2
#     Edge 115, Type (0, 0), BuildingBlock: KIFKEQ_clean_linker_1, # of connection points: 2
#     Edge 116, Type (0, 0), BuildingBlock: KIFKEQ_clean_linker_1, # of connection points: 2
#     Edge 117, Type (0, 0), BuildingBlock: KIFKEQ_clean_linker_1, # of connection points: 2
#     Edge 118, Type (0, 0), BuildingBlock: KIFKEQ_clean_linker_1, # of connection points: 2
#     Edge 119, Type (0, 0), BuildingBlock: KIFKEQ_clean_linker_1, # of connection points: 2
#     Edge 120, Type (0, 0), BuildingBlock: KIFKEQ_clean_linker_1, # of connection points: 2
#     Edge 121, Type (0, 0), BuildingBlock: KIFKEQ_clean_linker_1, # of connection points: 2
#     Edge 122, Type (0, 0), BuildingBlock: KIFKEQ_clean_linker_1, # of connection points: 2
#     Edge 123, Type (0, 0), BuildingBlock: KIFKEQ_clean_linker_1, # of connection points: 2
#     Edge 124, Type (0, 0), BuildingBlock: KIFKEQ_clean_linker_1, # of connection points: 2
#     Edge 125, Type (0, 0), BuildingBlock: KIFKEQ_clean_linker_1, # of connection points: 2
#     Edge 126, Type (0, 0), BuildingBlock: KIFKEQ_clean_linker_1, # of connection points: 2
#     Edge 127, Type (0, 0), BuildingBlock: KIFKEQ_clean_linker_1, # of connection points: 2
#     Edge 128, Type (0, 0), BuildingBlock: KIFKEQ_clean_linker_1, # of connection points: 2
#     Edge 129, Type (0, 0), BuildingBlock: KIFKEQ_clean_linker_1, # of connection points: 2
#     Edge 130, Type (0, 0), BuildingBlock: KIFKEQ_clean_linker_1, # of connection points: 2
#     Edge 131, Type (0, 0), BuildingBlock: KIFKEQ_clean_linker_1, # of connection points: 2
#     Edge 132, Type (0, 0), BuildingBlock: KIFKEQ_clean_linker_1, # of connection points: 2
#     Edge 133, Type (0, 0), BuildingBlock: KIFKEQ_clean_linker_1, # of connection points: 2
#     Edge 134, Type (0, 0), BuildingBlock: KIFKEQ_clean_linker_1, # of connection points: 2
#     Edge 135, Type (0, 0), BuildingBlock: KIFKEQ_clean_linker_1, # of connection points: 2
#     Edge 136, Type (0, 0), BuildingBlock: KIFKEQ_clean_linker_1, # of connection points: 2
#     Edge 137, Type (0, 0), BuildingBlock: KIFKEQ_clean_linker_1, # of connection points: 2
#     Edge 138, Type (0, 0), BuildingBlock: KIFKEQ_clean_linker_1, # of connection points: 2
#     Edge 139, Type (0, 0), BuildingBlock: KIFKEQ_clean_linker_1, # of connection points: 2
#     Edge 140, Type (0, 0), BuildingBlock: KIFKEQ_clean_linker_1, # of connection points: 2
#     Edge 141, Type (0, 0), BuildingBlock: KIFKEQ_clean_linker_1, # of connection points: 2
#     Edge 142, Type (0, 0), BuildingBlock: KIFKEQ_clean_linker_1, # of connection points: 2
#     Edge 143, Type (0, 0), BuildingBlock: KIFKEQ_clean_linker_1, # of connection points: 2
#     Edge 144, Type (0, 0), BuildingBlock: KIFKEQ_clean_linker_1, # of connection points: 2
#     Edge 145, Type (0, 0), BuildingBlock: KIFKEQ_clean_linker_1, # of connection points: 2
#     Edge 146, Type (0, 0), BuildingBlock: KIFKEQ_clean_linker_1, # of connection points: 2
#     Edge 147, Type (0, 0), BuildingBlock: KIFKEQ_clean_linker_1, # of connection points: 2
#     Edge 148, Type (0, 0), BuildingBlock: KIFKEQ_clean_linker_1, # of connection points: 2
#     Edge 149, Type (0, 0), BuildingBlock: KIFKEQ_clean_linker_1, # of connection points: 2
#     Edge 150, Type (0, 0), BuildingBlock: KIFKEQ_clean_linker_1, # of connection points: 2
#     Edge 151, Type (0, 0), BuildingBlock: KIFKEQ_clean_linker_1, # of connection points: 2
#     Edge 152, Type (0, 0), BuildingBlock: KIFKEQ_clean_linker_1, # of connection points: 2
#     Edge 153, Type (0, 0), BuildingBlock: KIFKEQ_clean_linker_1, # of connection points: 2
#     Edge 154, Type (0, 0), BuildingBlock: KIFKEQ_clean_linker_1, # of connection points: 2
#     Edge 155, Type (0, 0), BuildingBlock: KIFKEQ_clean_linker_1, # of connection points: 2
#     Edge 156, Type (0, 0), BuildingBlock: KIFKEQ_clean_linker_1, # of connection points: 2
#     Edge 157, Type (0, 0), BuildingBlock: KIFKEQ_clean_linker_1, # of connection points: 2
#     Edge 158, Type (0, 0), BuildingBlock: KIFKEQ_clean_linker_1, # of connection points: 2
#     Edge 159, Type (0, 0), BuildingBlock: KIFKEQ_clean_linker_1, # of connection points: 2
#     Edge 160, Type (0, 0), BuildingBlock: KIFKEQ_clean_linker_1, # of connection points: 2
#     Edge 161, Type (0, 0), BuildingBlock: KIFKEQ_clean_linker_1, # of connection points: 2
#     Edge 162, Type (0, 0), BuildingBlock: KIFKEQ_clean_linker_1, # of connection points: 2
#     Edge 163, Type (0, 0), BuildingBlock: KIFKEQ_clean_linker_1, # of connection points: 2
#     Edge 164, Type (0, 0), BuildingBlock: KIFKEQ_clean_linker_1, # of connection points: 2
#     Edge 165, Type (0, 0), BuildingBlock: KIFKEQ_clean_linker_1, # of connection points: 2
#     Edge 166, Type (0, 0), BuildingBlock: KIFKEQ_clean_linker_1, # of connection points: 2
#     Edge 167, Type (0, 0), BuildingBlock: KIFKEQ_clean_linker_1, # of connection points: 2
#     Edge 168, Type (0, 0), BuildingBlock: KIFKEQ_clean_linker_1, # of connection points: 2
#     Edge 169, Type (0, 0), BuildingBlock: KIFKEQ_clean_linker_1, # of connection points: 2
#     Edge 170, Type (0, 0), BuildingBlock: KIFKEQ_clean_linker_1, # of connection points: 2
#     Edge 171, Type (0, 0), BuildingBlock: KIFKEQ_clean_linker_1, # of connection points: 2
#     Edge 172, Type (0, 0), BuildingBlock: KIFKEQ_clean_linker_1, # of connection points: 2
#     Edge 173, Type (0, 0), BuildingBlock: KIFKEQ_clean_linker_1, # of connection points: 2
#     Edge 174, Type (0, 0), BuildingBlock: KIFKEQ_clean_linker_1, # of connection points: 2
#     Edge 175, Type (0, 0), BuildingBlock: KIFKEQ_clean_linker_1, # of connection points: 2
#     Edge 176, Type (0, 0), BuildingBlock: KIFKEQ_clean_linker_1, # of connection points: 2
#     Edge 177, Type (0, 0), BuildingBlock: KIFKEQ_clean_linker_1, # of connection points: 2
#     Edge 178, Type (0, 0), BuildingBlock: KIFKEQ_clean_linker_1, # of connection points: 2
#     Edge 179, Type (0, 0), BuildingBlock: KIFKEQ_clean_linker_1, # of connection points: 2
#     Edge 180, Type (0, 0), BuildingBlock: KIFKEQ_clean_linker_1, # of connection points: 2
#     Edge 181, Type (0, 0), BuildingBlock: KIFKEQ_clean_linker_1, # of connection points: 2
#     Edge 182, Type (0, 0), BuildingBlock: KIFKEQ_clean_linker_1, # of connection points: 2
#     Edge 183, Type (0, 0), BuildingBlock: KIFKEQ_clean_linker_1, # of connection points: 2
#     Edge 184, Type (0, 0), BuildingBlock: KIFKEQ_clean_linker_1, # of connection points: 2
#     Edge 185, Type (0, 0), BuildingBlock: KIFKEQ_clean_linker_1, # of connection points: 2
#     Edge 186, Type (0, 0), BuildingBlock: KIFKEQ_clean_linker_1, # of connection points: 2
#     Edge 187, Type (0, 0), BuildingBlock: KIFKEQ_clean_linker_1, # of connection points: 2
#     Edge 188, Type (0, 0), BuildingBlock: KIFKEQ_clean_linker_1, # of connection points: 2
#     Edge 189, Type (0, 0), BuildingBlock: KIFKEQ_clean_linker_1, # of connection points: 2
#     Edge 190, Type (0, 0), BuildingBlock: KIFKEQ_clean_linker_1, # of connection points: 2
#     Edge 191, Type (0, 0), BuildingBlock: KIFKEQ_clean_linker_1, # of connection points: 2
#     Edge 192, Type (0, 0), BuildingBlock: KIFKEQ_clean_linker_1, # of connection points: 2
#     Edge 193, Type (0, 0), BuildingBlock: KIFKEQ_clean_linker_1, # of connection points: 2
#     Edge 194, Type (0, 0), BuildingBlock: KIFKEQ_clean_linker_1, # of connection points: 2
#     Edge 195, Type (0, 0), BuildingBlock: KIFKEQ_clean_linker_1, # of connection points: 2
#     Edge 196, Type (0, 0), BuildingBlock: KIFKEQ_clean_linker_1, # of connection points: 2
#     Edge 197, Type (0, 0), BuildingBlock: KIFKEQ_clean_linker_1, # of connection points: 2
#     Edge 198, Type (0, 0), BuildingBlock: KIFKEQ_clean_linker_1, # of connection points: 2
#     Edge 199, Type (0, 0), BuildingBlock: KIFKEQ_clean_linker_1, # of connection points: 2
#     Edge 200, Type (0, 0), BuildingBlock: KIFKEQ_clean_linker_1, # of connection points: 2
#     Edge 201, Type (0, 0), BuildingBlock: KIFKEQ_clean_linker_1, # of connection points: 2
#     Edge 202, Type (0, 0), BuildingBlock: KIFKEQ_clean_linker_1, # of connection points: 2
#     Edge 203, Type (0, 0), BuildingBlock: KIFKEQ_clean_linker_1, # of connection points: 2
#     Edge 204, Type (0, 0), BuildingBlock: KIFKEQ_clean_linker_1, # of connection points: 2
#     Edge 205, Type (0, 0), BuildingBlock: KIFKEQ_clean_linker_1, # of connection points: 2
#     Edge 206, Type (0, 0), BuildingBlock: KIFKEQ_clean_linker_1, # of connection points: 2
#     Edge 207, Type (0, 0), BuildingBlock: KIFKEQ_clean_linker_1, # of connection points: 2
#     Edge 208, Type (0, 0), BuildingBlock: KIFKEQ_clean_linker_1, # of connection points: 2
#     Edge 209, Type (0, 0), BuildingBlock: KIFKEQ_clean_linker_1, # of connection points: 2
#     Edge 210, Type (0, 0), BuildingBlock: KIFKEQ_clean_linker_1, # of connection points: 2
#     Edge 211, Type (0, 0), BuildingBlock: KIFKEQ_clean_linker_1, # of connection points: 2
#     Edge 212, Type (0, 0), BuildingBlock: KIFKEQ_clean_linker_1, # of connection points: 2
#     Edge 213, Type (0, 0), BuildingBlock: KIFKEQ_clean_linker_1, # of connection points: 2
#     Edge 214, Type (0, 0), BuildingBlock: KIFKEQ_clean_linker_1, # of connection points: 2
#     Edge 215, Type (0, 0), BuildingBlock: KIFKEQ_clean_linker_1, # of connection points: 2
#     Edge 216, Type (0, 0), BuildingBlock: KIFKEQ_clean_linker_1, # of connection points: 2
#     Edge 217, Type (0, 0), BuildingBlock: KIFKEQ_clean_linker_1, # of connection points: 2
#     Edge 218, Type (0, 0), BuildingBlock: KIFKEQ_clean_linker_1, # of connection points: 2
#     Edge 219, Type (0, 0), BuildingBlock: KIFKEQ_clean_linker_1, # of connection points: 2
#     Edge 220, Type (0, 0), BuildingBlock: KIFKEQ_clean_linker_1, # of connection points: 2
#     Edge 221, Type (0, 0), BuildingBlock: KIFKEQ_clean_linker_1, # of connection points: 2
#     Edge 222, Type (0, 0), BuildingBlock: KIFKEQ_clean_linker_1, # of connection points: 2
#     Edge 223, Type (0, 0), BuildingBlock: KIFKEQ_clean_linker_1, # of connection points: 2
#     Edge 224, Type (0, 0), BuildingBlock: KIFKEQ_clean_linker_1, # of connection points: 2
#     Edge 225, Type (0, 0), BuildingBlock: KIFKEQ_clean_linker_1, # of connection points: 2
#     Edge 226, Type (0, 0), BuildingBlock: KIFKEQ_clean_linker_1, # of connection points: 2
#     Edge 227, Type (0, 0), BuildingBlock: KIFKEQ_clean_linker_1, # of connection points: 2
#     Edge 228, Type (0, 0), BuildingBlock: KIFKEQ_clean_linker_1, # of connection points: 2
#     Edge 229, Type (0, 0), BuildingBlock: KIFKEQ_clean_linker_1, # of connection points: 2
#     Edge 230, Type (0, 0), BuildingBlock: KIFKEQ_clean_linker_1, # of connection points: 2
#     Edge 231, Type (0, 0), BuildingBlock: KIFKEQ_clean_linker_1, # of connection points: 2
#     Edge 232, Type (0, 0), BuildingBlock: KIFKEQ_clean_linker_1, # of connection points: 2
#     Edge 233, Type (0, 0), BuildingBlock: KIFKEQ_clean_linker_1, # of connection points: 2
#     Edge 234, Type (0, 0), BuildingBlock: KIFKEQ_clean_linker_1, # of connection points: 2
#     Edge 235, Type (0, 0), BuildingBlock: KIFKEQ_clean_linker_1, # of connection points: 2
#     Edge 236, Type (0, 0), BuildingBlock: KIFKEQ_clean_linker_1, # of connection points: 2
#     Edge 237, Type (0, 0), BuildingBlock: KIFKEQ_clean_linker_1, # of connection points: 2
#     Edge 238, Type (0, 0), BuildingBlock: KIFKEQ_clean_linker_1, # of connection points: 2
#     Edge 239, Type (0, 0), BuildingBlock: KIFKEQ_clean_linker_1, # of connection points: 2
#     Edge 240, Type (0, 0), BuildingBlock: KIFKEQ_clean_linker_1, # of connection points: 2
#     Edge 241, Type (0, 0), BuildingBlock: KIFKEQ_clean_linker_1, # of connection points: 2
#     Edge 242, Type (0, 0), BuildingBlock: KIFKEQ_clean_linker_1, # of connection points: 2
#     Edge 243, Type (0, 0), BuildingBlock: KIFKEQ_clean_linker_1, # of connection points: 2
#     Edge 244, Type (0, 0), BuildingBlock: KIFKEQ_clean_linker_1, # of connection points: 2
#     Edge 245, Type (0, 0), BuildingBlock: KIFKEQ_clean_linker_1, # of connection points: 2
#     Edge 246, Type (0, 0), BuildingBlock: KIFKEQ_clean_linker_1, # of connection points: 2
#     Edge 247, Type (0, 0), BuildingBlock: KIFKEQ_clean_linker_1, # of connection points: 2
#     Edge 248, Type (0, 0), BuildingBlock: KIFKEQ_clean_linker_1, # of connection points: 2
#     Edge 249, Type (0, 0), BuildingBlock: KIFKEQ_clean_linker_1, # of connection points: 2
#     Edge 250, Type (0, 0), BuildingBlock: KIFKEQ_clean_linker_1, # of connection points: 2
#     Edge 251, Type (0, 0), BuildingBlock: KIFKEQ_clean_linker_1, # of connection points: 2
#     Edge 252, Type (0, 0), BuildingBlock: KIFKEQ_clean_linker_1, # of connection points: 2
#     Edge 253, Type (0, 0), BuildingBlock: KIFKEQ_clean_linker_1, # of connection points: 2
#     Edge 254, Type (0, 0), BuildingBlock: KIFKEQ_clean_linker_1, # of connection points: 2
#     Edge 255, Type (0, 0), BuildingBlock: KIFKEQ_clean_linker_1, # of connection points: 2
#     Edge 256, Type (0, 0), BuildingBlock: KIFKEQ_clean_linker_1, # of connection points: 2
#     Edge 257, Type (0, 0), BuildingBlock: KIFKEQ_clean_linker_1, # of connection points: 2
#     Edge 258, Type (0, 0), BuildingBlock: KIFKEQ_clean_linker_1, # of connection points: 2
#     Edge 259, Type (0, 0), BuildingBlock: KIFKEQ_clean_linker_1, # of connection points: 2
#     Edge 260, Type (0, 0), BuildingBlock: KIFKEQ_clean_linker_1, # of connection points: 2
#     Edge 261, Type (0, 0), BuildingBlock: KIFKEQ_clean_linker_1, # of connection points: 2
#     Edge 262, Type (0, 0), BuildingBlock: KIFKEQ_clean_linker_1, # of connection points: 2
#     Edge 263, Type (0, 0), BuildingBlock: KIFKEQ_clean_linker_1, # of connection points: 2
#     Edge 264, Type (0, 0), BuildingBlock: KIFKEQ_clean_linker_1, # of connection points: 2
#     Edge 265, Type (0, 0), BuildingBlock: KIFKEQ_clean_linker_1, # of connection points: 2
#     Edge 266, Type (0, 0), BuildingBlock: KIFKEQ_clean_linker_1, # of connection points: 2
#     Edge 267, Type (0, 0), BuildingBlock: KIFKEQ_clean_linker_1, # of connection points: 2
#     Edge 268, Type (0, 0), BuildingBlock: KIFKEQ_clean_linker_1, # of connection points: 2
#     Edge 269, Type (0, 0), BuildingBlock: KIFKEQ_clean_linker_1, # of connection points: 2
#     Edge 270, Type (0, 0), BuildingBlock: KIFKEQ_clean_linker_1, # of connection points: 2
#     Edge 271, Type (0, 0), BuildingBlock: KIFKEQ_clean_linker_1, # of connection points: 2
#     Edge 272, Type (0, 0), BuildingBlock: KIFKEQ_clean_linker_1, # of connection points: 2
#     Edge 273, Type (0, 0), BuildingBlock: KIFKEQ_clean_linker_1, # of connection points: 2
#     Edge 274, Type (0, 0), BuildingBlock: KIFKEQ_clean_linker_1, # of connection points: 2
#     Edge 275, Type (0, 0), BuildingBlock: KIFKEQ_clean_linker_1, # of connection points: 2
#     Edge 276, Type (0, 0), BuildingBlock: KIFKEQ_clean_linker_1, # of connection points: 2
#     Edge 277, Type (0, 0), BuildingBlock: KIFKEQ_clean_linker_1, # of connection points: 2
#     Edge 278, Type (0, 0), BuildingBlock: KIFKEQ_clean_linker_1, # of connection points: 2
#     Edge 279, Type (0, 0), BuildingBlock: KIFKEQ_clean_linker_1, # of connection points: 2
#     Edge 280, Type (0, 0), BuildingBlock: KIFKEQ_clean_linker_1, # of connection points: 2
#     Edge 281, Type (0, 0), BuildingBlock: KIFKEQ_clean_linker_1, # of connection points: 2
#     Edge 282, Type (0, 0), BuildingBlock: KIFKEQ_clean_linker_1, # of connection points: 2
#     Edge 283, Type (0, 0), BuildingBlock: KIFKEQ_clean_linker_1, # of connection points: 2
#     Edge 284, Type (0, 0), BuildingBlock: KIFKEQ_clean_linker_1, # of connection points: 2
#     Edge 285, Type (0, 0), BuildingBlock: KIFKEQ_clean_linker_1, # of connection points: 2
#     Edge 286, Type (0, 0), BuildingBlock: KIFKEQ_clean_linker_1, # of connection points: 2
#     Edge 287, Type (0, 0), BuildingBlock: KIFKEQ_clean_linker_1, # of connection points: 2
# Relax obj value: 0.131
# Max RMSD: 0.268
# Mean RMSD: 0.268
data_MOF--net-ukw--node1-NAWXER_clean_sbu_0--edge1-KIFKEQ_clean_linker_1
_symmetry_space_group_name_H-M    P1
_symmetry_Int_Tables_number       1
_symmetry_cell_setting            triclinic
loop_
_symmetry_equiv_pos_as_xyz
'x, y, z'
_cell_length_a     77.511322
_cell_length_b     77.513203
_cell_length_c     77.502622
_cell_angle_alpha  90.000691
_cell_angle_beta   89.987802
_cell_angle_gamma 89.989996
loop_
_atom_site_label
_atom_site_type_symbol
_atom_site_fract_x
_atom_site_fract_y
_atom_site_fract_z
_atom_type_partial_charge
C0 C 0.00428 0.07843 0.3646 0.0
C1 C 0.06251 0.08428 0.34283 0.0
O2 O 0.00814 0.0944 0.36231 0.0
Zn3 Zn 0.03076 0.10865 0.35351 0.0
O4 O 0.01532 0.06684 0.3612 0.0
Zn5 Zn 0.03301 0.0819 0.35321 0.0
O6 O 0.0409 0.09428 0.37705 0.0
O7 O 0.03708 0.12221 0.37317 0.0
O8 O 0.05374 0.07078 0.34567 0.0
O9 O 0.05551 0.09913 0.34497 0.0
O10 O 0.02207 0.12123 0.33425 0.0
O11 O 0.02151 0.09312 0.33008 0.0
C12 C 0.04185 0.10981 0.38274 0.0
C13 C 0.0181 0.10848 0.32481 0.0
C14 C 0.16965 0.75156 0.60811 0.0
C15 C 0.15541 0.80991 0.59083 0.0
O16 O 0.15342 0.7544 0.6096 0.0
Zn17 Zn 0.13601 0.77543 0.60376 0.0
O18 O 0.17942 0.76314 0.60192 0.0
Zn19 Zn 0.16185 0.78019 0.59822 0.0
O20 O 0.15327 0.78686 0.62443 0.0
O21 O 0.12584 0.77896 0.62579 0.0
O22 O 0.16962 0.80191 0.5895 0.0
O23 O 0.14188 0.80173 0.59583 0.0
O24 O 0.12092 0.76618 0.5864 0.0
O25 O 0.14754 0.7691 0.57706 0.0
C26 C 0.13908 0.78542 0.63293 0.0
C27 C 0.13192 0.76429 0.57445 0.0
C28 C 0.46474 0.88701 0.88379 0.0
C29 C 0.48436 0.88422 0.82449 0.0
O30 O 0.46382 0.90193 0.87663 0.0
Zn31 Zn 0.47011 0.91263 0.85133 0.0
O32 O 0.4705 0.8743 0.87523 0.0
Zn33 Zn 0.47408 0.88623 0.85406 0.0
O34 O 0.49625 0.90226 0.8599 0.0
O35 O 0.48759 0.9292 0.85687 0.0
O36 O 0.48193 0.87228 0.83539 0.0
O37 O 0.4805 0.89983 0.82858 0.0
O38 O 0.44845 0.92188 0.8438 0.0
O39 O 0.44804 0.89364 0.84708 0.0
C40 C 0.49943 0.91851 0.86054 0.0
C41 C 0.44014 0.90779 0.84365 0.0
C42 C 0.33353 0.24785 0.11147 0.0
C43 C 0.34248 0.18893 0.09236 0.0
O44 O 0.34971 0.24448 0.10995 0.0
Zn45 Zn 0.36512 0.22212 0.10227 0.0
O46 O 0.32245 0.23641 0.10765 0.0
Zn47 Zn 0.33847 0.21907 0.10072 0.0
O48 O 0.35011 0.2125 0.12548 0.0
O49 O 0.37805 0.21731 0.12268 0.0
O50 O 0.3286 0.19755 0.09306 0.0
O51 O 0.35687 0.19652 0.09536 0.0
O52 O 0.37821 0.2301 0.08288 0.0
O53 O 0.35022 0.23059 0.07803 0.0
C54 C 0.3654 0.21241 0.13187 0.0
C55 C 0.36569 0.23388 0.07307 0.0
C56 C 0.00203 0.91893 0.13759 0.0
C57 C 0.06037 0.91003 0.15805 0.0
O58 O 0.0055 0.90272 0.13825 0.0
Zn59 Zn 0.02773 0.88724 0.14628 0.0
O60 O 0.01335 0.92975 0.14232 0.0
Zn61 Zn 0.03078 0.91366 0.14848 0.0
O62 O 0.03809 0.90264 0.12356 0.0
O63 O 0.03345 0.87466 0.12599 0.0
O64 O 0.0518 0.92384 0.15632 0.0
O65 O 0.05304 0.89549 0.15503 0.0
O66 O 0.01888 0.87352 0.16465 0.0
O67 O 0.01968 0.90116 0.17111 0.0
C68 C 0.03852 0.88738 0.11706 0.0
C69 C 0.01582 0.88558 0.17525 0.0
C70 C 0.36234 0.78754 0.36841 0.0
C71 C 0.36236 0.7662 0.42719 0.0
O72 O 0.34706 0.78795 0.37477 0.0
Zn73 Zn 0.33517 0.78037 0.399 0.0
O74 O 0.37477 0.78184 0.37739 0.0
Zn75 Zn 0.36181 0.77745 0.39796 0.0
O76 O 0.34692 0.7548 0.39066 0.0
O77 O 0.31959 0.76271 0.39181 0.0
O78 O 0.37492 0.76973 0.41733 0.0
O79 O 0.34688 0.76938 0.42213 0.0
O80 O 0.32457 0.80131 0.40643 0.0
O81 O 0.35295 0.80292 0.40561 0.0
C82 C 0.33085 0.75124 0.38874 0.0
C83 C 0.33824 0.8101 0.40819 0.0
C84 C 0.46388 0.1128 0.61787 0.0
C85 C 0.48622 0.11752 0.6761 0.0
O86 O 0.46366 0.09803 0.62543 0.0
Zn87 Zn 0.47061 0.08836 0.65107 0.0
O88 O 0.46962 0.12589 0.62585 0.0
Zn89 Zn 0.47462 0.11453 0.64699 0.0
O90 O 0.49622 0.09786 0.64015 0.0
O91 O 0.48764 0.07137 0.64599 0.0
O92 O 0.48368 0.12903 0.66478 0.0
O93 O 0.4819 0.10187 0.67281 0.0
O94 O 0.44915 0.07961 0.65971 0.0
O95 O 0.44884 0.10768 0.65531 0.0
C96 C 0.49924 0.08155 0.64055 0.0
C97 C 0.44095 0.09376 0.65958 0.0
C98 C 0.1652 0.18847 0.90895 0.0
C99 C 0.17137 0.24706 0.88812 0.0
O100 O 0.1504 0.19552 0.90669 0.0
Zn101 Zn 0.14103 0.22037 0.89837 0.0
O102 O 0.17876 0.19725 0.90642 0.0
Zn103 Zn 0.16779 0.21815 0.89904 0.0
O104 O 0.15619 0.2293 0.92215 0.0
O105 O 0.12815 0.22878 0.91755 0.0
O106 O 0.18295 0.23601 0.8916 0.0
O107 O 0.15538 0.24311 0.89008 0.0
O108 O 0.12778 0.21436 0.87841 0.0
O109 O 0.15578 0.21071 0.87484 0.0
C110 C 0.14075 0.23262 0.92724 0.0
C111 C 0.14033 0.20984 0.86892 0.0
C112 C 0.32282 0.01448 0.11735 0.0
C113 C 0.38173 0.03514 0.11541 0.0
O114 O 0.32705 0.01823 0.10175 0.0
Zn115 Zn 0.34974 0.02921 0.08928 0.0
O116 O 0.33342 0.01747 0.12942 0.0
Zn117 Zn 0.35212 0.02566 0.11572 0.0
O118 O 0.34495 0.0515 0.10804 0.0
O119 O 0.34206 0.05081 0.0798 0.0
O120 O 0.37282 0.03004 0.12815 0.0
O121 O 0.37499 0.03543 0.10026 0.0
O122 O 0.3558 0.01192 0.0728 0.0
O123 O 0.35895 0.00345 0.09982 0.0
C124 C 0.34162 0.05925 0.0938 0.0
C125 C 0.35983 0.00027 0.08357 0.0
C126 C 0.24942 0.1111 0.32983 0.0
C127 C 0.19111 0.09032 0.3379 0.0
O128 O 0.24572 0.11044 0.34599 0.0
Zn129 Zn 0.2233 0.10247 0.36114 0.0
O130 O 0.23824 0.10644 0.31884 0.0
Zn131 Zn 0.22058 0.10025 0.33465 0.0
O132 O 0.21287 0.12506 0.34554 0.0
O133 O 0.21722 0.12276 0.37357 0.0
O134 O 0.19979 0.09223 0.32417 0.0
O135 O 0.19824 0.09341 0.35254 0.0
O136 O 0.23202 0.08415 0.37501 0.0
O137 O 0.23147 0.07765 0.34736 0.0
C138 C 0.21218 0.13159 0.36076 0.0
C139 C 0.23515 0.07352 0.36299 0.0
C140 C 0.14067 0.99963 0.58239 0.0
C141 C 0.15644 0.93978 0.59164 0.0
O142 O 0.14165 0.99617 0.59858 0.0
Zn143 Zn 0.1478 0.97353 0.6141 0.0
O144 O 0.14401 0.98797 0.57139 0.0
Zn145 Zn 0.1496 0.97021 0.58753 0.0
O146 O 0.12437 0.96489 0.59884 0.0
O147 O 0.12706 0.96984 0.62677 0.0
O148 O 0.15615 0.94838 0.57774 0.0
O149 O 0.15374 0.94753 0.60602 0.0
O150 O 0.16712 0.98083 0.62749 0.0
O151 O 0.17286 0.98016 0.59968 0.0
C152 C 0.11781 0.96524 0.61407 0.0
C153 C 0.17755 0.9836 0.61521 0.0
C154 C 0.31043 0.90729 0.84249 0.0
C155 C 0.25176 0.88909 0.83044 0.0
O156 O 0.30243 0.90307 0.85637 0.0
Zn157 Zn 0.2765 0.89522 0.86321 0.0
O158 O 0.30229 0.90765 0.82829 0.0
Zn159 Zn 0.2807 0.8992 0.83691 0.0
O160 O 0.26963 0.9211 0.85048 0.0
O161 O 0.26788 0.91319 0.87771 0.0
O162 O 0.26347 0.89367 0.81996 0.0
O163 O 0.25481 0.88927 0.84672 0.0
O164 O 0.28043 0.87357 0.87423 0.0
O165 O 0.28769 0.87376 0.84662 0.0
C166 C 0.26543 0.92449 0.86616 0.0
C167 C 0.28666 0.86594 0.86117 0.0
C168 C 0.32319 0.98278 0.3867 0.0
C169 C 0.38182 0.9612 0.38833 0.0
O170 O 0.32772 0.97955 0.40233 0.0
Zn171 Zn 0.35066 0.96896 0.41477 0.0
O172 O 0.33347 0.97923 0.37449 0.0
Zn173 Zn 0.35225 0.97123 0.38811 0.0
O174 O 0.34411 0.94615 0.3972 0.0
O175 O 0.34334 0.94799 0.42556 0.0
O176 O 0.37267 0.96563 0.37551 0.0
O177 O 0.37541 0.96191 0.40359 0.0
O178 O 0.35719 0.9869 0.43022 0.0
O179 O 0.35963 0.99414 0.40276 0.0
C180 C 0.34149 0.9391 0.41196 0.0
C181 C 0.36093 0.99805 0.41883 0.0
C182 C 0.28755 0.13237 0.63575 0.0
C183 C 0.26717 0.07326 0.63526 0.0
O184 O 0.28761 0.12601 0.65106 0.0
Zn185 Zn 0.28127 0.10113 0.66267 0.0
O186 O 0.28257 0.12316 0.62316 0.0
Zn187 Zn 0.27804 0.10274 0.63607 0.0
O188 O 0.25561 0.10984 0.65143 0.0
O189 O 0.26367 0.10752 0.67866 0.0
O190 O 0.27015 0.08351 0.62288 0.0
O191 O 0.27073 0.07802 0.65074 0.0
O192 O 0.30278 0.09393 0.67266 0.0
O193 O 0.30376 0.09594 0.64433 0.0
C194 C 0.25215 0.11114 0.6676 0.0
C195 C 0.31137 0.09313 0.65876 0.0
C196 C 0.13894 0.00116 0.92093 0.0
C197 C 0.15931 0.05974 0.91352 0.0
O198 O 0.14082 0.00474 0.90485 0.0
Zn199 Zn 0.1485 0.0273 0.88999 0.0
O200 O 0.14216 0.01259 0.93219 0.0
Zn201 Zn 0.14944 0.0302 0.91659 0.0
O202 O 0.12523 0.03786 0.9046 0.0
O203 O 0.12829 0.03239 0.87687 0.0
O204 O 0.15703 0.05109 0.92721 0.0
O205 O 0.1568 0.05253 0.89881 0.0
O206 O 0.1675 0.01894 0.87692 0.0
O207 O 0.1726 0.01906 0.90489 0.0
C208 C 0.11907 0.03786 0.88922 0.0
C209 C 0.17747 0.0155 0.88943 0.0
C210 C 0.24825 0.88577 0.17068 0.0
C211 C 0.18938 0.90574 0.1638 0.0
O212 O 0.24448 0.8876 0.15463 0.0
Zn213 Zn 0.22176 0.89555 0.14 0.0
O214 O 0.23704 0.88928 0.18207 0.0
Zn215 Zn 0.21923 0.89643 0.16666 0.0
O216 O 0.21214 0.87206 0.1547 0.0
O217 O 0.21617 0.87557 0.12675 0.0
O218 O 0.19811 0.90349 0.17744 0.0
O219 O 0.1966 0.90352 0.14906 0.0
O220 O 0.22993 0.91463 0.12695 0.0
O221 O 0.23001 0.91971 0.15492 0.0
C222 C 0.21154 0.8661 0.13926 0.0
C223 C 0.23338 0.92462 0.13942 0.0
C224 C 0.07903 0.35751 0.00178 0.0
C225 C 0.09229 0.34015 0.06025 0.0
O226 O 0.09522 0.359 0.00488 0.0
Zn227 Zn 0.11228 0.353 0.02612 0.0
O228 O 0.0691 0.35119 0.01314 0.0
Zn229 Zn 0.08635 0.34742 0.03044 0.0
O230 O 0.09476 0.3736 0.03725 0.0
O231 O 0.12237 0.37501 0.03001 0.0
O232 O 0.07822 0.33876 0.05203 0.0
O233 O 0.10595 0.34508 0.05226 0.0
O234 O 0.12751 0.33564 0.01708 0.0
O235 O 0.10085 0.3263 0.01957 0.0
C236 C 0.10896 0.38209 0.03618 0.0
C237 C 0.11655 0.3237 0.01502 0.0
C238 C 0.57965 0.1396 0.99691 0.0
C239 C 0.58811 0.16014 0.93863 0.0
O240 O 0.59584 0.14016 0.99331 0.0
Zn241 Zn 0.61115 0.14849 0.97101 0.0
O242 O 0.56863 0.14436 0.98579 0.0
Zn243 Zn 0.58456 0.15041 0.96826 0.0
O244 O 0.59572 0.12558 0.96103 0.0
O245 O 0.62378 0.12821 0.96512 0.0
O246 O 0.57433 0.15838 0.94723 0.0
O247 O 0.60267 0.15711 0.9459 0.0
O248 O 0.62463 0.16736 0.97969 0.0
O249 O 0.59674 0.17277 0.97985 0.0
C250 C 0.611 0.11916 0.96036 0.0
C251 C 0.61225 0.17737 0.9834 0.0
C252 C 0.07262 0.36592 0.23486 0.0
C253 C 0.1317 0.36189 0.21461 0.0
O254 O 0.07628 0.35029 0.23076 0.0
Zn255 Zn 0.09848 0.3371 0.22 0.0
O256 O 0.08375 0.37762 0.23234 0.0
Zn257 Zn 0.10208 0.36333 0.22399 0.0
O258 O 0.09496 0.35623 0.19786 0.0
O259 O 0.09064 0.32814 0.1984 0.0
O260 O 0.12341 0.37483 0.22028 0.0
O261 O 0.1242 0.34711 0.21374 0.0
O262 O 0.10329 0.32023 0.23728 0.0
O263 O 0.10832 0.34689 0.24584 0.0
C264 C 0.09107 0.34217 0.19001 0.0
C265 C 0.10811 0.33062 0.24897 0.0
C266 C 0.91182 0.84172 0.43943 0.0
C267 C 0.91808 0.86029 0.49866 0.0
O268 O 0.897 0.84418 0.44637 0.0
Zn269 Zn 0.8876 0.85175 0.4715 0.0
O270 O 0.92531 0.84343 0.4485 0.0
Zn271 Zn 0.91428 0.85036 0.46953 0.0
O272 O 0.90211 0.82735 0.47982 0.0
O273 O 0.87417 0.83241 0.47906 0.0
O274 O 0.92954 0.85599 0.4878 0.0
O275 O 0.90203 0.85961 0.49453 0.0
O276 O 0.87475 0.87193 0.46594 0.0
O277 O 0.90288 0.87527 0.46287 0.0
C278 C 0.88657 0.82241 0.48271 0.0
C279 C 0.88749 0.8814 0.46195 0.0
C280 C 0.92595 0.13056 0.23749 0.0
C281 C 0.86689 0.13699 0.21791 0.0
O282 O 0.9231 0.14611 0.23259 0.0
Zn283 Zn 0.90169 0.15995 0.22133 0.0
O284 O 0.91412 0.1194 0.2358 0.0
Zn285 Zn 0.89638 0.13422 0.2269 0.0
O286 O 0.90298 0.13947 0.20014 0.0
O287 O 0.91013 0.16702 0.19917 0.0
O288 O 0.87423 0.12397 0.22461 0.0
O289 O 0.87535 0.15109 0.21568 0.0
O290 O 0.89782 0.17803 0.23783 0.0
O291 O 0.89132 0.15215 0.24767 0.0
C292 C 0.90804 0.1527 0.19156 0.0
C293 C 0.89237 0.16851 0.24999 0.0
C294 C 0.38864 0.67812 0.51726 0.0
C295 C 0.38737 0.61899 0.53753 0.0
O296 O 0.40401 0.67269 0.52033 0.0
Zn297 Zn 0.41519 0.64929 0.53125 0.0
O298 O 0.37587 0.66858 0.52092 0.0
Zn299 Zn 0.38851 0.64884 0.52848 0.0
O300 O 0.39735 0.65572 0.55404 0.0
O301 O 0.42572 0.65595 0.55263 0.0
O302 O 0.37503 0.62862 0.53275 0.0
O303 O 0.40282 0.62498 0.5377 0.0
O304 O 0.43073 0.64213 0.51354 0.0
O305 O 0.40334 0.64124 0.50573 0.0
C306 C 0.41204 0.65779 0.5614 0.0
C307 C 0.41939 0.63912 0.50212 0.0
C308 C 0.11152 0.67032 0.25176 0.0
C309 C 0.09096 0.66225 0.31021 0.0
O310 O 0.11073 0.65417 0.25547 0.0
Zn311 Zn 0.10274 0.63904 0.27789 0.0
O312 O 0.10708 0.68138 0.26297 0.0
Zn313 Zn 0.1008 0.66558 0.28065 0.0
O314 O 0.12555 0.65445 0.28815 0.0
O315 O 0.12299 0.62644 0.28384 0.0
O316 O 0.09291 0.676 0.30157 0.0
O317 O 0.09389 0.64763 0.30299 0.0
O318 O 0.08421 0.62541 0.26913 0.0
O319 O 0.07815 0.65316 0.26958 0.0
C320 C 0.13197 0.63918 0.2888 0.0
C321 C 0.07382 0.6376 0.26585 0.0
C322 C 0.38878 0.32933 0.75153 0.0
C323 C 0.40825 0.33829 0.81015 0.0
O324 O 0.38938 0.34555 0.75499 0.0
Zn325 Zn 0.39686 0.36105 0.77738 0.0
O326 O 0.39315 0.31851 0.76299 0.0
Zn327 Zn 0.39899 0.33461 0.78047 0.0
O328 O 0.37398 0.34559 0.78738 0.0
O329 O 0.37642 0.37357 0.78278 0.0
O330 O 0.40659 0.32447 0.80159 0.0
O331 O 0.40531 0.35283 0.80277 0.0
O332 O 0.41539 0.37477 0.76883 0.0
O333 O 0.42174 0.3471 0.76961 0.0
C334 C 0.36743 0.36082 0.78771 0.0
C335 C 0.42597 0.36268 0.76583 0.0
C336 C 0.99736 0.92348 0.63803 0.0
C337 C 0.93883 0.91401 0.6578 0.0
O338 O 0.98563 0.93441 0.64133 0.0
Zn339 Zn 0.96828 0.9182 0.64822 0.0
O340 O 0.99414 0.90732 0.63958 0.0
Zn341 Zn 0.97204 0.8917 0.64659 0.0
O342 O 0.96783 0.87906 0.62588 0.0
O343 O 0.96079 0.90659 0.6238 0.0
O344 O 0.94646 0.89958 0.65488 0.0
O345 O 0.9471 0.92801 0.65602 0.0
O346 O 0.97949 0.90622 0.67117 0.0
O347 O 0.98059 0.87841 0.66535 0.0
C348 C 0.96164 0.89144 0.61717 0.0
C349 C 0.98348 0.89075 0.67569 0.0
C350 C 0.84611 0.19014 0.40878 0.0
C351 C 0.83493 0.24919 0.3917 0.0
O352 O 0.83204 0.19847 0.40868 0.0
Zn353 Zn 0.84118 0.22011 0.40111 0.0
O354 O 0.86026 0.19802 0.40525 0.0
Zn355 Zn 0.8675 0.22417 0.39836 0.0
O356 O 0.88138 0.23219 0.417 0.0
O357 O 0.85385 0.23076 0.4238 0.0
O358 O 0.85123 0.24622 0.39232 0.0
O359 O 0.82439 0.23729 0.39559 0.0
O360 O 0.85189 0.21417 0.37569 0.0
O361 O 0.87953 0.22079 0.37721 0.0
C362 C 0.86943 0.23469 0.42787 0.0
C363 C 0.86682 0.21523 0.36854 0.0
C364 C 0.50142 0.07913 0.13933 0.0
C365 C 0.5605 0.09081 0.15636 0.0
O366 O 0.51332 0.06859 0.14327 0.0
Zn367 Zn 0.53062 0.08549 0.1487 0.0
O368 O 0.50445 0.0954 0.13972 0.0
Zn369 Zn 0.52634 0.11178 0.14525 0.0
O370 O 0.52954 0.1231 0.12365 0.0
O371 O 0.5372 0.09562 0.12327 0.0
O372 O 0.55251 0.10481 0.15247 0.0
O373 O 0.55226 0.07667 0.15664 0.0
O374 O 0.51989 0.09871 0.17105 0.0
O375 O 0.51818 0.12607 0.16358 0.0
C376 C 0.5358 0.11027 0.11566 0.0
C377 C 0.51581 0.11436 0.17474 0.0
C378 C 0.63703 0.79021 0.86922 0.0
C379 C 0.63775 0.76703 0.9274 0.0
O380 O 0.6245 0.78584 0.8788 0.0
Zn381 Zn 0.63785 0.7795 0.89862 0.0
O382 O 0.65251 0.78909 0.87501 0.0
Zn383 Zn 0.66466 0.78136 0.899 0.0
O384 O 0.67956 0.76345 0.89115 0.0
O385 O 0.65192 0.75658 0.88995 0.0
O386 O 0.65317 0.76993 0.92201 0.0
O387 O 0.62504 0.77133 0.91805 0.0
O388 O 0.64755 0.80417 0.90702 0.0
O389 O 0.67587 0.80215 0.90659 0.0
C390 C 0.66786 0.75253 0.88771 0.0
C391 C 0.66243 0.81106 0.90929 0.0
C392 C 0.00053 0.08345 0.86088 0.0
C393 C 0.9416 0.09453 0.84323 0.0
O394 O 0.9888 0.07301 0.85628 0.0
Zn395 Zn 0.97159 0.08973 0.85105 0.0
O396 O 0.99747 0.09975 0.86065 0.0
Zn397 Zn 0.97551 0.11601 0.85373 0.0
O398 O 0.97137 0.12844 0.87437 0.0
O399 O 0.96563 0.10061 0.87654 0.0
O400 O 0.94947 0.1087 0.84664 0.0
O401 O 0.94994 0.08047 0.84352 0.0
O402 O 0.98225 0.10223 0.82835 0.0
O403 O 0.98383 0.12975 0.83508 0.0
C404 C 0.96613 0.11577 0.8833 0.0
C405 C 0.98628 0.11777 0.82425 0.0
C406 C 0.66861 0.24827 0.6095 0.0
C407 C 0.65943 0.18937 0.59034 0.0
O408 O 0.6797 0.23683 0.60568 0.0
Zn409 Zn 0.66368 0.21936 0.59898 0.0
O410 O 0.65244 0.24481 0.60821 0.0
Zn411 Zn 0.63697 0.22249 0.60086 0.0
O412 O 0.6244 0.21749 0.62151 0.0
O413 O 0.65238 0.21265 0.62378 0.0
O414 O 0.64512 0.19704 0.59353 0.0
O415 O 0.6734 0.19785 0.59108 0.0
O416 O 0.65161 0.23082 0.57648 0.0
O417 O 0.62365 0.23056 0.58165 0.0
C418 C 0.6372 0.2125 0.63043 0.0
C419 C 0.63611 0.23421 0.5717 0.0
C420 C 0.54018 0.89053 0.38241 0.0
C421 C 0.51766 0.89142 0.32403 0.0
O422 O 0.53564 0.87807 0.37282 0.0
Zn423 Zn 0.52965 0.89148 0.35298 0.0
O424 O 0.53928 0.90602 0.37663 0.0
Zn425 Zn 0.5318 0.91826 0.35258 0.0
O426 O 0.51378 0.93325 0.3601 0.0
O427 O 0.5068 0.90565 0.36126 0.0
O428 O 0.5209 0.90683 0.32926 0.0
O429 O 0.52142 0.87874 0.33366 0.0
O430 O 0.55449 0.90103 0.34484 0.0
O431 O 0.5527 0.92939 0.34542 0.0
C432 C 0.50275 0.92159 0.36337 0.0
C433 C 0.56152 0.91587 0.34278 0.0
C434 C 0.86304 0.76529 0.07426 0.0
C435 C 0.86138 0.78776 0.13257 0.0
O436 O 0.87514 0.76822 0.08485 0.0
Zn437 Zn 0.86149 0.77702 0.10332 0.0
O438 O 0.84748 0.76919 0.07848 0.0
Zn439 Zn 0.83507 0.7802 0.10118 0.0
O440 O 0.82492 0.80121 0.09343 0.0
O441 O 0.8533 0.80236 0.09464 0.0
O442 O 0.84614 0.78741 0.12606 0.0
O443 O 0.8741 0.78264 0.12363 0.0
O444 O 0.84592 0.75483 0.11122 0.0
O445 O 0.81892 0.7629 0.1073 0.0
C446 C 0.83875 0.80972 0.09168 0.0
C447 C 0.82968 0.75149 0.11192 0.0
C448 C 0.6188 0.96174 0.88805 0.0
C449 C 0.67739 0.98355 0.89052 0.0
O450 O 0.62885 0.96594 0.87584 0.0
Zn451 Zn 0.6484 0.97172 0.8898 0.0
O452 O 0.62415 0.96262 0.90371 0.0
Zn453 Zn 0.64797 0.96972 0.91658 0.0
O454 O 0.64015 0.98771 0.93138 0.0
O455 O 0.63988 0.99478 0.90376 0.0
O456 O 0.67153 0.98075 0.90579 0.0
O457 O 0.66831 0.97946 0.87754 0.0
O458 O 0.65602 0.94683 0.89958 0.0
O459 O 0.65481 0.94872 0.92788 0.0
C460 C 0.63729 0.99879 0.91966 0.0
C461 C 0.65774 0.93983 0.91447 0.0
C462 C 0.75105 0.88727 0.67021 0.0
C463 C 0.81004 0.90695 0.66381 0.0
O464 O 0.76245 0.88987 0.68167 0.0
Zn465 Zn 0.78027 0.89752 0.66651 0.0
O466 O 0.75476 0.88978 0.65424 0.0
Zn467 Zn 0.77756 0.8977 0.6398 0.0
O468 O 0.78243 0.87788 0.62597 0.0
O469 O 0.78752 0.87374 0.65365 0.0
O470 O 0.80279 0.90511 0.64904 0.0
O471 O 0.80137 0.90435 0.67743 0.0
O472 O 0.7694 0.92115 0.65571 0.0
O473 O 0.76995 0.91756 0.62748 0.0
C474 C 0.78759 0.86813 0.63806 0.0
C475 C 0.76636 0.92687 0.64044 0.0
C476 C 0.84406 0.06045 0.40917 0.0
C477 C 0.86161 0.00117 0.41907 0.0
O478 O 0.84421 0.05199 0.42318 0.0
Zn479 Zn 0.85174 0.03032 0.41368 0.0
O480 O 0.84742 0.05267 0.39495 0.0
Zn481 Zn 0.85449 0.02693 0.38715 0.0
O482 O 0.83584 0.01898 0.37321 0.0
O483 O 0.82914 0.01981 0.40081 0.0
O484 O 0.86098 0.00462 0.40287 0.0
O485 O 0.85748 0.01267 0.42997 0.0
O486 O 0.87705 0.03661 0.40311 0.0
O487 O 0.87545 0.03143 0.37513 0.0
C488 C 0.82505 0.01616 0.38516 0.0
C489 C 0.88408 0.0365 0.38809 0.0
C490 C 0.69034 0.09086 0.15871 0.0
C491 C 0.74863 0.10872 0.17244 0.0
O492 O 0.69832 0.08992 0.17296 0.0
Zn493 Zn 0.72015 0.09842 0.165 0.0
O494 O 0.69858 0.09534 0.14506 0.0
Zn495 Zn 0.72481 0.10277 0.13888 0.0
O496 O 0.73361 0.08454 0.1245 0.0
O497 O 0.73189 0.07692 0.15179 0.0
O498 O 0.74592 0.10933 0.15611 0.0
O499 O 0.73695 0.10311 0.18244 0.0
O500 O 0.71365 0.12419 0.15534 0.0
O501 O 0.72134 0.1244 0.12781 0.0
C502 C 0.73622 0.07344 0.13621 0.0
C503 C 0.71503 0.13208 0.14082 0.0
C504 C 0.61809 0.03607 0.61357 0.0
C505 C 0.6772 0.01564 0.61461 0.0
O506 O 0.62705 0.03058 0.62613 0.0
Zn507 Zn 0.64782 0.02653 0.61357 0.0
O508 O 0.62477 0.0366 0.5984 0.0
Zn509 Zn 0.64962 0.0299 0.58698 0.0
O510 O 0.64322 0.01235 0.57088 0.0
O511 O 0.64116 0.00408 0.59806 0.0
O512 O 0.67243 0.01895 0.59908 0.0
O513 O 0.66706 0.01893 0.62701 0.0
O514 O 0.65483 0.05225 0.60548 0.0
O515 O 0.65736 0.05133 0.57719 0.0
C516 C 0.63986 0.00069 0.58188 0.0
C517 C 0.65805 0.05986 0.59113 0.0
C518 C 0.74876 0.88959 0.33011 0.0
C519 C 0.6903 0.90986 0.33834 0.0
O520 O 0.73744 0.8939 0.31912 0.0
Zn521 Zn 0.71992 0.90022 0.335 0.0
O522 O 0.74521 0.89057 0.3463 0.0
Zn523 Zn 0.72281 0.89864 0.3615 0.0
O524 O 0.71723 0.87855 0.37445 0.0
O525 O 0.71288 0.87546 0.34648 0.0
O526 O 0.69757 0.90716 0.35297 0.0
O527 O 0.69891 0.90778 0.3246 0.0
O528 O 0.73093 0.92311 0.34707 0.0
O529 O 0.73146 0.91735 0.37487 0.0
C530 C 0.71244 0.86927 0.36186 0.0
C531 C 0.73464 0.92763 0.36258 0.0
C532 C 0.88276 0.96179 0.10823 0.0
C533 C 0.824 0.98333 0.10806 0.0
O534 O 0.8735 0.9671 0.12065 0.0
Zn535 Zn 0.85319 0.97172 0.10763 0.0
O536 O 0.87647 0.96157 0.09287 0.0
Zn537 Zn 0.85178 0.96839 0.08108 0.0
O538 O 0.85784 0.98581 0.06494 0.0
O539 O 0.86111 0.99388 0.09211 0.0
O540 O 0.82895 0.97972 0.09267 0.0
O541 O 0.83388 0.98 0.12066 0.0
O542 O 0.84553 0.94616 0.09945 0.0
O543 O 0.84441 0.94711 0.07106 0.0
C544 C 0.862 0.99722 0.07589 0.0
C545 C 0.84284 0.93863 0.08494 0.0
C546 C 0.75265 0.10984 0.83207 0.0
C547 C 0.81185 0.09237 0.84254 0.0
O548 O 0.76446 0.10632 0.82128 0.0
Zn549 Zn 0.7817 0.09998 0.83777 0.0
O550 O 0.75574 0.10862 0.84832 0.0
Zn551 Zn 0.77789 0.10197 0.86429 0.0
O552 O 0.78146 0.12284 0.87683 0.0
O553 O 0.78789 0.12497 0.84916 0.0
O554 O 0.80392 0.09553 0.85673 0.0
O555 O 0.80348 0.09252 0.82848 0.0
O556 O 0.77049 0.07723 0.84972 0.0
O557 O 0.77017 0.08266 0.87762 0.0
C558 C 0.78706 0.13175 0.86427 0.0
C559 C 0.76695 0.07251 0.86522 0.0
C560 C 0.92028 0.64039 0.99666 0.0
C561 C 0.90986 0.6597 0.93823 0.0
O562 O 0.93084 0.6449 0.98501 0.0
Zn563 Zn 0.91428 0.65076 0.96786 0.0
O564 O 0.904 0.64094 0.99354 0.0
Zn565 Zn 0.88797 0.64825 0.9716 0.0
O566 O 0.87565 0.62755 0.96709 0.0
O567 O 0.90336 0.62569 0.96091 0.0
O568 O 0.89551 0.65649 0.94587 0.0
O569 O 0.92386 0.65854 0.94659 0.0
O570 O 0.90177 0.67332 0.97909 0.0
O571 O 0.8742 0.66662 0.98038 0.0
C572 C 0.88828 0.61883 0.96142 0.0
C573 C 0.88621 0.67734 0.9832 0.0
C574 C 0.41991 0.86107 0.00299 0.0
C575 C 0.40913 0.84228 0.06157 0.0
O576 O 0.43045 0.85678 0.01476 0.0
Zn577 Zn 0.41384 0.85051 0.03161 0.0
O578 O 0.40359 0.86015 0.0059 0.0
Zn579 Zn 0.38741 0.85243 0.02779 0.0
O580 O 0.37444 0.8728 0.0323 0.0
O581 O 0.40224 0.8755 0.03797 0.0
O582 O 0.39492 0.84546 0.0537 0.0
O583 O 0.42318 0.84277 0.05322 0.0
O584 O 0.40224 0.82791 0.01991 0.0
O585 O 0.37433 0.83313 0.01946 0.0
C586 C 0.38694 0.88191 0.03767 0.0
C587 C 0.38683 0.82312 0.01618 0.0
C588 C 0.86513 0.63977 0.78649 0.0
C589 C 0.92395 0.63994 0.76522 0.0
O590 O 0.8744 0.62738 0.78115 0.0
Zn591 Zn 0.8947 0.64049 0.77638 0.0
O592 O 0.87133 0.65514 0.78654 0.0
Zn593 Zn 0.89565 0.66711 0.7793 0.0
O594 O 0.88867 0.68267 0.76149 0.0
O595 O 0.8873 0.65532 0.75375 0.0
O596 O 0.91902 0.6554 0.7687 0.0
O597 O 0.91388 0.62745 0.76838 0.0
O598 O 0.90236 0.64931 0.8018 0.0
O599 O 0.90269 0.67772 0.80041 0.0
C600 C 0.8855 0.67138 0.75008 0.0
C601 C 0.90466 0.66401 0.8091 0.0
C602 C 0.08902 0.15913 0.56093 0.0
C603 C 0.08366 0.13843 0.50219 0.0
O604 O 0.07562 0.15648 0.55196 0.0
Zn605 Zn 0.08692 0.14923 0.53116 0.0
O606 O 0.10393 0.15703 0.55406 0.0
Zn607 Zn 0.11369 0.14901 0.52925 0.0
O608 O 0.12644 0.16855 0.52139 0.0
O609 O 0.09829 0.17244 0.52004 0.0
O610 O 0.09961 0.14065 0.50619 0.0
O611 O 0.07201 0.14164 0.51324 0.0
O612 O 0.09921 0.12519 0.53858 0.0
O613 O 0.12718 0.12921 0.53527 0.0
C614 C 0.1137 0.17791 0.51721 0.0
C615 C 0.11473 0.1195 0.53957 0.0
C616 C 0.13276 0.86447 0.78528 0.0
C617 C 0.07417 0.86808 0.76395 0.0
O618 O 0.12429 0.87742 0.77995 0.0
Zn619 Zn 0.10348 0.86555 0.77523 0.0
O620 O 0.12561 0.84948 0.78554 0.0
Zn621 Zn 0.09988 0.83934 0.77909 0.0
O622 O 0.10467 0.82252 0.76182 0.0
O623 O 0.11077 0.84909 0.75354 0.0
O624 O 0.07777 0.85248 0.76818 0.0
O625 O 0.08533 0.87975 0.76638 0.0
O626 O 0.09565 0.85843 0.80113 0.0
O627 O 0.09171 0.83031 0.80063 0.0
C628 C 0.11027 0.83282 0.75041 0.0
C629 C 0.09168 0.84438 0.80895 0.0
C630 C 0.58112 0.36464 0.49874 0.0
C631 C 0.58883 0.34561 0.43961 0.0
O632 O 0.56981 0.36155 0.48731 0.0
Zn633 Zn 0.58535 0.35415 0.46973 0.0
O634 O 0.59719 0.36244 0.49522 0.0
Zn635 Zn 0.61208 0.35444 0.47266 0.0
O636 O 0.62587 0.37428 0.46788 0.0
O637 O 0.59806 0.37838 0.46325 0.0
O638 O 0.60336 0.34791 0.44716 0.0
O639 O 0.575 0.34708 0.44822 0.0
O640 O 0.59618 0.33078 0.48081 0.0
O641 O 0.62436 0.33444 0.48028 0.0
C642 C 0.61363 0.38406 0.46311 0.0
C643 C 0.61144 0.32511 0.48391 0.0
C644 C 0.86747 0.3609 0.71168 0.0
C645 C 0.92556 0.36223 0.73472 0.0
O646 O 0.87655 0.37364 0.71644 0.0
Zn647 Zn 0.89669 0.36092 0.72274 0.0
O648 O 0.87373 0.34559 0.71265 0.0
Zn649 Zn 0.89812 0.33424 0.72056 0.0
O650 O 0.891 0.31898 0.7385 0.0
O651 O 0.88868 0.34648 0.74554 0.0
O652 O 0.921 0.34661 0.73143 0.0
O653 O 0.91534 0.37448 0.73111 0.0
O654 O 0.90558 0.35163 0.69796 0.0
O655 O 0.90593 0.32327 0.69983 0.0
C656 C 0.88713 0.33045 0.74952 0.0
C657 C 0.90828 0.33684 0.69101 0.0
C658 C 0.63227 0.63749 0.21477 0.0
C659 C 0.57312 0.63421 0.23472 0.0
O660 O 0.62354 0.62462 0.21985 0.0
Zn661 Zn 0.60256 0.63656 0.22392 0.0
O662 O 0.62518 0.65249 0.21428 0.0
Zn663 Zn 0.59956 0.66285 0.2205 0.0
O664 O 0.6041 0.67932 0.23809 0.0
O665 O 0.60931 0.65248 0.24614 0.0
O666 O 0.57697 0.64983 0.2308 0.0
O667 O 0.58414 0.62242 0.23218 0.0
O668 O 0.59499 0.64434 0.198 0.0
O669 O 0.59231 0.67262 0.19919 0.0
C670 C 0.60901 0.66871 0.24951 0.0
C671 C 0.59173 0.65878 0.19053 0.0
C672 C 0.55871 0.58678 0.84341 0.0
C673 C 0.5 0.58068 0.86393 0.0
O674 O 0.55176 0.60162 0.8458 0.0
Zn675 Zn 0.5268 0.61103 0.85409 0.0
O676 O 0.54979 0.57326 0.84562 0.0
Zn677 Zn 0.52897 0.58436 0.85296 0.0
O678 O 0.51831 0.59646 0.82981 0.0
O679 O 0.51868 0.62437 0.83521 0.0
O680 O 0.51102 0.56918 0.86017 0.0
O681 O 0.50396 0.59669 0.86219 0.0
O682 O 0.53281 0.62406 0.87407 0.0
O683 O 0.53666 0.59604 0.87729 0.0
C684 C 0.51512 0.61205 0.82508 0.0
C685 C 0.53754 0.61144 0.88335 0.0
C686 C 0.63868 0.28605 0.13326 0.0
C687 C 0.63848 0.26496 0.07432 0.0
O688 O 0.65398 0.28634 0.12686 0.0
Zn689 Zn 0.66562 0.27971 0.10203 0.0
O690 O 0.62619 0.28086 0.12404 0.0
Zn691 Zn 0.63912 0.27635 0.10362 0.0
O692 O 0.65472 0.25416 0.11144 0.0
O693 O 0.68182 0.2623 0.10792 0.0
O694 O 0.62597 0.26809 0.08437 0.0
O695 O 0.6539 0.2686 0.07916 0.0
O696 O 0.67559 0.30102 0.09472 0.0
O697 O 0.64722 0.30201 0.09596 0.0
C698 C 0.67095 0.25085 0.11222 0.0
C699 C 0.66172 0.30953 0.09322 0.0
C700 C 0.99748 0.42136 0.3624 0.0
C701 C 0.93888 0.41262 0.34263 0.0
O702 O 0.99397 0.40517 0.36157 0.0
Zn703 Zn 0.97164 0.38978 0.35379 0.0
O704 O 0.9861 0.43231 0.3581 0.0
Zn705 Zn 0.96856 0.4163 0.35202 0.0
O706 O 0.96176 0.40501 0.37689 0.0
O707 O 0.96621 0.37703 0.37411 0.0
O708 O 0.94736 0.42646 0.34454 0.0
O709 O 0.94632 0.39808 0.34539 0.0
O710 O 0.9803 0.37637 0.33505 0.0
O711 O 0.97948 0.40414 0.32915 0.0
C712 C 0.96141 0.38971 0.38327 0.0
C713 C 0.98331 0.38864 0.32467 0.0
C714 C 0.85927 0.71204 0.62963 0.0
C715 C 0.85913 0.73254 0.57054 0.0
O716 O 0.84384 0.71253 0.62359 0.0
Zn717 Zn 0.83202 0.71885 0.59888 0.0
O718 O 0.87185 0.7163 0.62006 0.0
Zn719 Zn 0.85868 0.72135 0.59988 0.0
O720 O 0.84384 0.74419 0.60755 0.0
O721 O 0.81647 0.73669 0.60506 0.0
O722 O 0.87171 0.72893 0.58033 0.0
O723 O 0.84367 0.7295 0.5757 0.0
O724 O 0.82136 0.69757 0.59218 0.0
O725 O 0.84971 0.69598 0.59274 0.0
C726 C 0.82772 0.74798 0.60878 0.0
C727 C 0.83501 0.68873 0.59051 0.0
C728 C 0.51577 0.3866 0.67679 0.0
C729 C 0.53794 0.38975 0.61842 0.0
O730 O 0.51957 0.40226 0.67291 0.0
Zn731 Zn 0.53028 0.41529 0.65052 0.0
O732 O 0.51875 0.37476 0.66593 0.0
Zn733 Zn 0.52744 0.38887 0.64768 0.0
O734 O 0.55277 0.39711 0.65626 0.0
O735 O 0.55137 0.42542 0.65831 0.0
O736 O 0.5331 0.37677 0.62713 0.0
O737 O 0.53739 0.40487 0.62524 0.0
O738 O 0.51249 0.43134 0.64525 0.0
O739 O 0.50514 0.40433 0.63993 0.0
C740 C 0.56006 0.41163 0.65952 0.0
C741 C 0.50143 0.42049 0.64001 0.0
C742 C 0.83462 0.31166 0.90884 0.0
C743 C 0.8271 0.25282 0.88938 0.0
O744 O 0.84931 0.30439 0.90653 0.0
Zn745 Zn 0.85819 0.2791 0.89891 0.0
O746 O 0.82095 0.30293 0.90687 0.0
Zn747 Zn 0.83155 0.28176 0.89975 0.0
O748 O 0.84297 0.27052 0.9228 0.0
O749 O 0.87105 0.27107 0.91842 0.0
O750 O 0.81592 0.26419 0.89308 0.0
O751 O 0.84325 0.25644 0.89082 0.0
O752 O 0.87151 0.2845 0.87886 0.0
O753 O 0.84356 0.28854 0.87526 0.0
C754 C 0.85836 0.26729 0.92802 0.0
C755 C 0.85902 0.28908 0.86932 0.0
C756 C 0.94012 0.5928 0.15666 0.0
C757 C 0.99884 0.5822 0.13782 0.0
O758 O 0.94795 0.607 0.15325 0.0
Zn759 Zn 0.97383 0.61446 0.14582 0.0
O760 O 0.94843 0.57872 0.1561 0.0
Zn761 Zn 0.96993 0.58802 0.14816 0.0
O762 O 0.98111 0.6003 0.17082 0.0
O763 O 0.9823 0.62798 0.16455 0.0
O764 O 0.98713 0.57147 0.14176 0.0
O765 O 0.99576 0.59844 0.1389 0.0
O766 O 0.96978 0.62683 0.12499 0.0
O767 O 0.96318 0.5992 0.12318 0.0
C768 C 0.9851 0.61581 0.1751 0.0
C769 C 0.96395 0.61426 0.11628 0.0
C770 C 0.6361 0.73533 0.42663 0.0
C771 C 0.63769 0.71517 0.3675 0.0
O772 O 0.65164 0.73183 0.42205 0.0
Zn773 Zn 0.66388 0.72084 0.39936 0.0
O774 O 0.62381 0.73231 0.41629 0.0
Zn775 Zn 0.63735 0.72466 0.3971 0.0
O776 O 0.64499 0.69863 0.40376 0.0
O777 O 0.67323 0.69923 0.40704 0.0
O778 O 0.62509 0.72125 0.376 0.0
O779 O 0.65267 0.71407 0.37448 0.0
O780 O 0.68027 0.73822 0.39297 0.0
O781 O 0.65321 0.74678 0.39064 0.0
C782 C 0.6592 0.69081 0.40711 0.0
C783 C 0.66942 0.74997 0.38943 0.0
C784 C 0.86095 0.50127 0.58309 0.0
C785 C 0.8406 0.55971 0.59065 0.0
O786 O 0.86028 0.50503 0.59924 0.0
Zn787 Zn 0.85228 0.52761 0.61425 0.0
O788 O 0.85633 0.5124 0.57204 0.0
Zn789 Zn 0.85019 0.53008 0.58776 0.0
O790 O 0.87508 0.53756 0.59867 0.0
O791 O 0.87258 0.53356 0.62675 0.0
O792 O 0.84236 0.55079 0.57708 0.0
O793 O 0.84357 0.55275 0.6054 0.0
O794 O 0.83381 0.51899 0.62808 0.0
O795 O 0.82755 0.51921 0.60038 0.0
C796 C 0.88156 0.53831 0.61392 0.0
C797 C 0.82331 0.51564 0.61601 0.0
C798 C 0.74583 0.61167 0.82993 0.0
C799 C 0.68762 0.59115 0.83903 0.0
O800 O 0.74237 0.61119 0.84616 0.0
Zn801 Zn 0.72014 0.60334 0.86174 0.0
O802 O 0.73451 0.60685 0.81916 0.0
Zn803 Zn 0.71715 0.60083 0.83532 0.0
O804 O 0.70972 0.62584 0.84601 0.0
O805 O 0.71431 0.62381 0.87403 0.0
O806 O 0.69622 0.59272 0.82522 0.0
O807 O 0.6949 0.59439 0.85356 0.0
O808 O 0.72911 0.58511 0.87566 0.0
O809 O 0.72846 0.57846 0.84806 0.0
C810 C 0.70923 0.63255 0.86117 0.0
C811 C 0.73234 0.57447 0.86368 0.0
C812 C 0.67754 0.48297 0.11038 0.0
C813 C 0.61834 0.46282 0.11051 0.0
O814 O 0.6725 0.47954 0.09496 0.0
Zn815 Zn 0.64938 0.4687 0.08335 0.0
O816 O 0.66762 0.47977 0.12297 0.0
Zn817 Zn 0.64816 0.47201 0.10993 0.0
O818 O 0.6553 0.44631 0.10171 0.0
O819 O 0.65625 0.44721 0.07331 0.0
O820 O 0.62769 0.4679 0.12295 0.0
O821 O 0.62465 0.46243 0.09518 0.0
O822 O 0.64331 0.48629 0.06732 0.0
O823 O 0.64097 0.49447 0.09449 0.0
C824 C 0.65775 0.43871 0.0872 0.0
C825 C 0.63979 0.4979 0.0783 0.0
C826 C 0.75146 0.38547 0.33131 0.0
C827 C 0.81004 0.40634 0.33745 0.0
O828 O 0.75523 0.38778 0.3473 0.0
Zn829 Zn 0.77791 0.39632 0.36164 0.0
O830 O 0.76263 0.38872 0.3198 0.0
Zn831 Zn 0.78038 0.39646 0.33495 0.0
O832 O 0.78782 0.37255 0.34755 0.0
O833 O 0.78378 0.37675 0.3754 0.0
O834 O 0.80133 0.40353 0.3239 0.0
O835 O 0.8029 0.40442 0.35227 0.0
O836 O 0.76955 0.41568 0.37416 0.0
O837 O 0.76941 0.41996 0.34606 0.0
C838 C 0.78853 0.367 0.36315 0.0
C839 C 0.76603 0.42529 0.36141 0.0
C840 C 0.82255 0.48527 0.88689 0.0
C841 C 0.88072 0.46241 0.88794 0.0
O842 O 0.82696 0.48154 0.90243 0.0
Zn843 Zn 0.84968 0.47032 0.9146 0.0
O844 O 0.83287 0.48194 0.87466 0.0
Zn845 Zn 0.85148 0.47312 0.88812 0.0
O846 O 0.84287 0.44788 0.8967 0.0
O847 O 0.84193 0.44941 0.92505 0.0
O848 O 0.8716 0.4673 0.87527 0.0
O849 O 0.87442 0.46297 0.90327 0.0
O850 O 0.85618 0.48773 0.93049 0.0
O851 O 0.85982 0.49543 0.90333 0.0
C852 C 0.84005 0.4407 0.91136 0.0
C853 C 0.86078 0.49897 0.91952 0.0
C854 C 0.7518 0.61044 0.17148 0.0
C855 C 0.81044 0.59207 0.15955 0.0
O856 O 0.75463 0.60981 0.15515 0.0
Zn857 Zn 0.77623 0.60261 0.13863 0.0
O858 O 0.76362 0.60591 0.18188 0.0
Zn859 Zn 0.78053 0.6 0.16498 0.0
O860 O 0.78692 0.62517 0.15386 0.0
O861 O 0.78003 0.62345 0.12626 0.0
O862 O 0.80234 0.59212 0.17377 0.0
O863 O 0.80231 0.59562 0.14557 0.0
O864 O 0.76793 0.58363 0.12514 0.0
O865 O 0.76903 0.57758 0.15288 0.0
C866 C 0.78597 0.63212 0.13882 0.0
C867 C 0.76511 0.57319 0.13739 0.0
C868 C 0.6414 0.50236 0.41746 0.0
C869 C 0.65924 0.56111 0.40575 0.0
O870 O 0.64183 0.50529 0.40115 0.0
Zn871 Zn 0.6479 0.52717 0.38471 0.0
O872 O 0.64555 0.51423 0.42793 0.0
Zn873 Zn 0.65116 0.53131 0.41099 0.0
O874 O 0.62572 0.53784 0.4007 0.0
O875 O 0.6266 0.53094 0.37309 0.0
O876 O 0.65928 0.55287 0.41988 0.0
O877 O 0.65537 0.55319 0.39172 0.0
O878 O 0.66619 0.51871 0.37055 0.0
O879 O 0.67342 0.52015 0.39798 0.0
C880 C 0.6183 0.53687 0.3859 0.0
C881 C 0.67717 0.51603 0.38236 0.0
C882 C 0.68917 0.40719 0.66241 0.0
C883 C 0.74803 0.38717 0.66861 0.0
O884 O 0.6962 0.40508 0.64757 0.0
Zn885 Zn 0.7213 0.3972 0.6382 0.0
O886 O 0.69808 0.40486 0.67592 0.0
Zn887 Zn 0.71904 0.39784 0.66488 0.0
O888 O 0.72987 0.42116 0.65329 0.0
O889 O 0.72943 0.41641 0.62527 0.0
O890 O 0.73689 0.39059 0.68011 0.0
O891 O 0.74416 0.3891 0.6526 0.0
O892 O 0.71564 0.3773 0.62483 0.0
O893 O 0.7119 0.37353 0.65279 0.0
C894 C 0.73312 0.42622 0.63782 0.0
C895 C 0.71117 0.36769 0.6373 0.0
C896 C 0.58571 0.84188 0.56123 0.0
C897 C 0.58072 0.86251 0.50242 0.0
O898 O 0.60065 0.84368 0.55433 0.0
Zn899 Zn 0.61053 0.85145 0.52953 0.0
O900 O 0.57235 0.8448 0.55228 0.0
Zn901 Zn 0.58375 0.85178 0.53143 0.0
O902 O 0.59465 0.82834 0.5203 0.0
O903 O 0.62288 0.83161 0.52175 0.0
O904 O 0.56899 0.8596 0.51347 0.0
O905 O 0.59663 0.85998 0.50645 0.0
O906 O 0.62439 0.87102 0.53546 0.0
O907 O 0.5965 0.87561 0.5387 0.0
C908 C 0.60994 0.82254 0.51753 0.0
C909 C 0.61212 0.88101 0.53966 0.0
C910 C 0.07937 0.63651 0.49768 0.0
C911 C 0.0856 0.6571 0.43903 0.0
O912 O 0.09536 0.6388 0.49391 0.0
Zn913 Zn 0.10975 0.64719 0.47117 0.0
O914 O 0.06786 0.6396 0.48645 0.0
Zn915 Zn 0.08305 0.64727 0.46874 0.0
O916 O 0.09564 0.62329 0.46152 0.0
O917 O 0.1235 0.6275 0.46541 0.0
O918 O 0.07206 0.65433 0.44776 0.0
O919 O 0.10041 0.65519 0.44616 0.0
O920 O 0.12219 0.66666 0.47954 0.0
O921 O 0.09406 0.67069 0.47993 0.0
C922 C 0.11122 0.61771 0.46082 0.0
C923 C 0.10938 0.6761 0.48331 0.0
C924 C 0.61059 0.83084 0.74878 0.0
C925 C 0.59033 0.83704 0.68993 0.0
O926 O 0.60895 0.84684 0.74475 0.0
Zn927 Zn 0.60122 0.8612 0.7218 0.0
O928 O 0.60711 0.81931 0.7377 0.0
Zn929 Zn 0.60016 0.83448 0.71962 0.0
O930 O 0.62457 0.84608 0.71222 0.0
O931 O 0.62138 0.87411 0.71588 0.0
O932 O 0.59274 0.82349 0.69876 0.0
O933 O 0.59278 0.85185 0.69692 0.0
O934 O 0.58226 0.87453 0.72992 0.0
O935 O 0.57704 0.84657 0.73026 0.0
C936 C 0.6307 0.86144 0.71137 0.0
C937 C 0.57222 0.86212 0.73349 0.0
C938 C 0.42124 0.36297 0.99779 0.0
C939 C 0.41399 0.34257 0.93916 0.0
O940 O 0.40523 0.36054 0.99429 0.0
Zn941 Zn 0.39044 0.35243 0.97189 0.0
O942 O 0.43258 0.36 0.98636 0.0
Zn943 Zn 0.41712 0.35208 0.96884 0.0
O944 O 0.40451 0.37587 0.96109 0.0
O945 O 0.37689 0.37255 0.9673 0.0
O946 O 0.42771 0.34472 0.9478 0.0
O947 O 0.39929 0.34482 0.94649 0.0
O948 O 0.37797 0.33278 0.97998 0.0
O949 O 0.40614 0.32883 0.98033 0.0
C950 C 0.38906 0.38181 0.96147 0.0
C951 C 0.39083 0.32337 0.98366 0.0
C952 C 0.42664 0.63515 0.73462 0.0
C953 C 0.36792 0.63622 0.71351 0.0
O954 O 0.42204 0.65076 0.73136 0.0
Zn955 Zn 0.39892 0.663 0.72076 0.0
O956 O 0.41638 0.62291 0.73115 0.0
Zn957 Zn 0.39753 0.6364 0.7232 0.0
O958 O 0.40537 0.64533 0.69792 0.0
O959 O 0.40602 0.67367 0.69961 0.0
O960 O 0.37725 0.62354 0.71795 0.0
O961 O 0.37417 0.65155 0.71401 0.0
O962 O 0.39233 0.67856 0.73864 0.0
O963 O 0.39008 0.65116 0.74608 0.0
C964 C 0.40785 0.66005 0.69076 0.0
C965 C 0.38866 0.66725 0.74988 0.0
C966 C 0.8856 0.17711 0.01601 0.0
C967 C 0.88875 0.11742 0.03443 0.0
O968 O 0.90116 0.17297 0.01989 0.0
Zn969 Zn 0.91372 0.15068 0.03114 0.0
O970 O 0.87355 0.16639 0.01871 0.0
Zn971 Zn 0.88745 0.14731 0.02628 0.0
O972 O 0.89375 0.15259 0.05291 0.0
O973 O 0.92164 0.15826 0.05348 0.0
O974 O 0.87599 0.12561 0.02823 0.0
O975 O 0.90335 0.12499 0.03641 0.0
O976 O 0.93112 0.14537 0.0143 0.0
O977 O 0.90449 0.14201 0.00473 0.0
C978 C 0.9074 0.15661 0.06136 0.0
C979 C 0.92084 0.14156 0.00212 0.0
C980 C 0.57536 0.13993 0.76612 0.0
C981 C 0.63394 0.13865 0.7879 0.0
O982 O 0.58065 0.15533 0.76936 0.0
Zn983 Zn 0.60419 0.16662 0.78008 0.0
O984 O 0.58503 0.12724 0.76972 0.0
Zn985 Zn 0.6044 0.13995 0.77774 0.0
O986 O 0.59646 0.14938 0.80277 0.0
O987 O 0.59724 0.17773 0.80102 0.0
O988 O 0.62417 0.12634 0.78336 0.0
O989 O 0.62831 0.15421 0.78723 0.0
O990 O 0.61149 0.18177 0.76219 0.0
O991 O 0.61234 0.15427 0.75479 0.0
C992 C 0.59451 0.16424 0.80983 0.0
C993 C 0.61446 0.17027 0.75094 0.0
C994 C 0.92716 0.86286 0.26596 0.0
C995 C 0.86882 0.86241 0.28836 0.0
O996 O 0.9225 0.84733 0.26948 0.0
Zn997 Zn 0.89952 0.83537 0.28066 0.0
O998 O 0.91705 0.87522 0.26946 0.0
Zn999 Zn 0.89821 0.86195 0.27787 0.0
O1000 O 0.9064 0.85318 0.30316 0.0
O1001 O 0.90714 0.82481 0.30158 0.0
O1002 O 0.87793 0.8749 0.28299 0.0
O1003 O 0.87514 0.84709 0.2883 0.0
O1004 O 0.89228 0.81973 0.26305 0.0
O1005 O 0.89035 0.84707 0.25537 0.0
C1006 C 0.90905 0.83848 0.31034 0.0
C1007 C 0.88861 0.83099 0.25176 0.0
C1008 C 0.43903 0.41407 0.15774 0.0
C1009 C 0.49785 0.42273 0.13848 0.0
O1010 O 0.44753 0.42792 0.15597 0.0
Zn1011 Zn 0.46888 0.41775 0.14881 0.0
O1012 O 0.44653 0.39954 0.15516 0.0
Zn1013 Zn 0.47195 0.39122 0.14717 0.0
O1014 O 0.48037 0.3779 0.16601 0.0
O1015 O 0.47969 0.4057 0.17178 0.0
O1016 O 0.4943 0.40655 0.13939 0.0
O1017 O 0.48648 0.43372 0.14272 0.0
O1018 O 0.46229 0.40627 0.12394 0.0
O1019 O 0.46677 0.37831 0.12696 0.0
C1020 C 0.48343 0.3902 0.17633 0.0
C1021 C 0.46202 0.39092 0.11768 0.0
C1022 C 0.36121 0.71018 0.86933 0.0
C1023 C 0.36121 0.73261 0.92781 0.0
O1024 O 0.37379 0.71476 0.87874 0.0
Zn1025 Zn 0.36067 0.72047 0.89878 0.0
O1026 O 0.34578 0.71092 0.87538 0.0
Zn1027 Zn 0.33407 0.71805 0.9 0.0
O1028 O 0.31845 0.73563 0.89359 0.0
O1029 O 0.34578 0.74311 0.89039 0.0
O1030 O 0.34576 0.72937 0.92277 0.0
O1031 O 0.37378 0.7287 0.91811 0.0
O1032 O 0.35163 0.69524 0.90664 0.0
O1033 O 0.32331 0.69715 0.90742 0.0
C1034 C 0.32962 0.74681 0.88936 0.0
C1035 C 0.33686 0.6882 0.90918 0.0
C1036 C 0.05919 0.59381 0.65874 0.0
C1037 C 0.00042 0.58353 0.6397 0.0
O1038 O 0.05079 0.57977 0.6584 0.0
Zn1039 Zn 0.0293 0.58913 0.65021 0.0
O1040 O 0.05146 0.60798 0.65505 0.0
Zn1041 Zn 0.02587 0.61562 0.64718 0.0
O1042 O 0.01736 0.62969 0.66552 0.0
O1043 O 0.01817 0.60214 0.67244 0.0
O1044 O 0.00377 0.59975 0.6403 0.0
O1045 O 0.01188 0.57272 0.64416 0.0
O1046 O 0.03618 0.59951 0.62498 0.0
O1047 O 0.03088 0.62748 0.62621 0.0
C1048 C 0.01433 0.6178 0.67633 0.0
C1049 C 0.03619 0.61446 0.61781 0.0
C1050 C 0.16229 0.30998 0.40673 0.0
C1051 C 0.16891 0.25091 0.38738 0.0
O1052 O 0.17589 0.30117 0.40453 0.0
Zn1053 Zn 0.16504 0.28001 0.39781 0.0
O1054 O 0.14752 0.30276 0.40481 0.0
Zn1055 Zn 0.13836 0.27735 0.39771 0.0
O1056 O 0.12591 0.26977 0.41754 0.0
O1057 O 0.15409 0.26915 0.42136 0.0
O1058 O 0.15291 0.25456 0.38977 0.0
O1059 O 0.18032 0.26227 0.39027 0.0
O1060 O 0.15235 0.28699 0.37382 0.0
O1061 O 0.12462 0.28202 0.37777 0.0
C1062 C 0.13877 0.26614 0.42696 0.0
C1063 C 0.13682 0.28701 0.36806 0.0
C1064 C 0.48351 0.61139 0.32416 0.0
C1065 C 0.46132 0.61076 0.3826 0.0
O1066 O 0.4804 0.62369 0.33447 0.0
Zn1067 Zn 0.47177 0.61035 0.35324 0.0
O1068 O 0.47974 0.59589 0.32869 0.0
Zn1069 Zn 0.46873 0.58388 0.35163 0.0
O1070 O 0.44765 0.57356 0.34415 0.0
O1071 O 0.4464 0.60194 0.34492 0.0
O1072 O 0.46168 0.5954 0.37637 0.0
O1073 O 0.46629 0.62332 0.37337 0.0
O1074 O 0.49414 0.59504 0.36122 0.0
O1075 O 0.48617 0.56792 0.35799 0.0
C1076 C 0.43905 0.58733 0.34224 0.0
C1077 C 0.49759 0.57883 0.36223 0.0
C1078 C 0.17022 0.74641 0.11125 0.0
C1079 C 0.16329 0.68744 0.09182 0.0
O1080 O 0.18161 0.73507 0.10814 0.0
Zn1081 Zn 0.16621 0.7174 0.10074 0.0
O1082 O 0.15418 0.74274 0.10912 0.0
Zn1083 Zn 0.1395 0.72004 0.10125 0.0
O1084 O 0.12611 0.71528 0.12145 0.0
O1085 O 0.1539 0.71031 0.12491 0.0
O1086 O 0.14855 0.69466 0.09399 0.0
O1087 O 0.17692 0.69626 0.09373 0.0
O1088 O 0.15496 0.72859 0.0775 0.0
O1089 O 0.12683 0.72785 0.08157 0.0
C1090 C 0.13847 0.71025 0.13093 0.0
C1091 C 0.13959 0.7317 0.0721 0.0
C1092 C 0.05908 0.40975 0.84274 0.0
C1093 C 1.00006 0.41888 0.86129 0.0
O1094 O 0.0505 0.42361 0.84399 0.0
Zn1095 Zn 0.02926 0.41367 0.85141 0.0
O1096 O 0.05161 0.39525 0.84572 0.0
Zn1097 Zn 0.02583 0.3872 0.85348 0.0
O1098 O 0.01776 0.37349 0.83483 0.0
O1099 O 0.01859 0.40118 0.82848 0.0
O1100 O 0.00345 0.40271 0.86008 0.0
O1101 O 0.01167 0.42985 0.85772 0.0
O1102 O 0.03616 0.40255 0.87626 0.0
O1103 O 0.02964 0.37487 0.87443 0.0
C1104 C 0.01488 0.38558 0.82421 0.0
C1105 C 0.0353 0.3875 0.88312 0.0
C1106 C 0.33233 0.25134 0.60977 0.0
C1107 C 0.34251 0.31012 0.59104 0.0
O1108 O 0.32151 0.26307 0.60609 0.0
Zn1109 Zn 0.33792 0.28024 0.59951 0.0
O1110 O 0.34857 0.25445 0.60853 0.0
Zn1111 Zn 0.36445 0.27658 0.60162 0.0
O1112 O 0.37687 0.28071 0.62248 0.0
O1113 O 0.34918 0.28706 0.62438 0.0
O1114 O 0.35675 0.30237 0.59442 0.0
O1115 O 0.32849 0.30171 0.59153 0.0
O1116 O 0.35005 0.26874 0.57697 0.0
O1117 O 0.37792 0.26854 0.58255 0.0
C1118 C 0.36427 0.28645 0.63122 0.0
C1119 C 0.36557 0.26518 0.57237 0.0
C1120 C 0.11828 0.46223 0.38752 0.0
C1121 C 0.17713 0.48317 0.38572 0.0
O1122 O 0.12721 0.46745 0.37484 0.0
Zn1123 Zn 0.14793 0.47203 0.38728 0.0
O1124 O 0.12497 0.46206 0.40268 0.0
Zn1125 Zn 0.14979 0.46904 0.41383 0.0
O1126 O 0.14342 0.48681 0.42971 0.0
O1127 O 0.14105 0.49465 0.40245 0.0
O1128 O 0.17276 0.47964 0.40134 0.0
O1129 O 0.16663 0.48006 0.37359 0.0
O1130 O 0.15581 0.44652 0.39573 0.0
O1131 O 0.15715 0.44788 0.4241 0.0
C1132 C 0.13982 0.49825 0.41858 0.0
C1133 C 0.15863 0.43919 0.41033 0.0
C1134 C 0.25195 0.38617 0.17179 0.0
C1135 C 0.31007 0.40705 0.16262 0.0
O1136 O 0.26338 0.39074 0.18256 0.0
Zn1137 Zn 0.28058 0.39722 0.16639 0.0
O1138 O 0.25525 0.38705 0.15555 0.0
Zn1139 Zn 0.27736 0.39525 0.13997 0.0
O1140 O 0.28312 0.37509 0.12718 0.0
O1141 O 0.28803 0.37249 0.1551 0.0
O1142 O 0.30265 0.4041 0.1481 0.0
O1143 O 0.30161 0.40516 0.17648 0.0
O1144 O 0.26915 0.41986 0.15419 0.0
O1145 O 0.26834 0.4137 0.12648 0.0
C1146 C 0.2884 0.36611 0.1398 0.0
C1147 C 0.26519 0.42413 0.13866 0.0
C1148 C 0.33904 0.55913 0.9101 0.0
C1149 C 0.35799 0.5002 0.9173 0.0
O1150 O 0.34011 0.55002 0.92363 0.0
Zn1151 Zn 0.34783 0.52925 0.91289 0.0
O1152 O 0.34235 0.55227 0.89537 0.0
Zn1153 Zn 0.35086 0.52715 0.8864 0.0
O1154 O 0.33265 0.51894 0.8719 0.0
O1155 O 0.32547 0.51917 0.89937 0.0
O1156 O 0.3583 0.50436 0.90125 0.0
O1157 O 0.35274 0.51096 0.92843 0.0
O1158 O 0.37322 0.53657 0.90289 0.0
O1159 O 0.37156 0.53309 0.87467 0.0
C1160 C 0.32168 0.51578 0.8836 0.0
C1161 C 0.38016 0.53756 0.88785 0.0
C1162 C 0.18889 0.59376 0.65998 0.0
C1163 C 0.24801 0.61134 0.67061 0.0
O1164 O 0.19712 0.59427 0.67411 0.0
Zn1165 Zn 0.2189 0.60167 0.66491 0.0
O1166 O 0.19691 0.59675 0.64579 0.0
Zn1167 Zn 0.22306 0.60306 0.63835 0.0
O1168 O 0.23083 0.58337 0.62557 0.0
O1169 O 0.23021 0.57867 0.6536 0.0
O1170 O 0.24503 0.60971 0.6544 0.0
O1171 O 0.23605 0.60836 0.6814 0.0
O1172 O 0.21269 0.62631 0.65289 0.0
O1173 O 0.22012 0.62389 0.62544 0.0
C1174 C 0.23388 0.57355 0.63828 0.0
C1175 C 0.2141 0.63288 0.63774 0.0
C1176 C 0.11756 0.53654 0.11237 0.0
C1177 C 0.17572 0.51382 0.11505 0.0
O1178 O 0.12636 0.53165 0.12527 0.0
Zn1179 Zn 0.14674 0.52583 0.11296 0.0
O1180 O 0.12424 0.53596 0.09719 0.0
Zn1181 Zn 0.1494 0.52862 0.08657 0.0
O1182 O 0.14374 0.51107 0.07051 0.0
O1183 O 0.13863 0.50358 0.09752 0.0
O1184 O 0.17178 0.51763 0.09941 0.0
O1185 O 0.16498 0.51697 0.12696 0.0
O1186 O 0.15547 0.55113 0.10462 0.0
O1187 O 0.15733 0.54953 0.07631 0.0
C1188 C 0.13849 0.49998 0.08132 0.0
C1189 C 0.15871 0.5583 0.09003 0.0
C1190 C 0.21117 0.3674 0.86083 0.0
C1191 C 0.23235 0.4262 0.86048 0.0
O1192 O 0.21568 0.37691 0.87335 0.0
Zn1193 Zn 0.22095 0.397 0.86009 0.0
O1194 O 0.21165 0.3734 0.84539 0.0
Zn1195 Zn 0.21833 0.39784 0.83339 0.0
O1196 O 0.23621 0.39086 0.81793 0.0
O1197 O 0.24366 0.38923 0.84538 0.0
O1198 O 0.22897 0.4212 0.84502 0.0
O1199 O 0.22899 0.41624 0.87301 0.0
O1200 O 0.19568 0.40458 0.85118 0.0
O1201 O 0.19698 0.40461 0.82279 0.0
C1202 C 0.24745 0.38743 0.82933 0.0
C1203 C 0.18831 0.40669 0.83651 0.0
C1204 C 0.38273 0.46427 0.60984 0.0
C1205 C 0.32373 0.48494 0.61254 0.0
O1206 O 0.3745 0.47039 0.6226 0.0
Zn1207 Zn 0.35316 0.47383 0.61084 0.0
O1208 O 0.37539 0.46304 0.59503 0.0
Zn1209 Zn 0.35009 0.46963 0.58444 0.0
O1210 O 0.35557 0.48682 0.56757 0.0
O1211 O 0.35967 0.49551 0.59437 0.0
O1212 O 0.32792 0.481 0.59701 0.0
O1213 O 0.33431 0.48209 0.62467 0.0
O1214 O 0.34605 0.44777 0.60383 0.0
O1215 O 0.34196 0.44795 0.57569 0.0
C1216 C 0.35999 0.49857 0.57809 0.0
C1217 C 0.34218 0.43976 0.58985 0.0
C1218 C 0.31003 0.59163 0.33814 0.0
C1219 C 0.25123 0.61184 0.33174 0.0
O1220 O 0.30116 0.5938 0.32458 0.0
Zn1221 Zn 0.28022 0.60102 0.33554 0.0
O1222 O 0.30299 0.59398 0.35294 0.0
Zn1223 Zn 0.27795 0.60211 0.36222 0.0
O1224 O 0.26982 0.58314 0.37548 0.0
O1225 O 0.26954 0.57785 0.34755 0.0
O1226 O 0.25513 0.61013 0.34777 0.0
O1227 O 0.2623 0.60812 0.32027 0.0
O1228 O 0.28756 0.62543 0.34726 0.0
O1229 O 0.28376 0.62216 0.37528 0.0
C1230 C 0.2663 0.57305 0.3631 0.0
C1231 C 0.28834 0.63151 0.36265 0.0
C1232 C 0.38929 0.11758 0.46063 0.0
C1233 C 0.39144 0.17592 0.48312 0.0
O1234 O 0.377 0.12746 0.46502 0.0
Zn1235 Zn 0.39086 0.14702 0.47106 0.0
O1236 O 0.4049 0.12302 0.46161 0.0
Zn1237 Zn 0.41765 0.14676 0.46907 0.0
O1238 O 0.43244 0.13875 0.48693 0.0
O1239 O 0.40483 0.13834 0.49403 0.0
O1240 O 0.40674 0.17016 0.48029 0.0
O1241 O 0.37852 0.16682 0.47894 0.0
O1242 O 0.40067 0.15482 0.44625 0.0
O1243 O 0.42898 0.15379 0.44819 0.0
C1244 C 0.42074 0.13575 0.49799 0.0
C1245 C 0.41557 0.15663 0.43929 0.0
C1246 C 0.89049 0.32345 0.51833 0.0
C1247 C 0.88973 0.38174 0.54083 0.0
O1248 O 0.8779 0.33331 0.52173 0.0
Zn1249 Zn 0.89077 0.35243 0.53007 0.0
O1250 O 0.90592 0.32848 0.52181 0.0
Zn1251 Zn 0.91744 0.35178 0.53278 0.0
O1252 O 0.92827 0.34433 0.55367 0.0
O1253 O 0.89987 0.34415 0.55517 0.0
O1254 O 0.90519 0.37578 0.54062 0.0
O1255 O 0.87743 0.37239 0.53544 0.0
O1256 O 0.90528 0.36052 0.50749 0.0
O1257 O 0.93273 0.35937 0.51492 0.0
C1258 C 0.91462 0.34184 0.56234 0.0
C1259 C 0.92128 0.36264 0.5037 0.0
C1260 C 0.36967 0.13816 0.28832 0.0
C1261 C 0.42812 0.13753 0.26605 0.0
O1262 O 0.37873 0.12568 0.28286 0.0
Zn1263 Zn 0.39916 0.13849 0.27787 0.0
O1264 O 0.37609 0.15344 0.28841 0.0
Zn1265 Zn 0.40053 0.16505 0.28091 0.0
O1266 O 0.39352 0.18087 0.26336 0.0
O1267 O 0.3917 0.1536 0.2554 0.0
O1268 O 0.42349 0.15305 0.26971 0.0
O1269 O 0.41796 0.12517 0.26941 0.0
O1270 O 0.40755 0.14701 0.30317 0.0
O1271 O 0.40827 0.1754 0.3019 0.0
C1272 C 0.39009 0.16971 0.25189 0.0
C1273 C 0.4103 0.16163 0.31048 0.0
C1274 C 0.58899 0.65754 0.06116 0.0
C1275 C 0.58165 0.63862 0.00217 0.0
O1276 O 0.57533 0.65582 0.05235 0.0
Zn1277 Zn 0.58594 0.64899 0.03115 0.0
O1278 O 0.60371 0.65541 0.05388 0.0
Zn1279 Zn 0.6126 0.64843 0.02833 0.0
O1280 O 0.62525 0.66814 0.02063 0.0
O1281 O 0.59713 0.67229 0.02006 0.0
O1282 O 0.59773 0.64071 0.00567 0.0
O1283 O 0.57038 0.64171 0.01363 0.0
O1284 O 0.59826 0.62476 0.03799 0.0
O1285 O 0.62603 0.6282 0.03282 0.0
C1286 C 0.6125 0.67767 0.01691 0.0
C1287 C 0.61369 0.61871 0.03789 0.0
C1288 C 0.63193 0.36216 0.28738 0.0
C1289 C 0.57384 0.36657 0.26467 0.0
O1290 O 0.62395 0.37521 0.28155 0.0
Zn1291 Zn 0.60289 0.36376 0.27639 0.0
O1292 O 0.62442 0.34737 0.28762 0.0
Zn1293 Zn 0.59888 0.33756 0.28056 0.0
O1294 O 0.60416 0.32053 0.26354 0.0
O1295 O 0.61 0.34703 0.25498 0.0
O1296 O 0.57716 0.35096 0.26911 0.0
O1297 O 0.58513 0.37813 0.26711 0.0
O1298 O 0.59426 0.35708 0.30206 0.0
O1299 O 0.59009 0.32897 0.30209 0.0
C1300 C 0.60969 0.33072 0.25198 0.0
C1301 C 0.58998 0.34325 0.31008 0.0
C1302 C 0.08228 0.86019 0.99798 0.0
C1303 C 0.09105 0.84202 0.93869 0.0
O1304 O 0.07114 0.85661 0.98651 0.0
Zn1305 Zn 0.08707 0.84981 0.96901 0.0
O1306 O 0.09843 0.8586 0.99452 0.0
Zn1307 Zn 0.11375 0.85115 0.97205 0.0
O1308 O 0.12681 0.87157 0.96755 0.0
O1309 O 0.09887 0.87458 0.96282 0.0
O1310 O 0.10544 0.84477 0.94635 0.0
O1311 O 0.07716 0.84261 0.94731 0.0
O1312 O 0.09867 0.82687 0.98019 0.0
O1313 O 0.12669 0.83153 0.9797 0.0
C1314 C 0.1142 0.88089 0.9628 0.0
C1315 C 0.11411 0.82176 0.98337 0.0
C1316 C 0.36814 0.86366 0.21452 0.0
C1317 C 0.42674 0.86903 0.2358 0.0
O1318 O 0.37619 0.87692 0.21977 0.0
Zn1319 Zn 0.39739 0.86572 0.22471 0.0
O1320 O 0.37572 0.84888 0.21454 0.0
Zn1321 Zn 0.40165 0.8395 0.22119 0.0
O1322 O 0.39745 0.82288 0.23882 0.0
O1323 O 0.39068 0.84945 0.24664 0.0
O1324 O 0.42346 0.85332 0.23171 0.0
O1325 O 0.41531 0.88045 0.23335 0.0
O1326 O 0.40529 0.85839 0.19893 0.0
O1327 O 0.40991 0.83036 0.19973 0.0
C1328 C 0.39167 0.83327 0.25007 0.0
C1329 C 0.40951 0.84434 0.19124 0.0
C1330 C 0.13295 0.13851 0.71109 0.0
C1331 C 0.07452 0.13885 0.73328 0.0
O1332 O 0.12341 0.12601 0.71559 0.0
Zn1333 Zn 0.10351 0.13929 0.72154 0.0
O1334 O 0.12711 0.15399 0.71197 0.0
Zn1335 Zn 0.1029 0.16602 0.7194 0.0
O1336 O 0.11016 0.18106 0.73746 0.0
O1337 O 0.11156 0.15349 0.74448 0.0
O1338 O 0.0796 0.15432 0.73008 0.0
O1339 O 0.08435 0.12629 0.72965 0.0
O1340 O 0.09528 0.14882 0.69666 0.0
O1341 O 0.09567 0.17717 0.69855 0.0
C1342 C 0.11349 0.16946 0.74852 0.0
C1343 C 0.09308 0.16368 0.68969 0.0
H1344 H 0.08333 0.10886 0.32859 0.0
H1345 H 0.08379 0.05691 0.34884 0.0
H1346 H 0.11474 0.10792 0.32567 0.0
H1347 H 0.11523 0.05618 0.34622 0.0
H1348 H 0.17011 0.07858 0.36371 0.0
H1349 H 0.13876 0.07501 0.3627 0.0
H1350 H 0.1387 0.08996 0.30906 0.0
H1351 H 0.17003 0.09323 0.3099 0.0
C1352 C 0.09011 0.09718 0.33219 0.0
C1353 C 0.08112 0.08297 0.33896 0.0
C1354 C 0.10805 0.09663 0.33048 0.0
C1355 C 0.11732 0.082 0.3358 0.0
C1356 C 0.10833 0.06762 0.3421 0.0
C1357 C 0.09036 0.06803 0.34349 0.0
C1358 C 0.16344 0.08083 0.35164 0.0
C1359 C 0.17252 0.08622 0.33691 0.0
C1360 C 0.14554 0.07873 0.35105 0.0
C1361 C 0.13639 0.08228 0.33581 0.0
C1362 C 0.14549 0.08721 0.32097 0.0
C1363 C 0.16341 0.089 0.32146 0.0
H1364 H 0.15028 0.91704 0.6178 0.0
H1365 H 0.16571 0.91943 0.56425 0.0
H1366 H 0.14976 0.88563 0.61623 0.0
H1367 H 0.16523 0.88791 0.56276 0.0
H1368 H 0.17993 0.83049 0.57596 0.0
H1369 H 0.18084 0.862 0.57563 0.0
H1370 H 0.13112 0.86372 0.60067 0.0
H1371 H 0.13013 0.83225 0.601 0.0
C1372 C 0.15376 0.91088 0.60575 0.0
C1373 C 0.15802 0.92075 0.59114 0.0
C1374 C 0.15329 0.89289 0.60481 0.0
C1375 C 0.15726 0.88436 0.58932 0.0
C1376 C 0.16212 0.89417 0.57487 0.0
C1377 C 0.16239 0.9122 0.57574 0.0
C1378 C 0.16908 0.83759 0.58118 0.0
C1379 C 0.15497 0.82887 0.58854 0.0
C1380 C 0.16961 0.85562 0.58096 0.0
C1381 C 0.15615 0.86528 0.5883 0.0
C1382 C 0.14179 0.85658 0.59515 0.0
C1383 C 0.14116 0.83856 0.59518 0.0
H1384 H 0.4198 0.93429 0.83212 0.0
H1385 H 0.41759 0.88164 0.85037 0.0
H1386 H 0.38825 0.93536 0.83157 0.0
H1387 H 0.38617 0.88281 0.84988 0.0
H1388 H 0.33272 0.89931 0.8685 0.0
H1389 H 0.36415 0.8998 0.86763 0.0
H1390 H 0.36256 0.92085 0.81609 0.0
H1391 H 0.331 0.92031 0.81685 0.0
C1392 C 0.4126 0.9229 0.83583 0.0
C1393 C 0.4212 0.90789 0.84134 0.0
C1394 C 0.39457 0.92353 0.83549 0.0
C1395 C 0.38482 0.90925 0.84088 0.0
C1396 C 0.3934 0.89409 0.8459 0.0
C1397 C 0.41139 0.89338 0.84603 0.0
C1398 C 0.33903 0.90428 0.85706 0.0
C1399 C 0.32936 0.90973 0.84272 0.0
C1400 C 0.35703 0.9044 0.85651 0.0
C1401 C 0.36575 0.91017 0.84171 0.0
C1402 C 0.35613 0.91634 0.82765 0.0
C1403 C 0.33809 0.91601 0.8281 0.0
H1404 H 0.36832 0.16602 0.09882 0.0
H1405 H 0.3154 0.16888 0.08145 0.0
H1406 H 0.3666 0.13463 0.09889 0.0
H1407 H 0.31384 0.13729 0.08135 0.0
H1408 H 0.32938 0.07924 0.0673 0.0
H1409 H 0.32886 0.11081 0.0658 0.0
H1410 H 0.34851 0.11357 0.11782 0.0
H1411 H 0.34886 0.08215 0.11947 0.0
C1412 C 0.3564 0.15996 0.09475 0.0
C1413 C 0.34197 0.16996 0.09018 0.0
C1414 C 0.35539 0.14199 0.09494 0.0
C1415 C 0.34003 0.13359 0.09032 0.0
C1416 C 0.32582 0.14349 0.08498 0.0
C1417 C 0.32673 0.16154 0.08505 0.0
C1418 C 0.33335 0.08659 0.0785 0.0
C1419 C 0.33921 0.07819 0.09349 0.0
C1420 C 0.33303 0.10463 0.07763 0.0
C1421 C 0.33884 0.11456 0.09162 0.0
C1422 C 0.34417 0.10618 0.10677 0.0
C1423 C 0.34423 0.0882 0.10775 0.0
H1424 H 0.08166 0.93782 0.15471 0.0
H1425 H 0.0814 0.88405 0.16947 0.0
H1426 H 0.11303 0.93847 0.1576 0.0
H1427 H 0.11282 0.88489 0.17269 0.0
H1428 H 0.16795 0.89945 0.191 0.0
H1429 H 0.13646 0.9016 0.19151 0.0
H1430 H 0.13696 0.92161 0.13956 0.0
H1431 H 0.16842 0.91913 0.13884 0.0
C1432 C 0.08825 0.92623 0.15887 0.0
C1433 C 0.07906 0.91085 0.16182 0.0
C1434 C 0.1062 0.92661 0.16043 0.0
C1435 C 0.11527 0.91173 0.16532 0.0
C1436 C 0.10607 0.89656 0.169 0.0
C1437 C 0.08812 0.89607 0.16711 0.0
C1438 C 0.16136 0.90454 0.17977 0.0
C1439 C 0.17064 0.90911 0.16485 0.0
C1440 C 0.14337 0.90566 0.18006 0.0
C1441 C 0.13436 0.91172 0.16557 0.0
C1442 C 0.14365 0.91698 0.15093 0.0
C1443 C 0.16162 0.91553 0.1505 0.0
H1444 H 0.34674 0.91813 0.4397 0.0
H1445 H 0.32914 0.91774 0.38679 0.0
H1446 H 0.34469 0.88666 0.4406 0.0
H1447 H 0.32677 0.88628 0.3879 0.0
H1448 H 0.31039 0.83103 0.40342 0.0
H1449 H 0.30936 0.86246 0.40572 0.0
H1450 H 0.36238 0.86301 0.42268 0.0
H1451 H 0.36361 0.83155 0.42006 0.0
C1452 C 0.34211 0.91136 0.42838 0.0
C1453 C 0.33812 0.92039 0.41315 0.0
C1454 C 0.34105 0.89338 0.42889 0.0
C1455 C 0.33562 0.88413 0.41431 0.0
C1456 C 0.3309 0.89317 0.39933 0.0
C1457 C 0.3323 0.91113 0.39869 0.0
C1458 C 0.32177 0.83781 0.40787 0.0
C1459 C 0.33711 0.82883 0.41153 0.0
C1460 C 0.32117 0.85578 0.40908 0.0
C1461 C 0.33579 0.86507 0.41434 0.0
C1462 C 0.35091 0.85608 0.41869 0.0
C1463 C 0.35162 0.83812 0.41714 0.0
H1464 H 0.42074 0.06804 0.67296 0.0
H1465 H 0.41838 0.11955 0.6517 0.0
H1466 H 0.38918 0.06688 0.67348 0.0
H1467 H 0.38695 0.11824 0.65211 0.0
H1468 H 0.33434 0.09926 0.63286 0.0
H1469 H 0.36573 0.09934 0.63468 0.0
H1470 H 0.36288 0.0826 0.68772 0.0
H1471 H 0.33132 0.08265 0.68603 0.0
C1472 C 0.4135 0.07918 0.66863 0.0
C1473 C 0.42205 0.09386 0.66223 0.0
C1474 C 0.39547 0.0785 0.66894 0.0
C1475 C 0.38569 0.09238 0.66263 0.0
C1476 C 0.39422 0.10728 0.65683 0.0
C1477 C 0.41221 0.10806 0.65674 0.0
C1478 C 0.34036 0.09537 0.64486 0.0
C1479 C 0.33033 0.09099 0.65932 0.0
C1480 C 0.35833 0.09558 0.64593 0.0
C1481 C 0.36667 0.09119 0.6614 0.0
C1482 C 0.35673 0.08606 0.67565 0.0
C1483 C 0.3387 0.08609 0.67467 0.0
H1484 H 0.1554 0.08088 0.94136 0.0
H1485 H 0.17166 0.08076 0.88801 0.0
H1486 H 0.15854 0.11223 0.94225 0.0
H1487 H 0.17508 0.11213 0.88908 0.0
H1488 H 0.19265 0.16716 0.90332 0.0
H1489 H 0.1933 0.13571 0.90586 0.0
H1490 H 0.14115 0.13618 0.92536 0.0
H1491 H 0.14031 0.16759 0.92255 0.0
C1492 C 0.15994 0.0875 0.92992 0.0
C1493 C 0.16323 0.07837 0.91458 0.0
C1494 C 0.16165 0.10543 0.93044 0.0
C1495 C 0.16701 0.11452 0.91574 0.0
C1496 C 0.17103 0.10536 0.90062 0.0
C1497 C 0.16902 0.08745 0.9 0.0
C1498 C 0.18142 0.16059 0.90841 0.0
C1499 C 0.1664 0.16982 0.9127 0.0
C1500 C 0.18178 0.14261 0.90976 0.0
C1501 C 0.16727 0.1336 0.91575 0.0
C1502 C 0.15254 0.14287 0.9208 0.0
C1503 C 0.15205 0.16082 0.91914 0.0
H1504 H 0.09837 0.36807 0.16727 0.0
H1505 H 0.07974 0.31557 0.16978 0.0
H1506 H 0.09861 0.36643 0.13584 0.0
H1507 H 0.08005 0.31398 0.13831 0.0
H1508 H 0.06694 0.32667 0.08078 0.0
H1509 H 0.0656 0.32705 0.11226 0.0
H1510 H 0.11633 0.34997 0.11413 0.0
H1511 H 0.11771 0.34966 0.0827 0.0
C1512 C 0.09411 0.35626 0.16113 0.0
C1513 C 0.08908 0.34193 0.17103 0.0
C1514 C 0.09442 0.35528 0.14314 0.0
C1515 C 0.08956 0.34 0.13466 0.0
C1516 C 0.08384 0.32591 0.14451 0.0
C1517 C 0.08369 0.32684 0.16252 0.0
C1518 C 0.0779 0.33158 0.08791 0.0
C1519 C 0.09242 0.33816 0.07923 0.0
C1520 C 0.07712 0.33179 0.10593 0.0
C1521 C 0.09077 0.33874 0.11561 0.0
C1522 C 0.10551 0.3448 0.10697 0.0
C1523 C 0.10636 0.34444 0.08897 0.0
H1524 H 0.61403 0.17194 0.91784 0.0
H1525 H 0.5605 0.15635 0.91716 0.0
H1526 H 0.61351 0.17483 0.8864 0.0
H1527 H 0.56016 0.15894 0.88572 0.0
H1528 H 0.58069 0.13959 0.83091 0.0
H1529 H 0.57741 0.14089 0.86228 0.0
H1530 H 0.59722 0.19291 0.86231 0.0
H1531 H 0.60021 0.19182 0.83092 0.0
C1532 C 0.60211 0.16934 0.911 0.0
C1533 C 0.58732 0.1639 0.91995 0.0
C1534 C 0.60181 0.17105 0.89305 0.0
C1535 C 0.58681 0.16703 0.88372 0.0
C1536 C 0.57189 0.16203 0.89267 0.0
C1537 C 0.57209 0.16065 0.91064 0.0
C1538 C 0.58409 0.15139 0.83758 0.0
C1539 C 0.59072 0.16559 0.82847 0.0
C1540 C 0.58216 0.15215 0.85549 0.0
C1541 C 0.58713 0.16698 0.86464 0.0
C1542 C 0.59337 0.18132 0.85552 0.0
C1543 C 0.59498 0.18069 0.83757 0.0
H1544 H 0.9046 0.81061 0.33131 0.0
H1545 H 0.9208 0.86395 0.33176 0.0
H1546 H 0.90674 0.80969 0.36275 0.0
H1547 H 0.92326 0.86284 0.36324 0.0
H1548 H 0.93971 0.84746 0.41874 0.0
H1549 H 0.94099 0.84547 0.38726 0.0
H1550 H 0.8885 0.82699 0.38626 0.0
H1551 H 0.887 0.82931 0.41772 0.0
C1552 C 0.90894 0.82204 0.33808 0.0
C1553 C 0.9125 0.83738 0.32907 0.0
C1554 C 0.91006 0.82151 0.35606 0.0
C1555 C 0.9151 0.8362 0.36534 0.0
C1556 C 0.91942 0.85132 0.35632 0.0
C1557 C 0.91797 0.85196 0.33835 0.0
C1558 C 0.92851 0.84274 0.41183 0.0
C1559 C 0.91323 0.83856 0.42068 0.0
C1560 C 0.92924 0.84171 0.39384 0.0
C1561 C 0.91484 0.83611 0.38442 0.0
C1562 C 0.8998 0.83125 0.39328 0.0
C1563 C 0.89894 0.83262 0.41125 0.0
H1564 H 0.93289 0.16633 0.17069 0.0
H1565 H 0.885 0.13812 0.16996 0.0
H1566 H 0.93323 0.16682 0.13925 0.0
H1567 H 0.88413 0.14003 0.13878 0.0
H1568 H 0.89167 0.13345 0.08194 0.0
H1569 H 0.89317 0.13121 0.11306 0.0
H1570 H 0.92297 0.17851 0.11479 0.0
H1571 H 0.92283 0.17946 0.08334 0.0
C1572 C 0.92242 0.16026 0.1637 0.0
C1573 C 0.90907 0.15196 0.17262 0.0
C1574 C 0.92241 0.16076 0.14564 0.0
C1575 C 0.90865 0.15356 0.13612 0.0
C1576 C 0.89526 0.14532 0.14531 0.0
C1577 C 0.89565 0.14427 0.16329 0.0
C1578 C 0.89845 0.14339 0.08907 0.0
C1579 C 0.90701 0.1567 0.08034 0.0
C1580 C 0.89925 0.14221 0.10702 0.0
C1581 C 0.90811 0.15473 0.11681 0.0
C1582 C 0.91635 0.16833 0.10791 0.0
C1583 C 0.91609 0.16909 0.08986 0.0
H1584 H 0.40294 0.68789 0.6698 0.0
H1585 H 0.41975 0.63474 0.66923 0.0
H1586 H 0.40519 0.68893 0.63835 0.0
H1587 H 0.42231 0.63597 0.63776 0.0
H1588 H 0.43944 0.65168 0.58262 0.0
H1589 H 0.44011 0.65335 0.61413 0.0
H1590 H 0.38764 0.67194 0.61432 0.0
H1591 H 0.38678 0.66996 0.58281 0.0
C1592 C 0.40741 0.67653 0.663 0.0
C1593 C 0.41115 0.66121 0.67199 0.0
C1594 C 0.40859 0.67712 0.64501 0.0
C1595 C 0.41388 0.66253 0.63569 0.0
C1596 C 0.41829 0.64742 0.64469 0.0
C1597 C 0.41678 0.64671 0.66266 0.0
C1598 C 0.42812 0.65634 0.58936 0.0
C1599 C 0.41303 0.66068 0.58024 0.0
C1600 C 0.4285 0.65718 0.60737 0.0
C1601 C 0.41393 0.66273 0.61659 0.0
C1602 C 0.39908 0.66771 0.60747 0.0
C1603 C 0.39857 0.66654 0.58947 0.0
H1604 H 0.11031 0.67098 0.41808 0.0
H1605 H 0.05824 0.65105 0.41774 0.0
H1606 H 0.10934 0.67388 0.38666 0.0
H1607 H 0.05747 0.65367 0.3863 0.0
H1608 H 0.07913 0.63645 0.33115 0.0
H1609 H 0.0759 0.63726 0.36255 0.0
H1610 H 0.09149 0.6907 0.36286 0.0
H1611 H 0.09443 0.69006 0.33147 0.0
C1612 C 0.09861 0.66743 0.41132 0.0
C1613 C 0.08437 0.66078 0.42036 0.0
C1614 C 0.09804 0.66913 0.39338 0.0
C1615 C 0.08335 0.66393 0.38413 0.0
C1616 C 0.06896 0.6577 0.39317 0.0
C1617 C 0.06939 0.6563 0.41114 0.0
C1618 C 0.08159 0.64844 0.33789 0.0
C1619 C 0.08705 0.66317 0.32885 0.0
C1620 C 0.07969 0.64892 0.35582 0.0
C1621 C 0.08352 0.66404 0.36505 0.0
C1622 C 0.08854 0.67888 0.356 0.0
C1623 C 0.09012 0.67851 0.33805 0.0
H1624 H 0.40464 0.31058 0.83148 0.0
H1625 H 0.41964 0.36428 0.83115 0.0
H1626 H 0.40743 0.30999 0.86287 0.0
H1627 H 0.42275 0.3635 0.86259 0.0
H1628 H 0.44114 0.34874 0.91765 0.0
H1629 H 0.44155 0.34663 0.88617 0.0
H1630 H 0.38944 0.32705 0.88678 0.0
H1631 H 0.38882 0.32948 0.91826 0.0
C1632 C 0.40883 0.32217 0.83806 0.0
C1633 C 0.41189 0.33751 0.82885 0.0
C1634 C 0.41033 0.32182 0.85602 0.0
C1635 C 0.41525 0.33669 0.86506 0.0
C1636 C 0.41902 0.35184 0.85584 0.0
C1637 C 0.41719 0.35229 0.8379 0.0
C1638 C 0.42985 0.34375 0.9111 0.0
C1639 C 0.41492 0.33928 0.92041 0.0
C1640 C 0.43008 0.34266 0.8931 0.0
C1641 C 0.41553 0.33672 0.88413 0.0
C1642 C 0.40086 0.33158 0.89345 0.0
C1643 C 0.40049 0.333 0.91142 0.0
H1644 H 0.91846 0.88755 0.6692 0.0
H1645 H 0.91693 0.94135 0.65462 0.0
H1646 H 0.88706 0.88766 0.67255 0.0
H1647 H 0.88557 0.94129 0.65769 0.0
H1648 H 0.83066 0.92112 0.63904 0.0
H1649 H 0.86205 0.92427 0.63975 0.0
H1650 H 0.86308 0.90338 0.69136 0.0
H1651 H 0.83165 0.90051 0.69084 0.0
C1652 C 0.91146 0.89942 0.66691 0.0
C1653 C 0.92015 0.91442 0.66162 0.0
C1654 C 0.89353 0.89949 0.66888 0.0
C1655 C 0.88397 0.91447 0.6653 0.0
C1656 C 0.89268 0.92957 0.66044 0.0
C1657 C 0.91062 0.9296 0.65878 0.0
C1658 C 0.83756 0.91744 0.65063 0.0
C1659 C 0.82872 0.91056 0.66487 0.0
C1660 C 0.85548 0.91929 0.65105 0.0
C1661 C 0.86491 0.91401 0.6656 0.0
C1662 C 0.85607 0.90747 0.67998 0.0
C1663 C 0.83811 0.90593 0.6797 0.0
H1664 H 0.87165 0.16723 0.40093 0.0
H1665 H 0.81998 0.17022 0.42169 0.0
H1666 H 0.87003 0.13579 0.40153 0.0
H1667 H 0.81848 0.1387 0.42239 0.0
H1668 H 0.83327 0.08097 0.43593 0.0
H1669 H 0.83357 0.11255 0.43711 0.0
H1670 H 0.85137 0.11434 0.38437 0.0
H1671 H 0.85095 0.08294 0.38305 0.0
C1672 C 0.86006 0.16119 0.40587 0.0
C1673 C 0.84592 0.17121 0.4112 0.0
C1674 C 0.85908 0.1432 0.40607 0.0
C1675 C 0.84406 0.13486 0.41183 0.0
C1676 C 0.83021 0.14483 0.4179 0.0
C1677 C 0.83108 0.16285 0.41747 0.0
C1678 C 0.83702 0.08812 0.42452 0.0
C1679 C 0.84212 0.07944 0.40941 0.0
C1680 C 0.83719 0.10616 0.42521 0.0
C1681 C 0.84271 0.11582 0.4109 0.0
C1682 C 0.84731 0.10717 0.39567 0.0
C1683 C 0.84691 0.08919 0.39488 0.0
H1684 H 0.66929 0.07798 0.184 0.0
H1685 H 0.66844 0.09941 0.13251 0.0
H1686 H 0.63775 0.0778 0.1844 0.0
H1687 H 0.63698 0.09921 0.13298 0.0
H1688 H 0.58302 0.11688 0.14905 0.0
H1689 H 0.61447 0.1158 0.14977 0.0
H1690 H 0.61237 0.06367 0.16925 0.0
H1691 H 0.58087 0.06467 0.16855 0.0
C1692 C 0.66239 0.08245 0.1727 0.0
C1693 C 0.67137 0.08873 0.15823 0.0
C1694 C 0.64435 0.08233 0.17294 0.0
C1695 C 0.63494 0.08868 0.1588 0.0
C1696 C 0.64392 0.09449 0.14416 0.0
C1697 C 0.66193 0.09444 0.14384 0.0
C1698 C 0.58924 0.10525 0.1537 0.0
C1699 C 0.57944 0.09085 0.15871 0.0
C1700 C 0.60725 0.10459 0.15395 0.0
C1701 C 0.61584 0.08958 0.15938 0.0
C1702 C 0.60608 0.07541 0.16503 0.0
C1703 C 0.58805 0.07599 0.1646 0.0
H1704 H 0.65215 0.91872 0.94214 0.0
H1705 H 0.67157 0.91873 0.88987 0.0
H1706 H 0.65507 0.88732 0.94318 0.0
H1707 H 0.6747 0.88738 0.89107 0.0
H1708 H 0.69034 0.83209 0.90475 0.0
H1709 H 0.69139 0.86347 0.90787 0.0
H1710 H 0.63872 0.86346 0.92596 0.0
H1711 H 0.63753 0.83213 0.92263 0.0
C1712 C 0.65734 0.91207 0.931 0.0
C1713 C 0.66157 0.92119 0.91589 0.0
C1714 C 0.65892 0.89411 0.93159 0.0
C1715 C 0.66507 0.88496 0.9172 0.0
C1716 C 0.67005 0.89414 0.90239 0.0
C1717 C 0.66818 0.91207 0.90168 0.0
C1718 C 0.67907 0.83874 0.90966 0.0
C1719 C 0.66382 0.82965 0.91338 0.0
C1720 C 0.67967 0.85669 0.91135 0.0
C1721 C 0.66513 0.86585 0.9171 0.0
C1722 C 0.65015 0.85669 0.92161 0.0
C1723 C 0.64945 0.83878 0.91964 0.0
H1724 H 0.83423 0.09978 0.86862 0.0
H1725 H 0.8325 0.08137 0.816 0.0
H1726 H 0.86565 0.10024 0.8674 0.0
H1727 H 0.86408 0.08171 0.81491 0.0
H1728 H 0.92166 0.06827 0.8306 0.0
H1729 H 0.89013 0.0668 0.82987 0.0
H1730 H 0.88725 0.11859 0.85011 0.0
H1731 H 0.91869 0.12019 0.85073 0.0
C1732 C 0.84054 0.09559 0.85687 0.0
C1733 C 0.83086 0.09056 0.84239 0.0
C1734 C 0.85853 0.09602 0.85614 0.0
C1735 C 0.86725 0.09121 0.841 0.0
C1736 C 0.85765 0.08549 0.82673 0.0
C1737 C 0.8396 0.0853 0.82737 0.0
C1738 C 0.9143 0.07942 0.83468 0.0
C1739 C 0.92267 0.09433 0.84077 0.0
C1740 C 0.89627 0.07857 0.83423 0.0
C1741 C 0.8863 0.09251 0.84012 0.0
C1742 C 0.89466 0.10758 0.84571 0.0
C1743 C 0.91265 0.10854 0.84592 0.0
H1744 H 0.68635 0.16905 0.57946 0.0
H1745 H 0.63315 0.16683 0.59611 0.0
H1746 H 0.68741 0.13742 0.57899 0.0
H1747 H 0.63439 0.13544 0.59584 0.0
H1748 H 0.65155 0.08291 0.61684 0.0
H1749 H 0.65255 0.11429 0.61517 0.0
H1750 H 0.67147 0.11113 0.5629 0.0
H1751 H 0.67027 0.07956 0.5644 0.0
C1752 C 0.67486 0.16184 0.58281 0.0
C1753 C 0.65969 0.17045 0.58787 0.0
C1754 C 0.67548 0.14379 0.58253 0.0
C1755 C 0.66104 0.13408 0.58759 0.0
C1756 C 0.64575 0.14266 0.5921 0.0
C1757 C 0.64504 0.16064 0.59212 0.0
C1758 C 0.65614 0.08884 0.60505 0.0
C1759 C 0.66076 0.07874 0.59072 0.0
C1760 C 0.65659 0.10681 0.60407 0.0
C1761 C 0.66192 0.11506 0.58885 0.0
C1762 C 0.66732 0.10503 0.57477 0.0
C1763 C 0.6666 0.087 0.57564 0.0
H1764 H 0.58285 0.94315 0.34911 0.0
H1765 H 0.58241 0.89126 0.32872 0.0
H1766 H 0.61432 0.94379 0.34672 0.0
H1767 H 0.61384 0.8921 0.32605 0.0
H1768 H 0.66915 0.90662 0.31042 0.0
H1769 H 0.63782 0.90984 0.30959 0.0
H1770 H 0.63789 0.92512 0.36313 0.0
H1771 H 0.66926 0.92162 0.36414 0.0
C1772 C 0.58943 0.93202 0.3438 0.0
C1773 C 0.58019 0.91712 0.33913 0.0
C1774 C 0.60742 0.93238 0.34254 0.0
C1775 C 0.61643 0.91799 0.33626 0.0
C1776 C 0.60715 0.9034 0.33084 0.0
C1777 C 0.5892 0.90291 0.33242 0.0
C1778 C 0.66254 0.9109 0.32196 0.0
C1779 C 0.67166 0.91381 0.33738 0.0
C1780 C 0.64461 0.91266 0.32148 0.0
C1781 C 0.63551 0.91769 0.33629 0.0
C1782 C 0.64466 0.92134 0.3515 0.0
C1783 C 0.66258 0.91927 0.35209 0.0
H1784 H 0.81113 0.83109 0.09556 0.0
H1785 H 0.86464 0.8306 0.07986 0.0
H1786 H 0.81056 0.86246 0.09267 0.0
H1787 H 0.86386 0.86203 0.07663 0.0
H1788 H 0.84831 0.91692 0.05784 0.0
H1789 H 0.84629 0.88544 0.05776 0.0
H1790 H 0.82833 0.88642 0.11045 0.0
H1791 H 0.8307 0.91791 0.11074 0.0
C1792 C 0.82268 0.83764 0.09119 0.0
C1793 C 0.83796 0.82839 0.08796 0.0
C1794 C 0.82234 0.85558 0.08964 0.0
C1795 C 0.83716 0.86456 0.08448 0.0
C1796 C 0.85225 0.85532 0.08055 0.0
C1797 C 0.8527 0.83738 0.08244 0.0
C1798 C 0.84371 0.91045 0.06934 0.0
C1799 C 0.83967 0.91986 0.08432 0.0
C1800 C 0.84266 0.89246 0.06929 0.0
C1801 C 0.8372 0.88361 0.08409 0.0
C1802 C 0.8325 0.89302 0.09885 0.0
C1803 C 0.83389 0.91099 0.09903 0.0
H1804 H 0.88337 0.67022 0.91738 0.0
H1805 H 0.93733 0.65615 0.9166 0.0
H1806 H 0.88373 0.67282 0.88587 0.0
H1807 H 0.93748 0.6584 0.88517 0.0
H1808 H 0.91766 0.6389 0.83016 0.0
H1809 H 0.92013 0.63973 0.86165 0.0
H1810 H 0.90047 0.69181 0.86195 0.0
H1811 H 0.89835 0.69121 0.83047 0.0
C1812 C 0.89532 0.66786 0.91051 0.0
C1813 C 0.91031 0.66299 0.91945 0.0
C1814 C 0.89552 0.66938 0.89253 0.0
C1815 C 0.91062 0.66573 0.88319 0.0
C1816 C 0.92568 0.6612 0.89212 0.0
C1817 C 0.92558 0.66002 0.9101 0.0
C1818 C 0.91411 0.65061 0.83693 0.0
C1819 C 0.90784 0.66499 0.82786 0.0
C1820 C 0.91555 0.65108 0.8549 0.0
C1821 C 0.91041 0.66581 0.86413 0.0
C1822 C 0.90443 0.68029 0.85508 0.0
C1823 C 0.90334 0.67996 0.83709 0.0
H1824 H 0.43589 0.83138 0.08193 0.0
H1825 H 0.38297 0.84886 0.08415 0.0
H1826 H 0.4372 0.83157 0.11349 0.0
H1827 H 0.3844 0.84914 0.11557 0.0
H1828 H 0.40127 0.86967 0.16827 0.0
H1829 H 0.40152 0.86787 0.13686 0.0
H1830 H 0.42296 0.81656 0.1398 0.0
H1831 H 0.42263 0.81824 0.17133 0.0
C1832 C 0.42449 0.83505 0.08914 0.0
C1833 C 0.40934 0.84015 0.08054 0.0
C1834 C 0.42525 0.83515 0.10718 0.0
C1835 C 0.41098 0.84058 0.11691 0.0
C1836 C 0.39567 0.84514 0.10834 0.0
C1837 C 0.39482 0.84482 0.09035 0.0
C1838 C 0.40627 0.85809 0.16225 0.0
C1839 C 0.41188 0.84407 0.1723 0.0
C1840 C 0.40626 0.85701 0.14427 0.0
C1841 C 0.41206 0.842 0.13594 0.0
C1842 C 0.41842 0.82828 0.14592 0.0
C1843 C 0.41821 0.82925 0.16395 0.0
H1844 H 0.09784 0.19157 0.66873 0.0
H1845 H 0.08003 0.13874 0.66847 0.0
H1846 H 0.09506 0.19264 0.63733 0.0
H1847 H 0.07701 0.13998 0.63709 0.0
H1848 H 0.0611 0.15396 0.58177 0.0
H1849 H 0.05985 0.15678 0.61317 0.0
H1850 H 0.11224 0.17562 0.6136 0.0
H1851 H 0.11366 0.17255 0.58223 0.0
C1852 C 0.09302 0.1803 0.66202 0.0
C1853 C 0.08922 0.16503 0.67106 0.0
C1854 C 0.09152 0.18091 0.64406 0.0
C1855 C 0.08588 0.16639 0.63484 0.0
C1856 C 0.08129 0.15139 0.64393 0.0
C1857 C 0.08308 0.15067 0.66186 0.0
C1858 C 0.07227 0.15896 0.58853 0.0
C1859 C 0.08752 0.16298 0.57955 0.0
C1860 C 0.07155 0.16048 0.60649 0.0
C1861 C 0.08595 0.16637 0.61575 0.0
C1862 C 0.10092 0.17115 0.60672 0.0
C1863 C 0.10175 0.16934 0.5888 0.0
H1864 H 0.0996 0.86984 0.83192 0.0
H1865 H 0.078 0.81853 0.82879 0.0
H1866 H 0.09871 0.86825 0.86335 0.0
H1867 H 0.07698 0.81708 0.86033 0.0
H1868 H 0.06381 0.83223 0.91826 0.0
H1869 H 0.06246 0.83268 0.88666 0.0
H1870 H 0.11566 0.84896 0.88464 0.0
H1871 H 0.11715 0.84834 0.91603 0.0
C1872 C 0.09439 0.85834 0.83792 0.0
C1873 C 0.08894 0.84428 0.82786 0.0
C1874 C 0.09401 0.85739 0.85591 0.0
C1875 C 0.08795 0.84247 0.86423 0.0
C1876 C 0.08171 0.82873 0.85422 0.0
C1877 C 0.08232 0.82957 0.83619 0.0
C1878 C 0.07527 0.83568 0.91106 0.0
C1879 C 0.09058 0.84026 0.91966 0.0
C1880 C 0.07448 0.83594 0.893 0.0
C1881 C 0.08889 0.84107 0.88327 0.0
C1882 C 0.10429 0.8452 0.89186 0.0
C1883 C 0.10517 0.84469 0.90984 0.0
H1884 H 0.56129 0.33563 0.41968 0.0
H1885 H 0.61499 0.3504 0.41669 0.0
H1886 H 0.55991 0.3347 0.38807 0.0
H1887 H 0.61345 0.34968 0.38531 0.0
H1888 H 0.59715 0.36953 0.33226 0.0
H1889 H 0.59598 0.36896 0.36368 0.0
H1890 H 0.57497 0.31743 0.36217 0.0
H1891 H 0.57631 0.31783 0.33058 0.0
C1892 C 0.57281 0.33851 0.41231 0.0
C1893 C 0.58824 0.34313 0.42069 0.0
C1894 C 0.572 0.33796 0.39427 0.0
C1895 C 0.58651 0.34233 0.38434 0.0
C1896 C 0.60202 0.34648 0.39271 0.0
C1897 C 0.60291 0.34675 0.41068 0.0
C1898 C 0.59203 0.35816 0.33856 0.0
C1899 C 0.58691 0.34369 0.32892 0.0
C1900 C 0.59148 0.3578 0.35656 0.0
C1901 C 0.58556 0.34308 0.36529 0.0
C1902 C 0.57958 0.32893 0.3557 0.0
C1903 C 0.58038 0.32917 0.33765 0.0
H1904 H 0.92139 0.36198 0.67009 0.0
H1905 H 0.90401 0.30901 0.66988 0.0
H1906 H 0.92488 0.36089 0.63874 0.0
H1907 H 0.90722 0.3081 0.63851 0.0
H1908 H 0.88943 0.32857 0.58313 0.0
H1909 H 0.89023 0.32542 0.61453 0.0
H1910 H 0.94273 0.34392 0.61515 0.0
H1911 H 0.94212 0.34679 0.58374 0.0
C1912 C 0.91853 0.35006 0.66338 0.0
C1913 C 0.9124 0.3356 0.67243 0.0
C1914 C 0.92059 0.34942 0.64548 0.0
C1915 C 0.91625 0.33443 0.63627 0.0
C1916 C 0.91058 0.31982 0.64534 0.0
C1917 C 0.90884 0.32034 0.66328 0.0
C1918 C 0.90123 0.33169 0.58994 0.0
C1919 C 0.91569 0.33796 0.58098 0.0
C1920 C 0.9017 0.32983 0.60787 0.0
C1921 C 0.91653 0.3345 0.61719 0.0
C1922 C 0.93114 0.34031 0.60822 0.0
C1923 C 0.93079 0.34186 0.59026 0.0
H1924 H 0.59535 0.68679 0.16967 0.0
H1925 H 0.58228 0.63259 0.16876 0.0
H1926 H 0.59364 0.68776 0.13824 0.0
H1927 H 0.58019 0.63377 0.13721 0.0
H1928 H 0.56172 0.65034 0.08214 0.0
H1929 H 0.56097 0.65126 0.11367 0.0
H1930 H 0.61293 0.67119 0.11437 0.0
H1931 H 0.61392 0.6699 0.0828 0.0
C1932 C 0.59184 0.67514 0.16279 0.0
C1933 C 0.58896 0.65958 0.17168 0.0
C1934 C 0.59096 0.67572 0.14481 0.0
C1935 C 0.58683 0.66085 0.1354 0.0
C1936 C 0.58333 0.64542 0.14425 0.0
C1937 C 0.58456 0.64474 0.16225 0.0
C1938 C 0.57291 0.65514 0.089 0.0
C1939 C 0.58789 0.66007 0.08002 0.0
C1940 C 0.57249 0.65553 0.10701 0.0
C1941 C 0.5869 0.66124 0.11634 0.0
C1942 C 0.60164 0.6668 0.10739 0.0
C1943 C 0.60221 0.66605 0.08938 0.0
H1944 H 0.57997 0.61141 0.82989 0.0
H1945 H 0.57974 0.55927 0.84963 0.0
H1946 H 0.61143 0.61023 0.82736 0.0
H1947 H 0.61121 0.55831 0.84743 0.0
H1948 H 0.66649 0.58012 0.86509 0.0
H1949 H 0.63504 0.57715 0.86422 0.0
H1950 H 0.63507 0.59154 0.81045 0.0
H1951 H 0.66647 0.59418 0.81112 0.0
C1952 C 0.58661 0.59965 0.83349 0.0
C1953 C 0.57741 0.58544 0.83994 0.0
C1954 C 0.60457 0.59896 0.832 0.0
C1955 C 0.61365 0.58419 0.83727 0.0
C1956 C 0.60446 0.56985 0.84336 0.0
C1957 C 0.58647 0.57039 0.8445 0.0
C1958 C 0.65981 0.58237 0.85303 0.0
C1959 C 0.66894 0.5874 0.83819 0.0
C1960 C 0.64186 0.58062 0.85252 0.0
C1961 C 0.63272 0.5842 0.83728 0.0
C1962 C 0.64186 0.58879 0.82236 0.0
C1963 C 0.65982 0.5902 0.82276 0.0
H1964 H 0.66981 0.41791 0.11297 0.0
H1965 H 0.65185 0.41696 0.06019 0.0
H1966 H 0.67202 0.3864 0.1127 0.0
H1967 H 0.65372 0.38546 0.06013 0.0
H1968 H 0.63575 0.33047 0.0817 0.0
H1969 H 0.63639 0.36194 0.07879 0.0
H1970 H 0.68961 0.36244 0.09507 0.0
H1971 H 0.68917 0.33103 0.09765 0.0
C1972 C 0.66649 0.41099 0.10129 0.0
C1973 C 0.66069 0.41989 0.08661 0.0
C1974 C 0.66779 0.393 0.10113 0.0
C1975 C 0.66297 0.38359 0.08641 0.0
C1976 C 0.65743 0.39247 0.07164 0.0
C1977 C 0.65648 0.41047 0.07167 0.0
C1978 C 0.64764 0.33728 0.08443 0.0
C1979 C 0.6624 0.32829 0.08989 0.0
C1980 C 0.64801 0.35524 0.08272 0.0
C1981 C 0.66304 0.36452 0.08678 0.0
C1982 C 0.67787 0.35554 0.09195 0.0
C1983 C 0.67761 0.33758 0.09332 0.0
H1984 H 0.83142 0.40035 0.31013 0.0
H1985 H 0.83086 0.42041 0.36215 0.0
H1986 H 0.86284 0.40319 0.30938 0.0
H1987 H 0.86225 0.42353 0.36121 0.0
H1988 H 0.9173 0.44017 0.34628 0.0
H1989 H 0.88591 0.44049 0.34342 0.0
H1990 H 0.88675 0.38707 0.32776 0.0
H1991 H 0.91816 0.38658 0.33091 0.0
C1992 C 0.83796 0.40567 0.32128 0.0
C1993 C 0.82869 0.41012 0.33623 0.0
C1994 C 0.85592 0.40719 0.32086 0.0
C1995 C 0.8649 0.41353 0.33524 0.0
C1996 C 0.85559 0.4187 0.34991 0.0
C1997 C 0.83766 0.41686 0.35046 0.0
C1998 C 0.91083 0.42855 0.34199 0.0
C1999 C 0.92019 0.41332 0.33887 0.0
C2000 C 0.89288 0.42874 0.34045 0.0
C2001 C 0.88398 0.41381 0.33542 0.0
C2002 C 0.89336 0.39879 0.33156 0.0
C2003 C 0.9113 0.39849 0.33342 0.0
H2004 H 0.86005 0.66728 0.57811 0.0
H2005 H 0.80774 0.66761 0.59742 0.0
H2006 H 0.85931 0.63574 0.57682 0.0
H2007 H 0.80722 0.63606 0.59648 0.0
H2008 H 0.82938 0.58157 0.61605 0.0
H2009 H 0.82621 0.61297 0.61421 0.0
H2010 H 0.841 0.6114 0.56056 0.0
H2011 H 0.84383 0.58007 0.5622 0.0
C2012 C 0.84835 0.66063 0.58189 0.0
C2013 C 0.83396 0.6699 0.58784 0.0
C2014 C 0.84792 0.64263 0.58112 0.0
C2015 C 0.83323 0.63356 0.58662 0.0
C2016 C 0.81871 0.6428 0.59224 0.0
C2017 C 0.819 0.66082 0.59266 0.0
C2018 C 0.83169 0.5879 0.60381 0.0
C2019 C 0.83687 0.57836 0.58929 0.0
C2020 C 0.82983 0.60582 0.60275 0.0
C2021 C 0.83344 0.61451 0.58726 0.0
C2022 C 0.83822 0.60496 0.57266 0.0
C2023 C 0.83975 0.58704 0.57361 0.0
H2024 H 0.58132 0.3856 0.6703 0.0
H2025 H 0.58125 0.43944 0.65583 0.0
H2026 H 0.61282 0.38638 0.67272 0.0
H2027 H 0.61271 0.44003 0.6579 0.0
H2028 H 0.66771 0.42049 0.63779 0.0
H2029 H 0.63625 0.42303 0.63917 0.0
H2030 H 0.63681 0.40317 0.69117 0.0
H2031 H 0.66826 0.40096 0.69001 0.0
C2032 C 0.588 0.39762 0.66783 0.0
C2033 C 0.57882 0.41245 0.66288 0.0
C2034 C 0.60598 0.39807 0.66926 0.0
C2035 C 0.61511 0.41326 0.66542 0.0
C2036 C 0.60593 0.42817 0.66085 0.0
C2037 C 0.58795 0.42782 0.65977 0.0
C2038 C 0.66114 0.41693 0.6496 0.0
C2039 C 0.67044 0.41054 0.66379 0.0
C2040 C 0.64318 0.41842 0.6504 0.0
C2041 C 0.63419 0.41322 0.66525 0.0
C2042 C 0.64348 0.40718 0.67956 0.0
C2043 C 0.66147 0.40603 0.6789 0.0
H2044 H 0.85979 0.33284 0.92148 0.0
H2045 H 0.8073 0.33296 0.90268 0.0
H2046 H 0.85904 0.36434 0.92351 0.0
H2047 H 0.80677 0.36446 0.90438 0.0
H2048 H 0.82844 0.41933 0.88575 0.0
H2049 H 0.82538 0.3879 0.887 0.0
H2050 H 0.84107 0.3884 0.94041 0.0
H2051 H 0.8438 0.41978 0.93936 0.0
C2052 C 0.84805 0.33957 0.91798 0.0
C2053 C 0.83361 0.33044 0.91194 0.0
C2054 C 0.84762 0.35756 0.91917 0.0
C2055 C 0.83287 0.36674 0.91403 0.0
C2056 C 0.81831 0.35763 0.90834 0.0
C2057 C 0.8186 0.33963 0.90749 0.0
C2058 C 0.83097 0.41276 0.89782 0.0
C2059 C 0.83636 0.42202 0.91244 0.0
C2060 C 0.82918 0.39481 0.89854 0.0
C2061 C 0.83307 0.38581 0.91379 0.0
C2062 C 0.83807 0.39508 0.9285 0.0
C2063 C 0.83953 0.41303 0.92789 0.0
H2064 H 0.92019 0.56638 0.16903 0.0
H2065 H 0.9173 0.61875 0.15009 0.0
H2066 H 0.88866 0.56513 0.17023 0.0
H2067 H 0.88587 0.61738 0.15118 0.0
H2068 H 0.83245 0.59954 0.13317 0.0
H2069 H 0.86389 0.59949 0.13381 0.0
H2070 H 0.86297 0.58009 0.18599 0.0
H2071 H 0.83137 0.58025 0.18549 0.0
C2072 C 0.91285 0.57767 0.16531 0.0
C2073 C 0.92124 0.59265 0.15942 0.0
C2074 C 0.89482 0.57695 0.16603 0.0
C2075 C 0.88488 0.59108 0.16061 0.0
C2076 C 0.89326 0.60621 0.15521 0.0
C2077 C 0.91125 0.60704 0.15473 0.0
C2078 C 0.8389 0.59505 0.14472 0.0
C2079 C 0.82941 0.58994 0.1593 0.0
C2080 C 0.85691 0.59517 0.14512 0.0
C2081 C 0.86581 0.58998 0.16002 0.0
C2082 C 0.85638 0.58416 0.17436 0.0
C2083 C 0.83833 0.58426 0.17405 0.0
H2084 H 0.65165 0.58378 0.37992 0.0
H2085 H 0.67196 0.58128 0.4318 0.0
H2086 H 0.65211 0.61522 0.3813 0.0
H2087 H 0.67248 0.61281 0.43307 0.0
H2088 H 0.68576 0.67041 0.41846 0.0
H2089 H 0.68708 0.63886 0.41825 0.0
H2090 H 0.63476 0.63681 0.3993 0.0
H2091 H 0.63333 0.66823 0.39958 0.0
C2092 C 0.65646 0.58992 0.39151 0.0
C2093 C 0.66171 0.58003 0.40578 0.0
C2094 C 0.65657 0.60792 0.39235 0.0
C2095 C 0.66213 0.6164 0.40736 0.0
C2096 C 0.66814 0.60657 0.42134 0.0
C2097 C 0.66781 0.58854 0.4206 0.0
C2098 C 0.67447 0.66321 0.41446 0.0
C2099 C 0.65945 0.67182 0.40902 0.0
C2100 C 0.67524 0.64518 0.41435 0.0
C2101 C 0.6611 0.63545 0.40856 0.0
C2102 C 0.64594 0.64403 0.40358 0.0
C2103 C 0.64508 0.66202 0.40391 0.0
H2104 H 0.61012 0.82785 0.58239 0.0
H2105 H 0.558 0.84767 0.5822 0.0
H2106 H 0.60876 0.82476 0.61375 0.0
H2107 H 0.55682 0.84481 0.6136 0.0
H2108 H 0.57766 0.86227 0.66883 0.0
H2109 H 0.57442 0.86114 0.63747 0.0
H2110 H 0.5914 0.80812 0.63752 0.0
H2111 H 0.59441 0.80909 0.66891 0.0
C2112 C 0.59831 0.83133 0.58901 0.0
C2113 C 0.58419 0.83804 0.57984 0.0
C2114 C 0.59752 0.82949 0.60693 0.0
C2115 C 0.5827 0.83461 0.61604 0.0
C2116 C 0.5684 0.84085 0.60685 0.0
C2117 C 0.56907 0.84239 0.58889 0.0
C2118 C 0.58043 0.85029 0.66219 0.0
C2119 C 0.58634 0.8358 0.67132 0.0
C2120 C 0.5785 0.84963 0.64427 0.0
C2121 C 0.58273 0.83456 0.63513 0.0
C2122 C 0.58814 0.81991 0.64429 0.0
C2123 C 0.58977 0.82046 0.66224 0.0
H2124 H 0.41839 0.3884 0.17029 0.0
H2125 H 0.41723 0.44111 0.15216 0.0
H2126 H 0.38691 0.38869 0.17287 0.0
H2127 H 0.38575 0.44119 0.1544 0.0
H2128 H 0.33077 0.41902 0.13665 0.0
H2129 H 0.36219 0.42238 0.13725 0.0
H2130 H 0.36298 0.4063 0.19054 0.0
H2131 H 0.33161 0.40329 0.19014 0.0
C2132 C 0.41144 0.40008 0.16703 0.0
C2133 C 0.42026 0.41473 0.16104 0.0
C2134 C 0.39346 0.40025 0.16854 0.0
C2135 C 0.38399 0.41495 0.16376 0.0
C2136 C 0.39281 0.4297 0.15809 0.0
C2137 C 0.4108 0.42966 0.15692 0.0
C2138 C 0.33763 0.41647 0.14856 0.0
C2139 C 0.32873 0.41089 0.16333 0.0
C2140 C 0.35556 0.41843 0.1489 0.0
C2141 C 0.36492 0.41452 0.16393 0.0
C2142 C 0.35602 0.40932 0.17879 0.0
C2143 C 0.33808 0.40769 0.17856 0.0
H2144 H 0.36186 0.66633 0.9211 0.0
H2145 H 0.30895 0.66762 0.90355 0.0
H2146 H 0.3604 0.63481 0.92285 0.0
H2147 H 0.30773 0.63614 0.90493 0.0
H2148 H 0.32818 0.58121 0.88481 0.0
H2149 H 0.32605 0.6127 0.88657 0.0
H2150 H 0.34153 0.61088 0.94 0.0
H2151 H 0.34327 0.57943 0.93847 0.0
C2152 C 0.34989 0.65991 0.91782 0.0
C2153 C 0.33553 0.66943 0.9122 0.0
C2154 C 0.34905 0.64192 0.91885 0.0
C2155 C 0.33397 0.63315 0.91394 0.0
C2156 C 0.3195 0.64266 0.90871 0.0
C2157 C 0.3202 0.66065 0.90803 0.0
C2158 C 0.33085 0.58751 0.897 0.0
C2159 C 0.33587 0.57787 0.91149 0.0
C2160 C 0.3296 0.60548 0.898 0.0
C2161 C 0.3337 0.61411 0.91341 0.0
C2162 C 0.33837 0.60447 0.92799 0.0
C2163 C 0.33926 0.5865 0.9271 0.0
H2164 H 0.1684 0.58199 0.68628 0.0
H2165 H 0.16648 0.60098 0.63388 0.0
H2166 H 0.13681 0.5815 0.6872 0.0
H2167 H 0.13504 0.60064 0.63494 0.0
H2168 H 0.08187 0.61983 0.65213 0.0
H2169 H 0.11328 0.61855 0.65282 0.0
H2170 H 0.11093 0.5662 0.67161 0.0
H2171 H 0.07935 0.56733 0.67078 0.0
C2172 C 0.16126 0.58588 0.67492 0.0
C2173 C 0.16993 0.59156 0.66002 0.0
C2174 C 0.14321 0.58558 0.67546 0.0
C2175 C 0.13354 0.59122 0.66121 0.0
C2176 C 0.14221 0.59643 0.64617 0.0
C2177 C 0.16021 0.59649 0.64554 0.0
C2178 C 0.08799 0.6081 0.65664 0.0
C2179 C 0.0781 0.59365 0.66135 0.0
C2180 C 0.10598 0.60734 0.65688 0.0
C2181 C 0.11448 0.59221 0.66207 0.0
C2182 C 0.10466 0.57801 0.66755 0.0
C2183 C 0.08661 0.57867 0.66706 0.0
H2184 H 0.16976 0.41788 0.38448 0.0
H2185 H 0.15445 0.41802 0.43811 0.0
H2186 H 0.17228 0.3864 0.38538 0.0
H2187 H 0.15665 0.38658 0.43882 0.0
H2188 H 0.13742 0.33134 0.41972 0.0
H2189 H 0.13849 0.36282 0.42198 0.0
H2190 H 0.19053 0.36258 0.40221 0.0
H2191 H 0.18968 0.3311 0.40026 0.0
C2192 C 0.16711 0.41122 0.39648 0.0
C2193 C 0.1619 0.42042 0.41121 0.0
C2194 C 0.1686 0.39324 0.39701 0.0
C2195 C 0.16459 0.38414 0.41216 0.0
C2196 C 0.15974 0.39333 0.42698 0.0
C2197 C 0.15858 0.41132 0.42656 0.0
C2198 C 0.14917 0.33799 0.4161 0.0
C2199 C 0.16346 0.32876 0.40982 0.0
C2200 C 0.14979 0.35597 0.41744 0.0
C2201 C 0.16457 0.36505 0.4122 0.0
C2202 C 0.17897 0.35584 0.40625 0.0
C2203 C 0.17849 0.33784 0.40524 0.0
H2204 H 0.41789 0.61312 0.33067 0.0
H2205 H 0.41784 0.55958 0.34624 0.0
H2206 H 0.38643 0.61224 0.32788 0.0
H2207 H 0.38643 0.55889 0.34376 0.0
H2208 H 0.33131 0.57853 0.36299 0.0
H2209 H 0.36276 0.576 0.36187 0.0
H2210 H 0.36256 0.59529 0.30964 0.0
H2211 H 0.3311 0.5975 0.31056 0.0
C2212 C 0.4112 0.60114 0.3333 0.0
C2213 C 0.42033 0.58644 0.33869 0.0
C2214 C 0.39324 0.60062 0.33165 0.0
C2215 C 0.38409 0.58551 0.33568 0.0
C2216 C 0.39322 0.5707 0.34066 0.0
C2217 C 0.41119 0.57111 0.34198 0.0
C2218 C 0.33795 0.58196 0.35118 0.0
C2219 C 0.32875 0.5882 0.33687 0.0
C2220 C 0.35591 0.58048 0.35053 0.0
C2221 C 0.36501 0.58552 0.33569 0.0
C2222 C 0.35581 0.59139 0.32125 0.0
C2223 C 0.33782 0.59255 0.32177 0.0
H2224 H 0.16947 0.57987 0.11586 0.0
H2225 H 0.15544 0.5791 0.06189 0.0
H2226 H 0.17229 0.61133 0.11455 0.0
H2227 H 0.15791 0.61049 0.06079 0.0
H2228 H 0.13837 0.66603 0.07909 0.0
H2229 H 0.13928 0.6345 0.07737 0.0
H2230 H 0.19128 0.6348 0.09723 0.0
H2231 H 0.19059 0.66632 0.0986 0.0
C2232 C 0.16717 0.58638 0.10371 0.0
C2233 C 0.16223 0.57702 0.08899 0.0
C2234 C 0.16883 0.60434 0.10296 0.0
C2235 C 0.16524 0.61324 0.08758 0.0
C2236 C 0.16067 0.60388 0.07279 0.0
C2237 C 0.15936 0.58593 0.07344 0.0
C2238 C 0.15008 0.65938 0.08282 0.0
C2239 C 0.16441 0.66863 0.08895 0.0
C2240 C 0.15061 0.64138 0.08182 0.0
C2241 C 0.16533 0.63231 0.08724 0.0
C2242 C 0.17977 0.64154 0.09304 0.0
C2243 C 0.17939 0.65955 0.09371 0.0
H2244 H 0.16744 0.41999 0.86158 0.0
H2245 H 0.16664 0.39968 0.80967 0.0
H2246 H 0.13593 0.42191 0.86126 0.0
H2247 H 0.13511 0.40127 0.80957 0.0
H2248 H 0.08032 0.3836 0.83203 0.0
H2249 H 0.11176 0.38454 0.82885 0.0
H2250 H 0.11169 0.4383 0.84327 0.0
H2251 H 0.08032 0.43755 0.84613 0.0
C2252 C 0.16055 0.41612 0.85006 0.0
C2253 C 0.1695 0.40971 0.83565 0.0
C2254 C 0.14255 0.41725 0.84987 0.0
C2255 C 0.13316 0.41166 0.83541 0.0
C2256 C 0.14209 0.40557 0.82088 0.0
C2257 C 0.16011 0.40479 0.82092 0.0
C2258 C 0.087 0.39567 0.8343 0.0
C2259 C 0.07785 0.41049 0.83933 0.0
C2260 C 0.10495 0.39621 0.83242 0.0
C2261 C 0.11408 0.41149 0.83587 0.0
C2262 C 0.10493 0.42637 0.84061 0.0
C2263 C 0.08698 0.42592 0.84215 0.0
H2264 H 0.35029 0.41743 0.61577 0.0
H2265 H 0.32939 0.41923 0.56409 0.0
H2266 H 0.34998 0.386 0.61478 0.0
H2267 H 0.32899 0.38765 0.56323 0.0
H2268 H 0.31573 0.33023 0.57969 0.0
H2269 H 0.31448 0.36179 0.57901 0.0
H2270 H 0.36724 0.36425 0.59661 0.0
H2271 H 0.36863 0.33284 0.59719 0.0
C2272 C 0.34538 0.41114 0.60429 0.0
C2273 C 0.33991 0.42082 0.58998 0.0
C2274 C 0.34536 0.39314 0.60369 0.0
C2275 C 0.33965 0.38445 0.58885 0.0
C2276 C 0.33346 0.39407 0.57481 0.0
C2277 C 0.3337 0.41211 0.57532 0.0
C2278 C 0.32713 0.33751 0.58319 0.0
C2279 C 0.34227 0.32904 0.58854 0.0
C2280 C 0.3264 0.35555 0.58279 0.0
C2281 C 0.34069 0.3654 0.58797 0.0
C2282 C 0.35596 0.35693 0.59279 0.0
C2283 C 0.35678 0.33895 0.59297 0.0
H2284 H 0.44288 0.14999 0.41807 0.0
H2285 H 0.39126 0.17106 0.4183 0.0
H2286 H 0.44376 0.15252 0.38661 0.0
H2287 H 0.39233 0.17386 0.3869 0.0
H2288 H 0.40716 0.18949 0.33173 0.0
H2289 H 0.41025 0.19016 0.36309 0.0
H2290 H 0.42521 0.13654 0.36283 0.0
H2291 H 0.42186 0.13569 0.33144 0.0
C2292 C 0.43187 0.15548 0.41145 0.0
C2293 C 0.41698 0.1603 0.42063 0.0
C2294 C 0.43235 0.15682 0.39347 0.0
C2295 C 0.4181 0.16334 0.3844 0.0
C2296 C 0.40352 0.16889 0.39363 0.0
C2297 C 0.4029 0.16724 0.41157 0.0
C2298 C 0.41135 0.17789 0.33831 0.0
C2299 C 0.41421 0.1625 0.32913 0.0
C2300 C 0.41303 0.17829 0.35625 0.0
C2301 C 0.41792 0.1634 0.36531 0.0
C2302 C 0.42153 0.14822 0.3561 0.0
C2303 C 0.41955 0.14773 0.33817 0.0
H2304 H 0.00725 0.08445 0.30114 0.0
H2305 H 0.00588 0.13903 0.31235 0.0
H2306 H 0.98764 0.08901 0.27691 0.0
H2307 H 0.98588 0.14348 0.28875 0.0
H2308 H 0.95516 0.15016 0.24092 0.0
H2309 H 0.98025 0.14411 0.25891 0.0
H2310 H 0.95795 0.09508 0.27338 0.0
H2311 H 0.93332 0.10083 0.2549 0.0
C2312 C 0.00291 0.09743 0.29834 0.0
C2313 C 0.00805 0.11134 0.30878 0.0
C2314 C 0.99155 0.10004 0.28452 0.0
C2315 C 0.98499 0.1166 0.28091 0.0
C2316 C 0.99079 0.13059 0.29091 0.0
C2317 C 0.00221 0.128 0.3046 0.0
C2318 C 0.95577 0.13796 0.24772 0.0
C2319 C 0.94216 0.12605 0.24658 0.0
C2320 C 0.97011 0.13453 0.25814 0.0
C2321 C 0.97109 0.11919 0.26783 0.0
C2322 C 0.95782 0.10694 0.266 0.0
C2323 C 0.94359 0.11029 0.25545 0.0
H2324 H 0.15097 0.76097 0.54487 0.0
H2325 H 0.10221 0.74657 0.56771 0.0
H2326 H 0.14466 0.74281 0.51998 0.0
H2327 H 0.09622 0.72791 0.54327 0.0
H2328 H 0.08516 0.69953 0.49435 0.0
H2329 H 0.08968 0.72399 0.5137 0.0
H2330 H 0.14435 0.71296 0.51459 0.0
H2331 H 0.13992 0.68915 0.49486 0.0
C2332 C 0.13884 0.75404 0.54452 0.0
C2333 C 0.12718 0.7551 0.55836 0.0
C2334 C 0.13526 0.74352 0.53029 0.0
C2335 C 0.12002 0.73365 0.52964 0.0
C2336 C 0.10799 0.73542 0.54314 0.0
C2337 C 0.11149 0.74607 0.55726 0.0
C2338 C 0.09817 0.70256 0.49843 0.0
C2339 C 0.11215 0.69229 0.49314 0.0
C2340 C 0.10076 0.71651 0.50964 0.0
C2341 C 0.11738 0.72042 0.51589 0.0
C2342 C 0.13141 0.71058 0.50992 0.0
C2343 C 0.12884 0.69677 0.49865 0.0
H2344 H 0.56137 0.89273 0.74698 0.0
H2345 H 0.54637 0.83932 0.7416 0.0
H2346 H 0.53731 0.89767 0.76627 0.0
H2347 H 0.52163 0.84445 0.7604 0.0
H2348 H 0.49922 0.85385 0.81483 0.0
H2349 H 0.51759 0.84856 0.79012 0.0
H2350 H 0.50763 0.90024 0.7716 0.0
H2351 H 0.48978 0.90579 0.79694 0.0
C2352 C 0.55267 0.88211 0.74958 0.0
C2353 C 0.55595 0.86556 0.74292 0.0
C2354 C 0.53872 0.88498 0.7606 0.0
C2355 C 0.52752 0.87144 0.76509 0.0
C2356 C 0.53019 0.85511 0.75755 0.0
C2357 C 0.54431 0.85218 0.74666 0.0
C2358 C 0.50072 0.86404 0.80538 0.0
C2359 C 0.4932 0.88033 0.808 0.0
C2360 C 0.5112 0.86094 0.79106 0.0
C2361 C 0.51429 0.874 0.77885 0.0
C2362 C 0.50588 0.88998 0.78092 0.0
C2363 C 0.49553 0.89315 0.79539 0.0
H2364 H 0.41336 0.30706 0.00523 0.0
H2365 H 0.36195 0.30329 0.9842 0.0
H2366 H 0.40718 0.28328 0.02473 0.0
H2367 H 0.35597 0.27883 0.00298 0.0
H2368 H 0.34323 0.2545 0.0555 0.0
H2369 H 0.34975 0.27394 0.0318 0.0
H2370 H 0.40197 0.25428 0.03006 0.0
H2371 H 0.39558 0.23553 0.05447 0.0
C2372 C 0.40089 0.30079 0.00444 0.0
C2373 C 0.3881 0.30712 0.99329 0.0
C2374 C 0.39732 0.28706 0.0156 0.0
C2375 C 0.38095 0.27912 0.01566 0.0
C2376 C 0.36855 0.28485 0.00369 0.0
C2377 C 0.37202 0.29879 0.99279 0.0
C2378 C 0.35603 0.25415 0.04987 0.0
C2379 C 0.36892 0.24358 0.05694 0.0
C2380 C 0.35979 0.26527 0.03617 0.0
C2381 C 0.37649 0.26588 0.02897 0.0
C2382 C 0.3891 0.25454 0.03548 0.0
C2383 C 0.38541 0.24366 0.04939 0.0
H2384 H 0.00936 0.90726 0.20251 0.0
H2385 H 0.00081 0.85519 0.18461 0.0
H2386 H 0.99111 0.90158 0.22755 0.0
H2387 H 0.98204 0.84976 0.20899 0.0
H2388 H 0.95309 0.8402 0.25752 0.0
H2389 H 0.9777 0.84554 0.2386 0.0
H2390 H 0.96155 0.89864 0.23285 0.0
H2391 H 0.93764 0.89349 0.25226 0.0
C2392 C 0.00368 0.89458 0.20398 0.0
C2393 C 0.00644 0.88174 0.19148 0.0
C2394 C 0.99312 0.89133 0.21827 0.0
C2395 C 0.98487 0.87525 0.22028 0.0
C2396 C 0.98829 0.86222 0.20812 0.0
C2397 C 0.999 0.86539 0.19398 0.0
C2398 C 0.95502 0.85307 0.25245 0.0
C2399 C 0.94331 0.86636 0.2563 0.0
C2400 C 0.96906 0.85613 0.24149 0.0
C2401 C 0.97159 0.8725 0.23396 0.0
C2402 C 0.96027 0.88593 0.23851 0.0
C2403 C 0.9464 0.88293 0.24959 0.0
H2404 H 0.35949 0.69784 0.51687 0.0
H2405 H 0.41097 0.69488 0.49584 0.0
H2406 H 0.35311 0.72218 0.49804 0.0
H2407 H 0.40441 0.71853 0.47632 0.0
H2408 H 0.39205 0.76561 0.4461 0.0
H2409 H 0.39864 0.74741 0.47086 0.0
H2410 H 0.34686 0.72664 0.46909 0.0
H2411 H 0.34012 0.74555 0.445 0.0
C2412 C 0.3695 0.70251 0.5083 0.0
C2413 C 0.38571 0.69442 0.50777 0.0
C2414 C 0.3658 0.71637 0.49736 0.0
C2415 C 0.37811 0.72226 0.48537 0.0
C2416 C 0.39462 0.71461 0.48547 0.0
C2417 C 0.39841 0.70095 0.49665 0.0
C2418 C 0.382 0.75736 0.45125 0.0
C2419 C 0.36559 0.75694 0.44357 0.0
C2420 C 0.38581 0.7468 0.46536 0.0
C2421 C 0.3734 0.73528 0.47194 0.0
C2422 C 0.35674 0.73545 0.46465 0.0
C2423 C 0.35285 0.74626 0.45073 0.0
H2424 H 0.50293 0.14752 0.68376 0.0
H2425 H 0.49085 0.09735 0.70478 0.0
H2426 H 0.52175 0.15328 0.70808 0.0
H2427 H 0.50913 0.1034 0.72966 0.0
H2428 H 0.563 0.10932 0.75405 0.0
H2429 H 0.5389 0.10467 0.73478 0.0
H2430 H 0.52608 0.1589 0.73761 0.0
H2431 H 0.55088 0.16368 0.75644 0.0
C2432 C 0.50397 0.13786 0.6938 0.0
C2433 C 0.49555 0.12188 0.6922 0.0
C2434 C 0.51471 0.14122 0.70788 0.0
C2435 C 0.51716 0.12876 0.72085 0.0
C2436 C 0.50789 0.11316 0.71974 0.0
C2437 C 0.49731 0.10971 0.70553 0.0
C2438 C 0.55493 0.12025 0.75078 0.0
C2439 C 0.55902 0.13692 0.75665 0.0
C2440 C 0.54095 0.11755 0.73978 0.0
C2441 C 0.53052 0.13141 0.73446 0.0
C2442 C 0.53402 0.14796 0.74113 0.0
C2443 C 0.54817 0.1507 0.75204 0.0
H2444 H 0.10995 0.2443 0.93958 0.0
H2445 H 0.16445 0.24351 0.95124 0.0
H2446 H 0.10505 0.264 0.96333 0.0
H2447 H 0.15944 0.26283 0.97561 0.0
H2448 H 0.1466 0.3169 0.9979 0.0
H2449 H 0.15292 0.29245 0.97933 0.0
H2450 H 0.10412 0.2693 0.99323 0.0
H2451 H 0.0975 0.29418 0.01129 0.0
C2452 C 0.12087 0.24803 0.94747 0.0
C2453 C 0.13763 0.24244 0.94337 0.0
C2454 C 0.11802 0.25928 0.96124 0.0
C2455 C 0.13185 0.26516 0.97141 0.0
C2456 C 0.14852 0.25884 0.96787 0.0
C2457 C 0.15139 0.24765 0.95397 0.0
C2458 C 0.13731 0.30648 0.9972 0.0
C2459 C 0.12144 0.30761 0.00592 0.0
C2460 C 0.14099 0.29235 0.98661 0.0
C2461 C 0.12897 0.2789 0.98459 0.0
C2462 C 0.11353 0.27958 0.99415 0.0
C2463 C 0.10977 0.2938 0.00461 0.0
H2464 H 0.29565 0.00792 0.09558 0.0
H2465 H 0.31336 0.99959 0.14776 0.0
H2466 H 0.27079 0.98943 0.10114 0.0
H2467 H 0.28917 0.98055 0.15307 0.0
H2468 H 0.24126 0.95056 0.16228 0.0
H2469 H 0.25969 0.97557 0.15712 0.0
H2470 H 0.26594 0.95982 0.10395 0.0
H2471 H 0.24699 0.93553 0.10891 0.0
C2472 C 0.29417 0.00226 0.10827 0.0
C2473 C 0.30658 0.00512 0.12116 0.0
C2474 C 0.27998 0.99154 0.11144 0.0
C2475 C 0.278 0.98324 0.12751 0.0
C2476 C 0.29002 0.98682 0.14062 0.0
C2477 C 0.30405 0.99769 0.13751 0.0
C2478 C 0.24634 0.95266 0.14943 0.0
C2479 C 0.24275 0.94095 0.13606 0.0
C2480 C 0.25702 0.96693 0.14648 0.0
C2481 C 0.26454 0.9697 0.13015 0.0
C2482 C 0.26027 0.95837 0.11663 0.0
C2483 C 0.24945 0.94427 0.11953 0.0
H2484 H 0.29692 0.99103 0.409 0.0
H2485 H 0.31297 0.99625 0.35587 0.0
H2486 H 0.27236 0.00991 0.40336 0.0
H2487 H 0.28908 0.01562 0.35043 0.0
H2488 H 0.24153 0.0462 0.3414 0.0
H2489 H 0.25952 0.02103 0.34724 0.0
H2490 H 0.26835 0.03958 0.39912 0.0
H2491 H 0.24983 0.06411 0.39352 0.0
C2492 C 0.29513 0.99607 0.39609 0.0
C2493 C 0.307 0.99225 0.38294 0.0
C2494 C 0.28111 0.00701 0.39287 0.0
C2495 C 0.27878 0.01453 0.37648 0.0
C2496 C 0.29023 0.00997 0.36315 0.0
C2497 C 0.30408 0.9989 0.36632 0.0
C2498 C 0.24709 0.04471 0.35413 0.0
C2499 C 0.24436 0.05724 0.36693 0.0
C2500 C 0.25751 0.03033 0.35747 0.0
C2501 C 0.26561 0.02829 0.37362 0.0
C2502 C 0.2622 0.04049 0.38661 0.0
C2503 C 0.25164 0.0547 0.38334 0.0
H2504 H 0.20413 0.98998 0.5927 0.0
H2505 H 0.18823 0.99785 0.64554 0.0
H2506 H 0.22924 0.00832 0.59757 0.0
H2507 H 0.21268 0.01673 0.6502 0.0
H2508 H 0.26062 0.04687 0.65795 0.0
H2509 H 0.24233 0.0217 0.65316 0.0
H2510 H 0.23393 0.03802 0.60047 0.0
H2511 H 0.25275 0.06253 0.60504 0.0
C2512 C 0.20608 0.99548 0.60539 0.0
C2513 C 0.19408 0.99257 0.61866 0.0
C2514 C 0.22041 0.00612 0.60818 0.0
C2515 C 0.22294 0.01427 0.62423 0.0
C2516 C 0.21138 0.01057 0.63773 0.0
C2517 C 0.19721 0.99979 0.63501 0.0
C2518 C 0.25511 0.04487 0.64526 0.0
C2519 C 0.25803 0.0568 0.63193 0.0
C2520 C 0.24451 0.03049 0.64253 0.0
C2521 C 0.23641 0.02786 0.62647 0.0
C2522 C 0.24006 0.03939 0.61294 0.0
C2523 C 0.2508 0.0536 0.61561 0.0
H2524 H 0.24933 0.93261 0.89639 0.0
H2525 H 0.26066 0.95301 0.84578 0.0
H2526 H 0.23082 0.95715 0.90225 0.0
H2527 H 0.24268 0.97811 0.85192 0.0
H2528 H 0.18908 0.00298 0.85869 0.0
H2529 H 0.21295 0.98346 0.85374 0.0
H2530 H 0.22692 0.98681 0.90764 0.0
H2531 H 0.20239 0.0059 0.91274 0.0
C2532 C 0.24819 0.94255 0.88664 0.0
C2533 C 0.25631 0.94073 0.87052 0.0
C2534 C 0.23764 0.95676 0.89006 0.0
C2535 C 0.23507 0.96963 0.87752 0.0
C2536 C 0.24403 0.96828 0.86176 0.0
C2537 C 0.25444 0.95394 0.85826 0.0
C2538 C 0.19736 0.99977 0.86948 0.0
C2539 C 0.19367 0.00586 0.88617 0.0
C2540 C 0.2112 0.98863 0.8666 0.0
C2541 C 0.22188 0.98338 0.8803 0.0
C2542 C 0.21878 0.99027 0.89684 0.0
C2543 C 0.20478 0.00133 0.89975 0.0
H2544 H 0.60899 0.26439 0.0551 0.0
H2545 H 0.66081 0.24412 0.05692 0.0
H2546 H 0.60268 0.24623 0.03024 0.0
H2547 H 0.65432 0.22514 0.03284 0.0
H2548 H 0.64212 0.19601 0.98501 0.0
H2549 H 0.64862 0.22014 0.00408 0.0
H2550 H 0.59666 0.21775 0.0244 0.0
H2551 H 0.59002 0.19445 0.00458 0.0
C2552 C 0.61906 0.25608 0.0501 0.0
C2553 C 0.63536 0.25562 0.05798 0.0
C2554 C 0.61541 0.24552 0.03593 0.0
C2555 C 0.62786 0.23391 0.02955 0.0
C2556 C 0.64441 0.23402 0.03709 0.0
C2557 C 0.64816 0.24487 0.05102 0.0
C2558 C 0.63203 0.20091 0.99335 0.0
C2559 C 0.61558 0.19332 0.99334 0.0
C2560 C 0.63578 0.21465 0.00443 0.0
C2561 C 0.62328 0.22088 0.01607 0.0
C2562 C 0.60662 0.21362 0.01552 0.0
C2563 C 0.60278 0.20013 0.00418 0.0
H2564 H 0.99119 0.41138 0.29867 0.0
H2565 H 0.99693 0.35805 0.31386 0.0
H2566 H 0.00971 0.4062 0.27373 0.0
H2567 H 0.01589 0.35306 0.28951 0.0
H2568 H 0.04497 0.3447 0.24096 0.0
H2569 H 0.02023 0.35044 0.25955 0.0
H2570 H 0.03949 0.40191 0.2691 0.0
H2571 H 0.06367 0.39641 0.25002 0.0
C2572 C 0.99627 0.39852 0.29661 0.0
C2573 C 0.99269 0.38518 0.30835 0.0
C2574 C 0.00699 0.39557 0.28237 0.0
C2575 C 0.0145 0.37924 0.27963 0.0
C2576 C 0.01022 0.36574 0.29098 0.0
C2577 C 0.9994 0.36865 0.30509 0.0
C2578 C 0.04372 0.35735 0.24678 0.0
C2579 C 0.05639 0.37003 0.24412 0.0
C2580 C 0.02959 0.36061 0.25755 0.0
C2581 C 0.02791 0.37658 0.26607 0.0
C2582 C 0.04016 0.38954 0.26266 0.0
C2583 C 0.05416 0.38633 0.25177 0.0
H2584 H 0.83703 0.7539 0.55346 0.0
H2585 H 0.88852 0.73282 0.55114 0.0
H2586 H 0.84384 0.77331 0.52982 0.0
H2587 H 0.89514 0.7515 0.52675 0.0
H2588 H 0.8567 0.80372 0.48306 0.0
H2589 H 0.84986 0.77891 0.5011 0.0
H2590 H 0.90153 0.78028 0.52217 0.0
H2591 H 0.90853 0.80436 0.5034 0.0
C2592 C 0.84966 0.75306 0.54752 0.0
C2593 C 0.86229 0.74196 0.55425 0.0
C2594 C 0.85359 0.76417 0.53386 0.0
C2595 C 0.87017 0.76421 0.52637 0.0
C2596 C 0.88241 0.75223 0.53243 0.0
C2597 C 0.87857 0.74138 0.54632 0.0
C2598 C 0.86666 0.79847 0.49133 0.0
C2599 C 0.88312 0.80603 0.49187 0.0
C2600 C 0.86271 0.78432 0.50181 0.0
C2601 C 0.87502 0.77762 0.51337 0.0
C2602 C 0.89173 0.7848 0.51332 0.0
C2603 C 0.89576 0.79873 0.50259 0.0
H2604 H 0.99971 0.64617 0.18519 0.0
H2605 H 0.99188 0.59355 0.20181 0.0
H2606 H 0.01854 0.6512 0.20961 0.0
H2607 H 0.01023 0.5988 0.22685 0.0
H2608 H 0.06394 0.60713 0.25129 0.0
H2609 H 0.03996 0.60207 0.23189 0.0
H2610 H 0.02273 0.6546 0.23944 0.0
H2611 H 0.04734 0.65987 0.25835 0.0
C2612 C 0.00169 0.63576 0.19429 0.0
C2613 C 0.99443 0.61939 0.19141 0.0
C2614 C 0.01244 0.63869 0.20845 0.0
C2615 C 0.01608 0.62539 0.22024 0.0
C2616 C 0.00803 0.60926 0.21787 0.0
C2617 C 0.9974 0.60627 0.20357 0.0
C2618 C 0.05492 0.61756 0.24902 0.0
C2619 C 0.05769 0.63398 0.25623 0.0
C2620 C 0.04102 0.61461 0.23795 0.0
C2621 C 0.0294 0.62795 0.23391 0.0
C2622 C 0.03162 0.64411 0.24193 0.0
C2623 C 0.04566 0.64712 0.25289 0.0
H2624 H 0.45254 0.3405 0.75826 0.0
H2625 H 0.43612 0.3934 0.75203 0.0
H2626 H 0.47746 0.34613 0.73984 0.0
H2627 H 0.46042 0.39882 0.73314 0.0
H2628 H 0.50883 0.40808 0.70406 0.0
H2629 H 0.49024 0.40217 0.72877 0.0
H2630 H 0.48218 0.35022 0.71012 0.0
H2631 H 0.50125 0.3559 0.686 0.0
C2632 C 0.45432 0.35336 0.75309 0.0
C2633 C 0.44225 0.36644 0.75651 0.0
C2634 C 0.46855 0.35657 0.74242 0.0
C2635 C 0.47093 0.3729 0.73479 0.0
C2636 C 0.45924 0.38616 0.73891 0.0
C2637 C 0.44516 0.38299 0.74968 0.0
C2638 C 0.50332 0.39531 0.70544 0.0
C2639 C 0.50641 0.38252 0.69296 0.0
C2640 C 0.49256 0.39194 0.71955 0.0
C2641 C 0.48447 0.37576 0.7214 0.0
C2642 C 0.48828 0.36276 0.70933 0.0
C2643 C 0.49917 0.36607 0.69536 0.0
H2644 H 0.99208 0.91376 0.70123 0.0
H2645 H 0.99667 0.86011 0.68681 0.0
H2646 H 0.01101 0.90867 0.72589 0.0
H2647 H 0.01601 0.85519 0.71083 0.0
H2648 H 0.04615 0.84713 0.75872 0.0
H2649 H 0.02104 0.85298 0.74067 0.0
H2650 H 0.04084 0.90398 0.72981 0.0
H2651 H 0.06541 0.89839 0.74835 0.0
C2652 C 0.99697 0.90086 0.70341 0.0
C2653 C 0.99297 0.8874 0.69194 0.0
C2654 C 0.00793 0.89795 0.71748 0.0
C2655 C 0.01525 0.88155 0.72031 0.0
C2656 C 0.01051 0.86794 0.70928 0.0
C2657 C 0.99947 0.8708 0.69536 0.0
C2658 C 0.04496 0.85969 0.75271 0.0
C2659 C 0.05787 0.87222 0.75485 0.0
C2660 C 0.03061 0.86302 0.74226 0.0
C2661 C 0.02895 0.87889 0.73356 0.0
C2662 C 0.04149 0.89169 0.73642 0.0
C2663 C 0.05571 0.88843 0.747 0.0
H2664 H 0.89964 0.25004 0.43724 0.0
H2665 H 0.84794 0.24002 0.4555 0.0
H2666 H 0.90481 0.26867 0.46178 0.0
H2667 H 0.85338 0.25812 0.48067 0.0
H2668 H 0.86008 0.31202 0.50492 0.0
H2669 H 0.8555 0.28782 0.48576 0.0
H2670 H 0.90903 0.27313 0.49141 0.0
H2671 H 0.91379 0.29804 0.51009 0.0
C2672 C 0.88949 0.25147 0.44674 0.0
C2673 C 0.87328 0.24371 0.44427 0.0
C2674 C 0.89251 0.26211 0.46096 0.0
C2675 C 0.87948 0.26511 0.47323 0.0
C2676 C 0.86361 0.25645 0.47131 0.0
C2677 C 0.86051 0.24596 0.45693 0.0
C2678 C 0.87086 0.30352 0.5023 0.0
C2679 C 0.88737 0.30712 0.50888 0.0
C2680 C 0.86819 0.28948 0.49136 0.0
C2681 C 0.88191 0.27849 0.48685 0.0
C2682 C 0.89823 0.28151 0.49428 0.0
C2683 C 0.90095 0.29572 0.5051 0.0
H2684 H 0.45365 0.16042 0.2571 0.0
H2685 H 0.43898 0.10682 0.2528 0.0
H2686 H 0.47815 0.15516 0.238 0.0
H2687 H 0.46282 0.10174 0.23327 0.0
H2688 H 0.51046 0.09335 0.20273 0.0
H2689 H 0.49252 0.09928 0.22791 0.0
H2690 H 0.48207 0.15044 0.20827 0.0
H2691 H 0.50052 0.14477 0.18367 0.0
C2692 C 0.45574 0.14749 0.25222 0.0
C2693 C 0.44426 0.13409 0.25638 0.0
C2694 C 0.46972 0.14448 0.24116 0.0
C2695 C 0.47243 0.12805 0.23387 0.0
C2696 C 0.46138 0.11451 0.23874 0.0
C2697 C 0.44755 0.11747 0.2499 0.0
C2698 C 0.50457 0.10596 0.20398 0.0
C2699 C 0.50681 0.11852 0.1911 0.0
C2700 C 0.49417 0.10934 0.21836 0.0
C2701 C 0.48561 0.12529 0.2201 0.0
C2702 C 0.48857 0.13809 0.20759 0.0
C2703 C 0.49909 0.13479 0.19334 0.0
H2704 H 0.58993 0.69466 0.9959 0.0
H2705 H 0.64184 0.69711 0.0159 0.0
H2706 H 0.59628 0.71837 0.97638 0.0
H2707 H 0.64802 0.72148 0.99706 0.0
H2708 H 0.6601 0.74563 0.9442 0.0
H2709 H 0.65367 0.72624 0.96799 0.0
H2710 H 0.60211 0.74735 0.97125 0.0
H2711 H 0.60836 0.76608 0.9468 0.0
C2712 C 0.60256 0.70061 0.99647 0.0
C2713 C 0.61542 0.69393 0.00733 0.0
C2714 C 0.60623 0.71431 0.9853 0.0
C2715 C 0.62278 0.72185 0.98492 0.0
C2716 C 0.63529 0.71577 0.9966 0.0
C2717 C 0.6317 0.70188 0.00754 0.0
C2718 C 0.64748 0.7463 0.95018 0.0
C2719 C 0.6347 0.75728 0.94353 0.0
C2720 C 0.64378 0.73521 0.96393 0.0
C2721 C 0.62727 0.73503 0.97157 0.0
C2722 C 0.61481 0.74676 0.96548 0.0
C2723 C 0.61844 0.75763 0.95154 0.0
H2724 H 0.04906 0.16203 0.74157 0.0
H2725 H 0.06324 0.10837 0.74667 0.0
H2726 H 0.02427 0.15721 0.76039 0.0
H2727 H 0.03914 0.10372 0.76599 0.0
H2728 H 0.99153 0.09618 0.79668 0.0
H2729 H 0.00949 0.10155 0.77138 0.0
H2730 H 0.02013 0.15304 0.79006 0.0
H2731 H 0.00164 0.14793 0.81473 0.0
C2732 C 0.0468 0.14918 0.74658 0.0
C2733 C 0.05822 0.13564 0.74274 0.0
C2734 C 0.03266 0.14642 0.75748 0.0
C2735 C 0.02975 0.1301 0.76495 0.0
C2736 C 0.04074 0.11641 0.76037 0.0
C2737 C 0.05471 0.11912 0.74934 0.0
C2738 C 0.99746 0.10874 0.79518 0.0
C2739 C 0.99528 0.12155 0.80781 0.0
C2740 C 0.00787 0.1118 0.78073 0.0
C2741 C 0.0165 0.12767 0.7787 0.0
C2742 C 0.01358 0.14074 0.79096 0.0
C2743 C 0.00303 0.13775 0.80525 0.0
H2744 H 0.58889 0.30873 0.50536 0.0
H2745 H 0.64003 0.30459 0.48372 0.0
H2746 H 0.59487 0.28447 0.5243 0.0
H2747 H 0.64579 0.27963 0.50191 0.0
H2748 H 0.65867 0.25455 0.55402 0.0
H2749 H 0.65221 0.27424 0.53055 0.0
H2750 H 0.59971 0.25534 0.52916 0.0
H2751 H 0.60605 0.23633 0.55339 0.0
C2752 C 0.60125 0.30229 0.50431 0.0
C2753 C 0.61404 0.30865 0.49319 0.0
C2754 C 0.6047 0.28827 0.51514 0.0
C2755 C 0.62093 0.28008 0.51487 0.0
C2756 C 0.63332 0.28584 0.50289 0.0
C2757 C 0.62998 0.30007 0.49232 0.0
C2758 C 0.64582 0.25441 0.54851 0.0
C2759 C 0.63284 0.24399 0.55564 0.0
C2760 C 0.6421 0.26568 0.53494 0.0
C2761 C 0.62534 0.26659 0.52793 0.0
C2762 C 0.61263 0.25537 0.53445 0.0
C2763 C 0.61629 0.24434 0.54826 0.0
H2764 H 0.50777 0.91517 0.29965 0.0
H2765 H 0.50534 0.86083 0.31183 0.0
H2766 H 0.48867 0.91044 0.27505 0.0
H2767 H 0.48581 0.85623 0.28789 0.0
H2768 H 0.45553 0.84897 0.24003 0.0
H2769 H 0.48055 0.85503 0.25811 0.0
H2770 H 0.45905 0.90487 0.27097 0.0
H2771 H 0.43455 0.89911 0.25235 0.0
C2772 C 0.50331 0.9022 0.29699 0.0
C2773 C 0.50799 0.88841 0.3078 0.0
C2774 C 0.49224 0.89949 0.28296 0.0
C2775 C 0.48549 0.88297 0.27952 0.0
C2776 C 0.49087 0.86909 0.2899 0.0
C2777 C 0.50202 0.87176 0.30378 0.0
C2778 C 0.45633 0.86134 0.24649 0.0
C2779 C 0.44297 0.87349 0.24487 0.0
C2780 C 0.47062 0.86478 0.25696 0.0
C2781 C 0.47178 0.88036 0.26625 0.0
C2782 C 0.45879 0.89282 0.26392 0.0
C2783 C 0.44462 0.88946 0.25329 0.0
H2784 H 0.84103 0.75855 0.04735 0.0
H2785 H 0.89358 0.75096 0.06429 0.0
H2786 H 0.84662 0.74051 0.02215 0.0
H2787 H 0.89895 0.73243 0.0397 0.0
H2788 H 0.90822 0.70402 0.99085 0.0
H2789 H 0.90261 0.72852 0.00983 0.0
H2790 H 0.85017 0.71086 0.01693 0.0
H2791 H 0.85556 0.68701 0.99749 0.0
C2792 C 0.8538 0.75315 0.04563 0.0
C2793 C 0.86679 0.75608 0.05792 0.0
C2794 C 0.857 0.7427 0.03124 0.0
C2795 C 0.87321 0.73481 0.02891 0.0
C2796 C 0.88639 0.73842 0.04084 0.0
C2797 C 0.88325 0.74899 0.05509 0.0
C2798 C 0.89541 0.70559 0.99622 0.0
C2799 C 0.8824 0.69346 0.99277 0.0
C2800 C 0.89221 0.71957 0.00721 0.0
C2801 C 0.87598 0.72163 0.01514 0.0
C2802 C 0.86276 0.70992 0.01096 0.0
C2803 C 0.86591 0.69609 0.99986 0.0
H2804 H 0.76504 0.05446 0.89541 0.0
H2805 H 0.74713 0.05417 0.84268 0.0
H2806 H 0.74638 0.03002 0.90196 0.0
H2807 H 0.72778 0.03044 0.84933 0.0
H2808 H 0.69814 0.98322 0.8621 0.0
H2809 H 0.72281 0.00176 0.85618 0.0
H2810 H 0.71725 0.02489 0.90668 0.0
H2811 H 0.69326 0.00564 0.91283 0.0
C2812 C 0.75718 0.04907 0.88519 0.0
C2813 C 0.7575 0.05627 0.86855 0.0
C2814 C 0.74634 0.03515 0.88897 0.0
C2815 C 0.7353 0.02829 0.87628 0.0
C2816 C 0.73621 0.0351 0.85944 0.0
C2817 C 0.74729 0.04881 0.85559 0.0
C2818 C 0.70244 0.99206 0.87203 0.0
C2819 C 0.69373 0.99304 0.8879 0.0
C2820 C 0.7165 0.00282 0.8686 0.0
C2821 C 0.72198 0.0151 0.88081 0.0
C2822 C 0.71366 0.0155 0.89699 0.0
C2823 C 0.69981 0.00449 0.90054 0.0
H2824 H 0.76688 0.9475 0.61196 0.0
H2825 H 0.74459 0.94308 0.6628 0.0
H2826 H 0.74841 0.97219 0.60592 0.0
H2827 H 0.72539 0.96708 0.65653 0.0
H2828 H 0.69539 0.0144 0.64475 0.0
H2829 H 0.72009 0.99613 0.65145 0.0
H2830 H 0.71965 0.97675 0.59909 0.0
H2831 H 0.69566 0.99572 0.59228 0.0
C2832 C 0.7581 0.95193 0.6219 0.0
C2833 C 0.7571 0.94332 0.63782 0.0
C2834 C 0.74738 0.96599 0.61839 0.0
C2835 C 0.73512 0.97156 0.63059 0.0
C2836 C 0.73476 0.9634 0.64684 0.0
C2837 C 0.74574 0.94955 0.65046 0.0
C2838 C 0.70083 0.00646 0.63461 0.0
C2839 C 0.69355 0.00642 0.61801 0.0
C2840 C 0.71491 0.99586 0.63848 0.0
C2841 C 0.72182 0.98471 0.62592 0.0
C2842 C 0.71494 0.98529 0.60909 0.0
C2843 C 0.70108 0.99613 0.60516 0.0
H2844 H 0.74262 0.95368 0.33992 0.0
H2845 H 0.74838 0.93821 0.39317 0.0
H2846 H 0.76135 0.97844 0.34517 0.0
H2847 H 0.76757 0.96231 0.39822 0.0
H2848 H 0.79761 0.01016 0.40671 0.0
H2849 H 0.77251 0.99204 0.40104 0.0
H2850 H 0.79108 0.98276 0.34925 0.0
H2851 H 0.81557 0.00141 0.35467 0.0
C2852 C 0.74775 0.95564 0.35277 0.0
C2853 C 0.74412 0.94387 0.36607 0.0
C2854 C 0.75859 0.96978 0.35577 0.0
C2855 C 0.76619 0.97235 0.37209 0.0
C2856 C 0.76184 0.96099 0.38555 0.0
C2857 C 0.75089 0.94701 0.38261 0.0
C2858 C 0.79613 0.00449 0.39402 0.0
C2859 C 0.80868 0.00711 0.38121 0.0
C2860 C 0.7818 0.994 0.39079 0.0
C2861 C 0.77981 0.98569 0.37474 0.0
C2862 C 0.79196 0.98905 0.36169 0.0
C2863 C 0.80615 0.99969 0.36485 0.0
H2864 H 0.73831 0.05675 0.10521 0.0
H2865 H 0.75577 0.05409 0.15801 0.0
H2866 H 0.75637 0.03206 0.09793 0.0
H2867 H 0.77468 0.03027 0.15066 0.0
H2868 H 0.80378 0.98317 0.13686 0.0
H2869 H 0.7795 0.00207 0.14327 0.0
H2870 H 0.78479 0.02552 0.09286 0.0
H2871 H 0.80818 0.00577 0.08619 0.0
C2872 C 0.746 0.05082 0.11527 0.0
C2873 C 0.74567 0.05736 0.13216 0.0
C2874 C 0.7565 0.03675 0.11108 0.0
C2875 C 0.76728 0.02914 0.1236 0.0
C2876 C 0.76644 0.03543 0.14065 0.0
C2877 C 0.75563 0.04923 0.1449 0.0
C2878 C 0.79945 0.99215 0.12706 0.0
C2879 C 0.80788 0.99305 0.11106 0.0
C2880 C 0.78564 0.00315 0.13078 0.0
C2881 C 0.78022 0.01567 0.11875 0.0
C2882 C 0.78828 0.01599 0.10244 0.0
C2883 C 0.80181 0.00468 0.09859 0.0
H2884 H 0.33886 0.75399 0.94453 0.0
H2885 H 0.39075 0.73395 0.947 0.0
H2886 H 0.34529 0.77377 0.96794 0.0
H2887 H 0.39702 0.75301 0.9712 0.0
H2888 H 0.40929 0.80569 0.99547 0.0
H2889 H 0.40287 0.78176 0.97626 0.0
H2890 H 0.35091 0.7795 0.99657 0.0
H2891 H 0.35717 0.80419 0.01499 0.0
C2892 C 0.35152 0.75347 0.95044 0.0
C2893 C 0.36433 0.7425 0.94384 0.0
C2894 C 0.35523 0.7648 0.96398 0.0
C2895 C 0.37178 0.76522 0.97151 0.0
C2896 C 0.38427 0.75346 0.96551 0.0
C2897 C 0.38065 0.74238 0.95172 0.0
C2898 C 0.39658 0.7999 0.99599 0.0
C2899 C 0.38369 0.8069 0.00662 0.0
C2900 C 0.39287 0.78607 0.98501 0.0
C2901 C 0.37626 0.77865 0.98463 0.0
C2902 C 0.3637 0.78509 0.99608 0.0
C2903 C 0.36731 0.79916 0.00679 0.0
H2904 H 0.94956 0.66306 0.7571 0.0
H2905 H 0.9354 0.60939 0.75212 0.0
H2906 H 0.97465 0.65806 0.73872 0.0
H2907 H 0.95982 0.60457 0.73326 0.0
H2908 H 0.00822 0.59656 0.70397 0.0
H2909 H 0.98958 0.60227 0.72869 0.0
H2910 H 0.9796 0.65357 0.70917 0.0
H2911 H 0.99877 0.64813 0.68507 0.0
C2912 C 0.95188 0.65018 0.75222 0.0
C2913 C 0.94038 0.63668 0.75597 0.0
C2914 C 0.9662 0.64732 0.74157 0.0
C2915 C 0.96924 0.63093 0.73428 0.0
C2916 C 0.95814 0.6173 0.73875 0.0
C2917 C 0.94398 0.62011 0.74952 0.0
C2918 C 0.00228 0.60915 0.70516 0.0
C2919 C 0.00487 0.62182 0.69246 0.0
C2920 C 0.99148 0.61241 0.71928 0.0
C2921 C 0.98284 0.62832 0.72089 0.0
C2922 C 0.98614 0.64124 0.70858 0.0
C2923 C 0.99709 0.63806 0.69461 0.0
H2924 H 0.14309 0.19729 0.51626 0.0
H2925 H 0.09126 0.19484 0.49604 0.0
H2926 H 0.14937 0.22163 0.49739 0.0
H2927 H 0.0977 0.21853 0.47654 0.0
H2928 H 0.10971 0.26589 0.4468 0.0
H2929 H 0.10359 0.24756 0.47157 0.0
H2930 H 0.15504 0.22619 0.4682 0.0
H2931 H 0.16134 0.2452 0.44404 0.0
C2932 C 0.13299 0.20205 0.50785 0.0
C2933 C 0.1167 0.19411 0.50757 0.0
C2934 C 0.13663 0.21593 0.49691 0.0
C2935 C 0.12416 0.222 0.48519 0.0
C2936 C 0.10761 0.21447 0.4855 0.0
C2937 C 0.10389 0.20078 0.49665 0.0
C2938 C 0.1198 0.25749 0.45159 0.0
C2939 C 0.13597 0.25691 0.44343 0.0
C2940 C 0.11626 0.24686 0.46572 0.0
C2941 C 0.1287 0.23512 0.47183 0.0
C2942 C 0.14516 0.23516 0.46409 0.0
C2943 C 0.14879 0.24603 0.45015 0.0
H2944 H 0.9356 0.39288 0.74869 0.0
H2945 H 0.95214 0.34005 0.74221 0.0
H2946 H 0.95986 0.39829 0.76758 0.0
H2947 H 0.97709 0.34569 0.76057 0.0
H2948 H 0.00079 0.35494 0.81435 0.0
H2949 H 0.9819 0.34948 0.79011 0.0
H2950 H 0.98948 0.40182 0.77235 0.0
H2951 H 0.00786 0.40753 0.79728 0.0
C2952 C 0.94466 0.38249 0.75097 0.0
C2953 C 0.94179 0.36596 0.7441 0.0
C2954 C 0.95874 0.38565 0.76175 0.0
C2955 C 0.97047 0.37241 0.76579 0.0
C2956 C 0.96814 0.35611 0.75808 0.0
C2957 C 0.95389 0.35289 0.74745 0.0
C2958 C 0.99865 0.36526 0.80517 0.0
C2959 C 0.00568 0.38175 0.80789 0.0
C2960 C 0.98786 0.36207 0.79111 0.0
C2961 C 0.98396 0.37523 0.77925 0.0
C2962 C 0.99186 0.39146 0.78141 0.0
C2963 C 0.00251 0.39472 0.79564 0.0
H2964 H 0.54559 0.6556 0.24093 0.0
H2965 H 0.56385 0.60364 0.2495 0.0
H2966 H 0.52073 0.64985 0.25936 0.0
H2967 H 0.53958 0.59814 0.26843 0.0
H2968 H 0.49139 0.58871 0.29808 0.0
H2969 H 0.50991 0.59396 0.27315 0.0
H2970 H 0.51618 0.64703 0.28917 0.0
H2971 H 0.4972 0.64197 0.31347 0.0
C2972 C 0.54422 0.64291 0.2466 0.0
C2973 C 0.5568 0.63015 0.24386 0.0
C2974 C 0.53002 0.63963 0.25729 0.0
C2975 C 0.52819 0.62358 0.26563 0.0
C2976 C 0.54036 0.61057 0.26213 0.0
C2977 C 0.55441 0.61379 0.25132 0.0
C2978 C 0.49649 0.60156 0.29607 0.0
C2979 C 0.49292 0.61487 0.30786 0.0
C2980 C 0.50721 0.60457 0.28183 0.0
C2981 C 0.51475 0.62089 0.27916 0.0
C2982 C 0.51048 0.63435 0.29057 0.0
C2983 C 0.49965 0.6314 0.30466 0.0
H2984 H 0.50111 0.64261 0.81489 0.0
H2985 H 0.50799 0.58981 0.79841 0.0
H2986 H 0.4825 0.64797 0.79042 0.0
H2987 H 0.48995 0.59542 0.77321 0.0
H2988 H 0.43662 0.60447 0.74854 0.0
H2989 H 0.46061 0.59906 0.76775 0.0
H2990 H 0.47796 0.65165 0.76092 0.0
H2991 H 0.45323 0.6573 0.74226 0.0
C2992 C 0.49898 0.63222 0.80579 0.0
C2993 C 0.50588 0.6157 0.80874 0.0
C2994 C 0.48836 0.63535 0.79159 0.0
C2995 C 0.48453 0.62212 0.77979 0.0
C2996 C 0.49227 0.60584 0.78221 0.0
C2997 C 0.50273 0.60263 0.7966 0.0
C2998 C 0.44566 0.61486 0.75092 0.0
C2999 C 0.44286 0.6314 0.74403 0.0
C3000 C 0.45958 0.61169 0.76189 0.0
C3001 C 0.47125 0.62493 0.7661 0.0
C3002 C 0.46904 0.64122 0.75832 0.0
C3003 C 0.45493 0.64446 0.74751 0.0
H3004 H 0.9077 0.19605 0.99634 0.0
H3005 H 0.85504 0.1946 0.01434 0.0
H3006 H 0.90065 0.21993 0.97735 0.0
H3007 H 0.84807 0.21928 0.99616 0.0
H3008 H 0.83637 0.24504 0.94404 0.0
H3009 H 0.84295 0.22537 0.96753 0.0
H3010 H 0.8936 0.24834 0.97246 0.0
H3011 H 0.88725 0.26722 0.94815 0.0
C3012 C 0.89471 0.2012 0.9966 0.0
C3013 C 0.8819 0.19337 0.00673 0.0
C3014 C 0.89063 0.21501 0.98574 0.0
C3015 C 0.87369 0.2216 0.98499 0.0
C3016 C 0.86114 0.21435 0.99596 0.0
C3017 C 0.86515 0.20028 0.00654 0.0
C3018 C 0.8488 0.24605 0.95034 0.0
C3019 C 0.86134 0.25756 0.94417 0.0
C3020 C 0.8526 0.2348 0.96393 0.0
C3021 C 0.86894 0.23502 0.97193 0.0
C3022 C 0.88107 0.24736 0.96638 0.0
C3023 C 0.87739 0.25834 0.95254 0.0
H3024 H 0.6584 0.75478 0.44563 0.0
H3025 H 0.60575 0.7367 0.44446 0.0
H3026 H 0.65152 0.77342 0.46986 0.0
H3027 H 0.59897 0.75461 0.46939 0.0
H3028 H 0.58777 0.80706 0.49505 0.0
H3029 H 0.5941 0.78355 0.4753 0.0
H3030 H 0.64446 0.77755 0.49863 0.0
H3031 H 0.63836 0.80178 0.51769 0.0
C3032 C 0.64546 0.75444 0.45089 0.0
C3033 C 0.63259 0.7444 0.44305 0.0
C3034 C 0.64148 0.76509 0.46489 0.0
C3035 C 0.62459 0.76573 0.47161 0.0
C3036 C 0.612 0.75485 0.46435 0.0
C3037 C 0.61591 0.74444 0.45014 0.0
C3038 C 0.60007 0.80051 0.49614 0.0
C3039 C 0.61263 0.80636 0.5078 0.0
C3040 C 0.60372 0.78692 0.48484 0.0
C3041 C 0.61992 0.77865 0.48514 0.0
C3042 C 0.63203 0.78385 0.49764 0.0
C3043 C 0.62849 0.79765 0.5087 0.0
H3044 H 0.7417 0.45168 0.66095 0.0
H3045 H 0.74655 0.43736 0.6073 0.0
H3046 H 0.76051 0.47645 0.65595 0.0
H3047 H 0.76587 0.4614 0.60249 0.0
H3048 H 0.79594 0.50939 0.59445 0.0
H3049 H 0.77105 0.49095 0.60003 0.0
H3050 H 0.78999 0.4812 0.6516 0.0
H3051 H 0.81422 0.50021 0.64629 0.0
C3052 C 0.74666 0.45389 0.64807 0.0
C3053 C 0.74271 0.44246 0.63458 0.0
C3054 C 0.75757 0.46802 0.64521 0.0
C3055 C 0.76494 0.47091 0.62884 0.0
C3056 C 0.76032 0.45985 0.61521 0.0
C3057 C 0.74929 0.4459 0.61802 0.0
C3058 C 0.79459 0.50353 0.60707 0.0
C3059 C 0.80714 0.50617 0.61986 0.0
C3060 C 0.78038 0.49284 0.61025 0.0
C3061 C 0.77853 0.48433 0.62622 0.0
C3062 C 0.79074 0.48764 0.63923 0.0
C3063 C 0.80478 0.4985 0.63613 0.0
H3064 H 0.81236 0.49928 0.85627 0.0
H3065 H 0.79625 0.49319 0.90929 0.0
H3066 H 0.78818 0.51835 0.851 0.0
H3067 H 0.77143 0.51179 0.90382 0.0
H3068 H 0.74725 0.56536 0.89422 0.0
H3069 H 0.76657 0.54141 0.89973 0.0
H3070 H 0.75842 0.52284 0.84776 0.0
H3071 H 0.73959 0.54741 0.84201 0.0
C3072 C 0.80342 0.5017 0.86674 0.0
C3073 C 0.80638 0.49484 0.88327 0.0
C3074 C 0.7894 0.51259 0.86366 0.0
C3075 C 0.77781 0.51678 0.87699 0.0
C3076 C 0.78026 0.50916 0.89331 0.0
C3077 C 0.79443 0.49839 0.89644 0.0
C3078 C 0.74938 0.55606 0.884 0.0
C3079 C 0.74201 0.55844 0.86759 0.0
C3080 C 0.76041 0.54219 0.88722 0.0
C3081 C 0.76425 0.53017 0.87417 0.0
C3082 C 0.75609 0.53202 0.85802 0.0
C3083 C 0.74518 0.54605 0.85474 0.0
H3084 H 0.69713 0.48329 0.13962 0.0
H3085 H 0.69433 0.50439 0.08818 0.0
H3086 H 0.72146 0.50209 0.14609 0.0
H3087 H 0.71785 0.52397 0.09485 0.0
H3088 H 0.76428 0.55491 0.10732 0.0
H3089 H 0.74637 0.53 0.10055 0.0
H3090 H 0.72616 0.5307 0.15261 0.0
H3091 H 0.7449 0.55484 0.15952 0.0
C3092 C 0.70183 0.49189 0.12966 0.0
C3093 C 0.69381 0.49243 0.11342 0.0
C3094 C 0.71568 0.50282 0.1334 0.0
C3095 C 0.72158 0.51487 0.12114 0.0
C3096 C 0.71397 0.51478 0.10461 0.0
C3097 C 0.70037 0.50358 0.10076 0.0
C3098 C 0.75622 0.54948 0.11737 0.0
C3099 C 0.75592 0.55685 0.13392 0.0
C3100 C 0.74581 0.53528 0.11347 0.0
C3101 C 0.73452 0.52835 0.12591 0.0
C3102 C 0.7348 0.53538 0.14269 0.0
C3103 C 0.7455 0.54934 0.14668 0.0
H3104 H 0.75744 0.4502 0.33768 0.0
H3105 H 0.75306 0.43739 0.39176 0.0
H3106 H 0.73906 0.47538 0.34225 0.0
H3107 H 0.7342 0.46187 0.39617 0.0
H3108 H 0.70509 0.51046 0.40338 0.0
H3109 H 0.72972 0.49168 0.39781 0.0
H3110 H 0.7096 0.48057 0.34697 0.0
H3111 H 0.68559 0.49988 0.35225 0.0
C3112 C 0.75267 0.45282 0.35056 0.0
C3113 C 0.75662 0.44169 0.36431 0.0
C3114 C 0.74203 0.4672 0.35317 0.0
C3115 C 0.73494 0.47065 0.36956 0.0
C3116 C 0.73955 0.45989 0.38342 0.0
C3117 C 0.75031 0.44568 0.38085 0.0
C3118 C 0.70613 0.50425 0.39091 0.0
C3119 C 0.69329 0.50656 0.37834 0.0
C3120 C 0.7202 0.49336 0.38773 0.0
C3121 C 0.72161 0.48435 0.372 0.0
C3122 C 0.70916 0.48739 0.35915 0.0
C3123 C 0.69526 0.49842 0.36224 0.0
H3124 H 0.54556 0.34597 0.25947 0.0
H3125 H 0.5656 0.39686 0.24875 0.0
H3126 H 0.52053 0.35207 0.24139 0.0
H3127 H 0.5411 0.4027 0.23019 0.0
H3128 H 0.49237 0.41313 0.20182 0.0
H3129 H 0.51129 0.40782 0.22644 0.0
H3130 H 0.51546 0.35423 0.21152 0.0
H3131 H 0.49613 0.35937 0.18753 0.0
C3132 C 0.54457 0.3585 0.25336 0.0
C3133 C 0.55766 0.37086 0.25542 0.0
C3134 C 0.53026 0.36198 0.24291 0.0
C3135 C 0.52883 0.37782 0.23412 0.0
C3136 C 0.54157 0.39044 0.23687 0.0
C3137 C 0.55575 0.38704 0.24745 0.0
C3138 C 0.49708 0.40015 0.20402 0.0
C3139 C 0.49286 0.38672 0.1926 0.0
C3140 C 0.50803 0.39712 0.21807 0.0
C3141 C 0.51512 0.38063 0.22091 0.0
C3142 C 0.51015 0.36706 0.20995 0.0
C3143 C 0.49911 0.37005 0.19604 0.0
H3144 H 0.16205 0.7531 0.05546 0.0
H3145 H 0.11038 0.73257 0.05246 0.0
H3146 H 0.15569 0.77272 0.03185 0.0
H3147 H 0.1042 0.7515 0.02814 0.0
H3148 H 0.0917 0.80429 0.00413 0.0
H3149 H 0.0982 0.7804 0.02335 0.0
H3150 H 0.15012 0.77817 0.00296 0.0
H3151 H 0.14377 0.80277 0.98445 0.0
C3152 C 0.14947 0.75244 0.0494 0.0
C3153 C 0.13668 0.74139 0.0559 0.0
C3154 C 0.1458 0.76367 0.03576 0.0
C3155 C 0.12932 0.76392 0.02807 0.0
C3156 C 0.11688 0.75207 0.03396 0.0
C3157 C 0.12046 0.74107 0.04782 0.0
C3158 C 0.10442 0.79851 0.00357 0.0
C3159 C 0.11725 0.80549 0.99288 0.0
C3160 C 0.10817 0.7847 0.01457 0.0
C3161 C 0.12479 0.77732 0.01493 0.0
C3162 C 0.13732 0.78373 0.00344 0.0
C3163 C 0.13364 0.79775 0.99268 0.0
H3164 H 0.36293 0.19654 0.48291 0.0
H3165 H 0.41364 0.19172 0.50538 0.0
H3166 H 0.35688 0.22106 0.5016 0.0
H3167 H 0.40736 0.21556 0.52478 0.0
H3168 H 0.39585 0.26328 0.55446 0.0
H3169 H 0.40253 0.24465 0.53003 0.0
H3170 H 0.34997 0.22585 0.53032 0.0
H3171 H 0.3432 0.24517 0.55405 0.0
C3172 C 0.37283 0.20082 0.49179 0.0
C3173 C 0.38873 0.19218 0.49274 0.0
C3174 C 0.36932 0.2148 0.50265 0.0
C3175 C 0.38149 0.22024 0.51498 0.0
C3176 C 0.3977 0.21199 0.51535 0.0
C3177 C 0.40132 0.19823 0.50426 0.0
C3178 C 0.38567 0.25537 0.54905 0.0
C3179 C 0.36902 0.25564 0.5562 0.0
C3180 C 0.38952 0.24456 0.53513 0.0
C3181 C 0.37689 0.23348 0.52823 0.0
C3182 C 0.36004 0.23431 0.53501 0.0
C3183 C 0.35612 0.24537 0.54872 0.0
H3184 H 0.18688 0.49757 0.35517 0.0
H3185 H 0.20409 0.49008 0.40765 0.0
H3186 H 0.21104 0.5166 0.34981 0.0
H3187 H 0.22896 0.50857 0.40204 0.0
H3188 H 0.25253 0.56251 0.39367 0.0
H3189 H 0.23371 0.53815 0.39884 0.0
H3190 H 0.24049 0.52168 0.34595 0.0
H3191 H 0.25877 0.54675 0.34057 0.0
C3192 C 0.19608 0.49965 0.36548 0.0
C3193 C 0.19341 0.49247 0.38192 0.0
C3194 C 0.21009 0.51051 0.36235 0.0
C3195 C 0.22198 0.51434 0.37551 0.0
C3196 C 0.21988 0.50627 0.39168 0.0
C3197 C 0.20569 0.49555 0.39489 0.0
C3198 C 0.25021 0.55359 0.38317 0.0
C3199 C 0.257 0.55672 0.36663 0.0
C3200 C 0.23947 0.53946 0.38618 0.0
C3201 C 0.23538 0.52791 0.3728 0.0
C3202 C 0.24301 0.53049 0.35649 0.0
C3203 C 0.25361 0.5448 0.35341 0.0
H3204 H 0.20293 0.50677 0.09351 0.0
H3205 H 0.18487 0.49914 0.14569 0.0
H3206 H 0.22762 0.48815 0.09939 0.0
H3207 H 0.20895 0.48001 0.15134 0.0
H3208 H 0.25726 0.45048 0.16101 0.0
H3209 H 0.23864 0.47528 0.15546 0.0
H3210 H 0.23209 0.45838 0.1027 0.0
H3211 H 0.25117 0.43423 0.10803 0.0
C3212 C 0.2043 0.50124 0.10627 0.0
C3213 C 0.19184 0.50433 0.11907 0.0
C3214 C 0.21839 0.49045 0.10963 0.0
C3215 C 0.22024 0.48234 0.1258 0.0
C3216 C 0.20817 0.48613 0.13881 0.0
C3217 C 0.19422 0.49705 0.13551 0.0
C3218 C 0.25207 0.45226 0.14816 0.0
C3219 C 0.25561 0.44029 0.13502 0.0
C3220 C 0.24128 0.46642 0.14499 0.0
C3221 C 0.23366 0.46882 0.12866 0.0
C3222 C 0.23786 0.4572 0.11536 0.0
C3223 C 0.24874 0.44319 0.11848 0.0
H3224 H 0.29355 0.51016 0.90429 0.0
H3225 H 0.3133 0.50035 0.8531 0.0
H3226 H 0.26875 0.49178 0.8982 0.0
H3227 H 0.2891 0.4814 0.84729 0.0
H3228 H 0.24112 0.45151 0.83724 0.0
H3229 H 0.25963 0.47649 0.84232 0.0
H3230 H 0.26402 0.46209 0.89605 0.0
H3231 H 0.24504 0.43782 0.89113 0.0
C3232 C 0.29253 0.50419 0.89169 0.0
C3233 C 0.30549 0.50659 0.87925 0.0
C3234 C 0.27836 0.49354 0.88822 0.0
C3235 C 0.27696 0.48483 0.87232 0.0
C3236 C 0.28953 0.48798 0.8596 0.0
C3237 C 0.30354 0.4988 0.86299 0.0
C3238 C 0.24579 0.45391 0.85019 0.0
C3239 C 0.24169 0.44258 0.86373 0.0
C3240 C 0.25652 0.46816 0.8531 0.0
C3241 C 0.26353 0.4713 0.86958 0.0
C3242 C 0.25874 0.46035 0.88324 0.0
C3243 C 0.2479 0.44626 0.88037 0.0
H3244 H 0.30593 0.48681 0.64293 0.0
H3245 H 0.3052 0.50469 0.59021 0.0
H3246 H 0.28118 0.50506 0.64952 0.0
H3247 H 0.2813 0.52376 0.5969 0.0
H3248 H 0.23416 0.55334 0.60945 0.0
H3249 H 0.25287 0.5288 0.60349 0.0
H3250 H 0.27504 0.53365 0.65451 0.0
H3251 H 0.25549 0.55734 0.6607 0.0
C3252 C 0.3004 0.49461 0.63273 0.0
C3253 C 0.30752 0.49437 0.61607 0.0
C3254 C 0.28629 0.50522 0.63653 0.0
C3255 C 0.27923 0.51617 0.62385 0.0
C3256 C 0.28605 0.51538 0.60701 0.0
C3257 C 0.29989 0.50449 0.60314 0.0
C3258 C 0.24281 0.54887 0.61947 0.0
C3259 C 0.24342 0.55727 0.63551 0.0
C3260 C 0.2537 0.5349 0.61602 0.0
C3261 C 0.2658 0.52928 0.62837 0.0
C3262 C 0.26581 0.53731 0.6447 0.0
C3263 C 0.25463 0.551 0.64827 0.0
H3264 H 0.05519 0.13999 0.39498 0.0
H3265 H 0.04412 0.08741 0.40985 0.0
H3266 H 0.06658 0.14573 0.42383 0.0
H3267 H 0.05525 0.09332 0.43882 0.0
H3268 H 0.05398 0.12225 0.4927 0.0
H3269 H 0.04479 0.11436 0.4636 0.0
H3270 H 0.09256 0.13422 0.44303 0.0
H3271 H 0.10198 0.14186 0.47225 0.0
C3272 C 0.05516 0.12968 0.40441 0.0
C3273 C 0.04872 0.11326 0.40018 0.0
C3274 C 0.06179 0.13294 0.42086 0.0
C3275 C 0.06181 0.11995 0.43347 0.0
C3276 C 0.05534 0.10355 0.42929 0.0
C3277 C 0.04901 0.10018 0.41274 0.0
C3278 C 0.06259 0.1248 0.48199 0.0
C3279 C 0.07869 0.13269 0.48472 0.0
C3280 C 0.05736 0.12021 0.46538 0.0
C3281 C 0.06797 0.12373 0.45113 0.0
C3282 C 0.08414 0.13145 0.45384 0.0
C3283 C 0.08955 0.13573 0.47052 0.0
H3284 H 0.09619 0.806 0.73308 0.0
H3285 H 0.13636 0.84433 0.72964 0.0
H3286 H 0.1043 0.79473 0.70509 0.0
H3287 H 0.14566 0.83219 0.7021 0.0
H3288 H 0.14674 0.81749 0.64476 0.0
H3289 H 0.14042 0.82921 0.67329 0.0
H3290 H 0.12314 0.77869 0.68982 0.0
H3291 H 0.12802 0.7677 0.66084 0.0
C3292 C 0.107 0.81181 0.72638 0.0
C3293 C 0.11566 0.82601 0.73348 0.0
C3294 C 0.11184 0.80523 0.71035 0.0
C3295 C 0.12588 0.8123 0.70119 0.0
C3296 C 0.13463 0.8265 0.70848 0.0
C3297 C 0.12941 0.83343 0.72434 0.0
C3298 C 0.14172 0.80898 0.65465 0.0
C3299 C 0.13776 0.79178 0.65073 0.0
C3300 C 0.13815 0.81562 0.67106 0.0
C3301 C 0.13098 0.80504 0.68403 0.0
C3302 C 0.12802 0.7875 0.68016 0.0
C3303 C 0.13104 0.78106 0.66362 0.0
H3304 H 0.45317 0.8599 0.99167 0.0
H3305 H 0.40174 0.87441 0.97567 0.0
H3306 H 0.46416 0.86733 0.96322 0.0
H3307 H 0.41289 0.88189 0.94705 0.0
H3308 H 0.4446 0.90854 0.9033 0.0
H3309 H 0.43364 0.90337 0.9325 0.0
H3310 H 0.46005 0.85434 0.93367 0.0
H3311 H 0.47093 0.8594 0.90462 0.0
C3312 C 0.4442 0.86477 0.98212 0.0
C3313 C 0.42654 0.86647 0.98592 0.0
C3314 C 0.45052 0.86896 0.9658 0.0
C3315 C 0.43936 0.87509 0.95292 0.0
C3316 C 0.42178 0.87728 0.9568 0.0
C3317 C 0.4154 0.87291 0.97313 0.0
C3318 C 0.44814 0.89672 0.90985 0.0
C3319 C 0.45865 0.88439 0.90168 0.0
C3320 C 0.44177 0.89372 0.92649 0.0
C3321 C 0.44603 0.87848 0.93533 0.0
C3322 C 0.4567 0.86628 0.92722 0.0
C3323 C 0.46287 0.86916 0.91056 0.0
H3324 H 0.34223 0.21084 0.1584 0.0
H3325 H 0.39524 0.19959 0.14529 0.0
H3326 H 0.34725 0.20005 0.18771 0.0
H3327 H 0.40006 0.18847 0.17441 0.0
H3328 H 0.39336 0.15185 0.22174 0.0
H3329 H 0.38674 0.16202 0.19257 0.0
H3330 H 0.36847 0.21028 0.21346 0.0
H3331 H 0.37542 0.20033 0.24262 0.0
C3332 C 0.35491 0.20602 0.16176 0.0
C3333 C 0.36836 0.2061 0.1496 0.0
C3334 C 0.35777 0.1999 0.1785 0.0
C3335 C 0.374 0.19339 0.1832 0.0
C3336 C 0.3874 0.19332 0.17101 0.0
C3337 C 0.38466 0.19978 0.15442 0.0
C3338 C 0.3878 0.16457 0.22011 0.0
C3339 C 0.38495 0.17532 0.23442 0.0
C3340 C 0.38411 0.17039 0.20345 0.0
C3341 C 0.37714 0.18691 0.20086 0.0
C3342 C 0.37377 0.19746 0.21518 0.0
C3343 C 0.37781 0.19179 0.23181 0.0
H3344 H 0.04055 0.91039 0.09029 0.0
H3345 H 0.05211 0.85769 0.10431 0.0
H3346 H 0.05176 0.90497 0.06115 0.0
H3347 H 0.06362 0.8525 0.07545 0.0
H3348 H 0.10013 0.85782 0.02822 0.0
H3349 H 0.09001 0.86547 0.05716 0.0
H3350 H 0.04173 0.88305 0.03575 0.0
H3351 H 0.05163 0.87507 0.00683 0.0
C3352 C 0.04556 0.89772 0.08718 0.0
C3353 C 0.04539 0.88444 0.09952 0.0
C3354 C 0.05192 0.89463 0.07055 0.0
C3355 C 0.05859 0.87836 0.06617 0.0
C3356 C 0.05866 0.86519 0.07859 0.0
C3357 C 0.05197 0.86814 0.09504 0.0
C3358 C 0.08741 0.86343 0.02968 0.0
C3359 C 0.07663 0.86577 0.0153 0.0
C3360 C 0.08163 0.86775 0.04621 0.0
C3361 C 0.06512 0.87484 0.0486 0.0
C3362 C 0.05455 0.8777 0.03419 0.0
C3363 C 0.06018 0.87304 0.0177 0.0
H3364 H 0.35135 0.81764 0.35426 0.0
H3365 H 0.3806 0.77167 0.34321 0.0
H3366 H 0.35847 0.82914 0.32589 0.0
H3367 H 0.38639 0.78211 0.31423 0.0
H3368 H 0.40947 0.81058 0.26961 0.0
H3369 H 0.40232 0.80002 0.29819 0.0
H3370 H 0.3549 0.82965 0.29702 0.0
H3371 H 0.36321 0.84141 0.26905 0.0
C3372 C 0.35904 0.80988 0.34552 0.0
C3373 C 0.36555 0.79388 0.35083 0.0
C3374 C 0.36304 0.81637 0.32916 0.0
C3375 C 0.37317 0.8067 0.31752 0.0
C3376 C 0.37908 0.79032 0.32283 0.0
C3377 C 0.37561 0.78416 0.3394 0.0
C3378 C 0.39756 0.81483 0.27559 0.0
C3379 C 0.38687 0.82676 0.26723 0.0
C3380 C 0.39329 0.80864 0.29195 0.0
C3381 C 0.37784 0.81371 0.30012 0.0
C3382 C 0.36707 0.82561 0.2915 0.0
C3383 C 0.3717 0.83228 0.27537 0.0
H3384 H 0.44995 0.11872 0.50756 0.0
H3385 H 0.40265 0.14009 0.5279 0.0
H3386 H 0.45927 0.11149 0.53684 0.0
H3387 H 0.41222 0.13316 0.55723 0.0
H3388 H 0.45136 0.14214 0.60333 0.0
H3389 H 0.43939 0.14582 0.57444 0.0
H3390 H 0.44853 0.09198 0.56365 0.0
H3391 H 0.46021 0.08811 0.59285 0.0
C3392 C 0.4415 0.12174 0.51828 0.0
C3393 C 0.4256 0.13002 0.51549 0.0
C3394 C 0.4468 0.11752 0.53498 0.0
C3395 C 0.43646 0.12182 0.54921 0.0
C3396 C 0.42041 0.12976 0.54642 0.0
C3397 C 0.41493 0.13365 0.52968 0.0
C3398 C 0.45081 0.13106 0.59483 0.0
C3399 C 0.45679 0.11484 0.6003 0.0
C3400 C 0.44383 0.13316 0.57837 0.0
C3401 C 0.44299 0.11916 0.56693 0.0
C3402 C 0.44904 0.10294 0.5723 0.0
C3403 C 0.45569 0.10074 0.58896 0.0
H3404 H 0.11039 0.15073 0.77821 0.0
H3405 H 0.12874 0.19953 0.75848 0.0
H3406 H 0.1176 0.15997 0.80758 0.0
H3407 H 0.13624 0.20855 0.78777 0.0
H3408 H 0.163 0.20858 0.84195 0.0
H3409 H 0.1575 0.19804 0.81266 0.0
H3410 H 0.10517 0.18552 0.82696 0.0
H3411 H 0.11049 0.19635 0.85611 0.0
C3412 C 0.11616 0.16332 0.78012 0.0
C3413 C 0.11896 0.17444 0.76608 0.0
C3414 C 0.12019 0.16861 0.7969 0.0
C3415 C 0.12744 0.18495 0.79986 0.0
C3416 C 0.13074 0.19585 0.78578 0.0
C3417 C 0.12638 0.19071 0.76907 0.0
C3418 C 0.15034 0.20356 0.83883 0.0
C3419 C 0.13715 0.20335 0.85128 0.0
C3420 C 0.1472 0.19758 0.8221 0.0
C3421 C 0.13095 0.19093 0.81764 0.0
C3422 C 0.11785 0.19046 0.83014 0.0
C3423 C 0.12087 0.19677 0.84676 0.0
H3424 H 0.47099 0.0965 0.14171 0.0
H3425 H 0.4927 0.04742 0.12659 0.0
H3426 H 0.44206 0.08567 0.13523 0.0
H3427 H 0.4637 0.0368 0.1197 0.0
H3428 H 0.4082 0.03663 0.09205 0.0
H3429 H 0.43765 0.04721 0.09709 0.0
H3430 H 0.42451 0.05865 0.14995 0.0
H3431 H 0.39534 0.04773 0.14516 0.0
C3432 C 0.46959 0.08347 0.13684 0.0
C3433 C 0.48407 0.07277 0.13471 0.0
C3434 C 0.45307 0.07729 0.13319 0.0
C3435 C 0.45077 0.06045 0.12698 0.0
C3436 C 0.46523 0.04987 0.1244 0.0
C3437 C 0.48175 0.05591 0.12843 0.0
C3438 C 0.41165 0.04136 0.10474 0.0
C3439 C 0.39953 0.04132 0.11823 0.0
C3440 C 0.42846 0.04734 0.10761 0.0
C3441 C 0.43321 0.05375 0.12387 0.0
C3442 C 0.42107 0.05383 0.13729 0.0
C3443 C 0.40444 0.04751 0.13455 0.0
H3444 H 0.20958 0.15802 0.33745 0.0
H3445 H 0.19864 0.14453 0.39043 0.0
H3446 H 0.19813 0.18709 0.3426 0.0
H3447 H 0.18693 0.17335 0.39539 0.0
H3448 H 0.15094 0.2208 0.39084 0.0
H3449 H 0.16065 0.19169 0.38325 0.0
H3450 H 0.20828 0.21263 0.36344 0.0
H3451 H 0.19879 0.24169 0.37129 0.0
C3452 C 0.20465 0.16123 0.35013 0.0
C3453 C 0.20508 0.14906 0.36356 0.0
C3454 C 0.19814 0.17782 0.35307 0.0
C3455 C 0.1916 0.18235 0.36936 0.0
C3456 C 0.19176 0.1701 0.38268 0.0
C3457 C 0.19858 0.15367 0.37986 0.0
C3458 C 0.16341 0.21919 0.38473 0.0
C3459 C 0.17415 0.23348 0.38173 0.0
C3460 C 0.16897 0.20256 0.38045 0.0
C3461 C 0.18519 0.19999 0.37278 0.0
C3462 C 0.19567 0.21432 0.36924 0.0
C3463 C 0.19027 0.2309 0.37383 0.0
H3464 H 0.00653 0.9544 0.62381 0.0
H3465 H 0.02757 0.90585 0.64137 0.0
H3466 H 0.0357 0.96454 0.61704 0.0
H3467 H 0.05669 0.91619 0.63495 0.0
H3468 H 0.10381 0.95336 0.64397 0.0
H3469 H 0.07447 0.94288 0.64871 0.0
H3470 H 0.0618 0.95398 0.59565 0.0
H3471 H 0.09138 0.96414 0.5907 0.0
C3472 C 0.01737 0.9459 0.62617 0.0
C3473 C 0.0148 0.92935 0.63313 0.0
C3474 C 0.034 0.95167 0.62223 0.0
C3475 C 0.04834 0.94113 0.62554 0.0
C3476 C 0.04579 0.92455 0.63236 0.0
C3477 C 0.02915 0.91864 0.63595 0.0
C3478 C 0.09477 0.95362 0.63332 0.0
C3479 C 0.09986 0.95957 0.61696 0.0
C3480 C 0.07805 0.94754 0.63602 0.0
C3481 C 0.06599 0.94761 0.62252 0.0
C3482 C 0.07092 0.95385 0.60624 0.0
C3483 C 0.0878 0.9596 0.60343 0.0
H3484 H 0.30049 0.76306 0.89951 0.0
H3485 H 0.3457 0.76968 0.86768 0.0
H3486 H 0.29057 0.79161 0.89169 0.0
H3487 H 0.33522 0.79807 0.85875 0.0
H3488 H 0.31996 0.85545 0.86104 0.0
H3489 H 0.33084 0.82648 0.86716 0.0
H3490 H 0.27827 0.80781 0.87032 0.0
H3491 H 0.26771 0.83705 0.8655 0.0
C3492 C 0.30818 0.77058 0.89057 0.0
C3493 C 0.32383 0.76416 0.88414 0.0
C3494 C 0.30241 0.78696 0.88592 0.0
C3495 C 0.31191 0.79722 0.87434 0.0
C3496 C 0.32762 0.7907 0.86786 0.0
C3497 C 0.33361 0.7744 0.87287 0.0
C3498 C 0.31086 0.84501 0.86298 0.0
C3499 C 0.29308 0.84827 0.86293 0.0
C3500 C 0.31703 0.8284 0.86638 0.0
C3501 C 0.30548 0.8147 0.86945 0.0
C3502 C 0.28761 0.81803 0.86857 0.0
C3503 C 0.2815 0.83471 0.86561 0.0
H3504 H 0.47325 0.90265 0.36025 0.0
H3505 H 0.49255 0.95161 0.37862 0.0
H3506 H 0.4438 0.91171 0.36723 0.0
H3507 H 0.46313 0.96047 0.38589 0.0
H3508 H 0.40825 0.9602 0.41166 0.0
H3509 H 0.43776 0.94986 0.40684 0.0
H3510 H 0.42475 0.9372 0.3542 0.0
H3511 H 0.39544 0.94782 0.35884 0.0
C3512 C 0.47123 0.91523 0.366 0.0
C3513 C 0.48517 0.92646 0.36884 0.0
C3514 C 0.4544 0.92042 0.3699 0.0
C3515 C 0.45128 0.93677 0.37706 0.0
C3516 C 0.46525 0.94776 0.38046 0.0
C3517 C 0.48203 0.94272 0.37623 0.0
C3518 C 0.41171 0.9552 0.39908 0.0
C3519 C 0.39958 0.95487 0.3856 0.0
C3520 C 0.42856 0.94933 0.39633 0.0
C3521 C 0.43342 0.94269 0.38019 0.0
C3522 C 0.42124 0.94214 0.36681 0.0
C3523 C 0.40453 0.94832 0.36943 0.0
H3524 H 0.2895 0.15913 0.65869 0.0
H3525 H 0.30025 0.1454 0.60573 0.0
H3526 H 0.30063 0.18827 0.65329 0.0
H3527 H 0.3117 0.1743 0.60055 0.0
H3528 H 0.34952 0.22077 0.60697 0.0
H3529 H 0.33869 0.19193 0.61395 0.0
H3530 H 0.29069 0.21406 0.63142 0.0
H3531 H 0.3013 0.24291 0.62409 0.0
C3532 C 0.29426 0.16233 0.64594 0.0
C3533 C 0.29396 0.15004 0.63261 0.0
C3534 C 0.30058 0.17896 0.64287 0.0
C3535 C 0.30707 0.1834 0.62654 0.0
C3536 C 0.30687 0.1711 0.61327 0.0
C3537 C 0.30022 0.15463 0.61622 0.0
C3538 C 0.33671 0.21949 0.61241 0.0
C3539 C 0.32622 0.23406 0.61494 0.0
C3540 C 0.33052 0.20302 0.61632 0.0
C3541 C 0.31389 0.20087 0.62319 0.0
C3542 C 0.30359 0.21545 0.62621 0.0
C3543 C 0.30963 0.23189 0.62194 0.0
H3544 H 0.0983 0.05683 0.91065 0.0
H3545 H 0.10009 0.03379 0.8599 0.0
H3546 H 0.06941 0.06803 0.90447 0.0
H3547 H 0.07132 0.04491 0.85383 0.0
H3548 H 0.01268 0.05064 0.85733 0.0
H3549 H 0.04112 0.03964 0.8649 0.0
H3550 H 0.05572 0.08998 0.88371 0.0
H3551 H 0.02716 0.10112 0.87607 0.0
C3552 C 0.09251 0.0541 0.89823 0.0
C3553 C 0.10146 0.0444 0.88577 0.0
C3554 C 0.07605 0.0606 0.89466 0.0
C3555 C 0.06814 0.05731 0.87869 0.0
C3556 C 0.07704 0.04751 0.86631 0.0
C3557 C 0.09355 0.04121 0.86977 0.0
C3558 C 0.0219 0.05939 0.86313 0.0
C3559 C 0.01767 0.07679 0.86604 0.0
C3560 C 0.03821 0.05308 0.8674 0.0
C3561 C 0.05063 0.06397 0.87483 0.0
C3562 C 0.04634 0.08129 0.87808 0.0
C3563 C 0.03004 0.08767 0.87363 0.0
H3564 H 0.19784 0.85368 0.10941 0.0
H3565 H 0.2105 0.83888 0.16165 0.0
H3566 H 0.18689 0.82465 0.10384 0.0
H3567 H 0.19983 0.80966 0.15587 0.0
H3568 H 0.20062 0.75587 0.12618 0.0
H3569 H 0.20997 0.78495 0.13404 0.0
H3570 H 0.16131 0.80544 0.11637 0.0
H3571 H 0.15176 0.77631 0.10876 0.0
C3572 C 0.19834 0.84421 0.11967 0.0
C3573 C 0.20506 0.84851 0.13595 0.0
C3574 C 0.19197 0.82766 0.11651 0.0
C3575 C 0.1925 0.81502 0.12945 0.0
C3576 C 0.19932 0.81924 0.1457 0.0
C3577 C 0.20537 0.83591 0.14899 0.0
C3578 C 0.19187 0.76656 0.12409 0.0
C3579 C 0.17548 0.76384 0.11682 0.0
C3580 C 0.19719 0.78315 0.12868 0.0
C3581 C 0.18635 0.79736 0.12576 0.0
C3582 C 0.16991 0.79466 0.11866 0.0
C3583 C 0.16444 0.77801 0.11439 0.0
H3584 H 0.10536 0.39292 0.06922 0.0
H3585 H 0.11553 0.4108 0.01759 0.0
H3586 H 0.11161 0.42167 0.08055 0.0
H3587 H 0.1204 0.43988 0.02844 0.0
H3588 H 0.14985 0.48322 0.05292 0.0
H3589 H 0.14127 0.45514 0.04233 0.0
H3590 H 0.10488 0.45043 0.08446 0.0
H3591 H 0.11458 0.47825 0.09571 0.0
C3592 C 0.10848 0.40323 0.0603 0.0
C3593 C 0.11007 0.39983 0.04261 0.0
C3594 C 0.11199 0.41973 0.06672 0.0
C3595 C 0.11679 0.43321 0.05549 0.0
C3596 C 0.11735 0.42981 0.03762 0.0
C3597 C 0.11434 0.41322 0.03131 0.0
C3598 C 0.14001 0.47616 0.05991 0.0
C3599 C 0.13286 0.4829 0.07511 0.0
C3600 C 0.1349 0.46007 0.05374 0.0
C3601 C 0.12212 0.45044 0.06232 0.0
C3602 C 0.1149 0.45728 0.07757 0.0
C3603 C 0.12037 0.47327 0.084 0.0
H3604 H 0.64103 0.02853 0.90112 0.0
H3605 H 0.62092 0.00868 0.94917 0.0
H3606 H 0.63364 0.05788 0.91024 0.0
H3607 H 0.61327 0.03796 0.95808 0.0
H3608 H 0.58772 0.09269 0.95838 0.0
H3609 H 0.59281 0.06339 0.94755 0.0
H3610 H 0.64561 0.07677 0.93607 0.0
H3611 H 0.6407 0.10586 0.94714 0.0
C3612 C 0.63482 0.03041 0.9135 0.0
C3613 C 0.63162 0.01634 0.92447 0.0
C3614 C 0.63068 0.04718 0.91873 0.0
C3615 C 0.62291 0.05012 0.93486 0.0
C3616 C 0.61915 0.03601 0.94555 0.0
C3617 C 0.62361 0.01929 0.94048 0.0
C3618 C 0.60039 0.08936 0.95352 0.0
C3619 C 0.61383 0.10152 0.95368 0.0
C3620 C 0.60329 0.07263 0.94737 0.0
C3621 C 0.61957 0.06791 0.94092 0.0
C3622 C 0.63291 0.08015 0.94083 0.0
C3623 C 0.63012 0.09674 0.94728 0.0
H3624 H 0.15311 0.38892 0.22117 0.0
H3625 H 0.15092 0.33999 0.19451 0.0
H3626 H 0.1824 0.39332 0.21073 0.0
H3627 H 0.18041 0.34451 0.18397 0.0
H3628 H 0.22483 0.37319 0.153 0.0
H3629 H 0.19594 0.36591 0.16359 0.0
H3630 H 0.21148 0.37945 0.21532 0.0
H3631 H 0.24018 0.38668 0.2049 0.0
C3632 C 0.1589 0.37906 0.21312 0.0
C3633 C 0.14971 0.36408 0.2087 0.0
C3634 C 0.17571 0.38156 0.20721 0.0
C3635 C 0.18367 0.36924 0.19658 0.0
C3636 C 0.17452 0.35425 0.19209 0.0
C3637 C 0.15772 0.35163 0.19821 0.0
C3638 C 0.2221 0.37448 0.16665 0.0
C3639 C 0.23478 0.38063 0.17808 0.0
C3640 C 0.20561 0.37023 0.1727 0.0
C3641 C 0.20147 0.37224 0.19025 0.0
C3642 C 0.21426 0.37798 0.2017 0.0
C3643 C 0.23073 0.38205 0.19571 0.0
H3644 H 0.85827 0.89406 0.44726 0.0
H3645 H 0.90988 0.90872 0.46237 0.0
H3646 H 0.85317 0.92318 0.43635 0.0
H3647 H 0.90453 0.93809 0.45177 0.0
H3648 H 0.8741 0.99201 0.45072 0.0
H3649 H 0.88151 0.963 0.46084 0.0
H3650 H 0.86767 0.9421 0.41114 0.0
H3651 H 0.8606 0.9711 0.40084 0.0
C3652 C 0.86849 0.90353 0.44834 0.0
C3653 C 0.88447 0.89914 0.45568 0.0
C3654 C 0.86558 0.92014 0.44201 0.0
C3655 C 0.87848 0.93278 0.44321 0.0
C3656 C 0.8944 0.92851 0.45074 0.0
C3657 C 0.89745 0.91175 0.45674 0.0
C3658 C 0.87275 0.98123 0.44193 0.0
C3659 C 0.86673 0.98379 0.42501 0.0
C3660 C 0.87708 0.9647 0.44769 0.0
C3661 C 0.87511 0.9504 0.43675 0.0
C3662 C 0.86922 0.95295 0.41981 0.0
C3663 C 0.86525 0.96952 0.41393 0.0
H3664 H 0.85397 0.14527 0.18646 0.0
H3665 H 0.83971 0.12496 0.2362 0.0
H3666 H 0.82517 0.13908 0.17553 0.0
H3667 H 0.8104 0.12022 0.22606 0.0
H3668 H 0.76605 0.09424 0.19906 0.0
H3669 H 0.79424 0.10213 0.21012 0.0
H3670 H 0.79649 0.14445 0.17365 0.0
H3671 H 0.76888 0.13534 0.1617 0.0
C3672 C 0.84442 0.13991 0.19515 0.0
C3673 C 0.84894 0.13549 0.21208 0.0
C3674 C 0.82783 0.13643 0.18897 0.0
C3675 C 0.81525 0.12892 0.19978 0.0
C3676 C 0.81973 0.12541 0.21707 0.0
C3677 C 0.83647 0.12834 0.22303 0.0
C3678 C 0.77265 0.10522 0.19346 0.0
C3679 C 0.76539 0.11416 0.17954 0.0
C3680 C 0.78879 0.10992 0.1999 0.0
C3681 C 0.79785 0.1241 0.19296 0.0
C3682 C 0.79026 0.13325 0.17918 0.0
C3683 C 0.77434 0.12815 0.17238 0.0
H3684 H 0.35792 0.60028 0.53274 0.0
H3685 H 0.40908 0.59712 0.5547 0.0
H3686 H 0.35209 0.5708 0.54213 0.0
H3687 H 0.40315 0.56762 0.56414 0.0
H3688 H 0.37559 0.52453 0.59611 0.0
H3689 H 0.38285 0.55342 0.58583 0.0
H3690 H 0.36294 0.54056 0.53543 0.0
H3691 H 0.3557 0.51164 0.54563 0.0
C3692 C 0.36792 0.59329 0.53955 0.0
C3693 C 0.38395 0.60103 0.54299 0.0
C3694 C 0.36461 0.57639 0.54483 0.0
C3695 C 0.37718 0.56695 0.55385 0.0
C3696 C 0.3932 0.57466 0.55731 0.0
C3697 C 0.39661 0.59151 0.55183 0.0
C3698 C 0.37282 0.52783 0.58282 0.0
C3699 C 0.36503 0.51582 0.57169 0.0
C3700 C 0.37707 0.54433 0.57692 0.0
C3701 C 0.37341 0.54921 0.55986 0.0
C3702 C 0.36576 0.53716 0.54869 0.0
C3703 C 0.36171 0.5206 0.55452 0.0
H3704 H 0.22125 0.60949 0.35013 0.0
H3705 H 0.242 0.62722 0.30152 0.0
H3706 H 0.19216 0.61722 0.34044 0.0
H3707 H 0.21298 0.63527 0.29206 0.0
H3708 H 0.15867 0.66221 0.29086 0.0
H3709 H 0.18776 0.65691 0.3022 0.0
H3710 H 0.17352 0.60447 0.31429 0.0
H3711 H 0.14469 0.60956 0.30266 0.0
C3712 C 0.21962 0.61525 0.3375 0.0
C3713 C 0.23385 0.61768 0.32653 0.0
C3714 C 0.20301 0.6196 0.33196 0.0
C3715 C 0.20041 0.62682 0.31553 0.0
C3716 C 0.2147 0.62982 0.30482 0.0
C3717 C 0.23125 0.62513 0.3102 0.0
C3718 C 0.16178 0.64957 0.29596 0.0
C3719 C 0.14946 0.63627 0.2958 0.0
C3720 C 0.17838 0.64655 0.3024 0.0
C3721 C 0.18277 0.63032 0.30916 0.0
C3722 C 0.17038 0.61714 0.30928 0.0
C3723 C 0.15394 0.62003 0.30251 0.0
H3724 H 0.25695 0.37229 0.79901 0.0
H3725 H 0.27735 0.39013 0.84773 0.0
H3726 H 0.2861 0.36449 0.78967 0.0
H3727 H 0.30653 0.38265 0.83816 0.0
H3728 H 0.35428 0.39051 0.80099 0.0
H3729 H 0.32521 0.39554 0.81205 0.0
H3730 H 0.31146 0.34292 0.80019 0.0
H3731 H 0.3408 0.33767 0.78942 0.0
C3732 C 0.26765 0.37447 0.80774 0.0
C3733 C 0.2649 0.38186 0.82408 0.0
C3734 C 0.28427 0.36993 0.80242 0.0
C3735 C 0.29848 0.37301 0.81321 0.0
C3736 C 0.29574 0.3802 0.82962 0.0
C3737 C 0.27907 0.38441 0.83509 0.0
C3738 C 0.34508 0.37999 0.80075 0.0
C3739 C 0.34978 0.3637 0.7943 0.0
C3740 C 0.32851 0.38285 0.80719 0.0
C3741 C 0.31619 0.3696 0.80699 0.0
C3742 C 0.32078 0.35333 0.80044 0.0
C3743 C 0.33752 0.35034 0.79434 0.0
H3744 H 0.93948 0.84255 0.51946 0.0
H3745 H 0.90863 0.88874 0.51713 0.0
H3746 H 0.94922 0.85024 0.54818 0.0
H3747 H 0.91956 0.89755 0.54537 0.0
H3748 H 0.9314 0.90214 0.6029 0.0
H3749 H 0.91993 0.89451 0.57459 0.0
H3750 H 0.96733 0.86713 0.5632 0.0
H3751 H 0.97779 0.87348 0.59202 0.0
C3752 C 0.93498 0.85452 0.52513 0.0
C3753 C 0.92338 0.86509 0.51621 0.0
C3754 C 0.94073 0.8591 0.54154 0.0
C3755 C 0.93554 0.87476 0.54921 0.0
C3756 C 0.92374 0.8853 0.54016 0.0
C3757 C 0.91753 0.88036 0.52392 0.0
C3758 C 0.93926 0.89449 0.59422 0.0
C3759 C 0.95537 0.88825 0.59956 0.0
C3760 C 0.93277 0.89018 0.57792 0.0
C3761 C 0.94253 0.87996 0.56644 0.0
C3762 C 0.95904 0.87444 0.57173 0.0
C3763 C 0.96521 0.87824 0.5882 0.0
H3764 H 0.84444 0.1972 0.34797 0.0
H3765 H 0.89516 0.22038 0.34833 0.0
H3766 H 0.84956 0.18667 0.31866 0.0
H3767 H 0.90023 0.20982 0.31918 0.0
H3768 H 0.89706 0.20175 0.26093 0.0
H3769 H 0.88968 0.21396 0.28902 0.0
H3770 H 0.86916 0.16473 0.30511 0.0
H3771 H 0.87644 0.1525 0.27704 0.0
C3772 C 0.85662 0.20015 0.34177 0.0
C3773 C 0.86941 0.20958 0.35049 0.0
C3774 C 0.85957 0.19404 0.32504 0.0
C3775 C 0.8753 0.19741 0.31665 0.0
C3776 C 0.88792 0.20717 0.32524 0.0
C3777 C 0.88504 0.21313 0.34199 0.0
C3778 C 0.8909 0.19355 0.27043 0.0
C3779 C 0.88742 0.17613 0.26678 0.0
C3780 C 0.88673 0.20053 0.28652 0.0
C3781 C 0.87887 0.19029 0.29925 0.0
C3782 C 0.87506 0.17298 0.29549 0.0
C3783 C 0.87935 0.16595 0.27945 0.0
H3784 H 0.51801 0.12387 0.08895 0.0
H3785 H 0.56718 0.1018 0.10257 0.0
H3786 H 0.52828 0.12918 0.05981 0.0
H3787 H 0.57829 0.10853 0.07389 0.0
H3788 H 0.59107 0.11281 0.01682 0.0
H3789 H 0.57988 0.10385 0.04491 0.0
H3790 H 0.54473 0.14732 0.04431 0.0
H3791 H 0.55491 0.15505 0.0158 0.0
C3792 C 0.53111 0.12028 0.08562 0.0
C3793 C 0.54184 0.11246 0.09785 0.0
C3794 C 0.53715 0.12352 0.06898 0.0
C3795 C 0.55433 0.11967 0.06437 0.0
C3796 C 0.56495 0.11152 0.0767 0.0
C3797 C 0.55866 0.10773 0.0932 0.0
C3798 C 0.58088 0.12029 0.02279 0.0
C3799 C 0.5737 0.13448 0.01419 0.0
C3800 C 0.5745 0.11527 0.03895 0.0
C3801 C 0.56118 0.1247 0.04703 0.0
C3802 C 0.55449 0.13926 0.03843 0.0
C3803 C 0.56046 0.14387 0.02211 0.0
H3804 H 0.65956 0.79111 0.84214 0.0
H3805 H 0.60729 0.8041 0.85653 0.0
H3806 H 0.65407 0.80167 0.81286 0.0
H3807 H 0.60199 0.81495 0.82737 0.0
H3808 H 0.60768 0.84961 0.77847 0.0
H3809 H 0.6147 0.84028 0.80785 0.0
H3810 H 0.6326 0.7914 0.78811 0.0
H3811 H 0.6253 0.80052 0.75879 0.0
C3812 C 0.64695 0.7963 0.83908 0.0
C3813 C 0.63383 0.79673 0.85159 0.0
C3814 C 0.64382 0.80229 0.82235 0.0
C3815 C 0.62764 0.80915 0.81795 0.0
C3816 C 0.61461 0.80983 0.83051 0.0
C3817 C 0.61762 0.80352 0.84714 0.0
C3818 C 0.61324 0.83693 0.7804 0.0
C3819 C 0.61591 0.82577 0.76637 0.0
C3820 C 0.61716 0.83158 0.79718 0.0
C3821 C 0.62416 0.81514 0.80017 0.0
C3822 C 0.6273 0.80417 0.7861 0.0
C3823 C 0.62305 0.80937 0.76937 0.0
H3824 H 0.90417 0.14391 0.97133 0.0
H3825 H 0.95263 0.12846 0.99415 0.0
H3826 H 0.91543 0.13684 0.94271 0.0
H3827 H 0.96369 0.12099 0.96543 0.0
H3828 H 0.96393 0.09257 0.90994 0.0
H3829 H 0.95319 0.09807 0.93928 0.0
H3830 H 0.94308 0.15107 0.92565 0.0
H3831 H 0.95414 0.14583 0.89665 0.0
C3832 C 0.91716 0.13886 0.97024 0.0
C3833 C 0.92756 0.1368 0.98494 0.0
C3834 C 0.92357 0.13486 0.9539 0.0
C3835 C 0.94036 0.12836 0.95198 0.0
C3836 C 0.95066 0.12589 0.96667 0.0
C3837 C 0.94438 0.13027 0.98302 0.0
C3838 C 0.95947 0.10539 0.91327 0.0
C3839 C 0.95991 0.11878 0.90105 0.0
C3840 C 0.9534 0.10852 0.93001 0.0
C3841 C 0.9473 0.12496 0.93458 0.0
C3842 C 0.94766 0.13828 0.92235 0.0
C3843 C 0.95406 0.13527 0.90581 0.0
H3844 H 0.60991 0.15224 0.72102 0.0
H3845 H 0.63022 0.20009 0.74113 0.0
H3846 H 0.6161 0.16206 0.6916 0.0
H3847 H 0.6367 0.20968 0.71177 0.0
H3848 H 0.661 0.21027 0.65631 0.0
H3849 H 0.65659 0.19923 0.68561 0.0
H3850 H 0.60328 0.18858 0.67361 0.0
H3851 H 0.60751 0.19992 0.64447 0.0
C3852 C 0.61592 0.16472 0.71916 0.0
C3853 C 0.61955 0.17543 0.73333 0.0
C3854 C 0.61936 0.17035 0.70237 0.0
C3855 C 0.62683 0.18661 0.6995 0.0
C3856 C 0.63101 0.19706 0.71368 0.0
C3857 C 0.62724 0.19159 0.73044 0.0
C3858 C 0.64834 0.20559 0.65995 0.0
C3859 C 0.63458 0.20602 0.64815 0.0
C3860 C 0.64583 0.19931 0.67668 0.0
C3861 C 0.62963 0.193 0.68175 0.0
C3862 C 0.61593 0.19325 0.66992 0.0
C3863 C 0.61833 0.19985 0.65332 0.0
H3864 H 0.55326 0.8604 0.39502 0.0
H3865 H 0.54215 0.91311 0.4094 0.0
H3866 H 0.56429 0.85483 0.42404 0.0
H3867 H 0.55294 0.90737 0.43854 0.0
H3868 H 0.55124 0.8789 0.49264 0.0
H3869 H 0.5423 0.88666 0.46342 0.0
H3870 H 0.59006 0.86627 0.44332 0.0
H3871 H 0.59921 0.85874 0.47264 0.0
C3872 C 0.55314 0.87077 0.40439 0.0
C3873 C 0.54679 0.88718 0.39997 0.0
C3874 C 0.55957 0.86761 0.42092 0.0
C3875 C 0.55949 0.88069 0.43344 0.0
C3876 C 0.55309 0.89708 0.42909 0.0
C3877 C 0.54697 0.90035 0.41244 0.0
C3878 C 0.5599 0.87621 0.482 0.0
C3879 C 0.57591 0.86819 0.48489 0.0
C3880 C 0.55482 0.88073 0.46532 0.0
C3881 C 0.56549 0.87701 0.45118 0.0
C3882 C 0.58159 0.86919 0.45405 0.0
C3883 C 0.58684 0.86497 0.47079 0.0
H3884 H 0.8909 0.84909 0.22164 0.0
H3885 H 0.87351 0.80052 0.24276 0.0
H3886 H 0.88323 0.83915 0.19264 0.0
H3887 H 0.86551 0.7908 0.21379 0.0
H3888 H 0.83832 0.78985 0.15926 0.0
H3889 H 0.84367 0.80104 0.18841 0.0
H3890 H 0.89623 0.81272 0.17428 0.0
H3891 H 0.8911 0.80123 0.1454 0.0
C3892 C 0.88523 0.8364 0.22011 0.0
C3893 C 0.88287 0.82553 0.23443 0.0
C3894 C 0.88091 0.83072 0.20355 0.0
C3895 C 0.8738 0.81424 0.20107 0.0
C3896 C 0.87089 0.8036 0.21542 0.0
C3897 C 0.87555 0.80913 0.23194 0.0
C3898 C 0.851 0.79482 0.16241 0.0
C3899 C 0.86432 0.7946 0.15011 0.0
C3900 C 0.85404 0.80117 0.17904 0.0
C3901 C 0.87032 0.80779 0.18347 0.0
C3902 C 0.88353 0.80781 0.1711 0.0
C3903 C 0.88062 0.80113 0.15464 0.0
H3904 H 0.60695 0.9479 0.85797 0.0
H3905 H 0.59091 0.96154 0.90959 0.0
H3906 H 0.57794 0.93712 0.85183 0.0
H3907 H 0.56176 0.95107 0.90324 0.0
H3908 H 0.50832 0.9501 0.8733 0.0
H3909 H 0.53728 0.96051 0.88048 0.0
H3910 H 0.55877 0.91153 0.86505 0.0
H3911 H 0.52982 0.90093 0.85821 0.0
C3912 C 0.59721 0.94869 0.86796 0.0
C3913 C 0.60118 0.95556 0.88426 0.0
C3914 C 0.58067 0.94244 0.86446 0.0
C3915 C 0.5677 0.94328 0.87708 0.0
C3916 C 0.57157 0.95035 0.8933 0.0
C3917 C 0.58822 0.95627 0.89693 0.0
C3918 C 0.51922 0.94154 0.87151 0.0
C3919 C 0.51683 0.92471 0.8652 0.0
C3920 C 0.53574 0.94747 0.87568 0.0
C3921 C 0.55017 0.9368 0.87326 0.0
C3922 C 0.54781 0.92 0.86693 0.0
C3923 C 0.53127 0.91393 0.86311 0.0
H3924 H 0.84722 0.77384 0.62305 0.0
H3925 H 0.79553 0.76174 0.60598 0.0
H3926 H 0.83774 0.80304 0.63065 0.0
H3927 H 0.78621 0.79079 0.61345 0.0
H3928 H 0.78298 0.84989 0.60833 0.0
H3929 H 0.7931 0.82082 0.60179 0.0
H3930 H 0.81647 0.81746 0.65223 0.0
H3931 H 0.80624 0.84659 0.65891 0.0
C3932 C 0.83387 0.77739 0.62095 0.0
C3933 C 0.82214 0.7655 0.61389 0.0
C3934 C 0.82844 0.79404 0.62537 0.0
C3935 C 0.81127 0.79914 0.62255 0.0
C3936 C 0.79956 0.78723 0.6156 0.0
C3937 C 0.8049 0.77057 0.61141 0.0
C3938 C 0.79028 0.84298 0.61804 0.0
C3939 C 0.79376 0.85051 0.63416 0.0
C3940 C 0.79601 0.82632 0.61431 0.0
C3941 C 0.80553 0.81692 0.62653 0.0
C3942 C 0.80923 0.82449 0.64257 0.0
C3943 C 0.80328 0.8411 0.6464 0.0
H3944 H 0.8984 0.04904 0.35861 0.0
H3945 H 0.90969 0.03878 0.41224 0.0
H3946 H 0.92752 0.06042 0.35465 0.0
H3947 H 0.93905 0.04986 0.40808 0.0
H3948 H 0.99471 0.04865 0.38065 0.0
H3949 H 0.96543 0.03924 0.38778 0.0
H3950 H 0.94515 0.08716 0.36798 0.0
H3951 H 0.97446 0.0968 0.36115 0.0
C3952 C 0.90714 0.04913 0.36952 0.0
C3953 C 0.90182 0.04297 0.38573 0.0
C3954 C 0.92372 0.05576 0.36727 0.0
C3955 C 0.9354 0.05606 0.38109 0.0
C3956 C 0.93021 0.04975 0.39726 0.0
C3957 C 0.91346 0.04345 0.39962 0.0
C3958 C 0.98401 0.05726 0.37802 0.0
C3959 C 0.98682 0.07343 0.3703 0.0
C3960 C 0.96732 0.0519 0.38217 0.0
C3961 C 0.95313 0.06247 0.37835 0.0
C3962 C 0.95593 0.07878 0.37097 0.0
C3963 C 0.97267 0.0843 0.36715 0.0
H3964 H 0.65778 0.22959 0.13706 0.0
H3965 H 0.69793 0.2334 0.09874 0.0
H3966 H 0.66894 0.20153 0.14603 0.0
H3967 H 0.70827 0.20493 0.10644 0.0
H3968 H 0.73358 0.15976 0.13062 0.0
H3969 H 0.7232 0.18895 0.12559 0.0
H3970 H 0.67165 0.17285 0.14006 0.0
H3971 H 0.68269 0.1441 0.14657 0.0
C3972 C 0.66887 0.22425 0.13043 0.0
C3973 C 0.67711 0.23363 0.11734 0.0
C3974 C 0.67524 0.20811 0.13546 0.0
C3975 C 0.68968 0.20079 0.12711 0.0
C3976 C 0.69755 0.21019 0.11368 0.0
C3977 C 0.69152 0.2265 0.10907 0.0
C3978 C 0.7201 0.16267 0.13295 0.0
C3979 C 0.70889 0.14988 0.13897 0.0
C3980 C 0.71402 0.17934 0.12986 0.0
C3981 C 0.69642 0.1834 0.13206 0.0
C3982 C 0.6853 0.17047 0.13842 0.0
C3983 C 0.69156 0.15393 0.14206 0.0
H3984 H 0.59837 0.0314 0.64232 0.0
H3985 H 0.59756 0.05477 0.5917 0.0
H3986 H 0.56939 0.04226 0.64782 0.0
H3987 H 0.56845 0.06567 0.59727 0.0
H3988 H 0.52591 0.09882 0.62499 0.0
H3989 H 0.55439 0.08744 0.6175 0.0
H3990 H 0.53942 0.03733 0.63667 0.0
H3991 H 0.51106 0.0486 0.64416 0.0
C3992 C 0.59199 0.03881 0.63234 0.0
C3993 C 0.60027 0.04221 0.61656 0.0
C3994 C 0.57535 0.04495 0.63546 0.0
C3995 C 0.56667 0.05479 0.62296 0.0
C3996 C 0.5749 0.05821 0.60718 0.0
C3997 C 0.59151 0.05188 0.60396 0.0
C3998 C 0.52868 0.08536 0.62753 0.0
C3999 C 0.51624 0.07464 0.63525 0.0
C4000 C 0.54494 0.07883 0.62315 0.0
C4001 C 0.54912 0.06152 0.62658 0.0
C4002 C 0.53661 0.05077 0.63405 0.0
C4003 C 0.52033 0.05723 0.63827 0.0
H4004 H 0.65173 0.78026 0.39167 0.0
H4005 H 0.70059 0.75879 0.37553 0.0
H4006 H 0.66199 0.80915 0.38417 0.0
H4007 H 0.71066 0.78772 0.36769 0.0
H4008 H 0.71118 0.84208 0.33933 0.0
H4009 H 0.70056 0.8128 0.34518 0.0
H4010 H 0.68814 0.82772 0.39736 0.0
H4011 H 0.69905 0.85673 0.39174 0.0
C4012 C 0.66458 0.7817 0.38637 0.0
C4013 C 0.67539 0.7673 0.38424 0.0
C4014 C 0.67045 0.7982 0.38214 0.0
C4015 C 0.68708 0.80057 0.37537 0.0
C4016 C 0.69774 0.78616 0.37281 0.0
C4017 C 0.69202 0.76967 0.37738 0.0
C4018 C 0.70618 0.83907 0.35203 0.0
C4019 C 0.70598 0.85164 0.36509 0.0
C4020 C 0.70018 0.82236 0.35537 0.0
C4021 C 0.69351 0.81813 0.37168 0.0
C4022 C 0.69313 0.83074 0.38465 0.0
C4023 C 0.69945 0.84728 0.38145 0.0
H4024 H 0.97581 0.90031 0.1227 0.0
H4025 H 0.98938 0.95165 0.13976 0.0
H4026 H 0.94707 0.91075 0.1146 0.0
H4027 H 0.96083 0.96191 0.13173 0.0
H4028 H 0.90192 0.96682 0.13724 0.0
H4029 H 0.93087 0.95624 0.14334 0.0
H4030 H 0.93278 0.93205 0.0932 0.0
H4031 H 0.90367 0.94272 0.08698 0.0
C4032 C 0.97271 0.9138 0.12465 0.0
C4033 C 0.98486 0.92512 0.13195 0.0
C4034 C 0.95631 0.91977 0.11993 0.0
C4035 C 0.95173 0.93711 0.12263 0.0
C4036 C 0.96396 0.94844 0.12968 0.0
C4037 C 0.98035 0.94255 0.13421 0.0
C4038 C 0.90849 0.95928 0.12748 0.0
C4039 C 0.90051 0.95565 0.11161 0.0
C4040 C 0.92511 0.95329 0.13095 0.0
C4041 C 0.93407 0.94336 0.11873 0.0
C4042 C 0.9261 0.9396 0.10289 0.0
C4043 C 0.90951 0.94581 0.0993 0.0
H4044 H 0.84671 0.22619 0.87666 0.0
H4045 H 0.79448 0.23988 0.89066 0.0
H4046 H 0.83704 0.1969 0.8697 0.0
H4047 H 0.78497 0.21076 0.88381 0.0
H4048 H 0.7808 0.15206 0.89229 0.0
H4049 H 0.79075 0.18145 0.89739 0.0
H4050 H 0.81671 0.18138 0.8481 0.0
H4051 H 0.80666 0.15188 0.84287 0.0
C4052 C 0.83319 0.22299 0.87816 0.0
C4053 C 0.82138 0.23534 0.88427 0.0
C4054 C 0.82766 0.20628 0.87412 0.0
C4055 C 0.81029 0.20158 0.87633 0.0
C4056 C 0.79847 0.21399 0.88217 0.0
C4057 C 0.80393 0.2307 0.88601 0.0
C4058 C 0.7886 0.15829 0.88251 0.0
C4059 C 0.79289 0.14967 0.86715 0.0
C4060 C 0.79424 0.17514 0.88541 0.0
C4061 C 0.80446 0.18367 0.87312 0.0
C4062 C 0.80891 0.17504 0.85782 0.0
C4063 C 0.80307 0.15823 0.8548 0.0
H4064 H 0.86019 0.59863 0.96727 0.0
H4065 H 0.90974 0.59875 0.94167 0.0
H4066 H 0.85487 0.56949 0.9569 0.0
H4067 H 0.90428 0.56939 0.93119 0.0
H4068 H 0.87454 0.52544 0.90036 0.0
H4069 H 0.88249 0.55432 0.91054 0.0
H4070 H 0.86794 0.54004 0.96237 0.0
H4071 H 0.86006 0.51137 0.95237 0.0
C4072 C 0.86997 0.59243 0.95944 0.0
C4073 C 0.88541 0.60098 0.95533 0.0
C4074 C 0.86694 0.5757 0.95357 0.0
C4075 C 0.87918 0.56718 0.9433 0.0
C4076 C 0.8946 0.57572 0.93903 0.0
C4077 C 0.89775 0.59245 0.94512 0.0
C4078 C 0.87315 0.52846 0.91394 0.0
C4079 C 0.86656 0.51615 0.92553 0.0
C4080 C 0.87779 0.54493 0.91976 0.0
C4081 C 0.87571 0.54941 0.93721 0.0
C4082 C 0.86948 0.53699 0.94881 0.0
C4083 C 0.86503 0.52054 0.94307 0.0
H4084 H 0.40973 0.90877 0.04016 0.0
H4085 H 0.35679 0.8946 0.05037 0.0
H4086 H 0.40407 0.93776 0.05164 0.0
H4087 H 0.35136 0.92332 0.0622 0.0
H4088 H 0.35752 0.96957 0.10065 0.0
H4089 H 0.36479 0.94085 0.08961 0.0
H4090 H 0.3817 0.96344 0.04163 0.0
H4091 H 0.37404 0.99213 0.05242 0.0
C4092 C 0.39694 0.91184 0.04489 0.0
C4093 C 0.38368 0.89948 0.04431 0.0
C4094 C 0.39371 0.92837 0.05141 0.0
C4095 C 0.37732 0.93264 0.05785 0.0
C4096 C 0.36414 0.92025 0.05741 0.0
C4097 C 0.36723 0.90389 0.05054 0.0
C4098 C 0.36289 0.96841 0.08779 0.0
C4099 C 0.36515 0.98305 0.07736 0.0
C4100 C 0.36698 0.95201 0.08149 0.0
C4101 C 0.37379 0.95003 0.06481 0.0
C4102 C 0.37654 0.96469 0.05456 0.0
C4103 C 0.37208 0.98105 0.06071 0.0
H4104 H 0.77214 0.6266 0.84839 0.0
H4105 H 0.7585 0.60889 0.79728 0.0
H4106 H 0.80098 0.63423 0.8379 0.0
H4107 H 0.78717 0.61644 0.78697 0.0
H4108 H 0.84604 0.61058 0.78214 0.0
H4109 H 0.8171 0.60468 0.79291 0.0
H4110 H 0.8153 0.65523 0.81623 0.0
H4111 H 0.84436 0.66125 0.80536 0.0
C4112 C 0.77525 0.62441 0.83494 0.0
C4113 C 0.76305 0.61708 0.8237 0.0
C4114 C 0.79171 0.62885 0.82894 0.0
C4115 C 0.7963 0.62582 0.81165 0.0
C4116 C 0.78403 0.61873 0.80039 0.0
C4117 C 0.76758 0.61449 0.80632 0.0
C4118 C 0.83949 0.62047 0.78953 0.0
C4119 C 0.84746 0.6364 0.79285 0.0
C4120 C 0.82289 0.61711 0.79564 0.0
C4121 C 0.81397 0.62952 0.80536 0.0
C4122 C 0.82195 0.64541 0.80884 0.0
C4123 C 0.83851 0.64887 0.80253 0.0
H4124 H 0.09253 0.09214 0.54024 0.0
H4125 H 0.14457 0.10711 0.55348 0.0
H4126 H 0.09828 0.06295 0.55093 0.0
H4127 H 0.15012 0.07805 0.56447 0.0
H4128 H 0.14366 0.02982 0.60029 0.0
H4129 H 0.13702 0.05898 0.59007 0.0
H4130 H 0.12027 0.03812 0.54124 0.0
H4131 H 0.12722 0.009 0.55126 0.0
C4132 C 0.10515 0.08921 0.54549 0.0
C4133 C 0.11812 0.10187 0.54599 0.0
C4134 C 0.10843 0.07254 0.55154 0.0
C4135 C 0.12461 0.06835 0.55854 0.0
C4136 C 0.13751 0.08104 0.55923 0.0
C4137 C 0.13435 0.0976 0.55285 0.0
C4138 C 0.13849 0.03146 0.58741 0.0
C4139 C 0.13599 0.01716 0.57655 0.0
C4140 C 0.13478 0.04812 0.58156 0.0
C4141 C 0.12815 0.05071 0.56489 0.0
C4142 C 0.12529 0.03641 0.55418 0.0
C4143 C 0.12933 0.01979 0.55989 0.0
H4144 H 0.24335 0.87685 0.79844 0.0
H4145 H 0.22136 0.88979 0.84802 0.0
H4146 H 0.21454 0.86931 0.78771 0.0
H4147 H 0.19262 0.88268 0.83709 0.0
H4148 H 0.14631 0.89384 0.79858 0.0
H4149 H 0.17532 0.89838 0.80992 0.0
H4150 H 0.18845 0.84564 0.79796 0.0
H4151 H 0.15906 0.84083 0.78695 0.0
C4152 C 0.23239 0.87804 0.80703 0.0
C4153 C 0.23456 0.88396 0.82404 0.0
C4154 C 0.21598 0.87363 0.80093 0.0
C4155 C 0.20149 0.87543 0.81162 0.0
C4156 C 0.20366 0.8812 0.82865 0.0
C4157 C 0.22008 0.88524 0.83487 0.0
C4158 C 0.15535 0.88319 0.79835 0.0
C4159 C 0.15045 0.86698 0.79187 0.0
C4160 C 0.17189 0.88579 0.80491 0.0
C4161 C 0.18399 0.87235 0.80479 0.0
C4162 C 0.17926 0.85617 0.79813 0.0
C4163 C 0.16251 0.85343 0.79191 0.0
H4164 H 0.64316 0.47162 0.40044 0.0
H4165 H 0.62866 0.49429 0.44927 0.0
H4166 H 0.63614 0.44296 0.41172 0.0
H4167 H 0.62126 0.46563 0.46035 0.0
H4168 H 0.59184 0.41175 0.46208 0.0
H4169 H 0.5981 0.44073 0.45102 0.0
H4170 H 0.64988 0.42473 0.43831 0.0
H4171 H 0.64386 0.39594 0.44972 0.0
C4172 C 0.63833 0.47049 0.41351 0.0
C4173 C 0.63649 0.48516 0.424 0.0
C4174 C 0.63439 0.45412 0.41996 0.0
C4175 C 0.62819 0.45219 0.43687 0.0
C4176 C 0.62596 0.46686 0.44724 0.0
C4177 C 0.63026 0.48319 0.44093 0.0
C4178 C 0.60457 0.41446 0.45699 0.0
C4179 C 0.61738 0.40163 0.4568 0.0
C4180 C 0.60814 0.43101 0.45072 0.0
C4181 C 0.62443 0.43484 0.44379 0.0
C4182 C 0.6372 0.42201 0.44351 0.0
C4183 C 0.63377 0.4056 0.45013 0.0
H4184 H 0.77801 0.39013 0.65032 0.0
H4185 H 0.75741 0.37166 0.69871 0.0
H4186 H 0.80719 0.38279 0.66003 0.0
H4187 H 0.78651 0.36404 0.70821 0.0
H4188 H 0.84088 0.33781 0.70964 0.0
H4189 H 0.81182 0.34292 0.69823 0.0
H4190 H 0.8258 0.39541 0.68605 0.0
H4191 H 0.85467 0.39049 0.69773 0.0
C4192 C 0.77969 0.38429 0.6629 0.0
C4193 C 0.76547 0.38152 0.67379 0.0
C4194 C 0.79636 0.38018 0.66847 0.0
C4195 C 0.79902 0.37288 0.68485 0.0
C4196 C 0.78475 0.36956 0.69548 0.0
C4197 C 0.76815 0.374 0.69008 0.0
C4198 C 0.83774 0.35042 0.70451 0.0
C4199 C 0.84999 0.36378 0.70465 0.0
C4200 C 0.82115 0.35333 0.69802 0.0
C4201 C 0.81668 0.36952 0.69122 0.0
C4202 C 0.82901 0.38277 0.69109 0.0
C4203 C 0.84546 0.37998 0.69789 0.0
H4204 H 0.725 0.62489 0.15351 0.0
H4205 H 0.74015 0.60867 0.20467 0.0
H4206 H 0.69653 0.63288 0.16456 0.0
H4207 H 0.71177 0.61665 0.21561 0.0
H4208 H 0.65277 0.60972 0.2211 0.0
H4209 H 0.68202 0.60456 0.21094 0.0
H4210 H 0.68204 0.65408 0.18544 0.0
H4211 H 0.65257 0.65934 0.19569 0.0
C4212 C 0.7223 0.62311 0.1671 0.0
C4213 C 0.73481 0.61604 0.17819 0.0
C4214 C 0.70605 0.6278 0.17344 0.0
C4215 C 0.70194 0.62532 0.19092 0.0
C4216 C 0.71454 0.61854 0.20204 0.0
C4217 C 0.73081 0.61403 0.19577 0.0
C4218 C 0.659 0.61957 0.2134 0.0
C4219 C 0.65034 0.63494 0.20918 0.0
C4220 C 0.6758 0.61665 0.20766 0.0
C4221 C 0.68431 0.62893 0.19742 0.0
C4222 C 0.67573 0.64436 0.19324 0.0
C4223 C 0.65893 0.6474 0.19919 0.0
H4224 H 0.55113 0.64131 0.89583 0.0
H4225 H 0.53984 0.58863 0.91016 0.0
H4226 H 0.56293 0.6466 0.92457 0.0
H4227 H 0.5514 0.5941 0.93909 0.0
H4228 H 0.55147 0.62299 0.9933 0.0
H4229 H 0.54158 0.61526 0.96437 0.0
H4230 H 0.58925 0.63438 0.94288 0.0
H4231 H 0.59936 0.64186 0.97188 0.0
C4232 C 0.55112 0.63089 0.90514 0.0
C4233 C 0.54452 0.61457 0.90079 0.0
C4234 C 0.55799 0.63389 0.92151 0.0
C4235 C 0.55809 0.62073 0.93394 0.0
C4236 C 0.55142 0.60444 0.92968 0.0
C4237 C 0.54485 0.60132 0.91316 0.0
C4238 C 0.5599 0.62541 0.98242 0.0
C4239 C 0.57616 0.63307 0.98481 0.0
C4240 C 0.55427 0.6209 0.96591 0.0
C4241 C 0.56466 0.62427 0.95148 0.0
C4242 C 0.58101 0.63173 0.95385 0.0
C4243 C 0.58679 0.63593 0.97041 0.0
H4244 H 0.66036 0.30431 0.15442 0.0
H4245 H 0.60956 0.2814 0.15242 0.0
H4246 H 0.65433 0.31491 0.18357 0.0
H4247 H 0.60363 0.29196 0.18142 0.0
H4248 H 0.60608 0.29784 0.2399 0.0
H4249 H 0.61412 0.28668 0.21162 0.0
H4250 H 0.63397 0.33673 0.19738 0.0
H4251 H 0.62593 0.348 0.22574 0.0
C4252 C 0.64797 0.30146 0.16022 0.0
C4253 C 0.63544 0.29201 0.15111 0.0
C4254 C 0.6445 0.30761 0.17685 0.0
C4255 C 0.62853 0.30423 0.18476 0.0
C4256 C 0.61612 0.29461 0.17572 0.0
C4257 C 0.61949 0.28864 0.15907 0.0
C4258 C 0.61224 0.30648 0.2308 0.0
C4259 C 0.61529 0.32384 0.23505 0.0
C4260 C 0.61678 0.30008 0.21457 0.0
C4261 C 0.62461 0.31086 0.20228 0.0
C4262 C 0.62806 0.32811 0.20665 0.0
C4263 C 0.62336 0.33457 0.22285 0.0
H4264 H 0.94832 0.35993 0.39644 0.0
H4265 H 0.9601 0.41268 0.41007 0.0
H4266 H 0.93772 0.35473 0.42566 0.0
H4267 H 0.9498 0.40727 0.43953 0.0
H4268 H 0.95149 0.37788 0.49394 0.0
H4269 H 0.96055 0.38571 0.4647 0.0
H4270 H 0.91192 0.36745 0.44471 0.0
H4271 H 0.90266 0.35993 0.47396 0.0
C4272 C 0.9487 0.3704 0.4057 0.0
C4273 C 0.95507 0.38671 0.401 0.0
C4274 C 0.94254 0.36744 0.42236 0.0
C4275 C 0.94293 0.38062 0.43476 0.0
C4276 C 0.9494 0.39691 0.43016 0.0
C4277 C 0.95524 0.4 0.41334 0.0
C4278 C 0.94268 0.37568 0.48332 0.0
C4279 C 0.92639 0.36825 0.48621 0.0
C4280 C 0.94783 0.38024 0.46664 0.0
C4281 C 0.93692 0.37713 0.45253 0.0
C4282 C 0.92056 0.36991 0.45542 0.0
C4283 C 0.91526 0.36567 0.47213 0.0
H4284 H 0.87081 0.70187 0.74044 0.0
H4285 H 0.88863 0.65309 0.72016 0.0
H4286 H 0.86352 0.71134 0.71121 0.0
H4287 H 0.88163 0.66276 0.69091 0.0
H4288 H 0.88917 0.69904 0.64271 0.0
H4289 H 0.89445 0.68849 0.67195 0.0
H4290 H 0.84207 0.70101 0.68607 0.0
H4291 H 0.83659 0.71128 0.65665 0.0
C4292 C 0.87311 0.69317 0.72975 0.0
C4293 C 0.88031 0.67676 0.73256 0.0
C4294 C 0.86887 0.69856 0.71308 0.0
C4295 C 0.87207 0.68777 0.69889 0.0
C4296 C 0.87913 0.67132 0.70168 0.0
C4297 C 0.88304 0.66578 0.71839 0.0
C4298 C 0.87877 0.69956 0.65205 0.0
C4299 C 0.86247 0.706 0.64742 0.0
C4300 C 0.88178 0.69342 0.66871 0.0
C4301 C 0.86865 0.69392 0.68117 0.0
C4302 C 0.8524 0.70054 0.67665 0.0
C4303 C 0.84927 0.70635 0.65985 0.0
H4304 H 0.55152 0.36037 0.60495 0.0
H4305 H 0.5399 0.41338 0.59219 0.0
H4306 H 0.56301 0.35588 0.57599 0.0
H4307 H 0.55114 0.40868 0.56293 0.0
H4308 H 0.55089 0.38013 0.50795 0.0
H4309 H 0.54121 0.38771 0.53704 0.0
H4310 H 0.58923 0.36886 0.55795 0.0
H4311 H 0.59912 0.36157 0.52885 0.0
C4312 C 0.55137 0.37105 0.59593 0.0
C4313 C 0.54477 0.38723 0.6008 0.0
C4314 C 0.55805 0.36849 0.57942 0.0
C4315 C 0.55799 0.38195 0.56732 0.0
C4316 C 0.5513 0.39811 0.57208 0.0
C4317 C 0.54492 0.40079 0.58878 0.0
C4318 C 0.55944 0.37776 0.51874 0.0
C4319 C 0.57573 0.37021 0.51616 0.0
C4320 C 0.55394 0.38219 0.53534 0.0
C4321 C 0.56448 0.37882 0.54966 0.0
C4322 C 0.58087 0.37152 0.54708 0.0
C4323 C 0.58652 0.36742 0.53045 0.0
H4324 H 0.88942 0.34898 0.7794 0.0
H4325 H 0.87214 0.30009 0.75898 0.0
H4326 H 0.88186 0.33939 0.80857 0.0
H4327 H 0.86426 0.29072 0.78807 0.0
H4328 H 0.8366 0.29031 0.84211 0.0
H4329 H 0.84236 0.30103 0.8129 0.0
H4330 H 0.89453 0.31351 0.82773 0.0
H4331 H 0.88898 0.30249 0.85676 0.0
C4332 C 0.8838 0.3363 0.78112 0.0
C4333 C 0.88142 0.32526 0.76695 0.0
C4334 C 0.87957 0.33081 0.79778 0.0
C4335 C 0.87251 0.31434 0.80049 0.0
C4336 C 0.8696 0.30351 0.78627 0.0
C4337 C 0.87418 0.30885 0.76967 0.0
C4338 C 0.84929 0.29533 0.83911 0.0
C4339 C 0.86236 0.2955 0.85168 0.0
C4340 C 0.85257 0.30142 0.82243 0.0
C4341 C 0.86885 0.30814 0.81817 0.0
C4342 C 0.88184 0.30852 0.83077 0.0
C4343 C 0.87868 0.3021 0.84732 0.0
H4344 H 0.902 0.62641 0.02355 0.0
H4345 H 0.95328 0.6425 0.00862 0.0
H4346 H 0.91279 0.61906 0.05231 0.0
H4347 H 0.96393 0.63518 0.03725 0.0
H4348 H 0.96958 0.64241 0.09601 0.0
H4349 H 0.959 0.64765 0.06689 0.0
H4350 H 0.93373 0.59801 0.06699 0.0
H4351 H 0.94437 0.59268 0.09627 0.0
C4352 C 0.91556 0.62829 0.02636 0.0
C4353 C 0.92676 0.63512 0.01382 0.0
C4354 C 0.92173 0.624 0.04278 0.0
C4355 C 0.93917 0.62664 0.047 0.0
C4356 C 0.95039 0.63319 0.03439 0.0
C4357 C 0.94428 0.63731 0.01797 0.0
C4358 C 0.96181 0.63257 0.08984 0.0
C4359 C 0.95783 0.61712 0.09843 0.0
C4360 C 0.95583 0.63555 0.07312 0.0
C4361 C 0.94558 0.62322 0.06468 0.0
C4362 C 0.94153 0.60777 0.07326 0.0
C4363 C 0.9477 0.60469 0.08995 0.0
H4364 H 0.6364 0.65913 0.26938 0.0
H4365 H 0.59201 0.69261 0.26826 0.0
H4366 H 0.64476 0.67103 0.2973 0.0
H4367 H 0.59917 0.70341 0.29673 0.0
H4368 H 0.62168 0.73173 0.34126 0.0
H4369 H 0.61612 0.72091 0.31235 0.0
H4370 H 0.64033 0.67242 0.32613 0.0
H4371 H 0.64727 0.68418 0.35444 0.0
C4372 C 0.62831 0.66886 0.27533 0.0
C4373 C 0.61367 0.67509 0.26674 0.0
C4374 C 0.63298 0.67564 0.2914 0.0
C4375 C 0.62275 0.68837 0.29947 0.0
C4376 C 0.60779 0.69412 0.29088 0.0
C4377 C 0.60351 0.68779 0.2746 0.0
C4378 C 0.62594 0.71885 0.33791 0.0
C4379 C 0.63489 0.70876 0.34991 0.0
C4380 C 0.62259 0.71248 0.3214 0.0
C4381 C 0.62748 0.69557 0.31674 0.0
C4382 C 0.63658 0.68557 0.32892 0.0
C4383 C 0.64048 0.69222 0.34524 0.0
H4384 H 0.89424 0.55283 0.6432 0.0
H4385 H 0.90843 0.53941 0.59098 0.0
H4386 H 0.9231 0.5645 0.64807 0.0
H4387 H 0.93757 0.55077 0.5961 0.0
H4388 H 0.99181 0.55199 0.6266 0.0
H4389 H 0.96297 0.54152 0.61899 0.0
H4390 H 0.94125 0.59065 0.63355 0.0
H4391 H 0.97009 0.60133 0.64078 0.0
C4392 C 0.90356 0.5523 0.63279 0.0
C4393 C 0.89911 0.54518 0.61672 0.0
C4394 C 0.92001 0.55907 0.63556 0.0
C4395 C 0.93246 0.55854 0.62244 0.0
C4396 C 0.92814 0.55129 0.6064 0.0
C4397 C 0.91151 0.54485 0.60348 0.0
C4398 C 0.98089 0.5606 0.62803 0.0
C4399 C 0.98317 0.57746 0.63432 0.0
C4400 C 0.96445 0.55463 0.6236 0.0
C4401 C 0.94998 0.5653 0.62573 0.0
C4402 C 0.95225 0.5822 0.63185 0.0
C4403 C 0.96872 0.5883 0.63592 0.0
H4404 H 0.64916 0.72281 0.89055 0.0
H4405 H 0.6976 0.74285 0.87161 0.0
H4406 H 0.65836 0.69355 0.88289 0.0
H4407 H 0.70657 0.71365 0.86365 0.0
H4408 H 0.70708 0.65888 0.83769 0.0
H4409 H 0.69603 0.68815 0.84264 0.0
H4410 H 0.68439 0.67486 0.89544 0.0
H4411 H 0.69572 0.64585 0.89069 0.0
C4412 C 0.66164 0.72099 0.88452 0.0
C4413 C 0.6727 0.73508 0.88175 0.0
C4414 C 0.6669 0.70428 0.88021 0.0
C4415 C 0.68316 0.70142 0.8727 0.0
C4416 C 0.69394 0.71556 0.86932 0.0
C4417 C 0.68883 0.73222 0.87396 0.0
C4418 C 0.70213 0.66223 0.85033 0.0
C4419 C 0.70233 0.65013 0.86383 0.0
C4420 C 0.69586 0.67894 0.85315 0.0
C4421 C 0.68931 0.68365 0.86939 0.0
C4422 C 0.68923 0.67146 0.88277 0.0
C4423 C 0.69583 0.65493 0.88007 0.0
H4424 H 0.59714 0.44432 0.08913 0.0
H4425 H 0.59909 0.46838 0.1394 0.0
H4426 H 0.56771 0.43448 0.09508 0.0
H4427 H 0.56977 0.45862 0.14523 0.0
H4428 H 0.51104 0.45523 0.14088 0.0
H4429 H 0.53994 0.46494 0.1333 0.0
H4430 H 0.55294 0.41351 0.11635 0.0
H4431 H 0.52391 0.40365 0.12402 0.0
C4432 C 0.59127 0.44757 0.10139 0.0
C4433 C 0.60042 0.45715 0.11379 0.0
C4434 C 0.57449 0.44185 0.10482 0.0
C4435 C 0.56648 0.44583 0.12059 0.0
C4436 C 0.57558 0.45551 0.1329 0.0
C4437 C 0.5924 0.46103 0.12958 0.0
C4438 C 0.51999 0.44598 0.13546 0.0
C4439 C 0.51519 0.42864 0.13311 0.0
C4440 C 0.53657 0.45154 0.1312 0.0
C4441 C 0.54868 0.43996 0.12432 0.0
C4442 C 0.5438 0.42272 0.12155 0.0
C4443 C 0.52724 0.41708 0.12602 0.0
H4444 H 0.80245 0.35555 0.39329 0.0
H4445 H 0.79002 0.33925 0.34145 0.0
H4446 H 0.81423 0.32695 0.39945 0.0
H4447 H 0.80148 0.31046 0.34783 0.0
H4448 H 0.80332 0.25719 0.37852 0.0
H4449 H 0.79232 0.28579 0.37084 0.0
H4450 H 0.8407 0.30858 0.38627 0.0
H4451 H 0.85191 0.27996 0.39361 0.0
C4452 C 0.80215 0.34583 0.38325 0.0
C4453 C 0.7953 0.3496 0.36689 0.0
C4454 C 0.80898 0.32953 0.38676 0.0
C4455 C 0.80876 0.31661 0.37409 0.0
C4456 C 0.80174 0.32026 0.3578 0.0
C4457 C 0.79524 0.3367 0.35416 0.0
C4458 C 0.81163 0.2683 0.38019 0.0
C4459 C 0.82846 0.26638 0.38668 0.0
C4460 C 0.80537 0.2846 0.37572 0.0
C4461 C 0.81569 0.29929 0.37801 0.0
C4462 C 0.83251 0.2974 0.38447 0.0
C4463 C 0.83891 0.28106 0.38859 0.0
H4464 H 0.90769 0.46094 0.9107 0.0
H4465 H 0.89337 0.44867 0.85824 0.0
H4466 H 0.93689 0.44998 0.90517 0.0
H4467 H 0.92232 0.43741 0.85293 0.0
H4468 H 0.96983 0.40104 0.85897 0.0
H4469 H 0.94084 0.41127 0.86626 0.0
H4470 H 0.96209 0.45995 0.8829 0.0
H4471 H 0.99107 0.44993 0.87527 0.0
C4472 C 0.91075 0.45583 0.89805 0.0
C4473 C 0.8983 0.45571 0.88488 0.0
C4474 C 0.92742 0.44963 0.8949 0.0
C4475 C 0.93174 0.44283 0.87866 0.0
C4476 C 0.91923 0.44249 0.86559 0.0
C4477 C 0.90273 0.44902 0.86861 0.0
C4478 C 0.96832 0.41388 0.86427 0.0
C4479 C 0.98268 0.42472 0.86649 0.0
C4480 C 0.95177 0.41972 0.86839 0.0
C4481 C 0.94933 0.43636 0.87514 0.0
C4482 C 0.9637 0.44703 0.87781 0.0
C4483 C 0.98022 0.44133 0.87335 0.0
H4484 H 0.80609 0.65189 0.16013 0.0
H4485 H 0.78 0.65251 0.11085 0.0
H4486 H 0.81695 0.68106 0.15465 0.0
H4487 H 0.7908 0.68151 0.10548 0.0
H4488 H 0.79666 0.73959 0.11076 0.0
H4489 H 0.78614 0.71103 0.11834 0.0
H4490 H 0.83764 0.69579 0.1331 0.0
H4491 H 0.84832 0.72456 0.12548 0.0
C4492 C 0.8026 0.65827 0.1482 0.0
C4493 C 0.79215 0.64993 0.13594 0.0
C4494 C 0.80892 0.67489 0.14503 0.0
C4495 C 0.80467 0.68353 0.12967 0.0
C4496 C 0.79413 0.67522 0.1175 0.0
C4497 C 0.78801 0.65858 0.12056 0.0
C4498 C 0.80578 0.73023 0.11571 0.0
C4499 C 0.82337 0.73433 0.11742 0.0
C4500 C 0.79974 0.71384 0.11997 0.0
C4501 C 0.81109 0.70119 0.12619 0.0
C4502 C 0.8286 0.70536 0.1284 0.0
C4503 C 0.83472 0.72177 0.12396 0.0
H4504 H 0.52464 0.59796 0.37485 0.0
H4505 H 0.50976 0.54588 0.36152 0.0
H4506 H 0.55373 0.58771 0.38181 0.0
H4507 H 0.53866 0.53581 0.36842 0.0
H4508 H 0.597 0.53042 0.35874 0.0
H4509 H 0.56766 0.54074 0.35434 0.0
H4510 H 0.56953 0.56746 0.40318 0.0
H4511 H 0.59905 0.55704 0.4077 0.0
C4512 C 0.52752 0.58435 0.37352 0.0
C4513 C 0.51491 0.57276 0.36752 0.0
C4514 C 0.54413 0.57849 0.37758 0.0
C4515 C 0.54845 0.56099 0.37553 0.0
C4516 C 0.53574 0.54939 0.36992 0.0
C4517 C 0.51915 0.55518 0.36603 0.0
C4518 C 0.59118 0.53845 0.36859 0.0
C4519 C 0.60034 0.54288 0.38359 0.0
C4520 C 0.57434 0.5443 0.36609 0.0
C4521 C 0.56632 0.55485 0.37844 0.0
C4522 C 0.57546 0.5594 0.39342 0.0
C4523 C 0.59229 0.55335 0.39604 0.0
H4524 H 0.6506 0.27843 0.60738 0.0
H4525 H 0.69956 0.2573 0.62364 0.0
H4526 H 0.66071 0.30742 0.61478 0.0
H4527 H 0.70946 0.28628 0.63137 0.0
H4528 H 0.71025 0.34033 0.65955 0.0
H4529 H 0.69957 0.31113 0.65368 0.0
H4530 H 0.68655 0.32632 0.60173 0.0
H4531 H 0.69753 0.35533 0.60739 0.0
C4532 C 0.66343 0.27996 0.61271 0.0
C4533 C 0.67432 0.26563 0.61489 0.0
C4534 C 0.66921 0.29652 0.61687 0.0
C4535 C 0.68583 0.299 0.62362 0.0
C4536 C 0.69655 0.28465 0.62626 0.0
C4537 C 0.69091 0.26812 0.62177 0.0
C4538 C 0.70512 0.33741 0.64689 0.0
C4539 C 0.70476 0.35007 0.63391 0.0
C4540 C 0.69907 0.32074 0.64354 0.0
C4541 C 0.69221 0.31659 0.62729 0.0
C4542 C 0.69168 0.32928 0.61439 0.0
C4543 C 0.69805 0.34581 0.61761 0.0
H4544 H 0.64222 0.89305 0.55332 0.0
H4545 H 0.59036 0.90872 0.54019 0.0
H4546 H 0.64825 0.9221 0.56406 0.0
H4547 H 0.59658 0.93789 0.55064 0.0
H4548 H 0.62605 0.99148 0.55084 0.0
H4549 H 0.61872 0.96243 0.54088 0.0
H4550 H 0.63564 0.94141 0.58958 0.0
H4551 H 0.64267 0.97048 0.59974 0.0
C4552 C 0.63215 0.90271 0.55266 0.0
C4553 C 0.61582 0.89863 0.54591 0.0
C4554 C 0.63558 0.91928 0.55889 0.0
C4555 C 0.62286 0.93215 0.55818 0.0
C4556 C 0.6066 0.92816 0.55127 0.0
C4557 C 0.60304 0.91149 0.54536 0.0
C4558 C 0.62812 0.98067 0.55945 0.0
C4559 C 0.63493 0.98323 0.57606 0.0
C4560 C 0.62386 0.96409 0.55377 0.0
C4561 C 0.62667 0.94976 0.56447 0.0
C4562 C 0.63345 0.95229 0.58108 0.0
C4563 C 0.63737 0.9689 0.5869 0.0
H4564 H 0.08934 0.59009 0.45974 0.0
H4565 H 0.14139 0.60572 0.4473 0.0
H4566 H 0.09562 0.56098 0.4491 0.0
H4567 H 0.14746 0.57676 0.43635 0.0
H4568 H 0.14229 0.52839 0.40052 0.0
H4569 H 0.1349 0.55746 0.41051 0.0
H4570 H 0.11797 0.53649 0.45923 0.0
H4571 H 0.12569 0.50748 0.44946 0.0
C4572 C 0.10207 0.58733 0.45467 0.0
C4573 C 0.1149 0.60015 0.45439 0.0
C4574 C 0.10566 0.5707 0.44864 0.0
C4575 C 0.12199 0.56673 0.44188 0.0
C4576 C 0.13474 0.57957 0.4414 0.0
C4577 C 0.13128 0.59608 0.44776 0.0
C4578 C 0.13691 0.52999 0.41332 0.0
C4579 C 0.1346 0.51569 0.42423 0.0
C4580 C 0.13277 0.54659 0.41904 0.0
C4581 C 0.12589 0.54913 0.43561 0.0
C4582 C 0.12318 0.53482 0.44636 0.0
C4583 C 0.12766 0.51827 0.44079 0.0
H4584 H 0.64385 0.89126 0.69821 0.0
H4585 H 0.65737 0.83841 0.70968 0.0
H4586 H 0.67297 0.89633 0.68727 0.0
H4587 H 0.68666 0.84365 0.69899 0.0
H4588 H 0.74128 0.87148 0.70009 0.0
H4589 H 0.71201 0.8642 0.70935 0.0
H4590 H 0.69184 0.88426 0.66149 0.0
H4591 H 0.72116 0.89129 0.65203 0.0
C4592 C 0.65305 0.88075 0.69844 0.0
C4593 C 0.64836 0.86445 0.70484 0.0
C4594 C 0.66966 0.88363 0.69207 0.0
C4595 C 0.68198 0.87036 0.69227 0.0
C4596 C 0.67736 0.85409 0.69875 0.0
C4597 C 0.66063 0.85109 0.70481 0.0
C4598 C 0.73062 0.87421 0.69149 0.0
C4599 C 0.73348 0.88198 0.67535 0.0
C4600 C 0.71391 0.86997 0.69676 0.0
C4601 C 0.69974 0.87372 0.68613 0.0
C4602 C 0.70259 0.88132 0.66993 0.0
C4603 C 0.71934 0.88525 0.6645 0.0
H4604 H 0.3868 0.48183 0.90878 0.0
H4605 H 0.33978 0.47942 0.93835 0.0
H4606 H 0.39532 0.4536 0.91988 0.0
H4607 H 0.34719 0.45067 0.94821 0.0
H4608 H 0.36975 0.40639 0.97701 0.0
H4609 H 0.36332 0.4352 0.96653 0.0
H4610 H 0.3924 0.42452 0.91996 0.0
H4611 H 0.4001 0.3963 0.93152 0.0
C4612 C 0.37818 0.47503 0.91744 0.0
C4613 C 0.36275 0.48272 0.92288 0.0
C4614 C 0.38294 0.45878 0.92375 0.0
C4615 C 0.37207 0.44966 0.93518 0.0
C4616 C 0.3563 0.45733 0.94 0.0
C4617 C 0.35188 0.47377 0.93419 0.0
C4618 C 0.37483 0.41036 0.9646 0.0
C4619 C 0.38537 0.39925 0.95504 0.0
C4620 C 0.37099 0.42683 0.95841 0.0
C4621 C 0.37705 0.43235 0.94215 0.0
C4622 C 0.38768 0.42105 0.93263 0.0
C4623 C 0.39202 0.40478 0.93915 0.0
H4624 H 0.34113 0.65919 0.71242 0.0
H4625 H 0.35465 0.6064 0.70063 0.0
H4626 H 0.31173 0.65391 0.70197 0.0
H4627 H 0.32546 0.60132 0.68991 0.0
H4628 H 0.27837 0.6079 0.65326 0.0
H4629 H 0.30738 0.61455 0.66372 0.0
H4630 H 0.28602 0.63245 0.71192 0.0
H4631 H 0.25695 0.62548 0.70165 0.0
C4632 C 0.33784 0.64651 0.70756 0.0
C4633 C 0.35015 0.6332 0.70736 0.0
C4634 C 0.32105 0.64349 0.70166 0.0
C4635 C 0.31645 0.62724 0.69511 0.0
C4636 C 0.32877 0.61399 0.6948 0.0
C4637 C 0.34541 0.61688 0.70102 0.0
C4638 C 0.27984 0.61334 0.66605 0.0
C4639 C 0.26542 0.61613 0.67667 0.0
C4640 C 0.29642 0.61707 0.67203 0.0
C4641 C 0.29884 0.62398 0.68859 0.0
C4642 C 0.28442 0.6272 0.69906 0.0
C4643 C 0.26785 0.62314 0.69322 0.0
H4644 H 0.89734 0.10359 0.06536 0.0
H4645 H 0.87506 0.09111 0.01598 0.0
H4646 H 0.89113 0.07458 0.07568 0.0
H4647 H 0.87034 0.06157 0.02541 0.0
H4648 H 0.84621 0.01578 0.05108 0.0
H4649 H 0.85312 0.04466 0.04131 0.0
H4650 H 0.89657 0.04594 0.07648 0.0
H4651 H 0.88836 0.01754 0.0873 0.0
C4652 C 0.89145 0.09441 0.05662 0.0
C4653 C 0.88653 0.09946 0.03998 0.0
C4654 C 0.88798 0.07769 0.06244 0.0
C4655 C 0.88004 0.0655 0.0515 0.0
C4656 C 0.87589 0.07057 0.03452 0.0
C4657 C 0.87877 0.08746 0.02896 0.0
C4658 C 0.85721 0.02234 0.0567 0.0
C4659 C 0.86679 0.01455 0.06988 0.0
C4660 C 0.86135 0.03888 0.05097 0.0
C4661 C 0.87561 0.04783 0.05786 0.0
C4662 C 0.88531 0.03977 0.07101 0.0
C4663 C 0.88075 0.02342 0.07716 0.0
H4664 H 0.74418 0.12387 0.8009 0.0
H4665 H 0.7221 0.10742 0.84938 0.0
H4666 H 0.7154 0.13169 0.79048 0.0
H4667 H 0.69331 0.11491 0.83876 0.0
H4668 H 0.64581 0.10845 0.80138 0.0
H4669 H 0.67463 0.10232 0.81259 0.0
H4670 H 0.69063 0.15415 0.80011 0.0
H4671 H 0.66162 0.1605 0.78919 0.0
C4672 C 0.73319 0.12194 0.80932 0.0
C4673 C 0.73536 0.11502 0.82595 0.0
C4674 C 0.71678 0.12649 0.80339 0.0
C4675 C 0.70222 0.12386 0.81383 0.0
C4676 C 0.70437 0.11699 0.83046 0.0
C4677 C 0.72082 0.11278 0.83654 0.0
C4678 C 0.65547 0.11855 0.80101 0.0
C4679 C 0.65148 0.13496 0.79439 0.0
C4680 C 0.6719 0.11505 0.80752 0.0
C4681 C 0.68476 0.12778 0.80721 0.0
C4682 C 0.6809 0.14413 0.80043 0.0
C4683 C 0.66432 0.14776 0.79425 0.0
H4684 H 0.84824 0.84084 0.30737 0.0
H4685 H 0.84939 0.89131 0.28369 0.0
H4686 H 0.81896 0.84653 0.31788 0.0
H4687 H 0.82025 0.89686 0.29408 0.0
H4688 H 0.7617 0.89166 0.29752 0.0
H4689 H 0.79058 0.88425 0.2877 0.0
H4690 H 0.80407 0.86786 0.33919 0.0
H4691 H 0.77502 0.87538 0.34919 0.0
C4692 C 0.84225 0.8531 0.30437 0.0
C4693 C 0.8511 0.86561 0.29467 0.0
C4694 C 0.82556 0.85637 0.31047 0.0
C4695 C 0.81737 0.8721 0.30673 0.0
C4696 C 0.82622 0.88456 0.29701 0.0
C4697 C 0.84293 0.8814 0.29113 0.0
C4698 C 0.77075 0.88639 0.30678 0.0
C4699 C 0.76608 0.88418 0.32417 0.0
C4700 C 0.78732 0.88223 0.30114 0.0
C4701 C 0.79956 0.87559 0.31271 0.0
C4702 C 0.79482 0.8729 0.33 0.0
C4703 C 0.77825 0.87728 0.33572 0.0
H4704 H 0.46039 0.41376 0.09078 0.0
H4705 H 0.44933 0.36092 0.10469 0.0
H4706 H 0.44998 0.40811 0.06142 0.0
H4707 H 0.43866 0.35547 0.07557 0.0
H4708 H 0.40306 0.36001 0.02776 0.0
H4709 H 0.41256 0.36776 0.05685 0.0
H4710 H 0.46068 0.38666 0.0362 0.0
H4711 H 0.45138 0.37863 0.0071 0.0
C4712 C 0.45568 0.401 0.08759 0.0
C4713 C 0.45572 0.38776 0.09998 0.0
C4714 C 0.44978 0.39778 0.07083 0.0
C4715 C 0.44348 0.38139 0.06635 0.0
C4716 C 0.44333 0.36824 0.07878 0.0
C4717 C 0.44955 0.37135 0.09539 0.0
C4718 C 0.4156 0.36594 0.02941 0.0
C4719 C 0.42652 0.36865 0.01519 0.0
C4720 C 0.42104 0.37031 0.04603 0.0
C4721 C 0.43732 0.37778 0.04867 0.0
C4722 C 0.44802 0.381 0.03443 0.0
C4723 C 0.44274 0.37632 0.01784 0.0
H4724 H 0.37388 0.69778 0.75909 0.0
H4725 H 0.39114 0.64908 0.77999 0.0
H4726 H 0.36612 0.7075 0.7881 0.0
H4727 H 0.3837 0.65902 0.80909 0.0
H4728 H 0.39101 0.69637 0.85685 0.0
H4729 H 0.39642 0.68498 0.82796 0.0
H4730 H 0.34429 0.69764 0.8131 0.0
H4731 H 0.33867 0.70874 0.8422 0.0
C4732 C 0.37596 0.68914 0.76988 0.0
C4733 C 0.38315 0.67269 0.7673 0.0
C4734 C 0.37144 0.69468 0.78643 0.0
C4735 C 0.37435 0.684 0.80076 0.0
C4736 C 0.38139 0.66749 0.79821 0.0
C4737 C 0.38557 0.6618 0.78159 0.0
C4738 C 0.38068 0.69672 0.84744 0.0
C4739 C 0.36442 0.70349 0.85176 0.0
C4740 C 0.38376 0.69009 0.83097 0.0
C4741 C 0.37075 0.6904 0.81838 0.0
C4742 C 0.35452 0.69728 0.82261 0.0
C4743 C 0.35131 0.70359 0.83923 0.0
H4744 H 0.04963 0.6204 0.50726 0.0
H4745 H 0.09734 0.64076 0.52764 0.0
H4746 H 0.03997 0.61371 0.53657 0.0
H4747 H 0.08746 0.63438 0.55698 0.0
H4748 H 0.04883 0.64384 0.60335 0.0
H4749 H 0.06053 0.64756 0.57432 0.0
H4750 H 0.05043 0.59395 0.56323 0.0
H4751 H 0.03902 0.59005 0.5925 0.0
C4752 C 0.05809 0.62332 0.51799 0.0
C4753 C 0.07421 0.63114 0.51521 0.0
C4754 C 0.05259 0.61943 0.53471 0.0
C4755 C 0.06297 0.6236 0.54894 0.0
C4756 C 0.07923 0.63111 0.54616 0.0
C4757 C 0.08489 0.63468 0.52941 0.0
C4758 C 0.0491 0.63284 0.59473 0.0
C4759 C 0.04297 0.61666 0.60015 0.0
C4760 C 0.05592 0.63495 0.5782 0.0
C4761 C 0.05642 0.62102 0.56665 0.0
C4762 C 0.05016 0.60487 0.57196 0.0
C4763 C 0.04367 0.60265 0.58866 0.0
H4764 H 0.10695 0.28308 0.34983 0.0
H4765 H 0.15824 0.3047 0.34632 0.0
H4766 H 0.1006 0.2935 0.32081 0.0
H4767 H 0.15179 0.31516 0.31726 0.0
H4768 H 0.12402 0.34818 0.27513 0.0
H4769 H 0.1315 0.33734 0.30379 0.0
H4770 H 0.11082 0.2874 0.29035 0.0
H4771 H 0.10338 0.29814 0.26172 0.0
C4772 C 0.11687 0.29003 0.34286 0.0
C4773 C 0.1331 0.29306 0.35036 0.0
C4774 C 0.11325 0.29591 0.32622 0.0
C4775 C 0.12571 0.30512 0.31681 0.0
C4776 C 0.14192 0.30819 0.3243 0.0
C4777 C 0.14563 0.30212 0.34087 0.0
C4778 C 0.12112 0.33487 0.27827 0.0
C4779 C 0.11308 0.32402 0.26617 0.0
C4780 C 0.12548 0.32866 0.29464 0.0
C4781 C 0.12169 0.31155 0.29927 0.0
C4782 C 0.11374 0.30069 0.28715 0.0
C4783 C 0.10957 0.30683 0.27074 0.0
H4784 H 0.45933 0.58809 0.40962 0.0
H4785 H 0.4482 0.64077 0.39518 0.0
H4786 H 0.44849 0.59392 0.43881 0.0
H4787 H 0.43709 0.64639 0.42412 0.0
H4788 H 0.40132 0.64216 0.47204 0.0
H4789 H 0.41095 0.63435 0.44296 0.0
H4790 H 0.45898 0.61548 0.46384 0.0
H4791 H 0.44957 0.62357 0.49287 0.0
C4792 C 0.45449 0.60085 0.41265 0.0
C4793 C 0.45467 0.614 0.40017 0.0
C4794 C 0.44835 0.60417 0.42931 0.0
C4795 C 0.44192 0.62057 0.43361 0.0
C4796 C 0.44186 0.63361 0.42106 0.0
C4797 C 0.44832 0.63041 0.40456 0.0
C4798 C 0.41388 0.63623 0.47043 0.0
C4799 C 0.42473 0.63354 0.48469 0.0
C4800 C 0.41939 0.63183 0.45382 0.0
C4801 C 0.43568 0.62432 0.45125 0.0
C4802 C 0.44632 0.62115 0.46554 0.0
C4803 C 0.44097 0.62588 0.4821 0.0
H4804 H 0.15999 0.69194 0.15209 0.0
H4805 H 0.10925 0.71497 0.14999 0.0
H4806 H 0.15421 0.68201 0.18151 0.0
H4807 H 0.10359 0.70514 0.17935 0.0
H4808 H 0.10863 0.70263 0.23822 0.0
H4809 H 0.11572 0.71208 0.20911 0.0
H4810 H 0.13332 0.66075 0.19657 0.0
H4811 H 0.12612 0.65114 0.22582 0.0
C4812 C 0.14764 0.69492 0.15791 0.0
C4813 C 0.13508 0.70428 0.14874 0.0
C4814 C 0.14431 0.68914 0.17469 0.0
C4815 C 0.12848 0.69285 0.18269 0.0
C4816 C 0.11596 0.70224 0.17354 0.0
C4817 C 0.11918 0.70779 0.1567 0.0
C4818 C 0.1141 0.69334 0.22933 0.0
C4819 C 0.11676 0.67611 0.23433 0.0
C4820 C 0.11806 0.69876 0.21262 0.0
C4821 C 0.12497 0.68712 0.20059 0.0
C4822 C 0.12807 0.66999 0.20565 0.0
C4823 C 0.12389 0.66449 0.22235 0.0
H4824 H 0.08772 0.38584 0.98304 0.0
H4825 H 0.05486 0.34099 0.9827 0.0
H4826 H 0.07613 0.39471 0.95522 0.0
H4827 H 0.04436 0.34872 0.95422 0.0
H4828 H 0.01783 0.37114 0.90849 0.0
H4829 H 0.02739 0.36551 0.93782 0.0
H4830 H 0.07608 0.39053 0.9264 0.0
H4831 H 0.06554 0.39752 0.89764 0.0
C4832 C 0.07813 0.3778 0.97682 0.0
C4833 C 0.07209 0.36281 0.98494 0.0
C4834 C 0.07156 0.38275 0.96077 0.0
C4835 C 0.05923 0.37248 0.9522 0.0
C4836 C 0.05341 0.35733 0.96043 0.0
C4837 C 0.05955 0.35273 0.97673 0.0
C4838 C 0.03048 0.37557 0.91245 0.0
C4839 C 0.04098 0.38474 0.90097 0.0
C4840 C 0.03612 0.37218 0.92922 0.0
C4841 C 0.05271 0.37729 0.93467 0.0
C4842 C 0.06313 0.38662 0.92301 0.0
C4843 C 0.05719 0.39054 0.90643 0.0
H4844 H 0.3925 0.28125 0.65154 0.0
H4845 H 0.34249 0.30593 0.65111 0.0
H4846 H 0.39748 0.29186 0.68071 0.0
H4847 H 0.34758 0.31661 0.68041 0.0
H4848 H 0.3752 0.34804 0.72467 0.0
H4849 H 0.36843 0.33767 0.69558 0.0
H4850 H 0.38448 0.28637 0.71014 0.0
H4851 H 0.39119 0.29657 0.73906 0.0
C4852 C 0.38256 0.28892 0.65767 0.0
C4853 C 0.36708 0.2927 0.64904 0.0
C4854 C 0.38539 0.29494 0.67441 0.0
C4855 C 0.37289 0.30502 0.68281 0.0
C4856 C 0.35746 0.30894 0.67417 0.0
C4857 C 0.35452 0.30273 0.65747 0.0
C4858 C 0.37719 0.33454 0.72167 0.0
C4859 C 0.3838 0.32316 0.73416 0.0
C4860 C 0.37324 0.3286 0.70507 0.0
C4861 C 0.37604 0.31124 0.70062 0.0
C4862 C 0.38239 0.29985 0.71317 0.0
C4863 C 0.38614 0.30571 0.72976 0.0
H4864 H 0.09827 0.46736 0.3591 0.0
H4865 H 0.09786 0.44356 0.40953 0.0
H4866 H 0.06889 0.45736 0.35413 0.0
H4867 H 0.06834 0.43345 0.40443 0.0
H4868 H 0.02386 0.40236 0.37644 0.0
H4869 H 0.05301 0.41232 0.38352 0.0
H4870 H 0.03943 0.46375 0.36704 0.0
H4871 H 0.01042 0.45395 0.36004 0.0
C4872 C 0.09191 0.46 0.36913 0.0
C4873 C 0.10037 0.45628 0.38473 0.0
C4874 C 0.07505 0.45435 0.36631 0.0
C4875 C 0.06635 0.44468 0.37892 0.0
C4876 C 0.07482 0.44081 0.39447 0.0
C4877 C 0.09164 0.44668 0.39741 0.0
C4878 C 0.02708 0.41581 0.37443 0.0
C4879 C 0.01485 0.42734 0.36761 0.0
C4880 C 0.04371 0.42151 0.37856 0.0
C4881 C 0.04846 0.43877 0.37572 0.0
C4882 C 0.03616 0.45033 0.36918 0.0
C4883 C 0.01952 0.44471 0.36525 0.0
H4884 H 0.30206 0.35381 0.10994 0.0
H4885 H 0.29085 0.3392 0.16256 0.0
H4886 H 0.31399 0.32516 0.10449 0.0
H4887 H 0.30248 0.31028 0.15689 0.0
H4888 H 0.30282 0.25626 0.12645 0.0
H4889 H 0.29263 0.28499 0.13468 0.0
H4890 H 0.3407 0.30706 0.11735 0.0
H4891 H 0.35113 0.27828 0.10944 0.0
C4892 C 0.30208 0.34445 0.12032 0.0
C4893 C 0.29548 0.3487 0.13667 0.0
C4894 C 0.30901 0.32812 0.11722 0.0
C4895 C 0.30917 0.31561 0.13029 0.0
C4896 C 0.30247 0.31976 0.14662 0.0
C4897 C 0.29587 0.33626 0.14985 0.0
C4898 C 0.31127 0.26723 0.12453 0.0
C4899 C 0.32775 0.26506 0.11726 0.0
C4900 C 0.30547 0.28361 0.12933 0.0
C4901 C 0.3159 0.29815 0.12661 0.0
C4902 C 0.33244 0.296 0.11952 0.0
C4903 C 0.33839 0.27957 0.11506 0.0
H4904 H 0.40623 0.53884 0.91171 0.0
H4905 H 0.39377 0.55216 0.85903 0.0
H4906 H 0.43548 0.55029 0.90756 0.0
H4907 H 0.42273 0.56386 0.85509 0.0
H4908 H 0.47016 0.59929 0.86172 0.0
H4909 H 0.44094 0.58958 0.86889 0.0
H4910 H 0.46135 0.54084 0.88641 0.0
H4911 H 0.4905 0.55033 0.87893 0.0
C4912 C 0.40971 0.54428 0.89932 0.0
C4913 C 0.39777 0.54452 0.88567 0.0
C4914 C 0.4264 0.55079 0.89695 0.0
C4915 C 0.43124 0.55802 0.88105 0.0
C4916 C 0.41923 0.55851 0.86753 0.0
C4917 C 0.40272 0.55168 0.86976 0.0
C4918 C 0.46842 0.58658 0.86727 0.0
C4919 C 0.48257 0.57552 0.86967 0.0
C4920 C 0.45173 0.58103 0.87131 0.0
C4921 C 0.44897 0.56448 0.87818 0.0
C4922 C 0.46318 0.55369 0.88123 0.0
C4923 C 0.47981 0.55909 0.87686 0.0
H4924 H 0.18415 0.64765 0.64811 0.0
H4925 H 0.23097 0.65782 0.61992 0.0
H4926 H 0.17348 0.67629 0.64103 0.0
H4927 H 0.22131 0.68712 0.61414 0.0
H4928 H 0.19341 0.73254 0.59086 0.0
H4929 H 0.20408 0.704 0.59818 0.0
H4930 H 0.17369 0.70498 0.64512 0.0
H4931 H 0.16189 0.73281 0.63667 0.0
C4932 C 0.19229 0.65626 0.64069 0.0
C4933 C 0.2083 0.65063 0.63447 0.0
C4934 C 0.18628 0.67279 0.63671 0.0
C4935 C 0.19643 0.68431 0.62692 0.0
C4936 C 0.21278 0.67865 0.62124 0.0
C4937 C 0.21848 0.6619 0.62469 0.0
C4938 C 0.18907 0.72654 0.60272 0.0
C4939 C 0.17683 0.73475 0.61319 0.0
C4940 C 0.19529 0.71019 0.60707 0.0
C4941 C 0.18988 0.70191 0.62236 0.0
C4942 C 0.17791 0.71052 0.63303 0.0
C4943 C 0.17123 0.7266 0.62832 0.0
H4944 H 0.10464 0.55068 0.14171 0.0
H4945 H 0.09094 0.53809 0.08915 0.0
H4946 H 0.0758 0.56241 0.14645 0.0
H4947 H 0.0618 0.54953 0.09414 0.0
H4948 H 0.00725 0.55079 0.12423 0.0
H4949 H 0.03605 0.54019 0.11663 0.0
H4950 H 0.05809 0.58886 0.13221 0.0
H4951 H 0.02932 0.59966 0.13945 0.0
C4952 C 0.09543 0.55034 0.13119 0.0
C4953 C 0.10001 0.54344 0.11506 0.0
C4954 C 0.07899 0.55715 0.1339 0.0
C4955 C 0.06668 0.55688 0.12065 0.0
C4956 C 0.07113 0.54984 0.10454 0.0
C4957 C 0.08775 0.54336 0.1017 0.0
C4958 C 0.01823 0.55927 0.1259 0.0
C4959 C 0.01607 0.57603 0.13248 0.0
C4960 C 0.03465 0.55324 0.12146 0.0
C4961 C 0.04919 0.56374 0.12388 0.0
C4962 C 0.04703 0.58054 0.13028 0.0
C4963 C 0.03059 0.58671 0.13437 0.0
H4964 H 0.19806 0.35447 0.89075 0.0
H4965 H 0.21021 0.3404 0.83818 0.0
H4966 H 0.18747 0.32526 0.89612 0.0
H4967 H 0.19991 0.31102 0.84374 0.0
H4968 H 0.20155 0.25689 0.87298 0.0
H4969 H 0.21058 0.28615 0.86531 0.0
H4970 H 0.16182 0.306 0.88342 0.0
H4971 H 0.15258 0.2767 0.8908 0.0
C4972 C 0.19853 0.34512 0.88038 0.0
C4973 C 0.20498 0.34968 0.86406 0.0
C4974 C 0.19237 0.32847 0.88342 0.0
C4975 C 0.19286 0.31599 0.87032 0.0
C4976 C 0.19944 0.32046 0.85404 0.0
C4977 C 0.20528 0.33724 0.85087 0.0
C4978 C 0.1927 0.26748 0.87518 0.0
C4979 C 0.17638 0.26455 0.88251 0.0
C4980 C 0.19784 0.28417 0.87072 0.0
C4981 C 0.18689 0.29824 0.87384 0.0
C4982 C 0.17049 0.29532 0.88097 0.0
C4983 C 0.1652 0.27858 0.8851 0.0
H4984 H 0.39566 0.43258 0.60243 0.0
H4985 H 0.40952 0.48234 0.62293 0.0
H4986 H 0.42429 0.42156 0.60943 0.0
H4987 H 0.43865 0.47212 0.62848 0.0
H4988 H 0.48289 0.44604 0.65474 0.0
H4989 H 0.45442 0.45624 0.64688 0.0
H4990 H 0.45318 0.41969 0.60461 0.0
H4991 H 0.48121 0.40854 0.6137 0.0
C4992 C 0.40507 0.44124 0.60808 0.0
C4993 C 0.40051 0.45822 0.61227 0.0
C4994 C 0.42156 0.435 0.61201 0.0
C4995 C 0.43398 0.44581 0.61977 0.0
C4996 C 0.42943 0.46312 0.62313 0.0
C4997 C 0.41279 0.46912 0.61975 0.0
C4998 C 0.47645 0.44019 0.6438 0.0
C4999 C 0.48419 0.42655 0.6348 0.0
C5000 C 0.46014 0.44616 0.6391 0.0
C5001 C 0.45134 0.43906 0.62486 0.0
C5002 C 0.45926 0.42538 0.6158 0.0
C5003 C 0.4754 0.41903 0.62089 0.0
H5004 H 0.30176 0.64435 0.39247 0.0
H5005 H 0.28993 0.65832 0.3398 0.0
H5006 H 0.31295 0.67336 0.39764 0.0
H5007 H 0.30086 0.68751 0.34517 0.0
H5008 H 0.30046 0.7419 0.37372 0.0
H5009 H 0.29077 0.71277 0.36639 0.0
H5010 H 0.33894 0.69199 0.38503 0.0
H5011 H 0.34883 0.72116 0.39209 0.0
C5012 C 0.30149 0.65364 0.38203 0.0
C5013 C 0.29494 0.64911 0.36574 0.0
C5014 C 0.308 0.67017 0.38497 0.0
C5015 C 0.30778 0.68257 0.37178 0.0
C5016 C 0.30112 0.67813 0.35553 0.0
C5017 C 0.29492 0.66146 0.35247 0.0
C5018 C 0.30903 0.73113 0.37613 0.0
C5019 C 0.32538 0.73377 0.38351 0.0
C5020 C 0.30351 0.71451 0.37186 0.0
C5021 C 0.31412 0.70022 0.3752 0.0
C5022 C 0.33053 0.70284 0.38241 0.0
C5023 C 0.33619 0.7195 0.38637 0.0
H5024 H 0.41119 0.09002 0.45963 0.0
H5025 H 0.35922 0.10563 0.4468 0.0
H5026 H 0.40507 0.06097 0.44884 0.0
H5027 H 0.3533 0.07667 0.43572 0.0
H5028 H 0.35849 0.02798 0.40038 0.0
H5029 H 0.36584 0.05716 0.4101 0.0
H5030 H 0.38296 0.03662 0.45894 0.0
H5031 H 0.37532 0.00754 0.44943 0.0
C5032 C 0.39851 0.08727 0.45444 0.0
C5033 C 0.38566 0.10006 0.45411 0.0
C5034 C 0.39502 0.07067 0.44832 0.0
C5035 C 0.37876 0.06668 0.44142 0.0
C5036 C 0.36598 0.07951 0.44087 0.0
C5037 C 0.36934 0.096 0.44731 0.0
C5038 C 0.36393 0.0297 0.41313 0.0
C5039 C 0.3663 0.01552 0.42417 0.0
C5040 C 0.36804 0.04636 0.41871 0.0
C5041 C 0.37493 0.04905 0.43525 0.0
C5042 C 0.37774 0.03484 0.4461 0.0
C5043 C 0.3733 0.01824 0.44068 0.0
H5044 H 0.9111 0.40274 0.5596 0.0
H5045 H 0.86019 0.40038 0.53696 0.0
H5046 H 0.90485 0.4318 0.5704 0.0
H5047 H 0.85408 0.42929 0.54765 0.0
H5048 H 0.85825 0.48799 0.55071 0.0
H5049 H 0.86589 0.45917 0.54093 0.0
H5050 H 0.88364 0.44631 0.59212 0.0
H5051 H 0.87588 0.47532 0.60209 0.0
C5052 C 0.89862 0.40842 0.5569 0.0
C5053 C 0.88616 0.3993 0.54737 0.0
C5054 C 0.89502 0.42497 0.56317 0.0
C5055 C 0.87902 0.43277 0.55979 0.0
C5056 C 0.86659 0.42364 0.5503 0.0
C5057 C 0.87007 0.40706 0.54423 0.0
C5058 C 0.86385 0.47909 0.55992 0.0
C5059 C 0.86639 0.48393 0.57721 0.0
C5060 C 0.86815 0.46256 0.5543 0.0
C5061 C 0.87525 0.45051 0.56579 0.0
C5062 C 0.87824 0.45541 0.583 0.0
C5063 C 0.87373 0.47196 0.5887 0.0
H5064 H 0.35018 0.10932 0.28359 0.0
H5065 H 0.34906 0.15977 0.3073 0.0
H5066 H 0.32101 0.10382 0.2939 0.0
H5067 H 0.31974 0.15414 0.31772 0.0
H5068 H 0.27559 0.12554 0.34889 0.0
H5069 H 0.30466 0.13303 0.33894 0.0
H5070 H 0.2914 0.11625 0.28752 0.0
H5071 H 0.2625 0.10886 0.29729 0.0
C5072 C 0.34372 0.11924 0.29101 0.0
C5073 C 0.35192 0.135 0.29458 0.0
C5074 C 0.32698 0.1161 0.29684 0.0
C5075 C 0.31812 0.12858 0.30655 0.0
C5076 C 0.32633 0.14428 0.31032 0.0
C5077 C 0.34305 0.14753 0.30427 0.0
C5078 C 0.27886 0.12356 0.33545 0.0
C5079 C 0.26675 0.11653 0.32391 0.0
C5080 C 0.29546 0.12792 0.32975 0.0
C5081 C 0.30028 0.12511 0.3125 0.0
C5082 C 0.28808 0.11837 0.30094 0.0
C5083 C 0.2715 0.11421 0.30655 0.0
H5084 H 0.6428 0.59956 0.03286 0.0
H5085 H 0.59228 0.59765 0.0564 0.0
H5086 H 0.64849 0.57021 0.04275 0.0
H5087 H 0.5981 0.56828 0.06639 0.0
H5088 H 0.62601 0.52428 0.09738 0.0
H5089 H 0.61917 0.55352 0.08758 0.0
H5090 H 0.63621 0.54032 0.03622 0.0
H5091 H 0.64294 0.51115 0.04587 0.0
C5092 C 0.63292 0.59289 0.04015 0.0
C5093 C 0.61708 0.6009 0.04381 0.0
C5094 C 0.63616 0.57607 0.04574 0.0
C5095 C 0.62372 0.567 0.0553 0.0
C5096 C 0.60794 0.57504 0.05912 0.0
C5097 C 0.60459 0.59179 0.05332 0.0
C5098 C 0.62822 0.52761 0.08398 0.0
C5099 C 0.63503 0.51542 0.07241 0.0
C5100 C 0.62424 0.5443 0.07838 0.0
C5101 C 0.62724 0.54916 0.06117 0.0
C5102 C 0.63393 0.53695 0.04959 0.0
C5103 C 0.63769 0.52023 0.05512 0.0
H5104 H 0.64621 0.39149 0.30017 0.0
H5105 H 0.65712 0.33762 0.29087 0.0
H5106 H 0.67506 0.39529 0.31221 0.0
H5107 H 0.68629 0.34162 0.3026 0.0
H5108 H 0.74217 0.3691 0.30161 0.0
H5109 H 0.71301 0.36178 0.292 0.0
H5110 H 0.69221 0.38215 0.33946 0.0
H5111 H 0.72142 0.38915 0.34931 0.0
C5112 C 0.6548 0.38048 0.30064 0.0
C5113 C 0.64946 0.36427 0.29453 0.0
C5114 C 0.67124 0.38264 0.30765 0.0
C5115 C 0.68279 0.36873 0.30837 0.0
C5116 C 0.67755 0.35252 0.30217 0.0
C5117 C 0.66092 0.35025 0.2955 0.0
C5118 C 0.73139 0.37182 0.31008 0.0
C5119 C 0.73403 0.37975 0.32618 0.0
C5120 C 0.71475 0.36754 0.30462 0.0
C5121 C 0.70045 0.37145 0.315 0.0
C5122 C 0.70308 0.37905 0.33124 0.0
C5123 C 0.71976 0.38299 0.33687 0.0
H5124 H 0.1239 0.99173 0.9513 0.0
H5125 H 0.1426 0.97109 0.903 0.0
H5126 H 0.117 0.96251 0.9611 0.0
H5127 H 0.13602 0.94186 0.91301 0.0
H5128 H 0.14414 0.89441 0.95032 0.0
H5129 H 0.14901 0.9236 0.9394 0.0
H5130 H 0.09612 0.93679 0.95071 0.0
H5131 H 0.09105 0.90743 0.96133 0.0
C5132 C 0.12646 0.98096 0.94277 0.0
C5133 C 0.1338 0.98366 0.9264 0.0
C5134 C 0.12246 0.9643 0.94835 0.0
C5135 C 0.12606 0.95002 0.93781 0.0
C5136 C 0.13322 0.9527 0.92138 0.0
C5137 C 0.13689 0.9694 0.91564 0.0
C5138 C 0.13355 0.90354 0.9505 0.0
C5139 C 0.11722 0.89867 0.9567 0.0
C5140 C 0.13632 0.92017 0.94415 0.0
C5141 C 0.12292 0.93234 0.94419 0.0
C5142 C 0.10665 0.92759 0.95059 0.0
C5143 C 0.10376 0.91083 0.95661 0.0
H5144 H 0.34282 0.83906 0.21219 0.0
H5145 H 0.35371 0.89258 0.20103 0.0
H5146 H 0.31352 0.84275 0.20064 0.0
H5147 H 0.32475 0.89605 0.18918 0.0
H5148 H 0.27826 0.88877 0.15249 0.0
H5149 H 0.30748 0.88201 0.16247 0.0
H5150 H 0.28682 0.86339 0.21069 0.0
H5151 H 0.25763 0.87048 0.20094 0.0
C5152 C 0.33899 0.85154 0.20721 0.0
C5153 C 0.35049 0.86555 0.20759 0.0
C5154 C 0.32228 0.85364 0.20064 0.0
C5155 C 0.31701 0.86965 0.19396 0.0
C5156 C 0.32859 0.88355 0.19412 0.0
C5157 C 0.34509 0.88157 0.20102 0.0
C5158 C 0.27995 0.88306 0.16514 0.0
C5159 C 0.2657 0.88024 0.17599 0.0
C5160 C 0.29663 0.87925 0.17084 0.0
C5161 C 0.29931 0.8722 0.18732 0.0
C5162 C 0.28504 0.86872 0.19789 0.0
C5163 C 0.26839 0.87287 0.19234 0.0
H5164 H 0.14523 0.10867 0.69719 0.0
H5165 H 0.16025 0.16082 0.70993 0.0
H5166 H 0.17414 0.1031 0.68589 0.0
H5167 H 0.18934 0.15504 0.69892 0.0
H5168 H 0.24319 0.12527 0.69855 0.0
H5169 H 0.21423 0.13287 0.7086 0.0
H5170 H 0.19292 0.1161 0.65998 0.0
H5171 H 0.22192 0.10881 0.64972 0.0
C5172 C 0.15472 0.11891 0.69764 0.0
C5173 C 0.15051 0.13517 0.70446 0.0
C5174 C 0.1712 0.11574 0.69108 0.0
C5175 C 0.18387 0.12866 0.69153 0.0
C5176 C 0.17975 0.14488 0.69848 0.0
C5177 C 0.16314 0.14818 0.70472 0.0
C5178 C 0.23233 0.12332 0.68997 0.0
C5179 C 0.23478 0.11642 0.67337 0.0
C5180 C 0.21582 0.12775 0.69569 0.0
C5181 C 0.20143 0.12502 0.68505 0.0
C5182 C 0.20386 0.11825 0.66842 0.0
C5183 C 0.22042 0.11415 0.66255 0.0
loop_
_geom_bond_atom_site_label_1
_geom_bond_atom_site_label_2
_geom_bond_distance
_geom_bond_site_symmetry_2
_ccdc_geom_bond_type
C0 O2 1.230 1_655 S
C0 O4 1.219 1_655 S
C1 O8 1.247 . S
C1 O9 1.258 . S
O2 C0 1.230 1_455 S
O2 Zn3 2.028 . S
Zn3 O2 2.028 . S
Zn3 O7 2.035 . S
Zn3 O9 2.035 . S
Zn3 O10 2.028 . S
O4 C0 1.219 1_455 S
O4 Zn5 2.035 . S
Zn5 O4 2.035 . S
Zn5 O6 2.028 . S
Zn5 O8 2.028 . S
Zn5 O11 2.035 . S
O6 Zn5 2.028 . S
O6 C12 1.247 . S
O7 Zn3 2.035 . S
O7 C12 1.258 . S
O8 C1 1.247 . S
O8 Zn5 2.028 . S
O9 C1 1.258 . S
O9 Zn3 2.035 . S
O10 Zn3 2.028 . S
O10 C13 1.247 . S
O11 Zn5 2.035 . S
O11 C13 1.258 . S
C12 O6 1.247 . S
C12 O7 1.258 . S
C13 O10 1.247 . S
C13 O11 1.258 . S
C14 O16 1.247 . S
C14 O18 1.258 . S
C15 O22 1.247 . S
C15 O23 1.258 . S
O16 C14 1.247 . S
O16 Zn17 2.028 . S
Zn17 O16 2.028 . S
Zn17 O21 2.035 . S
Zn17 O23 2.035 . S
Zn17 O24 2.028 . S
O18 C14 1.258 . S
O18 Zn19 2.035 . S
Zn19 O18 2.035 . S
Zn19 O20 2.028 . S
Zn19 O22 2.028 . S
Zn19 O25 2.035 . S
O20 Zn19 2.028 . S
O20 C26 1.247 . S
O21 Zn17 2.035 . S
O21 C26 1.258 . S
O22 C15 1.247 . S
O22 Zn19 2.028 . S
O23 C15 1.258 . S
O23 Zn17 2.035 . S
O24 Zn17 2.028 . S
O24 C27 1.247 . S
O25 Zn19 2.035 . S
O25 C27 1.258 . S
C26 O20 1.247 . S
C26 O21 1.258 . S
C27 O24 1.247 . S
C27 O25 1.258 . S
C28 O30 1.247 . S
C28 O32 1.258 . S
C29 O36 1.247 . S
C29 O37 1.258 . S
O30 C28 1.247 . S
O30 Zn31 2.028 . S
Zn31 O30 2.028 . S
Zn31 O35 2.035 . S
Zn31 O37 2.035 . S
Zn31 O38 2.028 . S
O32 C28 1.258 . S
O32 Zn33 2.035 . S
Zn33 O32 2.035 . S
Zn33 O34 2.028 . S
Zn33 O36 2.028 . S
Zn33 O39 2.035 . S
O34 Zn33 2.028 . S
O34 C40 1.247 . S
O35 Zn31 2.035 . S
O35 C40 1.258 . S
O36 C29 1.247 . S
O36 Zn33 2.028 . S
O37 C29 1.258 . S
O37 Zn31 2.035 . S
O38 Zn31 2.028 . S
O38 C41 1.247 . S
O39 Zn33 2.035 . S
O39 C41 1.258 . S
C40 O34 1.247 . S
C40 O35 1.258 . S
C41 O38 1.247 . S
C41 O39 1.258 . S
C42 O44 1.247 . S
C42 O46 1.258 . S
C43 O50 1.247 . S
C43 O51 1.258 . S
O44 C42 1.247 . S
O44 Zn45 2.028 . S
Zn45 O44 2.028 . S
Zn45 O49 2.035 . S
Zn45 O51 2.035 . S
Zn45 O52 2.028 . S
O46 C42 1.258 . S
O46 Zn47 2.035 . S
Zn47 O46 2.035 . S
Zn47 O48 2.028 . S
Zn47 O50 2.028 . S
Zn47 O53 2.035 . S
O48 Zn47 2.028 . S
O48 C54 1.247 . S
O49 Zn45 2.035 . S
O49 C54 1.258 . S
O50 C43 1.247 . S
O50 Zn47 2.028 . S
O51 C43 1.258 . S
O51 Zn45 2.035 . S
O52 Zn45 2.028 . S
O52 C55 1.247 . S
O53 Zn47 2.035 . S
O53 C55 1.258 . S
C54 O48 1.247 . S
C54 O49 1.258 . S
C55 O52 1.247 . S
C55 O53 1.258 . S
C56 O58 1.230 1_655 S
C56 O60 1.219 1_655 S
C57 O64 1.247 . S
C57 O65 1.258 . S
O58 C56 1.230 1_455 S
O58 Zn59 2.028 . S
Zn59 O58 2.028 . S
Zn59 O63 2.035 . S
Zn59 O65 2.035 . S
Zn59 O66 2.028 . S
O60 C56 1.219 1_455 S
O60 Zn61 2.035 . S
Zn61 O60 2.035 . S
Zn61 O62 2.028 . S
Zn61 O64 2.028 . S
Zn61 O67 2.035 . S
O62 Zn61 2.028 . S
O62 C68 1.247 . S
O63 Zn59 2.035 . S
O63 C68 1.258 . S
O64 C57 1.247 . S
O64 Zn61 2.028 . S
O65 C57 1.258 . S
O65 Zn59 2.035 . S
O66 Zn59 2.028 . S
O66 C69 1.247 . S
O67 Zn61 2.035 . S
O67 C69 1.258 . S
C68 O62 1.247 . S
C68 O63 1.258 . S
C69 O66 1.247 . S
C69 O67 1.258 . S
C70 O72 1.247 . S
C70 O74 1.258 . S
C71 O78 1.247 . S
C71 O79 1.258 . S
O72 C70 1.247 . S
O72 Zn73 2.028 . S
Zn73 O72 2.028 . S
Zn73 O77 2.035 . S
Zn73 O79 2.035 . S
Zn73 O80 2.028 . S
O74 C70 1.258 . S
O74 Zn75 2.035 . S
Zn75 O74 2.035 . S
Zn75 O76 2.028 . S
Zn75 O78 2.028 . S
Zn75 O81 2.035 . S
O76 Zn75 2.028 . S
O76 C82 1.247 . S
O77 Zn73 2.035 . S
O77 C82 1.258 . S
O78 C71 1.247 . S
O78 Zn75 2.028 . S
O79 C71 1.258 . S
O79 Zn73 2.035 . S
O80 Zn73 2.028 . S
O80 C83 1.247 . S
O81 Zn75 2.035 . S
O81 C83 1.258 . S
C82 O76 1.247 . S
C82 O77 1.258 . S
C83 O80 1.247 . S
C83 O81 1.258 . S
C84 O86 1.247 . S
C84 O88 1.258 . S
C85 O92 1.247 . S
C85 O93 1.258 . S
O86 C84 1.247 . S
O86 Zn87 2.028 . S
Zn87 O86 2.028 . S
Zn87 O91 2.035 . S
Zn87 O93 2.035 . S
Zn87 O94 2.028 . S
O88 C84 1.258 . S
O88 Zn89 2.035 . S
Zn89 O88 2.035 . S
Zn89 O90 2.028 . S
Zn89 O92 2.028 . S
Zn89 O95 2.035 . S
O90 Zn89 2.028 . S
O90 C96 1.247 . S
O91 Zn87 2.035 . S
O91 C96 1.258 . S
O92 C85 1.247 . S
O92 Zn89 2.028 . S
O93 C85 1.258 . S
O93 Zn87 2.035 . S
O94 Zn87 2.028 . S
O94 C97 1.247 . S
O95 Zn89 2.035 . S
O95 C97 1.258 . S
C96 O90 1.247 . S
C96 O91 1.258 . S
C97 O94 1.247 . S
C97 O95 1.258 . S
C98 O100 1.247 . S
C98 O102 1.258 . S
C99 O106 1.247 . S
C99 O107 1.258 . S
O100 C98 1.247 . S
O100 Zn101 2.028 . S
Zn101 O100 2.028 . S
Zn101 O105 2.035 . S
Zn101 O107 2.035 . S
Zn101 O108 2.028 . S
O102 C98 1.258 . S
O102 Zn103 2.035 . S
Zn103 O102 2.035 . S
Zn103 O104 2.028 . S
Zn103 O106 2.028 . S
Zn103 O109 2.035 . S
O104 Zn103 2.028 . S
O104 C110 1.247 . S
O105 Zn101 2.035 . S
O105 C110 1.258 . S
O106 C99 1.247 . S
O106 Zn103 2.028 . S
O107 C99 1.258 . S
O107 Zn101 2.035 . S
O108 Zn101 2.028 . S
O108 C111 1.247 . S
O109 Zn103 2.035 . S
O109 C111 1.258 . S
C110 O104 1.247 . S
C110 O105 1.258 . S
C111 O108 1.247 . S
C111 O109 1.258 . S
C112 O114 1.247 . S
C112 O116 1.258 . S
C113 O120 1.247 . S
C113 O121 1.258 . S
O114 C112 1.247 . S
O114 Zn115 2.028 . S
Zn115 O114 2.028 . S
Zn115 O119 2.035 . S
Zn115 O121 2.035 . S
Zn115 O122 2.028 . S
O116 C112 1.258 . S
O116 Zn117 2.035 . S
Zn117 O116 2.035 . S
Zn117 O118 2.028 . S
Zn117 O120 2.028 . S
Zn117 O123 2.035 . S
O118 Zn117 2.028 . S
O118 C124 1.247 . S
O119 Zn115 2.035 . S
O119 C124 1.258 . S
O120 C113 1.247 . S
O120 Zn117 2.028 . S
O121 C113 1.258 . S
O121 Zn115 2.035 . S
O122 Zn115 2.028 . S
O122 C125 1.208 1_545 S
O123 Zn117 2.035 . S
O123 C125 1.242 1_545 S
C124 O118 1.247 . S
C124 O119 1.258 . S
C125 O122 1.208 1_565 S
C125 O123 1.242 1_565 S
C126 O128 1.247 . S
C126 O130 1.258 . S
C127 O134 1.247 . S
C127 O135 1.258 . S
O128 C126 1.247 . S
O128 Zn129 2.028 . S
Zn129 O128 2.028 . S
Zn129 O133 2.035 . S
Zn129 O135 2.035 . S
Zn129 O136 2.028 . S
O130 C126 1.258 . S
O130 Zn131 2.035 . S
Zn131 O130 2.035 . S
Zn131 O132 2.028 . S
Zn131 O134 2.028 . S
Zn131 O137 2.035 . S
O132 Zn131 2.028 . S
O132 C138 1.247 . S
O133 Zn129 2.035 . S
O133 C138 1.258 . S
O134 C127 1.247 . S
O134 Zn131 2.028 . S
O135 C127 1.258 . S
O135 Zn129 2.035 . S
O136 Zn129 2.028 . S
O136 C139 1.247 . S
O137 Zn131 2.035 . S
O137 C139 1.258 . S
C138 O132 1.247 . S
C138 O133 1.258 . S
C139 O136 1.247 . S
C139 O137 1.258 . S
C140 O142 1.230 1_545 S
C140 O144 1.219 1_545 S
C141 O148 1.247 . S
C141 O149 1.258 . S
O142 C140 1.230 1_565 S
O142 Zn143 2.028 . S
Zn143 O142 2.028 . S
Zn143 O147 2.035 . S
Zn143 O149 2.035 . S
Zn143 O150 2.028 . S
O144 C140 1.219 1_565 S
O144 Zn145 2.035 . S
Zn145 O144 2.035 . S
Zn145 O146 2.028 . S
Zn145 O148 2.028 . S
Zn145 O151 2.035 . S
O146 Zn145 2.028 . S
O146 C152 1.247 . S
O147 Zn143 2.035 . S
O147 C152 1.258 . S
O148 C141 1.247 . S
O148 Zn145 2.028 . S
O149 C141 1.258 . S
O149 Zn143 2.035 . S
O150 Zn143 2.028 . S
O150 C153 1.247 . S
O151 Zn145 2.035 . S
O151 C153 1.258 . S
C152 O146 1.247 . S
C152 O147 1.258 . S
C153 O150 1.247 . S
C153 O151 1.258 . S
C154 O156 1.247 . S
C154 O158 1.258 . S
C155 O162 1.247 . S
C155 O163 1.258 . S
O156 C154 1.247 . S
O156 Zn157 2.028 . S
Zn157 O156 2.028 . S
Zn157 O161 2.035 . S
Zn157 O163 2.035 . S
Zn157 O164 2.028 . S
O158 C154 1.258 . S
O158 Zn159 2.035 . S
Zn159 O158 2.035 . S
Zn159 O160 2.028 . S
Zn159 O162 2.028 . S
Zn159 O165 2.035 . S
O160 Zn159 2.028 . S
O160 C166 1.247 . S
O161 Zn157 2.035 . S
O161 C166 1.258 . S
O162 C155 1.247 . S
O162 Zn159 2.028 . S
O163 C155 1.258 . S
O163 Zn157 2.035 . S
O164 Zn157 2.028 . S
O164 C167 1.247 . S
O165 Zn159 2.035 . S
O165 C167 1.258 . S
C166 O160 1.247 . S
C166 O161 1.258 . S
C167 O164 1.247 . S
C167 O165 1.258 . S
C168 O170 1.247 . S
C168 O172 1.258 . S
C169 O176 1.247 . S
C169 O177 1.258 . S
O170 C168 1.247 . S
O170 Zn171 2.028 . S
Zn171 O170 2.028 . S
Zn171 O175 2.035 . S
Zn171 O177 2.035 . S
Zn171 O178 2.028 . S
O172 C168 1.258 . S
O172 Zn173 2.035 . S
Zn173 O172 2.035 . S
Zn173 O174 2.028 . S
Zn173 O176 2.028 . S
Zn173 O179 2.035 . S
O174 Zn173 2.028 . S
O174 C180 1.247 . S
O175 Zn171 2.035 . S
O175 C180 1.258 . S
O176 C169 1.247 . S
O176 Zn173 2.028 . S
O177 C169 1.258 . S
O177 Zn171 2.035 . S
O178 Zn171 2.028 . S
O178 C181 1.208 1_565 S
O179 Zn173 2.035 . S
O179 C181 1.242 1_565 S
C180 O174 1.247 . S
C180 O175 1.258 . S
C181 O178 1.208 1_545 S
C181 O179 1.242 1_545 S
C182 O184 1.247 . S
C182 O186 1.258 . S
C183 O190 1.247 . S
C183 O191 1.258 . S
O184 C182 1.247 . S
O184 Zn185 2.028 . S
Zn185 O184 2.028 . S
Zn185 O189 2.035 . S
Zn185 O191 2.035 . S
Zn185 O192 2.028 . S
O186 C182 1.258 . S
O186 Zn187 2.035 . S
Zn187 O186 2.035 . S
Zn187 O188 2.028 . S
Zn187 O190 2.028 . S
Zn187 O193 2.035 . S
O188 Zn187 2.028 . S
O188 C194 1.247 . S
O189 Zn185 2.035 . S
O189 C194 1.258 . S
O190 C183 1.247 . S
O190 Zn187 2.028 . S
O191 C183 1.258 . S
O191 Zn185 2.035 . S
O192 Zn185 2.028 . S
O192 C195 1.247 . S
O193 Zn187 2.035 . S
O193 C195 1.258 . S
C194 O188 1.247 . S
C194 O189 1.258 . S
C195 O192 1.247 . S
C195 O193 1.258 . S
C196 O198 1.230 1_565 S
C196 O200 1.219 1_565 S
C197 O204 1.247 . S
C197 O205 1.258 . S
O198 C196 1.230 1_545 S
O198 Zn199 2.028 . S
Zn199 O198 2.028 . S
Zn199 O203 2.035 . S
Zn199 O205 2.035 . S
Zn199 O206 2.028 . S
O200 C196 1.219 1_545 S
O200 Zn201 2.035 . S
Zn201 O200 2.035 . S
Zn201 O202 2.028 . S
Zn201 O204 2.028 . S
Zn201 O207 2.035 . S
O202 Zn201 2.028 . S
O202 C208 1.247 . S
O203 Zn199 2.035 . S
O203 C208 1.258 . S
O204 C197 1.247 . S
O204 Zn201 2.028 . S
O205 C197 1.258 . S
O205 Zn199 2.035 . S
O206 Zn199 2.028 . S
O206 C209 1.247 . S
O207 Zn201 2.035 . S
O207 C209 1.258 . S
C208 O202 1.247 . S
C208 O203 1.258 . S
C209 O206 1.247 . S
C209 O207 1.258 . S
C210 O212 1.247 . S
C210 O214 1.258 . S
C211 O218 1.247 . S
C211 O219 1.258 . S
O212 C210 1.247 . S
O212 Zn213 2.028 . S
Zn213 O212 2.028 . S
Zn213 O217 2.035 . S
Zn213 O219 2.035 . S
Zn213 O220 2.028 . S
O214 C210 1.258 . S
O214 Zn215 2.035 . S
Zn215 O214 2.035 . S
Zn215 O216 2.028 . S
Zn215 O218 2.028 . S
Zn215 O221 2.035 . S
O216 Zn215 2.028 . S
O216 C222 1.247 . S
O217 Zn213 2.035 . S
O217 C222 1.258 . S
O218 C211 1.247 . S
O218 Zn215 2.028 . S
O219 C211 1.258 . S
O219 Zn213 2.035 . S
O220 Zn213 2.028 . S
O220 C223 1.247 . S
O221 Zn215 2.035 . S
O221 C223 1.258 . S
C222 O216 1.247 . S
C222 O217 1.258 . S
C223 O220 1.247 . S
C223 O221 1.258 . S
C224 O226 1.230 1_556 S
C224 O228 1.219 1_556 S
C225 O232 1.247 . S
C225 O233 1.258 . S
O226 C224 1.230 1_554 S
O226 Zn227 2.028 . S
Zn227 O226 2.028 . S
Zn227 O231 2.035 . S
Zn227 O233 2.035 . S
Zn227 O234 2.028 . S
O228 C224 1.219 1_554 S
O228 Zn229 2.035 . S
Zn229 O228 2.035 . S
Zn229 O230 2.028 . S
Zn229 O232 2.028 . S
Zn229 O235 2.035 . S
O230 Zn229 2.028 . S
O230 C236 1.247 . S
O231 Zn227 2.035 . S
O231 C236 1.258 . S
O232 C225 1.247 . S
O232 Zn229 2.028 . S
O233 C225 1.258 . S
O233 Zn227 2.035 . S
O234 Zn227 2.028 . S
O234 C237 1.247 . S
O235 Zn229 2.035 . S
O235 C237 1.258 . S
C236 O230 1.247 . S
C236 O231 1.258 . S
C237 O234 1.247 . S
C237 O235 1.258 . S
C238 O240 1.230 1_554 S
C238 O242 1.219 1_554 S
C239 O246 1.247 . S
C239 O247 1.258 . S
O240 C238 1.230 1_556 S
O240 Zn241 2.028 . S
Zn241 O240 2.028 . S
Zn241 O245 2.035 . S
Zn241 O247 2.035 . S
Zn241 O248 2.028 . S
O242 C238 1.219 1_556 S
O242 Zn243 2.035 . S
Zn243 O242 2.035 . S
Zn243 O244 2.028 . S
Zn243 O246 2.028 . S
Zn243 O249 2.035 . S
O244 Zn243 2.028 . S
O244 C250 1.247 . S
O245 Zn241 2.035 . S
O245 C250 1.258 . S
O246 C239 1.247 . S
O246 Zn243 2.028 . S
O247 C239 1.258 . S
O247 Zn241 2.035 . S
O248 Zn241 2.028 . S
O248 C251 1.247 . S
O249 Zn243 2.035 . S
O249 C251 1.258 . S
C250 O244 1.247 . S
C250 O245 1.258 . S
C251 O248 1.247 . S
C251 O249 1.258 . S
C252 O254 1.247 . S
C252 O256 1.258 . S
C253 O260 1.247 . S
C253 O261 1.258 . S
O254 C252 1.247 . S
O254 Zn255 2.028 . S
Zn255 O254 2.028 . S
Zn255 O259 2.035 . S
Zn255 O261 2.035 . S
Zn255 O262 2.028 . S
O256 C252 1.258 . S
O256 Zn257 2.035 . S
Zn257 O256 2.035 . S
Zn257 O258 2.028 . S
Zn257 O260 2.028 . S
Zn257 O263 2.035 . S
O258 Zn257 2.028 . S
O258 C264 1.247 . S
O259 Zn255 2.035 . S
O259 C264 1.258 . S
O260 C253 1.247 . S
O260 Zn257 2.028 . S
O261 C253 1.258 . S
O261 Zn255 2.035 . S
O262 Zn255 2.028 . S
O262 C265 1.247 . S
O263 Zn257 2.035 . S
O263 C265 1.258 . S
C264 O258 1.247 . S
C264 O259 1.258 . S
C265 O262 1.247 . S
C265 O263 1.258 . S
C266 O268 1.247 . S
C266 O270 1.258 . S
C267 O274 1.247 . S
C267 O275 1.258 . S
O268 C266 1.247 . S
O268 Zn269 2.028 . S
Zn269 O268 2.028 . S
Zn269 O273 2.035 . S
Zn269 O275 2.035 . S
Zn269 O276 2.028 . S
O270 C266 1.258 . S
O270 Zn271 2.035 . S
Zn271 O270 2.035 . S
Zn271 O272 2.028 . S
Zn271 O274 2.028 . S
Zn271 O277 2.035 . S
O272 Zn271 2.028 . S
O272 C278 1.247 . S
O273 Zn269 2.035 . S
O273 C278 1.258 . S
O274 C267 1.247 . S
O274 Zn271 2.028 . S
O275 C267 1.258 . S
O275 Zn269 2.035 . S
O276 Zn269 2.028 . S
O276 C279 1.247 . S
O277 Zn271 2.035 . S
O277 C279 1.258 . S
C278 O272 1.247 . S
C278 O273 1.258 . S
C279 O276 1.247 . S
C279 O277 1.258 . S
C280 O282 1.247 . S
C280 O284 1.258 . S
C281 O288 1.247 . S
C281 O289 1.258 . S
O282 C280 1.247 . S
O282 Zn283 2.028 . S
Zn283 O282 2.028 . S
Zn283 O287 2.035 . S
Zn283 O289 2.035 . S
Zn283 O290 2.028 . S
O284 C280 1.258 . S
O284 Zn285 2.035 . S
Zn285 O284 2.035 . S
Zn285 O286 2.028 . S
Zn285 O288 2.028 . S
Zn285 O291 2.035 . S
O286 Zn285 2.028 . S
O286 C292 1.247 . S
O287 Zn283 2.035 . S
O287 C292 1.258 . S
O288 C281 1.247 . S
O288 Zn285 2.028 . S
O289 C281 1.258 . S
O289 Zn283 2.035 . S
O290 Zn283 2.028 . S
O290 C293 1.247 . S
O291 Zn285 2.035 . S
O291 C293 1.258 . S
C292 O286 1.247 . S
C292 O287 1.258 . S
C293 O290 1.247 . S
C293 O291 1.258 . S
C294 O296 1.247 . S
C294 O298 1.258 . S
C295 O302 1.247 . S
C295 O303 1.258 . S
O296 C294 1.247 . S
O296 Zn297 2.028 . S
Zn297 O296 2.028 . S
Zn297 O301 2.035 . S
Zn297 O303 2.035 . S
Zn297 O304 2.028 . S
O298 C294 1.258 . S
O298 Zn299 2.035 . S
Zn299 O298 2.035 . S
Zn299 O300 2.028 . S
Zn299 O302 2.028 . S
Zn299 O305 2.035 . S
O300 Zn299 2.028 . S
O300 C306 1.247 . S
O301 Zn297 2.035 . S
O301 C306 1.258 . S
O302 C295 1.247 . S
O302 Zn299 2.028 . S
O303 C295 1.258 . S
O303 Zn297 2.035 . S
O304 Zn297 2.028 . S
O304 C307 1.247 . S
O305 Zn299 2.035 . S
O305 C307 1.258 . S
C306 O300 1.247 . S
C306 O301 1.258 . S
C307 O304 1.247 . S
C307 O305 1.258 . S
C308 O310 1.247 . S
C308 O312 1.258 . S
C309 O316 1.247 . S
C309 O317 1.258 . S
O310 C308 1.247 . S
O310 Zn311 2.028 . S
Zn311 O310 2.028 . S
Zn311 O315 2.035 . S
Zn311 O317 2.035 . S
Zn311 O318 2.028 . S
O312 C308 1.258 . S
O312 Zn313 2.035 . S
Zn313 O312 2.035 . S
Zn313 O314 2.028 . S
Zn313 O316 2.028 . S
Zn313 O319 2.035 . S
O314 Zn313 2.028 . S
O314 C320 1.247 . S
O315 Zn311 2.035 . S
O315 C320 1.258 . S
O316 C309 1.247 . S
O316 Zn313 2.028 . S
O317 C309 1.258 . S
O317 Zn311 2.035 . S
O318 Zn311 2.028 . S
O318 C321 1.247 . S
O319 Zn313 2.035 . S
O319 C321 1.258 . S
C320 O314 1.247 . S
C320 O315 1.258 . S
C321 O318 1.247 . S
C321 O319 1.258 . S
C322 O324 1.247 . S
C322 O326 1.258 . S
C323 O330 1.247 . S
C323 O331 1.258 . S
O324 C322 1.247 . S
O324 Zn325 2.028 . S
Zn325 O324 2.028 . S
Zn325 O329 2.035 . S
Zn325 O331 2.035 . S
Zn325 O332 2.028 . S
O326 C322 1.258 . S
O326 Zn327 2.035 . S
Zn327 O326 2.035 . S
Zn327 O328 2.028 . S
Zn327 O330 2.028 . S
Zn327 O333 2.035 . S
O328 Zn327 2.028 . S
O328 C334 1.247 . S
O329 Zn325 2.035 . S
O329 C334 1.258 . S
O330 C323 1.247 . S
O330 Zn327 2.028 . S
O331 C323 1.258 . S
O331 Zn325 2.035 . S
O332 Zn325 2.028 . S
O332 C335 1.247 . S
O333 Zn327 2.035 . S
O333 C335 1.258 . S
C334 O328 1.247 . S
C334 O329 1.258 . S
C335 O332 1.247 . S
C335 O333 1.258 . S
C336 O338 1.208 1_455 S
C336 O340 1.242 1_455 S
C337 O344 1.247 . S
C337 O345 1.258 . S
O338 C336 1.208 1_655 S
O338 Zn339 2.028 . S
Zn339 O338 2.028 . S
Zn339 O343 2.035 . S
Zn339 O345 2.035 . S
Zn339 O346 2.028 . S
O340 C336 1.242 1_655 S
O340 Zn341 2.035 . S
Zn341 O340 2.035 . S
Zn341 O342 2.028 . S
Zn341 O344 2.028 . S
Zn341 O347 2.035 . S
O342 Zn341 2.028 . S
O342 C348 1.247 . S
O343 Zn339 2.035 . S
O343 C348 1.258 . S
O344 C337 1.247 . S
O344 Zn341 2.028 . S
O345 C337 1.258 . S
O345 Zn339 2.035 . S
O346 Zn339 2.028 . S
O346 C349 1.247 . S
O347 Zn341 2.035 . S
O347 C349 1.258 . S
C348 O342 1.247 . S
C348 O343 1.258 . S
C349 O346 1.247 . S
C349 O347 1.258 . S
C350 O352 1.247 . S
C350 O354 1.258 . S
C351 O358 1.247 . S
C351 O359 1.258 . S
O352 C350 1.247 . S
O352 Zn353 2.028 . S
Zn353 O352 2.028 . S
Zn353 O357 2.035 . S
Zn353 O359 2.035 . S
Zn353 O360 2.028 . S
O354 C350 1.258 . S
O354 Zn355 2.035 . S
Zn355 O354 2.035 . S
Zn355 O356 2.028 . S
Zn355 O358 2.028 . S
Zn355 O361 2.035 . S
O356 Zn355 2.028 . S
O356 C362 1.247 . S
O357 Zn353 2.035 . S
O357 C362 1.258 . S
O358 C351 1.247 . S
O358 Zn355 2.028 . S
O359 C351 1.258 . S
O359 Zn353 2.035 . S
O360 Zn353 2.028 . S
O360 C363 1.247 . S
O361 Zn355 2.035 . S
O361 C363 1.258 . S
C362 O356 1.247 . S
C362 O357 1.258 . S
C363 O360 1.247 . S
C363 O361 1.258 . S
C364 O366 1.247 . S
C364 O368 1.258 . S
C365 O372 1.247 . S
C365 O373 1.258 . S
O366 C364 1.247 . S
O366 Zn367 2.028 . S
Zn367 O366 2.028 . S
Zn367 O371 2.035 . S
Zn367 O373 2.035 . S
Zn367 O374 2.028 . S
O368 C364 1.258 . S
O368 Zn369 2.035 . S
Zn369 O368 2.035 . S
Zn369 O370 2.028 . S
Zn369 O372 2.028 . S
Zn369 O375 2.035 . S
O370 Zn369 2.028 . S
O370 C376 1.247 . S
O371 Zn367 2.035 . S
O371 C376 1.258 . S
O372 C365 1.247 . S
O372 Zn369 2.028 . S
O373 C365 1.258 . S
O373 Zn367 2.035 . S
O374 Zn367 2.028 . S
O374 C377 1.247 . S
O375 Zn369 2.035 . S
O375 C377 1.258 . S
C376 O370 1.247 . S
C376 O371 1.258 . S
C377 O374 1.247 . S
C377 O375 1.258 . S
C378 O380 1.247 . S
C378 O382 1.258 . S
C379 O386 1.247 . S
C379 O387 1.258 . S
O380 C378 1.247 . S
O380 Zn381 2.028 . S
Zn381 O380 2.028 . S
Zn381 O385 2.035 . S
Zn381 O387 2.035 . S
Zn381 O388 2.028 . S
O382 C378 1.258 . S
O382 Zn383 2.035 . S
Zn383 O382 2.035 . S
Zn383 O384 2.028 . S
Zn383 O386 2.028 . S
Zn383 O389 2.035 . S
O384 Zn383 2.028 . S
O384 C390 1.247 . S
O385 Zn381 2.035 . S
O385 C390 1.258 . S
O386 C379 1.247 . S
O386 Zn383 2.028 . S
O387 C379 1.258 . S
O387 Zn381 2.035 . S
O388 Zn381 2.028 . S
O388 C391 1.247 . S
O389 Zn383 2.035 . S
O389 C391 1.258 . S
C390 O384 1.247 . S
C390 O385 1.258 . S
C391 O388 1.247 . S
C391 O389 1.258 . S
C392 O394 1.208 1_455 S
C392 O396 1.242 1_455 S
C393 O400 1.247 . S
C393 O401 1.258 . S
O394 C392 1.208 1_655 S
O394 Zn395 2.028 . S
Zn395 O394 2.028 . S
Zn395 O399 2.035 . S
Zn395 O401 2.035 . S
Zn395 O402 2.028 . S
O396 C392 1.242 1_655 S
O396 Zn397 2.035 . S
Zn397 O396 2.035 . S
Zn397 O398 2.028 . S
Zn397 O400 2.028 . S
Zn397 O403 2.035 . S
O398 Zn397 2.028 . S
O398 C404 1.247 . S
O399 Zn395 2.035 . S
O399 C404 1.258 . S
O400 C393 1.247 . S
O400 Zn397 2.028 . S
O401 C393 1.258 . S
O401 Zn395 2.035 . S
O402 Zn395 2.028 . S
O402 C405 1.247 . S
O403 Zn397 2.035 . S
O403 C405 1.258 . S
C404 O398 1.247 . S
C404 O399 1.258 . S
C405 O402 1.247 . S
C405 O403 1.258 . S
C406 O408 1.247 . S
C406 O410 1.258 . S
C407 O414 1.247 . S
C407 O415 1.258 . S
O408 C406 1.247 . S
O408 Zn409 2.028 . S
Zn409 O408 2.028 . S
Zn409 O413 2.035 . S
Zn409 O415 2.035 . S
Zn409 O416 2.028 . S
O410 C406 1.258 . S
O410 Zn411 2.035 . S
Zn411 O410 2.035 . S
Zn411 O412 2.028 . S
Zn411 O414 2.028 . S
Zn411 O417 2.035 . S
O412 Zn411 2.028 . S
O412 C418 1.247 . S
O413 Zn409 2.035 . S
O413 C418 1.258 . S
O414 C407 1.247 . S
O414 Zn411 2.028 . S
O415 C407 1.258 . S
O415 Zn409 2.035 . S
O416 Zn409 2.028 . S
O416 C419 1.247 . S
O417 Zn411 2.035 . S
O417 C419 1.258 . S
C418 O412 1.247 . S
C418 O413 1.258 . S
C419 O416 1.247 . S
C419 O417 1.258 . S
C420 O422 1.247 . S
C420 O424 1.258 . S
C421 O428 1.247 . S
C421 O429 1.258 . S
O422 C420 1.247 . S
O422 Zn423 2.028 . S
Zn423 O422 2.028 . S
Zn423 O427 2.035 . S
Zn423 O429 2.035 . S
Zn423 O430 2.028 . S
O424 C420 1.258 . S
O424 Zn425 2.035 . S
Zn425 O424 2.035 . S
Zn425 O426 2.028 . S
Zn425 O428 2.028 . S
Zn425 O431 2.035 . S
O426 Zn425 2.028 . S
O426 C432 1.247 . S
O427 Zn423 2.035 . S
O427 C432 1.258 . S
O428 C421 1.247 . S
O428 Zn425 2.028 . S
O429 C421 1.258 . S
O429 Zn423 2.035 . S
O430 Zn423 2.028 . S
O430 C433 1.247 . S
O431 Zn425 2.035 . S
O431 C433 1.258 . S
C432 O426 1.247 . S
C432 O427 1.258 . S
C433 O430 1.247 . S
C433 O431 1.258 . S
C434 O436 1.247 . S
C434 O438 1.258 . S
C435 O442 1.247 . S
C435 O443 1.258 . S
O436 C434 1.247 . S
O436 Zn437 2.028 . S
Zn437 O436 2.028 . S
Zn437 O441 2.035 . S
Zn437 O443 2.035 . S
Zn437 O444 2.028 . S
O438 C434 1.258 . S
O438 Zn439 2.035 . S
Zn439 O438 2.035 . S
Zn439 O440 2.028 . S
Zn439 O442 2.028 . S
Zn439 O445 2.035 . S
O440 Zn439 2.028 . S
O440 C446 1.247 . S
O441 Zn437 2.035 . S
O441 C446 1.258 . S
O442 C435 1.247 . S
O442 Zn439 2.028 . S
O443 C435 1.258 . S
O443 Zn437 2.035 . S
O444 Zn437 2.028 . S
O444 C447 1.247 . S
O445 Zn439 2.035 . S
O445 C447 1.258 . S
C446 O440 1.247 . S
C446 O441 1.258 . S
C447 O444 1.247 . S
C447 O445 1.258 . S
C448 O450 1.247 . S
C448 O452 1.258 . S
C449 O456 1.247 . S
C449 O457 1.258 . S
O450 C448 1.247 . S
O450 Zn451 2.028 . S
Zn451 O450 2.028 . S
Zn451 O455 2.035 . S
Zn451 O457 2.035 . S
Zn451 O458 2.028 . S
O452 C448 1.258 . S
O452 Zn453 2.035 . S
Zn453 O452 2.035 . S
Zn453 O454 2.028 . S
Zn453 O456 2.028 . S
Zn453 O459 2.035 . S
O454 Zn453 2.028 . S
O454 C460 1.208 1_565 S
O455 Zn451 2.035 . S
O455 C460 1.242 1_565 S
O456 C449 1.247 . S
O456 Zn453 2.028 . S
O457 C449 1.258 . S
O457 Zn451 2.035 . S
O458 Zn451 2.028 . S
O458 C461 1.247 . S
O459 Zn453 2.035 . S
O459 C461 1.258 . S
C460 O454 1.208 1_545 S
C460 O455 1.242 1_545 S
C461 O458 1.247 . S
C461 O459 1.258 . S
C462 O464 1.247 . S
C462 O466 1.258 . S
C463 O470 1.247 . S
C463 O471 1.258 . S
O464 C462 1.247 . S
O464 Zn465 2.028 . S
Zn465 O464 2.028 . S
Zn465 O469 2.035 . S
Zn465 O471 2.035 . S
Zn465 O472 2.028 . S
O466 C462 1.258 . S
O466 Zn467 2.035 . S
Zn467 O466 2.035 . S
Zn467 O468 2.028 . S
Zn467 O470 2.028 . S
Zn467 O473 2.035 . S
O468 Zn467 2.028 . S
O468 C474 1.247 . S
O469 Zn465 2.035 . S
O469 C474 1.258 . S
O470 C463 1.247 . S
O470 Zn467 2.028 . S
O471 C463 1.258 . S
O471 Zn465 2.035 . S
O472 Zn465 2.028 . S
O472 C475 1.247 . S
O473 Zn467 2.035 . S
O473 C475 1.258 . S
C474 O468 1.247 . S
C474 O469 1.258 . S
C475 O472 1.247 . S
C475 O473 1.258 . S
C476 O478 1.247 . S
C476 O480 1.258 . S
C477 O484 1.230 1_565 S
C477 O485 1.219 1_565 S
O478 C476 1.247 . S
O478 Zn479 2.028 . S
Zn479 O478 2.028 . S
Zn479 O483 2.035 . S
Zn479 O485 2.035 . S
Zn479 O486 2.028 . S
O480 C476 1.258 . S
O480 Zn481 2.035 . S
Zn481 O480 2.035 . S
Zn481 O482 2.028 . S
Zn481 O484 2.028 . S
Zn481 O487 2.035 . S
O482 Zn481 2.028 . S
O482 C488 1.247 . S
O483 Zn479 2.035 . S
O483 C488 1.258 . S
O484 C477 1.230 1_545 S
O484 Zn481 2.028 . S
O485 C477 1.219 1_545 S
O485 Zn479 2.035 . S
O486 Zn479 2.028 . S
O486 C489 1.247 . S
O487 Zn481 2.035 . S
O487 C489 1.258 . S
C488 O482 1.247 . S
C488 O483 1.258 . S
C489 O486 1.247 . S
C489 O487 1.258 . S
C490 O492 1.247 . S
C490 O494 1.258 . S
C491 O498 1.247 . S
C491 O499 1.258 . S
O492 C490 1.247 . S
O492 Zn493 2.028 . S
Zn493 O492 2.028 . S
Zn493 O497 2.035 . S
Zn493 O499 2.035 . S
Zn493 O500 2.028 . S
O494 C490 1.258 . S
O494 Zn495 2.035 . S
Zn495 O494 2.035 . S
Zn495 O496 2.028 . S
Zn495 O498 2.028 . S
Zn495 O501 2.035 . S
O496 Zn495 2.028 . S
O496 C502 1.247 . S
O497 Zn493 2.035 . S
O497 C502 1.258 . S
O498 C491 1.247 . S
O498 Zn495 2.028 . S
O499 C491 1.258 . S
O499 Zn493 2.035 . S
O500 Zn493 2.028 . S
O500 C503 1.247 . S
O501 Zn495 2.035 . S
O501 C503 1.258 . S
C502 O496 1.247 . S
C502 O497 1.258 . S
C503 O500 1.247 . S
C503 O501 1.258 . S
C504 O506 1.247 . S
C504 O508 1.258 . S
C505 O512 1.247 . S
C505 O513 1.258 . S
O506 C504 1.247 . S
O506 Zn507 2.028 . S
Zn507 O506 2.028 . S
Zn507 O511 2.035 . S
Zn507 O513 2.035 . S
Zn507 O514 2.028 . S
O508 C504 1.258 . S
O508 Zn509 2.035 . S
Zn509 O508 2.035 . S
Zn509 O510 2.028 . S
Zn509 O512 2.028 . S
Zn509 O515 2.035 . S
O510 Zn509 2.028 . S
O510 C516 1.208 1_545 S
O511 Zn507 2.035 . S
O511 C516 1.242 1_545 S
O512 C505 1.247 . S
O512 Zn509 2.028 . S
O513 C505 1.258 . S
O513 Zn507 2.035 . S
O514 Zn507 2.028 . S
O514 C517 1.247 . S
O515 Zn509 2.035 . S
O515 C517 1.258 . S
C516 O510 1.208 1_565 S
C516 O511 1.242 1_565 S
C517 O514 1.247 . S
C517 O515 1.258 . S
C518 O520 1.247 . S
C518 O522 1.258 . S
C519 O526 1.247 . S
C519 O527 1.258 . S
O520 C518 1.247 . S
O520 Zn521 2.028 . S
Zn521 O520 2.028 . S
Zn521 O525 2.035 . S
Zn521 O527 2.035 . S
Zn521 O528 2.028 . S
O522 C518 1.258 . S
O522 Zn523 2.035 . S
Zn523 O522 2.035 . S
Zn523 O524 2.028 . S
Zn523 O526 2.028 . S
Zn523 O529 2.035 . S
O524 Zn523 2.028 . S
O524 C530 1.247 . S
O525 Zn521 2.035 . S
O525 C530 1.258 . S
O526 C519 1.247 . S
O526 Zn523 2.028 . S
O527 C519 1.258 . S
O527 Zn521 2.035 . S
O528 Zn521 2.028 . S
O528 C531 1.247 . S
O529 Zn523 2.035 . S
O529 C531 1.258 . S
C530 O524 1.247 . S
C530 O525 1.258 . S
C531 O528 1.247 . S
C531 O529 1.258 . S
C532 O534 1.247 . S
C532 O536 1.258 . S
C533 O540 1.247 . S
C533 O541 1.258 . S
O534 C532 1.247 . S
O534 Zn535 2.028 . S
Zn535 O534 2.028 . S
Zn535 O539 2.035 . S
Zn535 O541 2.035 . S
Zn535 O542 2.028 . S
O536 C532 1.258 . S
O536 Zn537 2.035 . S
Zn537 O536 2.035 . S
Zn537 O538 2.028 . S
Zn537 O540 2.028 . S
Zn537 O543 2.035 . S
O538 Zn537 2.028 . S
O538 C544 1.208 1_565 S
O539 Zn535 2.035 . S
O539 C544 1.242 1_565 S
O540 C533 1.247 . S
O540 Zn537 2.028 . S
O541 C533 1.258 . S
O541 Zn535 2.035 . S
O542 Zn535 2.028 . S
O542 C545 1.247 . S
O543 Zn537 2.035 . S
O543 C545 1.258 . S
C544 O538 1.208 1_545 S
C544 O539 1.242 1_545 S
C545 O542 1.247 . S
C545 O543 1.258 . S
C546 O548 1.247 . S
C546 O550 1.258 . S
C547 O554 1.247 . S
C547 O555 1.258 . S
O548 C546 1.247 . S
O548 Zn549 2.028 . S
Zn549 O548 2.028 . S
Zn549 O553 2.035 . S
Zn549 O555 2.035 . S
Zn549 O556 2.028 . S
O550 C546 1.258 . S
O550 Zn551 2.035 . S
Zn551 O550 2.035 . S
Zn551 O552 2.028 . S
Zn551 O554 2.028 . S
Zn551 O557 2.035 . S
O552 Zn551 2.028 . S
O552 C558 1.247 . S
O553 Zn549 2.035 . S
O553 C558 1.258 . S
O554 C547 1.247 . S
O554 Zn551 2.028 . S
O555 C547 1.258 . S
O555 Zn549 2.035 . S
O556 Zn549 2.028 . S
O556 C559 1.247 . S
O557 Zn551 2.035 . S
O557 C559 1.258 . S
C558 O552 1.247 . S
C558 O553 1.258 . S
C559 O556 1.247 . S
C559 O557 1.258 . S
C560 O562 1.208 1_554 S
C560 O564 1.242 1_554 S
C561 O568 1.247 . S
C561 O569 1.258 . S
O562 C560 1.208 1_556 S
O562 Zn563 2.028 . S
Zn563 O562 2.028 . S
Zn563 O567 2.035 . S
Zn563 O569 2.035 . S
Zn563 O570 2.028 . S
O564 C560 1.242 1_556 S
O564 Zn565 2.035 . S
Zn565 O564 2.035 . S
Zn565 O566 2.028 . S
Zn565 O568 2.028 . S
Zn565 O571 2.035 . S
O566 Zn565 2.028 . S
O566 C572 1.247 . S
O567 Zn563 2.035 . S
O567 C572 1.258 . S
O568 C561 1.247 . S
O568 Zn565 2.028 . S
O569 C561 1.258 . S
O569 Zn563 2.035 . S
O570 Zn563 2.028 . S
O570 C573 1.247 . S
O571 Zn565 2.035 . S
O571 C573 1.258 . S
C572 O566 1.247 . S
C572 O567 1.258 . S
C573 O570 1.247 . S
C573 O571 1.258 . S
C574 O576 1.208 1_556 S
C574 O578 1.242 1_556 S
C575 O582 1.247 . S
C575 O583 1.258 . S
O576 C574 1.208 1_554 S
O576 Zn577 2.028 . S
Zn577 O576 2.028 . S
Zn577 O581 2.035 . S
Zn577 O583 2.035 . S
Zn577 O584 2.028 . S
O578 C574 1.242 1_554 S
O578 Zn579 2.035 . S
Zn579 O578 2.035 . S
Zn579 O580 2.028 . S
Zn579 O582 2.028 . S
Zn579 O585 2.035 . S
O580 Zn579 2.028 . S
O580 C586 1.247 . S
O581 Zn577 2.035 . S
O581 C586 1.258 . S
O582 C575 1.247 . S
O582 Zn579 2.028 . S
O583 C575 1.258 . S
O583 Zn577 2.035 . S
O584 Zn577 2.028 . S
O584 C587 1.247 . S
O585 Zn579 2.035 . S
O585 C587 1.258 . S
C586 O580 1.247 . S
C586 O581 1.258 . S
C587 O584 1.247 . S
C587 O585 1.258 . S
C588 O590 1.247 . S
C588 O592 1.258 . S
C589 O596 1.247 . S
C589 O597 1.258 . S
O590 C588 1.247 . S
O590 Zn591 2.028 . S
Zn591 O590 2.028 . S
Zn591 O595 2.035 . S
Zn591 O597 2.035 . S
Zn591 O598 2.028 . S
O592 C588 1.258 . S
O592 Zn593 2.035 . S
Zn593 O592 2.035 . S
Zn593 O594 2.028 . S
Zn593 O596 2.028 . S
Zn593 O599 2.035 . S
O594 Zn593 2.028 . S
O594 C600 1.247 . S
O595 Zn591 2.035 . S
O595 C600 1.258 . S
O596 C589 1.247 . S
O596 Zn593 2.028 . S
O597 C589 1.258 . S
O597 Zn591 2.035 . S
O598 Zn591 2.028 . S
O598 C601 1.247 . S
O599 Zn593 2.035 . S
O599 C601 1.258 . S
C600 O594 1.247 . S
C600 O595 1.258 . S
C601 O598 1.247 . S
C601 O599 1.258 . S
C602 O604 1.247 . S
C602 O606 1.258 . S
C603 O610 1.247 . S
C603 O611 1.258 . S
O604 C602 1.247 . S
O604 Zn605 2.028 . S
Zn605 O604 2.028 . S
Zn605 O609 2.035 . S
Zn605 O611 2.035 . S
Zn605 O612 2.028 . S
O606 C602 1.258 . S
O606 Zn607 2.035 . S
Zn607 O606 2.035 . S
Zn607 O608 2.028 . S
Zn607 O610 2.028 . S
Zn607 O613 2.035 . S
O608 Zn607 2.028 . S
O608 C614 1.247 . S
O609 Zn605 2.035 . S
O609 C614 1.258 . S
O610 C603 1.247 . S
O610 Zn607 2.028 . S
O611 C603 1.258 . S
O611 Zn605 2.035 . S
O612 Zn605 2.028 . S
O612 C615 1.247 . S
O613 Zn607 2.035 . S
O613 C615 1.258 . S
C614 O608 1.247 . S
C614 O609 1.258 . S
C615 O612 1.247 . S
C615 O613 1.258 . S
C616 O618 1.247 . S
C616 O620 1.258 . S
C617 O624 1.247 . S
C617 O625 1.258 . S
O618 C616 1.247 . S
O618 Zn619 2.028 . S
Zn619 O618 2.028 . S
Zn619 O623 2.035 . S
Zn619 O625 2.035 . S
Zn619 O626 2.028 . S
O620 C616 1.258 . S
O620 Zn621 2.035 . S
Zn621 O620 2.035 . S
Zn621 O622 2.028 . S
Zn621 O624 2.028 . S
Zn621 O627 2.035 . S
O622 Zn621 2.028 . S
O622 C628 1.247 . S
O623 Zn619 2.035 . S
O623 C628 1.258 . S
O624 C617 1.247 . S
O624 Zn621 2.028 . S
O625 C617 1.258 . S
O625 Zn619 2.035 . S
O626 Zn619 2.028 . S
O626 C629 1.247 . S
O627 Zn621 2.035 . S
O627 C629 1.258 . S
C628 O622 1.247 . S
C628 O623 1.258 . S
C629 O626 1.247 . S
C629 O627 1.258 . S
C630 O632 1.247 . S
C630 O634 1.258 . S
C631 O638 1.247 . S
C631 O639 1.258 . S
O632 C630 1.247 . S
O632 Zn633 2.028 . S
Zn633 O632 2.028 . S
Zn633 O637 2.035 . S
Zn633 O639 2.035 . S
Zn633 O640 2.028 . S
O634 C630 1.258 . S
O634 Zn635 2.035 . S
Zn635 O634 2.035 . S
Zn635 O636 2.028 . S
Zn635 O638 2.028 . S
Zn635 O641 2.035 . S
O636 Zn635 2.028 . S
O636 C642 1.247 . S
O637 Zn633 2.035 . S
O637 C642 1.258 . S
O638 C631 1.247 . S
O638 Zn635 2.028 . S
O639 C631 1.258 . S
O639 Zn633 2.035 . S
O640 Zn633 2.028 . S
O640 C643 1.247 . S
O641 Zn635 2.035 . S
O641 C643 1.258 . S
C642 O636 1.247 . S
C642 O637 1.258 . S
C643 O640 1.247 . S
C643 O641 1.258 . S
C644 O646 1.247 . S
C644 O648 1.258 . S
C645 O652 1.247 . S
C645 O653 1.258 . S
O646 C644 1.247 . S
O646 Zn647 2.028 . S
Zn647 O646 2.028 . S
Zn647 O651 2.035 . S
Zn647 O653 2.035 . S
Zn647 O654 2.028 . S
O648 C644 1.258 . S
O648 Zn649 2.035 . S
Zn649 O648 2.035 . S
Zn649 O650 2.028 . S
Zn649 O652 2.028 . S
Zn649 O655 2.035 . S
O650 Zn649 2.028 . S
O650 C656 1.247 . S
O651 Zn647 2.035 . S
O651 C656 1.258 . S
O652 C645 1.247 . S
O652 Zn649 2.028 . S
O653 C645 1.258 . S
O653 Zn647 2.035 . S
O654 Zn647 2.028 . S
O654 C657 1.247 . S
O655 Zn649 2.035 . S
O655 C657 1.258 . S
C656 O650 1.247 . S
C656 O651 1.258 . S
C657 O654 1.247 . S
C657 O655 1.258 . S
C658 O660 1.247 . S
C658 O662 1.258 . S
C659 O666 1.247 . S
C659 O667 1.258 . S
O660 C658 1.247 . S
O660 Zn661 2.028 . S
Zn661 O660 2.028 . S
Zn661 O665 2.035 . S
Zn661 O667 2.035 . S
Zn661 O668 2.028 . S
O662 C658 1.258 . S
O662 Zn663 2.035 . S
Zn663 O662 2.035 . S
Zn663 O664 2.028 . S
Zn663 O666 2.028 . S
Zn663 O669 2.035 . S
O664 Zn663 2.028 . S
O664 C670 1.247 . S
O665 Zn661 2.035 . S
O665 C670 1.258 . S
O666 C659 1.247 . S
O666 Zn663 2.028 . S
O667 C659 1.258 . S
O667 Zn661 2.035 . S
O668 Zn661 2.028 . S
O668 C671 1.247 . S
O669 Zn663 2.035 . S
O669 C671 1.258 . S
C670 O664 1.247 . S
C670 O665 1.258 . S
C671 O668 1.247 . S
C671 O669 1.258 . S
C672 O674 1.247 . S
C672 O676 1.258 . S
C673 O680 1.247 . S
C673 O681 1.258 . S
O674 C672 1.247 . S
O674 Zn675 2.028 . S
Zn675 O674 2.028 . S
Zn675 O679 2.035 . S
Zn675 O681 2.035 . S
Zn675 O682 2.028 . S
O676 C672 1.258 . S
O676 Zn677 2.035 . S
Zn677 O676 2.035 . S
Zn677 O678 2.028 . S
Zn677 O680 2.028 . S
Zn677 O683 2.035 . S
O678 Zn677 2.028 . S
O678 C684 1.247 . S
O679 Zn675 2.035 . S
O679 C684 1.258 . S
O680 C673 1.247 . S
O680 Zn677 2.028 . S
O681 C673 1.258 . S
O681 Zn675 2.035 . S
O682 Zn675 2.028 . S
O682 C685 1.247 . S
O683 Zn677 2.035 . S
O683 C685 1.258 . S
C684 O678 1.247 . S
C684 O679 1.258 . S
C685 O682 1.247 . S
C685 O683 1.258 . S
C686 O688 1.247 . S
C686 O690 1.258 . S
C687 O694 1.247 . S
C687 O695 1.258 . S
O688 C686 1.247 . S
O688 Zn689 2.028 . S
Zn689 O688 2.028 . S
Zn689 O693 2.035 . S
Zn689 O695 2.035 . S
Zn689 O696 2.028 . S
O690 C686 1.258 . S
O690 Zn691 2.035 . S
Zn691 O690 2.035 . S
Zn691 O692 2.028 . S
Zn691 O694 2.028 . S
Zn691 O697 2.035 . S
O692 Zn691 2.028 . S
O692 C698 1.247 . S
O693 Zn689 2.035 . S
O693 C698 1.258 . S
O694 C687 1.247 . S
O694 Zn691 2.028 . S
O695 C687 1.258 . S
O695 Zn689 2.035 . S
O696 Zn689 2.028 . S
O696 C699 1.247 . S
O697 Zn691 2.035 . S
O697 C699 1.258 . S
C698 O692 1.247 . S
C698 O693 1.258 . S
C699 O696 1.247 . S
C699 O697 1.258 . S
C700 O702 1.230 1_455 S
C700 O704 1.219 1_455 S
C701 O708 1.247 . S
C701 O709 1.258 . S
O702 C700 1.230 1_655 S
O702 Zn703 2.028 . S
Zn703 O702 2.028 . S
Zn703 O707 2.035 . S
Zn703 O709 2.035 . S
Zn703 O710 2.028 . S
O704 C700 1.219 1_655 S
O704 Zn705 2.035 . S
Zn705 O704 2.035 . S
Zn705 O706 2.028 . S
Zn705 O708 2.028 . S
Zn705 O711 2.035 . S
O706 Zn705 2.028 . S
O706 C712 1.247 . S
O707 Zn703 2.035 . S
O707 C712 1.258 . S
O708 C701 1.247 . S
O708 Zn705 2.028 . S
O709 C701 1.258 . S
O709 Zn703 2.035 . S
O710 Zn703 2.028 . S
O710 C713 1.247 . S
O711 Zn705 2.035 . S
O711 C713 1.258 . S
C712 O706 1.247 . S
C712 O707 1.258 . S
C713 O710 1.247 . S
C713 O711 1.258 . S
C714 O716 1.247 . S
C714 O718 1.258 . S
C715 O722 1.247 . S
C715 O723 1.258 . S
O716 C714 1.247 . S
O716 Zn717 2.028 . S
Zn717 O716 2.028 . S
Zn717 O721 2.035 . S
Zn717 O723 2.035 . S
Zn717 O724 2.028 . S
O718 C714 1.258 . S
O718 Zn719 2.035 . S
Zn719 O718 2.035 . S
Zn719 O720 2.028 . S
Zn719 O722 2.028 . S
Zn719 O725 2.035 . S
O720 Zn719 2.028 . S
O720 C726 1.247 . S
O721 Zn717 2.035 . S
O721 C726 1.258 . S
O722 C715 1.247 . S
O722 Zn719 2.028 . S
O723 C715 1.258 . S
O723 Zn717 2.035 . S
O724 Zn717 2.028 . S
O724 C727 1.247 . S
O725 Zn719 2.035 . S
O725 C727 1.258 . S
C726 O720 1.247 . S
C726 O721 1.258 . S
C727 O724 1.247 . S
C727 O725 1.258 . S
C728 O730 1.247 . S
C728 O732 1.258 . S
C729 O736 1.247 . S
C729 O737 1.258 . S
O730 C728 1.247 . S
O730 Zn731 2.028 . S
Zn731 O730 2.028 . S
Zn731 O735 2.035 . S
Zn731 O737 2.035 . S
Zn731 O738 2.028 . S
O732 C728 1.258 . S
O732 Zn733 2.035 . S
Zn733 O732 2.035 . S
Zn733 O734 2.028 . S
Zn733 O736 2.028 . S
Zn733 O739 2.035 . S
O734 Zn733 2.028 . S
O734 C740 1.247 . S
O735 Zn731 2.035 . S
O735 C740 1.258 . S
O736 C729 1.247 . S
O736 Zn733 2.028 . S
O737 C729 1.258 . S
O737 Zn731 2.035 . S
O738 Zn731 2.028 . S
O738 C741 1.247 . S
O739 Zn733 2.035 . S
O739 C741 1.258 . S
C740 O734 1.247 . S
C740 O735 1.258 . S
C741 O738 1.247 . S
C741 O739 1.258 . S
C742 O744 1.247 . S
C742 O746 1.258 . S
C743 O750 1.247 . S
C743 O751 1.258 . S
O744 C742 1.247 . S
O744 Zn745 2.028 . S
Zn745 O744 2.028 . S
Zn745 O749 2.035 . S
Zn745 O751 2.035 . S
Zn745 O752 2.028 . S
O746 C742 1.258 . S
O746 Zn747 2.035 . S
Zn747 O746 2.035 . S
Zn747 O748 2.028 . S
Zn747 O750 2.028 . S
Zn747 O753 2.035 . S
O748 Zn747 2.028 . S
O748 C754 1.247 . S
O749 Zn745 2.035 . S
O749 C754 1.258 . S
O750 C743 1.247 . S
O750 Zn747 2.028 . S
O751 C743 1.258 . S
O751 Zn745 2.035 . S
O752 Zn745 2.028 . S
O752 C755 1.247 . S
O753 Zn747 2.035 . S
O753 C755 1.258 . S
C754 O748 1.247 . S
C754 O749 1.258 . S
C755 O752 1.247 . S
C755 O753 1.258 . S
C756 O758 1.247 . S
C756 O760 1.258 . S
C757 O764 1.208 1_455 S
C757 O765 1.242 1_455 S
O758 C756 1.247 . S
O758 Zn759 2.028 . S
Zn759 O758 2.028 . S
Zn759 O763 2.035 . S
Zn759 O765 2.035 . S
Zn759 O766 2.028 . S
O760 C756 1.258 . S
O760 Zn761 2.035 . S
Zn761 O760 2.035 . S
Zn761 O762 2.028 . S
Zn761 O764 2.028 . S
Zn761 O767 2.035 . S
O762 Zn761 2.028 . S
O762 C768 1.247 . S
O763 Zn759 2.035 . S
O763 C768 1.258 . S
O764 C757 1.208 1_655 S
O764 Zn761 2.028 . S
O765 C757 1.242 1_655 S
O765 Zn759 2.035 . S
O766 Zn759 2.028 . S
O766 C769 1.247 . S
O767 Zn761 2.035 . S
O767 C769 1.258 . S
C768 O762 1.247 . S
C768 O763 1.258 . S
C769 O766 1.247 . S
C769 O767 1.258 . S
C770 O772 1.247 . S
C770 O774 1.258 . S
C771 O778 1.247 . S
C771 O779 1.258 . S
O772 C770 1.247 . S
O772 Zn773 2.028 . S
Zn773 O772 2.028 . S
Zn773 O777 2.035 . S
Zn773 O779 2.035 . S
Zn773 O780 2.028 . S
O774 C770 1.258 . S
O774 Zn775 2.035 . S
Zn775 O774 2.035 . S
Zn775 O776 2.028 . S
Zn775 O778 2.028 . S
Zn775 O781 2.035 . S
O776 Zn775 2.028 . S
O776 C782 1.247 . S
O777 Zn773 2.035 . S
O777 C782 1.258 . S
O778 C771 1.247 . S
O778 Zn775 2.028 . S
O779 C771 1.258 . S
O779 Zn773 2.035 . S
O780 Zn773 2.028 . S
O780 C783 1.247 . S
O781 Zn775 2.035 . S
O781 C783 1.258 . S
C782 O776 1.247 . S
C782 O777 1.258 . S
C783 O780 1.247 . S
C783 O781 1.258 . S
C784 O786 1.247 . S
C784 O788 1.258 . S
C785 O792 1.247 . S
C785 O793 1.258 . S
O786 C784 1.247 . S
O786 Zn787 2.028 . S
Zn787 O786 2.028 . S
Zn787 O791 2.035 . S
Zn787 O793 2.035 . S
Zn787 O794 2.028 . S
O788 C784 1.258 . S
O788 Zn789 2.035 . S
Zn789 O788 2.035 . S
Zn789 O790 2.028 . S
Zn789 O792 2.028 . S
Zn789 O795 2.035 . S
O790 Zn789 2.028 . S
O790 C796 1.247 . S
O791 Zn787 2.035 . S
O791 C796 1.258 . S
O792 C785 1.247 . S
O792 Zn789 2.028 . S
O793 C785 1.258 . S
O793 Zn787 2.035 . S
O794 Zn787 2.028 . S
O794 C797 1.247 . S
O795 Zn789 2.035 . S
O795 C797 1.258 . S
C796 O790 1.247 . S
C796 O791 1.258 . S
C797 O794 1.247 . S
C797 O795 1.258 . S
C798 O800 1.247 . S
C798 O802 1.258 . S
C799 O806 1.247 . S
C799 O807 1.258 . S
O800 C798 1.247 . S
O800 Zn801 2.028 . S
Zn801 O800 2.028 . S
Zn801 O805 2.035 . S
Zn801 O807 2.035 . S
Zn801 O808 2.028 . S
O802 C798 1.258 . S
O802 Zn803 2.035 . S
Zn803 O802 2.035 . S
Zn803 O804 2.028 . S
Zn803 O806 2.028 . S
Zn803 O809 2.035 . S
O804 Zn803 2.028 . S
O804 C810 1.247 . S
O805 Zn801 2.035 . S
O805 C810 1.258 . S
O806 C799 1.247 . S
O806 Zn803 2.028 . S
O807 C799 1.258 . S
O807 Zn801 2.035 . S
O808 Zn801 2.028 . S
O808 C811 1.247 . S
O809 Zn803 2.035 . S
O809 C811 1.258 . S
C810 O804 1.247 . S
C810 O805 1.258 . S
C811 O808 1.247 . S
C811 O809 1.258 . S
C812 O814 1.247 . S
C812 O816 1.258 . S
C813 O820 1.247 . S
C813 O821 1.258 . S
O814 C812 1.247 . S
O814 Zn815 2.028 . S
Zn815 O814 2.028 . S
Zn815 O819 2.035 . S
Zn815 O821 2.035 . S
Zn815 O822 2.028 . S
O816 C812 1.258 . S
O816 Zn817 2.035 . S
Zn817 O816 2.035 . S
Zn817 O818 2.028 . S
Zn817 O820 2.028 . S
Zn817 O823 2.035 . S
O818 Zn817 2.028 . S
O818 C824 1.247 . S
O819 Zn815 2.035 . S
O819 C824 1.258 . S
O820 C813 1.247 . S
O820 Zn817 2.028 . S
O821 C813 1.258 . S
O821 Zn815 2.035 . S
O822 Zn815 2.028 . S
O822 C825 1.247 . S
O823 Zn817 2.035 . S
O823 C825 1.258 . S
C824 O818 1.247 . S
C824 O819 1.258 . S
C825 O822 1.247 . S
C825 O823 1.258 . S
C826 O828 1.247 . S
C826 O830 1.258 . S
C827 O834 1.247 . S
C827 O835 1.258 . S
O828 C826 1.247 . S
O828 Zn829 2.028 . S
Zn829 O828 2.028 . S
Zn829 O833 2.035 . S
Zn829 O835 2.035 . S
Zn829 O836 2.028 . S
O830 C826 1.258 . S
O830 Zn831 2.035 . S
Zn831 O830 2.035 . S
Zn831 O832 2.028 . S
Zn831 O834 2.028 . S
Zn831 O837 2.035 . S
O832 Zn831 2.028 . S
O832 C838 1.247 . S
O833 Zn829 2.035 . S
O833 C838 1.258 . S
O834 C827 1.247 . S
O834 Zn831 2.028 . S
O835 C827 1.258 . S
O835 Zn829 2.035 . S
O836 Zn829 2.028 . S
O836 C839 1.247 . S
O837 Zn831 2.035 . S
O837 C839 1.258 . S
C838 O832 1.247 . S
C838 O833 1.258 . S
C839 O836 1.247 . S
C839 O837 1.258 . S
C840 O842 1.247 . S
C840 O844 1.258 . S
C841 O848 1.247 . S
C841 O849 1.258 . S
O842 C840 1.247 . S
O842 Zn843 2.028 . S
Zn843 O842 2.028 . S
Zn843 O847 2.035 . S
Zn843 O849 2.035 . S
Zn843 O850 2.028 . S
O844 C840 1.258 . S
O844 Zn845 2.035 . S
Zn845 O844 2.035 . S
Zn845 O846 2.028 . S
Zn845 O848 2.028 . S
Zn845 O851 2.035 . S
O846 Zn845 2.028 . S
O846 C852 1.247 . S
O847 Zn843 2.035 . S
O847 C852 1.258 . S
O848 C841 1.247 . S
O848 Zn845 2.028 . S
O849 C841 1.258 . S
O849 Zn843 2.035 . S
O850 Zn843 2.028 . S
O850 C853 1.247 . S
O851 Zn845 2.035 . S
O851 C853 1.258 . S
C852 O846 1.247 . S
C852 O847 1.258 . S
C853 O850 1.247 . S
C853 O851 1.258 . S
C854 O856 1.247 . S
C854 O858 1.258 . S
C855 O862 1.247 . S
C855 O863 1.258 . S
O856 C854 1.247 . S
O856 Zn857 2.028 . S
Zn857 O856 2.028 . S
Zn857 O861 2.035 . S
Zn857 O863 2.035 . S
Zn857 O864 2.028 . S
O858 C854 1.258 . S
O858 Zn859 2.035 . S
Zn859 O858 2.035 . S
Zn859 O860 2.028 . S
Zn859 O862 2.028 . S
Zn859 O865 2.035 . S
O860 Zn859 2.028 . S
O860 C866 1.247 . S
O861 Zn857 2.035 . S
O861 C866 1.258 . S
O862 C855 1.247 . S
O862 Zn859 2.028 . S
O863 C855 1.258 . S
O863 Zn857 2.035 . S
O864 Zn857 2.028 . S
O864 C867 1.247 . S
O865 Zn859 2.035 . S
O865 C867 1.258 . S
C866 O860 1.247 . S
C866 O861 1.258 . S
C867 O864 1.247 . S
C867 O865 1.258 . S
C868 O870 1.247 . S
C868 O872 1.258 . S
C869 O876 1.247 . S
C869 O877 1.258 . S
O870 C868 1.247 . S
O870 Zn871 2.028 . S
Zn871 O870 2.028 . S
Zn871 O875 2.035 . S
Zn871 O877 2.035 . S
Zn871 O878 2.028 . S
O872 C868 1.258 . S
O872 Zn873 2.035 . S
Zn873 O872 2.035 . S
Zn873 O874 2.028 . S
Zn873 O876 2.028 . S
Zn873 O879 2.035 . S
O874 Zn873 2.028 . S
O874 C880 1.247 . S
O875 Zn871 2.035 . S
O875 C880 1.258 . S
O876 C869 1.247 . S
O876 Zn873 2.028 . S
O877 C869 1.258 . S
O877 Zn871 2.035 . S
O878 Zn871 2.028 . S
O878 C881 1.247 . S
O879 Zn873 2.035 . S
O879 C881 1.258 . S
C880 O874 1.247 . S
C880 O875 1.258 . S
C881 O878 1.247 . S
C881 O879 1.258 . S
C882 O884 1.247 . S
C882 O886 1.258 . S
C883 O890 1.247 . S
C883 O891 1.258 . S
O884 C882 1.247 . S
O884 Zn885 2.028 . S
Zn885 O884 2.028 . S
Zn885 O889 2.035 . S
Zn885 O891 2.035 . S
Zn885 O892 2.028 . S
O886 C882 1.258 . S
O886 Zn887 2.035 . S
Zn887 O886 2.035 . S
Zn887 O888 2.028 . S
Zn887 O890 2.028 . S
Zn887 O893 2.035 . S
O888 Zn887 2.028 . S
O888 C894 1.247 . S
O889 Zn885 2.035 . S
O889 C894 1.258 . S
O890 C883 1.247 . S
O890 Zn887 2.028 . S
O891 C883 1.258 . S
O891 Zn885 2.035 . S
O892 Zn885 2.028 . S
O892 C895 1.247 . S
O893 Zn887 2.035 . S
O893 C895 1.258 . S
C894 O888 1.247 . S
C894 O889 1.258 . S
C895 O892 1.247 . S
C895 O893 1.258 . S
C896 O898 1.247 . S
C896 O900 1.258 . S
C897 O904 1.247 . S
C897 O905 1.258 . S
O898 C896 1.247 . S
O898 Zn899 2.028 . S
Zn899 O898 2.028 . S
Zn899 O903 2.035 . S
Zn899 O905 2.035 . S
Zn899 O906 2.028 . S
O900 C896 1.258 . S
O900 Zn901 2.035 . S
Zn901 O900 2.035 . S
Zn901 O902 2.028 . S
Zn901 O904 2.028 . S
Zn901 O907 2.035 . S
O902 Zn901 2.028 . S
O902 C908 1.247 . S
O903 Zn899 2.035 . S
O903 C908 1.258 . S
O904 C897 1.247 . S
O904 Zn901 2.028 . S
O905 C897 1.258 . S
O905 Zn899 2.035 . S
O906 Zn899 2.028 . S
O906 C909 1.247 . S
O907 Zn901 2.035 . S
O907 C909 1.258 . S
C908 O902 1.247 . S
C908 O903 1.258 . S
C909 O906 1.247 . S
C909 O907 1.258 . S
C910 O912 1.247 . S
C910 O914 1.258 . S
C911 O918 1.247 . S
C911 O919 1.258 . S
O912 C910 1.247 . S
O912 Zn913 2.028 . S
Zn913 O912 2.028 . S
Zn913 O917 2.035 . S
Zn913 O919 2.035 . S
Zn913 O920 2.028 . S
O914 C910 1.258 . S
O914 Zn915 2.035 . S
Zn915 O914 2.035 . S
Zn915 O916 2.028 . S
Zn915 O918 2.028 . S
Zn915 O921 2.035 . S
O916 Zn915 2.028 . S
O916 C922 1.247 . S
O917 Zn913 2.035 . S
O917 C922 1.258 . S
O918 C911 1.247 . S
O918 Zn915 2.028 . S
O919 C911 1.258 . S
O919 Zn913 2.035 . S
O920 Zn913 2.028 . S
O920 C923 1.247 . S
O921 Zn915 2.035 . S
O921 C923 1.258 . S
C922 O916 1.247 . S
C922 O917 1.258 . S
C923 O920 1.247 . S
C923 O921 1.258 . S
C924 O926 1.247 . S
C924 O928 1.258 . S
C925 O932 1.247 . S
C925 O933 1.258 . S
O926 C924 1.247 . S
O926 Zn927 2.028 . S
Zn927 O926 2.028 . S
Zn927 O931 2.035 . S
Zn927 O933 2.035 . S
Zn927 O934 2.028 . S
O928 C924 1.258 . S
O928 Zn929 2.035 . S
Zn929 O928 2.035 . S
Zn929 O930 2.028 . S
Zn929 O932 2.028 . S
Zn929 O935 2.035 . S
O930 Zn929 2.028 . S
O930 C936 1.247 . S
O931 Zn927 2.035 . S
O931 C936 1.258 . S
O932 C925 1.247 . S
O932 Zn929 2.028 . S
O933 C925 1.258 . S
O933 Zn927 2.035 . S
O934 Zn927 2.028 . S
O934 C937 1.247 . S
O935 Zn929 2.035 . S
O935 C937 1.258 . S
C936 O930 1.247 . S
C936 O931 1.258 . S
C937 O934 1.247 . S
C937 O935 1.258 . S
C938 O940 1.230 1_554 S
C938 O942 1.219 1_554 S
C939 O946 1.247 . S
C939 O947 1.258 . S
O940 C938 1.230 1_556 S
O940 Zn941 2.028 . S
Zn941 O940 2.028 . S
Zn941 O945 2.035 . S
Zn941 O947 2.035 . S
Zn941 O948 2.028 . S
O942 C938 1.219 1_556 S
O942 Zn943 2.035 . S
Zn943 O942 2.035 . S
Zn943 O944 2.028 . S
Zn943 O946 2.028 . S
Zn943 O949 2.035 . S
O944 Zn943 2.028 . S
O944 C950 1.247 . S
O945 Zn941 2.035 . S
O945 C950 1.258 . S
O946 C939 1.247 . S
O946 Zn943 2.028 . S
O947 C939 1.258 . S
O947 Zn941 2.035 . S
O948 Zn941 2.028 . S
O948 C951 1.247 . S
O949 Zn943 2.035 . S
O949 C951 1.258 . S
C950 O944 1.247 . S
C950 O945 1.258 . S
C951 O948 1.247 . S
C951 O949 1.258 . S
C952 O954 1.247 . S
C952 O956 1.258 . S
C953 O960 1.247 . S
C953 O961 1.258 . S
O954 C952 1.247 . S
O954 Zn955 2.028 . S
Zn955 O954 2.028 . S
Zn955 O959 2.035 . S
Zn955 O961 2.035 . S
Zn955 O962 2.028 . S
O956 C952 1.258 . S
O956 Zn957 2.035 . S
Zn957 O956 2.035 . S
Zn957 O958 2.028 . S
Zn957 O960 2.028 . S
Zn957 O963 2.035 . S
O958 Zn957 2.028 . S
O958 C964 1.247 . S
O959 Zn955 2.035 . S
O959 C964 1.258 . S
O960 C953 1.247 . S
O960 Zn957 2.028 . S
O961 C953 1.258 . S
O961 Zn955 2.035 . S
O962 Zn955 2.028 . S
O962 C965 1.247 . S
O963 Zn957 2.035 . S
O963 C965 1.258 . S
C964 O958 1.247 . S
C964 O959 1.258 . S
C965 O962 1.247 . S
C965 O963 1.258 . S
C966 O968 1.247 . S
C966 O970 1.258 . S
C967 O974 1.247 . S
C967 O975 1.258 . S
O968 C966 1.247 . S
O968 Zn969 2.028 . S
Zn969 O968 2.028 . S
Zn969 O973 2.035 . S
Zn969 O975 2.035 . S
Zn969 O976 2.028 . S
O970 C966 1.258 . S
O970 Zn971 2.035 . S
Zn971 O970 2.035 . S
Zn971 O972 2.028 . S
Zn971 O974 2.028 . S
Zn971 O977 2.035 . S
O972 Zn971 2.028 . S
O972 C978 1.247 . S
O973 Zn969 2.035 . S
O973 C978 1.258 . S
O974 C967 1.247 . S
O974 Zn971 2.028 . S
O975 C967 1.258 . S
O975 Zn969 2.035 . S
O976 Zn969 2.028 . S
O976 C979 1.208 1_554 S
O977 Zn971 2.035 . S
O977 C979 1.242 1_554 S
C978 O972 1.247 . S
C978 O973 1.258 . S
C979 O976 1.208 1_556 S
C979 O977 1.242 1_556 S
C980 O982 1.247 . S
C980 O984 1.258 . S
C981 O988 1.247 . S
C981 O989 1.258 . S
O982 C980 1.247 . S
O982 Zn983 2.028 . S
Zn983 O982 2.028 . S
Zn983 O987 2.035 . S
Zn983 O989 2.035 . S
Zn983 O990 2.028 . S
O984 C980 1.258 . S
O984 Zn985 2.035 . S
Zn985 O984 2.035 . S
Zn985 O986 2.028 . S
Zn985 O988 2.028 . S
Zn985 O991 2.035 . S
O986 Zn985 2.028 . S
O986 C992 1.247 . S
O987 Zn983 2.035 . S
O987 C992 1.258 . S
O988 C981 1.247 . S
O988 Zn985 2.028 . S
O989 C981 1.258 . S
O989 Zn983 2.035 . S
O990 Zn983 2.028 . S
O990 C993 1.247 . S
O991 Zn985 2.035 . S
O991 C993 1.258 . S
C992 O986 1.247 . S
C992 O987 1.258 . S
C993 O990 1.247 . S
C993 O991 1.258 . S
C994 O996 1.247 . S
C994 O998 1.258 . S
C995 O1002 1.247 . S
C995 O1003 1.258 . S
O996 C994 1.247 . S
O996 Zn997 2.028 . S
Zn997 O996 2.028 . S
Zn997 O1001 2.035 . S
Zn997 O1003 2.035 . S
Zn997 O1004 2.028 . S
O998 C994 1.258 . S
O998 Zn999 2.035 . S
Zn999 O998 2.035 . S
Zn999 O1000 2.028 . S
Zn999 O1002 2.028 . S
Zn999 O1005 2.035 . S
O1000 Zn999 2.028 . S
O1000 C1006 1.247 . S
O1001 Zn997 2.035 . S
O1001 C1006 1.258 . S
O1002 C995 1.247 . S
O1002 Zn999 2.028 . S
O1003 C995 1.258 . S
O1003 Zn997 2.035 . S
O1004 Zn997 2.028 . S
O1004 C1007 1.247 . S
O1005 Zn999 2.035 . S
O1005 C1007 1.258 . S
C1006 O1000 1.247 . S
C1006 O1001 1.258 . S
C1007 O1004 1.247 . S
C1007 O1005 1.258 . S
C1008 O1010 1.247 . S
C1008 O1012 1.258 . S
C1009 O1016 1.247 . S
C1009 O1017 1.258 . S
O1010 C1008 1.247 . S
O1010 Zn1011 2.028 . S
Zn1011 O1010 2.028 . S
Zn1011 O1015 2.035 . S
Zn1011 O1017 2.035 . S
Zn1011 O1018 2.028 . S
O1012 C1008 1.258 . S
O1012 Zn1013 2.035 . S
Zn1013 O1012 2.035 . S
Zn1013 O1014 2.028 . S
Zn1013 O1016 2.028 . S
Zn1013 O1019 2.035 . S
O1014 Zn1013 2.028 . S
O1014 C1020 1.247 . S
O1015 Zn1011 2.035 . S
O1015 C1020 1.258 . S
O1016 C1009 1.247 . S
O1016 Zn1013 2.028 . S
O1017 C1009 1.258 . S
O1017 Zn1011 2.035 . S
O1018 Zn1011 2.028 . S
O1018 C1021 1.247 . S
O1019 Zn1013 2.035 . S
O1019 C1021 1.258 . S
C1020 O1014 1.247 . S
C1020 O1015 1.258 . S
C1021 O1018 1.247 . S
C1021 O1019 1.258 . S
C1022 O1024 1.247 . S
C1022 O1026 1.258 . S
C1023 O1030 1.247 . S
C1023 O1031 1.258 . S
O1024 C1022 1.247 . S
O1024 Zn1025 2.028 . S
Zn1025 O1024 2.028 . S
Zn1025 O1029 2.035 . S
Zn1025 O1031 2.035 . S
Zn1025 O1032 2.028 . S
O1026 C1022 1.258 . S
O1026 Zn1027 2.035 . S
Zn1027 O1026 2.035 . S
Zn1027 O1028 2.028 . S
Zn1027 O1030 2.028 . S
Zn1027 O1033 2.035 . S
O1028 Zn1027 2.028 . S
O1028 C1034 1.247 . S
O1029 Zn1025 2.035 . S
O1029 C1034 1.258 . S
O1030 C1023 1.247 . S
O1030 Zn1027 2.028 . S
O1031 C1023 1.258 . S
O1031 Zn1025 2.035 . S
O1032 Zn1025 2.028 . S
O1032 C1035 1.247 . S
O1033 Zn1027 2.035 . S
O1033 C1035 1.258 . S
C1034 O1028 1.247 . S
C1034 O1029 1.258 . S
C1035 O1032 1.247 . S
C1035 O1033 1.258 . S
C1036 O1038 1.247 . S
C1036 O1040 1.258 . S
C1037 O1044 1.230 1_655 S
C1037 O1045 1.219 1_655 S
O1038 C1036 1.247 . S
O1038 Zn1039 2.028 . S
Zn1039 O1038 2.028 . S
Zn1039 O1043 2.035 . S
Zn1039 O1045 2.035 . S
Zn1039 O1046 2.028 . S
O1040 C1036 1.258 . S
O1040 Zn1041 2.035 . S
Zn1041 O1040 2.035 . S
Zn1041 O1042 2.028 . S
Zn1041 O1044 2.028 . S
Zn1041 O1047 2.035 . S
O1042 Zn1041 2.028 . S
O1042 C1048 1.247 . S
O1043 Zn1039 2.035 . S
O1043 C1048 1.258 . S
O1044 C1037 1.230 1_455 S
O1044 Zn1041 2.028 . S
O1045 C1037 1.219 1_455 S
O1045 Zn1039 2.035 . S
O1046 Zn1039 2.028 . S
O1046 C1049 1.247 . S
O1047 Zn1041 2.035 . S
O1047 C1049 1.258 . S
C1048 O1042 1.247 . S
C1048 O1043 1.258 . S
C1049 O1046 1.247 . S
C1049 O1047 1.258 . S
C1050 O1052 1.247 . S
C1050 O1054 1.258 . S
C1051 O1058 1.247 . S
C1051 O1059 1.258 . S
O1052 C1050 1.247 . S
O1052 Zn1053 2.028 . S
Zn1053 O1052 2.028 . S
Zn1053 O1057 2.035 . S
Zn1053 O1059 2.035 . S
Zn1053 O1060 2.028 . S
O1054 C1050 1.258 . S
O1054 Zn1055 2.035 . S
Zn1055 O1054 2.035 . S
Zn1055 O1056 2.028 . S
Zn1055 O1058 2.028 . S
Zn1055 O1061 2.035 . S
O1056 Zn1055 2.028 . S
O1056 C1062 1.247 . S
O1057 Zn1053 2.035 . S
O1057 C1062 1.258 . S
O1058 C1051 1.247 . S
O1058 Zn1055 2.028 . S
O1059 C1051 1.258 . S
O1059 Zn1053 2.035 . S
O1060 Zn1053 2.028 . S
O1060 C1063 1.247 . S
O1061 Zn1055 2.035 . S
O1061 C1063 1.258 . S
C1062 O1056 1.247 . S
C1062 O1057 1.258 . S
C1063 O1060 1.247 . S
C1063 O1061 1.258 . S
C1064 O1066 1.247 . S
C1064 O1068 1.258 . S
C1065 O1072 1.247 . S
C1065 O1073 1.258 . S
O1066 C1064 1.247 . S
O1066 Zn1067 2.028 . S
Zn1067 O1066 2.028 . S
Zn1067 O1071 2.035 . S
Zn1067 O1073 2.035 . S
Zn1067 O1074 2.028 . S
O1068 C1064 1.258 . S
O1068 Zn1069 2.035 . S
Zn1069 O1068 2.035 . S
Zn1069 O1070 2.028 . S
Zn1069 O1072 2.028 . S
Zn1069 O1075 2.035 . S
O1070 Zn1069 2.028 . S
O1070 C1076 1.247 . S
O1071 Zn1067 2.035 . S
O1071 C1076 1.258 . S
O1072 C1065 1.247 . S
O1072 Zn1069 2.028 . S
O1073 C1065 1.258 . S
O1073 Zn1067 2.035 . S
O1074 Zn1067 2.028 . S
O1074 C1077 1.247 . S
O1075 Zn1069 2.035 . S
O1075 C1077 1.258 . S
C1076 O1070 1.247 . S
C1076 O1071 1.258 . S
C1077 O1074 1.247 . S
C1077 O1075 1.258 . S
C1078 O1080 1.247 . S
C1078 O1082 1.258 . S
C1079 O1086 1.247 . S
C1079 O1087 1.258 . S
O1080 C1078 1.247 . S
O1080 Zn1081 2.028 . S
Zn1081 O1080 2.028 . S
Zn1081 O1085 2.035 . S
Zn1081 O1087 2.035 . S
Zn1081 O1088 2.028 . S
O1082 C1078 1.258 . S
O1082 Zn1083 2.035 . S
Zn1083 O1082 2.035 . S
Zn1083 O1084 2.028 . S
Zn1083 O1086 2.028 . S
Zn1083 O1089 2.035 . S
O1084 Zn1083 2.028 . S
O1084 C1090 1.247 . S
O1085 Zn1081 2.035 . S
O1085 C1090 1.258 . S
O1086 C1079 1.247 . S
O1086 Zn1083 2.028 . S
O1087 C1079 1.258 . S
O1087 Zn1081 2.035 . S
O1088 Zn1081 2.028 . S
O1088 C1091 1.247 . S
O1089 Zn1083 2.035 . S
O1089 C1091 1.258 . S
C1090 O1084 1.247 . S
C1090 O1085 1.258 . S
C1091 O1088 1.247 . S
C1091 O1089 1.258 . S
C1092 O1094 1.247 . S
C1092 O1096 1.258 . S
C1093 O1100 1.230 1_655 S
C1093 O1101 1.219 1_655 S
O1094 C1092 1.247 . S
O1094 Zn1095 2.028 . S
Zn1095 O1094 2.028 . S
Zn1095 O1099 2.035 . S
Zn1095 O1101 2.035 . S
Zn1095 O1102 2.028 . S
O1096 C1092 1.258 . S
O1096 Zn1097 2.035 . S
Zn1097 O1096 2.035 . S
Zn1097 O1098 2.028 . S
Zn1097 O1100 2.028 . S
Zn1097 O1103 2.035 . S
O1098 Zn1097 2.028 . S
O1098 C1104 1.247 . S
O1099 Zn1095 2.035 . S
O1099 C1104 1.258 . S
O1100 C1093 1.230 1_455 S
O1100 Zn1097 2.028 . S
O1101 C1093 1.219 1_455 S
O1101 Zn1095 2.035 . S
O1102 Zn1095 2.028 . S
O1102 C1105 1.247 . S
O1103 Zn1097 2.035 . S
O1103 C1105 1.258 . S
C1104 O1098 1.247 . S
C1104 O1099 1.258 . S
C1105 O1102 1.247 . S
C1105 O1103 1.258 . S
C1106 O1108 1.247 . S
C1106 O1110 1.258 . S
C1107 O1114 1.247 . S
C1107 O1115 1.258 . S
O1108 C1106 1.247 . S
O1108 Zn1109 2.028 . S
Zn1109 O1108 2.028 . S
Zn1109 O1113 2.035 . S
Zn1109 O1115 2.035 . S
Zn1109 O1116 2.028 . S
O1110 C1106 1.258 . S
O1110 Zn1111 2.035 . S
Zn1111 O1110 2.035 . S
Zn1111 O1112 2.028 . S
Zn1111 O1114 2.028 . S
Zn1111 O1117 2.035 . S
O1112 Zn1111 2.028 . S
O1112 C1118 1.247 . S
O1113 Zn1109 2.035 . S
O1113 C1118 1.258 . S
O1114 C1107 1.247 . S
O1114 Zn1111 2.028 . S
O1115 C1107 1.258 . S
O1115 Zn1109 2.035 . S
O1116 Zn1109 2.028 . S
O1116 C1119 1.247 . S
O1117 Zn1111 2.035 . S
O1117 C1119 1.258 . S
C1118 O1112 1.247 . S
C1118 O1113 1.258 . S
C1119 O1116 1.247 . S
C1119 O1117 1.258 . S
C1120 O1122 1.247 . S
C1120 O1124 1.258 . S
C1121 O1128 1.247 . S
C1121 O1129 1.258 . S
O1122 C1120 1.247 . S
O1122 Zn1123 2.028 . S
Zn1123 O1122 2.028 . S
Zn1123 O1127 2.035 . S
Zn1123 O1129 2.035 . S
Zn1123 O1130 2.028 . S
O1124 C1120 1.258 . S
O1124 Zn1125 2.035 . S
Zn1125 O1124 2.035 . S
Zn1125 O1126 2.028 . S
Zn1125 O1128 2.028 . S
Zn1125 O1131 2.035 . S
O1126 Zn1125 2.028 . S
O1126 C1132 1.247 . S
O1127 Zn1123 2.035 . S
O1127 C1132 1.258 . S
O1128 C1121 1.247 . S
O1128 Zn1125 2.028 . S
O1129 C1121 1.258 . S
O1129 Zn1123 2.035 . S
O1130 Zn1123 2.028 . S
O1130 C1133 1.247 . S
O1131 Zn1125 2.035 . S
O1131 C1133 1.258 . S
C1132 O1126 1.247 . S
C1132 O1127 1.258 . S
C1133 O1130 1.247 . S
C1133 O1131 1.258 . S
C1134 O1136 1.247 . S
C1134 O1138 1.258 . S
C1135 O1142 1.247 . S
C1135 O1143 1.258 . S
O1136 C1134 1.247 . S
O1136 Zn1137 2.028 . S
Zn1137 O1136 2.028 . S
Zn1137 O1141 2.035 . S
Zn1137 O1143 2.035 . S
Zn1137 O1144 2.028 . S
O1138 C1134 1.258 . S
O1138 Zn1139 2.035 . S
Zn1139 O1138 2.035 . S
Zn1139 O1140 2.028 . S
Zn1139 O1142 2.028 . S
Zn1139 O1145 2.035 . S
O1140 Zn1139 2.028 . S
O1140 C1146 1.247 . S
O1141 Zn1137 2.035 . S
O1141 C1146 1.258 . S
O1142 C1135 1.247 . S
O1142 Zn1139 2.028 . S
O1143 C1135 1.258 . S
O1143 Zn1137 2.035 . S
O1144 Zn1137 2.028 . S
O1144 C1147 1.247 . S
O1145 Zn1139 2.035 . S
O1145 C1147 1.258 . S
C1146 O1140 1.247 . S
C1146 O1141 1.258 . S
C1147 O1144 1.247 . S
C1147 O1145 1.258 . S
C1148 O1150 1.247 . S
C1148 O1152 1.258 . S
C1149 O1156 1.247 . S
C1149 O1157 1.258 . S
O1150 C1148 1.247 . S
O1150 Zn1151 2.028 . S
Zn1151 O1150 2.028 . S
Zn1151 O1155 2.035 . S
Zn1151 O1157 2.035 . S
Zn1151 O1158 2.028 . S
O1152 C1148 1.258 . S
O1152 Zn1153 2.035 . S
Zn1153 O1152 2.035 . S
Zn1153 O1154 2.028 . S
Zn1153 O1156 2.028 . S
Zn1153 O1159 2.035 . S
O1154 Zn1153 2.028 . S
O1154 C1160 1.247 . S
O1155 Zn1151 2.035 . S
O1155 C1160 1.258 . S
O1156 C1149 1.247 . S
O1156 Zn1153 2.028 . S
O1157 C1149 1.258 . S
O1157 Zn1151 2.035 . S
O1158 Zn1151 2.028 . S
O1158 C1161 1.247 . S
O1159 Zn1153 2.035 . S
O1159 C1161 1.258 . S
C1160 O1154 1.247 . S
C1160 O1155 1.258 . S
C1161 O1158 1.247 . S
C1161 O1159 1.258 . S
C1162 O1164 1.247 . S
C1162 O1166 1.258 . S
C1163 O1170 1.247 . S
C1163 O1171 1.258 . S
O1164 C1162 1.247 . S
O1164 Zn1165 2.028 . S
Zn1165 O1164 2.028 . S
Zn1165 O1169 2.035 . S
Zn1165 O1171 2.035 . S
Zn1165 O1172 2.028 . S
O1166 C1162 1.258 . S
O1166 Zn1167 2.035 . S
Zn1167 O1166 2.035 . S
Zn1167 O1168 2.028 . S
Zn1167 O1170 2.028 . S
Zn1167 O1173 2.035 . S
O1168 Zn1167 2.028 . S
O1168 C1174 1.247 . S
O1169 Zn1165 2.035 . S
O1169 C1174 1.258 . S
O1170 C1163 1.247 . S
O1170 Zn1167 2.028 . S
O1171 C1163 1.258 . S
O1171 Zn1165 2.035 . S
O1172 Zn1165 2.028 . S
O1172 C1175 1.247 . S
O1173 Zn1167 2.035 . S
O1173 C1175 1.258 . S
C1174 O1168 1.247 . S
C1174 O1169 1.258 . S
C1175 O1172 1.247 . S
C1175 O1173 1.258 . S
C1176 O1178 1.247 . S
C1176 O1180 1.258 . S
C1177 O1184 1.247 . S
C1177 O1185 1.258 . S
O1178 C1176 1.247 . S
O1178 Zn1179 2.028 . S
Zn1179 O1178 2.028 . S
Zn1179 O1183 2.035 . S
Zn1179 O1185 2.035 . S
Zn1179 O1186 2.028 . S
O1180 C1176 1.258 . S
O1180 Zn1181 2.035 . S
Zn1181 O1180 2.035 . S
Zn1181 O1182 2.028 . S
Zn1181 O1184 2.028 . S
Zn1181 O1187 2.035 . S
O1182 Zn1181 2.028 . S
O1182 C1188 1.247 . S
O1183 Zn1179 2.035 . S
O1183 C1188 1.258 . S
O1184 C1177 1.247 . S
O1184 Zn1181 2.028 . S
O1185 C1177 1.258 . S
O1185 Zn1179 2.035 . S
O1186 Zn1179 2.028 . S
O1186 C1189 1.247 . S
O1187 Zn1181 2.035 . S
O1187 C1189 1.258 . S
C1188 O1182 1.247 . S
C1188 O1183 1.258 . S
C1189 O1186 1.247 . S
C1189 O1187 1.258 . S
C1190 O1192 1.247 . S
C1190 O1194 1.258 . S
C1191 O1198 1.247 . S
C1191 O1199 1.258 . S
O1192 C1190 1.247 . S
O1192 Zn1193 2.028 . S
Zn1193 O1192 2.028 . S
Zn1193 O1197 2.035 . S
Zn1193 O1199 2.035 . S
Zn1193 O1200 2.028 . S
O1194 C1190 1.258 . S
O1194 Zn1195 2.035 . S
Zn1195 O1194 2.035 . S
Zn1195 O1196 2.028 . S
Zn1195 O1198 2.028 . S
Zn1195 O1201 2.035 . S
O1196 Zn1195 2.028 . S
O1196 C1202 1.247 . S
O1197 Zn1193 2.035 . S
O1197 C1202 1.258 . S
O1198 C1191 1.247 . S
O1198 Zn1195 2.028 . S
O1199 C1191 1.258 . S
O1199 Zn1193 2.035 . S
O1200 Zn1193 2.028 . S
O1200 C1203 1.247 . S
O1201 Zn1195 2.035 . S
O1201 C1203 1.258 . S
C1202 O1196 1.247 . S
C1202 O1197 1.258 . S
C1203 O1200 1.247 . S
C1203 O1201 1.258 . S
C1204 O1206 1.247 . S
C1204 O1208 1.258 . S
C1205 O1212 1.247 . S
C1205 O1213 1.258 . S
O1206 C1204 1.247 . S
O1206 Zn1207 2.028 . S
Zn1207 O1206 2.028 . S
Zn1207 O1211 2.035 . S
Zn1207 O1213 2.035 . S
Zn1207 O1214 2.028 . S
O1208 C1204 1.258 . S
O1208 Zn1209 2.035 . S
Zn1209 O1208 2.035 . S
Zn1209 O1210 2.028 . S
Zn1209 O1212 2.028 . S
Zn1209 O1215 2.035 . S
O1210 Zn1209 2.028 . S
O1210 C1216 1.247 . S
O1211 Zn1207 2.035 . S
O1211 C1216 1.258 . S
O1212 C1205 1.247 . S
O1212 Zn1209 2.028 . S
O1213 C1205 1.258 . S
O1213 Zn1207 2.035 . S
O1214 Zn1207 2.028 . S
O1214 C1217 1.247 . S
O1215 Zn1209 2.035 . S
O1215 C1217 1.258 . S
C1216 O1210 1.247 . S
C1216 O1211 1.258 . S
C1217 O1214 1.247 . S
C1217 O1215 1.258 . S
C1218 O1220 1.247 . S
C1218 O1222 1.258 . S
C1219 O1226 1.247 . S
C1219 O1227 1.258 . S
O1220 C1218 1.247 . S
O1220 Zn1221 2.028 . S
Zn1221 O1220 2.028 . S
Zn1221 O1225 2.035 . S
Zn1221 O1227 2.035 . S
Zn1221 O1228 2.028 . S
O1222 C1218 1.258 . S
O1222 Zn1223 2.035 . S
Zn1223 O1222 2.035 . S
Zn1223 O1224 2.028 . S
Zn1223 O1226 2.028 . S
Zn1223 O1229 2.035 . S
O1224 Zn1223 2.028 . S
O1224 C1230 1.247 . S
O1225 Zn1221 2.035 . S
O1225 C1230 1.258 . S
O1226 C1219 1.247 . S
O1226 Zn1223 2.028 . S
O1227 C1219 1.258 . S
O1227 Zn1221 2.035 . S
O1228 Zn1221 2.028 . S
O1228 C1231 1.247 . S
O1229 Zn1223 2.035 . S
O1229 C1231 1.258 . S
C1230 O1224 1.247 . S
C1230 O1225 1.258 . S
C1231 O1228 1.247 . S
C1231 O1229 1.258 . S
C1232 O1234 1.247 . S
C1232 O1236 1.258 . S
C1233 O1240 1.247 . S
C1233 O1241 1.258 . S
O1234 C1232 1.247 . S
O1234 Zn1235 2.028 . S
Zn1235 O1234 2.028 . S
Zn1235 O1239 2.035 . S
Zn1235 O1241 2.035 . S
Zn1235 O1242 2.028 . S
O1236 C1232 1.258 . S
O1236 Zn1237 2.035 . S
Zn1237 O1236 2.035 . S
Zn1237 O1238 2.028 . S
Zn1237 O1240 2.028 . S
Zn1237 O1243 2.035 . S
O1238 Zn1237 2.028 . S
O1238 C1244 1.247 . S
O1239 Zn1235 2.035 . S
O1239 C1244 1.258 . S
O1240 C1233 1.247 . S
O1240 Zn1237 2.028 . S
O1241 C1233 1.258 . S
O1241 Zn1235 2.035 . S
O1242 Zn1235 2.028 . S
O1242 C1245 1.247 . S
O1243 Zn1237 2.035 . S
O1243 C1245 1.258 . S
C1244 O1238 1.247 . S
C1244 O1239 1.258 . S
C1245 O1242 1.247 . S
C1245 O1243 1.258 . S
C1246 O1248 1.247 . S
C1246 O1250 1.258 . S
C1247 O1254 1.247 . S
C1247 O1255 1.258 . S
O1248 C1246 1.247 . S
O1248 Zn1249 2.028 . S
Zn1249 O1248 2.028 . S
Zn1249 O1253 2.035 . S
Zn1249 O1255 2.035 . S
Zn1249 O1256 2.028 . S
O1250 C1246 1.258 . S
O1250 Zn1251 2.035 . S
Zn1251 O1250 2.035 . S
Zn1251 O1252 2.028 . S
Zn1251 O1254 2.028 . S
Zn1251 O1257 2.035 . S
O1252 Zn1251 2.028 . S
O1252 C1258 1.247 . S
O1253 Zn1249 2.035 . S
O1253 C1258 1.258 . S
O1254 C1247 1.247 . S
O1254 Zn1251 2.028 . S
O1255 C1247 1.258 . S
O1255 Zn1249 2.035 . S
O1256 Zn1249 2.028 . S
O1256 C1259 1.247 . S
O1257 Zn1251 2.035 . S
O1257 C1259 1.258 . S
C1258 O1252 1.247 . S
C1258 O1253 1.258 . S
C1259 O1256 1.247 . S
C1259 O1257 1.258 . S
C1260 O1262 1.247 . S
C1260 O1264 1.258 . S
C1261 O1268 1.247 . S
C1261 O1269 1.258 . S
O1262 C1260 1.247 . S
O1262 Zn1263 2.028 . S
Zn1263 O1262 2.028 . S
Zn1263 O1267 2.035 . S
Zn1263 O1269 2.035 . S
Zn1263 O1270 2.028 . S
O1264 C1260 1.258 . S
O1264 Zn1265 2.035 . S
Zn1265 O1264 2.035 . S
Zn1265 O1266 2.028 . S
Zn1265 O1268 2.028 . S
Zn1265 O1271 2.035 . S
O1266 Zn1265 2.028 . S
O1266 C1272 1.247 . S
O1267 Zn1263 2.035 . S
O1267 C1272 1.258 . S
O1268 C1261 1.247 . S
O1268 Zn1265 2.028 . S
O1269 C1261 1.258 . S
O1269 Zn1263 2.035 . S
O1270 Zn1263 2.028 . S
O1270 C1273 1.247 . S
O1271 Zn1265 2.035 . S
O1271 C1273 1.258 . S
C1272 O1266 1.247 . S
C1272 O1267 1.258 . S
C1273 O1270 1.247 . S
C1273 O1271 1.258 . S
C1274 O1276 1.247 . S
C1274 O1278 1.258 . S
C1275 O1282 1.230 1_556 S
C1275 O1283 1.219 1_556 S
O1276 C1274 1.247 . S
O1276 Zn1277 2.028 . S
Zn1277 O1276 2.028 . S
Zn1277 O1281 2.035 . S
Zn1277 O1283 2.035 . S
Zn1277 O1284 2.028 . S
O1278 C1274 1.258 . S
O1278 Zn1279 2.035 . S
Zn1279 O1278 2.035 . S
Zn1279 O1280 2.028 . S
Zn1279 O1282 2.028 . S
Zn1279 O1285 2.035 . S
O1280 Zn1279 2.028 . S
O1280 C1286 1.247 . S
O1281 Zn1277 2.035 . S
O1281 C1286 1.258 . S
O1282 C1275 1.230 1_554 S
O1282 Zn1279 2.028 . S
O1283 C1275 1.219 1_554 S
O1283 Zn1277 2.035 . S
O1284 Zn1277 2.028 . S
O1284 C1287 1.247 . S
O1285 Zn1279 2.035 . S
O1285 C1287 1.258 . S
C1286 O1280 1.247 . S
C1286 O1281 1.258 . S
C1287 O1284 1.247 . S
C1287 O1285 1.258 . S
C1288 O1290 1.247 . S
C1288 O1292 1.258 . S
C1289 O1296 1.247 . S
C1289 O1297 1.258 . S
O1290 C1288 1.247 . S
O1290 Zn1291 2.028 . S
Zn1291 O1290 2.028 . S
Zn1291 O1295 2.035 . S
Zn1291 O1297 2.035 . S
Zn1291 O1298 2.028 . S
O1292 C1288 1.258 . S
O1292 Zn1293 2.035 . S
Zn1293 O1292 2.035 . S
Zn1293 O1294 2.028 . S
Zn1293 O1296 2.028 . S
Zn1293 O1299 2.035 . S
O1294 Zn1293 2.028 . S
O1294 C1300 1.247 . S
O1295 Zn1291 2.035 . S
O1295 C1300 1.258 . S
O1296 C1289 1.247 . S
O1296 Zn1293 2.028 . S
O1297 C1289 1.258 . S
O1297 Zn1291 2.035 . S
O1298 Zn1291 2.028 . S
O1298 C1301 1.247 . S
O1299 Zn1293 2.035 . S
O1299 C1301 1.258 . S
C1300 O1294 1.247 . S
C1300 O1295 1.258 . S
C1301 O1298 1.247 . S
C1301 O1299 1.258 . S
C1302 O1304 1.208 1_554 S
C1302 O1306 1.242 1_554 S
C1303 O1310 1.247 . S
C1303 O1311 1.258 . S
O1304 C1302 1.208 1_556 S
O1304 Zn1305 2.028 . S
Zn1305 O1304 2.028 . S
Zn1305 O1309 2.035 . S
Zn1305 O1311 2.035 . S
Zn1305 O1312 2.028 . S
O1306 C1302 1.242 1_556 S
O1306 Zn1307 2.035 . S
Zn1307 O1306 2.035 . S
Zn1307 O1308 2.028 . S
Zn1307 O1310 2.028 . S
Zn1307 O1313 2.035 . S
O1308 Zn1307 2.028 . S
O1308 C1314 1.247 . S
O1309 Zn1305 2.035 . S
O1309 C1314 1.258 . S
O1310 C1303 1.247 . S
O1310 Zn1307 2.028 . S
O1311 C1303 1.258 . S
O1311 Zn1305 2.035 . S
O1312 Zn1305 2.028 . S
O1312 C1315 1.247 . S
O1313 Zn1307 2.035 . S
O1313 C1315 1.258 . S
C1314 O1308 1.247 . S
C1314 O1309 1.258 . S
C1315 O1312 1.247 . S
C1315 O1313 1.258 . S
C1316 O1318 1.247 . S
C1316 O1320 1.258 . S
C1317 O1324 1.247 . S
C1317 O1325 1.258 . S
O1318 C1316 1.247 . S
O1318 Zn1319 2.028 . S
Zn1319 O1318 2.028 . S
Zn1319 O1323 2.035 . S
Zn1319 O1325 2.035 . S
Zn1319 O1326 2.028 . S
O1320 C1316 1.258 . S
O1320 Zn1321 2.035 . S
Zn1321 O1320 2.035 . S
Zn1321 O1322 2.028 . S
Zn1321 O1324 2.028 . S
Zn1321 O1327 2.035 . S
O1322 Zn1321 2.028 . S
O1322 C1328 1.247 . S
O1323 Zn1319 2.035 . S
O1323 C1328 1.258 . S
O1324 C1317 1.247 . S
O1324 Zn1321 2.028 . S
O1325 C1317 1.258 . S
O1325 Zn1319 2.035 . S
O1326 Zn1319 2.028 . S
O1326 C1329 1.247 . S
O1327 Zn1321 2.035 . S
O1327 C1329 1.258 . S
C1328 O1322 1.247 . S
C1328 O1323 1.258 . S
C1329 O1326 1.247 . S
C1329 O1327 1.258 . S
C1330 O1332 1.247 . S
C1330 O1334 1.258 . S
C1331 O1338 1.247 . S
C1331 O1339 1.258 . S
O1332 C1330 1.247 . S
O1332 Zn1333 2.028 . S
Zn1333 O1332 2.028 . S
Zn1333 O1337 2.035 . S
Zn1333 O1339 2.035 . S
Zn1333 O1340 2.028 . S
O1334 C1330 1.258 . S
O1334 Zn1335 2.035 . S
Zn1335 O1334 2.035 . S
Zn1335 O1336 2.028 . S
Zn1335 O1338 2.028 . S
Zn1335 O1341 2.035 . S
O1336 Zn1335 2.028 . S
O1336 C1342 1.247 . S
O1337 Zn1333 2.035 . S
O1337 C1342 1.258 . S
O1338 C1331 1.247 . S
O1338 Zn1335 2.028 . S
O1339 C1331 1.258 . S
O1339 Zn1333 2.035 . S
O1340 Zn1333 2.028 . S
O1340 C1343 1.247 . S
O1341 Zn1335 2.035 . S
O1341 C1343 1.258 . S
C1342 O1336 1.247 . S
C1342 O1337 1.258 . S
C1343 O1340 1.247 . S
C1343 O1341 1.258 . S
H1344 C1352 0.950 . S
H1345 C1357 0.950 . S
H1346 C1354 0.950 . S
H1347 C1356 0.950 . S
H1348 C1358 0.950 . S
H1349 C1360 0.950 . S
H1350 C1362 0.950 . S
H1351 C1363 0.950 . S
C1352 H1344 0.950 . S
C1352 C1353 1.386 . S
C1352 C1354 1.391 . S
C1353 C1352 1.386 . S
C1353 C1357 1.393 . S
C1354 H1346 0.950 . S
C1354 C1352 1.391 . S
C1354 C1355 1.400 . S
C1355 C1354 1.400 . S
C1355 C1356 1.398 . S
C1355 C1361 1.491 . S
C1356 H1347 0.950 . S
C1356 C1355 1.398 . S
C1356 C1357 1.391 . S
C1357 H1345 0.950 . S
C1357 C1353 1.393 . S
C1357 C1356 1.391 . S
C1358 H1348 0.950 . S
C1358 C1359 1.386 . S
C1358 C1360 1.391 . S
C1359 C1358 1.386 . S
C1359 C1363 1.393 . S
C1360 H1349 0.950 . S
C1360 C1358 1.391 . S
C1360 C1361 1.400 . S
C1361 C1355 1.491 . S
C1361 C1360 1.400 . S
C1361 C1362 1.398 . S
C1362 H1350 0.950 . S
C1362 C1361 1.398 . S
C1362 C1363 1.391 . S
C1363 H1351 0.950 . S
C1363 C1359 1.393 . S
C1363 C1362 1.391 . S
H1364 C1372 0.950 . S
H1365 C1377 0.950 . S
H1366 C1374 0.950 . S
H1367 C1376 0.950 . S
H1368 C1378 0.950 . S
H1369 C1380 0.950 . S
H1370 C1382 0.950 . S
H1371 C1383 0.950 . S
C1372 H1364 0.950 . S
C1372 C1373 1.386 . S
C1372 C1374 1.391 . S
C1373 C1372 1.386 . S
C1373 C1377 1.393 . S
C1374 H1366 0.950 . S
C1374 C1372 1.391 . S
C1374 C1375 1.400 . S
C1375 C1374 1.400 . S
C1375 C1376 1.398 . S
C1375 C1381 1.491 . S
C1376 H1367 0.950 . S
C1376 C1375 1.398 . S
C1376 C1377 1.391 . S
C1377 H1365 0.950 . S
C1377 C1373 1.393 . S
C1377 C1376 1.391 . S
C1378 H1368 0.950 . S
C1378 C1379 1.386 . S
C1378 C1380 1.391 . S
C1379 C1378 1.386 . S
C1379 C1383 1.393 . S
C1380 H1369 0.950 . S
C1380 C1378 1.391 . S
C1380 C1381 1.400 . S
C1381 C1375 1.491 . S
C1381 C1380 1.400 . S
C1381 C1382 1.398 . S
C1382 H1370 0.950 . S
C1382 C1381 1.398 . S
C1382 C1383 1.391 . S
C1383 H1371 0.950 . S
C1383 C1379 1.393 . S
C1383 C1382 1.391 . S
H1384 C1392 0.950 . S
H1385 C1397 0.950 . S
H1386 C1394 0.950 . S
H1387 C1396 0.950 . S
H1388 C1398 0.950 . S
H1389 C1400 0.950 . S
H1390 C1402 0.950 . S
H1391 C1403 0.950 . S
C1392 H1384 0.950 . S
C1392 C1393 1.386 . S
C1392 C1394 1.391 . S
C1393 C1392 1.386 . S
C1393 C1397 1.393 . S
C1394 H1386 0.950 . S
C1394 C1392 1.391 . S
C1394 C1395 1.400 . S
C1395 C1394 1.400 . S
C1395 C1396 1.398 . S
C1395 C1401 1.491 . S
C1396 H1387 0.950 . S
C1396 C1395 1.398 . S
C1396 C1397 1.391 . S
C1397 H1385 0.950 . S
C1397 C1393 1.393 . S
C1397 C1396 1.391 . S
C1398 H1388 0.950 . S
C1398 C1399 1.386 . S
C1398 C1400 1.391 . S
C1399 C1398 1.386 . S
C1399 C1403 1.393 . S
C1400 H1389 0.950 . S
C1400 C1398 1.391 . S
C1400 C1401 1.400 . S
C1401 C1395 1.491 . S
C1401 C1400 1.400 . S
C1401 C1402 1.398 . S
C1402 H1390 0.950 . S
C1402 C1401 1.398 . S
C1402 C1403 1.391 . S
C1403 H1391 0.950 . S
C1403 C1399 1.393 . S
C1403 C1402 1.391 . S
H1404 C1412 0.950 . S
H1405 C1417 0.950 . S
H1406 C1414 0.950 . S
H1407 C1416 0.950 . S
H1408 C1418 0.950 . S
H1409 C1420 0.950 . S
H1410 C1422 0.950 . S
H1411 C1423 0.950 . S
C1412 H1404 0.950 . S
C1412 C1413 1.386 . S
C1412 C1414 1.391 . S
C1413 C1412 1.386 . S
C1413 C1417 1.393 . S
C1414 H1406 0.950 . S
C1414 C1412 1.391 . S
C1414 C1415 1.400 . S
C1415 C1414 1.400 . S
C1415 C1416 1.398 . S
C1415 C1421 1.491 . S
C1416 H1407 0.950 . S
C1416 C1415 1.398 . S
C1416 C1417 1.391 . S
C1417 H1405 0.950 . S
C1417 C1413 1.393 . S
C1417 C1416 1.391 . S
C1418 H1408 0.950 . S
C1418 C1419 1.386 . S
C1418 C1420 1.391 . S
C1419 C1418 1.386 . S
C1419 C1423 1.393 . S
C1420 H1409 0.950 . S
C1420 C1418 1.391 . S
C1420 C1421 1.400 . S
C1421 C1415 1.491 . S
C1421 C1420 1.400 . S
C1421 C1422 1.398 . S
C1422 H1410 0.950 . S
C1422 C1421 1.398 . S
C1422 C1423 1.391 . S
C1423 H1411 0.950 . S
C1423 C1419 1.393 . S
C1423 C1422 1.391 . S
H1424 C1432 0.950 . S
H1425 C1437 0.950 . S
H1426 C1434 0.950 . S
H1427 C1436 0.950 . S
H1428 C1438 0.950 . S
H1429 C1440 0.950 . S
H1430 C1442 0.950 . S
H1431 C1443 0.950 . S
C1432 H1424 0.950 . S
C1432 C1433 1.386 . S
C1432 C1434 1.391 . S
C1433 C1432 1.386 . S
C1433 C1437 1.393 . S
C1434 H1426 0.950 . S
C1434 C1432 1.391 . S
C1434 C1435 1.400 . S
C1435 C1434 1.400 . S
C1435 C1436 1.398 . S
C1435 C1441 1.491 . S
C1436 H1427 0.950 . S
C1436 C1435 1.398 . S
C1436 C1437 1.391 . S
C1437 H1425 0.950 . S
C1437 C1433 1.393 . S
C1437 C1436 1.391 . S
C1438 H1428 0.950 . S
C1438 C1439 1.386 . S
C1438 C1440 1.391 . S
C1439 C1438 1.386 . S
C1439 C1443 1.393 . S
C1440 H1429 0.950 . S
C1440 C1438 1.391 . S
C1440 C1441 1.400 . S
C1441 C1435 1.491 . S
C1441 C1440 1.400 . S
C1441 C1442 1.398 . S
C1442 H1430 0.950 . S
C1442 C1441 1.398 . S
C1442 C1443 1.391 . S
C1443 H1431 0.950 . S
C1443 C1439 1.393 . S
C1443 C1442 1.391 . S
H1444 C1452 0.950 . S
H1445 C1457 0.950 . S
H1446 C1454 0.950 . S
H1447 C1456 0.950 . S
H1448 C1458 0.950 . S
H1449 C1460 0.950 . S
H1450 C1462 0.950 . S
H1451 C1463 0.950 . S
C1452 H1444 0.950 . S
C1452 C1453 1.386 . S
C1452 C1454 1.391 . S
C1453 C1452 1.386 . S
C1453 C1457 1.393 . S
C1454 H1446 0.950 . S
C1454 C1452 1.391 . S
C1454 C1455 1.400 . S
C1455 C1454 1.400 . S
C1455 C1456 1.398 . S
C1455 C1461 1.491 . S
C1456 H1447 0.950 . S
C1456 C1455 1.398 . S
C1456 C1457 1.391 . S
C1457 H1445 0.950 . S
C1457 C1453 1.393 . S
C1457 C1456 1.391 . S
C1458 H1448 0.950 . S
C1458 C1459 1.386 . S
C1458 C1460 1.391 . S
C1459 C1458 1.386 . S
C1459 C1463 1.393 . S
C1460 H1449 0.950 . S
C1460 C1458 1.391 . S
C1460 C1461 1.400 . S
C1461 C1455 1.491 . S
C1461 C1460 1.400 . S
C1461 C1462 1.398 . S
C1462 H1450 0.950 . S
C1462 C1461 1.398 . S
C1462 C1463 1.391 . S
C1463 H1451 0.950 . S
C1463 C1459 1.393 . S
C1463 C1462 1.391 . S
H1464 C1472 0.950 . S
H1465 C1477 0.950 . S
H1466 C1474 0.950 . S
H1467 C1476 0.950 . S
H1468 C1478 0.950 . S
H1469 C1480 0.950 . S
H1470 C1482 0.950 . S
H1471 C1483 0.950 . S
C1472 H1464 0.950 . S
C1472 C1473 1.386 . S
C1472 C1474 1.391 . S
C1473 C1472 1.386 . S
C1473 C1477 1.393 . S
C1474 H1466 0.950 . S
C1474 C1472 1.391 . S
C1474 C1475 1.400 . S
C1475 C1474 1.400 . S
C1475 C1476 1.398 . S
C1475 C1481 1.491 . S
C1476 H1467 0.950 . S
C1476 C1475 1.398 . S
C1476 C1477 1.391 . S
C1477 H1465 0.950 . S
C1477 C1473 1.393 . S
C1477 C1476 1.391 . S
C1478 H1468 0.950 . S
C1478 C1479 1.386 . S
C1478 C1480 1.391 . S
C1479 C1478 1.386 . S
C1479 C1483 1.393 . S
C1480 H1469 0.950 . S
C1480 C1478 1.391 . S
C1480 C1481 1.400 . S
C1481 C1475 1.491 . S
C1481 C1480 1.400 . S
C1481 C1482 1.398 . S
C1482 H1470 0.950 . S
C1482 C1481 1.398 . S
C1482 C1483 1.391 . S
C1483 H1471 0.950 . S
C1483 C1479 1.393 . S
C1483 C1482 1.391 . S
H1484 C1492 0.950 . S
H1485 C1497 0.950 . S
H1486 C1494 0.950 . S
H1487 C1496 0.950 . S
H1488 C1498 0.950 . S
H1489 C1500 0.950 . S
H1490 C1502 0.950 . S
H1491 C1503 0.950 . S
C1492 H1484 0.950 . S
C1492 C1493 1.386 . S
C1492 C1494 1.391 . S
C1493 C1492 1.386 . S
C1493 C1497 1.393 . S
C1494 H1486 0.950 . S
C1494 C1492 1.391 . S
C1494 C1495 1.400 . S
C1495 C1494 1.400 . S
C1495 C1496 1.398 . S
C1495 C1501 1.491 . S
C1496 H1487 0.950 . S
C1496 C1495 1.398 . S
C1496 C1497 1.391 . S
C1497 H1485 0.950 . S
C1497 C1493 1.393 . S
C1497 C1496 1.391 . S
C1498 H1488 0.950 . S
C1498 C1499 1.386 . S
C1498 C1500 1.391 . S
C1499 C1498 1.386 . S
C1499 C1503 1.393 . S
C1500 H1489 0.950 . S
C1500 C1498 1.391 . S
C1500 C1501 1.400 . S
C1501 C1495 1.491 . S
C1501 C1500 1.400 . S
C1501 C1502 1.398 . S
C1502 H1490 0.950 . S
C1502 C1501 1.398 . S
C1502 C1503 1.391 . S
C1503 H1491 0.950 . S
C1503 C1499 1.393 . S
C1503 C1502 1.391 . S
H1504 C1512 0.950 . S
H1505 C1517 0.950 . S
H1506 C1514 0.950 . S
H1507 C1516 0.950 . S
H1508 C1518 0.950 . S
H1509 C1520 0.950 . S
H1510 C1522 0.950 . S
H1511 C1523 0.950 . S
C1512 H1504 0.950 . S
C1512 C1513 1.386 . S
C1512 C1514 1.391 . S
C1513 C1512 1.386 . S
C1513 C1517 1.393 . S
C1514 H1506 0.950 . S
C1514 C1512 1.391 . S
C1514 C1515 1.400 . S
C1515 C1514 1.400 . S
C1515 C1516 1.398 . S
C1515 C1521 1.491 . S
C1516 H1507 0.950 . S
C1516 C1515 1.398 . S
C1516 C1517 1.391 . S
C1517 H1505 0.950 . S
C1517 C1513 1.393 . S
C1517 C1516 1.391 . S
C1518 H1508 0.950 . S
C1518 C1519 1.386 . S
C1518 C1520 1.391 . S
C1519 C1518 1.386 . S
C1519 C1523 1.393 . S
C1520 H1509 0.950 . S
C1520 C1518 1.391 . S
C1520 C1521 1.400 . S
C1521 C1515 1.491 . S
C1521 C1520 1.400 . S
C1521 C1522 1.398 . S
C1522 H1510 0.950 . S
C1522 C1521 1.398 . S
C1522 C1523 1.391 . S
C1523 H1511 0.950 . S
C1523 C1519 1.393 . S
C1523 C1522 1.391 . S
H1524 C1532 0.950 . S
H1525 C1537 0.950 . S
H1526 C1534 0.950 . S
H1527 C1536 0.950 . S
H1528 C1538 0.950 . S
H1529 C1540 0.950 . S
H1530 C1542 0.950 . S
H1531 C1543 0.950 . S
C1532 H1524 0.950 . S
C1532 C1533 1.386 . S
C1532 C1534 1.391 . S
C1533 C1532 1.386 . S
C1533 C1537 1.393 . S
C1534 H1526 0.950 . S
C1534 C1532 1.391 . S
C1534 C1535 1.400 . S
C1535 C1534 1.400 . S
C1535 C1536 1.398 . S
C1535 C1541 1.491 . S
C1536 H1527 0.950 . S
C1536 C1535 1.398 . S
C1536 C1537 1.391 . S
C1537 H1525 0.950 . S
C1537 C1533 1.393 . S
C1537 C1536 1.391 . S
C1538 H1528 0.950 . S
C1538 C1539 1.386 . S
C1538 C1540 1.391 . S
C1539 C1538 1.386 . S
C1539 C1543 1.393 . S
C1540 H1529 0.950 . S
C1540 C1538 1.391 . S
C1540 C1541 1.400 . S
C1541 C1535 1.491 . S
C1541 C1540 1.400 . S
C1541 C1542 1.398 . S
C1542 H1530 0.950 . S
C1542 C1541 1.398 . S
C1542 C1543 1.391 . S
C1543 H1531 0.950 . S
C1543 C1539 1.393 . S
C1543 C1542 1.391 . S
H1544 C1552 0.950 . S
H1545 C1557 0.950 . S
H1546 C1554 0.950 . S
H1547 C1556 0.950 . S
H1548 C1558 0.950 . S
H1549 C1560 0.950 . S
H1550 C1562 0.950 . S
H1551 C1563 0.950 . S
C1552 H1544 0.950 . S
C1552 C1553 1.386 . S
C1552 C1554 1.391 . S
C1553 C1552 1.386 . S
C1553 C1557 1.393 . S
C1554 H1546 0.950 . S
C1554 C1552 1.391 . S
C1554 C1555 1.400 . S
C1555 C1554 1.400 . S
C1555 C1556 1.398 . S
C1555 C1561 1.491 . S
C1556 H1547 0.950 . S
C1556 C1555 1.398 . S
C1556 C1557 1.391 . S
C1557 H1545 0.950 . S
C1557 C1553 1.393 . S
C1557 C1556 1.391 . S
C1558 H1548 0.950 . S
C1558 C1559 1.386 . S
C1558 C1560 1.391 . S
C1559 C1558 1.386 . S
C1559 C1563 1.393 . S
C1560 H1549 0.950 . S
C1560 C1558 1.391 . S
C1560 C1561 1.400 . S
C1561 C1555 1.491 . S
C1561 C1560 1.400 . S
C1561 C1562 1.398 . S
C1562 H1550 0.950 . S
C1562 C1561 1.398 . S
C1562 C1563 1.391 . S
C1563 H1551 0.950 . S
C1563 C1559 1.393 . S
C1563 C1562 1.391 . S
H1564 C1572 0.950 . S
H1565 C1577 0.950 . S
H1566 C1574 0.950 . S
H1567 C1576 0.950 . S
H1568 C1578 0.950 . S
H1569 C1580 0.950 . S
H1570 C1582 0.950 . S
H1571 C1583 0.950 . S
C1572 H1564 0.950 . S
C1572 C1573 1.386 . S
C1572 C1574 1.391 . S
C1573 C1572 1.386 . S
C1573 C1577 1.393 . S
C1574 H1566 0.950 . S
C1574 C1572 1.391 . S
C1574 C1575 1.400 . S
C1575 C1574 1.400 . S
C1575 C1576 1.398 . S
C1575 C1581 1.491 . S
C1576 H1567 0.950 . S
C1576 C1575 1.398 . S
C1576 C1577 1.391 . S
C1577 H1565 0.950 . S
C1577 C1573 1.393 . S
C1577 C1576 1.391 . S
C1578 H1568 0.950 . S
C1578 C1579 1.386 . S
C1578 C1580 1.391 . S
C1579 C1578 1.386 . S
C1579 C1583 1.393 . S
C1580 H1569 0.950 . S
C1580 C1578 1.391 . S
C1580 C1581 1.400 . S
C1581 C1575 1.491 . S
C1581 C1580 1.400 . S
C1581 C1582 1.398 . S
C1582 H1570 0.950 . S
C1582 C1581 1.398 . S
C1582 C1583 1.391 . S
C1583 H1571 0.950 . S
C1583 C1579 1.393 . S
C1583 C1582 1.391 . S
H1584 C1592 0.950 . S
H1585 C1597 0.950 . S
H1586 C1594 0.950 . S
H1587 C1596 0.950 . S
H1588 C1598 0.950 . S
H1589 C1600 0.950 . S
H1590 C1602 0.950 . S
H1591 C1603 0.950 . S
C1592 H1584 0.950 . S
C1592 C1593 1.386 . S
C1592 C1594 1.391 . S
C1593 C1592 1.386 . S
C1593 C1597 1.393 . S
C1594 H1586 0.950 . S
C1594 C1592 1.391 . S
C1594 C1595 1.400 . S
C1595 C1594 1.400 . S
C1595 C1596 1.398 . S
C1595 C1601 1.491 . S
C1596 H1587 0.950 . S
C1596 C1595 1.398 . S
C1596 C1597 1.391 . S
C1597 H1585 0.950 . S
C1597 C1593 1.393 . S
C1597 C1596 1.391 . S
C1598 H1588 0.950 . S
C1598 C1599 1.386 . S
C1598 C1600 1.391 . S
C1599 C1598 1.386 . S
C1599 C1603 1.393 . S
C1600 H1589 0.950 . S
C1600 C1598 1.391 . S
C1600 C1601 1.400 . S
C1601 C1595 1.491 . S
C1601 C1600 1.400 . S
C1601 C1602 1.398 . S
C1602 H1590 0.950 . S
C1602 C1601 1.398 . S
C1602 C1603 1.391 . S
C1603 H1591 0.950 . S
C1603 C1599 1.393 . S
C1603 C1602 1.391 . S
H1604 C1612 0.950 . S
H1605 C1617 0.950 . S
H1606 C1614 0.950 . S
H1607 C1616 0.950 . S
H1608 C1618 0.950 . S
H1609 C1620 0.950 . S
H1610 C1622 0.950 . S
H1611 C1623 0.950 . S
C1612 H1604 0.950 . S
C1612 C1613 1.386 . S
C1612 C1614 1.391 . S
C1613 C1612 1.386 . S
C1613 C1617 1.393 . S
C1614 H1606 0.950 . S
C1614 C1612 1.391 . S
C1614 C1615 1.400 . S
C1615 C1614 1.400 . S
C1615 C1616 1.398 . S
C1615 C1621 1.491 . S
C1616 H1607 0.950 . S
C1616 C1615 1.398 . S
C1616 C1617 1.391 . S
C1617 H1605 0.950 . S
C1617 C1613 1.393 . S
C1617 C1616 1.391 . S
C1618 H1608 0.950 . S
C1618 C1619 1.386 . S
C1618 C1620 1.391 . S
C1619 C1618 1.386 . S
C1619 C1623 1.393 . S
C1620 H1609 0.950 . S
C1620 C1618 1.391 . S
C1620 C1621 1.400 . S
C1621 C1615 1.491 . S
C1621 C1620 1.400 . S
C1621 C1622 1.398 . S
C1622 H1610 0.950 . S
C1622 C1621 1.398 . S
C1622 C1623 1.391 . S
C1623 H1611 0.950 . S
C1623 C1619 1.393 . S
C1623 C1622 1.391 . S
H1624 C1632 0.950 . S
H1625 C1637 0.950 . S
H1626 C1634 0.950 . S
H1627 C1636 0.950 . S
H1628 C1638 0.950 . S
H1629 C1640 0.950 . S
H1630 C1642 0.950 . S
H1631 C1643 0.950 . S
C1632 H1624 0.950 . S
C1632 C1633 1.386 . S
C1632 C1634 1.391 . S
C1633 C1632 1.386 . S
C1633 C1637 1.393 . S
C1634 H1626 0.950 . S
C1634 C1632 1.391 . S
C1634 C1635 1.400 . S
C1635 C1634 1.400 . S
C1635 C1636 1.398 . S
C1635 C1641 1.491 . S
C1636 H1627 0.950 . S
C1636 C1635 1.398 . S
C1636 C1637 1.391 . S
C1637 H1625 0.950 . S
C1637 C1633 1.393 . S
C1637 C1636 1.391 . S
C1638 H1628 0.950 . S
C1638 C1639 1.386 . S
C1638 C1640 1.391 . S
C1639 C1638 1.386 . S
C1639 C1643 1.393 . S
C1640 H1629 0.950 . S
C1640 C1638 1.391 . S
C1640 C1641 1.400 . S
C1641 C1635 1.491 . S
C1641 C1640 1.400 . S
C1641 C1642 1.398 . S
C1642 H1630 0.950 . S
C1642 C1641 1.398 . S
C1642 C1643 1.391 . S
C1643 H1631 0.950 . S
C1643 C1639 1.393 . S
C1643 C1642 1.391 . S
H1644 C1652 0.950 . S
H1645 C1657 0.950 . S
H1646 C1654 0.950 . S
H1647 C1656 0.950 . S
H1648 C1658 0.950 . S
H1649 C1660 0.950 . S
H1650 C1662 0.950 . S
H1651 C1663 0.950 . S
C1652 H1644 0.950 . S
C1652 C1653 1.386 . S
C1652 C1654 1.391 . S
C1653 C1652 1.386 . S
C1653 C1657 1.393 . S
C1654 H1646 0.950 . S
C1654 C1652 1.391 . S
C1654 C1655 1.400 . S
C1655 C1654 1.400 . S
C1655 C1656 1.398 . S
C1655 C1661 1.491 . S
C1656 H1647 0.950 . S
C1656 C1655 1.398 . S
C1656 C1657 1.391 . S
C1657 H1645 0.950 . S
C1657 C1653 1.393 . S
C1657 C1656 1.391 . S
C1658 H1648 0.950 . S
C1658 C1659 1.386 . S
C1658 C1660 1.391 . S
C1659 C1658 1.386 . S
C1659 C1663 1.393 . S
C1660 H1649 0.950 . S
C1660 C1658 1.391 . S
C1660 C1661 1.400 . S
C1661 C1655 1.491 . S
C1661 C1660 1.400 . S
C1661 C1662 1.398 . S
C1662 H1650 0.950 . S
C1662 C1661 1.398 . S
C1662 C1663 1.391 . S
C1663 H1651 0.950 . S
C1663 C1659 1.393 . S
C1663 C1662 1.391 . S
H1664 C1672 0.950 . S
H1665 C1677 0.950 . S
H1666 C1674 0.950 . S
H1667 C1676 0.950 . S
H1668 C1678 0.950 . S
H1669 C1680 0.950 . S
H1670 C1682 0.950 . S
H1671 C1683 0.950 . S
C1672 H1664 0.950 . S
C1672 C1673 1.386 . S
C1672 C1674 1.391 . S
C1673 C1672 1.386 . S
C1673 C1677 1.393 . S
C1674 H1666 0.950 . S
C1674 C1672 1.391 . S
C1674 C1675 1.400 . S
C1675 C1674 1.400 . S
C1675 C1676 1.398 . S
C1675 C1681 1.491 . S
C1676 H1667 0.950 . S
C1676 C1675 1.398 . S
C1676 C1677 1.391 . S
C1677 H1665 0.950 . S
C1677 C1673 1.393 . S
C1677 C1676 1.391 . S
C1678 H1668 0.950 . S
C1678 C1679 1.386 . S
C1678 C1680 1.391 . S
C1679 C1678 1.386 . S
C1679 C1683 1.393 . S
C1680 H1669 0.950 . S
C1680 C1678 1.391 . S
C1680 C1681 1.400 . S
C1681 C1675 1.491 . S
C1681 C1680 1.400 . S
C1681 C1682 1.398 . S
C1682 H1670 0.950 . S
C1682 C1681 1.398 . S
C1682 C1683 1.391 . S
C1683 H1671 0.950 . S
C1683 C1679 1.393 . S
C1683 C1682 1.391 . S
H1684 C1692 0.950 . S
H1685 C1697 0.950 . S
H1686 C1694 0.950 . S
H1687 C1696 0.950 . S
H1688 C1698 0.950 . S
H1689 C1700 0.950 . S
H1690 C1702 0.950 . S
H1691 C1703 0.950 . S
C1692 H1684 0.950 . S
C1692 C1693 1.386 . S
C1692 C1694 1.391 . S
C1693 C1692 1.386 . S
C1693 C1697 1.393 . S
C1694 H1686 0.950 . S
C1694 C1692 1.391 . S
C1694 C1695 1.400 . S
C1695 C1694 1.400 . S
C1695 C1696 1.398 . S
C1695 C1701 1.491 . S
C1696 H1687 0.950 . S
C1696 C1695 1.398 . S
C1696 C1697 1.391 . S
C1697 H1685 0.950 . S
C1697 C1693 1.393 . S
C1697 C1696 1.391 . S
C1698 H1688 0.950 . S
C1698 C1699 1.386 . S
C1698 C1700 1.391 . S
C1699 C1698 1.386 . S
C1699 C1703 1.393 . S
C1700 H1689 0.950 . S
C1700 C1698 1.391 . S
C1700 C1701 1.400 . S
C1701 C1695 1.491 . S
C1701 C1700 1.400 . S
C1701 C1702 1.398 . S
C1702 H1690 0.950 . S
C1702 C1701 1.398 . S
C1702 C1703 1.391 . S
C1703 H1691 0.950 . S
C1703 C1699 1.393 . S
C1703 C1702 1.391 . S
H1704 C1712 0.950 . S
H1705 C1717 0.950 . S
H1706 C1714 0.950 . S
H1707 C1716 0.950 . S
H1708 C1718 0.950 . S
H1709 C1720 0.950 . S
H1710 C1722 0.950 . S
H1711 C1723 0.950 . S
C1712 H1704 0.950 . S
C1712 C1713 1.386 . S
C1712 C1714 1.391 . S
C1713 C1712 1.386 . S
C1713 C1717 1.393 . S
C1714 H1706 0.950 . S
C1714 C1712 1.391 . S
C1714 C1715 1.400 . S
C1715 C1714 1.400 . S
C1715 C1716 1.398 . S
C1715 C1721 1.491 . S
C1716 H1707 0.950 . S
C1716 C1715 1.398 . S
C1716 C1717 1.391 . S
C1717 H1705 0.950 . S
C1717 C1713 1.393 . S
C1717 C1716 1.391 . S
C1718 H1708 0.950 . S
C1718 C1719 1.386 . S
C1718 C1720 1.391 . S
C1719 C1718 1.386 . S
C1719 C1723 1.393 . S
C1720 H1709 0.950 . S
C1720 C1718 1.391 . S
C1720 C1721 1.400 . S
C1721 C1715 1.491 . S
C1721 C1720 1.400 . S
C1721 C1722 1.398 . S
C1722 H1710 0.950 . S
C1722 C1721 1.398 . S
C1722 C1723 1.391 . S
C1723 H1711 0.950 . S
C1723 C1719 1.393 . S
C1723 C1722 1.391 . S
H1724 C1732 0.950 . S
H1725 C1737 0.950 . S
H1726 C1734 0.950 . S
H1727 C1736 0.950 . S
H1728 C1738 0.950 . S
H1729 C1740 0.950 . S
H1730 C1742 0.950 . S
H1731 C1743 0.950 . S
C1732 H1724 0.950 . S
C1732 C1733 1.386 . S
C1732 C1734 1.391 . S
C1733 C1732 1.386 . S
C1733 C1737 1.393 . S
C1734 H1726 0.950 . S
C1734 C1732 1.391 . S
C1734 C1735 1.400 . S
C1735 C1734 1.400 . S
C1735 C1736 1.398 . S
C1735 C1741 1.491 . S
C1736 H1727 0.950 . S
C1736 C1735 1.398 . S
C1736 C1737 1.391 . S
C1737 H1725 0.950 . S
C1737 C1733 1.393 . S
C1737 C1736 1.391 . S
C1738 H1728 0.950 . S
C1738 C1739 1.386 . S
C1738 C1740 1.391 . S
C1739 C1738 1.386 . S
C1739 C1743 1.393 . S
C1740 H1729 0.950 . S
C1740 C1738 1.391 . S
C1740 C1741 1.400 . S
C1741 C1735 1.491 . S
C1741 C1740 1.400 . S
C1741 C1742 1.398 . S
C1742 H1730 0.950 . S
C1742 C1741 1.398 . S
C1742 C1743 1.391 . S
C1743 H1731 0.950 . S
C1743 C1739 1.393 . S
C1743 C1742 1.391 . S
H1744 C1752 0.950 . S
H1745 C1757 0.950 . S
H1746 C1754 0.950 . S
H1747 C1756 0.950 . S
H1748 C1758 0.950 . S
H1749 C1760 0.950 . S
H1750 C1762 0.950 . S
H1751 C1763 0.950 . S
C1752 H1744 0.950 . S
C1752 C1753 1.386 . S
C1752 C1754 1.391 . S
C1753 C1752 1.386 . S
C1753 C1757 1.393 . S
C1754 H1746 0.950 . S
C1754 C1752 1.391 . S
C1754 C1755 1.400 . S
C1755 C1754 1.400 . S
C1755 C1756 1.398 . S
C1755 C1761 1.491 . S
C1756 H1747 0.950 . S
C1756 C1755 1.398 . S
C1756 C1757 1.391 . S
C1757 H1745 0.950 . S
C1757 C1753 1.393 . S
C1757 C1756 1.391 . S
C1758 H1748 0.950 . S
C1758 C1759 1.386 . S
C1758 C1760 1.391 . S
C1759 C1758 1.386 . S
C1759 C1763 1.393 . S
C1760 H1749 0.950 . S
C1760 C1758 1.391 . S
C1760 C1761 1.400 . S
C1761 C1755 1.491 . S
C1761 C1760 1.400 . S
C1761 C1762 1.398 . S
C1762 H1750 0.950 . S
C1762 C1761 1.398 . S
C1762 C1763 1.391 . S
C1763 H1751 0.950 . S
C1763 C1759 1.393 . S
C1763 C1762 1.391 . S
H1764 C1772 0.950 . S
H1765 C1777 0.950 . S
H1766 C1774 0.950 . S
H1767 C1776 0.950 . S
H1768 C1778 0.950 . S
H1769 C1780 0.950 . S
H1770 C1782 0.950 . S
H1771 C1783 0.950 . S
C1772 H1764 0.950 . S
C1772 C1773 1.386 . S
C1772 C1774 1.391 . S
C1773 C1772 1.386 . S
C1773 C1777 1.393 . S
C1774 H1766 0.950 . S
C1774 C1772 1.391 . S
C1774 C1775 1.400 . S
C1775 C1774 1.400 . S
C1775 C1776 1.398 . S
C1775 C1781 1.491 . S
C1776 H1767 0.950 . S
C1776 C1775 1.398 . S
C1776 C1777 1.391 . S
C1777 H1765 0.950 . S
C1777 C1773 1.393 . S
C1777 C1776 1.391 . S
C1778 H1768 0.950 . S
C1778 C1779 1.386 . S
C1778 C1780 1.391 . S
C1779 C1778 1.386 . S
C1779 C1783 1.393 . S
C1780 H1769 0.950 . S
C1780 C1778 1.391 . S
C1780 C1781 1.400 . S
C1781 C1775 1.491 . S
C1781 C1780 1.400 . S
C1781 C1782 1.398 . S
C1782 H1770 0.950 . S
C1782 C1781 1.398 . S
C1782 C1783 1.391 . S
C1783 H1771 0.950 . S
C1783 C1779 1.393 . S
C1783 C1782 1.391 . S
H1784 C1792 0.950 . S
H1785 C1797 0.950 . S
H1786 C1794 0.950 . S
H1787 C1796 0.950 . S
H1788 C1798 0.950 . S
H1789 C1800 0.950 . S
H1790 C1802 0.950 . S
H1791 C1803 0.950 . S
C1792 H1784 0.950 . S
C1792 C1793 1.386 . S
C1792 C1794 1.391 . S
C1793 C1792 1.386 . S
C1793 C1797 1.393 . S
C1794 H1786 0.950 . S
C1794 C1792 1.391 . S
C1794 C1795 1.400 . S
C1795 C1794 1.400 . S
C1795 C1796 1.398 . S
C1795 C1801 1.491 . S
C1796 H1787 0.950 . S
C1796 C1795 1.398 . S
C1796 C1797 1.391 . S
C1797 H1785 0.950 . S
C1797 C1793 1.393 . S
C1797 C1796 1.391 . S
C1798 H1788 0.950 . S
C1798 C1799 1.386 . S
C1798 C1800 1.391 . S
C1799 C1798 1.386 . S
C1799 C1803 1.393 . S
C1800 H1789 0.950 . S
C1800 C1798 1.391 . S
C1800 C1801 1.400 . S
C1801 C1795 1.491 . S
C1801 C1800 1.400 . S
C1801 C1802 1.398 . S
C1802 H1790 0.950 . S
C1802 C1801 1.398 . S
C1802 C1803 1.391 . S
C1803 H1791 0.950 . S
C1803 C1799 1.393 . S
C1803 C1802 1.391 . S
H1804 C1812 0.950 . S
H1805 C1817 0.950 . S
H1806 C1814 0.950 . S
H1807 C1816 0.950 . S
H1808 C1818 0.950 . S
H1809 C1820 0.950 . S
H1810 C1822 0.950 . S
H1811 C1823 0.950 . S
C1812 H1804 0.950 . S
C1812 C1813 1.386 . S
C1812 C1814 1.391 . S
C1813 C1812 1.386 . S
C1813 C1817 1.393 . S
C1814 H1806 0.950 . S
C1814 C1812 1.391 . S
C1814 C1815 1.400 . S
C1815 C1814 1.400 . S
C1815 C1816 1.398 . S
C1815 C1821 1.491 . S
C1816 H1807 0.950 . S
C1816 C1815 1.398 . S
C1816 C1817 1.391 . S
C1817 H1805 0.950 . S
C1817 C1813 1.393 . S
C1817 C1816 1.391 . S
C1818 H1808 0.950 . S
C1818 C1819 1.386 . S
C1818 C1820 1.391 . S
C1819 C1818 1.386 . S
C1819 C1823 1.393 . S
C1820 H1809 0.950 . S
C1820 C1818 1.391 . S
C1820 C1821 1.400 . S
C1821 C1815 1.491 . S
C1821 C1820 1.400 . S
C1821 C1822 1.398 . S
C1822 H1810 0.950 . S
C1822 C1821 1.398 . S
C1822 C1823 1.391 . S
C1823 H1811 0.950 . S
C1823 C1819 1.393 . S
C1823 C1822 1.391 . S
H1824 C1832 0.950 . S
H1825 C1837 0.950 . S
H1826 C1834 0.950 . S
H1827 C1836 0.950 . S
H1828 C1838 0.950 . S
H1829 C1840 0.950 . S
H1830 C1842 0.950 . S
H1831 C1843 0.950 . S
C1832 H1824 0.950 . S
C1832 C1833 1.386 . S
C1832 C1834 1.391 . S
C1833 C1832 1.386 . S
C1833 C1837 1.393 . S
C1834 H1826 0.950 . S
C1834 C1832 1.391 . S
C1834 C1835 1.400 . S
C1835 C1834 1.400 . S
C1835 C1836 1.398 . S
C1835 C1841 1.491 . S
C1836 H1827 0.950 . S
C1836 C1835 1.398 . S
C1836 C1837 1.391 . S
C1837 H1825 0.950 . S
C1837 C1833 1.393 . S
C1837 C1836 1.391 . S
C1838 H1828 0.950 . S
C1838 C1839 1.386 . S
C1838 C1840 1.391 . S
C1839 C1838 1.386 . S
C1839 C1843 1.393 . S
C1840 H1829 0.950 . S
C1840 C1838 1.391 . S
C1840 C1841 1.400 . S
C1841 C1835 1.491 . S
C1841 C1840 1.400 . S
C1841 C1842 1.398 . S
C1842 H1830 0.950 . S
C1842 C1841 1.398 . S
C1842 C1843 1.391 . S
C1843 H1831 0.950 . S
C1843 C1839 1.393 . S
C1843 C1842 1.391 . S
H1844 C1852 0.950 . S
H1845 C1857 0.950 . S
H1846 C1854 0.950 . S
H1847 C1856 0.950 . S
H1848 C1858 0.950 . S
H1849 C1860 0.950 . S
H1850 C1862 0.950 . S
H1851 C1863 0.950 . S
C1852 H1844 0.950 . S
C1852 C1853 1.386 . S
C1852 C1854 1.391 . S
C1853 C1852 1.386 . S
C1853 C1857 1.393 . S
C1854 H1846 0.950 . S
C1854 C1852 1.391 . S
C1854 C1855 1.400 . S
C1855 C1854 1.400 . S
C1855 C1856 1.398 . S
C1855 C1861 1.491 . S
C1856 H1847 0.950 . S
C1856 C1855 1.398 . S
C1856 C1857 1.391 . S
C1857 H1845 0.950 . S
C1857 C1853 1.393 . S
C1857 C1856 1.391 . S
C1858 H1848 0.950 . S
C1858 C1859 1.386 . S
C1858 C1860 1.391 . S
C1859 C1858 1.386 . S
C1859 C1863 1.393 . S
C1860 H1849 0.950 . S
C1860 C1858 1.391 . S
C1860 C1861 1.400 . S
C1861 C1855 1.491 . S
C1861 C1860 1.400 . S
C1861 C1862 1.398 . S
C1862 H1850 0.950 . S
C1862 C1861 1.398 . S
C1862 C1863 1.391 . S
C1863 H1851 0.950 . S
C1863 C1859 1.393 . S
C1863 C1862 1.391 . S
H1864 C1872 0.950 . S
H1865 C1877 0.950 . S
H1866 C1874 0.950 . S
H1867 C1876 0.950 . S
H1868 C1878 0.950 . S
H1869 C1880 0.950 . S
H1870 C1882 0.950 . S
H1871 C1883 0.950 . S
C1872 H1864 0.950 . S
C1872 C1873 1.386 . S
C1872 C1874 1.391 . S
C1873 C1872 1.386 . S
C1873 C1877 1.393 . S
C1874 H1866 0.950 . S
C1874 C1872 1.391 . S
C1874 C1875 1.400 . S
C1875 C1874 1.400 . S
C1875 C1876 1.398 . S
C1875 C1881 1.491 . S
C1876 H1867 0.950 . S
C1876 C1875 1.398 . S
C1876 C1877 1.391 . S
C1877 H1865 0.950 . S
C1877 C1873 1.393 . S
C1877 C1876 1.391 . S
C1878 H1868 0.950 . S
C1878 C1879 1.386 . S
C1878 C1880 1.391 . S
C1879 C1878 1.386 . S
C1879 C1883 1.393 . S
C1880 H1869 0.950 . S
C1880 C1878 1.391 . S
C1880 C1881 1.400 . S
C1881 C1875 1.491 . S
C1881 C1880 1.400 . S
C1881 C1882 1.398 . S
C1882 H1870 0.950 . S
C1882 C1881 1.398 . S
C1882 C1883 1.391 . S
C1883 H1871 0.950 . S
C1883 C1879 1.393 . S
C1883 C1882 1.391 . S
H1884 C1892 0.950 . S
H1885 C1897 0.950 . S
H1886 C1894 0.950 . S
H1887 C1896 0.950 . S
H1888 C1898 0.950 . S
H1889 C1900 0.950 . S
H1890 C1902 0.950 . S
H1891 C1903 0.950 . S
C1892 H1884 0.950 . S
C1892 C1893 1.386 . S
C1892 C1894 1.391 . S
C1893 C1892 1.386 . S
C1893 C1897 1.393 . S
C1894 H1886 0.950 . S
C1894 C1892 1.391 . S
C1894 C1895 1.400 . S
C1895 C1894 1.400 . S
C1895 C1896 1.398 . S
C1895 C1901 1.491 . S
C1896 H1887 0.950 . S
C1896 C1895 1.398 . S
C1896 C1897 1.391 . S
C1897 H1885 0.950 . S
C1897 C1893 1.393 . S
C1897 C1896 1.391 . S
C1898 H1888 0.950 . S
C1898 C1899 1.386 . S
C1898 C1900 1.391 . S
C1899 C1898 1.386 . S
C1899 C1903 1.393 . S
C1900 H1889 0.950 . S
C1900 C1898 1.391 . S
C1900 C1901 1.400 . S
C1901 C1895 1.491 . S
C1901 C1900 1.400 . S
C1901 C1902 1.398 . S
C1902 H1890 0.950 . S
C1902 C1901 1.398 . S
C1902 C1903 1.391 . S
C1903 H1891 0.950 . S
C1903 C1899 1.393 . S
C1903 C1902 1.391 . S
H1904 C1912 0.950 . S
H1905 C1917 0.950 . S
H1906 C1914 0.950 . S
H1907 C1916 0.950 . S
H1908 C1918 0.950 . S
H1909 C1920 0.950 . S
H1910 C1922 0.950 . S
H1911 C1923 0.950 . S
C1912 H1904 0.950 . S
C1912 C1913 1.386 . S
C1912 C1914 1.391 . S
C1913 C1912 1.386 . S
C1913 C1917 1.393 . S
C1914 H1906 0.950 . S
C1914 C1912 1.391 . S
C1914 C1915 1.400 . S
C1915 C1914 1.400 . S
C1915 C1916 1.398 . S
C1915 C1921 1.491 . S
C1916 H1907 0.950 . S
C1916 C1915 1.398 . S
C1916 C1917 1.391 . S
C1917 H1905 0.950 . S
C1917 C1913 1.393 . S
C1917 C1916 1.391 . S
C1918 H1908 0.950 . S
C1918 C1919 1.386 . S
C1918 C1920 1.391 . S
C1919 C1918 1.386 . S
C1919 C1923 1.393 . S
C1920 H1909 0.950 . S
C1920 C1918 1.391 . S
C1920 C1921 1.400 . S
C1921 C1915 1.491 . S
C1921 C1920 1.400 . S
C1921 C1922 1.398 . S
C1922 H1910 0.950 . S
C1922 C1921 1.398 . S
C1922 C1923 1.391 . S
C1923 H1911 0.950 . S
C1923 C1919 1.393 . S
C1923 C1922 1.391 . S
H1924 C1932 0.950 . S
H1925 C1937 0.950 . S
H1926 C1934 0.950 . S
H1927 C1936 0.950 . S
H1928 C1938 0.950 . S
H1929 C1940 0.950 . S
H1930 C1942 0.950 . S
H1931 C1943 0.950 . S
C1932 H1924 0.950 . S
C1932 C1933 1.386 . S
C1932 C1934 1.391 . S
C1933 C1932 1.386 . S
C1933 C1937 1.393 . S
C1934 H1926 0.950 . S
C1934 C1932 1.391 . S
C1934 C1935 1.400 . S
C1935 C1934 1.400 . S
C1935 C1936 1.398 . S
C1935 C1941 1.491 . S
C1936 H1927 0.950 . S
C1936 C1935 1.398 . S
C1936 C1937 1.391 . S
C1937 H1925 0.950 . S
C1937 C1933 1.393 . S
C1937 C1936 1.391 . S
C1938 H1928 0.950 . S
C1938 C1939 1.386 . S
C1938 C1940 1.391 . S
C1939 C1938 1.386 . S
C1939 C1943 1.393 . S
C1940 H1929 0.950 . S
C1940 C1938 1.391 . S
C1940 C1941 1.400 . S
C1941 C1935 1.491 . S
C1941 C1940 1.400 . S
C1941 C1942 1.398 . S
C1942 H1930 0.950 . S
C1942 C1941 1.398 . S
C1942 C1943 1.391 . S
C1943 H1931 0.950 . S
C1943 C1939 1.393 . S
C1943 C1942 1.391 . S
H1944 C1952 0.950 . S
H1945 C1957 0.950 . S
H1946 C1954 0.950 . S
H1947 C1956 0.950 . S
H1948 C1958 0.950 . S
H1949 C1960 0.950 . S
H1950 C1962 0.950 . S
H1951 C1963 0.950 . S
C1952 H1944 0.950 . S
C1952 C1953 1.386 . S
C1952 C1954 1.391 . S
C1953 C1952 1.386 . S
C1953 C1957 1.393 . S
C1954 H1946 0.950 . S
C1954 C1952 1.391 . S
C1954 C1955 1.400 . S
C1955 C1954 1.400 . S
C1955 C1956 1.398 . S
C1955 C1961 1.491 . S
C1956 H1947 0.950 . S
C1956 C1955 1.398 . S
C1956 C1957 1.391 . S
C1957 H1945 0.950 . S
C1957 C1953 1.393 . S
C1957 C1956 1.391 . S
C1958 H1948 0.950 . S
C1958 C1959 1.386 . S
C1958 C1960 1.391 . S
C1959 C1958 1.386 . S
C1959 C1963 1.393 . S
C1960 H1949 0.950 . S
C1960 C1958 1.391 . S
C1960 C1961 1.400 . S
C1961 C1955 1.491 . S
C1961 C1960 1.400 . S
C1961 C1962 1.398 . S
C1962 H1950 0.950 . S
C1962 C1961 1.398 . S
C1962 C1963 1.391 . S
C1963 H1951 0.950 . S
C1963 C1959 1.393 . S
C1963 C1962 1.391 . S
H1964 C1972 0.950 . S
H1965 C1977 0.950 . S
H1966 C1974 0.950 . S
H1967 C1976 0.950 . S
H1968 C1978 0.950 . S
H1969 C1980 0.950 . S
H1970 C1982 0.950 . S
H1971 C1983 0.950 . S
C1972 H1964 0.950 . S
C1972 C1973 1.386 . S
C1972 C1974 1.391 . S
C1973 C1972 1.386 . S
C1973 C1977 1.393 . S
C1974 H1966 0.950 . S
C1974 C1972 1.391 . S
C1974 C1975 1.400 . S
C1975 C1974 1.400 . S
C1975 C1976 1.398 . S
C1975 C1981 1.491 . S
C1976 H1967 0.950 . S
C1976 C1975 1.398 . S
C1976 C1977 1.391 . S
C1977 H1965 0.950 . S
C1977 C1973 1.393 . S
C1977 C1976 1.391 . S
C1978 H1968 0.950 . S
C1978 C1979 1.386 . S
C1978 C1980 1.391 . S
C1979 C1978 1.386 . S
C1979 C1983 1.393 . S
C1980 H1969 0.950 . S
C1980 C1978 1.391 . S
C1980 C1981 1.400 . S
C1981 C1975 1.491 . S
C1981 C1980 1.400 . S
C1981 C1982 1.398 . S
C1982 H1970 0.950 . S
C1982 C1981 1.398 . S
C1982 C1983 1.391 . S
C1983 H1971 0.950 . S
C1983 C1979 1.393 . S
C1983 C1982 1.391 . S
H1984 C1992 0.950 . S
H1985 C1997 0.950 . S
H1986 C1994 0.950 . S
H1987 C1996 0.950 . S
H1988 C1998 0.950 . S
H1989 C2000 0.950 . S
H1990 C2002 0.950 . S
H1991 C2003 0.950 . S
C1992 H1984 0.950 . S
C1992 C1993 1.386 . S
C1992 C1994 1.391 . S
C1993 C1992 1.386 . S
C1993 C1997 1.393 . S
C1994 H1986 0.950 . S
C1994 C1992 1.391 . S
C1994 C1995 1.400 . S
C1995 C1994 1.400 . S
C1995 C1996 1.398 . S
C1995 C2001 1.491 . S
C1996 H1987 0.950 . S
C1996 C1995 1.398 . S
C1996 C1997 1.391 . S
C1997 H1985 0.950 . S
C1997 C1993 1.393 . S
C1997 C1996 1.391 . S
C1998 H1988 0.950 . S
C1998 C1999 1.386 . S
C1998 C2000 1.391 . S
C1999 C1998 1.386 . S
C1999 C2003 1.393 . S
C2000 H1989 0.950 . S
C2000 C1998 1.391 . S
C2000 C2001 1.400 . S
C2001 C1995 1.491 . S
C2001 C2000 1.400 . S
C2001 C2002 1.398 . S
C2002 H1990 0.950 . S
C2002 C2001 1.398 . S
C2002 C2003 1.391 . S
C2003 H1991 0.950 . S
C2003 C1999 1.393 . S
C2003 C2002 1.391 . S
H2004 C2012 0.950 . S
H2005 C2017 0.950 . S
H2006 C2014 0.950 . S
H2007 C2016 0.950 . S
H2008 C2018 0.950 . S
H2009 C2020 0.950 . S
H2010 C2022 0.950 . S
H2011 C2023 0.950 . S
C2012 H2004 0.950 . S
C2012 C2013 1.386 . S
C2012 C2014 1.391 . S
C2013 C2012 1.386 . S
C2013 C2017 1.393 . S
C2014 H2006 0.950 . S
C2014 C2012 1.391 . S
C2014 C2015 1.400 . S
C2015 C2014 1.400 . S
C2015 C2016 1.398 . S
C2015 C2021 1.491 . S
C2016 H2007 0.950 . S
C2016 C2015 1.398 . S
C2016 C2017 1.391 . S
C2017 H2005 0.950 . S
C2017 C2013 1.393 . S
C2017 C2016 1.391 . S
C2018 H2008 0.950 . S
C2018 C2019 1.386 . S
C2018 C2020 1.391 . S
C2019 C2018 1.386 . S
C2019 C2023 1.393 . S
C2020 H2009 0.950 . S
C2020 C2018 1.391 . S
C2020 C2021 1.400 . S
C2021 C2015 1.491 . S
C2021 C2020 1.400 . S
C2021 C2022 1.398 . S
C2022 H2010 0.950 . S
C2022 C2021 1.398 . S
C2022 C2023 1.391 . S
C2023 H2011 0.950 . S
C2023 C2019 1.393 . S
C2023 C2022 1.391 . S
H2024 C2032 0.950 . S
H2025 C2037 0.950 . S
H2026 C2034 0.950 . S
H2027 C2036 0.950 . S
H2028 C2038 0.950 . S
H2029 C2040 0.950 . S
H2030 C2042 0.950 . S
H2031 C2043 0.950 . S
C2032 H2024 0.950 . S
C2032 C2033 1.386 . S
C2032 C2034 1.391 . S
C2033 C2032 1.386 . S
C2033 C2037 1.393 . S
C2034 H2026 0.950 . S
C2034 C2032 1.391 . S
C2034 C2035 1.400 . S
C2035 C2034 1.400 . S
C2035 C2036 1.398 . S
C2035 C2041 1.491 . S
C2036 H2027 0.950 . S
C2036 C2035 1.398 . S
C2036 C2037 1.391 . S
C2037 H2025 0.950 . S
C2037 C2033 1.393 . S
C2037 C2036 1.391 . S
C2038 H2028 0.950 . S
C2038 C2039 1.386 . S
C2038 C2040 1.391 . S
C2039 C2038 1.386 . S
C2039 C2043 1.393 . S
C2040 H2029 0.950 . S
C2040 C2038 1.391 . S
C2040 C2041 1.400 . S
C2041 C2035 1.491 . S
C2041 C2040 1.400 . S
C2041 C2042 1.398 . S
C2042 H2030 0.950 . S
C2042 C2041 1.398 . S
C2042 C2043 1.391 . S
C2043 H2031 0.950 . S
C2043 C2039 1.393 . S
C2043 C2042 1.391 . S
H2044 C2052 0.950 . S
H2045 C2057 0.950 . S
H2046 C2054 0.950 . S
H2047 C2056 0.950 . S
H2048 C2058 0.950 . S
H2049 C2060 0.950 . S
H2050 C2062 0.950 . S
H2051 C2063 0.950 . S
C2052 H2044 0.950 . S
C2052 C2053 1.386 . S
C2052 C2054 1.391 . S
C2053 C2052 1.386 . S
C2053 C2057 1.393 . S
C2054 H2046 0.950 . S
C2054 C2052 1.391 . S
C2054 C2055 1.400 . S
C2055 C2054 1.400 . S
C2055 C2056 1.398 . S
C2055 C2061 1.491 . S
C2056 H2047 0.950 . S
C2056 C2055 1.398 . S
C2056 C2057 1.391 . S
C2057 H2045 0.950 . S
C2057 C2053 1.393 . S
C2057 C2056 1.391 . S
C2058 H2048 0.950 . S
C2058 C2059 1.386 . S
C2058 C2060 1.391 . S
C2059 C2058 1.386 . S
C2059 C2063 1.393 . S
C2060 H2049 0.950 . S
C2060 C2058 1.391 . S
C2060 C2061 1.400 . S
C2061 C2055 1.491 . S
C2061 C2060 1.400 . S
C2061 C2062 1.398 . S
C2062 H2050 0.950 . S
C2062 C2061 1.398 . S
C2062 C2063 1.391 . S
C2063 H2051 0.950 . S
C2063 C2059 1.393 . S
C2063 C2062 1.391 . S
H2064 C2072 0.950 . S
H2065 C2077 0.950 . S
H2066 C2074 0.950 . S
H2067 C2076 0.950 . S
H2068 C2078 0.950 . S
H2069 C2080 0.950 . S
H2070 C2082 0.950 . S
H2071 C2083 0.950 . S
C2072 H2064 0.950 . S
C2072 C2073 1.386 . S
C2072 C2074 1.391 . S
C2073 C2072 1.386 . S
C2073 C2077 1.393 . S
C2074 H2066 0.950 . S
C2074 C2072 1.391 . S
C2074 C2075 1.400 . S
C2075 C2074 1.400 . S
C2075 C2076 1.398 . S
C2075 C2081 1.491 . S
C2076 H2067 0.950 . S
C2076 C2075 1.398 . S
C2076 C2077 1.391 . S
C2077 H2065 0.950 . S
C2077 C2073 1.393 . S
C2077 C2076 1.391 . S
C2078 H2068 0.950 . S
C2078 C2079 1.386 . S
C2078 C2080 1.391 . S
C2079 C2078 1.386 . S
C2079 C2083 1.393 . S
C2080 H2069 0.950 . S
C2080 C2078 1.391 . S
C2080 C2081 1.400 . S
C2081 C2075 1.491 . S
C2081 C2080 1.400 . S
C2081 C2082 1.398 . S
C2082 H2070 0.950 . S
C2082 C2081 1.398 . S
C2082 C2083 1.391 . S
C2083 H2071 0.950 . S
C2083 C2079 1.393 . S
C2083 C2082 1.391 . S
H2084 C2092 0.950 . S
H2085 C2097 0.950 . S
H2086 C2094 0.950 . S
H2087 C2096 0.950 . S
H2088 C2098 0.950 . S
H2089 C2100 0.950 . S
H2090 C2102 0.950 . S
H2091 C2103 0.950 . S
C2092 H2084 0.950 . S
C2092 C2093 1.386 . S
C2092 C2094 1.391 . S
C2093 C2092 1.386 . S
C2093 C2097 1.393 . S
C2094 H2086 0.950 . S
C2094 C2092 1.391 . S
C2094 C2095 1.400 . S
C2095 C2094 1.400 . S
C2095 C2096 1.398 . S
C2095 C2101 1.491 . S
C2096 H2087 0.950 . S
C2096 C2095 1.398 . S
C2096 C2097 1.391 . S
C2097 H2085 0.950 . S
C2097 C2093 1.393 . S
C2097 C2096 1.391 . S
C2098 H2088 0.950 . S
C2098 C2099 1.386 . S
C2098 C2100 1.391 . S
C2099 C2098 1.386 . S
C2099 C2103 1.393 . S
C2100 H2089 0.950 . S
C2100 C2098 1.391 . S
C2100 C2101 1.400 . S
C2101 C2095 1.491 . S
C2101 C2100 1.400 . S
C2101 C2102 1.398 . S
C2102 H2090 0.950 . S
C2102 C2101 1.398 . S
C2102 C2103 1.391 . S
C2103 H2091 0.950 . S
C2103 C2099 1.393 . S
C2103 C2102 1.391 . S
H2104 C2112 0.950 . S
H2105 C2117 0.950 . S
H2106 C2114 0.950 . S
H2107 C2116 0.950 . S
H2108 C2118 0.950 . S
H2109 C2120 0.950 . S
H2110 C2122 0.950 . S
H2111 C2123 0.950 . S
C2112 H2104 0.950 . S
C2112 C2113 1.386 . S
C2112 C2114 1.391 . S
C2113 C2112 1.386 . S
C2113 C2117 1.393 . S
C2114 H2106 0.950 . S
C2114 C2112 1.391 . S
C2114 C2115 1.400 . S
C2115 C2114 1.400 . S
C2115 C2116 1.398 . S
C2115 C2121 1.491 . S
C2116 H2107 0.950 . S
C2116 C2115 1.398 . S
C2116 C2117 1.391 . S
C2117 H2105 0.950 . S
C2117 C2113 1.393 . S
C2117 C2116 1.391 . S
C2118 H2108 0.950 . S
C2118 C2119 1.386 . S
C2118 C2120 1.391 . S
C2119 C2118 1.386 . S
C2119 C2123 1.393 . S
C2120 H2109 0.950 . S
C2120 C2118 1.391 . S
C2120 C2121 1.400 . S
C2121 C2115 1.491 . S
C2121 C2120 1.400 . S
C2121 C2122 1.398 . S
C2122 H2110 0.950 . S
C2122 C2121 1.398 . S
C2122 C2123 1.391 . S
C2123 H2111 0.950 . S
C2123 C2119 1.393 . S
C2123 C2122 1.391 . S
H2124 C2132 0.950 . S
H2125 C2137 0.950 . S
H2126 C2134 0.950 . S
H2127 C2136 0.950 . S
H2128 C2138 0.950 . S
H2129 C2140 0.950 . S
H2130 C2142 0.950 . S
H2131 C2143 0.950 . S
C2132 H2124 0.950 . S
C2132 C2133 1.386 . S
C2132 C2134 1.391 . S
C2133 C2132 1.386 . S
C2133 C2137 1.393 . S
C2134 H2126 0.950 . S
C2134 C2132 1.391 . S
C2134 C2135 1.400 . S
C2135 C2134 1.400 . S
C2135 C2136 1.398 . S
C2135 C2141 1.491 . S
C2136 H2127 0.950 . S
C2136 C2135 1.398 . S
C2136 C2137 1.391 . S
C2137 H2125 0.950 . S
C2137 C2133 1.393 . S
C2137 C2136 1.391 . S
C2138 H2128 0.950 . S
C2138 C2139 1.386 . S
C2138 C2140 1.391 . S
C2139 C2138 1.386 . S
C2139 C2143 1.393 . S
C2140 H2129 0.950 . S
C2140 C2138 1.391 . S
C2140 C2141 1.400 . S
C2141 C2135 1.491 . S
C2141 C2140 1.400 . S
C2141 C2142 1.398 . S
C2142 H2130 0.950 . S
C2142 C2141 1.398 . S
C2142 C2143 1.391 . S
C2143 H2131 0.950 . S
C2143 C2139 1.393 . S
C2143 C2142 1.391 . S
H2144 C2152 0.950 . S
H2145 C2157 0.950 . S
H2146 C2154 0.950 . S
H2147 C2156 0.950 . S
H2148 C2158 0.950 . S
H2149 C2160 0.950 . S
H2150 C2162 0.950 . S
H2151 C2163 0.950 . S
C2152 H2144 0.950 . S
C2152 C2153 1.386 . S
C2152 C2154 1.391 . S
C2153 C2152 1.386 . S
C2153 C2157 1.393 . S
C2154 H2146 0.950 . S
C2154 C2152 1.391 . S
C2154 C2155 1.400 . S
C2155 C2154 1.400 . S
C2155 C2156 1.398 . S
C2155 C2161 1.491 . S
C2156 H2147 0.950 . S
C2156 C2155 1.398 . S
C2156 C2157 1.391 . S
C2157 H2145 0.950 . S
C2157 C2153 1.393 . S
C2157 C2156 1.391 . S
C2158 H2148 0.950 . S
C2158 C2159 1.386 . S
C2158 C2160 1.391 . S
C2159 C2158 1.386 . S
C2159 C2163 1.393 . S
C2160 H2149 0.950 . S
C2160 C2158 1.391 . S
C2160 C2161 1.400 . S
C2161 C2155 1.491 . S
C2161 C2160 1.400 . S
C2161 C2162 1.398 . S
C2162 H2150 0.950 . S
C2162 C2161 1.398 . S
C2162 C2163 1.391 . S
C2163 H2151 0.950 . S
C2163 C2159 1.393 . S
C2163 C2162 1.391 . S
H2164 C2172 0.950 . S
H2165 C2177 0.950 . S
H2166 C2174 0.950 . S
H2167 C2176 0.950 . S
H2168 C2178 0.950 . S
H2169 C2180 0.950 . S
H2170 C2182 0.950 . S
H2171 C2183 0.950 . S
C2172 H2164 0.950 . S
C2172 C2173 1.386 . S
C2172 C2174 1.391 . S
C2173 C2172 1.386 . S
C2173 C2177 1.393 . S
C2174 H2166 0.950 . S
C2174 C2172 1.391 . S
C2174 C2175 1.400 . S
C2175 C2174 1.400 . S
C2175 C2176 1.398 . S
C2175 C2181 1.491 . S
C2176 H2167 0.950 . S
C2176 C2175 1.398 . S
C2176 C2177 1.391 . S
C2177 H2165 0.950 . S
C2177 C2173 1.393 . S
C2177 C2176 1.391 . S
C2178 H2168 0.950 . S
C2178 C2179 1.386 . S
C2178 C2180 1.391 . S
C2179 C2178 1.386 . S
C2179 C2183 1.393 . S
C2180 H2169 0.950 . S
C2180 C2178 1.391 . S
C2180 C2181 1.400 . S
C2181 C2175 1.491 . S
C2181 C2180 1.400 . S
C2181 C2182 1.398 . S
C2182 H2170 0.950 . S
C2182 C2181 1.398 . S
C2182 C2183 1.391 . S
C2183 H2171 0.950 . S
C2183 C2179 1.393 . S
C2183 C2182 1.391 . S
H2184 C2192 0.950 . S
H2185 C2197 0.950 . S
H2186 C2194 0.950 . S
H2187 C2196 0.950 . S
H2188 C2198 0.950 . S
H2189 C2200 0.950 . S
H2190 C2202 0.950 . S
H2191 C2203 0.950 . S
C2192 H2184 0.950 . S
C2192 C2193 1.386 . S
C2192 C2194 1.391 . S
C2193 C2192 1.386 . S
C2193 C2197 1.393 . S
C2194 H2186 0.950 . S
C2194 C2192 1.391 . S
C2194 C2195 1.400 . S
C2195 C2194 1.400 . S
C2195 C2196 1.398 . S
C2195 C2201 1.491 . S
C2196 H2187 0.950 . S
C2196 C2195 1.398 . S
C2196 C2197 1.391 . S
C2197 H2185 0.950 . S
C2197 C2193 1.393 . S
C2197 C2196 1.391 . S
C2198 H2188 0.950 . S
C2198 C2199 1.386 . S
C2198 C2200 1.391 . S
C2199 C2198 1.386 . S
C2199 C2203 1.393 . S
C2200 H2189 0.950 . S
C2200 C2198 1.391 . S
C2200 C2201 1.400 . S
C2201 C2195 1.491 . S
C2201 C2200 1.400 . S
C2201 C2202 1.398 . S
C2202 H2190 0.950 . S
C2202 C2201 1.398 . S
C2202 C2203 1.391 . S
C2203 H2191 0.950 . S
C2203 C2199 1.393 . S
C2203 C2202 1.391 . S
H2204 C2212 0.950 . S
H2205 C2217 0.950 . S
H2206 C2214 0.950 . S
H2207 C2216 0.950 . S
H2208 C2218 0.950 . S
H2209 C2220 0.950 . S
H2210 C2222 0.950 . S
H2211 C2223 0.950 . S
C2212 H2204 0.950 . S
C2212 C2213 1.386 . S
C2212 C2214 1.391 . S
C2213 C2212 1.386 . S
C2213 C2217 1.393 . S
C2214 H2206 0.950 . S
C2214 C2212 1.391 . S
C2214 C2215 1.400 . S
C2215 C2214 1.400 . S
C2215 C2216 1.398 . S
C2215 C2221 1.491 . S
C2216 H2207 0.950 . S
C2216 C2215 1.398 . S
C2216 C2217 1.391 . S
C2217 H2205 0.950 . S
C2217 C2213 1.393 . S
C2217 C2216 1.391 . S
C2218 H2208 0.950 . S
C2218 C2219 1.386 . S
C2218 C2220 1.391 . S
C2219 C2218 1.386 . S
C2219 C2223 1.393 . S
C2220 H2209 0.950 . S
C2220 C2218 1.391 . S
C2220 C2221 1.400 . S
C2221 C2215 1.491 . S
C2221 C2220 1.400 . S
C2221 C2222 1.398 . S
C2222 H2210 0.950 . S
C2222 C2221 1.398 . S
C2222 C2223 1.391 . S
C2223 H2211 0.950 . S
C2223 C2219 1.393 . S
C2223 C2222 1.391 . S
H2224 C2232 0.950 . S
H2225 C2237 0.950 . S
H2226 C2234 0.950 . S
H2227 C2236 0.950 . S
H2228 C2238 0.950 . S
H2229 C2240 0.950 . S
H2230 C2242 0.950 . S
H2231 C2243 0.950 . S
C2232 H2224 0.950 . S
C2232 C2233 1.386 . S
C2232 C2234 1.391 . S
C2233 C2232 1.386 . S
C2233 C2237 1.393 . S
C2234 H2226 0.950 . S
C2234 C2232 1.391 . S
C2234 C2235 1.400 . S
C2235 C2234 1.400 . S
C2235 C2236 1.398 . S
C2235 C2241 1.491 . S
C2236 H2227 0.950 . S
C2236 C2235 1.398 . S
C2236 C2237 1.391 . S
C2237 H2225 0.950 . S
C2237 C2233 1.393 . S
C2237 C2236 1.391 . S
C2238 H2228 0.950 . S
C2238 C2239 1.386 . S
C2238 C2240 1.391 . S
C2239 C2238 1.386 . S
C2239 C2243 1.393 . S
C2240 H2229 0.950 . S
C2240 C2238 1.391 . S
C2240 C2241 1.400 . S
C2241 C2235 1.491 . S
C2241 C2240 1.400 . S
C2241 C2242 1.398 . S
C2242 H2230 0.950 . S
C2242 C2241 1.398 . S
C2242 C2243 1.391 . S
C2243 H2231 0.950 . S
C2243 C2239 1.393 . S
C2243 C2242 1.391 . S
H2244 C2252 0.950 . S
H2245 C2257 0.950 . S
H2246 C2254 0.950 . S
H2247 C2256 0.950 . S
H2248 C2258 0.950 . S
H2249 C2260 0.950 . S
H2250 C2262 0.950 . S
H2251 C2263 0.950 . S
C2252 H2244 0.950 . S
C2252 C2253 1.386 . S
C2252 C2254 1.391 . S
C2253 C2252 1.386 . S
C2253 C2257 1.393 . S
C2254 H2246 0.950 . S
C2254 C2252 1.391 . S
C2254 C2255 1.400 . S
C2255 C2254 1.400 . S
C2255 C2256 1.398 . S
C2255 C2261 1.491 . S
C2256 H2247 0.950 . S
C2256 C2255 1.398 . S
C2256 C2257 1.391 . S
C2257 H2245 0.950 . S
C2257 C2253 1.393 . S
C2257 C2256 1.391 . S
C2258 H2248 0.950 . S
C2258 C2259 1.386 . S
C2258 C2260 1.391 . S
C2259 C2258 1.386 . S
C2259 C2263 1.393 . S
C2260 H2249 0.950 . S
C2260 C2258 1.391 . S
C2260 C2261 1.400 . S
C2261 C2255 1.491 . S
C2261 C2260 1.400 . S
C2261 C2262 1.398 . S
C2262 H2250 0.950 . S
C2262 C2261 1.398 . S
C2262 C2263 1.391 . S
C2263 H2251 0.950 . S
C2263 C2259 1.393 . S
C2263 C2262 1.391 . S
H2264 C2272 0.950 . S
H2265 C2277 0.950 . S
H2266 C2274 0.950 . S
H2267 C2276 0.950 . S
H2268 C2278 0.950 . S
H2269 C2280 0.950 . S
H2270 C2282 0.950 . S
H2271 C2283 0.950 . S
C2272 H2264 0.950 . S
C2272 C2273 1.386 . S
C2272 C2274 1.391 . S
C2273 C2272 1.386 . S
C2273 C2277 1.393 . S
C2274 H2266 0.950 . S
C2274 C2272 1.391 . S
C2274 C2275 1.400 . S
C2275 C2274 1.400 . S
C2275 C2276 1.398 . S
C2275 C2281 1.491 . S
C2276 H2267 0.950 . S
C2276 C2275 1.398 . S
C2276 C2277 1.391 . S
C2277 H2265 0.950 . S
C2277 C2273 1.393 . S
C2277 C2276 1.391 . S
C2278 H2268 0.950 . S
C2278 C2279 1.386 . S
C2278 C2280 1.391 . S
C2279 C2278 1.386 . S
C2279 C2283 1.393 . S
C2280 H2269 0.950 . S
C2280 C2278 1.391 . S
C2280 C2281 1.400 . S
C2281 C2275 1.491 . S
C2281 C2280 1.400 . S
C2281 C2282 1.398 . S
C2282 H2270 0.950 . S
C2282 C2281 1.398 . S
C2282 C2283 1.391 . S
C2283 H2271 0.950 . S
C2283 C2279 1.393 . S
C2283 C2282 1.391 . S
H2284 C2292 0.950 . S
H2285 C2297 0.950 . S
H2286 C2294 0.950 . S
H2287 C2296 0.950 . S
H2288 C2298 0.950 . S
H2289 C2300 0.950 . S
H2290 C2302 0.950 . S
H2291 C2303 0.950 . S
C2292 H2284 0.950 . S
C2292 C2293 1.386 . S
C2292 C2294 1.391 . S
C2293 C2292 1.386 . S
C2293 C2297 1.393 . S
C2294 H2286 0.950 . S
C2294 C2292 1.391 . S
C2294 C2295 1.400 . S
C2295 C2294 1.400 . S
C2295 C2296 1.398 . S
C2295 C2301 1.491 . S
C2296 H2287 0.950 . S
C2296 C2295 1.398 . S
C2296 C2297 1.391 . S
C2297 H2285 0.950 . S
C2297 C2293 1.393 . S
C2297 C2296 1.391 . S
C2298 H2288 0.950 . S
C2298 C2299 1.386 . S
C2298 C2300 1.391 . S
C2299 C2298 1.386 . S
C2299 C2303 1.393 . S
C2300 H2289 0.950 . S
C2300 C2298 1.391 . S
C2300 C2301 1.400 . S
C2301 C2295 1.491 . S
C2301 C2300 1.400 . S
C2301 C2302 1.398 . S
C2302 H2290 0.950 . S
C2302 C2301 1.398 . S
C2302 C2303 1.391 . S
C2303 H2291 0.950 . S
C2303 C2299 1.393 . S
C2303 C2302 1.391 . S
H2304 C2312 0.950 . S
H2305 C2317 0.950 . S
H2306 C2314 0.950 . S
H2307 C2316 0.950 1_455 S
H2308 C2318 0.950 . S
H2309 C2320 0.950 . S
H2310 C2322 0.950 . S
H2311 C2323 0.950 . S
C2312 H2304 0.950 . S
C2312 C2313 1.442 . S
C2312 C2314 1.391 . S
C2313 C2312 1.442 . S
C2313 C2317 1.371 1_655 S
C2314 H2306 0.950 . S
C2314 C2312 1.391 . S
C2314 C2315 1.400 . S
C2315 C2314 1.400 . S
C2315 C2316 1.398 . S
C2315 C2321 1.491 . S
C2316 H2307 0.950 1_655 S
C2316 C2315 1.398 . S
C2316 C2317 1.391 1_655 S
C2317 H2305 0.950 . S
C2317 C2313 1.371 1_455 S
C2317 C2316 1.391 1_455 S
C2318 H2308 0.950 . S
C2318 C2319 1.386 . S
C2318 C2320 1.391 . S
C2319 C2318 1.386 . S
C2319 C2323 1.393 . S
C2320 H2309 0.950 . S
C2320 C2318 1.391 . S
C2320 C2321 1.400 . S
C2321 C2315 1.491 . S
C2321 C2320 1.400 . S
C2321 C2322 1.398 . S
C2322 H2310 0.950 . S
C2322 C2321 1.398 . S
C2322 C2323 1.391 . S
C2323 H2311 0.950 . S
C2323 C2319 1.393 . S
C2323 C2322 1.391 . S
H2324 C2332 0.950 . S
H2325 C2337 0.950 . S
H2326 C2334 0.950 . S
H2327 C2336 0.950 . S
H2328 C2338 0.950 . S
H2329 C2340 0.950 . S
H2330 C2342 0.950 . S
H2331 C2343 0.950 . S
C2332 H2324 0.950 . S
C2332 C2333 1.386 . S
C2332 C2334 1.391 . S
C2333 C2332 1.386 . S
C2333 C2337 1.393 . S
C2334 H2326 0.950 . S
C2334 C2332 1.391 . S
C2334 C2335 1.400 . S
C2335 C2334 1.400 . S
C2335 C2336 1.398 . S
C2335 C2341 1.491 . S
C2336 H2327 0.950 . S
C2336 C2335 1.398 . S
C2336 C2337 1.391 . S
C2337 H2325 0.950 . S
C2337 C2333 1.393 . S
C2337 C2336 1.391 . S
C2338 H2328 0.950 . S
C2338 C2339 1.386 . S
C2338 C2340 1.391 . S
C2339 C2338 1.386 . S
C2339 C2343 1.393 . S
C2340 H2329 0.950 . S
C2340 C2338 1.391 . S
C2340 C2341 1.400 . S
C2341 C2335 1.491 . S
C2341 C2340 1.400 . S
C2341 C2342 1.398 . S
C2342 H2330 0.950 . S
C2342 C2341 1.398 . S
C2342 C2343 1.391 . S
C2343 H2331 0.950 . S
C2343 C2339 1.393 . S
C2343 C2342 1.391 . S
H2344 C2352 0.950 . S
H2345 C2357 0.950 . S
H2346 C2354 0.950 . S
H2347 C2356 0.950 . S
H2348 C2358 0.950 . S
H2349 C2360 0.950 . S
H2350 C2362 0.950 . S
H2351 C2363 0.950 . S
C2352 H2344 0.950 . S
C2352 C2353 1.386 . S
C2352 C2354 1.391 . S
C2353 C2352 1.386 . S
C2353 C2357 1.393 . S
C2354 H2346 0.950 . S
C2354 C2352 1.391 . S
C2354 C2355 1.400 . S
C2355 C2354 1.400 . S
C2355 C2356 1.398 . S
C2355 C2361 1.491 . S
C2356 H2347 0.950 . S
C2356 C2355 1.398 . S
C2356 C2357 1.391 . S
C2357 H2345 0.950 . S
C2357 C2353 1.393 . S
C2357 C2356 1.391 . S
C2358 H2348 0.950 . S
C2358 C2359 1.386 . S
C2358 C2360 1.391 . S
C2359 C2358 1.386 . S
C2359 C2363 1.393 . S
C2360 H2349 0.950 . S
C2360 C2358 1.391 . S
C2360 C2361 1.400 . S
C2361 C2355 1.491 . S
C2361 C2360 1.400 . S
C2361 C2362 1.398 . S
C2362 H2350 0.950 . S
C2362 C2361 1.398 . S
C2362 C2363 1.391 . S
C2363 H2351 0.950 . S
C2363 C2359 1.393 . S
C2363 C2362 1.391 . S
H2364 C2372 0.950 . S
H2365 C2377 0.950 . S
H2366 C2374 0.950 . S
H2367 C2376 0.950 . S
H2368 C2378 0.950 . S
H2369 C2380 0.950 . S
H2370 C2382 0.950 . S
H2371 C2383 0.950 . S
C2372 H2364 0.950 . S
C2372 C2373 1.386 . S
C2372 C2374 1.391 . S
C2373 C2372 1.386 . S
C2373 C2377 1.393 1_554 S
C2374 H2366 0.950 . S
C2374 C2372 1.391 . S
C2374 C2375 1.400 . S
C2375 C2374 1.400 . S
C2375 C2376 1.398 . S
C2375 C2381 1.491 . S
C2376 H2367 0.950 . S
C2376 C2375 1.398 . S
C2376 C2377 1.391 1_554 S
C2377 H2365 0.950 . S
C2377 C2373 1.393 1_556 S
C2377 C2376 1.391 1_556 S
C2378 H2368 0.950 . S
C2378 C2379 1.386 . S
C2378 C2380 1.391 . S
C2379 C2378 1.386 . S
C2379 C2383 1.393 . S
C2380 H2369 0.950 . S
C2380 C2378 1.391 . S
C2380 C2381 1.400 . S
C2381 C2375 1.491 . S
C2381 C2380 1.400 . S
C2381 C2382 1.398 . S
C2382 H2370 0.950 . S
C2382 C2381 1.398 . S
C2382 C2383 1.391 . S
C2383 H2371 0.950 . S
C2383 C2379 1.393 . S
C2383 C2382 1.391 . S
H2384 C2392 0.950 . S
H2385 C2397 0.950 . S
H2386 C2394 0.950 . S
H2387 C2396 0.950 1_455 S
H2388 C2398 0.950 . S
H2389 C2400 0.950 . S
H2390 C2402 0.950 . S
H2391 C2403 0.950 . S
C2392 H2384 0.950 . S
C2392 C2393 1.439 . S
C2392 C2394 1.391 . S
C2393 C2392 1.439 . S
C2393 C2397 1.372 1_655 S
C2394 H2386 0.950 . S
C2394 C2392 1.391 . S
C2394 C2395 1.400 . S
C2395 C2394 1.400 . S
C2395 C2396 1.398 . S
C2395 C2401 1.491 . S
C2396 H2387 0.950 1_655 S
C2396 C2395 1.398 . S
C2396 C2397 1.391 1_655 S
C2397 H2385 0.950 . S
C2397 C2393 1.372 1_455 S
C2397 C2396 1.391 1_455 S
C2398 H2388 0.950 . S
C2398 C2399 1.386 . S
C2398 C2400 1.391 . S
C2399 C2398 1.386 . S
C2399 C2403 1.393 . S
C2400 H2389 0.950 . S
C2400 C2398 1.391 . S
C2400 C2401 1.400 . S
C2401 C2395 1.491 . S
C2401 C2400 1.400 . S
C2401 C2402 1.398 . S
C2402 H2390 0.950 . S
C2402 C2401 1.398 . S
C2402 C2403 1.391 . S
C2403 H2391 0.950 . S
C2403 C2399 1.393 . S
C2403 C2402 1.391 . S
H2404 C2412 0.950 . S
H2405 C2417 0.950 . S
H2406 C2414 0.950 . S
H2407 C2416 0.950 . S
H2408 C2418 0.950 . S
H2409 C2420 0.950 . S
H2410 C2422 0.950 . S
H2411 C2423 0.950 . S
C2412 H2404 0.950 . S
C2412 C2413 1.386 . S
C2412 C2414 1.391 . S
C2413 C2412 1.386 . S
C2413 C2417 1.393 . S
C2414 H2406 0.950 . S
C2414 C2412 1.391 . S
C2414 C2415 1.400 . S
C2415 C2414 1.400 . S
C2415 C2416 1.398 . S
C2415 C2421 1.491 . S
C2416 H2407 0.950 . S
C2416 C2415 1.398 . S
C2416 C2417 1.391 . S
C2417 H2405 0.950 . S
C2417 C2413 1.393 . S
C2417 C2416 1.391 . S
C2418 H2408 0.950 . S
C2418 C2419 1.386 . S
C2418 C2420 1.391 . S
C2419 C2418 1.386 . S
C2419 C2423 1.393 . S
C2420 H2409 0.950 . S
C2420 C2418 1.391 . S
C2420 C2421 1.400 . S
C2421 C2415 1.491 . S
C2421 C2420 1.400 . S
C2421 C2422 1.398 . S
C2422 H2410 0.950 . S
C2422 C2421 1.398 . S
C2422 C2423 1.391 . S
C2423 H2411 0.950 . S
C2423 C2419 1.393 . S
C2423 C2422 1.391 . S
H2424 C2432 0.950 . S
H2425 C2437 0.950 . S
H2426 C2434 0.950 . S
H2427 C2436 0.950 . S
H2428 C2438 0.950 . S
H2429 C2440 0.950 . S
H2430 C2442 0.950 . S
H2431 C2443 0.950 . S
C2432 H2424 0.950 . S
C2432 C2433 1.386 . S
C2432 C2434 1.391 . S
C2433 C2432 1.386 . S
C2433 C2437 1.393 . S
C2434 H2426 0.950 . S
C2434 C2432 1.391 . S
C2434 C2435 1.400 . S
C2435 C2434 1.400 . S
C2435 C2436 1.398 . S
C2435 C2441 1.491 . S
C2436 H2427 0.950 . S
C2436 C2435 1.398 . S
C2436 C2437 1.391 . S
C2437 H2425 0.950 . S
C2437 C2433 1.393 . S
C2437 C2436 1.391 . S
C2438 H2428 0.950 . S
C2438 C2439 1.386 . S
C2438 C2440 1.391 . S
C2439 C2438 1.386 . S
C2439 C2443 1.393 . S
C2440 H2429 0.950 . S
C2440 C2438 1.391 . S
C2440 C2441 1.400 . S
C2441 C2435 1.491 . S
C2441 C2440 1.400 . S
C2441 C2442 1.398 . S
C2442 H2430 0.950 . S
C2442 C2441 1.398 . S
C2442 C2443 1.391 . S
C2443 H2431 0.950 . S
C2443 C2439 1.393 . S
C2443 C2442 1.391 . S
H2444 C2452 0.950 . S
H2445 C2457 0.950 . S
H2446 C2454 0.950 . S
H2447 C2456 0.950 . S
H2448 C2458 0.950 . S
H2449 C2460 0.950 . S
H2450 C2462 0.950 . S
H2451 C2463 0.950 . S
C2452 H2444 0.950 . S
C2452 C2453 1.386 . S
C2452 C2454 1.391 . S
C2453 C2452 1.386 . S
C2453 C2457 1.393 . S
C2454 H2446 0.950 . S
C2454 C2452 1.391 . S
C2454 C2455 1.400 . S
C2455 C2454 1.400 . S
C2455 C2456 1.398 . S
C2455 C2461 1.491 . S
C2456 H2447 0.950 . S
C2456 C2455 1.398 . S
C2456 C2457 1.391 . S
C2457 H2445 0.950 . S
C2457 C2453 1.393 . S
C2457 C2456 1.391 . S
C2458 H2448 0.950 . S
C2458 C2459 1.386 . S
C2458 C2460 1.391 . S
C2459 C2458 1.386 . S
C2459 C2463 1.393 1_556 S
C2460 H2449 0.950 . S
C2460 C2458 1.391 . S
C2460 C2461 1.400 . S
C2461 C2455 1.491 . S
C2461 C2460 1.400 . S
C2461 C2462 1.398 . S
C2462 H2450 0.950 . S
C2462 C2461 1.398 . S
C2462 C2463 1.391 1_556 S
C2463 H2451 0.950 . S
C2463 C2459 1.393 1_554 S
C2463 C2462 1.391 1_554 S
H2464 C2472 0.950 . S
H2465 C2477 0.950 . S
H2466 C2474 0.950 . S
H2467 C2476 0.928 1_545 S
H2468 C2478 0.950 . S
H2469 C2480 0.950 . S
H2470 C2482 0.950 . S
H2471 C2483 0.950 . S
C2472 H2464 0.950 . S
C2472 C2473 1.427 . S
C2472 C2474 1.391 . S
C2473 C2472 1.427 . S
C2473 C2477 1.377 1_565 S
C2474 H2466 0.950 . S
C2474 C2472 1.391 . S
C2474 C2475 1.400 . S
C2475 C2474 1.400 . S
C2475 C2476 1.398 . S
C2475 C2481 1.491 . S
C2476 H2467 0.928 1_565 S
C2476 C2475 1.398 . S
C2476 C2477 1.391 1_565 S
C2477 H2465 0.950 . S
C2477 C2473 1.377 1_545 S
C2477 C2476 1.391 1_545 S
C2478 H2468 0.950 . S
C2478 C2479 1.386 . S
C2478 C2480 1.391 . S
C2479 C2478 1.386 . S
C2479 C2483 1.393 . S
C2480 H2469 0.950 . S
C2480 C2478 1.391 . S
C2480 C2481 1.400 . S
C2481 C2475 1.491 . S
C2481 C2480 1.400 . S
C2481 C2482 1.398 . S
C2482 H2470 0.950 . S
C2482 C2481 1.398 . S
C2482 C2483 1.391 . S
C2483 H2471 0.950 . S
C2483 C2479 1.393 . S
C2483 C2482 1.391 . S
H2484 C2492 0.950 . S
H2485 C2497 0.950 . S
H2486 C2494 0.950 . S
H2487 C2496 0.950 1_565 S
H2488 C2498 0.950 . S
H2489 C2500 0.950 . S
H2490 C2502 0.950 . S
H2491 C2503 0.950 . S
C2492 H2484 0.950 . S
C2492 C2493 1.430 . S
C2492 C2494 1.391 . S
C2493 C2492 1.430 . S
C2493 C2497 1.375 1_545 S
C2494 H2486 0.950 . S
C2494 C2492 1.391 . S
C2494 C2495 1.400 . S
C2495 C2494 1.400 . S
C2495 C2496 1.398 . S
C2495 C2501 1.491 . S
C2496 H2487 0.950 1_545 S
C2496 C2495 1.398 . S
C2496 C2497 1.391 1_545 S
C2497 H2485 0.950 . S
C2497 C2493 1.375 1_565 S
C2497 C2496 1.391 1_565 S
C2498 H2488 0.950 . S
C2498 C2499 1.386 . S
C2498 C2500 1.391 . S
C2499 C2498 1.386 . S
C2499 C2503 1.393 . S
C2500 H2489 0.950 . S
C2500 C2498 1.391 . S
C2500 C2501 1.400 . S
C2501 C2495 1.491 . S
C2501 C2500 1.400 . S
C2501 C2502 1.398 . S
C2502 H2490 0.950 . S
C2502 C2501 1.398 . S
C2502 C2503 1.391 . S
C2503 H2491 0.950 . S
C2503 C2499 1.393 . S
C2503 C2502 1.391 . S
H2504 C2512 0.950 1_565 S
H2505 C2517 0.950 . S
H2506 C2514 0.950 . S
H2507 C2516 0.950 . S
H2508 C2518 0.950 . S
H2509 C2520 0.950 . S
H2510 C2522 0.950 . S
H2511 C2523 0.950 . S
C2512 H2504 0.950 1_545 S
C2512 C2513 1.386 . S
C2512 C2514 1.391 . S
C2513 C2512 1.386 . S
C2513 C2517 1.393 . S
C2514 H2506 0.950 . S
C2514 C2512 1.391 . S
C2514 C2515 1.400 . S
C2515 C2514 1.400 . S
C2515 C2516 1.398 . S
C2515 C2521 1.491 . S
C2516 H2507 0.950 . S
C2516 C2515 1.398 . S
C2516 C2517 1.391 . S
C2517 H2505 0.950 . S
C2517 C2513 1.393 . S
C2517 C2516 1.391 . S
C2518 H2508 0.950 . S
C2518 C2519 1.386 . S
C2518 C2520 1.391 . S
C2519 C2518 1.386 . S
C2519 C2523 1.393 . S
C2520 H2509 0.950 . S
C2520 C2518 1.391 . S
C2520 C2521 1.400 . S
C2521 C2515 1.491 . S
C2521 C2520 1.400 . S
C2521 C2522 1.398 . S
C2522 H2510 0.950 . S
C2522 C2521 1.398 . S
C2522 C2523 1.391 . S
C2523 H2511 0.950 . S
C2523 C2519 1.393 . S
C2523 C2522 1.391 . S
H2524 C2532 0.950 . S
H2525 C2537 0.950 . S
H2526 C2534 0.950 . S
H2527 C2536 0.950 . S
H2528 C2538 0.950 . S
H2529 C2540 0.967 . S
H2530 C2542 0.950 . S
H2531 C2543 0.950 . S
C2532 H2524 0.950 . S
C2532 C2533 1.386 . S
C2532 C2534 1.391 . S
C2533 C2532 1.386 . S
C2533 C2537 1.393 . S
C2534 H2526 0.950 . S
C2534 C2532 1.391 . S
C2534 C2535 1.400 . S
C2535 C2534 1.400 . S
C2535 C2536 1.398 . S
C2535 C2541 1.491 . S
C2536 H2527 0.950 . S
C2536 C2535 1.398 . S
C2536 C2537 1.391 . S
C2537 H2525 0.950 . S
C2537 C2533 1.393 . S
C2537 C2536 1.391 . S
C2538 H2528 0.950 . S
C2538 C2539 1.371 1_545 S
C2538 C2540 1.391 1_545 S
C2539 C2538 1.371 1_565 S
C2539 C2543 1.434 . S
C2540 H2529 0.967 . S
C2540 C2538 1.391 1_565 S
C2540 C2541 1.400 . S
C2541 C2535 1.491 . S
C2541 C2540 1.400 . S
C2541 C2542 1.398 . S
C2542 H2530 0.950 . S
C2542 C2541 1.398 . S
C2542 C2543 1.391 . S
C2543 H2531 0.950 . S
C2543 C2539 1.434 . S
C2543 C2542 1.391 . S
H2544 C2552 0.950 . S
H2545 C2557 0.950 . S
H2546 C2554 0.950 . S
H2547 C2556 0.950 . S
H2548 C2558 0.970 . S
H2549 C2560 0.950 . S
H2550 C2562 0.950 . S
H2551 C2563 0.950 . S
C2552 H2544 0.950 . S
C2552 C2553 1.386 . S
C2552 C2554 1.391 . S
C2553 C2552 1.386 . S
C2553 C2557 1.393 . S
C2554 H2546 0.950 . S
C2554 C2552 1.391 . S
C2554 C2555 1.400 . S
C2555 C2554 1.400 . S
C2555 C2556 1.398 . S
C2555 C2561 1.491 . S
C2556 H2547 0.950 . S
C2556 C2555 1.398 . S
C2556 C2557 1.391 . S
C2557 H2545 0.950 . S
C2557 C2553 1.393 . S
C2557 C2556 1.391 . S
C2558 H2548 0.970 . S
C2558 C2559 1.383 1_556 S
C2558 C2560 1.374 1_556 S
C2559 C2558 1.383 1_554 S
C2559 C2563 1.393 . S
C2560 H2549 0.950 . S
C2560 C2558 1.374 1_554 S
C2560 C2561 1.400 . S
C2561 C2555 1.491 . S
C2561 C2560 1.400 . S
C2561 C2562 1.398 . S
C2562 H2550 0.950 . S
C2562 C2561 1.398 . S
C2562 C2563 1.391 . S
C2563 H2551 0.950 . S
C2563 C2559 1.393 . S
C2563 C2562 1.391 . S
H2564 C2572 0.999 . S
H2565 C2577 0.950 . S
H2566 C2574 0.950 . S
H2567 C2576 0.950 . S
H2568 C2578 0.950 . S
H2569 C2580 0.950 . S
H2570 C2582 0.950 . S
H2571 C2583 0.950 . S
C2572 H2564 0.999 . S
C2572 C2573 1.379 1_655 S
C2572 C2574 1.353 1_655 S
C2573 C2572 1.379 1_455 S
C2573 C2577 1.393 . S
C2574 H2566 0.950 . S
C2574 C2572 1.353 1_455 S
C2574 C2575 1.400 . S
C2575 C2574 1.400 . S
C2575 C2576 1.398 . S
C2575 C2581 1.491 . S
C2576 H2567 0.950 . S
C2576 C2575 1.398 . S
C2576 C2577 1.391 . S
C2577 H2565 0.950 . S
C2577 C2573 1.393 . S
C2577 C2576 1.391 . S
C2578 H2568 0.950 . S
C2578 C2579 1.386 . S
C2578 C2580 1.391 . S
C2579 C2578 1.386 . S
C2579 C2583 1.393 . S
C2580 H2569 0.950 . S
C2580 C2578 1.391 . S
C2580 C2581 1.400 . S
C2581 C2575 1.491 . S
C2581 C2580 1.400 . S
C2581 C2582 1.398 . S
C2582 H2570 0.950 . S
C2582 C2581 1.398 . S
C2582 C2583 1.391 . S
C2583 H2571 0.950 . S
C2583 C2579 1.393 . S
C2583 C2582 1.391 . S
H2584 C2592 0.950 . S
H2585 C2597 0.950 . S
H2586 C2594 0.950 . S
H2587 C2596 0.950 . S
H2588 C2598 0.950 . S
H2589 C2600 0.950 . S
H2590 C2602 0.950 . S
H2591 C2603 0.950 . S
C2592 H2584 0.950 . S
C2592 C2593 1.386 . S
C2592 C2594 1.391 . S
C2593 C2592 1.386 . S
C2593 C2597 1.393 . S
C2594 H2586 0.950 . S
C2594 C2592 1.391 . S
C2594 C2595 1.400 . S
C2595 C2594 1.400 . S
C2595 C2596 1.398 . S
C2595 C2601 1.491 . S
C2596 H2587 0.950 . S
C2596 C2595 1.398 . S
C2596 C2597 1.391 . S
C2597 H2585 0.950 . S
C2597 C2593 1.393 . S
C2597 C2596 1.391 . S
C2598 H2588 0.950 . S
C2598 C2599 1.386 . S
C2598 C2600 1.391 . S
C2599 C2598 1.386 . S
C2599 C2603 1.393 . S
C2600 H2589 0.950 . S
C2600 C2598 1.391 . S
C2600 C2601 1.400 . S
C2601 C2595 1.491 . S
C2601 C2600 1.400 . S
C2601 C2602 1.398 . S
C2602 H2590 0.950 . S
C2602 C2601 1.398 . S
C2602 C2603 1.391 . S
C2603 H2591 0.950 . S
C2603 C2599 1.393 . S
C2603 C2602 1.391 . S
H2604 C2612 0.950 . S
H2605 C2617 0.950 . S
H2606 C2614 0.950 . S
H2607 C2616 0.950 . S
H2608 C2618 0.950 . S
H2609 C2620 0.950 . S
H2610 C2622 0.950 . S
H2611 C2623 0.950 . S
C2612 H2604 0.950 . S
C2612 C2613 1.372 1_655 S
C2612 C2614 1.391 1_655 S
C2613 C2612 1.372 1_455 S
C2613 C2617 1.433 . S
C2614 H2606 0.950 . S
C2614 C2612 1.391 1_455 S
C2614 C2615 1.400 . S
C2615 C2614 1.400 . S
C2615 C2616 1.398 . S
C2615 C2621 1.491 . S
C2616 H2607 0.950 . S
C2616 C2615 1.398 . S
C2616 C2617 1.391 . S
C2617 H2605 0.950 . S
C2617 C2613 1.433 . S
C2617 C2616 1.391 . S
C2618 H2608 0.950 . S
C2618 C2619 1.386 . S
C2618 C2620 1.391 . S
C2619 C2618 1.386 . S
C2619 C2623 1.393 . S
C2620 H2609 0.950 . S
C2620 C2618 1.391 . S
C2620 C2621 1.400 . S
C2621 C2615 1.491 . S
C2621 C2620 1.400 . S
C2621 C2622 1.398 . S
C2622 H2610 0.950 . S
C2622 C2621 1.398 . S
C2622 C2623 1.391 . S
C2623 H2611 0.950 . S
C2623 C2619 1.393 . S
C2623 C2622 1.391 . S
H2624 C2632 0.950 . S
H2625 C2637 0.950 . S
H2626 C2634 0.950 . S
H2627 C2636 0.950 . S
H2628 C2638 0.950 . S
H2629 C2640 0.950 . S
H2630 C2642 0.950 . S
H2631 C2643 0.950 . S
C2632 H2624 0.950 . S
C2632 C2633 1.386 . S
C2632 C2634 1.391 . S
C2633 C2632 1.386 . S
C2633 C2637 1.393 . S
C2634 H2626 0.950 . S
C2634 C2632 1.391 . S
C2634 C2635 1.400 . S
C2635 C2634 1.400 . S
C2635 C2636 1.398 . S
C2635 C2641 1.491 . S
C2636 H2627 0.950 . S
C2636 C2635 1.398 . S
C2636 C2637 1.391 . S
C2637 H2625 0.950 . S
C2637 C2633 1.393 . S
C2637 C2636 1.391 . S
C2638 H2628 0.950 . S
C2638 C2639 1.386 . S
C2638 C2640 1.391 . S
C2639 C2638 1.386 . S
C2639 C2643 1.393 . S
C2640 H2629 0.950 . S
C2640 C2638 1.391 . S
C2640 C2641 1.400 . S
C2641 C2635 1.491 . S
C2641 C2640 1.400 . S
C2641 C2642 1.398 . S
C2642 H2630 0.950 . S
C2642 C2641 1.398 . S
C2642 C2643 1.391 . S
C2643 H2631 0.950 . S
C2643 C2639 1.393 . S
C2643 C2642 1.391 . S
H2644 C2652 0.950 . S
H2645 C2657 0.950 . S
H2646 C2654 0.950 . S
H2647 C2656 0.975 . S
H2648 C2658 0.950 . S
H2649 C2660 0.950 . S
H2650 C2662 0.950 . S
H2651 C2663 0.950 . S
C2652 H2644 0.950 . S
C2652 C2653 1.416 . S
C2652 C2654 1.391 . S
C2653 C2652 1.416 . S
C2653 C2657 1.382 1_455 S
C2654 H2646 0.950 . S
C2654 C2652 1.391 . S
C2654 C2655 1.400 . S
C2655 C2654 1.400 . S
C2655 C2656 1.398 . S
C2655 C2661 1.491 . S
C2656 H2647 0.975 . S
C2656 C2655 1.398 . S
C2656 C2657 1.391 1_455 S
C2657 H2645 0.950 . S
C2657 C2653 1.382 1_655 S
C2657 C2656 1.391 1_655 S
C2658 H2648 0.950 . S
C2658 C2659 1.386 . S
C2658 C2660 1.391 . S
C2659 C2658 1.386 . S
C2659 C2663 1.393 . S
C2660 H2649 0.950 . S
C2660 C2658 1.391 . S
C2660 C2661 1.400 . S
C2661 C2655 1.491 . S
C2661 C2660 1.400 . S
C2661 C2662 1.398 . S
C2662 H2650 0.950 . S
C2662 C2661 1.398 . S
C2662 C2663 1.391 . S
C2663 H2651 0.950 . S
C2663 C2659 1.393 . S
C2663 C2662 1.391 . S
H2664 C2672 0.950 . S
H2665 C2677 0.950 . S
H2666 C2674 0.950 . S
H2667 C2676 0.950 . S
H2668 C2678 0.950 . S
H2669 C2680 0.950 . S
H2670 C2682 0.950 . S
H2671 C2683 0.950 . S
C2672 H2664 0.950 . S
C2672 C2673 1.386 . S
C2672 C2674 1.391 . S
C2673 C2672 1.386 . S
C2673 C2677 1.393 . S
C2674 H2666 0.950 . S
C2674 C2672 1.391 . S
C2674 C2675 1.400 . S
C2675 C2674 1.400 . S
C2675 C2676 1.398 . S
C2675 C2681 1.491 . S
C2676 H2667 0.950 . S
C2676 C2675 1.398 . S
C2676 C2677 1.391 . S
C2677 H2665 0.950 . S
C2677 C2673 1.393 . S
C2677 C2676 1.391 . S
C2678 H2668 0.950 . S
C2678 C2679 1.386 . S
C2678 C2680 1.391 . S
C2679 C2678 1.386 . S
C2679 C2683 1.393 . S
C2680 H2669 0.950 . S
C2680 C2678 1.391 . S
C2680 C2681 1.400 . S
C2681 C2675 1.491 . S
C2681 C2680 1.400 . S
C2681 C2682 1.398 . S
C2682 H2670 0.950 . S
C2682 C2681 1.398 . S
C2682 C2683 1.391 . S
C2683 H2671 0.950 . S
C2683 C2679 1.393 . S
C2683 C2682 1.391 . S
H2684 C2692 0.950 . S
H2685 C2697 0.950 . S
H2686 C2694 0.950 . S
H2687 C2696 0.950 . S
H2688 C2698 0.950 . S
H2689 C2700 0.950 . S
H2690 C2702 0.950 . S
H2691 C2703 0.950 . S
C2692 H2684 0.950 . S
C2692 C2693 1.386 . S
C2692 C2694 1.391 . S
C2693 C2692 1.386 . S
C2693 C2697 1.393 . S
C2694 H2686 0.950 . S
C2694 C2692 1.391 . S
C2694 C2695 1.400 . S
C2695 C2694 1.400 . S
C2695 C2696 1.398 . S
C2695 C2701 1.491 . S
C2696 H2687 0.950 . S
C2696 C2695 1.398 . S
C2696 C2697 1.391 . S
C2697 H2685 0.950 . S
C2697 C2693 1.393 . S
C2697 C2696 1.391 . S
C2698 H2688 0.950 . S
C2698 C2699 1.386 . S
C2698 C2700 1.391 . S
C2699 C2698 1.386 . S
C2699 C2703 1.393 . S
C2700 H2689 0.950 . S
C2700 C2698 1.391 . S
C2700 C2701 1.400 . S
C2701 C2695 1.491 . S
C2701 C2700 1.400 . S
C2701 C2702 1.398 . S
C2702 H2690 0.950 . S
C2702 C2701 1.398 . S
C2702 C2703 1.391 . S
C2703 H2691 0.950 . S
C2703 C2699 1.393 . S
C2703 C2702 1.391 . S
H2704 C2712 0.950 . S
H2705 C2717 0.950 . S
H2706 C2714 0.950 . S
H2707 C2716 0.950 . S
H2708 C2718 0.950 . S
H2709 C2720 0.950 . S
H2710 C2722 0.950 . S
H2711 C2723 0.950 . S
C2712 H2704 0.950 . S
C2712 C2713 1.398 . S
C2712 C2714 1.391 . S
C2713 C2712 1.398 . S
C2713 C2717 1.392 1_556 S
C2714 H2706 0.950 . S
C2714 C2712 1.391 . S
C2714 C2715 1.400 . S
C2715 C2714 1.400 . S
C2715 C2716 1.398 . S
C2715 C2721 1.491 . S
C2716 H2707 0.950 . S
C2716 C2715 1.398 . S
C2716 C2717 1.390 1_556 S
C2717 H2705 0.950 . S
C2717 C2713 1.392 1_554 S
C2717 C2716 1.390 1_554 S
C2718 H2708 0.950 . S
C2718 C2719 1.386 . S
C2718 C2720 1.391 . S
C2719 C2718 1.386 . S
C2719 C2723 1.393 . S
C2720 H2709 0.950 . S
C2720 C2718 1.391 . S
C2720 C2721 1.400 . S
C2721 C2715 1.491 . S
C2721 C2720 1.400 . S
C2721 C2722 1.398 . S
C2722 H2710 0.950 . S
C2722 C2721 1.398 . S
C2722 C2723 1.391 . S
C2723 H2711 0.950 . S
C2723 C2719 1.393 . S
C2723 C2722 1.391 . S
H2724 C2732 0.950 . S
H2725 C2737 0.950 . S
H2726 C2734 0.950 . S
H2727 C2736 0.950 . S
H2728 C2738 0.950 . S
H2729 C2740 0.950 . S
H2730 C2742 0.928 1_655 S
H2731 C2743 0.950 . S
C2732 H2724 0.950 . S
C2732 C2733 1.386 . S
C2732 C2734 1.391 . S
C2733 C2732 1.386 . S
C2733 C2737 1.393 . S
C2734 H2726 0.950 . S
C2734 C2732 1.391 . S
C2734 C2735 1.400 . S
C2735 C2734 1.400 . S
C2735 C2736 1.398 . S
C2735 C2741 1.491 . S
C2736 H2727 0.950 . S
C2736 C2735 1.398 . S
C2736 C2737 1.391 . S
C2737 H2725 0.950 . S
C2737 C2733 1.393 . S
C2737 C2736 1.391 . S
C2738 H2728 0.950 . S
C2738 C2739 1.428 . S
C2738 C2740 1.391 . S
C2739 C2738 1.428 . S
C2739 C2743 1.377 1_455 S
C2740 H2729 0.950 . S
C2740 C2738 1.391 . S
C2740 C2741 1.400 . S
C2741 C2735 1.491 . S
C2741 C2740 1.400 . S
C2741 C2742 1.398 . S
C2742 H2730 0.928 1_455 S
C2742 C2741 1.398 . S
C2742 C2743 1.391 1_455 S
C2743 H2731 0.950 . S
C2743 C2739 1.377 1_655 S
C2743 C2742 1.391 1_655 S
H2744 C2752 0.950 . S
H2745 C2757 0.950 . S
H2746 C2754 0.950 . S
H2747 C2756 0.950 . S
H2748 C2758 0.950 . S
H2749 C2760 0.950 . S
H2750 C2762 0.950 . S
H2751 C2763 0.950 . S
C2752 H2744 0.950 . S
C2752 C2753 1.386 . S
C2752 C2754 1.391 . S
C2753 C2752 1.386 . S
C2753 C2757 1.393 . S
C2754 H2746 0.950 . S
C2754 C2752 1.391 . S
C2754 C2755 1.400 . S
C2755 C2754 1.400 . S
C2755 C2756 1.398 . S
C2755 C2761 1.491 . S
C2756 H2747 0.950 . S
C2756 C2755 1.398 . S
C2756 C2757 1.391 . S
C2757 H2745 0.950 . S
C2757 C2753 1.393 . S
C2757 C2756 1.391 . S
C2758 H2748 0.950 . S
C2758 C2759 1.386 . S
C2758 C2760 1.391 . S
C2759 C2758 1.386 . S
C2759 C2763 1.393 . S
C2760 H2749 0.950 . S
C2760 C2758 1.391 . S
C2760 C2761 1.400 . S
C2761 C2755 1.491 . S
C2761 C2760 1.400 . S
C2761 C2762 1.398 . S
C2762 H2750 0.950 . S
C2762 C2761 1.398 . S
C2762 C2763 1.391 . S
C2763 H2751 0.950 . S
C2763 C2759 1.393 . S
C2763 C2762 1.391 . S
H2764 C2772 0.950 . S
H2765 C2777 0.950 . S
H2766 C2774 0.950 . S
H2767 C2776 0.950 . S
H2768 C2778 0.950 . S
H2769 C2780 0.950 . S
H2770 C2782 0.950 . S
H2771 C2783 0.950 . S
C2772 H2764 0.950 . S
C2772 C2773 1.386 . S
C2772 C2774 1.391 . S
C2773 C2772 1.386 . S
C2773 C2777 1.393 . S
C2774 H2766 0.950 . S
C2774 C2772 1.391 . S
C2774 C2775 1.400 . S
C2775 C2774 1.400 . S
C2775 C2776 1.398 . S
C2775 C2781 1.491 . S
C2776 H2767 0.950 . S
C2776 C2775 1.398 . S
C2776 C2777 1.391 . S
C2777 H2765 0.950 . S
C2777 C2773 1.393 . S
C2777 C2776 1.391 . S
C2778 H2768 0.950 . S
C2778 C2779 1.386 . S
C2778 C2780 1.391 . S
C2779 C2778 1.386 . S
C2779 C2783 1.393 . S
C2780 H2769 0.950 . S
C2780 C2778 1.391 . S
C2780 C2781 1.400 . S
C2781 C2775 1.491 . S
C2781 C2780 1.400 . S
C2781 C2782 1.398 . S
C2782 H2770 0.950 . S
C2782 C2781 1.398 . S
C2782 C2783 1.391 . S
C2783 H2771 0.950 . S
C2783 C2779 1.393 . S
C2783 C2782 1.391 . S
H2784 C2792 0.950 . S
H2785 C2797 0.950 . S
H2786 C2794 0.950 . S
H2787 C2796 0.950 . S
H2788 C2798 0.989 . S
H2789 C2800 0.950 . S
H2790 C2802 0.950 . S
H2791 C2803 0.950 . S
C2792 H2784 0.950 . S
C2792 C2793 1.386 . S
C2792 C2794 1.391 . S
C2793 C2792 1.386 . S
C2793 C2797 1.393 . S
C2794 H2786 0.950 . S
C2794 C2792 1.391 . S
C2794 C2795 1.400 . S
C2795 C2794 1.400 . S
C2795 C2796 1.398 . S
C2795 C2801 1.491 . S
C2796 H2787 0.950 . S
C2796 C2795 1.398 . S
C2796 C2797 1.391 . S
C2797 H2785 0.950 . S
C2797 C2793 1.393 . S
C2797 C2796 1.391 . S
C2798 H2788 0.989 . S
C2798 C2799 1.380 1_556 S
C2798 C2800 1.360 1_556 S
C2799 C2798 1.380 1_554 S
C2799 C2803 1.393 . S
C2800 H2789 0.950 . S
C2800 C2798 1.360 1_554 S
C2800 C2801 1.400 . S
C2801 C2795 1.491 . S
C2801 C2800 1.400 . S
C2801 C2802 1.398 . S
C2802 H2790 0.950 . S
C2802 C2801 1.398 . S
C2802 C2803 1.391 . S
C2803 H2791 0.950 . S
C2803 C2799 1.393 . S
C2803 C2802 1.391 . S
H2804 C2812 0.950 . S
H2805 C2817 0.950 . S
H2806 C2814 0.950 . S
H2807 C2816 0.950 . S
H2808 C2818 0.950 1_565 S
H2809 C2820 0.950 . S
H2810 C2822 0.950 . S
H2811 C2823 0.950 . S
C2812 H2804 0.950 . S
C2812 C2813 1.386 . S
C2812 C2814 1.391 . S
C2813 C2812 1.386 . S
C2813 C2817 1.393 . S
C2814 H2806 0.950 . S
C2814 C2812 1.391 . S
C2814 C2815 1.400 . S
C2815 C2814 1.400 . S
C2815 C2816 1.398 . S
C2815 C2821 1.491 . S
C2816 H2807 0.950 . S
C2816 C2815 1.398 . S
C2816 C2817 1.391 . S
C2817 H2805 0.950 . S
C2817 C2813 1.393 . S
C2817 C2816 1.391 . S
C2818 H2808 0.950 1_545 S
C2818 C2819 1.388 . S
C2818 C2820 1.391 . S
C2819 C2818 1.388 . S
C2819 C2823 1.403 . S
C2820 H2809 0.950 . S
C2820 C2818 1.391 . S
C2820 C2821 1.400 . S
C2821 C2815 1.491 . S
C2821 C2820 1.400 . S
C2821 C2822 1.398 . S
C2822 H2810 0.950 . S
C2822 C2821 1.398 . S
C2822 C2823 1.391 . S
C2823 H2811 0.950 . S
C2823 C2819 1.403 . S
C2823 C2822 1.391 . S
H2824 C2832 0.950 . S
H2825 C2837 0.950 . S
H2826 C2834 0.950 . S
H2827 C2836 0.950 . S
H2828 C2838 0.950 . S
H2829 C2840 0.950 . S
H2830 C2842 0.950 . S
H2831 C2843 0.950 . S
C2832 H2824 0.950 . S
C2832 C2833 1.386 . S
C2832 C2834 1.391 . S
C2833 C2832 1.386 . S
C2833 C2837 1.393 . S
C2834 H2826 0.950 . S
C2834 C2832 1.391 . S
C2834 C2835 1.400 . S
C2835 C2834 1.400 . S
C2835 C2836 1.398 . S
C2835 C2841 1.491 . S
C2836 H2827 0.950 . S
C2836 C2835 1.398 . S
C2836 C2837 1.391 . S
C2837 H2825 0.950 . S
C2837 C2833 1.393 . S
C2837 C2836 1.391 . S
C2838 H2828 0.950 . S
C2838 C2839 1.377 1_545 S
C2838 C2840 1.391 1_545 S
C2839 C2838 1.377 1_565 S
C2839 C2843 1.424 . S
C2840 H2829 0.950 . S
C2840 C2838 1.391 1_565 S
C2840 C2841 1.400 . S
C2841 C2835 1.491 . S
C2841 C2840 1.400 . S
C2841 C2842 1.398 . S
C2842 H2830 0.950 . S
C2842 C2841 1.398 . S
C2842 C2843 1.391 . S
C2843 H2831 0.950 . S
C2843 C2839 1.424 . S
C2843 C2842 1.391 . S
H2844 C2852 0.950 . S
H2845 C2857 0.950 . S
H2846 C2854 0.950 . S
H2847 C2856 0.950 . S
H2848 C2858 0.950 . S
H2849 C2860 0.950 . S
H2850 C2862 0.938 1_545 S
H2851 C2863 0.950 . S
C2852 H2844 0.950 . S
C2852 C2853 1.386 . S
C2852 C2854 1.391 . S
C2853 C2852 1.386 . S
C2853 C2857 1.393 . S
C2854 H2846 0.950 . S
C2854 C2852 1.391 . S
C2854 C2855 1.400 . S
C2855 C2854 1.400 . S
C2855 C2856 1.398 . S
C2855 C2861 1.491 . S
C2856 H2847 0.950 . S
C2856 C2855 1.398 . S
C2856 C2857 1.391 . S
C2857 H2845 0.950 . S
C2857 C2853 1.393 . S
C2857 C2856 1.391 . S
C2858 H2848 0.950 . S
C2858 C2859 1.446 . S
C2858 C2860 1.391 . S
C2859 C2858 1.446 . S
C2859 C2863 1.370 1_565 S
C2860 H2849 0.950 . S
C2860 C2858 1.391 . S
C2860 C2861 1.400 . S
C2861 C2855 1.491 . S
C2861 C2860 1.400 . S
C2861 C2862 1.398 . S
C2862 H2850 0.938 1_565 S
C2862 C2861 1.398 . S
C2862 C2863 1.391 1_565 S
C2863 H2851 0.950 . S
C2863 C2859 1.370 1_545 S
C2863 C2862 1.391 1_545 S
H2864 C2872 0.950 . S
H2865 C2877 0.950 . S
H2866 C2874 0.950 . S
H2867 C2876 0.950 . S
H2868 C2878 0.917 1_565 S
H2869 C2880 0.950 . S
H2870 C2882 0.950 . S
H2871 C2883 0.950 . S
C2872 H2864 0.950 . S
C2872 C2873 1.386 . S
C2872 C2874 1.391 . S
C2873 C2872 1.386 . S
C2873 C2877 1.393 . S
C2874 H2866 0.950 . S
C2874 C2872 1.391 . S
C2874 C2875 1.400 . S
C2875 C2874 1.400 . S
C2875 C2876 1.398 . S
C2875 C2881 1.491 . S
C2876 H2867 0.950 . S
C2876 C2875 1.398 . S
C2876 C2877 1.391 . S
C2877 H2865 0.950 . S
C2877 C2873 1.393 . S
C2877 C2876 1.391 . S
C2878 H2868 0.917 1_545 S
C2878 C2879 1.385 . S
C2878 C2880 1.428 . S
C2879 C2878 1.385 . S
C2879 C2883 1.406 . S
C2880 H2869 0.950 . S
C2880 C2878 1.428 . S
C2880 C2881 1.400 . S
C2881 C2875 1.491 . S
C2881 C2880 1.400 . S
C2881 C2882 1.398 . S
C2882 H2870 0.950 . S
C2882 C2881 1.398 . S
C2882 C2883 1.391 . S
C2883 H2871 0.950 . S
C2883 C2879 1.406 . S
C2883 C2882 1.391 . S
H2884 C2892 0.950 . S
H2885 C2897 0.950 . S
H2886 C2894 0.950 . S
H2887 C2896 0.950 . S
H2888 C2898 0.950 . S
H2889 C2900 0.950 . S
H2890 C2902 0.950 . S
H2891 C2903 0.950 1_554 S
C2892 H2884 0.950 . S
C2892 C2893 1.386 . S
C2892 C2894 1.391 . S
C2893 C2892 1.386 . S
C2893 C2897 1.393 . S
C2894 H2886 0.950 . S
C2894 C2892 1.391 . S
C2894 C2895 1.400 . S
C2895 C2894 1.400 . S
C2895 C2896 1.398 . S
C2895 C2901 1.491 . S
C2896 H2887 0.950 . S
C2896 C2895 1.398 . S
C2896 C2897 1.391 . S
C2897 H2885 0.950 . S
C2897 C2893 1.393 . S
C2897 C2896 1.391 . S
C2898 H2888 0.950 . S
C2898 C2899 1.386 . S
C2898 C2900 1.391 . S
C2899 C2898 1.386 . S
C2899 C2903 1.393 . S
C2900 H2889 0.950 . S
C2900 C2898 1.391 . S
C2900 C2901 1.400 . S
C2901 C2895 1.491 . S
C2901 C2900 1.400 . S
C2901 C2902 1.398 . S
C2902 H2890 0.950 . S
C2902 C2901 1.398 . S
C2902 C2903 1.391 . S
C2903 H2891 0.950 1_556 S
C2903 C2899 1.393 . S
C2903 C2902 1.391 . S
H2904 C2912 0.950 . S
H2905 C2917 0.950 . S
H2906 C2914 0.950 . S
H2907 C2916 0.950 . S
H2908 C2918 0.950 1_455 S
H2909 C2920 0.950 . S
H2910 C2922 0.950 . S
H2911 C2923 0.950 . S
C2912 H2904 0.950 . S
C2912 C2913 1.386 . S
C2912 C2914 1.391 . S
C2913 C2912 1.386 . S
C2913 C2917 1.393 . S
C2914 H2906 0.950 . S
C2914 C2912 1.391 . S
C2914 C2915 1.400 . S
C2915 C2914 1.400 . S
C2915 C2916 1.398 . S
C2915 C2921 1.491 . S
C2916 H2907 0.950 . S
C2916 C2915 1.398 . S
C2916 C2917 1.391 . S
C2917 H2905 0.950 . S
C2917 C2913 1.393 . S
C2917 C2916 1.391 . S
C2918 H2908 0.950 1_655 S
C2918 C2919 1.386 . S
C2918 C2920 1.391 . S
C2919 C2918 1.386 . S
C2919 C2923 1.393 . S
C2920 H2909 0.950 . S
C2920 C2918 1.391 . S
C2920 C2921 1.400 . S
C2921 C2915 1.491 . S
C2921 C2920 1.400 . S
C2921 C2922 1.398 . S
C2922 H2910 0.950 . S
C2922 C2921 1.398 . S
C2922 C2923 1.391 . S
C2923 H2911 0.950 . S
C2923 C2919 1.393 . S
C2923 C2922 1.391 . S
H2924 C2932 0.950 . S
H2925 C2937 0.950 . S
H2926 C2934 0.950 . S
H2927 C2936 0.950 . S
H2928 C2938 0.950 . S
H2929 C2940 0.950 . S
H2930 C2942 0.950 . S
H2931 C2943 0.950 . S
C2932 H2924 0.950 . S
C2932 C2933 1.386 . S
C2932 C2934 1.391 . S
C2933 C2932 1.386 . S
C2933 C2937 1.393 . S
C2934 H2926 0.950 . S
C2934 C2932 1.391 . S
C2934 C2935 1.400 . S
C2935 C2934 1.400 . S
C2935 C2936 1.398 . S
C2935 C2941 1.491 . S
C2936 H2927 0.950 . S
C2936 C2935 1.398 . S
C2936 C2937 1.391 . S
C2937 H2925 0.950 . S
C2937 C2933 1.393 . S
C2937 C2936 1.391 . S
C2938 H2928 0.950 . S
C2938 C2939 1.386 . S
C2938 C2940 1.391 . S
C2939 C2938 1.386 . S
C2939 C2943 1.393 . S
C2940 H2929 0.950 . S
C2940 C2938 1.391 . S
C2940 C2941 1.400 . S
C2941 C2935 1.491 . S
C2941 C2940 1.400 . S
C2941 C2942 1.398 . S
C2942 H2930 0.950 . S
C2942 C2941 1.398 . S
C2942 C2943 1.391 . S
C2943 H2931 0.950 . S
C2943 C2939 1.393 . S
C2943 C2942 1.391 . S
H2944 C2952 0.950 . S
H2945 C2957 0.950 . S
H2946 C2954 0.950 . S
H2947 C2956 0.950 . S
H2948 C2958 0.950 . S
H2949 C2960 0.950 . S
H2950 C2962 0.950 . S
H2951 C2963 0.967 . S
C2952 H2944 0.950 . S
C2952 C2953 1.386 . S
C2952 C2954 1.391 . S
C2953 C2952 1.386 . S
C2953 C2957 1.393 . S
C2954 H2946 0.950 . S
C2954 C2952 1.391 . S
C2954 C2955 1.400 . S
C2955 C2954 1.400 . S
C2955 C2956 1.398 . S
C2955 C2961 1.491 . S
C2956 H2947 0.950 . S
C2956 C2955 1.398 . S
C2956 C2957 1.391 . S
C2957 H2945 0.950 . S
C2957 C2953 1.393 . S
C2957 C2956 1.391 . S
C2958 H2948 0.950 . S
C2958 C2959 1.392 . S
C2958 C2960 1.391 . S
C2959 C2958 1.392 . S
C2959 C2963 1.397 . S
C2960 H2949 0.950 . S
C2960 C2958 1.391 . S
C2960 C2961 1.400 . S
C2961 C2955 1.491 . S
C2961 C2960 1.400 . S
C2961 C2962 1.398 . S
C2962 H2950 0.950 . S
C2962 C2961 1.398 . S
C2962 C2963 1.391 . S
C2963 H2951 0.967 . S
C2963 C2959 1.397 . S
C2963 C2962 1.391 . S
H2964 C2972 0.950 . S
H2965 C2977 0.950 . S
H2966 C2974 0.950 . S
H2967 C2976 0.950 . S
H2968 C2978 0.950 . S
H2969 C2980 0.950 . S
H2970 C2982 0.950 . S
H2971 C2983 0.950 . S
C2972 H2964 0.950 . S
C2972 C2973 1.386 . S
C2972 C2974 1.391 . S
C2973 C2972 1.386 . S
C2973 C2977 1.393 . S
C2974 H2966 0.950 . S
C2974 C2972 1.391 . S
C2974 C2975 1.400 . S
C2975 C2974 1.400 . S
C2975 C2976 1.398 . S
C2975 C2981 1.491 . S
C2976 H2967 0.950 . S
C2976 C2975 1.398 . S
C2976 C2977 1.391 . S
C2977 H2965 0.950 . S
C2977 C2973 1.393 . S
C2977 C2976 1.391 . S
C2978 H2968 0.950 . S
C2978 C2979 1.386 . S
C2978 C2980 1.391 . S
C2979 C2978 1.386 . S
C2979 C2983 1.393 . S
C2980 H2969 0.950 . S
C2980 C2978 1.391 . S
C2980 C2981 1.400 . S
C2981 C2975 1.491 . S
C2981 C2980 1.400 . S
C2981 C2982 1.398 . S
C2982 H2970 0.950 . S
C2982 C2981 1.398 . S
C2982 C2983 1.391 . S
C2983 H2971 0.950 . S
C2983 C2979 1.393 . S
C2983 C2982 1.391 . S
H2984 C2992 0.950 . S
H2985 C2997 0.950 . S
H2986 C2994 0.950 . S
H2987 C2996 0.950 . S
H2988 C2998 0.950 . S
H2989 C3000 0.950 . S
H2990 C3002 0.950 . S
H2991 C3003 0.950 . S
C2992 H2984 0.950 . S
C2992 C2993 1.386 . S
C2992 C2994 1.391 . S
C2993 C2992 1.386 . S
C2993 C2997 1.393 . S
C2994 H2986 0.950 . S
C2994 C2992 1.391 . S
C2994 C2995 1.400 . S
C2995 C2994 1.400 . S
C2995 C2996 1.398 . S
C2995 C3001 1.491 . S
C2996 H2987 0.950 . S
C2996 C2995 1.398 . S
C2996 C2997 1.391 . S
C2997 H2985 0.950 . S
C2997 C2993 1.393 . S
C2997 C2996 1.391 . S
C2998 H2988 0.950 . S
C2998 C2999 1.386 . S
C2998 C3000 1.391 . S
C2999 C2998 1.386 . S
C2999 C3003 1.393 . S
C3000 H2989 0.950 . S
C3000 C2998 1.391 . S
C3000 C3001 1.400 . S
C3001 C2995 1.491 . S
C3001 C3000 1.400 . S
C3001 C3002 1.398 . S
C3002 H2990 0.950 . S
C3002 C3001 1.398 . S
C3002 C3003 1.391 . S
C3003 H2991 0.950 . S
C3003 C2999 1.393 . S
C3003 C3002 1.391 . S
H3004 C3012 0.950 . S
H3005 C3017 0.950 . S
H3006 C3014 0.950 . S
H3007 C3016 0.950 . S
H3008 C3018 0.950 . S
H3009 C3020 0.950 . S
H3010 C3022 0.950 . S
H3011 C3023 0.950 . S
C3012 H3004 0.950 . S
C3012 C3013 1.386 . S
C3012 C3014 1.391 . S
C3013 C3012 1.386 . S
C3013 C3017 1.393 1_556 S
C3014 H3006 0.950 . S
C3014 C3012 1.391 . S
C3014 C3015 1.400 . S
C3015 C3014 1.400 . S
C3015 C3016 1.398 . S
C3015 C3021 1.491 . S
C3016 H3007 0.950 . S
C3016 C3015 1.398 . S
C3016 C3017 1.391 1_556 S
C3017 H3005 0.950 . S
C3017 C3013 1.393 1_554 S
C3017 C3016 1.391 1_554 S
C3018 H3008 0.950 . S
C3018 C3019 1.386 . S
C3018 C3020 1.391 . S
C3019 C3018 1.386 . S
C3019 C3023 1.393 . S
C3020 H3009 0.950 . S
C3020 C3018 1.391 . S
C3020 C3021 1.400 . S
C3021 C3015 1.491 . S
C3021 C3020 1.400 . S
C3021 C3022 1.398 . S
C3022 H3010 0.950 . S
C3022 C3021 1.398 . S
C3022 C3023 1.391 . S
C3023 H3011 0.950 . S
C3023 C3019 1.393 . S
C3023 C3022 1.391 . S
H3024 C3032 0.950 . S
H3025 C3037 0.950 . S
H3026 C3034 0.950 . S
H3027 C3036 0.950 . S
H3028 C3038 0.950 . S
H3029 C3040 0.950 . S
H3030 C3042 0.950 . S
H3031 C3043 0.950 . S
C3032 H3024 0.950 . S
C3032 C3033 1.386 . S
C3032 C3034 1.391 . S
C3033 C3032 1.386 . S
C3033 C3037 1.393 . S
C3034 H3026 0.950 . S
C3034 C3032 1.391 . S
C3034 C3035 1.400 . S
C3035 C3034 1.400 . S
C3035 C3036 1.398 . S
C3035 C3041 1.491 . S
C3036 H3027 0.950 . S
C3036 C3035 1.398 . S
C3036 C3037 1.391 . S
C3037 H3025 0.950 . S
C3037 C3033 1.393 . S
C3037 C3036 1.391 . S
C3038 H3028 0.950 . S
C3038 C3039 1.386 . S
C3038 C3040 1.391 . S
C3039 C3038 1.386 . S
C3039 C3043 1.393 . S
C3040 H3029 0.950 . S
C3040 C3038 1.391 . S
C3040 C3041 1.400 . S
C3041 C3035 1.491 . S
C3041 C3040 1.400 . S
C3041 C3042 1.398 . S
C3042 H3030 0.950 . S
C3042 C3041 1.398 . S
C3042 C3043 1.391 . S
C3043 H3031 0.950 . S
C3043 C3039 1.393 . S
C3043 C3042 1.391 . S
H3044 C3052 0.950 . S
H3045 C3057 0.950 . S
H3046 C3054 0.950 . S
H3047 C3056 0.950 . S
H3048 C3058 0.950 . S
H3049 C3060 0.950 . S
H3050 C3062 0.950 . S
H3051 C3063 0.950 . S
C3052 H3044 0.950 . S
C3052 C3053 1.386 . S
C3052 C3054 1.391 . S
C3053 C3052 1.386 . S
C3053 C3057 1.393 . S
C3054 H3046 0.950 . S
C3054 C3052 1.391 . S
C3054 C3055 1.400 . S
C3055 C3054 1.400 . S
C3055 C3056 1.398 . S
C3055 C3061 1.491 . S
C3056 H3047 0.950 . S
C3056 C3055 1.398 . S
C3056 C3057 1.391 . S
C3057 H3045 0.950 . S
C3057 C3053 1.393 . S
C3057 C3056 1.391 . S
C3058 H3048 0.950 . S
C3058 C3059 1.386 . S
C3058 C3060 1.391 . S
C3059 C3058 1.386 . S
C3059 C3063 1.393 . S
C3060 H3049 0.950 . S
C3060 C3058 1.391 . S
C3060 C3061 1.400 . S
C3061 C3055 1.491 . S
C3061 C3060 1.400 . S
C3061 C3062 1.398 . S
C3062 H3050 0.950 . S
C3062 C3061 1.398 . S
C3062 C3063 1.391 . S
C3063 H3051 0.950 . S
C3063 C3059 1.393 . S
C3063 C3062 1.391 . S
H3064 C3072 0.950 . S
H3065 C3077 0.950 . S
H3066 C3074 0.950 . S
H3067 C3076 0.950 . S
H3068 C3078 0.950 . S
H3069 C3080 0.950 . S
H3070 C3082 0.950 . S
H3071 C3083 0.950 . S
C3072 H3064 0.950 . S
C3072 C3073 1.386 . S
C3072 C3074 1.391 . S
C3073 C3072 1.386 . S
C3073 C3077 1.393 . S
C3074 H3066 0.950 . S
C3074 C3072 1.391 . S
C3074 C3075 1.400 . S
C3075 C3074 1.400 . S
C3075 C3076 1.398 . S
C3075 C3081 1.491 . S
C3076 H3067 0.950 . S
C3076 C3075 1.398 . S
C3076 C3077 1.391 . S
C3077 H3065 0.950 . S
C3077 C3073 1.393 . S
C3077 C3076 1.391 . S
C3078 H3068 0.950 . S
C3078 C3079 1.386 . S
C3078 C3080 1.391 . S
C3079 C3078 1.386 . S
C3079 C3083 1.393 . S
C3080 H3069 0.950 . S
C3080 C3078 1.391 . S
C3080 C3081 1.400 . S
C3081 C3075 1.491 . S
C3081 C3080 1.400 . S
C3081 C3082 1.398 . S
C3082 H3070 0.950 . S
C3082 C3081 1.398 . S
C3082 C3083 1.391 . S
C3083 H3071 0.950 . S
C3083 C3079 1.393 . S
C3083 C3082 1.391 . S
H3084 C3092 0.950 . S
H3085 C3097 0.950 . S
H3086 C3094 0.950 . S
H3087 C3096 0.950 . S
H3088 C3098 0.950 . S
H3089 C3100 0.950 . S
H3090 C3102 0.950 . S
H3091 C3103 0.950 . S
C3092 H3084 0.950 . S
C3092 C3093 1.386 . S
C3092 C3094 1.391 . S
C3093 C3092 1.386 . S
C3093 C3097 1.393 . S
C3094 H3086 0.950 . S
C3094 C3092 1.391 . S
C3094 C3095 1.400 . S
C3095 C3094 1.400 . S
C3095 C3096 1.398 . S
C3095 C3101 1.491 . S
C3096 H3087 0.950 . S
C3096 C3095 1.398 . S
C3096 C3097 1.391 . S
C3097 H3085 0.950 . S
C3097 C3093 1.393 . S
C3097 C3096 1.391 . S
C3098 H3088 0.950 . S
C3098 C3099 1.386 . S
C3098 C3100 1.391 . S
C3099 C3098 1.386 . S
C3099 C3103 1.393 . S
C3100 H3089 0.950 . S
C3100 C3098 1.391 . S
C3100 C3101 1.400 . S
C3101 C3095 1.491 . S
C3101 C3100 1.400 . S
C3101 C3102 1.398 . S
C3102 H3090 0.950 . S
C3102 C3101 1.398 . S
C3102 C3103 1.391 . S
C3103 H3091 0.950 . S
C3103 C3099 1.393 . S
C3103 C3102 1.391 . S
H3104 C3112 0.950 . S
H3105 C3117 0.950 . S
H3106 C3114 0.950 . S
H3107 C3116 0.950 . S
H3108 C3118 0.950 . S
H3109 C3120 0.950 . S
H3110 C3122 0.950 . S
H3111 C3123 0.950 . S
C3112 H3104 0.950 . S
C3112 C3113 1.386 . S
C3112 C3114 1.391 . S
C3113 C3112 1.386 . S
C3113 C3117 1.393 . S
C3114 H3106 0.950 . S
C3114 C3112 1.391 . S
C3114 C3115 1.400 . S
C3115 C3114 1.400 . S
C3115 C3116 1.398 . S
C3115 C3121 1.491 . S
C3116 H3107 0.950 . S
C3116 C3115 1.398 . S
C3116 C3117 1.391 . S
C3117 H3105 0.950 . S
C3117 C3113 1.393 . S
C3117 C3116 1.391 . S
C3118 H3108 0.950 . S
C3118 C3119 1.386 . S
C3118 C3120 1.391 . S
C3119 C3118 1.386 . S
C3119 C3123 1.393 . S
C3120 H3109 0.950 . S
C3120 C3118 1.391 . S
C3120 C3121 1.400 . S
C3121 C3115 1.491 . S
C3121 C3120 1.400 . S
C3121 C3122 1.398 . S
C3122 H3110 0.950 . S
C3122 C3121 1.398 . S
C3122 C3123 1.391 . S
C3123 H3111 0.950 . S
C3123 C3119 1.393 . S
C3123 C3122 1.391 . S
H3124 C3132 0.950 . S
H3125 C3137 0.950 . S
H3126 C3134 0.950 . S
H3127 C3136 0.950 . S
H3128 C3138 0.950 . S
H3129 C3140 0.950 . S
H3130 C3142 0.950 . S
H3131 C3143 0.950 . S
C3132 H3124 0.950 . S
C3132 C3133 1.386 . S
C3132 C3134 1.391 . S
C3133 C3132 1.386 . S
C3133 C3137 1.393 . S
C3134 H3126 0.950 . S
C3134 C3132 1.391 . S
C3134 C3135 1.400 . S
C3135 C3134 1.400 . S
C3135 C3136 1.398 . S
C3135 C3141 1.491 . S
C3136 H3127 0.950 . S
C3136 C3135 1.398 . S
C3136 C3137 1.391 . S
C3137 H3125 0.950 . S
C3137 C3133 1.393 . S
C3137 C3136 1.391 . S
C3138 H3128 0.950 . S
C3138 C3139 1.386 . S
C3138 C3140 1.391 . S
C3139 C3138 1.386 . S
C3139 C3143 1.393 . S
C3140 H3129 0.950 . S
C3140 C3138 1.391 . S
C3140 C3141 1.400 . S
C3141 C3135 1.491 . S
C3141 C3140 1.400 . S
C3141 C3142 1.398 . S
C3142 H3130 0.950 . S
C3142 C3141 1.398 . S
C3142 C3143 1.391 . S
C3143 H3131 0.950 . S
C3143 C3139 1.393 . S
C3143 C3142 1.391 . S
H3144 C3152 0.950 . S
H3145 C3157 0.950 . S
H3146 C3154 0.950 . S
H3147 C3156 0.950 . S
H3148 C3158 0.950 . S
H3149 C3160 0.950 . S
H3150 C3162 0.950 . S
H3151 C3163 0.950 . S
C3152 H3144 0.950 . S
C3152 C3153 1.386 . S
C3152 C3154 1.391 . S
C3153 C3152 1.386 . S
C3153 C3157 1.393 . S
C3154 H3146 0.950 . S
C3154 C3152 1.391 . S
C3154 C3155 1.400 . S
C3155 C3154 1.400 . S
C3155 C3156 1.398 . S
C3155 C3161 1.491 . S
C3156 H3147 0.950 . S
C3156 C3155 1.398 . S
C3156 C3157 1.391 . S
C3157 H3145 0.950 . S
C3157 C3153 1.393 . S
C3157 C3156 1.391 . S
C3158 H3148 0.950 . S
C3158 C3159 1.386 . S
C3158 C3160 1.391 . S
C3159 C3158 1.386 . S
C3159 C3163 1.393 1_554 S
C3160 H3149 0.950 . S
C3160 C3158 1.391 . S
C3160 C3161 1.400 . S
C3161 C3155 1.491 . S
C3161 C3160 1.400 . S
C3161 C3162 1.398 . S
C3162 H3150 0.950 . S
C3162 C3161 1.398 . S
C3162 C3163 1.391 1_554 S
C3163 H3151 0.950 . S
C3163 C3159 1.393 1_556 S
C3163 C3162 1.391 1_556 S
H3164 C3172 0.950 . S
H3165 C3177 0.950 . S
H3166 C3174 0.950 . S
H3167 C3176 0.950 . S
H3168 C3178 0.950 . S
H3169 C3180 0.950 . S
H3170 C3182 0.950 . S
H3171 C3183 0.950 . S
C3172 H3164 0.950 . S
C3172 C3173 1.386 . S
C3172 C3174 1.391 . S
C3173 C3172 1.386 . S
C3173 C3177 1.393 . S
C3174 H3166 0.950 . S
C3174 C3172 1.391 . S
C3174 C3175 1.400 . S
C3175 C3174 1.400 . S
C3175 C3176 1.398 . S
C3175 C3181 1.491 . S
C3176 H3167 0.950 . S
C3176 C3175 1.398 . S
C3176 C3177 1.391 . S
C3177 H3165 0.950 . S
C3177 C3173 1.393 . S
C3177 C3176 1.391 . S
C3178 H3168 0.950 . S
C3178 C3179 1.386 . S
C3178 C3180 1.391 . S
C3179 C3178 1.386 . S
C3179 C3183 1.393 . S
C3180 H3169 0.950 . S
C3180 C3178 1.391 . S
C3180 C3181 1.400 . S
C3181 C3175 1.491 . S
C3181 C3180 1.400 . S
C3181 C3182 1.398 . S
C3182 H3170 0.950 . S
C3182 C3181 1.398 . S
C3182 C3183 1.391 . S
C3183 H3171 0.950 . S
C3183 C3179 1.393 . S
C3183 C3182 1.391 . S
H3184 C3192 0.950 . S
H3185 C3197 0.950 . S
H3186 C3194 0.950 . S
H3187 C3196 0.950 . S
H3188 C3198 0.950 . S
H3189 C3200 0.950 . S
H3190 C3202 0.950 . S
H3191 C3203 0.950 . S
C3192 H3184 0.950 . S
C3192 C3193 1.386 . S
C3192 C3194 1.391 . S
C3193 C3192 1.386 . S
C3193 C3197 1.393 . S
C3194 H3186 0.950 . S
C3194 C3192 1.391 . S
C3194 C3195 1.400 . S
C3195 C3194 1.400 . S
C3195 C3196 1.398 . S
C3195 C3201 1.491 . S
C3196 H3187 0.950 . S
C3196 C3195 1.398 . S
C3196 C3197 1.391 . S
C3197 H3185 0.950 . S
C3197 C3193 1.393 . S
C3197 C3196 1.391 . S
C3198 H3188 0.950 . S
C3198 C3199 1.386 . S
C3198 C3200 1.391 . S
C3199 C3198 1.386 . S
C3199 C3203 1.393 . S
C3200 H3189 0.950 . S
C3200 C3198 1.391 . S
C3200 C3201 1.400 . S
C3201 C3195 1.491 . S
C3201 C3200 1.400 . S
C3201 C3202 1.398 . S
C3202 H3190 0.950 . S
C3202 C3201 1.398 . S
C3202 C3203 1.391 . S
C3203 H3191 0.950 . S
C3203 C3199 1.393 . S
C3203 C3202 1.391 . S
H3204 C3212 0.950 . S
H3205 C3217 0.950 . S
H3206 C3214 0.950 . S
H3207 C3216 0.950 . S
H3208 C3218 0.950 . S
H3209 C3220 0.950 . S
H3210 C3222 0.950 . S
H3211 C3223 0.950 . S
C3212 H3204 0.950 . S
C3212 C3213 1.386 . S
C3212 C3214 1.391 . S
C3213 C3212 1.386 . S
C3213 C3217 1.393 . S
C3214 H3206 0.950 . S
C3214 C3212 1.391 . S
C3214 C3215 1.400 . S
C3215 C3214 1.400 . S
C3215 C3216 1.398 . S
C3215 C3221 1.491 . S
C3216 H3207 0.950 . S
C3216 C3215 1.398 . S
C3216 C3217 1.391 . S
C3217 H3205 0.950 . S
C3217 C3213 1.393 . S
C3217 C3216 1.391 . S
C3218 H3208 0.950 . S
C3218 C3219 1.386 . S
C3218 C3220 1.391 . S
C3219 C3218 1.386 . S
C3219 C3223 1.393 . S
C3220 H3209 0.950 . S
C3220 C3218 1.391 . S
C3220 C3221 1.400 . S
C3221 C3215 1.491 . S
C3221 C3220 1.400 . S
C3221 C3222 1.398 . S
C3222 H3210 0.950 . S
C3222 C3221 1.398 . S
C3222 C3223 1.391 . S
C3223 H3211 0.950 . S
C3223 C3219 1.393 . S
C3223 C3222 1.391 . S
H3224 C3232 0.950 . S
H3225 C3237 0.950 . S
H3226 C3234 0.950 . S
H3227 C3236 0.950 . S
H3228 C3238 0.950 . S
H3229 C3240 0.950 . S
H3230 C3242 0.950 . S
H3231 C3243 0.950 . S
C3232 H3224 0.950 . S
C3232 C3233 1.386 . S
C3232 C3234 1.391 . S
C3233 C3232 1.386 . S
C3233 C3237 1.393 . S
C3234 H3226 0.950 . S
C3234 C3232 1.391 . S
C3234 C3235 1.400 . S
C3235 C3234 1.400 . S
C3235 C3236 1.398 . S
C3235 C3241 1.491 . S
C3236 H3227 0.950 . S
C3236 C3235 1.398 . S
C3236 C3237 1.391 . S
C3237 H3225 0.950 . S
C3237 C3233 1.393 . S
C3237 C3236 1.391 . S
C3238 H3228 0.950 . S
C3238 C3239 1.386 . S
C3238 C3240 1.391 . S
C3239 C3238 1.386 . S
C3239 C3243 1.393 . S
C3240 H3229 0.950 . S
C3240 C3238 1.391 . S
C3240 C3241 1.400 . S
C3241 C3235 1.491 . S
C3241 C3240 1.400 . S
C3241 C3242 1.398 . S
C3242 H3230 0.950 . S
C3242 C3241 1.398 . S
C3242 C3243 1.391 . S
C3243 H3231 0.950 . S
C3243 C3239 1.393 . S
C3243 C3242 1.391 . S
H3244 C3252 0.950 . S
H3245 C3257 0.950 . S
H3246 C3254 0.950 . S
H3247 C3256 0.950 . S
H3248 C3258 0.950 . S
H3249 C3260 0.950 . S
H3250 C3262 0.950 . S
H3251 C3263 0.950 . S
C3252 H3244 0.950 . S
C3252 C3253 1.386 . S
C3252 C3254 1.391 . S
C3253 C3252 1.386 . S
C3253 C3257 1.393 . S
C3254 H3246 0.950 . S
C3254 C3252 1.391 . S
C3254 C3255 1.400 . S
C3255 C3254 1.400 . S
C3255 C3256 1.398 . S
C3255 C3261 1.491 . S
C3256 H3247 0.950 . S
C3256 C3255 1.398 . S
C3256 C3257 1.391 . S
C3257 H3245 0.950 . S
C3257 C3253 1.393 . S
C3257 C3256 1.391 . S
C3258 H3248 0.950 . S
C3258 C3259 1.386 . S
C3258 C3260 1.391 . S
C3259 C3258 1.386 . S
C3259 C3263 1.393 . S
C3260 H3249 0.950 . S
C3260 C3258 1.391 . S
C3260 C3261 1.400 . S
C3261 C3255 1.491 . S
C3261 C3260 1.400 . S
C3261 C3262 1.398 . S
C3262 H3250 0.950 . S
C3262 C3261 1.398 . S
C3262 C3263 1.391 . S
C3263 H3251 0.950 . S
C3263 C3259 1.393 . S
C3263 C3262 1.391 . S
H3264 C3272 0.950 . S
H3265 C3277 0.950 . S
H3266 C3274 0.950 . S
H3267 C3276 0.950 . S
H3268 C3278 0.950 . S
H3269 C3280 0.950 . S
H3270 C3282 0.950 . S
H3271 C3283 0.950 . S
C3272 H3264 0.950 . S
C3272 C3273 1.386 . S
C3272 C3274 1.391 . S
C3273 C3272 1.386 . S
C3273 C3277 1.393 . S
C3274 H3266 0.950 . S
C3274 C3272 1.391 . S
C3274 C3275 1.400 . S
C3275 C3274 1.400 . S
C3275 C3276 1.398 . S
C3275 C3281 1.491 . S
C3276 H3267 0.950 . S
C3276 C3275 1.398 . S
C3276 C3277 1.391 . S
C3277 H3265 0.950 . S
C3277 C3273 1.393 . S
C3277 C3276 1.391 . S
C3278 H3268 0.950 . S
C3278 C3279 1.386 . S
C3278 C3280 1.391 . S
C3279 C3278 1.386 . S
C3279 C3283 1.393 . S
C3280 H3269 0.950 . S
C3280 C3278 1.391 . S
C3280 C3281 1.400 . S
C3281 C3275 1.491 . S
C3281 C3280 1.400 . S
C3281 C3282 1.398 . S
C3282 H3270 0.950 . S
C3282 C3281 1.398 . S
C3282 C3283 1.391 . S
C3283 H3271 0.950 . S
C3283 C3279 1.393 . S
C3283 C3282 1.391 . S
H3284 C3292 0.950 . S
H3285 C3297 0.950 . S
H3286 C3294 0.950 . S
H3287 C3296 0.950 . S
H3288 C3298 0.950 . S
H3289 C3300 0.950 . S
H3290 C3302 0.950 . S
H3291 C3303 0.950 . S
C3292 H3284 0.950 . S
C3292 C3293 1.386 . S
C3292 C3294 1.391 . S
C3293 C3292 1.386 . S
C3293 C3297 1.393 . S
C3294 H3286 0.950 . S
C3294 C3292 1.391 . S
C3294 C3295 1.400 . S
C3295 C3294 1.400 . S
C3295 C3296 1.398 . S
C3295 C3301 1.491 . S
C3296 H3287 0.950 . S
C3296 C3295 1.398 . S
C3296 C3297 1.391 . S
C3297 H3285 0.950 . S
C3297 C3293 1.393 . S
C3297 C3296 1.391 . S
C3298 H3288 0.950 . S
C3298 C3299 1.386 . S
C3298 C3300 1.391 . S
C3299 C3298 1.386 . S
C3299 C3303 1.393 . S
C3300 H3289 0.950 . S
C3300 C3298 1.391 . S
C3300 C3301 1.400 . S
C3301 C3295 1.491 . S
C3301 C3300 1.400 . S
C3301 C3302 1.398 . S
C3302 H3290 0.950 . S
C3302 C3301 1.398 . S
C3302 C3303 1.391 . S
C3303 H3291 0.950 . S
C3303 C3299 1.393 . S
C3303 C3302 1.391 . S
H3304 C3312 0.950 . S
H3305 C3317 0.950 . S
H3306 C3314 0.950 . S
H3307 C3316 0.950 . S
H3308 C3318 0.950 . S
H3309 C3320 0.950 . S
H3310 C3322 0.950 . S
H3311 C3323 0.950 . S
C3312 H3304 0.950 . S
C3312 C3313 1.386 . S
C3312 C3314 1.391 . S
C3313 C3312 1.386 . S
C3313 C3317 1.393 . S
C3314 H3306 0.950 . S
C3314 C3312 1.391 . S
C3314 C3315 1.400 . S
C3315 C3314 1.400 . S
C3315 C3316 1.398 . S
C3315 C3321 1.491 . S
C3316 H3307 0.950 . S
C3316 C3315 1.398 . S
C3316 C3317 1.391 . S
C3317 H3305 0.950 . S
C3317 C3313 1.393 . S
C3317 C3316 1.391 . S
C3318 H3308 0.950 . S
C3318 C3319 1.386 . S
C3318 C3320 1.391 . S
C3319 C3318 1.386 . S
C3319 C3323 1.393 . S
C3320 H3309 0.950 . S
C3320 C3318 1.391 . S
C3320 C3321 1.400 . S
C3321 C3315 1.491 . S
C3321 C3320 1.400 . S
C3321 C3322 1.398 . S
C3322 H3310 0.950 . S
C3322 C3321 1.398 . S
C3322 C3323 1.391 . S
C3323 H3311 0.950 . S
C3323 C3319 1.393 . S
C3323 C3322 1.391 . S
H3324 C3332 0.950 . S
H3325 C3337 0.950 . S
H3326 C3334 0.950 . S
H3327 C3336 0.950 . S
H3328 C3338 0.950 . S
H3329 C3340 0.950 . S
H3330 C3342 0.950 . S
H3331 C3343 0.950 . S
C3332 H3324 0.950 . S
C3332 C3333 1.386 . S
C3332 C3334 1.391 . S
C3333 C3332 1.386 . S
C3333 C3337 1.393 . S
C3334 H3326 0.950 . S
C3334 C3332 1.391 . S
C3334 C3335 1.400 . S
C3335 C3334 1.400 . S
C3335 C3336 1.398 . S
C3335 C3341 1.491 . S
C3336 H3327 0.950 . S
C3336 C3335 1.398 . S
C3336 C3337 1.391 . S
C3337 H3325 0.950 . S
C3337 C3333 1.393 . S
C3337 C3336 1.391 . S
C3338 H3328 0.950 . S
C3338 C3339 1.386 . S
C3338 C3340 1.391 . S
C3339 C3338 1.386 . S
C3339 C3343 1.393 . S
C3340 H3329 0.950 . S
C3340 C3338 1.391 . S
C3340 C3341 1.400 . S
C3341 C3335 1.491 . S
C3341 C3340 1.400 . S
C3341 C3342 1.398 . S
C3342 H3330 0.950 . S
C3342 C3341 1.398 . S
C3342 C3343 1.391 . S
C3343 H3331 0.950 . S
C3343 C3339 1.393 . S
C3343 C3342 1.391 . S
H3344 C3352 0.950 . S
H3345 C3357 0.950 . S
H3346 C3354 0.950 . S
H3347 C3356 0.950 . S
H3348 C3358 0.950 . S
H3349 C3360 0.950 . S
H3350 C3362 0.950 . S
H3351 C3363 0.950 . S
C3352 H3344 0.950 . S
C3352 C3353 1.386 . S
C3352 C3354 1.391 . S
C3353 C3352 1.386 . S
C3353 C3357 1.393 . S
C3354 H3346 0.950 . S
C3354 C3352 1.391 . S
C3354 C3355 1.400 . S
C3355 C3354 1.400 . S
C3355 C3356 1.398 . S
C3355 C3361 1.491 . S
C3356 H3347 0.950 . S
C3356 C3355 1.398 . S
C3356 C3357 1.391 . S
C3357 H3345 0.950 . S
C3357 C3353 1.393 . S
C3357 C3356 1.391 . S
C3358 H3348 0.950 . S
C3358 C3359 1.386 . S
C3358 C3360 1.391 . S
C3359 C3358 1.386 . S
C3359 C3363 1.393 . S
C3360 H3349 0.950 . S
C3360 C3358 1.391 . S
C3360 C3361 1.400 . S
C3361 C3355 1.491 . S
C3361 C3360 1.400 . S
C3361 C3362 1.398 . S
C3362 H3350 0.950 . S
C3362 C3361 1.398 . S
C3362 C3363 1.391 . S
C3363 H3351 0.950 . S
C3363 C3359 1.393 . S
C3363 C3362 1.391 . S
H3364 C3372 0.950 . S
H3365 C3377 0.950 . S
H3366 C3374 0.950 . S
H3367 C3376 0.950 . S
H3368 C3378 0.950 . S
H3369 C3380 0.950 . S
H3370 C3382 0.950 . S
H3371 C3383 0.950 . S
C3372 H3364 0.950 . S
C3372 C3373 1.386 . S
C3372 C3374 1.391 . S
C3373 C3372 1.386 . S
C3373 C3377 1.393 . S
C3374 H3366 0.950 . S
C3374 C3372 1.391 . S
C3374 C3375 1.400 . S
C3375 C3374 1.400 . S
C3375 C3376 1.398 . S
C3375 C3381 1.491 . S
C3376 H3367 0.950 . S
C3376 C3375 1.398 . S
C3376 C3377 1.391 . S
C3377 H3365 0.950 . S
C3377 C3373 1.393 . S
C3377 C3376 1.391 . S
C3378 H3368 0.950 . S
C3378 C3379 1.386 . S
C3378 C3380 1.391 . S
C3379 C3378 1.386 . S
C3379 C3383 1.393 . S
C3380 H3369 0.950 . S
C3380 C3378 1.391 . S
C3380 C3381 1.400 . S
C3381 C3375 1.491 . S
C3381 C3380 1.400 . S
C3381 C3382 1.398 . S
C3382 H3370 0.950 . S
C3382 C3381 1.398 . S
C3382 C3383 1.391 . S
C3383 H3371 0.950 . S
C3383 C3379 1.393 . S
C3383 C3382 1.391 . S
H3384 C3392 0.950 . S
H3385 C3397 0.950 . S
H3386 C3394 0.950 . S
H3387 C3396 0.950 . S
H3388 C3398 0.950 . S
H3389 C3400 0.950 . S
H3390 C3402 0.950 . S
H3391 C3403 0.950 . S
C3392 H3384 0.950 . S
C3392 C3393 1.386 . S
C3392 C3394 1.391 . S
C3393 C3392 1.386 . S
C3393 C3397 1.393 . S
C3394 H3386 0.950 . S
C3394 C3392 1.391 . S
C3394 C3395 1.400 . S
C3395 C3394 1.400 . S
C3395 C3396 1.398 . S
C3395 C3401 1.491 . S
C3396 H3387 0.950 . S
C3396 C3395 1.398 . S
C3396 C3397 1.391 . S
C3397 H3385 0.950 . S
C3397 C3393 1.393 . S
C3397 C3396 1.391 . S
C3398 H3388 0.950 . S
C3398 C3399 1.386 . S
C3398 C3400 1.391 . S
C3399 C3398 1.386 . S
C3399 C3403 1.393 . S
C3400 H3389 0.950 . S
C3400 C3398 1.391 . S
C3400 C3401 1.400 . S
C3401 C3395 1.491 . S
C3401 C3400 1.400 . S
C3401 C3402 1.398 . S
C3402 H3390 0.950 . S
C3402 C3401 1.398 . S
C3402 C3403 1.391 . S
C3403 H3391 0.950 . S
C3403 C3399 1.393 . S
C3403 C3402 1.391 . S
H3404 C3412 0.950 . S
H3405 C3417 0.950 . S
H3406 C3414 0.950 . S
H3407 C3416 0.950 . S
H3408 C3418 0.950 . S
H3409 C3420 0.950 . S
H3410 C3422 0.950 . S
H3411 C3423 0.950 . S
C3412 H3404 0.950 . S
C3412 C3413 1.386 . S
C3412 C3414 1.391 . S
C3413 C3412 1.386 . S
C3413 C3417 1.393 . S
C3414 H3406 0.950 . S
C3414 C3412 1.391 . S
C3414 C3415 1.400 . S
C3415 C3414 1.400 . S
C3415 C3416 1.398 . S
C3415 C3421 1.491 . S
C3416 H3407 0.950 . S
C3416 C3415 1.398 . S
C3416 C3417 1.391 . S
C3417 H3405 0.950 . S
C3417 C3413 1.393 . S
C3417 C3416 1.391 . S
C3418 H3408 0.950 . S
C3418 C3419 1.386 . S
C3418 C3420 1.391 . S
C3419 C3418 1.386 . S
C3419 C3423 1.393 . S
C3420 H3409 0.950 . S
C3420 C3418 1.391 . S
C3420 C3421 1.400 . S
C3421 C3415 1.491 . S
C3421 C3420 1.400 . S
C3421 C3422 1.398 . S
C3422 H3410 0.950 . S
C3422 C3421 1.398 . S
C3422 C3423 1.391 . S
C3423 H3411 0.950 . S
C3423 C3419 1.393 . S
C3423 C3422 1.391 . S
H3424 C3432 0.950 . S
H3425 C3437 0.950 . S
H3426 C3434 0.950 . S
H3427 C3436 0.950 . S
H3428 C3438 0.950 . S
H3429 C3440 0.950 . S
H3430 C3442 0.950 . S
H3431 C3443 0.950 . S
C3432 H3424 0.950 . S
C3432 C3433 1.386 . S
C3432 C3434 1.391 . S
C3433 C3432 1.386 . S
C3433 C3437 1.393 . S
C3434 H3426 0.950 . S
C3434 C3432 1.391 . S
C3434 C3435 1.400 . S
C3435 C3434 1.400 . S
C3435 C3436 1.398 . S
C3435 C3441 1.491 . S
C3436 H3427 0.950 . S
C3436 C3435 1.398 . S
C3436 C3437 1.391 . S
C3437 H3425 0.950 . S
C3437 C3433 1.393 . S
C3437 C3436 1.391 . S
C3438 H3428 0.950 . S
C3438 C3439 1.386 . S
C3438 C3440 1.391 . S
C3439 C3438 1.386 . S
C3439 C3443 1.393 . S
C3440 H3429 0.950 . S
C3440 C3438 1.391 . S
C3440 C3441 1.400 . S
C3441 C3435 1.491 . S
C3441 C3440 1.400 . S
C3441 C3442 1.398 . S
C3442 H3430 0.950 . S
C3442 C3441 1.398 . S
C3442 C3443 1.391 . S
C3443 H3431 0.950 . S
C3443 C3439 1.393 . S
C3443 C3442 1.391 . S
H3444 C3452 0.950 . S
H3445 C3457 0.950 . S
H3446 C3454 0.950 . S
H3447 C3456 0.950 . S
H3448 C3458 0.950 . S
H3449 C3460 0.950 . S
H3450 C3462 0.950 . S
H3451 C3463 0.950 . S
C3452 H3444 0.950 . S
C3452 C3453 1.386 . S
C3452 C3454 1.391 . S
C3453 C3452 1.386 . S
C3453 C3457 1.393 . S
C3454 H3446 0.950 . S
C3454 C3452 1.391 . S
C3454 C3455 1.400 . S
C3455 C3454 1.400 . S
C3455 C3456 1.398 . S
C3455 C3461 1.491 . S
C3456 H3447 0.950 . S
C3456 C3455 1.398 . S
C3456 C3457 1.391 . S
C3457 H3445 0.950 . S
C3457 C3453 1.393 . S
C3457 C3456 1.391 . S
C3458 H3448 0.950 . S
C3458 C3459 1.386 . S
C3458 C3460 1.391 . S
C3459 C3458 1.386 . S
C3459 C3463 1.393 . S
C3460 H3449 0.950 . S
C3460 C3458 1.391 . S
C3460 C3461 1.400 . S
C3461 C3455 1.491 . S
C3461 C3460 1.400 . S
C3461 C3462 1.398 . S
C3462 H3450 0.950 . S
C3462 C3461 1.398 . S
C3462 C3463 1.391 . S
C3463 H3451 0.950 . S
C3463 C3459 1.393 . S
C3463 C3462 1.391 . S
H3464 C3472 0.950 . S
H3465 C3477 0.950 . S
H3466 C3474 0.950 . S
H3467 C3476 0.950 . S
H3468 C3478 0.950 . S
H3469 C3480 0.950 . S
H3470 C3482 0.950 . S
H3471 C3483 0.950 . S
C3472 H3464 0.950 . S
C3472 C3473 1.386 . S
C3472 C3474 1.391 . S
C3473 C3472 1.386 . S
C3473 C3477 1.393 . S
C3474 H3466 0.950 . S
C3474 C3472 1.391 . S
C3474 C3475 1.400 . S
C3475 C3474 1.400 . S
C3475 C3476 1.398 . S
C3475 C3481 1.491 . S
C3476 H3467 0.950 . S
C3476 C3475 1.398 . S
C3476 C3477 1.391 . S
C3477 H3465 0.950 . S
C3477 C3473 1.393 . S
C3477 C3476 1.391 . S
C3478 H3468 0.950 . S
C3478 C3479 1.386 . S
C3478 C3480 1.391 . S
C3479 C3478 1.386 . S
C3479 C3483 1.393 . S
C3480 H3469 0.950 . S
C3480 C3478 1.391 . S
C3480 C3481 1.400 . S
C3481 C3475 1.491 . S
C3481 C3480 1.400 . S
C3481 C3482 1.398 . S
C3482 H3470 0.950 . S
C3482 C3481 1.398 . S
C3482 C3483 1.391 . S
C3483 H3471 0.950 . S
C3483 C3479 1.393 . S
C3483 C3482 1.391 . S
H3484 C3492 0.950 . S
H3485 C3497 0.950 . S
H3486 C3494 0.950 . S
H3487 C3496 0.950 . S
H3488 C3498 0.950 . S
H3489 C3500 0.950 . S
H3490 C3502 0.950 . S
H3491 C3503 0.950 . S
C3492 H3484 0.950 . S
C3492 C3493 1.386 . S
C3492 C3494 1.391 . S
C3493 C3492 1.386 . S
C3493 C3497 1.393 . S
C3494 H3486 0.950 . S
C3494 C3492 1.391 . S
C3494 C3495 1.400 . S
C3495 C3494 1.400 . S
C3495 C3496 1.398 . S
C3495 C3501 1.491 . S
C3496 H3487 0.950 . S
C3496 C3495 1.398 . S
C3496 C3497 1.391 . S
C3497 H3485 0.950 . S
C3497 C3493 1.393 . S
C3497 C3496 1.391 . S
C3498 H3488 0.950 . S
C3498 C3499 1.386 . S
C3498 C3500 1.391 . S
C3499 C3498 1.386 . S
C3499 C3503 1.393 . S
C3500 H3489 0.950 . S
C3500 C3498 1.391 . S
C3500 C3501 1.400 . S
C3501 C3495 1.491 . S
C3501 C3500 1.400 . S
C3501 C3502 1.398 . S
C3502 H3490 0.950 . S
C3502 C3501 1.398 . S
C3502 C3503 1.391 . S
C3503 H3491 0.950 . S
C3503 C3499 1.393 . S
C3503 C3502 1.391 . S
H3504 C3512 0.950 . S
H3505 C3517 0.950 . S
H3506 C3514 0.950 . S
H3507 C3516 0.950 . S
H3508 C3518 0.950 . S
H3509 C3520 0.950 . S
H3510 C3522 0.950 . S
H3511 C3523 0.950 . S
C3512 H3504 0.950 . S
C3512 C3513 1.386 . S
C3512 C3514 1.391 . S
C3513 C3512 1.386 . S
C3513 C3517 1.393 . S
C3514 H3506 0.950 . S
C3514 C3512 1.391 . S
C3514 C3515 1.400 . S
C3515 C3514 1.400 . S
C3515 C3516 1.398 . S
C3515 C3521 1.491 . S
C3516 H3507 0.950 . S
C3516 C3515 1.398 . S
C3516 C3517 1.391 . S
C3517 H3505 0.950 . S
C3517 C3513 1.393 . S
C3517 C3516 1.391 . S
C3518 H3508 0.950 . S
C3518 C3519 1.386 . S
C3518 C3520 1.391 . S
C3519 C3518 1.386 . S
C3519 C3523 1.393 . S
C3520 H3509 0.950 . S
C3520 C3518 1.391 . S
C3520 C3521 1.400 . S
C3521 C3515 1.491 . S
C3521 C3520 1.400 . S
C3521 C3522 1.398 . S
C3522 H3510 0.950 . S
C3522 C3521 1.398 . S
C3522 C3523 1.391 . S
C3523 H3511 0.950 . S
C3523 C3519 1.393 . S
C3523 C3522 1.391 . S
H3524 C3532 0.950 . S
H3525 C3537 0.950 . S
H3526 C3534 0.950 . S
H3527 C3536 0.950 . S
H3528 C3538 0.950 . S
H3529 C3540 0.950 . S
H3530 C3542 0.950 . S
H3531 C3543 0.950 . S
C3532 H3524 0.950 . S
C3532 C3533 1.386 . S
C3532 C3534 1.391 . S
C3533 C3532 1.386 . S
C3533 C3537 1.393 . S
C3534 H3526 0.950 . S
C3534 C3532 1.391 . S
C3534 C3535 1.400 . S
C3535 C3534 1.400 . S
C3535 C3536 1.398 . S
C3535 C3541 1.491 . S
C3536 H3527 0.950 . S
C3536 C3535 1.398 . S
C3536 C3537 1.391 . S
C3537 H3525 0.950 . S
C3537 C3533 1.393 . S
C3537 C3536 1.391 . S
C3538 H3528 0.950 . S
C3538 C3539 1.386 . S
C3538 C3540 1.391 . S
C3539 C3538 1.386 . S
C3539 C3543 1.393 . S
C3540 H3529 0.950 . S
C3540 C3538 1.391 . S
C3540 C3541 1.400 . S
C3541 C3535 1.491 . S
C3541 C3540 1.400 . S
C3541 C3542 1.398 . S
C3542 H3530 0.950 . S
C3542 C3541 1.398 . S
C3542 C3543 1.391 . S
C3543 H3531 0.950 . S
C3543 C3539 1.393 . S
C3543 C3542 1.391 . S
H3544 C3552 0.950 . S
H3545 C3557 0.950 . S
H3546 C3554 0.950 . S
H3547 C3556 0.950 . S
H3548 C3558 0.950 . S
H3549 C3560 0.950 . S
H3550 C3562 0.950 . S
H3551 C3563 0.950 . S
C3552 H3544 0.950 . S
C3552 C3553 1.386 . S
C3552 C3554 1.391 . S
C3553 C3552 1.386 . S
C3553 C3557 1.393 . S
C3554 H3546 0.950 . S
C3554 C3552 1.391 . S
C3554 C3555 1.400 . S
C3555 C3554 1.400 . S
C3555 C3556 1.398 . S
C3555 C3561 1.491 . S
C3556 H3547 0.950 . S
C3556 C3555 1.398 . S
C3556 C3557 1.391 . S
C3557 H3545 0.950 . S
C3557 C3553 1.393 . S
C3557 C3556 1.391 . S
C3558 H3548 0.950 . S
C3558 C3559 1.386 . S
C3558 C3560 1.391 . S
C3559 C3558 1.386 . S
C3559 C3563 1.393 . S
C3560 H3549 0.950 . S
C3560 C3558 1.391 . S
C3560 C3561 1.400 . S
C3561 C3555 1.491 . S
C3561 C3560 1.400 . S
C3561 C3562 1.398 . S
C3562 H3550 0.950 . S
C3562 C3561 1.398 . S
C3562 C3563 1.391 . S
C3563 H3551 0.950 . S
C3563 C3559 1.393 . S
C3563 C3562 1.391 . S
H3564 C3572 0.950 . S
H3565 C3577 0.950 . S
H3566 C3574 0.950 . S
H3567 C3576 0.950 . S
H3568 C3578 0.950 . S
H3569 C3580 0.950 . S
H3570 C3582 0.950 . S
H3571 C3583 0.950 . S
C3572 H3564 0.950 . S
C3572 C3573 1.386 . S
C3572 C3574 1.391 . S
C3573 C3572 1.386 . S
C3573 C3577 1.393 . S
C3574 H3566 0.950 . S
C3574 C3572 1.391 . S
C3574 C3575 1.400 . S
C3575 C3574 1.400 . S
C3575 C3576 1.398 . S
C3575 C3581 1.491 . S
C3576 H3567 0.950 . S
C3576 C3575 1.398 . S
C3576 C3577 1.391 . S
C3577 H3565 0.950 . S
C3577 C3573 1.393 . S
C3577 C3576 1.391 . S
C3578 H3568 0.950 . S
C3578 C3579 1.386 . S
C3578 C3580 1.391 . S
C3579 C3578 1.386 . S
C3579 C3583 1.393 . S
C3580 H3569 0.950 . S
C3580 C3578 1.391 . S
C3580 C3581 1.400 . S
C3581 C3575 1.491 . S
C3581 C3580 1.400 . S
C3581 C3582 1.398 . S
C3582 H3570 0.950 . S
C3582 C3581 1.398 . S
C3582 C3583 1.391 . S
C3583 H3571 0.950 . S
C3583 C3579 1.393 . S
C3583 C3582 1.391 . S
H3584 C3592 0.950 . S
H3585 C3597 0.950 . S
H3586 C3594 0.950 . S
H3587 C3596 0.950 . S
H3588 C3598 0.950 . S
H3589 C3600 0.950 . S
H3590 C3602 0.950 . S
H3591 C3603 0.950 . S
C3592 H3584 0.950 . S
C3592 C3593 1.386 . S
C3592 C3594 1.391 . S
C3593 C3592 1.386 . S
C3593 C3597 1.393 . S
C3594 H3586 0.950 . S
C3594 C3592 1.391 . S
C3594 C3595 1.400 . S
C3595 C3594 1.400 . S
C3595 C3596 1.398 . S
C3595 C3601 1.491 . S
C3596 H3587 0.950 . S
C3596 C3595 1.398 . S
C3596 C3597 1.391 . S
C3597 H3585 0.950 . S
C3597 C3593 1.393 . S
C3597 C3596 1.391 . S
C3598 H3588 0.950 . S
C3598 C3599 1.386 . S
C3598 C3600 1.391 . S
C3599 C3598 1.386 . S
C3599 C3603 1.393 . S
C3600 H3589 0.950 . S
C3600 C3598 1.391 . S
C3600 C3601 1.400 . S
C3601 C3595 1.491 . S
C3601 C3600 1.400 . S
C3601 C3602 1.398 . S
C3602 H3590 0.950 . S
C3602 C3601 1.398 . S
C3602 C3603 1.391 . S
C3603 H3591 0.950 . S
C3603 C3599 1.393 . S
C3603 C3602 1.391 . S
H3604 C3612 0.950 . S
H3605 C3617 0.950 . S
H3606 C3614 0.950 . S
H3607 C3616 0.950 . S
H3608 C3618 0.950 . S
H3609 C3620 0.950 . S
H3610 C3622 0.950 . S
H3611 C3623 0.950 . S
C3612 H3604 0.950 . S
C3612 C3613 1.386 . S
C3612 C3614 1.391 . S
C3613 C3612 1.386 . S
C3613 C3617 1.393 . S
C3614 H3606 0.950 . S
C3614 C3612 1.391 . S
C3614 C3615 1.400 . S
C3615 C3614 1.400 . S
C3615 C3616 1.398 . S
C3615 C3621 1.491 . S
C3616 H3607 0.950 . S
C3616 C3615 1.398 . S
C3616 C3617 1.391 . S
C3617 H3605 0.950 . S
C3617 C3613 1.393 . S
C3617 C3616 1.391 . S
C3618 H3608 0.950 . S
C3618 C3619 1.386 . S
C3618 C3620 1.391 . S
C3619 C3618 1.386 . S
C3619 C3623 1.393 . S
C3620 H3609 0.950 . S
C3620 C3618 1.391 . S
C3620 C3621 1.400 . S
C3621 C3615 1.491 . S
C3621 C3620 1.400 . S
C3621 C3622 1.398 . S
C3622 H3610 0.950 . S
C3622 C3621 1.398 . S
C3622 C3623 1.391 . S
C3623 H3611 0.950 . S
C3623 C3619 1.393 . S
C3623 C3622 1.391 . S
H3624 C3632 0.950 . S
H3625 C3637 0.950 . S
H3626 C3634 0.950 . S
H3627 C3636 0.950 . S
H3628 C3638 0.950 . S
H3629 C3640 0.950 . S
H3630 C3642 0.950 . S
H3631 C3643 0.950 . S
C3632 H3624 0.950 . S
C3632 C3633 1.386 . S
C3632 C3634 1.391 . S
C3633 C3632 1.386 . S
C3633 C3637 1.393 . S
C3634 H3626 0.950 . S
C3634 C3632 1.391 . S
C3634 C3635 1.400 . S
C3635 C3634 1.400 . S
C3635 C3636 1.398 . S
C3635 C3641 1.491 . S
C3636 H3627 0.950 . S
C3636 C3635 1.398 . S
C3636 C3637 1.391 . S
C3637 H3625 0.950 . S
C3637 C3633 1.393 . S
C3637 C3636 1.391 . S
C3638 H3628 0.950 . S
C3638 C3639 1.386 . S
C3638 C3640 1.391 . S
C3639 C3638 1.386 . S
C3639 C3643 1.393 . S
C3640 H3629 0.950 . S
C3640 C3638 1.391 . S
C3640 C3641 1.400 . S
C3641 C3635 1.491 . S
C3641 C3640 1.400 . S
C3641 C3642 1.398 . S
C3642 H3630 0.950 . S
C3642 C3641 1.398 . S
C3642 C3643 1.391 . S
C3643 H3631 0.950 . S
C3643 C3639 1.393 . S
C3643 C3642 1.391 . S
H3644 C3652 0.950 . S
H3645 C3657 0.950 . S
H3646 C3654 0.950 . S
H3647 C3656 0.950 . S
H3648 C3658 0.950 . S
H3649 C3660 0.950 . S
H3650 C3662 0.950 . S
H3651 C3663 0.950 . S
C3652 H3644 0.950 . S
C3652 C3653 1.386 . S
C3652 C3654 1.391 . S
C3653 C3652 1.386 . S
C3653 C3657 1.393 . S
C3654 H3646 0.950 . S
C3654 C3652 1.391 . S
C3654 C3655 1.400 . S
C3655 C3654 1.400 . S
C3655 C3656 1.398 . S
C3655 C3661 1.491 . S
C3656 H3647 0.950 . S
C3656 C3655 1.398 . S
C3656 C3657 1.391 . S
C3657 H3645 0.950 . S
C3657 C3653 1.393 . S
C3657 C3656 1.391 . S
C3658 H3648 0.950 . S
C3658 C3659 1.386 . S
C3658 C3660 1.391 . S
C3659 C3658 1.386 . S
C3659 C3663 1.393 . S
C3660 H3649 0.950 . S
C3660 C3658 1.391 . S
C3660 C3661 1.400 . S
C3661 C3655 1.491 . S
C3661 C3660 1.400 . S
C3661 C3662 1.398 . S
C3662 H3650 0.950 . S
C3662 C3661 1.398 . S
C3662 C3663 1.391 . S
C3663 H3651 0.950 . S
C3663 C3659 1.393 . S
C3663 C3662 1.391 . S
H3664 C3672 0.950 . S
H3665 C3677 0.950 . S
H3666 C3674 0.950 . S
H3667 C3676 0.950 . S
H3668 C3678 0.950 . S
H3669 C3680 0.950 . S
H3670 C3682 0.950 . S
H3671 C3683 0.950 . S
C3672 H3664 0.950 . S
C3672 C3673 1.386 . S
C3672 C3674 1.391 . S
C3673 C3672 1.386 . S
C3673 C3677 1.393 . S
C3674 H3666 0.950 . S
C3674 C3672 1.391 . S
C3674 C3675 1.400 . S
C3675 C3674 1.400 . S
C3675 C3676 1.398 . S
C3675 C3681 1.491 . S
C3676 H3667 0.950 . S
C3676 C3675 1.398 . S
C3676 C3677 1.391 . S
C3677 H3665 0.950 . S
C3677 C3673 1.393 . S
C3677 C3676 1.391 . S
C3678 H3668 0.950 . S
C3678 C3679 1.386 . S
C3678 C3680 1.391 . S
C3679 C3678 1.386 . S
C3679 C3683 1.393 . S
C3680 H3669 0.950 . S
C3680 C3678 1.391 . S
C3680 C3681 1.400 . S
C3681 C3675 1.491 . S
C3681 C3680 1.400 . S
C3681 C3682 1.398 . S
C3682 H3670 0.950 . S
C3682 C3681 1.398 . S
C3682 C3683 1.391 . S
C3683 H3671 0.950 . S
C3683 C3679 1.393 . S
C3683 C3682 1.391 . S
H3684 C3692 0.950 . S
H3685 C3697 0.950 . S
H3686 C3694 0.950 . S
H3687 C3696 0.950 . S
H3688 C3698 0.950 . S
H3689 C3700 0.950 . S
H3690 C3702 0.950 . S
H3691 C3703 0.950 . S
C3692 H3684 0.950 . S
C3692 C3693 1.386 . S
C3692 C3694 1.391 . S
C3693 C3692 1.386 . S
C3693 C3697 1.393 . S
C3694 H3686 0.950 . S
C3694 C3692 1.391 . S
C3694 C3695 1.400 . S
C3695 C3694 1.400 . S
C3695 C3696 1.398 . S
C3695 C3701 1.491 . S
C3696 H3687 0.950 . S
C3696 C3695 1.398 . S
C3696 C3697 1.391 . S
C3697 H3685 0.950 . S
C3697 C3693 1.393 . S
C3697 C3696 1.391 . S
C3698 H3688 0.950 . S
C3698 C3699 1.386 . S
C3698 C3700 1.391 . S
C3699 C3698 1.386 . S
C3699 C3703 1.393 . S
C3700 H3689 0.950 . S
C3700 C3698 1.391 . S
C3700 C3701 1.400 . S
C3701 C3695 1.491 . S
C3701 C3700 1.400 . S
C3701 C3702 1.398 . S
C3702 H3690 0.950 . S
C3702 C3701 1.398 . S
C3702 C3703 1.391 . S
C3703 H3691 0.950 . S
C3703 C3699 1.393 . S
C3703 C3702 1.391 . S
H3704 C3712 0.950 . S
H3705 C3717 0.950 . S
H3706 C3714 0.950 . S
H3707 C3716 0.950 . S
H3708 C3718 0.950 . S
H3709 C3720 0.950 . S
H3710 C3722 0.950 . S
H3711 C3723 0.950 . S
C3712 H3704 0.950 . S
C3712 C3713 1.386 . S
C3712 C3714 1.391 . S
C3713 C3712 1.386 . S
C3713 C3717 1.393 . S
C3714 H3706 0.950 . S
C3714 C3712 1.391 . S
C3714 C3715 1.400 . S
C3715 C3714 1.400 . S
C3715 C3716 1.398 . S
C3715 C3721 1.491 . S
C3716 H3707 0.950 . S
C3716 C3715 1.398 . S
C3716 C3717 1.391 . S
C3717 H3705 0.950 . S
C3717 C3713 1.393 . S
C3717 C3716 1.391 . S
C3718 H3708 0.950 . S
C3718 C3719 1.386 . S
C3718 C3720 1.391 . S
C3719 C3718 1.386 . S
C3719 C3723 1.393 . S
C3720 H3709 0.950 . S
C3720 C3718 1.391 . S
C3720 C3721 1.400 . S
C3721 C3715 1.491 . S
C3721 C3720 1.400 . S
C3721 C3722 1.398 . S
C3722 H3710 0.950 . S
C3722 C3721 1.398 . S
C3722 C3723 1.391 . S
C3723 H3711 0.950 . S
C3723 C3719 1.393 . S
C3723 C3722 1.391 . S
H3724 C3732 0.950 . S
H3725 C3737 0.950 . S
H3726 C3734 0.950 . S
H3727 C3736 0.950 . S
H3728 C3738 0.950 . S
H3729 C3740 0.950 . S
H3730 C3742 0.950 . S
H3731 C3743 0.950 . S
C3732 H3724 0.950 . S
C3732 C3733 1.386 . S
C3732 C3734 1.391 . S
C3733 C3732 1.386 . S
C3733 C3737 1.393 . S
C3734 H3726 0.950 . S
C3734 C3732 1.391 . S
C3734 C3735 1.400 . S
C3735 C3734 1.400 . S
C3735 C3736 1.398 . S
C3735 C3741 1.491 . S
C3736 H3727 0.950 . S
C3736 C3735 1.398 . S
C3736 C3737 1.391 . S
C3737 H3725 0.950 . S
C3737 C3733 1.393 . S
C3737 C3736 1.391 . S
C3738 H3728 0.950 . S
C3738 C3739 1.386 . S
C3738 C3740 1.391 . S
C3739 C3738 1.386 . S
C3739 C3743 1.393 . S
C3740 H3729 0.950 . S
C3740 C3738 1.391 . S
C3740 C3741 1.400 . S
C3741 C3735 1.491 . S
C3741 C3740 1.400 . S
C3741 C3742 1.398 . S
C3742 H3730 0.950 . S
C3742 C3741 1.398 . S
C3742 C3743 1.391 . S
C3743 H3731 0.950 . S
C3743 C3739 1.393 . S
C3743 C3742 1.391 . S
H3744 C3752 0.950 . S
H3745 C3757 0.950 . S
H3746 C3754 0.950 . S
H3747 C3756 0.950 . S
H3748 C3758 0.950 . S
H3749 C3760 0.950 . S
H3750 C3762 0.950 . S
H3751 C3763 0.950 . S
C3752 H3744 0.950 . S
C3752 C3753 1.386 . S
C3752 C3754 1.391 . S
C3753 C3752 1.386 . S
C3753 C3757 1.393 . S
C3754 H3746 0.950 . S
C3754 C3752 1.391 . S
C3754 C3755 1.400 . S
C3755 C3754 1.400 . S
C3755 C3756 1.398 . S
C3755 C3761 1.491 . S
C3756 H3747 0.950 . S
C3756 C3755 1.398 . S
C3756 C3757 1.391 . S
C3757 H3745 0.950 . S
C3757 C3753 1.393 . S
C3757 C3756 1.391 . S
C3758 H3748 0.950 . S
C3758 C3759 1.386 . S
C3758 C3760 1.391 . S
C3759 C3758 1.386 . S
C3759 C3763 1.393 . S
C3760 H3749 0.950 . S
C3760 C3758 1.391 . S
C3760 C3761 1.400 . S
C3761 C3755 1.491 . S
C3761 C3760 1.400 . S
C3761 C3762 1.398 . S
C3762 H3750 0.950 . S
C3762 C3761 1.398 . S
C3762 C3763 1.391 . S
C3763 H3751 0.950 . S
C3763 C3759 1.393 . S
C3763 C3762 1.391 . S
H3764 C3772 0.950 . S
H3765 C3777 0.950 . S
H3766 C3774 0.950 . S
H3767 C3776 0.950 . S
H3768 C3778 0.950 . S
H3769 C3780 0.950 . S
H3770 C3782 0.950 . S
H3771 C3783 0.950 . S
C3772 H3764 0.950 . S
C3772 C3773 1.386 . S
C3772 C3774 1.391 . S
C3773 C3772 1.386 . S
C3773 C3777 1.393 . S
C3774 H3766 0.950 . S
C3774 C3772 1.391 . S
C3774 C3775 1.400 . S
C3775 C3774 1.400 . S
C3775 C3776 1.398 . S
C3775 C3781 1.491 . S
C3776 H3767 0.950 . S
C3776 C3775 1.398 . S
C3776 C3777 1.391 . S
C3777 H3765 0.950 . S
C3777 C3773 1.393 . S
C3777 C3776 1.391 . S
C3778 H3768 0.950 . S
C3778 C3779 1.386 . S
C3778 C3780 1.391 . S
C3779 C3778 1.386 . S
C3779 C3783 1.393 . S
C3780 H3769 0.950 . S
C3780 C3778 1.391 . S
C3780 C3781 1.400 . S
C3781 C3775 1.491 . S
C3781 C3780 1.400 . S
C3781 C3782 1.398 . S
C3782 H3770 0.950 . S
C3782 C3781 1.398 . S
C3782 C3783 1.391 . S
C3783 H3771 0.950 . S
C3783 C3779 1.393 . S
C3783 C3782 1.391 . S
H3784 C3792 0.950 . S
H3785 C3797 0.950 . S
H3786 C3794 0.950 . S
H3787 C3796 0.950 . S
H3788 C3798 0.950 . S
H3789 C3800 0.950 . S
H3790 C3802 0.950 . S
H3791 C3803 0.950 . S
C3792 H3784 0.950 . S
C3792 C3793 1.386 . S
C3792 C3794 1.391 . S
C3793 C3792 1.386 . S
C3793 C3797 1.393 . S
C3794 H3786 0.950 . S
C3794 C3792 1.391 . S
C3794 C3795 1.400 . S
C3795 C3794 1.400 . S
C3795 C3796 1.398 . S
C3795 C3801 1.491 . S
C3796 H3787 0.950 . S
C3796 C3795 1.398 . S
C3796 C3797 1.391 . S
C3797 H3785 0.950 . S
C3797 C3793 1.393 . S
C3797 C3796 1.391 . S
C3798 H3788 0.950 . S
C3798 C3799 1.386 . S
C3798 C3800 1.391 . S
C3799 C3798 1.386 . S
C3799 C3803 1.393 . S
C3800 H3789 0.950 . S
C3800 C3798 1.391 . S
C3800 C3801 1.400 . S
C3801 C3795 1.491 . S
C3801 C3800 1.400 . S
C3801 C3802 1.398 . S
C3802 H3790 0.950 . S
C3802 C3801 1.398 . S
C3802 C3803 1.391 . S
C3803 H3791 0.950 . S
C3803 C3799 1.393 . S
C3803 C3802 1.391 . S
H3804 C3812 0.950 . S
H3805 C3817 0.950 . S
H3806 C3814 0.950 . S
H3807 C3816 0.950 . S
H3808 C3818 0.950 . S
H3809 C3820 0.950 . S
H3810 C3822 0.950 . S
H3811 C3823 0.950 . S
C3812 H3804 0.950 . S
C3812 C3813 1.386 . S
C3812 C3814 1.391 . S
C3813 C3812 1.386 . S
C3813 C3817 1.393 . S
C3814 H3806 0.950 . S
C3814 C3812 1.391 . S
C3814 C3815 1.400 . S
C3815 C3814 1.400 . S
C3815 C3816 1.398 . S
C3815 C3821 1.491 . S
C3816 H3807 0.950 . S
C3816 C3815 1.398 . S
C3816 C3817 1.391 . S
C3817 H3805 0.950 . S
C3817 C3813 1.393 . S
C3817 C3816 1.391 . S
C3818 H3808 0.950 . S
C3818 C3819 1.386 . S
C3818 C3820 1.391 . S
C3819 C3818 1.386 . S
C3819 C3823 1.393 . S
C3820 H3809 0.950 . S
C3820 C3818 1.391 . S
C3820 C3821 1.400 . S
C3821 C3815 1.491 . S
C3821 C3820 1.400 . S
C3821 C3822 1.398 . S
C3822 H3810 0.950 . S
C3822 C3821 1.398 . S
C3822 C3823 1.391 . S
C3823 H3811 0.950 . S
C3823 C3819 1.393 . S
C3823 C3822 1.391 . S
H3824 C3832 0.950 . S
H3825 C3837 0.950 . S
H3826 C3834 0.950 . S
H3827 C3836 0.950 . S
H3828 C3838 0.950 . S
H3829 C3840 0.950 . S
H3830 C3842 0.950 . S
H3831 C3843 0.950 . S
C3832 H3824 0.950 . S
C3832 C3833 1.386 . S
C3832 C3834 1.391 . S
C3833 C3832 1.386 . S
C3833 C3837 1.393 . S
C3834 H3826 0.950 . S
C3834 C3832 1.391 . S
C3834 C3835 1.400 . S
C3835 C3834 1.400 . S
C3835 C3836 1.398 . S
C3835 C3841 1.491 . S
C3836 H3827 0.950 . S
C3836 C3835 1.398 . S
C3836 C3837 1.391 . S
C3837 H3825 0.950 . S
C3837 C3833 1.393 . S
C3837 C3836 1.391 . S
C3838 H3828 0.950 . S
C3838 C3839 1.386 . S
C3838 C3840 1.391 . S
C3839 C3838 1.386 . S
C3839 C3843 1.393 . S
C3840 H3829 0.950 . S
C3840 C3838 1.391 . S
C3840 C3841 1.400 . S
C3841 C3835 1.491 . S
C3841 C3840 1.400 . S
C3841 C3842 1.398 . S
C3842 H3830 0.950 . S
C3842 C3841 1.398 . S
C3842 C3843 1.391 . S
C3843 H3831 0.950 . S
C3843 C3839 1.393 . S
C3843 C3842 1.391 . S
H3844 C3852 0.950 . S
H3845 C3857 0.950 . S
H3846 C3854 0.950 . S
H3847 C3856 0.950 . S
H3848 C3858 0.950 . S
H3849 C3860 0.950 . S
H3850 C3862 0.950 . S
H3851 C3863 0.950 . S
C3852 H3844 0.950 . S
C3852 C3853 1.386 . S
C3852 C3854 1.391 . S
C3853 C3852 1.386 . S
C3853 C3857 1.393 . S
C3854 H3846 0.950 . S
C3854 C3852 1.391 . S
C3854 C3855 1.400 . S
C3855 C3854 1.400 . S
C3855 C3856 1.398 . S
C3855 C3861 1.491 . S
C3856 H3847 0.950 . S
C3856 C3855 1.398 . S
C3856 C3857 1.391 . S
C3857 H3845 0.950 . S
C3857 C3853 1.393 . S
C3857 C3856 1.391 . S
C3858 H3848 0.950 . S
C3858 C3859 1.386 . S
C3858 C3860 1.391 . S
C3859 C3858 1.386 . S
C3859 C3863 1.393 . S
C3860 H3849 0.950 . S
C3860 C3858 1.391 . S
C3860 C3861 1.400 . S
C3861 C3855 1.491 . S
C3861 C3860 1.400 . S
C3861 C3862 1.398 . S
C3862 H3850 0.950 . S
C3862 C3861 1.398 . S
C3862 C3863 1.391 . S
C3863 H3851 0.950 . S
C3863 C3859 1.393 . S
C3863 C3862 1.391 . S
H3864 C3872 0.950 . S
H3865 C3877 0.950 . S
H3866 C3874 0.950 . S
H3867 C3876 0.950 . S
H3868 C3878 0.950 . S
H3869 C3880 0.950 . S
H3870 C3882 0.950 . S
H3871 C3883 0.950 . S
C3872 H3864 0.950 . S
C3872 C3873 1.386 . S
C3872 C3874 1.391 . S
C3873 C3872 1.386 . S
C3873 C3877 1.393 . S
C3874 H3866 0.950 . S
C3874 C3872 1.391 . S
C3874 C3875 1.400 . S
C3875 C3874 1.400 . S
C3875 C3876 1.398 . S
C3875 C3881 1.491 . S
C3876 H3867 0.950 . S
C3876 C3875 1.398 . S
C3876 C3877 1.391 . S
C3877 H3865 0.950 . S
C3877 C3873 1.393 . S
C3877 C3876 1.391 . S
C3878 H3868 0.950 . S
C3878 C3879 1.386 . S
C3878 C3880 1.391 . S
C3879 C3878 1.386 . S
C3879 C3883 1.393 . S
C3880 H3869 0.950 . S
C3880 C3878 1.391 . S
C3880 C3881 1.400 . S
C3881 C3875 1.491 . S
C3881 C3880 1.400 . S
C3881 C3882 1.398 . S
C3882 H3870 0.950 . S
C3882 C3881 1.398 . S
C3882 C3883 1.391 . S
C3883 H3871 0.950 . S
C3883 C3879 1.393 . S
C3883 C3882 1.391 . S
H3884 C3892 0.950 . S
H3885 C3897 0.950 . S
H3886 C3894 0.950 . S
H3887 C3896 0.950 . S
H3888 C3898 0.950 . S
H3889 C3900 0.950 . S
H3890 C3902 0.950 . S
H3891 C3903 0.950 . S
C3892 H3884 0.950 . S
C3892 C3893 1.386 . S
C3892 C3894 1.391 . S
C3893 C3892 1.386 . S
C3893 C3897 1.393 . S
C3894 H3886 0.950 . S
C3894 C3892 1.391 . S
C3894 C3895 1.400 . S
C3895 C3894 1.400 . S
C3895 C3896 1.398 . S
C3895 C3901 1.491 . S
C3896 H3887 0.950 . S
C3896 C3895 1.398 . S
C3896 C3897 1.391 . S
C3897 H3885 0.950 . S
C3897 C3893 1.393 . S
C3897 C3896 1.391 . S
C3898 H3888 0.950 . S
C3898 C3899 1.386 . S
C3898 C3900 1.391 . S
C3899 C3898 1.386 . S
C3899 C3903 1.393 . S
C3900 H3889 0.950 . S
C3900 C3898 1.391 . S
C3900 C3901 1.400 . S
C3901 C3895 1.491 . S
C3901 C3900 1.400 . S
C3901 C3902 1.398 . S
C3902 H3890 0.950 . S
C3902 C3901 1.398 . S
C3902 C3903 1.391 . S
C3903 H3891 0.950 . S
C3903 C3899 1.393 . S
C3903 C3902 1.391 . S
H3904 C3912 0.950 . S
H3905 C3917 0.950 . S
H3906 C3914 0.950 . S
H3907 C3916 0.950 . S
H3908 C3918 0.950 . S
H3909 C3920 0.950 . S
H3910 C3922 0.950 . S
H3911 C3923 0.950 . S
C3912 H3904 0.950 . S
C3912 C3913 1.386 . S
C3912 C3914 1.391 . S
C3913 C3912 1.386 . S
C3913 C3917 1.393 . S
C3914 H3906 0.950 . S
C3914 C3912 1.391 . S
C3914 C3915 1.400 . S
C3915 C3914 1.400 . S
C3915 C3916 1.398 . S
C3915 C3921 1.491 . S
C3916 H3907 0.950 . S
C3916 C3915 1.398 . S
C3916 C3917 1.391 . S
C3917 H3905 0.950 . S
C3917 C3913 1.393 . S
C3917 C3916 1.391 . S
C3918 H3908 0.950 . S
C3918 C3919 1.386 . S
C3918 C3920 1.391 . S
C3919 C3918 1.386 . S
C3919 C3923 1.393 . S
C3920 H3909 0.950 . S
C3920 C3918 1.391 . S
C3920 C3921 1.400 . S
C3921 C3915 1.491 . S
C3921 C3920 1.400 . S
C3921 C3922 1.398 . S
C3922 H3910 0.950 . S
C3922 C3921 1.398 . S
C3922 C3923 1.391 . S
C3923 H3911 0.950 . S
C3923 C3919 1.393 . S
C3923 C3922 1.391 . S
H3924 C3932 0.950 . S
H3925 C3937 0.950 . S
H3926 C3934 0.950 . S
H3927 C3936 0.950 . S
H3928 C3938 0.950 . S
H3929 C3940 0.950 . S
H3930 C3942 0.950 . S
H3931 C3943 0.950 . S
C3932 H3924 0.950 . S
C3932 C3933 1.386 . S
C3932 C3934 1.391 . S
C3933 C3932 1.386 . S
C3933 C3937 1.393 . S
C3934 H3926 0.950 . S
C3934 C3932 1.391 . S
C3934 C3935 1.400 . S
C3935 C3934 1.400 . S
C3935 C3936 1.398 . S
C3935 C3941 1.491 . S
C3936 H3927 0.950 . S
C3936 C3935 1.398 . S
C3936 C3937 1.391 . S
C3937 H3925 0.950 . S
C3937 C3933 1.393 . S
C3937 C3936 1.391 . S
C3938 H3928 0.950 . S
C3938 C3939 1.386 . S
C3938 C3940 1.391 . S
C3939 C3938 1.386 . S
C3939 C3943 1.393 . S
C3940 H3929 0.950 . S
C3940 C3938 1.391 . S
C3940 C3941 1.400 . S
C3941 C3935 1.491 . S
C3941 C3940 1.400 . S
C3941 C3942 1.398 . S
C3942 H3930 0.950 . S
C3942 C3941 1.398 . S
C3942 C3943 1.391 . S
C3943 H3931 0.950 . S
C3943 C3939 1.393 . S
C3943 C3942 1.391 . S
H3944 C3952 0.950 . S
H3945 C3957 0.950 . S
H3946 C3954 0.950 . S
H3947 C3956 0.950 . S
H3948 C3958 0.950 . S
H3949 C3960 0.950 . S
H3950 C3962 0.950 . S
H3951 C3963 0.950 . S
C3952 H3944 0.950 . S
C3952 C3953 1.386 . S
C3952 C3954 1.391 . S
C3953 C3952 1.386 . S
C3953 C3957 1.393 . S
C3954 H3946 0.950 . S
C3954 C3952 1.391 . S
C3954 C3955 1.400 . S
C3955 C3954 1.400 . S
C3955 C3956 1.398 . S
C3955 C3961 1.491 . S
C3956 H3947 0.950 . S
C3956 C3955 1.398 . S
C3956 C3957 1.391 . S
C3957 H3945 0.950 . S
C3957 C3953 1.393 . S
C3957 C3956 1.391 . S
C3958 H3948 0.950 . S
C3958 C3959 1.386 . S
C3958 C3960 1.391 . S
C3959 C3958 1.386 . S
C3959 C3963 1.393 . S
C3960 H3949 0.950 . S
C3960 C3958 1.391 . S
C3960 C3961 1.400 . S
C3961 C3955 1.491 . S
C3961 C3960 1.400 . S
C3961 C3962 1.398 . S
C3962 H3950 0.950 . S
C3962 C3961 1.398 . S
C3962 C3963 1.391 . S
C3963 H3951 0.950 . S
C3963 C3959 1.393 . S
C3963 C3962 1.391 . S
H3964 C3972 0.950 . S
H3965 C3977 0.950 . S
H3966 C3974 0.950 . S
H3967 C3976 0.950 . S
H3968 C3978 0.950 . S
H3969 C3980 0.950 . S
H3970 C3982 0.950 . S
H3971 C3983 0.950 . S
C3972 H3964 0.950 . S
C3972 C3973 1.386 . S
C3972 C3974 1.391 . S
C3973 C3972 1.386 . S
C3973 C3977 1.393 . S
C3974 H3966 0.950 . S
C3974 C3972 1.391 . S
C3974 C3975 1.400 . S
C3975 C3974 1.400 . S
C3975 C3976 1.398 . S
C3975 C3981 1.491 . S
C3976 H3967 0.950 . S
C3976 C3975 1.398 . S
C3976 C3977 1.391 . S
C3977 H3965 0.950 . S
C3977 C3973 1.393 . S
C3977 C3976 1.391 . S
C3978 H3968 0.950 . S
C3978 C3979 1.386 . S
C3978 C3980 1.391 . S
C3979 C3978 1.386 . S
C3979 C3983 1.393 . S
C3980 H3969 0.950 . S
C3980 C3978 1.391 . S
C3980 C3981 1.400 . S
C3981 C3975 1.491 . S
C3981 C3980 1.400 . S
C3981 C3982 1.398 . S
C3982 H3970 0.950 . S
C3982 C3981 1.398 . S
C3982 C3983 1.391 . S
C3983 H3971 0.950 . S
C3983 C3979 1.393 . S
C3983 C3982 1.391 . S
H3984 C3992 0.950 . S
H3985 C3997 0.950 . S
H3986 C3994 0.950 . S
H3987 C3996 0.950 . S
H3988 C3998 0.950 . S
H3989 C4000 0.950 . S
H3990 C4002 0.950 . S
H3991 C4003 0.950 . S
C3992 H3984 0.950 . S
C3992 C3993 1.386 . S
C3992 C3994 1.391 . S
C3993 C3992 1.386 . S
C3993 C3997 1.393 . S
C3994 H3986 0.950 . S
C3994 C3992 1.391 . S
C3994 C3995 1.400 . S
C3995 C3994 1.400 . S
C3995 C3996 1.398 . S
C3995 C4001 1.491 . S
C3996 H3987 0.950 . S
C3996 C3995 1.398 . S
C3996 C3997 1.391 . S
C3997 H3985 0.950 . S
C3997 C3993 1.393 . S
C3997 C3996 1.391 . S
C3998 H3988 0.950 . S
C3998 C3999 1.386 . S
C3998 C4000 1.391 . S
C3999 C3998 1.386 . S
C3999 C4003 1.393 . S
C4000 H3989 0.950 . S
C4000 C3998 1.391 . S
C4000 C4001 1.400 . S
C4001 C3995 1.491 . S
C4001 C4000 1.400 . S
C4001 C4002 1.398 . S
C4002 H3990 0.950 . S
C4002 C4001 1.398 . S
C4002 C4003 1.391 . S
C4003 H3991 0.950 . S
C4003 C3999 1.393 . S
C4003 C4002 1.391 . S
H4004 C4012 0.950 . S
H4005 C4017 0.950 . S
H4006 C4014 0.950 . S
H4007 C4016 0.950 . S
H4008 C4018 0.950 . S
H4009 C4020 0.950 . S
H4010 C4022 0.950 . S
H4011 C4023 0.950 . S
C4012 H4004 0.950 . S
C4012 C4013 1.386 . S
C4012 C4014 1.391 . S
C4013 C4012 1.386 . S
C4013 C4017 1.393 . S
C4014 H4006 0.950 . S
C4014 C4012 1.391 . S
C4014 C4015 1.400 . S
C4015 C4014 1.400 . S
C4015 C4016 1.398 . S
C4015 C4021 1.491 . S
C4016 H4007 0.950 . S
C4016 C4015 1.398 . S
C4016 C4017 1.391 . S
C4017 H4005 0.950 . S
C4017 C4013 1.393 . S
C4017 C4016 1.391 . S
C4018 H4008 0.950 . S
C4018 C4019 1.386 . S
C4018 C4020 1.391 . S
C4019 C4018 1.386 . S
C4019 C4023 1.393 . S
C4020 H4009 0.950 . S
C4020 C4018 1.391 . S
C4020 C4021 1.400 . S
C4021 C4015 1.491 . S
C4021 C4020 1.400 . S
C4021 C4022 1.398 . S
C4022 H4010 0.950 . S
C4022 C4021 1.398 . S
C4022 C4023 1.391 . S
C4023 H4011 0.950 . S
C4023 C4019 1.393 . S
C4023 C4022 1.391 . S
H4024 C4032 0.950 . S
H4025 C4037 0.950 . S
H4026 C4034 0.950 . S
H4027 C4036 0.950 . S
H4028 C4038 0.950 . S
H4029 C4040 0.950 . S
H4030 C4042 0.950 . S
H4031 C4043 0.950 . S
C4032 H4024 0.950 . S
C4032 C4033 1.386 . S
C4032 C4034 1.391 . S
C4033 C4032 1.386 . S
C4033 C4037 1.393 . S
C4034 H4026 0.950 . S
C4034 C4032 1.391 . S
C4034 C4035 1.400 . S
C4035 C4034 1.400 . S
C4035 C4036 1.398 . S
C4035 C4041 1.491 . S
C4036 H4027 0.950 . S
C4036 C4035 1.398 . S
C4036 C4037 1.391 . S
C4037 H4025 0.950 . S
C4037 C4033 1.393 . S
C4037 C4036 1.391 . S
C4038 H4028 0.950 . S
C4038 C4039 1.386 . S
C4038 C4040 1.391 . S
C4039 C4038 1.386 . S
C4039 C4043 1.393 . S
C4040 H4029 0.950 . S
C4040 C4038 1.391 . S
C4040 C4041 1.400 . S
C4041 C4035 1.491 . S
C4041 C4040 1.400 . S
C4041 C4042 1.398 . S
C4042 H4030 0.950 . S
C4042 C4041 1.398 . S
C4042 C4043 1.391 . S
C4043 H4031 0.950 . S
C4043 C4039 1.393 . S
C4043 C4042 1.391 . S
H4044 C4052 0.950 . S
H4045 C4057 0.950 . S
H4046 C4054 0.950 . S
H4047 C4056 0.950 . S
H4048 C4058 0.950 . S
H4049 C4060 0.950 . S
H4050 C4062 0.950 . S
H4051 C4063 0.950 . S
C4052 H4044 0.950 . S
C4052 C4053 1.386 . S
C4052 C4054 1.391 . S
C4053 C4052 1.386 . S
C4053 C4057 1.393 . S
C4054 H4046 0.950 . S
C4054 C4052 1.391 . S
C4054 C4055 1.400 . S
C4055 C4054 1.400 . S
C4055 C4056 1.398 . S
C4055 C4061 1.491 . S
C4056 H4047 0.950 . S
C4056 C4055 1.398 . S
C4056 C4057 1.391 . S
C4057 H4045 0.950 . S
C4057 C4053 1.393 . S
C4057 C4056 1.391 . S
C4058 H4048 0.950 . S
C4058 C4059 1.386 . S
C4058 C4060 1.391 . S
C4059 C4058 1.386 . S
C4059 C4063 1.393 . S
C4060 H4049 0.950 . S
C4060 C4058 1.391 . S
C4060 C4061 1.400 . S
C4061 C4055 1.491 . S
C4061 C4060 1.400 . S
C4061 C4062 1.398 . S
C4062 H4050 0.950 . S
C4062 C4061 1.398 . S
C4062 C4063 1.391 . S
C4063 H4051 0.950 . S
C4063 C4059 1.393 . S
C4063 C4062 1.391 . S
H4064 C4072 0.950 . S
H4065 C4077 0.950 . S
H4066 C4074 0.950 . S
H4067 C4076 0.950 . S
H4068 C4078 0.950 . S
H4069 C4080 0.950 . S
H4070 C4082 0.950 . S
H4071 C4083 0.950 . S
C4072 H4064 0.950 . S
C4072 C4073 1.386 . S
C4072 C4074 1.391 . S
C4073 C4072 1.386 . S
C4073 C4077 1.393 . S
C4074 H4066 0.950 . S
C4074 C4072 1.391 . S
C4074 C4075 1.400 . S
C4075 C4074 1.400 . S
C4075 C4076 1.398 . S
C4075 C4081 1.491 . S
C4076 H4067 0.950 . S
C4076 C4075 1.398 . S
C4076 C4077 1.391 . S
C4077 H4065 0.950 . S
C4077 C4073 1.393 . S
C4077 C4076 1.391 . S
C4078 H4068 0.950 . S
C4078 C4079 1.386 . S
C4078 C4080 1.391 . S
C4079 C4078 1.386 . S
C4079 C4083 1.393 . S
C4080 H4069 0.950 . S
C4080 C4078 1.391 . S
C4080 C4081 1.400 . S
C4081 C4075 1.491 . S
C4081 C4080 1.400 . S
C4081 C4082 1.398 . S
C4082 H4070 0.950 . S
C4082 C4081 1.398 . S
C4082 C4083 1.391 . S
C4083 H4071 0.950 . S
C4083 C4079 1.393 . S
C4083 C4082 1.391 . S
H4084 C4092 0.950 . S
H4085 C4097 0.950 . S
H4086 C4094 0.950 . S
H4087 C4096 0.950 . S
H4088 C4098 0.950 . S
H4089 C4100 0.950 . S
H4090 C4102 0.950 . S
H4091 C4103 0.950 . S
C4092 H4084 0.950 . S
C4092 C4093 1.386 . S
C4092 C4094 1.391 . S
C4093 C4092 1.386 . S
C4093 C4097 1.393 . S
C4094 H4086 0.950 . S
C4094 C4092 1.391 . S
C4094 C4095 1.400 . S
C4095 C4094 1.400 . S
C4095 C4096 1.398 . S
C4095 C4101 1.491 . S
C4096 H4087 0.950 . S
C4096 C4095 1.398 . S
C4096 C4097 1.391 . S
C4097 H4085 0.950 . S
C4097 C4093 1.393 . S
C4097 C4096 1.391 . S
C4098 H4088 0.950 . S
C4098 C4099 1.386 . S
C4098 C4100 1.391 . S
C4099 C4098 1.386 . S
C4099 C4103 1.393 . S
C4100 H4089 0.950 . S
C4100 C4098 1.391 . S
C4100 C4101 1.400 . S
C4101 C4095 1.491 . S
C4101 C4100 1.400 . S
C4101 C4102 1.398 . S
C4102 H4090 0.950 . S
C4102 C4101 1.398 . S
C4102 C4103 1.391 . S
C4103 H4091 0.950 . S
C4103 C4099 1.393 . S
C4103 C4102 1.391 . S
H4104 C4112 0.950 . S
H4105 C4117 0.950 . S
H4106 C4114 0.950 . S
H4107 C4116 0.950 . S
H4108 C4118 0.950 . S
H4109 C4120 0.950 . S
H4110 C4122 0.950 . S
H4111 C4123 0.950 . S
C4112 H4104 0.950 . S
C4112 C4113 1.386 . S
C4112 C4114 1.391 . S
C4113 C4112 1.386 . S
C4113 C4117 1.393 . S
C4114 H4106 0.950 . S
C4114 C4112 1.391 . S
C4114 C4115 1.400 . S
C4115 C4114 1.400 . S
C4115 C4116 1.398 . S
C4115 C4121 1.491 . S
C4116 H4107 0.950 . S
C4116 C4115 1.398 . S
C4116 C4117 1.391 . S
C4117 H4105 0.950 . S
C4117 C4113 1.393 . S
C4117 C4116 1.391 . S
C4118 H4108 0.950 . S
C4118 C4119 1.386 . S
C4118 C4120 1.391 . S
C4119 C4118 1.386 . S
C4119 C4123 1.393 . S
C4120 H4109 0.950 . S
C4120 C4118 1.391 . S
C4120 C4121 1.400 . S
C4121 C4115 1.491 . S
C4121 C4120 1.400 . S
C4121 C4122 1.398 . S
C4122 H4110 0.950 . S
C4122 C4121 1.398 . S
C4122 C4123 1.391 . S
C4123 H4111 0.950 . S
C4123 C4119 1.393 . S
C4123 C4122 1.391 . S
H4124 C4132 0.950 . S
H4125 C4137 0.950 . S
H4126 C4134 0.950 . S
H4127 C4136 0.950 . S
H4128 C4138 0.950 . S
H4129 C4140 0.950 . S
H4130 C4142 0.950 . S
H4131 C4143 0.950 . S
C4132 H4124 0.950 . S
C4132 C4133 1.386 . S
C4132 C4134 1.391 . S
C4133 C4132 1.386 . S
C4133 C4137 1.393 . S
C4134 H4126 0.950 . S
C4134 C4132 1.391 . S
C4134 C4135 1.400 . S
C4135 C4134 1.400 . S
C4135 C4136 1.398 . S
C4135 C4141 1.491 . S
C4136 H4127 0.950 . S
C4136 C4135 1.398 . S
C4136 C4137 1.391 . S
C4137 H4125 0.950 . S
C4137 C4133 1.393 . S
C4137 C4136 1.391 . S
C4138 H4128 0.950 . S
C4138 C4139 1.386 . S
C4138 C4140 1.391 . S
C4139 C4138 1.386 . S
C4139 C4143 1.393 . S
C4140 H4129 0.950 . S
C4140 C4138 1.391 . S
C4140 C4141 1.400 . S
C4141 C4135 1.491 . S
C4141 C4140 1.400 . S
C4141 C4142 1.398 . S
C4142 H4130 0.950 . S
C4142 C4141 1.398 . S
C4142 C4143 1.391 . S
C4143 H4131 0.950 . S
C4143 C4139 1.393 . S
C4143 C4142 1.391 . S
H4144 C4152 0.950 . S
H4145 C4157 0.950 . S
H4146 C4154 0.950 . S
H4147 C4156 0.950 . S
H4148 C4158 0.950 . S
H4149 C4160 0.950 . S
H4150 C4162 0.950 . S
H4151 C4163 0.950 . S
C4152 H4144 0.950 . S
C4152 C4153 1.386 . S
C4152 C4154 1.391 . S
C4153 C4152 1.386 . S
C4153 C4157 1.393 . S
C4154 H4146 0.950 . S
C4154 C4152 1.391 . S
C4154 C4155 1.400 . S
C4155 C4154 1.400 . S
C4155 C4156 1.398 . S
C4155 C4161 1.491 . S
C4156 H4147 0.950 . S
C4156 C4155 1.398 . S
C4156 C4157 1.391 . S
C4157 H4145 0.950 . S
C4157 C4153 1.393 . S
C4157 C4156 1.391 . S
C4158 H4148 0.950 . S
C4158 C4159 1.386 . S
C4158 C4160 1.391 . S
C4159 C4158 1.386 . S
C4159 C4163 1.393 . S
C4160 H4149 0.950 . S
C4160 C4158 1.391 . S
C4160 C4161 1.400 . S
C4161 C4155 1.491 . S
C4161 C4160 1.400 . S
C4161 C4162 1.398 . S
C4162 H4150 0.950 . S
C4162 C4161 1.398 . S
C4162 C4163 1.391 . S
C4163 H4151 0.950 . S
C4163 C4159 1.393 . S
C4163 C4162 1.391 . S
H4164 C4172 0.950 . S
H4165 C4177 0.950 . S
H4166 C4174 0.950 . S
H4167 C4176 0.950 . S
H4168 C4178 0.950 . S
H4169 C4180 0.950 . S
H4170 C4182 0.950 . S
H4171 C4183 0.950 . S
C4172 H4164 0.950 . S
C4172 C4173 1.386 . S
C4172 C4174 1.391 . S
C4173 C4172 1.386 . S
C4173 C4177 1.393 . S
C4174 H4166 0.950 . S
C4174 C4172 1.391 . S
C4174 C4175 1.400 . S
C4175 C4174 1.400 . S
C4175 C4176 1.398 . S
C4175 C4181 1.491 . S
C4176 H4167 0.950 . S
C4176 C4175 1.398 . S
C4176 C4177 1.391 . S
C4177 H4165 0.950 . S
C4177 C4173 1.393 . S
C4177 C4176 1.391 . S
C4178 H4168 0.950 . S
C4178 C4179 1.386 . S
C4178 C4180 1.391 . S
C4179 C4178 1.386 . S
C4179 C4183 1.393 . S
C4180 H4169 0.950 . S
C4180 C4178 1.391 . S
C4180 C4181 1.400 . S
C4181 C4175 1.491 . S
C4181 C4180 1.400 . S
C4181 C4182 1.398 . S
C4182 H4170 0.950 . S
C4182 C4181 1.398 . S
C4182 C4183 1.391 . S
C4183 H4171 0.950 . S
C4183 C4179 1.393 . S
C4183 C4182 1.391 . S
H4184 C4192 0.950 . S
H4185 C4197 0.950 . S
H4186 C4194 0.950 . S
H4187 C4196 0.950 . S
H4188 C4198 0.950 . S
H4189 C4200 0.950 . S
H4190 C4202 0.950 . S
H4191 C4203 0.950 . S
C4192 H4184 0.950 . S
C4192 C4193 1.386 . S
C4192 C4194 1.391 . S
C4193 C4192 1.386 . S
C4193 C4197 1.393 . S
C4194 H4186 0.950 . S
C4194 C4192 1.391 . S
C4194 C4195 1.400 . S
C4195 C4194 1.400 . S
C4195 C4196 1.398 . S
C4195 C4201 1.491 . S
C4196 H4187 0.950 . S
C4196 C4195 1.398 . S
C4196 C4197 1.391 . S
C4197 H4185 0.950 . S
C4197 C4193 1.393 . S
C4197 C4196 1.391 . S
C4198 H4188 0.950 . S
C4198 C4199 1.386 . S
C4198 C4200 1.391 . S
C4199 C4198 1.386 . S
C4199 C4203 1.393 . S
C4200 H4189 0.950 . S
C4200 C4198 1.391 . S
C4200 C4201 1.400 . S
C4201 C4195 1.491 . S
C4201 C4200 1.400 . S
C4201 C4202 1.398 . S
C4202 H4190 0.950 . S
C4202 C4201 1.398 . S
C4202 C4203 1.391 . S
C4203 H4191 0.950 . S
C4203 C4199 1.393 . S
C4203 C4202 1.391 . S
H4204 C4212 0.950 . S
H4205 C4217 0.950 . S
H4206 C4214 0.950 . S
H4207 C4216 0.950 . S
H4208 C4218 0.950 . S
H4209 C4220 0.950 . S
H4210 C4222 0.950 . S
H4211 C4223 0.950 . S
C4212 H4204 0.950 . S
C4212 C4213 1.386 . S
C4212 C4214 1.391 . S
C4213 C4212 1.386 . S
C4213 C4217 1.393 . S
C4214 H4206 0.950 . S
C4214 C4212 1.391 . S
C4214 C4215 1.400 . S
C4215 C4214 1.400 . S
C4215 C4216 1.398 . S
C4215 C4221 1.491 . S
C4216 H4207 0.950 . S
C4216 C4215 1.398 . S
C4216 C4217 1.391 . S
C4217 H4205 0.950 . S
C4217 C4213 1.393 . S
C4217 C4216 1.391 . S
C4218 H4208 0.950 . S
C4218 C4219 1.386 . S
C4218 C4220 1.391 . S
C4219 C4218 1.386 . S
C4219 C4223 1.393 . S
C4220 H4209 0.950 . S
C4220 C4218 1.391 . S
C4220 C4221 1.400 . S
C4221 C4215 1.491 . S
C4221 C4220 1.400 . S
C4221 C4222 1.398 . S
C4222 H4210 0.950 . S
C4222 C4221 1.398 . S
C4222 C4223 1.391 . S
C4223 H4211 0.950 . S
C4223 C4219 1.393 . S
C4223 C4222 1.391 . S
H4224 C4232 0.950 . S
H4225 C4237 0.950 . S
H4226 C4234 0.950 . S
H4227 C4236 0.950 . S
H4228 C4238 0.950 . S
H4229 C4240 0.950 . S
H4230 C4242 0.950 . S
H4231 C4243 0.950 . S
C4232 H4224 0.950 . S
C4232 C4233 1.386 . S
C4232 C4234 1.391 . S
C4233 C4232 1.386 . S
C4233 C4237 1.393 . S
C4234 H4226 0.950 . S
C4234 C4232 1.391 . S
C4234 C4235 1.400 . S
C4235 C4234 1.400 . S
C4235 C4236 1.398 . S
C4235 C4241 1.491 . S
C4236 H4227 0.950 . S
C4236 C4235 1.398 . S
C4236 C4237 1.391 . S
C4237 H4225 0.950 . S
C4237 C4233 1.393 . S
C4237 C4236 1.391 . S
C4238 H4228 0.950 . S
C4238 C4239 1.386 . S
C4238 C4240 1.391 . S
C4239 C4238 1.386 . S
C4239 C4243 1.393 . S
C4240 H4229 0.950 . S
C4240 C4238 1.391 . S
C4240 C4241 1.400 . S
C4241 C4235 1.491 . S
C4241 C4240 1.400 . S
C4241 C4242 1.398 . S
C4242 H4230 0.950 . S
C4242 C4241 1.398 . S
C4242 C4243 1.391 . S
C4243 H4231 0.950 . S
C4243 C4239 1.393 . S
C4243 C4242 1.391 . S
H4244 C4252 0.950 . S
H4245 C4257 0.950 . S
H4246 C4254 0.950 . S
H4247 C4256 0.950 . S
H4248 C4258 0.950 . S
H4249 C4260 0.950 . S
H4250 C4262 0.950 . S
H4251 C4263 0.950 . S
C4252 H4244 0.950 . S
C4252 C4253 1.386 . S
C4252 C4254 1.391 . S
C4253 C4252 1.386 . S
C4253 C4257 1.393 . S
C4254 H4246 0.950 . S
C4254 C4252 1.391 . S
C4254 C4255 1.400 . S
C4255 C4254 1.400 . S
C4255 C4256 1.398 . S
C4255 C4261 1.491 . S
C4256 H4247 0.950 . S
C4256 C4255 1.398 . S
C4256 C4257 1.391 . S
C4257 H4245 0.950 . S
C4257 C4253 1.393 . S
C4257 C4256 1.391 . S
C4258 H4248 0.950 . S
C4258 C4259 1.386 . S
C4258 C4260 1.391 . S
C4259 C4258 1.386 . S
C4259 C4263 1.393 . S
C4260 H4249 0.950 . S
C4260 C4258 1.391 . S
C4260 C4261 1.400 . S
C4261 C4255 1.491 . S
C4261 C4260 1.400 . S
C4261 C4262 1.398 . S
C4262 H4250 0.950 . S
C4262 C4261 1.398 . S
C4262 C4263 1.391 . S
C4263 H4251 0.950 . S
C4263 C4259 1.393 . S
C4263 C4262 1.391 . S
H4264 C4272 0.950 . S
H4265 C4277 0.950 . S
H4266 C4274 0.950 . S
H4267 C4276 0.950 . S
H4268 C4278 0.950 . S
H4269 C4280 0.950 . S
H4270 C4282 0.950 . S
H4271 C4283 0.950 . S
C4272 H4264 0.950 . S
C4272 C4273 1.386 . S
C4272 C4274 1.391 . S
C4273 C4272 1.386 . S
C4273 C4277 1.393 . S
C4274 H4266 0.950 . S
C4274 C4272 1.391 . S
C4274 C4275 1.400 . S
C4275 C4274 1.400 . S
C4275 C4276 1.398 . S
C4275 C4281 1.491 . S
C4276 H4267 0.950 . S
C4276 C4275 1.398 . S
C4276 C4277 1.391 . S
C4277 H4265 0.950 . S
C4277 C4273 1.393 . S
C4277 C4276 1.391 . S
C4278 H4268 0.950 . S
C4278 C4279 1.386 . S
C4278 C4280 1.391 . S
C4279 C4278 1.386 . S
C4279 C4283 1.393 . S
C4280 H4269 0.950 . S
C4280 C4278 1.391 . S
C4280 C4281 1.400 . S
C4281 C4275 1.491 . S
C4281 C4280 1.400 . S
C4281 C4282 1.398 . S
C4282 H4270 0.950 . S
C4282 C4281 1.398 . S
C4282 C4283 1.391 . S
C4283 H4271 0.950 . S
C4283 C4279 1.393 . S
C4283 C4282 1.391 . S
H4284 C4292 0.950 . S
H4285 C4297 0.950 . S
H4286 C4294 0.950 . S
H4287 C4296 0.950 . S
H4288 C4298 0.950 . S
H4289 C4300 0.950 . S
H4290 C4302 0.950 . S
H4291 C4303 0.950 . S
C4292 H4284 0.950 . S
C4292 C4293 1.386 . S
C4292 C4294 1.391 . S
C4293 C4292 1.386 . S
C4293 C4297 1.393 . S
C4294 H4286 0.950 . S
C4294 C4292 1.391 . S
C4294 C4295 1.400 . S
C4295 C4294 1.400 . S
C4295 C4296 1.398 . S
C4295 C4301 1.491 . S
C4296 H4287 0.950 . S
C4296 C4295 1.398 . S
C4296 C4297 1.391 . S
C4297 H4285 0.950 . S
C4297 C4293 1.393 . S
C4297 C4296 1.391 . S
C4298 H4288 0.950 . S
C4298 C4299 1.386 . S
C4298 C4300 1.391 . S
C4299 C4298 1.386 . S
C4299 C4303 1.393 . S
C4300 H4289 0.950 . S
C4300 C4298 1.391 . S
C4300 C4301 1.400 . S
C4301 C4295 1.491 . S
C4301 C4300 1.400 . S
C4301 C4302 1.398 . S
C4302 H4290 0.950 . S
C4302 C4301 1.398 . S
C4302 C4303 1.391 . S
C4303 H4291 0.950 . S
C4303 C4299 1.393 . S
C4303 C4302 1.391 . S
H4304 C4312 0.950 . S
H4305 C4317 0.950 . S
H4306 C4314 0.950 . S
H4307 C4316 0.950 . S
H4308 C4318 0.950 . S
H4309 C4320 0.950 . S
H4310 C4322 0.950 . S
H4311 C4323 0.950 . S
C4312 H4304 0.950 . S
C4312 C4313 1.386 . S
C4312 C4314 1.391 . S
C4313 C4312 1.386 . S
C4313 C4317 1.393 . S
C4314 H4306 0.950 . S
C4314 C4312 1.391 . S
C4314 C4315 1.400 . S
C4315 C4314 1.400 . S
C4315 C4316 1.398 . S
C4315 C4321 1.491 . S
C4316 H4307 0.950 . S
C4316 C4315 1.398 . S
C4316 C4317 1.391 . S
C4317 H4305 0.950 . S
C4317 C4313 1.393 . S
C4317 C4316 1.391 . S
C4318 H4308 0.950 . S
C4318 C4319 1.386 . S
C4318 C4320 1.391 . S
C4319 C4318 1.386 . S
C4319 C4323 1.393 . S
C4320 H4309 0.950 . S
C4320 C4318 1.391 . S
C4320 C4321 1.400 . S
C4321 C4315 1.491 . S
C4321 C4320 1.400 . S
C4321 C4322 1.398 . S
C4322 H4310 0.950 . S
C4322 C4321 1.398 . S
C4322 C4323 1.391 . S
C4323 H4311 0.950 . S
C4323 C4319 1.393 . S
C4323 C4322 1.391 . S
H4324 C4332 0.950 . S
H4325 C4337 0.950 . S
H4326 C4334 0.950 . S
H4327 C4336 0.950 . S
H4328 C4338 0.950 . S
H4329 C4340 0.950 . S
H4330 C4342 0.950 . S
H4331 C4343 0.950 . S
C4332 H4324 0.950 . S
C4332 C4333 1.386 . S
C4332 C4334 1.391 . S
C4333 C4332 1.386 . S
C4333 C4337 1.393 . S
C4334 H4326 0.950 . S
C4334 C4332 1.391 . S
C4334 C4335 1.400 . S
C4335 C4334 1.400 . S
C4335 C4336 1.398 . S
C4335 C4341 1.491 . S
C4336 H4327 0.950 . S
C4336 C4335 1.398 . S
C4336 C4337 1.391 . S
C4337 H4325 0.950 . S
C4337 C4333 1.393 . S
C4337 C4336 1.391 . S
C4338 H4328 0.950 . S
C4338 C4339 1.386 . S
C4338 C4340 1.391 . S
C4339 C4338 1.386 . S
C4339 C4343 1.393 . S
C4340 H4329 0.950 . S
C4340 C4338 1.391 . S
C4340 C4341 1.400 . S
C4341 C4335 1.491 . S
C4341 C4340 1.400 . S
C4341 C4342 1.398 . S
C4342 H4330 0.950 . S
C4342 C4341 1.398 . S
C4342 C4343 1.391 . S
C4343 H4331 0.950 . S
C4343 C4339 1.393 . S
C4343 C4342 1.391 . S
H4344 C4352 0.950 . S
H4345 C4357 0.950 . S
H4346 C4354 0.950 . S
H4347 C4356 0.950 . S
H4348 C4358 0.950 . S
H4349 C4360 0.950 . S
H4350 C4362 0.950 . S
H4351 C4363 0.950 . S
C4352 H4344 0.950 . S
C4352 C4353 1.386 . S
C4352 C4354 1.391 . S
C4353 C4352 1.386 . S
C4353 C4357 1.393 . S
C4354 H4346 0.950 . S
C4354 C4352 1.391 . S
C4354 C4355 1.400 . S
C4355 C4354 1.400 . S
C4355 C4356 1.398 . S
C4355 C4361 1.491 . S
C4356 H4347 0.950 . S
C4356 C4355 1.398 . S
C4356 C4357 1.391 . S
C4357 H4345 0.950 . S
C4357 C4353 1.393 . S
C4357 C4356 1.391 . S
C4358 H4348 0.950 . S
C4358 C4359 1.386 . S
C4358 C4360 1.391 . S
C4359 C4358 1.386 . S
C4359 C4363 1.393 . S
C4360 H4349 0.950 . S
C4360 C4358 1.391 . S
C4360 C4361 1.400 . S
C4361 C4355 1.491 . S
C4361 C4360 1.400 . S
C4361 C4362 1.398 . S
C4362 H4350 0.950 . S
C4362 C4361 1.398 . S
C4362 C4363 1.391 . S
C4363 H4351 0.950 . S
C4363 C4359 1.393 . S
C4363 C4362 1.391 . S
H4364 C4372 0.950 . S
H4365 C4377 0.950 . S
H4366 C4374 0.950 . S
H4367 C4376 0.950 . S
H4368 C4378 0.950 . S
H4369 C4380 0.950 . S
H4370 C4382 0.950 . S
H4371 C4383 0.950 . S
C4372 H4364 0.950 . S
C4372 C4373 1.386 . S
C4372 C4374 1.391 . S
C4373 C4372 1.386 . S
C4373 C4377 1.393 . S
C4374 H4366 0.950 . S
C4374 C4372 1.391 . S
C4374 C4375 1.400 . S
C4375 C4374 1.400 . S
C4375 C4376 1.398 . S
C4375 C4381 1.491 . S
C4376 H4367 0.950 . S
C4376 C4375 1.398 . S
C4376 C4377 1.391 . S
C4377 H4365 0.950 . S
C4377 C4373 1.393 . S
C4377 C4376 1.391 . S
C4378 H4368 0.950 . S
C4378 C4379 1.386 . S
C4378 C4380 1.391 . S
C4379 C4378 1.386 . S
C4379 C4383 1.393 . S
C4380 H4369 0.950 . S
C4380 C4378 1.391 . S
C4380 C4381 1.400 . S
C4381 C4375 1.491 . S
C4381 C4380 1.400 . S
C4381 C4382 1.398 . S
C4382 H4370 0.950 . S
C4382 C4381 1.398 . S
C4382 C4383 1.391 . S
C4383 H4371 0.950 . S
C4383 C4379 1.393 . S
C4383 C4382 1.391 . S
H4384 C4392 0.950 . S
H4385 C4397 0.950 . S
H4386 C4394 0.950 . S
H4387 C4396 0.950 . S
H4388 C4398 0.950 . S
H4389 C4400 0.950 . S
H4390 C4402 0.950 . S
H4391 C4403 0.950 . S
C4392 H4384 0.950 . S
C4392 C4393 1.386 . S
C4392 C4394 1.391 . S
C4393 C4392 1.386 . S
C4393 C4397 1.393 . S
C4394 H4386 0.950 . S
C4394 C4392 1.391 . S
C4394 C4395 1.400 . S
C4395 C4394 1.400 . S
C4395 C4396 1.398 . S
C4395 C4401 1.491 . S
C4396 H4387 0.950 . S
C4396 C4395 1.398 . S
C4396 C4397 1.391 . S
C4397 H4385 0.950 . S
C4397 C4393 1.393 . S
C4397 C4396 1.391 . S
C4398 H4388 0.950 . S
C4398 C4399 1.386 . S
C4398 C4400 1.391 . S
C4399 C4398 1.386 . S
C4399 C4403 1.393 . S
C4400 H4389 0.950 . S
C4400 C4398 1.391 . S
C4400 C4401 1.400 . S
C4401 C4395 1.491 . S
C4401 C4400 1.400 . S
C4401 C4402 1.398 . S
C4402 H4390 0.950 . S
C4402 C4401 1.398 . S
C4402 C4403 1.391 . S
C4403 H4391 0.950 . S
C4403 C4399 1.393 . S
C4403 C4402 1.391 . S
H4404 C4412 0.950 . S
H4405 C4417 0.950 . S
H4406 C4414 0.950 . S
H4407 C4416 0.950 . S
H4408 C4418 0.950 . S
H4409 C4420 0.950 . S
H4410 C4422 0.950 . S
H4411 C4423 0.950 . S
C4412 H4404 0.950 . S
C4412 C4413 1.386 . S
C4412 C4414 1.391 . S
C4413 C4412 1.386 . S
C4413 C4417 1.393 . S
C4414 H4406 0.950 . S
C4414 C4412 1.391 . S
C4414 C4415 1.400 . S
C4415 C4414 1.400 . S
C4415 C4416 1.398 . S
C4415 C4421 1.491 . S
C4416 H4407 0.950 . S
C4416 C4415 1.398 . S
C4416 C4417 1.391 . S
C4417 H4405 0.950 . S
C4417 C4413 1.393 . S
C4417 C4416 1.391 . S
C4418 H4408 0.950 . S
C4418 C4419 1.386 . S
C4418 C4420 1.391 . S
C4419 C4418 1.386 . S
C4419 C4423 1.393 . S
C4420 H4409 0.950 . S
C4420 C4418 1.391 . S
C4420 C4421 1.400 . S
C4421 C4415 1.491 . S
C4421 C4420 1.400 . S
C4421 C4422 1.398 . S
C4422 H4410 0.950 . S
C4422 C4421 1.398 . S
C4422 C4423 1.391 . S
C4423 H4411 0.950 . S
C4423 C4419 1.393 . S
C4423 C4422 1.391 . S
H4424 C4432 0.950 . S
H4425 C4437 0.950 . S
H4426 C4434 0.950 . S
H4427 C4436 0.950 . S
H4428 C4438 0.950 . S
H4429 C4440 0.950 . S
H4430 C4442 0.950 . S
H4431 C4443 0.950 . S
C4432 H4424 0.950 . S
C4432 C4433 1.386 . S
C4432 C4434 1.391 . S
C4433 C4432 1.386 . S
C4433 C4437 1.393 . S
C4434 H4426 0.950 . S
C4434 C4432 1.391 . S
C4434 C4435 1.400 . S
C4435 C4434 1.400 . S
C4435 C4436 1.398 . S
C4435 C4441 1.491 . S
C4436 H4427 0.950 . S
C4436 C4435 1.398 . S
C4436 C4437 1.391 . S
C4437 H4425 0.950 . S
C4437 C4433 1.393 . S
C4437 C4436 1.391 . S
C4438 H4428 0.950 . S
C4438 C4439 1.386 . S
C4438 C4440 1.391 . S
C4439 C4438 1.386 . S
C4439 C4443 1.393 . S
C4440 H4429 0.950 . S
C4440 C4438 1.391 . S
C4440 C4441 1.400 . S
C4441 C4435 1.491 . S
C4441 C4440 1.400 . S
C4441 C4442 1.398 . S
C4442 H4430 0.950 . S
C4442 C4441 1.398 . S
C4442 C4443 1.391 . S
C4443 H4431 0.950 . S
C4443 C4439 1.393 . S
C4443 C4442 1.391 . S
H4444 C4452 0.950 . S
H4445 C4457 0.950 . S
H4446 C4454 0.950 . S
H4447 C4456 0.950 . S
H4448 C4458 0.950 . S
H4449 C4460 0.950 . S
H4450 C4462 0.950 . S
H4451 C4463 0.950 . S
C4452 H4444 0.950 . S
C4452 C4453 1.386 . S
C4452 C4454 1.391 . S
C4453 C4452 1.386 . S
C4453 C4457 1.393 . S
C4454 H4446 0.950 . S
C4454 C4452 1.391 . S
C4454 C4455 1.400 . S
C4455 C4454 1.400 . S
C4455 C4456 1.398 . S
C4455 C4461 1.491 . S
C4456 H4447 0.950 . S
C4456 C4455 1.398 . S
C4456 C4457 1.391 . S
C4457 H4445 0.950 . S
C4457 C4453 1.393 . S
C4457 C4456 1.391 . S
C4458 H4448 0.950 . S
C4458 C4459 1.386 . S
C4458 C4460 1.391 . S
C4459 C4458 1.386 . S
C4459 C4463 1.393 . S
C4460 H4449 0.950 . S
C4460 C4458 1.391 . S
C4460 C4461 1.400 . S
C4461 C4455 1.491 . S
C4461 C4460 1.400 . S
C4461 C4462 1.398 . S
C4462 H4450 0.950 . S
C4462 C4461 1.398 . S
C4462 C4463 1.391 . S
C4463 H4451 0.950 . S
C4463 C4459 1.393 . S
C4463 C4462 1.391 . S
H4464 C4472 0.950 . S
H4465 C4477 0.950 . S
H4466 C4474 0.950 . S
H4467 C4476 0.950 . S
H4468 C4478 0.950 . S
H4469 C4480 0.950 . S
H4470 C4482 0.950 . S
H4471 C4483 0.950 . S
C4472 H4464 0.950 . S
C4472 C4473 1.386 . S
C4472 C4474 1.391 . S
C4473 C4472 1.386 . S
C4473 C4477 1.393 . S
C4474 H4466 0.950 . S
C4474 C4472 1.391 . S
C4474 C4475 1.400 . S
C4475 C4474 1.400 . S
C4475 C4476 1.398 . S
C4475 C4481 1.491 . S
C4476 H4467 0.950 . S
C4476 C4475 1.398 . S
C4476 C4477 1.391 . S
C4477 H4465 0.950 . S
C4477 C4473 1.393 . S
C4477 C4476 1.391 . S
C4478 H4468 0.950 . S
C4478 C4479 1.386 . S
C4478 C4480 1.391 . S
C4479 C4478 1.386 . S
C4479 C4483 1.393 . S
C4480 H4469 0.950 . S
C4480 C4478 1.391 . S
C4480 C4481 1.400 . S
C4481 C4475 1.491 . S
C4481 C4480 1.400 . S
C4481 C4482 1.398 . S
C4482 H4470 0.950 . S
C4482 C4481 1.398 . S
C4482 C4483 1.391 . S
C4483 H4471 0.950 . S
C4483 C4479 1.393 . S
C4483 C4482 1.391 . S
H4484 C4492 0.950 . S
H4485 C4497 0.950 . S
H4486 C4494 0.950 . S
H4487 C4496 0.950 . S
H4488 C4498 0.950 . S
H4489 C4500 0.950 . S
H4490 C4502 0.950 . S
H4491 C4503 0.950 . S
C4492 H4484 0.950 . S
C4492 C4493 1.386 . S
C4492 C4494 1.391 . S
C4493 C4492 1.386 . S
C4493 C4497 1.393 . S
C4494 H4486 0.950 . S
C4494 C4492 1.391 . S
C4494 C4495 1.400 . S
C4495 C4494 1.400 . S
C4495 C4496 1.398 . S
C4495 C4501 1.491 . S
C4496 H4487 0.950 . S
C4496 C4495 1.398 . S
C4496 C4497 1.391 . S
C4497 H4485 0.950 . S
C4497 C4493 1.393 . S
C4497 C4496 1.391 . S
C4498 H4488 0.950 . S
C4498 C4499 1.386 . S
C4498 C4500 1.391 . S
C4499 C4498 1.386 . S
C4499 C4503 1.393 . S
C4500 H4489 0.950 . S
C4500 C4498 1.391 . S
C4500 C4501 1.400 . S
C4501 C4495 1.491 . S
C4501 C4500 1.400 . S
C4501 C4502 1.398 . S
C4502 H4490 0.950 . S
C4502 C4501 1.398 . S
C4502 C4503 1.391 . S
C4503 H4491 0.950 . S
C4503 C4499 1.393 . S
C4503 C4502 1.391 . S
H4504 C4512 0.950 . S
H4505 C4517 0.950 . S
H4506 C4514 0.950 . S
H4507 C4516 0.950 . S
H4508 C4518 0.950 . S
H4509 C4520 0.950 . S
H4510 C4522 0.950 . S
H4511 C4523 0.950 . S
C4512 H4504 0.950 . S
C4512 C4513 1.386 . S
C4512 C4514 1.391 . S
C4513 C4512 1.386 . S
C4513 C4517 1.393 . S
C4514 H4506 0.950 . S
C4514 C4512 1.391 . S
C4514 C4515 1.400 . S
C4515 C4514 1.400 . S
C4515 C4516 1.398 . S
C4515 C4521 1.491 . S
C4516 H4507 0.950 . S
C4516 C4515 1.398 . S
C4516 C4517 1.391 . S
C4517 H4505 0.950 . S
C4517 C4513 1.393 . S
C4517 C4516 1.391 . S
C4518 H4508 0.950 . S
C4518 C4519 1.386 . S
C4518 C4520 1.391 . S
C4519 C4518 1.386 . S
C4519 C4523 1.393 . S
C4520 H4509 0.950 . S
C4520 C4518 1.391 . S
C4520 C4521 1.400 . S
C4521 C4515 1.491 . S
C4521 C4520 1.400 . S
C4521 C4522 1.398 . S
C4522 H4510 0.950 . S
C4522 C4521 1.398 . S
C4522 C4523 1.391 . S
C4523 H4511 0.950 . S
C4523 C4519 1.393 . S
C4523 C4522 1.391 . S
H4524 C4532 0.950 . S
H4525 C4537 0.950 . S
H4526 C4534 0.950 . S
H4527 C4536 0.950 . S
H4528 C4538 0.950 . S
H4529 C4540 0.950 . S
H4530 C4542 0.950 . S
H4531 C4543 0.950 . S
C4532 H4524 0.950 . S
C4532 C4533 1.386 . S
C4532 C4534 1.391 . S
C4533 C4532 1.386 . S
C4533 C4537 1.393 . S
C4534 H4526 0.950 . S
C4534 C4532 1.391 . S
C4534 C4535 1.400 . S
C4535 C4534 1.400 . S
C4535 C4536 1.398 . S
C4535 C4541 1.491 . S
C4536 H4527 0.950 . S
C4536 C4535 1.398 . S
C4536 C4537 1.391 . S
C4537 H4525 0.950 . S
C4537 C4533 1.393 . S
C4537 C4536 1.391 . S
C4538 H4528 0.950 . S
C4538 C4539 1.386 . S
C4538 C4540 1.391 . S
C4539 C4538 1.386 . S
C4539 C4543 1.393 . S
C4540 H4529 0.950 . S
C4540 C4538 1.391 . S
C4540 C4541 1.400 . S
C4541 C4535 1.491 . S
C4541 C4540 1.400 . S
C4541 C4542 1.398 . S
C4542 H4530 0.950 . S
C4542 C4541 1.398 . S
C4542 C4543 1.391 . S
C4543 H4531 0.950 . S
C4543 C4539 1.393 . S
C4543 C4542 1.391 . S
H4544 C4552 0.950 . S
H4545 C4557 0.950 . S
H4546 C4554 0.950 . S
H4547 C4556 0.950 . S
H4548 C4558 0.950 . S
H4549 C4560 0.950 . S
H4550 C4562 0.950 . S
H4551 C4563 0.950 . S
C4552 H4544 0.950 . S
C4552 C4553 1.386 . S
C4552 C4554 1.391 . S
C4553 C4552 1.386 . S
C4553 C4557 1.393 . S
C4554 H4546 0.950 . S
C4554 C4552 1.391 . S
C4554 C4555 1.400 . S
C4555 C4554 1.400 . S
C4555 C4556 1.398 . S
C4555 C4561 1.491 . S
C4556 H4547 0.950 . S
C4556 C4555 1.398 . S
C4556 C4557 1.391 . S
C4557 H4545 0.950 . S
C4557 C4553 1.393 . S
C4557 C4556 1.391 . S
C4558 H4548 0.950 . S
C4558 C4559 1.386 . S
C4558 C4560 1.391 . S
C4559 C4558 1.386 . S
C4559 C4563 1.393 . S
C4560 H4549 0.950 . S
C4560 C4558 1.391 . S
C4560 C4561 1.400 . S
C4561 C4555 1.491 . S
C4561 C4560 1.400 . S
C4561 C4562 1.398 . S
C4562 H4550 0.950 . S
C4562 C4561 1.398 . S
C4562 C4563 1.391 . S
C4563 H4551 0.950 . S
C4563 C4559 1.393 . S
C4563 C4562 1.391 . S
H4564 C4572 0.950 . S
H4565 C4577 0.950 . S
H4566 C4574 0.950 . S
H4567 C4576 0.950 . S
H4568 C4578 0.950 . S
H4569 C4580 0.950 . S
H4570 C4582 0.950 . S
H4571 C4583 0.950 . S
C4572 H4564 0.950 . S
C4572 C4573 1.386 . S
C4572 C4574 1.391 . S
C4573 C4572 1.386 . S
C4573 C4577 1.393 . S
C4574 H4566 0.950 . S
C4574 C4572 1.391 . S
C4574 C4575 1.400 . S
C4575 C4574 1.400 . S
C4575 C4576 1.398 . S
C4575 C4581 1.491 . S
C4576 H4567 0.950 . S
C4576 C4575 1.398 . S
C4576 C4577 1.391 . S
C4577 H4565 0.950 . S
C4577 C4573 1.393 . S
C4577 C4576 1.391 . S
C4578 H4568 0.950 . S
C4578 C4579 1.386 . S
C4578 C4580 1.391 . S
C4579 C4578 1.386 . S
C4579 C4583 1.393 . S
C4580 H4569 0.950 . S
C4580 C4578 1.391 . S
C4580 C4581 1.400 . S
C4581 C4575 1.491 . S
C4581 C4580 1.400 . S
C4581 C4582 1.398 . S
C4582 H4570 0.950 . S
C4582 C4581 1.398 . S
C4582 C4583 1.391 . S
C4583 H4571 0.950 . S
C4583 C4579 1.393 . S
C4583 C4582 1.391 . S
H4584 C4592 0.950 . S
H4585 C4597 0.950 . S
H4586 C4594 0.950 . S
H4587 C4596 0.950 . S
H4588 C4598 0.950 . S
H4589 C4600 0.950 . S
H4590 C4602 0.950 . S
H4591 C4603 0.950 . S
C4592 H4584 0.950 . S
C4592 C4593 1.386 . S
C4592 C4594 1.391 . S
C4593 C4592 1.386 . S
C4593 C4597 1.393 . S
C4594 H4586 0.950 . S
C4594 C4592 1.391 . S
C4594 C4595 1.400 . S
C4595 C4594 1.400 . S
C4595 C4596 1.398 . S
C4595 C4601 1.491 . S
C4596 H4587 0.950 . S
C4596 C4595 1.398 . S
C4596 C4597 1.391 . S
C4597 H4585 0.950 . S
C4597 C4593 1.393 . S
C4597 C4596 1.391 . S
C4598 H4588 0.950 . S
C4598 C4599 1.386 . S
C4598 C4600 1.391 . S
C4599 C4598 1.386 . S
C4599 C4603 1.393 . S
C4600 H4589 0.950 . S
C4600 C4598 1.391 . S
C4600 C4601 1.400 . S
C4601 C4595 1.491 . S
C4601 C4600 1.400 . S
C4601 C4602 1.398 . S
C4602 H4590 0.950 . S
C4602 C4601 1.398 . S
C4602 C4603 1.391 . S
C4603 H4591 0.950 . S
C4603 C4599 1.393 . S
C4603 C4602 1.391 . S
H4604 C4612 0.950 . S
H4605 C4617 0.950 . S
H4606 C4614 0.950 . S
H4607 C4616 0.950 . S
H4608 C4618 0.950 . S
H4609 C4620 0.950 . S
H4610 C4622 0.950 . S
H4611 C4623 0.950 . S
C4612 H4604 0.950 . S
C4612 C4613 1.386 . S
C4612 C4614 1.391 . S
C4613 C4612 1.386 . S
C4613 C4617 1.393 . S
C4614 H4606 0.950 . S
C4614 C4612 1.391 . S
C4614 C4615 1.400 . S
C4615 C4614 1.400 . S
C4615 C4616 1.398 . S
C4615 C4621 1.491 . S
C4616 H4607 0.950 . S
C4616 C4615 1.398 . S
C4616 C4617 1.391 . S
C4617 H4605 0.950 . S
C4617 C4613 1.393 . S
C4617 C4616 1.391 . S
C4618 H4608 0.950 . S
C4618 C4619 1.386 . S
C4618 C4620 1.391 . S
C4619 C4618 1.386 . S
C4619 C4623 1.393 . S
C4620 H4609 0.950 . S
C4620 C4618 1.391 . S
C4620 C4621 1.400 . S
C4621 C4615 1.491 . S
C4621 C4620 1.400 . S
C4621 C4622 1.398 . S
C4622 H4610 0.950 . S
C4622 C4621 1.398 . S
C4622 C4623 1.391 . S
C4623 H4611 0.950 . S
C4623 C4619 1.393 . S
C4623 C4622 1.391 . S
H4624 C4632 0.950 . S
H4625 C4637 0.950 . S
H4626 C4634 0.950 . S
H4627 C4636 0.950 . S
H4628 C4638 0.950 . S
H4629 C4640 0.950 . S
H4630 C4642 0.950 . S
H4631 C4643 0.950 . S
C4632 H4624 0.950 . S
C4632 C4633 1.386 . S
C4632 C4634 1.391 . S
C4633 C4632 1.386 . S
C4633 C4637 1.393 . S
C4634 H4626 0.950 . S
C4634 C4632 1.391 . S
C4634 C4635 1.400 . S
C4635 C4634 1.400 . S
C4635 C4636 1.398 . S
C4635 C4641 1.491 . S
C4636 H4627 0.950 . S
C4636 C4635 1.398 . S
C4636 C4637 1.391 . S
C4637 H4625 0.950 . S
C4637 C4633 1.393 . S
C4637 C4636 1.391 . S
C4638 H4628 0.950 . S
C4638 C4639 1.386 . S
C4638 C4640 1.391 . S
C4639 C4638 1.386 . S
C4639 C4643 1.393 . S
C4640 H4629 0.950 . S
C4640 C4638 1.391 . S
C4640 C4641 1.400 . S
C4641 C4635 1.491 . S
C4641 C4640 1.400 . S
C4641 C4642 1.398 . S
C4642 H4630 0.950 . S
C4642 C4641 1.398 . S
C4642 C4643 1.391 . S
C4643 H4631 0.950 . S
C4643 C4639 1.393 . S
C4643 C4642 1.391 . S
H4644 C4652 0.950 . S
H4645 C4657 0.950 . S
H4646 C4654 0.950 . S
H4647 C4656 0.950 . S
H4648 C4658 0.950 . S
H4649 C4660 0.950 . S
H4650 C4662 0.950 . S
H4651 C4663 0.950 . S
C4652 H4644 0.950 . S
C4652 C4653 1.386 . S
C4652 C4654 1.391 . S
C4653 C4652 1.386 . S
C4653 C4657 1.393 . S
C4654 H4646 0.950 . S
C4654 C4652 1.391 . S
C4654 C4655 1.400 . S
C4655 C4654 1.400 . S
C4655 C4656 1.398 . S
C4655 C4661 1.491 . S
C4656 H4647 0.950 . S
C4656 C4655 1.398 . S
C4656 C4657 1.391 . S
C4657 H4645 0.950 . S
C4657 C4653 1.393 . S
C4657 C4656 1.391 . S
C4658 H4648 0.950 . S
C4658 C4659 1.386 . S
C4658 C4660 1.391 . S
C4659 C4658 1.386 . S
C4659 C4663 1.393 . S
C4660 H4649 0.950 . S
C4660 C4658 1.391 . S
C4660 C4661 1.400 . S
C4661 C4655 1.491 . S
C4661 C4660 1.400 . S
C4661 C4662 1.398 . S
C4662 H4650 0.950 . S
C4662 C4661 1.398 . S
C4662 C4663 1.391 . S
C4663 H4651 0.950 . S
C4663 C4659 1.393 . S
C4663 C4662 1.391 . S
H4664 C4672 0.950 . S
H4665 C4677 0.950 . S
H4666 C4674 0.950 . S
H4667 C4676 0.950 . S
H4668 C4678 0.950 . S
H4669 C4680 0.950 . S
H4670 C4682 0.950 . S
H4671 C4683 0.950 . S
C4672 H4664 0.950 . S
C4672 C4673 1.386 . S
C4672 C4674 1.391 . S
C4673 C4672 1.386 . S
C4673 C4677 1.393 . S
C4674 H4666 0.950 . S
C4674 C4672 1.391 . S
C4674 C4675 1.400 . S
C4675 C4674 1.400 . S
C4675 C4676 1.398 . S
C4675 C4681 1.491 . S
C4676 H4667 0.950 . S
C4676 C4675 1.398 . S
C4676 C4677 1.391 . S
C4677 H4665 0.950 . S
C4677 C4673 1.393 . S
C4677 C4676 1.391 . S
C4678 H4668 0.950 . S
C4678 C4679 1.386 . S
C4678 C4680 1.391 . S
C4679 C4678 1.386 . S
C4679 C4683 1.393 . S
C4680 H4669 0.950 . S
C4680 C4678 1.391 . S
C4680 C4681 1.400 . S
C4681 C4675 1.491 . S
C4681 C4680 1.400 . S
C4681 C4682 1.398 . S
C4682 H4670 0.950 . S
C4682 C4681 1.398 . S
C4682 C4683 1.391 . S
C4683 H4671 0.950 . S
C4683 C4679 1.393 . S
C4683 C4682 1.391 . S
H4684 C4692 0.950 . S
H4685 C4697 0.950 . S
H4686 C4694 0.950 . S
H4687 C4696 0.950 . S
H4688 C4698 0.950 . S
H4689 C4700 0.950 . S
H4690 C4702 0.950 . S
H4691 C4703 0.950 . S
C4692 H4684 0.950 . S
C4692 C4693 1.386 . S
C4692 C4694 1.391 . S
C4693 C4692 1.386 . S
C4693 C4697 1.393 . S
C4694 H4686 0.950 . S
C4694 C4692 1.391 . S
C4694 C4695 1.400 . S
C4695 C4694 1.400 . S
C4695 C4696 1.398 . S
C4695 C4701 1.491 . S
C4696 H4687 0.950 . S
C4696 C4695 1.398 . S
C4696 C4697 1.391 . S
C4697 H4685 0.950 . S
C4697 C4693 1.393 . S
C4697 C4696 1.391 . S
C4698 H4688 0.950 . S
C4698 C4699 1.386 . S
C4698 C4700 1.391 . S
C4699 C4698 1.386 . S
C4699 C4703 1.393 . S
C4700 H4689 0.950 . S
C4700 C4698 1.391 . S
C4700 C4701 1.400 . S
C4701 C4695 1.491 . S
C4701 C4700 1.400 . S
C4701 C4702 1.398 . S
C4702 H4690 0.950 . S
C4702 C4701 1.398 . S
C4702 C4703 1.391 . S
C4703 H4691 0.950 . S
C4703 C4699 1.393 . S
C4703 C4702 1.391 . S
H4704 C4712 0.950 . S
H4705 C4717 0.950 . S
H4706 C4714 0.950 . S
H4707 C4716 0.950 . S
H4708 C4718 0.950 . S
H4709 C4720 0.950 . S
H4710 C4722 0.950 . S
H4711 C4723 0.950 . S
C4712 H4704 0.950 . S
C4712 C4713 1.386 . S
C4712 C4714 1.391 . S
C4713 C4712 1.386 . S
C4713 C4717 1.393 . S
C4714 H4706 0.950 . S
C4714 C4712 1.391 . S
C4714 C4715 1.400 . S
C4715 C4714 1.400 . S
C4715 C4716 1.398 . S
C4715 C4721 1.491 . S
C4716 H4707 0.950 . S
C4716 C4715 1.398 . S
C4716 C4717 1.391 . S
C4717 H4705 0.950 . S
C4717 C4713 1.393 . S
C4717 C4716 1.391 . S
C4718 H4708 0.950 . S
C4718 C4719 1.386 . S
C4718 C4720 1.391 . S
C4719 C4718 1.386 . S
C4719 C4723 1.393 . S
C4720 H4709 0.950 . S
C4720 C4718 1.391 . S
C4720 C4721 1.400 . S
C4721 C4715 1.491 . S
C4721 C4720 1.400 . S
C4721 C4722 1.398 . S
C4722 H4710 0.950 . S
C4722 C4721 1.398 . S
C4722 C4723 1.391 . S
C4723 H4711 0.950 . S
C4723 C4719 1.393 . S
C4723 C4722 1.391 . S
H4724 C4732 0.950 . S
H4725 C4737 0.950 . S
H4726 C4734 0.950 . S
H4727 C4736 0.950 . S
H4728 C4738 0.950 . S
H4729 C4740 0.950 . S
H4730 C4742 0.950 . S
H4731 C4743 0.950 . S
C4732 H4724 0.950 . S
C4732 C4733 1.386 . S
C4732 C4734 1.391 . S
C4733 C4732 1.386 . S
C4733 C4737 1.393 . S
C4734 H4726 0.950 . S
C4734 C4732 1.391 . S
C4734 C4735 1.400 . S
C4735 C4734 1.400 . S
C4735 C4736 1.398 . S
C4735 C4741 1.491 . S
C4736 H4727 0.950 . S
C4736 C4735 1.398 . S
C4736 C4737 1.391 . S
C4737 H4725 0.950 . S
C4737 C4733 1.393 . S
C4737 C4736 1.391 . S
C4738 H4728 0.950 . S
C4738 C4739 1.386 . S
C4738 C4740 1.391 . S
C4739 C4738 1.386 . S
C4739 C4743 1.393 . S
C4740 H4729 0.950 . S
C4740 C4738 1.391 . S
C4740 C4741 1.400 . S
C4741 C4735 1.491 . S
C4741 C4740 1.400 . S
C4741 C4742 1.398 . S
C4742 H4730 0.950 . S
C4742 C4741 1.398 . S
C4742 C4743 1.391 . S
C4743 H4731 0.950 . S
C4743 C4739 1.393 . S
C4743 C4742 1.391 . S
H4744 C4752 0.950 . S
H4745 C4757 0.950 . S
H4746 C4754 0.950 . S
H4747 C4756 0.950 . S
H4748 C4758 0.950 . S
H4749 C4760 0.950 . S
H4750 C4762 0.950 . S
H4751 C4763 0.950 . S
C4752 H4744 0.950 . S
C4752 C4753 1.386 . S
C4752 C4754 1.391 . S
C4753 C4752 1.386 . S
C4753 C4757 1.393 . S
C4754 H4746 0.950 . S
C4754 C4752 1.391 . S
C4754 C4755 1.400 . S
C4755 C4754 1.400 . S
C4755 C4756 1.398 . S
C4755 C4761 1.491 . S
C4756 H4747 0.950 . S
C4756 C4755 1.398 . S
C4756 C4757 1.391 . S
C4757 H4745 0.950 . S
C4757 C4753 1.393 . S
C4757 C4756 1.391 . S
C4758 H4748 0.950 . S
C4758 C4759 1.386 . S
C4758 C4760 1.391 . S
C4759 C4758 1.386 . S
C4759 C4763 1.393 . S
C4760 H4749 0.950 . S
C4760 C4758 1.391 . S
C4760 C4761 1.400 . S
C4761 C4755 1.491 . S
C4761 C4760 1.400 . S
C4761 C4762 1.398 . S
C4762 H4750 0.950 . S
C4762 C4761 1.398 . S
C4762 C4763 1.391 . S
C4763 H4751 0.950 . S
C4763 C4759 1.393 . S
C4763 C4762 1.391 . S
H4764 C4772 0.950 . S
H4765 C4777 0.950 . S
H4766 C4774 0.950 . S
H4767 C4776 0.950 . S
H4768 C4778 0.950 . S
H4769 C4780 0.950 . S
H4770 C4782 0.950 . S
H4771 C4783 0.950 . S
C4772 H4764 0.950 . S
C4772 C4773 1.386 . S
C4772 C4774 1.391 . S
C4773 C4772 1.386 . S
C4773 C4777 1.393 . S
C4774 H4766 0.950 . S
C4774 C4772 1.391 . S
C4774 C4775 1.400 . S
C4775 C4774 1.400 . S
C4775 C4776 1.398 . S
C4775 C4781 1.491 . S
C4776 H4767 0.950 . S
C4776 C4775 1.398 . S
C4776 C4777 1.391 . S
C4777 H4765 0.950 . S
C4777 C4773 1.393 . S
C4777 C4776 1.391 . S
C4778 H4768 0.950 . S
C4778 C4779 1.386 . S
C4778 C4780 1.391 . S
C4779 C4778 1.386 . S
C4779 C4783 1.393 . S
C4780 H4769 0.950 . S
C4780 C4778 1.391 . S
C4780 C4781 1.400 . S
C4781 C4775 1.491 . S
C4781 C4780 1.400 . S
C4781 C4782 1.398 . S
C4782 H4770 0.950 . S
C4782 C4781 1.398 . S
C4782 C4783 1.391 . S
C4783 H4771 0.950 . S
C4783 C4779 1.393 . S
C4783 C4782 1.391 . S
H4784 C4792 0.950 . S
H4785 C4797 0.950 . S
H4786 C4794 0.950 . S
H4787 C4796 0.950 . S
H4788 C4798 0.950 . S
H4789 C4800 0.950 . S
H4790 C4802 0.950 . S
H4791 C4803 0.950 . S
C4792 H4784 0.950 . S
C4792 C4793 1.386 . S
C4792 C4794 1.391 . S
C4793 C4792 1.386 . S
C4793 C4797 1.393 . S
C4794 H4786 0.950 . S
C4794 C4792 1.391 . S
C4794 C4795 1.400 . S
C4795 C4794 1.400 . S
C4795 C4796 1.398 . S
C4795 C4801 1.491 . S
C4796 H4787 0.950 . S
C4796 C4795 1.398 . S
C4796 C4797 1.391 . S
C4797 H4785 0.950 . S
C4797 C4793 1.393 . S
C4797 C4796 1.391 . S
C4798 H4788 0.950 . S
C4798 C4799 1.386 . S
C4798 C4800 1.391 . S
C4799 C4798 1.386 . S
C4799 C4803 1.393 . S
C4800 H4789 0.950 . S
C4800 C4798 1.391 . S
C4800 C4801 1.400 . S
C4801 C4795 1.491 . S
C4801 C4800 1.400 . S
C4801 C4802 1.398 . S
C4802 H4790 0.950 . S
C4802 C4801 1.398 . S
C4802 C4803 1.391 . S
C4803 H4791 0.950 . S
C4803 C4799 1.393 . S
C4803 C4802 1.391 . S
H4804 C4812 0.950 . S
H4805 C4817 0.950 . S
H4806 C4814 0.950 . S
H4807 C4816 0.950 . S
H4808 C4818 0.950 . S
H4809 C4820 0.950 . S
H4810 C4822 0.950 . S
H4811 C4823 0.950 . S
C4812 H4804 0.950 . S
C4812 C4813 1.386 . S
C4812 C4814 1.391 . S
C4813 C4812 1.386 . S
C4813 C4817 1.393 . S
C4814 H4806 0.950 . S
C4814 C4812 1.391 . S
C4814 C4815 1.400 . S
C4815 C4814 1.400 . S
C4815 C4816 1.398 . S
C4815 C4821 1.491 . S
C4816 H4807 0.950 . S
C4816 C4815 1.398 . S
C4816 C4817 1.391 . S
C4817 H4805 0.950 . S
C4817 C4813 1.393 . S
C4817 C4816 1.391 . S
C4818 H4808 0.950 . S
C4818 C4819 1.386 . S
C4818 C4820 1.391 . S
C4819 C4818 1.386 . S
C4819 C4823 1.393 . S
C4820 H4809 0.950 . S
C4820 C4818 1.391 . S
C4820 C4821 1.400 . S
C4821 C4815 1.491 . S
C4821 C4820 1.400 . S
C4821 C4822 1.398 . S
C4822 H4810 0.950 . S
C4822 C4821 1.398 . S
C4822 C4823 1.391 . S
C4823 H4811 0.950 . S
C4823 C4819 1.393 . S
C4823 C4822 1.391 . S
H4824 C4832 0.950 . S
H4825 C4837 0.950 . S
H4826 C4834 0.950 . S
H4827 C4836 0.950 . S
H4828 C4838 0.950 . S
H4829 C4840 0.950 . S
H4830 C4842 0.950 . S
H4831 C4843 0.950 . S
C4832 H4824 0.950 . S
C4832 C4833 1.386 . S
C4832 C4834 1.391 . S
C4833 C4832 1.386 . S
C4833 C4837 1.393 . S
C4834 H4826 0.950 . S
C4834 C4832 1.391 . S
C4834 C4835 1.400 . S
C4835 C4834 1.400 . S
C4835 C4836 1.398 . S
C4835 C4841 1.491 . S
C4836 H4827 0.950 . S
C4836 C4835 1.398 . S
C4836 C4837 1.391 . S
C4837 H4825 0.950 . S
C4837 C4833 1.393 . S
C4837 C4836 1.391 . S
C4838 H4828 0.950 . S
C4838 C4839 1.386 . S
C4838 C4840 1.391 . S
C4839 C4838 1.386 . S
C4839 C4843 1.393 . S
C4840 H4829 0.950 . S
C4840 C4838 1.391 . S
C4840 C4841 1.400 . S
C4841 C4835 1.491 . S
C4841 C4840 1.400 . S
C4841 C4842 1.398 . S
C4842 H4830 0.950 . S
C4842 C4841 1.398 . S
C4842 C4843 1.391 . S
C4843 H4831 0.950 . S
C4843 C4839 1.393 . S
C4843 C4842 1.391 . S
H4844 C4852 0.950 . S
H4845 C4857 0.950 . S
H4846 C4854 0.950 . S
H4847 C4856 0.950 . S
H4848 C4858 0.950 . S
H4849 C4860 0.950 . S
H4850 C4862 0.950 . S
H4851 C4863 0.950 . S
C4852 H4844 0.950 . S
C4852 C4853 1.386 . S
C4852 C4854 1.391 . S
C4853 C4852 1.386 . S
C4853 C4857 1.393 . S
C4854 H4846 0.950 . S
C4854 C4852 1.391 . S
C4854 C4855 1.400 . S
C4855 C4854 1.400 . S
C4855 C4856 1.398 . S
C4855 C4861 1.491 . S
C4856 H4847 0.950 . S
C4856 C4855 1.398 . S
C4856 C4857 1.391 . S
C4857 H4845 0.950 . S
C4857 C4853 1.393 . S
C4857 C4856 1.391 . S
C4858 H4848 0.950 . S
C4858 C4859 1.386 . S
C4858 C4860 1.391 . S
C4859 C4858 1.386 . S
C4859 C4863 1.393 . S
C4860 H4849 0.950 . S
C4860 C4858 1.391 . S
C4860 C4861 1.400 . S
C4861 C4855 1.491 . S
C4861 C4860 1.400 . S
C4861 C4862 1.398 . S
C4862 H4850 0.950 . S
C4862 C4861 1.398 . S
C4862 C4863 1.391 . S
C4863 H4851 0.950 . S
C4863 C4859 1.393 . S
C4863 C4862 1.391 . S
H4864 C4872 0.950 . S
H4865 C4877 0.950 . S
H4866 C4874 0.950 . S
H4867 C4876 0.950 . S
H4868 C4878 0.950 . S
H4869 C4880 0.950 . S
H4870 C4882 0.950 . S
H4871 C4883 0.950 . S
C4872 H4864 0.950 . S
C4872 C4873 1.386 . S
C4872 C4874 1.391 . S
C4873 C4872 1.386 . S
C4873 C4877 1.393 . S
C4874 H4866 0.950 . S
C4874 C4872 1.391 . S
C4874 C4875 1.400 . S
C4875 C4874 1.400 . S
C4875 C4876 1.398 . S
C4875 C4881 1.491 . S
C4876 H4867 0.950 . S
C4876 C4875 1.398 . S
C4876 C4877 1.391 . S
C4877 H4865 0.950 . S
C4877 C4873 1.393 . S
C4877 C4876 1.391 . S
C4878 H4868 0.950 . S
C4878 C4879 1.386 . S
C4878 C4880 1.391 . S
C4879 C4878 1.386 . S
C4879 C4883 1.393 . S
C4880 H4869 0.950 . S
C4880 C4878 1.391 . S
C4880 C4881 1.400 . S
C4881 C4875 1.491 . S
C4881 C4880 1.400 . S
C4881 C4882 1.398 . S
C4882 H4870 0.950 . S
C4882 C4881 1.398 . S
C4882 C4883 1.391 . S
C4883 H4871 0.950 . S
C4883 C4879 1.393 . S
C4883 C4882 1.391 . S
H4884 C4892 0.950 . S
H4885 C4897 0.950 . S
H4886 C4894 0.950 . S
H4887 C4896 0.950 . S
H4888 C4898 0.950 . S
H4889 C4900 0.950 . S
H4890 C4902 0.950 . S
H4891 C4903 0.950 . S
C4892 H4884 0.950 . S
C4892 C4893 1.386 . S
C4892 C4894 1.391 . S
C4893 C4892 1.386 . S
C4893 C4897 1.393 . S
C4894 H4886 0.950 . S
C4894 C4892 1.391 . S
C4894 C4895 1.400 . S
C4895 C4894 1.400 . S
C4895 C4896 1.398 . S
C4895 C4901 1.491 . S
C4896 H4887 0.950 . S
C4896 C4895 1.398 . S
C4896 C4897 1.391 . S
C4897 H4885 0.950 . S
C4897 C4893 1.393 . S
C4897 C4896 1.391 . S
C4898 H4888 0.950 . S
C4898 C4899 1.386 . S
C4898 C4900 1.391 . S
C4899 C4898 1.386 . S
C4899 C4903 1.393 . S
C4900 H4889 0.950 . S
C4900 C4898 1.391 . S
C4900 C4901 1.400 . S
C4901 C4895 1.491 . S
C4901 C4900 1.400 . S
C4901 C4902 1.398 . S
C4902 H4890 0.950 . S
C4902 C4901 1.398 . S
C4902 C4903 1.391 . S
C4903 H4891 0.950 . S
C4903 C4899 1.393 . S
C4903 C4902 1.391 . S
H4904 C4912 0.950 . S
H4905 C4917 0.950 . S
H4906 C4914 0.950 . S
H4907 C4916 0.950 . S
H4908 C4918 0.950 . S
H4909 C4920 0.950 . S
H4910 C4922 0.950 . S
H4911 C4923 0.950 . S
C4912 H4904 0.950 . S
C4912 C4913 1.386 . S
C4912 C4914 1.391 . S
C4913 C4912 1.386 . S
C4913 C4917 1.393 . S
C4914 H4906 0.950 . S
C4914 C4912 1.391 . S
C4914 C4915 1.400 . S
C4915 C4914 1.400 . S
C4915 C4916 1.398 . S
C4915 C4921 1.491 . S
C4916 H4907 0.950 . S
C4916 C4915 1.398 . S
C4916 C4917 1.391 . S
C4917 H4905 0.950 . S
C4917 C4913 1.393 . S
C4917 C4916 1.391 . S
C4918 H4908 0.950 . S
C4918 C4919 1.386 . S
C4918 C4920 1.391 . S
C4919 C4918 1.386 . S
C4919 C4923 1.393 . S
C4920 H4909 0.950 . S
C4920 C4918 1.391 . S
C4920 C4921 1.400 . S
C4921 C4915 1.491 . S
C4921 C4920 1.400 . S
C4921 C4922 1.398 . S
C4922 H4910 0.950 . S
C4922 C4921 1.398 . S
C4922 C4923 1.391 . S
C4923 H4911 0.950 . S
C4923 C4919 1.393 . S
C4923 C4922 1.391 . S
H4924 C4932 0.950 . S
H4925 C4937 0.950 . S
H4926 C4934 0.950 . S
H4927 C4936 0.950 . S
H4928 C4938 0.950 . S
H4929 C4940 0.950 . S
H4930 C4942 0.950 . S
H4931 C4943 0.950 . S
C4932 H4924 0.950 . S
C4932 C4933 1.386 . S
C4932 C4934 1.391 . S
C4933 C4932 1.386 . S
C4933 C4937 1.393 . S
C4934 H4926 0.950 . S
C4934 C4932 1.391 . S
C4934 C4935 1.400 . S
C4935 C4934 1.400 . S
C4935 C4936 1.398 . S
C4935 C4941 1.491 . S
C4936 H4927 0.950 . S
C4936 C4935 1.398 . S
C4936 C4937 1.391 . S
C4937 H4925 0.950 . S
C4937 C4933 1.393 . S
C4937 C4936 1.391 . S
C4938 H4928 0.950 . S
C4938 C4939 1.386 . S
C4938 C4940 1.391 . S
C4939 C4938 1.386 . S
C4939 C4943 1.393 . S
C4940 H4929 0.950 . S
C4940 C4938 1.391 . S
C4940 C4941 1.400 . S
C4941 C4935 1.491 . S
C4941 C4940 1.400 . S
C4941 C4942 1.398 . S
C4942 H4930 0.950 . S
C4942 C4941 1.398 . S
C4942 C4943 1.391 . S
C4943 H4931 0.950 . S
C4943 C4939 1.393 . S
C4943 C4942 1.391 . S
H4944 C4952 0.950 . S
H4945 C4957 0.950 . S
H4946 C4954 0.950 . S
H4947 C4956 0.950 . S
H4948 C4958 0.950 . S
H4949 C4960 0.950 . S
H4950 C4962 0.950 . S
H4951 C4963 0.950 . S
C4952 H4944 0.950 . S
C4952 C4953 1.386 . S
C4952 C4954 1.391 . S
C4953 C4952 1.386 . S
C4953 C4957 1.393 . S
C4954 H4946 0.950 . S
C4954 C4952 1.391 . S
C4954 C4955 1.400 . S
C4955 C4954 1.400 . S
C4955 C4956 1.398 . S
C4955 C4961 1.491 . S
C4956 H4947 0.950 . S
C4956 C4955 1.398 . S
C4956 C4957 1.391 . S
C4957 H4945 0.950 . S
C4957 C4953 1.393 . S
C4957 C4956 1.391 . S
C4958 H4948 0.950 . S
C4958 C4959 1.386 . S
C4958 C4960 1.391 . S
C4959 C4958 1.386 . S
C4959 C4963 1.393 . S
C4960 H4949 0.950 . S
C4960 C4958 1.391 . S
C4960 C4961 1.400 . S
C4961 C4955 1.491 . S
C4961 C4960 1.400 . S
C4961 C4962 1.398 . S
C4962 H4950 0.950 . S
C4962 C4961 1.398 . S
C4962 C4963 1.391 . S
C4963 H4951 0.950 . S
C4963 C4959 1.393 . S
C4963 C4962 1.391 . S
H4964 C4972 0.950 . S
H4965 C4977 0.950 . S
H4966 C4974 0.950 . S
H4967 C4976 0.950 . S
H4968 C4978 0.950 . S
H4969 C4980 0.950 . S
H4970 C4982 0.950 . S
H4971 C4983 0.950 . S
C4972 H4964 0.950 . S
C4972 C4973 1.386 . S
C4972 C4974 1.391 . S
C4973 C4972 1.386 . S
C4973 C4977 1.393 . S
C4974 H4966 0.950 . S
C4974 C4972 1.391 . S
C4974 C4975 1.400 . S
C4975 C4974 1.400 . S
C4975 C4976 1.398 . S
C4975 C4981 1.491 . S
C4976 H4967 0.950 . S
C4976 C4975 1.398 . S
C4976 C4977 1.391 . S
C4977 H4965 0.950 . S
C4977 C4973 1.393 . S
C4977 C4976 1.391 . S
C4978 H4968 0.950 . S
C4978 C4979 1.386 . S
C4978 C4980 1.391 . S
C4979 C4978 1.386 . S
C4979 C4983 1.393 . S
C4980 H4969 0.950 . S
C4980 C4978 1.391 . S
C4980 C4981 1.400 . S
C4981 C4975 1.491 . S
C4981 C4980 1.400 . S
C4981 C4982 1.398 . S
C4982 H4970 0.950 . S
C4982 C4981 1.398 . S
C4982 C4983 1.391 . S
C4983 H4971 0.950 . S
C4983 C4979 1.393 . S
C4983 C4982 1.391 . S
H4984 C4992 0.950 . S
H4985 C4997 0.950 . S
H4986 C4994 0.950 . S
H4987 C4996 0.950 . S
H4988 C4998 0.950 . S
H4989 C5000 0.950 . S
H4990 C5002 0.950 . S
H4991 C5003 0.950 . S
C4992 H4984 0.950 . S
C4992 C4993 1.386 . S
C4992 C4994 1.391 . S
C4993 C4992 1.386 . S
C4993 C4997 1.393 . S
C4994 H4986 0.950 . S
C4994 C4992 1.391 . S
C4994 C4995 1.400 . S
C4995 C4994 1.400 . S
C4995 C4996 1.398 . S
C4995 C5001 1.491 . S
C4996 H4987 0.950 . S
C4996 C4995 1.398 . S
C4996 C4997 1.391 . S
C4997 H4985 0.950 . S
C4997 C4993 1.393 . S
C4997 C4996 1.391 . S
C4998 H4988 0.950 . S
C4998 C4999 1.386 . S
C4998 C5000 1.391 . S
C4999 C4998 1.386 . S
C4999 C5003 1.393 . S
C5000 H4989 0.950 . S
C5000 C4998 1.391 . S
C5000 C5001 1.400 . S
C5001 C4995 1.491 . S
C5001 C5000 1.400 . S
C5001 C5002 1.398 . S
C5002 H4990 0.950 . S
C5002 C5001 1.398 . S
C5002 C5003 1.391 . S
C5003 H4991 0.950 . S
C5003 C4999 1.393 . S
C5003 C5002 1.391 . S
H5004 C5012 0.950 . S
H5005 C5017 0.950 . S
H5006 C5014 0.950 . S
H5007 C5016 0.950 . S
H5008 C5018 0.950 . S
H5009 C5020 0.950 . S
H5010 C5022 0.950 . S
H5011 C5023 0.950 . S
C5012 H5004 0.950 . S
C5012 C5013 1.386 . S
C5012 C5014 1.391 . S
C5013 C5012 1.386 . S
C5013 C5017 1.393 . S
C5014 H5006 0.950 . S
C5014 C5012 1.391 . S
C5014 C5015 1.400 . S
C5015 C5014 1.400 . S
C5015 C5016 1.398 . S
C5015 C5021 1.491 . S
C5016 H5007 0.950 . S
C5016 C5015 1.398 . S
C5016 C5017 1.391 . S
C5017 H5005 0.950 . S
C5017 C5013 1.393 . S
C5017 C5016 1.391 . S
C5018 H5008 0.950 . S
C5018 C5019 1.386 . S
C5018 C5020 1.391 . S
C5019 C5018 1.386 . S
C5019 C5023 1.393 . S
C5020 H5009 0.950 . S
C5020 C5018 1.391 . S
C5020 C5021 1.400 . S
C5021 C5015 1.491 . S
C5021 C5020 1.400 . S
C5021 C5022 1.398 . S
C5022 H5010 0.950 . S
C5022 C5021 1.398 . S
C5022 C5023 1.391 . S
C5023 H5011 0.950 . S
C5023 C5019 1.393 . S
C5023 C5022 1.391 . S
H5024 C5032 0.950 . S
H5025 C5037 0.950 . S
H5026 C5034 0.950 . S
H5027 C5036 0.950 . S
H5028 C5038 0.950 . S
H5029 C5040 0.950 . S
H5030 C5042 0.950 . S
H5031 C5043 0.950 . S
C5032 H5024 0.950 . S
C5032 C5033 1.386 . S
C5032 C5034 1.391 . S
C5033 C5032 1.386 . S
C5033 C5037 1.393 . S
C5034 H5026 0.950 . S
C5034 C5032 1.391 . S
C5034 C5035 1.400 . S
C5035 C5034 1.400 . S
C5035 C5036 1.398 . S
C5035 C5041 1.491 . S
C5036 H5027 0.950 . S
C5036 C5035 1.398 . S
C5036 C5037 1.391 . S
C5037 H5025 0.950 . S
C5037 C5033 1.393 . S
C5037 C5036 1.391 . S
C5038 H5028 0.950 . S
C5038 C5039 1.386 . S
C5038 C5040 1.391 . S
C5039 C5038 1.386 . S
C5039 C5043 1.393 . S
C5040 H5029 0.950 . S
C5040 C5038 1.391 . S
C5040 C5041 1.400 . S
C5041 C5035 1.491 . S
C5041 C5040 1.400 . S
C5041 C5042 1.398 . S
C5042 H5030 0.950 . S
C5042 C5041 1.398 . S
C5042 C5043 1.391 . S
C5043 H5031 0.950 . S
C5043 C5039 1.393 . S
C5043 C5042 1.391 . S
H5044 C5052 0.950 . S
H5045 C5057 0.950 . S
H5046 C5054 0.950 . S
H5047 C5056 0.950 . S
H5048 C5058 0.950 . S
H5049 C5060 0.950 . S
H5050 C5062 0.950 . S
H5051 C5063 0.950 . S
C5052 H5044 0.950 . S
C5052 C5053 1.386 . S
C5052 C5054 1.391 . S
C5053 C5052 1.386 . S
C5053 C5057 1.393 . S
C5054 H5046 0.950 . S
C5054 C5052 1.391 . S
C5054 C5055 1.400 . S
C5055 C5054 1.400 . S
C5055 C5056 1.398 . S
C5055 C5061 1.491 . S
C5056 H5047 0.950 . S
C5056 C5055 1.398 . S
C5056 C5057 1.391 . S
C5057 H5045 0.950 . S
C5057 C5053 1.393 . S
C5057 C5056 1.391 . S
C5058 H5048 0.950 . S
C5058 C5059 1.386 . S
C5058 C5060 1.391 . S
C5059 C5058 1.386 . S
C5059 C5063 1.393 . S
C5060 H5049 0.950 . S
C5060 C5058 1.391 . S
C5060 C5061 1.400 . S
C5061 C5055 1.491 . S
C5061 C5060 1.400 . S
C5061 C5062 1.398 . S
C5062 H5050 0.950 . S
C5062 C5061 1.398 . S
C5062 C5063 1.391 . S
C5063 H5051 0.950 . S
C5063 C5059 1.393 . S
C5063 C5062 1.391 . S
H5064 C5072 0.950 . S
H5065 C5077 0.950 . S
H5066 C5074 0.950 . S
H5067 C5076 0.950 . S
H5068 C5078 0.950 . S
H5069 C5080 0.950 . S
H5070 C5082 0.950 . S
H5071 C5083 0.950 . S
C5072 H5064 0.950 . S
C5072 C5073 1.386 . S
C5072 C5074 1.391 . S
C5073 C5072 1.386 . S
C5073 C5077 1.393 . S
C5074 H5066 0.950 . S
C5074 C5072 1.391 . S
C5074 C5075 1.400 . S
C5075 C5074 1.400 . S
C5075 C5076 1.398 . S
C5075 C5081 1.491 . S
C5076 H5067 0.950 . S
C5076 C5075 1.398 . S
C5076 C5077 1.391 . S
C5077 H5065 0.950 . S
C5077 C5073 1.393 . S
C5077 C5076 1.391 . S
C5078 H5068 0.950 . S
C5078 C5079 1.386 . S
C5078 C5080 1.391 . S
C5079 C5078 1.386 . S
C5079 C5083 1.393 . S
C5080 H5069 0.950 . S
C5080 C5078 1.391 . S
C5080 C5081 1.400 . S
C5081 C5075 1.491 . S
C5081 C5080 1.400 . S
C5081 C5082 1.398 . S
C5082 H5070 0.950 . S
C5082 C5081 1.398 . S
C5082 C5083 1.391 . S
C5083 H5071 0.950 . S
C5083 C5079 1.393 . S
C5083 C5082 1.391 . S
H5084 C5092 0.950 . S
H5085 C5097 0.950 . S
H5086 C5094 0.950 . S
H5087 C5096 0.950 . S
H5088 C5098 0.950 . S
H5089 C5100 0.950 . S
H5090 C5102 0.950 . S
H5091 C5103 0.950 . S
C5092 H5084 0.950 . S
C5092 C5093 1.386 . S
C5092 C5094 1.391 . S
C5093 C5092 1.386 . S
C5093 C5097 1.393 . S
C5094 H5086 0.950 . S
C5094 C5092 1.391 . S
C5094 C5095 1.400 . S
C5095 C5094 1.400 . S
C5095 C5096 1.398 . S
C5095 C5101 1.491 . S
C5096 H5087 0.950 . S
C5096 C5095 1.398 . S
C5096 C5097 1.391 . S
C5097 H5085 0.950 . S
C5097 C5093 1.393 . S
C5097 C5096 1.391 . S
C5098 H5088 0.950 . S
C5098 C5099 1.386 . S
C5098 C5100 1.391 . S
C5099 C5098 1.386 . S
C5099 C5103 1.393 . S
C5100 H5089 0.950 . S
C5100 C5098 1.391 . S
C5100 C5101 1.400 . S
C5101 C5095 1.491 . S
C5101 C5100 1.400 . S
C5101 C5102 1.398 . S
C5102 H5090 0.950 . S
C5102 C5101 1.398 . S
C5102 C5103 1.391 . S
C5103 H5091 0.950 . S
C5103 C5099 1.393 . S
C5103 C5102 1.391 . S
H5104 C5112 0.950 . S
H5105 C5117 0.950 . S
H5106 C5114 0.950 . S
H5107 C5116 0.950 . S
H5108 C5118 0.950 . S
H5109 C5120 0.950 . S
H5110 C5122 0.950 . S
H5111 C5123 0.950 . S
C5112 H5104 0.950 . S
C5112 C5113 1.386 . S
C5112 C5114 1.391 . S
C5113 C5112 1.386 . S
C5113 C5117 1.393 . S
C5114 H5106 0.950 . S
C5114 C5112 1.391 . S
C5114 C5115 1.400 . S
C5115 C5114 1.400 . S
C5115 C5116 1.398 . S
C5115 C5121 1.491 . S
C5116 H5107 0.950 . S
C5116 C5115 1.398 . S
C5116 C5117 1.391 . S
C5117 H5105 0.950 . S
C5117 C5113 1.393 . S
C5117 C5116 1.391 . S
C5118 H5108 0.950 . S
C5118 C5119 1.386 . S
C5118 C5120 1.391 . S
C5119 C5118 1.386 . S
C5119 C5123 1.393 . S
C5120 H5109 0.950 . S
C5120 C5118 1.391 . S
C5120 C5121 1.400 . S
C5121 C5115 1.491 . S
C5121 C5120 1.400 . S
C5121 C5122 1.398 . S
C5122 H5110 0.950 . S
C5122 C5121 1.398 . S
C5122 C5123 1.391 . S
C5123 H5111 0.950 . S
C5123 C5119 1.393 . S
C5123 C5122 1.391 . S
H5124 C5132 0.950 . S
H5125 C5137 0.950 . S
H5126 C5134 0.950 . S
H5127 C5136 0.950 . S
H5128 C5138 0.950 . S
H5129 C5140 0.950 . S
H5130 C5142 0.950 . S
H5131 C5143 0.950 . S
C5132 H5124 0.950 . S
C5132 C5133 1.386 . S
C5132 C5134 1.391 . S
C5133 C5132 1.386 . S
C5133 C5137 1.393 . S
C5134 H5126 0.950 . S
C5134 C5132 1.391 . S
C5134 C5135 1.400 . S
C5135 C5134 1.400 . S
C5135 C5136 1.398 . S
C5135 C5141 1.491 . S
C5136 H5127 0.950 . S
C5136 C5135 1.398 . S
C5136 C5137 1.391 . S
C5137 H5125 0.950 . S
C5137 C5133 1.393 . S
C5137 C5136 1.391 . S
C5138 H5128 0.950 . S
C5138 C5139 1.386 . S
C5138 C5140 1.391 . S
C5139 C5138 1.386 . S
C5139 C5143 1.393 . S
C5140 H5129 0.950 . S
C5140 C5138 1.391 . S
C5140 C5141 1.400 . S
C5141 C5135 1.491 . S
C5141 C5140 1.400 . S
C5141 C5142 1.398 . S
C5142 H5130 0.950 . S
C5142 C5141 1.398 . S
C5142 C5143 1.391 . S
C5143 H5131 0.950 . S
C5143 C5139 1.393 . S
C5143 C5142 1.391 . S
H5144 C5152 0.950 . S
H5145 C5157 0.950 . S
H5146 C5154 0.950 . S
H5147 C5156 0.950 . S
H5148 C5158 0.950 . S
H5149 C5160 0.950 . S
H5150 C5162 0.950 . S
H5151 C5163 0.950 . S
C5152 H5144 0.950 . S
C5152 C5153 1.386 . S
C5152 C5154 1.391 . S
C5153 C5152 1.386 . S
C5153 C5157 1.393 . S
C5154 H5146 0.950 . S
C5154 C5152 1.391 . S
C5154 C5155 1.400 . S
C5155 C5154 1.400 . S
C5155 C5156 1.398 . S
C5155 C5161 1.491 . S
C5156 H5147 0.950 . S
C5156 C5155 1.398 . S
C5156 C5157 1.391 . S
C5157 H5145 0.950 . S
C5157 C5153 1.393 . S
C5157 C5156 1.391 . S
C5158 H5148 0.950 . S
C5158 C5159 1.386 . S
C5158 C5160 1.391 . S
C5159 C5158 1.386 . S
C5159 C5163 1.393 . S
C5160 H5149 0.950 . S
C5160 C5158 1.391 . S
C5160 C5161 1.400 . S
C5161 C5155 1.491 . S
C5161 C5160 1.400 . S
C5161 C5162 1.398 . S
C5162 H5150 0.950 . S
C5162 C5161 1.398 . S
C5162 C5163 1.391 . S
C5163 H5151 0.950 . S
C5163 C5159 1.393 . S
C5163 C5162 1.391 . S
H5164 C5172 0.950 . S
H5165 C5177 0.950 . S
H5166 C5174 0.950 . S
H5167 C5176 0.950 . S
H5168 C5178 0.950 . S
H5169 C5180 0.950 . S
H5170 C5182 0.950 . S
H5171 C5183 0.950 . S
C5172 H5164 0.950 . S
C5172 C5173 1.386 . S
C5172 C5174 1.391 . S
C5173 C5172 1.386 . S
C5173 C5177 1.393 . S
C5174 H5166 0.950 . S
C5174 C5172 1.391 . S
C5174 C5175 1.400 . S
C5175 C5174 1.400 . S
C5175 C5176 1.398 . S
C5175 C5181 1.491 . S
C5176 H5167 0.950 . S
C5176 C5175 1.398 . S
C5176 C5177 1.391 . S
C5177 H5165 0.950 . S
C5177 C5173 1.393 . S
C5177 C5176 1.391 . S
C5178 H5168 0.950 . S
C5178 C5179 1.386 . S
C5178 C5180 1.391 . S
C5179 C5178 1.386 . S
C5179 C5183 1.393 . S
C5180 H5169 0.950 . S
C5180 C5178 1.391 . S
C5180 C5181 1.400 . S
C5181 C5175 1.491 . S
C5181 C5180 1.400 . S
C5181 C5182 1.398 . S
C5182 H5170 0.950 . S
C5182 C5181 1.398 . S
C5182 C5183 1.391 . S
C5183 H5171 0.950 . S
C5183 C5179 1.393 . S
C5183 C5182 1.391 . S
C1353 C1 1.481 . S
C1359 C127 1.481 . S
C1373 C141 1.481 . S
C1379 C15 1.482 . S
C1393 C41 1.496 . S
C1399 C154 1.497 . S
C1413 C43 1.480 . S
C1419 C124 1.481 . S
C1433 C57 1.491 . S
C1439 C211 1.491 . S
C1453 C180 1.494 . S
C1459 C83 1.494 . S
C1473 C97 1.496 . S
C1479 C195 1.496 . S
C1493 C197 1.489 . S
C1499 C98 1.490 . S
C1513 C264 1.481 . S
C1519 C225 1.480 . S
C1533 C239 1.483 . S
C1539 C992 1.484 . S
C1553 C1006 1.493 . S
C1559 C266 1.492 . S
C1573 C292 1.497 . S
C1579 C978 1.497 . S
C1593 C964 1.495 . S
C1599 C306 1.495 . S
C1613 C911 1.482 . S
C1619 C309 1.482 . S
C1633 C323 1.495 . S
C1639 C939 1.495 . S
C1653 C337 1.482 . S
C1659 C463 1.482 . S
C1673 C350 1.496 . S
C1679 C476 1.496 . S
C1693 C490 1.481 . S
C1699 C365 1.482 . S
C1713 C461 1.490 . S
C1719 C391 1.490 . S
C1733 C547 1.496 . S
C1739 C393 1.496 . S
C1753 C407 1.483 . S
C1759 C517 1.484 . S
C1773 C433 1.495 . S
C1779 C519 1.495 . S
C1793 C446 1.491 . S
C1799 C545 1.492 . S
C1813 C561 1.493 . S
C1819 C601 1.493 . S
C1833 C575 1.483 . S
C1839 C1329 1.483 . S
C1853 C1343 1.492 . S
C1859 C602 1.491 . S
C1873 C629 1.497 . S
C1879 C1303 1.497 . S
C1893 C631 1.481 . S
C1899 C1301 1.481 . S
C1913 C657 1.490 . S
C1919 C1258 1.489 . S
C1933 C671 1.489 . S
C1939 C1274 1.488 . S
C1953 C672 1.495 . S
C1959 C799 1.494 . S
C1973 C824 1.491 . S
C1979 C699 1.489 . S
C1993 C827 1.494 . S
C1999 C701 1.494 . S
C2013 C727 1.493 . S
C2019 C785 1.493 . S
C2033 C740 1.487 . S
C2039 C882 1.487 . S
C2053 C742 1.483 . S
C2059 C852 1.483 . S
C2073 C756 1.497 . S
C2079 C855 1.496 . S
C2093 C869 1.480 . S
C2099 C782 1.481 . S
C2113 C896 1.489 . S
C2119 C925 1.488 . S
C2133 C1008 1.490 . S
C2139 C1135 1.491 . S
C2153 C1035 1.494 . S
C2159 C1148 1.493 . S
C2173 C1162 1.481 . S
C2179 C1036 1.481 . S
C2193 C1133 1.487 . S
C2199 C1050 1.486 . S
C2213 C1076 1.489 . S
C2219 C1218 1.490 . S
C2233 C1189 1.483 . S
C2239 C1079 1.483 . S
C2253 C1203 1.485 . S
C2259 C1092 1.484 . S
C2273 C1217 1.497 . S
C2279 C1107 1.497 . S
C2293 C1245 1.497 . S
C2299 C1273 1.497 . S
C2313 C13 2.164 1_655 S
C2319 C280 2.205 . S
C2333 C27 2.198 . S
C2339 C923 2.204 . S
C2353 C937 2.199 . S
C2359 C29 2.197 . S
C2373 C951 2.199 1_554 S
C2379 C55 2.207 . S
C2393 C69 2.166 1_655 S
C2399 C994 2.204 . S
C2413 C294 2.214 . S
C2419 C71 2.202 . S
C2433 C85 2.204 . S
C2439 C980 2.202 . S
C2453 C110 2.220 . S
C2459 C237 2.214 1_556 S
C2473 C112 2.177 1_565 S
C2479 C223 2.198 . S
C2493 C168 2.175 1_545 S
C2499 C139 2.198 . S
C2513 C153 2.208 1_545 S
C2519 C183 2.215 . S
C2533 C166 2.202 . S
C2539 C209 2.171 1_565 S
C2553 C687 2.211 . S
C2559 C251 2.203 1_554 S
C2573 C713 2.212 1_455 S
C2579 C252 2.220 . S
C2593 C715 2.198 . S
C2599 C278 2.201 . S
C2613 C768 2.194 1_455 S
C2619 C321 2.209 . S
C2633 C335 2.207 . S
C2639 C728 2.218 . S
C2653 C349 2.198 1_455 S
C2659 C617 2.210 . S
C2673 C362 2.208 . S
C2679 C1246 2.214 . S
C2693 C1261 2.205 . S
C2699 C377 2.201 . S
C2713 C1286 2.197 1_556 S
C2719 C379 2.205 . S
C2733 C1331 2.202 . S
C2739 C405 2.177 1_455 S
C2753 C643 2.215 . S
C2759 C419 2.207 . S
C2773 C421 2.219 . S
C2779 C1317 2.213 . S
C2793 C434 2.216 . S
C2799 C573 2.216 1_554 S
C2813 C559 2.205 . S
C2819 C449 2.201 1_545 S
C2833 C475 2.211 . S
C2839 C505 2.197 1_565 S
C2853 C531 2.205 . S
C2859 C488 2.161 1_565 S
C2873 C502 2.202 . S
C2879 C533 2.201 1_545 S
C2893 C1023 2.214 . S
C2899 C587 2.206 1_556 S
C2913 C589 2.219 . S
C2919 C1048 2.209 1_655 S
C2933 C614 2.200 . S
C2939 C1062 2.208 . S
C2953 C645 2.203 . S
C2959 C1104 2.196 1_655 S
C2973 C659 2.217 . S
C2979 C1064 2.206 . S
C2993 C684 2.220 . S
C2999 C952 2.218 . S
C3013 C966 2.203 1_556 S
C3019 C754 2.210 . S
C3033 C770 2.206 . S
C3039 C908 2.214 . S
C3053 C894 2.201 . S
C3059 C797 2.200 . S
C3073 C840 2.220 . S
C3079 C811 2.212 . S
C3093 C812 2.214 . S
C3099 C867 2.202 . S
C3113 C839 2.197 . S
C3119 C881 2.198 . S
C3133 C1289 2.207 . S
C3139 C1020 2.197 . S
C3153 C1091 2.210 . S
C3159 C1315 2.203 1_554 S
C3173 C1233 2.207 . S
C3179 C1119 2.215 . S
C3193 C1121 2.212 . S
C3199 C1230 2.215 . S
C3213 C1177 2.205 . S
C3219 C1147 2.201 . S
C3233 C1160 2.198 . S
C3239 C1191 2.201 . S
C3253 C1205 2.208 . S
C3259 C1174 2.212 . S
C3273 C12 1.504 . S
C3279 C603 1.561 . S
C3293 C628 1.567 . S
C3299 C26 1.512 . S
C3313 C574 1.624 . S
C3319 C28 1.507 . S
C3333 C54 1.529 . S
C3339 C1272 1.568 . S
C3353 C68 1.529 . S
C3359 C1302 1.631 . S
C3373 C70 1.512 . S
C3379 C1328 1.559 . S
C3393 C1244 1.569 . S
C3399 C84 1.529 . S
C3413 C1342 1.560 . S
C3419 C111 1.501 . S
C3433 C364 1.558 . S
C3439 C113 1.506 . S
C3453 C138 1.528 . S
C3459 C1051 1.566 . S
C3473 C336 1.629 . S
C3479 C152 1.529 . S
C3493 C1034 1.569 . S
C3499 C167 1.517 . S
C3513 C432 1.558 . S
C3519 C169 1.504 . S
C3533 C182 1.528 . S
C3539 C1106 1.570 . S
C3553 C208 1.518 . S
C3559 C392 1.620 . S
C3573 C222 1.511 . S
C3579 C1078 1.558 . S
C3593 C236 1.512 . S
C3599 C1188 1.559 . S
C3613 C460 1.618 . S
C3619 C250 1.510 . S
C3633 C253 1.511 . S
C3639 C1134 1.567 . S
C3653 C279 1.506 . S
C3659 C477 1.620 . S
C3673 C281 1.511 . S
C3679 C491 1.559 . S
C3693 C295 1.510 . S
C3699 C1216 1.567 . S
C3713 C1219 1.559 . S
C3719 C320 1.504 . S
C3733 C1202 1.570 . S
C3739 C334 1.529 . S
C3753 C267 1.559 . S
C3759 C348 1.511 . S
C3773 C363 1.512 . S
C3779 C293 1.566 . S
C3793 C376 1.513 . S
C3799 C238 1.622 . S
C3813 C378 1.501 . S
C3819 C924 1.559 . S
C3833 C979 1.631 . S
C3839 C404 1.526 . S
C3853 C993 1.569 . S
C3859 C418 1.527 . S
C3873 C420 1.524 . S
C3879 C897 1.570 . S
C3893 C1007 1.570 . S
C3899 C435 1.529 . S
C3913 C448 1.518 . S
C3919 C40 1.569 . S
C3933 C726 1.566 . S
C3939 C474 1.525 . S
C3953 C489 1.528 . S
C3959 C0 1.633 . S
C3973 C698 1.569 . S
C3979 C503 1.519 . S
C3993 C504 1.519 . S
C3999 C96 1.562 . S
C4013 C783 1.570 . S
C4019 C530 1.526 . S
C4033 C56 1.630 . S
C4039 C532 1.510 . S
C4053 C743 1.564 . S
C4059 C558 1.505 . S
C4073 C572 1.525 . S
C4079 C853 1.566 . S
C4093 C586 1.502 . S
C4099 C125 1.619 . S
C4113 C798 1.567 . S
C4119 C588 1.510 . S
C4133 C615 1.505 . S
C4139 C140 1.620 . S
C4153 C155 1.560 . S
C4159 C616 1.501 . S
C4173 C868 1.570 . S
C4179 C642 1.522 . S
C4193 C883 1.568 . S
C4199 C644 1.527 . S
C4213 C854 1.566 . S
C4219 C658 1.510 . S
C4233 C685 1.501 . S
C4239 C1275 1.623 . S
C4253 C686 1.520 . S
C4259 C1300 1.561 . S
C4273 C712 1.510 . S
C4279 C1259 1.558 . S
C4293 C600 1.570 . S
C4299 C714 1.525 . S
C4313 C729 1.501 . S
C4319 C630 1.559 . S
C4333 C656 1.560 . S
C4339 C755 1.501 . S
C4353 C560 1.627 . S
C4359 C769 1.526 . S
C4373 C670 1.560 . S
C4379 C771 1.515 . S
C4393 C796 1.504 . S
C4399 C1037 1.623 . S
C4413 C390 1.558 . S
C4419 C810 1.508 . S
C4433 C813 1.522 . S
C4439 C1009 1.564 . S
C4453 C838 1.509 . S
C4459 C351 1.558 . S
C4473 C841 1.524 . S
C4479 C1093 1.633 . S
C4493 C866 1.523 . S
C4499 C447 1.563 . S
C4513 C1077 1.566 . S
C4519 C880 1.527 . S
C4533 C406 1.558 . S
C4539 C895 1.503 . S
C4553 C909 1.502 . S
C4559 C516 1.619 . S
C4573 C922 1.527 . S
C4579 C1132 1.570 . S
C4593 C936 1.504 . S
C4599 C462 1.559 . S
C4613 C1149 1.559 . S
C4619 C950 1.514 . S
C4633 C953 1.527 . S
C4639 C1163 1.569 . S
C4653 C967 1.508 . S
C4659 C544 1.618 . S
C4673 C546 1.569 . S
C4679 C981 1.527 . S
C4693 C995 1.502 . S
C4699 C518 1.562 . S
C4713 C1021 1.504 . S
C4719 C938 1.621 . S
C4733 C965 1.558 . S
C4739 C1022 1.502 . S
C4753 C910 1.558 . S
C4759 C1049 1.505 . S
C4773 C1063 1.528 . S
C4779 C265 1.566 . S
C4793 C1065 1.515 . S
C4799 C307 1.559 . S
C4813 C1090 1.526 . S
C4819 C308 1.567 . S
C4833 C224 1.633 . S
C4839 C1105 1.523 . S
C4853 C1118 1.526 . S
C4859 C322 1.567 . S
C4873 C1120 1.519 . S
C4879 C700 1.624 . S
C4893 C1146 1.519 . S
C4899 C42 1.570 . S
C4913 C1161 1.507 . S
C4919 C673 1.558 . S
C4933 C1175 1.514 . S
C4939 C14 1.567 . S
C4953 C1176 1.526 . S
C4959 C757 1.631 . S
C4973 C1190 1.517 . S
C4979 C99 1.569 . S
C4993 C1204 1.515 . S
C4999 C741 1.569 . S
C5013 C1231 1.528 . S
C5019 C82 1.570 . S
C5033 C1232 1.509 . S
C5039 C181 1.619 . S
C5053 C1247 1.504 . S
C5059 C784 1.561 . S
C5073 C1260 1.501 . S
C5079 C126 1.560 . S
C5093 C1287 1.525 . S
C5099 C825 1.564 . S
C5113 C1288 1.527 . S
C5119 C826 1.568 . S
C5133 C196 1.622 . S
C5139 C1314 1.501 . S
C5153 C1316 1.505 . S
C5159 C210 1.558 . S
C5173 C1330 1.520 . S
C5179 C194 1.570 . S
