# Generated by pormake.
# Topology snl, (6)-cn, num edge types: 1
# Building blocks:
#     Node 0, Type 0, BuildingBlock: NUHQIS_clean_sbu_0, # of connection points: 6
#     Node 1, Type 0, BuildingBlock: NUHQIS_clean_sbu_0, # of connection points: 6
#     Node 2, Type 0, BuildingBlock: NUHQIS_clean_sbu_0, # of connection points: 6
#     Node 3, Type 0, BuildingBlock: NUHQIS_clean_sbu_0, # of connection points: 6
#     Node 4, Type 0, BuildingBlock: NUHQIS_clean_sbu_0, # of connection points: 6
#     Node 5, Type 0, BuildingBlock: NUHQIS_clean_sbu_0, # of connection points: 6
#     Node 6, Type 0, BuildingBlock: NUHQIS_clean_sbu_0, # of connection points: 6
#     Node 7, Type 0, BuildingBlock: NUHQIS_clean_sbu_0, # of connection points: 6
#     Node 8, Type 0, BuildingBlock: NUHQIS_clean_sbu_0, # of connection points: 6
#     Node 9, Type 0, BuildingBlock: NUHQIS_clean_sbu_0, # of connection points: 6
#     Node 10, Type 0, BuildingBlock: NUHQIS_clean_sbu_0, # of connection points: 6
#     Node 11, Type 0, BuildingBlock: NUHQIS_clean_sbu_0, # of connection points: 6
#     Node 12, Type 0, BuildingBlock: NUHQIS_clean_sbu_0, # of connection points: 6
#     Node 13, Type 0, BuildingBlock: NUHQIS_clean_sbu_0, # of connection points: 6
#     Node 14, Type 0, BuildingBlock: NUHQIS_clean_sbu_0, # of connection points: 6
#     Node 15, Type 0, BuildingBlock: NUHQIS_clean_sbu_0, # of connection points: 6
#     Edge 16, Type (0, 0), BuildingBlock: AJUNOK_clean_linker_0, # of connection points: 2
#     Edge 17, Type (0, 0), BuildingBlock: AJUNOK_clean_linker_0, # of connection points: 2
#     Edge 18, Type (0, 0), BuildingBlock: AJUNOK_clean_linker_0, # of connection points: 2
#     Edge 19, Type (0, 0), BuildingBlock: AJUNOK_clean_linker_0, # of connection points: 2
#     Edge 20, Type (0, 0), BuildingBlock: AJUNOK_clean_linker_0, # of connection points: 2
#     Edge 21, Type (0, 0), BuildingBlock: AJUNOK_clean_linker_0, # of connection points: 2
#     Edge 22, Type (0, 0), BuildingBlock: AJUNOK_clean_linker_0, # of connection points: 2
#     Edge 23, Type (0, 0), BuildingBlock: AJUNOK_clean_linker_0, # of connection points: 2
#     Edge 24, Type (0, 0), BuildingBlock: AJUNOK_clean_linker_0, # of connection points: 2
#     Edge 25, Type (0, 0), BuildingBlock: AJUNOK_clean_linker_0, # of connection points: 2
#     Edge 26, Type (0, 0), BuildingBlock: AJUNOK_clean_linker_0, # of connection points: 2
#     Edge 27, Type (0, 0), BuildingBlock: AJUNOK_clean_linker_0, # of connection points: 2
#     Edge 28, Type (0, 0), BuildingBlock: AJUNOK_clean_linker_0, # of connection points: 2
#     Edge 29, Type (0, 0), BuildingBlock: AJUNOK_clean_linker_0, # of connection points: 2
#     Edge 30, Type (0, 0), BuildingBlock: AJUNOK_clean_linker_0, # of connection points: 2
#     Edge 31, Type (0, 0), BuildingBlock: AJUNOK_clean_linker_0, # of connection points: 2
#     Edge 32, Type (0, 0), BuildingBlock: AJUNOK_clean_linker_0, # of connection points: 2
#     Edge 33, Type (0, 0), BuildingBlock: AJUNOK_clean_linker_0, # of connection points: 2
#     Edge 34, Type (0, 0), BuildingBlock: AJUNOK_clean_linker_0, # of connection points: 2
#     Edge 35, Type (0, 0), BuildingBlock: AJUNOK_clean_linker_0, # of connection points: 2
#     Edge 36, Type (0, 0), BuildingBlock: AJUNOK_clean_linker_0, # of connection points: 2
#     Edge 37, Type (0, 0), BuildingBlock: AJUNOK_clean_linker_0, # of connection points: 2
#     Edge 38, Type (0, 0), BuildingBlock: AJUNOK_clean_linker_0, # of connection points: 2
#     Edge 39, Type (0, 0), BuildingBlock: AJUNOK_clean_linker_0, # of connection points: 2
#     Edge 40, Type (0, 0), BuildingBlock: AJUNOK_clean_linker_0, # of connection points: 2
#     Edge 41, Type (0, 0), BuildingBlock: AJUNOK_clean_linker_0, # of connection points: 2
#     Edge 42, Type (0, 0), BuildingBlock: AJUNOK_clean_linker_0, # of connection points: 2
#     Edge 43, Type (0, 0), BuildingBlock: AJUNOK_clean_linker_0, # of connection points: 2
#     Edge 44, Type (0, 0), BuildingBlock: AJUNOK_clean_linker_0, # of connection points: 2
#     Edge 45, Type (0, 0), BuildingBlock: AJUNOK_clean_linker_0, # of connection points: 2
#     Edge 46, Type (0, 0), BuildingBlock: AJUNOK_clean_linker_0, # of connection points: 2
#     Edge 47, Type (0, 0), BuildingBlock: AJUNOK_clean_linker_0, # of connection points: 2
#     Edge 48, Type (0, 0), BuildingBlock: AJUNOK_clean_linker_0, # of connection points: 2
#     Edge 49, Type (0, 0), BuildingBlock: AJUNOK_clean_linker_0, # of connection points: 2
#     Edge 50, Type (0, 0), BuildingBlock: AJUNOK_clean_linker_0, # of connection points: 2
#     Edge 51, Type (0, 0), BuildingBlock: AJUNOK_clean_linker_0, # of connection points: 2
#     Edge 52, Type (0, 0), BuildingBlock: AJUNOK_clean_linker_0, # of connection points: 2
#     Edge 53, Type (0, 0), BuildingBlock: AJUNOK_clean_linker_0, # of connection points: 2
#     Edge 54, Type (0, 0), BuildingBlock: AJUNOK_clean_linker_0, # of connection points: 2
#     Edge 55, Type (0, 0), BuildingBlock: AJUNOK_clean_linker_0, # of connection points: 2
#     Edge 56, Type (0, 0), BuildingBlock: AJUNOK_clean_linker_0, # of connection points: 2
#     Edge 57, Type (0, 0), BuildingBlock: AJUNOK_clean_linker_0, # of connection points: 2
#     Edge 58, Type (0, 0), BuildingBlock: AJUNOK_clean_linker_0, # of connection points: 2
#     Edge 59, Type (0, 0), BuildingBlock: AJUNOK_clean_linker_0, # of connection points: 2
#     Edge 60, Type (0, 0), BuildingBlock: AJUNOK_clean_linker_0, # of connection points: 2
#     Edge 61, Type (0, 0), BuildingBlock: AJUNOK_clean_linker_0, # of connection points: 2
#     Edge 62, Type (0, 0), BuildingBlock: AJUNOK_clean_linker_0, # of connection points: 2
#     Edge 63, Type (0, 0), BuildingBlock: AJUNOK_clean_linker_0, # of connection points: 2
# Relax obj value: 0.188
# Max RMSD: 0.263
# Mean RMSD: 0.242
data_MOF--net-snl--node1-NUHQIS_clean_sbu_0--edge1-AJUNOK_clean_linker_0
_symmetry_space_group_name_H-M    P1
_symmetry_Int_Tables_number       1
_symmetry_cell_setting            triclinic
loop_
_symmetry_equiv_pos_as_xyz
'x, y, z'
_cell_length_a     41.127268
_cell_length_b     40.537052
_cell_length_c     21.323115
_cell_angle_alpha  85.000043
_cell_angle_beta   95.538551
_cell_angle_gamma 90.142332
loop_
_atom_site_label
_atom_site_type_symbol
_atom_site_fract_x
_atom_site_fract_y
_atom_site_fract_z
_atom_type_partial_charge
Tb0 Tb 0.14439 0.61967 0.23033 0.0
Eu1 Eu 0.16136 0.65758 0.09226 0.0
C2 C 0.0892 0.63579 0.12125 0.0
C3 C 0.15978 0.58006 0.11548 0.0
C4 C 0.13932 0.59818 0.40287 0.0
C5 C 0.13481 0.58279 0.51461 0.0
C6 C 0.12961 0.57571 0.45124 0.0
C7 C 0.15482 0.62761 0.41877 0.0
C8 C 0.16015 0.63466 0.48207 0.0
C9 C 0.15 0.61246 0.53082 0.0
C10 C 0.13132 0.59177 0.33605 0.0
O11 O 0.19723 0.62354 0.23722 0.0
O12 O 0.20511 0.66657 0.16196 0.0
O13 O 0.14425 0.69729 0.14875 0.0
O14 O 0.15359 0.67125 0.2498 0.0
C15 C 0.21526 0.64728 0.21305 0.0
O16 O 0.19491 0.66661 1.01934 0.0
O17 O 0.14637 0.68798 1.00447 0.0
O18 O 0.11021 0.63634 0.07849 0.0
O19 O 0.09875 0.63803 0.18105 0.0
O20 O 0.13982 0.58263 0.15971 0.0
O21 O 0.1778 0.605 0.09758 0.0
C22 C 0.14766 0.69796 0.21056 0.0
O23 O 0.11288 0.61399 0.30217 0.0
O24 O 0.15534 0.5828 0.30551 0.0
C25 C 0.16961 0.67131 0.91484 0.0
C26 C 0.16379 0.65011 0.79123 0.0
C27 C 0.17784 0.68091 0.80332 0.0
C28 C 0.18075 0.69135 0.8645 0.0
C29 C 0.1555 0.64056 0.90325 0.0
C30 C 0.15253 0.6301 0.84197 0.0
C31 C 0.17328 0.68249 0.97917 0.0
H32 H 0.12605 0.56548 0.5507 0.0
H33 H 0.1173 0.55302 0.43989 0.0
H34 H 0.1622 0.64542 0.38208 0.0
H35 H 0.172 0.65766 0.49288 0.0
H36 H 0.18689 0.69684 0.76546 0.0
H37 H 0.1918 0.7151 0.87253 0.0
H38 H 0.14673 0.62472 0.94157 0.0
H39 H 0.14098 0.60658 0.83417 0.0
Tb40 Tb 0.65096 0.92067 0.33613 0.0
Eu41 Eu 0.67866 0.88763 0.48092 0.0
C42 C 0.60253 0.89431 0.4347 0.0
C43 C 0.65934 0.96276 0.45415 0.0
C44 C 0.64165 0.93711 0.16115 0.0
C45 C 0.64387 0.95366 0.04908 0.0
C46 C 0.6371 0.96112 0.10952 0.0
C47 C 0.65365 0.90569 0.15167 0.0
C48 C 0.66041 0.89823 0.09137 0.0
C49 C 0.65516 0.92196 0.03914 0.0
C50 C 0.63337 0.94475 0.22428 0.0
O51 O 0.70363 0.92598 0.34781 0.0
O52 O 0.71922 0.8816 0.41753 0.0
O53 O 0.66496 0.84493 0.42404 0.0
O54 O 0.66465 0.86985 0.32197 0.0
C55 C 0.72447 0.90215 0.36827 0.0
O56 O 0.71413 0.88891 0.56423 0.0
O57 O 0.6749 0.85313 0.56419 0.0
O58 O 0.62457 0.89803 0.48243 0.0
O59 O 0.60997 0.89613 0.37604 0.0
O60 O 0.64055 0.95709 0.40255 0.0
O61 O 0.68306 0.94251 0.47685 0.0
C62 C 0.66446 0.84345 0.36264 0.0
O63 O 0.61746 0.9219 0.25519 0.0
O64 O 0.65663 0.95704 0.26096 0.0
C65 C 0.69153 0.8756 0.66181 0.0
C66 C 0.67942 0.89096 0.78464 0.0
C67 C 0.71134 0.89187 0.76612 0.0
C68 C 0.71733 0.8841 0.70545 0.0
C69 C 0.65951 0.8753 0.67994 0.0
C70 C 0.65356 0.88286 0.74065 0.0
C71 C 0.6984 0.86698 0.5981 0.0
H72 H 0.63962 0.97247 1.00984 0.0
H73 H 0.62797 0.98554 0.11581 0.0
H74 H 0.65775 0.88687 0.19091 0.0
H75 H 0.66991 0.87388 0.08567 0.0
H76 H 0.73174 0.89802 0.79898 0.0
H77 H 0.74221 0.88459 0.6927 0.0
H78 H 0.63899 0.86928 0.64726 0.0
H79 H 0.62862 0.88269 0.75301 0.0
Tb80 Tb 0.36673 0.39453 0.60834 0.0
Eu81 Eu 0.40741 0.40333 0.74847 0.0
C82 C 0.39053 0.33253 0.69971 0.0
C83 C 0.32969 0.39846 0.73121 0.0
C84 C 0.34872 0.39111 0.43409 0.0
C85 C 0.33613 0.38059 0.32367 0.0
C86 C 0.32684 0.38064 0.38525 0.0
C87 C 0.38022 0.40116 0.42059 0.0
C88 C 0.38943 0.40132 0.35903 0.0
C89 C 0.36748 0.39113 0.30979 0.0
C90 C 0.33798 0.39317 0.49786 0.0
O91 O 0.36584 0.44497 0.63392 0.0
O92 O 0.41709 0.44782 0.68019 0.0
O93 O 0.44448 0.3862 0.68841 0.0
O94 O 0.41818 0.39938 0.58839 0.0
C95 C 0.39315 0.46133 0.6414 0.0
O96 O 0.41988 0.43513 0.82478 0.0
O97 O 0.43824 0.38481 0.83341 0.0
O98 O 0.39018 0.34999 0.74891 0.0
O99 O 0.388 0.34666 0.64159 0.0
O100 O 0.33049 0.38479 0.67729 0.0
O101 O 0.35485 0.41442 0.75574 0.0
C102 C 0.44445 0.39035 0.62659 0.0
O103 O 0.34269 0.36708 0.53795 0.0
O104 O 0.34599 0.42014 0.5244 0.0
C105 C 0.42524 0.40701 0.92699 0.0
C106 C 0.40617 0.39986 0.05156 0.0
C107 C 0.43626 0.41442 0.03905 0.0
C108 C 0.44566 0.41797 0.97739 0.0
C109 C 0.39526 0.39236 0.93908 0.0
C110 C 0.38572 0.38898 1.00068 0.0
C111 C 0.43505 0.41163 0.86202 0.0
H112 H 0.3185 0.3731 0.28657 0.0
H113 H 0.30236 0.37304 0.39449 0.0
H114 H 0.39753 0.40942 0.45745 0.0
H115 H 0.41377 0.40946 0.34984 0.0
H116 H 0.45265 0.42293 0.07708 0.0
H117 H 0.46889 0.42936 0.96903 0.0
H118 H 0.37916 0.38373 0.90076 0.0
H119 H 0.36208 0.37834 1.00823 0.0
Tb120 Tb 0.90184 0.12368 0.8609 0.0
Eu121 Eu 0.88648 0.15807 0.98804 0.0
C122 C 0.95945 0.14579 0.95353 0.0
C123 C 0.89683 0.08003 0.99006 0.0
C124 C 0.91043 0.10909 0.69289 0.0
C125 C 0.9164 0.09604 0.58565 0.0
C126 C 0.91818 0.08646 0.65049 0.0
C127 C 0.9022 0.14185 0.67018 0.0
C128 C 0.90025 0.15139 0.60536 0.0
C129 C 0.90652 0.12833 0.56242 0.0
C130 C 0.90743 0.09739 0.75916 0.0
O131 O 0.85252 0.11477 0.88411 0.0
O132 O 0.84327 0.16541 0.91226 0.0
O133 O 0.90401 0.19894 0.92489 0.0
O134 O 0.89423 0.17705 0.82875 0.0
C135 C 0.83286 0.14 0.88206 0.0
O136 O 0.85222 0.16543 0.0576 0.0
O137 O 0.89864 0.19092 0.06245 0.0
O138 O 0.94061 0.14345 1.00047 0.0
O139 O 0.94725 0.1455 0.8945 0.0
O140 O 0.91237 0.08447 0.9386 0.0
O141 O 0.8801 0.10382 1.00985 0.0
C142 C 0.90107 0.20232 0.86314 0.0
O143 O 0.93205 0.10254 0.80031 0.0
O144 O 0.8797 0.10441 0.77971 0.0
C145 C 0.87671 0.17578 0.1584 0.0
C146 C 0.88597 0.16065 0.29023 0.0
C147 C 0.87391 0.19188 0.26464 0.0
C148 C 0.86926 0.19933 0.19919 0.0
C149 C 0.88905 0.14467 0.18355 0.0
C150 C 0.89368 0.13716 0.24907 0.0
C151 C 0.87212 0.18422 0.08987 0.0
H152 H 0.92136 0.07784 0.55344 0.0
H153 H 0.92442 0.06105 0.66726 0.0
H154 H 0.89613 0.15967 0.7023 0.0
H155 H 0.89311 0.17658 0.58862 0.0
H156 H 0.86842 0.21066 0.29525 0.0
H157 H 0.86 0.22357 0.1804 0.0
H158 H 0.89508 0.12626 0.15252 0.0
H159 H 0.90297 0.11291 0.26759 0.0
Tb160 Tb 0.14458 0.42444 0.84846 0.0
Eu161 Eu 0.17396 0.39376 0.99301 0.0
C162 C 0.09728 0.41056 0.95604 0.0
C163 C 0.16262 0.46963 0.95858 0.0
C164 C 0.13711 0.44298 0.67258 0.0
C165 C 0.12285 0.42636 0.56636 0.0
C166 C 0.11411 0.43156 0.62656 0.0
C167 C 0.16909 0.44955 0.65675 0.0
C168 C 0.1778 0.44453 0.59624 0.0
C169 C 0.15484 0.43259 0.55043 0.0
C170 C 0.12708 0.44767 0.73631 0.0
O171 O 0.19735 0.42472 0.85204 0.0
O172 O 0.21136 0.38162 0.92676 0.0
O173 O 0.15092 0.35154 0.94513 0.0
O174 O 0.15231 0.3713 0.84077 0.0
C175 C 0.21709 0.40052 0.87567 0.0
O176 O 0.21106 0.39658 0.07332 0.0
O177 O 0.17228 0.36067 0.07899 0.0
O178 O 0.12169 0.40961 1.00103 0.0
O179 O 0.10153 0.4112 0.89566 0.0
O180 O 0.13987 0.46329 0.9135 0.0
O181 O 0.18517 0.44763 0.97856 0.0
C182 C 0.14856 0.34699 0.88471 0.0
O183 O 0.11329 0.42237 0.76486 0.0
O184 O 0.14758 0.46234 0.77531 0.0
C185 C 0.19112 0.38482 0.17391 0.0
C186 C 0.1821 0.40271 0.2968 0.0
C187 C 0.21278 0.4062 0.27292 0.0
C188 C 0.21725 0.39719 0.21232 0.0
C189 C 0.16037 0.38166 0.19748 0.0
C190 C 0.15595 0.39047 0.25813 0.0
C191 C 0.19636 0.37516 0.11 0.0
H192 H 0.10459 0.417 0.53241 0.0
H193 H 0.0893 0.42639 0.63735 0.0
H194 H 0.18744 0.45848 0.69103 0.0
H195 H 0.20247 0.4502 0.58523 0.0
H196 H 0.23328 0.41621 0.3008 0.0
H197 H 0.24119 0.39997 0.19535 0.0
H198 H 0.13965 0.37227 0.16925 0.0
H199 H 0.13207 0.38727 0.27513 0.0
Tb200 Tb 0.87805 0.88836 0.10981 0.0
Eu201 Eu 0.9184 0.8969 0.25051 0.0
C202 C 0.90114 0.8266 0.20194 0.0
C203 C 0.83971 0.89079 0.23257 0.0
C204 C 0.86151 0.88238 0.93554 0.0
C205 C 0.84779 0.87733 0.82316 0.0
C206 C 0.83824 0.87809 0.88437 0.0
C207 C 0.89461 0.88528 0.92485 0.0
C208 C 0.90416 0.88465 0.86363 0.0
C209 C 0.88084 0.88091 0.81197 0.0
C210 C 0.8507 0.88661 0.99844 0.0
O211 O 0.87185 0.93723 0.13978 0.0
O212 O 0.92318 0.94331 0.18393 0.0
O213 O 0.95554 0.8804 0.18934 0.0
O214 O 0.92914 0.89743 0.09151 0.0
C215 C 0.89737 0.95593 0.14933 0.0
O216 O 0.93062 0.92867 0.32673 0.0
O217 O 0.95071 0.87901 0.33407 0.0
O218 O 0.90048 0.84409 0.25085 0.0
O219 O 0.89981 0.84066 0.14384 0.0
O220 O 0.84015 0.88035 0.17554 0.0
O221 O 0.86553 0.90268 0.26377 0.0
C222 C 0.95553 0.88721 0.12796 0.0
O223 O 0.85322 0.86101 0.04023 0.0
O224 O 0.86065 0.91355 1.0232 0.0
C225 C 0.9372 0.90006 0.4284 0.0
C226 C 0.91903 0.89119 0.55346 0.0
C227 C 0.95158 0.89831 0.54204 0.0
C228 C 0.96056 0.90265 0.48011 0.0
C229 C 0.90471 0.89289 0.43943 0.0
C230 C 0.89568 0.8886 0.50132 0.0
C231 C 0.9467 0.90548 0.36329 0.0
H232 H 0.82916 0.87503 0.78429 0.0
H233 H 0.81255 0.87619 0.89148 0.0
H234 H 0.91298 0.88879 0.96359 0.0
H235 H 0.92979 0.88738 0.85656 0.0
H236 H 0.97015 0.90039 0.58109 0.0
H237 H 0.98575 0.9082 0.47258 0.0
H238 H 0.88627 0.89096 0.40011 0.0
H239 H 0.87029 0.8839 0.50826 0.0
Tb240 Tb 0.41633 0.62748 0.35188 0.0
Eu241 Eu 0.39339 0.65797 0.47875 0.0
C242 C 0.46799 0.64892 0.45659 0.0
C243 C 0.40246 0.58184 0.47353 0.0
C244 C 0.42685 0.60774 0.18765 0.0
C245 C 0.43653 0.59443 0.0822 0.0
C246 C 0.44221 0.5883 0.14789 0.0
C247 C 0.4052 0.63303 0.16114 0.0
C248 C 0.39954 0.63921 0.09541 0.0
C249 C 0.41553 0.62028 0.05527 0.0
C250 C 0.4346 0.60229 0.25645 0.0
O251 O 0.36337 0.62757 0.33755 0.0
O252 O 0.35015 0.66608 0.40441 0.0
O253 O 0.40712 0.70123 0.41476 0.0
O254 O 0.40284 0.67889 0.31827 0.0
C255 C 0.34259 0.64837 0.35613 0.0
O256 O 0.35892 0.66017 0.54999 0.0
O257 O 0.40268 0.6899 0.55569 0.0
O258 O 0.44707 0.64288 0.49904 0.0
O259 O 0.45827 0.65161 0.39619 0.0
O260 O 0.42367 0.58879 0.43183 0.0
O261 O 0.38178 0.6042 0.48543 0.0
C262 C 0.40495 0.70442 0.3528 0.0
O263 O 0.44943 0.62658 0.28311 0.0
O264 O 0.41129 0.59027 0.28875 0.0
C265 C 0.38269 0.66995 0.65152 0.0
C266 C 0.39373 0.65214 0.78253 0.0
C267 C 0.37314 0.67899 0.75929 0.0
C268 C 0.36774 0.68786 0.69428 0.0
C269 C 0.4029 0.64284 0.6743 0.0
C270 C 0.40838 0.63398 0.73936 0.0
C271 C 0.3771 0.67986 0.58346 0.0
H272 H 0.44861 0.57897 0.05246 0.0
H273 H 0.45889 0.5686 0.16766 0.0
H274 H 0.39313 0.64828 0.19128 0.0
H275 H 0.38324 0.65928 0.07596 0.0
H276 H 0.36163 0.69344 0.79151 0.0
H277 H 0.35203 0.70883 0.67739 0.0
H278 H 0.41445 0.62861 0.64176 0.0
H279 H 0.42388 0.61283 0.75592 0.0
Tb280 Tb 0.64848 0.11519 0.72204 0.0
Eu281 Eu 0.66413 0.15435 0.58398 0.0
C282 C 0.59183 0.14141 0.62181 0.0
C283 C 0.65368 0.07626 0.60057 0.0
C284 C 0.64121 0.09821 0.89491 0.0
C285 C 0.62838 0.08818 1.00403 0.0
C286 C 0.62656 0.07881 0.94203 0.0
C287 C 0.65745 0.12736 0.91054 0.0
C288 C 0.65945 0.13663 0.97256 0.0
C289 C 0.64499 0.11712 1.02006 0.0
C290 C 0.64074 0.0871 0.83063 0.0
O291 O 0.69951 0.1102 0.70657 0.0
O292 O 0.70763 0.16055 0.65653 0.0
O293 O 0.6515 0.19416 0.64383 0.0
O294 O 0.65824 0.16642 0.74407 0.0
C295 C 0.71793 0.13625 0.69844 0.0
O296 O 0.69712 0.16244 0.50975 0.0
O297 O 0.65043 0.18793 0.4999 0.0
O298 O 0.61072 0.1394 0.57593 0.0
O299 O 0.60393 0.14034 0.6812 0.0
O300 O 0.63874 0.0785 0.65226 0.0
O301 O 0.67151 0.10032 0.57756 0.0
C302 C 0.65447 0.19383 0.70582 0.0
O303 O 0.61673 0.09773 0.78962 0.0
O304 O 0.66845 0.08882 0.80586 0.0
C305 C 0.67041 0.17189 0.40661 0.0
C306 C 0.66043 0.1541 0.2807 0.0
C307 C 0.68069 0.18088 0.29597 0.0
C308 C 0.68564 0.18965 0.3583 0.0
C309 C 0.65016 0.14518 0.39179 0.0
C310 C 0.64535 0.13624 0.32955 0.0
C311 C 0.67626 0.18098 0.47229 0.0
H312 H 0.61744 0.07237 0.03977 0.0
H313 H 0.61412 0.05612 0.93109 0.0
H314 H 0.66899 0.14273 0.87498 0.0
H315 H 0.6723 0.15909 0.98344 0.0
H316 H 0.69257 0.19523 0.25956 0.0
H317 H 0.70141 0.21031 0.36879 0.0
H318 H 0.63818 0.13119 0.42848 0.0
H319 H 0.63022 0.11503 0.31991 0.0
Tb320 Tb 0.88716 0.38243 0.96416 0.0
Eu321 Eu 0.90526 0.41982 0.82597 0.0
C322 C 0.83395 0.39258 0.84711 0.0
C323 C 0.90269 0.34074 0.8514 0.0
C324 C 0.87785 0.36983 0.13672 0.0
C325 C 0.86812 0.36143 0.24764 0.0
C326 C 0.86491 0.35093 0.18652 0.0
C327 C 0.89406 0.3995 0.14879 0.0
C328 C 0.89725 0.41007 0.20998 0.0
C329 C 0.88425 0.39116 0.26017 0.0
C330 C 0.87391 0.35853 0.07251 0.0
O331 O 0.93663 0.40214 0.98163 0.0
O332 O 0.9522 0.40287 0.88084 0.0
O333 O 0.9108 0.45764 0.8994 0.0
O334 O 0.87283 0.43385 0.95934 0.0
C335 C 0.95931 0.40315 0.94199 0.0
O336 O 0.93688 0.42565 0.74942 0.0
O337 O 0.89441 0.45729 0.74642 0.0
O338 O 0.85088 0.4172 0.82327 0.0
O339 O 0.84559 0.37257 0.89614 0.0
O340 O 0.90598 0.3439 0.91263 0.0
O341 O 0.89634 0.36599 0.80896 0.0
C342 C 0.89223 0.45854 0.94622 0.0
O343 O 0.85329 0.37539 1.03185 0.0
O344 O 0.9007 0.35212 0.04775 0.0
C345 C 0.91025 0.44203 0.64889 0.0
C346 C 0.89907 0.42844 0.52068 0.0
C347 C 0.91587 0.45717 0.53749 0.0
C348 C 0.92132 0.46391 0.60101 0.0
C349 C 0.89308 0.4136 0.63241 0.0
C350 C 0.8875 0.4069 0.56895 0.0
C351 C 0.91833 0.44798 0.71584 0.0
H352 H 0.85772 0.34639 0.28513 0.0
H353 H 0.85225 0.32803 0.17812 0.0
H354 H 0.90434 0.41437 0.11093 0.0
H355 H 0.91035 0.43274 0.21818 0.0
H356 H 0.92569 0.47394 0.50179 0.0
H357 H 0.93485 0.48585 0.61287 0.0
H358 H 0.88455 0.39629 0.66876 0.0
H359 H 0.87435 0.38466 0.55766 0.0
Tb360 Tb 0.37666 0.14062 0.58994 0.0
Eu361 Eu 0.40738 0.11264 0.73464 0.0
C362 C 0.33244 0.13062 0.70345 0.0
C363 C 0.39527 0.19055 0.69414 0.0
C364 C 0.36056 0.14701 0.41375 0.0
C365 C 0.35267 0.15661 0.2991 0.0
C366 C 0.34604 0.16489 0.35899 0.0
C367 C 0.38165 0.12049 0.40783 0.0
C368 C 0.38799 0.11192 0.34783 0.0
C369 C 0.37372 0.13006 0.29282 0.0
C370 C 0.35454 0.15721 0.47641 0.0
O371 O 0.42896 0.1308 0.58325 0.0
O372 O 0.44852 0.13598 0.68666 0.0
O373 O 0.41737 0.07402 0.66672 0.0
O374 O 0.37145 0.08751 0.60246 0.0
C375 C 0.45296 0.13663 0.62657 0.0
O376 O 0.44073 0.1153 0.82001 0.0
O377 O 0.40659 0.07479 0.81443 0.0
O378 O 0.35308 0.10739 0.72777 0.0
O379 O 0.3385 0.14978 0.65258 0.0
O380 O 0.39279 0.18439 0.63441 0.0
O381 O 0.3947 0.16694 0.74075 0.0
C382 C 0.39626 0.06758 0.61894 0.0
O383 O 0.3408 0.1355 0.514 0.0
O384 O 0.37874 0.17184 0.50645 0.0
C385 C 0.41962 0.09476 0.91495 0.0
C386 C 0.40417 0.10401 0.03893 0.0
C387 C 0.42187 0.0759 1.02691 0.0
C388 C 0.42933 0.07126 0.96547 0.0
C389 C 0.40225 0.12297 0.92668 0.0
C390 C 0.39454 0.1275 0.98791 0.0
C391 C 0.42812 0.08991 0.85061 0.0
H392 H 0.34134 0.17099 0.25754 0.0
H393 H 0.32986 0.18555 0.36256 0.0
H394 H 0.39359 0.1068 0.44957 0.0
H395 H 0.4047 0.09168 0.34445 0.0
H396 H 0.43053 0.05775 0.06509 0.0
H397 H 0.44301 0.04945 0.95752 0.0
H398 H 0.39454 0.14148 0.88839 0.0
H399 H 0.38073 0.14933 0.99519 0.0
Tb400 Tb 0.64701 0.63149 0.3356 0.0
Eu401 Eu 0.68399 0.6501 0.47409 0.0
C402 C 0.65455 0.57871 0.45394 0.0
C403 C 0.60548 0.64877 0.44655 0.0
C404 C 0.63578 0.62073 0.16282 0.0
C405 C 0.62839 0.60934 0.05223 0.0
C406 C 0.61791 0.60633 0.11302 0.0
C407 C 0.66451 0.63805 0.15111 0.0
C408 C 0.67499 0.64117 0.09017 0.0
C409 C 0.65704 0.62682 0.0399 0.0
C410 C 0.6242 0.61738 0.22649 0.0
O411 O 0.66554 0.68206 0.31986 0.0
O412 O 0.66644 0.69754 0.42122 0.0
O413 O 0.72119 0.65568 0.4009 0.0
O414 O 0.69775 0.61626 0.34186 0.0
C415 C 0.66587 0.7049 0.36019 0.0
O416 O 0.69008 0.68176 0.55197 0.0
O417 O 0.72128 0.63881 0.55359 0.0
O418 O 0.67996 0.59502 0.47655 0.0
O419 O 0.63532 0.59075 0.40421 0.0
O420 O 0.60832 0.65076 0.38531 0.0
O421 O 0.6305 0.64263 0.48941 0.0
C422 C 0.72239 0.6356 0.35583 0.0
O423 O 0.64036 0.5966 0.26806 0.0
O424 O 0.61789 0.64484 0.25061 0.0
C425 C 0.70661 0.6544 0.6519 0.0
C426 C 0.69347 0.64263 0.77984 0.0
C427 C 0.7205 0.66176 0.76341 0.0
C428 C 0.72699 0.66754 0.70006 0.0
C429 C 0.67994 0.63485 0.66801 0.0
C430 C 0.67343 0.62904 0.73134 0.0
C431 C 0.7122 0.66286 0.58506 0.0
H432 H 0.6141 0.59783 1.0148 0.0
H433 H 0.59576 0.59276 0.12114 0.0
H434 H 0.67869 0.64934 0.189 0.0
H435 H 0.69679 0.65534 0.0822 0.0
H436 H 0.73606 0.67314 0.79928 0.0
H437 H 0.74756 0.68289 0.68853 0.0
H438 H 0.66384 0.62458 0.63149 0.0
H439 H 0.65254 0.61408 0.74237 0.0
Tb440 Tb 0.1644 0.8814 0.09219 0.0
Eu441 Eu 0.1393 0.91359 0.21658 0.0
C442 C 0.2137 0.89878 0.20597 0.0
C443 C 0.15094 0.83537 0.21354 0.0
C444 C 0.17819 0.86905 0.92499 0.0
C445 C 0.19127 0.86086 0.81865 0.0
C446 C 0.1966 0.85334 0.88415 0.0
C447 C 0.15464 0.89281 0.8996 0.0
C448 C 0.14923 0.9003 0.83399 0.0
C449 C 0.16723 0.88411 0.79271 0.0
C450 C 0.18346 0.85996 0.99364 0.0
O451 O 0.11243 0.8941 0.06673 0.0
O452 O 0.09654 0.88979 0.16734 0.0
O453 O 0.12947 0.95225 0.13244 0.0
O454 O 0.17085 0.93443 0.07944 0.0
C455 C 0.08972 0.88984 0.10622 0.0
O456 O 0.10576 0.91485 0.28977 0.0
O457 O 0.14526 0.94993 0.28675 0.0
O458 O 0.19292 0.92156 0.21612 0.0
O459 O 0.20506 0.87564 0.16795 0.0
O460 O 0.14889 0.83955 0.15163 0.0
O461 O 0.15405 0.86029 0.24943 0.0
C462 C 0.14934 0.95705 0.08758 0.0
O463 O 0.19975 0.88099 1.02713 0.0
O464 O 0.15805 0.84883 1.02066 0.0
C465 C 0.12979 0.93057 0.38731 0.0
C466 C 0.1429 0.91523 0.51916 0.0
C467 C 0.11855 0.9385 0.49489 0.0
C468 C 0.11201 0.94601 0.42954 0.0
C469 C 0.15444 0.90769 0.41121 0.0
C470 C 0.161 0.90015 0.47657 0.0
C471 C 0.12184 0.93775 0.31862 0.0
H472 H 0.2061 0.84857 0.78829 0.0
H473 H 0.21504 0.83511 0.90293 0.0
H474 H 0.14025 0.9053 0.93047 0.0
H475 H 0.13057 0.91833 0.81547 0.0
H476 H 0.10415 0.95043 0.52647 0.0
H477 H 0.09283 0.96367 0.41193 0.0
H478 H 0.16848 0.89556 0.37929 0.0
H479 H 0.18034 0.88263 0.49381 0.0
Tb480 Tb 0.8749 0.63958 0.08826 0.0
Eu481 Eu 0.90205 0.60707 0.23297 0.0
C482 C 0.82928 0.62621 0.19696 0.0
C483 C 0.89862 0.68557 0.19439 0.0
C484 C 0.85714 0.6492 0.91336 0.0
C485 C 0.83698 0.64471 0.80316 0.0
C486 C 0.8322 0.65387 0.86359 0.0
C487 C 0.88685 0.63492 0.9019 0.0
C488 C 0.89168 0.62588 0.84155 0.0
C489 C 0.86679 0.63054 0.79139 0.0
C490 C 0.85209 0.65943 0.97671 0.0
O491 O 0.92641 0.62819 0.07934 0.0
O492 O 0.94697 0.61945 0.18472 0.0
O493 O 0.91115 0.56806 0.16636 0.0
O494 O 0.87082 0.58626 0.08928 0.0
C495 C 0.95097 0.6242 0.12415 0.0
O496 O 0.93304 0.60831 0.32201 0.0
O497 O 0.89677 0.56988 0.31192 0.0
O498 O 0.84814 0.60067 0.21493 0.0
O499 O 0.83832 0.64894 0.15418 0.0
O500 O 0.89766 0.68003 0.1346 0.0
O501 O 0.89317 0.66208 0.23878 0.0
C502 C 0.89285 0.5643 0.11337 0.0
O503 O 0.83741 0.63821 1.01369 0.0
O504 O 0.87709 0.67263 1.00726 0.0
C505 C 0.90881 0.58869 0.41423 0.0
C506 C 0.89286 0.59959 0.53725 0.0
C507 C 0.92375 0.58707 0.52776 0.0
C508 C 0.93154 0.58157 0.46701 0.0
C509 C 0.87798 0.60138 0.42312 0.0
C510 C 0.87009 0.60677 0.48406 0.0
C511 C 0.91821 0.58368 0.35048 0.0
H512 H 0.81727 0.64853 0.76568 0.0
H513 H 0.80902 0.6647 0.8714 0.0
H514 H 0.90649 0.63105 0.9395 0.0
H515 H 0.91518 0.61575 0.83393 0.0
H516 H 0.94223 0.58214 0.56718 0.0
H517 H 0.95557 0.5721 0.46116 0.0
H518 H 0.8601 0.60731 0.38298 0.0
H519 H 0.84611 0.61645 0.4896 0.0
Tb520 Tb 0.13772 0.13653 0.81745 0.0
Eu521 Eu 0.17607 0.14303 0.9592 0.0
C522 C 0.15465 0.07649 0.91542 0.0
C523 C 0.09705 0.14607 0.93341 0.0
C524 C 0.1193 0.13326 0.6437 0.0
C525 C 0.10636 0.12825 0.53142 0.0
C526 C 0.09766 0.12413 0.59343 0.0
C527 C 0.14969 0.14679 0.63133 0.0
C528 C 0.15849 0.15081 0.56935 0.0
C529 C 0.1369 0.14158 0.51865 0.0
C530 C 0.11028 0.12779 0.70883 0.0
O531 O 0.15186 0.1889 0.81914 0.0
O532 O 0.15373 0.19236 0.92646 0.0
O533 O 0.21494 0.15285 0.89123 0.0
O534 O 0.18892 0.13115 0.80328 0.0
C535 C 0.15061 0.2063 0.86837 0.0
O536 O 0.20261 0.16923 1.03391 0.0
O537 O 0.19343 0.11657 0.04911 0.0
O538 O 0.18152 0.09277 0.92678 0.0
O539 O 0.13016 0.09203 0.88141 0.0
O540 O 0.0997 0.15095 0.87242 0.0
O541 O 0.12208 0.13688 0.97467 0.0
C542 C 0.21502 0.14298 0.83384 0.0
O543 O 0.1271 0.10507 0.74511 0.0
O544 O 0.10646 0.15428 0.73793 0.0
C545 C 0.19302 0.14741 0.13741 0.0
C546 C 0.17406 0.14996 0.26056 0.0
C547 C 0.20599 0.15851 0.24721 0.0
C548 C 0.21539 0.15717 0.18609 0.0
C549 C 0.16085 0.13977 0.15021 0.0
C550 C 0.15152 0.14085 0.21133 0.0
C551 C 0.20388 0.14319 0.07474 0.0
H552 H 0.08918 0.12102 0.49338 0.0
H553 H 0.07411 0.11361 0.60217 0.0
H554 H 0.16668 0.15388 0.66974 0.0
H555 H 0.18245 0.1605 0.5613 0.0
H556 H 0.22394 0.1652 0.28447 0.0
H557 H 0.24035 0.16299 0.17717 0.0
H558 H 0.14315 0.13223 0.11327 0.0
H559 H 0.12674 0.13428 0.22032 0.0
Tb560 Tb 0.65275 0.377 0.59781 0.0
Eu561 Eu 0.62937 0.40636 0.72714 0.0
C562 C 0.70438 0.39064 0.71515 0.0
C563 C 0.64374 0.3301 0.71942 0.0
C564 C 0.6632 0.36202 0.43174 0.0
C565 C 0.67615 0.35576 0.32484 0.0
C566 C 0.6822 0.3478 0.39 0.0
C567 C 0.63822 0.38449 0.40788 0.0
C568 C 0.63216 0.39248 0.34276 0.0
C569 C 0.65092 0.378 0.30059 0.0
C570 C 0.66972 0.35343 0.49997 0.0
O571 O 0.60147 0.39167 0.57412 0.0
O572 O 0.58712 0.38271 0.67514 0.0
O573 O 0.62315 0.44854 0.64965 0.0
O574 O 0.6558 0.42994 0.57776 0.0
C575 C 0.57931 0.38576 0.61401 0.0
O576 O 0.59561 0.40326 0.80007 0.0
O577 O 0.63095 0.44292 0.79672 0.0
O578 O 0.68366 0.40983 0.7379 0.0
O579 O 0.69594 0.37282 0.66732 0.0
O580 O 0.63632 0.33591 0.65834 0.0
O581 O 0.64791 0.3542 0.7567 0.0
C582 C 0.63861 0.45318 0.59833 0.0
O583 O 0.68691 0.37478 0.53111 0.0
O584 O 0.6447 0.34309 0.52913 0.0
C585 C 0.616 0.42248 0.89663 0.0
C586 C 0.62754 0.40924 1.02853 0.0
C587 C 0.60291 0.4317 1.00218 0.0
C588 C 0.59714 0.43819 0.93665 0.0
C589 C 0.64107 0.40057 0.9226 0.0
C590 C 0.64687 0.39406 0.98818 0.0
C591 C 0.60849 0.4282 0.828 0.0
H592 H 0.6909 0.34422 0.29332 0.0
H593 H 0.70162 0.33046 0.40781 0.0
H594 H 0.62342 0.39576 0.43965 0.0
H595 H 0.61297 0.41015 0.32538 0.0
H596 H 0.58811 0.44422 1.03227 0.0
H597 H 0.57776 0.45523 0.91719 0.0
H598 H 0.65581 0.38821 0.89213 0.0
H599 H 0.66597 0.37664 1.00735 0.0
Tb600 Tb 0.39207 0.88082 0.4713 0.0
Eu601 Eu 0.40348 0.9213 0.33266 0.0
C602 C 0.33535 0.90367 0.37005 0.0
C603 C 0.39897 0.84141 0.35176 0.0
C604 C 0.38602 0.86287 0.64421 0.0
C605 C 0.3766 0.85228 0.75503 0.0
C606 C 0.37247 0.84348 0.69269 0.0
C607 C 0.40369 0.89134 0.65885 0.0
C608 C 0.40783 0.90019 0.72124 0.0
C609 C 0.39448 0.88065 0.77017 0.0
C610 C 0.38068 0.85375 0.57849 0.0
O611 O 0.44405 0.89406 0.47595 0.0
O612 O 0.45026 0.89551 0.36983 0.0
O613 O 0.41543 0.95872 0.40486 0.0
O614 O 0.38926 0.93287 0.4868 0.0
C615 C 0.46255 0.89239 0.42914 0.0
O616 O 0.43246 0.94332 0.2586 0.0
O617 O 0.37967 0.94482 0.24456 0.0
O618 O 0.35385 0.92947 0.36195 0.0
O619 O 0.34793 0.87758 0.4047 0.0
O620 O 0.40494 0.84231 0.41332 0.0
O621 O 0.39188 0.86808 0.31298 0.0
C622 C 0.40445 0.95836 0.4611 0.0
O623 O 0.35963 0.87202 0.54114 0.0
O624 O 0.40674 0.84793 0.5508 0.0
C625 C 0.40738 0.93888 0.1544 0.0
C626 C 0.40589 0.9191 1.02995 0.0
C627 C 0.42048 0.94918 0.04547 0.0
C628 C 0.42118 0.95897 0.10709 0.0
C629 C 0.39292 0.9088 0.13923 0.0
C630 C 0.39197 0.89914 0.07763 0.0
C631 C 0.40682 0.95005 0.21848 0.0
H632 H 0.36534 0.83714 0.79127 0.0
H633 H 0.35844 0.82163 0.68223 0.0
H634 H 0.41414 0.90673 0.62195 0.0
H635 H 0.42169 0.92217 0.73135 0.0
H636 H 0.43143 0.96513 1.00996 0.0
H637 H 0.43226 0.98238 0.11766 0.0
H638 H 0.38185 0.89299 0.1748 0.0
H639 H 0.37972 0.87632 0.06712 0.0
C640 C 0.1483 0.66199 0.67454 0.0
C641 C 0.16035 0.63951 0.72552 0.0
C642 C 0.14513 0.65302 0.61214 0.0
C643 C 0.15388 0.62115 0.59783 0.0
H644 H 0.14088 0.68672 0.68297 0.0
H645 H 0.13531 0.67114 0.57481 0.0
S646 S 0.18854 0.55353 0.71346 0.0
N647 N 0.18227 0.58423 0.75703 0.0
N648 N 0.17631 0.56738 0.63985 0.0
C649 C 0.16614 0.59842 0.64826 0.0
C650 C 0.16936 0.60758 0.71195 0.0
C651 C 0.67963 0.93483 0.93598 0.0
C652 C 0.66114 0.91358 0.97439 0.0
C653 C 0.68568 0.92724 0.87501 0.0
C654 C 0.67312 0.89833 0.84974 0.0
H655 H 0.6898 0.95734 0.95343 0.0
H656 H 0.69997 0.94435 0.84712 0.0
S657 S 0.62302 0.83464 0.93062 0.0
N658 N 0.63 0.86256 0.98216 0.0
N659 N 0.64169 0.84819 0.86827 0.0
C660 C 0.65457 0.87694 0.88759 0.0
C661 C 0.64855 0.88456 0.94968 0.0
C662 C 0.39065 0.42171 0.21672 0.0
C663 C 0.37705 0.39258 0.24386 0.0
C664 C 0.39986 0.42382 0.15475 0.0
C665 C 0.39601 0.39684 0.1173 0.0
H666 H 0.39383 0.44325 0.24337 0.0
H667 H 0.40974 0.44697 0.13577 0.0
S668 S 0.36397 0.31405 0.16803 0.0
N669 N 0.36154 0.33567 0.22959 0.0
N670 N 0.37919 0.33942 0.11356 0.0
C671 C 0.3828 0.3674 0.14422 0.0
C672 C 0.37327 0.36533 0.20728 0.0
C673 C 0.92558 0.13131 0.45398 0.0
C674 C 0.9011 0.13731 0.49334 0.0
C675 C 0.92051 0.13892 0.38833 0.0
C676 C 0.89074 0.15266 0.35975 0.0
H677 H 0.94889 0.12089 0.47418 0.0
H678 H 0.94016 0.1343 0.35978 0.0
S679 S 0.81784 0.17018 0.44146 0.0
N680 N 0.84541 0.15598 0.49884 0.0
N681 N 0.8358 0.17008 0.37548 0.0
C682 C 0.8659 0.15828 0.39855 0.0
C683 C 0.8711 0.15065 0.46532 0.0
C684 C 0.14912 0.43001 0.37136 0.0
C685 C 0.17701 0.41173 0.36164 0.0
C686 C 0.14263 0.43723 0.43215 0.0
C687 C 0.16375 0.42655 0.48603 0.0
H688 H 0.13203 0.43876 0.33157 0.0
H689 H 0.12076 0.45124 0.43699 0.0
S690 S 0.24001 0.37756 0.48679 0.0
N691 N 0.2259 0.38293 0.41143 0.0
N692 N 0.21382 0.3967 0.5254 0.0
C693 C 0.19207 0.40879 0.47692 0.0
C694 C 0.19865 0.40134 0.41493 0.0
C695 C 0.91095 0.90818 0.7245 0.0
C696 C 0.89082 0.88235 0.74632 0.0
C697 C 0.92003 0.91071 0.66243 0.0
C698 C 0.90941 0.88749 0.61952 0.0
H699 H 0.91929 0.92699 0.75533 0.0
H700 H 0.93505 0.93139 0.6476 0.0
S701 S 0.85869 0.81354 0.65482 0.0
N702 N 0.86203 0.83206 0.72111 0.0
N703 N 0.87922 0.83666 0.60472 0.0
C704 C 0.88975 0.8612 0.64109 0.0
C705 C 0.88044 0.85867 0.70431 0.0
C706 C 0.37355 0.63978 0.88928 0.0
C707 C 0.39988 0.64332 0.85175 0.0
C708 C 0.37879 0.63216 0.95493 0.0
C709 C 0.41056 0.62781 0.98551 0.0
H710 H 0.34867 0.64273 0.86766 0.0
H711 H 0.35778 0.62941 0.9819 0.0
S712 S 0.48787 0.63689 0.90927 0.0
N713 N 0.45889 0.64342 0.85027 0.0
N714 N 0.46877 0.62922 0.9736 0.0
C715 C 0.43711 0.63156 0.94857 0.0
C716 C 0.43177 0.63927 0.88174 0.0
C717 C 0.679 0.13401 0.11617 0.0
C718 C 0.64813 0.12652 0.08645 0.0
C719 C 0.6827 0.14277 0.17875 0.0
C720 C 0.65567 0.14459 0.21424 0.0
H721 H 0.70058 0.13265 0.09108 0.0
H722 H 0.70705 0.1478 0.19976 0.0
S723 S 0.5692 0.12991 0.15645 0.0
N724 N 0.58985 0.12295 0.09619 0.0
N725 N 0.59666 0.13983 0.21335 0.0
C726 C 0.62459 0.13758 0.18471 0.0
C727 C 0.62086 0.12847 0.12105 0.0
C728 C 0.89862 0.37865 0.37697 0.0
C729 C 0.88807 0.4017 0.32586 0.0
C730 C 0.90203 0.38755 0.4394 0.0
C731 C 0.895 0.41991 0.4536 0.0
H732 H 0.90465 0.3535 0.36861 0.0
H733 H 0.91066 0.36895 0.47685 0.0
S734 S 0.86465 0.48919 0.33746 0.0
N735 N 0.86944 0.4581 0.29397 0.0
N736 N 0.87577 0.47482 0.41127 0.0
C737 C 0.88426 0.44322 0.403 0.0
C738 C 0.88082 0.43414 0.33927 0.0
C739 C 0.39287 0.14764 0.18697 0.0
C740 C 0.38168 0.12238 0.22893 0.0
C741 C 0.40027 0.14135 0.12621 0.0
C742 C 0.3965 0.10958 0.10444 0.0
H743 H 0.39626 0.17247 0.20149 0.0
H744 H 0.40931 0.16159 0.09624 0.0
S745 S 0.36588 0.03529 0.19495 0.0
N746 N 0.36624 0.06459 0.2442 0.0
N747 N 0.37932 0.05281 0.12955 0.0
C748 C 0.38503 0.0841 0.14594 0.0
C749 C 0.37782 0.09049 0.20817 0.0
C750 C 0.64406 0.63952 0.92265 0.0
C751 C 0.66734 0.63075 0.97427 0.0
C752 C 0.65274 0.64314 0.86036 0.0
C753 C 0.68512 0.63819 0.84676 0.0
H754 H 0.61888 0.64404 0.93047 0.0
H755 H 0.63395 0.65037 0.82253 0.0
S756 S 0.75514 0.61294 0.9642 0.0
N757 N 0.72408 0.61588 1.00712 0.0
N758 N 0.74039 0.62277 0.89014 0.0
C759 C 0.70867 0.62922 0.89781 0.0
C760 C 0.69981 0.62549 0.9614 0.0
C761 C 0.15285 0.93191 0.63023 0.0
C762 C 0.14919 0.90668 0.58871 0.0
C763 C 0.15862 0.92444 0.69595 0.0
C764 C 0.16092 0.89145 0.72282 0.0
H765 H 0.15162 0.95767 0.61171 0.0
H766 H 0.16169 0.9447 0.72592 0.0
S767 S 0.15019 0.8163 0.63531 0.0
N768 N 0.1464 0.84737 0.5796 0.0
N769 N 0.15713 0.83335 0.70285 0.0
C770 C 0.1568 0.866 0.68189 0.0
C771 C 0.15098 0.8736 0.61501 0.0
C772 C 0.86388 0.64376 0.67324 0.0
C773 C 0.87222 0.6214 0.72671 0.0
C774 C 0.87012 0.63632 0.61228 0.0
C775 C 0.88491 0.60616 0.60212 0.0
H776 H 0.85317 0.66761 0.67868 0.0
H777 H 0.86402 0.65473 0.573 0.0
S778 S 0.90829 0.53767 0.72536 0.0
N779 N 0.8939 0.56683 0.76474 0.0
N780 N 0.90544 0.55277 0.65057 0.0
C781 C 0.89248 0.58319 0.655 0.0
C782 C 0.88619 0.5908 0.71704 0.0
C783 C 0.14154 0.11794 0.41509 0.0
C784 C 0.14646 0.14468 0.45281 0.0
C785 C 0.15038 0.11999 0.35301 0.0
C786 C 0.16462 0.1488 0.32622 0.0
H787 H 0.13115 0.09502 0.43399 0.0
H788 H 0.14647 0.09864 0.32604 0.0
S789 S 0.18065 0.22659 0.40309 0.0
N790 N 0.16501 0.20152 0.45751 0.0
N791 N 0.18198 0.20515 0.34096 0.0
C792 C 0.16946 0.17582 0.36306 0.0
C793 C 0.16031 0.17382 0.42627 0.0
C794 C 0.67013 0.39512 0.19478 0.0
C795 C 0.64431 0.38605 0.23138 0.0
C796 C 0.66451 0.40263 0.12922 0.0
C797 C 0.63288 0.40136 0.09796 0.0
H798 H 0.69482 0.39673 0.21709 0.0
H799 H 0.68503 0.4098 0.10287 0.0
S800 S 0.55739 0.37649 0.17148 0.0
N801 N 0.58625 0.37458 0.23117 0.0
N802 N 0.57569 0.38872 0.10793 0.0
C803 C 0.60691 0.39198 0.13389 0.0
C804 C 0.61263 0.38432 0.20059 0.0
C805 C 0.39509 0.93207 0.91199 0.0
C806 C 0.40438 0.90899 0.96392 0.0
C807 C 0.39234 0.92285 0.84965 0.0
C808 C 0.39866 0.89014 0.83659 0.0
H809 H 0.38921 0.95736 0.91962 0.0
H810 H 0.38453 0.94136 0.81145 0.0
S811 S 0.42709 0.82105 0.95472 0.0
N812 N 0.42229 0.8525 0.99729 0.0
N813 N 0.41683 0.8352 0.88049 0.0
C814 C 0.40871 0.86701 0.88786 0.0
C815 C 0.41163 0.87641 0.95129 0.0
C816 C 0.17771 0.7473 0.24604 0.0
C817 C 0.14785 0.73085 0.23491 0.0
C818 C 0.1786 0.78186 0.24852 0.0
C819 C 0.14964 0.80078 0.2406 0.0
H820 H 0.20054 0.73388 0.24689 0.0
H821 H 0.20208 0.79412 0.25027 0.0
S822 S 0.06531 0.76858 0.21921 0.0
N823 N 0.08877 0.73532 0.22241 0.0
N824 N 0.09041 0.80005 0.22862 0.0
C825 C 0.11969 0.78407 0.23575 0.0
C826 C 0.11879 0.74908 0.23238 0.0
C827 C 0.55169 0.90585 0.48668 0.0
C828 C 0.56784 0.88821 0.44465 0.0
C829 C 0.51729 0.90542 0.48516 0.0
C830 C 0.49832 0.8875 0.44131 0.0
H831 H 0.56544 0.9217 0.51783 0.0
H832 H 0.50548 0.92086 0.51532 0.0
S833 S 0.52951 0.83243 0.33018 0.0
N834 N 0.56261 0.84848 0.36532 0.0
N835 N 0.49856 0.84848 0.3612 0.0
C836 C 0.51454 0.86785 0.4029 0.0
C837 C 0.54918 0.86797 0.40494 0.0
C838 C 0.38053 0.27529 0.7516 0.0
C839 C 0.39629 0.29625 0.70784 0.0
C840 C 0.38189 0.24048 0.75069 0.0
C841 C 0.39919 0.22588 0.70621 0.0
H842 H 0.36557 0.28582 0.78401 0.0
H843 H 0.3678 0.22513 0.78214 0.0
S844 S 0.44937 0.26989 0.58989 0.0
N845 N 0.43297 0.29961 0.62481 0.0
N846 N 0.43585 0.23502 0.62357 0.0
C847 C 0.41707 0.24668 0.66603 0.0
C848 C 0.41552 0.28166 0.66669 0.0
C849 C 1.01615 0.1297 1.00386 0.0
C850 C 0.99514 0.15138 0.9635 0.0
C851 C 0.05023 0.12974 0.99875 0.0
C852 C 0.06393 0.15137 0.95306 0.0
H853 H 1.00603 0.11102 0.03578 0.0
H854 H 0.06543 0.11123 1.0272 0.0
S855 S 1.01981 0.21634 0.84401 0.0
N856 N 0.99117 0.19712 0.88187 0.0
N857 N 0.05429 0.19804 0.8738 0.0
C858 C 0.04338 0.1751 0.91725 0.0
C859 C 1.00919 0.17481 0.92196 0.0
C860 C 0.16175 0.29848 0.82475 0.0
C861 C 0.14335 0.31249 0.86832 0.0
C862 C 0.16234 0.26387 0.82086 0.0
C863 C 0.14472 0.24253 0.86072 0.0
H864 H 0.17741 0.31401 0.79678 0.0
H865 H 0.17834 0.2537 0.78984 0.0
S866 S 0.08827 0.26766 0.97393 0.0
N867 N 0.10348 0.30279 0.94475 0.0
N868 N 0.1053 0.23834 0.93888 0.0
C869 C 0.12435 0.25667 0.90054 0.0
C870 C 0.12347 0.29152 0.90394 0.0
C871 C 0.04019 0.85668 0.11282 0.0
C872 C 0.05507 0.88477 0.08503 0.0
C873 C 1.00695 0.85665 0.12163 0.0
C874 C 0.98713 0.8844 0.10126 0.0
H875 H 0.05505 0.83589 0.13394 0.0
H876 H 0.99732 0.83571 0.14889 0.0
S877 S 1.01289 0.96182 1.01494 0.0
N878 N 0.04679 0.9395 1.0299 0.0
N879 N 0.98356 0.93885 0.04359 0.0
C880 C 1.00074 0.91109 0.06632 0.0
C881 C 0.03498 0.9114 0.05867 0.0
C882 C 0.43273 0.75747 0.33424 0.0
C883 C 0.40432 0.7387 0.32388 0.0
C884 C 0.43105 0.79181 0.33648 0.0
C885 C 0.40099 0.80868 0.32721 0.0
H886 H 0.45601 0.74517 0.34738 0.0
H887 H 0.45309 0.80474 0.35111 0.0
S888 S 0.31988 0.77144 0.29011 0.0
N889 N 0.34552 0.73967 0.29824 0.0
N890 N 0.3425 0.80467 0.30038 0.0
C891 C 0.37274 0.79072 0.31024 0.0
C892 C 0.3744 0.75554 0.30887 0.0
C893 C 0.53712 0.12335 0.57309 0.0
C894 C 0.55603 0.14556 0.6085 0.0
C895 C 0.50282 0.12218 0.57402 0.0
C896 C 0.48673 0.14321 0.61039 0.0
H897 H 0.54905 0.10524 0.54848 0.0
H898 H 0.48927 0.10318 0.55022 0.0
S899 S 0.52474 0.20962 0.70139 0.0
N900 N 0.55569 0.19188 0.67322 0.0
N901 N 0.49186 0.18961 0.6754 0.0
C902 C 0.50525 0.16727 0.64126 0.0
C903 C 0.53978 0.16846 0.64024 0.0
C904 C 0.93264 0.25368 0.8655 0.0
C905 C 0.90655 0.23648 0.83573 0.0
C906 C 0.93295 0.28811 0.8634 0.0
C907 C 0.90686 0.30701 0.83224 0.0
H908 H 0.95111 0.24052 0.89742 0.0
H909 H 0.95225 0.29981 0.89173 0.0
S910 S 0.8348 0.27512 0.7387 0.0
N911 N 0.85574 0.24142 0.76721 0.0
N912 N 0.85606 0.30686 0.76392 0.0
C913 C 0.88214 0.29075 0.7966 0.0
C914 C 0.88199 0.25523 0.79831 0.0
C915 C 0.63982 0.79336 0.31766 0.0
C916 C 0.66765 0.81024 0.34128 0.0
C917 C 0.64028 0.75868 0.3166 0.0
C918 C 0.66855 0.74023 0.33933 0.0
H919 H 0.61694 0.80659 0.30507 0.0
H920 H 0.61771 0.74608 0.30338 0.0
S921 S 0.74827 0.77348 0.40035 0.0
N922 N 0.7247 0.80653 0.38238 0.0
N923 N 0.72537 0.74156 0.38179 0.0
C924 C 0.697 0.75723 0.35865 0.0
C925 C 0.6966 0.79229 0.35925 0.0
C926 C 0.88568 0.73577 0.24928 0.0
C927 C 0.90473 0.72012 0.20899 0.0
C928 C 0.88601 0.77051 0.25037 0.0
C929 C 0.90528 0.79029 0.21099 0.0
H930 H 0.86893 0.72143 0.27676 0.0
H931 H 0.86962 0.78202 0.27895 0.0
S932 S 0.96428 0.76053 0.1073 0.0
N933 N 0.94707 0.72655 0.13684 0.0
N934 N 0.94716 0.79138 0.13799 0.0
C935 C 0.92632 0.77456 0.17481 0.0
C936 C 0.92623 0.73954 0.17414 0.0
C937 C 0.68083 0.24825 0.70899 0.0
C938 C 0.65709 0.22644 0.73113 0.0
C939 C 0.67885 0.28217 0.71488 0.0
C940 C 0.65246 0.29567 0.7413 0.0
H941 H 0.69953 0.23946 0.68196 0.0
H942 H 0.69615 0.29834 0.69229 0.0
S943 S 0.58583 0.24883 0.81256 0.0
N944 N 0.60846 0.22005 0.78709 0.0
N945 N 0.60376 0.28459 0.79528 0.0
C946 C 0.62998 0.27399 0.76835 0.0
C947 C 0.63248 0.23908 0.76374 0.0
C948 C 1.0134 0.38262 0.99454 0.0
C949 C 0.99381 0.4087 0.96376 0.0
C950 C 0.04776 0.38455 0.99827 0.0
C951 C 0.06319 0.41259 0.97121 0.0
H952 H 1.00221 0.35969 1.01118 0.0
H953 H 0.06215 0.36302 1.01756 0.0
S954 S 1.0226 0.48885 0.89284 0.0
N955 N 0.99221 0.46443 0.91182 0.0
N956 N 0.05644 0.46799 0.91848 0.0
C957 C 0.04378 0.43966 0.94486 0.0
C958 C 1.00909 0.43773 0.94121 0.0
C959 C 0.52286 0.62683 0.50315 0.0
C960 C 0.50336 0.65334 0.47366 0.0
C961 C 0.55697 0.62662 0.49956 0.0
C962 C 0.57228 0.65279 0.46598 0.0
H963 H 0.51145 0.605 0.5242 0.0
H964 H 0.57093 0.60475 0.51853 0.0
S965 S 0.53276 0.72999 0.38969 0.0
N966 N 0.50253 0.70804 0.4173 0.0
N967 N 0.56609 0.70738 0.4098 0.0
C968 C 0.55338 0.68046 0.44116 0.0
C969 C 0.51903 0.6808 0.44527 0.0
C970 C 0.49463 0.35716 0.62879 0.0
C971 C 0.47599 0.38467 0.60167 0.0
C972 C 0.52816 0.35558 0.62413 0.0
C973 C 0.54447 0.38176 0.59319 0.0
H974 H 0.48382 0.33806 0.65877 0.0
H975 H 0.54195 0.3353 0.65063 0.0
S976 S 0.50602 0.45653 0.50458 0.0
N977 N 0.47526 0.4363 0.53439 0.0
N978 N 0.53906 0.43375 0.52718 0.0
C979 C 0.52573 0.40768 0.55978 0.0
C980 C 0.49119 0.40909 0.56382 0.0
C981 C 0.04038 0.60262 0.14098 0.0
C982 C 0.0542 0.62903 0.10576 0.0
C983 C 1.00655 0.59984 0.142 0.0
C984 C 0.98513 0.62341 0.10797 0.0
H985 H 0.05597 0.58504 0.17115 0.0
H986 H 0.99716 0.58008 0.1727 0.0
S987 S 1.00885 0.69574 1.00405 0.0
N988 N 0.044 0.67793 1.0323 0.0
N989 N 0.97995 0.67266 1.03405 0.0
C990 C 0.99841 0.6486 0.0687 0.0
C991 C 0.03314 0.65145 0.06772 0.0
C992 C 0.13133 0.53531 0.05612 0.0
C993 C 0.16042 0.55044 0.07923 0.0
C994 C 0.13179 0.5103 1.01402 0.0
C995 C 0.16139 0.49937 0.99438 0.0
H996 H 0.10805 0.5434 0.06937 0.0
H997 H 0.10898 0.49886 0.99817 0.0
S998 S 0.24411 0.53091 0.04165 0.0
N999 N 0.21943 0.55271 0.07894 0.0
N1000 N 0.22034 0.50563 1.00152 0.0
C1001 C 0.1905 0.51427 1.01752 0.0
C1002 C 0.19 0.5398 0.05944 0.0
C1003 C 0.78219 0.88298 0.36216 0.0
C1004 C 0.75323 0.89778 0.33227 0.0
C1005 C 0.80975 0.87985 0.32882 0.0
C1006 C 0.80909 0.89042 0.26392 0.0
H1007 H 0.78392 0.87461 0.41203 0.0
H1008 H 0.83193 0.86933 0.35423 0.0
S1009 S 0.73877 0.92872 0.16229 0.0
N1010 N 0.7253 0.9219 0.23275 0.0
N1011 N 0.77687 0.91509 0.17056 0.0
C1012 C 0.77999 0.90398 0.23285 0.0
C1013 C 0.75215 0.90791 0.26692 0.0
C1014 C 0.36952 0.50648 0.56302 0.0
C1015 C 0.3972 0.49228 0.59953 0.0
C1016 C 0.37192 0.53458 0.52064 0.0
C1017 C 0.40216 0.5495 0.51167 0.0
H1018 H 0.3455 0.49601 0.56745 0.0
H1019 H 0.34972 0.54497 0.495 0.0
S1020 S 0.48214 0.52336 0.59618 0.0
N1021 N 0.45608 0.49612 0.6244 0.0
N1022 N 0.46041 0.54886 0.54367 0.0
C1023 C 0.43019 0.53567 0.5471 0.0
C1024 C 0.42774 0.50715 0.59133 0.0
C1025 C 0.79117 0.11058 0.81457 0.0
C1026 C 0.80253 0.14055 0.83748 0.0
C1027 C 0.76447 0.10973 0.76861 0.0
C1028 C 0.74809 0.13884 0.74239 0.0
H1029 H 0.80303 0.08732 0.83228 0.0
H1030 H 0.7566 0.08591 0.75347 0.0
S1031 S 0.76678 0.22373 0.78742 0.0
N1032 N 0.79438 0.20016 0.83156 0.0
N1033 N 0.74443 0.19852 0.74438 0.0
C1034 C 0.75901 0.16904 0.76478 0.0
C1035 C 0.78604 0.16989 0.81257 0.0
C1036 C 0.87913 0.50703 0.08719 0.0
C1037 C 0.89731 0.53585 0.07647 0.0
C1038 C 0.87774 0.48245 0.0446 0.0
C1039 C 0.89437 0.48575 0.98929 0.0
H1040 H 0.86499 0.50395 0.12762 0.0
H1041 H 0.86308 0.46081 0.05512 0.0
S1042 S 0.94588 0.55702 0.94093 0.0
N1043 N 0.93253 0.56665 1.00769 0.0
N1044 N 0.93032 0.52036 0.92776 0.0
C1045 C 0.9132 0.51437 0.97891 0.0
C1046 C 0.9145 0.53944 1.02238 0.0
C1047 C 0.24551 0.1515 0.73703 0.0
C1048 C 0.24584 0.14293 0.8027 0.0
C1049 C 0.27371 0.14852 0.70519 0.0
C1050 C 0.30308 0.13591 0.73755 0.0
H1051 H 0.22318 0.16041 0.7099 0.0
H1052 H 0.27218 0.15514 0.65467 0.0
S1053 S 0.31676 0.11039 0.9101 0.0
N1054 N 0.27815 0.1223 0.89905 0.0
N1055 N 0.3308 0.11577 0.83997 0.0
C1056 C 0.30374 0.12776 0.80355 0.0
C1057 C 0.27527 0.13152 0.83592 0.0
C1058 C 0.6526 0.54421 0.5562 0.0
C1059 C 0.64658 0.54727 0.48966 0.0
C1060 C 0.64787 0.51412 0.59181 0.0
C1061 C 0.63767 0.48587 0.56195 0.0
H1062 H 0.66154 0.56516 0.58096 0.0
H1063 H 0.6538 0.51254 0.64262 0.0
S1064 S 0.6164 0.48113 0.38994 0.0
N1065 N 0.62766 0.51998 0.39604 0.0
N1066 N 0.61981 0.46305 0.4628 0.0
C1067 C 0.63048 0.48881 0.49583 0.0
C1068 C 0.6346 0.51965 0.45968 0.0
C1069 C 0.28875 0.87181 0.31767 0.0
C1070 C 0.30397 0.90228 0.32888 0.0
C1071 C 0.2605 0.87028 0.27477 0.0
C1072 C 0.24632 0.89922 0.24222 0.0
H1073 H 0.29873 0.84898 0.34201 0.0
H1074 H 0.24908 0.8465 0.26879 0.0
S1075 S 0.27658 0.98502 0.25333 0.0
N1076 N 0.30245 0.96201 0.3025 0.0
N1077 N 0.24986 0.95895 0.2229 0.0
C1078 C 0.26142 0.92966 0.25259 0.0
C1079 C 0.29004 0.93125 0.29567 0.0
C1080 C 0.64914 0.02319 0.46168 0.0
C1081 C 0.65314 0.99099 0.49115 0.0
C1082 C 0.64822 0.05048 0.49785 0.0
C1083 C 0.65035 0.04652 0.5646 0.0
H1084 H 0.6484 0.02747 0.41069 0.0
H1085 H 0.64654 0.07501 0.47331 0.0
S1086 S 0.65769 0.96685 0.66396 0.0
N1087 N 0.65715 0.9563 0.59074 0.0
N1088 N 0.65436 1.00763 0.65815 0.0
C1089 C 0.65238 1.01429 0.59434 0.0
C1090 C 0.65409 0.98653 0.55771 0.0
C1091 C 0.27723 0.40191 0.86849 0.0
C1092 C 0.24586 0.39493 0.84163 0.0
C1093 C 0.304 0.4025 0.83228 0.0
C1094 C 0.30056 0.39569 0.76796 0.0
H1095 H 0.28089 0.40841 0.91689 0.0
H1096 H 0.32754 0.40896 0.85496 0.0
S1097 S 0.22318 0.37314 0.67799 0.0
N1098 N 0.21253 0.37955 0.74866 0.0
N1099 N 0.26296 0.3796 0.68085 0.0
C1100 C 0.26932 0.38721 0.74159 0.0
C1101 C 0.24197 0.38718 0.77833 0.0
C1102 C 0.9267 1.0008 0.08794 0.0
C1103 C 0.89787 0.98857 0.11211 0.0
C1104 C 0.92626 0.02971 0.04592 0.0
C1105 C 0.89707 0.04758 1.02783 0.0
H1106 H 0.94957 0.98758 0.10044 0.0
H1107 H 0.94894 0.03853 1.02873 0.0
S1108 S 0.81519 0.02629 0.07846 0.0
N1109 N 0.8395 0.99679 0.11474 0.0
N1110 N 0.8388 0.05103 0.03732 0.0
C1111 C 0.86827 0.03571 0.05219 0.0
C1112 C 0.86863 1.00627 0.09396 0.0
C1113 C 0.27633 0.64834 0.21847 0.0
C1114 C 0.24758 0.65251 0.24739 0.0
C1115 C 0.30701 0.64779 0.25397 0.0
C1116 C 0.31003 0.65203 0.31933 0.0
H1117 H 0.27502 0.64395 0.16889 0.0
H1118 H 0.32853 0.64349 0.23015 0.0
S1119 S 0.2419 0.66652 0.41557 0.0
N1120 N 0.22388 0.66258 0.34397 0.0
N1121 N 0.28148 0.66253 0.41021 0.0
C1122 C 0.28148 0.65791 0.34786 0.0
C1123 C 0.25026 0.65781 0.31201 0.0
C1124 C 0.38564 1.01481 0.47877 0.0
C1125 C 0.40691 0.98803 0.49693 0.0
C1126 C 0.38255 0.0401 0.51882 0.0
C1127 C 0.40093 0.03995 0.57851 0.0
H1128 H 0.37019 1.0155 0.43452 0.0
H1129 H 0.36516 0.05977 0.50284 0.0
S1130 S 0.46128 0.97548 0.6463 0.0
N1131 N 0.4472 0.96275 0.57734 0.0
N1132 N 0.44219 1.01076 0.65206 0.0
C1133 C 0.42311 1.01366 0.59619 0.0
C1134 C 0.42584 0.9876 0.55562 0.0
C1135 C 0.78373 0.60219 0.25484 0.0
C1136 C 0.80061 0.63049 0.23302 0.0
C1137 C 0.75909 0.6042 0.29548 0.0
C1138 C 0.7508 0.63446 0.31776 0.0
H1139 H 0.78969 0.57811 0.24048 0.0
H1140 H 0.74653 0.58169 0.30995 0.0
S1141 S 0.78776 0.71599 0.27544 0.0
N1142 N 0.80719 0.6899 0.23651 0.0
N1143 N 0.76131 0.69356 0.31423 0.0
C1144 C 0.76759 0.663 0.2967 0.0
C1145 C 0.79229 0.66107 0.25393 0.0
C1146 C 0.17813 0.02428 0.97079 0.0
C1147 C 0.15066 0.04486 0.9545 0.0
C1148 C 0.17724 0.99646 1.01427 0.0
C1149 C 0.14899 0.98811 0.0446 0.0
H1150 H 0.20079 0.02995 0.95018 0.0
H1151 H 0.19925 0.98156 1.02467 0.0
S1152 S 0.07037 0.03427 1.01936 0.0
N1153 N 0.09417 0.05516 0.97202 0.0
N1154 N 0.09263 1.00293 0.05496 0.0
C1155 C 0.12122 1.0085 1.02895 0.0
C1156 C 0.12198 0.03675 0.9835 0.0
C1157 C 0.74208 0.38973 0.81452 0.0
C1158 C 0.73765 0.38744 0.74857 0.0
C1159 C 0.77339 0.38923 0.84729 0.0
C1160 C 0.8013 0.38712 0.81494 0.0
H1161 H 0.72116 0.39238 0.84098 0.0
H1162 H 0.77581 0.39207 0.89759 0.0
S1163 S 0.80328 0.37864 0.6436 0.0
N1164 N 0.76397 0.38087 0.65315 0.0
N1165 N 0.82284 0.38112 0.71442 0.0
C1166 C 0.79727 0.38381 0.74957 0.0
C1167 C 0.76542 0.38358 0.71643 0.0
loop_
_geom_bond_atom_site_label_1
_geom_bond_atom_site_label_2
_geom_bond_distance
_geom_bond_site_symmetry_2
_ccdc_geom_bond_type
Tb0 C10 2.825 . S
Tb0 O11 2.347 . S
Tb0 O14 2.366 . S
Tb0 O19 2.418 . S
Tb0 O20 2.384 . S
Tb0 O23 2.479 . S
Tb0 O24 2.471 . S
Eu1 O12 2.418 . S
Eu1 O13 2.384 . S
Eu1 O16 2.479 . S
Eu1 O17 2.471 . S
Eu1 O18 2.347 . S
Eu1 O21 2.366 . S
Eu1 C31 2.825 1_554 S
C2 O18 1.259 . S
C2 O19 1.265 . S
C3 O20 1.255 . S
C3 O21 1.265 . S
C4 C6 1.380 . S
C4 C7 1.374 . S
C4 C10 1.507 . S
C5 C6 1.384 . S
C5 C9 1.387 . S
C5 H32 0.930 . S
C6 C4 1.380 . S
C6 C5 1.384 . S
C6 H33 0.931 . S
C7 C4 1.374 . S
C7 C8 1.390 . S
C7 H34 0.930 . S
C8 C7 1.390 . S
C8 C9 1.391 . S
C8 H35 0.930 . S
C9 C5 1.387 . S
C9 C8 1.391 . S
C10 Tb0 2.825 . S
C10 C4 1.507 . S
C10 O23 1.238 . S
C10 O24 1.247 . S
O11 Tb0 2.347 . S
O11 C15 1.259 . S
O12 Eu1 2.418 . S
O12 C15 1.265 . S
O13 Eu1 2.384 . S
O13 C22 1.255 . S
O14 Tb0 2.366 . S
O14 C22 1.265 . S
C15 O11 1.259 . S
C15 O12 1.265 . S
O16 Eu1 2.479 . S
O16 C31 1.238 1_554 S
O17 Eu1 2.471 . S
O17 C31 1.247 1_554 S
O18 Eu1 2.347 . S
O18 C2 1.259 . S
O19 Tb0 2.418 . S
O19 C2 1.265 . S
O20 Tb0 2.384 . S
O20 C3 1.255 . S
O21 Eu1 2.366 . S
O21 C3 1.265 . S
C22 O13 1.255 . S
C22 O14 1.265 . S
O23 Tb0 2.479 . S
O23 C10 1.238 . S
O24 Tb0 2.471 . S
O24 C10 1.247 . S
C25 C28 1.380 . S
C25 C29 1.374 . S
C25 C31 1.507 . S
C26 C27 1.387 . S
C26 C30 1.391 . S
C27 C26 1.387 . S
C27 C28 1.384 . S
C27 H36 0.930 . S
C28 C25 1.380 . S
C28 C27 1.384 . S
C28 H37 0.931 . S
C29 C25 1.374 . S
C29 C30 1.390 . S
C29 H38 0.930 . S
C30 C26 1.391 . S
C30 C29 1.390 . S
C30 H39 0.930 . S
C31 Eu1 2.825 1_556 S
C31 O16 1.238 1_556 S
C31 O17 1.247 1_556 S
C31 C25 1.507 . S
H32 C5 0.930 . S
H33 C6 0.931 . S
H34 C7 0.930 . S
H35 C8 0.930 . S
H36 C27 0.930 . S
H37 C28 0.931 . S
H38 C29 0.930 . S
H39 C30 0.930 . S
Tb40 C50 2.825 . S
Tb40 O51 2.347 . S
Tb40 O54 2.366 . S
Tb40 O59 2.418 . S
Tb40 O60 2.384 . S
Tb40 O63 2.479 . S
Tb40 O64 2.471 . S
Eu41 O52 2.418 . S
Eu41 O53 2.384 . S
Eu41 O56 2.479 . S
Eu41 O57 2.471 . S
Eu41 O58 2.347 . S
Eu41 O61 2.366 . S
Eu41 C71 2.825 . S
C42 O58 1.259 . S
C42 O59 1.265 . S
C43 O60 1.255 . S
C43 O61 1.265 . S
C44 C46 1.380 . S
C44 C47 1.374 . S
C44 C50 1.507 . S
C45 C46 1.384 . S
C45 C49 1.387 1_554 S
C45 H72 0.930 1_554 S
C46 C44 1.380 . S
C46 C45 1.384 . S
C46 H73 0.931 . S
C47 C44 1.374 . S
C47 C48 1.390 . S
C47 H74 0.930 . S
C48 C47 1.390 . S
C48 C49 1.391 1_554 S
C48 H75 0.930 . S
C49 C45 1.387 1_556 S
C49 C48 1.391 1_556 S
C50 Tb40 2.825 . S
C50 C44 1.507 . S
C50 O63 1.238 . S
C50 O64 1.247 . S
O51 Tb40 2.347 . S
O51 C55 1.259 . S
O52 Eu41 2.418 . S
O52 C55 1.265 . S
O53 Eu41 2.384 . S
O53 C62 1.255 . S
O54 Tb40 2.366 . S
O54 C62 1.265 . S
C55 O51 1.259 . S
C55 O52 1.265 . S
O56 Eu41 2.479 . S
O56 C71 1.238 . S
O57 Eu41 2.471 . S
O57 C71 1.247 . S
O58 Eu41 2.347 . S
O58 C42 1.259 . S
O59 Tb40 2.418 . S
O59 C42 1.265 . S
O60 Tb40 2.384 . S
O60 C43 1.255 . S
O61 Eu41 2.366 . S
O61 C43 1.265 . S
C62 O53 1.255 . S
C62 O54 1.265 . S
O63 Tb40 2.479 . S
O63 C50 1.238 . S
O64 Tb40 2.471 . S
O64 C50 1.247 . S
C65 C68 1.380 . S
C65 C69 1.374 . S
C65 C71 1.507 . S
C66 C67 1.387 . S
C66 C70 1.391 . S
C67 C66 1.387 . S
C67 C68 1.384 . S
C67 H76 0.930 . S
C68 C65 1.380 . S
C68 C67 1.384 . S
C68 H77 0.931 . S
C69 C65 1.374 . S
C69 C70 1.390 . S
C69 H78 0.930 . S
C70 C66 1.391 . S
C70 C69 1.390 . S
C70 H79 0.930 . S
C71 Eu41 2.825 . S
C71 O56 1.238 . S
C71 O57 1.247 . S
C71 C65 1.507 . S
H72 C45 0.930 1_556 S
H73 C46 0.931 . S
H74 C47 0.930 . S
H75 C48 0.930 . S
H76 C67 0.930 . S
H77 C68 0.931 . S
H78 C69 0.930 . S
H79 C70 0.930 . S
Tb80 C90 2.825 . S
Tb80 O91 2.347 . S
Tb80 O94 2.366 . S
Tb80 O99 2.418 . S
Tb80 O100 2.384 . S
Tb80 O103 2.479 . S
Tb80 O104 2.471 . S
Eu81 O92 2.418 . S
Eu81 O93 2.384 . S
Eu81 O96 2.479 . S
Eu81 O97 2.471 . S
Eu81 O98 2.347 . S
Eu81 O101 2.366 . S
Eu81 C111 2.825 . S
C82 O98 1.259 . S
C82 O99 1.265 . S
C83 O100 1.255 . S
C83 O101 1.265 . S
C84 C86 1.380 . S
C84 C87 1.374 . S
C84 C90 1.507 . S
C85 C86 1.384 . S
C85 C89 1.387 . S
C85 H112 0.930 . S
C86 C84 1.380 . S
C86 C85 1.384 . S
C86 H113 0.931 . S
C87 C84 1.374 . S
C87 C88 1.390 . S
C87 H114 0.930 . S
C88 C87 1.390 . S
C88 C89 1.391 . S
C88 H115 0.930 . S
C89 C85 1.387 . S
C89 C88 1.391 . S
C90 Tb80 2.825 . S
C90 C84 1.507 . S
C90 O103 1.238 . S
C90 O104 1.247 . S
O91 Tb80 2.347 . S
O91 C95 1.259 . S
O92 Eu81 2.418 . S
O92 C95 1.265 . S
O93 Eu81 2.384 . S
O93 C102 1.255 . S
O94 Tb80 2.366 . S
O94 C102 1.265 . S
C95 O91 1.259 . S
C95 O92 1.265 . S
O96 Eu81 2.479 . S
O96 C111 1.238 . S
O97 Eu81 2.471 . S
O97 C111 1.247 . S
O98 Eu81 2.347 . S
O98 C82 1.259 . S
O99 Tb80 2.418 . S
O99 C82 1.265 . S
O100 Tb80 2.384 . S
O100 C83 1.255 . S
O101 Eu81 2.366 . S
O101 C83 1.265 . S
C102 O93 1.255 . S
C102 O94 1.265 . S
O103 Tb80 2.479 . S
O103 C90 1.238 . S
O104 Tb80 2.471 . S
O104 C90 1.247 . S
C105 C108 1.380 . S
C105 C109 1.374 . S
C105 C111 1.507 . S
C106 C107 1.387 . S
C106 C110 1.391 . S
C107 C106 1.387 . S
C107 C108 1.384 1_554 S
C107 H116 0.930 . S
C108 C105 1.380 . S
C108 C107 1.384 1_556 S
C108 H117 0.931 . S
C109 C105 1.374 . S
C109 C110 1.390 1_556 S
C109 H118 0.930 . S
C110 C106 1.391 . S
C110 C109 1.390 1_554 S
C110 H119 0.930 . S
C111 Eu81 2.825 . S
C111 O96 1.238 . S
C111 O97 1.247 . S
C111 C105 1.507 . S
H112 C85 0.930 . S
H113 C86 0.931 . S
H114 C87 0.930 . S
H115 C88 0.930 . S
H116 C107 0.930 . S
H117 C108 0.931 . S
H118 C109 0.930 . S
H119 C110 0.930 . S
Tb120 C130 2.825 . S
Tb120 O131 2.347 . S
Tb120 O134 2.366 . S
Tb120 O139 2.418 . S
Tb120 O140 2.384 . S
Tb120 O143 2.479 . S
Tb120 O144 2.471 . S
Eu121 O132 2.418 . S
Eu121 O133 2.384 . S
Eu121 O136 2.479 1_556 S
Eu121 O137 2.471 1_556 S
Eu121 O138 2.347 . S
Eu121 O141 2.366 . S
Eu121 C151 2.825 1_556 S
C122 O138 1.259 . S
C122 O139 1.265 . S
C123 O140 1.255 . S
C123 O141 1.265 . S
C124 C126 1.380 . S
C124 C127 1.374 . S
C124 C130 1.507 . S
C125 C126 1.384 . S
C125 C129 1.387 . S
C125 H152 0.930 . S
C126 C124 1.380 . S
C126 C125 1.384 . S
C126 H153 0.931 . S
C127 C124 1.374 . S
C127 C128 1.390 . S
C127 H154 0.930 . S
C128 C127 1.390 . S
C128 C129 1.391 . S
C128 H155 0.930 . S
C129 C125 1.387 . S
C129 C128 1.391 . S
C130 Tb120 2.825 . S
C130 C124 1.507 . S
C130 O143 1.238 . S
C130 O144 1.247 . S
O131 Tb120 2.347 . S
O131 C135 1.259 . S
O132 Eu121 2.418 . S
O132 C135 1.265 . S
O133 Eu121 2.384 . S
O133 C142 1.255 . S
O134 Tb120 2.366 . S
O134 C142 1.265 . S
C135 O131 1.259 . S
C135 O132 1.265 . S
O136 Eu121 2.479 1_554 S
O136 C151 1.238 . S
O137 Eu121 2.471 1_554 S
O137 C151 1.247 . S
O138 Eu121 2.347 . S
O138 C122 1.259 . S
O139 Tb120 2.418 . S
O139 C122 1.265 . S
O140 Tb120 2.384 . S
O140 C123 1.255 . S
O141 Eu121 2.366 . S
O141 C123 1.265 . S
C142 O133 1.255 . S
C142 O134 1.265 . S
O143 Tb120 2.479 . S
O143 C130 1.238 . S
O144 Tb120 2.471 . S
O144 C130 1.247 . S
C145 C148 1.380 . S
C145 C149 1.374 . S
C145 C151 1.507 . S
C146 C147 1.387 . S
C146 C150 1.391 . S
C147 C146 1.387 . S
C147 C148 1.384 . S
C147 H156 0.930 . S
C148 C145 1.380 . S
C148 C147 1.384 . S
C148 H157 0.931 . S
C149 C145 1.374 . S
C149 C150 1.390 . S
C149 H158 0.930 . S
C150 C146 1.391 . S
C150 C149 1.390 . S
C150 H159 0.930 . S
C151 Eu121 2.825 1_554 S
C151 O136 1.238 . S
C151 O137 1.247 . S
C151 C145 1.507 . S
H152 C125 0.930 . S
H153 C126 0.931 . S
H154 C127 0.930 . S
H155 C128 0.930 . S
H156 C147 0.930 . S
H157 C148 0.931 . S
H158 C149 0.930 . S
H159 C150 0.930 . S
Tb160 C170 2.825 . S
Tb160 O171 2.347 . S
Tb160 O174 2.366 . S
Tb160 O179 2.418 . S
Tb160 O180 2.384 . S
Tb160 O183 2.479 . S
Tb160 O184 2.471 . S
Eu161 O172 2.418 . S
Eu161 O173 2.384 . S
Eu161 O176 2.479 1_556 S
Eu161 O177 2.471 1_556 S
Eu161 O178 2.347 . S
Eu161 O181 2.366 . S
Eu161 C191 2.825 1_556 S
C162 O178 1.259 . S
C162 O179 1.265 . S
C163 O180 1.255 . S
C163 O181 1.265 . S
C164 C166 1.380 . S
C164 C167 1.374 . S
C164 C170 1.507 . S
C165 C166 1.384 . S
C165 C169 1.387 . S
C165 H192 0.930 . S
C166 C164 1.380 . S
C166 C165 1.384 . S
C166 H193 0.931 . S
C167 C164 1.374 . S
C167 C168 1.390 . S
C167 H194 0.930 . S
C168 C167 1.390 . S
C168 C169 1.391 . S
C168 H195 0.930 . S
C169 C165 1.387 . S
C169 C168 1.391 . S
C170 Tb160 2.825 . S
C170 C164 1.507 . S
C170 O183 1.238 . S
C170 O184 1.247 . S
O171 Tb160 2.347 . S
O171 C175 1.259 . S
O172 Eu161 2.418 . S
O172 C175 1.265 . S
O173 Eu161 2.384 . S
O173 C182 1.255 . S
O174 Tb160 2.366 . S
O174 C182 1.265 . S
C175 O171 1.259 . S
C175 O172 1.265 . S
O176 Eu161 2.479 1_554 S
O176 C191 1.238 . S
O177 Eu161 2.471 1_554 S
O177 C191 1.247 . S
O178 Eu161 2.347 . S
O178 C162 1.259 . S
O179 Tb160 2.418 . S
O179 C162 1.265 . S
O180 Tb160 2.384 . S
O180 C163 1.255 . S
O181 Eu161 2.366 . S
O181 C163 1.265 . S
C182 O173 1.255 . S
C182 O174 1.265 . S
O183 Tb160 2.479 . S
O183 C170 1.238 . S
O184 Tb160 2.471 . S
O184 C170 1.247 . S
C185 C188 1.380 . S
C185 C189 1.374 . S
C185 C191 1.507 . S
C186 C187 1.387 . S
C186 C190 1.391 . S
C187 C186 1.387 . S
C187 C188 1.384 . S
C187 H196 0.930 . S
C188 C185 1.380 . S
C188 C187 1.384 . S
C188 H197 0.931 . S
C189 C185 1.374 . S
C189 C190 1.390 . S
C189 H198 0.930 . S
C190 C186 1.391 . S
C190 C189 1.390 . S
C190 H199 0.930 . S
C191 Eu161 2.825 1_554 S
C191 O176 1.238 . S
C191 O177 1.247 . S
C191 C185 1.507 . S
H192 C165 0.930 . S
H193 C166 0.931 . S
H194 C167 0.930 . S
H195 C168 0.930 . S
H196 C187 0.930 . S
H197 C188 0.931 . S
H198 C189 0.930 . S
H199 C190 0.930 . S
Tb200 C210 2.825 1_554 S
Tb200 O211 2.347 . S
Tb200 O214 2.366 . S
Tb200 O219 2.418 . S
Tb200 O220 2.384 . S
Tb200 O223 2.479 . S
Tb200 O224 2.471 . S
Eu201 O212 2.418 . S
Eu201 O213 2.384 . S
Eu201 O216 2.479 . S
Eu201 O217 2.471 . S
Eu201 O218 2.347 . S
Eu201 O221 2.366 . S
Eu201 C231 2.825 . S
C202 O218 1.259 . S
C202 O219 1.265 . S
C203 O220 1.255 . S
C203 O221 1.265 . S
C204 C206 1.380 . S
C204 C207 1.374 . S
C204 C210 1.507 . S
C205 C206 1.384 . S
C205 C209 1.387 . S
C205 H232 0.930 . S
C206 C204 1.380 . S
C206 C205 1.384 . S
C206 H233 0.931 . S
C207 C204 1.374 . S
C207 C208 1.390 . S
C207 H234 0.930 . S
C208 C207 1.390 . S
C208 C209 1.391 . S
C208 H235 0.930 . S
C209 C205 1.387 . S
C209 C208 1.391 . S
C210 Tb200 2.825 1_556 S
C210 C204 1.507 . S
C210 O223 1.238 1_556 S
C210 O224 1.247 1_556 S
O211 Tb200 2.347 . S
O211 C215 1.259 . S
O212 Eu201 2.418 . S
O212 C215 1.265 . S
O213 Eu201 2.384 . S
O213 C222 1.255 . S
O214 Tb200 2.366 . S
O214 C222 1.265 . S
C215 O211 1.259 . S
C215 O212 1.265 . S
O216 Eu201 2.479 . S
O216 C231 1.238 . S
O217 Eu201 2.471 . S
O217 C231 1.247 . S
O218 Eu201 2.347 . S
O218 C202 1.259 . S
O219 Tb200 2.418 . S
O219 C202 1.265 . S
O220 Tb200 2.384 . S
O220 C203 1.255 . S
O221 Eu201 2.366 . S
O221 C203 1.265 . S
C222 O213 1.255 . S
C222 O214 1.265 . S
O223 Tb200 2.479 . S
O223 C210 1.238 1_554 S
O224 Tb200 2.471 . S
O224 C210 1.247 1_554 S
C225 C228 1.380 . S
C225 C229 1.374 . S
C225 C231 1.507 . S
C226 C227 1.387 . S
C226 C230 1.391 . S
C227 C226 1.387 . S
C227 C228 1.384 . S
C227 H236 0.930 . S
C228 C225 1.380 . S
C228 C227 1.384 . S
C228 H237 0.931 . S
C229 C225 1.374 . S
C229 C230 1.390 . S
C229 H238 0.930 . S
C230 C226 1.391 . S
C230 C229 1.390 . S
C230 H239 0.930 . S
C231 Eu201 2.825 . S
C231 O216 1.238 . S
C231 O217 1.247 . S
C231 C225 1.507 . S
H232 C205 0.930 . S
H233 C206 0.931 . S
H234 C207 0.930 . S
H235 C208 0.930 . S
H236 C227 0.930 . S
H237 C228 0.931 . S
H238 C229 0.930 . S
H239 C230 0.930 . S
Tb240 C250 2.825 . S
Tb240 O251 2.347 . S
Tb240 O254 2.366 . S
Tb240 O259 2.418 . S
Tb240 O260 2.384 . S
Tb240 O263 2.479 . S
Tb240 O264 2.471 . S
Eu241 O252 2.418 . S
Eu241 O253 2.384 . S
Eu241 O256 2.479 . S
Eu241 O257 2.471 . S
Eu241 O258 2.347 . S
Eu241 O261 2.366 . S
Eu241 C271 2.825 . S
C242 O258 1.259 . S
C242 O259 1.265 . S
C243 O260 1.255 . S
C243 O261 1.265 . S
C244 C246 1.380 . S
C244 C247 1.374 . S
C244 C250 1.507 . S
C245 C246 1.384 . S
C245 C249 1.387 1_554 S
C245 H272 0.930 1_554 S
C246 C244 1.380 . S
C246 C245 1.384 . S
C246 H273 0.931 . S
C247 C244 1.374 . S
C247 C248 1.390 . S
C247 H274 0.930 . S
C248 C247 1.390 . S
C248 C249 1.391 1_554 S
C248 H275 0.930 . S
C249 C245 1.387 1_556 S
C249 C248 1.391 1_556 S
C250 Tb240 2.825 . S
C250 C244 1.507 . S
C250 O263 1.238 . S
C250 O264 1.247 . S
O251 Tb240 2.347 . S
O251 C255 1.259 . S
O252 Eu241 2.418 . S
O252 C255 1.265 . S
O253 Eu241 2.384 . S
O253 C262 1.255 . S
O254 Tb240 2.366 . S
O254 C262 1.265 . S
C255 O251 1.259 . S
C255 O252 1.265 . S
O256 Eu241 2.479 . S
O256 C271 1.238 . S
O257 Eu241 2.471 . S
O257 C271 1.247 . S
O258 Eu241 2.347 . S
O258 C242 1.259 . S
O259 Tb240 2.418 . S
O259 C242 1.265 . S
O260 Tb240 2.384 . S
O260 C243 1.255 . S
O261 Eu241 2.366 . S
O261 C243 1.265 . S
C262 O253 1.255 . S
C262 O254 1.265 . S
O263 Tb240 2.479 . S
O263 C250 1.238 . S
O264 Tb240 2.471 . S
O264 C250 1.247 . S
C265 C268 1.380 . S
C265 C269 1.374 . S
C265 C271 1.507 . S
C266 C267 1.387 . S
C266 C270 1.391 . S
C267 C266 1.387 . S
C267 C268 1.384 . S
C267 H276 0.930 . S
C268 C265 1.380 . S
C268 C267 1.384 . S
C268 H277 0.931 . S
C269 C265 1.374 . S
C269 C270 1.390 . S
C269 H278 0.930 . S
C270 C266 1.391 . S
C270 C269 1.390 . S
C270 H279 0.930 . S
C271 Eu241 2.825 . S
C271 O256 1.238 . S
C271 O257 1.247 . S
C271 C265 1.507 . S
H272 C245 0.930 1_556 S
H273 C246 0.931 . S
H274 C247 0.930 . S
H275 C248 0.930 . S
H276 C267 0.930 . S
H277 C268 0.931 . S
H278 C269 0.930 . S
H279 C270 0.930 . S
Tb280 C290 2.825 . S
Tb280 O291 2.347 . S
Tb280 O294 2.366 . S
Tb280 O299 2.418 . S
Tb280 O300 2.384 . S
Tb280 O303 2.479 . S
Tb280 O304 2.471 . S
Eu281 O292 2.418 . S
Eu281 O293 2.384 . S
Eu281 O296 2.479 . S
Eu281 O297 2.471 . S
Eu281 O298 2.347 . S
Eu281 O301 2.366 . S
Eu281 C311 2.825 . S
C282 O298 1.259 . S
C282 O299 1.265 . S
C283 O300 1.255 . S
C283 O301 1.265 . S
C284 C286 1.380 . S
C284 C287 1.374 . S
C284 C290 1.507 . S
C285 C286 1.384 1_554 S
C285 C289 1.387 . S
C285 H312 0.930 . S
C286 C284 1.380 . S
C286 C285 1.384 1_556 S
C286 H313 0.931 . S
C287 C284 1.374 . S
C287 C288 1.390 1_556 S
C287 H314 0.930 . S
C288 C287 1.390 1_554 S
C288 C289 1.391 . S
C288 H315 0.930 . S
C289 C285 1.387 . S
C289 C288 1.391 . S
C290 Tb280 2.825 . S
C290 C284 1.507 . S
C290 O303 1.238 . S
C290 O304 1.247 . S
O291 Tb280 2.347 . S
O291 C295 1.259 . S
O292 Eu281 2.418 . S
O292 C295 1.265 . S
O293 Eu281 2.384 . S
O293 C302 1.255 . S
O294 Tb280 2.366 . S
O294 C302 1.265 . S
C295 O291 1.259 . S
C295 O292 1.265 . S
O296 Eu281 2.479 . S
O296 C311 1.238 . S
O297 Eu281 2.471 . S
O297 C311 1.247 . S
O298 Eu281 2.347 . S
O298 C282 1.259 . S
O299 Tb280 2.418 . S
O299 C282 1.265 . S
O300 Tb280 2.384 . S
O300 C283 1.255 . S
O301 Eu281 2.366 . S
O301 C283 1.265 . S
C302 O293 1.255 . S
C302 O294 1.265 . S
O303 Tb280 2.479 . S
O303 C290 1.238 . S
O304 Tb280 2.471 . S
O304 C290 1.247 . S
C305 C308 1.380 . S
C305 C309 1.374 . S
C305 C311 1.507 . S
C306 C307 1.387 . S
C306 C310 1.391 . S
C307 C306 1.387 . S
C307 C308 1.384 . S
C307 H316 0.930 . S
C308 C305 1.380 . S
C308 C307 1.384 . S
C308 H317 0.931 . S
C309 C305 1.374 . S
C309 C310 1.390 . S
C309 H318 0.930 . S
C310 C306 1.391 . S
C310 C309 1.390 . S
C310 H319 0.930 . S
C311 Eu281 2.825 . S
C311 O296 1.238 . S
C311 O297 1.247 . S
C311 C305 1.507 . S
H312 C285 0.930 . S
H313 C286 0.931 . S
H314 C287 0.930 . S
H315 C288 0.930 . S
H316 C307 0.930 . S
H317 C308 0.931 . S
H318 C309 0.930 . S
H319 C310 0.930 . S
Tb320 C330 2.825 1_556 S
Tb320 O331 2.347 . S
Tb320 O334 2.366 . S
Tb320 O339 2.418 . S
Tb320 O340 2.384 . S
Tb320 O343 2.479 . S
Tb320 O344 2.471 . S
Eu321 O332 2.418 . S
Eu321 O333 2.384 . S
Eu321 O336 2.479 . S
Eu321 O337 2.471 . S
Eu321 O338 2.347 . S
Eu321 O341 2.366 . S
Eu321 C351 2.825 . S
C322 O338 1.259 . S
C322 O339 1.265 . S
C323 O340 1.255 . S
C323 O341 1.265 . S
C324 C326 1.380 . S
C324 C327 1.374 . S
C324 C330 1.507 . S
C325 C326 1.384 . S
C325 C329 1.387 . S
C325 H352 0.930 . S
C326 C324 1.380 . S
C326 C325 1.384 . S
C326 H353 0.931 . S
C327 C324 1.374 . S
C327 C328 1.390 . S
C327 H354 0.930 . S
C328 C327 1.390 . S
C328 C329 1.391 . S
C328 H355 0.930 . S
C329 C325 1.387 . S
C329 C328 1.391 . S
C330 Tb320 2.825 1_554 S
C330 C324 1.507 . S
C330 O343 1.238 1_554 S
C330 O344 1.247 1_554 S
O331 Tb320 2.347 . S
O331 C335 1.259 . S
O332 Eu321 2.418 . S
O332 C335 1.265 . S
O333 Eu321 2.384 . S
O333 C342 1.255 . S
O334 Tb320 2.366 . S
O334 C342 1.265 . S
C335 O331 1.259 . S
C335 O332 1.265 . S
O336 Eu321 2.479 . S
O336 C351 1.238 . S
O337 Eu321 2.471 . S
O337 C351 1.247 . S
O338 Eu321 2.347 . S
O338 C322 1.259 . S
O339 Tb320 2.418 . S
O339 C322 1.265 . S
O340 Tb320 2.384 . S
O340 C323 1.255 . S
O341 Eu321 2.366 . S
O341 C323 1.265 . S
C342 O333 1.255 . S
C342 O334 1.265 . S
O343 Tb320 2.479 . S
O343 C330 1.238 1_556 S
O344 Tb320 2.471 . S
O344 C330 1.247 1_556 S
C345 C348 1.380 . S
C345 C349 1.374 . S
C345 C351 1.507 . S
C346 C347 1.387 . S
C346 C350 1.391 . S
C347 C346 1.387 . S
C347 C348 1.384 . S
C347 H356 0.930 . S
C348 C345 1.380 . S
C348 C347 1.384 . S
C348 H357 0.931 . S
C349 C345 1.374 . S
C349 C350 1.390 . S
C349 H358 0.930 . S
C350 C346 1.391 . S
C350 C349 1.390 . S
C350 H359 0.930 . S
C351 Eu321 2.825 . S
C351 O336 1.238 . S
C351 O337 1.247 . S
C351 C345 1.507 . S
H352 C325 0.930 . S
H353 C326 0.931 . S
H354 C327 0.930 . S
H355 C328 0.930 . S
H356 C347 0.930 . S
H357 C348 0.931 . S
H358 C349 0.930 . S
H359 C350 0.930 . S
Tb360 C370 2.825 . S
Tb360 O371 2.347 . S
Tb360 O374 2.366 . S
Tb360 O379 2.418 . S
Tb360 O380 2.384 . S
Tb360 O383 2.479 . S
Tb360 O384 2.471 . S
Eu361 O372 2.418 . S
Eu361 O373 2.384 . S
Eu361 O376 2.479 . S
Eu361 O377 2.471 . S
Eu361 O378 2.347 . S
Eu361 O381 2.366 . S
Eu361 C391 2.825 . S
C362 O378 1.259 . S
C362 O379 1.265 . S
C363 O380 1.255 . S
C363 O381 1.265 . S
C364 C366 1.380 . S
C364 C367 1.374 . S
C364 C370 1.507 . S
C365 C366 1.384 . S
C365 C369 1.387 . S
C365 H392 0.930 . S
C366 C364 1.380 . S
C366 C365 1.384 . S
C366 H393 0.931 . S
C367 C364 1.374 . S
C367 C368 1.390 . S
C367 H394 0.930 . S
C368 C367 1.390 . S
C368 C369 1.391 . S
C368 H395 0.930 . S
C369 C365 1.387 . S
C369 C368 1.391 . S
C370 Tb360 2.825 . S
C370 C364 1.507 . S
C370 O383 1.238 . S
C370 O384 1.247 . S
O371 Tb360 2.347 . S
O371 C375 1.259 . S
O372 Eu361 2.418 . S
O372 C375 1.265 . S
O373 Eu361 2.384 . S
O373 C382 1.255 . S
O374 Tb360 2.366 . S
O374 C382 1.265 . S
C375 O371 1.259 . S
C375 O372 1.265 . S
O376 Eu361 2.479 . S
O376 C391 1.238 . S
O377 Eu361 2.471 . S
O377 C391 1.247 . S
O378 Eu361 2.347 . S
O378 C362 1.259 . S
O379 Tb360 2.418 . S
O379 C362 1.265 . S
O380 Tb360 2.384 . S
O380 C363 1.255 . S
O381 Eu361 2.366 . S
O381 C363 1.265 . S
C382 O373 1.255 . S
C382 O374 1.265 . S
O383 Tb360 2.479 . S
O383 C370 1.238 . S
O384 Tb360 2.471 . S
O384 C370 1.247 . S
C385 C388 1.380 . S
C385 C389 1.374 . S
C385 C391 1.507 . S
C386 C387 1.387 1_554 S
C386 C390 1.391 1_554 S
C387 C386 1.387 1_556 S
C387 C388 1.384 . S
C387 H396 0.930 1_556 S
C388 C385 1.380 . S
C388 C387 1.384 . S
C388 H397 0.931 . S
C389 C385 1.374 . S
C389 C390 1.390 . S
C389 H398 0.930 . S
C390 C386 1.391 1_556 S
C390 C389 1.390 . S
C390 H399 0.930 . S
C391 Eu361 2.825 . S
C391 O376 1.238 . S
C391 O377 1.247 . S
C391 C385 1.507 . S
H392 C365 0.930 . S
H393 C366 0.931 . S
H394 C367 0.930 . S
H395 C368 0.930 . S
H396 C387 0.930 1_554 S
H397 C388 0.931 . S
H398 C389 0.930 . S
H399 C390 0.930 . S
Tb400 C410 2.825 . S
Tb400 O411 2.347 . S
Tb400 O414 2.366 . S
Tb400 O419 2.418 . S
Tb400 O420 2.384 . S
Tb400 O423 2.479 . S
Tb400 O424 2.471 . S
Eu401 O412 2.418 . S
Eu401 O413 2.384 . S
Eu401 O416 2.479 . S
Eu401 O417 2.471 . S
Eu401 O418 2.347 . S
Eu401 O421 2.366 . S
Eu401 C431 2.825 . S
C402 O418 1.259 . S
C402 O419 1.265 . S
C403 O420 1.255 . S
C403 O421 1.265 . S
C404 C406 1.380 . S
C404 C407 1.374 . S
C404 C410 1.507 . S
C405 C406 1.384 1_556 S
C405 C409 1.387 . S
C405 H432 0.930 . S
C406 C404 1.380 . S
C406 C405 1.384 1_554 S
C406 H433 0.931 . S
C407 C404 1.374 . S
C407 C408 1.390 1_554 S
C407 H434 0.930 . S
C408 C407 1.390 1_556 S
C408 C409 1.391 . S
C408 H435 0.930 . S
C409 C405 1.387 . S
C409 C408 1.391 . S
C410 Tb400 2.825 . S
C410 C404 1.507 . S
C410 O423 1.238 . S
C410 O424 1.247 . S
O411 Tb400 2.347 . S
O411 C415 1.259 . S
O412 Eu401 2.418 . S
O412 C415 1.265 . S
O413 Eu401 2.384 . S
O413 C422 1.255 . S
O414 Tb400 2.366 . S
O414 C422 1.265 . S
C415 O411 1.259 . S
C415 O412 1.265 . S
O416 Eu401 2.479 . S
O416 C431 1.238 . S
O417 Eu401 2.471 . S
O417 C431 1.247 . S
O418 Eu401 2.347 . S
O418 C402 1.259 . S
O419 Tb400 2.418 . S
O419 C402 1.265 . S
O420 Tb400 2.384 . S
O420 C403 1.255 . S
O421 Eu401 2.366 . S
O421 C403 1.265 . S
C422 O413 1.255 . S
C422 O414 1.265 . S
O423 Tb400 2.479 . S
O423 C410 1.238 . S
O424 Tb400 2.471 . S
O424 C410 1.247 . S
C425 C428 1.380 . S
C425 C429 1.374 . S
C425 C431 1.507 . S
C426 C427 1.387 . S
C426 C430 1.391 . S
C427 C426 1.387 . S
C427 C428 1.384 . S
C427 H436 0.930 . S
C428 C425 1.380 . S
C428 C427 1.384 . S
C428 H437 0.931 . S
C429 C425 1.374 . S
C429 C430 1.390 . S
C429 H438 0.930 . S
C430 C426 1.391 . S
C430 C429 1.390 . S
C430 H439 0.930 . S
C431 Eu401 2.825 . S
C431 O416 1.238 . S
C431 O417 1.247 . S
C431 C425 1.507 . S
H432 C405 0.930 . S
H433 C406 0.931 . S
H434 C407 0.930 . S
H435 C408 0.930 . S
H436 C427 0.930 . S
H437 C428 0.931 . S
H438 C429 0.930 . S
H439 C430 0.930 . S
Tb440 C450 2.825 1_554 S
Tb440 O451 2.347 . S
Tb440 O454 2.366 . S
Tb440 O459 2.418 . S
Tb440 O460 2.384 . S
Tb440 O463 2.479 1_554 S
Tb440 O464 2.471 1_554 S
Eu441 O452 2.418 . S
Eu441 O453 2.384 . S
Eu441 O456 2.479 . S
Eu441 O457 2.471 . S
Eu441 O458 2.347 . S
Eu441 O461 2.366 . S
Eu441 C471 2.825 . S
C442 O458 1.259 . S
C442 O459 1.265 . S
C443 O460 1.255 . S
C443 O461 1.265 . S
C444 C446 1.380 . S
C444 C447 1.374 . S
C444 C450 1.507 . S
C445 C446 1.384 . S
C445 C449 1.387 . S
C445 H472 0.930 . S
C446 C444 1.380 . S
C446 C445 1.384 . S
C446 H473 0.931 . S
C447 C444 1.374 . S
C447 C448 1.390 . S
C447 H474 0.930 . S
C448 C447 1.390 . S
C448 C449 1.391 . S
C448 H475 0.930 . S
C449 C445 1.387 . S
C449 C448 1.391 . S
C450 Tb440 2.825 1_556 S
C450 C444 1.507 . S
C450 O463 1.238 . S
C450 O464 1.247 . S
O451 Tb440 2.347 . S
O451 C455 1.259 . S
O452 Eu441 2.418 . S
O452 C455 1.265 . S
O453 Eu441 2.384 . S
O453 C462 1.255 . S
O454 Tb440 2.366 . S
O454 C462 1.265 . S
C455 O451 1.259 . S
C455 O452 1.265 . S
O456 Eu441 2.479 . S
O456 C471 1.238 . S
O457 Eu441 2.471 . S
O457 C471 1.247 . S
O458 Eu441 2.347 . S
O458 C442 1.259 . S
O459 Tb440 2.418 . S
O459 C442 1.265 . S
O460 Tb440 2.384 . S
O460 C443 1.255 . S
O461 Eu441 2.366 . S
O461 C443 1.265 . S
C462 O453 1.255 . S
C462 O454 1.265 . S
O463 Tb440 2.479 1_556 S
O463 C450 1.238 . S
O464 Tb440 2.471 1_556 S
O464 C450 1.247 . S
C465 C468 1.380 . S
C465 C469 1.374 . S
C465 C471 1.507 . S
C466 C467 1.387 . S
C466 C470 1.391 . S
C467 C466 1.387 . S
C467 C468 1.384 . S
C467 H476 0.930 . S
C468 C465 1.380 . S
C468 C467 1.384 . S
C468 H477 0.931 . S
C469 C465 1.374 . S
C469 C470 1.390 . S
C469 H478 0.930 . S
C470 C466 1.391 . S
C470 C469 1.390 . S
C470 H479 0.930 . S
C471 Eu441 2.825 . S
C471 O456 1.238 . S
C471 O457 1.247 . S
C471 C465 1.507 . S
H472 C445 0.930 . S
H473 C446 0.931 . S
H474 C447 0.930 . S
H475 C448 0.930 . S
H476 C467 0.930 . S
H477 C468 0.931 . S
H478 C469 0.930 . S
H479 C470 0.930 . S
Tb480 C490 2.825 1_554 S
Tb480 O491 2.347 . S
Tb480 O494 2.366 . S
Tb480 O499 2.418 . S
Tb480 O500 2.384 . S
Tb480 O503 2.479 1_554 S
Tb480 O504 2.471 1_554 S
Eu481 O492 2.418 . S
Eu481 O493 2.384 . S
Eu481 O496 2.479 . S
Eu481 O497 2.471 . S
Eu481 O498 2.347 . S
Eu481 O501 2.366 . S
Eu481 C511 2.825 . S
C482 O498 1.259 . S
C482 O499 1.265 . S
C483 O500 1.255 . S
C483 O501 1.265 . S
C484 C486 1.380 . S
C484 C487 1.374 . S
C484 C490 1.507 . S
C485 C486 1.384 . S
C485 C489 1.387 . S
C485 H512 0.930 . S
C486 C484 1.380 . S
C486 C485 1.384 . S
C486 H513 0.931 . S
C487 C484 1.374 . S
C487 C488 1.390 . S
C487 H514 0.930 . S
C488 C487 1.390 . S
C488 C489 1.391 . S
C488 H515 0.930 . S
C489 C485 1.387 . S
C489 C488 1.391 . S
C490 Tb480 2.825 1_556 S
C490 C484 1.507 . S
C490 O503 1.238 . S
C490 O504 1.247 . S
O491 Tb480 2.347 . S
O491 C495 1.259 . S
O492 Eu481 2.418 . S
O492 C495 1.265 . S
O493 Eu481 2.384 . S
O493 C502 1.255 . S
O494 Tb480 2.366 . S
O494 C502 1.265 . S
C495 O491 1.259 . S
C495 O492 1.265 . S
O496 Eu481 2.479 . S
O496 C511 1.238 . S
O497 Eu481 2.471 . S
O497 C511 1.247 . S
O498 Eu481 2.347 . S
O498 C482 1.259 . S
O499 Tb480 2.418 . S
O499 C482 1.265 . S
O500 Tb480 2.384 . S
O500 C483 1.255 . S
O501 Eu481 2.366 . S
O501 C483 1.265 . S
C502 O493 1.255 . S
C502 O494 1.265 . S
O503 Tb480 2.479 1_556 S
O503 C490 1.238 . S
O504 Tb480 2.471 1_556 S
O504 C490 1.247 . S
C505 C508 1.380 . S
C505 C509 1.374 . S
C505 C511 1.507 . S
C506 C507 1.387 . S
C506 C510 1.391 . S
C507 C506 1.387 . S
C507 C508 1.384 . S
C507 H516 0.930 . S
C508 C505 1.380 . S
C508 C507 1.384 . S
C508 H517 0.931 . S
C509 C505 1.374 . S
C509 C510 1.390 . S
C509 H518 0.930 . S
C510 C506 1.391 . S
C510 C509 1.390 . S
C510 H519 0.930 . S
C511 Eu481 2.825 . S
C511 O496 1.238 . S
C511 O497 1.247 . S
C511 C505 1.507 . S
H512 C485 0.930 . S
H513 C486 0.931 . S
H514 C487 0.930 . S
H515 C488 0.930 . S
H516 C507 0.930 . S
H517 C508 0.931 . S
H518 C509 0.930 . S
H519 C510 0.930 . S
Tb520 C530 2.825 . S
Tb520 O531 2.347 . S
Tb520 O534 2.366 . S
Tb520 O539 2.418 . S
Tb520 O540 2.384 . S
Tb520 O543 2.479 . S
Tb520 O544 2.471 . S
Eu521 O532 2.418 . S
Eu521 O533 2.384 . S
Eu521 O536 2.479 . S
Eu521 O537 2.471 . S
Eu521 O538 2.347 . S
Eu521 O541 2.366 . S
Eu521 C551 2.825 1_556 S
C522 O538 1.259 . S
C522 O539 1.265 . S
C523 O540 1.255 . S
C523 O541 1.265 . S
C524 C526 1.380 . S
C524 C527 1.374 . S
C524 C530 1.507 . S
C525 C526 1.384 . S
C525 C529 1.387 . S
C525 H552 0.930 . S
C526 C524 1.380 . S
C526 C525 1.384 . S
C526 H553 0.931 . S
C527 C524 1.374 . S
C527 C528 1.390 . S
C527 H554 0.930 . S
C528 C527 1.390 . S
C528 C529 1.391 . S
C528 H555 0.930 . S
C529 C525 1.387 . S
C529 C528 1.391 . S
C530 Tb520 2.825 . S
C530 C524 1.507 . S
C530 O543 1.238 . S
C530 O544 1.247 . S
O531 Tb520 2.347 . S
O531 C535 1.259 . S
O532 Eu521 2.418 . S
O532 C535 1.265 . S
O533 Eu521 2.384 . S
O533 C542 1.255 . S
O534 Tb520 2.366 . S
O534 C542 1.265 . S
C535 O531 1.259 . S
C535 O532 1.265 . S
O536 Eu521 2.479 . S
O536 C551 1.238 1_556 S
O537 Eu521 2.471 . S
O537 C551 1.247 1_556 S
O538 Eu521 2.347 . S
O538 C522 1.259 . S
O539 Tb520 2.418 . S
O539 C522 1.265 . S
O540 Tb520 2.384 . S
O540 C523 1.255 . S
O541 Eu521 2.366 . S
O541 C523 1.265 . S
C542 O533 1.255 . S
C542 O534 1.265 . S
O543 Tb520 2.479 . S
O543 C530 1.238 . S
O544 Tb520 2.471 . S
O544 C530 1.247 . S
C545 C548 1.380 . S
C545 C549 1.374 . S
C545 C551 1.507 . S
C546 C547 1.387 . S
C546 C550 1.391 . S
C547 C546 1.387 . S
C547 C548 1.384 . S
C547 H556 0.930 . S
C548 C545 1.380 . S
C548 C547 1.384 . S
C548 H557 0.931 . S
C549 C545 1.374 . S
C549 C550 1.390 . S
C549 H558 0.930 . S
C550 C546 1.391 . S
C550 C549 1.390 . S
C550 H559 0.930 . S
C551 Eu521 2.825 1_554 S
C551 O536 1.238 1_554 S
C551 O537 1.247 1_554 S
C551 C545 1.507 . S
H552 C525 0.930 . S
H553 C526 0.931 . S
H554 C527 0.930 . S
H555 C528 0.930 . S
H556 C547 0.930 . S
H557 C548 0.931 . S
H558 C549 0.930 . S
H559 C550 0.930 . S
Tb560 C570 2.825 . S
Tb560 O571 2.347 . S
Tb560 O574 2.366 . S
Tb560 O579 2.418 . S
Tb560 O580 2.384 . S
Tb560 O583 2.479 . S
Tb560 O584 2.471 . S
Eu561 O572 2.418 . S
Eu561 O573 2.384 . S
Eu561 O576 2.479 . S
Eu561 O577 2.471 . S
Eu561 O578 2.347 . S
Eu561 O581 2.366 . S
Eu561 C591 2.825 . S
C562 O578 1.259 . S
C562 O579 1.265 . S
C563 O580 1.255 . S
C563 O581 1.265 . S
C564 C566 1.380 . S
C564 C567 1.374 . S
C564 C570 1.507 . S
C565 C566 1.384 . S
C565 C569 1.387 . S
C565 H592 0.930 . S
C566 C564 1.380 . S
C566 C565 1.384 . S
C566 H593 0.931 . S
C567 C564 1.374 . S
C567 C568 1.390 . S
C567 H594 0.930 . S
C568 C567 1.390 . S
C568 C569 1.391 . S
C568 H595 0.930 . S
C569 C565 1.387 . S
C569 C568 1.391 . S
C570 Tb560 2.825 . S
C570 C564 1.507 . S
C570 O583 1.238 . S
C570 O584 1.247 . S
O571 Tb560 2.347 . S
O571 C575 1.259 . S
O572 Eu561 2.418 . S
O572 C575 1.265 . S
O573 Eu561 2.384 . S
O573 C582 1.255 . S
O574 Tb560 2.366 . S
O574 C582 1.265 . S
C575 O571 1.259 . S
C575 O572 1.265 . S
O576 Eu561 2.479 . S
O576 C591 1.238 . S
O577 Eu561 2.471 . S
O577 C591 1.247 . S
O578 Eu561 2.347 . S
O578 C562 1.259 . S
O579 Tb560 2.418 . S
O579 C562 1.265 . S
O580 Tb560 2.384 . S
O580 C563 1.255 . S
O581 Eu561 2.366 . S
O581 C563 1.265 . S
C582 O573 1.255 . S
C582 O574 1.265 . S
O583 Tb560 2.479 . S
O583 C570 1.238 . S
O584 Tb560 2.471 . S
O584 C570 1.247 . S
C585 C588 1.380 . S
C585 C589 1.374 . S
C585 C591 1.507 . S
C586 C587 1.387 1_554 S
C586 C590 1.391 1_554 S
C587 C586 1.387 1_556 S
C587 C588 1.384 . S
C587 H596 0.930 1_556 S
C588 C585 1.380 . S
C588 C587 1.384 . S
C588 H597 0.931 . S
C589 C585 1.374 . S
C589 C590 1.390 . S
C589 H598 0.930 . S
C590 C586 1.391 1_556 S
C590 C589 1.390 . S
C590 H599 0.930 . S
C591 Eu561 2.825 . S
C591 O576 1.238 . S
C591 O577 1.247 . S
C591 C585 1.507 . S
H592 C565 0.930 . S
H593 C566 0.931 . S
H594 C567 0.930 . S
H595 C568 0.930 . S
H596 C587 0.930 1_554 S
H597 C588 0.931 . S
H598 C589 0.930 . S
H599 C590 0.930 . S
Tb600 C610 2.825 . S
Tb600 O611 2.347 . S
Tb600 O614 2.366 . S
Tb600 O619 2.418 . S
Tb600 O620 2.384 . S
Tb600 O623 2.479 . S
Tb600 O624 2.471 . S
Eu601 O612 2.418 . S
Eu601 O613 2.384 . S
Eu601 O616 2.479 . S
Eu601 O617 2.471 . S
Eu601 O618 2.347 . S
Eu601 O621 2.366 . S
Eu601 C631 2.825 . S
C602 O618 1.259 . S
C602 O619 1.265 . S
C603 O620 1.255 . S
C603 O621 1.265 . S
C604 C606 1.380 . S
C604 C607 1.374 . S
C604 C610 1.507 . S
C605 C606 1.384 . S
C605 C609 1.387 . S
C605 H632 0.930 . S
C606 C604 1.380 . S
C606 C605 1.384 . S
C606 H633 0.931 . S
C607 C604 1.374 . S
C607 C608 1.390 . S
C607 H634 0.930 . S
C608 C607 1.390 . S
C608 C609 1.391 . S
C608 H635 0.930 . S
C609 C605 1.387 . S
C609 C608 1.391 . S
C610 Tb600 2.825 . S
C610 C604 1.507 . S
C610 O623 1.238 . S
C610 O624 1.247 . S
O611 Tb600 2.347 . S
O611 C615 1.259 . S
O612 Eu601 2.418 . S
O612 C615 1.265 . S
O613 Eu601 2.384 . S
O613 C622 1.255 . S
O614 Tb600 2.366 . S
O614 C622 1.265 . S
C615 O611 1.259 . S
C615 O612 1.265 . S
O616 Eu601 2.479 . S
O616 C631 1.238 . S
O617 Eu601 2.471 . S
O617 C631 1.247 . S
O618 Eu601 2.347 . S
O618 C602 1.259 . S
O619 Tb600 2.418 . S
O619 C602 1.265 . S
O620 Tb600 2.384 . S
O620 C603 1.255 . S
O621 Eu601 2.366 . S
O621 C603 1.265 . S
C622 O613 1.255 . S
C622 O614 1.265 . S
O623 Tb600 2.479 . S
O623 C610 1.238 . S
O624 Tb600 2.471 . S
O624 C610 1.247 . S
C625 C628 1.380 . S
C625 C629 1.374 . S
C625 C631 1.507 . S
C626 C627 1.387 . S
C626 C630 1.391 . S
C627 C626 1.387 . S
C627 C628 1.384 1_556 S
C627 H636 0.930 . S
C628 C625 1.380 . S
C628 C627 1.384 1_554 S
C628 H637 0.931 . S
C629 C625 1.374 . S
C629 C630 1.390 1_554 S
C629 H638 0.930 . S
C630 C626 1.391 . S
C630 C629 1.390 1_556 S
C630 H639 0.930 . S
C631 Eu601 2.825 . S
C631 O616 1.238 . S
C631 O617 1.247 . S
C631 C625 1.507 . S
H632 C605 0.930 . S
H633 C606 0.931 . S
H634 C607 0.930 . S
H635 C608 0.930 . S
H636 C627 0.930 . S
H637 C628 0.931 . S
H638 C629 0.930 . S
H639 C630 0.930 . S
C640 C641 1.369 . S
C640 C642 1.419 . S
C640 H644 0.930 . S
C641 C640 1.369 . S
C641 C650 1.429 . S
C642 C640 1.419 . S
C642 C643 1.363 . S
C642 H645 0.929 . S
C643 C642 1.363 . S
C643 C649 1.428 . S
H644 C640 0.930 . S
H645 C642 0.929 . S
S646 N647 1.613 . S
S646 N648 1.610 . S
N647 S646 1.613 . S
N647 C650 1.350 . S
N648 S646 1.610 . S
N648 C649 1.351 . S
C649 C643 1.428 . S
C649 N648 1.351 . S
C649 C650 1.434 . S
C650 C641 1.429 . S
C650 N647 1.350 . S
C650 C649 1.434 . S
C651 C652 1.369 . S
C651 C653 1.419 . S
C651 H655 0.930 . S
C652 C651 1.369 . S
C652 C661 1.429 . S
C653 C651 1.419 . S
C653 C654 1.363 . S
C653 H656 0.929 . S
C654 C653 1.363 . S
C654 C660 1.428 . S
H655 C651 0.930 . S
H656 C653 0.929 . S
S657 N658 1.613 . S
S657 N659 1.610 . S
N658 S657 1.613 . S
N658 C661 1.350 . S
N659 S657 1.610 . S
N659 C660 1.351 . S
C660 C654 1.428 . S
C660 N659 1.351 . S
C660 C661 1.434 . S
C661 C652 1.429 . S
C661 N658 1.350 . S
C661 C660 1.434 . S
C662 C663 1.369 . S
C662 C664 1.419 . S
C662 H666 0.930 . S
C663 C662 1.369 . S
C663 C672 1.429 . S
C664 C662 1.419 . S
C664 C665 1.363 . S
C664 H667 0.929 . S
C665 C664 1.363 . S
C665 C671 1.428 . S
H666 C662 0.930 . S
H667 C664 0.929 . S
S668 N669 1.613 . S
S668 N670 1.610 . S
N669 S668 1.613 . S
N669 C672 1.350 . S
N670 S668 1.610 . S
N670 C671 1.351 . S
C671 C665 1.428 . S
C671 N670 1.351 . S
C671 C672 1.434 . S
C672 C663 1.429 . S
C672 N669 1.350 . S
C672 C671 1.434 . S
C673 C674 1.369 . S
C673 C675 1.419 . S
C673 H677 0.930 . S
C674 C673 1.369 . S
C674 C683 1.429 . S
C675 C673 1.419 . S
C675 C676 1.363 . S
C675 H678 0.929 . S
C676 C675 1.363 . S
C676 C682 1.428 . S
H677 C673 0.930 . S
H678 C675 0.929 . S
S679 N680 1.613 . S
S679 N681 1.610 . S
N680 S679 1.613 . S
N680 C683 1.350 . S
N681 S679 1.610 . S
N681 C682 1.351 . S
C682 C676 1.428 . S
C682 N681 1.351 . S
C682 C683 1.434 . S
C683 C674 1.429 . S
C683 N680 1.350 . S
C683 C682 1.434 . S
C684 C685 1.369 . S
C684 C686 1.419 . S
C684 H688 0.930 . S
C685 C684 1.369 . S
C685 C694 1.429 . S
C686 C684 1.419 . S
C686 C687 1.363 . S
C686 H689 0.929 . S
C687 C686 1.363 . S
C687 C693 1.428 . S
H688 C684 0.930 . S
H689 C686 0.929 . S
S690 N691 1.613 . S
S690 N692 1.610 . S
N691 S690 1.613 . S
N691 C694 1.350 . S
N692 S690 1.610 . S
N692 C693 1.351 . S
C693 C687 1.428 . S
C693 N692 1.351 . S
C693 C694 1.434 . S
C694 C685 1.429 . S
C694 N691 1.350 . S
C694 C693 1.434 . S
C695 C696 1.369 . S
C695 C697 1.419 . S
C695 H699 0.930 . S
C696 C695 1.369 . S
C696 C705 1.429 . S
C697 C695 1.419 . S
C697 C698 1.363 . S
C697 H700 0.929 . S
C698 C697 1.363 . S
C698 C704 1.428 . S
H699 C695 0.930 . S
H700 C697 0.929 . S
S701 N702 1.613 . S
S701 N703 1.610 . S
N702 S701 1.613 . S
N702 C705 1.350 . S
N703 S701 1.610 . S
N703 C704 1.351 . S
C704 C698 1.428 . S
C704 N703 1.351 . S
C704 C705 1.434 . S
C705 C696 1.429 . S
C705 N702 1.350 . S
C705 C704 1.434 . S
C706 C707 1.369 . S
C706 C708 1.419 . S
C706 H710 0.930 . S
C707 C706 1.369 . S
C707 C716 1.429 . S
C708 C706 1.419 . S
C708 C709 1.363 . S
C708 H711 0.929 . S
C709 C708 1.363 . S
C709 C715 1.428 . S
H710 C706 0.930 . S
H711 C708 0.929 . S
S712 N713 1.613 . S
S712 N714 1.610 . S
N713 S712 1.613 . S
N713 C716 1.350 . S
N714 S712 1.610 . S
N714 C715 1.351 . S
C715 C709 1.428 . S
C715 N714 1.351 . S
C715 C716 1.434 . S
C716 C707 1.429 . S
C716 N713 1.350 . S
C716 C715 1.434 . S
C717 C718 1.369 . S
C717 C719 1.419 . S
C717 H721 0.930 . S
C718 C717 1.369 . S
C718 C727 1.429 . S
C719 C717 1.419 . S
C719 C720 1.363 . S
C719 H722 0.929 . S
C720 C719 1.363 . S
C720 C726 1.428 . S
H721 C717 0.930 . S
H722 C719 0.929 . S
S723 N724 1.613 . S
S723 N725 1.610 . S
N724 S723 1.613 . S
N724 C727 1.350 . S
N725 S723 1.610 . S
N725 C726 1.351 . S
C726 C720 1.428 . S
C726 N725 1.351 . S
C726 C727 1.434 . S
C727 C718 1.429 . S
C727 N724 1.350 . S
C727 C726 1.434 . S
C728 C729 1.369 . S
C728 C730 1.419 . S
C728 H732 0.930 . S
C729 C728 1.369 . S
C729 C738 1.429 . S
C730 C728 1.419 . S
C730 C731 1.363 . S
C730 H733 0.929 . S
C731 C730 1.363 . S
C731 C737 1.428 . S
H732 C728 0.930 . S
H733 C730 0.929 . S
S734 N735 1.613 . S
S734 N736 1.610 . S
N735 S734 1.613 . S
N735 C738 1.350 . S
N736 S734 1.610 . S
N736 C737 1.351 . S
C737 C731 1.428 . S
C737 N736 1.351 . S
C737 C738 1.434 . S
C738 C729 1.429 . S
C738 N735 1.350 . S
C738 C737 1.434 . S
C739 C740 1.369 . S
C739 C741 1.419 . S
C739 H743 0.930 . S
C740 C739 1.369 . S
C740 C749 1.429 . S
C741 C739 1.419 . S
C741 C742 1.363 . S
C741 H744 0.929 . S
C742 C741 1.363 . S
C742 C748 1.428 . S
H743 C739 0.930 . S
H744 C741 0.929 . S
S745 N746 1.613 . S
S745 N747 1.610 . S
N746 S745 1.613 . S
N746 C749 1.350 . S
N747 S745 1.610 . S
N747 C748 1.351 . S
C748 C742 1.428 . S
C748 N747 1.351 . S
C748 C749 1.434 . S
C749 C740 1.429 . S
C749 N746 1.350 . S
C749 C748 1.434 . S
C750 C751 1.369 . S
C750 C752 1.419 . S
C750 H754 0.930 . S
C751 C750 1.369 . S
C751 C760 1.429 . S
C752 C750 1.419 . S
C752 C753 1.363 . S
C752 H755 0.929 . S
C753 C752 1.363 . S
C753 C759 1.428 . S
H754 C750 0.930 . S
H755 C752 0.929 . S
S756 N757 1.613 . S
S756 N758 1.610 . S
N757 S756 1.613 . S
N757 C760 1.350 . S
N758 S756 1.610 . S
N758 C759 1.351 . S
C759 C753 1.428 . S
C759 N758 1.351 . S
C759 C760 1.434 . S
C760 C751 1.429 . S
C760 N757 1.350 . S
C760 C759 1.434 . S
C761 C762 1.369 . S
C761 C763 1.419 . S
C761 H765 0.930 . S
C762 C761 1.369 . S
C762 C771 1.429 . S
C763 C761 1.419 . S
C763 C764 1.363 . S
C763 H766 0.929 . S
C764 C763 1.363 . S
C764 C770 1.428 . S
H765 C761 0.930 . S
H766 C763 0.929 . S
S767 N768 1.613 . S
S767 N769 1.610 . S
N768 S767 1.613 . S
N768 C771 1.350 . S
N769 S767 1.610 . S
N769 C770 1.351 . S
C770 C764 1.428 . S
C770 N769 1.351 . S
C770 C771 1.434 . S
C771 C762 1.429 . S
C771 N768 1.350 . S
C771 C770 1.434 . S
C772 C773 1.369 . S
C772 C774 1.419 . S
C772 H776 0.930 . S
C773 C772 1.369 . S
C773 C782 1.429 . S
C774 C772 1.419 . S
C774 C775 1.363 . S
C774 H777 0.929 . S
C775 C774 1.363 . S
C775 C781 1.428 . S
H776 C772 0.930 . S
H777 C774 0.929 . S
S778 N779 1.613 . S
S778 N780 1.610 . S
N779 S778 1.613 . S
N779 C782 1.350 . S
N780 S778 1.610 . S
N780 C781 1.351 . S
C781 C775 1.428 . S
C781 N780 1.351 . S
C781 C782 1.434 . S
C782 C773 1.429 . S
C782 N779 1.350 . S
C782 C781 1.434 . S
C783 C784 1.369 . S
C783 C785 1.419 . S
C783 H787 0.930 . S
C784 C783 1.369 . S
C784 C793 1.429 . S
C785 C783 1.419 . S
C785 C786 1.363 . S
C785 H788 0.929 . S
C786 C785 1.363 . S
C786 C792 1.428 . S
H787 C783 0.930 . S
H788 C785 0.929 . S
S789 N790 1.613 . S
S789 N791 1.610 . S
N790 S789 1.613 . S
N790 C793 1.350 . S
N791 S789 1.610 . S
N791 C792 1.351 . S
C792 C786 1.428 . S
C792 N791 1.351 . S
C792 C793 1.434 . S
C793 C784 1.429 . S
C793 N790 1.350 . S
C793 C792 1.434 . S
C794 C795 1.369 . S
C794 C796 1.419 . S
C794 H798 0.930 . S
C795 C794 1.369 . S
C795 C804 1.429 . S
C796 C794 1.419 . S
C796 C797 1.363 . S
C796 H799 0.929 . S
C797 C796 1.363 . S
C797 C803 1.428 . S
H798 C794 0.930 . S
H799 C796 0.929 . S
S800 N801 1.613 . S
S800 N802 1.610 . S
N801 S800 1.613 . S
N801 C804 1.350 . S
N802 S800 1.610 . S
N802 C803 1.351 . S
C803 C797 1.428 . S
C803 N802 1.351 . S
C803 C804 1.434 . S
C804 C795 1.429 . S
C804 N801 1.350 . S
C804 C803 1.434 . S
C805 C806 1.369 . S
C805 C807 1.419 . S
C805 H809 0.930 . S
C806 C805 1.369 . S
C806 C815 1.429 . S
C807 C805 1.419 . S
C807 C808 1.363 . S
C807 H810 0.929 . S
C808 C807 1.363 . S
C808 C814 1.428 . S
H809 C805 0.930 . S
H810 C807 0.929 . S
S811 N812 1.613 . S
S811 N813 1.610 . S
N812 S811 1.613 . S
N812 C815 1.350 . S
N813 S811 1.610 . S
N813 C814 1.351 . S
C814 C808 1.428 . S
C814 N813 1.351 . S
C814 C815 1.434 . S
C815 C806 1.429 . S
C815 N812 1.350 . S
C815 C814 1.434 . S
C816 C817 1.369 . S
C816 C818 1.419 . S
C816 H820 0.930 . S
C817 C816 1.369 . S
C817 C826 1.429 . S
C818 C816 1.419 . S
C818 C819 1.363 . S
C818 H821 0.929 . S
C819 C818 1.363 . S
C819 C825 1.428 . S
H820 C816 0.930 . S
H821 C818 0.929 . S
S822 N823 1.613 . S
S822 N824 1.610 . S
N823 S822 1.613 . S
N823 C826 1.350 . S
N824 S822 1.610 . S
N824 C825 1.351 . S
C825 C819 1.428 . S
C825 N824 1.351 . S
C825 C826 1.434 . S
C826 C817 1.429 . S
C826 N823 1.350 . S
C826 C825 1.434 . S
C827 C828 1.369 . S
C827 C829 1.419 . S
C827 H831 0.930 . S
C828 C827 1.369 . S
C828 C837 1.429 . S
C829 C827 1.419 . S
C829 C830 1.363 . S
C829 H832 0.929 . S
C830 C829 1.363 . S
C830 C836 1.428 . S
H831 C827 0.930 . S
H832 C829 0.929 . S
S833 N834 1.613 . S
S833 N835 1.610 . S
N834 S833 1.613 . S
N834 C837 1.350 . S
N835 S833 1.610 . S
N835 C836 1.351 . S
C836 C830 1.428 . S
C836 N835 1.351 . S
C836 C837 1.434 . S
C837 C828 1.429 . S
C837 N834 1.350 . S
C837 C836 1.434 . S
C838 C839 1.369 . S
C838 C840 1.419 . S
C838 H842 0.930 . S
C839 C838 1.369 . S
C839 C848 1.429 . S
C840 C838 1.419 . S
C840 C841 1.363 . S
C840 H843 0.929 . S
C841 C840 1.363 . S
C841 C847 1.428 . S
H842 C838 0.930 . S
H843 C840 0.929 . S
S844 N845 1.613 . S
S844 N846 1.610 . S
N845 S844 1.613 . S
N845 C848 1.350 . S
N846 S844 1.610 . S
N846 C847 1.351 . S
C847 C841 1.428 . S
C847 N846 1.351 . S
C847 C848 1.434 . S
C848 C839 1.429 . S
C848 N845 1.350 . S
C848 C847 1.434 . S
C849 C850 1.369 . S
C849 C851 1.419 1_655 S
C849 H853 0.930 . S
C850 C849 1.369 . S
C850 C859 1.429 . S
C851 C849 1.419 1_455 S
C851 C852 1.363 . S
C851 H854 0.929 . S
C852 C851 1.363 . S
C852 C858 1.428 . S
H853 C849 0.930 . S
H854 C851 0.929 . S
S855 N856 1.613 . S
S855 N857 1.610 1_655 S
N856 S855 1.613 . S
N856 C859 1.350 . S
N857 S855 1.610 1_455 S
N857 C858 1.351 . S
C858 C852 1.428 . S
C858 N857 1.351 . S
C858 C859 1.434 1_455 S
C859 C850 1.429 . S
C859 N856 1.350 . S
C859 C858 1.434 1_655 S
C860 C861 1.369 . S
C860 C862 1.419 . S
C860 H864 0.930 . S
C861 C860 1.369 . S
C861 C870 1.429 . S
C862 C860 1.419 . S
C862 C863 1.363 . S
C862 H865 0.929 . S
C863 C862 1.363 . S
C863 C869 1.428 . S
H864 C860 0.930 . S
H865 C862 0.929 . S
S866 N867 1.613 . S
S866 N868 1.610 . S
N867 S866 1.613 . S
N867 C870 1.350 . S
N868 S866 1.610 . S
N868 C869 1.351 . S
C869 C863 1.428 . S
C869 N868 1.351 . S
C869 C870 1.434 . S
C870 C861 1.429 . S
C870 N867 1.350 . S
C870 C869 1.434 . S
C871 C872 1.369 . S
C871 C873 1.419 1_455 S
C871 H875 0.930 . S
C872 C871 1.369 . S
C872 C881 1.429 . S
C873 C871 1.419 1_655 S
C873 C874 1.363 . S
C873 H876 0.929 . S
C874 C873 1.363 . S
C874 C880 1.428 . S
H875 C871 0.930 . S
H876 C873 0.929 . S
S877 N878 1.613 1_655 S
S877 N879 1.610 . S
N878 S877 1.613 1_455 S
N878 C881 1.350 . S
N879 S877 1.610 . S
N879 C880 1.351 . S
C880 C874 1.428 . S
C880 N879 1.351 . S
C880 C881 1.434 1_655 S
C881 C872 1.429 . S
C881 N878 1.350 . S
C881 C880 1.434 1_455 S
C882 C883 1.369 . S
C882 C884 1.419 . S
C882 H886 0.930 . S
C883 C882 1.369 . S
C883 C892 1.429 . S
C884 C882 1.419 . S
C884 C885 1.363 . S
C884 H887 0.929 . S
C885 C884 1.363 . S
C885 C891 1.428 . S
H886 C882 0.930 . S
H887 C884 0.929 . S
S888 N889 1.613 . S
S888 N890 1.610 . S
N889 S888 1.613 . S
N889 C892 1.350 . S
N890 S888 1.610 . S
N890 C891 1.351 . S
C891 C885 1.428 . S
C891 N890 1.351 . S
C891 C892 1.434 . S
C892 C883 1.429 . S
C892 N889 1.350 . S
C892 C891 1.434 . S
C893 C894 1.369 . S
C893 C895 1.419 . S
C893 H897 0.930 . S
C894 C893 1.369 . S
C894 C903 1.429 . S
C895 C893 1.419 . S
C895 C896 1.363 . S
C895 H898 0.929 . S
C896 C895 1.363 . S
C896 C902 1.428 . S
H897 C893 0.930 . S
H898 C895 0.929 . S
S899 N900 1.613 . S
S899 N901 1.610 . S
N900 S899 1.613 . S
N900 C903 1.350 . S
N901 S899 1.610 . S
N901 C902 1.351 . S
C902 C896 1.428 . S
C902 N901 1.351 . S
C902 C903 1.434 . S
C903 C894 1.429 . S
C903 N900 1.350 . S
C903 C902 1.434 . S
C904 C905 1.369 . S
C904 C906 1.419 . S
C904 H908 0.930 . S
C905 C904 1.369 . S
C905 C914 1.429 . S
C906 C904 1.419 . S
C906 C907 1.363 . S
C906 H909 0.929 . S
C907 C906 1.363 . S
C907 C913 1.428 . S
H908 C904 0.930 . S
H909 C906 0.929 . S
S910 N911 1.613 . S
S910 N912 1.610 . S
N911 S910 1.613 . S
N911 C914 1.350 . S
N912 S910 1.610 . S
N912 C913 1.351 . S
C913 C907 1.428 . S
C913 N912 1.351 . S
C913 C914 1.434 . S
C914 C905 1.429 . S
C914 N911 1.350 . S
C914 C913 1.434 . S
C915 C916 1.369 . S
C915 C917 1.419 . S
C915 H919 0.930 . S
C916 C915 1.369 . S
C916 C925 1.429 . S
C917 C915 1.419 . S
C917 C918 1.363 . S
C917 H920 0.929 . S
C918 C917 1.363 . S
C918 C924 1.428 . S
H919 C915 0.930 . S
H920 C917 0.929 . S
S921 N922 1.613 . S
S921 N923 1.610 . S
N922 S921 1.613 . S
N922 C925 1.350 . S
N923 S921 1.610 . S
N923 C924 1.351 . S
C924 C918 1.428 . S
C924 N923 1.351 . S
C924 C925 1.434 . S
C925 C916 1.429 . S
C925 N922 1.350 . S
C925 C924 1.434 . S
C926 C927 1.369 . S
C926 C928 1.419 . S
C926 H930 0.930 . S
C927 C926 1.369 . S
C927 C936 1.429 . S
C928 C926 1.419 . S
C928 C929 1.363 . S
C928 H931 0.929 . S
C929 C928 1.363 . S
C929 C935 1.428 . S
H930 C926 0.930 . S
H931 C928 0.929 . S
S932 N933 1.613 . S
S932 N934 1.610 . S
N933 S932 1.613 . S
N933 C936 1.350 . S
N934 S932 1.610 . S
N934 C935 1.351 . S
C935 C929 1.428 . S
C935 N934 1.351 . S
C935 C936 1.434 . S
C936 C927 1.429 . S
C936 N933 1.350 . S
C936 C935 1.434 . S
C937 C938 1.369 . S
C937 C939 1.419 . S
C937 H941 0.930 . S
C938 C937 1.369 . S
C938 C947 1.429 . S
C939 C937 1.419 . S
C939 C940 1.363 . S
C939 H942 0.929 . S
C940 C939 1.363 . S
C940 C946 1.428 . S
H941 C937 0.930 . S
H942 C939 0.929 . S
S943 N944 1.613 . S
S943 N945 1.610 . S
N944 S943 1.613 . S
N944 C947 1.350 . S
N945 S943 1.610 . S
N945 C946 1.351 . S
C946 C940 1.428 . S
C946 N945 1.351 . S
C946 C947 1.434 . S
C947 C938 1.429 . S
C947 N944 1.350 . S
C947 C946 1.434 . S
C948 C949 1.369 . S
C948 C950 1.419 1_655 S
C948 H952 0.930 . S
C949 C948 1.369 . S
C949 C958 1.429 . S
C950 C948 1.419 1_455 S
C950 C951 1.363 . S
C950 H953 0.929 . S
C951 C950 1.363 . S
C951 C957 1.428 . S
H952 C948 0.930 . S
H953 C950 0.929 . S
S954 N955 1.613 1_455 S
S954 N956 1.610 . S
N955 S954 1.613 1_655 S
N955 C958 1.350 . S
N956 S954 1.610 . S
N956 C957 1.351 . S
C957 C951 1.428 . S
C957 N956 1.351 . S
C957 C958 1.434 1_455 S
C958 C949 1.429 . S
C958 N955 1.350 . S
C958 C957 1.434 1_655 S
C959 C960 1.369 . S
C959 C961 1.419 . S
C959 H963 0.930 . S
C960 C959 1.369 . S
C960 C969 1.429 . S
C961 C959 1.419 . S
C961 C962 1.363 . S
C961 H964 0.929 . S
C962 C961 1.363 . S
C962 C968 1.428 . S
H963 C959 0.930 . S
H964 C961 0.929 . S
S965 N966 1.613 . S
S965 N967 1.610 . S
N966 S965 1.613 . S
N966 C969 1.350 . S
N967 S965 1.610 . S
N967 C968 1.351 . S
C968 C962 1.428 . S
C968 N967 1.351 . S
C968 C969 1.434 . S
C969 C960 1.429 . S
C969 N966 1.350 . S
C969 C968 1.434 . S
C970 C971 1.369 . S
C970 C972 1.419 . S
C970 H974 0.930 . S
C971 C970 1.369 . S
C971 C980 1.429 . S
C972 C970 1.419 . S
C972 C973 1.363 . S
C972 H975 0.929 . S
C973 C972 1.363 . S
C973 C979 1.428 . S
H974 C970 0.930 . S
H975 C972 0.929 . S
S976 N977 1.613 . S
S976 N978 1.610 . S
N977 S976 1.613 . S
N977 C980 1.350 . S
N978 S976 1.610 . S
N978 C979 1.351 . S
C979 C973 1.428 . S
C979 N978 1.351 . S
C979 C980 1.434 . S
C980 C971 1.429 . S
C980 N977 1.350 . S
C980 C979 1.434 . S
C981 C982 1.369 . S
C981 C983 1.419 1_455 S
C981 H985 0.930 . S
C982 C981 1.369 . S
C982 C991 1.429 . S
C983 C981 1.419 1_655 S
C983 C984 1.363 . S
C983 H986 0.929 . S
C984 C983 1.363 . S
C984 C990 1.428 . S
H985 C981 0.930 . S
H986 C983 0.929 . S
S987 N988 1.613 . S
S987 N989 1.610 1_455 S
N988 S987 1.613 . S
N988 C991 1.350 . S
N989 S987 1.610 1_655 S
N989 C990 1.351 . S
C990 C984 1.428 . S
C990 N989 1.351 . S
C990 C991 1.434 1_655 S
C991 C982 1.429 . S
C991 N988 1.350 . S
C991 C990 1.434 1_455 S
C992 C993 1.369 . S
C992 C994 1.419 . S
C992 H996 0.930 . S
C993 C992 1.369 . S
C993 C1002 1.429 . S
C994 C992 1.419 . S
C994 C995 1.363 1_554 S
C994 H997 0.929 1_554 S
C995 C994 1.363 1_556 S
C995 C1001 1.428 1_556 S
H996 C992 0.930 . S
H997 C994 0.929 1_556 S
S998 N999 1.613 . S
S998 N1000 1.610 1_554 S
N999 S998 1.613 . S
N999 C1002 1.350 . S
N1000 S998 1.610 1_556 S
N1000 C1001 1.351 1_556 S
C1001 C995 1.428 1_554 S
C1001 N1000 1.351 1_554 S
C1001 C1002 1.434 . S
C1002 C993 1.429 . S
C1002 N999 1.350 . S
C1002 C1001 1.434 . S
C1003 C1004 1.369 . S
C1003 C1005 1.419 . S
C1003 H1007 0.930 . S
C1004 C1003 1.369 . S
C1004 C1013 1.429 . S
C1005 C1003 1.419 . S
C1005 C1006 1.363 . S
C1005 H1008 0.929 . S
C1006 C1005 1.363 . S
C1006 C1012 1.428 . S
H1007 C1003 0.930 . S
H1008 C1005 0.929 . S
S1009 N1010 1.613 . S
S1009 N1011 1.610 . S
N1010 S1009 1.613 . S
N1010 C1013 1.350 . S
N1011 S1009 1.610 . S
N1011 C1012 1.351 . S
C1012 C1006 1.428 . S
C1012 N1011 1.351 . S
C1012 C1013 1.434 . S
C1013 C1004 1.429 . S
C1013 N1010 1.350 . S
C1013 C1012 1.434 . S
C1014 C1015 1.369 . S
C1014 C1016 1.419 . S
C1014 H1018 0.930 . S
C1015 C1014 1.369 . S
C1015 C1024 1.429 . S
C1016 C1014 1.419 . S
C1016 C1017 1.363 . S
C1016 H1019 0.929 . S
C1017 C1016 1.363 . S
C1017 C1023 1.428 . S
H1018 C1014 0.930 . S
H1019 C1016 0.929 . S
S1020 N1021 1.613 . S
S1020 N1022 1.610 . S
N1021 S1020 1.613 . S
N1021 C1024 1.350 . S
N1022 S1020 1.610 . S
N1022 C1023 1.351 . S
C1023 C1017 1.428 . S
C1023 N1022 1.351 . S
C1023 C1024 1.434 . S
C1024 C1015 1.429 . S
C1024 N1021 1.350 . S
C1024 C1023 1.434 . S
C1025 C1026 1.369 . S
C1025 C1027 1.419 . S
C1025 H1029 0.930 . S
C1026 C1025 1.369 . S
C1026 C1035 1.429 . S
C1027 C1025 1.419 . S
C1027 C1028 1.363 . S
C1027 H1030 0.929 . S
C1028 C1027 1.363 . S
C1028 C1034 1.428 . S
H1029 C1025 0.930 . S
H1030 C1027 0.929 . S
S1031 N1032 1.613 . S
S1031 N1033 1.610 . S
N1032 S1031 1.613 . S
N1032 C1035 1.350 . S
N1033 S1031 1.610 . S
N1033 C1034 1.351 . S
C1034 C1028 1.428 . S
C1034 N1033 1.351 . S
C1034 C1035 1.434 . S
C1035 C1026 1.429 . S
C1035 N1032 1.350 . S
C1035 C1034 1.434 . S
C1036 C1037 1.369 . S
C1036 C1038 1.419 1_554 S
C1036 H1040 0.930 . S
C1037 C1036 1.369 . S
C1037 C1046 1.429 1_554 S
C1038 C1036 1.419 1_556 S
C1038 C1039 1.363 . S
C1038 H1041 0.929 . S
C1039 C1038 1.363 . S
C1039 C1045 1.428 . S
H1040 C1036 0.930 . S
H1041 C1038 0.929 . S
S1042 N1043 1.613 . S
S1042 N1044 1.610 . S
N1043 S1042 1.613 . S
N1043 C1046 1.350 . S
N1044 S1042 1.610 . S
N1044 C1045 1.351 . S
C1045 C1039 1.428 . S
C1045 N1044 1.351 . S
C1045 C1046 1.434 . S
C1046 C1037 1.429 1_556 S
C1046 N1043 1.350 . S
C1046 C1045 1.434 . S
C1047 C1048 1.369 . S
C1047 C1049 1.419 . S
C1047 H1051 0.930 . S
C1048 C1047 1.369 . S
C1048 C1057 1.429 . S
C1049 C1047 1.419 . S
C1049 C1050 1.363 . S
C1049 H1052 0.929 . S
C1050 C1049 1.363 . S
C1050 C1056 1.428 . S
H1051 C1047 0.930 . S
H1052 C1049 0.929 . S
S1053 N1054 1.613 . S
S1053 N1055 1.610 . S
N1054 S1053 1.613 . S
N1054 C1057 1.350 . S
N1055 S1053 1.610 . S
N1055 C1056 1.351 . S
C1056 C1050 1.428 . S
C1056 N1055 1.351 . S
C1056 C1057 1.434 . S
C1057 C1048 1.429 . S
C1057 N1054 1.350 . S
C1057 C1056 1.434 . S
C1058 C1059 1.369 . S
C1058 C1060 1.419 . S
C1058 H1062 0.930 . S
C1059 C1058 1.369 . S
C1059 C1068 1.429 . S
C1060 C1058 1.419 . S
C1060 C1061 1.363 . S
C1060 H1063 0.929 . S
C1061 C1060 1.363 . S
C1061 C1067 1.428 . S
H1062 C1058 0.930 . S
H1063 C1060 0.929 . S
S1064 N1065 1.613 . S
S1064 N1066 1.610 . S
N1065 S1064 1.613 . S
N1065 C1068 1.350 . S
N1066 S1064 1.610 . S
N1066 C1067 1.351 . S
C1067 C1061 1.428 . S
C1067 N1066 1.351 . S
C1067 C1068 1.434 . S
C1068 C1059 1.429 . S
C1068 N1065 1.350 . S
C1068 C1067 1.434 . S
C1069 C1070 1.369 . S
C1069 C1071 1.419 . S
C1069 H1073 0.930 . S
C1070 C1069 1.369 . S
C1070 C1079 1.429 . S
C1071 C1069 1.419 . S
C1071 C1072 1.363 . S
C1071 H1074 0.929 . S
C1072 C1071 1.363 . S
C1072 C1078 1.428 . S
H1073 C1069 0.930 . S
H1074 C1071 0.929 . S
S1075 N1076 1.613 . S
S1075 N1077 1.610 . S
N1076 S1075 1.613 . S
N1076 C1079 1.350 . S
N1077 S1075 1.610 . S
N1077 C1078 1.351 . S
C1078 C1072 1.428 . S
C1078 N1077 1.351 . S
C1078 C1079 1.434 . S
C1079 C1070 1.429 . S
C1079 N1076 1.350 . S
C1079 C1078 1.434 . S
C1080 C1081 1.369 1_545 S
C1080 C1082 1.419 . S
C1080 H1084 0.930 . S
C1081 C1080 1.369 1_565 S
C1081 C1090 1.429 . S
C1082 C1080 1.419 . S
C1082 C1083 1.363 . S
C1082 H1085 0.929 . S
C1083 C1082 1.363 . S
C1083 C1089 1.428 1_545 S
H1084 C1080 0.930 . S
H1085 C1082 0.929 . S
S1086 N1087 1.613 . S
S1086 N1088 1.610 . S
N1087 S1086 1.613 . S
N1087 C1090 1.350 . S
N1088 S1086 1.610 . S
N1088 C1089 1.351 . S
C1089 C1083 1.428 1_565 S
C1089 N1088 1.351 . S
C1089 C1090 1.434 . S
C1090 C1081 1.429 . S
C1090 N1087 1.350 . S
C1090 C1089 1.434 . S
C1091 C1092 1.369 . S
C1091 C1093 1.419 . S
C1091 H1095 0.930 . S
C1092 C1091 1.369 . S
C1092 C1101 1.429 . S
C1093 C1091 1.419 . S
C1093 C1094 1.363 . S
C1093 H1096 0.929 . S
C1094 C1093 1.363 . S
C1094 C1100 1.428 . S
H1095 C1091 0.930 . S
H1096 C1093 0.929 . S
S1097 N1098 1.613 . S
S1097 N1099 1.610 . S
N1098 S1097 1.613 . S
N1098 C1101 1.350 . S
N1099 S1097 1.610 . S
N1099 C1100 1.351 . S
C1100 C1094 1.428 . S
C1100 N1099 1.351 . S
C1100 C1101 1.434 . S
C1101 C1092 1.429 . S
C1101 N1098 1.350 . S
C1101 C1100 1.434 . S
C1102 C1103 1.369 1_545 S
C1102 C1104 1.419 . S
C1102 H1106 0.930 . S
C1103 C1102 1.369 1_565 S
C1103 C1112 1.429 . S
C1104 C1102 1.419 . S
C1104 C1105 1.363 1_554 S
C1104 H1107 0.929 . S
C1105 C1104 1.363 1_556 S
C1105 C1111 1.428 1_545 S
H1106 C1102 0.930 . S
H1107 C1104 0.929 . S
S1108 N1109 1.613 1_556 S
S1108 N1110 1.610 . S
N1109 S1108 1.613 1_554 S
N1109 C1112 1.350 . S
N1110 S1108 1.610 . S
N1110 C1111 1.351 . S
C1111 C1105 1.428 1_565 S
C1111 N1110 1.351 . S
C1111 C1112 1.434 1_556 S
C1112 C1103 1.429 . S
C1112 N1109 1.350 . S
C1112 C1111 1.434 1_554 S
C1113 C1114 1.369 . S
C1113 C1115 1.419 . S
C1113 H1117 0.930 . S
C1114 C1113 1.369 . S
C1114 C1123 1.429 . S
C1115 C1113 1.419 . S
C1115 C1116 1.363 . S
C1115 H1118 0.929 . S
C1116 C1115 1.363 . S
C1116 C1122 1.428 . S
H1117 C1113 0.930 . S
H1118 C1115 0.929 . S
S1119 N1120 1.613 . S
S1119 N1121 1.610 . S
N1120 S1119 1.613 . S
N1120 C1123 1.350 . S
N1121 S1119 1.610 . S
N1121 C1122 1.351 . S
C1122 C1116 1.428 . S
C1122 N1121 1.351 . S
C1122 C1123 1.434 . S
C1123 C1114 1.429 . S
C1123 N1120 1.350 . S
C1123 C1122 1.434 . S
C1124 C1125 1.369 1_545 S
C1124 C1126 1.419 . S
C1124 H1128 0.930 . S
C1125 C1124 1.369 1_565 S
C1125 C1134 1.429 . S
C1126 C1124 1.419 . S
C1126 C1127 1.363 . S
C1126 H1129 0.929 . S
C1127 C1126 1.363 . S
C1127 C1133 1.428 1_545 S
H1128 C1124 0.930 . S
H1129 C1126 0.929 . S
S1130 N1131 1.613 . S
S1130 N1132 1.610 . S
N1131 S1130 1.613 . S
N1131 C1134 1.350 . S
N1132 S1130 1.610 . S
N1132 C1133 1.351 . S
C1133 C1127 1.428 1_565 S
C1133 N1132 1.351 . S
C1133 C1134 1.434 . S
C1134 C1125 1.429 . S
C1134 N1131 1.350 . S
C1134 C1133 1.434 . S
C1135 C1136 1.369 . S
C1135 C1137 1.419 . S
C1135 H1139 0.930 . S
C1136 C1135 1.369 . S
C1136 C1145 1.429 . S
C1137 C1135 1.419 . S
C1137 C1138 1.363 . S
C1137 H1140 0.929 . S
C1138 C1137 1.363 . S
C1138 C1144 1.428 . S
H1139 C1135 0.930 . S
H1140 C1137 0.929 . S
S1141 N1142 1.613 . S
S1141 N1143 1.610 . S
N1142 S1141 1.613 . S
N1142 C1145 1.350 . S
N1143 S1141 1.610 . S
N1143 C1144 1.351 . S
C1144 C1138 1.428 . S
C1144 N1143 1.351 . S
C1144 C1145 1.434 . S
C1145 C1136 1.429 . S
C1145 N1142 1.350 . S
C1145 C1144 1.434 . S
C1146 C1147 1.369 1_565 S
C1146 C1148 1.419 . S
C1146 H1150 0.930 . S
C1147 C1146 1.369 1_545 S
C1147 C1156 1.429 . S
C1148 C1146 1.419 . S
C1148 C1149 1.363 1_556 S
C1148 H1151 0.929 . S
C1149 C1148 1.363 1_554 S
C1149 C1155 1.428 1_554 S
H1150 C1146 0.930 . S
H1151 C1148 0.929 . S
S1152 N1153 1.613 . S
S1152 N1154 1.610 1_556 S
N1153 S1152 1.613 . S
N1153 C1156 1.350 . S
N1154 S1152 1.610 1_554 S
N1154 C1155 1.351 1_544 S
C1155 C1149 1.428 1_556 S
C1155 N1154 1.351 1_566 S
C1155 C1156 1.434 1_565 S
C1156 C1147 1.429 . S
C1156 N1153 1.350 . S
C1156 C1155 1.434 1_545 S
C1157 C1158 1.369 . S
C1157 C1159 1.419 . S
C1157 H1161 0.930 . S
C1158 C1157 1.369 . S
C1158 C1167 1.429 . S
C1159 C1157 1.419 . S
C1159 C1160 1.363 . S
C1159 H1162 0.929 . S
C1160 C1159 1.363 . S
C1160 C1166 1.428 . S
H1161 C1157 0.930 . S
H1162 C1159 0.929 . S
S1163 N1164 1.613 . S
S1163 N1165 1.610 . S
N1164 S1163 1.613 . S
N1164 C1167 1.350 . S
N1165 S1163 1.610 . S
N1165 C1166 1.351 . S
C1166 C1160 1.428 . S
C1166 N1165 1.351 . S
C1166 C1167 1.434 . S
C1167 C1158 1.429 . S
C1167 N1164 1.350 . S
C1167 C1166 1.434 . S
C641 C26 1.614 . S
C643 C9 1.605 . S
C652 C49 1.482 . S
C654 C66 1.474 . S
C663 C89 1.637 . S
C665 C106 1.636 . S
C674 C129 1.838 . S
C676 C146 1.845 . S
C685 C186 1.472 . S
C687 C169 1.481 . S
C696 C209 1.639 . S
C698 C226 1.634 . S
C707 C266 1.842 . S
C709 C249 1.843 . S
C718 C289 1.615 . S
C720 C306 1.605 . S
C729 C329 1.614 . S
C731 C346 1.606 . S
C740 C369 1.482 . S
C742 C386 1.474 . S
C751 C409 1.642 . S
C753 C426 1.632 . S
C762 C466 1.848 . S
C764 C449 1.838 . S
C773 C489 1.480 . S
C775 C506 1.475 . S
C784 C529 1.630 . S
C786 C546 1.641 . S
C795 C569 1.837 . S
C797 C586 1.846 . S
C806 C626 1.615 . S
C808 C609 1.605 . S
C817 C22 1.907 . S
C819 C443 1.930 . S
C828 C42 1.607 . S
C830 C615 1.643 . S
C839 C82 1.790 . S
C841 C363 1.892 . S
C850 C122 1.539 . S
C852 C523 1.634 . S
C861 C182 1.891 . S
C863 C535 1.789 . S
C872 C455 1.544 . S
C874 C222 1.636 . S
C883 C262 1.930 . S
C885 C603 1.905 . S
C894 C282 1.643 . S
C896 C375 1.609 . S
C905 C142 1.931 . S
C907 C323 1.905 . S
C916 C62 1.894 . S
C918 C415 1.791 . S
C927 C483 1.893 . S
C929 C202 1.793 . S
C938 C302 1.908 . S
C940 C563 1.931 . S
C949 C335 1.642 . S
C951 C162 1.608 . S
C960 C242 1.541 . S
C962 C403 1.634 . S
C971 C102 1.635 . S
C973 C575 1.543 . S
C982 C2 1.645 . S
C984 C495 1.612 . S
C993 C3 2.041 . S
C995 C163 2.049 . S
C1004 C55 1.871 . S
C1006 C203 1.876 . S
C1015 C95 1.817 . S
C1017 C243 1.812 . S
C1026 C135 1.604 . S
C1028 C295 1.583 . S
C1037 C502 2.045 . S
C1039 C342 2.045 . S
C1048 C542 1.877 . S
C1050 C362 1.868 . S
C1059 C402 1.816 . S
C1061 C582 1.812 . S
C1070 C602 1.587 . S
C1072 C442 1.604 . S
C1081 C43 2.045 . S
C1083 C283 2.044 . S
C1092 C175 1.868 . S
C1094 C83 1.876 . S
C1103 C215 1.813 . S
C1105 C123 1.816 . S
C1114 C15 1.583 . S
C1116 C255 1.605 . S
C1125 C622 2.039 . S
C1127 C382 2.050 . S
C1136 C482 1.868 . S
C1138 C422 1.876 . S
C1147 C522 1.813 . S
C1149 C462 1.815 . S
C1158 C562 1.605 . S
C1160 C322 1.584 . S
