# Generated by pormake.
# Topology wip, (6)-cn, num edge types: 1
# Building blocks:
#     Node 0, Type 0, BuildingBlock: VOLQOD_clean_sbu_1, # of connection points: 6
#     Node 1, Type 0, BuildingBlock: VOLQOD_clean_sbu_1, # of connection points: 6
#     Node 2, Type 0, BuildingBlock: VOLQOD_clean_sbu_1, # of connection points: 6
#     Node 3, Type 0, BuildingBlock: VOLQOD_clean_sbu_1, # of connection points: 6
#     Node 4, Type 0, BuildingBlock: VOLQOD_clean_sbu_1, # of connection points: 6
#     Node 5, Type 0, BuildingBlock: VOLQOD_clean_sbu_1, # of connection points: 6
#     Node 6, Type 0, BuildingBlock: VOLQOD_clean_sbu_1, # of connection points: 6
#     Node 7, Type 0, BuildingBlock: VOLQOD_clean_sbu_1, # of connection points: 6
#     Node 8, Type 0, BuildingBlock: VOLQOD_clean_sbu_1, # of connection points: 6
#     Node 9, Type 0, BuildingBlock: VOLQOD_clean_sbu_1, # of connection points: 6
#     Node 10, Type 0, BuildingBlock: VOLQOD_clean_sbu_1, # of connection points: 6
#     Node 11, Type 0, BuildingBlock: VOLQOD_clean_sbu_1, # of connection points: 6
#     Node 12, Type 0, BuildingBlock: VOLQOD_clean_sbu_1, # of connection points: 6
#     Node 13, Type 0, BuildingBlock: VOLQOD_clean_sbu_1, # of connection points: 6
#     Node 14, Type 0, BuildingBlock: VOLQOD_clean_sbu_1, # of connection points: 6
#     Node 15, Type 0, BuildingBlock: VOLQOD_clean_sbu_1, # of connection points: 6
#     Node 16, Type 0, BuildingBlock: VOLQOD_clean_sbu_1, # of connection points: 6
#     Node 17, Type 0, BuildingBlock: VOLQOD_clean_sbu_1, # of connection points: 6
#     Node 18, Type 0, BuildingBlock: VOLQOD_clean_sbu_1, # of connection points: 6
#     Node 19, Type 0, BuildingBlock: VOLQOD_clean_sbu_1, # of connection points: 6
#     Node 20, Type 0, BuildingBlock: VOLQOD_clean_sbu_1, # of connection points: 6
#     Node 21, Type 0, BuildingBlock: VOLQOD_clean_sbu_1, # of connection points: 6
#     Node 22, Type 0, BuildingBlock: VOLQOD_clean_sbu_1, # of connection points: 6
#     Node 23, Type 0, BuildingBlock: VOLQOD_clean_sbu_1, # of connection points: 6
#     Node 24, Type 0, BuildingBlock: VOLQOD_clean_sbu_1, # of connection points: 6
#     Node 25, Type 0, BuildingBlock: VOLQOD_clean_sbu_1, # of connection points: 6
#     Node 26, Type 0, BuildingBlock: VOLQOD_clean_sbu_1, # of connection points: 6
#     Node 27, Type 0, BuildingBlock: VOLQOD_clean_sbu_1, # of connection points: 6
#     Node 28, Type 0, BuildingBlock: VOLQOD_clean_sbu_1, # of connection points: 6
#     Node 29, Type 0, BuildingBlock: VOLQOD_clean_sbu_1, # of connection points: 6
#     Node 30, Type 0, BuildingBlock: VOLQOD_clean_sbu_1, # of connection points: 6
#     Node 31, Type 0, BuildingBlock: VOLQOD_clean_sbu_1, # of connection points: 6
#     Edge 32, Type (0, 0), None
#     Edge 33, Type (0, 0), None
#     Edge 34, Type (0, 0), None
#     Edge 35, Type (0, 0), None
#     Edge 36, Type (0, 0), None
#     Edge 37, Type (0, 0), None
#     Edge 38, Type (0, 0), None
#     Edge 39, Type (0, 0), None
#     Edge 40, Type (0, 0), None
#     Edge 41, Type (0, 0), None
#     Edge 42, Type (0, 0), None
#     Edge 43, Type (0, 0), None
#     Edge 44, Type (0, 0), None
#     Edge 45, Type (0, 0), None
#     Edge 46, Type (0, 0), None
#     Edge 47, Type (0, 0), None
#     Edge 48, Type (0, 0), None
#     Edge 49, Type (0, 0), None
#     Edge 50, Type (0, 0), None
#     Edge 51, Type (0, 0), None
#     Edge 52, Type (0, 0), None
#     Edge 53, Type (0, 0), None
#     Edge 54, Type (0, 0), None
#     Edge 55, Type (0, 0), None
#     Edge 56, Type (0, 0), None
#     Edge 57, Type (0, 0), None
#     Edge 58, Type (0, 0), None
#     Edge 59, Type (0, 0), None
#     Edge 60, Type (0, 0), None
#     Edge 61, Type (0, 0), None
#     Edge 62, Type (0, 0), None
#     Edge 63, Type (0, 0), None
#     Edge 64, Type (0, 0), None
#     Edge 65, Type (0, 0), None
#     Edge 66, Type (0, 0), None
#     Edge 67, Type (0, 0), None
#     Edge 68, Type (0, 0), None
#     Edge 69, Type (0, 0), None
#     Edge 70, Type (0, 0), None
#     Edge 71, Type (0, 0), None
#     Edge 72, Type (0, 0), None
#     Edge 73, Type (0, 0), None
#     Edge 74, Type (0, 0), None
#     Edge 75, Type (0, 0), None
#     Edge 76, Type (0, 0), None
#     Edge 77, Type (0, 0), None
#     Edge 78, Type (0, 0), None
#     Edge 79, Type (0, 0), None
#     Edge 80, Type (0, 0), None
#     Edge 81, Type (0, 0), None
#     Edge 82, Type (0, 0), None
#     Edge 83, Type (0, 0), None
#     Edge 84, Type (0, 0), None
#     Edge 85, Type (0, 0), None
#     Edge 86, Type (0, 0), None
#     Edge 87, Type (0, 0), None
#     Edge 88, Type (0, 0), None
#     Edge 89, Type (0, 0), None
#     Edge 90, Type (0, 0), None
#     Edge 91, Type (0, 0), None
#     Edge 92, Type (0, 0), None
#     Edge 93, Type (0, 0), None
#     Edge 94, Type (0, 0), None
#     Edge 95, Type (0, 0), None
#     Edge 96, Type (0, 0), None
#     Edge 97, Type (0, 0), None
#     Edge 98, Type (0, 0), None
#     Edge 99, Type (0, 0), None
#     Edge 100, Type (0, 0), None
#     Edge 101, Type (0, 0), None
#     Edge 102, Type (0, 0), None
#     Edge 103, Type (0, 0), None
#     Edge 104, Type (0, 0), None
#     Edge 105, Type (0, 0), None
#     Edge 106, Type (0, 0), None
#     Edge 107, Type (0, 0), None
#     Edge 108, Type (0, 0), None
#     Edge 109, Type (0, 0), None
#     Edge 110, Type (0, 0), None
#     Edge 111, Type (0, 0), None
#     Edge 112, Type (0, 0), None
#     Edge 113, Type (0, 0), None
#     Edge 114, Type (0, 0), None
#     Edge 115, Type (0, 0), None
#     Edge 116, Type (0, 0), None
#     Edge 117, Type (0, 0), None
#     Edge 118, Type (0, 0), None
#     Edge 119, Type (0, 0), None
#     Edge 120, Type (0, 0), None
#     Edge 121, Type (0, 0), None
#     Edge 122, Type (0, 0), None
#     Edge 123, Type (0, 0), None
#     Edge 124, Type (0, 0), None
#     Edge 125, Type (0, 0), None
#     Edge 126, Type (0, 0), None
#     Edge 127, Type (0, 0), None
# Relax obj value: 0.799
# Max RMSD: 0.290
# Mean RMSD: 0.288
data_MOF--net-wip--node1-VOLQOD_clean_sbu_1--edge1-none
_symmetry_space_group_name_H-M    P1
_symmetry_Int_Tables_number       1
_symmetry_cell_setting            triclinic
loop_
_symmetry_equiv_pos_as_xyz
'x, y, z'
_cell_length_a     40.800257
_cell_length_b     40.798105
_cell_length_c     12.102842
_cell_angle_alpha  89.999731
_cell_angle_beta   90.001955
_cell_angle_gamma 90.013264
loop_
_atom_site_label
_atom_site_type_symbol
_atom_site_fract_x
_atom_site_fract_y
_atom_site_fract_z
_atom_type_partial_charge
O0 O 0.06937 0.48771 0.86354 0.0
Zn1 Zn 0.03589 0.47269 0.96636 0.0
O2 O 0.03535 0.42451 0.98862 0.0
Zn3 Zn -0.00835 0.4053 0.95474 0.0
Zn4 Zn 0.07188 0.40628 0.89963 0.0
Zn5 Zn 0.04048 0.41291 0.14057 0.0
O6 O 0.9631 0.38969 0.08323 0.0
O7 O 0.00122 0.39288 0.21196 0.0
O8 O -0.00645 0.48731 0.89918 0.0
O9 O 0.96837 0.44174 0.87647 0.0
O10 O 0.00437 0.36744 0.86198 0.0
O11 O 0.04694 0.38482 0.76808 0.0
O12 O 0.10014 0.37636 0.01208 0.0
O13 O 0.0457 0.49493 0.10605 0.0
O14 O 0.07685 0.38467 0.17616 0.0
O15 O 0.05195 0.45189 0.21713 0.0
C16 C 0.09265 0.47509 0.80937 0.0
C17 C 0.97234 0.38537 0.18236 0.0
C18 C 0.01763 0.37369 0.76966 0.0
C19 C 0.9708 0.46844 0.9298 0.0
C20 C 0.09901 0.37193 0.11821 0.0
C21 C 0.05345 0.48222 0.19794 0.0
O22 O 0.09838 0.44413 0.81562 0.0
O23 O 0.7351 0.856 0.17003 0.0
Zn24 Zn 0.7437 0.81628 0.26325 0.0
O25 O 0.78714 0.7964 0.24328 0.0
Zn26 Zn 0.7842 0.75006 0.20835 0.0
Zn27 Zn 0.81171 0.82499 0.14947 0.0
Zn28 Zn 0.80985 0.7921 0.38056 0.0
O29 O 0.80323 0.71966 0.32845 0.0
O30 O 0.84036 0.75337 0.38938 0.0
O31 O 0.70865 0.78429 0.21779 0.0
O32 O 0.73616 0.74072 0.18398 0.0
O33 O 0.8067 0.74602 0.06735 0.0
O34 O 0.83011 0.7942 0.02439 0.0
O35 O 0.84264 0.85303 0.26059 0.0
O36 O 0.73996 0.82454 0.42276 0.0
O37 O 0.83341 0.83068 0.42557 0.0
O38 O 0.77677 0.78946 0.49247 0.0
C39 C 0.74647 0.85674 0.07252 0.0
C40 C 0.82755 0.7251 0.3921 0.0
C41 C 0.82336 0.76402 1.0026 0.0
C42 C 0.71517 0.75509 0.24446 0.0
C43 C 0.8462 0.85274 0.3673 0.0
C44 C 0.75231 0.80833 0.50262 0.0
O45 O 0.7771 0.85095 0.05866 0.0
O46 O 0.40202 0.48375 0.36293 0.0
Zn47 Zn 0.43548 0.49877 0.46586 0.0
O48 O 0.43598 0.54695 0.4882 0.0
Zn49 Zn 0.47966 0.56622 0.45431 0.0
Zn50 Zn 0.39941 0.56516 0.39931 0.0
Zn51 Zn 0.43088 0.55851 0.64017 0.0
O52 O 0.50822 0.58186 0.58278 0.0
O53 O 0.47012 0.57856 0.71156 0.0
O54 O 0.47784 0.4842 0.39875 0.0
O55 O 0.50297 0.52979 0.37604 0.0
O56 O 0.46689 0.60406 0.36153 0.0
O57 O 0.42432 0.58665 0.26771 0.0
O58 O 0.37118 0.59504 0.51192 0.0
O59 O 0.42565 0.47649 0.60551 0.0
O60 O 0.39452 0.58673 0.6759 0.0
O61 O 0.41941 0.51952 0.71664 0.0
C62 C 0.3787 0.49635 0.30889 0.0
C63 C 0.49898 0.58613 0.68194 0.0
C64 C 0.45361 0.5978 0.26924 0.0
C65 C 0.50057 0.50309 0.42939 0.0
C66 C 0.37233 0.59946 0.61806 0.0
C67 C 0.4179 0.48919 0.69742 0.0
O68 O 0.37292 0.5273 0.31529 0.0
O69 O 0.73618 0.11544 0.66975 0.0
Zn70 Zn 0.72756 0.15516 0.76296 0.0
O71 O 0.6841 0.17502 0.74303 0.0
Zn72 Zn 0.68702 0.22136 0.70815 0.0
Zn73 Zn 0.65955 0.14642 0.64922 0.0
Zn74 Zn 0.66141 0.17931 0.88034 0.0
O75 O 0.66798 0.25175 0.82826 0.0
O76 O 0.63088 0.21802 0.88921 0.0
O77 O 0.76259 0.18717 0.71751 0.0
O78 O 0.73506 0.23072 0.68372 0.0
O79 O 0.66451 0.22541 0.56718 0.0
O80 O 0.64112 0.17722 0.52416 0.0
O81 O 0.62864 0.11836 0.76038 0.0
O82 O 0.73132 0.14689 0.92243 0.0
O83 O 0.63788 0.14071 0.92536 0.0
O84 O 0.69451 0.18196 0.9922 0.0
C85 C 0.7248 0.1147 0.57225 0.0
C86 C 0.64367 0.2463 0.8919 0.0
C87 C 0.64786 0.20741 0.50241 0.0
C88 C 0.75606 0.21637 0.74419 0.0
C89 C 0.62509 0.11864 0.8671 0.0
C90 C 0.71898 0.16309 1.00231 0.0
O91 O 0.69417 0.12049 0.55839 0.0
O92 O 0.10585 0.48519 0.62415 0.0
Zn93 Zn 0.06615 0.49385 0.53091 0.0
O94 O 0.0463 0.53732 0.55084 0.0
Zn95 Zn -4e-05 0.53442 0.5857 0.0
Zn96 Zn 0.0749 0.56187 0.64462 0.0
Zn97 Zn 0.04201 0.56001 0.41353 0.0
O98 O 0.96957 0.55347 0.46558 0.0
O99 O 0.00332 0.59057 0.40466 0.0
O100 O 0.03413 0.45883 0.57634 0.0
O101 O -0.00941 0.48638 0.61014 0.0
O102 O -0.00408 0.55694 0.72665 0.0
O103 O 0.04411 0.58033 0.76964 0.0
O104 O 0.10299 0.59273 0.53339 0.0
O105 O 0.07443 0.49011 0.37145 0.0
O106 O 0.08062 0.5835 0.36844 0.0
O107 O 0.03934 0.5269 0.30171 0.0
C108 C 0.10664 0.49663 0.72158 0.0
C109 C 0.97503 0.57779 0.40195 0.0
C110 C 0.01393 0.57359 0.7914 0.0
C111 C 0.00494 0.46538 0.54965 0.0
C112 C 0.10271 0.59626 0.42667 0.0
C113 C 0.05825 0.50247 0.29156 0.0
O114 O 0.10081 0.52724 0.7355 0.0
O115 O 0.73755 0.81942 0.9307 0.0
Zn116 Zn 0.72253 0.78595 0.82783 0.0
O117 O 0.67435 0.78543 0.80553 0.0
Zn118 Zn 0.65509 0.74175 0.83942 0.0
Zn119 Zn 0.65613 0.82199 0.89442 0.0
Zn120 Zn 0.66278 0.79053 0.65357 0.0
O121 O 0.63947 0.71318 0.71094 0.0
O122 O 0.64275 0.75128 0.58216 0.0
O123 O 0.73711 0.74359 0.89499 0.0
O124 O 0.69153 0.71847 0.91775 0.0
O125 O 0.61724 0.75451 0.93215 0.0
O126 O 0.63463 0.79709 0.026 0.0
O127 O 0.62624 0.85023 0.78182 0.0
O128 O 0.7448 0.79578 0.68815 0.0
O129 O 0.63455 0.82688 0.61785 0.0
O130 O 0.70175 0.80202 0.57709 0.0
C131 C 0.72494 0.84273 0.98478 0.0
C132 C 0.6352 0.72241 0.61177 0.0
C133 C 0.62349 0.76779 0.02445 0.0
C134 C 0.71822 0.72087 0.86438 0.0
C135 C 0.62182 0.84908 0.67569 0.0
C136 C 0.73208 0.80355 0.59629 0.0
O137 O 0.69398 0.84849 0.97845 0.0
O138 O 0.36547 0.48624 0.12369 0.0
Zn139 Zn 0.40516 0.4776 0.03039 0.0
O140 O 0.42505 0.43415 0.0504 0.0
Zn141 Zn 0.47139 0.4371 0.08531 0.0
Zn142 Zn 0.39647 0.40958 0.14421 0.0
Zn143 Zn 0.42936 0.41144 0.91313 0.0
O144 O 0.50179 0.41807 0.96523 0.0
O145 O 0.46809 0.38093 0.90432 0.0
O146 O 0.43715 0.51266 0.07578 0.0
O147 O 0.48071 0.48515 0.10966 0.0
O148 O 0.47543 0.41461 0.22631 0.0
O149 O 0.42726 0.39117 0.26927 0.0
O150 O 0.36841 0.37867 0.03306 0.0
O151 O 0.39688 0.48131 0.87088 0.0
O152 O 0.39078 0.38789 0.8681 0.0
O153 O 0.432 0.44452 0.80123 0.0
C154 C 0.36469 0.47481 0.22113 0.0
C155 C 0.49636 0.39375 0.9016 0.0
C156 C 0.45744 0.39794 0.29106 0.0
C157 C 0.46635 0.50614 0.04914 0.0
C158 C 0.3687 0.37511 0.92635 0.0
C159 C 0.41308 0.46895 0.79102 0.0
O160 O 0.37053 0.44419 0.23505 0.0
O161 O 0.73372 0.15197 0.43033 0.0
Zn162 Zn 0.74875 0.18546 0.32751 0.0
O163 O 0.79693 0.18598 0.30526 0.0
Zn164 Zn 0.81615 0.22968 0.33914 0.0
Zn165 Zn 0.81515 0.14944 0.39424 0.0
Zn166 Zn 0.80852 0.18087 0.15332 0.0
O167 O 0.83176 0.25824 0.21066 0.0
O168 O 0.82854 0.22012 0.08191 0.0
O169 O 0.73414 0.2278 0.39471 0.0
O170 O 0.77971 0.25296 0.41745 0.0
O171 O 0.85401 0.21696 0.43189 0.0
O172 O 0.83662 0.17438 0.52578 0.0
O173 O 0.84506 0.12119 0.28174 0.0
O174 O 0.7265 0.17564 0.18783 0.0
O175 O 0.83676 0.14451 0.1177 0.0
O176 O 0.76954 0.16938 0.07678 0.0
C177 C 0.74634 0.12869 0.48449 0.0
C178 C 0.83606 0.249 0.11152 0.0
C179 C 0.84776 0.20369 0.52421 0.0
C180 C 0.75302 0.25054 0.3641 0.0
C181 C 0.8495 0.12233 0.17561 0.0
C182 C 0.73921 0.16787 0.09597 0.0
O183 O 0.7773 0.12295 0.47827 0.0
O184 O 0.97807 0.55726 0.2266 0.0
Zn185 Zn 0.9732 0.53494 0.08565 0.0
O186 O 0.92702 0.53962 0.05086 0.0
Zn187 Zn 0.90544 0.49697 0.03094 0.0
Zn188 Zn 0.89934 0.56516 0.14468 0.0
Zn189 Zn 0.9322 0.56218 0.91359 0.0
O190 O 0.89692 0.49364 0.87151 0.0
O191 O 0.93354 0.52895 0.80182 0.0
O192 O 0.9807 0.48658 0.10986 0.0
O193 O 0.93609 0.46072 0.07598 0.0
O194 O 0.8655 0.48971 0.1245 0.0
O195 O 0.8723 0.53148 0.23582 0.0
O196 O 0.87209 0.59665 0.03318 0.0
O197 O 0.0043 0.55283 0.96562 0.0
O198 O 0.89449 0.58705 0.86849 0.0
O199 O 0.97203 0.59123 0.90456 0.0
C200 C 0.96075 0.57463 0.29129 0.0
C201 C 0.91364 0.50529 0.79165 0.0
C202 C 0.8652 0.50113 0.22197 0.0
C203 C 0.96551 0.46615 0.04945 0.0
C204 C 0.87263 0.60027 0.9265 0.0
C205 C -0.00021 0.57735 0.90204 0.0
O206 O 0.93084 0.58254 0.26954 0.0
O207 O 0.11771 0.21278 0.93284 0.0
Zn208 Zn 0.15502 0.22684 0.83971 0.0
O209 O 0.17585 0.1839 0.80569 0.0
Zn210 Zn 0.22399 0.18512 0.82811 0.0
Zn211 Zn 0.15886 0.14671 0.89448 0.0
Zn212 Zn 0.16463 0.17838 0.65363 0.0
O213 O 0.24671 0.17603 0.68862 0.0
O214 O 0.20399 0.16815 0.57735 0.0
O215 O 0.19061 0.25152 0.91773 0.0
O216 O 0.23703 0.22797 0.8954 0.0
O217 O 0.24004 0.15221 0.9311 0.0
O218 O 0.1976 0.12142 0.97821 0.0
O219 O 0.12959 0.11777 0.78199 0.0
O220 O 0.13831 0.2548 0.71135 0.0
O221 O 0.13752 0.14119 0.61793 0.0
O222 O 0.14329 0.21696 0.58229 0.0
C223 C 0.12447 0.1997 0.02505 0.0
C224 C 0.23434 0.16774 0.59673 0.0
C225 C 0.22831 0.12839 0.98486 0.0
C226 C 0.21739 0.25001 0.86451 0.0
C227 C 0.12524 0.11874 0.67579 0.0
C228 C 0.13455 0.24548 0.61204 0.0
O229 O 0.13672 0.17085 0.02639 0.0
O230 O 0.4933 0.4143 0.72627 0.0
Zn231 Zn 0.49816 0.43662 0.58529 0.0
O232 O 0.54434 0.43194 0.55047 0.0
Zn233 Zn 0.56591 0.47459 0.53052 0.0
Zn234 Zn 0.57203 0.40641 0.6443 0.0
Zn235 Zn 0.53915 0.40937 0.41323 0.0
O236 O 0.5744 0.47792 0.37105 0.0
O237 O 0.53781 0.44258 0.30139 0.0
O238 O 0.49064 0.48498 0.60946 0.0
O239 O 0.53526 0.51084 0.57561 0.0
O240 O 0.60585 0.48186 0.62408 0.0
O241 O 0.59908 0.44009 0.73541 0.0
O242 O 0.59924 0.37488 0.53285 0.0
O243 O 0.46706 0.41871 0.46527 0.0
O244 O 0.57685 0.38448 0.36816 0.0
O245 O 0.49933 0.38031 0.40426 0.0
C246 C 0.51063 0.39693 0.79094 0.0
C247 C 0.55769 0.46625 0.2912 0.0
C248 C 0.60615 0.47045 0.72156 0.0
C249 C 0.50583 0.5054 0.54904 0.0
C250 C 0.59869 0.37124 0.42618 0.0
C251 C 0.47157 0.39419 0.40171 0.0
O252 O 0.54054 0.38902 0.76918 0.0
O253 O 0.35371 0.7586 0.43309 0.0
Zn254 Zn 0.31641 0.74449 0.33994 0.0
O255 O 0.29555 0.78743 0.30588 0.0
Zn256 Zn 0.24741 0.78618 0.32834 0.0
Zn257 Zn 0.31252 0.82463 0.39461 0.0
Zn258 Zn 0.30675 0.79293 0.15381 0.0
O259 O 0.22468 0.79527 0.18886 0.0
O260 O 0.26739 0.80316 0.07758 0.0
O261 O 0.28083 0.71981 0.41795 0.0
O262 O 0.23439 0.74333 0.39561 0.0
O263 O 0.23135 0.81908 0.43137 0.0
O264 O 0.27378 0.84991 0.47833 0.0
O265 O 0.34178 0.85357 0.28204 0.0
O266 O 0.33313 0.71653 0.21158 0.0
O267 O 0.33386 0.83012 0.11802 0.0
O268 O 0.32809 0.75435 0.08248 0.0
C269 C 0.34694 0.77168 0.52528 0.0
C270 C 0.23704 0.80358 0.09697 0.0
C271 C 0.24308 0.84292 0.48507 0.0
C272 C 0.25405 0.7213 0.36472 0.0
C273 C 0.34613 0.85258 0.17583 0.0
C274 C 0.33686 0.72584 0.11224 0.0
O275 O 0.33468 0.80053 0.52657 0.0
O276 O 0.96241 0.36821 0.36171 0.0
Zn277 Zn 0.97648 0.40551 0.45492 0.0
O278 O 0.93356 0.42639 0.4889 0.0
Zn279 Zn 0.93492 0.47454 0.46667 0.0
Zn280 Zn 0.89639 0.40952 0.39983 0.0
Zn281 Zn 0.92795 0.41512 0.64089 0.0
O282 O 0.92599 0.49721 0.60626 0.0
O283 O 0.91782 0.45449 0.71735 0.0
O284 O 0.00124 0.44103 0.3769 0.0
O285 O 0.97776 0.48752 0.39929 0.0
O286 O 0.90202 0.49074 0.36392 0.0
O287 O 0.87124 0.44835 0.31615 0.0
O288 O 0.86735 0.38021 0.51186 0.0
O289 O 0.00438 0.38878 0.58336 0.0
O290 O 0.89068 0.38802 0.67616 0.0
O291 O 0.9665 0.39371 0.71231 0.0
C292 C 0.94933 0.37499 0.2695 0.0
C293 C 0.9176 0.48485 0.69806 0.0
C294 C 0.87822 0.47906 0.30988 0.0
C295 C -0.00021 0.46785 0.42997 0.0
C296 C 0.86826 0.37578 0.61804 0.0
C297 C -0.00497 0.38498 0.68261 0.0
O298 O 0.92054 0.38737 0.26804 0.0
O299 O 0.30675 0.22794 0.06813 0.0
Zn300 Zn 0.28445 0.22307 0.20913 0.0
O301 O 0.28904 0.17687 0.24385 0.0
Zn302 Zn 0.24632 0.15543 0.26387 0.0
Zn303 Zn 0.31447 0.14916 0.14975 0.0
Zn304 Zn 0.3117 0.18195 0.38102 0.0
O305 O 0.24299 0.14694 0.42338 0.0
O306 O 0.27854 0.18334 0.49302 0.0
O307 O 0.23611 0.23071 0.185 0.0
O308 O 0.21015 0.18619 0.21892 0.0
O309 O 0.23889 0.11555 0.17013 0.0
O310 O 0.2807 0.12221 0.05872 0.0
O311 O 0.34602 0.12183 0.26078 0.0
O312 O 0.30242 0.25409 0.32921 0.0
O313 O 0.33658 0.14417 0.42567 0.0
O314 O 0.34077 0.22178 0.3901 0.0
C315 C 0.32404 0.21058 1.0033 0.0
C316 C 0.25478 0.16358 0.50323 0.0
C317 C 0.25033 0.11521 0.07268 0.0
C318 C 0.21565 0.21561 0.24552 0.0
C319 C 0.34974 0.12232 0.36741 0.0
C320 C 0.32692 0.24956 0.39283 0.0
O321 O 0.33188 0.18065 0.02493 0.0
O322 O 0.50889 0.60333 0.86128 0.0
Zn323 Zn 0.4948 0.56602 0.95446 0.0
O324 O 0.53772 0.54514 0.98847 0.0
Zn325 Zn 0.53639 0.497 0.9662 0.0
Zn326 Zn 0.57491 0.56203 0.89952 0.0
Zn327 Zn 0.5433 0.55641 0.14048 0.0
O328 O 0.54533 0.47432 0.10579 0.0
O329 O 0.55345 0.51704 0.21689 0.0
O330 O 0.47006 0.53049 0.8764 0.0
O331 O 0.49355 0.48399 0.89882 0.0
O332 O 0.56929 0.48082 0.86342 0.0
O333 O 0.60008 0.52322 0.81582 0.0
O334 O 0.60393 0.59132 0.01172 0.0
O335 O 0.46688 0.58274 0.08289 0.0
O336 O 0.58056 0.5835 0.17592 0.0
O337 O 0.50475 0.57779 0.21188 0.0
C338 C 0.52198 0.59655 0.7691 0.0
C339 C 0.55371 0.48668 0.1976 0.0
C340 C 0.59309 0.49251 0.80945 0.0
C341 C 0.47151 0.50367 0.92947 0.0
C342 C 0.603 0.59573 0.1179 0.0
C343 C 0.47622 0.58651 0.18217 0.0
O344 O 0.55078 0.5842 0.76769 0.0
O345 O 0.16467 0.74337 0.56827 0.0
Zn346 Zn 0.18696 0.74824 0.70931 0.0
O347 O 0.18235 0.79444 0.74405 0.0
Zn348 Zn 0.22507 0.81589 0.7641 0.0
Zn349 Zn 0.15692 0.82214 0.64994 0.0
Zn350 Zn 0.15969 0.78935 0.88121 0.0
O351 O 0.22838 0.82438 0.92363 0.0
O352 O 0.19284 0.78797 0.99325 0.0
O353 O 0.2353 0.74062 0.68523 0.0
O354 O 0.26125 0.78514 0.71917 0.0
O355 O 0.2325 0.85576 0.67033 0.0
O356 O 0.19069 0.8491 0.55892 0.0
O357 O 0.12536 0.84947 0.76096 0.0
O358 O 0.169 0.7172 0.82937 0.0
O359 O 0.13478 0.82712 0.92585 0.0
O360 O 0.13064 0.7495 0.89027 0.0
C361 C 0.14738 0.76073 0.50344 0.0
C362 C 0.21659 0.80774 1.00347 0.0
C363 C 0.22106 0.85611 0.57287 0.0
C364 C 0.25576 0.75573 0.74577 0.0
C365 C 0.12162 0.84897 0.86759 0.0
C366 C 0.1445 0.72173 0.893 0.0
O367 O 0.13953 0.79065 0.5251 0.0
O368 O 0.56937 -0.01262 0.36221 0.0
Zn369 Zn 0.53593 0.97229 0.46504 0.0
O370 O 0.53553 0.92411 0.48736 0.0
Zn371 Zn 0.49189 0.90476 0.45344 0.0
Zn372 Zn 0.57216 0.90598 0.39855 0.0
Zn373 Zn 0.54065 0.91256 0.63933 0.0
O374 O 0.46335 0.88906 0.58194 0.0
O375 O 0.50143 0.89249 0.71074 0.0
O376 O 0.49356 -0.01321 0.39777 0.0
O377 O 0.46851 0.94115 0.37515 0.0
O378 O 0.50479 0.86695 0.36066 0.0
O379 O 0.54735 0.88442 0.2669 0.0
O380 O 0.60042 0.87611 0.51115 0.0
O381 O 0.54569 -0.00542 0.60472 0.0
O382 O 0.57702 0.88436 0.67508 0.0
O383 O 0.55209 0.95156 0.71579 0.0
C384 C 0.59272 0.97484 0.30817 0.0
C385 C 0.47259 0.88485 0.68114 0.0
C386 C 0.51806 0.87324 0.26838 0.0
C387 C 0.47085 0.96787 0.42839 0.0
C388 C 0.59924 0.87166 0.61727 0.0
C389 C 0.55351 0.98189 0.69659 0.0
O390 O 0.59858 0.9439 0.31456 0.0
O391 O 0.23509 0.35599 0.67046 0.0
Zn392 Zn 0.24359 0.31625 0.76371 0.0
O393 O 0.28699 0.29625 0.74387 0.0
Zn394 Zn 0.28395 0.24991 0.70903 0.0
Zn395 Zn 0.31163 0.32477 0.65004 0.0
Zn396 Zn 0.30966 0.29194 0.88123 0.0
O397 O 0.30291 0.21949 0.82913 0.0
O398 O 0.3401 0.25316 0.89029 0.0
O399 O 0.20848 0.28434 0.71817 0.0
O400 O 0.2359 0.24067 0.68451 0.0
O401 O 0.30649 0.24578 0.56817 0.0
O402 O 0.33001 0.2939 0.5251 0.0
O403 O 0.34256 0.3528 0.76121 0.0
O404 O 0.23982 0.32453 0.92319 0.0
O405 O 0.33326 0.3305 0.92622 0.0
O406 O 0.27654 0.28938 0.99304 0.0
C407 C 0.24647 0.35669 0.57296 0.0
C408 C 0.32725 0.22489 0.89271 0.0
C409 C 0.32323 0.26372 0.50346 0.0
C410 C 0.21493 0.25512 0.74482 0.0
C411 C 0.34609 0.35253 0.86794 0.0
C412 C 0.25212 0.30831 1.0031 0.0
O413 O 0.27707 0.35077 0.5591 0.0
O414 O 0.90194 0.98397 0.86248 0.0
Zn415 Zn 0.9354 -0.00094 0.96526 0.0
O416 O 0.9358 0.04723 0.98753 0.0
Zn417 Zn 0.97945 0.06655 0.95361 0.0
Zn418 Zn 0.89919 0.06537 0.89865 0.0
Zn419 Zn 0.93066 0.0588 0.13948 0.0
O420 O 0.00798 0.08223 0.08212 0.0
O421 O 0.96989 0.07885 0.2109 0.0
O422 O 0.97775 0.98454 0.89794 0.0
O423 O 0.00283 0.03016 0.87534 0.0
O424 O 0.96658 0.10436 0.8608 0.0
O425 O 0.92402 0.0869 0.76702 0.0
O426 O 0.87092 0.09527 0.01116 0.0
O427 O 0.92565 0.97678 0.10495 0.0
O428 O 0.89429 0.08703 0.17514 0.0
O429 O 0.91921 0.0198 0.21598 0.0
C430 C 0.8786 -0.00349 0.80838 0.0
C431 C -0.00126 0.08646 0.1813 0.0
C432 C 0.95331 0.09808 0.76852 0.0
C433 C 0.00048 0.00343 0.92854 0.0
C434 C 0.87209 0.09973 0.11727 0.0
C435 C 0.91782 -0.01054 0.1968 0.0
O436 O 0.87277 0.02745 0.81467 0.0
O437 O 0.23635 0.61533 0.17071 0.0
Zn438 Zn 0.22785 0.65506 0.26396 0.0
O439 O 0.18445 0.67506 0.24406 0.0
Zn440 Zn 0.18749 0.7214 0.2092 0.0
Zn441 Zn 0.15981 0.64653 0.15028 0.0
Zn442 Zn 0.16178 0.67939 0.38139 0.0
O443 O 0.16853 0.75183 0.32928 0.0
O444 O 0.13133 0.71816 0.39037 0.0
O445 O 0.26297 0.68697 0.2184 0.0
O446 O 0.23555 0.73064 0.18471 0.0
O447 O 0.16495 0.72552 0.06833 0.0
O448 O 0.14142 0.67739 0.02531 0.0
O449 O 0.12886 0.61853 0.26149 0.0
O450 O 0.23159 0.6468 0.42347 0.0
O451 O 0.13818 0.64085 0.42646 0.0
O452 O 0.19488 0.68197 0.49322 0.0
C453 C 0.22497 0.61463 0.07321 0.0
C454 C 0.14418 0.74642 0.39283 0.0
C455 C 0.14821 0.70757 1.00363 0.0
C456 C 0.25652 0.71619 0.24503 0.0
C457 C 0.12534 0.61881 0.36822 0.0
C458 C 0.21929 0.66303 0.50336 0.0
O459 O 0.19436 0.62052 0.05936 0.0
O460 O 0.60593 0.98498 0.12296 0.0
Zn461 Zn 0.56622 -0.00647 0.02962 0.0
O462 O 0.54623 0.03693 0.04955 0.0
Zn463 Zn 0.49989 0.03389 0.08438 0.0
Zn464 Zn 0.57474 0.06157 0.14339 0.0
Zn465 Zn 0.54189 0.05963 0.91227 0.0
O466 O 0.46947 0.05286 0.96426 0.0
O467 O 0.50311 0.09007 0.90336 0.0
O468 O 0.53429 0.95842 0.07511 0.0
O469 O 0.49066 -0.01417 0.10883 0.0
O470 O 0.49576 0.05642 0.22528 0.0
O471 O 0.54388 0.07996 0.2683 0.0
O472 O 0.60278 0.0925 0.03222 0.0
O473 O 0.5745 -0.01019 0.8701 0.0
O474 O 0.58045 0.08324 0.86724 0.0
O475 O 0.53932 0.02654 0.80039 0.0
C476 C 0.60666 -0.00359 0.2204 0.0
C477 C 0.47486 0.0772 0.90067 0.0
C478 C 0.5137 0.07315 0.29001 0.0
C479 C 0.50509 0.96488 0.04835 0.0
C480 C 0.6025 0.09604 0.92551 0.0
C481 C 0.55829 0.00214 0.79021 0.0
O482 O 0.60073 0.02701 0.23431 0.0
O483 O 0.23742 0.31946 0.43101 0.0
Zn484 Zn 0.22231 0.286 0.3283 0.0
O485 O 0.17413 0.2856 0.30608 0.0
Zn486 Zn 0.1548 0.24195 0.33997 0.0
Zn487 Zn 0.15601 0.32221 0.39501 0.0
Zn488 Zn 0.16255 0.29076 0.15414 0.0
O489 O 0.13913 0.21342 0.21143 0.0
O490 O 0.1425 0.25153 0.08267 0.0
O491 O 0.23683 0.24364 0.39561 0.0
O492 O 0.19117 0.21856 0.41828 0.0
O493 O 0.11698 0.2548 0.43277 0.0
O494 O 0.13448 0.29736 0.52658 0.0
O495 O 0.1261 0.35049 0.28259 0.0
O496 O 0.24457 0.29573 0.18857 0.0
O497 O 0.13431 0.32713 0.11857 0.0
O498 O 0.20154 0.30222 0.07761 0.0
C499 C 0.22488 0.34278 0.48518 0.0
C500 C 0.13489 0.22267 0.11226 0.0
C501 C 0.12324 0.26809 0.52503 0.0
C502 C 0.21792 0.22092 0.36516 0.0
C503 C 0.12162 0.34933 0.17649 0.0
C504 C 0.23187 0.30359 0.09677 0.0
O505 O 0.19394 0.34861 0.479 0.0
O506 O 0.86543 -0.01363 0.62314 0.0
Zn507 Zn 0.90514 0.97781 0.52983 0.0
O508 O 0.92512 0.93439 0.54972 0.0
Zn509 Zn 0.97146 0.9374 0.58453 0.0
Zn510 Zn 0.8966 0.90976 0.64356 0.0
Zn511 Zn 0.92943 0.91171 0.41242 0.0
O512 O 0.00187 0.91843 0.46439 0.0
O513 O 0.9682 0.88125 0.40346 0.0
O514 O 0.93708 0.0129 0.57533 0.0
O515 O 0.9807 0.98547 0.60901 0.0
O516 O 0.97558 0.91487 0.7254 0.0
O517 O 0.92746 0.89135 0.76845 0.0
O518 O 0.86854 0.87886 0.53242 0.0
O519 O 0.89685 0.98154 0.37033 0.0
O520 O 0.89087 0.88812 0.36742 0.0
O521 O 0.93201 0.94481 0.30056 0.0
C522 C 0.86468 0.97493 0.72057 0.0
C523 C -0.00354 0.89409 0.40079 0.0
C524 C 0.95764 0.89814 0.79013 0.0
C525 C 0.96628 0.00642 0.54854 0.0
C526 C 0.86881 0.87532 0.4257 0.0
C527 C 0.91305 0.96921 0.29042 0.0
O528 O 0.87063 0.94434 0.73449 0.0
O529 O 0.234 0.65188 0.93133 0.0
Zn530 Zn 0.2491 0.68535 0.82857 0.0
O531 O 0.29728 0.68576 0.80631 0.0
Zn532 Zn 0.31661 0.72941 0.84021 0.0
Zn533 Zn 0.31541 0.64913 0.89515 0.0
Zn534 Zn 0.30884 0.68063 0.65435 0.0
O535 O 0.33228 0.75796 0.71168 0.0
O536 O 0.32889 0.71986 0.58291 0.0
O537 O 0.23457 0.7277 0.89586 0.0
O538 O 0.28023 0.75278 0.91854 0.0
O539 O 0.35444 0.71655 0.93297 0.0
O540 O 0.33696 0.67397 0.02675 0.0
O541 O 0.34528 0.62087 0.78257 0.0
O542 O 0.22683 0.6756 0.68885 0.0
O543 O 0.33705 0.64427 0.61864 0.0
O544 O 0.26986 0.66918 0.57786 0.0
C545 C 0.24655 0.62855 0.98544 0.0
C546 C 0.3365 0.74871 0.6125 0.0
C547 C 0.34818 0.70324 0.02522 0.0
C548 C 0.25349 0.75042 0.86541 0.0
C549 C 0.34974 0.62205 0.67646 0.0
C550 C 0.23953 0.66776 0.59703 0.0
O551 O 0.27749 0.62272 0.97917 0.0
O552 O 0.47791 0.05674 0.72523 0.0
Zn553 Zn 0.47304 0.03443 0.58425 0.0
O554 O 0.42685 0.03903 0.5495 0.0
Zn555 Zn 0.40539 -0.00368 0.52951 0.0
Zn556 Zn 0.39914 0.06446 0.64361 0.0
Zn557 Zn 0.43192 0.06168 0.4123 0.0
O558 O 0.39692 -0.00703 0.37 0.0
O559 O 0.43329 0.02852 0.30031 0.0
O560 O 0.48069 -0.01391 0.6084 0.0
O561 O 0.43612 0.96013 0.57451 0.0
O562 O 0.3655 -0.01108 0.62322 0.0
O563 O 0.37218 0.03069 0.73463 0.0
O564 O 0.37181 0.09602 0.53258 0.0
O565 O 0.50408 0.05238 0.46421 0.0
O566 O 0.39415 0.08658 0.36768 0.0
O567 O 0.47175 0.09074 0.40309 0.0
C568 C 0.46056 0.07403 0.79005 0.0
C569 C 0.41357 0.00473 0.29014 0.0
C570 C 0.36519 0.00031 0.72074 0.0
C571 C 0.46555 0.96561 0.54803 0.0
C572 C 0.3723 0.09974 0.42594 0.0
C573 C 0.49953 0.07689 0.40062 0.0
O574 O 0.43062 0.08185 0.76846 0.0
O575 O 0.61801 0.71251 0.43243 0.0
Zn576 Zn 0.6553 0.72661 0.33921 0.0
O577 O 0.67619 0.6837 0.30522 0.0
Zn578 Zn 0.72434 0.68505 0.32753 0.0
Zn579 Zn 0.65932 0.6465 0.39416 0.0
Zn580 Zn 0.66494 0.67811 0.1532 0.0
O581 O 0.74702 0.67609 0.18797 0.0
O582 O 0.70431 0.66799 0.0768 0.0
O583 O 0.69082 0.75138 0.41721 0.0
O584 O 0.73732 0.72791 0.39483 0.0
O585 O 0.74052 0.65216 0.4304 0.0
O586 O 0.69814 0.62133 0.47785 0.0
O587 O 0.63004 0.61746 0.28195 0.0
O588 O 0.63856 0.75452 0.21079 0.0
O589 O 0.63787 0.64083 0.11774 0.0
O590 O 0.64353 0.71666 0.0818 0.0
C591 C 0.62479 0.69942 0.52461 0.0
C592 C 0.73467 0.66774 0.09611 0.0
C593 C 0.72884 0.62834 0.48432 0.0
C594 C 0.71763 0.74993 0.36414 0.0
C595 C 0.62565 0.61839 0.17576 0.0
C596 C 0.63479 0.74518 0.11151 0.0
O597 O 0.63715 0.67061 0.526 0.0
O598 O -0.00658 0.91455 0.22534 0.0
Zn599 Zn -0.00169 0.93686 0.08438 0.0
O600 O 0.0445 0.93225 0.04965 0.0
Zn601 Zn 0.06596 0.97496 0.02968 0.0
Zn602 Zn 0.07221 0.90682 0.14377 0.0
Zn603 Zn 0.03943 0.9096 0.91244 0.0
O604 O 0.07444 0.97832 0.87019 0.0
O605 O 0.03806 0.94277 0.80047 0.0
O606 O -0.00934 0.9852 0.10854 0.0
O607 O 0.03522 0.01116 0.07464 0.0
O608 O 0.10584 0.98236 0.1234 0.0
O609 O 0.09916 0.94059 0.23481 0.0
O610 O 0.09953 0.87526 0.03275 0.0
O611 O 0.96727 0.91891 0.96433 0.0
O612 O 0.07721 0.88471 0.86783 0.0
O613 O -0.00041 0.88055 0.90321 0.0
C614 C 0.01077 0.89725 0.29018 0.0
C615 C 0.05779 0.96656 0.79033 0.0
C616 C 0.10615 0.97096 0.22091 0.0
C617 C 0.0058 0.00568 0.04818 0.0
C618 C 0.09905 0.87154 0.92611 0.0
C619 C 0.97181 0.8944 0.90073 0.0
O620 O 0.04071 0.88943 0.26861 0.0
O621 O 0.85323 0.25893 0.93217 0.0
Zn622 Zn 0.81594 0.24485 0.83894 0.0
O623 O 0.79505 0.28776 0.80496 0.0
Zn624 Zn 0.74691 0.28641 0.82723 0.0
Zn625 Zn 0.81192 0.32494 0.89401 0.0
Zn626 Zn 0.80633 0.29338 0.65297 0.0
O627 O 0.72424 0.29535 0.68764 0.0
O628 O 0.76695 0.30348 0.57651 0.0
O629 O 0.78042 0.22007 0.91693 0.0
O630 O 0.73393 0.24356 0.89456 0.0
O631 O 0.73072 0.3193 0.93002 0.0
O632 O 0.7731 0.3501 0.97768 0.0
O633 O 0.8412 0.354 0.78195 0.0
O634 O 0.83267 0.21695 0.71051 0.0
O635 O 0.83339 0.33068 0.61766 0.0
O636 O 0.82776 0.25483 0.58155 0.0
C637 C 0.84645 0.27201 0.02437 0.0
C638 C 0.73659 0.30371 0.59579 0.0
C639 C 0.7424 0.34311 0.98403 0.0
C640 C 0.7536 0.22152 0.86387 0.0
C641 C 0.84561 0.35311 0.67578 0.0
C642 C 0.83647 0.2263 0.61126 0.0
O643 O 0.83408 0.3008 0.02581 0.0
O644 O 0.46274 0.86764 0.86049 0.0
Zn645 Zn 0.47681 0.90497 0.95362 0.0
O646 O 0.43387 0.92581 0.98765 0.0
Zn647 Zn 0.4351 0.97396 0.96526 0.0
Zn648 Zn 0.39667 0.90883 0.8989 0.0
Zn649 Zn 0.42837 0.9146 0.13972 0.0
O650 O 0.42603 -0.00333 0.10476 0.0
O651 O 0.4181 0.95395 0.21598 0.0
O652 O 0.50148 0.94054 0.87556 0.0
O653 O 0.47793 -0.01299 0.89793 0.0
O654 O 0.40218 -0.00998 0.8623 0.0
O655 O 0.37139 0.94757 0.81516 0.0
O656 O 0.36774 0.87955 0.01145 0.0
O657 O 0.50477 0.88827 0.08202 0.0
O658 O 0.39119 0.88747 0.17547 0.0
O659 O 0.46694 0.89328 0.21109 0.0
C660 C 0.44962 0.87439 0.76833 0.0
C661 C 0.41769 0.9843 0.1966 0.0
C662 C 0.37836 0.97828 0.80854 0.0
C663 C 0.49997 0.96735 0.92867 0.0
C664 C 0.36874 0.8752 0.11765 0.0
C665 C 0.49546 0.88453 0.18134 0.0
O666 O 0.42079 0.88667 0.76699 0.0
O667 O 0.80698 0.72815 0.56741 0.0
Zn668 Zn 0.78468 0.72329 0.70841 0.0
O669 O 0.78937 0.6771 0.74324 0.0
Zn670 Zn 0.74672 0.65552 0.76325 0.0
Zn671 Zn 0.81492 0.64943 0.64943 0.0
Zn672 Zn 0.81194 0.68231 0.88047 0.0
O673 O 0.74343 0.64702 0.92273 0.0
O674 O 0.77874 0.68365 0.99231 0.0
O675 O 0.73632 0.73079 0.68427 0.0
O676 O 0.71047 0.68617 0.7182 0.0
O677 O 0.73944 0.6156 0.66963 0.0
O678 O 0.78124 0.62237 0.55831 0.0
O679 O 0.84645 0.62222 0.76091 0.0
O680 O 0.80258 0.7544 0.8284 0.0
O681 O 0.83684 0.64463 0.92559 0.0
O682 O 0.84099 0.72214 0.88938 0.0
C683 C 0.82437 0.71082 0.50276 0.0
C684 C 0.75512 0.66372 1.00257 0.0
C685 C 0.7509 0.61526 0.57221 0.0
C686 C 0.7159 0.7156 0.74474 0.0
C687 C 0.85008 0.62278 0.86758 0.0
C688 C 0.8271 0.74989 0.89194 0.0
O689 O 0.83229 0.68093 0.52456 0.0
O690 O 0.00861 0.10365 0.36067 0.0
Zn691 Zn -0.00545 0.06632 0.45379 0.0
O692 O 0.03749 0.04548 0.48781 0.0
Zn693 Zn 0.03626 -0.00267 0.46543 0.0
Zn694 Zn 0.07467 0.06246 0.39901 0.0
Zn695 Zn 0.04301 0.0567 0.63987 0.0
O696 O 0.04533 0.97462 0.60494 0.0
O697 O 0.05326 0.01735 0.71616 0.0
O698 O 0.96987 0.03075 0.37573 0.0
O699 O -0.00658 0.98429 0.3981 0.0
O700 O 0.06917 0.98127 0.3625 0.0
O701 O 0.09995 0.02371 0.31529 0.0
O702 O 0.10362 0.09175 0.51148 0.0
O703 O 0.96659 0.08303 0.58218 0.0
O704 O 0.08018 0.08384 0.67554 0.0
O705 O 0.00443 0.07803 0.71124 0.0
C706 C 0.02171 0.09691 0.2685 0.0
C707 C 0.05366 -0.013 0.69678 0.0
C708 C 0.09299 -0.007 0.30871 0.0
C709 C 0.97138 0.00394 0.42885 0.0
C710 C 0.10263 0.09611 0.61768 0.0
C711 C 0.97592 0.08677 0.68149 0.0
O712 O 0.05054 0.08461 0.26712 0.0
O713 O 0.66422 0.24326 0.06723 0.0
Zn714 Zn 0.68654 0.24813 0.20819 0.0
O715 O 0.68186 0.29432 0.24298 0.0
Zn716 Zn 0.72451 0.3159 0.26294 0.0
Zn717 Zn 0.65632 0.32199 0.14914 0.0
Zn718 Zn 0.6593 0.28913 0.38023 0.0
O719 O 0.72782 0.32441 0.42239 0.0
O720 O 0.69251 0.28779 0.49203 0.0
O721 O 0.7349 0.24063 0.18401 0.0
O722 O 0.76076 0.28524 0.21791 0.0
O723 O 0.73179 0.35583 0.16934 0.0
O724 O 0.68999 0.34903 0.05801 0.0
O725 O 0.62483 0.34924 0.26061 0.0
O726 O 0.66864 0.21703 0.32821 0.0
O727 O 0.63442 0.32684 0.42531 0.0
O728 O 0.63024 0.24931 0.38922 0.0
C729 C 0.64684 0.26058 1.00255 0.0
C730 C 0.71614 0.30771 0.50225 0.0
C731 C 0.72033 0.35616 0.07193 0.0
C732 C 0.75532 0.25582 0.24445 0.0
C733 C 0.62121 0.3487 0.36729 0.0
C734 C 0.64412 0.22154 0.39176 0.0
O735 O 0.63893 0.29049 0.02431 0.0
loop_
_geom_bond_atom_site_label_1
_geom_bond_atom_site_label_2
_geom_bond_distance
_geom_bond_site_symmetry_2
_ccdc_geom_bond_type
O0 Zn1 1.953 1_556 S
O0 C16 1.225 . S
Zn1 O0 1.953 1_554 S
Zn1 O2 1.949 . S
Zn1 O8 1.919 . S
Zn1 O13 1.924 . S
O2 Zn1 1.949 . S
O2 Zn3 1.923 . S
O2 Zn4 1.950 1_554 S
O2 Zn5 1.945 . S
Zn3 O2 1.923 . S
Zn3 O6 1.933 1_455 S
Zn3 O9 1.941 1_454 S
Zn3 O10 1.965 1_554 S
Zn4 O2 1.950 1_556 S
Zn4 O11 1.938 . S
Zn4 O12 1.906 . S
Zn4 O22 1.953 . S
Zn5 O2 1.945 . S
Zn5 O7 1.932 . S
Zn5 O14 1.977 . S
Zn5 O15 1.910 . S
O6 Zn3 1.933 1_655 S
O6 C17 1.226 1_655 S
O7 Zn5 1.932 . S
O7 C17 1.307 . S
O8 Zn1 1.919 . S
O8 C19 1.253 1_455 S
O9 Zn3 1.941 1_656 S
O9 C19 1.283 1_556 S
O10 Zn3 1.965 1_556 S
O10 C18 1.303 . S
O11 Zn4 1.938 . S
O11 C18 1.247 . S
O12 Zn4 1.906 . S
O12 C20 1.304 1_556 S
O13 Zn1 1.924 . S
O13 C21 1.311 . S
O14 Zn5 1.977 . S
O14 C20 1.272 . S
O15 Zn5 1.910 . S
O15 C21 1.231 . S
C16 O0 1.225 . S
C16 O22 1.298 . S
C17 O6 1.226 1_455 S
C17 O7 1.307 . S
C18 O10 1.303 . S
C18 O11 1.247 . S
C19 O8 1.253 1_655 S
C19 O9 1.283 1_554 S
C20 O12 1.304 1_554 S
C20 O14 1.272 . S
C21 O13 1.311 . S
C21 O15 1.231 . S
O22 Zn4 1.953 . S
O22 C16 1.298 . S
O23 Zn24 1.953 . S
O23 C39 1.225 . S
Zn24 O23 1.953 . S
Zn24 O25 1.949 . S
Zn24 O31 1.919 . S
Zn24 O36 1.924 . S
O25 Zn24 1.949 . S
O25 Zn26 1.923 . S
O25 Zn27 1.950 . S
O25 Zn28 1.945 . S
Zn26 O25 1.923 . S
Zn26 O29 1.933 . S
Zn26 O32 1.941 . S
Zn26 O33 1.965 . S
Zn27 O25 1.950 . S
Zn27 O34 1.938 . S
Zn27 O35 1.906 . S
Zn27 O45 1.953 . S
Zn28 O25 1.945 . S
Zn28 O30 1.932 . S
Zn28 O37 1.977 . S
Zn28 O38 1.910 . S
O29 Zn26 1.933 . S
O29 C40 1.226 . S
O30 Zn28 1.932 . S
O30 C40 1.307 . S
O31 Zn24 1.919 . S
O31 C42 1.253 . S
O32 Zn26 1.941 . S
O32 C42 1.283 . S
O33 Zn26 1.965 . S
O33 C41 1.303 . S
O34 Zn27 1.938 . S
O34 C41 1.247 . S
O35 Zn27 1.906 . S
O35 C43 1.304 . S
O36 Zn24 1.924 . S
O36 C44 1.311 . S
O37 Zn28 1.977 . S
O37 C43 1.272 . S
O38 Zn28 1.910 . S
O38 C44 1.231 . S
C39 O23 1.225 . S
C39 O45 1.298 . S
C40 O29 1.226 . S
C40 O30 1.307 . S
C41 O33 1.303 . S
C41 O34 1.247 . S
C42 O31 1.253 . S
C42 O32 1.283 . S
C43 O35 1.304 . S
C43 O37 1.272 . S
C44 O36 1.311 . S
C44 O38 1.231 . S
O45 Zn27 1.953 . S
O45 C39 1.298 . S
O46 Zn47 1.953 . S
O46 C62 1.225 . S
Zn47 O46 1.953 . S
Zn47 O48 1.949 . S
Zn47 O54 1.919 . S
Zn47 O59 1.924 . S
O48 Zn47 1.949 . S
O48 Zn49 1.923 . S
O48 Zn50 1.950 . S
O48 Zn51 1.945 . S
Zn49 O48 1.923 . S
Zn49 O52 1.933 . S
Zn49 O55 1.941 . S
Zn49 O56 1.965 . S
Zn50 O48 1.950 . S
Zn50 O57 1.938 . S
Zn50 O58 1.906 . S
Zn50 O68 1.953 . S
Zn51 O48 1.945 . S
Zn51 O53 1.932 . S
Zn51 O60 1.977 . S
Zn51 O61 1.910 . S
O52 Zn49 1.933 . S
O52 C63 1.226 . S
O53 Zn51 1.932 . S
O53 C63 1.307 . S
O54 Zn47 1.919 . S
O54 C65 1.253 . S
O55 Zn49 1.941 . S
O55 C65 1.283 . S
O56 Zn49 1.965 . S
O56 C64 1.303 . S
O57 Zn50 1.938 . S
O57 C64 1.247 . S
O58 Zn50 1.906 . S
O58 C66 1.304 . S
O59 Zn47 1.924 . S
O59 C67 1.311 . S
O60 Zn51 1.977 . S
O60 C66 1.272 . S
O61 Zn51 1.910 . S
O61 C67 1.231 . S
C62 O46 1.225 . S
C62 O68 1.298 . S
C63 O52 1.226 . S
C63 O53 1.307 . S
C64 O56 1.303 . S
C64 O57 1.247 . S
C65 O54 1.253 . S
C65 O55 1.283 . S
C66 O58 1.304 . S
C66 O60 1.272 . S
C67 O59 1.311 . S
C67 O61 1.231 . S
O68 Zn50 1.953 . S
O68 C62 1.298 . S
O69 Zn70 1.953 . S
O69 C85 1.225 . S
Zn70 O69 1.953 . S
Zn70 O71 1.949 . S
Zn70 O77 1.919 . S
Zn70 O82 1.924 . S
O71 Zn70 1.949 . S
O71 Zn72 1.923 . S
O71 Zn73 1.950 . S
O71 Zn74 1.945 . S
Zn72 O71 1.923 . S
Zn72 O75 1.933 . S
Zn72 O78 1.941 . S
Zn72 O79 1.965 . S
Zn73 O71 1.950 . S
Zn73 O80 1.938 . S
Zn73 O81 1.906 . S
Zn73 O91 1.953 . S
Zn74 O71 1.945 . S
Zn74 O76 1.932 1_556 S
Zn74 O83 1.977 . S
Zn74 O84 1.910 . S
O75 Zn72 1.933 . S
O75 C86 1.226 . S
O76 Zn74 1.932 1_554 S
O76 C86 1.307 1_554 S
O77 Zn70 1.919 . S
O77 C88 1.253 . S
O78 Zn72 1.941 . S
O78 C88 1.283 . S
O79 Zn72 1.965 . S
O79 C87 1.303 . S
O80 Zn73 1.938 . S
O80 C87 1.247 . S
O81 Zn73 1.906 . S
O81 C89 1.304 . S
O82 Zn70 1.924 . S
O82 C90 1.311 . S
O83 Zn74 1.977 . S
O83 C89 1.272 . S
O84 Zn74 1.910 . S
O84 C90 1.231 . S
C85 O69 1.225 . S
C85 O91 1.298 . S
C86 O75 1.226 . S
C86 O76 1.307 1_556 S
C87 O79 1.303 . S
C87 O80 1.247 . S
C88 O77 1.253 . S
C88 O78 1.283 . S
C89 O81 1.304 . S
C89 O83 1.272 . S
C90 O82 1.311 . S
C90 O84 1.231 . S
O91 Zn73 1.953 . S
O91 C85 1.298 . S
O92 Zn93 1.953 . S
O92 C108 1.225 . S
Zn93 O92 1.953 . S
Zn93 O94 1.949 . S
Zn93 O100 1.919 . S
Zn93 O105 1.924 . S
O94 Zn93 1.949 . S
O94 Zn95 1.923 . S
O94 Zn96 1.950 . S
O94 Zn97 1.945 . S
Zn95 O94 1.923 . S
Zn95 O98 1.933 1_455 S
Zn95 O101 1.941 1_455 S
Zn95 O102 1.965 . S
Zn96 O94 1.950 . S
Zn96 O103 1.938 . S
Zn96 O104 1.906 . S
Zn96 O114 1.953 . S
Zn97 O94 1.945 . S
Zn97 O99 1.932 . S
Zn97 O106 1.977 . S
Zn97 O107 1.910 . S
O98 Zn95 1.933 1_655 S
O98 C109 1.226 1_655 S
O99 Zn97 1.932 . S
O99 C109 1.307 . S
O100 Zn93 1.919 . S
O100 C111 1.253 1_455 S
O101 Zn95 1.941 1_655 S
O101 C111 1.283 . S
O102 Zn95 1.965 . S
O102 C110 1.303 . S
O103 Zn96 1.938 . S
O103 C110 1.247 . S
O104 Zn96 1.906 . S
O104 C112 1.304 . S
O105 Zn93 1.924 . S
O105 C113 1.311 . S
O106 Zn97 1.977 . S
O106 C112 1.272 . S
O107 Zn97 1.910 . S
O107 C113 1.231 . S
C108 O92 1.225 . S
C108 O114 1.298 . S
C109 O98 1.226 1_455 S
C109 O99 1.307 . S
C110 O102 1.303 . S
C110 O103 1.247 . S
C111 O100 1.253 1_655 S
C111 O101 1.283 . S
C112 O104 1.304 . S
C112 O106 1.272 . S
C113 O105 1.311 . S
C113 O107 1.231 . S
O114 Zn96 1.953 . S
O114 C108 1.298 . S
O115 Zn116 1.953 . S
O115 C131 1.225 . S
Zn116 O115 1.953 . S
Zn116 O117 1.949 . S
Zn116 O123 1.919 . S
Zn116 O128 1.924 . S
O117 Zn116 1.949 . S
O117 Zn118 1.923 . S
O117 Zn119 1.950 . S
O117 Zn120 1.945 . S
Zn118 O117 1.923 . S
Zn118 O121 1.933 . S
Zn118 O124 1.941 . S
Zn118 O125 1.965 . S
Zn119 O117 1.950 . S
Zn119 O126 1.938 . S
Zn119 O127 1.906 . S
Zn119 O137 1.953 . S
Zn120 O117 1.945 . S
Zn120 O122 1.932 . S
Zn120 O129 1.977 . S
Zn120 O130 1.910 . S
O121 Zn118 1.933 . S
O121 C132 1.226 . S
O122 Zn120 1.932 . S
O122 C132 1.307 . S
O123 Zn116 1.919 . S
O123 C134 1.253 . S
O124 Zn118 1.941 . S
O124 C134 1.283 . S
O125 Zn118 1.965 . S
O125 C133 1.303 . S
O126 Zn119 1.938 . S
O126 C133 1.247 . S
O127 Zn119 1.906 . S
O127 C135 1.304 . S
O128 Zn116 1.924 . S
O128 C136 1.311 . S
O129 Zn120 1.977 . S
O129 C135 1.272 . S
O130 Zn120 1.910 . S
O130 C136 1.231 . S
C131 O115 1.225 . S
C131 O137 1.298 . S
C132 O121 1.226 . S
C132 O122 1.307 . S
C133 O125 1.303 . S
C133 O126 1.247 . S
C134 O123 1.253 . S
C134 O124 1.283 . S
C135 O127 1.304 . S
C135 O129 1.272 . S
C136 O128 1.311 . S
C136 O130 1.231 . S
O137 Zn119 1.953 . S
O137 C131 1.298 . S
O138 Zn139 1.953 . S
O138 C154 1.225 . S
Zn139 O138 1.953 . S
Zn139 O140 1.949 . S
Zn139 O146 1.919 . S
Zn139 O151 1.924 1_554 S
O140 Zn139 1.949 . S
O140 Zn141 1.923 . S
O140 Zn142 1.950 . S
O140 Zn143 1.945 1_554 S
Zn141 O140 1.923 . S
Zn141 O144 1.933 1_554 S
Zn141 O147 1.941 . S
Zn141 O148 1.965 . S
Zn142 O140 1.950 . S
Zn142 O149 1.938 . S
Zn142 O150 1.906 . S
Zn142 O160 1.953 . S
Zn143 O140 1.945 1_556 S
Zn143 O145 1.932 . S
Zn143 O152 1.977 . S
Zn143 O153 1.910 . S
O144 Zn141 1.933 1_556 S
O144 C155 1.226 . S
O145 Zn143 1.932 . S
O145 C155 1.307 . S
O146 Zn139 1.919 . S
O146 C157 1.253 . S
O147 Zn141 1.941 . S
O147 C157 1.283 . S
O148 Zn141 1.965 . S
O148 C156 1.303 . S
O149 Zn142 1.938 . S
O149 C156 1.247 . S
O150 Zn142 1.906 . S
O150 C158 1.304 1_554 S
O151 Zn139 1.924 1_556 S
O151 C159 1.311 . S
O152 Zn143 1.977 . S
O152 C158 1.272 . S
O153 Zn143 1.910 . S
O153 C159 1.231 . S
C154 O138 1.225 . S
C154 O160 1.298 . S
C155 O144 1.226 . S
C155 O145 1.307 . S
C156 O148 1.303 . S
C156 O149 1.247 . S
C157 O146 1.253 . S
C157 O147 1.283 . S
C158 O150 1.304 1_556 S
C158 O152 1.272 . S
C159 O151 1.311 . S
C159 O153 1.231 . S
O160 Zn142 1.953 . S
O160 C154 1.298 . S
O161 Zn162 1.953 . S
O161 C177 1.225 . S
Zn162 O161 1.953 . S
Zn162 O163 1.949 . S
Zn162 O169 1.919 . S
Zn162 O174 1.924 . S
O163 Zn162 1.949 . S
O163 Zn164 1.923 . S
O163 Zn165 1.950 . S
O163 Zn166 1.945 . S
Zn164 O163 1.923 . S
Zn164 O167 1.933 . S
Zn164 O170 1.941 . S
Zn164 O171 1.965 . S
Zn165 O163 1.950 . S
Zn165 O172 1.938 . S
Zn165 O173 1.906 . S
Zn165 O183 1.953 . S
Zn166 O163 1.945 . S
Zn166 O168 1.932 . S
Zn166 O175 1.977 . S
Zn166 O176 1.910 . S
O167 Zn164 1.933 . S
O167 C178 1.226 . S
O168 Zn166 1.932 . S
O168 C178 1.307 . S
O169 Zn162 1.919 . S
O169 C180 1.253 . S
O170 Zn164 1.941 . S
O170 C180 1.283 . S
O171 Zn164 1.965 . S
O171 C179 1.303 . S
O172 Zn165 1.938 . S
O172 C179 1.247 . S
O173 Zn165 1.906 . S
O173 C181 1.304 . S
O174 Zn162 1.924 . S
O174 C182 1.311 . S
O175 Zn166 1.977 . S
O175 C181 1.272 . S
O176 Zn166 1.910 . S
O176 C182 1.231 . S
C177 O161 1.225 . S
C177 O183 1.298 . S
C178 O167 1.226 . S
C178 O168 1.307 . S
C179 O171 1.303 . S
C179 O172 1.247 . S
C180 O169 1.253 . S
C180 O170 1.283 . S
C181 O173 1.304 . S
C181 O175 1.272 . S
C182 O174 1.311 . S
C182 O176 1.231 . S
O183 Zn165 1.953 . S
O183 C177 1.298 . S
O184 Zn185 1.953 . S
O184 C200 1.225 . S
Zn185 O184 1.953 . S
Zn185 O186 1.949 . S
Zn185 O192 1.919 1_655 S
Zn185 O197 1.924 1_654 S
O186 Zn185 1.949 . S
O186 Zn187 1.923 . S
O186 Zn188 1.950 . S
O186 Zn189 1.945 1_554 S
Zn187 O186 1.923 . S
Zn187 O190 1.933 1_554 S
Zn187 O193 1.941 . S
Zn187 O194 1.965 . S
Zn188 O186 1.950 . S
Zn188 O195 1.938 . S
Zn188 O196 1.906 . S
Zn188 O206 1.953 . S
Zn189 O186 1.945 1_556 S
Zn189 O191 1.932 . S
Zn189 O198 1.977 . S
Zn189 O199 1.910 . S
O190 Zn187 1.933 1_556 S
O190 C201 1.226 . S
O191 Zn189 1.932 . S
O191 C201 1.307 . S
O192 Zn185 1.919 1_455 S
O192 C203 1.253 1_455 S
O193 Zn187 1.941 . S
O193 C203 1.283 . S
O194 Zn187 1.965 . S
O194 C202 1.303 . S
O195 Zn188 1.938 . S
O195 C202 1.247 . S
O196 Zn188 1.906 . S
O196 C204 1.304 1_554 S
O197 Zn185 1.924 1_456 S
O197 C205 1.311 1_455 S
O198 Zn189 1.977 . S
O198 C204 1.272 . S
O199 Zn189 1.910 . S
O199 C205 1.231 . S
C200 O184 1.225 . S
C200 O206 1.298 . S
C201 O190 1.226 . S
C201 O191 1.307 . S
C202 O194 1.303 . S
C202 O195 1.247 . S
C203 O192 1.253 1_655 S
C203 O193 1.283 . S
C204 O196 1.304 1_556 S
C204 O198 1.272 . S
C205 O197 1.311 1_655 S
C205 O199 1.231 . S
O206 Zn188 1.953 . S
O206 C200 1.298 . S
O207 Zn208 1.953 . S
O207 C223 1.225 . S
Zn208 O207 1.953 . S
Zn208 O209 1.949 . S
Zn208 O215 1.919 . S
Zn208 O220 1.924 . S
O209 Zn208 1.949 . S
O209 Zn210 1.923 . S
O209 Zn211 1.950 . S
O209 Zn212 1.945 . S
Zn210 O209 1.923 . S
Zn210 O213 1.933 . S
Zn210 O216 1.941 . S
Zn210 O217 1.965 . S
Zn211 O209 1.950 . S
Zn211 O218 1.938 . S
Zn211 O219 1.906 . S
Zn211 O229 1.953 . S
Zn212 O209 1.945 . S
Zn212 O214 1.932 . S
Zn212 O221 1.977 . S
Zn212 O222 1.910 . S
O213 Zn210 1.933 . S
O213 C224 1.226 . S
O214 Zn212 1.932 . S
O214 C224 1.307 . S
O215 Zn208 1.919 . S
O215 C226 1.253 . S
O216 Zn210 1.941 . S
O216 C226 1.283 . S
O217 Zn210 1.965 . S
O217 C225 1.303 . S
O218 Zn211 1.938 . S
O218 C225 1.247 . S
O219 Zn211 1.906 . S
O219 C227 1.304 . S
O220 Zn208 1.924 . S
O220 C228 1.311 . S
O221 Zn212 1.977 . S
O221 C227 1.272 . S
O222 Zn212 1.910 . S
O222 C228 1.231 . S
C223 O207 1.225 . S
C223 O229 1.298 . S
C224 O213 1.226 . S
C224 O214 1.307 . S
C225 O217 1.303 . S
C225 O218 1.247 . S
C226 O215 1.253 . S
C226 O216 1.283 . S
C227 O219 1.304 . S
C227 O221 1.272 . S
C228 O220 1.311 . S
C228 O222 1.231 . S
O229 Zn211 1.953 . S
O229 C223 1.298 . S
O230 Zn231 1.953 . S
O230 C246 1.225 . S
Zn231 O230 1.953 . S
Zn231 O232 1.949 . S
Zn231 O238 1.919 . S
Zn231 O243 1.924 . S
O232 Zn231 1.949 . S
O232 Zn233 1.923 . S
O232 Zn234 1.950 . S
O232 Zn235 1.945 . S
Zn233 O232 1.923 . S
Zn233 O236 1.933 . S
Zn233 O239 1.941 . S
Zn233 O240 1.965 . S
Zn234 O232 1.950 . S
Zn234 O241 1.938 . S
Zn234 O242 1.906 . S
Zn234 O252 1.953 . S
Zn235 O232 1.945 . S
Zn235 O237 1.932 . S
Zn235 O244 1.977 . S
Zn235 O245 1.910 . S
O236 Zn233 1.933 . S
O236 C247 1.226 . S
O237 Zn235 1.932 . S
O237 C247 1.307 . S
O238 Zn231 1.919 . S
O238 C249 1.253 . S
O239 Zn233 1.941 . S
O239 C249 1.283 . S
O240 Zn233 1.965 . S
O240 C248 1.303 . S
O241 Zn234 1.938 . S
O241 C248 1.247 . S
O242 Zn234 1.906 . S
O242 C250 1.304 . S
O243 Zn231 1.924 . S
O243 C251 1.311 . S
O244 Zn235 1.977 . S
O244 C250 1.272 . S
O245 Zn235 1.910 . S
O245 C251 1.231 . S
C246 O230 1.225 . S
C246 O252 1.298 . S
C247 O236 1.226 . S
C247 O237 1.307 . S
C248 O240 1.303 . S
C248 O241 1.247 . S
C249 O238 1.253 . S
C249 O239 1.283 . S
C250 O242 1.304 . S
C250 O244 1.272 . S
C251 O243 1.311 . S
C251 O245 1.231 . S
O252 Zn234 1.953 . S
O252 C246 1.298 . S
O253 Zn254 1.953 . S
O253 C269 1.225 . S
Zn254 O253 1.953 . S
Zn254 O255 1.949 . S
Zn254 O261 1.919 . S
Zn254 O266 1.924 . S
O255 Zn254 1.949 . S
O255 Zn256 1.923 . S
O255 Zn257 1.950 . S
O255 Zn258 1.945 . S
Zn256 O255 1.923 . S
Zn256 O259 1.933 . S
Zn256 O262 1.941 . S
Zn256 O263 1.965 . S
Zn257 O255 1.950 . S
Zn257 O264 1.938 . S
Zn257 O265 1.906 . S
Zn257 O275 1.953 . S
Zn258 O255 1.945 . S
Zn258 O260 1.932 . S
Zn258 O267 1.977 . S
Zn258 O268 1.910 . S
O259 Zn256 1.933 . S
O259 C270 1.226 . S
O260 Zn258 1.932 . S
O260 C270 1.307 . S
O261 Zn254 1.919 . S
O261 C272 1.253 . S
O262 Zn256 1.941 . S
O262 C272 1.283 . S
O263 Zn256 1.965 . S
O263 C271 1.303 . S
O264 Zn257 1.938 . S
O264 C271 1.247 . S
O265 Zn257 1.906 . S
O265 C273 1.304 . S
O266 Zn254 1.924 . S
O266 C274 1.311 . S
O267 Zn258 1.977 . S
O267 C273 1.272 . S
O268 Zn258 1.910 . S
O268 C274 1.231 . S
C269 O253 1.225 . S
C269 O275 1.298 . S
C270 O259 1.226 . S
C270 O260 1.307 . S
C271 O263 1.303 . S
C271 O264 1.247 . S
C272 O261 1.253 . S
C272 O262 1.283 . S
C273 O265 1.304 . S
C273 O267 1.272 . S
C274 O266 1.311 . S
C274 O268 1.231 . S
O275 Zn257 1.953 . S
O275 C269 1.298 . S
O276 Zn277 1.953 . S
O276 C292 1.225 . S
Zn277 O276 1.953 . S
Zn277 O278 1.949 . S
Zn277 O284 1.919 1_655 S
Zn277 O289 1.924 1_655 S
O278 Zn277 1.949 . S
O278 Zn279 1.923 . S
O278 Zn280 1.950 . S
O278 Zn281 1.945 . S
Zn279 O278 1.923 . S
Zn279 O282 1.933 . S
Zn279 O285 1.941 . S
Zn279 O286 1.965 . S
Zn280 O278 1.950 . S
Zn280 O287 1.938 . S
Zn280 O288 1.906 . S
Zn280 O298 1.953 . S
Zn281 O278 1.945 . S
Zn281 O283 1.932 . S
Zn281 O290 1.977 . S
Zn281 O291 1.910 . S
O282 Zn279 1.933 . S
O282 C293 1.226 . S
O283 Zn281 1.932 . S
O283 C293 1.307 . S
O284 Zn277 1.919 1_455 S
O284 C295 1.253 1_455 S
O285 Zn279 1.941 . S
O285 C295 1.283 . S
O286 Zn279 1.965 . S
O286 C294 1.303 . S
O287 Zn280 1.938 . S
O287 C294 1.247 . S
O288 Zn280 1.906 . S
O288 C296 1.304 . S
O289 Zn277 1.924 1_455 S
O289 C297 1.311 1_455 S
O290 Zn281 1.977 . S
O290 C296 1.272 . S
O291 Zn281 1.910 . S
O291 C297 1.231 . S
C292 O276 1.225 . S
C292 O298 1.298 . S
C293 O282 1.226 . S
C293 O283 1.307 . S
C294 O286 1.303 . S
C294 O287 1.247 . S
C295 O284 1.253 1_655 S
C295 O285 1.283 . S
C296 O288 1.304 . S
C296 O290 1.272 . S
C297 O289 1.311 1_655 S
C297 O291 1.231 . S
O298 Zn280 1.953 . S
O298 C292 1.298 . S
O299 Zn300 1.953 . S
O299 C315 1.225 . S
Zn300 O299 1.953 . S
Zn300 O301 1.949 . S
Zn300 O307 1.919 . S
Zn300 O312 1.924 . S
O301 Zn300 1.949 . S
O301 Zn302 1.923 . S
O301 Zn303 1.950 . S
O301 Zn304 1.945 . S
Zn302 O301 1.923 . S
Zn302 O305 1.933 . S
Zn302 O308 1.941 . S
Zn302 O309 1.965 . S
Zn303 O301 1.950 . S
Zn303 O310 1.938 . S
Zn303 O311 1.906 . S
Zn303 O321 1.953 . S
Zn304 O301 1.945 . S
Zn304 O306 1.932 . S
Zn304 O313 1.977 . S
Zn304 O314 1.910 . S
O305 Zn302 1.933 . S
O305 C316 1.226 . S
O306 Zn304 1.932 . S
O306 C316 1.307 . S
O307 Zn300 1.919 . S
O307 C318 1.253 . S
O308 Zn302 1.941 . S
O308 C318 1.283 . S
O309 Zn302 1.965 . S
O309 C317 1.303 . S
O310 Zn303 1.938 . S
O310 C317 1.247 . S
O311 Zn303 1.906 . S
O311 C319 1.304 . S
O312 Zn300 1.924 . S
O312 C320 1.311 . S
O313 Zn304 1.977 . S
O313 C319 1.272 . S
O314 Zn304 1.910 . S
O314 C320 1.231 . S
C315 O299 1.225 . S
C315 O321 1.298 . S
C316 O305 1.226 . S
C316 O306 1.307 . S
C317 O309 1.303 . S
C317 O310 1.247 . S
C318 O307 1.253 . S
C318 O308 1.283 . S
C319 O311 1.304 . S
C319 O313 1.272 . S
C320 O312 1.311 . S
C320 O314 1.231 . S
O321 Zn303 1.953 . S
O321 C315 1.298 . S
O322 Zn323 1.953 1_556 S
O322 C338 1.225 . S
Zn323 O322 1.953 1_554 S
Zn323 O324 1.949 . S
Zn323 O330 1.919 . S
Zn323 O335 1.924 . S
O324 Zn323 1.949 . S
O324 Zn325 1.923 . S
O324 Zn326 1.950 1_554 S
O324 Zn327 1.945 . S
Zn325 O324 1.923 . S
Zn325 O328 1.933 . S
Zn325 O331 1.941 1_554 S
Zn325 O332 1.965 1_554 S
Zn326 O324 1.950 1_556 S
Zn326 O333 1.938 . S
Zn326 O334 1.906 . S
Zn326 O344 1.953 . S
Zn327 O324 1.945 . S
Zn327 O329 1.932 . S
Zn327 O336 1.977 . S
Zn327 O337 1.910 . S
O328 Zn325 1.933 . S
O328 C339 1.226 . S
O329 Zn327 1.932 . S
O329 C339 1.307 . S
O330 Zn323 1.919 . S
O330 C341 1.253 . S
O331 Zn325 1.941 1_556 S
O331 C341 1.283 1_556 S
O332 Zn325 1.965 1_556 S
O332 C340 1.303 . S
O333 Zn326 1.938 . S
O333 C340 1.247 . S
O334 Zn326 1.906 . S
O334 C342 1.304 1_556 S
O335 Zn323 1.924 . S
O335 C343 1.311 . S
O336 Zn327 1.977 . S
O336 C342 1.272 . S
O337 Zn327 1.910 . S
O337 C343 1.231 . S
C338 O322 1.225 . S
C338 O344 1.298 . S
C339 O328 1.226 . S
C339 O329 1.307 . S
C340 O332 1.303 . S
C340 O333 1.247 . S
C341 O330 1.253 . S
C341 O331 1.283 1_554 S
C342 O334 1.304 1_554 S
C342 O336 1.272 . S
C343 O335 1.311 . S
C343 O337 1.231 . S
O344 Zn326 1.953 . S
O344 C338 1.298 . S
O345 Zn346 1.953 . S
O345 C361 1.225 . S
Zn346 O345 1.953 . S
Zn346 O347 1.949 . S
Zn346 O353 1.919 . S
Zn346 O358 1.924 . S
O347 Zn346 1.949 . S
O347 Zn348 1.923 . S
O347 Zn349 1.950 . S
O347 Zn350 1.945 . S
Zn348 O347 1.923 . S
Zn348 O351 1.933 . S
Zn348 O354 1.941 . S
Zn348 O355 1.965 . S
Zn349 O347 1.950 . S
Zn349 O356 1.938 . S
Zn349 O357 1.906 . S
Zn349 O367 1.953 . S
Zn350 O347 1.945 . S
Zn350 O352 1.932 1_556 S
Zn350 O359 1.977 . S
Zn350 O360 1.910 . S
O351 Zn348 1.933 . S
O351 C362 1.226 . S
O352 Zn350 1.932 1_554 S
O352 C362 1.307 1_554 S
O353 Zn346 1.919 . S
O353 C364 1.253 . S
O354 Zn348 1.941 . S
O354 C364 1.283 . S
O355 Zn348 1.965 . S
O355 C363 1.303 . S
O356 Zn349 1.938 . S
O356 C363 1.247 . S
O357 Zn349 1.906 . S
O357 C365 1.304 . S
O358 Zn346 1.924 . S
O358 C366 1.311 . S
O359 Zn350 1.977 . S
O359 C365 1.272 . S
O360 Zn350 1.910 . S
O360 C366 1.231 . S
C361 O345 1.225 . S
C361 O367 1.298 . S
C362 O351 1.226 . S
C362 O352 1.307 1_556 S
C363 O355 1.303 . S
C363 O356 1.247 . S
C364 O353 1.253 . S
C364 O354 1.283 . S
C365 O357 1.304 . S
C365 O359 1.272 . S
C366 O358 1.311 . S
C366 O360 1.231 . S
O367 Zn349 1.953 . S
O367 C361 1.298 . S
O368 Zn369 1.953 . S
O368 C384 1.225 . S
Zn369 O368 1.953 . S
Zn369 O370 1.949 . S
Zn369 O376 1.919 1_565 S
Zn369 O381 1.924 1_565 S
O370 Zn369 1.949 . S
O370 Zn371 1.923 . S
O370 Zn372 1.950 . S
O370 Zn373 1.945 . S
Zn371 O370 1.923 . S
Zn371 O374 1.933 . S
Zn371 O377 1.941 . S
Zn371 O378 1.965 . S
Zn372 O370 1.950 . S
Zn372 O379 1.938 . S
Zn372 O380 1.906 . S
Zn372 O390 1.953 . S
Zn373 O370 1.945 . S
Zn373 O375 1.932 . S
Zn373 O382 1.977 . S
Zn373 O383 1.910 . S
O374 Zn371 1.933 . S
O374 C385 1.226 . S
O375 Zn373 1.932 . S
O375 C385 1.307 . S
O376 Zn369 1.919 1_545 S
O376 C387 1.253 1_545 S
O377 Zn371 1.941 . S
O377 C387 1.283 . S
O378 Zn371 1.965 . S
O378 C386 1.303 . S
O379 Zn372 1.938 . S
O379 C386 1.247 . S
O380 Zn372 1.906 . S
O380 C388 1.304 . S
O381 Zn369 1.924 1_545 S
O381 C389 1.311 1_545 S
O382 Zn373 1.977 . S
O382 C388 1.272 . S
O383 Zn373 1.910 . S
O383 C389 1.231 . S
C384 O368 1.225 . S
C384 O390 1.298 . S
C385 O374 1.226 . S
C385 O375 1.307 . S
C386 O378 1.303 . S
C386 O379 1.247 . S
C387 O376 1.253 1_565 S
C387 O377 1.283 . S
C388 O380 1.304 . S
C388 O382 1.272 . S
C389 O381 1.311 1_565 S
C389 O383 1.231 . S
O390 Zn372 1.953 . S
O390 C384 1.298 . S
O391 Zn392 1.953 . S
O391 C407 1.225 . S
Zn392 O391 1.953 . S
Zn392 O393 1.949 . S
Zn392 O399 1.919 . S
Zn392 O404 1.924 . S
O393 Zn392 1.949 . S
O393 Zn394 1.923 . S
O393 Zn395 1.950 . S
O393 Zn396 1.945 . S
Zn394 O393 1.923 . S
Zn394 O397 1.933 . S
Zn394 O400 1.941 . S
Zn394 O401 1.965 . S
Zn395 O393 1.950 . S
Zn395 O402 1.938 . S
Zn395 O403 1.906 . S
Zn395 O413 1.953 . S
Zn396 O393 1.945 . S
Zn396 O398 1.932 1_556 S
Zn396 O405 1.977 . S
Zn396 O406 1.910 . S
O397 Zn394 1.933 . S
O397 C408 1.226 . S
O398 Zn396 1.932 1_554 S
O398 C408 1.307 1_554 S
O399 Zn392 1.919 . S
O399 C410 1.253 . S
O400 Zn394 1.941 . S
O400 C410 1.283 . S
O401 Zn394 1.965 . S
O401 C409 1.303 . S
O402 Zn395 1.938 . S
O402 C409 1.247 . S
O403 Zn395 1.906 . S
O403 C411 1.304 . S
O404 Zn392 1.924 . S
O404 C412 1.311 . S
O405 Zn396 1.977 . S
O405 C411 1.272 . S
O406 Zn396 1.910 . S
O406 C412 1.231 . S
C407 O391 1.225 . S
C407 O413 1.298 . S
C408 O397 1.226 . S
C408 O398 1.307 1_556 S
C409 O401 1.303 . S
C409 O402 1.247 . S
C410 O399 1.253 . S
C410 O400 1.283 . S
C411 O403 1.304 . S
C411 O405 1.272 . S
C412 O404 1.311 . S
C412 O406 1.231 . S
O413 Zn395 1.953 . S
O413 C407 1.298 . S
O414 Zn415 1.953 1_556 S
O414 C430 1.225 . S
Zn415 O414 1.953 1_554 S
Zn415 O416 1.949 . S
Zn415 O422 1.919 1_545 S
Zn415 O427 1.924 1_545 S
O416 Zn415 1.949 . S
O416 Zn417 1.923 . S
O416 Zn418 1.950 1_554 S
O416 Zn419 1.945 . S
Zn417 O416 1.923 . S
Zn417 O420 1.933 1_655 S
Zn417 O423 1.941 1_654 S
Zn417 O424 1.965 1_554 S
Zn418 O416 1.950 1_556 S
Zn418 O425 1.938 . S
Zn418 O426 1.906 . S
Zn418 O436 1.953 . S
Zn419 O416 1.945 . S
Zn419 O421 1.932 . S
Zn419 O428 1.977 . S
Zn419 O429 1.910 . S
O420 Zn417 1.933 1_455 S
O420 C431 1.226 1_455 S
O421 Zn419 1.932 . S
O421 C431 1.307 . S
O422 Zn415 1.919 1_565 S
O422 C433 1.253 1_665 S
O423 Zn417 1.941 1_456 S
O423 C433 1.283 1_556 S
O424 Zn417 1.965 1_556 S
O424 C432 1.303 . S
O425 Zn418 1.938 . S
O425 C432 1.247 . S
O426 Zn418 1.906 . S
O426 C434 1.304 1_556 S
O427 Zn415 1.924 1_565 S
O427 C435 1.311 1_565 S
O428 Zn419 1.977 . S
O428 C434 1.272 . S
O429 Zn419 1.910 . S
O429 C435 1.231 . S
C430 O414 1.225 . S
C430 O436 1.298 . S
C431 O420 1.226 1_655 S
C431 O421 1.307 . S
C432 O424 1.303 . S
C432 O425 1.247 . S
C433 O422 1.253 1_445 S
C433 O423 1.283 1_554 S
C434 O426 1.304 1_554 S
C434 O428 1.272 . S
C435 O427 1.311 1_545 S
C435 O429 1.231 . S
O436 Zn418 1.953 . S
O436 C430 1.298 . S
O437 Zn438 1.953 . S
O437 C453 1.225 . S
Zn438 O437 1.953 . S
Zn438 O439 1.949 . S
Zn438 O445 1.919 . S
Zn438 O450 1.924 . S
O439 Zn438 1.949 . S
O439 Zn440 1.923 . S
O439 Zn441 1.950 . S
O439 Zn442 1.945 . S
Zn440 O439 1.923 . S
Zn440 O443 1.933 . S
Zn440 O446 1.941 . S
Zn440 O447 1.965 . S
Zn441 O439 1.950 . S
Zn441 O448 1.938 . S
Zn441 O449 1.906 . S
Zn441 O459 1.953 . S
Zn442 O439 1.945 . S
Zn442 O444 1.932 . S
Zn442 O451 1.977 . S
Zn442 O452 1.910 . S
O443 Zn440 1.933 . S
O443 C454 1.226 . S
O444 Zn442 1.932 . S
O444 C454 1.307 . S
O445 Zn438 1.919 . S
O445 C456 1.253 . S
O446 Zn440 1.941 . S
O446 C456 1.283 . S
O447 Zn440 1.965 . S
O447 C455 1.303 . S
O448 Zn441 1.938 . S
O448 C455 1.247 . S
O449 Zn441 1.906 . S
O449 C457 1.304 . S
O450 Zn438 1.924 . S
O450 C458 1.311 . S
O451 Zn442 1.977 . S
O451 C457 1.272 . S
O452 Zn442 1.910 . S
O452 C458 1.231 . S
C453 O437 1.225 . S
C453 O459 1.298 . S
C454 O443 1.226 . S
C454 O444 1.307 . S
C455 O447 1.303 . S
C455 O448 1.247 . S
C456 O445 1.253 . S
C456 O446 1.283 . S
C457 O449 1.304 . S
C457 O451 1.272 . S
C458 O450 1.311 . S
C458 O452 1.231 . S
O459 Zn441 1.953 . S
O459 C453 1.298 . S
O460 Zn461 1.953 . S
O460 C476 1.225 . S
Zn461 O460 1.953 . S
Zn461 O462 1.949 . S
Zn461 O468 1.919 1_545 S
Zn461 O473 1.924 1_544 S
O462 Zn461 1.949 . S
O462 Zn463 1.923 . S
O462 Zn464 1.950 . S
O462 Zn465 1.945 1_554 S
Zn463 O462 1.923 . S
Zn463 O466 1.933 1_554 S
Zn463 O469 1.941 . S
Zn463 O470 1.965 . S
Zn464 O462 1.950 . S
Zn464 O471 1.938 . S
Zn464 O472 1.906 . S
Zn464 O482 1.953 . S
Zn465 O462 1.945 1_556 S
Zn465 O467 1.932 . S
Zn465 O474 1.977 . S
Zn465 O475 1.910 . S
O466 Zn463 1.933 1_556 S
O466 C477 1.226 . S
O467 Zn465 1.932 . S
O467 C477 1.307 . S
O468 Zn461 1.919 1_565 S
O468 C479 1.253 1_565 S
O469 Zn463 1.941 . S
O469 C479 1.283 . S
O470 Zn463 1.965 . S
O470 C478 1.303 . S
O471 Zn464 1.938 . S
O471 C478 1.247 . S
O472 Zn464 1.906 . S
O472 C480 1.304 1_554 S
O473 Zn461 1.924 1_566 S
O473 C481 1.311 1_565 S
O474 Zn465 1.977 . S
O474 C480 1.272 . S
O475 Zn465 1.910 . S
O475 C481 1.231 . S
C476 O460 1.225 . S
C476 O482 1.298 . S
C477 O466 1.226 . S
C477 O467 1.307 . S
C478 O470 1.303 . S
C478 O471 1.247 . S
C479 O468 1.253 1_545 S
C479 O469 1.283 . S
C480 O472 1.304 1_556 S
C480 O474 1.272 . S
C481 O473 1.311 1_545 S
C481 O475 1.231 . S
O482 Zn464 1.953 . S
O482 C476 1.298 . S
O483 Zn484 1.953 . S
O483 C499 1.225 . S
Zn484 O483 1.953 . S
Zn484 O485 1.949 . S
Zn484 O491 1.919 . S
Zn484 O496 1.924 . S
O485 Zn484 1.949 . S
O485 Zn486 1.923 . S
O485 Zn487 1.950 . S
O485 Zn488 1.945 . S
Zn486 O485 1.923 . S
Zn486 O489 1.933 . S
Zn486 O492 1.941 . S
Zn486 O493 1.965 . S
Zn487 O485 1.950 . S
Zn487 O494 1.938 . S
Zn487 O495 1.906 . S
Zn487 O505 1.953 . S
Zn488 O485 1.945 . S
Zn488 O490 1.932 . S
Zn488 O497 1.977 . S
Zn488 O498 1.910 . S
O489 Zn486 1.933 . S
O489 C500 1.226 . S
O490 Zn488 1.932 . S
O490 C500 1.307 . S
O491 Zn484 1.919 . S
O491 C502 1.253 . S
O492 Zn486 1.941 . S
O492 C502 1.283 . S
O493 Zn486 1.965 . S
O493 C501 1.303 . S
O494 Zn487 1.938 . S
O494 C501 1.247 . S
O495 Zn487 1.906 . S
O495 C503 1.304 . S
O496 Zn484 1.924 . S
O496 C504 1.311 . S
O497 Zn488 1.977 . S
O497 C503 1.272 . S
O498 Zn488 1.910 . S
O498 C504 1.231 . S
C499 O483 1.225 . S
C499 O505 1.298 . S
C500 O489 1.226 . S
C500 O490 1.307 . S
C501 O493 1.303 . S
C501 O494 1.247 . S
C502 O491 1.253 . S
C502 O492 1.283 . S
C503 O495 1.304 . S
C503 O497 1.272 . S
C504 O496 1.311 . S
C504 O498 1.231 . S
O505 Zn487 1.953 . S
O505 C499 1.298 . S
O506 Zn507 1.953 . S
O506 C522 1.225 . S
Zn507 O506 1.953 . S
Zn507 O508 1.949 . S
Zn507 O514 1.919 1_565 S
Zn507 O519 1.924 1_565 S
O508 Zn507 1.949 . S
O508 Zn509 1.923 . S
O508 Zn510 1.950 . S
O508 Zn511 1.945 . S
Zn509 O508 1.923 . S
Zn509 O512 1.933 1_655 S
Zn509 O515 1.941 1_655 S
Zn509 O516 1.965 . S
Zn510 O508 1.950 . S
Zn510 O517 1.938 . S
Zn510 O518 1.906 . S
Zn510 O528 1.953 . S
Zn511 O508 1.945 . S
Zn511 O513 1.932 . S
Zn511 O520 1.977 . S
Zn511 O521 1.910 . S
O512 Zn509 1.933 1_455 S
O512 C523 1.226 1_455 S
O513 Zn511 1.932 . S
O513 C523 1.307 . S
O514 Zn507 1.919 1_545 S
O514 C525 1.253 1_645 S
O515 Zn509 1.941 1_455 S
O515 C525 1.283 . S
O516 Zn509 1.965 . S
O516 C524 1.303 . S
O517 Zn510 1.938 . S
O517 C524 1.247 . S
O518 Zn510 1.906 . S
O518 C526 1.304 . S
O519 Zn507 1.924 1_545 S
O519 C527 1.311 1_545 S
O520 Zn511 1.977 . S
O520 C526 1.272 . S
O521 Zn511 1.910 . S
O521 C527 1.231 . S
C522 O506 1.225 . S
C522 O528 1.298 . S
C523 O512 1.226 1_655 S
C523 O513 1.307 . S
C524 O516 1.303 . S
C524 O517 1.247 . S
C525 O514 1.253 1_465 S
C525 O515 1.283 . S
C526 O518 1.304 . S
C526 O520 1.272 . S
C527 O519 1.311 1_565 S
C527 O521 1.231 . S
O528 Zn510 1.953 . S
O528 C522 1.298 . S
O529 Zn530 1.953 . S
O529 C545 1.225 . S
Zn530 O529 1.953 . S
Zn530 O531 1.949 . S
Zn530 O537 1.919 . S
Zn530 O542 1.924 . S
O531 Zn530 1.949 . S
O531 Zn532 1.923 . S
O531 Zn533 1.950 . S
O531 Zn534 1.945 . S
Zn532 O531 1.923 . S
Zn532 O535 1.933 . S
Zn532 O538 1.941 . S
Zn532 O539 1.965 . S
Zn533 O531 1.950 . S
Zn533 O540 1.938 . S
Zn533 O541 1.906 . S
Zn533 O551 1.953 . S
Zn534 O531 1.945 . S
Zn534 O536 1.932 . S
Zn534 O543 1.977 . S
Zn534 O544 1.910 . S
O535 Zn532 1.933 . S
O535 C546 1.226 . S
O536 Zn534 1.932 . S
O536 C546 1.307 . S
O537 Zn530 1.919 . S
O537 C548 1.253 . S
O538 Zn532 1.941 . S
O538 C548 1.283 . S
O539 Zn532 1.965 . S
O539 C547 1.303 . S
O540 Zn533 1.938 . S
O540 C547 1.247 . S
O541 Zn533 1.906 . S
O541 C549 1.304 . S
O542 Zn530 1.924 . S
O542 C550 1.311 . S
O543 Zn534 1.977 . S
O543 C549 1.272 . S
O544 Zn534 1.910 . S
O544 C550 1.231 . S
C545 O529 1.225 . S
C545 O551 1.298 . S
C546 O535 1.226 . S
C546 O536 1.307 . S
C547 O539 1.303 . S
C547 O540 1.247 . S
C548 O537 1.253 . S
C548 O538 1.283 . S
C549 O541 1.304 . S
C549 O543 1.272 . S
C550 O542 1.311 . S
C550 O544 1.231 . S
O551 Zn533 1.953 . S
O551 C545 1.298 . S
O552 Zn553 1.953 . S
O552 C568 1.225 . S
Zn553 O552 1.953 . S
Zn553 O554 1.949 . S
Zn553 O560 1.919 . S
Zn553 O565 1.924 . S
O554 Zn553 1.949 . S
O554 Zn555 1.923 . S
O554 Zn556 1.950 . S
O554 Zn557 1.945 . S
Zn555 O554 1.923 . S
Zn555 O558 1.933 1_545 S
Zn555 O561 1.941 1_545 S
Zn555 O562 1.965 . S
Zn556 O554 1.950 . S
Zn556 O563 1.938 . S
Zn556 O564 1.906 . S
Zn556 O574 1.953 . S
Zn557 O554 1.945 . S
Zn557 O559 1.932 . S
Zn557 O566 1.977 . S
Zn557 O567 1.910 . S
O558 Zn555 1.933 1_565 S
O558 C569 1.226 1_565 S
O559 Zn557 1.932 . S
O559 C569 1.307 . S
O560 Zn553 1.919 . S
O560 C571 1.253 1_545 S
O561 Zn555 1.941 1_565 S
O561 C571 1.283 . S
O562 Zn555 1.965 . S
O562 C570 1.303 . S
O563 Zn556 1.938 . S
O563 C570 1.247 . S
O564 Zn556 1.906 . S
O564 C572 1.304 . S
O565 Zn553 1.924 . S
O565 C573 1.311 . S
O566 Zn557 1.977 . S
O566 C572 1.272 . S
O567 Zn557 1.910 . S
O567 C573 1.231 . S
C568 O552 1.225 . S
C568 O574 1.298 . S
C569 O558 1.226 1_545 S
C569 O559 1.307 . S
C570 O562 1.303 . S
C570 O563 1.247 . S
C571 O560 1.253 1_565 S
C571 O561 1.283 . S
C572 O564 1.304 . S
C572 O566 1.272 . S
C573 O565 1.311 . S
C573 O567 1.231 . S
O574 Zn556 1.953 . S
O574 C568 1.298 . S
O575 Zn576 1.953 . S
O575 C591 1.225 . S
Zn576 O575 1.953 . S
Zn576 O577 1.949 . S
Zn576 O583 1.919 . S
Zn576 O588 1.924 . S
O577 Zn576 1.949 . S
O577 Zn578 1.923 . S
O577 Zn579 1.950 . S
O577 Zn580 1.945 . S
Zn578 O577 1.923 . S
Zn578 O581 1.933 . S
Zn578 O584 1.941 . S
Zn578 O585 1.965 . S
Zn579 O577 1.950 . S
Zn579 O586 1.938 . S
Zn579 O587 1.906 . S
Zn579 O597 1.953 . S
Zn580 O577 1.945 . S
Zn580 O582 1.932 . S
Zn580 O589 1.977 . S
Zn580 O590 1.910 . S
O581 Zn578 1.933 . S
O581 C592 1.226 . S
O582 Zn580 1.932 . S
O582 C592 1.307 . S
O583 Zn576 1.919 . S
O583 C594 1.253 . S
O584 Zn578 1.941 . S
O584 C594 1.283 . S
O585 Zn578 1.965 . S
O585 C593 1.303 . S
O586 Zn579 1.938 . S
O586 C593 1.247 . S
O587 Zn579 1.906 . S
O587 C595 1.304 . S
O588 Zn576 1.924 . S
O588 C596 1.311 . S
O589 Zn580 1.977 . S
O589 C595 1.272 . S
O590 Zn580 1.910 . S
O590 C596 1.231 . S
C591 O575 1.225 . S
C591 O597 1.298 . S
C592 O581 1.226 . S
C592 O582 1.307 . S
C593 O585 1.303 . S
C593 O586 1.247 . S
C594 O583 1.253 . S
C594 O584 1.283 . S
C595 O587 1.304 . S
C595 O589 1.272 . S
C596 O588 1.311 . S
C596 O590 1.231 . S
O597 Zn579 1.953 . S
O597 C591 1.298 . S
O598 Zn599 1.953 . S
O598 C614 1.225 . S
Zn599 O598 1.953 . S
Zn599 O600 1.949 . S
Zn599 O606 1.919 1_455 S
Zn599 O611 1.924 1_454 S
O600 Zn599 1.949 . S
O600 Zn601 1.923 . S
O600 Zn602 1.950 . S
O600 Zn603 1.945 1_554 S
Zn601 O600 1.923 . S
Zn601 O604 1.933 1_564 S
Zn601 O607 1.941 1_565 S
Zn601 O608 1.965 . S
Zn602 O600 1.950 . S
Zn602 O609 1.938 . S
Zn602 O610 1.906 . S
Zn602 O620 1.953 . S
Zn603 O600 1.945 1_556 S
Zn603 O605 1.932 . S
Zn603 O612 1.977 . S
Zn603 O613 1.910 . S
O604 Zn601 1.933 1_546 S
O604 C615 1.226 1_545 S
O605 Zn603 1.932 . S
O605 C615 1.307 . S
O606 Zn599 1.919 1_655 S
O606 C617 1.253 1_665 S
O607 Zn601 1.941 1_545 S
O607 C617 1.283 . S
O608 Zn601 1.965 . S
O608 C616 1.303 . S
O609 Zn602 1.938 . S
O609 C616 1.247 . S
O610 Zn602 1.906 . S
O610 C618 1.304 1_554 S
O611 Zn599 1.924 1_656 S
O611 C619 1.311 1_655 S
O612 Zn603 1.977 . S
O612 C618 1.272 . S
O613 Zn603 1.910 . S
O613 C619 1.231 . S
C614 O598 1.225 . S
C614 O620 1.298 . S
C615 O604 1.226 1_565 S
C615 O605 1.307 . S
C616 O608 1.303 . S
C616 O609 1.247 . S
C617 O606 1.253 1_445 S
C617 O607 1.283 . S
C618 O610 1.304 1_556 S
C618 O612 1.272 . S
C619 O611 1.311 1_455 S
C619 O613 1.231 . S
O620 Zn602 1.953 . S
O620 C614 1.298 . S
O621 Zn622 1.953 . S
O621 C637 1.225 . S
Zn622 O621 1.953 . S
Zn622 O623 1.949 . S
Zn622 O629 1.919 . S
Zn622 O634 1.924 . S
O623 Zn622 1.949 . S
O623 Zn624 1.923 . S
O623 Zn625 1.950 . S
O623 Zn626 1.945 . S
Zn624 O623 1.923 . S
Zn624 O627 1.933 . S
Zn624 O630 1.941 . S
Zn624 O631 1.965 . S
Zn625 O623 1.950 . S
Zn625 O632 1.938 . S
Zn625 O633 1.906 . S
Zn625 O643 1.953 . S
Zn626 O623 1.945 . S
Zn626 O628 1.932 . S
Zn626 O635 1.977 . S
Zn626 O636 1.910 . S
O627 Zn624 1.933 . S
O627 C638 1.226 . S
O628 Zn626 1.932 . S
O628 C638 1.307 . S
O629 Zn622 1.919 . S
O629 C640 1.253 . S
O630 Zn624 1.941 . S
O630 C640 1.283 . S
O631 Zn624 1.965 . S
O631 C639 1.303 . S
O632 Zn625 1.938 . S
O632 C639 1.247 . S
O633 Zn625 1.906 . S
O633 C641 1.304 . S
O634 Zn622 1.924 . S
O634 C642 1.311 . S
O635 Zn626 1.977 . S
O635 C641 1.272 . S
O636 Zn626 1.910 . S
O636 C642 1.231 . S
C637 O621 1.225 . S
C637 O643 1.298 . S
C638 O627 1.226 . S
C638 O628 1.307 . S
C639 O631 1.303 . S
C639 O632 1.247 . S
C640 O629 1.253 . S
C640 O630 1.283 . S
C641 O633 1.304 . S
C641 O635 1.272 . S
C642 O634 1.311 . S
C642 O636 1.231 . S
O643 Zn625 1.953 . S
O643 C637 1.298 . S
O644 Zn645 1.953 1_556 S
O644 C660 1.225 . S
Zn645 O644 1.953 1_554 S
Zn645 O646 1.949 . S
Zn645 O652 1.919 . S
Zn645 O657 1.924 . S
O646 Zn645 1.949 . S
O646 Zn647 1.923 . S
O646 Zn648 1.950 1_554 S
O646 Zn649 1.945 . S
Zn647 O646 1.923 . S
Zn647 O650 1.933 1_565 S
Zn647 O653 1.941 1_564 S
Zn647 O654 1.965 1_554 S
Zn648 O646 1.950 1_556 S
Zn648 O655 1.938 . S
Zn648 O656 1.906 . S
Zn648 O666 1.953 . S
Zn649 O646 1.945 . S
Zn649 O651 1.932 . S
Zn649 O658 1.977 . S
Zn649 O659 1.910 . S
O650 Zn647 1.933 1_545 S
O650 C661 1.226 1_545 S
O651 Zn649 1.932 . S
O651 C661 1.307 . S
O652 Zn645 1.919 . S
O652 C663 1.253 1_565 S
O653 Zn647 1.941 1_546 S
O653 C663 1.283 1_556 S
O654 Zn647 1.965 1_556 S
O654 C662 1.303 . S
O655 Zn648 1.938 . S
O655 C662 1.247 . S
O656 Zn648 1.906 . S
O656 C664 1.304 1_556 S
O657 Zn645 1.924 . S
O657 C665 1.311 . S
O658 Zn649 1.977 . S
O658 C664 1.272 . S
O659 Zn649 1.910 . S
O659 C665 1.231 . S
C660 O644 1.225 . S
C660 O666 1.298 . S
C661 O650 1.226 1_565 S
C661 O651 1.307 . S
C662 O654 1.303 . S
C662 O655 1.247 . S
C663 O652 1.253 1_545 S
C663 O653 1.283 1_554 S
C664 O656 1.304 1_554 S
C664 O658 1.272 . S
C665 O657 1.311 . S
C665 O659 1.231 . S
O666 Zn648 1.953 . S
O666 C660 1.298 . S
O667 Zn668 1.953 . S
O667 C683 1.225 . S
Zn668 O667 1.953 . S
Zn668 O669 1.949 . S
Zn668 O675 1.919 . S
Zn668 O680 1.924 . S
O669 Zn668 1.949 . S
O669 Zn670 1.923 . S
O669 Zn671 1.950 . S
O669 Zn672 1.945 . S
Zn670 O669 1.923 . S
Zn670 O673 1.933 . S
Zn670 O676 1.941 . S
Zn670 O677 1.965 . S
Zn671 O669 1.950 . S
Zn671 O678 1.938 . S
Zn671 O679 1.906 . S
Zn671 O689 1.953 . S
Zn672 O669 1.945 . S
Zn672 O674 1.932 1_556 S
Zn672 O681 1.977 . S
Zn672 O682 1.910 . S
O673 Zn670 1.933 . S
O673 C684 1.226 . S
O674 Zn672 1.932 1_554 S
O674 C684 1.307 1_554 S
O675 Zn668 1.919 . S
O675 C686 1.253 . S
O676 Zn670 1.941 . S
O676 C686 1.283 . S
O677 Zn670 1.965 . S
O677 C685 1.303 . S
O678 Zn671 1.938 . S
O678 C685 1.247 . S
O679 Zn671 1.906 . S
O679 C687 1.304 . S
O680 Zn668 1.924 . S
O680 C688 1.311 . S
O681 Zn672 1.977 . S
O681 C687 1.272 . S
O682 Zn672 1.910 . S
O682 C688 1.231 . S
C683 O667 1.225 . S
C683 O689 1.298 . S
C684 O673 1.226 . S
C684 O674 1.307 1_556 S
C685 O677 1.303 . S
C685 O678 1.247 . S
C686 O675 1.253 . S
C686 O676 1.283 . S
C687 O679 1.304 . S
C687 O681 1.272 . S
C688 O680 1.311 . S
C688 O682 1.231 . S
O689 Zn671 1.953 . S
O689 C683 1.298 . S
O690 Zn691 1.953 . S
O690 C706 1.225 . S
Zn691 O690 1.953 . S
Zn691 O692 1.949 . S
Zn691 O698 1.919 1_455 S
Zn691 O703 1.924 1_455 S
O692 Zn691 1.949 . S
O692 Zn693 1.923 . S
O692 Zn694 1.950 . S
O692 Zn695 1.945 . S
Zn693 O692 1.923 . S
Zn693 O696 1.933 1_545 S
Zn693 O699 1.941 1_545 S
Zn693 O700 1.965 . S
Zn694 O692 1.950 . S
Zn694 O701 1.938 . S
Zn694 O702 1.906 . S
Zn694 O712 1.953 . S
Zn695 O692 1.945 . S
Zn695 O697 1.932 . S
Zn695 O704 1.977 . S
Zn695 O705 1.910 . S
O696 Zn693 1.933 1_565 S
O696 C707 1.226 1_565 S
O697 Zn695 1.932 . S
O697 C707 1.307 . S
O698 Zn691 1.919 1_655 S
O698 C709 1.253 1_645 S
O699 Zn693 1.941 1_565 S
O699 C709 1.283 . S
O700 Zn693 1.965 . S
O700 C708 1.303 . S
O701 Zn694 1.938 . S
O701 C708 1.247 . S
O702 Zn694 1.906 . S
O702 C710 1.304 . S
O703 Zn691 1.924 1_655 S
O703 C711 1.311 1_655 S
O704 Zn695 1.977 . S
O704 C710 1.272 . S
O705 Zn695 1.910 . S
O705 C711 1.231 . S
C706 O690 1.225 . S
C706 O712 1.298 . S
C707 O696 1.226 1_545 S
C707 O697 1.307 . S
C708 O700 1.303 . S
C708 O701 1.247 . S
C709 O698 1.253 1_465 S
C709 O699 1.283 . S
C710 O702 1.304 . S
C710 O704 1.272 . S
C711 O703 1.311 1_455 S
C711 O705 1.231 . S
O712 Zn694 1.953 . S
O712 C706 1.298 . S
O713 Zn714 1.953 . S
O713 C729 1.225 . S
Zn714 O713 1.953 . S
Zn714 O715 1.949 . S
Zn714 O721 1.919 . S
Zn714 O726 1.924 . S
O715 Zn714 1.949 . S
O715 Zn716 1.923 . S
O715 Zn717 1.950 . S
O715 Zn718 1.945 . S
Zn716 O715 1.923 . S
Zn716 O719 1.933 . S
Zn716 O722 1.941 . S
Zn716 O723 1.965 . S
Zn717 O715 1.950 . S
Zn717 O724 1.938 . S
Zn717 O725 1.906 . S
Zn717 O735 1.953 . S
Zn718 O715 1.945 . S
Zn718 O720 1.932 . S
Zn718 O727 1.977 . S
Zn718 O728 1.910 . S
O719 Zn716 1.933 . S
O719 C730 1.226 . S
O720 Zn718 1.932 . S
O720 C730 1.307 . S
O721 Zn714 1.919 . S
O721 C732 1.253 . S
O722 Zn716 1.941 . S
O722 C732 1.283 . S
O723 Zn716 1.965 . S
O723 C731 1.303 . S
O724 Zn717 1.938 . S
O724 C731 1.247 . S
O725 Zn717 1.906 . S
O725 C733 1.304 . S
O726 Zn714 1.924 . S
O726 C734 1.311 . S
O727 Zn718 1.977 . S
O727 C733 1.272 . S
O728 Zn718 1.910 . S
O728 C734 1.231 . S
C729 O713 1.225 . S
C729 O735 1.298 . S
C730 O719 1.226 . S
C730 O720 1.307 . S
C731 O723 1.303 . S
C731 O724 1.247 . S
C732 O721 1.253 . S
C732 O722 1.283 . S
C733 O725 1.304 . S
C733 O727 1.272 . S
C734 O726 1.311 . S
C734 O728 1.231 . S
O735 Zn717 1.953 . S
O735 C729 1.298 . S
C21 C113 1.763 . S
C136 C44 1.763 . S
C67 C159 1.763 . S
C182 C90 1.763 1_554 S
C201 C293 1.062 . S
C224 C316 1.062 . S
C339 C247 1.062 . S
C270 C362 1.062 1_554 S
C481 C389 1.763 1_545 S
C412 C504 1.763 1_556 S
C435 C527 1.763 1_545 S
C458 C550 1.763 . S
C569 C661 1.062 1_545 S
C684 C592 1.062 1_556 S
C615 C707 1.062 1_565 S
C730 C638 1.062 . S
C503 C20 1.426 . S
C526 C43 1.426 . S
C549 C66 1.426 . S
C89 C480 1.426 . S
C112 C457 1.426 . S
C388 C135 1.426 . S
C158 C411 1.426 . S
C181 C434 1.426 . S
C204 C687 1.447 . S
C710 C227 1.447 . S
C733 C250 1.447 . S
C273 C664 1.447 . S
C296 C641 1.447 . S
C319 C572 1.447 . S
C342 C595 1.447 . S
C365 C618 1.447 . S
C203 C19 0.188 . S
C42 C594 0.189 . S
C249 C65 0.188 . S
C88 C640 0.189 . S
C295 C111 0.188 . S
C686 C134 0.188 . S
C157 C341 0.188 . S
C180 C732 0.188 . S
C410 C226 0.189 . S
C456 C272 0.189 . S
C318 C502 0.188 . S
C548 C364 0.188 . S
C571 C387 0.188 . S
C617 C433 0.188 . S
C663 C479 0.188 . S
C525 C709 0.188 . S
C18 C297 1.869 1_455 S
C688 C41 1.869 1_556 S
C343 C64 1.869 . S
C87 C734 1.869 . S
C205 C110 1.869 1_655 S
C596 C133 1.869 1_554 S
C251 C156 1.869 . S
C642 C179 1.869 . S
C109 C200 1.579 1_455 S
C500 C223 1.579 1_554 S
C155 C246 1.579 . S
C269 C546 1.579 . S
C17 C292 1.579 1_455 S
C408 C315 1.579 1_556 S
C338 C63 1.579 . S
C361 C454 1.579 . S
C665 C386 1.869 . S
C320 C409 1.869 . S
C432 C711 1.869 1_655 S
C366 C455 1.869 1_556 S
C478 C573 1.869 . S
C501 C228 1.869 . S
C619 C524 1.869 1_455 S
C274 C547 1.869 1_554 S
C568 C477 1.579 . S
C591 C132 1.579 . S
C614 C523 1.579 1_455 S
C637 C178 1.579 1_556 S
C385 C660 1.579 . S
C40 C683 1.579 . S
C706 C431 1.579 1_455 S
C86 C729 1.579 1_556 S
C108 C16 2.049 . S
C131 C39 2.049 1_556 S
C62 C154 2.049 . S
C177 C85 2.049 . S
C294 C202 2.336 . S
C225 C317 2.336 1_556 S
C248 C340 2.336 . S
C363 C271 2.336 . S
C384 C476 2.049 1_565 S
C499 C407 2.049 . S
C430 C522 2.049 1_545 S
C453 C545 2.049 1_554 S
C662 C570 2.336 1_565 S
C685 C593 2.336 . S
C616 C708 2.336 1_565 S
C731 C639 2.336 1_554 S
