# Generated by pormake.
# Topology gsi, (4)-cn, num edge types: 1
# Building blocks:
#     Node 0, Type 0, BuildingBlock: TATPOV_clean_sbu_0, # of connection points: 4
#     Node 1, Type 0, BuildingBlock: TATPOV_clean_sbu_0, # of connection points: 4
#     Node 2, Type 0, BuildingBlock: TATPOV_clean_sbu_0, # of connection points: 4
#     Node 3, Type 0, BuildingBlock: TATPOV_clean_sbu_0, # of connection points: 4
#     Node 4, Type 0, BuildingBlock: TATPOV_clean_sbu_0, # of connection points: 4
#     Node 5, Type 0, BuildingBlock: TATPOV_clean_sbu_0, # of connection points: 4
#     Node 6, Type 0, BuildingBlock: TATPOV_clean_sbu_0, # of connection points: 4
#     Node 7, Type 0, BuildingBlock: TATPOV_clean_sbu_0, # of connection points: 4
#     Node 8, Type 0, BuildingBlock: TATPOV_clean_sbu_0, # of connection points: 4
#     Node 9, Type 0, BuildingBlock: TATPOV_clean_sbu_0, # of connection points: 4
#     Node 10, Type 0, BuildingBlock: TATPOV_clean_sbu_0, # of connection points: 4
#     Node 11, Type 0, BuildingBlock: TATPOV_clean_sbu_0, # of connection points: 4
#     Node 12, Type 0, BuildingBlock: TATPOV_clean_sbu_0, # of connection points: 4
#     Node 13, Type 0, BuildingBlock: TATPOV_clean_sbu_0, # of connection points: 4
#     Node 14, Type 0, BuildingBlock: TATPOV_clean_sbu_0, # of connection points: 4
#     Node 15, Type 0, BuildingBlock: TATPOV_clean_sbu_0, # of connection points: 4
#     Edge 16, Type (0, 0), BuildingBlock: XUDNAN_clean_linker_2, # of connection points: 2
#     Edge 17, Type (0, 0), BuildingBlock: XUDNAN_clean_linker_2, # of connection points: 2
#     Edge 18, Type (0, 0), BuildingBlock: XUDNAN_clean_linker_2, # of connection points: 2
#     Edge 19, Type (0, 0), BuildingBlock: XUDNAN_clean_linker_2, # of connection points: 2
#     Edge 20, Type (0, 0), BuildingBlock: XUDNAN_clean_linker_2, # of connection points: 2
#     Edge 21, Type (0, 0), BuildingBlock: XUDNAN_clean_linker_2, # of connection points: 2
#     Edge 22, Type (0, 0), BuildingBlock: XUDNAN_clean_linker_2, # of connection points: 2
#     Edge 23, Type (0, 0), BuildingBlock: XUDNAN_clean_linker_2, # of connection points: 2
#     Edge 24, Type (0, 0), BuildingBlock: XUDNAN_clean_linker_2, # of connection points: 2
#     Edge 25, Type (0, 0), BuildingBlock: XUDNAN_clean_linker_2, # of connection points: 2
#     Edge 26, Type (0, 0), BuildingBlock: XUDNAN_clean_linker_2, # of connection points: 2
#     Edge 27, Type (0, 0), BuildingBlock: XUDNAN_clean_linker_2, # of connection points: 2
#     Edge 28, Type (0, 0), BuildingBlock: XUDNAN_clean_linker_2, # of connection points: 2
#     Edge 29, Type (0, 0), BuildingBlock: XUDNAN_clean_linker_2, # of connection points: 2
#     Edge 30, Type (0, 0), BuildingBlock: XUDNAN_clean_linker_2, # of connection points: 2
#     Edge 31, Type (0, 0), BuildingBlock: XUDNAN_clean_linker_2, # of connection points: 2
#     Edge 32, Type (0, 0), BuildingBlock: XUDNAN_clean_linker_2, # of connection points: 2
#     Edge 33, Type (0, 0), BuildingBlock: XUDNAN_clean_linker_2, # of connection points: 2
#     Edge 34, Type (0, 0), BuildingBlock: XUDNAN_clean_linker_2, # of connection points: 2
#     Edge 35, Type (0, 0), BuildingBlock: XUDNAN_clean_linker_2, # of connection points: 2
#     Edge 36, Type (0, 0), BuildingBlock: XUDNAN_clean_linker_2, # of connection points: 2
#     Edge 37, Type (0, 0), BuildingBlock: XUDNAN_clean_linker_2, # of connection points: 2
#     Edge 38, Type (0, 0), BuildingBlock: XUDNAN_clean_linker_2, # of connection points: 2
#     Edge 39, Type (0, 0), BuildingBlock: XUDNAN_clean_linker_2, # of connection points: 2
#     Edge 40, Type (0, 0), BuildingBlock: XUDNAN_clean_linker_2, # of connection points: 2
#     Edge 41, Type (0, 0), BuildingBlock: XUDNAN_clean_linker_2, # of connection points: 2
#     Edge 42, Type (0, 0), BuildingBlock: XUDNAN_clean_linker_2, # of connection points: 2
#     Edge 43, Type (0, 0), BuildingBlock: XUDNAN_clean_linker_2, # of connection points: 2
#     Edge 44, Type (0, 0), BuildingBlock: XUDNAN_clean_linker_2, # of connection points: 2
#     Edge 45, Type (0, 0), BuildingBlock: XUDNAN_clean_linker_2, # of connection points: 2
#     Edge 46, Type (0, 0), BuildingBlock: XUDNAN_clean_linker_2, # of connection points: 2
#     Edge 47, Type (0, 0), BuildingBlock: XUDNAN_clean_linker_2, # of connection points: 2
# Relax obj value: 0.042
# Max RMSD: 0.070
# Mean RMSD: 0.054
data_MOF--net-gsi--node1-TATPOV_clean_sbu_0--edge1-XUDNAN_clean_linker_2
_symmetry_space_group_name_H-M    P1
_symmetry_Int_Tables_number       1
_symmetry_cell_setting            triclinic
loop_
_symmetry_equiv_pos_as_xyz
'x, y, z'
_cell_length_a     41.96519
_cell_length_b     41.967775
_cell_length_c     43.342848
_cell_angle_alpha  90.765819
_cell_angle_beta   90.442093
_cell_angle_gamma 92.312032
loop_
_atom_site_label
_atom_site_type_symbol
_atom_site_fract_x
_atom_site_fract_y
_atom_site_fract_z
_atom_type_partial_charge
Zn0 Zn 0.11384 0.13577 0.19462 0.0
Zn1 Zn 0.16242 0.13895 0.15406 0.0
O2 O 0.15497 0.09087 0.16328 0.0
O3 O 0.11484 0.08815 0.1957 0.0
O4 O 0.19853 0.14107 0.12302 0.0
O5 O 0.0861 0.15865 0.16497 0.0
O6 O 0.1271 0.16485 0.13383 0.0
C7 C 0.13605 0.07449 0.1804 0.0
C8 C 0.17034 0.17 0.21788 0.0
O9 O 0.18143 0.16274 0.19154 0.0
O10 O 0.14196 0.16163 0.22482 0.0
C11 C 0.19903 0.12272 0.09945 0.0
O12 O 0.17553 0.10144 0.0951 0.0
C13 C 0.09824 0.16995 0.14063 0.0
Zn14 Zn 0.92063 0.35083 0.211 0.0
Zn15 Zn 0.88843 0.36274 0.1566 0.0
O16 O 0.89426 0.4066 0.17812 0.0
O17 O 0.9193 0.39784 0.22189 0.0
O18 O 0.8611 0.37082 0.11888 0.0
O19 O 0.95528 0.33422 0.18297 0.0
O20 O 0.92838 0.3423 0.14 0.0
C21 C 0.90637 0.41689 0.20363 0.0
C22 C 0.86097 0.31597 0.20543 0.0
O23 O 0.86089 0.3305 0.17987 0.0
O24 O 0.88393 0.32062 0.22433 0.0
C25 C 0.83106 0.37242 0.12205 0.0
O26 O 0.81887 0.37015 0.14979 0.0
C27 C 0.95286 0.33228 0.15379 0.0
Zn28 Zn 0.24506 0.85908 0.33452 0.0
Zn29 Zn 0.18359 0.84364 0.34794 0.0
O30 O 0.20431 0.85725 0.39 0.0
O31 O 0.2544 0.86976 0.37918 0.0
O32 O 0.14074 0.82329 0.35969 0.0
O33 O 0.22652 0.89038 0.30499 0.0
O34 O 0.17621 0.87997 0.31728 0.0
C35 C 0.23228 0.86673 0.39873 0.0
C36 C 0.22874 0.79718 0.31431 0.0
O37 O 0.20212 0.80559 0.32499 0.0
O38 O 0.25317 0.81569 0.31699 0.0
C39 C 0.11245 0.83234 0.35568 0.0
O40 O 0.10788 0.85999 0.34286 0.0
C41 C 0.1971 0.89505 0.30119 0.0
Zn42 Zn 0.80279 0.63508 0.35323 0.0
Zn43 Zn 0.85805 0.66096 0.36576 0.0
O44 O 0.83748 0.65116 0.40908 0.0
O45 O 0.79551 0.62066 0.39621 0.0
O46 O 0.90201 0.68169 0.37511 0.0
O47 O 0.82085 0.60688 0.32084 0.0
O48 O 0.86879 0.62218 0.33768 0.0
C49 C 0.81321 0.63371 0.41689 0.0
C50 C 0.80621 0.69859 0.33418 0.0
O51 O 0.83556 0.6954 0.34059 0.0
O52 O 0.78584 0.67663 0.34032 0.0
C53 C 0.90776 0.71174 0.37454 0.0
O54 O 0.88418 0.7307 0.36952 0.0
C55 C 0.85078 0.60478 0.31992 0.0
Zn56 Zn 0.41127 0.84288 0.6927 0.0
Zn57 Zn 0.37936 0.86516 0.64254 0.0
O58 O 0.39548 0.90667 0.66464 0.0
O59 O 0.42245 0.88872 0.70432 0.0
O60 O 0.35447 0.87824 0.60484 0.0
O61 O 0.44017 0.8199 0.66381 0.0
O62 O 0.41284 0.83604 0.62366 0.0
C63 C 0.4124 0.91178 0.68894 0.0
C64 C 0.34417 0.82619 0.69271 0.0
O65 O 0.34529 0.84195 0.66784 0.0
O66 O 0.36949 0.82193 0.70798 0.0
C67 C 0.32567 0.88646 0.60656 0.0
O68 O 0.31255 0.88923 0.63383 0.0
C69 C 0.43544 0.82039 0.63495 0.0
Zn70 Zn 0.86422 0.82948 0.82362 0.0
Zn71 Zn 0.83611 0.84769 0.87277 0.0
O72 O 0.87487 0.82255 0.88983 0.0
O73 O 0.89256 0.80172 0.84661 0.0
O74 O 0.81189 0.86066 0.91129 0.0
O75 O 0.87862 0.87355 0.81233 0.0
O76 O 0.84649 0.88995 0.84869 0.0
C77 C 0.89354 0.80411 0.87567 0.0
C78 C 0.80022 0.80739 0.82281 0.0
O79 O 0.80161 0.81942 0.84998 0.0
O80 O 0.82417 0.81001 0.80537 0.0
C81 C 0.80127 0.83851 0.92873 0.0
O82 O 0.80772 0.80889 0.92181 0.0
C83 C 0.86486 0.89595 0.82588 0.0
Zn84 Zn 0.09711 0.68411 0.78488 0.0
Zn85 Zn 0.13672 0.66487 0.82737 0.0
O86 O 0.09879 0.68199 0.85264 0.0
O87 O 0.06312 0.69019 0.81639 0.0
O88 O 0.16616 0.6493 0.86087 0.0
O89 O 0.09926 0.64313 0.76123 0.0
O90 O 0.1276 0.62458 0.79953 0.0
C91 C 0.07084 0.6896 0.84463 0.0
C92 C 0.15602 0.72033 0.78499 0.0
O93 O 0.16347 0.7 0.80516 0.0
O94 O 0.12796 0.71993 0.77403 0.0
C95 C 0.1964 0.64995 0.85864 0.0
O96 O 0.20972 0.66079 0.83332 0.0
C97 C 0.11359 0.62049 0.77341 0.0
Zn98 Zn 0.76686 0.09603 0.65279 0.0
Zn99 Zn 0.82611 0.11827 0.63552 0.0
O100 O 0.83623 0.07956 0.66255 0.0
O101 O 0.78854 0.06292 0.678 0.0
O102 O 0.86921 0.13874 0.62447 0.0
O103 O 0.75604 0.08883 0.6075 0.0
O104 O 0.80262 0.11014 0.59381 0.0
C105 C 0.81858 0.06088 0.67874 0.0
C106 C 0.78168 0.15879 0.67549 0.0
O107 O 0.80764 0.15353 0.66171 0.0
O108 O 0.75879 0.13818 0.67436 0.0
C109 C 0.88573 0.15014 0.64706 0.0
O110 O 0.87494 0.14587 0.67515 0.0
C111 C 0.77517 0.09798 0.58663 0.0
Zn112 Zn 0.10766 0.33506 0.71148 0.0
Zn113 Zn 0.1334 0.34103 0.65684 0.0
O114 O 0.09322 0.31052 0.64783 0.0
O115 O 0.07151 0.30841 0.69386 0.0
O116 O 0.15489 0.34875 0.61539 0.0
O117 O 0.10487 0.38181 0.71817 0.0
O118 O 0.12452 0.38735 0.67151 0.0
C119 C 0.07105 0.3002 0.66567 0.0
C120 C 0.16977 0.31113 0.71057 0.0
O121 O 0.16898 0.32059 0.68274 0.0
O122 O 0.14576 0.31403 0.72767 0.0
C123 C 0.17415 0.32947 0.60348 0.0
O124 O 0.17907 0.30248 0.61742 0.0
C125 C 0.11411 0.39959 0.69643 0.0
Zn126 Zn 0.60667 0.18911 0.294 0.0
Zn127 Zn 0.6402 0.16149 0.33684 0.0
O128 O 0.60941 0.18955 0.3619 0.0
O129 O 0.58501 0.21564 0.32546 0.0
O130 O 0.66351 0.13895 0.37078 0.0
O131 O 0.58816 0.14754 0.27756 0.0
O132 O 0.6196 0.12423 0.3105 0.0
C133 C 0.58994 0.21046 0.35373 0.0
C134 C 0.67381 0.20115 0.28722 0.0
O135 O 0.67574 0.18595 0.31243 0.0
O136 O 0.64694 0.20526 0.27481 0.0
C137 C 0.68662 0.152 0.38613 0.0
O138 O 0.69673 0.18105 0.37922 0.0
C139 C 0.59966 0.12244 0.28806 0.0
Zn140 Zn 0.58558 0.63686 0.68653 0.0
Zn141 Zn 0.63789 0.6359 0.65061 0.0
O142 O 0.63191 0.5896 0.66672 0.0
O143 O 0.58745 0.59005 0.69351 0.0
O144 O 0.67672 0.63592 0.62286 0.0
O145 O 0.55979 0.65308 0.65149 0.0
O146 O 0.60337 0.65612 0.62348 0.0
C147 C 0.61091 0.57526 0.68328 0.0
C148 C 0.63874 0.67654 0.7096 0.0
O149 O 0.65215 0.66603 0.68547 0.0
O150 O 0.61016 0.66794 0.71553 0.0
C151 C 0.67771 0.6187 0.59854 0.0
O152 O 0.65315 0.59945 0.59159 0.0
C153 C 0.57372 0.66063 0.62673 0.0
Zn154 Zn 0.73801 0.39066 0.85416 0.0
Zn155 Zn 0.68465 0.35516 0.86421 0.0
O156 O 0.70449 0.36581 0.90746 0.0
O157 O 0.74789 0.39563 0.89935 0.0
O158 O 0.6431 0.33155 0.87515 0.0
O159 O 0.71321 0.42221 0.83015 0.0
O160 O 0.66979 0.39213 0.83741 0.0
C161 C 0.72911 0.38147 0.91782 0.0
C162 C 0.73803 0.32752 0.82636 0.0
O163 O 0.71025 0.32407 0.83793 0.0
O164 O 0.75441 0.35321 0.83079 0.0
C165 C 0.62863 0.30987 0.85894 0.0
O166 O 0.64108 0.3008 0.83269 0.0
C167 C 0.68373 0.41643 0.82534 0.0
Zn168 Zn 0.31851 0.12261 0.84898 0.0
Zn169 Zn 0.37221 0.15401 0.85971 0.0
O170 O 0.35275 0.14608 0.90375 0.0
O171 O 0.31152 0.11353 0.89349 0.0
O172 O 0.41479 0.1778 0.86691 0.0
O173 O 0.33891 0.09174 0.8206 0.0
O174 O 0.38521 0.11461 0.8338 0.0
C175 C 0.32899 0.12876 0.91299 0.0
C176 C 0.3182 0.18536 0.82539 0.0
O177 O 0.34744 0.18584 0.83357 0.0
O178 O 0.29999 0.16148 0.83117 0.0
C179 C 0.41921 0.19979 0.88714 0.0
O180 O 0.39553 0.20705 0.90524 0.0
C181 C 0.36898 0.09319 0.81869 0.0
Zn182 Zn 0.38863 0.34136 0.32328 0.0
Zn183 Zn 0.35493 0.35975 0.37175 0.0
O184 O 0.39685 0.34378 0.39181 0.0
O185 O 0.42436 0.33046 0.35077 0.0
O186 O 0.32718 0.37088 0.40843 0.0
O187 O 0.38848 0.38473 0.30566 0.0
O188 O 0.3585 0.40057 0.34418 0.0
C189 C 0.42209 0.33332 0.37972 0.0
C190 C 0.32973 0.30619 0.32751 0.0
O191 O 0.32709 0.32414 0.35118 0.0
O192 O 0.35448 0.30852 0.31106 0.0
C193 C 0.31968 0.34821 0.42661 0.0
O194 O 0.33144 0.32009 0.42147 0.0
C195 C 0.3731 0.40618 0.31889 0.0
Zn196 Zn 0.27007 0.57718 0.12109 0.0
Zn197 Zn 0.32488 0.61337 0.1181 0.0
O198 O 0.33807 0.57458 0.14306 0.0
O199 O 0.29403 0.54429 0.14488 0.0
O200 O 0.3656 0.64064 0.11408 0.0
O201 O 0.26519 0.5777 0.07459 0.0
O202 O 0.30947 0.60752 0.07288 0.0
C203 C 0.32296 0.54968 0.15261 0.0
C204 C 0.26797 0.63676 0.15463 0.0
O205 O 0.29643 0.64063 0.14492 0.0
O206 O 0.25126 0.61209 0.14686 0.0
C207 C 0.37868 0.65331 0.13805 0.0
O208 O 0.36571 0.64779 0.16506 0.0
C209 C 0.28572 0.59351 0.05917 0.0
Zn210 Zn 0.59544 0.83948 0.21762 0.0
Zn211 Zn 0.62189 0.84876 0.16386 0.0
O212 O 0.58337 0.81666 0.15354 0.0
O213 O 0.56114 0.81113 0.19908 0.0
O214 O 0.64433 0.85689 0.12291 0.0
O215 O 0.58958 0.88564 0.22479 0.0
O216 O 0.60959 0.89425 0.17862 0.0
C217 C 0.56147 0.80437 0.17056 0.0
C218 C 0.65911 0.82059 0.2183 0.0
O219 O 0.65815 0.83034 0.19056 0.0
O220 O 0.63443 0.82116 0.23479 0.0
C221 C 0.66084 0.83563 0.11017 0.0
O222 O 0.66199 0.80753 0.12306 0.0
C223 C 0.59781 0.90471 0.20372 0.0
H224 H 0.23226 0.19145 0.21069 0.0
H225 H 0.15401 0.1907 0.27574 0.0
H226 H 0.18743 0.22303 0.31246 0.0
H227 H 0.29613 0.18665 0.26742 0.0
H228 H 0.32281 0.21296 0.24636 0.0
H229 H 0.29322 0.18834 0.22596 0.0
H230 H 0.27114 0.23855 0.20045 0.0
H231 H 0.30064 0.26329 0.22071 0.0
H232 H 0.25894 0.27116 0.22452 0.0
H233 H 0.22858 0.25782 0.34091 0.0
H234 H 0.27422 0.29257 0.35867 0.0
H235 H 0.32514 0.26966 0.27489 0.0
C236 C 0.22216 0.19782 0.23274 0.0
C237 C 0.19052 0.18851 0.24034 0.0
C238 C 0.17822 0.19752 0.26941 0.0
C239 C 0.19702 0.21582 0.29045 0.0
C240 C 0.22806 0.22475 0.28211 0.0
C241 C 0.24055 0.21598 0.25398 0.0
C242 C 0.27416 0.22955 0.2501 0.0
C243 C 0.29798 0.20278 0.24731 0.0
C244 C 0.27633 0.25197 0.22231 0.0
C245 C 0.27848 0.24774 0.28026 0.0
C246 C 0.25173 0.24458 0.29851 0.0
C247 C 0.24978 0.26026 0.32693 0.0
C248 C 0.27579 0.27996 0.3368 0.0
C249 C 0.30328 0.28376 0.31821 0.0
C250 C 0.30462 0.26708 0.28977 0.0
H251 H 0.84212 0.29299 0.26221 0.0
H252 H 0.81833 0.28921 0.16444 0.0
H253 H 0.77109 0.25489 0.17523 0.0
H254 H 0.81304 0.21034 0.28001 0.0
H255 H 0.79709 0.2219 0.31681 0.0
H256 H 0.83144 0.24333 0.30152 0.0
H257 H 0.80209 0.29626 0.30646 0.0
H258 H 0.7677 0.27503 0.32168 0.0
H259 H 0.76366 0.29952 0.28814 0.0
H260 H 0.72466 0.226 0.19574 0.0
H261 H 0.67983 0.20352 0.22554 0.0
H262 H 0.73184 0.22453 0.31087 0.0
C263 C 0.82727 0.28437 0.24308 0.0
C264 C 0.83398 0.29367 0.21247 0.0
C265 C 0.81368 0.28245 0.18807 0.0
C266 C 0.78686 0.26278 0.19392 0.0
C267 C 0.7806 0.25447 0.22428 0.0
C268 C 0.80009 0.26476 0.24855 0.0
C269 C 0.78623 0.2541 0.27919 0.0
C270 C 0.80827 0.23104 0.29534 0.0
C271 C 0.77952 0.28295 0.30009 0.0
C272 C 0.75551 0.23705 0.26826 0.0
C273 C 0.75315 0.23738 0.23643 0.0
C274 C 0.72634 0.22517 0.22065 0.0
C275 C 0.70095 0.21263 0.23781 0.0
C276 C 0.70246 0.21229 0.27045 0.0
C277 C 0.73035 0.2241 0.28591 0.0
H278 H 0.29998 0.68752 0.18299 0.0
H279 H 0.20803 0.6361 0.17917 0.0
H280 H 0.18909 0.66961 0.22187 0.0
H281 H 0.30462 0.696 0.26482 0.0
H282 H 0.32289 0.7356 0.26433 0.0
H283 H 0.32923 0.70821 0.23282 0.0
H284 H 0.30823 0.74892 0.19392 0.0
H285 H 0.30238 0.77667 0.22521 0.0
H286 H 0.26959 0.7652 0.19977 0.0
H287 H 0.18042 0.70789 0.26553 0.0
H288 H 0.18105 0.75167 0.30412 0.0
H289 H 0.27886 0.77747 0.27974 0.0
C290 C 0.27572 0.68352 0.19084 0.0
C291 C 0.25549 0.65919 0.17769 0.0
C292 C 0.22398 0.65463 0.18883 0.0
C293 C 0.21303 0.67342 0.21319 0.0
C294 C 0.23387 0.69661 0.22615 0.0
C295 C 0.26442 0.70197 0.21517 0.0
C296 C 0.28195 0.72859 0.233 0.0
C297 C 0.31141 0.71635 0.24973 0.0
C298 C 0.29106 0.7565 0.21171 0.0
C299 C 0.25639 0.73746 0.25563 0.0
C300 C 0.22892 0.7186 0.25142 0.0
C301 C 0.2018 0.72282 0.26909 0.0
C302 C 0.20244 0.74766 0.29104 0.0
C303 C 0.23002 0.76797 0.29503 0.0
C304 C 0.25752 0.76221 0.27751 0.0
H305 H 0.75336 0.7307 0.34577 0.0
H306 H 0.83352 0.72694 0.28379 0.0
H307 H 0.80703 0.76383 0.24837 0.0
H308 H 0.69535 0.72586 0.29274 0.0
H309 H 0.66878 0.75298 0.31088 0.0
H310 H 0.6967 0.73223 0.33397 0.0
H311 H 0.72044 0.78581 0.35618 0.0
H312 H 0.69201 0.80687 0.33363 0.0
H313 H 0.73406 0.81658 0.33022 0.0
H314 H 0.76633 0.79255 0.21553 0.0
H315 H 0.71824 0.81451 0.19132 0.0
H316 H 0.66668 0.7996 0.27669 0.0
C317 C 0.76584 0.73872 0.32532 0.0
C318 C 0.79538 0.72638 0.31742 0.0
C319 C 0.81102 0.73674 0.29034 0.0
C320 C 0.79608 0.75751 0.27009 0.0
C321 C 0.76599 0.76808 0.27782 0.0
C322 C 0.75152 0.75963 0.30529 0.0
C323 C 0.71822 0.77165 0.30737 0.0
C324 C 0.69333 0.74403 0.31146 0.0
C325 C 0.71607 0.79673 0.33339 0.0
C326 C 0.71536 0.7866 0.27609 0.0
C327 C 0.74312 0.78478 0.25934 0.0
C328 C 0.74474 0.79477 0.22875 0.0
C329 C 0.7173 0.807 0.21512 0.0
C330 C 0.6887 0.80883 0.2321 0.0
C331 C 0.68814 0.79878 0.26303 0.0
H332 H 0.33165 0.78235 0.73847 0.0
H333 H 0.28567 0.84392 0.67336 0.0
H334 H 0.2332 0.8265 0.6932 0.0
H335 H 0.27378 0.71764 0.73116 0.0
H336 H 0.27552 0.7069 0.77125 0.0
H337 H 0.30987 0.72556 0.75327 0.0
H338 H 0.31129 0.77001 0.79539 0.0
H339 H 0.27674 0.75158 0.81334 0.0
H340 H 0.27632 0.79269 0.80186 0.0
H341 H 0.18599 0.80246 0.71887 0.0
H342 H 0.14585 0.76931 0.74597 0.0
H343 H 0.2213 0.72159 0.79399 0.0
C344 C 0.31053 0.79226 0.72853 0.0
C345 C 0.31283 0.81463 0.70443 0.0
C346 C 0.2846 0.82676 0.69178 0.0
C347 C 0.25464 0.81716 0.70302 0.0
C348 C 0.2532 0.79527 0.72682 0.0
C349 C 0.28027 0.78266 0.73928 0.0
C350 C 0.27167 0.7581 0.76355 0.0
C351 C 0.2834 0.72509 0.75423 0.0
C352 C 0.28479 0.76875 0.79542 0.0
C353 C 0.23556 0.75873 0.76245 0.0
C354 C 0.22557 0.78068 0.74136 0.0
C355 C 0.19345 0.78521 0.73551 0.0
C356 C 0.17083 0.76623 0.75107 0.0
C357 C 0.18037 0.74278 0.77211 0.0
C358 C 0.21323 0.73947 0.77826 0.0
H359 H 0.69888 0.70197 0.70153 0.0
H360 H 0.6202 0.69995 0.76604 0.0
H361 H 0.65232 0.7345 0.80221 0.0
H362 H 0.76082 0.69785 0.75689 0.0
H363 H 0.78796 0.72424 0.73645 0.0
H364 H 0.75818 0.7005 0.71547 0.0
H365 H 0.7368 0.75158 0.691 0.0
H366 H 0.76659 0.77549 0.71184 0.0
H367 H 0.72501 0.78389 0.71568 0.0
H368 H 0.69464 0.76794 0.83216 0.0
H369 H 0.74266 0.79791 0.85232 0.0
H370 H 0.79207 0.77727 0.76714 0.0
C371 C 0.68822 0.70887 0.72317 0.0
C372 C 0.65703 0.69823 0.73096 0.0
C373 C 0.64406 0.70787 0.75955 0.0
C374 C 0.66212 0.72746 0.78025 0.0
C375 C 0.69296 0.73725 0.77188 0.0
C376 C 0.70576 0.72835 0.74393 0.0
C377 C 0.73953 0.74148 0.74041 0.0
C378 C 0.76299 0.7144 0.73713 0.0
C379 C 0.74211 0.76448 0.71312 0.0
C380 C 0.74393 0.75898 0.77088 0.0
C381 C 0.7169 0.7564 0.78881 0.0
C382 C 0.71587 0.77025 0.81822 0.0
C383 C 0.74323 0.78717 0.82949 0.0
C384 C 0.77109 0.79001 0.8113 0.0
C385 C 0.77117 0.77572 0.78164 0.0
H386 H 0.70676 0.27358 0.80211 0.0
H387 H 0.79796 0.32653 0.80282 0.0
H388 H 0.81801 0.2899 0.7635 0.0
H389 H 0.73965 0.19473 0.79159 0.0
H390 H 0.70745 0.1805 0.76662 0.0
H391 H 0.70046 0.21025 0.79587 0.0
H392 H 0.67872 0.24733 0.75399 0.0
H393 H 0.68608 0.2179 0.72455 0.0
H394 H 0.70332 0.25775 0.72143 0.0
H395 H 0.82763 0.25002 0.72257 0.0
H396 H 0.82814 0.20525 0.6854 0.0
H397 H 0.73122 0.17701 0.71107 0.0
C398 C 0.73109 0.27716 0.79433 0.0
C399 C 0.75073 0.30301 0.80553 0.0
C400 C 0.78238 0.30699 0.79457 0.0
C401 C 0.79403 0.28636 0.77216 0.0
C402 C 0.77383 0.26173 0.76099 0.0
C403 C 0.74321 0.25668 0.77191 0.0
C404 C 0.72658 0.22832 0.75573 0.0
C405 C 0.71804 0.20188 0.77883 0.0
C406 C 0.69692 0.23845 0.73787 0.0
C407 C 0.75264 0.21846 0.73398 0.0
C408 C 0.77958 0.23823 0.73735 0.0
C409 C 0.80676 0.23421 0.71978 0.0
C410 C 0.80673 0.20877 0.69861 0.0
C411 C 0.77973 0.18756 0.6953 0.0
C412 C 0.7522 0.19283 0.71299 0.0
H413 H 0.17332 0.27952 0.76449 0.0
H414 H 0.23063 0.30986 0.68647 0.0
H415 H 0.27783 0.28587 0.71045 0.0
H416 H 0.23393 0.29173 0.82396 0.0
H417 H 0.2205 0.25676 0.84462 0.0
H418 H 0.1925 0.2786 0.82233 0.0
H419 H 0.17582 0.22709 0.7915 0.0
H420 H 0.20343 0.20509 0.8139 0.0
H421 H 0.20598 0.20483 0.7724 0.0
H422 H 0.31843 0.25645 0.74349 0.0
H423 H 0.34596 0.21984 0.77854 0.0
H424 H 0.2599 0.20874 0.83254 0.0
C425 C 0.19582 0.28152 0.75244 0.0
C426 C 0.19837 0.29677 0.72371 0.0
C427 C 0.22818 0.29831 0.70857 0.0
C428 C 0.25511 0.28496 0.72212 0.0
C429 C 0.25165 0.27023 0.75068 0.0
C430 C 0.22256 0.26829 0.76541 0.0
C431 C 0.22398 0.24937 0.79468 0.0
C432 C 0.21734 0.27038 0.82307 0.0
C433 C 0.20096 0.21985 0.79299 0.0
C434 C 0.25831 0.24021 0.79398 0.0
C435 C 0.27426 0.2529 0.76887 0.0
C436 C 0.30616 0.2466 0.76328 0.0
C437 C 0.32166 0.22601 0.78334 0.0
C438 C 0.30491 0.21169 0.80811 0.0
C439 C 0.2732 0.21953 0.81378 0.0
H440 H 0.14434 0.93224 0.29716 0.0
H441 H 0.22939 0.90579 0.24831 0.0
H442 H 0.21695 0.94266 0.20671 0.0
H443 H 0.09378 0.94668 0.22722 0.0
H444 H 0.07624 0.98087 0.24486 0.0
H445 H 0.08848 0.94839 0.26844 0.0
H446 H 0.12403 0.98774 0.30159 0.0
H447 H 0.11167 0.02021 0.27832 0.0
H448 H 0.15351 0.0131 0.2829 0.0
H449 H 0.19959 0.98635 0.17363 0.0
H450 H 0.18075 0.03714 0.1538 0.0
H451 H 0.1071 0.03642 0.22365 0.0
C452 C 0.15984 0.93375 0.27733 0.0
C453 C 0.18775 0.91613 0.27591 0.0
C454 C 0.20793 0.9192 0.24995 0.0
C455 C 0.20091 0.93984 0.226 0.0
C456 C 0.1736 0.95736 0.22825 0.0
C457 C 0.1534 0.95471 0.25327 0.0
C458 C 0.12785 0.97915 0.25172 0.0
C459 C 0.09461 0.96278 0.24782 0.0
C460 C 0.12939 0.00136 0.28032 0.0
C461 C 0.13774 -0.0033 0.22271 0.0
C462 C 0.16372 0.98323 0.20913 0.0
C463 C 0.17888 -0.00315 0.18369 0.0
C464 C 0.16799 0.02572 0.17254 0.0
C465 C 0.14238 0.04078 0.18703 0.0
C466 C 0.1264 0.02532 0.21169 0.0
H467 H 0.92411 0.44528 0.25894 0.0
H468 H 0.87961 0.46438 0.17066 0.0
H469 H 0.86734 0.51822 0.18931 0.0
H470 H 0.86834 0.48021 0.30415 0.0
H471 H 0.8957 0.49691 0.33289 0.0
H472 H 0.90585 0.462 0.3112 0.0
H473 H 0.95823 0.49067 0.29343 0.0
H474 H 0.94832 0.52573 0.31525 0.0
H475 H 0.95666 0.52864 0.27463 0.0
H476 H 0.85226 0.56562 0.21959 0.0
H477 H 0.83692 0.60474 0.25924 0.0
H478 H 0.89252 0.55668 0.32778 0.0
C479 C 0.91258 0.46108 0.24319 0.0
C480 C 0.90292 0.45059 0.21325 0.0
C481 C 0.88738 0.47186 0.19361 0.0
C482 C 0.88038 0.50255 0.20398 0.0
C483 C 0.88939 0.51176 0.23391 0.0
C484 C 0.90546 0.49182 0.25317 0.0
C485 C 0.90986 0.50648 0.2852 0.0
C486 C 0.89398 0.48513 0.30979 0.0
C487 C 0.94538 0.51329 0.29255 0.0
C488 C 0.89252 0.53716 0.28132 0.0
C489 C 0.88122 0.53982 0.2514 0.0
C490 C 0.86166 0.56426 0.24284 0.0
C491 C 0.85301 0.58627 0.26548 0.0
C492 C 0.86409 0.58388 0.29623 0.0
C493 C 0.88462 0.55946 0.30416 0.0
H494 H 0.28251 0.09069 0.93876 0.0
H495 H 0.35166 0.16732 0.96123 0.0
H496 H 0.32841 0.17174 0.01347 0.0
H497 H 0.21792 0.12449 0.97352 0.0
H498 H 0.20007 0.08751 0.98702 0.0
H499 H 0.22479 0.0876 0.95332 0.0
H500 H 0.26105 0.04639 0.97832 0.0
H501 H 0.23621 0.04589 0.01205 0.0
H502 H 0.27845 0.05478 0.01587 0.0
H503 H 0.29331 0.17111 0.06158 0.0
H504 H 0.25139 0.16445 0.10108 0.0
H505 H 0.20552 0.08859 0.04569 0.0
C506 C 0.29335 0.108 0.9548 0.0
C507 C 0.31906 0.1286 0.94585 0.0
C508 C 0.33219 0.15107 0.9676 0.0
C509 C 0.31905 0.1538 0.99729 0.0
C510 C 0.29297 0.13374 0.00491 0.0
C511 C 0.28054 0.11106 0.98428 0.0
C512 C 0.25126 0.09373 0.997 0.0
C513 C 0.22178 0.09864 0.9765 0.0
C514 C 0.25711 0.05809 1.00106 0.0
C515 C 0.24857 0.11062 0.02783 0.0
C516 C 0.27292 0.13348 0.03218 0.0
C517 C 0.27441 0.15301 0.05849 0.0
C518 C 0.25041 0.1491 0.08078 0.0
C519 C 0.22513 0.12593 0.07658 0.0
C520 C 0.22455 0.10638 0.04979 0.0
H521 H 0.84751 0.38796 0.06265 0.0
H522 H 0.76635 0.36206 0.11991 0.0
H523 H 0.73081 0.36351 0.07435 0.0
H524 H 0.80553 0.44271 0.01353 0.0
H525 H 0.82676 0.43142 0.97935 0.0
H526 H 0.84565 0.42919 0.01669 0.0
H527 H 0.85629 0.36956 0.00653 0.0
H528 H 0.83744 0.37161 0.9692 0.0
H529 H 0.8234 0.34231 0.99649 0.0
H530 H 0.70461 0.36412 0.02165 0.0
H531 H 0.68964 0.36678 0.96638 0.0
H532 H 0.78743 0.39488 0.9444 0.0
C533 C 0.82224 0.38279 0.06564 0.0
C534 C 0.80974 0.37486 0.09485 0.0
C535 C 0.7765 0.36833 0.09779 0.0
C536 C 0.75609 0.36903 0.07204 0.0
C537 C 0.7692 0.3767 0.04354 0.0
C538 C 0.80146 0.38378 0.04026 0.0
C539 C 0.80955 0.3911 0.00706 0.0
C540 C 0.82264 0.42566 1.00399 0.0
C541 C 0.83305 0.36722 0.99406 0.0
C542 C 0.77693 0.38652 0.99211 0.0
C543 C 0.75394 0.37812 0.01347 0.0
C544 C 0.72233 0.37109 0.00476 0.0
C545 C 0.71405 0.3726 0.97334 0.0
C546 C 0.73724 0.38138 0.95113 0.0
C547 C 0.76899 0.38864 0.96085 0.0
H548 H 0.34582 0.88532 0.54646 0.0
H549 H 0.26096 0.89226 0.6024 0.0
H550 H 0.2276 0.89059 0.55517 0.0
H551 H 0.31801 0.93404 0.48247 0.0
H552 H 0.33663 0.90967 0.45378 0.0
H553 H 0.35379 0.91376 0.49193 0.0
H554 H 0.35128 0.85227 0.49728 0.0
H555 H 0.33394 0.848 0.45928 0.0
H556 H 0.31366 0.83055 0.49185 0.0
H557 H 0.20314 0.88307 0.50176 0.0
H558 H 0.19012 0.87381 0.44645 0.0
H559 H 0.29119 0.87356 0.42593 0.0
C560 C 0.32027 0.887 0.5488 0.0
C561 C 0.30604 0.88894 0.57817 0.0
C562 C 0.27247 0.89092 0.58017 0.0
C563 C 0.25328 0.88992 0.55346 0.0
C564 C 0.26803 0.88731 0.52489 0.0
C565 C 0.30081 0.88628 0.52241 0.0
C566 C 0.31074 0.88253 0.4891 0.0
C567 C 0.33098 0.91175 0.47872 0.0
C568 C 0.32844 0.85149 0.4841 0.0
C569 C 0.27842 0.88093 0.47329 0.0
C570 C 0.25404 0.88373 0.49426 0.0
C571 C 0.22207 0.8813 0.48509 0.0
C572 C 0.21489 0.87593 0.45366 0.0
C573 C 0.23959 0.87321 0.4318 0.0
C574 C 0.27171 0.87596 0.44193 0.0
H575 H 0.68587 0.58681 0.5438 0.0
H576 H 0.73151 0.65812 0.60463 0.0
H577 H 0.77515 0.66583 0.56708 0.0
H578 H 0.75942 0.55291 0.51406 0.0
H579 H 0.74277 0.54725 0.47583 0.0
H580 H 0.71712 0.54516 0.50896 0.0
H581 H 0.68246 0.58885 0.48584 0.0
H582 H 0.70789 0.59098 0.45269 0.0
H583 H 0.70114 0.6265 0.47514 0.0
H584 H 0.81156 0.66902 0.52 0.0
H585 H 0.83572 0.66814 0.46796 0.0
H586 H 0.76601 0.5942 0.43936 0.0
C587 C 0.70527 0.60368 0.54955 0.0
C588 C 0.70523 0.62178 0.57726 0.0
C589 C 0.73101 0.64386 0.58362 0.0
C590 C 0.75598 0.64836 0.56244 0.0
C591 C 0.75501 0.63042 0.53509 0.0
C592 C 0.73032 0.60842 0.52874 0.0
C593 C 0.73355 0.5936 0.49699 0.0
C594 C 0.73852 0.55759 0.4991 0.0
C595 C 0.70455 0.60041 0.47647 0.0
C596 C 0.76342 0.61127 0.48605 0.0
C597 C 0.77578 0.63218 0.50836 0.0
C598 C 0.80229 0.65239 0.50253 0.0
C599 C 0.81595 0.65167 0.47293 0.0
C600 C 0.80291 0.63106 0.44953 0.0
C601 C 0.77681 0.61013 0.45668 0.0
H602 H 0.01576 0.32781 0.16775 0.0
H603 H 0.94266 0.29429 0.1027 0.0
H604 H 0.97853 0.25353 0.08302 0.0
H605 H 0.08721 0.30909 0.11599 0.0
H606 H 0.10981 0.29779 0.14936 0.0
H607 H 0.08163 0.32898 0.15256 0.0
H608 H 0.05338 0.29857 0.19696 0.0
H609 H 0.08115 0.26739 0.1938 0.0
H610 H 0.03896 0.25795 0.19047 0.0
H611 H 0.01564 0.20803 0.08142 0.0
H612 H 0.05283 0.16568 0.0947 0.0
H613 H 0.10385 0.23117 0.15703 0.0
C614 C 0.00791 0.31278 0.14843 0.0
C615 C 0.97661 0.31418 0.13665 0.0
C616 C 0.96678 0.29387 0.11173 0.0
C617 C 0.987 0.2706 0.10045 0.0
C618 C 0.01726 0.26868 0.11371 0.0
C619 C 0.02801 0.28992 0.13657 0.0
C620 C 0.05985 0.28075 0.14958 0.0
C621 C 0.08619 0.30563 0.14137 0.0
C622 C 0.05819 0.27586 0.18475 0.0
C623 C 0.06414 0.24968 0.13233 0.0
C624 C 0.03962 0.24322 0.11134 0.0
C625 C 0.03573 0.21341 0.09667 0.0
C626 C 0.0569 0.18949 0.10423 0.0
C627 C 0.0817 0.19586 0.12589 0.0
C628 C 0.08588 0.22648 0.13928 0.0
H629 H 0.9291 0.7733 0.36391 0.0
H630 H 0.96174 0.6805 0.39002 0.0
H631 H 0.01735 0.70227 0.39098 0.0
H632 H 0.99178 0.79213 0.31278 0.0
H633 H 0.99462 0.83399 0.32274 0.0
H634 H 0.95723 0.81192 0.32665 0.0
H635 H 0.95474 0.82915 0.38418 0.0
H636 H 0.99213 0.85138 0.38043 0.0
H637 H 0.98765 0.82135 0.4096 0.0
H638 H 0.06954 0.7335 0.38685 0.0
H639 H 0.11461 0.77125 0.37669 0.0
H640 H 0.04816 0.8436 0.35201 0.0
C641 C 0.94786 0.75762 0.37028 0.0
C642 C 0.94098 0.72517 0.37707 0.0
C643 C 0.96636 0.70542 0.38484 0.0
C644 C 0.99803 0.7176 0.3855 0.0
C645 C 0.00398 0.74957 0.3783 0.0
C646 C 0.97961 0.76932 0.37085 0.0
C647 C 0.99255 0.80236 0.36255 0.0
C648 C 0.98351 0.81056 0.3292 0.0
C649 C 0.98108 0.82755 0.38557 0.0
C650 C 0.02807 0.79796 0.36594 0.0
C651 C 0.0341 0.76744 0.37539 0.0
C652 C 0.06508 0.7575 0.37959 0.0
C653 C 0.09055 0.77919 0.37375 0.0
C654 C 0.08503 0.81049 0.36353 0.0
C655 C 0.05326 0.81993 0.35984 0.0
H656 H 0.58594 0.72304 0.62269 0.0
H657 H 0.52184 0.64677 0.58989 0.0
H658 H 0.48333 0.68618 0.57311 0.0
H659 H 0.53278 0.75777 0.6615 0.0
H660 H 0.54581 0.79884 0.65654 0.0
H661 H 0.57383 0.76808 0.65267 0.0
H662 H 0.58824 0.78704 0.59774 0.0
H663 H 0.56043 0.8185 0.6016 0.0
H664 H 0.55716 0.79104 0.56928 0.0
H665 H 0.44673 0.73104 0.57301 0.0
H666 H 0.41458 0.77431 0.59405 0.0
H667 H 0.49977 0.82017 0.63367 0.0
C668 C 0.56478 0.71502 0.60987 0.0
C669 C 0.55724 0.68221 0.60627 0.0
C670 C 0.52841 0.67196 0.59162 0.0
C671 C 0.50642 0.69427 0.58212 0.0
C672 C 0.51341 0.72662 0.58812 0.0
C673 C 0.5421 0.73698 0.60167 0.0
C674 C 0.54079 0.77114 0.61322 0.0
C675 C 0.54872 0.77406 0.64801 0.0
C676 C 0.56297 0.79324 0.59432 0.0
C677 C 0.50618 0.77742 0.60663 0.0
C678 C 0.49122 0.75221 0.5906 0.0
C679 C 0.45839 0.75124 0.58482 0.0
C680 C 0.44028 0.77588 0.5968 0.0
C681 C 0.45498 0.80045 0.61513 0.0
C682 C 0.48833 0.80179 0.61916 0.0
H683 H 0.78772 0.02577 0.723 0.0
H684 H 0.8817 0.04616 0.68506 0.0
H685 H 0.90504 0.01097 0.72388 0.0
H686 H 0.81274 0.02335 0.8035 0.0
H687 H 0.78456 0.99133 0.8125 0.0
H688 H 0.77547 0.01906 0.78259 0.0
H689 H 0.76656 0.97234 0.74332 0.0
H690 H 0.77501 0.94454 0.77322 0.0
H691 H 0.79751 0.94426 0.73796 0.0
H692 H 0.91727 0.97045 0.76435 0.0
H693 H 0.91706 0.92598 0.80118 0.0
H694 H 0.81557 0.93459 0.81452 0.0
C695 C 0.81324 0.0229 0.72274 0.0
C696 C 0.83287 0.03865 0.7008 0.0
C697 C 0.86616 0.03428 0.70152 0.0
C698 C 0.87964 0.01451 0.72362 0.0
C699 C 0.85957 -0.00034 0.7451 0.0
C700 C 0.82708 0.00363 0.74478 0.0
C701 C 0.81049 0.9841 0.76952 0.0
C702 C 0.7949 0.00576 0.79345 0.0
C703 C 0.78596 0.95987 0.75514 0.0
C704 C 0.83862 0.96773 0.78338 0.0
C705 C 0.86678 0.97724 0.76914 0.0
C706 C 0.8955 0.96331 0.77606 0.0
C707 C 0.8952 0.93821 0.79712 0.0
C708 C 0.86646 0.92749 0.81122 0.0
C709 C 0.83806 0.94317 0.805 0.0
H710 H 0.11899 0.56034 0.79689 0.0
H711 H 0.11028 0.61172 0.71122 0.0
H712 H 0.11097 0.56103 0.68181 0.0
H713 H 0.17044 0.49912 0.76866 0.0
H714 H 0.15085 0.46789 0.7905 0.0
H715 H 0.15159 0.50844 0.80473 0.0
H716 H 0.08988 0.50577 0.80799 0.0
H717 H 0.08896 0.46526 0.7937 0.0
H718 H 0.06657 0.49477 0.7741 0.0
H719 H 0.11321 0.50462 0.66153 0.0
H720 H 0.11303 0.44615 0.65246 0.0
H721 H 0.11656 0.43176 0.75138 0.0
C722 C 0.11754 0.56087 0.77195 0.0
C723 C 0.11475 0.5899 0.75631 0.0
C724 C 0.11237 0.58967 0.72366 0.0
C725 C 0.11286 0.56104 0.70672 0.0
C726 C 0.11535 0.53277 0.72279 0.0
C727 C 0.11737 0.5324 0.75467 0.0
C728 C 0.11818 0.49863 0.76634 0.0
C729 C 0.14964 0.49321 0.78357 0.0
C730 C 0.08917 0.49065 0.78673 0.0
C731 C 0.11629 0.48018 0.73608 0.0
C732 C 0.11509 0.50026 0.71118 0.0
C733 C 0.11395 0.4886 0.68086 0.0
C734 C 0.11389 0.45545 0.6759 0.0
C735 C 0.11441 0.4345 0.70118 0.0
C736 C 0.11566 0.44718 0.73158 0.0
H737 H 0.69628 0.79442 0.07626 0.0
H738 H 0.66896 0.89301 0.08066 0.0
H739 H 0.70249 0.90501 0.03524 0.0
H740 H 0.77751 0.80991 0.05452 0.0
H741 H 0.77868 0.77571 0.029 0.0
H742 H 0.75237 0.77497 0.06164 0.0
H743 H 0.70415 0.76154 0.02538 0.0
H744 H 0.73034 0.76208 0.99265 0.0
H745 H 0.69647 0.78716 0.99333 0.0
H746 H 0.74028 0.90622 0.98938 0.0
H747 H 0.7768 0.89594 0.9461 0.0
H748 H 0.77846 0.79644 0.9719 0.0
C749 C 0.69721 0.81855 0.06768 0.0
C750 C 0.67992 0.84277 0.08213 0.0
C751 C 0.68189 0.87401 0.07001 0.0
C752 C 0.70096 0.88107 0.04424 0.0
C753 C 0.71788 0.85665 0.03073 0.0
C754 C 0.716 0.82597 0.04197 0.0
C755 C 0.73629 0.80392 0.02323 0.0
C756 C 0.76278 0.79034 0.0433 0.0
C757 C 0.71557 0.77709 0.00773 0.0
C758 C 0.74993 0.82693 0.99967 0.0
C759 C 0.73918 0.85728 0.00439 0.0
C760 C 0.74876 0.88251 0.98547 0.0
C761 C 0.76959 0.87646 0.96097 0.0
C762 C 0.78054 0.84539 0.9555 0.0
C763 C 0.77057 0.82047 0.97533 0.0
H764 H 0.17691 0.61949 0.91136 0.0
H765 H 0.26124 0.65797 0.86534 0.0
H766 H 0.2943 0.64387 0.91015 0.0
H767 H 0.19739 0.64704 0.9861 0.0
H768 H 0.18153 0.61214 0.00538 0.0
H769 H 0.16501 0.62333 0.96886 0.0
H770 H 0.17595 0.56734 0.94631 0.0
H771 H 0.19259 0.55599 0.98281 0.0
H772 H 0.21574 0.55278 0.94813 0.0
H773 H 0.3174 0.62983 0.96206 0.0
H774 H 0.32866 0.61572 0.0162 0.0
H775 H 0.22961 0.58439 0.02709 0.0
C776 C 0.20238 0.62468 0.91053 0.0
C777 C 0.21646 0.63988 0.88481 0.0
C778 C 0.24989 0.64626 0.88472 0.0
C779 C 0.26889 0.63831 0.91007 0.0
C780 C 0.25419 0.62363 0.93519 0.0
C781 C 0.22172 0.61663 0.93549 0.0
C782 C 0.21161 0.6017 0.96567 0.0
C783 C 0.18747 0.62229 0.98249 0.0
C784 C 0.19818 0.56742 0.9604 0.0
C785 C 0.24332 0.6021 0.98262 0.0
C786 C 0.26764 0.61475 0.96466 0.0
C787 C 0.29863 0.61944 0.97616 0.0
C788 C 0.30481 0.61137 0.00694 0.0
C789 C 0.28014 0.59859 0.0258 0.0
C790 C 0.24917 0.59348 0.01315 0.0
H791 H 0.73615 0.17313 0.42407 0.0
H792 H 0.66768 0.09393 0.40936 0.0
H793 H 0.68729 0.06861 0.45648 0.0
H794 H 0.80082 0.12544 0.45632 0.0
H795 H 0.81299 0.15633 0.48374 0.0
H796 H 0.79587 0.16673 0.44713 0.0
H797 H 0.75285 0.1984 0.47541 0.0
H798 H 0.7698 0.18813 0.51202 0.0
H799 H 0.72827 0.17868 0.5039 0.0
H800 H 0.70948 0.05515 0.50814 0.0
H801 H 0.73396 0.05376 0.56009 0.0
H802 H 0.78987 0.1402 0.54063 0.0
C803 C 0.72565 0.15018 0.43043 0.0
C804 C 0.70035 0.13553 0.41293 0.0
C805 C 0.68712 0.10562 0.42227 0.0
C806 C 0.69815 0.09099 0.449 0.0
C807 C 0.72271 0.10634 0.466 0.0
C808 C 0.73653 0.13513 0.45697 0.0
C809 C 0.76132 0.14747 0.48032 0.0
C810 C 0.79473 0.14908 0.46602 0.0
C811 C 0.75251 0.18009 0.4937 0.0
C812 C 0.75855 0.12162 0.50438 0.0
C813 C 0.73624 0.09803 0.49554 0.0
C814 C 0.72746 0.07311 0.51504 0.0
C815 C 0.74143 0.07254 0.5445 0.0
C816 C 0.76414 0.09657 0.55414 0.0
C817 C 0.77325 0.12104 0.53353 0.0
H818 H 0.21633 0.29311 0.57183 0.0
H819 H 0.17411 0.38585 0.57183 0.0
H820 H 0.20695 0.40122 0.52687 0.0
H821 H 0.29521 0.31997 0.5521 0.0
H822 H 0.30257 0.28588 0.52784 0.0
H823 H 0.27528 0.28203 0.55955 0.0
H824 H 0.23077 0.26043 0.52214 0.0
H825 H 0.25798 0.26402 0.49034 0.0
H826 H 0.22048 0.28346 0.48896 0.0
H827 H 0.24592 0.40683 0.48226 0.0
H828 H 0.28565 0.40119 0.4408 0.0
H829 H 0.30159 0.30464 0.47028 0.0
C830 C 0.2138 0.31661 0.56233 0.0
C831 C 0.19257 0.33825 0.57545 0.0
C832 C 0.19011 0.36878 0.56221 0.0
C833 C 0.20875 0.37778 0.53669 0.0
C834 C 0.22968 0.35596 0.52455 0.0
C835 C 0.23212 0.32593 0.53686 0.0
C836 C 0.25636 0.30687 0.51963 0.0
C837 C 0.28399 0.29819 0.54106 0.0
C838 C 0.24044 0.27693 0.50436 0.0
C839 C 0.26731 0.33087 0.49575 0.0
C840 C 0.25175 0.35909 0.49896 0.0
C841 C 0.25817 0.38478 0.47952 0.0
C842 C 0.28085 0.38139 0.45608 0.0
C843 C 0.2968 0.35249 0.4522 0.0
C844 C 0.28988 0.32707 0.47251 0.0
H845 H 0.00833 0.6728 0.84632 0.0
H846 H 0.08087 0.73298 0.89177 0.0
H847 H 0.03889 0.76278 0.91809 0.0
H848 H 0.96157 0.72783 0.82574 0.0
H849 H 0.92367 0.70715 0.83175 0.0
H850 H 0.95841 0.68483 0.82508 0.0
H851 H 0.94919 0.65481 0.87631 0.0
H852 H 0.91405 0.67716 0.88314 0.0
H853 H 0.94534 0.67705 0.91186 0.0
H854 H 0.99013 0.79493 0.9264 0.0
H855 H 0.94099 0.82416 0.91636 0.0
H856 H 0.90006 0.74161 0.86771 0.0
C857 C 0.01524 0.69117 0.86313 0.0
C858 C 0.04758 0.7005 0.86737 0.0
C859 C 0.05612 0.72512 0.88879 0.0
C860 C 0.03238 0.74218 0.90377 0.0
C861 C 1.00038 0.73364 0.89766 0.0
C862 C 0.99188 0.70802 0.87841 0.0
C863 C 0.95647 0.70643 0.87155 0.0
C864 C 0.94969 0.70663 0.83649 0.0
C865 C 0.94031 0.67712 0.88663 0.0
C866 C 0.94679 0.73688 0.88728 0.0
C867 C 0.97208 0.75187 0.90313 0.0
C868 C 0.96986 0.78284 0.91514 0.0
C869 C 0.94182 0.79929 0.90953 0.0
C870 C 0.91674 0.78474 0.8918 0.0
C871 C 0.91871 0.75274 0.88208 0.0
H872 H 0.0265 0.2699 0.70114 0.0
H873 H 0.05679 0.27861 0.606 0.0
H874 H 0.01309 0.23995 0.58999 0.0
H875 H 0.0071 0.18637 0.69854 0.0
H876 H 0.97361 0.18963 0.72402 0.0
H877 H 0.00695 0.21789 0.7272 0.0
H878 H 0.96891 0.26451 0.72027 0.0
H879 H 0.93545 0.23643 0.71718 0.0
H880 H 0.94296 0.26475 0.68693 0.0
H881 H 0.96408 0.20014 0.58527 0.0
H882 H 0.9164 0.16411 0.59229 0.0
H883 H 0.92138 0.1823 0.69102 0.0
C884 C 0.02411 0.26392 0.67683 0.0
C885 C 0.04509 0.27751 0.65479 0.0
C886 C 0.04099 0.26861 0.62331 0.0
C887 C 0.01625 0.24665 0.61405 0.0
C888 C 0.99605 0.23373 0.6366 0.0
C889 C 0.99996 0.24213 0.66735 0.0
C890 C 0.97559 0.22517 0.68744 0.0
C891 C 0.99179 0.20348 0.71066 0.0
C892 C 0.95448 0.24915 0.70391 0.0
C893 C 0.95698 0.20589 0.66328 0.0
C894 C 0.96892 0.21098 0.63403 0.0
C895 C 0.95475 0.19596 0.60813 0.0
C896 C 0.92769 0.1755 0.61234 0.0
C897 C 0.91518 0.17021 0.64223 0.0
C898 C 0.93035 0.18555 0.66786 0.0
H899 H 0.58566 0.27397 0.35514 0.0
H900 H 0.55286 0.18824 0.40121 0.0
H901 H 0.51148 0.21859 0.42787 0.0
H902 H 0.56175 0.33392 0.42044 0.0
H903 H 0.55075 0.36177 0.3913 0.0
H904 H 0.58389 0.33645 0.38502 0.0
H905 H 0.55781 0.31572 0.33381 0.0
H906 H 0.52497 0.34076 0.33988 0.0
H907 H 0.51777 0.29841 0.33433 0.0
H908 H 0.46508 0.25327 0.43591 0.0
H909 H 0.41991 0.28713 0.42355 0.0
H910 H 0.48353 0.35119 0.37394 0.0
C911 C 0.57078 0.26214 0.37216 0.0
C912 C 0.57241 0.22909 0.37651 0.0
C913 C 0.55226 0.21379 0.39817 0.0
C914 C 0.52873 0.23091 0.41338 0.0
C915 C 0.52635 0.26337 0.40717 0.0
C916 C 0.54751 0.27898 0.38756 0.0
C917 C 0.537 0.31209 0.38018 0.0
C918 C 0.5597 0.33756 0.39514 0.0
C919 C 0.53418 0.31695 0.34501 0.0
C920 C 0.50484 0.31142 0.39569 0.0
C921 C 0.49953 0.28373 0.41228 0.0
C922 C 0.4694 0.27555 0.42408 0.0
C923 C 0.44383 0.29502 0.41718 0.0
C924 C 0.44865 0.32195 0.39833 0.0
C925 C 0.47974 0.33119 0.38921 0.0
H926 H 0.66785 0.551 0.69914 0.0
H927 H 0.56593 0.52968 0.69853 0.0
H928 H 0.57384 0.48368 0.73233 0.0
H929 H 0.69419 0.4664 0.70542 0.0
H930 H 0.72645 0.47872 0.73115 0.0
H931 H 0.7133 0.50541 0.70185 0.0
H932 H 0.70477 0.54843 0.74407 0.0
H933 H 0.71699 0.5217 0.77358 0.0
H934 H 0.6786 0.53931 0.77583 0.0
H935 H 0.59201 0.44489 0.77187 0.0
H936 H 0.61959 0.41409 0.81155 0.0
H937 H 0.7092 0.46292 0.78814 0.0
C938 C 0.64741 0.53569 0.7049 0.0
C939 C 0.61636 0.54343 0.6958 0.0
C940 C 0.58997 0.52376 0.70493 0.0
C941 C 0.59422 0.49769 0.7242 0.0
C942 C 0.625 0.49172 0.73423 0.0
C943 C 0.65122 0.50991 0.72458 0.0
C944 C 0.68125 0.50079 0.7413 0.0
C945 C 0.70521 0.487 0.71858 0.0
C946 C 0.69626 0.52925 0.75979 0.0
C947 C 0.66768 0.47537 0.76247 0.0
C948 C 0.6353 0.47015 0.7578 0.0
C949 C 0.61745 0.44848 0.77546 0.0
C950 C 0.63327 0.43128 0.7981 0.0
C951 C 0.66652 0.43615 0.8031 0.0
C952 C 0.68374 0.45867 0.78506 0.0
H953 H 0.34199 0.0613 0.7695 0.0
H954 H 0.43095 0.07409 0.82064 0.0
H955 H 0.45506 0.03347 0.78701 0.0
H956 H 0.34229 0.97963 0.76061 0.0
H957 H 0.32562 0.97844 0.72214 0.0
H958 H 0.31712 0.0108 0.74794 0.0
H959 H 0.33857 0.05126 0.70763 0.0
H960 H 0.34737 0.01887 0.68173 0.0
H961 H 0.37835 0.04785 0.69286 0.0
H962 H 0.46622 0.98597 0.753 0.0
H963 H 0.46402 0.93677 0.72086 0.0
H964 H 0.36905 0.95812 0.68954 0.0
C965 C 0.3667 0.05587 0.77343 0.0
C966 C 0.3846 0.07062 0.7978 0.0
C967 C 0.41687 0.06304 0.80207 0.0
C968 C 0.43074 0.04011 0.78302 0.0
C969 C 0.41219 0.02567 0.75944 0.0
C970 C 0.38097 0.03359 0.75439 0.0
C971 C 0.36542 0.01346 0.72879 0.0
C972 C 0.3359 0.99446 0.74059 0.0
C973 C 0.35694 0.0341 0.70111 0.0
C974 C 0.39229 0.99185 0.72108 0.0
C975 C 0.41919 -0.0006 0.73882 0.0
C976 C 0.44566 0.9804 0.73839 0.0
C977 C 0.44423 0.95254 0.72008 0.0
C978 C 0.41665 0.94418 0.70225 0.0
C979 C 0.39084 0.96464 0.70205 0.0
H980 H 0.47036 0.19703 0.84788 0.0
H981 H 0.43816 0.24425 0.93106 0.0
H982 H 0.48883 0.2762 0.93375 0.0
H983 H 0.55397 0.19398 0.87018 0.0
H984 H 0.56819 0.20176 0.83177 0.0
H985 H 0.52998 0.18155 0.83715 0.0
H986 H 0.50301 0.22413 0.80427 0.0
H987 H 0.5411 0.24449 0.79883 0.0
H988 H 0.50845 0.26569 0.81489 0.0
H989 H 0.54245 0.30402 0.92674 0.0
H990 H 0.59477 0.32625 0.91017 0.0
H991 H 0.59191 0.26159 0.83104 0.0
C992 C 0.47405 0.21387 0.86684 0.0
C993 C 0.45024 0.21802 0.88934 0.0
C994 C 0.45598 0.24058 0.91357 0.0
C995 C 0.48473 0.25883 0.91533 0.0
C996 C 0.50755 0.25433 0.89265 0.0
C997 C 0.50256 0.23241 0.86886 0.0
C998 C 0.53056 0.23293 0.84692 0.0
C999 C 0.54662 0.20063 0.8465 0.0
C1000 C 0.52015 0.24238 0.8143 0.0
C1001 C 0.55196 0.25875 0.86196 0.0
C1002 C 0.53831 0.27063 0.88841 0.0
C1003 C 0.5534 0.29483 0.90611 0.0
C1004 C 0.58316 0.30732 0.89648 0.0
C1005 C 0.59755 0.29573 0.86927 0.0
C1006 C 0.58164 0.271 0.85194 0.0
H1007 H 0.29251 0.50501 0.18866 0.0
H1008 H 0.38539 0.55086 0.17253 0.0
H1009 H 0.40715 0.5232 0.21761 0.0
H1010 H 0.29596 0.51022 0.2712 0.0
H1011 H 0.27577 0.47204 0.27678 0.0
H1012 H 0.26754 0.49473 0.24283 0.0
H1013 H 0.28225 0.44713 0.20771 0.0
H1014 H 0.28967 0.42406 0.24152 0.0
H1015 H 0.32029 0.42934 0.21289 0.0
H1016 H 0.41897 0.48922 0.2636 0.0
H1017 H 0.42074 0.44862 0.30441 0.0
H1018 H 0.3195 0.4279 0.29248 0.0
C1019 C 0.31757 0.50895 0.19426 0.0
C1020 C 0.33731 0.52996 0.17682 0.0
C1021 C 0.36984 0.53473 0.18535 0.0
C1022 C 0.38234 0.51932 0.21108 0.0
C1023 C 0.36194 0.49953 0.22825 0.0
C1024 C 0.3303 0.49415 0.22004 0.0
C1025 C 0.31341 0.47158 0.24212 0.0
C1026 C 0.28658 0.48815 0.25924 0.0
C1027 C 0.30067 0.44123 0.22504 0.0
C1028 C 0.34062 0.4646 0.26382 0.0
C1029 C 0.36839 0.48111 0.25553 0.0
C1030 C 0.39727 0.47666 0.27066 0.0
C1031 C 0.39801 0.45385 0.294 0.0
C1032 C 0.37003 0.43618 0.30226 0.0
C1033 C 0.34086 0.44223 0.28753 0.0
H1034 H 0.60816 0.06166 0.30882 0.0
H1035 H 0.57739 0.11425 0.22909 0.0
H1036 H 0.57311 0.06431 0.1985 0.0
H1037 H 0.65527 0.00719 0.2695 0.0
H1038 H 0.64378 0.97337 0.29269 0.0
H1039 H 0.6431 0.01304 0.30891 0.0
H1040 H 0.58358 0.00386 0.32314 0.0
H1041 H 0.58419 0.96398 0.30731 0.0
H1042 H 0.55519 0.99112 0.29361 0.0
H1043 H 0.57784 0.00921 0.17494 0.0
H1044 H 0.58372 0.95174 0.16274 0.0
H1045 H 0.6072 0.93517 0.25865 0.0
C1046 C 0.60006 0.06258 0.28508 0.0
C1047 C 0.59315 0.09185 0.27138 0.0
C1048 C 0.58262 0.09207 0.2402 0.0
C1049 C 0.58028 0.06385 0.22253 0.0
C1050 C 0.58799 0.0355 0.23649 0.0
C1051 C 0.59698 0.03454 0.26725 0.0
C1052 C 0.60372 0.00092 0.27676 0.0
C1053 C 0.63854 -0.00149 0.28759 0.0
C1054 C 0.58026 0.98929 0.30167 0.0
C1055 C 0.59771 0.9833 0.24644 0.0
C1056 C 0.58901 0.00364 0.22335 0.0
C1057 C 0.58409 0.99293 0.19296 0.0
C1058 C 0.58764 0.96041 0.18617 0.0
C1059 C 0.59544 0.93915 0.20983 0.0
C1060 C 0.60061 0.95087 0.24023 0.0
H1061 H 0.51521 0.77281 0.20319 0.0
H1062 H 0.55062 0.78432 0.10999 0.0
H1063 H 0.50789 0.74619 0.09086 0.0
H1064 H 0.49542 0.6893 0.1974 0.0
H1065 H 0.4605 0.692 0.2211 0.0
H1066 H 0.49376 0.71996 0.22681 0.0
H1067 H 0.45638 0.76697 0.21913 0.0
H1068 H 0.423 0.73918 0.21342 0.0
H1069 H 0.43248 0.76843 0.18447 0.0
H1070 H 0.45988 0.70655 0.08258 0.0
H1071 H 0.41231 0.66986 0.08586 0.0
H1072 H 0.41035 0.68543 0.185 0.0
C1073 C 0.51417 0.76749 0.17868 0.0
C1074 C 0.53632 0.78171 0.15806 0.0
C1075 C 0.53393 0.77378 0.12622 0.0
C1076 C 0.50974 0.75215 0.11519 0.0
C1077 C 0.4883 0.73865 0.13633 0.0
C1078 C 0.49047 0.74609 0.16742 0.0
C1079 C 0.46482 0.72864 0.18567 0.0
C1080 C 0.47951 0.70614 0.20912 0.0
C1081 C 0.44288 0.75222 0.2016 0.0
C1082 C 0.44755 0.71019 0.16004 0.0
C1083 C 0.46133 0.71613 0.1317 0.0
C1084 C 0.44903 0.70176 0.1047 0.0
C1085 C 0.422 0.68094 0.1068 0.0
C1086 C 0.40758 0.67469 0.1357 0.0
C1087 C 0.42076 0.68955 0.16255 0.0
loop_
_geom_bond_atom_site_label_1
_geom_bond_atom_site_label_2
_geom_bond_distance
_geom_bond_site_symmetry_2
_ccdc_geom_bond_type
Zn0 O3 2.031 . S
Zn0 O5 2.049 . S
Zn0 O10 2.067 . S
Zn1 O2 1.962 . S
Zn1 O4 1.986 . S
Zn1 O6 1.996 . S
Zn1 O9 1.943 . S
O2 Zn1 1.962 . S
O2 C7 1.254 . S
O3 Zn0 2.031 . S
O3 C7 1.269 . S
O4 Zn1 1.986 . S
O4 C11 1.262 . S
O5 Zn0 2.049 . S
O5 C13 1.260 . S
O6 Zn1 1.996 . S
O6 C13 1.257 . S
C7 O2 1.254 . S
C7 O3 1.269 . S
C8 O9 1.249 . S
C8 O10 1.270 . S
O9 Zn1 1.943 . S
O9 C8 1.249 . S
O10 Zn0 2.067 . S
O10 C8 1.270 . S
C11 O4 1.262 . S
C11 O12 1.232 . S
O12 C11 1.232 . S
C13 O5 1.260 . S
C13 O6 1.257 . S
Zn14 O17 2.031 . S
Zn14 O19 2.049 . S
Zn14 O24 2.067 . S
Zn15 O16 1.962 . S
Zn15 O18 1.986 . S
Zn15 O20 1.996 . S
Zn15 O23 1.943 . S
O16 Zn15 1.962 . S
O16 C21 1.254 . S
O17 Zn14 2.031 . S
O17 C21 1.269 . S
O18 Zn15 1.986 . S
O18 C25 1.262 . S
O19 Zn14 2.049 . S
O19 C27 1.260 . S
O20 Zn15 1.996 . S
O20 C27 1.257 . S
C21 O16 1.254 . S
C21 O17 1.269 . S
C22 O23 1.249 . S
C22 O24 1.270 . S
O23 Zn15 1.943 . S
O23 C22 1.249 . S
O24 Zn14 2.067 . S
O24 C22 1.270 . S
C25 O18 1.262 . S
C25 O26 1.232 . S
O26 C25 1.232 . S
C27 O19 1.260 . S
C27 O20 1.257 . S
Zn28 O31 2.031 . S
Zn28 O33 2.049 . S
Zn28 O38 2.067 . S
Zn29 O30 1.962 . S
Zn29 O32 1.986 . S
Zn29 O34 1.996 . S
Zn29 O37 1.943 . S
O30 Zn29 1.962 . S
O30 C35 1.254 . S
O31 Zn28 2.031 . S
O31 C35 1.269 . S
O32 Zn29 1.986 . S
O32 C39 1.262 . S
O33 Zn28 2.049 . S
O33 C41 1.260 . S
O34 Zn29 1.996 . S
O34 C41 1.257 . S
C35 O30 1.254 . S
C35 O31 1.269 . S
C36 O37 1.249 . S
C36 O38 1.270 . S
O37 Zn29 1.943 . S
O37 C36 1.249 . S
O38 Zn28 2.067 . S
O38 C36 1.270 . S
C39 O32 1.262 . S
C39 O40 1.232 . S
O40 C39 1.232 . S
C41 O33 1.260 . S
C41 O34 1.257 . S
Zn42 O45 2.031 . S
Zn42 O47 2.049 . S
Zn42 O52 2.067 . S
Zn43 O44 1.962 . S
Zn43 O46 1.986 . S
Zn43 O48 1.996 . S
Zn43 O51 1.943 . S
O44 Zn43 1.962 . S
O44 C49 1.254 . S
O45 Zn42 2.031 . S
O45 C49 1.269 . S
O46 Zn43 1.986 . S
O46 C53 1.262 . S
O47 Zn42 2.049 . S
O47 C55 1.260 . S
O48 Zn43 1.996 . S
O48 C55 1.257 . S
C49 O44 1.254 . S
C49 O45 1.269 . S
C50 O51 1.249 . S
C50 O52 1.270 . S
O51 Zn43 1.943 . S
O51 C50 1.249 . S
O52 Zn42 2.067 . S
O52 C50 1.270 . S
C53 O46 1.262 . S
C53 O54 1.232 . S
O54 C53 1.232 . S
C55 O47 1.260 . S
C55 O48 1.257 . S
Zn56 O59 2.031 . S
Zn56 O61 2.049 . S
Zn56 O66 2.067 . S
Zn57 O58 1.962 . S
Zn57 O60 1.986 . S
Zn57 O62 1.996 . S
Zn57 O65 1.943 . S
O58 Zn57 1.962 . S
O58 C63 1.254 . S
O59 Zn56 2.031 . S
O59 C63 1.269 . S
O60 Zn57 1.986 . S
O60 C67 1.262 . S
O61 Zn56 2.049 . S
O61 C69 1.260 . S
O62 Zn57 1.996 . S
O62 C69 1.257 . S
C63 O58 1.254 . S
C63 O59 1.269 . S
C64 O65 1.249 . S
C64 O66 1.270 . S
O65 Zn57 1.943 . S
O65 C64 1.249 . S
O66 Zn56 2.067 . S
O66 C64 1.270 . S
C67 O60 1.262 . S
C67 O68 1.232 . S
O68 C67 1.232 . S
C69 O61 1.260 . S
C69 O62 1.257 . S
Zn70 O73 2.031 . S
Zn70 O75 2.049 . S
Zn70 O80 2.067 . S
Zn71 O72 1.962 . S
Zn71 O74 1.986 . S
Zn71 O76 1.996 . S
Zn71 O79 1.943 . S
O72 Zn71 1.962 . S
O72 C77 1.254 . S
O73 Zn70 2.031 . S
O73 C77 1.269 . S
O74 Zn71 1.986 . S
O74 C81 1.262 . S
O75 Zn70 2.049 . S
O75 C83 1.260 . S
O76 Zn71 1.996 . S
O76 C83 1.257 . S
C77 O72 1.254 . S
C77 O73 1.269 . S
C78 O79 1.249 . S
C78 O80 1.270 . S
O79 Zn71 1.943 . S
O79 C78 1.249 . S
O80 Zn70 2.067 . S
O80 C78 1.270 . S
C81 O74 1.262 . S
C81 O82 1.232 . S
O82 C81 1.232 . S
C83 O75 1.260 . S
C83 O76 1.257 . S
Zn84 O87 2.031 . S
Zn84 O89 2.049 . S
Zn84 O94 2.067 . S
Zn85 O86 1.962 . S
Zn85 O88 1.986 . S
Zn85 O90 1.996 . S
Zn85 O93 1.943 . S
O86 Zn85 1.962 . S
O86 C91 1.254 . S
O87 Zn84 2.031 . S
O87 C91 1.269 . S
O88 Zn85 1.986 . S
O88 C95 1.262 . S
O89 Zn84 2.049 . S
O89 C97 1.260 . S
O90 Zn85 1.996 . S
O90 C97 1.257 . S
C91 O86 1.254 . S
C91 O87 1.269 . S
C92 O93 1.249 . S
C92 O94 1.270 . S
O93 Zn85 1.943 . S
O93 C92 1.249 . S
O94 Zn84 2.067 . S
O94 C92 1.270 . S
C95 O88 1.262 . S
C95 O96 1.232 . S
O96 C95 1.232 . S
C97 O89 1.260 . S
C97 O90 1.257 . S
Zn98 O101 2.031 . S
Zn98 O103 2.049 . S
Zn98 O108 2.067 . S
Zn99 O100 1.962 . S
Zn99 O102 1.986 . S
Zn99 O104 1.996 . S
Zn99 O107 1.943 . S
O100 Zn99 1.962 . S
O100 C105 1.254 . S
O101 Zn98 2.031 . S
O101 C105 1.269 . S
O102 Zn99 1.986 . S
O102 C109 1.262 . S
O103 Zn98 2.049 . S
O103 C111 1.260 . S
O104 Zn99 1.996 . S
O104 C111 1.257 . S
C105 O100 1.254 . S
C105 O101 1.269 . S
C106 O107 1.249 . S
C106 O108 1.270 . S
O107 Zn99 1.943 . S
O107 C106 1.249 . S
O108 Zn98 2.067 . S
O108 C106 1.270 . S
C109 O102 1.262 . S
C109 O110 1.232 . S
O110 C109 1.232 . S
C111 O103 1.260 . S
C111 O104 1.257 . S
Zn112 O115 2.031 . S
Zn112 O117 2.049 . S
Zn112 O122 2.067 . S
Zn113 O114 1.962 . S
Zn113 O116 1.986 . S
Zn113 O118 1.996 . S
Zn113 O121 1.943 . S
O114 Zn113 1.962 . S
O114 C119 1.254 . S
O115 Zn112 2.031 . S
O115 C119 1.269 . S
O116 Zn113 1.986 . S
O116 C123 1.262 . S
O117 Zn112 2.049 . S
O117 C125 1.260 . S
O118 Zn113 1.996 . S
O118 C125 1.257 . S
C119 O114 1.254 . S
C119 O115 1.269 . S
C120 O121 1.249 . S
C120 O122 1.270 . S
O121 Zn113 1.943 . S
O121 C120 1.249 . S
O122 Zn112 2.067 . S
O122 C120 1.270 . S
C123 O116 1.262 . S
C123 O124 1.232 . S
O124 C123 1.232 . S
C125 O117 1.260 . S
C125 O118 1.257 . S
Zn126 O129 2.031 . S
Zn126 O131 2.049 . S
Zn126 O136 2.067 . S
Zn127 O128 1.962 . S
Zn127 O130 1.986 . S
Zn127 O132 1.996 . S
Zn127 O135 1.943 . S
O128 Zn127 1.962 . S
O128 C133 1.254 . S
O129 Zn126 2.031 . S
O129 C133 1.269 . S
O130 Zn127 1.986 . S
O130 C137 1.262 . S
O131 Zn126 2.049 . S
O131 C139 1.260 . S
O132 Zn127 1.996 . S
O132 C139 1.257 . S
C133 O128 1.254 . S
C133 O129 1.269 . S
C134 O135 1.249 . S
C134 O136 1.270 . S
O135 Zn127 1.943 . S
O135 C134 1.249 . S
O136 Zn126 2.067 . S
O136 C134 1.270 . S
C137 O130 1.262 . S
C137 O138 1.232 . S
O138 C137 1.232 . S
C139 O131 1.260 . S
C139 O132 1.257 . S
Zn140 O143 2.031 . S
Zn140 O145 2.049 . S
Zn140 O150 2.067 . S
Zn141 O142 1.962 . S
Zn141 O144 1.986 . S
Zn141 O146 1.996 . S
Zn141 O149 1.943 . S
O142 Zn141 1.962 . S
O142 C147 1.254 . S
O143 Zn140 2.031 . S
O143 C147 1.269 . S
O144 Zn141 1.986 . S
O144 C151 1.262 . S
O145 Zn140 2.049 . S
O145 C153 1.260 . S
O146 Zn141 1.996 . S
O146 C153 1.257 . S
C147 O142 1.254 . S
C147 O143 1.269 . S
C148 O149 1.249 . S
C148 O150 1.270 . S
O149 Zn141 1.943 . S
O149 C148 1.249 . S
O150 Zn140 2.067 . S
O150 C148 1.270 . S
C151 O144 1.262 . S
C151 O152 1.232 . S
O152 C151 1.232 . S
C153 O145 1.260 . S
C153 O146 1.257 . S
Zn154 O157 2.031 . S
Zn154 O159 2.049 . S
Zn154 O164 2.067 . S
Zn155 O156 1.962 . S
Zn155 O158 1.986 . S
Zn155 O160 1.996 . S
Zn155 O163 1.943 . S
O156 Zn155 1.962 . S
O156 C161 1.254 . S
O157 Zn154 2.031 . S
O157 C161 1.269 . S
O158 Zn155 1.986 . S
O158 C165 1.262 . S
O159 Zn154 2.049 . S
O159 C167 1.260 . S
O160 Zn155 1.996 . S
O160 C167 1.257 . S
C161 O156 1.254 . S
C161 O157 1.269 . S
C162 O163 1.249 . S
C162 O164 1.270 . S
O163 Zn155 1.943 . S
O163 C162 1.249 . S
O164 Zn154 2.067 . S
O164 C162 1.270 . S
C165 O158 1.262 . S
C165 O166 1.232 . S
O166 C165 1.232 . S
C167 O159 1.260 . S
C167 O160 1.257 . S
Zn168 O171 2.031 . S
Zn168 O173 2.049 . S
Zn168 O178 2.067 . S
Zn169 O170 1.962 . S
Zn169 O172 1.986 . S
Zn169 O174 1.996 . S
Zn169 O177 1.943 . S
O170 Zn169 1.962 . S
O170 C175 1.254 . S
O171 Zn168 2.031 . S
O171 C175 1.269 . S
O172 Zn169 1.986 . S
O172 C179 1.262 . S
O173 Zn168 2.049 . S
O173 C181 1.260 . S
O174 Zn169 1.996 . S
O174 C181 1.257 . S
C175 O170 1.254 . S
C175 O171 1.269 . S
C176 O177 1.249 . S
C176 O178 1.270 . S
O177 Zn169 1.943 . S
O177 C176 1.249 . S
O178 Zn168 2.067 . S
O178 C176 1.270 . S
C179 O172 1.262 . S
C179 O180 1.232 . S
O180 C179 1.232 . S
C181 O173 1.260 . S
C181 O174 1.257 . S
Zn182 O185 2.031 . S
Zn182 O187 2.049 . S
Zn182 O192 2.067 . S
Zn183 O184 1.962 . S
Zn183 O186 1.986 . S
Zn183 O188 1.996 . S
Zn183 O191 1.943 . S
O184 Zn183 1.962 . S
O184 C189 1.254 . S
O185 Zn182 2.031 . S
O185 C189 1.269 . S
O186 Zn183 1.986 . S
O186 C193 1.262 . S
O187 Zn182 2.049 . S
O187 C195 1.260 . S
O188 Zn183 1.996 . S
O188 C195 1.257 . S
C189 O184 1.254 . S
C189 O185 1.269 . S
C190 O191 1.249 . S
C190 O192 1.270 . S
O191 Zn183 1.943 . S
O191 C190 1.249 . S
O192 Zn182 2.067 . S
O192 C190 1.270 . S
C193 O186 1.262 . S
C193 O194 1.232 . S
O194 C193 1.232 . S
C195 O187 1.260 . S
C195 O188 1.257 . S
Zn196 O199 2.031 . S
Zn196 O201 2.049 . S
Zn196 O206 2.067 . S
Zn197 O198 1.962 . S
Zn197 O200 1.986 . S
Zn197 O202 1.996 . S
Zn197 O205 1.943 . S
O198 Zn197 1.962 . S
O198 C203 1.254 . S
O199 Zn196 2.031 . S
O199 C203 1.269 . S
O200 Zn197 1.986 . S
O200 C207 1.262 . S
O201 Zn196 2.049 . S
O201 C209 1.260 . S
O202 Zn197 1.996 . S
O202 C209 1.257 . S
C203 O198 1.254 . S
C203 O199 1.269 . S
C204 O205 1.249 . S
C204 O206 1.270 . S
O205 Zn197 1.943 . S
O205 C204 1.249 . S
O206 Zn196 2.067 . S
O206 C204 1.270 . S
C207 O200 1.262 . S
C207 O208 1.232 . S
O208 C207 1.232 . S
C209 O201 1.260 . S
C209 O202 1.257 . S
Zn210 O213 2.031 . S
Zn210 O215 2.049 . S
Zn210 O220 2.067 . S
Zn211 O212 1.962 . S
Zn211 O214 1.986 . S
Zn211 O216 1.996 . S
Zn211 O219 1.943 . S
O212 Zn211 1.962 . S
O212 C217 1.254 . S
O213 Zn210 2.031 . S
O213 C217 1.269 . S
O214 Zn211 1.986 . S
O214 C221 1.262 . S
O215 Zn210 2.049 . S
O215 C223 1.260 . S
O216 Zn211 1.996 . S
O216 C223 1.257 . S
C217 O212 1.254 . S
C217 O213 1.269 . S
C218 O219 1.249 . S
C218 O220 1.270 . S
O219 Zn211 1.943 . S
O219 C218 1.249 . S
O220 Zn210 2.067 . S
O220 C218 1.270 . S
C221 O214 1.262 . S
C221 O222 1.232 . S
O222 C221 1.232 . S
C223 O215 1.260 . S
C223 O216 1.257 . S
H224 C236 0.930 . S
H225 C238 0.930 . S
H226 C239 0.930 . S
H227 C243 0.959 . S
H228 C243 0.959 . S
H229 C243 0.961 . S
H230 C244 0.960 . S
H231 C244 0.961 . S
H232 C244 0.959 . S
H233 C247 0.929 . S
H234 C248 0.931 . S
H235 C250 0.930 . S
C236 H224 0.930 . S
C236 C237 1.399 . S
C236 C241 1.399 . S
C237 C236 1.399 . S
C237 C238 1.376 . S
C238 H225 0.930 . S
C238 C237 1.376 . S
C238 C239 1.388 . S
C239 H226 0.930 . S
C239 C238 1.388 . S
C239 C240 1.390 . S
C240 C239 1.390 . S
C240 C241 1.394 . S
C240 C246 1.465 . S
C241 C236 1.399 . S
C241 C240 1.394 . S
C241 C242 1.516 . S
C242 C241 1.516 . S
C242 C243 1.502 . S
C242 C244 1.561 . S
C242 C245 1.526 . S
C243 H227 0.959 . S
C243 H228 0.959 . S
C243 H229 0.961 . S
C243 C242 1.502 . S
C244 H230 0.960 . S
C244 H231 0.961 . S
C244 H232 0.959 . S
C244 C242 1.561 . S
C245 C242 1.526 . S
C245 C246 1.396 . S
C245 C250 1.390 . S
C246 C240 1.465 . S
C246 C245 1.396 . S
C246 C247 1.399 . S
C247 H233 0.929 . S
C247 C246 1.399 . S
C247 C248 1.385 . S
C248 H234 0.931 . S
C248 C247 1.385 . S
C248 C249 1.389 . S
C249 C248 1.389 . S
C249 C250 1.387 . S
C250 H235 0.930 . S
C250 C245 1.390 . S
C250 C249 1.387 . S
H251 C263 0.930 . S
H252 C265 0.930 . S
H253 C266 0.930 . S
H254 C270 0.959 . S
H255 C270 0.959 . S
H256 C270 0.961 . S
H257 C271 0.960 . S
H258 C271 0.961 . S
H259 C271 0.959 . S
H260 C274 0.929 . S
H261 C275 0.931 . S
H262 C277 0.930 . S
C263 H251 0.930 . S
C263 C264 1.399 . S
C263 C268 1.399 . S
C264 C263 1.399 . S
C264 C265 1.376 . S
C265 H252 0.930 . S
C265 C264 1.376 . S
C265 C266 1.388 . S
C266 H253 0.930 . S
C266 C265 1.388 . S
C266 C267 1.390 . S
C267 C266 1.390 . S
C267 C268 1.394 . S
C267 C273 1.465 . S
C268 C263 1.399 . S
C268 C267 1.394 . S
C268 C269 1.516 . S
C269 C268 1.516 . S
C269 C270 1.502 . S
C269 C271 1.561 . S
C269 C272 1.526 . S
C270 H254 0.959 . S
C270 H255 0.959 . S
C270 H256 0.961 . S
C270 C269 1.502 . S
C271 H257 0.960 . S
C271 H258 0.961 . S
C271 H259 0.959 . S
C271 C269 1.561 . S
C272 C269 1.526 . S
C272 C273 1.396 . S
C272 C277 1.390 . S
C273 C267 1.465 . S
C273 C272 1.396 . S
C273 C274 1.399 . S
C274 H260 0.929 . S
C274 C273 1.399 . S
C274 C275 1.385 . S
C275 H261 0.931 . S
C275 C274 1.385 . S
C275 C276 1.389 . S
C276 C275 1.389 . S
C276 C277 1.387 . S
C277 H262 0.930 . S
C277 C272 1.390 . S
C277 C276 1.387 . S
H278 C290 0.930 . S
H279 C292 0.930 . S
H280 C293 0.930 . S
H281 C297 0.959 . S
H282 C297 0.959 . S
H283 C297 0.961 . S
H284 C298 0.960 . S
H285 C298 0.961 . S
H286 C298 0.959 . S
H287 C301 0.929 . S
H288 C302 0.931 . S
H289 C304 0.930 . S
C290 H278 0.930 . S
C290 C291 1.399 . S
C290 C295 1.399 . S
C291 C290 1.399 . S
C291 C292 1.376 . S
C292 H279 0.930 . S
C292 C291 1.376 . S
C292 C293 1.388 . S
C293 H280 0.930 . S
C293 C292 1.388 . S
C293 C294 1.390 . S
C294 C293 1.390 . S
C294 C295 1.394 . S
C294 C300 1.465 . S
C295 C290 1.399 . S
C295 C294 1.394 . S
C295 C296 1.516 . S
C296 C295 1.516 . S
C296 C297 1.502 . S
C296 C298 1.561 . S
C296 C299 1.526 . S
C297 H281 0.959 . S
C297 H282 0.959 . S
C297 H283 0.961 . S
C297 C296 1.502 . S
C298 H284 0.960 . S
C298 H285 0.961 . S
C298 H286 0.959 . S
C298 C296 1.561 . S
C299 C296 1.526 . S
C299 C300 1.396 . S
C299 C304 1.390 . S
C300 C294 1.465 . S
C300 C299 1.396 . S
C300 C301 1.399 . S
C301 H287 0.929 . S
C301 C300 1.399 . S
C301 C302 1.385 . S
C302 H288 0.931 . S
C302 C301 1.385 . S
C302 C303 1.389 . S
C303 C302 1.389 . S
C303 C304 1.387 . S
C304 H289 0.930 . S
C304 C299 1.390 . S
C304 C303 1.387 . S
H305 C317 0.930 . S
H306 C319 0.930 . S
H307 C320 0.930 . S
H308 C324 0.959 . S
H309 C324 0.959 . S
H310 C324 0.961 . S
H311 C325 0.960 . S
H312 C325 0.961 . S
H313 C325 0.959 . S
H314 C328 0.929 . S
H315 C329 0.931 . S
H316 C331 0.930 . S
C317 H305 0.930 . S
C317 C318 1.399 . S
C317 C322 1.399 . S
C318 C317 1.399 . S
C318 C319 1.376 . S
C319 H306 0.930 . S
C319 C318 1.376 . S
C319 C320 1.388 . S
C320 H307 0.930 . S
C320 C319 1.388 . S
C320 C321 1.390 . S
C321 C320 1.390 . S
C321 C322 1.394 . S
C321 C327 1.465 . S
C322 C317 1.399 . S
C322 C321 1.394 . S
C322 C323 1.516 . S
C323 C322 1.516 . S
C323 C324 1.502 . S
C323 C325 1.561 . S
C323 C326 1.526 . S
C324 H308 0.959 . S
C324 H309 0.959 . S
C324 H310 0.961 . S
C324 C323 1.502 . S
C325 H311 0.960 . S
C325 H312 0.961 . S
C325 H313 0.959 . S
C325 C323 1.561 . S
C326 C323 1.526 . S
C326 C327 1.396 . S
C326 C331 1.390 . S
C327 C321 1.465 . S
C327 C326 1.396 . S
C327 C328 1.399 . S
C328 H314 0.929 . S
C328 C327 1.399 . S
C328 C329 1.385 . S
C329 H315 0.931 . S
C329 C328 1.385 . S
C329 C330 1.389 . S
C330 C329 1.389 . S
C330 C331 1.387 . S
C331 H316 0.930 . S
C331 C326 1.390 . S
C331 C330 1.387 . S
H332 C344 0.930 . S
H333 C346 0.930 . S
H334 C347 0.930 . S
H335 C351 0.959 . S
H336 C351 0.959 . S
H337 C351 0.961 . S
H338 C352 0.960 . S
H339 C352 0.961 . S
H340 C352 0.959 . S
H341 C355 0.929 . S
H342 C356 0.931 . S
H343 C358 0.930 . S
C344 H332 0.930 . S
C344 C345 1.399 . S
C344 C349 1.399 . S
C345 C344 1.399 . S
C345 C346 1.376 . S
C346 H333 0.930 . S
C346 C345 1.376 . S
C346 C347 1.388 . S
C347 H334 0.930 . S
C347 C346 1.388 . S
C347 C348 1.390 . S
C348 C347 1.390 . S
C348 C349 1.394 . S
C348 C354 1.465 . S
C349 C344 1.399 . S
C349 C348 1.394 . S
C349 C350 1.516 . S
C350 C349 1.516 . S
C350 C351 1.502 . S
C350 C352 1.561 . S
C350 C353 1.526 . S
C351 H335 0.959 . S
C351 H336 0.959 . S
C351 H337 0.961 . S
C351 C350 1.502 . S
C352 H338 0.960 . S
C352 H339 0.961 . S
C352 H340 0.959 . S
C352 C350 1.561 . S
C353 C350 1.526 . S
C353 C354 1.396 . S
C353 C358 1.390 . S
C354 C348 1.465 . S
C354 C353 1.396 . S
C354 C355 1.399 . S
C355 H341 0.929 . S
C355 C354 1.399 . S
C355 C356 1.385 . S
C356 H342 0.931 . S
C356 C355 1.385 . S
C356 C357 1.389 . S
C357 C356 1.389 . S
C357 C358 1.387 . S
C358 H343 0.930 . S
C358 C353 1.390 . S
C358 C357 1.387 . S
H359 C371 0.930 . S
H360 C373 0.930 . S
H361 C374 0.930 . S
H362 C378 0.959 . S
H363 C378 0.959 . S
H364 C378 0.961 . S
H365 C379 0.960 . S
H366 C379 0.961 . S
H367 C379 0.959 . S
H368 C382 0.929 . S
H369 C383 0.931 . S
H370 C385 0.930 . S
C371 H359 0.930 . S
C371 C372 1.399 . S
C371 C376 1.399 . S
C372 C371 1.399 . S
C372 C373 1.376 . S
C373 H360 0.930 . S
C373 C372 1.376 . S
C373 C374 1.388 . S
C374 H361 0.930 . S
C374 C373 1.388 . S
C374 C375 1.390 . S
C375 C374 1.390 . S
C375 C376 1.394 . S
C375 C381 1.465 . S
C376 C371 1.399 . S
C376 C375 1.394 . S
C376 C377 1.516 . S
C377 C376 1.516 . S
C377 C378 1.502 . S
C377 C379 1.561 . S
C377 C380 1.526 . S
C378 H362 0.959 . S
C378 H363 0.959 . S
C378 H364 0.961 . S
C378 C377 1.502 . S
C379 H365 0.960 . S
C379 H366 0.961 . S
C379 H367 0.959 . S
C379 C377 1.561 . S
C380 C377 1.526 . S
C380 C381 1.396 . S
C380 C385 1.390 . S
C381 C375 1.465 . S
C381 C380 1.396 . S
C381 C382 1.399 . S
C382 H368 0.929 . S
C382 C381 1.399 . S
C382 C383 1.385 . S
C383 H369 0.931 . S
C383 C382 1.385 . S
C383 C384 1.389 . S
C384 C383 1.389 . S
C384 C385 1.387 . S
C385 H370 0.930 . S
C385 C380 1.390 . S
C385 C384 1.387 . S
H386 C398 0.930 . S
H387 C400 0.930 . S
H388 C401 0.930 . S
H389 C405 0.959 . S
H390 C405 0.959 . S
H391 C405 0.961 . S
H392 C406 0.960 . S
H393 C406 0.961 . S
H394 C406 0.959 . S
H395 C409 0.929 . S
H396 C410 0.931 . S
H397 C412 0.930 . S
C398 H386 0.930 . S
C398 C399 1.399 . S
C398 C403 1.399 . S
C399 C398 1.399 . S
C399 C400 1.376 . S
C400 H387 0.930 . S
C400 C399 1.376 . S
C400 C401 1.388 . S
C401 H388 0.930 . S
C401 C400 1.388 . S
C401 C402 1.390 . S
C402 C401 1.390 . S
C402 C403 1.394 . S
C402 C408 1.465 . S
C403 C398 1.399 . S
C403 C402 1.394 . S
C403 C404 1.516 . S
C404 C403 1.516 . S
C404 C405 1.502 . S
C404 C406 1.561 . S
C404 C407 1.526 . S
C405 H389 0.959 . S
C405 H390 0.959 . S
C405 H391 0.961 . S
C405 C404 1.502 . S
C406 H392 0.960 . S
C406 H393 0.961 . S
C406 H394 0.959 . S
C406 C404 1.561 . S
C407 C404 1.526 . S
C407 C408 1.396 . S
C407 C412 1.390 . S
C408 C402 1.465 . S
C408 C407 1.396 . S
C408 C409 1.399 . S
C409 H395 0.929 . S
C409 C408 1.399 . S
C409 C410 1.385 . S
C410 H396 0.931 . S
C410 C409 1.385 . S
C410 C411 1.389 . S
C411 C410 1.389 . S
C411 C412 1.387 . S
C412 H397 0.930 . S
C412 C407 1.390 . S
C412 C411 1.387 . S
H413 C425 0.930 . S
H414 C427 0.930 . S
H415 C428 0.930 . S
H416 C432 0.959 . S
H417 C432 0.959 . S
H418 C432 0.961 . S
H419 C433 0.960 . S
H420 C433 0.961 . S
H421 C433 0.959 . S
H422 C436 0.929 . S
H423 C437 0.931 . S
H424 C439 0.930 . S
C425 H413 0.930 . S
C425 C426 1.399 . S
C425 C430 1.399 . S
C426 C425 1.399 . S
C426 C427 1.376 . S
C427 H414 0.930 . S
C427 C426 1.376 . S
C427 C428 1.388 . S
C428 H415 0.930 . S
C428 C427 1.388 . S
C428 C429 1.390 . S
C429 C428 1.390 . S
C429 C430 1.394 . S
C429 C435 1.465 . S
C430 C425 1.399 . S
C430 C429 1.394 . S
C430 C431 1.516 . S
C431 C430 1.516 . S
C431 C432 1.502 . S
C431 C433 1.561 . S
C431 C434 1.526 . S
C432 H416 0.959 . S
C432 H417 0.959 . S
C432 H418 0.961 . S
C432 C431 1.502 . S
C433 H419 0.960 . S
C433 H420 0.961 . S
C433 H421 0.959 . S
C433 C431 1.561 . S
C434 C431 1.526 . S
C434 C435 1.396 . S
C434 C439 1.390 . S
C435 C429 1.465 . S
C435 C434 1.396 . S
C435 C436 1.399 . S
C436 H422 0.929 . S
C436 C435 1.399 . S
C436 C437 1.385 . S
C437 H423 0.931 . S
C437 C436 1.385 . S
C437 C438 1.389 . S
C438 C437 1.389 . S
C438 C439 1.387 . S
C439 H424 0.930 . S
C439 C434 1.390 . S
C439 C438 1.387 . S
H440 C452 0.930 . S
H441 C454 0.930 . S
H442 C455 0.930 . S
H443 C459 0.959 . S
H444 C459 0.959 . S
H445 C459 0.961 . S
H446 C460 0.960 . S
H447 C460 0.961 . S
H448 C460 0.959 . S
H449 C463 0.929 1_565 S
H450 C464 0.931 . S
H451 C466 0.930 . S
C452 H440 0.930 . S
C452 C453 1.399 . S
C452 C457 1.399 . S
C453 C452 1.399 . S
C453 C454 1.376 . S
C454 H441 0.930 . S
C454 C453 1.376 . S
C454 C455 1.388 . S
C455 H442 0.930 . S
C455 C454 1.388 . S
C455 C456 1.390 . S
C456 C455 1.390 . S
C456 C457 1.394 . S
C456 C462 1.465 1_565 S
C457 C452 1.399 . S
C457 C456 1.394 . S
C457 C458 1.516 1_565 S
C458 C457 1.516 1_545 S
C458 C459 1.502 . S
C458 C460 1.561 . S
C458 C461 1.526 . S
C459 H443 0.959 . S
C459 H444 0.959 . S
C459 H445 0.961 . S
C459 C458 1.502 . S
C460 H446 0.960 . S
C460 H447 0.961 . S
C460 H448 0.959 . S
C460 C458 1.561 . S
C461 C458 1.526 . S
C461 C462 1.396 . S
C461 C466 1.390 . S
C462 C456 1.465 1_545 S
C462 C461 1.396 . S
C462 C463 1.399 . S
C463 H449 0.929 1_545 S
C463 C462 1.399 . S
C463 C464 1.385 . S
C464 H450 0.931 . S
C464 C463 1.385 . S
C464 C465 1.389 . S
C465 C464 1.389 . S
C465 C466 1.387 . S
C466 H451 0.930 . S
C466 C461 1.390 . S
C466 C465 1.387 . S
H467 C479 0.930 . S
H468 C481 0.930 . S
H469 C482 0.930 . S
H470 C486 0.959 . S
H471 C486 0.959 . S
H472 C486 0.961 . S
H473 C487 0.960 . S
H474 C487 0.961 . S
H475 C487 0.959 . S
H476 C490 0.929 . S
H477 C491 0.931 . S
H478 C493 0.930 . S
C479 H467 0.930 . S
C479 C480 1.399 . S
C479 C484 1.399 . S
C480 C479 1.399 . S
C480 C481 1.376 . S
C481 H468 0.930 . S
C481 C480 1.376 . S
C481 C482 1.388 . S
C482 H469 0.930 . S
C482 C481 1.388 . S
C482 C483 1.390 . S
C483 C482 1.390 . S
C483 C484 1.394 . S
C483 C489 1.465 . S
C484 C479 1.399 . S
C484 C483 1.394 . S
C484 C485 1.516 . S
C485 C484 1.516 . S
C485 C486 1.502 . S
C485 C487 1.561 . S
C485 C488 1.526 . S
C486 H470 0.959 . S
C486 H471 0.959 . S
C486 H472 0.961 . S
C486 C485 1.502 . S
C487 H473 0.960 . S
C487 H474 0.961 . S
C487 H475 0.959 . S
C487 C485 1.561 . S
C488 C485 1.526 . S
C488 C489 1.396 . S
C488 C493 1.390 . S
C489 C483 1.465 . S
C489 C488 1.396 . S
C489 C490 1.399 . S
C490 H476 0.929 . S
C490 C489 1.399 . S
C490 C491 1.385 . S
C491 H477 0.931 . S
C491 C490 1.385 . S
C491 C492 1.389 . S
C492 C491 1.389 . S
C492 C493 1.387 . S
C493 H478 0.930 . S
C493 C488 1.390 . S
C493 C492 1.387 . S
H494 C506 0.930 . S
H495 C508 0.930 . S
H496 C509 0.930 . S
H497 C513 0.959 . S
H498 C513 0.959 . S
H499 C513 0.961 . S
H500 C514 0.960 . S
H501 C514 0.961 1_554 S
H502 C514 0.959 1_554 S
H503 C517 0.929 . S
H504 C518 0.931 . S
H505 C520 0.930 . S
C506 H494 0.930 . S
C506 C507 1.399 . S
C506 C511 1.399 . S
C507 C506 1.399 . S
C507 C508 1.376 . S
C508 H495 0.930 . S
C508 C507 1.376 . S
C508 C509 1.388 . S
C509 H496 0.930 . S
C509 C508 1.388 . S
C509 C510 1.390 . S
C510 C509 1.390 . S
C510 C511 1.394 . S
C510 C516 1.465 1_556 S
C511 C506 1.399 . S
C511 C510 1.394 . S
C511 C512 1.516 . S
C512 C511 1.516 . S
C512 C513 1.502 . S
C512 C514 1.561 . S
C512 C515 1.526 1_556 S
C513 H497 0.959 . S
C513 H498 0.959 . S
C513 H499 0.961 . S
C513 C512 1.502 . S
C514 H500 0.960 . S
C514 H501 0.961 1_556 S
C514 H502 0.959 1_556 S
C514 C512 1.561 . S
C515 C512 1.526 1_554 S
C515 C516 1.396 . S
C515 C520 1.390 . S
C516 C510 1.465 1_554 S
C516 C515 1.396 . S
C516 C517 1.399 . S
C517 H503 0.929 . S
C517 C516 1.399 . S
C517 C518 1.385 . S
C518 H504 0.931 . S
C518 C517 1.385 . S
C518 C519 1.389 . S
C519 C518 1.389 . S
C519 C520 1.387 . S
C520 H505 0.930 . S
C520 C515 1.390 . S
C520 C519 1.387 . S
H521 C533 0.930 . S
H522 C535 0.930 . S
H523 C536 0.930 . S
H524 C540 0.959 . S
H525 C540 0.959 . S
H526 C540 0.961 . S
H527 C541 0.960 . S
H528 C541 0.961 1_556 S
H529 C541 0.959 . S
H530 C544 0.929 . S
H531 C545 0.931 . S
H532 C547 0.930 . S
C533 H521 0.930 . S
C533 C534 1.399 . S
C533 C538 1.399 . S
C534 C533 1.399 . S
C534 C535 1.376 . S
C535 H522 0.930 . S
C535 C534 1.376 . S
C535 C536 1.388 . S
C536 H523 0.930 . S
C536 C535 1.388 . S
C536 C537 1.390 . S
C537 C536 1.390 . S
C537 C538 1.394 . S
C537 C543 1.465 1_554 S
C538 C533 1.399 . S
C538 C537 1.394 . S
C538 C539 1.516 1_554 S
C539 C538 1.516 1_556 S
C539 C540 1.502 . S
C539 C541 1.561 1_556 S
C539 C542 1.526 . S
C540 H524 0.959 . S
C540 H525 0.959 . S
C540 H526 0.961 . S
C540 C539 1.502 . S
C541 H527 0.960 . S
C541 H528 0.961 1_554 S
C541 H529 0.959 . S
C541 C539 1.561 1_554 S
C542 C539 1.526 . S
C542 C543 1.396 . S
C542 C547 1.390 . S
C543 C537 1.465 1_556 S
C543 C542 1.396 . S
C543 C544 1.399 . S
C544 H530 0.929 . S
C544 C543 1.399 . S
C544 C545 1.385 . S
C545 H531 0.931 . S
C545 C544 1.385 . S
C545 C546 1.389 . S
C546 C545 1.389 . S
C546 C547 1.387 . S
C547 H532 0.930 . S
C547 C542 1.390 . S
C547 C546 1.387 . S
H548 C560 0.930 . S
H549 C562 0.930 . S
H550 C563 0.930 . S
H551 C567 0.959 . S
H552 C567 0.959 . S
H553 C567 0.961 . S
H554 C568 0.960 . S
H555 C568 0.961 . S
H556 C568 0.959 . S
H557 C571 0.929 . S
H558 C572 0.931 . S
H559 C574 0.930 . S
C560 H548 0.930 . S
C560 C561 1.399 . S
C560 C565 1.399 . S
C561 C560 1.399 . S
C561 C562 1.376 . S
C562 H549 0.930 . S
C562 C561 1.376 . S
C562 C563 1.388 . S
C563 H550 0.930 . S
C563 C562 1.388 . S
C563 C564 1.390 . S
C564 C563 1.390 . S
C564 C565 1.394 . S
C564 C570 1.465 . S
C565 C560 1.399 . S
C565 C564 1.394 . S
C565 C566 1.516 . S
C566 C565 1.516 . S
C566 C567 1.502 . S
C566 C568 1.561 . S
C566 C569 1.526 . S
C567 H551 0.959 . S
C567 H552 0.959 . S
C567 H553 0.961 . S
C567 C566 1.502 . S
C568 H554 0.960 . S
C568 H555 0.961 . S
C568 H556 0.959 . S
C568 C566 1.561 . S
C569 C566 1.526 . S
C569 C570 1.396 . S
C569 C574 1.390 . S
C570 C564 1.465 . S
C570 C569 1.396 . S
C570 C571 1.399 . S
C571 H557 0.929 . S
C571 C570 1.399 . S
C571 C572 1.385 . S
C572 H558 0.931 . S
C572 C571 1.385 . S
C572 C573 1.389 . S
C573 C572 1.389 . S
C573 C574 1.387 . S
C574 H559 0.930 . S
C574 C569 1.390 . S
C574 C573 1.387 . S
H575 C587 0.930 . S
H576 C589 0.930 . S
H577 C590 0.930 . S
H578 C594 0.959 . S
H579 C594 0.959 . S
H580 C594 0.961 . S
H581 C595 0.960 . S
H582 C595 0.961 . S
H583 C595 0.959 . S
H584 C598 0.929 . S
H585 C599 0.931 . S
H586 C601 0.930 . S
C587 H575 0.930 . S
C587 C588 1.399 . S
C587 C592 1.399 . S
C588 C587 1.399 . S
C588 C589 1.376 . S
C589 H576 0.930 . S
C589 C588 1.376 . S
C589 C590 1.388 . S
C590 H577 0.930 . S
C590 C589 1.388 . S
C590 C591 1.390 . S
C591 C590 1.390 . S
C591 C592 1.394 . S
C591 C597 1.465 . S
C592 C587 1.399 . S
C592 C591 1.394 . S
C592 C593 1.516 . S
C593 C592 1.516 . S
C593 C594 1.502 . S
C593 C595 1.561 . S
C593 C596 1.526 . S
C594 H578 0.959 . S
C594 H579 0.959 . S
C594 H580 0.961 . S
C594 C593 1.502 . S
C595 H581 0.960 . S
C595 H582 0.961 . S
C595 H583 0.959 . S
C595 C593 1.561 . S
C596 C593 1.526 . S
C596 C597 1.396 . S
C596 C601 1.390 . S
C597 C591 1.465 . S
C597 C596 1.396 . S
C597 C598 1.399 . S
C598 H584 0.929 . S
C598 C597 1.399 . S
C598 C599 1.385 . S
C599 H585 0.931 . S
C599 C598 1.385 . S
C599 C600 1.389 . S
C600 C599 1.389 . S
C600 C601 1.387 . S
C601 H586 0.930 . S
C601 C596 1.390 . S
C601 C600 1.387 . S
H602 C614 0.930 . S
H603 C616 0.930 . S
H604 C617 0.930 . S
H605 C621 0.959 . S
H606 C621 0.959 . S
H607 C621 0.961 . S
H608 C622 0.960 . S
H609 C622 0.961 1_455 S
H610 C622 0.959 . S
H611 C625 0.929 . S
H612 C626 0.931 . S
H613 C628 0.930 . S
C614 H602 0.930 . S
C614 C615 1.399 . S
C614 C619 1.399 . S
C615 C614 1.399 . S
C615 C616 1.376 . S
C616 H603 0.930 . S
C616 C615 1.376 . S
C616 C617 1.388 . S
C617 H604 0.930 . S
C617 C616 1.388 . S
C617 C618 1.390 . S
C618 C617 1.390 . S
C618 C619 1.394 . S
C618 C624 1.465 1_655 S
C619 C614 1.399 . S
C619 C618 1.394 . S
C619 C620 1.516 1_655 S
C620 C619 1.516 1_455 S
C620 C621 1.502 . S
C620 C622 1.561 1_455 S
C620 C623 1.526 . S
C621 H605 0.959 . S
C621 H606 0.959 . S
C621 H607 0.961 . S
C621 C620 1.502 . S
C622 H608 0.960 . S
C622 H609 0.961 1_655 S
C622 H610 0.959 . S
C622 C620 1.561 1_655 S
C623 C620 1.526 . S
C623 C624 1.396 . S
C623 C628 1.390 . S
C624 C618 1.465 1_455 S
C624 C623 1.396 . S
C624 C625 1.399 . S
C625 H611 0.929 . S
C625 C624 1.399 . S
C625 C626 1.385 . S
C626 H612 0.931 . S
C626 C625 1.385 . S
C626 C627 1.389 . S
C627 C626 1.389 . S
C627 C628 1.387 . S
C628 H613 0.930 . S
C628 C623 1.390 . S
C628 C627 1.387 . S
H629 C641 0.930 . S
H630 C643 0.930 . S
H631 C644 0.930 . S
H632 C648 0.959 . S
H633 C648 0.959 . S
H634 C648 0.961 . S
H635 C649 0.960 1_655 S
H636 C649 0.961 . S
H637 C649 0.959 . S
H638 C652 0.929 . S
H639 C653 0.931 . S
H640 C655 0.930 . S
C641 H629 0.930 . S
C641 C642 1.399 . S
C641 C646 1.399 . S
C642 C641 1.399 . S
C642 C643 1.376 . S
C643 H630 0.930 . S
C643 C642 1.376 . S
C643 C644 1.388 . S
C644 H631 0.930 . S
C644 C643 1.388 . S
C644 C645 1.390 . S
C645 C644 1.390 . S
C645 C646 1.394 . S
C645 C651 1.465 1_655 S
C646 C641 1.399 . S
C646 C645 1.394 . S
C646 C647 1.516 . S
C647 C646 1.516 . S
C647 C648 1.502 . S
C647 C649 1.561 1_655 S
C647 C650 1.526 1_655 S
C648 H632 0.959 . S
C648 H633 0.959 . S
C648 H634 0.961 . S
C648 C647 1.502 . S
C649 H635 0.960 1_455 S
C649 H636 0.961 . S
C649 H637 0.959 . S
C649 C647 1.561 1_455 S
C650 C647 1.526 1_455 S
C650 C651 1.396 . S
C650 C655 1.390 . S
C651 C645 1.465 1_455 S
C651 C650 1.396 . S
C651 C652 1.399 . S
C652 H638 0.929 . S
C652 C651 1.399 . S
C652 C653 1.385 . S
C653 H639 0.931 . S
C653 C652 1.385 . S
C653 C654 1.389 . S
C654 C653 1.389 . S
C654 C655 1.387 . S
C655 H640 0.930 . S
C655 C650 1.390 . S
C655 C654 1.387 . S
H656 C668 0.930 . S
H657 C670 0.930 . S
H658 C671 0.930 . S
H659 C675 0.959 . S
H660 C675 0.959 . S
H661 C675 0.961 . S
H662 C676 0.960 . S
H663 C676 0.961 . S
H664 C676 0.959 . S
H665 C679 0.929 . S
H666 C680 0.931 . S
H667 C682 0.930 . S
C668 H656 0.930 . S
C668 C669 1.399 . S
C668 C673 1.399 . S
C669 C668 1.399 . S
C669 C670 1.376 . S
C670 H657 0.930 . S
C670 C669 1.376 . S
C670 C671 1.388 . S
C671 H658 0.930 . S
C671 C670 1.388 . S
C671 C672 1.390 . S
C672 C671 1.390 . S
C672 C673 1.394 . S
C672 C678 1.465 . S
C673 C668 1.399 . S
C673 C672 1.394 . S
C673 C674 1.516 . S
C674 C673 1.516 . S
C674 C675 1.502 . S
C674 C676 1.561 . S
C674 C677 1.526 . S
C675 H659 0.959 . S
C675 H660 0.959 . S
C675 H661 0.961 . S
C675 C674 1.502 . S
C676 H662 0.960 . S
C676 H663 0.961 . S
C676 H664 0.959 . S
C676 C674 1.561 . S
C677 C674 1.526 . S
C677 C678 1.396 . S
C677 C682 1.390 . S
C678 C672 1.465 . S
C678 C677 1.396 . S
C678 C679 1.399 . S
C679 H665 0.929 . S
C679 C678 1.399 . S
C679 C680 1.385 . S
C680 H666 0.931 . S
C680 C679 1.385 . S
C680 C681 1.389 . S
C681 C680 1.389 . S
C681 C682 1.387 . S
C682 H667 0.930 . S
C682 C677 1.390 . S
C682 C681 1.387 . S
H683 C695 0.930 . S
H684 C697 0.930 . S
H685 C698 0.930 . S
H686 C702 0.959 . S
H687 C702 0.959 . S
H688 C702 0.961 . S
H689 C703 0.966 . S
H690 C703 0.961 . S
H691 C703 0.959 . S
H692 C706 0.929 . S
H693 C707 0.931 . S
H694 C709 0.930 . S
C695 H683 0.930 . S
C695 C696 1.399 . S
C695 C700 1.399 . S
C696 C695 1.399 . S
C696 C697 1.376 . S
C697 H684 0.930 . S
C697 C696 1.376 . S
C697 C698 1.388 . S
C698 H685 0.930 . S
C698 C697 1.388 . S
C698 C699 1.390 . S
C699 C698 1.390 . S
C699 C700 1.394 . S
C699 C705 1.465 1_545 S
C700 C695 1.399 . S
C700 C699 1.394 . S
C700 C701 1.516 . S
C701 C700 1.516 . S
C701 C702 1.502 . S
C701 C703 1.561 1_545 S
C701 C704 1.526 1_545 S
C702 H686 0.959 . S
C702 H687 0.959 . S
C702 H688 0.961 . S
C702 C701 1.502 . S
C703 H689 0.966 . S
C703 H690 0.961 . S
C703 H691 0.959 . S
C703 C701 1.561 1_565 S
C704 C701 1.526 1_565 S
C704 C705 1.396 . S
C704 C709 1.390 . S
C705 C699 1.465 1_565 S
C705 C704 1.396 . S
C705 C706 1.399 . S
C706 H692 0.929 . S
C706 C705 1.399 . S
C706 C707 1.385 . S
C707 H693 0.931 . S
C707 C706 1.385 . S
C707 C708 1.389 . S
C708 C707 1.389 . S
C708 C709 1.387 . S
C709 H694 0.930 . S
C709 C704 1.390 . S
C709 C708 1.387 . S
H710 C722 0.930 . S
H711 C724 0.930 . S
H712 C725 0.930 . S
H713 C729 0.959 . S
H714 C729 0.959 . S
H715 C729 0.961 . S
H716 C730 0.960 . S
H717 C730 0.961 . S
H718 C730 0.959 . S
H719 C733 0.929 . S
H720 C734 0.931 . S
H721 C736 0.930 . S
C722 H710 0.930 . S
C722 C723 1.399 . S
C722 C727 1.399 . S
C723 C722 1.399 . S
C723 C724 1.376 . S
C724 H711 0.930 . S
C724 C723 1.376 . S
C724 C725 1.388 . S
C725 H712 0.930 . S
C725 C724 1.388 . S
C725 C726 1.390 . S
C726 C725 1.390 . S
C726 C727 1.394 . S
C726 C732 1.465 . S
C727 C722 1.399 . S
C727 C726 1.394 . S
C727 C728 1.516 . S
C728 C727 1.516 . S
C728 C729 1.502 . S
C728 C730 1.561 . S
C728 C731 1.526 . S
C729 H713 0.959 . S
C729 H714 0.959 . S
C729 H715 0.961 . S
C729 C728 1.502 . S
C730 H716 0.960 . S
C730 H717 0.961 . S
C730 H718 0.959 . S
C730 C728 1.561 . S
C731 C728 1.526 . S
C731 C732 1.396 . S
C731 C736 1.390 . S
C732 C726 1.465 . S
C732 C731 1.396 . S
C732 C733 1.399 . S
C733 H719 0.929 . S
C733 C732 1.399 . S
C733 C734 1.385 . S
C734 H720 0.931 . S
C734 C733 1.385 . S
C734 C735 1.389 . S
C735 C734 1.389 . S
C735 C736 1.387 . S
C736 H721 0.930 . S
C736 C731 1.390 . S
C736 C735 1.387 . S
H737 C749 0.930 . S
H738 C751 0.930 . S
H739 C752 0.930 . S
H740 C756 0.959 . S
H741 C756 0.959 . S
H742 C756 0.961 . S
H743 C757 0.960 . S
H744 C757 0.961 1_556 S
H745 C757 0.959 1_556 S
H746 C760 0.929 . S
H747 C761 0.931 . S
H748 C763 0.930 . S
C749 H737 0.930 . S
C749 C750 1.399 . S
C749 C754 1.399 . S
C750 C749 1.399 . S
C750 C751 1.376 . S
C751 H738 0.930 . S
C751 C750 1.376 . S
C751 C752 1.388 . S
C752 H739 0.930 . S
C752 C751 1.388 . S
C752 C753 1.390 . S
C753 C752 1.390 . S
C753 C754 1.394 . S
C753 C759 1.465 1_554 S
C754 C749 1.399 . S
C754 C753 1.394 . S
C754 C755 1.516 . S
C755 C754 1.516 . S
C755 C756 1.502 . S
C755 C757 1.561 . S
C755 C758 1.526 1_554 S
C756 H740 0.959 . S
C756 H741 0.959 . S
C756 H742 0.961 . S
C756 C755 1.502 . S
C757 H743 0.960 . S
C757 H744 0.961 1_554 S
C757 H745 0.959 1_554 S
C757 C755 1.561 . S
C758 C755 1.526 1_556 S
C758 C759 1.396 . S
C758 C763 1.390 . S
C759 C753 1.465 1_556 S
C759 C758 1.396 . S
C759 C760 1.399 . S
C760 H746 0.929 . S
C760 C759 1.399 . S
C760 C761 1.385 . S
C761 H747 0.931 . S
C761 C760 1.385 . S
C761 C762 1.389 . S
C762 C761 1.389 . S
C762 C763 1.387 . S
C763 H748 0.930 . S
C763 C758 1.390 . S
C763 C762 1.387 . S
H764 C776 0.930 . S
H765 C778 0.930 . S
H766 C779 0.930 . S
H767 C783 0.959 . S
H768 C783 0.959 . S
H769 C783 0.961 . S
H770 C784 0.937 1_556 S
H771 C784 0.988 . S
H772 C784 0.944 1_556 S
H773 C787 0.929 . S
H774 C788 0.931 . S
H775 C790 0.930 . S
C776 H764 0.930 . S
C776 C777 1.399 . S
C776 C781 1.399 . S
C777 C776 1.399 . S
C777 C778 1.376 . S
C778 H765 0.930 . S
C778 C777 1.376 . S
C778 C779 1.388 . S
C779 H766 0.930 . S
C779 C778 1.388 . S
C779 C780 1.390 . S
C780 C779 1.390 . S
C780 C781 1.394 . S
C780 C786 1.465 1_556 S
C781 C776 1.399 . S
C781 C780 1.394 . S
C781 C782 1.516 1_556 S
C782 C781 1.516 1_554 S
C782 C783 1.502 . S
C782 C784 1.575 . S
C782 C785 1.526 . S
C783 H767 0.959 . S
C783 H768 0.959 . S
C783 H769 0.961 . S
C783 C782 1.502 . S
C784 H770 0.937 1_554 S
C784 H771 0.988 . S
C784 H772 0.944 1_554 S
C784 C782 1.575 . S
C785 C782 1.526 . S
C785 C786 1.396 . S
C785 C790 1.390 . S
C786 C780 1.465 1_554 S
C786 C785 1.396 . S
C786 C787 1.399 . S
C787 H773 0.929 . S
C787 C786 1.399 . S
C787 C788 1.385 . S
C788 H774 0.931 . S
C788 C787 1.385 . S
C788 C789 1.389 . S
C789 C788 1.389 . S
C789 C790 1.387 . S
C790 H775 0.930 . S
C790 C785 1.390 . S
C790 C789 1.387 . S
H791 C803 0.930 . S
H792 C805 0.930 . S
H793 C806 0.930 . S
H794 C810 0.959 . S
H795 C810 0.959 . S
H796 C810 0.961 . S
H797 C811 0.960 . S
H798 C811 0.961 . S
H799 C811 0.959 . S
H800 C814 0.929 . S
H801 C815 0.931 . S
H802 C817 0.930 . S
C803 H791 0.930 . S
C803 C804 1.399 . S
C803 C808 1.399 . S
C804 C803 1.399 . S
C804 C805 1.376 . S
C805 H792 0.930 . S
C805 C804 1.376 . S
C805 C806 1.388 . S
C806 H793 0.930 . S
C806 C805 1.388 . S
C806 C807 1.390 . S
C807 C806 1.390 . S
C807 C808 1.394 . S
C807 C813 1.465 . S
C808 C803 1.399 . S
C808 C807 1.394 . S
C808 C809 1.516 . S
C809 C808 1.516 . S
C809 C810 1.502 . S
C809 C811 1.561 . S
C809 C812 1.526 . S
C810 H794 0.959 . S
C810 H795 0.959 . S
C810 H796 0.961 . S
C810 C809 1.502 . S
C811 H797 0.960 . S
C811 H798 0.961 . S
C811 H799 0.959 . S
C811 C809 1.561 . S
C812 C809 1.526 . S
C812 C813 1.396 . S
C812 C817 1.390 . S
C813 C807 1.465 . S
C813 C812 1.396 . S
C813 C814 1.399 . S
C814 H800 0.929 . S
C814 C813 1.399 . S
C814 C815 1.385 . S
C815 H801 0.931 . S
C815 C814 1.385 . S
C815 C816 1.389 . S
C816 C815 1.389 . S
C816 C817 1.387 . S
C817 H802 0.930 . S
C817 C812 1.390 . S
C817 C816 1.387 . S
H818 C830 0.930 . S
H819 C832 0.930 . S
H820 C833 0.930 . S
H821 C837 0.959 . S
H822 C837 0.959 . S
H823 C837 0.961 . S
H824 C838 0.960 . S
H825 C838 0.961 . S
H826 C838 0.959 . S
H827 C841 0.929 . S
H828 C842 0.931 . S
H829 C844 0.930 . S
C830 H818 0.930 . S
C830 C831 1.399 . S
C830 C835 1.399 . S
C831 C830 1.399 . S
C831 C832 1.376 . S
C832 H819 0.930 . S
C832 C831 1.376 . S
C832 C833 1.388 . S
C833 H820 0.930 . S
C833 C832 1.388 . S
C833 C834 1.390 . S
C834 C833 1.390 . S
C834 C835 1.394 . S
C834 C840 1.465 . S
C835 C830 1.399 . S
C835 C834 1.394 . S
C835 C836 1.516 . S
C836 C835 1.516 . S
C836 C837 1.502 . S
C836 C838 1.561 . S
C836 C839 1.526 . S
C837 H821 0.959 . S
C837 H822 0.959 . S
C837 H823 0.961 . S
C837 C836 1.502 . S
C838 H824 0.960 . S
C838 H825 0.961 . S
C838 H826 0.959 . S
C838 C836 1.561 . S
C839 C836 1.526 . S
C839 C840 1.396 . S
C839 C844 1.390 . S
C840 C834 1.465 . S
C840 C839 1.396 . S
C840 C841 1.399 . S
C841 H827 0.929 . S
C841 C840 1.399 . S
C841 C842 1.385 . S
C842 H828 0.931 . S
C842 C841 1.385 . S
C842 C843 1.389 . S
C843 C842 1.389 . S
C843 C844 1.387 . S
C844 H829 0.930 . S
C844 C839 1.390 . S
C844 C843 1.387 . S
H845 C857 0.930 . S
H846 C859 0.930 . S
H847 C860 0.930 . S
H848 C864 0.959 . S
H849 C864 0.959 . S
H850 C864 0.961 . S
H851 C865 0.960 . S
H852 C865 0.961 1_655 S
H853 C865 0.959 . S
H854 C868 0.929 . S
H855 C869 0.931 . S
H856 C871 0.930 . S
C857 H845 0.930 . S
C857 C858 1.399 . S
C857 C862 1.399 . S
C858 C857 1.399 . S
C858 C859 1.376 . S
C859 H846 0.930 . S
C859 C858 1.376 . S
C859 C860 1.388 . S
C860 H847 0.930 . S
C860 C859 1.388 . S
C860 C861 1.390 . S
C861 C860 1.390 . S
C861 C862 1.394 . S
C861 C867 1.465 1_455 S
C862 C857 1.399 . S
C862 C861 1.394 . S
C862 C863 1.516 1_455 S
C863 C862 1.516 1_655 S
C863 C864 1.502 . S
C863 C865 1.561 1_655 S
C863 C866 1.526 . S
C864 H848 0.959 . S
C864 H849 0.959 . S
C864 H850 0.961 . S
C864 C863 1.502 . S
C865 H851 0.960 . S
C865 H852 0.961 1_455 S
C865 H853 0.959 . S
C865 C863 1.561 1_455 S
C866 C863 1.526 . S
C866 C867 1.396 . S
C866 C871 1.390 . S
C867 C861 1.465 1_655 S
C867 C866 1.396 . S
C867 C868 1.399 . S
C868 H854 0.929 . S
C868 C867 1.399 . S
C868 C869 1.385 . S
C869 H855 0.931 . S
C869 C868 1.385 . S
C869 C870 1.389 . S
C870 C869 1.389 . S
C870 C871 1.387 . S
C871 H856 0.930 . S
C871 C866 1.390 . S
C871 C870 1.387 . S
H872 C884 0.930 . S
H873 C886 0.930 . S
H874 C887 0.930 . S
H875 C891 0.959 . S
H876 C891 0.959 . S
H877 C891 0.961 . S
H878 C892 0.960 . S
H879 C892 0.961 . S
H880 C892 0.959 . S
H881 C895 0.929 . S
H882 C896 0.931 . S
H883 C898 0.930 . S
C884 H872 0.930 . S
C884 C885 1.399 . S
C884 C889 1.399 . S
C885 C884 1.399 . S
C885 C886 1.376 . S
C886 H873 0.930 . S
C886 C885 1.376 . S
C886 C887 1.388 . S
C887 H874 0.930 . S
C887 C886 1.388 . S
C887 C888 1.390 . S
C888 C887 1.390 . S
C888 C889 1.394 . S
C888 C894 1.465 1_455 S
C889 C884 1.399 . S
C889 C888 1.394 . S
C889 C890 1.516 . S
C890 C889 1.516 . S
C890 C891 1.502 . S
C890 C892 1.561 . S
C890 C893 1.526 1_455 S
C891 H875 0.959 . S
C891 H876 0.959 . S
C891 H877 0.961 . S
C891 C890 1.502 . S
C892 H878 0.960 . S
C892 H879 0.961 . S
C892 H880 0.959 . S
C892 C890 1.561 . S
C893 C890 1.526 1_655 S
C893 C894 1.396 . S
C893 C898 1.390 . S
C894 C888 1.465 1_655 S
C894 C893 1.396 . S
C894 C895 1.399 . S
C895 H881 0.929 . S
C895 C894 1.399 . S
C895 C896 1.385 . S
C896 H882 0.931 . S
C896 C895 1.385 . S
C896 C897 1.389 . S
C897 C896 1.389 . S
C897 C898 1.387 . S
C898 H883 0.930 . S
C898 C893 1.390 . S
C898 C897 1.387 . S
H899 C911 0.930 . S
H900 C913 0.930 . S
H901 C914 0.930 . S
H902 C918 0.959 . S
H903 C918 0.959 . S
H904 C918 0.961 . S
H905 C919 0.960 . S
H906 C919 0.961 . S
H907 C919 0.959 . S
H908 C922 0.929 . S
H909 C923 0.931 . S
H910 C925 0.930 . S
C911 H899 0.930 . S
C911 C912 1.399 . S
C911 C916 1.399 . S
C912 C911 1.399 . S
C912 C913 1.376 . S
C913 H900 0.930 . S
C913 C912 1.376 . S
C913 C914 1.388 . S
C914 H901 0.930 . S
C914 C913 1.388 . S
C914 C915 1.390 . S
C915 C914 1.390 . S
C915 C916 1.394 . S
C915 C921 1.465 . S
C916 C911 1.399 . S
C916 C915 1.394 . S
C916 C917 1.516 . S
C917 C916 1.516 . S
C917 C918 1.502 . S
C917 C919 1.561 . S
C917 C920 1.526 . S
C918 H902 0.959 . S
C918 H903 0.959 . S
C918 H904 0.961 . S
C918 C917 1.502 . S
C919 H905 0.960 . S
C919 H906 0.961 . S
C919 H907 0.959 . S
C919 C917 1.561 . S
C920 C917 1.526 . S
C920 C921 1.396 . S
C920 C925 1.390 . S
C921 C915 1.465 . S
C921 C920 1.396 . S
C921 C922 1.399 . S
C922 H908 0.929 . S
C922 C921 1.399 . S
C922 C923 1.385 . S
C923 H909 0.931 . S
C923 C922 1.385 . S
C923 C924 1.389 . S
C924 C923 1.389 . S
C924 C925 1.387 . S
C925 H910 0.930 . S
C925 C920 1.390 . S
C925 C924 1.387 . S
H926 C938 0.930 . S
H927 C940 0.930 . S
H928 C941 0.930 . S
H929 C945 0.959 . S
H930 C945 0.959 . S
H931 C945 0.961 . S
H932 C946 0.960 . S
H933 C946 0.961 . S
H934 C946 0.959 . S
H935 C949 0.929 . S
H936 C950 0.931 . S
H937 C952 0.930 . S
C938 H926 0.930 . S
C938 C939 1.399 . S
C938 C943 1.399 . S
C939 C938 1.399 . S
C939 C940 1.376 . S
C940 H927 0.930 . S
C940 C939 1.376 . S
C940 C941 1.388 . S
C941 H928 0.930 . S
C941 C940 1.388 . S
C941 C942 1.390 . S
C942 C941 1.390 . S
C942 C943 1.394 . S
C942 C948 1.465 . S
C943 C938 1.399 . S
C943 C942 1.394 . S
C943 C944 1.516 . S
C944 C943 1.516 . S
C944 C945 1.502 . S
C944 C946 1.561 . S
C944 C947 1.526 . S
C945 H929 0.959 . S
C945 H930 0.959 . S
C945 H931 0.961 . S
C945 C944 1.502 . S
C946 H932 0.960 . S
C946 H933 0.961 . S
C946 H934 0.959 . S
C946 C944 1.561 . S
C947 C944 1.526 . S
C947 C948 1.396 . S
C947 C952 1.390 . S
C948 C942 1.465 . S
C948 C947 1.396 . S
C948 C949 1.399 . S
C949 H935 0.929 . S
C949 C948 1.399 . S
C949 C950 1.385 . S
C950 H936 0.931 . S
C950 C949 1.385 . S
C950 C951 1.389 . S
C951 C950 1.389 . S
C951 C952 1.387 . S
C952 H937 0.930 . S
C952 C947 1.390 . S
C952 C951 1.387 . S
H953 C965 0.930 . S
H954 C967 0.930 . S
H955 C968 0.930 1_565 S
H956 C972 0.959 . S
H957 C972 0.959 . S
H958 C972 0.961 . S
H959 C973 0.960 . S
H960 C973 0.961 . S
H961 C973 0.959 . S
H962 C976 0.929 . S
H963 C977 0.931 . S
H964 C979 0.930 . S
C965 H953 0.930 . S
C965 C966 1.399 . S
C965 C970 1.399 . S
C966 C965 1.399 . S
C966 C967 1.376 . S
C967 H954 0.930 . S
C967 C966 1.376 . S
C967 C968 1.388 . S
C968 H955 0.930 1_545 S
C968 C967 1.388 . S
C968 C969 1.390 . S
C969 C968 1.390 . S
C969 C970 1.394 . S
C969 C975 1.465 1_545 S
C970 C965 1.399 . S
C970 C969 1.394 . S
C970 C971 1.516 . S
C971 C970 1.516 . S
C971 C972 1.502 . S
C971 C973 1.561 . S
C971 C974 1.526 1_545 S
C972 H956 0.959 . S
C972 H957 0.959 . S
C972 H958 0.961 . S
C972 C971 1.502 . S
C973 H959 0.960 . S
C973 H960 0.961 . S
C973 H961 0.959 . S
C973 C971 1.561 . S
C974 C971 1.526 1_565 S
C974 C975 1.396 . S
C974 C979 1.390 . S
C975 C969 1.465 1_565 S
C975 C974 1.396 . S
C975 C976 1.399 . S
C976 H962 0.929 . S
C976 C975 1.399 . S
C976 C977 1.385 . S
C977 H963 0.931 . S
C977 C976 1.385 . S
C977 C978 1.389 . S
C978 C977 1.389 . S
C978 C979 1.387 . S
C979 H964 0.930 . S
C979 C974 1.390 . S
C979 C978 1.387 . S
H980 C992 0.930 . S
H981 C994 0.930 . S
H982 C995 0.930 . S
H983 C999 0.959 . S
H984 C999 0.959 . S
H985 C999 0.961 . S
H986 C1000 0.960 . S
H987 C1000 0.961 . S
H988 C1000 0.959 . S
H989 C1003 0.929 . S
H990 C1004 0.931 . S
H991 C1006 0.930 . S
C992 H980 0.930 . S
C992 C993 1.399 . S
C992 C997 1.399 . S
C993 C992 1.399 . S
C993 C994 1.376 . S
C994 H981 0.930 . S
C994 C993 1.376 . S
C994 C995 1.388 . S
C995 H982 0.930 . S
C995 C994 1.388 . S
C995 C996 1.390 . S
C996 C995 1.390 . S
C996 C997 1.394 . S
C996 C1002 1.465 . S
C997 C992 1.399 . S
C997 C996 1.394 . S
C997 C998 1.516 . S
C998 C997 1.516 . S
C998 C999 1.502 . S
C998 C1000 1.561 . S
C998 C1001 1.526 . S
C999 H983 0.959 . S
C999 H984 0.959 . S
C999 H985 0.961 . S
C999 C998 1.502 . S
C1000 H986 0.960 . S
C1000 H987 0.961 . S
C1000 H988 0.959 . S
C1000 C998 1.561 . S
C1001 C998 1.526 . S
C1001 C1002 1.396 . S
C1001 C1006 1.390 . S
C1002 C996 1.465 . S
C1002 C1001 1.396 . S
C1002 C1003 1.399 . S
C1003 H989 0.929 . S
C1003 C1002 1.399 . S
C1003 C1004 1.385 . S
C1004 H990 0.931 . S
C1004 C1003 1.385 . S
C1004 C1005 1.389 . S
C1005 C1004 1.389 . S
C1005 C1006 1.387 . S
C1006 H991 0.930 . S
C1006 C1001 1.390 . S
C1006 C1005 1.387 . S
H1007 C1019 0.930 . S
H1008 C1021 0.930 . S
H1009 C1022 0.930 . S
H1010 C1026 0.959 . S
H1011 C1026 0.959 . S
H1012 C1026 0.961 . S
H1013 C1027 0.960 . S
H1014 C1027 0.961 . S
H1015 C1027 0.959 . S
H1016 C1030 0.929 . S
H1017 C1031 0.931 . S
H1018 C1033 0.930 . S
C1019 H1007 0.930 . S
C1019 C1020 1.399 . S
C1019 C1024 1.399 . S
C1020 C1019 1.399 . S
C1020 C1021 1.376 . S
C1021 H1008 0.930 . S
C1021 C1020 1.376 . S
C1021 C1022 1.388 . S
C1022 H1009 0.930 . S
C1022 C1021 1.388 . S
C1022 C1023 1.390 . S
C1023 C1022 1.390 . S
C1023 C1024 1.394 . S
C1023 C1029 1.465 . S
C1024 C1019 1.399 . S
C1024 C1023 1.394 . S
C1024 C1025 1.516 . S
C1025 C1024 1.516 . S
C1025 C1026 1.502 . S
C1025 C1027 1.561 . S
C1025 C1028 1.526 . S
C1026 H1010 0.959 . S
C1026 H1011 0.959 . S
C1026 H1012 0.961 . S
C1026 C1025 1.502 . S
C1027 H1013 0.960 . S
C1027 H1014 0.961 . S
C1027 H1015 0.959 . S
C1027 C1025 1.561 . S
C1028 C1025 1.526 . S
C1028 C1029 1.396 . S
C1028 C1033 1.390 . S
C1029 C1023 1.465 . S
C1029 C1028 1.396 . S
C1029 C1030 1.399 . S
C1030 H1016 0.929 . S
C1030 C1029 1.399 . S
C1030 C1031 1.385 . S
C1031 H1017 0.931 . S
C1031 C1030 1.385 . S
C1031 C1032 1.389 . S
C1032 C1031 1.389 . S
C1032 C1033 1.387 . S
C1033 H1018 0.930 . S
C1033 C1028 1.390 . S
C1033 C1032 1.387 . S
H1034 C1046 0.930 . S
H1035 C1048 0.930 . S
H1036 C1049 0.930 . S
H1037 C1053 0.979 . S
H1038 C1053 0.928 1_565 S
H1039 C1053 0.981 . S
H1040 C1054 0.960 . S
H1041 C1054 0.961 . S
H1042 C1054 0.959 . S
H1043 C1057 0.929 . S
H1044 C1058 0.931 . S
H1045 C1060 0.930 . S
C1046 H1034 0.930 . S
C1046 C1047 1.399 . S
C1046 C1051 1.399 . S
C1047 C1046 1.399 . S
C1047 C1048 1.376 . S
C1048 H1035 0.930 . S
C1048 C1047 1.376 . S
C1048 C1049 1.388 . S
C1049 H1036 0.930 . S
C1049 C1048 1.388 . S
C1049 C1050 1.390 . S
C1050 C1049 1.390 . S
C1050 C1051 1.394 . S
C1050 C1056 1.465 1_545 S
C1051 C1046 1.399 . S
C1051 C1050 1.394 . S
C1051 C1052 1.516 1_545 S
C1052 C1051 1.516 1_565 S
C1052 C1053 1.495 1_565 S
C1052 C1054 1.561 . S
C1052 C1055 1.526 . S
C1053 H1037 0.979 . S
C1053 H1038 0.928 1_545 S
C1053 H1039 0.981 . S
C1053 C1052 1.495 1_545 S
C1054 H1040 0.960 . S
C1054 H1041 0.961 . S
C1054 H1042 0.959 . S
C1054 C1052 1.561 . S
C1055 C1052 1.526 . S
C1055 C1056 1.396 . S
C1055 C1060 1.390 . S
C1056 C1050 1.465 1_565 S
C1056 C1055 1.396 . S
C1056 C1057 1.399 . S
C1057 H1043 0.929 . S
C1057 C1056 1.399 . S
C1057 C1058 1.385 . S
C1058 H1044 0.931 . S
C1058 C1057 1.385 . S
C1058 C1059 1.389 . S
C1059 C1058 1.389 . S
C1059 C1060 1.387 . S
C1060 H1045 0.930 . S
C1060 C1055 1.390 . S
C1060 C1059 1.387 . S
H1061 C1073 0.930 . S
H1062 C1075 0.930 . S
H1063 C1076 0.930 . S
H1064 C1080 0.959 . S
H1065 C1080 0.959 . S
H1066 C1080 0.961 . S
H1067 C1081 0.960 . S
H1068 C1081 0.961 . S
H1069 C1081 0.959 . S
H1070 C1084 0.929 . S
H1071 C1085 0.931 . S
H1072 C1087 0.930 . S
C1073 H1061 0.930 . S
C1073 C1074 1.399 . S
C1073 C1078 1.399 . S
C1074 C1073 1.399 . S
C1074 C1075 1.376 . S
C1075 H1062 0.930 . S
C1075 C1074 1.376 . S
C1075 C1076 1.388 . S
C1076 H1063 0.930 . S
C1076 C1075 1.388 . S
C1076 C1077 1.390 . S
C1077 C1076 1.390 . S
C1077 C1078 1.394 . S
C1077 C1083 1.465 . S
C1078 C1073 1.399 . S
C1078 C1077 1.394 . S
C1078 C1079 1.516 . S
C1079 C1078 1.516 . S
C1079 C1080 1.502 . S
C1079 C1081 1.561 . S
C1079 C1082 1.526 . S
C1080 H1064 0.959 . S
C1080 H1065 0.959 . S
C1080 H1066 0.961 . S
C1080 C1079 1.502 . S
C1081 H1067 0.960 . S
C1081 H1068 0.961 . S
C1081 H1069 0.959 . S
C1081 C1079 1.561 . S
C1082 C1079 1.526 . S
C1082 C1083 1.396 . S
C1082 C1087 1.390 . S
C1083 C1077 1.465 . S
C1083 C1082 1.396 . S
C1083 C1084 1.399 . S
C1084 H1070 0.929 . S
C1084 C1083 1.399 . S
C1084 C1085 1.385 . S
C1085 H1071 0.931 . S
C1085 C1084 1.385 . S
C1085 C1086 1.389 . S
C1086 C1085 1.389 . S
C1086 C1087 1.387 . S
C1087 H1072 0.930 . S
C1087 C1082 1.390 . S
C1087 C1086 1.387 . S
C237 C8 1.337 . S
C249 C190 1.381 . S
C264 C22 1.232 . S
C276 C134 1.167 . S
C291 C204 1.048 . S
C303 C36 1.088 . S
C318 C50 0.972 . S
C330 C218 1.046 . S
C345 C64 1.190 . S
C357 C92 1.230 . S
C372 C148 1.353 . S
C384 C78 1.388 . S
C399 C162 1.063 . S
C411 C106 1.087 . S
C426 C120 0.986 . S
C438 C176 1.009 . S
C453 C41 1.564 . S
C465 C7 1.714 . S
C480 C21 1.510 . S
C492 C55 1.416 . S
C507 C175 1.482 . S
C519 C11 1.467 . S
C534 C25 1.445 . S
C546 C161 1.446 . S
C561 C67 1.452 . S
C573 C35 1.474 . S
C588 C151 1.477 . S
C600 C49 1.475 . S
C615 C27 1.563 . S
C627 C13 1.564 . S
C642 C53 1.472 . S
C654 C39 1.457 . S
C669 C153 1.488 . S
C681 C69 1.486 . S
C696 C105 1.491 . S
C708 C83 1.305 . S
C723 C97 1.314 . S
C735 C125 1.376 . S
C750 C221 1.568 . S
C762 C81 1.568 . S
C777 C95 1.618 . S
C789 C209 1.546 . S
C804 C137 1.636 . S
C816 C111 1.484 . S
C831 C123 1.567 . S
C843 C193 1.567 . S
C858 C91 1.747 . S
C870 C77 1.734 . S
C885 C119 1.331 . S
C897 C109 1.336 . S
C912 C133 1.753 . S
C924 C189 1.763 . S
C939 C147 1.706 . S
C951 C167 1.611 . S
C966 C181 1.469 . S
C978 C63 1.497 . S
C993 C179 1.440 . S
C1005 C165 1.455 . S
C1020 C203 1.492 . S
C1032 C195 1.367 . S
C1047 C139 1.335 . S
C1059 C223 1.348 . S
C1074 C217 1.354 . S
C1086 C207 1.355 . S
