# Generated by pormake.
# Topology unj, (4)-cn, num edge types: 1
# Building blocks:
#     Node 0, Type 0, BuildingBlock: GALJAG_clean_sbu_0, # of connection points: 4
#     Node 1, Type 0, BuildingBlock: GALJAG_clean_sbu_0, # of connection points: 4
#     Node 2, Type 0, BuildingBlock: GALJAG_clean_sbu_0, # of connection points: 4
#     Node 3, Type 0, BuildingBlock: GALJAG_clean_sbu_0, # of connection points: 4
#     Node 4, Type 0, BuildingBlock: GALJAG_clean_sbu_0, # of connection points: 4
#     Node 5, Type 0, BuildingBlock: GALJAG_clean_sbu_0, # of connection points: 4
#     Edge 6, Type (0, 0), BuildingBlock: TEMPAE_clean_linker_10, # of connection points: 2
#     Edge 7, Type (0, 0), BuildingBlock: TEMPAE_clean_linker_10, # of connection points: 2
#     Edge 8, Type (0, 0), BuildingBlock: TEMPAE_clean_linker_10, # of connection points: 2
#     Edge 9, Type (0, 0), BuildingBlock: TEMPAE_clean_linker_10, # of connection points: 2
#     Edge 10, Type (0, 0), BuildingBlock: TEMPAE_clean_linker_10, # of connection points: 2
#     Edge 11, Type (0, 0), BuildingBlock: TEMPAE_clean_linker_10, # of connection points: 2
#     Edge 12, Type (0, 0), BuildingBlock: TEMPAE_clean_linker_10, # of connection points: 2
#     Edge 13, Type (0, 0), BuildingBlock: TEMPAE_clean_linker_10, # of connection points: 2
#     Edge 14, Type (0, 0), BuildingBlock: TEMPAE_clean_linker_10, # of connection points: 2
#     Edge 15, Type (0, 0), BuildingBlock: TEMPAE_clean_linker_10, # of connection points: 2
#     Edge 16, Type (0, 0), BuildingBlock: TEMPAE_clean_linker_10, # of connection points: 2
#     Edge 17, Type (0, 0), BuildingBlock: TEMPAE_clean_linker_10, # of connection points: 2
# Relax obj value: 0.013
# Max RMSD: 0.059
# Mean RMSD: 0.059
data_MOF--net-unj--node1-GALJAG_clean_sbu_0--edge1-TEMPAE_clean_linker_10
_symmetry_space_group_name_H-M    P1
_symmetry_Int_Tables_number       1
_symmetry_cell_setting            triclinic
loop_
_symmetry_equiv_pos_as_xyz
'x, y, z'
_cell_length_a     31.540852
_cell_length_b     31.453936
_cell_length_c     40.555385
_cell_angle_alpha  90.018521
_cell_angle_beta   90.005388
_cell_angle_gamma 120.04125
loop_
_atom_site_label
_atom_site_type_symbol
_atom_site_fract_x
_atom_site_fract_y
_atom_site_fract_z
_atom_type_partial_charge
In0 In 0.49516 0.24785 0.58344 0.0
O1 O 0.56238 0.28158 0.54953 0.0
O2 O 0.50015 0.28667 0.53535 0.0
C3 C 0.54163 0.24696 0.63904 0.0
C4 C 0.444 0.15762 0.55644 0.0
C5 C 0.44877 0.29083 0.61147 0.0
O6 O 0.56341 0.27808 0.61642 0.0
O7 O 0.49758 0.21589 0.63291 0.0
O8 O 0.43082 0.24489 0.61083 0.0
O9 O 0.48956 0.31514 0.59718 0.0
C10 C 0.54278 0.2957 0.52824 0.0
O11 O 0.42863 0.18771 0.55651 0.0
O12 O 0.48484 0.17275 0.57036 0.0
In13 In 0.24944 0.50518 0.75601 0.0
O14 O 0.24604 0.43837 0.73217 0.0
O15 O 0.31638 0.49729 0.74541 0.0
C16 C 0.15725 0.45967 0.77969 0.0
C17 C 0.25273 0.54989 0.69861 0.0
C18 C 0.29496 0.55088 0.8123 0.0
O19 O 0.18492 0.44164 0.78169 0.0
O20 O 0.17554 0.50041 0.765 0.0
O21 O 0.29205 0.57432 0.78788 0.0
O22 O 0.27648 0.50536 0.80768 0.0
C23 C 0.2917 0.45543 0.73234 0.0
O24 O 0.27588 0.5741 0.72383 0.0
O25 O 0.22736 0.50416 0.70292 0.0
In26 In 0.73635 0.24802 0.9154 0.0
O27 O 0.69756 0.27768 0.88268 0.0
O28 O 0.70266 0.21637 0.86576 0.0
C29 C 0.73402 0.29112 0.97232 0.0
C30 C 0.82682 0.29429 0.88902 0.0
C31 C 0.69761 0.15697 0.94063 0.0
O32 O 0.70408 0.28337 0.94918 0.0
O33 O 0.76539 0.27858 0.96612 0.0
O34 O 0.74306 0.18682 0.94011 0.0
O35 O 0.67157 0.17256 0.92772 0.0
C36 C 0.68892 0.24696 0.85985 0.0
O37 O 0.79942 0.24831 0.88814 0.0
O38 O 0.80913 0.31709 0.9039 0.0
In39 In 0.48904 0.74515 0.08898 0.0
O40 O 0.42198 0.71237 0.05477 0.0
O41 O 0.48415 0.70729 0.0405 0.0
C42 C 0.44066 0.74496 0.14386 0.0
C43 C 0.53975 0.835 0.06166 0.0
C44 C 0.53763 0.70407 0.11661 0.0
O45 O 0.42112 0.71152 0.12232 0.0
O46 O 0.48353 0.77853 0.1371 0.0
O47 O 0.55373 0.74971 0.11712 0.0
O48 O 0.49743 0.67918 0.10174 0.0
C49 C 0.44176 0.69882 0.03324 0.0
O50 O 0.55499 0.80481 0.06145 0.0
O51 O 0.49949 0.82035 0.07625 0.0
In52 In 0.73908 0.48385 0.25084 0.0
O53 O 0.70404 0.4165 0.21649 0.0
O54 O 0.7704 0.47892 0.20154 0.0
C55 C 0.69313 0.4429 0.30788 0.0
C56 C 0.6994 0.53701 0.22855 0.0
C57 C 0.82995 0.52376 0.27611 0.0
O58 O 0.69311 0.41739 0.28373 0.0
O59 O 0.71513 0.48865 0.30277 0.0
O60 O 0.81306 0.54946 0.26445 0.0
O61 O 0.80148 0.47796 0.27436 0.0
C62 C 0.73645 0.4364 0.19448 0.0
O63 O 0.74472 0.55232 0.22747 0.0
O64 O 0.67404 0.49528 0.24152 0.0
In65 In 0.24358 0.73615 0.42091 0.0
O66 O 0.16928 0.72754 0.40809 0.0
O67 O 0.18214 0.66919 0.39553 0.0
C68 C 0.2798 0.82848 0.44399 0.0
C69 C 0.28978 0.74088 0.36407 0.0
C70 C 0.24838 0.69047 0.47618 0.0
O71 O 0.23574 0.79555 0.4479 0.0
O72 O 0.30536 0.81519 0.42791 0.0
O73 O 0.28427 0.71227 0.4568 0.0
O74 O 0.21019 0.69024 0.46695 0.0
C75 C 0.15315 0.68586 0.39491 0.0
O76 O 0.2892 0.71507 0.3882 0.0
O77 O 0.2683 0.76506 0.36913 0.0
C78 C 0.42773 0.07218 0.54844 0.0
C79 C 0.41714 0.10916 0.54037 0.0
C80 C 0.40335 0.0263 0.53276 0.0
C81 C 0.36846 0.01776 0.50787 0.0
C82 C 0.35765 0.05504 0.49962 0.0
C83 C 0.38176 0.10018 0.51628 0.0
C84 C 0.41509 0.98706 0.54271 0.0
C85 C 0.32142 0.0476 0.47275 0.0
C86 C 0.34502 0.91652 0.44715 0.0
C87 C 0.30063 0.87774 0.45878 0.0
C88 C 0.3667 0.96284 0.46225 0.0
C89 C 0.34398 0.97003 0.49013 0.0
C90 C 0.29883 0.93108 0.50174 0.0
C91 C 0.27737 0.88549 0.48565 0.0
C92 C 0.4143 0.00384 0.44871 0.0
C93 C 0.27403 0.93709 0.53179 0.0
H94 H 0.45492 0.07903 0.56721 0.0
H95 H 0.3738 0.12892 0.50985 0.0
H96 H 0.38105 0.95313 0.54996 0.0
H97 H 0.43096 0.97759 0.52148 0.0
H98 H 0.44141 -0.00118 0.56357 0.0
H99 H 0.31706 0.08026 0.46939 0.0
H100 H 0.33367 0.03967 0.44905 0.0
H101 H 0.28511 0.01546 0.47854 0.0
H102 H 0.36288 0.9106 0.42625 0.0
H103 H 0.24318 0.85538 0.49481 0.0
H104 H 0.44388 0.01451 0.46718 0.0
H105 H 0.41096 0.03675 0.4438 0.0
H106 H 0.42541 0.9932 0.42555 0.0
H107 H 0.29825 0.94566 0.55359 0.0
H108 H 0.23846 0.90355 0.53716 0.0
H109 H 0.26752 0.96834 0.52832 0.0
C110 C 0.43583 0.36185 0.62065 0.0
C111 C 0.42519 0.31436 0.62912 0.0
C112 C 0.41414 0.38487 0.63772 0.0
C113 C 0.3823 0.36026 0.66445 0.0
C114 C 0.37208 0.31256 0.6734 0.0
C115 C 0.39313 0.28986 0.65528 0.0
C116 C 0.42483 0.43524 0.62692 0.0
C117 C 0.33929 0.2857 0.70228 0.0
C118 C 0.36094 0.43913 0.72556 0.0
C119 C 0.31439 0.4299 0.71613 0.0
C120 C 0.38316 0.41584 0.70941 0.0
C121 C 0.35876 0.38397 0.68259 0.0
C122 C 0.31187 0.3749 0.67286 0.0
C123 C 0.28992 0.39743 0.69011 0.0
C124 C 0.43261 0.42526 0.72102 0.0
C125 C 0.2853 0.34219 0.64384 0.0
H126 H 0.46058 0.3807 0.60035 0.0
H127 H 0.38539 0.25332 0.66207 0.0
H128 H 0.39014 0.43428 0.62055 0.0
H129 H 0.44198 0.46184 0.64741 0.0
H130 H 0.44963 0.44889 0.60522 0.0
H131 H 0.3368 0.2497 0.70688 0.0
H132 H 0.35327 0.30844 0.72491 0.0
H133 H 0.30188 0.27934 0.69776 0.0
H134 H 0.37973 0.46417 0.74578 0.0
H135 H 0.25411 0.39076 0.68258 0.0
H136 H 0.46004 0.44297 0.7011 0.0
H137 H 0.43082 0.38995 0.72693 0.0
H138 H 0.4456 0.44923 0.74318 0.0
H139 H 0.30822 0.35636 0.62134 0.0
H140 H 0.24949 0.33982 0.63905 0.0
H141 H 0.27882 0.3046 0.64826 0.0
C142 C 0.91079 0.36655 0.88275 0.0
C143 C 0.87502 0.31939 0.87279 0.0
C144 C 0.9569 0.39052 0.8675 0.0
C145 C 0.96671 0.36718 0.84113 0.0
C146 C 0.93023 0.31996 0.83054 0.0
C147 C 0.88499 0.29632 0.84683 0.0
C148 C -0.00463 0.44036 0.87997 0.0
C149 C 0.93897 0.29441 0.80201 0.0
C150 C 0.07255 0.44651 0.7839 0.0
C151 C 0.10833 0.43592 0.79491 0.0
C152 C 0.02596 0.424 0.79851 0.0
C153 C 0.01569 0.39136 0.82529 0.0
C154 C 0.05207 0.3812 0.83677 0.0
C155 C 0.09777 0.40311 0.82111 0.0
C156 C 0.9876 0.43469 0.7851 0.0
C157 C 0.04286 0.3475 0.86575 0.0
H158 H 0.90304 0.3843 0.9029 0.0
H159 H 0.85707 0.26003 0.83889 0.0
H160 H 0.02806 0.4388 0.88835 0.0
H161 H 0.00741 0.46773 0.85977 0.0
H162 H 0.98189 0.4534 0.90076 0.0
H163 H 0.90584 0.25895 0.7957 0.0
H164 H 0.95048 0.3184 0.7799 0.0
H165 H 0.96909 0.28722 0.80812 0.0
H166 H 0.08076 0.4718 0.76355 0.0
H167 H 0.12567 0.39532 0.82985 0.0
H168 H 0.97566 0.45108 0.80464 0.0
H169 H 0.95482 0.39996 0.77727 0.0
H170 H 0.00118 0.4602 0.76374 0.0
H171 H 0.03157 0.36077 0.88755 0.0
H172 H 0.07572 0.345 0.8724 0.0
H173 H 0.01245 0.31007 0.85999 0.0
C174 C 0.55771 0.92098 0.05395 0.0
C175 C 0.5656 0.88265 0.04461 0.0
C176 C 0.58073 0.96595 0.03711 0.0
C177 C 0.61112 0.97199 0.00974 0.0
C178 C 0.61907 0.93325 1.00017 0.0
C179 C 0.5967 0.88919 0.01806 0.0
C180 C 0.57244 0.00692 0.04856 0.0
C181 C 0.65027 0.93796 0.97063 0.0
C182 C 0.62937 0.07111 0.94867 0.0
C183 C 0.67644 0.1088 0.95695 0.0
C184 C 0.60815 0.02579 0.96507 0.0
C185 C 0.63419 0.01875 0.99094 0.0
C186 C 0.6818 0.05677 0.99933 0.0
C187 C 0.70265 0.10118 0.98189 0.0
C188 C 0.5578 0.9856 0.95489 0.0
C189 C 0.71017 0.05103 0.0273 0.0
H190 H 0.53377 0.91591 0.07459 0.0
H191 H 0.60239 0.85929 0.01066 0.0
H192 H 0.60809 0.0405 0.05352 0.0
H193 H 0.55391 0.0161 0.02889 0.0
H194 H 0.54972 -0.00293 0.07125 0.0
H195 H 0.65243 0.90421 0.96631 0.0
H196 H 0.63498 0.94562 0.94823 0.0
H197 H 0.68792 0.96934 0.97402 0.0
H198 H 0.60922 0.07701 0.92926 0.0
H199 H 0.73892 0.13055 0.98849 0.0
H200 H 0.53167 0.97698 0.97553 0.0
H201 H 0.55862 0.95153 0.9491 0.0
H202 H 0.54375 -0.00403 0.93301 0.0
H203 H 0.6893 0.04392 0.05064 0.0
H204 H 0.74683 0.08414 0.03064 0.0
H205 H 0.71505 0.01897 0.02277 0.0
C206 C 0.70226 0.59878 0.18893 0.0
C207 C 0.67751 0.56445 0.21395 0.0
C208 C 0.6805 0.62266 0.17304 0.0
C209 C 0.63349 0.61288 0.18311 0.0
C210 C 0.60903 0.57938 0.20913 0.0
C211 C 0.63108 0.55498 0.22394 0.0
C212 C 0.7072 0.65724 0.14487 0.0
C213 C 0.55941 0.56901 0.2211 0.0
C214 C 0.59524 0.70551 0.15921 0.0
C215 C 0.56299 0.68134 0.13306 0.0
C216 C 0.61803 0.68339 0.17604 0.0
C217 C 0.60933 0.63667 0.1658 0.0
C218 C 0.57749 0.61256 0.13895 0.0
C219 C 0.55412 0.63493 0.12319 0.0
C220 C 0.6508 0.70964 0.20507 0.0
C221 C 0.56827 0.56324 0.1268 0.0
H222 H 0.73803 0.60579 0.18101 0.0
H223 H 0.61207 0.52858 0.24343 0.0
H224 H 0.68497 0.64367 0.12203 0.0
H225 H 0.71235 0.69413 0.15014 0.0
H226 H 0.74364 0.66101 0.14019 0.0
H227 H 0.54676 0.5444 0.24295 0.0
H228 H 0.56066 0.60388 0.22764 0.0
H229 H 0.53197 0.55152 0.20114 0.0
H230 H 0.60173 0.74125 0.16704 0.0
H231 H 0.52933 0.61636 0.10284 0.0
H232 H 0.68832 0.71644 0.20036 0.0
H233 H 0.63696 0.68623 0.2274 0.0
H234 H 0.65295 0.74535 0.2103 0.0
H235 H 0.60351 0.56545 0.12033 0.0
H236 H 0.54394 0.5503 0.10485 0.0
H237 H 0.55118 0.53544 0.14662 0.0
C238 C 0.09811 0.62805 0.35203 0.0
C239 C 0.10525 0.65981 0.37835 0.0
C240 C 0.05374 0.60513 0.33463 0.0
C241 C 0.0152 0.61304 0.34453 0.0
C242 C 0.02184 0.64409 0.37171 0.0
C243 C 0.06719 0.66781 0.38797 0.0
C244 C 0.0485 0.5734 0.30521 0.0
C245 C 0.9811 0.65227 0.38356 0.0
C246 C 0.9151 0.59306 0.28402 0.0
C247 C 0.87807 0.54565 0.29239 0.0
C248 C 0.96046 0.61499 0.30026 0.0
C249 C 0.96815 0.5894 0.32616 0.0
C250 C 0.9307 0.54152 0.33475 0.0
C251 C 0.8863 0.51989 0.31737 0.0
C252 C 5e-05 0.66553 0.28978 0.0
C253 C 0.93709 0.51365 0.3628 0.0
H254 H 0.12782 0.62231 0.34439 0.0
H255 H 0.07275 0.69224 0.40845 0.0
H256 H 0.01755 0.53558 0.30904 0.0
H257 H 0.04003 0.58814 0.28287 0.0
H258 H 0.08222 0.57149 0.30051 0.0
H259 H -0.00865 0.67533 0.40615 0.0
H260 H 0.97133 0.67049 0.36399 0.0
H261 H 0.94784 0.61648 0.38886 0.0
H262 H 0.90871 0.61284 0.26457 0.0
H263 H 0.85738 0.48338 0.32406 0.0
H264 H 0.03407 0.66496 0.28371 0.0
H265 H 0.00885 0.69188 0.31036 0.0
H266 H 0.98913 0.67926 0.26801 0.0
H267 H 0.96897 0.50868 0.35804 0.0
H268 H 0.90418 0.47693 0.36656 0.0
H269 H 0.94473 0.53502 0.38599 0.0
C270 C 0.54094 0.33059 0.4734 0.0
C271 C 0.56651 0.31897 0.49665 0.0
C272 C 0.56164 0.35073 0.44269 0.0
C273 C 0.6092 0.3597 0.43504 0.0
C274 C 0.63547 0.34855 0.45853 0.0
C275 C 0.61373 0.32818 0.48908 0.0
C276 C 0.53243 0.36204 0.4183 0.0
C277 C 0.68639 0.35791 0.4513 0.0
C278 C 0.64438 0.37031 0.34448 0.0
C279 C 0.67107 0.42136 0.34018 0.0
C280 C 0.62426 0.34969 0.37529 0.0
C281 C 0.63135 0.38092 0.40245 0.0
C282 C 0.6585 0.43249 0.39825 0.0
C283 C 0.67786 0.45208 0.36714 0.0
C284 C 0.59518 0.29451 0.37876 0.0
C285 C 0.66704 0.467 0.42663 0.0
H286 H 0.50436 0.32346 0.47906 0.0
H287 H 0.63361 0.31921 0.50695 0.0
H288 H 0.55276 0.4016 0.4118 0.0
H289 H 0.52714 0.34105 0.3952 0.0
H290 H 0.4959 0.35285 0.42806 0.0
H291 H 0.70214 0.34777 0.47233 0.0
H292 H 0.68564 0.33653 0.42933 0.0
H293 H 0.71103 0.3973 0.44548 0.0
H294 H 0.6391 0.34642 0.32373 0.0
H295 H 0.69872 0.4916 0.36402 0.0
H296 H 0.55728 0.28293 0.38676 0.0
H297 H 0.61175 0.28238 0.39805 0.0
H298 H 0.59344 0.27536 0.35535 0.0
H299 H 0.63146 0.46105 0.43607 0.0
H300 H 0.68994 0.50618 0.41946 0.0
H301 H 0.68535 0.45929 0.44724 0.0
C302 C 0.21135 0.65118 0.52998 0.0
C303 C 0.25126 0.66967 0.50825 0.0
C304 C 0.21377 0.63344 0.56121 0.0
C305 C 0.25703 0.63377 0.5709 0.0
C306 C 0.29742 0.6521 0.54902 0.0
C307 C 0.29412 0.67005 0.51794 0.0
C308 C 0.16996 0.61434 0.58384 0.0
C309 C 0.34394 0.65253 0.5584 0.0
C310 C 0.27421 0.62296 0.66282 0.0
C311 C 0.25577 0.57236 0.66606 0.0
C312 C 0.27565 0.64376 0.63185 0.0
C313 C 0.25903 0.61324 0.60354 0.0
C314 C 0.2417 0.56235 0.60665 0.0
C315 C 0.23991 0.5425 0.63788 0.0
C316 C 0.29379 0.69809 0.62953 0.0
C317 C 0.22428 0.52868 0.57703 0.0
H318 H 0.1782 0.65103 0.52272 0.0
H319 H 0.32511 0.68445 0.50127 0.0
H320 H 0.15605 0.57501 0.58943 0.0
H321 H 0.18078 0.63454 0.6076 0.0
H322 H 0.13963 0.61803 0.57296 0.0
H323 H 0.37216 0.66839 0.53871 0.0
H324 H 0.35935 0.67415 0.58131 0.0
H325 H 0.33585 0.61455 0.56356 0.0
H326 H 0.28653 0.64611 0.68457 0.0
H327 H 0.22613 0.5034 0.64021 0.0
H328 H 0.26376 0.70393 0.62076 0.0
H329 H 0.32391 0.71544 0.61126 0.0
H330 H 0.30718 0.71705 0.6536 0.0
H331 H 0.19146 0.52771 0.56628 0.0
H332 H 0.21477 0.49055 0.58336 0.0
H333 H 0.253 0.54275 0.55769 0.0
C334 C 0.6651 0.21703 0.8022 0.0
C335 C 0.66695 0.24789 0.82783 0.0
C336 C 0.64611 0.2182 0.77119 0.0
C337 C 0.62808 0.25071 0.7657 0.0
C338 C 0.62967 0.28189 0.79149 0.0
C339 C 0.64933 0.28027 0.82227 0.0
C340 C 0.6453 0.18455 0.74429 0.0
C341 C 0.61029 0.31667 0.78662 0.0
C342 C 0.6143 0.28072 0.67682 0.0
C343 C 0.56448 0.24791 0.67108 0.0
C344 C 0.63554 0.28234 0.70761 0.0
C345 C 0.6061 0.25072 0.73324 0.0
C346 C 0.55573 0.21779 0.72758 0.0
C347 C 0.53562 0.21663 0.69655 0.0
C348 C 0.68951 0.31759 0.71267 0.0
C349 C 0.52305 0.18366 0.75431 0.0
H350 H 0.67896 0.19212 0.80627 0.0
H351 H 0.6508 0.30425 0.84198 0.0
H352 H 0.60699 0.15906 0.73657 0.0
H353 H 0.66531 0.20636 0.72231 0.0
H354 H 0.66207 0.16249 0.75228 0.0
H355 H 0.61467 0.33885 0.80902 0.0
H356 H 0.62967 0.34197 0.76583 0.0
H357 H 0.57086 0.29565 0.78005 0.0
H358 H 0.6367 0.30504 0.65723 0.0
H359 H 0.49699 0.19139 0.69235 0.0
H360 H 0.70834 0.2969 0.71912 0.0
H361 H 0.69497 0.34257 0.73358 0.0
H362 H 0.7072 0.34009 0.69038 0.0
H363 H 0.5363 0.15844 0.7619 0.0
H364 H 0.48432 0.16131 0.74621 0.0
H365 H 0.52443 0.20513 0.7764 0.0
C366 C 0.31027 0.54409 0.87179 0.0
C367 C 0.31617 0.57388 0.84446 0.0
C368 C 0.32902 0.56461 0.9028 0.0
C369 C 0.35482 0.61627 0.90653 0.0
C370 C 0.36087 0.64663 0.87905 0.0
C371 C 0.3412 0.62503 0.84832 0.0
C372 C 0.32149 0.53095 0.93152 0.0
C373 C 0.3886 0.70189 0.88206 0.0
C374 C 0.37147 0.66775 0.99353 0.0
C375 C 0.41869 0.67702 1.00119 0.0
C376 C 0.35026 0.64836 0.96267 0.0
C377 C 0.37709 0.63831 0.93895 0.0
C378 C 0.42483 0.64781 0.94657 0.0
C379 C 0.44496 0.66689 0.9776 0.0
C380 C 0.2991 0.63834 0.95548 0.0
C381 C 0.45465 0.63767 0.92196 0.0
H382 H 0.2906 0.50448 0.86904 0.0
H383 H 0.34575 0.64817 0.82727 0.0
H384 H 0.35744 0.53771 0.94078 0.0
H385 H 0.30322 0.53874 0.95211 0.0
H386 H 0.29898 0.49154 0.92476 0.0
H387 H 0.3892 0.72028 0.85853 0.0
H388 H 0.37181 0.71365 0.90142 0.0
H389 H 0.42691 0.71469 0.88971 0.0
H390 H 0.35109 0.67567 0.01164 0.0
H391 H 0.48159 0.67419 0.98329 0.0
H392 H 0.27472 0.59872 0.95015 0.0
H393 H 0.29931 0.65894 0.93323 0.0
H394 H 0.2834 0.64881 0.97637 0.0
H395 H 0.43546 0.59799 0.91577 0.0
H396 H 0.49175 0.64839 0.93141 0.0
H397 H 0.45863 0.65799 0.89874 0.0
C398 C 0.7604 0.3102 0.03093 0.0
C399 C 0.73188 0.31138 0.00479 0.0
C400 C 0.75887 0.32853 0.06213 0.0
C401 C 0.72853 0.34916 0.06728 0.0
C402 C 0.69944 0.35029 0.04103 0.0
C403 C 0.70123 0.33107 0.01008 0.0
C404 C 0.79013 0.32623 0.08953 0.0
C405 C 0.66708 0.37252 0.04552 0.0
C406 C 0.69872 0.36437 0.15594 0.0
C407 C 0.73403 0.41342 0.1622 0.0
C408 C 0.6961 0.34295 0.12501 0.0
C409 C 0.7292 0.37152 0.09975 0.0
C410 C 0.7645 0.42121 0.10589 0.0
C411 C 0.76667 0.44143 0.13707 0.0
C412 C 0.65835 0.28967 0.11947 0.0
C413 C 0.80022 0.45301 0.07956 0.0
H414 H 0.78386 0.29463 0.02707 0.0
H415 H 0.67908 0.33196 0.98995 0.0
H416 H 0.81744 0.36395 0.09751 0.0
H417 H 0.76703 0.30705 0.11125 0.0
H418 H 0.80992 0.30692 0.0819 0.0
H419 H 0.64576 0.36941 0.02294 0.0
H420 H 0.64116 0.35419 0.06617 0.0
H421 H 0.68981 0.41193 0.05207 0.0
H422 H 0.67336 0.34264 0.17528 0.0
H423 H 0.79382 0.47951 0.14167 0.0
H424 H 0.67688 0.26856 0.1134 0.0
H425 H 0.63476 0.28617 0.09816 0.0
H426 H 0.63471 0.27277 0.14142 0.0
H427 H 0.82382 0.43771 0.07233 0.0
H428 H 0.82408 0.49151 0.0879 0.0
H429 H 0.78008 0.45322 0.05719 0.0
C430 C 0.30577 0.76584 0.30493 0.0
C431 C 0.31178 0.74125 0.33179 0.0
C432 C 0.3251 0.76557 0.27384 0.0
C433 C 0.35141 0.74041 0.26953 0.0
C434 C 0.35765 0.71553 0.29656 0.0
C435 C 0.33759 0.71611 0.32738 0.0
C436 C 0.3175 0.79236 0.2456 0.0
C437 C 0.38581 0.68862 0.29297 0.0
C438 C 0.36917 0.70635 0.18261 0.0
C439 C 0.41673 0.74418 0.17541 0.0
C440 C 0.34729 0.70466 0.21315 0.0
C441 C 0.37376 0.74154 0.237 0.0
C442 C 0.42167 0.77992 0.22974 0.0
C443 C 0.4425 0.78083 0.19903 0.0
C444 C 0.29597 0.66335 0.21996 0.0
C445 C 0.45113 0.81987 0.25452 0.0
H446 H 0.28559 0.7851 0.30814 0.0
H447 H 0.34223 0.69696 0.34804 0.0
H448 H 0.35342 0.8219 0.23646 0.0
H449 H 0.29916 0.76671 0.22478 0.0
H450 H 0.29502 0.80901 0.25282 0.0
H451 H 0.38679 0.67054 0.31625 0.0
H452 H 0.36905 0.66028 0.27341 0.0
H453 H 0.424 0.71466 0.28527 0.0
H454 H 0.34914 0.67791 0.16446 0.0
H455 H 0.47935 0.81012 0.19366 0.0
H456 H 0.27178 0.67852 0.22584 0.0
H457 H 0.29603 0.64213 0.24179 0.0
H458 H 0.28015 0.63784 0.19871 0.0
H459 H 0.43137 0.83957 0.26112 0.0
H460 H 0.48799 0.84702 0.24506 0.0
H461 H 0.45567 0.80345 0.27751 0.0
loop_
_geom_bond_atom_site_label_1
_geom_bond_atom_site_label_2
_geom_bond_distance
_geom_bond_site_symmetry_2
_ccdc_geom_bond_type
In0 O1 2.294 . S
In0 O2 2.326 . S
In0 O6 2.266 . S
In0 O7 2.326 . S
In0 O8 2.266 . S
In0 O9 2.326 . S
In0 O11 2.294 . S
In0 O12 2.326 . S
O1 In0 2.294 . S
O1 C10 1.240 . S
O2 In0 2.326 . S
O2 C10 1.252 . S
C3 O6 1.252 . S
C3 O7 1.260 . S
C4 O11 1.240 . S
C4 O12 1.252 . S
C5 O8 1.252 . S
C5 O9 1.260 . S
O6 In0 2.266 . S
O6 C3 1.252 . S
O7 In0 2.326 . S
O7 C3 1.260 . S
O8 In0 2.266 . S
O8 C5 1.252 . S
O9 In0 2.326 . S
O9 C5 1.260 . S
C10 O1 1.240 . S
C10 O2 1.252 . S
O11 In0 2.294 . S
O11 C4 1.240 . S
O12 In0 2.326 . S
O12 C4 1.252 . S
In13 O14 2.294 . S
In13 O15 2.326 . S
In13 O19 2.266 . S
In13 O20 2.326 . S
In13 O21 2.266 . S
In13 O22 2.326 . S
In13 O24 2.294 . S
In13 O25 2.326 . S
O14 In13 2.294 . S
O14 C23 1.240 . S
O15 In13 2.326 . S
O15 C23 1.252 . S
C16 O19 1.252 . S
C16 O20 1.260 . S
C17 O24 1.240 . S
C17 O25 1.252 . S
C18 O21 1.252 . S
C18 O22 1.260 . S
O19 In13 2.266 . S
O19 C16 1.252 . S
O20 In13 2.326 . S
O20 C16 1.260 . S
O21 In13 2.266 . S
O21 C18 1.252 . S
O22 In13 2.326 . S
O22 C18 1.260 . S
C23 O14 1.240 . S
C23 O15 1.252 . S
O24 In13 2.294 . S
O24 C17 1.240 . S
O25 In13 2.326 . S
O25 C17 1.252 . S
In26 O27 2.294 . S
In26 O28 2.326 . S
In26 O32 2.266 . S
In26 O33 2.326 . S
In26 O34 2.266 . S
In26 O35 2.326 . S
In26 O37 2.294 . S
In26 O38 2.326 . S
O27 In26 2.294 . S
O27 C36 1.240 . S
O28 In26 2.326 . S
O28 C36 1.252 . S
C29 O32 1.252 . S
C29 O33 1.260 . S
C30 O37 1.240 . S
C30 O38 1.252 . S
C31 O34 1.252 . S
C31 O35 1.260 . S
O32 In26 2.266 . S
O32 C29 1.252 . S
O33 In26 2.326 . S
O33 C29 1.260 . S
O34 In26 2.266 . S
O34 C31 1.252 . S
O35 In26 2.326 . S
O35 C31 1.260 . S
C36 O27 1.240 . S
C36 O28 1.252 . S
O37 In26 2.294 . S
O37 C30 1.240 . S
O38 In26 2.326 . S
O38 C30 1.252 . S
In39 O40 2.294 . S
In39 O41 2.326 . S
In39 O45 2.266 . S
In39 O46 2.326 . S
In39 O47 2.266 . S
In39 O48 2.326 . S
In39 O50 2.294 . S
In39 O51 2.326 . S
O40 In39 2.294 . S
O40 C49 1.240 . S
O41 In39 2.326 . S
O41 C49 1.252 . S
C42 O45 1.252 . S
C42 O46 1.260 . S
C43 O50 1.240 . S
C43 O51 1.252 . S
C44 O47 1.252 . S
C44 O48 1.260 . S
O45 In39 2.266 . S
O45 C42 1.252 . S
O46 In39 2.326 . S
O46 C42 1.260 . S
O47 In39 2.266 . S
O47 C44 1.252 . S
O48 In39 2.326 . S
O48 C44 1.260 . S
C49 O40 1.240 . S
C49 O41 1.252 . S
O50 In39 2.294 . S
O50 C43 1.240 . S
O51 In39 2.326 . S
O51 C43 1.252 . S
In52 O53 2.294 . S
In52 O54 2.326 . S
In52 O58 2.266 . S
In52 O59 2.326 . S
In52 O60 2.266 . S
In52 O61 2.326 . S
In52 O63 2.294 . S
In52 O64 2.326 . S
O53 In52 2.294 . S
O53 C62 1.240 . S
O54 In52 2.326 . S
O54 C62 1.252 . S
C55 O58 1.252 . S
C55 O59 1.260 . S
C56 O63 1.240 . S
C56 O64 1.252 . S
C57 O60 1.252 . S
C57 O61 1.260 . S
O58 In52 2.266 . S
O58 C55 1.252 . S
O59 In52 2.326 . S
O59 C55 1.260 . S
O60 In52 2.266 . S
O60 C57 1.252 . S
O61 In52 2.326 . S
O61 C57 1.260 . S
C62 O53 1.240 . S
C62 O54 1.252 . S
O63 In52 2.294 . S
O63 C56 1.240 . S
O64 In52 2.326 . S
O64 C56 1.252 . S
In65 O66 2.294 . S
In65 O67 2.326 . S
In65 O71 2.266 . S
In65 O72 2.326 . S
In65 O73 2.266 . S
In65 O74 2.326 . S
In65 O76 2.294 . S
In65 O77 2.326 . S
O66 In65 2.294 . S
O66 C75 1.240 . S
O67 In65 2.326 . S
O67 C75 1.252 . S
C68 O71 1.252 . S
C68 O72 1.260 . S
C69 O76 1.240 . S
C69 O77 1.252 . S
C70 O73 1.252 . S
C70 O74 1.260 . S
O71 In65 2.266 . S
O71 C68 1.252 . S
O72 In65 2.326 . S
O72 C68 1.260 . S
O73 In65 2.266 . S
O73 C70 1.252 . S
O74 In65 2.326 . S
O74 C70 1.260 . S
C75 O66 1.240 . S
C75 O67 1.252 . S
O76 In65 2.294 . S
O76 C69 1.240 . S
O77 In65 2.326 . S
O77 C69 1.252 . S
C78 C79 1.391 . S
C78 C80 1.394 . S
C78 H94 0.931 . S
C79 C78 1.391 . S
C79 C83 1.376 . S
C80 C78 1.394 . S
C80 C81 1.369 . S
C80 C84 1.531 1_545 S
C81 C80 1.369 . S
C81 C82 1.410 . S
C81 C89 1.503 1_545 S
C82 C81 1.410 . S
C82 C83 1.392 . S
C82 C85 1.511 . S
C83 C79 1.376 . S
C83 C82 1.392 . S
C83 H95 0.929 . S
C84 C80 1.531 1_565 S
C84 H96 0.960 . S
C84 H97 0.962 . S
C84 H98 0.960 . S
C85 C82 1.511 . S
C85 H99 0.961 . S
C85 H100 0.961 . S
C85 H101 0.961 . S
C86 C87 1.370 . S
C86 C88 1.363 . S
C86 H102 0.931 . S
C87 C86 1.370 . S
C87 C91 1.408 . S
C88 C86 1.363 . S
C88 C89 1.370 . S
C88 C92 1.524 1_565 S
C89 C81 1.503 1_565 S
C89 C88 1.370 . S
C89 C90 1.403 . S
C90 C89 1.403 . S
C90 C91 1.404 . S
C90 C93 1.539 . S
C91 C87 1.408 . S
C91 C90 1.404 . S
C91 H103 0.930 . S
C92 C88 1.524 1_545 S
C92 H104 0.956 . S
C92 H105 0.961 . S
C92 H106 0.961 1_545 S
C93 C90 1.539 . S
C93 H107 0.958 . S
C93 H108 0.961 . S
C93 H109 0.960 . S
H94 C78 0.931 . S
H95 C83 0.929 . S
H96 C84 0.960 . S
H97 C84 0.962 . S
H98 C84 0.960 . S
H99 C85 0.961 . S
H100 C85 0.961 . S
H101 C85 0.961 . S
H102 C86 0.931 . S
H103 C91 0.930 . S
H104 C92 0.956 . S
H105 C92 0.961 . S
H106 C92 0.961 1_565 S
H107 C93 0.958 . S
H108 C93 0.961 . S
H109 C93 0.960 . S
C110 C111 1.391 . S
C110 C112 1.394 . S
C110 H126 0.931 . S
C111 C110 1.391 . S
C111 C115 1.376 . S
C112 C110 1.394 . S
C112 C113 1.369 . S
C112 C116 1.531 . S
C113 C112 1.369 . S
C113 C114 1.410 . S
C113 C121 1.503 . S
C114 C113 1.410 . S
C114 C115 1.392 . S
C114 C117 1.511 . S
C115 C111 1.376 . S
C115 C114 1.392 . S
C115 H127 0.929 . S
C116 C112 1.531 . S
C116 H128 0.960 . S
C116 H129 0.962 . S
C116 H130 0.960 . S
C117 C114 1.511 . S
C117 H131 0.961 . S
C117 H132 0.961 . S
C117 H133 0.961 . S
C118 C119 1.370 . S
C118 C120 1.363 . S
C118 H134 0.931 . S
C119 C118 1.370 . S
C119 C123 1.408 . S
C120 C118 1.363 . S
C120 C121 1.370 . S
C120 C124 1.524 . S
C121 C113 1.503 . S
C121 C120 1.370 . S
C121 C122 1.403 . S
C122 C121 1.403 . S
C122 C123 1.404 . S
C122 C125 1.539 . S
C123 C119 1.408 . S
C123 C122 1.404 . S
C123 H135 0.930 . S
C124 C120 1.524 . S
C124 H136 0.956 . S
C124 H137 0.961 . S
C124 H138 0.961 . S
C125 C122 1.539 . S
C125 H139 0.958 . S
C125 H140 0.961 . S
C125 H141 0.960 . S
H126 C110 0.931 . S
H127 C115 0.929 . S
H128 C116 0.960 . S
H129 C116 0.962 . S
H130 C116 0.960 . S
H131 C117 0.961 . S
H132 C117 0.961 . S
H133 C117 0.961 . S
H134 C118 0.931 . S
H135 C123 0.930 . S
H136 C124 0.956 . S
H137 C124 0.961 . S
H138 C124 0.961 . S
H139 C125 0.958 . S
H140 C125 0.961 . S
H141 C125 0.960 . S
C142 C143 1.391 . S
C142 C144 1.394 . S
C142 H158 0.931 . S
C143 C142 1.391 . S
C143 C147 1.376 . S
C144 C142 1.394 . S
C144 C145 1.369 . S
C144 C148 1.531 . S
C145 C144 1.369 . S
C145 C146 1.410 . S
C145 C153 1.503 1_655 S
C146 C145 1.410 . S
C146 C147 1.392 . S
C146 C149 1.511 . S
C147 C143 1.376 . S
C147 C146 1.392 . S
C147 H159 0.929 . S
C148 C144 1.531 . S
C148 H160 0.960 1_655 S
C148 H161 0.962 . S
C148 H162 0.960 . S
C149 C146 1.511 . S
C149 H163 0.961 . S
C149 H164 0.961 . S
C149 H165 0.961 . S
C150 C151 1.370 . S
C150 C152 1.363 . S
C150 H166 0.931 . S
C151 C150 1.370 . S
C151 C155 1.408 . S
C152 C150 1.363 . S
C152 C153 1.370 . S
C152 C156 1.524 1_455 S
C153 C145 1.503 1_455 S
C153 C152 1.370 . S
C153 C154 1.403 . S
C154 C153 1.403 . S
C154 C155 1.404 . S
C154 C157 1.539 . S
C155 C151 1.408 . S
C155 C154 1.404 . S
C155 H167 0.930 . S
C156 C152 1.524 1_655 S
C156 H168 0.956 . S
C156 H169 0.961 . S
C156 H170 0.961 . S
C157 C154 1.539 . S
C157 H171 0.958 . S
C157 H172 0.961 . S
C157 H173 0.960 . S
H158 C142 0.931 . S
H159 C147 0.929 . S
H160 C148 0.960 1_455 S
H161 C148 0.962 . S
H162 C148 0.960 . S
H163 C149 0.961 . S
H164 C149 0.961 . S
H165 C149 0.961 . S
H166 C150 0.931 . S
H167 C155 0.930 . S
H168 C156 0.956 . S
H169 C156 0.961 . S
H170 C156 0.961 . S
H171 C157 0.958 . S
H172 C157 0.961 . S
H173 C157 0.960 . S
C174 C175 1.391 . S
C174 C176 1.394 . S
C174 H190 0.931 . S
C175 C174 1.391 . S
C175 C179 1.376 . S
C176 C174 1.394 . S
C176 C177 1.369 . S
C176 C180 1.531 1_565 S
C177 C176 1.369 . S
C177 C178 1.410 . S
C177 C185 1.503 1_564 S
C178 C177 1.410 . S
C178 C179 1.392 . S
C178 C181 1.511 1_554 S
C179 C175 1.376 . S
C179 C178 1.392 . S
C179 H191 0.929 . S
C180 C176 1.531 1_545 S
C180 H192 0.960 . S
C180 H193 0.962 . S
C180 H194 0.960 . S
C181 C178 1.511 1_556 S
C181 H195 0.961 . S
C181 H196 0.961 . S
C181 H197 0.961 . S
C182 C183 1.370 . S
C182 C184 1.363 . S
C182 H198 0.931 . S
C183 C182 1.370 . S
C183 C187 1.408 . S
C184 C182 1.363 . S
C184 C185 1.370 . S
C184 C188 1.524 1_545 S
C185 C177 1.503 1_546 S
C185 C184 1.370 . S
C185 C186 1.403 1_556 S
C186 C185 1.403 1_554 S
C186 C187 1.404 1_554 S
C186 C189 1.539 . S
C187 C183 1.408 . S
C187 C186 1.404 1_556 S
C187 H199 0.940 . S
C188 C184 1.524 1_565 S
C188 H200 0.956 . S
C188 H201 0.961 . S
C188 H202 0.961 . S
C189 C186 1.539 . S
C189 H203 0.958 . S
C189 H204 0.961 . S
C189 H205 0.960 . S
H190 C174 0.931 . S
H191 C179 0.929 . S
H192 C180 0.960 . S
H193 C180 0.962 . S
H194 C180 0.960 . S
H195 C181 0.961 . S
H196 C181 0.961 . S
H197 C181 0.961 . S
H198 C182 0.931 . S
H199 C187 0.940 . S
H200 C188 0.956 . S
H201 C188 0.961 . S
H202 C188 0.961 . S
H203 C189 0.958 . S
H204 C189 0.961 . S
H205 C189 0.960 . S
C206 C207 1.391 . S
C206 C208 1.394 . S
C206 H222 0.931 . S
C207 C206 1.391 . S
C207 C211 1.376 . S
C208 C206 1.394 . S
C208 C209 1.369 . S
C208 C212 1.531 . S
C209 C208 1.369 . S
C209 C210 1.410 . S
C209 C217 1.503 . S
C210 C209 1.410 . S
C210 C211 1.392 . S
C210 C213 1.511 . S
C211 C207 1.376 . S
C211 C210 1.392 . S
C211 H223 0.929 . S
C212 C208 1.531 . S
C212 H224 0.960 . S
C212 H225 0.962 . S
C212 H226 0.960 . S
C213 C210 1.511 . S
C213 H227 0.961 . S
C213 H228 0.961 . S
C213 H229 0.961 . S
C214 C215 1.370 . S
C214 C216 1.363 . S
C214 H230 0.931 . S
C215 C214 1.370 . S
C215 C219 1.408 . S
C216 C214 1.363 . S
C216 C217 1.370 . S
C216 C220 1.524 . S
C217 C209 1.503 . S
C217 C216 1.370 . S
C217 C218 1.403 . S
C218 C217 1.403 . S
C218 C219 1.404 . S
C218 C221 1.539 . S
C219 C215 1.408 . S
C219 C218 1.404 . S
C219 H231 0.930 . S
C220 C216 1.524 . S
C220 H232 0.956 . S
C220 H233 0.961 . S
C220 H234 0.961 . S
C221 C218 1.539 . S
C221 H235 0.958 . S
C221 H236 0.961 . S
C221 H237 0.960 . S
H222 C206 0.931 . S
H223 C211 0.929 . S
H224 C212 0.960 . S
H225 C212 0.962 . S
H226 C212 0.960 . S
H227 C213 0.961 . S
H228 C213 0.961 . S
H229 C213 0.961 . S
H230 C214 0.931 . S
H231 C219 0.930 . S
H232 C220 0.956 . S
H233 C220 0.961 . S
H234 C220 0.961 . S
H235 C221 0.958 . S
H236 C221 0.961 . S
H237 C221 0.960 . S
C238 C239 1.391 . S
C238 C240 1.394 . S
C238 H254 0.931 . S
C239 C238 1.391 . S
C239 C243 1.376 . S
C240 C238 1.394 . S
C240 C241 1.369 . S
C240 C244 1.531 . S
C241 C240 1.369 . S
C241 C242 1.410 . S
C241 C249 1.503 1_455 S
C242 C241 1.410 . S
C242 C243 1.392 . S
C242 C245 1.511 1_455 S
C243 C239 1.376 . S
C243 C242 1.392 . S
C243 H255 0.929 . S
C244 C240 1.531 . S
C244 H256 0.960 . S
C244 H257 0.962 . S
C244 H258 0.960 . S
C245 C242 1.511 1_655 S
C245 H259 0.961 . S
C245 H260 0.961 . S
C245 H261 0.961 . S
C246 C247 1.370 . S
C246 C248 1.363 . S
C246 H262 0.931 . S
C247 C246 1.370 . S
C247 C251 1.408 . S
C248 C246 1.363 . S
C248 C249 1.370 . S
C248 C252 1.524 1_655 S
C249 C241 1.503 1_655 S
C249 C248 1.370 . S
C249 C250 1.403 . S
C250 C249 1.403 . S
C250 C251 1.404 . S
C250 C253 1.539 . S
C251 C247 1.408 . S
C251 C250 1.404 . S
C251 H263 0.930 . S
C252 C248 1.524 1_455 S
C252 H264 0.956 . S
C252 H265 0.961 . S
C252 H266 0.961 1_455 S
C253 C250 1.539 . S
C253 H267 0.958 . S
C253 H268 0.961 . S
C253 H269 0.960 . S
H254 C238 0.931 . S
H255 C243 0.929 . S
H256 C244 0.960 . S
H257 C244 0.962 . S
H258 C244 0.960 . S
H259 C245 0.961 . S
H260 C245 0.961 . S
H261 C245 0.961 . S
H262 C246 0.931 . S
H263 C251 0.930 . S
H264 C252 0.956 . S
H265 C252 0.961 . S
H266 C252 0.961 1_655 S
H267 C253 0.958 . S
H268 C253 0.961 . S
H269 C253 0.960 . S
C270 C271 1.391 . S
C270 C272 1.394 . S
C270 H286 0.931 . S
C271 C270 1.391 . S
C271 C275 1.376 . S
C272 C270 1.394 . S
C272 C273 1.369 . S
C272 C276 1.531 . S
C273 C272 1.369 . S
C273 C274 1.410 . S
C273 C281 1.503 . S
C274 C273 1.410 . S
C274 C275 1.392 . S
C274 C277 1.511 . S
C275 C271 1.376 . S
C275 C274 1.392 . S
C275 H287 0.929 . S
C276 C272 1.531 . S
C276 H288 0.960 . S
C276 H289 0.962 . S
C276 H290 0.960 . S
C277 C274 1.511 . S
C277 H291 0.961 . S
C277 H292 0.961 . S
C277 H293 0.961 . S
C278 C279 1.370 . S
C278 C280 1.363 . S
C278 H294 0.931 . S
C279 C278 1.370 . S
C279 C283 1.408 . S
C280 C278 1.363 . S
C280 C281 1.370 . S
C280 C284 1.524 . S
C281 C273 1.503 . S
C281 C280 1.370 . S
C281 C282 1.403 . S
C282 C281 1.403 . S
C282 C283 1.404 . S
C282 C285 1.539 . S
C283 C279 1.408 . S
C283 C282 1.404 . S
C283 H295 0.930 . S
C284 C280 1.524 . S
C284 H296 0.956 . S
C284 H297 0.961 . S
C284 H298 0.961 . S
C285 C282 1.539 . S
C285 H299 0.958 . S
C285 H300 0.961 . S
C285 H301 0.960 . S
H286 C270 0.931 . S
H287 C275 0.929 . S
H288 C276 0.960 . S
H289 C276 0.962 . S
H290 C276 0.960 . S
H291 C277 0.961 . S
H292 C277 0.961 . S
H293 C277 0.961 . S
H294 C278 0.931 . S
H295 C283 0.930 . S
H296 C284 0.956 . S
H297 C284 0.961 . S
H298 C284 0.961 . S
H299 C285 0.958 . S
H300 C285 0.961 . S
H301 C285 0.960 . S
C302 C303 1.391 . S
C302 C304 1.394 . S
C302 H318 0.931 . S
C303 C302 1.391 . S
C303 C307 1.376 . S
C304 C302 1.394 . S
C304 C305 1.369 . S
C304 C308 1.531 . S
C305 C304 1.369 . S
C305 C306 1.410 . S
C305 C313 1.503 . S
C306 C305 1.410 . S
C306 C307 1.392 . S
C306 C309 1.511 . S
C307 C303 1.376 . S
C307 C306 1.392 . S
C307 H319 0.929 . S
C308 C304 1.531 . S
C308 H320 0.960 . S
C308 H321 0.962 . S
C308 H322 0.960 . S
C309 C306 1.511 . S
C309 H323 0.961 . S
C309 H324 0.961 . S
C309 H325 0.961 . S
C310 C311 1.370 . S
C310 C312 1.363 . S
C310 H326 0.931 . S
C311 C310 1.370 . S
C311 C315 1.408 . S
C312 C310 1.363 . S
C312 C313 1.370 . S
C312 C316 1.524 . S
C313 C305 1.503 . S
C313 C312 1.370 . S
C313 C314 1.403 . S
C314 C313 1.403 . S
C314 C315 1.404 . S
C314 C317 1.539 . S
C315 C311 1.408 . S
C315 C314 1.404 . S
C315 H327 0.930 . S
C316 C312 1.524 . S
C316 H328 0.956 . S
C316 H329 0.961 . S
C316 H330 0.961 . S
C317 C314 1.539 . S
C317 H331 0.958 . S
C317 H332 0.961 . S
C317 H333 0.960 . S
H318 C302 0.931 . S
H319 C307 0.929 . S
H320 C308 0.960 . S
H321 C308 0.962 . S
H322 C308 0.960 . S
H323 C309 0.961 . S
H324 C309 0.961 . S
H325 C309 0.961 . S
H326 C310 0.931 . S
H327 C315 0.930 . S
H328 C316 0.956 . S
H329 C316 0.961 . S
H330 C316 0.961 . S
H331 C317 0.958 . S
H332 C317 0.961 . S
H333 C317 0.960 . S
C334 C335 1.391 . S
C334 C336 1.394 . S
C334 H350 0.931 . S
C335 C334 1.391 . S
C335 C339 1.376 . S
C336 C334 1.394 . S
C336 C337 1.369 . S
C336 C340 1.531 . S
C337 C336 1.369 . S
C337 C338 1.410 . S
C337 C345 1.503 . S
C338 C337 1.410 . S
C338 C339 1.392 . S
C338 C341 1.511 . S
C339 C335 1.376 . S
C339 C338 1.392 . S
C339 H351 0.929 . S
C340 C336 1.531 . S
C340 H352 0.960 . S
C340 H353 0.962 . S
C340 H354 0.960 . S
C341 C338 1.511 . S
C341 H355 0.961 . S
C341 H356 0.961 . S
C341 H357 0.961 . S
C342 C343 1.370 . S
C342 C344 1.363 . S
C342 H358 0.931 . S
C343 C342 1.370 . S
C343 C347 1.408 . S
C344 C342 1.363 . S
C344 C345 1.370 . S
C344 C348 1.524 . S
C345 C337 1.503 . S
C345 C344 1.370 . S
C345 C346 1.403 . S
C346 C345 1.403 . S
C346 C347 1.404 . S
C346 C349 1.539 . S
C347 C343 1.408 . S
C347 C346 1.404 . S
C347 H359 0.930 . S
C348 C344 1.524 . S
C348 H360 0.956 . S
C348 H361 0.961 . S
C348 H362 0.961 . S
C349 C346 1.539 . S
C349 H363 0.958 . S
C349 H364 0.961 . S
C349 H365 0.960 . S
H350 C334 0.931 . S
H351 C339 0.929 . S
H352 C340 0.960 . S
H353 C340 0.962 . S
H354 C340 0.960 . S
H355 C341 0.961 . S
H356 C341 0.961 . S
H357 C341 0.961 . S
H358 C342 0.931 . S
H359 C347 0.930 . S
H360 C348 0.956 . S
H361 C348 0.961 . S
H362 C348 0.961 . S
H363 C349 0.958 . S
H364 C349 0.961 . S
H365 C349 0.960 . S
C366 C367 1.391 . S
C366 C368 1.394 . S
C366 H382 0.931 . S
C367 C366 1.391 . S
C367 C371 1.376 . S
C368 C366 1.394 . S
C368 C369 1.369 . S
C368 C372 1.531 . S
C369 C368 1.369 . S
C369 C370 1.410 . S
C369 C377 1.503 . S
C370 C369 1.410 . S
C370 C371 1.392 . S
C370 C373 1.511 . S
C371 C367 1.376 . S
C371 C370 1.392 . S
C371 H383 0.929 . S
C372 C368 1.531 . S
C372 H384 0.960 . S
C372 H385 0.962 . S
C372 H386 0.960 . S
C373 C370 1.511 . S
C373 H387 0.961 . S
C373 H388 0.961 . S
C373 H389 0.961 . S
C374 C375 1.370 . S
C374 C376 1.363 . S
C374 H390 0.931 . S
C375 C374 1.370 . S
C375 C379 1.408 . S
C376 C374 1.363 . S
C376 C377 1.370 . S
C376 C380 1.524 . S
C377 C369 1.503 . S
C377 C376 1.370 . S
C377 C378 1.403 . S
C378 C377 1.403 . S
C378 C379 1.404 . S
C378 C381 1.539 . S
C379 C375 1.408 . S
C379 C378 1.404 . S
C379 H391 0.930 . S
C380 C376 1.524 . S
C380 H392 0.956 . S
C380 H393 0.961 . S
C380 H394 0.961 . S
C381 C378 1.539 . S
C381 H395 0.958 . S
C381 H396 0.961 . S
C381 H397 0.960 . S
H382 C366 0.931 . S
H383 C371 0.929 . S
H384 C372 0.960 . S
H385 C372 0.962 . S
H386 C372 0.960 . S
H387 C373 0.961 . S
H388 C373 0.961 . S
H389 C373 0.961 . S
H390 C374 0.931 . S
H391 C379 0.930 . S
H392 C380 0.956 . S
H393 C380 0.961 . S
H394 C380 0.961 . S
H395 C381 0.958 . S
H396 C381 0.961 . S
H397 C381 0.960 . S
C398 C399 1.391 . S
C398 C400 1.394 . S
C398 H414 0.931 . S
C399 C398 1.391 . S
C399 C403 1.376 . S
C400 C398 1.394 . S
C400 C401 1.369 . S
C400 C404 1.531 . S
C401 C400 1.369 . S
C401 C402 1.410 . S
C401 C409 1.503 . S
C402 C401 1.410 . S
C402 C403 1.392 . S
C402 C405 1.511 . S
C403 C399 1.376 . S
C403 C402 1.392 . S
C403 H415 0.929 1_554 S
C404 C400 1.531 . S
C404 H416 0.960 . S
C404 H417 0.962 . S
C404 H418 0.960 . S
C405 C402 1.511 . S
C405 H419 0.961 . S
C405 H420 0.961 . S
C405 H421 0.961 . S
C406 C407 1.370 . S
C406 C408 1.363 . S
C406 H422 0.931 . S
C407 C406 1.370 . S
C407 C411 1.408 . S
C408 C406 1.363 . S
C408 C409 1.370 . S
C408 C412 1.524 . S
C409 C401 1.503 . S
C409 C408 1.370 . S
C409 C410 1.403 . S
C410 C409 1.403 . S
C410 C411 1.404 . S
C410 C413 1.539 . S
C411 C407 1.408 . S
C411 C410 1.404 . S
C411 H423 0.930 . S
C412 C408 1.524 . S
C412 H424 0.956 . S
C412 H425 0.961 . S
C412 H426 0.961 . S
C413 C410 1.539 . S
C413 H427 0.958 . S
C413 H428 0.961 . S
C413 H429 0.960 . S
H414 C398 0.931 . S
H415 C403 0.929 1_556 S
H416 C404 0.960 . S
H417 C404 0.962 . S
H418 C404 0.960 . S
H419 C405 0.961 . S
H420 C405 0.961 . S
H421 C405 0.961 . S
H422 C406 0.931 . S
H423 C411 0.930 . S
H424 C412 0.956 . S
H425 C412 0.961 . S
H426 C412 0.961 . S
H427 C413 0.958 . S
H428 C413 0.961 . S
H429 C413 0.960 . S
C430 C431 1.391 . S
C430 C432 1.394 . S
C430 H446 0.931 . S
C431 C430 1.391 . S
C431 C435 1.376 . S
C432 C430 1.394 . S
C432 C433 1.369 . S
C432 C436 1.531 . S
C433 C432 1.369 . S
C433 C434 1.410 . S
C433 C441 1.503 . S
C434 C433 1.410 . S
C434 C435 1.392 . S
C434 C437 1.511 . S
C435 C431 1.376 . S
C435 C434 1.392 . S
C435 H447 0.929 . S
C436 C432 1.531 . S
C436 H448 0.960 . S
C436 H449 0.962 . S
C436 H450 0.960 . S
C437 C434 1.511 . S
C437 H451 0.961 . S
C437 H452 0.961 . S
C437 H453 0.961 . S
C438 C439 1.370 . S
C438 C440 1.363 . S
C438 H454 0.931 . S
C439 C438 1.370 . S
C439 C443 1.408 . S
C440 C438 1.363 . S
C440 C441 1.370 . S
C440 C444 1.524 . S
C441 C433 1.503 . S
C441 C440 1.370 . S
C441 C442 1.403 . S
C442 C441 1.403 . S
C442 C443 1.404 . S
C442 C445 1.539 . S
C443 C439 1.408 . S
C443 C442 1.404 . S
C443 H455 0.930 . S
C444 C440 1.524 . S
C444 H456 0.956 . S
C444 H457 0.961 . S
C444 H458 0.961 . S
C445 C442 1.539 . S
C445 H459 0.958 . S
C445 H460 0.961 . S
C445 H461 0.960 . S
H446 C430 0.931 . S
H447 C435 0.929 . S
H448 C436 0.960 . S
H449 C436 0.962 . S
H450 C436 0.960 . S
H451 C437 0.961 . S
H452 C437 0.961 . S
H453 C437 0.961 . S
H454 C438 0.931 . S
H455 C443 0.930 . S
H456 C444 0.956 . S
H457 C444 0.961 . S
H458 C444 0.961 . S
H459 C445 0.958 . S
H460 C445 0.961 . S
H461 C445 0.960 . S
C79 C4 1.607 . S
C87 C68 1.613 . S
C111 C5 1.611 . S
C119 C23 1.610 . S
C143 C30 1.611 . S
C151 C16 1.613 . S
C175 C43 1.608 . S
C183 C31 1.613 . S
C207 C56 1.609 . S
C215 C44 1.615 . S
C239 C75 1.614 . S
C247 C57 1.614 . S
C271 C10 1.455 . S
C279 C55 1.457 . S
C303 C70 1.456 . S
C311 C17 1.456 . S
C335 C36 1.458 . S
C343 C3 1.458 . S
C367 C18 1.456 . S
C375 C49 1.459 1_556 S
C399 C29 1.457 1_554 S
C407 C62 1.458 . S
C431 C69 1.457 . S
C439 C42 1.459 . S
