# Generated by pormake.
# Topology smu, (6)-cn, num edge types: 1
# Building blocks:
#     Node 0, Type 0, BuildingBlock: MIFKUJ_clean_sbu_0, # of connection points: 6
#     Node 1, Type 0, BuildingBlock: MIFKUJ_clean_sbu_0, # of connection points: 6
#     Node 2, Type 0, BuildingBlock: MIFKUJ_clean_sbu_0, # of connection points: 6
#     Node 3, Type 0, BuildingBlock: MIFKUJ_clean_sbu_0, # of connection points: 6
#     Node 4, Type 0, BuildingBlock: MIFKUJ_clean_sbu_0, # of connection points: 6
#     Node 5, Type 0, BuildingBlock: MIFKUJ_clean_sbu_0, # of connection points: 6
#     Edge 6, Type (0, 0), BuildingBlock: XUDNAN_clean_linker_2, # of connection points: 2
#     Edge 7, Type (0, 0), BuildingBlock: XUDNAN_clean_linker_2, # of connection points: 2
#     Edge 8, Type (0, 0), BuildingBlock: XUDNAN_clean_linker_2, # of connection points: 2
#     Edge 9, Type (0, 0), BuildingBlock: XUDNAN_clean_linker_2, # of connection points: 2
#     Edge 10, Type (0, 0), BuildingBlock: XUDNAN_clean_linker_2, # of connection points: 2
#     Edge 11, Type (0, 0), BuildingBlock: XUDNAN_clean_linker_2, # of connection points: 2
#     Edge 12, Type (0, 0), BuildingBlock: XUDNAN_clean_linker_2, # of connection points: 2
#     Edge 13, Type (0, 0), BuildingBlock: XUDNAN_clean_linker_2, # of connection points: 2
#     Edge 14, Type (0, 0), BuildingBlock: XUDNAN_clean_linker_2, # of connection points: 2
#     Edge 15, Type (0, 0), BuildingBlock: XUDNAN_clean_linker_2, # of connection points: 2
#     Edge 16, Type (0, 0), BuildingBlock: XUDNAN_clean_linker_2, # of connection points: 2
#     Edge 17, Type (0, 0), BuildingBlock: XUDNAN_clean_linker_2, # of connection points: 2
#     Edge 18, Type (0, 0), BuildingBlock: XUDNAN_clean_linker_2, # of connection points: 2
#     Edge 19, Type (0, 0), BuildingBlock: XUDNAN_clean_linker_2, # of connection points: 2
#     Edge 20, Type (0, 0), BuildingBlock: XUDNAN_clean_linker_2, # of connection points: 2
#     Edge 21, Type (0, 0), BuildingBlock: XUDNAN_clean_linker_2, # of connection points: 2
#     Edge 22, Type (0, 0), BuildingBlock: XUDNAN_clean_linker_2, # of connection points: 2
#     Edge 23, Type (0, 0), BuildingBlock: XUDNAN_clean_linker_2, # of connection points: 2
# Relax obj value: 0.232
# Max RMSD: 0.294
# Mean RMSD: 0.294
data_MOF--net-smu--node1-MIFKUJ_clean_sbu_0--edge1-XUDNAN_clean_linker_2
_symmetry_space_group_name_H-M    P1
_symmetry_Int_Tables_number       1
_symmetry_cell_setting            triclinic
loop_
_symmetry_equiv_pos_as_xyz
'x, y, z'
_cell_length_a     34.117911
_cell_length_b     33.755029
_cell_length_c     27.377004
_cell_angle_alpha  89.787203
_cell_angle_beta   89.924148
_cell_angle_gamma 119.92839
loop_
_atom_site_label
_atom_site_type_symbol
_atom_site_fract_x
_atom_site_fract_y
_atom_site_fract_z
_atom_type_partial_charge
Zn0 Zn 0.26734 0.05361 0.22008 0.0
Zn1 Zn 0.39175 0.11902 0.22205 0.0
C2 C 0.27137 0.13755 0.25188 0.0
O3 O 0.28295 0.1279 0.2941 0.0
C4 C 0.48605 0.14275 0.20195 0.0
O5 O 0.47984 0.15039 0.1563 0.0
O6 O 0.20258 0.00263 0.21995 0.0
O7 O 0.29611 0.04423 0.16058 0.0
O8 O 0.37119 0.08256 0.16083 0.0
C9 C 0.18839 0.96588 0.1958 0.0
O10 O 0.21625 0.96091 0.1667 0.0
O11 O 0.26556 0.11198 0.21548 0.0
C12 C 0.39514 0.20231 0.25256 0.0
O13 O 0.38418 0.18152 0.2952 0.0
O14 O 0.39701 0.18076 0.21552 0.0
O15 O 0.36335 0.0861 0.28389 0.0
O16 O 0.28871 0.0451 0.28521 0.0
O17 O 0.45431 0.13085 0.2328 0.0
C18 C 0.33387 0.05526 0.14068 0.0
C19 C 0.32667 0.05968 0.3058 0.0
Zn20 Zn 0.78132 0.73428 0.2748 0.0
Zn21 Zn 0.70809 0.6011 0.25847 0.0
C22 C 0.87304 0.76294 0.28723 0.0
O23 O 0.86431 0.77821 0.32751 0.0
C24 C 0.62786 0.51809 0.22503 0.0
O25 O 0.64916 0.52696 0.1829 0.0
O26 O 0.79645 0.79914 0.29104 0.0
O27 O 0.74207 0.71586 0.21497 0.0
O28 O 0.70299 0.64015 0.20659 0.0
C29 C 0.8071 0.83069 0.25945 0.0
O30 O 0.80736 0.82131 0.21296 0.0
O31 O 0.84067 0.73873 0.25851 0.0
C32 C 0.78759 0.5904 0.26849 0.0
O33 O 0.79824 0.62021 0.30388 0.0
O34 O 0.75255 0.57968 0.24306 0.0
O35 O 0.7146 0.62373 0.32647 0.0
O36 O 0.75467 0.69883 0.33699 0.0
O37 O 0.64676 0.54461 0.26088 0.0
C38 C 0.71439 0.6802 0.1918 0.0
C39 C 0.73099 0.6585 0.35386 0.0
Zn40 Zn 0.97989 0.24806 0.24535 0.0
Zn41 Zn 0.88944 0.28092 0.24183 0.0
C42 C 0.93431 0.16177 0.29682 0.0
O43 O 0.96157 0.18673 0.33195 0.0
C44 C 0.87121 0.35391 0.22593 0.0
O45 O 0.84706 0.32638 0.19052 0.0
O46 O 0.04102 0.25385 0.25242 0.0
O47 O 0.97557 0.26635 0.1783 0.0
O48 O 0.92336 0.28749 0.17842 0.0
C49 C 0.05908 0.2434 0.21796 0.0
O50 O 0.03737 0.2288 0.17643 0.0
O51 O 0.93413 0.1811 0.25691 0.0
C52 C 0.79807 0.22386 0.26888 0.0
O53 O 0.81665 0.23518 0.3123 0.0
O54 O 0.82321 0.23799 0.23118 0.0
O55 O 0.90605 0.26186 0.30553 0.0
O56 O 0.97895 0.2911 0.29399 0.0
O57 O 0.89395 0.34233 0.25337 0.0
C58 C 0.95316 0.28181 0.15662 0.0
C59 C 0.94522 0.27511 0.32234 0.0
Zn60 Zn 0.08898 0.40104 0.73271 0.0
Zn61 Zn 0.02996 0.25684 0.73064 0.0
C62 C 0.17648 0.42763 0.77272 0.0
O63 O 0.15231 0.40876 0.81226 0.0
C64 C 0.95608 0.17886 0.68055 0.0
O65 O 0.98493 0.1891 0.64434 0.0
O66 O 0.07823 0.45284 0.7494 0.0
O67 O 0.066 0.37971 0.66396 0.0
O68 O 0.04616 0.31383 0.69578 0.0
C69 C 0.09175 0.48425 0.71726 0.0
O70 O 0.10904 0.4793 0.67637 0.0
O71 O 0.15653 0.42744 0.73348 0.0
C72 C 0.0675 0.19879 0.73922 0.0
O73 O 0.03031 0.17527 0.76502 0.0
O74 O 0.07572 0.23667 0.72039 0.0
O75 O 0.03035 0.27532 0.79962 0.0
O76 O 0.06 0.34952 0.78407 0.0
O77 O 0.96764 0.20433 0.71796 0.0
C78 C 0.04694 0.33683 0.6591 0.0
C79 C 0.04189 0.31568 0.81364 0.0
Zn80 Zn 0.29114 0.88531 0.7214 0.0
Zn81 Zn 0.21546 0.93291 0.72551 0.0
C82 C 0.20555 0.80703 0.75429 0.0
O83 O 0.21251 0.82996 0.79506 0.0
C84 C 0.22376 0.02192 0.71119 0.0
O85 O 0.26359 0.03254 0.69332 0.0
O86 O 0.34137 0.87004 0.72156 0.0
O87 O 0.30025 0.92278 0.66172 0.0
O88 O 0.24943 0.94555 0.66185 0.0
C89 C 0.36742 0.87652 0.68542 0.0
O90 O 0.36126 0.89284 0.64434 0.0
O91 O 0.23298 0.82531 0.71883 0.0
C92 C 0.12867 0.8722 0.75924 0.0
O93 O 0.14491 0.90219 0.79478 0.0
O94 O 0.15535 0.87483 0.72526 0.0
O95 O 0.25057 0.94328 0.78772 0.0
O96 O 0.29959 0.91829 0.78395 0.0
O97 O 0.19791 0.9817 0.72728 0.0
C98 C 0.28132 0.94263 0.64136 0.0
C99 C 0.2818 0.93815 0.8065 0.0
Zn100 Zn 0.59867 0.69505 0.76097 0.0
Zn101 Zn 0.72719 0.77208 0.76408 0.0
C102 C 0.56879 0.75851 0.76734 0.0
O103 O 0.5555 0.73749 0.80973 0.0
C104 C 0.81077 0.78293 0.72773 0.0
O105 O 0.78944 0.77743 0.6863 0.0
O106 O 0.53539 0.64326 0.77245 0.0
O107 O 0.62431 0.67447 0.70783 0.0
O108 O 0.69769 0.72432 0.71227 0.0
C109 C 0.50388 0.63319 0.74182 0.0
O110 O 0.51299 0.65655 0.70082 0.0
O111 O 0.59203 0.74825 0.73925 0.0
C112 C 0.74837 0.86593 0.76728 0.0
O113 O 0.75806 0.86245 0.81297 0.0
O114 O 0.73171 0.83062 0.74053 0.0
O115 O 0.70203 0.75335 0.83224 0.0
O116 O 0.62808 0.70574 0.82624 0.0
O117 O 0.79153 0.78354 0.76733 0.0
C118 C 0.66434 0.69076 0.69182 0.0
C119 C 0.66377 0.72667 0.85159 0.0
H120 H 0.23609 0.95489 0.8781 0.0
H121 H 0.36329 0.95991 0.84679 0.0
H122 H 0.39025 0.98933 0.92975 0.0
H123 H 0.28072 0.05632 0.94946 0.0
H124 H 0.23441 0.03308 -0.00754 0.0
H125 H 0.22527 0.01246 0.93063 0.0
H126 H 0.19356 0.92961 0.96269 0.0
H127 H 0.20273 0.94999 0.02466 0.0
H128 H 0.22739 0.91681 0.00328 0.0
H129 H 0.4045 0.02141 0.01454 0.0
H130 H 0.40349 0.05014 0.09717 0.0
H131 H 0.26544 0.02008 0.07398 0.0
C132 C 0.26966 0.96231 0.88866 0.0
C133 C 0.29776 0.95545 0.85606 0.0
C134 C 0.34123 0.96493 0.87134 0.0
C135 C 0.35685 0.98168 0.91828 0.0
C136 C 0.32831 0.9881 0.94955 0.0
C137 C 0.28549 0.97833 0.93556 0.0
C138 C 0.26127 0.98758 0.97636 0.0
C139 C 0.24977 0.02457 0.96132 0.0
C140 C 0.21873 0.94336 -0.00729 0.0
C141 C 0.29743 0.00472 0.01523 0.0
C142 C 0.33591 0.00496 -0.00099 0.0
C143 C 0.37443 0.02101 0.02787 0.0
C144 C 0.37357 0.03732 0.07462 0.0
C145 C 0.33428 0.03697 0.09203 0.0
C146 C 0.29574 0.02018 0.06192 0.0
H147 H 0.72745 0.74012 0.62328 0.0
H148 H 0.61643 0.60405 0.6545 0.0
H149 H 0.62689 0.57838 0.57323 0.0
H150 H 0.70027 0.74507 0.50398 0.0
H151 H 0.7576 0.77654 0.48157 0.0
H152 H 0.74549 0.78219 0.54425 0.0
H153 H 0.80316 0.75843 0.57306 0.0
H154 H 0.81584 0.75295 0.51035 0.0
H155 H 0.79793 0.70548 0.55201 0.0
H156 H 0.64606 0.56988 0.48656 0.0
H157 H 0.66924 0.57953 0.40003 0.0
H158 H 0.76732 0.72221 0.42662 0.0
C159 C 0.70663 0.70446 0.61397 0.0
C160 C 0.67208 0.67367 0.64557 0.0
C161 C 0.6435 0.62793 0.63086 0.0
C162 C 0.64936 0.61308 0.58501 0.0
C163 C 0.68382 0.64455 0.55461 0.0
C164 C 0.71193 0.68931 0.56856 0.0
C165 C 0.74352 0.71763 0.52775 0.0
C166 C 0.73624 0.75769 0.51356 0.0
C167 C 0.79304 0.7346 0.54162 0.0
C168 C 0.72788 0.68217 0.48795 0.0
C169 C 0.694 0.64005 0.50435 0.0
C170 C 0.67287 0.60255 0.47345 0.0
C171 C 0.68627 0.60845 0.42433 0.0
C172 C 0.72006 0.65171 0.40652 0.0
C173 C 0.74148 0.68873 0.43909 0.0
H174 H 0.98306 0.24314 0.09084 0.0
H175 H 0.94582 0.34804 0.10577 0.0
H176 H 0.96899 0.37186 0.0198 0.0
H177 H 0.08006 0.30527 0.01514 0.0
H178 H 0.06886 0.25649 0.97851 0.0
H179 H 0.05005 0.24857 0.04112 0.0
H180 H 0.9677 0.19288 0.01386 0.0
H181 H 0.98636 0.20014 0.95128 0.0
H182 H 0.94178 0.21127 0.96857 0.0
H183 H -0.00022 0.38576 0.93286 0.0
H184 H 0.02496 0.38144 0.84905 0.0
H185 H 0.03744 0.26447 0.8923 0.0
C186 C 0.97976 0.27114 0.07604 0.0
C187 C 0.9631 0.2941 0.10475 0.0
C188 C 0.95851 0.33005 0.08406 0.0
C189 C 0.97187 0.34397 0.03555 0.0
C190 C 0.98904 0.32106 0.00847 0.0
C191 C 0.99216 0.28486 0.02782 0.0
C192 C 0.00967 0.26436 0.99086 0.0
C193 C 0.05484 0.26897 0.00741 0.0
C194 C 0.97426 0.21421 0.98053 0.0
C195 C 0.0161 0.29473 0.9475 0.0
C196 C 0.00474 0.32772 0.95839 0.0
C197 C 0.00851 0.35991 0.92386 0.0
C198 C 0.02308 0.35741 0.87657 0.0
C199 C 0.03282 0.32248 0.86446 0.0
C200 C 0.02992 0.29134 0.90061 0.0
H201 H 0.25911 0.02526 0.37481 0.0
H202 H 0.39899 0.06161 0.35041 0.0
H203 H 0.40268 0.03644 0.43406 0.0
H204 H 0.27422 0.06325 0.50048 0.0
H205 H 0.21974 0.01758 0.51998 0.0
H206 H 0.22784 0.03829 0.45796 0.0
H207 H 0.1996 0.95622 0.42615 0.0
H208 H 0.19141 0.93525 0.48804 0.0
H209 H 0.22673 0.92509 0.44691 0.0
H210 H 0.39047 0.0044 0.51838 0.0
H211 H 0.36427 0.9714 0.60059 0.0
H212 H 0.23363 0.95938 0.57192 0.0
C213 C 0.29047 0.02784 0.38709 0.0
C214 C 0.32869 0.04515 0.35612 0.0
C215 C 0.36931 0.04851 0.3736 0.0
C216 C 0.37174 0.03424 0.42099 0.0
C217 C 0.33347 0.01725 0.45054 0.0
C218 C 0.29373 0.01438 0.43455 0.0
C219 C 0.25776 0.99541 0.47403 0.0
C220 C 0.2441 0.03075 0.48899 0.0
C221 C 0.21644 0.95031 0.4578 0.0
C222 C 0.28339 0.98757 0.51445 0.0
C223 C 0.32691 1.00018 0.5 0.0
C224 C 0.35659 0.99469 0.53033 0.0
C225 C 0.34135 0.97577 0.57682 0.0
C226 C 0.29702 0.96301 0.59256 0.0
C227 C 0.26786 0.9693 0.561 0.0
H228 H 0.72873 0.77244 0.92159 0.0
H229 H 0.59143 0.66033 0.90185 0.0
H230 H 0.58729 0.64099 0.98907 0.0
H231 H 0.76417 0.71662 0.00196 0.0
H232 H 0.79776 0.76539 0.04013 0.0
H233 H 0.78873 0.77365 0.97708 0.0
H234 H 0.75638 0.82548 0.003 0.0
H235 H 0.7654 0.81743 0.06627 0.0
H236 H 0.70996 0.80407 0.0458 0.0
H237 H 0.60103 0.62721 0.07461 0.0
H238 H 0.63058 0.62326 0.15569 0.0
H239 H 0.75694 0.74677 0.12249 0.0
C240 C 0.69756 0.74427 0.93577 0.0
C241 C 0.66048 0.71786 0.90479 0.0
C242 C 0.6203 0.68119 0.92478 0.0
C243 C 0.61753 0.66992 0.97435 0.0
C244 C 0.6549 0.69607 0.00366 0.0
C245 C 0.69396 0.73286 0.9854 0.0
C246 C 0.72991 0.75401 0.0245 0.0
C247 C 0.77265 0.75228 0.01004 0.0
C248 C 0.74105 0.80316 0.03554 0.0
C249 C 0.70545 0.72226 0.06699 0.0
C250 C 0.66217 0.68917 0.05413 0.0
C251 C 0.63444 0.65351 0.08559 0.0
C252 C 0.65153 0.65142 0.13137 0.0
C253 C 0.69567 0.68507 0.14532 0.0
C254 C 0.72264 0.72131 0.11303 0.0
H255 H 0.02343 0.32533 0.37213 0.0
H256 H 0.88251 0.22179 0.39155 0.0
H257 H 0.89512 0.22066 0.48054 0.0
H258 H 0.07073 0.28481 0.46668 0.0
H259 H 0.11175 0.34202 0.48488 0.0
H260 H 0.09251 0.33072 0.42253 0.0
H261 H 0.06862 0.39249 0.42778 0.0
H262 H 0.08782 0.40402 0.48997 0.0
H263 H 0.03043 0.38867 0.47555 0.0
H264 H 0.92312 0.23351 0.56789 0.0
H265 H 0.96216 0.26463 0.64665 0.0
H266 H 0.08282 0.36218 0.56865 0.0
C267 C 0.99533 0.30193 0.39497 0.0
C268 C 0.95208 0.27347 0.37516 0.0
C269 C 0.91592 0.24393 0.40625 0.0
C270 C 0.92285 0.24282 0.45664 0.0
C271 C 0.966 0.27166 0.47505 0.0
C272 C 0.00148 0.30092 0.44511 0.0
C273 C 0.04357 0.3313 0.474 0.0
C274 C 0.0819 0.32161 0.46126 0.0
C275 C 0.05845 0.38211 0.46638 0.0
C276 C 0.02602 0.31545 0.52511 0.0
C277 C 0.98155 0.28027 0.52506 0.0
C278 C 0.95801 0.26078 0.56831 0.0
C279 C 0.98039 0.27835 0.61271 0.0
C280 C 0.02534 0.3152 0.61309 0.0
C281 C 0.04844 0.33373 0.56891 0.0
H282 H 0.56609 0.17708 0.1506 0.0
H283 H 0.5034 0.11772 0.29041 0.0
H284 H 0.57502 0.12554 0.31943 0.0
H285 H 0.6394 0.12621 0.14484 0.0
H286 H 0.68605 0.1767 0.11823 0.0
H287 H 0.62877 0.16333 0.10645 0.0
H288 H 0.64751 0.24308 0.13843 0.0
H289 H 0.7048 0.25673 0.15006 0.0
H290 H 0.67113 0.26049 0.19865 0.0
H291 H 0.65357 0.14423 0.33587 0.0
H292 H 0.73597 0.17505 0.33933 0.0
H293 H 0.74858 0.22168 0.18908 0.0
C294 C 0.56733 0.16524 0.18707 0.0
C295 C 0.5291 0.1467 0.21813 0.0
C296 C 0.53221 0.13208 0.26588 0.0
C297 C 0.5727 0.13613 0.28269 0.0
C298 C 0.60978 0.15474 0.25135 0.0
C299 C 0.60764 0.16914 0.2046 0.0
C300 C 0.65336 0.1904 0.17955 0.0
C301 C 0.65178 0.16248 0.1346 0.0
C302 C 0.67018 0.24065 0.16589 0.0
C303 C 0.68155 0.18647 0.21996 0.0
C304 C 0.65556 0.16541 0.26086 0.0
C305 C 0.67428 0.16027 0.30391 0.0
C306 C 0.72107 0.17792 0.30554 0.0
C307 C 0.7485 0.20037 0.26439 0.0
C308 C 0.7283 0.20388 0.22079 0.0
H309 H 0.58557 0.4446 0.16365 0.0
H310 H 0.57032 0.49658 0.30288 0.0
H311 H 0.49987 0.42398 0.31846 0.0
H312 H 0.46163 0.37302 0.13553 0.0
H313 H 0.46931 0.32837 0.1095 0.0
H314 H 0.51397 0.38713 0.10517 0.0
H315 H 0.56952 0.36578 0.14605 0.0
H316 H 0.52521 0.30718 0.15029 0.0
H317 H 0.55506 0.33711 0.2045 0.0
H318 H 0.43784 0.3428 0.32449 0.0
H319 H 0.39124 0.25864 0.32173 0.0
H320 H 0.4462 0.25938 0.17847 0.0
C321 C 0.56675 0.44117 0.19679 0.0
C322 C 0.58336 0.47633 0.23193 0.0
C323 C 0.55824 0.47014 0.27536 0.0
C324 C 0.51798 0.42912 0.28441 0.0
C325 C 0.50305 0.39468 0.24955 0.0
C326 C 0.52658 0.40033 0.20649 0.0
C327 C 0.5062 0.35634 0.17763 0.0
C328 C 0.48661 0.36154 0.12908 0.0
C329 C 0.54106 0.3407 0.16917 0.0
C330 C 0.46898 0.32457 0.21228 0.0
C331 C 0.46708 0.34753 0.25309 0.0
C332 C 0.43838 0.32457 0.29229 0.0
C333 C 0.41209 0.27675 0.29046 0.0
C334 C 0.41497 0.25247 0.24986 0.0
C335 C 0.44258 0.27698 0.20963 0.0
H336 H 0.81499 0.38019 0.18378 0.0
H337 H 0.92344 0.42335 0.28932 0.0
H338 H 0.91823 0.49246 0.30669 0.0
H339 H 0.8453 0.49393 0.13783 0.0
H340 H 0.78713 0.47988 0.13225 0.0
H341 H 0.80203 0.43595 0.12532 0.0
H342 H 0.74475 0.38796 0.19332 0.0
H343 H 0.72962 0.43162 0.20037 0.0
H344 H 0.74888 0.41321 0.25237 0.0
H345 H 0.89808 0.55471 0.31573 0.0
H346 H 0.86278 0.6032 0.3182 0.0
H347 H 0.76709 0.51845 0.20718 0.0
C348 C 0.83816 0.40446 0.21005 0.0
C349 C 0.86985 0.39648 0.23499 0.0
C350 C 0.89898 0.42879 0.26966 0.0
C351 C 0.89637 0.46822 0.27964 0.0
C352 C 0.86445 0.47481 0.25466 0.0
C353 C 0.83583 0.44375 0.22062 0.0
C354 C 0.80266 0.45728 0.20092 0.0
C355 C 0.80973 0.46736 0.14581 0.0
C356 C 0.75359 0.42033 0.21246 0.0
C357 C 0.81658 0.50046 0.22977 0.0
C358 C 0.85257 0.51028 0.26021 0.0
C359 C 0.87012 0.54752 0.29177 0.0
C360 C 0.84983 0.5749 0.29288 0.0
C361 C 0.81221 0.56479 0.26282 0.0
C362 C 0.79604 0.52746 0.23031 0.0
H363 H 0.12518 0.5594 0.65819 0.0
H364 H 0.06272 0.50832 0.79991 0.0
H365 H 0.0741 0.58472 0.81996 0.0
H366 H 0.21111 0.66104 0.69856 0.0
H367 H 0.21277 0.69447 0.64629 0.0
H368 H 0.19205 0.63433 0.63982 0.0
H369 H 0.1167 0.62329 0.60473 0.0
H370 H 0.13729 0.68366 0.61109 0.0
H371 H 0.08448 0.64275 0.63915 0.0
H372 H 0.10243 0.66912 0.82885 0.0
H373 H 0.14682 0.75352 0.82667 0.0
H374 H 0.19024 0.74837 0.6789 0.0
C375 C 0.11271 0.56383 0.69295 0.0
C376 C 0.09289 0.52783 0.7274 0.0
C377 C 0.07778 0.53535 0.77281 0.0
C378 C 0.08395 0.57859 0.78444 0.0
C379 C 0.10485 0.61374 0.75009 0.0
C380 C 0.11871 0.60664 0.7051 0.0
C381 C 0.14479 0.65082 0.67669 0.0
C382 C 0.19301 0.66073 0.66469 0.0
C383 C 0.11927 0.65007 0.63016 0.0
C384 C 0.1452 0.68429 0.7135 0.0
C385 C 0.1213 0.66229 0.75528 0.0
C386 C 0.12051 0.68663 0.79597 0.0
C387 C 0.14587 0.7346 0.79441 0.0
C388 C 0.172 0.7576 0.75261 0.0
C389 C 0.17025 0.73193 0.71121 0.0
H390 H 0.38892 0.84186 0.76514 0.0
H391 H 0.43007 0.88773 0.61579 0.0
H392 H 0.49142 0.86935 0.62308 0.0
H393 H 0.50244 0.88308 0.81413 0.0
H394 H 0.48411 0.83429 0.85396 0.0
H395 H 0.44557 0.85417 0.83809 0.0
H396 H 0.38791 0.77352 0.80606 0.0
H397 H 0.4261 0.7534 0.82212 0.0
H398 H 0.40557 0.74725 0.7604 0.0
H399 H 0.54533 0.8414 0.64518 0.0
H400 H 0.58518 0.8033 0.67921 0.0
H401 H 0.50879 0.77675 0.8141 0.0
C402 C 0.41105 0.84847 0.73405 0.0
C403 C 0.4047 0.8663 0.6899 0.0
C404 C 0.43427 0.87412 0.65002 0.0
C405 C 0.46935 0.86398 0.65386 0.0
C406 C 0.47455 0.8463 0.6979 0.0
C407 C 0.44618 0.83862 0.73726 0.0
C408 C 0.45737 0.81715 0.77965 0.0
C409 C 0.47333 0.84909 0.82408 0.0
C410 C 0.41684 0.77004 0.79279 0.0
C411 C 0.49576 0.8129 0.75759 0.0
C412 C 0.50557 0.83035 0.71062 0.0
C413 C 0.53826 0.82805 0.68211 0.0
C414 C 0.56075 0.80639 0.70178 0.0
C415 C 0.55022 0.78715 0.74937 0.0
C416 C 0.518 0.79149 0.77781 0.0
H417 H 0.23699 0.48445 0.70359 0.0
H418 H 0.22887 0.42559 0.84712 0.0
H419 H 0.31214 0.46901 0.85298 0.0
H420 H 0.34037 0.48699 0.66324 0.0
H421 H 0.36151 0.54098 0.63199 0.0
H422 H 0.30144 0.50284 0.63766 0.0
H423 H 0.29278 0.56738 0.67814 0.0
H424 H 0.35278 0.60563 0.67274 0.0
H425 H 0.32562 0.59543 0.73161 0.0
H426 H 0.3958 0.52141 0.845 0.0
H427 H 0.47416 0.57964 0.82403 0.0
H428 H 0.4277 0.60511 0.68607 0.0
C429 C 0.25272 0.48016 0.73597 0.0
C430 C 0.22643 0.45145 0.77483 0.0
C431 C 0.24832 0.44732 0.81687 0.0
C432 C 0.2956 0.47178 0.82051 0.0
C433 C 0.32047 0.50022 0.78183 0.0
C434 C 0.29984 0.50452 0.74034 0.0
C435 C 0.33425 0.539 0.70498 0.0
C436 C 0.33439 0.51607 0.65661 0.0
C437 C 0.32585 0.57924 0.69639 0.0
C438 C 0.37741 0.55379 0.73333 0.0
C439 C 0.36873 0.53079 0.77742 0.0
C440 C 0.40307 0.53943 0.81045 0.0
C441 C 0.44748 0.57262 0.79819 0.0
C442 C 0.45714 0.5969 0.75335 0.0
C443 C 0.42152 0.58701 0.7205 0.0
H444 H 0.22769 0.15144 0.17604 0.0
H445 H 0.27808 0.19823 0.32226 0.0
H446 H 0.23787 0.24204 0.32375 0.0
H447 H 0.22462 0.2573 0.13434 0.0
H448 H 0.17297 0.22269 0.10123 0.0
H449 H 0.21418 0.20437 0.10711 0.0
H450 H 0.15248 0.12735 0.1438 0.0
H451 H 0.11135 0.14551 0.13875 0.0
H452 H 0.12156 0.1276 0.19717 0.0
H453 H 0.18095 0.26767 0.31581 0.0
H454 H 0.11411 0.27526 0.2981 0.0
H455 H 0.10044 0.21116 0.1572 0.0
C456 C 0.23176 0.1723 0.20768 0.0
C457 C 0.25601 0.17142 0.24906 0.0
C458 C 0.25973 0.19845 0.29011 0.0
C459 C 0.23711 0.22357 0.29121 0.0
C460 C 0.21141 0.22166 0.25078 0.0
C461 C 0.20918 0.19722 0.20944 0.0
C462 C 0.17479 0.1957 0.17348 0.0
C463 C 0.19804 0.22157 0.12624 0.0
C464 C 0.13789 0.14611 0.16273 0.0
C465 C 0.15613 0.22083 0.2022 0.0
C466 C 0.1783 0.23638 0.24624 0.0
C467 C 0.16407 0.25664 0.28096 0.0
C468 C 0.12589 0.26056 0.27066 0.0
C469 C 0.10215 0.24392 0.22617 0.0
C470 C 0.11823 0.22479 0.19121 0.0
H471 H 0.94836 0.83472 0.32612 0.0
H472 H 0.90414 0.73402 0.21043 0.0
H473 H 0.98189 0.77251 0.17671 0.0
H474 H 0.01592 0.92823 0.25333 0.0
H475 H 0.05933 0.95809 0.2983 0.0
H476 H 0.00228 0.91903 0.31752 0.0
H477 H 0.03008 0.87326 0.369 0.0
H478 H 0.08742 0.91263 0.35055 0.0
H479 H 0.0637 0.85222 0.34035 0.0
H480 H 0.0633 0.82607 0.15206 0.0
H481 H 0.14147 0.88965 0.13904 0.0
H482 H 0.12991 0.95628 0.26915 0.0
C483 C 0.95519 0.81993 0.29447 0.0
C484 C 0.92031 0.78117 0.27109 0.0
C485 C 0.93048 0.76356 0.22907 0.0
C486 C 0.9745 0.78519 0.20967 0.0
C487 C 0.00778 0.82432 0.23274 0.0
C488 C -0.00137 0.84133 0.2744 0.0
C489 C 0.03917 0.88581 0.29013 0.0
C490 C 0.02852 0.92508 0.28977 0.0
C491 C 0.05609 0.88065 0.34049 0.0
C492 C 0.07232 0.89177 0.25021 0.0
C493 C 0.05392 0.85573 0.21779 0.0
C494 C 0.07815 0.8543 0.17743 0.0
C495 C 0.12243 0.89058 0.17027 0.0
C496 C 0.14164 0.92796 0.20295 0.0
C497 C 0.11609 0.92834 0.24334 0.0
H498 H 0.899 0.09811 0.22345 0.0
H499 H 0.91359 0.11129 0.38092 0.0
H500 H 0.87818 0.02741 0.38881 0.0
H501 H 0.79082 0.98927 0.22173 0.0
H502 H 0.80719 0.96826 0.16964 0.0
H503 H 0.8293 0.02879 0.17682 0.0
H504 H 0.91094 0.04241 0.17112 0.0
H505 H 0.88913 0.98198 0.16425 0.0
H506 H 0.92845 0.01258 0.21257 0.0
H507 H 0.84553 0.94255 0.37925 0.0
H508 H 0.81893 0.86328 0.35303 0.0
H509 H 0.8276 0.90544 0.2015 0.0
C510 C 0.89381 0.08328 0.25967 0.0
C511 C 0.90869 0.11126 0.30165 0.0
C512 C 0.90228 0.09054 0.34829 0.0
C513 C 0.88214 0.04291 0.35314 0.0
C514 C 0.86873 0.01638 0.31098 0.0
C515 C 0.87422 0.03579 0.26513 0.0
C516 C 0.85964 0.99992 0.2255 0.0
C517 C 0.81934 0.99635 0.19673 0.0
C518 C 0.89941 0.00983 0.19137 0.0
C519 C 0.84572 0.95742 0.25617 0.0
C520 C 0.85079 0.9676 0.3054 0.0
C521 C 0.84112 0.93414 0.34081 0.0
C522 C 0.82603 0.88916 0.32551 0.0
C523 C 0.82106 0.87797 0.27518 0.0
C524 C 0.83088 0.91273 0.24023 0.0
H525 H 0.05695 0.11691 0.77086 0.0
H526 H 0.14802 0.23947 0.68913 0.0
H527 H 0.19882 0.20823 0.67445 0.0
H528 H 0.14345 0.10058 0.82815 0.0
H529 H 0.111 0.03915 0.82402 0.0
H530 H 0.08251 0.07176 0.82914 0.0
H531 H 0.03792 0.03443 0.74993 0.0
H532 H 0.0663 1.00176 0.74467 0.0
H533 H 0.06841 0.0378 0.69478 0.0
H534 H 0.2392 0.16311 0.66786 0.0
H535 H 0.26559 0.10698 0.66886 0.0
H536 H 0.14744 0.01383 0.75414 0.0
C537 C 0.08767 0.13735 0.75006 0.0
C538 C 0.09855 0.18071 0.73121 0.0
C539 C 0.139 0.2062 0.70399 0.0
C540 C 0.16809 0.18876 0.69548 0.0
C541 C 0.15623 0.14583 0.71444 0.0
C542 C 0.11698 0.12046 0.74116 0.0
C543 C 0.11166 0.07496 0.75686 0.0
C544 C 0.11221 0.07143 0.81286 0.0
C545 C 0.06852 0.03488 0.73525 0.0
C546 C 0.15382 0.0785 0.73433 0.0
C547 C 0.17924 0.11973 0.7103 0.0
C548 C 0.21962 0.13073 0.68663 0.0
C549 C 0.23435 0.09865 0.68745 0.0
C550 C 0.20859 0.05602 0.71154 0.0
C551 C 0.16787 0.04606 0.73532 0.0
H552 H 0.06257 0.87056 0.81741 0.0
H553 H 0.08276 0.81213 0.68527 0.0
H554 H 0.0015 0.77761 0.66638 0.0
H555 H 0.94654 0.77517 0.84642 0.0
H556 H 0.92868 0.8142 0.86764 0.0
H557 H 0.98683 0.82845 0.87425 0.0
H558 H 0.01241 0.90456 0.82781 0.0
H559 H 0.95447 0.89033 0.82029 0.0
H560 H 0.9906 0.90325 0.76754 0.0
H561 H 0.92141 0.75958 0.65558 0.0
H562 H 0.84605 0.75291 0.65739 0.0
H563 H 0.87715 0.82147 0.79756 0.0
C564 C 0.04974 0.84934 0.78525 0.0
C565 C 0.07909 0.84399 0.75285 0.0
C566 C 0.06095 0.81656 0.71076 0.0
C567 C 0.01483 0.79687 0.69968 0.0
C568 C 0.98726 0.80456 0.73131 0.0
C569 C 0.00386 0.8295 0.77367 0.0
C570 C 0.9679 0.83549 0.79968 0.0
C571 C 0.95683 0.81191 0.84998 0.0
C572 C 0.98221 0.88641 0.80406 0.0
C573 C 0.92876 0.81098 0.76469 0.0
C574 C 0.94066 0.79337 0.72551 0.0
C575 C 0.9114 0.77239 0.68655 0.0
C576 C 0.86879 0.76905 0.68777 0.0
C577 C 0.85567 0.78634 0.72782 0.0
C578 C 0.886 0.80725 0.76691 0.0
H579 H 0.90831 0.13293 0.76139 0.0
H580 H 0.91059 0.12273 0.60367 0.0
H581 H 0.84661 0.04329 0.60853 0.0
H582 H 0.8957 0.0284 0.78483 0.0
H583 H 0.85991 0.01558 0.83785 0.0
H584 H 0.89834 0.074 0.82136 0.0
H585 H 0.83186 0.09046 0.81847 0.0
H586 H 0.79304 0.03189 0.8352 0.0
H587 H 0.78355 0.05585 0.78057 0.0
H588 H 0.78966 0.96245 0.6315 0.0
H589 H 0.74904 0.88619 0.67009 0.0
H590 H 0.78699 0.94884 0.81319 0.0
C591 C 0.8943 0.1146 0.72769 0.0
C592 C 0.91392 0.13414 0.68205 0.0
C593 C 0.89573 0.10847 0.63895 0.0
C594 C 0.85928 0.06345 0.64138 0.0
C595 C 0.84159 0.04471 0.6872 0.0
C596 C 0.85858 0.06956 0.72959 0.0
C597 C 0.83833 0.03994 0.77456 0.0
C598 C 0.87527 0.03945 0.80648 0.0
C599 C 0.81 0.05547 0.80392 0.0
C600 C 0.80863 0.99404 0.75097 0.0
C601 C 0.81001 0.99768 0.70058 0.0
C602 C 0.78781 0.95932 0.6709 0.0
C603 C 0.7648 0.91609 0.69323 0.0
C604 C 0.76485 0.91151 0.74474 0.0
C605 C 0.78598 0.95119 0.7738 0.0
loop_
_geom_bond_atom_site_label_1
_geom_bond_atom_site_label_2
_geom_bond_distance
_geom_bond_site_symmetry_2
_ccdc_geom_bond_type
Zn0 O6 1.969 1_545 S
Zn0 O7 1.965 . S
Zn0 O11 2.024 . S
Zn0 O16 1.969 . S
Zn1 O8 1.969 . S
Zn1 O14 1.969 . S
Zn1 O15 1.965 . S
Zn1 O17 2.024 . S
C2 O3 1.229 . S
C2 O11 1.058 . S
O3 C2 1.229 . S
C4 O5 1.229 . S
C4 O17 1.058 . S
O5 C4 1.229 . S
O6 Zn0 1.969 1_565 S
O6 C9 1.267 . S
O7 Zn0 1.965 . S
O7 C18 1.260 . S
O8 Zn1 1.969 . S
O8 C18 1.258 . S
C9 O6 1.267 . S
C9 O10 1.228 . S
O10 C9 1.228 . S
O11 Zn0 2.024 . S
O11 C2 1.058 . S
C12 O13 1.228 . S
C12 O14 1.267 . S
O13 C12 1.228 . S
O14 Zn1 1.969 . S
O14 C12 1.267 . S
O15 Zn1 1.965 . S
O15 C19 1.260 . S
O16 Zn0 1.969 . S
O16 C19 1.258 . S
O17 Zn1 2.024 . S
O17 C4 1.058 . S
C18 O7 1.260 . S
C18 O8 1.258 . S
C19 O15 1.260 . S
C19 O16 1.258 . S
Zn20 O26 1.969 . S
Zn20 O27 1.965 . S
Zn20 O31 2.024 . S
Zn20 O36 1.969 . S
Zn21 O28 1.969 . S
Zn21 O34 1.969 . S
Zn21 O35 1.965 . S
Zn21 O37 2.024 . S
C22 O23 1.229 . S
C22 O31 1.058 . S
O23 C22 1.229 . S
C24 O25 1.229 . S
C24 O37 1.058 . S
O25 C24 1.229 . S
O26 Zn20 1.969 . S
O26 C29 1.267 . S
O27 Zn20 1.965 . S
O27 C38 1.260 . S
O28 Zn21 1.969 . S
O28 C38 1.258 . S
C29 O26 1.267 . S
C29 O30 1.228 . S
O30 C29 1.228 . S
O31 Zn20 2.024 . S
O31 C22 1.058 . S
C32 O33 1.228 . S
C32 O34 1.267 . S
O33 C32 1.228 . S
O34 Zn21 1.969 . S
O34 C32 1.267 . S
O35 Zn21 1.965 . S
O35 C39 1.260 . S
O36 Zn20 1.969 . S
O36 C39 1.258 . S
O37 Zn21 2.024 . S
O37 C24 1.058 . S
C38 O27 1.260 . S
C38 O28 1.258 . S
C39 O35 1.260 . S
C39 O36 1.258 . S
Zn40 O46 1.969 1_655 S
Zn40 O47 1.965 . S
Zn40 O51 2.024 . S
Zn40 O56 1.969 . S
Zn41 O48 1.969 . S
Zn41 O54 1.969 . S
Zn41 O55 1.965 . S
Zn41 O57 2.024 . S
C42 O43 1.229 . S
C42 O51 1.058 . S
O43 C42 1.229 . S
C44 O45 1.229 . S
C44 O57 1.058 . S
O45 C44 1.229 . S
O46 Zn40 1.969 1_455 S
O46 C49 1.267 . S
O47 Zn40 1.965 . S
O47 C58 1.260 . S
O48 Zn41 1.969 . S
O48 C58 1.258 . S
C49 O46 1.267 . S
C49 O50 1.228 . S
O50 C49 1.228 . S
O51 Zn40 2.024 . S
O51 C42 1.058 . S
C52 O53 1.228 . S
C52 O54 1.267 . S
O53 C52 1.228 . S
O54 Zn41 1.969 . S
O54 C52 1.267 . S
O55 Zn41 1.965 . S
O55 C59 1.260 . S
O56 Zn40 1.969 . S
O56 C59 1.258 . S
O57 Zn41 2.024 . S
O57 C44 1.058 . S
C58 O47 1.260 . S
C58 O48 1.258 . S
C59 O55 1.260 . S
C59 O56 1.258 . S
Zn60 O66 1.969 . S
Zn60 O67 1.965 . S
Zn60 O71 2.024 . S
Zn60 O76 1.969 . S
Zn61 O68 1.969 . S
Zn61 O74 1.969 . S
Zn61 O75 1.965 . S
Zn61 O77 2.024 . S
C62 O63 1.229 . S
C62 O71 1.058 . S
O63 C62 1.229 . S
C64 O65 1.229 1_655 S
C64 O77 1.058 1_655 S
O65 C64 1.229 1_455 S
O66 Zn60 1.969 . S
O66 C69 1.267 . S
O67 Zn60 1.965 . S
O67 C78 1.260 . S
O68 Zn61 1.969 . S
O68 C78 1.258 . S
C69 O66 1.267 . S
C69 O70 1.228 . S
O70 C69 1.228 . S
O71 Zn60 2.024 . S
O71 C62 1.058 . S
C72 O73 1.228 . S
C72 O74 1.267 . S
O73 C72 1.228 . S
O74 Zn61 1.969 . S
O74 C72 1.267 . S
O75 Zn61 1.965 . S
O75 C79 1.260 . S
O76 Zn60 1.969 . S
O76 C79 1.258 . S
O77 Zn61 2.024 . S
O77 C64 1.058 1_455 S
C78 O67 1.260 . S
C78 O68 1.258 . S
C79 O75 1.260 . S
C79 O76 1.258 . S
Zn80 O86 1.969 . S
Zn80 O87 1.965 . S
Zn80 O91 2.024 . S
Zn80 O96 1.969 . S
Zn81 O88 1.969 . S
Zn81 O94 1.969 . S
Zn81 O95 1.965 . S
Zn81 O97 2.024 . S
C82 O83 1.229 . S
C82 O91 1.058 . S
O83 C82 1.229 . S
C84 O85 1.229 1_545 S
C84 O97 1.058 1_545 S
O85 C84 1.229 1_565 S
O86 Zn80 1.969 . S
O86 C89 1.267 . S
O87 Zn80 1.965 . S
O87 C98 1.260 . S
O88 Zn81 1.969 . S
O88 C98 1.258 . S
C89 O86 1.267 . S
C89 O90 1.228 . S
O90 C89 1.228 . S
O91 Zn80 2.024 . S
O91 C82 1.058 . S
C92 O93 1.228 . S
C92 O94 1.267 . S
O93 C92 1.228 . S
O94 Zn81 1.969 . S
O94 C92 1.267 . S
O95 Zn81 1.965 . S
O95 C99 1.260 . S
O96 Zn80 1.969 . S
O96 C99 1.258 . S
O97 Zn81 2.024 . S
O97 C84 1.058 1_565 S
C98 O87 1.260 . S
C98 O88 1.258 . S
C99 O95 1.260 . S
C99 O96 1.258 . S
Zn100 O106 1.969 . S
Zn100 O107 1.965 . S
Zn100 O111 2.024 . S
Zn100 O116 1.969 . S
Zn101 O108 1.969 . S
Zn101 O114 1.969 . S
Zn101 O115 1.965 . S
Zn101 O117 2.024 . S
C102 O103 1.229 . S
C102 O111 1.058 . S
O103 C102 1.229 . S
C104 O105 1.229 . S
C104 O117 1.058 . S
O105 C104 1.229 . S
O106 Zn100 1.969 . S
O106 C109 1.267 . S
O107 Zn100 1.965 . S
O107 C118 1.260 . S
O108 Zn101 1.969 . S
O108 C118 1.258 . S
C109 O106 1.267 . S
C109 O110 1.228 . S
O110 C109 1.228 . S
O111 Zn100 2.024 . S
O111 C102 1.058 . S
C112 O113 1.228 . S
C112 O114 1.267 . S
O113 C112 1.228 . S
O114 Zn101 1.969 . S
O114 C112 1.267 . S
O115 Zn101 1.965 . S
O115 C119 1.260 . S
O116 Zn100 1.969 . S
O116 C119 1.258 . S
O117 Zn101 2.024 . S
O117 C104 1.058 . S
C118 O107 1.260 . S
C118 O108 1.258 . S
C119 O115 1.260 . S
C119 O116 1.258 . S
H120 C132 0.930 . S
H121 C134 0.930 . S
H122 C135 0.930 . S
H123 C139 0.959 . S
H124 C139 0.959 . S
H125 C139 0.961 . S
H126 C140 0.960 1_556 S
H127 C140 0.961 1_545 S
H128 C140 0.959 . S
H129 C143 0.929 1_565 S
H130 C144 0.931 . S
H131 C146 0.930 . S
C132 H120 0.930 . S
C132 C133 1.399 . S
C132 C137 1.399 . S
C133 C132 1.399 . S
C133 C134 1.376 . S
C134 H121 0.930 . S
C134 C133 1.376 . S
C134 C135 1.388 . S
C135 H122 0.930 . S
C135 C134 1.388 . S
C135 C136 1.390 . S
C136 C135 1.390 . S
C136 C137 1.394 . S
C136 C142 1.465 1_556 S
C137 C132 1.399 . S
C137 C136 1.394 . S
C137 C138 1.516 1_565 S
C138 C137 1.516 1_545 S
C138 C139 1.502 . S
C138 C140 1.561 1_546 S
C138 C141 1.526 1_556 S
C139 H123 0.959 . S
C139 H124 0.959 . S
C139 H125 0.961 . S
C139 C138 1.502 . S
C140 H126 0.960 1_554 S
C140 H127 0.961 1_565 S
C140 H128 0.959 . S
C140 C138 1.561 1_564 S
C141 C138 1.526 1_554 S
C141 C142 1.396 1_545 S
C141 C146 1.390 . S
C142 C136 1.465 1_554 S
C142 C141 1.396 1_565 S
C142 C143 1.399 1_565 S
C143 H129 0.929 1_545 S
C143 C142 1.399 1_545 S
C143 C144 1.385 . S
C144 H130 0.931 . S
C144 C143 1.385 . S
C144 C145 1.389 . S
C145 C144 1.389 . S
C145 C146 1.387 . S
C146 H131 0.930 . S
C146 C141 1.390 . S
C146 C145 1.387 . S
H147 C159 0.930 . S
H148 C161 0.930 . S
H149 C162 0.930 . S
H150 C166 0.959 . S
H151 C166 0.959 . S
H152 C166 0.961 . S
H153 C167 0.960 . S
H154 C167 0.961 . S
H155 C167 0.959 . S
H156 C170 0.929 . S
H157 C171 0.931 . S
H158 C173 0.930 . S
C159 H147 0.930 . S
C159 C160 1.399 . S
C159 C164 1.399 . S
C160 C159 1.399 . S
C160 C161 1.376 . S
C161 H148 0.930 . S
C161 C160 1.376 . S
C161 C162 1.388 . S
C162 H149 0.930 . S
C162 C161 1.388 . S
C162 C163 1.390 . S
C163 C162 1.390 . S
C163 C164 1.394 . S
C163 C169 1.465 . S
C164 C159 1.399 . S
C164 C163 1.394 . S
C164 C165 1.516 . S
C165 C164 1.516 . S
C165 C166 1.502 . S
C165 C167 1.561 . S
C165 C168 1.526 . S
C166 H150 0.959 . S
C166 H151 0.959 . S
C166 H152 0.961 . S
C166 C165 1.502 . S
C167 H153 0.960 . S
C167 H154 0.961 . S
C167 H155 0.959 . S
C167 C165 1.561 . S
C168 C165 1.526 . S
C168 C169 1.396 . S
C168 C173 1.390 . S
C169 C163 1.465 . S
C169 C168 1.396 . S
C169 C170 1.399 . S
C170 H156 0.929 . S
C170 C169 1.399 . S
C170 C171 1.385 . S
C171 H157 0.931 . S
C171 C170 1.385 . S
C171 C172 1.389 . S
C172 C171 1.389 . S
C172 C173 1.387 . S
C173 H158 0.930 . S
C173 C168 1.390 . S
C173 C172 1.387 . S
H174 C186 0.930 . S
H175 C188 0.930 . S
H176 C189 0.930 . S
H177 C193 0.961 . S
H178 C193 0.956 1_556 S
H179 C193 0.963 1_655 S
H180 C194 0.960 . S
H181 C194 0.961 . S
H182 C194 0.959 . S
H183 C197 0.929 . S
H184 C198 0.931 . S
H185 C200 0.930 . S
C186 H174 0.930 . S
C186 C187 1.399 . S
C186 C191 1.399 . S
C187 C186 1.399 . S
C187 C188 1.376 . S
C188 H175 0.930 . S
C188 C187 1.376 . S
C188 C189 1.388 . S
C189 H176 0.930 . S
C189 C188 1.388 . S
C189 C190 1.390 . S
C190 C189 1.390 . S
C190 C191 1.394 . S
C190 C196 1.465 1_654 S
C191 C186 1.399 . S
C191 C190 1.394 . S
C191 C192 1.516 1_554 S
C192 C191 1.516 1_556 S
C192 C193 1.501 1_656 S
C192 C194 1.561 . S
C192 C195 1.526 1_655 S
C193 H177 0.961 . S
C193 H178 0.956 1_554 S
C193 H179 0.963 1_455 S
C193 C192 1.501 1_454 S
C194 H180 0.960 . S
C194 H181 0.961 . S
C194 H182 0.959 . S
C194 C192 1.561 . S
C195 C192 1.526 1_455 S
C195 C196 1.396 . S
C195 C200 1.390 . S
C196 C190 1.465 1_456 S
C196 C195 1.396 . S
C196 C197 1.399 . S
C197 H183 0.929 . S
C197 C196 1.399 . S
C197 C198 1.385 . S
C198 H184 0.931 . S
C198 C197 1.385 . S
C198 C199 1.389 . S
C199 C198 1.389 . S
C199 C200 1.387 . S
C200 H185 0.930 . S
C200 C195 1.390 . S
C200 C199 1.387 . S
H201 C213 0.930 . S
H202 C215 0.930 . S
H203 C216 0.930 . S
H204 C220 0.959 . S
H205 C220 0.959 . S
H206 C220 0.961 . S
H207 C221 0.960 . S
H208 C221 0.961 . S
H209 C221 0.959 . S
H210 C224 0.929 . S
H211 C225 0.931 . S
H212 C227 0.930 . S
C213 H201 0.930 . S
C213 C214 1.399 . S
C213 C218 1.399 . S
C214 C213 1.399 . S
C214 C215 1.376 . S
C215 H202 0.930 . S
C215 C214 1.376 . S
C215 C216 1.388 . S
C216 H203 0.930 . S
C216 C215 1.388 . S
C216 C217 1.390 . S
C217 C216 1.390 . S
C217 C218 1.394 . S
C217 C223 1.465 . S
C218 C213 1.399 . S
C218 C217 1.394 . S
C218 C219 1.516 1_545 S
C219 C218 1.516 1_565 S
C219 C220 1.502 . S
C219 C221 1.561 . S
C219 C222 1.526 . S
C220 H204 0.959 . S
C220 H205 0.959 . S
C220 H206 0.961 . S
C220 C219 1.502 . S
C221 H207 0.960 . S
C221 H208 0.961 . S
C221 H209 0.959 . S
C221 C219 1.561 . S
C222 C219 1.526 . S
C222 C223 1.396 1_565 S
C222 C227 1.390 . S
C223 C217 1.465 . S
C223 C222 1.396 1_545 S
C223 C224 1.399 . S
C224 H210 0.929 . S
C224 C223 1.399 . S
C224 C225 1.385 1_545 S
C225 H211 0.931 . S
C225 C224 1.385 1_565 S
C225 C226 1.389 . S
C226 C225 1.389 . S
C226 C227 1.387 . S
C227 H212 0.930 . S
C227 C222 1.390 . S
C227 C226 1.387 . S
H228 C240 0.930 . S
H229 C242 0.930 . S
H230 C243 0.930 . S
H231 C247 0.959 . S
H232 C247 0.959 1_554 S
H233 C247 0.961 . S
H234 C248 0.960 . S
H235 C248 0.961 . S
H236 C248 0.959 . S
H237 C251 0.929 . S
H238 C252 0.931 . S
H239 C254 0.930 . S
C240 H228 0.930 . S
C240 C241 1.399 . S
C240 C245 1.399 . S
C241 C240 1.399 . S
C241 C242 1.376 . S
C242 H229 0.930 . S
C242 C241 1.376 . S
C242 C243 1.388 . S
C243 H230 0.930 . S
C243 C242 1.388 . S
C243 C244 1.390 . S
C244 C243 1.390 . S
C244 C245 1.394 . S
C244 C250 1.465 1_556 S
C245 C240 1.399 . S
C245 C244 1.394 . S
C245 C246 1.516 1_556 S
C246 C245 1.516 1_554 S
C246 C247 1.502 1_554 S
C246 C248 1.561 . S
C246 C249 1.526 . S
C247 H231 0.959 . S
C247 H232 0.959 1_556 S
C247 H233 0.961 . S
C247 C246 1.502 1_556 S
C248 H234 0.960 . S
C248 H235 0.961 . S
C248 H236 0.959 . S
C248 C246 1.561 . S
C249 C246 1.526 . S
C249 C250 1.396 . S
C249 C254 1.390 . S
C250 C244 1.465 1_554 S
C250 C249 1.396 . S
C250 C251 1.399 . S
C251 H237 0.929 . S
C251 C250 1.399 . S
C251 C252 1.385 . S
C252 H238 0.931 . S
C252 C251 1.385 . S
C252 C253 1.389 . S
C253 C252 1.389 . S
C253 C254 1.387 . S
C254 H239 0.930 . S
C254 C249 1.390 . S
C254 C253 1.387 . S
H255 C267 0.930 . S
H256 C269 0.930 . S
H257 C270 0.930 . S
H258 C274 0.959 . S
H259 C274 0.959 . S
H260 C274 0.961 . S
H261 C275 0.960 . S
H262 C275 0.961 . S
H263 C275 0.959 . S
H264 C278 0.929 . S
H265 C279 0.931 . S
H266 C281 0.930 . S
C267 H255 0.930 . S
C267 C268 1.399 . S
C267 C272 1.399 . S
C268 C267 1.399 . S
C268 C269 1.376 . S
C269 H256 0.930 . S
C269 C268 1.376 . S
C269 C270 1.388 . S
C270 H257 0.930 . S
C270 C269 1.388 . S
C270 C271 1.390 . S
C271 C270 1.390 . S
C271 C272 1.394 . S
C271 C277 1.465 . S
C272 C267 1.399 . S
C272 C271 1.394 . S
C272 C273 1.516 1_655 S
C273 C272 1.516 1_455 S
C273 C274 1.502 . S
C273 C275 1.561 . S
C273 C276 1.526 . S
C274 H258 0.959 . S
C274 H259 0.959 . S
C274 H260 0.961 . S
C274 C273 1.502 . S
C275 H261 0.960 . S
C275 H262 0.961 . S
C275 H263 0.959 . S
C275 C273 1.561 . S
C276 C273 1.526 . S
C276 C277 1.396 1_455 S
C276 C281 1.390 . S
C277 C271 1.465 . S
C277 C276 1.396 1_655 S
C277 C278 1.399 . S
C278 H264 0.929 . S
C278 C277 1.399 . S
C278 C279 1.385 1_655 S
C279 H265 0.931 . S
C279 C278 1.385 1_455 S
C279 C280 1.389 . S
C280 C279 1.389 . S
C280 C281 1.387 . S
C281 H266 0.930 . S
C281 C276 1.390 . S
C281 C280 1.387 . S
H282 C294 0.930 . S
H283 C296 0.930 . S
H284 C297 0.930 . S
H285 C301 0.959 . S
H286 C301 0.959 . S
H287 C301 0.961 . S
H288 C302 0.960 . S
H289 C302 0.961 . S
H290 C302 0.959 . S
H291 C305 0.929 . S
H292 C306 0.931 . S
H293 C308 0.930 . S
C294 H282 0.930 . S
C294 C295 1.399 . S
C294 C299 1.399 . S
C295 C294 1.399 . S
C295 C296 1.376 . S
C296 H283 0.930 . S
C296 C295 1.376 . S
C296 C297 1.388 . S
C297 H284 0.930 . S
C297 C296 1.388 . S
C297 C298 1.390 . S
C298 C297 1.390 . S
C298 C299 1.394 . S
C298 C304 1.465 . S
C299 C294 1.399 . S
C299 C298 1.394 . S
C299 C300 1.516 . S
C300 C299 1.516 . S
C300 C301 1.502 . S
C300 C302 1.561 . S
C300 C303 1.526 . S
C301 H285 0.959 . S
C301 H286 0.959 . S
C301 H287 0.961 . S
C301 C300 1.502 . S
C302 H288 0.960 . S
C302 H289 0.961 . S
C302 H290 0.959 . S
C302 C300 1.561 . S
C303 C300 1.526 . S
C303 C304 1.396 . S
C303 C308 1.390 . S
C304 C298 1.465 . S
C304 C303 1.396 . S
C304 C305 1.399 . S
C305 H291 0.929 . S
C305 C304 1.399 . S
C305 C306 1.385 . S
C306 H292 0.931 . S
C306 C305 1.385 . S
C306 C307 1.389 . S
C307 C306 1.389 . S
C307 C308 1.387 . S
C308 H293 0.930 . S
C308 C303 1.390 . S
C308 C307 1.387 . S
H309 C321 0.930 . S
H310 C323 0.930 . S
H311 C324 0.930 . S
H312 C328 0.959 . S
H313 C328 0.959 . S
H314 C328 0.961 . S
H315 C329 0.960 . S
H316 C329 0.961 . S
H317 C329 0.959 . S
H318 C332 0.929 . S
H319 C333 0.931 . S
H320 C335 0.930 . S
C321 H309 0.930 . S
C321 C322 1.399 . S
C321 C326 1.399 . S
C322 C321 1.399 . S
C322 C323 1.376 . S
C323 H310 0.930 . S
C323 C322 1.376 . S
C323 C324 1.388 . S
C324 H311 0.930 . S
C324 C323 1.388 . S
C324 C325 1.390 . S
C325 C324 1.390 . S
C325 C326 1.394 . S
C325 C331 1.465 . S
C326 C321 1.399 . S
C326 C325 1.394 . S
C326 C327 1.516 . S
C327 C326 1.516 . S
C327 C328 1.502 . S
C327 C329 1.561 . S
C327 C330 1.526 . S
C328 H312 0.959 . S
C328 H313 0.959 . S
C328 H314 0.961 . S
C328 C327 1.502 . S
C329 H315 0.960 . S
C329 H316 0.961 . S
C329 H317 0.959 . S
C329 C327 1.561 . S
C330 C327 1.526 . S
C330 C331 1.396 . S
C330 C335 1.390 . S
C331 C325 1.465 . S
C331 C330 1.396 . S
C331 C332 1.399 . S
C332 H318 0.929 . S
C332 C331 1.399 . S
C332 C333 1.385 . S
C333 H319 0.931 . S
C333 C332 1.385 . S
C333 C334 1.389 . S
C334 C333 1.389 . S
C334 C335 1.387 . S
C335 H320 0.930 . S
C335 C330 1.390 . S
C335 C334 1.387 . S
H336 C348 0.930 . S
H337 C350 0.930 . S
H338 C351 0.930 . S
H339 C355 0.959 . S
H340 C355 0.959 . S
H341 C355 0.961 . S
H342 C356 0.960 . S
H343 C356 0.961 . S
H344 C356 0.959 . S
H345 C359 0.929 . S
H346 C360 0.931 . S
H347 C362 0.930 . S
C348 H336 0.930 . S
C348 C349 1.399 . S
C348 C353 1.399 . S
C349 C348 1.399 . S
C349 C350 1.376 . S
C350 H337 0.930 . S
C350 C349 1.376 . S
C350 C351 1.388 . S
C351 H338 0.930 . S
C351 C350 1.388 . S
C351 C352 1.390 . S
C352 C351 1.390 . S
C352 C353 1.394 . S
C352 C358 1.465 . S
C353 C348 1.399 . S
C353 C352 1.394 . S
C353 C354 1.516 . S
C354 C353 1.516 . S
C354 C355 1.502 . S
C354 C356 1.561 . S
C354 C357 1.526 . S
C355 H339 0.959 . S
C355 H340 0.959 . S
C355 H341 0.961 . S
C355 C354 1.502 . S
C356 H342 0.960 . S
C356 H343 0.961 . S
C356 H344 0.959 . S
C356 C354 1.561 . S
C357 C354 1.526 . S
C357 C358 1.396 . S
C357 C362 1.390 . S
C358 C352 1.465 . S
C358 C357 1.396 . S
C358 C359 1.399 . S
C359 H345 0.929 . S
C359 C358 1.399 . S
C359 C360 1.385 . S
C360 H346 0.931 . S
C360 C359 1.385 . S
C360 C361 1.389 . S
C361 C360 1.389 . S
C361 C362 1.387 . S
C362 H347 0.930 . S
C362 C357 1.390 . S
C362 C361 1.387 . S
H363 C375 0.930 . S
H364 C377 0.930 . S
H365 C378 0.930 . S
H366 C382 0.959 . S
H367 C382 0.959 . S
H368 C382 0.961 . S
H369 C383 0.960 . S
H370 C383 0.961 . S
H371 C383 0.959 . S
H372 C386 0.929 . S
H373 C387 0.931 . S
H374 C389 0.930 . S
C375 H363 0.930 . S
C375 C376 1.399 . S
C375 C380 1.399 . S
C376 C375 1.399 . S
C376 C377 1.376 . S
C377 H364 0.930 . S
C377 C376 1.376 . S
C377 C378 1.388 . S
C378 H365 0.930 . S
C378 C377 1.388 . S
C378 C379 1.390 . S
C379 C378 1.390 . S
C379 C380 1.394 . S
C379 C385 1.465 . S
C380 C375 1.399 . S
C380 C379 1.394 . S
C380 C381 1.516 . S
C381 C380 1.516 . S
C381 C382 1.502 . S
C381 C383 1.561 . S
C381 C384 1.526 . S
C382 H366 0.959 . S
C382 H367 0.959 . S
C382 H368 0.961 . S
C382 C381 1.502 . S
C383 H369 0.960 . S
C383 H370 0.961 . S
C383 H371 0.959 . S
C383 C381 1.561 . S
C384 C381 1.526 . S
C384 C385 1.396 . S
C384 C389 1.390 . S
C385 C379 1.465 . S
C385 C384 1.396 . S
C385 C386 1.399 . S
C386 H372 0.929 . S
C386 C385 1.399 . S
C386 C387 1.385 . S
C387 H373 0.931 . S
C387 C386 1.385 . S
C387 C388 1.389 . S
C388 C387 1.389 . S
C388 C389 1.387 . S
C389 H374 0.930 . S
C389 C384 1.390 . S
C389 C388 1.387 . S
H390 C402 0.930 . S
H391 C404 0.930 . S
H392 C405 0.930 . S
H393 C409 0.959 . S
H394 C409 0.959 . S
H395 C409 0.961 . S
H396 C410 0.960 . S
H397 C410 0.961 . S
H398 C410 0.959 . S
H399 C413 0.929 . S
H400 C414 0.931 . S
H401 C416 0.930 . S
C402 H390 0.930 . S
C402 C403 1.399 . S
C402 C407 1.399 . S
C403 C402 1.399 . S
C403 C404 1.376 . S
C404 H391 0.930 . S
C404 C403 1.376 . S
C404 C405 1.388 . S
C405 H392 0.930 . S
C405 C404 1.388 . S
C405 C406 1.390 . S
C406 C405 1.390 . S
C406 C407 1.394 . S
C406 C412 1.465 . S
C407 C402 1.399 . S
C407 C406 1.394 . S
C407 C408 1.516 . S
C408 C407 1.516 . S
C408 C409 1.502 . S
C408 C410 1.561 . S
C408 C411 1.526 . S
C409 H393 0.959 . S
C409 H394 0.959 . S
C409 H395 0.961 . S
C409 C408 1.502 . S
C410 H396 0.960 . S
C410 H397 0.961 . S
C410 H398 0.959 . S
C410 C408 1.561 . S
C411 C408 1.526 . S
C411 C412 1.396 . S
C411 C416 1.390 . S
C412 C406 1.465 . S
C412 C411 1.396 . S
C412 C413 1.399 . S
C413 H399 0.929 . S
C413 C412 1.399 . S
C413 C414 1.385 . S
C414 H400 0.931 . S
C414 C413 1.385 . S
C414 C415 1.389 . S
C415 C414 1.389 . S
C415 C416 1.387 . S
C416 H401 0.930 . S
C416 C411 1.390 . S
C416 C415 1.387 . S
H417 C429 0.930 . S
H418 C431 0.930 . S
H419 C432 0.930 . S
H420 C436 0.959 . S
H421 C436 0.959 . S
H422 C436 0.961 . S
H423 C437 0.960 . S
H424 C437 0.961 . S
H425 C437 0.959 . S
H426 C440 0.929 . S
H427 C441 0.931 . S
H428 C443 0.930 . S
C429 H417 0.930 . S
C429 C430 1.399 . S
C429 C434 1.399 . S
C430 C429 1.399 . S
C430 C431 1.376 . S
C431 H418 0.930 . S
C431 C430 1.376 . S
C431 C432 1.388 . S
C432 H419 0.930 . S
C432 C431 1.388 . S
C432 C433 1.390 . S
C433 C432 1.390 . S
C433 C434 1.394 . S
C433 C439 1.465 . S
C434 C429 1.399 . S
C434 C433 1.394 . S
C434 C435 1.516 . S
C435 C434 1.516 . S
C435 C436 1.502 . S
C435 C437 1.561 . S
C435 C438 1.526 . S
C436 H420 0.959 . S
C436 H421 0.959 . S
C436 H422 0.961 . S
C436 C435 1.502 . S
C437 H423 0.960 . S
C437 H424 0.961 . S
C437 H425 0.959 . S
C437 C435 1.561 . S
C438 C435 1.526 . S
C438 C439 1.396 . S
C438 C443 1.390 . S
C439 C433 1.465 . S
C439 C438 1.396 . S
C439 C440 1.399 . S
C440 H426 0.929 . S
C440 C439 1.399 . S
C440 C441 1.385 . S
C441 H427 0.931 . S
C441 C440 1.385 . S
C441 C442 1.389 . S
C442 C441 1.389 . S
C442 C443 1.387 . S
C443 H428 0.930 . S
C443 C438 1.390 . S
C443 C442 1.387 . S
H444 C456 0.930 . S
H445 C458 0.930 . S
H446 C459 0.930 . S
H447 C463 0.959 . S
H448 C463 0.959 . S
H449 C463 0.961 . S
H450 C464 0.960 . S
H451 C464 0.961 . S
H452 C464 0.959 . S
H453 C467 0.929 . S
H454 C468 0.931 . S
H455 C470 0.930 . S
C456 H444 0.930 . S
C456 C457 1.399 . S
C456 C461 1.399 . S
C457 C456 1.399 . S
C457 C458 1.376 . S
C458 H445 0.930 . S
C458 C457 1.376 . S
C458 C459 1.388 . S
C459 H446 0.930 . S
C459 C458 1.388 . S
C459 C460 1.390 . S
C460 C459 1.390 . S
C460 C461 1.394 . S
C460 C466 1.465 . S
C461 C456 1.399 . S
C461 C460 1.394 . S
C461 C462 1.516 . S
C462 C461 1.516 . S
C462 C463 1.502 . S
C462 C464 1.561 . S
C462 C465 1.526 . S
C463 H447 0.959 . S
C463 H448 0.959 . S
C463 H449 0.961 . S
C463 C462 1.502 . S
C464 H450 0.960 . S
C464 H451 0.961 . S
C464 H452 0.959 . S
C464 C462 1.561 . S
C465 C462 1.526 . S
C465 C466 1.396 . S
C465 C470 1.390 . S
C466 C460 1.465 . S
C466 C465 1.396 . S
C466 C467 1.399 . S
C467 H453 0.929 . S
C467 C466 1.399 . S
C467 C468 1.385 . S
C468 H454 0.931 . S
C468 C467 1.385 . S
C468 C469 1.389 . S
C469 C468 1.389 . S
C469 C470 1.387 . S
C470 H455 0.930 . S
C470 C465 1.390 . S
C470 C469 1.387 . S
H471 C483 0.930 . S
H472 C485 0.930 . S
H473 C486 0.930 . S
H474 C490 0.959 . S
H475 C490 0.959 . S
H476 C490 0.961 . S
H477 C491 0.960 . S
H478 C491 0.961 . S
H479 C491 0.959 . S
H480 C494 0.929 . S
H481 C495 0.931 . S
H482 C497 0.930 . S
C483 H471 0.930 . S
C483 C484 1.399 . S
C483 C488 1.399 1_655 S
C484 C483 1.399 . S
C484 C485 1.376 . S
C485 H472 0.930 . S
C485 C484 1.376 . S
C485 C486 1.388 . S
C486 H473 0.930 . S
C486 C485 1.388 . S
C486 C487 1.390 1_655 S
C487 C486 1.390 1_455 S
C487 C488 1.394 . S
C487 C493 1.465 . S
C488 C483 1.399 1_455 S
C488 C487 1.394 . S
C488 C489 1.516 . S
C489 C488 1.516 . S
C489 C490 1.502 . S
C489 C491 1.561 . S
C489 C492 1.526 . S
C490 H474 0.959 . S
C490 H475 0.959 . S
C490 H476 0.961 . S
C490 C489 1.502 . S
C491 H477 0.960 . S
C491 H478 0.961 . S
C491 H479 0.959 . S
C491 C489 1.561 . S
C492 C489 1.526 . S
C492 C493 1.396 . S
C492 C497 1.390 . S
C493 C487 1.465 . S
C493 C492 1.396 . S
C493 C494 1.399 . S
C494 H480 0.929 . S
C494 C493 1.399 . S
C494 C495 1.385 . S
C495 H481 0.931 . S
C495 C494 1.385 . S
C495 C496 1.389 . S
C496 C495 1.389 . S
C496 C497 1.387 . S
C497 H482 0.930 . S
C497 C492 1.390 . S
C497 C496 1.387 . S
H498 C510 0.930 . S
H499 C512 0.930 . S
H500 C513 0.930 1_565 S
H501 C517 0.959 . S
H502 C517 0.959 . S
H503 C517 0.961 . S
H504 C518 0.960 . S
H505 C518 0.961 . S
H506 C518 0.959 . S
H507 C521 0.929 . S
H508 C522 0.931 . S
H509 C524 0.930 . S
C510 H498 0.930 . S
C510 C511 1.399 . S
C510 C515 1.399 1_545 S
C511 C510 1.399 . S
C511 C512 1.376 . S
C512 H499 0.930 . S
C512 C511 1.376 . S
C512 C513 1.388 . S
C513 H500 0.930 1_545 S
C513 C512 1.388 . S
C513 C514 1.390 1_545 S
C514 C513 1.390 1_565 S
C514 C515 1.394 . S
C514 C520 1.465 . S
C515 C510 1.399 1_565 S
C515 C514 1.394 . S
C515 C516 1.516 . S
C516 C515 1.516 . S
C516 C517 1.502 . S
C516 C518 1.561 . S
C516 C519 1.526 . S
C517 H501 0.959 . S
C517 H502 0.959 . S
C517 H503 0.961 . S
C517 C516 1.502 . S
C518 H504 0.960 . S
C518 H505 0.961 . S
C518 H506 0.959 . S
C518 C516 1.561 . S
C519 C516 1.526 . S
C519 C520 1.396 . S
C519 C524 1.390 . S
C520 C514 1.465 . S
C520 C519 1.396 . S
C520 C521 1.399 . S
C521 H507 0.929 . S
C521 C520 1.399 . S
C521 C522 1.385 . S
C522 H508 0.931 . S
C522 C521 1.385 . S
C522 C523 1.389 . S
C523 C522 1.389 . S
C523 C524 1.387 . S
C524 H509 0.930 . S
C524 C519 1.390 . S
C524 C523 1.387 . S
H525 C537 0.930 . S
H526 C539 0.930 . S
H527 C540 0.930 . S
H528 C544 0.959 . S
H529 C544 0.959 . S
H530 C544 0.961 . S
H531 C545 0.960 . S
H532 C545 0.961 . S
H533 C545 0.959 . S
H534 C548 0.929 . S
H535 C549 0.931 . S
H536 C551 0.930 . S
C537 H525 0.930 . S
C537 C538 1.399 . S
C537 C542 1.399 . S
C538 C537 1.399 . S
C538 C539 1.376 . S
C539 H526 0.930 . S
C539 C538 1.376 . S
C539 C540 1.388 . S
C540 H527 0.930 . S
C540 C539 1.388 . S
C540 C541 1.390 . S
C541 C540 1.390 . S
C541 C542 1.394 . S
C541 C547 1.465 . S
C542 C537 1.399 . S
C542 C541 1.394 . S
C542 C543 1.516 . S
C543 C542 1.516 . S
C543 C544 1.502 . S
C543 C545 1.561 . S
C543 C546 1.526 . S
C544 H528 0.959 . S
C544 H529 0.959 . S
C544 H530 0.961 . S
C544 C543 1.502 . S
C545 H531 0.960 . S
C545 H532 0.961 . S
C545 H533 0.959 . S
C545 C543 1.561 . S
C546 C543 1.526 . S
C546 C547 1.396 . S
C546 C551 1.390 . S
C547 C541 1.465 . S
C547 C546 1.396 . S
C547 C548 1.399 . S
C548 H534 0.929 . S
C548 C547 1.399 . S
C548 C549 1.385 . S
C549 H535 0.931 . S
C549 C548 1.385 . S
C549 C550 1.389 . S
C550 C549 1.389 . S
C550 C551 1.387 . S
C551 H536 0.930 . S
C551 C546 1.390 . S
C551 C550 1.387 . S
H552 C564 0.930 . S
H553 C566 0.930 . S
H554 C567 0.931 . S
H555 C571 0.959 . S
H556 C571 0.959 . S
H557 C571 0.961 . S
H558 C572 0.960 . S
H559 C572 0.961 . S
H560 C572 0.959 . S
H561 C575 0.929 . S
H562 C576 0.931 . S
H563 C578 0.930 . S
C564 H552 0.930 . S
C564 C565 1.399 . S
C564 C569 1.399 1_455 S
C565 C564 1.399 . S
C565 C566 1.376 . S
C566 H553 0.930 . S
C566 C565 1.376 . S
C566 C567 1.386 1_455 S
C567 H554 0.931 . S
C567 C566 1.386 1_655 S
C567 C568 1.391 . S
C568 C567 1.391 . S
C568 C569 1.394 . S
C568 C574 1.465 . S
C569 C564 1.399 1_655 S
C569 C568 1.394 . S
C569 C570 1.516 . S
C570 C569 1.516 . S
C570 C571 1.502 . S
C570 C572 1.561 . S
C570 C573 1.526 . S
C571 H555 0.959 . S
C571 H556 0.959 . S
C571 H557 0.961 . S
C571 C570 1.502 . S
C572 H558 0.960 . S
C572 H559 0.961 . S
C572 H560 0.959 . S
C572 C570 1.561 . S
C573 C570 1.526 . S
C573 C574 1.396 . S
C573 C578 1.390 . S
C574 C568 1.465 . S
C574 C573 1.396 . S
C574 C575 1.399 . S
C575 H561 0.929 . S
C575 C574 1.399 . S
C575 C576 1.385 . S
C576 H562 0.931 . S
C576 C575 1.385 . S
C576 C577 1.389 . S
C577 C576 1.389 . S
C577 C578 1.387 . S
C578 H563 0.930 . S
C578 C573 1.390 . S
C578 C577 1.387 . S
H579 C591 0.930 . S
H580 C593 0.930 . S
H581 C594 0.930 . S
H582 C598 0.959 . S
H583 C598 0.959 . S
H584 C598 0.961 . S
H585 C599 0.960 . S
H586 C599 0.961 . S
H587 C599 0.959 . S
H588 C602 0.929 . S
H589 C603 0.931 . S
H590 C605 0.930 . S
C591 H579 0.930 . S
C591 C592 1.399 . S
C591 C596 1.399 . S
C592 C591 1.399 . S
C592 C593 1.376 . S
C593 H580 0.930 . S
C593 C592 1.376 . S
C593 C594 1.388 . S
C594 H581 0.930 . S
C594 C593 1.388 . S
C594 C595 1.390 . S
C595 C594 1.390 . S
C595 C596 1.394 . S
C595 C601 1.465 . S
C596 C591 1.399 . S
C596 C595 1.394 . S
C596 C597 1.516 . S
C597 C596 1.516 . S
C597 C598 1.502 . S
C597 C599 1.561 . S
C597 C600 1.526 . S
C598 H582 0.959 . S
C598 H583 0.959 . S
C598 H584 0.961 . S
C598 C597 1.502 . S
C599 H585 0.960 . S
C599 H586 0.961 . S
C599 H587 0.959 . S
C599 C597 1.561 . S
C600 C597 1.526 . S
C600 C601 1.396 . S
C600 C605 1.390 1_545 S
C601 C595 1.465 . S
C601 C600 1.396 . S
C601 C602 1.399 . S
C602 H588 0.929 . S
C602 C601 1.399 . S
C602 C603 1.385 1_545 S
C603 H589 0.931 . S
C603 C602 1.385 1_565 S
C603 C604 1.389 . S
C604 C603 1.389 . S
C604 C605 1.387 . S
C605 H590 0.930 . S
C605 C600 1.390 1_565 S
C605 C604 1.387 . S
C133 C99 2.183 . S
C145 C18 2.088 . S
C160 C118 2.104 . S
C172 C39 2.188 . S
C187 C58 2.101 . S
C199 C79 2.171 . S
C214 C19 2.211 . S
C226 C98 2.056 . S
C241 C119 2.173 . S
C253 C38 2.097 . S
C268 C59 2.212 . S
C280 C78 2.058 . S
C295 C4 1.341 . S
C307 C52 1.663 . S
C322 C24 1.360 . S
C334 C12 1.664 . S
C349 C44 1.441 . S
C361 C32 1.668 . S
C376 C69 1.542 . S
C388 C82 1.665 . S
C403 C89 1.460 . S
C415 C102 1.655 . S
C430 C62 1.646 . S
C442 C109 1.481 . S
C457 C2 0.985 . S
C469 C49 0.908 . S
C484 C22 1.015 . S
C496 C9 0.935 . S
C511 C42 0.980 . S
C523 C29 0.884 . S
C538 C72 0.995 . S
C550 C84 0.827 . S
C565 C92 0.996 . S
C577 C104 0.836 . S
C592 C64 0.941 . S
C604 C112 0.999 . S
