# Generated by pormake.
# Topology umk, (4)-cn, num edge types: 1
# Building blocks:
#     Node 0, Type 0, BuildingBlock: CEKHIL_clean_sbu_0, # of connection points: 4
#     Node 1, Type 0, BuildingBlock: CEKHIL_clean_sbu_0, # of connection points: 4
#     Node 2, Type 0, BuildingBlock: CEKHIL_clean_sbu_0, # of connection points: 4
#     Node 3, Type 0, BuildingBlock: CEKHIL_clean_sbu_0, # of connection points: 4
#     Node 4, Type 0, BuildingBlock: CEKHIL_clean_sbu_0, # of connection points: 4
#     Node 5, Type 0, BuildingBlock: CEKHIL_clean_sbu_0, # of connection points: 4
#     Node 6, Type 0, BuildingBlock: CEKHIL_clean_sbu_0, # of connection points: 4
#     Node 7, Type 0, BuildingBlock: CEKHIL_clean_sbu_0, # of connection points: 4
#     Node 8, Type 0, BuildingBlock: CEKHIL_clean_sbu_0, # of connection points: 4
#     Node 9, Type 0, BuildingBlock: CEKHIL_clean_sbu_0, # of connection points: 4
#     Node 10, Type 0, BuildingBlock: CEKHIL_clean_sbu_0, # of connection points: 4
#     Node 11, Type 0, BuildingBlock: CEKHIL_clean_sbu_0, # of connection points: 4
#     Node 12, Type 0, BuildingBlock: CEKHIL_clean_sbu_0, # of connection points: 4
#     Node 13, Type 0, BuildingBlock: CEKHIL_clean_sbu_0, # of connection points: 4
#     Node 14, Type 0, BuildingBlock: CEKHIL_clean_sbu_0, # of connection points: 4
#     Node 15, Type 0, BuildingBlock: CEKHIL_clean_sbu_0, # of connection points: 4
#     Node 16, Type 0, BuildingBlock: CEKHIL_clean_sbu_0, # of connection points: 4
#     Node 17, Type 0, BuildingBlock: CEKHIL_clean_sbu_0, # of connection points: 4
#     Node 18, Type 0, BuildingBlock: CEKHIL_clean_sbu_0, # of connection points: 4
#     Node 19, Type 0, BuildingBlock: CEKHIL_clean_sbu_0, # of connection points: 4
#     Node 20, Type 0, BuildingBlock: CEKHIL_clean_sbu_0, # of connection points: 4
#     Node 21, Type 0, BuildingBlock: CEKHIL_clean_sbu_0, # of connection points: 4
#     Node 22, Type 0, BuildingBlock: CEKHIL_clean_sbu_0, # of connection points: 4
#     Node 23, Type 0, BuildingBlock: CEKHIL_clean_sbu_0, # of connection points: 4
#     Edge 24, Type (0, 0), BuildingBlock: KIFKEQ_clean_linker_1, # of connection points: 2
#     Edge 25, Type (0, 0), BuildingBlock: KIFKEQ_clean_linker_1, # of connection points: 2
#     Edge 26, Type (0, 0), BuildingBlock: KIFKEQ_clean_linker_1, # of connection points: 2
#     Edge 27, Type (0, 0), BuildingBlock: KIFKEQ_clean_linker_1, # of connection points: 2
#     Edge 28, Type (0, 0), BuildingBlock: KIFKEQ_clean_linker_1, # of connection points: 2
#     Edge 29, Type (0, 0), BuildingBlock: KIFKEQ_clean_linker_1, # of connection points: 2
#     Edge 30, Type (0, 0), BuildingBlock: KIFKEQ_clean_linker_1, # of connection points: 2
#     Edge 31, Type (0, 0), BuildingBlock: KIFKEQ_clean_linker_1, # of connection points: 2
#     Edge 32, Type (0, 0), BuildingBlock: KIFKEQ_clean_linker_1, # of connection points: 2
#     Edge 33, Type (0, 0), BuildingBlock: KIFKEQ_clean_linker_1, # of connection points: 2
#     Edge 34, Type (0, 0), BuildingBlock: KIFKEQ_clean_linker_1, # of connection points: 2
#     Edge 35, Type (0, 0), BuildingBlock: KIFKEQ_clean_linker_1, # of connection points: 2
#     Edge 36, Type (0, 0), BuildingBlock: KIFKEQ_clean_linker_1, # of connection points: 2
#     Edge 37, Type (0, 0), BuildingBlock: KIFKEQ_clean_linker_1, # of connection points: 2
#     Edge 38, Type (0, 0), BuildingBlock: KIFKEQ_clean_linker_1, # of connection points: 2
#     Edge 39, Type (0, 0), BuildingBlock: KIFKEQ_clean_linker_1, # of connection points: 2
#     Edge 40, Type (0, 0), BuildingBlock: KIFKEQ_clean_linker_1, # of connection points: 2
#     Edge 41, Type (0, 0), BuildingBlock: KIFKEQ_clean_linker_1, # of connection points: 2
#     Edge 42, Type (0, 0), BuildingBlock: KIFKEQ_clean_linker_1, # of connection points: 2
#     Edge 43, Type (0, 0), BuildingBlock: KIFKEQ_clean_linker_1, # of connection points: 2
#     Edge 44, Type (0, 0), BuildingBlock: KIFKEQ_clean_linker_1, # of connection points: 2
#     Edge 45, Type (0, 0), BuildingBlock: KIFKEQ_clean_linker_1, # of connection points: 2
#     Edge 46, Type (0, 0), BuildingBlock: KIFKEQ_clean_linker_1, # of connection points: 2
#     Edge 47, Type (0, 0), BuildingBlock: KIFKEQ_clean_linker_1, # of connection points: 2
#     Edge 48, Type (0, 0), BuildingBlock: KIFKEQ_clean_linker_1, # of connection points: 2
#     Edge 49, Type (0, 0), BuildingBlock: KIFKEQ_clean_linker_1, # of connection points: 2
#     Edge 50, Type (0, 0), BuildingBlock: KIFKEQ_clean_linker_1, # of connection points: 2
#     Edge 51, Type (0, 0), BuildingBlock: KIFKEQ_clean_linker_1, # of connection points: 2
#     Edge 52, Type (0, 0), BuildingBlock: KIFKEQ_clean_linker_1, # of connection points: 2
#     Edge 53, Type (0, 0), BuildingBlock: KIFKEQ_clean_linker_1, # of connection points: 2
#     Edge 54, Type (0, 0), BuildingBlock: KIFKEQ_clean_linker_1, # of connection points: 2
#     Edge 55, Type (0, 0), BuildingBlock: KIFKEQ_clean_linker_1, # of connection points: 2
#     Edge 56, Type (0, 0), BuildingBlock: KIFKEQ_clean_linker_1, # of connection points: 2
#     Edge 57, Type (0, 0), BuildingBlock: KIFKEQ_clean_linker_1, # of connection points: 2
#     Edge 58, Type (0, 0), BuildingBlock: KIFKEQ_clean_linker_1, # of connection points: 2
#     Edge 59, Type (0, 0), BuildingBlock: KIFKEQ_clean_linker_1, # of connection points: 2
#     Edge 60, Type (0, 0), BuildingBlock: KIFKEQ_clean_linker_1, # of connection points: 2
#     Edge 61, Type (0, 0), BuildingBlock: KIFKEQ_clean_linker_1, # of connection points: 2
#     Edge 62, Type (0, 0), BuildingBlock: KIFKEQ_clean_linker_1, # of connection points: 2
#     Edge 63, Type (0, 0), BuildingBlock: KIFKEQ_clean_linker_1, # of connection points: 2
#     Edge 64, Type (0, 0), BuildingBlock: KIFKEQ_clean_linker_1, # of connection points: 2
#     Edge 65, Type (0, 0), BuildingBlock: KIFKEQ_clean_linker_1, # of connection points: 2
#     Edge 66, Type (0, 0), BuildingBlock: KIFKEQ_clean_linker_1, # of connection points: 2
#     Edge 67, Type (0, 0), BuildingBlock: KIFKEQ_clean_linker_1, # of connection points: 2
#     Edge 68, Type (0, 0), BuildingBlock: KIFKEQ_clean_linker_1, # of connection points: 2
#     Edge 69, Type (0, 0), BuildingBlock: KIFKEQ_clean_linker_1, # of connection points: 2
#     Edge 70, Type (0, 0), BuildingBlock: KIFKEQ_clean_linker_1, # of connection points: 2
#     Edge 71, Type (0, 0), BuildingBlock: KIFKEQ_clean_linker_1, # of connection points: 2
# Relax obj value: 0.068
# Max RMSD: 0.047
# Mean RMSD: 0.047
data_MOF--net-umk--node1-CEKHIL_clean_sbu_0--edge1-KIFKEQ_clean_linker_1
_symmetry_space_group_name_H-M    P1
_symmetry_Int_Tables_number       1
_symmetry_cell_setting            triclinic
loop_
_symmetry_equiv_pos_as_xyz
'x, y, z'
_cell_length_a     66.664852
_cell_length_b     66.677482
_cell_length_c     43.823047
_cell_angle_alpha  90.03767
_cell_angle_beta   89.985812
_cell_angle_gamma 120.13081
loop_
_atom_site_label
_atom_site_type_symbol
_atom_site_fract_x
_atom_site_fract_y
_atom_site_fract_z
_atom_type_partial_charge
Co0 Co 0.33867 0.47208 0.08307 0.0
O1 O 0.31858 0.48507 0.07958 0.0
O2 O 0.3198 0.46085 0.04628 0.0
C3 C 0.33141 0.46264 0.13303 0.0
O4 O 0.3563 0.45412 0.08017 0.0
Co5 Co 0.38101 0.49419 0.12749 0.0
O6 O 0.38022 0.46439 0.12078 0.0
C7 C 0.38278 0.5179 0.06999 0.0
C8 C 0.31049 0.47309 0.05474 0.0
C9 C 0.37016 0.45129 0.09795 0.0
O10 O 0.36429 0.49967 0.06035 0.0
O11 O 0.39073 0.51978 0.09707 0.0
O12 O 0.31693 0.44897 0.11248 0.0
O13 O 0.34814 0.48195 0.12293 0.0
Co14 Co 0.87371 0.33753 0.58778 0.0
O15 O 0.84044 0.31845 0.58305 0.0
O16 O 0.86614 0.31792 0.55178 0.0
C17 C 0.87405 0.33058 0.63842 0.0
O18 O 0.90936 0.35382 0.58562 0.0
Co19 Co 0.89576 0.38016 0.6316 0.0
O20 O 0.92513 0.38057 0.62302 0.0
C21 C 0.87497 0.38269 0.57303 0.0
C22 C 0.84446 0.30963 0.55902 0.0
C23 C 0.92693 0.36899 0.60115 0.0
O24 O 0.8733 0.36346 0.56384 0.0
O25 O 0.88138 0.39068 0.60005 0.0
O26 O 0.87353 0.31583 0.61857 0.0
O27 O 0.87291 0.34779 0.62713 0.0
Co28 Co 0.5449 0.86889 0.08971 0.0
O29 O 0.53237 0.83617 0.0831 0.0
O30 O 0.55761 0.8635 0.05251 0.0
C31 C 0.55226 0.86744 0.13981 0.0
O32 O 0.56263 0.90465 0.09045 0.0
Co33 Co 0.52172 0.88622 0.13661 0.0
O34 O 0.55142 0.9158 0.13254 0.0
C35 C 0.49987 0.86858 0.0763 0.0
C36 C 0.54535 0.8415 0.05906 0.0
C37 C 0.56493 0.92035 0.10976 0.0
O38 O 0.51786 0.86784 0.06674 0.0
O39 O 0.49762 0.87353 0.10386 0.0
O40 O 0.56716 0.86896 0.11946 0.0
O41 O 0.53343 0.86555 0.12914 0.0
Co42 Co 0.68356 0.54002 0.5886 0.0
O43 O 0.70368 0.52732 0.58262 0.0
O44 O 0.70205 0.55251 0.55159 0.0
C45 C 0.69175 0.54763 0.63893 0.0
O46 O 0.66576 0.55794 0.58857 0.0
Co47 Co 0.64232 0.51692 0.63456 0.0
O48 O 0.64273 0.54668 0.63006 0.0
C49 C 0.63863 0.49506 0.57447 0.0
C50 C 0.71154 0.54013 0.55844 0.0
C51 C 0.65214 0.56027 0.60745 0.0
O52 O 0.65759 0.51302 0.56529 0.0
O53 O 0.63108 0.49278 0.60185 0.0
O54 O 0.70557 0.56229 0.61865 0.0
O55 O 0.67489 0.52874 0.62809 0.0
Co56 Co 0.14826 0.67781 0.08734 0.0
O57 O 0.18139 0.69683 0.0821 0.0
O58 O 0.15542 0.69693 0.05091 0.0
C59 C 0.14797 0.68549 0.13761 0.0
O60 O 0.11254 0.66124 0.08631 0.0
Co61 Co 0.12783 0.63575 0.13211 0.0
O62 O 0.09927 0.63755 0.12712 0.0
C63 C 0.14694 0.63238 0.07275 0.0
C64 C 0.17716 0.70541 0.05804 0.0
C65 C 0.09604 0.64774 0.10466 0.0
O66 O 0.1485 0.65159 0.06374 0.0
O67 O 0.14105 0.62454 0.0999 0.0
O68 O 0.1487 0.70007 0.11737 0.0
O69 O 0.1495 0.66831 0.12694 0.0
Co70 Co 0.4762 0.1473 0.58651 0.0
O71 O 0.48962 0.18044 0.58169 0.0
O72 O 0.4645 0.15435 0.5497 0.0
C73 C 0.46827 0.14715 0.63691 0.0
O74 O 0.45749 0.11159 0.58468 0.0
Co75 Co 0.49676 0.1263 0.63196 0.0
O76 O 0.46634 0.09767 0.62623 0.0
C77 C 0.52056 0.14637 0.57323 0.0
C78 C 0.47714 0.1761 0.55725 0.0
C79 C 0.45381 0.09484 0.60288 0.0
O80 O 0.50321 0.14822 0.56356 0.0
O81 O 0.52176 0.13992 0.60036 0.0
O82 O 0.45394 0.14699 0.61664 0.0
O83 O 0.4869 0.14866 0.62609 0.0
Co84 Co 0.54528 0.68185 0.9136 0.0
O85 O 0.53329 0.70258 0.91904 0.0
O86 O 0.55852 0.70089 0.95 0.0
C87 C 0.55233 0.68907 0.86308 0.0
O88 O 0.56245 0.66338 0.91399 0.0
Co89 Co 0.52054 0.63982 0.86907 0.0
O90 O 0.54984 0.63924 0.87357 0.0
C91 C 0.49951 0.63853 0.92886 0.0
C92 C 0.5464 0.71063 0.94293 0.0
C93 C 0.56393 0.64898 0.89565 0.0
O94 O 0.51833 0.65673 0.93778 0.0
O95 O 0.49638 0.63068 0.90155 0.0
O96 O 0.56744 0.70302 0.88287 0.0
O97 O 0.5334 0.67267 0.87448 0.0
Co98 Co 0.87396 0.54397 0.41416 0.0
O99 O 0.84074 0.53024 0.41848 0.0
O100 O 0.86643 0.5554 0.45082 0.0
C101 C 0.87441 0.55202 0.3638 0.0
O102 O 0.90966 0.56298 0.41659 0.0
Co103 Co 0.89589 0.52409 0.36916 0.0
O104 O 0.92445 0.55439 0.37569 0.0
C105 C 0.87578 0.50012 0.42781 0.0
C106 C 0.84477 0.54263 0.44296 0.0
C107 C 0.92677 0.56678 0.399 0.0
O108 O 0.87308 0.51703 0.43716 0.0
O109 O 0.8828 0.4992 0.40092 0.0
O110 O 0.87425 0.56619 0.38408 0.0
O111 O 0.87309 0.53345 0.37456 0.0
Co112 Co 0.33752 0.86699 0.91596 0.0
O113 O 0.31894 0.8341 0.92321 0.0
O114 O 0.31888 0.8609 0.95277 0.0
C115 C 0.32871 0.86465 0.86576 0.0
O116 O 0.35387 0.9027 0.91482 0.0
Co117 Co 0.37837 0.88635 0.86925 0.0
O118 O 0.37615 0.91479 0.87265 0.0
C119 C 0.38389 0.87045 0.93021 0.0
C120 C 0.31059 0.83897 0.94695 0.0
C121 C 0.36669 0.91866 0.89543 0.0
O122 O 0.36431 0.86793 0.9394 0.0
O123 O 0.39128 0.87589 0.90278 0.0
O124 O 0.31472 0.86529 0.88587 0.0
O125 O 0.3463 0.86403 0.87668 0.0
Co126 Co 0.47537 0.33571 0.41287 0.0
O127 O 0.48891 0.31616 0.41777 0.0
O128 O 0.46352 0.31672 0.44953 0.0
C129 C 0.46775 0.32805 0.36239 0.0
O130 O 0.45654 0.35257 0.41447 0.0
Co131 Co 0.49614 0.37755 0.36782 0.0
O132 O 0.4654 0.37504 0.3726 0.0
C133 C 0.51905 0.38162 0.4274 0.0
C134 C 0.47632 0.30782 0.44209 0.0
C135 C 0.45278 0.36539 0.39591 0.0
O136 O 0.50214 0.36179 0.43626 0.0
O137 O 0.52032 0.38974 0.40054 0.0
O138 O 0.45337 0.31373 0.38254 0.0
O139 O 0.48631 0.34526 0.37336 0.0
Co140 Co 0.14755 0.47076 0.91427 0.0
O141 O 0.1808 0.48454 0.9178 0.0
O142 O 0.15559 0.46046 0.95148 0.0
C143 C 0.14551 0.46056 0.8646 0.0
O144 O 0.1119 0.45198 0.91748 0.0
Co145 Co 0.12575 0.49046 0.86872 0.0
O146 O 0.09738 0.46017 0.87599 0.0
C147 C 0.1461 0.5152 0.92655 0.0
C148 C 0.17712 0.4729 0.9429 0.0
C149 C 0.09489 0.44794 0.89954 0.0
O150 O 0.14881 0.49836 0.9361 0.0
O151 O 0.13895 0.51588 0.89968 0.0
O152 O 0.14672 0.44749 0.88566 0.0
O153 O 0.14755 0.47979 0.874 0.0
Co154 Co 0.68441 0.14691 0.41691 0.0
O155 O 0.70242 0.18014 0.4229 0.0
O156 O 0.70376 0.15436 0.45311 0.0
C157 C 0.69212 0.14828 0.36627 0.0
O158 O 0.66935 0.11135 0.41788 0.0
Co159 Co 0.64264 0.12375 0.3719 0.0
O160 O 0.64636 0.09625 0.37671 0.0
C161 C 0.63748 0.14177 0.43171 0.0
C162 C 0.71144 0.17606 0.44665 0.0
C163 C 0.6568 0.09426 0.39981 0.0
O164 O 0.65758 0.14561 0.44077 0.0
O165 O 0.62967 0.13481 0.40473 0.0
O166 O 0.70688 0.14874 0.38606 0.0
O167 O 0.67427 0.14813 0.37766 0.0
Co168 Co 0.68244 0.54375 0.91662 0.0
O169 O 0.70171 0.52977 0.92011 0.0
O170 O 0.70113 0.55423 0.95358 0.0
C171 C 0.6902 0.55339 0.8667 0.0
O172 O 0.66596 0.56285 0.91992 0.0
Co173 Co 0.6404 0.52406 0.87179 0.0
O174 O 0.64252 0.55438 0.87905 0.0
C175 C 0.63658 0.49938 0.92944 0.0
C176 C 0.70991 0.54153 0.94512 0.0
C177 C 0.65273 0.56675 0.90233 0.0
O178 O 0.65614 0.51638 0.93891 0.0
O179 O 0.62857 0.49862 0.90266 0.0
O180 O 0.70479 0.56663 0.88745 0.0
O181 O 0.6729 0.53437 0.87655 0.0
Co182 Co 0.15015 0.68056 0.41642 0.0
O183 O 0.1831 0.69937 0.42352 0.0
O184 O 0.15638 0.69966 0.45291 0.0
C185 C 0.15248 0.68889 0.366 0.0
O186 O 0.11436 0.66405 0.41537 0.0
Co187 Co 0.13067 0.63938 0.37015 0.0
O188 O 0.10224 0.64162 0.3733 0.0
C189 C 0.14699 0.63443 0.4312 0.0
C190 C 0.17831 0.708 0.44702 0.0
C191 C 0.09836 0.65113 0.39602 0.0
O192 O 0.14941 0.654 0.4403 0.0
O193 O 0.1415 0.62694 0.40382 0.0
O194 O 0.15173 0.70303 0.3858 0.0
O195 O 0.15308 0.67143 0.37734 0.0
Co196 Co 0.47396 0.14246 0.91481 0.0
O197 O 0.48845 0.17582 0.91845 0.0
O198 O 0.46381 0.15085 0.95187 0.0
C199 C 0.46423 0.14067 0.86491 0.0
O200 O 0.45438 0.10688 0.91811 0.0
Co201 Co 0.4929 0.11955 0.86989 0.0
O202 O 0.4625 0.0914 0.8775 0.0
C203 C 0.51785 0.14015 0.92754 0.0
C204 C 0.47678 0.17235 0.94351 0.0
C205 C 0.45025 0.08954 0.90078 0.0
O206 O 0.50109 0.14304 0.93702 0.0
O207 O 0.51845 0.13287 0.90072 0.0
O208 O 0.45123 0.14228 0.88576 0.0
O209 O 0.48314 0.14214 0.87465 0.0
Co210 Co 0.33885 0.4748 0.41104 0.0
O211 O 0.31848 0.48716 0.41722 0.0
O212 O 0.32043 0.46212 0.44813 0.0
C213 C 0.33044 0.46722 0.3608 0.0
O214 O 0.35706 0.45725 0.41065 0.0
Co215 Co 0.37976 0.49849 0.36458 0.0
O216 O 0.37986 0.46897 0.3689 0.0
C217 C 0.38337 0.5202 0.42475 0.0
C218 C 0.31071 0.4743 0.44133 0.0
C219 C 0.37075 0.45526 0.39148 0.0
O220 O 0.36474 0.50199 0.4342 0.0
O221 O 0.39066 0.52264 0.39722 0.0
O222 O 0.31684 0.45239 0.38109 0.0
O223 O 0.34719 0.48617 0.3716 0.0
Co224 Co 0.87181 0.33503 0.91715 0.0
O225 O 0.83836 0.31623 0.9207 0.0
O226 O 0.86332 0.31565 0.9533 0.0
C227 C 0.87399 0.32813 0.86694 0.0
O228 O 0.90729 0.35076 0.92087 0.0
Co229 Co 0.8954 0.37789 0.87374 0.0
O230 O 0.92437 0.37817 0.88451 0.0
C231 C 0.87367 0.38076 0.93109 0.0
C232 C 0.84183 0.30744 0.9452 0.0
C233 C 0.92535 0.36611 0.90634 0.0
O234 O 0.87131 0.36128 0.9404 0.0
O235 O 0.88074 0.38879 0.90427 0.0
O236 O 0.87198 0.313 0.88719 0.0
O237 O 0.87255 0.34543 0.87734 0.0
Co238 Co 0.54799 0.87135 0.41815 0.0
O239 O 0.53319 0.83821 0.42432 0.0
O240 O 0.5599 0.86428 0.4548 0.0
C241 C 0.55549 0.8707 0.36785 0.0
O242 O 0.56789 0.90716 0.41809 0.0
Co243 Co 0.52678 0.89168 0.37245 0.0
O244 O 0.55761 0.91981 0.37654 0.0
C245 C 0.50504 0.87495 0.43279 0.0
C246 C 0.54615 0.84249 0.44825 0.0
C247 C 0.57113 0.92334 0.399 0.0
O248 O 0.52195 0.87209 0.44169 0.0
O249 O 0.50322 0.88082 0.4056 0.0
O250 O 0.56933 0.86994 0.3881 0.0
O251 O 0.53703 0.86968 0.37857 0.0
Co252 Co 0.47572 0.33358 0.0846 0.0
O253 O 0.48922 0.31379 0.0822 0.0
O254 O 0.46553 0.31476 0.0478 0.0
C255 C 0.46518 0.32646 0.13434 0.0
O256 O 0.4572 0.35046 0.0798 0.0
Co257 Co 0.49559 0.37616 0.12861 0.0
O258 O 0.46744 0.37726 0.11702 0.0
C259 C 0.52098 0.37866 0.07225 0.0
C260 C 0.47781 0.3057 0.05691 0.0
C261 C 0.45472 0.36586 0.09453 0.0
O262 O 0.50357 0.35948 0.06252 0.0
O263 O 0.52179 0.38669 0.09904 0.0
O264 O 0.4522 0.31172 0.11354 0.0
O265 O 0.48454 0.34342 0.12476 0.0
Co266 Co 0.15022 0.47299 0.58733 0.0
O267 O 0.18317 0.48581 0.58184 0.0
O268 O 0.15657 0.46111 0.55003 0.0
C269 C 0.15058 0.46473 0.63738 0.0
O270 O 0.11442 0.45508 0.5866 0.0
Co271 Co 0.13116 0.49459 0.63422 0.0
O272 O 0.10212 0.46444 0.62929 0.0
C273 C 0.15005 0.51788 0.5749 0.0
C274 C 0.17842 0.47334 0.55735 0.0
C275 C 0.09826 0.45179 0.60573 0.0
O276 O 0.15152 0.50037 0.56499 0.0
O277 O 0.14418 0.51933 0.60229 0.0
O278 O 0.14972 0.45029 0.61675 0.0
O279 O 0.1525 0.48365 0.62705 0.0
Co280 Co 0.68206 0.14447 0.08701 0.0
O281 O 0.70038 0.17775 0.08168 0.0
O282 O 0.70106 0.1521 0.05044 0.0
C283 C 0.68988 0.14429 0.13735 0.0
O284 O 0.66646 0.10883 0.08549 0.0
Co285 Co 0.64 0.1222 0.13174 0.0
O286 O 0.6427 0.09417 0.12612 0.0
C287 C 0.63577 0.14135 0.0728 0.0
C288 C 0.709 0.17377 0.05741 0.0
C289 C 0.65325 0.09187 0.10336 0.0
O290 O 0.65536 0.14387 0.06365 0.0
O291 O 0.62796 0.13487 0.09985 0.0
O292 O 0.70469 0.1456 0.11702 0.0
O293 O 0.67229 0.14511 0.12676 0.0
Co294 Co 0.54822 0.68002 0.58423 0.0
O295 O 0.53343 0.69852 0.57982 0.0
O296 O 0.55971 0.69966 0.54814 0.0
C297 C 0.55619 0.68721 0.63463 0.0
O298 O 0.56812 0.66428 0.58201 0.0
Co299 Co 0.52838 0.63751 0.62831 0.0
O300 O 0.5593 0.64069 0.62276 0.0
C301 C 0.50513 0.63365 0.56927 0.0
C302 C 0.54615 0.70763 0.55576 0.0
C303 C 0.57203 0.65119 0.59988 0.0
O304 O 0.52188 0.65363 0.56053 0.0
O305 O 0.50398 0.62542 0.59601 0.0
O306 O 0.56984 0.70222 0.61457 0.0
O307 O 0.53772 0.66976 0.62379 0.0
Co308 Co 0.8726 0.54359 0.08622 0.0
O309 O 0.83925 0.52972 0.08333 0.0
O310 O 0.86412 0.55361 0.04919 0.0
C311 C 0.87539 0.55409 0.13593 0.0
O312 O 0.90815 0.56254 0.08204 0.0
Co313 Co 0.89534 0.52435 0.13097 0.0
O314 O 0.92397 0.55399 0.12183 0.0
C315 C 0.8734 0.49883 0.07418 0.0
C316 C 0.84267 0.54116 0.05807 0.0
C317 C 0.92568 0.56624 0.09864 0.0
O318 O 0.8711 0.51587 0.0644 0.0
O319 O 0.88076 0.49831 0.10098 0.0
O320 O 0.87375 0.56697 0.11496 0.0
O321 O 0.87331 0.53485 0.12648 0.0
Co322 Co 0.33936 0.87104 0.58782 0.0
O323 O 0.32 0.83798 0.58218 0.0
O324 O 0.32059 0.8642 0.55092 0.0
C325 C 0.33119 0.8712 0.63792 0.0
O326 O 0.35661 0.9069 0.58745 0.0
Co327 Co 0.38086 0.88984 0.63366 0.0
O328 O 0.38056 0.91913 0.62814 0.0
C329 C 0.38396 0.8704 0.57463 0.0
C330 C 0.31179 0.84239 0.55792 0.0
C331 C 0.37063 0.92304 0.60594 0.0
O332 O 0.36564 0.87039 0.56487 0.0
O333 O 0.39116 0.87533 0.60218 0.0
O334 O 0.31693 0.87085 0.61743 0.0
O335 O 0.3482 0.86927 0.62753 0.0
H336 H 0.29212 0.4365 0.16732 0.0
H337 H 0.36681 0.47626 0.17285 0.0
H338 H 0.29001 0.43405 0.22341 0.0
H339 H 0.36483 0.47298 0.22787 0.0
H340 H 0.35418 0.4986 0.31702 0.0
H341 H 0.35256 0.49315 0.26248 0.0
H342 H 0.30019 0.4211 0.27349 0.0
H343 H 0.30149 0.42678 0.32924 0.0
C344 C 0.30804 0.44412 0.18044 0.0
C345 C 0.32962 0.45694 0.16582 0.0
C346 C 0.30684 0.44267 0.21246 0.0
C347 C 0.32725 0.45382 0.23005 0.0
C348 C 0.34877 0.4648 0.21503 0.0
C349 C 0.34992 0.46659 0.1834 0.0
C350 C 0.34229 0.48151 0.30804 0.0
C351 C 0.32815 0.46304 0.32751 0.0
C352 C 0.34146 0.47835 0.27665 0.0
C353 C 0.32663 0.45656 0.26365 0.0
C354 C 0.31188 0.43807 0.28291 0.0
C355 C 0.31266 0.4413 0.31472 0.0
H356 H 0.87963 0.29808 0.67089 0.0
H357 H 0.87234 0.35852 0.68164 0.0
H358 H 0.88261 0.29603 0.72671 0.0
H359 H 0.87464 0.35617 0.73632 0.0
H360 H 0.90016 0.36381 0.82905 0.0
H361 H 0.90305 0.36299 0.77404 0.0
H362 H 0.85968 0.28838 0.77488 0.0
H363 H 0.85773 0.28924 0.8309 0.0
C364 C 0.87868 0.31088 0.68509 0.0
C365 C 0.87598 0.32859 0.67183 0.0
C366 C 0.88028 0.30965 0.71699 0.0
C367 C 0.87925 0.32616 0.73601 0.0
C368 C 0.87619 0.34355 0.72248 0.0
C369 C 0.8747 0.3448 0.69096 0.0
C370 C 0.89153 0.34717 0.81766 0.0
C371 C 0.87841 0.32663 0.83421 0.0
C372 C 0.89308 0.34669 0.78601 0.0
C373 C 0.88104 0.32568 0.76989 0.0
C374 C 0.86912 0.30486 0.78658 0.0
C375 C 0.86795 0.30534 0.81859 0.0
H376 H 0.54037 0.89068 0.3273 0.0
H377 H 0.5821 0.85803 0.3337 0.0
H378 H 0.5438 0.89187 0.27247 0.0
H379 H 0.58474 0.8583 0.27757 0.0
H380 H 0.59278 0.8799 0.17162 0.0
H381 H 0.59774 0.88289 0.22756 0.0
H382 H 0.52465 0.85869 0.23793 0.0
H383 H 0.51987 0.85625 0.18323 0.0
C384 C 0.55045 0.88386 0.31703 0.0
C385 C 0.56065 0.87391 0.33486 0.0
C386 C 0.55235 0.88448 0.28545 0.0
C387 C 0.56401 0.87462 0.27066 0.0
C388 C 0.57558 0.86596 0.28841 0.0
C389 C 0.574 0.86572 0.32042 0.0
C390 C 0.57787 0.87521 0.18605 0.0
C391 C 0.55603 0.86821 0.17309 0.0
C392 C 0.58069 0.87684 0.21794 0.0
C393 C 0.56167 0.87149 0.23706 0.0
C394 C 0.53978 0.86359 0.22385 0.0
C395 C 0.53703 0.86211 0.1924 0.0
H396 H 0.72994 0.57765 0.8325 0.0
H397 H 0.65525 0.54189 0.82674 0.0
H398 H 0.73223 0.57983 0.77639 0.0
H399 H 0.65747 0.54488 0.7717 0.0
H400 H 0.66624 0.51717 0.68287 0.0
H401 H 0.66787 0.52301 0.73735 0.0
H402 H 0.72344 0.5937 0.72602 0.0
H403 H 0.72207 0.58762 0.67037 0.0
C404 C 0.7141 0.57089 0.81932 0.0
C405 C 0.6924 0.55923 0.83391 0.0
C406 C 0.7154 0.57216 0.78728 0.0
C407 C 0.695 0.56201 0.76961 0.0
C408 C 0.67349 0.55227 0.78458 0.0
C409 C 0.67221 0.55064 0.81623 0.0
C410 C 0.67883 0.53404 0.69176 0.0
C411 C 0.69387 0.55201 0.67221 0.0
C412 C 0.67967 0.53743 0.72312 0.0
C413 C 0.69546 0.55898 0.73603 0.0
C414 C 0.71103 0.57694 0.71669 0.0
C415 C 0.7102 0.57349 0.68492 0.0
H416 H 0.16353 0.66692 0.32362 0.0
H417 H 0.14012 0.71642 0.33288 0.0
H418 H 0.16075 0.66804 0.26879 0.0
H419 H 0.1367 0.71712 0.27689 0.0
H420 H 0.15979 0.72484 0.17112 0.0
H421 H 0.15994 0.7278 0.22715 0.0
H422 H 0.12848 0.65337 0.23366 0.0
H423 H 0.12925 0.65062 0.17872 0.0
C424 C 0.15766 0.67802 0.31389 0.0
C425 C 0.15175 0.69135 0.33259 0.0
C426 C 0.15594 0.67856 0.28236 0.0
C427 C 0.14796 0.69223 0.26847 0.0
C428 C 0.14281 0.70633 0.28699 0.0
C429 C 0.14471 0.70591 0.31893 0.0
C430 C 0.15265 0.70917 0.18469 0.0
C431 C 0.14493 0.68755 0.17062 0.0
C432 C 0.15267 0.71084 0.21667 0.0
C433 C 0.14474 0.69086 0.23482 0.0
C434 C 0.13537 0.66917 0.2204 0.0
C435 C 0.13572 0.66757 0.1888 0.0
H436 H 0.44003 0.1563 0.831 0.0
H437 H 0.47517 0.11695 0.8247 0.0
H438 H 0.43732 0.15613 0.77493 0.0
H439 H 0.47162 0.11587 0.7697 0.0
H440 H 0.49874 0.15177 0.6805 0.0
H441 H 0.49332 0.14778 0.73498 0.0
H442 H 0.42288 0.13343 0.72464 0.0
H443 H 0.42856 0.13796 0.66887 0.0
C444 C 0.44656 0.14709 0.81773 0.0
C445 C 0.4582 0.13701 0.83214 0.0
C446 C 0.44496 0.14694 0.7857 0.0
C447 C 0.45477 0.13647 0.76785 0.0
C448 C 0.46451 0.12468 0.78269 0.0
C449 C 0.46646 0.12521 0.81432 0.0
C450 C 0.48199 0.14768 0.68958 0.0
C451 C 0.46399 0.14493 0.67024 0.0
C452 C 0.47884 0.14526 0.72097 0.0
C453 C 0.4575 0.13978 0.73419 0.0
C454 C 0.4395 0.13755 0.71508 0.0
C455 C 0.44271 0.14007 0.68324 0.0
H456 H 0.54128 0.65185 0.67484 0.0
H457 H 0.58225 0.72646 0.66917 0.0
H458 H 0.54421 0.65388 0.72983 0.0
H459 H 0.58444 0.72864 0.72526 0.0
H460 H 0.59238 0.71748 0.83064 0.0
H461 H 0.59731 0.71847 0.77481 0.0
H462 H 0.52501 0.66636 0.76528 0.0
H463 H 0.52031 0.66499 0.81999 0.0
C464 C 0.55107 0.66875 0.68535 0.0
C465 C 0.56122 0.68901 0.66767 0.0
C466 C 0.55267 0.66992 0.71699 0.0
C467 C 0.56401 0.69144 0.73199 0.0
C468 C 0.57551 0.71179 0.71435 0.0
C469 C 0.57422 0.71057 0.68232 0.0
C470 C 0.57764 0.70628 0.81644 0.0
C471 C 0.55605 0.69094 0.8297 0.0
C472 C 0.58044 0.7069 0.78457 0.0
C473 C 0.56166 0.69218 0.76566 0.0
C474 C 0.54002 0.67746 0.77914 0.0
C475 C 0.53729 0.67676 0.81063 0.0
H476 H 0.88139 0.59096 0.33189 0.0
H477 H 0.87132 0.52214 0.32016 0.0
H478 H 0.88479 0.5964 0.27606 0.0
H479 H 0.87412 0.52727 0.26563 0.0
H480 H 0.90142 0.54502 0.17449 0.0
H481 H 0.90425 0.54939 0.22936 0.0
H482 H 0.86145 0.58106 0.22691 0.0
H483 H 0.85966 0.5777 0.17087 0.0
C484 C 0.87991 0.57707 0.31749 0.0
C485 C 0.87637 0.55624 0.33047 0.0
C486 C 0.88176 0.58014 0.28561 0.0
C487 C 0.88018 0.56244 0.26642 0.0
C488 C 0.87614 0.54155 0.27966 0.0
C489 C 0.87438 0.53856 0.3111 0.0
C490 C 0.89301 0.55339 0.18542 0.0
C491 C 0.88006 0.56073 0.16842 0.0
C492 C 0.89452 0.55579 0.217 0.0
C493 C 0.88251 0.56495 0.23264 0.0
C494 C 0.87085 0.57387 0.21553 0.0
C495 C 0.86977 0.5719 0.18353 0.0
H496 H 0.29158 0.85807 0.67148 0.0
H497 H 0.36607 0.89114 0.67885 0.0
H498 H 0.28869 0.85742 0.72756 0.0
H499 H 0.36334 0.89138 0.73381 0.0
H500 H 0.35093 0.8547 0.82241 0.0
H501 H 0.3494 0.8581 0.76772 0.0
H502 H 0.29922 0.88056 0.77802 0.0
H503 H 0.30039 0.87657 0.83385 0.0
C504 C 0.3073 0.86569 0.685 0.0
C505 C 0.32902 0.87424 0.67087 0.0
C506 C 0.30566 0.86538 0.717 0.0
C507 C 0.32577 0.87383 0.73505 0.0
C508 C 0.34748 0.8841 0.72058 0.0
C509 C 0.34906 0.88404 0.68898 0.0
C510 C 0.3395 0.86035 0.8132 0.0
C511 C 0.32601 0.86567 0.83246 0.0
C512 C 0.33871 0.86241 0.78176 0.0
C513 C 0.3246 0.87014 0.76856 0.0
C514 C 0.31033 0.87467 0.78762 0.0
C515 C 0.31103 0.87244 0.81946 0.0
H516 H 0.42889 0.29603 0.3303 0.0
H517 H 0.49764 0.35518 0.31887 0.0
H518 H 0.42346 0.29407 0.2745 0.0
H519 H 0.49252 0.35296 0.26428 0.0
H520 H 0.47452 0.36188 0.1725 0.0
H521 H 0.47062 0.3607 0.22753 0.0
H522 H 0.43855 0.28606 0.22567 0.0
H523 H 0.44162 0.2873 0.16965 0.0
C524 C 0.44277 0.30855 0.31596 0.0
C525 C 0.46359 0.3259 0.32903 0.0
C526 C 0.43971 0.30738 0.28409 0.0
C527 C 0.4574 0.32362 0.26494 0.0
C528 C 0.47825 0.34058 0.27826 0.0
C529 C 0.48125 0.34176 0.30972 0.0
C530 C 0.46623 0.34516 0.18368 0.0
C531 C 0.4587 0.32472 0.16686 0.0
C532 C 0.46409 0.34447 0.21531 0.0
C533 C 0.45489 0.32334 0.23113 0.0
C534 C 0.44577 0.30262 0.21418 0.0
C535 C 0.44755 0.30332 0.18217 0.0
H536 H 0.14054 0.42447 0.66836 0.0
H537 H 0.15663 0.49525 0.68161 0.0
H538 H 0.1362 0.41835 0.72409 0.0
H539 H 0.15276 0.48936 0.73601 0.0
H540 H 0.12134 0.47113 0.82477 0.0
H541 H 0.1197 0.46714 0.76988 0.0
H542 H 0.16 0.43286 0.77466 0.0
H543 H 0.16063 0.43591 0.83074 0.0
C544 C 0.1432 0.43865 0.68308 0.0
C545 C 0.1486 0.46023 0.67059 0.0
C546 C 0.14079 0.43518 0.71486 0.0
C547 C 0.14366 0.45323 0.73435 0.0
C548 C 0.14976 0.47488 0.72164 0.0
C549 C 0.15209 0.47828 0.69032 0.0
C550 C 0.1294 0.46224 0.81437 0.0
C551 C 0.14138 0.45413 0.83203 0.0
C552 C 0.12855 0.46003 0.7828 0.0
C553 C 0.14026 0.45026 0.76789 0.0
C554 C 0.15086 0.44053 0.78556 0.0
C555 C 0.15128 0.44232 0.81756 0.0
H556 H 0.66731 0.15542 0.32371 0.0
H557 H 0.7222 0.13932 0.33302 0.0
H558 H 0.66879 0.15286 0.26893 0.0
H559 H 0.72329 0.13607 0.27703 0.0
H560 H 0.72955 0.15873 0.17146 0.0
H561 H 0.73213 0.1587 0.22752 0.0
H562 H 0.65733 0.12195 0.23295 0.0
H563 H 0.65489 0.12295 0.17799 0.0
C564 C 0.67965 0.15115 0.31402 0.0
C565 C 0.69444 0.14729 0.33278 0.0
C566 C 0.6804 0.14954 0.28247 0.0
C567 C 0.69577 0.14372 0.26853 0.0
C568 C 0.71118 0.1405 0.28711 0.0
C569 C 0.71053 0.14229 0.31908 0.0
C570 C 0.71374 0.15041 0.18479 0.0
C571 C 0.69203 0.14124 0.17039 0.0
C572 C 0.7152 0.15033 0.21682 0.0
C573 C 0.69493 0.14083 0.23474 0.0
C574 C 0.67331 0.13008 0.21995 0.0
C575 C 0.67189 0.13054 0.18831 0.0
H576 H 0.22114 0.4882 0.92255 0.0
H577 H 0.17708 0.45758 0.00113 0.0
H578 H 0.253 0.48755 0.94915 0.0
H579 H 0.2092 0.45726 0.02797 0.0
H580 H 0.28164 0.4881 0.0751 0.0
H581 H 0.24919 0.48749 0.04844 0.0
H582 H 0.26262 0.45721 0.96961 0.0
H583 H 0.29504 0.45748 0.99653 0.0
C584 C 0.21827 0.48142 0.94558 0.0
C585 C 0.19654 0.473 0.95975 0.0
C586 C 0.23651 0.4809 0.96073 0.0
C587 C 0.23364 0.47231 0.99064 0.0
C588 C 0.21199 0.4641 0.00498 0.0
C589 C 0.19358 0.46424 0.9896 0.0
C590 C 0.27772 0.4813 0.05207 0.0
C591 C 0.291 0.47288 0.03792 0.0
C592 C 0.259 0.48082 0.03688 0.0
C593 C 0.25329 0.47227 0.00694 0.0
C594 C 0.26667 0.46402 0.99263 0.0
C595 C 0.28519 0.46411 0.00806 0.0
H596 H 0.74349 0.17453 0.48435 0.0
H597 H 0.72234 0.22135 0.4485 0.0
H598 H 0.77603 0.20703 0.5108 0.0
H599 H 0.75448 0.25364 0.47544 0.0
H600 H 0.7988 0.2975 0.55898 0.0
H601 H 0.76657 0.26518 0.53224 0.0
H602 H 0.81385 0.24553 0.49394 0.0
H603 H 0.8463 0.27827 0.5202 0.0
C604 C 0.74564 0.19169 0.48236 0.0
C605 C 0.73029 0.19534 0.46436 0.0
C606 C 0.76436 0.21032 0.49731 0.0
C607 C 0.76785 0.2329 0.49514 0.0
C608 C 0.75221 0.23644 0.47765 0.0
C609 C 0.73382 0.21794 0.4622 0.0
C610 C 0.80237 0.28639 0.54471 0.0
C611 C 0.82515 0.29052 0.54165 0.0
C612 C 0.7839 0.2679 0.52936 0.0
C613 C 0.78765 0.25275 0.51108 0.0
C614 C 0.81041 0.25681 0.50805 0.0
C615 C 0.82899 0.27564 0.5229 0.0
H616 H 0.53136 0.79749 0.07744 0.0
H617 H 0.56273 0.84399 0.00122 0.0
H618 H 0.53353 0.76694 0.04969 0.0
H619 H 0.56454 0.81304 0.97309 0.0
H620 H 0.53269 0.74066 0.92365 0.0
H621 H 0.53425 0.77321 0.95118 0.0
H622 H 0.56458 0.75837 0.02869 0.0
H623 H 0.56337 0.7258 1.00082 0.0
C624 C 0.53869 0.8012 0.05468 0.0
C625 C 0.54678 0.82319 0.04148 0.0
C626 C 0.5401 0.78371 0.0389 0.0
C627 C 0.54927 0.78757 0.00926 0.0
C628 C 0.55732 0.80953 0.9959 0.0
C629 C 0.55631 0.82725 0.01198 0.0
C630 C 0.53978 0.74433 0.94654 0.0
C631 C 0.54781 0.73054 0.96011 0.0
C632 C 0.54082 0.76313 0.96221 0.0
C633 C 0.54957 0.76841 0.99207 0.0
C634 C 0.55766 0.75466 0.00571 0.0
C635 C 0.55702 0.73606 0.98977 0.0
H636 H 0.74123 0.52576 0.57699 0.0
H637 H 0.72635 0.5568 0.50029 0.0
H638 H 0.77374 0.5274 0.54926 0.0
H639 H 0.75887 0.55805 0.47217 0.0
H640 H 0.80058 0.52732 0.42323 0.0
H641 H 0.76886 0.52787 0.45046 0.0
H642 H 0.81342 0.55869 0.52852 0.0
H643 H 0.8454 0.55853 0.50104 0.0
C644 C 0.74484 0.53288 0.55413 0.0
C645 C 0.73111 0.5411 0.54083 0.0
C646 C 0.7636 0.53395 0.53832 0.0
C647 C 0.76894 0.5429 0.50856 0.0
C648 C 0.75513 0.55097 0.49506 0.0
C649 C 0.73656 0.55031 0.51116 0.0
C650 C 0.80366 0.53423 0.44621 0.0
C651 C 0.82554 0.5428 0.46001 0.0
C652 C 0.7855 0.5347 0.4617 0.0
C653 C 0.78861 0.54335 0.49162 0.0
C654 C 0.81045 0.55181 0.50553 0.0
C655 C 0.82878 0.55176 0.48978 0.0
H656 H 0.27846 0.84111 0.98417 0.0
H657 H 0.29983 0.79395 0.95011 0.0
H658 H 0.24558 0.80871 0.01048 0.0
H659 H 0.26744 0.7619 0.97668 0.0
H660 H 0.22278 0.71782 0.05843 0.0
H661 H 0.25509 0.75054 0.03262 0.0
H662 H 0.2078 0.76997 0.9938 0.0
H663 H 0.17521 0.73681 0.01931 0.0
C664 C 0.27631 0.82393 0.98261 0.0
C665 C 0.29179 0.82011 0.96515 0.0
C666 C 0.2574 0.80537 0.99741 0.0
C667 C 0.2539 0.78275 0.99557 0.0
C668 C 0.26971 0.77912 0.97865 0.0
C669 C 0.28826 0.7975 0.96342 0.0
C670 C 0.21921 0.72895 0.04424 0.0
C671 C 0.1964 0.72463 0.0408 0.0
C672 C 0.23773 0.7477 0.02945 0.0
C673 C 0.23401 0.7629 0.01129 0.0
C674 C 0.21122 0.75866 0.00786 0.0
C675 C 0.19256 0.73958 0.02223 0.0
H676 H 0.49198 0.22026 0.57658 0.0
H677 H 0.46112 0.17501 0.49906 0.0
H678 H 0.49086 0.25158 0.54918 0.0
H679 H 0.46041 0.20664 0.47137 0.0
H680 H 0.49166 0.27896 0.42285 0.0
H681 H 0.49098 0.24675 0.45028 0.0
H682 H 0.45995 0.26052 0.52796 0.0
H683 H 0.46021 0.29264 0.50022 0.0
C684 C 0.48504 0.21701 0.55362 0.0
C685 C 0.4767 0.19511 0.53998 0.0
C686 C 0.48425 0.23494 0.53801 0.0
C687 C 0.47551 0.23162 0.50813 0.0
C688 C 0.46735 0.20978 0.49433 0.0
C689 C 0.4677 0.19165 0.5102 0.0
C690 C 0.48467 0.27516 0.44579 0.0
C691 C 0.47604 0.28845 0.45937 0.0
C692 C 0.48415 0.25657 0.46141 0.0
C693 C 0.47538 0.25103 0.49127 0.0
C694 C 0.46691 0.26442 0.50502 0.0
C695 C 0.46701 0.28278 0.48912 0.0
H696 H 0.84247 0.5558 0.99958 0.0
H697 H 0.79859 0.52583 0.07847 0.0
H698 H 0.81028 0.55578 0.97252 0.0
H699 H 0.76662 0.52614 0.0516 0.0
H700 H 0.72514 0.55674 0.00345 0.0
H701 H 0.75715 0.55647 0.03067 0.0
H702 H 0.77021 0.5256 0.95218 0.0
H703 H 0.73811 0.52552 0.92519 0.0
C704 C 0.82598 0.5492 0.01114 0.0
C705 C 0.82311 0.54075 0.04116 0.0
C706 C 0.80752 0.54913 0.99562 0.0
C707 C 0.78589 0.54101 0.00995 0.0
C708 C 0.78309 0.53269 0.04002 0.0
C709 C 0.80139 0.53237 0.05532 0.0
C710 C 0.7348 0.54983 0.99207 0.0
C711 C 0.729 0.5411 0.96217 0.0
C712 C 0.75308 0.54961 0.00768 0.0
C713 C 0.76628 0.54107 0.99355 0.0
C714 C 0.76054 0.53247 0.96361 0.0
C715 C 0.74202 0.5323 0.94823 0.0
H716 H 0.22357 0.71936 0.44973 0.0
H717 H 0.17616 0.74036 0.48391 0.0
H718 H 0.25563 0.7521 0.47583 0.0
H719 H 0.20857 0.77359 0.50974 0.0
H720 H 0.28027 0.84428 0.51909 0.0
H721 H 0.24721 0.81163 0.49334 0.0
H722 H 0.26718 0.76459 0.53156 0.0
H723 H 0.29973 0.7969 0.55758 0.0
C724 C 0.21996 0.73093 0.46295 0.0
C725 C 0.19725 0.72715 0.46486 0.0
C726 C 0.23836 0.7497 0.47791 0.0
C727 C 0.23468 0.76551 0.49476 0.0
C728 C 0.21198 0.7618 0.49673 0.0
C729 C 0.1934 0.74267 0.48219 0.0
C730 C 0.27765 0.82698 0.52179 0.0
C731 C 0.29269 0.82322 0.5403 0.0
C732 C 0.25862 0.80827 0.50729 0.0
C733 C 0.25454 0.78551 0.51048 0.0
C734 C 0.26987 0.7819 0.52853 0.0
C735 C 0.28853 0.80044 0.54346 0.0
H736 H 0.49345 0.21681 0.92394 0.0
H737 H 0.4616 0.17234 0.00182 0.0
H738 H 0.49366 0.24893 0.95113 0.0
H739 H 0.46215 0.20469 0.02923 0.0
H740 H 0.49278 0.27675 0.07753 0.0
H741 H 0.49249 0.24447 0.0506 0.0
H742 H 0.46353 0.25883 0.9712 0.0
H743 H 0.46347 0.29096 0.9983 0.0
C744 C 0.48661 0.21391 0.94695 0.0
C745 C 0.47753 0.19198 0.96071 0.0
C746 C 0.48661 0.2323 0.96244 0.0
C747 C 0.47789 0.22938 0.99232 0.0
C748 C 0.46911 0.20754 0.00629 0.0
C749 C 0.46873 0.18899 0.99057 0.0
C750 C 0.48638 0.27307 0.0543 0.0
C751 C 0.47818 0.28649 0.04006 0.0
C752 C 0.48609 0.25447 0.03895 0.0
C753 C 0.47797 0.24905 0.00877 0.0
C754 C 0.47002 0.26264 0.99437 0.0
C755 C 0.46993 0.28101 0.00993 0.0
H756 H 0.22239 0.48749 0.57657 0.0
H757 H 0.17697 0.45704 0.4991 0.0
H758 H 0.25352 0.48613 0.54908 0.0
H759 H 0.20846 0.45605 0.47129 0.0
H760 H 0.28079 0.48833 0.42262 0.0
H761 H 0.2482 0.48658 0.45024 0.0
H762 H 0.26304 0.45594 0.52736 0.0
H763 H 0.29567 0.45732 0.49936 0.0
C764 C 0.21904 0.48054 0.5536 0.0
C765 C 0.19717 0.47246 0.53999 0.0
C766 C 0.23688 0.4796 0.53795 0.0
C767 C 0.23349 0.47093 0.50803 0.0
C768 C 0.21164 0.46291 0.4943 0.0
C769 C 0.1936 0.46344 0.51021 0.0
C770 C 0.27715 0.48116 0.44546 0.0
C771 C 0.29095 0.47304 0.45883 0.0
C772 C 0.25832 0.48001 0.46119 0.0
C773 C 0.25296 0.47108 0.49096 0.0
C774 C 0.26678 0.463 0.50447 0.0
C775 C 0.28543 0.46375 0.48845 0.0
H776 H 0.79604 0.29519 0.94421 0.0
H777 H 0.84331 0.27618 0.98426 0.0
H778 H 0.7636 0.26285 0.97082 0.0
H779 H 0.81074 0.24348 0.01022 0.0
H780 H 0.74066 0.17233 0.01888 0.0
H781 H 0.77291 0.20487 0.99213 0.0
H782 H 0.75162 0.2514 0.02861 0.0
H783 H 0.71979 0.21906 0.05597 0.0
C784 C 0.79951 0.28412 0.95869 0.0
C785 C 0.82227 0.28831 0.96219 0.0
C786 C 0.78094 0.26563 0.97395 0.0
C787 C 0.78461 0.25057 0.99249 0.0
C788 C 0.80736 0.25469 0.99591 0.0
C789 C 0.82601 0.27351 0.98121 0.0
C790 C 0.7428 0.18948 0.02106 0.0
C791 C 0.72765 0.1931 0.03954 0.0
C792 C 0.76134 0.20812 0.00591 0.0
C793 C 0.76481 0.23069 0.00833 0.0
C794 C 0.74934 0.2342 0.02622 0.0
C795 C 0.73114 0.21568 0.04192 0.0
H796 H 0.5117 0.79724 0.45009 0.0
H797 H 0.58005 0.84395 0.48554 0.0
H798 H 0.51176 0.76478 0.4759 0.0
H799 H 0.58028 0.81122 0.51093 0.0
H800 H 0.57941 0.7399 0.51764 0.0
H801 H 0.57966 0.7731 0.49301 0.0
H802 H 0.51245 0.75217 0.53163 0.0
H803 H 0.51239 0.71938 0.55671 0.0
C804 C 0.52671 0.80061 0.46352 0.0
C805 C 0.54583 0.82323 0.46585 0.0
C806 C 0.52672 0.78199 0.47834 0.0
C807 C 0.54606 0.78539 0.49536 0.0
C808 C 0.5652 0.80802 0.49779 0.0
C809 C 0.56498 0.82678 0.48347 0.0
C810 C 0.56465 0.74233 0.52073 0.0
C811 C 0.54585 0.72693 0.53907 0.0
C812 C 0.56488 0.76145 0.50684 0.0
C813 C 0.54611 0.76531 0.51044 0.0
C814 C 0.52714 0.74965 0.52831 0.0
C815 C 0.52712 0.73086 0.5427 0.0
H816 H 0.37482 0.4243 0.13991 0.0
H817 H 0.37892 0.43705 0.04299 0.0
H818 H 0.39058 0.39874 0.13283 0.0
H819 H 0.39507 0.41129 0.03571 0.0
H820 H 0.45922 0.39906 0.05483 0.0
H821 H 0.43345 0.4152 0.05044 0.0
H822 H 0.38468 0.36215 0.11129 0.0
H823 H 0.41071 0.34632 0.11579 0.0
C824 C 0.37866 0.42121 0.11693 0.0
C825 C 0.37567 0.43269 0.09202 0.0
C826 C 0.38759 0.40642 0.11282 0.0
C827 C 0.39414 0.40293 0.08369 0.0
C828 C 0.39026 0.41368 0.05847 0.0
C829 C 0.38087 0.42826 0.06256 0.0
C830 C 0.44256 0.39039 0.06627 0.0
C831 C 0.43673 0.37132 0.08533 0.0
C832 C 0.42779 0.39961 0.0638 0.0
C833 C 0.40706 0.39009 0.0807 0.0
C834 C 0.40061 0.37002 0.09818 0.0
C835 C 0.41536 0.3608 0.10057 0.0
H836 H 0.07466 0.43785 0.55106 0.0
H837 H 0.06621 0.42552 0.64808 0.0
H838 H 0.03252 0.41307 0.54419 0.0
H839 H 0.02459 0.40097 0.6414 0.0
H840 H 0.95099 0.34964 0.62459 0.0
H841 H 0.99288 0.36495 0.62087 0.0
H842 H 0.99858 0.41749 0.55812 0.0
H843 H 0.95663 0.40182 0.56166 0.0
C844 C 0.0639 0.42938 0.57077 0.0
C845 C 0.07374 0.43368 0.60011 0.0
C846 C 0.03976 0.41536 0.5669 0.0
C847 C 0.02508 0.405 0.59225 0.0
C848 C 0.03525 0.40834 0.62129 0.0
C849 C 0.05916 0.42257 0.62516 0.0
C850 C 0.96115 0.36393 0.60921 0.0
C851 C 0.95064 0.37439 0.5931 0.0
C852 C 0.98516 0.37287 0.60727 0.0
C853 C 0.99921 0.39262 0.5894 0.0
C854 C 0.98835 0.40214 0.57182 0.0
C855 C 0.96432 0.39319 0.57381 0.0
H856 H 0.5878 0.94335 0.05689 0.0
H857 H 0.58324 0.95361 0.15338 0.0
H858 H 0.61465 0.98525 0.05088 0.0
H859 H 0.60922 0.99475 0.14745 0.0
H860 H 0.66414 0.06609 0.13972 0.0
H861 H 0.64789 0.0242 0.13764 0.0
H862 H 0.61329 0.02157 0.05311 0.0
H863 H 0.63064 0.06388 0.05472 0.0
C864 C 0.59276 0.95442 0.07683 0.0
C865 C 0.58324 0.94508 0.10559 0.0
C866 C 0.608 0.97845 0.07337 0.0
C867 C 0.61427 0.99351 0.09869 0.0
C868 C 0.60527 0.98385 0.12746 0.0
C869 C 0.59007 0.96011 0.13084 0.0
C870 C 0.65378 0.05662 0.12013 0.0
C871 C 0.64874 0.06816 0.09731 0.0
C872 C 0.6442 0.03256 0.11907 0.0
C873 C 0.62876 0.01932 0.09559 0.0
C874 C 0.62514 0.03114 0.07148 0.0
C875 C 0.6351 0.05538 0.07232 0.0
H876 H 0.65317 0.58364 0.55452 0.0
H877 H 0.63687 0.57857 0.65058 0.0
H878 H 0.63896 0.61108 0.54812 0.0
H879 H 0.62258 0.60518 0.64424 0.0
H880 H 0.6086 0.6616 0.63626 0.0
H881 H 0.63341 0.64445 0.63453 0.0
H882 H 0.60134 0.61044 0.54968 0.0
H883 H 0.57716 0.6286 0.55101 0.0
C884 C 0.6469 0.58859 0.57429 0.0
C885 C 0.64609 0.57879 0.60304 0.0
C886 C 0.6386 0.60418 0.5706 0.0
C887 C 0.6297 0.61053 0.59568 0.0
C888 C 0.62967 0.60118 0.62445 0.0
C889 C 0.63769 0.58563 0.62805 0.0
C890 C 0.60756 0.65121 0.61664 0.0
C891 C 0.59114 0.64656 0.59367 0.0
C892 C 0.62154 0.6411 0.61579 0.0
C893 C 0.61903 0.62555 0.59234 0.0
C894 C 0.60385 0.62236 0.56804 0.0
C895 C 0.59003 0.63281 0.5687 0.0
H896 H 0.9536 0.5677 0.05215 0.0
H897 H 0.95116 0.60606 0.1298 0.0
H898 H 0.99584 0.59293 0.04961 0.0
H899 H 0.99308 0.63184 0.12678 0.0
H900 H 0.06345 0.63767 0.1479 0.0
H901 H 0.02241 0.62312 0.14116 0.0
H902 H 0.032 0.63093 0.04349 0.0
H903 H 0.07373 0.64548 0.05043 0.0
C904 C 0.96203 0.58221 0.06777 0.0
C905 C 0.94923 0.5851 0.09105 0.0
C906 C 0.98623 0.59667 0.06639 0.0
C907 C 0.99798 0.61422 0.08833 0.0
C908 C 0.98471 0.61823 0.1099 0.0
C909 C 0.96067 0.60366 0.11146 0.0
C910 C 0.05696 0.63667 0.12495 0.0
C911 C 0.07187 0.64262 0.0997 0.0
C912 C 0.03334 0.62847 0.12106 0.0
C913 C 0.02375 0.62585 0.09175 0.0
C914 C 0.03879 0.63263 0.06638 0.0
C915 C 0.06269 0.64114 0.07034 0.0
H916 H 0.4167 0.06828 0.63841 0.0
H917 H 0.44957 0.06715 0.5543 0.0
H918 H 0.39087 0.02644 0.63521 0.0
H919 H 0.42453 0.02486 0.55167 0.0
H920 H 0.37197 0.94658 0.55295 0.0
H921 H 0.38723 0.98858 0.54773 0.0
H922 H 0.39872 0.99653 0.64513 0.0
H923 H 0.38325 0.95535 0.65021 0.0
C924 C 0.418 0.05904 0.61884 0.0
C925 C 0.43502 0.07089 0.59658 0.0
C926 C 0.40339 0.03501 0.61712 0.0
C927 C 0.40592 0.02203 0.59357 0.0
C928 C 0.42194 0.03417 0.57007 0.0
C929 C 0.43632 0.05842 0.57153 0.0
C930 C 0.37729 0.95734 0.5732 0.0
C931 C 0.37648 0.94758 0.60196 0.0
C932 C 0.38624 0.98143 0.57022 0.0
C933 C 0.39422 0.99612 0.59601 0.0
C934 C 0.39242 0.98598 0.62474 0.0
C935 C 0.3837 0.96221 0.62765 0.0
H936 H 0.5821 0.63372 0.85238 0.0
H937 H 0.58666 0.64912 0.94869 0.0
H938 H 0.60825 0.61882 0.8587 0.0
H939 H 0.61349 0.63416 0.95512 0.0
H940 H 0.62913 0.57095 0.95071 0.0
H941 H 0.61156 0.59567 0.95244 0.0
H942 H 0.64764 0.62944 0.86942 0.0
H943 H 0.66429 0.60419 0.8673 0.0
C944 C 0.58895 0.6342 0.87496 0.0
C945 C 0.58214 0.64254 0.90004 0.0
C946 C 0.6042 0.62581 0.87856 0.0
C947 C 0.61319 0.62536 0.90742 0.0
C948 C 0.60685 0.63419 0.93258 0.0
C949 C 0.59163 0.6429 0.92887 0.0
C950 C 0.6339 0.58428 0.93354 0.0
C951 C 0.6481 0.58579 0.90893 0.0
C952 C 0.62381 0.59841 0.93445 0.0
C953 C 0.6278 0.61427 0.91073 0.0
C954 C 0.64374 0.61708 0.8877 0.0
C955 C 0.65352 0.60283 0.88662 0.0
H956 H 0.95488 0.56819 0.4452 0.0
H957 H 0.95265 0.6064 0.36733 0.0
H958 H 0.99707 0.59356 0.44814 0.0
H959 H 0.99451 0.63244 0.37086 0.0
H960 H 0.06652 0.6419 0.35186 0.0
H961 H 0.02517 0.6261 0.35731 0.0
H962 H 0.03261 0.63098 0.45542 0.0
H963 H 0.07461 0.64669 0.44974 0.0
C964 C 0.96335 0.58265 0.42954 0.0
C965 C 0.95059 0.58547 0.40614 0.0
C966 C 0.98755 0.59721 0.43116 0.0
C967 C 0.9994 0.6149 0.40942 0.0
C968 C 0.98615 0.61872 0.38758 0.0
C969 C 0.96211 0.60399 0.38572 0.0
C970 C 0.05948 0.64 0.37465 0.0
C971 C 0.07392 0.64549 0.40035 0.0
C972 C 0.03565 0.63106 0.37782 0.0
C973 C 0.02533 0.62719 0.40684 0.0
C974 C 0.03989 0.63355 0.4327 0.0
C975 C 0.06399 0.64278 0.42948 0.0
H976 H 0.41125 0.06415 0.86794 0.0
H977 H 0.44736 0.06149 0.94794 0.0
H978 H 0.38512 0.0223 0.87074 0.0
H979 H 0.42187 0.01929 0.95023 0.0
H980 H 0.36899 0.94161 0.94913 0.0
H981 H 0.38408 0.98344 0.95546 0.0
H982 H 0.3929 0.99234 0.85779 0.0
H983 H 0.37771 0.95117 0.85162 0.0
C984 C 0.4131 0.0546 0.88668 0.0
C985 C 0.43113 0.06598 0.90786 0.0
C986 C 0.39834 0.03058 0.88812 0.0
C987 C 0.40164 0.01723 0.91032 0.0
C988 C 0.41867 0.02893 0.93292 0.0
C989 C 0.43328 0.05312 0.9317 0.0
C990 C 0.37367 0.95252 0.92905 0.0
C991 C 0.37224 0.94305 0.89988 0.0
C992 C 0.38251 0.97651 0.93268 0.0
C993 C 0.38974 0.9914 0.90716 0.0
C994 C 0.38721 0.98156 0.878 0.0
C995 C 0.37864 0.95784 0.87445 0.0
H996 H 0.38617 0.43771 0.34757 0.0
H997 H 0.3706 0.43171 0.4439 0.0
H998 H 0.40136 0.41183 0.35283 0.0
H999 H 0.38564 0.40485 0.44921 0.0
H1000 H 0.44741 0.38761 0.44517 0.0
H1001 H 0.42304 0.40557 0.44718 0.0
H1002 H 0.39184 0.37311 0.36123 0.0
H1003 H 0.41693 0.35633 0.35876 0.0
C1004 C 0.38568 0.43059 0.36995 0.0
C1005 C 0.37723 0.43699 0.39534 0.0
C1006 C 0.39424 0.41542 0.37293 0.0
C1007 C 0.39466 0.40597 0.40143 0.0
C1008 C 0.38568 0.41185 0.42691 0.0
C1009 C 0.3769 0.42709 0.42385 0.0
C1010 C 0.43478 0.3838 0.42727 0.0
C1011 C 0.43401 0.37061 0.4018 0.0
C1012 C 0.42082 0.3941 0.42835 0.0
C1013 C 0.40576 0.39126 0.40402 0.0
C1014 C 0.40365 0.37627 0.37998 0.0
C1015 C 0.41781 0.36639 0.37868 0.0
H1016 H 0.06275 0.41907 0.85914 0.0
H1017 H 0.07272 0.43553 0.95513 0.0
H1018 H 0.02137 0.39403 0.86741 0.0
H1019 H 0.03082 0.4103 0.96361 0.0
H1020 H 0.95546 0.40014 0.94396 0.0
H1021 H 0.99718 0.41494 0.94801 0.0
H1022 H 0.98986 0.35883 0.89087 0.0
H1023 H 0.9481 0.34428 0.88675 0.0
C1024 C 0.0561 0.41684 0.8822 0.0
C1025 C 0.07094 0.42929 0.90647 0.0
C1026 C 0.03235 0.40236 0.88701 0.0
C1027 C 0.02268 0.40017 0.91618 0.0
C1028 C 0.03771 0.41171 0.94084 0.0
C1029 C 0.06169 0.42598 0.93606 0.0
C1030 C 0.96272 0.39054 0.93328 0.0
C1031 C 0.94866 0.37097 0.91536 0.0
C1032 C 0.9866 0.39898 0.93558 0.0
C1033 C 0.99694 0.38818 0.91959 0.0
C1034 C 0.98249 0.36767 0.90327 0.0
C1035 C 0.95858 0.35919 0.90111 0.0
H1036 H 0.59354 0.95457 0.35435 0.0
H1037 H 0.59178 0.94732 0.4523 0.0
H1038 H 0.61912 0.99585 0.35899 0.0
H1039 H 0.61847 0.98933 0.45719 0.0
H1040 H 0.63285 0.06647 0.44776 0.0
H1041 H 0.61701 0.02451 0.45117 0.0
H1042 H 0.65539 0.02722 0.37022 0.0
H1043 H 0.66987 0.06876 0.36608 0.0
C1044 C 0.59911 0.96179 0.377 0.0
C1045 C 0.59042 0.94761 0.40296 0.0
C1046 C 0.61407 0.98562 0.37969 0.0
C1047 C 0.62104 0.99623 0.4085 0.0
C1048 C 0.61333 0.98188 0.43461 0.0
C1049 C 0.59824 0.95776 0.43186 0.0
C1050 C 0.63834 0.05808 0.43128 0.0
C1051 C 0.65254 0.07075 0.40666 0.0
C1052 C 0.6293 0.03401 0.4332 0.0
C1053 C 0.63447 0.0222 0.41061 0.0
C1054 C 0.65041 0.03547 0.38756 0.0
C1055 C 0.65899 0.05935 0.38532 0.0
H1056 H 0.50322 0.63393 0.99051 0.0
H1057 H 0.45349 0.61136 0.91695 0.0
H1058 H 0.47317 0.606 0.02453 0.0
H1059 H 0.42328 0.58417 0.95102 0.0
H1060 H 0.38515 0.51698 0.0075 0.0
H1061 H 0.41225 0.54822 0.97422 0.0
H1062 H 0.43855 0.59445 0.05179 0.0
H1063 H 0.41215 0.56304 0.08501 0.0
C1064 C 0.48574 0.62343 0.98184 0.0
C1065 C 0.48079 0.6247 0.95102 0.0
C1066 C 0.46844 0.60739 0.00132 0.0
C1067 C 0.44574 0.59251 0.99047 0.0
C1068 C 0.44061 0.59483 0.96003 0.0
C1069 C 0.45793 0.61059 0.94054 0.0
C1070 C 0.3965 0.53391 0.01731 0.0
C1071 C 0.39664 0.53744 0.0489 0.0
C1072 C 0.41205 0.5519 0.99825 0.0
C1073 C 0.42786 0.57392 0.01031 0.0
C1074 C 0.4271 0.57766 0.04174 0.0
C1075 C 0.4118 0.55964 0.06077 0.0
H1076 H 0.87811 0.42432 0.5851 0.0
H1077 H 0.86151 0.37444 0.5125 0.0
H1078 H 0.87461 0.45034 0.55018 0.0
H1079 H 0.85708 0.40046 0.47741 0.0
H1080 H 0.88598 0.46585 0.41791 0.0
H1081 H 0.88178 0.43574 0.45229 0.0
H1082 H 0.8511 0.45949 0.51979 0.0
H1083 H 0.85614 0.49057 0.48537 0.0
C1084 C 0.87336 0.41867 0.56172 0.0
C1085 C 0.87043 0.39728 0.55161 0.0
C1086 C 0.87109 0.43363 0.54166 0.0
C1087 C 0.86565 0.42768 0.51084 0.0
C1088 C 0.86171 0.40584 0.5009 0.0
C1089 C 0.86413 0.39084 0.52104 0.0
C1090 C 0.87817 0.4647 0.43998 0.0
C1091 C 0.87159 0.4809 0.44889 0.0
C1092 C 0.87554 0.44713 0.45969 0.0
C1093 C 0.86607 0.44502 0.48891 0.0
C1094 C 0.85879 0.46077 0.4976 0.0
C1095 C 0.86161 0.47857 0.47785 0.0
H1096 H 0.42967 0.88493 0.92256 0.0
H1097 H 0.37344 0.84956 0.98688 0.0
H1098 H 0.45577 0.88112 0.95713 0.0
H1099 H 0.39971 0.84501 0.02148 0.0
H1100 H 0.46049 0.86993 0.08903 0.0
H1101 H 0.43152 0.86775 0.05401 0.0
H1102 H 0.46651 0.85554 0.97944 0.0
H1103 H 0.49636 0.85864 0.01467 0.0
C1104 C 0.42274 0.87604 0.944 0.0
C1105 C 0.39937 0.86759 0.95193 0.0
C1106 C 0.43777 0.87366 0.96378 0.0
C1107 C 0.42992 0.86259 0.99207 0.0
C1108 C 0.40645 0.85386 0.99998 0.0
C1109 C 0.39136 0.85644 0.98018 0.0
C1110 C 0.46208 0.86663 0.06521 0.0
C1111 C 0.48107 0.86477 0.05469 0.0
C1112 C 0.4452 0.86515 0.04508 0.0
C1113 C 0.44663 0.86159 0.01379 0.0
C1114 C 0.46507 0.85873 0.00334 0.0
C1115 C 0.48214 0.86037 0.02355 0.0
H1116 H 0.55107 0.42736 0.42057 0.0
H1117 H 0.5301 0.37001 0.4829 0.0
H1118 H 0.58155 0.45268 0.45516 0.0
H1119 H 0.5615 0.39548 0.51748 0.0
H1120 H 0.59817 0.45509 0.58677 0.0
H1121 H 0.57116 0.42662 0.5513 0.0
H1122 H 0.61795 0.46309 0.47684 0.0
H1123 H 0.6449 0.49245 0.51257 0.0
C1124 C 0.55313 0.42 0.44154 0.0
C1125 C 0.53797 0.39656 0.44894 0.0
C1126 C 0.57088 0.4346 0.46135 0.0
C1127 C 0.57422 0.42622 0.48913 0.0
C1128 C 0.55931 0.40265 0.49642 0.0
C1129 C 0.54131 0.388 0.47661 0.0
C1130 C 0.60293 0.45711 0.56288 0.0
C1131 C 0.6237 0.47639 0.55256 0.0
C1132 C 0.5874 0.4405 0.54247 0.0
C1133 C 0.59217 0.44251 0.51108 0.0
C1134 C 0.61345 0.4612 0.50082 0.0
C1135 C 0.62901 0.47798 0.52132 0.0
H1136 H 0.16595 0.52504 0.98393 0.0
H1137 H 0.1356 0.54928 0.91662 0.0
H1138 H 0.17068 0.55596 0.01843 0.0
H1139 H 0.13949 0.57926 0.95116 0.0
H1140 H 0.15974 0.64058 0.012 0.0
H1141 H 0.16395 0.6146 0.9765 0.0
H1142 H 0.14687 0.56463 0.04894 0.0
H1143 H 0.14356 0.59058 0.08424 0.0
C1144 C 0.16032 0.53692 0.97645 0.0
C1145 C 0.15028 0.53449 0.94752 0.0
C1146 C 0.16295 0.55462 0.99626 0.0
C1147 C 0.1554 0.57016 0.98769 0.0
C1148 C 0.14591 0.56799 0.95847 0.0
C1149 C 0.14347 0.55052 0.93867 0.0
C1150 C 0.15715 0.62416 0.02037 0.0
C1151 C 0.1511 0.6177 0.05098 0.0
C1152 C 0.15945 0.60918 0.99999 0.0
C1153 C 0.15564 0.58737 0.00975 0.0
C1154 C 0.15031 0.58134 0.04057 0.0
C1155 C 0.14816 0.59627 0.06085 0.0
H1156 H 0.561 0.1477 0.5878 0.0
H1157 H 0.52403 0.15442 0.51109 0.0
H1158 H 0.59033 0.14935 0.5538 0.0
H1159 H 0.55419 0.15698 0.47684 0.0
H1160 H 0.59132 0.12562 0.42459 0.0
H1161 H 0.56523 0.13056 0.45785 0.0
H1162 H 0.62181 0.1709 0.51995 0.0
H1163 H 0.64815 0.16533 0.48665 0.0
C1164 C 0.55924 0.14988 0.56365 0.0
C1165 C 0.53981 0.15053 0.55219 0.0
C1166 C 0.57633 0.15108 0.5441 0.0
C1167 C 0.57463 0.15309 0.51247 0.0
C1168 C 0.55584 0.15496 0.50106 0.0
C1169 C 0.5386 0.15367 0.5207 0.0
C1170 C 0.59838 0.13567 0.44525 0.0
C1171 C 0.62194 0.14506 0.45291 0.0
C1172 C 0.58334 0.1387 0.46425 0.0
C1173 C 0.59134 0.15134 0.49151 0.0
C1174 C 0.61497 0.16089 0.49923 0.0
C1175 C 0.63009 0.15771 0.48018 0.0
H1176 H 0.56027 0.4194 0.08592 0.0
H1177 H 0.5263 0.37163 0.01137 0.0
H1178 H 0.58972 0.44639 0.05146 0.0
H1179 H 0.55666 0.39854 0.97677 0.0
H1180 H 0.59181 0.46536 0.92014 0.0
H1181 H 0.56646 0.43436 0.95397 0.0
H1182 H 0.62208 0.45692 0.0196 0.0
H1183 H 0.64755 0.48886 0.98577 0.0
C1184 C 0.55924 0.4144 0.06221 0.0
C1185 C 0.54055 0.39338 0.0514 0.0
C1186 C 0.57642 0.42992 0.0424 0.0
C1187 C 0.57558 0.42487 0.01118 0.0
C1188 C 0.55762 0.40326 1.00059 0.0
C1189 C 0.54026 0.38772 0.02046 0.0
C1190 C 0.59884 0.46376 0.94167 0.0
C1191 C 0.6218 0.47983 0.95025 0.0
C1192 C 0.58424 0.44569 0.96105 0.0
C1193 C 0.59212 0.44293 0.98957 0.0
C1194 C 0.61529 0.45865 0.99795 0.0
C1195 C 0.62993 0.47696 0.97855 0.0
H1196 H 0.13317 0.58887 0.42316 0.0
H1197 H 0.16767 0.6448 0.48815 0.0
H1198 H 0.13751 0.56291 0.45726 0.0
H1199 H 0.17271 0.61861 0.52238 0.0
H1200 H 0.1483 0.55691 0.58874 0.0
H1201 H 0.15033 0.58622 0.55446 0.0
H1202 H 0.16372 0.55279 0.47904 0.0
H1203 H 0.16078 0.5226 0.51348 0.0
C1204 C 0.14197 0.59578 0.44466 0.0
C1205 C 0.15006 0.61904 0.45287 0.0
C1206 C 0.14467 0.58082 0.46418 0.0
C1207 C 0.15567 0.5886 0.49252 0.0
C1208 C 0.16396 0.61193 0.5008 0.0
C1209 C 0.1611 0.62698 0.48121 0.0
C1210 C 0.15184 0.55574 0.56489 0.0
C1211 C 0.15403 0.53706 0.55387 0.0
C1212 C 0.15324 0.57283 0.5452 0.0
C1213 C 0.15702 0.57189 0.51388 0.0
C1214 C 0.16032 0.55383 0.50298 0.0
C1215 C 0.15878 0.53657 0.52273 0.0
H1216 H 0.59284 0.13531 0.08419 0.0
H1217 H 0.64427 0.15606 0.01278 0.0
H1218 H 0.56661 0.13854 0.04929 0.0
H1219 H 0.61796 0.1601 0.97773 0.0
H1220 H 0.55319 0.13161 0.9166 0.0
H1221 H 0.58316 0.13543 0.95109 0.0
H1222 H 0.55738 0.16283 0.02047 0.0
H1223 H 0.52652 0.1582 0.98596 0.0
C1224 C 0.59876 0.14088 0.06109 0.0
C1225 C 0.62072 0.14517 0.05131 0.0
C1226 C 0.58367 0.14297 0.04105 0.0
C1227 C 0.59004 0.14957 0.01058 0.0
C1228 C 0.6123 0.15463 0.00094 0.0
C1229 C 0.62745 0.15241 0.02106 0.0
C1230 C 0.55386 0.13862 0.93912 0.0
C1231 C 0.53715 0.14437 0.94852 0.0
C1232 C 0.57133 0.14102 0.95889 0.0
C1233 C 0.5728 0.14941 0.98867 0.0
C1234 C 0.55659 0.15595 0.99783 0.0
C1235 C 0.53892 0.15338 0.97802 0.0
H1236 H 0.49226 0.64568 0.51544 0.0
H1237 H 0.47476 0.58745 0.57485 0.0
H1238 H 0.46015 0.62022 0.4817 0.0
H1239 H 0.44359 0.56219 0.54109 0.0
H1240 H 0.37871 0.52195 0.4872 0.0
H1241 H 0.40624 0.55133 0.52242 0.0
H1242 H 0.44996 0.58979 0.44638 0.0
H1243 H 0.42233 0.56129 0.41147 0.0
C1244 C 0.48169 0.6275 0.52122 0.0
C1245 C 0.48614 0.61869 0.54787 0.0
C1246 C 0.46327 0.61286 0.50192 0.0
C1247 C 0.44907 0.58908 0.50872 0.0
C1248 C 0.45365 0.58043 0.53539 0.0
C1249 C 0.4718 0.59499 0.55468 0.0
C1250 C 0.39401 0.53687 0.47802 0.0
C1251 C 0.39835 0.53898 0.44648 0.0
C1252 C 0.40992 0.55366 0.49821 0.0
C1253 C 0.43057 0.57287 0.48733 0.0
C1254 C 0.43425 0.57546 0.45571 0.0
C1255 C 0.41837 0.55885 0.43561 0.0
H1256 H 0.85627 0.37144 0.98995 0.0
H1257 H 0.88103 0.42415 0.91986 0.0
H1258 H 0.8513 0.39756 0.02436 0.0
H1259 H 0.87696 0.45015 0.95414 0.0
H1260 H 0.85711 0.49103 0.01488 0.0
H1261 H 0.85236 0.45994 0.98074 0.0
H1262 H 0.87502 0.43157 0.0527 0.0
H1263 H 0.87884 0.46175 0.08681 0.0
C1264 C 0.86059 0.38849 0.98182 0.0
C1265 C 0.86919 0.39562 0.95214 0.0
C1266 C 0.85784 0.40353 0.00158 0.0
C1267 C 0.86377 0.42609 0.99213 0.0
C1268 C 0.87177 0.43286 0.96219 0.0
C1269 C 0.87435 0.41788 0.94251 0.0
C1270 C 0.86079 0.47799 0.02348 0.0
C1271 C 0.8686 0.47915 0.05356 0.0
C1272 C 0.85818 0.46018 0.00387 0.0
C1273 C 0.86348 0.44324 0.01382 0.0
C1274 C 0.87044 0.444 0.04422 0.0
C1275 C 0.87287 0.4616 0.06379 0.0
H1276 H 0.49027 0.84891 0.48565 0.0
H1277 H 0.4781 0.89459 0.42866 0.0
H1278 H 0.4582 0.84326 0.51883 0.0
H1279 H 0.44699 0.88964 0.46183 0.0
H1280 H 0.38092 0.86598 0.51191 0.0
H1281 H 0.40849 0.86353 0.47754 0.0
H1282 H 0.44848 0.86346 0.5551 0.0
H1283 H 0.42073 0.86494 0.58914 0.0
C1284 C 0.48092 0.85786 0.48036 0.0
C1285 C 0.48669 0.87209 0.45446 0.0
C1286 C 0.46252 0.85463 0.49929 0.0
C1287 C 0.44973 0.86576 0.49282 0.0
C1288 C 0.45587 0.88021 0.46712 0.0
C1289 C 0.47396 0.88324 0.44821 0.0
C1290 C 0.39537 0.86504 0.52158 0.0
C1291 C 0.39872 0.86605 0.5533 0.0
C1292 C 0.41131 0.86382 0.5019 0.0
C1293 C 0.43099 0.86367 0.5135 0.0
C1294 C 0.43355 0.86339 0.54524 0.0
C1295 C 0.41764 0.86449 0.56482 0.0
loop_
_geom_bond_atom_site_label_1
_geom_bond_atom_site_label_2
_geom_bond_distance
_geom_bond_site_symmetry_2
_ccdc_geom_bond_type
Co0 O1 2.216 . S
Co0 O2 2.091 . S
Co0 O4 2.004 . S
Co0 O10 2.021 . S
Co0 O12 2.137 . S
Co0 O13 2.244 . S
O1 Co0 2.216 . S
O1 C8 1.247 . S
O2 Co0 2.091 . S
O2 C8 1.261 . S
C3 O12 1.247 . S
C3 O13 1.272 . S
O4 Co0 2.004 . S
O4 C9 1.259 . S
Co5 O6 2.061 . S
Co5 O11 2.052 . S
Co5 O13 2.135 . S
O6 Co5 2.061 . S
O6 C9 1.235 . S
C7 O10 1.238 . S
C7 O11 1.241 . S
C8 O1 1.247 . S
C8 O2 1.261 . S
C9 O4 1.259 . S
C9 O6 1.235 . S
O10 Co0 2.021 . S
O10 C7 1.238 . S
O11 Co5 2.052 . S
O11 C7 1.241 . S
O12 Co0 2.137 . S
O12 C3 1.247 . S
O13 Co0 2.244 . S
O13 C3 1.272 . S
O13 Co5 2.135 . S
Co14 O15 2.216 . S
Co14 O16 2.091 . S
Co14 O18 2.004 . S
Co14 O24 2.021 . S
Co14 O26 2.137 . S
Co14 O27 2.244 . S
O15 Co14 2.216 . S
O15 C22 1.247 . S
O16 Co14 2.091 . S
O16 C22 1.261 . S
C17 O26 1.247 . S
C17 O27 1.272 . S
O18 Co14 2.004 . S
O18 C23 1.259 . S
Co19 O20 2.061 . S
Co19 O25 2.052 . S
Co19 O27 2.135 . S
O20 Co19 2.061 . S
O20 C23 1.235 . S
C21 O24 1.238 . S
C21 O25 1.241 . S
C22 O15 1.247 . S
C22 O16 1.261 . S
C23 O18 1.259 . S
C23 O20 1.235 . S
O24 Co14 2.021 . S
O24 C21 1.238 . S
O25 Co19 2.052 . S
O25 C21 1.241 . S
O26 Co14 2.137 . S
O26 C17 1.247 . S
O27 Co14 2.244 . S
O27 C17 1.272 . S
O27 Co19 2.135 . S
Co28 O29 2.216 . S
Co28 O30 2.091 . S
Co28 O32 2.004 . S
Co28 O38 2.021 . S
Co28 O40 2.137 . S
Co28 O41 2.244 . S
O29 Co28 2.216 . S
O29 C36 1.247 . S
O30 Co28 2.091 . S
O30 C36 1.261 . S
C31 O40 1.247 . S
C31 O41 1.272 . S
O32 Co28 2.004 . S
O32 C37 1.259 . S
Co33 O34 2.061 . S
Co33 O39 2.052 . S
Co33 O41 2.135 . S
O34 Co33 2.061 . S
O34 C37 1.235 . S
C35 O38 1.238 . S
C35 O39 1.241 . S
C36 O29 1.247 . S
C36 O30 1.261 . S
C37 O32 1.259 . S
C37 O34 1.235 . S
O38 Co28 2.021 . S
O38 C35 1.238 . S
O39 Co33 2.052 . S
O39 C35 1.241 . S
O40 Co28 2.137 . S
O40 C31 1.247 . S
O41 Co28 2.244 . S
O41 C31 1.272 . S
O41 Co33 2.135 . S
Co42 O43 2.216 . S
Co42 O44 2.091 . S
Co42 O46 2.004 . S
Co42 O52 2.021 . S
Co42 O54 2.137 . S
Co42 O55 2.244 . S
O43 Co42 2.216 . S
O43 C50 1.247 . S
O44 Co42 2.091 . S
O44 C50 1.261 . S
C45 O54 1.247 . S
C45 O55 1.272 . S
O46 Co42 2.004 . S
O46 C51 1.259 . S
Co47 O48 2.061 . S
Co47 O53 2.052 . S
Co47 O55 2.135 . S
O48 Co47 2.061 . S
O48 C51 1.235 . S
C49 O52 1.238 . S
C49 O53 1.241 . S
C50 O43 1.247 . S
C50 O44 1.261 . S
C51 O46 1.259 . S
C51 O48 1.235 . S
O52 Co42 2.021 . S
O52 C49 1.238 . S
O53 Co47 2.052 . S
O53 C49 1.241 . S
O54 Co42 2.137 . S
O54 C45 1.247 . S
O55 Co42 2.244 . S
O55 C45 1.272 . S
O55 Co47 2.135 . S
Co56 O57 2.216 . S
Co56 O58 2.091 . S
Co56 O60 2.004 . S
Co56 O66 2.021 . S
Co56 O68 2.137 . S
Co56 O69 2.244 . S
O57 Co56 2.216 . S
O57 C64 1.247 . S
O58 Co56 2.091 . S
O58 C64 1.261 . S
C59 O68 1.247 . S
C59 O69 1.272 . S
O60 Co56 2.004 . S
O60 C65 1.259 . S
Co61 O62 2.061 . S
Co61 O67 2.052 . S
Co61 O69 2.135 . S
O62 Co61 2.061 . S
O62 C65 1.235 . S
C63 O66 1.238 . S
C63 O67 1.241 . S
C64 O57 1.247 . S
C64 O58 1.261 . S
C65 O60 1.259 . S
C65 O62 1.235 . S
O66 Co56 2.021 . S
O66 C63 1.238 . S
O67 Co61 2.052 . S
O67 C63 1.241 . S
O68 Co56 2.137 . S
O68 C59 1.247 . S
O69 Co56 2.244 . S
O69 C59 1.272 . S
O69 Co61 2.135 . S
Co70 O71 2.216 . S
Co70 O72 2.091 . S
Co70 O74 2.004 . S
Co70 O80 2.021 . S
Co70 O82 2.137 . S
Co70 O83 2.244 . S
O71 Co70 2.216 . S
O71 C78 1.247 . S
O72 Co70 2.091 . S
O72 C78 1.261 . S
C73 O82 1.247 . S
C73 O83 1.272 . S
O74 Co70 2.004 . S
O74 C79 1.259 . S
Co75 O76 2.061 . S
Co75 O81 2.052 . S
Co75 O83 2.135 . S
O76 Co75 2.061 . S
O76 C79 1.235 . S
C77 O80 1.238 . S
C77 O81 1.241 . S
C78 O71 1.247 . S
C78 O72 1.261 . S
C79 O74 1.259 . S
C79 O76 1.235 . S
O80 Co70 2.021 . S
O80 C77 1.238 . S
O81 Co75 2.052 . S
O81 C77 1.241 . S
O82 Co70 2.137 . S
O82 C73 1.247 . S
O83 Co70 2.244 . S
O83 C73 1.272 . S
O83 Co75 2.135 . S
Co84 O85 2.216 . S
Co84 O86 2.091 . S
Co84 O88 2.004 . S
Co84 O94 2.021 . S
Co84 O96 2.137 . S
Co84 O97 2.244 . S
O85 Co84 2.216 . S
O85 C92 1.247 . S
O86 Co84 2.091 . S
O86 C92 1.261 . S
C87 O96 1.247 . S
C87 O97 1.272 . S
O88 Co84 2.004 . S
O88 C93 1.259 . S
Co89 O90 2.061 . S
Co89 O95 2.052 . S
Co89 O97 2.135 . S
O90 Co89 2.061 . S
O90 C93 1.235 . S
C91 O94 1.238 . S
C91 O95 1.241 . S
C92 O85 1.247 . S
C92 O86 1.261 . S
C93 O88 1.259 . S
C93 O90 1.235 . S
O94 Co84 2.021 . S
O94 C91 1.238 . S
O95 Co89 2.052 . S
O95 C91 1.241 . S
O96 Co84 2.137 . S
O96 C87 1.247 . S
O97 Co84 2.244 . S
O97 C87 1.272 . S
O97 Co89 2.135 . S
Co98 O99 2.216 . S
Co98 O100 2.091 . S
Co98 O102 2.004 . S
Co98 O108 2.021 . S
Co98 O110 2.137 . S
Co98 O111 2.244 . S
O99 Co98 2.216 . S
O99 C106 1.247 . S
O100 Co98 2.091 . S
O100 C106 1.261 . S
C101 O110 1.247 . S
C101 O111 1.272 . S
O102 Co98 2.004 . S
O102 C107 1.259 . S
Co103 O104 2.061 . S
Co103 O109 2.052 . S
Co103 O111 2.135 . S
O104 Co103 2.061 . S
O104 C107 1.235 . S
C105 O108 1.238 . S
C105 O109 1.241 . S
C106 O99 1.247 . S
C106 O100 1.261 . S
C107 O102 1.259 . S
C107 O104 1.235 . S
O108 Co98 2.021 . S
O108 C105 1.238 . S
O109 Co103 2.052 . S
O109 C105 1.241 . S
O110 Co98 2.137 . S
O110 C101 1.247 . S
O111 Co98 2.244 . S
O111 C101 1.272 . S
O111 Co103 2.135 . S
Co112 O113 2.216 . S
Co112 O114 2.091 . S
Co112 O116 2.004 . S
Co112 O122 2.021 . S
Co112 O124 2.137 . S
Co112 O125 2.244 . S
O113 Co112 2.216 . S
O113 C120 1.247 . S
O114 Co112 2.091 . S
O114 C120 1.261 . S
C115 O124 1.247 . S
C115 O125 1.272 . S
O116 Co112 2.004 . S
O116 C121 1.259 . S
Co117 O118 2.061 . S
Co117 O123 2.052 . S
Co117 O125 2.135 . S
O118 Co117 2.061 . S
O118 C121 1.235 . S
C119 O122 1.238 . S
C119 O123 1.241 . S
C120 O113 1.247 . S
C120 O114 1.261 . S
C121 O116 1.259 . S
C121 O118 1.235 . S
O122 Co112 2.021 . S
O122 C119 1.238 . S
O123 Co117 2.052 . S
O123 C119 1.241 . S
O124 Co112 2.137 . S
O124 C115 1.247 . S
O125 Co112 2.244 . S
O125 C115 1.272 . S
O125 Co117 2.135 . S
Co126 O127 2.216 . S
Co126 O128 2.091 . S
Co126 O130 2.004 . S
Co126 O136 2.021 . S
Co126 O138 2.137 . S
Co126 O139 2.244 . S
O127 Co126 2.216 . S
O127 C134 1.247 . S
O128 Co126 2.091 . S
O128 C134 1.261 . S
C129 O138 1.247 . S
C129 O139 1.272 . S
O130 Co126 2.004 . S
O130 C135 1.259 . S
Co131 O132 2.061 . S
Co131 O137 2.052 . S
Co131 O139 2.135 . S
O132 Co131 2.061 . S
O132 C135 1.235 . S
C133 O136 1.238 . S
C133 O137 1.241 . S
C134 O127 1.247 . S
C134 O128 1.261 . S
C135 O130 1.259 . S
C135 O132 1.235 . S
O136 Co126 2.021 . S
O136 C133 1.238 . S
O137 Co131 2.052 . S
O137 C133 1.241 . S
O138 Co126 2.137 . S
O138 C129 1.247 . S
O139 Co126 2.244 . S
O139 C129 1.272 . S
O139 Co131 2.135 . S
Co140 O141 2.216 . S
Co140 O142 2.091 . S
Co140 O144 2.004 . S
Co140 O150 2.021 . S
Co140 O152 2.137 . S
Co140 O153 2.244 . S
O141 Co140 2.216 . S
O141 C148 1.247 . S
O142 Co140 2.091 . S
O142 C148 1.261 . S
C143 O152 1.247 . S
C143 O153 1.272 . S
O144 Co140 2.004 . S
O144 C149 1.259 . S
Co145 O146 2.061 . S
Co145 O151 2.052 . S
Co145 O153 2.135 . S
O146 Co145 2.061 . S
O146 C149 1.235 . S
C147 O150 1.238 . S
C147 O151 1.241 . S
C148 O141 1.247 . S
C148 O142 1.261 . S
C149 O144 1.259 . S
C149 O146 1.235 . S
O150 Co140 2.021 . S
O150 C147 1.238 . S
O151 Co145 2.052 . S
O151 C147 1.241 . S
O152 Co140 2.137 . S
O152 C143 1.247 . S
O153 Co140 2.244 . S
O153 C143 1.272 . S
O153 Co145 2.135 . S
Co154 O155 2.216 . S
Co154 O156 2.091 . S
Co154 O158 2.004 . S
Co154 O164 2.021 . S
Co154 O166 2.137 . S
Co154 O167 2.244 . S
O155 Co154 2.216 . S
O155 C162 1.247 . S
O156 Co154 2.091 . S
O156 C162 1.261 . S
C157 O166 1.247 . S
C157 O167 1.272 . S
O158 Co154 2.004 . S
O158 C163 1.259 . S
Co159 O160 2.061 . S
Co159 O165 2.052 . S
Co159 O167 2.135 . S
O160 Co159 2.061 . S
O160 C163 1.235 . S
C161 O164 1.238 . S
C161 O165 1.241 . S
C162 O155 1.247 . S
C162 O156 1.261 . S
C163 O158 1.259 . S
C163 O160 1.235 . S
O164 Co154 2.021 . S
O164 C161 1.238 . S
O165 Co159 2.052 . S
O165 C161 1.241 . S
O166 Co154 2.137 . S
O166 C157 1.247 . S
O167 Co154 2.244 . S
O167 C157 1.272 . S
O167 Co159 2.135 . S
Co168 O169 2.216 . S
Co168 O170 2.091 . S
Co168 O172 2.004 . S
Co168 O178 2.021 . S
Co168 O180 2.137 . S
Co168 O181 2.244 . S
O169 Co168 2.216 . S
O169 C176 1.247 . S
O170 Co168 2.091 . S
O170 C176 1.261 . S
C171 O180 1.247 . S
C171 O181 1.272 . S
O172 Co168 2.004 . S
O172 C177 1.259 . S
Co173 O174 2.061 . S
Co173 O179 2.052 . S
Co173 O181 2.135 . S
O174 Co173 2.061 . S
O174 C177 1.235 . S
C175 O178 1.238 . S
C175 O179 1.241 . S
C176 O169 1.247 . S
C176 O170 1.261 . S
C177 O172 1.259 . S
C177 O174 1.235 . S
O178 Co168 2.021 . S
O178 C175 1.238 . S
O179 Co173 2.052 . S
O179 C175 1.241 . S
O180 Co168 2.137 . S
O180 C171 1.247 . S
O181 Co168 2.244 . S
O181 C171 1.272 . S
O181 Co173 2.135 . S
Co182 O183 2.216 . S
Co182 O184 2.091 . S
Co182 O186 2.004 . S
Co182 O192 2.021 . S
Co182 O194 2.137 . S
Co182 O195 2.244 . S
O183 Co182 2.216 . S
O183 C190 1.247 . S
O184 Co182 2.091 . S
O184 C190 1.261 . S
C185 O194 1.247 . S
C185 O195 1.272 . S
O186 Co182 2.004 . S
O186 C191 1.259 . S
Co187 O188 2.061 . S
Co187 O193 2.052 . S
Co187 O195 2.135 . S
O188 Co187 2.061 . S
O188 C191 1.235 . S
C189 O192 1.238 . S
C189 O193 1.241 . S
C190 O183 1.247 . S
C190 O184 1.261 . S
C191 O186 1.259 . S
C191 O188 1.235 . S
O192 Co182 2.021 . S
O192 C189 1.238 . S
O193 Co187 2.052 . S
O193 C189 1.241 . S
O194 Co182 2.137 . S
O194 C185 1.247 . S
O195 Co182 2.244 . S
O195 C185 1.272 . S
O195 Co187 2.135 . S
Co196 O197 2.216 . S
Co196 O198 2.091 . S
Co196 O200 2.004 . S
Co196 O206 2.021 . S
Co196 O208 2.137 . S
Co196 O209 2.244 . S
O197 Co196 2.216 . S
O197 C204 1.247 . S
O198 Co196 2.091 . S
O198 C204 1.261 . S
C199 O208 1.247 . S
C199 O209 1.272 . S
O200 Co196 2.004 . S
O200 C205 1.259 . S
Co201 O202 2.061 . S
Co201 O207 2.052 . S
Co201 O209 2.135 . S
O202 Co201 2.061 . S
O202 C205 1.235 . S
C203 O206 1.238 . S
C203 O207 1.241 . S
C204 O197 1.247 . S
C204 O198 1.261 . S
C205 O200 1.259 . S
C205 O202 1.235 . S
O206 Co196 2.021 . S
O206 C203 1.238 . S
O207 Co201 2.052 . S
O207 C203 1.241 . S
O208 Co196 2.137 . S
O208 C199 1.247 . S
O209 Co196 2.244 . S
O209 C199 1.272 . S
O209 Co201 2.135 . S
Co210 O211 2.216 . S
Co210 O212 2.091 . S
Co210 O214 2.004 . S
Co210 O220 2.021 . S
Co210 O222 2.137 . S
Co210 O223 2.244 . S
O211 Co210 2.216 . S
O211 C218 1.247 . S
O212 Co210 2.091 . S
O212 C218 1.261 . S
C213 O222 1.247 . S
C213 O223 1.272 . S
O214 Co210 2.004 . S
O214 C219 1.259 . S
Co215 O216 2.061 . S
Co215 O221 2.052 . S
Co215 O223 2.135 . S
O216 Co215 2.061 . S
O216 C219 1.235 . S
C217 O220 1.238 . S
C217 O221 1.241 . S
C218 O211 1.247 . S
C218 O212 1.261 . S
C219 O214 1.259 . S
C219 O216 1.235 . S
O220 Co210 2.021 . S
O220 C217 1.238 . S
O221 Co215 2.052 . S
O221 C217 1.241 . S
O222 Co210 2.137 . S
O222 C213 1.247 . S
O223 Co210 2.244 . S
O223 C213 1.272 . S
O223 Co215 2.135 . S
Co224 O225 2.216 . S
Co224 O226 2.091 . S
Co224 O228 2.004 . S
Co224 O234 2.021 . S
Co224 O236 2.137 . S
Co224 O237 2.244 . S
O225 Co224 2.216 . S
O225 C232 1.247 . S
O226 Co224 2.091 . S
O226 C232 1.261 . S
C227 O236 1.247 . S
C227 O237 1.272 . S
O228 Co224 2.004 . S
O228 C233 1.259 . S
Co229 O230 2.061 . S
Co229 O235 2.052 . S
Co229 O237 2.135 . S
O230 Co229 2.061 . S
O230 C233 1.235 . S
C231 O234 1.238 . S
C231 O235 1.241 . S
C232 O225 1.247 . S
C232 O226 1.261 . S
C233 O228 1.259 . S
C233 O230 1.235 . S
O234 Co224 2.021 . S
O234 C231 1.238 . S
O235 Co229 2.052 . S
O235 C231 1.241 . S
O236 Co224 2.137 . S
O236 C227 1.247 . S
O237 Co224 2.244 . S
O237 C227 1.272 . S
O237 Co229 2.135 . S
Co238 O239 2.216 . S
Co238 O240 2.091 . S
Co238 O242 2.004 . S
Co238 O248 2.021 . S
Co238 O250 2.137 . S
Co238 O251 2.244 . S
O239 Co238 2.216 . S
O239 C246 1.247 . S
O240 Co238 2.091 . S
O240 C246 1.261 . S
C241 O250 1.247 . S
C241 O251 1.272 . S
O242 Co238 2.004 . S
O242 C247 1.259 . S
Co243 O244 2.061 . S
Co243 O249 2.052 . S
Co243 O251 2.135 . S
O244 Co243 2.061 . S
O244 C247 1.235 . S
C245 O248 1.238 . S
C245 O249 1.241 . S
C246 O239 1.247 . S
C246 O240 1.261 . S
C247 O242 1.259 . S
C247 O244 1.235 . S
O248 Co238 2.021 . S
O248 C245 1.238 . S
O249 Co243 2.052 . S
O249 C245 1.241 . S
O250 Co238 2.137 . S
O250 C241 1.247 . S
O251 Co238 2.244 . S
O251 C241 1.272 . S
O251 Co243 2.135 . S
Co252 O253 2.216 . S
Co252 O254 2.091 . S
Co252 O256 2.004 . S
Co252 O262 2.021 . S
Co252 O264 2.137 . S
Co252 O265 2.244 . S
O253 Co252 2.216 . S
O253 C260 1.247 . S
O254 Co252 2.091 . S
O254 C260 1.261 . S
C255 O264 1.247 . S
C255 O265 1.272 . S
O256 Co252 2.004 . S
O256 C261 1.259 . S
Co257 O258 2.061 . S
Co257 O263 2.052 . S
Co257 O265 2.135 . S
O258 Co257 2.061 . S
O258 C261 1.235 . S
C259 O262 1.238 . S
C259 O263 1.241 . S
C260 O253 1.247 . S
C260 O254 1.261 . S
C261 O256 1.259 . S
C261 O258 1.235 . S
O262 Co252 2.021 . S
O262 C259 1.238 . S
O263 Co257 2.052 . S
O263 C259 1.241 . S
O264 Co252 2.137 . S
O264 C255 1.247 . S
O265 Co252 2.244 . S
O265 C255 1.272 . S
O265 Co257 2.135 . S
Co266 O267 2.216 . S
Co266 O268 2.091 . S
Co266 O270 2.004 . S
Co266 O276 2.021 . S
Co266 O278 2.137 . S
Co266 O279 2.244 . S
O267 Co266 2.216 . S
O267 C274 1.247 . S
O268 Co266 2.091 . S
O268 C274 1.261 . S
C269 O278 1.247 . S
C269 O279 1.272 . S
O270 Co266 2.004 . S
O270 C275 1.259 . S
Co271 O272 2.061 . S
Co271 O277 2.052 . S
Co271 O279 2.135 . S
O272 Co271 2.061 . S
O272 C275 1.235 . S
C273 O276 1.238 . S
C273 O277 1.241 . S
C274 O267 1.247 . S
C274 O268 1.261 . S
C275 O270 1.259 . S
C275 O272 1.235 . S
O276 Co266 2.021 . S
O276 C273 1.238 . S
O277 Co271 2.052 . S
O277 C273 1.241 . S
O278 Co266 2.137 . S
O278 C269 1.247 . S
O279 Co266 2.244 . S
O279 C269 1.272 . S
O279 Co271 2.135 . S
Co280 O281 2.216 . S
Co280 O282 2.091 . S
Co280 O284 2.004 . S
Co280 O290 2.021 . S
Co280 O292 2.137 . S
Co280 O293 2.244 . S
O281 Co280 2.216 . S
O281 C288 1.247 . S
O282 Co280 2.091 . S
O282 C288 1.261 . S
C283 O292 1.247 . S
C283 O293 1.272 . S
O284 Co280 2.004 . S
O284 C289 1.259 . S
Co285 O286 2.061 . S
Co285 O291 2.052 . S
Co285 O293 2.135 . S
O286 Co285 2.061 . S
O286 C289 1.235 . S
C287 O290 1.238 . S
C287 O291 1.241 . S
C288 O281 1.247 . S
C288 O282 1.261 . S
C289 O284 1.259 . S
C289 O286 1.235 . S
O290 Co280 2.021 . S
O290 C287 1.238 . S
O291 Co285 2.052 . S
O291 C287 1.241 . S
O292 Co280 2.137 . S
O292 C283 1.247 . S
O293 Co280 2.244 . S
O293 C283 1.272 . S
O293 Co285 2.135 . S
Co294 O295 2.216 . S
Co294 O296 2.091 . S
Co294 O298 2.004 . S
Co294 O304 2.021 . S
Co294 O306 2.137 . S
Co294 O307 2.244 . S
O295 Co294 2.216 . S
O295 C302 1.247 . S
O296 Co294 2.091 . S
O296 C302 1.261 . S
C297 O306 1.247 . S
C297 O307 1.272 . S
O298 Co294 2.004 . S
O298 C303 1.259 . S
Co299 O300 2.061 . S
Co299 O305 2.052 . S
Co299 O307 2.135 . S
O300 Co299 2.061 . S
O300 C303 1.235 . S
C301 O304 1.238 . S
C301 O305 1.241 . S
C302 O295 1.247 . S
C302 O296 1.261 . S
C303 O298 1.259 . S
C303 O300 1.235 . S
O304 Co294 2.021 . S
O304 C301 1.238 . S
O305 Co299 2.052 . S
O305 C301 1.241 . S
O306 Co294 2.137 . S
O306 C297 1.247 . S
O307 Co294 2.244 . S
O307 C297 1.272 . S
O307 Co299 2.135 . S
Co308 O309 2.216 . S
Co308 O310 2.091 . S
Co308 O312 2.004 . S
Co308 O318 2.021 . S
Co308 O320 2.137 . S
Co308 O321 2.244 . S
O309 Co308 2.216 . S
O309 C316 1.247 . S
O310 Co308 2.091 . S
O310 C316 1.261 . S
C311 O320 1.247 . S
C311 O321 1.272 . S
O312 Co308 2.004 . S
O312 C317 1.259 . S
Co313 O314 2.061 . S
Co313 O319 2.052 . S
Co313 O321 2.135 . S
O314 Co313 2.061 . S
O314 C317 1.235 . S
C315 O318 1.238 . S
C315 O319 1.241 . S
C316 O309 1.247 . S
C316 O310 1.261 . S
C317 O312 1.259 . S
C317 O314 1.235 . S
O318 Co308 2.021 . S
O318 C315 1.238 . S
O319 Co313 2.052 . S
O319 C315 1.241 . S
O320 Co308 2.137 . S
O320 C311 1.247 . S
O321 Co308 2.244 . S
O321 C311 1.272 . S
O321 Co313 2.135 . S
Co322 O323 2.216 . S
Co322 O324 2.091 . S
Co322 O326 2.004 . S
Co322 O332 2.021 . S
Co322 O334 2.137 . S
Co322 O335 2.244 . S
O323 Co322 2.216 . S
O323 C330 1.247 . S
O324 Co322 2.091 . S
O324 C330 1.261 . S
C325 O334 1.247 . S
C325 O335 1.272 . S
O326 Co322 2.004 . S
O326 C331 1.259 . S
Co327 O328 2.061 . S
Co327 O333 2.052 . S
Co327 O335 2.135 . S
O328 Co327 2.061 . S
O328 C331 1.235 . S
C329 O332 1.238 . S
C329 O333 1.241 . S
C330 O323 1.247 . S
C330 O324 1.261 . S
C331 O326 1.259 . S
C331 O328 1.235 . S
O332 Co322 2.021 . S
O332 C329 1.238 . S
O333 Co327 2.052 . S
O333 C329 1.241 . S
O334 Co322 2.137 . S
O334 C325 1.247 . S
O335 Co322 2.244 . S
O335 C325 1.272 . S
O335 Co327 2.135 . S
H336 C344 0.950 . S
H337 C349 0.950 . S
H338 C346 0.950 . S
H339 C348 0.950 . S
H340 C350 0.950 . S
H341 C352 0.950 . S
H342 C354 0.950 . S
H343 C355 0.950 . S
C344 H336 0.950 . S
C344 C345 1.386 . S
C344 C346 1.391 . S
C345 C344 1.386 . S
C345 C349 1.393 . S
C346 H338 0.950 . S
C346 C344 1.391 . S
C346 C347 1.400 . S
C347 C346 1.400 . S
C347 C348 1.398 . S
C347 C353 1.491 . S
C348 H339 0.950 . S
C348 C347 1.398 . S
C348 C349 1.391 . S
C349 H337 0.950 . S
C349 C345 1.393 . S
C349 C348 1.391 . S
C350 H340 0.950 . S
C350 C351 1.386 . S
C350 C352 1.391 . S
C351 C350 1.386 . S
C351 C355 1.393 . S
C352 H341 0.950 . S
C352 C350 1.391 . S
C352 C353 1.400 . S
C353 C347 1.491 . S
C353 C352 1.400 . S
C353 C354 1.398 . S
C354 H342 0.950 . S
C354 C353 1.398 . S
C354 C355 1.391 . S
C355 H343 0.950 . S
C355 C351 1.393 . S
C355 C354 1.391 . S
H356 C364 0.950 . S
H357 C369 0.950 . S
H358 C366 0.950 . S
H359 C368 0.950 . S
H360 C370 0.950 . S
H361 C372 0.950 . S
H362 C374 0.950 . S
H363 C375 0.950 . S
C364 H356 0.950 . S
C364 C365 1.386 . S
C364 C366 1.391 . S
C365 C364 1.386 . S
C365 C369 1.393 . S
C366 H358 0.950 . S
C366 C364 1.391 . S
C366 C367 1.400 . S
C367 C366 1.400 . S
C367 C368 1.398 . S
C367 C373 1.491 . S
C368 H359 0.950 . S
C368 C367 1.398 . S
C368 C369 1.391 . S
C369 H357 0.950 . S
C369 C365 1.393 . S
C369 C368 1.391 . S
C370 H360 0.950 . S
C370 C371 1.386 . S
C370 C372 1.391 . S
C371 C370 1.386 . S
C371 C375 1.393 . S
C372 H361 0.950 . S
C372 C370 1.391 . S
C372 C373 1.400 . S
C373 C367 1.491 . S
C373 C372 1.400 . S
C373 C374 1.398 . S
C374 H362 0.950 . S
C374 C373 1.398 . S
C374 C375 1.391 . S
C375 H363 0.950 . S
C375 C371 1.393 . S
C375 C374 1.391 . S
H376 C384 0.950 . S
H377 C389 0.950 . S
H378 C386 0.950 . S
H379 C388 0.950 . S
H380 C390 0.950 . S
H381 C392 0.950 . S
H382 C394 0.950 . S
H383 C395 0.950 . S
C384 H376 0.950 . S
C384 C385 1.386 . S
C384 C386 1.391 . S
C385 C384 1.386 . S
C385 C389 1.393 . S
C386 H378 0.950 . S
C386 C384 1.391 . S
C386 C387 1.400 . S
C387 C386 1.400 . S
C387 C388 1.398 . S
C387 C393 1.491 . S
C388 H379 0.950 . S
C388 C387 1.398 . S
C388 C389 1.391 . S
C389 H377 0.950 . S
C389 C385 1.393 . S
C389 C388 1.391 . S
C390 H380 0.950 . S
C390 C391 1.386 . S
C390 C392 1.391 . S
C391 C390 1.386 . S
C391 C395 1.393 . S
C392 H381 0.950 . S
C392 C390 1.391 . S
C392 C393 1.400 . S
C393 C387 1.491 . S
C393 C392 1.400 . S
C393 C394 1.398 . S
C394 H382 0.950 . S
C394 C393 1.398 . S
C394 C395 1.391 . S
C395 H383 0.950 . S
C395 C391 1.393 . S
C395 C394 1.391 . S
H396 C404 0.950 . S
H397 C409 0.950 . S
H398 C406 0.950 . S
H399 C408 0.950 . S
H400 C410 0.950 . S
H401 C412 0.950 . S
H402 C414 0.950 . S
H403 C415 0.950 . S
C404 H396 0.950 . S
C404 C405 1.386 . S
C404 C406 1.391 . S
C405 C404 1.386 . S
C405 C409 1.393 . S
C406 H398 0.950 . S
C406 C404 1.391 . S
C406 C407 1.400 . S
C407 C406 1.400 . S
C407 C408 1.398 . S
C407 C413 1.491 . S
C408 H399 0.950 . S
C408 C407 1.398 . S
C408 C409 1.391 . S
C409 H397 0.950 . S
C409 C405 1.393 . S
C409 C408 1.391 . S
C410 H400 0.950 . S
C410 C411 1.386 . S
C410 C412 1.391 . S
C411 C410 1.386 . S
C411 C415 1.393 . S
C412 H401 0.950 . S
C412 C410 1.391 . S
C412 C413 1.400 . S
C413 C407 1.491 . S
C413 C412 1.400 . S
C413 C414 1.398 . S
C414 H402 0.950 . S
C414 C413 1.398 . S
C414 C415 1.391 . S
C415 H403 0.950 . S
C415 C411 1.393 . S
C415 C414 1.391 . S
H416 C424 0.950 . S
H417 C429 0.950 . S
H418 C426 0.950 . S
H419 C428 0.950 . S
H420 C430 0.950 . S
H421 C432 0.950 . S
H422 C434 0.950 . S
H423 C435 0.950 . S
C424 H416 0.950 . S
C424 C425 1.386 . S
C424 C426 1.391 . S
C425 C424 1.386 . S
C425 C429 1.393 . S
C426 H418 0.950 . S
C426 C424 1.391 . S
C426 C427 1.400 . S
C427 C426 1.400 . S
C427 C428 1.398 . S
C427 C433 1.491 . S
C428 H419 0.950 . S
C428 C427 1.398 . S
C428 C429 1.391 . S
C429 H417 0.950 . S
C429 C425 1.393 . S
C429 C428 1.391 . S
C430 H420 0.950 . S
C430 C431 1.386 . S
C430 C432 1.391 . S
C431 C430 1.386 . S
C431 C435 1.393 . S
C432 H421 0.950 . S
C432 C430 1.391 . S
C432 C433 1.400 . S
C433 C427 1.491 . S
C433 C432 1.400 . S
C433 C434 1.398 . S
C434 H422 0.950 . S
C434 C433 1.398 . S
C434 C435 1.391 . S
C435 H423 0.950 . S
C435 C431 1.393 . S
C435 C434 1.391 . S
H436 C444 0.950 . S
H437 C449 0.950 . S
H438 C446 0.950 . S
H439 C448 0.950 . S
H440 C450 0.950 . S
H441 C452 0.950 . S
H442 C454 0.950 . S
H443 C455 0.950 . S
C444 H436 0.950 . S
C444 C445 1.386 . S
C444 C446 1.391 . S
C445 C444 1.386 . S
C445 C449 1.393 . S
C446 H438 0.950 . S
C446 C444 1.391 . S
C446 C447 1.400 . S
C447 C446 1.400 . S
C447 C448 1.398 . S
C447 C453 1.491 . S
C448 H439 0.950 . S
C448 C447 1.398 . S
C448 C449 1.391 . S
C449 H437 0.950 . S
C449 C445 1.393 . S
C449 C448 1.391 . S
C450 H440 0.950 . S
C450 C451 1.386 . S
C450 C452 1.391 . S
C451 C450 1.386 . S
C451 C455 1.393 . S
C452 H441 0.950 . S
C452 C450 1.391 . S
C452 C453 1.400 . S
C453 C447 1.491 . S
C453 C452 1.400 . S
C453 C454 1.398 . S
C454 H442 0.950 . S
C454 C453 1.398 . S
C454 C455 1.391 . S
C455 H443 0.950 . S
C455 C451 1.393 . S
C455 C454 1.391 . S
H456 C464 0.950 . S
H457 C469 0.950 . S
H458 C466 0.950 . S
H459 C468 0.950 . S
H460 C470 0.950 . S
H461 C472 0.950 . S
H462 C474 0.950 . S
H463 C475 0.950 . S
C464 H456 0.950 . S
C464 C465 1.386 . S
C464 C466 1.391 . S
C465 C464 1.386 . S
C465 C469 1.393 . S
C466 H458 0.950 . S
C466 C464 1.391 . S
C466 C467 1.400 . S
C467 C466 1.400 . S
C467 C468 1.398 . S
C467 C473 1.491 . S
C468 H459 0.950 . S
C468 C467 1.398 . S
C468 C469 1.391 . S
C469 H457 0.950 . S
C469 C465 1.393 . S
C469 C468 1.391 . S
C470 H460 0.950 . S
C470 C471 1.386 . S
C470 C472 1.391 . S
C471 C470 1.386 . S
C471 C475 1.393 . S
C472 H461 0.950 . S
C472 C470 1.391 . S
C472 C473 1.400 . S
C473 C467 1.491 . S
C473 C472 1.400 . S
C473 C474 1.398 . S
C474 H462 0.950 . S
C474 C473 1.398 . S
C474 C475 1.391 . S
C475 H463 0.950 . S
C475 C471 1.393 . S
C475 C474 1.391 . S
H476 C484 0.950 . S
H477 C489 0.950 . S
H478 C486 0.950 . S
H479 C488 0.950 . S
H480 C490 0.950 . S
H481 C492 0.950 . S
H482 C494 0.950 . S
H483 C495 0.950 . S
C484 H476 0.950 . S
C484 C485 1.386 . S
C484 C486 1.391 . S
C485 C484 1.386 . S
C485 C489 1.393 . S
C486 H478 0.950 . S
C486 C484 1.391 . S
C486 C487 1.400 . S
C487 C486 1.400 . S
C487 C488 1.398 . S
C487 C493 1.491 . S
C488 H479 0.950 . S
C488 C487 1.398 . S
C488 C489 1.391 . S
C489 H477 0.950 . S
C489 C485 1.393 . S
C489 C488 1.391 . S
C490 H480 0.950 . S
C490 C491 1.386 . S
C490 C492 1.391 . S
C491 C490 1.386 . S
C491 C495 1.393 . S
C492 H481 0.950 . S
C492 C490 1.391 . S
C492 C493 1.400 . S
C493 C487 1.491 . S
C493 C492 1.400 . S
C493 C494 1.398 . S
C494 H482 0.950 . S
C494 C493 1.398 . S
C494 C495 1.391 . S
C495 H483 0.950 . S
C495 C491 1.393 . S
C495 C494 1.391 . S
H496 C504 0.950 . S
H497 C509 0.950 . S
H498 C506 0.950 . S
H499 C508 0.950 . S
H500 C510 0.950 . S
H501 C512 0.950 . S
H502 C514 0.950 . S
H503 C515 0.950 . S
C504 H496 0.950 . S
C504 C505 1.386 . S
C504 C506 1.391 . S
C505 C504 1.386 . S
C505 C509 1.393 . S
C506 H498 0.950 . S
C506 C504 1.391 . S
C506 C507 1.400 . S
C507 C506 1.400 . S
C507 C508 1.398 . S
C507 C513 1.491 . S
C508 H499 0.950 . S
C508 C507 1.398 . S
C508 C509 1.391 . S
C509 H497 0.950 . S
C509 C505 1.393 . S
C509 C508 1.391 . S
C510 H500 0.950 . S
C510 C511 1.386 . S
C510 C512 1.391 . S
C511 C510 1.386 . S
C511 C515 1.393 . S
C512 H501 0.950 . S
C512 C510 1.391 . S
C512 C513 1.400 . S
C513 C507 1.491 . S
C513 C512 1.400 . S
C513 C514 1.398 . S
C514 H502 0.950 . S
C514 C513 1.398 . S
C514 C515 1.391 . S
C515 H503 0.950 . S
C515 C511 1.393 . S
C515 C514 1.391 . S
H516 C524 0.950 . S
H517 C529 0.950 . S
H518 C526 0.950 . S
H519 C528 0.950 . S
H520 C530 0.950 . S
H521 C532 0.950 . S
H522 C534 0.950 . S
H523 C535 0.950 . S
C524 H516 0.950 . S
C524 C525 1.386 . S
C524 C526 1.391 . S
C525 C524 1.386 . S
C525 C529 1.393 . S
C526 H518 0.950 . S
C526 C524 1.391 . S
C526 C527 1.400 . S
C527 C526 1.400 . S
C527 C528 1.398 . S
C527 C533 1.491 . S
C528 H519 0.950 . S
C528 C527 1.398 . S
C528 C529 1.391 . S
C529 H517 0.950 . S
C529 C525 1.393 . S
C529 C528 1.391 . S
C530 H520 0.950 . S
C530 C531 1.386 . S
C530 C532 1.391 . S
C531 C530 1.386 . S
C531 C535 1.393 . S
C532 H521 0.950 . S
C532 C530 1.391 . S
C532 C533 1.400 . S
C533 C527 1.491 . S
C533 C532 1.400 . S
C533 C534 1.398 . S
C534 H522 0.950 . S
C534 C533 1.398 . S
C534 C535 1.391 . S
C535 H523 0.950 . S
C535 C531 1.393 . S
C535 C534 1.391 . S
H536 C544 0.950 . S
H537 C549 0.950 . S
H538 C546 0.950 . S
H539 C548 0.950 . S
H540 C550 0.950 . S
H541 C552 0.950 . S
H542 C554 0.950 . S
H543 C555 0.950 . S
C544 H536 0.950 . S
C544 C545 1.386 . S
C544 C546 1.391 . S
C545 C544 1.386 . S
C545 C549 1.393 . S
C546 H538 0.950 . S
C546 C544 1.391 . S
C546 C547 1.400 . S
C547 C546 1.400 . S
C547 C548 1.398 . S
C547 C553 1.491 . S
C548 H539 0.950 . S
C548 C547 1.398 . S
C548 C549 1.391 . S
C549 H537 0.950 . S
C549 C545 1.393 . S
C549 C548 1.391 . S
C550 H540 0.950 . S
C550 C551 1.386 . S
C550 C552 1.391 . S
C551 C550 1.386 . S
C551 C555 1.393 . S
C552 H541 0.950 . S
C552 C550 1.391 . S
C552 C553 1.400 . S
C553 C547 1.491 . S
C553 C552 1.400 . S
C553 C554 1.398 . S
C554 H542 0.950 . S
C554 C553 1.398 . S
C554 C555 1.391 . S
C555 H543 0.950 . S
C555 C551 1.393 . S
C555 C554 1.391 . S
H556 C564 0.950 . S
H557 C569 0.950 . S
H558 C566 0.950 . S
H559 C568 0.950 . S
H560 C570 0.950 . S
H561 C572 0.950 . S
H562 C574 0.950 . S
H563 C575 0.950 . S
C564 H556 0.950 . S
C564 C565 1.386 . S
C564 C566 1.391 . S
C565 C564 1.386 . S
C565 C569 1.393 . S
C566 H558 0.950 . S
C566 C564 1.391 . S
C566 C567 1.400 . S
C567 C566 1.400 . S
C567 C568 1.398 . S
C567 C573 1.491 . S
C568 H559 0.950 . S
C568 C567 1.398 . S
C568 C569 1.391 . S
C569 H557 0.950 . S
C569 C565 1.393 . S
C569 C568 1.391 . S
C570 H560 0.950 . S
C570 C571 1.386 . S
C570 C572 1.391 . S
C571 C570 1.386 . S
C571 C575 1.393 . S
C572 H561 0.950 . S
C572 C570 1.391 . S
C572 C573 1.400 . S
C573 C567 1.491 . S
C573 C572 1.400 . S
C573 C574 1.398 . S
C574 H562 0.950 . S
C574 C573 1.398 . S
C574 C575 1.391 . S
C575 H563 0.950 . S
C575 C571 1.393 . S
C575 C574 1.391 . S
H576 C584 0.950 . S
H577 C589 0.935 1_554 S
H578 C586 0.950 . S
H579 C588 0.950 . S
H580 C590 0.950 . S
H581 C592 0.950 . S
H582 C594 0.950 . S
H583 C595 0.935 1_556 S
C584 H576 0.950 . S
C584 C585 1.386 . S
C584 C586 1.391 . S
C585 C584 1.386 . S
C585 C589 1.393 . S
C586 H578 0.950 . S
C586 C584 1.391 . S
C586 C587 1.400 . S
C587 C586 1.400 . S
C587 C588 1.398 1_556 S
C587 C593 1.491 1_556 S
C588 H579 0.950 . S
C588 C587 1.398 1_554 S
C588 C589 1.391 1_554 S
C589 H577 0.935 1_556 S
C589 C585 1.393 . S
C589 C588 1.391 1_556 S
C590 H580 0.950 . S
C590 C591 1.386 . S
C590 C592 1.391 . S
C591 C590 1.386 . S
C591 C595 1.393 . S
C592 H581 0.950 . S
C592 C590 1.391 . S
C592 C593 1.400 . S
C593 C587 1.491 1_554 S
C593 C592 1.400 . S
C593 C594 1.398 1_554 S
C594 H582 0.950 . S
C594 C593 1.398 1_556 S
C594 C595 1.391 1_556 S
C595 H583 0.935 1_554 S
C595 C591 1.393 . S
C595 C594 1.391 1_554 S
H596 C604 0.950 . S
H597 C609 0.950 . S
H598 C606 0.950 . S
H599 C608 0.950 . S
H600 C610 0.950 . S
H601 C612 0.950 . S
H602 C614 0.950 . S
H603 C615 0.950 . S
C604 H596 0.950 . S
C604 C605 1.386 . S
C604 C606 1.391 . S
C605 C604 1.386 . S
C605 C609 1.393 . S
C606 H598 0.950 . S
C606 C604 1.391 . S
C606 C607 1.400 . S
C607 C606 1.400 . S
C607 C608 1.398 . S
C607 C613 1.491 . S
C608 H599 0.950 . S
C608 C607 1.398 . S
C608 C609 1.391 . S
C609 H597 0.950 . S
C609 C605 1.393 . S
C609 C608 1.391 . S
C610 H600 0.950 . S
C610 C611 1.386 . S
C610 C612 1.391 . S
C611 C610 1.386 . S
C611 C615 1.393 . S
C612 H601 0.950 . S
C612 C610 1.391 . S
C612 C613 1.400 . S
C613 C607 1.491 . S
C613 C612 1.400 . S
C613 C614 1.398 . S
C614 H602 0.950 . S
C614 C613 1.398 . S
C614 C615 1.391 . S
C615 H603 0.950 . S
C615 C611 1.393 . S
C615 C614 1.391 . S
H616 C624 0.950 . S
H617 C629 0.950 . S
H618 C626 0.950 . S
H619 C628 0.950 . S
H620 C630 0.950 . S
H621 C632 0.950 . S
H622 C634 0.950 . S
H623 C635 0.950 . S
C624 H616 0.950 . S
C624 C625 1.386 . S
C624 C626 1.391 . S
C625 C624 1.386 . S
C625 C629 1.393 . S
C626 H618 0.950 . S
C626 C624 1.391 . S
C626 C627 1.400 . S
C627 C626 1.400 . S
C627 C628 1.398 1_554 S
C627 C633 1.491 1_554 S
C628 H619 0.950 . S
C628 C627 1.398 1_556 S
C628 C629 1.391 1_556 S
C629 H617 0.950 . S
C629 C625 1.393 . S
C629 C628 1.391 1_554 S
C630 H620 0.950 . S
C630 C631 1.386 . S
C630 C632 1.391 . S
C631 C630 1.386 . S
C631 C635 1.393 . S
C632 H621 0.950 . S
C632 C630 1.391 . S
C632 C633 1.400 . S
C633 C627 1.491 1_556 S
C633 C632 1.400 . S
C633 C634 1.398 1_556 S
C634 H622 0.950 . S
C634 C633 1.398 1_554 S
C634 C635 1.391 1_554 S
C635 H623 0.950 . S
C635 C631 1.393 . S
C635 C634 1.391 1_556 S
H636 C644 0.950 . S
H637 C649 0.950 . S
H638 C646 0.950 . S
H639 C648 0.950 . S
H640 C650 0.950 . S
H641 C652 0.950 . S
H642 C654 0.950 . S
H643 C655 0.950 . S
C644 H636 0.950 . S
C644 C645 1.386 . S
C644 C646 1.391 . S
C645 C644 1.386 . S
C645 C649 1.393 . S
C646 H638 0.950 . S
C646 C644 1.391 . S
C646 C647 1.400 . S
C647 C646 1.400 . S
C647 C648 1.398 . S
C647 C653 1.491 . S
C648 H639 0.950 . S
C648 C647 1.398 . S
C648 C649 1.391 . S
C649 H637 0.950 . S
C649 C645 1.393 . S
C649 C648 1.391 . S
C650 H640 0.950 . S
C650 C651 1.386 . S
C650 C652 1.391 . S
C651 C650 1.386 . S
C651 C655 1.393 . S
C652 H641 0.950 . S
C652 C650 1.391 . S
C652 C653 1.400 . S
C653 C647 1.491 . S
C653 C652 1.400 . S
C653 C654 1.398 . S
C654 H642 0.950 . S
C654 C653 1.398 . S
C654 C655 1.391 . S
C655 H643 0.950 . S
C655 C651 1.393 . S
C655 C654 1.391 . S
H656 C664 0.950 . S
H657 C669 0.950 . S
H658 C666 0.950 1_554 S
H659 C668 0.950 . S
H660 C670 0.950 . S
H661 C672 0.950 1_556 S
H662 C674 0.950 . S
H663 C675 0.950 . S
C664 H656 0.950 . S
C664 C665 1.386 . S
C664 C666 1.391 . S
C665 C664 1.386 . S
C665 C669 1.393 . S
C666 H658 0.950 1_556 S
C666 C664 1.391 . S
C666 C667 1.400 . S
C667 C666 1.400 . S
C667 C668 1.398 . S
C667 C673 1.491 1_556 S
C668 H659 0.950 . S
C668 C667 1.398 . S
C668 C669 1.391 . S
C669 H657 0.950 . S
C669 C665 1.393 . S
C669 C668 1.391 . S
C670 H660 0.950 . S
C670 C671 1.386 . S
C670 C672 1.391 . S
C671 C670 1.386 . S
C671 C675 1.393 . S
C672 H661 0.950 1_554 S
C672 C670 1.391 . S
C672 C673 1.400 . S
C673 C667 1.491 1_554 S
C673 C672 1.400 . S
C673 C674 1.398 . S
C674 H662 0.950 . S
C674 C673 1.398 . S
C674 C675 1.391 . S
C675 H663 0.950 . S
C675 C671 1.393 . S
C675 C674 1.391 . S
H676 C684 0.950 . S
H677 C689 0.950 . S
H678 C686 0.950 . S
H679 C688 0.950 . S
H680 C690 0.950 . S
H681 C692 0.950 . S
H682 C694 0.950 . S
H683 C695 0.950 . S
C684 H676 0.950 . S
C684 C685 1.386 . S
C684 C686 1.391 . S
C685 C684 1.386 . S
C685 C689 1.393 . S
C686 H678 0.950 . S
C686 C684 1.391 . S
C686 C687 1.400 . S
C687 C686 1.400 . S
C687 C688 1.398 . S
C687 C693 1.491 . S
C688 H679 0.950 . S
C688 C687 1.398 . S
C688 C689 1.391 . S
C689 H677 0.950 . S
C689 C685 1.393 . S
C689 C688 1.391 . S
C690 H680 0.950 . S
C690 C691 1.386 . S
C690 C692 1.391 . S
C691 C690 1.386 . S
C691 C695 1.393 . S
C692 H681 0.950 . S
C692 C690 1.391 . S
C692 C693 1.400 . S
C693 C687 1.491 . S
C693 C692 1.400 . S
C693 C694 1.398 . S
C694 H682 0.950 . S
C694 C693 1.398 . S
C694 C695 1.391 . S
C695 H683 0.950 . S
C695 C691 1.393 . S
C695 C694 1.391 . S
H696 C704 0.950 . S
H697 C709 0.950 . S
H698 C706 0.950 . S
H699 C708 0.950 . S
H700 C710 0.950 . S
H701 C712 0.950 . S
H702 C714 0.950 . S
H703 C715 0.950 . S
C704 H696 0.950 . S
C704 C705 1.386 . S
C704 C706 1.391 1_554 S
C705 C704 1.386 . S
C705 C709 1.393 . S
C706 H698 0.950 . S
C706 C704 1.391 1_556 S
C706 C707 1.400 1_556 S
C707 C706 1.400 1_554 S
C707 C708 1.398 . S
C707 C713 1.491 1_554 S
C708 H699 0.950 . S
C708 C707 1.398 . S
C708 C709 1.391 . S
C709 H697 0.950 . S
C709 C705 1.393 . S
C709 C708 1.391 . S
C710 H700 0.950 . S
C710 C711 1.386 . S
C710 C712 1.391 1_556 S
C711 C710 1.386 . S
C711 C715 1.393 . S
C712 H701 0.950 . S
C712 C710 1.391 1_554 S
C712 C713 1.400 1_554 S
C713 C707 1.491 1_556 S
C713 C712 1.400 1_556 S
C713 C714 1.398 . S
C714 H702 0.950 . S
C714 C713 1.398 . S
C714 C715 1.391 . S
C715 H703 0.950 . S
C715 C711 1.393 . S
C715 C714 1.391 . S
H716 C724 0.950 . S
H717 C729 0.950 . S
H718 C726 0.950 . S
H719 C728 0.950 . S
H720 C730 0.950 . S
H721 C732 0.950 . S
H722 C734 0.950 . S
H723 C735 0.950 . S
C724 H716 0.950 . S
C724 C725 1.386 . S
C724 C726 1.391 . S
C725 C724 1.386 . S
C725 C729 1.393 . S
C726 H718 0.950 . S
C726 C724 1.391 . S
C726 C727 1.400 . S
C727 C726 1.400 . S
C727 C728 1.398 . S
C727 C733 1.491 . S
C728 H719 0.950 . S
C728 C727 1.398 . S
C728 C729 1.391 . S
C729 H717 0.950 . S
C729 C725 1.393 . S
C729 C728 1.391 . S
C730 H720 0.950 . S
C730 C731 1.386 . S
C730 C732 1.391 . S
C731 C730 1.386 . S
C731 C735 1.393 . S
C732 H721 0.950 . S
C732 C730 1.391 . S
C732 C733 1.400 . S
C733 C727 1.491 . S
C733 C732 1.400 . S
C733 C734 1.398 . S
C734 H722 0.950 . S
C734 C733 1.398 . S
C734 C735 1.391 . S
C735 H723 0.950 . S
C735 C731 1.393 . S
C735 C734 1.391 . S
H736 C744 0.950 . S
H737 C749 0.950 . S
H738 C746 0.950 . S
H739 C748 0.941 1_554 S
H740 C750 0.950 . S
H741 C752 0.950 . S
H742 C754 0.941 1_556 S
H743 C755 0.950 . S
C744 H736 0.950 . S
C744 C745 1.386 . S
C744 C746 1.391 . S
C745 C744 1.386 . S
C745 C749 1.393 . S
C746 H738 0.950 . S
C746 C744 1.391 . S
C746 C747 1.400 . S
C747 C746 1.400 . S
C747 C748 1.401 . S
C747 C753 1.491 1_556 S
C748 H739 0.941 1_556 S
C748 C747 1.401 . S
C748 C749 1.396 . S
C749 H737 0.950 . S
C749 C745 1.393 . S
C749 C748 1.396 . S
C750 H740 0.950 . S
C750 C751 1.386 . S
C750 C752 1.391 . S
C751 C750 1.386 . S
C751 C755 1.393 . S
C752 H741 0.950 . S
C752 C750 1.391 . S
C752 C753 1.400 . S
C753 C747 1.491 1_554 S
C753 C752 1.400 . S
C753 C754 1.401 . S
C754 H742 0.941 1_554 S
C754 C753 1.401 . S
C754 C755 1.396 . S
C755 H743 0.950 . S
C755 C751 1.393 . S
C755 C754 1.396 . S
H756 C764 0.950 . S
H757 C769 0.950 . S
H758 C766 0.950 . S
H759 C768 0.950 . S
H760 C770 0.950 . S
H761 C772 0.950 . S
H762 C774 0.950 . S
H763 C775 0.950 . S
C764 H756 0.950 . S
C764 C765 1.386 . S
C764 C766 1.391 . S
C765 C764 1.386 . S
C765 C769 1.393 . S
C766 H758 0.950 . S
C766 C764 1.391 . S
C766 C767 1.400 . S
C767 C766 1.400 . S
C767 C768 1.398 . S
C767 C773 1.491 . S
C768 H759 0.950 . S
C768 C767 1.398 . S
C768 C769 1.391 . S
C769 H757 0.950 . S
C769 C765 1.393 . S
C769 C768 1.391 . S
C770 H760 0.950 . S
C770 C771 1.386 . S
C770 C772 1.391 . S
C771 C770 1.386 . S
C771 C775 1.393 . S
C772 H761 0.950 . S
C772 C770 1.391 . S
C772 C773 1.400 . S
C773 C767 1.491 . S
C773 C772 1.400 . S
C773 C774 1.398 . S
C774 H762 0.950 . S
C774 C773 1.398 . S
C774 C775 1.391 . S
C775 H763 0.950 . S
C775 C771 1.393 . S
C775 C774 1.391 . S
H776 C784 0.950 . S
H777 C789 0.950 . S
H778 C786 0.950 . S
H779 C788 0.950 1_554 S
H780 C790 0.950 . S
H781 C792 0.950 . S
H782 C794 0.950 1_556 S
H783 C795 0.950 . S
C784 H776 0.950 . S
C784 C785 1.386 . S
C784 C786 1.391 . S
C785 C784 1.386 . S
C785 C789 1.393 . S
C786 H778 0.950 . S
C786 C784 1.391 . S
C786 C787 1.400 . S
C787 C786 1.400 . S
C787 C788 1.398 . S
C787 C793 1.491 1_556 S
C788 H779 0.950 1_556 S
C788 C787 1.398 . S
C788 C789 1.391 . S
C789 H777 0.950 . S
C789 C785 1.393 . S
C789 C788 1.391 . S
C790 H780 0.950 . S
C790 C791 1.386 . S
C790 C792 1.391 . S
C791 C790 1.386 . S
C791 C795 1.393 . S
C792 H781 0.950 . S
C792 C790 1.391 . S
C792 C793 1.400 . S
C793 C787 1.491 1_554 S
C793 C792 1.400 . S
C793 C794 1.398 . S
C794 H782 0.950 1_554 S
C794 C793 1.398 . S
C794 C795 1.391 . S
C795 H783 0.950 . S
C795 C791 1.393 . S
C795 C794 1.391 . S
H796 C804 0.950 . S
H797 C809 0.950 . S
H798 C806 0.950 . S
H799 C808 0.950 . S
H800 C810 0.950 . S
H801 C812 0.950 . S
H802 C814 0.950 . S
H803 C815 0.950 . S
C804 H796 0.950 . S
C804 C805 1.386 . S
C804 C806 1.391 . S
C805 C804 1.386 . S
C805 C809 1.393 . S
C806 H798 0.950 . S
C806 C804 1.391 . S
C806 C807 1.400 . S
C807 C806 1.400 . S
C807 C808 1.398 . S
C807 C813 1.491 . S
C808 H799 0.950 . S
C808 C807 1.398 . S
C808 C809 1.391 . S
C809 H797 0.950 . S
C809 C805 1.393 . S
C809 C808 1.391 . S
C810 H800 0.950 . S
C810 C811 1.386 . S
C810 C812 1.391 . S
C811 C810 1.386 . S
C811 C815 1.393 . S
C812 H801 0.950 . S
C812 C810 1.391 . S
C812 C813 1.400 . S
C813 C807 1.491 . S
C813 C812 1.400 . S
C813 C814 1.398 . S
C814 H802 0.950 . S
C814 C813 1.398 . S
C814 C815 1.391 . S
C815 H803 0.950 . S
C815 C811 1.393 . S
C815 C814 1.391 . S
H816 C824 0.950 . S
H817 C829 0.950 . S
H818 C826 0.950 . S
H819 C828 0.950 . S
H820 C830 0.950 . S
H821 C832 0.950 . S
H822 C834 0.950 . S
H823 C835 0.950 . S
C824 H816 0.950 . S
C824 C825 1.386 . S
C824 C826 1.391 . S
C825 C824 1.386 . S
C825 C829 1.393 . S
C826 H818 0.950 . S
C826 C824 1.391 . S
C826 C827 1.400 . S
C827 C826 1.400 . S
C827 C828 1.398 . S
C827 C833 1.491 . S
C828 H819 0.950 . S
C828 C827 1.398 . S
C828 C829 1.391 . S
C829 H817 0.950 . S
C829 C825 1.393 . S
C829 C828 1.391 . S
C830 H820 0.950 . S
C830 C831 1.386 . S
C830 C832 1.391 . S
C831 C830 1.386 . S
C831 C835 1.393 . S
C832 H821 0.950 . S
C832 C830 1.391 . S
C832 C833 1.400 . S
C833 C827 1.491 . S
C833 C832 1.400 . S
C833 C834 1.398 . S
C834 H822 0.950 . S
C834 C833 1.398 . S
C834 C835 1.391 . S
C835 H823 0.950 . S
C835 C831 1.393 . S
C835 C834 1.391 . S
H836 C844 0.950 . S
H837 C849 0.950 . S
H838 C846 0.950 . S
H839 C848 0.950 . S
H840 C850 0.950 . S
H841 C852 0.950 . S
H842 C854 0.950 . S
H843 C855 0.950 . S
C844 H836 0.950 . S
C844 C845 1.386 . S
C844 C846 1.391 . S
C845 C844 1.386 . S
C845 C849 1.393 . S
C846 H838 0.950 . S
C846 C844 1.391 . S
C846 C847 1.400 . S
C847 C846 1.400 . S
C847 C848 1.398 . S
C847 C853 1.491 1_455 S
C848 H839 0.950 . S
C848 C847 1.398 . S
C848 C849 1.391 . S
C849 H837 0.950 . S
C849 C845 1.393 . S
C849 C848 1.391 . S
C850 H840 0.950 . S
C850 C851 1.386 . S
C850 C852 1.391 . S
C851 C850 1.386 . S
C851 C855 1.393 . S
C852 H841 0.950 . S
C852 C850 1.391 . S
C852 C853 1.400 . S
C853 C847 1.491 1_655 S
C853 C852 1.400 . S
C853 C854 1.398 . S
C854 H842 0.950 . S
C854 C853 1.398 . S
C854 C855 1.391 . S
C855 H843 0.950 . S
C855 C851 1.393 . S
C855 C854 1.391 . S
H856 C864 0.950 . S
H857 C869 0.950 . S
H858 C866 0.950 . S
H859 C868 0.950 . S
H860 C870 0.950 . S
H861 C872 0.950 . S
H862 C874 0.950 . S
H863 C875 0.950 . S
C864 H856 0.950 . S
C864 C865 1.386 . S
C864 C866 1.391 . S
C865 C864 1.386 . S
C865 C869 1.393 . S
C866 H858 0.950 . S
C866 C864 1.391 . S
C866 C867 1.400 . S
C867 C866 1.400 . S
C867 C868 1.398 . S
C867 C873 1.491 1_565 S
C868 H859 0.950 . S
C868 C867 1.398 . S
C868 C869 1.391 . S
C869 H857 0.950 . S
C869 C865 1.393 . S
C869 C868 1.391 . S
C870 H860 0.950 . S
C870 C871 1.386 . S
C870 C872 1.391 . S
C871 C870 1.386 . S
C871 C875 1.393 . S
C872 H861 0.950 . S
C872 C870 1.391 . S
C872 C873 1.400 . S
C873 C867 1.491 1_545 S
C873 C872 1.400 . S
C873 C874 1.398 . S
C874 H862 0.950 . S
C874 C873 1.398 . S
C874 C875 1.391 . S
C875 H863 0.950 . S
C875 C871 1.393 . S
C875 C874 1.391 . S
H876 C884 0.950 . S
H877 C889 0.950 . S
H878 C886 0.950 . S
H879 C888 0.950 . S
H880 C890 0.950 . S
H881 C892 0.950 . S
H882 C894 0.950 . S
H883 C895 0.950 . S
C884 H876 0.950 . S
C884 C885 1.386 . S
C884 C886 1.391 . S
C885 C884 1.386 . S
C885 C889 1.393 . S
C886 H878 0.950 . S
C886 C884 1.391 . S
C886 C887 1.400 . S
C887 C886 1.400 . S
C887 C888 1.398 . S
C887 C893 1.491 . S
C888 H879 0.950 . S
C888 C887 1.398 . S
C888 C889 1.391 . S
C889 H877 0.950 . S
C889 C885 1.393 . S
C889 C888 1.391 . S
C890 H880 0.950 . S
C890 C891 1.386 . S
C890 C892 1.391 . S
C891 C890 1.386 . S
C891 C895 1.393 . S
C892 H881 0.950 . S
C892 C890 1.391 . S
C892 C893 1.400 . S
C893 C887 1.491 . S
C893 C892 1.400 . S
C893 C894 1.398 . S
C894 H882 0.950 . S
C894 C893 1.398 . S
C894 C895 1.391 . S
C895 H883 0.950 . S
C895 C891 1.393 . S
C895 C894 1.391 . S
H896 C904 0.950 . S
H897 C909 0.950 . S
H898 C906 0.950 . S
H899 C908 0.950 . S
H900 C910 0.950 . S
H901 C912 0.950 . S
H902 C914 0.950 . S
H903 C915 0.950 . S
C904 H896 0.950 . S
C904 C905 1.386 . S
C904 C906 1.391 . S
C905 C904 1.386 . S
C905 C909 1.393 . S
C906 H898 0.950 . S
C906 C904 1.391 . S
C906 C907 1.400 . S
C907 C906 1.400 . S
C907 C908 1.398 . S
C907 C913 1.491 1_655 S
C908 H899 0.950 . S
C908 C907 1.398 . S
C908 C909 1.391 . S
C909 H897 0.950 . S
C909 C905 1.393 . S
C909 C908 1.391 . S
C910 H900 0.950 . S
C910 C911 1.386 . S
C910 C912 1.391 . S
C911 C910 1.386 . S
C911 C915 1.393 . S
C912 H901 0.950 . S
C912 C910 1.391 . S
C912 C913 1.400 . S
C913 C907 1.491 1_455 S
C913 C912 1.400 . S
C913 C914 1.398 . S
C914 H902 0.950 . S
C914 C913 1.398 . S
C914 C915 1.391 . S
C915 H903 0.950 . S
C915 C911 1.393 . S
C915 C914 1.391 . S
H916 C924 0.950 . S
H917 C929 0.950 . S
H918 C926 0.950 . S
H919 C928 0.950 . S
H920 C930 0.950 . S
H921 C932 0.950 . S
H922 C934 0.950 . S
H923 C935 0.950 . S
C924 H916 0.950 . S
C924 C925 1.386 . S
C924 C926 1.391 . S
C925 C924 1.386 . S
C925 C929 1.393 . S
C926 H918 0.950 . S
C926 C924 1.391 . S
C926 C927 1.400 . S
C927 C926 1.400 . S
C927 C928 1.398 . S
C927 C933 1.491 1_545 S
C928 H919 0.950 . S
C928 C927 1.398 . S
C928 C929 1.391 . S
C929 H917 0.950 . S
C929 C925 1.393 . S
C929 C928 1.391 . S
C930 H920 0.950 . S
C930 C931 1.386 . S
C930 C932 1.391 . S
C931 C930 1.386 . S
C931 C935 1.393 . S
C932 H921 0.950 . S
C932 C930 1.391 . S
C932 C933 1.400 . S
C933 C927 1.491 1_565 S
C933 C932 1.400 . S
C933 C934 1.398 . S
C934 H922 0.950 . S
C934 C933 1.398 . S
C934 C935 1.391 . S
C935 H923 0.950 . S
C935 C931 1.393 . S
C935 C934 1.391 . S
H936 C944 0.950 . S
H937 C949 0.950 . S
H938 C946 0.950 . S
H939 C948 0.950 . S
H940 C950 0.950 . S
H941 C952 0.950 . S
H942 C954 0.950 . S
H943 C955 0.950 . S
C944 H936 0.950 . S
C944 C945 1.386 . S
C944 C946 1.391 . S
C945 C944 1.386 . S
C945 C949 1.393 . S
C946 H938 0.950 . S
C946 C944 1.391 . S
C946 C947 1.400 . S
C947 C946 1.400 . S
C947 C948 1.398 . S
C947 C953 1.491 . S
C948 H939 0.950 . S
C948 C947 1.398 . S
C948 C949 1.391 . S
C949 H937 0.950 . S
C949 C945 1.393 . S
C949 C948 1.391 . S
C950 H940 0.950 . S
C950 C951 1.386 . S
C950 C952 1.391 . S
C951 C950 1.386 . S
C951 C955 1.393 . S
C952 H941 0.950 . S
C952 C950 1.391 . S
C952 C953 1.400 . S
C953 C947 1.491 . S
C953 C952 1.400 . S
C953 C954 1.398 . S
C954 H942 0.950 . S
C954 C953 1.398 . S
C954 C955 1.391 . S
C955 H943 0.950 . S
C955 C951 1.393 . S
C955 C954 1.391 . S
H956 C964 0.950 . S
H957 C969 0.950 . S
H958 C966 0.950 . S
H959 C968 0.950 . S
H960 C970 0.950 . S
H961 C972 0.950 . S
H962 C974 0.950 . S
H963 C975 0.950 . S
C964 H956 0.950 . S
C964 C965 1.386 . S
C964 C966 1.391 . S
C965 C964 1.386 . S
C965 C969 1.393 . S
C966 H958 0.950 . S
C966 C964 1.391 . S
C966 C967 1.400 . S
C967 C966 1.400 . S
C967 C968 1.398 . S
C967 C973 1.491 1_655 S
C968 H959 0.950 . S
C968 C967 1.398 . S
C968 C969 1.391 . S
C969 H957 0.950 . S
C969 C965 1.393 . S
C969 C968 1.391 . S
C970 H960 0.950 . S
C970 C971 1.386 . S
C970 C972 1.391 . S
C971 C970 1.386 . S
C971 C975 1.393 . S
C972 H961 0.950 . S
C972 C970 1.391 . S
C972 C973 1.400 . S
C973 C967 1.491 1_455 S
C973 C972 1.400 . S
C973 C974 1.398 . S
C974 H962 0.950 . S
C974 C973 1.398 . S
C974 C975 1.391 . S
C975 H963 0.950 . S
C975 C971 1.393 . S
C975 C974 1.391 . S
H976 C984 0.950 . S
H977 C989 0.950 . S
H978 C986 0.950 . S
H979 C988 0.950 . S
H980 C990 0.950 . S
H981 C992 0.950 . S
H982 C994 0.950 . S
H983 C995 0.950 . S
C984 H976 0.950 . S
C984 C985 1.386 . S
C984 C986 1.391 . S
C985 C984 1.386 . S
C985 C989 1.393 . S
C986 H978 0.950 . S
C986 C984 1.391 . S
C986 C987 1.400 . S
C987 C986 1.400 . S
C987 C988 1.398 . S
C987 C993 1.491 1_545 S
C988 H979 0.950 . S
C988 C987 1.398 . S
C988 C989 1.391 . S
C989 H977 0.950 . S
C989 C985 1.393 . S
C989 C988 1.391 . S
C990 H980 0.950 . S
C990 C991 1.386 . S
C990 C992 1.391 . S
C991 C990 1.386 . S
C991 C995 1.393 . S
C992 H981 0.950 . S
C992 C990 1.391 . S
C992 C993 1.400 . S
C993 C987 1.491 1_565 S
C993 C992 1.400 . S
C993 C994 1.398 . S
C994 H982 0.950 . S
C994 C993 1.398 . S
C994 C995 1.391 . S
C995 H983 0.950 . S
C995 C991 1.393 . S
C995 C994 1.391 . S
H996 C1004 0.950 . S
H997 C1009 0.950 . S
H998 C1006 0.950 . S
H999 C1008 0.950 . S
H1000 C1010 0.950 . S
H1001 C1012 0.950 . S
H1002 C1014 0.950 . S
H1003 C1015 0.950 . S
C1004 H996 0.950 . S
C1004 C1005 1.386 . S
C1004 C1006 1.391 . S
C1005 C1004 1.386 . S
C1005 C1009 1.393 . S
C1006 H998 0.950 . S
C1006 C1004 1.391 . S
C1006 C1007 1.400 . S
C1007 C1006 1.400 . S
C1007 C1008 1.398 . S
C1007 C1013 1.491 . S
C1008 H999 0.950 . S
C1008 C1007 1.398 . S
C1008 C1009 1.391 . S
C1009 H997 0.950 . S
C1009 C1005 1.393 . S
C1009 C1008 1.391 . S
C1010 H1000 0.950 . S
C1010 C1011 1.386 . S
C1010 C1012 1.391 . S
C1011 C1010 1.386 . S
C1011 C1015 1.393 . S
C1012 H1001 0.950 . S
C1012 C1010 1.391 . S
C1012 C1013 1.400 . S
C1013 C1007 1.491 . S
C1013 C1012 1.400 . S
C1013 C1014 1.398 . S
C1014 H1002 0.950 . S
C1014 C1013 1.398 . S
C1014 C1015 1.391 . S
C1015 H1003 0.950 . S
C1015 C1011 1.393 . S
C1015 C1014 1.391 . S
H1016 C1024 0.950 . S
H1017 C1029 0.950 . S
H1018 C1026 0.950 . S
H1019 C1028 0.950 . S
H1020 C1030 0.950 . S
H1021 C1032 0.950 . S
H1022 C1034 0.950 . S
H1023 C1035 0.950 . S
C1024 H1016 0.950 . S
C1024 C1025 1.386 . S
C1024 C1026 1.391 . S
C1025 C1024 1.386 . S
C1025 C1029 1.393 . S
C1026 H1018 0.950 . S
C1026 C1024 1.391 . S
C1026 C1027 1.400 . S
C1027 C1026 1.400 . S
C1027 C1028 1.398 . S
C1027 C1033 1.491 1_455 S
C1028 H1019 0.950 . S
C1028 C1027 1.398 . S
C1028 C1029 1.391 . S
C1029 H1017 0.950 . S
C1029 C1025 1.393 . S
C1029 C1028 1.391 . S
C1030 H1020 0.950 . S
C1030 C1031 1.386 . S
C1030 C1032 1.391 . S
C1031 C1030 1.386 . S
C1031 C1035 1.393 . S
C1032 H1021 0.950 . S
C1032 C1030 1.391 . S
C1032 C1033 1.400 . S
C1033 C1027 1.491 1_655 S
C1033 C1032 1.400 . S
C1033 C1034 1.398 . S
C1034 H1022 0.950 . S
C1034 C1033 1.398 . S
C1034 C1035 1.391 . S
C1035 H1023 0.950 . S
C1035 C1031 1.393 . S
C1035 C1034 1.391 . S
H1036 C1044 0.950 . S
H1037 C1049 0.950 . S
H1038 C1046 0.950 . S
H1039 C1048 0.950 . S
H1040 C1050 0.950 . S
H1041 C1052 0.950 . S
H1042 C1054 0.950 . S
H1043 C1055 0.950 . S
C1044 H1036 0.950 . S
C1044 C1045 1.386 . S
C1044 C1046 1.391 . S
C1045 C1044 1.386 . S
C1045 C1049 1.393 . S
C1046 H1038 0.950 . S
C1046 C1044 1.391 . S
C1046 C1047 1.400 . S
C1047 C1046 1.400 . S
C1047 C1048 1.398 . S
C1047 C1053 1.491 1_565 S
C1048 H1039 0.950 . S
C1048 C1047 1.398 . S
C1048 C1049 1.391 . S
C1049 H1037 0.950 . S
C1049 C1045 1.393 . S
C1049 C1048 1.391 . S
C1050 H1040 0.950 . S
C1050 C1051 1.386 . S
C1050 C1052 1.391 . S
C1051 C1050 1.386 . S
C1051 C1055 1.393 . S
C1052 H1041 0.950 . S
C1052 C1050 1.391 . S
C1052 C1053 1.400 . S
C1053 C1047 1.491 1_545 S
C1053 C1052 1.400 . S
C1053 C1054 1.398 . S
C1054 H1042 0.950 . S
C1054 C1053 1.398 . S
C1054 C1055 1.391 . S
C1055 H1043 0.950 . S
C1055 C1051 1.393 . S
C1055 C1054 1.391 . S
H1056 C1064 0.950 1_554 S
H1057 C1069 0.950 . S
H1058 C1066 0.950 . S
H1059 C1068 0.950 . S
H1060 C1070 0.950 1_556 S
H1061 C1072 0.950 . S
H1062 C1074 0.950 . S
H1063 C1075 0.950 . S
C1064 H1056 0.950 1_556 S
C1064 C1065 1.386 . S
C1064 C1066 1.391 1_556 S
C1065 C1064 1.386 . S
C1065 C1069 1.393 . S
C1066 H1058 0.950 . S
C1066 C1064 1.391 1_554 S
C1066 C1067 1.400 1_554 S
C1067 C1066 1.400 1_556 S
C1067 C1068 1.398 . S
C1067 C1073 1.491 1_556 S
C1068 H1059 0.950 . S
C1068 C1067 1.398 . S
C1068 C1069 1.391 . S
C1069 H1057 0.950 . S
C1069 C1065 1.393 . S
C1069 C1068 1.391 . S
C1070 H1060 0.950 1_554 S
C1070 C1071 1.386 . S
C1070 C1072 1.391 1_554 S
C1071 C1070 1.386 . S
C1071 C1075 1.393 . S
C1072 H1061 0.950 . S
C1072 C1070 1.391 1_556 S
C1072 C1073 1.400 1_556 S
C1073 C1067 1.491 1_554 S
C1073 C1072 1.400 1_554 S
C1073 C1074 1.398 . S
C1074 H1062 0.950 . S
C1074 C1073 1.398 . S
C1074 C1075 1.391 . S
C1075 H1063 0.950 . S
C1075 C1071 1.393 . S
C1075 C1074 1.391 . S
H1076 C1084 0.950 . S
H1077 C1089 0.950 . S
H1078 C1086 0.950 . S
H1079 C1088 0.950 . S
H1080 C1090 0.950 . S
H1081 C1092 0.950 . S
H1082 C1094 0.950 . S
H1083 C1095 0.950 . S
C1084 H1076 0.950 . S
C1084 C1085 1.386 . S
C1084 C1086 1.391 . S
C1085 C1084 1.386 . S
C1085 C1089 1.393 . S
C1086 H1078 0.950 . S
C1086 C1084 1.391 . S
C1086 C1087 1.400 . S
C1087 C1086 1.400 . S
C1087 C1088 1.398 . S
C1087 C1093 1.491 . S
C1088 H1079 0.950 . S
C1088 C1087 1.398 . S
C1088 C1089 1.391 . S
C1089 H1077 0.950 . S
C1089 C1085 1.393 . S
C1089 C1088 1.391 . S
C1090 H1080 0.950 . S
C1090 C1091 1.386 . S
C1090 C1092 1.391 . S
C1091 C1090 1.386 . S
C1091 C1095 1.393 . S
C1092 H1081 0.950 . S
C1092 C1090 1.391 . S
C1092 C1093 1.400 . S
C1093 C1087 1.491 . S
C1093 C1092 1.400 . S
C1093 C1094 1.398 . S
C1094 H1082 0.950 . S
C1094 C1093 1.398 . S
C1094 C1095 1.391 . S
C1095 H1083 0.950 . S
C1095 C1091 1.393 . S
C1095 C1094 1.391 . S
H1096 C1104 0.950 . S
H1097 C1109 0.950 . S
H1098 C1106 0.950 . S
H1099 C1108 0.950 . S
H1100 C1110 0.950 . S
H1101 C1112 0.950 . S
H1102 C1114 0.950 . S
H1103 C1115 0.950 . S
C1104 H1096 0.950 . S
C1104 C1105 1.386 . S
C1104 C1106 1.391 . S
C1105 C1104 1.386 . S
C1105 C1109 1.393 . S
C1106 H1098 0.950 . S
C1106 C1104 1.391 . S
C1106 C1107 1.400 . S
C1107 C1106 1.400 . S
C1107 C1108 1.398 1_556 S
C1107 C1113 1.491 1_556 S
C1108 H1099 0.950 . S
C1108 C1107 1.398 1_554 S
C1108 C1109 1.391 1_554 S
C1109 H1097 0.950 . S
C1109 C1105 1.393 . S
C1109 C1108 1.391 1_556 S
C1110 H1100 0.950 . S
C1110 C1111 1.386 . S
C1110 C1112 1.391 . S
C1111 C1110 1.386 . S
C1111 C1115 1.393 . S
C1112 H1101 0.950 . S
C1112 C1110 1.391 . S
C1112 C1113 1.400 . S
C1113 C1107 1.491 1_554 S
C1113 C1112 1.400 . S
C1113 C1114 1.398 1_554 S
C1114 H1102 0.950 . S
C1114 C1113 1.398 1_556 S
C1114 C1115 1.391 1_556 S
C1115 H1103 0.950 . S
C1115 C1111 1.393 . S
C1115 C1114 1.391 1_554 S
H1116 C1124 0.950 . S
H1117 C1129 0.950 . S
H1118 C1126 0.950 . S
H1119 C1128 0.950 . S
H1120 C1130 0.950 . S
H1121 C1132 0.950 . S
H1122 C1134 0.950 . S
H1123 C1135 0.950 . S
C1124 H1116 0.950 . S
C1124 C1125 1.386 . S
C1124 C1126 1.391 . S
C1125 C1124 1.386 . S
C1125 C1129 1.393 . S
C1126 H1118 0.950 . S
C1126 C1124 1.391 . S
C1126 C1127 1.400 . S
C1127 C1126 1.400 . S
C1127 C1128 1.398 . S
C1127 C1133 1.491 . S
C1128 H1119 0.950 . S
C1128 C1127 1.398 . S
C1128 C1129 1.391 . S
C1129 H1117 0.950 . S
C1129 C1125 1.393 . S
C1129 C1128 1.391 . S
C1130 H1120 0.950 . S
C1130 C1131 1.386 . S
C1130 C1132 1.391 . S
C1131 C1130 1.386 . S
C1131 C1135 1.393 . S
C1132 H1121 0.950 . S
C1132 C1130 1.391 . S
C1132 C1133 1.400 . S
C1133 C1127 1.491 . S
C1133 C1132 1.400 . S
C1133 C1134 1.398 . S
C1134 H1122 0.950 . S
C1134 C1133 1.398 . S
C1134 C1135 1.391 . S
C1135 H1123 0.950 . S
C1135 C1131 1.393 . S
C1135 C1134 1.391 . S
H1136 C1144 0.950 1_554 S
H1137 C1149 0.950 . S
H1138 C1146 0.950 . S
H1139 C1148 0.950 . S
H1140 C1150 0.950 1_556 S
H1141 C1152 0.950 . S
H1142 C1154 0.950 . S
H1143 C1155 0.950 . S
C1144 H1136 0.950 1_556 S
C1144 C1145 1.386 . S
C1144 C1146 1.391 1_556 S
C1145 C1144 1.386 . S
C1145 C1149 1.393 . S
C1146 H1138 0.950 . S
C1146 C1144 1.391 1_554 S
C1146 C1147 1.400 1_554 S
C1147 C1146 1.400 1_556 S
C1147 C1148 1.398 . S
C1147 C1153 1.491 1_556 S
C1148 H1139 0.950 . S
C1148 C1147 1.398 . S
C1148 C1149 1.391 . S
C1149 H1137 0.950 . S
C1149 C1145 1.393 . S
C1149 C1148 1.391 . S
C1150 H1140 0.950 1_554 S
C1150 C1151 1.386 . S
C1150 C1152 1.391 1_554 S
C1151 C1150 1.386 . S
C1151 C1155 1.393 . S
C1152 H1141 0.950 . S
C1152 C1150 1.391 1_556 S
C1152 C1153 1.400 1_556 S
C1153 C1147 1.491 1_554 S
C1153 C1152 1.400 1_554 S
C1153 C1154 1.398 . S
C1154 H1142 0.950 . S
C1154 C1153 1.398 . S
C1154 C1155 1.391 . S
C1155 H1143 0.950 . S
C1155 C1151 1.393 . S
C1155 C1154 1.391 . S
H1156 C1164 0.950 . S
H1157 C1169 0.950 . S
H1158 C1166 0.950 . S
H1159 C1168 0.950 . S
H1160 C1170 0.950 . S
H1161 C1172 0.950 . S
H1162 C1174 0.950 . S
H1163 C1175 0.950 . S
C1164 H1156 0.950 . S
C1164 C1165 1.386 . S
C1164 C1166 1.391 . S
C1165 C1164 1.386 . S
C1165 C1169 1.393 . S
C1166 H1158 0.950 . S
C1166 C1164 1.391 . S
C1166 C1167 1.400 . S
C1167 C1166 1.400 . S
C1167 C1168 1.398 . S
C1167 C1173 1.491 . S
C1168 H1159 0.950 . S
C1168 C1167 1.398 . S
C1168 C1169 1.391 . S
C1169 H1157 0.950 . S
C1169 C1165 1.393 . S
C1169 C1168 1.391 . S
C1170 H1160 0.950 . S
C1170 C1171 1.386 . S
C1170 C1172 1.391 . S
C1171 C1170 1.386 . S
C1171 C1175 1.393 . S
C1172 H1161 0.950 . S
C1172 C1170 1.391 . S
C1172 C1173 1.400 . S
C1173 C1167 1.491 . S
C1173 C1172 1.400 . S
C1173 C1174 1.398 . S
C1174 H1162 0.950 . S
C1174 C1173 1.398 . S
C1174 C1175 1.391 . S
C1175 H1163 0.950 . S
C1175 C1171 1.393 . S
C1175 C1174 1.391 . S
H1176 C1184 0.950 . S
H1177 C1189 0.950 . S
H1178 C1186 0.950 . S
H1179 C1188 0.950 1_556 S
H1180 C1190 0.950 . S
H1181 C1192 0.950 . S
H1182 C1194 0.950 1_554 S
H1183 C1195 0.950 . S
C1184 H1176 0.950 . S
C1184 C1185 1.386 . S
C1184 C1186 1.391 . S
C1185 C1184 1.386 . S
C1185 C1189 1.393 . S
C1186 H1178 0.950 . S
C1186 C1184 1.391 . S
C1186 C1187 1.400 . S
C1187 C1186 1.400 . S
C1187 C1188 1.398 . S
C1187 C1193 1.491 1_554 S
C1188 H1179 0.950 1_554 S
C1188 C1187 1.398 . S
C1188 C1189 1.391 . S
C1189 H1177 0.950 . S
C1189 C1185 1.393 . S
C1189 C1188 1.391 . S
C1190 H1180 0.950 . S
C1190 C1191 1.386 . S
C1190 C1192 1.391 . S
C1191 C1190 1.386 . S
C1191 C1195 1.393 . S
C1192 H1181 0.950 . S
C1192 C1190 1.391 . S
C1192 C1193 1.400 . S
C1193 C1187 1.491 1_556 S
C1193 C1192 1.400 . S
C1193 C1194 1.398 . S
C1194 H1182 0.950 1_556 S
C1194 C1193 1.398 . S
C1194 C1195 1.391 . S
C1195 H1183 0.950 . S
C1195 C1191 1.393 . S
C1195 C1194 1.391 . S
H1196 C1204 0.950 . S
H1197 C1209 0.950 . S
H1198 C1206 0.950 . S
H1199 C1208 0.950 . S
H1200 C1210 0.950 . S
H1201 C1212 0.950 . S
H1202 C1214 0.950 . S
H1203 C1215 0.950 . S
C1204 H1196 0.950 . S
C1204 C1205 1.386 . S
C1204 C1206 1.391 . S
C1205 C1204 1.386 . S
C1205 C1209 1.393 . S
C1206 H1198 0.950 . S
C1206 C1204 1.391 . S
C1206 C1207 1.400 . S
C1207 C1206 1.400 . S
C1207 C1208 1.398 . S
C1207 C1213 1.491 . S
C1208 H1199 0.950 . S
C1208 C1207 1.398 . S
C1208 C1209 1.391 . S
C1209 H1197 0.950 . S
C1209 C1205 1.393 . S
C1209 C1208 1.391 . S
C1210 H1200 0.950 . S
C1210 C1211 1.386 . S
C1210 C1212 1.391 . S
C1211 C1210 1.386 . S
C1211 C1215 1.393 . S
C1212 H1201 0.950 . S
C1212 C1210 1.391 . S
C1212 C1213 1.400 . S
C1213 C1207 1.491 . S
C1213 C1212 1.400 . S
C1213 C1214 1.398 . S
C1214 H1202 0.950 . S
C1214 C1213 1.398 . S
C1214 C1215 1.391 . S
C1215 H1203 0.950 . S
C1215 C1211 1.393 . S
C1215 C1214 1.391 . S
H1216 C1224 0.950 . S
H1217 C1229 0.950 1_556 S
H1218 C1226 0.950 . S
H1219 C1228 0.950 . S
H1220 C1230 0.950 . S
H1221 C1232 0.950 . S
H1222 C1234 0.950 . S
H1223 C1235 0.950 1_554 S
C1224 H1216 0.950 . S
C1224 C1225 1.386 . S
C1224 C1226 1.391 . S
C1225 C1224 1.386 . S
C1225 C1229 1.393 . S
C1226 H1218 0.950 . S
C1226 C1224 1.391 . S
C1226 C1227 1.400 . S
C1227 C1226 1.400 . S
C1227 C1228 1.398 1_554 S
C1227 C1233 1.491 1_554 S
C1228 H1219 0.950 . S
C1228 C1227 1.398 1_556 S
C1228 C1229 1.391 1_556 S
C1229 H1217 0.950 1_554 S
C1229 C1225 1.393 . S
C1229 C1228 1.391 1_554 S
C1230 H1220 0.950 . S
C1230 C1231 1.386 . S
C1230 C1232 1.391 . S
C1231 C1230 1.386 . S
C1231 C1235 1.393 . S
C1232 H1221 0.950 . S
C1232 C1230 1.391 . S
C1232 C1233 1.400 . S
C1233 C1227 1.491 1_556 S
C1233 C1232 1.400 . S
C1233 C1234 1.398 1_556 S
C1234 H1222 0.950 . S
C1234 C1233 1.398 1_554 S
C1234 C1235 1.391 1_554 S
C1235 H1223 0.950 1_556 S
C1235 C1231 1.393 . S
C1235 C1234 1.391 1_556 S
H1236 C1244 0.950 . S
H1237 C1249 0.950 . S
H1238 C1246 0.950 . S
H1239 C1248 0.950 . S
H1240 C1250 0.950 . S
H1241 C1252 0.950 . S
H1242 C1254 0.950 . S
H1243 C1255 0.950 . S
C1244 H1236 0.950 . S
C1244 C1245 1.386 . S
C1244 C1246 1.391 . S
C1245 C1244 1.386 . S
C1245 C1249 1.393 . S
C1246 H1238 0.950 . S
C1246 C1244 1.391 . S
C1246 C1247 1.400 . S
C1247 C1246 1.400 . S
C1247 C1248 1.398 . S
C1247 C1253 1.491 . S
C1248 H1239 0.950 . S
C1248 C1247 1.398 . S
C1248 C1249 1.391 . S
C1249 H1237 0.950 . S
C1249 C1245 1.393 . S
C1249 C1248 1.391 . S
C1250 H1240 0.950 . S
C1250 C1251 1.386 . S
C1250 C1252 1.391 . S
C1251 C1250 1.386 . S
C1251 C1255 1.393 . S
C1252 H1241 0.950 . S
C1252 C1250 1.391 . S
C1252 C1253 1.400 . S
C1253 C1247 1.491 . S
C1253 C1252 1.400 . S
C1253 C1254 1.398 . S
C1254 H1242 0.950 . S
C1254 C1253 1.398 . S
C1254 C1255 1.391 . S
C1255 H1243 0.950 . S
C1255 C1251 1.393 . S
C1255 C1254 1.391 . S
H1256 C1264 0.950 . S
H1257 C1269 0.950 . S
H1258 C1266 0.950 1_554 S
H1259 C1268 0.950 . S
H1260 C1270 0.950 . S
H1261 C1272 0.950 1_556 S
H1262 C1274 0.950 . S
H1263 C1275 0.950 . S
C1264 H1256 0.950 . S
C1264 C1265 1.386 . S
C1264 C1266 1.391 . S
C1265 C1264 1.386 . S
C1265 C1269 1.393 . S
C1266 H1258 0.950 1_556 S
C1266 C1264 1.391 . S
C1266 C1267 1.400 . S
C1267 C1266 1.400 . S
C1267 C1268 1.398 . S
C1267 C1273 1.491 1_556 S
C1268 H1259 0.950 . S
C1268 C1267 1.398 . S
C1268 C1269 1.391 . S
C1269 H1257 0.950 . S
C1269 C1265 1.393 . S
C1269 C1268 1.391 . S
C1270 H1260 0.950 . S
C1270 C1271 1.386 . S
C1270 C1272 1.391 . S
C1271 C1270 1.386 . S
C1271 C1275 1.393 . S
C1272 H1261 0.950 1_554 S
C1272 C1270 1.391 . S
C1272 C1273 1.400 . S
C1273 C1267 1.491 1_554 S
C1273 C1272 1.400 . S
C1273 C1274 1.398 . S
C1274 H1262 0.950 . S
C1274 C1273 1.398 . S
C1274 C1275 1.391 . S
C1275 H1263 0.950 . S
C1275 C1271 1.393 . S
C1275 C1274 1.391 . S
H1276 C1284 0.950 . S
H1277 C1289 0.950 . S
H1278 C1286 0.950 . S
H1279 C1288 0.950 . S
H1280 C1290 0.950 . S
H1281 C1292 0.950 . S
H1282 C1294 0.950 . S
H1283 C1295 0.950 . S
C1284 H1276 0.950 . S
C1284 C1285 1.386 . S
C1284 C1286 1.391 . S
C1285 C1284 1.386 . S
C1285 C1289 1.393 . S
C1286 H1278 0.950 . S
C1286 C1284 1.391 . S
C1286 C1287 1.400 . S
C1287 C1286 1.400 . S
C1287 C1288 1.398 . S
C1287 C1293 1.491 . S
C1288 H1279 0.950 . S
C1288 C1287 1.398 . S
C1288 C1289 1.391 . S
C1289 H1277 0.950 . S
C1289 C1285 1.393 . S
C1289 C1288 1.391 . S
C1290 H1280 0.950 . S
C1290 C1291 1.386 . S
C1290 C1292 1.391 . S
C1291 C1290 1.386 . S
C1291 C1295 1.393 . S
C1292 H1281 0.950 . S
C1292 C1290 1.391 . S
C1292 C1293 1.400 . S
C1293 C1287 1.491 . S
C1293 C1292 1.400 . S
C1293 C1294 1.398 . S
C1294 H1282 0.950 . S
C1294 C1293 1.398 . S
C1294 C1295 1.391 . S
C1295 H1283 0.950 . S
C1295 C1291 1.393 . S
C1295 C1294 1.391 . S
C345 C3 1.493 . S
C351 C213 1.495 . S
C365 C17 1.492 . S
C371 C227 1.497 . S
C385 C241 1.495 . S
C391 C31 1.494 . S
C405 C171 1.494 . S
C411 C45 1.494 . S
C425 C185 1.491 . S
C431 C59 1.497 . S
C445 C199 1.497 . S
C451 C73 1.492 . S
C465 C297 1.493 . S
C471 C87 1.495 . S
C485 C101 1.492 . S
C491 C311 1.496 . S
C505 C325 1.497 . S
C511 C115 1.491 . S
C525 C129 1.492 . S
C531 C255 1.496 . S
C545 C269 1.495 . S
C551 C143 1.493 . S
C565 C157 1.496 . S
C571 C283 1.493 . S
C585 C148 1.376 . S
C591 C8 1.375 . S
C605 C162 1.378 . S
C611 C22 1.378 . S
C625 C36 1.374 . S
C631 C92 1.373 . S
C645 C50 1.374 . S
C651 C106 1.373 . S
C665 C120 1.378 . S
C671 C64 1.378 . S
C685 C78 1.377 . S
C691 C134 1.376 . S
C705 C316 1.375 . S
C711 C176 1.374 . S
C725 C190 1.378 . S
C731 C330 1.378 . S
C745 C204 1.377 . S
C751 C260 1.377 . S
C765 C274 1.374 . S
C771 C218 1.375 . S
C785 C232 1.377 . S
C791 C288 1.378 . S
C805 C246 1.378 . S
C811 C302 1.378 . S
C825 C9 1.408 . S
C831 C261 1.392 . S
C845 C275 1.407 . S
C851 C23 1.393 . S
C865 C37 1.390 . S
C871 C289 1.410 . S
C885 C51 1.396 . S
C891 C303 1.404 . S
C905 C317 1.402 . S
C911 C65 1.398 . S
C925 C79 1.404 . S
C931 C331 1.396 . S
C945 C93 1.407 . S
C951 C177 1.393 . S
C965 C107 1.397 . S
C971 C191 1.403 . S
C985 C205 1.391 . S
C991 C121 1.409 . S
C1005 C219 1.390 . S
C1011 C135 1.409 . S
C1025 C149 1.403 . S
C1031 C233 1.397 . S
C1045 C247 1.396 . S
C1051 C163 1.404 . S
C1065 C91 1.454 . S
C1071 C7 1.439 . S
C1085 C21 1.436 . S
C1091 C105 1.447 . S
C1105 C119 1.454 . S
C1111 C35 1.462 . S
C1125 C133 1.452 . S
C1131 C49 1.462 . S
C1145 C147 1.448 . S
C1151 C63 1.436 . S
C1165 C77 1.436 . S
C1171 C161 1.442 . S
C1185 C259 1.461 . S
C1191 C175 1.456 . S
C1205 C189 1.448 . S
C1211 C273 1.436 . S
C1225 C287 1.462 . S
C1231 C203 1.451 . S
C1245 C301 1.452 . S
C1251 C217 1.462 . S
C1265 C231 1.453 . S
C1271 C315 1.462 . S
C1285 C245 1.458 . S
C1291 C329 1.460 . S
