# Generated by pormake.
# Topology lta, (4)-cn, num edge types: 1
# Building blocks:
#     Node 0, Type 0, BuildingBlock: UXUYUI_clean_sbu_0, # of connection points: 4
#     Node 1, Type 0, BuildingBlock: UXUYUI_clean_sbu_0, # of connection points: 4
#     Node 2, Type 0, BuildingBlock: UXUYUI_clean_sbu_0, # of connection points: 4
#     Node 3, Type 0, BuildingBlock: UXUYUI_clean_sbu_0, # of connection points: 4
#     Node 4, Type 0, BuildingBlock: UXUYUI_clean_sbu_0, # of connection points: 4
#     Node 5, Type 0, BuildingBlock: UXUYUI_clean_sbu_0, # of connection points: 4
#     Node 6, Type 0, BuildingBlock: UXUYUI_clean_sbu_0, # of connection points: 4
#     Node 7, Type 0, BuildingBlock: UXUYUI_clean_sbu_0, # of connection points: 4
#     Node 8, Type 0, BuildingBlock: UXUYUI_clean_sbu_0, # of connection points: 4
#     Node 9, Type 0, BuildingBlock: UXUYUI_clean_sbu_0, # of connection points: 4
#     Node 10, Type 0, BuildingBlock: UXUYUI_clean_sbu_0, # of connection points: 4
#     Node 11, Type 0, BuildingBlock: UXUYUI_clean_sbu_0, # of connection points: 4
#     Node 12, Type 0, BuildingBlock: UXUYUI_clean_sbu_0, # of connection points: 4
#     Node 13, Type 0, BuildingBlock: UXUYUI_clean_sbu_0, # of connection points: 4
#     Node 14, Type 0, BuildingBlock: UXUYUI_clean_sbu_0, # of connection points: 4
#     Node 15, Type 0, BuildingBlock: UXUYUI_clean_sbu_0, # of connection points: 4
#     Node 16, Type 0, BuildingBlock: UXUYUI_clean_sbu_0, # of connection points: 4
#     Node 17, Type 0, BuildingBlock: UXUYUI_clean_sbu_0, # of connection points: 4
#     Node 18, Type 0, BuildingBlock: UXUYUI_clean_sbu_0, # of connection points: 4
#     Node 19, Type 0, BuildingBlock: UXUYUI_clean_sbu_0, # of connection points: 4
#     Node 20, Type 0, BuildingBlock: UXUYUI_clean_sbu_0, # of connection points: 4
#     Node 21, Type 0, BuildingBlock: UXUYUI_clean_sbu_0, # of connection points: 4
#     Node 22, Type 0, BuildingBlock: UXUYUI_clean_sbu_0, # of connection points: 4
#     Node 23, Type 0, BuildingBlock: UXUYUI_clean_sbu_0, # of connection points: 4
#     Edge 24, Type (0, 0), BuildingBlock: AJUNOK_clean_linker_0, # of connection points: 2
#     Edge 25, Type (0, 0), BuildingBlock: AJUNOK_clean_linker_0, # of connection points: 2
#     Edge 26, Type (0, 0), BuildingBlock: AJUNOK_clean_linker_0, # of connection points: 2
#     Edge 27, Type (0, 0), BuildingBlock: AJUNOK_clean_linker_0, # of connection points: 2
#     Edge 28, Type (0, 0), BuildingBlock: AJUNOK_clean_linker_0, # of connection points: 2
#     Edge 29, Type (0, 0), BuildingBlock: AJUNOK_clean_linker_0, # of connection points: 2
#     Edge 30, Type (0, 0), BuildingBlock: AJUNOK_clean_linker_0, # of connection points: 2
#     Edge 31, Type (0, 0), BuildingBlock: AJUNOK_clean_linker_0, # of connection points: 2
#     Edge 32, Type (0, 0), BuildingBlock: AJUNOK_clean_linker_0, # of connection points: 2
#     Edge 33, Type (0, 0), BuildingBlock: AJUNOK_clean_linker_0, # of connection points: 2
#     Edge 34, Type (0, 0), BuildingBlock: AJUNOK_clean_linker_0, # of connection points: 2
#     Edge 35, Type (0, 0), BuildingBlock: AJUNOK_clean_linker_0, # of connection points: 2
#     Edge 36, Type (0, 0), BuildingBlock: AJUNOK_clean_linker_0, # of connection points: 2
#     Edge 37, Type (0, 0), BuildingBlock: AJUNOK_clean_linker_0, # of connection points: 2
#     Edge 38, Type (0, 0), BuildingBlock: AJUNOK_clean_linker_0, # of connection points: 2
#     Edge 39, Type (0, 0), BuildingBlock: AJUNOK_clean_linker_0, # of connection points: 2
#     Edge 40, Type (0, 0), BuildingBlock: AJUNOK_clean_linker_0, # of connection points: 2
#     Edge 41, Type (0, 0), BuildingBlock: AJUNOK_clean_linker_0, # of connection points: 2
#     Edge 42, Type (0, 0), BuildingBlock: AJUNOK_clean_linker_0, # of connection points: 2
#     Edge 43, Type (0, 0), BuildingBlock: AJUNOK_clean_linker_0, # of connection points: 2
#     Edge 44, Type (0, 0), BuildingBlock: AJUNOK_clean_linker_0, # of connection points: 2
#     Edge 45, Type (0, 0), BuildingBlock: AJUNOK_clean_linker_0, # of connection points: 2
#     Edge 46, Type (0, 0), BuildingBlock: AJUNOK_clean_linker_0, # of connection points: 2
#     Edge 47, Type (0, 0), BuildingBlock: AJUNOK_clean_linker_0, # of connection points: 2
#     Edge 48, Type (0, 0), BuildingBlock: AJUNOK_clean_linker_0, # of connection points: 2
#     Edge 49, Type (0, 0), BuildingBlock: AJUNOK_clean_linker_0, # of connection points: 2
#     Edge 50, Type (0, 0), BuildingBlock: AJUNOK_clean_linker_0, # of connection points: 2
#     Edge 51, Type (0, 0), BuildingBlock: AJUNOK_clean_linker_0, # of connection points: 2
#     Edge 52, Type (0, 0), BuildingBlock: AJUNOK_clean_linker_0, # of connection points: 2
#     Edge 53, Type (0, 0), BuildingBlock: AJUNOK_clean_linker_0, # of connection points: 2
#     Edge 54, Type (0, 0), BuildingBlock: AJUNOK_clean_linker_0, # of connection points: 2
#     Edge 55, Type (0, 0), BuildingBlock: AJUNOK_clean_linker_0, # of connection points: 2
#     Edge 56, Type (0, 0), BuildingBlock: AJUNOK_clean_linker_0, # of connection points: 2
#     Edge 57, Type (0, 0), BuildingBlock: AJUNOK_clean_linker_0, # of connection points: 2
#     Edge 58, Type (0, 0), BuildingBlock: AJUNOK_clean_linker_0, # of connection points: 2
#     Edge 59, Type (0, 0), BuildingBlock: AJUNOK_clean_linker_0, # of connection points: 2
#     Edge 60, Type (0, 0), BuildingBlock: AJUNOK_clean_linker_0, # of connection points: 2
#     Edge 61, Type (0, 0), BuildingBlock: AJUNOK_clean_linker_0, # of connection points: 2
#     Edge 62, Type (0, 0), BuildingBlock: AJUNOK_clean_linker_0, # of connection points: 2
#     Edge 63, Type (0, 0), BuildingBlock: AJUNOK_clean_linker_0, # of connection points: 2
#     Edge 64, Type (0, 0), BuildingBlock: AJUNOK_clean_linker_0, # of connection points: 2
#     Edge 65, Type (0, 0), BuildingBlock: AJUNOK_clean_linker_0, # of connection points: 2
#     Edge 66, Type (0, 0), BuildingBlock: AJUNOK_clean_linker_0, # of connection points: 2
#     Edge 67, Type (0, 0), BuildingBlock: AJUNOK_clean_linker_0, # of connection points: 2
#     Edge 68, Type (0, 0), BuildingBlock: AJUNOK_clean_linker_0, # of connection points: 2
#     Edge 69, Type (0, 0), BuildingBlock: AJUNOK_clean_linker_0, # of connection points: 2
#     Edge 70, Type (0, 0), BuildingBlock: AJUNOK_clean_linker_0, # of connection points: 2
#     Edge 71, Type (0, 0), BuildingBlock: AJUNOK_clean_linker_0, # of connection points: 2
# Relax obj value: 0.238
# Max RMSD: 0.085
# Mean RMSD: 0.085
data_MOF--net-lta--node1-UXUYUI_clean_sbu_0--edge1-AJUNOK_clean_linker_0
_symmetry_space_group_name_H-M    P1
_symmetry_Int_Tables_number       1
_symmetry_cell_setting            triclinic
loop_
_symmetry_equiv_pos_as_xyz
'x, y, z'
_cell_length_a     68.513426
_cell_length_b     68.49259
_cell_length_c     68.517303
_cell_angle_alpha  90.00199
_cell_angle_beta   90.022657
_cell_angle_gamma 90.00617
loop_
_atom_site_label
_atom_site_type_symbol
_atom_site_fract_x
_atom_site_fract_y
_atom_site_fract_z
_atom_type_partial_charge
Li0 Li 0.13179 0.32733 0.51822 0.0
Li1 Li 0.14177 0.29821 0.50077 0.0
Li2 Li 0.13044 0.32732 0.48201 0.0
Li3 Li 0.10784 0.30613 0.50001 0.0
C4 C 0.1678 0.33885 0.5005 0.0
N5 N 0.19619 0.36747 0.50275 0.0
C6 C 0.18678 0.33408 0.5063 0.0
C7 C 0.16339 0.35814 0.49553 0.0
C8 C 0.20089 0.34876 0.50745 0.0
C9 C 0.1779 0.37241 0.49683 0.0
C10 C 0.13048 0.28542 0.53518 0.0
C11 C 0.13303 0.25126 0.54328 0.0
N12 N 0.14523 0.25584 0.55827 0.0
C13 C 0.1429 0.28982 0.55075 0.0
C14 C 0.12535 0.26602 0.53149 0.0
C15 C 0.15025 0.27464 0.56223 0.0
C16 C 0.11846 0.34972 0.54939 0.0
N17 N 0.13505 0.34316 0.54072 0.0
C18 C 0.15473 0.36087 0.56342 0.0
C19 C 0.15299 0.34805 0.54767 0.0
C20 C 0.13784 0.36855 0.57209 0.0
C21 C 0.11952 0.36255 0.56515 0.0
H22 H 0.1044 0.34535 0.54369 0.0
H23 H 0.16594 0.34215 0.54095 0.0
C24 C 0.15872 0.26238 0.48894 0.0
N25 N 0.16026 0.27773 0.50142 0.0
C26 C 0.17257 0.24745 0.48934 0.0
C27 C 0.18929 0.26446 0.51539 0.0
C28 C 0.17507 0.27898 0.51455 0.0
C29 C 0.18818 0.24856 0.50254 0.0
H30 H 0.14687 0.26182 0.47856 0.0
H31 H 0.1758 0.29129 0.5244 0.0
C32 C 0.10085 0.35274 0.49959 0.0
N33 N 0.08236 0.38858 0.49738 0.0
C34 C 0.08166 0.35403 0.49275 0.0
C35 C 0.11047 0.3697 0.50566 0.0
C36 C 0.07262 0.37228 0.49162 0.0
C37 C 0.10092 0.38767 0.50435 0.0
C38 C 0.1129 0.28867 0.46537 0.0
C39 C 0.10704 0.29636 0.4474 0.0
C40 C 0.1064 0.27017 0.47104 0.0
C41 C 0.0945 0.2855 0.43551 0.0
C42 C 0.09385 0.2598 0.45876 0.0
N43 N 0.0882 0.26762 0.4414 0.0
C44 C 0.1509 0.34501 0.45057 0.0
C45 C 0.11705 0.35196 0.45212 0.0
C46 C 0.15307 0.35749 0.43458 0.0
N47 N 0.13317 0.34287 0.45923 0.0
C48 C 0.11855 0.36462 0.43628 0.0
C49 C 0.1368 0.36777 0.42751 0.0
H50 H 0.16342 0.33726 0.4563 0.0
H51 H 0.10303 0.34949 0.45881 0.0
C52 C 0.07448 0.28752 0.51585 0.0
N53 N 0.08173 0.29693 0.49996 0.0
C54 C 0.05481 0.28213 0.51647 0.0
C55 C 0.0507 0.29575 0.48416 0.0
C56 C 0.07033 0.30102 0.48425 0.0
C57 C 0.04269 0.28637 0.50049 0.0
H58 H 0.08384 0.28466 0.52824 0.0
H59 H 0.07635 0.30894 0.47202 0.0
O60 O 0.15381 0.3246 0.49937 0.0
O61 O 0.12344 0.30004 0.52356 0.0
O62 O 0.10986 0.3349 0.50087 0.0
O63 O 0.12502 0.29918 0.47727 0.0
H64 H 0.19061 0.31921 0.50994 0.0
H65 H 0.14904 0.36203 0.49038 0.0
H66 H 0.21559 0.34528 0.51205 0.0
H67 H 0.17464 0.38738 0.49302 0.0
H68 H 0.1293 0.23617 0.54051 0.0
H69 H 0.14699 0.30476 0.55382 0.0
H70 H 0.11565 0.2624 0.51957 0.0
H71 H 0.15998 0.27781 0.57425 0.0
H72 H 0.1691 0.36483 0.56869 0.0
H73 H 0.10616 0.36816 0.57148 0.0
H74 H 0.17134 0.23538 0.47919 0.0
H75 H 0.201 0.26562 0.52595 0.0
H76 H 0.07384 0.34113 0.48822 0.0
H77 H 0.12502 0.36905 0.51165 0.0
H78 H 0.05783 0.37346 0.4862 0.0
H79 H 0.10824 0.40088 0.50898 0.0
H80 H 0.11205 0.31057 0.4427 0.0
H81 H 0.11081 0.264 0.48487 0.0
H82 H 0.08977 0.29131 0.42162 0.0
H83 H 0.08858 0.24554 0.46304 0.0
H84 H 0.16729 0.35913 0.4279 0.0
H85 H 0.10563 0.3722 0.43123 0.0
H86 H 0.04904 0.27506 0.52937 0.0
H87 H 0.04169 0.29973 0.47179 0.0
Li88 Li 0.70066 0.13946 0.49535 0.0
Li89 Li 0.67233 0.12864 0.514 0.0
Li90 Li 0.69357 0.10508 0.49527 0.0
Li91 Li 0.67099 0.12677 0.47785 0.0
C92 C 0.71486 0.12768 0.53003 0.0
N93 N 0.74481 0.14081 0.55363 0.0
C94 C 0.7107 0.13873 0.54667 0.0
C95 C 0.73421 0.12304 0.52556 0.0
C96 C 0.72606 0.14529 0.55837 0.0
C97 C 0.74915 0.1299 0.53762 0.0
C98 C 0.66067 0.16513 0.49795 0.0
C99 C 0.6277 0.17751 0.49778 0.0
N100 N 0.63431 0.19496 0.50456 0.0
C101 C 0.66715 0.18328 0.50468 0.0
C102 C 0.64081 0.16229 0.49427 0.0
C103 C 0.65359 0.19814 0.50802 0.0
C104 C 0.73342 0.15917 0.47972 0.0
N105 N 0.72068 0.15854 0.49491 0.0
C106 C 0.73615 0.1859 0.50998 0.0
C107 C 0.72174 0.17155 0.50984 0.0
C108 C 0.7494 0.18705 0.4944 0.0
C109 C 0.74803 0.17338 0.47919 0.0
H110 H 0.73213 0.14877 0.46793 0.0
H111 H 0.71132 0.17081 0.52165 0.0
C112 C 0.65011 0.11494 0.54512 0.0
N113 N 0.65719 0.13162 0.53705 0.0
C114 C 0.63804 0.11577 0.56147 0.0
C115 C 0.64136 0.15091 0.56142 0.0
C116 C 0.6534 0.14939 0.54505 0.0
C117 C 0.63344 0.13395 0.56974 0.0
H118 H 0.65355 0.10099 0.53858 0.0
H119 H 0.65966 0.1624 0.53875 0.0
C120 C 0.71016 0.11058 0.46019 0.0
N121 N 0.73236 0.08695 0.43621 0.0
C122 C 0.70237 0.1035 0.44271 0.0
C123 C 0.72933 0.10588 0.46533 0.0
C124 C 0.71381 0.09152 0.43082 0.0
C125 C 0.74029 0.09384 0.45306 0.0
C126 C 0.64699 0.09734 0.49543 0.0
C127 C 0.64574 0.07818 0.48849 0.0
C128 C 0.62995 0.10717 0.50085 0.0
C129 C 0.62744 0.06938 0.4866 0.0
C130 C 0.61193 0.09787 0.49877 0.0
N131 N 0.61105 0.07933 0.49171 0.0
C132 C 0.71242 0.07242 0.51189 0.0
C133 C 0.69951 0.06725 0.4802 0.0
C134 C 0.71749 0.05272 0.51339 0.0
N135 N 0.70339 0.07918 0.49557 0.0
C136 C 0.7045 0.04754 0.48098 0.0
C137 C 0.71329 0.04002 0.49787 0.0
H138 H 0.71501 0.08217 0.52404 0.0
H139 H 0.69174 0.07284 0.46767 0.0
C140 C 0.64912 0.1463 0.44834 0.0
N141 N 0.65416 0.12862 0.45586 0.0
C142 C 0.63523 0.14751 0.43343 0.0
C143 C 0.63283 0.11229 0.43367 0.0
C144 C 0.64682 0.11176 0.44841 0.0
C145 C 0.62658 0.13035 0.42635 0.0
H146 H 0.6555 0.15947 0.45425 0.0
H147 H 0.65169 0.09789 0.45407 0.0
O148 O 0.70003 0.12128 0.5183 0.0
O149 O 0.67379 0.15039 0.49469 0.0
O150 O 0.69912 0.12219 0.47209 0.0
O151 O 0.66483 0.1062 0.49728 0.0
H152 H 0.6958 0.14235 0.5504 0.0
H153 H 0.73764 0.11428 0.5129 0.0
H154 H 0.72308 0.15398 0.57122 0.0
H155 H 0.76421 0.12654 0.53426 0.0
H156 H 0.61229 0.17547 0.49502 0.0
H157 H 0.68247 0.18588 0.50736 0.0
H158 H 0.63557 0.1486 0.4885 0.0
H159 H 0.65841 0.21221 0.51335 0.0
H160 H 0.73697 0.19592 0.52218 0.0
H161 H 0.75795 0.17386 0.4669 0.0
H162 H 0.63195 0.10238 0.56726 0.0
H163 H 0.63824 0.16517 0.5675 0.0
H164 H 0.68762 0.10714 0.43842 0.0
H165 H 0.73564 0.1114 0.47869 0.0
H166 H 0.70793 0.08584 0.41731 0.0
H167 H 0.75511 0.08999 0.45693 0.0
H168 H 0.65874 0.07023 0.48445 0.0
H169 H 0.63061 0.12171 0.50688 0.0
H170 H 0.62628 0.05463 0.48109 0.0
H171 H 0.59864 0.10535 0.50286 0.0
H172 H 0.7241 0.04734 0.52671 0.0
H173 H 0.70056 0.03808 0.46893 0.0
H174 H 0.63082 0.16168 0.42797 0.0
H175 H 0.62677 0.09874 0.42819 0.0
Li176 Li 0.8555 0.69914 0.50098 0.0
Li177 Li 0.86604 0.67107 0.51867 0.0
Li178 Li 0.88956 0.69196 0.50265 0.0
Li179 Li 0.86843 0.67138 0.48361 0.0
C180 C 0.87649 0.71716 0.53092 0.0
N181 N 0.88531 0.75447 0.54346 0.0
C182 C 0.87869 0.72103 0.55082 0.0
C183 C 0.87878 0.73226 0.51739 0.0
C184 C 0.88315 0.74 0.55687 0.0
C185 C 0.88323 0.75103 0.52402 0.0
C186 C 0.82651 0.67222 0.50858 0.0
C187 C 0.79212 0.6647 0.50838 0.0
N188 N 0.79049 0.6722 0.52669 0.0
C189 C 0.82449 0.67984 0.5274 0.0
C190 C 0.81021 0.66459 0.49898 0.0
C191 C 0.80616 0.67969 0.53631 0.0
C192 C 0.82965 0.72482 0.48233 0.0
N193 N 0.83648 0.71914 0.50006 0.0
C194 C 0.81552 0.74175 0.51625 0.0
C195 C 0.82975 0.72724 0.51687 0.0
C196 C 0.80809 0.74784 0.49816 0.0
C197 C 0.81536 0.73928 0.48102 0.0
H198 H 0.83529 0.71804 0.46923 0.0
H199 H 0.83534 0.72236 0.53079 0.0
C200 C 0.87598 0.65724 0.55548 0.0
N201 N 0.86292 0.6547 0.54077 0.0
C202 C 0.87634 0.64432 0.5712 0.0
C203 C 0.84936 0.62678 0.55664 0.0
C204 C 0.84957 0.64 0.54115 0.0
C205 C 0.86317 0.62863 0.57166 0.0
H206 H 0.88652 0.66897 0.55464 0.0
H207 H 0.83957 0.6381 0.52909 0.0
C208 C 0.88612 0.70115 0.46298 0.0
N209 N 0.90966 0.70459 0.43042 0.0
C210 C 0.90288 0.68966 0.46118 0.0
C211 C 0.88134 0.7144 0.44823 0.0
C212 C 0.91459 0.69161 0.44461 0.0
C213 C 0.89342 0.71592 0.43187 0.0
C214 C 0.8905 0.64326 0.50337 0.0
C215 C 0.9086 0.63485 0.50757 0.0
C216 C 0.87429 0.63125 0.5002 0.0
C217 C 0.91019 0.61454 0.50855 0.0
C218 C 0.87648 0.61101 0.50132 0.0
N219 N 0.89423 0.60314 0.50544 0.0
C220 C 0.9276 0.69088 0.51583 0.0
C221 C 0.92154 0.71804 0.49522 0.0
C222 C 0.94735 0.69556 0.5168 0.0
N223 N 0.91528 0.70186 0.50487 0.0
C224 C 0.94124 0.72329 0.4958 0.0
C225 C 0.95443 0.71183 0.50653 0.0
H226 H 0.92214 0.67811 0.52333 0.0
H227 H 0.9114 0.72651 0.48659 0.0
C228 C 0.85001 0.6552 0.45022 0.0
N229 N 0.86697 0.65602 0.46049 0.0
C230 C 0.84867 0.64351 0.43354 0.0
C231 C 0.88228 0.63391 0.43835 0.0
C232 C 0.88299 0.64581 0.4548 0.0
C233 C 0.86498 0.63269 0.42744 0.0
H234 H 0.8375 0.66351 0.4551 0.0
H235 H 0.89631 0.64664 0.4632 0.0
O236 O 0.87217 0.69861 0.52489 0.0
O237 O 0.84424 0.67235 0.49939 0.0
O238 O 0.87431 0.69953 0.47901 0.0
O239 O 0.88872 0.66316 0.50263 0.0
H240 H 0.87697 0.70948 0.56147 0.0
H241 H 0.87709 0.7296 0.50193 0.0
H242 H 0.88489 0.7432 0.57223 0.0
H243 H 0.88503 0.76285 0.51371 0.0
H244 H 0.77938 0.65885 0.50112 0.0
H245 H 0.83692 0.6858 0.53508 0.0
H246 H 0.81153 0.65866 0.48439 0.0
H247 H 0.80439 0.68556 0.55086 0.0
H248 H 0.81017 0.74796 0.52977 0.0
H249 H 0.81016 0.74382 0.4668 0.0
H250 H 0.88706 0.64628 0.58266 0.0
H251 H 0.8391 0.61475 0.55647 0.0
H252 H 0.9069 0.6794 0.47246 0.0
H253 H 0.86842 0.72341 0.44941 0.0
H254 H 0.92761 0.68281 0.44305 0.0
H255 H 0.88989 0.72611 0.42034 0.0
H256 H 0.9213 0.64391 0.51004 0.0
H257 H 0.86016 0.63745 0.49694 0.0
H258 H 0.92411 0.60783 0.5118 0.0
H259 H 0.86406 0.60156 0.49892 0.0
H260 H 0.9571 0.68606 0.52484 0.0
H261 H 0.9462 0.7359 0.48765 0.0
H262 H 0.83505 0.6429 0.42552 0.0
H263 H 0.89502 0.62538 0.4345 0.0
Li264 Li 0.32656 0.86633 0.51614 0.0
Li265 Li 0.29749 0.85612 0.49867 0.0
Li266 Li 0.32694 0.86556 0.47979 0.0
Li267 Li 0.30629 0.88988 0.49612 0.0
C268 C 0.33835 0.82986 0.49991 0.0
N269 N 0.36813 0.80279 0.50287 0.0
C270 C 0.33419 0.81052 0.50491 0.0
C271 C 0.35764 0.83537 0.49625 0.0
C272 C 0.34945 0.79707 0.50639 0.0
C273 C 0.37249 0.8215 0.49785 0.0
C274 C 0.28465 0.86943 0.53222 0.0
C275 C 0.25055 0.86857 0.54083 0.0
N276 N 0.25471 0.856 0.55563 0.0
C277 C 0.28864 0.85664 0.5476 0.0
C278 C 0.2655 0.87559 0.52888 0.0
C279 C 0.27328 0.84997 0.55925 0.0
C280 C 0.3452 0.88155 0.54876 0.0
N281 N 0.34179 0.86447 0.53927 0.0
C282 C 0.36149 0.84706 0.56219 0.0
C283 C 0.34931 0.84732 0.54585 0.0
C284 C 0.36557 0.86454 0.57211 0.0
C285 C 0.35708 0.88193 0.5653 0.0
H286 H 0.33891 0.89494 0.54324 0.0
H287 H 0.34615 0.83386 0.53835 0.0
C288 C 0.26065 0.84032 0.48834 0.0
N289 N 0.27648 0.83821 0.50011 0.0
C290 C 0.24518 0.82714 0.48953 0.0
C291 C 0.2627 0.80976 0.51479 0.0
C292 C 0.27781 0.8233 0.51313 0.0
C293 C 0.24612 0.81167 0.50292 0.0
H294 H 0.26009 0.85211 0.47792 0.0
H295 H 0.2906 0.82201 0.52228 0.0
C296 C 0.35241 0.89632 0.49562 0.0
N297 N 0.38757 0.91591 0.49215 0.0
C298 C 0.35338 0.91407 0.48558 0.0
C299 C 0.36932 0.88876 0.50421 0.0
C300 C 0.37129 0.92368 0.48388 0.0
C301 C 0.38695 0.89881 0.50222 0.0
C302 C 0.28814 0.88239 0.46171 0.0
C303 C 0.29472 0.88561 0.44267 0.0
C304 C 0.27024 0.89019 0.46763 0.0
C305 C 0.28337 0.89678 0.42993 0.0
C306 C 0.25932 0.90129 0.45447 0.0
N307 N 0.26606 0.90434 0.43605 0.0
C308 C 0.34705 0.84355 0.45053 0.0
C309 C 0.34936 0.878 0.44813 0.0
C310 C 0.35976 0.84128 0.43474 0.0
N311 N 0.34261 0.86172 0.45721 0.0
C312 C 0.36201 0.87642 0.43229 0.0
C313 C 0.36767 0.85788 0.42569 0.0
H314 H 0.34099 0.83083 0.45763 0.0
H315 H 0.34497 0.89223 0.45324 0.0
C316 C 0.2919 0.92546 0.51106 0.0
N317 N 0.29831 0.91638 0.49463 0.0
C318 C 0.28825 0.94553 0.51093 0.0
C319 C 0.2971 0.94628 0.47678 0.0
C320 C 0.30082 0.92631 0.47765 0.0
C321 C 0.2911 0.95623 0.49366 0.0
H322 H 0.29039 0.91724 0.52446 0.0
H323 H 0.30645 0.91889 0.46493 0.0
O324 O 0.32355 0.84321 0.49856 0.0
O325 O 0.29941 0.87573 0.52038 0.0
O326 O 0.33489 0.88686 0.49765 0.0
O327 O 0.29915 0.87159 0.4744 0.0
H328 H 0.31933 0.80593 0.50766 0.0
H329 H 0.36107 0.85011 0.49191 0.0
H330 H 0.34644 0.78207 0.51032 0.0
H331 H 0.38748 0.82559 0.49502 0.0
H332 H 0.23563 0.8731 0.53834 0.0
H333 H 0.30339 0.85172 0.55036 0.0
H334 H 0.26221 0.88562 0.51714 0.0
H335 H 0.27612 0.83995 0.57112 0.0
H336 H 0.36804 0.83338 0.56663 0.0
H337 H 0.35974 0.89571 0.57259 0.0
H338 H 0.2328 0.82881 0.47984 0.0
H339 H 0.26391 0.79799 0.52528 0.0
H340 H 0.3405 0.92031 0.479 0.0
H341 H 0.36891 0.87536 0.51252 0.0
H342 H 0.37223 0.93733 0.476 0.0
H343 H 0.40012 0.89307 0.50876 0.0
H344 H 0.30844 0.87954 0.43777 0.0
H345 H 0.26495 0.88788 0.48231 0.0
H346 H 0.28831 0.89943 0.41517 0.0
H347 H 0.24551 0.90752 0.45891 0.0
H348 H 0.36344 0.82674 0.42974 0.0
H349 H 0.3677 0.88957 0.4256 0.0
H350 H 0.28413 0.9527 0.52439 0.0
H351 H 0.29948 0.95398 0.46318 0.0
Li352 Li 0.10429 0.69674 0.49916 0.0
Li353 Li 0.12635 0.67566 0.5179 0.0
Li354 Li 0.13744 0.70434 0.50084 0.0
Li355 Li 0.12714 0.67586 0.48218 0.0
C356 C 0.12715 0.71628 0.53558 0.0
N357 N 0.14501 0.743 0.55998 0.0
C358 C 0.13917 0.70987 0.55078 0.0
C359 C 0.12404 0.73628 0.53295 0.0
C360 C 0.1481 0.72361 0.56293 0.0
C361 C 0.13327 0.74956 0.54538 0.0
C362 C 0.10333 0.64809 0.49871 0.0
C363 C 0.11706 0.61567 0.49924 0.0
N364 N 0.09886 0.60804 0.49707 0.0
C365 C 0.08477 0.63994 0.49647 0.0
C366 C 0.11963 0.63588 0.50009 0.0
C367 C 0.08281 0.61965 0.49568 0.0
C368 C 0.06572 0.69583 0.48642 0.0
N369 N 0.07809 0.70534 0.49865 0.0
C370 C 0.05185 0.72399 0.51197 0.0
C371 C 0.07168 0.71938 0.51111 0.0
C372 C 0.03859 0.71376 0.50014 0.0
C373 C 0.04579 0.69986 0.48691 0.0
H374 H 0.07131 0.68466 0.47676 0.0
H375 H 0.08189 0.72662 0.52072 0.0
C376 C 0.14554 0.65276 0.54665 0.0
N377 N 0.128 0.65915 0.53993 0.0
C378 C 0.14634 0.63959 0.5622 0.0
C379 C 0.11105 0.63998 0.56354 0.0
C380 C 0.11094 0.65323 0.5481 0.0
C381 C 0.12891 0.63295 0.57069 0.0
H382 H 0.15884 0.65772 0.53978 0.0
H383 H 0.09723 0.65856 0.54234 0.0
C384 C 0.10893 0.71521 0.46627 0.0
N385 N 0.08292 0.73804 0.44549 0.0
C386 C 0.10249 0.70927 0.44785 0.0
C387 C 0.10246 0.73299 0.47391 0.0
C388 C 0.08927 0.72096 0.43762 0.0
C389 C 0.08921 0.74426 0.46326 0.0
C390 C 0.16711 0.67805 0.49147 0.0
C391 C 0.16925 0.68883 0.47425 0.0
C392 C 0.18308 0.66783 0.499 0.0
C393 C 0.18733 0.68914 0.46485 0.0
C394 C 0.20091 0.66849 0.48915 0.0
N395 N 0.20265 0.67904 0.47242 0.0
C396 C 0.17157 0.72243 0.51454 0.0
C397 C 0.15469 0.74045 0.49027 0.0
C398 C 0.18593 0.7368 0.51574 0.0
N399 N 0.15632 0.72457 0.50203 0.0
C400 C 0.16872 0.75518 0.49098 0.0
C401 C 0.18454 0.75345 0.5039 0.0
H402 H 0.17259 0.70949 0.52353 0.0
H403 H 0.14265 0.74158 0.48017 0.0
C404 C 0.11306 0.65606 0.44966 0.0
N405 N 0.12959 0.6587 0.46032 0.0
C406 C 0.11267 0.64261 0.43438 0.0
C407 C 0.14624 0.63447 0.44152 0.0
C408 C 0.14599 0.64811 0.45665 0.0
C409 C 0.12936 0.63146 0.43031 0.0
H410 H 0.1 0.66411 0.45337 0.0
H411 H 0.15871 0.64969 0.46578 0.0
O412 O 0.11862 0.70304 0.52327 0.0
O413 O 0.10546 0.66795 0.4992 0.0
O414 O 0.12171 0.70384 0.47663 0.0
O415 O 0.14966 0.67777 0.5012 0.0
H416 H 0.14177 0.69449 0.55306 0.0
H417 H 0.11478 0.74154 0.52132 0.0
H418 H 0.15753 0.71885 0.57467 0.0
H419 H 0.13112 0.76508 0.5434 0.0
H420 H 0.12954 0.60605 0.50027 0.0
H421 H 0.07202 0.64921 0.49531 0.0
H422 H 0.13413 0.64192 0.50171 0.0
H423 H 0.06853 0.61313 0.49394 0.0
H424 H 0.0469 0.73507 0.52209 0.0
H425 H 0.03603 0.69156 0.47763 0.0
H426 H 0.16036 0.63426 0.56717 0.0
H427 H 0.09733 0.63517 0.56976 0.0
H428 H 0.10777 0.69589 0.4414 0.0
H429 H 0.10739 0.7379 0.48806 0.0
H430 H 0.08411 0.71647 0.42338 0.0
H431 H 0.08392 0.75793 0.46913 0.0
H432 H 0.15714 0.69688 0.46816 0.0
H433 H 0.18171 0.65946 0.51232 0.0
H434 H 0.18918 0.69741 0.45153 0.0
H435 H 0.21338 0.66063 0.49481 0.0
H436 H 0.19797 0.73494 0.52582 0.0
H437 H 0.16744 0.76759 0.48127 0.0
H438 H 0.0994 0.64082 0.42597 0.0
H439 H 0.1593 0.62592 0.439 0.0
Li440 Li 0.32572 0.12977 0.51748 0.0
Li441 Li 0.30534 0.10705 0.49901 0.0
Li442 Li 0.3254 0.13183 0.4819 0.0
Li443 Li 0.29666 0.14129 0.49999 0.0
C444 C 0.35064 0.10018 0.50225 0.0
N445 N 0.38478 0.08028 0.5103 0.0
C446 C 0.34997 0.08192 0.51133 0.0
C447 C 0.36864 0.10814 0.4969 0.0
C448 C 0.3674 0.07214 0.51539 0.0
C449 C 0.38575 0.0979 0.50119 0.0
C450 C 0.2793 0.11808 0.52812 0.0
C451 C 0.24635 0.10843 0.52031 0.0
N452 N 0.24167 0.10924 0.53958 0.0
C453 C 0.27417 0.11881 0.54783 0.0
C454 C 0.2653 0.11285 0.51422 0.0
C455 C 0.25507 0.11428 0.55334 0.0
C456 C 0.34718 0.1501 0.54658 0.0
N457 N 0.34137 0.1322 0.54028 0.0
C458 C 0.35929 0.11666 0.56584 0.0
C459 C 0.34668 0.11567 0.54987 0.0
C460 C 0.36617 0.13489 0.57218 0.0
C461 C 0.35979 0.15179 0.5625 0.0
H462 H 0.3422 0.16309 0.53914 0.0
H463 H 0.34131 0.10168 0.54499 0.0
C464 C 0.29757 0.072 0.48003 0.0
N465 N 0.29725 0.08078 0.4978 0.0
C466 C 0.29419 0.05199 0.47847 0.0
C467 C 0.28955 0.05061 0.51345 0.0
C468 C 0.29315 0.07065 0.51436 0.0
C469 C 0.2904 0.04103 0.49536 0.0
H470 H 0.30116 0.08046 0.46719 0.0
H471 H 0.29345 0.07797 0.52833 0.0
C472 C 0.33569 0.16822 0.49807 0.0
N473 N 0.36186 0.19817 0.49136 0.0
C474 C 0.32896 0.18669 0.49256 0.0
C475 C 0.35571 0.16504 0.50031 0.0
C476 C 0.34243 0.20163 0.48919 0.0
C477 C 0.36871 0.18035 0.49682 0.0
C478 C 0.29148 0.13324 0.46002 0.0
C479 C 0.2954 0.15306 0.45717 0.0
C480 C 0.2812 0.12283 0.4458 0.0
C481 C 0.28893 0.16216 0.44012 0.0
C482 C 0.27498 0.13246 0.42894 0.0
N483 N 0.27894 0.15176 0.42647 0.0
C484 C 0.3469 0.1185 0.45045 0.0
C485 C 0.34591 0.15308 0.45181 0.0
C486 C 0.35881 0.11914 0.43396 0.0
N487 N 0.34094 0.1353 0.45915 0.0
C488 C 0.35803 0.1544 0.43549 0.0
C489 C 0.36463 0.13726 0.42645 0.0
H490 H 0.34256 0.10458 0.4565 0.0
H491 H 0.34056 0.16625 0.45855 0.0
C492 C 0.27844 0.17494 0.5133 0.0
N493 N 0.27593 0.15936 0.5013 0.0
C494 C 0.26421 0.18944 0.51434 0.0
C495 C 0.24489 0.17133 0.49097 0.0
C496 C 0.25945 0.1571 0.49048 0.0
C497 C 0.24735 0.18789 0.50279 0.0
H498 H 0.29163 0.17615 0.5219 0.0
H499 H 0.25772 0.14442 0.48126 0.0
O500 O 0.3337 0.10989 0.49806 0.0
O501 O 0.29795 0.12258 0.52256 0.0
O502 O 0.32268 0.15341 0.50123 0.0
O503 O 0.29773 0.12393 0.47654 0.0
H504 H 0.33615 0.07545 0.51537 0.0
H505 H 0.36942 0.12196 0.48934 0.0
H506 H 0.36711 0.05808 0.52257 0.0
H507 H 0.39979 0.10392 0.4972 0.0
H508 H 0.23537 0.10437 0.50971 0.0
H509 H 0.28485 0.12286 0.55876 0.0
H510 H 0.26897 0.11217 0.49889 0.0
H511 H 0.25089 0.11479 0.56856 0.0
H512 H 0.36401 0.10326 0.57279 0.0
H513 H 0.36461 0.16612 0.56713 0.0
H514 H 0.29504 0.04503 0.46429 0.0
H515 H 0.28709 0.04254 0.52682 0.0
H516 H 0.3135 0.18942 0.49078 0.0
H517 H 0.36112 0.15094 0.50484 0.0
H518 H 0.33743 0.21597 0.48484 0.0
H519 H 0.38425 0.17808 0.49849 0.0
H520 H 0.30328 0.16134 0.46801 0.0
H521 H 0.27808 0.10746 0.4478 0.0
H522 H 0.29185 0.1775 0.43774 0.0
H523 H 0.267 0.12459 0.41781 0.0
H524 H 0.36379 0.10563 0.42741 0.0
H525 H 0.36218 0.16862 0.42995 0.0
H526 H 0.2664 0.20174 0.52402 0.0
H527 H 0.23205 0.16961 0.4819 0.0
Li528 Li 0.89286 0.30258 0.49917 0.0
Li529 Li 0.86873 0.32261 0.51626 0.0
Li530 Li 0.85802 0.29459 0.49557 0.0
Li531 Li 0.86992 0.32505 0.48119 0.0
C532 C 0.87814 0.2777 0.52975 0.0
N533 N 0.88594 0.24374 0.55008 0.0
C534 C 0.882 0.27839 0.54977 0.0
C535 C 0.87802 0.25972 0.52012 0.0
C536 C 0.88598 0.26107 0.55978 0.0
C537 C 0.88205 0.24272 0.53064 0.0
C538 C 0.89906 0.34612 0.51079 0.0
C539 C 0.89775 0.37868 0.52416 0.0
N540 N 0.91479 0.3753 0.53377 0.0
C541 C 0.91663 0.34302 0.52069 0.0
C542 C 0.8896 0.36414 0.5124 0.0
C543 C 0.92433 0.35795 0.53226 0.0
C544 C 0.92964 0.29619 0.48352 0.0
N545 N 0.91885 0.29325 0.49987 0.0
C546 C 0.9467 0.28104 0.51692 0.0
C547 C 0.92688 0.28571 0.51638 0.0
C548 C 0.95832 0.28433 0.50037 0.0
C549 C 0.94952 0.29182 0.48343 0.0
H550 H 0.9229 0.30259 0.47075 0.0
H551 H 0.91813 0.28401 0.52936 0.0
C552 C 0.84819 0.34765 0.54187 0.0
N553 N 0.86457 0.3367 0.53973 0.0
C554 C 0.84627 0.36015 0.55784 0.0
C555 C 0.87782 0.34935 0.56938 0.0
C556 C 0.879 0.33685 0.55335 0.0
C557 C 0.86141 0.36143 0.57163 0.0
H558 H 0.83688 0.34711 0.53089 0.0
H559 H 0.89186 0.32795 0.55125 0.0
C560 C 0.88068 0.28348 0.4613 0.0
N561 N 0.88651 0.25431 0.43404 0.0
C562 C 0.8732 0.28543 0.44242 0.0
C563 C 0.89137 0.2668 0.46622 0.0
C564 C 0.87623 0.27049 0.42887 0.0
C565 C 0.8941 0.25219 0.45226 0.0
C566 C 0.83217 0.33084 0.48795 0.0
C567 C 0.81829 0.32043 0.47722 0.0
C568 C 0.83151 0.35124 0.48826 0.0
C569 C 0.80404 0.33065 0.46679 0.0
C570 C 0.81706 0.36091 0.4776 0.0
N571 N 0.80375 0.35051 0.46717 0.0
C572 C 0.82754 0.27251 0.50987 0.0
C573 C 0.83722 0.26241 0.47822 0.0
C574 C 0.81282 0.25846 0.51024 0.0
N575 N 0.8393 0.27426 0.49401 0.0
C576 C 0.82275 0.24806 0.47801 0.0
C577 C 0.81025 0.24613 0.49409 0.0
H578 H 0.82957 0.28216 0.52221 0.0
H579 H 0.84655 0.26414 0.46569 0.0
C580 C 0.87965 0.35825 0.45916 0.0
N581 N 0.86769 0.34243 0.45958 0.0
C582 C 0.8781 0.37191 0.44415 0.0
C583 C 0.85223 0.35254 0.42996 0.0
C584 C 0.85429 0.33923 0.44527 0.0
C585 C 0.86421 0.36916 0.42935 0.0
H586 H 0.89037 0.36032 0.47053 0.0
H587 H 0.845 0.3265 0.4459 0.0
O588 O 0.87419 0.29456 0.51981 0.0
O589 O 0.89109 0.33154 0.49969 0.0
O590 O 0.87792 0.29805 0.47469 0.0
O591 O 0.84633 0.3211 0.49812 0.0
H592 H 0.88199 0.29218 0.55749 0.0
H593 H 0.87467 0.25885 0.50475 0.0
H594 H 0.88909 0.2614 0.57525 0.0
H595 H 0.88202 0.22871 0.52335 0.0
H596 H 0.89049 0.39262 0.52568 0.0
H597 H 0.92416 0.32919 0.51958 0.0
H598 H 0.876 0.36678 0.50484 0.0
H599 H 0.93786 0.35572 0.5401 0.0
H600 H 0.953 0.27544 0.5303 0.0
H601 H 0.95805 0.29513 0.47055 0.0
H602 H 0.83329 0.36909 0.55912 0.0
H603 H 0.89005 0.35017 0.57936 0.0
H604 H 0.86505 0.29829 0.43828 0.0
H605 H 0.89765 0.26518 0.4806 0.0
H606 H 0.87042 0.27176 0.41425 0.0
H607 H 0.9023 0.2392 0.4559 0.0
H608 H 0.81857 0.30465 0.47682 0.0
H609 H 0.84215 0.35951 0.49648 0.0
H610 H 0.79325 0.3228 0.45834 0.0
H611 H 0.81646 0.37669 0.47759 0.0
H612 H 0.80359 0.25719 0.523 0.0
H613 H 0.82111 0.23882 0.46528 0.0
H614 H 0.88771 0.38447 0.44407 0.0
H615 H 0.84116 0.35006 0.41896 0.0
Li616 Li 0.69235 0.89056 0.5032 0.0
Li617 Li 0.67047 0.86692 0.51876 0.0
Li618 Li 0.69965 0.85548 0.50014 0.0
Li619 Li 0.67072 0.86815 0.48348 0.0
C620 C 0.71421 0.87706 0.53554 0.0
N621 N 0.74586 0.88807 0.55799 0.0
C622 C 0.71164 0.88205 0.55516 0.0
C623 C 0.7329 0.87745 0.52742 0.0
C624 C 0.72782 0.88764 0.56625 0.0
C625 C 0.74871 0.8831 0.53899 0.0
C626 C 0.64847 0.89813 0.51158 0.0
C627 C 0.6146 0.89934 0.52108 0.0
N628 N 0.61842 0.91531 0.53224 0.0
C629 C 0.65203 0.91464 0.52302 0.0
C630 C 0.62958 0.89051 0.51044 0.0
C631 C 0.63665 0.9231 0.53339 0.0
C632 C 0.70064 0.92631 0.48658 0.0
N633 N 0.70237 0.91639 0.50366 0.0
C634 C 0.7145 0.94489 0.51971 0.0
C635 C 0.70925 0.92519 0.52008 0.0
C636 C 0.71246 0.95562 0.50236 0.0
C637 C 0.70558 0.94603 0.48559 0.0
H638 H 0.69476 0.919 0.47387 0.0
H639 H 0.71001 0.9172 0.53362 0.0
C640 C 0.64283 0.84656 0.54154 0.0
N641 N 0.6543 0.86273 0.54092 0.0
C642 C 0.62917 0.84425 0.55645 0.0
C643 C 0.64016 0.87475 0.57044 0.0
C644 C 0.65357 0.87649 0.55521 0.0
C645 C 0.62744 0.8587 0.57085 0.0
H646 H 0.64396 0.83565 0.53024 0.0
H647 H 0.66294 0.88916 0.5544 0.0
C648 C 0.71357 0.87634 0.46649 0.0
N649 N 0.7443 0.87844 0.44046 0.0
C650 C 0.71194 0.86787 0.448 0.0
C651 C 0.73066 0.88624 0.47158 0.0
C652 C 0.72769 0.86897 0.4351 0.0
C653 C 0.74607 0.88705 0.45826 0.0
C654 C 0.66215 0.83058 0.49098 0.0
C655 C 0.67152 0.81444 0.48274 0.0
C656 C 0.64187 0.83232 0.48947 0.0
C657 C 0.66045 0.80041 0.4729 0.0
C658 C 0.63132 0.818 0.47949 0.0
N659 N 0.64075 0.80248 0.47147 0.0
C660 C 0.72749 0.82983 0.5159 0.0
C661 C 0.72541 0.82919 0.48137 0.0
C662 C 0.742 0.81555 0.51564 0.0
N663 N 0.71969 0.83646 0.49891 0.0
C664 C 0.73985 0.81487 0.48041 0.0
C665 C 0.74826 0.80786 0.49772 0.0
H666 H 0.72232 0.83551 0.52968 0.0
H667 H 0.71852 0.83422 0.46814 0.0
C668 C 0.6427 0.88177 0.45718 0.0
N669 N 0.65536 0.86685 0.4604 0.0
C670 C 0.63069 0.88167 0.44075 0.0
C671 C 0.64496 0.85083 0.43118 0.0
C672 C 0.65698 0.85171 0.44763 0.0
C673 C 0.63168 0.86598 0.42766 0.0
H674 H 0.64189 0.89374 0.46743 0.0
H675 H 0.66749 0.84025 0.45028 0.0
O676 O 0.69847 0.87167 0.52448 0.0
O677 O 0.66341 0.88945 0.50158 0.0
O678 O 0.69822 0.8755 0.47923 0.0
O679 O 0.67277 0.8445 0.50061 0.0
H680 H 0.6973 0.88167 0.56174 0.0
H681 H 0.73522 0.87321 0.51242 0.0
H682 H 0.72603 0.89163 0.58142 0.0
H683 H 0.76326 0.88348 0.53287 0.0
H684 H 0.59994 0.8935 0.52046 0.0
H685 H 0.66655 0.92076 0.52404 0.0
H686 H 0.62654 0.87785 0.50152 0.0
H687 H 0.63921 0.93581 0.5424 0.0
H688 H 0.71961 0.9518 0.53299 0.0
H689 H 0.70318 0.95386 0.47208 0.0
H690 H 0.61981 0.8315 0.55654 0.0
H691 H 0.63919 0.88618 0.58131 0.0
H692 H 0.69873 0.86036 0.44372 0.0
H693 H 0.73197 0.89344 0.48555 0.0
H694 H 0.72669 0.86232 0.42081 0.0
H695 H 0.75942 0.89461 0.46204 0.0
H696 H 0.68716 0.81274 0.48392 0.0
H697 H 0.63438 0.84468 0.49579 0.0
H698 H 0.66751 0.78788 0.46639 0.0
H699 H 0.61564 0.81925 0.4781 0.0
H700 H 0.74803 0.81033 0.52929 0.0
H701 H 0.7444 0.80937 0.46631 0.0
H702 H 0.62049 0.89354 0.43845 0.0
H703 H 0.6461 0.83856 0.42127 0.0
Li704 Li 0.49592 0.14275 0.29595 0.0
Li705 Li 0.5121 0.13084 0.3248 0.0
Li706 Li 0.49441 0.10779 0.3031 0.0
Li707 Li 0.47675 0.1308 0.32395 0.0
C708 C 0.53592 0.13082 0.29202 0.0
N709 N 0.57242 0.14483 0.2822 0.0
C710 C 0.54045 0.1505 0.29485 0.0
C711 C 0.54994 0.11825 0.2842 0.0
C712 C 0.55898 0.15731 0.28979 0.0
C713 C 0.56832 0.12561 0.27932 0.0
C714 C 0.50008 0.1681 0.33497 0.0
C715 C 0.50444 0.18047 0.36764 0.0
N716 N 0.51215 0.19718 0.36019 0.0
C717 C 0.50786 0.18548 0.32762 0.0
C718 C 0.49819 0.16563 0.35512 0.0
C719 C 0.51394 0.19998 0.34062 0.0
C720 C 0.48447 0.17734 0.27799 0.0
N721 N 0.49614 0.16147 0.27571 0.0
C722 C 0.50718 0.17309 0.24479 0.0
C723 C 0.50729 0.159 0.25949 0.0
C724 C 0.49532 0.18967 0.24679 0.0
C725 C 0.48386 0.19175 0.26363 0.0
H726 H 0.47572 0.1788 0.29105 0.0
H727 H 0.51623 0.14609 0.25795 0.0
C728 C 0.5394 0.11531 0.35025 0.0
N729 N 0.53426 0.13239 0.34157 0.0
C730 C 0.55465 0.11479 0.3637 0.0
C731 C 0.55963 0.14934 0.35854 0.0
C732 C 0.54434 0.14915 0.34504 0.0
C733 C 0.56466 0.13206 0.36835 0.0
H734 H 0.53148 0.10209 0.34685 0.0
H735 H 0.54044 0.16245 0.33756 0.0
C736 C 0.46683 0.1222 0.27673 0.0
N737 N 0.45578 0.11653 0.23837 0.0
C738 C 0.44741 0.12495 0.27115 0.0
C739 C 0.48065 0.1166 0.26281 0.0
C740 C 0.44211 0.12199 0.25168 0.0
C741 C 0.47477 0.1138 0.24349 0.0
C742 C 0.48757 0.09944 0.34748 0.0
C743 C 0.4778 0.08171 0.34495 0.0
C744 C 0.49051 0.10676 0.36629 0.0
C745 C 0.4707 0.07181 0.36131 0.0
C746 C 0.48319 0.09643 0.38227 0.0
N747 N 0.47349 0.07933 0.37947 0.0
C748 C 0.51116 0.07155 0.29585 0.0
C749 C 0.47766 0.07326 0.28726 0.0
C750 C 0.51159 0.05165 0.29159 0.0
N751 N 0.49433 0.08181 0.29381 0.0
C752 C 0.47747 0.0534 0.28268 0.0
C753 C 0.49453 0.04228 0.28509 0.0
H754 H 0.52403 0.07871 0.30155 0.0
H755 H 0.46435 0.08167 0.28625 0.0
C756 C 0.44934 0.15146 0.34706 0.0
N757 N 0.45378 0.13381 0.33916 0.0
C758 C 0.43349 0.15334 0.35972 0.0
C759 C 0.42664 0.11901 0.35524 0.0
C760 C 0.44245 0.11788 0.34248 0.0
C761 C 0.4221 0.13688 0.36422 0.0
H762 H 0.45826 0.16404 0.34377 0.0
H763 H 0.44596 0.10416 0.33556 0.0
O764 O 0.51794 0.12376 0.29705 0.0
O765 O 0.49414 0.15371 0.32245 0.0
O766 O 0.47222 0.12526 0.29571 0.0
O767 O 0.49461 0.10934 0.33162 0.0
H768 H 0.52978 0.16039 0.30089 0.0
H769 H 0.54665 0.10295 0.28194 0.0
H770 H 0.56268 0.17252 0.29192 0.0
H771 H 0.57932 0.11605 0.27325 0.0
H772 H 0.50314 0.1787 0.38327 0.0
H773 H 0.50928 0.18774 0.31206 0.0
H774 H 0.4919 0.15244 0.36102 0.0
H775 H 0.5201 0.21346 0.33515 0.0
H776 H 0.51614 0.171 0.23193 0.0
H777 H 0.47475 0.20449 0.26578 0.0
H778 H 0.55851 0.10102 0.37045 0.0
H779 H 0.56715 0.16291 0.36159 0.0
H780 H 0.43656 0.12934 0.28176 0.0
H781 H 0.49575 0.11442 0.26683 0.0
H782 H 0.42712 0.12406 0.24714 0.0
H783 H 0.4853 0.10946 0.23256 0.0
H784 H 0.47554 0.07574 0.33052 0.0
H785 H 0.49847 0.12019 0.36855 0.0
H786 H 0.46296 0.05815 0.35956 0.0
H787 H 0.48528 0.10198 0.3969 0.0
H788 H 0.52488 0.04353 0.29425 0.0
H789 H 0.464 0.04668 0.27783 0.0
H790 H 0.43034 0.16744 0.36613 0.0
H791 H 0.4185 0.10586 0.35853 0.0
Li792 Li 0.86624 0.51772 0.32771 0.0
Li793 Li 0.85452 0.50092 0.29842 0.0
Li794 Li 0.86502 0.48249 0.32773 0.0
Li795 Li 0.88939 0.49783 0.30684 0.0
C796 C 0.82797 0.51031 0.33424 0.0
N797 N 0.79826 0.53011 0.353 0.0
C798 C 0.81258 0.51831 0.32349 0.0
C799 C 0.82815 0.51223 0.35456 0.0
C800 C 0.79771 0.5283 0.33324 0.0
C801 C 0.81303 0.52235 0.36376 0.0
C802 C 0.87613 0.53611 0.28656 0.0
C803 C 0.88946 0.54829 0.25633 0.0
N804 N 0.87985 0.56544 0.25909 0.0
C805 C 0.86661 0.55397 0.28922 0.0
C806 C 0.88784 0.53333 0.27009 0.0
C807 C 0.86858 0.56856 0.27512 0.0
C808 C 0.87996 0.54409 0.35546 0.0
N809 N 0.86472 0.54078 0.34321 0.0
C810 C 0.84858 0.56962 0.35446 0.0
C811 C 0.84934 0.55333 0.34222 0.0
C812 C 0.86404 0.57322 0.36737 0.0
C813 C 0.87994 0.56034 0.36772 0.0
H814 H 0.89211 0.53403 0.3558 0.0
H815 H 0.8376 0.55065 0.33204 0.0
C816 C 0.82876 0.48472 0.27104 0.0
N817 N 0.83622 0.50188 0.27765 0.0
C818 C 0.81501 0.48461 0.25603 0.0
C819 C 0.81662 0.51987 0.25513 0.0
C820 C 0.83038 0.51928 0.27011 0.0
C821 C 0.80871 0.50237 0.248 0.0
H822 H 0.83341 0.47111 0.27755 0.0
H823 H 0.8361 0.53273 0.27593 0.0
C824 C 0.89448 0.48958 0.35137 0.0
N825 N 0.90835 0.46856 0.38287 0.0
C826 C 0.91041 0.47705 0.34911 0.0
C827 C 0.88575 0.49163 0.36969 0.0
C828 C 0.91719 0.46652 0.36521 0.0
C829 C 0.89292 0.4808 0.38542 0.0
C830 C 0.87553 0.46758 0.28274 0.0
C831 C 0.87873 0.44743 0.28229 0.0
C832 C 0.87702 0.47841 0.26554 0.0
C833 C 0.88359 0.43849 0.26462 0.0
C834 C 0.88188 0.46894 0.24816 0.0
N835 N 0.88506 0.44934 0.24806 0.0
C836 C 0.84677 0.45954 0.35714 0.0
C837 C 0.87422 0.44519 0.34172 0.0
C838 C 0.84558 0.44398 0.37024 0.0
N839 N 0.86116 0.46002 0.34351 0.0
C840 C 0.87358 0.42935 0.35451 0.0
C841 C 0.85926 0.42876 0.36914 0.0
H842 H 0.83652 0.47146 0.35818 0.0
H843 H 0.88562 0.44608 0.33085 0.0
C844 C 0.92615 0.5131 0.29829 0.0
N845 N 0.91548 0.49639 0.29796 0.0
C846 C 0.94615 0.51256 0.29449 0.0
C847 C 0.94366 0.47768 0.28958 0.0
C848 C 0.92371 0.4789 0.29348 0.0
C849 C 0.95519 0.4946 0.29057 0.0
H850 H 0.91924 0.52674 0.30226 0.0
H851 H 0.91502 0.46575 0.29381 0.0
O852 O 0.84264 0.50048 0.32492 0.0
O853 O 0.87458 0.52176 0.3004 0.0
O854 O 0.88728 0.4996 0.33567 0.0
O855 O 0.87087 0.47653 0.29998 0.0
H856 H 0.81209 0.51682 0.30779 0.0
H857 H 0.83997 0.50623 0.36311 0.0
H858 H 0.78575 0.53461 0.3251 0.0
H859 H 0.81307 0.52408 0.37945 0.0
H860 H 0.89843 0.5463 0.24349 0.0
H861 H 0.85762 0.55646 0.30192 0.0
H862 H 0.89579 0.51986 0.26799 0.0
H863 H 0.86115 0.58238 0.27693 0.0
H864 H 0.83613 0.57935 0.35379 0.0
H865 H 0.89203 0.5626 0.37766 0.0
H866 H 0.80909 0.47084 0.251 0.0
H867 H 0.81221 0.53384 0.24917 0.0
H868 H 0.91734 0.4753 0.33505 0.0
H869 H 0.87349 0.50135 0.3717 0.0
H870 H 0.92942 0.45666 0.36365 0.0
H871 H 0.88621 0.48211 0.39964 0.0
H872 H 0.87754 0.4388 0.29547 0.0
H873 H 0.87421 0.49391 0.26557 0.0
H874 H 0.88619 0.42292 0.26407 0.0
H875 H 0.88305 0.47717 0.23473 0.0
H876 H 0.83431 0.44398 0.38131 0.0
H877 H 0.88464 0.4181 0.35345 0.0
H878 H 0.95461 0.52588 0.29557 0.0
H879 H 0.95013 0.46359 0.28646 0.0
Li880 Li 0.51841 0.87013 0.32622 0.0
Li881 Li 0.49951 0.89237 0.30535 0.0
Li882 Li 0.48227 0.86728 0.32608 0.0
Li883 Li 0.50012 0.8585 0.29688 0.0
C884 C 0.49928 0.89872 0.35193 0.0
N885 N 0.5001 0.91704 0.38791 0.0
C886 C 0.50497 0.91827 0.35342 0.0
C887 C 0.49366 0.88863 0.36877 0.0
C888 C 0.50541 0.92723 0.37173 0.0
C889 C 0.49425 0.89811 0.38681 0.0
C890 C 0.53441 0.88878 0.28777 0.0
C891 C 0.54034 0.90837 0.25913 0.0
N892 N 0.55755 0.91443 0.26696 0.0
C893 C 0.55223 0.89507 0.29547 0.0
C894 C 0.52848 0.89534 0.26938 0.0
C895 C 0.56369 0.90808 0.28474 0.0
C896 C 0.55102 0.85121 0.3438 0.0
N897 N 0.54133 0.86842 0.34176 0.0
C898 C 0.56351 0.8843 0.36343 0.0
C899 C 0.54748 0.88488 0.35094 0.0
C900 C 0.57363 0.86669 0.36616 0.0
C901 C 0.56729 0.85 0.35607 0.0
H902 H 0.54594 0.83838 0.33612 0.0
H903 H 0.53988 0.89847 0.34866 0.0
C904 C 0.48229 0.9256 0.28767 0.0
N905 N 0.49857 0.91866 0.29666 0.0
C906 C 0.48098 0.94534 0.28267 0.0
C907 C 0.51341 0.95018 0.29576 0.0
C908 C 0.51399 0.93047 0.30071 0.0
C909 C 0.49667 0.95784 0.2868 0.0
H910 H 0.47014 0.91591 0.28487 0.0
H911 H 0.52652 0.92471 0.30835 0.0
C912 C 0.50137 0.83193 0.3372 0.0
N913 N 0.49998 0.80326 0.36559 0.0
C914 C 0.49612 0.81282 0.33228 0.0
C915 C 0.50624 0.83634 0.35651 0.0
C916 C 0.4954 0.79857 0.34685 0.0
C917 C 0.50538 0.82168 0.37066 0.0
C918 C 0.46529 0.86882 0.28417 0.0
C919 C 0.45022 0.85568 0.28822 0.0
C920 C 0.46881 0.87452 0.26491 0.0
C921 C 0.4391 0.84819 0.27285 0.0
C922 C 0.45739 0.86668 0.24994 0.0
N923 N 0.44291 0.85377 0.25418 0.0
C924 C 0.45049 0.87907 0.3484 0.0
C925 C 0.45344 0.84465 0.3462 0.0
C926 C 0.43456 0.87725 0.36092 0.0
N927 N 0.45982 0.8629 0.3417 0.0
C928 C 0.43753 0.84215 0.3587 0.0
C929 C 0.42813 0.85861 0.36648 0.0
H930 H 0.45573 0.8934 0.34433 0.0
H931 H 0.46068 0.83203 0.34018 0.0
C932 C 0.51205 0.8427 0.26046 0.0
N933 N 0.49996 0.84041 0.27601 0.0
C934 C 0.51137 0.82949 0.24496 0.0
C935 C 0.486 0.81176 0.26194 0.0
C936 C 0.48716 0.82531 0.27707 0.0
C937 C 0.49812 0.81386 0.24557 0.0
H938 H 0.52218 0.85477 0.26007 0.0
H939 H 0.47775 0.82387 0.28964 0.0
O940 O 0.49869 0.88977 0.33403 0.0
O941 O 0.52291 0.87618 0.29816 0.0
O942 O 0.50204 0.84607 0.32307 0.0
O943 O 0.47663 0.87593 0.29897 0.0
H944 H 0.50914 0.92644 0.34061 0.0
H945 H 0.48855 0.87375 0.36796 0.0
H946 H 0.50994 0.9423 0.37307 0.0
H947 H 0.48995 0.89043 0.39992 0.0
H948 H 0.53585 0.91369 0.24496 0.0
H949 H 0.55713 0.89002 0.3096 0.0
H950 H 0.51475 0.8906 0.2632 0.0
H951 H 0.57747 0.91315 0.29056 0.0
H952 H 0.5676 0.89743 0.37123 0.0
H953 H 0.57474 0.83615 0.35773 0.0
H954 H 0.46777 0.95084 0.27593 0.0
H955 H 0.52558 0.9595 0.29963 0.0
H956 H 0.49256 0.80902 0.31739 0.0
H957 H 0.51095 0.85082 0.36051 0.0
H958 H 0.49123 0.78377 0.34326 0.0
H959 H 0.50909 0.82494 0.38566 0.0
H960 H 0.44729 0.85114 0.30306 0.0
H961 H 0.48032 0.88479 0.26154 0.0
H962 H 0.42749 0.83789 0.27575 0.0
H963 H 0.46005 0.87084 0.23494 0.0
H964 H 0.42768 0.8903 0.36663 0.0
H965 H 0.43268 0.82753 0.36229 0.0
H966 H 0.52099 0.83152 0.23258 0.0
H967 H 0.47592 0.79965 0.26316 0.0
Li968 Li 0.12827 0.51836 0.3279 0.0
Li969 Li 0.10562 0.50027 0.30715 0.0
Li970 Li 0.13068 0.48297 0.32808 0.0
Li971 Li 0.1404 0.50054 0.29846 0.0
C972 C 0.10036 0.50693 0.35268 0.0
N973 N 0.08542 0.52354 0.38626 0.0
C974 C 0.08254 0.51683 0.35217 0.0
C975 C 0.11039 0.50515 0.37035 0.0
C976 C 0.07527 0.52521 0.36928 0.0
C977 C 0.10266 0.51375 0.38715 0.0
C978 C 0.11377 0.53272 0.28451 0.0
C979 C 0.10471 0.53386 0.25051 0.0
N980 N 0.09703 0.55196 0.25326 0.0
C981 C 0.10596 0.55141 0.28696 0.0
C982 C 0.11329 0.52393 0.26612 0.0
C983 C 0.09748 0.56086 0.271 0.0
C984 C 0.14633 0.54449 0.35458 0.0
N985 N 0.13011 0.54107 0.34367 0.0
C986 C 0.11389 0.56844 0.35789 0.0
C987 C 0.11425 0.55294 0.3447 0.0
C988 C 0.13009 0.57179 0.36996 0.0
C989 C 0.14665 0.55992 0.36789 0.0
H990 H 0.15883 0.53498 0.35329 0.0
H991 H 0.10163 0.54997 0.33571 0.0
C992 C 0.07178 0.48119 0.29412 0.0
N993 N 0.07949 0.499 0.29823 0.0
C994 C 0.05191 0.4793 0.2901 0.0
C995 C 0.04838 0.51419 0.29421 0.0
C996 C 0.06834 0.51541 0.29806 0.0
C997 C 0.03988 0.49588 0.29067 0.0
H998 H 0.08092 0.46834 0.29472 0.0
H999 H 0.07472 0.5293 0.30194 0.0
C1000 C 0.16816 0.49484 0.33449 0.0
N1001 N 0.20009 0.47936 0.3537 0.0
C1002 C 0.18402 0.48762 0.32388 0.0
C1003 C 0.16868 0.49442 0.35488 0.0
C1004 C 0.2 0.47981 0.33386 0.0
C1005 C 0.1849 0.48645 0.36432 0.0
C1006 C 0.12442 0.46387 0.28656 0.0
C1007 C 0.13523 0.44692 0.29007 0.0
C1008 C 0.11507 0.4663 0.26858 0.0
C1009 C 0.13694 0.43292 0.27535 0.0
C1010 C 0.11712 0.45196 0.25423 0.0
N1011 N 0.12795 0.43572 0.25787 0.0
C1012 C 0.11874 0.45523 0.35505 0.0
C1013 C 0.15116 0.4499 0.34422 0.0
C1014 C 0.11989 0.43921 0.36752 0.0
N1015 N 0.13432 0.46043 0.34394 0.0
C1016 C 0.15304 0.43387 0.35669 0.0
C1017 C 0.13729 0.4285 0.3686 0.0
H1018 H 0.10539 0.46361 0.35427 0.0
H1019 H 0.16313 0.45386 0.33478 0.0
C1020 C 0.16249 0.51875 0.26898 0.0
N1021 N 0.15835 0.50122 0.27732 0.0
C1022 C 0.17561 0.51988 0.25344 0.0
C1023 C 0.18029 0.48497 0.25567 0.0
C1024 C 0.16712 0.48452 0.27116 0.0
C1025 C 0.18454 0.5028 0.24654 0.0
H1026 H 0.15564 0.53187 0.27445 0.0
H1027 H 0.16429 0.47092 0.27853 0.0
O1028 O 0.108 0.4991 0.33596 0.0
O1029 O 0.12197 0.52319 0.30003 0.0
O1030 O 0.15236 0.5025 0.32494 0.0
O1031 O 0.12254 0.47769 0.30087 0.0
H1032 H 0.0745 0.51825 0.33867 0.0
H1033 H 0.12401 0.49725 0.37109 0.0
H1034 H 0.06158 0.53308 0.36905 0.0
H1035 H 0.11036 0.51261 0.40089 0.0
H1036 H 0.10422 0.5272 0.23621 0.0
H1037 H 0.10636 0.55851 0.30106 0.0
H1038 H 0.11963 0.50968 0.26388 0.0
H1039 H 0.09128 0.57529 0.27271 0.0
H1040 H 0.10098 0.57752 0.35887 0.0
H1041 H 0.15943 0.56214 0.37694 0.0
H1042 H 0.0459 0.46497 0.28721 0.0
H1043 H 0.03954 0.52727 0.295 0.0
H1044 H 0.18401 0.48803 0.30812 0.0
H1045 H 0.15666 0.5001 0.36335 0.0
H1046 H 0.21233 0.4741 0.32582 0.0
H1047 H 0.18542 0.48592 0.38009 0.0
H1048 H 0.1424 0.4447 0.30394 0.0
H1049 H 0.10614 0.479 0.26578 0.0
H1050 H 0.14541 0.41982 0.27782 0.0
H1051 H 0.11003 0.45369 0.24023 0.0
H1052 H 0.10744 0.43544 0.3765 0.0
H1053 H 0.16657 0.42569 0.35696 0.0
H1054 H 0.17868 0.53392 0.24684 0.0
H1055 H 0.18738 0.47158 0.25114 0.0
Li1056 Li 0.47906 0.86847 0.67326 0.0
Li1057 Li 0.49859 0.89197 0.69335 0.0
Li1058 Li 0.51366 0.86702 0.67264 0.0
Li1059 Li 0.49757 0.85662 0.70134 0.0
C1060 C 0.4875 0.8985 0.65017 0.0
N1061 N 0.46624 0.91663 0.62107 0.0
C1062 C 0.47887 0.91668 0.65358 0.0
C1063 C 0.48549 0.88965 0.6319 0.0
C1064 C 0.46816 0.92559 0.63869 0.0
C1065 C 0.47461 0.89901 0.6174 0.0
C1066 C 0.46409 0.86944 0.71559 0.0
C1067 C 0.45694 0.86686 0.74994 0.0
N1068 N 0.44217 0.85424 0.7458 0.0
C1069 C 0.44883 0.85649 0.71164 0.0
C1070 C 0.46816 0.87475 0.73486 0.0
C1071 C 0.43791 0.84896 0.72713 0.0
C1072 C 0.45237 0.84986 0.64784 0.0
N1073 N 0.45566 0.86622 0.65857 0.0
C1074 C 0.42711 0.8814 0.64555 0.0
C1075 C 0.44312 0.8816 0.65815 0.0
C1076 C 0.42377 0.86498 0.63381 0.0
C1077 C 0.43634 0.84889 0.63531 0.0
H1078 H 0.46246 0.83776 0.64865 0.0
H1079 H 0.44596 0.89429 0.66709 0.0
C1080 C 0.51415 0.92949 0.69548 0.0
N1081 N 0.49956 0.91796 0.70235 0.0
C1082 C 0.51429 0.9494 0.69966 0.0
C1083 C 0.48447 0.94517 0.71809 0.0
C1084 C 0.48496 0.92527 0.71363 0.0
C1085 C 0.4991 0.9575 0.71075 0.0
H1086 H 0.52518 0.92337 0.68604 0.0
H1087 H 0.47334 0.9158 0.71854 0.0
C1088 C 0.50453 0.83029 0.66545 0.0
N1089 N 0.52393 0.80114 0.64543 0.0
C1090 C 0.51435 0.8156 0.67568 0.0
C1091 C 0.50445 0.83006 0.64505 0.0
C1092 C 0.52408 0.801 0.66528 0.0
C1093 C 0.5144 0.81524 0.6352 0.0
C1094 C 0.53992 0.87022 0.70102 0.0
C1095 C 0.54667 0.85202 0.70731 0.0
C1096 C 0.55331 0.88444 0.6951 0.0
C1097 C 0.56673 0.84834 0.70756 0.0
C1098 C 0.57324 0.88017 0.69549 0.0
N1099 N 0.57949 0.86236 0.70167 0.0
C1100 C 0.53718 0.8768 0.64078 0.0
C1101 C 0.54883 0.84882 0.65746 0.0
C1102 C 0.55213 0.8753 0.6271 0.0
N1103 N 0.53558 0.86351 0.65543 0.0
C1104 C 0.56422 0.84692 0.64421 0.0
C1105 C 0.56574 0.86013 0.62867 0.0
H1106 H 0.52685 0.88862 0.63966 0.0
H1107 H 0.54744 0.83847 0.66923 0.0
C1108 C 0.48504 0.82273 0.72035 0.0
N1109 N 0.49638 0.83886 0.72245 0.0
C1110 C 0.48367 0.80916 0.73544 0.0
C1111 C 0.50555 0.82917 0.75463 0.0
C1112 C 0.50636 0.84245 0.73921 0.0
C1113 C 0.49411 0.81224 0.75281 0.0
H1114 H 0.4771 0.82042 0.70689 0.0
H1115 H 0.51512 0.85553 0.74047 0.0
O1116 O 0.49779 0.88937 0.66466 0.0
O1117 O 0.47533 0.87648 0.70068 0.0
O1118 O 0.4949 0.84468 0.67537 0.0
O1119 O 0.52033 0.87409 0.70062 0.0
H1120 H 0.48022 0.92376 0.66762 0.0
H1121 H 0.49209 0.8756 0.629 0.0
H1122 H 0.46131 0.93961 0.64116 0.0
H1123 H 0.4728 0.89224 0.60325 0.0
H1124 H 0.46001 0.87071 0.76494 0.0
H1125 H 0.44559 0.85215 0.69681 0.0
H1126 H 0.48008 0.8846 0.73814 0.0
H1127 H 0.42611 0.83886 0.72432 0.0
H1128 H 0.41762 0.89402 0.64476 0.0
H1129 H 0.43421 0.83604 0.62633 0.0
H1130 H 0.52564 0.95854 0.69351 0.0
H1131 H 0.47256 0.95094 0.72673 0.0
H1132 H 0.51464 0.81557 0.69145 0.0
H1133 H 0.49694 0.84131 0.63691 0.0
H1134 H 0.53182 0.78961 0.673 0.0
H1135 H 0.51458 0.81497 0.61941 0.0
H1136 H 0.53657 0.84071 0.71164 0.0
H1137 H 0.54837 0.89855 0.69009 0.0
H1138 H 0.57214 0.83428 0.7123 0.0
H1139 H 0.58375 0.891 0.69085 0.0
H1140 H 0.55312 0.88594 0.61544 0.0
H1141 H 0.57457 0.83509 0.64584 0.0
H1142 H 0.47457 0.79636 0.73354 0.0
H1143 H 0.51411 0.8319 0.76763 0.0
Li1144 Li 0.12824 0.51879 0.67235 0.0
Li1145 Li 0.13929 0.50206 0.70196 0.0
Li1146 Li 0.12876 0.48267 0.67238 0.0
Li1147 Li 0.10532 0.49953 0.69316 0.0
C1148 C 0.16783 0.50644 0.66607 0.0
N1149 N 0.20188 0.51733 0.64735 0.0
C1150 C 0.1822 0.51688 0.67611 0.0
C1151 C 0.17091 0.50133 0.64655 0.0
C1152 C 0.19928 0.52231 0.66638 0.0
C1153 C 0.18818 0.50703 0.63733 0.0
C1154 C 0.1239 0.53747 0.71339 0.0
C1155 C 0.12354 0.54855 0.7468 0.0
N1156 N 0.13233 0.56544 0.7412 0.0
C1157 C 0.1328 0.55501 0.70793 0.0
C1158 C 0.11907 0.53426 0.73295 0.0
C1159 C 0.13699 0.56895 0.72222 0.0
C1160 C 0.11257 0.54825 0.64935 0.0
N1161 N 0.1299 0.54131 0.65608 0.0
C1162 C 0.14731 0.56549 0.63793 0.0
C1163 C 0.14709 0.54979 0.65092 0.0
C1164 C 0.12965 0.57268 0.63042 0.0
C1165 C 0.1121 0.56396 0.63642 0.0
H1166 H 0.09911 0.54133 0.65384 0.0
H1167 H 0.16066 0.54436 0.65666 0.0
C1168 C 0.16178 0.48465 0.73107 0.0
N1169 N 0.15746 0.50223 0.72293 0.0
C1170 C 0.17542 0.48338 0.74613 0.0
C1171 C 0.17981 0.51836 0.7443 0.0
C1172 C 0.16629 0.51892 0.7291 0.0
C1173 C 0.18451 0.50041 0.75291 0.0
H1174 H 0.15477 0.47156 0.72568 0.0
H1175 H 0.16322 0.53261 0.72199 0.0
C1176 C 0.10223 0.49784 0.64526 0.0
N1177 N 0.09207 0.49271 0.60656 0.0
C1178 C 0.08355 0.49127 0.64034 0.0
C1179 C 0.11566 0.50197 0.6305 0.0
C1180 C 0.07872 0.4887 0.62069 0.0
C1181 C 0.11028 0.49925 0.61102 0.0
C1182 C 0.11211 0.46696 0.7128 0.0
C1183 C 0.10344 0.44969 0.70627 0.0
C1184 C 0.10917 0.47313 0.73201 0.0
C1185 C 0.09163 0.43903 0.71902 0.0
C1186 C 0.09726 0.46206 0.74431 0.0
N1187 N 0.08878 0.4454 0.73761 0.0
C1188 C 0.1507 0.45374 0.65231 0.0
C1189 C 0.11627 0.45094 0.65005 0.0
C1190 C 0.15313 0.43794 0.63964 0.0
N1191 N 0.13248 0.46014 0.65685 0.0
C1192 C 0.11801 0.43512 0.63739 0.0
C1193 C 0.13662 0.42869 0.63176 0.0
H1194 H 0.16333 0.46106 0.65831 0.0
H1195 H 0.10197 0.45609 0.65427 0.0
C1196 C 0.07117 0.51157 0.71356 0.0
N1197 N 0.07919 0.49771 0.70185 0.0
C1198 C 0.05137 0.51066 0.71836 0.0
C1199 C 0.04871 0.48107 0.69926 0.0
C1200 C 0.06846 0.48262 0.69474 0.0
C1201 C 0.0399 0.49531 0.71105 0.0
H1202 H 0.07998 0.5236 0.7187 0.0
H1203 H 0.07517 0.47208 0.6851 0.0
O1204 O 0.15107 0.50091 0.67543 0.0
O1205 O 0.11965 0.5237 0.69959 0.0
O1206 O 0.10726 0.50021 0.66444 0.0
O1207 O 0.12342 0.4778 0.70044 0.0
H1208 H 0.18014 0.52093 0.6912 0.0
H1209 H 0.16017 0.49295 0.63859 0.0
H1210 H 0.21045 0.5305 0.67396 0.0
H1211 H 0.19071 0.50322 0.62222 0.0
H1212 H 0.11999 0.5462 0.76201 0.0
H1213 H 0.13655 0.55778 0.69286 0.0
H1214 H 0.11203 0.52086 0.7374 0.0
H1215 H 0.14396 0.58254 0.71823 0.0
H1216 H 0.16118 0.57159 0.63345 0.0
H1217 H 0.09817 0.56917 0.63106 0.0
H1218 H 0.17884 0.46928 0.75242 0.0
H1219 H 0.1869 0.53171 0.74894 0.0
H1220 H 0.07292 0.4881 0.65157 0.0
H1221 H 0.13004 0.50736 0.63403 0.0
H1222 H 0.06434 0.48354 0.61668 0.0
H1223 H 0.12055 0.50239 0.59946 0.0
H1224 H 0.10567 0.44466 0.69147 0.0
H1225 H 0.11597 0.48634 0.73733 0.0
H1226 H 0.0847 0.4257 0.71413 0.0
H1227 H 0.09475 0.46672 0.75918 0.0
H1228 H 0.16771 0.43309 0.63596 0.0
H1229 H 0.10494 0.42833 0.63164 0.0
H1230 H 0.045 0.52199 0.72735 0.0
H1231 H 0.04023 0.46932 0.69292 0.0
Li1232 Li 0.50059 0.14133 0.69929 0.0
Li1233 Li 0.48273 0.13146 0.67028 0.0
Li1234 Li 0.50101 0.10744 0.69119 0.0
Li1235 Li 0.51891 0.12984 0.66991 0.0
C1236 C 0.46595 0.13043 0.71205 0.0
N1237 N 0.44266 0.14568 0.74121 0.0
C1238 C 0.45045 0.14284 0.70735 0.0
C1239 C 0.46945 0.12557 0.73155 0.0
C1240 C 0.43887 0.15043 0.72231 0.0
C1241 C 0.45757 0.1335 0.74609 0.0
C1242 C 0.50009 0.16763 0.65889 0.0
C1243 C 0.50288 0.1784 0.62547 0.0
N1244 N 0.49662 0.19646 0.63083 0.0
C1245 C 0.49393 0.18639 0.6641 0.0
C1246 C 0.5048 0.16368 0.63945 0.0
C1247 C 0.49217 0.20072 0.6497 0.0
C1248 C 0.51288 0.15765 0.73526 0.0
N1249 N 0.50027 0.15959 0.72007 0.0
C1250 C 0.48614 0.188 0.73447 0.0
C1251 C 0.48704 0.17436 0.7194 0.0
C1252 C 0.49888 0.18627 0.75039 0.0
C1253 C 0.51239 0.17088 0.75073 0.0
H1254 H 0.52337 0.14589 0.73533 0.0
H1255 H 0.47708 0.17543 0.70722 0.0
C1256 C 0.45086 0.11761 0.64954 0.0
N1257 N 0.45987 0.13447 0.65486 0.0
C1258 C 0.43452 0.11807 0.63743 0.0
C1259 C 0.43662 0.1533 0.63694 0.0
C1260 C 0.45292 0.15216 0.64913 0.0
C1261 C 0.4273 0.13608 0.63088 0.0
H1262 H 0.45668 0.10376 0.65442 0.0
H1263 H 0.46002 0.16538 0.6539 0.0
C1264 C 0.53538 0.11182 0.7086 0.0
N1265 N 0.55832 0.08629 0.7298 0.0
C1266 C 0.55328 0.10551 0.70114 0.0
C1267 C 0.52927 0.10535 0.72696 0.0
C1268 C 0.56464 0.09255 0.71205 0.0
C1269 C 0.54103 0.09238 0.73741 0.0
C1270 C 0.50127 0.10129 0.64417 0.0
C1271 C 0.5087 0.0824 0.64192 0.0
C1272 C 0.49472 0.11146 0.62773 0.0
C1273 C 0.50997 0.07427 0.62327 0.0
C1274 C 0.49619 0.10282 0.60933 0.0
N1275 N 0.50376 0.08457 0.60749 0.0
C1276 C 0.48548 0.07436 0.71066 0.0
C1277 C 0.51588 0.0695 0.69487 0.0
C1278 C 0.48455 0.0546 0.71565 0.0
N1279 N 0.50086 0.08128 0.70021 0.0
C1280 C 0.51555 0.0497 0.6995 0.0
C1281 C 0.49954 0.04196 0.70964 0.0
H1282 H 0.4737 0.08407 0.71465 0.0
H1283 H 0.52786 0.07538 0.68646 0.0
C1284 C 0.54985 0.14983 0.65052 0.0
N1285 N 0.5417 0.13211 0.65424 0.0
C1286 C 0.56603 0.15128 0.63819 0.0
C1287 C 0.56565 0.11617 0.63459 0.0
C1288 C 0.54947 0.11542 0.64688 0.0
C1289 C 0.57403 0.13428 0.63001 0.0
H1290 H 0.54363 0.16285 0.65691 0.0
H1291 H 0.54309 0.10149 0.65056 0.0
O1292 O 0.47768 0.12317 0.69763 0.0
O1293 O 0.50179 0.15341 0.67285 0.0
O1294 O 0.52396 0.12434 0.69802 0.0
O1295 O 0.49981 0.1094 0.66242 0.0
H1296 H 0.44752 0.14674 0.69233 0.0
H1297 H 0.4813 0.1159 0.73542 0.0
H1298 H 0.4269 0.16016 0.7189 0.0
H1299 H 0.46021 0.13 0.76126 0.0
H1300 H 0.50648 0.17549 0.61037 0.0
H1301 H 0.49049 0.18987 0.67908 0.0
H1302 H 0.51023 0.14953 0.63521 0.0
H1303 H 0.4873 0.21525 0.65353 0.0
H1304 H 0.4755 0.19969 0.73379 0.0
H1305 H 0.52263 0.16931 0.76268 0.0
H1306 H 0.42794 0.10446 0.63279 0.0
H1307 H 0.43137 0.16747 0.63226 0.0
H1308 H 0.55835 0.11053 0.68707 0.0
H1309 H 0.51549 0.11011 0.73297 0.0
H1310 H 0.57849 0.08747 0.70641 0.0
H1311 H 0.5364 0.08714 0.75156 0.0
H1312 H 0.51356 0.07411 0.65441 0.0
H1313 H 0.48826 0.12576 0.62911 0.0
H1314 H 0.51586 0.05974 0.62135 0.0
H1315 H 0.4912 0.11059 0.59652 0.0
H1316 H 0.4721 0.0492 0.72374 0.0
H1317 H 0.52731 0.04041 0.69447 0.0
H1318 H 0.5722 0.1655 0.63505 0.0
H1319 H 0.57126 0.10275 0.62839 0.0
Li1320 Li 0.86946 0.51198 0.6701 0.0
Li1321 Li 0.89024 0.49472 0.69196 0.0
Li1322 Li 0.86851 0.47772 0.67005 0.0
Li1323 Li 0.85446 0.49606 0.69741 0.0
C1324 C 0.90706 0.50394 0.65703 0.0
N1325 N 0.94015 0.52356 0.64489 0.0
C1326 C 0.91193 0.52198 0.66528 0.0
C1327 C 0.91904 0.49588 0.64263 0.0
C1328 C 0.92872 0.53166 0.65894 0.0
C1329 C 0.9357 0.50603 0.63668 0.0
C1330 C 0.87596 0.52417 0.71676 0.0
C1331 C 0.87957 0.51698 0.75105 0.0
N1332 N 0.88037 0.53644 0.75493 0.0
C1333 C 0.87679 0.54408 0.72111 0.0
C1334 C 0.87734 0.51048 0.73185 0.0
C1335 C 0.87905 0.55 0.74049 0.0
C1336 C 0.8612 0.5515 0.66015 0.0
N1337 N 0.86799 0.53412 0.6534 0.0
C1338 C 0.87341 0.54764 0.62177 0.0
C1339 C 0.8739 0.53189 0.6346 0.0
C1340 C 0.86672 0.56583 0.62836 0.0
C1341 C 0.86032 0.56767 0.64773 0.0
H1342 H 0.85647 0.55277 0.67516 0.0
H1343 H 0.87891 0.5178 0.62954 0.0
C1344 C 0.92712 0.4788 0.69618 0.0
N1345 N 0.91597 0.49392 0.70253 0.0
C1346 C 0.94697 0.47809 0.70059 0.0
C1347 C 0.94356 0.50849 0.71816 0.0
C1348 C 0.92376 0.50865 0.71335 0.0
C1349 C 0.95545 0.49318 0.71156 0.0
H1350 H 0.92075 0.46778 0.68684 0.0
H1351 H 0.91496 0.52101 0.71751 0.0
C1352 C 0.83457 0.50534 0.65716 0.0
N1353 N 0.81325 0.52726 0.63086 0.0
C1354 C 0.82153 0.51953 0.66384 0.0
C1355 C 0.83667 0.50219 0.63711 0.0
C1356 C 0.81091 0.53049 0.6503 0.0
C1357 C 0.82578 0.51345 0.62405 0.0
C1358 C 0.87075 0.45319 0.6993 0.0
C1359 C 0.85291 0.44438 0.69472 0.0
C1360 C 0.88682 0.44153 0.70399 0.0
C1361 C 0.85155 0.42403 0.69453 0.0
C1362 C 0.88486 0.42122 0.70368 0.0
N1363 N 0.86743 0.41297 0.69896 0.0
C1364 C 0.88217 0.44402 0.65091 0.0
C1365 C 0.84859 0.4509 0.64587 0.0
C1366 C 0.88097 0.42766 0.63881 0.0
N1367 N 0.86613 0.45525 0.65408 0.0
C1368 C 0.8468 0.43486 0.63346 0.0
C1369 C 0.86315 0.4231 0.6298 0.0
H1370 H 0.8959 0.44789 0.65768 0.0
H1371 H 0.83604 0.45998 0.64886 0.0
C1372 C 0.82666 0.51492 0.72104 0.0
N1373 N 0.83489 0.49735 0.71685 0.0
C1374 C 0.81273 0.51644 0.73582 0.0
C1375 C 0.81608 0.48177 0.74166 0.0
C1376 C 0.83004 0.48097 0.72692 0.0
C1377 C 0.80732 0.49968 0.74628 0.0
H1378 H 0.83107 0.52778 0.71301 0.0
H1379 H 0.83718 0.46731 0.72371 0.0
O1380 O 0.89086 0.49395 0.66311 0.0
O1381 O 0.87336 0.51831 0.69784 0.0
O1382 O 0.84547 0.49482 0.67016 0.0
O1383 O 0.87249 0.4731 0.69908 0.0
H1384 H 0.90293 0.52845 0.67649 0.0
H1385 H 0.91551 0.4819 0.63616 0.0
H1386 H 0.93266 0.54561 0.6652 0.0
H1387 H 0.9451 0.49996 0.62555 0.0
H1388 H 0.88065 0.50656 0.76286 0.0
H1389 H 0.87566 0.55486 0.7096 0.0
H1390 H 0.8767 0.49501 0.72885 0.0
H1391 H 0.87972 0.56537 0.74406 0.0
H1392 H 0.87806 0.5456 0.6068 0.0
H1393 H 0.85499 0.5815 0.65323 0.0
H1394 H 0.95576 0.46639 0.69462 0.0
H1395 H 0.94964 0.52053 0.72642 0.0
H1396 H 0.81974 0.52216 0.67928 0.0
H1397 H 0.84687 0.49143 0.63168 0.0
H1398 H 0.80084 0.54159 0.65526 0.0
H1399 H 0.82737 0.51128 0.60849 0.0
H1400 H 0.84034 0.45319 0.69094 0.0
H1401 H 0.90063 0.44806 0.70791 0.0
H1402 H 0.8379 0.41704 0.69079 0.0
H1403 H 0.8972 0.41203 0.70721 0.0
H1404 H 0.89391 0.419 0.63609 0.0
H1405 H 0.83284 0.43169 0.62674 0.0
H1406 H 0.80615 0.53047 0.73895 0.0
H1407 H 0.81238 0.4686 0.74961 0.0
Li1408 Li 0.32558 0.51586 0.12975 0.0
Li1409 Li 0.29484 0.50175 0.14108 0.0
Li1410 Li 0.32251 0.4809 0.13049 0.0
Li1411 Li 0.30317 0.49853 0.10627 0.0
C1412 C 0.33094 0.50867 0.16743 0.0
N1413 N 0.35075 0.52892 0.19615 0.0
C1414 C 0.32061 0.51859 0.18196 0.0
C1415 C 0.35135 0.50892 0.1676 0.0
C1416 C 0.3309 0.52876 0.19634 0.0
C1417 C 0.36109 0.51929 0.18221 0.0
C1418 C 0.28495 0.53697 0.11894 0.0
C1419 C 0.25496 0.54838 0.10439 0.0
N1420 N 0.25746 0.56598 0.11324 0.0
C1421 C 0.28734 0.55527 0.12766 0.0
C1422 C 0.26874 0.53358 0.107 0.0
C1423 C 0.27323 0.56969 0.12471 0.0
C1424 C 0.3584 0.53807 0.11949 0.0
N1425 N 0.34309 0.53735 0.13207 0.0
C1426 C 0.35363 0.56679 0.14759 0.0
C1427 C 0.34039 0.55139 0.14586 0.0
C1428 C 0.36968 0.56778 0.1349 0.0
C1429 C 0.37199 0.55319 0.12071 0.0
H1430 H 0.36009 0.5269 0.1085 0.0
H1431 H 0.3281 0.5505 0.15568 0.0
C1432 C 0.26832 0.48658 0.16763 0.0
N1433 N 0.27407 0.50361 0.15925 0.0
C1434 C 0.25312 0.48643 0.18114 0.0
C1435 C 0.25031 0.52143 0.17748 0.0
C1436 C 0.26556 0.5209 0.16399 0.0
C1437 C 0.24385 0.504 0.18609 0.0
H1438 H 0.27561 0.47311 0.16381 0.0
H1439 H 0.27068 0.53429 0.1575 0.0
C1440 C 0.34606 0.48555 0.10069 0.0
N1441 N 0.37394 0.46061 0.08561 0.0
C1442 C 0.34199 0.47449 0.08403 0.0
C1443 C 0.36438 0.48408 0.10956 0.0
C1444 C 0.35627 0.46195 0.07665 0.0
C1445 C 0.37825 0.47132 0.10176 0.0
C1446 C 0.27684 0.46925 0.12004 0.0
C1447 C 0.27576 0.44918 0.11644 0.0
C1448 C 0.25985 0.48051 0.11942 0.0
C1449 C 0.25771 0.44078 0.11201 0.0
C1450 C 0.24207 0.47157 0.11497 0.0
N1451 N 0.24138 0.45205 0.11136 0.0
C1452 C 0.34909 0.45545 0.1494 0.0
C1453 C 0.33394 0.44264 0.12104 0.0
C1454 C 0.36107 0.43904 0.15082 0.0
N1455 N 0.33618 0.4571 0.13444 0.0
C1456 C 0.34561 0.42597 0.1219 0.0
C1457 C 0.3596 0.42418 0.13677 0.0
H1458 H 0.35058 0.46717 0.15983 0.0
H1459 H 0.32364 0.44444 0.10922 0.0
C1460 C 0.30003 0.51464 0.06954 0.0
N1461 N 0.29442 0.49882 0.08008 0.0
C1462 C 0.29623 0.51554 0.04958 0.0
C1463 C 0.28046 0.48403 0.05177 0.0
C1464 C 0.28469 0.48368 0.0717 0.0
C1465 C 0.28647 0.50001 0.04041 0.0
H1466 H 0.30805 0.52628 0.07659 0.0
H1467 H 0.28079 0.47105 0.08025 0.0
O1468 O 0.32111 0.49872 0.15318 0.0
O1469 O 0.2988 0.52277 0.12149 0.0
O1470 O 0.33208 0.4975 0.10846 0.0
O1471 O 0.29443 0.47764 0.12442 0.0
H1472 H 0.30483 0.51849 0.18211 0.0
H1473 H 0.35957 0.50143 0.15641 0.0
H1474 H 0.32309 0.53656 0.20763 0.0
H1475 H 0.37687 0.51974 0.18242 0.0
H1476 H 0.24233 0.54591 0.09524 0.0
H1477 H 0.29986 0.55827 0.13676 0.0
H1478 H 0.26685 0.51976 0.09964 0.0
H1479 H 0.27484 0.58386 0.13151 0.0
H1480 H 0.35153 0.57761 0.15892 0.0
H1481 H 0.38412 0.55354 0.11058 0.0
H1482 H 0.24888 0.47276 0.18786 0.0
H1483 H 0.24358 0.53528 0.18108 0.0
H1484 H 0.32788 0.47541 0.077 0.0
H1485 H 0.36776 0.4925 0.12248 0.0
H1486 H 0.35328 0.45321 0.06384 0.0
H1487 H 0.39242 0.4699 0.10859 0.0
H1488 H 0.28873 0.4402 0.11704 0.0
H1489 H 0.26031 0.49592 0.12261 0.0
H1490 H 0.25668 0.42529 0.10911 0.0
H1491 H 0.22882 0.48013 0.11446 0.0
H1492 H 0.37193 0.43838 0.16229 0.0
H1493 H 0.34406 0.41482 0.11079 0.0
H1494 H 0.30166 0.52785 0.04129 0.0
H1495 H 0.27301 0.47172 0.0452 0.0
Li1496 Li 0.32534 0.51556 0.86666 0.0
Li1497 Li 0.30563 0.49763 0.89016 0.0
Li1498 Li 0.32635 0.47959 0.86681 0.0
Li1499 Li 0.29685 0.49576 0.85655 0.0
C1500 C 0.3543 0.498 0.88967 0.0
N1501 N 0.39444 0.49758 0.89349 0.0
C1502 C 0.36282 0.49554 0.90804 0.0
C1503 C 0.36618 0.50027 0.87325 0.0
C1504 C 0.38315 0.49536 0.90966 0.0
C1505 C 0.38644 0.50001 0.87548 0.0
C1506 C 0.28556 0.5307 0.88422 0.0
C1507 C 0.25378 0.53775 0.8976 0.0
N1508 N 0.26151 0.55302 0.90767 0.0
C1509 C 0.29313 0.54665 0.89445 0.0
C1510 C 0.26568 0.52636 0.88559 0.0
C1511 C 0.28076 0.55768 0.90633 0.0
C1512 C 0.34436 0.54566 0.8453 0.0
N1513 N 0.34046 0.53847 0.86337 0.0
C1514 C 0.36064 0.5627 0.8782 0.0
C1515 C 0.3481 0.54675 0.8797 0.0
C1516 C 0.36541 0.5701 0.85972 0.0
C1517 C 0.3569 0.5616 0.84312 0.0
H1518 H 0.338 0.53881 0.8326 0.0
H1519 H 0.34478 0.54064 0.89387 0.0
C1520 C 0.28566 0.48458 0.92425 0.0
N1521 N 0.29741 0.49858 0.91652 0.0
C1522 C 0.28103 0.48491 0.94409 0.0
C1523 C 0.30054 0.51414 0.94754 0.0
C1524 C 0.30496 0.51312 0.92771 0.0
C1525 C 0.28856 0.49983 0.95594 0.0
H1526 H 0.28034 0.47284 0.91519 0.0
H1527 H 0.31482 0.52364 0.9213 0.0
C1528 C 0.32248 0.48812 0.82621 0.0
N1529 N 0.32038 0.46976 0.79033 0.0
C1530 C 0.31689 0.46854 0.82498 0.0
C1531 C 0.32697 0.49838 0.80916 0.0
C1532 C 0.31592 0.45951 0.80673 0.0
C1533 C 0.32584 0.48884 0.79117 0.0
C1534 C 0.28421 0.46111 0.87322 0.0
C1535 C 0.28742 0.44216 0.86632 0.0
C1536 C 0.26528 0.46703 0.87794 0.0
C1537 C 0.27155 0.42957 0.86395 0.0
C1538 C 0.24979 0.45401 0.87535 0.0
N1539 N 0.25322 0.43571 0.86845 0.0
C1540 C 0.34197 0.44328 0.87753 0.0
C1541 C 0.35725 0.45772 0.85003 0.0
C1542 C 0.35482 0.42748 0.87681 0.0
N1543 N 0.34341 0.45793 0.86424 0.0
C1544 C 0.37039 0.44223 0.84878 0.0
C1545 C 0.36927 0.42687 0.86231 0.0
H1546 H 0.331 0.44405 0.88885 0.0
H1547 H 0.35827 0.46972 0.83983 0.0
C1548 C 0.2681 0.51293 0.83355 0.0
N1549 N 0.27579 0.49532 0.83847 0.0
C1550 C 0.25282 0.51409 0.82014 0.0
C1551 C 0.25368 0.47895 0.81704 0.0
C1552 C 0.26909 0.4785 0.83032 0.0
C1553 C 0.2453 0.49692 0.81185 0.0
H1554 H 0.27401 0.52612 0.8399 0.0
H1555 H 0.27574 0.4647 0.83397 0.0
O1556 O 0.33441 0.49819 0.8879 0.0
O1557 O 0.2975 0.51959 0.87269 0.0
O1558 O 0.32332 0.4973 0.84394 0.0
O1559 O 0.29959 0.47366 0.87553 0.0
H1560 H 0.35379 0.49379 0.92089 0.0
H1561 H 0.35984 0.50221 0.85892 0.0
H1562 H 0.38995 0.49346 0.92379 0.0
H1563 H 0.39581 0.50174 0.86289 0.0
H1564 H 0.23839 0.53448 0.89887 0.0
H1565 H 0.30843 0.55037 0.89338 0.0
H1566 H 0.25947 0.51442 0.87736 0.0
H1567 H 0.28647 0.56994 0.91449 0.0
H1568 H 0.36701 0.56881 0.89133 0.0
H1569 H 0.36004 0.56711 0.82864 0.0
H1570 H 0.27195 0.47349 0.95019 0.0
H1571 H 0.30705 0.52554 0.95636 0.0
H1572 H 0.31325 0.46041 0.83797 0.0
H1573 H 0.33125 0.51356 0.80978 0.0
H1574 H 0.31159 0.44437 0.8056 0.0
H1575 H 0.32928 0.49661 0.77786 0.0
H1576 H 0.30198 0.43722 0.86276 0.0
H1577 H 0.26257 0.4815 0.88354 0.0
H1578 H 0.27381 0.41491 0.85853 0.0
H1579 H 0.23506 0.45846 0.87886 0.0
H1580 H 0.35378 0.41614 0.88778 0.0
H1581 H 0.38138 0.44228 0.83742 0.0
H1582 H 0.24723 0.5283 0.81606 0.0
H1583 H 0.24838 0.46538 0.81089 0.0
Li1584 Li 0.48155 0.32424 0.86818 0.0
Li1585 Li 0.4978 0.30379 0.89237 0.0
Li1586 Li 0.51604 0.32411 0.86936 0.0
Li1587 Li 0.50012 0.29549 0.857 0.0
C1588 C 0.48767 0.34724 0.89804 0.0
N1589 N 0.46501 0.37713 0.91287 0.0
C1590 C 0.4759 0.34403 0.91438 0.0
C1591 C 0.48809 0.36571 0.88938 0.0
C1592 C 0.46453 0.35932 0.92165 0.0
C1593 C 0.47646 0.38061 0.89704 0.0
C1594 C 0.46951 0.27787 0.87683 0.0
C1595 C 0.47499 0.24418 0.88545 0.0
N1596 N 0.45593 0.2402 0.88154 0.0
C1597 C 0.45001 0.27346 0.87286 0.0
C1598 C 0.48214 0.26314 0.88315 0.0
C1599 C 0.44341 0.25431 0.87536 0.0
C1600 C 0.4585 0.35287 0.84951 0.0
N1601 N 0.45882 0.33958 0.86423 0.0
C1602 C 0.42819 0.35108 0.87623 0.0
C1603 C 0.44389 0.33812 0.8772 0.0
C1604 C 0.42788 0.36549 0.86166 0.0
C1605 C 0.44311 0.36609 0.84798 0.0
H1606 H 0.47044 0.35356 0.83927 0.0
H1607 H 0.44459 0.32739 0.88876 0.0
C1608 C 0.51175 0.29848 0.93017 0.0
N1609 N 0.49608 0.29491 0.91857 0.0
C1610 C 0.51091 0.29451 0.95009 0.0
C1611 C 0.47775 0.28319 0.94585 0.0
C1612 C 0.47925 0.28738 0.92596 0.0
C1613 C 0.49363 0.28708 0.9582 0.0
H1614 H 0.52461 0.3052 0.92407 0.0
H1615 H 0.46673 0.2853 0.9166 0.0
C1616 C 0.50979 0.33143 0.83155 0.0
N1617 N 0.53114 0.35051 0.80313 0.0
C1618 C 0.51894 0.3208 0.81673 0.0
C1619 C 0.51137 0.35179 0.8318 0.0
C1620 C 0.52969 0.33072 0.80251 0.0
C1621 C 0.52227 0.36116 0.81735 0.0
C1622 C 0.54092 0.29454 0.87307 0.0
C1623 C 0.54762 0.29002 0.85433 0.0
C1624 C 0.55442 0.29778 0.88803 0.0
C1625 C 0.56768 0.28871 0.8509 0.0
C1626 C 0.57436 0.29639 0.88401 0.0
N1627 N 0.58053 0.2919 0.86569 0.0
C1628 C 0.54028 0.35438 0.8821 0.0
C1629 C 0.55203 0.33944 0.85322 0.0
C1630 C 0.55522 0.36816 0.88148 0.0
N1631 N 0.53863 0.34068 0.86784 0.0
C1632 C 0.56728 0.35292 0.85205 0.0
C1633 C 0.56867 0.36777 0.86607 0.0
H1634 H 0.52979 0.35482 0.89385 0.0
H1635 H 0.55063 0.32837 0.84211 0.0
C1636 C 0.48774 0.27663 0.82321 0.0
N1637 N 0.49952 0.27459 0.83903 0.0
C1638 C 0.48677 0.2619 0.80921 0.0
C1639 C 0.50978 0.24307 0.82828 0.0
C1640 C 0.51019 0.25813 0.84199 0.0
C1641 C 0.49798 0.24491 0.81161 0.0
H1642 H 0.47924 0.28983 0.82144 0.0
H1643 H 0.51923 0.25682 0.85487 0.0
O1644 O 0.49854 0.33232 0.89039 0.0
O1645 O 0.47622 0.29649 0.87415 0.0
O1646 O 0.49912 0.32197 0.84553 0.0
O1647 O 0.5213 0.29597 0.87668 0.0
H1648 H 0.47538 0.32985 0.92128 0.0
H1649 H 0.49714 0.36846 0.87675 0.0
H1650 H 0.45526 0.35701 0.93421 0.0
H1651 H 0.47651 0.39493 0.89037 0.0
H1652 H 0.48459 0.23263 0.89032 0.0
H1653 H 0.44008 0.28471 0.86789 0.0
H1654 H 0.4973 0.26628 0.88624 0.0
H1655 H 0.42834 0.25068 0.87236 0.0
H1656 H 0.41685 0.35035 0.88722 0.0
H1657 H 0.44327 0.37691 0.83645 0.0
H1658 H 0.52333 0.29804 0.95922 0.0
H1659 H 0.46419 0.27744 0.95159 0.0
H1660 H 0.51786 0.30507 0.81623 0.0
H1661 H 0.50452 0.36026 0.84322 0.0
H1662 H 0.53691 0.32267 0.79101 0.0
H1663 H 0.52375 0.37688 0.81748 0.0
H1664 H 0.53751 0.28795 0.84243 0.0
H1665 H 0.54962 0.30143 0.90258 0.0
H1666 H 0.57303 0.28531 0.83644 0.0
H1667 H 0.58495 0.29889 0.89546 0.0
H1668 H 0.55615 0.37915 0.89282 0.0
H1669 H 0.57747 0.35214 0.84 0.0
H1670 H 0.47738 0.26378 0.79663 0.0
H1671 H 0.51889 0.23035 0.8305 0.0
Li1672 Li 0.69101 0.49675 0.88944 0.0
Li1673 Li 0.67038 0.48089 0.86525 0.0
Li1674 Li 0.69951 0.49934 0.85451 0.0
Li1675 Li 0.67014 0.51612 0.86585 0.0
C1676 C 0.71555 0.46665 0.87624 0.0
N1677 N 0.7505 0.44927 0.8864 0.0
C1678 C 0.71637 0.44657 0.87977 0.0
C1679 C 0.73252 0.47785 0.87772 0.0
C1680 C 0.73417 0.43806 0.88495 0.0
C1681 C 0.75004 0.46881 0.8829 0.0
C1682 C 0.64672 0.48797 0.89451 0.0
C1683 C 0.61283 0.47851 0.89328 0.0
N1684 N 0.61586 0.46607 0.90845 0.0
C1685 C 0.64946 0.47523 0.9102 0.0
C1686 C 0.62822 0.48979 0.88609 0.0
C1687 C 0.63368 0.46425 0.91702 0.0
C1688 C 0.69879 0.51276 0.92602 0.0
N1689 N 0.69988 0.49591 0.91561 0.0
C1690 C 0.7096 0.47817 0.94401 0.0
C1691 C 0.70525 0.4788 0.92412 0.0
C1692 C 0.70825 0.49528 0.95522 0.0
C1693 C 0.70295 0.51279 0.94595 0.0
H1694 H 0.69403 0.52604 0.91892 0.0
H1695 H 0.7054 0.46549 0.91569 0.0
C1696 C 0.64069 0.45808 0.84761 0.0
N1697 N 0.65472 0.4583 0.86162 0.0
C1698 C 0.62725 0.44281 0.84684 0.0
C1699 C 0.64369 0.42771 0.87419 0.0
C1700 C 0.65678 0.44332 0.87447 0.0
C1701 C 0.6284 0.42767 0.86058 0.0
H1702 H 0.63952 0.47004 0.83744 0.0
H1703 H 0.66803 0.44398 0.88553 0.0
C1704 C 0.71135 0.53477 0.87533 0.0
N1705 N 0.73903 0.56402 0.8782 0.0
C1706 C 0.70902 0.55219 0.86497 0.0
C1707 C 0.72758 0.53242 0.88749 0.0
C1708 C 0.72323 0.56674 0.8665 0.0
C1709 C 0.74146 0.54732 0.88866 0.0
C1710 C 0.66328 0.50774 0.82782 0.0
C1711 C 0.6735 0.5149 0.81169 0.0
C1712 C 0.643 0.50993 0.82866 0.0
C1713 C 0.6633 0.52436 0.79677 0.0
C1714 C 0.63333 0.51951 0.81347 0.0
N1715 N 0.6436 0.52648 0.79798 0.0
C1716 C 0.72789 0.48323 0.82971 0.0
C1717 C 0.72604 0.51777 0.8286 0.0
C1718 C 0.74259 0.48323 0.81565 0.0
N1719 N 0.72011 0.50035 0.83603 0.0
C1720 C 0.74059 0.51845 0.81439 0.0
C1721 C 0.7491 0.50101 0.80781 0.0
H1722 H 0.72254 0.46954 0.83546 0.0
H1723 H 0.71905 0.53109 0.83322 0.0
C1724 C 0.64188 0.54265 0.8784 0.0
N1725 N 0.65459 0.53906 0.86361 0.0
C1726 C 0.62937 0.55868 0.87751 0.0
C1727 C 0.64339 0.56721 0.84627 0.0
C1728 C 0.65588 0.55118 0.84792 0.0
C1729 C 0.62988 0.57095 0.86115 0.0
H1730 H 0.64133 0.53293 0.89082 0.0
H1731 H 0.66639 0.54827 0.83654 0.0
O1732 O 0.69817 0.47519 0.87132 0.0
O1733 O 0.66215 0.49832 0.88719 0.0
O1734 O 0.69739 0.5205 0.87425 0.0
O1735 O 0.67307 0.4985 0.84259 0.0
H1736 H 0.70339 0.43765 0.8786 0.0
H1737 H 0.73222 0.49328 0.87461 0.0
H1738 H 0.73501 0.42255 0.8878 0.0
H1739 H 0.76329 0.47732 0.88407 0.0
H1740 H 0.59848 0.47963 0.88678 0.0
H1741 H 0.66368 0.47362 0.91687 0.0
H1742 H 0.62582 0.49968 0.87404 0.0
H1743 H 0.63563 0.45421 0.92905 0.0
H1744 H 0.71349 0.46436 0.95066 0.0
H1745 H 0.70117 0.52618 0.95416 0.0
H1746 H 0.6158 0.44305 0.83593 0.0
H1747 H 0.64496 0.41626 0.88503 0.0
H1748 H 0.69648 0.55438 0.85566 0.0
H1749 H 0.7294 0.51933 0.89611 0.0
H1750 H 0.72167 0.58021 0.8584 0.0
H1751 H 0.75411 0.54565 0.89796 0.0
H1752 H 0.68914 0.51315 0.81065 0.0
H1753 H 0.63485 0.5046 0.84105 0.0
H1754 H 0.67104 0.53003 0.78424 0.0
H1755 H 0.61767 0.52148 0.81404 0.0
H1756 H 0.74873 0.46946 0.81088 0.0
H1757 H 0.74475 0.53241 0.80825 0.0
H1758 H 0.61909 0.56121 0.88925 0.0
H1759 H 0.64425 0.57655 0.83354 0.0
Li1760 Li 0.49769 0.6911 0.89063 0.0
Li1761 Li 0.51537 0.67103 0.86668 0.0
Li1762 Li 0.49647 0.70073 0.85711 0.0
Li1763 Li 0.47906 0.67129 0.86576 0.0
C1764 C 0.53239 0.70904 0.88553 0.0
N1765 N 0.5571 0.72948 0.91001 0.0
C1766 C 0.55085 0.70159 0.89003 0.0
C1767 C 0.52659 0.72699 0.89331 0.0
C1768 C 0.56311 0.71212 0.90247 0.0
C1769 C 0.53926 0.73707 0.90571 0.0
C1770 C 0.49722 0.64429 0.89526 0.0
C1771 C 0.49149 0.60953 0.89363 0.0
N1772 N 0.49789 0.60766 0.91232 0.0
C1773 C 0.50347 0.64201 0.91456 0.0
C1774 C 0.49098 0.6279 0.88479 0.0
C1775 C 0.50382 0.62339 0.92288 0.0
C1776 C 0.48265 0.70603 0.92637 0.0
N1777 N 0.49849 0.69816 0.91737 0.0
C1778 C 0.51526 0.69518 0.94773 0.0
C1779 C 0.51474 0.6931 0.92754 0.0
C1780 C 0.49877 0.70224 0.95756 0.0
C1781 C 0.48251 0.7083 0.94666 0.0
H1782 H 0.46984 0.70972 0.9179 0.0
H1783 H 0.52694 0.68646 0.92009 0.0
C1784 C 0.54736 0.65375 0.84621 0.0
N1785 N 0.5382 0.65559 0.86372 0.0
C1786 C 0.56354 0.64144 0.84436 0.0
C1787 C 0.56083 0.63376 0.87869 0.0
C1788 C 0.5449 0.64631 0.8799 0.0
C1789 C 0.57021 0.63095 0.8607 0.0
H1790 H 0.54195 0.66164 0.83365 0.0
H1791 H 0.5378 0.64857 0.89376 0.0
C1792 C 0.46242 0.71318 0.8696 0.0
N1793 N 0.4396 0.74377 0.8566 0.0
C1794 C 0.44709 0.7097 0.85659 0.0
C1795 C 0.46599 0.73215 0.87621 0.0
C1796 C 0.43575 0.72538 0.85015 0.0
C1797 C 0.45434 0.74743 0.86939 0.0
C1798 C 0.49651 0.661 0.82929 0.0
C1799 C 0.49022 0.66614 0.81056 0.0
C1800 C 0.5019 0.6417 0.83311 0.0
C1801 C 0.48899 0.65178 0.79612 0.0
C1802 C 0.50051 0.62777 0.81829 0.0
N1803 N 0.4941 0.63305 0.80026 0.0
C1804 C 0.5075 0.73782 0.84201 0.0
C1805 C 0.48266 0.72112 0.82459 0.0
C1806 C 0.50683 0.7533 0.82876 0.0
N1807 N 0.49554 0.72216 0.83965 0.0
C1808 C 0.48161 0.73616 0.81094 0.0
C1809 C 0.49384 0.75245 0.81294 0.0
H1810 H 0.51771 0.7382 0.854 0.0
H1811 H 0.47322 0.70856 0.82321 0.0
C1812 C 0.44787 0.64878 0.87871 0.0
N1813 N 0.4564 0.65572 0.86221 0.0
C1814 C 0.43207 0.63601 0.87751 0.0
C1815 C 0.43342 0.63857 0.84234 0.0
C1816 C 0.44924 0.65129 0.84423 0.0
C1817 C 0.42491 0.63046 0.85913 0.0
H1818 H 0.45371 0.65279 0.89282 0.0
H1819 H 0.45586 0.65747 0.83135 0.0
O1820 O 0.52015 0.69885 0.87348 0.0
O1821 O 0.4967 0.66252 0.88695 0.0
O1822 O 0.47394 0.69809 0.87574 0.0
O1823 O 0.49773 0.67493 0.8436 0.0
H1824 H 0.55564 0.6878 0.88401 0.0
H1825 H 0.51238 0.73297 0.88997 0.0
H1826 H 0.57739 0.70649 0.90614 0.0
H1827 H 0.5349 0.75091 0.91194 0.0
H1828 H 0.4867 0.59677 0.88565 0.0
H1829 H 0.50813 0.65442 0.92306 0.0
H1830 H 0.48541 0.6293 0.87013 0.0
H1831 H 0.50876 0.62146 0.93775 0.0
H1832 H 0.52814 0.69057 0.95567 0.0
H1833 H 0.46952 0.71378 0.95382 0.0
H1834 H 0.57069 0.64011 0.83034 0.0
H1835 H 0.5655 0.62602 0.89167 0.0
H1836 H 0.44414 0.69509 0.85136 0.0
H1837 H 0.47768 0.73504 0.8864 0.0
H1838 H 0.42393 0.72294 0.83996 0.0
H1839 H 0.45702 0.76222 0.87426 0.0
H1840 H 0.48626 0.68102 0.80718 0.0
H1841 H 0.50742 0.63754 0.84724 0.0
H1842 H 0.48402 0.65554 0.78162 0.0
H1843 H 0.50462 0.61278 0.8211 0.0
H1844 H 0.51667 0.76555 0.83056 0.0
H1845 H 0.47137 0.73508 0.79893 0.0
H1846 H 0.4259 0.63007 0.8908 0.0
H1847 H 0.42797 0.63502 0.82793 0.0
Li1848 Li 0.70044 0.4984 0.14033 0.0
Li1849 Li 0.67143 0.48217 0.1302 0.0
Li1850 Li 0.69189 0.49781 0.10596 0.0
Li1851 Li 0.67162 0.5176 0.1293 0.0
C1852 C 0.71564 0.46567 0.12118 0.0
N1853 N 0.75095 0.44641 0.11839 0.0
C1854 C 0.71727 0.44631 0.1274 0.0
C1855 C 0.73192 0.4752 0.11345 0.0
C1856 C 0.73527 0.43683 0.1259 0.0
C1857 C 0.74965 0.46523 0.11217 0.0
C1858 C 0.67427 0.4912 0.17027 0.0
C1859 C 0.6689 0.49157 0.20505 0.0
N1860 N 0.67547 0.47286 0.20617 0.0
C1861 C 0.68095 0.47197 0.17176 0.0
C1862 C 0.66819 0.50109 0.18703 0.0
C1863 C 0.68145 0.46296 0.19004 0.0
C1864 C 0.72804 0.51668 0.16414 0.0
N1865 N 0.72125 0.4989 0.15852 0.0
C1866 C 0.74305 0.48283 0.18046 0.0
C1867 C 0.72844 0.48212 0.16631 0.0
C1868 C 0.75017 0.50099 0.18671 0.0
C1869 C 0.74267 0.51807 0.17825 0.0
H1870 H 0.72191 0.52978 0.15781 0.0
H1871 H 0.72257 0.46819 0.1619 0.0
C1872 C 0.65752 0.44427 0.12318 0.0
N1873 N 0.65448 0.46062 0.13398 0.0
C1874 C 0.64403 0.42903 0.1237 0.0
C1875 C 0.6251 0.44738 0.1472 0.0
C1876 C 0.63886 0.46236 0.14608 0.0
C1877 C 0.62743 0.4307 0.13556 0.0
H1878 H 0.67004 0.44343 0.1136 0.0
H1879 H 0.63674 0.47566 0.15432 0.0
C1880 C 0.71083 0.53451 0.11339 0.0
N1881 N 0.73355 0.56259 0.09542 0.0
C1882 C 0.70208 0.55068 0.10454 0.0
C1883 C 0.73117 0.53284 0.11346 0.0
C1884 C 0.71381 0.56465 0.09542 0.0
C1885 C 0.74239 0.54713 0.1042 0.0
C1886 C 0.64726 0.49021 0.10156 0.0
C1887 C 0.6492 0.47617 0.08689 0.0
C1888 C 0.62894 0.49384 0.10975 0.0
C1889 C 0.63273 0.46578 0.0808 0.0
C1890 C 0.61283 0.48313 0.10326 0.0
N1891 N 0.61505 0.46943 0.08906 0.0
C1892 C 0.70645 0.48002 0.07139 0.0
C1893 C 0.6977 0.51338 0.06855 0.0
C1894 C 0.71061 0.47908 0.05146 0.0
N1895 N 0.70021 0.49704 0.07951 0.0
C1896 C 0.70179 0.51313 0.04862 0.0
C1897 C 0.7082 0.49578 0.03984 0.0
H1898 H 0.70755 0.467 0.08022 0.0
H1899 H 0.69173 0.52639 0.0751 0.0
C1900 C 0.65657 0.55109 0.14859 0.0
N1901 N 0.65667 0.54055 0.13178 0.0
C1902 C 0.64479 0.56769 0.15019 0.0
C1903 C 0.63369 0.56221 0.11711 0.0
C1904 C 0.64564 0.54579 0.11616 0.0
C1905 C 0.63318 0.5734 0.13427 0.0
H1906 H 0.6655 0.54648 0.16078 0.0
H1907 H 0.64599 0.53704 0.10302 0.0
O1908 O 0.69819 0.4752 0.12284 0.0
O1909 O 0.6738 0.50044 0.15258 0.0
O1910 O 0.69957 0.5208 0.12256 0.0
O1911 O 0.66332 0.49999 0.10824 0.0
H1912 H 0.70479 0.43874 0.13345 0.0
H1913 H 0.73079 0.49006 0.10834 0.0
H1914 H 0.73677 0.42187 0.13072 0.0
H1915 H 0.76237 0.47244 0.10621 0.0
H1916 H 0.66426 0.49906 0.21815 0.0
H1917 H 0.68579 0.46409 0.15898 0.0
H1918 H 0.663 0.516 0.18612 0.0
H1919 H 0.68662 0.4481 0.19141 0.0
H1920 H 0.74839 0.46936 0.18678 0.0
H1921 H 0.74801 0.53233 0.18252 0.0
H1922 H 0.6463 0.41627 0.11464 0.0
H1923 H 0.61237 0.44915 0.15641 0.0
H1924 H 0.68639 0.55234 0.10455 0.0
H1925 H 0.73825 0.52077 0.12075 0.0
H1926 H 0.70721 0.57714 0.08836 0.0
H1927 H 0.75814 0.54597 0.10408 0.0
H1928 H 0.66331 0.47314 0.08048 0.0
H1929 H 0.62725 0.50458 0.12121 0.0
H1930 H 0.63402 0.45474 0.06958 0.0
H1931 H 0.59859 0.48565 0.10958 0.0
H1932 H 0.71523 0.46536 0.0451 0.0
H1933 H 0.6991 0.52613 0.04002 0.0
H1934 H 0.64472 0.57593 0.16368 0.0
H1935 H 0.62458 0.56583 0.10471 0.0
Li1936 Li 0.49952 0.70015 0.14419 0.0
Li1937 Li 0.51674 0.67147 0.13401 0.0
Li1938 Li 0.49856 0.68991 0.10932 0.0
Li1939 Li 0.48215 0.67038 0.13402 0.0
C1940 C 0.54058 0.70183 0.12939 0.0
N1941 N 0.57974 0.70651 0.13791 0.0
C1942 C 0.54659 0.70529 0.14858 0.0
C1943 C 0.55451 0.70079 0.11453 0.0
C1944 C 0.56644 0.70763 0.15259 0.0
C1945 C 0.57423 0.70317 0.11913 0.0
C1946 C 0.50897 0.66549 0.17197 0.0
C1947 C 0.52151 0.63651 0.18758 0.0
N1948 N 0.52885 0.64771 0.20225 0.0
C1949 C 0.51656 0.6767 0.18725 0.0
C1950 C 0.51138 0.64522 0.17217 0.0
C1951 C 0.52659 0.66744 0.2024 0.0
C1952 C 0.48617 0.72125 0.17642 0.0
N1953 N 0.49842 0.72206 0.16086 0.0
C1954 C 0.50905 0.75399 0.16988 0.0
C1955 C 0.50955 0.73807 0.1572 0.0
C1956 C 0.49676 0.75343 0.18625 0.0
C1957 C 0.48513 0.73687 0.18943 0.0
H1958 H 0.47743 0.70831 0.17884 0.0
H1959 H 0.51894 0.7384 0.14453 0.0
C1960 C 0.54405 0.64473 0.12067 0.0
N1961 N 0.54017 0.6563 0.13631 0.0
C1962 C 0.56054 0.63284 0.12049 0.0
C1963 C 0.5691 0.64515 0.15242 0.0
C1964 C 0.5525 0.65699 0.1519 0.0
C1965 C 0.57323 0.63291 0.13655 0.0
H1966 H 0.53428 0.64467 0.1083 0.0
H1967 H 0.54948 0.66662 0.16398 0.0
C1968 C 0.46941 0.71596 0.12195 0.0
N1969 N 0.45566 0.75297 0.11373 0.0
C1970 C 0.4496 0.72024 0.12415 0.0
C1971 C 0.48225 0.73051 0.11561 0.0
C1972 C 0.44292 0.73904 0.1199 0.0
C1973 C 0.47501 0.74912 0.11153 0.0
C1974 C 0.49016 0.64592 0.10581 0.0
C1975 C 0.47765 0.64814 0.08985 0.0
C1976 C 0.49221 0.62761 0.11458 0.0
C1977 C 0.46715 0.63201 0.08309 0.0
C1978 C 0.48142 0.61185 0.10742 0.0
N1979 N 0.46921 0.61436 0.09196 0.0
C1980 C 0.51423 0.69121 0.07234 0.0
C1981 C 0.48232 0.70458 0.07346 0.0
C1982 C 0.51477 0.69325 0.05213 0.0
N1983 N 0.49819 0.69679 0.08253 0.0
C1984 C 0.48223 0.70688 0.05318 0.0
C1985 C 0.49846 0.70076 0.0423 0.0
H1986 H 0.5263 0.68441 0.07987 0.0
H1987 H 0.46945 0.70824 0.08177 0.0
C1988 C 0.45944 0.64061 0.15173 0.0
N1989 N 0.45967 0.65458 0.13766 0.0
C1990 C 0.44402 0.62735 0.15276 0.0
C1991 C 0.42893 0.64366 0.12532 0.0
C1992 C 0.44466 0.6566 0.12483 0.0
C1993 C 0.42866 0.62864 0.13926 0.0
H1994 H 0.47146 0.6394 0.16182 0.0
H1995 H 0.44533 0.66781 0.11372 0.0
O1996 O 0.5212 0.69919 0.12524 0.0
O1997 O 0.49892 0.6743 0.15712 0.0
O1998 O 0.47614 0.69768 0.12633 0.0
O1999 O 0.50013 0.66165 0.11302 0.0
H2000 H 0.53609 0.70585 0.16032 0.0
H2001 H 0.55019 0.69818 0.09959 0.0
H2002 H 0.57128 0.71022 0.1674 0.0
H2003 H 0.58517 0.70236 0.10777 0.0
H2004 H 0.52362 0.62086 0.18784 0.0
H2005 H 0.51478 0.69238 0.1874 0.0
H2006 H 0.50579 0.63632 0.1604 0.0
H2007 H 0.53259 0.67594 0.21428 0.0
H2008 H 0.51815 0.76659 0.16697 0.0
H2009 H 0.47569 0.73583 0.20206 0.0
H2010 H 0.56316 0.62341 0.10808 0.0
H2011 H 0.57865 0.64561 0.16502 0.0
H2012 H 0.43949 0.70914 0.1291 0.0
H2013 H 0.49763 0.72747 0.11381 0.0
H2014 H 0.42762 0.74257 0.12152 0.0
H2015 H 0.48477 0.76052 0.1066 0.0
H2016 H 0.47584 0.66221 0.08292 0.0
H2017 H 0.5019 0.62564 0.12689 0.0
H2018 H 0.4573 0.63354 0.07084 0.0
H2019 H 0.48274 0.59764 0.11416 0.0
H2020 H 0.5276 0.6885 0.04421 0.0
H2021 H 0.46931 0.71253 0.04602 0.0
H2022 H 0.44425 0.61599 0.16376 0.0
H2023 H 0.41753 0.64491 0.11445 0.0
Li2024 Li 0.47676 0.32764 0.12947 0.0
Li2025 Li 0.49722 0.30016 0.14119 0.0
Li2026 Li 0.51328 0.32959 0.12872 0.0
Li2027 Li 0.49697 0.30749 0.10777 0.0
C2028 C 0.5065 0.33597 0.16574 0.0
N2029 N 0.53068 0.35431 0.19234 0.0
C2030 C 0.51914 0.32499 0.1774 0.0
C2031 C 0.50623 0.35631 0.16756 0.0
C2032 C 0.5312 0.33452 0.1908 0.0
C2033 C 0.51856 0.3653 0.18109 0.0
C2034 C 0.46339 0.28503 0.13132 0.0
C2035 C 0.45677 0.25078 0.13609 0.0
N2036 N 0.44256 0.25545 0.14914 0.0
C2037 C 0.44862 0.28951 0.14466 0.0
C2038 C 0.46741 0.26553 0.12686 0.0
C2039 C 0.43828 0.27433 0.15355 0.0
C2040 C 0.43847 0.33924 0.1198 0.0
N2041 N 0.45329 0.34187 0.13273 0.0
C2042 C 0.43536 0.36674 0.14931 0.0
C2043 C 0.45189 0.35497 0.14755 0.0
C2044 C 0.42013 0.36487 0.13573 0.0
C2045 C 0.42169 0.35075 0.12096 0.0
H2046 H 0.43982 0.3284 0.10842 0.0
H2047 H 0.46375 0.35655 0.1578 0.0
C2048 C 0.50953 0.26452 0.15834 0.0
N2049 N 0.4977 0.28029 0.16044 0.0
C2050 C 0.50918 0.24954 0.17212 0.0
C2051 C 0.48484 0.2676 0.19022 0.0
C2052 C 0.48567 0.28222 0.17609 0.0
C2053 C 0.49655 0.25091 0.18818 0.0
H2054 H 0.51917 0.2635 0.14593 0.0
H2055 H 0.47664 0.29509 0.17749 0.0
C2056 C 0.49457 0.34156 0.08916 0.0
N2057 N 0.49502 0.35008 0.04972 0.0
C2058 C 0.5119 0.34747 0.08013 0.0
C2059 C 0.47746 0.34011 0.07814 0.0
C2060 C 0.51182 0.35173 0.06019 0.0
C2061 C 0.478 0.3444 0.05821 0.0
C2062 C 0.5322 0.29157 0.11225 0.0
C2063 C 0.54974 0.29958 0.10555 0.0
C2064 C 0.52691 0.2727 0.10654 0.0
C2065 C 0.56162 0.28861 0.09313 0.0
C2066 C 0.53917 0.26221 0.09408 0.0
N2067 N 0.55613 0.27032 0.08769 0.0
C2068 C 0.55124 0.34194 0.14023 0.0
C2069 C 0.53141 0.36594 0.12505 0.0
C2070 C 0.56673 0.35515 0.1416 0.0
N2071 N 0.53417 0.34747 0.13174 0.0
C2072 C 0.54651 0.37953 0.12597 0.0
C2073 C 0.56451 0.37405 0.13403 0.0
H2074 H 0.55289 0.32721 0.14568 0.0
H2075 H 0.51751 0.37002 0.11878 0.0
C2076 C 0.48048 0.2885 0.07503 0.0
N2077 N 0.49694 0.29734 0.08174 0.0
C2078 C 0.47882 0.28351 0.05533 0.0
C2079 C 0.51136 0.29609 0.05005 0.0
C2080 C 0.51233 0.30095 0.06974 0.0
C2081 C 0.49427 0.2877 0.04256 0.0
H2082 H 0.46834 0.28605 0.08481 0.0
H2083 H 0.52502 0.3085 0.07521 0.0
O2084 O 0.49501 0.32695 0.15211 0.0
O2085 O 0.47407 0.29964 0.12292 0.0
O2086 O 0.49444 0.3369 0.10859 0.0
O2087 O 0.52044 0.30208 0.1245 0.0
H2088 H 0.51983 0.30928 0.17599 0.0
H2089 H 0.49695 0.36511 0.15831 0.0
H2090 H 0.54107 0.3262 0.19989 0.0
H2091 H 0.51859 0.38103 0.18255 0.0
H2092 H 0.45983 0.23562 0.13289 0.0
H2093 H 0.44538 0.30452 0.14834 0.0
H2094 H 0.47872 0.26184 0.1165 0.0
H2095 H 0.42692 0.27757 0.16402 0.0
H2096 H 0.43482 0.37765 0.16075 0.0
H2097 H 0.41017 0.34882 0.11031 0.0
H2098 H 0.51848 0.23691 0.17012 0.0
H2099 H 0.47526 0.26938 0.20266 0.0
H2100 H 0.52536 0.34836 0.08832 0.0
H2101 H 0.46399 0.3354 0.08481 0.0
H2102 H 0.52515 0.35618 0.053 0.0
H2103 H 0.46491 0.34314 0.04947 0.0
H2104 H 0.55404 0.31419 0.1097 0.0
H2105 H 0.51334 0.26632 0.11145 0.0
H2106 H 0.57518 0.29467 0.08776 0.0
H2107 H 0.53518 0.24765 0.08945 0.0
H2108 H 0.58042 0.35053 0.14803 0.0
H2109 H 0.54419 0.39413 0.12036 0.0
H2110 H 0.46543 0.27698 0.05001 0.0
H2111 H 0.52345 0.29981 0.04057 0.0
C2112 C 0.12478 0.39709 0.38211 0.0
C2113 C 0.13885 0.41201 0.38242 0.0
C2114 C 0.12473 0.38238 0.39629 0.0
C2115 C 0.13864 0.38216 0.41142 0.0
H2116 H 0.11354 0.39698 0.37098 0.0
H2117 H 0.11347 0.37129 0.39562 0.0
S2118 S 0.17842 0.4182 0.41877 0.0
N2119 N 0.16713 0.42569 0.39883 0.0
N2120 N 0.16686 0.39825 0.4258 0.0
C2121 C 0.15307 0.39678 0.41161 0.0
C2122 C 0.1532 0.41168 0.39705 0.0
C2123 C 0.61318 0.14075 0.39396 0.0
C2124 C 0.61055 0.1312 0.41192 0.0
C2125 C 0.59823 0.14111 0.37995 0.0
C2126 C 0.58015 0.13201 0.38351 0.0
H2127 H 0.627 0.14767 0.39059 0.0
H2128 H 0.60098 0.14824 0.36611 0.0
S2129 S 0.56534 0.1071 0.42928 0.0
N2130 N 0.5882 0.11369 0.43313 0.0
N2131 N 0.55999 0.11463 0.40703 0.0
C2132 C 0.5772 0.12296 0.40171 0.0
C2133 C 0.59243 0.12249 0.41585 0.0
C2134 C 0.84816 0.60603 0.40891 0.0
C2135 C 0.86381 0.61925 0.41048 0.0
C2136 C 0.84793 0.59162 0.39437 0.0
C2137 C 0.8634 0.5899 0.38102 0.0
H2138 H 0.8364 0.60628 0.41948 0.0
H2139 H 0.83599 0.58125 0.39409 0.0
S2140 S 0.90632 0.62257 0.37709 0.0
N2141 N 0.89403 0.63103 0.39602 0.0
N2142 N 0.89376 0.60365 0.36899 0.0
C2143 C 0.87863 0.60357 0.38182 0.0
C2144 C 0.8788 0.61833 0.39648 0.0
C2145 C 0.38019 0.86724 0.39272 0.0
C2146 C 0.38229 0.85614 0.40986 0.0
C2147 C 0.39481 0.86745 0.37844 0.0
C2148 C 0.41206 0.85657 0.3808 0.0
H2149 H 0.36727 0.87608 0.39048 0.0
H2150 H 0.39274 0.87643 0.3656 0.0
S2151 S 0.42481 0.8254 0.4232 0.0
N2152 N 0.40294 0.83406 0.42844 0.0
N2153 N 0.43046 0.83447 0.4016 0.0
C2154 C 0.41416 0.84506 0.39766 0.0
C2155 C 0.39926 0.84484 0.4122 0.0
C2156 C 0.11814 0.5865 0.59869 0.0
C2157 C 0.12949 0.58855 0.61569 0.0
C2158 C 0.11797 0.601 0.5843 0.0
C2159 C 0.12921 0.61805 0.58632 0.0
H2160 H 0.10956 0.57343 0.59633 0.0
H2161 H 0.10921 0.59871 0.57133 0.0
S2162 S 0.16029 0.6312 0.62862 0.0
N2163 N 0.15144 0.60948 0.63419 0.0
N2164 N 0.15128 0.63665 0.60693 0.0
C2165 C 0.14046 0.62043 0.6033 0.0
C2166 C 0.14056 0.6057 0.61803 0.0
C2167 C 0.39788 0.14719 0.58535 0.0
C2168 C 0.38076 0.13619 0.58811 0.0
C2169 C 0.41263 0.1475 0.59952 0.0
C2170 C 0.41079 0.1368 0.61694 0.0
H2171 H 0.40019 0.15513 0.57187 0.0
H2172 H 0.42584 0.15567 0.59653 0.0
S2173 S 0.36787 0.10758 0.63222 0.0
N2174 N 0.3621 0.11569 0.61026 0.0
N2175 N 0.38989 0.11623 0.63689 0.0
C2176 C 0.39346 0.12632 0.62019 0.0
C2177 C 0.37843 0.12602 0.60578 0.0
C2178 C 0.85556 0.41056 0.59654 0.0
C2179 C 0.86187 0.40684 0.61568 0.0
C2180 C 0.85514 0.39569 0.58254 0.0
C2181 C 0.86081 0.37649 0.58723 0.0
H2182 H 0.85143 0.4252 0.59221 0.0
H2183 H 0.85082 0.39941 0.56779 0.0
S2184 S 0.87661 0.35894 0.636 0.0
N2185 N 0.87286 0.38257 0.63904 0.0
N2186 N 0.87158 0.35436 0.61287 0.0
C2187 C 0.86658 0.37249 0.60654 0.0
C2188 C 0.86722 0.38772 0.62074 0.0
C2189 C 0.60107 0.85953 0.61959 0.0
C2190 C 0.58138 0.85823 0.61398 0.0
C2191 C 0.616 0.85944 0.60557 0.0
C2192 C 0.61168 0.85769 0.58557 0.0
H2193 H 0.6049 0.8612 0.63485 0.0
H2194 H 0.631 0.86087 0.61038 0.0
S2195 S 0.56242 0.85316 0.56358 0.0
N2196 N 0.55833 0.85464 0.58729 0.0
N2197 N 0.58634 0.85435 0.56094 0.0
C2198 C 0.59206 0.8559 0.57987 0.0
C2199 C 0.57691 0.85621 0.59409 0.0
C2200 C 0.39623 0.14792 0.41195 0.0
C2201 C 0.37831 0.13822 0.40981 0.0
C2202 C 0.4101 0.14778 0.39694 0.0
C2203 C 0.40646 0.13807 0.37918 0.0
H2204 H 0.39981 0.15514 0.42556 0.0
H2205 H 0.42403 0.15482 0.39953 0.0
S2206 S 0.36064 0.1125 0.36564 0.0
N2207 N 0.35696 0.11986 0.3883 0.0
N2208 N 0.38279 0.12 0.35978 0.0
C2209 C 0.38821 0.12898 0.37662 0.0
C2210 C 0.37419 0.12896 0.39201 0.0
C2211 C 0.86053 0.40377 0.41848 0.0
C2212 C 0.8621 0.38388 0.41363 0.0
C2213 C 0.85917 0.41811 0.40398 0.0
C2214 C 0.85946 0.4131 0.38408 0.0
H2215 H 0.86039 0.4083 0.43363 0.0
H2216 H 0.85833 0.43328 0.40839 0.0
S2217 S 0.86295 0.36308 0.36366 0.0
N2218 N 0.86368 0.35987 0.38754 0.0
N2219 N 0.86089 0.38686 0.36023 0.0
C2220 C 0.86077 0.39326 0.37901 0.0
C2221 C 0.86209 0.37863 0.39379 0.0
C2222 C 0.59059 0.85041 0.39417 0.0
C2223 C 0.58999 0.86562 0.38035 0.0
C2224 C 0.60464 0.85021 0.40906 0.0
C2225 C 0.61843 0.8653 0.41069 0.0
H2226 H 0.57967 0.83897 0.39397 0.0
H2227 H 0.60425 0.83861 0.4198 0.0
S2228 S 0.62483 0.90699 0.37689 0.0
N2229 N 0.60585 0.89498 0.36812 0.0
N2230 N 0.63183 0.89485 0.3965 0.0
C2231 C 0.61855 0.88011 0.39657 0.0
C2232 C 0.60443 0.88021 0.38129 0.0
C2233 C 0.14429 0.61541 0.40105 0.0
C2234 C 0.12908 0.61634 0.41482 0.0
C2235 C 0.14449 0.60102 0.3865 0.0
C2236 C 0.12946 0.58712 0.38518 0.0
H2237 H 0.15606 0.62596 0.40146 0.0
H2238 H 0.15643 0.60084 0.37612 0.0
S2239 S 0.08724 0.58215 0.41865 0.0
N2240 N 0.09923 0.60138 0.42688 0.0
N2241 N 0.09955 0.57445 0.39942 0.0
C2242 C 0.11428 0.58774 0.39895 0.0
C2243 C 0.1141 0.60233 0.41379 0.0
C2244 C 0.394 0.87943 0.5896 0.0
C2245 C 0.37949 0.86489 0.58876 0.0
C2246 C 0.40797 0.8796 0.60452 0.0
C2247 C 0.40805 0.86514 0.61905 0.0
H2248 H 0.39492 0.89051 0.57835 0.0
H2249 H 0.41913 0.89082 0.6044 0.0
S2250 S 0.37236 0.82492 0.62467 0.0
N2251 N 0.36526 0.83651 0.60476 0.0
N2252 N 0.39197 0.83658 0.63248 0.0
C2253 C 0.39347 0.85076 0.61869 0.0
C2254 C 0.37908 0.85069 0.60363 0.0
C2255 C 0.12764 0.39554 0.61934 0.0
C2256 C 0.13857 0.4128 0.61721 0.0
C2257 C 0.12791 0.38103 0.60492 0.0
C2258 C 0.13912 0.38327 0.58788 0.0
H2259 H 0.11864 0.39333 0.63214 0.0
H2260 H 0.11911 0.36806 0.60702 0.0
S2261 S 0.16977 0.42601 0.57501 0.0
N2262 N 0.16065 0.43145 0.59663 0.0
N2263 N 0.16117 0.40416 0.56954 0.0
C2264 C 0.15035 0.40031 0.58571 0.0
C2265 C 0.15007 0.41508 0.60038 0.0
C2266 C 0.58914 0.14799 0.59978 0.0
C2267 C 0.59041 0.1354 0.61595 0.0
C2268 C 0.60348 0.14788 0.5852 0.0
C2269 C 0.61959 0.13519 0.5863 0.0
H2270 H 0.57659 0.15745 0.598 0.0
H2271 H 0.60155 0.15728 0.57262 0.0
S2272 S 0.63102 0.10136 0.62698 0.0
N2273 N 0.60996 0.11131 0.63316 0.0
N2274 N 0.63695 0.11112 0.60575 0.0
C2275 C 0.62148 0.1232 0.60283 0.0
C2276 C 0.60689 0.1233 0.61766 0.0
C2277 C 0.8489 0.59294 0.6116 0.0
C2278 C 0.86638 0.5827 0.6149 0.0
C2279 C 0.84798 0.608 0.59775 0.0
C2280 C 0.8646 0.61349 0.58701 0.0
H2281 H 0.83573 0.58891 0.61937 0.0
H2282 H 0.83418 0.61533 0.59533 0.0
S2283 S 0.91398 0.59162 0.59077 0.0
N2284 N 0.90075 0.57943 0.6068 0.0
N2285 N 0.89903 0.60767 0.58075 0.0
C2286 C 0.88224 0.60364 0.59051 0.0
C2287 C 0.88313 0.58824 0.60446 0.0
C2288 C 0.38372 0.40315 0.11933 0.0
C2289 C 0.37369 0.40775 0.13665 0.0
C2290 C 0.39829 0.38882 0.11907 0.0
C2291 C 0.4034 0.37859 0.13612 0.0
H2292 H 0.38077 0.41115 0.10602 0.0
H2293 H 0.40608 0.38622 0.10556 0.0
S2294 S 0.38003 0.38357 0.18467 0.0
N2295 N 0.36876 0.39984 0.17088 0.0
N2296 N 0.39628 0.37292 0.1704 0.0
C2297 C 0.39303 0.38255 0.15336 0.0
C2298 C 0.37815 0.39712 0.15363 0.0
C2299 C 0.39234 0.61751 0.86942 0.0
C2300 C 0.40909 0.61576 0.85767 0.0
C2301 C 0.37799 0.60294 0.86956 0.0
C2302 C 0.37984 0.58612 0.85794 0.0
H2303 H 0.39045 0.63013 0.87876 0.0
H2304 H 0.36545 0.60474 0.87902 0.0
S2305 S 0.42117 0.57423 0.82509 0.0
N2306 N 0.42685 0.59575 0.83436 0.0
N2307 N 0.39981 0.5684 0.83458 0.0
C2308 C 0.39634 0.58434 0.84588 0.0
C2309 C 0.41097 0.59915 0.84576 0.0
C2310 C 0.41787 0.40049 0.86037 0.0
C2311 C 0.4125 0.3807 0.86143 0.0
C2312 C 0.40377 0.41527 0.86055 0.0
C2313 C 0.38377 0.41082 0.8618 0.0
H2314 H 0.43312 0.40461 0.85974 0.0
H2315 H 0.4086 0.43033 0.86003 0.0
S2316 S 0.36203 0.36126 0.86353 0.0
N2317 N 0.38582 0.35736 0.8629 0.0
N2318 N 0.35924 0.38521 0.8632 0.0
C2319 C 0.37818 0.39109 0.86264 0.0
C2320 C 0.39256 0.37601 0.86247 0.0
C2321 C 0.61798 0.39262 0.86113 0.0
C2322 C 0.61303 0.41254 0.86151 0.0
C2323 C 0.60353 0.37815 0.86236 0.0
C2324 C 0.58372 0.38317 0.86434 0.0
H2325 H 0.63311 0.38821 0.85979 0.0
H2326 H 0.60789 0.36295 0.86207 0.0
S2327 S 0.56326 0.43327 0.86617 0.0
N2328 N 0.58704 0.43654 0.8641 0.0
N2329 N 0.55989 0.40939 0.8663 0.0
C2330 C 0.57862 0.40304 0.86471 0.0
C2331 C 0.59328 0.41772 0.86331 0.0
C2332 C 0.61526 0.60164 0.87414 0.0
C2333 C 0.61589 0.58727 0.85955 0.0
C2334 C 0.60094 0.61621 0.87391 0.0
C2335 C 0.58655 0.61677 0.85922 0.0
H2336 H 0.62577 0.60143 0.88597 0.0
H2337 H 0.60092 0.62692 0.88554 0.0
S2338 S 0.58183 0.58203 0.81789 0.0
N2339 N 0.60126 0.57441 0.82996 0.0
N2340 N 0.57389 0.60146 0.82975 0.0
C2341 C 0.5873 0.60263 0.84432 0.0
C2342 C 0.60206 0.58794 0.84446 0.0
C2343 C 0.60687 0.59175 0.15176 0.0
C2344 C 0.6197 0.59027 0.13579 0.0
C2345 C 0.59237 0.60618 0.15233 0.0
C2346 C 0.59018 0.61955 0.13692 0.0
H2347 H 0.60749 0.58116 0.1635 0.0
H2348 H 0.58226 0.60633 0.16449 0.0
S2349 S 0.62184 0.62373 0.09327 0.0
N2350 N 0.63065 0.60479 0.10531 0.0
N2351 N 0.60322 0.63175 0.1063 0.0
C2352 C 0.60354 0.61888 0.1214 0.0
C2353 C 0.61834 0.60428 0.12085 0.0
C2354 C 0.40426 0.57901 0.13742 0.0
C2355 C 0.38428 0.58365 0.1366 0.0
C2356 C 0.41844 0.59367 0.13862 0.0
C2357 C 0.41319 0.61352 0.13889 0.0
H2358 H 0.40896 0.56391 0.13716 0.0
H2359 H 0.43368 0.58944 0.13895 0.0
S2360 S 0.36287 0.63338 0.13725 0.0
N2361 N 0.35993 0.60947 0.1362 0.0
N2362 N 0.38665 0.63707 0.13864 0.0
C2363 C 0.39327 0.61837 0.13822 0.0
C2364 C 0.3788 0.60342 0.13709 0.0
C2365 C 0.60554 0.40659 0.15212 0.0
C2366 C 0.61193 0.41571 0.13488 0.0
C2367 C 0.59042 0.39278 0.15172 0.0
C2368 C 0.581 0.38797 0.13412 0.0
H2369 H 0.61229 0.41016 0.16597 0.0
H2370 H 0.58578 0.38612 0.16529 0.0
S2371 S 0.59234 0.40782 0.08507 0.0
N2372 N 0.6078 0.41899 0.09981 0.0
N2373 N 0.57934 0.39311 0.09906 0.0
C2374 C 0.58734 0.39695 0.11681 0.0
C2375 C 0.60283 0.4108 0.11719 0.0
C2376 C 0.01064 0.29064 0.51714 0.0
C2377 C 0.0214 0.28292 0.50148 0.0
C2378 C 0.99021 0.29022 0.51706 0.0
C2379 C 0.97982 0.282 0.50134 0.0
H2380 H 0.01802 0.29794 0.52908 0.0
H2381 H 0.98251 0.29724 0.52895 0.0
S2382 S 0.00136 0.25724 0.45829 0.0
N2383 N 0.02038 0.26506 0.47087 0.0
N2384 N 0.9819 0.26402 0.4708 0.0
C2385 C 0.99047 0.27321 0.48616 0.0
C2386 C 0.01128 0.27373 0.48621 0.0
C2387 C 0.7073 0.00902 0.51595 0.0
C2388 C 0.7159 0.01868 0.50004 0.0
C2389 C 0.70702 0.98861 0.517 0.0
C2390 C 0.71543 0.9771 0.5022 0.0
H2391 H 0.69986 0.01727 0.52721 0.0
H2392 H 0.69933 0.98181 0.52902 0.0
S2393 S 0.74231 0.99549 0.45893 0.0
N2394 N 0.73468 0.01541 0.47016 0.0
N2395 N 0.7345 0.97696 0.47225 0.0
C2396 C 0.72507 0.98663 0.48677 0.0
C2397 C 0.72523 0.00743 0.48566 0.0
C2398 C 0.98487 0.71758 0.48734 0.0
C2399 C 0.97572 0.71555 0.5056 0.0
C2400 C 0.00526 0.71793 0.48577 0.0
C2401 C 0.01721 0.71634 0.50239 0.0
H2402 H 0.97627 0.71792 0.47408 0.0
H2403 H 0.01172 0.71883 0.47137 0.0
S2404 S 0.0003 0.71259 0.55373 0.0
N2405 N 0.98002 0.71364 0.54075 0.0
N2406 N 0.01834 0.71375 0.53781 0.0
C2407 C 0.0082 0.71531 0.52082 0.0
C2408 C 0.98745 0.71501 0.52241 0.0
C2409 C 0.30464 0.0092 0.48521 0.0
C2410 C 0.28943 0.01948 0.49433 0.0
C2411 C 0.30486 0.9888 0.4849 0.0
C2412 C 0.28979 0.97786 0.49358 0.0
H2413 H 0.31677 0.017 0.47871 0.0
H2414 H 0.31721 0.98155 0.4782 0.0
S2415 S 0.24582 0.99793 0.51797 0.0
N2416 N 0.25847 0.01741 0.51147 0.0
N2417 N 0.25865 0.97889 0.51061 0.0
C2418 C 0.27425 0.98798 0.50239 0.0
C2419 C 0.27412 0.00882 0.50283 0.0
C2420 C 0.47946 0.98948 0.29201 0.0
C2421 C 0.49505 0.97914 0.28361 0.0
C2422 C 0.47901 0.00991 0.29168 0.0
C2423 C 0.49408 0.02073 0.28284 0.0
H2424 H 0.46802 0.98176 0.29973 0.0
H2425 H 0.46723 0.01728 0.29921 0.0
S2426 S 0.53663 0.00033 0.25628 0.0
N2427 N 0.52489 0.98097 0.26457 0.0
N2428 N 0.5239 0.01945 0.26361 0.0
C2429 C 0.50917 0.01049 0.27341 0.0
C2430 C 0.50968 0.98967 0.27387 0.0
C2431 C 0.98713 0.50638 0.27723 0.0
C2432 C 0.97674 0.49341 0.28929 0.0
C2433 C 0.0076 0.50667 0.27725 0.0
C2434 C 0.01836 0.49404 0.28934 0.0
H2435 H 0.97937 0.51654 0.26792 0.0
H2436 H 0.01506 0.51706 0.26794 0.0
S2437 S 0.99802 0.45806 0.32435 0.0
N2438 N 0.97868 0.46801 0.31399 0.0
N2439 N 0.01709 0.4686 0.31407 0.0
C2440 C 0.00812 0.48086 0.3013 0.0
C2441 C 0.98732 0.48055 0.30126 0.0
C2442 C 0.51422 0.98952 0.71955 0.0
C2443 C 0.49787 0.97894 0.71309 0.0
C2444 C 0.5143 0.00997 0.71932 0.0
C2445 C 0.49805 0.02056 0.71254 0.0
H2446 H 0.52724 0.98191 0.72433 0.0
H2447 H 0.52737 0.01756 0.72398 0.0
S2448 S 0.4517 -0.00036 0.69388 0.0
N2449 N 0.46498 0.98045 0.69988 0.0
N2450 N 0.46516 0.0189 0.69928 0.0
C2451 C 0.48139 0.01014 0.70659 0.0
C2452 C 0.48129 0.98932 0.7069 0.0
C2453 C 0.98705 0.5112 0.70928 0.0
C2454 C 0.97692 0.49401 0.71416 0.0
C2455 C 0.00748 0.51175 0.70922 0.0
C2456 C 0.0185 0.49511 0.71399 0.0
H2457 H 0.97917 0.52409 0.70459 0.0
H2458 H 0.01468 0.52502 0.70451 0.0
S2459 S -0.00095 0.44735 0.73043 0.0
N2460 N 0.97942 0.46058 0.72582 0.0
N2461 N 0.0179 0.46158 0.72557 0.0
C2462 C 0.00858 0.47813 0.71985 0.0
C2463 C 0.98778 0.47759 0.71996 0.0
C2464 C 0.29054 0.48279 0.98801 0.0
C2465 C 0.28549 0.49953 0.97729 0.0
C2466 C 0.29006 0.48285 0.00843 0.0
C2467 C 0.28441 0.49963 0.01886 0.0
H2468 H 0.29574 0.46983 0.98059 0.0
H2469 H 0.29498 0.46992 0.0161 0.0
S2470 S 0.26718 0.54629 0.99741 0.0
N2471 N 0.27296 0.53269 0.97836 0.0
N2472 N 0.2717 0.53274 0.01683 0.0
C2473 C 0.27833 0.51613 0.00825 0.0
C2474 C 0.27896 0.5161 0.98744 0.0
C2475 C 0.50683 0.27545 0.99017 0.0
C2476 C 0.49196 0.28493 0.97964 0.0
C2477 C 0.50697 0.27555 0.01062 0.0
C2478 C 0.49222 0.28509 0.02123 0.0
H2479 H 0.51873 0.26838 0.98254 0.0
H2480 H 0.51899 0.2686 0.01819 0.0
S2481 S 0.45017 0.31221 0.00062 0.0
N2482 N 0.46211 0.30405 0.98134 0.0
N2483 N 0.46236 0.30417 0.01979 0.0
C2484 C 0.47695 0.29408 0.01091 0.0
C2485 C 0.47682 0.29401 0.99009 0.0
C2486 C 0.70039 0.48011 0.98743 0.0
C2487 C 0.71041 0.49452 0.97675 0.0
C2488 C 0.70042 0.48019 0.00786 0.0
C2489 C 0.71042 0.49471 0.01837 0.0
H2490 H 0.69179 0.46913 0.97997 0.0
H2491 H 0.69187 0.46927 0.01548 0.0
S2492 S 0.7409 0.53421 0.99742 0.0
N2493 N 0.7321 0.52258 0.97822 0.0
N2494 N 0.73199 0.52282 0.01671 0.0
C2495 C 0.72118 0.5087 0.00792 0.0
C2496 C 0.72121 0.50858 0.98709 0.0
C2497 C 0.49318 0.71843 0.98995 0.0
C2498 C 0.49809 0.70168 0.97913 0.0
C2499 C 0.49312 0.71806 0.01044 0.0
C2500 C 0.49797 0.70093 0.0207 0.0
H2501 H 0.48972 0.73196 0.98252 0.0
H2502 H 0.48963 0.73132 0.01832 0.0
S2503 S 0.50932 0.65261 -0.00092 0.0
N2504 N 0.50616 0.66714 0.98012 0.0
N2505 N 0.50605 0.66644 0.01853 0.0
C2506 C 0.50223 0.68396 0.01001 0.0
C2507 C 0.50229 0.68434 0.98924 0.0
C2508 C 0.19828 0.21357 0.50453 0.0
C2509 C 0.20345 0.23334 0.50268 0.0
C2510 C 0.21257 0.19895 0.50464 0.0
C2511 C 0.2325 0.20361 0.50282 0.0
H2512 H 0.1831 0.20942 0.50609 0.0
H2513 H 0.20801 0.1839 0.50634 0.0
S2514 S 0.25334 0.25312 0.49587 0.0
N2515 N 0.22962 0.25681 0.498 0.0
N2516 N 0.25651 0.22932 0.49794 0.0
C2517 C 0.23779 0.22333 0.50065 0.0
C2518 C 0.22326 0.2382 0.50065 0.0
C2519 C 0.78413 0.19749 0.48997 0.0
C2520 C 0.76462 0.20243 0.49405 0.0
C2521 C 0.79882 0.21174 0.48989 0.0
C2522 C 0.79449 0.23138 0.49397 0.0
H2523 H 0.78813 0.18246 0.48711 0.0
H2524 H 0.8137 0.20731 0.48692 0.0
S2525 S 0.74552 0.25219 0.50372 0.0
N2526 N 0.74159 0.22856 0.50094 0.0
N2527 N 0.76926 0.25528 0.50101 0.0
C2528 C 0.77503 0.23658 0.49772 0.0
C2529 C 0.76007 0.22212 0.49771 0.0
C2530 C 0.79535 0.78062 0.50775 0.0
C2531 C 0.79284 0.7631 0.49733 0.0
C2532 C 0.7809 0.79507 0.50768 0.0
C2533 C 0.76345 0.79252 0.49719 0.0
H2534 H 0.80862 0.7832 0.51595 0.0
H2535 H 0.78345 0.8084 0.51581 0.0
S2536 S 0.74925 0.74877 0.46862 0.0
N2537 N 0.7713 0.74365 0.47691 0.0
N2538 N 0.74409 0.77086 0.47679 0.0
C2539 C 0.76072 0.77504 0.48678 0.0
C2540 C 0.77543 0.76033 0.48685 0.0
C2541 C 0.21968 0.76307 0.50302 0.0
C2542 C 0.19996 0.76857 0.50446 0.0
C2543 C 0.23454 0.77711 0.5028 0.0
C2544 C 0.23018 0.79713 0.504 0.0
H2545 H 0.22365 0.74782 0.50163 0.0
H2546 H 0.24951 0.77227 0.50126 0.0
S2547 S 0.18104 0.819 0.50992 0.0
N2548 N 0.17694 0.79528 0.50843 0.0
N2549 N 0.20491 0.82172 0.50797 0.0
C2550 C 0.21057 0.80281 0.50591 0.0
C2551 C 0.19544 0.78852 0.50615 0.0
C2552 C 0.51296 0.21292 0.22496 0.0
C2553 C 0.49523 0.20496 0.23154 0.0
C2554 C 0.51326 0.22774 0.21088 0.0
C2555 C 0.49584 0.23507 0.20287 0.0
H2556 H 0.52669 0.20789 0.23099 0.0
H2557 H 0.52722 0.2337 0.20645 0.0
S2558 S 0.44572 0.21783 0.21387 0.0
N2559 N 0.45992 0.20462 0.2282 0.0
N2560 N 0.46047 0.23242 0.2016 0.0
C2561 C 0.47803 0.22696 0.20904 0.0
C2562 C 0.47773 0.21191 0.22341 0.0
C2563 C 0.79606 0.49061 0.21588 0.0
C2564 C 0.79379 0.50258 0.2324 0.0
C2565 C 0.78197 0.49033 0.20107 0.0
C2566 C 0.76512 0.50199 0.20227 0.0
H2567 H 0.80889 0.48149 0.21435 0.0
H2568 H 0.78432 0.48097 0.18853 0.0
S2569 S 0.75162 0.53476 0.2432 0.0
N2570 N 0.77303 0.52569 0.24955 0.0
N2571 N 0.7465 0.52512 0.2217 0.0
C2572 C 0.76261 0.51391 0.21878 0.0
C2573 C 0.77696 0.51421 0.23384 0.0
C2574 C 0.51448 0.77627 0.20842 0.0
C2575 C 0.49675 0.76969 0.20045 0.0
C2576 C 0.51482 0.79085 0.22274 0.0
C2577 C 0.49743 0.79937 0.22956 0.0
H2578 H 0.52816 0.76973 0.20392 0.0
H2579 H 0.52875 0.7951 0.22889 0.0
S2580 S 0.4474 0.78878 0.21174 0.0
N2581 N 0.46153 0.77373 0.1993 0.0
N2582 N 0.46215 0.80129 0.22614 0.0
C2583 C 0.47965 0.79336 0.22123 0.0
C2584 C 0.47932 0.77848 0.2067 0.0
C2585 C 0.21439 0.51697 0.2311 0.0
C2586 C 0.19882 0.50361 0.23036 0.0
C2587 C 0.22871 0.51725 0.21652 0.0
C2588 C 0.22794 0.50419 0.2007 0.0
H2589 H 0.2158 0.52693 0.24331 0.0
H2590 H 0.24075 0.52742 0.21791 0.0
S2591 S 0.18898 0.4679 0.19089 0.0
N2592 N 0.18264 0.47806 0.21181 0.0
N2593 N 0.20956 0.47861 0.18435 0.0
C2594 C 0.21211 0.49119 0.19947 0.0
C2595 C 0.19755 0.4909 0.21432 0.0
C2596 C 0.49604 0.76312 0.77825 0.0
C2597 C 0.49362 0.76803 0.79801 0.0
C2598 C 0.49614 0.77753 0.76378 0.0
C2599 C 0.49368 0.79737 0.76853 0.0
H2600 H 0.49818 0.74804 0.77398 0.0
H2601 H 0.49843 0.77311 0.74878 0.0
S2602 S 0.48526 0.81757 0.81806 0.0
N2603 N 0.48787 0.79386 0.8216 0.0
N2604 N 0.4877 0.82103 0.79433 0.0
C2605 C 0.49094 0.80243 0.78824 0.0
C2606 C 0.49098 0.78773 0.803 0.0
C2607 C 0.23062 0.48668 0.78002 0.0
C2608 C 0.22928 0.49772 0.79731 0.0
C2609 C 0.21591 0.48742 0.76586 0.0
C2610 C 0.19945 0.49936 0.76839 0.0
H2611 H 0.24329 0.47764 0.77725 0.0
H2612 H 0.21761 0.4789 0.75264 0.0
S2613 S 0.18808 0.5299 0.81153 0.0
N2614 N 0.20944 0.51997 0.81665 0.0
N2615 N 0.18205 0.52171 0.78968 0.0
C2616 C 0.19774 0.51027 0.78564 0.0
C2617 C 0.2126 0.50937 0.80018 0.0
C2618 C 0.5 0.22079 0.76183 0.0
C2619 C 0.49841 0.20083 0.76628 0.0
C2620 C 0.49981 0.2349 0.77659 0.0
C2621 C 0.49789 0.22957 0.79633 0.0
H2622 H 0.50169 0.2255 0.74683 0.0
H2623 H 0.50145 0.2501 0.77252 0.0
S2624 S 0.49164 0.17926 0.81541 0.0
N2625 N 0.49396 0.17641 0.79159 0.0
N2626 N 0.49327 0.20298 0.81942 0.0
C2627 C 0.49596 0.20965 0.80094 0.0
C2628 C 0.49629 0.19527 0.78589 0.0
C2629 C 0.76244 0.48828 0.77636 0.0
C2630 C 0.76411 0.5012 0.79224 0.0
C2631 C 0.77643 0.48799 0.7615 0.0
C2632 C 0.79253 0.50069 0.76192 0.0
H2633 H 0.75013 0.4784 0.77532 0.0
H2634 H 0.77459 0.47783 0.74952 0.0
S2635 S 0.80428 0.53653 0.80071 0.0
N2636 N 0.78358 0.52646 0.80787 0.0
N2637 N 0.80979 0.52606 0.7797 0.0
C2638 C 0.79442 0.51368 0.77767 0.0
C2639 C 0.78023 0.5139 0.79288 0.0
loop_
_geom_bond_atom_site_label_1
_geom_bond_atom_site_label_2
_geom_bond_distance
_geom_bond_site_symmetry_2
_ccdc_geom_bond_type
Li0 N17 1.990 . S
Li0 O60 1.956 . S
Li0 O61 1.970 . S
Li0 O62 1.961 . S
Li1 N25 1.990 . S
Li1 O60 1.970 . S
Li1 O61 1.956 . S
Li1 O63 1.961 . S
Li2 N47 1.990 . S
Li2 O60 1.961 . S
Li2 O62 1.956 . S
Li2 O63 1.970 . S
Li3 N53 1.990 . S
Li3 O61 1.961 . S
Li3 O62 1.970 . S
Li3 O63 1.956 . S
C4 C6 1.348 . S
C4 C7 1.356 . S
C4 O60 1.325 . S
N5 C8 1.314 . S
N5 C9 1.279 . S
C6 C4 1.348 . S
C6 C8 1.353 . S
C6 H64 0.929 . S
C7 C4 1.356 . S
C7 C9 1.358 . S
C7 H65 0.930 . S
C8 N5 1.314 . S
C8 C6 1.353 . S
C8 H66 0.930 . S
C9 N5 1.279 . S
C9 C7 1.358 . S
C9 H67 0.930 . S
C10 C13 1.348 . S
C10 C14 1.356 . S
C10 O61 1.325 . S
C11 N12 1.279 . S
C11 C14 1.358 . S
C11 H68 0.930 . S
N12 C11 1.279 . S
N12 C15 1.314 . S
C13 C10 1.348 . S
C13 C15 1.353 . S
C13 H69 0.929 . S
C14 C10 1.356 . S
C14 C11 1.358 . S
C14 H70 0.930 . S
C15 N12 1.314 . S
C15 C13 1.353 . S
C15 H71 0.930 . S
C16 N17 1.314 . S
C16 C21 1.353 . S
C16 H22 0.930 . S
N17 Li0 1.990 . S
N17 C16 1.314 . S
N17 C19 1.279 . S
C18 C19 1.358 . S
C18 C20 1.356 . S
C18 H72 0.930 . S
C19 N17 1.279 . S
C19 C18 1.358 . S
C19 H23 0.930 . S
C20 C18 1.356 . S
C20 C21 1.348 . S
C21 C16 1.353 . S
C21 C20 1.348 . S
C21 H73 0.929 . S
H22 C16 0.930 . S
H23 C19 0.930 . S
C24 N25 1.314 . S
C24 C26 1.353 . S
C24 H30 0.930 . S
N25 Li1 1.990 . S
N25 C24 1.314 . S
N25 C28 1.279 . S
C26 C24 1.353 . S
C26 C29 1.348 . S
C26 H74 0.929 . S
C27 C28 1.358 . S
C27 C29 1.356 . S
C27 H75 0.930 . S
C28 N25 1.279 . S
C28 C27 1.358 . S
C28 H31 0.930 . S
C29 C26 1.348 . S
C29 C27 1.356 . S
H30 C24 0.930 . S
H31 C28 0.930 . S
C32 C34 1.348 . S
C32 C35 1.356 . S
C32 O62 1.325 . S
N33 C36 1.314 . S
N33 C37 1.279 . S
C34 C32 1.348 . S
C34 C36 1.353 . S
C34 H76 0.929 . S
C35 C32 1.356 . S
C35 C37 1.358 . S
C35 H77 0.930 . S
C36 N33 1.314 . S
C36 C34 1.353 . S
C36 H78 0.930 . S
C37 N33 1.279 . S
C37 C35 1.358 . S
C37 H79 0.930 . S
C38 C39 1.348 . S
C38 C40 1.356 . S
C38 O63 1.325 . S
C39 C38 1.348 . S
C39 C41 1.353 . S
C39 H80 0.929 . S
C40 C38 1.356 . S
C40 C42 1.358 . S
C40 H81 0.930 . S
C41 C39 1.353 . S
C41 N43 1.314 . S
C41 H82 0.930 . S
C42 C40 1.358 . S
C42 N43 1.279 . S
C42 H83 0.930 . S
N43 C41 1.314 . S
N43 C42 1.279 . S
C44 C46 1.353 . S
C44 N47 1.314 . S
C44 H50 0.930 . S
C45 N47 1.279 . S
C45 C48 1.358 . S
C45 H51 0.930 . S
C46 C44 1.353 . S
C46 C49 1.348 . S
C46 H84 0.929 . S
N47 Li2 1.990 . S
N47 C44 1.314 . S
N47 C45 1.279 . S
C48 C45 1.358 . S
C48 C49 1.356 . S
C48 H85 0.930 . S
C49 C46 1.348 . S
C49 C48 1.356 . S
H50 C44 0.930 . S
H51 C45 0.930 . S
C52 N53 1.314 . S
C52 C54 1.353 . S
C52 H58 0.930 . S
N53 Li3 1.990 . S
N53 C52 1.314 . S
N53 C56 1.279 . S
C54 C52 1.353 . S
C54 C57 1.348 . S
C54 H86 0.929 . S
C55 C56 1.358 . S
C55 C57 1.356 . S
C55 H87 0.930 . S
C56 N53 1.279 . S
C56 C55 1.358 . S
C56 H59 0.930 . S
C57 C54 1.348 . S
C57 C55 1.356 . S
H58 C52 0.930 . S
H59 C56 0.930 . S
O60 Li0 1.956 . S
O60 Li1 1.970 . S
O60 Li2 1.961 . S
O60 C4 1.325 . S
O61 Li0 1.970 . S
O61 Li1 1.956 . S
O61 Li3 1.961 . S
O61 C10 1.325 . S
O62 Li0 1.961 . S
O62 Li2 1.956 . S
O62 Li3 1.970 . S
O62 C32 1.325 . S
O63 Li1 1.961 . S
O63 Li2 1.970 . S
O63 Li3 1.956 . S
O63 C38 1.325 . S
H64 C6 0.929 . S
H65 C7 0.930 . S
H66 C8 0.930 . S
H67 C9 0.930 . S
H68 C11 0.930 . S
H69 C13 0.929 . S
H70 C14 0.930 . S
H71 C15 0.930 . S
H72 C18 0.930 . S
H73 C21 0.929 . S
H74 C26 0.929 . S
H75 C27 0.930 . S
H76 C34 0.929 . S
H77 C35 0.930 . S
H78 C36 0.930 . S
H79 C37 0.930 . S
H80 C39 0.929 . S
H81 C40 0.930 . S
H82 C41 0.930 . S
H83 C42 0.930 . S
H84 C46 0.929 . S
H85 C48 0.930 . S
H86 C54 0.929 . S
H87 C55 0.930 . S
Li88 N105 1.990 . S
Li88 O148 1.956 . S
Li88 O149 1.970 . S
Li88 O150 1.961 . S
Li89 N113 1.990 . S
Li89 O148 1.970 . S
Li89 O149 1.956 . S
Li89 O151 1.961 . S
Li90 N135 1.990 . S
Li90 O148 1.961 . S
Li90 O150 1.956 . S
Li90 O151 1.970 . S
Li91 N141 1.990 . S
Li91 O149 1.961 . S
Li91 O150 1.970 . S
Li91 O151 1.956 . S
C92 C94 1.348 . S
C92 C95 1.356 . S
C92 O148 1.325 . S
N93 C96 1.314 . S
N93 C97 1.279 . S
C94 C92 1.348 . S
C94 C96 1.353 . S
C94 H152 0.929 . S
C95 C92 1.356 . S
C95 C97 1.358 . S
C95 H153 0.930 . S
C96 N93 1.314 . S
C96 C94 1.353 . S
C96 H154 0.930 . S
C97 N93 1.279 . S
C97 C95 1.358 . S
C97 H155 0.930 . S
C98 C101 1.348 . S
C98 C102 1.356 . S
C98 O149 1.325 . S
C99 N100 1.279 . S
C99 C102 1.358 . S
C99 H156 0.930 . S
N100 C99 1.279 . S
N100 C103 1.314 . S
C101 C98 1.348 . S
C101 C103 1.353 . S
C101 H157 0.929 . S
C102 C98 1.356 . S
C102 C99 1.358 . S
C102 H158 0.930 . S
C103 N100 1.314 . S
C103 C101 1.353 . S
C103 H159 0.930 . S
C104 N105 1.314 . S
C104 C109 1.353 . S
C104 H110 0.930 . S
N105 Li88 1.990 . S
N105 C104 1.314 . S
N105 C107 1.279 . S
C106 C107 1.358 . S
C106 C108 1.356 . S
C106 H160 0.930 . S
C107 N105 1.279 . S
C107 C106 1.358 . S
C107 H111 0.930 . S
C108 C106 1.356 . S
C108 C109 1.348 . S
C109 C104 1.353 . S
C109 C108 1.348 . S
C109 H161 0.929 . S
H110 C104 0.930 . S
H111 C107 0.930 . S
C112 N113 1.314 . S
C112 C114 1.353 . S
C112 H118 0.930 . S
N113 Li89 1.990 . S
N113 C112 1.314 . S
N113 C116 1.279 . S
C114 C112 1.353 . S
C114 C117 1.348 . S
C114 H162 0.929 . S
C115 C116 1.358 . S
C115 C117 1.356 . S
C115 H163 0.930 . S
C116 N113 1.279 . S
C116 C115 1.358 . S
C116 H119 0.930 . S
C117 C114 1.348 . S
C117 C115 1.356 . S
H118 C112 0.930 . S
H119 C116 0.930 . S
C120 C122 1.348 . S
C120 C123 1.356 . S
C120 O150 1.325 . S
N121 C124 1.314 . S
N121 C125 1.279 . S
C122 C120 1.348 . S
C122 C124 1.353 . S
C122 H164 0.929 . S
C123 C120 1.356 . S
C123 C125 1.358 . S
C123 H165 0.930 . S
C124 N121 1.314 . S
C124 C122 1.353 . S
C124 H166 0.930 . S
C125 N121 1.279 . S
C125 C123 1.358 . S
C125 H167 0.930 . S
C126 C127 1.348 . S
C126 C128 1.356 . S
C126 O151 1.325 . S
C127 C126 1.348 . S
C127 C129 1.353 . S
C127 H168 0.929 . S
C128 C126 1.356 . S
C128 C130 1.358 . S
C128 H169 0.930 . S
C129 C127 1.353 . S
C129 N131 1.314 . S
C129 H170 0.930 . S
C130 C128 1.358 . S
C130 N131 1.279 . S
C130 H171 0.930 . S
N131 C129 1.314 . S
N131 C130 1.279 . S
C132 C134 1.353 . S
C132 N135 1.314 . S
C132 H138 0.930 . S
C133 N135 1.279 . S
C133 C136 1.358 . S
C133 H139 0.930 . S
C134 C132 1.353 . S
C134 C137 1.348 . S
C134 H172 0.929 . S
N135 Li90 1.990 . S
N135 C132 1.314 . S
N135 C133 1.279 . S
C136 C133 1.358 . S
C136 C137 1.356 . S
C136 H173 0.930 . S
C137 C134 1.348 . S
C137 C136 1.356 . S
H138 C132 0.930 . S
H139 C133 0.930 . S
C140 N141 1.314 . S
C140 C142 1.353 . S
C140 H146 0.930 . S
N141 Li91 1.990 . S
N141 C140 1.314 . S
N141 C144 1.279 . S
C142 C140 1.353 . S
C142 C145 1.348 . S
C142 H174 0.929 . S
C143 C144 1.358 . S
C143 C145 1.356 . S
C143 H175 0.930 . S
C144 N141 1.279 . S
C144 C143 1.358 . S
C144 H147 0.930 . S
C145 C142 1.348 . S
C145 C143 1.356 . S
H146 C140 0.930 . S
H147 C144 0.930 . S
O148 Li88 1.956 . S
O148 Li89 1.970 . S
O148 Li90 1.961 . S
O148 C92 1.325 . S
O149 Li88 1.970 . S
O149 Li89 1.956 . S
O149 Li91 1.961 . S
O149 C98 1.325 . S
O150 Li88 1.961 . S
O150 Li90 1.956 . S
O150 Li91 1.970 . S
O150 C120 1.325 . S
O151 Li89 1.961 . S
O151 Li90 1.970 . S
O151 Li91 1.956 . S
O151 C126 1.325 . S
H152 C94 0.929 . S
H153 C95 0.930 . S
H154 C96 0.930 . S
H155 C97 0.930 . S
H156 C99 0.930 . S
H157 C101 0.929 . S
H158 C102 0.930 . S
H159 C103 0.930 . S
H160 C106 0.930 . S
H161 C109 0.929 . S
H162 C114 0.929 . S
H163 C115 0.930 . S
H164 C122 0.929 . S
H165 C123 0.930 . S
H166 C124 0.930 . S
H167 C125 0.930 . S
H168 C127 0.929 . S
H169 C128 0.930 . S
H170 C129 0.930 . S
H171 C130 0.930 . S
H172 C134 0.929 . S
H173 C136 0.930 . S
H174 C142 0.929 . S
H175 C143 0.930 . S
Li176 N193 1.990 . S
Li176 O236 1.956 . S
Li176 O237 1.970 . S
Li176 O238 1.961 . S
Li177 N201 1.990 . S
Li177 O236 1.970 . S
Li177 O237 1.956 . S
Li177 O239 1.961 . S
Li178 N223 1.990 . S
Li178 O236 1.961 . S
Li178 O238 1.956 . S
Li178 O239 1.970 . S
Li179 N229 1.990 . S
Li179 O237 1.961 . S
Li179 O238 1.970 . S
Li179 O239 1.956 . S
C180 C182 1.348 . S
C180 C183 1.356 . S
C180 O236 1.325 . S
N181 C184 1.314 . S
N181 C185 1.279 . S
C182 C180 1.348 . S
C182 C184 1.353 . S
C182 H240 0.929 . S
C183 C180 1.356 . S
C183 C185 1.358 . S
C183 H241 0.930 . S
C184 N181 1.314 . S
C184 C182 1.353 . S
C184 H242 0.930 . S
C185 N181 1.279 . S
C185 C183 1.358 . S
C185 H243 0.930 . S
C186 C189 1.348 . S
C186 C190 1.356 . S
C186 O237 1.325 . S
C187 N188 1.279 . S
C187 C190 1.358 . S
C187 H244 0.930 . S
N188 C187 1.279 . S
N188 C191 1.314 . S
C189 C186 1.348 . S
C189 C191 1.353 . S
C189 H245 0.929 . S
C190 C186 1.356 . S
C190 C187 1.358 . S
C190 H246 0.930 . S
C191 N188 1.314 . S
C191 C189 1.353 . S
C191 H247 0.930 . S
C192 N193 1.314 . S
C192 C197 1.353 . S
C192 H198 0.930 . S
N193 Li176 1.990 . S
N193 C192 1.314 . S
N193 C195 1.279 . S
C194 C195 1.358 . S
C194 C196 1.356 . S
C194 H248 0.930 . S
C195 N193 1.279 . S
C195 C194 1.358 . S
C195 H199 0.930 . S
C196 C194 1.356 . S
C196 C197 1.348 . S
C197 C192 1.353 . S
C197 C196 1.348 . S
C197 H249 0.929 . S
H198 C192 0.930 . S
H199 C195 0.930 . S
C200 N201 1.314 . S
C200 C202 1.353 . S
C200 H206 0.930 . S
N201 Li177 1.990 . S
N201 C200 1.314 . S
N201 C204 1.279 . S
C202 C200 1.353 . S
C202 C205 1.348 . S
C202 H250 0.929 . S
C203 C204 1.358 . S
C203 C205 1.356 . S
C203 H251 0.930 . S
C204 N201 1.279 . S
C204 C203 1.358 . S
C204 H207 0.930 . S
C205 C202 1.348 . S
C205 C203 1.356 . S
H206 C200 0.930 . S
H207 C204 0.930 . S
C208 C210 1.348 . S
C208 C211 1.356 . S
C208 O238 1.325 . S
N209 C212 1.314 . S
N209 C213 1.279 . S
C210 C208 1.348 . S
C210 C212 1.353 . S
C210 H252 0.929 . S
C211 C208 1.356 . S
C211 C213 1.358 . S
C211 H253 0.930 . S
C212 N209 1.314 . S
C212 C210 1.353 . S
C212 H254 0.930 . S
C213 N209 1.279 . S
C213 C211 1.358 . S
C213 H255 0.930 . S
C214 C215 1.348 . S
C214 C216 1.356 . S
C214 O239 1.325 . S
C215 C214 1.348 . S
C215 C217 1.353 . S
C215 H256 0.929 . S
C216 C214 1.356 . S
C216 C218 1.358 . S
C216 H257 0.930 . S
C217 C215 1.353 . S
C217 N219 1.314 . S
C217 H258 0.930 . S
C218 C216 1.358 . S
C218 N219 1.279 . S
C218 H259 0.930 . S
N219 C217 1.314 . S
N219 C218 1.279 . S
C220 C222 1.353 . S
C220 N223 1.314 . S
C220 H226 0.930 . S
C221 N223 1.279 . S
C221 C224 1.358 . S
C221 H227 0.930 . S
C222 C220 1.353 . S
C222 C225 1.348 . S
C222 H260 0.929 . S
N223 Li178 1.990 . S
N223 C220 1.314 . S
N223 C221 1.279 . S
C224 C221 1.358 . S
C224 C225 1.356 . S
C224 H261 0.930 . S
C225 C222 1.348 . S
C225 C224 1.356 . S
H226 C220 0.930 . S
H227 C221 0.930 . S
C228 N229 1.314 . S
C228 C230 1.353 . S
C228 H234 0.930 . S
N229 Li179 1.990 . S
N229 C228 1.314 . S
N229 C232 1.279 . S
C230 C228 1.353 . S
C230 C233 1.348 . S
C230 H262 0.929 . S
C231 C232 1.358 . S
C231 C233 1.356 . S
C231 H263 0.930 . S
C232 N229 1.279 . S
C232 C231 1.358 . S
C232 H235 0.930 . S
C233 C230 1.348 . S
C233 C231 1.356 . S
H234 C228 0.930 . S
H235 C232 0.930 . S
O236 Li176 1.956 . S
O236 Li177 1.970 . S
O236 Li178 1.961 . S
O236 C180 1.325 . S
O237 Li176 1.970 . S
O237 Li177 1.956 . S
O237 Li179 1.961 . S
O237 C186 1.325 . S
O238 Li176 1.961 . S
O238 Li178 1.956 . S
O238 Li179 1.970 . S
O238 C208 1.325 . S
O239 Li177 1.961 . S
O239 Li178 1.970 . S
O239 Li179 1.956 . S
O239 C214 1.325 . S
H240 C182 0.929 . S
H241 C183 0.930 . S
H242 C184 0.930 . S
H243 C185 0.930 . S
H244 C187 0.930 . S
H245 C189 0.929 . S
H246 C190 0.930 . S
H247 C191 0.930 . S
H248 C194 0.930 . S
H249 C197 0.929 . S
H250 C202 0.929 . S
H251 C203 0.930 . S
H252 C210 0.929 . S
H253 C211 0.930 . S
H254 C212 0.930 . S
H255 C213 0.930 . S
H256 C215 0.929 . S
H257 C216 0.930 . S
H258 C217 0.930 . S
H259 C218 0.930 . S
H260 C222 0.929 . S
H261 C224 0.930 . S
H262 C230 0.929 . S
H263 C231 0.930 . S
Li264 N281 1.990 . S
Li264 O324 1.956 . S
Li264 O325 1.970 . S
Li264 O326 1.961 . S
Li265 N289 1.990 . S
Li265 O324 1.970 . S
Li265 O325 1.956 . S
Li265 O327 1.961 . S
Li266 N311 1.990 . S
Li266 O324 1.961 . S
Li266 O326 1.956 . S
Li266 O327 1.970 . S
Li267 N317 1.990 . S
Li267 O325 1.961 . S
Li267 O326 1.970 . S
Li267 O327 1.956 . S
C268 C270 1.348 . S
C268 C271 1.356 . S
C268 O324 1.325 . S
N269 C272 1.314 . S
N269 C273 1.279 . S
C270 C268 1.348 . S
C270 C272 1.353 . S
C270 H328 0.929 . S
C271 C268 1.356 . S
C271 C273 1.358 . S
C271 H329 0.930 . S
C272 N269 1.314 . S
C272 C270 1.353 . S
C272 H330 0.930 . S
C273 N269 1.279 . S
C273 C271 1.358 . S
C273 H331 0.930 . S
C274 C277 1.348 . S
C274 C278 1.356 . S
C274 O325 1.325 . S
C275 N276 1.279 . S
C275 C278 1.358 . S
C275 H332 0.930 . S
N276 C275 1.279 . S
N276 C279 1.314 . S
C277 C274 1.348 . S
C277 C279 1.353 . S
C277 H333 0.929 . S
C278 C274 1.356 . S
C278 C275 1.358 . S
C278 H334 0.930 . S
C279 N276 1.314 . S
C279 C277 1.353 . S
C279 H335 0.930 . S
C280 N281 1.314 . S
C280 C285 1.353 . S
C280 H286 0.930 . S
N281 Li264 1.990 . S
N281 C280 1.314 . S
N281 C283 1.279 . S
C282 C283 1.358 . S
C282 C284 1.356 . S
C282 H336 0.930 . S
C283 N281 1.279 . S
C283 C282 1.358 . S
C283 H287 0.930 . S
C284 C282 1.356 . S
C284 C285 1.348 . S
C285 C280 1.353 . S
C285 C284 1.348 . S
C285 H337 0.929 . S
H286 C280 0.930 . S
H287 C283 0.930 . S
C288 N289 1.314 . S
C288 C290 1.353 . S
C288 H294 0.930 . S
N289 Li265 1.990 . S
N289 C288 1.314 . S
N289 C292 1.279 . S
C290 C288 1.353 . S
C290 C293 1.348 . S
C290 H338 0.929 . S
C291 C292 1.358 . S
C291 C293 1.356 . S
C291 H339 0.930 . S
C292 N289 1.279 . S
C292 C291 1.358 . S
C292 H295 0.930 . S
C293 C290 1.348 . S
C293 C291 1.356 . S
H294 C288 0.930 . S
H295 C292 0.930 . S
C296 C298 1.348 . S
C296 C299 1.356 . S
C296 O326 1.325 . S
N297 C300 1.314 . S
N297 C301 1.279 . S
C298 C296 1.348 . S
C298 C300 1.353 . S
C298 H340 0.929 . S
C299 C296 1.356 . S
C299 C301 1.358 . S
C299 H341 0.930 . S
C300 N297 1.314 . S
C300 C298 1.353 . S
C300 H342 0.930 . S
C301 N297 1.279 . S
C301 C299 1.358 . S
C301 H343 0.930 . S
C302 C303 1.348 . S
C302 C304 1.356 . S
C302 O327 1.325 . S
C303 C302 1.348 . S
C303 C305 1.353 . S
C303 H344 0.929 . S
C304 C302 1.356 . S
C304 C306 1.358 . S
C304 H345 0.930 . S
C305 C303 1.353 . S
C305 N307 1.314 . S
C305 H346 0.930 . S
C306 C304 1.358 . S
C306 N307 1.279 . S
C306 H347 0.930 . S
N307 C305 1.314 . S
N307 C306 1.279 . S
C308 C310 1.353 . S
C308 N311 1.314 . S
C308 H314 0.930 . S
C309 N311 1.279 . S
C309 C312 1.358 . S
C309 H315 0.930 . S
C310 C308 1.353 . S
C310 C313 1.348 . S
C310 H348 0.929 . S
N311 Li266 1.990 . S
N311 C308 1.314 . S
N311 C309 1.279 . S
C312 C309 1.358 . S
C312 C313 1.356 . S
C312 H349 0.930 . S
C313 C310 1.348 . S
C313 C312 1.356 . S
H314 C308 0.930 . S
H315 C309 0.930 . S
C316 N317 1.314 . S
C316 C318 1.353 . S
C316 H322 0.930 . S
N317 Li267 1.990 . S
N317 C316 1.314 . S
N317 C320 1.279 . S
C318 C316 1.353 . S
C318 C321 1.348 . S
C318 H350 0.929 . S
C319 C320 1.358 . S
C319 C321 1.356 . S
C319 H351 0.930 . S
C320 N317 1.279 . S
C320 C319 1.358 . S
C320 H323 0.930 . S
C321 C318 1.348 . S
C321 C319 1.356 . S
H322 C316 0.930 . S
H323 C320 0.930 . S
O324 Li264 1.956 . S
O324 Li265 1.970 . S
O324 Li266 1.961 . S
O324 C268 1.325 . S
O325 Li264 1.970 . S
O325 Li265 1.956 . S
O325 Li267 1.961 . S
O325 C274 1.325 . S
O326 Li264 1.961 . S
O326 Li266 1.956 . S
O326 Li267 1.970 . S
O326 C296 1.325 . S
O327 Li265 1.961 . S
O327 Li266 1.970 . S
O327 Li267 1.956 . S
O327 C302 1.325 . S
H328 C270 0.929 . S
H329 C271 0.930 . S
H330 C272 0.930 . S
H331 C273 0.930 . S
H332 C275 0.930 . S
H333 C277 0.929 . S
H334 C278 0.930 . S
H335 C279 0.930 . S
H336 C282 0.930 . S
H337 C285 0.929 . S
H338 C290 0.929 . S
H339 C291 0.930 . S
H340 C298 0.929 . S
H341 C299 0.930 . S
H342 C300 0.930 . S
H343 C301 0.930 . S
H344 C303 0.929 . S
H345 C304 0.930 . S
H346 C305 0.930 . S
H347 C306 0.930 . S
H348 C310 0.929 . S
H349 C312 0.930 . S
H350 C318 0.929 . S
H351 C319 0.930 . S
Li352 N369 1.990 . S
Li352 O412 1.956 . S
Li352 O413 1.970 . S
Li352 O414 1.961 . S
Li353 N377 1.990 . S
Li353 O412 1.970 . S
Li353 O413 1.956 . S
Li353 O415 1.961 . S
Li354 N399 1.990 . S
Li354 O412 1.961 . S
Li354 O414 1.956 . S
Li354 O415 1.970 . S
Li355 N405 1.990 . S
Li355 O413 1.961 . S
Li355 O414 1.970 . S
Li355 O415 1.956 . S
C356 C358 1.348 . S
C356 C359 1.356 . S
C356 O412 1.325 . S
N357 C360 1.314 . S
N357 C361 1.279 . S
C358 C356 1.348 . S
C358 C360 1.353 . S
C358 H416 0.929 . S
C359 C356 1.356 . S
C359 C361 1.358 . S
C359 H417 0.930 . S
C360 N357 1.314 . S
C360 C358 1.353 . S
C360 H418 0.930 . S
C361 N357 1.279 . S
C361 C359 1.358 . S
C361 H419 0.930 . S
C362 C365 1.348 . S
C362 C366 1.356 . S
C362 O413 1.325 . S
C363 N364 1.279 . S
C363 C366 1.358 . S
C363 H420 0.930 . S
N364 C363 1.279 . S
N364 C367 1.314 . S
C365 C362 1.348 . S
C365 C367 1.353 . S
C365 H421 0.929 . S
C366 C362 1.356 . S
C366 C363 1.358 . S
C366 H422 0.930 . S
C367 N364 1.314 . S
C367 C365 1.353 . S
C367 H423 0.930 . S
C368 N369 1.314 . S
C368 C373 1.353 . S
C368 H374 0.930 . S
N369 Li352 1.990 . S
N369 C368 1.314 . S
N369 C371 1.279 . S
C370 C371 1.358 . S
C370 C372 1.356 . S
C370 H424 0.930 . S
C371 N369 1.279 . S
C371 C370 1.358 . S
C371 H375 0.930 . S
C372 C370 1.356 . S
C372 C373 1.348 . S
C373 C368 1.353 . S
C373 C372 1.348 . S
C373 H425 0.929 . S
H374 C368 0.930 . S
H375 C371 0.930 . S
C376 N377 1.314 . S
C376 C378 1.353 . S
C376 H382 0.930 . S
N377 Li353 1.990 . S
N377 C376 1.314 . S
N377 C380 1.279 . S
C378 C376 1.353 . S
C378 C381 1.348 . S
C378 H426 0.929 . S
C379 C380 1.358 . S
C379 C381 1.356 . S
C379 H427 0.930 . S
C380 N377 1.279 . S
C380 C379 1.358 . S
C380 H383 0.930 . S
C381 C378 1.348 . S
C381 C379 1.356 . S
H382 C376 0.930 . S
H383 C380 0.930 . S
C384 C386 1.348 . S
C384 C387 1.356 . S
C384 O414 1.325 . S
N385 C388 1.314 . S
N385 C389 1.279 . S
C386 C384 1.348 . S
C386 C388 1.353 . S
C386 H428 0.929 . S
C387 C384 1.356 . S
C387 C389 1.358 . S
C387 H429 0.930 . S
C388 N385 1.314 . S
C388 C386 1.353 . S
C388 H430 0.930 . S
C389 N385 1.279 . S
C389 C387 1.358 . S
C389 H431 0.930 . S
C390 C391 1.348 . S
C390 C392 1.356 . S
C390 O415 1.325 . S
C391 C390 1.348 . S
C391 C393 1.353 . S
C391 H432 0.929 . S
C392 C390 1.356 . S
C392 C394 1.358 . S
C392 H433 0.930 . S
C393 C391 1.353 . S
C393 N395 1.314 . S
C393 H434 0.930 . S
C394 C392 1.358 . S
C394 N395 1.279 . S
C394 H435 0.930 . S
N395 C393 1.314 . S
N395 C394 1.279 . S
C396 C398 1.353 . S
C396 N399 1.314 . S
C396 H402 0.930 . S
C397 N399 1.279 . S
C397 C400 1.358 . S
C397 H403 0.930 . S
C398 C396 1.353 . S
C398 C401 1.348 . S
C398 H436 0.929 . S
N399 Li354 1.990 . S
N399 C396 1.314 . S
N399 C397 1.279 . S
C400 C397 1.358 . S
C400 C401 1.356 . S
C400 H437 0.930 . S
C401 C398 1.348 . S
C401 C400 1.356 . S
H402 C396 0.930 . S
H403 C397 0.930 . S
C404 N405 1.314 . S
C404 C406 1.353 . S
C404 H410 0.930 . S
N405 Li355 1.990 . S
N405 C404 1.314 . S
N405 C408 1.279 . S
C406 C404 1.353 . S
C406 C409 1.348 . S
C406 H438 0.929 . S
C407 C408 1.358 . S
C407 C409 1.356 . S
C407 H439 0.930 . S
C408 N405 1.279 . S
C408 C407 1.358 . S
C408 H411 0.930 . S
C409 C406 1.348 . S
C409 C407 1.356 . S
H410 C404 0.930 . S
H411 C408 0.930 . S
O412 Li352 1.956 . S
O412 Li353 1.970 . S
O412 Li354 1.961 . S
O412 C356 1.325 . S
O413 Li352 1.970 . S
O413 Li353 1.956 . S
O413 Li355 1.961 . S
O413 C362 1.325 . S
O414 Li352 1.961 . S
O414 Li354 1.956 . S
O414 Li355 1.970 . S
O414 C384 1.325 . S
O415 Li353 1.961 . S
O415 Li354 1.970 . S
O415 Li355 1.956 . S
O415 C390 1.325 . S
H416 C358 0.929 . S
H417 C359 0.930 . S
H418 C360 0.930 . S
H419 C361 0.930 . S
H420 C363 0.930 . S
H421 C365 0.929 . S
H422 C366 0.930 . S
H423 C367 0.930 . S
H424 C370 0.930 . S
H425 C373 0.929 . S
H426 C378 0.929 . S
H427 C379 0.930 . S
H428 C386 0.929 . S
H429 C387 0.930 . S
H430 C388 0.930 . S
H431 C389 0.930 . S
H432 C391 0.929 . S
H433 C392 0.930 . S
H434 C393 0.930 . S
H435 C394 0.930 . S
H436 C398 0.929 . S
H437 C400 0.930 . S
H438 C406 0.929 . S
H439 C407 0.930 . S
Li440 N457 1.990 . S
Li440 O500 1.956 . S
Li440 O501 1.970 . S
Li440 O502 1.961 . S
Li441 N465 1.990 . S
Li441 O500 1.970 . S
Li441 O501 1.956 . S
Li441 O503 1.961 . S
Li442 N487 1.990 . S
Li442 O500 1.961 . S
Li442 O502 1.956 . S
Li442 O503 1.970 . S
Li443 N493 1.990 . S
Li443 O501 1.961 . S
Li443 O502 1.970 . S
Li443 O503 1.956 . S
C444 C446 1.348 . S
C444 C447 1.356 . S
C444 O500 1.325 . S
N445 C448 1.314 . S
N445 C449 1.279 . S
C446 C444 1.348 . S
C446 C448 1.353 . S
C446 H504 0.929 . S
C447 C444 1.356 . S
C447 C449 1.358 . S
C447 H505 0.930 . S
C448 N445 1.314 . S
C448 C446 1.353 . S
C448 H506 0.930 . S
C449 N445 1.279 . S
C449 C447 1.358 . S
C449 H507 0.930 . S
C450 C453 1.348 . S
C450 C454 1.356 . S
C450 O501 1.325 . S
C451 N452 1.279 . S
C451 C454 1.358 . S
C451 H508 0.930 . S
N452 C451 1.279 . S
N452 C455 1.314 . S
C453 C450 1.348 . S
C453 C455 1.353 . S
C453 H509 0.929 . S
C454 C450 1.356 . S
C454 C451 1.358 . S
C454 H510 0.930 . S
C455 N452 1.314 . S
C455 C453 1.353 . S
C455 H511 0.930 . S
C456 N457 1.314 . S
C456 C461 1.353 . S
C456 H462 0.930 . S
N457 Li440 1.990 . S
N457 C456 1.314 . S
N457 C459 1.279 . S
C458 C459 1.358 . S
C458 C460 1.356 . S
C458 H512 0.930 . S
C459 N457 1.279 . S
C459 C458 1.358 . S
C459 H463 0.930 . S
C460 C458 1.356 . S
C460 C461 1.348 . S
C461 C456 1.353 . S
C461 C460 1.348 . S
C461 H513 0.929 . S
H462 C456 0.930 . S
H463 C459 0.930 . S
C464 N465 1.314 . S
C464 C466 1.353 . S
C464 H470 0.930 . S
N465 Li441 1.990 . S
N465 C464 1.314 . S
N465 C468 1.279 . S
C466 C464 1.353 . S
C466 C469 1.348 . S
C466 H514 0.929 . S
C467 C468 1.358 . S
C467 C469 1.356 . S
C467 H515 0.930 . S
C468 N465 1.279 . S
C468 C467 1.358 . S
C468 H471 0.930 . S
C469 C466 1.348 . S
C469 C467 1.356 . S
H470 C464 0.930 . S
H471 C468 0.930 . S
C472 C474 1.348 . S
C472 C475 1.356 . S
C472 O502 1.325 . S
N473 C476 1.314 . S
N473 C477 1.279 . S
C474 C472 1.348 . S
C474 C476 1.353 . S
C474 H516 0.929 . S
C475 C472 1.356 . S
C475 C477 1.358 . S
C475 H517 0.930 . S
C476 N473 1.314 . S
C476 C474 1.353 . S
C476 H518 0.930 . S
C477 N473 1.279 . S
C477 C475 1.358 . S
C477 H519 0.930 . S
C478 C479 1.348 . S
C478 C480 1.356 . S
C478 O503 1.325 . S
C479 C478 1.348 . S
C479 C481 1.353 . S
C479 H520 0.929 . S
C480 C478 1.356 . S
C480 C482 1.358 . S
C480 H521 0.930 . S
C481 C479 1.353 . S
C481 N483 1.314 . S
C481 H522 0.930 . S
C482 C480 1.358 . S
C482 N483 1.279 . S
C482 H523 0.930 . S
N483 C481 1.314 . S
N483 C482 1.279 . S
C484 C486 1.353 . S
C484 N487 1.314 . S
C484 H490 0.930 . S
C485 N487 1.279 . S
C485 C488 1.358 . S
C485 H491 0.930 . S
C486 C484 1.353 . S
C486 C489 1.348 . S
C486 H524 0.929 . S
N487 Li442 1.990 . S
N487 C484 1.314 . S
N487 C485 1.279 . S
C488 C485 1.358 . S
C488 C489 1.356 . S
C488 H525 0.930 . S
C489 C486 1.348 . S
C489 C488 1.356 . S
H490 C484 0.930 . S
H491 C485 0.930 . S
C492 N493 1.314 . S
C492 C494 1.353 . S
C492 H498 0.930 . S
N493 Li443 1.990 . S
N493 C492 1.314 . S
N493 C496 1.279 . S
C494 C492 1.353 . S
C494 C497 1.348 . S
C494 H526 0.929 . S
C495 C496 1.358 . S
C495 C497 1.356 . S
C495 H527 0.930 . S
C496 N493 1.279 . S
C496 C495 1.358 . S
C496 H499 0.930 . S
C497 C494 1.348 . S
C497 C495 1.356 . S
H498 C492 0.930 . S
H499 C496 0.930 . S
O500 Li440 1.956 . S
O500 Li441 1.970 . S
O500 Li442 1.961 . S
O500 C444 1.325 . S
O501 Li440 1.970 . S
O501 Li441 1.956 . S
O501 Li443 1.961 . S
O501 C450 1.325 . S
O502 Li440 1.961 . S
O502 Li442 1.956 . S
O502 Li443 1.970 . S
O502 C472 1.325 . S
O503 Li441 1.961 . S
O503 Li442 1.970 . S
O503 Li443 1.956 . S
O503 C478 1.325 . S
H504 C446 0.929 . S
H505 C447 0.930 . S
H506 C448 0.930 . S
H507 C449 0.930 . S
H508 C451 0.930 . S
H509 C453 0.929 . S
H510 C454 0.930 . S
H511 C455 0.930 . S
H512 C458 0.930 . S
H513 C461 0.929 . S
H514 C466 0.929 . S
H515 C467 0.930 . S
H516 C474 0.929 . S
H517 C475 0.930 . S
H518 C476 0.930 . S
H519 C477 0.930 . S
H520 C479 0.929 . S
H521 C480 0.930 . S
H522 C481 0.930 . S
H523 C482 0.930 . S
H524 C486 0.929 . S
H525 C488 0.930 . S
H526 C494 0.929 . S
H527 C495 0.930 . S
Li528 N545 1.990 . S
Li528 O588 1.956 . S
Li528 O589 1.970 . S
Li528 O590 1.961 . S
Li529 N553 1.990 . S
Li529 O588 1.970 . S
Li529 O589 1.956 . S
Li529 O591 1.961 . S
Li530 N575 1.990 . S
Li530 O588 1.961 . S
Li530 O590 1.956 . S
Li530 O591 1.970 . S
Li531 N581 1.990 . S
Li531 O589 1.961 . S
Li531 O590 1.970 . S
Li531 O591 1.956 . S
C532 C534 1.348 . S
C532 C535 1.356 . S
C532 O588 1.325 . S
N533 C536 1.314 . S
N533 C537 1.279 . S
C534 C532 1.348 . S
C534 C536 1.353 . S
C534 H592 0.929 . S
C535 C532 1.356 . S
C535 C537 1.358 . S
C535 H593 0.930 . S
C536 N533 1.314 . S
C536 C534 1.353 . S
C536 H594 0.930 . S
C537 N533 1.279 . S
C537 C535 1.358 . S
C537 H595 0.930 . S
C538 C541 1.348 . S
C538 C542 1.356 . S
C538 O589 1.325 . S
C539 N540 1.279 . S
C539 C542 1.358 . S
C539 H596 0.930 . S
N540 C539 1.279 . S
N540 C543 1.314 . S
C541 C538 1.348 . S
C541 C543 1.353 . S
C541 H597 0.929 . S
C542 C538 1.356 . S
C542 C539 1.358 . S
C542 H598 0.930 . S
C543 N540 1.314 . S
C543 C541 1.353 . S
C543 H599 0.930 . S
C544 N545 1.314 . S
C544 C549 1.353 . S
C544 H550 0.930 . S
N545 Li528 1.990 . S
N545 C544 1.314 . S
N545 C547 1.279 . S
C546 C547 1.358 . S
C546 C548 1.356 . S
C546 H600 0.930 . S
C547 N545 1.279 . S
C547 C546 1.358 . S
C547 H551 0.930 . S
C548 C546 1.356 . S
C548 C549 1.348 . S
C549 C544 1.353 . S
C549 C548 1.348 . S
C549 H601 0.929 . S
H550 C544 0.930 . S
H551 C547 0.930 . S
C552 N553 1.314 . S
C552 C554 1.353 . S
C552 H558 0.930 . S
N553 Li529 1.990 . S
N553 C552 1.314 . S
N553 C556 1.279 . S
C554 C552 1.353 . S
C554 C557 1.348 . S
C554 H602 0.929 . S
C555 C556 1.358 . S
C555 C557 1.356 . S
C555 H603 0.930 . S
C556 N553 1.279 . S
C556 C555 1.358 . S
C556 H559 0.930 . S
C557 C554 1.348 . S
C557 C555 1.356 . S
H558 C552 0.930 . S
H559 C556 0.930 . S
C560 C562 1.348 . S
C560 C563 1.356 . S
C560 O590 1.325 . S
N561 C564 1.314 . S
N561 C565 1.279 . S
C562 C560 1.348 . S
C562 C564 1.353 . S
C562 H604 0.929 . S
C563 C560 1.356 . S
C563 C565 1.358 . S
C563 H605 0.930 . S
C564 N561 1.314 . S
C564 C562 1.353 . S
C564 H606 0.930 . S
C565 N561 1.279 . S
C565 C563 1.358 . S
C565 H607 0.930 . S
C566 C567 1.348 . S
C566 C568 1.356 . S
C566 O591 1.325 . S
C567 C566 1.348 . S
C567 C569 1.353 . S
C567 H608 0.929 . S
C568 C566 1.356 . S
C568 C570 1.358 . S
C568 H609 0.930 . S
C569 C567 1.353 . S
C569 N571 1.314 . S
C569 H610 0.930 . S
C570 C568 1.358 . S
C570 N571 1.279 . S
C570 H611 0.930 . S
N571 C569 1.314 . S
N571 C570 1.279 . S
C572 C574 1.353 . S
C572 N575 1.314 . S
C572 H578 0.930 . S
C573 N575 1.279 . S
C573 C576 1.358 . S
C573 H579 0.930 . S
C574 C572 1.353 . S
C574 C577 1.348 . S
C574 H612 0.929 . S
N575 Li530 1.990 . S
N575 C572 1.314 . S
N575 C573 1.279 . S
C576 C573 1.358 . S
C576 C577 1.356 . S
C576 H613 0.930 . S
C577 C574 1.348 . S
C577 C576 1.356 . S
H578 C572 0.930 . S
H579 C573 0.930 . S
C580 N581 1.314 . S
C580 C582 1.353 . S
C580 H586 0.930 . S
N581 Li531 1.990 . S
N581 C580 1.314 . S
N581 C584 1.279 . S
C582 C580 1.353 . S
C582 C585 1.348 . S
C582 H614 0.929 . S
C583 C584 1.358 . S
C583 C585 1.356 . S
C583 H615 0.930 . S
C584 N581 1.279 . S
C584 C583 1.358 . S
C584 H587 0.930 . S
C585 C582 1.348 . S
C585 C583 1.356 . S
H586 C580 0.930 . S
H587 C584 0.930 . S
O588 Li528 1.956 . S
O588 Li529 1.970 . S
O588 Li530 1.961 . S
O588 C532 1.325 . S
O589 Li528 1.970 . S
O589 Li529 1.956 . S
O589 Li531 1.961 . S
O589 C538 1.325 . S
O590 Li528 1.961 . S
O590 Li530 1.956 . S
O590 Li531 1.970 . S
O590 C560 1.325 . S
O591 Li529 1.961 . S
O591 Li530 1.970 . S
O591 Li531 1.956 . S
O591 C566 1.325 . S
H592 C534 0.929 . S
H593 C535 0.930 . S
H594 C536 0.930 . S
H595 C537 0.930 . S
H596 C539 0.930 . S
H597 C541 0.929 . S
H598 C542 0.930 . S
H599 C543 0.930 . S
H600 C546 0.930 . S
H601 C549 0.929 . S
H602 C554 0.929 . S
H603 C555 0.930 . S
H604 C562 0.929 . S
H605 C563 0.930 . S
H606 C564 0.930 . S
H607 C565 0.930 . S
H608 C567 0.929 . S
H609 C568 0.930 . S
H610 C569 0.930 . S
H611 C570 0.930 . S
H612 C574 0.929 . S
H613 C576 0.930 . S
H614 C582 0.929 . S
H615 C583 0.930 . S
Li616 N633 1.990 . S
Li616 O676 1.956 . S
Li616 O677 1.970 . S
Li616 O678 1.961 . S
Li617 N641 1.990 . S
Li617 O676 1.970 . S
Li617 O677 1.956 . S
Li617 O679 1.961 . S
Li618 N663 1.990 . S
Li618 O676 1.961 . S
Li618 O678 1.956 . S
Li618 O679 1.970 . S
Li619 N669 1.990 . S
Li619 O677 1.961 . S
Li619 O678 1.970 . S
Li619 O679 1.956 . S
C620 C622 1.348 . S
C620 C623 1.356 . S
C620 O676 1.325 . S
N621 C624 1.314 . S
N621 C625 1.279 . S
C622 C620 1.348 . S
C622 C624 1.353 . S
C622 H680 0.929 . S
C623 C620 1.356 . S
C623 C625 1.358 . S
C623 H681 0.930 . S
C624 N621 1.314 . S
C624 C622 1.353 . S
C624 H682 0.930 . S
C625 N621 1.279 . S
C625 C623 1.358 . S
C625 H683 0.930 . S
C626 C629 1.348 . S
C626 C630 1.356 . S
C626 O677 1.325 . S
C627 N628 1.279 . S
C627 C630 1.358 . S
C627 H684 0.930 . S
N628 C627 1.279 . S
N628 C631 1.314 . S
C629 C626 1.348 . S
C629 C631 1.353 . S
C629 H685 0.929 . S
C630 C626 1.356 . S
C630 C627 1.358 . S
C630 H686 0.930 . S
C631 N628 1.314 . S
C631 C629 1.353 . S
C631 H687 0.930 . S
C632 N633 1.314 . S
C632 C637 1.353 . S
C632 H638 0.930 . S
N633 Li616 1.990 . S
N633 C632 1.314 . S
N633 C635 1.279 . S
C634 C635 1.358 . S
C634 C636 1.356 . S
C634 H688 0.930 . S
C635 N633 1.279 . S
C635 C634 1.358 . S
C635 H639 0.930 . S
C636 C634 1.356 . S
C636 C637 1.348 . S
C637 C632 1.353 . S
C637 C636 1.348 . S
C637 H689 0.929 . S
H638 C632 0.930 . S
H639 C635 0.930 . S
C640 N641 1.314 . S
C640 C642 1.353 . S
C640 H646 0.930 . S
N641 Li617 1.990 . S
N641 C640 1.314 . S
N641 C644 1.279 . S
C642 C640 1.353 . S
C642 C645 1.348 . S
C642 H690 0.929 . S
C643 C644 1.358 . S
C643 C645 1.356 . S
C643 H691 0.930 . S
C644 N641 1.279 . S
C644 C643 1.358 . S
C644 H647 0.930 . S
C645 C642 1.348 . S
C645 C643 1.356 . S
H646 C640 0.930 . S
H647 C644 0.930 . S
C648 C650 1.348 . S
C648 C651 1.356 . S
C648 O678 1.325 . S
N649 C652 1.314 . S
N649 C653 1.279 . S
C650 C648 1.348 . S
C650 C652 1.353 . S
C650 H692 0.929 . S
C651 C648 1.356 . S
C651 C653 1.358 . S
C651 H693 0.930 . S
C652 N649 1.314 . S
C652 C650 1.353 . S
C652 H694 0.930 . S
C653 N649 1.279 . S
C653 C651 1.358 . S
C653 H695 0.930 . S
C654 C655 1.348 . S
C654 C656 1.356 . S
C654 O679 1.325 . S
C655 C654 1.348 . S
C655 C657 1.353 . S
C655 H696 0.929 . S
C656 C654 1.356 . S
C656 C658 1.358 . S
C656 H697 0.930 . S
C657 C655 1.353 . S
C657 N659 1.314 . S
C657 H698 0.930 . S
C658 C656 1.358 . S
C658 N659 1.279 . S
C658 H699 0.930 . S
N659 C657 1.314 . S
N659 C658 1.279 . S
C660 C662 1.353 . S
C660 N663 1.314 . S
C660 H666 0.930 . S
C661 N663 1.279 . S
C661 C664 1.358 . S
C661 H667 0.930 . S
C662 C660 1.353 . S
C662 C665 1.348 . S
C662 H700 0.929 . S
N663 Li618 1.990 . S
N663 C660 1.314 . S
N663 C661 1.279 . S
C664 C661 1.358 . S
C664 C665 1.356 . S
C664 H701 0.930 . S
C665 C662 1.348 . S
C665 C664 1.356 . S
H666 C660 0.930 . S
H667 C661 0.930 . S
C668 N669 1.314 . S
C668 C670 1.353 . S
C668 H674 0.930 . S
N669 Li619 1.990 . S
N669 C668 1.314 . S
N669 C672 1.279 . S
C670 C668 1.353 . S
C670 C673 1.348 . S
C670 H702 0.929 . S
C671 C672 1.358 . S
C671 C673 1.356 . S
C671 H703 0.930 . S
C672 N669 1.279 . S
C672 C671 1.358 . S
C672 H675 0.930 . S
C673 C670 1.348 . S
C673 C671 1.356 . S
H674 C668 0.930 . S
H675 C672 0.930 . S
O676 Li616 1.956 . S
O676 Li617 1.970 . S
O676 Li618 1.961 . S
O676 C620 1.325 . S
O677 Li616 1.970 . S
O677 Li617 1.956 . S
O677 Li619 1.961 . S
O677 C626 1.325 . S
O678 Li616 1.961 . S
O678 Li618 1.956 . S
O678 Li619 1.970 . S
O678 C648 1.325 . S
O679 Li617 1.961 . S
O679 Li618 1.970 . S
O679 Li619 1.956 . S
O679 C654 1.325 . S
H680 C622 0.929 . S
H681 C623 0.930 . S
H682 C624 0.930 . S
H683 C625 0.930 . S
H684 C627 0.930 . S
H685 C629 0.929 . S
H686 C630 0.930 . S
H687 C631 0.930 . S
H688 C634 0.930 . S
H689 C637 0.929 . S
H690 C642 0.929 . S
H691 C643 0.930 . S
H692 C650 0.929 . S
H693 C651 0.930 . S
H694 C652 0.930 . S
H695 C653 0.930 . S
H696 C655 0.929 . S
H697 C656 0.930 . S
H698 C657 0.930 . S
H699 C658 0.930 . S
H700 C662 0.929 . S
H701 C664 0.930 . S
H702 C670 0.929 . S
H703 C671 0.930 . S
Li704 N721 1.990 . S
Li704 O764 1.956 . S
Li704 O765 1.970 . S
Li704 O766 1.961 . S
Li705 N729 1.990 . S
Li705 O764 1.970 . S
Li705 O765 1.956 . S
Li705 O767 1.961 . S
Li706 N751 1.990 . S
Li706 O764 1.961 . S
Li706 O766 1.956 . S
Li706 O767 1.970 . S
Li707 N757 1.990 . S
Li707 O765 1.961 . S
Li707 O766 1.970 . S
Li707 O767 1.956 . S
C708 C710 1.348 . S
C708 C711 1.356 . S
C708 O764 1.325 . S
N709 C712 1.314 . S
N709 C713 1.279 . S
C710 C708 1.348 . S
C710 C712 1.353 . S
C710 H768 0.929 . S
C711 C708 1.356 . S
C711 C713 1.358 . S
C711 H769 0.930 . S
C712 N709 1.314 . S
C712 C710 1.353 . S
C712 H770 0.930 . S
C713 N709 1.279 . S
C713 C711 1.358 . S
C713 H771 0.930 . S
C714 C717 1.348 . S
C714 C718 1.356 . S
C714 O765 1.325 . S
C715 N716 1.279 . S
C715 C718 1.358 . S
C715 H772 0.930 . S
N716 C715 1.279 . S
N716 C719 1.314 . S
C717 C714 1.348 . S
C717 C719 1.353 . S
C717 H773 0.929 . S
C718 C714 1.356 . S
C718 C715 1.358 . S
C718 H774 0.930 . S
C719 N716 1.314 . S
C719 C717 1.353 . S
C719 H775 0.930 . S
C720 N721 1.314 . S
C720 C725 1.353 . S
C720 H726 0.930 . S
N721 Li704 1.990 . S
N721 C720 1.314 . S
N721 C723 1.279 . S
C722 C723 1.358 . S
C722 C724 1.356 . S
C722 H776 0.930 . S
C723 N721 1.279 . S
C723 C722 1.358 . S
C723 H727 0.930 . S
C724 C722 1.356 . S
C724 C725 1.348 . S
C725 C720 1.353 . S
C725 C724 1.348 . S
C725 H777 0.929 . S
H726 C720 0.930 . S
H727 C723 0.930 . S
C728 N729 1.314 . S
C728 C730 1.353 . S
C728 H734 0.930 . S
N729 Li705 1.990 . S
N729 C728 1.314 . S
N729 C732 1.279 . S
C730 C728 1.353 . S
C730 C733 1.348 . S
C730 H778 0.929 . S
C731 C732 1.358 . S
C731 C733 1.356 . S
C731 H779 0.930 . S
C732 N729 1.279 . S
C732 C731 1.358 . S
C732 H735 0.930 . S
C733 C730 1.348 . S
C733 C731 1.356 . S
H734 C728 0.930 . S
H735 C732 0.930 . S
C736 C738 1.348 . S
C736 C739 1.356 . S
C736 O766 1.325 . S
N737 C740 1.314 . S
N737 C741 1.279 . S
C738 C736 1.348 . S
C738 C740 1.353 . S
C738 H780 0.929 . S
C739 C736 1.356 . S
C739 C741 1.358 . S
C739 H781 0.930 . S
C740 N737 1.314 . S
C740 C738 1.353 . S
C740 H782 0.930 . S
C741 N737 1.279 . S
C741 C739 1.358 . S
C741 H783 0.930 . S
C742 C743 1.348 . S
C742 C744 1.356 . S
C742 O767 1.325 . S
C743 C742 1.348 . S
C743 C745 1.353 . S
C743 H784 0.929 . S
C744 C742 1.356 . S
C744 C746 1.358 . S
C744 H785 0.930 . S
C745 C743 1.353 . S
C745 N747 1.314 . S
C745 H786 0.930 . S
C746 C744 1.358 . S
C746 N747 1.279 . S
C746 H787 0.930 . S
N747 C745 1.314 . S
N747 C746 1.279 . S
C748 C750 1.353 . S
C748 N751 1.314 . S
C748 H754 0.930 . S
C749 N751 1.279 . S
C749 C752 1.358 . S
C749 H755 0.930 . S
C750 C748 1.353 . S
C750 C753 1.348 . S
C750 H788 0.929 . S
N751 Li706 1.990 . S
N751 C748 1.314 . S
N751 C749 1.279 . S
C752 C749 1.358 . S
C752 C753 1.356 . S
C752 H789 0.930 . S
C753 C750 1.348 . S
C753 C752 1.356 . S
H754 C748 0.930 . S
H755 C749 0.930 . S
C756 N757 1.314 . S
C756 C758 1.353 . S
C756 H762 0.930 . S
N757 Li707 1.990 . S
N757 C756 1.314 . S
N757 C760 1.279 . S
C758 C756 1.353 . S
C758 C761 1.348 . S
C758 H790 0.929 . S
C759 C760 1.358 . S
C759 C761 1.356 . S
C759 H791 0.930 . S
C760 N757 1.279 . S
C760 C759 1.358 . S
C760 H763 0.930 . S
C761 C758 1.348 . S
C761 C759 1.356 . S
H762 C756 0.930 . S
H763 C760 0.930 . S
O764 Li704 1.956 . S
O764 Li705 1.970 . S
O764 Li706 1.961 . S
O764 C708 1.325 . S
O765 Li704 1.970 . S
O765 Li705 1.956 . S
O765 Li707 1.961 . S
O765 C714 1.325 . S
O766 Li704 1.961 . S
O766 Li706 1.956 . S
O766 Li707 1.970 . S
O766 C736 1.325 . S
O767 Li705 1.961 . S
O767 Li706 1.970 . S
O767 Li707 1.956 . S
O767 C742 1.325 . S
H768 C710 0.929 . S
H769 C711 0.930 . S
H770 C712 0.930 . S
H771 C713 0.930 . S
H772 C715 0.930 . S
H773 C717 0.929 . S
H774 C718 0.930 . S
H775 C719 0.930 . S
H776 C722 0.930 . S
H777 C725 0.929 . S
H778 C730 0.929 . S
H779 C731 0.930 . S
H780 C738 0.929 . S
H781 C739 0.930 . S
H782 C740 0.930 . S
H783 C741 0.930 . S
H784 C743 0.929 . S
H785 C744 0.930 . S
H786 C745 0.930 . S
H787 C746 0.930 . S
H788 C750 0.929 . S
H789 C752 0.930 . S
H790 C758 0.929 . S
H791 C759 0.930 . S
Li792 N809 1.990 . S
Li792 O852 1.956 . S
Li792 O853 1.970 . S
Li792 O854 1.961 . S
Li793 N817 1.990 . S
Li793 O852 1.970 . S
Li793 O853 1.956 . S
Li793 O855 1.961 . S
Li794 N839 1.990 . S
Li794 O852 1.961 . S
Li794 O854 1.956 . S
Li794 O855 1.970 . S
Li795 N845 1.990 . S
Li795 O853 1.961 . S
Li795 O854 1.970 . S
Li795 O855 1.956 . S
C796 C798 1.348 . S
C796 C799 1.356 . S
C796 O852 1.325 . S
N797 C800 1.314 . S
N797 C801 1.279 . S
C798 C796 1.348 . S
C798 C800 1.353 . S
C798 H856 0.929 . S
C799 C796 1.356 . S
C799 C801 1.358 . S
C799 H857 0.930 . S
C800 N797 1.314 . S
C800 C798 1.353 . S
C800 H858 0.930 . S
C801 N797 1.279 . S
C801 C799 1.358 . S
C801 H859 0.930 . S
C802 C805 1.348 . S
C802 C806 1.356 . S
C802 O853 1.325 . S
C803 N804 1.279 . S
C803 C806 1.358 . S
C803 H860 0.930 . S
N804 C803 1.279 . S
N804 C807 1.314 . S
C805 C802 1.348 . S
C805 C807 1.353 . S
C805 H861 0.929 . S
C806 C802 1.356 . S
C806 C803 1.358 . S
C806 H862 0.930 . S
C807 N804 1.314 . S
C807 C805 1.353 . S
C807 H863 0.930 . S
C808 N809 1.314 . S
C808 C813 1.353 . S
C808 H814 0.930 . S
N809 Li792 1.990 . S
N809 C808 1.314 . S
N809 C811 1.279 . S
C810 C811 1.358 . S
C810 C812 1.356 . S
C810 H864 0.930 . S
C811 N809 1.279 . S
C811 C810 1.358 . S
C811 H815 0.930 . S
C812 C810 1.356 . S
C812 C813 1.348 . S
C813 C808 1.353 . S
C813 C812 1.348 . S
C813 H865 0.929 . S
H814 C808 0.930 . S
H815 C811 0.930 . S
C816 N817 1.314 . S
C816 C818 1.353 . S
C816 H822 0.930 . S
N817 Li793 1.990 . S
N817 C816 1.314 . S
N817 C820 1.279 . S
C818 C816 1.353 . S
C818 C821 1.348 . S
C818 H866 0.929 . S
C819 C820 1.358 . S
C819 C821 1.356 . S
C819 H867 0.930 . S
C820 N817 1.279 . S
C820 C819 1.358 . S
C820 H823 0.930 . S
C821 C818 1.348 . S
C821 C819 1.356 . S
H822 C816 0.930 . S
H823 C820 0.930 . S
C824 C826 1.348 . S
C824 C827 1.356 . S
C824 O854 1.325 . S
N825 C828 1.314 . S
N825 C829 1.279 . S
C826 C824 1.348 . S
C826 C828 1.353 . S
C826 H868 0.929 . S
C827 C824 1.356 . S
C827 C829 1.358 . S
C827 H869 0.930 . S
C828 N825 1.314 . S
C828 C826 1.353 . S
C828 H870 0.930 . S
C829 N825 1.279 . S
C829 C827 1.358 . S
C829 H871 0.930 . S
C830 C831 1.348 . S
C830 C832 1.356 . S
C830 O855 1.325 . S
C831 C830 1.348 . S
C831 C833 1.353 . S
C831 H872 0.929 . S
C832 C830 1.356 . S
C832 C834 1.358 . S
C832 H873 0.930 . S
C833 C831 1.353 . S
C833 N835 1.314 . S
C833 H874 0.930 . S
C834 C832 1.358 . S
C834 N835 1.279 . S
C834 H875 0.930 . S
N835 C833 1.314 . S
N835 C834 1.279 . S
C836 C838 1.353 . S
C836 N839 1.314 . S
C836 H842 0.930 . S
C837 N839 1.279 . S
C837 C840 1.358 . S
C837 H843 0.930 . S
C838 C836 1.353 . S
C838 C841 1.348 . S
C838 H876 0.929 . S
N839 Li794 1.990 . S
N839 C836 1.314 . S
N839 C837 1.279 . S
C840 C837 1.358 . S
C840 C841 1.356 . S
C840 H877 0.930 . S
C841 C838 1.348 . S
C841 C840 1.356 . S
H842 C836 0.930 . S
H843 C837 0.930 . S
C844 N845 1.314 . S
C844 C846 1.353 . S
C844 H850 0.930 . S
N845 Li795 1.990 . S
N845 C844 1.314 . S
N845 C848 1.279 . S
C846 C844 1.353 . S
C846 C849 1.348 . S
C846 H878 0.929 . S
C847 C848 1.358 . S
C847 C849 1.356 . S
C847 H879 0.930 . S
C848 N845 1.279 . S
C848 C847 1.358 . S
C848 H851 0.930 . S
C849 C846 1.348 . S
C849 C847 1.356 . S
H850 C844 0.930 . S
H851 C848 0.930 . S
O852 Li792 1.956 . S
O852 Li793 1.970 . S
O852 Li794 1.961 . S
O852 C796 1.325 . S
O853 Li792 1.970 . S
O853 Li793 1.956 . S
O853 Li795 1.961 . S
O853 C802 1.325 . S
O854 Li792 1.961 . S
O854 Li794 1.956 . S
O854 Li795 1.970 . S
O854 C824 1.325 . S
O855 Li793 1.961 . S
O855 Li794 1.970 . S
O855 Li795 1.956 . S
O855 C830 1.325 . S
H856 C798 0.929 . S
H857 C799 0.930 . S
H858 C800 0.930 . S
H859 C801 0.930 . S
H860 C803 0.930 . S
H861 C805 0.929 . S
H862 C806 0.930 . S
H863 C807 0.930 . S
H864 C810 0.930 . S
H865 C813 0.929 . S
H866 C818 0.929 . S
H867 C819 0.930 . S
H868 C826 0.929 . S
H869 C827 0.930 . S
H870 C828 0.930 . S
H871 C829 0.930 . S
H872 C831 0.929 . S
H873 C832 0.930 . S
H874 C833 0.930 . S
H875 C834 0.930 . S
H876 C838 0.929 . S
H877 C840 0.930 . S
H878 C846 0.929 . S
H879 C847 0.930 . S
Li880 N897 1.990 . S
Li880 O940 1.956 . S
Li880 O941 1.970 . S
Li880 O942 1.961 . S
Li881 N905 1.990 . S
Li881 O940 1.970 . S
Li881 O941 1.956 . S
Li881 O943 1.961 . S
Li882 N927 1.990 . S
Li882 O940 1.961 . S
Li882 O942 1.956 . S
Li882 O943 1.970 . S
Li883 N933 1.990 . S
Li883 O941 1.961 . S
Li883 O942 1.970 . S
Li883 O943 1.956 . S
C884 C886 1.348 . S
C884 C887 1.356 . S
C884 O940 1.325 . S
N885 C888 1.314 . S
N885 C889 1.279 . S
C886 C884 1.348 . S
C886 C888 1.353 . S
C886 H944 0.929 . S
C887 C884 1.356 . S
C887 C889 1.358 . S
C887 H945 0.930 . S
C888 N885 1.314 . S
C888 C886 1.353 . S
C888 H946 0.930 . S
C889 N885 1.279 . S
C889 C887 1.358 . S
C889 H947 0.930 . S
C890 C893 1.348 . S
C890 C894 1.356 . S
C890 O941 1.325 . S
C891 N892 1.279 . S
C891 C894 1.358 . S
C891 H948 0.930 . S
N892 C891 1.279 . S
N892 C895 1.314 . S
C893 C890 1.348 . S
C893 C895 1.353 . S
C893 H949 0.929 . S
C894 C890 1.356 . S
C894 C891 1.358 . S
C894 H950 0.930 . S
C895 N892 1.314 . S
C895 C893 1.353 . S
C895 H951 0.930 . S
C896 N897 1.314 . S
C896 C901 1.353 . S
C896 H902 0.930 . S
N897 Li880 1.990 . S
N897 C896 1.314 . S
N897 C899 1.279 . S
C898 C899 1.358 . S
C898 C900 1.356 . S
C898 H952 0.930 . S
C899 N897 1.279 . S
C899 C898 1.358 . S
C899 H903 0.930 . S
C900 C898 1.356 . S
C900 C901 1.348 . S
C901 C896 1.353 . S
C901 C900 1.348 . S
C901 H953 0.929 . S
H902 C896 0.930 . S
H903 C899 0.930 . S
C904 N905 1.314 . S
C904 C906 1.353 . S
C904 H910 0.930 . S
N905 Li881 1.990 . S
N905 C904 1.314 . S
N905 C908 1.279 . S
C906 C904 1.353 . S
C906 C909 1.348 . S
C906 H954 0.929 . S
C907 C908 1.358 . S
C907 C909 1.356 . S
C907 H955 0.930 . S
C908 N905 1.279 . S
C908 C907 1.358 . S
C908 H911 0.930 . S
C909 C906 1.348 . S
C909 C907 1.356 . S
H910 C904 0.930 . S
H911 C908 0.930 . S
C912 C914 1.348 . S
C912 C915 1.356 . S
C912 O942 1.325 . S
N913 C916 1.314 . S
N913 C917 1.279 . S
C914 C912 1.348 . S
C914 C916 1.353 . S
C914 H956 0.929 . S
C915 C912 1.356 . S
C915 C917 1.358 . S
C915 H957 0.930 . S
C916 N913 1.314 . S
C916 C914 1.353 . S
C916 H958 0.930 . S
C917 N913 1.279 . S
C917 C915 1.358 . S
C917 H959 0.930 . S
C918 C919 1.348 . S
C918 C920 1.356 . S
C918 O943 1.325 . S
C919 C918 1.348 . S
C919 C921 1.353 . S
C919 H960 0.929 . S
C920 C918 1.356 . S
C920 C922 1.358 . S
C920 H961 0.930 . S
C921 C919 1.353 . S
C921 N923 1.314 . S
C921 H962 0.930 . S
C922 C920 1.358 . S
C922 N923 1.279 . S
C922 H963 0.930 . S
N923 C921 1.314 . S
N923 C922 1.279 . S
C924 C926 1.353 . S
C924 N927 1.314 . S
C924 H930 0.930 . S
C925 N927 1.279 . S
C925 C928 1.358 . S
C925 H931 0.930 . S
C926 C924 1.353 . S
C926 C929 1.348 . S
C926 H964 0.929 . S
N927 Li882 1.990 . S
N927 C924 1.314 . S
N927 C925 1.279 . S
C928 C925 1.358 . S
C928 C929 1.356 . S
C928 H965 0.930 . S
C929 C926 1.348 . S
C929 C928 1.356 . S
H930 C924 0.930 . S
H931 C925 0.930 . S
C932 N933 1.314 . S
C932 C934 1.353 . S
C932 H938 0.930 . S
N933 Li883 1.990 . S
N933 C932 1.314 . S
N933 C936 1.279 . S
C934 C932 1.353 . S
C934 C937 1.348 . S
C934 H966 0.929 . S
C935 C936 1.358 . S
C935 C937 1.356 . S
C935 H967 0.930 . S
C936 N933 1.279 . S
C936 C935 1.358 . S
C936 H939 0.930 . S
C937 C934 1.348 . S
C937 C935 1.356 . S
H938 C932 0.930 . S
H939 C936 0.930 . S
O940 Li880 1.956 . S
O940 Li881 1.970 . S
O940 Li882 1.961 . S
O940 C884 1.325 . S
O941 Li880 1.970 . S
O941 Li881 1.956 . S
O941 Li883 1.961 . S
O941 C890 1.325 . S
O942 Li880 1.961 . S
O942 Li882 1.956 . S
O942 Li883 1.970 . S
O942 C912 1.325 . S
O943 Li881 1.961 . S
O943 Li882 1.970 . S
O943 Li883 1.956 . S
O943 C918 1.325 . S
H944 C886 0.929 . S
H945 C887 0.930 . S
H946 C888 0.930 . S
H947 C889 0.930 . S
H948 C891 0.930 . S
H949 C893 0.929 . S
H950 C894 0.930 . S
H951 C895 0.930 . S
H952 C898 0.930 . S
H953 C901 0.929 . S
H954 C906 0.929 . S
H955 C907 0.930 . S
H956 C914 0.929 . S
H957 C915 0.930 . S
H958 C916 0.930 . S
H959 C917 0.930 . S
H960 C919 0.929 . S
H961 C920 0.930 . S
H962 C921 0.930 . S
H963 C922 0.930 . S
H964 C926 0.929 . S
H965 C928 0.930 . S
H966 C934 0.929 . S
H967 C935 0.930 . S
Li968 N985 1.990 . S
Li968 O1028 1.956 . S
Li968 O1029 1.970 . S
Li968 O1030 1.961 . S
Li969 N993 1.990 . S
Li969 O1028 1.970 . S
Li969 O1029 1.956 . S
Li969 O1031 1.961 . S
Li970 N1015 1.990 . S
Li970 O1028 1.961 . S
Li970 O1030 1.956 . S
Li970 O1031 1.970 . S
Li971 N1021 1.990 . S
Li971 O1029 1.961 . S
Li971 O1030 1.970 . S
Li971 O1031 1.956 . S
C972 C974 1.348 . S
C972 C975 1.356 . S
C972 O1028 1.325 . S
N973 C976 1.314 . S
N973 C977 1.279 . S
C974 C972 1.348 . S
C974 C976 1.353 . S
C974 H1032 0.929 . S
C975 C972 1.356 . S
C975 C977 1.358 . S
C975 H1033 0.930 . S
C976 N973 1.314 . S
C976 C974 1.353 . S
C976 H1034 0.930 . S
C977 N973 1.279 . S
C977 C975 1.358 . S
C977 H1035 0.930 . S
C978 C981 1.348 . S
C978 C982 1.356 . S
C978 O1029 1.325 . S
C979 N980 1.279 . S
C979 C982 1.358 . S
C979 H1036 0.930 . S
N980 C979 1.279 . S
N980 C983 1.314 . S
C981 C978 1.348 . S
C981 C983 1.353 . S
C981 H1037 0.929 . S
C982 C978 1.356 . S
C982 C979 1.358 . S
C982 H1038 0.930 . S
C983 N980 1.314 . S
C983 C981 1.353 . S
C983 H1039 0.930 . S
C984 N985 1.314 . S
C984 C989 1.353 . S
C984 H990 0.930 . S
N985 Li968 1.990 . S
N985 C984 1.314 . S
N985 C987 1.279 . S
C986 C987 1.358 . S
C986 C988 1.356 . S
C986 H1040 0.930 . S
C987 N985 1.279 . S
C987 C986 1.358 . S
C987 H991 0.930 . S
C988 C986 1.356 . S
C988 C989 1.348 . S
C989 C984 1.353 . S
C989 C988 1.348 . S
C989 H1041 0.929 . S
H990 C984 0.930 . S
H991 C987 0.930 . S
C992 N993 1.314 . S
C992 C994 1.353 . S
C992 H998 0.930 . S
N993 Li969 1.990 . S
N993 C992 1.314 . S
N993 C996 1.279 . S
C994 C992 1.353 . S
C994 C997 1.348 . S
C994 H1042 0.929 . S
C995 C996 1.358 . S
C995 C997 1.356 . S
C995 H1043 0.930 . S
C996 N993 1.279 . S
C996 C995 1.358 . S
C996 H999 0.930 . S
C997 C994 1.348 . S
C997 C995 1.356 . S
H998 C992 0.930 . S
H999 C996 0.930 . S
C1000 C1002 1.348 . S
C1000 C1003 1.356 . S
C1000 O1030 1.325 . S
N1001 C1004 1.314 . S
N1001 C1005 1.279 . S
C1002 C1000 1.348 . S
C1002 C1004 1.353 . S
C1002 H1044 0.929 . S
C1003 C1000 1.356 . S
C1003 C1005 1.358 . S
C1003 H1045 0.930 . S
C1004 N1001 1.314 . S
C1004 C1002 1.353 . S
C1004 H1046 0.930 . S
C1005 N1001 1.279 . S
C1005 C1003 1.358 . S
C1005 H1047 0.930 . S
C1006 C1007 1.348 . S
C1006 C1008 1.356 . S
C1006 O1031 1.325 . S
C1007 C1006 1.348 . S
C1007 C1009 1.353 . S
C1007 H1048 0.929 . S
C1008 C1006 1.356 . S
C1008 C1010 1.358 . S
C1008 H1049 0.930 . S
C1009 C1007 1.353 . S
C1009 N1011 1.314 . S
C1009 H1050 0.930 . S
C1010 C1008 1.358 . S
C1010 N1011 1.279 . S
C1010 H1051 0.930 . S
N1011 C1009 1.314 . S
N1011 C1010 1.279 . S
C1012 C1014 1.353 . S
C1012 N1015 1.314 . S
C1012 H1018 0.930 . S
C1013 N1015 1.279 . S
C1013 C1016 1.358 . S
C1013 H1019 0.930 . S
C1014 C1012 1.353 . S
C1014 C1017 1.348 . S
C1014 H1052 0.929 . S
N1015 Li970 1.990 . S
N1015 C1012 1.314 . S
N1015 C1013 1.279 . S
C1016 C1013 1.358 . S
C1016 C1017 1.356 . S
C1016 H1053 0.930 . S
C1017 C1014 1.348 . S
C1017 C1016 1.356 . S
H1018 C1012 0.930 . S
H1019 C1013 0.930 . S
C1020 N1021 1.314 . S
C1020 C1022 1.353 . S
C1020 H1026 0.930 . S
N1021 Li971 1.990 . S
N1021 C1020 1.314 . S
N1021 C1024 1.279 . S
C1022 C1020 1.353 . S
C1022 C1025 1.348 . S
C1022 H1054 0.929 . S
C1023 C1024 1.358 . S
C1023 C1025 1.356 . S
C1023 H1055 0.930 . S
C1024 N1021 1.279 . S
C1024 C1023 1.358 . S
C1024 H1027 0.930 . S
C1025 C1022 1.348 . S
C1025 C1023 1.356 . S
H1026 C1020 0.930 . S
H1027 C1024 0.930 . S
O1028 Li968 1.956 . S
O1028 Li969 1.970 . S
O1028 Li970 1.961 . S
O1028 C972 1.325 . S
O1029 Li968 1.970 . S
O1029 Li969 1.956 . S
O1029 Li971 1.961 . S
O1029 C978 1.325 . S
O1030 Li968 1.961 . S
O1030 Li970 1.956 . S
O1030 Li971 1.970 . S
O1030 C1000 1.325 . S
O1031 Li969 1.961 . S
O1031 Li970 1.970 . S
O1031 Li971 1.956 . S
O1031 C1006 1.325 . S
H1032 C974 0.929 . S
H1033 C975 0.930 . S
H1034 C976 0.930 . S
H1035 C977 0.930 . S
H1036 C979 0.930 . S
H1037 C981 0.929 . S
H1038 C982 0.930 . S
H1039 C983 0.930 . S
H1040 C986 0.930 . S
H1041 C989 0.929 . S
H1042 C994 0.929 . S
H1043 C995 0.930 . S
H1044 C1002 0.929 . S
H1045 C1003 0.930 . S
H1046 C1004 0.930 . S
H1047 C1005 0.930 . S
H1048 C1007 0.929 . S
H1049 C1008 0.930 . S
H1050 C1009 0.930 . S
H1051 C1010 0.930 . S
H1052 C1014 0.929 . S
H1053 C1016 0.930 . S
H1054 C1022 0.929 . S
H1055 C1023 0.930 . S
Li1056 N1073 1.990 . S
Li1056 O1116 1.956 . S
Li1056 O1117 1.970 . S
Li1056 O1118 1.961 . S
Li1057 N1081 1.990 . S
Li1057 O1116 1.970 . S
Li1057 O1117 1.956 . S
Li1057 O1119 1.961 . S
Li1058 N1103 1.990 . S
Li1058 O1116 1.961 . S
Li1058 O1118 1.956 . S
Li1058 O1119 1.970 . S
Li1059 N1109 1.990 . S
Li1059 O1117 1.961 . S
Li1059 O1118 1.970 . S
Li1059 O1119 1.956 . S
C1060 C1062 1.348 . S
C1060 C1063 1.356 . S
C1060 O1116 1.325 . S
N1061 C1064 1.314 . S
N1061 C1065 1.279 . S
C1062 C1060 1.348 . S
C1062 C1064 1.353 . S
C1062 H1120 0.929 . S
C1063 C1060 1.356 . S
C1063 C1065 1.358 . S
C1063 H1121 0.930 . S
C1064 N1061 1.314 . S
C1064 C1062 1.353 . S
C1064 H1122 0.930 . S
C1065 N1061 1.279 . S
C1065 C1063 1.358 . S
C1065 H1123 0.930 . S
C1066 C1069 1.348 . S
C1066 C1070 1.356 . S
C1066 O1117 1.325 . S
C1067 N1068 1.279 . S
C1067 C1070 1.358 . S
C1067 H1124 0.930 . S
N1068 C1067 1.279 . S
N1068 C1071 1.314 . S
C1069 C1066 1.348 . S
C1069 C1071 1.353 . S
C1069 H1125 0.929 . S
C1070 C1066 1.356 . S
C1070 C1067 1.358 . S
C1070 H1126 0.930 . S
C1071 N1068 1.314 . S
C1071 C1069 1.353 . S
C1071 H1127 0.930 . S
C1072 N1073 1.314 . S
C1072 C1077 1.353 . S
C1072 H1078 0.930 . S
N1073 Li1056 1.990 . S
N1073 C1072 1.314 . S
N1073 C1075 1.279 . S
C1074 C1075 1.358 . S
C1074 C1076 1.356 . S
C1074 H1128 0.930 . S
C1075 N1073 1.279 . S
C1075 C1074 1.358 . S
C1075 H1079 0.930 . S
C1076 C1074 1.356 . S
C1076 C1077 1.348 . S
C1077 C1072 1.353 . S
C1077 C1076 1.348 . S
C1077 H1129 0.929 . S
H1078 C1072 0.930 . S
H1079 C1075 0.930 . S
C1080 N1081 1.314 . S
C1080 C1082 1.353 . S
C1080 H1086 0.930 . S
N1081 Li1057 1.990 . S
N1081 C1080 1.314 . S
N1081 C1084 1.279 . S
C1082 C1080 1.353 . S
C1082 C1085 1.348 . S
C1082 H1130 0.929 . S
C1083 C1084 1.358 . S
C1083 C1085 1.356 . S
C1083 H1131 0.930 . S
C1084 N1081 1.279 . S
C1084 C1083 1.358 . S
C1084 H1087 0.930 . S
C1085 C1082 1.348 . S
C1085 C1083 1.356 . S
H1086 C1080 0.930 . S
H1087 C1084 0.930 . S
C1088 C1090 1.348 . S
C1088 C1091 1.356 . S
C1088 O1118 1.325 . S
N1089 C1092 1.314 . S
N1089 C1093 1.279 . S
C1090 C1088 1.348 . S
C1090 C1092 1.353 . S
C1090 H1132 0.929 . S
C1091 C1088 1.356 . S
C1091 C1093 1.358 . S
C1091 H1133 0.930 . S
C1092 N1089 1.314 . S
C1092 C1090 1.353 . S
C1092 H1134 0.930 . S
C1093 N1089 1.279 . S
C1093 C1091 1.358 . S
C1093 H1135 0.930 . S
C1094 C1095 1.348 . S
C1094 C1096 1.356 . S
C1094 O1119 1.325 . S
C1095 C1094 1.348 . S
C1095 C1097 1.353 . S
C1095 H1136 0.929 . S
C1096 C1094 1.356 . S
C1096 C1098 1.358 . S
C1096 H1137 0.930 . S
C1097 C1095 1.353 . S
C1097 N1099 1.314 . S
C1097 H1138 0.930 . S
C1098 C1096 1.358 . S
C1098 N1099 1.279 . S
C1098 H1139 0.930 . S
N1099 C1097 1.314 . S
N1099 C1098 1.279 . S
C1100 C1102 1.353 . S
C1100 N1103 1.314 . S
C1100 H1106 0.930 . S
C1101 N1103 1.279 . S
C1101 C1104 1.358 . S
C1101 H1107 0.930 . S
C1102 C1100 1.353 . S
C1102 C1105 1.348 . S
C1102 H1140 0.929 . S
N1103 Li1058 1.990 . S
N1103 C1100 1.314 . S
N1103 C1101 1.279 . S
C1104 C1101 1.358 . S
C1104 C1105 1.356 . S
C1104 H1141 0.930 . S
C1105 C1102 1.348 . S
C1105 C1104 1.356 . S
H1106 C1100 0.930 . S
H1107 C1101 0.930 . S
C1108 N1109 1.314 . S
C1108 C1110 1.353 . S
C1108 H1114 0.930 . S
N1109 Li1059 1.990 . S
N1109 C1108 1.314 . S
N1109 C1112 1.279 . S
C1110 C1108 1.353 . S
C1110 C1113 1.348 . S
C1110 H1142 0.929 . S
C1111 C1112 1.358 . S
C1111 C1113 1.356 . S
C1111 H1143 0.930 . S
C1112 N1109 1.279 . S
C1112 C1111 1.358 . S
C1112 H1115 0.930 . S
C1113 C1110 1.348 . S
C1113 C1111 1.356 . S
H1114 C1108 0.930 . S
H1115 C1112 0.930 . S
O1116 Li1056 1.956 . S
O1116 Li1057 1.970 . S
O1116 Li1058 1.961 . S
O1116 C1060 1.325 . S
O1117 Li1056 1.970 . S
O1117 Li1057 1.956 . S
O1117 Li1059 1.961 . S
O1117 C1066 1.325 . S
O1118 Li1056 1.961 . S
O1118 Li1058 1.956 . S
O1118 Li1059 1.970 . S
O1118 C1088 1.325 . S
O1119 Li1057 1.961 . S
O1119 Li1058 1.970 . S
O1119 Li1059 1.956 . S
O1119 C1094 1.325 . S
H1120 C1062 0.929 . S
H1121 C1063 0.930 . S
H1122 C1064 0.930 . S
H1123 C1065 0.930 . S
H1124 C1067 0.930 . S
H1125 C1069 0.929 . S
H1126 C1070 0.930 . S
H1127 C1071 0.930 . S
H1128 C1074 0.930 . S
H1129 C1077 0.929 . S
H1130 C1082 0.929 . S
H1131 C1083 0.930 . S
H1132 C1090 0.929 . S
H1133 C1091 0.930 . S
H1134 C1092 0.930 . S
H1135 C1093 0.930 . S
H1136 C1095 0.929 . S
H1137 C1096 0.930 . S
H1138 C1097 0.930 . S
H1139 C1098 0.930 . S
H1140 C1102 0.929 . S
H1141 C1104 0.930 . S
H1142 C1110 0.929 . S
H1143 C1111 0.930 . S
Li1144 N1161 1.990 . S
Li1144 O1204 1.956 . S
Li1144 O1205 1.970 . S
Li1144 O1206 1.961 . S
Li1145 N1169 1.990 . S
Li1145 O1204 1.970 . S
Li1145 O1205 1.956 . S
Li1145 O1207 1.961 . S
Li1146 N1191 1.990 . S
Li1146 O1204 1.961 . S
Li1146 O1206 1.956 . S
Li1146 O1207 1.970 . S
Li1147 N1197 1.990 . S
Li1147 O1205 1.961 . S
Li1147 O1206 1.970 . S
Li1147 O1207 1.956 . S
C1148 C1150 1.348 . S
C1148 C1151 1.356 . S
C1148 O1204 1.325 . S
N1149 C1152 1.314 . S
N1149 C1153 1.279 . S
C1150 C1148 1.348 . S
C1150 C1152 1.353 . S
C1150 H1208 0.929 . S
C1151 C1148 1.356 . S
C1151 C1153 1.358 . S
C1151 H1209 0.930 . S
C1152 N1149 1.314 . S
C1152 C1150 1.353 . S
C1152 H1210 0.930 . S
C1153 N1149 1.279 . S
C1153 C1151 1.358 . S
C1153 H1211 0.930 . S
C1154 C1157 1.348 . S
C1154 C1158 1.356 . S
C1154 O1205 1.325 . S
C1155 N1156 1.279 . S
C1155 C1158 1.358 . S
C1155 H1212 0.930 . S
N1156 C1155 1.279 . S
N1156 C1159 1.314 . S
C1157 C1154 1.348 . S
C1157 C1159 1.353 . S
C1157 H1213 0.929 . S
C1158 C1154 1.356 . S
C1158 C1155 1.358 . S
C1158 H1214 0.930 . S
C1159 N1156 1.314 . S
C1159 C1157 1.353 . S
C1159 H1215 0.930 . S
C1160 N1161 1.314 . S
C1160 C1165 1.353 . S
C1160 H1166 0.930 . S
N1161 Li1144 1.990 . S
N1161 C1160 1.314 . S
N1161 C1163 1.279 . S
C1162 C1163 1.358 . S
C1162 C1164 1.356 . S
C1162 H1216 0.930 . S
C1163 N1161 1.279 . S
C1163 C1162 1.358 . S
C1163 H1167 0.930 . S
C1164 C1162 1.356 . S
C1164 C1165 1.348 . S
C1165 C1160 1.353 . S
C1165 C1164 1.348 . S
C1165 H1217 0.929 . S
H1166 C1160 0.930 . S
H1167 C1163 0.930 . S
C1168 N1169 1.314 . S
C1168 C1170 1.353 . S
C1168 H1174 0.930 . S
N1169 Li1145 1.990 . S
N1169 C1168 1.314 . S
N1169 C1172 1.279 . S
C1170 C1168 1.353 . S
C1170 C1173 1.348 . S
C1170 H1218 0.929 . S
C1171 C1172 1.358 . S
C1171 C1173 1.356 . S
C1171 H1219 0.930 . S
C1172 N1169 1.279 . S
C1172 C1171 1.358 . S
C1172 H1175 0.930 . S
C1173 C1170 1.348 . S
C1173 C1171 1.356 . S
H1174 C1168 0.930 . S
H1175 C1172 0.930 . S
C1176 C1178 1.348 . S
C1176 C1179 1.356 . S
C1176 O1206 1.325 . S
N1177 C1180 1.314 . S
N1177 C1181 1.279 . S
C1178 C1176 1.348 . S
C1178 C1180 1.353 . S
C1178 H1220 0.929 . S
C1179 C1176 1.356 . S
C1179 C1181 1.358 . S
C1179 H1221 0.930 . S
C1180 N1177 1.314 . S
C1180 C1178 1.353 . S
C1180 H1222 0.930 . S
C1181 N1177 1.279 . S
C1181 C1179 1.358 . S
C1181 H1223 0.930 . S
C1182 C1183 1.348 . S
C1182 C1184 1.356 . S
C1182 O1207 1.325 . S
C1183 C1182 1.348 . S
C1183 C1185 1.353 . S
C1183 H1224 0.929 . S
C1184 C1182 1.356 . S
C1184 C1186 1.358 . S
C1184 H1225 0.930 . S
C1185 C1183 1.353 . S
C1185 N1187 1.314 . S
C1185 H1226 0.930 . S
C1186 C1184 1.358 . S
C1186 N1187 1.279 . S
C1186 H1227 0.930 . S
N1187 C1185 1.314 . S
N1187 C1186 1.279 . S
C1188 C1190 1.353 . S
C1188 N1191 1.314 . S
C1188 H1194 0.930 . S
C1189 N1191 1.279 . S
C1189 C1192 1.358 . S
C1189 H1195 0.930 . S
C1190 C1188 1.353 . S
C1190 C1193 1.348 . S
C1190 H1228 0.929 . S
N1191 Li1146 1.990 . S
N1191 C1188 1.314 . S
N1191 C1189 1.279 . S
C1192 C1189 1.358 . S
C1192 C1193 1.356 . S
C1192 H1229 0.930 . S
C1193 C1190 1.348 . S
C1193 C1192 1.356 . S
H1194 C1188 0.930 . S
H1195 C1189 0.930 . S
C1196 N1197 1.314 . S
C1196 C1198 1.353 . S
C1196 H1202 0.930 . S
N1197 Li1147 1.990 . S
N1197 C1196 1.314 . S
N1197 C1200 1.279 . S
C1198 C1196 1.353 . S
C1198 C1201 1.348 . S
C1198 H1230 0.929 . S
C1199 C1200 1.358 . S
C1199 C1201 1.356 . S
C1199 H1231 0.930 . S
C1200 N1197 1.279 . S
C1200 C1199 1.358 . S
C1200 H1203 0.930 . S
C1201 C1198 1.348 . S
C1201 C1199 1.356 . S
H1202 C1196 0.930 . S
H1203 C1200 0.930 . S
O1204 Li1144 1.956 . S
O1204 Li1145 1.970 . S
O1204 Li1146 1.961 . S
O1204 C1148 1.325 . S
O1205 Li1144 1.970 . S
O1205 Li1145 1.956 . S
O1205 Li1147 1.961 . S
O1205 C1154 1.325 . S
O1206 Li1144 1.961 . S
O1206 Li1146 1.956 . S
O1206 Li1147 1.970 . S
O1206 C1176 1.325 . S
O1207 Li1145 1.961 . S
O1207 Li1146 1.970 . S
O1207 Li1147 1.956 . S
O1207 C1182 1.325 . S
H1208 C1150 0.929 . S
H1209 C1151 0.930 . S
H1210 C1152 0.930 . S
H1211 C1153 0.930 . S
H1212 C1155 0.930 . S
H1213 C1157 0.929 . S
H1214 C1158 0.930 . S
H1215 C1159 0.930 . S
H1216 C1162 0.930 . S
H1217 C1165 0.929 . S
H1218 C1170 0.929 . S
H1219 C1171 0.930 . S
H1220 C1178 0.929 . S
H1221 C1179 0.930 . S
H1222 C1180 0.930 . S
H1223 C1181 0.930 . S
H1224 C1183 0.929 . S
H1225 C1184 0.930 . S
H1226 C1185 0.930 . S
H1227 C1186 0.930 . S
H1228 C1190 0.929 . S
H1229 C1192 0.930 . S
H1230 C1198 0.929 . S
H1231 C1199 0.930 . S
Li1232 N1249 1.990 . S
Li1232 O1292 1.956 . S
Li1232 O1293 1.970 . S
Li1232 O1294 1.961 . S
Li1233 N1257 1.990 . S
Li1233 O1292 1.970 . S
Li1233 O1293 1.956 . S
Li1233 O1295 1.961 . S
Li1234 N1279 1.990 . S
Li1234 O1292 1.961 . S
Li1234 O1294 1.956 . S
Li1234 O1295 1.970 . S
Li1235 N1285 1.990 . S
Li1235 O1293 1.961 . S
Li1235 O1294 1.970 . S
Li1235 O1295 1.956 . S
C1236 C1238 1.348 . S
C1236 C1239 1.356 . S
C1236 O1292 1.325 . S
N1237 C1240 1.314 . S
N1237 C1241 1.279 . S
C1238 C1236 1.348 . S
C1238 C1240 1.353 . S
C1238 H1296 0.929 . S
C1239 C1236 1.356 . S
C1239 C1241 1.358 . S
C1239 H1297 0.930 . S
C1240 N1237 1.314 . S
C1240 C1238 1.353 . S
C1240 H1298 0.930 . S
C1241 N1237 1.279 . S
C1241 C1239 1.358 . S
C1241 H1299 0.930 . S
C1242 C1245 1.348 . S
C1242 C1246 1.356 . S
C1242 O1293 1.325 . S
C1243 N1244 1.279 . S
C1243 C1246 1.358 . S
C1243 H1300 0.930 . S
N1244 C1243 1.279 . S
N1244 C1247 1.314 . S
C1245 C1242 1.348 . S
C1245 C1247 1.353 . S
C1245 H1301 0.929 . S
C1246 C1242 1.356 . S
C1246 C1243 1.358 . S
C1246 H1302 0.930 . S
C1247 N1244 1.314 . S
C1247 C1245 1.353 . S
C1247 H1303 0.930 . S
C1248 N1249 1.314 . S
C1248 C1253 1.353 . S
C1248 H1254 0.930 . S
N1249 Li1232 1.990 . S
N1249 C1248 1.314 . S
N1249 C1251 1.279 . S
C1250 C1251 1.358 . S
C1250 C1252 1.356 . S
C1250 H1304 0.930 . S
C1251 N1249 1.279 . S
C1251 C1250 1.358 . S
C1251 H1255 0.930 . S
C1252 C1250 1.356 . S
C1252 C1253 1.348 . S
C1253 C1248 1.353 . S
C1253 C1252 1.348 . S
C1253 H1305 0.929 . S
H1254 C1248 0.930 . S
H1255 C1251 0.930 . S
C1256 N1257 1.314 . S
C1256 C1258 1.353 . S
C1256 H1262 0.930 . S
N1257 Li1233 1.990 . S
N1257 C1256 1.314 . S
N1257 C1260 1.279 . S
C1258 C1256 1.353 . S
C1258 C1261 1.348 . S
C1258 H1306 0.929 . S
C1259 C1260 1.358 . S
C1259 C1261 1.356 . S
C1259 H1307 0.930 . S
C1260 N1257 1.279 . S
C1260 C1259 1.358 . S
C1260 H1263 0.930 . S
C1261 C1258 1.348 . S
C1261 C1259 1.356 . S
H1262 C1256 0.930 . S
H1263 C1260 0.930 . S
C1264 C1266 1.348 . S
C1264 C1267 1.356 . S
C1264 O1294 1.325 . S
N1265 C1268 1.314 . S
N1265 C1269 1.279 . S
C1266 C1264 1.348 . S
C1266 C1268 1.353 . S
C1266 H1308 0.929 . S
C1267 C1264 1.356 . S
C1267 C1269 1.358 . S
C1267 H1309 0.930 . S
C1268 N1265 1.314 . S
C1268 C1266 1.353 . S
C1268 H1310 0.930 . S
C1269 N1265 1.279 . S
C1269 C1267 1.358 . S
C1269 H1311 0.930 . S
C1270 C1271 1.348 . S
C1270 C1272 1.356 . S
C1270 O1295 1.325 . S
C1271 C1270 1.348 . S
C1271 C1273 1.353 . S
C1271 H1312 0.929 . S
C1272 C1270 1.356 . S
C1272 C1274 1.358 . S
C1272 H1313 0.930 . S
C1273 C1271 1.353 . S
C1273 N1275 1.314 . S
C1273 H1314 0.930 . S
C1274 C1272 1.358 . S
C1274 N1275 1.279 . S
C1274 H1315 0.930 . S
N1275 C1273 1.314 . S
N1275 C1274 1.279 . S
C1276 C1278 1.353 . S
C1276 N1279 1.314 . S
C1276 H1282 0.930 . S
C1277 N1279 1.279 . S
C1277 C1280 1.358 . S
C1277 H1283 0.930 . S
C1278 C1276 1.353 . S
C1278 C1281 1.348 . S
C1278 H1316 0.929 . S
N1279 Li1234 1.990 . S
N1279 C1276 1.314 . S
N1279 C1277 1.279 . S
C1280 C1277 1.358 . S
C1280 C1281 1.356 . S
C1280 H1317 0.930 . S
C1281 C1278 1.348 . S
C1281 C1280 1.356 . S
H1282 C1276 0.930 . S
H1283 C1277 0.930 . S
C1284 N1285 1.314 . S
C1284 C1286 1.353 . S
C1284 H1290 0.930 . S
N1285 Li1235 1.990 . S
N1285 C1284 1.314 . S
N1285 C1288 1.279 . S
C1286 C1284 1.353 . S
C1286 C1289 1.348 . S
C1286 H1318 0.929 . S
C1287 C1288 1.358 . S
C1287 C1289 1.356 . S
C1287 H1319 0.930 . S
C1288 N1285 1.279 . S
C1288 C1287 1.358 . S
C1288 H1291 0.930 . S
C1289 C1286 1.348 . S
C1289 C1287 1.356 . S
H1290 C1284 0.930 . S
H1291 C1288 0.930 . S
O1292 Li1232 1.956 . S
O1292 Li1233 1.970 . S
O1292 Li1234 1.961 . S
O1292 C1236 1.325 . S
O1293 Li1232 1.970 . S
O1293 Li1233 1.956 . S
O1293 Li1235 1.961 . S
O1293 C1242 1.325 . S
O1294 Li1232 1.961 . S
O1294 Li1234 1.956 . S
O1294 Li1235 1.970 . S
O1294 C1264 1.325 . S
O1295 Li1233 1.961 . S
O1295 Li1234 1.970 . S
O1295 Li1235 1.956 . S
O1295 C1270 1.325 . S
H1296 C1238 0.929 . S
H1297 C1239 0.930 . S
H1298 C1240 0.930 . S
H1299 C1241 0.930 . S
H1300 C1243 0.930 . S
H1301 C1245 0.929 . S
H1302 C1246 0.930 . S
H1303 C1247 0.930 . S
H1304 C1250 0.930 . S
H1305 C1253 0.929 . S
H1306 C1258 0.929 . S
H1307 C1259 0.930 . S
H1308 C1266 0.929 . S
H1309 C1267 0.930 . S
H1310 C1268 0.930 . S
H1311 C1269 0.930 . S
H1312 C1271 0.929 . S
H1313 C1272 0.930 . S
H1314 C1273 0.930 . S
H1315 C1274 0.930 . S
H1316 C1278 0.929 . S
H1317 C1280 0.930 . S
H1318 C1286 0.929 . S
H1319 C1287 0.930 . S
Li1320 N1337 1.990 . S
Li1320 O1380 1.956 . S
Li1320 O1381 1.970 . S
Li1320 O1382 1.961 . S
Li1321 N1345 1.990 . S
Li1321 O1380 1.970 . S
Li1321 O1381 1.956 . S
Li1321 O1383 1.961 . S
Li1322 N1367 1.990 . S
Li1322 O1380 1.961 . S
Li1322 O1382 1.956 . S
Li1322 O1383 1.970 . S
Li1323 N1373 1.990 . S
Li1323 O1381 1.961 . S
Li1323 O1382 1.970 . S
Li1323 O1383 1.956 . S
C1324 C1326 1.348 . S
C1324 C1327 1.356 . S
C1324 O1380 1.325 . S
N1325 C1328 1.314 . S
N1325 C1329 1.279 . S
C1326 C1324 1.348 . S
C1326 C1328 1.353 . S
C1326 H1384 0.929 . S
C1327 C1324 1.356 . S
C1327 C1329 1.358 . S
C1327 H1385 0.930 . S
C1328 N1325 1.314 . S
C1328 C1326 1.353 . S
C1328 H1386 0.930 . S
C1329 N1325 1.279 . S
C1329 C1327 1.358 . S
C1329 H1387 0.930 . S
C1330 C1333 1.348 . S
C1330 C1334 1.356 . S
C1330 O1381 1.325 . S
C1331 N1332 1.279 . S
C1331 C1334 1.358 . S
C1331 H1388 0.930 . S
N1332 C1331 1.279 . S
N1332 C1335 1.314 . S
C1333 C1330 1.348 . S
C1333 C1335 1.353 . S
C1333 H1389 0.929 . S
C1334 C1330 1.356 . S
C1334 C1331 1.358 . S
C1334 H1390 0.930 . S
C1335 N1332 1.314 . S
C1335 C1333 1.353 . S
C1335 H1391 0.930 . S
C1336 N1337 1.314 . S
C1336 C1341 1.353 . S
C1336 H1342 0.930 . S
N1337 Li1320 1.990 . S
N1337 C1336 1.314 . S
N1337 C1339 1.279 . S
C1338 C1339 1.358 . S
C1338 C1340 1.356 . S
C1338 H1392 0.930 . S
C1339 N1337 1.279 . S
C1339 C1338 1.358 . S
C1339 H1343 0.930 . S
C1340 C1338 1.356 . S
C1340 C1341 1.348 . S
C1341 C1336 1.353 . S
C1341 C1340 1.348 . S
C1341 H1393 0.929 . S
H1342 C1336 0.930 . S
H1343 C1339 0.930 . S
C1344 N1345 1.314 . S
C1344 C1346 1.353 . S
C1344 H1350 0.930 . S
N1345 Li1321 1.990 . S
N1345 C1344 1.314 . S
N1345 C1348 1.279 . S
C1346 C1344 1.353 . S
C1346 C1349 1.348 . S
C1346 H1394 0.929 . S
C1347 C1348 1.358 . S
C1347 C1349 1.356 . S
C1347 H1395 0.930 . S
C1348 N1345 1.279 . S
C1348 C1347 1.358 . S
C1348 H1351 0.930 . S
C1349 C1346 1.348 . S
C1349 C1347 1.356 . S
H1350 C1344 0.930 . S
H1351 C1348 0.930 . S
C1352 C1354 1.348 . S
C1352 C1355 1.356 . S
C1352 O1382 1.325 . S
N1353 C1356 1.314 . S
N1353 C1357 1.279 . S
C1354 C1352 1.348 . S
C1354 C1356 1.353 . S
C1354 H1396 0.929 . S
C1355 C1352 1.356 . S
C1355 C1357 1.358 . S
C1355 H1397 0.930 . S
C1356 N1353 1.314 . S
C1356 C1354 1.353 . S
C1356 H1398 0.930 . S
C1357 N1353 1.279 . S
C1357 C1355 1.358 . S
C1357 H1399 0.930 . S
C1358 C1359 1.348 . S
C1358 C1360 1.356 . S
C1358 O1383 1.325 . S
C1359 C1358 1.348 . S
C1359 C1361 1.353 . S
C1359 H1400 0.929 . S
C1360 C1358 1.356 . S
C1360 C1362 1.358 . S
C1360 H1401 0.930 . S
C1361 C1359 1.353 . S
C1361 N1363 1.314 . S
C1361 H1402 0.930 . S
C1362 C1360 1.358 . S
C1362 N1363 1.279 . S
C1362 H1403 0.930 . S
N1363 C1361 1.314 . S
N1363 C1362 1.279 . S
C1364 C1366 1.353 . S
C1364 N1367 1.314 . S
C1364 H1370 0.930 . S
C1365 N1367 1.279 . S
C1365 C1368 1.358 . S
C1365 H1371 0.930 . S
C1366 C1364 1.353 . S
C1366 C1369 1.348 . S
C1366 H1404 0.929 . S
N1367 Li1322 1.990 . S
N1367 C1364 1.314 . S
N1367 C1365 1.279 . S
C1368 C1365 1.358 . S
C1368 C1369 1.356 . S
C1368 H1405 0.930 . S
C1369 C1366 1.348 . S
C1369 C1368 1.356 . S
H1370 C1364 0.930 . S
H1371 C1365 0.930 . S
C1372 N1373 1.314 . S
C1372 C1374 1.353 . S
C1372 H1378 0.930 . S
N1373 Li1323 1.990 . S
N1373 C1372 1.314 . S
N1373 C1376 1.279 . S
C1374 C1372 1.353 . S
C1374 C1377 1.348 . S
C1374 H1406 0.929 . S
C1375 C1376 1.358 . S
C1375 C1377 1.356 . S
C1375 H1407 0.930 . S
C1376 N1373 1.279 . S
C1376 C1375 1.358 . S
C1376 H1379 0.930 . S
C1377 C1374 1.348 . S
C1377 C1375 1.356 . S
H1378 C1372 0.930 . S
H1379 C1376 0.930 . S
O1380 Li1320 1.956 . S
O1380 Li1321 1.970 . S
O1380 Li1322 1.961 . S
O1380 C1324 1.325 . S
O1381 Li1320 1.970 . S
O1381 Li1321 1.956 . S
O1381 Li1323 1.961 . S
O1381 C1330 1.325 . S
O1382 Li1320 1.961 . S
O1382 Li1322 1.956 . S
O1382 Li1323 1.970 . S
O1382 C1352 1.325 . S
O1383 Li1321 1.961 . S
O1383 Li1322 1.970 . S
O1383 Li1323 1.956 . S
O1383 C1358 1.325 . S
H1384 C1326 0.929 . S
H1385 C1327 0.930 . S
H1386 C1328 0.930 . S
H1387 C1329 0.930 . S
H1388 C1331 0.930 . S
H1389 C1333 0.929 . S
H1390 C1334 0.930 . S
H1391 C1335 0.930 . S
H1392 C1338 0.930 . S
H1393 C1341 0.929 . S
H1394 C1346 0.929 . S
H1395 C1347 0.930 . S
H1396 C1354 0.929 . S
H1397 C1355 0.930 . S
H1398 C1356 0.930 . S
H1399 C1357 0.930 . S
H1400 C1359 0.929 . S
H1401 C1360 0.930 . S
H1402 C1361 0.930 . S
H1403 C1362 0.930 . S
H1404 C1366 0.929 . S
H1405 C1368 0.930 . S
H1406 C1374 0.929 . S
H1407 C1375 0.930 . S
Li1408 N1425 1.990 . S
Li1408 O1468 1.956 . S
Li1408 O1469 1.970 . S
Li1408 O1470 1.961 . S
Li1409 N1433 1.990 . S
Li1409 O1468 1.970 . S
Li1409 O1469 1.956 . S
Li1409 O1471 1.961 . S
Li1410 N1455 1.990 . S
Li1410 O1468 1.961 . S
Li1410 O1470 1.956 . S
Li1410 O1471 1.970 . S
Li1411 N1461 1.990 . S
Li1411 O1469 1.961 . S
Li1411 O1470 1.970 . S
Li1411 O1471 1.956 . S
C1412 C1414 1.348 . S
C1412 C1415 1.356 . S
C1412 O1468 1.325 . S
N1413 C1416 1.314 . S
N1413 C1417 1.279 . S
C1414 C1412 1.348 . S
C1414 C1416 1.353 . S
C1414 H1472 0.929 . S
C1415 C1412 1.356 . S
C1415 C1417 1.358 . S
C1415 H1473 0.930 . S
C1416 N1413 1.314 . S
C1416 C1414 1.353 . S
C1416 H1474 0.930 . S
C1417 N1413 1.279 . S
C1417 C1415 1.358 . S
C1417 H1475 0.930 . S
C1418 C1421 1.348 . S
C1418 C1422 1.356 . S
C1418 O1469 1.325 . S
C1419 N1420 1.279 . S
C1419 C1422 1.358 . S
C1419 H1476 0.930 . S
N1420 C1419 1.279 . S
N1420 C1423 1.314 . S
C1421 C1418 1.348 . S
C1421 C1423 1.353 . S
C1421 H1477 0.929 . S
C1422 C1418 1.356 . S
C1422 C1419 1.358 . S
C1422 H1478 0.930 . S
C1423 N1420 1.314 . S
C1423 C1421 1.353 . S
C1423 H1479 0.930 . S
C1424 N1425 1.314 . S
C1424 C1429 1.353 . S
C1424 H1430 0.930 . S
N1425 Li1408 1.990 . S
N1425 C1424 1.314 . S
N1425 C1427 1.279 . S
C1426 C1427 1.358 . S
C1426 C1428 1.356 . S
C1426 H1480 0.930 . S
C1427 N1425 1.279 . S
C1427 C1426 1.358 . S
C1427 H1431 0.930 . S
C1428 C1426 1.356 . S
C1428 C1429 1.348 . S
C1429 C1424 1.353 . S
C1429 C1428 1.348 . S
C1429 H1481 0.929 . S
H1430 C1424 0.930 . S
H1431 C1427 0.930 . S
C1432 N1433 1.314 . S
C1432 C1434 1.353 . S
C1432 H1438 0.930 . S
N1433 Li1409 1.990 . S
N1433 C1432 1.314 . S
N1433 C1436 1.279 . S
C1434 C1432 1.353 . S
C1434 C1437 1.348 . S
C1434 H1482 0.929 . S
C1435 C1436 1.358 . S
C1435 C1437 1.356 . S
C1435 H1483 0.930 . S
C1436 N1433 1.279 . S
C1436 C1435 1.358 . S
C1436 H1439 0.930 . S
C1437 C1434 1.348 . S
C1437 C1435 1.356 . S
H1438 C1432 0.930 . S
H1439 C1436 0.930 . S
C1440 C1442 1.348 . S
C1440 C1443 1.356 . S
C1440 O1470 1.325 . S
N1441 C1444 1.314 . S
N1441 C1445 1.279 . S
C1442 C1440 1.348 . S
C1442 C1444 1.353 . S
C1442 H1484 0.929 . S
C1443 C1440 1.356 . S
C1443 C1445 1.358 . S
C1443 H1485 0.930 . S
C1444 N1441 1.314 . S
C1444 C1442 1.353 . S
C1444 H1486 0.930 . S
C1445 N1441 1.279 . S
C1445 C1443 1.358 . S
C1445 H1487 0.930 . S
C1446 C1447 1.348 . S
C1446 C1448 1.356 . S
C1446 O1471 1.325 . S
C1447 C1446 1.348 . S
C1447 C1449 1.353 . S
C1447 H1488 0.929 . S
C1448 C1446 1.356 . S
C1448 C1450 1.358 . S
C1448 H1489 0.930 . S
C1449 C1447 1.353 . S
C1449 N1451 1.314 . S
C1449 H1490 0.930 . S
C1450 C1448 1.358 . S
C1450 N1451 1.279 . S
C1450 H1491 0.930 . S
N1451 C1449 1.314 . S
N1451 C1450 1.279 . S
C1452 C1454 1.353 . S
C1452 N1455 1.314 . S
C1452 H1458 0.930 . S
C1453 N1455 1.279 . S
C1453 C1456 1.358 . S
C1453 H1459 0.930 . S
C1454 C1452 1.353 . S
C1454 C1457 1.348 . S
C1454 H1492 0.929 . S
N1455 Li1410 1.990 . S
N1455 C1452 1.314 . S
N1455 C1453 1.279 . S
C1456 C1453 1.358 . S
C1456 C1457 1.356 . S
C1456 H1493 0.930 . S
C1457 C1454 1.348 . S
C1457 C1456 1.356 . S
H1458 C1452 0.930 . S
H1459 C1453 0.930 . S
C1460 N1461 1.314 . S
C1460 C1462 1.353 . S
C1460 H1466 0.930 . S
N1461 Li1411 1.990 . S
N1461 C1460 1.314 . S
N1461 C1464 1.279 . S
C1462 C1460 1.353 . S
C1462 C1465 1.348 . S
C1462 H1494 0.929 . S
C1463 C1464 1.358 . S
C1463 C1465 1.356 . S
C1463 H1495 0.930 . S
C1464 N1461 1.279 . S
C1464 C1463 1.358 . S
C1464 H1467 0.930 . S
C1465 C1462 1.348 . S
C1465 C1463 1.356 . S
H1466 C1460 0.930 . S
H1467 C1464 0.930 . S
O1468 Li1408 1.956 . S
O1468 Li1409 1.970 . S
O1468 Li1410 1.961 . S
O1468 C1412 1.325 . S
O1469 Li1408 1.970 . S
O1469 Li1409 1.956 . S
O1469 Li1411 1.961 . S
O1469 C1418 1.325 . S
O1470 Li1408 1.961 . S
O1470 Li1410 1.956 . S
O1470 Li1411 1.970 . S
O1470 C1440 1.325 . S
O1471 Li1409 1.961 . S
O1471 Li1410 1.970 . S
O1471 Li1411 1.956 . S
O1471 C1446 1.325 . S
H1472 C1414 0.929 . S
H1473 C1415 0.930 . S
H1474 C1416 0.930 . S
H1475 C1417 0.930 . S
H1476 C1419 0.930 . S
H1477 C1421 0.929 . S
H1478 C1422 0.930 . S
H1479 C1423 0.930 . S
H1480 C1426 0.930 . S
H1481 C1429 0.929 . S
H1482 C1434 0.929 . S
H1483 C1435 0.930 . S
H1484 C1442 0.929 . S
H1485 C1443 0.930 . S
H1486 C1444 0.930 . S
H1487 C1445 0.930 . S
H1488 C1447 0.929 . S
H1489 C1448 0.930 . S
H1490 C1449 0.930 . S
H1491 C1450 0.930 . S
H1492 C1454 0.929 . S
H1493 C1456 0.930 . S
H1494 C1462 0.929 . S
H1495 C1463 0.930 . S
Li1496 N1513 1.990 . S
Li1496 O1556 1.956 . S
Li1496 O1557 1.970 . S
Li1496 O1558 1.961 . S
Li1497 N1521 1.990 . S
Li1497 O1556 1.970 . S
Li1497 O1557 1.956 . S
Li1497 O1559 1.961 . S
Li1498 N1543 1.990 . S
Li1498 O1556 1.961 . S
Li1498 O1558 1.956 . S
Li1498 O1559 1.970 . S
Li1499 N1549 1.990 . S
Li1499 O1557 1.961 . S
Li1499 O1558 1.970 . S
Li1499 O1559 1.956 . S
C1500 C1502 1.348 . S
C1500 C1503 1.356 . S
C1500 O1556 1.325 . S
N1501 C1504 1.314 . S
N1501 C1505 1.279 . S
C1502 C1500 1.348 . S
C1502 C1504 1.353 . S
C1502 H1560 0.929 . S
C1503 C1500 1.356 . S
C1503 C1505 1.358 . S
C1503 H1561 0.930 . S
C1504 N1501 1.314 . S
C1504 C1502 1.353 . S
C1504 H1562 0.930 . S
C1505 N1501 1.279 . S
C1505 C1503 1.358 . S
C1505 H1563 0.930 . S
C1506 C1509 1.348 . S
C1506 C1510 1.356 . S
C1506 O1557 1.325 . S
C1507 N1508 1.279 . S
C1507 C1510 1.358 . S
C1507 H1564 0.930 . S
N1508 C1507 1.279 . S
N1508 C1511 1.314 . S
C1509 C1506 1.348 . S
C1509 C1511 1.353 . S
C1509 H1565 0.929 . S
C1510 C1506 1.356 . S
C1510 C1507 1.358 . S
C1510 H1566 0.930 . S
C1511 N1508 1.314 . S
C1511 C1509 1.353 . S
C1511 H1567 0.930 . S
C1512 N1513 1.314 . S
C1512 C1517 1.353 . S
C1512 H1518 0.930 . S
N1513 Li1496 1.990 . S
N1513 C1512 1.314 . S
N1513 C1515 1.279 . S
C1514 C1515 1.358 . S
C1514 C1516 1.356 . S
C1514 H1568 0.930 . S
C1515 N1513 1.279 . S
C1515 C1514 1.358 . S
C1515 H1519 0.930 . S
C1516 C1514 1.356 . S
C1516 C1517 1.348 . S
C1517 C1512 1.353 . S
C1517 C1516 1.348 . S
C1517 H1569 0.929 . S
H1518 C1512 0.930 . S
H1519 C1515 0.930 . S
C1520 N1521 1.314 . S
C1520 C1522 1.353 . S
C1520 H1526 0.930 . S
N1521 Li1497 1.990 . S
N1521 C1520 1.314 . S
N1521 C1524 1.279 . S
C1522 C1520 1.353 . S
C1522 C1525 1.348 . S
C1522 H1570 0.929 . S
C1523 C1524 1.358 . S
C1523 C1525 1.356 . S
C1523 H1571 0.930 . S
C1524 N1521 1.279 . S
C1524 C1523 1.358 . S
C1524 H1527 0.930 . S
C1525 C1522 1.348 . S
C1525 C1523 1.356 . S
H1526 C1520 0.930 . S
H1527 C1524 0.930 . S
C1528 C1530 1.348 . S
C1528 C1531 1.356 . S
C1528 O1558 1.325 . S
N1529 C1532 1.314 . S
N1529 C1533 1.279 . S
C1530 C1528 1.348 . S
C1530 C1532 1.353 . S
C1530 H1572 0.929 . S
C1531 C1528 1.356 . S
C1531 C1533 1.358 . S
C1531 H1573 0.930 . S
C1532 N1529 1.314 . S
C1532 C1530 1.353 . S
C1532 H1574 0.930 . S
C1533 N1529 1.279 . S
C1533 C1531 1.358 . S
C1533 H1575 0.930 . S
C1534 C1535 1.348 . S
C1534 C1536 1.356 . S
C1534 O1559 1.325 . S
C1535 C1534 1.348 . S
C1535 C1537 1.353 . S
C1535 H1576 0.929 . S
C1536 C1534 1.356 . S
C1536 C1538 1.358 . S
C1536 H1577 0.930 . S
C1537 C1535 1.353 . S
C1537 N1539 1.314 . S
C1537 H1578 0.930 . S
C1538 C1536 1.358 . S
C1538 N1539 1.279 . S
C1538 H1579 0.930 . S
N1539 C1537 1.314 . S
N1539 C1538 1.279 . S
C1540 C1542 1.353 . S
C1540 N1543 1.314 . S
C1540 H1546 0.930 . S
C1541 N1543 1.279 . S
C1541 C1544 1.358 . S
C1541 H1547 0.930 . S
C1542 C1540 1.353 . S
C1542 C1545 1.348 . S
C1542 H1580 0.929 . S
N1543 Li1498 1.990 . S
N1543 C1540 1.314 . S
N1543 C1541 1.279 . S
C1544 C1541 1.358 . S
C1544 C1545 1.356 . S
C1544 H1581 0.930 . S
C1545 C1542 1.348 . S
C1545 C1544 1.356 . S
H1546 C1540 0.930 . S
H1547 C1541 0.930 . S
C1548 N1549 1.314 . S
C1548 C1550 1.353 . S
C1548 H1554 0.930 . S
N1549 Li1499 1.990 . S
N1549 C1548 1.314 . S
N1549 C1552 1.279 . S
C1550 C1548 1.353 . S
C1550 C1553 1.348 . S
C1550 H1582 0.929 . S
C1551 C1552 1.358 . S
C1551 C1553 1.356 . S
C1551 H1583 0.930 . S
C1552 N1549 1.279 . S
C1552 C1551 1.358 . S
C1552 H1555 0.930 . S
C1553 C1550 1.348 . S
C1553 C1551 1.356 . S
H1554 C1548 0.930 . S
H1555 C1552 0.930 . S
O1556 Li1496 1.956 . S
O1556 Li1497 1.970 . S
O1556 Li1498 1.961 . S
O1556 C1500 1.325 . S
O1557 Li1496 1.970 . S
O1557 Li1497 1.956 . S
O1557 Li1499 1.961 . S
O1557 C1506 1.325 . S
O1558 Li1496 1.961 . S
O1558 Li1498 1.956 . S
O1558 Li1499 1.970 . S
O1558 C1528 1.325 . S
O1559 Li1497 1.961 . S
O1559 Li1498 1.970 . S
O1559 Li1499 1.956 . S
O1559 C1534 1.325 . S
H1560 C1502 0.929 . S
H1561 C1503 0.930 . S
H1562 C1504 0.930 . S
H1563 C1505 0.930 . S
H1564 C1507 0.930 . S
H1565 C1509 0.929 . S
H1566 C1510 0.930 . S
H1567 C1511 0.930 . S
H1568 C1514 0.930 . S
H1569 C1517 0.929 . S
H1570 C1522 0.929 . S
H1571 C1523 0.930 . S
H1572 C1530 0.929 . S
H1573 C1531 0.930 . S
H1574 C1532 0.930 . S
H1575 C1533 0.930 . S
H1576 C1535 0.929 . S
H1577 C1536 0.930 . S
H1578 C1537 0.930 . S
H1579 C1538 0.930 . S
H1580 C1542 0.929 . S
H1581 C1544 0.930 . S
H1582 C1550 0.929 . S
H1583 C1551 0.930 . S
Li1584 N1601 1.990 . S
Li1584 O1644 1.956 . S
Li1584 O1645 1.970 . S
Li1584 O1646 1.961 . S
Li1585 N1609 1.990 . S
Li1585 O1644 1.970 . S
Li1585 O1645 1.956 . S
Li1585 O1647 1.961 . S
Li1586 N1631 1.990 . S
Li1586 O1644 1.961 . S
Li1586 O1646 1.956 . S
Li1586 O1647 1.970 . S
Li1587 N1637 1.990 . S
Li1587 O1645 1.961 . S
Li1587 O1646 1.970 . S
Li1587 O1647 1.956 . S
C1588 C1590 1.348 . S
C1588 C1591 1.356 . S
C1588 O1644 1.325 . S
N1589 C1592 1.314 . S
N1589 C1593 1.279 . S
C1590 C1588 1.348 . S
C1590 C1592 1.353 . S
C1590 H1648 0.929 . S
C1591 C1588 1.356 . S
C1591 C1593 1.358 . S
C1591 H1649 0.930 . S
C1592 N1589 1.314 . S
C1592 C1590 1.353 . S
C1592 H1650 0.930 . S
C1593 N1589 1.279 . S
C1593 C1591 1.358 . S
C1593 H1651 0.930 . S
C1594 C1597 1.348 . S
C1594 C1598 1.356 . S
C1594 O1645 1.325 . S
C1595 N1596 1.279 . S
C1595 C1598 1.358 . S
C1595 H1652 0.930 . S
N1596 C1595 1.279 . S
N1596 C1599 1.314 . S
C1597 C1594 1.348 . S
C1597 C1599 1.353 . S
C1597 H1653 0.929 . S
C1598 C1594 1.356 . S
C1598 C1595 1.358 . S
C1598 H1654 0.930 . S
C1599 N1596 1.314 . S
C1599 C1597 1.353 . S
C1599 H1655 0.930 . S
C1600 N1601 1.314 . S
C1600 C1605 1.353 . S
C1600 H1606 0.930 . S
N1601 Li1584 1.990 . S
N1601 C1600 1.314 . S
N1601 C1603 1.279 . S
C1602 C1603 1.358 . S
C1602 C1604 1.356 . S
C1602 H1656 0.930 . S
C1603 N1601 1.279 . S
C1603 C1602 1.358 . S
C1603 H1607 0.930 . S
C1604 C1602 1.356 . S
C1604 C1605 1.348 . S
C1605 C1600 1.353 . S
C1605 C1604 1.348 . S
C1605 H1657 0.929 . S
H1606 C1600 0.930 . S
H1607 C1603 0.930 . S
C1608 N1609 1.314 . S
C1608 C1610 1.353 . S
C1608 H1614 0.930 . S
N1609 Li1585 1.990 . S
N1609 C1608 1.314 . S
N1609 C1612 1.279 . S
C1610 C1608 1.353 . S
C1610 C1613 1.348 . S
C1610 H1658 0.929 . S
C1611 C1612 1.358 . S
C1611 C1613 1.356 . S
C1611 H1659 0.930 . S
C1612 N1609 1.279 . S
C1612 C1611 1.358 . S
C1612 H1615 0.930 . S
C1613 C1610 1.348 . S
C1613 C1611 1.356 . S
H1614 C1608 0.930 . S
H1615 C1612 0.930 . S
C1616 C1618 1.348 . S
C1616 C1619 1.356 . S
C1616 O1646 1.325 . S
N1617 C1620 1.314 . S
N1617 C1621 1.279 . S
C1618 C1616 1.348 . S
C1618 C1620 1.353 . S
C1618 H1660 0.929 . S
C1619 C1616 1.356 . S
C1619 C1621 1.358 . S
C1619 H1661 0.930 . S
C1620 N1617 1.314 . S
C1620 C1618 1.353 . S
C1620 H1662 0.930 . S
C1621 N1617 1.279 . S
C1621 C1619 1.358 . S
C1621 H1663 0.930 . S
C1622 C1623 1.348 . S
C1622 C1624 1.356 . S
C1622 O1647 1.325 . S
C1623 C1622 1.348 . S
C1623 C1625 1.353 . S
C1623 H1664 0.929 . S
C1624 C1622 1.356 . S
C1624 C1626 1.358 . S
C1624 H1665 0.930 . S
C1625 C1623 1.353 . S
C1625 N1627 1.314 . S
C1625 H1666 0.930 . S
C1626 C1624 1.358 . S
C1626 N1627 1.279 . S
C1626 H1667 0.930 . S
N1627 C1625 1.314 . S
N1627 C1626 1.279 . S
C1628 C1630 1.353 . S
C1628 N1631 1.314 . S
C1628 H1634 0.930 . S
C1629 N1631 1.279 . S
C1629 C1632 1.358 . S
C1629 H1635 0.930 . S
C1630 C1628 1.353 . S
C1630 C1633 1.348 . S
C1630 H1668 0.929 . S
N1631 Li1586 1.990 . S
N1631 C1628 1.314 . S
N1631 C1629 1.279 . S
C1632 C1629 1.358 . S
C1632 C1633 1.356 . S
C1632 H1669 0.930 . S
C1633 C1630 1.348 . S
C1633 C1632 1.356 . S
H1634 C1628 0.930 . S
H1635 C1629 0.930 . S
C1636 N1637 1.314 . S
C1636 C1638 1.353 . S
C1636 H1642 0.930 . S
N1637 Li1587 1.990 . S
N1637 C1636 1.314 . S
N1637 C1640 1.279 . S
C1638 C1636 1.353 . S
C1638 C1641 1.348 . S
C1638 H1670 0.929 . S
C1639 C1640 1.358 . S
C1639 C1641 1.356 . S
C1639 H1671 0.930 . S
C1640 N1637 1.279 . S
C1640 C1639 1.358 . S
C1640 H1643 0.930 . S
C1641 C1638 1.348 . S
C1641 C1639 1.356 . S
H1642 C1636 0.930 . S
H1643 C1640 0.930 . S
O1644 Li1584 1.956 . S
O1644 Li1585 1.970 . S
O1644 Li1586 1.961 . S
O1644 C1588 1.325 . S
O1645 Li1584 1.970 . S
O1645 Li1585 1.956 . S
O1645 Li1587 1.961 . S
O1645 C1594 1.325 . S
O1646 Li1584 1.961 . S
O1646 Li1586 1.956 . S
O1646 Li1587 1.970 . S
O1646 C1616 1.325 . S
O1647 Li1585 1.961 . S
O1647 Li1586 1.970 . S
O1647 Li1587 1.956 . S
O1647 C1622 1.325 . S
H1648 C1590 0.929 . S
H1649 C1591 0.930 . S
H1650 C1592 0.930 . S
H1651 C1593 0.930 . S
H1652 C1595 0.930 . S
H1653 C1597 0.929 . S
H1654 C1598 0.930 . S
H1655 C1599 0.930 . S
H1656 C1602 0.930 . S
H1657 C1605 0.929 . S
H1658 C1610 0.929 . S
H1659 C1611 0.930 . S
H1660 C1618 0.929 . S
H1661 C1619 0.930 . S
H1662 C1620 0.930 . S
H1663 C1621 0.930 . S
H1664 C1623 0.929 . S
H1665 C1624 0.930 . S
H1666 C1625 0.930 . S
H1667 C1626 0.930 . S
H1668 C1630 0.929 . S
H1669 C1632 0.930 . S
H1670 C1638 0.929 . S
H1671 C1639 0.930 . S
Li1672 N1689 1.990 . S
Li1672 O1732 1.956 . S
Li1672 O1733 1.970 . S
Li1672 O1734 1.961 . S
Li1673 N1697 1.990 . S
Li1673 O1732 1.970 . S
Li1673 O1733 1.956 . S
Li1673 O1735 1.961 . S
Li1674 N1719 1.990 . S
Li1674 O1732 1.961 . S
Li1674 O1734 1.956 . S
Li1674 O1735 1.970 . S
Li1675 N1725 1.990 . S
Li1675 O1733 1.961 . S
Li1675 O1734 1.970 . S
Li1675 O1735 1.956 . S
C1676 C1678 1.348 . S
C1676 C1679 1.356 . S
C1676 O1732 1.325 . S
N1677 C1680 1.314 . S
N1677 C1681 1.279 . S
C1678 C1676 1.348 . S
C1678 C1680 1.353 . S
C1678 H1736 0.929 . S
C1679 C1676 1.356 . S
C1679 C1681 1.358 . S
C1679 H1737 0.930 . S
C1680 N1677 1.314 . S
C1680 C1678 1.353 . S
C1680 H1738 0.930 . S
C1681 N1677 1.279 . S
C1681 C1679 1.358 . S
C1681 H1739 0.930 . S
C1682 C1685 1.348 . S
C1682 C1686 1.356 . S
C1682 O1733 1.325 . S
C1683 N1684 1.279 . S
C1683 C1686 1.358 . S
C1683 H1740 0.930 . S
N1684 C1683 1.279 . S
N1684 C1687 1.314 . S
C1685 C1682 1.348 . S
C1685 C1687 1.353 . S
C1685 H1741 0.929 . S
C1686 C1682 1.356 . S
C1686 C1683 1.358 . S
C1686 H1742 0.930 . S
C1687 N1684 1.314 . S
C1687 C1685 1.353 . S
C1687 H1743 0.930 . S
C1688 N1689 1.314 . S
C1688 C1693 1.353 . S
C1688 H1694 0.930 . S
N1689 Li1672 1.990 . S
N1689 C1688 1.314 . S
N1689 C1691 1.279 . S
C1690 C1691 1.358 . S
C1690 C1692 1.356 . S
C1690 H1744 0.930 . S
C1691 N1689 1.279 . S
C1691 C1690 1.358 . S
C1691 H1695 0.930 . S
C1692 C1690 1.356 . S
C1692 C1693 1.348 . S
C1693 C1688 1.353 . S
C1693 C1692 1.348 . S
C1693 H1745 0.929 . S
H1694 C1688 0.930 . S
H1695 C1691 0.930 . S
C1696 N1697 1.314 . S
C1696 C1698 1.353 . S
C1696 H1702 0.930 . S
N1697 Li1673 1.990 . S
N1697 C1696 1.314 . S
N1697 C1700 1.279 . S
C1698 C1696 1.353 . S
C1698 C1701 1.348 . S
C1698 H1746 0.929 . S
C1699 C1700 1.358 . S
C1699 C1701 1.356 . S
C1699 H1747 0.930 . S
C1700 N1697 1.279 . S
C1700 C1699 1.358 . S
C1700 H1703 0.930 . S
C1701 C1698 1.348 . S
C1701 C1699 1.356 . S
H1702 C1696 0.930 . S
H1703 C1700 0.930 . S
C1704 C1706 1.348 . S
C1704 C1707 1.356 . S
C1704 O1734 1.325 . S
N1705 C1708 1.314 . S
N1705 C1709 1.279 . S
C1706 C1704 1.348 . S
C1706 C1708 1.353 . S
C1706 H1748 0.929 . S
C1707 C1704 1.356 . S
C1707 C1709 1.358 . S
C1707 H1749 0.930 . S
C1708 N1705 1.314 . S
C1708 C1706 1.353 . S
C1708 H1750 0.930 . S
C1709 N1705 1.279 . S
C1709 C1707 1.358 . S
C1709 H1751 0.930 . S
C1710 C1711 1.348 . S
C1710 C1712 1.356 . S
C1710 O1735 1.325 . S
C1711 C1710 1.348 . S
C1711 C1713 1.353 . S
C1711 H1752 0.929 . S
C1712 C1710 1.356 . S
C1712 C1714 1.358 . S
C1712 H1753 0.930 . S
C1713 C1711 1.353 . S
C1713 N1715 1.314 . S
C1713 H1754 0.930 . S
C1714 C1712 1.358 . S
C1714 N1715 1.279 . S
C1714 H1755 0.930 . S
N1715 C1713 1.314 . S
N1715 C1714 1.279 . S
C1716 C1718 1.353 . S
C1716 N1719 1.314 . S
C1716 H1722 0.930 . S
C1717 N1719 1.279 . S
C1717 C1720 1.358 . S
C1717 H1723 0.930 . S
C1718 C1716 1.353 . S
C1718 C1721 1.348 . S
C1718 H1756 0.929 . S
N1719 Li1674 1.990 . S
N1719 C1716 1.314 . S
N1719 C1717 1.279 . S
C1720 C1717 1.358 . S
C1720 C1721 1.356 . S
C1720 H1757 0.930 . S
C1721 C1718 1.348 . S
C1721 C1720 1.356 . S
H1722 C1716 0.930 . S
H1723 C1717 0.930 . S
C1724 N1725 1.314 . S
C1724 C1726 1.353 . S
C1724 H1730 0.930 . S
N1725 Li1675 1.990 . S
N1725 C1724 1.314 . S
N1725 C1728 1.279 . S
C1726 C1724 1.353 . S
C1726 C1729 1.348 . S
C1726 H1758 0.929 . S
C1727 C1728 1.358 . S
C1727 C1729 1.356 . S
C1727 H1759 0.930 . S
C1728 N1725 1.279 . S
C1728 C1727 1.358 . S
C1728 H1731 0.930 . S
C1729 C1726 1.348 . S
C1729 C1727 1.356 . S
H1730 C1724 0.930 . S
H1731 C1728 0.930 . S
O1732 Li1672 1.956 . S
O1732 Li1673 1.970 . S
O1732 Li1674 1.961 . S
O1732 C1676 1.325 . S
O1733 Li1672 1.970 . S
O1733 Li1673 1.956 . S
O1733 Li1675 1.961 . S
O1733 C1682 1.325 . S
O1734 Li1672 1.961 . S
O1734 Li1674 1.956 . S
O1734 Li1675 1.970 . S
O1734 C1704 1.325 . S
O1735 Li1673 1.961 . S
O1735 Li1674 1.970 . S
O1735 Li1675 1.956 . S
O1735 C1710 1.325 . S
H1736 C1678 0.929 . S
H1737 C1679 0.930 . S
H1738 C1680 0.930 . S
H1739 C1681 0.930 . S
H1740 C1683 0.930 . S
H1741 C1685 0.929 . S
H1742 C1686 0.930 . S
H1743 C1687 0.930 . S
H1744 C1690 0.930 . S
H1745 C1693 0.929 . S
H1746 C1698 0.929 . S
H1747 C1699 0.930 . S
H1748 C1706 0.929 . S
H1749 C1707 0.930 . S
H1750 C1708 0.930 . S
H1751 C1709 0.930 . S
H1752 C1711 0.929 . S
H1753 C1712 0.930 . S
H1754 C1713 0.930 . S
H1755 C1714 0.930 . S
H1756 C1718 0.929 . S
H1757 C1720 0.930 . S
H1758 C1726 0.929 . S
H1759 C1727 0.930 . S
Li1760 N1777 1.990 . S
Li1760 O1820 1.956 . S
Li1760 O1821 1.970 . S
Li1760 O1822 1.961 . S
Li1761 N1785 1.990 . S
Li1761 O1820 1.970 . S
Li1761 O1821 1.956 . S
Li1761 O1823 1.961 . S
Li1762 N1807 1.990 . S
Li1762 O1820 1.961 . S
Li1762 O1822 1.956 . S
Li1762 O1823 1.970 . S
Li1763 N1813 1.990 . S
Li1763 O1821 1.961 . S
Li1763 O1822 1.970 . S
Li1763 O1823 1.956 . S
C1764 C1766 1.348 . S
C1764 C1767 1.356 . S
C1764 O1820 1.325 . S
N1765 C1768 1.314 . S
N1765 C1769 1.279 . S
C1766 C1764 1.348 . S
C1766 C1768 1.353 . S
C1766 H1824 0.929 . S
C1767 C1764 1.356 . S
C1767 C1769 1.358 . S
C1767 H1825 0.930 . S
C1768 N1765 1.314 . S
C1768 C1766 1.353 . S
C1768 H1826 0.930 . S
C1769 N1765 1.279 . S
C1769 C1767 1.358 . S
C1769 H1827 0.930 . S
C1770 C1773 1.348 . S
C1770 C1774 1.356 . S
C1770 O1821 1.325 . S
C1771 N1772 1.279 . S
C1771 C1774 1.358 . S
C1771 H1828 0.930 . S
N1772 C1771 1.279 . S
N1772 C1775 1.314 . S
C1773 C1770 1.348 . S
C1773 C1775 1.353 . S
C1773 H1829 0.929 . S
C1774 C1770 1.356 . S
C1774 C1771 1.358 . S
C1774 H1830 0.930 . S
C1775 N1772 1.314 . S
C1775 C1773 1.353 . S
C1775 H1831 0.930 . S
C1776 N1777 1.314 . S
C1776 C1781 1.353 . S
C1776 H1782 0.930 . S
N1777 Li1760 1.990 . S
N1777 C1776 1.314 . S
N1777 C1779 1.279 . S
C1778 C1779 1.358 . S
C1778 C1780 1.356 . S
C1778 H1832 0.930 . S
C1779 N1777 1.279 . S
C1779 C1778 1.358 . S
C1779 H1783 0.930 . S
C1780 C1778 1.356 . S
C1780 C1781 1.348 . S
C1781 C1776 1.353 . S
C1781 C1780 1.348 . S
C1781 H1833 0.929 . S
H1782 C1776 0.930 . S
H1783 C1779 0.930 . S
C1784 N1785 1.314 . S
C1784 C1786 1.353 . S
C1784 H1790 0.930 . S
N1785 Li1761 1.990 . S
N1785 C1784 1.314 . S
N1785 C1788 1.279 . S
C1786 C1784 1.353 . S
C1786 C1789 1.348 . S
C1786 H1834 0.929 . S
C1787 C1788 1.358 . S
C1787 C1789 1.356 . S
C1787 H1835 0.930 . S
C1788 N1785 1.279 . S
C1788 C1787 1.358 . S
C1788 H1791 0.930 . S
C1789 C1786 1.348 . S
C1789 C1787 1.356 . S
H1790 C1784 0.930 . S
H1791 C1788 0.930 . S
C1792 C1794 1.348 . S
C1792 C1795 1.356 . S
C1792 O1822 1.325 . S
N1793 C1796 1.314 . S
N1793 C1797 1.279 . S
C1794 C1792 1.348 . S
C1794 C1796 1.353 . S
C1794 H1836 0.929 . S
C1795 C1792 1.356 . S
C1795 C1797 1.358 . S
C1795 H1837 0.930 . S
C1796 N1793 1.314 . S
C1796 C1794 1.353 . S
C1796 H1838 0.930 . S
C1797 N1793 1.279 . S
C1797 C1795 1.358 . S
C1797 H1839 0.930 . S
C1798 C1799 1.348 . S
C1798 C1800 1.356 . S
C1798 O1823 1.325 . S
C1799 C1798 1.348 . S
C1799 C1801 1.353 . S
C1799 H1840 0.929 . S
C1800 C1798 1.356 . S
C1800 C1802 1.358 . S
C1800 H1841 0.930 . S
C1801 C1799 1.353 . S
C1801 N1803 1.314 . S
C1801 H1842 0.930 . S
C1802 C1800 1.358 . S
C1802 N1803 1.279 . S
C1802 H1843 0.930 . S
N1803 C1801 1.314 . S
N1803 C1802 1.279 . S
C1804 C1806 1.353 . S
C1804 N1807 1.314 . S
C1804 H1810 0.930 . S
C1805 N1807 1.279 . S
C1805 C1808 1.358 . S
C1805 H1811 0.930 . S
C1806 C1804 1.353 . S
C1806 C1809 1.348 . S
C1806 H1844 0.929 . S
N1807 Li1762 1.990 . S
N1807 C1804 1.314 . S
N1807 C1805 1.279 . S
C1808 C1805 1.358 . S
C1808 C1809 1.356 . S
C1808 H1845 0.930 . S
C1809 C1806 1.348 . S
C1809 C1808 1.356 . S
H1810 C1804 0.930 . S
H1811 C1805 0.930 . S
C1812 N1813 1.314 . S
C1812 C1814 1.353 . S
C1812 H1818 0.930 . S
N1813 Li1763 1.990 . S
N1813 C1812 1.314 . S
N1813 C1816 1.279 . S
C1814 C1812 1.353 . S
C1814 C1817 1.348 . S
C1814 H1846 0.929 . S
C1815 C1816 1.358 . S
C1815 C1817 1.356 . S
C1815 H1847 0.930 . S
C1816 N1813 1.279 . S
C1816 C1815 1.358 . S
C1816 H1819 0.930 . S
C1817 C1814 1.348 . S
C1817 C1815 1.356 . S
H1818 C1812 0.930 . S
H1819 C1816 0.930 . S
O1820 Li1760 1.956 . S
O1820 Li1761 1.970 . S
O1820 Li1762 1.961 . S
O1820 C1764 1.325 . S
O1821 Li1760 1.970 . S
O1821 Li1761 1.956 . S
O1821 Li1763 1.961 . S
O1821 C1770 1.325 . S
O1822 Li1760 1.961 . S
O1822 Li1762 1.956 . S
O1822 Li1763 1.970 . S
O1822 C1792 1.325 . S
O1823 Li1761 1.961 . S
O1823 Li1762 1.970 . S
O1823 Li1763 1.956 . S
O1823 C1798 1.325 . S
H1824 C1766 0.929 . S
H1825 C1767 0.930 . S
H1826 C1768 0.930 . S
H1827 C1769 0.930 . S
H1828 C1771 0.930 . S
H1829 C1773 0.929 . S
H1830 C1774 0.930 . S
H1831 C1775 0.930 . S
H1832 C1778 0.930 . S
H1833 C1781 0.929 . S
H1834 C1786 0.929 . S
H1835 C1787 0.930 . S
H1836 C1794 0.929 . S
H1837 C1795 0.930 . S
H1838 C1796 0.930 . S
H1839 C1797 0.930 . S
H1840 C1799 0.929 . S
H1841 C1800 0.930 . S
H1842 C1801 0.930 . S
H1843 C1802 0.930 . S
H1844 C1806 0.929 . S
H1845 C1808 0.930 . S
H1846 C1814 0.929 . S
H1847 C1815 0.930 . S
Li1848 N1865 1.990 . S
Li1848 O1908 1.956 . S
Li1848 O1909 1.970 . S
Li1848 O1910 1.961 . S
Li1849 N1873 1.990 . S
Li1849 O1908 1.970 . S
Li1849 O1909 1.956 . S
Li1849 O1911 1.961 . S
Li1850 N1895 1.990 . S
Li1850 O1908 1.961 . S
Li1850 O1910 1.956 . S
Li1850 O1911 1.970 . S
Li1851 N1901 1.990 . S
Li1851 O1909 1.961 . S
Li1851 O1910 1.970 . S
Li1851 O1911 1.956 . S
C1852 C1854 1.348 . S
C1852 C1855 1.356 . S
C1852 O1908 1.325 . S
N1853 C1856 1.314 . S
N1853 C1857 1.279 . S
C1854 C1852 1.348 . S
C1854 C1856 1.353 . S
C1854 H1912 0.929 . S
C1855 C1852 1.356 . S
C1855 C1857 1.358 . S
C1855 H1913 0.930 . S
C1856 N1853 1.314 . S
C1856 C1854 1.353 . S
C1856 H1914 0.930 . S
C1857 N1853 1.279 . S
C1857 C1855 1.358 . S
C1857 H1915 0.930 . S
C1858 C1861 1.348 . S
C1858 C1862 1.356 . S
C1858 O1909 1.325 . S
C1859 N1860 1.279 . S
C1859 C1862 1.358 . S
C1859 H1916 0.930 . S
N1860 C1859 1.279 . S
N1860 C1863 1.314 . S
C1861 C1858 1.348 . S
C1861 C1863 1.353 . S
C1861 H1917 0.929 . S
C1862 C1858 1.356 . S
C1862 C1859 1.358 . S
C1862 H1918 0.930 . S
C1863 N1860 1.314 . S
C1863 C1861 1.353 . S
C1863 H1919 0.930 . S
C1864 N1865 1.314 . S
C1864 C1869 1.353 . S
C1864 H1870 0.930 . S
N1865 Li1848 1.990 . S
N1865 C1864 1.314 . S
N1865 C1867 1.279 . S
C1866 C1867 1.358 . S
C1866 C1868 1.356 . S
C1866 H1920 0.930 . S
C1867 N1865 1.279 . S
C1867 C1866 1.358 . S
C1867 H1871 0.930 . S
C1868 C1866 1.356 . S
C1868 C1869 1.348 . S
C1869 C1864 1.353 . S
C1869 C1868 1.348 . S
C1869 H1921 0.929 . S
H1870 C1864 0.930 . S
H1871 C1867 0.930 . S
C1872 N1873 1.314 . S
C1872 C1874 1.353 . S
C1872 H1878 0.930 . S
N1873 Li1849 1.990 . S
N1873 C1872 1.314 . S
N1873 C1876 1.279 . S
C1874 C1872 1.353 . S
C1874 C1877 1.348 . S
C1874 H1922 0.929 . S
C1875 C1876 1.358 . S
C1875 C1877 1.356 . S
C1875 H1923 0.930 . S
C1876 N1873 1.279 . S
C1876 C1875 1.358 . S
C1876 H1879 0.930 . S
C1877 C1874 1.348 . S
C1877 C1875 1.356 . S
H1878 C1872 0.930 . S
H1879 C1876 0.930 . S
C1880 C1882 1.348 . S
C1880 C1883 1.356 . S
C1880 O1910 1.325 . S
N1881 C1884 1.314 . S
N1881 C1885 1.279 . S
C1882 C1880 1.348 . S
C1882 C1884 1.353 . S
C1882 H1924 0.929 . S
C1883 C1880 1.356 . S
C1883 C1885 1.358 . S
C1883 H1925 0.930 . S
C1884 N1881 1.314 . S
C1884 C1882 1.353 . S
C1884 H1926 0.930 . S
C1885 N1881 1.279 . S
C1885 C1883 1.358 . S
C1885 H1927 0.930 . S
C1886 C1887 1.348 . S
C1886 C1888 1.356 . S
C1886 O1911 1.325 . S
C1887 C1886 1.348 . S
C1887 C1889 1.353 . S
C1887 H1928 0.929 . S
C1888 C1886 1.356 . S
C1888 C1890 1.358 . S
C1888 H1929 0.930 . S
C1889 C1887 1.353 . S
C1889 N1891 1.314 . S
C1889 H1930 0.930 . S
C1890 C1888 1.358 . S
C1890 N1891 1.279 . S
C1890 H1931 0.930 . S
N1891 C1889 1.314 . S
N1891 C1890 1.279 . S
C1892 C1894 1.353 . S
C1892 N1895 1.314 . S
C1892 H1898 0.930 . S
C1893 N1895 1.279 . S
C1893 C1896 1.358 . S
C1893 H1899 0.930 . S
C1894 C1892 1.353 . S
C1894 C1897 1.348 . S
C1894 H1932 0.929 . S
N1895 Li1850 1.990 . S
N1895 C1892 1.314 . S
N1895 C1893 1.279 . S
C1896 C1893 1.358 . S
C1896 C1897 1.356 . S
C1896 H1933 0.930 . S
C1897 C1894 1.348 . S
C1897 C1896 1.356 . S
H1898 C1892 0.930 . S
H1899 C1893 0.930 . S
C1900 N1901 1.314 . S
C1900 C1902 1.353 . S
C1900 H1906 0.930 . S
N1901 Li1851 1.990 . S
N1901 C1900 1.314 . S
N1901 C1904 1.279 . S
C1902 C1900 1.353 . S
C1902 C1905 1.348 . S
C1902 H1934 0.929 . S
C1903 C1904 1.358 . S
C1903 C1905 1.356 . S
C1903 H1935 0.930 . S
C1904 N1901 1.279 . S
C1904 C1903 1.358 . S
C1904 H1907 0.930 . S
C1905 C1902 1.348 . S
C1905 C1903 1.356 . S
H1906 C1900 0.930 . S
H1907 C1904 0.930 . S
O1908 Li1848 1.956 . S
O1908 Li1849 1.970 . S
O1908 Li1850 1.961 . S
O1908 C1852 1.325 . S
O1909 Li1848 1.970 . S
O1909 Li1849 1.956 . S
O1909 Li1851 1.961 . S
O1909 C1858 1.325 . S
O1910 Li1848 1.961 . S
O1910 Li1850 1.956 . S
O1910 Li1851 1.970 . S
O1910 C1880 1.325 . S
O1911 Li1849 1.961 . S
O1911 Li1850 1.970 . S
O1911 Li1851 1.956 . S
O1911 C1886 1.325 . S
H1912 C1854 0.929 . S
H1913 C1855 0.930 . S
H1914 C1856 0.930 . S
H1915 C1857 0.930 . S
H1916 C1859 0.930 . S
H1917 C1861 0.929 . S
H1918 C1862 0.930 . S
H1919 C1863 0.930 . S
H1920 C1866 0.930 . S
H1921 C1869 0.929 . S
H1922 C1874 0.929 . S
H1923 C1875 0.930 . S
H1924 C1882 0.929 . S
H1925 C1883 0.930 . S
H1926 C1884 0.930 . S
H1927 C1885 0.930 . S
H1928 C1887 0.929 . S
H1929 C1888 0.930 . S
H1930 C1889 0.930 . S
H1931 C1890 0.930 . S
H1932 C1894 0.929 . S
H1933 C1896 0.930 . S
H1934 C1902 0.929 . S
H1935 C1903 0.930 . S
Li1936 N1953 1.990 . S
Li1936 O1996 1.956 . S
Li1936 O1997 1.970 . S
Li1936 O1998 1.961 . S
Li1937 N1961 1.990 . S
Li1937 O1996 1.970 . S
Li1937 O1997 1.956 . S
Li1937 O1999 1.961 . S
Li1938 N1983 1.990 . S
Li1938 O1996 1.961 . S
Li1938 O1998 1.956 . S
Li1938 O1999 1.970 . S
Li1939 N1989 1.990 . S
Li1939 O1997 1.961 . S
Li1939 O1998 1.970 . S
Li1939 O1999 1.956 . S
C1940 C1942 1.348 . S
C1940 C1943 1.356 . S
C1940 O1996 1.325 . S
N1941 C1944 1.314 . S
N1941 C1945 1.279 . S
C1942 C1940 1.348 . S
C1942 C1944 1.353 . S
C1942 H2000 0.929 . S
C1943 C1940 1.356 . S
C1943 C1945 1.358 . S
C1943 H2001 0.930 . S
C1944 N1941 1.314 . S
C1944 C1942 1.353 . S
C1944 H2002 0.930 . S
C1945 N1941 1.279 . S
C1945 C1943 1.358 . S
C1945 H2003 0.930 . S
C1946 C1949 1.348 . S
C1946 C1950 1.356 . S
C1946 O1997 1.325 . S
C1947 N1948 1.279 . S
C1947 C1950 1.358 . S
C1947 H2004 0.930 . S
N1948 C1947 1.279 . S
N1948 C1951 1.314 . S
C1949 C1946 1.348 . S
C1949 C1951 1.353 . S
C1949 H2005 0.929 . S
C1950 C1946 1.356 . S
C1950 C1947 1.358 . S
C1950 H2006 0.930 . S
C1951 N1948 1.314 . S
C1951 C1949 1.353 . S
C1951 H2007 0.930 . S
C1952 N1953 1.314 . S
C1952 C1957 1.353 . S
C1952 H1958 0.930 . S
N1953 Li1936 1.990 . S
N1953 C1952 1.314 . S
N1953 C1955 1.279 . S
C1954 C1955 1.358 . S
C1954 C1956 1.356 . S
C1954 H2008 0.930 . S
C1955 N1953 1.279 . S
C1955 C1954 1.358 . S
C1955 H1959 0.930 . S
C1956 C1954 1.356 . S
C1956 C1957 1.348 . S
C1957 C1952 1.353 . S
C1957 C1956 1.348 . S
C1957 H2009 0.929 . S
H1958 C1952 0.930 . S
H1959 C1955 0.930 . S
C1960 N1961 1.314 . S
C1960 C1962 1.353 . S
C1960 H1966 0.930 . S
N1961 Li1937 1.990 . S
N1961 C1960 1.314 . S
N1961 C1964 1.279 . S
C1962 C1960 1.353 . S
C1962 C1965 1.348 . S
C1962 H2010 0.929 . S
C1963 C1964 1.358 . S
C1963 C1965 1.356 . S
C1963 H2011 0.930 . S
C1964 N1961 1.279 . S
C1964 C1963 1.358 . S
C1964 H1967 0.930 . S
C1965 C1962 1.348 . S
C1965 C1963 1.356 . S
H1966 C1960 0.930 . S
H1967 C1964 0.930 . S
C1968 C1970 1.348 . S
C1968 C1971 1.356 . S
C1968 O1998 1.325 . S
N1969 C1972 1.314 . S
N1969 C1973 1.279 . S
C1970 C1968 1.348 . S
C1970 C1972 1.353 . S
C1970 H2012 0.929 . S
C1971 C1968 1.356 . S
C1971 C1973 1.358 . S
C1971 H2013 0.930 . S
C1972 N1969 1.314 . S
C1972 C1970 1.353 . S
C1972 H2014 0.930 . S
C1973 N1969 1.279 . S
C1973 C1971 1.358 . S
C1973 H2015 0.930 . S
C1974 C1975 1.348 . S
C1974 C1976 1.356 . S
C1974 O1999 1.325 . S
C1975 C1974 1.348 . S
C1975 C1977 1.353 . S
C1975 H2016 0.929 . S
C1976 C1974 1.356 . S
C1976 C1978 1.358 . S
C1976 H2017 0.930 . S
C1977 C1975 1.353 . S
C1977 N1979 1.314 . S
C1977 H2018 0.930 . S
C1978 C1976 1.358 . S
C1978 N1979 1.279 . S
C1978 H2019 0.930 . S
N1979 C1977 1.314 . S
N1979 C1978 1.279 . S
C1980 C1982 1.353 . S
C1980 N1983 1.314 . S
C1980 H1986 0.930 . S
C1981 N1983 1.279 . S
C1981 C1984 1.358 . S
C1981 H1987 0.930 . S
C1982 C1980 1.353 . S
C1982 C1985 1.348 . S
C1982 H2020 0.929 . S
N1983 Li1938 1.990 . S
N1983 C1980 1.314 . S
N1983 C1981 1.279 . S
C1984 C1981 1.358 . S
C1984 C1985 1.356 . S
C1984 H2021 0.930 . S
C1985 C1982 1.348 . S
C1985 C1984 1.356 . S
H1986 C1980 0.930 . S
H1987 C1981 0.930 . S
C1988 N1989 1.314 . S
C1988 C1990 1.353 . S
C1988 H1994 0.930 . S
N1989 Li1939 1.990 . S
N1989 C1988 1.314 . S
N1989 C1992 1.279 . S
C1990 C1988 1.353 . S
C1990 C1993 1.348 . S
C1990 H2022 0.929 . S
C1991 C1992 1.358 . S
C1991 C1993 1.356 . S
C1991 H2023 0.930 . S
C1992 N1989 1.279 . S
C1992 C1991 1.358 . S
C1992 H1995 0.930 . S
C1993 C1990 1.348 . S
C1993 C1991 1.356 . S
H1994 C1988 0.930 . S
H1995 C1992 0.930 . S
O1996 Li1936 1.956 . S
O1996 Li1937 1.970 . S
O1996 Li1938 1.961 . S
O1996 C1940 1.325 . S
O1997 Li1936 1.970 . S
O1997 Li1937 1.956 . S
O1997 Li1939 1.961 . S
O1997 C1946 1.325 . S
O1998 Li1936 1.961 . S
O1998 Li1938 1.956 . S
O1998 Li1939 1.970 . S
O1998 C1968 1.325 . S
O1999 Li1937 1.961 . S
O1999 Li1938 1.970 . S
O1999 Li1939 1.956 . S
O1999 C1974 1.325 . S
H2000 C1942 0.929 . S
H2001 C1943 0.930 . S
H2002 C1944 0.930 . S
H2003 C1945 0.930 . S
H2004 C1947 0.930 . S
H2005 C1949 0.929 . S
H2006 C1950 0.930 . S
H2007 C1951 0.930 . S
H2008 C1954 0.930 . S
H2009 C1957 0.929 . S
H2010 C1962 0.929 . S
H2011 C1963 0.930 . S
H2012 C1970 0.929 . S
H2013 C1971 0.930 . S
H2014 C1972 0.930 . S
H2015 C1973 0.930 . S
H2016 C1975 0.929 . S
H2017 C1976 0.930 . S
H2018 C1977 0.930 . S
H2019 C1978 0.930 . S
H2020 C1982 0.929 . S
H2021 C1984 0.930 . S
H2022 C1990 0.929 . S
H2023 C1991 0.930 . S
Li2024 N2041 1.990 . S
Li2024 O2084 1.956 . S
Li2024 O2085 1.970 . S
Li2024 O2086 1.961 . S
Li2025 N2049 1.990 . S
Li2025 O2084 1.970 . S
Li2025 O2085 1.956 . S
Li2025 O2087 1.961 . S
Li2026 N2071 1.990 . S
Li2026 O2084 1.961 . S
Li2026 O2086 1.956 . S
Li2026 O2087 1.970 . S
Li2027 N2077 1.990 . S
Li2027 O2085 1.961 . S
Li2027 O2086 1.970 . S
Li2027 O2087 1.956 . S
C2028 C2030 1.348 . S
C2028 C2031 1.356 . S
C2028 O2084 1.325 . S
N2029 C2032 1.314 . S
N2029 C2033 1.279 . S
C2030 C2028 1.348 . S
C2030 C2032 1.353 . S
C2030 H2088 0.929 . S
C2031 C2028 1.356 . S
C2031 C2033 1.358 . S
C2031 H2089 0.930 . S
C2032 N2029 1.314 . S
C2032 C2030 1.353 . S
C2032 H2090 0.930 . S
C2033 N2029 1.279 . S
C2033 C2031 1.358 . S
C2033 H2091 0.930 . S
C2034 C2037 1.348 . S
C2034 C2038 1.356 . S
C2034 O2085 1.325 . S
C2035 N2036 1.279 . S
C2035 C2038 1.358 . S
C2035 H2092 0.930 . S
N2036 C2035 1.279 . S
N2036 C2039 1.314 . S
C2037 C2034 1.348 . S
C2037 C2039 1.353 . S
C2037 H2093 0.929 . S
C2038 C2034 1.356 . S
C2038 C2035 1.358 . S
C2038 H2094 0.930 . S
C2039 N2036 1.314 . S
C2039 C2037 1.353 . S
C2039 H2095 0.930 . S
C2040 N2041 1.314 . S
C2040 C2045 1.353 . S
C2040 H2046 0.930 . S
N2041 Li2024 1.990 . S
N2041 C2040 1.314 . S
N2041 C2043 1.279 . S
C2042 C2043 1.358 . S
C2042 C2044 1.356 . S
C2042 H2096 0.930 . S
C2043 N2041 1.279 . S
C2043 C2042 1.358 . S
C2043 H2047 0.930 . S
C2044 C2042 1.356 . S
C2044 C2045 1.348 . S
C2045 C2040 1.353 . S
C2045 C2044 1.348 . S
C2045 H2097 0.929 . S
H2046 C2040 0.930 . S
H2047 C2043 0.930 . S
C2048 N2049 1.314 . S
C2048 C2050 1.353 . S
C2048 H2054 0.930 . S
N2049 Li2025 1.990 . S
N2049 C2048 1.314 . S
N2049 C2052 1.279 . S
C2050 C2048 1.353 . S
C2050 C2053 1.348 . S
C2050 H2098 0.929 . S
C2051 C2052 1.358 . S
C2051 C2053 1.356 . S
C2051 H2099 0.930 . S
C2052 N2049 1.279 . S
C2052 C2051 1.358 . S
C2052 H2055 0.930 . S
C2053 C2050 1.348 . S
C2053 C2051 1.356 . S
H2054 C2048 0.930 . S
H2055 C2052 0.930 . S
C2056 C2058 1.348 . S
C2056 C2059 1.356 . S
C2056 O2086 1.325 . S
N2057 C2060 1.314 . S
N2057 C2061 1.279 . S
C2058 C2056 1.348 . S
C2058 C2060 1.353 . S
C2058 H2100 0.929 . S
C2059 C2056 1.356 . S
C2059 C2061 1.358 . S
C2059 H2101 0.930 . S
C2060 N2057 1.314 . S
C2060 C2058 1.353 . S
C2060 H2102 0.930 . S
C2061 N2057 1.279 . S
C2061 C2059 1.358 . S
C2061 H2103 0.930 . S
C2062 C2063 1.348 . S
C2062 C2064 1.356 . S
C2062 O2087 1.325 . S
C2063 C2062 1.348 . S
C2063 C2065 1.353 . S
C2063 H2104 0.929 . S
C2064 C2062 1.356 . S
C2064 C2066 1.358 . S
C2064 H2105 0.930 . S
C2065 C2063 1.353 . S
C2065 N2067 1.314 . S
C2065 H2106 0.930 . S
C2066 C2064 1.358 . S
C2066 N2067 1.279 . S
C2066 H2107 0.930 . S
N2067 C2065 1.314 . S
N2067 C2066 1.279 . S
C2068 C2070 1.353 . S
C2068 N2071 1.314 . S
C2068 H2074 0.930 . S
C2069 N2071 1.279 . S
C2069 C2072 1.358 . S
C2069 H2075 0.930 . S
C2070 C2068 1.353 . S
C2070 C2073 1.348 . S
C2070 H2108 0.929 . S
N2071 Li2026 1.990 . S
N2071 C2068 1.314 . S
N2071 C2069 1.279 . S
C2072 C2069 1.358 . S
C2072 C2073 1.356 . S
C2072 H2109 0.930 . S
C2073 C2070 1.348 . S
C2073 C2072 1.356 . S
H2074 C2068 0.930 . S
H2075 C2069 0.930 . S
C2076 N2077 1.314 . S
C2076 C2078 1.353 . S
C2076 H2082 0.930 . S
N2077 Li2027 1.990 . S
N2077 C2076 1.314 . S
N2077 C2080 1.279 . S
C2078 C2076 1.353 . S
C2078 C2081 1.348 . S
C2078 H2110 0.929 . S
C2079 C2080 1.358 . S
C2079 C2081 1.356 . S
C2079 H2111 0.930 . S
C2080 N2077 1.279 . S
C2080 C2079 1.358 . S
C2080 H2083 0.930 . S
C2081 C2078 1.348 . S
C2081 C2079 1.356 . S
H2082 C2076 0.930 . S
H2083 C2080 0.930 . S
O2084 Li2024 1.956 . S
O2084 Li2025 1.970 . S
O2084 Li2026 1.961 . S
O2084 C2028 1.325 . S
O2085 Li2024 1.970 . S
O2085 Li2025 1.956 . S
O2085 Li2027 1.961 . S
O2085 C2034 1.325 . S
O2086 Li2024 1.961 . S
O2086 Li2026 1.956 . S
O2086 Li2027 1.970 . S
O2086 C2056 1.325 . S
O2087 Li2025 1.961 . S
O2087 Li2026 1.970 . S
O2087 Li2027 1.956 . S
O2087 C2062 1.325 . S
H2088 C2030 0.929 . S
H2089 C2031 0.930 . S
H2090 C2032 0.930 . S
H2091 C2033 0.930 . S
H2092 C2035 0.930 . S
H2093 C2037 0.929 . S
H2094 C2038 0.930 . S
H2095 C2039 0.930 . S
H2096 C2042 0.930 . S
H2097 C2045 0.929 . S
H2098 C2050 0.929 . S
H2099 C2051 0.930 . S
H2100 C2058 0.929 . S
H2101 C2059 0.930 . S
H2102 C2060 0.930 . S
H2103 C2061 0.930 . S
H2104 C2063 0.929 . S
H2105 C2064 0.930 . S
H2106 C2065 0.930 . S
H2107 C2066 0.930 . S
H2108 C2070 0.929 . S
H2109 C2072 0.930 . S
H2110 C2078 0.929 . S
H2111 C2079 0.930 . S
C2112 C2113 1.369 . S
C2112 C2114 1.419 . S
C2112 H2116 0.930 . S
C2113 C2112 1.369 . S
C2113 C2122 1.429 . S
C2114 C2112 1.419 . S
C2114 C2115 1.363 . S
C2114 H2117 0.929 . S
C2115 C2114 1.363 . S
C2115 C2121 1.428 . S
H2116 C2112 0.930 . S
H2117 C2114 0.929 . S
S2118 N2119 1.613 . S
S2118 N2120 1.610 . S
N2119 S2118 1.613 . S
N2119 C2122 1.350 . S
N2120 S2118 1.610 . S
N2120 C2121 1.351 . S
C2121 C2115 1.428 . S
C2121 N2120 1.351 . S
C2121 C2122 1.434 . S
C2122 C2113 1.429 . S
C2122 N2119 1.350 . S
C2122 C2121 1.434 . S
C2123 C2124 1.369 . S
C2123 C2125 1.419 . S
C2123 H2127 0.930 . S
C2124 C2123 1.369 . S
C2124 C2133 1.429 . S
C2125 C2123 1.419 . S
C2125 C2126 1.363 . S
C2125 H2128 0.929 . S
C2126 C2125 1.363 . S
C2126 C2132 1.428 . S
H2127 C2123 0.930 . S
H2128 C2125 0.929 . S
S2129 N2130 1.613 . S
S2129 N2131 1.610 . S
N2130 S2129 1.613 . S
N2130 C2133 1.350 . S
N2131 S2129 1.610 . S
N2131 C2132 1.351 . S
C2132 C2126 1.428 . S
C2132 N2131 1.351 . S
C2132 C2133 1.434 . S
C2133 C2124 1.429 . S
C2133 N2130 1.350 . S
C2133 C2132 1.434 . S
C2134 C2135 1.369 . S
C2134 C2136 1.419 . S
C2134 H2138 0.930 . S
C2135 C2134 1.369 . S
C2135 C2144 1.429 . S
C2136 C2134 1.419 . S
C2136 C2137 1.363 . S
C2136 H2139 0.929 . S
C2137 C2136 1.363 . S
C2137 C2143 1.428 . S
H2138 C2134 0.930 . S
H2139 C2136 0.929 . S
S2140 N2141 1.613 . S
S2140 N2142 1.610 . S
N2141 S2140 1.613 . S
N2141 C2144 1.350 . S
N2142 S2140 1.610 . S
N2142 C2143 1.351 . S
C2143 C2137 1.428 . S
C2143 N2142 1.351 . S
C2143 C2144 1.434 . S
C2144 C2135 1.429 . S
C2144 N2141 1.350 . S
C2144 C2143 1.434 . S
C2145 C2146 1.369 . S
C2145 C2147 1.419 . S
C2145 H2149 0.930 . S
C2146 C2145 1.369 . S
C2146 C2155 1.429 . S
C2147 C2145 1.419 . S
C2147 C2148 1.363 . S
C2147 H2150 0.929 . S
C2148 C2147 1.363 . S
C2148 C2154 1.428 . S
H2149 C2145 0.930 . S
H2150 C2147 0.929 . S
S2151 N2152 1.613 . S
S2151 N2153 1.610 . S
N2152 S2151 1.613 . S
N2152 C2155 1.350 . S
N2153 S2151 1.610 . S
N2153 C2154 1.351 . S
C2154 C2148 1.428 . S
C2154 N2153 1.351 . S
C2154 C2155 1.434 . S
C2155 C2146 1.429 . S
C2155 N2152 1.350 . S
C2155 C2154 1.434 . S
C2156 C2157 1.369 . S
C2156 C2158 1.419 . S
C2156 H2160 0.930 . S
C2157 C2156 1.369 . S
C2157 C2166 1.429 . S
C2158 C2156 1.419 . S
C2158 C2159 1.363 . S
C2158 H2161 0.929 . S
C2159 C2158 1.363 . S
C2159 C2165 1.428 . S
H2160 C2156 0.930 . S
H2161 C2158 0.929 . S
S2162 N2163 1.613 . S
S2162 N2164 1.610 . S
N2163 S2162 1.613 . S
N2163 C2166 1.350 . S
N2164 S2162 1.610 . S
N2164 C2165 1.351 . S
C2165 C2159 1.428 . S
C2165 N2164 1.351 . S
C2165 C2166 1.434 . S
C2166 C2157 1.429 . S
C2166 N2163 1.350 . S
C2166 C2165 1.434 . S
C2167 C2168 1.369 . S
C2167 C2169 1.419 . S
C2167 H2171 0.930 . S
C2168 C2167 1.369 . S
C2168 C2177 1.429 . S
C2169 C2167 1.419 . S
C2169 C2170 1.363 . S
C2169 H2172 0.929 . S
C2170 C2169 1.363 . S
C2170 C2176 1.428 . S
H2171 C2167 0.930 . S
H2172 C2169 0.929 . S
S2173 N2174 1.613 . S
S2173 N2175 1.610 . S
N2174 S2173 1.613 . S
N2174 C2177 1.350 . S
N2175 S2173 1.610 . S
N2175 C2176 1.351 . S
C2176 C2170 1.428 . S
C2176 N2175 1.351 . S
C2176 C2177 1.434 . S
C2177 C2168 1.429 . S
C2177 N2174 1.350 . S
C2177 C2176 1.434 . S
C2178 C2179 1.369 . S
C2178 C2180 1.419 . S
C2178 H2182 0.930 . S
C2179 C2178 1.369 . S
C2179 C2188 1.429 . S
C2180 C2178 1.419 . S
C2180 C2181 1.363 . S
C2180 H2183 0.929 . S
C2181 C2180 1.363 . S
C2181 C2187 1.428 . S
H2182 C2178 0.930 . S
H2183 C2180 0.929 . S
S2184 N2185 1.613 . S
S2184 N2186 1.610 . S
N2185 S2184 1.613 . S
N2185 C2188 1.350 . S
N2186 S2184 1.610 . S
N2186 C2187 1.351 . S
C2187 C2181 1.428 . S
C2187 N2186 1.351 . S
C2187 C2188 1.434 . S
C2188 C2179 1.429 . S
C2188 N2185 1.350 . S
C2188 C2187 1.434 . S
C2189 C2190 1.369 . S
C2189 C2191 1.419 . S
C2189 H2193 0.930 . S
C2190 C2189 1.369 . S
C2190 C2199 1.429 . S
C2191 C2189 1.419 . S
C2191 C2192 1.363 . S
C2191 H2194 0.929 . S
C2192 C2191 1.363 . S
C2192 C2198 1.428 . S
H2193 C2189 0.930 . S
H2194 C2191 0.929 . S
S2195 N2196 1.613 . S
S2195 N2197 1.610 . S
N2196 S2195 1.613 . S
N2196 C2199 1.350 . S
N2197 S2195 1.610 . S
N2197 C2198 1.351 . S
C2198 C2192 1.428 . S
C2198 N2197 1.351 . S
C2198 C2199 1.434 . S
C2199 C2190 1.429 . S
C2199 N2196 1.350 . S
C2199 C2198 1.434 . S
C2200 C2201 1.369 . S
C2200 C2202 1.419 . S
C2200 H2204 0.930 . S
C2201 C2200 1.369 . S
C2201 C2210 1.429 . S
C2202 C2200 1.419 . S
C2202 C2203 1.363 . S
C2202 H2205 0.929 . S
C2203 C2202 1.363 . S
C2203 C2209 1.428 . S
H2204 C2200 0.930 . S
H2205 C2202 0.929 . S
S2206 N2207 1.613 . S
S2206 N2208 1.610 . S
N2207 S2206 1.613 . S
N2207 C2210 1.350 . S
N2208 S2206 1.610 . S
N2208 C2209 1.351 . S
C2209 C2203 1.428 . S
C2209 N2208 1.351 . S
C2209 C2210 1.434 . S
C2210 C2201 1.429 . S
C2210 N2207 1.350 . S
C2210 C2209 1.434 . S
C2211 C2212 1.369 . S
C2211 C2213 1.419 . S
C2211 H2215 0.930 . S
C2212 C2211 1.369 . S
C2212 C2221 1.429 . S
C2213 C2211 1.419 . S
C2213 C2214 1.363 . S
C2213 H2216 0.929 . S
C2214 C2213 1.363 . S
C2214 C2220 1.428 . S
H2215 C2211 0.930 . S
H2216 C2213 0.929 . S
S2217 N2218 1.613 . S
S2217 N2219 1.610 . S
N2218 S2217 1.613 . S
N2218 C2221 1.350 . S
N2219 S2217 1.610 . S
N2219 C2220 1.351 . S
C2220 C2214 1.428 . S
C2220 N2219 1.351 . S
C2220 C2221 1.434 . S
C2221 C2212 1.429 . S
C2221 N2218 1.350 . S
C2221 C2220 1.434 . S
C2222 C2223 1.369 . S
C2222 C2224 1.419 . S
C2222 H2226 0.930 . S
C2223 C2222 1.369 . S
C2223 C2232 1.429 . S
C2224 C2222 1.419 . S
C2224 C2225 1.363 . S
C2224 H2227 0.929 . S
C2225 C2224 1.363 . S
C2225 C2231 1.428 . S
H2226 C2222 0.930 . S
H2227 C2224 0.929 . S
S2228 N2229 1.613 . S
S2228 N2230 1.610 . S
N2229 S2228 1.613 . S
N2229 C2232 1.350 . S
N2230 S2228 1.610 . S
N2230 C2231 1.351 . S
C2231 C2225 1.428 . S
C2231 N2230 1.351 . S
C2231 C2232 1.434 . S
C2232 C2223 1.429 . S
C2232 N2229 1.350 . S
C2232 C2231 1.434 . S
C2233 C2234 1.369 . S
C2233 C2235 1.419 . S
C2233 H2237 0.930 . S
C2234 C2233 1.369 . S
C2234 C2243 1.429 . S
C2235 C2233 1.419 . S
C2235 C2236 1.363 . S
C2235 H2238 0.929 . S
C2236 C2235 1.363 . S
C2236 C2242 1.428 . S
H2237 C2233 0.930 . S
H2238 C2235 0.929 . S
S2239 N2240 1.613 . S
S2239 N2241 1.610 . S
N2240 S2239 1.613 . S
N2240 C2243 1.350 . S
N2241 S2239 1.610 . S
N2241 C2242 1.351 . S
C2242 C2236 1.428 . S
C2242 N2241 1.351 . S
C2242 C2243 1.434 . S
C2243 C2234 1.429 . S
C2243 N2240 1.350 . S
C2243 C2242 1.434 . S
C2244 C2245 1.369 . S
C2244 C2246 1.419 . S
C2244 H2248 0.930 . S
C2245 C2244 1.369 . S
C2245 C2254 1.429 . S
C2246 C2244 1.419 . S
C2246 C2247 1.363 . S
C2246 H2249 0.929 . S
C2247 C2246 1.363 . S
C2247 C2253 1.428 . S
H2248 C2244 0.930 . S
H2249 C2246 0.929 . S
S2250 N2251 1.613 . S
S2250 N2252 1.610 . S
N2251 S2250 1.613 . S
N2251 C2254 1.350 . S
N2252 S2250 1.610 . S
N2252 C2253 1.351 . S
C2253 C2247 1.428 . S
C2253 N2252 1.351 . S
C2253 C2254 1.434 . S
C2254 C2245 1.429 . S
C2254 N2251 1.350 . S
C2254 C2253 1.434 . S
C2255 C2256 1.369 . S
C2255 C2257 1.419 . S
C2255 H2259 0.930 . S
C2256 C2255 1.369 . S
C2256 C2265 1.429 . S
C2257 C2255 1.419 . S
C2257 C2258 1.363 . S
C2257 H2260 0.929 . S
C2258 C2257 1.363 . S
C2258 C2264 1.428 . S
H2259 C2255 0.930 . S
H2260 C2257 0.929 . S
S2261 N2262 1.613 . S
S2261 N2263 1.610 . S
N2262 S2261 1.613 . S
N2262 C2265 1.350 . S
N2263 S2261 1.610 . S
N2263 C2264 1.351 . S
C2264 C2258 1.428 . S
C2264 N2263 1.351 . S
C2264 C2265 1.434 . S
C2265 C2256 1.429 . S
C2265 N2262 1.350 . S
C2265 C2264 1.434 . S
C2266 C2267 1.369 . S
C2266 C2268 1.419 . S
C2266 H2270 0.930 . S
C2267 C2266 1.369 . S
C2267 C2276 1.429 . S
C2268 C2266 1.419 . S
C2268 C2269 1.363 . S
C2268 H2271 0.929 . S
C2269 C2268 1.363 . S
C2269 C2275 1.428 . S
H2270 C2266 0.930 . S
H2271 C2268 0.929 . S
S2272 N2273 1.613 . S
S2272 N2274 1.610 . S
N2273 S2272 1.613 . S
N2273 C2276 1.350 . S
N2274 S2272 1.610 . S
N2274 C2275 1.351 . S
C2275 C2269 1.428 . S
C2275 N2274 1.351 . S
C2275 C2276 1.434 . S
C2276 C2267 1.429 . S
C2276 N2273 1.350 . S
C2276 C2275 1.434 . S
C2277 C2278 1.369 . S
C2277 C2279 1.419 . S
C2277 H2281 0.930 . S
C2278 C2277 1.369 . S
C2278 C2287 1.429 . S
C2279 C2277 1.419 . S
C2279 C2280 1.363 . S
C2279 H2282 0.929 . S
C2280 C2279 1.363 . S
C2280 C2286 1.428 . S
H2281 C2277 0.930 . S
H2282 C2279 0.929 . S
S2283 N2284 1.613 . S
S2283 N2285 1.610 . S
N2284 S2283 1.613 . S
N2284 C2287 1.350 . S
N2285 S2283 1.610 . S
N2285 C2286 1.351 . S
C2286 C2280 1.428 . S
C2286 N2285 1.351 . S
C2286 C2287 1.434 . S
C2287 C2278 1.429 . S
C2287 N2284 1.350 . S
C2287 C2286 1.434 . S
C2288 C2289 1.369 . S
C2288 C2290 1.419 . S
C2288 H2292 0.930 . S
C2289 C2288 1.369 . S
C2289 C2298 1.429 . S
C2290 C2288 1.419 . S
C2290 C2291 1.363 . S
C2290 H2293 0.929 . S
C2291 C2290 1.363 . S
C2291 C2297 1.428 . S
H2292 C2288 0.930 . S
H2293 C2290 0.929 . S
S2294 N2295 1.613 . S
S2294 N2296 1.610 . S
N2295 S2294 1.613 . S
N2295 C2298 1.350 . S
N2296 S2294 1.610 . S
N2296 C2297 1.351 . S
C2297 C2291 1.428 . S
C2297 N2296 1.351 . S
C2297 C2298 1.434 . S
C2298 C2289 1.429 . S
C2298 N2295 1.350 . S
C2298 C2297 1.434 . S
C2299 C2300 1.369 . S
C2299 C2301 1.419 . S
C2299 H2303 0.930 . S
C2300 C2299 1.369 . S
C2300 C2309 1.429 . S
C2301 C2299 1.419 . S
C2301 C2302 1.363 . S
C2301 H2304 0.929 . S
C2302 C2301 1.363 . S
C2302 C2308 1.428 . S
H2303 C2299 0.930 . S
H2304 C2301 0.929 . S
S2305 N2306 1.613 . S
S2305 N2307 1.610 . S
N2306 S2305 1.613 . S
N2306 C2309 1.350 . S
N2307 S2305 1.610 . S
N2307 C2308 1.351 . S
C2308 C2302 1.428 . S
C2308 N2307 1.351 . S
C2308 C2309 1.434 . S
C2309 C2300 1.429 . S
C2309 N2306 1.350 . S
C2309 C2308 1.434 . S
C2310 C2311 1.369 . S
C2310 C2312 1.419 . S
C2310 H2314 0.930 . S
C2311 C2310 1.369 . S
C2311 C2320 1.429 . S
C2312 C2310 1.419 . S
C2312 C2313 1.363 . S
C2312 H2315 0.929 . S
C2313 C2312 1.363 . S
C2313 C2319 1.428 . S
H2314 C2310 0.930 . S
H2315 C2312 0.929 . S
S2316 N2317 1.613 . S
S2316 N2318 1.610 . S
N2317 S2316 1.613 . S
N2317 C2320 1.350 . S
N2318 S2316 1.610 . S
N2318 C2319 1.351 . S
C2319 C2313 1.428 . S
C2319 N2318 1.351 . S
C2319 C2320 1.434 . S
C2320 C2311 1.429 . S
C2320 N2317 1.350 . S
C2320 C2319 1.434 . S
C2321 C2322 1.369 . S
C2321 C2323 1.419 . S
C2321 H2325 0.930 . S
C2322 C2321 1.369 . S
C2322 C2331 1.429 . S
C2323 C2321 1.419 . S
C2323 C2324 1.363 . S
C2323 H2326 0.929 . S
C2324 C2323 1.363 . S
C2324 C2330 1.428 . S
H2325 C2321 0.930 . S
H2326 C2323 0.929 . S
S2327 N2328 1.613 . S
S2327 N2329 1.610 . S
N2328 S2327 1.613 . S
N2328 C2331 1.350 . S
N2329 S2327 1.610 . S
N2329 C2330 1.351 . S
C2330 C2324 1.428 . S
C2330 N2329 1.351 . S
C2330 C2331 1.434 . S
C2331 C2322 1.429 . S
C2331 N2328 1.350 . S
C2331 C2330 1.434 . S
C2332 C2333 1.369 . S
C2332 C2334 1.419 . S
C2332 H2336 0.930 . S
C2333 C2332 1.369 . S
C2333 C2342 1.429 . S
C2334 C2332 1.419 . S
C2334 C2335 1.363 . S
C2334 H2337 0.929 . S
C2335 C2334 1.363 . S
C2335 C2341 1.428 . S
H2336 C2332 0.930 . S
H2337 C2334 0.929 . S
S2338 N2339 1.613 . S
S2338 N2340 1.610 . S
N2339 S2338 1.613 . S
N2339 C2342 1.350 . S
N2340 S2338 1.610 . S
N2340 C2341 1.351 . S
C2341 C2335 1.428 . S
C2341 N2340 1.351 . S
C2341 C2342 1.434 . S
C2342 C2333 1.429 . S
C2342 N2339 1.350 . S
C2342 C2341 1.434 . S
C2343 C2344 1.369 . S
C2343 C2345 1.419 . S
C2343 H2347 0.930 . S
C2344 C2343 1.369 . S
C2344 C2353 1.429 . S
C2345 C2343 1.419 . S
C2345 C2346 1.363 . S
C2345 H2348 0.929 . S
C2346 C2345 1.363 . S
C2346 C2352 1.428 . S
H2347 C2343 0.930 . S
H2348 C2345 0.929 . S
S2349 N2350 1.613 . S
S2349 N2351 1.610 . S
N2350 S2349 1.613 . S
N2350 C2353 1.350 . S
N2351 S2349 1.610 . S
N2351 C2352 1.351 . S
C2352 C2346 1.428 . S
C2352 N2351 1.351 . S
C2352 C2353 1.434 . S
C2353 C2344 1.429 . S
C2353 N2350 1.350 . S
C2353 C2352 1.434 . S
C2354 C2355 1.369 . S
C2354 C2356 1.419 . S
C2354 H2358 0.930 . S
C2355 C2354 1.369 . S
C2355 C2364 1.429 . S
C2356 C2354 1.419 . S
C2356 C2357 1.363 . S
C2356 H2359 0.929 . S
C2357 C2356 1.363 . S
C2357 C2363 1.428 . S
H2358 C2354 0.930 . S
H2359 C2356 0.929 . S
S2360 N2361 1.613 . S
S2360 N2362 1.610 . S
N2361 S2360 1.613 . S
N2361 C2364 1.350 . S
N2362 S2360 1.610 . S
N2362 C2363 1.351 . S
C2363 C2357 1.428 . S
C2363 N2362 1.351 . S
C2363 C2364 1.434 . S
C2364 C2355 1.429 . S
C2364 N2361 1.350 . S
C2364 C2363 1.434 . S
C2365 C2366 1.369 . S
C2365 C2367 1.419 . S
C2365 H2369 0.930 . S
C2366 C2365 1.369 . S
C2366 C2375 1.429 . S
C2367 C2365 1.419 . S
C2367 C2368 1.363 . S
C2367 H2370 0.929 . S
C2368 C2367 1.363 . S
C2368 C2374 1.428 . S
H2369 C2365 0.930 . S
H2370 C2367 0.929 . S
S2371 N2372 1.613 . S
S2371 N2373 1.610 . S
N2372 S2371 1.613 . S
N2372 C2375 1.350 . S
N2373 S2371 1.610 . S
N2373 C2374 1.351 . S
C2374 C2368 1.428 . S
C2374 N2373 1.351 . S
C2374 C2375 1.434 . S
C2375 C2366 1.429 . S
C2375 N2372 1.350 . S
C2375 C2374 1.434 . S
C2376 C2377 1.369 . S
C2376 C2378 1.419 1_455 S
C2376 H2380 0.930 . S
C2377 C2376 1.369 . S
C2377 C2386 1.429 . S
C2378 C2376 1.419 1_655 S
C2378 C2379 1.363 . S
C2378 H2381 0.929 . S
C2379 C2378 1.363 . S
C2379 C2385 1.428 . S
H2380 C2376 0.930 . S
H2381 C2378 0.929 . S
S2382 N2383 1.620 . S
S2382 N2384 1.603 1_455 S
N2383 S2382 1.620 . S
N2383 C2386 1.350 . S
N2384 S2382 1.603 1_655 S
N2384 C2385 1.351 . S
C2385 C2379 1.428 . S
C2385 N2384 1.351 . S
C2385 C2386 1.434 1_655 S
C2386 C2377 1.429 . S
C2386 N2383 1.350 . S
C2386 C2385 1.434 1_455 S
C2387 C2388 1.369 . S
C2387 C2389 1.419 1_545 S
C2387 H2391 0.930 . S
C2388 C2387 1.369 . S
C2388 C2397 1.429 . S
C2389 C2387 1.419 1_565 S
C2389 C2390 1.363 . S
C2389 H2392 0.929 . S
C2390 C2389 1.363 . S
C2390 C2396 1.428 . S
H2391 C2387 0.930 . S
H2392 C2389 0.929 . S
S2393 N2394 1.616 . S
S2393 N2395 1.608 1_545 S
N2394 S2393 1.616 . S
N2394 C2397 1.350 . S
N2395 S2393 1.608 1_565 S
N2395 C2396 1.351 . S
C2396 C2390 1.428 . S
C2396 N2395 1.351 . S
C2396 C2397 1.434 1_565 S
C2397 C2388 1.429 . S
C2397 N2394 1.350 . S
C2397 C2396 1.434 1_545 S
C2398 C2399 1.369 . S
C2398 C2400 1.419 1_655 S
C2398 H2402 0.930 . S
C2399 C2398 1.369 . S
C2399 C2408 1.429 . S
C2400 C2398 1.419 1_455 S
C2400 C2401 1.363 . S
C2400 H2403 0.929 . S
C2401 C2400 1.363 . S
C2401 C2407 1.428 . S
H2402 C2398 0.930 . S
H2403 C2400 0.929 . S
S2404 N2405 1.603 1_455 S
S2404 N2406 1.620 . S
N2405 S2404 1.603 1_655 S
N2405 C2408 1.350 . S
N2406 S2404 1.620 . S
N2406 C2407 1.351 . S
C2407 C2401 1.428 . S
C2407 N2406 1.351 . S
C2407 C2408 1.434 1_455 S
C2408 C2399 1.429 . S
C2408 N2405 1.350 . S
C2408 C2407 1.434 1_655 S
C2409 C2410 1.369 . S
C2409 C2411 1.419 1_545 S
C2409 H2413 0.930 . S
C2410 C2409 1.369 . S
C2410 C2419 1.429 . S
C2411 C2409 1.419 1_565 S
C2411 C2412 1.363 . S
C2411 H2414 0.929 . S
C2412 C2411 1.363 . S
C2412 C2418 1.428 . S
H2413 C2409 0.930 . S
H2414 C2411 0.929 . S
S2415 N2416 1.619 . S
S2415 N2417 1.605 1_545 S
N2416 S2415 1.619 . S
N2416 C2419 1.350 . S
N2417 S2415 1.605 1_565 S
N2417 C2418 1.351 . S
C2418 C2412 1.428 . S
C2418 N2417 1.351 . S
C2418 C2419 1.434 1_565 S
C2419 C2410 1.429 . S
C2419 N2416 1.350 . S
C2419 C2418 1.434 1_545 S
C2420 C2421 1.369 . S
C2420 C2422 1.419 1_565 S
C2420 H2424 0.930 . S
C2421 C2420 1.369 . S
C2421 C2430 1.429 . S
C2422 C2420 1.419 1_545 S
C2422 C2423 1.363 . S
C2422 H2425 0.929 . S
C2423 C2422 1.363 . S
C2423 C2429 1.428 . S
H2424 C2420 0.930 . S
H2425 C2422 0.929 . S
S2426 N2427 1.612 . S
S2426 N2428 1.612 1_565 S
N2427 S2426 1.612 . S
N2427 C2430 1.350 . S
N2428 S2426 1.612 1_545 S
N2428 C2429 1.351 . S
C2429 C2423 1.428 . S
C2429 N2428 1.351 . S
C2429 C2430 1.434 1_545 S
C2430 C2421 1.429 . S
C2430 N2427 1.350 . S
C2430 C2429 1.434 1_565 S
C2431 C2432 1.369 . S
C2431 C2433 1.419 1_655 S
C2431 H2435 0.930 . S
C2432 C2431 1.369 . S
C2432 C2441 1.429 . S
C2433 C2431 1.419 1_455 S
C2433 C2434 1.363 . S
C2433 H2436 0.929 . S
C2434 C2433 1.363 . S
C2434 C2440 1.428 . S
H2435 C2431 0.930 . S
H2436 C2433 0.929 . S
S2437 N2438 1.614 . S
S2437 N2439 1.610 1_655 S
N2438 S2437 1.614 . S
N2438 C2441 1.350 . S
N2439 S2437 1.610 1_455 S
N2439 C2440 1.351 . S
C2440 C2434 1.428 . S
C2440 N2439 1.351 . S
C2440 C2441 1.434 1_455 S
C2441 C2432 1.429 . S
C2441 N2438 1.350 . S
C2441 C2440 1.434 1_655 S
C2442 C2443 1.369 . S
C2442 C2444 1.419 1_565 S
C2442 H2446 0.930 . S
C2443 C2442 1.369 . S
C2443 C2452 1.429 . S
C2444 C2442 1.419 1_545 S
C2444 C2445 1.363 . S
C2444 H2447 0.929 . S
C2445 C2444 1.363 . S
C2445 C2451 1.428 . S
H2446 C2442 0.930 . S
H2447 C2444 0.929 . S
S2448 N2449 1.614 . S
S2448 N2450 1.610 1_565 S
N2449 S2448 1.614 . S
N2449 C2452 1.350 . S
N2450 S2448 1.610 1_545 S
N2450 C2451 1.351 . S
C2451 C2445 1.428 . S
C2451 N2450 1.351 . S
C2451 C2452 1.434 1_545 S
C2452 C2443 1.429 . S
C2452 N2449 1.350 . S
C2452 C2451 1.434 1_565 S
C2453 C2454 1.369 . S
C2453 C2455 1.419 1_655 S
C2453 H2457 0.930 . S
C2454 C2453 1.369 . S
C2454 C2463 1.429 . S
C2455 C2453 1.419 1_455 S
C2455 C2456 1.363 . S
C2455 H2458 0.929 . S
C2456 C2455 1.363 . S
C2456 C2462 1.428 . S
H2457 C2453 0.930 . S
H2458 C2455 0.929 . S
S2459 N2460 1.615 1_455 S
S2459 N2461 1.608 . S
N2460 S2459 1.615 1_655 S
N2460 C2463 1.350 . S
N2461 S2459 1.608 . S
N2461 C2462 1.351 . S
C2462 C2456 1.428 . S
C2462 N2461 1.351 . S
C2462 C2463 1.434 1_455 S
C2463 C2454 1.429 . S
C2463 N2460 1.350 . S
C2463 C2462 1.434 1_655 S
C2464 C2465 1.369 . S
C2464 C2466 1.419 1_556 S
C2464 H2468 0.930 . S
C2465 C2464 1.369 . S
C2465 C2474 1.429 . S
C2466 C2464 1.419 1_554 S
C2466 C2467 1.363 . S
C2466 H2469 0.929 . S
C2467 C2466 1.363 . S
C2467 C2473 1.428 . S
H2468 C2464 0.930 . S
H2469 C2466 0.929 . S
S2470 N2471 1.618 . S
S2470 N2472 1.605 1_556 S
N2471 S2470 1.618 . S
N2471 C2474 1.350 . S
N2472 S2470 1.605 1_554 S
N2472 C2473 1.351 . S
C2473 C2467 1.428 . S
C2473 N2472 1.351 . S
C2473 C2474 1.434 1_554 S
C2474 C2465 1.429 . S
C2474 N2471 1.350 . S
C2474 C2473 1.434 1_556 S
C2475 C2476 1.369 . S
C2475 C2477 1.419 1_556 S
C2475 H2479 0.930 . S
C2476 C2475 1.369 . S
C2476 C2485 1.429 . S
C2477 C2475 1.419 1_554 S
C2477 C2478 1.363 . S
C2477 H2480 0.929 . S
C2478 C2477 1.363 . S
C2478 C2484 1.428 . S
H2479 C2475 0.930 . S
H2480 C2477 0.929 . S
S2481 N2482 1.616 . S
S2481 N2483 1.608 1_556 S
N2482 S2481 1.616 . S
N2482 C2485 1.350 . S
N2483 S2481 1.608 1_554 S
N2483 C2484 1.351 . S
C2484 C2478 1.428 . S
C2484 N2483 1.351 . S
C2484 C2485 1.434 1_554 S
C2485 C2476 1.429 . S
C2485 N2482 1.350 . S
C2485 C2484 1.434 1_556 S
C2486 C2487 1.369 . S
C2486 C2488 1.419 1_556 S
C2486 H2490 0.930 . S
C2487 C2486 1.369 . S
C2487 C2496 1.429 . S
C2488 C2486 1.419 1_554 S
C2488 C2489 1.363 . S
C2488 H2491 0.929 . S
C2489 C2488 1.363 . S
C2489 C2495 1.428 . S
H2490 C2486 0.930 . S
H2491 C2488 0.929 . S
S2492 N2493 1.610 1_554 S
S2492 N2494 1.613 . S
N2493 S2492 1.610 1_556 S
N2493 C2496 1.350 . S
N2494 S2492 1.613 . S
N2494 C2495 1.351 . S
C2495 C2489 1.428 . S
C2495 N2494 1.351 . S
C2495 C2496 1.434 1_554 S
C2496 C2487 1.429 . S
C2496 N2493 1.350 . S
C2496 C2495 1.434 1_556 S
C2497 C2498 1.369 . S
C2497 C2499 1.419 1_556 S
C2497 H2501 0.930 . S
C2498 C2497 1.369 . S
C2498 C2507 1.429 . S
C2499 C2497 1.419 1_554 S
C2499 C2500 1.363 . S
C2499 H2502 0.929 . S
C2500 C2499 1.363 . S
C2500 C2506 1.428 . S
H2501 C2497 0.930 . S
H2502 C2499 0.929 . S
S2503 N2504 1.614 . S
S2503 N2505 1.610 1_556 S
N2504 S2503 1.614 . S
N2504 C2507 1.350 . S
N2505 S2503 1.610 1_554 S
N2505 C2506 1.351 . S
C2506 C2500 1.428 . S
C2506 N2505 1.351 . S
C2506 C2507 1.434 1_554 S
C2507 C2498 1.429 . S
C2507 N2504 1.350 . S
C2507 C2506 1.434 1_556 S
C2508 C2509 1.369 . S
C2508 C2510 1.419 . S
C2508 H2512 0.930 . S
C2509 C2508 1.369 . S
C2509 C2518 1.429 . S
C2510 C2508 1.419 . S
C2510 C2511 1.363 . S
C2510 H2513 0.929 . S
C2511 C2510 1.363 . S
C2511 C2517 1.428 . S
H2512 C2508 0.930 . S
H2513 C2510 0.929 . S
S2514 N2515 1.613 . S
S2514 N2516 1.610 . S
N2515 S2514 1.613 . S
N2515 C2518 1.350 . S
N2516 S2514 1.610 . S
N2516 C2517 1.351 . S
C2517 C2511 1.428 . S
C2517 N2516 1.351 . S
C2517 C2518 1.434 . S
C2518 C2509 1.429 . S
C2518 N2515 1.350 . S
C2518 C2517 1.434 . S
C2519 C2520 1.369 . S
C2519 C2521 1.419 . S
C2519 H2523 0.930 . S
C2520 C2519 1.369 . S
C2520 C2529 1.429 . S
C2521 C2519 1.419 . S
C2521 C2522 1.363 . S
C2521 H2524 0.929 . S
C2522 C2521 1.363 . S
C2522 C2528 1.428 . S
H2523 C2519 0.930 . S
H2524 C2521 0.929 . S
S2525 N2526 1.613 . S
S2525 N2527 1.610 . S
N2526 S2525 1.613 . S
N2526 C2529 1.350 . S
N2527 S2525 1.610 . S
N2527 C2528 1.351 . S
C2528 C2522 1.428 . S
C2528 N2527 1.351 . S
C2528 C2529 1.434 . S
C2529 C2520 1.429 . S
C2529 N2526 1.350 . S
C2529 C2528 1.434 . S
C2530 C2531 1.369 . S
C2530 C2532 1.419 . S
C2530 H2534 0.930 . S
C2531 C2530 1.369 . S
C2531 C2540 1.429 . S
C2532 C2530 1.419 . S
C2532 C2533 1.363 . S
C2532 H2535 0.929 . S
C2533 C2532 1.363 . S
C2533 C2539 1.428 . S
H2534 C2530 0.930 . S
H2535 C2532 0.929 . S
S2536 N2537 1.613 . S
S2536 N2538 1.610 . S
N2537 S2536 1.613 . S
N2537 C2540 1.350 . S
N2538 S2536 1.610 . S
N2538 C2539 1.351 . S
C2539 C2533 1.428 . S
C2539 N2538 1.351 . S
C2539 C2540 1.434 . S
C2540 C2531 1.429 . S
C2540 N2537 1.350 . S
C2540 C2539 1.434 . S
C2541 C2542 1.369 . S
C2541 C2543 1.419 . S
C2541 H2545 0.930 . S
C2542 C2541 1.369 . S
C2542 C2551 1.429 . S
C2543 C2541 1.419 . S
C2543 C2544 1.363 . S
C2543 H2546 0.929 . S
C2544 C2543 1.363 . S
C2544 C2550 1.428 . S
H2545 C2541 0.930 . S
H2546 C2543 0.929 . S
S2547 N2548 1.613 . S
S2547 N2549 1.610 . S
N2548 S2547 1.613 . S
N2548 C2551 1.350 . S
N2549 S2547 1.610 . S
N2549 C2550 1.351 . S
C2550 C2544 1.428 . S
C2550 N2549 1.351 . S
C2550 C2551 1.434 . S
C2551 C2542 1.429 . S
C2551 N2548 1.350 . S
C2551 C2550 1.434 . S
C2552 C2553 1.369 . S
C2552 C2554 1.419 . S
C2552 H2556 0.930 . S
C2553 C2552 1.369 . S
C2553 C2562 1.429 . S
C2554 C2552 1.419 . S
C2554 C2555 1.363 . S
C2554 H2557 0.929 . S
C2555 C2554 1.363 . S
C2555 C2561 1.428 . S
H2556 C2552 0.930 . S
H2557 C2554 0.929 . S
S2558 N2559 1.613 . S
S2558 N2560 1.610 . S
N2559 S2558 1.613 . S
N2559 C2562 1.350 . S
N2560 S2558 1.610 . S
N2560 C2561 1.351 . S
C2561 C2555 1.428 . S
C2561 N2560 1.351 . S
C2561 C2562 1.434 . S
C2562 C2553 1.429 . S
C2562 N2559 1.350 . S
C2562 C2561 1.434 . S
C2563 C2564 1.369 . S
C2563 C2565 1.419 . S
C2563 H2567 0.930 . S
C2564 C2563 1.369 . S
C2564 C2573 1.429 . S
C2565 C2563 1.419 . S
C2565 C2566 1.363 . S
C2565 H2568 0.929 . S
C2566 C2565 1.363 . S
C2566 C2572 1.428 . S
H2567 C2563 0.930 . S
H2568 C2565 0.929 . S
S2569 N2570 1.613 . S
S2569 N2571 1.610 . S
N2570 S2569 1.613 . S
N2570 C2573 1.350 . S
N2571 S2569 1.610 . S
N2571 C2572 1.351 . S
C2572 C2566 1.428 . S
C2572 N2571 1.351 . S
C2572 C2573 1.434 . S
C2573 C2564 1.429 . S
C2573 N2570 1.350 . S
C2573 C2572 1.434 . S
C2574 C2575 1.369 . S
C2574 C2576 1.419 . S
C2574 H2578 0.930 . S
C2575 C2574 1.369 . S
C2575 C2584 1.429 . S
C2576 C2574 1.419 . S
C2576 C2577 1.363 . S
C2576 H2579 0.929 . S
C2577 C2576 1.363 . S
C2577 C2583 1.428 . S
H2578 C2574 0.930 . S
H2579 C2576 0.929 . S
S2580 N2581 1.613 . S
S2580 N2582 1.610 . S
N2581 S2580 1.613 . S
N2581 C2584 1.350 . S
N2582 S2580 1.610 . S
N2582 C2583 1.351 . S
C2583 C2577 1.428 . S
C2583 N2582 1.351 . S
C2583 C2584 1.434 . S
C2584 C2575 1.429 . S
C2584 N2581 1.350 . S
C2584 C2583 1.434 . S
C2585 C2586 1.369 . S
C2585 C2587 1.419 . S
C2585 H2589 0.930 . S
C2586 C2585 1.369 . S
C2586 C2595 1.429 . S
C2587 C2585 1.419 . S
C2587 C2588 1.363 . S
C2587 H2590 0.929 . S
C2588 C2587 1.363 . S
C2588 C2594 1.428 . S
H2589 C2585 0.930 . S
H2590 C2587 0.929 . S
S2591 N2592 1.613 . S
S2591 N2593 1.610 . S
N2592 S2591 1.613 . S
N2592 C2595 1.350 . S
N2593 S2591 1.610 . S
N2593 C2594 1.351 . S
C2594 C2588 1.428 . S
C2594 N2593 1.351 . S
C2594 C2595 1.434 . S
C2595 C2586 1.429 . S
C2595 N2592 1.350 . S
C2595 C2594 1.434 . S
C2596 C2597 1.369 . S
C2596 C2598 1.419 . S
C2596 H2600 0.930 . S
C2597 C2596 1.369 . S
C2597 C2606 1.429 . S
C2598 C2596 1.419 . S
C2598 C2599 1.363 . S
C2598 H2601 0.929 . S
C2599 C2598 1.363 . S
C2599 C2605 1.428 . S
H2600 C2596 0.930 . S
H2601 C2598 0.929 . S
S2602 N2603 1.613 . S
S2602 N2604 1.610 . S
N2603 S2602 1.613 . S
N2603 C2606 1.350 . S
N2604 S2602 1.610 . S
N2604 C2605 1.351 . S
C2605 C2599 1.428 . S
C2605 N2604 1.351 . S
C2605 C2606 1.434 . S
C2606 C2597 1.429 . S
C2606 N2603 1.350 . S
C2606 C2605 1.434 . S
C2607 C2608 1.369 . S
C2607 C2609 1.419 . S
C2607 H2611 0.930 . S
C2608 C2607 1.369 . S
C2608 C2617 1.429 . S
C2609 C2607 1.419 . S
C2609 C2610 1.363 . S
C2609 H2612 0.929 . S
C2610 C2609 1.363 . S
C2610 C2616 1.428 . S
H2611 C2607 0.930 . S
H2612 C2609 0.929 . S
S2613 N2614 1.613 . S
S2613 N2615 1.610 . S
N2614 S2613 1.613 . S
N2614 C2617 1.350 . S
N2615 S2613 1.610 . S
N2615 C2616 1.351 . S
C2616 C2610 1.428 . S
C2616 N2615 1.351 . S
C2616 C2617 1.434 . S
C2617 C2608 1.429 . S
C2617 N2614 1.350 . S
C2617 C2616 1.434 . S
C2618 C2619 1.369 . S
C2618 C2620 1.419 . S
C2618 H2622 0.930 . S
C2619 C2618 1.369 . S
C2619 C2628 1.429 . S
C2620 C2618 1.419 . S
C2620 C2621 1.363 . S
C2620 H2623 0.929 . S
C2621 C2620 1.363 . S
C2621 C2627 1.428 . S
H2622 C2618 0.930 . S
H2623 C2620 0.929 . S
S2624 N2625 1.613 . S
S2624 N2626 1.610 . S
N2625 S2624 1.613 . S
N2625 C2628 1.350 . S
N2626 S2624 1.610 . S
N2626 C2627 1.351 . S
C2627 C2621 1.428 . S
C2627 N2626 1.351 . S
C2627 C2628 1.434 . S
C2628 C2619 1.429 . S
C2628 N2625 1.350 . S
C2628 C2627 1.434 . S
C2629 C2630 1.369 . S
C2629 C2631 1.419 . S
C2629 H2633 0.930 . S
C2630 C2629 1.369 . S
C2630 C2639 1.429 . S
C2631 C2629 1.419 . S
C2631 C2632 1.363 . S
C2631 H2634 0.929 . S
C2632 C2631 1.363 . S
C2632 C2638 1.428 . S
H2633 C2629 0.930 . S
H2634 C2631 0.929 . S
S2635 N2636 1.613 . S
S2635 N2637 1.610 . S
N2636 S2635 1.613 . S
N2636 C2639 1.350 . S
N2637 S2635 1.610 . S
N2637 C2638 1.351 . S
C2638 C2632 1.428 . S
C2638 N2637 1.351 . S
C2638 C2639 1.434 . S
C2639 C2630 1.429 . S
C2639 N2636 1.350 . S
C2639 C2638 1.434 . S
C2113 C1017 1.574 . S
C2115 C49 1.572 . S
C2124 C145 1.571 . S
C2126 C733 1.574 . S
C2135 C233 1.575 . S
C2137 C812 1.577 . S
C2146 C313 1.573 . S
C2148 C929 1.575 . S
C2157 C1164 1.578 . S
C2159 C381 1.575 . S
C2168 C460 1.573 . S
C2170 C1261 1.576 . S
C2179 C1369 1.576 . S
C2181 C557 1.574 . S
C2190 C1105 1.575 . S
C2192 C645 1.572 . S
C2201 C489 1.574 . S
C2203 C761 1.572 . S
C2212 C585 1.577 . S
C2214 C841 1.575 . S
C2223 C900 1.573 . S
C2225 C673 1.575 . S
C2234 C409 1.573 . S
C2236 C988 1.571 . S
C2245 C284 1.577 . S
C2247 C1076 1.575 . S
C2256 C1193 1.571 . S
C2258 C20 1.574 . S
C2267 C1289 1.575 . S
C2269 C117 1.577 . S
C2278 C1340 1.572 . S
C2280 C205 1.575 . S
C2289 C1457 1.575 . S
C2291 C2044 1.577 . S
C2300 C1817 1.576 . S
C2302 C1516 1.573 . S
C2311 C1604 1.575 . S
C2313 C1545 1.577 . S
C2322 C1701 1.571 . S
C2324 C1633 1.574 . S
C2333 C1729 1.576 . S
C2335 C1789 1.574 . S
C2344 C1905 1.575 . S
C2346 C1965 1.577 . S
C2355 C1428 1.578 . S
C2357 C1993 1.575 . S
C2366 C1877 1.574 . S
C2368 C2073 1.571 . S
C2377 C57 1.431 . S
C2379 C548 1.432 . S
C2388 C137 1.433 . S
C2390 C636 1.433 . S
C2399 C225 1.433 . S
C2401 C372 1.432 . S
C2410 C469 1.432 . S
C2412 C321 1.432 . S
C2421 C909 1.433 . S
C2423 C753 1.433 . S
C2432 C849 1.429 . S
C2434 C997 1.429 . S
C2443 C1085 1.429 . S
C2445 C1281 1.429 . S
C2454 C1349 1.434 . S
C2456 C1201 1.433 . S
C2465 C1525 1.432 . S
C2467 C1465 1.432 . S
C2476 C1613 1.429 . S
C2478 C2081 1.429 . S
C2487 C1692 1.434 . S
C2489 C1897 1.433 . S
C2498 C1780 1.429 . S
C2500 C1985 1.429 . S
C2509 C29 0.723 . S
C2511 C497 0.723 . S
C2520 C108 0.723 . S
C2522 C577 0.723 . S
C2531 C196 0.723 . S
C2533 C665 0.723 . S
C2542 C401 0.725 . S
C2544 C293 0.725 . S
C2553 C724 0.725 . S
C2555 C2053 0.725 . S
C2564 C821 0.723 . S
C2566 C1868 0.723 . S
C2575 C1956 0.725 . S
C2577 C937 0.724 . S
C2586 C1025 0.724 . S
C2588 C1437 0.725 . S
C2597 C1809 0.725 . S
C2599 C1113 0.725 . S
C2608 C1553 0.725 . S
C2610 C1173 0.724 . S
C2619 C1252 0.725 . S
C2621 C1641 0.725 . S
C2630 C1721 0.725 . S
C2632 C1377 0.725 . S
