# Generated by pormake.
# Topology wjv, (5)-cn, num edge types: 1
# Building blocks:
#     Node 0, Type 0, BuildingBlock: XOMCOT_clean_sbu_0, # of connection points: 5
#     Node 1, Type 0, BuildingBlock: XOMCOT_clean_sbu_0, # of connection points: 5
#     Node 2, Type 0, BuildingBlock: XOMCOT_clean_sbu_0, # of connection points: 5
#     Node 3, Type 0, BuildingBlock: XOMCOT_clean_sbu_0, # of connection points: 5
#     Node 4, Type 0, BuildingBlock: XOMCOT_clean_sbu_0, # of connection points: 5
#     Node 5, Type 0, BuildingBlock: XOMCOT_clean_sbu_0, # of connection points: 5
#     Node 6, Type 0, BuildingBlock: XOMCOT_clean_sbu_0, # of connection points: 5
#     Node 7, Type 0, BuildingBlock: XOMCOT_clean_sbu_0, # of connection points: 5
#     Node 8, Type 0, BuildingBlock: XOMCOT_clean_sbu_0, # of connection points: 5
#     Node 9, Type 0, BuildingBlock: XOMCOT_clean_sbu_0, # of connection points: 5
#     Node 10, Type 0, BuildingBlock: XOMCOT_clean_sbu_0, # of connection points: 5
#     Node 11, Type 0, BuildingBlock: XOMCOT_clean_sbu_0, # of connection points: 5
#     Edge 12, Type (0, 0), BuildingBlock: OJICUG_clean_linker_0, # of connection points: 2
#     Edge 13, Type (0, 0), BuildingBlock: OJICUG_clean_linker_0, # of connection points: 2
#     Edge 14, Type (0, 0), BuildingBlock: OJICUG_clean_linker_0, # of connection points: 2
#     Edge 15, Type (0, 0), BuildingBlock: OJICUG_clean_linker_0, # of connection points: 2
#     Edge 16, Type (0, 0), BuildingBlock: OJICUG_clean_linker_0, # of connection points: 2
#     Edge 17, Type (0, 0), BuildingBlock: OJICUG_clean_linker_0, # of connection points: 2
#     Edge 18, Type (0, 0), BuildingBlock: OJICUG_clean_linker_0, # of connection points: 2
#     Edge 19, Type (0, 0), BuildingBlock: OJICUG_clean_linker_0, # of connection points: 2
#     Edge 20, Type (0, 0), BuildingBlock: OJICUG_clean_linker_0, # of connection points: 2
#     Edge 21, Type (0, 0), BuildingBlock: OJICUG_clean_linker_0, # of connection points: 2
#     Edge 22, Type (0, 0), BuildingBlock: OJICUG_clean_linker_0, # of connection points: 2
#     Edge 23, Type (0, 0), BuildingBlock: OJICUG_clean_linker_0, # of connection points: 2
#     Edge 24, Type (0, 0), BuildingBlock: OJICUG_clean_linker_0, # of connection points: 2
#     Edge 25, Type (0, 0), BuildingBlock: OJICUG_clean_linker_0, # of connection points: 2
#     Edge 26, Type (0, 0), BuildingBlock: OJICUG_clean_linker_0, # of connection points: 2
#     Edge 27, Type (0, 0), BuildingBlock: OJICUG_clean_linker_0, # of connection points: 2
#     Edge 28, Type (0, 0), BuildingBlock: OJICUG_clean_linker_0, # of connection points: 2
#     Edge 29, Type (0, 0), BuildingBlock: OJICUG_clean_linker_0, # of connection points: 2
#     Edge 30, Type (0, 0), BuildingBlock: OJICUG_clean_linker_0, # of connection points: 2
#     Edge 31, Type (0, 0), BuildingBlock: OJICUG_clean_linker_0, # of connection points: 2
#     Edge 32, Type (0, 0), BuildingBlock: OJICUG_clean_linker_0, # of connection points: 2
#     Edge 33, Type (0, 0), BuildingBlock: OJICUG_clean_linker_0, # of connection points: 2
#     Edge 34, Type (0, 0), BuildingBlock: OJICUG_clean_linker_0, # of connection points: 2
#     Edge 35, Type (0, 0), BuildingBlock: OJICUG_clean_linker_0, # of connection points: 2
#     Edge 36, Type (0, 0), BuildingBlock: OJICUG_clean_linker_0, # of connection points: 2
#     Edge 37, Type (0, 0), BuildingBlock: OJICUG_clean_linker_0, # of connection points: 2
#     Edge 38, Type (0, 0), BuildingBlock: OJICUG_clean_linker_0, # of connection points: 2
#     Edge 39, Type (0, 0), BuildingBlock: OJICUG_clean_linker_0, # of connection points: 2
#     Edge 40, Type (0, 0), BuildingBlock: OJICUG_clean_linker_0, # of connection points: 2
#     Edge 41, Type (0, 0), BuildingBlock: OJICUG_clean_linker_0, # of connection points: 2
# Relax obj value: 0.145
# Max RMSD: 0.185
# Mean RMSD: 0.185
data_MOF--net-wjv--node1-XOMCOT_clean_sbu_0--edge1-OJICUG_clean_linker_0
_symmetry_space_group_name_H-M    P1
_symmetry_Int_Tables_number       1
_symmetry_cell_setting            triclinic
loop_
_symmetry_equiv_pos_as_xyz
'x, y, z'
_cell_length_a     28.198572
_cell_length_b     28.210572
_cell_length_c     39.273119
_cell_angle_alpha  89.98974
_cell_angle_beta   89.979528
_cell_angle_gamma 119.91516
loop_
_atom_site_label
_atom_site_type_symbol
_atom_site_fract_x
_atom_site_fract_y
_atom_site_fract_z
_atom_type_partial_charge
Co0 Co 0.21255 0.26719 0.18421 0.0
C1 C 0.17945 0.26139 0.11141 0.0
C2 C 0.1962 0.19756 0.12551 0.0
C3 C 0.17854 0.18928 0.09247 0.0
N4 N 0.19718 0.24286 0.13741 0.0
N5 N 0.16749 0.22895 0.08366 0.0
H6 H 0.17262 0.29579 0.11334 0.0
H7 H 0.20557 0.17084 0.14016 0.0
C8 C 0.3079 0.2488 0.19674 0.0
O9 O 0.33717 0.29636 0.21175 0.0
N10 N 0.22541 0.28744 0.23225 0.0
C11 C 0.21237 0.32074 0.24949 0.0
C12 C 0.22059 0.31737 0.28375 0.0
C13 C 0.23803 0.26184 0.25675 0.0
N14 N 0.23686 0.28021 0.28839 0.0
C15 C 0.29369 0.38431 0.18557 0.0
C16 C 0.36413 0.37512 0.14056 0.0
C17 C 0.38401 0.42257 0.1602 0.0
C18 C 0.3474 0.42791 0.18191 0.0
C19 C 0.3108 0.33231 0.14554 0.0
N20 N 0.27729 0.33555 0.16958 0.0
H21 H 0.26653 0.38954 0.20228 0.0
H22 H 0.29867 0.2946 0.13213 0.0
H23 H 0.19578 0.34437 0.23826 0.0
H24 H 0.24464 0.22797 0.25175 0.0
O25 O 0.1539 0.28541 0.18259 0.0
O26 O 0.14414 0.20513 0.19682 0.0
O27 O 0.25883 0.23185 0.18721 0.0
C28 C 0.12126 0.23459 0.19154 0.0
H29 H 0.1725 0.15547 0.07648 0.0
H30 H 0.21392 0.33997 0.30359 0.0
H31 H 0.39076 0.36931 0.12328 0.0
H32 H 0.3606 0.46489 0.19662 0.0
Co33 Co 0.91187 0.19786 0.52531 0.0
C34 C 0.8816 0.17122 0.45249 0.0
C35 C 0.95799 0.1754 0.46438 0.0
C36 C 0.9476 0.16391 0.43036 0.0
N37 N 0.91712 0.18088 0.47818 0.0
N38 N 0.89979 0.16133 0.42306 0.0
H39 H 0.84326 0.17093 0.45527 0.0
H40 H 0.99268 0.17855 0.47802 0.0
C41 C 0.0356 0.27451 0.53493 0.0
O42 O 0.03287 0.31804 0.54364 0.0
N43 N 0.90721 0.21296 0.57338 0.0
C44 C 0.86219 0.2046 0.59053 0.0
C45 C 0.87457 0.21476 0.62457 0.0
C46 C 0.94564 0.22579 0.59777 0.0
N47 N 0.92719 0.2281 0.62921 0.0
C48 C 0.89122 0.28908 0.52606 0.0
C49 C 0.97536 0.35413 0.48196 0.0
C50 C 0.94947 0.37752 0.5001 0.0
C51 C 0.90554 0.34382 0.52144 0.0
C52 C 0.96051 0.29962 0.48788 0.0
N53 N 0.92124 0.26871 0.5114 0.0
H54 H 0.85701 0.26386 0.54221 0.0
H55 H 0.98367 0.28374 0.47526 0.0
H56 H 0.8224 0.19084 0.57934 0.0
H57 H 0.9854 0.23044 0.59308 0.0
O58 O 0.83242 0.15069 0.52267 0.0
O59 O 0.89195 0.12463 0.53748 0.0
O60 O 0.99262 0.2288 0.52918 0.0
C61 C 0.84153 0.11135 0.53171 0.0
H62 H 0.97204 0.1558 0.41256 0.0
H63 H 0.84652 0.21201 0.64428 0.0
H64 H 0.00919 0.37863 0.46499 0.0
H65 H 0.88323 0.35998 0.53501 0.0
Co66 Co 0.73452 0.94249 0.85154 0.0
C67 C 0.73286 0.92114 0.77707 0.0
C68 C 0.79928 -0.00021 0.79162 0.0
C69 C 0.80208 0.99376 0.75722 0.0
N70 N 0.75561 0.95465 0.80405 0.0
N71 N 0.76071 0.94411 0.74793 0.0
H72 H 0.69786 0.88039 0.77902 0.0
H73 H 0.82773 0.03469 0.80652 0.0
C74 C 0.75303 0.05463 0.86911 0.0
O75 O 0.70617 0.03475 0.88528 0.0
N76 N 0.71691 0.93099 0.9 0.0
C77 C 0.6849 0.88294 0.91585 0.0
C78 C 0.68877 0.89118 0.95048 0.0
C79 C 0.74229 0.96702 0.92558 0.0
N80 N 0.72491 0.94433 0.95678 0.0
C81 C 0.61758 0.90831 0.85743 0.0
C82 C 0.62533 0.98956 0.81444 0.0
C83 C 0.57884 0.96186 0.83484 0.0
C84 C 0.57423 0.91934 0.8557 0.0
C85 C 0.6678 0.97817 0.81747 0.0
N86 N 0.66538 0.94023 0.84028 0.0
H87 H 0.6129 0.87551 0.87352 0.0
H88 H 0.70479 0.00416 0.80356 0.0
H89 H 0.66131 0.84391 0.90326 0.0
H90 H 0.77478 0.00838 0.92142 0.0
O91 O 0.71632 0.86598 0.84668 0.0
O92 O 0.79754 0.93565 0.86031 0.0
O93 O 0.77 0.02372 0.85715 0.0
C94 C 0.76789 0.88392 0.85356 0.0
H95 H 0.83297 0.02382 0.74056 0.0
H96 H 0.66709 0.85973 0.96933 0.0
H97 H 0.63076 0.02266 0.79791 0.0
H98 H 0.53799 0.89561 0.87105 0.0
Co99 Co 0.78811 0.73278 0.18462 0.0
C100 C 0.82197 0.73909 0.1118 0.0
C101 C 0.80495 0.80273 0.1259 0.0
C102 C 0.82292 0.81122 0.09289 0.0
N103 N 0.80397 0.75744 0.1378 0.0
N104 N 0.83411 0.77164 0.08405 0.0
H105 H 0.82873 0.70464 0.11371 0.0
H106 H 0.79524 0.82924 0.14052 0.0
C107 C 0.6921 0.7501 0.197 0.0
O108 O 0.66283 0.70211 0.21153 0.0
N109 N 0.77476 0.712 0.23265 0.0
C110 C 0.78812 0.6788 0.24972 0.0
C111 C 0.77893 0.68102 0.28395 0.0
C112 C 0.76089 0.73642 0.25731 0.0
N113 N 0.76167 0.71734 0.28882 0.0
C114 C 0.70765 0.61545 0.1856 0.0
C115 C 0.63722 0.62449 0.14053 0.0
C116 C 0.61742 0.57699 0.16014 0.0
C117 C 0.65404 0.57172 0.18186 0.0
C118 C 0.69045 0.66743 0.14559 0.0
N119 N 0.72391 0.66427 0.16969 0.0
H120 H 0.73481 0.6103 0.20233 0.0
H121 H 0.70248 0.7052 0.13226 0.0
H122 H 0.80542 0.65587 0.23839 0.0
H123 H 0.75351 0.76987 0.25257 0.0
O124 O 0.8473 0.7153 0.18323 0.0
O125 O 0.85601 0.79512 0.19754 0.0
O126 O 0.74132 0.76755 0.18757 0.0
C127 C 0.87942 0.76615 0.19234 0.0
H128 H 0.82891 0.84503 0.0769 0.0
H129 H 0.7855 0.65809 0.30363 0.0
H130 H 0.61058 0.63025 0.12324 0.0
H131 H 0.6409 0.53471 0.19654 0.0
Co132 Co 0.08076 0.79211 0.52379 0.0
C133 C 0.10827 0.82671 0.4508 0.0
C134 C 0.03049 0.81613 0.46623 0.0
C135 C 0.0405 0.83541 0.43361 0.0
N136 N 0.07258 0.81018 0.4772 0.0
N137 N 0.08947 0.84267 0.42395 0.0
H138 H 0.14827 0.83028 0.45192 0.0
H139 H 0.99576 0.80975 0.48122 0.0
C140 C 0.95745 0.71424 0.53526 0.0
O141 O 0.96057 0.67051 0.54277 0.0
N142 N 0.08759 0.77628 0.57147 0.0
C143 C 0.13309 0.78459 0.58798 0.0
C144 C 0.12185 0.77504 0.62224 0.0
C145 C 0.05016 0.76422 0.59646 0.0
N146 N 0.06951 0.76221 0.62764 0.0
C147 C 0.10184 0.70147 0.52261 0.0
C148 C 0.01534 0.636 0.48019 0.0
C149 C 0.0415 0.61256 0.49802 0.0
C150 C 0.08678 0.64652 0.51831 0.0
C151 C 0.03108 0.69086 0.48576 0.0
N152 N 0.07131 0.72182 0.50871 0.0
H153 H 0.13685 0.72682 0.53813 0.0
H154 H 0.00764 0.70687 0.47366 0.0
H155 H 0.17252 0.79833 0.57624 0.0
H156 H 0.0106 0.76035 0.59238 0.0
O157 O 0.15994 0.83943 0.5198 0.0
O158 O 0.10111 0.86509 0.53701 0.0
O159 O 0.00015 0.76023 0.52956 0.0
C160 C 0.15126 0.87853 0.53002 0.0
H161 H 0.01478 0.84583 0.41858 0.0
H162 H 0.15054 0.77822 0.64161 0.0
H163 H 0.98058 0.6113 0.46393 0.0
H164 H 0.10939 0.63034 0.53149 0.0
Co165 Co 0.26775 0.05925 0.85328 0.0
C166 C 0.27786 0.08864 0.78033 0.0
C167 C 0.20928 0.00852 0.78964 0.0
C168 C 0.21209 0.01899 0.75527 0.0
N169 N 0.25101 0.05188 0.80519 0.0
N170 N 0.25508 0.06925 0.7496 0.0
H171 H 0.31307 0.12868 0.78462 0.0
H172 H 0.17861 0.97202 0.80234 0.0
C173 C 0.24667 0.94553 0.86837 0.0
O174 O 0.29208 0.96398 0.88598 0.0
N175 N 0.28207 0.067 0.9022 0.0
C176 C 0.31369 0.11425 0.91897 0.0
C177 C 0.30884 0.10441 0.9534 0.0
C178 C 0.256 0.02962 0.9271 0.0
N179 N 0.27254 0.05107 0.95861 0.0
C180 C 0.38451 0.0926 0.86115 0.0
C181 C 0.37874 0.0144 0.8162 0.0
C182 C 0.42478 0.04137 0.83699 0.0
C183 C 0.42828 0.08221 0.85902 0.0
C184 C 0.33586 0.02503 0.81966 0.0
N185 N 0.33735 0.06164 0.84318 0.0
H186 H 0.38847 0.12429 0.87801 0.0
H187 H 0.29937 -0.00032 0.80517 0.0
H188 H 0.33804 0.15383 0.90714 0.0
H189 H 0.22372 0.98821 0.92246 0.0
O190 O 0.28653 0.13624 0.85045 0.0
O191 O 0.20433 0.06577 0.86107 0.0
O192 O 0.23116 0.9776 0.85637 0.0
C193 C 0.23446 0.11792 0.85586 0.0
H194 H 0.18352 0.99268 0.73607 0.0
H195 H 0.3305 0.13455 0.97298 0.0
H196 H 0.3741 0.98249 0.79886 0.0
H197 H 0.46408 0.10522 0.87483 0.0
Co198 Co 0.7115 0.7946 0.52091 0.0
C199 C 0.7112 0.8233 0.5944 0.0
C200 C 0.77639 0.80771 0.58227 0.0
C201 C 0.78275 0.82526 0.61523 0.0
N202 N 0.73146 0.80613 0.56894 0.0
N203 N 0.74222 0.83547 0.6228 0.0
H204 H 0.67744 0.83095 0.59149 0.0
H205 H 0.80503 0.79991 0.56876 0.0
C206 C 0.75902 0.71905 0.50796 0.0
O207 O 0.71311 0.677 0.49735 0.0
N208 N 0.69472 0.7854 0.47218 0.0
C209 C 0.65932 0.79594 0.45527 0.0
C210 C 0.66254 0.78796 0.42095 0.0
C211 C 0.72065 0.77361 0.44741 0.0
N212 N 0.70117 0.77377 0.41593 0.0
C213 C 0.60082 0.70229 0.51529 0.0
C214 C 0.61786 0.63432 0.55807 0.0
C215 C 0.5699 0.61206 0.53872 0.0
C216 C 0.56069 0.64708 0.51795 0.0
C217 C 0.65723 0.68932 0.55414 0.0
N218 N 0.65 0.72196 0.5314 0.0
H219 H 0.59254 0.72854 0.49961 0.0
H220 H 0.69531 0.70425 0.56768 0.0
H221 H 0.63295 0.80896 0.46691 0.0
H222 H 0.7549 0.76753 0.45195 0.0
O223 O 0.67759 0.84002 0.52575 0.0
O224 O 0.76459 0.86977 0.51281 0.0
O225 O 0.76204 0.76456 0.51523 0.0
C226 C 0.7263 0.88118 0.51944 0.0
H227 H 0.81678 0.83357 0.63176 0.0
H228 H 0.63804 0.79231 0.40135 0.0
H229 H 0.62643 0.60877 0.57461 0.0
H230 H 0.52315 0.63174 0.5035 0.0
Co231 Co 0.94483 0.73209 0.85923 0.0
C232 C 0.91843 0.73939 0.9321 0.0
C233 C 0.99842 0.80339 0.91734 0.0
C234 C 0.98942 0.81203 0.95043 0.0
N235 N 0.9542 0.75779 0.90581 0.0
N236 N 0.93907 0.77221 0.95969 0.0
H237 H 0.87746 0.70457 0.93053 0.0
H238 H 0.03426 0.82985 0.90243 0.0
C239 C 0.05803 0.74891 0.84699 0.0
O240 O 0.03934 0.70028 0.8334 0.0
N241 N 0.93671 0.71001 0.81142 0.0
C242 C 0.88982 0.67677 0.79473 0.0
C243 C 0.90079 0.67724 0.76055 0.0
C244 C 0.97484 0.73269 0.78651 0.0
N245 N 0.95447 0.71246 0.75528 0.0
C246 C 0.90777 0.61476 0.85935 0.0
C247 C 0.98762 0.62443 0.9043 0.0
C248 C 0.95976 0.57665 0.885 0.0
C249 C 0.91763 0.57103 0.8634 0.0
C250 C 0.97735 0.66737 0.89892 0.0
N251 N 0.94059 0.66386 0.87482 0.0
H252 H 0.87532 0.60941 0.84269 0.0
H253 H 0.00326 0.70539 0.91192 0.0
H254 H 0.84975 0.65477 0.8063 0.0
H255 H 0.016 0.76568 0.79078 0.0
O256 O 0.8683 0.71481 0.86092 0.0
O257 O 0.93913 0.7942 0.84574 0.0
O258 O 0.02629 0.76671 0.8559 0.0
C259 C 0.88689 0.76547 0.85137 0.0
H260 H 0.01737 0.84602 0.96622 0.0
H261 H 0.87102 0.65379 0.74115 0.0
H262 H 0.02019 0.63042 0.92149 0.0
H263 H 0.89365 0.53378 0.84899 0.0
Co264 Co 0.20863 0.9419 0.19368 0.0
C265 C 0.18659 0.9212 0.26824 0.0
C266 C 0.2011 0.00043 0.25283 0.0
C267 C 0.1906 0.99474 0.28705 0.0
N268 N 0.19923 0.95472 0.24101 0.0
N269 N 0.18083 0.94476 0.29683 0.0
H270 H 0.17975 0.87994 0.26685 0.0
H271 H 0.2086 0.03541 0.2376 0.0
C272 C 0.30267 0.05353 0.17585 0.0
O273 O 0.32958 0.03319 0.16004 0.0
N274 N 0.21511 0.92996 0.14532 0.0
C275 C 0.1991 0.88183 0.12958 0.0
C276 C 0.20334 0.88993 0.09491 0.0
C277 C 0.22558 0.96585 0.11966 0.0
N278 N 0.2202 0.94304 0.0885 0.0
C279 C 0.29146 0.90764 0.18832 0.0
C280 C 0.3644 0.98891 0.23139 0.0
C281 C 0.38356 0.96152 0.21095 0.0
C282 C 0.3459 0.91894 0.19008 0.0
C283 C 0.31047 0.97726 0.22832 0.0
N284 N 0.27522 0.93935 0.20544 0.0
H285 H 0.26359 0.87486 0.17217 0.0
H286 H 0.29927 0.00315 0.24219 0.0
H287 H 0.18367 0.84285 0.14227 0.0
H288 H 0.23425 0.00719 0.12374 0.0
O289 O 0.15009 0.86555 0.19866 0.0
O290 O 0.13905 0.9354 0.18442 0.0
O291 O 0.25472 0.02302 0.18772 0.0
C292 C 0.11672 0.88369 0.19136 0.0
H293 H 0.18939 0.02507 0.3033 0.0
H294 H 0.19348 0.85839 0.07611 0.0
H295 H 0.39186 0.02204 0.24794 0.0
H296 H 0.35868 0.89542 0.17472 0.0
Co297 Co 0.28266 0.19515 0.51967 0.0
C298 C 0.29088 0.17398 0.59311 0.0
C299 C 0.22014 0.18143 0.58257 0.0
C300 C 0.22072 0.17152 0.6167 0.0
N301 N 0.26458 0.18391 0.56778 0.0
N302 N 0.26499 0.1668 0.62318 0.0
H303 H 0.32726 0.17081 0.58959 0.0
H304 H 0.18842 0.18508 0.56956 0.0
C305 C 0.2344 0.2702 0.50788 0.0
O306 O 0.28006 0.31225 0.49694 0.0
N307 N 0.29832 0.20427 0.47084 0.0
C308 C 0.33333 0.19345 0.45368 0.0
C309 C 0.33042 0.20229 0.4195 0.0
C310 C 0.27293 0.21722 0.44635 0.0
N311 N 0.2924 0.21738 0.41481 0.0
C312 C 0.39326 0.28773 0.51326 0.0
C313 C 0.37712 0.3552 0.55703 0.0
C314 C 0.42496 0.37757 0.53755 0.0
C315 C 0.43366 0.34282 0.51618 0.0
C316 C 0.33749 0.30038 0.55283 0.0
N317 N 0.34432 0.26793 0.52972 0.0
H318 H 0.40122 0.26166 0.49718 0.0
H319 H 0.29958 0.28541 0.5666 0.0
H320 H 0.3595 0.18 0.46509 0.0
H321 H 0.23928 0.22417 0.45111 0.0
O322 O 0.31677 0.1498 0.52389 0.0
O323 O 0.22942 0.12002 0.51195 0.0
O324 O 0.2316 0.22475 0.51505 0.0
C325 C 0.26786 0.10864 0.51807 0.0
H326 H 0.18952 0.16531 0.6351 0.0
H327 H 0.3549 0.19816 0.39978 0.0
H328 H 0.36889 0.38054 0.57398 0.0
H329 H 0.47105 0.35828 0.50154 0.0
Co330 Co 0.05581 0.2679 0.85962 0.0
C331 C 0.08219 0.26117 0.93245 0.0
C332 C 0.0022 0.19706 0.91784 0.0
C333 C 0.01116 0.18862 0.95095 0.0
N334 N 0.04643 0.24263 0.90623 0.0
N335 N 0.06152 0.2285 0.96009 0.0
H336 H 0.1232 0.2959 0.93078 0.0
H337 H 0.96642 0.1704 0.90298 0.0
C338 C 0.94224 0.2501 0.84736 0.0
O339 O 0.96053 0.29825 0.83311 0.0
N340 N 0.0637 0.28926 0.81173 0.0
C341 C 0.11025 0.32257 0.79472 0.0
C342 C 0.09886 0.32066 0.76049 0.0
C343 C 0.02549 0.26513 0.78709 0.0
N344 N 0.04531 0.28447 0.75563 0.0
C345 C 0.09194 0.38503 0.85911 0.0
C346 C 0.01223 0.37535 0.90422 0.0
C347 C 0.03987 0.42305 0.8848 0.0
C348 C 0.08189 0.42866 0.86308 0.0
C349 C 0.02269 0.33252 0.89893 0.0
N350 N 0.05944 0.33603 0.8748 0.0
H351 H 0.12433 0.3904 0.84236 0.0
H352 H 0.99701 0.2946 0.9121 0.0
H353 H 0.15039 0.34541 0.80608 0.0
H354 H 0.98472 0.23166 0.79177 0.0
O355 O 0.13254 0.28593 0.86141 0.0
O356 O 0.06224 0.20602 0.84653 0.0
O357 O 0.9743 0.23276 0.8564 0.0
C358 C 0.11445 0.23526 0.85214 0.0
H359 H 0.98327 0.15466 0.96681 0.0
H360 H 0.12824 0.34369 0.7408 0.0
H361 H 0.97974 0.36936 0.9215 0.0
H362 H 0.10568 0.46583 0.84854 0.0
Co363 Co 0.79203 0.05981 0.19181 0.0
C364 C 0.81144 0.08813 0.26493 0.0
C365 C 0.79955 0.00797 0.25502 0.0
C366 C 0.80699 0.01772 0.28945 0.0
N367 N 0.8015 0.05177 0.2398 0.0
N368 N 0.81447 0.068 0.2955 0.0
H369 H 0.81643 0.12834 0.26097 0.0
H370 H 0.79352 0.97157 0.24206 0.0
C371 C 0.69916 0.94659 0.17639 0.0
O372 O 0.67243 0.96555 0.15898 0.0
N373 N 0.78541 0.06808 0.14298 0.0
C374 C 0.80102 0.11544 0.12629 0.0
C375 C 0.79624 0.10579 0.09183 0.0
C376 C 0.77439 0.03088 0.11803 0.0
N377 N 0.77938 0.05248 0.08655 0.0
C378 C 0.7086 0.09337 0.18428 0.0
C379 C 0.63649 0.0151 0.22929 0.0
C380 C 0.61725 0.04204 0.20855 0.0
C381 C 0.65443 0.0829 0.18648 0.0
C382 C 0.68999 0.02577 0.22575 0.0
N383 N 0.72498 0.06244 0.2022 0.0
H384 H 0.73617 0.12505 0.16737 0.0
H385 H 0.70118 0.00033 0.24015 0.0
H386 H 0.81615 0.15494 0.1382 0.0
H387 H 0.76548 0.98949 0.12262 0.0
O388 O 0.85045 0.13667 0.19481 0.0
O389 O 0.86177 0.06601 0.18375 0.0
O390 O 0.74674 0.97823 0.18843 0.0
C391 C 0.88399 0.11814 0.1891 0.0
H392 H 0.80886 0.99089 0.30845 0.0
H393 H 0.80479 0.13602 0.07228 0.0
H394 H 0.60935 0.98315 0.24664 0.0
H395 H 0.64151 0.10588 0.17069 0.0
C396 C 0.24839 0.26096 0.38252 0.0
C397 C 0.27659 0.23151 0.38293 0.0
H398 H 0.21286 0.29851 0.3528 0.0
C399 C 0.29026 0.21737 0.35153 0.0
H400 H 0.23751 0.2733 0.40596 0.0
C401 C 0.27707 0.23301 0.32076 0.0
C402 C 0.24923 0.26283 0.32032 0.0
H403 H 0.31133 0.19421 0.35049 0.0
H404 H 0.28965 0.22225 0.29738 0.0
C405 C 0.23473 0.27616 0.35173 0.0
C406 C 0.92922 0.22758 0.69248 0.0
C407 C 0.95702 0.24104 0.66108 0.0
H408 H 0.93479 0.23137 0.74666 0.0
C409 C 0.01459 0.26821 0.66148 0.0
H410 H 0.88503 0.20614 0.69352 0.0
C411 C 0.0434 0.28176 0.69228 0.0
C412 C 0.01559 0.26895 0.72369 0.0
H413 H 0.03777 0.27991 0.63802 0.0
H414 H 0.08756 0.30231 0.69126 0.0
C415 C 0.95801 0.24153 0.72326 0.0
C416 C 0.77663 0.0281 0.99215 0.0
C417 C 0.74119 0.97117 0.98973 0.0
H418 H 0.81754 0.09806 0.02431 0.0
C419 C 0.72068 0.94138 1.02024 0.0
H420 H 0.7937 0.05315 0.96975 0.0
C421 C 0.73397 0.96774 0.05188 0.0
C422 C 0.76837 0.0247 0.05408 0.0
H423 H 0.6936 0.89765 1.02004 0.0
H424 H 0.71599 0.94346 0.07452 0.0
C425 C 0.79012 0.05432 0.02378 0.0
C426 C 0.71844 0.76133 0.32162 0.0
C427 C 0.74795 0.73316 0.32089 0.0
H428 H 0.68156 0.79719 0.35176 0.0
C429 C 0.7627 0.71976 0.35218 0.0
H430 H 0.70564 0.77202 0.29831 0.0
C431 C 0.74774 0.73328 0.38312 0.0
C432 C 0.71794 0.76113 0.38385 0.0
H433 H 0.78583 0.69867 0.35305 0.0
H434 H 0.75898 0.72093 0.40641 0.0
C435 C 0.7039 0.77529 0.35257 0.0
C436 C 0.98318 0.72477 0.66089 0.0
C437 C 0.04067 0.75059 0.65989 0.0
H438 H 0.91106 0.69359 0.69129 0.0
C439 C 0.06921 0.7643 0.69103 0.0
H440 H 0.95935 0.7128 0.6377 0.0
C441 C 0.04115 0.75213 0.72212 0.0
C442 C 0.98364 0.72622 0.7231 0.0
H443 H 0.11339 0.78463 0.69161 0.0
H444 H 0.06478 0.76248 0.74536 0.0
C445 C 0.95517 0.71302 0.69194 0.0
C446 C 0.23377 0.96628 0.99332 0.0
C447 C 0.25596 0.02321 0.99109 0.0
H448 H 0.20473 0.89625 0.02526 0.0
C449 C 0.2638 0.05282 1.02138 0.0
H450 H 0.22748 0.94202 0.97067 0.0
C451 C 0.25146 0.02665 0.05303 0.0
C452 C 0.23038 0.96977 0.05551 0.0
H453 H 0.27981 0.09652 1.02084 0.0
H454 H 0.25944 0.05174 0.07541 0.0
C455 C 0.22108 0.93995 0.025 0.0
C456 C 0.07736 0.18068 1.00704 0.0
C457 C 0.08909 0.22996 0.99122 0.0
H458 H 0.09221 0.14192 0.04889 0.0
C459 C 0.12717 0.27971 1.00646 0.0
H460 H 0.04887 0.14168 0.99576 0.0
C461 C 0.15253 0.27983 0.03727 0.0
C462 C 0.14075 0.23021 0.05278 0.0
H463 H 0.13668 0.31823 0.99479 0.0
H464 H 0.18185 0.31843 0.04866 0.0
C465 C 0.10277 0.18081 0.03735 0.0
C466 C 0.87605 0.14853 0.32955 0.0
C467 C 0.82984 0.09615 0.32749 0.0
H468 H 0.93518 0.21039 0.36259 0.0
C469 C 0.80278 0.06907 0.3575 0.0
H470 H 0.89776 0.16973 0.30669 0.0
C471 C 0.82324 0.09291 0.38924 0.0
C472 C 0.87171 0.14344 0.39127 0.0
H473 H 0.76709 0.02859 0.3563 0.0
H474 H 0.80359 0.07035 0.4122 0.0
C475 C 0.89733 0.17166 0.36129 0.0
C476 C 0.79612 0.94043 0.69105 0.0
C477 C 0.75277 0.91934 0.71465 0.0
H478 H 0.82576 0.93053 0.64307 0.0
C479 C 0.70303 0.87255 0.70554 0.0
H480 H 0.83524 0.97584 0.69678 0.0
C481 C 0.69796 0.84628 0.67425 0.0
C482 C 0.74258 0.86636 0.65187 0.0
H483 H 0.66848 0.85558 0.72276 0.0
H484 H 0.66034 0.80909 0.66822 0.0
C485 C 0.79098 0.91434 0.66016 0.0
C486 C 0.87376 0.72094 1.00637 0.0
C487 C 0.91169 0.77069 0.991 0.0
H488 H 0.81953 0.68217 0.04883 0.0
C489 C 0.9236 0.81993 1.00695 0.0
H490 H 0.86409 0.68242 0.99465 0.0
C491 C 0.89853 0.81978 0.03745 0.0
C492 C 0.8607 0.77039 0.05302 0.0
H493 H 0.952 0.85894 0.99562 0.0
H494 H 0.9092 0.85865 0.04904 0.0
C495 C 0.84875 0.72079 0.03738 0.0
C496 C 0.11324 0.91551 0.38224 0.0
C497 C 0.11786 0.87084 0.39352 0.0
H498 H 0.12794 0.97272 0.34295 0.0
C499 C 0.14635 0.85215 0.37335 0.0
H500 H 0.09202 0.93111 0.39748 0.0
C501 C 0.1678 0.87661 0.34161 0.0
C502 C 0.16148 0.92041 0.32993 0.0
H503 H 0.15022 0.8176 0.38158 0.0
H504 H 0.18886 0.86109 0.32617 0.0
C505 C 0.13449 0.93978 0.35097 0.0
C506 C 0.26754 0.07153 0.6875 0.0
C507 C 0.26828 0.09821 0.71786 0.0
H508 H 0.26794 0.07417 0.63284 0.0
C509 C 0.27579 0.15121 0.71642 0.0
H510 H 0.26176 0.0306 0.6882 0.0
C511 C 0.27823 0.17543 0.68496 0.0
C512 C 0.27486 0.14767 0.65464 0.0
H513 H 0.27588 0.17216 0.73954 0.0
H514 H 0.28013 0.21472 0.68417 0.0
C515 C 0.27149 0.09643 0.65605 0.0
C516 C 0.52906 0.51741 0.19069 0.0
C517 C 0.55802 0.53583 0.15988 0.0
H518 H 0.4513 0.46819 0.21486 0.0
C519 C 0.52902 0.51781 0.12906 0.0
H520 H 0.55013 0.53126 0.21483 0.0
C521 C 0.47243 0.4817 0.12908 0.0
C522 C 0.44343 0.46367 0.15991 0.0
H523 H 0.5502 0.53147 0.10493 0.0
H524 H 0.45125 0.46807 0.10496 0.0
C525 C 0.47237 0.48205 0.19071 0.0
C526 C 0.98273 0.46572 0.46787 0.0
C527 C 0.9713 0.43746 0.499 0.0
H528 H 0.01358 0.54358 0.44308 0.0
C529 C 0.98375 0.46725 0.52953 0.0
H530 H 0.97364 0.44368 0.44399 0.0
C531 C 0.00758 0.52413 0.529 0.0
C532 C 0.01869 0.55245 0.49794 0.0
H533 H 0.97604 0.44659 0.55387 0.0
H534 H 0.0166 0.54598 0.55296 0.0
C535 C 0.00558 0.5227 0.46735 0.0
C536 C 0.48426 0.01174 0.86721 0.0
C537 C 0.46652 0.02385 0.83666 0.0
H538 H 0.53277 0.98141 0.89055 0.0
C539 C 0.48495 0.01411 0.80559 0.0
H540 H 0.47005 0.01801 0.89151 0.0
C541 C 0.5203 0.99282 0.80503 0.0
C542 C 0.53775 0.98025 0.83552 0.0
H543 H 0.47189 0.02292 0.78164 0.0
H544 H 0.53391 0.986 0.78066 0.0
C545 C 0.51929 0.98985 0.86663 0.0
C546 C 0.48063 0.46589 0.56909 0.0
C547 C 0.46354 0.43737 0.53809 0.0
H548 H 0.52776 0.5437 0.59361 0.0
C549 C 0.48089 0.4668 0.50742 0.0
H550 H 0.46775 0.44417 0.59309 0.0
C551 C 0.5143 0.52367 0.50772 0.0
C552 C 0.53171 0.55218 0.53869 0.0
H553 H 0.46772 0.44591 0.48318 0.0
H554 H 0.52732 0.5453 0.48369 0.0
C555 C 0.51483 0.52271 0.56939 0.0
C556 C 0.98885 0.51735 0.85445 0.0
C557 C 0.97826 0.53566 0.88528 0.0
H558 H 0.01774 0.46842 0.83023 0.0
C559 C 0.98952 0.51782 0.91609 0.0
H560 H 0.98142 0.53111 0.83032 0.0
C561 C 0.01031 0.48191 0.91603 0.0
C562 C 0.02133 0.46399 0.88517 0.0
H563 H 0.98198 0.53145 0.94023 0.0
H564 H 0.01806 0.46834 0.94013 0.0
C565 C 0.01049 0.48223 0.8544 0.0
C566 C 0.52986 0.01459 0.24004 0.0
C567 C 0.55797 0.02437 0.20894 0.0
H568 H 0.45285 0.98621 0.26506 0.0
C569 C 0.52804 0.01212 0.17843 0.0
H570 H 0.55178 0.0235 0.26397 0.0
C571 C 0.47113 0.99 0.17907 0.0
C572 C 0.44311 0.98031 0.21022 0.0
H573 H 0.54846 0.01842 0.15411 0.0
H574 H 0.44916 0.98142 0.15519 0.0
C575 C 0.47322 0.99308 0.24067 0.0
C576 C 0.03019 0.15296 0.20205 0.0
C577 C 0.0606 0.20863 0.19344 0.0
H578 H 0.95183 0.08186 0.20737 0.0
C579 C 0.03209 0.2363 0.18503 0.0
H580 H 0.0503 0.13013 0.20893 0.0
C581 C 0.97426 0.20803 0.18447 0.0
C582 C 0.94449 0.15166 0.19174 0.0
H583 H 0.05433 0.27921 0.17826 0.0
H584 H 0.95305 0.22965 0.17732 0.0
C585 C 0.97333 0.125 0.20103 0.0
C586 C 0.73395 0.97071 0.50253 0.0
C587 C 0.74174 0.93831 0.52656 0.0
H588 H 0.7592 0.0527 0.48579 0.0
C589 C 0.77488 0.96338 0.55502 0.0
H590 H 0.70939 0.95214 0.48003 0.0
C591 C 0.80318 0.02013 0.55824 0.0
C592 C 0.7989 0.0531 0.53307 0.0
H593 H 0.78206 0.93927 0.57362 0.0
H594 H 0.83145 0.03845 0.57927 0.0
C595 C 0.76224 0.02804 0.50589 0.0
C596 C 0.85049 0.87673 0.84277 0.0
C597 C 0.79463 0.85015 0.85095 0.0
H598 H 0.9222 0.87102 0.83578 0.0
C599 C 0.76729 0.79347 0.85728 0.0
H600 H 0.87271 0.92015 0.83722 0.0
C601 C 0.7964 0.7647 0.85684 0.0
C602 C 0.85286 0.79218 0.84944 0.0
H603 H 0.72417 0.77193 0.86361 0.0
H604 H 0.77509 0.72148 0.86286 0.0
C605 C 0.87897 0.84827 0.84179 0.0
C606 C 0.97008 0.84889 0.20175 0.0
C607 C 0.94009 0.79269 0.19446 0.0
H608 H 0.04816 0.9206 0.2064 0.0
C609 C 0.96902 0.76488 0.18771 0.0
H610 H 0.94963 0.87189 0.20727 0.0
C611 C 0.02684 0.79342 0.1876 0.0
C612 C 0.0562 0.85017 0.19361 0.0
H613 H 0.94711 0.72157 0.18199 0.0
H614 H 0.04839 0.77161 0.18179 0.0
C615 C 0.02696 0.8771 0.20112 0.0
C616 C 0.19078 0.96977 0.55677 0.0
C617 C 0.19407 0.93672 0.53126 0.0
H618 H 0.2134 0.05087 0.57262 0.0
C619 C 0.23043 0.96166 0.5039 0.0
H620 H 0.16285 0.95155 0.578 0.0
C621 C 0.25929 0.01899 0.50069 0.0
C622 C 0.25248 0.05152 0.52509 0.0
H623 H 0.2328 0.93695 0.48358 0.0
H624 H 0.28346 0.03751 0.47803 0.0
C625 C 0.21977 0.02655 0.55374 0.0
C626 C 0.2049 0.23646 0.85946 0.0
C627 C 0.14904 0.20914 0.85043 0.0
H628 H 0.27682 0.22929 0.86802 0.0
C629 C 0.12392 0.1536 0.84153 0.0
H630 H 0.22544 0.27926 0.86648 0.0
C631 C 0.15262 0.12539 0.84292 0.0
C632 C 0.20775 0.15168 0.85286 0.0
H633 H 0.08123 0.13105 0.83418 0.0
H634 H 0.1311 0.08234 0.83635 0.0
C635 C 0.23425 0.20795 0.86038 0.0
C636 C 0.32966 0.19386 0.15794 0.0
C637 C 0.32935 0.21182 0.19127 0.0
H638 H 0.32326 0.12853 0.12673 0.0
C639 C 0.33355 0.18293 0.21895 0.0
H640 H 0.32538 0.21534 0.13633 0.0
C641 C 0.33148 0.13305 0.21345 0.0
C642 C 0.32617 0.1124 0.18026 0.0
H643 H 0.33208 0.19559 0.24479 0.0
H644 H 0.32878 0.10822 0.23524 0.0
C645 C 0.32852 0.14442 0.15242 0.0
C646 C 0.18559 0.32425 0.51577 0.0
C647 C 0.18465 0.27396 0.51378 0.0
H648 H 0.13872 0.36442 0.52465 0.0
C649 C 0.1353 0.22543 0.51992 0.0
H650 H 0.22324 0.36235 0.51146 0.0
C651 C 0.08824 0.22669 0.52812 0.0
C652 C 0.08841 0.27647 0.52984 0.0
H653 H 0.1327 0.18584 0.51855 0.0
H654 H 0.05129 0.18804 0.53274 0.0
C655 C 0.13759 0.3255 0.52379 0.0
C656 C 0.80389 0.13328 0.83086 0.0
C657 C 0.78834 0.11341 0.86419 0.0
H658 H 0.86571 0.19533 0.79927 0.0
C659 C 0.81741 0.14627 0.89187 0.0
H660 H 0.78219 0.10784 0.80922 0.0
C661 C 0.86538 0.19585 0.88614 0.0
C662 C 0.88389 0.21309 0.85275 0.0
H663 H 0.80656 0.13099 0.91768 0.0
H664 H 0.89077 0.21801 0.9077 0.0
C665 C 0.85136 0.18326 0.82514 0.0
C666 C 0.66896 0.85381 0.15413 0.0
C667 C 0.67628 0.88795 0.18185 0.0
H668 H 0.6675 0.78066 0.13772 0.0
C669 C 0.67483 0.86906 0.21514 0.0
H670 H 0.67099 0.86825 0.1283 0.0
C671 C 0.67167 0.81869 0.22056 0.0
C672 C 0.6709 0.78747 0.19268 0.0
H673 H 0.68104 0.89536 0.23679 0.0
H674 H 0.67611 0.80726 0.2462 0.0
C675 C 0.66685 0.80386 0.15954 0.0
C676 C 0.80769 0.66469 0.51548 0.0
C677 C 0.80863 0.71502 0.51396 0.0
H678 H 0.85454 0.62437 0.52395 0.0
C679 C 0.85778 0.76334 0.52089 0.0
H680 H 0.77021 0.62673 0.51055 0.0
C681 C 0.90447 0.76181 0.52963 0.0
C682 C 0.90446 0.71209 0.53061 0.0
H683 H 0.86052 0.803 0.51978 0.0
H684 H 0.94116 0.80031 0.53501 0.0
C685 C 0.85554 0.66324 0.52369 0.0
C686 C 0.19318 0.86904 0.82905 0.0
C687 C 0.21098 0.88703 0.86241 0.0
H688 H 0.13007 0.80791 0.79779 0.0
C689 C 0.18488 0.85193 0.88989 0.0
H690 H 0.21277 0.89602 0.80759 0.0
C691 C 0.13735 0.80188 0.88426 0.0
C692 C 0.11653 0.78637 0.85112 0.0
H693 H 0.19758 0.86562 0.91579 0.0
H694 H 0.11398 0.77788 0.90598 0.0
C695 C 0.14628 0.81865 0.8234 0.0
loop_
_geom_bond_atom_site_label_1
_geom_bond_atom_site_label_2
_geom_bond_distance
_geom_bond_site_symmetry_2
_ccdc_geom_bond_type
Co0 N4 2.148 . S
Co0 N10 2.128 . S
Co0 N20 2.194 . S
Co0 O25 2.351 . S
Co0 O26 2.155 . S
Co0 O27 2.096 . S
C1 N4 1.301 . S
C1 N5 1.328 . S
C1 H6 0.930 . S
C2 C3 1.333 . S
C2 N4 1.317 . S
C2 H7 0.930 . S
C3 C2 1.333 . S
C3 N5 1.350 . S
C3 H29 0.931 . S
N4 Co0 2.148 . S
N4 C1 1.301 . S
N4 C2 1.317 . S
N5 C1 1.328 . S
N5 C3 1.350 . S
H6 C1 0.930 . S
H7 C2 0.930 . S
C8 O9 1.224 . S
C8 O27 1.247 . S
O9 C8 1.224 . S
N10 Co0 2.128 . S
N10 C11 1.355 . S
N10 C13 1.311 . S
C11 N10 1.355 . S
C11 C12 1.363 . S
C11 H23 0.929 . S
C12 C11 1.363 . S
C12 N14 1.375 . S
C12 H30 0.931 . S
C13 N10 1.311 . S
C13 N14 1.347 . S
C13 H24 0.929 . S
N14 C12 1.375 . S
N14 C13 1.347 . S
C15 C18 1.365 . S
C15 N20 1.328 . S
C15 H21 0.929 . S
C16 C17 1.362 . S
C16 C19 1.378 . S
C16 H31 0.929 . S
C17 C16 1.362 . S
C17 C18 1.366 . S
C18 C15 1.365 . S
C18 C17 1.366 . S
C18 H32 0.930 . S
C19 C16 1.378 . S
C19 N20 1.315 . S
C19 H22 0.930 . S
N20 Co0 2.194 . S
N20 C15 1.328 . S
N20 C19 1.315 . S
H21 C15 0.929 . S
H22 C19 0.930 . S
H23 C11 0.929 . S
H24 C13 0.929 . S
O25 Co0 2.351 . S
O25 C28 1.244 . S
O26 Co0 2.155 . S
O26 C28 1.240 . S
O27 Co0 2.096 . S
O27 C8 1.247 . S
C28 O25 1.244 . S
C28 O26 1.240 . S
H29 C3 0.931 . S
H30 C12 0.931 . S
H31 C16 0.929 . S
H32 C18 0.930 . S
Co33 N37 2.148 . S
Co33 N43 2.128 . S
Co33 N53 2.194 . S
Co33 O58 2.351 . S
Co33 O59 2.155 . S
Co33 O60 2.096 . S
C34 N37 1.301 . S
C34 N38 1.328 . S
C34 H39 0.930 . S
C35 C36 1.333 . S
C35 N37 1.317 . S
C35 H40 0.930 . S
C36 C35 1.333 . S
C36 N38 1.350 . S
C36 H62 0.931 . S
N37 Co33 2.148 . S
N37 C34 1.301 . S
N37 C35 1.317 . S
N38 C34 1.328 . S
N38 C36 1.350 . S
H39 C34 0.930 . S
H40 C35 0.930 . S
C41 O42 1.224 . S
C41 O60 1.247 1_455 S
O42 C41 1.224 . S
N43 Co33 2.128 . S
N43 C44 1.355 . S
N43 C46 1.311 . S
C44 N43 1.355 . S
C44 C45 1.363 . S
C44 H56 0.929 . S
C45 C44 1.363 . S
C45 N47 1.375 . S
C45 H63 0.931 . S
C46 N43 1.311 . S
C46 N47 1.347 . S
C46 H57 0.929 . S
N47 C45 1.375 . S
N47 C46 1.347 . S
C48 C51 1.365 . S
C48 N53 1.328 . S
C48 H54 0.929 . S
C49 C50 1.362 . S
C49 C52 1.378 . S
C49 H64 0.929 . S
C50 C49 1.362 . S
C50 C51 1.366 . S
C51 C48 1.365 . S
C51 C50 1.366 . S
C51 H65 0.930 . S
C52 C49 1.378 . S
C52 N53 1.315 . S
C52 H55 0.930 . S
N53 Co33 2.194 . S
N53 C48 1.328 . S
N53 C52 1.315 . S
H54 C48 0.929 . S
H55 C52 0.930 . S
H56 C44 0.929 . S
H57 C46 0.929 . S
O58 Co33 2.351 . S
O58 C61 1.244 . S
O59 Co33 2.155 . S
O59 C61 1.240 . S
O60 Co33 2.096 . S
O60 C41 1.247 1_655 S
C61 O58 1.244 . S
C61 O59 1.240 . S
H62 C36 0.931 . S
H63 C45 0.931 . S
H64 C49 0.929 . S
H65 C51 0.930 . S
Co66 N70 2.148 . S
Co66 N76 2.128 . S
Co66 N86 2.194 . S
Co66 O91 2.351 . S
Co66 O92 2.155 . S
Co66 O93 2.096 . S
C67 N70 1.301 . S
C67 N71 1.328 . S
C67 H72 0.930 . S
C68 C69 1.333 . S
C68 N70 1.317 . S
C68 H73 0.930 . S
C69 C68 1.333 . S
C69 N71 1.350 . S
C69 H95 0.931 . S
N70 Co66 2.148 . S
N70 C67 1.301 . S
N70 C68 1.317 . S
N71 C67 1.328 . S
N71 C69 1.350 . S
H72 C67 0.930 . S
H73 C68 0.930 . S
C74 O75 1.224 . S
C74 O93 1.247 1_545 S
O75 C74 1.224 . S
N76 Co66 2.128 . S
N76 C77 1.355 . S
N76 C79 1.311 . S
C77 N76 1.355 . S
C77 C78 1.363 . S
C77 H89 0.929 . S
C78 C77 1.363 . S
C78 N80 1.375 . S
C78 H96 0.931 . S
C79 N76 1.311 . S
C79 N80 1.347 . S
C79 H90 0.929 . S
N80 C78 1.375 . S
N80 C79 1.347 . S
C81 C84 1.365 . S
C81 N86 1.328 . S
C81 H87 0.929 . S
C82 C83 1.362 . S
C82 C85 1.378 . S
C82 H97 0.929 . S
C83 C82 1.362 . S
C83 C84 1.366 . S
C84 C81 1.365 . S
C84 C83 1.366 . S
C84 H98 0.930 . S
C85 C82 1.378 . S
C85 N86 1.315 . S
C85 H88 0.930 . S
N86 Co66 2.194 . S
N86 C81 1.328 . S
N86 C85 1.315 . S
H87 C81 0.929 . S
H88 C85 0.930 . S
H89 C77 0.929 . S
H90 C79 0.929 . S
O91 Co66 2.351 . S
O91 C94 1.244 . S
O92 Co66 2.155 . S
O92 C94 1.240 . S
O93 Co66 2.096 . S
O93 C74 1.247 1_565 S
C94 O91 1.244 . S
C94 O92 1.240 . S
H95 C69 0.931 . S
H96 C78 0.931 . S
H97 C82 0.929 . S
H98 C84 0.930 . S
Co99 N103 2.148 . S
Co99 N109 2.128 . S
Co99 N119 2.194 . S
Co99 O124 2.351 . S
Co99 O125 2.155 . S
Co99 O126 2.096 . S
C100 N103 1.301 . S
C100 N104 1.328 . S
C100 H105 0.930 . S
C101 C102 1.333 . S
C101 N103 1.317 . S
C101 H106 0.930 . S
C102 C101 1.333 . S
C102 N104 1.350 . S
C102 H128 0.931 . S
N103 Co99 2.148 . S
N103 C100 1.301 . S
N103 C101 1.317 . S
N104 C100 1.328 . S
N104 C102 1.350 . S
H105 C100 0.930 . S
H106 C101 0.930 . S
C107 O108 1.224 . S
C107 O126 1.247 . S
O108 C107 1.224 . S
N109 Co99 2.128 . S
N109 C110 1.355 . S
N109 C112 1.311 . S
C110 N109 1.355 . S
C110 C111 1.363 . S
C110 H122 0.929 . S
C111 C110 1.363 . S
C111 N113 1.375 . S
C111 H129 0.931 . S
C112 N109 1.311 . S
C112 N113 1.347 . S
C112 H123 0.929 . S
N113 C111 1.375 . S
N113 C112 1.347 . S
C114 C117 1.365 . S
C114 N119 1.328 . S
C114 H120 0.929 . S
C115 C116 1.362 . S
C115 C118 1.378 . S
C115 H130 0.929 . S
C116 C115 1.362 . S
C116 C117 1.366 . S
C117 C114 1.365 . S
C117 C116 1.366 . S
C117 H131 0.930 . S
C118 C115 1.378 . S
C118 N119 1.315 . S
C118 H121 0.930 . S
N119 Co99 2.194 . S
N119 C114 1.328 . S
N119 C118 1.315 . S
H120 C114 0.929 . S
H121 C118 0.930 . S
H122 C110 0.929 . S
H123 C112 0.929 . S
O124 Co99 2.351 . S
O124 C127 1.244 . S
O125 Co99 2.155 . S
O125 C127 1.240 . S
O126 Co99 2.096 . S
O126 C107 1.247 . S
C127 O124 1.244 . S
C127 O125 1.240 . S
H128 C102 0.931 . S
H129 C111 0.931 . S
H130 C115 0.929 . S
H131 C117 0.930 . S
Co132 N136 2.148 . S
Co132 N142 2.128 . S
Co132 N152 2.194 . S
Co132 O157 2.351 . S
Co132 O158 2.155 . S
Co132 O159 2.096 . S
C133 N136 1.301 . S
C133 N137 1.328 . S
C133 H138 0.930 . S
C134 C135 1.333 . S
C134 N136 1.317 . S
C134 H139 0.930 . S
C135 C134 1.333 . S
C135 N137 1.350 . S
C135 H161 0.931 . S
N136 Co132 2.148 . S
N136 C133 1.301 . S
N136 C134 1.317 . S
N137 C133 1.328 . S
N137 C135 1.350 . S
H138 C133 0.930 . S
H139 C134 0.930 . S
C140 O141 1.224 . S
C140 O159 1.247 1_655 S
O141 C140 1.224 . S
N142 Co132 2.128 . S
N142 C143 1.355 . S
N142 C145 1.311 . S
C143 N142 1.355 . S
C143 C144 1.363 . S
C143 H155 0.929 . S
C144 C143 1.363 . S
C144 N146 1.375 . S
C144 H162 0.931 . S
C145 N142 1.311 . S
C145 N146 1.347 . S
C145 H156 0.929 . S
N146 C144 1.375 . S
N146 C145 1.347 . S
C147 C150 1.365 . S
C147 N152 1.328 . S
C147 H153 0.929 . S
C148 C149 1.362 . S
C148 C151 1.378 . S
C148 H163 0.929 . S
C149 C148 1.362 . S
C149 C150 1.366 . S
C150 C147 1.365 . S
C150 C149 1.366 . S
C150 H164 0.930 . S
C151 C148 1.378 . S
C151 N152 1.315 . S
C151 H154 0.930 . S
N152 Co132 2.194 . S
N152 C147 1.328 . S
N152 C151 1.315 . S
H153 C147 0.929 . S
H154 C151 0.930 . S
H155 C143 0.929 . S
H156 C145 0.929 . S
O157 Co132 2.351 . S
O157 C160 1.244 . S
O158 Co132 2.155 . S
O158 C160 1.240 . S
O159 Co132 2.096 . S
O159 C140 1.247 1_455 S
C160 O157 1.244 . S
C160 O158 1.240 . S
H161 C135 0.931 . S
H162 C144 0.931 . S
H163 C148 0.929 . S
H164 C150 0.930 . S
Co165 N169 2.148 . S
Co165 N175 2.128 . S
Co165 N185 2.194 . S
Co165 O190 2.351 . S
Co165 O191 2.155 . S
Co165 O192 2.096 . S
C166 N169 1.301 . S
C166 N170 1.328 . S
C166 H171 0.930 . S
C167 C168 1.333 . S
C167 N169 1.317 . S
C167 H172 0.930 . S
C168 C167 1.333 . S
C168 N170 1.350 . S
C168 H194 0.931 . S
N169 Co165 2.148 . S
N169 C166 1.301 . S
N169 C167 1.317 . S
N170 C166 1.328 . S
N170 C168 1.350 . S
H171 C166 0.930 . S
H172 C167 0.930 . S
C173 O174 1.224 . S
C173 O192 1.247 1_565 S
O174 C173 1.224 . S
N175 Co165 2.128 . S
N175 C176 1.355 . S
N175 C178 1.311 . S
C176 N175 1.355 . S
C176 C177 1.363 . S
C176 H188 0.929 . S
C177 C176 1.363 . S
C177 N179 1.375 . S
C177 H195 0.931 . S
C178 N175 1.311 . S
C178 N179 1.347 . S
C178 H189 0.929 . S
N179 C177 1.375 . S
N179 C178 1.347 . S
C180 C183 1.365 . S
C180 N185 1.328 . S
C180 H186 0.929 . S
C181 C182 1.362 . S
C181 C184 1.378 . S
C181 H196 0.929 . S
C182 C181 1.362 . S
C182 C183 1.366 . S
C183 C180 1.365 . S
C183 C182 1.366 . S
C183 H197 0.930 . S
C184 C181 1.378 . S
C184 N185 1.315 . S
C184 H187 0.930 . S
N185 Co165 2.194 . S
N185 C180 1.328 . S
N185 C184 1.315 . S
H186 C180 0.929 . S
H187 C184 0.930 . S
H188 C176 0.929 . S
H189 C178 0.929 . S
O190 Co165 2.351 . S
O190 C193 1.244 . S
O191 Co165 2.155 . S
O191 C193 1.240 . S
O192 Co165 2.096 . S
O192 C173 1.247 1_545 S
C193 O190 1.244 . S
C193 O191 1.240 . S
H194 C168 0.931 . S
H195 C177 0.931 . S
H196 C181 0.929 . S
H197 C183 0.930 . S
Co198 N202 2.148 . S
Co198 N208 2.128 . S
Co198 N218 2.194 . S
Co198 O223 2.351 . S
Co198 O224 2.155 . S
Co198 O225 2.096 . S
C199 N202 1.301 . S
C199 N203 1.328 . S
C199 H204 0.930 . S
C200 C201 1.333 . S
C200 N202 1.317 . S
C200 H205 0.930 . S
C201 C200 1.333 . S
C201 N203 1.350 . S
C201 H227 0.931 . S
N202 Co198 2.148 . S
N202 C199 1.301 . S
N202 C200 1.317 . S
N203 C199 1.328 . S
N203 C201 1.350 . S
H204 C199 0.930 . S
H205 C200 0.930 . S
C206 O207 1.224 . S
C206 O225 1.247 . S
O207 C206 1.224 . S
N208 Co198 2.128 . S
N208 C209 1.355 . S
N208 C211 1.311 . S
C209 N208 1.355 . S
C209 C210 1.363 . S
C209 H221 0.929 . S
C210 C209 1.363 . S
C210 N212 1.375 . S
C210 H228 0.931 . S
C211 N208 1.311 . S
C211 N212 1.347 . S
C211 H222 0.929 . S
N212 C210 1.375 . S
N212 C211 1.347 . S
C213 C216 1.365 . S
C213 N218 1.328 . S
C213 H219 0.929 . S
C214 C215 1.362 . S
C214 C217 1.378 . S
C214 H229 0.929 . S
C215 C214 1.362 . S
C215 C216 1.366 . S
C216 C213 1.365 . S
C216 C215 1.366 . S
C216 H230 0.930 . S
C217 C214 1.378 . S
C217 N218 1.315 . S
C217 H220 0.930 . S
N218 Co198 2.194 . S
N218 C213 1.328 . S
N218 C217 1.315 . S
H219 C213 0.929 . S
H220 C217 0.930 . S
H221 C209 0.929 . S
H222 C211 0.929 . S
O223 Co198 2.351 . S
O223 C226 1.244 . S
O224 Co198 2.155 . S
O224 C226 1.240 . S
O225 Co198 2.096 . S
O225 C206 1.247 . S
C226 O223 1.244 . S
C226 O224 1.240 . S
H227 C201 0.931 . S
H228 C210 0.931 . S
H229 C214 0.929 . S
H230 C216 0.930 . S
Co231 N235 2.148 . S
Co231 N241 2.128 . S
Co231 N251 2.194 . S
Co231 O256 2.351 . S
Co231 O257 2.155 . S
Co231 O258 2.096 . S
C232 N235 1.301 . S
C232 N236 1.328 . S
C232 H237 0.930 . S
C233 C234 1.333 . S
C233 N235 1.317 . S
C233 H238 0.930 . S
C234 C233 1.333 . S
C234 N236 1.350 . S
C234 H260 0.931 . S
N235 Co231 2.148 . S
N235 C232 1.301 . S
N235 C233 1.317 . S
N236 C232 1.328 . S
N236 C234 1.350 . S
H237 C232 0.930 . S
H238 C233 0.930 . S
C239 O240 1.224 . S
C239 O258 1.247 1_455 S
O240 C239 1.224 . S
N241 Co231 2.128 . S
N241 C242 1.355 . S
N241 C244 1.311 . S
C242 N241 1.355 . S
C242 C243 1.363 . S
C242 H254 0.929 . S
C243 C242 1.363 . S
C243 N245 1.375 . S
C243 H261 0.931 . S
C244 N241 1.311 . S
C244 N245 1.347 . S
C244 H255 0.929 . S
N245 C243 1.375 . S
N245 C244 1.347 . S
C246 C249 1.365 . S
C246 N251 1.328 . S
C246 H252 0.929 . S
C247 C248 1.362 . S
C247 C250 1.378 . S
C247 H262 0.929 . S
C248 C247 1.362 . S
C248 C249 1.366 . S
C249 C246 1.365 . S
C249 C248 1.366 . S
C249 H263 0.930 . S
C250 C247 1.378 . S
C250 N251 1.315 . S
C250 H253 0.930 . S
N251 Co231 2.194 . S
N251 C246 1.328 . S
N251 C250 1.315 . S
H252 C246 0.929 . S
H253 C250 0.930 . S
H254 C242 0.929 . S
H255 C244 0.929 . S
O256 Co231 2.351 . S
O256 C259 1.244 . S
O257 Co231 2.155 . S
O257 C259 1.240 . S
O258 Co231 2.096 . S
O258 C239 1.247 1_655 S
C259 O256 1.244 . S
C259 O257 1.240 . S
H260 C234 0.931 . S
H261 C243 0.931 . S
H262 C247 0.929 . S
H263 C249 0.930 . S
Co264 N268 2.148 . S
Co264 N274 2.128 . S
Co264 N284 2.194 . S
Co264 O289 2.351 . S
Co264 O290 2.155 . S
Co264 O291 2.096 . S
C265 N268 1.301 . S
C265 N269 1.328 . S
C265 H270 0.930 . S
C266 C267 1.333 . S
C266 N268 1.317 . S
C266 H271 0.930 . S
C267 C266 1.333 . S
C267 N269 1.350 . S
C267 H293 0.931 . S
N268 Co264 2.148 . S
N268 C265 1.301 . S
N268 C266 1.317 . S
N269 C265 1.328 . S
N269 C267 1.350 . S
H270 C265 0.930 . S
H271 C266 0.930 . S
C272 O273 1.224 . S
C272 O291 1.247 1_545 S
O273 C272 1.224 . S
N274 Co264 2.128 . S
N274 C275 1.355 . S
N274 C277 1.311 . S
C275 N274 1.355 . S
C275 C276 1.363 . S
C275 H287 0.929 . S
C276 C275 1.363 . S
C276 N278 1.375 . S
C276 H294 0.931 . S
C277 N274 1.311 . S
C277 N278 1.347 . S
C277 H288 0.929 . S
N278 C276 1.375 . S
N278 C277 1.347 . S
C279 C282 1.365 . S
C279 N284 1.328 . S
C279 H285 0.929 . S
C280 C281 1.362 . S
C280 C283 1.378 . S
C280 H295 0.929 . S
C281 C280 1.362 . S
C281 C282 1.366 . S
C282 C279 1.365 . S
C282 C281 1.366 . S
C282 H296 0.930 . S
C283 C280 1.378 . S
C283 N284 1.315 . S
C283 H286 0.930 . S
N284 Co264 2.194 . S
N284 C279 1.328 . S
N284 C283 1.315 . S
H285 C279 0.929 . S
H286 C283 0.930 . S
H287 C275 0.929 . S
H288 C277 0.929 . S
O289 Co264 2.351 . S
O289 C292 1.244 . S
O290 Co264 2.155 . S
O290 C292 1.240 . S
O291 Co264 2.096 . S
O291 C272 1.247 1_565 S
C292 O289 1.244 . S
C292 O290 1.240 . S
H293 C267 0.931 . S
H294 C276 0.931 . S
H295 C280 0.929 . S
H296 C282 0.930 . S
Co297 N301 2.148 . S
Co297 N307 2.128 . S
Co297 N317 2.194 . S
Co297 O322 2.351 . S
Co297 O323 2.155 . S
Co297 O324 2.096 . S
C298 N301 1.301 . S
C298 N302 1.328 . S
C298 H303 0.930 . S
C299 C300 1.333 . S
C299 N301 1.317 . S
C299 H304 0.930 . S
C300 C299 1.333 . S
C300 N302 1.350 . S
C300 H326 0.931 . S
N301 Co297 2.148 . S
N301 C298 1.301 . S
N301 C299 1.317 . S
N302 C298 1.328 . S
N302 C300 1.350 . S
H303 C298 0.930 . S
H304 C299 0.930 . S
C305 O306 1.224 . S
C305 O324 1.247 . S
O306 C305 1.224 . S
N307 Co297 2.128 . S
N307 C308 1.355 . S
N307 C310 1.311 . S
C308 N307 1.355 . S
C308 C309 1.363 . S
C308 H320 0.929 . S
C309 C308 1.363 . S
C309 N311 1.375 . S
C309 H327 0.931 . S
C310 N307 1.311 . S
C310 N311 1.347 . S
C310 H321 0.929 . S
N311 C309 1.375 . S
N311 C310 1.347 . S
C312 C315 1.365 . S
C312 N317 1.328 . S
C312 H318 0.929 . S
C313 C314 1.362 . S
C313 C316 1.378 . S
C313 H328 0.929 . S
C314 C313 1.362 . S
C314 C315 1.366 . S
C315 C312 1.365 . S
C315 C314 1.366 . S
C315 H329 0.930 . S
C316 C313 1.378 . S
C316 N317 1.315 . S
C316 H319 0.930 . S
N317 Co297 2.194 . S
N317 C312 1.328 . S
N317 C316 1.315 . S
H318 C312 0.929 . S
H319 C316 0.930 . S
H320 C308 0.929 . S
H321 C310 0.929 . S
O322 Co297 2.351 . S
O322 C325 1.244 . S
O323 Co297 2.155 . S
O323 C325 1.240 . S
O324 Co297 2.096 . S
O324 C305 1.247 . S
C325 O322 1.244 . S
C325 O323 1.240 . S
H326 C300 0.931 . S
H327 C309 0.931 . S
H328 C313 0.929 . S
H329 C315 0.930 . S
Co330 N334 2.148 . S
Co330 N340 2.128 . S
Co330 N350 2.194 . S
Co330 O355 2.351 . S
Co330 O356 2.155 . S
Co330 O357 2.096 . S
C331 N334 1.301 . S
C331 N335 1.328 . S
C331 H336 0.930 . S
C332 C333 1.333 . S
C332 N334 1.317 . S
C332 H337 0.930 . S
C333 C332 1.333 . S
C333 N335 1.350 . S
C333 H359 0.931 . S
N334 Co330 2.148 . S
N334 C331 1.301 . S
N334 C332 1.317 . S
N335 C331 1.328 . S
N335 C333 1.350 . S
H336 C331 0.930 . S
H337 C332 0.930 . S
C338 O339 1.224 . S
C338 O357 1.247 1_655 S
O339 C338 1.224 . S
N340 Co330 2.128 . S
N340 C341 1.355 . S
N340 C343 1.311 . S
C341 N340 1.355 . S
C341 C342 1.363 . S
C341 H353 0.929 . S
C342 C341 1.363 . S
C342 N344 1.375 . S
C342 H360 0.931 . S
C343 N340 1.311 . S
C343 N344 1.347 . S
C343 H354 0.929 . S
N344 C342 1.375 . S
N344 C343 1.347 . S
C345 C348 1.365 . S
C345 N350 1.328 . S
C345 H351 0.929 . S
C346 C347 1.362 . S
C346 C349 1.378 . S
C346 H361 0.929 . S
C347 C346 1.362 . S
C347 C348 1.366 . S
C348 C345 1.365 . S
C348 C347 1.366 . S
C348 H362 0.930 . S
C349 C346 1.378 . S
C349 N350 1.315 . S
C349 H352 0.930 . S
N350 Co330 2.194 . S
N350 C345 1.328 . S
N350 C349 1.315 . S
H351 C345 0.929 . S
H352 C349 0.930 . S
H353 C341 0.929 . S
H354 C343 0.929 . S
O355 Co330 2.351 . S
O355 C358 1.244 . S
O356 Co330 2.155 . S
O356 C358 1.240 . S
O357 Co330 2.096 . S
O357 C338 1.247 1_455 S
C358 O355 1.244 . S
C358 O356 1.240 . S
H359 C333 0.931 . S
H360 C342 0.931 . S
H361 C346 0.929 . S
H362 C348 0.930 . S
Co363 N367 2.148 . S
Co363 N373 2.128 . S
Co363 N383 2.194 . S
Co363 O388 2.351 . S
Co363 O389 2.155 . S
Co363 O390 2.096 . S
C364 N367 1.301 . S
C364 N368 1.328 . S
C364 H369 0.930 . S
C365 C366 1.333 . S
C365 N367 1.317 . S
C365 H370 0.930 . S
C366 C365 1.333 . S
C366 N368 1.350 . S
C366 H392 0.931 . S
N367 Co363 2.148 . S
N367 C364 1.301 . S
N367 C365 1.317 . S
N368 C364 1.328 . S
N368 C366 1.350 . S
H369 C364 0.930 . S
H370 C365 0.930 . S
C371 O372 1.224 . S
C371 O390 1.247 1_565 S
O372 C371 1.224 . S
N373 Co363 2.128 . S
N373 C374 1.355 . S
N373 C376 1.311 . S
C374 N373 1.355 . S
C374 C375 1.363 . S
C374 H386 0.929 . S
C375 C374 1.363 . S
C375 N377 1.375 . S
C375 H393 0.931 . S
C376 N373 1.311 . S
C376 N377 1.347 . S
C376 H387 0.929 . S
N377 C375 1.375 . S
N377 C376 1.347 . S
C378 C381 1.365 . S
C378 N383 1.328 . S
C378 H384 0.929 . S
C379 C380 1.362 . S
C379 C382 1.378 . S
C379 H394 0.929 . S
C380 C379 1.362 . S
C380 C381 1.366 . S
C381 C378 1.365 . S
C381 C380 1.366 . S
C381 H395 0.930 . S
C382 C379 1.378 . S
C382 N383 1.315 . S
C382 H385 0.930 . S
N383 Co363 2.194 . S
N383 C378 1.328 . S
N383 C382 1.315 . S
H384 C378 0.929 . S
H385 C382 0.930 . S
H386 C374 0.929 . S
H387 C376 0.929 . S
O388 Co363 2.351 . S
O388 C391 1.244 . S
O389 Co363 2.155 . S
O389 C391 1.240 . S
O390 Co363 2.096 . S
O390 C371 1.247 1_545 S
C391 O388 1.244 . S
C391 O389 1.240 . S
H392 C366 0.931 . S
H393 C375 0.931 . S
H394 C379 0.929 . S
H395 C381 0.930 . S
C396 C397 1.387 . S
C396 H400 0.950 . S
C396 C405 1.390 . S
C397 C396 1.387 . S
C397 C399 1.387 . S
H398 C405 0.950 . S
C399 C397 1.387 . S
C399 C401 1.390 . S
C399 H403 0.950 . S
H400 C396 0.950 . S
C401 C399 1.390 . S
C401 C402 1.387 . S
C401 H404 0.950 . S
C402 C401 1.387 . S
C402 C405 1.387 . S
H403 C399 0.950 . S
H404 C401 0.950 . S
C405 C396 1.390 . S
C405 H398 0.950 . S
C405 C402 1.387 . S
C406 C407 1.387 . S
C406 H410 0.950 . S
C406 C415 1.390 . S
C407 C406 1.387 . S
C407 C409 1.387 1_655 S
H408 C415 0.950 . S
C409 C407 1.387 1_455 S
C409 C411 1.390 . S
C409 H413 0.950 . S
H410 C406 0.950 . S
C411 C409 1.390 . S
C411 C412 1.387 . S
C411 H414 0.950 . S
C412 C411 1.387 . S
C412 C415 1.387 1_455 S
H413 C409 0.950 . S
H414 C411 0.950 . S
C415 C406 1.390 . S
C415 H408 0.950 . S
C415 C412 1.387 1_655 S
C416 C417 1.387 . S
C416 H420 0.950 . S
C416 C425 1.390 1_566 S
C417 C416 1.387 . S
C417 C419 1.387 . S
H418 C425 0.950 . S
C419 C417 1.387 . S
C419 C421 1.390 1_566 S
C419 H423 0.950 . S
H420 C416 0.950 . S
C421 C419 1.390 1_544 S
C421 C422 1.387 . S
C421 H424 0.950 . S
C422 C421 1.387 . S
C422 C425 1.387 . S
H423 C419 0.950 . S
H424 C421 0.950 . S
C425 C416 1.390 1_544 S
C425 H418 0.950 . S
C425 C422 1.387 . S
C426 C427 1.387 . S
C426 H430 0.950 . S
C426 C435 1.390 . S
C427 C426 1.387 . S
C427 C429 1.387 . S
H428 C435 0.950 . S
C429 C427 1.387 . S
C429 C431 1.390 . S
C429 H433 0.950 . S
H430 C426 0.950 . S
C431 C429 1.390 . S
C431 C432 1.387 . S
C431 H434 0.950 . S
C432 C431 1.387 . S
C432 C435 1.387 . S
H433 C429 0.950 . S
H434 C431 0.950 . S
C435 C426 1.390 . S
C435 H428 0.950 . S
C435 C432 1.387 . S
C436 C437 1.387 1_655 S
C436 H440 0.950 . S
C436 C445 1.390 . S
C437 C436 1.387 1_455 S
C437 C439 1.387 . S
H438 C445 0.950 . S
C439 C437 1.387 . S
C439 C441 1.390 . S
C439 H443 0.950 . S
H440 C436 0.950 . S
C441 C439 1.390 . S
C441 C442 1.387 1_455 S
C441 H444 0.950 . S
C442 C441 1.387 1_655 S
C442 C445 1.387 . S
H443 C439 0.950 . S
H444 C441 0.950 . S
C445 C436 1.390 . S
C445 H438 0.950 . S
C445 C442 1.387 . S
C446 C447 1.387 . S
C446 H450 0.950 . S
C446 C455 1.390 1_546 S
C447 C446 1.387 . S
C447 C449 1.387 . S
H448 C455 0.950 . S
C449 C447 1.387 . S
C449 C451 1.390 1_546 S
C449 H453 0.950 . S
H450 C446 0.950 . S
C451 C449 1.390 1_564 S
C451 C452 1.387 . S
C451 H454 0.950 . S
C452 C451 1.387 . S
C452 C455 1.387 . S
H453 C449 0.950 . S
H454 C451 0.950 . S
C455 C446 1.390 1_564 S
C455 H448 0.950 . S
C455 C452 1.387 . S
C456 C457 1.387 . S
C456 H460 0.950 . S
C456 C465 1.390 1_556 S
C457 C456 1.387 . S
C457 C459 1.387 . S
H458 C465 0.950 . S
C459 C457 1.387 . S
C459 C461 1.390 1_556 S
C459 H463 0.950 . S
H460 C456 0.950 . S
C461 C459 1.390 1_554 S
C461 C462 1.387 . S
C461 H464 0.950 . S
C462 C461 1.387 . S
C462 C465 1.387 . S
H463 C459 0.950 . S
H464 C461 0.950 . S
C465 C456 1.390 1_554 S
C465 H458 0.950 . S
C465 C462 1.387 . S
C466 C467 1.387 . S
C466 H470 0.950 . S
C466 C475 1.390 . S
C467 C466 1.387 . S
C467 C469 1.387 . S
H468 C475 0.950 . S
C469 C467 1.387 . S
C469 C471 1.390 . S
C469 H473 0.950 . S
H470 C466 0.950 . S
C471 C469 1.390 . S
C471 C472 1.387 . S
C471 H474 0.950 . S
C472 C471 1.387 . S
C472 C475 1.387 . S
H473 C469 0.950 . S
H474 C471 0.950 . S
C475 C466 1.390 . S
C475 H468 0.950 . S
C475 C472 1.387 . S
C476 C477 1.387 . S
C476 H480 0.950 . S
C476 C485 1.390 . S
C477 C476 1.387 . S
C477 C479 1.387 . S
H478 C485 0.950 . S
C479 C477 1.387 . S
C479 C481 1.390 . S
C479 H483 0.950 . S
H480 C476 0.950 . S
C481 C479 1.390 . S
C481 C482 1.387 . S
C481 H484 0.950 . S
C482 C481 1.387 . S
C482 C485 1.387 . S
H483 C479 0.950 . S
H484 C481 0.950 . S
C485 C476 1.390 . S
C485 H478 0.950 . S
C485 C482 1.387 . S
C486 C487 1.387 . S
C486 H490 0.950 . S
C486 C495 1.390 1_556 S
C487 C486 1.387 . S
C487 C489 1.387 . S
H488 C495 0.950 . S
C489 C487 1.387 . S
C489 C491 1.390 1_556 S
C489 H493 0.950 . S
H490 C486 0.950 . S
C491 C489 1.390 1_554 S
C491 C492 1.387 . S
C491 H494 0.950 . S
C492 C491 1.387 . S
C492 C495 1.387 . S
H493 C489 0.950 . S
H494 C491 0.950 . S
C495 C486 1.390 1_554 S
C495 H488 0.950 . S
C495 C492 1.387 . S
C496 C497 1.387 . S
C496 H500 0.950 . S
C496 C505 1.390 . S
C497 C496 1.387 . S
C497 C499 1.387 . S
H498 C505 0.950 . S
C499 C497 1.387 . S
C499 C501 1.390 . S
C499 H503 0.950 . S
H500 C496 0.950 . S
C501 C499 1.390 . S
C501 C502 1.387 . S
C501 H504 0.950 . S
C502 C501 1.387 . S
C502 C505 1.387 . S
H503 C499 0.950 . S
H504 C501 0.950 . S
C505 C496 1.390 . S
C505 H498 0.950 . S
C505 C502 1.387 . S
C506 C507 1.387 . S
C506 H510 0.950 . S
C506 C515 1.390 . S
C507 C506 1.387 . S
C507 C509 1.387 . S
H508 C515 0.950 . S
C509 C507 1.387 . S
C509 C511 1.390 . S
C509 H513 0.950 . S
H510 C506 0.950 . S
C511 C509 1.390 . S
C511 C512 1.387 . S
C511 H514 0.950 . S
C512 C511 1.387 . S
C512 C515 1.387 . S
H513 C509 0.950 . S
H514 C511 0.950 . S
C515 C506 1.390 . S
C515 H508 0.950 . S
C515 C512 1.387 . S
C516 C517 1.387 . S
C516 H520 0.950 . S
C516 C525 1.390 . S
C517 C516 1.387 . S
C517 C519 1.387 . S
H518 C525 0.950 . S
C519 C517 1.387 . S
C519 C521 1.390 . S
C519 H523 0.950 . S
H520 C516 0.950 . S
C521 C519 1.390 . S
C521 C522 1.387 . S
C521 H524 0.950 . S
C522 C521 1.387 . S
C522 C525 1.387 . S
H523 C519 0.950 . S
H524 C521 0.950 . S
C525 C516 1.390 . S
C525 H518 0.950 . S
C525 C522 1.387 . S
C526 C527 1.387 . S
C526 H530 0.950 . S
C526 C535 1.390 1_655 S
C527 C526 1.387 . S
C527 C529 1.387 . S
H528 C535 0.950 . S
C529 C527 1.387 . S
C529 C531 1.390 1_655 S
C529 H533 0.950 . S
H530 C526 0.950 . S
C531 C529 1.390 1_455 S
C531 C532 1.387 . S
C531 H534 0.950 . S
C532 C531 1.387 . S
C532 C535 1.387 . S
H533 C529 0.950 . S
H534 C531 0.950 . S
C535 C526 1.390 1_455 S
C535 H528 0.950 . S
C535 C532 1.387 . S
C536 C537 1.387 . S
C536 H540 0.950 . S
C536 C545 1.390 1_545 S
C537 C536 1.387 . S
C537 C539 1.387 . S
H538 C545 0.950 . S
C539 C537 1.387 . S
C539 C541 1.390 1_545 S
C539 H543 0.950 . S
H540 C536 0.950 . S
C541 C539 1.390 1_565 S
C541 C542 1.387 . S
C541 H544 0.950 . S
C542 C541 1.387 . S
C542 C545 1.387 . S
H543 C539 0.950 . S
H544 C541 0.950 . S
C545 C536 1.390 1_565 S
C545 H538 0.950 . S
C545 C542 1.387 . S
C546 C547 1.387 . S
C546 H550 0.950 . S
C546 C555 1.390 . S
C547 C546 1.387 . S
C547 C549 1.387 . S
H548 C555 0.950 . S
C549 C547 1.387 . S
C549 C551 1.390 . S
C549 H553 0.950 . S
H550 C546 0.950 . S
C551 C549 1.390 . S
C551 C552 1.387 . S
C551 H554 0.950 . S
C552 C551 1.387 . S
C552 C555 1.387 . S
H553 C549 0.950 . S
H554 C551 0.950 . S
C555 C546 1.390 . S
C555 H548 0.950 . S
C555 C552 1.387 . S
C556 C557 1.387 . S
C556 H560 0.950 . S
C556 C565 1.390 1_655 S
C557 C556 1.387 . S
C557 C559 1.387 . S
H558 C565 0.950 . S
C559 C557 1.387 . S
C559 C561 1.390 1_655 S
C559 H563 0.950 . S
H560 C556 0.950 . S
C561 C559 1.390 1_455 S
C561 C562 1.387 . S
C561 H564 0.950 . S
C562 C561 1.387 . S
C562 C565 1.387 . S
H563 C559 0.950 . S
H564 C561 0.950 . S
C565 C556 1.390 1_455 S
C565 H558 0.950 . S
C565 C562 1.387 . S
C566 C567 1.387 . S
C566 H570 0.950 . S
C566 C575 1.390 1_545 S
C567 C566 1.387 . S
C567 C569 1.387 . S
H568 C575 0.950 . S
C569 C567 1.387 . S
C569 C571 1.390 1_545 S
C569 H573 0.950 . S
H570 C566 0.950 . S
C571 C569 1.390 1_565 S
C571 C572 1.387 . S
C571 H574 0.950 . S
C572 C571 1.387 . S
C572 C575 1.387 . S
H573 C569 0.950 . S
H574 C571 0.950 . S
C575 C566 1.390 1_565 S
C575 H568 0.950 . S
C575 C572 1.387 . S
C576 C577 1.387 . S
C576 H580 0.950 . S
C576 C585 1.390 1_455 S
C577 C576 1.387 . S
C577 C579 1.387 . S
H578 C585 0.950 . S
C579 C577 1.387 . S
C579 C581 1.390 1_455 S
C579 H583 0.950 . S
H580 C576 0.950 . S
C581 C579 1.390 1_655 S
C581 C582 1.387 . S
C581 H584 0.950 . S
C582 C581 1.387 . S
C582 C585 1.387 . S
H583 C579 0.950 . S
H584 C581 0.950 . S
C585 C576 1.390 1_655 S
C585 H578 0.950 . S
C585 C582 1.387 . S
C586 C587 1.387 . S
C586 H590 0.950 . S
C586 C595 1.390 1_565 S
C587 C586 1.387 . S
C587 C589 1.387 . S
H588 C595 0.950 . S
C589 C587 1.387 . S
C589 C591 1.390 1_565 S
C589 H593 0.950 . S
H590 C586 0.950 . S
C591 C589 1.390 1_545 S
C591 C592 1.387 . S
C591 H594 0.950 . S
C592 C591 1.387 . S
C592 C595 1.387 . S
H593 C589 0.950 . S
H594 C591 0.950 . S
C595 C586 1.390 1_545 S
C595 H588 0.950 . S
C595 C592 1.387 . S
C596 C597 1.387 . S
C596 H600 0.950 . S
C596 C605 1.390 . S
C597 C596 1.387 . S
C597 C599 1.387 . S
H598 C605 0.950 . S
C599 C597 1.387 . S
C599 C601 1.390 . S
C599 H603 0.950 . S
H600 C596 0.950 . S
C601 C599 1.390 . S
C601 C602 1.387 . S
C601 H604 0.950 . S
C602 C601 1.387 . S
C602 C605 1.387 . S
H603 C599 0.950 . S
H604 C601 0.950 . S
C605 C596 1.390 . S
C605 H598 0.950 . S
C605 C602 1.387 . S
C606 C607 1.387 . S
C606 H610 0.950 . S
C606 C615 1.390 1_655 S
C607 C606 1.387 . S
C607 C609 1.387 . S
H608 C615 0.950 . S
C609 C607 1.387 . S
C609 C611 1.390 1_655 S
C609 H613 0.950 . S
H610 C606 0.950 . S
C611 C609 1.390 1_455 S
C611 C612 1.387 . S
C611 H614 0.950 . S
C612 C611 1.387 . S
C612 C615 1.387 . S
H613 C609 0.950 . S
H614 C611 0.950 . S
C615 C606 1.390 1_455 S
C615 H608 0.950 . S
C615 C612 1.387 . S
C616 C617 1.387 . S
C616 H620 0.950 . S
C616 C625 1.390 1_565 S
C617 C616 1.387 . S
C617 C619 1.387 . S
H618 C625 0.950 . S
C619 C617 1.387 . S
C619 C621 1.390 1_565 S
C619 H623 0.950 . S
H620 C616 0.950 . S
C621 C619 1.390 1_545 S
C621 C622 1.387 . S
C621 H624 0.950 . S
C622 C621 1.387 . S
C622 C625 1.387 . S
H623 C619 0.950 . S
H624 C621 0.950 . S
C625 C616 1.390 1_545 S
C625 H618 0.950 . S
C625 C622 1.387 . S
C626 C627 1.387 . S
C626 H630 0.950 . S
C626 C635 1.390 . S
C627 C626 1.387 . S
C627 C629 1.387 . S
H628 C635 0.950 . S
C629 C627 1.387 . S
C629 C631 1.390 . S
C629 H633 0.950 . S
H630 C626 0.950 . S
C631 C629 1.390 . S
C631 C632 1.387 . S
C631 H634 0.950 . S
C632 C631 1.387 . S
C632 C635 1.387 . S
H633 C629 0.950 . S
H634 C631 0.950 . S
C635 C626 1.390 . S
C635 H628 0.950 . S
C635 C632 1.387 . S
C636 C637 1.387 . S
C636 H640 0.950 . S
C636 C645 1.390 . S
C637 C636 1.387 . S
C637 C639 1.387 . S
H638 C645 0.950 . S
C639 C637 1.387 . S
C639 C641 1.390 . S
C639 H643 0.950 . S
H640 C636 0.950 . S
C641 C639 1.390 . S
C641 C642 1.387 . S
C641 H644 0.950 . S
C642 C641 1.387 . S
C642 C645 1.387 . S
H643 C639 0.950 . S
H644 C641 0.950 . S
C645 C636 1.390 . S
C645 H638 0.950 . S
C645 C642 1.387 . S
C646 C647 1.387 . S
C646 H650 0.950 . S
C646 C655 1.390 . S
C647 C646 1.387 . S
C647 C649 1.387 . S
H648 C655 0.950 . S
C649 C647 1.387 . S
C649 C651 1.390 . S
C649 H653 0.950 . S
H650 C646 0.950 . S
C651 C649 1.390 . S
C651 C652 1.387 . S
C651 H654 0.950 . S
C652 C651 1.387 . S
C652 C655 1.387 . S
H653 C649 0.950 . S
H654 C651 0.950 . S
C655 C646 1.390 . S
C655 H648 0.950 . S
C655 C652 1.387 . S
C656 C657 1.387 . S
C656 H660 0.950 . S
C656 C665 1.390 . S
C657 C656 1.387 . S
C657 C659 1.387 . S
H658 C665 0.950 . S
C659 C657 1.387 . S
C659 C661 1.390 . S
C659 H663 0.950 . S
H660 C656 0.950 . S
C661 C659 1.390 . S
C661 C662 1.387 . S
C661 H664 0.950 . S
C662 C661 1.387 . S
C662 C665 1.387 . S
H663 C659 0.950 . S
H664 C661 0.950 . S
C665 C656 1.390 . S
C665 H658 0.950 . S
C665 C662 1.387 . S
C666 C667 1.387 . S
C666 H670 0.950 . S
C666 C675 1.390 . S
C667 C666 1.387 . S
C667 C669 1.387 . S
H668 C675 0.950 . S
C669 C667 1.387 . S
C669 C671 1.390 . S
C669 H673 0.950 . S
H670 C666 0.950 . S
C671 C669 1.390 . S
C671 C672 1.387 . S
C671 H674 0.950 . S
C672 C671 1.387 . S
C672 C675 1.387 . S
H673 C669 0.950 . S
H674 C671 0.950 . S
C675 C666 1.390 . S
C675 H668 0.950 . S
C675 C672 1.387 . S
C676 C677 1.387 . S
C676 H680 0.950 . S
C676 C685 1.390 . S
C677 C676 1.387 . S
C677 C679 1.387 . S
H678 C685 0.950 . S
C679 C677 1.387 . S
C679 C681 1.390 . S
C679 H683 0.950 . S
H680 C676 0.950 . S
C681 C679 1.390 . S
C681 C682 1.387 . S
C681 H684 0.950 . S
C682 C681 1.387 . S
C682 C685 1.387 . S
H683 C679 0.950 . S
H684 C681 0.950 . S
C685 C676 1.390 . S
C685 H678 0.950 . S
C685 C682 1.387 . S
C686 C687 1.387 . S
C686 H690 0.950 . S
C686 C695 1.390 . S
C687 C686 1.387 . S
C687 C689 1.387 . S
H688 C695 0.950 . S
C689 C687 1.387 . S
C689 C691 1.390 . S
C689 H693 0.950 . S
H690 C686 0.950 . S
C691 C689 1.390 . S
C691 C692 1.387 . S
C691 H694 0.950 . S
C692 C691 1.387 . S
C692 C695 1.387 . S
H693 C689 0.950 . S
H694 C691 0.950 . S
C695 C686 1.390 . S
C695 H688 0.950 . S
C695 C692 1.387 . S
C397 N311 1.526 . S
C402 N14 1.526 . S
C407 N47 1.524 . S
C412 N344 1.525 . S
C417 N80 1.524 . S
C422 N377 1.524 . S
C427 N113 1.525 . S
C432 N212 1.524 . S
C437 N146 1.526 . S
C442 N245 1.526 . S
C447 N179 1.526 . S
C452 N278 1.526 . S
C457 N335 1.404 . S
C462 N5 1.404 . S
C467 N368 1.403 . S
C472 N38 1.406 . S
C477 N71 1.404 . S
C482 N203 1.404 . S
C487 N236 1.405 . S
C492 N104 1.405 . S
C497 N137 1.404 . S
C502 N269 1.404 . S
C507 N170 1.405 . S
C512 N302 1.403 . S
C517 C116 1.880 . S
C522 C17 1.880 . S
C527 C50 1.877 . S
C532 C149 1.877 . S
C537 C182 1.880 . S
C542 C83 1.880 . S
C547 C314 1.877 . S
C552 C215 1.877 . S
C557 C248 1.880 . S
C562 C347 1.880 . S
C567 C380 1.877 . S
C572 C281 1.877 . S
C577 C28 1.349 . S
C582 C391 1.352 . S
C587 C226 1.351 . S
C592 C61 1.351 . S
C597 C94 1.352 . S
C602 C259 1.349 . S
C607 C127 1.349 . S
C612 C292 1.352 . S
C617 C160 1.350 . S
C622 C325 1.350 . S
C627 C358 1.352 . S
C632 C193 1.349 . S
C637 C8 0.927 . S
C642 C272 0.927 . S
C647 C305 0.927 . S
C652 C41 0.927 . S
C657 C74 0.927 . S
C662 C338 0.927 . S
C667 C371 0.927 . S
C672 C107 0.927 . S
C677 C206 0.927 . S
C682 C140 0.927 . S
C687 C173 0.927 . S
C692 C239 0.927 . S
