# Generated by pormake.
# Topology uoq, (4)-cn, num edge types: 1
# Building blocks:
#     Node 0, Type 0, BuildingBlock: KUFVIS_clean_sbu_0, # of connection points: 4
#     Node 1, Type 0, BuildingBlock: KUFVIS_clean_sbu_0, # of connection points: 4
#     Node 2, Type 0, BuildingBlock: KUFVIS_clean_sbu_0, # of connection points: 4
#     Node 3, Type 0, BuildingBlock: KUFVIS_clean_sbu_0, # of connection points: 4
#     Node 4, Type 0, BuildingBlock: KUFVIS_clean_sbu_0, # of connection points: 4
#     Node 5, Type 0, BuildingBlock: KUFVIS_clean_sbu_0, # of connection points: 4
#     Node 6, Type 0, BuildingBlock: KUFVIS_clean_sbu_0, # of connection points: 4
#     Node 7, Type 0, BuildingBlock: KUFVIS_clean_sbu_0, # of connection points: 4
#     Node 8, Type 0, BuildingBlock: KUFVIS_clean_sbu_0, # of connection points: 4
#     Node 9, Type 0, BuildingBlock: KUFVIS_clean_sbu_0, # of connection points: 4
#     Node 10, Type 0, BuildingBlock: KUFVIS_clean_sbu_0, # of connection points: 4
#     Node 11, Type 0, BuildingBlock: KUFVIS_clean_sbu_0, # of connection points: 4
#     Edge 12, Type (0, 0), BuildingBlock: ZUJKAS_clean_linker_0, # of connection points: 2
#     Edge 13, Type (0, 0), BuildingBlock: ZUJKAS_clean_linker_0, # of connection points: 2
#     Edge 14, Type (0, 0), BuildingBlock: ZUJKAS_clean_linker_0, # of connection points: 2
#     Edge 15, Type (0, 0), BuildingBlock: ZUJKAS_clean_linker_0, # of connection points: 2
#     Edge 16, Type (0, 0), BuildingBlock: ZUJKAS_clean_linker_0, # of connection points: 2
#     Edge 17, Type (0, 0), BuildingBlock: ZUJKAS_clean_linker_0, # of connection points: 2
#     Edge 18, Type (0, 0), BuildingBlock: ZUJKAS_clean_linker_0, # of connection points: 2
#     Edge 19, Type (0, 0), BuildingBlock: ZUJKAS_clean_linker_0, # of connection points: 2
#     Edge 20, Type (0, 0), BuildingBlock: ZUJKAS_clean_linker_0, # of connection points: 2
#     Edge 21, Type (0, 0), BuildingBlock: ZUJKAS_clean_linker_0, # of connection points: 2
#     Edge 22, Type (0, 0), BuildingBlock: ZUJKAS_clean_linker_0, # of connection points: 2
#     Edge 23, Type (0, 0), BuildingBlock: ZUJKAS_clean_linker_0, # of connection points: 2
#     Edge 24, Type (0, 0), BuildingBlock: ZUJKAS_clean_linker_0, # of connection points: 2
#     Edge 25, Type (0, 0), BuildingBlock: ZUJKAS_clean_linker_0, # of connection points: 2
#     Edge 26, Type (0, 0), BuildingBlock: ZUJKAS_clean_linker_0, # of connection points: 2
#     Edge 27, Type (0, 0), BuildingBlock: ZUJKAS_clean_linker_0, # of connection points: 2
#     Edge 28, Type (0, 0), BuildingBlock: ZUJKAS_clean_linker_0, # of connection points: 2
#     Edge 29, Type (0, 0), BuildingBlock: ZUJKAS_clean_linker_0, # of connection points: 2
#     Edge 30, Type (0, 0), BuildingBlock: ZUJKAS_clean_linker_0, # of connection points: 2
#     Edge 31, Type (0, 0), BuildingBlock: ZUJKAS_clean_linker_0, # of connection points: 2
#     Edge 32, Type (0, 0), BuildingBlock: ZUJKAS_clean_linker_0, # of connection points: 2
#     Edge 33, Type (0, 0), BuildingBlock: ZUJKAS_clean_linker_0, # of connection points: 2
#     Edge 34, Type (0, 0), BuildingBlock: ZUJKAS_clean_linker_0, # of connection points: 2
#     Edge 35, Type (0, 0), BuildingBlock: ZUJKAS_clean_linker_0, # of connection points: 2
# Relax obj value: 0.147
# Max RMSD: 0.133
# Mean RMSD: 0.133
data_MOF--net-uoq--node1-KUFVIS_clean_sbu_0--edge1-ZUJKAS_clean_linker_0
_symmetry_space_group_name_H-M    P1
_symmetry_Int_Tables_number       1
_symmetry_cell_setting            triclinic
loop_
_symmetry_equiv_pos_as_xyz
'x, y, z'
_cell_length_a     76.469481
_cell_length_b     76.483604
_cell_length_c     28.903775
_cell_angle_alpha  89.933321
_cell_angle_beta   90.024421
_cell_angle_gamma 120.00816
loop_
_atom_site_label
_atom_site_type_symbol
_atom_site_fract_x
_atom_site_fract_y
_atom_site_fract_z
_atom_type_partial_charge
Mn0 Mn 0.3033 0.44999 0.26147 0.0
Mn1 Mn 0.30925 0.44651 0.37664 0.0
C2 C 0.29017 0.46317 0.31466 0.0
C3 C 0.28444 0.43789 0.19285 0.0
C4 C 0.34268 0.4764 0.3138 0.0
O5 O 0.31161 0.42808 0.26536 0.0
O6 O 0.31193 0.42558 0.34323 0.0
C7 C 0.27243 0.4071 0.39396 0.0
N8 N 0.28424 0.42706 0.40404 0.0
C9 C 0.26213 0.42471 0.46592 0.0
C10 C 0.24984 0.40406 0.45659 0.0
C11 C 0.25495 0.39525 0.42025 0.0
C12 C 0.27926 0.43577 0.43832 0.0
H13 H 0.27628 0.40032 0.36596 0.0
C14 C 0.31338 0.41987 0.30255 0.0
O15 O 0.30369 0.45074 0.19216 0.0
O16 O 0.27654 0.43083 0.2331 0.0
N17 N 0.30691 0.46593 0.41375 0.0
C18 C 0.31977 0.48623 0.41657 0.0
C19 C 0.31668 0.49741 0.45079 0.0
C20 C 0.30058 0.48759 0.48208 0.0
C21 C 0.28749 0.4667 0.47841 0.0
C22 C 0.2914 0.45633 0.44378 0.0
H23 H 0.33239 0.4938 0.39316 0.0
O24 O 0.29338 0.46956 0.27228 0.0
O25 O 0.29457 0.44929 0.32449 0.0
O26 O 0.33227 0.47209 0.27671 0.0
O27 O 0.33573 0.46722 0.35217 0.0
C28 C 0.27071 0.45576 0.50765 0.0
C29 C 0.25791 0.43482 0.50109 0.0
H30 H 0.23636 0.39487 0.47682 0.0
H31 H 0.24545 0.37936 0.41259 0.0
H32 H 0.3268 0.51354 0.45336 0.0
H33 H 0.29841 0.49626 0.50876 0.0
H34 H 0.26735 0.46334 0.53491 0.0
H35 H 0.24482 0.42666 0.52317 0.0
Mn36 Mn 0.86009 0.30512 0.59051 0.0
Mn37 Mn 0.8806 0.31618 0.69804 0.0
C38 C 0.83991 0.29238 0.65606 0.0
C39 C 0.84854 0.28454 0.52412 0.0
C40 C 0.87365 0.34532 0.64064 0.0
O41 O 0.89024 0.31574 0.57715 0.0
O42 O 0.90123 0.3213 0.6511 0.0
C43 C 0.8919 0.28452 0.70595 0.0
N44 N 0.88211 0.29387 0.723 0.0
C45 C 0.87622 0.27661 0.79583 0.0
C46 C 0.88619 0.26671 0.77908 0.0
C47 C 0.89383 0.27049 0.73371 0.0
C48 C 0.87392 0.28968 0.76579 0.0
H49 H 0.89841 0.28796 0.6717 0.0
C50 C 0.90414 0.32119 0.60769 0.0
O51 O 0.8532 0.30335 0.52314 0.0
O52 O 0.85181 0.27805 0.56284 0.0
N53 N 0.86272 0.31216 0.74828 0.0
C54 C 0.85369 0.32311 0.75926 0.0
C55 C 0.84476 0.32069 0.80298 0.0
C56 C 0.84611 0.30786 0.83578 0.0
C57 C 0.85612 0.29731 0.82427 0.0
C58 C 0.86382 0.29952 0.77938 0.0
H59 H 0.85341 0.33368 0.73491 0.0
O60 O 0.83226 0.29366 0.61702 0.0
O61 O 0.859 0.29821 0.6558 0.0
O62 O 0.86611 0.33397 0.60526 0.0
O63 O 0.87958 0.34003 0.67649 0.0
C64 C 0.85927 0.28514 0.85597 0.0
C65 C 0.86902 0.27452 0.84154 0.0
H66 H 0.88821 0.25632 0.80087 0.0
H67 H 0.90162 0.26298 0.72058 0.0
H68 H 0.83731 0.32911 0.8118 0.0
H69 H 0.83968 0.30645 0.86991 0.0
H70 H 0.8538 0.28341 0.89118 0.0
H71 H 0.87092 0.26482 0.86589 0.0
Mn72 Mn 0.55614 0.85613 0.92011 0.0
Mn73 Mn 0.56534 0.87013 0.03275 0.0
C74 C 0.54686 0.83204 0.9779 0.0
C75 C 0.56594 0.84802 0.8499 0.0
C76 C 0.53071 0.86873 0.97808 0.0
O77 O 0.57638 0.88661 0.91589 0.0
O78 O 0.58292 0.89304 0.99218 0.0
C79 C 0.60683 0.87662 0.03839 0.0
N80 N 0.58753 0.86754 0.05451 0.0
C81 C 0.59531 0.85113 0.11562 0.0
C82 C 0.61533 0.86042 0.09987 0.0
C83 C 0.62109 0.87315 0.06096 0.0
C84 C 0.58177 0.85507 0.09152 0.0
H85 H 0.61129 0.88642 0.00854 0.0
C86 C 0.58582 0.8984 0.94972 0.0
O87 O 0.55206 0.85307 0.85136 0.0
O88 O 0.57504 0.84909 0.88854 0.0
N89 N 0.54948 0.84959 0.0769 0.0
C90 C 0.52949 0.84148 0.08703 0.0
C91 C 0.52135 0.82865 0.12545 0.0
C92 C 0.53386 0.82447 0.15331 0.0
C93 C 0.55435 0.83289 0.14213 0.0
C94 C 0.56168 0.84581 0.10383 0.0
H95 H 0.51988 0.84494 0.06626 0.0
O96 O 0.53856 0.82704 0.93739 0.0
O97 O 0.56063 0.85082 0.98327 0.0
O98 O 0.53385 0.86211 0.94019 0.0
O99 O 0.54196 0.87274 0.01376 0.0
C100 C 0.56778 0.82899 0.16745 0.0
C101 C 0.58822 0.83799 0.15398 0.0
H102 H 0.62638 0.85781 0.11723 0.0
H103 H 0.63648 0.8803 0.04848 0.0
H104 H 0.50551 0.82218 0.13386 0.0
H105 H 0.52759 0.81485 0.18337 0.0
H106 H 0.5625 0.81893 0.19701 0.0
H107 H 0.59835 0.83467 0.17334 0.0
Mn108 Mn 0.70057 0.55733 0.25803 0.0
Mn109 Mn 0.68834 0.57024 0.36029 0.0
C110 C 0.71183 0.55106 0.32773 0.0
C111 C 0.72162 0.56446 0.19281 0.0
C112 C 0.65952 0.53285 0.30631 0.0
O113 O 0.69036 0.57655 0.23774 0.0
O114 O 0.68486 0.58492 0.30883 0.0
C115 C 0.72153 0.61273 0.36341 0.0
N116 N 0.71087 0.59425 0.38371 0.0
C117 C 0.72803 0.60702 0.45608 0.0
C118 C 0.73923 0.62624 0.43605 0.0
C119 C 0.73611 0.62905 0.38935 0.0
C120 C 0.71424 0.59122 0.42804 0.0
H121 H 0.71878 0.61499 0.32785 0.0
C122 C 0.68531 0.58647 0.26493 0.0
O123 O 0.70284 0.55024 0.19256 0.0
O124 O 0.72797 0.57523 0.23026 0.0
N125 N 0.69068 0.55743 0.41472 0.0
C126 C 0.67883 0.53788 0.4284 0.0
C127 C 0.67985 0.53249 0.47434 0.0
C128 C 0.69252 0.54737 0.50604 0.0
C129 C 0.70456 0.56742 0.49116 0.0
C130 C 0.70322 0.57178 0.44477 0.0
H131 H 0.66843 0.52656 0.40464 0.0
O132 O 0.71125 0.54142 0.29037 0.0
O133 O 0.70651 0.56466 0.32326 0.0
O134 O 0.67154 0.53516 0.27319 0.0
O135 O 0.6642 0.54527 0.33977 0.0
C136 C 0.71765 0.58329 0.52067 0.0
C137 C 0.7297 0.60298 0.50293 0.0
H138 H 0.75019 0.63894 0.45624 0.0
H139 H 0.74466 0.64383 0.37364 0.0
H140 H 0.67053 0.51701 0.48557 0.0
H141 H 0.69295 0.54323 0.5417 0.0
H142 H 0.71882 0.58044 0.55694 0.0
H143 H 0.74001 0.61495 0.52575 0.0
Mn144 Mn 0.14764 0.69977 0.59017 0.0
Mn145 Mn 0.12586 0.68854 0.69644 0.0
C146 C 0.16707 0.71238 0.65678 0.0
C147 C 0.15969 0.72047 0.52388 0.0
C148 C 0.13373 0.65958 0.64101 0.0
O149 O 0.11768 0.68905 0.57474 0.0
O150 O 0.10581 0.68331 0.64794 0.0
C151 C 0.11423 0.72002 0.70166 0.0
N152 N 0.12387 0.71075 0.72012 0.0
C153 C 0.12865 0.72793 0.79261 0.0
C154 C 0.11884 0.73776 0.77439 0.0
C155 C 0.11182 0.73397 0.7285 0.0
C156 C 0.13143 0.71492 0.76348 0.0
H157 H 0.10819 0.71656 0.66698 0.0
C158 C 0.10341 0.68345 0.60432 0.0
O159 O 0.15526 0.70172 0.5232 0.0
O160 O 0.15604 0.72685 0.56225 0.0
N161 N 0.14303 0.6926 0.74821 0.0
C162 C 0.15191 0.68166 0.76068 0.0
C163 C 0.16012 0.68398 0.80523 0.0
C164 C 0.15816 0.69669 0.83728 0.0
C165 C 0.1483 0.70721 0.8242 0.0
C166 C 0.14137 0.70511 0.77859 0.0
H167 H 0.15262 0.67116 0.73689 0.0
O168 O 0.17517 0.71126 0.61831 0.0
O169 O 0.14798 0.70658 0.65534 0.0
O170 O 0.14157 0.6709 0.60563 0.0
O171 O 0.12736 0.66484 0.6761 0.0
C172 C 0.1446 0.7193 0.85495 0.0
C173 C 0.13517 0.73 0.83891 0.0
H174 H 0.11646 0.7481 0.79543 0.0
H175 H 0.10415 0.74141 0.71425 0.0
H176 H 0.16745 0.67558 0.81525 0.0
H177 H 0.16402 0.69802 0.87202 0.0
H178 H 0.14948 0.72094 0.89066 0.0
H179 H 0.13289 0.73965 0.86256 0.0
Mn180 Mn 0.44782 0.14586 0.92428 0.0
Mn181 Mn 0.43418 0.12031 0.02614 0.0
C182 C 0.45362 0.16314 0.99421 0.0
C183 C 0.44078 0.15968 0.85861 0.0
C184 C 0.47228 0.12957 0.97415 0.0
O185 O 0.42897 0.11653 0.90325 0.0
O186 O 0.42012 0.10236 0.97397 0.0
C187 C 0.39161 0.11084 0.02666 0.0
N188 N 0.40983 0.11855 0.04812 0.0
C189 C 0.39617 0.12256 0.11955 0.0
C190 C 0.3772 0.11464 0.09833 0.0
C191 C 0.37497 0.10894 0.05152 0.0
C192 C 0.41232 0.12473 0.09255 0.0
H193 H 0.38979 0.10605 0.991 0.0
C194 C 0.41892 0.10142 0.93002 0.0
O195 O 0.45523 0.15544 0.85891 0.0
O196 O 0.42988 0.15516 0.89586 0.0
N197 N 0.44628 0.13507 0.0814 0.0
C198 C 0.46558 0.14239 0.09653 0.0
C199 C 0.47032 0.14818 0.14295 0.0
C200 C 0.45504 0.14577 0.17363 0.0
C201 C 0.43527 0.13824 0.15727 0.0
C202 C 0.43153 0.13301 0.11053 0.0
H203 H 0.47721 0.14345 0.07357 0.0
O204 O 0.46339 0.17237 0.95705 0.0
O205 O 0.44005 0.14423 0.98938 0.0
O206 O 0.47003 0.13909 0.94043 0.0
O207 O 0.45951 0.12165 0.007 0.0
C208 C 0.41907 0.13545 0.18565 0.0
C209 C 0.39963 0.12801 0.1666 0.0
H210 H 0.36425 0.11278 0.11767 0.0
H211 H 0.36038 0.1028 0.03489 0.0
H212 H 0.4856 0.15401 0.15532 0.0
H213 H 0.45868 0.14988 0.20966 0.0
H214 H 0.42145 0.13921 0.22209 0.0
H215 H 0.38739 0.12626 0.18859 0.0
Mn216 Mn 0.55823 0.70077 0.41555 0.0
Mn217 Mn 0.56824 0.69089 0.30731 0.0
C218 C 0.55042 0.71375 0.35122 0.0
C219 C 0.56698 0.72062 0.48297 0.0
C220 C 0.53203 0.66104 0.36312 0.0
O221 O 0.57778 0.69012 0.42819 0.0
O222 O 0.58339 0.6852 0.354 0.0
C223 C 0.61106 0.72332 0.30362 0.0
N224 N 0.59221 0.71382 0.2848 0.0
C225 C 0.60392 0.73459 0.21665 0.0
C226 C 0.6235 0.74456 0.23514 0.0
C227 C 0.62705 0.73901 0.279 0.0
C228 C 0.58853 0.71937 0.24322 0.0
H229 H 0.61386 0.71889 0.33703 0.0
C230 C 0.58628 0.68489 0.39735 0.0
O231 O 0.55284 0.70179 0.48295 0.0
O232 O 0.57691 0.72754 0.4446 0.0
N233 N 0.55485 0.69552 0.25698 0.0
C234 C 0.53503 0.68465 0.24459 0.0
C235 C 0.52888 0.68839 0.20172 0.0
C236 C 0.54325 0.70281 0.17149 0.0
C237 C 0.56362 0.71361 0.18472 0.0
C238 C 0.56879 0.70943 0.2281 0.0
H239 H 0.52403 0.67314 0.26714 0.0
O240 O 0.54163 0.71215 0.39058 0.0
O241 O 0.56396 0.70822 0.3505 0.0
O242 O 0.53563 0.67209 0.39898 0.0
O243 O 0.54325 0.66656 0.32719 0.0
C244 C 0.57902 0.72831 0.15652 0.0
C245 C 0.59909 0.73901 0.17277 0.0
H246 H 0.63592 0.75651 0.216 0.0
H247 H 0.6421 0.74665 0.29356 0.0
H248 H 0.51315 0.67996 0.19169 0.0
H249 H 0.53847 0.70547 0.13822 0.0
H250 H 0.57557 0.73168 0.12245 0.0
H251 H 0.61071 0.75053 0.15111 0.0
Mn252 Mn 0.85913 0.55689 0.75233 0.0
Mn253 Mn 0.87637 0.56807 0.64186 0.0
C254 C 0.83674 0.54891 0.69108 0.0
C255 C 0.84923 0.56519 0.82236 0.0
C256 C 0.8721 0.53169 0.6939 0.0
O257 O 0.88944 0.57681 0.76174 0.0
O258 O 0.89824 0.58334 0.68654 0.0
C259 C 0.88541 0.61051 0.64212 0.0
N260 N 0.87615 0.59184 0.62245 0.0
C261 C 0.86367 0.60322 0.55967 0.0
C262 C 0.87321 0.62263 0.57903 0.0
C263 C 0.88404 0.62625 0.62058 0.0
C264 C 0.86545 0.58812 0.5829 0.0
H265 H 0.89374 0.61333 0.67401 0.0
C266 C 0.90239 0.58589 0.72961 0.0
O267 O 0.8542 0.55126 0.82036 0.0
O268 O 0.85126 0.57511 0.78444 0.0
N269 N 0.85723 0.55468 0.59341 0.0
C270 C 0.84852 0.53501 0.57993 0.0
C271 C 0.83742 0.52892 0.53858 0.0
C272 C 0.83556 0.54313 0.51133 0.0
C273 C 0.84457 0.56324 0.52598 0.0
C274 C 0.85574 0.5685 0.56705 0.0
H275 H 0.85024 0.52412 0.60027 0.0
O276 O 0.83065 0.53986 0.73061 0.0
O277 O 0.85566 0.56282 0.68853 0.0
O278 O 0.86554 0.5349 0.73183 0.0
O279 O 0.87667 0.54323 0.65857 0.0
C280 C 0.84289 0.57827 0.50146 0.0
C281 C 0.8523 0.59822 0.51849 0.0
H282 H 0.87223 0.63481 0.56246 0.0
H283 H 0.89136 0.64116 0.63588 0.0
H284 H 0.83045 0.51335 0.52751 0.0
H285 H 0.8271 0.53842 0.47929 0.0
H286 H 0.83423 0.5746 0.46971 0.0
H287 H 0.85069 0.60959 0.49967 0.0
Mn288 Mn 0.30608 0.85957 0.08799 0.0
Mn289 Mn 0.31444 0.87594 0.97652 0.0
C290 C 0.29187 0.83686 0.0273 0.0
C291 C 0.28687 0.85018 0.15661 0.0
C292 C 0.345 0.87116 0.03357 0.0
O293 O 0.31669 0.89003 0.09541 0.0
O294 O 0.32115 0.89834 0.01961 0.0
C295 C 0.28253 0.88701 0.97009 0.0
N296 N 0.29147 0.87677 0.95331 0.0
C297 C 0.26901 0.86489 0.88792 0.0
C298 C 0.25962 0.8754 0.90435 0.0
C299 C 0.26636 0.88644 0.94572 0.0
C300 C 0.28501 0.86598 0.91377 0.0
H301 H 0.28771 0.89555 1.00177 0.0
C302 C 0.32184 0.90282 0.06233 0.0
O303 O 0.30577 0.85512 0.15648 0.0
O304 O 0.27959 0.85212 0.11764 0.0
N305 N 0.30868 0.85613 0.92975 0.0
C306 C 0.31875 0.8461 0.91986 0.0
C307 C 0.31385 0.83434 0.87956 0.0
C308 C 0.2988 0.83317 0.84969 0.0
C309 C 0.2886 0.84356 0.86067 0.0
C310 C 0.29433 0.85528 0.90093 0.0
H311 H 0.33056 0.84722 0.94233 0.0
O312 O 0.29437 0.83089 0.06747 0.0
O313 O 0.29763 0.85593 0.02349 0.0
O314 O 0.33467 0.86534 0.07091 0.0
O315 O 0.33872 0.87536 0.99661 0.0
C316 C 0.27283 0.84259 0.8335 0.0
C317 C 0.26296 0.85316 0.84727 0.0
H318 H 0.24714 0.875 0.88566 0.0
H319 H 0.25914 0.89454 0.95872 0.0
H320 H 0.32174 0.82629 0.87137 0.0
H321 H 0.29509 0.82412 0.81857 0.0
H322 H 0.268 0.83355 0.80231 0.0
H323 H 0.25066 0.85206 0.82649 0.0
Mn324 Mn 0.44969 0.30435 0.41731 0.0
Mn325 Mn 0.44303 0.31264 0.30527 0.0
C326 C 0.46113 0.29207 0.35779 0.0
C327 C 0.43912 0.28463 0.48523 0.0
C328 C 0.47439 0.34478 0.3682 0.0
O329 O 0.42802 0.31303 0.42065 0.0
O330 O 0.42227 0.31342 0.34395 0.0
C331 C 0.40395 0.27562 0.28665 0.0
N332 N 0.42365 0.2883 0.27545 0.0
C333 C 0.42094 0.26869 0.20798 0.0
C334 C 0.40054 0.25554 0.21848 0.0
C335 C 0.39205 0.25896 0.25815 0.0
C336 C 0.43206 0.28496 0.23783 0.0
H337 H 0.39745 0.27817 0.31724 0.0
C338 C 0.41819 0.31459 0.38634 0.0
O339 O 0.45228 0.30378 0.48617 0.0
O340 O 0.43105 0.27723 0.44529 0.0
N341 N 0.46221 0.31225 0.26353 0.0
C342 C 0.48234 0.32574 0.25975 0.0
C343 C 0.49313 0.3246 0.22174 0.0
C344 C 0.48311 0.30969 0.18795 0.0
C345 C 0.46249 0.29567 0.19311 0.0
C346 C 0.45245 0.29779 0.23126 0.0
H347 H 0.49006 0.33753 0.28503 0.0
O348 O 0.46858 0.29432 0.39911 0.0
O349 O 0.44721 0.29685 0.35274 0.0
O350 O 0.47165 0.33342 0.40298 0.0
O351 O 0.46363 0.33873 0.33162 0.0
C352 C 0.4515 0.2797 0.16192 0.0
C353 C 0.43078 0.26611 0.16958 0.0
H354 H 0.39132 0.24267 0.1966 0.0
H355 H 0.37637 0.24878 0.2667 0.0
H356 H 0.50908 0.33535 0.21819 0.0
H357 H 0.49145 0.30905 0.15836 0.0
H358 H 0.4589 0.27758 0.13226 0.0
H359 H 0.42258 0.25368 0.14582 0.0
Mn360 Mn 0.14797 0.44725 0.75159 0.0
Mn361 Mn 0.12768 0.43582 0.64375 0.0
C362 C 0.16871 0.45539 0.68696 0.0
C363 C 0.1594 0.439 0.81943 0.0
C364 C 0.13334 0.47226 0.69767 0.0
O365 O 0.11796 0.42734 0.76498 0.0
O366 O 0.10725 0.4204 0.69111 0.0
C367 C 0.11917 0.39357 0.64197 0.0
N368 N 0.1276 0.41221 0.62219 0.0
C369 C 0.13687 0.40064 0.55422 0.0
C370 C 0.12821 0.38127 0.57371 0.0
C371 C 0.11946 0.37777 0.61796 0.0
C372 C 0.13654 0.41588 0.58027 0.0
H373 H 0.1122 0.3908 0.67569 0.0
C374 C 0.10423 0.41801 0.73458 0.0
O375 O 0.1545 0.45298 0.81899 0.0
O376 O 0.15661 0.42907 0.78119 0.0
N377 N 0.14505 0.4493 0.59254 0.0
C378 C 0.15274 0.46884 0.57878 0.0
C379 C 0.16169 0.47482 0.53495 0.0
C380 C 0.16212 0.46055 0.50521 0.0
C381 C 0.15398 0.44047 0.51993 0.0
C382 C 0.14538 0.43544 0.5641 0.0
H383 H 0.15184 0.47974 0.60089 0.0
O384 O 0.17583 0.46429 0.72622 0.0
O385 O 0.1498 0.44136 0.68661 0.0
O386 O 0.1411 0.46928 0.73393 0.0
O387 O 0.12758 0.46047 0.66272 0.0
C388 C 0.15388 0.42521 0.4924 0.0
C389 C 0.14563 0.40539 0.50981 0.0
H390 H 0.12817 0.36899 0.55502 0.0
H391 H 0.11277 0.36288 0.63328 0.0
H392 H 0.16793 0.49032 0.52379 0.0
H393 H 0.16877 0.46518 0.47113 0.0
H394 H 0.16029 0.42859 0.45791 0.0
H395 H 0.14593 0.39388 0.48859 0.0
Mn396 Mn 0.70019 0.14601 0.08953 0.0
Mn397 Mn 0.69196 0.1279 0.97961 0.0
C398 C 0.71463 0.16779 0.02723 0.0
C399 C 0.71939 0.15606 0.15819 0.0
C400 C 0.66144 0.13385 0.03388 0.0
O401 O 0.68923 0.11567 0.09984 0.0
O402 O 0.68515 0.10613 0.02489 0.0
C403 C 0.72387 0.11676 0.97658 0.0
N404 N 0.71492 0.12668 0.95795 0.0
C405 C 0.73742 0.1375 0.89261 0.0
C406 C 0.74681 0.12727 0.91092 0.0
C407 C 0.74006 0.11694 0.9532 0.0
C408 C 0.7214 0.13682 0.91754 0.0
H409 H 0.71869 0.10877 0.00899 0.0
C410 C 0.68423 0.10235 0.06812 0.0
O411 O 0.70058 0.15147 0.15757 0.0
O412 O 0.72657 0.15351 0.11976 0.0
N413 N 0.69779 0.14697 0.9309 0.0
C414 C 0.68779 0.15691 0.91926 0.0
C415 C 0.69277 0.16808 0.87798 0.0
C416 C 0.70783 0.16876 0.84893 0.0
C417 C 0.71793 0.15844 0.86164 0.0
C418 C 0.71212 0.14733 0.90285 0.0
H419 H 0.676 0.15618 0.94113 0.0
O420 O 0.7122 0.1744 0.0666 0.0
O421 O 0.70874 0.14864 0.02521 0.0
O422 O 0.6717 0.14029 0.07121 0.0
O423 O 0.66773 0.12888 0.99811 0.0
C424 C 0.73369 0.15895 0.83537 0.0
C425 C 0.74352 0.14858 0.85098 0.0
H426 H 0.75931 0.12739 0.893 0.0
H427 H 0.74728 0.10909 0.96766 0.0
H428 H 0.68496 0.17607 0.86843 0.0
H429 H 0.71164 0.17739 0.8171 0.0
H430 H 0.73859 0.16752 0.80346 0.0
H431 H 0.75583 0.14935 0.83087 0.0
H432 H 0.33731 0.41373 0.24033 0.0
H433 H 0.35145 0.39132 0.25219 0.0
H434 H 0.31635 0.36843 0.37719 0.0
H435 H 0.30173 0.38964 0.36446 0.0
H436 H 0.37486 0.39335 0.32045 0.0
H437 H 0.30831 0.31711 0.32778 0.0
H438 H 0.30674 0.33842 0.30628 0.0
H439 H 0.30495 0.33311 0.36752 0.0
C440 C 0.33203 0.40326 0.26913 0.0
C441 C 0.31836 0.40345 0.30133 0.0
C442 C 0.34027 0.39062 0.27626 0.0
C443 C 0.33485 0.37794 0.31545 0.0
C444 C 0.32044 0.37751 0.34605 0.0
H445 H 0.41789 0.34359 0.44221 0.0
H446 H 0.39613 0.35844 0.43063 0.0
C447 C 0.31216 0.38987 0.33881 0.0
C448 C 0.34557 0.36678 0.32773 0.0
H449 H 0.33776 0.32159 0.36932 0.0
C450 C 0.36675 0.37756 0.33046 0.0
C451 C 0.3351 0.34614 0.34066 0.0
C452 C 0.31254 0.33303 0.33489 0.0
C453 C 0.37768 0.36844 0.34644 0.0
C454 C 0.36711 0.34814 0.36214 0.0
C455 C 0.34594 0.33728 0.3586 0.0
C456 C 0.37773 0.33721 0.37738 0.0
C457 C 0.40045 0.38056 0.34496 0.0
C458 C 0.37339 0.31923 0.35498 0.0
C459 C 0.38524 0.31041 0.36285 0.0
C460 C 0.40189 0.31941 0.393 0.0
C461 C 0.40508 0.33624 0.41905 0.0
C462 C 0.39294 0.345 0.41154 0.0
H463 H 0.40593 0.39358 0.32082 0.0
H464 H 0.40628 0.38665 0.37994 0.0
H465 H 0.40693 0.37107 0.33402 0.0
H466 H 0.36164 0.31269 0.32894 0.0
H467 H 0.38237 0.29741 0.34232 0.0
H468 H 0.93185 0.35996 0.59104 0.0
H469 H 0.96739 0.37481 0.61301 0.0
H470 H 0.95976 0.31526 0.62619 0.0
H471 H 0.92417 0.30041 0.60443 0.0
H472 H 0.97289 0.36114 0.70685 0.0
H473 H 0.01817 0.35214 0.56782 0.0
H474 H 0.99602 0.35407 0.55534 0.0
H475 H 0.99328 0.33123 0.57945 0.0
C476 C 0.9381 0.3501 0.59555 0.0
C477 C 0.92538 0.32905 0.59506 0.0
C478 C 0.95833 0.35858 0.60895 0.0
C479 C 0.96617 0.34613 0.62151 0.0
C480 C 0.95407 0.32515 0.6162 0.0
H481 H 0.08337 0.37717 0.73558 0.0
H482 H 0.04745 0.35712 0.71637 0.0
C483 C 0.93379 0.31667 0.6031 0.0
C484 C 0.98557 0.35476 0.6471 0.0
H485 H 0.0343 0.36501 0.63929 0.0
C486 C 0.98636 0.36202 0.69213 0.0
C487 C 0.00293 0.35551 0.62818 0.0
C488 C 0.00277 0.34794 0.57996 0.0
C489 C 0.00412 0.37013 0.71872 0.0
C490 C 0.02176 0.37151 0.69931 0.0
C491 C 0.02081 0.3639 0.65443 0.0
C492 C 0.04172 0.382 0.72318 0.0
C493 C 0.00365 0.37684 0.76754 0.0
C494 C 0.05022 0.40233 0.73646 0.0
C495 C 0.07062 0.41362 0.74878 0.0
C496 C 0.08296 0.40487 0.74735 0.0
C497 C 0.07406 0.38412 0.73828 0.0
C498 C 0.05361 0.37276 0.72642 0.0
H499 H 0.98821 0.36829 0.78246 0.0
H500 H 0.01421 0.37487 0.79041 0.0
H501 H 0.00809 0.39305 0.76724 0.0
H502 H 0.04162 0.41001 0.7333 0.0
H503 H 0.07727 0.42974 0.7539 0.0
H504 H 0.62627 0.9192 0.96271 0.0
H505 H 0.64577 0.955 0.98339 0.0
H506 H 0.59477 0.962 0.94841 0.0
H507 H 0.57549 0.92629 0.92641 0.0
H508 H 0.63107 0.99638 0.92943 0.0
H509 H 0.63125 0.96915 0.1075 0.0
H510 H 0.64323 0.96133 0.06552 0.0
H511 H 0.61659 0.95236 0.06128 0.0
C512 C 0.61963 0.92866 0.95721 0.0
C513 C 0.59951 0.92011 0.94235 0.0
C514 C 0.63062 0.94901 0.96991 0.0
C515 C 0.62148 0.96101 0.969 0.0
C516 C 0.60207 0.95299 0.94981 0.0
H517 H 0.64511 0.07512 0.08363 0.0
H518 H 0.62949 0.03912 0.06488 0.0
C519 C 0.59115 0.93266 0.93658 0.0
C520 C 0.6313 0.98114 0.99185 0.0
H521 H 0.64897 0.0046 0.09629 0.0
C522 C 0.63499 0.99816 0.96586 0.0
C523 C 0.63618 0.98344 0.0397 0.0
C524 C 0.63145 0.96559 0.07031 0.0
C525 C 0.6437 0.0174 0.98618 0.0
C526 C 0.64876 0.01967 0.03373 0.0
C527 C 0.64511 0.00275 0.05982 0.0
C528 C 0.65786 0.03971 0.05634 0.0
C529 C 0.64751 0.03529 0.9568 0.0
C530 C 0.67891 0.05156 0.0605 0.0
C531 C 0.68782 0.07206 0.07174 0.0
C532 C 0.67578 0.08089 0.07929 0.0
C533 C 0.65468 0.06853 0.07947 0.0
C534 C 0.64577 0.04805 0.06805 0.0
H535 H 0.64447 0.03134 0.91956 0.0
H536 H 0.63763 0.04118 0.96866 0.0
H537 H 0.66341 0.04761 0.96078 0.0
H538 H 0.68847 0.04538 0.05142 0.0
H539 H 0.70411 0.0814 0.07008 0.0
H540 H 0.64705 0.57478 0.24093 0.0
H541 H 0.63132 0.59471 0.26217 0.0
H542 H 0.69018 0.64716 0.28012 0.0
H543 H 0.7059 0.62719 0.25913 0.0
H544 H 0.64374 0.61178 0.35745 0.0
H545 H 0.65319 0.66909 0.22588 0.0
H546 H 0.65197 0.64561 0.21032 0.0
H547 H 0.67436 0.66544 0.23661 0.0
C548 C 0.65662 0.5909 0.24601 0.0
C549 C 0.6777 0.5995 0.24783 0.0
C550 C 0.64761 0.6022 0.25909 0.0
C551 C 0.65958 0.62235 0.27321 0.0
C552 C 0.68065 0.63168 0.26902 0.0
H553 H 0.6271 0.70503 0.4011 0.0
H554 H 0.6474 0.68981 0.37867 0.0
C555 C 0.68964 0.62032 0.25627 0.0
C556 C 0.65042 0.63224 0.30025 0.0
H557 H 0.64005 0.67073 0.2985 0.0
C558 C 0.64286 0.62465 0.34456 0.0
C559 C 0.64972 0.64925 0.2838 0.0
C560 C 0.65762 0.65787 0.23646 0.0
C561 C 0.63453 0.63357 0.37284 0.0
C562 C 0.63323 0.65025 0.35592 0.0
C563 C 0.6411 0.65802 0.31175 0.0
C564 C 0.62252 0.65904 0.38161 0.0
C565 C 0.62752 0.62518 0.42082 0.0
C566 C 0.6021 0.64681 0.39383 0.0
C567 C 0.59067 0.65552 0.40793 0.0
C568 C 0.59934 0.6766 0.40942 0.0
C569 C 0.62018 0.68873 0.40159 0.0
C570 C 0.63169 0.68003 0.38784 0.0
H571 H 0.636 0.61797 0.43433 0.0
H572 H 0.62933 0.63712 0.44541 0.0
H573 H 0.61132 0.61342 0.41951 0.0
H574 H 0.59449 0.63065 0.38843 0.0
H575 H 0.5745 0.64587 0.41205 0.0
H576 H 0.92377 0.62668 0.72595 0.0
H577 H 0.95944 0.64597 0.70369 0.0
H578 H 0.96507 0.59329 0.72618 0.0
H579 H 0.92939 0.574 0.7486 0.0
H580 H 1.00035 0.65034 0.74428 0.0
H581 H 0.97032 0.60844 0.57904 0.0
H582 H 0.95446 0.61183 0.62011 0.0
H583 H 0.96277 0.59413 0.63207 0.0
C584 C 0.93294 0.61959 0.72882 0.0
C585 C 0.92395 0.59897 0.73979 0.0
C586 C 0.95325 0.63054 0.71553 0.0
C587 C 0.96476 0.62094 0.71265 0.0
C588 C 0.95639 0.60094 0.72813 0.0
H589 H 0.07586 0.64463 0.58747 0.0
H590 H 0.04024 0.62989 0.60827 0.0
C591 C 0.93611 0.59002 0.7417 0.0
C592 C 0.98426 0.6308 0.68743 0.0
H593 H 0.00551 0.6303 0.58371 0.0
C594 C 1.00153 0.64608 0.70914 0.0
C595 C 0.98564 0.62517 0.64153 0.0
C596 C 0.96734 0.60908 0.61644 0.0
C597 C 0.02035 0.65553 0.68655 0.0
C598 C 0.02177 0.64994 0.64046 0.0
C599 C 0.00439 0.63474 0.61872 0.0
C600 C 0.04148 0.65864 0.61589 0.0
C601 C 0.03869 0.67088 0.71294 0.0
C602 C 0.05353 0.67957 0.60919 0.0
C603 C 0.07388 0.68798 0.59676 0.0
C604 C 0.08234 0.67556 0.59028 0.0
C605 C 0.06959 0.65451 0.59107 0.0
C606 C 0.04929 0.6461 0.60378 0.0
H607 H 0.03586 0.66993 0.75082 0.0
H608 H 0.05184 0.66879 0.70646 0.0
H609 H 0.04271 0.68629 0.70137 0.0
H610 H 0.04768 0.68951 0.61718 0.0
H611 H 0.08347 0.70425 0.59734 0.0
H612 H 0.30133 0.92318 0.06307 0.0
H613 H 0.31595 0.95833 0.03756 0.0
H614 H 0.3756 0.96586 0.04742 0.0
H615 H 0.36098 0.93087 0.07359 0.0
H616 H 0.37502 1.00101 0.06858 0.0
H617 H 0.33513 0.96783 0.90312 0.0
H618 H 0.31893 0.96168 0.95268 0.0
H619 H 0.33656 0.95266 0.94919 0.0
C620 C 0.31761 0.93272 0.06235 0.0
C621 C 0.33006 0.92445 0.07101 0.0
C622 C 0.32594 0.95266 0.04677 0.0
C623 C 0.34682 0.9645 0.03907 0.0
C624 C 0.35943 0.95696 0.05269 0.0
H625 H 0.43109 0.07542 0.90385 0.0
H626 H 0.41153 0.03951 0.92347 0.0
C627 C 0.3511 0.93705 0.06843 0.0
C628 C 0.3554 0.98377 0.01266 0.0
H629 H 0.35459 0.00347 0.90664 0.0
C630 C 0.3705 1.00154 0.03326 0.0
C631 C 0.34967 0.98441 0.96622 0.0
C632 C 0.33433 0.96562 0.94122 0.0
C633 C 0.37986 0.01993 0.00898 0.0
C634 C 0.37414 0.02054 0.96268 0.0
C635 C 0.35895 0.00288 0.94206 0.0
C636 C 0.38377 0.03972 0.93612 0.0
C637 C 0.39581 0.03868 0.033 0.0
C638 C 0.37416 0.0512 0.93288 0.0
C639 C 0.38528 0.07167 0.92095 0.0
C640 C 0.40612 0.08087 0.91233 0.0
C641 C 0.41496 0.06863 0.90921 0.0
C642 C 0.40387 0.04818 0.92129 0.0
H643 H 0.39649 0.03628 0.07072 0.0
H644 H 0.4108 0.04322 0.01774 0.0
H645 H 0.39286 0.05138 0.02786 0.0
H646 H 0.35864 0.04492 0.94414 0.0
H647 H 0.3782 0.08083 0.92456 0.0
H648 H 0.17511 0.46308 0.8958 0.0
H649 H 0.19536 0.46021 0.95767 0.0
H650 H 0.18684 0.40489 0.89758 0.0
H651 H 0.16724 0.40815 0.83455 0.0
H652 H 0.18889 0.43422 0.02365 0.0
H653 H 0.24684 0.43518 0.90722 0.0
H654 H 0.22757 0.44029 0.8868 0.0
H655 H 0.22199 0.41467 0.89512 0.0
C656 C 0.17744 0.45023 0.89585 0.0
C657 C 0.16964 0.43592 0.85993 0.0
C658 C 0.18908 0.44861 0.93131 0.0
C659 C 0.19317 0.4326 0.93195 0.0
C660 C 0.18456 0.41777 0.89726 0.0
H661 H 0.24454 0.40924 0.18166 0.0
H662 H 0.22219 0.40623 0.11773 0.0
C663 C 0.17313 0.41952 0.86143 0.0
C664 C 0.20645 0.43159 0.96878 0.0
H665 H 0.24899 0.42827 0.98639 0.0
C666 C 0.20203 0.43292 0.01541 0.0
C667 C 0.22387 0.43023 0.95834 0.0
C668 C 0.2305 0.43022 0.90917 0.0
C669 C 0.21438 0.43293 0.05161 0.0
C670 C 0.2314 0.43086 0.04125 0.0
C671 C 0.23585 0.42956 0.99462 0.0
C672 C 0.24533 0.43107 0.07805 0.0
C673 C 0.20942 0.43593 0.10046 0.0
C674 C 0.26614 0.4451 0.07596 0.0
C675 C 0.27908 0.44649 0.11199 0.0
C676 C 0.27151 0.43395 0.15117 0.0
C677 C 0.25087 0.41923 0.15217 0.0
C678 C 0.23799 0.41767 0.11582 0.0
H679 H 0.19987 0.4431 0.10112 0.0
H680 H 0.20087 0.42103 0.11779 0.0
H681 H 0.22334 0.44548 0.12072 0.0
H682 H 0.2723 0.45552 0.04716 0.0
H683 H 0.29485 0.45805 0.11006 0.0
H684 H 0.84257 0.29422 0.43631 0.0
H685 H 0.8217 0.27114 0.37497 0.0
H686 H 0.8083 0.22023 0.46245 0.0
H687 H 0.82973 0.24322 0.52326 0.0
H688 H 0.8135 0.21214 0.37623 0.0
H689 H 0.76137 0.24261 0.37316 0.0
H690 H 0.78691 0.2616 0.36079 0.0
H691 H 0.78058 0.2497 0.41686 0.0
C692 C 0.83537 0.2781 0.44233 0.0
C693 C 0.83778 0.27061 0.48489 0.0
C694 C 0.82322 0.26489 0.40733 0.0
C695 C 0.81285 0.24386 0.41434 0.0
C696 C 0.81593 0.23635 0.45613 0.0
H697 H 0.7086 0.16173 0.24518 0.0
H698 H 0.73102 0.18131 0.30888 0.0
C699 C 0.82826 0.24955 0.49094 0.0
C700 C 0.79862 0.22972 0.37858 0.0
H701 H 0.75746 0.21983 0.3128 0.0
C702 C 0.8012 0.2138 0.36253 0.0
C703 C 0.78222 0.23147 0.36118 0.0
C704 C 0.77744 0.24713 0.37922 0.0
C705 C 0.7882 0.19995 0.32915 0.0
C706 C 0.77241 0.20233 0.3101 0.0
C707 C 0.76961 0.21801 0.32683 0.0
C708 C 0.75872 0.18894 0.27261 0.0
C709 C 0.79131 0.18266 0.31552 0.0
C710 C 0.76664 0.18642 0.23085 0.0
C711 C 0.75381 0.17496 0.19465 0.0
C712 C 0.7327 0.16599 0.19886 0.0
C713 C 0.72475 0.16831 0.2408 0.0
C714 C 0.7376 0.1796 0.27722 0.0
H715 H 0.79905 0.17906 0.34335 0.0
H716 H 0.77675 0.16884 0.3076 0.0
H717 H 0.80102 0.18697 0.28427 0.0
H718 H 0.7828 0.19386 0.22556 0.0
H719 H 0.76051 0.17377 0.16266 0.0
H720 H 0.54281 0.83454 0.77134 0.0
H721 H 0.54537 0.81431 0.70891 0.0
H722 H 0.59932 0.82022 0.77114 0.0
H723 H 0.59646 0.83986 0.83439 0.0
H724 H 0.57232 0.81971 0.64369 0.0
H725 H 0.56541 0.75995 0.76334 0.0
H726 H 0.56134 0.78014 0.78184 0.0
H727 H 0.58659 0.78427 0.77646 0.0
C728 C 0.55537 0.83175 0.77145 0.0
C729 C 0.56933 0.83871 0.80814 0.0
C730 C 0.55679 0.8201 0.73574 0.0
C731 C 0.57223 0.81519 0.73579 0.0
C732 C 0.58688 0.82318 0.77094 0.0
H733 H 0.59654 0.76016 0.49488 0.0
H734 H 0.59904 0.78328 0.55643 0.0
C735 C 0.58535 0.83463 0.8069 0.0
C736 C 0.57268 0.80137 0.69978 0.0
H737 H 0.57305 0.75714 0.68517 0.0
C738 C 0.57249 0.80604 0.6528 0.0
C739 C 0.57252 0.78326 0.71143 0.0
C740 C 0.57127 0.77646 0.76097 0.0
C741 C 0.57228 0.79328 0.61738 0.0
C742 C 0.57284 0.77554 0.62904 0.0
C743 C 0.57291 0.77082 0.67602 0.0
C744 C 0.5724 0.76121 0.59321 0.0
C745 C 0.57079 0.79867 0.56785 0.0
C746 C 0.55728 0.74074 0.59445 0.0
C747 C 0.55608 0.72737 0.55978 0.0
C748 C 0.56994 0.73414 0.52287 0.0
C749 C 0.58554 0.75444 0.5226 0.0
C750 C 0.58685 0.76777 0.55757 0.0
H751 H 0.56473 0.80916 0.56552 0.0
H752 H 0.58607 0.80631 0.55211 0.0
H753 H 0.56094 0.78497 0.54719 0.0
H754 H 0.54602 0.73519 0.62164 0.0
H755 H 0.54384 0.71187 0.56111 0.0
H756 H 0.71334 0.54074 0.11594 0.0
H757 H 0.73666 0.54304 0.05531 0.0
H758 H 0.78453 0.59646 0.11957 0.0
H759 H 0.76136 0.59386 0.18127 0.0
H760 H 0.7578 0.57031 0.99141 0.0
H761 H 0.81146 0.56317 0.10788 0.0
H762 H 0.78724 0.55888 0.12747 0.0
H763 H 0.80819 0.5842 0.12188 0.0
C764 C 0.72881 0.55304 0.11718 0.0
C765 C 0.73547 0.56705 0.15376 0.0
C766 C 0.74218 0.55433 0.08239 0.0
C767 C 0.76257 0.56966 0.08313 0.0
C768 C 0.76908 0.58412 0.11874 0.0
H769 H 0.84004 0.595 0.83841 0.0
H770 H 0.82036 0.59736 0.90235 0.0
C771 C 0.75573 0.58274 0.15383 0.0
C772 C 0.7768 0.57042 0.04649 0.0
H773 H 0.82123 0.57066 0.02921 0.0
C774 C 0.77167 0.5704 0.99977 0.0
C775 C 0.79481 0.57021 0.05708 0.0
C776 C 0.80069 0.56891 0.10626 0.0
C777 C 0.78394 0.57023 0.96361 0.0
C778 C 0.80227 0.57066 0.97418 0.0
C779 C 0.80736 0.57059 0.0209 0.0
C780 C 0.8159 0.57039 0.93731 0.0
C781 C 0.77672 0.5689 0.91444 0.0
C782 C 0.82106 0.55512 0.9367 0.0
C783 C 0.83269 0.55396 0.90053 0.0
C784 C 0.83942 0.56804 0.86402 0.0
C785 C 0.835 0.58381 0.86574 0.0
C786 C 0.82354 0.58507 0.90213 0.0
H787 H 0.76016 0.56289 0.91286 0.0
H788 H 0.78427 0.58422 0.8989 0.0
H789 H 0.78037 0.55908 0.89311 0.0
H790 H 0.81554 0.54368 0.9635 0.0
H791 H 0.83576 0.54159 0.90034 0.0
H792 H 0.16649 0.71099 0.43665 0.0
H793 H 0.18696 0.73426 0.37505 0.0
H794 H 0.19849 0.7849 0.46125 0.0
H795 H 0.17747 0.7617 0.52231 0.0
H796 H 0.19277 0.79227 0.37462 0.0
H797 H 0.24734 0.76477 0.37325 0.0
H798 H 0.22208 0.74506 0.36112 0.0
H799 H 0.22804 0.75716 0.4169 0.0
C800 C 0.17322 0.72708 0.44235 0.0
C801 C 0.17039 0.73444 0.48461 0.0
C802 C 0.18513 0.74041 0.4072 0.0
C803 C 0.19483 0.76144 0.41375 0.0
C804 C 0.19136 0.76879 0.45528 0.0
H805 H 0.29788 0.84568 0.24434 0.0
H806 H 0.27568 0.82589 0.30817 0.0
C807 C 0.17928 0.75547 0.49024 0.0
C808 C 0.20875 0.77577 0.37776 0.0
H809 H 0.2504 0.78706 0.31238 0.0
C810 C 0.20541 0.79116 0.36118 0.0
C811 C 0.22558 0.77472 0.36068 0.0
C812 C 0.23113 0.75968 0.37924 0.0
C813 C 0.2181 0.80516 0.32759 0.0
C814 C 0.23436 0.8035 0.30891 0.0
C815 C 0.23789 0.78834 0.32615 0.0
C816 C 0.24783 0.81711 0.27136 0.0
C817 C 0.21416 0.82186 0.31335 0.0
C818 C 0.23974 0.8191 0.22928 0.0
C819 C 0.25243 0.83069 0.19296 0.0
C820 C 0.27358 0.84032 0.19742 0.0
C821 C 0.28169 0.83859 0.23975 0.0
C822 C 0.26897 0.82716 0.27625 0.0
H823 H 0.20602 0.82509 0.34085 0.0
H824 H 0.22843 0.836 0.30538 0.0
H825 H 0.20451 0.81714 0.28197 0.0
H826 H 0.22357 0.81113 0.22381 0.0
H827 H 0.24563 0.83143 0.16069 0.0
H828 H 0.41006 0.16791 0.84465 0.0
H829 H 0.40636 0.18709 0.7811 0.0
H830 H 0.46177 0.19596 0.72061 0.0
H831 H 0.46514 0.17627 0.78297 0.0
H832 H 0.42879 0.22501 0.75597 0.0
H833 H 0.42681 0.17817 0.60859 0.0
H834 H 0.42471 0.1698 0.66772 0.0
H835 H 0.44914 0.18631 0.64266 0.0
C836 C 0.4213 0.1737 0.81743 0.0
C837 C 0.4378 0.17036 0.8188 0.0
C838 C 0.41921 0.18475 0.78112 0.0
C839 C 0.43358 0.19277 0.74528 0.0
C840 C 0.45011 0.18949 0.74681 0.0
H841 H 0.45925 0.29478 0.56796 0.0
H842 H 0.45635 0.27234 0.63131 0.0
C843 C 0.4521 0.17829 0.78281 0.0
C844 C 0.43181 0.20529 0.70757 0.0
H845 H 0.43354 0.21153 0.59006 0.0
C846 C 0.42964 0.22192 0.71969 0.0
C847 C 0.43252 0.20119 0.65998 0.0
C848 C 0.4332 0.18277 0.64394 0.0
C849 C 0.42881 0.2348 0.68592 0.0
C850 C 0.43077 0.23141 0.63846 0.0
C851 C 0.4323 0.21442 0.6263 0.0
C852 C 0.43168 0.24541 0.60091 0.0
C853 C 0.4255 0.25173 0.70166 0.0
C854 C 0.41906 0.2379 0.56185 0.0
C855 C 0.42091 0.25074 0.52506 0.0
C856 C 0.43541 0.27143 0.52641 0.0
C857 C 0.44772 0.27901 0.56593 0.0
C858 C 0.446 0.26614 0.60246 0.0
H859 H 0.41748 0.24816 0.73541 0.0
H860 H 0.44036 0.26563 0.70637 0.0
H861 H 0.41663 0.25488 0.67595 0.0
H862 H 0.40792 0.222 0.55949 0.0
H863 H 0.41126 0.24434 0.4951 0.0
H864 H 0.17391 0.42897 0.63473 0.0
H865 H 0.19597 0.43662 0.56717 0.0
H866 H 0.21634 0.50007 0.58318 0.0
H867 H 0.19449 0.49237 0.65134 0.0
H868 H 0.19359 0.45443 0.487 0.0
H869 H 0.26941 0.50057 0.56575 0.0
H870 H 0.2471 0.48541 0.60005 0.0
H871 H 0.25184 0.50919 0.57686 0.0
C872 C 0.18314 0.44452 0.62368 0.0
C873 C 0.18221 0.46006 0.64705 0.0
C874 C 0.19581 0.4489 0.58542 0.0
C875 C 0.20791 0.46894 0.57032 0.0
C876 C 0.20742 0.48456 0.59465 0.0
H877 H 0.29541 0.49979 0.34198 0.0
H878 H 0.27433 0.50543 0.39784 0.0
C879 C 0.19485 0.48016 0.63324 0.0
C880 C 0.21998 0.4731 0.52745 0.0
H881 H 0.268 0.49569 0.48515 0.0
C882 C 0.20977 0.4637 0.48661 0.0
C883 C 0.24124 0.48538 0.52667 0.0
C884 C 0.25313 0.49563 0.56968 0.0
C885 C 0.22009 0.46552 0.44543 0.0
C886 C 0.24141 0.47626 0.44554 0.0
C887 C 0.25168 0.48702 0.48538 0.0
C888 C 0.25307 0.4736 0.408 0.0
C889 C 0.20789 0.45558 0.4025 0.0
C890 C 0.24806 0.45395 0.39505 0.0
C891 C 0.25987 0.45082 0.36335 0.0
C892 C 0.27732 0.46722 0.34514 0.0
C893 C 0.28208 0.48696 0.35634 0.0
C894 C 0.27011 0.49015 0.38812 0.0
H895 H 0.19387 0.45655 0.40197 0.0
H896 H 0.21657 0.46261 0.3704 0.0
H897 H 0.20322 0.43931 0.40278 0.0
H898 H 0.23544 0.4409 0.41085 0.0
H899 H 0.25573 0.43549 0.35429 0.0
H900 H 0.81446 0.30006 0.70666 0.0
H901 H 0.79305 0.28001 0.77151 0.0
H902 H 0.81118 0.23554 0.74815 0.0
H903 H 0.83452 0.25697 0.68782 0.0
H904 H 0.76231 0.24549 0.78109 0.0
H905 H 0.82329 0.24383 0.87884 0.0
H906 H 0.82757 0.25436 0.82158 0.0
H907 H 0.81714 0.22772 0.82941 0.0
C908 C 0.81412 0.28621 0.71639 0.0
C909 C 0.82662 0.28036 0.69402 0.0
C910 C 0.80178 0.27465 0.75302 0.0
C911 C 0.80098 0.25653 0.76606 0.0
C912 C 0.81224 0.2499 0.74055 0.0
H913 H 0.74447 0.16739 0.97893 0.0
H914 H 0.76341 0.18889 0.91449 0.0
C915 C 0.82547 0.26205 0.70595 0.0
C916 C 0.7884 0.24465 0.80618 0.0
H917 H 0.78978 0.22232 0.90709 0.0
C918 C 0.76827 0.24033 0.80865 0.0
C919 C 0.79605 0.23783 0.84229 0.0
C920 C 0.81726 0.24134 0.84299 0.0
C921 C 0.75545 0.22889 0.84511 0.0
C922 C 0.76319 0.22206 0.8812 0.0
C923 C 0.78352 0.22707 0.87933 0.0
C924 C 0.75065 0.20864 0.91977 0.0
C925 C 0.73381 0.22421 0.84335 0.0
C926 C 0.73722 0.21241 0.94537 0.0
C927 C 0.72524 0.19902 0.98023 0.0
C928 C 0.72704 0.18209 0.99097 0.0
C929 C 0.74184 0.17952 0.96887 0.0
C930 C 0.75301 0.19218 0.93268 0.0
H931 H 0.73262 0.23633 0.8616 0.0
H932 H 0.72873 0.22377 0.80712 0.0
H933 H 0.72336 0.20964 0.85991 0.0
H934 H 0.73591 0.22561 0.9385 0.0
H935 H 0.71452 0.20181 0.99855 0.0
H936 H 0.57537 0.8262 0.01742 0.0
H937 H 0.57072 0.8016 0.07694 0.0
H938 H 0.50615 0.77693 0.07084 0.0
H939 H 0.51101 0.80232 0.01209 0.0
H940 H 0.51822 0.78219 0.15767 0.0
H941 H 0.55258 0.74324 0.06931 0.0
H942 H 0.5703 0.76977 0.0691 0.0
H943 H 0.54658 0.76019 0.03889 0.0
C944 C 0.56021 0.81551 0.02892 0.0
C945 C 0.54358 0.81641 0.01169 0.0
C946 C 0.55751 0.80124 0.06229 0.0
C947 C 0.53805 0.78719 0.07789 0.0
C948 C 0.52128 0.78759 0.05922 0.0
H949 H 0.5143 0.70599 0.31597 0.0
H950 H 0.50857 0.72264 0.24961 0.0
C951 C 0.52403 0.80201 0.02581 0.0
C952 C 0.53567 0.77318 0.11591 0.0
H953 H 0.55361 0.74306 0.15329 0.0
C954 C 0.52588 0.77353 0.15673 0.0
C955 C 0.54493 0.76119 0.11409 0.0
C956 C 0.55396 0.75841 0.07021 0.0
C957 C 0.5268 0.76377 0.19709 0.0
C958 C 0.53728 0.75292 0.19593 0.0
C959 C 0.54585 0.75153 0.1543 0.0
C960 C 0.54033 0.7435 0.23759 0.0
C961 C 0.51753 0.76606 0.24109 0.0
C962 C 0.56004 0.7496 0.25249 0.0
C963 C 0.56329 0.73997 0.28976 0.0
C964 C 0.54689 0.72388 0.31219 0.0
C965 C 0.52714 0.71822 0.29852 0.0
C966 C 0.52387 0.72779 0.26098 0.0
H967 H 0.51412 0.77855 0.23865 0.0
H968 H 0.50318 0.75185 0.24796 0.0
H969 H 0.52774 0.76896 0.27099 0.0
H970 H 0.57294 0.76172 0.23493 0.0
H971 H 0.57861 0.74495 0.30081 0.0
H972 H 0.70331 0.51585 0.36966 0.0
H973 H 0.72046 0.51149 0.43686 0.0
H974 H 0.7595 0.57612 0.44445 0.0
H975 H 0.74181 0.58041 0.37882 0.0
H976 H 0.75781 0.51998 0.44647 0.0
H977 H 0.74512 0.5651 0.57749 0.0
H978 H 0.72987 0.55474 0.5266 0.0
H979 H 0.75364 0.57811 0.52324 0.0
C980 C 0.71529 0.52908 0.38652 0.0
C981 C 0.72092 0.54848 0.37019 0.0
C982 C 0.72511 0.5266 0.42473 0.0
C983 C 0.74099 0.54349 0.44661 0.0
C984 C 0.74679 0.56288 0.42959 0.0
H985 H 0.8335 0.5778 0.64512 0.0
H986 H 0.80951 0.57338 0.58439 0.0
C987 C 0.73676 0.56534 0.39193 0.0
C988 C 0.75244 0.5409 0.48514 0.0
H989 H 0.7715 0.55855 0.59252 0.0
C990 C 0.76074 0.52834 0.47855 0.0
C991 C 0.75582 0.55125 0.52762 0.0
C992 C 0.74552 0.56296 0.53956 0.0
C993 C 0.77338 0.52694 0.51194 0.0
C994 C 0.77798 0.53865 0.55288 0.0
C995 C 0.76863 0.55016 0.56049 0.0
C996 C 0.79329 0.54063 0.58731 0.0
C997 C 0.78156 0.51303 0.50206 0.0
C998 C 0.79215 0.52378 0.60975 0.0
C999 C 0.80652 0.52638 0.6432 0.0
C1000 C 0.82198 0.54586 0.65499 0.0
C1001 C 0.82237 0.56264 0.63465 0.0
C1002 C 0.80848 0.56008 0.60044 0.0
H1003 H 0.77003 0.49745 0.51219 0.0
H1004 H 0.78458 0.51283 0.46452 0.0
H1005 H 0.79554 0.51711 0.52132 0.0
H1006 H 0.78013 0.50868 0.60167 0.0
H1007 H 0.80559 0.51324 0.65982 0.0
H1008 H 0.19187 0.7039 0.70763 0.0
H1009 H 0.21283 0.72311 0.77374 0.0
H1010 H 0.19502 0.76797 0.75256 0.0
H1011 H 0.17213 0.74734 0.69081 0.0
H1012 H 0.24353 0.75719 0.78518 0.0
H1013 H 0.18257 0.75861 0.88293 0.0
H1014 H 0.17841 0.74847 0.82536 0.0
H1015 H 0.1887 0.77505 0.834 0.0
C1016 C 0.19218 0.71765 0.7181 0.0
C1017 C 0.17991 0.72384 0.69583 0.0
C1018 C 0.20425 0.72872 0.75548 0.0
C1019 C 0.20504 0.74673 0.76945 0.0
C1020 C 0.19397 0.75368 0.74423 0.0
H1021 H 0.26193 0.83666 0.97822 0.0
H1022 H 0.24271 0.81429 0.91535 0.0
C1023 C 0.18099 0.74199 0.7088 0.0
C1024 C 0.21752 0.75822 0.81002 0.0
H1025 H 0.21619 0.78054 0.91087 0.0
C1026 C 0.23759 0.76237 0.81268 0.0
C1027 C 0.20986 0.76496 0.84623 0.0
C1028 C 0.18863 0.76137 0.84708 0.0
C1029 C 0.2504 0.7737 0.84923 0.0
C1030 C 0.24273 0.78072 0.88501 0.0
C1031 C 0.2224 0.7757 0.88321 0.0
C1032 C 0.25538 0.79454 0.92283 0.0
C1033 C 0.27193 0.77804 0.84794 0.0
C1034 C 0.26885 0.79106 0.94911 0.0
C1035 C 0.28098 0.8049 0.98308 0.0
C1036 C 0.27929 0.82201 0.99218 0.0
C1037 C 0.26446 0.82434 0.96942 0.0
C1038 C 0.25314 0.81121 0.93414 0.0
H1039 H 0.27705 0.7782 0.81188 0.0
H1040 H 0.28252 0.79263 0.86416 0.0
H1041 H 0.27287 0.76591 0.86689 0.0
H1042 H 0.2701 0.77775 0.94339 0.0
H1043 H 0.29174 0.80234 1.00194 0.0
H1044 H 0.48912 0.18837 0.03671 0.0
H1045 H 0.49432 0.2094 0.10517 0.0
H1046 H 0.43005 0.18623 0.11319 0.0
H1047 H 0.42488 0.16456 0.04636 0.0
H1048 H 0.48786 0.23911 0.11641 0.0
H1049 H 0.44009 0.18156 0.24561 0.0
H1050 H 0.44884 0.17592 0.19317 0.0
H1051 H 0.42683 0.17877 0.1924 0.0
C1052 C 0.47613 0.18753 0.0539 0.0
C1053 C 0.45658 0.17454 0.0373 0.0
C1054 C 0.47908 0.19955 0.09287 0.0
C1055 C 0.46255 0.19912 0.11526 0.0
C1056 C 0.44301 0.1863 0.09797 0.0
H1057 H 0.4321 0.25982 0.31364 0.0
H1058 H 0.43581 0.23932 0.25468 0.0
C1059 C 0.44004 0.174 0.05957 0.0
C1060 C 0.46583 0.21313 0.15437 0.0
H1061 H 0.44885 0.21511 0.26224 0.0
C1062 C 0.47941 0.23385 0.14844 0.0
C1063 C 0.45525 0.20638 0.19674 0.0
C1064 C 0.44201 0.1844 0.20774 0.0
C1065 C 0.48165 0.24802 0.1823 0.0
C1066 C 0.46992 0.24125 0.22328 0.0
C1067 C 0.45739 0.22045 0.23031 0.0
C1068 C 0.46855 0.25502 0.25757 0.0
C1069 C 0.49623 0.26999 0.1729 0.0
C1070 C 0.48565 0.27074 0.27938 0.0
C1071 C 0.48347 0.28312 0.31197 0.0
C1072 C 0.46416 0.27971 0.32338 0.0
C1073 C 0.44716 0.26335 0.30361 0.0
C1074 C 0.44931 0.25145 0.27038 0.0
H1075 H 0.49847 0.27321 0.1352 0.0
H1076 H 0.49102 0.27971 0.1885 0.0
H1077 H 0.51108 0.27406 0.18831 0.0
H1078 H 0.50062 0.27338 0.27148 0.0
H1079 H 0.49676 0.29533 0.32804 0.0
H1080 H 0.35747 0.51118 0.26359 0.0
H1081 H 0.39048 0.54168 0.27169 0.0
H1082 H 0.40791 0.51134 0.37195 0.0
H1083 H 0.3745 0.48124 0.36584 0.0
H1084 H 0.4178 0.54629 0.40301 0.0
H1085 H 0.4443 0.55708 0.22189 0.0
H1086 H 0.42067 0.55654 0.22602 0.0
H1087 H 0.4221 0.53438 0.24091 0.0
C1088 C 0.3685 0.51093 0.2867 0.0
C1089 C 0.36348 0.49381 0.31387 0.0
C1090 C 0.38743 0.52836 0.29118 0.0
C1091 C 0.40193 0.5288 0.32185 0.0
C1092 C 0.39705 0.51145 0.34803 0.0
H1093 H 0.52656 0.6274 0.31834 0.0
H1094 H 0.49547 0.59484 0.31169 0.0
C1095 C 0.37798 0.49421 0.34438 0.0
C1096 C 0.42165 0.54764 0.32896 0.0
H1097 H 0.46205 0.58546 0.27223 0.0
C1098 C 0.42757 0.55472 0.37437 0.0
C1099 C 0.43463 0.55859 0.29182 0.0
C1100 C 0.4302 0.55113 0.24253 0.0
C1101 C 0.44587 0.57246 0.38365 0.0
C1102 C 0.45829 0.58401 0.34632 0.0
C1103 C 0.45249 0.5768 0.30094 0.0
C1104 C 0.47745 0.60346 0.35326 0.0
C1105 C 0.45186 0.57826 0.43348 0.0
C1106 C 0.47784 0.61922 0.37917 0.0
C1107 C 0.49578 0.63769 0.38403 0.0
C1108 C 0.51352 0.64098 0.36186 0.0
C1109 C 0.51311 0.62528 0.33581 0.0
C1110 C 0.49532 0.60668 0.33188 0.0
H1111 H 0.44465 0.56485 0.45659 0.0
H1112 H 0.46848 0.58576 0.43809 0.0
H1113 H 0.4467 0.5888 0.44476 0.0
H1114 H 0.46417 0.61743 0.39476 0.0
H1115 H 0.49558 0.64966 0.40364 0.0
H1116 H 0.8601 0.50031 0.75568 0.0
H1117 H 0.86139 0.46918 0.74518 0.0
H1118 H 0.88854 0.48983 0.61091 0.0
H1119 H 0.88751 0.52092 0.62098 0.0
H1120 H 0.8431 0.44026 0.6728 0.0
H1121 H 0.9264 0.47368 0.67565 0.0
H1122 H 0.91404 0.48696 0.69679 0.0
H1123 H 0.91744 0.48545 0.6357 0.0
C1124 C 0.86654 0.49835 0.72411 0.0
C1125 C 0.87377 0.51323 0.68931 0.0
C1126 C 0.8672 0.48051 0.71811 0.0
C1127 C 0.87525 0.47731 0.67747 0.0
C1128 C 0.88257 0.49214 0.64285 0.0
H1129 H 0.85859 0.36165 0.57785 0.0
H1130 H 0.859 0.39384 0.58423 0.0
C1131 C 0.88188 0.5099 0.64869 0.0
C1132 C 0.87552 0.45824 0.67051 0.0
H1133 H 0.90708 0.43932 0.65327 0.0
C1134 C 0.85707 0.44001 0.6686 0.0
C1135 C 0.89378 0.458 0.66526 0.0
C1136 C 0.91407 0.47703 0.66883 0.0
C1137 C 0.85638 0.42152 0.66127 0.0
C1138 C 0.87464 0.42133 0.65512 0.0
C1139 C 0.89309 0.43955 0.65737 0.0
C1140 C 0.87501 0.40223 0.6495 0.0
C1141 C 0.83617 0.4023 0.66125 0.0
C1142 C 0.88439 0.3966 0.68329 0.0
C1143 C 0.88429 0.37837 0.67967 0.0
C1144 C 0.87487 0.36532 0.64196 0.0
C1145 C 0.86594 0.37127 0.60737 0.0
C1146 C 0.86603 0.38959 0.61112 0.0
H1147 H 0.82406 0.40461 0.67597 0.0
H1148 H 0.83196 0.39689 0.62515 0.0
H1149 H 0.8369 0.3903 0.68138 0.0
H1150 H 0.89148 0.40616 0.71307 0.0
H1151 H 0.8914 0.37441 0.70696 0.0
H1152 H 0.52088 0.88556 0.04968 0.0
H1153 H 0.48982 0.88661 0.0605 0.0
H1154 H 0.46801 0.85787 0.92821 0.0
H1155 H 0.49909 0.85656 0.917 0.0
H1156 H 0.47252 0.90457 0.0054 0.0
H1157 H 0.42267 0.82145 0.02021 0.0
H1158 H 0.44982 0.83364 0.0248 0.0
H1159 H 0.43809 0.82988 0.96905 0.0
C1160 C 0.50958 0.87952 0.02264 0.0
C1161 C 0.51251 0.87086 0.98249 0.0
C1162 C 0.4918 0.88015 0.02897 0.0
C1163 C 0.4765 0.87204 0.99554 0.0
C1164 C 0.47952 0.8639 0.95482 0.0
H1165 H 0.37305 0.88735 0.9645 0.0
H1166 H 0.40514 0.88806 0.9585 0.0
C1167 C 0.49737 0.86331 0.94832 0.0
C1168 C 0.45738 0.8721 1.00363 0.0
H1169 H 0.40661 0.84113 0.01854 0.0
C1170 C 0.45811 0.89071 0.00834 0.0
C1171 C 0.43867 0.85398 0.00829 0.0
C1172 C 0.43717 0.83357 0.00576 0.0
C1173 C 0.44052 0.8917 0.01648 0.0
C1174 C 0.42172 0.8736 0.01959 0.0
C1175 C 0.42105 0.85498 0.01596 0.0
C1176 C 0.40248 0.8737 0.02464 0.0
C1177 C 0.4422 0.9121 0.022 0.0
C1178 C 0.39018 0.86517 0.06372 0.0
C1179 C 0.37169 0.86472 0.06741 0.0
C1180 C 0.36509 0.87259 0.03174 0.0
C1181 C 0.37759 0.88118 0.99276 0.0
C1182 C 0.39604 0.8817 0.98928 0.0
H1183 H 0.45785 0.92398 0.03078 0.0
H1184 H 0.43797 0.91641 0.98896 0.0
H1185 H 0.43182 0.9117 0.04937 0.0
H1186 H 0.39487 0.85881 0.09129 0.0
H1187 H 0.36242 0.85789 0.09774 0.0
H1188 H 0.62545 0.5278 0.34864 0.0
H1189 H 0.59341 0.49644 0.35882 0.0
H1190 H 0.61656 0.46426 0.28108 0.0
H1191 H 0.64842 0.49583 0.26906 0.0
H1192 H 0.57872 0.45097 0.259 0.0
H1193 H 0.58425 0.45353 0.44994 0.0
H1194 H 0.5846 0.47549 0.42703 0.0
H1195 H 0.60484 0.47073 0.41343 0.0
C1196 C 0.62366 0.51406 0.33339 0.0
C1197 C 0.6395 0.51425 0.30828 0.0
C1198 C 0.6054 0.4961 0.33964 0.0
C1199 C 0.60276 0.47784 0.32201 0.0
C1200 C 0.61829 0.47812 0.29541 0.0
H1201 H 0.50997 0.35879 0.41516 0.0
H1202 H 0.54101 0.39117 0.40417 0.0
C1203 C 0.63647 0.49618 0.28841 0.0
C1204 C 0.58385 0.45849 0.33136 0.0
H1205 H 0.55246 0.42924 0.41815 0.0
C1206 C 0.57304 0.44618 0.29382 0.0
C1207 C 0.57662 0.45197 0.37689 0.0
C1208 C 0.5883 0.46352 0.41911 0.0
C1209 C 0.55507 0.42776 0.30041 0.0
C1210 C 0.54724 0.42181 0.34575 0.0
C1211 C 0.55824 0.43394 0.38335 0.0
C1212 C 0.52796 0.4028 0.35497 0.0
C1213 C 0.54501 0.41465 0.25871 0.0
C1214 C 0.51007 0.39883 0.33244 0.0
C1215 C 0.49241 0.38024 0.33818 0.0
C1216 C 0.49212 0.36543 0.36759 0.0
C1217 C 0.50967 0.36992 0.39246 0.0
C1218 C 0.52745 0.3884 0.38603 0.0
H1219 H 0.55592 0.41813 0.22996 0.0
H1220 H 0.53808 0.39837 0.26737 0.0
H1221 H 0.53298 0.41753 0.24602 0.0
H1222 H 0.50985 0.40996 0.30962 0.0
H1223 H 0.47905 0.3773 0.31891 0.0
H1224 H 0.11607 0.63098 0.70846 0.0
H1225 H 0.11595 0.59929 0.71628 0.0
H1226 H 0.14838 0.61065 0.58759 0.0
H1227 H 0.14889 0.64286 0.57954 0.0
H1228 H 0.1 0.56598 0.65917 0.0
H1229 H 0.18299 0.59959 0.67893 0.0
H1230 H 0.17063 0.61437 0.68324 0.0
H1231 H 0.17508 0.60696 0.62753 0.0
C1232 C 0.12319 0.62685 0.68156 0.0
C1233 C 0.1326 0.63963 0.64338 0.0
C1234 C 0.12307 0.60864 0.68619 0.0
C1235 C 0.1324 0.60273 0.65293 0.0
C1236 C 0.14141 0.61512 0.61413 0.0
H1237 H 0.11657 0.48292 0.62741 0.0
H1238 H 0.11614 0.5143 0.61794 0.0
C1239 C 0.14155 0.63345 0.6094 0.0
C1240 C 0.13248 0.58352 0.6594 0.0
H1241 H 0.16347 0.56391 0.67681 0.0
C1242 C 0.11388 0.56551 0.66292 0.0
C1243 C 0.1506 0.58301 0.66515 0.0
C1244 C 0.17098 0.602 0.66396 0.0
C1245 C 0.11289 0.54698 0.67162 0.0
C1246 C 0.131 0.54638 0.6762 0.0
C1247 C 0.14961 0.56441 0.67313 0.0
C1248 C 0.13092 0.52712 0.68305 0.0
C1249 C 0.09244 0.52825 0.67667 0.0
C1250 C 0.13966 0.52397 0.72264 0.0
C1251 C 0.14003 0.50595 0.72825 0.0
C1252 C 0.13179 0.49083 0.69411 0.0
C1253 C 0.12296 0.4941 0.65465 0.0
C1254 C 0.12261 0.51204 0.64915 0.0
H1255 H 0.08052 0.53202 0.685 0.0
H1256 H 0.0883 0.51979 0.64355 0.0
H1257 H 0.09263 0.51819 0.70416 0.0
H1258 H 0.14625 0.53549 0.74913 0.0
H1259 H 0.14706 0.50404 0.75889 0.0
H1260 H 0.64212 0.14477 0.0986 0.0
H1261 H 0.60943 0.14324 0.09034 0.0
H1262 H 0.60312 0.11899 0.95288 0.0
H1263 H 0.63535 0.1202 0.96069 0.0
H1264 H 0.59767 0.16224 0.02263 0.0
H1265 H 0.54968 0.07891 0.0151 0.0
H1266 H 0.57541 0.09132 0.03576 0.0
H1267 H 0.57026 0.08895 0.97467 0.0
C1268 C 0.6337 0.13895 0.06677 0.0
C1269 C 0.64139 0.13249 0.03049 0.0
C1270 C 0.61505 0.13814 0.06207 0.0
C1271 C 0.60373 0.13073 0.02124 0.0
C1272 C 0.6114 0.12438 0.98503 0.0
H1273 H 0.50597 0.14773 0.91823 0.0
H1274 H 0.53794 0.14808 0.9291 0.0
C1275 C 0.62995 0.12518 0.9896 0.0
C1276 C 0.58411 0.13003 0.01556 0.0
H1277 H 0.53421 0.09797 0.99246 0.0
C1278 C 0.58375 0.14819 0.01633 0.0
C1279 C 0.56596 0.11166 0.00767 0.0
C1280 C 0.56523 0.09157 0.00866 0.0
C1281 C 0.56577 0.14852 0.00848 0.0
C1282 C 0.54777 0.13022 0.99891 0.0
C1283 C 0.54808 0.11202 0.99911 0.0
C1284 C 0.52825 0.12947 0.99069 0.0
C1285 C 0.56614 0.1684 0.0112 0.0
C1286 C 0.51198 0.1183 0.02065 0.0
C1287 C 0.49369 0.1179 0.01433 0.0
C1288 C 0.49118 0.12863 0.97772 0.0
C1289 C 0.50734 0.13933 0.94683 0.0
C1290 C 0.5257 0.13971 0.95323 0.0
H1291 H 0.57976 0.18005 0.02962 0.0
H1292 H 0.56632 0.17398 0.97566 0.0
H1293 H 0.5525 0.1666 0.02915 0.0
H1294 H 0.51357 0.11018 0.0496 0.0
H1295 H 0.48163 0.10943 0.03883 0.0
loop_
_geom_bond_atom_site_label_1
_geom_bond_atom_site_label_2
_geom_bond_distance
_geom_bond_site_symmetry_2
_ccdc_geom_bond_type
Mn0 O5 2.095 . S
Mn0 O15 2.162 . S
Mn0 O16 2.297 . S
Mn0 O24 2.385 . S
Mn0 O25 2.209 . S
Mn0 O26 2.094 . S
Mn1 O6 2.121 . S
Mn1 N8 2.257 . S
Mn1 N17 2.282 . S
Mn1 O25 2.215 . S
Mn1 O27 2.117 . S
C2 O24 1.234 . S
C2 O25 1.283 . S
C3 O15 1.281 . S
C3 O16 1.236 . S
C4 O26 1.240 . S
C4 O27 1.264 . S
O5 Mn0 2.095 . S
O5 C14 1.250 . S
O6 Mn1 2.121 . S
O6 C14 1.258 . S
C7 N8 1.326 . S
C7 C11 1.460 . S
C7 H13 0.929 . S
N8 Mn1 2.257 . S
N8 C7 1.326 . S
N8 C12 1.362 . S
C9 C10 1.258 . S
C9 C12 1.431 . S
C9 C29 1.449 . S
C10 C9 1.258 . S
C10 C11 1.477 . S
C10 H30 0.931 . S
C11 C7 1.460 . S
C11 C10 1.477 . S
C11 H31 0.930 . S
C12 N8 1.362 . S
C12 C9 1.431 . S
C12 C22 1.476 . S
H13 C7 0.929 . S
C14 O5 1.250 . S
C14 O6 1.258 . S
O15 Mn0 2.162 . S
O15 C3 1.281 . S
O16 Mn0 2.297 . S
O16 C3 1.236 . S
N17 Mn1 2.282 . S
N17 C18 1.328 . S
N17 C22 1.318 . S
C18 N17 1.328 . S
C18 C19 1.457 . S
C18 H23 0.929 . S
C19 C18 1.457 . S
C19 C20 1.291 . S
C19 H32 0.931 . S
C20 C19 1.291 . S
C20 C21 1.373 . S
C20 H33 0.929 . S
C21 C20 1.373 . S
C21 C22 1.396 . S
C21 C28 1.403 . S
C22 C12 1.476 . S
C22 N17 1.318 . S
C22 C21 1.396 . S
H23 C18 0.929 . S
O24 Mn0 2.385 . S
O24 C2 1.234 . S
O25 Mn0 2.209 . S
O25 Mn1 2.215 . S
O25 C2 1.283 . S
O26 Mn0 2.094 . S
O26 C4 1.240 . S
O27 Mn1 2.117 . S
O27 C4 1.264 . S
C28 C21 1.403 . S
C28 C29 1.399 . S
C28 H34 0.929 . S
C29 C9 1.449 . S
C29 C28 1.399 . S
C29 H35 0.930 . S
H30 C10 0.931 . S
H31 C11 0.930 . S
H32 C19 0.931 . S
H33 C20 0.929 . S
H34 C28 0.929 . S
H35 C29 0.930 . S
Mn36 O41 2.095 . S
Mn36 O51 2.162 . S
Mn36 O52 2.297 . S
Mn36 O60 2.385 . S
Mn36 O61 2.209 . S
Mn36 O62 2.094 . S
Mn37 O42 2.121 . S
Mn37 N44 2.257 . S
Mn37 N53 2.282 . S
Mn37 O61 2.215 . S
Mn37 O63 2.117 . S
C38 O60 1.234 . S
C38 O61 1.283 . S
C39 O51 1.281 . S
C39 O52 1.236 . S
C40 O62 1.240 . S
C40 O63 1.264 . S
O41 Mn36 2.095 . S
O41 C50 1.250 . S
O42 Mn37 2.121 . S
O42 C50 1.258 . S
C43 N44 1.326 . S
C43 C47 1.460 . S
C43 H49 0.929 . S
N44 Mn37 2.257 . S
N44 C43 1.326 . S
N44 C48 1.362 . S
C45 C46 1.258 . S
C45 C48 1.431 . S
C45 C65 1.449 . S
C46 C45 1.258 . S
C46 C47 1.477 . S
C46 H66 0.931 . S
C47 C43 1.460 . S
C47 C46 1.477 . S
C47 H67 0.930 . S
C48 N44 1.362 . S
C48 C45 1.431 . S
C48 C58 1.476 . S
H49 C43 0.929 . S
C50 O41 1.250 . S
C50 O42 1.258 . S
O51 Mn36 2.162 . S
O51 C39 1.281 . S
O52 Mn36 2.297 . S
O52 C39 1.236 . S
N53 Mn37 2.282 . S
N53 C54 1.328 . S
N53 C58 1.318 . S
C54 N53 1.328 . S
C54 C55 1.457 . S
C54 H59 0.929 . S
C55 C54 1.457 . S
C55 C56 1.291 . S
C55 H68 0.931 . S
C56 C55 1.291 . S
C56 C57 1.373 . S
C56 H69 0.929 . S
C57 C56 1.373 . S
C57 C58 1.396 . S
C57 C64 1.403 . S
C58 C48 1.476 . S
C58 N53 1.318 . S
C58 C57 1.396 . S
H59 C54 0.929 . S
O60 Mn36 2.385 . S
O60 C38 1.234 . S
O61 Mn36 2.209 . S
O61 Mn37 2.215 . S
O61 C38 1.283 . S
O62 Mn36 2.094 . S
O62 C40 1.240 . S
O63 Mn37 2.117 . S
O63 C40 1.264 . S
C64 C57 1.403 . S
C64 C65 1.399 . S
C64 H70 0.929 . S
C65 C45 1.449 . S
C65 C64 1.399 . S
C65 H71 0.930 . S
H66 C46 0.931 . S
H67 C47 0.930 . S
H68 C55 0.931 . S
H69 C56 0.929 . S
H70 C64 0.929 . S
H71 C65 0.930 . S
Mn72 O77 2.095 . S
Mn72 O87 2.162 . S
Mn72 O88 2.297 . S
Mn72 O96 2.385 . S
Mn72 O97 2.209 1_556 S
Mn72 O98 2.094 . S
Mn73 O78 2.127 . S
Mn73 N80 2.257 . S
Mn73 N89 2.282 . S
Mn73 O97 2.215 . S
Mn73 O99 2.117 . S
C74 O96 1.234 1_554 S
C74 O97 1.283 . S
C75 O87 1.281 . S
C75 O88 1.236 . S
C76 O98 1.240 . S
C76 O99 1.264 1_556 S
O77 Mn72 2.095 . S
O77 C86 1.250 . S
O78 Mn73 2.127 . S
O78 C86 1.248 1_554 S
C79 N80 1.326 . S
C79 C83 1.460 . S
C79 H85 0.929 . S
N80 Mn73 2.257 . S
N80 C79 1.326 . S
N80 C84 1.362 . S
C81 C82 1.258 . S
C81 C84 1.431 . S
C81 C101 1.449 . S
C82 C81 1.258 . S
C82 C83 1.477 . S
C82 H102 0.931 . S
C83 C79 1.460 . S
C83 C82 1.477 . S
C83 H103 0.930 . S
C84 N80 1.362 . S
C84 C81 1.431 . S
C84 C94 1.476 . S
H85 C79 0.929 . S
C86 O77 1.250 . S
C86 O78 1.248 1_556 S
O87 Mn72 2.162 . S
O87 C75 1.281 . S
O88 Mn72 2.297 . S
O88 C75 1.236 . S
N89 Mn73 2.282 . S
N89 C90 1.328 . S
N89 C94 1.318 . S
C90 N89 1.328 . S
C90 C91 1.457 . S
C90 H95 0.929 . S
C91 C90 1.457 . S
C91 C92 1.291 . S
C91 H104 0.931 . S
C92 C91 1.291 . S
C92 C93 1.373 . S
C92 H105 0.929 . S
C93 C92 1.373 . S
C93 C94 1.396 . S
C93 C100 1.403 . S
C94 C84 1.476 . S
C94 N89 1.318 . S
C94 C93 1.396 . S
H95 C90 0.929 . S
O96 Mn72 2.385 . S
O96 C74 1.234 1_556 S
O97 Mn72 2.209 1_554 S
O97 Mn73 2.215 . S
O97 C74 1.283 . S
O98 Mn72 2.094 . S
O98 C76 1.240 . S
O99 Mn73 2.117 . S
O99 C76 1.264 1_554 S
C100 C93 1.403 . S
C100 C101 1.399 . S
C100 H106 0.929 . S
C101 C81 1.449 . S
C101 C100 1.399 . S
C101 H107 0.930 . S
H102 C82 0.931 . S
H103 C83 0.930 . S
H104 C91 0.931 . S
H105 C92 0.929 . S
H106 C100 0.929 . S
H107 C101 0.930 . S
Mn108 O113 2.095 . S
Mn108 O123 2.162 . S
Mn108 O124 2.297 . S
Mn108 O132 2.385 . S
Mn108 O133 2.209 . S
Mn108 O134 2.094 . S
Mn109 O114 2.121 . S
Mn109 N116 2.257 . S
Mn109 N125 2.282 . S
Mn109 O133 2.215 . S
Mn109 O135 2.117 . S
C110 O132 1.234 . S
C110 O133 1.283 . S
C111 O123 1.281 . S
C111 O124 1.236 . S
C112 O134 1.240 . S
C112 O135 1.264 . S
O113 Mn108 2.095 . S
O113 C122 1.250 . S
O114 Mn109 2.121 . S
O114 C122 1.258 . S
C115 N116 1.326 . S
C115 C119 1.460 . S
C115 H121 0.929 . S
N116 Mn109 2.257 . S
N116 C115 1.326 . S
N116 C120 1.362 . S
C117 C118 1.258 . S
C117 C120 1.431 . S
C117 C137 1.449 . S
C118 C117 1.258 . S
C118 C119 1.477 . S
C118 H138 0.931 . S
C119 C115 1.460 . S
C119 C118 1.477 . S
C119 H139 0.930 . S
C120 N116 1.362 . S
C120 C117 1.431 . S
C120 C130 1.476 . S
H121 C115 0.929 . S
C122 O113 1.250 . S
C122 O114 1.258 . S
O123 Mn108 2.162 . S
O123 C111 1.281 . S
O124 Mn108 2.297 . S
O124 C111 1.236 . S
N125 Mn109 2.282 . S
N125 C126 1.328 . S
N125 C130 1.318 . S
C126 N125 1.328 . S
C126 C127 1.457 . S
C126 H131 0.929 . S
C127 C126 1.457 . S
C127 C128 1.291 . S
C127 H140 0.931 . S
C128 C127 1.291 . S
C128 C129 1.373 . S
C128 H141 0.929 . S
C129 C128 1.373 . S
C129 C130 1.396 . S
C129 C136 1.403 . S
C130 C120 1.476 . S
C130 N125 1.318 . S
C130 C129 1.396 . S
H131 C126 0.929 . S
O132 Mn108 2.385 . S
O132 C110 1.234 . S
O133 Mn108 2.209 . S
O133 Mn109 2.215 . S
O133 C110 1.283 . S
O134 Mn108 2.094 . S
O134 C112 1.240 . S
O135 Mn109 2.117 . S
O135 C112 1.264 . S
C136 C129 1.403 . S
C136 C137 1.399 . S
C136 H142 0.929 . S
C137 C117 1.449 . S
C137 C136 1.399 . S
C137 H143 0.930 . S
H138 C118 0.931 . S
H139 C119 0.930 . S
H140 C127 0.931 . S
H141 C128 0.929 . S
H142 C136 0.929 . S
H143 C137 0.930 . S
Mn144 O149 2.095 . S
Mn144 O159 2.162 . S
Mn144 O160 2.297 . S
Mn144 O168 2.385 . S
Mn144 O169 2.209 . S
Mn144 O170 2.094 . S
Mn145 O150 2.121 . S
Mn145 N152 2.257 . S
Mn145 N161 2.282 . S
Mn145 O169 2.215 . S
Mn145 O171 2.117 . S
C146 O168 1.234 . S
C146 O169 1.283 . S
C147 O159 1.281 . S
C147 O160 1.236 . S
C148 O170 1.240 . S
C148 O171 1.264 . S
O149 Mn144 2.095 . S
O149 C158 1.250 . S
O150 Mn145 2.121 . S
O150 C158 1.258 . S
C151 N152 1.326 . S
C151 C155 1.460 . S
C151 H157 0.929 . S
N152 Mn145 2.257 . S
N152 C151 1.326 . S
N152 C156 1.362 . S
C153 C154 1.258 . S
C153 C156 1.431 . S
C153 C173 1.449 . S
C154 C153 1.258 . S
C154 C155 1.477 . S
C154 H174 0.931 . S
C155 C151 1.460 . S
C155 C154 1.477 . S
C155 H175 0.930 . S
C156 N152 1.362 . S
C156 C153 1.431 . S
C156 C166 1.476 . S
H157 C151 0.929 . S
C158 O149 1.250 . S
C158 O150 1.258 . S
O159 Mn144 2.162 . S
O159 C147 1.281 . S
O160 Mn144 2.297 . S
O160 C147 1.236 . S
N161 Mn145 2.282 . S
N161 C162 1.328 . S
N161 C166 1.318 . S
C162 N161 1.328 . S
C162 C163 1.457 . S
C162 H167 0.929 . S
C163 C162 1.457 . S
C163 C164 1.291 . S
C163 H176 0.931 . S
C164 C163 1.291 . S
C164 C165 1.373 . S
C164 H177 0.929 . S
C165 C164 1.373 . S
C165 C166 1.396 . S
C165 C172 1.403 . S
C166 C156 1.476 . S
C166 N161 1.318 . S
C166 C165 1.396 . S
H167 C162 0.929 . S
O168 Mn144 2.385 . S
O168 C146 1.234 . S
O169 Mn144 2.209 . S
O169 Mn145 2.215 . S
O169 C146 1.283 . S
O170 Mn144 2.094 . S
O170 C148 1.240 . S
O171 Mn145 2.117 . S
O171 C148 1.264 . S
C172 C165 1.403 . S
C172 C173 1.399 . S
C172 H178 0.929 . S
C173 C153 1.449 . S
C173 C172 1.399 . S
C173 H179 0.930 . S
H174 C154 0.931 . S
H175 C155 0.930 . S
H176 C163 0.931 . S
H177 C164 0.929 . S
H178 C172 0.929 . S
H179 C173 0.930 . S
Mn180 O185 2.095 . S
Mn180 O195 2.162 . S
Mn180 O196 2.297 . S
Mn180 O204 2.385 . S
Mn180 O205 2.209 1_556 S
Mn180 O206 2.094 . S
Mn181 O186 2.127 . S
Mn181 N188 2.257 . S
Mn181 N197 2.282 . S
Mn181 O205 2.215 . S
Mn181 O207 2.117 . S
C182 O204 1.234 1_554 S
C182 O205 1.283 . S
C183 O195 1.281 . S
C183 O196 1.236 . S
C184 O206 1.240 . S
C184 O207 1.264 1_556 S
O185 Mn180 2.095 . S
O185 C194 1.250 . S
O186 Mn181 2.127 . S
O186 C194 1.248 1_554 S
C187 N188 1.326 . S
C187 C191 1.460 . S
C187 H193 0.929 . S
N188 Mn181 2.257 . S
N188 C187 1.326 . S
N188 C192 1.362 . S
C189 C190 1.258 . S
C189 C192 1.431 . S
C189 C209 1.449 . S
C190 C189 1.258 . S
C190 C191 1.477 . S
C190 H210 0.931 . S
C191 C187 1.460 . S
C191 C190 1.477 . S
C191 H211 0.930 . S
C192 N188 1.362 . S
C192 C189 1.431 . S
C192 C202 1.476 . S
H193 C187 0.929 . S
C194 O185 1.250 . S
C194 O186 1.248 1_556 S
O195 Mn180 2.162 . S
O195 C183 1.281 . S
O196 Mn180 2.297 . S
O196 C183 1.236 . S
N197 Mn181 2.282 . S
N197 C198 1.328 . S
N197 C202 1.318 . S
C198 N197 1.328 . S
C198 C199 1.457 . S
C198 H203 0.929 . S
C199 C198 1.457 . S
C199 C200 1.291 . S
C199 H212 0.931 . S
C200 C199 1.291 . S
C200 C201 1.373 . S
C200 H213 0.929 . S
C201 C200 1.373 . S
C201 C202 1.396 . S
C201 C208 1.403 . S
C202 C192 1.476 . S
C202 N197 1.318 . S
C202 C201 1.396 . S
H203 C198 0.929 . S
O204 Mn180 2.385 . S
O204 C182 1.234 1_556 S
O205 Mn180 2.209 1_554 S
O205 Mn181 2.215 . S
O205 C182 1.283 . S
O206 Mn180 2.094 . S
O206 C184 1.240 . S
O207 Mn181 2.117 . S
O207 C184 1.264 1_554 S
C208 C201 1.403 . S
C208 C209 1.399 . S
C208 H214 0.929 . S
C209 C189 1.449 . S
C209 C208 1.399 . S
C209 H215 0.930 . S
H210 C190 0.931 . S
H211 C191 0.930 . S
H212 C199 0.931 . S
H213 C200 0.929 . S
H214 C208 0.929 . S
H215 C209 0.930 . S
Mn216 O221 2.095 . S
Mn216 O231 2.162 . S
Mn216 O232 2.297 . S
Mn216 O240 2.385 . S
Mn216 O241 2.209 . S
Mn216 O242 2.094 . S
Mn217 O222 2.121 . S
Mn217 N224 2.257 . S
Mn217 N233 2.282 . S
Mn217 O241 2.215 . S
Mn217 O243 2.117 . S
C218 O240 1.234 . S
C218 O241 1.283 . S
C219 O231 1.281 . S
C219 O232 1.236 . S
C220 O242 1.240 . S
C220 O243 1.264 . S
O221 Mn216 2.095 . S
O221 C230 1.250 . S
O222 Mn217 2.121 . S
O222 C230 1.258 . S
C223 N224 1.326 . S
C223 C227 1.460 . S
C223 H229 0.929 . S
N224 Mn217 2.257 . S
N224 C223 1.326 . S
N224 C228 1.362 . S
C225 C226 1.258 . S
C225 C228 1.431 . S
C225 C245 1.449 . S
C226 C225 1.258 . S
C226 C227 1.477 . S
C226 H246 0.931 . S
C227 C223 1.460 . S
C227 C226 1.477 . S
C227 H247 0.930 . S
C228 N224 1.362 . S
C228 C225 1.431 . S
C228 C238 1.476 . S
H229 C223 0.929 . S
C230 O221 1.250 . S
C230 O222 1.258 . S
O231 Mn216 2.162 . S
O231 C219 1.281 . S
O232 Mn216 2.297 . S
O232 C219 1.236 . S
N233 Mn217 2.282 . S
N233 C234 1.328 . S
N233 C238 1.318 . S
C234 N233 1.328 . S
C234 C235 1.457 . S
C234 H239 0.929 . S
C235 C234 1.457 . S
C235 C236 1.291 . S
C235 H248 0.931 . S
C236 C235 1.291 . S
C236 C237 1.373 . S
C236 H249 0.929 . S
C237 C236 1.373 . S
C237 C238 1.396 . S
C237 C244 1.403 . S
C238 C228 1.476 . S
C238 N233 1.318 . S
C238 C237 1.396 . S
H239 C234 0.929 . S
O240 Mn216 2.385 . S
O240 C218 1.234 . S
O241 Mn216 2.209 . S
O241 Mn217 2.215 . S
O241 C218 1.283 . S
O242 Mn216 2.094 . S
O242 C220 1.240 . S
O243 Mn217 2.117 . S
O243 C220 1.264 . S
C244 C237 1.403 . S
C244 C245 1.399 . S
C244 H250 0.929 . S
C245 C225 1.449 . S
C245 C244 1.399 . S
C245 H251 0.930 . S
H246 C226 0.931 . S
H247 C227 0.930 . S
H248 C235 0.931 . S
H249 C236 0.929 . S
H250 C244 0.929 . S
H251 C245 0.930 . S
Mn252 O257 2.095 . S
Mn252 O267 2.162 . S
Mn252 O268 2.297 . S
Mn252 O276 2.385 . S
Mn252 O277 2.209 . S
Mn252 O278 2.094 . S
Mn253 O258 2.121 . S
Mn253 N260 2.257 . S
Mn253 N269 2.282 . S
Mn253 O277 2.215 . S
Mn253 O279 2.117 . S
C254 O276 1.234 . S
C254 O277 1.283 . S
C255 O267 1.281 . S
C255 O268 1.236 . S
C256 O278 1.240 . S
C256 O279 1.264 . S
O257 Mn252 2.095 . S
O257 C266 1.250 . S
O258 Mn253 2.121 . S
O258 C266 1.258 . S
C259 N260 1.326 . S
C259 C263 1.460 . S
C259 H265 0.929 . S
N260 Mn253 2.257 . S
N260 C259 1.326 . S
N260 C264 1.362 . S
C261 C262 1.258 . S
C261 C264 1.431 . S
C261 C281 1.449 . S
C262 C261 1.258 . S
C262 C263 1.477 . S
C262 H282 0.931 . S
C263 C259 1.460 . S
C263 C262 1.477 . S
C263 H283 0.930 . S
C264 N260 1.362 . S
C264 C261 1.431 . S
C264 C274 1.476 . S
H265 C259 0.929 . S
C266 O257 1.250 . S
C266 O258 1.258 . S
O267 Mn252 2.162 . S
O267 C255 1.281 . S
O268 Mn252 2.297 . S
O268 C255 1.236 . S
N269 Mn253 2.282 . S
N269 C270 1.328 . S
N269 C274 1.318 . S
C270 N269 1.328 . S
C270 C271 1.457 . S
C270 H275 0.929 . S
C271 C270 1.457 . S
C271 C272 1.291 . S
C271 H284 0.931 . S
C272 C271 1.291 . S
C272 C273 1.373 . S
C272 H285 0.929 . S
C273 C272 1.373 . S
C273 C274 1.396 . S
C273 C280 1.403 . S
C274 C264 1.476 . S
C274 N269 1.318 . S
C274 C273 1.396 . S
H275 C270 0.929 . S
O276 Mn252 2.385 . S
O276 C254 1.234 . S
O277 Mn252 2.209 . S
O277 Mn253 2.215 . S
O277 C254 1.283 . S
O278 Mn252 2.094 . S
O278 C256 1.240 . S
O279 Mn253 2.117 . S
O279 C256 1.264 . S
C280 C273 1.403 . S
C280 C281 1.399 . S
C280 H286 0.929 . S
C281 C261 1.449 . S
C281 C280 1.399 . S
C281 H287 0.930 . S
H282 C262 0.931 . S
H283 C263 0.930 . S
H284 C271 0.931 . S
H285 C272 0.929 . S
H286 C280 0.929 . S
H287 C281 0.930 . S
Mn288 O293 2.095 . S
Mn288 O303 2.162 . S
Mn288 O304 2.297 . S
Mn288 O312 2.385 . S
Mn288 O313 2.209 1_554 S
Mn288 O314 2.094 . S
Mn289 O294 2.128 . S
Mn289 N296 2.257 . S
Mn289 N305 2.282 . S
Mn289 O313 2.215 . S
Mn289 O315 2.117 . S
C290 O312 1.234 1_556 S
C290 O313 1.283 . S
C291 O303 1.281 . S
C291 O304 1.236 . S
C292 O314 1.240 . S
C292 O315 1.264 1_554 S
O293 Mn288 2.095 . S
O293 C302 1.250 . S
O294 Mn289 2.128 . S
O294 C302 1.247 1_556 S
C295 N296 1.326 . S
C295 C299 1.460 . S
C295 H301 0.929 . S
N296 Mn289 2.257 . S
N296 C295 1.326 . S
N296 C300 1.362 . S
C297 C298 1.258 . S
C297 C300 1.431 . S
C297 C317 1.449 . S
C298 C297 1.258 . S
C298 C299 1.477 . S
C298 H318 0.931 . S
C299 C295 1.460 . S
C299 C298 1.477 . S
C299 H319 0.930 . S
C300 N296 1.362 . S
C300 C297 1.431 . S
C300 C310 1.476 . S
H301 C295 0.929 . S
C302 O293 1.250 . S
C302 O294 1.247 1_554 S
O303 Mn288 2.162 . S
O303 C291 1.281 . S
O304 Mn288 2.297 . S
O304 C291 1.236 . S
N305 Mn289 2.282 . S
N305 C306 1.328 . S
N305 C310 1.318 . S
C306 N305 1.328 . S
C306 C307 1.457 . S
C306 H311 0.929 . S
C307 C306 1.457 . S
C307 C308 1.291 . S
C307 H320 0.931 . S
C308 C307 1.291 . S
C308 C309 1.373 . S
C308 H321 0.929 . S
C309 C308 1.373 . S
C309 C310 1.396 . S
C309 C316 1.403 . S
C310 C300 1.476 . S
C310 N305 1.318 . S
C310 C309 1.396 . S
H311 C306 0.929 . S
O312 Mn288 2.385 . S
O312 C290 1.234 1_554 S
O313 Mn288 2.209 1_556 S
O313 Mn289 2.215 . S
O313 C290 1.283 . S
O314 Mn288 2.094 . S
O314 C292 1.240 . S
O315 Mn289 2.117 . S
O315 C292 1.264 1_556 S
C316 C309 1.403 . S
C316 C317 1.399 . S
C316 H322 0.929 . S
C317 C297 1.449 . S
C317 C316 1.399 . S
C317 H323 0.930 . S
H318 C298 0.931 . S
H319 C299 0.930 . S
H320 C307 0.931 . S
H321 C308 0.929 . S
H322 C316 0.929 . S
H323 C317 0.930 . S
Mn324 O329 2.095 . S
Mn324 O339 2.162 . S
Mn324 O340 2.297 . S
Mn324 O348 2.385 . S
Mn324 O349 2.209 . S
Mn324 O350 2.094 . S
Mn325 O330 2.121 . S
Mn325 N332 2.257 . S
Mn325 N341 2.282 . S
Mn325 O349 2.215 . S
Mn325 O351 2.117 . S
C326 O348 1.234 . S
C326 O349 1.283 . S
C327 O339 1.281 . S
C327 O340 1.236 . S
C328 O350 1.240 . S
C328 O351 1.264 . S
O329 Mn324 2.095 . S
O329 C338 1.250 . S
O330 Mn325 2.121 . S
O330 C338 1.258 . S
C331 N332 1.326 . S
C331 C335 1.460 . S
C331 H337 0.929 . S
N332 Mn325 2.257 . S
N332 C331 1.326 . S
N332 C336 1.362 . S
C333 C334 1.258 . S
C333 C336 1.431 . S
C333 C353 1.449 . S
C334 C333 1.258 . S
C334 C335 1.477 . S
C334 H354 0.931 . S
C335 C331 1.460 . S
C335 C334 1.477 . S
C335 H355 0.930 . S
C336 N332 1.362 . S
C336 C333 1.431 . S
C336 C346 1.476 . S
H337 C331 0.929 . S
C338 O329 1.250 . S
C338 O330 1.258 . S
O339 Mn324 2.162 . S
O339 C327 1.281 . S
O340 Mn324 2.297 . S
O340 C327 1.236 . S
N341 Mn325 2.282 . S
N341 C342 1.328 . S
N341 C346 1.318 . S
C342 N341 1.328 . S
C342 C343 1.457 . S
C342 H347 0.929 . S
C343 C342 1.457 . S
C343 C344 1.291 . S
C343 H356 0.931 . S
C344 C343 1.291 . S
C344 C345 1.373 . S
C344 H357 0.929 . S
C345 C344 1.373 . S
C345 C346 1.396 . S
C345 C352 1.403 . S
C346 C336 1.476 . S
C346 N341 1.318 . S
C346 C345 1.396 . S
H347 C342 0.929 . S
O348 Mn324 2.385 . S
O348 C326 1.234 . S
O349 Mn324 2.209 . S
O349 Mn325 2.215 . S
O349 C326 1.283 . S
O350 Mn324 2.094 . S
O350 C328 1.240 . S
O351 Mn325 2.117 . S
O351 C328 1.264 . S
C352 C345 1.403 . S
C352 C353 1.399 . S
C352 H358 0.929 . S
C353 C333 1.449 . S
C353 C352 1.399 . S
C353 H359 0.930 . S
H354 C334 0.931 . S
H355 C335 0.930 . S
H356 C343 0.931 . S
H357 C344 0.929 . S
H358 C352 0.929 . S
H359 C353 0.930 . S
Mn360 O365 2.095 . S
Mn360 O375 2.162 . S
Mn360 O376 2.297 . S
Mn360 O384 2.385 . S
Mn360 O385 2.209 . S
Mn360 O386 2.094 . S
Mn361 O366 2.121 . S
Mn361 N368 2.257 . S
Mn361 N377 2.282 . S
Mn361 O385 2.215 . S
Mn361 O387 2.117 . S
C362 O384 1.234 . S
C362 O385 1.283 . S
C363 O375 1.281 . S
C363 O376 1.236 . S
C364 O386 1.240 . S
C364 O387 1.264 . S
O365 Mn360 2.095 . S
O365 C374 1.250 . S
O366 Mn361 2.121 . S
O366 C374 1.258 . S
C367 N368 1.326 . S
C367 C371 1.460 . S
C367 H373 0.929 . S
N368 Mn361 2.257 . S
N368 C367 1.326 . S
N368 C372 1.362 . S
C369 C370 1.258 . S
C369 C372 1.431 . S
C369 C389 1.449 . S
C370 C369 1.258 . S
C370 C371 1.477 . S
C370 H390 0.931 . S
C371 C367 1.460 . S
C371 C370 1.477 . S
C371 H391 0.930 . S
C372 N368 1.362 . S
C372 C369 1.431 . S
C372 C382 1.476 . S
H373 C367 0.929 . S
C374 O365 1.250 . S
C374 O366 1.258 . S
O375 Mn360 2.162 . S
O375 C363 1.281 . S
O376 Mn360 2.297 . S
O376 C363 1.236 . S
N377 Mn361 2.282 . S
N377 C378 1.328 . S
N377 C382 1.318 . S
C378 N377 1.328 . S
C378 C379 1.457 . S
C378 H383 0.929 . S
C379 C378 1.457 . S
C379 C380 1.291 . S
C379 H392 0.931 . S
C380 C379 1.291 . S
C380 C381 1.373 . S
C380 H393 0.929 . S
C381 C380 1.373 . S
C381 C382 1.396 . S
C381 C388 1.403 . S
C382 C372 1.476 . S
C382 N377 1.318 . S
C382 C381 1.396 . S
H383 C378 0.929 . S
O384 Mn360 2.385 . S
O384 C362 1.234 . S
O385 Mn360 2.209 . S
O385 Mn361 2.215 . S
O385 C362 1.283 . S
O386 Mn360 2.094 . S
O386 C364 1.240 . S
O387 Mn361 2.117 . S
O387 C364 1.264 . S
C388 C381 1.403 . S
C388 C389 1.399 . S
C388 H394 0.929 . S
C389 C369 1.449 . S
C389 C388 1.399 . S
C389 H395 0.930 . S
H390 C370 0.931 . S
H391 C371 0.930 . S
H392 C379 0.931 . S
H393 C380 0.929 . S
H394 C388 0.929 . S
H395 C389 0.930 . S
Mn396 O401 2.095 . S
Mn396 O411 2.162 . S
Mn396 O412 2.297 . S
Mn396 O420 2.385 . S
Mn396 O421 2.209 1_554 S
Mn396 O422 2.094 . S
Mn397 O402 2.128 . S
Mn397 N404 2.257 . S
Mn397 N413 2.282 . S
Mn397 O421 2.215 . S
Mn397 O423 2.117 . S
C398 O420 1.234 1_556 S
C398 O421 1.283 . S
C399 O411 1.281 . S
C399 O412 1.236 . S
C400 O422 1.240 . S
C400 O423 1.264 1_554 S
O401 Mn396 2.095 . S
O401 C410 1.250 . S
O402 Mn397 2.128 . S
O402 C410 1.247 1_556 S
C403 N404 1.326 . S
C403 C407 1.460 . S
C403 H409 0.929 . S
N404 Mn397 2.257 . S
N404 C403 1.326 . S
N404 C408 1.362 . S
C405 C406 1.258 . S
C405 C408 1.431 . S
C405 C425 1.449 . S
C406 C405 1.258 . S
C406 C407 1.477 . S
C406 H426 0.931 . S
C407 C403 1.460 . S
C407 C406 1.477 . S
C407 H427 0.930 . S
C408 N404 1.362 . S
C408 C405 1.431 . S
C408 C418 1.476 . S
H409 C403 0.929 . S
C410 O401 1.250 . S
C410 O402 1.247 1_554 S
O411 Mn396 2.162 . S
O411 C399 1.281 . S
O412 Mn396 2.297 . S
O412 C399 1.236 . S
N413 Mn397 2.282 . S
N413 C414 1.328 . S
N413 C418 1.318 . S
C414 N413 1.328 . S
C414 C415 1.457 . S
C414 H419 0.929 . S
C415 C414 1.457 . S
C415 C416 1.291 . S
C415 H428 0.931 . S
C416 C415 1.291 . S
C416 C417 1.373 . S
C416 H429 0.929 . S
C417 C416 1.373 . S
C417 C418 1.396 . S
C417 C424 1.403 . S
C418 C408 1.476 . S
C418 N413 1.318 . S
C418 C417 1.396 . S
H419 C414 0.929 . S
O420 Mn396 2.385 . S
O420 C398 1.234 1_554 S
O421 Mn396 2.209 1_556 S
O421 Mn397 2.215 . S
O421 C398 1.283 . S
O422 Mn396 2.094 . S
O422 C400 1.240 . S
O423 Mn397 2.117 . S
O423 C400 1.264 1_556 S
C424 C417 1.403 . S
C424 C425 1.399 . S
C424 H430 0.929 . S
C425 C405 1.449 . S
C425 C424 1.399 . S
C425 H431 0.930 . S
H426 C406 0.931 . S
H427 C407 0.930 . S
H428 C415 0.931 . S
H429 C416 0.929 . S
H430 C424 0.929 . S
H431 C425 0.930 . S
H432 C440 0.929 . S
H433 C442 0.930 . S
H434 C444 0.930 . S
H435 C447 0.929 . S
H436 C450 0.930 . S
H437 C452 0.960 . S
H438 C452 0.960 . S
H439 C452 0.960 . S
C440 H432 0.929 . S
C440 C441 1.377 . S
C440 C442 1.384 . S
C441 C440 1.377 . S
C441 C447 1.390 . S
C442 H433 0.930 . S
C442 C440 1.384 . S
C442 C443 1.372 . S
C443 C442 1.372 . S
C443 C444 1.400 . S
C443 C448 1.490 . S
C444 H434 0.930 . S
C444 C443 1.400 . S
C444 C447 1.386 . S
H445 C461 0.930 . S
H446 C462 0.931 . S
C447 H435 0.929 . S
C447 C441 1.390 . S
C447 C444 1.386 . S
C448 C443 1.490 . S
C448 C450 1.395 . S
C448 C451 1.403 . S
H449 C455 0.930 . S
C450 H436 0.930 . S
C450 C448 1.395 . S
C450 C453 1.403 . S
C451 C448 1.403 . S
C451 C452 1.524 . S
C451 C455 1.400 . S
C452 H437 0.960 . S
C452 H438 0.960 . S
C452 H439 0.960 . S
C452 C451 1.524 . S
C453 C450 1.403 . S
C453 C454 1.392 . S
C453 C457 1.495 . S
C454 C453 1.392 . S
C454 C455 1.385 . S
C454 C456 1.478 . S
C455 H449 0.930 . S
C455 C451 1.400 . S
C455 C454 1.385 . S
C456 C454 1.478 . S
C456 C458 1.381 . S
C456 C462 1.383 . S
C457 C453 1.495 . S
C457 H463 0.959 . S
C457 H464 0.961 . S
C457 H465 0.960 . S
C458 C456 1.381 . S
C458 C459 1.394 . S
C458 H466 0.930 . S
C459 C458 1.394 . S
C459 C460 1.383 . S
C459 H467 0.929 . S
C460 C459 1.383 . S
C460 C461 1.377 . S
C461 H445 0.930 . S
C461 C460 1.377 . S
C461 C462 1.379 . S
C462 H446 0.931 . S
C462 C456 1.383 . S
C462 C461 1.379 . S
H463 C457 0.959 . S
H464 C457 0.961 . S
H465 C457 0.960 . S
H466 C458 0.930 . S
H467 C459 0.929 . S
H468 C476 0.929 . S
H469 C478 0.930 . S
H470 C480 0.930 . S
H471 C483 0.929 . S
H472 C486 0.930 . S
H473 C488 0.970 . S
H474 C488 0.960 . S
H475 C488 0.960 . S
C476 H468 0.929 . S
C476 C477 1.377 . S
C476 C478 1.384 . S
C477 C476 1.377 . S
C477 C483 1.390 . S
C478 H469 0.930 . S
C478 C476 1.384 . S
C478 C479 1.372 . S
C479 C478 1.372 . S
C479 C480 1.400 . S
C479 C484 1.490 . S
C480 H470 0.930 . S
C480 C479 1.400 . S
C480 C483 1.386 . S
H481 C497 0.930 . S
H482 C498 0.931 . S
C483 H471 0.929 . S
C483 C477 1.390 . S
C483 C480 1.386 . S
C484 C479 1.490 . S
C484 C486 1.395 . S
C484 C487 1.403 . S
H485 C491 0.930 . S
C486 H472 0.930 . S
C486 C484 1.395 . S
C486 C489 1.403 1_655 S
C487 C484 1.403 . S
C487 C488 1.524 . S
C487 C491 1.400 1_655 S
C488 H473 0.970 . S
C488 H474 0.960 . S
C488 H475 0.960 . S
C488 C487 1.524 . S
C489 C486 1.403 1_455 S
C489 C490 1.392 . S
C489 C493 1.495 . S
C490 C489 1.392 . S
C490 C491 1.385 . S
C490 C492 1.478 . S
C491 H485 0.930 . S
C491 C487 1.400 1_455 S
C491 C490 1.385 . S
C492 C490 1.478 . S
C492 C494 1.381 . S
C492 C498 1.383 . S
C493 C489 1.495 . S
C493 H499 0.959 . S
C493 H500 0.961 . S
C493 H501 0.960 . S
C494 C492 1.381 . S
C494 C495 1.394 . S
C494 H502 0.930 . S
C495 C494 1.394 . S
C495 C496 1.383 . S
C495 H503 0.929 . S
C496 C495 1.383 . S
C496 C497 1.377 . S
C497 H481 0.930 . S
C497 C496 1.377 . S
C497 C498 1.379 . S
C498 H482 0.931 . S
C498 C492 1.383 . S
C498 C497 1.379 . S
H499 C493 0.959 . S
H500 C493 0.961 . S
H501 C493 0.960 . S
H502 C494 0.930 . S
H503 C495 0.929 . S
H504 C512 0.929 . S
H505 C514 0.930 . S
H506 C516 0.930 1_554 S
H507 C519 0.928 1_554 S
H508 C522 0.930 . S
H509 C524 0.960 . S
H510 C524 0.960 . S
H511 C524 0.960 . S
C512 H504 0.929 . S
C512 C513 1.377 . S
C512 C514 1.384 . S
C513 C512 1.377 . S
C513 C519 1.390 . S
C514 H505 0.930 . S
C514 C512 1.384 . S
C514 C515 1.372 . S
C515 C514 1.372 . S
C515 C516 1.400 . S
C515 C520 1.490 . S
C516 H506 0.930 1_556 S
C516 C515 1.400 . S
C516 C519 1.386 . S
H517 C533 0.930 . S
H518 C534 0.931 . S
C519 H507 0.928 1_556 S
C519 C513 1.390 . S
C519 C516 1.386 . S
C520 C515 1.490 . S
C520 C522 1.395 . S
C520 C523 1.403 1_556 S
H521 C527 0.930 . S
C522 H508 0.930 . S
C522 C520 1.395 . S
C522 C525 1.403 1_565 S
C523 C520 1.403 1_554 S
C523 C524 1.524 . S
C523 C527 1.400 1_565 S
C524 H509 0.960 . S
C524 H510 0.960 . S
C524 H511 0.960 . S
C524 C523 1.524 . S
C525 C522 1.403 1_545 S
C525 C526 1.392 1_556 S
C525 C529 1.495 . S
C526 C525 1.392 1_554 S
C526 C527 1.385 . S
C526 C528 1.478 . S
C527 H521 0.930 . S
C527 C523 1.400 1_545 S
C527 C526 1.385 . S
C528 C526 1.478 . S
C528 C530 1.376 1_554 S
C528 C534 1.383 . S
C529 C525 1.495 . S
C529 H535 0.959 . S
C529 H536 0.961 . S
C529 H537 0.960 . S
C530 C528 1.376 1_556 S
C530 C531 1.390 1_556 S
C530 H538 0.940 . S
C531 C530 1.390 1_554 S
C531 C532 1.383 . S
C531 H539 0.929 . S
C532 C531 1.383 . S
C532 C533 1.377 . S
C533 H517 0.930 . S
C533 C532 1.377 . S
C533 C534 1.379 . S
C534 H518 0.931 . S
C534 C528 1.383 . S
C534 C533 1.379 . S
H535 C529 0.959 . S
H536 C529 0.961 . S
H537 C529 0.960 . S
H538 C530 0.940 . S
H539 C531 0.929 . S
H540 C548 0.929 . S
H541 C550 0.930 . S
H542 C552 0.930 . S
H543 C555 0.929 . S
H544 C558 0.930 . S
H545 C560 0.960 . S
H546 C560 0.960 . S
H547 C560 0.960 . S
C548 H540 0.929 . S
C548 C549 1.377 . S
C548 C550 1.384 . S
C549 C548 1.377 . S
C549 C555 1.390 . S
C550 H541 0.930 . S
C550 C548 1.384 . S
C550 C551 1.372 . S
C551 C550 1.372 . S
C551 C552 1.400 . S
C551 C556 1.490 . S
C552 H542 0.930 . S
C552 C551 1.400 . S
C552 C555 1.386 . S
H553 C569 0.930 . S
H554 C570 0.931 . S
C555 H543 0.929 . S
C555 C549 1.390 . S
C555 C552 1.386 . S
C556 C551 1.490 . S
C556 C558 1.395 . S
C556 C559 1.403 . S
H557 C563 0.930 . S
C558 H544 0.930 . S
C558 C556 1.395 . S
C558 C561 1.403 . S
C559 C556 1.403 . S
C559 C560 1.524 . S
C559 C563 1.400 . S
C560 H545 0.960 . S
C560 H546 0.960 . S
C560 H547 0.960 . S
C560 C559 1.524 . S
C561 C558 1.403 . S
C561 C562 1.392 . S
C561 C565 1.495 . S
C562 C561 1.392 . S
C562 C563 1.385 . S
C562 C564 1.478 . S
C563 H557 0.930 . S
C563 C559 1.400 . S
C563 C562 1.385 . S
C564 C562 1.478 . S
C564 C566 1.381 . S
C564 C570 1.383 . S
C565 C561 1.495 . S
C565 H571 0.959 . S
C565 H572 0.961 . S
C565 H573 0.960 . S
C566 C564 1.381 . S
C566 C567 1.394 . S
C566 H574 0.930 . S
C567 C566 1.394 . S
C567 C568 1.383 . S
C567 H575 0.929 . S
C568 C567 1.383 . S
C568 C569 1.377 . S
C569 H553 0.930 . S
C569 C568 1.377 . S
C569 C570 1.379 . S
C570 H554 0.931 . S
C570 C564 1.383 . S
C570 C569 1.379 . S
H571 C565 0.959 . S
H572 C565 0.961 . S
H573 C565 0.960 . S
H574 C566 0.930 . S
H575 C567 0.929 . S
H576 C584 0.929 . S
H577 C586 0.930 . S
H578 C588 0.930 . S
H579 C591 0.929 . S
H580 C594 0.930 . S
H581 C596 0.960 . S
H582 C596 0.960 . S
H583 C596 0.960 . S
C584 H576 0.929 . S
C584 C585 1.377 . S
C584 C586 1.384 . S
C585 C584 1.377 . S
C585 C591 1.390 . S
C586 H577 0.930 . S
C586 C584 1.384 . S
C586 C587 1.372 . S
C587 C586 1.372 . S
C587 C588 1.400 . S
C587 C592 1.490 . S
C588 H578 0.930 . S
C588 C587 1.400 . S
C588 C591 1.386 . S
H589 C605 0.930 . S
H590 C606 0.931 . S
C591 H579 0.929 . S
C591 C585 1.390 . S
C591 C588 1.386 . S
C592 C587 1.490 . S
C592 C594 1.395 . S
C592 C595 1.403 . S
H593 C599 0.930 . S
C594 H580 0.930 . S
C594 C592 1.395 . S
C594 C597 1.403 1_655 S
C595 C592 1.403 . S
C595 C596 1.524 . S
C595 C599 1.400 1_655 S
C596 H581 0.960 . S
C596 H582 0.960 . S
C596 H583 0.960 . S
C596 C595 1.524 . S
C597 C594 1.403 1_455 S
C597 C598 1.392 . S
C597 C601 1.495 . S
C598 C597 1.392 . S
C598 C599 1.385 . S
C598 C600 1.478 . S
C599 H593 0.930 . S
C599 C595 1.400 1_455 S
C599 C598 1.385 . S
C600 C598 1.478 . S
C600 C602 1.381 . S
C600 C606 1.383 . S
C601 C597 1.495 . S
C601 H607 0.959 . S
C601 H608 0.961 . S
C601 H609 0.960 . S
C602 C600 1.381 . S
C602 C603 1.394 . S
C602 H610 0.930 . S
C603 C602 1.394 . S
C603 C604 1.383 . S
C603 H611 0.929 . S
C604 C603 1.383 . S
C604 C605 1.377 . S
C605 H589 0.930 . S
C605 C604 1.377 . S
C605 C606 1.379 . S
C606 H590 0.931 . S
C606 C600 1.383 . S
C606 C605 1.379 . S
H607 C601 0.959 . S
H608 C601 0.961 . S
H609 C601 0.960 . S
H610 C602 0.930 . S
H611 C603 0.929 . S
H612 C620 0.929 . S
H613 C622 0.930 . S
H614 C624 0.930 1_556 S
H615 C627 0.929 . S
H616 C630 0.930 . S
H617 C632 0.960 . S
H618 C632 0.960 . S
H619 C632 0.960 . S
C620 H612 0.929 . S
C620 C621 1.377 . S
C620 C622 1.384 . S
C621 C620 1.377 . S
C621 C627 1.390 . S
C622 H613 0.930 . S
C622 C620 1.384 . S
C622 C623 1.372 . S
C623 C622 1.372 . S
C623 C624 1.400 . S
C623 C628 1.490 . S
C624 H614 0.930 1_554 S
C624 C623 1.400 . S
C624 C627 1.386 . S
H625 C641 0.930 . S
H626 C642 0.931 . S
C627 H615 0.929 . S
C627 C621 1.390 . S
C627 C624 1.386 . S
C628 C623 1.490 . S
C628 C630 1.395 . S
C628 C631 1.403 1_554 S
H629 C635 0.930 . S
C630 H616 0.930 . S
C630 C628 1.395 . S
C630 C633 1.403 1_565 S
C631 C628 1.403 1_556 S
C631 C632 1.524 . S
C631 C635 1.400 1_565 S
C632 H617 0.960 . S
C632 H618 0.960 . S
C632 H619 0.960 . S
C632 C631 1.524 . S
C633 C630 1.403 1_545 S
C633 C634 1.392 1_554 S
C633 C637 1.495 . S
C634 C633 1.392 1_556 S
C634 C635 1.385 . S
C634 C636 1.478 . S
C635 H629 0.930 . S
C635 C631 1.400 1_545 S
C635 C634 1.385 . S
C636 C634 1.478 . S
C636 C638 1.381 . S
C636 C642 1.383 . S
C637 C633 1.495 . S
C637 H643 0.959 . S
C637 H644 0.961 . S
C637 H645 0.960 . S
C638 C636 1.381 . S
C638 C639 1.394 . S
C638 H646 0.930 1_556 S
C639 C638 1.394 . S
C639 C640 1.383 . S
C639 H647 0.929 . S
C640 C639 1.383 . S
C640 C641 1.377 . S
C641 H625 0.930 . S
C641 C640 1.377 . S
C641 C642 1.379 . S
C642 H626 0.931 . S
C642 C636 1.383 . S
C642 C641 1.379 . S
H643 C637 0.959 . S
H644 C637 0.961 . S
H645 C637 0.960 . S
H646 C638 0.930 1_554 S
H647 C639 0.929 . S
H648 C656 0.929 . S
H649 C658 0.930 . S
H650 C660 0.930 . S
H651 C663 0.929 . S
H652 C666 0.930 . S
H653 C668 0.960 . S
H654 C668 0.960 . S
H655 C668 0.960 . S
C656 H648 0.929 . S
C656 C657 1.377 . S
C656 C658 1.384 . S
C657 C656 1.377 . S
C657 C663 1.390 . S
C658 H649 0.930 . S
C658 C656 1.384 . S
C658 C659 1.372 . S
C659 C658 1.372 . S
C659 C660 1.400 . S
C659 C664 1.490 . S
C660 H650 0.930 . S
C660 C659 1.400 . S
C660 C663 1.386 . S
H661 C677 0.930 . S
H662 C678 0.931 . S
C663 H651 0.929 . S
C663 C657 1.390 . S
C663 C660 1.386 . S
C664 C659 1.490 . S
C664 C666 1.395 1_556 S
C664 C667 1.403 . S
H665 C671 0.929 1_556 S
C666 H652 0.930 . S
C666 C664 1.395 1_554 S
C666 C669 1.403 . S
C667 C664 1.403 . S
C667 C668 1.524 . S
C667 C671 1.385 1_556 S
C668 H653 0.960 . S
C668 H654 0.960 . S
C668 H655 0.960 . S
C668 C667 1.524 . S
C669 C666 1.403 . S
C669 C670 1.392 . S
C669 C673 1.495 . S
C670 C669 1.392 . S
C670 C671 1.402 . S
C670 C672 1.478 . S
C671 H665 0.929 1_554 S
C671 C667 1.385 1_554 S
C671 C670 1.402 . S
C672 C670 1.478 . S
C672 C674 1.381 . S
C672 C678 1.383 . S
C673 C669 1.495 . S
C673 H679 0.959 . S
C673 H680 0.961 . S
C673 H681 0.960 . S
C674 C672 1.381 . S
C674 C675 1.394 . S
C674 H682 0.930 . S
C675 C674 1.394 . S
C675 C676 1.383 . S
C675 H683 0.929 . S
C676 C675 1.383 . S
C676 C677 1.377 . S
C677 H661 0.930 . S
C677 C676 1.377 . S
C677 C678 1.379 . S
C678 H662 0.931 . S
C678 C672 1.383 . S
C678 C677 1.379 . S
H679 C673 0.959 . S
H680 C673 0.961 . S
H681 C673 0.960 . S
H682 C674 0.930 . S
H683 C675 0.929 . S
H684 C692 0.929 . S
H685 C694 0.930 . S
H686 C696 0.930 . S
H687 C699 0.929 . S
H688 C702 0.930 . S
H689 C704 0.960 . S
H690 C704 0.960 . S
H691 C704 0.960 . S
C692 H684 0.929 . S
C692 C693 1.377 . S
C692 C694 1.384 . S
C693 C692 1.377 . S
C693 C699 1.390 . S
C694 H685 0.930 . S
C694 C692 1.384 . S
C694 C695 1.372 . S
C695 C694 1.372 . S
C695 C696 1.400 . S
C695 C700 1.490 . S
C696 H686 0.930 . S
C696 C695 1.400 . S
C696 C699 1.386 . S
H697 C713 0.930 . S
H698 C714 0.931 . S
C699 H687 0.929 . S
C699 C693 1.390 . S
C699 C696 1.386 . S
C700 C695 1.490 . S
C700 C702 1.395 . S
C700 C703 1.403 . S
H701 C707 0.930 . S
C702 H688 0.930 . S
C702 C700 1.395 . S
C702 C705 1.403 . S
C703 C700 1.403 . S
C703 C704 1.524 . S
C703 C707 1.400 . S
C704 H689 0.960 . S
C704 H690 0.960 . S
C704 H691 0.960 . S
C704 C703 1.524 . S
C705 C702 1.403 . S
C705 C706 1.392 . S
C705 C709 1.495 . S
C706 C705 1.392 . S
C706 C707 1.385 . S
C706 C708 1.478 . S
C707 H701 0.930 . S
C707 C703 1.400 . S
C707 C706 1.385 . S
C708 C706 1.478 . S
C708 C710 1.381 . S
C708 C714 1.383 . S
C709 C705 1.495 . S
C709 H715 0.959 . S
C709 H716 0.961 . S
C709 H717 0.960 . S
C710 C708 1.381 . S
C710 C711 1.394 . S
C710 H718 0.930 . S
C711 C710 1.394 . S
C711 C712 1.383 . S
C711 H719 0.929 . S
C712 C711 1.383 . S
C712 C713 1.377 . S
C713 H697 0.930 . S
C713 C712 1.377 . S
C713 C714 1.379 . S
C714 H698 0.931 . S
C714 C708 1.383 . S
C714 C713 1.379 . S
H715 C709 0.959 . S
H716 C709 0.961 . S
H717 C709 0.960 . S
H718 C710 0.930 . S
H719 C711 0.929 . S
H720 C728 0.929 . S
H721 C730 0.930 . S
H722 C732 0.930 . S
H723 C735 0.929 . S
H724 C738 0.930 . S
H725 C740 0.960 . S
H726 C740 0.960 . S
H727 C740 0.960 . S
C728 H720 0.929 . S
C728 C729 1.377 . S
C728 C730 1.384 . S
C729 C728 1.377 . S
C729 C735 1.390 . S
C730 H721 0.930 . S
C730 C728 1.384 . S
C730 C731 1.372 . S
C731 C730 1.372 . S
C731 C732 1.400 . S
C731 C736 1.490 . S
C732 H722 0.930 . S
C732 C731 1.400 . S
C732 C735 1.386 . S
H733 C749 0.930 . S
H734 C750 0.931 . S
C735 H723 0.929 . S
C735 C729 1.390 . S
C735 C732 1.386 . S
C736 C731 1.490 . S
C736 C738 1.395 . S
C736 C739 1.403 . S
H737 C743 0.930 . S
C738 H724 0.930 . S
C738 C736 1.395 . S
C738 C741 1.403 . S
C739 C736 1.403 . S
C739 C740 1.524 . S
C739 C743 1.400 . S
C740 H725 0.960 . S
C740 H726 0.960 . S
C740 H727 0.960 . S
C740 C739 1.524 . S
C741 C738 1.403 . S
C741 C742 1.392 . S
C741 C745 1.495 . S
C742 C741 1.392 . S
C742 C743 1.385 . S
C742 C744 1.478 . S
C743 H737 0.930 . S
C743 C739 1.400 . S
C743 C742 1.385 . S
C744 C742 1.478 . S
C744 C746 1.381 . S
C744 C750 1.383 . S
C745 C741 1.495 . S
C745 H751 0.959 . S
C745 H752 0.961 . S
C745 H753 0.960 . S
C746 C744 1.381 . S
C746 C747 1.394 . S
C746 H754 0.930 . S
C747 C746 1.394 . S
C747 C748 1.383 . S
C747 H755 0.929 . S
C748 C747 1.383 . S
C748 C749 1.377 . S
C749 H733 0.930 . S
C749 C748 1.377 . S
C749 C750 1.379 . S
C750 H734 0.931 . S
C750 C744 1.383 . S
C750 C749 1.379 . S
H751 C745 0.959 . S
H752 C745 0.961 . S
H753 C745 0.960 . S
H754 C746 0.930 . S
H755 C747 0.929 . S
H756 C764 0.929 . S
H757 C766 0.930 . S
H758 C768 0.930 . S
H759 C771 0.929 . S
H760 C774 0.930 . S
H761 C776 0.960 . S
H762 C776 0.960 . S
H763 C776 0.960 . S
C764 H756 0.929 . S
C764 C765 1.377 . S
C764 C766 1.384 . S
C765 C764 1.377 . S
C765 C771 1.390 . S
C766 H757 0.930 . S
C766 C764 1.384 . S
C766 C767 1.372 . S
C767 C766 1.372 . S
C767 C768 1.400 . S
C767 C772 1.490 . S
C768 H758 0.930 . S
C768 C767 1.400 . S
C768 C771 1.386 . S
H769 C785 0.930 . S
H770 C786 0.931 . S
C771 H759 0.929 . S
C771 C765 1.390 . S
C771 C768 1.386 . S
C772 C767 1.490 . S
C772 C774 1.395 1_554 S
C772 C775 1.403 . S
H773 C779 0.930 . S
C774 H760 0.930 . S
C774 C772 1.395 1_556 S
C774 C777 1.403 . S
C775 C772 1.403 . S
C775 C776 1.524 . S
C775 C779 1.400 1_554 S
C776 H761 0.960 . S
C776 H762 0.960 . S
C776 H763 0.960 . S
C776 C775 1.524 . S
C777 C774 1.403 . S
C777 C778 1.392 . S
C777 C781 1.495 . S
C778 C777 1.392 . S
C778 C779 1.385 . S
C778 C780 1.478 . S
C779 H773 0.930 . S
C779 C775 1.400 1_556 S
C779 C778 1.385 . S
C780 C778 1.478 . S
C780 C782 1.381 . S
C780 C786 1.383 . S
C781 C777 1.495 . S
C781 H787 0.959 . S
C781 H788 0.961 . S
C781 H789 0.960 . S
C782 C780 1.381 . S
C782 C783 1.394 . S
C782 H790 0.930 . S
C783 C782 1.394 . S
C783 C784 1.383 . S
C783 H791 0.929 . S
C784 C783 1.383 . S
C784 C785 1.377 . S
C785 H769 0.930 . S
C785 C784 1.377 . S
C785 C786 1.379 . S
C786 H770 0.931 . S
C786 C780 1.383 . S
C786 C785 1.379 . S
H787 C781 0.959 . S
H788 C781 0.961 . S
H789 C781 0.960 . S
H790 C782 0.930 . S
H791 C783 0.929 . S
H792 C800 0.929 . S
H793 C802 0.930 . S
H794 C804 0.930 . S
H795 C807 0.929 . S
H796 C810 0.930 . S
H797 C812 0.960 . S
H798 C812 0.960 . S
H799 C812 0.960 . S
C800 H792 0.929 . S
C800 C801 1.377 . S
C800 C802 1.384 . S
C801 C800 1.377 . S
C801 C807 1.390 . S
C802 H793 0.930 . S
C802 C800 1.384 . S
C802 C803 1.372 . S
C803 C802 1.372 . S
C803 C804 1.400 . S
C803 C808 1.490 . S
C804 H794 0.930 . S
C804 C803 1.400 . S
C804 C807 1.386 . S
H805 C821 0.930 . S
H806 C822 0.931 . S
C807 H795 0.929 . S
C807 C801 1.390 . S
C807 C804 1.386 . S
C808 C803 1.490 . S
C808 C810 1.395 . S
C808 C811 1.403 . S
H809 C815 0.930 . S
C810 H796 0.930 . S
C810 C808 1.395 . S
C810 C813 1.403 . S
C811 C808 1.403 . S
C811 C812 1.524 . S
C811 C815 1.400 . S
C812 H797 0.960 . S
C812 H798 0.960 . S
C812 H799 0.960 . S
C812 C811 1.524 . S
C813 C810 1.403 . S
C813 C814 1.392 . S
C813 C817 1.495 . S
C814 C813 1.392 . S
C814 C815 1.385 . S
C814 C816 1.478 . S
C815 H809 0.930 . S
C815 C811 1.400 . S
C815 C814 1.385 . S
C816 C814 1.478 . S
C816 C818 1.381 . S
C816 C822 1.383 . S
C817 C813 1.495 . S
C817 H823 0.959 . S
C817 H824 0.961 . S
C817 H825 0.960 . S
C818 C816 1.381 . S
C818 C819 1.394 . S
C818 H826 0.930 . S
C819 C818 1.394 . S
C819 C820 1.383 . S
C819 H827 0.929 . S
C820 C819 1.383 . S
C820 C821 1.377 . S
C821 H805 0.930 . S
C821 C820 1.377 . S
C821 C822 1.379 . S
C822 H806 0.931 . S
C822 C816 1.383 . S
C822 C821 1.379 . S
H823 C817 0.959 . S
H824 C817 0.961 . S
H825 C817 0.960 . S
H826 C818 0.930 . S
H827 C819 0.929 . S
H828 C836 0.929 . S
H829 C838 0.930 . S
H830 C840 0.930 . S
H831 C843 0.929 . S
H832 C846 0.930 . S
H833 C848 0.960 . S
H834 C848 0.960 . S
H835 C848 0.960 . S
C836 H828 0.929 . S
C836 C837 1.377 . S
C836 C838 1.384 . S
C837 C836 1.377 . S
C837 C843 1.390 . S
C838 H829 0.930 . S
C838 C836 1.384 . S
C838 C839 1.372 . S
C839 C838 1.372 . S
C839 C840 1.400 . S
C839 C844 1.490 . S
C840 H830 0.930 . S
C840 C839 1.400 . S
C840 C843 1.386 . S
H841 C857 0.930 . S
H842 C858 0.931 . S
C843 H831 0.929 . S
C843 C837 1.390 . S
C843 C840 1.386 . S
C844 C839 1.490 . S
C844 C846 1.395 . S
C844 C847 1.403 . S
H845 C851 0.930 . S
C846 H832 0.930 . S
C846 C844 1.395 . S
C846 C849 1.403 . S
C847 C844 1.403 . S
C847 C848 1.524 . S
C847 C851 1.400 . S
C848 H833 0.960 . S
C848 H834 0.960 . S
C848 H835 0.960 . S
C848 C847 1.524 . S
C849 C846 1.403 . S
C849 C850 1.392 . S
C849 C853 1.495 . S
C850 C849 1.392 . S
C850 C851 1.385 . S
C850 C852 1.478 . S
C851 H845 0.930 . S
C851 C847 1.400 . S
C851 C850 1.385 . S
C852 C850 1.478 . S
C852 C854 1.381 . S
C852 C858 1.383 . S
C853 C849 1.495 . S
C853 H859 0.959 . S
C853 H860 0.961 . S
C853 H861 0.960 . S
C854 C852 1.381 . S
C854 C855 1.394 . S
C854 H862 0.930 . S
C855 C854 1.394 . S
C855 C856 1.383 . S
C855 H863 0.929 . S
C856 C855 1.383 . S
C856 C857 1.377 . S
C857 H841 0.930 . S
C857 C856 1.377 . S
C857 C858 1.379 . S
C858 H842 0.931 . S
C858 C852 1.383 . S
C858 C857 1.379 . S
H859 C853 0.959 . S
H860 C853 0.961 . S
H861 C853 0.960 . S
H862 C854 0.930 . S
H863 C855 0.929 . S
H864 C872 0.929 . S
H865 C874 0.930 . S
H866 C876 0.930 . S
H867 C879 0.929 . S
H868 C882 0.930 . S
H869 C884 0.960 . S
H870 C884 0.960 . S
H871 C884 0.960 . S
C872 H864 0.929 . S
C872 C873 1.377 . S
C872 C874 1.384 . S
C873 C872 1.377 . S
C873 C879 1.390 . S
C874 H865 0.930 . S
C874 C872 1.384 . S
C874 C875 1.372 . S
C875 C874 1.372 . S
C875 C876 1.400 . S
C875 C880 1.490 . S
C876 H866 0.930 . S
C876 C875 1.400 . S
C876 C879 1.386 . S
H877 C893 0.930 . S
H878 C894 0.931 . S
C879 H867 0.929 . S
C879 C873 1.390 . S
C879 C876 1.386 . S
C880 C875 1.490 . S
C880 C882 1.395 . S
C880 C883 1.403 . S
H881 C887 0.930 . S
C882 H868 0.930 . S
C882 C880 1.395 . S
C882 C885 1.403 . S
C883 C880 1.403 . S
C883 C884 1.524 . S
C883 C887 1.400 . S
C884 H869 0.960 . S
C884 H870 0.960 . S
C884 H871 0.960 . S
C884 C883 1.524 . S
C885 C882 1.403 . S
C885 C886 1.392 . S
C885 C889 1.495 . S
C886 C885 1.392 . S
C886 C887 1.385 . S
C886 C888 1.478 . S
C887 H881 0.930 . S
C887 C883 1.400 . S
C887 C886 1.385 . S
C888 C886 1.478 . S
C888 C890 1.381 . S
C888 C894 1.383 . S
C889 C885 1.495 . S
C889 H895 0.959 . S
C889 H896 0.961 . S
C889 H897 0.960 . S
C890 C888 1.381 . S
C890 C891 1.394 . S
C890 H898 0.930 . S
C891 C890 1.394 . S
C891 C892 1.383 . S
C891 H899 0.929 . S
C892 C891 1.383 . S
C892 C893 1.377 . S
C893 H877 0.930 . S
C893 C892 1.377 . S
C893 C894 1.379 . S
C894 H878 0.931 . S
C894 C888 1.383 . S
C894 C893 1.379 . S
H895 C889 0.959 . S
H896 C889 0.961 . S
H897 C889 0.960 . S
H898 C890 0.930 . S
H899 C891 0.929 . S
H900 C908 0.929 . S
H901 C910 0.930 . S
H902 C912 0.930 . S
H903 C915 0.929 . S
H904 C918 0.930 . S
H905 C920 0.960 . S
H906 C920 0.960 . S
H907 C920 0.960 . S
C908 H900 0.929 . S
C908 C909 1.377 . S
C908 C910 1.384 . S
C909 C908 1.377 . S
C909 C915 1.390 . S
C910 H901 0.930 . S
C910 C908 1.384 . S
C910 C911 1.372 . S
C911 C910 1.372 . S
C911 C912 1.400 . S
C911 C916 1.490 . S
C912 H902 0.930 . S
C912 C911 1.400 . S
C912 C915 1.386 . S
H913 C929 0.930 . S
H914 C930 0.931 . S
C915 H903 0.929 . S
C915 C909 1.390 . S
C915 C912 1.386 . S
C916 C911 1.490 . S
C916 C918 1.395 . S
C916 C919 1.403 . S
H917 C923 0.930 . S
C918 H904 0.930 . S
C918 C916 1.395 . S
C918 C921 1.403 . S
C919 C916 1.403 . S
C919 C920 1.524 . S
C919 C923 1.400 . S
C920 H905 0.960 . S
C920 H906 0.960 . S
C920 H907 0.960 . S
C920 C919 1.524 . S
C921 C918 1.403 . S
C921 C922 1.392 . S
C921 C925 1.495 . S
C922 C921 1.392 . S
C922 C923 1.385 . S
C922 C924 1.478 . S
C923 H917 0.930 . S
C923 C919 1.400 . S
C923 C922 1.385 . S
C924 C922 1.478 . S
C924 C926 1.381 . S
C924 C930 1.383 . S
C925 C921 1.495 . S
C925 H931 0.959 . S
C925 H932 0.961 . S
C925 H933 0.960 . S
C926 C924 1.381 . S
C926 C927 1.394 . S
C926 H934 0.930 . S
C927 C926 1.394 . S
C927 C928 1.383 . S
C927 H935 0.929 . S
C928 C927 1.383 . S
C928 C929 1.377 . S
C929 H913 0.930 . S
C929 C928 1.377 . S
C929 C930 1.379 . S
C930 H914 0.931 . S
C930 C924 1.383 . S
C930 C929 1.379 . S
H931 C925 0.959 . S
H932 C925 0.961 . S
H933 C925 0.960 . S
H934 C926 0.930 . S
H935 C927 0.929 . S
H936 C944 0.929 . S
H937 C946 0.930 . S
H938 C948 0.930 . S
H939 C951 0.929 . S
H940 C954 0.930 . S
H941 C956 0.960 . S
H942 C956 0.960 . S
H943 C956 0.960 . S
C944 H936 0.929 . S
C944 C945 1.377 . S
C944 C946 1.384 . S
C945 C944 1.377 . S
C945 C951 1.390 . S
C946 H937 0.930 . S
C946 C944 1.384 . S
C946 C947 1.372 . S
C947 C946 1.372 . S
C947 C948 1.400 . S
C947 C952 1.490 . S
C948 H938 0.930 . S
C948 C947 1.400 . S
C948 C951 1.386 . S
H949 C965 0.930 . S
H950 C966 0.931 . S
C951 H939 0.929 . S
C951 C945 1.390 . S
C951 C948 1.386 . S
C952 C947 1.490 . S
C952 C954 1.395 . S
C952 C955 1.403 . S
H953 C959 0.930 . S
C954 H940 0.930 . S
C954 C952 1.395 . S
C954 C957 1.403 . S
C955 C952 1.403 . S
C955 C956 1.524 . S
C955 C959 1.400 . S
C956 H941 0.960 . S
C956 H942 0.960 . S
C956 H943 0.960 . S
C956 C955 1.524 . S
C957 C954 1.403 . S
C957 C958 1.392 . S
C957 C961 1.495 . S
C958 C957 1.392 . S
C958 C959 1.385 . S
C958 C960 1.478 . S
C959 H953 0.930 . S
C959 C955 1.400 . S
C959 C958 1.385 . S
C960 C958 1.478 . S
C960 C962 1.381 . S
C960 C966 1.383 . S
C961 C957 1.495 . S
C961 H967 0.959 . S
C961 H968 0.961 . S
C961 H969 0.960 . S
C962 C960 1.381 . S
C962 C963 1.394 . S
C962 H970 0.930 . S
C963 C962 1.394 . S
C963 C964 1.383 . S
C963 H971 0.929 . S
C964 C963 1.383 . S
C964 C965 1.377 . S
C965 H949 0.930 . S
C965 C964 1.377 . S
C965 C966 1.379 . S
C966 H950 0.931 . S
C966 C960 1.383 . S
C966 C965 1.379 . S
H967 C961 0.959 . S
H968 C961 0.961 . S
H969 C961 0.960 . S
H970 C962 0.930 . S
H971 C963 0.929 . S
H972 C980 0.929 . S
H973 C982 0.930 . S
H974 C984 0.930 . S
H975 C987 0.929 . S
H976 C990 0.930 . S
H977 C992 0.960 . S
H978 C992 0.960 . S
H979 C992 0.960 . S
C980 H972 0.929 . S
C980 C981 1.377 . S
C980 C982 1.384 . S
C981 C980 1.377 . S
C981 C987 1.390 . S
C982 H973 0.930 . S
C982 C980 1.384 . S
C982 C983 1.372 . S
C983 C982 1.372 . S
C983 C984 1.400 . S
C983 C988 1.490 . S
C984 H974 0.930 . S
C984 C983 1.400 . S
C984 C987 1.386 . S
H985 C1001 0.930 . S
H986 C1002 0.931 . S
C987 H975 0.929 . S
C987 C981 1.390 . S
C987 C984 1.386 . S
C988 C983 1.490 . S
C988 C990 1.395 . S
C988 C991 1.403 . S
H989 C995 0.930 . S
C990 H976 0.930 . S
C990 C988 1.395 . S
C990 C993 1.403 . S
C991 C988 1.403 . S
C991 C992 1.524 . S
C991 C995 1.400 . S
C992 H977 0.960 . S
C992 H978 0.960 . S
C992 H979 0.960 . S
C992 C991 1.524 . S
C993 C990 1.403 . S
C993 C994 1.392 . S
C993 C997 1.495 . S
C994 C993 1.392 . S
C994 C995 1.385 . S
C994 C996 1.478 . S
C995 H989 0.930 . S
C995 C991 1.400 . S
C995 C994 1.385 . S
C996 C994 1.478 . S
C996 C998 1.381 . S
C996 C1002 1.383 . S
C997 C993 1.495 . S
C997 H1003 0.959 . S
C997 H1004 0.961 . S
C997 H1005 0.960 . S
C998 C996 1.381 . S
C998 C999 1.394 . S
C998 H1006 0.930 . S
C999 C998 1.394 . S
C999 C1000 1.383 . S
C999 H1007 0.929 . S
C1000 C999 1.383 . S
C1000 C1001 1.377 . S
C1001 H985 0.930 . S
C1001 C1000 1.377 . S
C1001 C1002 1.379 . S
C1002 H986 0.931 . S
C1002 C996 1.383 . S
C1002 C1001 1.379 . S
H1003 C997 0.959 . S
H1004 C997 0.961 . S
H1005 C997 0.960 . S
H1006 C998 0.930 . S
H1007 C999 0.929 . S
H1008 C1016 0.929 . S
H1009 C1018 0.930 . S
H1010 C1020 0.930 . S
H1011 C1023 0.929 . S
H1012 C1026 0.930 . S
H1013 C1028 0.960 . S
H1014 C1028 0.960 . S
H1015 C1028 0.960 . S
C1016 H1008 0.929 . S
C1016 C1017 1.377 . S
C1016 C1018 1.384 . S
C1017 C1016 1.377 . S
C1017 C1023 1.390 . S
C1018 H1009 0.930 . S
C1018 C1016 1.384 . S
C1018 C1019 1.372 . S
C1019 C1018 1.372 . S
C1019 C1020 1.400 . S
C1019 C1024 1.490 . S
C1020 H1010 0.930 . S
C1020 C1019 1.400 . S
C1020 C1023 1.386 . S
H1021 C1037 0.930 . S
H1022 C1038 0.931 . S
C1023 H1011 0.929 . S
C1023 C1017 1.390 . S
C1023 C1020 1.386 . S
C1024 C1019 1.490 . S
C1024 C1026 1.395 . S
C1024 C1027 1.403 . S
H1025 C1031 0.930 . S
C1026 H1012 0.930 . S
C1026 C1024 1.395 . S
C1026 C1029 1.403 . S
C1027 C1024 1.403 . S
C1027 C1028 1.524 . S
C1027 C1031 1.400 . S
C1028 H1013 0.960 . S
C1028 H1014 0.960 . S
C1028 H1015 0.960 . S
C1028 C1027 1.524 . S
C1029 C1026 1.403 . S
C1029 C1030 1.392 . S
C1029 C1033 1.495 . S
C1030 C1029 1.392 . S
C1030 C1031 1.385 . S
C1030 C1032 1.478 . S
C1031 H1025 0.930 . S
C1031 C1027 1.400 . S
C1031 C1030 1.385 . S
C1032 C1030 1.478 . S
C1032 C1034 1.381 . S
C1032 C1038 1.383 . S
C1033 C1029 1.495 . S
C1033 H1039 0.959 . S
C1033 H1040 0.961 . S
C1033 H1041 0.960 . S
C1034 C1032 1.381 . S
C1034 C1035 1.394 . S
C1034 H1042 0.930 . S
C1035 C1034 1.394 . S
C1035 C1036 1.383 . S
C1035 H1043 0.938 . S
C1036 C1035 1.383 . S
C1036 C1037 1.377 . S
C1037 H1021 0.930 . S
C1037 C1036 1.377 . S
C1037 C1038 1.379 . S
C1038 H1022 0.931 . S
C1038 C1032 1.383 . S
C1038 C1037 1.379 . S
H1039 C1033 0.959 . S
H1040 C1033 0.961 . S
H1041 C1033 0.960 . S
H1042 C1034 0.930 . S
H1043 C1035 0.938 . S
H1044 C1052 0.929 . S
H1045 C1054 0.930 . S
H1046 C1056 0.930 . S
H1047 C1059 0.929 . S
H1048 C1062 0.930 . S
H1049 C1064 0.960 . S
H1050 C1064 0.960 . S
H1051 C1064 0.960 . S
C1052 H1044 0.929 . S
C1052 C1053 1.377 . S
C1052 C1054 1.384 . S
C1053 C1052 1.377 . S
C1053 C1059 1.390 . S
C1054 H1045 0.930 . S
C1054 C1052 1.384 . S
C1054 C1055 1.372 . S
C1055 C1054 1.372 . S
C1055 C1056 1.400 . S
C1055 C1060 1.490 . S
C1056 H1046 0.930 . S
C1056 C1055 1.400 . S
C1056 C1059 1.386 . S
H1057 C1073 0.930 . S
H1058 C1074 0.931 . S
C1059 H1047 0.929 . S
C1059 C1053 1.390 . S
C1059 C1056 1.386 . S
C1060 C1055 1.490 . S
C1060 C1062 1.395 . S
C1060 C1063 1.403 . S
H1061 C1067 0.930 . S
C1062 H1048 0.930 . S
C1062 C1060 1.395 . S
C1062 C1065 1.403 . S
C1063 C1060 1.403 . S
C1063 C1064 1.524 . S
C1063 C1067 1.400 . S
C1064 H1049 0.960 . S
C1064 H1050 0.960 . S
C1064 H1051 0.960 . S
C1064 C1063 1.524 . S
C1065 C1062 1.403 . S
C1065 C1066 1.392 . S
C1065 C1069 1.495 . S
C1066 C1065 1.392 . S
C1066 C1067 1.385 . S
C1066 C1068 1.478 . S
C1067 H1061 0.930 . S
C1067 C1063 1.400 . S
C1067 C1066 1.385 . S
C1068 C1066 1.478 . S
C1068 C1070 1.381 . S
C1068 C1074 1.383 . S
C1069 C1065 1.495 . S
C1069 H1075 0.959 . S
C1069 H1076 0.961 . S
C1069 H1077 0.960 . S
C1070 C1068 1.381 . S
C1070 C1071 1.394 . S
C1070 H1078 0.930 . S
C1071 C1070 1.394 . S
C1071 C1072 1.383 . S
C1071 H1079 0.929 . S
C1072 C1071 1.383 . S
C1072 C1073 1.377 . S
C1073 H1057 0.930 . S
C1073 C1072 1.377 . S
C1073 C1074 1.379 . S
C1074 H1058 0.931 . S
C1074 C1068 1.383 . S
C1074 C1073 1.379 . S
H1075 C1069 0.959 . S
H1076 C1069 0.961 . S
H1077 C1069 0.960 . S
H1078 C1070 0.930 . S
H1079 C1071 0.929 . S
H1080 C1088 0.929 . S
H1081 C1090 0.930 . S
H1082 C1092 0.930 . S
H1083 C1095 0.929 . S
H1084 C1098 0.930 . S
H1085 C1100 0.960 . S
H1086 C1100 0.960 . S
H1087 C1100 0.960 . S
C1088 H1080 0.929 . S
C1088 C1089 1.377 . S
C1088 C1090 1.384 . S
C1089 C1088 1.377 . S
C1089 C1095 1.390 . S
C1090 H1081 0.930 . S
C1090 C1088 1.384 . S
C1090 C1091 1.372 . S
C1091 C1090 1.372 . S
C1091 C1092 1.400 . S
C1091 C1096 1.490 . S
C1092 H1082 0.930 . S
C1092 C1091 1.400 . S
C1092 C1095 1.386 . S
H1093 C1109 0.930 . S
H1094 C1110 0.931 . S
C1095 H1083 0.929 . S
C1095 C1089 1.390 . S
C1095 C1092 1.386 . S
C1096 C1091 1.490 . S
C1096 C1098 1.395 . S
C1096 C1099 1.403 . S
H1097 C1103 0.930 . S
C1098 H1084 0.930 . S
C1098 C1096 1.395 . S
C1098 C1101 1.403 . S
C1099 C1096 1.403 . S
C1099 C1100 1.524 . S
C1099 C1103 1.400 . S
C1100 H1085 0.960 . S
C1100 H1086 0.960 . S
C1100 H1087 0.960 . S
C1100 C1099 1.524 . S
C1101 C1098 1.403 . S
C1101 C1102 1.392 . S
C1101 C1105 1.495 . S
C1102 C1101 1.392 . S
C1102 C1103 1.385 . S
C1102 C1104 1.478 . S
C1103 H1097 0.930 . S
C1103 C1099 1.400 . S
C1103 C1102 1.385 . S
C1104 C1102 1.478 . S
C1104 C1106 1.381 . S
C1104 C1110 1.383 . S
C1105 C1101 1.495 . S
C1105 H1111 0.959 . S
C1105 H1112 0.961 . S
C1105 H1113 0.960 . S
C1106 C1104 1.381 . S
C1106 C1107 1.394 . S
C1106 H1114 0.930 . S
C1107 C1106 1.394 . S
C1107 C1108 1.383 . S
C1107 H1115 0.929 . S
C1108 C1107 1.383 . S
C1108 C1109 1.377 . S
C1109 H1093 0.930 . S
C1109 C1108 1.377 . S
C1109 C1110 1.379 . S
C1110 H1094 0.931 . S
C1110 C1104 1.383 . S
C1110 C1109 1.379 . S
H1111 C1105 0.959 . S
H1112 C1105 0.961 . S
H1113 C1105 0.960 . S
H1114 C1106 0.930 . S
H1115 C1107 0.929 . S
H1116 C1124 0.929 . S
H1117 C1126 0.930 . S
H1118 C1128 0.930 . S
H1119 C1131 0.929 . S
H1120 C1134 0.930 . S
H1121 C1136 0.960 . S
H1122 C1136 0.960 . S
H1123 C1136 0.960 . S
C1124 H1116 0.929 . S
C1124 C1125 1.377 . S
C1124 C1126 1.384 . S
C1125 C1124 1.377 . S
C1125 C1131 1.390 . S
C1126 H1117 0.930 . S
C1126 C1124 1.384 . S
C1126 C1127 1.372 . S
C1127 C1126 1.372 . S
C1127 C1128 1.400 . S
C1127 C1132 1.490 . S
C1128 H1118 0.930 . S
C1128 C1127 1.400 . S
C1128 C1131 1.386 . S
H1129 C1145 0.930 . S
H1130 C1146 0.931 . S
C1131 H1119 0.929 . S
C1131 C1125 1.390 . S
C1131 C1128 1.386 . S
C1132 C1127 1.490 . S
C1132 C1134 1.395 . S
C1132 C1135 1.403 . S
H1133 C1139 0.930 . S
C1134 H1120 0.930 . S
C1134 C1132 1.395 . S
C1134 C1137 1.403 . S
C1135 C1132 1.403 . S
C1135 C1136 1.524 . S
C1135 C1139 1.400 . S
C1136 H1121 0.960 . S
C1136 H1122 0.960 . S
C1136 H1123 0.960 . S
C1136 C1135 1.524 . S
C1137 C1134 1.403 . S
C1137 C1138 1.392 . S
C1137 C1141 1.495 . S
C1138 C1137 1.392 . S
C1138 C1139 1.385 . S
C1138 C1140 1.478 . S
C1139 H1133 0.930 . S
C1139 C1135 1.400 . S
C1139 C1138 1.385 . S
C1140 C1138 1.478 . S
C1140 C1142 1.381 . S
C1140 C1146 1.383 . S
C1141 C1137 1.495 . S
C1141 H1147 0.959 . S
C1141 H1148 0.961 . S
C1141 H1149 0.960 . S
C1142 C1140 1.381 . S
C1142 C1143 1.394 . S
C1142 H1150 0.930 . S
C1143 C1142 1.394 . S
C1143 C1144 1.383 . S
C1143 H1151 0.929 . S
C1144 C1143 1.383 . S
C1144 C1145 1.377 . S
C1145 H1129 0.930 . S
C1145 C1144 1.377 . S
C1145 C1146 1.379 . S
C1146 H1130 0.931 . S
C1146 C1140 1.383 . S
C1146 C1145 1.379 . S
H1147 C1141 0.959 . S
H1148 C1141 0.961 . S
H1149 C1141 0.960 . S
H1150 C1142 0.930 . S
H1151 C1143 0.929 . S
H1152 C1160 0.929 . S
H1153 C1162 0.930 . S
H1154 C1164 0.930 . S
H1155 C1167 0.929 . S
H1156 C1170 0.930 . S
H1157 C1172 0.960 . S
H1158 C1172 0.960 . S
H1159 C1172 0.960 1_556 S
C1160 H1152 0.929 . S
C1160 C1161 1.377 1_554 S
C1160 C1162 1.384 . S
C1161 C1160 1.377 1_556 S
C1161 C1167 1.390 . S
C1162 H1153 0.930 . S
C1162 C1160 1.384 . S
C1162 C1163 1.372 1_554 S
C1163 C1162 1.372 1_556 S
C1163 C1164 1.400 . S
C1163 C1168 1.490 . S
C1164 H1154 0.930 . S
C1164 C1163 1.400 . S
C1164 C1167 1.386 . S
H1165 C1181 0.930 . S
H1166 C1182 0.931 . S
C1167 H1155 0.929 . S
C1167 C1161 1.390 . S
C1167 C1164 1.386 . S
C1168 C1163 1.490 . S
C1168 C1170 1.395 . S
C1168 C1171 1.403 1_556 S
H1169 C1175 0.930 . S
C1170 H1156 0.930 . S
C1170 C1168 1.395 . S
C1170 C1173 1.403 1_556 S
C1171 C1168 1.403 1_554 S
C1171 C1172 1.524 . S
C1171 C1175 1.400 . S
C1172 H1157 0.960 . S
C1172 H1158 0.960 . S
C1172 H1159 0.960 1_554 S
C1172 C1171 1.524 . S
C1173 C1170 1.403 1_554 S
C1173 C1174 1.392 . S
C1173 C1177 1.495 1_554 S
C1174 C1173 1.392 . S
C1174 C1175 1.385 . S
C1174 C1176 1.478 . S
C1175 H1169 0.930 . S
C1175 C1171 1.400 . S
C1175 C1174 1.385 . S
C1176 C1174 1.478 . S
C1176 C1178 1.381 . S
C1176 C1182 1.383 1_554 S
C1177 C1173 1.495 1_556 S
C1177 H1183 0.960 . S
C1177 H1184 0.971 . S
C1177 H1185 0.949 1_556 S
C1178 C1176 1.381 . S
C1178 C1179 1.394 . S
C1178 H1186 0.930 . S
C1179 C1178 1.394 . S
C1179 C1180 1.383 . S
C1179 H1187 0.929 . S
C1180 C1179 1.383 . S
C1180 C1181 1.377 1_554 S
C1181 H1165 0.930 . S
C1181 C1180 1.377 1_556 S
C1181 C1182 1.379 . S
C1182 H1166 0.931 . S
C1182 C1176 1.383 1_556 S
C1182 C1181 1.379 . S
H1183 C1177 0.960 . S
H1184 C1177 0.971 . S
H1185 C1177 0.949 1_554 S
H1186 C1178 0.930 . S
H1187 C1179 0.929 . S
H1188 C1196 0.929 . S
H1189 C1198 0.930 . S
H1190 C1200 0.930 . S
H1191 C1203 0.929 . S
H1192 C1206 0.930 . S
H1193 C1208 0.960 . S
H1194 C1208 0.960 . S
H1195 C1208 0.960 . S
C1196 H1188 0.929 . S
C1196 C1197 1.377 . S
C1196 C1198 1.384 . S
C1197 C1196 1.377 . S
C1197 C1203 1.390 . S
C1198 H1189 0.930 . S
C1198 C1196 1.384 . S
C1198 C1199 1.372 . S
C1199 C1198 1.372 . S
C1199 C1200 1.400 . S
C1199 C1204 1.490 . S
C1200 H1190 0.930 . S
C1200 C1199 1.400 . S
C1200 C1203 1.386 . S
H1201 C1217 0.930 . S
H1202 C1218 0.931 . S
C1203 H1191 0.929 . S
C1203 C1197 1.390 . S
C1203 C1200 1.386 . S
C1204 C1199 1.490 . S
C1204 C1206 1.395 . S
C1204 C1207 1.403 . S
H1205 C1211 0.930 . S
C1206 H1192 0.930 . S
C1206 C1204 1.395 . S
C1206 C1209 1.403 . S
C1207 C1204 1.403 . S
C1207 C1208 1.524 . S
C1207 C1211 1.400 . S
C1208 H1193 0.960 . S
C1208 H1194 0.960 . S
C1208 H1195 0.960 . S
C1208 C1207 1.524 . S
C1209 C1206 1.403 . S
C1209 C1210 1.392 . S
C1209 C1213 1.495 . S
C1210 C1209 1.392 . S
C1210 C1211 1.385 . S
C1210 C1212 1.478 . S
C1211 H1205 0.930 . S
C1211 C1207 1.400 . S
C1211 C1210 1.385 . S
C1212 C1210 1.478 . S
C1212 C1214 1.381 . S
C1212 C1218 1.383 . S
C1213 C1209 1.495 . S
C1213 H1219 0.959 . S
C1213 H1220 0.961 . S
C1213 H1221 0.960 . S
C1214 C1212 1.381 . S
C1214 C1215 1.394 . S
C1214 H1222 0.930 . S
C1215 C1214 1.394 . S
C1215 C1216 1.383 . S
C1215 H1223 0.929 . S
C1216 C1215 1.383 . S
C1216 C1217 1.377 . S
C1217 H1201 0.930 . S
C1217 C1216 1.377 . S
C1217 C1218 1.379 . S
C1218 H1202 0.931 . S
C1218 C1212 1.383 . S
C1218 C1217 1.379 . S
H1219 C1213 0.959 . S
H1220 C1213 0.961 . S
H1221 C1213 0.960 . S
H1222 C1214 0.930 . S
H1223 C1215 0.929 . S
H1224 C1232 0.929 . S
H1225 C1234 0.930 . S
H1226 C1236 0.930 . S
H1227 C1239 0.929 . S
H1228 C1242 0.930 . S
H1229 C1244 0.960 . S
H1230 C1244 0.960 . S
H1231 C1244 0.960 . S
C1232 H1224 0.929 . S
C1232 C1233 1.377 . S
C1232 C1234 1.384 . S
C1233 C1232 1.377 . S
C1233 C1239 1.390 . S
C1234 H1225 0.930 . S
C1234 C1232 1.384 . S
C1234 C1235 1.372 . S
C1235 C1234 1.372 . S
C1235 C1236 1.400 . S
C1235 C1240 1.490 . S
C1236 H1226 0.930 . S
C1236 C1235 1.400 . S
C1236 C1239 1.386 . S
H1237 C1253 0.930 . S
H1238 C1254 0.931 . S
C1239 H1227 0.929 . S
C1239 C1233 1.390 . S
C1239 C1236 1.386 . S
C1240 C1235 1.490 . S
C1240 C1242 1.395 . S
C1240 C1243 1.403 . S
H1241 C1247 0.930 . S
C1242 H1228 0.930 . S
C1242 C1240 1.395 . S
C1242 C1245 1.403 . S
C1243 C1240 1.403 . S
C1243 C1244 1.524 . S
C1243 C1247 1.400 . S
C1244 H1229 0.960 . S
C1244 H1230 0.960 . S
C1244 H1231 0.960 . S
C1244 C1243 1.524 . S
C1245 C1242 1.403 . S
C1245 C1246 1.392 . S
C1245 C1249 1.495 . S
C1246 C1245 1.392 . S
C1246 C1247 1.385 . S
C1246 C1248 1.478 . S
C1247 H1241 0.930 . S
C1247 C1243 1.400 . S
C1247 C1246 1.385 . S
C1248 C1246 1.478 . S
C1248 C1250 1.381 . S
C1248 C1254 1.383 . S
C1249 C1245 1.495 . S
C1249 H1255 0.959 . S
C1249 H1256 0.961 . S
C1249 H1257 0.960 . S
C1250 C1248 1.381 . S
C1250 C1251 1.394 . S
C1250 H1258 0.930 . S
C1251 C1250 1.394 . S
C1251 C1252 1.383 . S
C1251 H1259 0.929 . S
C1252 C1251 1.383 . S
C1252 C1253 1.377 . S
C1253 H1237 0.930 . S
C1253 C1252 1.377 . S
C1253 C1254 1.379 . S
C1254 H1238 0.931 . S
C1254 C1248 1.383 . S
C1254 C1253 1.379 . S
H1255 C1249 0.959 . S
H1256 C1249 0.961 . S
H1257 C1249 0.960 . S
H1258 C1250 0.930 . S
H1259 C1251 0.929 . S
H1260 C1268 0.929 . S
H1261 C1270 0.930 . S
H1262 C1272 0.930 . S
H1263 C1275 0.929 . S
H1264 C1278 0.930 . S
H1265 C1280 0.960 . S
H1266 C1280 0.960 . S
H1267 C1280 0.960 . S
C1268 H1260 0.929 . S
C1268 C1269 1.377 . S
C1268 C1270 1.384 . S
C1269 C1268 1.377 . S
C1269 C1275 1.390 1_554 S
C1270 H1261 0.930 . S
C1270 C1268 1.384 . S
C1270 C1271 1.372 . S
C1271 C1270 1.372 . S
C1271 C1272 1.400 1_554 S
C1271 C1276 1.490 . S
C1272 H1262 0.930 . S
C1272 C1271 1.400 1_556 S
C1272 C1275 1.386 . S
H1273 C1289 0.930 . S
H1274 C1290 0.931 . S
C1275 H1263 0.929 . S
C1275 C1269 1.390 1_556 S
C1275 C1272 1.386 . S
C1276 C1271 1.490 . S
C1276 C1278 1.395 . S
C1276 C1279 1.403 1_554 S
H1277 C1283 0.930 . S
C1278 H1264 0.930 . S
C1278 C1276 1.395 . S
C1278 C1281 1.403 . S
C1279 C1276 1.403 1_556 S
C1279 C1280 1.524 . S
C1279 C1283 1.400 . S
C1280 H1265 0.960 . S
C1280 H1266 0.960 . S
C1280 H1267 0.960 . S
C1280 C1279 1.524 . S
C1281 C1278 1.403 . S
C1281 C1282 1.392 . S
C1281 C1285 1.495 . S
C1282 C1281 1.392 . S
C1282 C1283 1.385 1_554 S
C1282 C1284 1.478 1_554 S
C1283 H1277 0.930 . S
C1283 C1279 1.400 . S
C1283 C1282 1.385 1_556 S
C1284 C1282 1.478 1_556 S
C1284 C1286 1.381 1_556 S
C1284 C1290 1.383 . S
C1285 C1281 1.495 . S
C1285 H1291 0.959 . S
C1285 H1292 0.961 . S
C1285 H1293 0.960 . S
C1286 C1284 1.381 1_554 S
C1286 C1287 1.394 . S
C1286 H1294 0.930 . S
C1287 C1286 1.394 . S
C1287 C1288 1.383 1_554 S
C1287 H1295 0.929 . S
C1288 C1287 1.383 1_556 S
C1288 C1289 1.377 . S
C1289 H1273 0.930 . S
C1289 C1288 1.377 . S
C1289 C1290 1.379 . S
C1290 H1274 0.931 . S
C1290 C1284 1.383 . S
C1290 C1289 1.379 . S
H1291 C1285 0.959 . S
H1292 C1285 0.961 . S
H1293 C1285 0.960 . S
H1294 C1286 0.930 . S
H1295 C1287 0.929 . S
C441 C14 1.147 . S
C460 C338 1.095 . S
C477 C50 1.146 . S
C496 C374 1.145 . S
C513 C86 1.142 . S
C532 C410 1.087 . S
C549 C122 1.138 . S
C568 C230 1.176 . S
C585 C266 1.128 . S
C604 C158 1.157 . S
C621 C302 1.140 . S
C640 C194 1.089 . S
C657 C363 1.792 . S
C676 C3 1.792 . S
C693 C39 1.793 . S
C712 C399 1.797 . S
C729 C75 1.794 . S
C748 C219 1.781 . S
C765 C111 1.792 . S
C784 C255 1.794 . S
C801 C147 1.793 . S
C820 C291 1.800 . S
C837 C183 1.796 . S
C856 C327 1.798 . S
C873 C362 0.760 . S
C892 C2 0.749 . S
C909 C38 0.756 . S
C928 C398 0.747 . S
C945 C74 0.760 . S
C964 C218 0.747 . S
C981 C110 0.753 . S
C1000 C254 0.762 . S
C1017 C146 0.757 . S
C1036 C290 0.742 . S
C1053 C182 0.754 . S
C1072 C326 0.757 . S
C1089 C4 1.670 . S
C1108 C220 1.669 . S
C1125 C256 1.670 . S
C1144 C40 1.668 . S
C1161 C76 1.669 . S
C1180 C292 1.663 . S
C1197 C112 1.668 . S
C1216 C328 1.662 . S
C1233 C148 1.669 . S
C1252 C364 1.663 . S
C1269 C400 1.669 . S
C1288 C184 1.665 . S
