# Generated by pormake.
# Topology wjz, (5)-cn, num edge types: 1
# Building blocks:
#     Node 0, Type 0, BuildingBlock: XOMCOT_clean_sbu_1, # of connection points: 5
#     Node 1, Type 0, BuildingBlock: XOMCOT_clean_sbu_1, # of connection points: 5
#     Node 2, Type 0, BuildingBlock: XOMCOT_clean_sbu_1, # of connection points: 5
#     Node 3, Type 0, BuildingBlock: XOMCOT_clean_sbu_1, # of connection points: 5
#     Node 4, Type 0, BuildingBlock: XOMCOT_clean_sbu_1, # of connection points: 5
#     Node 5, Type 0, BuildingBlock: XOMCOT_clean_sbu_1, # of connection points: 5
#     Node 6, Type 0, BuildingBlock: XOMCOT_clean_sbu_1, # of connection points: 5
#     Node 7, Type 0, BuildingBlock: XOMCOT_clean_sbu_1, # of connection points: 5
#     Node 8, Type 0, BuildingBlock: XOMCOT_clean_sbu_1, # of connection points: 5
#     Node 9, Type 0, BuildingBlock: XOMCOT_clean_sbu_1, # of connection points: 5
#     Node 10, Type 0, BuildingBlock: XOMCOT_clean_sbu_1, # of connection points: 5
#     Node 11, Type 0, BuildingBlock: XOMCOT_clean_sbu_1, # of connection points: 5
#     Edge 12, Type (0, 0), BuildingBlock: XUDNAN_clean_linker_2, # of connection points: 2
#     Edge 13, Type (0, 0), BuildingBlock: XUDNAN_clean_linker_2, # of connection points: 2
#     Edge 14, Type (0, 0), BuildingBlock: XUDNAN_clean_linker_2, # of connection points: 2
#     Edge 15, Type (0, 0), BuildingBlock: XUDNAN_clean_linker_2, # of connection points: 2
#     Edge 16, Type (0, 0), BuildingBlock: XUDNAN_clean_linker_2, # of connection points: 2
#     Edge 17, Type (0, 0), BuildingBlock: XUDNAN_clean_linker_2, # of connection points: 2
#     Edge 18, Type (0, 0), BuildingBlock: XUDNAN_clean_linker_2, # of connection points: 2
#     Edge 19, Type (0, 0), BuildingBlock: XUDNAN_clean_linker_2, # of connection points: 2
#     Edge 20, Type (0, 0), BuildingBlock: XUDNAN_clean_linker_2, # of connection points: 2
#     Edge 21, Type (0, 0), BuildingBlock: XUDNAN_clean_linker_2, # of connection points: 2
#     Edge 22, Type (0, 0), BuildingBlock: XUDNAN_clean_linker_2, # of connection points: 2
#     Edge 23, Type (0, 0), BuildingBlock: XUDNAN_clean_linker_2, # of connection points: 2
#     Edge 24, Type (0, 0), BuildingBlock: XUDNAN_clean_linker_2, # of connection points: 2
#     Edge 25, Type (0, 0), BuildingBlock: XUDNAN_clean_linker_2, # of connection points: 2
#     Edge 26, Type (0, 0), BuildingBlock: XUDNAN_clean_linker_2, # of connection points: 2
#     Edge 27, Type (0, 0), BuildingBlock: XUDNAN_clean_linker_2, # of connection points: 2
#     Edge 28, Type (0, 0), BuildingBlock: XUDNAN_clean_linker_2, # of connection points: 2
#     Edge 29, Type (0, 0), BuildingBlock: XUDNAN_clean_linker_2, # of connection points: 2
#     Edge 30, Type (0, 0), BuildingBlock: XUDNAN_clean_linker_2, # of connection points: 2
#     Edge 31, Type (0, 0), BuildingBlock: XUDNAN_clean_linker_2, # of connection points: 2
#     Edge 32, Type (0, 0), BuildingBlock: XUDNAN_clean_linker_2, # of connection points: 2
#     Edge 33, Type (0, 0), BuildingBlock: XUDNAN_clean_linker_2, # of connection points: 2
#     Edge 34, Type (0, 0), BuildingBlock: XUDNAN_clean_linker_2, # of connection points: 2
#     Edge 35, Type (0, 0), BuildingBlock: XUDNAN_clean_linker_2, # of connection points: 2
#     Edge 36, Type (0, 0), BuildingBlock: XUDNAN_clean_linker_2, # of connection points: 2
#     Edge 37, Type (0, 0), BuildingBlock: XUDNAN_clean_linker_2, # of connection points: 2
#     Edge 38, Type (0, 0), BuildingBlock: XUDNAN_clean_linker_2, # of connection points: 2
#     Edge 39, Type (0, 0), BuildingBlock: XUDNAN_clean_linker_2, # of connection points: 2
#     Edge 40, Type (0, 0), BuildingBlock: XUDNAN_clean_linker_2, # of connection points: 2
#     Edge 41, Type (0, 0), BuildingBlock: XUDNAN_clean_linker_2, # of connection points: 2
# Relax obj value: 0.173
# Max RMSD: 0.191
# Mean RMSD: 0.191
data_MOF--net-wjz--node1-XOMCOT_clean_sbu_1--edge1-XUDNAN_clean_linker_2
_symmetry_space_group_name_H-M    P1
_symmetry_Int_Tables_number       1
_symmetry_cell_setting            triclinic
loop_
_symmetry_equiv_pos_as_xyz
'x, y, z'
_cell_length_a     73.711856
_cell_length_b     73.678632
_cell_length_c     17.330344
_cell_angle_alpha  90.041494
_cell_angle_beta   89.943437
_cell_angle_gamma 120.05993
loop_
_atom_site_label
_atom_site_type_symbol
_atom_site_fract_x
_atom_site_fract_y
_atom_site_fract_z
_atom_type_partial_charge
C0 C 0.32352 0.44709 0.97604 0.0
C1 C 0.32084 0.44493 0.89713 0.0
N2 N 0.32005 0.46165 0.87002 0.0
N3 N 0.32475 0.46526 0.99788 0.0
C4 C 0.32246 0.47367 0.93217 0.0
H5 H 0.32445 0.43611 0.01494 0.0
Co6 Co 0.32805 0.4766 0.09593 0.0
C7 C 0.36452 0.51939 0.08136 0.0
O8 O 0.371 0.51726 0.14964 0.0
N9 N 0.33034 0.48807 0.19534 0.0
C10 C 0.32777 0.50861 0.28394 0.0
C11 C 0.33022 0.50618 0.20709 0.0
C12 C 0.32722 0.47947 0.26669 0.0
N13 N 0.32576 0.49175 0.32146 0.0
O14 O 0.30533 0.48118 0.07854 0.0
H15 H 0.33068 0.51651 0.1619 0.0
H16 H 0.32429 0.46386 0.27822 0.0
O17 O 0.34749 0.50444 0.05359 0.0
C18 C 0.28721 0.46609 0.09491 0.0
O19 O 0.28505 0.44766 0.1107 0.0
N20 N 0.35004 0.47103 0.11408 0.0
C21 C 0.3803 0.45973 0.14155 0.0
C22 C 0.38363 0.47478 0.08569 0.0
C23 C 0.36802 0.47971 0.07106 0.0
C24 C 0.34596 0.45524 0.16451 0.0
C25 C 0.36101 0.44952 0.18005 0.0
H26 H 0.37027 0.49003 0.0234 0.0
H27 H 0.33066 0.44646 0.19064 0.0
H28 H 0.32263 0.48843 0.93001 0.0
H29 H 0.31913 0.43191 0.86269 0.0
H30 H 0.32676 0.52146 0.30978 0.0
H31 H 0.39788 0.48213 0.05166 0.0
H32 H 0.35754 0.43715 0.22129 0.0
C33 C 0.8512 0.32057 0.26346 0.0
C34 C 0.85428 0.31895 0.18605 0.0
N35 N 0.84831 0.33087 0.14689 0.0
N36 N 0.8434 0.3335 0.27311 0.0
C37 C 0.84163 0.33941 0.20088 0.0
H38 H 0.85535 0.31361 0.31011 0.0
Co39 Co 0.84061 0.34305 0.36915 0.0
C40 C 0.83238 0.37769 0.33001 0.0
O41 O 0.84458 0.38955 0.38605 0.0
N42 N 0.83761 0.35181 0.4682 0.0
C43 C 0.82389 0.35791 0.57293 0.0
C44 C 0.82255 0.35565 0.49393 0.0
C45 C 0.84717 0.35083 0.5333 0.0
N46 N 0.83944 0.35482 0.59788 0.0
O47 O 0.81285 0.32037 0.37729 0.0
H48 H 0.81053 0.35566 0.45829 0.0
H49 H 0.85832 0.34547 0.5342 0.0
O50 O 0.82971 0.35935 0.31993 0.0
C51 C 0.81041 0.30372 0.40871 0.0
O52 O 0.82703 0.30292 0.43099 0.0
N53 N 0.86874 0.36493 0.36083 0.0
C54 C 0.91177 0.39231 0.34304 0.0
C55 C 0.89726 0.39488 0.29921 0.0
C56 C 0.87589 0.38074 0.30753 0.0
C57 C 0.88272 0.36172 0.40131 0.0
C58 C 0.90426 0.37545 0.39471 0.0
H59 H 0.86545 0.38202 0.26747 0.0
H60 H 0.87729 0.34768 0.43527 0.0
H61 H 0.83691 0.35081 0.18803 0.0
H62 H 0.86097 0.31019 0.16071 0.0
H63 H 0.81362 0.36079 0.609 0.0
H64 H 0.90239 0.4073 0.25685 0.0
H65 H 0.91494 0.37219 0.42658 0.0
C66 C 0.51598 0.85402 0.35341 0.0
C67 C 0.5203 0.85384 0.27631 0.0
N68 N 0.50206 0.8423 0.23846 0.0
N69 N 0.49512 0.8426 0.36446 0.0
C70 C 0.48702 0.83561 0.29329 0.0
H71 H 0.52728 0.86231 0.39856 0.0
Co72 Co 0.48227 0.83961 0.46018 0.0
C73 C 0.44132 0.83392 0.40386 0.0
O74 O 0.44183 0.84824 0.45059 0.0
N75 N 0.47003 0.83628 0.55872 0.0
C76 C 0.44971 0.82484 0.6635 0.0
C77 C 0.44999 0.82654 0.5841 0.0
C78 C 0.48143 0.83964 0.62367 0.0
N79 N 0.46959 0.83297 0.68826 0.0
O80 O 0.47729 0.81186 0.46866 0.0
H81 H 0.43624 0.81947 0.54791 0.0
H82 H 0.49819 0.84594 0.62291 0.0
O83 O 0.45563 0.82907 0.40749 0.0
C84 C 0.49301 0.81137 0.49624 0.0
O85 O 0.51041 0.82923 0.50801 0.0
N86 N 0.4887 0.86778 0.4535 0.0
C87 C 0.50517 0.91117 0.44163 0.0
C88 C 0.49101 0.89741 0.38639 0.0
C89 C 0.48357 0.87591 0.3919 0.0
C90 C 0.50265 0.88092 0.5069 0.0
C91 C 0.51097 0.90254 0.50239 0.0
H92 H 0.47434 0.86599 0.34485 0.0
H93 H 0.5085 0.87488 0.55087 0.0
H94 H 0.47047 0.82584 0.28154 0.0
H95 H 0.53567 0.86207 0.24992 0.0
H96 H 0.43588 0.8169 0.69941 0.0
H97 H 0.4861 0.90313 0.33783 0.0
H98 H 0.52267 0.91236 0.54432 0.0
C99 C 0.69671 0.55739 0.50918 0.0
C100 C 0.70182 0.56069 0.4323 0.0
N101 N 0.69112 0.54219 0.39527 0.0
N102 N 0.68286 0.53692 0.52069 0.0
C103 C 0.67969 0.52799 0.45016 0.0
H104 H 0.70286 0.56911 0.5543 0.0
Co105 Co 0.67307 0.52572 0.61773 0.0
C106 C 0.62877 0.49375 0.58772 0.0
O107 O 0.6225 0.50079 0.64561 0.0
N108 N 0.6645 0.51469 0.71795 0.0
C109 C 0.6528 0.49358 0.82065 0.0
C110 C 0.65112 0.49488 0.74205 0.0
C111 C 0.67512 0.52456 0.78261 0.0
N112 N 0.668 0.51232 0.84594 0.0
O113 O 0.68692 0.51001 0.61187 0.0
H114 H 0.64184 0.48162 0.70505 0.0
H115 H 0.68873 0.54009 0.7827 0.0
O116 O 0.64825 0.50228 0.57144 0.0
C117 C 0.70654 0.51994 0.62387 0.0
O118 O 0.71638 0.54051 0.62771 0.0
N119 N 0.6601 0.54223 0.62508 0.0
C120 C 0.64436 0.56962 0.63769 0.0
C121 C 0.63791 0.55498 0.57735 0.0
C122 C 0.64629 0.54171 0.57118 0.0
C123 C 0.66748 0.5573 0.68079 0.0
C124 C 0.65949 0.57076 0.68936 0.0
H125 H 0.64196 0.53131 0.52212 0.0
H126 H 0.68017 0.55957 0.71745 0.0
H127 H 0.6697 0.51138 0.43956 0.0
H128 H 0.71252 0.57557 0.40561 0.0
H129 H 0.64448 0.4796 0.85559 0.0
H130 H 0.6269 0.55414 0.53418 0.0
H131 H 0.66527 0.58202 0.73611 0.0
C132 C 0.12283 0.65577 0.71809 0.0
C133 C 0.12209 0.65946 0.64096 0.0
N134 N 0.13595 0.65574 0.6036 0.0
N135 N 0.13685 0.64942 0.72983 0.0
C136 C 0.14467 0.64958 0.65892 0.0
H137 H 0.11416 0.65827 0.76303 0.0
Co138 Co 0.14494 0.6454 0.82692 0.0
C139 C 0.14996 0.60775 0.81076 0.0
O140 O 0.14292 0.60121 0.88087 0.0
N141 N 0.15361 0.64246 0.92673 0.0
C142 C 0.17351 0.6433 0.02543 0.0
C143 C 0.17059 0.64101 0.94661 0.0
C144 C 0.14705 0.6464 0.9943 0.0
N145 N 0.15873 0.64691 0.05487 0.0
O146 O 0.17297 0.66643 0.80406 0.0
H147 H 0.18095 0.63957 0.90597 0.0
H148 H 0.13481 0.65023 0.99939 0.0
O149 O 0.15091 0.62441 0.78442 0.0
C150 C 0.18112 0.68367 0.84073 0.0
O151 O 0.1703 0.6865 0.89487 0.0
N152 N 0.11674 0.62536 0.84865 0.0
C153 C 0.07404 0.60016 0.88084 0.0
C154 C 0.08447 0.59269 0.83433 0.0
C155 C 0.10573 0.6057 0.8175 0.0
C156 C 0.10648 0.63319 0.89009 0.0
C157 C 0.08532 0.62079 0.90834 0.0
H158 H 0.11283 0.60011 0.7767 0.0
H159 H 0.1146 0.64952 0.90667 0.0
H160 H 0.15721 0.64627 0.64871 0.0
H161 H 0.11227 0.66479 0.61471 0.0
H162 H 0.18627 0.64371 0.05773 0.0
H163 H 0.07611 0.57722 0.80861 0.0
H164 H 0.07784 0.62744 0.94292 0.0
C165 C 0.45916 0.13133 0.94202 0.0
C166 C 0.45781 0.13352 0.86335 0.0
N167 N 0.47727 0.14637 0.83594 0.0
N168 N 0.47943 0.14248 0.96374 0.0
C169 C 0.48996 0.15165 0.89811 0.0
H170 H 0.44629 0.12187 0.98061 0.0
Co171 Co 0.49147 0.14485 0.06147 0.0
C172 C 0.52564 0.1369 0.00947 0.0
O173 O 0.51983 0.12092 0.05638 0.0
N174 N 0.50399 0.14843 0.16015 0.0
C175 C 0.52752 0.15896 0.25513 0.0
C176 C 0.52421 0.15483 0.17758 0.0
C177 C 0.49562 0.14961 0.22852 0.0
N178 N 0.5095 0.15559 0.28717 0.0
O179 O 0.50304 0.17432 0.05727 0.0
H180 H 0.53644 0.1579 0.13676 0.0
H181 H 0.47998 0.1473 0.23449 0.0
O182 O 0.51623 0.14747 0.01009 0.0
C183 C 0.48938 0.17936 0.07474 0.0
O184 O 0.4702 0.16435 0.09027 0.0
N185 N 0.47847 0.11518 0.0673 0.0
C186 C 0.45432 0.07135 0.07685 0.0
C187 C 0.46574 0.08116 0.0097 0.0
C188 C 0.47766 0.10305 0.00605 0.0
C189 C 0.46692 0.10584 0.13172 0.0
C190 C 0.45542 0.08413 0.13876 0.0
H191 H 0.48579 0.11027 0.95296 0.0
H192 H 0.46576 0.11502 0.17745 0.0
H193 H 0.5068 0.16166 0.89568 0.0
H194 H 0.44362 0.12624 0.82918 0.0
H195 H 0.54225 0.16469 0.28529 0.0
H196 H 0.46498 0.07216 0.95922 0.0
H197 H 0.44713 0.07756 0.19225 0.0
C198 C 0.54859 0.69016 0.85052 0.0
C199 C 0.55036 0.69589 0.92685 0.0
N200 N 0.53097 0.68773 0.95601 0.0
N201 N 0.52813 0.67809 0.83167 0.0
C202 C 0.51779 0.67749 0.89727 0.0
H203 H 0.5616 0.69484 0.81156 0.0
Co204 Co 0.51748 0.66725 0.73233 0.0
C205 C 0.48916 0.63204 0.83691 0.0
O206 O 0.50486 0.63487 0.88105 0.0
N207 N 0.50763 0.65766 0.6337 0.0
C208 C 0.49192 0.63922 0.52862 0.0
C209 C 0.49354 0.63841 0.60765 0.0
C210 C 0.51441 0.6698 0.57009 0.0
N211 N 0.50506 0.65904 0.50512 0.0
O212 O 0.503 0.68245 0.73135 0.0
H213 H 0.48513 0.62463 0.64337 0.0
H214 H 0.52637 0.68619 0.57155 0.0
O215 O 0.49251 0.64327 0.77662 0.0
C216 C 0.51493 0.70167 0.71477 0.0
O217 O 0.53517 0.70881 0.70853 0.0
N218 N 0.53293 0.65343 0.7277 0.0
C219 C 0.56139 0.63935 0.70697 0.0
C220 C 0.54065 0.62542 0.72969 0.0
C221 C 0.52647 0.63268 0.73781 0.0
C222 C 0.55249 0.66672 0.70013 0.0
C223 C 0.56703 0.66013 0.69014 0.0
H224 H 0.51036 0.62141 0.75022 0.0
H225 H 0.55679 0.68264 0.68532 0.0
H226 H 0.5009 0.6696 0.90238 0.0
H227 H 0.56475 0.70488 0.95907 0.0
H228 H 0.48175 0.62623 0.4916 0.0
H229 H 0.53536 0.60908 0.74131 0.0
H230 H 0.58247 0.67123 0.66847 0.0
C231 C 0.85321 0.54337 0.02486 0.0
C232 C 0.85003 0.54394 0.10318 0.0
N233 N 0.84307 0.52458 0.13219 0.0
N234 N 0.84839 0.52379 1.00469 0.0
C235 C 0.84223 0.51277 0.07123 0.0
H236 H 0.859 0.55645 0.98529 0.0
Co237 Co 0.85132 0.51516 0.90623 0.0
C238 C 0.82982 0.46854 0.9239 0.0
O239 O 0.8192 0.46492 0.85936 0.0
N240 N 0.85425 0.50691 0.80733 0.0
C241 C 0.85999 0.49118 0.7086 0.0
C242 C 0.86212 0.49452 0.78702 0.0
C243 C 0.84801 0.51142 0.74027 0.0
N244 N 0.85121 0.5019 0.67958 0.0
O245 O 0.82311 0.50738 0.88193 0.0
H246 H 0.86851 0.48789 0.82699 0.0
H247 H 0.84057 0.52086 0.73637 0.0
O248 O 0.8425 0.48732 0.94499 0.0
C249 C 0.80495 0.49604 0.91077 0.0
O250 O 0.80255 0.48609 0.97618 0.0
N251 N 0.87931 0.52385 0.9274 0.0
C252 C 0.92179 0.53699 0.94066 0.0
C253 C 0.90708 0.52173 0.99072 0.0
C254 C 0.88588 0.51543 0.98337 0.0
C255 C 0.89344 0.53951 0.8812 0.0
C256 C 0.91475 0.54618 0.88626 0.0
H257 H 0.87481 0.5037 0.02224 0.0
H258 H 0.88801 0.54633 0.83822 0.0
H259 H 0.83773 0.49646 0.07562 0.0
H260 H 0.85273 0.55757 0.13601 0.0
H261 H 0.86434 0.48148 0.67543 0.0
H262 H 0.91189 0.51464 0.03496 0.0
H263 H 0.92546 0.55793 0.84609 0.0
C264 C 0.30829 0.82716 0.03865 0.0
C265 C 0.3065 0.82261 0.1163 0.0
N266 N 0.32571 0.8333 0.14807 0.0
N267 N 0.3286 0.84038 0.02133 0.0
C268 C 0.33881 0.84403 0.08954 0.0
H269 H 0.29561 0.82103 0.99729 0.0
Co270 Co 0.33967 0.84996 0.92292 0.0
C271 C 0.3649 0.82871 0.93816 0.0
O272 O 0.35239 0.81268 0.89456 0.0
N273 N 0.35064 0.85967 0.82347 0.0
C274 C 0.35664 0.87772 0.71457 0.0
C275 C 0.35359 0.87776 0.79263 0.0
C276 C 0.35226 0.84899 0.76265 0.0
N277 N 0.35543 0.85944 0.69508 0.0
O278 O 0.32218 0.82224 0.88397 0.0
H279 H 0.35182 0.88954 0.82339 0.0
H280 H 0.3494 0.83314 0.76707 0.0
O281 O 0.36149 0.8439 0.94739 0.0
C282 C 0.30805 0.818 0.83364 0.0
O283 O 0.30585 0.83313 0.80348 0.0
N284 N 0.3556 0.87703 0.96193 0.0
C285 C 0.37543 0.91803 0.01739 0.0
C286 C 0.38716 0.90859 0.99569 0.0
C287 C 0.37694 0.88808 0.96721 0.0
C288 C 0.34394 0.88583 0.98296 0.0
C289 C 0.35351 0.90632 0.01044 0.0
H290 H 0.38623 0.88132 0.94827 0.0
H291 H 0.32707 0.87694 0.97679 0.0
H292 H 0.35558 0.85398 0.09594 0.0
H293 H 0.29219 0.81234 0.1472 0.0
H294 H 0.3576 0.88945 0.67463 0.0
H295 H 0.40408 0.91693 1.0003 0.0
H296 H 0.34376 0.91302 0.02418 0.0
C297 C 0.4618 0.33159 0.28016 0.0
C298 C 0.45756 0.32668 0.35708 0.0
N299 N 0.47575 0.33229 0.39354 0.0
N300 N 0.48258 0.34032 0.26809 0.0
C301 C 0.49065 0.34028 0.33813 0.0
H302 H 0.45051 0.32921 0.23578 0.0
Co303 Co 0.49533 0.34967 0.17205 0.0
C304 C 0.53502 0.38899 0.21653 0.0
O305 O 0.53388 0.39982 0.15843 0.0
N306 N 0.50736 0.35766 0.07281 0.0
C307 C 0.5278 0.36579 0.96853 0.0
C308 C 0.52744 0.36753 0.04774 0.0
C309 C 0.49602 0.34909 0.00802 0.0
N310 N 0.50793 0.35404 0.94372 0.0
O311 O 0.50384 0.32934 0.17335 0.0
H312 H 0.54112 0.37409 0.08431 0.0
H313 H 0.47933 0.33828 0.00862 0.0
O314 O 0.52132 0.36958 0.2241 0.0
C315 C 0.49002 0.31127 0.15016 0.0
O316 O 0.47139 0.30815 0.13154 0.0
N317 N 0.48593 0.36934 0.1705 0.0
C318 C 0.4683 0.39518 0.17215 0.0
C319 C 0.48223 0.39681 0.23006 0.0
C320 C 0.49045 0.3834 0.22924 0.0
C321 C 0.47168 0.36703 0.11557 0.0
C322 C 0.46287 0.37995 0.11473 0.0
H323 H 0.49979 0.38384 0.27776 0.0
H324 H 0.4663 0.3546 0.07388 0.0
H325 H 0.50704 0.34561 0.34818 0.0
H326 H 0.44234 0.31996 0.38444 0.0
H327 H 0.54165 0.37144 0.93282 0.0
H328 H 0.48611 0.40779 0.27729 0.0
H329 H 0.45172 0.37785 0.07002 0.0
C330 C 0.12803 0.4406 0.45946 0.0
C331 C 0.12509 0.43571 0.53672 0.0
N332 N 0.12483 0.45156 0.57463 0.0
N333 N 0.12971 0.45947 0.44852 0.0
C334 C 0.12757 0.46572 0.51975 0.0
H335 H 0.12874 0.43091 0.41405 0.0
Co336 Co 0.1331 0.47223 0.35291 0.0
C337 C 0.14727 0.51729 0.39632 0.0
O338 O 0.13993 0.52166 0.33436 0.0
N339 N 0.13663 0.48441 0.25441 0.0
C340 C 0.15252 0.50153 0.14663 0.0
C341 C 0.15374 0.50147 0.226 0.0
C342 C 0.12551 0.47426 0.19093 0.0
N343 N 0.13479 0.4842 0.12444 0.0
O344 O 0.16051 0.47634 0.34442 0.0
H345 H 0.16717 0.51219 0.26008 0.0
H346 H 0.11167 0.45899 0.19296 0.0
O347 O 0.14485 0.49903 0.40504 0.0
C348 C 0.16258 0.46315 0.30357 0.0
O349 O 0.14573 0.44665 0.2766 0.0
N350 N 0.10557 0.46708 0.35938 0.0
C351 C 0.06356 0.45538 0.34643 0.0
C352 C 0.0773 0.47332 0.38823 0.0
C353 C 0.09838 0.47891 0.39443 0.0
C354 C 0.09188 0.44851 0.32545 0.0
C355 C 0.07087 0.44259 0.31648 0.0
H356 H 0.10859 0.49261 0.4276 0.0
H357 H 0.09755 0.43859 0.30273 0.0
H358 H 0.12735 0.48004 0.53107 0.0
H359 H 0.12343 0.42163 0.56298 0.0
H360 H 0.16467 0.51251 0.10832 0.0
H361 H 0.07191 0.48318 0.41403 0.0
H362 H 0.06046 0.42825 0.28591 0.0
C363 C 0.66421 0.11984 0.62314 0.0
C364 C 0.66868 0.12014 0.70034 0.0
N365 N 0.66049 0.13031 0.73844 0.0
N366 N 0.65333 0.12985 0.61252 0.0
C367 C 0.65126 0.13606 0.68391 0.0
H368 H 0.66879 0.11298 0.57729 0.0
Co369 Co 0.64519 0.13443 0.51626 0.0
C370 C 0.60533 0.13321 0.56469 0.0
O371 O 0.59345 0.11856 0.51497 0.0
N372 N 0.63809 0.13961 0.4173 0.0
C373 C 0.62703 0.14888 0.31282 0.0
C374 C 0.62511 0.1463 0.39176 0.0
C375 C 0.6484 0.13933 0.35314 0.0
N376 N 0.64172 0.14445 0.28859 0.0
O377 O 0.66541 0.16327 0.52302 0.0
H378 H 0.61552 0.15013 0.42744 0.0
H379 H 0.66079 0.13552 0.35413 0.0
O380 O 0.62505 0.1403 0.56681 0.0
C381 C 0.68422 0.1685 0.50668 0.0
O382 O 0.68873 0.15377 0.49065 0.0
N383 N 0.6258 0.10544 0.50816 0.0
C384 C 0.59713 0.06318 0.48156 0.0
C385 C 0.59597 0.07308 0.54915 0.0
C386 C 0.61089 0.09412 0.56243 0.0
C387 C 0.62853 0.09538 0.44719 0.0
C388 C 0.61427 0.0744 0.4322 0.0
H389 H 0.61002 0.10145 0.61525 0.0
H390 H 0.64189 0.10353 0.40979 0.0
H391 H 0.6437 0.14512 0.69564 0.0
H392 H 0.67726 0.11336 0.72649 0.0
H393 H 0.61878 0.15434 0.27659 0.0
H394 H 0.58342 0.0649 0.59047 0.0
H395 H 0.61672 0.06706 0.38219 0.0
H396 H 0.33745 0.46979 0.41521 0.0
H397 H 0.30282 0.5031 0.41002 0.0
H398 H 0.29613 0.49725 0.54952 0.0
H399 H 0.30422 0.43049 0.56008 0.0
H400 H 0.32611 0.43041 0.60604 0.0
H401 H 0.3271 0.43601 0.5044 0.0
H402 H 0.36166 0.47114 0.52496 0.0
H403 H 0.36075 0.4657 0.62658 0.0
H404 H 0.36237 0.48973 0.59437 0.0
H405 H 0.29508 0.49002 0.68959 0.0
H406 H 0.29915 0.48107 0.82315 0.0
H407 H 0.33402 0.45196 0.73969 0.0
C408 C 0.32817 0.47551 0.44338 0.0
C409 C 0.32078 0.48703 0.40191 0.0
C410 C 0.30893 0.49455 0.44084 0.0
C411 C 0.30491 0.49117 0.51996 0.0
C412 C 0.31274 0.48013 0.55944 0.0
C413 C 0.32402 0.4723 0.52267 0.0
C414 C 0.33139 0.46175 0.57969 0.0
C415 C 0.32161 0.43827 0.56146 0.0
C416 C 0.35547 0.47275 0.58149 0.0
C417 C 0.32273 0.46519 0.65422 0.0
C418 C 0.31197 0.47576 0.64095 0.0
C419 C 0.30332 0.48159 0.70078 0.0
C420 C 0.30584 0.47658 0.77641 0.0
C421 C 0.31688 0.46584 0.79164 0.0
C422 C 0.32523 0.45989 0.72952 0.0
H423 H 0.82273 0.33761 0.05306 0.0
H424 H 0.88019 0.33501 0.05726 0.0
H425 H 0.88512 0.34305 0.91799 0.0
H426 H 0.80491 0.31241 0.87098 0.0
H427 H 0.79378 0.32816 0.84082 0.0
H428 H 0.7955 0.32365 0.94193 0.0
H429 H 0.8162 0.36376 0.96608 0.0
H430 H 0.81458 0.36839 0.8649 0.0
H431 H 0.83976 0.37993 0.91173 0.0
H432 H 0.88383 0.35115 0.77921 0.0
H433 H 0.87517 0.35604 0.64708 0.0
H434 H 0.81723 0.35127 0.73006 0.0
C435 C 0.83642 0.33895 0.02457 0.0
C436 C 0.85108 0.33567 0.06574 0.0
C437 C 0.86867 0.33723 0.02654 0.0
C438 C 0.87169 0.34197 0.94767 0.0
C439 C 0.85691 0.34499 0.90862 0.0
C440 C 0.83953 0.3434 0.94544 0.0
C441 C 0.82544 0.34621 0.88882 0.0
C442 C 0.80362 0.32642 0.88544 0.0
C443 C 0.82391 0.36573 0.9091 0.0
C444 C 0.83751 0.34932 0.81434 0.0
C445 C 0.85575 0.34888 0.82748 0.0
C446 C 0.86949 0.35135 0.76801 0.0
C447 C 0.86428 0.35394 0.69271 0.0
C448 C 0.84525 0.35367 0.67679 0.0
C449 C 0.8319 0.35162 0.73924 0.0
H450 H 0.46903 0.83684 0.14957 0.0
H451 H 0.52929 0.83978 0.14068 0.0
H452 H 0.52645 0.83607 0.99925 0.0
H453 H 0.44458 0.7984 0.99017 0.0
H454 H 0.43039 0.81078 0.9552 0.0
H455 H 0.43661 0.81197 0.05633 0.0
H456 H 0.45465 0.8524 0.05054 0.0
H457 H 0.44886 0.85126 0.94923 0.0
H458 H 0.47555 0.86667 0.98233 0.0
H459 H 0.51811 0.83347 0.85988 0.0
H460 H 0.50501 0.83257 0.72904 0.0
H461 H 0.45027 0.83216 0.82446 0.0
C462 C 0.48143 0.83632 0.11791 0.0
C463 C 0.49945 0.83866 0.15631 0.0
C464 C 0.5155 0.83827 0.11258 0.0
C465 C 0.51396 0.83603 0.03222 0.0
C466 C 0.49623 0.83413 0.99607 0.0
C467 C 0.48019 0.83418 0.03721 0.0
C468 C 0.46326 0.83271 0.9832 0.0
C469 C 0.44248 0.81224 0.99702 0.0
C470 C 0.46044 0.85192 0.99181 0.0
C471 C 0.47266 0.83245 0.90534 0.0
C472 C 0.49154 0.833 0.91456 0.0
C473 C 0.50337 0.8331 0.8518 0.0
C474 C 0.49585 0.8328 0.7774 0.0
C475 C 0.47671 0.83261 0.76576 0.0
C476 C 0.46489 0.83221 0.83108 0.0
H477 H 0.64579 0.49737 0.97856 0.0
H478 H 0.70797 0.53985 0.88923 0.0
H479 H 0.72098 0.55067 0.02196 0.0
H480 H 0.64661 0.53046 0.12726 0.0
H481 H 0.63274 0.50992 0.1969 0.0
H482 H 0.62831 0.50421 0.09543 0.0
H483 H 0.63785 0.47514 0.1091 0.0
H484 H 0.64248 0.48057 0.21069 0.0
H485 H 0.66273 0.48126 0.15054 0.0
H486 H 0.72683 0.55827 0.16285 0.0
H487 H 0.72521 0.5622 0.30366 0.0
H488 H 0.65941 0.51446 0.30309 0.0
C489 C 0.66222 0.50868 0.9871 0.0
C490 C 0.67585 0.51782 0.92354 0.0
C491 C 0.69717 0.53287 0.93691 0.0
C492 C 0.70474 0.53899 0.01214 0.0
C493 C 0.69082 0.52988 0.07341 0.0
C494 C 0.67002 0.51502 0.06186 0.0
C495 C 0.65819 0.50833 0.13764 0.0
C496 C 0.64042 0.51354 0.13938 0.0
C497 C 0.64982 0.48492 0.1528 0.0
C498 C 0.67554 0.52192 0.19358 0.0
C499 C 0.69424 0.53418 0.15515 0.0
C500 C 0.71232 0.54867 0.19367 0.0
C501 C 0.71122 0.55088 0.2735 0.0
C502 C 0.6922 0.53865 0.31414 0.0
C503 C 0.67421 0.52378 0.27361 0.0
H504 H 0.16473 0.63098 0.18763 0.0
H505 H 0.14898 0.67626 0.09775 0.0
H506 H 0.14385 0.68508 0.23023 0.0
H507 H 0.12721 0.61166 0.33306 0.0
H508 H 0.14264 0.6087 0.40674 0.0
H509 H 0.14813 0.60686 0.30672 0.0
H510 H 0.18619 0.63581 0.32119 0.0
H511 H 0.18273 0.63908 0.42219 0.0
H512 H 0.19239 0.66115 0.35824 0.0
H513 H 0.13856 0.68765 0.37035 0.0
H514 H 0.1326 0.68343 0.51031 0.0
H515 H 0.15091 0.63587 0.51225 0.0
C516 C 0.16056 0.64299 0.19622 0.0
C517 C 0.15716 0.65288 0.13259 0.0
C518 C 0.15138 0.6683 0.1457 0.0
C519 C 0.1486 0.67353 0.22073 0.0
C520 C 0.15169 0.66324 0.2822 0.0
C521 C 0.15755 0.64832 0.27099 0.0
C522 C 0.15873 0.63886 0.34715 0.0
C523 C 0.14328 0.6151 0.34839 0.0
C524 C 0.18133 0.644 0.36312 0.0
C525 C 0.15205 0.65036 0.40268 0.0
C526 C 0.14836 0.66455 0.36376 0.0
C527 C 0.14143 0.67662 0.40155 0.0
C528 C 0.1379 0.67394 0.48114 0.0
C529 C 0.14106 0.65915 0.52248 0.0
C530 C 0.14855 0.64744 0.48256 0.0
H531 H 0.45765 0.1248 0.70464 0.0
H532 H 0.51169 0.18195 0.78716 0.0
H533 H 0.52451 0.19138 0.65384 0.0
H534 H 0.48406 0.11317 0.56061 0.0
H535 H 0.46313 0.10354 0.49087 0.0
H536 H 0.45724 0.10177 0.59235 0.0
H537 H 0.43746 0.12215 0.57109 0.0
H538 H 0.44325 0.12393 0.46937 0.0
H539 H 0.45068 0.1474 0.52438 0.0
H540 H 0.53308 0.19342 0.51409 0.0
H541 H 0.53632 0.1883 0.37491 0.0
H542 H 0.47631 0.13075 0.37935 0.0
C543 C 0.47194 0.1395 0.69456 0.0
C544 C 0.4837 0.15256 0.75689 0.0
C545 C 0.50254 0.17149 0.74093 0.0
C546 C 0.50989 0.17708 0.66517 0.0
C547 C 0.49816 0.16371 0.60542 0.0
C548 C 0.47951 0.14538 0.61892 0.0
C549 C 0.47045 0.13342 0.5442 0.0
C550 C 0.46862 0.11169 0.54722 0.0
C551 C 0.4492 0.13162 0.52621 0.0
C552 C 0.48712 0.14774 0.48699 0.0
C553 C 0.50293 0.16513 0.52378 0.0
C554 C 0.52068 0.18001 0.48445 0.0
C555 C 0.52244 0.17695 0.40561 0.0
C556 C 0.50651 0.15925 0.36659 0.0
C557 C 0.48848 0.14462 0.40768 0.0
H558 H 0.49929 0.63704 0.372 0.0
H559 H 0.51916 0.69935 0.46076 0.0
H560 H 0.52651 0.71332 0.3281 0.0
H561 H 0.53777 0.65326 0.22338 0.0
H562 H 0.52049 0.63382 0.15507 0.0
H563 H 0.51636 0.62866 0.25698 0.0
H564 H 0.47826 0.62129 0.24294 0.0
H565 H 0.48256 0.62646 0.14106 0.0
H566 H 0.47365 0.64082 0.19918 0.0
H567 H 0.53382 0.72092 0.18598 0.0
H568 H 0.53935 0.72105 0.04446 0.0
H569 H 0.51255 0.65372 0.04775 0.0
C570 C 0.50488 0.65356 0.36367 0.0
C571 C 0.50868 0.66707 0.42721 0.0
C572 C 0.5164 0.6887 0.4134 0.0
C573 C 0.52049 0.69678 0.3381 0.0
C574 C 0.51669 0.68304 0.27696 0.0
C575 C 0.509 0.66188 0.2889 0.0
C576 C 0.50683 0.65057 0.21346 0.0
C577 C 0.52123 0.64102 0.21218 0.0
C578 C 0.48393 0.63379 0.19836 0.0
C579 C 0.51427 0.66862 0.15706 0.0
C580 C 0.52012 0.68728 0.19493 0.0
C581 C 0.52894 0.70635 0.15558 0.0
C582 C 0.53198 0.70633 0.0756 0.0
C583 C 0.52586 0.68737 0.03598 0.0
C584 C 0.51672 0.66829 0.07703 0.0
H585 H 0.86244 0.5354 0.5866 0.0
H586 H 0.82664 0.46764 0.59538 0.0
H587 H 0.81742 0.46649 0.45732 0.0
H588 H 0.82936 0.54328 0.4446 0.0
H589 H 0.8516 0.56426 0.39591 0.0
H590 H 0.85301 0.55996 0.49759 0.0
H591 H 0.8861 0.55689 0.47421 0.0
H592 H 0.88484 0.56122 0.37267 0.0
H593 H 0.88505 0.53808 0.4051 0.0
H594 H 0.8134 0.47259 0.31859 0.0
H595 H 0.81765 0.4849 0.18441 0.0
H596 H 0.85859 0.54886 0.26172 0.0
C597 C 0.85228 0.52044 0.55937 0.0
C598 C 0.84493 0.50158 0.60103 0.0
C599 C 0.83222 0.48216 0.56385 0.0
C600 C 0.82685 0.48141 0.48589 0.0
C601 C 0.83455 0.50025 0.4458 0.0
C602 C 0.84716 0.51941 0.48091 0.0
C603 C 0.8551 0.53714 0.42262 0.0
C604 C 0.84677 0.55204 0.4413 0.0
C605 C 0.8792 0.54902 0.41841 0.0
C606 C 0.84537 0.52489 0.34911 0.0
C607 C 0.83322 0.5037 0.36428 0.0
C608 C 0.82296 0.48914 0.30587 0.0
C609 C 0.82562 0.49631 0.22958 0.0
C610 C 0.83873 0.51786 0.21179 0.0
C611 C 0.84836 0.53234 0.27297 0.0
H612 H 0.35087 0.8666 0.23859 0.0
H613 H 0.31172 0.79901 0.2377 0.0
H614 H 0.31839 0.79802 0.3772 0.0
H615 H 0.38961 0.87152 0.39261 0.0
H616 H 0.39022 0.89469 0.42858 0.0
H617 H 0.38529 0.88821 0.32762 0.0
H618 H 0.35115 0.89063 0.346 0.0
H619 H 0.35606 0.89518 0.44786 0.0
H620 H 0.33169 0.87342 0.41453 0.0
H621 H 0.32712 0.8046 0.5183 0.0
H622 H 0.33543 0.81824 0.65095 0.0
H623 H 0.36868 0.88183 0.5613 0.0
C624 C 0.34419 0.85162 0.26772 0.0
C625 C 0.33097 0.83283 0.22771 0.0
C626 C 0.32192 0.81351 0.2677 0.0
C627 C 0.32573 0.81281 0.34663 0.0
C628 C 0.33854 0.83163 0.38497 0.0
C629 C 0.34762 0.85071 0.34695 0.0
C630 C 0.35874 0.86875 0.40338 0.0
C631 C 0.38237 0.88154 0.38684 0.0
C632 C 0.34881 0.88282 0.4029 0.0
C633 C 0.35448 0.85684 0.47867 0.0
C634 C 0.34299 0.83546 0.46681 0.0
C635 C 0.33638 0.82133 0.52816 0.0
C636 C 0.34136 0.82928 0.60364 0.0
C637 C 0.35282 0.85121 0.61745 0.0
C638 C 0.3598 0.86502 0.55342 0.0
H639 H 0.52627 0.37376 0.80867 0.0
H640 H 0.47363 0.31727 0.90238 0.0
H641 H 0.46071 0.30503 0.77083 0.0
H642 H 0.49796 0.38081 0.65716 0.0
H643 H 0.51875 0.38999 0.58703 0.0
H644 H 0.52493 0.39421 0.68824 0.0
H645 H 0.54653 0.37548 0.6782 0.0
H646 H 0.54079 0.37135 0.57654 0.0
H647 H 0.53459 0.34936 0.63859 0.0
H648 H 0.45242 0.29952 0.6302 0.0
H649 H 0.44951 0.30109 0.4886 0.0
H650 H 0.50775 0.36052 0.48382 0.0
C651 C 0.5122 0.35869 0.80139 0.0
C652 C 0.50092 0.34656 0.86621 0.0
C653 C 0.48238 0.32705 0.8541 0.0
C654 C 0.47499 0.31986 0.77941 0.0
C655 C 0.48632 0.33227 0.71699 0.0
C656 C 0.50456 0.35125 0.72696 0.0
C657 C 0.51327 0.36187 0.64981 0.0
C658 C 0.51375 0.38296 0.64532 0.0
C659 C 0.53509 0.36467 0.63493 0.0
C660 C 0.49706 0.34587 0.59514 0.0
C661 C 0.48165 0.32894 0.63528 0.0
C662 C 0.46449 0.3126 0.59805 0.0
C663 C 0.46292 0.31364 0.51774 0.0
C664 C 0.47846 0.33081 0.47524 0.0
C665 C 0.49587 0.34701 0.5146 0.0
H666 H 0.14704 0.50613 0.98844 0.0
H667 H 0.10996 0.44324 0.08241 0.0
H668 H 0.10159 0.42892 0.95165 0.0
H669 H 0.11387 0.49814 0.81937 0.0
H670 H 0.13565 0.51335 0.75578 0.0
H671 H 0.13782 0.5196 0.85713 0.0
H672 H 0.17081 0.51599 0.86754 0.0
H673 H 0.16907 0.50991 0.76625 0.0
H674 H 0.16966 0.4921 0.83607 0.0
H675 H 0.09898 0.42062 0.81235 0.0
H676 H 0.1022 0.4191 0.67129 0.0
H677 H 0.14133 0.48685 0.6639 0.0
C678 C 0.13705 0.48937 0.98166 0.0
C679 C 0.12904 0.47597 0.0468 0.0
C680 C 0.116 0.45408 0.03461 0.0
C681 C 0.11121 0.44567 0.96006 0.0
C682 C 0.11949 0.45925 0.89761 0.0
C683 C 0.13209 0.48063 0.90726 0.0
C684 C 0.13966 0.49153 0.82975 0.0
C685 C 0.13125 0.50654 0.81465 0.0
C686 C 0.16373 0.50306 0.82463 0.0
C687 C 0.1297 0.47282 0.77555 0.0
C688 C 0.11803 0.4544 0.81618 0.0
C689 C 0.10797 0.43494 0.77975 0.0
C690 C 0.11001 0.43422 0.69964 0.0
C691 C 0.12204 0.45281 0.65649 0.0
C692 C 0.1318 0.4724 0.69513 0.0
H693 H 0.6308 0.13066 0.83103 0.0
H694 H 0.69355 0.13953 0.83046 0.0
H695 H 0.69609 0.14583 0.97106 0.0
H696 H 0.63918 0.16946 0.97755 0.0
H697 H 0.61391 0.15359 0.02209 0.0
H698 H 0.61725 0.15077 0.92063 0.0
H699 H 0.60338 0.11098 0.93915 0.0
H700 H 0.59948 0.11377 0.04008 0.0
H701 H 0.61526 0.10257 0.01088 0.0
H702 H 0.69159 0.15018 0.11143 0.0
H703 H 0.68 0.15133 0.2438 0.0
H704 H 0.61965 0.13864 0.15553 0.0
C705 C 0.64515 0.13423 0.86055 0.0
C706 C 0.66204 0.1347 0.81997 0.0
C707 C 0.68042 0.13897 0.86063 0.0
C708 C 0.68204 0.14268 0.94034 0.0
C709 C 0.66507 0.14193 0.97882 0.0
C710 C 0.64693 0.13771 0.94053 0.0
C711 C 0.6306 0.13669 0.99655 0.0
C712 C 0.62491 0.15364 0.97809 0.0
C713 C 0.61102 0.11469 0.99668 0.0
C714 C 0.64249 0.14114 0.07214 0.0
C715 C 0.66235 0.14414 0.0604 0.0
C716 C 0.67607 0.14786 0.1214 0.0
C717 C 0.66927 0.14833 0.19657 0.0
C718 C 0.64887 0.145 0.21049 0.0
C719 C 0.63543 0.14155 0.14697 0.0
H720 H 0.47446 0.61799 0.98127 0.0
H721 H 0.45526 0.61045 0.74148 0.0
H722 H 0.41961 0.5825 0.77881 0.0
H723 H 0.44789 0.56589 0.03627 0.0
H724 H 0.44045 0.57046 0.13023 0.0
H725 H 0.46357 0.59072 0.08391 0.0
H726 H 0.44858 0.61676 0.09347 0.0
H727 H 0.42665 0.59612 0.14475 0.0
H728 H 0.42238 0.60778 0.06036 0.0
H729 H 0.38692 0.5531 0.84275 0.0
H730 H 0.36043 0.52532 0.92691 0.0
H731 H 0.4013 0.55365 0.1243 0.0
C732 C 0.46271 0.61052 0.93665 0.0
C733 C 0.46759 0.61613 0.85847 0.0
C734 C 0.45178 0.60629 0.80176 0.0
C735 C 0.43151 0.59047 0.82245 0.0
C736 C 0.42726 0.58511 0.90022 0.0
C737 C 0.44238 0.59509 0.95644 0.0
C738 C 0.4341 0.58625 0.03563 0.0
C739 C 0.44728 0.57783 0.07371 0.0
C740 C 0.43286 0.60268 0.08666 0.0
C741 C 0.41242 0.56879 0.01483 0.0
C742 C 0.40852 0.5686 0.93677 0.0
C743 C 0.38973 0.55329 0.90411 0.0
C744 C 0.37477 0.5376 0.95239 0.0
C745 C 0.37879 0.53732 0.03222 0.0
C746 C 0.39769 0.55343 0.06362 0.0
H747 H 0.84762 0.41933 0.30348 0.0
H748 H 0.80426 0.35751 0.21301 0.0
H749 H 0.79794 0.37379 0.09901 0.0
H750 H 0.82069 0.44657 0.2352 0.0
H751 H 0.84517 0.46992 0.21292 0.0
H752 H 0.84395 0.45295 0.28984 0.0
H753 H 0.87422 0.4503 0.2235 0.0
H754 H 0.87477 0.46672 0.14566 0.0
H755 H 0.87103 0.44107 0.12533 0.0
H756 H 0.79783 0.3974 0.99119 0.0
H757 H 0.8037 0.42606 0.90156 0.0
H758 H 0.84831 0.47141 0.06337 0.0
C759 C 0.83637 0.40917 0.26083 0.0
C760 C 0.82624 0.38717 0.26758 0.0
C761 C 0.81206 0.37445 0.20926 0.0
C762 C 0.8084 0.38354 0.14427 0.0
C763 C 0.8191 0.40534 0.13853 0.0
C764 C 0.83275 0.41795 0.19549 0.0
C765 C 0.84338 0.44085 0.17375 0.0
C766 C 0.83795 0.45329 0.23138 0.0
C767 C 0.86726 0.45028 0.16663 0.0
C768 C 0.83347 0.43922 0.09598 0.0
C769 C 0.81948 0.41869 0.07633 0.0
C770 C 0.80868 0.41355 0.0063 0.0
C771 C 0.81216 0.42991 0.95568 0.0
C772 C 0.82641 0.45107 0.97534 0.0
C773 C 0.83721 0.45556 0.04627 0.0
H774 H 0.38945 0.8573 0.0466 0.0
H775 H 0.37306 0.7962 0.95406 0.0
H776 H 0.39211 0.79112 0.06173 0.0
H777 H 0.44129 0.87119 0.12802 0.0
H778 H 0.43697 0.88341 0.21054 0.0
H779 H 0.42545 0.88339 0.11885 0.0
H780 H 0.38885 0.86617 0.18423 0.0
H781 H 0.40054 0.8658 0.2746 0.0
H782 H 0.37945 0.84178 0.2357 0.0
H783 H 0.41055 0.79175 0.18733 0.0
H784 H 0.4274 0.7985 0.31602 0.0
H785 H 0.42834 0.85775 0.32818 0.0
C786 C 0.39026 0.84304 0.04738 0.0
C787 C 0.3797 0.82714 0.99174 0.0
C788 C 0.38109 0.80867 0.9958 0.0
C789 C 0.39182 0.80561 0.05692 0.0
C790 C 0.40108 0.8212 0.11311 0.0
C791 C 0.40055 0.83964 0.10817 0.0
C792 C 0.40988 0.85316 0.17884 0.0
C793 C 0.42957 0.87401 0.15777 0.0
C794 C 0.39365 0.85691 0.22071 0.0
C795 C 0.41533 0.83929 0.22566 0.0
C796 C 0.4105 0.82106 0.18645 0.0
C797 C 0.41434 0.80596 0.21846 0.0
C798 C 0.42372 0.80982 0.29172 0.0
C799 C 0.42871 0.82841 0.33261 0.0
C800 C 0.4242 0.84314 0.29923 0.0
H801 H 0.57486 0.42332 0.21568 0.0
H802 H 0.5246 0.3811 0.36764 0.0
H803 H 0.54432 0.40192 0.47981 0.0
H804 H 0.61753 0.4329 0.35415 0.0
H805 H 0.63363 0.46008 0.32843 0.0
H806 H 0.61684 0.44131 0.25708 0.0
H807 H 0.59898 0.46294 0.2295 0.0
H808 H 0.61537 0.48225 0.29967 0.0
H809 H 0.58727 0.4697 0.30765 0.0
H810 H 0.56663 0.42972 0.57271 0.0
H811 H 0.59276 0.46108 0.64373 0.0
H812 H 0.63006 0.48464 0.43536 0.0
C813 C 0.56829 0.41827 0.27284 0.0
C814 C 0.54836 0.4003 0.28318 0.0
C815 C 0.5401 0.3943 0.35857 0.0
C816 C 0.55109 0.4062 0.42272 0.0
C817 C 0.57052 0.42397 0.41072 0.0
C818 C 0.57932 0.42982 0.33802 0.0
C819 C 0.60034 0.44991 0.34169 0.0
C820 C 0.61814 0.44581 0.31891 0.0
C821 C 0.60048 0.46721 0.29162 0.0
C822 C 0.60132 0.45497 0.42688 0.0
C823 C 0.58396 0.43973 0.46558 0.0
C824 C 0.58053 0.44158 0.54351 0.0
C825 C 0.59533 0.45947 0.58316 0.0
C826 C 0.61341 0.47508 0.54498 0.0
C827 C 0.61651 0.47271 0.46605 0.0
H828 H 0.14753 0.55452 0.41063 0.0
H829 H 0.16171 0.51208 0.5357 0.0
H830 H 0.16654 0.53222 0.655 0.0
H831 H 0.18536 0.60234 0.51979 0.0
H832 H 0.16815 0.61306 0.5175 0.0
H833 H 0.16802 0.59684 0.43894 0.0
H834 H 0.12789 0.57179 0.45731 0.0
H835 H 0.12795 0.58824 0.5342 0.0
H836 H 0.1181 0.56074 0.55127 0.0
H837 H 0.16485 0.55406 0.76424 0.0
H838 H 0.15989 0.57786 0.85147 0.0
H839 H 0.14885 0.607 0.6534 0.0
C840 C 0.15214 0.54972 0.46258 0.0
C841 C 0.15389 0.53151 0.46388 0.0
C842 C 0.15993 0.52579 0.53334 0.0
C843 C 0.1628 0.53717 0.60152 0.0
C844 C 0.16004 0.55452 0.59894 0.0
C845 C 0.15529 0.56103 0.53093 0.0
C846 C 0.15238 0.57969 0.5442 0.0
C847 C 0.1695 0.59913 0.50248 0.0
C848 C 0.13027 0.57482 0.52033 0.0
C849 C 0.15528 0.58209 0.6306 0.0
C850 C 0.15984 0.56753 0.66129 0.0
C851 C 0.16169 0.5658 0.74065 0.0
C852 C 0.15878 0.57931 0.7897 0.0
C853 C 0.15424 0.59441 0.75905 0.0
C854 C 0.15274 0.59592 0.67843 0.0
H855 H 0.57182 0.10618 0.65045 0.0
H856 H 0.61793 0.17201 0.6243 0.0
H857 H 0.60278 0.1805 0.73727 0.0
H858 H 0.52828 0.11158 0.7151 0.0
H859 H 0.51953 0.09061 0.7844 0.0
H860 H 0.53317 0.09024 0.6987 0.0
H861 H 0.5605 0.08716 0.78338 0.0
H862 H 0.54709 0.08776 0.86946 0.0
H863 H 0.57449 0.1066 0.85662 0.0
H864 H 0.58109 0.18157 0.84932 0.0
H865 H 0.55682 0.17489 0.95887 0.0
H866 H 0.52812 0.108 0.92007 0.0
C867 C 0.57842 0.12241 0.66778 0.0
C868 C 0.59561 0.13858 0.62802 0.0
C869 C 0.60449 0.15954 0.65372 0.0
C870 C 0.59604 0.16445 0.71769 0.0
C871 C 0.57911 0.1481 0.75617 0.0
C872 C 0.57061 0.12748 0.73273 0.0
C873 C 0.55336 0.11267 0.7866 0.0
C874 C 0.53234 0.10057 0.74362 0.0
C875 C 0.55921 0.09766 0.82636 0.0
C876 C 0.5532 0.12818 0.84337 0.0
C877 C 0.56797 0.14857 0.82438 0.0
C878 C 0.56974 0.16566 0.86557 0.0
C879 C 0.55597 0.16176 0.92752 0.0
C880 C 0.54109 0.14096 0.94855 0.0
C881 C 0.53984 0.12401 0.90637 0.0
H882 H 0.24583 0.43735 0.11743 0.0
H883 H 0.29025 0.50425 0.11836 0.0
H884 H 0.26307 0.51082 0.17218 0.0
H885 H 0.19958 0.44172 0.0658 0.0
H886 H 0.18243 0.41986 0.12621 0.0
H887 H 0.20503 0.42076 0.08233 0.0
H888 H 0.2176 0.4166 0.21737 0.0
H889 H 0.19529 0.41613 0.26185 0.0
H890 H 0.22141 0.43514 0.29242 0.0
H891 H 0.23225 0.50975 0.23889 0.0
H892 H 0.19829 0.50149 0.29682 0.0
H893 H 0.17371 0.43548 0.2474 0.0
C894 C 0.24971 0.45341 0.12742 0.0
C895 C 0.27013 0.47028 0.11375 0.0
C896 C 0.27466 0.49108 0.12787 0.0
C897 C 0.25936 0.49497 0.15891 0.0
C898 C 0.23959 0.47792 0.17432 0.0
C899 C 0.23459 0.45759 0.15752 0.0
C900 C 0.21227 0.44203 0.18056 0.0
C901 C 0.19905 0.43041 0.10948 0.0
C902 C 0.21162 0.42657 0.24168 0.0
C903 C 0.20564 0.45675 0.21428 0.0
C904 C 0.22166 0.47737 0.21069 0.0
C905 C 0.21949 0.49369 0.24115 0.0
C906 C 0.20024 0.48883 0.27453 0.0
C907 C 0.18343 0.46786 0.27637 0.0
C908 C 0.18628 0.45166 0.24634 0.0
H909 H 0.79993 0.26341 0.44112 0.0
H910 H 0.7732 0.30362 0.40833 0.0
H911 H 0.73792 0.27364 0.43629 0.0
H912 H 0.75827 0.21817 0.34986 0.0
H913 H 0.75974 0.19992 0.41515 0.0
H914 H 0.7828 0.22476 0.39536 0.0
H915 H 0.78753 0.23301 0.54185 0.0
H916 H 0.76437 0.20825 0.56206 0.0
H917 H 0.76631 0.23226 0.59629 0.0
H918 H 0.70563 0.2392 0.4695 0.0
H919 H 0.67846 0.20235 0.49411 0.0
H920 H 0.72657 0.18482 0.50013 0.0
C921 C 0.78667 0.26594 0.44009 0.0
C922 C 0.78926 0.28581 0.42296 0.0
C923 C 0.77151 0.28847 0.4212 0.0
C924 C 0.75146 0.27158 0.43738 0.0
C925 C 0.74947 0.25219 0.45452 0.0
C926 C 0.76658 0.24925 0.45516 0.0
C927 C 0.76018 0.2267 0.47216 0.0
C928 C 0.76556 0.21681 0.40407 0.0
C929 C 0.77019 0.22496 0.54758 0.0
C930 C 0.73677 0.21735 0.48083 0.0
C931 C 0.7309 0.23232 0.47137 0.0
C932 C 0.71003 0.22734 0.4769 0.0
C933 C 0.69474 0.2064 0.4912 0.0
C934 C 0.70043 0.19076 0.49884 0.0
C935 C 0.72174 0.19643 0.49431 0.0
H936 H 0.52467 0.80617 0.54994 0.0
H937 H 0.45767 0.77227 0.50678 0.0
H938 H 0.45528 0.74033 0.56425 0.0
H939 H 0.53396 0.76393 0.50674 0.0
H940 H 0.55351 0.77137 0.58109 0.0
H941 H 0.54947 0.79101 0.53559 0.0
H942 H 0.54318 0.80244 0.66998 0.0
H943 H 0.54688 0.7826 0.7158 0.0
H944 H 0.52307 0.78329 0.73207 0.0
H945 H 0.4607 0.71217 0.62908 0.0
H946 H 0.47375 0.69 0.68602 0.0
H947 H 0.53692 0.7435 0.68641 0.0
C948 C 0.50947 0.79203 0.55202 0.0
C949 C 0.49136 0.79167 0.52386 0.0
C950 C 0.47178 0.77282 0.52769 0.0
C951 C 0.47026 0.75467 0.56062 0.0
C952 C 0.48846 0.75573 0.58921 0.0
C953 C 0.50769 0.77393 0.58451 0.0
C954 C 0.525 0.77118 0.61846 0.0
C955 C 0.54145 0.77456 0.55679 0.0
C956 C 0.53512 0.78574 0.68822 0.0
C957 C 0.51258 0.74852 0.64295 0.0
C958 C 0.49151 0.73981 0.62615 0.0
C959 C 0.47716 0.71886 0.64257 0.0
C960 C 0.48468 0.70643 0.67528 0.0
C961 C 0.50634 0.71506 0.6907 0.0
C962 C 0.52028 0.73644 0.67548 0.0
H963 H 0.80549 0.52009 0.79097 0.0
H964 H 0.76323 0.46713 0.93329 0.0
H965 H 0.73305 0.46402 0.85926 0.0
H966 H 0.77499 0.5436 0.7858 0.0
H967 H 0.78177 0.55296 0.68805 0.0
H968 H 0.79974 0.54894 0.74543 0.0
H969 H 0.80032 0.52418 0.64011 0.0
H970 H 0.78213 0.528 0.58262 0.0
H971 H 0.77603 0.50188 0.60901 0.0
H972 H 0.70754 0.46842 0.775 0.0
H973 H 0.68878 0.48246 0.70006 0.0
H974 H 0.74817 0.53322 0.61736 0.0
C975 C 0.78993 0.50759 0.80598 0.0
C976 C 0.78668 0.49375 0.86755 0.0
C977 C 0.76604 0.47789 0.88623 0.0
C978 C 0.74886 0.4759 0.84407 0.0
C979 C 0.75267 0.48987 0.7836 0.0
C980 C 0.77273 0.50551 0.76514 0.0
C981 C 0.77266 0.5199 0.70322 0.0
C982 C 0.78288 0.54268 0.73242 0.0
C983 C 0.78342 0.51839 0.62937 0.0
C984 C 0.74934 0.51043 0.69153 0.0
C985 C 0.73805 0.49277 0.73675 0.0
C986 C 0.71621 0.48206 0.73868 0.0
C987 C 0.70569 0.49007 0.69557 0.0
C988 C 0.7171 0.50883 0.65268 0.0
C989 C 0.73912 0.51873 0.64903 0.0
H990 H 0.28778 0.78653 0.93628 0.0
H991 H 0.29288 0.80091 0.69226 0.0
H992 H 0.26364 0.765 0.66537 0.0
H993 H 0.26925 0.72924 0.92291 0.0
H994 H 0.25107 0.7233 1.00142 0.0
H995 H 0.27526 0.74807 0.99918 0.0
H996 H 0.25437 0.76766 0.00968 0.0
H997 H 0.23018 0.74305 0.01159 0.0
H998 H 0.23421 0.76242 0.93978 0.0
H999 H 0.232 0.72863 0.66705 0.0
H1000 H 0.19804 0.6969 0.69783 0.0
H1001 H 0.21141 0.70871 0.94195 0.0
C1002 C 0.28315 0.78182 0.87703 0.0
C1003 C 0.29268 0.79611 0.81598 0.0
C1004 C 0.28581 0.7899 0.7394 0.0
C1005 C 0.26934 0.76957 0.72372 0.0
C1006 C 0.25979 0.75592 0.78559 0.0
C1007 C 0.26632 0.7619 0.86086 0.0
C1008 C 0.25146 0.74578 0.91799 0.0
C1009 C 0.26242 0.73602 0.96301 0.0
C1010 C 0.242 0.7553 0.97293 0.0
C1011 C 0.23519 0.73009 0.86336 0.0
C1012 C 0.24061 0.73581 0.78715 0.0
C1013 C 0.22766 0.72393 0.72646 0.0
C1014 C 0.20848 0.70599 0.74433 0.0
C1015 C 0.2023 0.70062 0.82206 0.0
C1016 C 0.21591 0.71262 0.88207 0.0
H1017 H 0.46231 0.27011 0.12206 0.0
H1018 H 0.52856 0.31393 0.15621 0.0
H1019 H 0.53622 0.28517 0.135 0.0
H1020 H 0.46103 0.22701 0.22028 0.0
H1021 H 0.44222 0.20771 0.15499 0.0
H1022 H 0.4424 0.23194 0.17096 0.0
H1023 H 0.44639 0.23926 0.02373 0.0
H1024 H 0.44638 0.21512 0.00736 0.0
H1025 H 0.46784 0.23953 0.97266 0.0
H1026 H 0.53629 0.25109 0.10829 0.0
H1027 H 0.52843 0.2145 0.08822 0.0
H1028 H 0.46211 0.19392 0.07514 0.0
C1029 C 0.47845 0.27373 0.12503 0.0
C1030 C 0.49485 0.29424 0.14058 0.0
C1031 C 0.51575 0.29827 0.14453 0.0
C1032 C 0.52025 0.28208 0.13221 0.0
C1033 C 0.50366 0.26201 0.11641 0.0
C1034 C 0.48317 0.25782 0.11344 0.0
C1035 C 0.46803 0.23493 0.0977 0.0
C1036 C 0.45252 0.22481 0.165 0.0
C1037 C 0.45649 0.23205 0.02079 0.0
C1038 C 0.48314 0.22678 0.09274 0.0
C1039 C 0.50366 0.24259 0.1028 0.0
C1040 C 0.52027 0.2386 0.10045 0.0
C1041 C 0.51569 0.21783 0.08875 0.0
C1042 C 0.49468 0.20144 0.08049 0.0
C1043 C 0.47833 0.20612 0.08174 0.0
H1044 H 0.37532 0.42043 0.14221 0.0
H1045 H 0.42182 0.48614 0.17023 0.0
H1046 H 0.44945 0.4767 0.18617 0.0
H1047 H 0.39792 0.39942 0.27849 0.0
H1048 H 0.39156 0.37688 0.21925 0.0
H1049 H 0.37537 0.38879 0.21594 0.0
H1050 H 0.38074 0.3933 0.06786 0.0
H1051 H 0.39705 0.38156 0.07076 0.0
H1052 H 0.40697 0.40725 0.02926 0.0
H1053 H 0.47199 0.46011 0.19568 0.0
H1054 H 0.48808 0.4376 0.19368 0.0
H1055 H 0.42686 0.38295 0.15525 0.0
C1056 C 0.39126 0.43276 0.15313 0.0
C1057 C 0.39652 0.45397 0.15577 0.0
C1058 C 0.41759 0.46979 0.16817 0.0
C1059 C 0.43332 0.46458 0.17749 0.0
C1060 C 0.42767 0.44351 0.17368 0.0
C1061 C 0.40717 0.42785 0.16162 0.0
C1062 C 0.40542 0.40655 0.15576 0.0
C1063 C 0.39176 0.39206 0.22128 0.0
C1064 C 0.39705 0.39659 0.07617 0.0
C1065 C 0.42816 0.41268 0.16573 0.0
C1066 C 0.44073 0.43403 0.1768 0.0
C1067 C 0.46231 0.44336 0.18722 0.0
C1068 C 0.47129 0.4305 0.18614 0.0
C1069 C 0.4587 0.40863 0.17387 0.0
C1070 C 0.43687 0.39967 0.16376 0.0
H1071 H 0.94339 0.40879 0.45049 0.0
H1072 H 0.93168 0.40536 0.20397 0.0
H1073 H 0.96971 0.42479 0.17945 0.0
H1074 H 0.99153 0.46143 0.4498 0.0
H1075 H 0.004 0.45402 0.52277 0.0
H1076 H 0.97587 0.44225 0.52174 0.0
H1077 H 0.972 0.40532 0.51713 0.0
H1078 H 6e-05 0.41694 0.51787 0.0
H1079 H 0.98489 0.39919 0.44146 0.0
H1080 H 0.0083 0.4401 0.18023 0.0
H1081 H 0.04551 0.45184 0.20717 0.0
H1082 H 0.03273 0.44625 0.45275 0.0
C1083 C 0.94886 0.41243 0.39145 0.0
C1084 C 0.93458 0.40572 0.32919 0.0
C1085 C 0.94231 0.4107 0.25267 0.0
C1086 C 0.96389 0.42166 0.23811 0.0
C1087 C 0.97753 0.4277 0.30066 0.0
C1088 C 0.97037 0.42346 0.37589 0.0
C1089 C 0.98835 0.43048 0.43232 0.0
C1090 C 0.99003 0.4481 0.48475 0.0
C1091 C 0.98619 0.41187 0.47996 0.0
C1092 C 0.00665 0.43859 0.37683 0.0
C1093 C 4e-05 0.43698 0.30117 0.0
C1094 C 0.01375 0.44185 0.23919 0.0
C1095 C 0.03476 0.4484 0.2549 0.0
C1096 C 0.0418 0.45009 0.33183 0.0
C1097 C 0.02768 0.44545 0.39356 0.0
H1098 H 0.57526 0.02951 0.57973 0.0
H1099 H 0.58177 0.04747 0.33812 0.0
H1100 H 0.55672 0.01096 0.30266 0.0
H1101 H 0.57225 0.98129 0.55495 0.0
H1102 H 0.55261 0.96759 0.62796 0.0
H1103 H 0.56991 0.99546 0.63565 0.0
H1104 H 0.53797 0.0011 0.64347 0.0
H1105 H 0.52053 0.97319 0.63624 0.0
H1106 H 0.51834 0.9906 0.56874 0.0
H1107 H 0.53443 0.97224 0.29179 0.0
H1108 H 0.51498 0.93399 0.30658 0.0
H1109 H 0.51939 0.94137 0.55617 0.0
C1110 C 0.57109 0.02591 0.51954 0.0
C1111 C 0.58076 0.0414 0.46172 0.0
C1112 C 0.57501 0.03584 0.38345 0.0
C1113 C 0.5606 0.01517 0.36267 0.0
C1114 C 0.55171 0.00026 0.42086 0.0
C1115 C 0.55648 0.00537 0.49777 0.0
C1116 C 0.54523 0.98613 0.54855 0.0
C1117 C 0.56094 0.98241 0.59445 0.0
C1118 C 0.52958 0.98786 0.60243 0.0
C1119 C 0.53401 0.96937 0.48782 0.0
C1120 C 0.53791 0.97787 0.41464 0.0
C1121 C 0.53077 0.96538 0.3489 0.0
C1122 C 0.51953 0.94357 0.3581 0.0
C1123 C 0.5153 0.93437 0.43268 0.0
C1124 C 0.52235 0.94766 0.4982 0.0
H1125 H 0.60367 0.56054 0.61632 0.0
H1126 H 0.66565 0.61115 0.67845 0.0
H1127 H 0.65105 0.63424 0.70284 0.0
H1128 H 0.58735 0.59381 0.51677 0.0
H1129 H 0.56062 0.57865 0.54971 0.0
H1130 H 0.57605 0.56617 0.53565 0.0
H1131 H 0.56851 0.55277 0.67678 0.0
H1132 H 0.55325 0.56539 0.69155 0.0
H1133 H 0.57498 0.5713 0.75447 0.0
H1134 H 0.62966 0.65113 0.72782 0.0
H1135 H 0.60314 0.6618 0.74316 0.0
H1136 H 0.55534 0.60115 0.6559 0.0
C1137 C 0.61424 0.57657 0.63383 0.0
C1138 C 0.63578 0.58394 0.64634 0.0
C1139 C 0.64902 0.60498 0.67012 0.0
C1140 C 0.64091 0.61828 0.68364 0.0
C1141 C 0.61957 0.61039 0.67229 0.0
C1142 C 0.60644 0.59014 0.64702 0.0
C1143 C 0.58407 0.58561 0.63964 0.0
C1144 C 0.57659 0.58078 0.55543 0.0
C1145 C 0.56934 0.56771 0.69385 0.0
C1146 C 0.58669 0.60642 0.66562 0.0
C1147 C 0.60729 0.62044 0.68436 0.0
C1148 C 0.61352 0.64043 0.71215 0.0
C1149 C 0.59833 0.64637 0.72022 0.0
C1150 C 0.57713 0.63245 0.69985 0.0
C1151 C 0.57132 0.61216 0.67247 0.0
H1152 H 0.04444 0.6123 0.88112 0.0
H1153 H 0.05213 0.5582 0.91608 0.0
H1154 H 0.01409 0.53627 0.94083 0.0
H1155 H 0.00516 0.59947 0.03028 0.0
H1156 H 0.99102 0.60903 0.97467 0.0
H1157 H 0.01889 0.62043 0.96184 0.0
H1158 H 0.01335 0.61238 0.81534 0.0
H1159 H 0.98549 0.60093 0.82771 0.0
H1160 H -0.0041 0.58589 0.78368 0.0
H1161 H 0.97501 0.52016 0.9578 0.0
H1162 H 0.93788 0.51091 0.96269 0.0
H1163 H 0.9564 0.57608 0.9219 0.0
C1164 C 0.03824 0.59592 0.89525 0.0
C1165 C 0.05129 0.58698 0.89707 0.0
C1166 C 0.0424 0.56534 0.91381 0.0
C1167 C 0.02085 0.55281 0.92846 0.0
C1168 C 0.00847 0.56218 0.92632 0.0
C1169 C 0.01686 0.58324 0.91018 0.0
C1170 C 0.00013 0.58941 0.90921 0.0
C1171 C 0.00404 0.60554 0.9728 0.0
C1172 C -0.00136 0.59763 0.82923 0.0
C1173 C 0.98095 0.56846 0.9265 0.0
C1174 C 0.98607 0.55296 0.93655 0.0
C1175 C 0.97084 0.53221 0.95079 0.0
C1176 C 0.9498 0.52714 0.95398 0.0
C1177 C 0.94419 0.54277 0.94293 0.0
C1178 C 0.96011 0.56372 0.92996 0.0
H1179 H 0.4595 0.04047 0.00607 0.0
H1180 H 0.41702 0.04919 0.15569 0.0
H1181 H 0.39458 0.0111 0.16642 0.0
H1182 H 0.41843 -0.00148 0.89927 0.0
H1183 H 0.4325 0.9846 0.88593 0.0
H1184 H 0.44668 0.01267 0.89662 0.0
H1185 H 0.46737 0.00926 0.01113 0.0
H1186 H 0.45308 0.98112 1.00125 0.0
H1187 H 0.45329 0.99301 0.09243 0.0
H1188 H 0.37644 0.97221 0.16117 0.0
H1189 H 0.36143 0.93498 0.12742 0.0
H1190 H 0.41301 0.95143 0.96822 0.0
C1191 C 0.44548 0.03449 0.04099 0.0
C1192 C 0.44051 0.04813 0.08159 0.0
C1193 C 0.42186 0.03934 0.1264 0.0
C1194 C 0.40881 0.01762 0.13249 0.0
C1195 C 0.41431 0.00475 0.09233 0.0
C1196 C 0.43197 0.01281 0.04638 0.0
C1197 C 0.4333 0.99548 1.00426 0.0
C1198 C 0.43268 -0.00203 0.91632 0.0
C1199 C 0.45293 0.99468 0.02876 0.0
C1200 C 0.41349 0.97649 0.03333 0.0
C1201 C 0.40302 0.98221 0.08518 0.0
C1202 C 0.38437 0.96752 0.12002 0.0
C1203 C 0.37589 0.9464 0.09992 0.0
C1204 C 0.38581 0.94018 0.04418 0.0
C1205 C 0.40508 0.95551 0.01157 0.0
loop_
_geom_bond_atom_site_label_1
_geom_bond_atom_site_label_2
_geom_bond_distance
_geom_bond_site_symmetry_2
_ccdc_geom_bond_type
C0 C1 1.351 . S
C0 N3 1.368 . S
C0 H5 0.931 . S
C1 C0 1.351 . S
C1 N2 1.373 . S
C1 H29 0.930 . S
N2 C1 1.373 . S
N2 C4 1.340 . S
N3 C0 1.368 . S
N3 C4 1.321 . S
N3 Co6 2.135 1_556 S
C4 N2 1.340 . S
C4 N3 1.321 . S
C4 H28 0.930 . S
H5 C0 0.931 . S
Co6 N3 2.135 1_554 S
Co6 N9 2.121 . S
Co6 O14 2.055 . S
Co6 O17 2.039 . S
Co6 N20 2.140 . S
C7 O8 1.227 . S
C7 O17 1.265 . S
O8 C7 1.227 . S
N9 Co6 2.121 . S
N9 C11 1.375 . S
N9 C12 1.313 . S
C10 C11 1.338 . S
C10 N13 1.377 . S
C10 H30 0.930 . S
C11 N9 1.375 . S
C11 C10 1.338 . S
C11 H15 0.931 . S
C12 N9 1.313 . S
C12 N13 1.344 . S
C12 H16 0.930 . S
N13 C10 1.377 . S
N13 C12 1.344 . S
O14 Co6 2.055 . S
O14 C18 1.253 . S
H15 C11 0.931 . S
H16 C12 0.930 . S
O17 Co6 2.039 . S
O17 C7 1.265 . S
C18 O14 1.253 . S
C18 O19 1.227 . S
O19 C18 1.227 . S
N20 Co6 2.140 . S
N20 C23 1.346 . S
N20 C24 1.345 . S
C21 C22 1.387 . S
C21 C25 1.391 . S
C22 C21 1.387 . S
C22 C23 1.369 . S
C22 H31 0.941 . S
C23 N20 1.346 . S
C23 C22 1.369 . S
C23 H26 0.928 1_554 S
C24 N20 1.345 . S
C24 C25 1.371 . S
C24 H27 0.931 . S
C25 C21 1.391 . S
C25 C24 1.371 . S
C25 H32 0.930 . S
H26 C23 0.928 1_556 S
H27 C24 0.931 . S
H28 C4 0.930 . S
H29 C1 0.930 . S
H30 C10 0.930 . S
H31 C22 0.941 . S
H32 C25 0.930 . S
C33 C34 1.351 . S
C33 N36 1.368 . S
C33 H38 0.931 . S
C34 C33 1.351 . S
C34 N35 1.373 . S
C34 H62 0.930 . S
N35 C34 1.373 . S
N35 C37 1.340 . S
N36 C33 1.368 . S
N36 C37 1.321 . S
N36 Co39 2.135 . S
C37 N35 1.340 . S
C37 N36 1.321 . S
C37 H61 0.930 . S
H38 C33 0.931 . S
Co39 N36 2.135 . S
Co39 N42 2.121 . S
Co39 O47 2.055 . S
Co39 O50 2.039 . S
Co39 N53 2.140 . S
C40 O41 1.227 . S
C40 O50 1.265 . S
O41 C40 1.227 . S
N42 Co39 2.121 . S
N42 C44 1.375 . S
N42 C45 1.313 . S
C43 C44 1.338 . S
C43 N46 1.377 . S
C43 H63 0.930 . S
C44 N42 1.375 . S
C44 C43 1.338 . S
C44 H48 0.931 . S
C45 N42 1.313 . S
C45 N46 1.344 . S
C45 H49 0.930 . S
N46 C43 1.377 . S
N46 C45 1.344 . S
O47 Co39 2.055 . S
O47 C51 1.253 . S
H48 C44 0.931 . S
H49 C45 0.930 . S
O50 Co39 2.039 . S
O50 C40 1.265 . S
C51 O47 1.253 . S
C51 O52 1.227 . S
O52 C51 1.227 . S
N53 Co39 2.140 . S
N53 C56 1.346 . S
N53 C57 1.345 . S
C54 C55 1.387 . S
C54 C58 1.391 . S
C55 C54 1.387 . S
C55 C56 1.369 . S
C55 H64 0.929 . S
C56 N53 1.346 . S
C56 C55 1.369 . S
C56 H59 0.928 . S
C57 N53 1.345 . S
C57 C58 1.371 . S
C57 H60 0.931 . S
C58 C54 1.391 . S
C58 C57 1.371 . S
C58 H65 0.930 . S
H59 C56 0.928 . S
H60 C57 0.931 . S
H61 C37 0.930 . S
H62 C34 0.930 . S
H63 C43 0.930 . S
H64 C55 0.929 . S
H65 C58 0.930 . S
C66 C67 1.351 . S
C66 N69 1.368 . S
C66 H71 0.931 . S
C67 C66 1.351 . S
C67 N68 1.373 . S
C67 H95 0.930 . S
N68 C67 1.373 . S
N68 C70 1.340 . S
N69 C66 1.368 . S
N69 C70 1.321 . S
N69 Co72 2.135 . S
C70 N68 1.340 . S
C70 N69 1.321 . S
C70 H94 0.930 . S
H71 C66 0.931 . S
Co72 N69 2.135 . S
Co72 N75 2.121 . S
Co72 O80 2.055 . S
Co72 O83 2.039 . S
Co72 N86 2.140 . S
C73 O74 1.227 . S
C73 O83 1.265 . S
O74 C73 1.227 . S
N75 Co72 2.121 . S
N75 C77 1.375 . S
N75 C78 1.313 . S
C76 C77 1.338 . S
C76 N79 1.377 . S
C76 H96 0.930 . S
C77 N75 1.375 . S
C77 C76 1.338 . S
C77 H81 0.931 . S
C78 N75 1.313 . S
C78 N79 1.344 . S
C78 H82 0.930 . S
N79 C76 1.377 . S
N79 C78 1.344 . S
O80 Co72 2.055 . S
O80 C84 1.253 . S
H81 C77 0.931 . S
H82 C78 0.930 . S
O83 Co72 2.039 . S
O83 C73 1.265 . S
C84 O80 1.253 . S
C84 O85 1.227 . S
O85 C84 1.227 . S
N86 Co72 2.140 . S
N86 C89 1.346 . S
N86 C90 1.345 . S
C87 C88 1.387 . S
C87 C91 1.391 . S
C88 C87 1.387 . S
C88 C89 1.369 . S
C88 H97 0.929 . S
C89 N86 1.346 . S
C89 C88 1.369 . S
C89 H92 0.928 . S
C90 N86 1.345 . S
C90 C91 1.371 . S
C90 H93 0.931 . S
C91 C87 1.391 . S
C91 C90 1.371 . S
C91 H98 0.930 . S
H92 C89 0.928 . S
H93 C90 0.931 . S
H94 C70 0.930 . S
H95 C67 0.930 . S
H96 C76 0.930 . S
H97 C88 0.929 . S
H98 C91 0.930 . S
C99 C100 1.351 . S
C99 N102 1.368 . S
C99 H104 0.931 . S
C100 C99 1.351 . S
C100 N101 1.373 . S
C100 H128 0.930 . S
N101 C100 1.373 . S
N101 C103 1.340 . S
N102 C99 1.368 . S
N102 C103 1.321 . S
N102 Co105 2.135 . S
C103 N101 1.340 . S
C103 N102 1.321 . S
C103 H127 0.930 . S
H104 C99 0.931 . S
Co105 N102 2.135 . S
Co105 N108 2.121 . S
Co105 O113 2.055 . S
Co105 O116 2.039 . S
Co105 N119 2.140 . S
C106 O107 1.227 . S
C106 O116 1.265 . S
O107 C106 1.227 . S
N108 Co105 2.121 . S
N108 C110 1.375 . S
N108 C111 1.313 . S
C109 C110 1.338 . S
C109 N112 1.377 . S
C109 H129 0.930 . S
C110 N108 1.375 . S
C110 C109 1.338 . S
C110 H114 0.931 . S
C111 N108 1.313 . S
C111 N112 1.344 . S
C111 H115 0.930 . S
N112 C109 1.377 . S
N112 C111 1.344 . S
O113 Co105 2.055 . S
O113 C117 1.253 . S
H114 C110 0.931 . S
H115 C111 0.930 . S
O116 Co105 2.039 . S
O116 C106 1.265 . S
C117 O113 1.253 . S
C117 O118 1.227 . S
O118 C117 1.227 . S
N119 Co105 2.140 . S
N119 C122 1.346 . S
N119 C123 1.345 . S
C120 C121 1.387 . S
C120 C124 1.391 . S
C121 C120 1.387 . S
C121 C122 1.369 . S
C121 H130 0.929 . S
C122 N119 1.346 . S
C122 C121 1.369 . S
C122 H125 0.928 . S
C123 N119 1.345 . S
C123 C124 1.371 . S
C123 H126 0.931 . S
C124 C120 1.391 . S
C124 C123 1.371 . S
C124 H131 0.930 . S
H125 C122 0.928 . S
H126 C123 0.931 . S
H127 C103 0.930 . S
H128 C100 0.930 . S
H129 C109 0.930 . S
H130 C121 0.929 . S
H131 C124 0.930 . S
C132 C133 1.351 . S
C132 N135 1.368 . S
C132 H137 0.931 . S
C133 C132 1.351 . S
C133 N134 1.373 . S
C133 H161 0.930 . S
N134 C133 1.373 . S
N134 C136 1.340 . S
N135 C132 1.368 . S
N135 C136 1.321 . S
N135 Co138 2.135 . S
C136 N134 1.340 . S
C136 N135 1.321 . S
C136 H160 0.930 . S
H137 C132 0.931 . S
Co138 N135 2.135 . S
Co138 N141 2.121 . S
Co138 O146 2.055 . S
Co138 O149 2.039 . S
Co138 N152 2.140 . S
C139 O140 1.227 . S
C139 O149 1.265 . S
O140 C139 1.227 . S
N141 Co138 2.121 . S
N141 C143 1.375 . S
N141 C144 1.313 . S
C142 C143 1.338 . S
C142 N145 1.377 . S
C142 H162 0.930 1_556 S
C143 N141 1.375 . S
C143 C142 1.338 . S
C143 H147 0.931 . S
C144 N141 1.313 . S
C144 N145 1.344 . S
C144 H148 0.930 . S
N145 C142 1.377 . S
N145 C144 1.344 . S
O146 Co138 2.055 . S
O146 C150 1.253 . S
H147 C143 0.931 . S
H148 C144 0.930 . S
O149 Co138 2.039 . S
O149 C139 1.265 . S
C150 O146 1.253 . S
C150 O151 1.227 . S
O151 C150 1.227 . S
N152 Co138 2.140 . S
N152 C155 1.346 . S
N152 C156 1.345 . S
C153 C154 1.387 . S
C153 C157 1.391 . S
C154 C153 1.387 . S
C154 C155 1.369 . S
C154 H163 0.929 . S
C155 N152 1.346 . S
C155 C154 1.369 . S
C155 H158 0.928 . S
C156 N152 1.345 . S
C156 C157 1.371 . S
C156 H159 0.931 . S
C157 C153 1.391 . S
C157 C156 1.371 . S
C157 H164 0.930 . S
H158 C155 0.928 . S
H159 C156 0.931 . S
H160 C136 0.930 . S
H161 C133 0.930 . S
H162 C142 0.930 1_554 S
H163 C154 0.929 . S
H164 C157 0.930 . S
C165 C166 1.351 . S
C165 N168 1.368 . S
C165 H170 0.931 . S
C166 C165 1.351 . S
C166 N167 1.373 . S
C166 H194 0.930 . S
N167 C166 1.373 . S
N167 C169 1.340 . S
N168 C165 1.368 . S
N168 C169 1.321 . S
N168 Co171 2.135 . S
C169 N167 1.340 . S
C169 N168 1.321 . S
C169 H193 0.930 . S
H170 C165 0.931 . S
Co171 N168 2.135 . S
Co171 N174 2.121 1_556 S
Co171 O179 2.055 . S
Co171 O182 2.039 . S
Co171 N185 2.140 . S
C172 O173 1.227 . S
C172 O182 1.265 . S
O173 C172 1.227 . S
N174 Co171 2.121 1_554 S
N174 C176 1.375 . S
N174 C177 1.313 . S
C175 C176 1.338 . S
C175 N178 1.377 . S
C175 H195 0.930 . S
C176 N174 1.375 . S
C176 C175 1.338 . S
C176 H180 0.931 . S
C177 N174 1.313 . S
C177 N178 1.344 . S
C177 H181 0.930 . S
N178 C175 1.377 . S
N178 C177 1.344 . S
O179 Co171 2.055 . S
O179 C183 1.253 . S
H180 C176 0.931 . S
H181 C177 0.930 . S
O182 Co171 2.039 . S
O182 C172 1.265 . S
C183 O179 1.253 . S
C183 O184 1.227 . S
O184 C183 1.227 . S
N185 Co171 2.140 . S
N185 C188 1.346 . S
N185 C189 1.345 . S
C186 C187 1.387 . S
C186 C190 1.391 . S
C187 C186 1.387 . S
C187 C188 1.369 . S
C187 H196 0.929 . S
C188 N185 1.346 . S
C188 C187 1.369 . S
C188 H191 0.928 . S
C189 N185 1.345 . S
C189 C190 1.371 . S
C189 H192 0.931 1_556 S
C190 C186 1.391 . S
C190 C189 1.371 . S
C190 H197 0.930 1_556 S
H191 C188 0.928 . S
H192 C189 0.931 1_554 S
H193 C169 0.930 . S
H194 C166 0.930 . S
H195 C175 0.930 . S
H196 C187 0.929 . S
H197 C190 0.930 1_554 S
C198 C199 1.351 . S
C198 N201 1.368 . S
C198 H203 0.931 . S
C199 C198 1.351 . S
C199 N200 1.373 . S
C199 H227 0.930 . S
N200 C199 1.373 . S
N200 C202 1.340 . S
N201 C198 1.368 . S
N201 C202 1.321 . S
N201 Co204 2.135 . S
C202 N200 1.340 . S
C202 N201 1.321 . S
C202 H226 0.930 . S
H203 C198 0.931 . S
Co204 N201 2.135 . S
Co204 N207 2.121 . S
Co204 O212 2.055 . S
Co204 O215 2.039 . S
Co204 N218 2.140 . S
C205 O206 1.227 . S
C205 O215 1.265 . S
O206 C205 1.227 . S
N207 Co204 2.121 . S
N207 C209 1.375 . S
N207 C210 1.313 . S
C208 C209 1.338 . S
C208 N211 1.377 . S
C208 H228 0.930 . S
C209 N207 1.375 . S
C209 C208 1.338 . S
C209 H213 0.931 . S
C210 N207 1.313 . S
C210 N211 1.344 . S
C210 H214 0.930 . S
N211 C208 1.377 . S
N211 C210 1.344 . S
O212 Co204 2.055 . S
O212 C216 1.253 . S
H213 C209 0.931 . S
H214 C210 0.930 . S
O215 Co204 2.039 . S
O215 C205 1.265 . S
C216 O212 1.253 . S
C216 O217 1.227 . S
O217 C216 1.227 . S
N218 Co204 2.140 . S
N218 C221 1.346 . S
N218 C222 1.345 . S
C219 C220 1.387 . S
C219 C223 1.391 . S
C220 C219 1.387 . S
C220 C221 1.369 . S
C220 H229 0.929 . S
C221 N218 1.346 . S
C221 C220 1.369 . S
C221 H224 0.928 . S
C222 N218 1.345 . S
C222 C223 1.371 . S
C222 H225 0.931 . S
C223 C219 1.391 . S
C223 C222 1.371 . S
C223 H230 0.930 . S
H224 C221 0.928 . S
H225 C222 0.931 . S
H226 C202 0.930 . S
H227 C199 0.930 . S
H228 C208 0.930 . S
H229 C220 0.929 . S
H230 C223 0.930 . S
C231 C232 1.351 . S
C231 N234 1.368 . S
C231 H236 0.931 . S
C232 C231 1.351 . S
C232 N233 1.373 . S
C232 H260 0.930 . S
N233 C232 1.373 . S
N233 C235 1.340 . S
N234 C231 1.368 . S
N234 C235 1.321 . S
N234 Co237 2.135 1_554 S
C235 N233 1.340 . S
C235 N234 1.321 . S
C235 H259 0.930 . S
H236 C231 0.931 . S
Co237 N234 2.135 1_556 S
Co237 N240 2.121 . S
Co237 O245 2.055 . S
Co237 O248 2.039 . S
Co237 N251 2.140 . S
C238 O239 1.227 . S
C238 O248 1.265 . S
O239 C238 1.227 . S
N240 Co237 2.121 . S
N240 C242 1.375 . S
N240 C243 1.313 . S
C241 C242 1.338 . S
C241 N244 1.377 . S
C241 H261 0.930 . S
C242 N240 1.375 . S
C242 C241 1.338 . S
C242 H246 0.931 . S
C243 N240 1.313 . S
C243 N244 1.344 . S
C243 H247 0.930 . S
N244 C241 1.377 . S
N244 C243 1.344 . S
O245 Co237 2.055 . S
O245 C249 1.253 . S
H246 C242 0.931 . S
H247 C243 0.930 . S
O248 Co237 2.039 . S
O248 C238 1.265 . S
C249 O245 1.253 . S
C249 O250 1.227 . S
O250 C249 1.227 . S
N251 Co237 2.140 . S
N251 C254 1.346 . S
N251 C255 1.345 . S
C252 C253 1.387 . S
C252 C256 1.391 . S
C253 C252 1.387 . S
C253 C254 1.369 . S
C253 H262 0.941 . S
C254 N251 1.346 . S
C254 C253 1.369 . S
C254 H257 0.928 1_556 S
C255 N251 1.345 . S
C255 C256 1.371 . S
C255 H258 0.931 . S
C256 C252 1.391 . S
C256 C255 1.371 . S
C256 H263 0.930 . S
H257 C254 0.928 1_554 S
H258 C255 0.931 . S
H259 C235 0.930 . S
H260 C232 0.930 . S
H261 C241 0.930 . S
H262 C253 0.941 . S
H263 C256 0.930 . S
C264 C265 1.351 . S
C264 N267 1.368 . S
C264 H269 0.931 . S
C265 C264 1.351 . S
C265 N266 1.373 . S
C265 H293 0.930 . S
N266 C265 1.373 . S
N266 C268 1.340 . S
N267 C264 1.368 . S
N267 C268 1.321 . S
N267 Co270 2.135 . S
C268 N266 1.340 . S
C268 N267 1.321 . S
C268 H292 0.930 . S
H269 C264 0.931 . S
Co270 N267 2.135 . S
Co270 N273 2.121 1_554 S
Co270 O278 2.055 . S
Co270 O281 2.039 . S
Co270 N284 2.140 . S
C271 O272 1.227 . S
C271 O281 1.265 . S
O272 C271 1.227 . S
N273 Co270 2.121 1_556 S
N273 C275 1.375 . S
N273 C276 1.313 . S
C274 C275 1.338 . S
C274 N277 1.377 . S
C274 H294 0.930 . S
C275 N273 1.375 . S
C275 C274 1.338 . S
C275 H279 0.931 . S
C276 N273 1.313 . S
C276 N277 1.344 . S
C276 H280 0.930 . S
N277 C274 1.377 . S
N277 C276 1.344 . S
O278 Co270 2.055 . S
O278 C282 1.253 . S
H279 C275 0.931 . S
H280 C276 0.930 . S
O281 Co270 2.039 . S
O281 C271 1.265 . S
C282 O278 1.253 . S
C282 O283 1.227 . S
O283 C282 1.227 . S
N284 Co270 2.140 . S
N284 C287 1.346 . S
N284 C288 1.345 . S
C285 C286 1.387 . S
C285 C289 1.391 . S
C286 C285 1.387 . S
C286 C287 1.369 . S
C286 H295 0.929 . S
C287 N284 1.346 . S
C287 C286 1.369 . S
C287 H290 0.928 . S
C288 N284 1.345 . S
C288 C289 1.371 . S
C288 H291 0.931 1_554 S
C289 C285 1.391 . S
C289 C288 1.371 . S
C289 H296 0.930 1_554 S
H290 C287 0.928 . S
H291 C288 0.931 1_556 S
H292 C268 0.930 . S
H293 C265 0.930 . S
H294 C274 0.930 . S
H295 C286 0.929 . S
H296 C289 0.930 1_556 S
C297 C298 1.351 . S
C297 N300 1.368 . S
C297 H302 0.931 . S
C298 C297 1.351 . S
C298 N299 1.373 . S
C298 H326 0.930 . S
N299 C298 1.373 . S
N299 C301 1.340 . S
N300 C297 1.368 . S
N300 C301 1.321 . S
N300 Co303 2.135 . S
C301 N299 1.340 . S
C301 N300 1.321 . S
C301 H325 0.930 . S
H302 C297 0.931 . S
Co303 N300 2.135 . S
Co303 N306 2.121 . S
Co303 O311 2.055 . S
Co303 O314 2.039 . S
Co303 N317 2.140 . S
C304 O305 1.227 . S
C304 O314 1.265 . S
O305 C304 1.227 . S
N306 Co303 2.121 . S
N306 C308 1.375 . S
N306 C309 1.313 . S
C307 C308 1.338 . S
C307 N310 1.377 . S
C307 H327 0.930 1_554 S
C308 N306 1.375 . S
C308 C307 1.338 . S
C308 H312 0.931 . S
C309 N306 1.313 . S
C309 N310 1.344 . S
C309 H313 0.930 . S
N310 C307 1.377 . S
N310 C309 1.344 . S
O311 Co303 2.055 . S
O311 C315 1.253 . S
H312 C308 0.931 . S
H313 C309 0.930 . S
O314 Co303 2.039 . S
O314 C304 1.265 . S
C315 O311 1.253 . S
C315 O316 1.227 . S
O316 C315 1.227 . S
N317 Co303 2.140 . S
N317 C320 1.346 . S
N317 C321 1.345 . S
C318 C319 1.387 . S
C318 C322 1.391 . S
C319 C318 1.387 . S
C319 C320 1.369 . S
C319 H328 0.929 . S
C320 N317 1.346 . S
C320 C319 1.369 . S
C320 H323 0.928 . S
C321 N317 1.345 . S
C321 C322 1.371 . S
C321 H324 0.931 . S
C322 C318 1.391 . S
C322 C321 1.371 . S
C322 H329 0.930 . S
H323 C320 0.928 . S
H324 C321 0.931 . S
H325 C301 0.930 . S
H326 C298 0.930 . S
H327 C307 0.930 1_556 S
H328 C319 0.929 . S
H329 C322 0.930 . S
C330 C331 1.351 . S
C330 N333 1.368 . S
C330 H335 0.931 . S
C331 C330 1.351 . S
C331 N332 1.373 . S
C331 H359 0.930 . S
N332 C331 1.373 . S
N332 C334 1.340 . S
N333 C330 1.368 . S
N333 C334 1.321 . S
N333 Co336 2.135 . S
C334 N332 1.340 . S
C334 N333 1.321 . S
C334 H358 0.930 . S
H335 C330 0.931 . S
Co336 N333 2.135 . S
Co336 N339 2.121 . S
Co336 O344 2.055 . S
Co336 O347 2.039 . S
Co336 N350 2.140 . S
C337 O338 1.227 . S
C337 O347 1.265 . S
O338 C337 1.227 . S
N339 Co336 2.121 . S
N339 C341 1.375 . S
N339 C342 1.313 . S
C340 C341 1.338 . S
C340 N343 1.377 . S
C340 H360 0.930 . S
C341 N339 1.375 . S
C341 C340 1.338 . S
C341 H345 0.931 . S
C342 N339 1.313 . S
C342 N343 1.344 . S
C342 H346 0.930 . S
N343 C340 1.377 . S
N343 C342 1.344 . S
O344 Co336 2.055 . S
O344 C348 1.253 . S
H345 C341 0.931 . S
H346 C342 0.930 . S
O347 Co336 2.039 . S
O347 C337 1.265 . S
C348 O344 1.253 . S
C348 O349 1.227 . S
O349 C348 1.227 . S
N350 Co336 2.140 . S
N350 C353 1.346 . S
N350 C354 1.345 . S
C351 C352 1.387 . S
C351 C355 1.391 . S
C352 C351 1.387 . S
C352 C353 1.369 . S
C352 H361 0.929 . S
C353 N350 1.346 . S
C353 C352 1.369 . S
C353 H356 0.928 . S
C354 N350 1.345 . S
C354 C355 1.371 . S
C354 H357 0.931 . S
C355 C351 1.391 . S
C355 C354 1.371 . S
C355 H362 0.930 . S
H356 C353 0.928 . S
H357 C354 0.931 . S
H358 C334 0.930 . S
H359 C331 0.930 . S
H360 C340 0.930 . S
H361 C352 0.929 . S
H362 C355 0.930 . S
C363 C364 1.351 . S
C363 N366 1.368 . S
C363 H368 0.931 . S
C364 C363 1.351 . S
C364 N365 1.373 . S
C364 H392 0.930 . S
N365 C364 1.373 . S
N365 C367 1.340 . S
N366 C363 1.368 . S
N366 C367 1.321 . S
N366 Co369 2.135 . S
C367 N365 1.340 . S
C367 N366 1.321 . S
C367 H391 0.930 . S
H368 C363 0.931 . S
Co369 N366 2.135 . S
Co369 N372 2.121 . S
Co369 O377 2.055 . S
Co369 O380 2.039 . S
Co369 N383 2.140 . S
C370 O371 1.227 . S
C370 O380 1.265 . S
O371 C370 1.227 . S
N372 Co369 2.121 . S
N372 C374 1.375 . S
N372 C375 1.313 . S
C373 C374 1.338 . S
C373 N376 1.377 . S
C373 H393 0.930 . S
C374 N372 1.375 . S
C374 C373 1.338 . S
C374 H378 0.931 . S
C375 N372 1.313 . S
C375 N376 1.344 . S
C375 H379 0.930 . S
N376 C373 1.377 . S
N376 C375 1.344 . S
O377 Co369 2.055 . S
O377 C381 1.253 . S
H378 C374 0.931 . S
H379 C375 0.930 . S
O380 Co369 2.039 . S
O380 C370 1.265 . S
C381 O377 1.253 . S
C381 O382 1.227 . S
O382 C381 1.227 . S
N383 Co369 2.140 . S
N383 C386 1.346 . S
N383 C387 1.345 . S
C384 C385 1.387 . S
C384 C388 1.391 . S
C385 C384 1.387 . S
C385 C386 1.369 . S
C385 H394 0.929 . S
C386 N383 1.346 . S
C386 C385 1.369 . S
C386 H389 0.928 . S
C387 N383 1.345 . S
C387 C388 1.371 . S
C387 H390 0.931 . S
C388 C384 1.391 . S
C388 C387 1.371 . S
C388 H395 0.930 . S
H389 C386 0.928 . S
H390 C387 0.931 . S
H391 C367 0.930 . S
H392 C364 0.930 . S
H393 C373 0.930 . S
H394 C385 0.929 . S
H395 C388 0.930 . S
H396 C408 0.930 . S
H397 C410 0.930 . S
H398 C411 0.930 . S
H399 C415 0.959 . S
H400 C415 0.959 . S
H401 C415 0.961 . S
H402 C416 0.960 . S
H403 C416 0.961 . S
H404 C416 0.959 . S
H405 C419 0.929 . S
H406 C420 0.931 . S
H407 C422 0.930 . S
C408 H396 0.930 . S
C408 C409 1.399 . S
C408 C413 1.399 . S
C409 C408 1.399 . S
C409 C410 1.376 . S
C410 H397 0.930 . S
C410 C409 1.376 . S
C410 C411 1.388 . S
C411 H398 0.930 . S
C411 C410 1.388 . S
C411 C412 1.390 . S
C412 C411 1.390 . S
C412 C413 1.394 . S
C412 C418 1.465 . S
C413 C408 1.399 . S
C413 C412 1.394 . S
C413 C414 1.516 . S
C414 C413 1.516 . S
C414 C415 1.502 . S
C414 C416 1.561 . S
C414 C417 1.526 . S
C415 H399 0.959 . S
C415 H400 0.959 . S
C415 H401 0.961 . S
C415 C414 1.502 . S
C416 H402 0.960 . S
C416 H403 0.961 . S
C416 H404 0.959 . S
C416 C414 1.561 . S
C417 C414 1.526 . S
C417 C418 1.396 . S
C417 C422 1.390 . S
C418 C412 1.465 . S
C418 C417 1.396 . S
C418 C419 1.399 . S
C419 H405 0.929 . S
C419 C418 1.399 . S
C419 C420 1.385 . S
C420 H406 0.931 . S
C420 C419 1.385 . S
C420 C421 1.389 . S
C421 C420 1.389 . S
C421 C422 1.387 . S
C422 H407 0.930 . S
C422 C417 1.390 . S
C422 C421 1.387 . S
H423 C435 0.930 . S
H424 C437 0.930 . S
H425 C438 0.930 . S
H426 C442 0.959 . S
H427 C442 0.959 . S
H428 C442 0.961 . S
H429 C443 0.960 . S
H430 C443 0.961 . S
H431 C443 0.959 . S
H432 C446 0.929 . S
H433 C447 0.931 . S
H434 C449 0.930 . S
C435 H423 0.930 . S
C435 C436 1.399 . S
C435 C440 1.399 . S
C436 C435 1.399 . S
C436 C437 1.376 . S
C437 H424 0.930 . S
C437 C436 1.376 . S
C437 C438 1.388 . S
C438 H425 0.930 . S
C438 C437 1.388 . S
C438 C439 1.390 . S
C439 C438 1.390 . S
C439 C440 1.394 . S
C439 C445 1.465 . S
C440 C435 1.399 . S
C440 C439 1.394 . S
C440 C441 1.516 . S
C441 C440 1.516 . S
C441 C442 1.502 . S
C441 C443 1.561 . S
C441 C444 1.526 . S
C442 H426 0.959 . S
C442 H427 0.959 . S
C442 H428 0.961 . S
C442 C441 1.502 . S
C443 H429 0.960 . S
C443 H430 0.961 . S
C443 H431 0.959 . S
C443 C441 1.561 . S
C444 C441 1.526 . S
C444 C445 1.396 . S
C444 C449 1.390 . S
C445 C439 1.465 . S
C445 C444 1.396 . S
C445 C446 1.399 . S
C446 H432 0.929 . S
C446 C445 1.399 . S
C446 C447 1.385 . S
C447 H433 0.931 . S
C447 C446 1.385 . S
C447 C448 1.389 . S
C448 C447 1.389 . S
C448 C449 1.387 . S
C449 H434 0.930 . S
C449 C444 1.390 . S
C449 C448 1.387 . S
H450 C462 0.930 . S
H451 C464 0.930 . S
H452 C465 0.930 1_556 S
H453 C469 0.959 . S
H454 C469 0.959 . S
H455 C469 0.961 . S
H456 C470 0.960 . S
H457 C470 0.961 . S
H458 C470 0.959 . S
H459 C473 0.929 . S
H460 C474 0.931 . S
H461 C476 0.930 . S
C462 H450 0.930 . S
C462 C463 1.399 . S
C462 C467 1.399 1_554 S
C463 C462 1.399 . S
C463 C464 1.376 . S
C464 H451 0.930 . S
C464 C463 1.376 . S
C464 C465 1.388 . S
C465 H452 0.930 1_554 S
C465 C464 1.388 . S
C465 C466 1.390 1_554 S
C466 C465 1.390 1_556 S
C466 C467 1.394 . S
C466 C472 1.465 . S
C467 C462 1.399 1_556 S
C467 C466 1.394 . S
C467 C468 1.516 . S
C468 C467 1.516 . S
C468 C469 1.502 . S
C468 C470 1.561 . S
C468 C471 1.526 . S
C469 H453 0.959 . S
C469 H454 0.959 . S
C469 H455 0.961 . S
C469 C468 1.502 . S
C470 H456 0.960 . S
C470 H457 0.961 . S
C470 H458 0.959 . S
C470 C468 1.561 . S
C471 C468 1.526 . S
C471 C472 1.396 . S
C471 C476 1.390 . S
C472 C466 1.465 . S
C472 C471 1.396 . S
C472 C473 1.399 . S
C473 H459 0.929 . S
C473 C472 1.399 . S
C473 C474 1.385 . S
C474 H460 0.931 . S
C474 C473 1.385 . S
C474 C475 1.389 . S
C475 C474 1.389 . S
C475 C476 1.387 . S
C476 H461 0.930 . S
C476 C471 1.390 . S
C476 C475 1.387 . S
H477 C489 0.930 . S
H478 C491 0.930 . S
H479 C492 0.930 . S
H480 C496 0.959 . S
H481 C496 0.959 . S
H482 C496 0.961 . S
H483 C497 0.960 . S
H484 C497 0.961 . S
H485 C497 0.959 . S
H486 C500 0.929 . S
H487 C501 0.931 . S
H488 C503 0.930 . S
C489 H477 0.930 . S
C489 C490 1.399 . S
C489 C494 1.399 1_556 S
C490 C489 1.399 . S
C490 C491 1.376 . S
C491 H478 0.930 . S
C491 C490 1.376 . S
C491 C492 1.388 . S
C492 H479 0.930 . S
C492 C491 1.388 . S
C492 C493 1.390 1_556 S
C493 C492 1.390 1_554 S
C493 C494 1.394 . S
C493 C499 1.465 . S
C494 C489 1.399 1_554 S
C494 C493 1.394 . S
C494 C495 1.516 . S
C495 C494 1.516 . S
C495 C496 1.502 . S
C495 C497 1.561 . S
C495 C498 1.526 . S
C496 H480 0.959 . S
C496 H481 0.959 . S
C496 H482 0.961 . S
C496 C495 1.502 . S
C497 H483 0.960 . S
C497 H484 0.961 . S
C497 H485 0.959 . S
C497 C495 1.561 . S
C498 C495 1.526 . S
C498 C499 1.396 . S
C498 C503 1.390 . S
C499 C493 1.465 . S
C499 C498 1.396 . S
C499 C500 1.399 . S
C500 H486 0.929 . S
C500 C499 1.399 . S
C500 C501 1.385 . S
C501 H487 0.931 . S
C501 C500 1.385 . S
C501 C502 1.389 . S
C502 C501 1.389 . S
C502 C503 1.387 . S
C503 H488 0.930 . S
C503 C498 1.390 . S
C503 C502 1.387 . S
H504 C516 0.930 . S
H505 C518 0.930 . S
H506 C519 0.930 . S
H507 C523 0.959 . S
H508 C523 0.959 . S
H509 C523 0.961 . S
H510 C524 0.960 . S
H511 C524 0.961 . S
H512 C524 0.959 . S
H513 C527 0.929 . S
H514 C528 0.931 . S
H515 C530 0.930 . S
C516 H504 0.930 . S
C516 C517 1.399 . S
C516 C521 1.399 . S
C517 C516 1.399 . S
C517 C518 1.376 . S
C518 H505 0.930 . S
C518 C517 1.376 . S
C518 C519 1.388 . S
C519 H506 0.930 . S
C519 C518 1.388 . S
C519 C520 1.390 . S
C520 C519 1.390 . S
C520 C521 1.394 . S
C520 C526 1.465 . S
C521 C516 1.399 . S
C521 C520 1.394 . S
C521 C522 1.516 . S
C522 C521 1.516 . S
C522 C523 1.502 . S
C522 C524 1.561 . S
C522 C525 1.526 . S
C523 H507 0.959 . S
C523 H508 0.959 . S
C523 H509 0.961 . S
C523 C522 1.502 . S
C524 H510 0.960 . S
C524 H511 0.961 . S
C524 H512 0.959 . S
C524 C522 1.561 . S
C525 C522 1.526 . S
C525 C526 1.396 . S
C525 C530 1.390 . S
C526 C520 1.465 . S
C526 C525 1.396 . S
C526 C527 1.399 . S
C527 H513 0.929 . S
C527 C526 1.399 . S
C527 C528 1.385 . S
C528 H514 0.931 . S
C528 C527 1.385 . S
C528 C529 1.389 . S
C529 C528 1.389 . S
C529 C530 1.387 . S
C530 H515 0.930 . S
C530 C525 1.390 . S
C530 C529 1.387 . S
H531 C543 0.930 . S
H532 C545 0.930 . S
H533 C546 0.930 . S
H534 C550 0.959 . S
H535 C550 0.959 . S
H536 C550 0.961 . S
H537 C551 0.960 . S
H538 C551 0.961 . S
H539 C551 0.959 . S
H540 C554 0.929 . S
H541 C555 0.931 . S
H542 C557 0.930 . S
C543 H531 0.930 . S
C543 C544 1.399 . S
C543 C548 1.399 . S
C544 C543 1.399 . S
C544 C545 1.376 . S
C545 H532 0.930 . S
C545 C544 1.376 . S
C545 C546 1.388 . S
C546 H533 0.930 . S
C546 C545 1.388 . S
C546 C547 1.390 . S
C547 C546 1.390 . S
C547 C548 1.394 . S
C547 C553 1.465 . S
C548 C543 1.399 . S
C548 C547 1.394 . S
C548 C549 1.516 . S
C549 C548 1.516 . S
C549 C550 1.502 . S
C549 C551 1.561 . S
C549 C552 1.526 . S
C550 H534 0.959 . S
C550 H535 0.959 . S
C550 H536 0.961 . S
C550 C549 1.502 . S
C551 H537 0.960 . S
C551 H538 0.961 . S
C551 H539 0.959 . S
C551 C549 1.561 . S
C552 C549 1.526 . S
C552 C553 1.396 . S
C552 C557 1.390 . S
C553 C547 1.465 . S
C553 C552 1.396 . S
C553 C554 1.399 . S
C554 H540 0.929 . S
C554 C553 1.399 . S
C554 C555 1.385 . S
C555 H541 0.931 . S
C555 C554 1.385 . S
C555 C556 1.389 . S
C556 C555 1.389 . S
C556 C557 1.387 . S
C557 H542 0.930 . S
C557 C552 1.390 . S
C557 C556 1.387 . S
H558 C570 0.930 . S
H559 C572 0.930 . S
H560 C573 0.930 . S
H561 C577 0.959 . S
H562 C577 0.959 . S
H563 C577 0.961 . S
H564 C578 0.960 . S
H565 C578 0.961 . S
H566 C578 0.959 . S
H567 C581 0.929 . S
H568 C582 0.931 . S
H569 C584 0.930 . S
C570 H558 0.930 . S
C570 C571 1.399 . S
C570 C575 1.399 . S
C571 C570 1.399 . S
C571 C572 1.376 . S
C572 H559 0.930 . S
C572 C571 1.376 . S
C572 C573 1.388 . S
C573 H560 0.930 . S
C573 C572 1.388 . S
C573 C574 1.390 . S
C574 C573 1.390 . S
C574 C575 1.394 . S
C574 C580 1.465 . S
C575 C570 1.399 . S
C575 C574 1.394 . S
C575 C576 1.516 . S
C576 C575 1.516 . S
C576 C577 1.502 . S
C576 C578 1.561 . S
C576 C579 1.526 . S
C577 H561 0.959 . S
C577 H562 0.959 . S
C577 H563 0.961 . S
C577 C576 1.502 . S
C578 H564 0.960 . S
C578 H565 0.961 . S
C578 H566 0.959 . S
C578 C576 1.561 . S
C579 C576 1.526 . S
C579 C580 1.396 . S
C579 C584 1.390 . S
C580 C574 1.465 . S
C580 C579 1.396 . S
C580 C581 1.399 . S
C581 H567 0.929 . S
C581 C580 1.399 . S
C581 C582 1.385 . S
C582 H568 0.931 . S
C582 C581 1.385 . S
C582 C583 1.389 . S
C583 C582 1.389 . S
C583 C584 1.387 . S
C584 H569 0.930 . S
C584 C579 1.390 . S
C584 C583 1.387 . S
H585 C597 0.930 . S
H586 C599 0.930 . S
H587 C600 0.930 . S
H588 C604 0.959 . S
H589 C604 0.959 . S
H590 C604 0.961 . S
H591 C605 0.960 . S
H592 C605 0.961 . S
H593 C605 0.959 . S
H594 C608 0.929 . S
H595 C609 0.931 . S
H596 C611 0.930 . S
C597 H585 0.930 . S
C597 C598 1.399 . S
C597 C602 1.399 . S
C598 C597 1.399 . S
C598 C599 1.376 . S
C599 H586 0.930 . S
C599 C598 1.376 . S
C599 C600 1.388 . S
C600 H587 0.930 . S
C600 C599 1.388 . S
C600 C601 1.390 . S
C601 C600 1.390 . S
C601 C602 1.394 . S
C601 C607 1.465 . S
C602 C597 1.399 . S
C602 C601 1.394 . S
C602 C603 1.516 . S
C603 C602 1.516 . S
C603 C604 1.502 . S
C603 C605 1.561 . S
C603 C606 1.526 . S
C604 H588 0.959 . S
C604 H589 0.959 . S
C604 H590 0.961 . S
C604 C603 1.502 . S
C605 H591 0.960 . S
C605 H592 0.961 . S
C605 H593 0.959 . S
C605 C603 1.561 . S
C606 C603 1.526 . S
C606 C607 1.396 . S
C606 C611 1.390 . S
C607 C601 1.465 . S
C607 C606 1.396 . S
C607 C608 1.399 . S
C608 H594 0.929 . S
C608 C607 1.399 . S
C608 C609 1.385 . S
C609 H595 0.931 . S
C609 C608 1.385 . S
C609 C610 1.389 . S
C610 C609 1.389 . S
C610 C611 1.387 . S
C611 H596 0.930 . S
C611 C606 1.390 . S
C611 C610 1.387 . S
H612 C624 0.930 . S
H613 C626 0.930 . S
H614 C627 0.930 . S
H615 C631 0.959 . S
H616 C631 0.959 . S
H617 C631 0.961 . S
H618 C632 0.960 . S
H619 C632 0.961 . S
H620 C632 0.959 . S
H621 C635 0.929 . S
H622 C636 0.931 . S
H623 C638 0.930 . S
C624 H612 0.930 . S
C624 C625 1.399 . S
C624 C629 1.399 . S
C625 C624 1.399 . S
C625 C626 1.376 . S
C626 H613 0.930 . S
C626 C625 1.376 . S
C626 C627 1.388 . S
C627 H614 0.930 . S
C627 C626 1.388 . S
C627 C628 1.390 . S
C628 C627 1.390 . S
C628 C629 1.394 . S
C628 C634 1.465 . S
C629 C624 1.399 . S
C629 C628 1.394 . S
C629 C630 1.516 . S
C630 C629 1.516 . S
C630 C631 1.502 . S
C630 C632 1.561 . S
C630 C633 1.526 . S
C631 H615 0.959 . S
C631 H616 0.959 . S
C631 H617 0.961 . S
C631 C630 1.502 . S
C632 H618 0.960 . S
C632 H619 0.961 . S
C632 H620 0.959 . S
C632 C630 1.561 . S
C633 C630 1.526 . S
C633 C634 1.396 . S
C633 C638 1.390 . S
C634 C628 1.465 . S
C634 C633 1.396 . S
C634 C635 1.399 . S
C635 H621 0.929 . S
C635 C634 1.399 . S
C635 C636 1.385 . S
C636 H622 0.931 . S
C636 C635 1.385 . S
C636 C637 1.389 . S
C637 C636 1.389 . S
C637 C638 1.387 . S
C638 H623 0.930 . S
C638 C633 1.390 . S
C638 C637 1.387 . S
H639 C651 0.930 . S
H640 C653 0.930 . S
H641 C654 0.930 . S
H642 C658 0.959 . S
H643 C658 0.959 . S
H644 C658 0.961 . S
H645 C659 0.960 . S
H646 C659 0.961 . S
H647 C659 0.959 . S
H648 C662 0.929 . S
H649 C663 0.931 . S
H650 C665 0.930 . S
C651 H639 0.930 . S
C651 C652 1.399 . S
C651 C656 1.399 . S
C652 C651 1.399 . S
C652 C653 1.376 . S
C653 H640 0.930 . S
C653 C652 1.376 . S
C653 C654 1.388 . S
C654 H641 0.930 . S
C654 C653 1.388 . S
C654 C655 1.390 . S
C655 C654 1.390 . S
C655 C656 1.394 . S
C655 C661 1.465 . S
C656 C651 1.399 . S
C656 C655 1.394 . S
C656 C657 1.516 . S
C657 C656 1.516 . S
C657 C658 1.502 . S
C657 C659 1.561 . S
C657 C660 1.526 . S
C658 H642 0.959 . S
C658 H643 0.959 . S
C658 H644 0.961 . S
C658 C657 1.502 . S
C659 H645 0.960 . S
C659 H646 0.961 . S
C659 H647 0.959 . S
C659 C657 1.561 . S
C660 C657 1.526 . S
C660 C661 1.396 . S
C660 C665 1.390 . S
C661 C655 1.465 . S
C661 C660 1.396 . S
C661 C662 1.399 . S
C662 H648 0.929 . S
C662 C661 1.399 . S
C662 C663 1.385 . S
C663 H649 0.931 . S
C663 C662 1.385 . S
C663 C664 1.389 . S
C664 C663 1.389 . S
C664 C665 1.387 . S
C665 H650 0.930 . S
C665 C660 1.390 . S
C665 C664 1.387 . S
H666 C678 0.930 . S
H667 C680 0.930 . S
H668 C681 0.930 . S
H669 C685 0.959 . S
H670 C685 0.959 . S
H671 C685 0.961 . S
H672 C686 0.960 . S
H673 C686 0.961 . S
H674 C686 0.959 . S
H675 C689 0.929 . S
H676 C690 0.931 . S
H677 C692 0.930 . S
C678 H666 0.930 . S
C678 C679 1.399 . S
C678 C683 1.399 1_554 S
C679 C678 1.399 . S
C679 C680 1.376 . S
C680 H667 0.930 . S
C680 C679 1.376 . S
C680 C681 1.388 . S
C681 H668 0.930 . S
C681 C680 1.388 . S
C681 C682 1.390 1_554 S
C682 C681 1.390 1_556 S
C682 C683 1.394 . S
C682 C688 1.465 . S
C683 C678 1.399 1_556 S
C683 C682 1.394 . S
C683 C684 1.516 . S
C684 C683 1.516 . S
C684 C685 1.502 . S
C684 C686 1.561 . S
C684 C687 1.526 . S
C685 H669 0.959 . S
C685 H670 0.959 . S
C685 H671 0.961 . S
C685 C684 1.502 . S
C686 H672 0.960 . S
C686 H673 0.961 . S
C686 H674 0.959 . S
C686 C684 1.561 . S
C687 C684 1.526 . S
C687 C688 1.396 . S
C687 C692 1.390 . S
C688 C682 1.465 . S
C688 C687 1.396 . S
C688 C689 1.399 . S
C689 H675 0.929 . S
C689 C688 1.399 . S
C689 C690 1.385 . S
C690 H676 0.931 . S
C690 C689 1.385 . S
C690 C691 1.389 . S
C691 C690 1.389 . S
C691 C692 1.387 . S
C692 H677 0.930 . S
C692 C687 1.390 . S
C692 C691 1.387 . S
H693 C705 0.930 . S
H694 C707 0.930 . S
H695 C708 0.930 1_554 S
H696 C712 0.959 . S
H697 C712 0.959 . S
H698 C712 0.961 . S
H699 C713 0.960 . S
H700 C713 0.961 . S
H701 C713 0.959 . S
H702 C716 0.929 . S
H703 C717 0.931 . S
H704 C719 0.930 . S
C705 H693 0.930 . S
C705 C706 1.399 . S
C705 C710 1.399 1_556 S
C706 C705 1.399 . S
C706 C707 1.376 . S
C707 H694 0.930 . S
C707 C706 1.376 . S
C707 C708 1.388 . S
C708 H695 0.930 1_556 S
C708 C707 1.388 . S
C708 C709 1.390 1_556 S
C709 C708 1.390 1_554 S
C709 C710 1.394 . S
C709 C715 1.465 . S
C710 C705 1.399 1_554 S
C710 C709 1.394 . S
C710 C711 1.516 . S
C711 C710 1.516 . S
C711 C712 1.502 . S
C711 C713 1.561 . S
C711 C714 1.526 . S
C712 H696 0.959 . S
C712 H697 0.959 . S
C712 H698 0.961 . S
C712 C711 1.502 . S
C713 H699 0.960 . S
C713 H700 0.961 . S
C713 H701 0.959 . S
C713 C711 1.561 . S
C714 C711 1.526 . S
C714 C715 1.396 . S
C714 C719 1.390 . S
C715 C709 1.465 . S
C715 C714 1.396 . S
C715 C716 1.399 . S
C716 H702 0.929 . S
C716 C715 1.399 . S
C716 C717 1.385 . S
C717 H703 0.931 . S
C717 C716 1.385 . S
C717 C718 1.389 . S
C718 C717 1.389 . S
C718 C719 1.387 . S
C719 H704 0.930 . S
C719 C714 1.390 . S
C719 C718 1.387 . S
H720 C732 0.930 . S
H721 C734 0.930 . S
H722 C735 0.930 . S
H723 C739 0.959 . S
H724 C739 0.959 . S
H725 C739 0.961 . S
H726 C740 0.960 . S
H727 C740 0.961 . S
H728 C740 0.959 . S
H729 C743 0.929 . S
H730 C744 0.931 . S
H731 C746 0.930 . S
C732 H720 0.930 . S
C732 C733 1.399 . S
C732 C737 1.399 . S
C733 C732 1.399 . S
C733 C734 1.376 . S
C734 H721 0.930 . S
C734 C733 1.376 . S
C734 C735 1.388 . S
C735 H722 0.930 . S
C735 C734 1.388 . S
C735 C736 1.390 . S
C736 C735 1.390 . S
C736 C737 1.394 . S
C736 C742 1.465 . S
C737 C732 1.399 . S
C737 C736 1.394 . S
C737 C738 1.516 . S
C738 C737 1.516 . S
C738 C739 1.502 1_556 S
C738 C740 1.561 . S
C738 C741 1.526 . S
C739 H723 0.959 . S
C739 H724 0.959 . S
C739 H725 0.961 . S
C739 C738 1.502 1_554 S
C740 H726 0.960 . S
C740 H727 0.961 . S
C740 H728 0.959 . S
C740 C738 1.561 . S
C741 C738 1.526 . S
C741 C742 1.396 . S
C741 C746 1.390 1_556 S
C742 C736 1.465 . S
C742 C741 1.396 . S
C742 C743 1.399 . S
C743 H729 0.929 . S
C743 C742 1.399 . S
C743 C744 1.385 . S
C744 H730 0.931 . S
C744 C743 1.385 . S
C744 C745 1.389 1_556 S
C745 C744 1.389 1_554 S
C745 C746 1.387 . S
C746 H731 0.930 . S
C746 C741 1.390 1_554 S
C746 C745 1.387 . S
H747 C759 0.930 . S
H748 C761 0.930 . S
H749 C762 0.930 1_556 S
H750 C766 0.959 . S
H751 C766 0.959 . S
H752 C766 0.961 . S
H753 C767 0.960 . S
H754 C767 0.961 . S
H755 C767 0.959 . S
H756 C770 0.929 . S
H757 C771 0.931 . S
H758 C773 0.930 . S
C759 H747 0.930 . S
C759 C760 1.399 . S
C759 C764 1.399 . S
C760 C759 1.399 . S
C760 C761 1.376 . S
C761 H748 0.930 . S
C761 C760 1.376 . S
C761 C762 1.388 . S
C762 H749 0.930 1_554 S
C762 C761 1.388 . S
C762 C763 1.390 . S
C763 C762 1.390 . S
C763 C764 1.394 . S
C763 C769 1.465 . S
C764 C759 1.399 . S
C764 C763 1.394 . S
C764 C765 1.516 . S
C765 C764 1.516 . S
C765 C766 1.502 . S
C765 C767 1.561 . S
C765 C768 1.526 . S
C766 H750 0.959 . S
C766 H751 0.959 . S
C766 H752 0.961 . S
C766 C765 1.502 . S
C767 H753 0.960 . S
C767 H754 0.961 . S
C767 H755 0.959 . S
C767 C765 1.561 . S
C768 C765 1.526 . S
C768 C769 1.396 . S
C768 C773 1.390 . S
C769 C763 1.465 . S
C769 C768 1.396 . S
C769 C770 1.399 1_554 S
C770 H756 0.929 . S
C770 C769 1.399 1_556 S
C770 C771 1.385 . S
C771 H757 0.931 . S
C771 C770 1.385 . S
C771 C772 1.389 . S
C772 C771 1.389 . S
C772 C773 1.387 1_556 S
C773 H758 0.930 . S
C773 C768 1.390 . S
C773 C772 1.387 1_554 S
H774 C786 0.930 . S
H775 C788 0.930 . S
H776 C789 0.930 . S
H777 C793 0.959 . S
H778 C793 0.959 . S
H779 C793 0.961 . S
H780 C794 0.960 . S
H781 C794 0.961 . S
H782 C794 0.959 . S
H783 C797 0.929 . S
H784 C798 0.931 . S
H785 C800 0.930 . S
C786 H774 0.930 . S
C786 C787 1.399 . S
C786 C791 1.399 . S
C787 C786 1.399 . S
C787 C788 1.376 . S
C788 H775 0.930 . S
C788 C787 1.376 . S
C788 C789 1.388 . S
C789 H776 0.930 . S
C789 C788 1.388 . S
C789 C790 1.390 . S
C790 C789 1.390 . S
C790 C791 1.394 . S
C790 C796 1.465 . S
C791 C786 1.399 . S
C791 C790 1.394 . S
C791 C792 1.516 . S
C792 C791 1.516 . S
C792 C793 1.502 . S
C792 C794 1.561 . S
C792 C795 1.526 . S
C793 H777 0.959 . S
C793 H778 0.959 . S
C793 H779 0.961 . S
C793 C792 1.502 . S
C794 H780 0.960 . S
C794 H781 0.961 . S
C794 H782 0.959 . S
C794 C792 1.561 . S
C795 C792 1.526 . S
C795 C796 1.396 . S
C795 C800 1.390 . S
C796 C790 1.465 . S
C796 C795 1.396 . S
C796 C797 1.399 . S
C797 H783 0.929 . S
C797 C796 1.399 . S
C797 C798 1.385 . S
C798 H784 0.931 . S
C798 C797 1.385 . S
C798 C799 1.389 . S
C799 C798 1.389 . S
C799 C800 1.387 . S
C800 H785 0.930 . S
C800 C795 1.390 . S
C800 C799 1.387 . S
H801 C813 0.930 . S
H802 C815 0.930 . S
H803 C816 0.930 . S
H804 C820 0.959 . S
H805 C820 0.959 . S
H806 C820 0.961 . S
H807 C821 0.960 . S
H808 C821 0.961 . S
H809 C821 0.959 . S
H810 C824 0.929 . S
H811 C825 0.931 . S
H812 C827 0.930 . S
C813 H801 0.930 . S
C813 C814 1.399 . S
C813 C818 1.399 . S
C814 C813 1.399 . S
C814 C815 1.376 . S
C815 H802 0.930 . S
C815 C814 1.376 . S
C815 C816 1.388 . S
C816 H803 0.930 . S
C816 C815 1.388 . S
C816 C817 1.390 . S
C817 C816 1.390 . S
C817 C818 1.394 . S
C817 C823 1.465 . S
C818 C813 1.399 . S
C818 C817 1.394 . S
C818 C819 1.516 . S
C819 C818 1.516 . S
C819 C820 1.502 . S
C819 C821 1.561 . S
C819 C822 1.526 . S
C820 H804 0.959 . S
C820 H805 0.959 . S
C820 H806 0.961 . S
C820 C819 1.502 . S
C821 H807 0.960 . S
C821 H808 0.961 . S
C821 H809 0.959 . S
C821 C819 1.561 . S
C822 C819 1.526 . S
C822 C823 1.396 . S
C822 C827 1.390 . S
C823 C817 1.465 . S
C823 C822 1.396 . S
C823 C824 1.399 . S
C824 H810 0.929 . S
C824 C823 1.399 . S
C824 C825 1.385 . S
C825 H811 0.931 . S
C825 C824 1.385 . S
C825 C826 1.389 . S
C826 C825 1.389 . S
C826 C827 1.387 . S
C827 H812 0.930 . S
C827 C822 1.390 . S
C827 C826 1.387 . S
H828 C840 0.930 . S
H829 C842 0.930 . S
H830 C843 0.930 . S
H831 C847 0.959 . S
H832 C847 0.959 . S
H833 C847 0.961 . S
H834 C848 0.960 . S
H835 C848 0.961 . S
H836 C848 0.959 . S
H837 C851 0.929 . S
H838 C852 0.931 . S
H839 C854 0.930 . S
C840 H828 0.930 . S
C840 C841 1.399 . S
C840 C845 1.399 . S
C841 C840 1.399 . S
C841 C842 1.376 . S
C842 H829 0.930 . S
C842 C841 1.376 . S
C842 C843 1.388 . S
C843 H830 0.930 . S
C843 C842 1.388 . S
C843 C844 1.390 . S
C844 C843 1.390 . S
C844 C845 1.394 . S
C844 C850 1.465 . S
C845 C840 1.399 . S
C845 C844 1.394 . S
C845 C846 1.516 . S
C846 C845 1.516 . S
C846 C847 1.502 . S
C846 C848 1.561 . S
C846 C849 1.526 . S
C847 H831 0.959 . S
C847 H832 0.959 . S
C847 H833 0.961 . S
C847 C846 1.502 . S
C848 H834 0.960 . S
C848 H835 0.961 . S
C848 H836 0.959 . S
C848 C846 1.561 . S
C849 C846 1.526 . S
C849 C850 1.396 . S
C849 C854 1.390 . S
C850 C844 1.465 . S
C850 C849 1.396 . S
C850 C851 1.399 . S
C851 H837 0.929 . S
C851 C850 1.399 . S
C851 C852 1.385 . S
C852 H838 0.931 . S
C852 C851 1.385 . S
C852 C853 1.389 . S
C853 C852 1.389 . S
C853 C854 1.387 . S
C854 H839 0.930 . S
C854 C849 1.390 . S
C854 C853 1.387 . S
H855 C867 0.930 . S
H856 C869 0.930 . S
H857 C870 0.930 . S
H858 C874 0.959 . S
H859 C874 0.959 . S
H860 C874 0.961 . S
H861 C875 0.960 . S
H862 C875 0.961 . S
H863 C875 0.959 . S
H864 C878 0.929 . S
H865 C879 0.931 . S
H866 C881 0.930 . S
C867 H855 0.930 . S
C867 C868 1.399 . S
C867 C872 1.399 . S
C868 C867 1.399 . S
C868 C869 1.376 . S
C869 H856 0.930 . S
C869 C868 1.376 . S
C869 C870 1.388 . S
C870 H857 0.930 . S
C870 C869 1.388 . S
C870 C871 1.390 . S
C871 C870 1.390 . S
C871 C872 1.394 . S
C871 C877 1.465 . S
C872 C867 1.399 . S
C872 C871 1.394 . S
C872 C873 1.516 . S
C873 C872 1.516 . S
C873 C874 1.502 . S
C873 C875 1.561 . S
C873 C876 1.526 . S
C874 H858 0.959 . S
C874 H859 0.959 . S
C874 H860 0.961 . S
C874 C873 1.502 . S
C875 H861 0.960 . S
C875 H862 0.961 . S
C875 H863 0.959 . S
C875 C873 1.561 . S
C876 C873 1.526 . S
C876 C877 1.396 . S
C876 C881 1.390 . S
C877 C871 1.465 . S
C877 C876 1.396 . S
C877 C878 1.399 . S
C878 H864 0.929 . S
C878 C877 1.399 . S
C878 C879 1.385 . S
C879 H865 0.931 . S
C879 C878 1.385 . S
C879 C880 1.389 . S
C880 C879 1.389 . S
C880 C881 1.387 . S
C881 H866 0.930 . S
C881 C876 1.390 . S
C881 C880 1.387 . S
H882 C894 0.930 . S
H883 C896 0.930 . S
H884 C897 0.930 . S
H885 C901 0.959 . S
H886 C901 0.959 . S
H887 C901 0.961 . S
H888 C902 0.960 . S
H889 C902 0.961 . S
H890 C902 0.959 . S
H891 C905 0.929 . S
H892 C906 0.931 . S
H893 C908 0.930 . S
C894 H882 0.930 . S
C894 C895 1.399 . S
C894 C899 1.399 . S
C895 C894 1.399 . S
C895 C896 1.376 . S
C896 H883 0.930 . S
C896 C895 1.376 . S
C896 C897 1.388 . S
C897 H884 0.930 . S
C897 C896 1.388 . S
C897 C898 1.390 . S
C898 C897 1.390 . S
C898 C899 1.394 . S
C898 C904 1.465 . S
C899 C894 1.399 . S
C899 C898 1.394 . S
C899 C900 1.516 . S
C900 C899 1.516 . S
C900 C901 1.502 . S
C900 C902 1.561 . S
C900 C903 1.526 . S
C901 H885 0.959 . S
C901 H886 0.959 . S
C901 H887 0.961 . S
C901 C900 1.502 . S
C902 H888 0.960 . S
C902 H889 0.961 . S
C902 H890 0.959 . S
C902 C900 1.561 . S
C903 C900 1.526 . S
C903 C904 1.396 . S
C903 C908 1.390 . S
C904 C898 1.465 . S
C904 C903 1.396 . S
C904 C905 1.399 . S
C905 H891 0.929 . S
C905 C904 1.399 . S
C905 C906 1.385 . S
C906 H892 0.931 . S
C906 C905 1.385 . S
C906 C907 1.389 . S
C907 C906 1.389 . S
C907 C908 1.387 . S
C908 H893 0.930 . S
C908 C903 1.390 . S
C908 C907 1.387 . S
H909 C921 0.930 . S
H910 C923 0.930 . S
H911 C924 0.930 . S
H912 C928 0.959 . S
H913 C928 0.959 . S
H914 C928 0.961 . S
H915 C929 0.960 . S
H916 C929 0.961 . S
H917 C929 0.959 . S
H918 C932 0.929 . S
H919 C933 0.931 . S
H920 C935 0.930 . S
C921 H909 0.930 . S
C921 C922 1.399 . S
C921 C926 1.399 . S
C922 C921 1.399 . S
C922 C923 1.376 . S
C923 H910 0.930 . S
C923 C922 1.376 . S
C923 C924 1.388 . S
C924 H911 0.930 . S
C924 C923 1.388 . S
C924 C925 1.390 . S
C925 C924 1.390 . S
C925 C926 1.394 . S
C925 C931 1.465 . S
C926 C921 1.399 . S
C926 C925 1.394 . S
C926 C927 1.516 . S
C927 C926 1.516 . S
C927 C928 1.502 . S
C927 C929 1.561 . S
C927 C930 1.526 . S
C928 H912 0.959 . S
C928 H913 0.959 . S
C928 H914 0.961 . S
C928 C927 1.502 . S
C929 H915 0.960 . S
C929 H916 0.961 . S
C929 H917 0.959 . S
C929 C927 1.561 . S
C930 C927 1.526 . S
C930 C931 1.396 . S
C930 C935 1.390 . S
C931 C925 1.465 . S
C931 C930 1.396 . S
C931 C932 1.399 . S
C932 H918 0.929 . S
C932 C931 1.399 . S
C932 C933 1.385 . S
C933 H919 0.931 . S
C933 C932 1.385 . S
C933 C934 1.389 . S
C934 C933 1.389 . S
C934 C935 1.387 . S
C935 H920 0.930 . S
C935 C930 1.390 . S
C935 C934 1.387 . S
H936 C948 0.930 . S
H937 C950 0.930 . S
H938 C951 0.930 . S
H939 C955 0.959 . S
H940 C955 0.959 . S
H941 C955 0.961 . S
H942 C956 0.960 . S
H943 C956 0.961 . S
H944 C956 0.959 . S
H945 C959 0.929 . S
H946 C960 0.931 . S
H947 C962 0.930 . S
C948 H936 0.930 . S
C948 C949 1.399 . S
C948 C953 1.399 . S
C949 C948 1.399 . S
C949 C950 1.376 . S
C950 H937 0.930 . S
C950 C949 1.376 . S
C950 C951 1.388 . S
C951 H938 0.930 . S
C951 C950 1.388 . S
C951 C952 1.390 . S
C952 C951 1.390 . S
C952 C953 1.394 . S
C952 C958 1.465 . S
C953 C948 1.399 . S
C953 C952 1.394 . S
C953 C954 1.516 . S
C954 C953 1.516 . S
C954 C955 1.502 . S
C954 C956 1.561 . S
C954 C957 1.526 . S
C955 H939 0.959 . S
C955 H940 0.959 . S
C955 H941 0.961 . S
C955 C954 1.502 . S
C956 H942 0.960 . S
C956 H943 0.961 . S
C956 H944 0.959 . S
C956 C954 1.561 . S
C957 C954 1.526 . S
C957 C958 1.396 . S
C957 C962 1.390 . S
C958 C952 1.465 . S
C958 C957 1.396 . S
C958 C959 1.399 . S
C959 H945 0.929 . S
C959 C958 1.399 . S
C959 C960 1.385 . S
C960 H946 0.931 . S
C960 C959 1.385 . S
C960 C961 1.389 . S
C961 C960 1.389 . S
C961 C962 1.387 . S
C962 H947 0.930 . S
C962 C957 1.390 . S
C962 C961 1.387 . S
H963 C975 0.930 . S
H964 C977 0.930 . S
H965 C978 0.930 . S
H966 C982 0.959 . S
H967 C982 0.959 . S
H968 C982 0.961 . S
H969 C983 0.960 . S
H970 C983 0.961 . S
H971 C983 0.959 . S
H972 C986 0.929 . S
H973 C987 0.931 . S
H974 C989 0.930 . S
C975 H963 0.930 . S
C975 C976 1.399 . S
C975 C980 1.399 . S
C976 C975 1.399 . S
C976 C977 1.376 . S
C977 H964 0.930 . S
C977 C976 1.376 . S
C977 C978 1.388 . S
C978 H965 0.930 . S
C978 C977 1.388 . S
C978 C979 1.390 . S
C979 C978 1.390 . S
C979 C980 1.394 . S
C979 C985 1.465 . S
C980 C975 1.399 . S
C980 C979 1.394 . S
C980 C981 1.516 . S
C981 C980 1.516 . S
C981 C982 1.502 . S
C981 C983 1.561 . S
C981 C984 1.526 . S
C982 H966 0.959 . S
C982 H967 0.959 . S
C982 H968 0.961 . S
C982 C981 1.502 . S
C983 H969 0.960 . S
C983 H970 0.961 . S
C983 H971 0.959 . S
C983 C981 1.561 . S
C984 C981 1.526 . S
C984 C985 1.396 . S
C984 C989 1.390 . S
C985 C979 1.465 . S
C985 C984 1.396 . S
C985 C986 1.399 . S
C986 H972 0.929 . S
C986 C985 1.399 . S
C986 C987 1.385 . S
C987 H973 0.931 . S
C987 C986 1.385 . S
C987 C988 1.389 . S
C988 C987 1.389 . S
C988 C989 1.387 . S
C989 H974 0.930 . S
C989 C984 1.390 . S
C989 C988 1.387 . S
H990 C1002 0.930 . S
H991 C1004 0.930 . S
H992 C1005 0.930 . S
H993 C1009 0.959 . S
H994 C1009 0.959 . S
H995 C1009 0.961 . S
H996 C1010 0.960 . S
H997 C1010 0.961 . S
H998 C1010 0.959 . S
H999 C1013 0.929 . S
H1000 C1014 0.931 . S
H1001 C1016 0.930 . S
C1002 H990 0.930 . S
C1002 C1003 1.399 . S
C1002 C1007 1.399 1_554 S
C1003 C1002 1.399 . S
C1003 C1004 1.376 1_554 S
C1004 H991 0.930 . S
C1004 C1003 1.376 1_556 S
C1004 C1005 1.388 . S
C1005 H992 0.930 . S
C1005 C1004 1.388 . S
C1005 C1006 1.390 . S
C1006 C1005 1.390 . S
C1006 C1007 1.394 . S
C1006 C1012 1.465 . S
C1007 C1002 1.399 1_556 S
C1007 C1006 1.394 . S
C1007 C1008 1.516 . S
C1008 C1007 1.516 . S
C1008 C1009 1.502 1_556 S
C1008 C1010 1.561 1_556 S
C1008 C1011 1.526 . S
C1009 H993 0.959 . S
C1009 H994 0.959 . S
C1009 H995 0.961 . S
C1009 C1008 1.502 1_554 S
C1010 H996 0.960 . S
C1010 H997 0.961 . S
C1010 H998 0.959 . S
C1010 C1008 1.561 1_554 S
C1011 C1008 1.526 . S
C1011 C1012 1.396 . S
C1011 C1016 1.390 . S
C1012 C1006 1.465 . S
C1012 C1011 1.396 . S
C1012 C1013 1.399 . S
C1013 H999 0.929 . S
C1013 C1012 1.399 . S
C1013 C1014 1.385 . S
C1014 H1000 0.931 . S
C1014 C1013 1.385 . S
C1014 C1015 1.389 . S
C1015 C1014 1.389 . S
C1015 C1016 1.387 . S
C1016 H1001 0.930 . S
C1016 C1011 1.390 . S
C1016 C1015 1.387 . S
H1017 C1029 0.930 . S
H1018 C1031 0.930 . S
H1019 C1032 0.930 . S
H1020 C1036 0.959 . S
H1021 C1036 0.959 . S
H1022 C1036 0.961 . S
H1023 C1037 0.960 . S
H1024 C1037 0.961 . S
H1025 C1037 0.959 . S
H1026 C1040 0.929 . S
H1027 C1041 0.931 . S
H1028 C1043 0.930 . S
C1029 H1017 0.930 . S
C1029 C1030 1.399 . S
C1029 C1034 1.399 . S
C1030 C1029 1.399 . S
C1030 C1031 1.376 . S
C1031 H1018 0.930 . S
C1031 C1030 1.376 . S
C1031 C1032 1.388 . S
C1032 H1019 0.930 . S
C1032 C1031 1.388 . S
C1032 C1033 1.390 . S
C1033 C1032 1.390 . S
C1033 C1034 1.394 . S
C1033 C1039 1.465 . S
C1034 C1029 1.399 . S
C1034 C1033 1.394 . S
C1034 C1035 1.516 . S
C1035 C1034 1.516 . S
C1035 C1036 1.502 1_554 S
C1035 C1037 1.561 . S
C1035 C1038 1.526 . S
C1036 H1020 0.959 . S
C1036 H1021 0.959 . S
C1036 H1022 0.961 . S
C1036 C1035 1.502 1_556 S
C1037 H1023 0.960 . S
C1037 H1024 0.961 . S
C1037 H1025 0.959 . S
C1037 C1035 1.561 . S
C1038 C1035 1.526 . S
C1038 C1039 1.396 . S
C1038 C1043 1.390 1_554 S
C1039 C1033 1.465 . S
C1039 C1038 1.396 . S
C1039 C1040 1.399 . S
C1040 H1026 0.929 . S
C1040 C1039 1.399 . S
C1040 C1041 1.385 . S
C1041 H1027 0.931 . S
C1041 C1040 1.385 . S
C1041 C1042 1.389 1_554 S
C1042 C1041 1.389 1_556 S
C1042 C1043 1.387 . S
C1043 H1028 0.930 . S
C1043 C1038 1.390 1_556 S
C1043 C1042 1.387 . S
H1044 C1056 0.930 . S
H1045 C1058 0.930 . S
H1046 C1059 0.930 . S
H1047 C1063 0.959 . S
H1048 C1063 0.959 . S
H1049 C1063 0.961 . S
H1050 C1064 0.960 1_556 S
H1051 C1064 0.961 . S
H1052 C1064 0.959 . S
H1053 C1067 0.929 . S
H1054 C1068 0.931 . S
H1055 C1070 0.930 . S
C1056 H1044 0.930 . S
C1056 C1057 1.399 . S
C1056 C1061 1.399 . S
C1057 C1056 1.399 . S
C1057 C1058 1.376 . S
C1058 H1045 0.930 . S
C1058 C1057 1.376 . S
C1058 C1059 1.388 . S
C1059 H1046 0.930 . S
C1059 C1058 1.388 . S
C1059 C1060 1.390 . S
C1060 C1059 1.390 . S
C1060 C1061 1.394 . S
C1060 C1066 1.465 . S
C1061 C1056 1.399 . S
C1061 C1060 1.394 . S
C1061 C1062 1.516 . S
C1062 C1061 1.516 . S
C1062 C1063 1.502 . S
C1062 C1064 1.561 . S
C1062 C1065 1.526 . S
C1063 H1047 0.959 . S
C1063 H1048 0.959 . S
C1063 H1049 0.961 . S
C1063 C1062 1.502 . S
C1064 H1050 0.960 1_554 S
C1064 H1051 0.961 . S
C1064 H1052 0.959 . S
C1064 C1062 1.561 . S
C1065 C1062 1.526 . S
C1065 C1066 1.396 . S
C1065 C1070 1.390 . S
C1066 C1060 1.465 . S
C1066 C1065 1.396 . S
C1066 C1067 1.399 . S
C1067 H1053 0.929 . S
C1067 C1066 1.399 . S
C1067 C1068 1.385 . S
C1068 H1054 0.931 . S
C1068 C1067 1.385 . S
C1068 C1069 1.389 . S
C1069 C1068 1.389 . S
C1069 C1070 1.387 . S
C1070 H1055 0.930 . S
C1070 C1065 1.390 . S
C1070 C1069 1.387 . S
H1071 C1083 0.930 . S
H1072 C1085 0.930 . S
H1073 C1086 0.930 . S
H1074 C1090 0.959 . S
H1075 C1090 0.999 . S
H1076 C1090 0.961 . S
H1077 C1091 0.960 . S
H1078 C1091 0.941 1_455 S
H1079 C1091 0.959 . S
H1080 C1094 0.929 . S
H1081 C1095 0.931 . S
H1082 C1097 0.930 . S
C1083 H1071 0.930 . S
C1083 C1084 1.399 . S
C1083 C1088 1.399 . S
C1084 C1083 1.399 . S
C1084 C1085 1.376 . S
C1085 H1072 0.930 . S
C1085 C1084 1.376 . S
C1085 C1086 1.388 . S
C1086 H1073 0.930 . S
C1086 C1085 1.388 . S
C1086 C1087 1.390 . S
C1087 C1086 1.390 . S
C1087 C1088 1.394 . S
C1087 C1093 1.465 1_655 S
C1088 C1083 1.399 . S
C1088 C1087 1.394 . S
C1088 C1089 1.516 . S
C1089 C1088 1.516 . S
C1089 C1090 1.502 . S
C1089 C1091 1.561 . S
C1089 C1092 1.526 1_655 S
C1090 H1074 0.959 . S
C1090 H1075 0.999 . S
C1090 H1076 0.961 . S
C1090 C1089 1.502 . S
C1091 H1077 0.960 . S
C1091 H1078 0.941 1_655 S
C1091 H1079 0.959 . S
C1091 C1089 1.561 . S
C1092 C1089 1.526 1_455 S
C1092 C1093 1.396 . S
C1092 C1097 1.390 . S
C1093 C1087 1.465 1_455 S
C1093 C1092 1.396 . S
C1093 C1094 1.399 . S
C1094 H1080 0.929 . S
C1094 C1093 1.399 . S
C1094 C1095 1.385 . S
C1095 H1081 0.931 . S
C1095 C1094 1.385 . S
C1095 C1096 1.389 . S
C1096 C1095 1.389 . S
C1096 C1097 1.387 . S
C1097 H1082 0.930 . S
C1097 C1092 1.390 . S
C1097 C1096 1.387 . S
H1098 C1110 0.930 . S
H1099 C1112 0.930 . S
H1100 C1113 0.930 . S
H1101 C1117 0.959 . S
H1102 C1117 0.959 . S
H1103 C1117 0.961 1_545 S
H1104 C1118 0.959 . S
H1105 C1118 0.961 . S
H1106 C1118 0.959 . S
H1107 C1121 0.929 . S
H1108 C1122 0.931 . S
H1109 C1124 0.930 . S
C1110 H1098 0.930 . S
C1110 C1111 1.399 . S
C1110 C1115 1.399 . S
C1111 C1110 1.399 . S
C1111 C1112 1.376 . S
C1112 H1099 0.930 . S
C1112 C1111 1.376 . S
C1112 C1113 1.388 . S
C1113 H1100 0.930 . S
C1113 C1112 1.388 . S
C1113 C1114 1.390 . S
C1114 C1113 1.390 . S
C1114 C1115 1.394 . S
C1114 C1120 1.465 1_545 S
C1115 C1110 1.399 . S
C1115 C1114 1.394 . S
C1115 C1116 1.516 1_545 S
C1116 C1115 1.516 1_565 S
C1116 C1117 1.502 . S
C1116 C1118 1.561 . S
C1116 C1119 1.526 . S
C1117 H1101 0.959 . S
C1117 H1102 0.959 . S
C1117 H1103 0.961 1_565 S
C1117 C1116 1.502 . S
C1118 H1104 0.959 . S
C1118 H1105 0.961 . S
C1118 H1106 0.959 . S
C1118 C1116 1.561 . S
C1119 C1116 1.526 . S
C1119 C1120 1.396 . S
C1119 C1124 1.390 . S
C1120 C1114 1.465 1_565 S
C1120 C1119 1.396 . S
C1120 C1121 1.399 . S
C1121 H1107 0.929 . S
C1121 C1120 1.399 . S
C1121 C1122 1.385 . S
C1122 H1108 0.931 . S
C1122 C1121 1.385 . S
C1122 C1123 1.389 . S
C1123 C1122 1.389 . S
C1123 C1124 1.387 . S
C1124 H1109 0.930 . S
C1124 C1119 1.390 . S
C1124 C1123 1.387 . S
H1125 C1137 0.930 . S
H1126 C1139 0.930 . S
H1127 C1140 0.930 . S
H1128 C1144 0.959 . S
H1129 C1144 0.959 . S
H1130 C1144 0.961 . S
H1131 C1145 0.960 . S
H1132 C1145 0.961 . S
H1133 C1145 0.959 . S
H1134 C1148 0.929 . S
H1135 C1149 0.931 . S
H1136 C1151 0.930 . S
C1137 H1125 0.930 . S
C1137 C1138 1.399 . S
C1137 C1142 1.399 . S
C1138 C1137 1.399 . S
C1138 C1139 1.376 . S
C1139 H1126 0.930 . S
C1139 C1138 1.376 . S
C1139 C1140 1.388 . S
C1140 H1127 0.930 . S
C1140 C1139 1.388 . S
C1140 C1141 1.390 . S
C1141 C1140 1.390 . S
C1141 C1142 1.394 . S
C1141 C1147 1.465 . S
C1142 C1137 1.399 . S
C1142 C1141 1.394 . S
C1142 C1143 1.516 . S
C1143 C1142 1.516 . S
C1143 C1144 1.502 . S
C1143 C1145 1.561 . S
C1143 C1146 1.526 . S
C1144 H1128 0.959 . S
C1144 H1129 0.959 . S
C1144 H1130 0.961 . S
C1144 C1143 1.502 . S
C1145 H1131 0.960 . S
C1145 H1132 0.961 . S
C1145 H1133 0.959 . S
C1145 C1143 1.561 . S
C1146 C1143 1.526 . S
C1146 C1147 1.396 . S
C1146 C1151 1.390 . S
C1147 C1141 1.465 . S
C1147 C1146 1.396 . S
C1147 C1148 1.399 . S
C1148 H1134 0.929 . S
C1148 C1147 1.399 . S
C1148 C1149 1.385 . S
C1149 H1135 0.931 . S
C1149 C1148 1.385 . S
C1149 C1150 1.389 . S
C1150 C1149 1.389 . S
C1150 C1151 1.387 . S
C1151 H1136 0.930 . S
C1151 C1146 1.390 . S
C1151 C1150 1.387 . S
H1152 C1164 0.930 . S
H1153 C1166 0.930 . S
H1154 C1167 0.930 . S
H1155 C1171 0.959 . S
H1156 C1171 0.959 1_655 S
H1157 C1171 0.961 . S
H1158 C1172 0.960 1_455 S
H1159 C1172 0.961 . S
H1160 C1172 0.959 . S
H1161 C1175 0.929 . S
H1162 C1176 0.931 . S
H1163 C1178 0.930 . S
C1164 H1152 0.930 . S
C1164 C1165 1.399 . S
C1164 C1169 1.399 . S
C1165 C1164 1.399 . S
C1165 C1166 1.376 . S
C1166 H1153 0.930 . S
C1166 C1165 1.376 . S
C1166 C1167 1.388 . S
C1167 H1154 0.930 . S
C1167 C1166 1.388 . S
C1167 C1168 1.390 . S
C1168 C1167 1.390 . S
C1168 C1169 1.394 . S
C1168 C1174 1.465 1_455 S
C1169 C1164 1.399 . S
C1169 C1168 1.394 . S
C1169 C1170 1.576 . S
C1170 C1169 1.576 . S
C1170 C1171 1.499 . S
C1170 C1172 1.530 1_455 S
C1170 C1173 1.503 1_455 S
C1171 H1155 0.959 . S
C1171 H1156 0.959 1_455 S
C1171 H1157 0.961 . S
C1171 C1170 1.499 . S
C1172 H1158 0.960 1_655 S
C1172 H1159 0.961 . S
C1172 H1160 0.959 . S
C1172 C1170 1.530 1_655 S
C1173 C1170 1.503 1_655 S
C1173 C1174 1.396 . S
C1173 C1178 1.390 . S
C1174 C1168 1.465 1_655 S
C1174 C1173 1.396 . S
C1174 C1175 1.399 . S
C1175 H1161 0.929 . S
C1175 C1174 1.399 . S
C1175 C1176 1.385 . S
C1176 H1162 0.931 . S
C1176 C1175 1.385 . S
C1176 C1177 1.389 . S
C1177 C1176 1.389 . S
C1177 C1178 1.387 . S
C1178 H1163 0.930 . S
C1178 C1173 1.390 . S
C1178 C1177 1.387 . S
H1179 C1191 0.930 1_554 S
H1180 C1193 0.930 . S
H1181 C1194 0.930 . S
H1182 C1198 0.959 1_566 S
H1183 C1198 0.959 1_565 S
H1184 C1198 0.961 . S
H1185 C1199 0.960 . S
H1186 C1199 0.952 1_565 S
H1187 C1199 0.959 . S
H1188 C1202 0.929 . S
H1189 C1203 0.931 1_556 S
H1190 C1205 0.930 . S
C1191 H1179 0.930 1_556 S
C1191 C1192 1.399 . S
C1191 C1196 1.399 1_556 S
C1192 C1191 1.399 . S
C1192 C1193 1.376 . S
C1193 H1180 0.930 . S
C1193 C1192 1.376 . S
C1193 C1194 1.388 . S
C1194 H1181 0.930 . S
C1194 C1193 1.388 . S
C1194 C1195 1.390 . S
C1195 C1194 1.390 . S
C1195 C1196 1.394 1_556 S
C1195 C1201 1.465 1_545 S
C1196 C1191 1.399 1_554 S
C1196 C1195 1.394 1_554 S
C1196 C1197 1.516 . S
C1197 C1196 1.516 . S
C1197 C1198 1.502 . S
C1197 C1199 1.561 . S
C1197 C1200 1.526 1_545 S
C1198 H1182 0.959 1_544 S
C1198 H1183 0.959 1_545 S
C1198 H1184 0.961 . S
C1198 C1197 1.502 . S
C1199 H1185 0.960 . S
C1199 H1186 0.952 1_545 S
C1199 H1187 0.959 . S
C1199 C1197 1.561 . S
C1200 C1197 1.526 1_565 S
C1200 C1201 1.396 1_554 S
C1200 C1205 1.390 . S
C1201 C1195 1.465 1_565 S
C1201 C1200 1.396 1_556 S
C1201 C1202 1.399 . S
C1202 H1188 0.929 . S
C1202 C1201 1.399 . S
C1202 C1203 1.385 1_556 S
C1203 H1189 0.931 1_554 S
C1203 C1202 1.385 1_554 S
C1203 C1204 1.389 . S
C1204 C1203 1.389 . S
C1204 C1205 1.387 . S
C1205 H1190 0.930 . S
C1205 C1200 1.390 . S
C1205 C1204 1.387 . S
C409 N13 1.199 . S
C421 N2 1.213 . S
C436 N35 1.235 1_556 S
C448 N46 1.185 . S
C463 N68 1.192 . S
C475 N79 1.230 . S
C490 N112 1.223 . S
C502 N101 1.201 . S
C517 N145 1.235 1_554 S
C529 N134 1.184 . S
C544 N167 1.183 . S
C556 N178 1.235 . S
C571 N211 1.235 . S
C583 N200 1.183 1_554 S
C598 N244 1.192 . S
C610 N233 1.220 . S
C625 N266 1.187 . S
C637 N277 1.233 . S
C652 N310 1.235 1_556 S
C664 N299 1.183 . S
C679 N343 1.204 . S
C691 N332 1.222 . S
C706 N365 1.187 . S
C718 N376 1.233 . S
C733 C205 1.560 . S
C745 C7 1.520 . S
C760 C40 1.518 . S
C772 C238 1.569 . S
C787 C271 1.544 . S
C799 C73 1.575 . S
C814 C304 1.520 . S
C826 C106 1.574 . S
C841 C337 1.519 . S
C853 C139 1.559 . S
C868 C370 1.543 . S
C880 C172 1.575 . S
C895 C18 1.155 . S
C907 C348 1.191 . S
C922 C51 1.172 . S
C934 C381 1.217 . S
C949 C84 1.185 . S
C961 C216 1.219 . S
C976 C249 1.216 . S
C988 C117 1.168 . S
C1003 C282 1.173 . S
C1015 C150 1.218 . S
C1030 C315 1.220 . S
C1042 C183 1.184 . S
C1057 C21 1.449 . S
C1069 C318 1.461 . S
C1084 C54 1.492 . S
C1096 C351 1.459 . S
C1111 C384 1.448 . S
C1123 C87 1.476 . S
C1138 C120 1.495 . S
C1150 C219 1.482 . S
C1165 C153 1.465 . S
C1177 C252 1.448 . S
C1192 C186 1.493 . S
C1204 C285 1.485 . S
