# Generated by pormake.
# Topology dmp, (4)-cn, num edge types: 1
# Building blocks:
#     Node 0, Type 0, BuildingBlock: ICAMEG_clean_sbu_1, # of connection points: 4
#     Node 1, Type 0, BuildingBlock: ICAMEG_clean_sbu_1, # of connection points: 4
#     Node 2, Type 0, BuildingBlock: ICAMEG_clean_sbu_1, # of connection points: 4
#     Node 3, Type 0, BuildingBlock: ICAMEG_clean_sbu_1, # of connection points: 4
#     Edge 4, Type (0, 0), BuildingBlock: UVAHIK_clean_linker_0, # of connection points: 2
#     Edge 5, Type (0, 0), BuildingBlock: UVAHIK_clean_linker_0, # of connection points: 2
#     Edge 6, Type (0, 0), BuildingBlock: UVAHIK_clean_linker_0, # of connection points: 2
#     Edge 7, Type (0, 0), BuildingBlock: UVAHIK_clean_linker_0, # of connection points: 2
#     Edge 8, Type (0, 0), BuildingBlock: UVAHIK_clean_linker_0, # of connection points: 2
#     Edge 9, Type (0, 0), BuildingBlock: UVAHIK_clean_linker_0, # of connection points: 2
#     Edge 10, Type (0, 0), BuildingBlock: UVAHIK_clean_linker_0, # of connection points: 2
#     Edge 11, Type (0, 0), BuildingBlock: UVAHIK_clean_linker_0, # of connection points: 2
# Relax obj value: 0.010
# Max RMSD: 0.075
# Mean RMSD: 0.075
data_MOF--net-dmp--node1-ICAMEG_clean_sbu_1--edge1-UVAHIK_clean_linker_0
_symmetry_space_group_name_H-M    P1
_symmetry_Int_Tables_number       1
_symmetry_cell_setting            triclinic
loop_
_symmetry_equiv_pos_as_xyz
'x, y, z'
_cell_length_a     55.801982
_cell_length_b     24.575979
_cell_length_c     22.440231
_cell_angle_alpha  90.002384
_cell_angle_beta   90.231002
_cell_angle_gamma 89.941116
loop_
_atom_site_label
_atom_site_type_symbol
_atom_site_fract_x
_atom_site_fract_y
_atom_site_fract_z
_atom_type_partial_charge
Co0 Co 0.11475 0.25607 0.17404 0.0
Co1 Co 0.11507 0.239 0.32688 0.0
O2 O 0.09873 0.24723 0.25046 0.0
C3 C 0.0847 0.15894 0.15875 0.0
O4 O 0.09355 0.14208 0.2098 0.0
C5 C 0.0844 0.33516 0.3421 0.0
O6 O 0.09296 0.35216 0.29099 0.0
O7 O 0.13671 0.30139 0.30979 0.0
O8 O 0.13841 0.30735 0.2099 0.0
H9 H 0.18641 0.22588 0.46351 0.0
H10 H 0.06221 0.27269 0.18233 0.0
O11 O 0.09135 0.20435 0.13705 0.0
H12 H 0.09473 0.44777 0.11229 0.0
H13 H 0.1168 0.27803 0.95112 0.0
H14 H 0.16534 0.26135 0.13436 0.0
H15 H 0.12155 0.36965 0.13062 0.0
H16 H 0.09733 0.26803 0.04903 0.0
O17 O 0.09139 0.28994 0.36385 0.0
H18 H 0.16582 0.23561 0.36661 0.0
H19 H 0.09813 0.22638 0.45186 0.0
H20 H 0.18555 0.27169 0.03747 0.0
H21 H 0.03472 0.34964 0.16413 0.0
H22 H 0.16123 0.28012 0.94496 0.0
H23 H 0.05097 0.43801 0.12906 0.0
O24 O 0.13694 0.19448 0.19113 0.0
H25 H 0.0358 0.14268 0.33697 0.0
H26 H 0.12291 0.12562 0.37014 0.0
H27 H 0.09675 0.04659 0.38854 0.0
H28 H 0.05285 0.05487 0.37195 0.0
H29 H 0.06264 0.22057 0.31872 0.0
H30 H 0.11798 0.21698 0.54978 0.0
H31 H 0.16244 0.21646 0.55598 0.0
O32 O 0.13904 0.18864 0.29102 0.0
C33 C 0.14506 0.32192 0.26197 0.0
C34 C 0.16703 0.22586 0.46137 0.0
C35 C 0.12862 0.22094 0.50979 0.0
N36 N 0.13082 0.23109 0.40356 0.0
C37 C 0.15527 0.2312 0.40662 0.0
C38 C 0.11748 0.22638 0.45426 0.0
C39 C 0.15357 0.22064 0.51324 0.0
C40 C 0.06938 0.31085 0.16647 0.0
N41 N 0.09343 0.31658 0.15722 0.0
C42 C 0.05374 0.35434 0.15649 0.0
C43 C 0.06288 0.40394 0.1369 0.0
C44 C 0.08743 0.40946 0.12752 0.0
C45 C 0.10253 0.36511 0.13806 0.0
C46 C 0.12759 0.2745 0.99112 0.0
C47 C 0.15464 0.26533 0.09434 0.0
C48 C 0.11667 0.26873 0.04665 0.0
N49 N 0.13019 0.26455 0.09736 0.0
C50 C 0.16618 0.27102 0.03959 0.0
C51 C 0.15252 0.27569 0.9877 0.0
C52 C 0.14566 0.17435 0.23895 0.0
C53 C 0.05489 0.13862 0.34454 0.0
C54 C 0.10383 0.12952 0.36278 0.0
C55 C 0.0891 0.08466 0.37336 0.0
C56 C 0.06447 0.08934 0.36408 0.0
N57 N 0.09428 0.17774 0.34368 0.0
C58 C 0.07016 0.18265 0.33453 0.0
Co59 Co 0.38113 0.75546 0.32457 0.0
Co60 Co 0.38065 0.73836 0.17174 0.0
O61 O 0.39707 0.74639 0.24807 0.0
C62 C 0.41107 0.65799 0.33982 0.0
O63 O 0.40218 0.64116 0.28882 0.0
C64 C 0.41145 0.83409 0.15635 0.0
O65 O 0.40294 0.8512 0.20748 0.0
O66 O 0.35912 0.80103 0.18892 0.0
O67 O 0.3575 0.80698 0.28882 0.0
H68 H 0.30916 0.72614 0.03552 0.0
H69 H 0.43369 0.77146 0.31599 0.0
O70 O 0.40449 0.70351 0.36148 0.0
H71 H 0.40146 0.94699 0.38602 0.0
H72 H 0.37932 0.77768 0.54748 0.0
H73 H 0.33058 0.76132 0.36454 0.0
H74 H 0.37452 0.86917 0.36791 0.0
H75 H 0.39869 0.76735 0.44946 0.0
O76 O 0.40438 0.78896 0.13462 0.0
H77 H 0.32985 0.73562 0.1323 0.0
H78 H 0.39745 0.72548 0.04666 0.0
H79 H 0.31048 0.772 0.46155 0.0
H80 H 0.46129 0.8481 0.33396 0.0
H81 H 0.3349 0.78028 0.55389 0.0
H82 H 0.44519 0.9367 0.36904 0.0
O83 O 0.35885 0.69412 0.30764 0.0
H84 H 0.45974 0.64094 0.16123 0.0
H85 H 0.37257 0.62508 0.12855 0.0
H86 H 0.39858 0.54568 0.11003 0.0
H87 H 0.4425 0.55335 0.12637 0.0
H88 H 0.43306 0.7192 0.17961 0.0
H89 H 0.37749 0.71633 0.94886 0.0
H90 H 0.33302 0.7164 0.94292 0.0
O91 O 0.35663 0.68833 0.20775 0.0
C92 C 0.35082 0.82163 0.23678 0.0
C93 C 0.32854 0.72587 0.03755 0.0
C94 C 0.36689 0.72043 0.9889 0.0
N95 N 0.36482 0.73062 0.09514 0.0
C96 C 0.34036 0.73105 0.09224 0.0
C97 C 0.37809 0.72573 0.04437 0.0
C98 C 0.34194 0.72046 0.9856 0.0
C99 C 0.42658 0.80971 0.33185 0.0
N100 N 0.40254 0.81574 0.34122 0.0
C101 C 0.44228 0.85304 0.3417 0.0
C102 C 0.43323 0.90276 0.36129 0.0
C103 C 0.4087 0.90857 0.3708 0.0
C104 C 0.39352 0.86439 0.36038 0.0
C105 C 0.36849 0.77422 0.50754 0.0
C106 C 0.34133 0.76523 0.4045 0.0
C107 C 0.37935 0.76826 0.45196 0.0
N108 N 0.36577 0.76418 0.40133 0.0
C109 C 0.32985 0.77111 0.45931 0.0
C110 C 0.34356 0.7757 0.51111 0.0
C111 C 0.35005 0.6741 0.25987 0.0
C112 C 0.44064 0.63715 0.15377 0.0
C113 C 0.39167 0.62872 0.1358 0.0
C114 C 0.4063 0.58365 0.12515 0.0
C115 C 0.43095 0.58799 0.13429 0.0
N116 N 0.40131 0.67681 0.15483 0.0
C117 C 0.42546 0.68139 0.16385 0.0
Co118 Co 0.88124 0.73699 0.82735 0.0
Co119 Co 0.88064 0.75386 0.67449 0.0
O120 O 0.89712 0.7453 0.75067 0.0
C121 C 0.91171 0.83348 0.84205 0.0
O122 O 0.90284 0.85035 0.79103 0.0
C123 C 0.9109 0.65705 0.65894 0.0
O124 O 0.90237 0.64014 0.71011 0.0
O125 O 0.85872 0.69208 0.69201 0.0
O126 O 0.8572 0.68635 0.79194 0.0
H127 H 0.80901 0.76862 0.539 0.0
H128 H 0.93367 0.71906 0.81839 0.0
O129 O 0.90498 0.78819 0.86391 0.0
H130 H 0.90046 0.54481 0.88889 0.0
H131 H 0.87967 0.71515 0.0503 0.0
H132 H 0.83072 0.73315 0.86787 0.0
H133 H 0.87397 0.62357 0.87086 0.0
H134 H 0.89893 0.72465 0.95207 0.0
O135 O 0.90398 0.70233 0.63723 0.0
H136 H 0.82981 0.75862 0.6356 0.0
H137 H 0.89731 0.76578 0.54918 0.0
H138 H 0.81072 0.72331 0.96509 0.0
H139 H 0.96083 0.64146 0.83626 0.0
H140 H 0.83525 0.71422 0.05719 0.0
H141 H 0.94423 0.5535 0.87158 0.0
O142 O 0.85933 0.79915 0.81051 0.0
H143 H 0.96034 0.84821 0.66313 0.0
H144 H 0.87326 0.8673 0.63095 0.0
H145 H 0.89975 0.94565 0.61202 0.0
H146 H 0.94363 0.93635 0.6281 0.0
H147 H 0.93318 0.77103 0.68194 0.0
H148 H 0.87724 0.77545 0.45156 0.0
H149 H 0.83277 0.77712 0.44611 0.0
O150 O 0.85705 0.80496 0.71063 0.0
C151 C 0.85033 0.67194 0.73999 0.0
C152 C 0.82839 0.76813 0.54082 0.0
C153 C 0.86669 0.77188 0.49174 0.0
N154 N 0.86473 0.76208 0.59804 0.0
C155 C 0.84027 0.76264 0.5954 0.0
C156 C 0.87795 0.7663 0.54711 0.0
C157 C 0.84174 0.77284 0.48871 0.0
C158 C 0.92635 0.68109 0.83436 0.0
N159 N 0.90229 0.67594 0.8439 0.0
C160 C 0.9418 0.63722 0.84414 0.0
C161 C 0.93247 0.58785 0.86388 0.0
C162 C 0.90791 0.58294 0.87357 0.0
C163 C 0.893 0.62765 0.86319 0.0
C164 C 0.86879 0.71897 0.01048 0.0
C165 C 0.84151 0.72888 0.90771 0.0
C166 C 0.87959 0.72446 0.95477 0.0
N167 N 0.86595 0.72899 0.90428 0.0
C168 C 0.83009 0.72348 0.96265 0.0
C169 C 0.84386 0.71843 0.01431 0.0
C170 C 0.85065 0.81955 0.76278 0.0
C171 C 0.94126 0.85271 0.65579 0.0
C172 C 0.89233 0.86296 0.6381 0.0
C173 C 0.90725 0.90743 0.62722 0.0
C174 C 0.93187 0.90218 0.63622 0.0
N175 N 0.90169 0.81456 0.65724 0.0
C176 C 0.92581 0.80908 0.66611 0.0
Co177 Co 0.61497 0.23756 0.67376 0.0
Co178 Co 0.61482 0.25417 0.82664 0.0
O179 O 0.59872 0.24551 0.74998 0.0
C180 C 0.58416 0.33354 0.65837 0.0
O181 O 0.59277 0.35051 0.70961 0.0
C182 C 0.5848 0.15697 0.84121 0.0
O183 O 0.59363 0.1402 0.79027 0.0
O184 O 0.637 0.19266 0.80966 0.0
O185 O 0.63905 0.18728 0.70977 0.0
H186 H 0.68575 0.26953 0.96426 0.0
H187 H 0.56257 0.21871 0.6812 0.0
O188 O 0.59118 0.2884 0.63661 0.0
H189 H 0.59685 0.04517 0.61126 0.0
H190 H 0.61768 0.21615 0.45082 0.0
H191 H 0.66568 0.23464 0.6347 0.0
H192 H 0.62292 0.12436 0.63023 0.0
H193 H 0.59792 0.22512 0.5485 0.0
O194 O 0.59146 0.20234 0.86314 0.0
H195 H 0.66545 0.25939 0.86705 0.0
H196 H 0.59752 0.26582 0.95143 0.0
H197 H 0.68618 0.22535 0.53804 0.0
H198 H 0.53583 0.14067 0.66237 0.0
H199 H 0.66213 0.21601 0.44522 0.0
H200 H 0.55297 0.05307 0.62733 0.0
O201 O 0.63654 0.30004 0.69132 0.0
H202 H 0.53478 0.34761 0.83584 0.0
H203 H 0.62165 0.36767 0.87045 0.0
H204 H 0.59483 0.44571 0.8887 0.0
H205 H 0.55105 0.43592 0.87139 0.0
H206 H 0.56226 0.27075 0.81774 0.0
H207 H 0.61708 0.27561 0.04965 0.0
H208 H 0.66151 0.27773 0.05644 0.0
O209 O 0.63845 0.30556 0.79126 0.0
C210 C 0.64571 0.17278 0.76187 0.0
C211 C 0.66638 0.26885 0.96186 0.0
C212 C 0.62784 0.27218 0.00979 0.0
N213 N 0.63034 0.26248 0.90356 0.0
C214 C 0.65479 0.26328 0.90693 0.0
C215 C 0.61686 0.26653 0.95409 0.0
C216 C 0.65277 0.27339 0.01357 0.0
C217 C 0.57013 0.1809 0.66536 0.0
N218 N 0.59425 0.17618 0.65649 0.0
C219 C 0.55491 0.13678 0.65503 0.0
C220 C 0.56455 0.08761 0.63545 0.0
C221 C 0.58917 0.08314 0.62646 0.0
C222 C 0.60384 0.12809 0.63736 0.0
C223 C 0.62835 0.22008 0.49096 0.0
C224 C 0.6551 0.23025 0.59454 0.0
C225 C 0.61727 0.22527 0.54636 0.0
N226 N 0.63064 0.22994 0.59725 0.0
C227 C 0.6668 0.22516 0.53992 0.0
C228 C 0.6533 0.21998 0.48785 0.0
C229 C 0.64499 0.32037 0.73931 0.0
C230 C 0.55381 0.35233 0.84372 0.0
C231 C 0.60262 0.36312 0.86277 0.0
C232 C 0.58752 0.40742 0.87327 0.0
C233 C 0.56296 0.40189 0.86358 0.0
N234 N 0.59351 0.31463 0.84335 0.0
C235 C 0.56944 0.30888 0.8338 0.0
C236 C 0.32203 0.87812 0.17647 0.0
C237 C 0.33162 0.86309 0.23219 0.0
C238 C 0.30265 0.91412 0.17292 0.0
C239 C 0.26912 0.01663 0.26067 0.0
H240 H 0.21662 0.9815 0.1536 0.0
C241 C 0.17654 0.11412 0.28609 0.0
C242 C 0.16555 0.13464 0.23423 0.0
C243 C 0.19684 0.08121 0.28228 0.0
C244 C 0.23126 0.99209 0.18324 0.0
H245 H 0.32854 0.87516 0.32779 0.0
H246 H 0.29478 0.93702 0.32151 0.0
H247 H 0.25294 0.92583 0.15282 0.0
H248 H 0.16685 0.13474 0.13749 0.0
H249 H 0.20232 0.07675 0.13109 0.0
H250 H 0.24728 0.08214 0.29193 0.0
C251 C 0.30239 0.92167 0.28048 0.0
C252 C 0.25208 0.96038 0.18269 0.0
C253 C 0.32172 0.88585 0.28407 0.0
C254 C 0.17484 0.11968 0.17835 0.0
C255 C 0.19513 0.08641 0.1746 0.0
C256 C 0.2483 0.04805 0.26143 0.0
C257 C 0.29247 0.93588 0.22496 0.0
C258 C 0.27112 0.97189 0.22201 0.0
C259 C 0.20659 0.06778 0.2266 0.0
C260 C 0.22903 0.03567 0.22334 0.0
H261 H 0.3292 0.8614 0.13558 0.0
H262 H 0.29558 0.92478 0.12943 0.0
H263 H 0.28364 0.02728 0.29065 0.0
H264 H 0.16985 0.12442 0.32991 0.0
H265 H 0.20505 0.06657 0.32308 0.0
C266 C 0.17382 0.37823 0.32244 0.0
C267 C 0.16427 0.36326 0.26667 0.0
C268 C 0.19317 0.41422 0.3261 0.0
C269 C 0.22656 0.51694 0.23862 0.0
H270 H 0.27914 0.48167 0.34552 0.0
C271 C 0.31907 0.61415 0.21289 0.0
C272 C 0.33013 0.63458 0.26469 0.0
C273 C 0.29877 0.58137 0.21681 0.0
C274 C 0.26448 0.49231 0.31594 0.0
H275 H 0.16739 0.37541 0.17109 0.0
H276 H 0.20109 0.43728 0.17757 0.0
H277 H 0.24287 0.42598 0.34626 0.0
H278 H 0.32892 0.63467 0.36144 0.0
H279 H 0.29344 0.5769 0.36803 0.0
H280 H 0.24832 0.58251 0.20745 0.0
C281 C 0.19347 0.42188 0.21855 0.0
C282 C 0.24369 0.46058 0.31647 0.0
C283 C 0.17418 0.38605 0.21485 0.0
C284 C 0.32088 0.61968 0.32062 0.0
C285 C 0.30058 0.58653 0.32448 0.0
C286 C 0.24735 0.54839 0.23789 0.0
C287 C 0.20334 0.43605 0.27413 0.0
C288 C 0.22464 0.47212 0.27718 0.0
C289 C 0.28908 0.56798 0.27254 0.0
C290 C 0.26665 0.53594 0.2759 0.0
H291 H 0.16664 0.36148 0.36329 0.0
H292 H 0.20019 0.42485 0.36962 0.0
H293 H 0.21203 0.52761 0.20869 0.0
H294 H 0.32573 0.62442 0.16904 0.0
H295 H 0.29053 0.56679 0.17605 0.0
C296 C 0.67502 0.11801 0.82258 0.0
C297 C 0.66562 0.1331 0.76666 0.0
C298 C 0.69532 0.08473 0.82641 0.0
C299 C 0.74829 0.04649 0.73978 0.0
H300 H 0.75309 0.92377 0.84777 0.0
C301 C 0.82209 0.87573 0.82355 0.0
C302 C 0.83141 0.86083 0.7677 0.0
C303 C 0.80275 0.91178 0.82741 0.0
C304 C 0.75218 0.95846 0.81808 0.0
H305 H 0.66974 0.1231 0.67099 0.0
H306 H 0.70494 0.06523 0.67794 0.0
H307 H 0.71683 0.97971 0.84722 0.0
H308 H 0.82786 0.87311 0.67215 0.0
H309 H 0.79418 0.93509 0.67898 0.0
H310 H 0.78349 0.02554 0.71046 0.0
C311 C 0.69682 0.07978 0.71872 0.0
C312 C 0.7314 0.99033 0.81767 0.0
C313 C 0.67652 0.1127 0.71484 0.0
C314 C 0.82126 0.8837 0.71598 0.0
C315 C 0.80198 0.91959 0.71987 0.0
C316 C 0.76906 0.0149 0.74039 0.0
C317 C 0.70667 0.06622 0.77444 0.0
C318 C 0.72911 0.03407 0.77775 0.0
C319 C 0.79236 0.93374 0.77554 0.0
C320 C 0.7711 0.96996 0.77879 0.0
H321 H 0.6671 0.13298 0.86342 0.0
H322 H 0.70259 0.07497 0.86995 0.0
H323 H 0.74722 0.0807 0.70944 0.0
H324 H 0.82946 0.85891 0.86432 0.0
H325 H 0.79591 0.92237 0.87099 0.0
C326 C 0.81992 0.61136 0.78771 0.0
C327 C 0.83049 0.6321 0.73566 0.0
C328 C 0.79964 0.57839 0.78431 0.0
C329 C 0.76453 0.48975 0.68562 0.0
H330 H 0.71292 0.52452 0.79453 0.0
C331 C 0.67358 0.37697 0.67927 0.0
C332 C 0.66425 0.3616 0.73494 0.0
C333 C 0.69301 0.4127 0.67585 0.0
C334 C 0.72722 0.51398 0.76415 0.0
H335 H 0.82847 0.6325 0.63896 0.0
H336 H 0.79304 0.57445 0.63326 0.0
H337 H 0.74931 0.57911 0.79546 0.0
H338 H 0.66784 0.37281 0.83062 0.0
H339 H 0.70171 0.43422 0.82455 0.0
H340 H 0.74259 0.4239 0.65509 0.0
C341 C 0.80054 0.58396 0.67662 0.0
C342 C 0.74806 0.54525 0.7647 0.0
C343 C 0.82081 0.61727 0.67997 0.0
C344 C 0.67445 0.38378 0.78693 0.0
C345 C 0.69385 0.41933 0.78347 0.0
C346 C 0.74368 0.45821 0.68527 0.0
C347 C 0.78949 0.56513 0.72884 0.0
C348 C 0.76705 0.53304 0.72602 0.0
C349 C 0.70351 0.43385 0.72797 0.0
C350 C 0.72492 0.46958 0.72509 0.0
H351 H 0.82692 0.62156 0.83139 0.0
H352 H 0.79176 0.5636 0.82527 0.0
H353 H 0.77894 0.47929 0.65553 0.0
H354 H 0.66616 0.36072 0.63829 0.0
H355 H 0.69986 0.42364 0.63238 0.0
C356 C 0.05866 0.07629 0.15074 0.0
C357 C 0.06687 0.12554 0.12647 0.0
C358 C 0.04182 0.04478 0.12006 0.0
C359 C 0.01695 0.02112 0.96969 0.0
H360 H 0.96465 0.95368 0.05562 0.0
C361 C 0.93771 0.91618 0.84998 0.0
C362 C 0.92954 0.86691 0.87428 0.0
C363 C 0.95449 0.94783 0.88069 0.0
C364 C 0.9793 0.97176 0.03109 0.0
H365 H 0.06372 0.18055 0.05113 0.0
H366 H 0.03423 0.12579 0.99797 0.0
H367 H 0.9939 0.00868 0.10958 0.0
H368 H 0.9327 0.81201 0.94971 0.0
H369 H 0.9621 0.86701 0.0029 0.0
H370 H 0.00235 0.9842 0.8912 0.0
C371 C 0.04104 0.11117 0.04032 0.0
C372 C 0.99605 0.00326 0.062 0.0
C373 C 0.05784 0.14269 0.07099 0.0
C374 C 0.93856 0.84988 0.92982 0.0
C375 C 0.9553 0.88154 0.96051 0.0
C376 C 0.00019 0.98963 0.93878 0.0
C377 C 0.03286 0.06183 0.06445 0.0
C378 C 0.01507 0.02828 0.03165 0.0
C379 C 0.96343 0.93091 0.93634 0.0
C380 C 0.98119 0.96457 0.96913 0.0
H381 H 0.06524 0.06195 0.19342 0.0
H382 H 0.03606 0.00668 0.13954 0.0
H383 H 0.03159 0.0392 0.94516 0.0
H384 H 0.93113 0.93046 0.80727 0.0
H385 H 0.96021 0.98596 0.86118 0.0
C386 C 0.55856 0.0746 0.8483 0.0
C387 C 0.56695 0.12356 0.87306 0.0
C388 C 0.54166 0.04316 0.87853 0.0
C389 C 0.49552 0.05158 0.9956 0.0
H390 H 0.5028 0.89471 0.00116 0.0
C391 C 0.43787 0.91603 0.14825 0.0
C392 C 0.42931 0.86703 0.12395 0.0
C393 C 0.45466 0.94724 0.11743 0.0
C394 C 0.50037 0.93842 0.99947 0.0
H395 H 0.56419 0.17794 0.94897 0.0
H396 H 0.53493 0.12284 0.00182 0.0
H397 H 0.53202 0.94941 0.94728 0.0
H398 H 0.43171 0.81227 0.04829 0.0
H399 H 0.46085 0.86698 0.99441 0.0
H400 H 0.4639 0.0406 0.04785 0.0
C401 C 0.54117 0.10906 0.95875 0.0
C402 C 0.5171 0.96974 0.96858 0.0
C403 C 0.55806 0.14048 0.92858 0.0
C404 C 0.43797 0.84979 0.06832 0.0
C405 C 0.45478 0.88097 0.03756 0.0
C406 C 0.4788 0.02026 0.02649 0.0
C407 C 0.53279 0.06006 0.93409 0.0
C408 C 0.51488 0.02668 0.96637 0.0
C409 C 0.46328 0.93008 0.06172 0.0
C410 C 0.48105 0.96334 0.02884 0.0
H411 H 0.56495 0.06059 0.80544 0.0
H412 H 0.53532 0.00594 0.85801 0.0
H413 H 0.49309 0.09528 0.99395 0.0
H414 H 0.43166 0.93031 0.19118 0.0
H415 H 0.46112 0.98452 0.1376 0.0
C416 C 0.93735 0.57499 0.65101 0.0
C417 C 0.92874 0.62393 0.62659 0.0
C418 C 0.95424 0.54382 0.62033 0.0
C419 C 0.97863 0.52031 0.46992 0.0
H420 H 0.03174 0.45474 0.5558 0.0
C421 C 0.05801 0.41729 0.35008 0.0
C422 C 0.06658 0.36829 0.37447 0.0
C423 C 0.04119 0.44859 0.38082 0.0
C424 C 0.01687 0.4723 0.53128 0.0
H425 H 0.93122 0.67873 0.55099 0.0
H426 H 0.96079 0.62457 0.49784 0.0
H427 H 0.00235 0.50906 0.60971 0.0
H428 H 0.0641 0.31355 0.45011 0.0
H429 H 0.03464 0.36794 0.50339 0.0
H430 H 0.99314 0.48355 0.39149 0.0
C431 C 0.95426 0.60992 0.5403 0.0
C432 C 3e-05 0.5034 0.56217 0.0
C433 C 0.93741 0.6411 0.57096 0.0
C434 C 0.05793 0.3512 0.43015 0.0
C435 C 0.04115 0.38253 0.46088 0.0
C436 C 0.99547 0.48921 0.43903 0.0
C437 C 0.96285 0.5609 0.56459 0.0
C438 C 0.98072 0.52775 0.53183 0.0
C439 C 0.0326 0.43159 0.4366 0.0
C440 C 0.01477 0.46484 0.46937 0.0
H441 H 0.93106 0.56065 0.69382 0.0
H442 H 0.96032 0.50595 0.63994 0.0
H443 H 0.96376 0.53786 0.4454 0.0
H444 H 0.0643 0.43159 0.30725 0.0
H445 H 0.03515 0.4865 0.36122 0.0
C446 C 0.43719 0.57532 0.34769 0.0
C447 C 0.42888 0.62446 0.37211 0.0
C448 C 0.45403 0.54374 0.37838 0.0
C449 C 0.50017 0.55183 0.4964 0.0
H450 H 0.49265 0.39507 0.50214 0.0
C451 C 0.55779 0.41571 0.65003 0.0
C452 C 0.56627 0.36664 0.62582 0.0
C453 C 0.54098 0.44709 0.61902 0.0
C454 C 0.49514 0.43874 0.50042 0.0
H455 H 0.43173 0.67901 0.4479 0.0
H456 H 0.46089 0.62367 0.50155 0.0
H457 H 0.4635 0.45004 0.4476 0.0
H458 H 0.56371 0.31191 0.55012 0.0
H459 H 0.53455 0.36689 0.49591 0.0
H460 H 0.53179 0.54053 0.54926 0.0
C461 C 0.45463 0.60986 0.45838 0.0
C462 C 0.47845 0.47022 0.46915 0.0
C463 C 0.4378 0.64141 0.42775 0.0
C464 C 0.55751 0.34948 0.57009 0.0
C465 C 0.5407 0.38083 0.53914 0.0
C466 C 0.51685 0.52035 0.52768 0.0
C467 C 0.46293 0.56066 0.43407 0.0
C468 C 0.48077 0.52713 0.46684 0.0
C469 C 0.53227 0.43002 0.5632 0.0
C470 C 0.51451 0.46346 0.53007 0.0
H471 H 0.43078 0.56127 0.30474 0.0
H472 H 0.46031 0.50638 0.35811 0.0
H473 H 0.50266 0.5955 0.4947 0.0
H474 H 0.56408 0.42993 0.69303 0.0
H475 H 0.53459 0.48443 0.63911 0.0
loop_
_geom_bond_atom_site_label_1
_geom_bond_atom_site_label_2
_geom_bond_distance
_geom_bond_site_symmetry_2
_ccdc_geom_bond_type
Co0 O2 2.143 . S
Co0 O8 2.074 . S
Co0 O11 2.093 . S
Co0 O24 2.097 . S
Co0 N41 2.151 . S
Co0 N49 2.214 . S
Co1 O2 2.160 . S
Co1 O7 2.058 . S
Co1 O17 2.057 . S
Co1 O32 2.037 . S
Co1 N36 2.145 . S
Co1 N57 2.257 . S
O2 Co0 2.143 . S
O2 Co1 2.160 . S
C3 O4 1.278 . S
C3 O11 1.224 . S
O4 C3 1.278 . S
C5 O6 1.245 . S
C5 O17 1.232 . S
O6 C5 1.245 . S
O7 Co1 2.058 . S
O7 C33 1.269 . S
O8 Co0 2.074 . S
O8 C33 1.257 . S
H9 C34 0.930 . S
H10 C40 0.930 . S
O11 Co0 2.093 . S
O11 C3 1.224 . S
H12 C44 0.929 . S
H13 C46 0.930 . S
H14 C47 0.930 . S
H15 C45 0.929 . S
H16 C48 0.928 . S
O17 Co1 2.057 . S
O17 C5 1.232 . S
H18 C37 0.929 . S
H19 C38 0.929 . S
H20 C50 0.931 . S
H21 C42 0.929 . S
H22 C51 0.930 1_556 S
H23 C43 0.931 . S
O24 Co0 2.097 . S
O24 C52 1.214 . S
H25 C53 0.929 . S
H26 C54 0.929 . S
H27 C55 0.930 . S
H28 C56 0.929 . S
H29 C58 0.930 . S
H30 C35 0.930 . S
H31 C39 0.930 . S
O32 Co1 2.037 . S
O32 C52 1.234 . S
C33 O7 1.269 . S
C33 O8 1.257 . S
C34 H9 0.930 . S
C34 C37 1.388 . S
C34 C39 1.418 . S
C35 H30 0.930 . S
C35 C38 1.404 . S
C35 C39 1.353 . S
N36 Co1 2.145 . S
N36 C37 1.397 . S
N36 C38 1.334 . S
C37 H18 0.929 . S
C37 C34 1.388 . S
C37 N36 1.397 . S
C38 H19 0.929 . S
C38 C35 1.404 . S
C38 N36 1.334 . S
C39 H31 0.930 . S
C39 C34 1.418 . S
C39 C35 1.353 . S
C40 H10 0.930 . S
C40 N41 1.330 . S
C40 C42 1.446 . S
N41 Co0 2.151 . S
N41 C40 1.330 . S
N41 C45 1.418 . S
C42 H21 0.929 . S
C42 C40 1.446 . S
C42 C43 1.332 . S
C43 H23 0.931 . S
C43 C42 1.332 . S
C43 C44 1.267 . S
C44 H12 0.929 . S
C44 C43 1.267 . S
C44 C45 1.251 . S
C45 H15 0.929 . S
C45 N41 1.418 . S
C45 C44 1.251 . S
C46 H13 0.930 . S
C46 C48 1.406 1_556 S
C46 C51 1.261 1_556 S
C47 H14 0.930 . S
C47 N49 1.325 . S
C47 C50 1.357 . S
C48 H16 0.928 . S
C48 C46 1.406 1_554 S
C48 N49 1.261 . S
N49 Co0 2.214 . S
N49 C47 1.325 . S
N49 C48 1.261 . S
C50 H20 0.931 . S
C50 C47 1.357 . S
C50 C51 1.312 . S
C51 H22 0.930 1_554 S
C51 C46 1.261 1_554 S
C51 C50 1.312 . S
C52 O24 1.214 . S
C52 O32 1.234 . S
C53 H25 0.929 . S
C53 C56 1.391 . S
C53 C58 1.391 . S
C54 H26 0.929 . S
C54 C55 1.390 . S
C54 N57 1.391 . S
C55 H27 0.930 . S
C55 C54 1.390 . S
C55 C56 1.392 . S
C56 H28 0.929 . S
C56 C53 1.391 . S
C56 C55 1.392 . S
N57 Co1 2.257 . S
N57 C54 1.391 . S
N57 C58 1.388 . S
C58 H29 0.930 . S
C58 C53 1.391 . S
C58 N57 1.388 . S
Co59 O61 2.143 . S
Co59 O67 2.074 . S
Co59 O70 2.093 . S
Co59 O83 2.097 . S
Co59 N100 2.151 . S
Co59 N108 2.214 . S
Co60 O61 2.160 . S
Co60 O66 2.058 . S
Co60 O76 2.057 . S
Co60 O91 2.037 . S
Co60 N95 2.145 . S
Co60 N116 2.257 . S
O61 Co59 2.143 . S
O61 Co60 2.160 . S
C62 O63 1.278 . S
C62 O70 1.224 . S
O63 C62 1.278 . S
C64 O65 1.245 . S
C64 O76 1.232 . S
O65 C64 1.245 . S
O66 Co60 2.058 . S
O66 C92 1.269 . S
O67 Co59 2.074 . S
O67 C92 1.257 . S
H68 C93 0.930 . S
H69 C99 0.930 . S
O70 Co59 2.093 . S
O70 C62 1.224 . S
H71 C103 0.929 . S
H72 C105 0.930 . S
H73 C106 0.930 . S
H74 C104 0.929 . S
H75 C107 0.928 . S
O76 Co60 2.057 . S
O76 C64 1.232 . S
H77 C96 0.929 . S
H78 C97 0.929 . S
H79 C109 0.931 . S
H80 C101 0.929 . S
H81 C110 0.930 . S
H82 C102 0.931 . S
O83 Co59 2.097 . S
O83 C111 1.214 . S
H84 C112 0.929 . S
H85 C113 0.929 . S
H86 C114 0.930 . S
H87 C115 0.929 . S
H88 C117 0.930 . S
H89 C94 0.930 . S
H90 C98 0.930 . S
O91 Co60 2.037 . S
O91 C111 1.234 . S
C92 O66 1.269 . S
C92 O67 1.257 . S
C93 H68 0.930 . S
C93 C96 1.388 . S
C93 C98 1.418 1_554 S
C94 H89 0.930 . S
C94 C97 1.404 1_556 S
C94 C98 1.353 . S
N95 Co60 2.145 . S
N95 C96 1.397 . S
N95 C97 1.334 . S
C96 H77 0.929 . S
C96 C93 1.388 . S
C96 N95 1.397 . S
C97 H78 0.929 . S
C97 C94 1.404 1_554 S
C97 N95 1.334 . S
C98 H90 0.930 . S
C98 C93 1.418 1_556 S
C98 C94 1.353 . S
C99 H69 0.930 . S
C99 N100 1.330 . S
C99 C101 1.446 . S
N100 Co59 2.151 . S
N100 C99 1.330 . S
N100 C104 1.418 . S
C101 H80 0.929 . S
C101 C99 1.446 . S
C101 C102 1.332 . S
C102 H82 0.931 . S
C102 C101 1.332 . S
C102 C103 1.267 . S
C103 H71 0.929 . S
C103 C102 1.267 . S
C103 C104 1.251 . S
C104 H74 0.929 . S
C104 N100 1.418 . S
C104 C103 1.251 . S
C105 H72 0.930 . S
C105 C107 1.406 . S
C105 C110 1.261 . S
C106 H73 0.930 . S
C106 N108 1.325 . S
C106 C109 1.357 . S
C107 H75 0.928 . S
C107 C105 1.406 . S
C107 N108 1.261 . S
N108 Co59 2.214 . S
N108 C106 1.325 . S
N108 C107 1.261 . S
C109 H79 0.931 . S
C109 C106 1.357 . S
C109 C110 1.312 . S
C110 H81 0.930 . S
C110 C105 1.261 . S
C110 C109 1.312 . S
C111 O83 1.214 . S
C111 O91 1.234 . S
C112 H84 0.929 . S
C112 C115 1.391 . S
C112 C117 1.391 . S
C113 H85 0.929 . S
C113 C114 1.390 . S
C113 N116 1.391 . S
C114 H86 0.930 . S
C114 C113 1.390 . S
C114 C115 1.392 . S
C115 H87 0.929 . S
C115 C112 1.391 . S
C115 C114 1.392 . S
N116 Co60 2.257 . S
N116 C113 1.391 . S
N116 C117 1.388 . S
C117 H88 0.930 . S
C117 C112 1.391 . S
C117 N116 1.388 . S
Co118 O120 2.143 . S
Co118 O126 2.074 . S
Co118 O129 2.093 . S
Co118 O142 2.097 . S
Co118 N159 2.151 . S
Co118 N167 2.214 . S
Co119 O120 2.160 . S
Co119 O125 2.058 . S
Co119 O135 2.057 . S
Co119 O150 2.037 . S
Co119 N154 2.145 . S
Co119 N175 2.257 . S
O120 Co118 2.143 . S
O120 Co119 2.160 . S
C121 O122 1.278 . S
C121 O129 1.224 . S
O122 C121 1.278 . S
C123 O124 1.245 . S
C123 O135 1.232 . S
O124 C123 1.245 . S
O125 Co119 2.058 . S
O125 C151 1.269 . S
O126 Co118 2.074 . S
O126 C151 1.257 . S
H127 C152 0.930 . S
H128 C158 0.930 . S
O129 Co118 2.093 . S
O129 C121 1.224 . S
H130 C162 0.929 . S
H131 C164 0.930 . S
H132 C165 0.930 . S
H133 C163 0.929 . S
H134 C166 0.928 . S
O135 Co119 2.057 . S
O135 C123 1.232 . S
H136 C155 0.929 . S
H137 C156 0.929 . S
H138 C168 0.931 . S
H139 C160 0.929 . S
H140 C169 0.930 1_554 S
H141 C161 0.931 . S
O142 Co118 2.097 . S
O142 C170 1.214 . S
H143 C171 0.929 . S
H144 C172 0.929 . S
H145 C173 0.930 . S
H146 C174 0.929 . S
H147 C176 0.930 . S
H148 C153 0.930 . S
H149 C157 0.930 . S
O150 Co119 2.037 . S
O150 C170 1.234 . S
C151 O125 1.269 . S
C151 O126 1.257 . S
C152 H127 0.930 . S
C152 C155 1.388 . S
C152 C157 1.418 . S
C153 H148 0.930 . S
C153 C156 1.404 . S
C153 C157 1.353 . S
N154 Co119 2.145 . S
N154 C155 1.397 . S
N154 C156 1.334 . S
C155 H136 0.929 . S
C155 C152 1.388 . S
C155 N154 1.397 . S
C156 H137 0.929 . S
C156 C153 1.404 . S
C156 N154 1.334 . S
C157 H149 0.930 . S
C157 C152 1.418 . S
C157 C153 1.353 . S
C158 H128 0.930 . S
C158 N159 1.330 . S
C158 C160 1.446 . S
N159 Co118 2.151 . S
N159 C158 1.330 . S
N159 C163 1.418 . S
C160 H139 0.929 . S
C160 C158 1.446 . S
C160 C161 1.332 . S
C161 H141 0.931 . S
C161 C160 1.332 . S
C161 C162 1.267 . S
C162 H130 0.929 . S
C162 C161 1.267 . S
C162 C163 1.251 . S
C163 H133 0.929 . S
C163 N159 1.418 . S
C163 C162 1.251 . S
C164 H131 0.930 . S
C164 C166 1.406 1_554 S
C164 C169 1.261 1_554 S
C165 H132 0.930 . S
C165 N167 1.325 . S
C165 C168 1.357 . S
C166 H134 0.928 . S
C166 C164 1.406 1_556 S
C166 N167 1.261 . S
N167 Co118 2.214 . S
N167 C165 1.325 . S
N167 C166 1.261 . S
C168 H138 0.931 . S
C168 C165 1.357 . S
C168 C169 1.312 . S
C169 H140 0.930 1_556 S
C169 C164 1.261 1_556 S
C169 C168 1.312 . S
C170 O142 1.214 . S
C170 O150 1.234 . S
C171 H143 0.929 . S
C171 C174 1.391 . S
C171 C176 1.391 . S
C172 H144 0.929 . S
C172 C173 1.390 . S
C172 N175 1.391 . S
C173 H145 0.930 . S
C173 C172 1.390 . S
C173 C174 1.392 . S
C174 H146 0.929 . S
C174 C171 1.391 . S
C174 C173 1.392 . S
N175 Co119 2.257 . S
N175 C172 1.391 . S
N175 C176 1.388 . S
C176 H147 0.930 . S
C176 C171 1.391 . S
C176 N175 1.388 . S
Co177 O179 2.143 . S
Co177 O185 2.074 . S
Co177 O188 2.093 . S
Co177 O201 2.097 . S
Co177 N218 2.151 . S
Co177 N226 2.214 . S
Co178 O179 2.160 . S
Co178 O184 2.058 . S
Co178 O194 2.057 . S
Co178 O209 2.037 . S
Co178 N213 2.145 . S
Co178 N234 2.257 . S
O179 Co177 2.143 . S
O179 Co178 2.160 . S
C180 O181 1.278 . S
C180 O188 1.224 . S
O181 C180 1.278 . S
C182 O183 1.245 . S
C182 O194 1.232 . S
O183 C182 1.245 . S
O184 Co178 2.058 . S
O184 C210 1.269 . S
O185 Co177 2.074 . S
O185 C210 1.257 . S
H186 C211 0.930 . S
H187 C217 0.930 . S
O188 Co177 2.093 . S
O188 C180 1.224 . S
H189 C221 0.929 . S
H190 C223 0.930 . S
H191 C224 0.930 . S
H192 C222 0.929 . S
H193 C225 0.928 . S
O194 Co178 2.057 . S
O194 C182 1.232 . S
H195 C214 0.929 . S
H196 C215 0.929 . S
H197 C227 0.931 . S
H198 C219 0.929 . S
H199 C228 0.930 . S
H200 C220 0.931 . S
O201 Co177 2.097 . S
O201 C229 1.214 . S
H202 C230 0.929 . S
H203 C231 0.929 . S
H204 C232 0.930 . S
H205 C233 0.929 . S
H206 C235 0.930 . S
H207 C212 0.930 . S
H208 C216 0.930 . S
O209 Co178 2.037 . S
O209 C229 1.234 . S
C210 O184 1.269 . S
C210 O185 1.257 . S
C211 H186 0.930 . S
C211 C214 1.388 . S
C211 C216 1.418 1_556 S
C212 H207 0.930 . S
C212 C215 1.404 1_554 S
C212 C216 1.353 . S
N213 Co178 2.145 . S
N213 C214 1.397 . S
N213 C215 1.334 . S
C214 H195 0.929 . S
C214 C211 1.388 . S
C214 N213 1.397 . S
C215 H196 0.929 . S
C215 C212 1.404 1_556 S
C215 N213 1.334 . S
C216 H208 0.930 . S
C216 C211 1.418 1_554 S
C216 C212 1.353 . S
C217 H187 0.930 . S
C217 N218 1.330 . S
C217 C219 1.446 . S
N218 Co177 2.151 . S
N218 C217 1.330 . S
N218 C222 1.418 . S
C219 H198 0.929 . S
C219 C217 1.446 . S
C219 C220 1.332 . S
C220 H200 0.931 . S
C220 C219 1.332 . S
C220 C221 1.267 . S
C221 H189 0.929 . S
C221 C220 1.267 . S
C221 C222 1.251 . S
C222 H192 0.929 . S
C222 N218 1.418 . S
C222 C221 1.251 . S
C223 H190 0.930 . S
C223 C225 1.406 . S
C223 C228 1.261 . S
C224 H191 0.930 . S
C224 N226 1.325 . S
C224 C227 1.357 . S
C225 H193 0.928 . S
C225 C223 1.406 . S
C225 N226 1.261 . S
N226 Co177 2.214 . S
N226 C224 1.325 . S
N226 C225 1.261 . S
C227 H197 0.931 . S
C227 C224 1.357 . S
C227 C228 1.312 . S
C228 H199 0.930 . S
C228 C223 1.261 . S
C228 C227 1.312 . S
C229 O201 1.214 . S
C229 O209 1.234 . S
C230 H202 0.929 . S
C230 C233 1.391 . S
C230 C235 1.391 . S
C231 H203 0.929 . S
C231 C232 1.390 . S
C231 N234 1.391 . S
C232 H204 0.930 . S
C232 C231 1.390 . S
C232 C233 1.392 . S
C233 H205 0.929 . S
C233 C230 1.391 . S
C233 C232 1.392 . S
N234 Co178 2.257 . S
N234 C231 1.391 . S
N234 C235 1.388 . S
C235 H206 0.930 . S
C235 C230 1.391 . S
C235 N234 1.388 . S
C236 C237 1.349 . S
C236 C238 1.327 . S
C236 H261 0.950 . S
C237 C236 1.349 . S
C237 C253 1.349 . S
C238 C236 1.327 . S
C238 C257 1.429 . S
C238 H262 0.950 . S
C239 C256 1.574 . S
C239 C258 1.368 1_545 S
C239 H263 0.949 . S
H240 C244 0.949 . S
C241 C242 1.349 . S
C241 C243 1.327 . S
C241 H264 0.950 . S
C242 C241 1.349 . S
C242 C254 1.349 . S
C243 C241 1.327 . S
C243 C259 1.429 . S
C243 H265 0.950 . S
C244 H240 0.949 . S
C244 C252 1.574 . S
C244 C260 1.368 1_565 S
H245 C253 0.950 . S
H246 C251 0.950 . S
H247 C252 0.949 . S
H248 C254 0.950 . S
H249 C255 0.950 . S
H250 C256 0.949 . S
C251 H246 0.950 . S
C251 C253 1.327 . S
C251 C257 1.429 . S
C252 C244 1.574 . S
C252 H247 0.949 . S
C252 C258 1.368 . S
C253 C237 1.349 . S
C253 H245 0.950 . S
C253 C251 1.327 . S
C254 C242 1.349 . S
C254 H248 0.950 . S
C254 C255 1.327 . S
C255 H249 0.950 . S
C255 C254 1.327 . S
C255 C259 1.429 . S
C256 C239 1.574 . S
C256 H250 0.949 . S
C256 C260 1.368 . S
C257 C238 1.429 . S
C257 C251 1.429 . S
C257 C258 1.523 . S
C258 C239 1.368 1_565 S
C258 C252 1.368 . S
C258 C257 1.523 . S
C259 C243 1.429 . S
C259 C255 1.429 . S
C259 C260 1.523 . S
C260 C244 1.368 1_545 S
C260 C256 1.368 . S
C260 C259 1.523 . S
H261 C236 0.950 . S
H262 C238 0.950 . S
H263 C239 0.949 . S
H264 C241 0.950 . S
H265 C243 0.950 . S
C266 C267 1.349 . S
C266 C268 1.327 . S
C266 H291 0.950 . S
C267 C266 1.349 . S
C267 C283 1.349 . S
C268 C266 1.327 . S
C268 C287 1.429 . S
C268 H292 0.950 . S
C269 C286 1.574 . S
C269 C288 1.368 . S
C269 H293 0.949 . S
H270 C274 0.949 . S
C271 C272 1.349 . S
C271 C273 1.327 . S
C271 H294 0.950 . S
C272 C271 1.349 . S
C272 C284 1.349 . S
C273 C271 1.327 . S
C273 C289 1.429 . S
C273 H295 0.950 . S
C274 H270 0.949 . S
C274 C282 1.574 . S
C274 C290 1.368 . S
H275 C283 0.950 . S
H276 C281 0.950 . S
H277 C282 0.949 . S
H278 C284 0.950 . S
H279 C285 0.950 . S
H280 C286 0.949 . S
C281 H276 0.950 . S
C281 C283 1.327 . S
C281 C287 1.429 . S
C282 C274 1.574 . S
C282 H277 0.949 . S
C282 C288 1.368 . S
C283 C267 1.349 . S
C283 H275 0.950 . S
C283 C281 1.327 . S
C284 C272 1.349 . S
C284 H278 0.950 . S
C284 C285 1.327 . S
C285 H279 0.950 . S
C285 C284 1.327 . S
C285 C289 1.429 . S
C286 C269 1.574 . S
C286 H280 0.949 . S
C286 C290 1.368 . S
C287 C268 1.429 . S
C287 C281 1.429 . S
C287 C288 1.523 . S
C288 C269 1.368 . S
C288 C282 1.368 . S
C288 C287 1.523 . S
C289 C273 1.429 . S
C289 C285 1.429 . S
C289 C290 1.523 . S
C290 C274 1.368 . S
C290 C286 1.368 . S
C290 C289 1.523 . S
H291 C266 0.950 . S
H292 C268 0.950 . S
H293 C269 0.949 . S
H294 C271 0.950 . S
H295 C273 0.950 . S
C296 C297 1.349 . S
C296 C298 1.327 . S
C296 H321 0.950 . S
C297 C296 1.349 . S
C297 C313 1.349 . S
C298 C296 1.327 . S
C298 C317 1.429 . S
C298 H322 0.950 . S
C299 C316 1.574 . S
C299 C318 1.368 . S
C299 H323 0.949 . S
H300 C304 0.949 . S
C301 C302 1.349 . S
C301 C303 1.327 . S
C301 H324 0.950 . S
C302 C301 1.349 . S
C302 C314 1.349 . S
C303 C301 1.327 . S
C303 C319 1.429 . S
C303 H325 0.950 . S
C304 H300 0.949 . S
C304 C312 1.574 . S
C304 C320 1.368 . S
H305 C313 0.950 . S
H306 C311 0.950 . S
H307 C312 0.949 . S
H308 C314 0.950 . S
H309 C315 0.950 . S
H310 C316 0.949 . S
C311 H306 0.950 . S
C311 C313 1.327 . S
C311 C317 1.429 . S
C312 C304 1.574 . S
C312 H307 0.949 . S
C312 C318 1.368 1_565 S
C313 C297 1.349 . S
C313 H305 0.950 . S
C313 C311 1.327 . S
C314 C302 1.349 . S
C314 H308 0.950 . S
C314 C315 1.327 . S
C315 H309 0.950 . S
C315 C314 1.327 . S
C315 C319 1.429 . S
C316 C299 1.574 . S
C316 H310 0.949 . S
C316 C320 1.368 1_545 S
C317 C298 1.429 . S
C317 C311 1.429 . S
C317 C318 1.523 . S
C318 C299 1.368 . S
C318 C312 1.368 1_545 S
C318 C317 1.523 . S
C319 C303 1.429 . S
C319 C315 1.429 . S
C319 C320 1.523 . S
C320 C304 1.368 . S
C320 C316 1.368 1_565 S
C320 C319 1.523 . S
H321 C296 0.950 . S
H322 C298 0.950 . S
H323 C299 0.949 . S
H324 C301 0.950 . S
H325 C303 0.950 . S
C326 C327 1.349 . S
C326 C328 1.327 . S
C326 H351 0.950 . S
C327 C326 1.349 . S
C327 C343 1.349 . S
C328 C326 1.327 . S
C328 C347 1.429 . S
C328 H352 0.950 . S
C329 C346 1.574 . S
C329 C348 1.368 . S
C329 H353 0.949 . S
H330 C334 0.949 . S
C331 C332 1.349 . S
C331 C333 1.327 . S
C331 H354 0.950 . S
C332 C331 1.349 . S
C332 C344 1.349 . S
C333 C331 1.327 . S
C333 C349 1.429 . S
C333 H355 0.950 . S
C334 H330 0.949 . S
C334 C342 1.574 . S
C334 C350 1.368 . S
H335 C343 0.950 . S
H336 C341 0.950 . S
H337 C342 0.949 . S
H338 C344 0.950 . S
H339 C345 0.950 . S
H340 C346 0.949 . S
C341 H336 0.950 . S
C341 C343 1.327 . S
C341 C347 1.429 . S
C342 C334 1.574 . S
C342 H337 0.949 . S
C342 C348 1.368 . S
C343 C327 1.349 . S
C343 H335 0.950 . S
C343 C341 1.327 . S
C344 C332 1.349 . S
C344 H338 0.950 . S
C344 C345 1.327 . S
C345 H339 0.950 . S
C345 C344 1.327 . S
C345 C349 1.429 . S
C346 C329 1.574 . S
C346 H340 0.949 . S
C346 C350 1.368 . S
C347 C328 1.429 . S
C347 C341 1.429 . S
C347 C348 1.523 . S
C348 C329 1.368 . S
C348 C342 1.368 . S
C348 C347 1.523 . S
C349 C333 1.429 . S
C349 C345 1.429 . S
C349 C350 1.523 . S
C350 C334 1.368 . S
C350 C346 1.368 . S
C350 C349 1.523 . S
H351 C326 0.950 . S
H352 C328 0.950 . S
H353 C329 0.949 . S
H354 C331 0.950 . S
H355 C333 0.950 . S
C356 C357 1.349 . S
C356 C358 1.327 . S
C356 H381 0.950 . S
C357 C356 1.349 . S
C357 C373 1.349 . S
C358 C356 1.327 . S
C358 C377 1.429 . S
C358 H382 0.950 . S
C359 C376 1.574 1_554 S
C359 C378 1.368 1_655 S
C359 H383 0.949 . S
H360 C364 0.949 . S
C361 C362 1.349 . S
C361 C363 1.327 . S
C361 H384 0.950 . S
C362 C361 1.349 . S
C362 C374 1.349 . S
C363 C361 1.327 . S
C363 C379 1.429 . S
C363 H385 0.950 . S
C364 H360 0.949 . S
C364 C372 1.574 1_556 S
C364 C380 1.368 1_455 S
H365 C373 0.950 . S
H366 C371 0.950 . S
H367 C372 0.949 . S
H368 C374 0.950 . S
H369 C375 0.950 . S
H370 C376 0.949 . S
C371 H366 0.950 . S
C371 C373 1.327 . S
C371 C377 1.429 . S
C372 C364 1.574 1_554 S
C372 H367 0.949 . S
C372 C378 1.368 1_565 S
C373 C357 1.349 . S
C373 H365 0.950 . S
C373 C371 1.327 . S
C374 C362 1.349 . S
C374 H368 0.950 . S
C374 C375 1.327 . S
C375 H369 0.950 . S
C375 C374 1.327 . S
C375 C379 1.429 . S
C376 C359 1.574 1_556 S
C376 H370 0.949 . S
C376 C380 1.368 1_545 S
C377 C358 1.429 . S
C377 C371 1.429 . S
C377 C378 1.523 . S
C378 C359 1.368 1_455 S
C378 C372 1.368 1_545 S
C378 C377 1.523 . S
C379 C363 1.429 . S
C379 C375 1.429 . S
C379 C380 1.523 . S
C380 C364 1.368 1_655 S
C380 C376 1.368 1_565 S
C380 C379 1.523 . S
H381 C356 0.950 . S
H382 C358 0.950 . S
H383 C359 0.949 . S
H384 C361 0.950 . S
H385 C363 0.950 . S
C386 C387 1.349 . S
C386 C388 1.327 . S
C386 H411 0.950 . S
C387 C386 1.349 . S
C387 C403 1.349 . S
C388 C386 1.327 . S
C388 C407 1.429 . S
C388 H412 0.950 . S
C389 C406 1.574 1_545 S
C389 C408 1.368 1_554 S
C389 H413 0.949 . S
H390 C394 0.949 . S
C391 C392 1.349 . S
C391 C393 1.327 . S
C391 H414 0.950 . S
C392 C391 1.349 . S
C392 C404 1.349 . S
C393 C391 1.327 . S
C393 C409 1.429 . S
C393 H415 0.950 . S
C394 H390 0.949 . S
C394 C402 1.574 1_565 S
C394 C410 1.368 1_556 S
H395 C403 0.950 . S
H396 C401 0.950 1_554 S
H397 C402 0.949 . S
H398 C404 0.950 . S
H399 C405 0.950 1_556 S
H400 C406 0.949 . S
C401 H396 0.950 1_556 S
C401 C403 1.327 . S
C401 C407 1.429 . S
C402 C394 1.574 1_545 S
C402 H397 0.949 . S
C402 C408 1.368 . S
C403 C387 1.349 . S
C403 H395 0.950 . S
C403 C401 1.327 . S
C404 C392 1.349 . S
C404 H398 0.950 . S
C404 C405 1.327 . S
C405 H399 0.950 1_554 S
C405 C404 1.327 . S
C405 C409 1.429 . S
C406 C389 1.574 1_565 S
C406 H400 0.949 . S
C406 C410 1.368 . S
C407 C388 1.429 . S
C407 C401 1.429 . S
C407 C408 1.523 . S
C408 C389 1.368 1_556 S
C408 C402 1.368 . S
C408 C407 1.523 . S
C409 C393 1.429 . S
C409 C405 1.429 . S
C409 C410 1.523 . S
C410 C394 1.368 1_554 S
C410 C406 1.368 . S
C410 C409 1.523 . S
H411 C386 0.950 . S
H412 C388 0.950 . S
H413 C389 0.949 . S
H414 C391 0.950 . S
H415 C393 0.950 . S
C416 C417 1.349 . S
C416 C418 1.327 . S
C416 H441 0.950 . S
C417 C416 1.349 . S
C417 C433 1.349 . S
C418 C416 1.327 . S
C418 C437 1.429 . S
C418 H442 0.950 . S
C419 C436 1.574 . S
C419 C438 1.368 . S
C419 H443 0.949 . S
H420 C424 0.949 . S
C421 C422 1.349 . S
C421 C423 1.327 . S
C421 H444 0.950 . S
C422 C421 1.349 . S
C422 C434 1.349 . S
C423 C421 1.327 . S
C423 C439 1.429 . S
C423 H445 0.950 . S
C424 H420 0.949 . S
C424 C432 1.574 . S
C424 C440 1.368 . S
H425 C433 0.950 . S
H426 C431 0.950 . S
H427 C432 0.949 . S
H428 C434 0.950 . S
H429 C435 0.950 . S
H430 C436 0.949 . S
C431 H426 0.950 . S
C431 C433 1.327 . S
C431 C437 1.429 . S
C432 C424 1.574 . S
C432 H427 0.949 . S
C432 C438 1.368 1_455 S
C433 C417 1.349 . S
C433 H425 0.950 . S
C433 C431 1.327 . S
C434 C422 1.349 . S
C434 H428 0.950 . S
C434 C435 1.327 . S
C435 H429 0.950 . S
C435 C434 1.327 . S
C435 C439 1.429 . S
C436 C419 1.574 . S
C436 H430 0.949 . S
C436 C440 1.368 1_655 S
C437 C418 1.429 . S
C437 C431 1.429 . S
C437 C438 1.523 . S
C438 C419 1.368 . S
C438 C432 1.368 1_655 S
C438 C437 1.523 . S
C439 C423 1.429 . S
C439 C435 1.429 . S
C439 C440 1.523 . S
C440 C424 1.368 . S
C440 C436 1.368 1_455 S
C440 C439 1.523 . S
H441 C416 0.950 . S
H442 C418 0.950 . S
H443 C419 0.949 . S
H444 C421 0.950 . S
H445 C423 0.950 . S
C446 C447 1.349 . S
C446 C448 1.327 . S
C446 H471 0.950 . S
C447 C446 1.349 . S
C447 C463 1.349 . S
C448 C446 1.327 . S
C448 C467 1.429 . S
C448 H472 0.950 . S
C449 C466 1.574 . S
C449 C468 1.368 . S
C449 H473 0.949 . S
H450 C454 0.949 . S
C451 C452 1.349 . S
C451 C453 1.327 . S
C451 H474 0.950 . S
C452 C451 1.349 . S
C452 C464 1.349 . S
C453 C451 1.327 . S
C453 C469 1.429 . S
C453 H475 0.950 . S
C454 H450 0.949 . S
C454 C462 1.574 . S
C454 C470 1.368 . S
H455 C463 0.950 . S
H456 C461 0.950 . S
H457 C462 0.949 . S
H458 C464 0.950 . S
H459 C465 0.950 . S
H460 C466 0.949 . S
C461 H456 0.950 . S
C461 C463 1.327 . S
C461 C467 1.429 . S
C462 C454 1.574 . S
C462 H457 0.949 . S
C462 C468 1.368 . S
C463 C447 1.349 . S
C463 H455 0.950 . S
C463 C461 1.327 . S
C464 C452 1.349 . S
C464 H458 0.950 . S
C464 C465 1.327 . S
C465 H459 0.950 . S
C465 C464 1.327 . S
C465 C469 1.429 . S
C466 C449 1.574 . S
C466 H460 0.949 . S
C466 C470 1.368 . S
C467 C448 1.429 . S
C467 C461 1.429 . S
C467 C468 1.523 . S
C468 C449 1.368 . S
C468 C462 1.368 . S
C468 C467 1.523 . S
C469 C453 1.429 . S
C469 C465 1.429 . S
C469 C470 1.523 . S
C470 C454 1.368 . S
C470 C466 1.368 . S
C470 C469 1.523 . S
H471 C446 0.950 . S
H472 C448 0.950 . S
H473 C449 0.949 . S
H474 C451 0.950 . S
H475 C453 0.950 . S
C237 C92 1.252 . S
C242 C52 1.255 . S
C267 C33 1.252 . S
C272 C111 1.255 . S
C297 C210 1.252 . S
C302 C170 1.255 . S
C327 C151 1.252 . S
C332 C229 1.255 . S
C357 C3 1.482 . S
C362 C121 1.482 . S
C387 C182 1.492 . S
C392 C64 1.492 . S
C417 C123 1.492 . S
C422 C5 1.492 . S
C447 C62 1.482 . S
C452 C180 1.482 . S
