# Generated by pormake.
# Topology lcy, (6)-cn, num edge types: 1
# Building blocks:
#     Node 0, Type 0, BuildingBlock: OJICUG_clean_sbu_0, # of connection points: 6
#     Node 1, Type 0, BuildingBlock: OJICUG_clean_sbu_0, # of connection points: 6
#     Node 2, Type 0, BuildingBlock: OJICUG_clean_sbu_0, # of connection points: 6
#     Node 3, Type 0, BuildingBlock: OJICUG_clean_sbu_0, # of connection points: 6
#     Edge 4, Type (0, 0), BuildingBlock: EZIPEK_clean_linker_0, # of connection points: 2
#     Edge 5, Type (0, 0), BuildingBlock: EZIPEK_clean_linker_0, # of connection points: 2
#     Edge 6, Type (0, 0), BuildingBlock: EZIPEK_clean_linker_0, # of connection points: 2
#     Edge 7, Type (0, 0), BuildingBlock: EZIPEK_clean_linker_0, # of connection points: 2
#     Edge 8, Type (0, 0), BuildingBlock: EZIPEK_clean_linker_0, # of connection points: 2
#     Edge 9, Type (0, 0), BuildingBlock: EZIPEK_clean_linker_0, # of connection points: 2
#     Edge 10, Type (0, 0), BuildingBlock: EZIPEK_clean_linker_0, # of connection points: 2
#     Edge 11, Type (0, 0), BuildingBlock: EZIPEK_clean_linker_0, # of connection points: 2
#     Edge 12, Type (0, 0), BuildingBlock: EZIPEK_clean_linker_0, # of connection points: 2
#     Edge 13, Type (0, 0), BuildingBlock: EZIPEK_clean_linker_0, # of connection points: 2
#     Edge 14, Type (0, 0), BuildingBlock: EZIPEK_clean_linker_0, # of connection points: 2
#     Edge 15, Type (0, 0), BuildingBlock: EZIPEK_clean_linker_0, # of connection points: 2
# Relax obj value: 0.357
# Max RMSD: 0.279
# Mean RMSD: 0.279
data_MOF--net-lcy--node1-OJICUG_clean_sbu_0--edge1-EZIPEK_clean_linker_0
_symmetry_space_group_name_H-M    P1
_symmetry_Int_Tables_number       1
_symmetry_cell_setting            triclinic
loop_
_symmetry_equiv_pos_as_xyz
'x, y, z'
_cell_length_a     19.382202
_cell_length_b     19.293976
_cell_length_c     19.412654
_cell_angle_alpha  89.845213
_cell_angle_beta   89.668758
_cell_angle_gamma 90.117499
loop_
_atom_site_label
_atom_site_type_symbol
_atom_site_fract_x
_atom_site_fract_y
_atom_site_fract_z
_atom_type_partial_charge
Sc0 Sc 0.33694 0.46682 0.40037 0.0
Sc1 Sc 0.33938 0.29031 0.41023 0.0
Sc2 Sc 0.44188 0.37253 0.28833 0.0
O3 O 0.37363 0.37689 0.36523 0.0
C4 C 0.32613 0.48289 0.24071 0.0
C5 C 0.20517 0.3633 0.40649 0.0
C6 C 0.36998 0.23271 0.25783 0.0
C7 C 0.33906 0.39722 0.53657 0.0
C8 C 0.49252 0.51013 0.35932 0.0
C9 C 0.49694 0.27041 0.40911 0.0
O10 O 0.30193 0.49268 0.30076 0.0
O11 O 0.23873 0.3154 0.37665 0.0
O12 O 0.39031 0.2908 0.23554 0.0
O13 O 0.37188 0.44154 0.50093 0.0
O14 O 0.50381 0.45376 0.32835 0.0
O15 O 0.44034 0.26843 0.44232 0.0
O16 O 0.43252 0.5249 0.38224 0.0
O17 O 0.31689 0.34235 0.50774 0.0
O18 O 0.505 0.29956 0.34978 0.0
O19 O 0.23594 0.41913 0.42445 0.0
O20 O 0.37917 0.44525 0.22728 0.0
O21 O 0.35653 0.22395 0.32147 0.0
Sc22 Sc 0.93763 0.13385 0.69255 0.0
Sc23 Sc 0.8264 0.03965 0.5936 0.0
Sc24 Sc 0.83962 0.21489 0.57118 0.0
O25 O 0.86886 0.12918 0.61923 0.0
C26 C 0.87613 0.27175 0.72168 0.0
C27 C 0.81915 0.02948 0.74989 0.0
C28 C 0.70207 0.14922 0.58087 0.0
C29 C 0.97969 0.99415 0.63872 0.0
C30 C 0.99479 0.23358 0.56932 0.0
C31 C 0.83437 0.0981 0.45346 0.0
O32 O 0.87824 0.21051 0.74402 0.0
O33 O 0.78672 0.02692 0.69358 0.0
O34 O 0.73826 0.19627 0.60894 0.0
O35 O -0.00144 0.05652 0.64399 0.0
O36 O 0.94022 0.22967 0.53394 0.0
O37 O 0.86533 0.05537 0.49233 0.0
O38 O -0.00038 0.21012 0.63131 0.0
O39 O 0.91732 0.97801 0.62442 0.0
O40 O 0.81412 0.15623 0.47785 0.0
O41 O 0.87883 0.0579 0.75632 0.0
O42 O 0.8661 0.284 0.65783 0.0
O43 O 0.72999 0.09155 0.56413 0.0
Sc44 Sc 0.15897 0.53912 0.8994 0.0
Sc45 Sc 0.15584 0.71497 0.91193 0.0
Sc46 Sc 0.05183 0.63355 0.79126 0.0
O47 O 0.12149 0.62916 0.86635 0.0
C48 C 0.16843 0.52503 0.74035 0.0
C49 C 0.29058 0.6412 0.9068 0.0
C50 C 0.12549 0.77284 0.75935 0.0
C51 C 0.15376 0.60548 0.03686 0.0
C52 C 0.00438 0.49415 0.85888 0.0
C53 C 0.99768 0.73567 0.91221 0.0
O54 O 0.19507 0.5168 0.79933 0.0
O55 O 0.2578 0.69093 0.87918 0.0
O56 O 0.10343 0.7153 0.73775 0.0
O57 O 0.12249 0.56137 0.00024 0.0
O58 O 0.98956 0.55218 0.83266 0.0
O59 O 0.05449 0.73738 0.94441 0.0
O60 O 0.06536 0.48088 0.87907 0.0
O61 O 0.17634 0.66123 0.00923 0.0
O62 O 0.98923 0.70649 0.85329 0.0
O63 O 0.25891 0.58576 0.92433 0.0
O64 O 0.11356 0.56052 0.72888 0.0
O65 O 0.14012 0.7813 0.82264 0.0
Sc66 Sc 0.65961 0.78328 0.08462 0.0
Sc67 Sc 0.66475 0.95985 0.09708 0.0
Sc68 Sc 0.54414 0.86812 0.19109 0.0
O69 O 0.62207 0.86957 0.1251 0.0
C70 C 0.50113 0.75951 0.07287 0.0
C71 C 0.65937 0.89508 0.95901 0.0
C72 C 0.51171 0.00886 0.13475 0.0
C73 C 0.79321 0.85681 0.08761 0.0
C74 C 0.61928 0.73235 0.2384 0.0
C75 C 0.66338 0.96926 0.25316 0.0
O76 O 0.56143 0.75423 0.04786 0.0
O77 O 0.62988 0.94145 0.99535 0.0
O78 O 0.49173 0.94681 0.13473 0.0
O79 O 0.75902 0.81166 0.12077 0.0
O80 O 0.58655 0.78737 0.25184 0.0
O81 O 0.69895 0.9724 0.1982 0.0
O82 O 0.64336 0.72081 0.17808 0.0
O83 O 0.76275 0.91164 0.06755 0.0
O84 O 0.60271 0.94184 0.25734 0.0
O85 O 0.67931 0.83812 0.98664 0.0
O86 O 0.48634 0.79409 0.12734 0.0
O87 O 0.57513 0.0237 0.12561 0.0
C88 C 0.17635 0.51033 0.1227 0.0
C89 C 0.18553 0.58053 0.10278 0.0
C90 C 0.28868 0.5874 0.17541 0.0
C91 C 0.28548 0.51448 0.18499 0.0
N92 N 0.22927 0.40496 0.16454 0.0
N93 N 0.23045 0.69168 0.13611 0.0
C94 C 0.23022 0.47548 0.1575 0.0
C95 C 0.23627 0.62112 0.13657 0.0
N96 N 0.1138 0.47904 0.11357 0.0
N97 N 0.34238 0.62384 0.20301 0.0
H98 H 0.18685 0.71646 0.11671 0.0
H99 H 0.26343 0.72517 0.16191 0.0
H100 H 0.38147 0.60014 0.23131 0.0
H101 H 0.35162 0.67616 0.19373 0.0
H102 H 0.10202 0.42957 0.13179 0.0
H103 H 0.07077 0.50656 0.09662 0.0
H104 H 0.19384 0.37324 0.13954 0.0
H105 H 0.2677 0.37762 0.19036 0.0
C106 C 0.75098 0.96251 0.34359 0.0
C107 C 0.69716 0.00086 0.31307 0.0
C108 C 0.74803 0.10906 0.35601 0.0
C109 C 0.7992 0.06961 0.39077 0.0
N110 N 0.86799 0.96583 0.38538 0.0
N111 N 0.64147 0.10938 0.28982 0.0
C112 C 0.80615 0.99807 0.37545 0.0
C113 C 0.69467 0.074 0.31955 0.0
N114 N 0.74955 0.89175 0.34126 0.0
N115 N 0.75448 0.17954 0.35278 0.0
H116 H 0.6016 0.08421 0.26394 0.0
H117 H 0.63341 0.16238 0.29485 0.0
H118 H 0.79922 0.20488 0.36867 0.0
H119 H 0.72048 0.21228 0.3274 0.0
H120 H 0.78406 0.86059 0.36816 0.0
H121 H 0.70961 0.86445 0.31769 0.0
H122 H 0.87785 0.91498 0.3704 0.0
H123 H 0.9123 0.9932 0.39918 0.0
C124 C 0.26401 0.52817 0.65616 0.0
C125 C 0.20677 0.49177 0.68374 0.0
C126 C 0.25039 0.38344 0.63336 0.0
C127 C 0.30554 0.42155 0.60229 0.0
N128 N 0.38207 0.51883 0.6169 0.0
N129 N 0.15 0.38367 0.70962 0.0
C130 C 0.31765 0.49071 0.62358 0.0
C131 C 0.20112 0.41886 0.6753 0.0
N132 N 0.26749 0.59868 0.66173 0.0
N133 N 0.24681 0.3133 0.62485 0.0
H134 H 0.11136 0.40877 0.73766 0.0
H135 H 0.14571 0.32998 0.71159 0.0
H136 H 0.28934 0.28436 0.60884 0.0
H137 H 0.20341 0.28345 0.63606 0.0
H138 H 0.30525 0.62839 0.63708 0.0
H139 H 0.2289 0.62785 0.6856 0.0
H140 H 0.39534 0.56736 0.63622 0.0
H141 H 0.42429 0.4894 0.60074 0.0
C142 C 0.7503 0.88515 0.86369 0.0
C143 C 0.69103 0.91866 0.89195 0.0
C144 C 0.7224 0.02624 0.8326 0.0
C145 C 0.7839 0.99514 0.80829 0.0
N146 N 0.85325 0.89336 0.7911 0.0
N147 N 0.60572 0.00682 0.87301 0.0
C148 C 0.79729 0.924 0.82156 0.0
C149 C 0.67247 0.98502 0.86697 0.0
N150 N 0.75963 0.81583 0.87439 0.0
N151 N 0.7119 0.09562 0.82296 0.0
H152 H 0.56694 0.97443 0.89246 0.0
H153 H 0.5875 0.05251 0.85101 0.0
H154 H 0.74807 0.12752 0.7984 0.0
H155 H 0.67072 0.12238 0.84501 0.0
H156 H 0.80522 0.78938 0.86429 0.0
H157 H 0.71921 0.78338 0.88953 0.0
H158 H 0.86408 0.84067 0.79305 0.0
H159 H 0.8898 0.92131 0.76273 0.0
C160 C 0.06789 0.33878 0.54652 0.0
C161 C 0.05338 0.26772 0.53379 0.0
C162 C 0.11055 0.27684 0.42178 0.0
C163 C 0.13797 0.34231 0.43992 0.0
N164 N 0.12656 0.44453 0.51063 0.0
N165 N 0.06766 0.16656 0.46267 0.0
C166 C 0.11189 0.3762 0.4999 0.0
C167 C 0.07711 0.23606 0.47246 0.0
N168 N 0.0366 0.37099 0.60101 0.0
N169 N 0.11386 0.25519 0.35492 0.0
H170 H 0.0441 0.13474 0.49955 0.0
H171 H 0.08924 0.13976 0.4213 0.0
H172 H 0.13287 0.28724 0.31569 0.0
H173 H 0.09003 0.2101 0.33751 0.0
H174 H 0.03859 0.42404 0.61008 0.0
H175 H 0.00656 0.34434 0.63716 0.0
H176 H 0.11827 0.47012 0.557 0.0
H177 H 0.1437 0.47703 0.47112 0.0
C178 C 0.11615 0.90098 0.74448 0.0
C179 C 0.1161 0.83514 0.71367 0.0
C180 C 0.04533 0.88221 0.61932 0.0
C181 C 0.02966 0.94025 0.66155 0.0
N182 N 0.04691 1.00023 0.77053 0.0
N183 N 0.10422 0.77094 0.60844 0.0
C184 C 0.06504 0.94915 0.7253 0.0
C185 C 0.08809 0.82821 0.64636 0.0
N186 N 0.1656 0.91772 0.79135 0.0
N187 N 0.02065 0.87982 0.55353 0.0
H188 H 0.14345 0.73715 0.62335 0.0
H189 H 0.08133 0.75793 0.56193 0.0
H190 H 0.9914 0.91971 0.53219 0.0
H191 H 0.03148 0.84057 0.51857 0.0
H192 H 0.17066 0.9673 0.81199 0.0
H193 H 0.20682 0.88457 0.80167 0.0
H194 H 0.06722 0.00336 0.82005 0.0
H195 H 0.00662 0.03466 0.76248 0.0
C196 C 0.3845 0.62145 0.99652 0.0
C197 C 0.35931 0.65818 0.93799 0.0
C198 C 0.42638 0.76028 0.97022 0.0
C199 C 0.44642 0.72666 0.03187 0.0
N200 N 0.45905 0.62132 0.09726 0.0
N201 N 0.38624 0.74537 0.8534 0.0
C202 C 0.42952 0.65591 0.04335 0.0
C203 C 0.38988 0.72239 0.91987 0.0
N204 N 0.36731 0.55343 0.00602 0.0
N205 N 0.44165 0.82879 0.96004 0.0
H206 H 0.36424 0.71523 0.81463 0.0
H207 H 0.41217 0.78924 0.83541 0.0
H208 H 0.46841 0.8585 0.99599 0.0
H209 H 0.42256 0.8575 0.91884 0.0
H210 H 0.37382 0.52656 0.05203 0.0
H211 H 0.34969 0.52252 0.96581 0.0
H212 H 0.4547 0.56824 0.10565 0.0
H213 H 0.49012 0.64589 0.13356 0.0
C214 C 0.3758 0.10399 0.24163 0.0
C215 C 0.37946 0.1706 0.21214 0.0
C216 C 0.45175 0.12428 0.11831 0.0
C217 C 0.46183 0.06297 0.15786 0.0
N218 N 0.43651 0.99804 0.26293 0.0
N219 N 0.38962 0.23339 0.10563 0.0
C220 C 0.42361 0.05299 0.22035 0.0
C221 C 0.40821 0.17778 0.14499 0.0
N222 N 0.32499 0.0889 0.2883 0.0
N223 N 0.48448 0.13153 0.05615 0.0
H224 H 0.35132 0.26783 0.12168 0.0
H225 H 0.40555 0.24143 0.055 0.0
H226 H 0.51231 0.09146 0.03317 0.0
H227 H 0.48577 0.17737 0.02787 0.0
H228 H 0.31638 0.03913 0.30759 0.0
H229 H 0.28579 0.12417 0.29973 0.0
H230 H 0.41546 0.99393 0.31232 0.0
H231 H 0.47317 0.9602 0.25292 0.0
C232 C 0.61538 0.24145 0.55533 0.0
C233 C 0.63665 0.17184 0.54613 0.0
C234 C 0.56328 0.16545 0.44301 0.0
C235 C 0.55526 0.23854 0.44547 0.0
N236 N 0.57941 0.34768 0.50023 0.0
N237 N 0.61531 0.06178 0.49076 0.0
C238 C 0.58371 0.27699 0.50027 0.0
C239 C 0.60601 0.13186 0.49258 0.0
N240 N 0.62146 0.27206 0.61836 0.0
N241 N 0.52701 0.1282 0.39544 0.0
H242 H 0.63087 0.03369 0.53388 0.0
H243 H 0.60487 0.03121 0.44797 0.0
H244 H 0.49816 0.15174 0.35665 0.0
H245 H 0.52389 0.07438 0.3948 0.0
H246 H 0.60206 0.32115 0.6294 0.0
H247 H 0.63732 0.2443 0.66171 0.0
H248 H 0.60442 0.37855 0.53635 0.0
H249 H 0.55642 0.3754 0.46022 0.0
C250 C 0.89002 0.44582 0.8155 0.0
C251 C 0.9538 0.43571 0.85019 0.0
C252 C 0.95939 0.3171 0.8103 0.0
C253 C 0.89951 0.32773 0.76898 0.0
N254 N 0.79763 0.39543 0.7467 0.0
N255 N 0.01839 0.35148 0.914 0.0
C256 C 0.86139 0.39026 0.776 0.0
C257 C 0.97798 0.36771 0.859 0.0
N258 N 0.85661 0.50768 0.82214 0.0
N259 N 0.0023 0.26193 0.79998 0.0
H260 H 0.02806 0.38726 0.95308 0.0
H261 H 0.03371 0.30088 0.92505 0.0
H262 H 0.99593 0.22571 0.76109 0.0
H263 H 0.04941 0.25697 0.8252 0.0
H264 H 0.81453 0.52265 0.79268 0.0
H265 H 0.87059 0.54364 0.85967 0.0
H266 H 0.76517 0.4379 0.75222 0.0
H267 H 0.77486 0.35472 0.71979 0.0
C268 C 0.91057 0.72857 0.00423 0.0
C269 C 0.93944 0.76743 0.94943 0.0
C270 C 0.88833 0.87371 0.99709 0.0
C271 C 0.85785 0.83347 0.05112 0.0
N272 N 0.87368 0.73259 0.12293 0.0
N273 N 0.96714 0.87805 0.89886 0.0
C274 C 0.87903 0.76369 0.05984 0.0
C275 C 0.93122 0.8405 0.94706 0.0
N276 N 0.91446 0.65787 0.00378 0.0
N277 N 0.87859 0.94374 0.99521 0.0
H278 H 0.99605 0.85474 0.85978 0.0
H279 H 0.96993 0.93189 0.89804 0.0
H280 H 0.86221 0.97149 0.0383 0.0
H281 H 0.88891 0.97452 0.95225 0.0
H282 H 0.88905 0.62679 0.03992 0.0
H283 H 0.93737 0.63045 0.96341 0.0
H284 H 0.89291 0.68326 0.13326 0.0
H285 H 0.85925 0.76013 0.16691 0.0
C286 C 0.63957 0.6076 0.27874 0.0
C287 C 0.61636 0.67588 0.29221 0.0
C288 C 0.53918 0.63182 0.38299 0.0
C289 C 0.54873 0.56421 0.35628 0.0
N290 N 0.63953 0.48793 0.31785 0.0
N291 N 0.5832 0.7497 0.38677 0.0
C292 C 0.60913 0.55166 0.31614 0.0
C293 C 0.57832 0.68734 0.3541 0.0
N294 N 0.69098 0.5963 0.2319 0.0
N295 N 0.49428 0.64271 0.4362 0.0
H296 H 0.61792 0.7878 0.37032 0.0
H297 H 0.56013 0.7602 0.43416 0.0
H298 H 0.47458 0.60205 0.46593 0.0
H299 H 0.47793 0.69178 0.45135 0.0
H300 H 0.70309 0.54738 0.2128 0.0
H301 H 0.7224 0.63628 0.21347 0.0
H302 H 0.68585 0.47651 0.29297 0.0
H303 H 0.62304 0.44937 0.35203 0.0
loop_
_geom_bond_atom_site_label_1
_geom_bond_atom_site_label_2
_geom_bond_distance
_geom_bond_site_symmetry_2
_ccdc_geom_bond_type
Sc0 O3 2.025 . S
Sc0 O10 2.105 . S
Sc0 O13 2.105 . S
Sc0 O16 2.105 . S
Sc0 O19 2.105 . S
Sc1 O3 2.025 . S
Sc1 O11 2.105 . S
Sc1 O15 2.105 . S
Sc1 O17 2.105 . S
Sc1 O21 2.105 . S
Sc2 O3 2.025 . S
Sc2 O12 2.105 . S
Sc2 O14 2.105 . S
Sc2 O18 2.105 . S
Sc2 O20 2.105 . S
O3 Sc0 2.025 . S
O3 Sc1 2.025 . S
O3 Sc2 2.025 . S
C4 O10 1.268 . S
C4 O20 1.268 . S
C5 O11 1.268 . S
C5 O19 1.268 . S
C6 O12 1.268 . S
C6 O21 1.268 . S
C7 O13 1.268 . S
C7 O17 1.268 . S
C8 O14 1.268 . S
C8 O16 1.268 . S
C9 O15 1.268 . S
C9 O18 1.268 . S
O10 Sc0 2.105 . S
O10 C4 1.268 . S
O11 Sc1 2.105 . S
O11 C5 1.268 . S
O12 Sc2 2.105 . S
O12 C6 1.268 . S
O13 Sc0 2.105 . S
O13 C7 1.268 . S
O14 Sc2 2.105 . S
O14 C8 1.268 . S
O15 Sc1 2.105 . S
O15 C9 1.268 . S
O16 Sc0 2.105 . S
O16 C8 1.268 . S
O17 Sc1 2.105 . S
O17 C7 1.268 . S
O18 Sc2 2.105 . S
O18 C9 1.268 . S
O19 Sc0 2.105 . S
O19 C5 1.268 . S
O20 Sc2 2.105 . S
O20 C4 1.268 . S
O21 Sc1 2.105 . S
O21 C6 1.268 . S
Sc22 O25 2.025 . S
Sc22 O32 2.105 . S
Sc22 O35 2.105 . S
Sc22 O38 2.105 1_655 S
Sc22 O41 2.105 . S
Sc23 O25 2.025 . S
Sc23 O33 2.105 . S
Sc23 O37 2.105 . S
Sc23 O39 2.105 1_545 S
Sc23 O43 2.105 . S
Sc24 O25 2.025 . S
Sc24 O34 2.105 . S
Sc24 O36 2.105 . S
Sc24 O40 2.105 . S
Sc24 O42 2.105 . S
O25 Sc22 2.025 . S
O25 Sc23 2.025 . S
O25 Sc24 2.025 . S
C26 O32 1.268 . S
C26 O42 1.268 . S
C27 O33 1.268 . S
C27 O41 1.268 . S
C28 O34 1.268 . S
C28 O43 1.268 . S
C29 O35 1.268 1_565 S
C29 O39 1.268 . S
C30 O36 1.268 1_455 S
C30 O38 1.268 . S
C31 O37 1.268 . S
C31 O40 1.268 . S
O32 Sc22 2.105 . S
O32 C26 1.268 . S
O33 Sc23 2.105 . S
O33 C27 1.268 . S
O34 Sc24 2.105 . S
O34 C28 1.268 . S
O35 Sc22 2.105 . S
O35 C29 1.268 1_545 S
O36 Sc24 2.105 . S
O36 C30 1.268 1_655 S
O37 Sc23 2.105 . S
O37 C31 1.268 . S
O38 Sc22 2.105 1_455 S
O38 C30 1.268 . S
O39 Sc23 2.105 1_565 S
O39 C29 1.268 . S
O40 Sc24 2.105 . S
O40 C31 1.268 . S
O41 Sc22 2.105 . S
O41 C27 1.268 . S
O42 Sc24 2.105 . S
O42 C26 1.268 . S
O43 Sc23 2.105 . S
O43 C28 1.268 . S
Sc44 O47 2.025 . S
Sc44 O54 2.105 . S
Sc44 O57 2.105 . S
Sc44 O60 2.105 . S
Sc44 O63 2.105 . S
Sc45 O47 2.025 . S
Sc45 O55 2.105 . S
Sc45 O59 2.105 . S
Sc45 O61 2.105 1_556 S
Sc45 O65 2.105 . S
Sc46 O47 2.025 . S
Sc46 O56 2.105 . S
Sc46 O58 2.105 . S
Sc46 O62 2.105 1_455 S
Sc46 O64 2.105 . S
O47 Sc44 2.025 . S
O47 Sc45 2.025 . S
O47 Sc46 2.025 . S
C48 O54 1.268 . S
C48 O64 1.268 . S
C49 O55 1.268 . S
C49 O63 1.268 . S
C50 O56 1.268 . S
C50 O65 1.268 . S
C51 O57 1.268 1_554 S
C51 O61 1.268 . S
C52 O58 1.268 . S
C52 O60 1.268 . S
C53 O59 1.268 1_655 S
C53 O62 1.268 . S
O54 Sc44 2.105 . S
O54 C48 1.268 . S
O55 Sc45 2.105 . S
O55 C49 1.268 . S
O56 Sc46 2.105 . S
O56 C50 1.268 . S
O57 Sc44 2.105 . S
O57 C51 1.268 1_556 S
O58 Sc46 2.105 . S
O58 C52 1.268 . S
O59 Sc45 2.105 . S
O59 C53 1.268 1_455 S
O60 Sc44 2.105 . S
O60 C52 1.268 . S
O61 Sc45 2.105 1_554 S
O61 C51 1.268 . S
O62 Sc46 2.105 1_655 S
O62 C53 1.268 . S
O63 Sc44 2.105 . S
O63 C49 1.268 . S
O64 Sc46 2.105 . S
O64 C48 1.268 . S
O65 Sc45 2.105 . S
O65 C50 1.268 . S
Sc66 O69 2.025 . S
Sc66 O76 2.105 . S
Sc66 O79 2.105 . S
Sc66 O82 2.105 . S
Sc66 O85 2.105 1_554 S
Sc67 O69 2.025 . S
Sc67 O77 2.105 . S
Sc67 O81 2.105 . S
Sc67 O83 2.105 . S
Sc67 O87 2.105 1_565 S
Sc68 O69 2.025 . S
Sc68 O78 2.105 . S
Sc68 O80 2.105 . S
Sc68 O84 2.105 . S
Sc68 O86 2.105 . S
O69 Sc66 2.025 . S
O69 Sc67 2.025 . S
O69 Sc68 2.025 . S
C70 O76 1.268 . S
C70 O86 1.268 . S
C71 O77 1.268 1_556 S
C71 O85 1.268 . S
C72 O78 1.268 1_545 S
C72 O87 1.268 . S
C73 O79 1.268 . S
C73 O83 1.268 . S
C74 O80 1.268 . S
C74 O82 1.268 . S
C75 O81 1.268 . S
C75 O84 1.268 . S
O76 Sc66 2.105 . S
O76 C70 1.268 . S
O77 Sc67 2.105 . S
O77 C71 1.268 1_554 S
O78 Sc68 2.105 . S
O78 C72 1.268 1_565 S
O79 Sc66 2.105 . S
O79 C73 1.268 . S
O80 Sc68 2.105 . S
O80 C74 1.268 . S
O81 Sc67 2.105 . S
O81 C75 1.268 . S
O82 Sc66 2.105 . S
O82 C74 1.268 . S
O83 Sc67 2.105 . S
O83 C73 1.268 . S
O84 Sc68 2.105 . S
O84 C75 1.268 . S
O85 Sc66 2.105 1_556 S
O85 C71 1.268 . S
O86 Sc68 2.105 . S
O86 C70 1.268 . S
O87 Sc67 2.105 1_545 S
O87 C72 1.268 . S
C88 C89 1.363 . S
C88 C94 1.379 . S
C88 N96 1.356 . S
C89 C88 1.363 . S
C89 C95 1.363 . S
C90 C91 1.363 . S
C90 C95 1.379 . S
C90 N97 1.356 . S
C91 C90 1.363 . S
C91 C94 1.363 . S
N92 C94 1.356 . S
N92 H104 0.984 . S
N92 H105 0.985 . S
N93 C95 1.356 . S
N93 H98 0.984 . S
N93 H99 0.985 . S
C94 C88 1.379 . S
C94 C91 1.363 . S
C94 N92 1.356 . S
C95 C89 1.363 . S
C95 C90 1.379 . S
C95 N93 1.356 . S
N96 C88 1.356 . S
N96 H102 0.984 . S
N96 H103 0.984 . S
N97 C90 1.356 . S
N97 H100 0.984 . S
N97 H101 0.985 . S
H98 N93 0.984 . S
H99 N93 0.985 . S
H100 N97 0.984 . S
H101 N97 0.985 . S
H102 N96 0.984 . S
H103 N96 0.984 . S
H104 N92 0.984 . S
H105 N92 0.985 . S
C106 C107 1.363 . S
C106 C112 1.379 . S
C106 N114 1.356 . S
C107 C106 1.363 . S
C107 C113 1.363 1_565 S
C108 C109 1.363 . S
C108 C113 1.379 . S
C108 N115 1.356 . S
C109 C108 1.363 . S
C109 C112 1.363 1_545 S
N110 C112 1.356 . S
N110 H122 0.984 . S
N110 H123 0.985 . S
N111 C113 1.356 . S
N111 H116 0.984 1_545 S
N111 H117 0.985 . S
C112 C106 1.379 . S
C112 C109 1.363 1_565 S
C112 N110 1.356 . S
C113 C107 1.363 1_545 S
C113 C108 1.379 . S
C113 N111 1.356 . S
N114 C106 1.356 . S
N114 H120 0.984 . S
N114 H121 0.984 . S
N115 C108 1.356 . S
N115 H118 0.984 . S
N115 H119 0.985 . S
H116 N111 0.984 1_565 S
H117 N111 0.985 . S
H118 N115 0.984 . S
H119 N115 0.985 . S
H120 N114 0.984 . S
H121 N114 0.984 . S
H122 N110 0.984 . S
H123 N110 0.985 . S
C124 C125 1.363 . S
C124 C130 1.379 . S
C124 N132 1.356 . S
C125 C124 1.363 . S
C125 C131 1.363 . S
C126 C127 1.363 . S
C126 C131 1.379 . S
C126 N133 1.356 . S
C127 C126 1.363 . S
C127 C130 1.363 . S
N128 C130 1.356 . S
N128 H140 0.984 . S
N128 H141 0.985 . S
N129 C131 1.356 . S
N129 H134 0.984 . S
N129 H135 0.985 . S
C130 C124 1.379 . S
C130 C127 1.363 . S
C130 N128 1.356 . S
C131 C125 1.363 . S
C131 C126 1.379 . S
C131 N129 1.356 . S
N132 C124 1.356 . S
N132 H138 0.984 . S
N132 H139 0.984 . S
N133 C126 1.356 . S
N133 H136 0.984 . S
N133 H137 0.985 . S
H134 N129 0.984 . S
H135 N129 0.985 . S
H136 N133 0.984 . S
H137 N133 0.985 . S
H138 N132 0.984 . S
H139 N132 0.984 . S
H140 N128 0.984 . S
H141 N128 0.985 . S
C142 C143 1.363 . S
C142 C148 1.379 1_565 S
C142 N150 1.356 . S
C143 C142 1.363 . S
C143 C149 1.363 1_565 S
C144 C145 1.363 . S
C144 C149 1.379 . S
C144 N151 1.356 . S
C145 C144 1.363 . S
C145 C148 1.363 . S
N146 C148 1.356 . S
N146 H158 0.984 . S
N146 H159 0.985 . S
N147 C149 1.356 . S
N147 H152 0.984 1_545 S
N147 H153 0.985 . S
C148 C142 1.379 1_545 S
C148 C145 1.363 . S
C148 N146 1.356 . S
C149 C143 1.363 1_545 S
C149 C144 1.379 . S
C149 N147 1.356 . S
N150 C142 1.356 . S
N150 H156 0.984 . S
N150 H157 0.984 . S
N151 C144 1.356 . S
N151 H154 0.984 . S
N151 H155 0.985 . S
H152 N147 0.984 1_565 S
H153 N147 0.985 . S
H154 N151 0.984 . S
H155 N151 0.985 . S
H156 N150 0.984 . S
H157 N150 0.984 . S
H158 N146 0.984 . S
H159 N146 0.985 . S
C160 C161 1.363 . S
C160 C166 1.379 . S
C160 N168 1.356 . S
C161 C160 1.363 . S
C161 C167 1.363 . S
C162 C163 1.363 . S
C162 C167 1.379 . S
C162 N169 1.356 . S
C163 C162 1.363 . S
C163 C166 1.363 . S
N164 C166 1.356 . S
N164 H176 0.984 . S
N164 H177 0.985 . S
N165 C167 1.356 . S
N165 H170 0.984 . S
N165 H171 0.985 . S
C166 C160 1.379 . S
C166 C163 1.363 . S
C166 N164 1.356 . S
C167 C161 1.363 . S
C167 C162 1.379 . S
C167 N165 1.356 . S
N168 C160 1.356 . S
N168 H174 0.984 1_455 S
N168 H175 0.984 . S
N169 C162 1.356 . S
N169 H172 0.984 . S
N169 H173 0.985 . S
H170 N165 0.984 . S
H171 N165 0.985 . S
H172 N169 0.984 . S
H173 N169 0.985 . S
H174 N168 0.984 1_655 S
H175 N168 0.984 . S
H176 N164 0.984 . S
H177 N164 0.985 . S
C178 C179 1.363 . S
C178 C184 1.379 1_455 S
C178 N186 1.356 . S
C179 C178 1.363 . S
C179 C185 1.363 . S
C180 C181 1.363 1_455 S
C180 C185 1.379 . S
C180 N187 1.356 . S
C181 C180 1.363 1_655 S
C181 C184 1.363 . S
N182 C184 1.356 . S
N182 H194 0.984 . S
N182 H195 0.985 . S
N183 C185 1.356 . S
N183 H188 0.984 . S
N183 H189 0.985 . S
C184 C178 1.379 1_655 S
C184 C181 1.363 . S
C184 N182 1.356 . S
C185 C179 1.363 . S
C185 C180 1.379 . S
C185 N183 1.356 . S
N186 C178 1.356 . S
N186 H192 0.984 . S
N186 H193 0.984 . S
N187 C180 1.356 . S
N187 H190 0.984 1_455 S
N187 H191 0.985 . S
H188 N183 0.984 . S
H189 N183 0.985 . S
H190 N187 0.984 1_655 S
H191 N187 0.985 . S
H192 N186 0.984 . S
H193 N186 0.984 . S
H194 N182 0.984 . S
H195 N182 0.985 . S
C196 C197 1.363 1_554 S
C196 C202 1.379 . S
C196 N204 1.356 . S
C197 C196 1.363 1_556 S
C197 C203 1.363 . S
C198 C199 1.363 1_556 S
C198 C203 1.379 . S
C198 N205 1.356 . S
C199 C198 1.363 1_554 S
C199 C202 1.363 . S
N200 C202 1.356 . S
N200 H212 0.984 . S
N200 H213 0.985 . S
N201 C203 1.356 . S
N201 H206 0.984 . S
N201 H207 0.985 . S
C202 C196 1.379 . S
C202 C199 1.363 . S
C202 N200 1.356 . S
C203 C197 1.363 . S
C203 C198 1.379 . S
C203 N201 1.356 . S
N204 C196 1.356 . S
N204 H210 0.984 . S
N204 H211 0.984 1_554 S
N205 C198 1.356 . S
N205 H208 0.984 . S
N205 H209 0.985 . S
H206 N201 0.984 . S
H207 N201 0.985 . S
H208 N205 0.984 . S
H209 N205 0.985 . S
H210 N204 0.984 . S
H211 N204 0.984 1_556 S
H212 N200 0.984 . S
H213 N200 0.985 . S
C214 C215 1.363 . S
C214 C220 1.379 . S
C214 N222 1.356 . S
C215 C214 1.363 . S
C215 C221 1.363 . S
C216 C217 1.363 . S
C216 C221 1.379 . S
C216 N223 1.356 . S
C217 C216 1.363 . S
C217 C220 1.363 . S
N218 C220 1.356 1_565 S
N218 H230 0.984 . S
N218 H231 0.985 . S
N219 C221 1.356 . S
N219 H224 0.984 . S
N219 H225 0.985 . S
C220 C214 1.379 . S
C220 C217 1.363 . S
C220 N218 1.356 1_545 S
C221 C215 1.363 . S
C221 C216 1.379 . S
C221 N219 1.356 . S
N222 C214 1.356 . S
N222 H228 0.984 . S
N222 H229 0.984 . S
N223 C216 1.356 . S
N223 H226 0.984 . S
N223 H227 0.985 . S
H224 N219 0.984 . S
H225 N219 0.985 . S
H226 N223 0.984 . S
H227 N223 0.985 . S
H228 N222 0.984 . S
H229 N222 0.984 . S
H230 N218 0.984 . S
H231 N218 0.985 . S
C232 C233 1.363 . S
C232 C238 1.379 . S
C232 N240 1.356 . S
C233 C232 1.363 . S
C233 C239 1.363 . S
C234 C235 1.363 . S
C234 C239 1.379 . S
C234 N241 1.356 . S
C235 C234 1.363 . S
C235 C238 1.363 . S
N236 C238 1.356 . S
N236 H248 0.984 . S
N236 H249 0.985 . S
N237 C239 1.356 . S
N237 H242 0.984 . S
N237 H243 0.985 . S
C238 C232 1.379 . S
C238 C235 1.363 . S
C238 N236 1.356 . S
C239 C233 1.363 . S
C239 C234 1.379 . S
C239 N237 1.356 . S
N240 C232 1.356 . S
N240 H246 0.984 . S
N240 H247 0.984 . S
N241 C234 1.356 . S
N241 H244 0.984 . S
N241 H245 0.985 . S
H242 N237 0.984 . S
H243 N237 0.985 . S
H244 N241 0.984 . S
H245 N241 0.985 . S
H246 N240 0.984 . S
H247 N240 0.984 . S
H248 N236 0.984 . S
H249 N236 0.985 . S
C250 C251 1.363 1_655 S
C250 C256 1.379 . S
C250 N258 1.356 . S
C251 C250 1.363 1_455 S
C251 C257 1.363 . S
C252 C253 1.363 . S
C252 C257 1.379 1_655 S
C252 N259 1.356 . S
C253 C252 1.363 . S
C253 C256 1.363 . S
N254 C256 1.356 . S
N254 H266 0.984 . S
N254 H267 0.985 . S
N255 C257 1.356 . S
N255 H260 0.984 . S
N255 H261 0.985 . S
C256 C250 1.379 . S
C256 C253 1.363 . S
C256 N254 1.356 . S
C257 C251 1.363 . S
C257 C252 1.379 1_455 S
C257 N255 1.356 . S
N258 C250 1.356 . S
N258 H264 0.984 . S
N258 H265 0.984 1_655 S
N259 C252 1.356 . S
N259 H262 0.984 . S
N259 H263 0.985 1_655 S
H260 N255 0.984 . S
H261 N255 0.985 . S
H262 N259 0.984 . S
H263 N259 0.985 1_455 S
H264 N258 0.984 . S
H265 N258 0.984 1_455 S
H266 N254 0.984 . S
H267 N254 0.985 . S
C268 C269 1.363 1_554 S
C268 C274 1.379 . S
C268 N276 1.356 . S
C269 C268 1.363 1_556 S
C269 C275 1.363 . S
C270 C271 1.363 . S
C270 C275 1.379 1_554 S
C270 N277 1.356 . S
C271 C270 1.363 . S
C271 C274 1.363 . S
N272 C274 1.356 . S
N272 H284 0.984 . S
N272 H285 0.985 . S
N273 C275 1.356 . S
N273 H278 0.984 . S
N273 H279 0.985 . S
C274 C268 1.379 . S
C274 C271 1.363 . S
C274 N272 1.356 . S
C275 C269 1.363 . S
C275 C270 1.379 1_556 S
C275 N273 1.356 . S
N276 C268 1.356 . S
N276 H282 0.984 . S
N276 H283 0.984 1_554 S
N277 C270 1.356 . S
N277 H280 0.984 . S
N277 H281 0.985 1_554 S
H278 N273 0.984 . S
H279 N273 0.985 . S
H280 N277 0.984 . S
H281 N277 0.985 1_556 S
H282 N276 0.984 . S
H283 N276 0.984 1_556 S
H284 N272 0.984 . S
H285 N272 0.985 . S
C286 C287 1.363 . S
C286 C292 1.379 . S
C286 N294 1.356 . S
C287 C286 1.363 . S
C287 C293 1.363 . S
C288 C289 1.363 . S
C288 C293 1.379 . S
C288 N295 1.356 . S
C289 C288 1.363 . S
C289 C292 1.363 . S
N290 C292 1.356 . S
N290 H302 0.984 . S
N290 H303 0.985 . S
N291 C293 1.356 . S
N291 H296 0.984 . S
N291 H297 0.985 . S
C292 C286 1.379 . S
C292 C289 1.363 . S
C292 N290 1.356 . S
C293 C287 1.363 . S
C293 C288 1.379 . S
C293 N291 1.356 . S
N294 C286 1.356 . S
N294 H300 0.984 . S
N294 H301 0.984 . S
N295 C288 1.356 . S
N295 H298 0.984 . S
N295 H299 0.985 . S
H296 N291 0.984 . S
H297 N291 0.985 . S
H298 N295 0.984 . S
H299 N295 0.985 . S
H300 N294 0.984 . S
H301 N294 0.984 . S
H302 N290 0.984 . S
H303 N290 0.985 . S
C89 C51 1.432 . S
C91 C4 1.432 . S
C107 C75 1.432 . S
C109 C31 1.432 . S
C125 C48 1.432 . S
C127 C7 1.432 . S
C143 C71 1.432 . S
C145 C27 1.432 . S
C161 C30 1.432 . S
C163 C5 1.432 . S
C179 C50 1.432 . S
C181 C29 1.432 . S
C197 C49 1.432 . S
C199 C70 1.432 . S
C215 C6 1.432 . S
C217 C72 1.432 . S
C233 C28 1.432 . S
C235 C9 1.432 . S
C251 C52 1.432 . S
C253 C26 1.432 . S
C269 C53 1.432 . S
C271 C73 1.432 . S
C287 C74 1.432 . S
C289 C8 1.432 . S
