# Generated by pormake.
# Topology unh, (4)-cn, num edge types: 1
# Building blocks:
#     Node 0, Type 0, BuildingBlock: ESEHIV_clean_sbu_0, # of connection points: 4
#     Node 1, Type 0, BuildingBlock: ESEHIV_clean_sbu_0, # of connection points: 4
#     Node 2, Type 0, BuildingBlock: ESEHIV_clean_sbu_0, # of connection points: 4
#     Node 3, Type 0, BuildingBlock: ESEHIV_clean_sbu_0, # of connection points: 4
#     Node 4, Type 0, BuildingBlock: ESEHIV_clean_sbu_0, # of connection points: 4
#     Node 5, Type 0, BuildingBlock: ESEHIV_clean_sbu_0, # of connection points: 4
#     Edge 6, Type (0, 0), BuildingBlock: EZIPEK_clean_linker_0, # of connection points: 2
#     Edge 7, Type (0, 0), BuildingBlock: EZIPEK_clean_linker_0, # of connection points: 2
#     Edge 8, Type (0, 0), BuildingBlock: EZIPEK_clean_linker_0, # of connection points: 2
#     Edge 9, Type (0, 0), BuildingBlock: EZIPEK_clean_linker_0, # of connection points: 2
#     Edge 10, Type (0, 0), BuildingBlock: EZIPEK_clean_linker_0, # of connection points: 2
#     Edge 11, Type (0, 0), BuildingBlock: EZIPEK_clean_linker_0, # of connection points: 2
#     Edge 12, Type (0, 0), BuildingBlock: EZIPEK_clean_linker_0, # of connection points: 2
#     Edge 13, Type (0, 0), BuildingBlock: EZIPEK_clean_linker_0, # of connection points: 2
#     Edge 14, Type (0, 0), BuildingBlock: EZIPEK_clean_linker_0, # of connection points: 2
#     Edge 15, Type (0, 0), BuildingBlock: EZIPEK_clean_linker_0, # of connection points: 2
#     Edge 16, Type (0, 0), BuildingBlock: EZIPEK_clean_linker_0, # of connection points: 2
#     Edge 17, Type (0, 0), BuildingBlock: EZIPEK_clean_linker_0, # of connection points: 2
# Relax obj value: 0.010
# Max RMSD: 0.159
# Mean RMSD: 0.159
data_MOF--net-unh--node1-ESEHIV_clean_sbu_0--edge1-EZIPEK_clean_linker_0
_symmetry_space_group_name_H-M    P1
_symmetry_Int_Tables_number       1
_symmetry_cell_setting            triclinic
loop_
_symmetry_equiv_pos_as_xyz
'x, y, z'
_cell_length_a     37.695253
_cell_length_b     37.778
_cell_length_c     16.07708
_cell_angle_alpha  89.913293
_cell_angle_beta   90.458189
_cell_angle_gamma 120.18641
loop_
_atom_site_label
_atom_site_type_symbol
_atom_site_fract_x
_atom_site_fract_y
_atom_site_fract_z
_atom_type_partial_charge
Cu0 Cu 0.17671 0.57773 0.11327 0.0
N1 N 0.14546 0.54638 0.02145 0.0
N2 N 0.09796 0.52013 0.92041 0.0
C3 C 0.11323 0.54666 0.98479 0.0
C4 C 0.12126 0.50244 0.91589 0.0
C5 C 0.15054 0.5187 0.97837 0.0
O6 O 0.13825 0.57388 0.19863 0.0
C7 C 0.22188 0.64673 1.00533 0.0
O8 O 0.19644 0.62271 0.94743 0.0
H9 H 0.10153 0.56628 1.00378 0.0
H10 H 0.17416 0.51112 0.99105 0.0
N11 N 0.20577 0.55408 0.15938 0.0
N12 N 0.25391 0.54673 0.22631 0.0
C13 C 0.2443 0.57338 0.19102 0.0
C14 C 0.19072 0.51405 0.1754 0.0
C15 C 0.22038 0.50941 0.21656 0.0
C16 C 0.11614 0.59053 0.19537 0.0
O17 O 0.12045 0.61518 0.13376 0.0
H18 H 0.26441 0.60627 0.19058 0.0
H19 H 0.15988 0.49004 0.16015 0.0
O20 O 0.21731 0.63399 0.08026 0.0
H21 H 0.11766 0.47992 0.86996 0.0
H22 H 0.21735 0.48105 0.23934 0.0
Cu23 Cu 0.62252 0.16624 0.27986 0.0
N24 N 0.62414 0.13687 0.18735 0.0
N25 N 0.60341 0.08898 0.08823 0.0
C26 C 0.59222 0.10268 0.15474 0.0
C27 C 0.64378 0.11544 0.07803 0.0
C28 C 0.65654 0.145 0.1395 0.0
O29 O 0.58189 0.12612 0.35625 0.0
C30 C 0.58768 0.20428 0.17939 0.0
O31 O 0.5698 0.16957 0.13797 0.0
H32 H 0.56123 0.08856 0.17824 0.0
H33 H 0.68718 0.1708 0.1483 0.0
N34 N 0.6741 0.19376 0.33293 0.0
N35 N 0.72917 0.24162 0.40203 0.0
C36 C 0.69171 0.2308 0.37048 0.0
C37 C 0.70153 0.18102 0.34087 0.0
C38 C 0.73549 0.21045 0.38364 0.0
C39 C 0.58679 0.0967 0.38084 0.0
O40 O 0.61917 0.09527 0.35611 0.0
H41 H 0.67749 0.24949 0.37446 0.0
H42 H 0.69728 0.15244 0.31667 0.0
O43 O 0.60969 0.20809 0.24309 0.0
H44 H 0.66241 0.11375 0.02902 0.0
H45 H 0.76285 0.20929 0.39954 0.0
Cu46 Cu 0.4871 0.6091 0.42341 0.0
N47 N 0.52254 0.6145 0.33732 0.0
N48 N 0.55197 0.59469 0.24218 0.0
C49 C 0.52947 0.58451 0.31215 0.0
C50 C 0.55954 0.63254 0.22218 0.0
C51 C 0.54144 0.64481 0.28139 0.0
O52 O 0.48793 0.5683 0.49642 0.0
C53 C 0.39948 0.57752 0.408 0.0
O54 O 0.39712 0.5688 0.48755 0.0
H55 H 0.5162 0.55479 0.3416 0.0
H56 H 0.5404 0.6729 0.28141 0.0
N57 N 0.50632 0.65841 0.48196 0.0
N58 N 0.50788 0.71084 0.54971 0.0
C59 C 0.48539 0.67759 0.50121 0.0
C60 C 0.54318 0.68034 0.51961 0.0
C61 C 0.54424 0.71275 0.56149 0.0
C62 C 0.47661 0.56101 0.57185 0.0
O63 O 0.45861 0.57945 0.6058 0.0
H64 H 0.45411 0.66702 0.48169 0.0
H65 H 0.56723 0.67269 0.51819 0.0
O66 O 0.43402 0.59336 0.37171 0.0
H67 H 0.57534 0.64918 0.16684 0.0
H68 H 0.56937 0.73554 0.59885 0.0
Cu69 Cu 0.90012 0.47482 0.59745 0.0
N70 N 0.93164 0.51118 0.51288 0.0
N71 N 0.98044 0.54308 0.41751 0.0
C72 C 0.9638 0.51246 0.47365 0.0
C73 C 0.95796 0.56169 0.42094 0.0
C74 C 0.9278 0.54189 0.47981 0.0
O75 O 0.93835 0.47065 0.67451 0.0
C76 C 0.84516 0.38796 0.57948 0.0
O77 O 0.85514 0.38525 0.65674 0.0
H78 H 0.97489 0.49152 0.48613 0.0
H79 H 0.90477 0.54945 0.49744 0.0
N80 N 0.87066 0.49494 0.6552 0.0
N81 N 0.82145 0.49825 0.7258 0.0
C82 C 0.83199 0.47371 0.68478 0.0
C83 C 0.8847 0.53406 0.67835 0.0
C84 C 0.85445 0.53619 0.72183 0.0
C85 C 0.96924 0.50377 0.70089 0.0
O86 O 0.97403 0.53904 0.6761 0.0
H87 H 0.81217 0.44099 0.67733 0.0
H88 H 0.91498 0.55934 0.66489 0.0
O89 O 0.8613 0.42285 0.54447 0.0
H90 H 0.96306 0.58766 0.38353 0.0
H91 H 0.85649 0.56338 0.74897 0.0
Cu92 Cu 0.45904 0.88379 0.77786 0.0
N93 N 0.45723 0.9129 0.68475 0.0
N94 N 0.47722 0.96058 0.58572 0.0
C95 C 0.48879 0.94739 0.65309 0.0
C96 C 0.43709 0.93336 0.57376 0.0
C97 C 0.42482 0.90392 0.63499 0.0
O98 O 0.49748 0.92423 0.85764 0.0
C99 C 0.45638 0.818 0.68958 0.0
O100 O 0.42108 0.81292 0.66303 0.0
H101 H 0.51973 0.96219 0.6781 0.0
H102 H 0.3945 0.87753 0.6421 0.0
N103 N 0.40655 0.8533 0.82506 0.0
N104 N 0.34997 0.80225 0.88294 0.0
C105 C 0.38972 0.81647 0.86305 0.0
C106 C 0.37655 0.86277 0.82222 0.0
C107 C 0.34165 0.83133 0.85741 0.0
C108 C 0.49162 0.95298 0.88204 0.0
O109 O 0.45887 0.95367 0.85585 0.0
H110 H 0.40578 0.79984 0.87363 0.0
H111 H 0.37956 0.89025 0.79458 0.0
O112 O 0.47788 0.84671 0.74105 0.0
H113 H 0.41833 0.9344 0.52356 0.0
H114 H 0.31215 0.82948 0.86249 0.0
Cu115 Cu 0.5901 0.43838 0.92653 0.0
N116 N 0.55242 0.43589 0.84603 0.0
N117 N 0.51954 0.45718 0.7609 0.0
C118 C 0.55361 0.46826 0.80752 0.0
C119 C 0.49625 0.41624 0.76977 0.0
C120 C 0.51673 0.40317 0.82146 0.0
O121 O 0.59795 0.48254 1.00233 0.0
C122 C 0.67545 0.46441 0.90465 0.0
O123 O 0.67899 0.47249 0.98473 0.0
H124 H 0.57827 0.49954 0.81584 0.0
H125 H 0.50583 0.372 0.84079 0.0
N126 N 0.56892 0.38776 0.98239 0.0
N127 N 0.56396 0.33248 0.04521 0.0
C128 C 0.58943 0.36918 1.01008 0.0
C129 C 0.5293 0.36183 1.00145 0.0
C130 C 0.52617 0.32779 0.03996 0.0
C131 C 0.57519 0.47572 0.0656 0.0
O132 O 0.5491 0.43787 0.08695 0.0
H133 H 0.62215 0.38195 1.00398 0.0
H134 H 0.50433 0.36743 0.98891 0.0
O135 O 0.64057 0.45033 0.86915 0.0
H136 H 0.46636 0.39725 0.74139 0.0
H137 H 0.49835 0.30155 0.06245 0.0
C138 C 1.02389 0.49027 0.88968 0.0
C139 C 0.06526 0.51398 0.86431 0.0
C140 C 0.04263 0.52368 0.72709 0.0
C141 C 1.00137 0.50364 0.75519 0.0
N142 N 0.95284 0.47164 0.86637 0.0
N143 N 0.11496 0.55781 0.76428 0.0
C144 C 0.9919 0.48758 0.83722 0.0
C145 C 0.07487 0.53181 0.78428 0.0
N146 N 1.01539 0.46982 0.96356 0.0
N147 N 0.05085 0.53382 0.64501 0.0
H148 H 0.13915 0.56436 0.80513 0.0
H149 H 0.12408 0.57543 0.71042 0.0
H150 H 1.02798 0.52761 0.60097 0.0
H151 H 0.07971 0.54485 0.61892 0.0
H152 H 0.98584 0.44876 0.98281 0.0
H153 H 0.03841 0.47168 1.00296 0.0
H154 H 0.9449 0.46358 0.92823 0.0
H155 H 0.92864 0.46909 0.82996 0.0
C156 C 0.53939 0.02845 0.90399 0.0
C157 C 0.52286 0.98766 0.93358 0.0
C158 C 0.56443 1.01438 0.06119 0.0
C159 C 0.57692 0.0548 0.03539 0.0
N160 N 0.57229 0.10072 0.93854 0.0
N161 N 0.51561 0.94181 0.04543 0.0
C162 C 0.56329 0.06193 0.95841 0.0
C163 C 0.5345 0.98054 1.01345 0.0
N164 N 0.53373 0.03523 0.82272 0.0
N165 N 0.58195 1.00859 0.13062 0.0
H166 H 0.49327 0.91635 1.01294 0.0
H167 H 0.51961 0.93532 0.1066 0.0
H168 H 0.60389 0.033 0.16625 0.0
H169 H 0.57733 0.98014 0.14898 0.0
H170 H 0.54833 0.06412 0.79543 0.0
H171 H 0.51773 1.01157 0.78015 0.0
H172 H 0.55957 0.10747 0.88749 0.0
H173 H 0.58989 0.12583 0.97721 0.0
C174 C 0.59826 0.57019 0.19478 0.0
C175 C 0.55942 0.56755 0.19173 0.0
C176 C 0.53372 0.50923 0.0955 0.0
C177 C 0.57139 0.5094 0.1045 0.0
N178 N 0.63908 0.53831 0.16457 0.0
N179 N 0.48981 0.53514 0.14213 0.0
C180 C 0.60382 0.53978 0.15387 0.0
C181 C 0.52709 0.53725 0.14256 0.0
N182 N 0.62962 0.60189 0.23731 0.0
N183 N 0.5048 0.48305 0.03973 0.0
H184 H 0.48496 0.55702 0.17105 0.0
H185 H 0.46318 0.51101 0.11657 0.0
H186 H 0.50871 0.4625 1.00316 0.0
H187 H 0.47832 0.4837 0.02405 0.0
H188 H 0.65989 0.60835 0.23664 0.0
H189 H 0.62565 0.62347 0.27 0.0
H190 H 0.66249 0.55686 0.20591 0.0
H191 H 0.64417 0.51677 0.1348 0.0
C192 C 0.0536 0.58848 0.38334 0.0
C193 C 1.01498 0.55386 0.36406 0.0
C194 C 0.04393 0.54082 0.23944 0.0
C195 C 0.08169 0.5776 0.2547 0.0
N196 N 0.12195 0.6386 0.33647 0.0
N197 N 0.97123 0.4996 0.27058 0.0
C198 C 0.08639 0.60208 0.32546 0.0
C199 C 1.00963 0.53058 0.29134 0.0
N200 N 0.05898 0.60751 0.45838 0.0
N201 N 0.04103 0.51544 0.17592 0.0
H202 H 0.94574 0.4914 0.30789 0.0
H203 H 0.96394 0.484 0.21405 0.0
H204 H 0.0651 0.52232 0.13547 0.0
H205 H 1.01591 0.48625 0.16668 0.0
H206 H 0.08725 0.63053 0.48066 0.0
H207 H 1.03538 0.59791 0.50153 0.0
H208 H 0.12589 0.65997 0.38175 0.0
H209 H 0.14695 0.64878 0.29671 0.0
C210 C 0.54388 0.06918 0.51103 0.0
C211 C 0.55524 0.06214 0.43126 0.0
C212 C 0.51639 0.98792 0.45631 0.0
C213 C 0.5031 0.99488 0.5333 0.0
N214 N 0.4973 0.04069 0.62788 0.0
N215 N 0.54423 1.01449 0.32045 0.0
C216 C 0.51479 0.03518 0.55878 0.0
C217 C 0.53914 1.02135 0.40174 0.0
N218 N 0.56232 0.10798 0.54299 0.0
N219 N 0.50825 0.94938 0.4366 0.0
H220 H 0.55937 0.03811 0.27782 0.0
H221 H 0.52988 0.98551 0.29322 0.0
H222 H 0.49164 0.92433 0.47556 0.0
H223 H 0.52085 0.9429 0.38548 0.0
H224 H 0.55858 0.11444 0.60417 0.0
H225 H 0.58397 0.13358 0.51048 0.0
H226 H 0.50135 0.06896 0.64594 0.0
H227 H 0.47588 1.01616 0.66335 0.0
C228 C 0.50904 0.51713 0.75278 0.0
C229 C 0.509 0.48343 0.7139 0.0
C230 C 0.48092 0.49663 0.58707 0.0
C231 C 0.48643 0.53364 0.62213 0.0
N232 N 0.51672 0.58395 0.73281 0.0
N233 N 0.50411 0.4474 0.58701 0.0
C234 C 0.5035 0.54531 0.70358 0.0
C235 C 0.49756 0.47497 0.6289 0.0
N236 N 0.5128 0.5215 0.8371 0.0
N237 N 0.45844 0.48112 0.51566 0.0
H238 H 0.51831 0.43268 0.61456 0.0
H239 H 0.49975 0.44279 0.52298 0.0
H240 H 0.44356 0.49456 0.48562 0.0
H241 H 0.45068 0.45245 0.49182 0.0
H242 H 0.50919 0.54342 0.86923 0.0
H243 H 0.51484 0.50034 0.87531 0.0
H244 H 0.53266 0.59469 0.78892 0.0
H245 H 0.51635 0.60683 0.69722 0.0
C246 C 0.3175 0.54315 0.23686 0.0
C247 C 0.29112 0.5559 0.2704 0.0
C248 C 0.33786 0.58656 0.38965 0.0
C249 C 0.36209 0.57 0.3606 0.0
N250 N 0.37062 0.5262 0.26326 0.0
N251 N 0.27189 0.5832 0.38516 0.0
C252 C 0.35083 0.54667 0.28573 0.0
C253 C 0.30015 0.57587 0.34861 0.0
N254 N 0.31109 0.52852 0.15728 0.0
N255 N 0.35162 0.61394 0.45413 0.0
H256 H 0.24379 0.57522 0.35714 0.0
H257 H 0.27466 0.5937 0.44607 0.0
H258 H 0.37944 0.62346 0.48482 0.0
H259 H 0.33738 0.63024 0.47201 0.0
H260 H 0.33153 0.5225 0.12576 0.0
H261 H 0.28707 0.52597 0.12017 0.0
H262 H 0.36108 0.50549 0.21394 0.0
H263 H 0.39422 0.52678 0.29857 0.0
C264 C 0.79465 0.30756 0.40717 0.0
C265 C 0.75733 0.27901 0.44526 0.0
C266 C 0.77539 0.32405 0.56722 0.0
C267 C 0.81482 0.35046 0.53307 0.0
N268 N 0.86453 0.36315 0.42613 0.0
N269 N 0.71462 0.25637 0.56623 0.0
C270 C 0.82513 0.34118 0.45429 0.0
C271 C 0.74835 0.28627 0.52664 0.0
N272 N 0.80043 0.30297 0.32504 0.0
N273 N 0.76296 0.33578 0.6363 0.0
H274 H 0.69449 0.22833 0.53822 0.0
H275 H 0.70863 0.25791 0.62884 0.0
H276 H 0.78122 0.36365 0.66656 0.0
H277 H 0.73311 0.31974 0.65887 0.0
H278 H 0.82515 0.32491 0.29102 0.0
H279 H 0.77834 0.2789 0.28898 0.0
H280 H 0.87472 0.35515 0.37326 0.0
H281 H 0.88816 0.38708 0.45976 0.0
C282 C 0.50134 0.80561 0.59324 0.0
C283 C 0.47128 0.79101 0.65678 0.0
C284 C 0.46756 0.72413 0.65291 0.0
C285 C 0.49523 0.73776 0.58544 0.0
N286 N 0.53485 0.78886 0.48398 0.0
N287 N 0.42246 0.73546 0.742 0.0
C288 C 0.51131 0.77794 0.55387 0.0
C289 C 0.45337 0.74992 0.68506 0.0
N290 N 0.52031 0.84594 0.57063 0.0
N291 N 0.45618 0.68702 0.68808 0.0
H292 H 0.41281 0.754 0.77011 0.0
H293 H 0.40478 0.70471 0.75804 0.0
H294 H 0.46635 0.66773 0.66594 0.0
H295 H 0.4394 0.67663 0.74268 0.0
H296 H 0.54539 0.85964 0.53108 0.0
H297 H 0.51264 0.86666 0.5956 0.0
H298 H 0.54448 0.81615 0.45208 0.0
H299 H 0.54225 0.76899 0.45396 0.0
C300 C 0.7238 0.49634 0.78348 0.0
C301 C 0.71207 0.47142 0.85595 0.0
C302 C 0.77349 0.46476 0.84264 0.0
C303 C 0.78332 0.48697 0.76724 0.0
N304 N 0.76423 0.51719 0.65718 0.0
N305 N 0.72134 0.42475 0.94408 0.0
C306 C 0.75726 0.50067 0.73505 0.0
C307 C 0.7357 0.45359 0.88266 0.0
N308 N 0.70453 0.5177 0.76325 0.0
N309 N 0.80112 0.45578 0.87778 0.0
H310 H 0.69347 0.41498 0.97371 0.0
H311 H 0.73508 0.40766 0.96006 0.0
H312 H 0.82912 0.46378 0.85021 0.0
H313 H 0.7979 0.44362 0.93726 0.0
H314 H 0.71455 0.53954 0.71623 0.0
H315 H 0.68087 0.5166 0.79834 0.0
H316 H 0.74411 0.52413 0.62627 0.0
H317 H 0.78836 0.52036 0.62046 0.0
C318 C 0.31017 0.72626 0.87558 0.0
C319 C 0.32087 0.76305 0.91851 0.0
C320 C 0.26662 0.72397 0.02043 0.0
C321 C 0.25791 0.68684 0.98059 0.0
N322 N 0.28012 0.65278 0.88474 0.0
N323 N 0.31587 0.79615 0.04167 0.0
C324 C 0.28237 0.68804 0.91253 0.0
C325 C 0.30108 0.76159 0.99416 0.0
N326 N 0.32473 0.72774 0.7974 0.0
N327 N 0.24095 0.72376 0.08018 0.0
H328 H 0.34159 0.82375 0.02465 0.0
H329 H 0.3053 0.79638 0.10122 0.0
H330 H 0.21494 0.69715 0.09996 0.0
H331 H 0.24342 0.75039 0.1049 0.0
H332 H 0.31474 0.7019 0.75996 0.0
H333 H 0.34357 0.75516 0.76665 0.0
H334 H 0.30002 0.65248 0.84048 0.0
H335 H 0.26162 0.6244 0.91259 0.0
C336 C 0.56816 0.29438 0.16651 0.0
C337 C 0.57402 0.30336 0.08044 0.0
C338 C 0.59623 0.2529 0.06377 0.0
C339 C 0.58488 0.23988 0.1473 0.0
N340 N 0.55524 0.24519 0.27596 0.0
N341 N 0.58804 0.28744 0.94423 0.0
C342 C 0.56985 0.26003 0.19847 0.0
C343 C 0.58678 0.28176 0.02828 0.0
N344 N 0.56176 0.31937 0.2178 0.0
N345 N 0.61739 0.23883 0.01918 0.0
H346 H 0.58072 0.30788 0.91619 0.0
H347 H 0.5928 0.26939 0.90199 0.0
H348 H 0.62614 0.21875 0.04373 0.0
H349 H 0.62995 0.25029 0.96104 0.0
H350 H 0.5611 0.31702 0.28238 0.0
H351 H 0.56102 0.345 0.19584 0.0
H352 H 0.53991 0.2559 0.31251 0.0
H353 H 0.55524 0.21975 0.30116 0.0
loop_
_geom_bond_atom_site_label_1
_geom_bond_atom_site_label_2
_geom_bond_distance
_geom_bond_site_symmetry_2
_ccdc_geom_bond_type
Cu0 N1 1.999 1_554 S
Cu0 O6 1.974 . S
Cu0 N11 1.985 . S
Cu0 O20 1.959 1_554 S
N1 Cu0 1.999 1_556 S
N1 C3 1.263 . S
N1 C5 1.389 . S
N2 C3 1.358 . S
N2 C4 1.400 . S
C3 N1 1.263 . S
C3 N2 1.358 . S
C3 H9 0.930 1_556 S
C4 N2 1.400 . S
C4 C5 1.351 . S
C4 H21 0.930 . S
C5 N1 1.389 . S
C5 C4 1.351 . S
C5 H10 0.930 . S
O6 Cu0 1.974 . S
O6 C16 1.282 . S
C7 O8 1.261 . S
C7 O20 1.251 1_554 S
O8 C7 1.261 . S
H9 C3 0.930 1_554 S
H10 C5 0.930 . S
N11 Cu0 1.985 . S
N11 C13 1.335 . S
N11 C14 1.390 . S
N12 C13 1.345 . S
N12 C15 1.336 . S
C13 N11 1.335 . S
C13 N12 1.345 . S
C13 H18 0.930 . S
C14 N11 1.390 . S
C14 C15 1.346 . S
C14 H19 0.930 . S
C15 N12 1.336 . S
C15 C14 1.346 . S
C15 H22 0.929 . S
C16 O6 1.282 . S
C16 O17 1.216 . S
O17 C16 1.216 . S
H18 C13 0.930 . S
H19 C14 0.930 . S
O20 Cu0 1.959 1_556 S
O20 C7 1.251 1_556 S
H21 C4 0.930 . S
H22 C15 0.929 . S
Cu23 N24 1.999 . S
Cu23 O29 1.974 . S
Cu23 N34 1.985 . S
Cu23 O43 1.959 . S
N24 Cu23 1.999 . S
N24 C26 1.263 . S
N24 C28 1.389 . S
N25 C26 1.358 . S
N25 C27 1.400 . S
C26 N24 1.263 . S
C26 N25 1.358 . S
C26 H32 0.930 . S
C27 N25 1.400 . S
C27 C28 1.351 . S
C27 H44 0.930 1_554 S
C28 N24 1.389 . S
C28 C27 1.351 . S
C28 H33 0.930 . S
O29 Cu23 1.974 . S
O29 C39 1.282 . S
C30 O31 1.261 . S
C30 O43 1.251 . S
O31 C30 1.261 . S
H32 C26 0.930 . S
H33 C28 0.930 . S
N34 Cu23 1.985 . S
N34 C36 1.335 . S
N34 C37 1.390 . S
N35 C36 1.345 . S
N35 C38 1.336 . S
C36 N34 1.335 . S
C36 N35 1.345 . S
C36 H41 0.930 . S
C37 N34 1.390 . S
C37 C38 1.346 . S
C37 H42 0.930 . S
C38 N35 1.336 . S
C38 C37 1.346 . S
C38 H45 0.929 . S
C39 O29 1.282 . S
C39 O40 1.216 . S
O40 C39 1.216 . S
H41 C36 0.930 . S
H42 C37 0.930 . S
O43 Cu23 1.959 . S
O43 C30 1.251 . S
H44 C27 0.930 1_556 S
H45 C38 0.929 . S
Cu46 N47 1.999 . S
Cu46 O52 1.974 . S
Cu46 N57 1.985 . S
Cu46 O66 1.959 . S
N47 Cu46 1.999 . S
N47 C49 1.263 . S
N47 C51 1.389 . S
N48 C49 1.358 . S
N48 C50 1.400 . S
C49 N47 1.263 . S
C49 N48 1.358 . S
C49 H55 0.930 . S
C50 N48 1.400 . S
C50 C51 1.351 . S
C50 H67 0.930 . S
C51 N47 1.389 . S
C51 C50 1.351 . S
C51 H56 0.930 . S
O52 Cu46 1.974 . S
O52 C62 1.282 . S
C53 O54 1.261 . S
C53 O66 1.251 . S
O54 C53 1.261 . S
H55 C49 0.930 . S
H56 C51 0.930 . S
N57 Cu46 1.985 . S
N57 C59 1.335 . S
N57 C60 1.390 . S
N58 C59 1.345 . S
N58 C61 1.336 . S
C59 N57 1.335 . S
C59 N58 1.345 . S
C59 H64 0.930 . S
C60 N57 1.390 . S
C60 C61 1.346 . S
C60 H65 0.930 . S
C61 N58 1.336 . S
C61 C60 1.346 . S
C61 H68 0.929 . S
C62 O52 1.282 . S
C62 O63 1.216 . S
O63 C62 1.216 . S
H64 C59 0.930 . S
H65 C60 0.930 . S
O66 Cu46 1.959 . S
O66 C53 1.251 . S
H67 C50 0.930 . S
H68 C61 0.929 . S
Cu69 N70 1.999 . S
Cu69 O75 1.974 . S
Cu69 N80 1.985 . S
Cu69 O89 1.959 . S
N70 Cu69 1.999 . S
N70 C72 1.263 . S
N70 C74 1.389 . S
N71 C72 1.358 . S
N71 C73 1.400 . S
C72 N70 1.263 . S
C72 N71 1.358 . S
C72 H78 0.930 . S
C73 N71 1.400 . S
C73 C74 1.351 . S
C73 H90 0.930 . S
C74 N70 1.389 . S
C74 C73 1.351 . S
C74 H79 0.930 . S
O75 Cu69 1.974 . S
O75 C85 1.282 . S
C76 O77 1.261 . S
C76 O89 1.251 . S
O77 C76 1.261 . S
H78 C72 0.930 . S
H79 C74 0.930 . S
N80 Cu69 1.985 . S
N80 C82 1.335 . S
N80 C83 1.390 . S
N81 C82 1.345 . S
N81 C84 1.336 . S
C82 N80 1.335 . S
C82 N81 1.345 . S
C82 H87 0.930 . S
C83 N80 1.390 . S
C83 C84 1.346 . S
C83 H88 0.930 . S
C84 N81 1.336 . S
C84 C83 1.346 . S
C84 H91 0.929 . S
C85 O75 1.282 . S
C85 O86 1.216 . S
O86 C85 1.216 . S
H87 C82 0.930 . S
H88 C83 0.930 . S
O89 Cu69 1.959 . S
O89 C76 1.251 . S
H90 C73 0.930 . S
H91 C84 0.929 . S
Cu92 N93 1.999 . S
Cu92 O98 1.974 . S
Cu92 N103 1.985 . S
Cu92 O112 1.959 . S
N93 Cu92 1.999 . S
N93 C95 1.263 . S
N93 C97 1.389 . S
N94 C95 1.358 . S
N94 C96 1.400 . S
C95 N93 1.263 . S
C95 N94 1.358 . S
C95 H101 0.930 . S
C96 N94 1.400 . S
C96 C97 1.351 . S
C96 H113 0.930 . S
C97 N93 1.389 . S
C97 C96 1.351 . S
C97 H102 0.930 . S
O98 Cu92 1.974 . S
O98 C108 1.282 . S
C99 O100 1.261 . S
C99 O112 1.251 . S
O100 C99 1.261 . S
H101 C95 0.930 . S
H102 C97 0.930 . S
N103 Cu92 1.985 . S
N103 C105 1.335 . S
N103 C106 1.390 . S
N104 C105 1.345 . S
N104 C107 1.336 . S
C105 N103 1.335 . S
C105 N104 1.345 . S
C105 H110 0.930 . S
C106 N103 1.390 . S
C106 C107 1.346 . S
C106 H111 0.930 . S
C107 N104 1.336 . S
C107 C106 1.346 . S
C107 H114 0.929 1_556 S
C108 O98 1.282 . S
C108 O109 1.216 . S
O109 C108 1.216 . S
H110 C105 0.930 . S
H111 C106 0.930 . S
O112 Cu92 1.959 . S
O112 C99 1.251 . S
H113 C96 0.930 . S
H114 C107 0.929 1_554 S
Cu115 N116 1.999 . S
Cu115 O121 1.974 . S
Cu115 N126 1.985 . S
Cu115 O135 1.959 . S
N116 Cu115 1.999 . S
N116 C118 1.263 . S
N116 C120 1.389 . S
N117 C118 1.358 . S
N117 C119 1.400 . S
C118 N116 1.263 . S
C118 N117 1.358 . S
C118 H124 0.930 . S
C119 N117 1.400 . S
C119 C120 1.351 . S
C119 H136 0.930 . S
C120 N116 1.389 . S
C120 C119 1.351 . S
C120 H125 0.930 . S
O121 Cu115 1.974 . S
O121 C131 1.282 1_556 S
C122 O123 1.261 . S
C122 O135 1.251 . S
O123 C122 1.261 . S
H124 C118 0.930 . S
H125 C120 0.930 . S
N126 Cu115 1.985 . S
N126 C128 1.335 . S
N126 C129 1.390 1_556 S
N127 C128 1.345 1_554 S
N127 C130 1.336 . S
C128 N126 1.335 . S
C128 N127 1.345 1_556 S
C128 H133 0.930 . S
C129 N126 1.390 1_554 S
C129 C130 1.346 . S
C129 H134 0.930 . S
C130 N127 1.336 . S
C130 C129 1.346 . S
C130 H137 0.929 . S
C131 O121 1.282 1_554 S
C131 O132 1.216 . S
O132 C131 1.216 . S
H133 C128 0.930 . S
H134 C129 0.930 . S
O135 Cu115 1.959 . S
O135 C122 1.251 . S
H136 C119 0.930 . S
H137 C130 0.929 . S
C138 C139 1.363 1_655 S
C138 C144 1.379 . S
C138 N146 1.356 1_655 S
C139 C138 1.363 1_455 S
C139 C145 1.363 . S
C140 C141 1.363 . S
C140 C145 1.379 1_655 S
C140 N147 1.356 . S
C141 C140 1.363 . S
C141 C144 1.363 . S
N142 C144 1.356 . S
N142 H154 0.984 . S
N142 H155 0.985 . S
N143 C145 1.356 . S
N143 H148 0.984 . S
N143 H149 0.985 . S
C144 C138 1.379 . S
C144 C141 1.363 . S
C144 N142 1.356 . S
C145 C139 1.363 . S
C145 C140 1.379 1_455 S
C145 N143 1.356 . S
N146 C138 1.356 1_455 S
N146 H152 0.984 1_455 S
N146 H153 0.984 . S
N147 C140 1.356 . S
N147 H150 0.984 . S
N147 H151 0.985 . S
H148 N143 0.984 . S
H149 N143 0.985 . S
H150 N147 0.984 . S
H151 N147 0.985 . S
H152 N146 0.984 1_655 S
H153 N146 0.984 . S
H154 N142 0.984 . S
H155 N142 0.985 . S
C156 C157 1.363 . S
C156 C162 1.379 1_556 S
C156 N164 1.356 . S
C157 C156 1.363 . S
C157 C163 1.363 . S
C158 C159 1.363 1_556 S
C158 C163 1.379 1_545 S
C158 N165 1.356 . S
C159 C158 1.363 1_554 S
C159 C162 1.363 1_545 S
N160 C162 1.356 . S
N160 H172 0.984 . S
N160 H173 0.985 1_565 S
N161 C163 1.356 . S
N161 H166 0.984 . S
N161 H167 0.985 1_565 S
C162 C156 1.379 1_554 S
C162 C159 1.363 1_565 S
C162 N160 1.356 . S
C163 C157 1.363 . S
C163 C158 1.379 1_565 S
C163 N161 1.356 . S
N164 C156 1.356 . S
N164 H170 0.984 1_556 S
N164 H171 0.984 . S
N165 C158 1.356 . S
N165 H168 0.984 1_556 S
N165 H169 0.985 . S
H166 N161 0.984 . S
H167 N161 0.985 1_545 S
H168 N165 0.984 1_554 S
H169 N165 0.985 . S
H170 N164 0.984 1_554 S
H171 N164 0.984 . S
H172 N160 0.984 . S
H173 N160 0.985 1_545 S
C174 C175 1.363 . S
C174 C180 1.379 . S
C174 N182 1.356 . S
C175 C174 1.363 . S
C175 C181 1.363 . S
C176 C177 1.363 . S
C176 C181 1.379 . S
C176 N183 1.356 . S
C177 C176 1.363 . S
C177 C180 1.363 . S
N178 C180 1.356 . S
N178 H190 0.984 . S
N178 H191 0.985 1_554 S
N179 C181 1.356 . S
N179 H184 0.984 . S
N179 H185 0.985 . S
C180 C174 1.379 . S
C180 C177 1.363 . S
C180 N178 1.356 . S
C181 C175 1.363 . S
C181 C176 1.379 . S
C181 N179 1.356 . S
N182 C174 1.356 . S
N182 H188 0.984 . S
N182 H189 0.984 . S
N183 C176 1.356 . S
N183 H186 0.984 . S
N183 H187 0.985 . S
H184 N179 0.984 . S
H185 N179 0.985 . S
H186 N183 0.984 . S
H187 N183 0.985 . S
H188 N182 0.984 . S
H189 N182 0.984 . S
H190 N178 0.984 . S
H191 N178 0.985 1_556 S
C192 C193 1.363 1_455 S
C192 C198 1.379 . S
C192 N200 1.356 . S
C193 C192 1.363 1_655 S
C193 C199 1.363 . S
C194 C195 1.363 . S
C194 C199 1.379 1_455 S
C194 N201 1.356 . S
C195 C194 1.363 . S
C195 C198 1.363 . S
N196 C198 1.356 . S
N196 H208 0.984 . S
N196 H209 0.985 . S
N197 C199 1.356 . S
N197 H202 0.984 . S
N197 H203 0.985 . S
C198 C192 1.379 . S
C198 C195 1.363 . S
C198 N196 1.356 . S
C199 C193 1.363 . S
C199 C194 1.379 1_655 S
C199 N197 1.356 . S
N200 C192 1.356 . S
N200 H206 0.984 . S
N200 H207 0.984 1_455 S
N201 C194 1.356 . S
N201 H204 0.984 . S
N201 H205 0.985 . S
H202 N197 0.984 . S
H203 N197 0.985 . S
H204 N201 0.984 . S
H205 N201 0.985 . S
H206 N200 0.984 . S
H207 N200 0.984 1_655 S
H208 N196 0.984 . S
H209 N196 0.985 . S
C210 C211 1.363 . S
C210 C216 1.379 1_545 S
C210 N218 1.356 . S
C211 C210 1.363 . S
C211 C217 1.363 . S
C212 C213 1.363 1_545 S
C212 C217 1.379 . S
C212 N219 1.356 . S
C213 C212 1.363 1_565 S
C213 C216 1.363 . S
N214 C216 1.356 . S
N214 H226 0.984 . S
N214 H227 0.985 . S
N215 C217 1.356 . S
N215 H220 0.984 . S
N215 H221 0.985 . S
C216 C210 1.379 1_565 S
C216 C213 1.363 . S
C216 N214 1.356 . S
C217 C211 1.363 . S
C217 C212 1.379 . S
C217 N215 1.356 . S
N218 C210 1.356 . S
N218 H224 0.984 1_545 S
N218 H225 0.984 . S
N219 C212 1.356 . S
N219 H222 0.984 1_545 S
N219 H223 0.985 . S
H220 N215 0.984 . S
H221 N215 0.985 . S
H222 N219 0.984 1_565 S
H223 N219 0.985 . S
H224 N218 0.984 1_565 S
H225 N218 0.984 . S
H226 N214 0.984 . S
H227 N214 0.985 . S
C228 C229 1.363 . S
C228 C234 1.379 . S
C228 N236 1.356 . S
C229 C228 1.363 . S
C229 C235 1.363 . S
C230 C231 1.363 . S
C230 C235 1.379 . S
C230 N237 1.356 . S
C231 C230 1.363 . S
C231 C234 1.363 . S
N232 C234 1.356 . S
N232 H244 0.984 . S
N232 H245 0.985 . S
N233 C235 1.356 . S
N233 H238 0.984 . S
N233 H239 0.985 . S
C234 C228 1.379 . S
C234 C231 1.363 . S
C234 N232 1.356 . S
C235 C229 1.363 . S
C235 C230 1.379 . S
C235 N233 1.356 . S
N236 C228 1.356 . S
N236 H242 0.984 . S
N236 H243 0.984 . S
N237 C230 1.356 . S
N237 H240 0.984 . S
N237 H241 0.985 . S
H238 N233 0.984 . S
H239 N233 0.985 . S
H240 N237 0.984 . S
H241 N237 0.985 . S
H242 N236 0.984 . S
H243 N236 0.984 . S
H244 N232 0.984 . S
H245 N232 0.985 . S
C246 C247 1.363 . S
C246 C252 1.379 . S
C246 N254 1.356 . S
C247 C246 1.363 . S
C247 C253 1.363 . S
C248 C249 1.363 . S
C248 C253 1.379 . S
C248 N255 1.356 . S
C249 C248 1.363 . S
C249 C252 1.363 . S
N250 C252 1.356 . S
N250 H262 0.984 . S
N250 H263 0.985 . S
N251 C253 1.356 . S
N251 H256 0.984 . S
N251 H257 0.985 . S
C252 C246 1.379 . S
C252 C249 1.363 . S
C252 N250 1.356 . S
C253 C247 1.363 . S
C253 C248 1.379 . S
C253 N251 1.356 . S
N254 C246 1.356 . S
N254 H260 0.984 . S
N254 H261 0.984 . S
N255 C248 1.356 . S
N255 H258 0.984 . S
N255 H259 0.985 . S
H256 N251 0.984 . S
H257 N251 0.985 . S
H258 N255 0.984 . S
H259 N255 0.985 . S
H260 N254 0.984 . S
H261 N254 0.984 . S
H262 N250 0.984 . S
H263 N250 0.985 . S
C264 C265 1.363 . S
C264 C270 1.379 . S
C264 N272 1.356 . S
C265 C264 1.363 . S
C265 C271 1.363 . S
C266 C267 1.363 . S
C266 C271 1.379 . S
C266 N273 1.356 . S
C267 C266 1.363 . S
C267 C270 1.363 . S
N268 C270 1.356 . S
N268 H280 0.984 . S
N268 H281 0.985 . S
N269 C271 1.356 . S
N269 H274 0.984 . S
N269 H275 0.985 . S
C270 C264 1.379 . S
C270 C267 1.363 . S
C270 N268 1.356 . S
C271 C265 1.363 . S
C271 C266 1.379 . S
C271 N269 1.356 . S
N272 C264 1.356 . S
N272 H278 0.984 . S
N272 H279 0.984 . S
N273 C266 1.356 . S
N273 H276 0.984 . S
N273 H277 0.985 . S
H274 N269 0.984 . S
H275 N269 0.985 . S
H276 N273 0.984 . S
H277 N273 0.985 . S
H278 N272 0.984 . S
H279 N272 0.984 . S
H280 N268 0.984 . S
H281 N268 0.985 . S
C282 C283 1.363 . S
C282 C288 1.379 . S
C282 N290 1.356 . S
C283 C282 1.363 . S
C283 C289 1.363 . S
C284 C285 1.363 . S
C284 C289 1.379 . S
C284 N291 1.356 . S
C285 C284 1.363 . S
C285 C288 1.363 . S
N286 C288 1.356 . S
N286 H298 0.984 . S
N286 H299 0.985 . S
N287 C289 1.356 . S
N287 H292 0.984 . S
N287 H293 0.985 . S
C288 C282 1.379 . S
C288 C285 1.363 . S
C288 N286 1.356 . S
C289 C283 1.363 . S
C289 C284 1.379 . S
C289 N287 1.356 . S
N290 C282 1.356 . S
N290 H296 0.984 . S
N290 H297 0.984 . S
N291 C284 1.356 . S
N291 H294 0.984 . S
N291 H295 0.985 . S
H292 N287 0.984 . S
H293 N287 0.985 . S
H294 N291 0.984 . S
H295 N291 0.985 . S
H296 N290 0.984 . S
H297 N290 0.984 . S
H298 N286 0.984 . S
H299 N286 0.985 . S
C300 C301 1.363 . S
C300 C306 1.379 . S
C300 N308 1.356 . S
C301 C300 1.363 . S
C301 C307 1.363 . S
C302 C303 1.363 . S
C302 C307 1.379 . S
C302 N309 1.356 . S
C303 C302 1.363 . S
C303 C306 1.363 . S
N304 C306 1.356 . S
N304 H316 0.984 . S
N304 H317 0.985 . S
N305 C307 1.356 . S
N305 H310 0.984 . S
N305 H311 0.985 . S
C306 C300 1.379 . S
C306 C303 1.363 . S
C306 N304 1.356 . S
C307 C301 1.363 . S
C307 C302 1.379 . S
C307 N305 1.356 . S
N308 C300 1.356 . S
N308 H314 0.984 . S
N308 H315 0.984 . S
N309 C302 1.356 . S
N309 H312 0.984 . S
N309 H313 0.985 . S
H310 N305 0.984 . S
H311 N305 0.985 . S
H312 N309 0.984 . S
H313 N309 0.985 . S
H314 N308 0.984 . S
H315 N308 0.984 . S
H316 N304 0.984 . S
H317 N304 0.985 . S
C318 C319 1.363 . S
C318 C324 1.379 . S
C318 N326 1.356 . S
C319 C318 1.363 . S
C319 C325 1.363 . S
C320 C321 1.363 1_554 S
C320 C325 1.379 1_554 S
C320 N327 1.356 . S
C321 C320 1.363 1_556 S
C321 C324 1.363 . S
N322 C324 1.356 . S
N322 H334 0.984 . S
N322 H335 0.985 . S
N323 C325 1.356 1_554 S
N323 H328 0.984 1_554 S
N323 H329 0.985 . S
C324 C318 1.379 . S
C324 C321 1.363 . S
C324 N322 1.356 . S
C325 C319 1.363 . S
C325 C320 1.379 1_556 S
C325 N323 1.356 1_556 S
N326 C318 1.356 . S
N326 H332 0.984 . S
N326 H333 0.984 . S
N327 C320 1.356 . S
N327 H330 0.984 . S
N327 H331 0.985 . S
H328 N323 0.984 1_556 S
H329 N323 0.985 . S
H330 N327 0.984 . S
H331 N327 0.985 . S
H332 N326 0.984 . S
H333 N326 0.984 . S
H334 N322 0.984 . S
H335 N322 0.985 . S
C336 C337 1.363 . S
C336 C342 1.379 . S
C336 N344 1.356 . S
C337 C336 1.363 . S
C337 C343 1.363 . S
C338 C339 1.363 . S
C338 C343 1.379 . S
C338 N345 1.356 . S
C339 C338 1.363 . S
C339 C342 1.363 . S
N340 C342 1.356 . S
N340 H352 0.984 . S
N340 H353 0.985 . S
N341 C343 1.356 1_556 S
N341 H346 0.984 . S
N341 H347 0.985 . S
C342 C336 1.379 . S
C342 C339 1.363 . S
C342 N340 1.356 . S
C343 C337 1.363 . S
C343 C338 1.379 . S
C343 N341 1.356 1_554 S
N344 C336 1.356 . S
N344 H350 0.984 . S
N344 H351 0.984 . S
N345 C338 1.356 . S
N345 H348 0.984 . S
N345 H349 0.985 1_554 S
H346 N341 0.984 . S
H347 N341 0.985 . S
H348 N345 0.984 . S
H349 N345 0.985 1_556 S
H350 N344 0.984 . S
H351 N344 0.984 . S
H352 N340 0.984 . S
H353 N340 0.985 . S
C139 N2 1.587 . S
C141 C85 1.658 . S
C157 C108 1.658 . S
C159 N25 1.587 . S
C175 N48 1.586 . S
C177 C131 1.658 . S
C193 N71 1.587 . S
C195 C16 1.658 . S
C211 C39 1.658 . S
C213 N94 1.587 . S
C229 N117 1.586 . S
C231 C62 1.658 . S
C247 N12 1.614 . S
C249 C53 1.614 . S
C265 N35 1.613 . S
C267 C76 1.614 . S
C283 C99 1.614 . S
C285 N58 1.613 . S
C301 C122 1.615 . S
C303 N81 1.614 . S
C319 N104 1.613 . S
C321 C7 1.615 1_556 S
C337 N127 1.613 . S
C339 C30 1.614 . S
