# Generated by pormake.
# Topology wmt, (6)-cn, num edge types: 1
# Building blocks:
#     Node 0, Type 0, BuildingBlock: BETDEL_clean_sbu_0, # of connection points: 6
#     Node 1, Type 0, BuildingBlock: BETDEL_clean_sbu_0, # of connection points: 6
#     Node 2, Type 0, BuildingBlock: BETDEL_clean_sbu_0, # of connection points: 6
#     Node 3, Type 0, BuildingBlock: BETDEL_clean_sbu_0, # of connection points: 6
#     Node 4, Type 0, BuildingBlock: BETDEL_clean_sbu_0, # of connection points: 6
#     Node 5, Type 0, BuildingBlock: BETDEL_clean_sbu_0, # of connection points: 6
#     Node 6, Type 0, BuildingBlock: BETDEL_clean_sbu_0, # of connection points: 6
#     Node 7, Type 0, BuildingBlock: BETDEL_clean_sbu_0, # of connection points: 6
#     Node 8, Type 0, BuildingBlock: BETDEL_clean_sbu_0, # of connection points: 6
#     Node 9, Type 0, BuildingBlock: BETDEL_clean_sbu_0, # of connection points: 6
#     Node 10, Type 0, BuildingBlock: BETDEL_clean_sbu_0, # of connection points: 6
#     Node 11, Type 0, BuildingBlock: BETDEL_clean_sbu_0, # of connection points: 6
#     Node 12, Type 0, BuildingBlock: BETDEL_clean_sbu_0, # of connection points: 6
#     Node 13, Type 0, BuildingBlock: BETDEL_clean_sbu_0, # of connection points: 6
#     Node 14, Type 0, BuildingBlock: BETDEL_clean_sbu_0, # of connection points: 6
#     Node 15, Type 0, BuildingBlock: BETDEL_clean_sbu_0, # of connection points: 6
#     Node 16, Type 0, BuildingBlock: BETDEL_clean_sbu_0, # of connection points: 6
#     Node 17, Type 0, BuildingBlock: BETDEL_clean_sbu_0, # of connection points: 6
#     Node 18, Type 0, BuildingBlock: BETDEL_clean_sbu_0, # of connection points: 6
#     Node 19, Type 0, BuildingBlock: BETDEL_clean_sbu_0, # of connection points: 6
#     Node 20, Type 0, BuildingBlock: BETDEL_clean_sbu_0, # of connection points: 6
#     Node 21, Type 0, BuildingBlock: BETDEL_clean_sbu_0, # of connection points: 6
#     Node 22, Type 0, BuildingBlock: BETDEL_clean_sbu_0, # of connection points: 6
#     Node 23, Type 0, BuildingBlock: BETDEL_clean_sbu_0, # of connection points: 6
#     Node 24, Type 0, BuildingBlock: BETDEL_clean_sbu_0, # of connection points: 6
#     Node 25, Type 0, BuildingBlock: BETDEL_clean_sbu_0, # of connection points: 6
#     Node 26, Type 0, BuildingBlock: BETDEL_clean_sbu_0, # of connection points: 6
#     Node 27, Type 0, BuildingBlock: BETDEL_clean_sbu_0, # of connection points: 6
#     Node 28, Type 0, BuildingBlock: BETDEL_clean_sbu_0, # of connection points: 6
#     Node 29, Type 0, BuildingBlock: BETDEL_clean_sbu_0, # of connection points: 6
#     Node 30, Type 0, BuildingBlock: BETDEL_clean_sbu_0, # of connection points: 6
#     Node 31, Type 0, BuildingBlock: BETDEL_clean_sbu_0, # of connection points: 6
#     Node 32, Type 0, BuildingBlock: BETDEL_clean_sbu_0, # of connection points: 6
#     Node 33, Type 0, BuildingBlock: BETDEL_clean_sbu_0, # of connection points: 6
#     Node 34, Type 0, BuildingBlock: BETDEL_clean_sbu_0, # of connection points: 6
#     Node 35, Type 0, BuildingBlock: BETDEL_clean_sbu_0, # of connection points: 6
#     Edge 36, Type (0, 0), BuildingBlock: AJUNOK_clean_linker_0, # of connection points: 2
#     Edge 37, Type (0, 0), BuildingBlock: AJUNOK_clean_linker_0, # of connection points: 2
#     Edge 38, Type (0, 0), BuildingBlock: AJUNOK_clean_linker_0, # of connection points: 2
#     Edge 39, Type (0, 0), BuildingBlock: AJUNOK_clean_linker_0, # of connection points: 2
#     Edge 40, Type (0, 0), BuildingBlock: AJUNOK_clean_linker_0, # of connection points: 2
#     Edge 41, Type (0, 0), BuildingBlock: AJUNOK_clean_linker_0, # of connection points: 2
#     Edge 42, Type (0, 0), BuildingBlock: AJUNOK_clean_linker_0, # of connection points: 2
#     Edge 43, Type (0, 0), BuildingBlock: AJUNOK_clean_linker_0, # of connection points: 2
#     Edge 44, Type (0, 0), BuildingBlock: AJUNOK_clean_linker_0, # of connection points: 2
#     Edge 45, Type (0, 0), BuildingBlock: AJUNOK_clean_linker_0, # of connection points: 2
#     Edge 46, Type (0, 0), BuildingBlock: AJUNOK_clean_linker_0, # of connection points: 2
#     Edge 47, Type (0, 0), BuildingBlock: AJUNOK_clean_linker_0, # of connection points: 2
#     Edge 48, Type (0, 0), BuildingBlock: AJUNOK_clean_linker_0, # of connection points: 2
#     Edge 49, Type (0, 0), BuildingBlock: AJUNOK_clean_linker_0, # of connection points: 2
#     Edge 50, Type (0, 0), BuildingBlock: AJUNOK_clean_linker_0, # of connection points: 2
#     Edge 51, Type (0, 0), BuildingBlock: AJUNOK_clean_linker_0, # of connection points: 2
#     Edge 52, Type (0, 0), BuildingBlock: AJUNOK_clean_linker_0, # of connection points: 2
#     Edge 53, Type (0, 0), BuildingBlock: AJUNOK_clean_linker_0, # of connection points: 2
#     Edge 54, Type (0, 0), BuildingBlock: AJUNOK_clean_linker_0, # of connection points: 2
#     Edge 55, Type (0, 0), BuildingBlock: AJUNOK_clean_linker_0, # of connection points: 2
#     Edge 56, Type (0, 0), BuildingBlock: AJUNOK_clean_linker_0, # of connection points: 2
#     Edge 57, Type (0, 0), BuildingBlock: AJUNOK_clean_linker_0, # of connection points: 2
#     Edge 58, Type (0, 0), BuildingBlock: AJUNOK_clean_linker_0, # of connection points: 2
#     Edge 59, Type (0, 0), BuildingBlock: AJUNOK_clean_linker_0, # of connection points: 2
#     Edge 60, Type (0, 0), BuildingBlock: AJUNOK_clean_linker_0, # of connection points: 2
#     Edge 61, Type (0, 0), BuildingBlock: AJUNOK_clean_linker_0, # of connection points: 2
#     Edge 62, Type (0, 0), BuildingBlock: AJUNOK_clean_linker_0, # of connection points: 2
#     Edge 63, Type (0, 0), BuildingBlock: AJUNOK_clean_linker_0, # of connection points: 2
#     Edge 64, Type (0, 0), BuildingBlock: AJUNOK_clean_linker_0, # of connection points: 2
#     Edge 65, Type (0, 0), BuildingBlock: AJUNOK_clean_linker_0, # of connection points: 2
#     Edge 66, Type (0, 0), BuildingBlock: AJUNOK_clean_linker_0, # of connection points: 2
#     Edge 67, Type (0, 0), BuildingBlock: AJUNOK_clean_linker_0, # of connection points: 2
#     Edge 68, Type (0, 0), BuildingBlock: AJUNOK_clean_linker_0, # of connection points: 2
#     Edge 69, Type (0, 0), BuildingBlock: AJUNOK_clean_linker_0, # of connection points: 2
#     Edge 70, Type (0, 0), BuildingBlock: AJUNOK_clean_linker_0, # of connection points: 2
#     Edge 71, Type (0, 0), BuildingBlock: AJUNOK_clean_linker_0, # of connection points: 2
#     Edge 72, Type (0, 0), BuildingBlock: AJUNOK_clean_linker_0, # of connection points: 2
#     Edge 73, Type (0, 0), BuildingBlock: AJUNOK_clean_linker_0, # of connection points: 2
#     Edge 74, Type (0, 0), BuildingBlock: AJUNOK_clean_linker_0, # of connection points: 2
#     Edge 75, Type (0, 0), BuildingBlock: AJUNOK_clean_linker_0, # of connection points: 2
#     Edge 76, Type (0, 0), BuildingBlock: AJUNOK_clean_linker_0, # of connection points: 2
#     Edge 77, Type (0, 0), BuildingBlock: AJUNOK_clean_linker_0, # of connection points: 2
#     Edge 78, Type (0, 0), BuildingBlock: AJUNOK_clean_linker_0, # of connection points: 2
#     Edge 79, Type (0, 0), BuildingBlock: AJUNOK_clean_linker_0, # of connection points: 2
#     Edge 80, Type (0, 0), BuildingBlock: AJUNOK_clean_linker_0, # of connection points: 2
#     Edge 81, Type (0, 0), BuildingBlock: AJUNOK_clean_linker_0, # of connection points: 2
#     Edge 82, Type (0, 0), BuildingBlock: AJUNOK_clean_linker_0, # of connection points: 2
#     Edge 83, Type (0, 0), BuildingBlock: AJUNOK_clean_linker_0, # of connection points: 2
#     Edge 84, Type (0, 0), BuildingBlock: AJUNOK_clean_linker_0, # of connection points: 2
#     Edge 85, Type (0, 0), BuildingBlock: AJUNOK_clean_linker_0, # of connection points: 2
#     Edge 86, Type (0, 0), BuildingBlock: AJUNOK_clean_linker_0, # of connection points: 2
#     Edge 87, Type (0, 0), BuildingBlock: AJUNOK_clean_linker_0, # of connection points: 2
#     Edge 88, Type (0, 0), BuildingBlock: AJUNOK_clean_linker_0, # of connection points: 2
#     Edge 89, Type (0, 0), BuildingBlock: AJUNOK_clean_linker_0, # of connection points: 2
#     Edge 90, Type (0, 0), BuildingBlock: AJUNOK_clean_linker_0, # of connection points: 2
#     Edge 91, Type (0, 0), BuildingBlock: AJUNOK_clean_linker_0, # of connection points: 2
#     Edge 92, Type (0, 0), BuildingBlock: AJUNOK_clean_linker_0, # of connection points: 2
#     Edge 93, Type (0, 0), BuildingBlock: AJUNOK_clean_linker_0, # of connection points: 2
#     Edge 94, Type (0, 0), BuildingBlock: AJUNOK_clean_linker_0, # of connection points: 2
#     Edge 95, Type (0, 0), BuildingBlock: AJUNOK_clean_linker_0, # of connection points: 2
#     Edge 96, Type (0, 0), BuildingBlock: AJUNOK_clean_linker_0, # of connection points: 2
#     Edge 97, Type (0, 0), BuildingBlock: AJUNOK_clean_linker_0, # of connection points: 2
#     Edge 98, Type (0, 0), BuildingBlock: AJUNOK_clean_linker_0, # of connection points: 2
#     Edge 99, Type (0, 0), BuildingBlock: AJUNOK_clean_linker_0, # of connection points: 2
#     Edge 100, Type (0, 0), BuildingBlock: AJUNOK_clean_linker_0, # of connection points: 2
#     Edge 101, Type (0, 0), BuildingBlock: AJUNOK_clean_linker_0, # of connection points: 2
#     Edge 102, Type (0, 0), BuildingBlock: AJUNOK_clean_linker_0, # of connection points: 2
#     Edge 103, Type (0, 0), BuildingBlock: AJUNOK_clean_linker_0, # of connection points: 2
#     Edge 104, Type (0, 0), BuildingBlock: AJUNOK_clean_linker_0, # of connection points: 2
#     Edge 105, Type (0, 0), BuildingBlock: AJUNOK_clean_linker_0, # of connection points: 2
#     Edge 106, Type (0, 0), BuildingBlock: AJUNOK_clean_linker_0, # of connection points: 2
#     Edge 107, Type (0, 0), BuildingBlock: AJUNOK_clean_linker_0, # of connection points: 2
#     Edge 108, Type (0, 0), BuildingBlock: AJUNOK_clean_linker_0, # of connection points: 2
#     Edge 109, Type (0, 0), BuildingBlock: AJUNOK_clean_linker_0, # of connection points: 2
#     Edge 110, Type (0, 0), BuildingBlock: AJUNOK_clean_linker_0, # of connection points: 2
#     Edge 111, Type (0, 0), BuildingBlock: AJUNOK_clean_linker_0, # of connection points: 2
#     Edge 112, Type (0, 0), BuildingBlock: AJUNOK_clean_linker_0, # of connection points: 2
#     Edge 113, Type (0, 0), BuildingBlock: AJUNOK_clean_linker_0, # of connection points: 2
#     Edge 114, Type (0, 0), BuildingBlock: AJUNOK_clean_linker_0, # of connection points: 2
#     Edge 115, Type (0, 0), BuildingBlock: AJUNOK_clean_linker_0, # of connection points: 2
#     Edge 116, Type (0, 0), BuildingBlock: AJUNOK_clean_linker_0, # of connection points: 2
#     Edge 117, Type (0, 0), BuildingBlock: AJUNOK_clean_linker_0, # of connection points: 2
#     Edge 118, Type (0, 0), BuildingBlock: AJUNOK_clean_linker_0, # of connection points: 2
#     Edge 119, Type (0, 0), BuildingBlock: AJUNOK_clean_linker_0, # of connection points: 2
#     Edge 120, Type (0, 0), BuildingBlock: AJUNOK_clean_linker_0, # of connection points: 2
#     Edge 121, Type (0, 0), BuildingBlock: AJUNOK_clean_linker_0, # of connection points: 2
#     Edge 122, Type (0, 0), BuildingBlock: AJUNOK_clean_linker_0, # of connection points: 2
#     Edge 123, Type (0, 0), BuildingBlock: AJUNOK_clean_linker_0, # of connection points: 2
#     Edge 124, Type (0, 0), BuildingBlock: AJUNOK_clean_linker_0, # of connection points: 2
#     Edge 125, Type (0, 0), BuildingBlock: AJUNOK_clean_linker_0, # of connection points: 2
#     Edge 126, Type (0, 0), BuildingBlock: AJUNOK_clean_linker_0, # of connection points: 2
#     Edge 127, Type (0, 0), BuildingBlock: AJUNOK_clean_linker_0, # of connection points: 2
#     Edge 128, Type (0, 0), BuildingBlock: AJUNOK_clean_linker_0, # of connection points: 2
#     Edge 129, Type (0, 0), BuildingBlock: AJUNOK_clean_linker_0, # of connection points: 2
#     Edge 130, Type (0, 0), BuildingBlock: AJUNOK_clean_linker_0, # of connection points: 2
#     Edge 131, Type (0, 0), BuildingBlock: AJUNOK_clean_linker_0, # of connection points: 2
#     Edge 132, Type (0, 0), BuildingBlock: AJUNOK_clean_linker_0, # of connection points: 2
#     Edge 133, Type (0, 0), BuildingBlock: AJUNOK_clean_linker_0, # of connection points: 2
#     Edge 134, Type (0, 0), BuildingBlock: AJUNOK_clean_linker_0, # of connection points: 2
#     Edge 135, Type (0, 0), BuildingBlock: AJUNOK_clean_linker_0, # of connection points: 2
#     Edge 136, Type (0, 0), BuildingBlock: AJUNOK_clean_linker_0, # of connection points: 2
#     Edge 137, Type (0, 0), BuildingBlock: AJUNOK_clean_linker_0, # of connection points: 2
#     Edge 138, Type (0, 0), BuildingBlock: AJUNOK_clean_linker_0, # of connection points: 2
#     Edge 139, Type (0, 0), BuildingBlock: AJUNOK_clean_linker_0, # of connection points: 2
#     Edge 140, Type (0, 0), BuildingBlock: AJUNOK_clean_linker_0, # of connection points: 2
#     Edge 141, Type (0, 0), BuildingBlock: AJUNOK_clean_linker_0, # of connection points: 2
#     Edge 142, Type (0, 0), BuildingBlock: AJUNOK_clean_linker_0, # of connection points: 2
#     Edge 143, Type (0, 0), BuildingBlock: AJUNOK_clean_linker_0, # of connection points: 2
# Relax obj value: 0.336
# Max RMSD: 0.193
# Mean RMSD: 0.193
data_MOF--net-wmt--node1-BETDEL_clean_sbu_0--edge1-AJUNOK_clean_linker_0
_symmetry_space_group_name_H-M    P1
_symmetry_Int_Tables_number       1
_symmetry_cell_setting            triclinic
loop_
_symmetry_equiv_pos_as_xyz
'x, y, z'
_cell_length_a     59.861881
_cell_length_b     59.797244
_cell_length_c     20.717124
_cell_angle_alpha  90.100269
_cell_angle_beta   89.822984
_cell_angle_gamma 120.12342
loop_
_atom_site_label
_atom_site_type_symbol
_atom_site_fract_x
_atom_site_fract_y
_atom_site_fract_z
_atom_type_partial_charge
Dy0 Dy 0.07126 0.49195 0.15333 0.0
C1 C 0.02271 0.4083 0.95953 0.0
C2 C 0.07916 0.52434 0.25827 0.0
Dy3 Dy 0.03928 0.44098 0.06465 0.0
O4 O 0.08779 0.50828 0.25253 0.0
O5 O 0.06774 0.52393 0.20432 0.0
O6 O 0.1087 0.49686 0.11545 0.0
O7 O 0.07565 0.45973 0.11816 0.0
C8 C 0.09861 0.47278 0.09694 0.0
C9 C 0.01375 0.46393 0.10812 0.0
O10 O 0.03159 0.42151 0.16187 0.0
O11 O 0.04443 0.45954 0.22037 0.0
O12 O 0.00942 0.4052 1.01192 0.0
O13 O 0.04545 0.42837 0.96674 0.0
O14 O 0.00211 0.44008 0.08873 0.0
O15 O 0.0371 0.47355 0.09544 0.0
O16 O 0.0739 0.51171 0.05645 0.0
O17 O 0.05797 0.4743 0.99342 0.0
C18 C 0.03276 0.4339 0.21655 0.0
C19 C 0.06839 0.49988 0.99862 0.0
Dy20 Dy 0.50765 0.58097 0.14709 0.0
C21 C 0.59353 0.61852 0.9521 0.0
C22 C 0.47502 0.55783 0.2529 0.0
Dy23 Dy 0.55709 0.60069 0.04947 0.0
O24 O 0.49332 0.58195 0.24885 0.0
O25 O 0.47374 0.54681 0.19739 0.0
O26 O 0.50052 0.61219 0.10868 0.0
O27 O 0.53777 0.61742 0.10466 0.0
C28 C 0.52382 0.62646 0.08573 0.0
C29 C 0.52949 0.55037 0.06898 0.0
O30 O 0.57755 0.60738 0.14664 0.0
O31 O 0.54076 0.5896 0.21353 0.0
O32 O 0.59336 0.60531 1.00227 0.0
O33 O 0.57522 0.62397 0.9592 0.0
O34 O 0.54426 0.5604 1.01921 0.0
O35 O 0.53275 0.56776 0.10804 0.0
O36 O 0.48762 0.56303 0.05231 0.0
O37 O 0.52227 0.58937 0.98439 0.0
C38 C 0.56606 0.59988 0.20465 0.0
C39 C 0.49736 0.57181 0.99345 0.0
Dy40 Dy 0.4159 0.92957 0.14532 0.0
C41 C 0.37995 0.97904 0.95454 0.0
C42 C 0.43723 0.91603 0.24793 0.0
Dy43 Dy 0.39744 0.96279 0.05587 0.0
O44 O 0.41301 0.90954 0.24155 0.0
O45 O 0.44947 0.92889 0.19617 0.0
O46 O 0.38382 0.89294 0.09926 0.0
O47 O 0.38011 0.9257 0.10551 0.0
C48 C 0.37008 0.90332 0.08196 0.0
C49 C 0.44673 0.98651 0.08473 0.0
O50 O 0.38929 0.97333 0.15615 0.0
O51 O 0.40753 0.95317 0.21697 0.0
O52 O 0.37959 0.95718 0.95815 0.0
O53 O 0.38785 0.9913 1.00952 0.0
O54 O 0.43798 0.99409 1.03768 0.0
O55 O 0.42851 0.96888 0.11556 0.0
O56 O 0.43538 0.93032 0.04989 0.0
O57 O 0.41065 0.9419 0.98638 0.0
C58 C 0.39693 0.96817 0.21256 0.0
C59 C 0.42763 0.93373 0.99201 0.0
Dy60 Dy 0.48873 0.06799 0.50538 0.0
C61 C 0.40394 0.02341 0.70281 0.0
C62 C 0.5193 0.06967 0.3998 0.0
Dy63 Dy 0.43945 0.03966 0.60494 0.0
O64 O 0.50526 0.08079 0.40291 0.0
O65 O 0.51798 0.05948 0.45635 0.0
O66 O 0.49274 0.10645 0.53879 0.0
O67 O 0.45696 0.07253 0.54048 0.0
C68 C 0.46843 0.09587 0.55623 0.0
C69 C 0.46812 0.01877 0.59125 0.0
O70 O 0.41844 0.02377 0.50916 0.0
O71 O 0.45472 0.04306 0.4403 0.0
O72 O 0.40226 0.0098 0.6518 0.0
O73 O 0.42382 0.0466 0.69699 0.0
O74 O 0.45304 0.01375 0.6404 0.0
O75 O 0.46375 0.03069 0.54857 0.0
O76 O 0.50868 0.07121 0.60217 0.0
O77 O 0.47427 0.06436 0.66868 0.0
C78 C 0.42947 0.02758 0.45053 0.0
C79 C 0.49862 0.06966 0.66111 0.0
Dy80 Dy 0.92744 0.4187 0.50248 0.0
C81 C 0.97866 0.39212 0.70615 0.0
C82 C 0.91802 0.4415 0.39606 0.0
Dy83 Dy 0.96103 0.40482 0.59773 0.0
O84 O 0.91516 0.41842 0.39794 0.0
O85 O 0.92453 0.4514 0.45383 0.0
O86 O 0.8907 0.38406 0.53842 0.0
O87 O 0.92555 0.38357 0.54154 0.0
C88 C 0.9022 0.37186 0.55995 0.0
C89 C 0.98454 0.45283 0.55027 0.0
O90 O 0.97089 0.39304 0.50299 0.0
O91 O 0.95695 0.41594 0.43956 0.0
O92 O 0.99071 0.39887 0.65099 0.0
O93 O 0.95649 0.39087 0.70045 0.0
O94 O -0.00298 0.44201 0.57274 0.0
O95 O 0.96121 0.43815 0.56209 0.0
O96 O 0.92313 0.43657 0.59629 0.0
O97 O 0.93943 0.41738 0.66545 0.0
C98 C 0.96985 0.40337 0.44678 0.0
C99 C 0.92802 0.43135 0.65591 0.0
Dy100 Dy 0.57307 0.5078 0.49786 0.0
C101 C 0.60911 0.59011 0.69659 0.0
C102 C 0.55062 0.47831 0.38673 0.0
Dy103 Dy 0.59148 0.55741 0.59096 0.0
O104 O 0.57164 0.50068 0.3897 0.0
O105 O 0.54262 0.47108 0.44597 0.0
O106 O 0.60687 0.50371 0.5307 0.0
O107 O 0.60949 0.54002 0.53343 0.0
C108 C 0.62032 0.52757 0.55112 0.0
C109 C 0.54297 0.53511 0.5473 0.0
O110 O 0.60356 0.57769 0.49419 0.0
O111 O 0.57706 0.54047 0.43463 0.0
O112 O 0.61004 0.56903 0.68962 0.0
O113 O 0.59972 0.59403 0.64399 0.0
O114 O 0.55538 0.5587 0.56879 0.0
O115 O 0.55648 0.52509 0.5581 0.0
O116 O 0.55403 0.48714 0.59309 0.0
O117 O 0.57639 0.52321 0.65998 0.0
C118 C 0.59188 0.566 0.43922 0.0
C119 C 0.56064 0.4978 0.65226 0.0
Dy120 Dy 0.96139 0.56185 0.09912 0.0
C121 C 0.92084 0.48174 0.89545 0.0
C122 C 0.97933 0.59497 0.20409 0.0
Dy123 Dy 0.9302 0.51296 1.00371 0.0
O124 O 0.99241 0.59697 0.1521 0.0
O125 O 0.95596 0.57575 0.1967 0.0
O126 O -0.00151 0.56254 0.07631 0.0
O127 O 0.96347 0.52925 0.06539 0.0
C128 C 0.98698 0.53912 0.05408 0.0
C129 C 0.90245 0.53182 0.05832 0.0
O130 O 0.92556 0.49142 0.09889 0.0
O131 O 0.94066 0.52742 0.16703 0.0
O132 O 0.91693 0.50121 0.9001 0.0
O133 O 0.92857 0.47843 0.9517 0.0
O134 O 0.89235 0.50822 1.03646 0.0
O135 O 0.92595 0.54493 0.04135 0.0
O136 O 0.97037 0.58273 1.00318 0.0
O137 O 0.95927 0.54585 0.94148 0.0
C138 C 0.92959 0.50189 0.15826 0.0
C139 C 0.97047 0.57136 0.94767 0.0
Dy140 Dy 0.42763 0.40231 0.09635 0.0
C141 C 0.50714 0.4408 0.89149 0.0
C142 C 0.39816 0.3887 0.20665 0.0
Dy143 Dy 0.47486 0.41853 0.99875 0.0
O144 O 0.39253 0.396 0.153 0.0
O145 O 0.41887 0.38722 0.19833 0.0
O146 O 0.42496 0.43714 0.07244 0.0
O147 O 0.45945 0.43707 0.06036 0.0
C148 C 0.44808 0.44941 0.04867 0.0
C149 C 0.45402 0.37118 0.05414 0.0
O150 O 0.49774 0.43659 0.09077 0.0
O151 O 0.46283 0.41651 0.16208 0.0
O152 O 0.48743 0.4174 0.89484 0.0
O153 O 0.50983 0.45148 0.94809 0.0
O154 O 0.47796 0.3843 1.03428 0.0
O155 O 0.44223 0.38262 1.03634 0.0
O156 O 0.40589 0.39076 1.00125 0.0
O157 O 0.44246 0.41569 0.93766 0.0
C158 C 0.48816 0.43099 0.15087 0.0
C159 C 0.41703 0.4021 0.9453 0.0
Dy160 Dy 0.59476 0.02159 0.09753 0.0
C161 C 0.55033 0.0623 0.89996 0.0
C162 C 0.6143 0.00525 0.19574 0.0
Dy163 Dy 0.57205 0.05059 1.00526 0.0
O164 O 0.60276 0.99201 0.14402 0.0
O165 O 0.61762 0.02837 0.18934 0.0
O166 O 0.55527 0.99081 0.12536 0.0
O167 O 0.56162 0.01235 0.04111 0.0
C168 C 0.54471 0.9961 0.078 0.0
C169 C 0.61845 0.08029 0.06258 0.0
O170 O 0.55393 0.0511 0.10195 0.0
O171 O 0.58112 0.04275 0.16582 0.0
O172 O 0.57454 0.06893 0.9069 0.0
O173 O 0.53811 0.05009 0.95252 0.0
O174 O 0.60343 0.08905 0.04443 0.0
O175 O 0.60924 0.05742 0.04271 0.0
O176 O 0.60095 0.00901 0.99702 0.0
O177 O 0.58009 0.02632 0.93555 0.0
C178 C 0.56301 0.04954 0.15987 0.0
C179 C 0.59177 0.0124 0.94067 0.0
Dy180 Dy 0.5489 0.94273 0.54562 0.0
C181 C 0.46905 0.91317 0.74926 0.0
C182 C 0.58657 0.96014 0.45137 0.0
Dy183 Dy 0.49925 0.91468 0.64344 0.0
O184 O 0.58552 0.974 0.49873 0.0
O185 O 0.56835 0.93621 0.45981 0.0
O186 O 0.53432 0.9674 0.50585 0.0
O187 O 0.52363 0.95197 0.59902 0.0
C188 C 0.51886 0.96283 0.55396 0.0
C189 C 0.51693 0.88548 0.59081 0.0
O190 O 0.47978 0.90811 0.5442 0.0
O191 O 0.5154 0.91808 0.47855 0.0
O192 O 0.48161 0.90057 0.74432 0.0
O193 O 0.47154 0.92478 0.69424 0.0
O194 O 0.49293 0.87585 0.60964 0.0
O195 O 0.52999 0.90883 0.60788 0.0
O196 O 0.5694 0.95849 0.64223 0.0
O197 O 0.53318 0.93757 0.71036 0.0
C198 C 0.49045 0.91059 0.48562 0.0
C199 C 0.55831 0.95373 0.70091 0.0
Dy200 Dy 0.04008 0.60318 0.56376 0.0
C201 C 0.07708 0.55704 0.75664 0.0
C202 C 0.02347 0.61994 0.46029 0.0
Dy203 Dy 0.07001 0.58282 0.65399 0.0
O204 O 0.00923 0.60557 0.50752 0.0
O205 O 0.04747 0.62698 0.47256 0.0
O206 O 0.00216 0.56829 0.58973 0.0
O207 O 0.0362 0.56752 0.59443 0.0
C208 C 0.01273 0.555 0.60789 0.0
C209 C 0.09849 0.62868 0.59628 0.0
O210 O 0.07289 0.56556 0.55819 0.0
O211 O 0.05782 0.58704 0.49251 0.0
O212 O 0.0877 0.58207 0.75098 0.0
O213 O 0.06404 0.54647 0.70408 0.0
O214 O 0.10778 0.61397 0.6139 0.0
O215 O 0.0759 0.61987 0.61872 0.0
O216 O 0.03175 0.61473 0.66113 0.0
O217 O 0.04406 0.58956 0.72101 0.0
C218 C 0.06819 0.57188 0.49965 0.0
C219 C 0.0325 0.60352 0.71626 0.0
Dy220 Dy 0.39174 0.44338 0.56298 0.0
C221 C 0.43569 0.52619 0.75548 0.0
C222 C 0.37493 0.40964 0.46023 0.0
Dy223 Dy 0.41113 0.49428 0.64975 0.0
O224 O 0.38477 0.40672 0.51319 0.0
O225 O 0.37307 0.43023 0.4654 0.0
O226 O 0.42632 0.44058 0.59241 0.0
O227 O 0.42728 0.47551 0.59375 0.0
C228 C 0.43965 0.46469 0.60929 0.0
C229 C 0.36466 0.47554 0.59281 0.0
O230 O 0.42929 0.51378 0.55305 0.0
O231 O 0.40808 0.47638 0.49011 0.0
O232 O 0.41142 0.50842 0.75203 0.0
O233 O 0.44608 0.52784 0.69891 0.0
O234 O 0.37899 0.4997 0.61048 0.0
O235 O 0.37427 0.46251 0.61498 0.0
O236 O 0.3781 0.42413 0.66001 0.0
O237 O 0.40465 0.46182 0.71776 0.0
C238 C 0.42325 0.50198 0.49518 0.0
C239 C 0.38958 0.43626 0.71463 0.0
Dy240 Dy 0.72911 0.81479 0.48129 0.0
C241 C 0.67612 0.74178 0.26781 0.0
C242 C 0.74053 0.84639 0.59093 0.0
Dy243 Dy 0.69543 0.76919 0.38163 0.0
O244 O 0.73585 0.85147 0.53304 0.0
O245 O 0.74027 0.82451 0.58784 0.0
O246 O 0.7652 0.81537 0.44627 0.0
O247 O 0.72946 0.78112 0.44093 0.0
C248 C 0.75276 0.79176 0.42382 0.0
C249 C 0.67252 0.7941 0.43034 0.0
O250 O 0.68593 0.74578 0.473 0.0
O251 O 0.69814 0.78169 0.53949 0.0
O252 O 0.69946 0.76079 0.27686 0.0
O253 O 0.66378 0.73652 0.3226 0.0
O254 O 0.6604 0.76979 0.41523 0.0
O255 O 0.696 0.80301 0.41855 0.0
O256 O 0.73632 0.83881 0.38954 0.0
O257 O 0.7196 0.80408 0.31776 0.0
C258 C 0.68604 0.75624 0.53007 0.0
C259 C 0.73202 0.82944 0.32919 0.0
Dy260 Dy 0.16637 0.9105 0.4811 0.0
C261 C 0.24581 0.94066 0.27903 0.0
C262 C 0.13472 0.88832 0.58916 0.0
Dy263 Dy 0.21421 0.92664 0.38629 0.0
O264 O 0.15516 0.91122 0.58631 0.0
O265 O 0.13085 0.87814 0.53156 0.0
O266 O 0.16292 0.94437 0.44545 0.0
O267 O 0.19898 0.94648 0.44398 0.0
C268 C 0.18683 0.95752 0.42531 0.0
C269 C 0.19081 0.87806 0.42993 0.0
O270 O 0.23573 0.93837 0.48109 0.0
O271 O 0.19887 0.91334 0.54324 0.0
O272 O 0.24814 0.92963 0.33054 0.0
O273 O 0.22718 0.94545 0.28815 0.0
O274 O 0.21501 0.89092 0.41389 0.0
O275 O 0.18121 0.89197 0.41892 0.0
O276 O 0.14417 0.8923 0.38736 0.0
O277 O 0.17972 0.91189 0.31784 0.0
C278 C 0.22442 0.92697 0.53669 0.0
C279 C 0.15423 0.89749 0.32746 0.0
Dy280 Dy 0.08054 0.26656 0.47315 0.0
C281 C 0.05524 0.31926 0.27137 0.0
C282 C 0.10458 0.2579 0.57759 0.0
Dy283 Dy 0.06694 0.30069 0.37958 0.0
O284 O 0.07998 0.25004 0.5733 0.0
O285 O 0.11535 0.26885 0.52298 0.0
O286 O 0.04603 0.23013 0.43647 0.0
O287 O 0.0456 0.26515 0.43537 0.0
C288 C 0.03388 0.24189 0.41627 0.0
C289 C 0.11477 0.32367 0.42668 0.0
O290 O 0.05451 0.30987 0.47435 0.0
O291 O 0.07636 0.2948 0.53796 0.0
O292 O 0.06181 0.33102 0.32685 0.0
O293 O 0.05362 0.29688 0.27659 0.0
O294 O 0.1037 0.33637 0.4076 0.0
O295 O 0.10015 0.30043 0.4136 0.0
O296 O 0.09733 0.26115 0.37864 0.0
O297 O 0.07958 0.27932 0.3108 0.0
C298 C 0.06414 0.30806 0.53091 0.0
C299 C 0.09268 0.26692 0.31935 0.0
Dy300 Dy 0.15301 0.41052 0.81775 0.0
C301 C 0.0724 0.36376 1.01858 0.0
C302 C 0.18446 0.41926 0.71006 0.0
Dy303 Dy 0.10416 0.37927 0.91169 0.0
O304 O 0.16584 0.42447 0.71473 0.0
O305 O 0.18694 0.41082 0.76614 0.0
O306 O 0.15783 0.44812 0.85565 0.0
O307 O 0.12113 0.41485 0.85558 0.0
C308 C 0.13395 0.43789 0.87563 0.0
C309 C 0.12524 0.35268 0.86422 0.0
O310 O 0.08332 0.37077 0.81599 0.0
O311 O 0.12026 0.38239 0.75415 0.0
O312 O 0.06812 0.3505 0.96565 0.0
O313 O 0.09332 0.38587 1.01137 0.0
O314 O 0.10174 0.34171 0.88596 0.0
O315 O 0.13596 0.37624 0.87693 0.0
O316 O 0.17453 0.41378 0.91146 0.0
O317 O 0.13868 0.39798 0.98014 0.0
C318 C 0.09477 0.37104 0.7603 0.0
C319 C 0.16415 0.40881 0.97093 0.0
Dy320 Dy 0.57826 0.7402 0.80066 0.0
C321 C 0.63082 0.71716 1.01039 0.0
C322 C 0.56862 0.76111 0.68969 0.0
Dy323 Dy 0.61106 0.72668 0.89932 0.0
O324 O 0.56939 0.73976 0.69278 0.0
O325 O 0.57157 0.77009 0.74838 0.0
O326 O 0.54141 0.70558 0.83736 0.0
O327 O 0.5763 0.70556 0.84138 0.0
C328 C 0.55309 0.69374 0.85989 0.0
C329 C 0.63555 0.77423 0.84864 0.0
O330 O 0.61971 0.71233 0.80734 0.0
O331 O 0.60819 0.73668 0.74178 0.0
O332 O 0.6438 0.72827 0.95828 0.0
O333 O 0.60677 0.70993 1.00008 0.0
O334 O 0.64681 0.76134 0.86435 0.0
O335 O 0.61202 0.76075 0.86221 0.0
O336 O 0.57302 0.75841 0.89229 0.0
O337 O 0.58885 0.73959 0.96397 0.0
C338 C 0.6196 0.72273 0.75046 0.0
C339 C 0.57719 0.75321 0.95253 0.0
Dy340 Dy 0.24792 0.84035 0.81634 0.0
C341 C 0.2651 0.91409 1.0247 0.0
C342 C 0.22179 0.81056 0.70817 0.0
Dy343 Dy 0.25798 0.88607 0.91311 0.0
O344 O 0.24262 0.81212 0.73342 0.0
O345 O 0.21554 0.82458 0.74324 0.0
O346 O 0.285 0.84247 0.84756 0.0
O347 O 0.28143 0.87565 0.8539 0.0
C348 C 0.29518 0.86602 0.8704 0.0
C349 C 0.21043 0.85772 0.86693 0.0
O350 O 0.26825 0.90902 0.82013 0.0
O351 O 0.25475 0.87358 0.75113 0.0
O352 O 0.2592 0.91953 0.96875 0.0
O353 O 0.26876 0.8946 1.01814 0.0
O354 O 0.22044 0.88182 0.88286 0.0
O355 O 0.22611 0.85053 0.88054 0.0
O356 O 0.23228 0.8169 0.91051 0.0
O357 O 0.24965 0.85248 0.97972 0.0
C358 C 0.26223 0.89831 0.76146 0.0
C359 C 0.23748 0.82697 0.97042 0.0
Dy360 Dy 0.61583 0.87764 0.39059 0.0
C361 C 0.56583 0.80165 0.18983 0.0
C362 C 0.64524 0.8974 0.49892 0.0
Dy363 Dy 0.57813 0.83337 0.29803 0.0
O364 O 0.63869 0.91077 0.46145 0.0
O365 O 0.6363 0.87448 0.47541 0.0
O366 O 0.64786 0.87972 0.33143 0.0
O367 O 0.61435 0.84473 0.34458 0.0
C368 C 0.63652 0.85518 0.32007 0.0
C369 C 0.55519 0.85334 0.37123 0.0
O370 O 0.57485 0.81025 0.3897 0.0
O371 O 0.58895 0.84551 0.45788 0.0
O372 O 0.56317 0.82191 0.1951 0.0
O373 O 0.57343 0.79782 0.24547 0.0
O374 O 0.54263 0.83044 0.34461 0.0
O375 O 0.57797 0.86549 0.34853 0.0
O376 O 0.62474 0.90277 0.30367 0.0
O377 O 0.605 0.86744 0.23385 0.0
C378 C 0.57864 0.8202 0.4494 0.0
C379 C 0.62026 0.8927 0.24457 0.0
Dy380 Dy 0.10398 0.73106 0.40621 0.0
C381 C 0.18668 0.76796 0.20909 0.0
C382 C 0.07116 0.72212 0.50857 0.0
Dy383 Dy 0.15355 0.74599 0.31532 0.0
O384 O 0.08914 0.74443 0.48826 0.0
O385 O 0.07042 0.70393 0.47203 0.0
O386 O 0.10067 0.76304 0.36094 0.0
O387 O 0.13638 0.76516 0.36707 0.0
C388 C 0.12507 0.77659 0.34643 0.0
C389 C 0.13417 0.70089 0.37991 0.0
O390 O 0.17425 0.76537 0.4097 0.0
O391 O 0.13773 0.74458 0.4759 0.0
O392 O 0.16629 0.74497 0.21156 0.0
O393 O 0.18969 0.7783 0.2663 0.0
O394 O 0.15765 0.71311 0.35654 0.0
O395 O 0.12181 0.71135 0.35874 0.0
O396 O 0.08321 0.71871 0.31092 0.0
O397 O 0.12078 0.7391 0.2479 0.0
C398 C 0.16316 0.75994 0.46837 0.0
C399 C 0.09515 0.72705 0.25415 0.0
Dy400 Dy 0.26432 0.37987 0.41157 0.0
C401 C 0.22335 0.41896 0.20995 0.0
C402 C 0.28046 0.36451 0.51868 0.0
Dy403 Dy 0.24623 0.41052 0.31753 0.0
O404 O 0.27139 0.35117 0.46594 0.0
O405 O 0.28195 0.38672 0.51102 0.0
O406 O 0.22945 0.34203 0.38686 0.0
O407 O 0.22917 0.37629 0.37733 0.0
C408 C 0.21667 0.35263 0.3651 0.0
C409 C 0.29277 0.43842 0.37497 0.0
O410 O 0.22785 0.41374 0.41124 0.0
O411 O 0.24824 0.39846 0.47978 0.0
O412 O 0.2125 0.41066 0.26632 0.0
O413 O 0.24721 0.42419 0.21426 0.0
O414 O 0.27895 0.44838 0.35496 0.0
O415 O 0.28264 0.41535 0.35507 0.0
O416 O 0.2762 0.37093 0.31535 0.0
O417 O 0.2506 0.3822 0.25417 0.0
C418 C 0.23342 0.40905 0.47062 0.0
C419 C 0.26472 0.37088 0.26005 0.0
Dy420 Dy 0.22263 0.30047 0.87984 0.0
C421 C 0.14152 0.2573 0.0784 0.0
C422 C 0.25345 0.3193 0.77177 0.0
Dy423 Dy 0.17374 0.26671 0.97163 0.0
O424 O 0.25864 0.33074 0.8277 0.0
O425 O 0.23242 0.29709 0.77654 0.0
O426 O 0.22221 0.33652 0.90756 0.0
O427 O 0.18927 0.30092 0.91305 0.0
C428 C 0.19832 0.32419 0.9263 0.0
C429 C 0.19468 0.24107 0.91373 0.0
O430 O 0.15229 0.26239 0.87637 0.0
O431 O 0.18899 0.27943 0.81091 0.0
O432 O 0.15885 0.25032 0.07229 0.0
O433 O 0.1407 0.26787 1.02405 0.0
O434 O 0.17072 0.22994 0.9339 0.0
O435 O 0.20685 0.26425 0.93376 0.0
O436 O 0.24348 0.30886 0.97511 0.0
O437 O 0.2061 0.2948 1.03692 0.0
C438 C 0.16343 0.26795 0.81765 0.0
C439 C 0.23168 0.30745 1.03099 0.0
Dy440 Dy 0.70038 0.92014 0.88474 0.0
C441 C 0.74488 0.88986 0.09169 0.0
C442 C 0.67692 0.91358 0.76787 0.0
Dy443 Dy 0.73474 0.91076 0.98272 0.0
O444 O 0.68078 0.89695 0.79804 0.0
O445 O 0.6846 0.93409 0.80388 0.0
O446 O 0.66623 0.88876 0.93462 0.0
O447 O 0.70008 0.88732 0.92785 0.0
C448 C 0.67705 0.87517 0.94703 0.0
C449 C 0.75908 0.95607 0.91835 0.0
O450 O 0.73907 0.89183 0.89037 0.0
O451 O 0.72985 0.91693 0.82349 0.0
O452 O 0.74866 0.91323 0.08658 0.0
O453 O 0.73715 0.87867 1.03571 0.0
O454 O 0.77115 0.94473 0.9418 0.0
O455 O 0.73594 0.94426 0.93769 0.0
O456 O 0.68858 0.93413 0.97135 0.0
O457 O 0.70596 0.91662 0.04274 0.0
C458 C 0.73748 0.89976 0.83097 0.0
C459 C 0.69129 0.92714 1.03056 0.0
Dy460 Dy 0.05958 0.7677 0.88044 0.0
C461 C 0.09528 0.84588 0.08902 0.0
C462 C 0.04926 0.73995 0.76695 0.0
Dy463 Dy 0.07359 0.81471 0.97952 0.0
O464 O 0.04478 0.75874 0.77787 0.0
O465 O 0.05784 0.73516 0.81973 0.0
O466 O 0.09485 0.76709 0.90947 0.0
O467 O 0.0931 0.80075 0.91744 0.0
C468 C 0.10643 0.79064 0.93077 0.0
C469 C 0.02637 0.79156 0.9244 0.0
O470 O 0.09048 0.83822 0.88683 0.0
O471 O 0.07258 0.80295 0.81629 0.0
O472 O 0.07189 0.82624 0.08419 0.0
O473 O 0.10616 0.84934 1.03246 0.0
O474 O 0.03808 0.8155 0.94489 0.0
O475 O 0.03904 0.781 0.94154 0.0
O476 O 0.04791 0.7452 0.97392 0.0
O477 O 0.07123 0.78182 0.0389 0.0
C478 C 0.08547 0.82838 0.82686 0.0
C479 C 0.0587 0.75632 1.03022 0.0
Dy480 Dy 0.39442 0.15129 0.80609 0.0
C481 C 0.34445 0.07228 0.6038 0.0
C482 C 0.40231 0.18319 0.91219 0.0
Dy483 Dy 0.36168 0.10214 0.71372 0.0
O484 O 0.41038 0.16667 0.90652 0.0
O485 O 0.39151 0.18342 0.85781 0.0
O486 O 0.43175 0.15585 0.76739 0.0
O487 O 0.39811 0.11907 0.76699 0.0
C488 C 0.42123 0.13196 0.74697 0.0
C489 C 0.3365 0.12423 0.764 0.0
O490 O 0.35406 0.08121 0.80942 0.0
O491 O 0.36786 0.11841 0.87206 0.0
O492 O 0.3331 0.06565 0.65992 0.0
O493 O 0.36566 0.09429 0.60919 0.0
O494 O 0.32486 0.10043 0.74425 0.0
O495 O 0.35977 0.1342 0.74951 0.0
O496 O 0.39733 0.17273 0.71215 0.0
O497 O 0.38043 0.13649 0.64487 0.0
C498 C 0.35572 0.09284 0.86586 0.0
C499 C 0.39152 0.16202 0.65313 0.0
Dy500 Dy 0.83522 0.24145 0.80744 0.0
C501 C 0.91723 0.27792 0.61132 0.0
C502 C 0.80347 0.21602 0.91359 0.0
Dy503 Dy 0.8857 0.25999 0.71744 0.0
O504 O 0.8197 0.24078 0.90883 0.0
O505 O 0.80326 0.20558 0.85807 0.0
O506 O 0.83217 0.27547 0.76883 0.0
O507 O 0.86815 0.27768 0.77398 0.0
C508 C 0.85671 0.28904 0.75336 0.0
C509 C 0.86455 0.21246 0.76483 0.0
O510 O 0.90541 0.27328 0.81388 0.0
O511 O 0.86779 0.24795 0.87389 0.0
O512 O 0.9217 0.26821 0.66258 0.0
O513 O 0.89638 0.27915 0.62008 0.0
O514 O 0.88825 0.22505 0.7441 0.0
O515 O 0.85387 0.22517 0.75091 0.0
O516 O 0.81496 0.22334 0.71216 0.0
O517 O 0.85189 0.24289 0.64688 0.0
C518 C 0.89332 0.26255 0.86924 0.0
C519 C 0.8263 0.22822 0.65384 0.0
Dy520 Dy 0.74604 0.59743 0.80555 0.0
C521 C 0.70243 0.63646 0.61028 0.0
C522 C 0.77235 0.59126 0.90936 0.0
Dy523 Dy 0.72262 0.62442 0.71488 0.0
O524 O 0.74737 0.58092 0.90417 0.0
O525 O 0.78271 0.60378 0.85588 0.0
O526 O 0.71451 0.55854 0.76885 0.0
O527 O 0.70803 0.58981 0.7734 0.0
C528 C 0.69885 0.56694 0.7534 0.0
C529 C 0.76912 0.6555 0.76044 0.0
O530 O 0.70991 0.63094 0.81286 0.0
O531 O 0.73845 0.6228 0.87144 0.0
O532 O 0.712 0.65067 0.66153 0.0
O533 O 0.70234 0.61493 0.61877 0.0
O534 O 0.75472 0.66416 0.73806 0.0
O535 O 0.75946 0.63198 0.7466 0.0
O536 O 0.7634 0.59468 0.71021 0.0
O537 O 0.74095 0.60858 0.64461 0.0
C538 C 0.72233 0.63187 0.86725 0.0
C539 C 0.75681 0.59906 0.65181 0.0
Dy540 Dy 0.81383 0.73003 0.16072 0.0
C541 C 0.73144 0.6788 0.35679 0.0
C542 C 0.84597 0.74002 0.05448 0.0
Dy543 Dy 0.76459 0.69595 0.25322 0.0
O544 O 0.82707 0.7448 0.05877 0.0
O545 O 0.84836 0.73133 0.11023 0.0
O546 O 0.81586 0.76642 0.19806 0.0
O547 O 0.7803 0.73148 0.19679 0.0
C548 C 0.79166 0.75459 0.21641 0.0
C549 C 0.78933 0.67263 0.20647 0.0
O550 O 0.74413 0.68835 0.15757 0.0
O551 O 0.78151 0.70186 0.09583 0.0
O552 O 0.72898 0.66544 0.30496 0.0
O553 O 0.75138 0.70182 0.35053 0.0
O554 O 0.76589 0.65987 0.22879 0.0
O555 O 0.79778 0.69586 0.21871 0.0
O556 O 0.8348 0.7337 0.25578 0.0
O557 O 0.79837 0.71624 0.32305 0.0
C558 C 0.75592 0.68992 0.1016 0.0
C559 C 0.82396 0.72797 0.31479 0.0
Dy560 Dy 0.2562 0.08089 0.16 0.0
C561 C 0.30103 0.03974 0.35124 0.0
C562 C 0.24791 0.105 0.05455 0.0
Dy563 Dy 0.28505 0.06011 0.25532 0.0
O564 O 0.24121 0.08065 0.05826 0.0
O565 O 0.25768 0.11564 0.11025 0.0
O566 O 0.21774 0.04903 0.19854 0.0
O567 O 0.24978 0.04393 0.19853 0.0
C568 C 0.22679 0.03436 0.21793 0.0
C569 C 0.30874 0.11072 0.24066 0.0
O570 O 0.29898 0.05366 0.15822 0.0
O571 O 0.28101 0.07265 0.09274 0.0
O572 O 0.3144 0.05183 0.30014 0.0
O573 O 0.278 0.03658 0.34561 0.0
O574 O 0.31408 0.0997 0.28688 0.0
O575 O 0.29428 0.09398 0.20037 0.0
O576 O 0.25434 0.0988 0.25516 0.0
O577 O 0.26232 0.07218 0.32215 0.0
C578 C 0.29553 0.06178 0.10077 0.0
C579 C 0.25556 0.09019 0.3139 0.0
Dy580 Dy 0.90646 0.17659 0.16176 0.0
C581 C 0.94023 0.26044 0.35671 0.0
C582 C 0.88519 0.14456 0.0543 0.0
Dy583 Dy 0.92214 0.22531 0.25849 0.0
O584 O 0.90894 0.16347 0.05981 0.0
O585 O 0.8736 0.14215 0.1095 0.0
O586 O 0.9411 0.17467 0.19966 0.0
O587 O 0.94138 0.20972 0.20013 0.0
C588 C 0.95352 0.19879 0.21847 0.0
C589 C 0.87216 0.19442 0.24131 0.0
O590 O 0.9294 0.24621 0.16293 0.0
O591 O 0.91296 0.20945 0.09623 0.0
O592 O 0.92858 0.26217 0.30541 0.0
O593 O 0.94347 0.24059 0.35141 0.0
O594 O 0.88142 0.21122 0.28742 0.0
O595 O 0.88982 0.19855 0.20206 0.0
O596 O 0.88977 0.15572 0.25628 0.0
O597 O 0.91413 0.19127 0.32312 0.0
C598 C 0.92265 0.23472 0.10512 0.0
C599 C 0.89784 0.16601 0.31486 0.0
Dy600 Dy 0.2867 0.22193 0.7471 0.0
C601 C 0.24396 0.13945 0.55241 0.0
C602 C 0.30325 0.2541 0.85174 0.0
Dy603 Dy 0.25275 0.17189 0.6587 0.0
O604 O 0.31666 0.25751 0.79943 0.0
O605 O 0.2804 0.23401 0.84496 0.0
O606 O 0.32313 0.22271 0.71833 0.0
O607 O 0.28781 0.18886 0.71447 0.0
C608 C 0.31108 0.1988 0.69929 0.0
C609 C 0.22847 0.19509 0.71334 0.0
O610 O 0.24944 0.15139 0.75505 0.0
O611 O 0.26792 0.18865 0.81871 0.0
O612 O 0.23902 0.15831 0.55579 0.0
O613 O 0.2519 0.13713 0.60929 0.0
O614 O 0.21651 0.17052 0.6978 0.0
O615 O 0.25122 0.20573 0.692 0.0
O616 O 0.29324 0.24194 0.65151 0.0
O617 O 0.28031 0.20418 0.59192 0.0
C618 C 0.25595 0.16297 0.81314 0.0
C619 C 0.29176 0.22982 0.5963 0.0
Dy620 Dy 0.7693 0.06248 0.75109 0.0
C621 C 0.85123 0.10592 0.55401 0.0
C622 C 0.73622 0.04569 0.85498 0.0
Dy623 Dy 0.81928 0.08109 0.65928 0.0
O624 O 0.73343 0.0563 0.8032 0.0
O625 O 0.7564 0.04309 0.84833 0.0
O626 O 0.76757 0.09808 0.72584 0.0
O627 O 0.80143 0.09727 0.71828 0.0
C628 C 0.79134 0.11058 0.70594 0.0
C629 C 0.79924 0.03413 0.71411 0.0
O630 O 0.83977 0.09887 0.75461 0.0
O631 O 0.80327 0.07821 0.82133 0.0
O632 O 0.83532 0.08114 0.5594 0.0
O633 O 0.85089 0.11684 0.60828 0.0
O634 O 0.82356 0.04794 0.69721 0.0
O635 O 0.78701 0.04484 0.69394 0.0
O636 O 0.74908 0.04928 0.65506 0.0
O637 O 0.78628 0.07452 0.59367 0.0
C638 C 0.82881 0.09325 0.81347 0.0
C639 C 0.76075 0.05994 0.59925 0.0
Dy640 Dy 0.91778 0.69284 0.76305 0.0
C641 C 0.88062 0.73482 0.55545 0.0
C642 C 0.93539 0.67605 0.86279 0.0
Dy643 Dy 0.90192 0.72472 0.66341 0.0
O644 O 0.92514 0.66298 0.80999 0.0
O645 O 0.9375 0.69871 0.85841 0.0
O646 O 0.87704 0.66601 0.79152 0.0
O647 O 0.88545 0.68625 0.70486 0.0
C648 C 0.86779 0.67296 0.7444 0.0
C649 C 0.94856 0.75092 0.72131 0.0
O650 O 0.88504 0.72926 0.75719 0.0
O651 O 0.91008 0.71964 0.82527 0.0
O652 O 0.90442 0.73994 0.5612 0.0
O653 O 0.86895 0.72558 0.61051 0.0
O654 O 0.93593 0.76203 0.70046 0.0
O655 O 0.93686 0.7276 0.704 0.0
O656 O 0.92626 0.67943 0.66855 0.0
O657 O 0.90966 0.69877 0.5995 0.0
C658 C 0.89343 0.72798 0.81602 0.0
C659 C 0.91973 0.68367 0.61002 0.0
Dy660 Dy 0.88776 0.62318 0.22013 0.0
C661 C 0.80317 0.58625 0.41011 0.0
C662 C 0.92116 0.63589 0.11758 0.0
Dy663 Dy 0.83551 0.59253 0.30603 0.0
O664 O 0.90052 0.61365 0.12689 0.0
O665 O 0.92431 0.65077 0.16679 0.0
O666 O 0.89086 0.66138 0.2437 0.0
O667 O 0.85613 0.62707 0.24939 0.0
C668 C 0.86695 0.65055 0.26268 0.0
C669 C 0.85579 0.56509 0.25563 0.0
O670 O 0.81688 0.59087 0.20826 0.0
O671 O 0.85477 0.60705 0.1468 0.0
O672 O 0.81706 0.57518 0.40334 0.0
O673 O 0.80558 0.59922 0.35744 0.0
O674 O 0.83116 0.55495 0.2687 0.0
O675 O 0.86794 0.58793 0.27666 0.0
O676 O 0.90597 0.62905 0.31832 0.0
O677 O 0.86775 0.61762 0.37483 0.0
C678 C 0.82916 0.59696 0.15096 0.0
C679 C 0.89325 0.62782 0.37245 0.0
Dy680 Dy 0.35867 0.25933 0.21241 0.0
C681 C 0.39881 0.21928 0.41202 0.0
C682 C 0.34409 0.27554 0.10553 0.0
Dy683 Dy 0.39007 0.2422 0.30487 0.0
O684 O 0.3665 0.27753 0.11397 0.0
O685 O 0.33014 0.26604 0.15728 0.0
O686 O 0.32083 0.22531 0.23896 0.0
O687 O 0.35504 0.22412 0.24688 0.0
C688 C 0.33149 0.21273 0.26161 0.0
C689 C 0.41616 0.2898 0.2507 0.0
O690 O 0.39494 0.22505 0.21131 0.0
O691 O 0.3775 0.24366 0.14392 0.0
O692 O 0.40655 0.24377 0.4052 0.0
O693 O 0.38776 0.20768 0.3582 0.0
O694 O 0.42716 0.27643 0.26659 0.0
O695 O 0.39321 0.2782 0.27072 0.0
O696 O 0.35082 0.27237 0.30803 0.0
O697 O 0.36273 0.24736 0.36968 0.0
C698 C 0.38932 0.22996 0.15235 0.0
C699 C 0.35145 0.26151 0.36375 0.0
Dy700 Dy 0.72719 0.09392 0.21397 0.0
C701 C 0.77084 0.17565 0.41298 0.0
C702 C 0.70866 0.06144 0.1088 0.0
Dy703 Dy 0.74757 0.14338 0.30687 0.0
O704 O 0.7185 0.05747 0.16038 0.0
O705 O 0.70745 0.08232 0.11702 0.0
O706 O 0.76044 0.08841 0.23688 0.0
O707 O 0.76336 0.12461 0.24686 0.0
C708 C 0.77389 0.11153 0.26027 0.0
C709 C 0.6999 0.12391 0.25602 0.0
O710 O 0.76446 0.1648 0.21254 0.0
O711 O 0.74371 0.12867 0.14501 0.0
O712 O 0.74626 0.15941 0.40591 0.0
O713 O 0.78253 0.17522 0.36005 0.0
O714 O 0.71441 0.14821 0.27171 0.0
O715 O 0.71053 0.11143 0.27447 0.0
O716 O 0.71523 0.07385 0.31137 0.0
O717 O 0.74208 0.11085 0.37161 0.0
C718 C 0.7585 0.15426 0.15348 0.0
C719 C 0.72713 0.08542 0.36637 0.0
C720 C 0.10117 0.4326 0.95827 0.0
C721 C 0.12549 0.44829 0.92998 0.0
C722 C 0.09395 0.43976 1.01577 0.0
C723 C 0.10916 0.46437 0.0428 0.0
H724 H 0.08778 0.41416 0.93674 0.0
H725 H 0.07591 0.42605 0.03847 0.0
S726 S 0.17411 0.51416 0.98478 0.0
N727 N 0.1653 0.48979 0.93414 0.0
N728 N 0.14994 0.50494 1.03635 0.0
C729 C 0.13326 0.48089 1.01369 0.0
C730 C 0.14159 0.47269 0.95796 0.0
C731 C 0.56115 0.66931 0.94491 0.0
C732 C 0.54385 0.67544 0.91536 0.0
C733 C 0.55515 0.6557 1.0033 0.0
C734 C 0.5304 0.64455 1.03033 0.0
H735 H 0.57996 0.6758 0.92368 0.0
H736 H 0.56999 0.65352 1.02717 0.0
S737 S 0.47672 0.65284 0.96947 0.0
N738 N 0.50063 0.66957 0.91829 0.0
N739 N 0.48788 0.6403 1.02261 0.0
C740 C 0.5123 0.64958 1.00013 0.0
C741 C 0.51917 0.66541 0.94324 0.0
C742 C 0.34439 0.87088 0.99517 0.0
C743 C 0.35002 0.89327 1.03037 0.0
C744 C 0.32696 0.86242 0.94299 0.0
C745 C 0.31511 0.87647 0.92249 0.0
H746 H 0.35356 0.85983 1.00785 0.0
H747 H 0.32281 0.84475 0.91841 0.0
S748 S 0.32392 0.93672 0.99784 0.0
N749 N 0.34073 0.92812 0.04402 0.0
N750 N 0.31195 0.91503 0.9394 0.0
C751 C 0.32124 0.89929 0.95625 0.0
C752 C 0.33752 0.90686 1.01197 0.0
C753 C 0.47104 0.13029 0.63315 0.0
C754 C 0.4565 0.10651 0.60106 0.0
C755 C 0.45956 0.13845 0.68043 0.0
C756 C 0.43348 0.12265 0.69918 0.0
H757 H 0.49136 0.14253 0.62212 0.0
H758 H 0.47131 0.15712 0.70305 0.0
S759 S 0.38735 0.05864 0.62959 0.0
N760 N 0.414 0.06857 0.58719 0.0
N761 N 0.39426 0.08135 0.68412 0.0
C762 C 0.41913 0.09862 0.66843 0.0
C763 C 0.43013 0.09132 0.61712 0.0
C764 C 0.86465 0.33953 0.62769 0.0
C765 C 0.89064 0.35026 0.60797 0.0
C766 C 0.85372 0.32002 0.67532 0.0
C767 C 0.86861 0.31113 0.70679 0.0
H768 H 0.85255 0.3461 0.60582 0.0
H769 H 0.83349 0.31184 0.68736 0.0
S770 S 0.93769 0.33332 0.67477 0.0
N771 N 0.93028 0.349 0.62128 0.0
N772 N 0.91132 0.31621 0.71812 0.0
C773 C 0.89486 0.32253 0.68936 0.0
C774 C 0.90542 0.34096 0.63794 0.0
C775 C 0.64945 0.56093 0.63019 0.0
C776 C 0.641 0.53683 0.60092 0.0
C777 C 0.6663 0.56914 0.683 0.0
C778 C 0.67802 0.55514 0.70403 0.0
H779 H 0.6428 0.57357 0.61244 0.0
H780 H 0.67096 0.58725 0.70595 0.0
S781 S 0.6644 0.49153 0.64003 0.0
N782 N 0.64559 0.49868 0.59711 0.0
N783 N 0.6803 0.51595 0.69036 0.0
C784 C 0.67057 0.53133 0.6737 0.0
C785 C 0.65174 0.52198 0.62286 0.0
C786 C 0.89346 0.56966 0.19287 0.0
C787 C 0.86707 0.55479 0.2084 0.0
C788 C 0.90418 0.56296 0.14134 0.0
C789 C 0.88969 0.53971 0.10762 0.0
H790 H 0.90579 0.58745 0.2187 0.0
H791 H 0.92391 0.5762 0.12742 0.0
S792 S 0.82008 0.49246 0.13267 0.0
N793 N 0.82655 0.5155 0.18597 0.0
N794 N 0.84749 0.5012 0.09437 0.0
C795 C 0.86349 0.52394 0.12448 0.0
C796 C 0.85207 0.53162 0.17431 0.0
C797 C 0.45072 0.3208 0.17364 0.0
C798 C 0.42641 0.3115 0.20318 0.0
C799 C 0.45952 0.33994 0.12512 0.0
C800 C 0.44395 0.34982 0.10262 0.0
H801 H 0.46303 0.31324 0.18801 0.0
H802 H 0.47859 0.34694 0.10487 0.0
S803 S 0.3785 0.3314 0.16308 0.0
N804 N 0.38787 0.31526 0.20946 0.0
N805 N 0.40221 0.34722 0.11089 0.0
C806 C 0.41932 0.34001 0.13047 0.0
C807 C 0.4112 0.32204 0.18282 0.0
C808 C 0.65124 0.07909 0.13353 0.0
C809 C 0.6396 0.09283 0.11053 0.0
C810 C 0.66895 0.08855 0.18436 0.0
C811 C 0.6783 0.11356 0.20904 0.0
H812 H 0.64642 0.06066 0.11242 0.0
H813 H 0.67596 0.07633 0.20317 0.0
S814 S 0.65552 0.15862 0.16241 0.0
N815 N 0.63834 0.1328 0.11707 0.0
N816 N 0.6747 0.15227 0.20625 0.0
C817 C 0.66758 0.12812 0.18501 0.0
C818 C 0.64788 0.11754 0.13647 0.0
C819 C 0.51876 0.84845 0.44258 0.0
C820 C 0.54544 0.86125 0.42829 0.0
C821 C 0.50919 0.85526 0.49703 0.0
C822 C 0.52612 0.87454 0.54005 0.0
H823 H 0.50512 0.83348 0.41065 0.0
H824 H 0.48851 0.84595 0.50434 0.0
S825 S 0.59715 0.91193 0.52961 0.0
N826 N 0.58817 0.89393 0.46366 0.0
N827 N 0.57042 0.90418 0.56902 0.0
C828 C 0.55265 0.88616 0.52856 0.0
C829 C 0.56226 0.8803 0.47182 0.0
C830 C 0.10201 0.66639 0.53636 0.0
C831 C 0.10903 0.64738 0.54209 0.0
C832 C 0.11045 0.68349 0.48395 0.0
C833 C 0.12575 0.68218 0.43438 0.0
H834 H 0.09001 0.6682 0.57288 0.0
H835 H 0.10563 0.69841 0.4833 0.0
S836 S 0.1491 0.63541 0.42536 0.0
N837 N 0.13232 0.62797 0.49326 0.0
N838 N 0.14778 0.66018 0.39437 0.0
C839 C 0.13318 0.6634 0.43964 0.0
C840 C 0.12482 0.64596 0.49346 0.0
C841 C 0.33569 0.44174 0.51377 0.0
C842 C 0.34531 0.46663 0.5395 0.0
C843 C 0.32088 0.43398 0.45707 0.0
C844 C 0.31195 0.4493 0.42857 0.0
H845 H 0.34017 0.42827 0.5369 0.0
H846 H 0.31585 0.41543 0.43622 0.0
S847 S 0.32934 0.51553 0.48059 0.0
N848 N 0.34484 0.50695 0.53169 0.0
N849 N 0.31344 0.49068 0.43146 0.0
C850 C 0.32038 0.47393 0.45547 0.0
C851 C 0.3374 0.48274 0.51014 0.0
C852 C 0.79724 0.78809 0.2979 0.0
C853 C 0.78107 0.76451 0.26645 0.0
C854 C 0.78807 0.79665 0.34937 0.0
C855 C 0.76259 0.78163 0.3723 0.0
H856 H 0.8172 0.79997 0.28302 0.0
H857 H 0.80108 0.81513 0.37142 0.0
S858 S 0.71254 0.7183 0.30636 0.0
N859 N 0.73784 0.72719 0.25903 0.0
N860 N 0.72174 0.74136 0.3611 0.0
C861 C 0.74642 0.75778 0.34192 0.0
C862 C 0.75533 0.74978 0.28743 0.0
C863 C 0.22042 0.9859 0.34516 0.0
C864 C 0.19635 0.97784 0.37421 0.0
C865 C 0.22874 0.00228 0.29119 0.0
C866 C 0.21496 0.01399 0.26872 0.0
H867 H 0.23289 0.97917 0.36372 0.0
H868 H 0.24656 0.00631 0.26773 0.0
S869 S 0.15136 0.00112 0.33084 0.0
N870 N 0.15835 0.98263 0.37573 0.0
N871 N 0.17587 0.01654 0.2804 0.0
C872 C 0.19115 0.00689 0.29864 0.0
C873 C 0.18165 0.9885 0.35065 0.0
C874 C 0.98346 0.19487 0.29721 0.0
C875 C 0.97501 0.2102 0.26611 0.0
C876 C 0.00231 0.20518 0.34614 0.0
C877 C 0.01279 0.23095 0.36734 0.0
H878 H 0.97539 0.17475 0.28393 0.0
H879 H 0.00858 0.19279 0.36776 0.0
S880 S -0.00314 0.27895 0.30156 0.0
N881 N 0.98024 0.25305 0.25637 0.0
N882 N 0.01184 0.2709 0.35555 0.0
C883 C 0.00392 0.24617 0.33764 0.0
C884 C 0.98614 0.23624 0.28501 0.0
C885 C 0.19563 0.19277 0.79404 0.0
C886 C 0.21937 0.20734 0.76173 0.0
C887 C 0.18795 0.20377 0.84345 0.0
C888 C 0.2041 0.22949 0.86423 0.0
H889 H 0.18289 0.17271 0.78123 0.0
H890 H 0.16924 0.19191 0.86583 0.0
S891 S 0.26839 0.27566 0.79586 0.0
N892 N 0.25797 0.24955 0.75076 0.0
N893 N 0.2458 0.26845 0.85106 0.0
C894 C 0.22818 0.24392 0.83354 0.0
C895 C 0.23515 0.23336 0.78026 0.0
C896 C 0.80486 0.00587 0.79544 0.0
C897 C 0.78876 0.01299 0.76282 0.0
C898 C 0.79523 0.98751 0.84583 0.0
C899 C 0.76935 0.97622 0.86672 0.0
H900 H 0.82508 0.01468 0.78241 0.0
H901 H 0.8082 0.98235 0.86898 0.0
S902 S 0.71957 0.98859 0.79642 0.0
N903 N 0.74537 0.00582 0.75159 0.0
N904 N 0.72834 0.97464 0.85171 0.0
C905 C 0.75332 0.98358 0.8348 0.0
C906 C 0.76271 0.001 0.78136 0.0
C907 C -0.00464 0.79543 0.84973 0.0
C908 C 0.00577 0.78069 0.87452 0.0
C909 C 0.97717 0.78598 0.79928 0.0
C910 C 0.96941 0.76183 0.77043 0.0
H911 H 0.00123 0.81437 0.86951 0.0
H912 H 0.96908 0.79762 0.783 0.0
S913 S 0.9917 0.71623 0.81562 0.0
N914 N 0.00558 0.73996 0.86858 0.0
N915 N 0.97536 0.72453 0.76673 0.0
C916 C 0.9805 0.74746 0.79308 0.0
C917 C -0.00248 0.75621 0.84715 0.0
C918 C 0.98454 0.3864 0.88648 0.0
C919 C 0.01135 0.3977 0.89532 0.0
C920 C 0.97391 0.38293 0.82443 0.0
C921 C 0.98964 0.39039 0.76887 0.0
H922 H 0.97185 0.38198 0.92774 0.0
H923 H 0.95336 0.3757 0.82023 0.0
S924 S 0.06044 0.41651 0.76552 0.0
N925 N 0.05298 0.41321 0.84307 0.0
N926 N 0.03295 0.40632 0.72655 0.0
C927 C 0.01613 0.39941 0.7768 0.0
C928 C 0.027 0.40316 0.84007 0.0
C929 C 0.6145 0.60106 0.87812 0.0
C930 C 0.60424 0.61749 0.88764 0.0
C931 C 0.61793 0.59387 0.8157 0.0
C932 C 0.61134 0.60288 0.76016 0.0
H933 H 0.6182 0.59218 0.91916 0.0
H934 H 0.62432 0.5799 0.81117 0.0
S935 S 0.58768 0.64957 0.75822 0.0
N936 N 0.59052 0.64502 0.83568 0.0
N937 N 0.59707 0.63165 0.71888 0.0
C938 C 0.60325 0.62108 0.76887 0.0
C939 C 0.59968 0.62836 0.83242 0.0
C940 C 0.37181 0.9746 0.83618 0.0
C941 C 0.37861 0.99028 0.89174 0.0
C942 C 0.37768 0.98541 0.77406 0.0
C943 C 0.39064 0.01234 0.76513 0.0
H944 H 0.36367 0.95388 0.8407 0.0
H945 H 0.37395 0.97264 0.73329 0.0
S946 S 0.40713 0.0615 0.89359 0.0
N947 N 0.39487 0.0338 0.93307 0.0
N948 N 0.40591 0.05416 0.81628 0.0
C949 C 0.39486 0.02803 0.81974 0.0
C950 C 0.38881 0.01699 0.88314 0.0
C951 C 0.97509 0.59898 0.32335 0.0
C952 C 0.99077 0.60704 0.26775 0.0
C953 C 0.98584 0.60523 0.38558 0.0
C954 C 0.01277 0.61976 0.39511 0.0
H955 H 0.95438 0.58645 0.31901 0.0
H956 H 0.97292 0.59718 0.42656 0.0
S957 S 0.06216 0.6492 0.26573 0.0
N958 N 0.03454 0.63315 0.2264 0.0
N959 N 0.05467 0.64474 0.34327 0.0
C960 C 0.02855 0.62975 0.34 0.0
C961 C 0.01758 0.62342 0.27642 0.0
C962 C 0.37199 0.40004 0.27957 0.0
C963 C 0.38644 0.38763 0.2705 0.0
C964 C 0.36623 0.40505 0.34184 0.0
C965 C 0.37452 0.39763 0.3972 0.0
H966 H 0.36673 0.40764 0.23856 0.0
H967 H 0.35671 0.41633 0.34654 0.0
S968 S 0.40867 0.36024 0.39897 0.0
N969 N 0.4058 0.36489 0.32161 0.0
N970 N 0.39473 0.37402 0.43849 0.0
C971 C 0.38673 0.38296 0.38857 0.0
C972 C 0.39279 0.37806 0.32519 0.0
C973 C 0.62011 0.00908 0.31627 0.0
C974 C 0.61352 0.99356 0.26036 0.0
C975 C 0.61327 -0.00186 0.37852 0.0
C976 C 0.59954 0.97114 0.38783 0.0
H977 H 0.62915 0.0299 0.31184 0.0
H978 H 0.61733 0.01098 0.41926 0.0
S979 S 0.58084 0.92186 0.25852 0.0
N980 N 0.59496 0.94969 0.21942 0.0
N981 N 0.58221 0.92921 0.33583 0.0
C982 C 0.59475 0.95545 0.33284 0.0
C983 C 0.60171 0.9666 0.26935 0.0
C984 C 0.68 0.74136 0.14704 0.0
C985 C 0.66463 0.73134 0.20293 0.0
C986 C 0.66913 0.73531 0.08476 0.0
C987 C 0.64239 0.71904 0.07552 0.0
H988 H 0.7005 0.75492 0.15139 0.0
H989 H 0.68168 0.74453 0.0437 0.0
S990 S 0.59403 0.68501 0.20516 0.0
N991 N 0.62152 0.70221 0.24431 0.0
N992 N 0.60115 0.69102 0.12772 0.0
C993 C 0.62702 0.70764 0.13076 0.0
C994 C 0.63812 0.71373 0.19426 0.0
C995 C 0.27185 0.91737 0.14401 0.0
C996 C 0.2649 0.92575 0.08804 0.0
C997 C 0.26758 0.92412 0.2059 0.0
C998 C 0.25604 0.93942 0.2144 0.0
H999 H 0.27958 0.90446 0.14017 0.0
H1000 H 0.27192 0.91593 0.2473 0.0
S1001 S 0.23785 0.9696 0.08373 0.0
N1002 N 0.24868 0.9527 0.04516 0.0
N1003 N 0.24046 0.96523 0.16145 0.0
C1004 C 0.25076 0.94953 0.15888 0.0
C1005 C 0.25525 0.94274 0.0957 0.0
C1006 C 0.04571 0.31484 0.15343 0.0
C1007 C 0.05372 0.33054 0.20896 0.0
C1008 C 0.04941 0.32561 0.09145 0.0
C1009 C 0.06155 0.35252 0.08272 0.0
H1010 H 0.03786 0.29416 0.15757 0.0
H1011 H 0.04454 0.31288 0.05013 0.0
S1012 S 0.08179 0.4017 0.21261 0.0
N1013 N 0.07087 0.37403 0.2515 0.0
N1014 N 0.07828 0.39432 0.13503 0.0
C1015 C 0.06751 0.36822 0.13799 0.0
C1016 C 0.06348 0.35721 0.20118 0.0
C1017 C 0.65866 0.92529 0.59951 0.0
C1018 C 0.65629 0.90391 0.56482 0.0
C1019 C 0.66534 0.92862 0.6656 0.0
C1020 C 0.66956 0.91052 0.69879 0.0
H1021 H 0.6547 0.93909 0.57606 0.0
H1022 H 0.66685 0.94518 0.69094 0.0
S1023 S 0.66796 0.85248 0.62807 0.0
N1024 N 0.66065 0.86557 0.56781 0.0
N1025 N 0.6724 0.87136 0.69049 0.0
C1026 C 0.66798 0.88957 0.66378 0.0
C1027 C 0.66162 0.88643 0.59714 0.0
C1028 C 0.06851 0.71215 0.62612 0.0
C1029 C 0.05885 0.71904 0.57254 0.0
C1030 C 0.06365 0.71712 0.68966 0.0
C1031 C 0.0491 0.72932 0.7017 0.0
H1032 H 0.08155 0.70475 0.61882 0.0
H1033 H 0.07286 0.71304 0.7292 0.0
S1034 S 0.0159 0.74695 0.57796 0.0
N1035 N 0.03173 0.73582 0.53576 0.0
N1036 N 0.02219 0.74479 0.65457 0.0
C1037 C 0.03766 0.73432 0.64855 0.0
C1038 C 0.04272 0.72936 0.5841 0.0
C1039 C 0.25877 0.3154 0.65346 0.0
C1040 C 0.26618 0.33096 0.70924 0.0
C1041 C 0.26564 0.32634 0.59152 0.0
C1042 C 0.27997 0.35331 0.58298 0.0
H1043 H 0.24632 0.29464 0.65741 0.0
H1044 H 0.25802 0.31363 0.55011 0.0
S1045 S 0.30785 0.40234 0.7134 0.0
N1046 N 0.29161 0.37452 0.75206 0.0
N1047 N 0.3042 0.39511 0.63573 0.0
C1048 C 0.28936 0.36894 0.63843 0.0
C1049 C 0.28256 0.35776 0.7016 0.0
C1050 C 0.30754 0.04188 0.53307 0.0
C1051 C 0.3342 0.05864 0.54143 0.0
C1052 C 0.297 0.03343 0.47112 0.0
C1053 C 0.31277 0.0412 0.41547 0.0
H1054 H 0.29454 0.03677 0.57391 0.0
H1055 H 0.27617 0.02226 0.46647 0.0
S1056 S 0.38433 0.08073 0.41326 0.0
N1057 N 0.37646 0.07981 0.49003 0.0
N1058 N 0.35681 0.06335 0.37446 0.0
C1059 C 0.33968 0.0557 0.42421 0.0
C1060 C 0.35035 0.06465 0.48698 0.0
C1061 C 0.92572 0.28362 0.43059 0.0
C1062 C 0.94165 0.27298 0.41939 0.0
C1063 C 0.91982 0.28758 0.49369 0.0
C1064 C 0.92975 0.28113 0.54757 0.0
H1065 H 0.9159 0.28674 0.39081 0.0
H1066 H 0.90583 0.29384 0.50015 0.0
S1067 S 0.97743 0.25882 0.5434 0.0
N1068 N 0.97093 0.26053 0.46677 0.0
N1069 N 0.96002 0.26818 0.58525 0.0
C1070 C 0.94815 0.2735 0.53679 0.0
C1071 C 0.95406 0.26936 0.47257 0.0
C1072 C 0.69705 0.63067 0.49094 0.0
C1073 C 0.70224 0.64675 0.54523 0.0
C1074 C 0.70451 0.6411 0.42865 0.0
C1075 C 0.71761 0.66798 0.41855 0.0
H1076 H 0.68892 0.61002 0.49706 0.0
H1077 H 0.70176 0.62811 0.38906 0.0
S1078 S 0.73069 0.71801 0.54226 0.0
N1079 N 0.71722 0.69056 0.58301 0.0
N1080 N 0.73171 0.71013 0.46632 0.0
C1081 C 0.7205 0.68403 0.47134 0.0
C1082 C 0.71263 0.6734 0.53465 0.0
C1083 C 0.29727 0.25873 0.96873 0.0
C1084 C 0.31373 0.26667 0.91458 0.0
C1085 C 0.30729 0.26407 1.03148 0.0
C1086 C 0.33408 0.27739 0.04199 0.0
H1087 H 0.27657 0.24665 0.96281 0.0
H1088 H 0.29398 0.2558 0.07167 0.0
S1089 S 0.3851 0.30767 0.9168 0.0
N1090 N 0.35787 0.29258 0.87559 0.0
N1091 N 0.37671 0.30242 0.9937 0.0
C1092 C 0.3506 0.28797 0.98846 0.0
C1093 C 0.34039 0.28267 0.92453 0.0
C1094 C 0.70994 0.05719 0.92706 0.0
C1095 C 0.72289 0.04328 0.9173 0.0
C1096 C 0.70299 0.06087 0.98933 0.0
C1097 C 0.70857 0.05062 0.04407 0.0
H1098 H 0.70688 0.06697 0.88702 0.0
H1099 H 0.69489 0.0734 0.99491 0.0
S1100 S 0.73688 0.0078 0.0426 0.0
N1101 N 0.73726 0.01576 0.96614 0.0
N1102 N 0.72387 0.02231 0.08298 0.0
C1103 C 0.71892 0.03431 1.0341 0.0
C1104 C 0.72622 0.03077 0.97071 0.0
C1105 C 0.94877 0.68215 0.97806 0.0
C1106 C 0.93878 0.66553 0.92443 0.0
C1107 C 0.9456 0.67236 0.04098 0.0
C1108 C 0.93219 0.64558 0.05255 0.0
H1109 H 0.95743 0.70287 0.97195 0.0
H1110 H 0.95173 0.68587 0.08089 0.0
S1111 S 0.90777 0.59406 0.92791 0.0
N1112 N 0.91909 0.62118 0.88626 0.0
N1113 N 0.91302 0.60273 1.0046 0.0
C1114 C 0.92482 0.62887 0.99896 0.0
C1115 C 0.92815 0.63886 0.93474 0.0
C1116 C 0.08765 0.55553 0.87552 0.0
C1117 C 0.07638 0.54254 0.81705 0.0
C1118 C 0.08529 0.54193 0.9337 0.0
C1119 C 0.07165 0.51463 0.93627 0.0
H1120 H 0.09806 0.57646 0.87671 0.0
H1121 H 0.09414 0.55296 0.97705 0.0
S1122 S 0.03789 0.47127 0.79636 0.0
N1123 N 0.05075 0.50068 0.76609 0.0
N1124 N 0.04628 0.47528 0.8731 0.0
C1125 C 0.06039 0.50149 0.87758 0.0
C1126 C 0.06276 0.51534 0.81886 0.0
C1127 C 0.49035 0.57065 0.87178 0.0
C1128 C 0.48038 0.56089 0.93403 0.0
C1129 C 0.47573 0.55985 0.8149 0.0
C1130 C 0.45019 0.53886 0.81694 0.0
H1131 H 0.50991 0.58663 0.86651 0.0
H1132 H 0.4847 0.56788 0.76874 0.0
S1133 S 0.41471 0.50521 0.96631 0.0
N1134 N 0.44296 0.52826 0.99289 0.0
N1135 N 0.41571 0.50842 0.88703 0.0
C1136 C 0.43981 0.52905 0.87866 0.0
C1137 C 0.45475 0.5399 0.93663 0.0
C1138 C 0.45066 0.91363 0.9295 0.0
C1139 C 0.43794 0.92821 0.92984 0.0
C1140 C 0.45998 0.90824 0.87148 0.0
C1141 C 0.45733 0.9173 0.81048 0.0
H1142 H 0.4534 0.90616 0.97452 0.0
H1143 H 0.46971 0.89714 0.8747 0.0
S1144 S 0.42667 0.95733 0.78331 0.0
N1145 N 0.42397 0.95211 0.8619 0.0
N1146 N 0.44142 0.94227 0.75516 0.0
C1147 C 0.44485 0.93204 0.8102 0.0
C1148 C 0.43524 0.93738 0.8689 0.0
C1149 C 0.50076 0.06374 0.78282 0.0
C1150 C 0.51343 0.07046 0.72197 0.0
C1151 C 0.51274 0.06146 0.83952 0.0
C1152 C 0.53828 0.06607 0.83927 0.0
H1153 H 0.48096 0.05948 0.78681 0.0
H1154 H 0.50171 0.05577 0.88401 0.0
S1155 S 0.58056 0.08421 0.69405 0.0
N1156 N 0.5535 0.08159 0.66642 0.0
N1157 N 0.57592 0.07783 0.77208 0.0
C1158 C 0.5514 0.07321 0.77926 0.0
C1159 C 0.53908 0.07525 0.72122 0.0
C1160 C 0.9247 0.43405 0.77755 0.0
C1161 C 0.92328 0.44318 0.71549 0.0
C1162 C 0.9232 0.44609 0.83489 0.0
C1163 C 0.92013 0.46794 0.83363 0.0
H1164 H 0.92748 0.41757 0.78224 0.0
H1165 H 0.92492 0.43841 0.88073 0.0
S1166 S 0.91574 0.50023 0.68483 0.0
N1167 N 0.91875 0.47592 0.65736 0.0
N1168 N 0.91576 0.49831 0.76437 0.0
C1169 C 0.91823 0.4771 0.77215 0.0
C1170 C 0.91982 0.46484 0.71354 0.0
C1171 C 0.51343 0.44364 0.76877 0.0
C1172 C 0.52218 0.4543 0.83094 0.0
C1173 C 0.52621 0.45716 0.71144 0.0
C1174 C 0.54851 0.48201 0.71326 0.0
H1175 H 0.49608 0.42494 0.76419 0.0
H1176 H 0.51807 0.44831 0.66531 0.0
S1177 S 0.58059 0.51776 0.86413 0.0
N1178 N 0.55538 0.49081 0.8902 0.0
N1179 N 0.57949 0.51575 0.78465 0.0
C1180 C 0.55787 0.49239 0.77552 0.0
C1181 C 0.54475 0.47873 0.83348 0.0
C1182 C 0.92067 0.4603 0.21635 0.0
C1183 C 0.9238 0.48534 0.21857 0.0
C1184 C 0.91793 0.44594 0.27339 0.0
C1185 C 0.91813 0.45582 0.33564 0.0
H1186 H 0.92117 0.45198 0.17027 0.0
H1187 H 0.9164 0.42718 0.26861 0.0
S1188 S 0.92344 0.51933 0.3693 0.0
N1189 N 0.92518 0.51848 0.28989 0.0
N1190 N 0.92011 0.49172 0.39517 0.0
C1191 C 0.92031 0.48037 0.33845 0.0
C1192 C 0.92312 0.49499 0.2807 0.0
C1193 C 0.51363 0.44098 0.32584 0.0
C1194 C 0.5361 0.46562 0.3251 0.0
C1195 C 0.49875 0.42982 0.26941 0.0
C1196 C 0.50566 0.44254 0.20891 0.0
H1197 H 0.50716 0.43035 0.37076 0.0
H1198 H 0.48147 0.41103 0.27344 0.0
S1199 S 0.56172 0.50821 0.18076 0.0
N1200 N 0.5638 0.50282 0.25808 0.0
N1201 N 0.53622 0.48187 0.15317 0.0
C1202 C 0.52815 0.46713 0.20742 0.0
C1203 C 0.54319 0.4786 0.26494 0.0
C1204 C 0.53787 0.06793 0.2201 0.0
C1205 C 0.55247 0.05523 0.22158 0.0
C1206 C 0.52788 0.07313 0.27726 0.0
C1207 C 0.53164 0.06569 0.33933 0.0
H1208 H 0.53408 0.07401 0.17423 0.0
H1209 H 0.51674 0.08276 0.2725 0.0
S1210 S 0.56712 0.03062 0.37142 0.0
N1211 N 0.56934 0.03476 0.29242 0.0
N1212 N 0.55054 0.04408 0.39763 0.0
C1213 C 0.54596 0.05278 0.34147 0.0
C1214 C 0.55632 0.04771 0.28358 0.0
C1215 C 0.48856 0.91826 0.36495 0.0
C1216 C 0.47534 0.90868 0.42442 0.0
C1217 C 0.4761 0.91998 0.30856 0.0
C1218 C 0.44959 0.91209 0.30777 0.0
H1219 H 0.50911 0.92536 0.362 0.0
H1220 H 0.48759 0.92807 0.26533 0.0
S1221 S 0.40521 0.88424 0.44827 0.0
N1222 N 0.43339 0.89011 0.4768 0.0
N1223 N 0.41027 0.89341 0.37191 0.0
C1224 C 0.43589 0.90182 0.36612 0.0
C1225 C 0.44861 0.90011 0.4238 0.0
C1226 C 0.06904 0.55496 0.31991 0.0
C1227 C 0.07854 0.53764 0.31991 0.0
C1228 C 0.06637 0.56615 0.37756 0.0
C1229 C 0.07279 0.56048 0.43881 0.0
H1230 H 0.06327 0.55973 0.27487 0.0
H1231 H 0.05874 0.57912 0.37379 0.0
S1232 S 0.09834 0.51598 0.46603 0.0
N1233 N 0.09446 0.51537 0.38703 0.0
N1234 N 0.08926 0.536 0.49463 0.0
C1235 C 0.08251 0.54328 0.43937 0.0
C1236 C 0.0854 0.53201 0.38042 0.0
C1237 C 0.46762 0.55623 0.375 0.0
C1238 C 0.46032 0.5442 0.31372 0.0
C1239 C 0.45534 0.54296 0.43298 0.0
C1240 C 0.43505 0.51693 0.43283 0.0
H1241 H 0.48343 0.57596 0.37848 0.0
H1242 H 0.46226 0.55308 0.47841 0.0
S1243 S 0.40747 0.47693 0.28446 0.0
N1244 N 0.43064 0.50493 0.25686 0.0
N1245 N 0.40765 0.48022 0.36358 0.0
C1246 C 0.42719 0.50498 0.37132 0.0
C1247 C 0.43974 0.51848 0.31267 0.0
C1248 C 0.73963 0.85064 0.15132 0.0
C1249 C 0.74486 0.87637 0.15339 0.0
C1250 C 0.73667 0.83634 0.20807 0.0
C1251 C 0.73869 0.84686 0.27052 0.0
H1252 H 0.73715 0.84111 0.1052 0.0
H1253 H 0.73213 0.81648 0.2025 0.0
S1254 S 0.75296 0.91387 0.30344 0.0
N1255 N 0.75263 0.9121 0.22381 0.0
N1256 N 0.74716 0.88539 0.32995 0.0
C1257 C 0.7447 0.8729 0.27336 0.0
C1258 C 0.74772 0.88752 0.21522 0.0
C1259 C 0.13405 0.88129 0.14867 0.0
C1260 C 0.10876 0.85984 0.15073 0.0
C1261 C 0.14797 0.89355 0.2055 0.0
C1262 C 0.1375 0.88511 0.2681 0.0
H1263 H 0.14346 0.88853 0.1025 0.0
H1264 H 0.16742 0.9097 0.19998 0.0
S1265 S 0.0721 0.82923 0.30123 0.0
N1266 N 0.07387 0.83054 0.2216 0.0
N1267 N 0.09984 0.85329 0.32755 0.0
C1268 C 0.11207 0.86379 0.27088 0.0
C1269 C 0.09784 0.8513 0.21276 0.0
C1270 C 0.10913 0.26483 0.13981 0.0
C1271 C 0.12783 0.25712 0.14028 0.0
C1272 C 0.09754 0.26703 0.19727 0.0
C1273 C 0.10404 0.26181 0.25901 0.0
H1274 H 0.10361 0.26968 0.09449 0.0
H1275 H 0.08357 0.2734 0.19291 0.0
S1276 S 0.15223 0.24108 0.28775 0.0
N1277 N 0.15228 0.2441 0.20848 0.0
N1278 N 0.13084 0.24842 0.31583 0.0
C1279 C 0.12253 0.25373 0.26012 0.0
C1280 C 0.13428 0.25137 0.20126 0.0
C1281 C 0.18397 0.41369 0.15006 0.0
C1282 C 0.20961 0.41865 0.14832 0.0
C1283 C 0.16996 0.41123 0.09299 0.0
C1284 C 0.18071 0.41355 1.03061 0.0
H1285 H 0.17441 0.4113 0.19611 0.0
H1286 H 0.15024 0.40713 0.09817 0.0
S1287 S 0.24718 0.42613 0.9986 0.0
N1288 N 0.24519 0.42572 0.07818 0.0
N1289 N 0.21905 0.42106 0.97178 0.0
C1290 C 0.2065 0.41882 1.02822 0.0
C1291 C 0.22081 0.42136 0.08654 0.0
C1292 C 0.57102 0.75464 0.07308 0.0
C1293 C 0.57101 0.76441 1.01092 0.0
C1294 C 0.56831 0.76615 0.12988 0.0
C1295 C 0.56534 0.78806 0.12795 0.0
H1296 H 0.57371 0.73813 0.07836 0.0
H1297 H 0.5692 0.7581 0.17595 0.0
S1298 S 0.56363 0.82144 0.97842 0.0
N1299 N 0.56731 0.79744 0.95169 0.0
N1300 N 0.56215 0.81892 0.05793 0.0
C1301 C 0.56456 0.7977 0.06626 0.0
C1302 C 0.56737 0.78596 1.00812 0.0
C1303 C 0.19219 0.7715 0.08616 0.0
C1304 C 0.20161 0.78164 0.1484 0.0
C1305 C 0.20448 0.78536 1.02878 0.0
C1306 C 0.22683 0.81016 1.03056 0.0
H1307 H 0.1746 0.75299 0.0816 0.0
H1308 H 0.19574 0.77698 0.98282 0.0
S1309 S 0.26106 0.84435 0.18088 0.0
N1310 N 0.23603 0.8173 0.20728 0.0
N1311 N 0.25888 0.8431 0.1014 0.0
C1312 C 0.23701 0.81992 0.09263 0.0
C1313 C 0.22453 0.80582 0.15073 0.0
C1314 C 0.5691 0.76526 0.5663 0.0
C1315 C 0.56843 0.77497 0.62829 0.0
C1316 C 0.57123 0.77918 0.50866 0.0
C1317 C 0.57294 0.80365 0.50989 0.0
H1318 H 0.56862 0.74697 0.56222 0.0
H1319 H 0.57245 0.77105 0.46292 0.0
S1320 S 0.57065 0.83728 0.65932 0.0
N1321 N 0.56856 0.81032 0.68619 0.0
N1322 N 0.57254 0.83618 0.58002 0.0
C1323 C 0.57158 0.81316 0.57169 0.0
C1324 C 0.56934 0.79898 0.62999 0.0
C1325 C 0.20493 0.77983 0.53663 0.0
C1326 C 0.17863 0.77259 0.52928 0.0
C1327 C 0.21873 0.79113 0.59492 0.0
C1328 C 0.20705 0.79624 0.64808 0.0
H1329 H 0.2149 0.77655 0.49729 0.0
H1330 H 0.23887 0.79647 0.5977 0.0
S1331 S 0.13895 0.78171 0.6542 0.0
N1332 N 0.14184 0.77188 0.58183 0.0
N1333 N 0.16746 0.79307 0.6885 0.0
C1334 C 0.1809 0.78921 0.64098 0.0
C1335 C 0.16684 0.77746 0.58265 0.0
C1336 C 0.23023 0.41179 0.59255 0.0
C1337 C 0.22161 0.41382 0.53036 0.0
C1338 C 0.21868 0.41427 0.64975 0.0
C1339 C 0.19788 0.419 0.64829 0.0
H1340 H 0.24596 0.40788 0.59749 0.0
H1341 H 0.22596 0.41209 0.6957 0.0
S1342 S 0.16732 0.4257 0.49915 0.0
N1343 N 0.19049 0.42081 0.47195 0.0
N1344 N 0.16904 0.42555 0.5787 0.0
C1345 C 0.18922 0.42145 0.5867 0.0
C1346 C 0.20097 0.41886 0.52822 0.0
C1347 C 0.10667 0.24972 0.69845 0.0
C1348 C 0.11907 0.25838 0.63789 0.0
C1349 C 0.12073 0.25229 0.756 0.0
C1350 C 0.14792 0.2636 0.75589 0.0
H1351 H 0.08593 0.24134 0.70176 0.0
H1352 H 0.11019 0.24568 0.80103 0.0
S1353 S 0.18973 0.28958 0.60924 0.0
N1354 N 0.16022 0.27871 0.5819 0.0
N1355 N 0.1864 0.28351 0.68734 0.0
C1356 C 0.16037 0.27203 0.69496 0.0
C1357 C 0.14608 0.26944 0.63696 0.0
C1358 C 0.74298 0.86499 0.77145 0.0
C1359 C 0.74151 0.88787 0.76995 0.0
C1360 C 0.74343 0.85214 0.71394 0.0
C1361 C 0.74238 0.86142 0.65184 0.0
H1362 H 0.74298 0.85643 0.81746 0.0
H1363 H 0.74394 0.83436 0.71833 0.0
S1364 S 0.73935 0.92092 0.61943 0.0
N1365 N 0.73997 0.91955 0.69889 0.0
N1366 N 0.74053 0.89548 0.59309 0.0
C1367 C 0.74152 0.88452 0.64963 0.0
C1368 C 0.74116 0.89764 0.70777 0.0
C1369 C 0.11923 0.86968 0.76935 0.0
C1370 C 0.09617 0.84548 0.76754 0.0
C1371 C 0.13108 0.88384 0.71207 0.0
C1372 C 0.1205 0.8745 0.65015 0.0
H1373 H 0.12881 0.87729 0.81507 0.0
H1374 H 0.1492 0.90187 0.71627 0.0
S1375 S 0.05896 0.81384 0.61851 0.0
N1376 N 0.06218 0.81417 0.69765 0.0
N1377 N 0.08448 0.84036 0.59179 0.0
C1378 C 0.09699 0.85093 0.64803 0.0
C1379 C 0.08488 0.83661 0.70599 0.0
C1380 C 0.39022 0.16614 0.53112 0.0
C1381 C 0.39545 0.17808 0.59273 0.0
C1382 C 0.39189 0.17964 0.47363 0.0
C1383 C 0.39908 0.20597 0.47396 0.0
H1384 H 0.38436 0.14587 0.52686 0.0
H1385 H 0.38718 0.16915 0.42839 0.0
S1386 S 0.41424 0.24671 0.62115 0.0
N1387 N 0.40779 0.21825 0.64934 0.0
N1388 N 0.41116 0.24348 0.54193 0.0
C1389 C 0.4046 0.21833 0.53484 0.0
C1390 C 0.40275 0.20451 0.59373 0.0
C1391 C 0.82362 0.22046 0.53253 0.0
C1392 C 0.81086 0.2155 0.59305 0.0
C1393 C 0.81056 0.20797 0.47509 0.0
C1394 C 0.7839 0.18991 0.47443 0.0
H1395 H 0.84418 0.23393 0.52917 0.0
H1396 H 0.82163 0.21236 0.43076 0.0
S1397 S 0.74091 0.16938 0.61846 0.0
N1398 N 0.76949 0.1907 0.6475 0.0
N1399 N 0.7451 0.16762 0.54016 0.0
C1400 C 0.77073 0.1849 0.53414 0.0
C1401 C 0.78409 0.19752 0.59296 0.0
C1402 C 0.7749 0.59935 0.47235 0.0
C1403 C 0.79027 0.58761 0.47179 0.0
C1404 C 0.76407 0.60253 0.53007 0.0
C1405 C 0.76823 0.59446 0.59091 0.0
H1406 H 0.77135 0.60643 0.42768 0.0
H1407 H 0.75257 0.61183 0.52672 0.0
S1408 S 0.80741 0.56282 0.61668 0.0
N1409 N 0.80911 0.56785 0.53799 0.0
N1410 N 0.78921 0.57404 0.64575 0.0
C1411 C 0.78358 0.58262 0.59094 0.0
C1412 C 0.79441 0.57916 0.53189 0.0
C1413 C 0.84212 0.73078 0.49433 0.0
C1414 C 0.86771 0.73565 0.49353 0.0
C1415 C 0.82874 0.72928 0.43685 0.0
C1416 C 0.8401 0.73239 0.37499 0.0
H1417 H 0.83207 0.72766 0.53993 0.0
H1418 H 0.80899 0.72515 0.44125 0.0
S1419 S 0.90672 0.74502 0.34545 0.0
N1420 N 0.90397 0.74356 0.42491 0.0
N1421 N 0.87893 0.74049 0.31758 0.0
C1422 C 0.86587 0.73761 0.37354 0.0
C1423 C 0.87957 0.73926 0.43233 0.0
C1424 C 0.2504 0.09225 0.43617 0.0
C1425 C 0.25072 0.10206 0.37375 0.0
C1426 C 0.24757 0.10389 0.49306 0.0
C1427 C 0.24484 0.126 0.49097 0.0
H1428 H 0.25269 0.07551 0.44151 0.0
H1429 H 0.24784 0.09561 0.53929 0.0
S1430 S 0.24537 0.16034 0.34103 0.0
N1431 N 0.24854 0.13602 0.31472 0.0
N1432 N 0.24321 0.15753 0.4204 0.0
C1433 C 0.24497 0.13595 0.42907 0.0
C1434 C 0.24792 0.12416 0.37112 0.0
C1435 C 0.88348 0.14642 0.49412 0.0
C1436 C 0.86435 0.12006 0.49261 0.0
C1437 C 0.89466 0.16064 0.43697 0.0
C1438 C 0.88711 0.1494 0.37488 0.0
H1439 H 0.8897 0.15633 0.54003 0.0
H1440 H 0.90903 0.18091 0.44182 0.0
S1441 S 0.83698 0.08104 0.34371 0.0
N1442 N 0.83813 0.0833 0.42323 0.0
N1443 N 0.85861 0.10988 0.31654 0.0
C1444 C 0.868 0.12295 0.37279 0.0
C1445 C 0.85681 0.1084 0.43117 0.0
C1446 C 0.24334 0.12085 0.87503 0.0
C1447 C 0.25188 0.14762 0.87532 0.0
C1448 C 0.24139 0.10706 0.93277 0.0
C1449 C 0.24791 0.11928 0.99395 0.0
H1450 H 0.2386 0.11047 0.82965 0.0
H1451 H 0.23525 0.08671 0.92914 0.0
S1452 S 0.27053 0.18869 1.02358 0.0
N1453 N 0.26614 0.18539 0.9448 0.0
N1454 N 0.26273 0.15975 0.05079 0.0
C1455 C 0.25601 0.14582 0.99513 0.0
C1456 C 0.25792 0.15984 0.93681 0.0
C1457 C 0.84658 0.10978 0.99318 0.0
C1458 C 0.87221 0.13061 0.99241 0.0
C1459 C 0.83326 0.09761 0.93571 0.0
C1460 C 0.8447 0.10562 0.87385 0.0
H1461 H 0.83649 0.10297 0.03876 0.0
H1462 H 0.81352 0.0819 0.94013 0.0
S1463 S 0.9113 0.16 0.8443 0.0
N1464 N 0.90845 0.15897 0.92372 0.0
N1465 N 0.88356 0.13644 0.81649 0.0
C1466 C 0.87044 0.12639 0.87243 0.0
C1467 C 0.88407 0.13874 0.93119 0.0
C1468 C 0.89243 0.73386 0.93727 0.0
C1469 C 0.88262 0.7341 0.87534 0.0
C1470 C 0.8811 0.73665 0.99442 0.0
C1471 C 0.85937 0.73989 0.9929 0.0
H1472 H 0.90877 0.7309 0.94208 0.0
H1473 H 0.88918 0.73573 0.04038 0.0
S1474 S 0.8256 0.74165 0.84441 0.0
N1475 N 0.8495 0.73797 0.8171 0.0
N1476 N 0.8284 0.74313 0.92379 0.0
C1477 C 0.84961 0.7407 0.93152 0.0
C1478 C 0.86114 0.73785 0.87318 0.0
C1479 C 0.78746 0.58337 0.08703 0.0
C1480 C 0.81462 0.59447 0.08839 0.0
C1481 C 0.77396 0.58184 1.02926 0.0
C1482 C 0.78685 0.59144 0.96962 0.0
H1483 H 0.77643 0.57593 0.13115 0.0
H1484 H 0.7532 0.5734 1.0317 0.0
S1485 S 0.85775 0.62256 0.94488 0.0
N1486 N 0.85373 0.61535 1.02245 0.0
N1487 N 0.82853 0.61236 0.91603 0.0
C1488 C 0.8139 0.60244 0.97007 0.0
C1489 C 0.82766 0.60397 1.02855 0.0
C1490 C 0.39202 0.21372 0.97311 0.0
C1491 C 0.40147 0.19637 0.9738 0.0
C1492 C 0.38884 0.2247 1.03043 0.0
C1493 C 0.39474 0.21886 0.09213 0.0
H1494 H 0.38659 0.21862 0.92773 0.0
H1495 H 0.38123 0.23767 1.02597 0.0
S1496 S 0.42019 0.17441 0.12123 0.0
N1497 N 0.41694 0.174 0.04201 0.0
N1498 N 0.41085 0.19433 0.14916 0.0
C1499 C 0.40455 0.20174 0.09343 0.0
C1500 C 0.40791 0.19063 1.03474 0.0
C1501 C 0.77214 0.17482 0.97377 0.0
C1502 C 0.79084 0.20136 0.97534 0.0
C1503 C 0.76171 0.16014 1.03094 0.0
C1504 C 0.76937 0.1711 0.09335 0.0
H1505 H 0.76565 0.16509 0.92772 0.0
H1506 H 0.7476 0.1398 1.0258 0.0
S1507 S 0.81811 0.23997 0.12495 0.0
N1508 N 0.81662 0.23801 0.0454 0.0
N1509 N 0.79728 0.21077 0.15187 0.0
C1510 C 0.7879 0.19778 0.09552 0.0
C1511 C 0.79849 0.21273 1.03713 0.0
C1512 C 0.99038 0.40478 0.27167 0.0
C1513 C 0.01753 0.41947 0.2749 0.0
C1514 C 0.97497 0.39772 0.32811 0.0
C1515 C 0.98601 0.40435 0.39029 0.0
H1516 H 0.98091 0.4006 0.22514 0.0
H1517 H 0.95418 0.38824 0.32287 0.0
S1518 S 0.05616 0.44114 0.42542 0.0
N1519 N 0.05474 0.43947 0.34578 0.0
N1520 N 0.02594 0.42526 0.4512 0.0
C1521 C 0.01313 0.41746 0.3942 0.0
C1522 C 0.0288 0.42526 0.33677 0.0
C1523 C 0.59715 0.57391 0.31911 0.0
C1524 C 0.5926 0.58112 0.38062 0.0
C1525 C 0.59153 0.58276 0.26145 0.0
C1526 C 0.5804 0.59867 0.26265 0.0
H1527 H 0.60377 0.56009 0.3155 0.0
H1528 H 0.59376 0.57519 0.21585 0.0
S1529 S 0.56528 0.62376 0.41059 0.0
N1530 N 0.57753 0.60633 0.43849 0.0
N1531 N 0.56602 0.62204 0.33105 0.0
C1532 C 0.57684 0.60692 0.32377 0.0
C1533 C 0.58316 0.59842 0.38237 0.0
C1534 C 0.40931 0.00948 0.27403 0.0
C1535 C 0.3979 0.98233 0.27382 0.0
C1536 C 0.41765 0.02394 0.33211 0.0
C1537 C 0.41431 0.01195 0.39296 0.0
H1538 H 0.41381 0.01984 0.22864 0.0
H1539 H 0.42807 0.04485 0.329 0.0
S1540 S 0.38399 0.94132 0.4199 0.0
N1541 N 0.38272 0.94406 0.34084 0.0
N1542 N 0.39749 0.97103 0.44893 0.0
C1543 C 0.40137 0.98476 0.39374 0.0
C1544 C 0.39343 0.97007 0.33464 0.0
C1545 C 0.0133 0.59945 0.89339 0.0
C1546 C 0.98615 0.58683 0.89087 0.0
C1547 C 0.02847 0.60704 0.83649 0.0
C1548 C 0.01725 0.60296 0.77455 0.0
H1549 H 0.02279 0.60151 0.93927 0.0
H1550 H 0.04909 0.61476 0.84086 0.0
S1551 S 0.94708 0.57222 0.7417 0.0
N1552 N 0.94878 0.57155 0.82121 0.0
N1553 N 0.97719 0.58666 0.71512 0.0
C1554 C 0.99026 0.59198 0.77177 0.0
C1555 C 0.97477 0.58368 0.82958 0.0
C1556 C 0.38715 0.43049 0.83552 0.0
C1557 C 0.38896 0.42145 0.77377 0.0
C1558 C 0.39316 0.42156 0.89237 0.0
C1559 C 0.40175 0.40353 0.89004 0.0
H1560 H 0.3825 0.44577 0.83968 0.0
H1561 H 0.39324 0.43054 0.93792 0.0
S1562 S 0.40938 0.3733 0.74137 0.0
N1563 N 0.39885 0.39238 0.71472 0.0
N1564 N 0.41104 0.37647 0.82075 0.0
C1565 C 0.40256 0.39351 0.82901 0.0
C1566 C 0.39589 0.40217 0.77122 0.0
C1567 C 0.57661 0.97046 0.87955 0.0
C1568 C 0.59066 -0.00228 0.88018 0.0
C1569 C 0.5679 0.9563 0.82103 0.0
C1570 C 0.5733 0.9686 0.75998 0.0
H1571 H 0.57041 0.96001 0.92478 0.0
H1572 H 0.55564 0.9355 0.82386 0.0
S1573 S 0.61082 0.03955 0.73436 0.0
N1574 N 0.6104 0.03634 0.81362 0.0
N1575 N 0.59502 0.00991 0.70473 0.0
C1576 C 0.5888 0.99575 0.75985 0.0
C1577 C 0.59715 0.01018 0.81942 0.0
C1578 C 0.6629 0.73595 0.70221 0.0
C1579 C 0.63586 0.72292 0.69559 0.0
C1580 C 0.67928 0.74464 0.64765 0.0
C1581 C 0.66931 0.74005 0.58432 0.0
H1582 H 0.67146 0.74162 0.74971 0.0
H1583 H 0.69991 0.75655 0.65516 0.0
S1584 S 0.59993 0.70459 0.54088 0.0
N1585 N 0.59992 0.70441 0.62065 0.0
N1586 N 0.6306 0.71977 0.51865 0.0
C1587 C 0.64237 0.72515 0.57716 0.0
C1588 C 0.6257 0.71687 0.63262 0.0
C1589 C 0.24337 0.92355 0.71121 0.0
C1590 C 0.25929 0.91251 0.70521 0.0
C1591 C 0.23361 0.92988 0.65636 0.0
C1592 C 0.23994 0.92629 0.59289 0.0
H1593 H 0.23663 0.9253 0.7585 0.0
H1594 H 0.21994 0.9365 0.66371 0.0
S1595 S 0.28251 0.89996 0.55038 0.0
N1596 N 0.28181 0.8994 0.63013 0.0
N1597 N 0.26453 0.91238 0.52795 0.0
C1598 C 0.25726 0.91697 0.58635 0.0
C1599 C 0.26661 0.90982 0.64211 0.0
C1600 C 0.06704 0.32803 0.70709 0.0
C1601 C 0.07954 0.35519 0.70368 0.0
C1602 C 0.06005 0.31264 0.65068 0.0
C1603 C 0.06466 0.32366 0.58834 0.0
H1604 H 0.06468 0.31871 0.75343 0.0
H1605 H 0.05233 0.29202 0.65588 0.0
S1606 S 0.09501 0.39372 0.55306 0.0
N1607 N 0.09508 0.39231 0.63271 0.0
N1608 N 0.08104 0.36349 0.52742 0.0
C1609 C 0.0754 0.35063 0.58452 0.0
C1610 C 0.0831 0.36634 0.64189 0.0
C1611 C 0.68209 0.93006 0.14788 0.0
C1612 C 0.67341 0.9254 0.08345 0.0
C1613 C 0.66463 0.92204 0.20023 0.0
C1614 C 0.6377 0.9082 0.1904 0.0
H1615 H 0.70252 0.9387 0.15801 0.0
H1616 H 0.67232 0.9247 0.24868 0.0
S1617 S 0.60487 0.89294 1.03159 0.0
N1618 N 0.63594 0.90825 1.0132 0.0
N1619 N 0.60329 0.89204 0.11124 0.0
C1620 C 0.62881 0.90477 0.12636 0.0
C1621 C 0.64659 0.91366 0.07305 0.0
C1622 C 0.06202 0.73538 0.20154 0.0
C1623 C 0.08035 0.72724 0.19601 0.0
C1624 C 0.0531 0.7426 0.14668 0.0
C1625 C 0.06136 0.74109 0.08378 0.0
H1626 H 0.05618 0.7383 0.24889 0.0
H1627 H 0.04081 0.75089 0.15388 0.0
S1628 S 0.10752 0.71907 0.04224 0.0
N1629 N 0.10534 0.71687 0.12174 0.0
N1630 N 0.08781 0.72937 1.01938 0.0
C1631 C 0.0782 0.73123 0.07735 0.0
C1632 C 0.08784 0.72456 0.13315 0.0
C1633 C 0.23998 0.31217 0.15096 0.0
C1634 C 0.24661 0.32306 0.0885 0.0
C1635 C 0.24863 0.32764 0.20721 0.0
C1636 C 0.26377 0.35478 0.20353 0.0
H1637 H 0.22679 0.2916 0.15637 0.0
H1638 H 0.24156 0.31845 0.25368 0.0
S1639 S 0.2869 0.39302 0.05238 0.0
N1640 N 0.27036 0.36275 1.02711 0.0
N1641 N 0.28555 0.39174 0.13206 0.0
C1642 C 0.27135 0.36579 0.14156 0.0
C1643 C 0.26311 0.35 0.08437 0.0
C1644 C 0.33796 0.07663 0.04355 0.0
C1645 C 0.31076 0.0623 0.04241 0.0
C1646 C 0.35265 0.08451 0.98582 0.0
C1647 C 0.34089 0.07783 0.92434 0.0
H1648 H 0.34789 0.08375 0.08911 0.0
H1649 H 0.37334 0.0973 0.98932 0.0
S1650 S 0.27044 0.03864 0.89478 0.0
N1651 N 0.27282 0.04056 0.97428 0.0
N1652 N 0.30033 0.05445 0.86675 0.0
C1653 C 0.31387 0.06186 0.92278 0.0
C1654 C 0.29888 0.05439 0.98143 0.0
C1655 C 0.90057 0.26845 0.98869 0.0
C1656 C 0.90799 0.26341 0.92811 0.0
C1657 C 0.90804 0.2619 0.04698 0.0
C1658 C 0.92259 0.24934 0.04688 0.0
H1659 H 0.88748 0.27599 0.99096 0.0
H1660 H 0.90037 0.26453 0.09197 0.0
S1661 S 0.94815 0.23311 0.90174 0.0
N1662 N 0.93229 0.2468 0.87225 0.0
N1663 N 0.94549 0.23362 0.98106 0.0
C1664 C 0.93133 0.24554 0.98681 0.0
C1665 C 0.92426 0.2528 0.92765 0.0
C1666 C 0.74006 0.67408 0.92382 0.0
C1667 C 0.72263 0.64727 0.92414 0.0
C1668 C 0.74913 0.68819 0.98176 0.0
C1669 C 0.74084 0.67622 0.04263 0.0
H1670 H 0.74863 0.68381 0.87869 0.0
H1671 H 0.764 0.70838 0.97891 0.0
S1672 S 0.69417 0.60672 0.06994 0.0
N1673 N 0.69671 0.60949 0.99052 0.0
N1674 N 0.7129 0.63611 0.09907 0.0
C1675 C 0.722 0.6498 0.0435 0.0
C1676 C 0.71318 0.63532 0.98442 0.0
C1677 C 0.34822 0.26696 0.48256 0.0
C1678 C 0.33641 0.26145 0.42127 0.0
C1679 C 0.3335 0.2591 0.53994 0.0
C1680 C 0.30635 0.24476 0.53825 0.0
H1681 H 0.36902 0.27588 0.48607 0.0
H1682 H 0.34347 0.2623 0.58556 0.0
S1683 S 0.26593 0.22694 0.39097 0.0
N1684 N 0.29585 0.24259 0.36312 0.0
N1685 N 0.26825 0.22693 0.47043 0.0
C1686 C 0.29432 0.24037 0.4776 0.0
C1687 C 0.30931 0.24898 0.41928 0.0
C1688 C 0.72921 0.06928 0.54241 0.0
C1689 C 0.74544 0.05854 0.54084 0.0
C1690 C 0.72082 0.07547 0.4849 0.0
C1691 C 0.72762 0.07044 0.42346 0.0
H1692 H 0.72486 0.07509 0.58814 0.0
H1693 H 0.71044 0.08594 0.48854 0.0
S1694 S 0.76777 0.04039 0.39299 0.0
N1695 N 0.76671 0.04181 0.47252 0.0
N1696 N 0.75015 0.05244 0.36528 0.0
C1697 C 0.74216 0.05791 0.42151 0.0
C1698 C 0.75126 0.05224 0.47988 0.0
C1699 C 0.92914 0.68172 0.49274 0.0
C1700 C 0.92041 0.66894 0.5526 0.0
C1701 C 0.92298 0.66794 0.43398 0.0
C1702 C 0.90729 0.64086 0.43271 0.0
H1703 H 0.93936 0.70266 0.49101 0.0
H1704 H 0.92848 0.67873 0.38915 0.0
S1705 S 0.88103 0.59805 0.57571 0.0
N1706 N 0.89707 0.62745 0.60668 0.0
N1707 N 0.88469 0.60169 0.49664 0.0
C1708 C 0.89983 0.62779 0.49231 0.0
C1709 C 0.90662 0.64178 0.55214 0.0
C1710 C 0.00764 0.49926 0.14253 0.0
C1711 C 0.00297 0.48022 0.09675 0.0
C1712 C 0.00495 0.52029 0.12592 0.0
C1713 C -0.00218 0.52274 0.06298 0.0
H1714 H 0.01395 0.49815 0.19081 0.0
H1715 H 0.00739 0.53411 0.16312 0.0
S1716 S 0.98614 0.47937 0.92431 0.0
N1717 N 0.99285 0.46586 0.98507 0.0
N1718 N 0.9873 0.50556 0.95427 0.0
C1719 C -0.00641 0.50414 1.01653 0.0
C1720 C -0.0038 0.48269 1.0334 0.0
C1721 C 0.49638 0.51522 1.00434 0.0
C1722 C 0.50643 0.52554 0.06549 0.0
C1723 C 0.47467 0.49095 0.99879 0.0
C1724 C 0.46281 0.47679 0.05425 0.0
H1725 H 0.50567 0.52565 0.96048 0.0
H1726 H 0.46827 0.48254 0.95127 0.0
S1727 S 0.4821 0.49503 0.22456 0.0
N1728 N 0.50332 0.52009 0.18187 0.0
N1729 N 0.4618 0.47404 0.17157 0.0
C1730 C 0.47186 0.48731 0.11569 0.0
C1731 C 0.49409 0.51192 0.12132 0.0
C1732 C 0.50792 0.99381 1.02391 0.0
C1733 C 0.51908 0.99182 0.08107 0.0
C1734 C 0.48459 0.9932 1.02589 0.0
C1735 C 0.47216 0.99042 0.08513 0.0
H1736 H 0.51737 0.99606 0.97767 0.0
H1737 H 0.47596 0.9942 0.98084 0.0
S1738 S 0.49468 0.98667 0.2484 0.0
N1739 N 0.51701 0.98819 0.19867 0.0
N1740 N 0.47261 0.98722 0.2019 0.0
C1741 C 0.48318 0.98874 0.1427 0.0
C1742 C 0.50688 0.98922 0.14081 0.0
C1743 C 0.51937 0.00331 0.55822 0.0
C1744 C 0.50514 0.97635 0.56233 0.0
C1745 C 0.50713 0.01746 0.56653 0.0
C1746 C 0.48061 0.00463 0.57847 0.0
H1747 H 0.54005 0.01344 0.54977 0.0
H1748 H 0.51857 0.03827 0.56519 0.0
S1749 S 0.43431 0.93467 0.58548 0.0
N1750 N 0.46285 0.9375 0.57348 0.0
N1751 N 0.43994 0.96455 0.58927 0.0
C1752 C 0.46603 0.97788 0.58056 0.0
C1753 C 0.47838 0.96347 0.57235 0.0
C1754 C 0.00073 0.48887 0.62496 0.0
C1755 C -0.00586 0.47978 0.56136 0.0
C1756 C 0.00387 0.5127 0.64237 0.0
C1757 C 0.00021 0.52771 0.59669 0.0
H1758 H 0.00283 0.47718 0.66177 0.0
H1759 H 0.01014 0.51988 0.6909 0.0
S1760 S 0.98386 0.51262 0.42367 0.0
N1761 N 0.98419 0.48709 0.45287 0.0
N1762 N 0.99064 0.53264 0.48513 0.0
C1763 C -0.00669 0.51867 0.53313 0.0
C1764 C 0.99021 0.49445 0.51547 0.0
C1765 C 0.50532 0.52104 0.61678 0.0
C1766 C 0.5156 0.51902 0.55752 0.0
C1767 C 0.48126 0.50143 0.63727 0.0
C1768 C 0.4671 0.47939 0.59919 0.0
H1769 H 0.5163 0.53738 0.64854 0.0
H1770 H 0.47332 0.50381 0.68211 0.0
S1771 S 0.48515 0.46597 0.43857 0.0
N1772 N 0.50992 0.49411 0.4603 0.0
N1773 N 0.46424 0.45697 0.49867 0.0
C1774 C 0.47721 0.47714 0.53995 0.0
C1775 C 0.50159 0.49718 0.51892 0.0
C1776 C 0.63716 0.8152 0.32294 0.0
C1777 C 0.65069 0.84198 0.33272 0.0
C1778 C 0.64239 0.7992 0.36046 0.0
C1779 C 0.66185 0.80964 0.40767 0.0
H1780 H 0.62108 0.80644 0.28959 0.0
H1781 H 0.63156 0.77861 0.35089 0.0
S1782 S 0.70439 0.87874 0.44796 0.0
N1783 N 0.68579 0.8786 0.38924 0.0
N1784 N 0.69515 0.84808 0.46081 0.0
C1785 C 0.67606 0.83643 0.41637 0.0
C1786 C 0.67106 0.85279 0.37752 0.0
C1787 C 0.15178 0.83625 0.44162 0.0
C1788 C 0.17534 0.85149 0.41004 0.0
C1789 C 0.13347 0.81273 0.41543 0.0
C1790 C 0.13836 0.80402 0.35692 0.0
H1791 H 0.14746 0.84267 0.4865 0.0
H1792 H 0.11616 0.80058 0.44322 0.0
S1793 S 0.19507 0.83884 0.25024 0.0
N1794 N 0.20131 0.85802 0.31325 0.0
N1795 N 0.16669 0.81304 0.26498 0.0
C1796 C 0.16116 0.81964 0.3232 0.0
C1797 C 0.17985 0.84358 0.34974 0.0
C1798 C 0.17996 0.33174 0.43724 0.0
C1799 C 0.18933 0.34014 0.37445 0.0
C1800 C 0.15615 0.32832 0.456 0.0
C1801 C 0.14152 0.33347 0.41251 0.0
H1802 H 0.19171 0.32923 0.473 0.0
H1803 H 0.14906 0.32147 0.50434 0.0
S1804 S 0.15635 0.35225 0.24038 0.0
N1805 N 0.18182 0.35141 0.26766 0.0
N1806 N 0.13637 0.34443 0.30234 0.0
C1807 C 0.15027 0.34086 0.34884 0.0
C1808 C 0.17442 0.34424 0.32984 0.0
C1809 C 0.16194 0.32936 0.95591 0.0
C1810 C 0.18179 0.33444 0.91238 0.0
C1811 C 0.1415 0.3326 0.93704 0.0
C1812 C 0.14049 0.34069 0.87404 0.0
H1813 H 0.16207 0.32252 1.00426 0.0
H1814 H 0.12714 0.33005 0.97278 0.0
S1815 S 0.18589 0.35274 0.73993 0.0
N1816 N 0.19807 0.34523 0.8021 0.0
N1817 N 0.15947 0.35182 0.76713 0.0
C1818 C 0.15968 0.3449 0.82949 0.0
C1819 C 0.18053 0.34173 0.84864 0.0
C1820 C 0.67563 0.83392 0.94333 0.0
C1821 C 0.66301 0.84789 0.93176 0.0
C1822 C 0.66837 0.81103 0.91056 0.0
C1823 C 0.64801 0.8013 0.86586 0.0
H1824 H 0.69201 0.84138 0.97571 0.0
H1825 H 0.67822 0.80053 0.92225 0.0
S1826 S 0.60904 0.8307 0.81748 0.0
N1827 N 0.62907 0.8504 0.87266 0.0
N1828 N 0.61589 0.80732 0.8102 0.0
C1829 C 0.63532 0.81509 0.85369 0.0
C1830 C 0.64239 0.83819 0.88765 0.0
C1831 C 0.14465 0.83319 0.93225 0.0
C1832 C 0.1341 0.80636 0.9279 0.0
C1833 C 0.16874 0.84982 0.90683 0.0
C1834 C 0.18336 0.84006 0.87849 0.0
H1835 H 0.13356 0.84142 0.95151 0.0
H1836 H 0.17607 0.87042 0.91085 0.0
S1837 S 0.16502 0.77111 0.86041 0.0
N1838 N 0.14033 0.77051 0.89752 0.0
N1839 N 0.1861 0.802 0.84924 0.0
C1840 C 0.1734 0.81321 0.876 0.0
C1841 C 0.14881 0.79626 0.90211 0.0
C1842 C 0.32996 0.18182 0.77305 0.0
C1843 C 0.32225 0.1829 0.70972 0.0
C1844 C 0.33163 0.16063 0.79353 0.0
C1845 C 0.3255 0.14015 0.7512 0.0
H1846 H 0.33342 0.1968 0.8078 0.0
H1847 H 0.33846 0.16056 0.84189 0.0
S1848 S 0.30688 0.1354 0.57912 0.0
N1849 N 0.30984 0.163 0.60417 0.0
N1850 N 0.31337 0.12286 0.64226 0.0
C1851 C 0.31814 0.14124 0.68748 0.0
C1852 C 0.31663 0.16288 0.66664 0.0
C1853 C 0.84638 0.17659 0.69045 0.0
C1854 C 0.84933 0.18521 0.75464 0.0
C1855 C 0.82553 0.15286 0.67297 0.0
C1856 C 0.8072 0.13756 0.71922 0.0
H1857 H 0.85957 0.18881 0.65308 0.0
H1858 H 0.82402 0.14617 0.62364 0.0
S1859 S 0.80848 0.15047 0.89473 0.0
N1860 N 0.83382 0.17647 0.86497 0.0
N1861 N 0.7944 0.13114 0.83256 0.0
C1862 C 0.81034 0.14573 0.78389 0.0
C1863 C 0.83164 0.1698 0.80159 0.0
C1864 C 0.83274 0.67731 0.69664 0.0
C1865 C 0.84438 0.67413 0.75151 0.0
C1866 C 0.8091 0.67624 0.70184 0.0
C1867 C 0.79657 0.67125 0.76179 0.0
H1868 H 0.84098 0.67869 0.64919 0.0
H1869 H 0.79912 0.67591 0.65791 0.0
S1870 S 0.82144 0.66716 0.92108 0.0
N1871 N 0.84391 0.67051 0.86916 0.0
N1872 N 0.79856 0.66745 0.87751 0.0
C1873 C 0.80915 0.67088 0.81763 0.0
C1874 C 0.83328 0.67221 0.81277 0.0
C1875 C 0.83287 0.65799 0.29841 0.0
C1876 C 0.8517 0.66249 0.25214 0.0
C1877 C 0.8108 0.65859 0.28101 0.0
C1878 C 0.80714 0.66364 0.21691 0.0
H1879 H 0.83468 0.65276 0.34741 0.0
H1880 H 0.79695 0.656 0.31829 0.0
S1881 S 0.85049 0.67569 0.07797 0.0
N1882 N 0.86532 0.67149 0.13982 0.0
N1883 N 0.82361 0.67313 0.10736 0.0
C1884 C 0.82592 0.66845 0.17045 0.0
C1885 C 0.84845 0.66798 0.18816 0.0
C1886 C 0.31106 0.17268 0.20211 0.0
C1887 C 0.31766 0.18517 0.26217 0.0
C1888 C 0.30797 0.14819 0.19549 0.0
C1889 C 0.31095 0.13574 0.24899 0.0
H1890 H 0.31078 0.18285 0.1591 0.0
H1891 H 0.30472 0.13961 0.14791 0.0
S1892 S 0.32443 0.15967 0.41806 0.0
N1893 N 0.3247 0.1833 0.3764 0.0
N1894 N 0.31794 0.13643 0.36545 0.0
C1895 C 0.31562 0.14742 0.31036 0.0
C1896 C 0.31901 0.17242 0.31666 0.0
C1897 C 0.83734 0.15422 0.19554 0.0
C1898 C 0.84884 0.16977 0.24958 0.0
C1899 C 0.81389 0.13141 0.20171 0.0
C1900 C 0.8014 0.12436 0.26178 0.0
H1901 H 0.84553 0.16062 0.14787 0.0
H1902 H 0.80403 0.12108 0.15824 0.0
S1903 S 0.82589 0.1557 0.41954 0.0
N1904 N 0.84821 0.17446 0.36682 0.0
N1905 N 0.80325 0.13165 0.37707 0.0
C1906 C 0.81381 0.1382 0.31701 0.0
C1907 C 0.83776 0.16126 0.31114 0.0
loop_
_geom_bond_atom_site_label_1
_geom_bond_atom_site_label_2
_geom_bond_distance
_geom_bond_site_symmetry_2
_ccdc_geom_bond_type
Dy0 O4 2.398 . S
Dy0 O5 2.491 . S
Dy0 O6 2.403 . S
Dy0 O7 2.664 . S
Dy0 O11 2.326 . S
Dy0 O15 2.310 . S
Dy0 O16 2.351 1_554 S
C1 O12 1.185 . S
C1 O13 1.355 . S
C2 O4 1.185 . S
C2 O5 1.355 . S
Dy3 O7 2.310 1_556 S
Dy3 O10 2.351 1_556 S
Dy3 O12 2.398 . S
Dy3 O13 2.491 . S
Dy3 O14 2.403 1_556 S
Dy3 O15 2.664 1_556 S
Dy3 O17 2.326 . S
O4 Dy0 2.398 . S
O4 C2 1.185 . S
O5 Dy0 2.491 . S
O5 C2 1.355 . S
O6 Dy0 2.403 . S
O6 C8 1.254 . S
O7 Dy0 2.664 . S
O7 Dy3 2.310 1_554 S
O7 C8 1.268 . S
C8 O6 1.254 . S
C8 O7 1.268 . S
C9 O14 1.254 . S
C9 O15 1.268 . S
O10 Dy3 2.351 1_554 S
O10 C18 1.249 . S
O11 Dy0 2.326 . S
O11 C18 1.267 . S
O12 C1 1.185 . S
O12 Dy3 2.398 . S
O13 C1 1.355 . S
O13 Dy3 2.491 . S
O14 Dy3 2.403 1_554 S
O14 C9 1.254 . S
O15 Dy0 2.310 . S
O15 Dy3 2.664 1_554 S
O15 C9 1.268 . S
O16 Dy0 2.351 1_556 S
O16 C19 1.249 . S
O17 Dy3 2.326 . S
O17 C19 1.267 . S
C18 O10 1.249 . S
C18 O11 1.267 . S
C19 O16 1.249 . S
C19 O17 1.267 . S
Dy20 O24 2.398 . S
Dy20 O25 2.491 . S
Dy20 O26 2.403 . S
Dy20 O27 2.664 . S
Dy20 O31 2.326 . S
Dy20 O35 2.310 . S
Dy20 O36 2.351 1_554 S
C21 O32 1.185 . S
C21 O33 1.355 . S
C22 O24 1.185 . S
C22 O25 1.355 . S
Dy23 O27 2.310 1_556 S
Dy23 O30 2.351 1_556 S
Dy23 O32 2.398 . S
Dy23 O33 2.491 . S
Dy23 O34 2.403 1_556 S
Dy23 O35 2.664 1_556 S
Dy23 O37 2.326 . S
O24 Dy20 2.398 . S
O24 C22 1.185 . S
O25 Dy20 2.491 . S
O25 C22 1.355 . S
O26 Dy20 2.403 . S
O26 C28 1.254 . S
O27 Dy20 2.664 . S
O27 Dy23 2.310 1_554 S
O27 C28 1.268 . S
C28 O26 1.254 . S
C28 O27 1.268 . S
C29 O34 1.254 . S
C29 O35 1.268 . S
O30 Dy23 2.351 1_554 S
O30 C38 1.249 . S
O31 Dy20 2.326 . S
O31 C38 1.267 . S
O32 C21 1.185 . S
O32 Dy23 2.398 . S
O33 C21 1.355 . S
O33 Dy23 2.491 . S
O34 Dy23 2.403 1_554 S
O34 C29 1.254 . S
O35 Dy20 2.310 . S
O35 Dy23 2.664 1_554 S
O35 C29 1.268 . S
O36 Dy20 2.351 1_556 S
O36 C39 1.249 . S
O37 Dy23 2.326 . S
O37 C39 1.267 . S
C38 O30 1.249 . S
C38 O31 1.267 . S
C39 O36 1.249 . S
C39 O37 1.267 . S
Dy40 O44 2.398 . S
Dy40 O45 2.491 . S
Dy40 O46 2.403 . S
Dy40 O47 2.664 . S
Dy40 O51 2.326 . S
Dy40 O55 2.310 . S
Dy40 O56 2.351 1_554 S
C41 O52 1.185 . S
C41 O53 1.355 . S
C42 O44 1.185 . S
C42 O45 1.355 . S
Dy43 O47 2.310 1_556 S
Dy43 O50 2.351 1_556 S
Dy43 O52 2.398 . S
Dy43 O53 2.491 . S
Dy43 O54 2.403 1_556 S
Dy43 O55 2.664 1_556 S
Dy43 O57 2.326 . S
O44 Dy40 2.398 . S
O44 C42 1.185 . S
O45 Dy40 2.491 . S
O45 C42 1.355 . S
O46 Dy40 2.403 . S
O46 C48 1.254 . S
O47 Dy40 2.664 . S
O47 Dy43 2.310 1_554 S
O47 C48 1.268 . S
C48 O46 1.254 . S
C48 O47 1.268 . S
C49 O54 1.254 . S
C49 O55 1.268 . S
O50 Dy43 2.351 1_554 S
O50 C58 1.249 . S
O51 Dy40 2.326 . S
O51 C58 1.267 . S
O52 C41 1.185 . S
O52 Dy43 2.398 . S
O53 C41 1.355 . S
O53 Dy43 2.491 . S
O54 Dy43 2.403 1_554 S
O54 C49 1.254 . S
O55 Dy40 2.310 . S
O55 Dy43 2.664 1_554 S
O55 C49 1.268 . S
O56 Dy40 2.351 1_556 S
O56 C59 1.249 . S
O57 Dy43 2.326 . S
O57 C59 1.267 . S
C58 O50 1.249 . S
C58 O51 1.267 . S
C59 O56 1.249 . S
C59 O57 1.267 . S
Dy60 O64 2.398 . S
Dy60 O65 2.491 . S
Dy60 O66 2.403 . S
Dy60 O67 2.664 . S
Dy60 O71 2.326 . S
Dy60 O75 2.310 . S
Dy60 O76 2.351 . S
C61 O72 1.185 . S
C61 O73 1.355 . S
C62 O64 1.185 . S
C62 O65 1.355 . S
Dy63 O67 2.310 . S
Dy63 O70 2.351 . S
Dy63 O72 2.398 . S
Dy63 O73 2.491 . S
Dy63 O74 2.403 . S
Dy63 O75 2.664 . S
Dy63 O77 2.326 . S
O64 Dy60 2.398 . S
O64 C62 1.185 . S
O65 Dy60 2.491 . S
O65 C62 1.355 . S
O66 Dy60 2.403 . S
O66 C68 1.254 . S
O67 Dy60 2.664 . S
O67 Dy63 2.310 . S
O67 C68 1.268 . S
C68 O66 1.254 . S
C68 O67 1.268 . S
C69 O74 1.254 . S
C69 O75 1.268 . S
O70 Dy63 2.351 . S
O70 C78 1.249 . S
O71 Dy60 2.326 . S
O71 C78 1.267 . S
O72 C61 1.185 . S
O72 Dy63 2.398 . S
O73 C61 1.355 . S
O73 Dy63 2.491 . S
O74 Dy63 2.403 . S
O74 C69 1.254 . S
O75 Dy60 2.310 . S
O75 Dy63 2.664 . S
O75 C69 1.268 . S
O76 Dy60 2.351 . S
O76 C79 1.249 . S
O77 Dy63 2.326 . S
O77 C79 1.267 . S
C78 O70 1.249 . S
C78 O71 1.267 . S
C79 O76 1.249 . S
C79 O77 1.267 . S
Dy80 O84 2.398 . S
Dy80 O85 2.491 . S
Dy80 O86 2.403 . S
Dy80 O87 2.664 . S
Dy80 O91 2.326 . S
Dy80 O95 2.310 . S
Dy80 O96 2.351 . S
C81 O92 1.185 . S
C81 O93 1.355 . S
C82 O84 1.185 . S
C82 O85 1.355 . S
Dy83 O87 2.310 . S
Dy83 O90 2.351 . S
Dy83 O92 2.398 . S
Dy83 O93 2.491 . S
Dy83 O94 2.403 . S
Dy83 O95 2.664 . S
Dy83 O97 2.326 . S
O84 Dy80 2.398 . S
O84 C82 1.185 . S
O85 Dy80 2.491 . S
O85 C82 1.355 . S
O86 Dy80 2.403 . S
O86 C88 1.254 . S
O87 Dy80 2.664 . S
O87 Dy83 2.310 . S
O87 C88 1.268 . S
C88 O86 1.254 . S
C88 O87 1.268 . S
C89 O94 1.254 . S
C89 O95 1.268 . S
O90 Dy83 2.351 . S
O90 C98 1.249 . S
O91 Dy80 2.326 . S
O91 C98 1.267 . S
O92 C81 1.185 . S
O92 Dy83 2.398 . S
O93 C81 1.355 . S
O93 Dy83 2.491 . S
O94 Dy83 2.403 . S
O94 C89 1.254 . S
O95 Dy80 2.310 . S
O95 Dy83 2.664 . S
O95 C89 1.268 . S
O96 Dy80 2.351 . S
O96 C99 1.249 . S
O97 Dy83 2.326 . S
O97 C99 1.267 . S
C98 O90 1.249 . S
C98 O91 1.267 . S
C99 O96 1.249 . S
C99 O97 1.267 . S
Dy100 O104 2.398 . S
Dy100 O105 2.491 . S
Dy100 O106 2.403 . S
Dy100 O107 2.664 . S
Dy100 O111 2.326 . S
Dy100 O115 2.310 . S
Dy100 O116 2.351 . S
C101 O112 1.185 . S
C101 O113 1.355 . S
C102 O104 1.185 . S
C102 O105 1.355 . S
Dy103 O107 2.310 . S
Dy103 O110 2.351 . S
Dy103 O112 2.398 . S
Dy103 O113 2.491 . S
Dy103 O114 2.403 . S
Dy103 O115 2.664 . S
Dy103 O117 2.326 . S
O104 Dy100 2.398 . S
O104 C102 1.185 . S
O105 Dy100 2.491 . S
O105 C102 1.355 . S
O106 Dy100 2.403 . S
O106 C108 1.254 . S
O107 Dy100 2.664 . S
O107 Dy103 2.310 . S
O107 C108 1.268 . S
C108 O106 1.254 . S
C108 O107 1.268 . S
C109 O114 1.254 . S
C109 O115 1.268 . S
O110 Dy103 2.351 . S
O110 C118 1.249 . S
O111 Dy100 2.326 . S
O111 C118 1.267 . S
O112 C101 1.185 . S
O112 Dy103 2.398 . S
O113 C101 1.355 . S
O113 Dy103 2.491 . S
O114 Dy103 2.403 . S
O114 C109 1.254 . S
O115 Dy100 2.310 . S
O115 Dy103 2.664 . S
O115 C109 1.268 . S
O116 Dy100 2.351 . S
O116 C119 1.249 . S
O117 Dy103 2.326 . S
O117 C119 1.267 . S
C118 O110 1.249 . S
C118 O111 1.267 . S
C119 O116 1.249 . S
C119 O117 1.267 . S
Dy120 O124 2.398 . S
Dy120 O125 2.491 . S
Dy120 O126 2.403 . S
Dy120 O127 2.664 1_554 S
Dy120 O131 2.326 . S
Dy120 O135 2.310 . S
Dy120 O136 2.351 1_554 S
C121 O132 1.185 . S
C121 O133 1.355 . S
C122 O124 1.185 . S
C122 O125 1.355 . S
Dy123 O127 2.310 . S
Dy123 O130 2.351 1_556 S
Dy123 O132 2.398 . S
Dy123 O133 2.491 . S
Dy123 O134 2.403 . S
Dy123 O135 2.664 1_556 S
Dy123 O137 2.326 . S
O124 Dy120 2.398 . S
O124 C122 1.185 . S
O125 Dy120 2.491 . S
O125 C122 1.355 . S
O126 Dy120 2.403 . S
O126 C128 1.254 . S
O127 Dy120 2.664 1_556 S
O127 Dy123 2.310 . S
O127 C128 1.268 1_556 S
C128 O126 1.254 . S
C128 O127 1.268 1_554 S
C129 O134 1.254 1_554 S
C129 O135 1.268 . S
O130 Dy123 2.351 1_554 S
O130 C138 1.249 . S
O131 Dy120 2.326 . S
O131 C138 1.267 . S
O132 C121 1.185 . S
O132 Dy123 2.398 . S
O133 C121 1.355 . S
O133 Dy123 2.491 . S
O134 Dy123 2.403 . S
O134 C129 1.254 1_556 S
O135 Dy120 2.310 . S
O135 Dy123 2.664 1_554 S
O135 C129 1.268 . S
O136 Dy120 2.351 1_556 S
O136 C139 1.249 . S
O137 Dy123 2.326 . S
O137 C139 1.267 . S
C138 O130 1.249 . S
C138 O131 1.267 . S
C139 O136 1.249 . S
C139 O137 1.267 . S
Dy140 O144 2.398 . S
Dy140 O145 2.491 . S
Dy140 O146 2.403 . S
Dy140 O147 2.664 1_554 S
Dy140 O151 2.326 . S
Dy140 O155 2.310 . S
Dy140 O156 2.351 1_554 S
C141 O152 1.185 . S
C141 O153 1.355 . S
C142 O144 1.185 . S
C142 O145 1.355 . S
Dy143 O147 2.310 . S
Dy143 O150 2.351 1_556 S
Dy143 O152 2.398 . S
Dy143 O153 2.491 . S
Dy143 O154 2.403 . S
Dy143 O155 2.664 1_556 S
Dy143 O157 2.326 . S
O144 Dy140 2.398 . S
O144 C142 1.185 . S
O145 Dy140 2.491 . S
O145 C142 1.355 . S
O146 Dy140 2.403 . S
O146 C148 1.254 . S
O147 Dy140 2.664 1_556 S
O147 Dy143 2.310 . S
O147 C148 1.268 1_556 S
C148 O146 1.254 . S
C148 O147 1.268 1_554 S
C149 O154 1.254 1_554 S
C149 O155 1.268 . S
O150 Dy143 2.351 1_554 S
O150 C158 1.249 . S
O151 Dy140 2.326 . S
O151 C158 1.267 . S
O152 C141 1.185 . S
O152 Dy143 2.398 . S
O153 C141 1.355 . S
O153 Dy143 2.491 . S
O154 Dy143 2.403 . S
O154 C149 1.254 1_556 S
O155 Dy140 2.310 . S
O155 Dy143 2.664 1_554 S
O155 C149 1.268 . S
O156 Dy140 2.351 1_556 S
O156 C159 1.249 . S
O157 Dy143 2.326 . S
O157 C159 1.267 . S
C158 O150 1.249 . S
C158 O151 1.267 . S
C159 O156 1.249 . S
C159 O157 1.267 . S
Dy160 O164 2.398 . S
Dy160 O165 2.491 . S
Dy160 O166 2.403 . S
Dy160 O167 2.664 1_554 S
Dy160 O171 2.326 . S
Dy160 O175 2.310 . S
Dy160 O176 2.351 1_554 S
C161 O172 1.185 . S
C161 O173 1.355 . S
C162 O164 1.185 . S
C162 O165 1.355 . S
Dy163 O167 2.310 . S
Dy163 O170 2.351 1_556 S
Dy163 O172 2.398 . S
Dy163 O173 2.491 . S
Dy163 O174 2.403 . S
Dy163 O175 2.664 1_556 S
Dy163 O177 2.326 . S
O164 Dy160 2.398 . S
O164 C162 1.185 . S
O165 Dy160 2.491 . S
O165 C162 1.355 . S
O166 Dy160 2.403 . S
O166 C168 1.254 . S
O167 Dy160 2.664 1_556 S
O167 Dy163 2.310 . S
O167 C168 1.268 1_556 S
C168 O166 1.254 . S
C168 O167 1.268 1_554 S
C169 O174 1.254 1_554 S
C169 O175 1.268 . S
O170 Dy163 2.351 1_554 S
O170 C178 1.249 . S
O171 Dy160 2.326 . S
O171 C178 1.267 . S
O172 C161 1.185 . S
O172 Dy163 2.398 . S
O173 C161 1.355 . S
O173 Dy163 2.491 . S
O174 Dy163 2.403 . S
O174 C169 1.254 1_556 S
O175 Dy160 2.310 . S
O175 Dy163 2.664 1_554 S
O175 C169 1.268 . S
O176 Dy160 2.351 1_556 S
O176 C179 1.249 . S
O177 Dy163 2.326 . S
O177 C179 1.267 . S
C178 O170 1.249 . S
C178 O171 1.267 . S
C179 O176 1.249 . S
C179 O177 1.267 . S
Dy180 O184 2.398 . S
Dy180 O185 2.491 . S
Dy180 O186 2.403 . S
Dy180 O187 2.664 . S
Dy180 O191 2.326 . S
Dy180 O195 2.310 . S
Dy180 O196 2.351 . S
C181 O192 1.185 . S
C181 O193 1.355 . S
C182 O184 1.185 . S
C182 O185 1.355 . S
Dy183 O187 2.310 . S
Dy183 O190 2.351 . S
Dy183 O192 2.398 . S
Dy183 O193 2.491 . S
Dy183 O194 2.403 . S
Dy183 O195 2.664 . S
Dy183 O197 2.326 . S
O184 Dy180 2.398 . S
O184 C182 1.185 . S
O185 Dy180 2.491 . S
O185 C182 1.355 . S
O186 Dy180 2.403 . S
O186 C188 1.254 . S
O187 Dy180 2.664 . S
O187 Dy183 2.310 . S
O187 C188 1.268 . S
C188 O186 1.254 . S
C188 O187 1.268 . S
C189 O194 1.254 . S
C189 O195 1.268 . S
O190 Dy183 2.351 . S
O190 C198 1.249 . S
O191 Dy180 2.326 . S
O191 C198 1.267 . S
O192 C181 1.185 . S
O192 Dy183 2.398 . S
O193 C181 1.355 . S
O193 Dy183 2.491 . S
O194 Dy183 2.403 . S
O194 C189 1.254 . S
O195 Dy180 2.310 . S
O195 Dy183 2.664 . S
O195 C189 1.268 . S
O196 Dy180 2.351 . S
O196 C199 1.249 . S
O197 Dy183 2.326 . S
O197 C199 1.267 . S
C198 O190 1.249 . S
C198 O191 1.267 . S
C199 O196 1.249 . S
C199 O197 1.267 . S
Dy200 O204 2.398 . S
Dy200 O205 2.491 . S
Dy200 O206 2.403 . S
Dy200 O207 2.664 . S
Dy200 O211 2.326 . S
Dy200 O215 2.310 . S
Dy200 O216 2.351 . S
C201 O212 1.185 . S
C201 O213 1.355 . S
C202 O204 1.185 . S
C202 O205 1.355 . S
Dy203 O207 2.310 . S
Dy203 O210 2.351 . S
Dy203 O212 2.398 . S
Dy203 O213 2.491 . S
Dy203 O214 2.403 . S
Dy203 O215 2.664 . S
Dy203 O217 2.326 . S
O204 Dy200 2.398 . S
O204 C202 1.185 . S
O205 Dy200 2.491 . S
O205 C202 1.355 . S
O206 Dy200 2.403 . S
O206 C208 1.254 . S
O207 Dy200 2.664 . S
O207 Dy203 2.310 . S
O207 C208 1.268 . S
C208 O206 1.254 . S
C208 O207 1.268 . S
C209 O214 1.254 . S
C209 O215 1.268 . S
O210 Dy203 2.351 . S
O210 C218 1.249 . S
O211 Dy200 2.326 . S
O211 C218 1.267 . S
O212 C201 1.185 . S
O212 Dy203 2.398 . S
O213 C201 1.355 . S
O213 Dy203 2.491 . S
O214 Dy203 2.403 . S
O214 C209 1.254 . S
O215 Dy200 2.310 . S
O215 Dy203 2.664 . S
O215 C209 1.268 . S
O216 Dy200 2.351 . S
O216 C219 1.249 . S
O217 Dy203 2.326 . S
O217 C219 1.267 . S
C218 O210 1.249 . S
C218 O211 1.267 . S
C219 O216 1.249 . S
C219 O217 1.267 . S
Dy220 O224 2.398 . S
Dy220 O225 2.491 . S
Dy220 O226 2.403 . S
Dy220 O227 2.664 . S
Dy220 O231 2.326 . S
Dy220 O235 2.310 . S
Dy220 O236 2.351 . S
C221 O232 1.185 . S
C221 O233 1.355 . S
C222 O224 1.185 . S
C222 O225 1.355 . S
Dy223 O227 2.310 . S
Dy223 O230 2.351 . S
Dy223 O232 2.398 . S
Dy223 O233 2.491 . S
Dy223 O234 2.403 . S
Dy223 O235 2.664 . S
Dy223 O237 2.326 . S
O224 Dy220 2.398 . S
O224 C222 1.185 . S
O225 Dy220 2.491 . S
O225 C222 1.355 . S
O226 Dy220 2.403 . S
O226 C228 1.254 . S
O227 Dy220 2.664 . S
O227 Dy223 2.310 . S
O227 C228 1.268 . S
C228 O226 1.254 . S
C228 O227 1.268 . S
C229 O234 1.254 . S
C229 O235 1.268 . S
O230 Dy223 2.351 . S
O230 C238 1.249 . S
O231 Dy220 2.326 . S
O231 C238 1.267 . S
O232 C221 1.185 . S
O232 Dy223 2.398 . S
O233 C221 1.355 . S
O233 Dy223 2.491 . S
O234 Dy223 2.403 . S
O234 C229 1.254 . S
O235 Dy220 2.310 . S
O235 Dy223 2.664 . S
O235 C229 1.268 . S
O236 Dy220 2.351 . S
O236 C239 1.249 . S
O237 Dy223 2.326 . S
O237 C239 1.267 . S
C238 O230 1.249 . S
C238 O231 1.267 . S
C239 O236 1.249 . S
C239 O237 1.267 . S
Dy240 O244 2.398 . S
Dy240 O245 2.491 . S
Dy240 O246 2.403 . S
Dy240 O247 2.664 . S
Dy240 O251 2.326 . S
Dy240 O255 2.310 . S
Dy240 O256 2.351 . S
C241 O252 1.185 . S
C241 O253 1.355 . S
C242 O244 1.185 . S
C242 O245 1.355 . S
Dy243 O247 2.310 . S
Dy243 O250 2.351 . S
Dy243 O252 2.398 . S
Dy243 O253 2.491 . S
Dy243 O254 2.403 . S
Dy243 O255 2.664 . S
Dy243 O257 2.326 . S
O244 Dy240 2.398 . S
O244 C242 1.185 . S
O245 Dy240 2.491 . S
O245 C242 1.355 . S
O246 Dy240 2.403 . S
O246 C248 1.254 . S
O247 Dy240 2.664 . S
O247 Dy243 2.310 . S
O247 C248 1.268 . S
C248 O246 1.254 . S
C248 O247 1.268 . S
C249 O254 1.254 . S
C249 O255 1.268 . S
O250 Dy243 2.351 . S
O250 C258 1.249 . S
O251 Dy240 2.326 . S
O251 C258 1.267 . S
O252 C241 1.185 . S
O252 Dy243 2.398 . S
O253 C241 1.355 . S
O253 Dy243 2.491 . S
O254 Dy243 2.403 . S
O254 C249 1.254 . S
O255 Dy240 2.310 . S
O255 Dy243 2.664 . S
O255 C249 1.268 . S
O256 Dy240 2.351 . S
O256 C259 1.249 . S
O257 Dy243 2.326 . S
O257 C259 1.267 . S
C258 O250 1.249 . S
C258 O251 1.267 . S
C259 O256 1.249 . S
C259 O257 1.267 . S
Dy260 O264 2.398 . S
Dy260 O265 2.491 . S
Dy260 O266 2.403 . S
Dy260 O267 2.664 . S
Dy260 O271 2.326 . S
Dy260 O275 2.310 . S
Dy260 O276 2.351 . S
C261 O272 1.185 . S
C261 O273 1.355 . S
C262 O264 1.185 . S
C262 O265 1.355 . S
Dy263 O267 2.310 . S
Dy263 O270 2.351 . S
Dy263 O272 2.398 . S
Dy263 O273 2.491 . S
Dy263 O274 2.403 . S
Dy263 O275 2.664 . S
Dy263 O277 2.326 . S
O264 Dy260 2.398 . S
O264 C262 1.185 . S
O265 Dy260 2.491 . S
O265 C262 1.355 . S
O266 Dy260 2.403 . S
O266 C268 1.254 . S
O267 Dy260 2.664 . S
O267 Dy263 2.310 . S
O267 C268 1.268 . S
C268 O266 1.254 . S
C268 O267 1.268 . S
C269 O274 1.254 . S
C269 O275 1.268 . S
O270 Dy263 2.351 . S
O270 C278 1.249 . S
O271 Dy260 2.326 . S
O271 C278 1.267 . S
O272 C261 1.185 . S
O272 Dy263 2.398 . S
O273 C261 1.355 . S
O273 Dy263 2.491 . S
O274 Dy263 2.403 . S
O274 C269 1.254 . S
O275 Dy260 2.310 . S
O275 Dy263 2.664 . S
O275 C269 1.268 . S
O276 Dy260 2.351 . S
O276 C279 1.249 . S
O277 Dy263 2.326 . S
O277 C279 1.267 . S
C278 O270 1.249 . S
C278 O271 1.267 . S
C279 O276 1.249 . S
C279 O277 1.267 . S
Dy280 O284 2.398 . S
Dy280 O285 2.491 . S
Dy280 O286 2.403 . S
Dy280 O287 2.664 . S
Dy280 O291 2.326 . S
Dy280 O295 2.310 . S
Dy280 O296 2.351 . S
C281 O292 1.185 . S
C281 O293 1.355 . S
C282 O284 1.185 . S
C282 O285 1.355 . S
Dy283 O287 2.310 . S
Dy283 O290 2.351 . S
Dy283 O292 2.398 . S
Dy283 O293 2.491 . S
Dy283 O294 2.403 . S
Dy283 O295 2.664 . S
Dy283 O297 2.326 . S
O284 Dy280 2.398 . S
O284 C282 1.185 . S
O285 Dy280 2.491 . S
O285 C282 1.355 . S
O286 Dy280 2.403 . S
O286 C288 1.254 . S
O287 Dy280 2.664 . S
O287 Dy283 2.310 . S
O287 C288 1.268 . S
C288 O286 1.254 . S
C288 O287 1.268 . S
C289 O294 1.254 . S
C289 O295 1.268 . S
O290 Dy283 2.351 . S
O290 C298 1.249 . S
O291 Dy280 2.326 . S
O291 C298 1.267 . S
O292 C281 1.185 . S
O292 Dy283 2.398 . S
O293 C281 1.355 . S
O293 Dy283 2.491 . S
O294 Dy283 2.403 . S
O294 C289 1.254 . S
O295 Dy280 2.310 . S
O295 Dy283 2.664 . S
O295 C289 1.268 . S
O296 Dy280 2.351 . S
O296 C299 1.249 . S
O297 Dy283 2.326 . S
O297 C299 1.267 . S
C298 O290 1.249 . S
C298 O291 1.267 . S
C299 O296 1.249 . S
C299 O297 1.267 . S
Dy300 O304 2.398 . S
Dy300 O305 2.491 . S
Dy300 O306 2.403 . S
Dy300 O307 2.664 . S
Dy300 O311 2.326 . S
Dy300 O315 2.310 . S
Dy300 O316 2.351 . S
C301 O312 1.185 1_554 S
C301 O313 1.355 1_554 S
C302 O304 1.185 . S
C302 O305 1.355 . S
Dy303 O307 2.310 . S
Dy303 O310 2.351 . S
Dy303 O312 2.398 . S
Dy303 O313 2.491 . S
Dy303 O314 2.403 . S
Dy303 O315 2.664 . S
Dy303 O317 2.326 . S
O304 Dy300 2.398 . S
O304 C302 1.185 . S
O305 Dy300 2.491 . S
O305 C302 1.355 . S
O306 Dy300 2.403 . S
O306 C308 1.254 . S
O307 Dy300 2.664 . S
O307 Dy303 2.310 . S
O307 C308 1.268 . S
C308 O306 1.254 . S
C308 O307 1.268 . S
C309 O314 1.254 . S
C309 O315 1.268 . S
O310 Dy303 2.351 . S
O310 C318 1.249 . S
O311 Dy300 2.326 . S
O311 C318 1.267 . S
O312 C301 1.185 1_556 S
O312 Dy303 2.398 . S
O313 C301 1.355 1_556 S
O313 Dy303 2.491 . S
O314 Dy303 2.403 . S
O314 C309 1.254 . S
O315 Dy300 2.310 . S
O315 Dy303 2.664 . S
O315 C309 1.268 . S
O316 Dy300 2.351 . S
O316 C319 1.249 . S
O317 Dy303 2.326 . S
O317 C319 1.267 . S
C318 O310 1.249 . S
C318 O311 1.267 . S
C319 O316 1.249 . S
C319 O317 1.267 . S
Dy320 O324 2.398 . S
Dy320 O325 2.491 . S
Dy320 O326 2.403 . S
Dy320 O327 2.664 . S
Dy320 O331 2.326 . S
Dy320 O335 2.310 . S
Dy320 O336 2.351 . S
C321 O332 1.185 1_554 S
C321 O333 1.355 1_554 S
C322 O324 1.185 . S
C322 O325 1.355 . S
Dy323 O327 2.310 . S
Dy323 O330 2.351 . S
Dy323 O332 2.398 . S
Dy323 O333 2.491 . S
Dy323 O334 2.403 . S
Dy323 O335 2.664 . S
Dy323 O337 2.326 . S
O324 Dy320 2.398 . S
O324 C322 1.185 . S
O325 Dy320 2.491 . S
O325 C322 1.355 . S
O326 Dy320 2.403 . S
O326 C328 1.254 . S
O327 Dy320 2.664 . S
O327 Dy323 2.310 . S
O327 C328 1.268 . S
C328 O326 1.254 . S
C328 O327 1.268 . S
C329 O334 1.254 . S
C329 O335 1.268 . S
O330 Dy323 2.351 . S
O330 C338 1.249 . S
O331 Dy320 2.326 . S
O331 C338 1.267 . S
O332 C321 1.185 1_556 S
O332 Dy323 2.398 . S
O333 C321 1.355 1_556 S
O333 Dy323 2.491 . S
O334 Dy323 2.403 . S
O334 C329 1.254 . S
O335 Dy320 2.310 . S
O335 Dy323 2.664 . S
O335 C329 1.268 . S
O336 Dy320 2.351 . S
O336 C339 1.249 . S
O337 Dy323 2.326 . S
O337 C339 1.267 . S
C338 O330 1.249 . S
C338 O331 1.267 . S
C339 O336 1.249 . S
C339 O337 1.267 . S
Dy340 O344 2.398 . S
Dy340 O345 2.491 . S
Dy340 O346 2.403 . S
Dy340 O347 2.664 . S
Dy340 O351 2.326 . S
Dy340 O355 2.310 . S
Dy340 O356 2.351 . S
C341 O352 1.185 1_554 S
C341 O353 1.355 1_554 S
C342 O344 1.185 . S
C342 O345 1.355 . S
Dy343 O347 2.310 . S
Dy343 O350 2.351 . S
Dy343 O352 2.398 . S
Dy343 O353 2.491 . S
Dy343 O354 2.403 . S
Dy343 O355 2.664 . S
Dy343 O357 2.326 . S
O344 Dy340 2.398 . S
O344 C342 1.185 . S
O345 Dy340 2.491 . S
O345 C342 1.355 . S
O346 Dy340 2.403 . S
O346 C348 1.254 . S
O347 Dy340 2.664 . S
O347 Dy343 2.310 . S
O347 C348 1.268 . S
C348 O346 1.254 . S
C348 O347 1.268 . S
C349 O354 1.254 . S
C349 O355 1.268 . S
O350 Dy343 2.351 . S
O350 C358 1.249 . S
O351 Dy340 2.326 . S
O351 C358 1.267 . S
O352 C341 1.185 1_556 S
O352 Dy343 2.398 . S
O353 C341 1.355 1_556 S
O353 Dy343 2.491 . S
O354 Dy343 2.403 . S
O354 C349 1.254 . S
O355 Dy340 2.310 . S
O355 Dy343 2.664 . S
O355 C349 1.268 . S
O356 Dy340 2.351 . S
O356 C359 1.249 . S
O357 Dy343 2.326 . S
O357 C359 1.267 . S
C358 O350 1.249 . S
C358 O351 1.267 . S
C359 O356 1.249 . S
C359 O357 1.267 . S
Dy360 O364 2.398 . S
Dy360 O365 2.491 . S
Dy360 O366 2.403 . S
Dy360 O367 2.664 . S
Dy360 O371 2.326 . S
Dy360 O375 2.310 . S
Dy360 O376 2.351 . S
C361 O372 1.185 . S
C361 O373 1.355 . S
C362 O364 1.185 . S
C362 O365 1.355 . S
Dy363 O367 2.310 . S
Dy363 O370 2.351 . S
Dy363 O372 2.398 . S
Dy363 O373 2.491 . S
Dy363 O374 2.403 . S
Dy363 O375 2.664 . S
Dy363 O377 2.326 . S
O364 Dy360 2.398 . S
O364 C362 1.185 . S
O365 Dy360 2.491 . S
O365 C362 1.355 . S
O366 Dy360 2.403 . S
O366 C368 1.254 . S
O367 Dy360 2.664 . S
O367 Dy363 2.310 . S
O367 C368 1.268 . S
C368 O366 1.254 . S
C368 O367 1.268 . S
C369 O374 1.254 . S
C369 O375 1.268 . S
O370 Dy363 2.351 . S
O370 C378 1.249 . S
O371 Dy360 2.326 . S
O371 C378 1.267 . S
O372 C361 1.185 . S
O372 Dy363 2.398 . S
O373 C361 1.355 . S
O373 Dy363 2.491 . S
O374 Dy363 2.403 . S
O374 C369 1.254 . S
O375 Dy360 2.310 . S
O375 Dy363 2.664 . S
O375 C369 1.268 . S
O376 Dy360 2.351 . S
O376 C379 1.249 . S
O377 Dy363 2.326 . S
O377 C379 1.267 . S
C378 O370 1.249 . S
C378 O371 1.267 . S
C379 O376 1.249 . S
C379 O377 1.267 . S
Dy380 O384 2.398 . S
Dy380 O385 2.491 . S
Dy380 O386 2.403 . S
Dy380 O387 2.664 . S
Dy380 O391 2.326 . S
Dy380 O395 2.310 . S
Dy380 O396 2.351 . S
C381 O392 1.185 . S
C381 O393 1.355 . S
C382 O384 1.185 . S
C382 O385 1.355 . S
Dy383 O387 2.310 . S
Dy383 O390 2.351 . S
Dy383 O392 2.398 . S
Dy383 O393 2.491 . S
Dy383 O394 2.403 . S
Dy383 O395 2.664 . S
Dy383 O397 2.326 . S
O384 Dy380 2.398 . S
O384 C382 1.185 . S
O385 Dy380 2.491 . S
O385 C382 1.355 . S
O386 Dy380 2.403 . S
O386 C388 1.254 . S
O387 Dy380 2.664 . S
O387 Dy383 2.310 . S
O387 C388 1.268 . S
C388 O386 1.254 . S
C388 O387 1.268 . S
C389 O394 1.254 . S
C389 O395 1.268 . S
O390 Dy383 2.351 . S
O390 C398 1.249 . S
O391 Dy380 2.326 . S
O391 C398 1.267 . S
O392 C381 1.185 . S
O392 Dy383 2.398 . S
O393 C381 1.355 . S
O393 Dy383 2.491 . S
O394 Dy383 2.403 . S
O394 C389 1.254 . S
O395 Dy380 2.310 . S
O395 Dy383 2.664 . S
O395 C389 1.268 . S
O396 Dy380 2.351 . S
O396 C399 1.249 . S
O397 Dy383 2.326 . S
O397 C399 1.267 . S
C398 O390 1.249 . S
C398 O391 1.267 . S
C399 O396 1.249 . S
C399 O397 1.267 . S
Dy400 O404 2.398 . S
Dy400 O405 2.491 . S
Dy400 O406 2.403 . S
Dy400 O407 2.664 . S
Dy400 O411 2.326 . S
Dy400 O415 2.310 . S
Dy400 O416 2.351 . S
C401 O412 1.185 . S
C401 O413 1.355 . S
C402 O404 1.185 . S
C402 O405 1.355 . S
Dy403 O407 2.310 . S
Dy403 O410 2.351 . S
Dy403 O412 2.398 . S
Dy403 O413 2.491 . S
Dy403 O414 2.403 . S
Dy403 O415 2.664 . S
Dy403 O417 2.326 . S
O404 Dy400 2.398 . S
O404 C402 1.185 . S
O405 Dy400 2.491 . S
O405 C402 1.355 . S
O406 Dy400 2.403 . S
O406 C408 1.254 . S
O407 Dy400 2.664 . S
O407 Dy403 2.310 . S
O407 C408 1.268 . S
C408 O406 1.254 . S
C408 O407 1.268 . S
C409 O414 1.254 . S
C409 O415 1.268 . S
O410 Dy403 2.351 . S
O410 C418 1.249 . S
O411 Dy400 2.326 . S
O411 C418 1.267 . S
O412 C401 1.185 . S
O412 Dy403 2.398 . S
O413 C401 1.355 . S
O413 Dy403 2.491 . S
O414 Dy403 2.403 . S
O414 C409 1.254 . S
O415 Dy400 2.310 . S
O415 Dy403 2.664 . S
O415 C409 1.268 . S
O416 Dy400 2.351 . S
O416 C419 1.249 . S
O417 Dy403 2.326 . S
O417 C419 1.267 . S
C418 O410 1.249 . S
C418 O411 1.267 . S
C419 O416 1.249 . S
C419 O417 1.267 . S
Dy420 O424 2.398 . S
Dy420 O425 2.491 . S
Dy420 O426 2.403 . S
Dy420 O427 2.664 . S
Dy420 O431 2.326 . S
Dy420 O435 2.310 . S
Dy420 O436 2.351 . S
C421 O432 1.185 . S
C421 O433 1.355 . S
C422 O424 1.185 . S
C422 O425 1.355 . S
Dy423 O427 2.310 . S
Dy423 O430 2.351 . S
Dy423 O432 2.398 1_556 S
Dy423 O433 2.491 1_556 S
Dy423 O434 2.403 . S
Dy423 O435 2.664 . S
Dy423 O437 2.326 . S
O424 Dy420 2.398 . S
O424 C422 1.185 . S
O425 Dy420 2.491 . S
O425 C422 1.355 . S
O426 Dy420 2.403 . S
O426 C428 1.254 . S
O427 Dy420 2.664 . S
O427 Dy423 2.310 . S
O427 C428 1.268 . S
C428 O426 1.254 . S
C428 O427 1.268 . S
C429 O434 1.254 . S
C429 O435 1.268 . S
O430 Dy423 2.351 . S
O430 C438 1.249 . S
O431 Dy420 2.326 . S
O431 C438 1.267 . S
O432 C421 1.185 . S
O432 Dy423 2.398 1_554 S
O433 C421 1.355 . S
O433 Dy423 2.491 1_554 S
O434 Dy423 2.403 . S
O434 C429 1.254 . S
O435 Dy420 2.310 . S
O435 Dy423 2.664 . S
O435 C429 1.268 . S
O436 Dy420 2.351 . S
O436 C439 1.249 . S
O437 Dy423 2.326 . S
O437 C439 1.267 . S
C438 O430 1.249 . S
C438 O431 1.267 . S
C439 O436 1.249 . S
C439 O437 1.267 . S
Dy440 O444 2.398 . S
Dy440 O445 2.491 . S
Dy440 O446 2.403 . S
Dy440 O447 2.664 . S
Dy440 O451 2.326 . S
Dy440 O455 2.310 . S
Dy440 O456 2.351 . S
C441 O452 1.185 . S
C441 O453 1.355 . S
C442 O444 1.185 . S
C442 O445 1.355 . S
Dy443 O447 2.310 . S
Dy443 O450 2.351 . S
Dy443 O452 2.398 1_556 S
Dy443 O453 2.491 1_556 S
Dy443 O454 2.403 . S
Dy443 O455 2.664 . S
Dy443 O457 2.326 . S
O444 Dy440 2.398 . S
O444 C442 1.185 . S
O445 Dy440 2.491 . S
O445 C442 1.355 . S
O446 Dy440 2.403 . S
O446 C448 1.254 . S
O447 Dy440 2.664 . S
O447 Dy443 2.310 . S
O447 C448 1.268 . S
C448 O446 1.254 . S
C448 O447 1.268 . S
C449 O454 1.254 . S
C449 O455 1.268 . S
O450 Dy443 2.351 . S
O450 C458 1.249 . S
O451 Dy440 2.326 . S
O451 C458 1.267 . S
O452 C441 1.185 . S
O452 Dy443 2.398 1_554 S
O453 C441 1.355 . S
O453 Dy443 2.491 1_554 S
O454 Dy443 2.403 . S
O454 C449 1.254 . S
O455 Dy440 2.310 . S
O455 Dy443 2.664 . S
O455 C449 1.268 . S
O456 Dy440 2.351 . S
O456 C459 1.249 . S
O457 Dy443 2.326 . S
O457 C459 1.267 . S
C458 O450 1.249 . S
C458 O451 1.267 . S
C459 O456 1.249 . S
C459 O457 1.267 . S
Dy460 O464 2.398 . S
Dy460 O465 2.491 . S
Dy460 O466 2.403 . S
Dy460 O467 2.664 . S
Dy460 O471 2.326 . S
Dy460 O475 2.310 . S
Dy460 O476 2.351 . S
C461 O472 1.185 . S
C461 O473 1.355 . S
C462 O464 1.185 . S
C462 O465 1.355 . S
Dy463 O467 2.310 . S
Dy463 O470 2.351 . S
Dy463 O472 2.398 1_556 S
Dy463 O473 2.491 1_556 S
Dy463 O474 2.403 . S
Dy463 O475 2.664 . S
Dy463 O477 2.326 . S
O464 Dy460 2.398 . S
O464 C462 1.185 . S
O465 Dy460 2.491 . S
O465 C462 1.355 . S
O466 Dy460 2.403 . S
O466 C468 1.254 . S
O467 Dy460 2.664 . S
O467 Dy463 2.310 . S
O467 C468 1.268 . S
C468 O466 1.254 . S
C468 O467 1.268 . S
C469 O474 1.254 . S
C469 O475 1.268 . S
O470 Dy463 2.351 . S
O470 C478 1.249 . S
O471 Dy460 2.326 . S
O471 C478 1.267 . S
O472 C461 1.185 . S
O472 Dy463 2.398 1_554 S
O473 C461 1.355 . S
O473 Dy463 2.491 1_554 S
O474 Dy463 2.403 . S
O474 C469 1.254 . S
O475 Dy460 2.310 . S
O475 Dy463 2.664 . S
O475 C469 1.268 . S
O476 Dy460 2.351 . S
O476 C479 1.249 . S
O477 Dy463 2.326 . S
O477 C479 1.267 . S
C478 O470 1.249 . S
C478 O471 1.267 . S
C479 O476 1.249 . S
C479 O477 1.267 . S
Dy480 O484 2.398 . S
Dy480 O485 2.491 . S
Dy480 O486 2.403 . S
Dy480 O487 2.664 . S
Dy480 O491 2.326 . S
Dy480 O495 2.310 . S
Dy480 O496 2.351 . S
C481 O492 1.185 . S
C481 O493 1.355 . S
C482 O484 1.185 . S
C482 O485 1.355 . S
Dy483 O487 2.310 . S
Dy483 O490 2.351 . S
Dy483 O492 2.398 . S
Dy483 O493 2.491 . S
Dy483 O494 2.403 . S
Dy483 O495 2.664 . S
Dy483 O497 2.326 . S
O484 Dy480 2.398 . S
O484 C482 1.185 . S
O485 Dy480 2.491 . S
O485 C482 1.355 . S
O486 Dy480 2.403 . S
O486 C488 1.254 . S
O487 Dy480 2.664 . S
O487 Dy483 2.310 . S
O487 C488 1.268 . S
C488 O486 1.254 . S
C488 O487 1.268 . S
C489 O494 1.254 . S
C489 O495 1.268 . S
O490 Dy483 2.351 . S
O490 C498 1.249 . S
O491 Dy480 2.326 . S
O491 C498 1.267 . S
O492 C481 1.185 . S
O492 Dy483 2.398 . S
O493 C481 1.355 . S
O493 Dy483 2.491 . S
O494 Dy483 2.403 . S
O494 C489 1.254 . S
O495 Dy480 2.310 . S
O495 Dy483 2.664 . S
O495 C489 1.268 . S
O496 Dy480 2.351 . S
O496 C499 1.249 . S
O497 Dy483 2.326 . S
O497 C499 1.267 . S
C498 O490 1.249 . S
C498 O491 1.267 . S
C499 O496 1.249 . S
C499 O497 1.267 . S
Dy500 O504 2.398 . S
Dy500 O505 2.491 . S
Dy500 O506 2.403 . S
Dy500 O507 2.664 . S
Dy500 O511 2.326 . S
Dy500 O515 2.310 . S
Dy500 O516 2.351 . S
C501 O512 1.185 . S
C501 O513 1.355 . S
C502 O504 1.185 . S
C502 O505 1.355 . S
Dy503 O507 2.310 . S
Dy503 O510 2.351 . S
Dy503 O512 2.398 . S
Dy503 O513 2.491 . S
Dy503 O514 2.403 . S
Dy503 O515 2.664 . S
Dy503 O517 2.326 . S
O504 Dy500 2.398 . S
O504 C502 1.185 . S
O505 Dy500 2.491 . S
O505 C502 1.355 . S
O506 Dy500 2.403 . S
O506 C508 1.254 . S
O507 Dy500 2.664 . S
O507 Dy503 2.310 . S
O507 C508 1.268 . S
C508 O506 1.254 . S
C508 O507 1.268 . S
C509 O514 1.254 . S
C509 O515 1.268 . S
O510 Dy503 2.351 . S
O510 C518 1.249 . S
O511 Dy500 2.326 . S
O511 C518 1.267 . S
O512 C501 1.185 . S
O512 Dy503 2.398 . S
O513 C501 1.355 . S
O513 Dy503 2.491 . S
O514 Dy503 2.403 . S
O514 C509 1.254 . S
O515 Dy500 2.310 . S
O515 Dy503 2.664 . S
O515 C509 1.268 . S
O516 Dy500 2.351 . S
O516 C519 1.249 . S
O517 Dy503 2.326 . S
O517 C519 1.267 . S
C518 O510 1.249 . S
C518 O511 1.267 . S
C519 O516 1.249 . S
C519 O517 1.267 . S
Dy520 O524 2.398 . S
Dy520 O525 2.491 . S
Dy520 O526 2.403 . S
Dy520 O527 2.664 . S
Dy520 O531 2.326 . S
Dy520 O535 2.310 . S
Dy520 O536 2.351 . S
C521 O532 1.185 . S
C521 O533 1.355 . S
C522 O524 1.185 . S
C522 O525 1.355 . S
Dy523 O527 2.310 . S
Dy523 O530 2.351 . S
Dy523 O532 2.398 . S
Dy523 O533 2.491 . S
Dy523 O534 2.403 . S
Dy523 O535 2.664 . S
Dy523 O537 2.326 . S
O524 Dy520 2.398 . S
O524 C522 1.185 . S
O525 Dy520 2.491 . S
O525 C522 1.355 . S
O526 Dy520 2.403 . S
O526 C528 1.254 . S
O527 Dy520 2.664 . S
O527 Dy523 2.310 . S
O527 C528 1.268 . S
C528 O526 1.254 . S
C528 O527 1.268 . S
C529 O534 1.254 . S
C529 O535 1.268 . S
O530 Dy523 2.351 . S
O530 C538 1.249 . S
O531 Dy520 2.326 . S
O531 C538 1.267 . S
O532 C521 1.185 . S
O532 Dy523 2.398 . S
O533 C521 1.355 . S
O533 Dy523 2.491 . S
O534 Dy523 2.403 . S
O534 C529 1.254 . S
O535 Dy520 2.310 . S
O535 Dy523 2.664 . S
O535 C529 1.268 . S
O536 Dy520 2.351 . S
O536 C539 1.249 . S
O537 Dy523 2.326 . S
O537 C539 1.267 . S
C538 O530 1.249 . S
C538 O531 1.267 . S
C539 O536 1.249 . S
C539 O537 1.267 . S
Dy540 O544 2.398 . S
Dy540 O545 2.491 . S
Dy540 O546 2.403 . S
Dy540 O547 2.664 . S
Dy540 O551 2.326 . S
Dy540 O555 2.310 . S
Dy540 O556 2.351 . S
C541 O552 1.185 . S
C541 O553 1.355 . S
C542 O544 1.185 . S
C542 O545 1.355 . S
Dy543 O547 2.310 . S
Dy543 O550 2.351 . S
Dy543 O552 2.398 . S
Dy543 O553 2.491 . S
Dy543 O554 2.403 . S
Dy543 O555 2.664 . S
Dy543 O557 2.326 . S
O544 Dy540 2.398 . S
O544 C542 1.185 . S
O545 Dy540 2.491 . S
O545 C542 1.355 . S
O546 Dy540 2.403 . S
O546 C548 1.254 . S
O547 Dy540 2.664 . S
O547 Dy543 2.310 . S
O547 C548 1.268 . S
C548 O546 1.254 . S
C548 O547 1.268 . S
C549 O554 1.254 . S
C549 O555 1.268 . S
O550 Dy543 2.351 . S
O550 C558 1.249 . S
O551 Dy540 2.326 . S
O551 C558 1.267 . S
O552 C541 1.185 . S
O552 Dy543 2.398 . S
O553 C541 1.355 . S
O553 Dy543 2.491 . S
O554 Dy543 2.403 . S
O554 C549 1.254 . S
O555 Dy540 2.310 . S
O555 Dy543 2.664 . S
O555 C549 1.268 . S
O556 Dy540 2.351 . S
O556 C559 1.249 . S
O557 Dy543 2.326 . S
O557 C559 1.267 . S
C558 O550 1.249 . S
C558 O551 1.267 . S
C559 O556 1.249 . S
C559 O557 1.267 . S
Dy560 O564 2.398 . S
Dy560 O565 2.491 . S
Dy560 O566 2.403 . S
Dy560 O567 2.664 . S
Dy560 O571 2.326 . S
Dy560 O575 2.310 . S
Dy560 O576 2.351 . S
C561 O572 1.185 . S
C561 O573 1.355 . S
C562 O564 1.185 . S
C562 O565 1.355 . S
Dy563 O567 2.310 . S
Dy563 O570 2.351 . S
Dy563 O572 2.398 . S
Dy563 O573 2.491 . S
Dy563 O574 2.403 . S
Dy563 O575 2.664 . S
Dy563 O577 2.326 . S
O564 Dy560 2.398 . S
O564 C562 1.185 . S
O565 Dy560 2.491 . S
O565 C562 1.355 . S
O566 Dy560 2.403 . S
O566 C568 1.254 . S
O567 Dy560 2.664 . S
O567 Dy563 2.310 . S
O567 C568 1.268 . S
C568 O566 1.254 . S
C568 O567 1.268 . S
C569 O574 1.254 . S
C569 O575 1.268 . S
O570 Dy563 2.351 . S
O570 C578 1.249 . S
O571 Dy560 2.326 . S
O571 C578 1.267 . S
O572 C561 1.185 . S
O572 Dy563 2.398 . S
O573 C561 1.355 . S
O573 Dy563 2.491 . S
O574 Dy563 2.403 . S
O574 C569 1.254 . S
O575 Dy560 2.310 . S
O575 Dy563 2.664 . S
O575 C569 1.268 . S
O576 Dy560 2.351 . S
O576 C579 1.249 . S
O577 Dy563 2.326 . S
O577 C579 1.267 . S
C578 O570 1.249 . S
C578 O571 1.267 . S
C579 O576 1.249 . S
C579 O577 1.267 . S
Dy580 O584 2.398 . S
Dy580 O585 2.491 . S
Dy580 O586 2.403 . S
Dy580 O587 2.664 . S
Dy580 O591 2.326 . S
Dy580 O595 2.310 . S
Dy580 O596 2.351 . S
C581 O592 1.185 . S
C581 O593 1.355 . S
C582 O584 1.185 . S
C582 O585 1.355 . S
Dy583 O587 2.310 . S
Dy583 O590 2.351 . S
Dy583 O592 2.398 . S
Dy583 O593 2.491 . S
Dy583 O594 2.403 . S
Dy583 O595 2.664 . S
Dy583 O597 2.326 . S
O584 Dy580 2.398 . S
O584 C582 1.185 . S
O585 Dy580 2.491 . S
O585 C582 1.355 . S
O586 Dy580 2.403 . S
O586 C588 1.254 . S
O587 Dy580 2.664 . S
O587 Dy583 2.310 . S
O587 C588 1.268 . S
C588 O586 1.254 . S
C588 O587 1.268 . S
C589 O594 1.254 . S
C589 O595 1.268 . S
O590 Dy583 2.351 . S
O590 C598 1.249 . S
O591 Dy580 2.326 . S
O591 C598 1.267 . S
O592 C581 1.185 . S
O592 Dy583 2.398 . S
O593 C581 1.355 . S
O593 Dy583 2.491 . S
O594 Dy583 2.403 . S
O594 C589 1.254 . S
O595 Dy580 2.310 . S
O595 Dy583 2.664 . S
O595 C589 1.268 . S
O596 Dy580 2.351 . S
O596 C599 1.249 . S
O597 Dy583 2.326 . S
O597 C599 1.267 . S
C598 O590 1.249 . S
C598 O591 1.267 . S
C599 O596 1.249 . S
C599 O597 1.267 . S
Dy600 O604 2.398 . S
Dy600 O605 2.491 . S
Dy600 O606 2.403 . S
Dy600 O607 2.664 . S
Dy600 O611 2.326 . S
Dy600 O615 2.310 . S
Dy600 O616 2.351 . S
C601 O612 1.185 . S
C601 O613 1.355 . S
C602 O604 1.185 . S
C602 O605 1.355 . S
Dy603 O607 2.310 . S
Dy603 O610 2.351 . S
Dy603 O612 2.398 . S
Dy603 O613 2.491 . S
Dy603 O614 2.403 . S
Dy603 O615 2.664 . S
Dy603 O617 2.326 . S
O604 Dy600 2.398 . S
O604 C602 1.185 . S
O605 Dy600 2.491 . S
O605 C602 1.355 . S
O606 Dy600 2.403 . S
O606 C608 1.254 . S
O607 Dy600 2.664 . S
O607 Dy603 2.310 . S
O607 C608 1.268 . S
C608 O606 1.254 . S
C608 O607 1.268 . S
C609 O614 1.254 . S
C609 O615 1.268 . S
O610 Dy603 2.351 . S
O610 C618 1.249 . S
O611 Dy600 2.326 . S
O611 C618 1.267 . S
O612 C601 1.185 . S
O612 Dy603 2.398 . S
O613 C601 1.355 . S
O613 Dy603 2.491 . S
O614 Dy603 2.403 . S
O614 C609 1.254 . S
O615 Dy600 2.310 . S
O615 Dy603 2.664 . S
O615 C609 1.268 . S
O616 Dy600 2.351 . S
O616 C619 1.249 . S
O617 Dy603 2.326 . S
O617 C619 1.267 . S
C618 O610 1.249 . S
C618 O611 1.267 . S
C619 O616 1.249 . S
C619 O617 1.267 . S
Dy620 O624 2.398 . S
Dy620 O625 2.491 . S
Dy620 O626 2.403 . S
Dy620 O627 2.664 . S
Dy620 O631 2.326 . S
Dy620 O635 2.310 . S
Dy620 O636 2.351 . S
C621 O632 1.185 . S
C621 O633 1.355 . S
C622 O624 1.185 . S
C622 O625 1.355 . S
Dy623 O627 2.310 . S
Dy623 O630 2.351 . S
Dy623 O632 2.398 . S
Dy623 O633 2.491 . S
Dy623 O634 2.403 . S
Dy623 O635 2.664 . S
Dy623 O637 2.326 . S
O624 Dy620 2.398 . S
O624 C622 1.185 . S
O625 Dy620 2.491 . S
O625 C622 1.355 . S
O626 Dy620 2.403 . S
O626 C628 1.254 . S
O627 Dy620 2.664 . S
O627 Dy623 2.310 . S
O627 C628 1.268 . S
C628 O626 1.254 . S
C628 O627 1.268 . S
C629 O634 1.254 . S
C629 O635 1.268 . S
O630 Dy623 2.351 . S
O630 C638 1.249 . S
O631 Dy620 2.326 . S
O631 C638 1.267 . S
O632 C621 1.185 . S
O632 Dy623 2.398 . S
O633 C621 1.355 . S
O633 Dy623 2.491 . S
O634 Dy623 2.403 . S
O634 C629 1.254 . S
O635 Dy620 2.310 . S
O635 Dy623 2.664 . S
O635 C629 1.268 . S
O636 Dy620 2.351 . S
O636 C639 1.249 . S
O637 Dy623 2.326 . S
O637 C639 1.267 . S
C638 O630 1.249 . S
C638 O631 1.267 . S
C639 O636 1.249 . S
C639 O637 1.267 . S
Dy640 O644 2.398 . S
Dy640 O645 2.491 . S
Dy640 O646 2.403 . S
Dy640 O647 2.664 . S
Dy640 O651 2.326 . S
Dy640 O655 2.310 . S
Dy640 O656 2.351 . S
C641 O652 1.185 . S
C641 O653 1.355 . S
C642 O644 1.185 . S
C642 O645 1.355 . S
Dy643 O647 2.310 . S
Dy643 O650 2.351 . S
Dy643 O652 2.398 . S
Dy643 O653 2.491 . S
Dy643 O654 2.403 . S
Dy643 O655 2.664 . S
Dy643 O657 2.326 . S
O644 Dy640 2.398 . S
O644 C642 1.185 . S
O645 Dy640 2.491 . S
O645 C642 1.355 . S
O646 Dy640 2.403 . S
O646 C648 1.254 . S
O647 Dy640 2.664 . S
O647 Dy643 2.310 . S
O647 C648 1.268 . S
C648 O646 1.254 . S
C648 O647 1.268 . S
C649 O654 1.254 . S
C649 O655 1.268 . S
O650 Dy643 2.351 . S
O650 C658 1.249 . S
O651 Dy640 2.326 . S
O651 C658 1.267 . S
O652 C641 1.185 . S
O652 Dy643 2.398 . S
O653 C641 1.355 . S
O653 Dy643 2.491 . S
O654 Dy643 2.403 . S
O654 C649 1.254 . S
O655 Dy640 2.310 . S
O655 Dy643 2.664 . S
O655 C649 1.268 . S
O656 Dy640 2.351 . S
O656 C659 1.249 . S
O657 Dy643 2.326 . S
O657 C659 1.267 . S
C658 O650 1.249 . S
C658 O651 1.267 . S
C659 O656 1.249 . S
C659 O657 1.267 . S
Dy660 O664 2.398 . S
Dy660 O665 2.491 . S
Dy660 O666 2.403 . S
Dy660 O667 2.664 . S
Dy660 O671 2.326 . S
Dy660 O675 2.310 . S
Dy660 O676 2.351 . S
C661 O672 1.185 . S
C661 O673 1.355 . S
C662 O664 1.185 . S
C662 O665 1.355 . S
Dy663 O667 2.310 . S
Dy663 O670 2.351 . S
Dy663 O672 2.398 . S
Dy663 O673 2.491 . S
Dy663 O674 2.403 . S
Dy663 O675 2.664 . S
Dy663 O677 2.326 . S
O664 Dy660 2.398 . S
O664 C662 1.185 . S
O665 Dy660 2.491 . S
O665 C662 1.355 . S
O666 Dy660 2.403 . S
O666 C668 1.254 . S
O667 Dy660 2.664 . S
O667 Dy663 2.310 . S
O667 C668 1.268 . S
C668 O666 1.254 . S
C668 O667 1.268 . S
C669 O674 1.254 . S
C669 O675 1.268 . S
O670 Dy663 2.351 . S
O670 C678 1.249 . S
O671 Dy660 2.326 . S
O671 C678 1.267 . S
O672 C661 1.185 . S
O672 Dy663 2.398 . S
O673 C661 1.355 . S
O673 Dy663 2.491 . S
O674 Dy663 2.403 . S
O674 C669 1.254 . S
O675 Dy660 2.310 . S
O675 Dy663 2.664 . S
O675 C669 1.268 . S
O676 Dy660 2.351 . S
O676 C679 1.249 . S
O677 Dy663 2.326 . S
O677 C679 1.267 . S
C678 O670 1.249 . S
C678 O671 1.267 . S
C679 O676 1.249 . S
C679 O677 1.267 . S
Dy680 O684 2.398 . S
Dy680 O685 2.491 . S
Dy680 O686 2.403 . S
Dy680 O687 2.664 . S
Dy680 O691 2.326 . S
Dy680 O695 2.310 . S
Dy680 O696 2.351 . S
C681 O692 1.185 . S
C681 O693 1.355 . S
C682 O684 1.185 . S
C682 O685 1.355 . S
Dy683 O687 2.310 . S
Dy683 O690 2.351 . S
Dy683 O692 2.398 . S
Dy683 O693 2.491 . S
Dy683 O694 2.403 . S
Dy683 O695 2.664 . S
Dy683 O697 2.326 . S
O684 Dy680 2.398 . S
O684 C682 1.185 . S
O685 Dy680 2.491 . S
O685 C682 1.355 . S
O686 Dy680 2.403 . S
O686 C688 1.254 . S
O687 Dy680 2.664 . S
O687 Dy683 2.310 . S
O687 C688 1.268 . S
C688 O686 1.254 . S
C688 O687 1.268 . S
C689 O694 1.254 . S
C689 O695 1.268 . S
O690 Dy683 2.351 . S
O690 C698 1.249 . S
O691 Dy680 2.326 . S
O691 C698 1.267 . S
O692 C681 1.185 . S
O692 Dy683 2.398 . S
O693 C681 1.355 . S
O693 Dy683 2.491 . S
O694 Dy683 2.403 . S
O694 C689 1.254 . S
O695 Dy680 2.310 . S
O695 Dy683 2.664 . S
O695 C689 1.268 . S
O696 Dy680 2.351 . S
O696 C699 1.249 . S
O697 Dy683 2.326 . S
O697 C699 1.267 . S
C698 O690 1.249 . S
C698 O691 1.267 . S
C699 O696 1.249 . S
C699 O697 1.267 . S
Dy700 O704 2.398 . S
Dy700 O705 2.491 . S
Dy700 O706 2.403 . S
Dy700 O707 2.664 . S
Dy700 O711 2.326 . S
Dy700 O715 2.310 . S
Dy700 O716 2.351 . S
C701 O712 1.185 . S
C701 O713 1.355 . S
C702 O704 1.185 . S
C702 O705 1.355 . S
Dy703 O707 2.310 . S
Dy703 O710 2.351 . S
Dy703 O712 2.398 . S
Dy703 O713 2.491 . S
Dy703 O714 2.403 . S
Dy703 O715 2.664 . S
Dy703 O717 2.326 . S
O704 Dy700 2.398 . S
O704 C702 1.185 . S
O705 Dy700 2.491 . S
O705 C702 1.355 . S
O706 Dy700 2.403 . S
O706 C708 1.254 . S
O707 Dy700 2.664 . S
O707 Dy703 2.310 . S
O707 C708 1.268 . S
C708 O706 1.254 . S
C708 O707 1.268 . S
C709 O714 1.254 . S
C709 O715 1.268 . S
O710 Dy703 2.351 . S
O710 C718 1.249 . S
O711 Dy700 2.326 . S
O711 C718 1.267 . S
O712 C701 1.185 . S
O712 Dy703 2.398 . S
O713 C701 1.355 . S
O713 Dy703 2.491 . S
O714 Dy703 2.403 . S
O714 C709 1.254 . S
O715 Dy700 2.310 . S
O715 Dy703 2.664 . S
O715 C709 1.268 . S
O716 Dy700 2.351 . S
O716 C719 1.249 . S
O717 Dy703 2.326 . S
O717 C719 1.267 . S
C718 O710 1.249 . S
C718 O711 1.267 . S
C719 O716 1.249 . S
C719 O717 1.267 . S
C720 C721 1.369 . S
C720 C722 1.419 1_556 S
C720 H724 0.930 . S
C721 C720 1.369 . S
C721 C730 1.429 . S
C722 C720 1.419 1_554 S
C722 C723 1.363 1_554 S
C722 H725 0.929 . S
C723 C722 1.363 1_556 S
C723 C729 1.428 . S
H724 C720 0.930 . S
H725 C722 0.929 . S
S726 N727 1.613 . S
S726 N728 1.610 . S
N727 S726 1.613 . S
N727 C730 1.350 . S
N728 S726 1.610 . S
N728 C729 1.351 . S
C729 C723 1.428 . S
C729 N728 1.351 . S
C729 C730 1.434 . S
C730 C721 1.429 . S
C730 N727 1.350 . S
C730 C729 1.434 . S
C731 C732 1.369 . S
C731 C733 1.419 . S
C731 H735 0.930 . S
C732 C731 1.369 . S
C732 C741 1.429 . S
C733 C731 1.419 . S
C733 C734 1.363 . S
C733 H736 0.929 . S
C734 C733 1.363 . S
C734 C740 1.428 1_556 S
H735 C731 0.930 . S
H736 C733 0.929 . S
S737 N738 1.613 1_554 S
S737 N739 1.610 . S
N738 S737 1.613 1_556 S
N738 C741 1.350 . S
N739 S737 1.610 . S
N739 C740 1.351 . S
C740 C734 1.428 1_554 S
C740 N739 1.351 . S
C740 C741 1.434 1_554 S
C741 C732 1.429 . S
C741 N738 1.350 . S
C741 C740 1.434 1_556 S
C742 C743 1.369 1_554 S
C742 C744 1.419 1_554 S
C742 H746 0.930 . S
C743 C742 1.369 1_556 S
C743 C752 1.429 . S
C744 C742 1.419 1_556 S
C744 C745 1.363 . S
C744 H747 0.929 . S
C745 C744 1.363 . S
C745 C751 1.428 . S
H746 C742 0.930 . S
H747 C744 0.929 . S
S748 N749 1.613 . S
S748 N750 1.610 . S
N749 S748 1.613 . S
N749 C752 1.350 . S
N750 S748 1.610 . S
N750 C751 1.351 . S
C751 C745 1.428 . S
C751 N750 1.351 . S
C751 C752 1.434 . S
C752 C743 1.429 . S
C752 N749 1.350 . S
C752 C751 1.434 . S
C753 C754 1.369 . S
C753 C755 1.419 . S
C753 H757 0.930 . S
C754 C753 1.369 . S
C754 C763 1.429 . S
C755 C753 1.419 . S
C755 C756 1.363 . S
C755 H758 0.929 . S
C756 C755 1.363 . S
C756 C762 1.428 . S
H757 C753 0.930 . S
H758 C755 0.929 . S
S759 N760 1.613 . S
S759 N761 1.610 . S
N760 S759 1.613 . S
N760 C763 1.350 . S
N761 S759 1.610 . S
N761 C762 1.351 . S
C762 C756 1.428 . S
C762 N761 1.351 . S
C762 C763 1.434 . S
C763 C754 1.429 . S
C763 N760 1.350 . S
C763 C762 1.434 . S
C764 C765 1.369 . S
C764 C766 1.419 . S
C764 H768 0.930 . S
C765 C764 1.369 . S
C765 C774 1.429 . S
C766 C764 1.419 . S
C766 C767 1.363 . S
C766 H769 0.929 . S
C767 C766 1.363 . S
C767 C773 1.428 . S
H768 C764 0.930 . S
H769 C766 0.929 . S
S770 N771 1.613 . S
S770 N772 1.610 . S
N771 S770 1.613 . S
N771 C774 1.350 . S
N772 S770 1.610 . S
N772 C773 1.351 . S
C773 C767 1.428 . S
C773 N772 1.351 . S
C773 C774 1.434 . S
C774 C765 1.429 . S
C774 N771 1.350 . S
C774 C773 1.434 . S
C775 C776 1.369 . S
C775 C777 1.419 . S
C775 H779 0.930 . S
C776 C775 1.369 . S
C776 C785 1.429 . S
C777 C775 1.419 . S
C777 C778 1.363 . S
C777 H780 0.929 . S
C778 C777 1.363 . S
C778 C784 1.428 . S
H779 C775 0.930 . S
H780 C777 0.929 . S
S781 N782 1.613 . S
S781 N783 1.610 . S
N782 S781 1.613 . S
N782 C785 1.350 . S
N783 S781 1.610 . S
N783 C784 1.351 . S
C784 C778 1.428 . S
C784 N783 1.351 . S
C784 C785 1.434 . S
C785 C776 1.429 . S
C785 N782 1.350 . S
C785 C784 1.434 . S
C786 C787 1.369 . S
C786 C788 1.419 . S
C786 H790 0.930 . S
C787 C786 1.369 . S
C787 C796 1.429 . S
C788 C786 1.419 . S
C788 C789 1.363 . S
C788 H791 0.929 . S
C789 C788 1.363 . S
C789 C795 1.428 . S
H790 C786 0.930 . S
H791 C788 0.929 . S
S792 N793 1.613 . S
S792 N794 1.610 . S
N793 S792 1.613 . S
N793 C796 1.350 . S
N794 S792 1.610 . S
N794 C795 1.351 . S
C795 C789 1.428 . S
C795 N794 1.351 . S
C795 C796 1.434 . S
C796 C787 1.429 . S
C796 N793 1.350 . S
C796 C795 1.434 . S
C797 C798 1.369 . S
C797 C799 1.419 . S
C797 H801 0.930 . S
C798 C797 1.369 . S
C798 C807 1.429 . S
C799 C797 1.419 . S
C799 C800 1.363 . S
C799 H802 0.929 . S
C800 C799 1.363 . S
C800 C806 1.428 . S
H801 C797 0.930 . S
H802 C799 0.929 . S
S803 N804 1.613 . S
S803 N805 1.610 . S
N804 S803 1.613 . S
N804 C807 1.350 . S
N805 S803 1.610 . S
N805 C806 1.351 . S
C806 C800 1.428 . S
C806 N805 1.351 . S
C806 C807 1.434 . S
C807 C798 1.429 . S
C807 N804 1.350 . S
C807 C806 1.434 . S
C808 C809 1.369 . S
C808 C810 1.419 . S
C808 H812 0.930 . S
C809 C808 1.369 . S
C809 C818 1.429 . S
C810 C808 1.419 . S
C810 C811 1.363 . S
C810 H813 0.929 . S
C811 C810 1.363 . S
C811 C817 1.428 . S
H812 C808 0.930 . S
H813 C810 0.929 . S
S814 N815 1.613 . S
S814 N816 1.610 . S
N815 S814 1.613 . S
N815 C818 1.350 . S
N816 S814 1.610 . S
N816 C817 1.351 . S
C817 C811 1.428 . S
C817 N816 1.351 . S
C817 C818 1.434 . S
C818 C809 1.429 . S
C818 N815 1.350 . S
C818 C817 1.434 . S
C819 C820 1.369 . S
C819 C821 1.419 . S
C819 H823 0.930 . S
C820 C819 1.369 . S
C820 C829 1.429 . S
C821 C819 1.419 . S
C821 C822 1.363 . S
C821 H824 0.929 . S
C822 C821 1.363 . S
C822 C828 1.428 . S
H823 C819 0.930 . S
H824 C821 0.929 . S
S825 N826 1.613 . S
S825 N827 1.610 . S
N826 S825 1.613 . S
N826 C829 1.350 . S
N827 S825 1.610 . S
N827 C828 1.351 . S
C828 C822 1.428 . S
C828 N827 1.351 . S
C828 C829 1.434 . S
C829 C820 1.429 . S
C829 N826 1.350 . S
C829 C828 1.434 . S
C830 C831 1.369 . S
C830 C832 1.419 . S
C830 H834 0.930 . S
C831 C830 1.369 . S
C831 C840 1.429 . S
C832 C830 1.419 . S
C832 C833 1.363 . S
C832 H835 0.929 . S
C833 C832 1.363 . S
C833 C839 1.428 . S
H834 C830 0.930 . S
H835 C832 0.929 . S
S836 N837 1.613 . S
S836 N838 1.610 . S
N837 S836 1.613 . S
N837 C840 1.350 . S
N838 S836 1.610 . S
N838 C839 1.351 . S
C839 C833 1.428 . S
C839 N838 1.351 . S
C839 C840 1.434 . S
C840 C831 1.429 . S
C840 N837 1.350 . S
C840 C839 1.434 . S
C841 C842 1.369 . S
C841 C843 1.419 . S
C841 H845 0.930 . S
C842 C841 1.369 . S
C842 C851 1.429 . S
C843 C841 1.419 . S
C843 C844 1.363 . S
C843 H846 0.929 . S
C844 C843 1.363 . S
C844 C850 1.428 . S
H845 C841 0.930 . S
H846 C843 0.929 . S
S847 N848 1.613 . S
S847 N849 1.610 . S
N848 S847 1.613 . S
N848 C851 1.350 . S
N849 S847 1.610 . S
N849 C850 1.351 . S
C850 C844 1.428 . S
C850 N849 1.351 . S
C850 C851 1.434 . S
C851 C842 1.429 . S
C851 N848 1.350 . S
C851 C850 1.434 . S
C852 C853 1.369 . S
C852 C854 1.419 . S
C852 H856 0.930 . S
C853 C852 1.369 . S
C853 C862 1.429 . S
C854 C852 1.419 . S
C854 C855 1.363 . S
C854 H857 0.929 . S
C855 C854 1.363 . S
C855 C861 1.428 . S
H856 C852 0.930 . S
H857 C854 0.929 . S
S858 N859 1.613 . S
S858 N860 1.610 . S
N859 S858 1.613 . S
N859 C862 1.350 . S
N860 S858 1.610 . S
N860 C861 1.351 . S
C861 C855 1.428 . S
C861 N860 1.351 . S
C861 C862 1.434 . S
C862 C853 1.429 . S
C862 N859 1.350 . S
C862 C861 1.434 . S
C863 C864 1.369 . S
C863 C865 1.419 . S
C863 H867 0.930 . S
C864 C863 1.369 . S
C864 C873 1.429 1_565 S
C865 C863 1.419 . S
C865 C866 1.363 1_565 S
C865 H868 0.929 . S
C866 C865 1.363 1_545 S
C866 C872 1.428 . S
H867 C863 0.930 . S
H868 C865 0.929 . S
S869 N870 1.613 . S
S869 N871 1.610 . S
N870 S869 1.613 . S
N870 C873 1.350 . S
N871 S869 1.610 . S
N871 C872 1.351 . S
C872 C866 1.428 . S
C872 N871 1.351 . S
C872 C873 1.434 . S
C873 C864 1.429 1_545 S
C873 N870 1.350 . S
C873 C872 1.434 . S
C874 C875 1.369 . S
C874 C876 1.419 1_655 S
C874 H878 0.930 . S
C875 C874 1.369 . S
C875 C884 1.429 . S
C876 C874 1.419 1_455 S
C876 C877 1.363 . S
C876 H879 0.929 . S
C877 C876 1.363 . S
C877 C883 1.428 . S
H878 C874 0.930 . S
H879 C876 0.929 . S
S880 N881 1.613 . S
S880 N882 1.610 1_655 S
N881 S880 1.613 . S
N881 C884 1.350 . S
N882 S880 1.610 1_455 S
N882 C883 1.351 . S
C883 C877 1.428 . S
C883 N882 1.351 . S
C883 C884 1.434 1_455 S
C884 C875 1.429 . S
C884 N881 1.350 . S
C884 C883 1.434 1_655 S
C885 C886 1.369 . S
C885 C887 1.419 . S
C885 H889 0.930 . S
C886 C885 1.369 . S
C886 C895 1.429 . S
C887 C885 1.419 . S
C887 C888 1.363 . S
C887 H890 0.929 . S
C888 C887 1.363 . S
C888 C894 1.428 . S
H889 C885 0.930 . S
H890 C887 0.929 . S
S891 N892 1.613 . S
S891 N893 1.610 . S
N892 S891 1.613 . S
N892 C895 1.350 . S
N893 S891 1.610 . S
N893 C894 1.351 . S
C894 C888 1.428 . S
C894 N893 1.351 . S
C894 C895 1.434 . S
C895 C886 1.429 . S
C895 N892 1.350 . S
C895 C894 1.434 . S
C896 C897 1.369 . S
C896 C898 1.419 . S
C896 H900 0.930 . S
C897 C896 1.369 . S
C897 C906 1.429 1_545 S
C898 C896 1.419 . S
C898 C899 1.363 1_545 S
C898 H901 0.929 . S
C899 C898 1.363 1_565 S
C899 C905 1.428 . S
H900 C896 0.930 . S
H901 C898 0.929 . S
S902 N903 1.613 . S
S902 N904 1.610 . S
N903 S902 1.613 . S
N903 C906 1.350 . S
N904 S902 1.610 . S
N904 C905 1.351 . S
C905 C899 1.428 . S
C905 N904 1.351 . S
C905 C906 1.434 . S
C906 C897 1.429 1_565 S
C906 N903 1.350 . S
C906 C905 1.434 . S
C907 C908 1.369 . S
C907 C909 1.419 1_455 S
C907 H911 0.930 . S
C908 C907 1.369 . S
C908 C917 1.429 . S
C909 C907 1.419 1_655 S
C909 C910 1.363 . S
C909 H912 0.929 . S
C910 C909 1.363 . S
C910 C916 1.428 . S
H911 C907 0.930 . S
H912 C909 0.929 . S
S913 N914 1.613 1_655 S
S913 N915 1.610 . S
N914 S913 1.613 1_455 S
N914 C917 1.350 . S
N915 S913 1.610 . S
N915 C916 1.351 . S
C916 C910 1.428 . S
C916 N915 1.351 . S
C916 C917 1.434 1_655 S
C917 C908 1.429 . S
C917 N914 1.350 . S
C917 C916 1.434 1_455 S
C918 C919 1.369 1_655 S
C918 C920 1.419 . S
C918 H922 0.930 . S
C919 C918 1.369 1_455 S
C919 C928 1.429 . S
C920 C918 1.419 . S
C920 C921 1.363 . S
C920 H923 0.929 . S
C921 C920 1.363 . S
C921 C927 1.428 1_655 S
H922 C918 0.930 . S
H923 C920 0.929 . S
S924 N925 1.613 . S
S924 N926 1.610 . S
N925 S924 1.613 . S
N925 C928 1.350 . S
N926 S924 1.610 . S
N926 C927 1.351 . S
C927 C921 1.428 1_455 S
C927 N926 1.351 . S
C927 C928 1.434 . S
C928 C919 1.429 . S
C928 N925 1.350 . S
C928 C927 1.434 . S
C929 C930 1.369 . S
C929 C931 1.419 . S
C929 H933 0.930 . S
C930 C929 1.369 . S
C930 C939 1.429 . S
C931 C929 1.419 . S
C931 C932 1.363 . S
C931 H934 0.929 . S
C932 C931 1.363 . S
C932 C938 1.428 . S
H933 C929 0.930 . S
H934 C931 0.929 . S
S935 N936 1.613 . S
S935 N937 1.610 . S
N936 S935 1.613 . S
N936 C939 1.350 . S
N937 S935 1.610 . S
N937 C938 1.351 . S
C938 C932 1.428 . S
C938 N937 1.351 . S
C938 C939 1.434 . S
C939 C930 1.429 . S
C939 N936 1.350 . S
C939 C938 1.434 . S
C940 C941 1.369 1_545 S
C940 C942 1.419 . S
C940 H944 0.930 . S
C941 C940 1.369 1_565 S
C941 C950 1.429 . S
C942 C940 1.419 . S
C942 C943 1.363 . S
C942 H945 0.929 . S
C943 C942 1.363 . S
C943 C949 1.428 1_545 S
H944 C940 0.930 . S
H945 C942 0.929 . S
S946 N947 1.613 . S
S946 N948 1.610 . S
N947 S946 1.613 . S
N947 C950 1.350 . S
N948 S946 1.610 . S
N948 C949 1.351 . S
C949 C943 1.428 1_565 S
C949 N948 1.351 . S
C949 C950 1.434 . S
C950 C941 1.429 . S
C950 N947 1.350 . S
C950 C949 1.434 . S
C951 C952 1.369 . S
C951 C953 1.419 . S
C951 H955 0.930 . S
C952 C951 1.369 . S
C952 C961 1.429 1_655 S
C953 C951 1.419 . S
C953 C954 1.363 1_655 S
C953 H956 0.929 . S
C954 C953 1.363 1_455 S
C954 C960 1.428 . S
H955 C951 0.930 . S
H956 C953 0.929 . S
S957 N958 1.613 . S
S957 N959 1.610 . S
N958 S957 1.613 . S
N958 C961 1.350 . S
N959 S957 1.610 . S
N959 C960 1.351 . S
C960 C954 1.428 . S
C960 N959 1.351 . S
C960 C961 1.434 . S
C961 C952 1.429 1_455 S
C961 N958 1.350 . S
C961 C960 1.434 . S
C962 C963 1.369 . S
C962 C964 1.419 . S
C962 H966 0.930 . S
C963 C962 1.369 . S
C963 C972 1.429 . S
C964 C962 1.419 . S
C964 C965 1.363 . S
C964 H967 0.929 . S
C965 C964 1.363 . S
C965 C971 1.428 . S
H966 C962 0.930 . S
H967 C964 0.929 . S
S968 N969 1.613 . S
S968 N970 1.610 . S
N969 S968 1.613 . S
N969 C972 1.350 . S
N970 S968 1.610 . S
N970 C971 1.351 . S
C971 C965 1.428 . S
C971 N970 1.351 . S
C971 C972 1.434 . S
C972 C963 1.429 . S
C972 N969 1.350 . S
C972 C971 1.434 . S
C973 C974 1.369 . S
C973 C975 1.419 1_545 S
C973 H977 0.930 . S
C974 C973 1.369 . S
C974 C983 1.429 . S
C975 C973 1.419 1_565 S
C975 C976 1.363 . S
C975 H978 0.929 . S
C976 C975 1.363 . S
C976 C982 1.428 . S
H977 C973 0.930 . S
H978 C975 0.929 . S
S979 N980 1.613 1_565 S
S979 N981 1.610 . S
N980 S979 1.613 1_545 S
N980 C983 1.350 . S
N981 S979 1.610 . S
N981 C982 1.351 . S
C982 C976 1.428 . S
C982 N981 1.351 . S
C982 C983 1.434 1_565 S
C983 C974 1.429 . S
C983 N980 1.350 . S
C983 C982 1.434 1_545 S
C984 C985 1.369 . S
C984 C986 1.419 . S
C984 H988 0.930 . S
C985 C984 1.369 . S
C985 C994 1.429 . S
C986 C984 1.419 . S
C986 C987 1.363 . S
C986 H989 0.929 . S
C987 C986 1.363 . S
C987 C993 1.428 . S
H988 C984 0.930 . S
H989 C986 0.929 . S
S990 N991 1.613 . S
S990 N992 1.610 . S
N991 S990 1.613 . S
N991 C994 1.350 . S
N992 S990 1.610 . S
N992 C993 1.351 . S
C993 C987 1.428 . S
C993 N992 1.351 . S
C993 C994 1.434 . S
C994 C985 1.429 . S
C994 N991 1.350 . S
C994 C993 1.434 . S
C995 C996 1.369 . S
C995 C997 1.419 . S
C995 H999 0.930 . S
C996 C995 1.369 . S
C996 C1005 1.429 . S
C997 C995 1.419 . S
C997 C998 1.363 . S
C997 H1000 0.929 . S
C998 C997 1.363 . S
C998 C1004 1.428 . S
H999 C995 0.930 . S
H1000 C997 0.929 . S
S1001 N1002 1.613 . S
S1001 N1003 1.610 . S
N1002 S1001 1.613 . S
N1002 C1005 1.350 . S
N1003 S1001 1.610 . S
N1003 C1004 1.351 . S
C1004 C998 1.428 . S
C1004 N1003 1.351 . S
C1004 C1005 1.434 . S
C1005 C996 1.429 . S
C1005 N1002 1.350 . S
C1005 C1004 1.434 . S
C1006 C1007 1.369 . S
C1006 C1008 1.419 . S
C1006 H1010 0.930 . S
C1007 C1006 1.369 . S
C1007 C1016 1.429 . S
C1008 C1006 1.419 . S
C1008 C1009 1.363 . S
C1008 H1011 0.929 . S
C1009 C1008 1.363 . S
C1009 C1015 1.428 . S
H1010 C1006 0.930 . S
H1011 C1008 0.929 . S
S1012 N1013 1.613 . S
S1012 N1014 1.610 . S
N1013 S1012 1.613 . S
N1013 C1016 1.350 . S
N1014 S1012 1.610 . S
N1014 C1015 1.351 . S
C1015 C1009 1.428 . S
C1015 N1014 1.351 . S
C1015 C1016 1.434 . S
C1016 C1007 1.429 . S
C1016 N1013 1.350 . S
C1016 C1015 1.434 . S
C1017 C1018 1.369 . S
C1017 C1019 1.419 . S
C1017 H1021 0.930 . S
C1018 C1017 1.369 . S
C1018 C1027 1.429 . S
C1019 C1017 1.419 . S
C1019 C1020 1.363 . S
C1019 H1022 0.929 . S
C1020 C1019 1.363 . S
C1020 C1026 1.428 . S
H1021 C1017 0.930 . S
H1022 C1019 0.929 . S
S1023 N1024 1.613 . S
S1023 N1025 1.610 . S
N1024 S1023 1.613 . S
N1024 C1027 1.350 . S
N1025 S1023 1.610 . S
N1025 C1026 1.351 . S
C1026 C1020 1.428 . S
C1026 N1025 1.351 . S
C1026 C1027 1.434 . S
C1027 C1018 1.429 . S
C1027 N1024 1.350 . S
C1027 C1026 1.434 . S
C1028 C1029 1.369 . S
C1028 C1030 1.419 . S
C1028 H1032 0.930 . S
C1029 C1028 1.369 . S
C1029 C1038 1.429 . S
C1030 C1028 1.419 . S
C1030 C1031 1.363 . S
C1030 H1033 0.929 . S
C1031 C1030 1.363 . S
C1031 C1037 1.428 . S
H1032 C1028 0.930 . S
H1033 C1030 0.929 . S
S1034 N1035 1.613 . S
S1034 N1036 1.610 . S
N1035 S1034 1.613 . S
N1035 C1038 1.350 . S
N1036 S1034 1.610 . S
N1036 C1037 1.351 . S
C1037 C1031 1.428 . S
C1037 N1036 1.351 . S
C1037 C1038 1.434 . S
C1038 C1029 1.429 . S
C1038 N1035 1.350 . S
C1038 C1037 1.434 . S
C1039 C1040 1.369 . S
C1039 C1041 1.419 . S
C1039 H1043 0.930 . S
C1040 C1039 1.369 . S
C1040 C1049 1.429 . S
C1041 C1039 1.419 . S
C1041 C1042 1.363 . S
C1041 H1044 0.929 . S
C1042 C1041 1.363 . S
C1042 C1048 1.428 . S
H1043 C1039 0.930 . S
H1044 C1041 0.929 . S
S1045 N1046 1.613 . S
S1045 N1047 1.610 . S
N1046 S1045 1.613 . S
N1046 C1049 1.350 . S
N1047 S1045 1.610 . S
N1047 C1048 1.351 . S
C1048 C1042 1.428 . S
C1048 N1047 1.351 . S
C1048 C1049 1.434 . S
C1049 C1040 1.429 . S
C1049 N1046 1.350 . S
C1049 C1048 1.434 . S
C1050 C1051 1.369 . S
C1050 C1052 1.419 . S
C1050 H1054 0.930 . S
C1051 C1050 1.369 . S
C1051 C1060 1.429 . S
C1052 C1050 1.419 . S
C1052 C1053 1.363 . S
C1052 H1055 0.929 . S
C1053 C1052 1.363 . S
C1053 C1059 1.428 . S
H1054 C1050 0.930 . S
H1055 C1052 0.929 . S
S1056 N1057 1.613 . S
S1056 N1058 1.610 . S
N1057 S1056 1.613 . S
N1057 C1060 1.350 . S
N1058 S1056 1.610 . S
N1058 C1059 1.351 . S
C1059 C1053 1.428 . S
C1059 N1058 1.351 . S
C1059 C1060 1.434 . S
C1060 C1051 1.429 . S
C1060 N1057 1.350 . S
C1060 C1059 1.434 . S
C1061 C1062 1.369 . S
C1061 C1063 1.419 . S
C1061 H1065 0.930 . S
C1062 C1061 1.369 . S
C1062 C1071 1.429 . S
C1063 C1061 1.419 . S
C1063 C1064 1.363 . S
C1063 H1066 0.929 . S
C1064 C1063 1.363 . S
C1064 C1070 1.428 . S
H1065 C1061 0.930 . S
H1066 C1063 0.929 . S
S1067 N1068 1.613 . S
S1067 N1069 1.610 . S
N1068 S1067 1.613 . S
N1068 C1071 1.350 . S
N1069 S1067 1.610 . S
N1069 C1070 1.351 . S
C1070 C1064 1.428 . S
C1070 N1069 1.351 . S
C1070 C1071 1.434 . S
C1071 C1062 1.429 . S
C1071 N1068 1.350 . S
C1071 C1070 1.434 . S
C1072 C1073 1.369 . S
C1072 C1074 1.419 . S
C1072 H1076 0.930 . S
C1073 C1072 1.369 . S
C1073 C1082 1.429 . S
C1074 C1072 1.419 . S
C1074 C1075 1.363 . S
C1074 H1077 0.929 . S
C1075 C1074 1.363 . S
C1075 C1081 1.428 . S
H1076 C1072 0.930 . S
H1077 C1074 0.929 . S
S1078 N1079 1.613 . S
S1078 N1080 1.610 . S
N1079 S1078 1.613 . S
N1079 C1082 1.350 . S
N1080 S1078 1.610 . S
N1080 C1081 1.351 . S
C1081 C1075 1.428 . S
C1081 N1080 1.351 . S
C1081 C1082 1.434 . S
C1082 C1073 1.429 . S
C1082 N1079 1.350 . S
C1082 C1081 1.434 . S
C1083 C1084 1.369 . S
C1083 C1085 1.409 1_556 S
C1083 H1087 0.930 . S
C1084 C1083 1.369 . S
C1084 C1093 1.429 . S
C1085 C1083 1.409 1_554 S
C1085 C1086 1.363 1_554 S
C1085 H1088 0.940 . S
C1086 C1085 1.363 1_556 S
C1086 C1092 1.434 . S
H1087 C1083 0.930 . S
H1088 C1085 0.940 . S
S1089 N1090 1.613 . S
S1089 N1091 1.610 . S
N1090 S1089 1.613 . S
N1090 C1093 1.350 . S
N1091 S1089 1.610 . S
N1091 C1092 1.351 . S
C1092 C1086 1.434 . S
C1092 N1091 1.351 . S
C1092 C1093 1.434 . S
C1093 C1084 1.429 . S
C1093 N1090 1.350 . S
C1093 C1092 1.434 . S
C1094 C1095 1.369 . S
C1094 C1096 1.419 . S
C1094 H1098 0.930 . S
C1095 C1094 1.369 . S
C1095 C1104 1.429 . S
C1096 C1094 1.419 . S
C1096 C1097 1.364 1_556 S
C1096 H1099 0.929 . S
C1097 C1096 1.364 1_554 S
C1097 C1103 1.428 1_554 S
H1098 C1094 0.930 . S
H1099 C1096 0.929 . S
S1100 N1101 1.613 1_554 S
S1100 N1102 1.610 . S
N1101 S1100 1.613 1_556 S
N1101 C1104 1.350 . S
N1102 S1100 1.610 . S
N1102 C1103 1.351 1_554 S
C1103 C1097 1.428 1_556 S
C1103 N1102 1.351 1_556 S
C1103 C1104 1.434 . S
C1104 C1095 1.429 . S
C1104 N1101 1.350 . S
C1104 C1103 1.434 . S
C1105 C1106 1.369 . S
C1105 C1107 1.419 . S
C1105 H1109 0.930 . S
C1106 C1105 1.369 . S
C1106 C1115 1.429 . S
C1107 C1105 1.419 . S
C1107 C1108 1.363 . S
C1107 H1110 0.929 1_556 S
C1108 C1107 1.363 . S
C1108 C1114 1.435 . S
H1109 C1105 0.930 . S
H1110 C1107 0.929 1_554 S
S1111 N1112 1.613 . S
S1111 N1113 1.610 . S
N1112 S1111 1.613 . S
N1112 C1115 1.350 . S
N1113 S1111 1.610 . S
N1113 C1114 1.351 . S
C1114 C1108 1.435 . S
C1114 N1113 1.351 . S
C1114 C1115 1.434 . S
C1115 C1106 1.429 . S
C1115 N1112 1.350 . S
C1115 C1114 1.434 . S
C1116 C1117 1.369 . S
C1116 C1118 1.419 . S
C1116 H1120 0.930 . S
C1117 C1116 1.369 . S
C1117 C1126 1.429 . S
C1118 C1116 1.419 . S
C1118 C1119 1.363 . S
C1118 H1121 0.929 . S
C1119 C1118 1.363 . S
C1119 C1125 1.428 . S
H1120 C1116 0.930 . S
H1121 C1118 0.929 . S
S1122 N1123 1.613 . S
S1122 N1124 1.610 . S
N1123 S1122 1.613 . S
N1123 C1126 1.350 . S
N1124 S1122 1.610 . S
N1124 C1125 1.351 . S
C1125 C1119 1.428 . S
C1125 N1124 1.351 . S
C1125 C1126 1.434 . S
C1126 C1117 1.429 . S
C1126 N1123 1.350 . S
C1126 C1125 1.434 . S
C1127 C1128 1.369 . S
C1127 C1129 1.419 . S
C1127 H1131 0.930 . S
C1128 C1127 1.369 . S
C1128 C1137 1.429 . S
C1129 C1127 1.419 . S
C1129 C1130 1.363 . S
C1129 H1132 0.929 . S
C1130 C1129 1.363 . S
C1130 C1136 1.428 . S
H1131 C1127 0.930 . S
H1132 C1129 0.929 . S
S1133 N1134 1.613 . S
S1133 N1135 1.610 . S
N1134 S1133 1.613 . S
N1134 C1137 1.350 . S
N1135 S1133 1.610 . S
N1135 C1136 1.351 . S
C1136 C1130 1.428 . S
C1136 N1135 1.351 . S
C1136 C1137 1.434 . S
C1137 C1128 1.429 . S
C1137 N1134 1.350 . S
C1137 C1136 1.434 . S
C1138 C1139 1.369 . S
C1138 C1140 1.419 . S
C1138 H1142 0.930 . S
C1139 C1138 1.369 . S
C1139 C1148 1.429 . S
C1140 C1138 1.419 . S
C1140 C1141 1.363 . S
C1140 H1143 0.929 . S
C1141 C1140 1.363 . S
C1141 C1147 1.428 . S
H1142 C1138 0.930 . S
H1143 C1140 0.929 . S
S1144 N1145 1.613 . S
S1144 N1146 1.610 . S
N1145 S1144 1.613 . S
N1145 C1148 1.350 . S
N1146 S1144 1.610 . S
N1146 C1147 1.351 . S
C1147 C1141 1.428 . S
C1147 N1146 1.351 . S
C1147 C1148 1.434 . S
C1148 C1139 1.429 . S
C1148 N1145 1.350 . S
C1148 C1147 1.434 . S
C1149 C1150 1.369 . S
C1149 C1151 1.419 . S
C1149 H1153 0.930 . S
C1150 C1149 1.369 . S
C1150 C1159 1.429 . S
C1151 C1149 1.419 . S
C1151 C1152 1.363 . S
C1151 H1154 0.929 . S
C1152 C1151 1.363 . S
C1152 C1158 1.428 . S
H1153 C1149 0.930 . S
H1154 C1151 0.929 . S
S1155 N1156 1.613 . S
S1155 N1157 1.610 . S
N1156 S1155 1.613 . S
N1156 C1159 1.350 . S
N1157 S1155 1.610 . S
N1157 C1158 1.351 . S
C1158 C1152 1.428 . S
C1158 N1157 1.351 . S
C1158 C1159 1.434 . S
C1159 C1150 1.429 . S
C1159 N1156 1.350 . S
C1159 C1158 1.434 . S
C1160 C1161 1.369 . S
C1160 C1162 1.419 . S
C1160 H1164 0.930 . S
C1161 C1160 1.369 . S
C1161 C1170 1.429 . S
C1162 C1160 1.419 . S
C1162 C1163 1.363 . S
C1162 H1165 0.929 . S
C1163 C1162 1.363 . S
C1163 C1169 1.428 . S
H1164 C1160 0.930 . S
H1165 C1162 0.929 . S
S1166 N1167 1.613 . S
S1166 N1168 1.610 . S
N1167 S1166 1.613 . S
N1167 C1170 1.350 . S
N1168 S1166 1.610 . S
N1168 C1169 1.351 . S
C1169 C1163 1.428 . S
C1169 N1168 1.351 . S
C1169 C1170 1.434 . S
C1170 C1161 1.429 . S
C1170 N1167 1.350 . S
C1170 C1169 1.434 . S
C1171 C1172 1.369 . S
C1171 C1173 1.419 . S
C1171 H1175 0.930 . S
C1172 C1171 1.369 . S
C1172 C1181 1.429 . S
C1173 C1171 1.419 . S
C1173 C1174 1.363 . S
C1173 H1176 0.929 . S
C1174 C1173 1.363 . S
C1174 C1180 1.428 . S
H1175 C1171 0.930 . S
H1176 C1173 0.929 . S
S1177 N1178 1.613 . S
S1177 N1179 1.610 . S
N1178 S1177 1.613 . S
N1178 C1181 1.350 . S
N1179 S1177 1.610 . S
N1179 C1180 1.351 . S
C1180 C1174 1.428 . S
C1180 N1179 1.351 . S
C1180 C1181 1.434 . S
C1181 C1172 1.429 . S
C1181 N1178 1.350 . S
C1181 C1180 1.434 . S
C1182 C1183 1.369 . S
C1182 C1184 1.419 . S
C1182 H1186 0.930 . S
C1183 C1182 1.369 . S
C1183 C1192 1.429 . S
C1184 C1182 1.419 . S
C1184 C1185 1.363 . S
C1184 H1187 0.929 . S
C1185 C1184 1.363 . S
C1185 C1191 1.428 . S
H1186 C1182 0.930 . S
H1187 C1184 0.929 . S
S1188 N1189 1.613 . S
S1188 N1190 1.610 . S
N1189 S1188 1.613 . S
N1189 C1192 1.350 . S
N1190 S1188 1.610 . S
N1190 C1191 1.351 . S
C1191 C1185 1.428 . S
C1191 N1190 1.351 . S
C1191 C1192 1.434 . S
C1192 C1183 1.429 . S
C1192 N1189 1.350 . S
C1192 C1191 1.434 . S
C1193 C1194 1.369 . S
C1193 C1195 1.419 . S
C1193 H1197 0.930 . S
C1194 C1193 1.369 . S
C1194 C1203 1.429 . S
C1195 C1193 1.419 . S
C1195 C1196 1.363 . S
C1195 H1198 0.929 . S
C1196 C1195 1.363 . S
C1196 C1202 1.428 . S
H1197 C1193 0.930 . S
H1198 C1195 0.929 . S
S1199 N1200 1.613 . S
S1199 N1201 1.610 . S
N1200 S1199 1.613 . S
N1200 C1203 1.350 . S
N1201 S1199 1.610 . S
N1201 C1202 1.351 . S
C1202 C1196 1.428 . S
C1202 N1201 1.351 . S
C1202 C1203 1.434 . S
C1203 C1194 1.429 . S
C1203 N1200 1.350 . S
C1203 C1202 1.434 . S
C1204 C1205 1.369 . S
C1204 C1206 1.419 . S
C1204 H1208 0.930 . S
C1205 C1204 1.369 . S
C1205 C1214 1.429 . S
C1206 C1204 1.419 . S
C1206 C1207 1.363 . S
C1206 H1209 0.929 . S
C1207 C1206 1.363 . S
C1207 C1213 1.428 . S
H1208 C1204 0.930 . S
H1209 C1206 0.929 . S
S1210 N1211 1.613 . S
S1210 N1212 1.610 . S
N1211 S1210 1.613 . S
N1211 C1214 1.350 . S
N1212 S1210 1.610 . S
N1212 C1213 1.351 . S
C1213 C1207 1.428 . S
C1213 N1212 1.351 . S
C1213 C1214 1.434 . S
C1214 C1205 1.429 . S
C1214 N1211 1.350 . S
C1214 C1213 1.434 . S
C1215 C1216 1.369 . S
C1215 C1217 1.419 . S
C1215 H1219 0.930 . S
C1216 C1215 1.369 . S
C1216 C1225 1.429 . S
C1217 C1215 1.419 . S
C1217 C1218 1.363 . S
C1217 H1220 0.929 . S
C1218 C1217 1.363 . S
C1218 C1224 1.428 . S
H1219 C1215 0.930 . S
H1220 C1217 0.929 . S
S1221 N1222 1.613 . S
S1221 N1223 1.610 . S
N1222 S1221 1.613 . S
N1222 C1225 1.350 . S
N1223 S1221 1.610 . S
N1223 C1224 1.351 . S
C1224 C1218 1.428 . S
C1224 N1223 1.351 . S
C1224 C1225 1.434 . S
C1225 C1216 1.429 . S
C1225 N1222 1.350 . S
C1225 C1224 1.434 . S
C1226 C1227 1.369 . S
C1226 C1228 1.419 . S
C1226 H1230 0.930 . S
C1227 C1226 1.369 . S
C1227 C1236 1.429 . S
C1228 C1226 1.419 . S
C1228 C1229 1.363 . S
C1228 H1231 0.929 . S
C1229 C1228 1.363 . S
C1229 C1235 1.428 . S
H1230 C1226 0.930 . S
H1231 C1228 0.929 . S
S1232 N1233 1.613 . S
S1232 N1234 1.610 . S
N1233 S1232 1.613 . S
N1233 C1236 1.350 . S
N1234 S1232 1.610 . S
N1234 C1235 1.351 . S
C1235 C1229 1.428 . S
C1235 N1234 1.351 . S
C1235 C1236 1.434 . S
C1236 C1227 1.429 . S
C1236 N1233 1.350 . S
C1236 C1235 1.434 . S
C1237 C1238 1.369 . S
C1237 C1239 1.419 . S
C1237 H1241 0.930 . S
C1238 C1237 1.369 . S
C1238 C1247 1.429 . S
C1239 C1237 1.419 . S
C1239 C1240 1.363 . S
C1239 H1242 0.929 . S
C1240 C1239 1.363 . S
C1240 C1246 1.428 . S
H1241 C1237 0.930 . S
H1242 C1239 0.929 . S
S1243 N1244 1.613 . S
S1243 N1245 1.610 . S
N1244 S1243 1.613 . S
N1244 C1247 1.350 . S
N1245 S1243 1.610 . S
N1245 C1246 1.351 . S
C1246 C1240 1.428 . S
C1246 N1245 1.351 . S
C1246 C1247 1.434 . S
C1247 C1238 1.429 . S
C1247 N1244 1.350 . S
C1247 C1246 1.434 . S
C1248 C1249 1.369 . S
C1248 C1250 1.419 . S
C1248 H1252 0.930 . S
C1249 C1248 1.369 . S
C1249 C1258 1.429 . S
C1250 C1248 1.419 . S
C1250 C1251 1.363 . S
C1250 H1253 0.929 . S
C1251 C1250 1.363 . S
C1251 C1257 1.428 . S
H1252 C1248 0.930 . S
H1253 C1250 0.929 . S
S1254 N1255 1.613 . S
S1254 N1256 1.610 . S
N1255 S1254 1.613 . S
N1255 C1258 1.350 . S
N1256 S1254 1.610 . S
N1256 C1257 1.351 . S
C1257 C1251 1.428 . S
C1257 N1256 1.351 . S
C1257 C1258 1.434 . S
C1258 C1249 1.429 . S
C1258 N1255 1.350 . S
C1258 C1257 1.434 . S
C1259 C1260 1.369 . S
C1259 C1261 1.419 . S
C1259 H1263 0.930 . S
C1260 C1259 1.369 . S
C1260 C1269 1.429 . S
C1261 C1259 1.419 . S
C1261 C1262 1.363 . S
C1261 H1264 0.929 . S
C1262 C1261 1.363 . S
C1262 C1268 1.428 . S
H1263 C1259 0.930 . S
H1264 C1261 0.929 . S
S1265 N1266 1.613 . S
S1265 N1267 1.610 . S
N1266 S1265 1.613 . S
N1266 C1269 1.350 . S
N1267 S1265 1.610 . S
N1267 C1268 1.351 . S
C1268 C1262 1.428 . S
C1268 N1267 1.351 . S
C1268 C1269 1.434 . S
C1269 C1260 1.429 . S
C1269 N1266 1.350 . S
C1269 C1268 1.434 . S
C1270 C1271 1.369 . S
C1270 C1272 1.419 . S
C1270 H1274 0.930 . S
C1271 C1270 1.369 . S
C1271 C1280 1.429 . S
C1272 C1270 1.419 . S
C1272 C1273 1.363 . S
C1272 H1275 0.929 . S
C1273 C1272 1.363 . S
C1273 C1279 1.428 . S
H1274 C1270 0.930 . S
H1275 C1272 0.929 . S
S1276 N1277 1.613 . S
S1276 N1278 1.610 . S
N1277 S1276 1.613 . S
N1277 C1280 1.350 . S
N1278 S1276 1.610 . S
N1278 C1279 1.351 . S
C1279 C1273 1.428 . S
C1279 N1278 1.351 . S
C1279 C1280 1.434 . S
C1280 C1271 1.429 . S
C1280 N1277 1.350 . S
C1280 C1279 1.434 . S
C1281 C1282 1.369 . S
C1281 C1283 1.419 . S
C1281 H1285 0.930 . S
C1282 C1281 1.369 . S
C1282 C1291 1.429 . S
C1283 C1281 1.419 . S
C1283 C1284 1.363 . S
C1283 H1286 0.929 . S
C1284 C1283 1.363 . S
C1284 C1290 1.428 . S
H1285 C1281 0.930 . S
H1286 C1283 0.929 . S
S1287 N1288 1.613 . S
S1287 N1289 1.610 . S
N1288 S1287 1.613 . S
N1288 C1291 1.350 . S
N1289 S1287 1.610 . S
N1289 C1290 1.351 . S
C1290 C1284 1.428 . S
C1290 N1289 1.351 . S
C1290 C1291 1.434 . S
C1291 C1282 1.429 . S
C1291 N1288 1.350 . S
C1291 C1290 1.434 . S
C1292 C1293 1.369 . S
C1292 C1294 1.419 . S
C1292 H1296 0.930 . S
C1293 C1292 1.369 . S
C1293 C1302 1.429 . S
C1294 C1292 1.419 . S
C1294 C1295 1.363 . S
C1294 H1297 0.929 . S
C1295 C1294 1.363 . S
C1295 C1301 1.428 . S
H1296 C1292 0.930 . S
H1297 C1294 0.929 . S
S1298 N1299 1.613 . S
S1298 N1300 1.610 1_556 S
N1299 S1298 1.613 . S
N1299 C1302 1.350 1_556 S
N1300 S1298 1.610 1_554 S
N1300 C1301 1.351 . S
C1301 C1295 1.428 . S
C1301 N1300 1.351 . S
C1301 C1302 1.434 . S
C1302 C1293 1.429 . S
C1302 N1299 1.350 1_554 S
C1302 C1301 1.434 . S
C1303 C1304 1.369 . S
C1303 C1305 1.419 . S
C1303 H1307 0.930 . S
C1304 C1303 1.369 . S
C1304 C1313 1.429 . S
C1305 C1303 1.419 . S
C1305 C1306 1.363 . S
C1305 H1308 0.929 1_554 S
C1306 C1305 1.363 . S
C1306 C1312 1.428 . S
H1307 C1303 0.930 . S
H1308 C1305 0.929 1_556 S
S1309 N1310 1.613 . S
S1309 N1311 1.610 . S
N1310 S1309 1.613 . S
N1310 C1313 1.350 . S
N1311 S1309 1.610 . S
N1311 C1312 1.351 . S
C1312 C1306 1.428 . S
C1312 N1311 1.351 . S
C1312 C1313 1.434 . S
C1313 C1304 1.429 . S
C1313 N1310 1.350 . S
C1313 C1312 1.434 . S
C1314 C1315 1.369 . S
C1314 C1316 1.419 . S
C1314 H1318 0.930 . S
C1315 C1314 1.369 . S
C1315 C1324 1.429 . S
C1316 C1314 1.419 . S
C1316 C1317 1.363 . S
C1316 H1319 0.929 . S
C1317 C1316 1.363 . S
C1317 C1323 1.428 . S
H1318 C1314 0.930 . S
H1319 C1316 0.929 . S
S1320 N1321 1.613 . S
S1320 N1322 1.610 . S
N1321 S1320 1.613 . S
N1321 C1324 1.350 . S
N1322 S1320 1.610 . S
N1322 C1323 1.351 . S
C1323 C1317 1.428 . S
C1323 N1322 1.351 . S
C1323 C1324 1.434 . S
C1324 C1315 1.429 . S
C1324 N1321 1.350 . S
C1324 C1323 1.434 . S
C1325 C1326 1.369 . S
C1325 C1327 1.419 . S
C1325 H1329 0.930 . S
C1326 C1325 1.369 . S
C1326 C1335 1.429 . S
C1327 C1325 1.419 . S
C1327 C1328 1.363 . S
C1327 H1330 0.929 . S
C1328 C1327 1.363 . S
C1328 C1334 1.428 . S
H1329 C1325 0.930 . S
H1330 C1327 0.929 . S
S1331 N1332 1.613 . S
S1331 N1333 1.610 . S
N1332 S1331 1.613 . S
N1332 C1335 1.350 . S
N1333 S1331 1.610 . S
N1333 C1334 1.351 . S
C1334 C1328 1.428 . S
C1334 N1333 1.351 . S
C1334 C1335 1.434 . S
C1335 C1326 1.429 . S
C1335 N1332 1.350 . S
C1335 C1334 1.434 . S
C1336 C1337 1.369 . S
C1336 C1338 1.419 . S
C1336 H1340 0.930 . S
C1337 C1336 1.369 . S
C1337 C1346 1.429 . S
C1338 C1336 1.419 . S
C1338 C1339 1.363 . S
C1338 H1341 0.929 . S
C1339 C1338 1.363 . S
C1339 C1345 1.428 . S
H1340 C1336 0.930 . S
H1341 C1338 0.929 . S
S1342 N1343 1.613 . S
S1342 N1344 1.610 . S
N1343 S1342 1.613 . S
N1343 C1346 1.350 . S
N1344 S1342 1.610 . S
N1344 C1345 1.351 . S
C1345 C1339 1.428 . S
C1345 N1344 1.351 . S
C1345 C1346 1.434 . S
C1346 C1337 1.429 . S
C1346 N1343 1.350 . S
C1346 C1345 1.434 . S
C1347 C1348 1.369 . S
C1347 C1349 1.419 . S
C1347 H1351 0.930 . S
C1348 C1347 1.369 . S
C1348 C1357 1.429 . S
C1349 C1347 1.419 . S
C1349 C1350 1.363 . S
C1349 H1352 0.929 . S
C1350 C1349 1.363 . S
C1350 C1356 1.428 . S
H1351 C1347 0.930 . S
H1352 C1349 0.929 . S
S1353 N1354 1.613 . S
S1353 N1355 1.610 . S
N1354 S1353 1.613 . S
N1354 C1357 1.350 . S
N1355 S1353 1.610 . S
N1355 C1356 1.351 . S
C1356 C1350 1.428 . S
C1356 N1355 1.351 . S
C1356 C1357 1.434 . S
C1357 C1348 1.429 . S
C1357 N1354 1.350 . S
C1357 C1356 1.434 . S
C1358 C1359 1.369 . S
C1358 C1360 1.419 . S
C1358 H1362 0.930 . S
C1359 C1358 1.369 . S
C1359 C1368 1.429 . S
C1360 C1358 1.419 . S
C1360 C1361 1.363 . S
C1360 H1363 0.929 . S
C1361 C1360 1.363 . S
C1361 C1367 1.428 . S
H1362 C1358 0.930 . S
H1363 C1360 0.929 . S
S1364 N1365 1.613 . S
S1364 N1366 1.610 . S
N1365 S1364 1.613 . S
N1365 C1368 1.350 . S
N1366 S1364 1.610 . S
N1366 C1367 1.351 . S
C1367 C1361 1.428 . S
C1367 N1366 1.351 . S
C1367 C1368 1.434 . S
C1368 C1359 1.429 . S
C1368 N1365 1.350 . S
C1368 C1367 1.434 . S
C1369 C1370 1.369 . S
C1369 C1371 1.419 . S
C1369 H1373 0.930 . S
C1370 C1369 1.369 . S
C1370 C1379 1.429 . S
C1371 C1369 1.419 . S
C1371 C1372 1.363 . S
C1371 H1374 0.929 . S
C1372 C1371 1.363 . S
C1372 C1378 1.428 . S
H1373 C1369 0.930 . S
H1374 C1371 0.929 . S
S1375 N1376 1.613 . S
S1375 N1377 1.610 . S
N1376 S1375 1.613 . S
N1376 C1379 1.350 . S
N1377 S1375 1.610 . S
N1377 C1378 1.351 . S
C1378 C1372 1.428 . S
C1378 N1377 1.351 . S
C1378 C1379 1.434 . S
C1379 C1370 1.429 . S
C1379 N1376 1.350 . S
C1379 C1378 1.434 . S
C1380 C1381 1.369 . S
C1380 C1382 1.419 . S
C1380 H1384 0.930 . S
C1381 C1380 1.369 . S
C1381 C1390 1.429 . S
C1382 C1380 1.419 . S
C1382 C1383 1.363 . S
C1382 H1385 0.929 . S
C1383 C1382 1.363 . S
C1383 C1389 1.428 . S
H1384 C1380 0.930 . S
H1385 C1382 0.929 . S
S1386 N1387 1.613 . S
S1386 N1388 1.610 . S
N1387 S1386 1.613 . S
N1387 C1390 1.350 . S
N1388 S1386 1.610 . S
N1388 C1389 1.351 . S
C1389 C1383 1.428 . S
C1389 N1388 1.351 . S
C1389 C1390 1.434 . S
C1390 C1381 1.429 . S
C1390 N1387 1.350 . S
C1390 C1389 1.434 . S
C1391 C1392 1.369 . S
C1391 C1393 1.419 . S
C1391 H1395 0.930 . S
C1392 C1391 1.369 . S
C1392 C1401 1.429 . S
C1393 C1391 1.419 . S
C1393 C1394 1.363 . S
C1393 H1396 0.929 . S
C1394 C1393 1.363 . S
C1394 C1400 1.428 . S
H1395 C1391 0.930 . S
H1396 C1393 0.929 . S
S1397 N1398 1.613 . S
S1397 N1399 1.610 . S
N1398 S1397 1.613 . S
N1398 C1401 1.350 . S
N1399 S1397 1.610 . S
N1399 C1400 1.351 . S
C1400 C1394 1.428 . S
C1400 N1399 1.351 . S
C1400 C1401 1.434 . S
C1401 C1392 1.429 . S
C1401 N1398 1.350 . S
C1401 C1400 1.434 . S
C1402 C1403 1.369 . S
C1402 C1404 1.419 . S
C1402 H1406 0.930 . S
C1403 C1402 1.369 . S
C1403 C1412 1.429 . S
C1404 C1402 1.419 . S
C1404 C1405 1.363 . S
C1404 H1407 0.929 . S
C1405 C1404 1.363 . S
C1405 C1411 1.428 . S
H1406 C1402 0.930 . S
H1407 C1404 0.929 . S
S1408 N1409 1.613 . S
S1408 N1410 1.610 . S
N1409 S1408 1.613 . S
N1409 C1412 1.350 . S
N1410 S1408 1.610 . S
N1410 C1411 1.351 . S
C1411 C1405 1.428 . S
C1411 N1410 1.351 . S
C1411 C1412 1.434 . S
C1412 C1403 1.429 . S
C1412 N1409 1.350 . S
C1412 C1411 1.434 . S
C1413 C1414 1.369 . S
C1413 C1415 1.419 . S
C1413 H1417 0.930 . S
C1414 C1413 1.369 . S
C1414 C1423 1.429 . S
C1415 C1413 1.419 . S
C1415 C1416 1.363 . S
C1415 H1418 0.929 . S
C1416 C1415 1.363 . S
C1416 C1422 1.428 . S
H1417 C1413 0.930 . S
H1418 C1415 0.929 . S
S1419 N1420 1.613 . S
S1419 N1421 1.610 . S
N1420 S1419 1.613 . S
N1420 C1423 1.350 . S
N1421 S1419 1.610 . S
N1421 C1422 1.351 . S
C1422 C1416 1.428 . S
C1422 N1421 1.351 . S
C1422 C1423 1.434 . S
C1423 C1414 1.429 . S
C1423 N1420 1.350 . S
C1423 C1422 1.434 . S
C1424 C1425 1.369 . S
C1424 C1426 1.419 . S
C1424 H1428 0.930 . S
C1425 C1424 1.369 . S
C1425 C1434 1.429 . S
C1426 C1424 1.419 . S
C1426 C1427 1.363 . S
C1426 H1429 0.929 . S
C1427 C1426 1.363 . S
C1427 C1433 1.428 . S
H1428 C1424 0.930 . S
H1429 C1426 0.929 . S
S1430 N1431 1.613 . S
S1430 N1432 1.610 . S
N1431 S1430 1.613 . S
N1431 C1434 1.350 . S
N1432 S1430 1.610 . S
N1432 C1433 1.351 . S
C1433 C1427 1.428 . S
C1433 N1432 1.351 . S
C1433 C1434 1.434 . S
C1434 C1425 1.429 . S
C1434 N1431 1.350 . S
C1434 C1433 1.434 . S
C1435 C1436 1.369 . S
C1435 C1437 1.419 . S
C1435 H1439 0.930 . S
C1436 C1435 1.369 . S
C1436 C1445 1.429 . S
C1437 C1435 1.419 . S
C1437 C1438 1.363 . S
C1437 H1440 0.929 . S
C1438 C1437 1.363 . S
C1438 C1444 1.428 . S
H1439 C1435 0.930 . S
H1440 C1437 0.929 . S
S1441 N1442 1.613 . S
S1441 N1443 1.610 . S
N1442 S1441 1.613 . S
N1442 C1445 1.350 . S
N1443 S1441 1.610 . S
N1443 C1444 1.351 . S
C1444 C1438 1.428 . S
C1444 N1443 1.351 . S
C1444 C1445 1.434 . S
C1445 C1436 1.429 . S
C1445 N1442 1.350 . S
C1445 C1444 1.434 . S
C1446 C1447 1.369 . S
C1446 C1448 1.419 . S
C1446 H1450 0.930 . S
C1447 C1446 1.369 . S
C1447 C1456 1.429 . S
C1448 C1446 1.419 . S
C1448 C1449 1.363 . S
C1448 H1451 0.929 . S
C1449 C1448 1.363 . S
C1449 C1455 1.428 . S
H1450 C1446 0.930 . S
H1451 C1448 0.929 . S
S1452 N1453 1.613 . S
S1452 N1454 1.610 1_556 S
N1453 S1452 1.613 . S
N1453 C1456 1.350 . S
N1454 S1452 1.610 1_554 S
N1454 C1455 1.351 1_554 S
C1455 C1449 1.428 . S
C1455 N1454 1.351 1_556 S
C1455 C1456 1.434 . S
C1456 C1447 1.429 . S
C1456 N1453 1.350 . S
C1456 C1455 1.434 . S
C1457 C1458 1.369 . S
C1457 C1459 1.419 . S
C1457 H1461 0.930 . S
C1458 C1457 1.369 . S
C1458 C1467 1.429 . S
C1459 C1457 1.419 . S
C1459 C1460 1.363 . S
C1459 H1462 0.929 . S
C1460 C1459 1.363 . S
C1460 C1466 1.428 . S
H1461 C1457 0.930 . S
H1462 C1459 0.929 . S
S1463 N1464 1.613 . S
S1463 N1465 1.610 . S
N1464 S1463 1.613 . S
N1464 C1467 1.350 . S
N1465 S1463 1.610 . S
N1465 C1466 1.351 . S
C1466 C1460 1.428 . S
C1466 N1465 1.351 . S
C1466 C1467 1.434 . S
C1467 C1458 1.429 . S
C1467 N1464 1.350 . S
C1467 C1466 1.434 . S
C1468 C1469 1.369 . S
C1468 C1470 1.419 . S
C1468 H1472 0.930 . S
C1469 C1468 1.369 . S
C1469 C1478 1.429 . S
C1470 C1468 1.419 . S
C1470 C1471 1.363 . S
C1470 H1473 0.929 . S
C1471 C1470 1.363 . S
C1471 C1477 1.428 . S
H1472 C1468 0.930 . S
H1473 C1470 0.929 . S
S1474 N1475 1.613 . S
S1474 N1476 1.610 . S
N1475 S1474 1.613 . S
N1475 C1478 1.350 . S
N1476 S1474 1.610 . S
N1476 C1477 1.351 . S
C1477 C1471 1.428 . S
C1477 N1476 1.351 . S
C1477 C1478 1.434 . S
C1478 C1469 1.429 . S
C1478 N1475 1.350 . S
C1478 C1477 1.434 . S
C1479 C1480 1.369 . S
C1479 C1481 1.419 1_554 S
C1479 H1483 0.930 . S
C1480 C1479 1.369 . S
C1480 C1489 1.429 1_554 S
C1481 C1479 1.419 1_556 S
C1481 C1482 1.363 . S
C1481 H1484 0.929 . S
C1482 C1481 1.363 . S
C1482 C1488 1.428 . S
H1483 C1479 0.930 . S
H1484 C1481 0.929 . S
S1485 N1486 1.613 . S
S1485 N1487 1.610 . S
N1486 S1485 1.613 . S
N1486 C1489 1.350 . S
N1487 S1485 1.610 . S
N1487 C1488 1.351 . S
C1488 C1482 1.428 . S
C1488 N1487 1.351 . S
C1488 C1489 1.434 . S
C1489 C1480 1.429 1_556 S
C1489 N1486 1.350 . S
C1489 C1488 1.434 . S
C1490 C1491 1.369 . S
C1490 C1492 1.419 . S
C1490 H1494 0.930 . S
C1491 C1490 1.369 . S
C1491 C1500 1.429 . S
C1492 C1490 1.419 . S
C1492 C1493 1.363 1_556 S
C1492 H1495 0.929 . S
C1493 C1492 1.363 1_554 S
C1493 C1499 1.428 . S
H1494 C1490 0.930 . S
H1495 C1492 0.929 . S
S1496 N1497 1.613 . S
S1496 N1498 1.610 . S
N1497 S1496 1.613 . S
N1497 C1500 1.350 1_554 S
N1498 S1496 1.610 . S
N1498 C1499 1.351 . S
C1499 C1493 1.428 . S
C1499 N1498 1.351 . S
C1499 C1500 1.434 1_554 S
C1500 C1491 1.429 . S
C1500 N1497 1.350 1_556 S
C1500 C1499 1.434 1_556 S
C1501 C1502 1.369 . S
C1501 C1503 1.419 . S
C1501 H1505 0.930 . S
C1502 C1501 1.369 . S
C1502 C1511 1.419 1_556 S
C1503 C1501 1.419 . S
C1503 C1504 1.363 1_556 S
C1503 H1506 0.929 . S
C1504 C1503 1.363 1_554 S
C1504 C1510 1.428 . S
H1505 C1501 0.930 . S
H1506 C1503 0.929 . S
S1507 N1508 1.613 . S
S1507 N1509 1.610 . S
N1508 S1507 1.613 . S
N1508 C1511 1.352 . S
N1509 S1507 1.610 . S
N1509 C1510 1.351 . S
C1510 C1504 1.428 . S
C1510 N1509 1.351 . S
C1510 C1511 1.443 . S
C1511 C1502 1.419 1_554 S
C1511 N1508 1.352 . S
C1511 C1510 1.443 . S
C1512 C1513 1.366 1_655 S
C1512 C1514 1.420 . S
C1512 H1516 0.912 . S
C1513 C1512 1.366 1_455 S
C1513 C1522 1.429 . S
C1514 C1512 1.420 . S
C1514 C1515 1.363 . S
C1514 H1517 0.929 . S
C1515 C1514 1.363 . S
C1515 C1521 1.408 1_655 S
H1516 C1512 0.912 . S
H1517 C1514 0.929 . S
S1518 N1519 1.613 . S
S1518 N1520 1.610 . S
N1519 S1518 1.613 . S
N1519 C1522 1.350 . S
N1520 S1518 1.610 . S
N1520 C1521 1.362 . S
C1521 C1515 1.408 1_455 S
C1521 N1520 1.362 . S
C1521 C1522 1.445 . S
C1522 C1513 1.429 . S
C1522 N1519 1.350 . S
C1522 C1521 1.445 . S
C1523 C1524 1.369 . S
C1523 C1525 1.419 . S
C1523 H1527 0.930 . S
C1524 C1523 1.369 . S
C1524 C1533 1.429 . S
C1525 C1523 1.419 . S
C1525 C1526 1.363 . S
C1525 H1528 0.929 . S
C1526 C1525 1.363 . S
C1526 C1532 1.428 . S
H1527 C1523 0.930 . S
H1528 C1525 0.929 . S
S1529 N1530 1.613 . S
S1529 N1531 1.610 . S
N1530 S1529 1.613 . S
N1530 C1533 1.350 . S
N1531 S1529 1.610 . S
N1531 C1532 1.351 . S
C1532 C1526 1.428 . S
C1532 N1531 1.351 . S
C1532 C1533 1.434 . S
C1533 C1524 1.429 . S
C1533 N1530 1.350 . S
C1533 C1532 1.434 . S
C1534 C1535 1.369 . S
C1534 C1536 1.419 . S
C1534 H1538 0.930 . S
C1535 C1534 1.369 . S
C1535 C1544 1.429 1_565 S
C1536 C1534 1.419 . S
C1536 C1537 1.363 1_565 S
C1536 H1539 0.929 . S
C1537 C1536 1.363 1_545 S
C1537 C1543 1.428 . S
H1538 C1534 0.930 . S
H1539 C1536 0.929 . S
S1540 N1541 1.613 . S
S1540 N1542 1.610 . S
N1541 S1540 1.613 . S
N1541 C1544 1.350 . S
N1542 S1540 1.610 . S
N1542 C1543 1.351 . S
C1543 C1537 1.428 . S
C1543 N1542 1.351 . S
C1543 C1544 1.434 . S
C1544 C1535 1.429 1_545 S
C1544 N1541 1.350 . S
C1544 C1543 1.434 . S
C1545 C1546 1.369 . S
C1545 C1547 1.419 1_655 S
C1545 H1549 0.930 . S
C1546 C1545 1.369 . S
C1546 C1555 1.429 . S
C1547 C1545 1.419 1_455 S
C1547 C1548 1.363 . S
C1547 H1550 0.929 . S
C1548 C1547 1.363 . S
C1548 C1554 1.428 . S
H1549 C1545 0.930 . S
H1550 C1547 0.929 . S
S1551 N1552 1.613 . S
S1551 N1553 1.610 1_655 S
N1552 S1551 1.613 . S
N1552 C1555 1.350 . S
N1553 S1551 1.610 1_455 S
N1553 C1554 1.351 . S
C1554 C1548 1.428 . S
C1554 N1553 1.351 . S
C1554 C1555 1.434 1_455 S
C1555 C1546 1.429 . S
C1555 N1552 1.350 . S
C1555 C1554 1.434 1_655 S
C1556 C1557 1.369 . S
C1556 C1558 1.419 . S
C1556 H1560 0.930 . S
C1557 C1556 1.369 . S
C1557 C1566 1.429 . S
C1558 C1556 1.419 . S
C1558 C1559 1.363 . S
C1558 H1561 0.929 . S
C1559 C1558 1.363 . S
C1559 C1565 1.428 . S
H1560 C1556 0.930 . S
H1561 C1558 0.929 . S
S1562 N1563 1.613 . S
S1562 N1564 1.610 . S
N1563 S1562 1.613 . S
N1563 C1566 1.350 . S
N1564 S1562 1.610 . S
N1564 C1565 1.351 . S
C1565 C1559 1.428 . S
C1565 N1564 1.351 . S
C1565 C1566 1.434 . S
C1566 C1557 1.429 . S
C1566 N1563 1.350 . S
C1566 C1565 1.434 . S
C1567 C1568 1.369 1_565 S
C1567 C1569 1.419 . S
C1567 H1571 0.930 . S
C1568 C1567 1.369 1_545 S
C1568 C1577 1.429 . S
C1569 C1567 1.419 . S
C1569 C1570 1.363 . S
C1569 H1572 0.929 . S
C1570 C1569 1.363 . S
C1570 C1576 1.428 1_565 S
H1571 C1567 0.930 . S
H1572 C1569 0.929 . S
S1573 N1574 1.613 . S
S1573 N1575 1.610 . S
N1574 S1573 1.613 . S
N1574 C1577 1.350 . S
N1575 S1573 1.610 . S
N1575 C1576 1.351 . S
C1576 C1570 1.428 1_545 S
C1576 N1575 1.351 . S
C1576 C1577 1.434 . S
C1577 C1568 1.429 . S
C1577 N1574 1.350 . S
C1577 C1576 1.434 . S
C1578 C1579 1.369 . S
C1578 C1580 1.419 . S
C1578 H1582 0.930 . S
C1579 C1578 1.369 . S
C1579 C1588 1.429 . S
C1580 C1578 1.419 . S
C1580 C1581 1.363 . S
C1580 H1583 0.929 . S
C1581 C1580 1.363 . S
C1581 C1587 1.428 . S
H1582 C1578 0.930 . S
H1583 C1580 0.929 . S
S1584 N1585 1.613 . S
S1584 N1586 1.610 . S
N1585 S1584 1.613 . S
N1585 C1588 1.350 . S
N1586 S1584 1.610 . S
N1586 C1587 1.351 . S
C1587 C1581 1.428 . S
C1587 N1586 1.351 . S
C1587 C1588 1.434 . S
C1588 C1579 1.429 . S
C1588 N1585 1.350 . S
C1588 C1587 1.434 . S
C1589 C1590 1.369 . S
C1589 C1591 1.419 . S
C1589 H1593 0.930 . S
C1590 C1589 1.369 . S
C1590 C1599 1.429 . S
C1591 C1589 1.419 . S
C1591 C1592 1.363 . S
C1591 H1594 0.929 . S
C1592 C1591 1.363 . S
C1592 C1598 1.428 . S
H1593 C1589 0.930 . S
H1594 C1591 0.929 . S
S1595 N1596 1.613 . S
S1595 N1597 1.610 . S
N1596 S1595 1.613 . S
N1596 C1599 1.350 . S
N1597 S1595 1.610 . S
N1597 C1598 1.351 . S
C1598 C1592 1.428 . S
C1598 N1597 1.351 . S
C1598 C1599 1.434 . S
C1599 C1590 1.429 . S
C1599 N1596 1.350 . S
C1599 C1598 1.434 . S
C1600 C1601 1.369 . S
C1600 C1602 1.419 . S
C1600 H1604 0.930 . S
C1601 C1600 1.369 . S
C1601 C1610 1.429 . S
C1602 C1600 1.419 . S
C1602 C1603 1.363 . S
C1602 H1605 0.929 . S
C1603 C1602 1.363 . S
C1603 C1609 1.428 . S
H1604 C1600 0.930 . S
H1605 C1602 0.929 . S
S1606 N1607 1.613 . S
S1606 N1608 1.610 . S
N1607 S1606 1.613 . S
N1607 C1610 1.350 . S
N1608 S1606 1.610 . S
N1608 C1609 1.351 . S
C1609 C1603 1.428 . S
C1609 N1608 1.351 . S
C1609 C1610 1.434 . S
C1610 C1601 1.429 . S
C1610 N1607 1.350 . S
C1610 C1609 1.434 . S
C1611 C1612 1.369 . S
C1611 C1613 1.419 . S
C1611 H1615 0.930 . S
C1612 C1611 1.369 . S
C1612 C1621 1.429 . S
C1613 C1611 1.419 . S
C1613 C1614 1.363 . S
C1613 H1616 0.929 . S
C1614 C1613 1.363 . S
C1614 C1620 1.428 . S
H1615 C1611 0.930 . S
H1616 C1613 0.929 . S
S1617 N1618 1.613 . S
S1617 N1619 1.610 . S
N1618 S1617 1.613 . S
N1618 C1621 1.350 . S
N1619 S1617 1.610 . S
N1619 C1620 1.351 . S
C1620 C1614 1.428 . S
C1620 N1619 1.351 . S
C1620 C1621 1.434 . S
C1621 C1612 1.429 . S
C1621 N1618 1.350 . S
C1621 C1620 1.434 . S
C1622 C1623 1.369 . S
C1622 C1624 1.419 . S
C1622 H1626 0.930 . S
C1623 C1622 1.369 . S
C1623 C1632 1.429 . S
C1624 C1622 1.419 . S
C1624 C1625 1.363 . S
C1624 H1627 0.929 . S
C1625 C1624 1.363 . S
C1625 C1631 1.428 . S
H1626 C1622 0.930 . S
H1627 C1624 0.929 . S
S1628 N1629 1.613 . S
S1628 N1630 1.610 . S
N1629 S1628 1.613 . S
N1629 C1632 1.350 . S
N1630 S1628 1.610 . S
N1630 C1631 1.351 . S
C1631 C1625 1.428 . S
C1631 N1630 1.351 . S
C1631 C1632 1.434 . S
C1632 C1623 1.429 . S
C1632 N1629 1.350 . S
C1632 C1631 1.434 . S
C1633 C1634 1.369 . S
C1633 C1635 1.419 . S
C1633 H1637 0.930 . S
C1634 C1633 1.369 . S
C1634 C1643 1.429 . S
C1635 C1633 1.419 . S
C1635 C1636 1.363 . S
C1635 H1638 0.929 . S
C1636 C1635 1.363 . S
C1636 C1642 1.428 . S
H1637 C1633 0.930 . S
H1638 C1635 0.929 . S
S1639 N1640 1.613 . S
S1639 N1641 1.610 . S
N1640 S1639 1.613 . S
N1640 C1643 1.350 . S
N1641 S1639 1.610 . S
N1641 C1642 1.351 . S
C1642 C1636 1.428 . S
C1642 N1641 1.351 . S
C1642 C1643 1.434 . S
C1643 C1634 1.429 . S
C1643 N1640 1.350 . S
C1643 C1642 1.434 . S
C1644 C1645 1.369 1_554 S
C1644 C1646 1.419 1_554 S
C1644 H1648 0.930 . S
C1645 C1644 1.369 1_556 S
C1645 C1654 1.429 . S
C1646 C1644 1.419 1_556 S
C1646 C1647 1.363 . S
C1646 H1649 0.929 . S
C1647 C1646 1.363 . S
C1647 C1653 1.428 . S
H1648 C1644 0.930 . S
H1649 C1646 0.929 . S
S1650 N1651 1.613 . S
S1650 N1652 1.610 . S
N1651 S1650 1.613 . S
N1651 C1654 1.350 . S
N1652 S1650 1.610 . S
N1652 C1653 1.351 . S
C1653 C1647 1.428 . S
C1653 N1652 1.351 . S
C1653 C1654 1.434 . S
C1654 C1645 1.429 . S
C1654 N1651 1.350 . S
C1654 C1653 1.434 . S
C1655 C1656 1.369 . S
C1655 C1657 1.419 1_556 S
C1655 H1659 0.930 . S
C1656 C1655 1.369 . S
C1656 C1665 1.429 . S
C1657 C1655 1.419 1_554 S
C1657 C1658 1.363 1_554 S
C1657 H1660 0.929 . S
C1658 C1657 1.363 1_556 S
C1658 C1664 1.428 . S
H1659 C1655 0.930 . S
H1660 C1657 0.929 . S
S1661 N1662 1.613 . S
S1661 N1663 1.610 . S
N1662 S1661 1.613 . S
N1662 C1665 1.350 . S
N1663 S1661 1.610 . S
N1663 C1664 1.351 . S
C1664 C1658 1.428 . S
C1664 N1663 1.351 . S
C1664 C1665 1.434 . S
C1665 C1656 1.429 . S
C1665 N1662 1.350 . S
C1665 C1664 1.434 . S
C1666 C1667 1.369 . S
C1666 C1668 1.419 . S
C1666 H1670 0.930 . S
C1667 C1666 1.369 . S
C1667 C1676 1.429 . S
C1668 C1666 1.419 . S
C1668 C1669 1.369 . S
C1668 H1671 0.929 . S
C1669 C1668 1.369 . S
C1669 C1675 1.428 1_556 S
H1670 C1666 0.930 . S
H1671 C1668 0.929 . S
S1672 N1673 1.613 1_554 S
S1672 N1674 1.610 . S
N1673 S1672 1.613 1_556 S
N1673 C1676 1.350 . S
N1674 S1672 1.610 . S
N1674 C1675 1.351 . S
C1675 C1669 1.428 1_554 S
C1675 N1674 1.351 . S
C1675 C1676 1.434 1_554 S
C1676 C1667 1.429 . S
C1676 N1673 1.350 . S
C1676 C1675 1.434 1_556 S
C1677 C1678 1.369 . S
C1677 C1679 1.419 . S
C1677 H1681 0.930 . S
C1678 C1677 1.369 . S
C1678 C1687 1.429 . S
C1679 C1677 1.419 . S
C1679 C1680 1.363 . S
C1679 H1682 0.929 . S
C1680 C1679 1.363 . S
C1680 C1686 1.428 . S
H1681 C1677 0.930 . S
H1682 C1679 0.929 . S
S1683 N1684 1.613 . S
S1683 N1685 1.610 . S
N1684 S1683 1.613 . S
N1684 C1687 1.350 . S
N1685 S1683 1.610 . S
N1685 C1686 1.351 . S
C1686 C1680 1.428 . S
C1686 N1685 1.351 . S
C1686 C1687 1.434 . S
C1687 C1678 1.429 . S
C1687 N1684 1.350 . S
C1687 C1686 1.434 . S
C1688 C1689 1.369 . S
C1688 C1690 1.419 . S
C1688 H1692 0.930 . S
C1689 C1688 1.369 . S
C1689 C1698 1.429 . S
C1690 C1688 1.419 . S
C1690 C1691 1.363 . S
C1690 H1693 0.929 . S
C1691 C1690 1.363 . S
C1691 C1697 1.428 . S
H1692 C1688 0.930 . S
H1693 C1690 0.929 . S
S1694 N1695 1.613 . S
S1694 N1696 1.610 . S
N1695 S1694 1.613 . S
N1695 C1698 1.350 . S
N1696 S1694 1.610 . S
N1696 C1697 1.351 . S
C1697 C1691 1.428 . S
C1697 N1696 1.351 . S
C1697 C1698 1.434 . S
C1698 C1689 1.429 . S
C1698 N1695 1.350 . S
C1698 C1697 1.434 . S
C1699 C1700 1.369 . S
C1699 C1701 1.419 . S
C1699 H1703 0.930 . S
C1700 C1699 1.369 . S
C1700 C1709 1.429 . S
C1701 C1699 1.419 . S
C1701 C1702 1.363 . S
C1701 H1704 0.929 . S
C1702 C1701 1.363 . S
C1702 C1708 1.428 . S
H1703 C1699 0.930 . S
H1704 C1701 0.929 . S
S1705 N1706 1.613 . S
S1705 N1707 1.610 . S
N1706 S1705 1.613 . S
N1706 C1709 1.350 . S
N1707 S1705 1.610 . S
N1707 C1708 1.351 . S
C1708 C1702 1.428 . S
C1708 N1707 1.351 . S
C1708 C1709 1.434 . S
C1709 C1700 1.429 . S
C1709 N1706 1.350 . S
C1709 C1708 1.434 . S
C1710 C1711 1.369 . S
C1710 C1712 1.419 1_455 S
C1710 H1714 0.930 . S
C1711 C1710 1.369 . S
C1711 C1720 1.429 . S
C1712 C1710 1.419 1_655 S
C1712 C1713 1.363 1_554 S
C1712 H1715 0.929 . S
C1713 C1712 1.363 1_556 S
C1713 C1719 1.428 . S
H1714 C1710 0.930 . S
H1715 C1712 0.929 . S
S1716 N1717 1.613 1_656 S
S1716 N1718 1.610 . S
N1717 S1716 1.613 1_454 S
N1717 C1720 1.350 . S
N1718 S1716 1.610 . S
N1718 C1719 1.351 . S
C1719 C1713 1.428 . S
C1719 N1718 1.351 . S
C1719 C1720 1.434 1_656 S
C1720 C1711 1.429 . S
C1720 N1717 1.350 . S
C1720 C1719 1.434 1_454 S
C1721 C1722 1.369 . S
C1721 C1723 1.419 1_554 S
C1721 H1725 0.930 . S
C1722 C1721 1.369 . S
C1722 C1731 1.429 . S
C1723 C1721 1.419 1_556 S
C1723 C1724 1.363 . S
C1723 H1726 0.929 . S
C1724 C1723 1.363 . S
C1724 C1730 1.428 1_556 S
H1725 C1721 0.930 . S
H1726 C1723 0.929 . S
S1727 N1728 1.613 . S
S1727 N1729 1.610 . S
N1728 S1727 1.613 . S
N1728 C1731 1.350 . S
N1729 S1727 1.610 . S
N1729 C1730 1.351 . S
C1730 C1724 1.428 1_554 S
C1730 N1729 1.351 . S
C1730 C1731 1.434 . S
C1731 C1722 1.429 . S
C1731 N1728 1.350 . S
C1731 C1730 1.434 . S
C1732 C1733 1.402 . S
C1732 C1734 1.400 1_546 S
C1732 H1736 0.917 1_545 S
C1733 C1732 1.402 . S
C1733 C1742 1.429 1_556 S
C1734 C1732 1.400 1_564 S
C1734 C1735 1.363 . S
C1734 H1737 0.929 . S
C1735 C1734 1.363 . S
C1735 C1741 1.414 1_565 S
H1736 C1732 0.917 1_565 S
H1737 C1734 0.929 . S
S1738 N1739 1.613 . S
S1738 N1740 1.610 . S
N1739 S1738 1.613 . S
N1739 C1742 1.350 . S
N1740 S1738 1.610 . S
N1740 C1741 1.359 . S
C1741 C1735 1.414 1_545 S
C1741 N1740 1.359 . S
C1741 C1742 1.442 . S
C1742 C1733 1.429 1_554 S
C1742 N1739 1.350 . S
C1742 C1741 1.442 . S
C1743 C1744 1.369 . S
C1743 C1745 1.419 1_565 S
C1743 H1747 0.930 . S
C1744 C1743 1.369 . S
C1744 C1753 1.429 . S
C1745 C1743 1.419 1_545 S
C1745 C1746 1.363 . S
C1745 H1748 0.929 . S
C1746 C1745 1.363 . S
C1746 C1752 1.428 . S
H1747 C1743 0.930 . S
H1748 C1745 0.929 . S
S1749 N1750 1.613 . S
S1749 N1751 1.610 1_565 S
N1750 S1749 1.613 . S
N1750 C1753 1.350 . S
N1751 S1749 1.610 1_545 S
N1751 C1752 1.351 . S
C1752 C1746 1.428 . S
C1752 N1751 1.351 . S
C1752 C1753 1.434 1_545 S
C1753 C1744 1.429 . S
C1753 N1750 1.350 . S
C1753 C1752 1.434 1_565 S
C1754 C1755 1.369 1_455 S
C1754 C1756 1.419 . S
C1754 H1758 0.930 . S
C1755 C1754 1.369 1_655 S
C1755 C1764 1.429 . S
C1756 C1754 1.419 . S
C1756 C1757 1.363 . S
C1756 H1759 0.929 . S
C1757 C1756 1.363 . S
C1757 C1763 1.428 1_455 S
H1758 C1754 0.930 . S
H1759 C1756 0.929 . S
S1760 N1761 1.613 . S
S1760 N1762 1.610 . S
N1761 S1760 1.613 . S
N1761 C1764 1.350 . S
N1762 S1760 1.610 . S
N1762 C1763 1.351 . S
C1763 C1757 1.428 1_655 S
C1763 N1762 1.351 . S
C1763 C1764 1.434 . S
C1764 C1755 1.429 . S
C1764 N1761 1.350 . S
C1764 C1763 1.434 . S
C1765 C1766 1.369 . S
C1765 C1767 1.419 . S
C1765 H1769 0.930 . S
C1766 C1765 1.369 . S
C1766 C1775 1.429 . S
C1767 C1765 1.419 . S
C1767 C1768 1.363 . S
C1767 H1770 0.929 . S
C1768 C1767 1.363 . S
C1768 C1774 1.428 . S
H1769 C1765 0.930 . S
H1770 C1767 0.929 . S
S1771 N1772 1.613 . S
S1771 N1773 1.610 . S
N1772 S1771 1.613 . S
N1772 C1775 1.350 . S
N1773 S1771 1.610 . S
N1773 C1774 1.351 . S
C1774 C1768 1.428 . S
C1774 N1773 1.351 . S
C1774 C1775 1.434 . S
C1775 C1766 1.429 . S
C1775 N1772 1.350 . S
C1775 C1774 1.434 . S
C1776 C1777 1.369 . S
C1776 C1778 1.419 . S
C1776 H1780 0.930 . S
C1777 C1776 1.369 . S
C1777 C1786 1.429 . S
C1778 C1776 1.419 . S
C1778 C1779 1.363 . S
C1778 H1781 0.929 . S
C1779 C1778 1.363 . S
C1779 C1785 1.428 . S
H1780 C1776 0.930 . S
H1781 C1778 0.929 . S
S1782 N1783 1.613 . S
S1782 N1784 1.610 . S
N1783 S1782 1.613 . S
N1783 C1786 1.350 . S
N1784 S1782 1.610 . S
N1784 C1785 1.351 . S
C1785 C1779 1.428 . S
C1785 N1784 1.351 . S
C1785 C1786 1.434 . S
C1786 C1777 1.429 . S
C1786 N1783 1.350 . S
C1786 C1785 1.434 . S
C1787 C1788 1.369 . S
C1787 C1789 1.419 . S
C1787 H1791 0.930 . S
C1788 C1787 1.369 . S
C1788 C1797 1.429 . S
C1789 C1787 1.419 . S
C1789 C1790 1.363 . S
C1789 H1792 0.929 . S
C1790 C1789 1.363 . S
C1790 C1796 1.428 . S
H1791 C1787 0.930 . S
H1792 C1789 0.929 . S
S1793 N1794 1.613 . S
S1793 N1795 1.610 . S
N1794 S1793 1.613 . S
N1794 C1797 1.350 . S
N1795 S1793 1.610 . S
N1795 C1796 1.351 . S
C1796 C1790 1.428 . S
C1796 N1795 1.351 . S
C1796 C1797 1.434 . S
C1797 C1788 1.429 . S
C1797 N1794 1.350 . S
C1797 C1796 1.434 . S
C1798 C1799 1.369 . S
C1798 C1800 1.419 . S
C1798 H1802 0.930 . S
C1799 C1798 1.369 . S
C1799 C1808 1.429 . S
C1800 C1798 1.419 . S
C1800 C1801 1.363 . S
C1800 H1803 0.929 . S
C1801 C1800 1.363 . S
C1801 C1807 1.428 . S
H1802 C1798 0.930 . S
H1803 C1800 0.929 . S
S1804 N1805 1.613 . S
S1804 N1806 1.610 . S
N1805 S1804 1.613 . S
N1805 C1808 1.350 . S
N1806 S1804 1.610 . S
N1806 C1807 1.351 . S
C1807 C1801 1.428 . S
C1807 N1806 1.351 . S
C1807 C1808 1.434 . S
C1808 C1799 1.429 . S
C1808 N1805 1.350 . S
C1808 C1807 1.434 . S
C1809 C1810 1.369 . S
C1809 C1811 1.419 . S
C1809 H1813 0.930 . S
C1810 C1809 1.369 . S
C1810 C1819 1.429 . S
C1811 C1809 1.419 . S
C1811 C1812 1.363 . S
C1811 H1814 0.929 . S
C1812 C1811 1.363 . S
C1812 C1818 1.428 . S
H1813 C1809 0.930 . S
H1814 C1811 0.929 . S
S1815 N1816 1.613 . S
S1815 N1817 1.610 . S
N1816 S1815 1.613 . S
N1816 C1819 1.350 . S
N1817 S1815 1.610 . S
N1817 C1818 1.351 . S
C1818 C1812 1.428 . S
C1818 N1817 1.351 . S
C1818 C1819 1.434 . S
C1819 C1810 1.429 . S
C1819 N1816 1.350 . S
C1819 C1818 1.434 . S
C1820 C1821 1.369 . S
C1820 C1822 1.419 . S
C1820 H1824 0.930 . S
C1821 C1820 1.369 . S
C1821 C1830 1.429 . S
C1822 C1820 1.419 . S
C1822 C1823 1.363 . S
C1822 H1825 0.929 . S
C1823 C1822 1.363 . S
C1823 C1829 1.428 . S
H1824 C1820 0.930 . S
H1825 C1822 0.929 . S
S1826 N1827 1.613 . S
S1826 N1828 1.610 . S
N1827 S1826 1.613 . S
N1827 C1830 1.350 . S
N1828 S1826 1.610 . S
N1828 C1829 1.351 . S
C1829 C1823 1.428 . S
C1829 N1828 1.351 . S
C1829 C1830 1.434 . S
C1830 C1821 1.429 . S
C1830 N1827 1.350 . S
C1830 C1829 1.434 . S
C1831 C1832 1.369 . S
C1831 C1833 1.419 . S
C1831 H1835 0.930 . S
C1832 C1831 1.369 . S
C1832 C1841 1.429 . S
C1833 C1831 1.419 . S
C1833 C1834 1.363 . S
C1833 H1836 0.929 . S
C1834 C1833 1.363 . S
C1834 C1840 1.428 . S
H1835 C1831 0.930 . S
H1836 C1833 0.929 . S
S1837 N1838 1.613 . S
S1837 N1839 1.610 . S
N1838 S1837 1.613 . S
N1838 C1841 1.350 . S
N1839 S1837 1.610 . S
N1839 C1840 1.351 . S
C1840 C1834 1.428 . S
C1840 N1839 1.351 . S
C1840 C1841 1.434 . S
C1841 C1832 1.429 . S
C1841 N1838 1.350 . S
C1841 C1840 1.434 . S
C1842 C1843 1.369 . S
C1842 C1844 1.419 . S
C1842 H1846 0.930 . S
C1843 C1842 1.369 . S
C1843 C1852 1.429 . S
C1844 C1842 1.419 . S
C1844 C1845 1.363 . S
C1844 H1847 0.929 . S
C1845 C1844 1.363 . S
C1845 C1851 1.428 . S
H1846 C1842 0.930 . S
H1847 C1844 0.929 . S
S1848 N1849 1.613 . S
S1848 N1850 1.610 . S
N1849 S1848 1.613 . S
N1849 C1852 1.350 . S
N1850 S1848 1.610 . S
N1850 C1851 1.351 . S
C1851 C1845 1.428 . S
C1851 N1850 1.351 . S
C1851 C1852 1.434 . S
C1852 C1843 1.429 . S
C1852 N1849 1.350 . S
C1852 C1851 1.434 . S
C1853 C1854 1.369 . S
C1853 C1855 1.419 . S
C1853 H1857 0.930 . S
C1854 C1853 1.369 . S
C1854 C1863 1.429 . S
C1855 C1853 1.419 . S
C1855 C1856 1.363 . S
C1855 H1858 0.929 . S
C1856 C1855 1.363 . S
C1856 C1862 1.428 . S
H1857 C1853 0.930 . S
H1858 C1855 0.929 . S
S1859 N1860 1.613 . S
S1859 N1861 1.610 . S
N1860 S1859 1.613 . S
N1860 C1863 1.350 . S
N1861 S1859 1.610 . S
N1861 C1862 1.351 . S
C1862 C1856 1.428 . S
C1862 N1861 1.351 . S
C1862 C1863 1.434 . S
C1863 C1854 1.429 . S
C1863 N1860 1.350 . S
C1863 C1862 1.434 . S
C1864 C1865 1.369 . S
C1864 C1866 1.419 . S
C1864 H1868 0.930 . S
C1865 C1864 1.369 . S
C1865 C1874 1.429 . S
C1866 C1864 1.419 . S
C1866 C1867 1.363 . S
C1866 H1869 0.929 . S
C1867 C1866 1.363 . S
C1867 C1873 1.428 . S
H1868 C1864 0.930 . S
H1869 C1866 0.929 . S
S1870 N1871 1.613 . S
S1870 N1872 1.610 . S
N1871 S1870 1.613 . S
N1871 C1874 1.350 . S
N1872 S1870 1.610 . S
N1872 C1873 1.351 . S
C1873 C1867 1.428 . S
C1873 N1872 1.351 . S
C1873 C1874 1.434 . S
C1874 C1865 1.429 . S
C1874 N1871 1.350 . S
C1874 C1873 1.434 . S
C1875 C1876 1.369 . S
C1875 C1877 1.419 . S
C1875 H1879 0.930 . S
C1876 C1875 1.369 . S
C1876 C1885 1.429 . S
C1877 C1875 1.419 . S
C1877 C1878 1.363 . S
C1877 H1880 0.929 . S
C1878 C1877 1.363 . S
C1878 C1884 1.428 . S
H1879 C1875 0.930 . S
H1880 C1877 0.929 . S
S1881 N1882 1.613 . S
S1881 N1883 1.610 . S
N1882 S1881 1.613 . S
N1882 C1885 1.350 . S
N1883 S1881 1.610 . S
N1883 C1884 1.351 . S
C1884 C1878 1.428 . S
C1884 N1883 1.351 . S
C1884 C1885 1.434 . S
C1885 C1876 1.429 . S
C1885 N1882 1.350 . S
C1885 C1884 1.434 . S
C1886 C1887 1.369 . S
C1886 C1888 1.419 . S
C1886 H1890 0.930 . S
C1887 C1886 1.369 . S
C1887 C1896 1.429 . S
C1888 C1886 1.419 . S
C1888 C1889 1.363 . S
C1888 H1891 0.929 . S
C1889 C1888 1.363 . S
C1889 C1895 1.428 . S
H1890 C1886 0.930 . S
H1891 C1888 0.929 . S
S1892 N1893 1.613 . S
S1892 N1894 1.610 . S
N1893 S1892 1.613 . S
N1893 C1896 1.350 . S
N1894 S1892 1.610 . S
N1894 C1895 1.351 . S
C1895 C1889 1.428 . S
C1895 N1894 1.351 . S
C1895 C1896 1.434 . S
C1896 C1887 1.429 . S
C1896 N1893 1.350 . S
C1896 C1895 1.434 . S
C1897 C1898 1.369 . S
C1897 C1899 1.419 . S
C1897 H1901 0.930 . S
C1898 C1897 1.369 . S
C1898 C1907 1.429 . S
C1899 C1897 1.419 . S
C1899 C1900 1.363 . S
C1899 H1902 0.929 . S
C1900 C1899 1.363 . S
C1900 C1906 1.428 . S
H1901 C1897 0.930 . S
H1902 C1899 0.929 . S
S1903 N1904 1.613 . S
S1903 N1905 1.610 . S
N1904 S1903 1.613 . S
N1904 C1907 1.350 . S
N1905 S1903 1.610 . S
N1905 C1906 1.351 . S
C1906 C1900 1.428 . S
C1906 N1905 1.351 . S
C1906 C1907 1.434 . S
C1907 C1898 1.429 . S
C1907 N1904 1.350 . S
C1907 C1906 1.434 . S
C721 C308 1.536 . S
C723 C8 1.531 1_556 S
C732 C328 1.531 . S
C734 C28 1.538 1_556 S
C743 C48 1.533 1_556 S
C745 C348 1.538 . S
C754 C68 1.535 . S
C756 C488 1.538 . S
C765 C88 1.536 . S
C767 C508 1.530 . S
C776 C108 1.532 . S
C778 C528 1.532 . S
C787 C669 1.536 . S
C789 C129 1.531 . S
C798 C689 1.530 . S
C800 C149 1.537 . S
C809 C169 1.535 . S
C811 C709 1.531 . S
C820 C369 1.532 . S
C822 C189 1.538 . S
C831 C209 1.530 . S
C833 C389 1.537 . S
C842 C229 1.539 . S
C844 C409 1.531 . S
C853 C548 1.539 . S
C855 C248 1.532 . S
C864 C268 1.534 . S
C866 C568 1.531 . S
C875 C588 1.537 . S
C877 C288 1.535 . S
C886 C609 1.531 . S
C888 C429 1.538 . S
C897 C629 1.538 . S
C899 C449 1.534 . S
C908 C469 1.535 . S
C910 C649 1.537 . S
C919 C1 0.873 . S
C921 C81 0.861 . S
C930 C21 0.873 . S
C932 C101 0.863 . S
C941 C41 0.873 . S
C943 C61 0.861 . S
C952 C122 0.860 . S
C954 C202 0.871 . S
C963 C142 0.860 . S
C965 C222 0.868 . S
C974 C162 0.866 . S
C976 C182 0.869 . S
C985 C241 0.863 . S
C987 C321 0.871 . S
C996 C341 0.866 . S
C998 C261 0.870 . S
C1007 C281 0.859 . S
C1009 C301 0.868 . S
C1018 C362 0.866 . S
C1020 C442 0.862 . S
C1029 C382 0.862 . S
C1031 C462 0.865 . S
C1040 C422 0.859 . S
C1042 C402 0.869 . S
C1051 C481 0.873 . S
C1053 C561 0.861 . S
C1062 C581 0.869 . S
C1064 C501 0.861 . S
C1073 C521 0.859 . S
C1075 C541 0.870 . S
C1084 C602 0.859 . S
C1086 C682 0.862 1_556 S
C1095 C622 0.871 . S
C1097 C702 0.864 . S
C1106 C642 0.859 . S
C1108 C662 0.864 1_556 S
C1117 C201 1.587 . S
C1119 C19 1.593 . S
C1128 C39 1.592 . S
C1130 C221 1.587 . S
C1139 C59 1.599 . S
C1141 C181 1.585 . S
C1150 C79 1.597 . S
C1152 C161 1.587 . S
C1161 C99 1.594 . S
C1163 C121 1.588 . S
C1172 C141 1.580 . S
C1174 C119 1.598 . S
C1183 C138 1.599 . S
C1185 C82 1.582 . S
C1194 C102 1.589 . S
C1196 C158 1.595 . S
C1205 C178 1.596 . S
C1207 C62 1.581 . S
C1216 C198 1.599 . S
C1218 C42 1.586 . S
C1227 C2 1.582 . S
C1229 C218 1.594 . S
C1238 C22 1.583 . S
C1240 C238 1.599 . S
C1249 C441 1.589 . S
C1251 C259 1.595 . S
C1260 C461 1.585 . S
C1262 C279 1.599 . S
C1271 C421 1.585 . S
C1273 C299 1.593 . S
C1282 C401 1.585 . S
C1284 C319 1.593 1_554 S
C1293 C339 1.594 1_554 S
C1295 C361 1.588 . S
C1304 C381 1.582 . S
C1306 C359 1.594 1_554 S
C1315 C322 1.583 . S
C1317 C378 1.599 . S
C1326 C398 1.592 . S
C1328 C342 1.584 . S
C1337 C418 1.594 . S
C1339 C302 1.588 . S
C1348 C282 1.580 . S
C1350 C438 1.596 . S
C1359 C458 1.600 . S
C1361 C242 1.583 . S
C1370 C478 1.599 . S
C1372 C262 1.582 . S
C1381 C499 1.592 . S
C1383 C681 1.585 . S
C1392 C519 1.592 . S
C1394 C701 1.586 . S
C1403 C661 1.589 . S
C1405 C539 1.595 . S
C1414 C641 1.586 . S
C1416 C559 1.593 . S
C1425 C579 1.594 . S
C1427 C601 1.588 . S
C1436 C621 1.584 . S
C1438 C599 1.599 . S
C1447 C618 1.599 . S
C1449 C562 1.582 1_556 S
C1458 C582 1.588 1_556 S
C1460 C638 1.594 . S
C1469 C658 1.594 . S
C1471 C542 1.588 1_556 S
C1480 C678 1.600 . S
C1482 C522 1.582 . S
C1491 C482 1.586 . S
C1493 C698 1.593 . S
C1502 C502 1.587 . S
C1504 C718 1.593 . S
C1513 C18 2.263 . S
C1515 C98 2.262 . S
C1524 C118 2.261 . S
C1526 C38 2.261 . S
C1535 C58 2.261 . S
C1537 C78 2.262 . S
C1546 C139 2.261 . S
C1548 C219 2.261 . S
C1557 C239 2.261 . S
C1559 C159 2.261 . S
C1568 C179 2.263 . S
C1570 C199 2.262 . S
C1579 C338 2.262 . S
C1581 C258 2.261 . S
C1590 C358 2.263 . S
C1592 C278 2.262 . S
C1601 C318 2.263 . S
C1603 C298 2.261 . S
C1612 C459 2.263 1_554 S
C1614 C379 2.262 . S
C1623 C399 2.261 . S
C1625 C479 2.261 1_554 S
C1634 C439 2.260 1_554 S
C1636 C419 2.262 . S
C1645 C578 2.263 1_556 S
C1647 C498 2.261 . S
C1656 C518 2.261 . S
C1658 C598 2.262 1_556 S
C1667 C538 2.263 . S
C1669 C558 2.256 1_556 S
C1678 C699 2.263 . S
C1680 C619 2.263 . S
C1689 C639 2.262 . S
C1691 C719 2.261 . S
C1700 C659 2.261 . S
C1702 C679 2.263 . S
C1711 C9 0.706 . S
C1713 C128 0.736 1_556 S
C1722 C29 0.708 . S
C1724 C148 0.734 1_556 S
C1733 C168 0.727 1_556 S
C1735 C49 0.719 . S
C1744 C188 0.737 . S
C1746 C69 0.711 . S
C1755 C89 0.724 . S
C1757 C208 0.723 . S
C1766 C109 0.713 . S
C1768 C228 0.732 . S
C1777 C368 0.706 . S
C1779 C249 0.736 . S
C1788 C269 0.708 . S
C1790 C388 0.735 . S
C1799 C408 0.739 . S
C1801 C289 0.711 . S
C1810 C428 0.706 . S
C1812 C309 0.736 . S
C1821 C448 0.733 . S
C1823 C329 0.716 . S
C1832 C468 0.727 . S
C1834 C349 0.721 . S
C1843 C608 0.738 . S
C1845 C489 0.712 . S
C1854 C509 0.710 . S
C1856 C628 0.733 . S
C1865 C648 0.729 . S
C1867 C529 0.718 . S
C1876 C668 0.707 . S
C1878 C549 0.736 . S
C1887 C688 0.722 . S
C1889 C569 0.725 . S
C1898 C589 0.740 . S
C1900 C708 0.710 . S
