# Generated by pormake.
# Topology tes, (8)-cn, num edge types: 1
# Building blocks:
#     Node 0, Type 0, BuildingBlock: EBIMEJ_clean_sbu_0, # of connection points: 8
#     Node 1, Type 0, BuildingBlock: EBIMEJ_clean_sbu_0, # of connection points: 8
#     Node 2, Type 0, BuildingBlock: EBIMEJ_clean_sbu_0, # of connection points: 8
#     Node 3, Type 0, BuildingBlock: EBIMEJ_clean_sbu_0, # of connection points: 8
#     Node 4, Type 0, BuildingBlock: EBIMEJ_clean_sbu_0, # of connection points: 8
#     Node 5, Type 0, BuildingBlock: EBIMEJ_clean_sbu_0, # of connection points: 8
#     Node 6, Type 0, BuildingBlock: EBIMEJ_clean_sbu_0, # of connection points: 8
#     Node 7, Type 0, BuildingBlock: EBIMEJ_clean_sbu_0, # of connection points: 8
#     Node 8, Type 0, BuildingBlock: EBIMEJ_clean_sbu_0, # of connection points: 8
#     Node 9, Type 0, BuildingBlock: EBIMEJ_clean_sbu_0, # of connection points: 8
#     Node 10, Type 0, BuildingBlock: EBIMEJ_clean_sbu_0, # of connection points: 8
#     Node 11, Type 0, BuildingBlock: EBIMEJ_clean_sbu_0, # of connection points: 8
#     Node 12, Type 0, BuildingBlock: EBIMEJ_clean_sbu_0, # of connection points: 8
#     Node 13, Type 0, BuildingBlock: EBIMEJ_clean_sbu_0, # of connection points: 8
#     Node 14, Type 0, BuildingBlock: EBIMEJ_clean_sbu_0, # of connection points: 8
#     Node 15, Type 0, BuildingBlock: EBIMEJ_clean_sbu_0, # of connection points: 8
#     Node 16, Type 0, BuildingBlock: EBIMEJ_clean_sbu_0, # of connection points: 8
#     Node 17, Type 0, BuildingBlock: EBIMEJ_clean_sbu_0, # of connection points: 8
#     Node 18, Type 0, BuildingBlock: EBIMEJ_clean_sbu_0, # of connection points: 8
#     Node 19, Type 0, BuildingBlock: EBIMEJ_clean_sbu_0, # of connection points: 8
#     Node 20, Type 0, BuildingBlock: EBIMEJ_clean_sbu_0, # of connection points: 8
#     Node 21, Type 0, BuildingBlock: EBIMEJ_clean_sbu_0, # of connection points: 8
#     Node 22, Type 0, BuildingBlock: EBIMEJ_clean_sbu_0, # of connection points: 8
#     Node 23, Type 0, BuildingBlock: EBIMEJ_clean_sbu_0, # of connection points: 8
#     Edge 24, Type (0, 0), BuildingBlock: XUDNAN_clean_linker_2, # of connection points: 2
#     Edge 25, Type (0, 0), BuildingBlock: XUDNAN_clean_linker_2, # of connection points: 2
#     Edge 26, Type (0, 0), BuildingBlock: XUDNAN_clean_linker_2, # of connection points: 2
#     Edge 27, Type (0, 0), BuildingBlock: XUDNAN_clean_linker_2, # of connection points: 2
#     Edge 28, Type (0, 0), BuildingBlock: XUDNAN_clean_linker_2, # of connection points: 2
#     Edge 29, Type (0, 0), BuildingBlock: XUDNAN_clean_linker_2, # of connection points: 2
#     Edge 30, Type (0, 0), BuildingBlock: XUDNAN_clean_linker_2, # of connection points: 2
#     Edge 31, Type (0, 0), BuildingBlock: XUDNAN_clean_linker_2, # of connection points: 2
#     Edge 32, Type (0, 0), BuildingBlock: XUDNAN_clean_linker_2, # of connection points: 2
#     Edge 33, Type (0, 0), BuildingBlock: XUDNAN_clean_linker_2, # of connection points: 2
#     Edge 34, Type (0, 0), BuildingBlock: XUDNAN_clean_linker_2, # of connection points: 2
#     Edge 35, Type (0, 0), BuildingBlock: XUDNAN_clean_linker_2, # of connection points: 2
#     Edge 36, Type (0, 0), BuildingBlock: XUDNAN_clean_linker_2, # of connection points: 2
#     Edge 37, Type (0, 0), BuildingBlock: XUDNAN_clean_linker_2, # of connection points: 2
#     Edge 38, Type (0, 0), BuildingBlock: XUDNAN_clean_linker_2, # of connection points: 2
#     Edge 39, Type (0, 0), BuildingBlock: XUDNAN_clean_linker_2, # of connection points: 2
#     Edge 40, Type (0, 0), BuildingBlock: XUDNAN_clean_linker_2, # of connection points: 2
#     Edge 41, Type (0, 0), BuildingBlock: XUDNAN_clean_linker_2, # of connection points: 2
#     Edge 42, Type (0, 0), BuildingBlock: XUDNAN_clean_linker_2, # of connection points: 2
#     Edge 43, Type (0, 0), BuildingBlock: XUDNAN_clean_linker_2, # of connection points: 2
#     Edge 44, Type (0, 0), BuildingBlock: XUDNAN_clean_linker_2, # of connection points: 2
#     Edge 45, Type (0, 0), BuildingBlock: XUDNAN_clean_linker_2, # of connection points: 2
#     Edge 46, Type (0, 0), BuildingBlock: XUDNAN_clean_linker_2, # of connection points: 2
#     Edge 47, Type (0, 0), BuildingBlock: XUDNAN_clean_linker_2, # of connection points: 2
#     Edge 48, Type (0, 0), BuildingBlock: XUDNAN_clean_linker_2, # of connection points: 2
#     Edge 49, Type (0, 0), BuildingBlock: XUDNAN_clean_linker_2, # of connection points: 2
#     Edge 50, Type (0, 0), BuildingBlock: XUDNAN_clean_linker_2, # of connection points: 2
#     Edge 51, Type (0, 0), BuildingBlock: XUDNAN_clean_linker_2, # of connection points: 2
#     Edge 52, Type (0, 0), BuildingBlock: XUDNAN_clean_linker_2, # of connection points: 2
#     Edge 53, Type (0, 0), BuildingBlock: XUDNAN_clean_linker_2, # of connection points: 2
#     Edge 54, Type (0, 0), BuildingBlock: XUDNAN_clean_linker_2, # of connection points: 2
#     Edge 55, Type (0, 0), BuildingBlock: XUDNAN_clean_linker_2, # of connection points: 2
#     Edge 56, Type (0, 0), BuildingBlock: XUDNAN_clean_linker_2, # of connection points: 2
#     Edge 57, Type (0, 0), BuildingBlock: XUDNAN_clean_linker_2, # of connection points: 2
#     Edge 58, Type (0, 0), BuildingBlock: XUDNAN_clean_linker_2, # of connection points: 2
#     Edge 59, Type (0, 0), BuildingBlock: XUDNAN_clean_linker_2, # of connection points: 2
#     Edge 60, Type (0, 0), BuildingBlock: XUDNAN_clean_linker_2, # of connection points: 2
#     Edge 61, Type (0, 0), BuildingBlock: XUDNAN_clean_linker_2, # of connection points: 2
#     Edge 62, Type (0, 0), BuildingBlock: XUDNAN_clean_linker_2, # of connection points: 2
#     Edge 63, Type (0, 0), BuildingBlock: XUDNAN_clean_linker_2, # of connection points: 2
#     Edge 64, Type (0, 0), BuildingBlock: XUDNAN_clean_linker_2, # of connection points: 2
#     Edge 65, Type (0, 0), BuildingBlock: XUDNAN_clean_linker_2, # of connection points: 2
#     Edge 66, Type (0, 0), BuildingBlock: XUDNAN_clean_linker_2, # of connection points: 2
#     Edge 67, Type (0, 0), BuildingBlock: XUDNAN_clean_linker_2, # of connection points: 2
#     Edge 68, Type (0, 0), BuildingBlock: XUDNAN_clean_linker_2, # of connection points: 2
#     Edge 69, Type (0, 0), BuildingBlock: XUDNAN_clean_linker_2, # of connection points: 2
#     Edge 70, Type (0, 0), BuildingBlock: XUDNAN_clean_linker_2, # of connection points: 2
#     Edge 71, Type (0, 0), BuildingBlock: XUDNAN_clean_linker_2, # of connection points: 2
#     Edge 72, Type (0, 0), BuildingBlock: XUDNAN_clean_linker_2, # of connection points: 2
#     Edge 73, Type (0, 0), BuildingBlock: XUDNAN_clean_linker_2, # of connection points: 2
#     Edge 74, Type (0, 0), BuildingBlock: XUDNAN_clean_linker_2, # of connection points: 2
#     Edge 75, Type (0, 0), BuildingBlock: XUDNAN_clean_linker_2, # of connection points: 2
#     Edge 76, Type (0, 0), BuildingBlock: XUDNAN_clean_linker_2, # of connection points: 2
#     Edge 77, Type (0, 0), BuildingBlock: XUDNAN_clean_linker_2, # of connection points: 2
#     Edge 78, Type (0, 0), BuildingBlock: XUDNAN_clean_linker_2, # of connection points: 2
#     Edge 79, Type (0, 0), BuildingBlock: XUDNAN_clean_linker_2, # of connection points: 2
#     Edge 80, Type (0, 0), BuildingBlock: XUDNAN_clean_linker_2, # of connection points: 2
#     Edge 81, Type (0, 0), BuildingBlock: XUDNAN_clean_linker_2, # of connection points: 2
#     Edge 82, Type (0, 0), BuildingBlock: XUDNAN_clean_linker_2, # of connection points: 2
#     Edge 83, Type (0, 0), BuildingBlock: XUDNAN_clean_linker_2, # of connection points: 2
#     Edge 84, Type (0, 0), BuildingBlock: XUDNAN_clean_linker_2, # of connection points: 2
#     Edge 85, Type (0, 0), BuildingBlock: XUDNAN_clean_linker_2, # of connection points: 2
#     Edge 86, Type (0, 0), BuildingBlock: XUDNAN_clean_linker_2, # of connection points: 2
#     Edge 87, Type (0, 0), BuildingBlock: XUDNAN_clean_linker_2, # of connection points: 2
#     Edge 88, Type (0, 0), BuildingBlock: XUDNAN_clean_linker_2, # of connection points: 2
#     Edge 89, Type (0, 0), BuildingBlock: XUDNAN_clean_linker_2, # of connection points: 2
#     Edge 90, Type (0, 0), BuildingBlock: XUDNAN_clean_linker_2, # of connection points: 2
#     Edge 91, Type (0, 0), BuildingBlock: XUDNAN_clean_linker_2, # of connection points: 2
#     Edge 92, Type (0, 0), BuildingBlock: XUDNAN_clean_linker_2, # of connection points: 2
#     Edge 93, Type (0, 0), BuildingBlock: XUDNAN_clean_linker_2, # of connection points: 2
#     Edge 94, Type (0, 0), BuildingBlock: XUDNAN_clean_linker_2, # of connection points: 2
#     Edge 95, Type (0, 0), BuildingBlock: XUDNAN_clean_linker_2, # of connection points: 2
#     Edge 96, Type (0, 0), BuildingBlock: XUDNAN_clean_linker_2, # of connection points: 2
#     Edge 97, Type (0, 0), BuildingBlock: XUDNAN_clean_linker_2, # of connection points: 2
#     Edge 98, Type (0, 0), BuildingBlock: XUDNAN_clean_linker_2, # of connection points: 2
#     Edge 99, Type (0, 0), BuildingBlock: XUDNAN_clean_linker_2, # of connection points: 2
#     Edge 100, Type (0, 0), BuildingBlock: XUDNAN_clean_linker_2, # of connection points: 2
#     Edge 101, Type (0, 0), BuildingBlock: XUDNAN_clean_linker_2, # of connection points: 2
#     Edge 102, Type (0, 0), BuildingBlock: XUDNAN_clean_linker_2, # of connection points: 2
#     Edge 103, Type (0, 0), BuildingBlock: XUDNAN_clean_linker_2, # of connection points: 2
#     Edge 104, Type (0, 0), BuildingBlock: XUDNAN_clean_linker_2, # of connection points: 2
#     Edge 105, Type (0, 0), BuildingBlock: XUDNAN_clean_linker_2, # of connection points: 2
#     Edge 106, Type (0, 0), BuildingBlock: XUDNAN_clean_linker_2, # of connection points: 2
#     Edge 107, Type (0, 0), BuildingBlock: XUDNAN_clean_linker_2, # of connection points: 2
#     Edge 108, Type (0, 0), BuildingBlock: XUDNAN_clean_linker_2, # of connection points: 2
#     Edge 109, Type (0, 0), BuildingBlock: XUDNAN_clean_linker_2, # of connection points: 2
#     Edge 110, Type (0, 0), BuildingBlock: XUDNAN_clean_linker_2, # of connection points: 2
#     Edge 111, Type (0, 0), BuildingBlock: XUDNAN_clean_linker_2, # of connection points: 2
#     Edge 112, Type (0, 0), BuildingBlock: XUDNAN_clean_linker_2, # of connection points: 2
#     Edge 113, Type (0, 0), BuildingBlock: XUDNAN_clean_linker_2, # of connection points: 2
#     Edge 114, Type (0, 0), BuildingBlock: XUDNAN_clean_linker_2, # of connection points: 2
#     Edge 115, Type (0, 0), BuildingBlock: XUDNAN_clean_linker_2, # of connection points: 2
#     Edge 116, Type (0, 0), BuildingBlock: XUDNAN_clean_linker_2, # of connection points: 2
#     Edge 117, Type (0, 0), BuildingBlock: XUDNAN_clean_linker_2, # of connection points: 2
#     Edge 118, Type (0, 0), BuildingBlock: XUDNAN_clean_linker_2, # of connection points: 2
#     Edge 119, Type (0, 0), BuildingBlock: XUDNAN_clean_linker_2, # of connection points: 2
# Relax obj value: 0.206
# Max RMSD: 0.299
# Mean RMSD: 0.292
data_MOF--net-tes--node1-EBIMEJ_clean_sbu_0--edge1-XUDNAN_clean_linker_2
_symmetry_space_group_name_H-M    P1
_symmetry_Int_Tables_number       1
_symmetry_cell_setting            triclinic
loop_
_symmetry_equiv_pos_as_xyz
'x, y, z'
_cell_length_a     49.778134
_cell_length_b     49.454153
_cell_length_c     50.905342
_cell_angle_alpha  90.758162
_cell_angle_beta   91.283955
_cell_angle_gamma 91.033491
loop_
_atom_site_label
_atom_site_type_symbol
_atom_site_fract_x
_atom_site_fract_y
_atom_site_fract_z
_atom_type_partial_charge
Co0 Co 0.09018 0.3759 0.43228 0.0
Co1 Co 0.12116 0.41803 0.38163 0.0
Co2 Co 0.12948 0.35691 0.38966 0.0
H3 H 0.11441 0.37514 0.40971 0.0
O4 O 0.12277 0.39058 0.41233 0.0
H5 H 0.13553 0.39807 0.36272 0.0
O6 O 0.1262 0.38333 0.35999 0.0
Co7 Co 0.16055 0.39258 0.342 0.0
O8 O 0.14571 0.42425 0.32139 0.0
O9 O 0.11868 0.44324 0.35062 0.0
O10 O 0.17726 0.35907 0.35868 0.0
O11 O 0.14356 0.33024 0.36575 0.0
O12 O 0.05672 0.39328 0.44743 0.0
O13 O 0.083 0.37204 0.47159 0.0
O14 O 0.18235 0.42622 0.35286 0.0
O15 O 0.16018 0.43282 0.38969 0.0
C16 C 0.12212 0.32598 0.4422 0.0
C17 C 0.09355 0.43443 0.41912 0.0
C18 C 0.18734 0.3777 0.30461 0.0
C19 C 0.07228 0.33258 0.3961 0.0
C20 C 0.12971 0.44289 0.32804 0.0
C21 C 0.168 0.33489 0.36089 0.0
C22 C 0.06198 0.3856 0.47034 0.0
C23 C 0.18009 0.43872 0.37465 0.0
O24 O 0.10366 0.34168 0.44986 0.0
O25 O 0.13422 0.33017 0.42032 0.0
O26 O 0.10883 0.44751 0.40445 0.0
O27 O 0.08946 0.41002 0.41165 0.0
O28 O 0.19061 0.40007 0.31624 0.0
O29 O 0.16867 0.36374 0.31401 0.0
O30 O 0.06997 0.34257 0.41903 0.0
O31 O 0.0914 0.34063 0.38113 0.0
Co32 Co 0.8839 0.92755 0.58741 0.0
Co33 Co 0.92151 0.87987 0.62382 0.0
Co34 Co 0.86163 0.89328 0.63145 0.0
H35 H 0.88142 0.91018 0.61503 0.0
O36 O 0.897 0.91325 0.62271 0.0
H37 H 0.90037 0.86381 0.63976 0.0
O38 O 0.88536 0.86095 0.63115 0.0
Co39 Co 0.89333 0.84602 0.6663 0.0
O40 O 0.91961 0.81915 0.64973 0.0
O41 O 0.94396 0.84596 0.62401 0.0
O42 O 0.85733 0.8593 0.68092 0.0
O43 O 0.83267 0.87229 0.64634 0.0
O44 O 0.89393 0.92354 0.549 0.0
O45 O 0.8938 0.96156 0.5676 0.0
O46 O 0.92811 0.85592 0.68541 0.0
O47 O 0.93903 0.89053 0.66036 0.0
C48 C 0.83652 0.94828 0.61807 0.0
C49 C 0.93998 0.91017 0.58915 0.0
C50 C 0.88754 0.81564 0.70274 0.0
C51 C 0.83646 0.89639 0.57566 0.0
C52 C 0.93975 0.82307 0.63491 0.0
C53 C 0.83475 0.86529 0.67011 0.0
C54 C 0.89796 0.94848 0.5468 0.0
C55 C 0.94313 0.87625 0.68113 0.0
O56 O 0.85337 0.95171 0.59968 0.0
O57 O 0.83757 0.92709 0.63259 0.0
O58 O 0.95162 0.89946 0.60843 0.0
O59 O 0.9155 0.90295 0.58589 0.0
O60 O 0.90693 0.832 0.70106 0.0
O61 O 0.8707 0.81713 0.68404 0.0
O62 O 0.84769 0.919 0.57144 0.0
O63 O 0.84475 0.88184 0.59502 0.0
Co64 Co 0.41741 0.63347 0.92683 0.0
Co65 Co 0.38789 0.59743 0.8752 0.0
Co66 Co 0.38068 0.65804 0.88377 0.0
H67 H 0.3937 0.63832 0.90371 0.0
O68 O 0.38438 0.62351 0.90553 0.0
H69 H 0.37423 0.61762 0.85566 0.0
O70 O 0.3841 0.63202 0.85382 0.0
Co71 Co 0.35006 0.62455 0.83335 0.0
O72 O 0.36155 0.58928 0.81494 0.0
O73 O 0.39139 0.57234 0.84363 0.0
O74 O 0.33577 0.66253 0.84399 0.0
O75 O 0.37086 0.68653 0.86007 0.0
O76 O 0.45225 0.61681 0.94034 0.0
O77 O 0.42679 0.63683 0.96595 0.0
O78 O 0.32762 0.59158 0.84267 0.0
O79 O 0.34907 0.5823 0.88007 0.0
C80 C 0.38638 0.68422 0.93871 0.0
C81 C 0.412 0.56972 0.9194 0.0
C82 C 0.32974 0.64314 0.79323 0.0
C83 C 0.43874 0.67772 0.89473 0.0
C84 C 0.37852 0.57119 0.82142 0.0
C85 C 0.34805 0.68528 0.8487 0.0
C86 C 0.44825 0.6242 0.96369 0.0
C87 C 0.3294 0.57786 0.86357 0.0
O88 O 0.4022 0.66571 0.94613 0.0
O89 O 0.37614 0.68425 0.91521 0.0
O90 O 0.39845 0.56782 0.89801 0.0
O91 O 0.41934 0.59228 0.92996 0.0
O92 O 0.32136 0.64757 0.81592 0.0
O93 O 0.34949 0.62776 0.79308 0.0
O94 O 0.44027 0.66597 0.91669 0.0
O95 O 0.41939 0.67183 0.87844 0.0
Co96 Co 0.63736 0.17594 0.17741 0.0
Co97 Co 0.66868 0.1436 0.12694 0.0
Co98 Co 0.61274 0.1275 0.14493 0.0
H99 H 0.63264 0.14766 0.15951 0.0
O100 O 0.64877 0.14137 0.16079 0.0
H101 H 0.64819 0.12403 0.11323 0.0
O102 O 0.63229 0.13061 0.11147 0.0
Co103 Co 0.64253 0.09465 0.09805 0.0
O104 O 0.6719 0.10665 0.07379 0.0
O105 O 0.68741 0.14548 0.09198 0.0
O106 O 0.61661 0.07732 0.12309 0.0
O107 O 0.584 0.10612 0.12759 0.0
O108 O 0.62781 0.19801 0.2099 0.0
O109 O 0.66137 0.20828 0.18788 0.0
O110 O 0.6717 0.07265 0.11411 0.0
O111 O 0.69042 0.10841 0.1347 0.0
C112 C 0.5899 0.14216 0.19722 0.0
C113 C 0.69994 0.17272 0.16634 0.0
C114 C 0.62266 0.07211 0.05945 0.0
C115 C 0.58862 0.18581 0.14518 0.0
C116 C 0.6871 0.12767 0.07337 0.0
C117 C 0.59178 0.08274 0.12112 0.0
C118 C 0.64778 0.21359 0.20772 0.0
C119 C 0.69055 0.08293 0.12826 0.0
O120 O 0.60366 0.16435 0.19825 0.0
O121 O 0.59371 0.12434 0.17922 0.0
O122 O 0.69916 0.16206 0.1436 0.0
O123 O 0.67915 0.17648 0.18039 0.0
O124 O 0.63417 0.06005 0.07795 0.0
O125 O 0.62252 0.09732 0.06266 0.0
O126 O 0.6061 0.19575 0.16127 0.0
O127 O 0.59034 0.16124 0.13666 0.0
Co128 Co 0.09155 0.62752 0.07774 0.0
Co129 Co 0.12482 0.59632 0.13152 0.0
Co130 Co 0.13337 0.65612 0.11551 0.0
H131 H 0.11762 0.63405 0.09866 0.0
O132 O 0.12607 0.61886 0.09795 0.0
H133 H 0.14053 0.61907 0.14747 0.0
O134 O 0.1317 0.63397 0.14838 0.0
Co135 Co 0.1666 0.62825 0.1673 0.0
O136 O 0.15084 0.60004 0.19183 0.0
O137 O 0.12299 0.57561 0.1654 0.0
O138 O 0.17135 0.66986 0.16649 0.0
O139 O 0.1461 0.68829 0.13461 0.0
O140 O 0.05776 0.60856 0.06259 0.0
O141 O 0.08511 0.62737 0.0379 0.0
O142 O 0.19029 0.59718 0.15613 0.0
O143 O 0.16231 0.58077 0.1251 0.0
C144 C 0.12172 0.67721 0.05988 0.0
C145 C 0.09458 0.57219 0.0968 0.0
C146 C 0.20073 0.63959 0.20104 0.0
C147 C 0.07315 0.67218 0.11 0.0
C148 C 0.13461 0.58009 0.18777 0.0
C149 C 0.16217 0.69027 0.15422 0.0
C150 C 0.06359 0.61396 0.03936 0.0
C151 C 0.18491 0.58004 0.13787 0.0
O152 O 0.10418 0.65852 0.05534 0.0
O153 O 0.1353 0.67847 0.08171 0.0
O154 O 0.11174 0.56344 0.11274 0.0
O155 O 0.08764 0.59625 0.10182 0.0
O156 O 0.18422 0.62026 0.20269 0.0
O157 O 0.19833 0.65212 0.1798 0.0
O158 O 0.06774 0.65696 0.09032 0.0
O159 O 0.0958 0.67105 0.12257 0.0
Co160 Co 0.62623 0.84551 0.334 0.0
Co161 Co 0.66479 0.87527 0.38293 0.0
Co162 Co 0.60482 0.88489 0.37559 0.0
H163 H 0.6231 0.87042 0.35575 0.0
O164 O 0.63797 0.87931 0.35316 0.0
H165 H 0.64604 0.88967 0.40271 0.0
O166 O 0.63138 0.88046 0.40504 0.0
Co167 Co 0.64084 0.91417 0.42479 0.0
O168 O 0.67625 0.90243 0.44194 0.0
O169 O 0.69074 0.87048 0.41427 0.0
O170 O 0.60619 0.93317 0.41246 0.0
O171 O 0.57885 0.89887 0.39978 0.0
O172 O 0.62564 0.80827 0.31739 0.0
O173 O 0.64035 0.84185 0.29696 0.0
O174 O 0.67235 0.93718 0.41373 0.0
O175 O 0.68174 0.91381 0.3776 0.0
C176 C 0.57473 0.87613 0.32228 0.0
C177 C 0.68693 0.84343 0.34298 0.0
C178 C 0.6274 0.92895 0.46849 0.0
C179 C 0.58202 0.82691 0.36687 0.0
C180 C 0.69306 0.88421 0.43597 0.0
C181 C 0.58262 0.92322 0.40742 0.0
C182 C 0.63522 0.81686 0.29639 0.0
C183 C 0.68608 0.93438 0.39316 0.0
O184 O 0.59172 0.8585 0.31516 0.0
O185 O 0.57784 0.88878 0.34457 0.0
O186 O 0.69165 0.86335 0.35852 0.0
O187 O 0.66422 0.83075 0.34263 0.0
O188 O 0.64933 0.93539 0.45841 0.0
O189 O 0.61281 0.91416 0.45365 0.0
O190 O 0.59342 0.8243 0.34499 0.0
O191 O 0.58866 0.84679 0.38248 0.0
Co192 Co 0.33406 0.37647 0.66872 0.0
Co193 Co 0.38522 0.34529 0.63773 0.0
Co194 Co 0.37219 0.40475 0.62845 0.0
H195 H 0.35426 0.38357 0.64346 0.0
O196 O 0.35238 0.36845 0.6347 0.0
H197 H 0.40268 0.36636 0.623 0.0
O198 O 0.40465 0.3816 0.63139 0.0
Co199 Co 0.42306 0.37288 0.59817 0.0
O200 O 0.44391 0.33941 0.60968 0.0
O201 O 0.41894 0.3233 0.64197 0.0
O202 O 0.42021 0.41271 0.58843 0.0
O203 O 0.39343 0.43541 0.61574 0.0
O204 O 0.32506 0.37946 0.70806 0.0
O205 O 0.3041 0.35234 0.68327 0.0
O206 O 0.40433 0.34831 0.57205 0.0
O207 O 0.37851 0.32707 0.60047 0.0
C208 C 0.31904 0.43001 0.64232 0.0
C209 C 0.3426 0.31375 0.66104 0.0
C210 C 0.46063 0.37369 0.56807 0.0
C211 C 0.36824 0.42291 0.68671 0.0
C212 C 0.4399 0.32235 0.62783 0.0
C213 C 0.4103 0.43459 0.59736 0.0
C214 C 0.30659 0.36184 0.70622 0.0
C215 C 0.38781 0.32944 0.57705 0.0
O216 O 0.31566 0.41244 0.66029 0.0
O217 O 0.33861 0.42824 0.62627 0.0
O218 O 0.365 0.31436 0.64985 0.0
O219 O 0.32938 0.33478 0.66712 0.0
O220 O 0.45333 0.39421 0.58073 0.0
O221 O 0.44661 0.35301 0.57257 0.0
O222 O 0.3478 0.4081 0.69108 0.0
O223 O 0.38107 0.42068 0.66521 0.0
Co224 Co 0.88555 0.17221 0.83866 0.0
Co225 Co 0.85033 0.13758 0.8847 0.0
Co226 Co 0.91075 0.12991 0.87549 0.0
H227 H 0.89073 0.1454 0.85738 0.0
O228 O 0.87593 0.13617 0.85424 0.0
H229 H 0.87064 0.12429 0.90378 0.0
O230 O 0.88568 0.1332 0.90599 0.0
Co231 Co 0.87573 0.10069 0.92624 0.0
O232 O 0.84705 0.11926 0.94771 0.0
O233 O 0.82575 0.14082 0.91538 0.0
O234 O 0.90723 0.08557 0.90646 0.0
O235 O 0.93889 0.11536 0.89818 0.0
O236 O 0.87394 0.20906 0.82571 0.0
O237 O 0.87283 0.17505 0.80068 0.0
O238 O 0.84321 0.07797 0.91618 0.0
O239 O 0.83391 0.09817 0.87848 0.0
C240 C 0.93617 0.14255 0.82281 0.0
C241 C 0.82832 0.17144 0.8514 0.0
C242 C 0.87973 0.07451 0.96644 0.0
C243 C 0.93267 0.18868 0.87085 0.0
C244 C 0.82744 0.13313 0.93923 0.0
C245 C 0.93144 0.09401 0.9097 0.0
C246 C 0.86864 0.1999 0.80302 0.0
C247 C 0.82907 0.07912 0.89519 0.0
O248 O 0.91871 0.1608 0.8189 0.0
O249 O 0.93547 0.12748 0.84339 0.0
O250 O 0.82149 0.14954 0.86201 0.0
O251 O 0.85129 0.18159 0.8579 0.0
O252 O 0.85842 0.07678 0.95318 0.0
O253 O 0.89922 0.08728 0.95699 0.0
O254 O 0.91941 0.1929 0.84976 0.0
O255 O 0.92735 0.16773 0.88475 0.0
Co256 Co 0.42824 0.09739 0.38214 0.0
Co257 Co 0.37927 0.1295 0.41147 0.0
Co258 Co 0.39336 0.14044 0.3543 0.0
H259 H 0.41016 0.1246 0.37508 0.0
O260 O 0.41227 0.13313 0.38998 0.0
H261 H 0.36232 0.14537 0.39087 0.0
O262 O 0.3606 0.13699 0.37588 0.0
Co263 Co 0.34197 0.17093 0.38389 0.0
O264 O 0.31709 0.1513 0.40874 0.0
O265 O 0.34526 0.12554 0.4319 0.0
O266 O 0.33893 0.17423 0.34406 0.0
O267 O 0.37287 0.15362 0.32386 0.0
O268 O 0.42226 0.05645 0.37816 0.0
O269 O 0.45117 0.07233 0.4045 0.0
O270 O 0.35503 0.19383 0.41488 0.0
O271 O 0.38647 0.16678 0.43029 0.0
C272 C 0.44869 0.12808 0.33412 0.0
C273 C 0.42241 0.10636 0.44254 0.0
C274 C 0.31348 0.21048 0.38019 0.0
C275 C 0.3993 0.08256 0.33284 0.0
C276 C 0.32195 0.13531 0.42765 0.0
C277 C 0.35123 0.16693 0.32346 0.0
C278 C 0.44049 0.05128 0.39462 0.0
C279 C 0.3735 0.18907 0.43162 0.0
O280 O 0.45136 0.10999 0.35173 0.0
O281 O 0.42772 0.14292 0.33293 0.0
O282 O 0.39888 0.11562 0.44151 0.0
O283 O 0.43618 0.10125 0.42208 0.0
O284 O 0.33174 0.20814 0.39733 0.0
O285 O 0.31203 0.19073 0.36442 0.0
O286 O 0.42019 0.07838 0.34688 0.0
O287 O 0.38451 0.10286 0.33806 0.0
Co288 Co 0.08353 0.09252 0.63503 0.0
Co289 Co 0.13523 0.12248 0.59465 0.0
Co290 Co 0.12729 0.13423 0.65386 0.0
H291 H 0.10645 0.11785 0.6362 0.0
O292 O 0.10395 0.12566 0.62112 0.0
H293 H 0.15587 0.13548 0.61442 0.0
O294 O 0.15726 0.12697 0.6291 0.0
Co295 Co 0.18088 0.15786 0.61998 0.0
O296 O 0.19854 0.14585 0.58644 0.0
O297 O 0.1663 0.11808 0.57009 0.0
O298 O 0.16611 0.1799 0.65018 0.0
O299 O 0.15247 0.15033 0.67989 0.0
O300 O 0.075 0.05836 0.61343 0.0
O301 O 0.04475 0.0779 0.63367 0.0
O302 O 0.17009 0.18141 0.58955 0.0
O303 O 0.1303 0.16171 0.58123 0.0
C304 C 0.07411 0.12701 0.68318 0.0
C305 C 0.09516 0.09745 0.57743 0.0
C306 C 0.22677 0.16619 0.63711 0.0
C307 C 0.11797 0.0785 0.67929 0.0
C308 C 0.18968 0.12925 0.56886 0.0
C309 C 0.16464 0.1722 0.67395 0.0
C310 C 0.05046 0.05894 0.61827 0.0
C311 C 0.14777 0.18066 0.57691 0.0
O312 O 0.06681 0.10685 0.66856 0.0
O313 O 0.09586 0.14084 0.67877 0.0
O314 O 0.11144 0.11161 0.56504 0.0
O315 O 0.1026 0.09338 0.60109 0.0
O316 O 0.21792 0.17481 0.61559 0.0
O317 O 0.20954 0.15259 0.64907 0.0
O318 O 0.09473 0.07507 0.66889 0.0
O319 O 0.13395 0.09736 0.67137 0.0
Co320 Co 0.17382 0.84424 0.88388 0.0
Co321 Co 0.14197 0.89327 0.84974 0.0
Co322 Co 0.13162 0.88228 0.90758 0.0
H323 H 0.14744 0.86404 0.88839 0.0
O324 O 0.13918 0.86119 0.87341 0.0
H325 H 0.12524 0.91076 0.86891 0.0
O326 O 0.13368 0.914 0.88371 0.0
Co327 Co 0.09785 0.92898 0.87366 0.0
O328 O 0.1106 0.95071 0.84171 0.0
O329 O 0.14497 0.92649 0.82732 0.0
O330 O 0.08355 0.91754 0.91023 0.0
O331 O 0.11798 0.90478 0.93557 0.0
O332 O 0.21518 0.84557 0.88171 0.0
O333 O 0.19308 0.81029 0.87274 0.0
O334 O 0.07854 0.91851 0.83954 0.0
O335 O 0.10492 0.88391 0.83164 0.0
C336 C 0.13964 0.82578 0.92941 0.0
C337 C 0.17083 0.85151 0.82248 0.0
C338 C 0.06278 0.9603 0.88627 0.0
C339 C 0.18773 0.87522 0.93157 0.0
C340 C 0.12983 0.94715 0.82575 0.0
C341 C 0.09493 0.91493 0.9329 0.0
C342 C 0.21605 0.82104 0.87497 0.0
C343 C 0.08383 0.89773 0.82591 0.0
O344 O 0.15636 0.82067 0.91143 0.0
O345 O 0.12842 0.84898 0.93118 0.0
O346 O 0.1563 0.8722 0.8208 0.0
O347 O 0.17711 0.84038 0.84413 0.0
O348 O 0.05965 0.93502 0.88522 0.0
O349 O 0.08619 0.96783 0.88073 0.0
O350 O 0.19088 0.85311 0.91932 0.0
O351 O 0.16912 0.89134 0.92407 0.0
Co352 Co 0.33266 0.84295 0.13063 0.0
Co353 Co 0.36905 0.89087 0.16257 0.0
Co354 Co 0.37633 0.87805 0.10458 0.0
H355 H 0.36034 0.86095 0.12454 0.0
O356 O 0.36921 0.85816 0.13905 0.0
H357 H 0.3861 0.90749 0.14273 0.0
O358 O 0.37717 0.91053 0.12833 0.0
Co359 Co 0.41435 0.92467 0.13621 0.0
O360 O 0.40393 0.94776 0.16898 0.0
O361 O 0.36869 0.92495 0.18495 0.0
O362 O 0.4267 0.91042 0.09933 0.0
O363 O 0.38995 0.89897 0.07589 0.0
O364 O 0.29489 0.82834 0.12111 0.0
O365 O 0.30257 0.84673 0.15745 0.0
O366 O 0.43459 0.91443 0.16927 0.0
O367 O 0.40609 0.88157 0.17986 0.0
C368 C 0.36308 0.82166 0.08292 0.0
C369 C 0.34674 0.84562 0.19077 0.0
C370 C 0.45081 0.95378 0.12081 0.0
C371 C 0.31882 0.87244 0.08318 0.0
C372 C 0.38511 0.94532 0.18575 0.0
C373 C 0.41444 0.90608 0.07713 0.0
C374 C 0.28542 0.83485 0.14286 0.0
C375 C 0.42866 0.8945 0.18355 0.0
O376 O 0.34646 0.81805 0.1015 0.0
O377 O 0.37625 0.84414 0.08096 0.0
O378 O 0.3547 0.87019 0.19167 0.0
O379 O 0.34059 0.83291 0.1692 0.0
O380 O 0.45268 0.92873 0.12402 0.0
O381 O 0.42782 0.96234 0.12571 0.0
O382 O 0.31461 0.85074 0.09554 0.0
O383 O 0.33888 0.88795 0.08993 0.0
Co384 Co 0.37711 0.42193 0.09808 0.0
Co385 Co 0.41442 0.37133 0.13134 0.0
Co386 Co 0.35508 0.3849 0.14125 0.0
H387 H 0.37443 0.40245 0.12461 0.0
O388 O 0.39022 0.40484 0.13195 0.0
H389 H 0.39394 0.3545 0.1475 0.0
O390 O 0.37864 0.35237 0.13925 0.0
Co391 Co 0.38746 0.33484 0.17319 0.0
O392 O 0.41956 0.31226 0.1622 0.0
O393 O 0.43756 0.33755 0.13076 0.0
O394 O 0.35287 0.34882 0.18994 0.0
O395 O 0.32638 0.36368 0.15712 0.0
O396 O 0.38407 0.41929 0.05889 0.0
O397 O 0.38857 0.45626 0.07902 0.0
O398 O 0.42004 0.34865 0.1944 0.0
O399 O 0.43039 0.38215 0.16755 0.0
C400 C 0.33048 0.441 0.13052 0.0
C401 C 0.43277 0.40359 0.09794 0.0
C402 C 0.36664 0.29451 0.19211 0.0
C403 C 0.3295 0.39056 0.08636 0.0
C404 C 0.43736 0.31616 0.14486 0.0
C405 C 0.32965 0.35329 0.17965 0.0
C406 C 0.38995 0.44394 0.05735 0.0
C407 C 0.43411 0.36953 0.18922 0.0
O408 O 0.34764 0.44623 0.1128 0.0
O409 O 0.33103 0.41844 0.14304 0.0
O410 O 0.44439 0.39152 0.1164 0.0
O411 O 0.4082 0.39692 0.09446 0.0
O412 O 0.37035 0.31657 0.20436 0.0
O413 O 0.3747 0.29534 0.16895 0.0
O414 O 0.3407 0.41337 0.08305 0.0
O415 O 0.33769 0.37495 0.10491 0.0
Co416 Co 0.83732 0.881 0.16325 0.0
Co417 Co 0.88465 0.8444 0.13007 0.0
Co418 Co 0.87947 0.90519 0.12515 0.0
H419 H 0.85873 0.88602 0.13877 0.0
O420 O 0.85501 0.8718 0.12914 0.0
H421 H 0.90483 0.86383 0.11622 0.0
O422 O 0.90863 0.87784 0.12602 0.0
Co423 Co 0.92577 0.86995 0.0917 0.0
O424 O 0.94475 0.83566 0.10413 0.0
O425 O 0.91517 0.81778 0.13185 0.0
O426 O 0.91163 0.90616 0.07745 0.0
O427 O 0.90501 0.93202 0.11274 0.0
O428 O 0.82488 0.8805 0.20114 0.0
O429 O 0.80188 0.86116 0.17151 0.0
O430 O 0.91349 0.83677 0.07019 0.0
O431 O 0.87567 0.83085 0.09187 0.0
C432 C 0.82597 0.93409 0.13522 0.0
C433 C 0.84898 0.82183 0.16349 0.0
C434 C 0.96394 0.88858 0.06761 0.0
C435 C 0.87313 0.9253 0.18137 0.0
C436 C 0.93773 0.81709 0.12002 0.0
C437 C 0.91053 0.92953 0.08859 0.0
C438 C 0.80398 0.86688 0.19558 0.0
C439 C 0.89083 0.82483 0.07238 0.0
O440 O 0.81762 0.91485 0.1498 0.0
O441 O 0.84926 0.93308 0.12459 0.0
O442 O 0.85976 0.81697 0.14167 0.0
O443 O 0.85308 0.84462 0.17516 0.0
O444 O 0.94129 0.88303 0.05733 0.0
O445 O 0.96483 0.88402 0.09182 0.0
O446 O 0.84976 0.91486 0.18278 0.0
O447 O 0.88904 0.91784 0.1631 0.0
Co448 Co 0.13153 0.67224 0.67178 0.0
Co449 Co 0.16403 0.63832 0.6239 0.0
Co450 Co 0.10493 0.62718 0.63548 0.0
H451 H 0.12524 0.64475 0.6528 0.0
O452 O 0.14036 0.63666 0.65539 0.0
H453 H 0.14415 0.62048 0.60711 0.0
O454 O 0.12894 0.62819 0.60409 0.0
Co455 Co 0.14018 0.59199 0.58962 0.0
O456 O 0.17033 0.60629 0.56664 0.0
O457 O 0.18632 0.64096 0.59139 0.0
O458 O 0.1072 0.5811 0.61008 0.0
O459 O 0.07598 0.61089 0.61397 0.0
O460 O 0.13014 0.71302 0.68022 0.0
O461 O 0.15262 0.68701 0.7036 0.0
O462 O 0.17598 0.5757 0.59766 0.0
O463 O 0.18113 0.60126 0.63342 0.0
C464 C 0.07946 0.64286 0.68672 0.0
C465 C 0.19423 0.66617 0.66544 0.0
C466 C 0.12542 0.55189 0.56422 0.0
C467 C 0.08528 0.68656 0.63766 0.0
C468 C 0.18669 0.62623 0.57051 0.0
C469 C 0.08389 0.58919 0.6036 0.0
C470 C 0.14509 0.71085 0.70028 0.0
C471 C 0.18823 0.58082 0.61922 0.0
O472 O 0.09622 0.66262 0.68977 0.0
O473 O 0.08129 0.62569 0.66768 0.0
O474 O 0.1944 0.65347 0.64379 0.0
O475 O 0.17281 0.67227 0.67738 0.0
O476 O 0.13885 0.55097 0.58531 0.0
O477 O 0.12018 0.57564 0.55757 0.0
O478 O 0.10043 0.6934 0.65708 0.0
O479 O 0.08794 0.66355 0.62594 0.0
Co480 Co 0.59484 0.87381 0.92599 0.0
Co481 Co 0.62555 0.90912 0.87875 0.0
Co482 Co 0.6356 0.84885 0.88729 0.0
H483 H 0.62056 0.86851 0.90602 0.0
O484 O 0.62935 0.88357 0.90892 0.0
H485 H 0.64116 0.88982 0.86005 0.0
O486 O 0.63271 0.87458 0.85715 0.0
Co487 Co 0.66655 0.88578 0.8393 0.0
O488 O 0.65122 0.918 0.8195 0.0
O489 O 0.62132 0.93408 0.84751 0.0
O490 O 0.67483 0.84503 0.83843 0.0
O491 O 0.6482 0.82007 0.86436 0.0
O492 O 0.55343 0.87371 0.92375 0.0
O493 O 0.57405 0.89232 0.95526 0.0
O494 O 0.68802 0.91906 0.85185 0.0
O495 O 0.66337 0.92685 0.88681 0.0
C496 C 0.6241 0.82169 0.9396 0.0
C497 C 0.60494 0.93593 0.92504 0.0
C498 C 0.69954 0.88622 0.80413 0.0
C499 C 0.57747 0.82698 0.8934 0.0
C500 C 0.63363 0.93533 0.82561 0.0
C501 C 0.66581 0.82229 0.84676 0.0
C502 C 0.55146 0.88628 0.9452 0.0
C503 C 0.68402 0.93256 0.87272 0.0
O504 O 0.60619 0.83917 0.94452 0.0
O505 O 0.63842 0.82324 0.91882 0.0
O506 O 0.61206 0.9379 0.90133 0.0
O507 O 0.60153 0.91334 0.93662 0.0
O508 O 0.68289 0.90445 0.80805 0.0
O509 O 0.69776 0.86744 0.8205 0.0
O510 O 0.57446 0.83991 0.91475 0.0
O511 O 0.59749 0.83274 0.87865 0.0
Co512 Co 0.91973 0.13745 0.42189 0.0
Co513 Co 0.89061 0.09955 0.37208 0.0
Co514 Co 0.87562 0.15863 0.38325 0.0
H515 H 0.89351 0.14051 0.40118 0.0
O516 O 0.88645 0.12451 0.40329 0.0
H517 H 0.87402 0.11809 0.35408 0.0
O518 O 0.88105 0.13407 0.35221 0.0
Co519 Co 0.84837 0.12063 0.33285 0.0
O520 O 0.8586 0.08527 0.31505 0.0
O521 O 0.89475 0.07518 0.33954 0.0
O522 O 0.82713 0.15147 0.34886 0.0
O523 O 0.85629 0.1844 0.36125 0.0
O524 O 0.95521 0.12514 0.43776 0.0
O525 O 0.92479 0.13895 0.46194 0.0
O526 O 0.82613 0.08897 0.34556 0.0
O527 O 0.85368 0.08088 0.37938 0.0
C528 C 0.88859 0.18853 0.43472 0.0
C529 C 0.92197 0.07398 0.41282 0.0
C530 C 0.83749 0.1381 0.28925 0.0
C531 C 0.93431 0.18295 0.38748 0.0
C532 C 0.87904 0.07064 0.31941 0.0
C533 C 0.83391 0.17655 0.35074 0.0
C534 C 0.94822 0.1301 0.46092 0.0
C535 C 0.83158 0.07581 0.3662 0.0
O536 O 0.90909 0.17367 0.438 0.0
O537 O 0.87133 0.1836 0.41581 0.0
O538 O 0.90583 0.07093 0.39334 0.0
O539 O 0.92825 0.09701 0.42302 0.0
O540 O 0.82837 0.11618 0.29783 0.0
O541 O 0.85294 0.15024 0.30543 0.0
O542 O 0.94104 0.16776 0.40629 0.0
O543 O 0.91117 0.17981 0.37563 0.0
Co544 Co 0.59825 0.13551 0.58803 0.0
Co545 Co 0.63017 0.10223 0.63615 0.0
Co546 Co 0.63674 0.16288 0.62912 0.0
H547 H 0.62348 0.14245 0.60921 0.0
O548 O 0.63298 0.12826 0.60645 0.0
H549 H 0.64525 0.1225 0.65538 0.0
O550 O 0.63574 0.13659 0.65852 0.0
Co551 Co 0.67138 0.12951 0.67566 0.0
O552 O 0.65496 0.09841 0.69661 0.0
O553 O 0.6273 0.07714 0.66736 0.0
O554 O 0.68268 0.16877 0.66605 0.0
O555 O 0.6469 0.19196 0.65339 0.0
O556 O 0.55817 0.12991 0.59644 0.0
O557 O 0.57433 0.11395 0.56227 0.0
O558 O 0.69221 0.09588 0.66569 0.0
O559 O 0.66832 0.08832 0.62904 0.0
C560 C 0.62744 0.18823 0.57502 0.0
C561 C 0.60963 0.07402 0.58918 0.0
C562 C 0.70496 0.1455 0.70867 0.0
C563 C 0.57974 0.18075 0.61954 0.0
C564 C 0.63861 0.07902 0.69029 0.0
C565 C 0.66955 0.19085 0.66506 0.0
C566 C 0.55364 0.11657 0.57563 0.0
C567 C 0.68871 0.08306 0.64405 0.0
O568 O 0.61259 0.16809 0.56733 0.0
O569 O 0.63779 0.18938 0.59849 0.0
O570 O 0.61816 0.07277 0.6128 0.0
O571 O 0.60453 0.09598 0.57714 0.0
O572 O 0.70942 0.12766 0.69161 0.0
O573 O 0.68155 0.15439 0.70684 0.0
O574 O 0.57848 0.16986 0.59684 0.0
O575 O 0.5979 0.17349 0.63618 0.0
Co576 Co 0.13378 0.33693 0.84222 0.0
Co577 Co 0.16787 0.3721 0.88909 0.0
Co578 Co 0.10834 0.37901 0.87955 0.0
H579 H 0.12793 0.36362 0.86143 0.0
O580 O 0.14236 0.373 0.85846 0.0
H581 H 0.14851 0.3887 0.90658 0.0
O582 O 0.13417 0.37941 0.91005 0.0
Co583 Co 0.14292 0.41679 0.92395 0.0
O584 O 0.17409 0.40223 0.94665 0.0
O585 O 0.19219 0.37037 0.92112 0.0
O586 O 0.10526 0.42882 0.9107 0.0
O587 O 0.08054 0.39186 0.90193 0.0
O588 O 0.13468 0.29963 0.82545 0.0
O589 O 0.15243 0.33295 0.80713 0.0
O590 O 0.17741 0.43645 0.91439 0.0
O591 O 0.18385 0.40977 0.87998 0.0
C592 C 0.08136 0.36482 0.82669 0.0
C593 C 0.1941 0.33677 0.85405 0.0
C594 C 0.12974 0.45568 0.951 0.0
C595 C 0.08813 0.32004 0.87425 0.0
C596 C 0.19168 0.38409 0.94266 0.0
C597 C 0.08242 0.41658 0.90826 0.0
C598 C 0.1469 0.30807 0.80576 0.0
C599 C 0.19001 0.43128 0.89359 0.0
O600 O 0.09904 0.34692 0.8224 0.0
O601 O 0.08252 0.37974 0.8476 0.0
O602 O 0.19616 0.35867 0.86719 0.0
O603 O 0.17189 0.32331 0.85223 0.0
O604 O 0.14342 0.45766 0.93067 0.0
O605 O 0.12301 0.43162 0.95563 0.0
O606 O 0.10081 0.31592 0.85327 0.0
O607 O 0.09387 0.34095 0.88876 0.0
Co608 Co 0.38925 0.66456 0.33759 0.0
Co609 Co 0.35453 0.63429 0.38594 0.0
Co610 Co 0.41486 0.62822 0.37932 0.0
H611 H 0.39471 0.64005 0.35902 0.0
O612 O 0.3803 0.63018 0.35624 0.0
H613 H 0.3749 0.62097 0.40567 0.0
O614 O 0.38899 0.63123 0.40836 0.0
Co615 Co 0.38232 0.59696 0.42747 0.0
O616 O 0.34789 0.60974 0.44507 0.0
O617 O 0.33077 0.6398 0.41694 0.0
O618 O 0.4213 0.58524 0.42061 0.0
O619 O 0.44371 0.62019 0.404 0.0
O620 O 0.38553 0.70596 0.34112 0.0
O621 O 0.37465 0.68546 0.30635 0.0
O622 O 0.34933 0.57417 0.41792 0.0
O623 O 0.33768 0.59512 0.38125 0.0
C624 C 0.43945 0.63348 0.32522 0.0
C625 C 0.32669 0.65713 0.34117 0.0
C626 C 0.39769 0.57203 0.46638 0.0
C627 C 0.43537 0.68518 0.3683 0.0
C628 C 0.3303 0.62726 0.43882 0.0
C629 C 0.44304 0.59905 0.41772 0.0
C630 C 0.37686 0.70802 0.31787 0.0
C631 C 0.33402 0.57569 0.39768 0.0
O632 O 0.42001 0.64798 0.31725 0.0
O633 O 0.44085 0.62487 0.34896 0.0
O634 O 0.32494 0.64462 0.36265 0.0
O635 O 0.34879 0.66365 0.33058 0.0
O636 O 0.39466 0.56159 0.44381 0.0
O637 O 0.39272 0.59683 0.46666 0.0
O638 O 0.42421 0.685 0.34569 0.0
O639 O 0.42754 0.66791 0.38532 0.0
Co640 Co 0.92451 0.59465 0.87018 0.0
Co641 Co 0.8723 0.62706 0.90766 0.0
Co642 Co 0.88291 0.63326 0.84812 0.0
H643 H 0.90245 0.61948 0.86771 0.0
O644 O 0.90481 0.62831 0.88254 0.0
H645 H 0.85422 0.64046 0.88611 0.0
O646 O 0.85191 0.63019 0.87228 0.0
Co647 Co 0.83418 0.66538 0.87653 0.0
O648 O 0.81321 0.65371 0.90776 0.0
O649 O 0.83919 0.62505 0.93002 0.0
O650 O 0.85211 0.6817 0.84495 0.0
O651 O 0.85943 0.64593 0.82 0.0
O652 O 0.9341 0.55958 0.88825 0.0
O653 O 0.96006 0.57758 0.86134 0.0
O654 O 0.84312 0.68864 0.9086 0.0
O655 O 0.87908 0.66652 0.9223 0.0
C656 C 0.93829 0.62637 0.82256 0.0
C657 C 0.90969 0.60021 0.92619 0.0
C658 C 0.79573 0.68577 0.85375 0.0
C659 C 0.8917 0.57548 0.82598 0.0
C660 C 0.81735 0.63817 0.92713 0.0
C661 C 0.85415 0.67075 0.8223 0.0
C662 C 0.95599 0.55841 0.87667 0.0
C663 C 0.86306 0.68672 0.9245 0.0
O664 O 0.94575 0.60901 0.83943 0.0
O665 O 0.91518 0.63763 0.82395 0.0
O666 O 0.89439 0.6157 0.93824 0.0
O667 O 0.90275 0.59635 0.90229 0.0
O668 O 0.8175 0.6981 0.85915 0.0
O669 O 0.79591 0.66159 0.86094 0.0
O670 O 0.91453 0.57391 0.83724 0.0
O671 O 0.87554 0.59443 0.83272 0.0
Co672 Co 0.58312 0.58604 0.1334 0.0
Co673 Co 0.63461 0.61734 0.09439 0.0
Co674 Co 0.62355 0.63153 0.15236 0.0
H675 H 0.6047 0.61264 0.13479 0.0
O676 O 0.60233 0.6194 0.11925 0.0
H677 H 0.65295 0.63371 0.11396 0.0
O678 O 0.65512 0.62616 0.12906 0.0
Co679 Co 0.67355 0.66022 0.11898 0.0
O680 O 0.69474 0.64673 0.08847 0.0
O681 O 0.6668 0.6151 0.07111 0.0
O682 O 0.65096 0.67926 0.14572 0.0
O683 O 0.64587 0.65128 0.17841 0.0
O684 O 0.57176 0.55156 0.11346 0.0
O685 O 0.544 0.57281 0.13551 0.0
O686 O 0.66251 0.68047 0.08668 0.0
O687 O 0.62596 0.65499 0.07897 0.0
C688 C 0.57028 0.62178 0.18004 0.0
C689 C 0.59703 0.58752 0.07668 0.0
C690 C 0.7115 0.68725 0.13661 0.0
C691 C 0.61885 0.57517 0.17804 0.0
C692 C 0.68893 0.62864 0.07118 0.0
C693 C 0.65356 0.67412 0.17002 0.0
C694 C 0.54784 0.55311 0.12037 0.0
C695 C 0.64067 0.67602 0.07397 0.0
O696 O 0.56427 0.601 0.16569 0.0
O697 O 0.59131 0.63652 0.1758 0.0
O698 O 0.61284 0.60266 0.06475 0.0
O699 O 0.60416 0.58363 0.10048 0.0
O700 O 0.69656 0.69411 0.11779 0.0
O701 O 0.70517 0.6645 0.14553 0.0
O702 O 0.59727 0.56835 0.16577 0.0
O703 O 0.63225 0.59669 0.17213 0.0
Co704 Co 0.66273 0.34088 0.38437 0.0
Co705 Co 0.63245 0.39446 0.34912 0.0
Co706 Co 0.62479 0.38343 0.40742 0.0
H707 H 0.63853 0.36359 0.38807 0.0
O708 O 0.62972 0.36167 0.37323 0.0
H709 H 0.6185 0.41308 0.3696 0.0
O710 O 0.62833 0.41491 0.38372 0.0
Co711 Co 0.59454 0.43465 0.37786 0.0
O712 O 0.60791 0.45631 0.34646 0.0
O713 O 0.63561 0.42755 0.3266 0.0
O714 O 0.57722 0.41598 0.40938 0.0
O715 O 0.61235 0.40711 0.43509 0.0
O716 O 0.70086 0.32796 0.3799 0.0
O717 O 0.66801 0.30265 0.36984 0.0
O718 O 0.57269 0.4254 0.345 0.0
O719 O 0.59385 0.38776 0.33426 0.0
C720 C 0.63219 0.32749 0.43318 0.0
C721 C 0.66365 0.3598 0.33005 0.0
C722 C 0.57757 0.47328 0.40279 0.0
C723 C 0.68181 0.37454 0.42804 0.0
C724 C 0.62411 0.45047 0.32813 0.0
C725 C 0.5877 0.41249 0.43228 0.0
C726 C 0.69315 0.30524 0.37118 0.0
C727 C 0.57438 0.40422 0.33074 0.0
O728 O 0.64828 0.31961 0.41551 0.0
O729 O 0.62149 0.35105 0.43214 0.0
O730 O 0.64456 0.37268 0.31997 0.0
O731 O 0.66946 0.36569 0.35392 0.0
O732 O 0.56399 0.45219 0.39741 0.0
O733 O 0.60085 0.47253 0.3939 0.0
O734 O 0.68316 0.35135 0.41733 0.0
O735 O 0.66318 0.39092 0.42141 0.0
Co736 Co 0.9266 0.42214 0.63978 0.0
Co737 Co 0.8755 0.39142 0.5968 0.0
Co738 Co 0.88585 0.37771 0.65545 0.0
H739 H 0.90504 0.39579 0.63911 0.0
O740 O 0.90755 0.38886 0.62354 0.0
H741 H 0.8568 0.37537 0.61505 0.0
O742 O 0.85455 0.38304 0.63022 0.0
Co743 Co 0.83584 0.34903 0.61797 0.0
O744 O 0.81608 0.36101 0.58491 0.0
O745 O 0.84298 0.39499 0.57246 0.0
O746 O 0.85826 0.32996 0.64579 0.0
O747 O 0.86303 0.35803 0.67968 0.0
O748 O 0.92931 0.45889 0.62244 0.0
O749 O 0.96381 0.43854 0.63456 0.0
O750 O 0.84617 0.32881 0.5851 0.0
O751 O 0.88331 0.35358 0.58054 0.0
C752 C 0.94004 0.3859 0.68537 0.0
C753 C 0.9145 0.41951 0.58167 0.0
C754 C 0.79709 0.32845 0.63941 0.0
C755 C 0.8933 0.4333 0.68444 0.0
C756 C 0.82144 0.38049 0.56959 0.0
C757 C 0.85626 0.33485 0.67034 0.0
C758 C 0.95447 0.45876 0.62308 0.0
C759 C 0.86821 0.33301 0.57367 0.0
O760 O 0.94614 0.40675 0.67195 0.0
O761 O 0.91832 0.37192 0.68027 0.0
O762 O 0.89806 0.40537 0.56834 0.0
O763 O 0.90712 0.42318 0.60518 0.0
O764 O 0.81565 0.31534 0.62929 0.0
O765 O 0.80022 0.35355 0.63713 0.0
O766 O 0.91611 0.43757 0.67452 0.0
O767 O 0.87772 0.41381 0.67549 0.0
H768 H 0.18639 0.2924 0.33319 0.0
H769 H 0.19212 0.33456 0.40831 0.0
H770 H 0.22941 0.30536 0.42228 0.0
H771 H 0.20434 0.22441 0.35902 0.0
H772 H 0.2231 0.21617 0.33022 0.0
H773 H 0.19449 0.23786 0.32757 0.0
H774 H 0.22417 0.27587 0.30681 0.0
H775 H 0.25153 0.25283 0.30847 0.0
H776 H 0.25518 0.28607 0.32339 0.0
H777 H 0.26882 0.27681 0.42559 0.0
H778 H 0.30633 0.2455 0.42058 0.0
H779 H 0.27513 0.22145 0.34319 0.0
C780 C 0.19518 0.29478 0.35276 0.0
C781 C 0.18686 0.31518 0.3699 0.0
C782 C 0.19863 0.31862 0.39522 0.0
C783 C 0.21965 0.30226 0.40324 0.0
C784 C 0.22829 0.28281 0.38556 0.0
C785 C 0.21623 0.27862 0.36104 0.0
C786 C 0.23044 0.25735 0.34537 0.0
C787 C 0.21199 0.23247 0.34026 0.0
C788 C 0.24098 0.26878 0.31951 0.0
C789 C 0.25305 0.25119 0.36449 0.0
C790 C 0.25126 0.266 0.38758 0.0
C791 C 0.27037 0.26476 0.40781 0.0
C792 C 0.29167 0.24722 0.40466 0.0
C793 C 0.29335 0.23128 0.38152 0.0
C794 C 0.27407 0.23347 0.36107 0.0
H795 H 0.93341 0.95636 0.61603 0.0
H796 H 0.96878 0.92246 0.54647 0.0
H797 H 0.9931 0.96564 0.53925 0.0
H798 H 0.9347 0.03223 0.59132 0.0
H799 H 0.94212 0.04351 0.62456 0.0
H800 H 0.92001 0.01469 0.61845 0.0
H801 H 0.94998 0.98609 0.64918 0.0
H802 H 0.97235 0.01432 0.65503 0.0
H803 H 0.98521 0.98302 0.64235 0.0
H804 H 0.02379 1.00316 0.54836 0.0
H805 H 0.0562 0.03409 0.57099 0.0
H806 H 1.00013 0.04648 0.63366 0.0
C807 C 0.9453 0.95878 0.59863 0.0
C808 C 0.94935 0.93678 0.58159 0.0
C809 C 0.96547 0.93959 0.55941 0.0
C810 C 0.97906 0.96404 0.55509 0.0
C811 C 0.9759 0.98522 0.57308 0.0
C812 C 0.95877 0.9831 0.59407 0.0
C813 C 0.96261 0.00653 0.61321 0.0
C814 C 0.93843 0.02537 0.61178 0.0
C815 C 0.96788 0.99688 0.64157 0.0
C816 C 0.98716 0.01986 0.60184 0.0
C817 C 0.99381 0.00798 0.5781 0.0
C818 C 0.01831 0.01333 0.56635 0.0
C819 C 0.03674 0.03055 0.57953 0.0
C820 C 0.03039 0.04233 0.604 0.0
C821 C 1.00502 0.03784 0.61474 0.0
H822 H 0.21787 0.77134 0.85298 0.0
H823 H 0.26836 0.83906 0.87982 0.0
H824 H 0.30882 0.81335 0.86825 0.0
H825 H 0.25515 0.7219 0.87991 0.0
H826 H 0.24977 0.69747 0.85363 0.0
H827 H 0.22528 0.72296 0.85927 0.0
H828 H 0.22917 0.73855 0.81098 0.0
H829 H 0.25388 0.71304 0.80518 0.0
H830 H 0.26161 0.748 0.79861 0.0
H831 H 0.34293 0.77852 0.85906 0.0
H832 H 0.36852 0.73658 0.85589 0.0
H833 H 0.29484 0.69158 0.8364 0.0
C834 C 0.23744 0.78097 0.85599 0.0
C835 C 0.24026 0.80704 0.86726 0.0
C836 C 0.26602 0.81904 0.87109 0.0
C837 C 0.28897 0.80471 0.86438 0.0
C838 C 0.28548 0.77877 0.85358 0.0
C839 C 0.26032 0.76707 0.84935 0.0
C840 C 0.26187 0.73791 0.84049 0.0
C841 C 0.24717 0.71897 0.85947 0.0
C842 C 0.25099 0.73417 0.81213 0.0
C843 C 0.29187 0.73446 0.84198 0.0
C844 C 0.30519 0.75844 0.84874 0.0
C845 C 0.33281 0.75974 0.85329 0.0
C846 C 0.34711 0.73576 0.85157 0.0
C847 C 0.33361 0.71078 0.84588 0.0
C848 C 0.30577 0.71036 0.84038 0.0
H849 H 0.45252 0.00849 0.11612 0.0
H850 H 0.49837 0.93583 0.10407 0.0
H851 H 0.53704 0.96321 0.09066 0.0
H852 H 0.48862 0.053 0.06507 0.0
H853 H 0.48775 0.08178 0.08713 0.0
H854 H 0.46068 0.05703 0.08662 0.0
H855 H 0.46756 0.0505 0.13673 0.0
H856 H 0.49467 0.07487 0.13738 0.0
H857 H 0.5002 0.04125 0.14941 0.0
H858 H 0.57259 0.99541 0.09225 0.0
H859 H 0.60372 0.03152 0.10629 0.0
H860 H 0.53708 0.08584 0.11658 0.0
C861 C 0.47044 0.99851 0.10962 0.0
C862 C 0.47254 0.97024 0.11053 0.0
C863 C 0.49638 0.95756 0.10297 0.0
C864 C 0.51836 0.97293 0.09516 0.0
C865 C 0.51617 1.00091 0.09539 0.0
C866 C 0.49282 0.01373 0.10232 0.0
C867 C 0.49755 0.0438 0.10636 0.0
C868 C 0.48278 0.05985 0.08501 0.0
C869 C 0.48954 0.05311 0.13411 0.0
C870 C 0.52762 0.04533 0.10302 0.0
C871 C 0.5377 0.02046 0.09588 0.0
C872 C 0.56502 0.01534 0.09641 0.0
C873 C 0.58258 0.03604 0.1046 0.0
C874 C 0.57281 0.06173 0.11169 0.0
C875 C 0.54504 0.06658 0.11045 0.0
H876 H 0.16951 0.73101 0.12034 0.0
H877 H 0.18153 0.70951 0.20198 0.0
H878 H 0.20673 0.75254 0.21006 0.0
H879 H 0.23294 0.75116 0.11196 0.0
H880 H 0.22594 0.77792 0.08923 0.0
H881 H 0.20275 0.74999 0.09169 0.0
H882 H 0.16432 0.78294 0.10181 0.0
H883 H 0.18756 0.8111 0.09911 0.0
H884 H 0.1684 0.80712 0.1285 0.0
H885 H 0.23655 0.79324 0.20738 0.0
H886 H 0.27251 0.82453 0.19344 0.0
H887 H 0.24286 0.81759 0.11291 0.0
C888 C 0.1764 0.73591 0.14021 0.0
C889 C 0.17332 0.71729 0.16068 0.0
C890 C 0.18361 0.72374 0.18614 0.0
C891 C 0.19766 0.74821 0.19091 0.0
C892 C 0.20116 0.76582 0.16998 0.0
C893 C 0.19088 0.75983 0.14507 0.0
C894 C 0.2017 0.77897 0.1248 0.0
C895 C 0.21673 0.76359 0.1032 0.0
C896 C 0.17914 0.79606 0.11287 0.0
C897 C 0.22065 0.796 0.14197 0.0
C898 C 0.21941 0.78875 0.16812 0.0
C899 C 0.23721 0.79962 0.18715 0.0
C900 C 0.2575 0.81745 0.17908 0.0
C901 C 0.26005 0.82353 0.15217 0.0
C902 C 0.24082 0.81359 0.13366 0.0
H903 H 0.55937 0.95906 0.44146 0.0
H904 H 0.55859 0.9303 0.36111 0.0
H905 H 0.51587 0.95329 0.35201 0.0
H906 H 0.48915 0.9594 0.45257 0.0
H907 H 0.48812 0.99179 0.46881 0.0
H908 H 0.51808 0.97195 0.47124 0.0
H909 H 0.54767 0.0096 0.45309 0.0
H910 H 0.51961 0.03184 0.45039 0.0
H911 H 0.53911 0.02466 0.42201 0.0
H912 H 0.47326 0.97689 0.35226 0.0
H913 H 0.44015 0.01295 0.3564 0.0
H914 H 0.47166 0.03253 0.43469 0.0
C915 C 0.54995 0.9576 0.4221 0.0
C916 C 0.56062 0.94136 0.40222 0.0
C917 C 0.54893 0.94085 0.37677 0.0
C918 C 0.52499 0.95396 0.37151 0.0
C919 C 0.51369 0.96829 0.39192 0.0
C920 C 0.52634 0.97137 0.41629 0.0
C921 C 0.512 0.99147 0.43323 0.0
C922 C 0.50124 0.97787 0.45794 0.0
C923 C 0.53069 0.01581 0.4401 0.0
C924 C 0.48936 0.99905 0.41451 0.0
C925 C 0.49031 0.98465 0.39115 0.0
C926 C 0.47211 0.98838 0.37043 0.0
C927 C 0.45323 0.00865 0.37307 0.0
C928 C 0.45349 0.02521 0.39591 0.0
C929 C 0.47102 0.01978 0.41724 0.0
H930 H 0.3375 0.27354 0.62549 0.0
H931 H 0.32145 0.2947 0.70629 0.0
H932 H 0.29874 0.25018 0.71201 0.0
H933 H 0.27648 0.24778 0.61122 0.0
H934 H 0.28695 0.22132 0.58921 0.0
H935 H 0.30758 0.25108 0.59394 0.0
H936 H 0.34804 0.22157 0.608 0.0
H937 H 0.32717 0.1917 0.60274 0.0
H938 H 0.34417 0.19754 0.63401 0.0
H939 H 0.27195 0.20774 0.7066 0.0
H940 H 0.23773 0.17514 0.68912 0.0
H941 H 0.27056 0.18244 0.61144 0.0
C942 C 0.32987 0.26831 0.64458 0.0
C943 C 0.33076 0.28714 0.66545 0.0
C944 C 0.32024 0.28036 0.69004 0.0
C945 C 0.30792 0.25501 0.69355 0.0
C946 C 0.30671 0.23689 0.67227 0.0
C947 C 0.31731 0.24336 0.64819 0.0
C948 C 0.30914 0.22299 0.62708 0.0
C949 C 0.29413 0.2366 0.60405 0.0
C950 C 0.33359 0.20752 0.6174 0.0
C951 C 0.2908 0.20493 0.6426 0.0
C952 C 0.29053 0.21255 0.66889 0.0
C953 C 0.27249 0.20106 0.68629 0.0
C954 C 0.2532 0.1825 0.67625 0.0
C955 C 0.25186 0.1765 0.64904 0.0
C956 C 0.27172 0.18655 0.6324 0.0
H957 H 0.06325 0.0154 0.88593 0.0
H958 H 0.01625 0.94509 0.90851 0.0
H959 H 0.98221 0.97482 0.927 0.0
H960 H 0.04409 0.06291 0.94041 0.0
H961 H 0.04091 0.09086 0.91824 0.0
H962 H 0.06502 0.06487 0.91202 0.0
H963 H 0.04389 0.05637 0.86549 0.0
H964 H 0.02013 0.08251 0.87147 0.0
H965 H 0.00837 0.04897 0.86219 0.0
H966 H 0.95225 0.00921 0.93921 0.0
H967 H 0.92161 0.04674 0.93433 0.0
H968 H 0.98581 0.09621 0.90239 0.0
C969 C 0.04619 0.00639 0.89561 0.0
C970 C 0.04265 0.97814 0.89677 0.0
C971 C 0.01961 0.96677 0.90829 0.0
C972 C 1.00045 0.98338 0.91921 0.0
C973 C 1.00472 0.01115 0.91842 0.0
C974 C 0.02658 0.02271 0.90628 0.0
C975 C 0.02328 0.05281 0.90305 0.0
C976 C 0.0446 0.0688 0.91942 0.0
C977 C 0.02393 0.0606 0.87383 0.0
C978 C 0.99561 0.05598 0.91425 0.0
C979 C 0.98588 0.03181 0.92394 0.0
C980 C 0.95973 0.02848 0.93234 0.0
C981 C 0.94245 0.05001 0.92947 0.0
C982 C 0.95143 0.07444 0.91813 0.0
C983 C 0.97862 0.07791 0.91157 0.0
H984 H 0.3423 0.29285 0.2387 0.0
H985 H 0.36528 0.2426 0.17286 0.0
H986 H 0.35205 0.20176 0.19728 0.0
H987 H 0.37138 0.2561 0.28424 0.0
H988 H 0.34703 0.26086 0.30949 0.0
H989 H 0.3507 0.28567 0.28447 0.0
H990 H 0.3 0.28061 0.27148 0.0
H991 H 0.29677 0.25648 0.29747 0.0
H992 H 0.2858 0.24742 0.26441 0.0
H993 H 0.34913 0.16796 0.23234 0.0
H994 H 0.35451 0.14402 0.27441 0.0
H995 H 0.33006 0.2159 0.31645 0.0
C996 C 0.34355 0.27326 0.22906 0.0
C997 C 0.35471 0.27061 0.20408 0.0
C998 C 0.35655 0.24484 0.19204 0.0
C999 C 0.34893 0.22163 0.20569 0.0
C1000 C 0.33906 0.22482 0.23096 0.0
C1001 C 0.33592 0.25011 0.24233 0.0
C1002 C 0.32952 0.24835 0.27106 0.0
C1003 C 0.35093 0.26361 0.28829 0.0
C1004 C 0.30129 0.25882 0.27636 0.0
C1005 C 0.33088 0.21816 0.27451 0.0
C1006 C 0.33618 0.20483 0.25115 0.0
C1007 C 0.34381 0.17782 0.25055 0.0
C1008 C 0.34697 0.16443 0.27446 0.0
C1009 C 0.34215 0.17808 0.2984 0.0
C1010 C 0.3328 0.20475 0.29827 0.0
H1011 H 0.07876 0.07878 0.53069 0.0
H1012 H 0.05121 0.11763 0.60149 0.0
H1013 H 1.00597 0.12222 0.58114 0.0
H1014 H 0.05087 0.1262 0.49134 0.0
H1015 H 0.04356 0.10358 0.46394 0.0
H1016 H 0.07064 0.09645 0.48653 0.0
H1017 H 0.04985 0.05005 0.49255 0.0
H1018 H 0.01949 0.05588 0.47363 0.0
H1019 H 0.01794 0.04606 0.50763 0.0
H1020 H 0.96705 0.12952 0.55083 0.0
H1021 H 0.9383 0.14128 0.51249 0.0
H1022 H 0.99383 0.10164 0.4607 0.0
C1023 C 0.06272 0.08709 0.54219 0.0
C1024 C 0.0675 0.09625 0.56803 0.0
C1025 C 0.04702 0.10885 0.58221 0.0
C1026 C 0.02146 0.11172 0.57073 0.0
C1027 C 0.01741 0.10279 0.54485 0.0
C1028 C 0.03767 0.09106 0.53068 0.0
C1029 C 0.03042 0.08824 0.50192 0.0
C1030 C 0.05003 0.1046 0.48497 0.0
C1031 C 0.02927 0.05831 0.49338 0.0
C1032 C 1.00305 0.10071 0.50194 0.0
C1033 C 0.99565 0.1086 0.52688 0.0
C1034 C 0.97234 0.12302 0.53127 0.0
C1035 C 0.95632 0.1298 0.50948 0.0
C1036 C 0.96416 0.12248 0.48389 0.0
C1037 C 0.98749 0.10745 0.48017 0.0
H1038 H 0.14302 0.84862 0.77604 0.0
H1039 H 0.21569 0.82234 0.81584 0.0
H1040 H 0.22168 0.78772 0.78166 0.0
H1041 H 0.1167 0.79025 0.76465 0.0
H1042 H 0.10235 0.79452 0.73217 0.0
H1043 H 0.10812 0.82346 0.75325 0.0
H1044 H 0.13752 0.8465 0.7185 0.0
H1045 H 0.13111 0.81798 0.69666 0.0
H1046 H 0.1652 0.82858 0.70466 0.0
H1047 H 0.21052 0.74801 0.75625 0.0
H1048 H 0.18908 0.70988 0.73221 0.0
H1049 H 0.12609 0.76217 0.70377 0.0
C1050 C 0.16102 0.83663 0.77654 0.0
C1051 C 0.17879 0.83773 0.79846 0.0
C1052 C 0.20176 0.8214 0.79921 0.0
C1053 C 0.20543 0.80187 0.77978 0.0
C1054 C 0.18621 0.79947 0.75958 0.0
C1055 C 0.16491 0.81698 0.75716 0.0
C1056 C 0.14479 0.80718 0.73621 0.0
C1057 C 0.11635 0.80364 0.74726 0.0
C1058 C 0.14467 0.82619 0.7126 0.0
C1059 C 0.15682 0.78027 0.72922 0.0
C1060 C 0.18081 0.77641 0.74283 0.0
C1061 C 0.19276 0.75126 0.74413 0.0
C1062 C 0.18029 0.72967 0.73063 0.0
C1063 C 0.15672 0.73361 0.71529 0.0
C1064 C 0.14482 0.75916 0.7145 0.0
H1065 H 0.54445 0.91574 0.98987 0.0
H1066 H 0.50158 0.86619 0.93118 0.0
H1067 H 0.46027 0.869 0.95716 0.0
H1068 H 0.51815 0.88664 0.04402 0.0
H1069 H 0.51527 0.91705 0.06347 0.0
H1070 H 0.54015 0.91529 0.03857 0.0
H1071 H 0.52035 0.95753 0.01438 0.0
H1072 H 0.4978 0.96042 0.04146 0.0
H1073 H 0.48483 0.95873 0.00814 0.0
H1074 H 0.42502 0.87418 0.99135 0.0
H1075 H 0.39849 0.88081 0.03106 0.0
H1076 H 0.46516 0.92574 0.06797 0.0
C1077 C 0.52618 0.90602 0.9822 0.0
C1078 C 0.52602 0.89088 0.95853 0.0
C1079 C 0.50193 0.87814 0.94918 0.0
C1080 C 0.47843 0.87961 0.96379 0.0
C1081 C 0.47945 0.89414 0.98747 0.0
C1082 C 0.50262 0.90736 0.99646 0.0
C1083 C 0.49896 0.92006 0.02329 0.0
C1084 C 0.51933 0.9091 0.04352 0.0
C1085 C 0.50059 0.95104 0.02179 0.0
C1086 C 0.47063 0.9107 0.02868 0.0
C1087 C 0.45946 0.89639 0.00751 0.0
C1088 C 0.43348 0.88562 0.00792 0.0
C1089 C 0.41857 0.88957 0.03061 0.0
C1090 C 0.42982 0.90388 0.05273 0.0
C1091 C 0.45611 0.9147 0.05152 0.0
H1092 H 0.33056 0.79329 0.19741 0.0
H1093 H 0.3611 0.86445 0.2401 0.0
H1094 H 0.3654 0.83763 0.28031 0.0
H1095 H 0.29542 0.76 0.25397 0.0
H1096 H 0.30565 0.72725 0.24232 0.0
H1097 H 0.29901 0.75377 0.21926 0.0
H1098 H 0.34673 0.74708 0.20062 0.0
H1099 H 0.35347 0.72136 0.22429 0.0
H1100 H 0.37565 0.75046 0.22247 0.0
H1101 H 0.37384 0.80191 0.31333 0.0
H1102 H 0.38522 0.75975 0.33654 0.0
H1103 H 0.34989 0.71255 0.27172 0.0
C1104 C 0.33736 0.80347 0.21538 0.0
C1105 C 0.34547 0.8309 0.21562 0.0
C1106 C 0.35464 0.84342 0.23947 0.0
C1107 C 0.35704 0.8284 0.26247 0.0
C1108 C 0.34989 0.80108 0.26128 0.0
C1109 C 0.33998 0.7888 0.23839 0.0
C1110 C 0.3372 0.75856 0.24116 0.0
C1111 C 0.30755 0.74937 0.23908 0.0
C1112 C 0.35429 0.74351 0.22095 0.0
C1113 C 0.34836 0.75564 0.26874 0.0
C1114 C 0.35508 0.78037 0.28028 0.0
C1115 C 0.36809 0.78244 0.3048 0.0
C1116 C 0.3746 0.75851 0.31774 0.0
C1117 C 0.36838 0.73317 0.30578 0.0
C1118 C 0.35473 0.73178 0.28129 0.0
H1119 H 0.54382 0.08162 0.53583 0.0
H1120 H 0.50453 0.1321 0.59298 0.0
H1121 H 0.4614 0.12532 0.56855 0.0
H1122 H 0.51971 0.10837 0.48468 0.0
H1123 H 0.51427 0.07915 0.46365 0.0
H1124 H 0.53909 0.0783 0.48959 0.0
H1125 H 0.51695 0.03604 0.50785 0.0
H1126 H 0.48944 0.03601 0.48407 0.0
H1127 H 0.48263 0.03651 0.51851 0.0
H1128 H 0.4273 0.12368 0.53258 0.0
H1129 H 0.40466 0.12627 0.4893 0.0
H1130 H 0.46718 0.07795 0.45508 0.0
C1131 C 0.52582 0.09005 0.54394 0.0
C1132 C 0.52718 0.10719 0.56617 0.0
C1133 C 0.50359 0.11857 0.57606 0.0
C1134 C 0.47906 0.11475 0.56235 0.0
C1135 C 0.47872 0.09914 0.53929 0.0
C1136 C 0.50147 0.0865 0.53048 0.0
C1137 C 0.49744 0.07508 0.50304 0.0
C1138 C 0.51888 0.08589 0.48417 0.0
C1139 C 0.49664 0.04405 0.50343 0.0
C1140 C 0.47006 0.0859 0.49658 0.0
C1141 C 0.45905 0.09869 0.51805 0.0
C1142 C 0.4353 0.11297 0.5159 0.0
C1143 C 0.42274 0.11451 0.49115 0.0
C1144 C 0.43432 0.1023 0.46881 0.0
C1145 C 0.45784 0.08729 0.4718 0.0
H1146 H 0.14867 0.17293 0.72462 0.0
H1147 H 0.19897 0.21507 0.66922 0.0
H1148 H 0.20557 0.25273 0.70085 0.0
H1149 H 0.11327 0.22569 0.74171 0.0
H1150 H 0.10982 0.2184 0.77607 0.0
H1151 H 0.11496 0.19135 0.753 0.0
H1152 H 0.15716 0.17627 0.77934 0.0
H1153 H 0.15174 0.2029 0.80306 0.0
H1154 H 0.18368 0.20053 0.78726 0.0
H1155 H 0.19738 0.28944 0.73232 0.0
H1156 H 0.17985 0.32104 0.76553 0.0
H1157 H 0.13537 0.25485 0.80041 0.0
C1158 C 0.16201 0.18954 0.71965 0.0
C1159 C 0.17317 0.19135 0.69463 0.0
C1160 C 0.19008 0.21357 0.68839 0.0
C1161 C 0.19411 0.23493 0.70624 0.0
C1162 C 0.18127 0.23345 0.73015 0.0
C1163 C 0.16601 0.21109 0.73716 0.0
C1164 C 0.1512 0.21612 0.76221 0.0
C1165 C 0.12053 0.2127 0.75796 0.0
C1166 C 0.16159 0.19787 0.78428 0.0
C1167 C 0.15925 0.24526 0.76722 0.0
C1168 C 0.17683 0.25484 0.74874 0.0
C1169 C 0.18435 0.28205 0.74748 0.0
C1170 C 0.17405 0.29984 0.76609 0.0
C1171 C 0.15661 0.29009 0.78545 0.0
C1172 C 0.14914 0.26258 0.78601 0.0
H1173 H 0.96399 0.89862 0.0156 0.0
H1174 H 0.01512 0.90037 0.08575 0.0
H1175 H 0.05405 0.9135 0.05893 0.0
H1176 H 0.00964 0.86729 0.97595 0.0
H1177 H 1.00036 0.88507 0.94653 0.0
H1178 H 0.97611 0.88001 0.9717 0.0
H1179 H 0.96868 0.93233 0.97634 0.0
H1180 H 0.99098 0.93532 0.94927 0.0
H1181 H 0.9978 0.95452 0.9792 0.0
H1182 H 0.08779 0.92098 0.02381 0.0
H1183 H 0.11409 0.92159 0.98329 0.0
H1184 H 0.04032 0.91436 0.9365 0.0
C1185 C 0.98326 0.90236 0.02543 0.0
C1186 C 0.98668 0.89873 0.05264 0.0
C1187 C 0.01219 0.90332 0.06484 0.0
C1188 C 0.03432 0.91084 0.04981 0.0
C1189 C 0.03033 0.91378 0.0228 0.0
C1190 C 1.00541 0.90969 0.01079 0.0
C1191 C 1.00676 0.91128 0.9813 0.0
C1192 C 0.9977 0.88431 0.96812 0.0
C1193 C 0.99009 0.93485 0.97098 0.0
C1194 C 0.03651 0.91653 0.97839 0.0
C1195 C 0.04975 0.9181 1.00256 0.0
C1196 C 0.07762 0.92035 1.00479 0.0
C1197 C 0.09236 0.92057 0.98169 0.0
C1198 C 0.07915 0.91841 0.95677 0.0
C1199 C 0.05087 0.91692 0.9552 0.0
H1200 H 0.29928 0.39401 0.19743 0.0
H1201 H 0.30818 0.30714 0.19915 0.0
H1202 H 0.27024 0.30335 0.2297 0.0
H1203 H 0.28639 0.40205 0.2649 0.0
H1204 H 0.2626 0.42876 0.26054 0.0
H1205 H 0.28872 0.42415 0.23712 0.0
H1206 H 0.25297 0.42006 0.19941 0.0
H1207 H 0.22669 0.4247 0.22272 0.0
H1208 H 0.22612 0.39528 0.20142 0.0
H1209 H 0.23209 0.30953 0.2606 0.0
H1210 H 0.19858 0.3254 0.29228 0.0
H1211 H 0.21657 0.40849 0.27166 0.0
C1212 C 0.29282 0.37422 0.20399 0.0
C1213 C 0.30627 0.35078 0.19622 0.0
C1214 C 0.298 0.32519 0.20533 0.0
C1215 C 0.27642 0.3229 0.2224 0.0
C1216 C 0.26361 0.34648 0.23002 0.0
C1217 C 0.2716 0.37167 0.22123 0.0
C1218 C 0.25588 0.39403 0.23382 0.0
C1219 C 0.27451 0.41337 0.25006 0.0
C1220 C 0.23944 0.40942 0.2131 0.0
C1221 C 0.23791 0.37752 0.25121 0.0
C1222 C 0.24235 0.35011 0.24846 0.0
C1223 C 0.22828 0.33091 0.2628 0.0
C1224 C 0.20928 0.34005 0.28061 0.0
C1225 C 0.20511 0.36807 0.28413 0.0
C1226 C 0.21945 0.38695 0.26917 0.0
H1227 H 0.82308 0.13659 0.8109 0.0
H1228 H 0.80505 0.21814 0.83592 0.0
H1229 H 0.77601 0.22342 0.79612 0.0
H1230 H 0.81867 0.14878 0.7361 0.0
H1231 H 0.80436 0.1153 0.73179 0.0
H1232 H 0.82882 0.1221 0.75781 0.0
H1233 H 0.79416 0.1023 0.7905 0.0
H1234 H 0.76952 0.09739 0.76454 0.0
H1235 H 0.76174 0.11774 0.7929 0.0
H1236 H 0.74042 0.21473 0.76212 0.0
H1237 H 0.70582 0.19568 0.73127 0.0
H1238 H 0.74964 0.1209 0.72641 0.0
C1239 C 0.81373 0.15586 0.80735 0.0
C1240 C 0.81591 0.17701 0.82602 0.0
C1241 C 0.80344 0.20191 0.82144 0.0
C1242 C 0.78712 0.20504 0.79896 0.0
C1243 C 0.78421 0.1832 0.78141 0.0
C1244 C 0.79783 0.15934 0.78497 0.0
C1245 C 0.78882 0.13772 0.76534 0.0
C1246 C 0.81154 0.13058 0.74666 0.0
C1247 C 0.77791 0.11233 0.77916 0.0
C1248 C 0.76674 0.15252 0.75125 0.0
C1249 C 0.76442 0.17875 0.76068 0.0
C1250 C 0.74266 0.19468 0.75378 0.0
C1251 C 0.72303 0.18363 0.73653 0.0
C1252 C 0.72559 0.15709 0.72636 0.0
C1253 C 0.74783 0.14155 0.73346 0.0
H1254 H 0.0961 0.45494 0.99223 0.0
H1255 H 0.14443 0.50836 0.94469 0.0
H1256 H 0.13365 0.54679 0.97371 0.0
H1257 H 0.04429 0.50666 0.01092 0.0
H1258 H 0.04211 0.49301 0.04348 0.0
H1259 H 0.04906 0.47104 0.016 0.0
H1260 H 0.09223 0.45501 0.0403 0.0
H1261 H 0.08559 0.47707 0.06761 0.0
H1262 H 0.11722 0.47977 0.05121 0.0
H1263 H 0.12722 0.57547 0.01229 0.0
H1264 H 0.12149 0.59474 0.05627 0.0
H1265 H 0.07393 0.52474 0.07805 0.0
C1266 C 0.10378 0.4749 0.98759 0.0
C1267 C 0.12112 0.47888 0.96647 0.0
C1268 C 0.1311 0.50506 0.96091 0.0
C1269 C 0.12494 0.52698 0.97714 0.0
C1270 C 0.10847 0.52226 0.99841 0.0
C1271 C 0.09766 0.49697 1.00347 0.0
C1272 C 0.08312 0.4967 0.02923 0.0
C1273 C 0.05284 0.49156 0.02462 0.0
C1274 C 0.09528 0.47592 0.04819 0.0
C1275 C 0.08889 0.52535 0.03862 0.0
C1276 C 0.10329 0.53978 0.02037 0.0
C1277 C 0.11478 0.56501 0.02621 0.0
C1278 C 0.11137 0.57584 0.05131 0.0
C1279 C 0.0958 0.56192 0.06986 0.0
C1280 C 0.08457 0.53633 0.06353 0.0
H1281 H 0.79678 0.8893 0.24347 0.0
H1282 H 0.7692 0.82331 0.19234 0.0
H1283 H 0.74069 0.80568 0.22776 0.0
H1284 H 0.79706 0.85462 0.30539 0.0
H1285 H 0.78377 0.88303 0.3231 0.0
H1286 H 0.80395 0.8886 0.29467 0.0
H1287 H 0.76572 0.91613 0.27301 0.0
H1288 H 0.74571 0.91107 0.30155 0.0
H1289 H 0.73253 0.90114 0.26952 0.0
H1290 H 0.71557 0.79551 0.26958 0.0
H1291 H 0.68865 0.79899 0.30978 0.0
H1292 H 0.73065 0.87408 0.33091 0.0
C1293 C 0.78493 0.87098 0.23985 0.0
C1294 C 0.78552 0.8572 0.21555 0.0
C1295 C 0.76923 0.83379 0.21108 0.0
C1296 C 0.75316 0.8236 0.23111 0.0
C1297 C 0.75341 0.83745 0.25517 0.0
C1298 C 0.7684 0.86101 0.2593 0.0
C1299 C 0.76296 0.87391 0.28561 0.0
C1300 C 0.78846 0.87509 0.30323 0.0
C1301 C 0.75101 0.90222 0.28221 0.0
C1302 C 0.74252 0.85394 0.29573 0.0
C1303 C 0.73764 0.83274 0.27822 0.0
C1304 C 0.71894 0.81224 0.28324 0.0
C1305 C 0.70371 0.81441 0.30603 0.0
C1306 C 0.707 0.83717 0.32302 0.0
C1307 C 0.72754 0.85642 0.31832 0.0
H1308 H 0.92422 0.05008 0.98722 0.0
H1309 H 0.83828 0.05946 0.99606 0.0
H1310 H 0.8382 0.02473 0.03009 0.0
H1311 H 0.92383 0.98012 0.99159 0.0
H1312 H 0.95476 0.97717 0.01034 0.0
H1313 H 0.94995 1.00566 0.98925 0.0
H1314 H 0.9591 0.03895 0.02804 0.0
H1315 H 0.96479 0.01071 0.04936 0.0
H1316 H 0.9402 0.03556 0.05766 0.0
H1317 H 0.84513 0.98563 0.0567 0.0
H1318 H 0.86023 0.9459 0.08068 0.0
H1319 H 0.94233 0.9617 0.05799 0.0
C1320 C 0.90565 0.0453 0.99698 0.0
C1321 C 0.88126 0.0573 0.98934 0.0
C1322 C 0.85711 0.05035 1.00186 0.0
C1323 C 0.85686 0.03072 0.02114 0.0
C1324 C 0.88095 0.01843 0.02757 0.0
C1325 C 0.90501 0.02551 0.01627 0.0
C1326 C 0.92753 0.00758 0.02579 0.0
C1327 C 0.93971 0.9917 1.00287 0.0
C1328 C 0.94918 0.0242 0.04114 0.0
C1329 C 0.91206 0.98906 0.0437 0.0
C1330 C 0.88523 0.99584 0.04422 0.0
C1331 C 0.86622 0.98069 0.05738 0.0
C1332 C 0.87498 0.95836 0.07116 0.0
C1333 C 0.90247 0.9519 0.0722 0.0
C1334 C 0.9213 0.96696 0.05794 0.0
H1335 H 0.31752 0.61793 0.74698 0.0
H1336 H 0.31345 0.6946 0.7885 0.0
H1337 H 0.28514 0.71274 0.75281 0.0
H1338 H 0.31115 0.64511 0.67672 0.0
H1339 H 0.28966 0.61679 0.66704 0.0
H1340 H 0.31607 0.61253 0.6914 0.0
H1341 H 0.28115 0.59381 0.72383 0.0
H1342 H 0.25482 0.59809 0.69972 0.0
H1343 H 0.25245 0.61389 0.73168 0.0
H1344 H 0.2509 0.71944 0.71852 0.0
H1345 H 0.21097 0.71319 0.68906 0.0
H1346 H 0.23505 0.63153 0.67098 0.0
C1347 C 0.31169 0.63892 0.74771 0.0
C1348 C 0.31769 0.65515 0.76997 0.0
C1349 C 0.30892 0.68209 0.77133 0.0
C1350 C 0.29316 0.69261 0.75104 0.0
C1351 C 0.28643 0.67579 0.72966 0.0
C1352 C 0.29542 0.64947 0.7278 0.0
C1353 C 0.28109 0.63394 0.70571 0.0
C1354 C 0.30067 0.62668 0.68392 0.0
C1355 C 0.26651 0.60847 0.71586 0.0
C1356 C 0.2615 0.65505 0.69666 0.0
C1357 C 0.2655 0.67932 0.71013 0.0
C1358 C 0.24787 0.70076 0.70746 0.0
C1359 C 0.22509 0.69696 0.69119 0.0
C1360 C 0.22006 0.67182 0.67853 0.0
C1361 C 0.23892 0.65106 0.68036 0.0
H1362 H 0.09036 0.55001 0.52278 0.0
H1363 H 0.14044 0.5 0.57234 0.0
H1364 H 0.12887 0.46028 0.54423 0.0
H1365 H 0.03891 0.49621 0.50411 0.0
H1366 H 0.03585 0.50791 0.47078 0.0
H1367 H 0.04295 0.53165 0.49738 0.0
H1368 H 0.08582 0.54903 0.47515 0.0
H1369 H 0.07903 0.52644 0.44787 0.0
H1370 H 0.11088 0.52526 0.46536 0.0
H1371 H 0.12173 0.4303 0.50612 0.0
H1372 H 0.11782 0.41131 0.46117 0.0
H1373 H 0.06974 0.47898 0.43709 0.0
C1374 C 0.09826 0.5305 0.52805 0.0
C1375 C 0.11629 0.52785 0.54945 0.0
C1376 C 0.12656 0.50226 0.55585 0.0
C1377 C 0.11994 0.47961 0.54015 0.0
C1378 C 0.10272 0.483 0.51856 0.0
C1379 C 0.0918 0.50777 0.51264 0.0
C1380 C 0.07713 0.50705 0.48637 0.0
C1381 C 0.04689 0.51093 0.48984 0.0
C1382 C 0.08894 0.52817 0.4676 0.0
C1383 C 0.08307 0.47853 0.47761 0.0
C1384 C 0.0974 0.4648 0.49671 0.0
C1385 C 0.10938 0.44014 0.49147 0.0
C1386 C 0.10703 0.42946 0.46597 0.0
C1387 C 0.09218 0.44308 0.44645 0.0
C1388 C 0.07989 0.46767 0.45233 0.0
H1389 H 0.41215 0.49402 0.05227 0.0
H1390 H 0.38718 0.42192 0.00813 0.0
H1391 H 0.39913 0.44427 0.96681 0.0
H1392 H 0.38523 0.53999 0.01128 0.0
H1393 H 0.41204 0.56488 0.01476 0.0
H1394 H 0.40614 0.54144 0.04068 0.0
H1395 H 0.45549 0.52631 0.03855 0.0
H1396 H 0.46147 0.54937 0.01212 0.0
H1397 H 0.46834 0.51389 0.00795 0.0
H1398 H 0.40516 0.47672 0.93084 0.0
H1399 H 0.40515 0.51697 0.90275 0.0
H1400 H 0.42878 0.56699 0.97044 0.0
C1401 C 0.40969 0.48283 0.0339 0.0
C1402 C 0.39868 0.45647 0.03312 0.0
C1403 C 0.39566 0.44224 0.00893 0.0
C1404 C 0.40258 0.45465 0.98545 0.0
C1405 C 0.41298 0.48097 0.98676 0.0
C1406 C 0.41679 0.49479 0.0104 0.0
C1407 C 0.42562 0.52372 0.00635 0.0
C1408 C 0.40607 0.54365 0.01899 0.0
C1409 C 0.45447 0.5286 0.01686 0.0
C1410 C 0.42421 0.52456 0.9767 0.0
C1411 C 0.41744 0.49958 0.96572 0.0
C1412 C 0.41126 0.49624 0.93902 0.0
C1413 C 0.41115 0.51922 0.92326 0.0
C1414 C 0.41707 0.54506 0.9344 0.0
C1415 C 0.42472 0.54747 0.9612 0.0
H1416 H 0.71709 0.81753 0.83105 0.0
H1417 H 0.64432 0.77091 0.84496 0.0
H1418 H 0.66925 0.72862 0.83879 0.0
H1419 H 0.75076 0.76902 0.78471 0.0
H1420 H 0.7827 0.77727 0.8006 0.0
H1421 H 0.75689 0.80224 0.79894 0.0
H1422 H 0.76147 0.80863 0.8492 0.0
H1423 H 0.78607 0.78263 0.85102 0.0
H1424 H 0.75598 0.77984 0.86993 0.0
H1425 H 0.70352 0.69236 0.83986 0.0
H1426 H 0.74415 0.66578 0.84944 0.0
H1427 H 0.79414 0.7366 0.83545 0.0
C1428 C 0.70608 0.79847 0.8315 0.0
C1429 C 0.67876 0.79741 0.83798 0.0
C1430 C 0.66528 0.77206 0.83969 0.0
C1431 C 0.67922 0.74798 0.83609 0.0
C1432 C 0.70655 0.74972 0.83085 0.0
C1433 C 0.71979 0.77439 0.82854 0.0
C1434 C 0.74983 0.7712 0.82772 0.0
C1435 C 0.76071 0.7804 0.80134 0.0
C1436 C 0.76414 0.78645 0.85084 0.0
C1437 C 0.75158 0.74102 0.83057 0.0
C1438 C 0.72645 0.72882 0.83197 0.0
C1439 C 0.72328 0.70153 0.83802 0.0
C1440 C 0.7464 0.68662 0.84343 0.0
C1441 C 0.77209 0.69926 0.843 0.0
C1442 C 0.77468 0.72642 0.83554 0.0
H1443 H 0.4332 0.44682 0.13022 0.0
H1444 H 0.45515 0.41949 0.05268 0.0
H1445 H 0.47927 0.46289 0.0457 0.0
H1446 H 0.43109 0.52369 0.11441 0.0
H1447 H 0.44524 0.53161 0.14658 0.0
H1448 H 0.42263 0.50294 0.14199 0.0
H1449 H 0.45855 0.47201 0.16279 0.0
H1450 H 0.48134 0.50024 0.16705 0.0
H1451 H 0.49145 0.47084 0.14874 0.0
H1452 H 0.51116 0.50006 0.05264 0.0
H1453 H 0.54608 0.53088 0.07148 0.0
H1454 H 0.50206 0.53712 0.14366 0.0
C1455 C 0.44216 0.45072 0.11141 0.0
C1456 C 0.44244 0.43051 0.09182 0.0
C1457 C 0.4548 0.43524 0.06766 0.0
C1458 C 0.46826 0.4598 0.06353 0.0
C1459 C 0.46877 0.47914 0.08375 0.0
C1460 C 0.45556 0.47511 0.10708 0.0
C1461 C 0.46307 0.49663 0.1274 0.0
C1462 C 0.43907 0.51481 0.1329 0.0
C1463 C 0.47428 0.48417 0.15296 0.0
C1464 C 0.48457 0.51175 0.11284 0.0
C1465 C 0.48707 0.50178 0.08745 0.0
C1466 C 0.50875 0.50886 0.07201 0.0
C1467 C 0.52861 0.5261 0.08293 0.0
C1468 C 0.52627 0.53635 0.10879 0.0
C1469 C 0.50367 0.52988 0.12358 0.0
H1470 H 0.74612 0.3026 0.3835 0.0
H1471 H 0.68152 0.26171 0.33934 0.0
H1472 H 0.71364 0.22836 0.32275 0.0
H1473 H 0.80133 0.28982 0.33853 0.0
H1474 H 0.82484 0.2833 0.36504 0.0
H1475 H 0.79781 0.30648 0.36995 0.0
H1476 H 0.78195 0.27877 0.40986 0.0
H1477 H 0.80904 0.25578 0.40523 0.0
H1478 H 0.7749 0.24307 0.40569 0.0
H1479 H 0.7514 0.19816 0.31386 0.0
H1480 H 0.79065 0.16887 0.31799 0.0
H1481 H 0.83013 0.22805 0.37026 0.0
C1482 C 0.7389 0.28685 0.36999 0.0
C1483 C 0.71166 0.28484 0.3621 0.0
C1484 C 0.70251 0.26359 0.34519 0.0
C1485 C 0.7206 0.24479 0.33555 0.0
C1486 C 0.74748 0.24742 0.34356 0.0
C1487 C 0.75651 0.2676 0.36079 0.0
C1488 C 0.78543 0.26376 0.3693 0.0
C1489 C 0.80341 0.28724 0.36014 0.0
C1490 C 0.78796 0.26012 0.39927 0.0
C1491 C 0.79113 0.23791 0.35454 0.0
C1492 C 0.76916 0.22921 0.33935 0.0
C1493 C 0.76882 0.20482 0.32547 0.0
C1494 C 0.79113 0.18833 0.32803 0.0
C1495 C 0.81322 0.19626 0.34458 0.0
C1496 C 0.81363 0.22175 0.35722 0.0
H1497 H 0.08632 0.53488 0.60362 0.0
H1498 H 0.03723 0.60119 0.57767 0.0
H1499 H 1.00044 0.56898 0.56594 0.0
H1500 H 0.05263 0.47845 0.55819 0.0
H1501 H 0.05394 0.45462 0.58467 0.0
H1502 H 0.08087 0.47894 0.58106 0.0
H1503 H 0.07621 0.49698 0.62798 0.0
H1504 H 0.05022 0.47247 0.63329 0.0
H1505 H 0.04383 0.50783 0.63886 0.0
H1506 H 0.96605 0.53488 0.57209 0.0
H1507 H 0.93743 0.50167 0.59455 0.0
H1508 H 0.00802 0.45695 0.61745 0.0
C1509 C 0.06834 0.54235 0.59406 0.0
C1510 C 0.06437 0.57025 0.59144 0.0
C1511 C 0.04042 0.57972 0.5798 0.0
C1512 C 0.01964 0.56152 0.57274 0.0
C1513 C 0.02333 0.53409 0.57745 0.0
C1514 C 0.04742 0.52441 0.58741 0.0
C1515 C 0.04442 0.49579 0.59708 0.0
C1516 C 0.05879 0.47579 0.57912 0.0
C1517 C 0.0542 0.49318 0.62598 0.0
C1518 C 0.01441 0.49227 0.59422 0.0
C1519 C 1.00271 0.51392 0.58168 0.0
C1520 C 0.97498 0.51739 0.58108 0.0
C1521 C 0.95894 0.49876 0.59426 0.0
C1522 C 0.97087 0.47732 0.60803 0.0
C1523 C 0.99865 0.4734 0.60706 0.0
H1524 H 0.79713 0.27867 0.65929 0.0
H1525 H 0.74685 0.34817 0.64827 0.0
H1526 H 0.70793 0.32177 0.66451 0.0
H1527 H 0.75786 0.23271 0.6359 0.0
H1528 H 0.76478 0.20598 0.65869 0.0
H1529 H 0.7895 0.23201 0.65388 0.0
H1530 H 0.79063 0.24438 0.70381 0.0
H1531 H 0.7672 0.21689 0.70832 0.0
H1532 H 0.75963 0.25035 0.72028 0.0
H1533 H 0.674 0.28486 0.67029 0.0
H1534 H 0.64841 0.24174 0.6669 0.0
H1535 H 0.72239 0.19777 0.67763 0.0
C1536 C 0.77838 0.28885 0.66177 0.0
C1537 C 0.77492 0.31536 0.65297 0.0
C1538 C 0.74978 0.32783 0.65527 0.0
C1539 C 0.72773 0.31307 0.66465 0.0
C1540 C 0.73169 0.28644 0.67249 0.0
C1541 C 0.75671 0.27474 0.67184 0.0
C1542 C 0.75537 0.24489 0.67748 0.0
C1543 C 0.76755 0.22796 0.65515 0.0
C1544 C 0.76898 0.23881 0.70408 0.0
C1545 C 0.72538 0.24096 0.67867 0.0
C1546 C 0.71201 0.26517 0.67654 0.0
C1547 C 0.6842 0.26591 0.67296 0.0
C1548 C 0.66987 0.24132 0.67082 0.0
C1549 C 0.68352 0.21646 0.672 0.0
C1550 C 0.71138 0.21644 0.67709 0.0
H1551 H 0.99036 0.54532 0.91602 0.0
H1552 H 0.95864 0.52011 0.83937 0.0
H1553 H 0.98519 0.47837 0.84155 0.0
H1554 H 0.05739 0.52359 0.90521 0.0
H1555 H 0.06321 0.51279 0.93852 0.0
H1556 H 0.04011 0.53956 0.93186 0.0
H1557 H 1.00267 0.51296 0.9554 0.0
H1558 H 0.02572 0.4861 0.96213 0.0
H1559 H 0.99424 0.47882 0.94504 0.0
H1560 H 0.01232 0.43957 0.85283 0.0
H1561 H 0.04683 0.4084 0.86799 0.0
H1562 H 0.06591 0.4612 0.93495 0.0
C1563 C 0.98918 0.53085 0.89986 0.0
C1564 C 0.97268 0.53511 0.87766 0.0
C1565 C 0.97135 0.51649 0.85649 0.0
C1566 C 0.98608 0.49287 0.85767 0.0
C1567 C 1.00202 0.48884 0.88002 0.0
C1568 C 1.00426 0.5075 0.90046 0.0
C1569 C 0.02455 0.49905 0.92116 0.0
C1570 C 0.04769 0.51999 0.92434 0.0
C1571 C 0.01098 0.49391 0.9475 0.0
C1572 C 0.03367 0.47298 0.90879 0.0
C1573 C 0.01965 0.46716 0.88558 0.0
C1574 C 0.02365 0.44388 0.87085 0.0
C1575 C 0.04322 0.42631 0.87968 0.0
C1576 C 0.05903 0.43274 0.90245 0.0
C1577 C 0.05402 0.4561 0.91744 0.0
H1578 H 0.80315 0.81672 0.13635 0.0
H1579 H 0.84586 0.78717 0.20478 0.0
H1580 H 0.81124 0.75067 0.20918 0.0
H1581 H 0.73299 0.79877 0.15975 0.0
H1582 H 0.72239 0.79084 0.12641 0.0
H1583 H 0.74729 0.81715 0.13293 0.0
H1584 H 0.77944 0.79276 0.1012 0.0
H1585 H 0.75507 0.76611 0.09533 0.0
H1586 H 0.78828 0.75818 0.10739 0.0
H1587 H 0.77687 0.71281 0.19996 0.0
H1588 H 0.74348 0.67977 0.18072 0.0
H1589 H 0.72422 0.73664 0.11927 0.0
C1590 C 0.80449 0.80317 0.15287 0.0
C1591 C 0.82649 0.80458 0.1705 0.0
C1592 C 0.82851 0.7864 0.19154 0.0
C1593 C 0.80907 0.76573 0.19409 0.0
C1594 C 0.78787 0.76425 0.17566 0.0
C1595 C 0.78522 0.78299 0.15585 0.0
C1596 C 0.76231 0.77604 0.1371 0.0
C1597 C 0.73992 0.79694 0.13919 0.0
C1598 C 0.77188 0.77308 0.10861 0.0
C1599 C 0.75371 0.74933 0.14814 0.0
C1600 C 0.76818 0.7429 0.17063 0.0
C1601 C 0.76498 0.71792 0.18274 0.0
C1602 C 0.74631 0.69923 0.17157 0.0
C1603 C 0.7316 0.70577 0.14851 0.0
C1604 C 0.73524 0.73115 0.13695 0.0
H1605 H 0.53207 0.4743 0.43047 0.0
H1606 H 0.59729 0.52505 0.40321 0.0
H1607 H 0.57235 0.56573 0.41575 0.0
H1608 H 0.48306 0.50604 0.40354 0.0
H1609 H 0.45883 0.50346 0.42926 0.0
H1610 H 0.48487 0.47914 0.42706 0.0
H1611 H 0.4973 0.49024 0.47463 0.0
H1612 H 0.47447 0.51796 0.47773 0.0
H1613 H 0.5098 0.5234 0.48439 0.0
H1614 H 0.53642 0.59902 0.4189 0.0
H1615 H 0.49328 0.62204 0.4136 0.0
H1616 H 0.45119 0.54976 0.43919 0.0
C1617 C 0.54151 0.49402 0.42828 0.0
C1618 C 0.56636 0.49682 0.41591 0.0
C1619 C 0.57826 0.5227 0.41292 0.0
C1620 C 0.56429 0.54586 0.4201 0.0
C1621 C 0.53888 0.54255 0.43072 0.0
C1622 C 0.52783 0.5172 0.43538 0.0
C1623 C 0.49863 0.51889 0.44259 0.0
C1624 C 0.48031 0.50085 0.42451 0.0
C1625 C 0.49488 0.5122 0.47159 0.0
C1626 C 0.49417 0.5485 0.43821 0.0
C1627 C 0.51779 0.56209 0.43247 0.0
C1628 C 0.51795 0.58882 0.42424 0.0
C1629 C 0.4933 0.60164 0.42109 0.0
C1630 C 0.46888 0.58751 0.4258 0.0
C1631 C 0.46952 0.5611 0.43562 0.0
H1632 H 0.84507 0.78311 0.71459 0.0
H1633 H 0.92904 0.801 0.73404 0.0
H1634 H 0.93009 0.76222 0.76373 0.0
H1635 H 0.82732 0.76472 0.77991 0.0
H1636 H 0.80383 0.73843 0.76929 0.0
H1637 H 0.80987 0.76709 0.74865 0.0
H1638 H 0.8224 0.73469 0.7105 0.0
H1639 H 0.81672 0.70591 0.73113 0.0
H1640 H 0.84865 0.71053 0.71562 0.0
H1641 H 0.92228 0.72404 0.79165 0.0
H1642 H 0.90455 0.68872 0.82045 0.0
H1643 H 0.82597 0.69411 0.78279 0.0
C1644 C 0.86358 0.77879 0.72521 0.0
C1645 C 0.88698 0.79466 0.72221 0.0
C1646 C 0.91089 0.78893 0.73639 0.0
C1647 C 0.91178 0.76689 0.75301 0.0
C1648 C 0.88854 0.75121 0.75515 0.0
C1649 C 0.86477 0.75699 0.74206 0.0
C1650 C 0.84235 0.7377 0.74924 0.0
C1651 C 0.8195 0.75288 0.76256 0.0
C1652 C 0.83193 0.72123 0.72518 0.0
C1653 C 0.85739 0.72021 0.76842 0.0
C1654 C 0.88406 0.72835 0.77126 0.0
C1655 C 0.90168 0.71691 0.78923 0.0
C1656 C 0.89161 0.69675 0.80517 0.0
C1657 C 0.86451 0.68821 0.80252 0.0
C1658 C 0.84709 0.6998 0.78402 0.0
H1659 H 0.57847 0.56779 0.03057 0.0
H1660 H 0.55451 0.61028 0.10084 0.0
H1661 H 0.50921 0.61605 0.08169 0.0
H1662 H 0.55143 0.61251 0.98927 0.0
H1663 H 0.54098 0.5888 0.96367 0.0
H1664 H 0.56851 0.58091 0.98542 0.0
H1665 H 0.54455 0.5366 0.99691 0.0
H1666 H 0.51523 0.54396 0.97696 0.0
H1667 H 0.51203 0.53696 0.01147 0.0
H1668 H 0.47063 0.6249 0.05267 0.0
H1669 H 0.4416 0.63764 0.01508 0.0
H1670 H 0.49156 0.59183 0.96248 0.0
C1671 C 0.56316 0.57717 0.04223 0.0
C1672 C 0.56915 0.58715 0.06763 0.0
C1673 C 0.54959 0.60105 0.08194 0.0
C1674 C 0.52388 0.60449 0.07117 0.0
C1675 C 0.51854 0.59459 0.04584 0.0
C1676 C 0.53769 0.58131 0.03147 0.0
C1677 C 0.52879 0.57714 1.00318 0.0
C1678 C 0.5486 0.59066 0.9843 0.0
C1679 C 0.52487 0.54687 0.99672 0.0
C1680 C 0.50236 0.59156 1.00353 0.0
C1681 C 0.49648 0.60085 0.02845 0.0
C1682 C 0.47462 0.61725 0.03316 0.0
C1683 C 0.45847 0.6246 0.01173 0.0
C1684 C 0.46465 0.6158 0.98608 0.0
C1685 C 0.48649 0.59872 0.98201 0.0
H1686 H 0.6178 0.23393 0.24683 0.0
H1687 H 0.69733 0.23675 0.214 0.0
H1688 H 0.71283 0.26826 0.24921 0.0
H1689 H 0.61465 0.30194 0.25871 0.0
H1690 H 0.59614 0.29951 0.28865 0.0
H1691 H 0.59312 0.27298 0.26432 0.0
H1692 H 0.60715 0.23824 0.29942 0.0
H1693 H 0.61101 0.26476 0.32394 0.0
H1694 H 0.6386 0.24277 0.31729 0.0
H1695 H 0.7183 0.30276 0.2842 0.0
H1696 H 0.71148 0.34291 0.31274 0.0
H1697 H 0.62794 0.31937 0.32107 0.0
C1698 C 0.63858 0.24087 0.24742 0.0
C1699 C 0.65657 0.23292 0.22805 0.0
C1700 C 0.68342 0.24267 0.22886 0.0
C1701 C 0.69245 0.26024 0.24895 0.0
C1702 C 0.67421 0.26785 0.26783 0.0
C1703 C 0.64773 0.25876 0.26706 0.0
C1704 C 0.63115 0.27318 0.28709 0.0
C1705 C 0.6074 0.28777 0.27389 0.0
C1706 C 0.62142 0.25357 0.30819 0.0
C1707 C 0.65211 0.29284 0.29815 0.0
C1708 C 0.67706 0.28879 0.2875 0.0
C1709 C 0.69903 0.30596 0.29304 0.0
C1710 C 0.69507 0.32855 0.30918 0.0
C1711 C 0.66933 0.33359 0.31887 0.0
C1712 C 0.64785 0.3153 0.31399 0.0
H1713 H 0.02059 0.42057 0.47165 0.0
H1714 H 0.06819 0.36754 0.52049 0.0
H1715 H 0.03951 0.37784 0.55821 0.0
H1716 H 1.00365 0.47093 0.52561 0.0
H1717 H 0.97048 0.47494 0.51153 0.0
H1718 H 0.99822 0.46793 0.49046 0.0
H1719 H 0.97172 0.42616 0.4711 0.0
H1720 H 0.94432 0.43304 0.49237 0.0
H1721 H 0.95994 0.40045 0.49308 0.0
H1722 H 1.00113 0.38659 0.58724 0.0
H1723 H 0.95623 0.39357 0.60548 0.0
H1724 H 0.93446 0.44239 0.53864 0.0
C1725 C 0.02529 0.41162 0.49046 0.0
C1726 C 0.04636 0.39318 0.49328 0.0
C1727 C 0.052 0.38171 0.51805 0.0
C1728 C 0.036 0.38762 0.53959 0.0
C1729 C 0.01483 0.40537 0.53602 0.0
C1730 C 0.00963 0.41744 0.51212 0.0
C1731 C 0.98383 0.43307 0.51244 0.0
C1732 C 0.98941 0.46354 0.50984 0.0
C1733 C 0.96379 0.42253 0.491 0.0
C1734 C 0.97445 0.42652 0.53964 0.0
C1735 C 0.99288 0.41104 0.5532 0.0
C1736 C 0.98703 0.39961 0.57733 0.0
C1737 C 0.96155 0.40374 0.58759 0.0
C1738 C 0.94258 0.41953 0.5739 0.0
C1739 C 0.94922 0.43126 0.54988 0.0
H1740 H 0.85647 0.33488 0.72438 0.0
H1741 H 0.84788 0.28248 0.65538 0.0
H1742 H 0.84067 0.2435 0.68337 0.0
H1743 H 0.89723 0.2904 0.75732 0.0
H1744 H 0.88525 0.29785 0.78973 0.0
H1745 H 0.88341 0.32302 0.76466 0.0
H1746 H 0.83211 0.32679 0.7716 0.0
H1747 H 0.83382 0.3014 0.79664 0.0
H1748 H 0.81093 0.29687 0.76892 0.0
H1749 H 0.8389 0.20975 0.7171 0.0
H1750 H 0.85093 0.1819 0.75517 0.0
H1751 H 0.86375 0.25451 0.80291 0.0
C1752 C 0.85229 0.31531 0.71524 0.0
C1753 C 0.85164 0.31193 0.68771 0.0
C1754 C 0.84758 0.28581 0.67642 0.0
C1755 C 0.84332 0.26345 0.69214 0.0
C1756 C 0.8437 0.26742 0.71914 0.0
C1757 C 0.84868 0.29252 0.73073 0.0
C1758 C 0.85324 0.29024 0.76005 0.0
C1759 C 0.88145 0.301 0.76841 0.0
C1760 C 0.8312 0.30468 0.77519 0.0
C1761 C 0.85087 0.25989 0.7628 0.0
C1762 C 0.84447 0.24727 0.73905 0.0
C1763 C 0.84361 0.21928 0.73594 0.0
C1764 C 0.85056 0.20367 0.75754 0.0
C1765 C 0.85829 0.21625 0.78165 0.0
C1766 C 0.85763 0.24456 0.78461 0.0
H1767 H 0.92426 0.58018 0.97299 0.0
H1768 H 0.95603 0.61466 0.90217 0.0
H1769 H 1.00206 0.61262 0.92106 0.0
H1770 H 0.96191 0.619 0.01454 0.0
H1771 H 0.96711 0.59408 0.03958 0.0
H1772 H 0.93801 0.59154 0.01821 0.0
H1773 H 0.95117 0.54293 1.00405 0.0
H1774 H 0.9802 0.54542 0.02586 0.0
H1775 H 0.98424 0.5372 0.99164 0.0
H1776 H 0.04243 0.61484 0.9501 0.0
H1777 H 0.07383 0.62298 0.98777 0.0
H1778 H 0.01567 0.5875 0.03996 0.0
C1779 C 0.94114 0.58633 0.96125 0.0
C1780 C 0.93709 0.59662 0.93596 0.0
C1781 C 0.95914 0.60571 0.92127 0.0
C1782 C 0.98526 0.6046 0.93182 0.0
C1783 C 0.98872 0.59446 0.95705 0.0
C1784 C 0.96722 0.58543 0.97158 0.0
C1785 C 0.97555 0.57979 0.99962 0.0
C1786 C 0.95972 0.59715 0.01911 0.0
C1787 C 0.97261 0.54953 0.00563 0.0
C1788 C 1.00471 0.58849 0.999 0.0
C1789 C 0.01214 0.59625 0.97415 0.0
C1790 C 0.03713 0.60817 0.9695 0.0
C1791 C 0.05472 0.61287 0.99096 0.0
C1792 C 0.04693 0.60585 0.01656 0.0
C1793 C 0.02209 0.59274 0.02046 0.0
H1794 H 0.64303 0.67719 0.22223 0.0
H1795 H 0.67607 0.72247 0.15761 0.0
H1796 H 0.68185 0.76238 0.18595 0.0
H1797 H 0.60183 0.72694 0.23977 0.0
H1798 H 0.60338 0.72193 0.27477 0.0
H1799 H 0.60929 0.69411 0.25275 0.0
H1800 H 0.65584 0.68627 0.27489 0.0
H1801 H 0.64984 0.71367 0.29759 0.0
H1802 H 0.67975 0.714 0.27826 0.0
H1803 H 0.67598 0.79917 0.2172 0.0
H1804 H 0.66039 0.83068 0.25143 0.0
H1805 H 0.62766 0.76279 0.29438 0.0
C1806 C 0.65254 0.69518 0.21447 0.0
C1807 C 0.66005 0.69648 0.18809 0.0
C1808 C 0.67121 0.72069 0.17809 0.0
C1809 C 0.67446 0.74359 0.194 0.0
C1810 C 0.66579 0.74206 0.21962 0.0
C1811 C 0.65505 0.71853 0.22989 0.0
C1812 C 0.6428 0.72359 0.25627 0.0
C1813 C 0.61255 0.71621 0.25583 0.0
C1814 C 0.65799 0.70849 0.27804 0.0
C1815 C 0.64752 0.75372 0.2586 0.0
C1816 C 0.66117 0.76391 0.23749 0.0
C1817 C 0.66578 0.79149 0.23418 0.0
C1818 C 0.6566 0.80918 0.25342 0.0
C1819 C 0.64299 0.79892 0.27529 0.0
C1820 C 0.63829 0.77098 0.27785 0.0
H1821 H 0.56655 0.43988 0.47323 0.0
H1822 H 0.56993 0.36121 0.43508 0.0
H1823 H 0.54164 0.34146 0.46938 0.0
H1824 H 0.56533 0.41543 0.54166 0.0
H1825 H 0.54178 0.44066 0.55162 0.0
H1826 H 0.56511 0.44788 0.52594 0.0
H1827 H 0.52576 0.45969 0.49485 0.0
H1828 H 0.50206 0.45255 0.52012 0.0
H1829 H 0.49872 0.43549 0.48864 0.0
H1830 H 0.51152 0.331 0.50542 0.0
H1831 H 0.4777 0.33066 0.53998 0.0
H1832 H 0.49188 0.41665 0.55389 0.0
C1833 C 0.56141 0.41849 0.47247 0.0
C1834 C 0.57036 0.40175 0.45215 0.0
C1835 C 0.56329 0.37398 0.45101 0.0
C1836 C 0.54741 0.36266 0.47034 0.0
C1837 C 0.53882 0.37959 0.49036 0.0
C1838 C 0.54536 0.40691 0.49153 0.0
C1839 C 0.53157 0.4209 0.5139 0.0
C1840 C 0.55219 0.43185 0.53451 0.0
C1841 C 0.51339 0.44346 0.50375 0.0
C1842 C 0.51548 0.3974 0.52439 0.0
C1843 C 0.52052 0.37366 0.5109 0.0
C1844 C 0.50748 0.34936 0.51632 0.0
C1845 C 0.48831 0.3494 0.53587 0.0
C1846 C 0.48233 0.37367 0.54936 0.0
C1847 C 0.49632 0.39785 0.54387 0.0
H1848 H 0.81724 0.83657 0.71227 0.0
H1849 H 0.80154 0.90766 0.66556 0.0
H1850 H 0.76565 0.92065 0.69528 0.0
H1851 H 0.74718 0.82326 0.72235 0.0
H1852 H 0.74982 0.81141 0.75532 0.0
H1853 H 0.77698 0.80605 0.73312 0.0
H1854 H 0.81193 0.83011 0.76235 0.0
H1855 H 0.78774 0.83583 0.78748 0.0
H1856 H 0.80627 0.86392 0.77443 0.0
H1857 H 0.73389 0.92751 0.73068 0.0
H1858 H 0.70379 0.9257 0.76826 0.0
H1859 H 0.73718 0.84871 0.79106 0.0
C1860 C 0.80608 0.85475 0.70835 0.0
C1861 C 0.81206 0.87117 0.68681 0.0
C1862 C 0.79705 0.89472 0.68193 0.0
C1863 C 0.77674 0.90236 0.69873 0.0
C1864 C 0.77141 0.88589 0.71993 0.0
C1865 C 0.7852 0.86235 0.72458 0.0
C1866 C 0.7743 0.84771 0.74804 0.0
C1867 C 0.76137 0.82048 0.73924 0.0
C1868 C 0.79635 0.84416 0.76932 0.0
C1869 C 0.75326 0.8675 0.75666 0.0
C1870 C 0.75194 0.88927 0.73997 0.0
C1871 C 0.73445 0.91047 0.74379 0.0
C1872 C 0.71752 0.90928 0.76519 0.0
C1873 C 0.71821 0.88702 0.78236 0.0
C1874 C 0.73633 0.86589 0.77812 0.0
H1875 H 0.21063 0.61318 0.24627 0.0
H1876 H 0.22809 0.68759 0.20524 0.0
H1877 H 0.25388 0.70494 0.24397 0.0
H1878 H 0.20891 0.64261 0.31469 0.0
H1879 H 0.22581 0.61379 0.32815 0.0
H1880 H 0.20372 0.6096 0.29977 0.0
H1881 H 0.24215 0.58768 0.27382 0.0
H1882 H 0.26402 0.59147 0.30215 0.0
H1883 H 0.27378 0.60569 0.27127 0.0
H1884 H 0.2819 0.71164 0.28319 0.0
H1885 H 0.31694 0.70425 0.31703 0.0
H1886 H 0.2827 0.6251 0.33263 0.0
C1887 C 0.21953 0.63332 0.24572 0.0
C1888 C 0.21728 0.64929 0.22318 0.0
C1889 C 0.22956 0.67524 0.2226 0.0
C1890 C 0.24384 0.68538 0.24458 0.0
C1891 C 0.24553 0.66921 0.26673 0.0
C1892 C 0.23406 0.64355 0.26734 0.0
C1893 C 0.24271 0.62845 0.29157 0.0
C1894 C 0.21886 0.62333 0.30961 0.0
C1895 C 0.2565 0.60179 0.28425 0.0
C1896 C 0.26227 0.64899 0.30362 0.0
C1897 C 0.26271 0.67277 0.28951 0.0
C1898 C 0.28149 0.6934 0.29467 0.0
C1899 C 0.30136 0.68897 0.31371 0.0
C1900 C 0.30226 0.66408 0.32694 0.0
C1901 C 0.2818 0.64447 0.32297 0.0
H1902 H 0.64837 0.03943 0.57682 0.0
H1903 H 0.56274 0.05229 0.57017 0.0
H1904 H 0.55685 0.00916 0.54517 0.0
H1905 H 0.65499 0.01815 0.51313 0.0
H1906 H 0.68085 0.99396 0.51982 0.0
H1907 H 0.67717 0.02256 0.54142 0.0
H1908 H 0.67228 0.99036 0.58082 0.0
H1909 H 0.67568 0.96153 0.55918 0.0
H1910 H 0.64672 0.96402 0.57967 0.0
H1911 H 0.56113 0.96815 0.5173 0.0
H1912 H 0.57572 0.93606 0.48312 0.0
H1913 H 0.65886 0.95123 0.50691 0.0
C1914 C 0.62838 0.03268 0.5705 0.0
C1915 C 0.60594 0.04865 0.57499 0.0
C1916 C 0.58005 0.04005 0.56629 0.0
C1917 C 0.57653 0.01549 0.55262 0.0
C1918 C 0.59919 1.00008 0.54814 0.0
C1919 C 0.62467 0.0085 0.55658 0.0
C1920 C 0.64618 0.99079 0.54564 0.0
C1921 C 0.66592 0.00735 0.52901 0.0
C1922 C 0.66108 0.97578 0.56766 0.0
C1923 C 0.6289 0.97166 0.52893 0.0
C1924 C 0.6018 0.97677 0.53126 0.0
C1925 C 0.58219 0.96349 0.51568 0.0
C1926 C 0.59061 0.94532 0.4964 0.0
C1927 C 0.61832 0.94142 0.49268 0.0
C1928 C 0.63754 0.95378 0.50978 0.0
H1929 H 0.30198 0.38481 0.75488 0.0
H1930 H 0.27675 0.31525 0.70717 0.0
H1931 H 0.25306 0.29607 0.74486 0.0
H1932 H 0.3074 0.35184 0.81954 0.0
H1933 H 0.29223 0.37984 0.83629 0.0
H1934 H 0.31165 0.38569 0.80737 0.0
H1935 H 0.27119 0.40946 0.78518 0.0
H1936 H 0.25203 0.40414 0.81419 0.0
H1937 H 0.23912 0.39198 0.78275 0.0
H1938 H 0.23014 0.28564 0.78671 0.0
H1939 H 0.20052 0.29018 0.82477 0.0
H1940 H 0.23793 0.3682 0.84377 0.0
C1941 C 0.29195 0.36527 0.75264 0.0
C1942 C 0.29189 0.35101 0.72854 0.0
C1943 C 0.27762 0.32608 0.7258 0.0
C1944 C 0.26428 0.31494 0.74712 0.0
C1945 C 0.26498 0.3293 0.77084 0.0
C1946 C 0.27787 0.35427 0.7735 0.0
C1947 C 0.27173 0.36773 0.79943 0.0
C1948 C 0.29729 0.37148 0.81668 0.0
C1949 C 0.25767 0.3949 0.79512 0.0
C1950 C 0.2529 0.34671 0.81063 0.0
C1951 C 0.24996 0.32431 0.79427 0.0
C1952 C 0.23215 0.30313 0.79965 0.0
C1953 C 0.21542 0.30586 0.82128 0.0
C1954 C 0.21648 0.32976 0.83685 0.0
C1955 C 0.23659 0.3496 0.8323 0.0
H1956 H 0.41888 0.4385 0.54549 0.0
H1957 H 0.41186 0.48658 0.6168 0.0
H1958 H 0.41461 0.52841 0.59067 0.0
H1959 H 0.46214 0.4832 0.50907 0.0
H1960 H 0.44405 0.47718 0.47824 0.0
H1961 H 0.44558 0.45113 0.50258 0.0
H1962 H 0.39408 0.44735 0.50342 0.0
H1963 H 0.39164 0.47275 0.47861 0.0
H1964 H 0.3747 0.4772 0.50926 0.0
H1965 H 0.41209 0.56403 0.55647 0.0
H1966 H 0.403 0.59095 0.5168 0.0
H1967 H 0.41026 0.51888 0.46814 0.0
C1968 C 0.41891 0.45785 0.55574 0.0
C1969 C 0.41576 0.45952 0.58311 0.0
C1970 C 0.41466 0.48508 0.59579 0.0
C1971 C 0.41627 0.50884 0.58115 0.0
C1972 C 0.41862 0.50644 0.55398 0.0
C1973 C 0.4197 0.48155 0.54143 0.0
C1974 C 0.41842 0.48405 0.51194 0.0
C1975 C 0.4441 0.4733 0.49969 0.0
C1976 C 0.39321 0.46949 0.50014 0.0
C1977 C 0.41644 0.51437 0.50973 0.0
C1978 C 0.41671 0.52695 0.53418 0.0
C1979 C 0.41237 0.55455 0.5372 0.0
C1980 C 0.40714 0.56962 0.51463 0.0
C1981 C 0.40607 0.55689 0.48959 0.0
C1982 C 0.41132 0.5291 0.4871 0.0
H1983 H 0.73274 0.13206 0.17556 0.0
H1984 H 0.72583 0.21864 0.18494 0.0
H1985 H 0.76847 0.2203 0.21131 0.0
H1986 H 0.75074 0.11987 0.23773 0.0
H1987 H 0.77347 0.09279 0.23101 0.0
H1988 H 0.74668 0.09967 0.2081 0.0
H1989 H 0.78095 0.10549 0.17094 0.0
H1990 H 0.80797 0.09842 0.19384 0.0
H1991 H 0.8087 0.12916 0.17518 0.0
H1992 H 0.8066 0.21101 0.24224 0.0
H1993 H 0.8346 0.19163 0.27774 0.0
H1994 H 0.81595 0.11096 0.24763 0.0
C1995 C 0.74082 0.15144 0.18249 0.0
C1996 C 0.72635 0.17523 0.17887 0.0
C1997 C 0.73669 0.20026 0.18842 0.0
C1998 C 0.76103 0.20136 0.20281 0.0
C1999 C 0.77458 0.17723 0.20692 0.0
C2000 C 0.7648 0.15273 0.1969 0.0
C2001 C 0.78026 0.12916 0.20749 0.0
C2002 C 0.76169 0.10925 0.22195 0.0
C2003 C 0.79539 0.11472 0.18555 0.0
C2004 C 0.79941 0.14405 0.22618 0.0
C2005 C 0.79646 0.17181 0.22503 0.0
C2006 C 0.80971 0.18942 0.2428 0.0
C2007 C 0.82559 0.17829 0.26282 0.0
C2008 C 0.82739 0.14992 0.26499 0.0
C2009 C 0.8151 0.13275 0.24592 0.0
H2010 H 0.59984 0.93982 0.97776 0.0
H2011 H 0.60283 0.98814 0.90721 0.0
H2012 H 0.60022 0.02974 0.93445 0.0
H2013 H 0.55684 0.9856 0.01838 0.0
H2014 H 0.57646 0.9763 0.04682 0.0
H2015 H 0.57137 0.95237 0.0201 0.0
H2016 H 0.62415 0.94907 0.01932 0.0
H2017 H 0.6279 0.97482 0.04436 0.0
H2018 H 0.64372 0.97928 0.01318 0.0
H2019 H 0.60238 0.06587 0.96996 0.0
H2020 H 0.61287 0.09278 0.01053 0.0
H2021 H 0.61036 0.01935 0.05607 0.0
C2022 C 0.59919 0.95904 0.96785 0.0
C2023 C 0.60136 0.9608 0.94044 0.0
C2024 C 0.60112 0.98641 0.9283 0.0
C2025 C 0.5994 0.01009 0.94354 0.0
C2026 C 0.59786 0.00758 0.97068 0.0
C2027 C 0.5978 0.98263 0.98266 0.0
C2028 C 0.60005 0.98512 0.0121 0.0
C2029 C 0.57465 0.97413 0.0251 0.0
C2030 C 0.62547 0.97128 0.02284 0.0
C2031 C 0.60212 0.01533 0.01487 0.0
C2032 C 0.6002 0.02815 0.99095 0.0
C2033 C 0.6034 0.0561 0.98885 0.0
C2034 C 0.60926 0.07118 0.01185 0.0
C2035 C 0.61221 0.05791 0.03614 0.0
C2036 C 0.60792 0.0299 0.03769 0.0
H2037 H 0.93839 0.07208 0.46363 0.0
H2038 H 0.92207 0.02147 0.39472 0.0
H2039 H 0.92396 0.98097 0.42241 0.0
H2040 H 0.97779 0.02051 0.50577 0.0
H2041 H 0.96089 0.03319 0.53421 0.0
H2042 H 0.96916 0.0558 0.5081 0.0
H2043 H 0.91912 0.0693 0.50572 0.0
H2044 H 0.91079 0.04542 0.53053 0.0
H2045 H 0.89379 0.04344 0.4989 0.0
H2046 H 0.9168 0.94797 0.45781 0.0
H2047 H 0.9012 0.92547 0.49799 0.0
H2048 H 0.91851 0.99891 0.54316 0.0
C2049 C 0.93684 0.05246 0.45407 0.0
C2050 C 0.93038 0.04984 0.42707 0.0
C2051 C 0.92725 0.02382 0.41542 0.0
C2052 C 0.92845 1.00073 0.43097 0.0
C2053 C 0.93279 1.00418 0.45796 0.0
C2054 C 0.93725 0.02947 0.46941 0.0
C2055 C 0.93521 0.02872 0.49896 0.0
C2056 C 0.96244 0.03491 0.51256 0.0
C2057 C 0.91342 0.04782 0.50907 0.0
C2058 C 0.92731 0.99953 0.50217 0.0
C2059 C 0.9269 0.9854 0.47854 0.0
C2060 C 0.91775 0.95864 0.47652 0.0
C2061 C 0.90875 0.94614 0.49928 0.0
C2062 C 0.90855 0.96074 0.52332 0.0
C2063 C 0.91841 0.98746 0.52486 0.0
H2064 H 0.0933 0.3025 0.48314 0.0
H2065 H 0.16734 0.29447 0.44057 0.0
H2066 H 0.1801 0.25643 0.46898 0.0
H2067 H 0.11948 0.28704 0.54753 0.0
H2068 H 0.09051 0.26755 0.55728 0.0
H2069 H 0.08679 0.29394 0.53347 0.0
H2070 H 0.06458 0.25968 0.50052 0.0
H2071 H 0.06824 0.23315 0.52423 0.0
H2072 H 0.082 0.22929 0.49197 0.0
H2073 H 0.18627 0.22043 0.50359 0.0
H2074 H 0.185 0.18844 0.54015 0.0
H2075 H 0.10601 0.21645 0.56066 0.0
C2076 C 0.11223 0.29275 0.47972 0.0
C2077 C 0.12937 0.30202 0.45933 0.0
C2078 C 0.15375 0.28818 0.45572 0.0
C2079 C 0.1612 0.2664 0.47192 0.0
C2080 C 0.144 0.25797 0.49175 0.0
C2081 C 0.11985 0.27053 0.49558 0.0
C2082 C 0.10497 0.25708 0.51821 0.0
C2083 C 0.10016 0.27763 0.54044 0.0
C2084 C 0.07836 0.24403 0.50814 0.0
C2085 C 0.12483 0.23545 0.52702 0.0
C2086 C 0.14717 0.23648 0.51129 0.0
C2087 C 0.16876 0.21943 0.51578 0.0
C2088 C 0.16782 0.2012 0.53678 0.0
C2089 C 0.1454 0.19939 0.55351 0.0
C2090 C 0.12334 0.21676 0.54821 0.0
H2091 H 0.04042 0.92628 0.80478 0.0
H2092 H 0.08487 0.85263 0.79285 0.0
H2093 H 0.05559 0.84126 0.75416 0.0
H2094 H 0.97447 0.89899 0.7859 0.0
H2095 H 0.96378 0.92919 0.76953 0.0
H2096 H 0.98812 0.93153 0.79623 0.0
H2097 H 0.02101 0.95686 0.76627 0.0
H2098 H 0.99696 0.95439 0.7393 0.0
H2099 H 0.03035 0.94159 0.73554 0.0
H2100 H 0.01996 0.83684 0.71712 0.0
H2101 H 0.98194 0.83949 0.68551 0.0
H2102 H 0.96027 0.91685 0.71878 0.0
C2103 C 0.04401 0.90763 0.79417 0.0
C2104 C 0.06526 0.89027 0.80248 0.0
C2105 C 0.06899 0.86631 0.78745 0.0
C2106 C 0.05234 0.8597 0.76523 0.0
C2107 C 0.03181 0.87724 0.75766 0.0
C2108 C 0.02759 0.90078 0.77169 0.0
C2109 C 1.00407 0.91614 0.75927 0.0
C2110 C 0.98126 0.91914 0.7789 0.0
C2111 C 0.01367 0.94389 0.74952 0.0
C2112 C 0.99545 0.8975 0.73615 0.0
C2113 C 0.01188 0.87519 0.73573 0.0
C2114 C 0.00745 0.85451 0.71713 0.0
C2115 C 0.98581 0.85635 0.69888 0.0
C2116 C 0.96847 0.87885 0.69842 0.0
C2117 C 0.97356 0.89983 0.71758 0.0
H2118 H 0.38321 0.82137 0.03081 0.0
H2119 H 0.34891 0.76897 0.08967 0.0
H2120 H 0.34942 0.73076 0.05862 0.0
H2121 H 0.34631 0.79051 0.97484 0.0
H2122 H 0.37365 0.79278 0.9523 0.0
H2123 H 0.37148 0.817 0.97892 0.0
H2124 H 0.41931 0.80513 0.99512 0.0
H2125 H 0.42176 0.78109 0.9684 0.0
H2126 H 0.42714 0.77039 1.00179 0.0
H2127 H 0.35285 0.69752 0.02227 0.0
H2128 H 0.36143 0.67023 0.98269 0.0
H2129 H 0.39354 0.74125 0.94442 0.0
C2130 C 0.37604 0.8018 0.03722 0.0
C2131 C 0.36593 0.79862 0.06314 0.0
C2132 C 0.3566 0.77247 0.07025 0.0
C2133 C 0.35677 0.7504 0.05261 0.0
C2134 C 0.36628 0.75421 0.02738 0.0
C2135 C 0.37595 0.77912 0.01952 0.0
C2136 C 0.38494 0.77698 0.99088 0.0
C2137 C 0.36809 0.79542 0.97319 0.0
C2138 C 0.41508 0.7838 0.98894 0.0
C2139 C 0.37903 0.74703 0.98422 0.0
C2140 C 0.3681 0.73458 0.00576 0.0
C2141 C 0.36122 0.70712 1.00524 0.0
C2142 C 0.36603 0.69173 0.98249 0.0
C2143 C 0.37751 0.70342 0.95999 0.0
C2144 C 0.38397 0.73171 0.96088 0.0
H2145 H 0.47562 0.17062 0.30721 0.0
H2146 H 0.4677 0.08327 0.31138 0.0
H2147 H 0.50085 0.07821 0.27686 0.0
H2148 H 0.48749 0.17411 0.23574 0.0
H2149 H 0.51274 0.20062 0.23875 0.0
H2150 H 0.48654 0.19824 0.26254 0.0
H2151 H 0.52242 0.19649 0.29997 0.0
H2152 H 0.54871 0.19877 0.27628 0.0
H2153 H 0.54788 0.17105 0.2989 0.0
H2154 H 0.53493 0.08142 0.2423 0.0
H2155 H 0.56996 0.09277 0.21081 0.0
H2156 H 0.56095 0.17811 0.22907 0.0
C2157 C 0.48069 0.15049 0.30059 0.0
C2158 C 0.4685 0.12727 0.31206 0.0
C2159 C 0.47631 0.10137 0.30301 0.0
C2160 C 0.49529 0.09824 0.2833 0.0
C2161 C 0.50717 0.12121 0.27271 0.0
C2162 C 0.50046 0.14691 0.28103 0.0
C2163 C 0.51778 0.16789 0.26688 0.0
C2164 C 0.50008 0.18631 0.24998 0.0
C2165 C 0.53523 0.18454 0.28669 0.0
C2166 C 0.53514 0.14987 0.24964 0.0
C2167 C 0.52822 0.12304 0.25324 0.0
C2168 C 0.54063 0.10237 0.23942 0.0
C2169 C 0.56064 0.10908 0.22146 0.0
C2170 C 0.56873 0.13632 0.21734 0.0
C2171 C 0.55567 0.15703 0.23185 0.0
H2172 H 0.14202 0.82199 0.98504 0.0
H2173 H 0.12323 0.77618 0.91351 0.0
H2174 H 0.11807 0.73473 0.93918 0.0
H2175 H 0.18087 0.77062 0.01644 0.0
H2176 H 0.16897 0.77593 0.04926 0.0
H2177 H 0.16943 0.80349 0.02647 0.0
H2178 H 0.11886 0.81104 0.0326 0.0
H2179 H 0.11822 0.78402 0.05603 0.0
H2180 H 0.09545 0.78304 0.02799 0.0
H2181 H 0.1167 0.69776 0.97086 0.0
H2182 H 0.11609 0.66669 0.00789 0.0
H2183 H 0.13591 0.73334 0.06174 0.0
C2184 C 0.13608 0.80334 0.97497 0.0
C2185 C 0.13249 0.80261 0.94703 0.0
C2186 C 0.1257 0.7775 0.9347 0.0
C2187 C 0.12286 0.75371 0.94917 0.0
C2188 C 0.12703 0.75485 0.97633 0.0
C2189 C 0.13325 0.77892 0.98936 0.0
C2190 C 0.1371 0.7736 0.01889 0.0
C2191 C 0.1658 0.78137 0.02831 0.0
C2192 C 0.11616 0.78883 0.03482 0.0
C2193 C 0.13224 0.74289 0.02011 0.0
C2194 C 0.12648 0.73283 0.99512 0.0
C2195 C 0.12106 0.70544 0.99052 0.0
C2196 C 0.1208 0.68784 0.01187 0.0
C2197 C 0.12598 0.69717 0.03802 0.0
C2198 C 0.1322 0.72527 0.04209 0.0
H2199 H 0.47274 0.86009 0.1935 0.0
H2200 H 0.42515 0.92261 0.22908 0.0
H2201 H 0.45627 0.92435 0.26755 0.0
H2202 H 0.48994 0.8262 0.25759 0.0
H2203 H 0.52325 0.81765 0.24759 0.0
H2204 H 0.49642 0.81993 0.22337 0.0
H2205 H 0.5247 0.85466 0.19775 0.0
H2206 H 0.55147 0.85264 0.222 0.0
H2207 H 0.53724 0.88494 0.21431 0.0
H2208 H 0.49371 0.9208 0.30211 0.0
H2209 H 0.53321 0.91159 0.32999 0.0
H2210 H 0.55884 0.85144 0.27373 0.0
C2211 C 0.4685 0.8736 0.20973 0.0
C2212 C 0.4458 0.89087 0.20827 0.0
C2213 C 0.44177 0.90879 0.22975 0.0
C2214 C 0.45955 0.91 0.25175 0.0
C2215 C 0.4817 0.89302 0.25258 0.0
C2216 C 0.48613 0.87485 0.2323 0.0
C2217 C 0.51179 0.85909 0.2384 0.0
C2218 C 0.50495 0.82893 0.24193 0.0
C2219 C 0.53253 0.86309 0.21682 0.0
C2220 C 0.52162 0.87203 0.26454 0.0
C2221 C 0.50363 0.89129 0.27242 0.0
C2222 C 0.50789 0.90577 0.29594 0.0
C2223 C 0.53083 0.90054 0.31178 0.0
C2224 C 0.55014 0.88125 0.30442 0.0
C2225 C 0.54504 0.86668 0.28022 0.0
H2226 H 0.37964 0.18862 0.48782 0.0
H2227 H 0.37934 0.242 0.42088 0.0
H2228 H 0.38016 0.28149 0.45067 0.0
H2229 H 0.3369 0.22921 0.52824 0.0
H2230 H 0.35443 0.22386 0.55902 0.0
H2231 H 0.35544 0.19864 0.53318 0.0
H2232 H 0.40733 0.20078 0.53433 0.0
H2233 H 0.40654 0.22552 0.56062 0.0
H2234 H 0.42445 0.23297 0.53112 0.0
H2235 H 0.37806 0.31586 0.48652 0.0
H2236 H 0.37933 0.34379 0.52671 0.0
H2237 H 0.38244 0.27141 0.57391 0.0
C2238 C 0.38061 0.20863 0.47949 0.0
C2239 C 0.37993 0.2118 0.45148 0.0
C2240 C 0.38022 0.23861 0.44186 0.0
C2241 C 0.38047 0.26137 0.45878 0.0
C2242 C 0.38038 0.25769 0.4859 0.0
C2243 C 0.38093 0.2321 0.49644 0.0
C2244 C 0.38063 0.23463 0.52668 0.0
C2245 C 0.35535 0.22075 0.53741 0.0
C2246 C 0.40626 0.22277 0.53891 0.0
C2247 C 0.37989 0.26551 0.53124 0.0
C2248 C 0.37944 0.27808 0.50715 0.0
C2249 C 0.37854 0.30616 0.50545 0.0
C2250 C 0.37908 0.32199 0.52864 0.0
C2251 C 0.38062 0.31034 0.55399 0.0
C2252 C 0.3806 0.28133 0.55515 0.0
H2253 H 0.96322 0.09988 0.79629 0.0
H2254 H 0.96068 0.18701 0.80444 0.0
H2255 H 0.9979 0.19203 0.77418 0.0
H2256 H 0.03622 0.0923 0.78379 0.0
H2257 H 0.03004 0.06735 0.75805 0.0
H2258 H 1.00673 0.07061 0.7844 0.0
H2259 H 0.96876 0.07676 0.74926 0.0
H2260 H 0.99274 0.07452 0.72337 0.0
H2261 H 0.97171 0.10369 0.7259 0.0
H2262 H 0.03611 0.18841 0.74269 0.0
H2263 H 0.06705 0.17665 0.70706 0.0
H2264 H 0.04134 0.09261 0.71197 0.0
C2265 C 0.97104 0.11992 0.79224 0.0
C2266 C 0.95984 0.14311 0.80451 0.0
C2267 C 0.9698 0.16891 0.79705 0.0
C2268 C 0.99088 0.17202 0.7794 0.0
C2269 C 1.00158 0.14909 0.76785 0.0
C2270 C 0.9916 0.1235 0.77336 0.0
C2271 C 1.00455 0.10273 0.75527 0.0
C2272 C 0.02034 0.08203 0.77136 0.0
C2273 C 0.98316 0.08859 0.73739 0.0
C2274 C 0.02344 0.12064 0.73927 0.0
C2275 C 0.02169 0.14727 0.74731 0.0
C2276 C 0.03745 0.16761 0.73605 0.0
C2277 C 0.05512 0.16074 0.71579 0.0
C2278 C 0.05666 0.13381 0.70624 0.0
C2279 C 0.04056 0.11351 0.71846 0.0
H2280 H 0.23758 0.57294 0.1579 0.0
H2281 H 0.17708 0.53441 0.1066 0.0
H2282 H 0.20661 0.49527 0.10087 0.0
H2283 H 0.29576 0.55024 0.12129 0.0
H2284 H 0.31641 0.54515 0.15028 0.0
H2285 H 0.29053 0.57015 0.1506 0.0
H2286 H 0.26979 0.54746 0.19107 0.0
H2287 H 0.29549 0.52225 0.19077 0.0
H2288 H 0.26054 0.51206 0.18942 0.0
H2289 H 0.24214 0.45823 0.10256 0.0
H2290 H 0.28209 0.42954 0.10728 0.0
H2291 H 0.32229 0.49223 0.1545 0.0
C2292 C 0.23056 0.55642 0.14521 0.0
C2293 C 0.20457 0.55729 0.13264 0.0
C2294 C 0.19662 0.53482 0.1164 0.0
C2295 C 0.21335 0.51223 0.11312 0.0
C2296 C 0.2385 0.51194 0.12597 0.0
C2297 C 0.2473 0.53367 0.1414 0.0
C2298 C 0.27556 0.52833 0.15258 0.0
C2299 C 0.29576 0.54974 0.14312 0.0
C2300 C 0.27533 0.52749 0.18275 0.0
C2301 C 0.28139 0.50036 0.14093 0.0
C2302 C 0.25943 0.49113 0.12602 0.0
C2303 C 0.25942 0.46551 0.11404 0.0
C2304 C 0.28229 0.44919 0.11693 0.0
C2305 C 0.30556 0.45826 0.13129 0.0
C2306 C 0.30494 0.48442 0.14347 0.0
H2307 H 0.80191 0.04971 0.85166 0.0
H2308 H 0.80033 0.06219 0.93622 0.0
H2309 H 0.76433 0.0282 0.93929 0.0
H2310 H 0.72753 0.03731 0.8436 0.0
H2311 H 0.73062 0.01142 0.81866 0.0
H2312 H 0.75573 0.03808 0.82201 0.0
H2313 H 0.7927 1.00241 0.82708 0.0
H2314 H 0.76768 0.97571 0.82382 0.0
H2315 H 0.78995 0.97726 0.85226 0.0
H2316 H 0.72785 0.99178 0.93464 0.0
H2317 H 0.69508 0.95543 0.92189 0.0
H2318 H 0.71896 0.96258 0.84083 0.0
C2319 C 0.79377 0.0456 0.87075 0.0
C2320 C 0.80471 0.05934 0.89373 0.0
C2321 C 0.79307 0.05245 0.91817 0.0
C2322 C 0.77226 0.03294 0.92024 0.0
C2323 C 0.76237 0.01955 0.89771 0.0
C2324 C 0.7726 0.02553 0.87332 0.0
C2325 C 0.75815 0.00728 0.85248 0.0
C2326 C 0.74207 0.02454 0.83302 0.0
C2327 C 0.77833 0.98961 0.83806 0.0
C2328 C 0.73909 0.98989 0.8691 0.0
C2329 C 0.74162 0.99779 0.89513 0.0
C2330 C 0.72582 0.98546 0.91425 0.0
C2331 C 0.70707 0.96464 0.90681 0.0
C2332 C 0.70412 0.95543 0.88039 0.0
C2333 C 0.72064 0.96857 0.86134 0.0
H2334 H 0.78994 0.0498 0.33685 0.0
H2335 H 0.8285 0.05029 0.41413 0.0
H2336 H 0.79696 0.01413 0.42775 0.0
H2337 H 0.72175 0.03732 0.35723 0.0
H2338 H 0.71281 0.01478 0.33019 0.0
H2339 H 0.7383 0.04066 0.32626 0.0
H2340 H 0.77188 1.00436 0.31189 0.0
H2341 H 0.74652 0.97833 0.31583 0.0
H2342 H 0.77843 0.97616 0.33302 0.0
H2343 H 0.75985 0.97891 0.43396 0.0
H2344 H 0.72157 0.94685 0.43224 0.0
H2345 H 0.70659 0.96553 0.35031 0.0
C2346 C 0.79174 0.04242 0.35673 0.0
C2347 C 0.81196 0.05355 0.37448 0.0
C2348 C 0.81348 0.04262 0.40008 0.0
C2349 C 0.79551 0.02191 0.40801 0.0
C2350 C 0.77597 0.01157 0.39014 0.0
C2351 C 0.77409 0.02128 0.3649 0.0
C2352 C 0.75139 1.00615 0.34951 0.0
C2353 C 0.72978 0.02591 0.34025 0.0
C2354 C 0.76273 0.99032 0.32617 0.0
C2355 C 0.74036 0.98681 0.37017 0.0
C2356 C 0.75503 0.99046 0.39344 0.0
C2357 C 0.74849 0.9759 0.41574 0.0
C2358 C 0.7265 0.95754 0.41454 0.0
C2359 C 0.71075 0.95303 0.39119 0.0
C2360 C 0.71819 0.96788 0.36846 0.0
H2361 H 0.77024 0.9409 0.14017 0.0
H2362 H 0.84374 0.9862 0.12606 0.0
H2363 H 0.81827 0.02872 0.12628 0.0
H2364 H 0.72779 0.9814 0.09717 0.0
H2365 H 0.6989 0.97894 0.11779 0.0
H2366 H 0.72316 0.95235 0.11773 0.0
H2367 H 0.72931 0.95774 0.16813 0.0
H2368 H 0.7053 0.98459 0.16827 0.0
H2369 H 0.7386 0.99038 0.18207 0.0
H2370 H 0.78396 0.06792 0.13045 0.0
H2371 H 0.74438 0.09769 0.13025 0.0
H2372 H 0.69211 0.02724 0.13691 0.0
C2373 C 0.78104 0.95973 0.137 0.0
C2374 C 0.8094 0.95974 0.13315 0.0
C2375 C 0.82226 0.98516 0.12894 0.0
C2376 C 0.80786 0.00964 0.12923 0.0
C2377 C 0.78011 0.00893 0.1333 0.0
C2378 C 0.76674 0.98447 0.13652 0.0
C2379 C 0.73657 0.98913 0.13901 0.0
C2380 C 0.72067 0.9746 0.11659 0.0
C2381 C 0.72687 0.9799 0.16597 0.0
C2382 C 0.73497 0.0199 0.1366 0.0
C2383 C 0.76041 0.03105 0.13397 0.0
C2384 C 0.76402 0.05917 0.13228 0.0
C2385 C 0.74129 0.07611 0.13247 0.0
C2386 C 0.71477 0.06524 0.13375 0.0
C2387 C 0.71192 0.03654 0.13606 0.0
H2388 H 0.29375 0.45828 0.6007 0.0
H2389 H 0.30299 0.45762 0.68555 0.0
H2390 H 0.27347 0.49698 0.689 0.0
H2391 H 0.28887 0.5321 0.59284 0.0
H2392 H 0.26306 0.52928 0.5675 0.0
H2393 H 0.28701 0.50269 0.57152 0.0
H2394 H 0.24768 0.46816 0.57612 0.0
H2395 H 0.22384 0.49489 0.57239 0.0
H2396 H 0.22301 0.47372 0.60093 0.0
H2397 H 0.24238 0.53788 0.68343 0.0
H2398 H 0.20946 0.57224 0.66942 0.0
H2399 H 0.21644 0.54456 0.5887 0.0
C2400 C 0.28982 0.46662 0.61997 0.0
C2401 C 0.30127 0.45469 0.64287 0.0
C2402 C 0.29483 0.46616 0.66765 0.0
C2403 C 0.27801 0.48873 0.66984 0.0
C2404 C 0.26688 0.49985 0.64709 0.0
C2405 C 0.27225 0.48894 0.62259 0.0
C2406 C 0.25607 0.50363 0.60144 0.0
C2407 C 0.27489 0.51776 0.58219 0.0
C2408 C 0.23649 0.48392 0.58686 0.0
C2409 C 0.2409 0.52433 0.61779 0.0
C2410 C 0.24777 0.52214 0.64408 0.0
C2411 C 0.23676 0.5395 0.66286 0.0
C2412 C 0.21802 0.55915 0.65471 0.0
C2413 C 0.20982 0.56129 0.62797 0.0
C2414 C 0.22184 0.54354 0.60939 0.0
H2415 H 0.21538 0.46835 0.34279 0.0
H2416 H 0.19443 0.4583 0.42436 0.0
H2417 H 0.23009 0.49163 0.43754 0.0
H2418 H 0.28732 0.4773 0.35244 0.0
H2419 H 0.2911 0.50325 0.3282 0.0
H2420 H 0.26413 0.47856 0.32478 0.0
H2421 H 0.22964 0.5169 0.32241 0.0
H2422 H 0.25653 0.54171 0.32578 0.0
H2423 H 0.22919 0.542 0.34839 0.0
H2424 H 0.27001 0.52423 0.44253 0.0
H2425 H 0.30821 0.55573 0.43949 0.0
H2426 H 0.30343 0.55002 0.35436 0.0
C2427 C 0.21825 0.47312 0.36349 0.0
C2428 C 0.20172 0.46003 0.38254 0.0
C2429 C 0.20636 0.46755 0.40927 0.0
C2430 C 0.22679 0.4866 0.41695 0.0
C2431 C 0.24262 0.49886 0.39781 0.0
C2432 C 0.23837 0.49274 0.37152 0.0
C2433 C 0.25796 0.50963 0.35501 0.0
C2434 C 0.27621 0.49108 0.33916 0.0
C2435 C 0.2424 0.52869 0.33681 0.0
C2436 C 0.27429 0.52581 0.37612 0.0
C2437 C 0.26495 0.51892 0.40062 0.0
C2438 C 0.2771 0.52987 0.42338 0.0
C2439 C 0.29909 0.54802 0.42135 0.0
C2440 C 0.3094 0.55625 0.39675 0.0
C2441 C 0.29632 0.54487 0.37362 0.0
H2442 H 0.21493 0.47461 0.92156 0.0
H2443 H 0.21575 0.43297 0.84603 0.0
H2444 H 0.2512 0.46474 0.83157 0.0
H2445 H 0.22634 0.54259 0.89796 0.0
H2446 H 0.24821 0.55301 0.92507 0.0
H2447 H 0.22279 0.5272 0.92963 0.0
H2448 H 0.25913 0.49458 0.94648 0.0
H2449 H 0.28468 0.52029 0.94192 0.0
H2450 H 0.28758 0.48757 0.92635 0.0
H2451 H 0.28558 0.50258 0.82422 0.0
H2452 H 0.31727 0.54141 0.82503 0.0
H2453 H 0.29777 0.55865 0.90608 0.0
C2454 C 0.22246 0.47216 0.90191 0.0
C2455 C 0.21192 0.45102 0.88491 0.0
C2456 C 0.22296 0.44873 0.85953 0.0
C2457 C 0.24327 0.46684 0.8511 0.0
C2458 C 0.25303 0.48734 0.86823 0.0
C2459 C 0.24316 0.48998 0.89323 0.0
C2460 C 0.25764 0.5136 0.90785 0.0
C2461 C 0.23754 0.53539 0.91559 0.0
C2462 C 0.27318 0.5034 0.93209 0.0
C2463 C 0.27695 0.5241 0.88708 0.0
C2464 C 0.2737 0.50858 0.86435 0.0
C2465 C 0.2883 0.51462 0.84202 0.0
C2466 C 0.30637 0.53693 0.84269 0.0
C2467 C 0.31053 0.55339 0.86557 0.0
C2468 C 0.2956 0.5465 0.88829 0.0
H2469 H 0.67201 0.71689 0.05245 0.0
H2470 H 0.59229 0.6801 0.04611 0.0
H2471 H 0.5806 0.71199 0.01064 0.0
H2472 H 0.65366 0.7857 0.04036 0.0
H2473 H 0.68264 0.79338 0.021 0.0
H2474 H 0.68455 0.76798 0.04598 0.0
H2475 H 0.69999 0.73309 0.01146 0.0
H2476 H 0.69803 0.75832 0.98628 0.0
H2477 H 0.67964 0.72675 0.98223 0.0
H2478 H 0.57709 0.74938 0.97648 0.0
H2479 H 0.58195 0.78774 0.9464 0.0
H2480 H 0.66484 0.79952 0.97221 0.0
C2481 C 0.65199 0.71548 0.04373 0.0
C2482 C 0.63301 0.69573 0.05254 0.0
C2483 C 0.60724 0.6948 0.04009 0.0
C2484 C 0.60044 0.71292 0.01979 0.0
C2485 C 0.61967 0.73189 0.01158 0.0
C2486 C 0.64501 0.73315 0.02309 0.0
C2487 C 0.66218 0.75511 0.01028 0.0
C2488 C 0.67129 0.77683 0.03062 0.0
C2489 C 0.6864 0.74258 0.99676 0.0
C2490 C 0.6424 0.76653 0.99007 0.0
C2491 C 0.61799 0.75272 0.99125 0.0
C2492 C 0.59621 0.76001 0.97533 0.0
C2493 C 0.59919 0.78192 0.95814 0.0
C2494 C 0.62383 0.7966 0.95631 0.0
C2495 C 0.64587 0.78849 0.97251 0.0
H2496 H 0.54404 0.35915 0.31004 0.0
H2497 H 0.56065 0.44449 0.29829 0.0
H2498 H 0.52837 0.44447 0.261 0.0
H2499 H 0.53293 0.34024 0.24 0.0
H2500 H 0.50535 0.31725 0.24616 0.0
H2501 H 0.53139 0.32294 0.2709 0.0
H2502 H 0.4955 0.33644 0.30439 0.0
H2503 H 0.4694 0.33094 0.27971 0.0
H2504 H 0.47262 0.36316 0.29654 0.0
H2505 H 0.494 0.436 0.22456 0.0
H2506 H 0.45827 0.41994 0.19336 0.0
H2507 H 0.45989 0.34081 0.22916 0.0
C2508 C 0.54112 0.37769 0.29936 0.0
C2509 C 0.55536 0.40184 0.30721 0.0
C2510 C 0.5503 0.42571 0.29285 0.0
C2511 C 0.53191 0.42593 0.27148 0.0
C2512 C 0.51796 0.40215 0.26447 0.0
C2513 C 0.52211 0.37844 0.27801 0.0
C2514 C 0.50313 0.35618 0.26694 0.0
C2515 C 0.51916 0.33277 0.25531 0.0
C2516 C 0.48403 0.34609 0.28816 0.0
C2517 C 0.48777 0.37117 0.24535 0.0
C2518 C 0.497 0.39759 0.24411 0.0
C2519 C 0.48652 0.41536 0.22551 0.0
C2520 C 0.46611 0.40603 0.20776 0.0
C2521 C 0.45573 0.37917 0.20872 0.0
C2522 C 0.46692 0.36159 0.22797 0.0
H2523 H 0.84633 0.21095 0.46462 0.0
H2524 H 0.9302 0.22285 0.44579 0.0
H2525 H 0.93394 0.26067 0.47768 0.0
H2526 H 0.83149 0.28391 0.47617 0.0
H2527 H 0.8099 0.277 0.50332 0.0
H2528 H 0.81304 0.25226 0.4773 0.0
H2529 H 0.8267 0.21677 0.51186 0.0
H2530 H 0.82397 0.24167 0.53777 0.0
H2531 H 0.85494 0.22386 0.53383 0.0
H2532 H 0.92959 0.2971 0.51329 0.0
H2533 H 0.91717 0.32838 0.54923 0.0
H2534 H 0.83663 0.29326 0.54747 0.0
C2535 C 0.86527 0.22193 0.46677 0.0
C2536 C 0.88791 0.21379 0.45207 0.0
C2537 C 0.91246 0.2285 0.45638 0.0
C2538 C 0.91484 0.25016 0.47462 0.0
C2539 C 0.89254 0.25735 0.48911 0.0
C2540 C 0.86814 0.24376 0.4854 0.0
C2541 C 0.84773 0.25514 0.50454 0.0
C2542 C 0.82414 0.26783 0.48942 0.0
C2543 C 0.83775 0.23304 0.5231 0.0
C2544 C 0.86451 0.27684 0.5196 0.0
C2545 C 0.89027 0.2779 0.51016 0.0
C2546 C 0.90941 0.29636 0.52076 0.0
C2547 C 0.90217 0.31417 0.54134 0.0
C2548 C 0.87597 0.31355 0.55175 0.0
C2549 C 0.85698 0.29439 0.54043 0.0
H2550 H 0.98027 0.59599 0.80292 0.0
H2551 H 0.93846 0.67107 0.79084 0.0
H2552 H 0.9686 0.68217 0.75458 0.0
H2553 H 0.04689 0.62066 0.78928 0.0
H2554 H 0.05681 0.59055 0.77196 0.0
H2555 H 0.03187 0.58837 0.79699 0.0
H2556 H 0.99853 0.56528 0.76367 0.0
H2557 H 0.02334 0.56742 0.73849 0.0
H2558 H 0.99066 0.58174 0.73315 0.0
H2559 H 1.00521 0.68654 0.72089 0.0
H2560 H 0.04356 0.68284 0.69113 0.0
H2561 H 0.06103 0.60365 0.72195 0.0
C2562 C 0.97745 0.61483 0.7927 0.0
C2563 C 0.95677 0.6328 0.80019 0.0
C2564 C 0.95384 0.65696 0.78581 0.0
C2565 C 0.97103 0.66345 0.76507 0.0
C2566 C 0.99113 0.64542 0.75831 0.0
C2567 C 0.99427 0.62143 0.77152 0.0
C2568 C 0.01729 0.60543 0.75992 0.0
C2569 C 0.03953 0.601 0.78078 0.0
C2570 C 1.00683 0.57836 0.74811 0.0
C2571 C 0.02696 0.62438 0.73847 0.0
C2572 C 0.01153 0.64738 0.73804 0.0
C2573 C 0.01714 0.66846 0.72092 0.0
C2574 C 0.03903 0.66618 0.70402 0.0
C2575 C 0.05517 0.64284 0.70377 0.0
C2576 C 0.0488 0.62151 0.72119 0.0
H2577 H 0.64102 0.27201 0.4391 0.0
H2578 H 0.61493 0.34272 0.48219 0.0
H2579 H 0.61261 0.31565 0.52259 0.0
H2580 H 0.59706 0.22381 0.4726 0.0
H2581 H 0.62121 0.19709 0.47225 0.0
H2582 H 0.62126 0.22209 0.44682 0.0
H2583 H 0.67128 0.23326 0.4576 0.0
H2584 H 0.67134 0.20847 0.48323 0.0
H2585 H 0.68132 0.24299 0.49068 0.0
H2586 H 0.61637 0.281 0.55993 0.0
H2587 H 0.61913 0.24103 0.58862 0.0
H2588 H 0.63813 0.19104 0.52126 0.0
C2589 C 0.63459 0.28182 0.45697 0.0
C2590 C 0.62822 0.30986 0.45709 0.0
C2591 C 0.61984 0.32149 0.48115 0.0
C2592 C 0.61862 0.3062 0.50441 0.0
C2593 C 0.62538 0.27885 0.50366 0.0
C2594 C 0.63265 0.26661 0.48037 0.0
C2595 C 0.63791 0.23659 0.48474 0.0
C2596 C 0.61818 0.21885 0.46811 0.0
C2597 C 0.6672 0.22994 0.4787 0.0
C2598 C 0.63262 0.23385 0.51407 0.0
C2599 C 0.62593 0.25864 0.5247 0.0
C2600 C 0.62136 0.26152 0.55162 0.0
C2601 C 0.6232 0.23865 0.56791 0.0
C2602 C 0.62899 0.2127 0.55749 0.0
C2603 C 0.63368 0.21047 0.53002 0.0
H2604 H 0.97835 0.41796 0.7128 0.0
H2605 H 0.94384 0.33676 0.71009 0.0
H2606 H 0.97468 0.32376 0.74636 0.0
H2607 H 0.0467 0.40028 0.72725 0.0
H2608 H 0.05346 0.42818 0.74972 0.0
H2609 H 0.0286 0.43133 0.72372 0.0
H2610 H 0.99311 0.44396 0.75784 0.0
H2611 H 0.01776 0.44074 0.78405 0.0
H2612 H 0.98667 0.42154 0.7847 0.0
H2613 H 0.01171 0.31846 0.78104 0.0
H2614 H 0.0495 0.32188 0.81315 0.0
H2615 H 0.05888 0.40728 0.7972 0.0
C2616 C 0.97725 0.3974 0.71979 0.0
C2617 C 0.95855 0.37831 0.70807 0.0
C2618 C 0.95778 0.3518 0.71836 0.0
C2619 C 0.97534 0.34422 0.73907 0.0
C2620 C 0.99353 0.36339 0.74997 0.0
C2621 C 0.99439 0.38958 0.74093 0.0
C2622 C 0.01564 0.40633 0.75649 0.0
C2623 C 0.03739 0.41717 0.73821 0.0
C2624 C 1.00251 0.42952 0.77167 0.0
C2625 C 0.02706 0.38535 0.77532 0.0
C2626 C 0.01397 0.3607 0.77101 0.0
C2627 C 0.02172 0.33778 0.78476 0.0
C2628 C 0.0433 0.33993 0.80309 0.0
C2629 C 0.05706 0.36485 0.80832 0.0
C2630 C 0.04851 0.38802 0.79425 0.0
H2631 H 0.9223 0.79099 0.04112 0.0
H2632 H 0.8393 0.81067 0.05532 0.0
H2633 H 0.82465 0.77827 0.02013 0.0
H2634 H 0.91724 0.78115 0.97065 0.0
H2635 H 0.9388 0.75228 0.96953 0.0
H2636 H 0.94317 0.77718 0.99552 0.0
H2637 H 0.93797 0.73985 0.03012 0.0
H2638 H 0.93363 0.7148 1.00424 0.0
H2639 H 0.9085 0.7181 0.02897 0.0
H2640 H 0.81873 0.74537 0.9816 0.0
H2641 H 0.82089 0.71216 0.94572 0.0
H2642 H 0.90753 0.70866 0.95652 0.0
C2643 C 0.90099 0.78853 0.03682 0.0
C2644 C 0.88198 0.80402 0.05124 0.0
C2645 C 0.85437 0.79948 0.04495 0.0
C2646 C 0.84585 0.78101 0.02479 0.0
C2647 C 0.86498 0.76632 0.01101 0.0
C2648 C 0.89202 0.76948 0.01702 0.0
C2649 C 0.90821 0.75018 0.99969 0.0
C2650 C 0.92803 0.76616 0.98285 0.0
C2651 C 0.92296 0.72951 0.01677 0.0
C2652 C 0.88615 0.7362 0.98247 0.0
C2653 C 0.86144 0.74613 0.98949 0.0
C2654 C 0.838 0.73742 0.97626 0.0
C2655 C 0.83954 0.71833 0.95556 0.0
C2656 C 0.86431 0.70712 0.94762 0.0
C2657 C 0.8881 0.71628 0.96176 0.0
H2658 H 0.52142 0.59813 0.19403 0.0
H2659 H 0.58076 0.65852 0.22039 0.0
H2660 H 0.55513 0.66606 0.26075 0.0
H2661 H 0.4632 0.633 0.21805 0.0
H2662 H 0.44598 0.60244 0.22767 0.0
H2663 H 0.4692 0.60154 0.20106 0.0
H2664 H 0.49579 0.5642 0.22474 0.0
H2665 H 0.47281 0.56516 0.25158 0.0
H2666 H 0.50833 0.5702 0.25784 0.0
H2667 H 0.52352 0.66585 0.29977 0.0
H2668 H 0.48645 0.66158 0.33119 0.0
H2669 H 0.44569 0.60361 0.27895 0.0
C2670 C 0.52901 0.6131 0.20817 0.0
C2671 C 0.55337 0.62772 0.20368 0.0
C2672 C 0.56229 0.64705 0.22298 0.0
C2673 C 0.54786 0.65139 0.24619 0.0
C2674 C 0.52422 0.63642 0.25009 0.0
C2675 C 0.51465 0.6179 0.23142 0.0
C2676 C 0.48834 0.60491 0.24017 0.0
C2677 C 0.46532 0.61084 0.22057 0.0
C2678 C 0.49151 0.5743 0.24379 0.0
C2679 C 0.48439 0.61919 0.26651 0.0
C2680 C 0.50564 0.63692 0.27207 0.0
C2681 C 0.50687 0.65199 0.29551 0.0
C2682 C 0.48579 0.64928 0.31341 0.0
C2683 C 0.46335 0.63193 0.30788 0.0
C2684 C 0.46274 0.61672 0.28399 0.0
H2685 H 0.80938 0.97283 0.6612 0.0
H2686 H 0.80965 0.96833 0.57608 0.0
H2687 H 0.77169 0.99938 0.57375 0.0
H2688 H 0.73614 0.98021 0.6686 0.0
H2689 H 0.73926 1.00495 0.69486 0.0
H2690 H 0.7651 0.9803 0.6905 0.0
H2691 H 0.80072 0.01881 0.68775 0.0
H2692 H 0.77497 0.04353 0.69204 0.0
H2693 H 0.79624 0.04505 0.66388 0.0
H2694 H 0.73242 0.03094 0.57993 0.0
H2695 H 0.6988 0.06393 0.59417 0.0
H2696 H 0.7253 0.05379 0.67514 0.0
C2697 C 0.80129 0.97819 0.6421 0.0
C2698 C 0.81273 0.96738 0.61873 0.0
C2699 C 0.80151 0.97573 0.59429 0.0
C2700 C 0.77974 0.99355 0.59273 0.0
C2701 C 0.76914 1.00397 0.61581 0.0
C2702 C 0.77973 0.99697 0.64012 0.0
C2703 C 0.76544 0.01283 0.66169 0.0
C2704 C 0.75061 0.99342 0.68 0.0
C2705 C 0.78554 0.03114 0.67726 0.0
C2706 C 0.74543 0.02973 0.6457 0.0
C2707 C 0.74765 0.02379 0.61928 0.0
C2708 C 0.73084 0.03594 0.6006 0.0
C2709 C 0.71162 0.05479 0.60891 0.0
C2710 C 0.70926 0.0622 0.63577 0.0
C2711 C 0.7266 0.04917 0.65437 0.0
H2712 H 0.14564 0.52576 0.19328 0.0
H2713 H 0.11222 0.59448 0.23387 0.0
H2714 H 0.10521 0.56643 0.27316 0.0
H2715 H 0.10358 0.47264 0.22162 0.0
H2716 H 0.13065 0.44911 0.22485 0.0
H2717 H 0.1311 0.47387 0.1992 0.0
H2718 H 0.17792 0.49112 0.2159 0.0
H2719 H 0.17756 0.46642 0.24159 0.0
H2720 H 0.18243 0.50177 0.24975 0.0
H2721 H 0.10216 0.53089 0.30845 0.0
H2722 H 0.1062 0.49184 0.33795 0.0
H2723 H 0.14431 0.44647 0.27588 0.0
C2724 C 0.13635 0.53465 0.2103 0.0
C2725 C 0.12881 0.56217 0.21034 0.0
C2726 C 0.11768 0.57337 0.2333 0.0
C2727 C 0.11366 0.55757 0.25571 0.0
C2728 C 0.12137 0.53057 0.25519 0.0
C2729 C 0.13276 0.51923 0.23317 0.0
C2730 C 0.14094 0.49024 0.23851 0.0
C2731 C 0.12565 0.47029 0.21994 0.0
C2732 C 0.17152 0.48722 0.23631 0.0
C2733 C 0.13214 0.48703 0.26678 0.0
C2734 C 0.12071 0.51047 0.27594 0.0
C2735 C 0.11108 0.51243 0.30144 0.0
C2736 C 0.11337 0.49002 0.31809 0.0
C2737 C 0.12547 0.46583 0.30944 0.0
C2738 C 0.13486 0.4645 0.28327 0.0
H2739 H 0.71592 0.92074 0.47159 0.0
H2740 H 0.72226 0.83761 0.44481 0.0
H2741 H 0.75778 0.83032 0.47899 0.0
H2742 H 0.78775 0.93149 0.48261 0.0
H2743 H 0.78326 0.95382 0.51037 0.0
H2744 H 0.75796 0.95154 0.48455 0.0
H2745 H 0.72218 0.9398 0.51897 0.0
H2746 H 0.74749 0.94167 0.5448 0.0
H2747 H 0.7272 0.91135 0.54019 0.0
H2748 H 0.79212 0.83222 0.51933 0.0
H2749 H 0.82496 0.84481 0.55526 0.0
H2750 H 0.7985 0.92762 0.55174 0.0
C2751 C 0.72482 0.90097 0.47268 0.0
C2752 C 0.71599 0.87971 0.45531 0.0
C2753 C 0.72852 0.85429 0.45766 0.0
C2754 C 0.74868 0.84994 0.47721 0.0
C2755 C 0.75671 0.87134 0.49412 0.0
C2756 C 0.74543 0.89655 0.49152 0.0
C2757 C 0.75841 0.9168 0.51088 0.0
C2758 C 0.77269 0.93976 0.49623 0.0
C2759 C 0.73757 0.92806 0.52983 0.0
C2760 C 0.77852 0.8991 0.52518 0.0
C2761 C 0.77709 0.87281 0.51564 0.0
C2762 C 0.79343 0.85287 0.52663 0.0
C2763 C 0.81196 0.86012 0.54724 0.0
C2764 C 0.81453 0.88723 0.55648 0.0
C2765 C 0.79725 0.90673 0.54522 0.0
H2766 H 0.35101 0.47544 0.69243 0.0
H2767 H 0.40277 0.41647 0.7286 0.0
H2768 H 0.4122 0.44825 0.76596 0.0
H2769 H 0.39064 0.53623 0.71365 0.0
H2770 H 0.36126 0.5561 0.71926 0.0
H2771 H 0.36018 0.52954 0.69465 0.0
H2772 H 0.31918 0.50775 0.717 0.0
H2773 H 0.32023 0.53413 0.74174 0.0
H2774 H 0.32155 0.49919 0.75128 0.0
H2775 H 0.41431 0.4861 0.80079 0.0
H2776 H 0.40941 0.5262 0.82957 0.0
H2777 H 0.35555 0.56109 0.77153 0.0
C2778 C 0.36472 0.46947 0.70801 0.0
C2779 C 0.37662 0.44355 0.7073 0.0
C2780 C 0.39392 0.43632 0.72839 0.0
C2781 C 0.39926 0.45426 0.74978 0.0
C2782 C 0.38706 0.47954 0.75006 0.0
C2783 C 0.37022 0.48722 0.72961 0.0
C2784 C 0.359 0.51521 0.73515 0.0
C2785 C 0.36833 0.53547 0.71444 0.0
C2786 C 0.32816 0.51398 0.73638 0.0
C2787 C 0.37177 0.52191 0.76205 0.0
C2788 C 0.38803 0.50112 0.77019 0.0
C2789 C 0.40174 0.50251 0.79444 0.0
C2790 C 0.39883 0.52554 0.81075 0.0
C2791 C 0.38222 0.54725 0.80308 0.0
C2792 C 0.36856 0.54515 0.77819 0.0
H2793 H 0.82149 0.15389 0.99009 0.0
H2794 H 0.77849 0.11391 0.92506 0.0
H2795 H 0.73801 0.11016 0.95185 0.0
H2796 H 0.79335 0.11797 0.0425 0.0
H2797 H 0.78951 0.14661 0.06429 0.0
H2798 H 0.81524 0.14724 0.03999 0.0
H2799 H 0.79629 0.19162 0.02133 0.0
H2800 H 0.77053 0.1912 0.04568 0.0
H2801 H 0.76139 0.19282 0.0113 0.0
H2802 H 0.70363 0.10738 0.98581 0.0
H2803 H 0.67536 0.108 0.02462 0.0
H2804 H 0.73776 0.15282 0.06855 0.0
C2805 C 0.80335 0.1448 0.98149 0.0
C2806 C 0.80299 0.13439 0.95536 0.0
C2807 C 0.77902 0.12243 0.94479 0.0
C2808 C 0.75595 0.12012 0.95992 0.0
C2809 C 0.75681 0.13053 0.98549 0.0
C2810 C 0.77962 0.14311 0.99616 0.0
C2811 C 0.7745 0.15292 0.02413 0.0
C2812 C 0.79433 0.14042 0.04389 0.0
C2813 C 0.77577 0.18399 0.02571 0.0
C2814 C 0.74585 0.14246 0.02792 0.0
C2815 C 0.73616 0.12985 1.00514 0.0
C2816 C 0.71081 0.11759 1.00362 0.0
C2817 C 0.6949 0.11802 0.02591 0.0
C2818 C 0.7041 0.13067 0.04973 0.0
C2819 C 0.72991 0.14342 0.05058 0.0
H2820 H 0.24466 0.13528 0.56427 0.0
H2821 H 0.17191 0.11438 0.51941 0.0
H2822 H 0.19826 0.11156 0.47895 0.0
H2823 H 0.27566 0.17629 0.51675 0.0
H2824 H 0.30926 0.1647 0.52317 0.0
H2825 H 0.28498 0.16409 0.54884 0.0
H2826 H 0.29264 0.11295 0.55513 0.0
H2827 H 0.31704 0.11337 0.5295 0.0
H2828 H 0.28876 0.09011 0.52735 0.0
H2829 H 0.23165 0.11539 0.44272 0.0
H2830 H 0.2704 0.12174 0.41372 0.0
H2831 H 0.32261 0.13644 0.48188 0.0
C2832 C 0.23434 0.12974 0.54598 0.0
C2833 C 0.20614 0.12489 0.5451 0.0
C2834 C 0.19345 0.11782 0.52072 0.0
C2835 C 0.20827 0.11631 0.49758 0.0
C2836 C 0.23593 0.12142 0.49909 0.0
C2837 C 0.24895 0.1276 0.52272 0.0
C2838 C 0.27891 0.13218 0.51884 0.0
C2839 C 0.28771 0.16103 0.5274 0.0
C2840 C 0.29531 0.11088 0.53358 0.0
C2841 C 0.28059 0.12822 0.48925 0.0
C2842 C 0.25549 0.12219 0.47827 0.0
C2843 C 0.25148 0.11951 0.45115 0.0
C2844 C 0.2736 0.12313 0.43482 0.0
C2845 C 0.29959 0.12887 0.44554 0.0
C2846 C 0.30312 0.1312 0.47318 0.0
H2847 H 0.09318 0.98263 0.80383 0.0
H2848 H 0.17541 0.95626 0.79726 0.0
H2849 H 0.18205 0.98786 0.76059 0.0
H2850 H 0.07924 0.98804 0.73466 0.0
H2851 H 0.05887 0.01763 0.73791 0.0
H2852 H 0.06122 0.99402 0.76444 0.0
H2853 H 0.0761 0.03312 0.7955 0.0
H2854 H 0.07583 0.0572 0.76921 0.0
H2855 H 0.10595 0.05276 0.78868 0.0
H2856 H 0.17999 0.02403 0.72451 0.0
H2857 H 0.16791 0.05728 0.69025 0.0
H2858 H 0.08621 0.05744 0.71791 0.0
C2859 C 0.11269 0.98365 0.79488 0.0
C2860 C 0.13389 0.96699 0.80389 0.0
C2861 C 0.15887 0.96877 0.79104 0.0
C2862 C 0.16285 0.98677 0.77012 0.0
C2863 C 0.14159 1.00284 0.76174 0.0
C2864 C 0.11688 1.0012 0.77358 0.0
C2865 C 0.097 0.01995 0.76024 0.0
C2866 C 0.07265 1.00395 0.74861 0.0
C2867 C 0.08818 0.04204 0.77957 0.0
C2868 C 0.11415 0.03198 0.73873 0.0
C2869 C 0.14001 0.02235 0.74027 0.0
C2870 C 0.1597 0.03146 0.72308 0.0
C2871 C 0.15272 0.05048 0.70368 0.0
C2872 C 0.12609 0.05988 0.70107 0.0
C2873 C 0.1067 0.05044 0.71906 0.0
H2874 H 0.21291 0.83925 0.96427 0.0
H2875 H 0.20518 0.92529 0.95186 0.0
H2876 H 0.23799 0.93445 0.98863 0.0
H2877 H 0.21672 0.84347 0.03541 0.0
H2878 H 0.24023 0.81633 0.03845 0.0
H2879 H 0.2169 0.81682 0.01091 0.0
H2880 H 0.25619 0.81412 0.97877 0.0
H2881 H 0.27979 0.81358 0.00609 0.0
H2882 H 0.28317 0.8389 0.98118 0.0
H2883 H 0.27509 0.93344 0.02625 0.0
H2884 H 0.30719 0.92278 0.06257 0.0
H2885 H 0.28736 0.83757 0.05228 0.0
C2886 C 0.21808 0.8601 0.96921 0.0
C2887 C 0.20647 0.88157 0.95473 0.0
C2888 C 0.21364 0.90846 0.9624 0.0
C2889 C 0.23243 0.91382 0.98329 0.0
C2890 C 0.24367 0.89212 0.99691 0.0
C2891 C 0.2363 0.86577 0.99032 0.0
C2892 C 0.2504 0.84593 0.00841 0.0
C2893 C 0.22984 0.82969 0.02424 0.0
C2894 C 0.26845 0.82702 0.99267 0.0
C2895 C 0.26711 0.86506 0.02614 0.0
C2896 C 0.26333 0.89165 0.01906 0.0
C2897 C 0.27776 0.91267 0.03202 0.0
C2898 C 0.29611 0.90642 0.05268 0.0
C2899 C 0.29976 0.87937 0.06079 0.0
C2900 C 0.28488 0.85855 0.04708 0.0
H2901 H 0.43275 0.05124 0.30205 0.0
H2902 H 0.34874 0.06884 0.31294 0.0
H2903 H 0.33619 0.03586 0.27746 0.0
H2904 H 0.4271 0.0468 0.2304 0.0
H2905 H 0.45156 0.02054 0.22767 0.0
H2906 H 0.45378 0.04441 0.25474 0.0
H2907 H 0.45316 1.00489 0.28755 0.0
H2908 H 0.45086 0.98093 0.26057 0.0
H2909 H 0.42599 0.98029 0.28575 0.0
H2910 H 0.33271 0.9981 0.24196 0.0
H2911 H 0.33857 0.96396 0.20668 0.0
H2912 H 0.42502 0.97458 0.21432 0.0
C2913 C 0.41169 0.04824 0.297 0.0
C2914 C 0.39174 0.06277 0.31075 0.0
C2915 C 0.36447 0.05816 0.30302 0.0
C2916 C 0.35715 0.03931 0.28282 0.0
C2917 C 0.37727 0.02543 0.26972 0.0
C2918 C 0.40407 0.03008 0.27621 0.0
C2919 C 0.42185 0.01363 0.25807 0.0
C2920 C 0.43963 0.03247 0.24175 0.0
C2921 C 0.43898 0.99376 0.27394 0.0
C2922 C 0.40094 0.99859 0.24064 0.0
C2923 C 0.37532 1.00541 0.24801 0.0
C2924 C 0.35271 0.99307 0.23586 0.0
C2925 C 0.35625 0.97355 0.21575 0.0
C2926 C 0.38219 0.96663 0.20714 0.0
C2927 C 0.40484 0.97963 0.21989 0.0
H2928 H 0.49375 0.31824 0.14771 0.0
H2929 H 0.42606 0.26326 0.13376 0.0
H2930 H 0.45719 0.22515 0.12909 0.0
H2931 H 0.5416 0.28482 0.10418 0.0
H2932 H 0.56993 0.29001 0.12646 0.0
H2933 H 0.54269 0.31354 0.12639 0.0
H2934 H 0.53652 0.30612 0.17612 0.0
H2935 H 0.56377 0.28266 0.17637 0.0
H2936 H 0.53128 0.27229 0.18799 0.0
H2937 H 0.49608 0.1923 0.12579 0.0
H2938 H 0.5384 0.16707 0.12922 0.0
H2939 H 0.5816 0.24175 0.14923 0.0
C2940 C 0.48557 0.29825 0.14314 0.0
C2941 C 0.45727 0.29399 0.1404 0.0
C2942 C 0.44751 0.26725 0.13545 0.0
C2943 C 0.46513 0.24539 0.13277 0.0
C2944 C 0.49281 0.25014 0.1356 0.0
C2945 C 0.50301 0.27588 0.14104 0.0
C2946 C 0.53351 0.27494 0.14513 0.0
C2947 C 0.54778 0.29184 0.12431 0.0
C2948 C 0.54175 0.28457 0.17306 0.0
C2949 C 0.5388 0.24479 0.14122 0.0
C2950 C 0.51505 0.23096 0.13525 0.0
C2951 C 0.51475 0.20303 0.13047 0.0
C2952 C 0.53908 0.18879 0.13228 0.0
C2953 C 0.56374 0.20213 0.1393 0.0
C2954 C 0.56333 0.23072 0.14365 0.0
H2955 H 0.9681 0.21392 0.83804 0.0
H2956 H 0.94967 0.20813 0.92036 0.0
H2957 H 0.98655 0.24151 0.93102 0.0
H2958 H 0.0409 0.21514 0.84945 0.0
H2959 H 0.04687 0.23669 0.82183 0.0
H2960 H 0.01824 0.21388 0.82132 0.0
H2961 H 0.98686 0.25411 0.81251 0.0
H2962 H 0.01543 0.27695 0.81318 0.0
H2963 H 0.98786 0.28282 0.83475 0.0
H2964 H 0.02521 0.27959 0.93123 0.0
H2965 H 0.06328 0.31111 0.9221 0.0
H2966 H 0.06015 0.28502 0.84049 0.0
C2967 C 0.97187 0.21927 0.85835 0.0
C2968 C 0.95562 0.20812 0.87825 0.0
C2969 C 0.9616 0.21615 0.90464 0.0
C2970 C 0.98258 0.23525 0.91083 0.0
C2971 C 0.99823 0.24568 0.89057 0.0
C2972 C 0.9934 0.23726 0.86488 0.0
C2973 C 0.01396 0.24966 0.84666 0.0
C2974 C 0.031 0.22753 0.83407 0.0
C2975 C 1.00019 0.26691 0.82554 0.0
C2976 C 0.03078 0.26716 0.86582 0.0
C2977 C 0.02128 0.26505 0.89105 0.0
C2978 C 0.03293 0.28081 0.91157 0.0
C2979 C 0.05466 0.29878 0.90621 0.0
C2980 C 0.06526 0.30065 0.88062 0.0
C2981 C 0.05297 0.28423 0.86037 0.0
H2982 H 0.99039 0.81061 0.10377 0.0
H2983 H 0.92612 0.7686 0.14367 0.0
H2984 H 0.95446 0.72829 0.14745 0.0
H2985 H 0.01337 0.75412 0.06655 0.0
H2986 H 0.04852 0.76325 0.06992 0.0
H2987 H 0.02354 0.78909 0.07102 0.0
H2988 H 0.04272 0.80556 0.11622 0.0
H2989 H 0.06771 0.77965 0.11527 0.0
H2990 H 0.0456 0.78193 0.14275 0.0
H2991 H 0.98909 0.69102 0.14462 0.0
H2992 H 0.02729 0.66082 0.13629 0.0
H2993 H 0.07024 0.72683 0.09992 0.0
C2994 C 0.98228 0.79303 0.11351 0.0
C2995 C 0.95577 0.79312 0.12352 0.0
C2996 C 0.94623 0.76943 0.136 0.0
C2997 C 0.96225 0.74629 0.1382 0.0
C2998 C 0.98812 0.74689 0.12809 0.0
C2999 C 0.99817 0.76974 0.11613 0.0
C3000 C 0.02663 0.76498 0.10675 0.0
C3001 C 0.02809 0.76803 0.07678 0.0
C3002 C 0.04686 0.78418 0.12111 0.0
C3003 C 0.03083 0.73575 0.11484 0.0
C3004 C 0.00834 0.72573 0.12718 0.0
C3005 C 1.00692 0.69888 0.13538 0.0
C3006 C 0.02879 0.68184 0.13071 0.0
C3007 C 0.0521 0.69159 0.11823 0.0
C3008 C 0.05307 0.71901 0.11029 0.0
H3009 H 0.55047 0.79542 0.33265 0.0
H3010 H 0.5633 0.81181 0.41586 0.0
H3011 H 0.52812 0.77735 0.42578 0.0
H3012 H 0.47813 0.78737 0.33549 0.0
H3013 H 0.47629 0.76131 0.3104 0.0
H3014 H 0.50292 0.78646 0.31022 0.0
H3015 H 0.53817 0.74861 0.31049 0.0
H3016 H 0.51165 0.72335 0.31073 0.0
H3017 H 0.5376 0.72367 0.336 0.0
H3018 H 0.49145 0.7382 0.42616 0.0
H3019 H 0.45595 0.70318 0.41693 0.0
H3020 H 0.46522 0.71513 0.33341 0.0
C3021 C 0.54606 0.79175 0.35304 0.0
C3022 C 0.5602 0.80641 0.37349 0.0
C3023 C 0.55309 0.80104 0.39978 0.0
C3024 C 0.53306 0.78133 0.40559 0.0
C3025 C 0.51968 0.7672 0.38494 0.0
C3026 C 0.52577 0.77255 0.35913 0.0
C3027 C 0.50789 0.75554 0.34034 0.0
C3028 C 0.49027 0.77376 0.3231 0.0
C3029 C 0.52485 0.73668 0.32339 0.0
C3030 C 0.49093 0.73948 0.35945 0.0
C3031 C 0.49812 0.74621 0.38514 0.0
C3032 C 0.48564 0.73317 0.40605 0.0
C3033 C 0.46541 0.71314 0.40063 0.0
C3034 C 0.45722 0.70631 0.37444 0.0
C3035 C 0.47046 0.7199 0.35372 0.0
H3036 H 0.995 0.8215 0.64503 0.0
H3037 H 0.92767 0.77218 0.61604 0.0
H3038 H 0.95796 0.73337 0.6104 0.0
H3039 H 0.04801 0.79277 0.60643 0.0
H3040 H 0.07243 0.79296 0.63312 0.0
H3041 H 0.04618 0.81757 0.63258 0.0
H3042 H 0.03144 0.80262 0.67862 0.0
H3043 H 0.05776 0.77811 0.6794 0.0
H3044 H 0.0234 0.7675 0.68415 0.0
H3045 H 0.99649 0.69952 0.60723 0.0
H3046 H 0.03742 0.6723 0.61254 0.0
H3047 H 0.07898 0.74145 0.64892 0.0
C3048 C 0.98666 0.80258 0.63737 0.0
C3049 C 0.95881 0.80015 0.63058 0.0
C3050 C 0.94883 0.77476 0.62106 0.0
C3051 C 0.96597 0.75255 0.61779 0.0
C3052 C 0.99321 0.75551 0.62484 0.0
C3053 C 1.00338 0.77978 0.63499 0.0
C3054 C 0.03284 0.77684 0.64334 0.0
C3055 C 0.05093 0.79619 0.62794 0.0
C3056 C 0.03658 0.78154 0.67314 0.0
C3057 C 0.03783 0.74737 0.6358 0.0
C3058 C 0.01478 0.73556 0.6248 0.0
C3059 C 0.01455 0.70865 0.61594 0.0
C3060 C 0.0381 0.6933 0.61884 0.0
C3061 C 0.06181 0.70448 0.63096 0.0
C3062 C 0.06144 0.73211 0.63939 0.0
H3063 H 0.05736 0.28683 0.42258 0.0
H3064 H 0.04044 0.32948 0.35057 0.0
H3065 H 1.00355 0.29629 0.33956 0.0
H3066 H 0.04534 0.2188 0.39365 0.0
H3067 H 0.03166 0.20562 0.42346 0.0
H3068 H 0.05647 0.23261 0.42507 0.0
H3069 H 0.0242 0.26179 0.45206 0.0
H3070 H 0.9992 0.23503 0.45042 0.0
H3071 H 0.99097 0.2683 0.43904 0.0
H3072 H 0.96489 0.25852 0.33869 0.0
H3073 H 0.93356 0.21965 0.34588 0.0
H3074 H 0.97881 0.20042 0.41677 0.0
C3075 C 0.04608 0.28904 0.40431 0.0
C3076 C 0.052 0.31094 0.38742 0.0
C3077 C 0.03666 0.31288 0.36372 0.0
C3078 C 0.01548 0.2941 0.35742 0.0
C3079 C 0.01 0.27289 0.37467 0.0
C3080 C 0.02539 0.27007 0.39742 0.0
C3081 C 0.01627 0.24522 0.41242 0.0
C3082 C 0.03877 0.22433 0.41373 0.0
C3083 C 1.00711 0.25307 0.44012 0.0
C3084 C 0.99275 0.23488 0.39519 0.0
C3085 C 0.98924 0.25102 0.37348 0.0
C3086 C 0.96793 0.24565 0.35548 0.0
C3087 C 0.9501 0.2234 0.3597 0.0
C3088 C 0.95357 0.20627 0.38164 0.0
C3089 C 0.97545 0.21248 0.39944 0.0
H3090 H 0.46406 0.71494 0.9284 0.0
H3091 H 0.46088 0.68957 0.84662 0.0
H3092 H 0.49602 0.72407 0.83675 0.0
H3093 H 0.47097 0.78662 0.91498 0.0
H3094 H 0.49255 0.79357 0.94324 0.0
H3095 H 0.46834 0.76608 0.94383 0.0
H3096 H 0.50632 0.73275 0.95529 0.0
H3097 H 0.53046 0.7603 0.9549 0.0
H3098 H 0.53506 0.7308 0.93444 0.0
H3099 H 0.53491 0.76116 0.83688 0.0
H3100 H 0.56791 0.79869 0.84601 0.0
H3101 H 0.54106 0.80296 0.92637 0.0
C3102 C 0.47086 0.71649 0.9084 0.0
C3103 C 0.4598 0.69899 0.88837 0.0
C3104 C 0.46897 0.7024 0.8624 0.0
C3105 C 0.48907 0.72201 0.85663 0.0
C3106 C 0.49962 0.73882 0.87687 0.0
C3107 C 0.49034 0.7365 0.90218 0.0
C3108 C 0.50365 0.75788 0.92021 0.0
C3109 C 0.48263 0.77718 0.93121 0.0
C3110 C 0.51983 0.74463 0.94252 0.0
C3111 C 0.52218 0.77239 0.90134 0.0
C3112 C 0.52 0.76095 0.87647 0.0
C3113 C 0.53636 0.77035 0.85628 0.0
C3114 C 0.55518 0.79179 0.86162 0.0
C3115 C 0.55736 0.80426 0.88687 0.0
C3116 C 0.5402 0.79425 0.90674 0.0
H3117 H 0.65549 0.026 0.69576 0.0
H3118 H 0.60844 0.08776 0.73319 0.0
H3119 H 0.60054 0.05745 0.77069 0.0
H3120 H 0.61627 0.96693 0.7178 0.0
H3121 H 0.64548 0.94658 0.72338 0.0
H3122 H 0.64589 0.97231 0.69865 0.0
H3123 H 0.68849 0.99409 0.72074 0.0
H3124 H 0.68815 0.96836 0.74542 0.0
H3125 H 0.68805 1.00356 0.75505 0.0
H3126 H 0.59853 0.02055 0.80507 0.0
H3127 H 0.60382 0.98107 0.83388 0.0
H3128 H 0.65355 0.94311 0.77546 0.0
C3129 C 0.64302 0.03282 0.71161 0.0
C3130 C 0.63192 0.05909 0.71118 0.0
C3131 C 0.61661 0.0676 0.73278 0.0
C3132 C 0.6121 0.0505 0.75424 0.0
C3133 C 0.62333 0.02481 0.75421 0.0
C3134 C 0.63858 0.01599 0.73348 0.0
C3135 C 0.64944 0.98793 0.73906 0.0
C3136 C 0.63862 0.96721 0.7185 0.0
C3137 C 0.68036 0.98854 0.74014 0.0
C3138 C 0.63794 0.9824 0.76607 0.0
C3139 C 0.6228 1.00389 0.77435 0.0
C3140 C 0.61027 1.00358 0.79866 0.0
C3141 C 0.61332 0.98091 0.81495 0.0
C3142 C 0.62895 0.95859 0.80719 0.0
C3143 C 0.64132 0.95958 0.7822 0.0
H3144 H 0.29633 0.42427 0.0594 0.0
H3145 H 0.31318 0.33919 0.06878 0.0
H3146 H 0.27989 0.32796 0.03291 0.0
H3147 H 0.22448 0.41581 0.04703 0.0
H3148 H 0.2233 0.44302 0.02383 0.0
H3149 H 0.24813 0.44377 0.05013 0.0
H3150 H 0.28579 0.44883 0.01623 0.0
H3151 H 0.26116 0.44786 0.98977 0.0
H3152 H 0.28821 0.42413 0.99008 0.0
H3153 H 0.24698 0.32707 0.99249 0.0
H3154 H 0.21398 0.3357 0.95647 0.0
H3155 H 0.21635 0.42112 0.97665 0.0
C3156 C 0.29289 0.40317 0.05418 0.0
C3157 C 0.30753 0.38257 0.06702 0.0
C3158 C 0.30219 0.3553 0.05947 0.0
C3159 C 0.28341 0.3488 0.03896 0.0
C3160 C 0.26973 0.36974 0.02645 0.0
C3161 C 0.27395 0.39636 0.03422 0.0
C3162 C 0.25654 0.41526 0.01816 0.0
C3163 C 0.23694 0.43035 0.03584 0.0
C3164 C 0.27397 0.43519 1.00265 0.0
C3165 C 0.2418 0.39522 0.9999 0.0
C3166 C 0.24996 0.36909 1.00462 0.0
C3167 C 0.24023 0.34742 0.98903 0.0
C3168 C 0.22154 0.35252 0.96849 0.0
C3169 C 0.21223 0.37901 0.96388 0.0
C3170 C 0.22264 0.40056 0.97993 0.0
H3171 H 0.84174 0.96559 0.20079 0.0
H3172 H 0.922 0.9337 0.20793 0.0
H3173 H 0.93256 0.96683 0.24408 0.0
H3174 H 0.86245 0.03651 0.21238 0.0
H3175 H 0.83223 0.04445 0.2295 0.0
H3176 H 0.83153 0.0184 0.20439 0.0
H3177 H 0.81227 0.98438 0.23759 0.0
H3178 H 0.81314 0.01021 0.26286 0.0
H3179 H 0.8302 0.97884 0.26816 0.0
H3180 H 0.93278 1.00256 0.28249 0.0
H3181 H 0.92451 0.03929 0.31482 0.0
H3182 H 0.84501 0.04952 0.28016 0.0
C3183 C 0.86164 0.96565 0.20986 0.0
C3184 C 0.88102 0.94678 0.2015 0.0
C3185 C 0.90686 0.94789 0.21377 0.0
C3186 C 0.91295 0.96662 0.23448 0.0
C3187 C 0.89322 0.98467 0.24247 0.0
C3188 C 0.86822 0.98462 0.23006 0.0
C3189 C 0.85071 0.00655 0.24159 0.0
C3190 C 0.84382 0.02773 0.22073 0.0
C3191 C 0.82507 0.99425 0.25324 0.0
C3192 C 0.86935 0.01854 0.26299 0.0
C3193 C 0.89378 1.00566 0.26334 0.0
C3194 C 0.91379 0.01289 0.28204 0.0
C3195 C 0.90888 0.03382 0.30049 0.0
C3196 C 0.88418 0.04775 0.30023 0.0
C3197 C 0.86426 0.03969 0.28103 0.0
H3198 H 0.21845 0.58978 0.54489 0.0
H3199 H 0.20225 0.67538 0.55145 0.0
H3200 H 0.23614 0.68492 0.51768 0.0
H3201 H 0.29054 0.5988 0.53902 0.0
H3202 H 0.2937 0.57048 0.5167 0.0
H3203 H 0.26715 0.57062 0.54016 0.0
H3204 H 0.23225 0.56307 0.50212 0.0
H3205 H 0.25876 0.56345 0.4786 0.0
H3206 H 0.23133 0.58653 0.47531 0.0
H3207 H 0.27023 0.68465 0.48091 0.0
H3208 H 0.30605 0.67549 0.44911 0.0
H3209 H 0.3044 0.59102 0.47072 0.0
C3210 C 0.22193 0.61051 0.53903 0.0
C3211 C 0.20738 0.63186 0.55048 0.0
C3212 C 0.21301 0.65875 0.54282 0.0
C3213 C 0.23217 0.66432 0.52358 0.0
C3214 C 0.24611 0.64285 0.51257 0.0
C3215 C 0.24162 0.61651 0.52041 0.0
C3216 C 0.26057 0.59734 0.50676 0.0
C3217 C 0.2791 0.5835 0.52686 0.0
C3218 C 0.24478 0.57636 0.48969 0.0
C3219 C 0.27625 0.61696 0.48989 0.0
C3220 C 0.26722 0.64302 0.49311 0.0
C3221 C 0.27767 0.66436 0.47854 0.0
C3222 C 0.29797 0.65897 0.46044 0.0
C3223 C 0.30823 0.6326 0.45748 0.0
C3224 C 0.29718 0.61142 0.4726 0.0
H3225 H 0.72655 0.59326 0.05025 0.0
H3226 H 0.68619 0.66919 0.03795 0.0
H3227 H 0.71443 0.67865 1.00025 0.0
H3228 H 0.79214 0.61619 0.03468 0.0
H3229 H 0.80184 0.58637 0.01674 0.0
H3230 H 0.77721 0.58374 0.04202 0.0
H3231 H 0.74319 0.56137 0.00881 0.0
H3232 H 0.76786 0.56364 0.98349 0.0
H3233 H 0.73527 0.57826 0.97852 0.0
H3234 H 0.74748 0.68218 0.96695 0.0
H3235 H 0.78312 0.67872 0.9353 0.0
H3236 H 0.80474 0.60014 0.96605 0.0
C3237 C 0.72342 0.61147 0.03912 0.0
C3238 C 0.70404 0.63051 0.04675 0.0
C3239 C 0.70073 0.65438 0.0322 0.0
C3240 C 0.71673 0.65995 0.0108 0.0
C3241 C 0.73599 0.6413 1.00399 0.0
C3242 C 0.73938 0.61737 0.01726 0.0
C3243 C 0.76222 0.60141 1.00542 0.0
C3244 C 0.78469 0.59666 0.02595 0.0
C3245 C 0.7515 0.57457 0.99335 0.0
C3246 C 0.77149 0.62065 0.98414 0.0
C3247 C 0.7557 0.64334 0.98387 0.0
C3248 C 0.75979 0.66436 0.96663 0.0
C3249 C 0.78024 0.66209 0.94864 0.0
C3250 C 0.79672 0.63896 0.94779 0.0
C3251 C 0.7925 0.61801 0.96611 0.0
H3252 H 0.60641 0.44987 0.27652 0.0
H3253 H 0.65206 0.49808 0.33403 0.0
H3254 H 0.65886 0.53379 0.30092 0.0
H3255 H 0.64335 0.46884 0.2182 0.0
H3256 H 0.61357 0.47056 0.19751 0.0
H3257 H 0.61435 0.44789 0.22494 0.0
H3258 H 0.57176 0.46982 0.24321 0.0
H3259 H 0.57073 0.49252 0.21587 0.0
H3260 H 0.57145 0.50585 0.24901 0.0
H3261 H 0.66018 0.56477 0.26109 0.0
H3262 H 0.6521 0.59 0.22004 0.0
H3263 H 0.60283 0.52299 0.18941 0.0
C3264 C 0.61814 0.46781 0.28195 0.0
C3265 C 0.62918 0.47107 0.3077 0.0
C3266 C 0.6438 0.49509 0.31432 0.0
C3267 C 0.64775 0.51545 0.29561 0.0
C3268 C 0.63656 0.51176 0.27038 0.0
C3269 C 0.62175 0.48864 0.26364 0.0
C3270 C 0.6101 0.49056 0.23587 0.0
C3271 C 0.621 0.46813 0.21808 0.0
C3272 C 0.57918 0.48965 0.23601 0.0
C3273 C 0.62071 0.51827 0.228 0.0
C3274 C 0.63624 0.53004 0.24803 0.0
C3275 C 0.64807 0.55567 0.2453 0.0
C3276 C 0.64353 0.56983 0.22178 0.0
C3277 C 0.62696 0.55859 0.20127 0.0
C3278 C 0.61571 0.53226 0.20454 0.0
H3279 H 0.78861 0.34365 0.54322 0.0
H3280 H 0.81058 0.42888 0.54561 0.0
H3281 H 0.77671 0.43732 0.51027 0.0
H3282 H 0.77983 0.33897 0.47249 0.0
H3283 H 0.75231 0.31487 0.47393 0.0
H3284 H 0.77774 0.31609 0.49966 0.0
H3285 H 0.74098 0.32265 0.53422 0.0
H3286 H 0.71543 0.3217 0.50859 0.0
H3287 H 0.71805 0.35027 0.53091 0.0
H3288 H 0.73771 0.43638 0.47576 0.0
H3289 H 0.70184 0.42533 0.44239 0.0
H3290 H 0.70845 0.34035 0.46084 0.0
C3291 C 0.78628 0.36413 0.53637 0.0
C3292 C 0.8021 0.38568 0.54744 0.0
C3293 C 0.79872 0.41206 0.5375 0.0
C3294 C 0.77942 0.41705 0.51749 0.0
C3295 C 0.76394 0.39536 0.5072 0.0
C3296 C 0.76757 0.36934 0.51607 0.0
C3297 C 0.74926 0.34931 0.50118 0.0
C3298 C 0.76577 0.32859 0.4859 0.0
C3299 C 0.72978 0.33516 0.51984 0.0
C3300 C 0.7345 0.36808 0.48273 0.0
C3301 C 0.74292 0.39464 0.48663 0.0
C3302 C 0.73125 0.41559 0.4724 0.0
C3303 C 0.71079 0.40918 0.45354 0.0
C3304 C 0.7025 0.38199 0.44871 0.0
C3305 C 0.71458 0.36133 0.4637 0.0
H3306 H 0.927 0.45959 0.72016 0.0
H3307 H 0.84252 0.45108 0.69881 0.0
H3308 H 0.83203 0.4863 0.7323 0.0
H3309 H 0.9176 0.46923 0.79066 0.0
H3310 H 0.94565 0.49267 0.79404 0.0
H3311 H 0.94557 0.46666 0.76894 0.0
H3312 H 0.95281 0.50327 0.73376 0.0
H3313 H 0.95251 0.52936 0.75874 0.0
H3314 H 0.92944 0.53057 0.731 0.0
H3315 H 0.83201 0.52647 0.76777 0.0
H3316 H 0.84186 0.56174 0.80217 0.0
H3317 H 0.92613 0.54128 0.80078 0.0
C3318 C 0.90617 0.46491 0.72256 0.0
C3319 C 0.88559 0.45234 0.70651 0.0
C3320 C 0.85869 0.46004 0.71075 0.0
C3321 C 0.8526 0.48026 0.72973 0.0
C3322 C 0.87353 0.49254 0.74485 0.0
C3323 C 0.89977 0.48465 0.74162 0.0
C3324 C 0.91883 0.5003 0.76032 0.0
C3325 C 0.93273 0.48107 0.77963 0.0
C3326 C 0.93961 0.51685 0.74504 0.0
C3327 C 0.89945 0.51867 0.77442 0.0
C3328 C 0.87337 0.51418 0.76527 0.0
C3329 C 0.85239 0.52972 0.77511 0.0
C3330 C 0.85816 0.54989 0.79471 0.0
C3331 C 0.88473 0.55445 0.80475 0.0
C3332 C 0.90545 0.53839 0.7941 0.0
H3333 H 0.47299 0.29858 0.59145 0.0
H3334 H 0.45271 0.29615 0.67377 0.0
H3335 H 0.48667 0.26082 0.68102 0.0
H3336 H 0.48104 0.22617 0.58409 0.0
H3337 H 0.50814 0.22919 0.56135 0.0
H3338 H 0.4832 0.25507 0.56298 0.0
H3339 H 0.5207 0.29122 0.57157 0.0
H3340 H 0.54579 0.26546 0.5701 0.0
H3341 H 0.54415 0.2872 0.59869 0.0
H3342 H 0.52514 0.22651 0.67953 0.0
H3343 H 0.5602 0.19345 0.66849 0.0
H3344 H 0.55259 0.21521 0.58649 0.0
C3345 C 0.47578 0.29074 0.61106 0.0
C3346 C 0.46022 0.30055 0.63214 0.0
C3347 C 0.46428 0.28919 0.65732 0.0
C3348 C 0.48366 0.2691 0.66163 0.0
C3349 C 0.49868 0.25996 0.64049 0.0
C3350 C 0.49461 0.27016 0.61558 0.0
C3351 C 0.51236 0.25593 0.59591 0.0
C3352 C 0.49516 0.24068 0.57484 0.0
C3353 C 0.5319 0.27616 0.58333 0.0
C3354 C 0.52729 0.23636 0.61363 0.0
C3355 C 0.5194 0.23922 0.63935 0.0
C3356 C 0.53117 0.22397 0.65937 0.0
C3357 C 0.55119 0.20523 0.65294 0.0
C3358 C 0.55907 0.20131 0.6266 0.0
C3359 C 0.54682 0.21729 0.60679 0.0
loop_
_geom_bond_atom_site_label_1
_geom_bond_atom_site_label_2
_geom_bond_distance
_geom_bond_site_symmetry_2
_ccdc_geom_bond_type
Co0 H3 2.400 . S
Co0 O4 2.009 . S
Co0 O12 2.115 . S
Co0 O13 2.315 . S
Co0 O24 2.053 . S
Co0 O27 2.094 . S
Co0 O30 2.122 . S
Co1 O4 2.126 . S
Co1 H5 2.388 . S
Co1 O6 2.053 . S
Co1 O9 2.047 . S
Co1 O15 2.113 . S
Co1 O26 2.063 . S
Co2 H3 2.388 . S
Co2 O4 2.053 . S
Co2 O6 2.126 . S
Co2 O11 2.063 . S
Co2 O25 2.047 . S
Co2 O31 2.113 . S
H3 Co0 2.400 . S
H3 Co2 2.388 . S
H3 O4 0.760 . S
O4 Co0 2.009 . S
O4 Co1 2.126 . S
O4 Co2 2.053 . S
O4 H3 0.760 . S
H5 Co1 2.388 . S
H5 O6 0.760 . S
H5 Co7 2.400 . S
O6 Co1 2.053 . S
O6 Co2 2.126 . S
O6 H5 0.760 . S
O6 Co7 2.009 . S
Co7 H5 2.400 . S
Co7 O6 2.009 . S
Co7 O8 2.053 . S
Co7 O10 2.094 . S
Co7 O14 2.122 . S
Co7 O28 2.115 . S
Co7 O29 2.315 . S
O8 Co7 2.053 . S
O8 C20 1.259 . S
O9 Co1 2.047 . S
O9 C20 1.257 . S
O10 Co7 2.094 . S
O10 C21 1.253 . S
O11 Co2 2.063 . S
O11 C21 1.268 . S
O12 Co0 2.115 . S
O12 C22 1.281 . S
O13 Co0 2.315 . S
O13 C22 1.252 . S
O14 Co7 2.122 . S
O14 C23 1.272 . S
O15 Co1 2.113 . S
O15 C23 1.245 . S
C16 O24 1.259 . S
C16 O25 1.257 . S
C17 O26 1.268 . S
C17 O27 1.253 . S
C18 O28 1.281 . S
C18 O29 1.252 . S
C19 O30 1.272 . S
C19 O31 1.245 . S
C20 O8 1.259 . S
C20 O9 1.257 . S
C21 O10 1.253 . S
C21 O11 1.268 . S
C22 O12 1.281 . S
C22 O13 1.252 . S
C23 O14 1.272 . S
C23 O15 1.245 . S
O24 Co0 2.053 . S
O24 C16 1.259 . S
O25 Co2 2.047 . S
O25 C16 1.257 . S
O26 Co1 2.063 . S
O26 C17 1.268 . S
O27 Co0 2.094 . S
O27 C17 1.253 . S
O28 Co7 2.115 . S
O28 C18 1.281 . S
O29 Co7 2.315 . S
O29 C18 1.252 . S
O30 Co0 2.122 . S
O30 C19 1.272 . S
O31 Co2 2.113 . S
O31 C19 1.245 . S
Co32 H35 2.400 . S
Co32 O36 2.009 . S
Co32 O44 2.115 . S
Co32 O45 2.315 . S
Co32 O56 2.053 . S
Co32 O59 2.094 . S
Co32 O62 2.122 . S
Co33 O36 2.126 . S
Co33 H37 2.388 . S
Co33 O38 2.053 . S
Co33 O41 2.047 . S
Co33 O47 2.113 . S
Co33 O58 2.063 . S
Co34 H35 2.388 . S
Co34 O36 2.053 . S
Co34 O38 2.126 . S
Co34 O43 2.063 . S
Co34 O57 2.047 . S
Co34 O63 2.113 . S
H35 Co32 2.400 . S
H35 Co34 2.388 . S
H35 O36 0.760 . S
O36 Co32 2.009 . S
O36 Co33 2.126 . S
O36 Co34 2.053 . S
O36 H35 0.760 . S
H37 Co33 2.388 . S
H37 O38 0.760 . S
H37 Co39 2.400 . S
O38 Co33 2.053 . S
O38 Co34 2.126 . S
O38 H37 0.760 . S
O38 Co39 2.009 . S
Co39 H37 2.400 . S
Co39 O38 2.009 . S
Co39 O40 2.053 . S
Co39 O42 2.094 . S
Co39 O46 2.122 . S
Co39 O60 2.115 . S
Co39 O61 2.315 . S
O40 Co39 2.053 . S
O40 C52 1.259 . S
O41 Co33 2.047 . S
O41 C52 1.257 . S
O42 Co39 2.094 . S
O42 C53 1.253 . S
O43 Co34 2.063 . S
O43 C53 1.268 . S
O44 Co32 2.115 . S
O44 C54 1.281 . S
O45 Co32 2.315 . S
O45 C54 1.252 . S
O46 Co39 2.122 . S
O46 C55 1.272 . S
O47 Co33 2.113 . S
O47 C55 1.245 . S
C48 O56 1.259 . S
C48 O57 1.257 . S
C49 O58 1.268 . S
C49 O59 1.253 . S
C50 O60 1.281 . S
C50 O61 1.252 . S
C51 O62 1.272 . S
C51 O63 1.245 . S
C52 O40 1.259 . S
C52 O41 1.257 . S
C53 O42 1.253 . S
C53 O43 1.268 . S
C54 O44 1.281 . S
C54 O45 1.252 . S
C55 O46 1.272 . S
C55 O47 1.245 . S
O56 Co32 2.053 . S
O56 C48 1.259 . S
O57 Co34 2.047 . S
O57 C48 1.257 . S
O58 Co33 2.063 . S
O58 C49 1.268 . S
O59 Co32 2.094 . S
O59 C49 1.253 . S
O60 Co39 2.115 . S
O60 C50 1.281 . S
O61 Co39 2.315 . S
O61 C50 1.252 . S
O62 Co32 2.122 . S
O62 C51 1.272 . S
O63 Co34 2.113 . S
O63 C51 1.245 . S
Co64 H67 2.400 . S
Co64 O68 2.009 . S
Co64 O76 2.115 . S
Co64 O77 2.315 . S
Co64 O88 2.053 . S
Co64 O91 2.094 . S
Co64 O94 2.122 . S
Co65 O68 2.126 . S
Co65 H69 2.388 . S
Co65 O70 2.053 . S
Co65 O73 2.047 . S
Co65 O79 2.113 . S
Co65 O90 2.063 . S
Co66 H67 2.388 . S
Co66 O68 2.053 . S
Co66 O70 2.126 . S
Co66 O75 2.063 . S
Co66 O89 2.047 . S
Co66 O95 2.113 . S
H67 Co64 2.400 . S
H67 Co66 2.388 . S
H67 O68 0.760 . S
O68 Co64 2.009 . S
O68 Co65 2.126 . S
O68 Co66 2.053 . S
O68 H67 0.760 . S
H69 Co65 2.388 . S
H69 O70 0.760 . S
H69 Co71 2.400 . S
O70 Co65 2.053 . S
O70 Co66 2.126 . S
O70 H69 0.760 . S
O70 Co71 2.009 . S
Co71 H69 2.400 . S
Co71 O70 2.009 . S
Co71 O72 2.053 . S
Co71 O74 2.094 . S
Co71 O78 2.122 . S
Co71 O92 2.115 . S
Co71 O93 2.315 . S
O72 Co71 2.053 . S
O72 C84 1.259 . S
O73 Co65 2.047 . S
O73 C84 1.257 . S
O74 Co71 2.094 . S
O74 C85 1.253 . S
O75 Co66 2.063 . S
O75 C85 1.268 . S
O76 Co64 2.115 . S
O76 C86 1.281 . S
O77 Co64 2.315 . S
O77 C86 1.252 . S
O78 Co71 2.122 . S
O78 C87 1.272 . S
O79 Co65 2.113 . S
O79 C87 1.245 . S
C80 O88 1.259 . S
C80 O89 1.257 . S
C81 O90 1.268 . S
C81 O91 1.253 . S
C82 O92 1.281 . S
C82 O93 1.252 . S
C83 O94 1.272 . S
C83 O95 1.245 . S
C84 O72 1.259 . S
C84 O73 1.257 . S
C85 O74 1.253 . S
C85 O75 1.268 . S
C86 O76 1.281 . S
C86 O77 1.252 . S
C87 O78 1.272 . S
C87 O79 1.245 . S
O88 Co64 2.053 . S
O88 C80 1.259 . S
O89 Co66 2.047 . S
O89 C80 1.257 . S
O90 Co65 2.063 . S
O90 C81 1.268 . S
O91 Co64 2.094 . S
O91 C81 1.253 . S
O92 Co71 2.115 . S
O92 C82 1.281 . S
O93 Co71 2.315 . S
O93 C82 1.252 . S
O94 Co64 2.122 . S
O94 C83 1.272 . S
O95 Co66 2.113 . S
O95 C83 1.245 . S
Co96 H99 2.400 . S
Co96 O100 2.009 . S
Co96 O108 2.115 . S
Co96 O109 2.315 . S
Co96 O120 2.053 . S
Co96 O123 2.094 . S
Co96 O126 2.122 . S
Co97 O100 2.126 . S
Co97 H101 2.388 . S
Co97 O102 2.053 . S
Co97 O105 2.047 . S
Co97 O111 2.113 . S
Co97 O122 2.063 . S
Co98 H99 2.388 . S
Co98 O100 2.053 . S
Co98 O102 2.126 . S
Co98 O107 2.063 . S
Co98 O121 2.047 . S
Co98 O127 2.113 . S
H99 Co96 2.400 . S
H99 Co98 2.388 . S
H99 O100 0.760 . S
O100 Co96 2.009 . S
O100 Co97 2.126 . S
O100 Co98 2.053 . S
O100 H99 0.760 . S
H101 Co97 2.388 . S
H101 O102 0.760 . S
H101 Co103 2.400 . S
O102 Co97 2.053 . S
O102 Co98 2.126 . S
O102 H101 0.760 . S
O102 Co103 2.009 . S
Co103 H101 2.400 . S
Co103 O102 2.009 . S
Co103 O104 2.053 . S
Co103 O106 2.094 . S
Co103 O110 2.122 . S
Co103 O124 2.115 . S
Co103 O125 2.315 . S
O104 Co103 2.053 . S
O104 C116 1.259 . S
O105 Co97 2.047 . S
O105 C116 1.257 . S
O106 Co103 2.094 . S
O106 C117 1.253 . S
O107 Co98 2.063 . S
O107 C117 1.268 . S
O108 Co96 2.115 . S
O108 C118 1.281 . S
O109 Co96 2.315 . S
O109 C118 1.252 . S
O110 Co103 2.122 . S
O110 C119 1.272 . S
O111 Co97 2.113 . S
O111 C119 1.245 . S
C112 O120 1.259 . S
C112 O121 1.257 . S
C113 O122 1.268 . S
C113 O123 1.253 . S
C114 O124 1.281 . S
C114 O125 1.252 . S
C115 O126 1.272 . S
C115 O127 1.245 . S
C116 O104 1.259 . S
C116 O105 1.257 . S
C117 O106 1.253 . S
C117 O107 1.268 . S
C118 O108 1.281 . S
C118 O109 1.252 . S
C119 O110 1.272 . S
C119 O111 1.245 . S
O120 Co96 2.053 . S
O120 C112 1.259 . S
O121 Co98 2.047 . S
O121 C112 1.257 . S
O122 Co97 2.063 . S
O122 C113 1.268 . S
O123 Co96 2.094 . S
O123 C113 1.253 . S
O124 Co103 2.115 . S
O124 C114 1.281 . S
O125 Co103 2.315 . S
O125 C114 1.252 . S
O126 Co96 2.122 . S
O126 C115 1.272 . S
O127 Co98 2.113 . S
O127 C115 1.245 . S
Co128 H131 2.400 . S
Co128 O132 2.009 . S
Co128 O140 2.115 . S
Co128 O141 2.315 . S
Co128 O152 2.053 . S
Co128 O155 2.094 . S
Co128 O158 2.122 . S
Co129 O132 2.126 . S
Co129 H133 2.388 . S
Co129 O134 2.053 . S
Co129 O137 2.047 . S
Co129 O143 2.113 . S
Co129 O154 2.063 . S
Co130 H131 2.388 . S
Co130 O132 2.053 . S
Co130 O134 2.126 . S
Co130 O139 2.063 . S
Co130 O153 2.047 . S
Co130 O159 2.113 . S
H131 Co128 2.400 . S
H131 Co130 2.388 . S
H131 O132 0.760 . S
O132 Co128 2.009 . S
O132 Co129 2.126 . S
O132 Co130 2.053 . S
O132 H131 0.760 . S
H133 Co129 2.388 . S
H133 O134 0.760 . S
H133 Co135 2.400 . S
O134 Co129 2.053 . S
O134 Co130 2.126 . S
O134 H133 0.760 . S
O134 Co135 2.009 . S
Co135 H133 2.400 . S
Co135 O134 2.009 . S
Co135 O136 2.053 . S
Co135 O138 2.094 . S
Co135 O142 2.122 . S
Co135 O156 2.115 . S
Co135 O157 2.315 . S
O136 Co135 2.053 . S
O136 C148 1.259 . S
O137 Co129 2.047 . S
O137 C148 1.257 . S
O138 Co135 2.094 . S
O138 C149 1.253 . S
O139 Co130 2.063 . S
O139 C149 1.268 . S
O140 Co128 2.115 . S
O140 C150 1.281 . S
O141 Co128 2.315 . S
O141 C150 1.252 . S
O142 Co135 2.122 . S
O142 C151 1.272 . S
O143 Co129 2.113 . S
O143 C151 1.245 . S
C144 O152 1.259 . S
C144 O153 1.257 . S
C145 O154 1.268 . S
C145 O155 1.253 . S
C146 O156 1.281 . S
C146 O157 1.252 . S
C147 O158 1.272 . S
C147 O159 1.245 . S
C148 O136 1.259 . S
C148 O137 1.257 . S
C149 O138 1.253 . S
C149 O139 1.268 . S
C150 O140 1.281 . S
C150 O141 1.252 . S
C151 O142 1.272 . S
C151 O143 1.245 . S
O152 Co128 2.053 . S
O152 C144 1.259 . S
O153 Co130 2.047 . S
O153 C144 1.257 . S
O154 Co129 2.063 . S
O154 C145 1.268 . S
O155 Co128 2.094 . S
O155 C145 1.253 . S
O156 Co135 2.115 . S
O156 C146 1.281 . S
O157 Co135 2.315 . S
O157 C146 1.252 . S
O158 Co128 2.122 . S
O158 C147 1.272 . S
O159 Co130 2.113 . S
O159 C147 1.245 . S
Co160 H163 2.400 . S
Co160 O164 2.009 . S
Co160 O172 2.115 . S
Co160 O173 2.315 . S
Co160 O184 2.053 . S
Co160 O187 2.094 . S
Co160 O190 2.122 . S
Co161 O164 2.126 . S
Co161 H165 2.388 . S
Co161 O166 2.053 . S
Co161 O169 2.047 . S
Co161 O175 2.113 . S
Co161 O186 2.063 . S
Co162 H163 2.388 . S
Co162 O164 2.053 . S
Co162 O166 2.126 . S
Co162 O171 2.063 . S
Co162 O185 2.047 . S
Co162 O191 2.113 . S
H163 Co160 2.400 . S
H163 Co162 2.388 . S
H163 O164 0.760 . S
O164 Co160 2.009 . S
O164 Co161 2.126 . S
O164 Co162 2.053 . S
O164 H163 0.760 . S
H165 Co161 2.388 . S
H165 O166 0.760 . S
H165 Co167 2.400 . S
O166 Co161 2.053 . S
O166 Co162 2.126 . S
O166 H165 0.760 . S
O166 Co167 2.009 . S
Co167 H165 2.400 . S
Co167 O166 2.009 . S
Co167 O168 2.053 . S
Co167 O170 2.094 . S
Co167 O174 2.122 . S
Co167 O188 2.115 . S
Co167 O189 2.315 . S
O168 Co167 2.053 . S
O168 C180 1.259 . S
O169 Co161 2.047 . S
O169 C180 1.257 . S
O170 Co167 2.094 . S
O170 C181 1.253 . S
O171 Co162 2.063 . S
O171 C181 1.268 . S
O172 Co160 2.115 . S
O172 C182 1.281 . S
O173 Co160 2.315 . S
O173 C182 1.252 . S
O174 Co167 2.122 . S
O174 C183 1.272 . S
O175 Co161 2.113 . S
O175 C183 1.245 . S
C176 O184 1.259 . S
C176 O185 1.257 . S
C177 O186 1.268 . S
C177 O187 1.253 . S
C178 O188 1.281 . S
C178 O189 1.252 . S
C179 O190 1.272 . S
C179 O191 1.245 . S
C180 O168 1.259 . S
C180 O169 1.257 . S
C181 O170 1.253 . S
C181 O171 1.268 . S
C182 O172 1.281 . S
C182 O173 1.252 . S
C183 O174 1.272 . S
C183 O175 1.245 . S
O184 Co160 2.053 . S
O184 C176 1.259 . S
O185 Co162 2.047 . S
O185 C176 1.257 . S
O186 Co161 2.063 . S
O186 C177 1.268 . S
O187 Co160 2.094 . S
O187 C177 1.253 . S
O188 Co167 2.115 . S
O188 C178 1.281 . S
O189 Co167 2.315 . S
O189 C178 1.252 . S
O190 Co160 2.122 . S
O190 C179 1.272 . S
O191 Co162 2.113 . S
O191 C179 1.245 . S
Co192 H195 2.400 . S
Co192 O196 2.009 . S
Co192 O204 2.115 . S
Co192 O205 2.315 . S
Co192 O216 2.053 . S
Co192 O219 2.094 . S
Co192 O222 2.122 . S
Co193 O196 2.126 . S
Co193 H197 2.388 . S
Co193 O198 2.053 . S
Co193 O201 2.047 . S
Co193 O207 2.113 . S
Co193 O218 2.063 . S
Co194 H195 2.388 . S
Co194 O196 2.053 . S
Co194 O198 2.126 . S
Co194 O203 2.063 . S
Co194 O217 2.047 . S
Co194 O223 2.113 . S
H195 Co192 2.400 . S
H195 Co194 2.388 . S
H195 O196 0.760 . S
O196 Co192 2.009 . S
O196 Co193 2.126 . S
O196 Co194 2.053 . S
O196 H195 0.760 . S
H197 Co193 2.388 . S
H197 O198 0.760 . S
H197 Co199 2.400 . S
O198 Co193 2.053 . S
O198 Co194 2.126 . S
O198 H197 0.760 . S
O198 Co199 2.009 . S
Co199 H197 2.400 . S
Co199 O198 2.009 . S
Co199 O200 2.053 . S
Co199 O202 2.094 . S
Co199 O206 2.122 . S
Co199 O220 2.115 . S
Co199 O221 2.315 . S
O200 Co199 2.053 . S
O200 C212 1.259 . S
O201 Co193 2.047 . S
O201 C212 1.257 . S
O202 Co199 2.094 . S
O202 C213 1.253 . S
O203 Co194 2.063 . S
O203 C213 1.268 . S
O204 Co192 2.115 . S
O204 C214 1.281 . S
O205 Co192 2.315 . S
O205 C214 1.252 . S
O206 Co199 2.122 . S
O206 C215 1.272 . S
O207 Co193 2.113 . S
O207 C215 1.245 . S
C208 O216 1.259 . S
C208 O217 1.257 . S
C209 O218 1.268 . S
C209 O219 1.253 . S
C210 O220 1.281 . S
C210 O221 1.252 . S
C211 O222 1.272 . S
C211 O223 1.245 . S
C212 O200 1.259 . S
C212 O201 1.257 . S
C213 O202 1.253 . S
C213 O203 1.268 . S
C214 O204 1.281 . S
C214 O205 1.252 . S
C215 O206 1.272 . S
C215 O207 1.245 . S
O216 Co192 2.053 . S
O216 C208 1.259 . S
O217 Co194 2.047 . S
O217 C208 1.257 . S
O218 Co193 2.063 . S
O218 C209 1.268 . S
O219 Co192 2.094 . S
O219 C209 1.253 . S
O220 Co199 2.115 . S
O220 C210 1.281 . S
O221 Co199 2.315 . S
O221 C210 1.252 . S
O222 Co192 2.122 . S
O222 C211 1.272 . S
O223 Co194 2.113 . S
O223 C211 1.245 . S
Co224 H227 2.400 . S
Co224 O228 2.009 . S
Co224 O236 2.115 . S
Co224 O237 2.315 . S
Co224 O248 2.053 . S
Co224 O251 2.094 . S
Co224 O254 2.122 . S
Co225 O228 2.126 . S
Co225 H229 2.388 . S
Co225 O230 2.053 . S
Co225 O233 2.047 . S
Co225 O239 2.113 . S
Co225 O250 2.063 . S
Co226 H227 2.388 . S
Co226 O228 2.053 . S
Co226 O230 2.126 . S
Co226 O235 2.063 . S
Co226 O249 2.047 . S
Co226 O255 2.113 . S
H227 Co224 2.400 . S
H227 Co226 2.388 . S
H227 O228 0.760 . S
O228 Co224 2.009 . S
O228 Co225 2.126 . S
O228 Co226 2.053 . S
O228 H227 0.760 . S
H229 Co225 2.388 . S
H229 O230 0.760 . S
H229 Co231 2.400 . S
O230 Co225 2.053 . S
O230 Co226 2.126 . S
O230 H229 0.760 . S
O230 Co231 2.009 . S
Co231 H229 2.400 . S
Co231 O230 2.009 . S
Co231 O232 2.053 . S
Co231 O234 2.094 . S
Co231 O238 2.122 . S
Co231 O252 2.115 . S
Co231 O253 2.315 . S
O232 Co231 2.053 . S
O232 C244 1.259 . S
O233 Co225 2.047 . S
O233 C244 1.257 . S
O234 Co231 2.094 . S
O234 C245 1.253 . S
O235 Co226 2.063 . S
O235 C245 1.268 . S
O236 Co224 2.115 . S
O236 C246 1.281 . S
O237 Co224 2.315 . S
O237 C246 1.252 . S
O238 Co231 2.122 . S
O238 C247 1.272 . S
O239 Co225 2.113 . S
O239 C247 1.245 . S
C240 O248 1.259 . S
C240 O249 1.257 . S
C241 O250 1.268 . S
C241 O251 1.253 . S
C242 O252 1.281 . S
C242 O253 1.252 . S
C243 O254 1.272 . S
C243 O255 1.245 . S
C244 O232 1.259 . S
C244 O233 1.257 . S
C245 O234 1.253 . S
C245 O235 1.268 . S
C246 O236 1.281 . S
C246 O237 1.252 . S
C247 O238 1.272 . S
C247 O239 1.245 . S
O248 Co224 2.053 . S
O248 C240 1.259 . S
O249 Co226 2.047 . S
O249 C240 1.257 . S
O250 Co225 2.063 . S
O250 C241 1.268 . S
O251 Co224 2.094 . S
O251 C241 1.253 . S
O252 Co231 2.115 . S
O252 C242 1.281 . S
O253 Co231 2.315 . S
O253 C242 1.252 . S
O254 Co224 2.122 . S
O254 C243 1.272 . S
O255 Co226 2.113 . S
O255 C243 1.245 . S
Co256 H259 2.400 . S
Co256 O260 2.009 . S
Co256 O268 2.115 . S
Co256 O269 2.315 . S
Co256 O280 2.053 . S
Co256 O283 2.094 . S
Co256 O286 2.122 . S
Co257 O260 2.126 . S
Co257 H261 2.388 . S
Co257 O262 2.053 . S
Co257 O265 2.047 . S
Co257 O271 2.113 . S
Co257 O282 2.063 . S
Co258 H259 2.388 . S
Co258 O260 2.053 . S
Co258 O262 2.126 . S
Co258 O267 2.063 . S
Co258 O281 2.047 . S
Co258 O287 2.113 . S
H259 Co256 2.400 . S
H259 Co258 2.388 . S
H259 O260 0.760 . S
O260 Co256 2.009 . S
O260 Co257 2.126 . S
O260 Co258 2.053 . S
O260 H259 0.760 . S
H261 Co257 2.388 . S
H261 O262 0.760 . S
H261 Co263 2.400 . S
O262 Co257 2.053 . S
O262 Co258 2.126 . S
O262 H261 0.760 . S
O262 Co263 2.009 . S
Co263 H261 2.400 . S
Co263 O262 2.009 . S
Co263 O264 2.053 . S
Co263 O266 2.094 . S
Co263 O270 2.122 . S
Co263 O284 2.115 . S
Co263 O285 2.315 . S
O264 Co263 2.053 . S
O264 C276 1.259 . S
O265 Co257 2.047 . S
O265 C276 1.257 . S
O266 Co263 2.094 . S
O266 C277 1.253 . S
O267 Co258 2.063 . S
O267 C277 1.268 . S
O268 Co256 2.115 . S
O268 C278 1.281 . S
O269 Co256 2.315 . S
O269 C278 1.252 . S
O270 Co263 2.122 . S
O270 C279 1.272 . S
O271 Co257 2.113 . S
O271 C279 1.245 . S
C272 O280 1.259 . S
C272 O281 1.257 . S
C273 O282 1.268 . S
C273 O283 1.253 . S
C274 O284 1.281 . S
C274 O285 1.252 . S
C275 O286 1.272 . S
C275 O287 1.245 . S
C276 O264 1.259 . S
C276 O265 1.257 . S
C277 O266 1.253 . S
C277 O267 1.268 . S
C278 O268 1.281 . S
C278 O269 1.252 . S
C279 O270 1.272 . S
C279 O271 1.245 . S
O280 Co256 2.053 . S
O280 C272 1.259 . S
O281 Co258 2.047 . S
O281 C272 1.257 . S
O282 Co257 2.063 . S
O282 C273 1.268 . S
O283 Co256 2.094 . S
O283 C273 1.253 . S
O284 Co263 2.115 . S
O284 C274 1.281 . S
O285 Co263 2.315 . S
O285 C274 1.252 . S
O286 Co256 2.122 . S
O286 C275 1.272 . S
O287 Co258 2.113 . S
O287 C275 1.245 . S
Co288 H291 2.400 . S
Co288 O292 2.009 . S
Co288 O300 2.115 . S
Co288 O301 2.315 . S
Co288 O312 2.053 . S
Co288 O315 2.094 . S
Co288 O318 2.122 . S
Co289 O292 2.126 . S
Co289 H293 2.388 . S
Co289 O294 2.053 . S
Co289 O297 2.047 . S
Co289 O303 2.113 . S
Co289 O314 2.063 . S
Co290 H291 2.388 . S
Co290 O292 2.053 . S
Co290 O294 2.126 . S
Co290 O299 2.063 . S
Co290 O313 2.047 . S
Co290 O319 2.113 . S
H291 Co288 2.400 . S
H291 Co290 2.388 . S
H291 O292 0.760 . S
O292 Co288 2.009 . S
O292 Co289 2.126 . S
O292 Co290 2.053 . S
O292 H291 0.760 . S
H293 Co289 2.388 . S
H293 O294 0.760 . S
H293 Co295 2.400 . S
O294 Co289 2.053 . S
O294 Co290 2.126 . S
O294 H293 0.760 . S
O294 Co295 2.009 . S
Co295 H293 2.400 . S
Co295 O294 2.009 . S
Co295 O296 2.053 . S
Co295 O298 2.094 . S
Co295 O302 2.122 . S
Co295 O316 2.115 . S
Co295 O317 2.315 . S
O296 Co295 2.053 . S
O296 C308 1.259 . S
O297 Co289 2.047 . S
O297 C308 1.257 . S
O298 Co295 2.094 . S
O298 C309 1.253 . S
O299 Co290 2.063 . S
O299 C309 1.268 . S
O300 Co288 2.115 . S
O300 C310 1.281 . S
O301 Co288 2.315 . S
O301 C310 1.252 . S
O302 Co295 2.122 . S
O302 C311 1.272 . S
O303 Co289 2.113 . S
O303 C311 1.245 . S
C304 O312 1.259 . S
C304 O313 1.257 . S
C305 O314 1.268 . S
C305 O315 1.253 . S
C306 O316 1.281 . S
C306 O317 1.252 . S
C307 O318 1.272 . S
C307 O319 1.245 . S
C308 O296 1.259 . S
C308 O297 1.257 . S
C309 O298 1.253 . S
C309 O299 1.268 . S
C310 O300 1.281 . S
C310 O301 1.252 . S
C311 O302 1.272 . S
C311 O303 1.245 . S
O312 Co288 2.053 . S
O312 C304 1.259 . S
O313 Co290 2.047 . S
O313 C304 1.257 . S
O314 Co289 2.063 . S
O314 C305 1.268 . S
O315 Co288 2.094 . S
O315 C305 1.253 . S
O316 Co295 2.115 . S
O316 C306 1.281 . S
O317 Co295 2.315 . S
O317 C306 1.252 . S
O318 Co288 2.122 . S
O318 C307 1.272 . S
O319 Co290 2.113 . S
O319 C307 1.245 . S
Co320 H323 2.400 . S
Co320 O324 2.009 . S
Co320 O332 2.115 . S
Co320 O333 2.315 . S
Co320 O344 2.053 . S
Co320 O347 2.094 . S
Co320 O350 2.122 . S
Co321 O324 2.126 . S
Co321 H325 2.388 . S
Co321 O326 2.053 . S
Co321 O329 2.047 . S
Co321 O335 2.113 . S
Co321 O346 2.063 . S
Co322 H323 2.388 . S
Co322 O324 2.053 . S
Co322 O326 2.126 . S
Co322 O331 2.063 . S
Co322 O345 2.047 . S
Co322 O351 2.113 . S
H323 Co320 2.400 . S
H323 Co322 2.388 . S
H323 O324 0.760 . S
O324 Co320 2.009 . S
O324 Co321 2.126 . S
O324 Co322 2.053 . S
O324 H323 0.760 . S
H325 Co321 2.388 . S
H325 O326 0.760 . S
H325 Co327 2.400 . S
O326 Co321 2.053 . S
O326 Co322 2.126 . S
O326 H325 0.760 . S
O326 Co327 2.009 . S
Co327 H325 2.400 . S
Co327 O326 2.009 . S
Co327 O328 2.053 . S
Co327 O330 2.094 . S
Co327 O334 2.122 . S
Co327 O348 2.115 . S
Co327 O349 2.315 . S
O328 Co327 2.053 . S
O328 C340 1.259 . S
O329 Co321 2.047 . S
O329 C340 1.257 . S
O330 Co327 2.094 . S
O330 C341 1.253 . S
O331 Co322 2.063 . S
O331 C341 1.268 . S
O332 Co320 2.115 . S
O332 C342 1.281 . S
O333 Co320 2.315 . S
O333 C342 1.252 . S
O334 Co327 2.122 . S
O334 C343 1.272 . S
O335 Co321 2.113 . S
O335 C343 1.245 . S
C336 O344 1.259 . S
C336 O345 1.257 . S
C337 O346 1.268 . S
C337 O347 1.253 . S
C338 O348 1.281 . S
C338 O349 1.252 . S
C339 O350 1.272 . S
C339 O351 1.245 . S
C340 O328 1.259 . S
C340 O329 1.257 . S
C341 O330 1.253 . S
C341 O331 1.268 . S
C342 O332 1.281 . S
C342 O333 1.252 . S
C343 O334 1.272 . S
C343 O335 1.245 . S
O344 Co320 2.053 . S
O344 C336 1.259 . S
O345 Co322 2.047 . S
O345 C336 1.257 . S
O346 Co321 2.063 . S
O346 C337 1.268 . S
O347 Co320 2.094 . S
O347 C337 1.253 . S
O348 Co327 2.115 . S
O348 C338 1.281 . S
O349 Co327 2.315 . S
O349 C338 1.252 . S
O350 Co320 2.122 . S
O350 C339 1.272 . S
O351 Co322 2.113 . S
O351 C339 1.245 . S
Co352 H355 2.400 . S
Co352 O356 2.009 . S
Co352 O364 2.115 . S
Co352 O365 2.315 . S
Co352 O376 2.053 . S
Co352 O379 2.094 . S
Co352 O382 2.122 . S
Co353 O356 2.126 . S
Co353 H357 2.388 . S
Co353 O358 2.053 . S
Co353 O361 2.047 . S
Co353 O367 2.113 . S
Co353 O378 2.063 . S
Co354 H355 2.388 . S
Co354 O356 2.053 . S
Co354 O358 2.126 . S
Co354 O363 2.063 . S
Co354 O377 2.047 . S
Co354 O383 2.113 . S
H355 Co352 2.400 . S
H355 Co354 2.388 . S
H355 O356 0.760 . S
O356 Co352 2.009 . S
O356 Co353 2.126 . S
O356 Co354 2.053 . S
O356 H355 0.760 . S
H357 Co353 2.388 . S
H357 O358 0.760 . S
H357 Co359 2.400 . S
O358 Co353 2.053 . S
O358 Co354 2.126 . S
O358 H357 0.760 . S
O358 Co359 2.009 . S
Co359 H357 2.400 . S
Co359 O358 2.009 . S
Co359 O360 2.053 . S
Co359 O362 2.094 . S
Co359 O366 2.122 . S
Co359 O380 2.115 . S
Co359 O381 2.315 . S
O360 Co359 2.053 . S
O360 C372 1.259 . S
O361 Co353 2.047 . S
O361 C372 1.257 . S
O362 Co359 2.094 . S
O362 C373 1.253 . S
O363 Co354 2.063 . S
O363 C373 1.268 . S
O364 Co352 2.115 . S
O364 C374 1.281 . S
O365 Co352 2.315 . S
O365 C374 1.252 . S
O366 Co359 2.122 . S
O366 C375 1.272 . S
O367 Co353 2.113 . S
O367 C375 1.245 . S
C368 O376 1.259 . S
C368 O377 1.257 . S
C369 O378 1.268 . S
C369 O379 1.253 . S
C370 O380 1.281 . S
C370 O381 1.252 . S
C371 O382 1.272 . S
C371 O383 1.245 . S
C372 O360 1.259 . S
C372 O361 1.257 . S
C373 O362 1.253 . S
C373 O363 1.268 . S
C374 O364 1.281 . S
C374 O365 1.252 . S
C375 O366 1.272 . S
C375 O367 1.245 . S
O376 Co352 2.053 . S
O376 C368 1.259 . S
O377 Co354 2.047 . S
O377 C368 1.257 . S
O378 Co353 2.063 . S
O378 C369 1.268 . S
O379 Co352 2.094 . S
O379 C369 1.253 . S
O380 Co359 2.115 . S
O380 C370 1.281 . S
O381 Co359 2.315 . S
O381 C370 1.252 . S
O382 Co352 2.122 . S
O382 C371 1.272 . S
O383 Co354 2.113 . S
O383 C371 1.245 . S
Co384 H387 2.400 . S
Co384 O388 2.009 . S
Co384 O396 2.115 . S
Co384 O397 2.315 . S
Co384 O408 2.053 . S
Co384 O411 2.094 . S
Co384 O414 2.122 . S
Co385 O388 2.126 . S
Co385 H389 2.388 . S
Co385 O390 2.053 . S
Co385 O393 2.047 . S
Co385 O399 2.113 . S
Co385 O410 2.063 . S
Co386 H387 2.388 . S
Co386 O388 2.053 . S
Co386 O390 2.126 . S
Co386 O395 2.063 . S
Co386 O409 2.047 . S
Co386 O415 2.113 . S
H387 Co384 2.400 . S
H387 Co386 2.388 . S
H387 O388 0.760 . S
O388 Co384 2.009 . S
O388 Co385 2.126 . S
O388 Co386 2.053 . S
O388 H387 0.760 . S
H389 Co385 2.388 . S
H389 O390 0.760 . S
H389 Co391 2.400 . S
O390 Co385 2.053 . S
O390 Co386 2.126 . S
O390 H389 0.760 . S
O390 Co391 2.009 . S
Co391 H389 2.400 . S
Co391 O390 2.009 . S
Co391 O392 2.053 . S
Co391 O394 2.094 . S
Co391 O398 2.122 . S
Co391 O412 2.115 . S
Co391 O413 2.315 . S
O392 Co391 2.053 . S
O392 C404 1.259 . S
O393 Co385 2.047 . S
O393 C404 1.257 . S
O394 Co391 2.094 . S
O394 C405 1.253 . S
O395 Co386 2.063 . S
O395 C405 1.268 . S
O396 Co384 2.115 . S
O396 C406 1.281 . S
O397 Co384 2.315 . S
O397 C406 1.252 . S
O398 Co391 2.122 . S
O398 C407 1.272 . S
O399 Co385 2.113 . S
O399 C407 1.245 . S
C400 O408 1.259 . S
C400 O409 1.257 . S
C401 O410 1.268 . S
C401 O411 1.253 . S
C402 O412 1.281 . S
C402 O413 1.252 . S
C403 O414 1.272 . S
C403 O415 1.245 . S
C404 O392 1.259 . S
C404 O393 1.257 . S
C405 O394 1.253 . S
C405 O395 1.268 . S
C406 O396 1.281 . S
C406 O397 1.252 . S
C407 O398 1.272 . S
C407 O399 1.245 . S
O408 Co384 2.053 . S
O408 C400 1.259 . S
O409 Co386 2.047 . S
O409 C400 1.257 . S
O410 Co385 2.063 . S
O410 C401 1.268 . S
O411 Co384 2.094 . S
O411 C401 1.253 . S
O412 Co391 2.115 . S
O412 C402 1.281 . S
O413 Co391 2.315 . S
O413 C402 1.252 . S
O414 Co384 2.122 . S
O414 C403 1.272 . S
O415 Co386 2.113 . S
O415 C403 1.245 . S
Co416 H419 2.400 . S
Co416 O420 2.009 . S
Co416 O428 2.115 . S
Co416 O429 2.315 . S
Co416 O440 2.053 . S
Co416 O443 2.094 . S
Co416 O446 2.122 . S
Co417 O420 2.126 . S
Co417 H421 2.388 . S
Co417 O422 2.053 . S
Co417 O425 2.047 . S
Co417 O431 2.113 . S
Co417 O442 2.063 . S
Co418 H419 2.388 . S
Co418 O420 2.053 . S
Co418 O422 2.126 . S
Co418 O427 2.063 . S
Co418 O441 2.047 . S
Co418 O447 2.113 . S
H419 Co416 2.400 . S
H419 Co418 2.388 . S
H419 O420 0.760 . S
O420 Co416 2.009 . S
O420 Co417 2.126 . S
O420 Co418 2.053 . S
O420 H419 0.760 . S
H421 Co417 2.388 . S
H421 O422 0.760 . S
H421 Co423 2.400 . S
O422 Co417 2.053 . S
O422 Co418 2.126 . S
O422 H421 0.760 . S
O422 Co423 2.009 . S
Co423 H421 2.400 . S
Co423 O422 2.009 . S
Co423 O424 2.053 . S
Co423 O426 2.094 . S
Co423 O430 2.122 . S
Co423 O444 2.115 . S
Co423 O445 2.315 . S
O424 Co423 2.053 . S
O424 C436 1.259 . S
O425 Co417 2.047 . S
O425 C436 1.257 . S
O426 Co423 2.094 . S
O426 C437 1.253 . S
O427 Co418 2.063 . S
O427 C437 1.268 . S
O428 Co416 2.115 . S
O428 C438 1.281 . S
O429 Co416 2.315 . S
O429 C438 1.252 . S
O430 Co423 2.122 . S
O430 C439 1.272 . S
O431 Co417 2.113 . S
O431 C439 1.245 . S
C432 O440 1.259 . S
C432 O441 1.257 . S
C433 O442 1.268 . S
C433 O443 1.253 . S
C434 O444 1.281 . S
C434 O445 1.252 . S
C435 O446 1.272 . S
C435 O447 1.245 . S
C436 O424 1.259 . S
C436 O425 1.257 . S
C437 O426 1.253 . S
C437 O427 1.268 . S
C438 O428 1.281 . S
C438 O429 1.252 . S
C439 O430 1.272 . S
C439 O431 1.245 . S
O440 Co416 2.053 . S
O440 C432 1.259 . S
O441 Co418 2.047 . S
O441 C432 1.257 . S
O442 Co417 2.063 . S
O442 C433 1.268 . S
O443 Co416 2.094 . S
O443 C433 1.253 . S
O444 Co423 2.115 . S
O444 C434 1.281 . S
O445 Co423 2.315 . S
O445 C434 1.252 . S
O446 Co416 2.122 . S
O446 C435 1.272 . S
O447 Co418 2.113 . S
O447 C435 1.245 . S
Co448 H451 2.400 . S
Co448 O452 2.009 . S
Co448 O460 2.115 . S
Co448 O461 2.315 . S
Co448 O472 2.053 . S
Co448 O475 2.094 . S
Co448 O478 2.122 . S
Co449 O452 2.126 . S
Co449 H453 2.388 . S
Co449 O454 2.053 . S
Co449 O457 2.047 . S
Co449 O463 2.113 . S
Co449 O474 2.063 . S
Co450 H451 2.388 . S
Co450 O452 2.053 . S
Co450 O454 2.126 . S
Co450 O459 2.063 . S
Co450 O473 2.047 . S
Co450 O479 2.113 . S
H451 Co448 2.400 . S
H451 Co450 2.388 . S
H451 O452 0.760 . S
O452 Co448 2.009 . S
O452 Co449 2.126 . S
O452 Co450 2.053 . S
O452 H451 0.760 . S
H453 Co449 2.388 . S
H453 O454 0.760 . S
H453 Co455 2.400 . S
O454 Co449 2.053 . S
O454 Co450 2.126 . S
O454 H453 0.760 . S
O454 Co455 2.009 . S
Co455 H453 2.400 . S
Co455 O454 2.009 . S
Co455 O456 2.053 . S
Co455 O458 2.094 . S
Co455 O462 2.122 . S
Co455 O476 2.115 . S
Co455 O477 2.315 . S
O456 Co455 2.053 . S
O456 C468 1.259 . S
O457 Co449 2.047 . S
O457 C468 1.257 . S
O458 Co455 2.094 . S
O458 C469 1.253 . S
O459 Co450 2.063 . S
O459 C469 1.268 . S
O460 Co448 2.115 . S
O460 C470 1.281 . S
O461 Co448 2.315 . S
O461 C470 1.252 . S
O462 Co455 2.122 . S
O462 C471 1.272 . S
O463 Co449 2.113 . S
O463 C471 1.245 . S
C464 O472 1.259 . S
C464 O473 1.257 . S
C465 O474 1.268 . S
C465 O475 1.253 . S
C466 O476 1.281 . S
C466 O477 1.252 . S
C467 O478 1.272 . S
C467 O479 1.245 . S
C468 O456 1.259 . S
C468 O457 1.257 . S
C469 O458 1.253 . S
C469 O459 1.268 . S
C470 O460 1.281 . S
C470 O461 1.252 . S
C471 O462 1.272 . S
C471 O463 1.245 . S
O472 Co448 2.053 . S
O472 C464 1.259 . S
O473 Co450 2.047 . S
O473 C464 1.257 . S
O474 Co449 2.063 . S
O474 C465 1.268 . S
O475 Co448 2.094 . S
O475 C465 1.253 . S
O476 Co455 2.115 . S
O476 C466 1.281 . S
O477 Co455 2.315 . S
O477 C466 1.252 . S
O478 Co448 2.122 . S
O478 C467 1.272 . S
O479 Co450 2.113 . S
O479 C467 1.245 . S
Co480 H483 2.400 . S
Co480 O484 2.009 . S
Co480 O492 2.115 . S
Co480 O493 2.315 . S
Co480 O504 2.053 . S
Co480 O507 2.094 . S
Co480 O510 2.122 . S
Co481 O484 2.126 . S
Co481 H485 2.388 . S
Co481 O486 2.053 . S
Co481 O489 2.047 . S
Co481 O495 2.113 . S
Co481 O506 2.063 . S
Co482 H483 2.388 . S
Co482 O484 2.053 . S
Co482 O486 2.126 . S
Co482 O491 2.063 . S
Co482 O505 2.047 . S
Co482 O511 2.113 . S
H483 Co480 2.400 . S
H483 Co482 2.388 . S
H483 O484 0.760 . S
O484 Co480 2.009 . S
O484 Co481 2.126 . S
O484 Co482 2.053 . S
O484 H483 0.760 . S
H485 Co481 2.388 . S
H485 O486 0.760 . S
H485 Co487 2.400 . S
O486 Co481 2.053 . S
O486 Co482 2.126 . S
O486 H485 0.760 . S
O486 Co487 2.009 . S
Co487 H485 2.400 . S
Co487 O486 2.009 . S
Co487 O488 2.053 . S
Co487 O490 2.094 . S
Co487 O494 2.122 . S
Co487 O508 2.115 . S
Co487 O509 2.315 . S
O488 Co487 2.053 . S
O488 C500 1.259 . S
O489 Co481 2.047 . S
O489 C500 1.257 . S
O490 Co487 2.094 . S
O490 C501 1.253 . S
O491 Co482 2.063 . S
O491 C501 1.268 . S
O492 Co480 2.115 . S
O492 C502 1.281 . S
O493 Co480 2.315 . S
O493 C502 1.252 . S
O494 Co487 2.122 . S
O494 C503 1.272 . S
O495 Co481 2.113 . S
O495 C503 1.245 . S
C496 O504 1.259 . S
C496 O505 1.257 . S
C497 O506 1.268 . S
C497 O507 1.253 . S
C498 O508 1.281 . S
C498 O509 1.252 . S
C499 O510 1.272 . S
C499 O511 1.245 . S
C500 O488 1.259 . S
C500 O489 1.257 . S
C501 O490 1.253 . S
C501 O491 1.268 . S
C502 O492 1.281 . S
C502 O493 1.252 . S
C503 O494 1.272 . S
C503 O495 1.245 . S
O504 Co480 2.053 . S
O504 C496 1.259 . S
O505 Co482 2.047 . S
O505 C496 1.257 . S
O506 Co481 2.063 . S
O506 C497 1.268 . S
O507 Co480 2.094 . S
O507 C497 1.253 . S
O508 Co487 2.115 . S
O508 C498 1.281 . S
O509 Co487 2.315 . S
O509 C498 1.252 . S
O510 Co480 2.122 . S
O510 C499 1.272 . S
O511 Co482 2.113 . S
O511 C499 1.245 . S
Co512 H515 2.400 . S
Co512 O516 2.009 . S
Co512 O524 2.115 . S
Co512 O525 2.315 . S
Co512 O536 2.053 . S
Co512 O539 2.094 . S
Co512 O542 2.122 . S
Co513 O516 2.126 . S
Co513 H517 2.388 . S
Co513 O518 2.053 . S
Co513 O521 2.047 . S
Co513 O527 2.113 . S
Co513 O538 2.063 . S
Co514 H515 2.388 . S
Co514 O516 2.053 . S
Co514 O518 2.126 . S
Co514 O523 2.063 . S
Co514 O537 2.047 . S
Co514 O543 2.113 . S
H515 Co512 2.400 . S
H515 Co514 2.388 . S
H515 O516 0.760 . S
O516 Co512 2.009 . S
O516 Co513 2.126 . S
O516 Co514 2.053 . S
O516 H515 0.760 . S
H517 Co513 2.388 . S
H517 O518 0.760 . S
H517 Co519 2.400 . S
O518 Co513 2.053 . S
O518 Co514 2.126 . S
O518 H517 0.760 . S
O518 Co519 2.009 . S
Co519 H517 2.400 . S
Co519 O518 2.009 . S
Co519 O520 2.053 . S
Co519 O522 2.094 . S
Co519 O526 2.122 . S
Co519 O540 2.115 . S
Co519 O541 2.315 . S
O520 Co519 2.053 . S
O520 C532 1.259 . S
O521 Co513 2.047 . S
O521 C532 1.257 . S
O522 Co519 2.094 . S
O522 C533 1.253 . S
O523 Co514 2.063 . S
O523 C533 1.268 . S
O524 Co512 2.115 . S
O524 C534 1.281 . S
O525 Co512 2.315 . S
O525 C534 1.252 . S
O526 Co519 2.122 . S
O526 C535 1.272 . S
O527 Co513 2.113 . S
O527 C535 1.245 . S
C528 O536 1.259 . S
C528 O537 1.257 . S
C529 O538 1.268 . S
C529 O539 1.253 . S
C530 O540 1.281 . S
C530 O541 1.252 . S
C531 O542 1.272 . S
C531 O543 1.245 . S
C532 O520 1.259 . S
C532 O521 1.257 . S
C533 O522 1.253 . S
C533 O523 1.268 . S
C534 O524 1.281 . S
C534 O525 1.252 . S
C535 O526 1.272 . S
C535 O527 1.245 . S
O536 Co512 2.053 . S
O536 C528 1.259 . S
O537 Co514 2.047 . S
O537 C528 1.257 . S
O538 Co513 2.063 . S
O538 C529 1.268 . S
O539 Co512 2.094 . S
O539 C529 1.253 . S
O540 Co519 2.115 . S
O540 C530 1.281 . S
O541 Co519 2.315 . S
O541 C530 1.252 . S
O542 Co512 2.122 . S
O542 C531 1.272 . S
O543 Co514 2.113 . S
O543 C531 1.245 . S
Co544 H547 2.400 . S
Co544 O548 2.009 . S
Co544 O556 2.115 . S
Co544 O557 2.315 . S
Co544 O568 2.053 . S
Co544 O571 2.094 . S
Co544 O574 2.122 . S
Co545 O548 2.126 . S
Co545 H549 2.388 . S
Co545 O550 2.053 . S
Co545 O553 2.047 . S
Co545 O559 2.113 . S
Co545 O570 2.063 . S
Co546 H547 2.388 . S
Co546 O548 2.053 . S
Co546 O550 2.126 . S
Co546 O555 2.063 . S
Co546 O569 2.047 . S
Co546 O575 2.113 . S
H547 Co544 2.400 . S
H547 Co546 2.388 . S
H547 O548 0.760 . S
O548 Co544 2.009 . S
O548 Co545 2.126 . S
O548 Co546 2.053 . S
O548 H547 0.760 . S
H549 Co545 2.388 . S
H549 O550 0.760 . S
H549 Co551 2.400 . S
O550 Co545 2.053 . S
O550 Co546 2.126 . S
O550 H549 0.760 . S
O550 Co551 2.009 . S
Co551 H549 2.400 . S
Co551 O550 2.009 . S
Co551 O552 2.053 . S
Co551 O554 2.094 . S
Co551 O558 2.122 . S
Co551 O572 2.115 . S
Co551 O573 2.315 . S
O552 Co551 2.053 . S
O552 C564 1.259 . S
O553 Co545 2.047 . S
O553 C564 1.257 . S
O554 Co551 2.094 . S
O554 C565 1.253 . S
O555 Co546 2.063 . S
O555 C565 1.268 . S
O556 Co544 2.115 . S
O556 C566 1.281 . S
O557 Co544 2.315 . S
O557 C566 1.252 . S
O558 Co551 2.122 . S
O558 C567 1.272 . S
O559 Co545 2.113 . S
O559 C567 1.245 . S
C560 O568 1.259 . S
C560 O569 1.257 . S
C561 O570 1.268 . S
C561 O571 1.253 . S
C562 O572 1.281 . S
C562 O573 1.252 . S
C563 O574 1.272 . S
C563 O575 1.245 . S
C564 O552 1.259 . S
C564 O553 1.257 . S
C565 O554 1.253 . S
C565 O555 1.268 . S
C566 O556 1.281 . S
C566 O557 1.252 . S
C567 O558 1.272 . S
C567 O559 1.245 . S
O568 Co544 2.053 . S
O568 C560 1.259 . S
O569 Co546 2.047 . S
O569 C560 1.257 . S
O570 Co545 2.063 . S
O570 C561 1.268 . S
O571 Co544 2.094 . S
O571 C561 1.253 . S
O572 Co551 2.115 . S
O572 C562 1.281 . S
O573 Co551 2.315 . S
O573 C562 1.252 . S
O574 Co544 2.122 . S
O574 C563 1.272 . S
O575 Co546 2.113 . S
O575 C563 1.245 . S
Co576 H579 2.400 . S
Co576 O580 2.009 . S
Co576 O588 2.115 . S
Co576 O589 2.315 . S
Co576 O600 2.053 . S
Co576 O603 2.094 . S
Co576 O606 2.122 . S
Co577 O580 2.126 . S
Co577 H581 2.388 . S
Co577 O582 2.053 . S
Co577 O585 2.047 . S
Co577 O591 2.113 . S
Co577 O602 2.063 . S
Co578 H579 2.388 . S
Co578 O580 2.053 . S
Co578 O582 2.126 . S
Co578 O587 2.063 . S
Co578 O601 2.047 . S
Co578 O607 2.113 . S
H579 Co576 2.400 . S
H579 Co578 2.388 . S
H579 O580 0.760 . S
O580 Co576 2.009 . S
O580 Co577 2.126 . S
O580 Co578 2.053 . S
O580 H579 0.760 . S
H581 Co577 2.388 . S
H581 O582 0.760 . S
H581 Co583 2.400 . S
O582 Co577 2.053 . S
O582 Co578 2.126 . S
O582 H581 0.760 . S
O582 Co583 2.009 . S
Co583 H581 2.400 . S
Co583 O582 2.009 . S
Co583 O584 2.053 . S
Co583 O586 2.094 . S
Co583 O590 2.122 . S
Co583 O604 2.115 . S
Co583 O605 2.315 . S
O584 Co583 2.053 . S
O584 C596 1.259 . S
O585 Co577 2.047 . S
O585 C596 1.257 . S
O586 Co583 2.094 . S
O586 C597 1.253 . S
O587 Co578 2.063 . S
O587 C597 1.268 . S
O588 Co576 2.115 . S
O588 C598 1.281 . S
O589 Co576 2.315 . S
O589 C598 1.252 . S
O590 Co583 2.122 . S
O590 C599 1.272 . S
O591 Co577 2.113 . S
O591 C599 1.245 . S
C592 O600 1.259 . S
C592 O601 1.257 . S
C593 O602 1.268 . S
C593 O603 1.253 . S
C594 O604 1.281 . S
C594 O605 1.252 . S
C595 O606 1.272 . S
C595 O607 1.245 . S
C596 O584 1.259 . S
C596 O585 1.257 . S
C597 O586 1.253 . S
C597 O587 1.268 . S
C598 O588 1.281 . S
C598 O589 1.252 . S
C599 O590 1.272 . S
C599 O591 1.245 . S
O600 Co576 2.053 . S
O600 C592 1.259 . S
O601 Co578 2.047 . S
O601 C592 1.257 . S
O602 Co577 2.063 . S
O602 C593 1.268 . S
O603 Co576 2.094 . S
O603 C593 1.253 . S
O604 Co583 2.115 . S
O604 C594 1.281 . S
O605 Co583 2.315 . S
O605 C594 1.252 . S
O606 Co576 2.122 . S
O606 C595 1.272 . S
O607 Co578 2.113 . S
O607 C595 1.245 . S
Co608 H611 2.400 . S
Co608 O612 2.009 . S
Co608 O620 2.115 . S
Co608 O621 2.315 . S
Co608 O632 2.053 . S
Co608 O635 2.094 . S
Co608 O638 2.122 . S
Co609 O612 2.126 . S
Co609 H613 2.388 . S
Co609 O614 2.053 . S
Co609 O617 2.047 . S
Co609 O623 2.113 . S
Co609 O634 2.063 . S
Co610 H611 2.388 . S
Co610 O612 2.053 . S
Co610 O614 2.126 . S
Co610 O619 2.063 . S
Co610 O633 2.047 . S
Co610 O639 2.113 . S
H611 Co608 2.400 . S
H611 Co610 2.388 . S
H611 O612 0.760 . S
O612 Co608 2.009 . S
O612 Co609 2.126 . S
O612 Co610 2.053 . S
O612 H611 0.760 . S
H613 Co609 2.388 . S
H613 O614 0.760 . S
H613 Co615 2.400 . S
O614 Co609 2.053 . S
O614 Co610 2.126 . S
O614 H613 0.760 . S
O614 Co615 2.009 . S
Co615 H613 2.400 . S
Co615 O614 2.009 . S
Co615 O616 2.053 . S
Co615 O618 2.094 . S
Co615 O622 2.122 . S
Co615 O636 2.115 . S
Co615 O637 2.315 . S
O616 Co615 2.053 . S
O616 C628 1.259 . S
O617 Co609 2.047 . S
O617 C628 1.257 . S
O618 Co615 2.094 . S
O618 C629 1.253 . S
O619 Co610 2.063 . S
O619 C629 1.268 . S
O620 Co608 2.115 . S
O620 C630 1.281 . S
O621 Co608 2.315 . S
O621 C630 1.252 . S
O622 Co615 2.122 . S
O622 C631 1.272 . S
O623 Co609 2.113 . S
O623 C631 1.245 . S
C624 O632 1.259 . S
C624 O633 1.257 . S
C625 O634 1.268 . S
C625 O635 1.253 . S
C626 O636 1.281 . S
C626 O637 1.252 . S
C627 O638 1.272 . S
C627 O639 1.245 . S
C628 O616 1.259 . S
C628 O617 1.257 . S
C629 O618 1.253 . S
C629 O619 1.268 . S
C630 O620 1.281 . S
C630 O621 1.252 . S
C631 O622 1.272 . S
C631 O623 1.245 . S
O632 Co608 2.053 . S
O632 C624 1.259 . S
O633 Co610 2.047 . S
O633 C624 1.257 . S
O634 Co609 2.063 . S
O634 C625 1.268 . S
O635 Co608 2.094 . S
O635 C625 1.253 . S
O636 Co615 2.115 . S
O636 C626 1.281 . S
O637 Co615 2.315 . S
O637 C626 1.252 . S
O638 Co608 2.122 . S
O638 C627 1.272 . S
O639 Co610 2.113 . S
O639 C627 1.245 . S
Co640 H643 2.400 . S
Co640 O644 2.009 . S
Co640 O652 2.115 . S
Co640 O653 2.315 . S
Co640 O664 2.053 . S
Co640 O667 2.094 . S
Co640 O670 2.122 . S
Co641 O644 2.126 . S
Co641 H645 2.388 . S
Co641 O646 2.053 . S
Co641 O649 2.047 . S
Co641 O655 2.113 . S
Co641 O666 2.063 . S
Co642 H643 2.388 . S
Co642 O644 2.053 . S
Co642 O646 2.126 . S
Co642 O651 2.063 . S
Co642 O665 2.047 . S
Co642 O671 2.113 . S
H643 Co640 2.400 . S
H643 Co642 2.388 . S
H643 O644 0.760 . S
O644 Co640 2.009 . S
O644 Co641 2.126 . S
O644 Co642 2.053 . S
O644 H643 0.760 . S
H645 Co641 2.388 . S
H645 O646 0.760 . S
H645 Co647 2.400 . S
O646 Co641 2.053 . S
O646 Co642 2.126 . S
O646 H645 0.760 . S
O646 Co647 2.009 . S
Co647 H645 2.400 . S
Co647 O646 2.009 . S
Co647 O648 2.053 . S
Co647 O650 2.094 . S
Co647 O654 2.122 . S
Co647 O668 2.115 . S
Co647 O669 2.315 . S
O648 Co647 2.053 . S
O648 C660 1.259 . S
O649 Co641 2.047 . S
O649 C660 1.257 . S
O650 Co647 2.094 . S
O650 C661 1.253 . S
O651 Co642 2.063 . S
O651 C661 1.268 . S
O652 Co640 2.115 . S
O652 C662 1.281 . S
O653 Co640 2.315 . S
O653 C662 1.252 . S
O654 Co647 2.122 . S
O654 C663 1.272 . S
O655 Co641 2.113 . S
O655 C663 1.245 . S
C656 O664 1.259 . S
C656 O665 1.257 . S
C657 O666 1.268 . S
C657 O667 1.253 . S
C658 O668 1.281 . S
C658 O669 1.252 . S
C659 O670 1.272 . S
C659 O671 1.245 . S
C660 O648 1.259 . S
C660 O649 1.257 . S
C661 O650 1.253 . S
C661 O651 1.268 . S
C662 O652 1.281 . S
C662 O653 1.252 . S
C663 O654 1.272 . S
C663 O655 1.245 . S
O664 Co640 2.053 . S
O664 C656 1.259 . S
O665 Co642 2.047 . S
O665 C656 1.257 . S
O666 Co641 2.063 . S
O666 C657 1.268 . S
O667 Co640 2.094 . S
O667 C657 1.253 . S
O668 Co647 2.115 . S
O668 C658 1.281 . S
O669 Co647 2.315 . S
O669 C658 1.252 . S
O670 Co640 2.122 . S
O670 C659 1.272 . S
O671 Co642 2.113 . S
O671 C659 1.245 . S
Co672 H675 2.400 . S
Co672 O676 2.009 . S
Co672 O684 2.115 . S
Co672 O685 2.315 . S
Co672 O696 2.053 . S
Co672 O699 2.094 . S
Co672 O702 2.122 . S
Co673 O676 2.126 . S
Co673 H677 2.388 . S
Co673 O678 2.053 . S
Co673 O681 2.047 . S
Co673 O687 2.113 . S
Co673 O698 2.063 . S
Co674 H675 2.388 . S
Co674 O676 2.053 . S
Co674 O678 2.126 . S
Co674 O683 2.063 . S
Co674 O697 2.047 . S
Co674 O703 2.113 . S
H675 Co672 2.400 . S
H675 Co674 2.388 . S
H675 O676 0.760 . S
O676 Co672 2.009 . S
O676 Co673 2.126 . S
O676 Co674 2.053 . S
O676 H675 0.760 . S
H677 Co673 2.388 . S
H677 O678 0.760 . S
H677 Co679 2.400 . S
O678 Co673 2.053 . S
O678 Co674 2.126 . S
O678 H677 0.760 . S
O678 Co679 2.009 . S
Co679 H677 2.400 . S
Co679 O678 2.009 . S
Co679 O680 2.053 . S
Co679 O682 2.094 . S
Co679 O686 2.122 . S
Co679 O700 2.115 . S
Co679 O701 2.315 . S
O680 Co679 2.053 . S
O680 C692 1.259 . S
O681 Co673 2.047 . S
O681 C692 1.257 . S
O682 Co679 2.094 . S
O682 C693 1.253 . S
O683 Co674 2.063 . S
O683 C693 1.268 . S
O684 Co672 2.115 . S
O684 C694 1.281 . S
O685 Co672 2.315 . S
O685 C694 1.252 . S
O686 Co679 2.122 . S
O686 C695 1.272 . S
O687 Co673 2.113 . S
O687 C695 1.245 . S
C688 O696 1.259 . S
C688 O697 1.257 . S
C689 O698 1.268 . S
C689 O699 1.253 . S
C690 O700 1.281 . S
C690 O701 1.252 . S
C691 O702 1.272 . S
C691 O703 1.245 . S
C692 O680 1.259 . S
C692 O681 1.257 . S
C693 O682 1.253 . S
C693 O683 1.268 . S
C694 O684 1.281 . S
C694 O685 1.252 . S
C695 O686 1.272 . S
C695 O687 1.245 . S
O696 Co672 2.053 . S
O696 C688 1.259 . S
O697 Co674 2.047 . S
O697 C688 1.257 . S
O698 Co673 2.063 . S
O698 C689 1.268 . S
O699 Co672 2.094 . S
O699 C689 1.253 . S
O700 Co679 2.115 . S
O700 C690 1.281 . S
O701 Co679 2.315 . S
O701 C690 1.252 . S
O702 Co672 2.122 . S
O702 C691 1.272 . S
O703 Co674 2.113 . S
O703 C691 1.245 . S
Co704 H707 2.400 . S
Co704 O708 2.009 . S
Co704 O716 2.115 . S
Co704 O717 2.315 . S
Co704 O728 2.053 . S
Co704 O731 2.094 . S
Co704 O734 2.122 . S
Co705 O708 2.126 . S
Co705 H709 2.388 . S
Co705 O710 2.053 . S
Co705 O713 2.047 . S
Co705 O719 2.113 . S
Co705 O730 2.063 . S
Co706 H707 2.388 . S
Co706 O708 2.053 . S
Co706 O710 2.126 . S
Co706 O715 2.063 . S
Co706 O729 2.047 . S
Co706 O735 2.113 . S
H707 Co704 2.400 . S
H707 Co706 2.388 . S
H707 O708 0.760 . S
O708 Co704 2.009 . S
O708 Co705 2.126 . S
O708 Co706 2.053 . S
O708 H707 0.760 . S
H709 Co705 2.388 . S
H709 O710 0.760 . S
H709 Co711 2.400 . S
O710 Co705 2.053 . S
O710 Co706 2.126 . S
O710 H709 0.760 . S
O710 Co711 2.009 . S
Co711 H709 2.400 . S
Co711 O710 2.009 . S
Co711 O712 2.053 . S
Co711 O714 2.094 . S
Co711 O718 2.122 . S
Co711 O732 2.115 . S
Co711 O733 2.315 . S
O712 Co711 2.053 . S
O712 C724 1.259 . S
O713 Co705 2.047 . S
O713 C724 1.257 . S
O714 Co711 2.094 . S
O714 C725 1.253 . S
O715 Co706 2.063 . S
O715 C725 1.268 . S
O716 Co704 2.115 . S
O716 C726 1.281 . S
O717 Co704 2.315 . S
O717 C726 1.252 . S
O718 Co711 2.122 . S
O718 C727 1.272 . S
O719 Co705 2.113 . S
O719 C727 1.245 . S
C720 O728 1.259 . S
C720 O729 1.257 . S
C721 O730 1.268 . S
C721 O731 1.253 . S
C722 O732 1.281 . S
C722 O733 1.252 . S
C723 O734 1.272 . S
C723 O735 1.245 . S
C724 O712 1.259 . S
C724 O713 1.257 . S
C725 O714 1.253 . S
C725 O715 1.268 . S
C726 O716 1.281 . S
C726 O717 1.252 . S
C727 O718 1.272 . S
C727 O719 1.245 . S
O728 Co704 2.053 . S
O728 C720 1.259 . S
O729 Co706 2.047 . S
O729 C720 1.257 . S
O730 Co705 2.063 . S
O730 C721 1.268 . S
O731 Co704 2.094 . S
O731 C721 1.253 . S
O732 Co711 2.115 . S
O732 C722 1.281 . S
O733 Co711 2.315 . S
O733 C722 1.252 . S
O734 Co704 2.122 . S
O734 C723 1.272 . S
O735 Co706 2.113 . S
O735 C723 1.245 . S
Co736 H739 2.400 . S
Co736 O740 2.009 . S
Co736 O748 2.115 . S
Co736 O749 2.315 . S
Co736 O760 2.053 . S
Co736 O763 2.094 . S
Co736 O766 2.122 . S
Co737 O740 2.126 . S
Co737 H741 2.388 . S
Co737 O742 2.053 . S
Co737 O745 2.047 . S
Co737 O751 2.113 . S
Co737 O762 2.063 . S
Co738 H739 2.388 . S
Co738 O740 2.053 . S
Co738 O742 2.126 . S
Co738 O747 2.063 . S
Co738 O761 2.047 . S
Co738 O767 2.113 . S
H739 Co736 2.400 . S
H739 Co738 2.388 . S
H739 O740 0.760 . S
O740 Co736 2.009 . S
O740 Co737 2.126 . S
O740 Co738 2.053 . S
O740 H739 0.760 . S
H741 Co737 2.388 . S
H741 O742 0.760 . S
H741 Co743 2.400 . S
O742 Co737 2.053 . S
O742 Co738 2.126 . S
O742 H741 0.760 . S
O742 Co743 2.009 . S
Co743 H741 2.400 . S
Co743 O742 2.009 . S
Co743 O744 2.053 . S
Co743 O746 2.094 . S
Co743 O750 2.122 . S
Co743 O764 2.115 . S
Co743 O765 2.315 . S
O744 Co743 2.053 . S
O744 C756 1.259 . S
O745 Co737 2.047 . S
O745 C756 1.257 . S
O746 Co743 2.094 . S
O746 C757 1.253 . S
O747 Co738 2.063 . S
O747 C757 1.268 . S
O748 Co736 2.115 . S
O748 C758 1.281 . S
O749 Co736 2.315 . S
O749 C758 1.252 . S
O750 Co743 2.122 . S
O750 C759 1.272 . S
O751 Co737 2.113 . S
O751 C759 1.245 . S
C752 O760 1.259 . S
C752 O761 1.257 . S
C753 O762 1.268 . S
C753 O763 1.253 . S
C754 O764 1.281 . S
C754 O765 1.252 . S
C755 O766 1.272 . S
C755 O767 1.245 . S
C756 O744 1.259 . S
C756 O745 1.257 . S
C757 O746 1.253 . S
C757 O747 1.268 . S
C758 O748 1.281 . S
C758 O749 1.252 . S
C759 O750 1.272 . S
C759 O751 1.245 . S
O760 Co736 2.053 . S
O760 C752 1.259 . S
O761 Co738 2.047 . S
O761 C752 1.257 . S
O762 Co737 2.063 . S
O762 C753 1.268 . S
O763 Co736 2.094 . S
O763 C753 1.253 . S
O764 Co743 2.115 . S
O764 C754 1.281 . S
O765 Co743 2.315 . S
O765 C754 1.252 . S
O766 Co736 2.122 . S
O766 C755 1.272 . S
O767 Co738 2.113 . S
O767 C755 1.245 . S
H768 C780 0.930 . S
H769 C782 0.930 . S
H770 C783 0.930 . S
H771 C787 0.959 . S
H772 C787 0.959 . S
H773 C787 0.961 . S
H774 C788 0.960 . S
H775 C788 0.961 . S
H776 C788 0.959 . S
H777 C791 0.929 . S
H778 C792 0.931 . S
H779 C794 0.930 . S
C780 H768 0.930 . S
C780 C781 1.399 . S
C780 C785 1.399 . S
C781 C780 1.399 . S
C781 C782 1.376 . S
C782 H769 0.930 . S
C782 C781 1.376 . S
C782 C783 1.388 . S
C783 H770 0.930 . S
C783 C782 1.388 . S
C783 C784 1.390 . S
C784 C783 1.390 . S
C784 C785 1.394 . S
C784 C790 1.465 . S
C785 C780 1.399 . S
C785 C784 1.394 . S
C785 C786 1.516 . S
C786 C785 1.516 . S
C786 C787 1.502 . S
C786 C788 1.561 . S
C786 C789 1.526 . S
C787 H771 0.959 . S
C787 H772 0.959 . S
C787 H773 0.961 . S
C787 C786 1.502 . S
C788 H774 0.960 . S
C788 H775 0.961 . S
C788 H776 0.959 . S
C788 C786 1.561 . S
C789 C786 1.526 . S
C789 C790 1.396 . S
C789 C794 1.390 . S
C790 C784 1.465 . S
C790 C789 1.396 . S
C790 C791 1.399 . S
C791 H777 0.929 . S
C791 C790 1.399 . S
C791 C792 1.385 . S
C792 H778 0.931 . S
C792 C791 1.385 . S
C792 C793 1.389 . S
C793 C792 1.389 . S
C793 C794 1.387 . S
C794 H779 0.930 . S
C794 C789 1.390 . S
C794 C793 1.387 . S
H795 C807 0.930 . S
H796 C809 0.930 . S
H797 C810 0.930 1_455 S
H798 C814 0.959 . S
H799 C814 0.959 . S
H800 C814 0.961 . S
H801 C815 0.960 . S
H802 C815 0.961 1_545 S
H803 C815 0.959 . S
H804 C818 0.929 . S
H805 C819 0.931 . S
H806 C821 0.930 . S
C807 H795 0.930 . S
C807 C808 1.399 . S
C807 C812 1.399 . S
C808 C807 1.399 . S
C808 C809 1.376 . S
C809 H796 0.930 . S
C809 C808 1.376 . S
C809 C810 1.388 . S
C810 H797 0.930 1_655 S
C810 C809 1.388 . S
C810 C811 1.390 . S
C811 C810 1.390 . S
C811 C812 1.394 . S
C811 C817 1.465 . S
C812 C807 1.399 . S
C812 C811 1.394 . S
C812 C813 1.516 . S
C813 C812 1.516 . S
C813 C814 1.502 1_565 S
C813 C815 1.561 . S
C813 C816 1.526 1_565 S
C814 H798 0.959 . S
C814 H799 0.959 . S
C814 H800 0.961 . S
C814 C813 1.502 1_545 S
C815 H801 0.960 . S
C815 H802 0.961 1_565 S
C815 H803 0.959 . S
C815 C813 1.561 . S
C816 C813 1.526 1_545 S
C816 C817 1.396 1_545 S
C816 C821 1.390 . S
C817 C811 1.465 . S
C817 C816 1.396 1_565 S
C817 C818 1.399 1_655 S
C818 H804 0.929 . S
C818 C817 1.399 1_455 S
C818 C819 1.385 1_565 S
C819 H805 0.931 . S
C819 C818 1.385 1_545 S
C819 C820 1.389 . S
C820 C819 1.389 . S
C820 C821 1.387 1_455 S
C821 H806 0.930 . S
C821 C816 1.390 . S
C821 C820 1.387 1_655 S
H822 C834 0.930 . S
H823 C836 0.930 . S
H824 C837 0.930 . S
H825 C841 0.959 . S
H826 C841 0.959 . S
H827 C841 0.961 . S
H828 C842 0.960 . S
H829 C842 0.961 . S
H830 C842 0.959 . S
H831 C845 0.929 . S
H832 C846 0.931 . S
H833 C848 0.930 . S
C834 H822 0.930 . S
C834 C835 1.399 . S
C834 C839 1.399 . S
C835 C834 1.399 . S
C835 C836 1.376 . S
C836 H823 0.930 . S
C836 C835 1.376 . S
C836 C837 1.388 . S
C837 H824 0.930 . S
C837 C836 1.388 . S
C837 C838 1.390 . S
C838 C837 1.390 . S
C838 C839 1.394 . S
C838 C844 1.465 . S
C839 C834 1.399 . S
C839 C838 1.394 . S
C839 C840 1.516 . S
C840 C839 1.516 . S
C840 C841 1.502 . S
C840 C842 1.561 . S
C840 C843 1.526 . S
C841 H825 0.959 . S
C841 H826 0.959 . S
C841 H827 0.961 . S
C841 C840 1.502 . S
C842 H828 0.960 . S
C842 H829 0.961 . S
C842 H830 0.959 . S
C842 C840 1.561 . S
C843 C840 1.526 . S
C843 C844 1.396 . S
C843 C848 1.390 . S
C844 C838 1.465 . S
C844 C843 1.396 . S
C844 C845 1.399 . S
C845 H831 0.929 . S
C845 C844 1.399 . S
C845 C846 1.385 . S
C846 H832 0.931 . S
C846 C845 1.385 . S
C846 C847 1.389 . S
C847 C846 1.389 . S
C847 C848 1.387 . S
C848 H833 0.930 . S
C848 C843 1.390 . S
C848 C847 1.387 . S
H849 C861 0.930 . S
H850 C863 0.930 . S
H851 C864 0.930 . S
H852 C868 0.959 . S
H853 C868 0.959 . S
H854 C868 0.961 . S
H855 C869 0.960 . S
H856 C869 0.961 . S
H857 C869 0.959 . S
H858 C872 0.929 1_565 S
H859 C873 0.931 . S
H860 C875 0.930 . S
C861 H849 0.930 . S
C861 C862 1.399 1_545 S
C861 C866 1.399 . S
C862 C861 1.399 1_565 S
C862 C863 1.376 . S
C863 H850 0.930 . S
C863 C862 1.376 . S
C863 C864 1.388 . S
C864 H851 0.930 . S
C864 C863 1.388 . S
C864 C865 1.390 1_565 S
C865 C864 1.390 1_545 S
C865 C866 1.394 . S
C865 C871 1.465 . S
C866 C861 1.399 . S
C866 C865 1.394 . S
C866 C867 1.516 . S
C867 C866 1.516 . S
C867 C868 1.502 . S
C867 C869 1.561 . S
C867 C870 1.526 . S
C868 H852 0.959 . S
C868 H853 0.959 . S
C868 H854 0.961 . S
C868 C867 1.502 . S
C869 H855 0.960 . S
C869 H856 0.961 . S
C869 H857 0.959 . S
C869 C867 1.561 . S
C870 C867 1.526 . S
C870 C871 1.396 . S
C870 C875 1.390 . S
C871 C865 1.465 . S
C871 C870 1.396 . S
C871 C872 1.399 . S
C872 H858 0.929 1_545 S
C872 C871 1.399 . S
C872 C873 1.385 . S
C873 H859 0.931 . S
C873 C872 1.385 . S
C873 C874 1.389 . S
C874 C873 1.389 . S
C874 C875 1.387 . S
C875 H860 0.930 . S
C875 C870 1.390 . S
C875 C874 1.387 . S
H876 C888 0.930 . S
H877 C890 0.930 . S
H878 C891 0.930 . S
H879 C895 0.959 . S
H880 C895 0.959 . S
H881 C895 0.961 . S
H882 C896 0.960 . S
H883 C896 0.961 . S
H884 C896 0.959 . S
H885 C899 0.929 . S
H886 C900 0.931 . S
H887 C902 0.930 . S
C888 H876 0.930 . S
C888 C889 1.399 . S
C888 C893 1.399 . S
C889 C888 1.399 . S
C889 C890 1.376 . S
C890 H877 0.930 . S
C890 C889 1.376 . S
C890 C891 1.388 . S
C891 H878 0.930 . S
C891 C890 1.388 . S
C891 C892 1.390 . S
C892 C891 1.390 . S
C892 C893 1.394 . S
C892 C898 1.465 . S
C893 C888 1.399 . S
C893 C892 1.394 . S
C893 C894 1.516 . S
C894 C893 1.516 . S
C894 C895 1.502 . S
C894 C896 1.561 . S
C894 C897 1.526 . S
C895 H879 0.959 . S
C895 H880 0.959 . S
C895 H881 0.961 . S
C895 C894 1.502 . S
C896 H882 0.960 . S
C896 H883 0.961 . S
C896 H884 0.959 . S
C896 C894 1.561 . S
C897 C894 1.526 . S
C897 C898 1.396 . S
C897 C902 1.390 . S
C898 C892 1.465 . S
C898 C897 1.396 . S
C898 C899 1.399 . S
C899 H885 0.929 . S
C899 C898 1.399 . S
C899 C900 1.385 . S
C900 H886 0.931 . S
C900 C899 1.385 . S
C900 C901 1.389 . S
C901 C900 1.389 . S
C901 C902 1.387 . S
C902 H887 0.930 . S
C902 C897 1.390 . S
C902 C901 1.387 . S
H903 C915 0.930 . S
H904 C917 0.930 . S
H905 C918 0.930 . S
H906 C922 0.959 . S
H907 C922 0.959 . S
H908 C922 0.961 . S
H909 C923 0.960 1_565 S
H910 C923 0.961 . S
H911 C923 0.959 . S
H912 C926 0.929 . S
H913 C927 0.931 . S
H914 C929 0.930 . S
C915 H903 0.930 . S
C915 C916 1.399 . S
C915 C920 1.399 . S
C916 C915 1.399 . S
C916 C917 1.376 . S
C917 H904 0.930 . S
C917 C916 1.376 . S
C917 C918 1.388 . S
C918 H905 0.930 . S
C918 C917 1.388 . S
C918 C919 1.390 . S
C919 C918 1.390 . S
C919 C920 1.394 . S
C919 C925 1.465 1_565 S
C920 C915 1.399 . S
C920 C919 1.394 . S
C920 C921 1.516 . S
C921 C920 1.516 . S
C921 C922 1.502 . S
C921 C923 1.561 1_565 S
C921 C924 1.526 1_565 S
C922 H906 0.959 . S
C922 H907 0.959 . S
C922 H908 0.961 . S
C922 C921 1.502 . S
C923 H909 0.960 1_545 S
C923 H910 0.961 . S
C923 H911 0.959 . S
C923 C921 1.561 1_545 S
C924 C921 1.526 1_545 S
C924 C925 1.396 . S
C924 C929 1.390 . S
C925 C919 1.465 1_545 S
C925 C924 1.396 . S
C925 C926 1.399 . S
C926 H912 0.929 . S
C926 C925 1.399 . S
C926 C927 1.385 . S
C927 H913 0.931 . S
C927 C926 1.385 . S
C927 C928 1.389 . S
C928 C927 1.389 . S
C928 C929 1.387 . S
C929 H914 0.930 . S
C929 C924 1.390 . S
C929 C928 1.387 . S
H930 C942 0.930 . S
H931 C944 0.930 . S
H932 C945 0.930 . S
H933 C949 0.959 . S
H934 C949 0.959 . S
H935 C949 0.961 . S
H936 C950 0.960 . S
H937 C950 0.961 . S
H938 C950 0.959 . S
H939 C953 0.929 . S
H940 C954 0.931 . S
H941 C956 0.930 . S
C942 H930 0.930 . S
C942 C943 1.399 . S
C942 C947 1.399 . S
C943 C942 1.399 . S
C943 C944 1.376 . S
C944 H931 0.930 . S
C944 C943 1.376 . S
C944 C945 1.388 . S
C945 H932 0.930 . S
C945 C944 1.388 . S
C945 C946 1.390 . S
C946 C945 1.390 . S
C946 C947 1.394 . S
C946 C952 1.465 . S
C947 C942 1.399 . S
C947 C946 1.394 . S
C947 C948 1.516 . S
C948 C947 1.516 . S
C948 C949 1.502 . S
C948 C950 1.561 . S
C948 C951 1.526 . S
C949 H933 0.959 . S
C949 H934 0.959 . S
C949 H935 0.961 . S
C949 C948 1.502 . S
C950 H936 0.960 . S
C950 H937 0.961 . S
C950 H938 0.959 . S
C950 C948 1.561 . S
C951 C948 1.526 . S
C951 C952 1.396 . S
C951 C956 1.390 . S
C952 C946 1.465 . S
C952 C951 1.396 . S
C952 C953 1.399 . S
C953 H939 0.929 . S
C953 C952 1.399 . S
C953 C954 1.385 . S
C954 H940 0.931 . S
C954 C953 1.385 . S
C954 C955 1.389 . S
C955 C954 1.389 . S
C955 C956 1.387 . S
C956 H941 0.930 . S
C956 C951 1.390 . S
C956 C955 1.387 . S
H957 C969 0.930 . S
H958 C971 0.930 . S
H959 C972 0.930 1_655 S
H960 C976 0.959 . S
H961 C976 0.959 . S
H962 C976 0.961 . S
H963 C977 0.960 . S
H964 C977 0.961 . S
H965 C977 0.959 . S
H966 C980 0.929 1_565 S
H967 C981 0.931 . S
H968 C983 0.930 . S
C969 H957 0.930 . S
C969 C970 1.399 1_545 S
C969 C974 1.399 . S
C970 C969 1.399 1_565 S
C970 C971 1.376 . S
C971 H958 0.930 . S
C971 C970 1.376 . S
C971 C972 1.388 . S
C972 H959 0.930 1_455 S
C972 C971 1.388 . S
C972 C973 1.390 1_565 S
C973 C972 1.390 1_545 S
C973 C974 1.394 . S
C973 C979 1.465 1_455 S
C974 C969 1.399 . S
C974 C973 1.394 . S
C974 C975 1.516 . S
C975 C974 1.516 . S
C975 C976 1.502 . S
C975 C977 1.561 . S
C975 C978 1.526 1_455 S
C976 H960 0.959 . S
C976 H961 0.959 . S
C976 H962 0.961 . S
C976 C975 1.502 . S
C977 H963 0.960 . S
C977 H964 0.961 . S
C977 H965 0.959 . S
C977 C975 1.561 . S
C978 C975 1.526 1_655 S
C978 C979 1.396 . S
C978 C983 1.390 . S
C979 C973 1.465 1_655 S
C979 C978 1.396 . S
C979 C980 1.399 . S
C980 H966 0.929 1_545 S
C980 C979 1.399 . S
C980 C981 1.385 . S
C981 H967 0.931 . S
C981 C980 1.385 . S
C981 C982 1.389 . S
C982 C981 1.389 . S
C982 C983 1.387 . S
C983 H968 0.930 . S
C983 C978 1.390 . S
C983 C982 1.387 . S
H984 C996 0.930 . S
H985 C998 0.930 . S
H986 C999 0.930 . S
H987 C1003 0.959 . S
H988 C1003 0.959 . S
H989 C1003 0.961 . S
H990 C1004 0.960 . S
H991 C1004 0.961 . S
H992 C1004 0.959 . S
H993 C1007 0.929 . S
H994 C1008 0.931 . S
H995 C1010 0.930 . S
C996 H984 0.930 . S
C996 C997 1.399 . S
C996 C1001 1.399 . S
C997 C996 1.399 . S
C997 C998 1.376 . S
C998 H985 0.930 . S
C998 C997 1.376 . S
C998 C999 1.388 . S
C999 H986 0.930 . S
C999 C998 1.388 . S
C999 C1000 1.390 . S
C1000 C999 1.390 . S
C1000 C1001 1.394 . S
C1000 C1006 1.465 . S
C1001 C996 1.399 . S
C1001 C1000 1.394 . S
C1001 C1002 1.516 . S
C1002 C1001 1.516 . S
C1002 C1003 1.502 . S
C1002 C1004 1.561 . S
C1002 C1005 1.526 . S
C1003 H987 0.959 . S
C1003 H988 0.959 . S
C1003 H989 0.961 . S
C1003 C1002 1.502 . S
C1004 H990 0.960 . S
C1004 H991 0.961 . S
C1004 H992 0.959 . S
C1004 C1002 1.561 . S
C1005 C1002 1.526 . S
C1005 C1006 1.396 . S
C1005 C1010 1.390 . S
C1006 C1000 1.465 . S
C1006 C1005 1.396 . S
C1006 C1007 1.399 . S
C1007 H993 0.929 . S
C1007 C1006 1.399 . S
C1007 C1008 1.385 . S
C1008 H994 0.931 . S
C1008 C1007 1.385 . S
C1008 C1009 1.389 . S
C1009 C1008 1.389 . S
C1009 C1010 1.387 . S
C1010 H995 0.930 . S
C1010 C1005 1.390 . S
C1010 C1009 1.387 . S
H1011 C1023 0.930 . S
H1012 C1025 0.930 . S
H1013 C1026 0.930 . S
H1014 C1030 0.959 . S
H1015 C1030 0.959 . S
H1016 C1030 0.961 . S
H1017 C1031 0.960 1_455 S
H1018 C1031 0.961 . S
H1019 C1031 0.959 . S
H1020 C1034 0.929 . S
H1021 C1035 0.931 . S
H1022 C1037 0.930 . S
C1023 H1011 0.930 . S
C1023 C1024 1.399 . S
C1023 C1028 1.399 . S
C1024 C1023 1.399 . S
C1024 C1025 1.376 . S
C1025 H1012 0.930 . S
C1025 C1024 1.376 . S
C1025 C1026 1.388 . S
C1026 H1013 0.930 . S
C1026 C1025 1.388 . S
C1026 C1027 1.390 . S
C1027 C1026 1.390 . S
C1027 C1028 1.394 . S
C1027 C1033 1.469 1_455 S
C1028 C1023 1.399 . S
C1028 C1027 1.394 . S
C1028 C1029 1.516 . S
C1029 C1028 1.516 . S
C1029 C1030 1.502 . S
C1029 C1031 1.561 1_455 S
C1029 C1032 1.526 1_455 S
C1030 H1014 0.959 . S
C1030 H1015 0.959 . S
C1030 H1016 0.961 . S
C1030 C1029 1.502 . S
C1031 H1017 0.960 1_655 S
C1031 H1018 0.961 . S
C1031 H1019 0.959 . S
C1031 C1029 1.561 1_655 S
C1032 C1029 1.526 1_655 S
C1032 C1033 1.395 . S
C1032 C1037 1.390 . S
C1033 C1027 1.469 1_655 S
C1033 C1032 1.395 . S
C1033 C1034 1.396 . S
C1034 H1020 0.929 . S
C1034 C1033 1.396 . S
C1034 C1035 1.385 . S
C1035 H1021 0.931 . S
C1035 C1034 1.385 . S
C1035 C1036 1.389 . S
C1036 C1035 1.389 . S
C1036 C1037 1.387 . S
C1037 H1022 0.930 . S
C1037 C1032 1.390 . S
C1037 C1036 1.387 . S
H1038 C1050 0.930 . S
H1039 C1052 0.930 . S
H1040 C1053 0.930 . S
H1041 C1057 0.959 . S
H1042 C1057 0.959 . S
H1043 C1057 0.961 . S
H1044 C1058 0.960 . S
H1045 C1058 0.961 . S
H1046 C1058 0.959 . S
H1047 C1061 0.929 . S
H1048 C1062 0.931 . S
H1049 C1064 0.930 . S
C1050 H1038 0.930 . S
C1050 C1051 1.399 . S
C1050 C1055 1.399 . S
C1051 C1050 1.399 . S
C1051 C1052 1.376 . S
C1052 H1039 0.930 . S
C1052 C1051 1.376 . S
C1052 C1053 1.388 . S
C1053 H1040 0.930 . S
C1053 C1052 1.388 . S
C1053 C1054 1.390 . S
C1054 C1053 1.390 . S
C1054 C1055 1.394 . S
C1054 C1060 1.465 . S
C1055 C1050 1.399 . S
C1055 C1054 1.394 . S
C1055 C1056 1.516 . S
C1056 C1055 1.516 . S
C1056 C1057 1.502 . S
C1056 C1058 1.561 . S
C1056 C1059 1.526 . S
C1057 H1041 0.959 . S
C1057 H1042 0.959 . S
C1057 H1043 0.961 . S
C1057 C1056 1.502 . S
C1058 H1044 0.960 . S
C1058 H1045 0.961 . S
C1058 H1046 0.959 . S
C1058 C1056 1.561 . S
C1059 C1056 1.526 . S
C1059 C1060 1.396 . S
C1059 C1064 1.390 . S
C1060 C1054 1.465 . S
C1060 C1059 1.396 . S
C1060 C1061 1.399 . S
C1061 H1047 0.929 . S
C1061 C1060 1.399 . S
C1061 C1062 1.385 . S
C1062 H1048 0.931 . S
C1062 C1061 1.385 . S
C1062 C1063 1.389 . S
C1063 C1062 1.389 . S
C1063 C1064 1.387 . S
C1064 H1049 0.930 . S
C1064 C1059 1.390 . S
C1064 C1063 1.387 . S
H1065 C1077 0.930 . S
H1066 C1079 0.930 . S
H1067 C1080 0.930 . S
H1068 C1084 0.959 . S
H1069 C1084 0.959 . S
H1070 C1084 0.961 . S
H1071 C1085 0.960 1_556 S
H1072 C1085 0.961 . S
H1073 C1085 0.959 1_556 S
H1074 C1088 0.929 . S
H1075 C1089 0.931 . S
H1076 C1091 0.930 . S
C1077 H1065 0.930 . S
C1077 C1078 1.399 . S
C1077 C1082 1.399 1_556 S
C1078 C1077 1.399 . S
C1078 C1079 1.376 . S
C1079 H1066 0.930 . S
C1079 C1078 1.376 . S
C1079 C1080 1.388 . S
C1080 H1067 0.930 . S
C1080 C1079 1.388 . S
C1080 C1081 1.390 1_556 S
C1081 C1080 1.390 1_554 S
C1081 C1082 1.394 . S
C1081 C1087 1.465 . S
C1082 C1077 1.399 1_554 S
C1082 C1081 1.394 . S
C1082 C1083 1.516 . S
C1083 C1082 1.516 . S
C1083 C1084 1.502 . S
C1083 C1085 1.561 . S
C1083 C1086 1.526 . S
C1084 H1068 0.959 . S
C1084 H1069 0.959 . S
C1084 H1070 0.961 . S
C1084 C1083 1.502 . S
C1085 H1071 0.960 1_554 S
C1085 H1072 0.961 . S
C1085 H1073 0.959 1_554 S
C1085 C1083 1.561 . S
C1086 C1083 1.526 . S
C1086 C1087 1.396 . S
C1086 C1091 1.390 . S
C1087 C1081 1.465 . S
C1087 C1086 1.396 . S
C1087 C1088 1.399 . S
C1088 H1074 0.929 . S
C1088 C1087 1.399 . S
C1088 C1089 1.385 . S
C1089 H1075 0.931 . S
C1089 C1088 1.385 . S
C1089 C1090 1.389 . S
C1090 C1089 1.389 . S
C1090 C1091 1.387 . S
C1091 H1076 0.930 . S
C1091 C1086 1.390 . S
C1091 C1090 1.387 . S
H1092 C1104 0.930 . S
H1093 C1106 0.930 . S
H1094 C1107 0.930 . S
H1095 C1111 0.959 . S
H1096 C1111 0.959 . S
H1097 C1111 0.961 . S
H1098 C1112 0.960 . S
H1099 C1112 0.961 . S
H1100 C1112 0.959 . S
H1101 C1115 0.929 . S
H1102 C1116 0.931 . S
H1103 C1118 0.930 . S
C1104 H1092 0.930 . S
C1104 C1105 1.399 . S
C1104 C1109 1.399 . S
C1105 C1104 1.399 . S
C1105 C1106 1.376 . S
C1106 H1093 0.930 . S
C1106 C1105 1.376 . S
C1106 C1107 1.388 . S
C1107 H1094 0.930 . S
C1107 C1106 1.388 . S
C1107 C1108 1.390 . S
C1108 C1107 1.390 . S
C1108 C1109 1.394 . S
C1108 C1114 1.465 . S
C1109 C1104 1.399 . S
C1109 C1108 1.394 . S
C1109 C1110 1.516 . S
C1110 C1109 1.516 . S
C1110 C1111 1.502 . S
C1110 C1112 1.561 . S
C1110 C1113 1.526 . S
C1111 H1095 0.959 . S
C1111 H1096 0.959 . S
C1111 H1097 0.961 . S
C1111 C1110 1.502 . S
C1112 H1098 0.960 . S
C1112 H1099 0.961 . S
C1112 H1100 0.959 . S
C1112 C1110 1.561 . S
C1113 C1110 1.526 . S
C1113 C1114 1.396 . S
C1113 C1118 1.390 . S
C1114 C1108 1.465 . S
C1114 C1113 1.396 . S
C1114 C1115 1.399 . S
C1115 H1101 0.929 . S
C1115 C1114 1.399 . S
C1115 C1116 1.385 . S
C1116 H1102 0.931 . S
C1116 C1115 1.385 . S
C1116 C1117 1.389 . S
C1117 C1116 1.389 . S
C1117 C1118 1.387 . S
C1118 H1103 0.930 . S
C1118 C1113 1.390 . S
C1118 C1117 1.387 . S
H1119 C1131 0.930 . S
H1120 C1133 0.930 . S
H1121 C1134 0.930 . S
H1122 C1138 0.959 . S
H1123 C1138 0.959 . S
H1124 C1138 0.961 . S
H1125 C1139 0.960 . S
H1126 C1139 0.961 . S
H1127 C1139 0.959 . S
H1128 C1142 0.929 . S
H1129 C1143 0.931 . S
H1130 C1145 0.930 . S
C1131 H1119 0.930 . S
C1131 C1132 1.399 . S
C1131 C1136 1.399 . S
C1132 C1131 1.399 . S
C1132 C1133 1.376 . S
C1133 H1120 0.930 . S
C1133 C1132 1.376 . S
C1133 C1134 1.388 . S
C1134 H1121 0.930 . S
C1134 C1133 1.388 . S
C1134 C1135 1.390 . S
C1135 C1134 1.390 . S
C1135 C1136 1.394 . S
C1135 C1141 1.465 . S
C1136 C1131 1.399 . S
C1136 C1135 1.394 . S
C1136 C1137 1.516 . S
C1137 C1136 1.516 . S
C1137 C1138 1.502 . S
C1137 C1139 1.561 . S
C1137 C1140 1.526 . S
C1138 H1122 0.959 . S
C1138 H1123 0.959 . S
C1138 H1124 0.961 . S
C1138 C1137 1.502 . S
C1139 H1125 0.960 . S
C1139 H1126 0.961 . S
C1139 H1127 0.959 . S
C1139 C1137 1.561 . S
C1140 C1137 1.526 . S
C1140 C1141 1.396 . S
C1140 C1145 1.390 . S
C1141 C1135 1.465 . S
C1141 C1140 1.396 . S
C1141 C1142 1.399 . S
C1142 H1128 0.929 . S
C1142 C1141 1.399 . S
C1142 C1143 1.385 . S
C1143 H1129 0.931 . S
C1143 C1142 1.385 . S
C1143 C1144 1.389 . S
C1144 C1143 1.389 . S
C1144 C1145 1.387 . S
C1145 H1130 0.930 . S
C1145 C1140 1.390 . S
C1145 C1144 1.387 . S
H1146 C1158 0.930 . S
H1147 C1160 0.930 . S
H1148 C1161 0.930 . S
H1149 C1165 0.959 . S
H1150 C1165 0.959 . S
H1151 C1165 0.961 . S
H1152 C1166 0.960 . S
H1153 C1166 0.961 . S
H1154 C1166 0.959 . S
H1155 C1169 0.929 . S
H1156 C1170 0.931 . S
H1157 C1172 0.930 . S
C1158 H1146 0.930 . S
C1158 C1159 1.399 . S
C1158 C1163 1.399 . S
C1159 C1158 1.399 . S
C1159 C1160 1.376 . S
C1160 H1147 0.930 . S
C1160 C1159 1.376 . S
C1160 C1161 1.388 . S
C1161 H1148 0.930 . S
C1161 C1160 1.388 . S
C1161 C1162 1.390 . S
C1162 C1161 1.390 . S
C1162 C1163 1.394 . S
C1162 C1168 1.465 . S
C1163 C1158 1.399 . S
C1163 C1162 1.394 . S
C1163 C1164 1.516 . S
C1164 C1163 1.516 . S
C1164 C1165 1.502 . S
C1164 C1166 1.561 . S
C1164 C1167 1.526 . S
C1165 H1149 0.959 . S
C1165 H1150 0.959 . S
C1165 H1151 0.961 . S
C1165 C1164 1.502 . S
C1166 H1152 0.960 . S
C1166 H1153 0.961 . S
C1166 H1154 0.959 . S
C1166 C1164 1.561 . S
C1167 C1164 1.526 . S
C1167 C1168 1.396 . S
C1167 C1172 1.390 . S
C1168 C1162 1.465 . S
C1168 C1167 1.396 . S
C1168 C1169 1.399 . S
C1169 H1155 0.929 . S
C1169 C1168 1.399 . S
C1169 C1170 1.385 . S
C1170 H1156 0.931 . S
C1170 C1169 1.385 . S
C1170 C1171 1.389 . S
C1171 C1170 1.389 . S
C1171 C1172 1.387 . S
C1172 H1157 0.930 . S
C1172 C1167 1.390 . S
C1172 C1171 1.387 . S
H1173 C1185 0.930 . S
H1174 C1187 0.930 . S
H1175 C1188 0.930 . S
H1176 C1192 0.959 . S
H1177 C1192 0.959 . S
H1178 C1192 0.961 . S
H1179 C1193 0.960 1_654 S
H1180 C1193 0.961 . S
H1181 C1193 0.959 1_554 S
H1182 C1196 0.929 . S
H1183 C1197 0.931 . S
H1184 C1199 0.930 . S
C1185 H1173 0.930 . S
C1185 C1186 1.399 . S
C1185 C1190 1.399 1_655 S
C1186 C1185 1.399 . S
C1186 C1187 1.376 1_655 S
C1187 H1174 0.930 . S
C1187 C1186 1.376 1_455 S
C1187 C1188 1.388 . S
C1188 H1175 0.930 . S
C1188 C1187 1.388 . S
C1188 C1189 1.390 . S
C1189 C1188 1.390 . S
C1189 C1190 1.394 . S
C1189 C1195 1.465 1_554 S
C1190 C1185 1.399 1_455 S
C1190 C1189 1.394 . S
C1190 C1191 1.516 1_554 S
C1191 C1190 1.516 1_556 S
C1191 C1192 1.502 1_455 S
C1191 C1193 1.561 . S
C1191 C1194 1.526 . S
C1192 H1176 0.959 . S
C1192 H1177 0.959 . S
C1192 H1178 0.961 . S
C1192 C1191 1.502 1_655 S
C1193 H1179 0.960 1_456 S
C1193 H1180 0.961 . S
C1193 H1181 0.959 1_556 S
C1193 C1191 1.561 . S
C1194 C1191 1.526 . S
C1194 C1195 1.396 . S
C1194 C1199 1.390 . S
C1195 C1189 1.465 1_556 S
C1195 C1194 1.396 . S
C1195 C1196 1.399 . S
C1196 H1182 0.929 . S
C1196 C1195 1.399 . S
C1196 C1197 1.385 . S
C1197 H1183 0.931 . S
C1197 C1196 1.385 . S
C1197 C1198 1.389 . S
C1198 C1197 1.389 . S
C1198 C1199 1.387 . S
C1199 H1184 0.930 . S
C1199 C1194 1.390 . S
C1199 C1198 1.387 . S
H1200 C1212 0.930 . S
H1201 C1214 0.930 . S
H1202 C1215 0.930 . S
H1203 C1219 0.959 . S
H1204 C1219 0.959 . S
H1205 C1219 0.961 . S
H1206 C1220 0.960 . S
H1207 C1220 0.961 . S
H1208 C1220 0.959 . S
H1209 C1223 0.929 . S
H1210 C1224 0.931 . S
H1211 C1226 0.930 . S
C1212 H1200 0.930 . S
C1212 C1213 1.399 . S
C1212 C1217 1.399 . S
C1213 C1212 1.399 . S
C1213 C1214 1.376 . S
C1214 H1201 0.930 . S
C1214 C1213 1.376 . S
C1214 C1215 1.388 . S
C1215 H1202 0.930 . S
C1215 C1214 1.388 . S
C1215 C1216 1.390 . S
C1216 C1215 1.390 . S
C1216 C1217 1.394 . S
C1216 C1222 1.465 . S
C1217 C1212 1.399 . S
C1217 C1216 1.394 . S
C1217 C1218 1.516 . S
C1218 C1217 1.516 . S
C1218 C1219 1.502 . S
C1218 C1220 1.561 . S
C1218 C1221 1.526 . S
C1219 H1203 0.959 . S
C1219 H1204 0.959 . S
C1219 H1205 0.961 . S
C1219 C1218 1.502 . S
C1220 H1206 0.960 . S
C1220 H1207 0.961 . S
C1220 H1208 0.959 . S
C1220 C1218 1.561 . S
C1221 C1218 1.526 . S
C1221 C1222 1.396 . S
C1221 C1226 1.390 . S
C1222 C1216 1.465 . S
C1222 C1221 1.396 . S
C1222 C1223 1.399 . S
C1223 H1209 0.929 . S
C1223 C1222 1.399 . S
C1223 C1224 1.385 . S
C1224 H1210 0.931 . S
C1224 C1223 1.385 . S
C1224 C1225 1.389 . S
C1225 C1224 1.389 . S
C1225 C1226 1.387 . S
C1226 H1211 0.930 . S
C1226 C1221 1.390 . S
C1226 C1225 1.387 . S
H1227 C1239 0.930 . S
H1228 C1241 0.930 . S
H1229 C1242 0.930 . S
H1230 C1246 0.959 . S
H1231 C1246 0.959 . S
H1232 C1246 0.961 . S
H1233 C1247 0.960 . S
H1234 C1247 0.961 . S
H1235 C1247 0.959 . S
H1236 C1250 0.929 . S
H1237 C1251 0.931 . S
H1238 C1253 0.930 . S
C1239 H1227 0.930 . S
C1239 C1240 1.399 . S
C1239 C1244 1.399 . S
C1240 C1239 1.399 . S
C1240 C1241 1.376 . S
C1241 H1228 0.930 . S
C1241 C1240 1.376 . S
C1241 C1242 1.388 . S
C1242 H1229 0.930 . S
C1242 C1241 1.388 . S
C1242 C1243 1.390 . S
C1243 C1242 1.390 . S
C1243 C1244 1.394 . S
C1243 C1249 1.465 . S
C1244 C1239 1.399 . S
C1244 C1243 1.394 . S
C1244 C1245 1.516 . S
C1245 C1244 1.516 . S
C1245 C1246 1.502 . S
C1245 C1247 1.561 . S
C1245 C1248 1.526 . S
C1246 H1230 0.959 . S
C1246 H1231 0.959 . S
C1246 H1232 0.961 . S
C1246 C1245 1.502 . S
C1247 H1233 0.960 . S
C1247 H1234 0.961 . S
C1247 H1235 0.959 . S
C1247 C1245 1.561 . S
C1248 C1245 1.526 . S
C1248 C1249 1.396 . S
C1248 C1253 1.390 . S
C1249 C1243 1.465 . S
C1249 C1248 1.396 . S
C1249 C1250 1.399 . S
C1250 H1236 0.929 . S
C1250 C1249 1.399 . S
C1250 C1251 1.385 . S
C1251 H1237 0.931 . S
C1251 C1250 1.385 . S
C1251 C1252 1.389 . S
C1252 C1251 1.389 . S
C1252 C1253 1.387 . S
C1253 H1238 0.930 . S
C1253 C1248 1.390 . S
C1253 C1252 1.387 . S
H1254 C1266 0.930 . S
H1255 C1268 0.930 . S
H1256 C1269 0.930 . S
H1257 C1273 0.959 . S
H1258 C1273 0.959 . S
H1259 C1273 0.961 . S
H1260 C1274 0.960 . S
H1261 C1274 0.961 . S
H1262 C1274 0.959 . S
H1263 C1277 0.929 . S
H1264 C1278 0.931 . S
H1265 C1280 0.930 . S
C1266 H1254 0.930 . S
C1266 C1267 1.399 1_554 S
C1266 C1271 1.399 . S
C1267 C1266 1.399 1_556 S
C1267 C1268 1.376 . S
C1268 H1255 0.930 . S
C1268 C1267 1.376 . S
C1268 C1269 1.388 . S
C1269 H1256 0.930 . S
C1269 C1268 1.388 . S
C1269 C1270 1.390 1_556 S
C1270 C1269 1.390 1_554 S
C1270 C1271 1.394 . S
C1270 C1276 1.465 . S
C1271 C1266 1.399 . S
C1271 C1270 1.394 . S
C1271 C1272 1.516 . S
C1272 C1271 1.516 . S
C1272 C1273 1.502 . S
C1272 C1274 1.561 . S
C1272 C1275 1.526 . S
C1273 H1257 0.959 . S
C1273 H1258 0.959 . S
C1273 H1259 0.961 . S
C1273 C1272 1.502 . S
C1274 H1260 0.960 . S
C1274 H1261 0.961 . S
C1274 H1262 0.959 . S
C1274 C1272 1.561 . S
C1275 C1272 1.526 . S
C1275 C1276 1.396 . S
C1275 C1280 1.390 . S
C1276 C1270 1.465 . S
C1276 C1275 1.396 . S
C1276 C1277 1.399 . S
C1277 H1263 0.929 . S
C1277 C1276 1.399 . S
C1277 C1278 1.385 . S
C1278 H1264 0.931 . S
C1278 C1277 1.385 . S
C1278 C1279 1.389 . S
C1279 C1278 1.389 . S
C1279 C1280 1.387 . S
C1280 H1265 0.930 . S
C1280 C1275 1.390 . S
C1280 C1279 1.387 . S
H1281 C1293 0.930 . S
H1282 C1295 0.930 . S
H1283 C1296 0.930 . S
H1284 C1300 0.959 . S
H1285 C1300 0.959 . S
H1286 C1300 0.961 . S
H1287 C1301 0.960 . S
H1288 C1301 0.961 . S
H1289 C1301 0.959 . S
H1290 C1304 0.929 . S
H1291 C1305 0.931 . S
H1292 C1307 0.930 . S
C1293 H1281 0.930 . S
C1293 C1294 1.399 . S
C1293 C1298 1.399 . S
C1294 C1293 1.399 . S
C1294 C1295 1.376 . S
C1295 H1282 0.930 . S
C1295 C1294 1.376 . S
C1295 C1296 1.388 . S
C1296 H1283 0.930 . S
C1296 C1295 1.388 . S
C1296 C1297 1.390 . S
C1297 C1296 1.390 . S
C1297 C1298 1.394 . S
C1297 C1303 1.465 . S
C1298 C1293 1.399 . S
C1298 C1297 1.394 . S
C1298 C1299 1.516 . S
C1299 C1298 1.516 . S
C1299 C1300 1.502 . S
C1299 C1301 1.561 . S
C1299 C1302 1.526 . S
C1300 H1284 0.959 . S
C1300 H1285 0.959 . S
C1300 H1286 0.961 . S
C1300 C1299 1.502 . S
C1301 H1287 0.960 . S
C1301 H1288 0.961 . S
C1301 H1289 0.959 . S
C1301 C1299 1.561 . S
C1302 C1299 1.526 . S
C1302 C1303 1.396 . S
C1302 C1307 1.390 . S
C1303 C1297 1.465 . S
C1303 C1302 1.396 . S
C1303 C1304 1.399 . S
C1304 H1290 0.929 . S
C1304 C1303 1.399 . S
C1304 C1305 1.385 . S
C1305 H1291 0.931 . S
C1305 C1304 1.385 . S
C1305 C1306 1.389 . S
C1306 C1305 1.389 . S
C1306 C1307 1.387 . S
C1307 H1292 0.930 . S
C1307 C1302 1.390 . S
C1307 C1306 1.387 . S
H1308 C1320 0.930 . S
H1309 C1322 0.930 . S
H1310 C1323 0.933 . S
H1311 C1327 0.959 1_565 S
H1312 C1327 0.959 1_565 S
H1313 C1327 0.961 . S
H1314 C1328 0.960 . S
H1315 C1328 0.961 . S
H1316 C1328 0.959 . S
H1317 C1331 0.929 . S
H1318 C1332 0.931 . S
H1319 C1334 0.930 . S
C1320 H1308 0.930 . S
C1320 C1321 1.399 . S
C1320 C1325 1.399 1_556 S
C1321 C1320 1.399 . S
C1321 C1322 1.376 . S
C1322 H1309 0.930 . S
C1322 C1321 1.376 . S
C1322 C1323 1.388 . S
C1323 H1310 0.933 . S
C1323 C1322 1.388 . S
C1323 C1324 1.390 1_556 S
C1324 C1323 1.390 1_554 S
C1324 C1325 1.394 . S
C1324 C1330 1.465 1_545 S
C1325 C1320 1.399 1_554 S
C1325 C1324 1.394 . S
C1325 C1326 1.516 . S
C1326 C1325 1.516 . S
C1326 C1327 1.502 . S
C1326 C1328 1.561 . S
C1326 C1329 1.526 1_545 S
C1327 H1311 0.959 1_545 S
C1327 H1312 0.959 1_545 S
C1327 H1313 0.961 . S
C1327 C1326 1.502 . S
C1328 H1314 0.960 . S
C1328 H1315 0.961 . S
C1328 H1316 0.959 . S
C1328 C1326 1.561 . S
C1329 C1326 1.526 1_565 S
C1329 C1330 1.396 . S
C1329 C1334 1.390 . S
C1330 C1324 1.465 1_565 S
C1330 C1329 1.396 . S
C1330 C1331 1.399 . S
C1331 H1317 0.929 . S
C1331 C1330 1.399 . S
C1331 C1332 1.385 . S
C1332 H1318 0.931 . S
C1332 C1331 1.385 . S
C1332 C1333 1.389 . S
C1333 C1332 1.389 . S
C1333 C1334 1.387 . S
C1334 H1319 0.930 . S
C1334 C1329 1.390 . S
C1334 C1333 1.387 . S
H1335 C1347 0.930 . S
H1336 C1349 0.930 . S
H1337 C1350 0.930 . S
H1338 C1354 0.959 . S
H1339 C1354 0.959 . S
H1340 C1354 0.961 . S
H1341 C1355 0.960 . S
H1342 C1355 0.961 . S
H1343 C1355 0.959 . S
H1344 C1358 0.929 . S
H1345 C1359 0.931 . S
H1346 C1361 0.930 . S
C1347 H1335 0.930 . S
C1347 C1348 1.399 . S
C1347 C1352 1.399 . S
C1348 C1347 1.399 . S
C1348 C1349 1.376 . S
C1349 H1336 0.930 . S
C1349 C1348 1.376 . S
C1349 C1350 1.388 . S
C1350 H1337 0.930 . S
C1350 C1349 1.388 . S
C1350 C1351 1.390 . S
C1351 C1350 1.390 . S
C1351 C1352 1.394 . S
C1351 C1357 1.465 . S
C1352 C1347 1.399 . S
C1352 C1351 1.394 . S
C1352 C1353 1.516 . S
C1353 C1352 1.516 . S
C1353 C1354 1.502 . S
C1353 C1355 1.561 . S
C1353 C1356 1.526 . S
C1354 H1338 0.959 . S
C1354 H1339 0.959 . S
C1354 H1340 0.961 . S
C1354 C1353 1.502 . S
C1355 H1341 0.960 . S
C1355 H1342 0.961 . S
C1355 H1343 0.959 . S
C1355 C1353 1.561 . S
C1356 C1353 1.526 . S
C1356 C1357 1.396 . S
C1356 C1361 1.390 . S
C1357 C1351 1.465 . S
C1357 C1356 1.396 . S
C1357 C1358 1.399 . S
C1358 H1344 0.929 . S
C1358 C1357 1.399 . S
C1358 C1359 1.385 . S
C1359 H1345 0.931 . S
C1359 C1358 1.385 . S
C1359 C1360 1.389 . S
C1360 C1359 1.389 . S
C1360 C1361 1.387 . S
C1361 H1346 0.930 . S
C1361 C1356 1.390 . S
C1361 C1360 1.387 . S
H1362 C1374 0.930 . S
H1363 C1376 0.930 . S
H1364 C1377 0.930 . S
H1365 C1381 0.959 . S
H1366 C1381 0.959 . S
H1367 C1381 0.961 . S
H1368 C1382 0.960 . S
H1369 C1382 0.961 . S
H1370 C1382 0.959 . S
H1371 C1385 0.929 . S
H1372 C1386 0.931 . S
H1373 C1388 0.930 . S
C1374 H1362 0.930 . S
C1374 C1375 1.399 . S
C1374 C1379 1.399 . S
C1375 C1374 1.399 . S
C1375 C1376 1.376 . S
C1376 H1363 0.930 . S
C1376 C1375 1.376 . S
C1376 C1377 1.388 . S
C1377 H1364 0.930 . S
C1377 C1376 1.388 . S
C1377 C1378 1.390 . S
C1378 C1377 1.390 . S
C1378 C1379 1.394 . S
C1378 C1384 1.465 . S
C1379 C1374 1.399 . S
C1379 C1378 1.394 . S
C1379 C1380 1.516 . S
C1380 C1379 1.516 . S
C1380 C1381 1.502 . S
C1380 C1382 1.561 . S
C1380 C1383 1.526 . S
C1381 H1365 0.959 . S
C1381 H1366 0.959 . S
C1381 H1367 0.961 . S
C1381 C1380 1.502 . S
C1382 H1368 0.960 . S
C1382 H1369 0.961 . S
C1382 H1370 0.959 . S
C1382 C1380 1.561 . S
C1383 C1380 1.526 . S
C1383 C1384 1.396 . S
C1383 C1388 1.390 . S
C1384 C1378 1.465 . S
C1384 C1383 1.396 . S
C1384 C1385 1.399 . S
C1385 H1371 0.929 . S
C1385 C1384 1.399 . S
C1385 C1386 1.385 . S
C1386 H1372 0.931 . S
C1386 C1385 1.385 . S
C1386 C1387 1.389 . S
C1387 C1386 1.389 . S
C1387 C1388 1.387 . S
C1388 H1373 0.930 . S
C1388 C1383 1.390 . S
C1388 C1387 1.387 . S
H1389 C1401 0.930 . S
H1390 C1403 0.930 . S
H1391 C1404 0.930 1_556 S
H1392 C1408 0.959 . S
H1393 C1408 0.959 . S
H1394 C1408 0.961 1_554 S
H1395 C1409 0.960 . S
H1396 C1409 0.961 . S
H1397 C1409 0.959 . S
H1398 C1412 0.929 . S
H1399 C1413 0.931 . S
H1400 C1415 0.930 . S
C1401 H1389 0.930 . S
C1401 C1402 1.399 . S
C1401 C1406 1.399 . S
C1402 C1401 1.399 . S
C1402 C1403 1.376 . S
C1403 H1390 0.930 . S
C1403 C1402 1.376 . S
C1403 C1404 1.388 . S
C1404 H1391 0.930 1_554 S
C1404 C1403 1.388 . S
C1404 C1405 1.390 1_554 S
C1405 C1404 1.390 1_556 S
C1405 C1406 1.394 1_556 S
C1405 C1411 1.465 . S
C1406 C1401 1.399 . S
C1406 C1405 1.394 1_554 S
C1406 C1407 1.516 1_554 S
C1407 C1406 1.516 1_556 S
C1407 C1408 1.502 . S
C1407 C1409 1.561 1_556 S
C1407 C1410 1.526 . S
C1408 H1392 0.959 . S
C1408 H1393 0.959 . S
C1408 H1394 0.961 1_556 S
C1408 C1407 1.502 . S
C1409 H1395 0.960 . S
C1409 H1396 0.961 . S
C1409 H1397 0.959 . S
C1409 C1407 1.561 1_554 S
C1410 C1407 1.526 . S
C1410 C1411 1.396 . S
C1410 C1415 1.390 . S
C1411 C1405 1.465 . S
C1411 C1410 1.396 . S
C1411 C1412 1.399 . S
C1412 H1398 0.929 . S
C1412 C1411 1.399 . S
C1412 C1413 1.385 . S
C1413 H1399 0.931 . S
C1413 C1412 1.385 . S
C1413 C1414 1.389 . S
C1414 C1413 1.389 . S
C1414 C1415 1.387 . S
C1415 H1400 0.930 . S
C1415 C1410 1.390 . S
C1415 C1414 1.387 . S
H1416 C1428 0.930 . S
H1417 C1430 0.930 . S
H1418 C1431 0.930 . S
H1419 C1435 0.959 . S
H1420 C1435 0.959 . S
H1421 C1435 0.961 . S
H1422 C1436 0.960 . S
H1423 C1436 0.961 . S
H1424 C1436 0.959 . S
H1425 C1439 0.929 . S
H1426 C1440 0.931 . S
H1427 C1442 0.930 . S
C1428 H1416 0.930 . S
C1428 C1429 1.399 . S
C1428 C1433 1.399 . S
C1429 C1428 1.399 . S
C1429 C1430 1.376 . S
C1430 H1417 0.930 . S
C1430 C1429 1.376 . S
C1430 C1431 1.388 . S
C1431 H1418 0.930 . S
C1431 C1430 1.388 . S
C1431 C1432 1.390 . S
C1432 C1431 1.390 . S
C1432 C1433 1.394 . S
C1432 C1438 1.465 . S
C1433 C1428 1.399 . S
C1433 C1432 1.394 . S
C1433 C1434 1.516 . S
C1434 C1433 1.516 . S
C1434 C1435 1.502 . S
C1434 C1436 1.561 . S
C1434 C1437 1.526 . S
C1435 H1419 0.959 . S
C1435 H1420 0.959 . S
C1435 H1421 0.961 . S
C1435 C1434 1.502 . S
C1436 H1422 0.960 . S
C1436 H1423 0.961 . S
C1436 H1424 0.959 . S
C1436 C1434 1.561 . S
C1437 C1434 1.526 . S
C1437 C1438 1.396 . S
C1437 C1442 1.390 . S
C1438 C1432 1.465 . S
C1438 C1437 1.396 . S
C1438 C1439 1.399 . S
C1439 H1425 0.929 . S
C1439 C1438 1.399 . S
C1439 C1440 1.385 . S
C1440 H1426 0.931 . S
C1440 C1439 1.385 . S
C1440 C1441 1.389 . S
C1441 C1440 1.389 . S
C1441 C1442 1.387 . S
C1442 H1427 0.930 . S
C1442 C1437 1.390 . S
C1442 C1441 1.387 . S
H1443 C1455 0.930 . S
H1444 C1457 0.930 . S
H1445 C1458 0.930 . S
H1446 C1462 0.959 . S
H1447 C1462 0.959 . S
H1448 C1462 0.961 . S
H1449 C1463 0.960 . S
H1450 C1463 0.961 . S
H1451 C1463 0.959 . S
H1452 C1466 0.929 . S
H1453 C1467 0.931 . S
H1454 C1469 0.930 . S
C1455 H1443 0.930 . S
C1455 C1456 1.399 . S
C1455 C1460 1.399 . S
C1456 C1455 1.399 . S
C1456 C1457 1.376 . S
C1457 H1444 0.930 . S
C1457 C1456 1.376 . S
C1457 C1458 1.388 . S
C1458 H1445 0.930 . S
C1458 C1457 1.388 . S
C1458 C1459 1.390 . S
C1459 C1458 1.390 . S
C1459 C1460 1.394 . S
C1459 C1465 1.465 . S
C1460 C1455 1.399 . S
C1460 C1459 1.394 . S
C1460 C1461 1.516 . S
C1461 C1460 1.516 . S
C1461 C1462 1.502 . S
C1461 C1463 1.561 . S
C1461 C1464 1.526 . S
C1462 H1446 0.959 . S
C1462 H1447 0.959 . S
C1462 H1448 0.961 . S
C1462 C1461 1.502 . S
C1463 H1449 0.960 . S
C1463 H1450 0.961 . S
C1463 H1451 0.959 . S
C1463 C1461 1.561 . S
C1464 C1461 1.526 . S
C1464 C1465 1.396 . S
C1464 C1469 1.390 . S
C1465 C1459 1.465 . S
C1465 C1464 1.396 . S
C1465 C1466 1.399 . S
C1466 H1452 0.929 . S
C1466 C1465 1.399 . S
C1466 C1467 1.385 . S
C1467 H1453 0.931 . S
C1467 C1466 1.385 . S
C1467 C1468 1.389 . S
C1468 C1467 1.389 . S
C1468 C1469 1.387 . S
C1469 H1454 0.930 . S
C1469 C1464 1.390 . S
C1469 C1468 1.387 . S
H1470 C1482 0.930 . S
H1471 C1484 0.930 . S
H1472 C1485 0.930 . S
H1473 C1489 0.959 . S
H1474 C1489 0.959 . S
H1475 C1489 0.961 . S
H1476 C1490 0.960 . S
H1477 C1490 0.961 . S
H1478 C1490 0.959 . S
H1479 C1493 0.929 . S
H1480 C1494 0.931 . S
H1481 C1496 0.930 . S
C1482 H1470 0.930 . S
C1482 C1483 1.399 . S
C1482 C1487 1.399 . S
C1483 C1482 1.399 . S
C1483 C1484 1.376 . S
C1484 H1471 0.930 . S
C1484 C1483 1.376 . S
C1484 C1485 1.388 . S
C1485 H1472 0.930 . S
C1485 C1484 1.388 . S
C1485 C1486 1.390 . S
C1486 C1485 1.390 . S
C1486 C1487 1.394 . S
C1486 C1492 1.465 . S
C1487 C1482 1.399 . S
C1487 C1486 1.394 . S
C1487 C1488 1.516 . S
C1488 C1487 1.516 . S
C1488 C1489 1.502 . S
C1488 C1490 1.561 . S
C1488 C1491 1.526 . S
C1489 H1473 0.959 . S
C1489 H1474 0.959 . S
C1489 H1475 0.961 . S
C1489 C1488 1.502 . S
C1490 H1476 0.960 . S
C1490 H1477 0.961 . S
C1490 H1478 0.959 . S
C1490 C1488 1.561 . S
C1491 C1488 1.526 . S
C1491 C1492 1.396 . S
C1491 C1496 1.390 . S
C1492 C1486 1.465 . S
C1492 C1491 1.396 . S
C1492 C1493 1.399 . S
C1493 H1479 0.929 . S
C1493 C1492 1.399 . S
C1493 C1494 1.385 . S
C1494 H1480 0.931 . S
C1494 C1493 1.385 . S
C1494 C1495 1.389 . S
C1495 C1494 1.389 . S
C1495 C1496 1.387 . S
C1496 H1481 0.930 . S
C1496 C1491 1.390 . S
C1496 C1495 1.387 . S
H1497 C1509 0.930 . S
H1498 C1511 0.930 . S
H1499 C1512 0.930 . S
H1500 C1516 0.959 . S
H1501 C1516 0.959 . S
H1502 C1516 0.961 . S
H1503 C1517 0.960 . S
H1504 C1517 0.961 . S
H1505 C1517 0.959 1_655 S
H1506 C1520 0.929 . S
H1507 C1521 0.931 . S
H1508 C1523 0.933 . S
C1509 H1497 0.930 . S
C1509 C1510 1.399 . S
C1509 C1514 1.399 . S
C1510 C1509 1.399 . S
C1510 C1511 1.376 . S
C1511 H1498 0.930 . S
C1511 C1510 1.376 . S
C1511 C1512 1.388 . S
C1512 H1499 0.930 . S
C1512 C1511 1.388 . S
C1512 C1513 1.390 . S
C1513 C1512 1.390 . S
C1513 C1514 1.394 . S
C1513 C1519 1.465 . S
C1514 C1509 1.399 . S
C1514 C1513 1.394 . S
C1514 C1515 1.516 . S
C1515 C1514 1.516 . S
C1515 C1516 1.502 . S
C1515 C1517 1.561 . S
C1515 C1518 1.526 . S
C1516 H1500 0.959 . S
C1516 H1501 0.959 . S
C1516 H1502 0.961 . S
C1516 C1515 1.502 . S
C1517 H1503 0.960 . S
C1517 H1504 0.961 . S
C1517 H1505 0.959 1_455 S
C1517 C1515 1.561 . S
C1518 C1515 1.526 . S
C1518 C1519 1.396 . S
C1518 C1523 1.390 1_455 S
C1519 C1513 1.465 . S
C1519 C1518 1.396 . S
C1519 C1520 1.399 1_455 S
C1520 H1506 0.929 . S
C1520 C1519 1.399 1_655 S
C1520 C1521 1.385 . S
C1521 H1507 0.931 . S
C1521 C1520 1.385 . S
C1521 C1522 1.389 . S
C1522 C1521 1.389 . S
C1522 C1523 1.387 . S
C1523 H1508 0.933 . S
C1523 C1518 1.390 1_655 S
C1523 C1522 1.387 . S
H1524 C1536 0.930 . S
H1525 C1538 0.930 . S
H1526 C1539 0.930 . S
H1527 C1543 0.959 . S
H1528 C1543 0.959 . S
H1529 C1543 0.961 . S
H1530 C1544 0.960 . S
H1531 C1544 0.961 . S
H1532 C1544 0.959 . S
H1533 C1547 0.929 . S
H1534 C1548 0.931 . S
H1535 C1550 0.930 . S
C1536 H1524 0.930 . S
C1536 C1537 1.399 . S
C1536 C1541 1.399 . S
C1537 C1536 1.399 . S
C1537 C1538 1.376 . S
C1538 H1525 0.930 . S
C1538 C1537 1.376 . S
C1538 C1539 1.388 . S
C1539 H1526 0.930 . S
C1539 C1538 1.388 . S
C1539 C1540 1.390 . S
C1540 C1539 1.390 . S
C1540 C1541 1.394 . S
C1540 C1546 1.465 . S
C1541 C1536 1.399 . S
C1541 C1540 1.394 . S
C1541 C1542 1.516 . S
C1542 C1541 1.516 . S
C1542 C1543 1.502 . S
C1542 C1544 1.561 . S
C1542 C1545 1.526 . S
C1543 H1527 0.959 . S
C1543 H1528 0.959 . S
C1543 H1529 0.961 . S
C1543 C1542 1.502 . S
C1544 H1530 0.960 . S
C1544 H1531 0.961 . S
C1544 H1532 0.959 . S
C1544 C1542 1.561 . S
C1545 C1542 1.526 . S
C1545 C1546 1.396 . S
C1545 C1550 1.390 . S
C1546 C1540 1.465 . S
C1546 C1545 1.396 . S
C1546 C1547 1.399 . S
C1547 H1533 0.929 . S
C1547 C1546 1.399 . S
C1547 C1548 1.385 . S
C1548 H1534 0.931 . S
C1548 C1547 1.385 . S
C1548 C1549 1.389 . S
C1549 C1548 1.389 . S
C1549 C1550 1.387 . S
C1550 H1535 0.930 . S
C1550 C1545 1.390 . S
C1550 C1549 1.387 . S
H1551 C1563 0.927 1_455 S
H1552 C1565 0.930 . S
H1553 C1566 0.930 . S
H1554 C1570 0.959 . S
H1555 C1570 0.959 . S
H1556 C1570 0.961 . S
H1557 C1571 0.960 . S
H1558 C1571 0.961 . S
H1559 C1571 0.959 1_655 S
H1560 C1574 0.929 . S
H1561 C1575 0.931 . S
H1562 C1577 0.930 . S
C1563 H1551 0.927 1_655 S
C1563 C1564 1.399 . S
C1563 C1568 1.399 1_655 S
C1564 C1563 1.399 . S
C1564 C1565 1.376 . S
C1565 H1552 0.930 . S
C1565 C1564 1.376 . S
C1565 C1566 1.388 . S
C1566 H1553 0.930 . S
C1566 C1565 1.388 . S
C1566 C1567 1.390 1_655 S
C1567 C1566 1.390 1_455 S
C1567 C1568 1.394 . S
C1567 C1573 1.465 . S
C1568 C1563 1.399 1_455 S
C1568 C1567 1.394 . S
C1568 C1569 1.516 . S
C1569 C1568 1.516 . S
C1569 C1570 1.502 . S
C1569 C1571 1.561 . S
C1569 C1572 1.526 . S
C1570 H1554 0.959 . S
C1570 H1555 0.959 . S
C1570 H1556 0.961 . S
C1570 C1569 1.502 . S
C1571 H1557 0.960 . S
C1571 H1558 0.961 . S
C1571 H1559 0.959 1_455 S
C1571 C1569 1.561 . S
C1572 C1569 1.526 . S
C1572 C1573 1.396 . S
C1572 C1577 1.390 . S
C1573 C1567 1.465 . S
C1573 C1572 1.396 . S
C1573 C1574 1.399 . S
C1574 H1560 0.929 . S
C1574 C1573 1.399 . S
C1574 C1575 1.385 . S
C1575 H1561 0.931 . S
C1575 C1574 1.385 . S
C1575 C1576 1.389 . S
C1576 C1575 1.389 . S
C1576 C1577 1.387 . S
C1577 H1562 0.930 . S
C1577 C1572 1.390 . S
C1577 C1576 1.387 . S
H1578 C1590 0.930 . S
H1579 C1592 0.930 . S
H1580 C1593 0.930 . S
H1581 C1597 0.959 . S
H1582 C1597 0.959 . S
H1583 C1597 0.961 . S
H1584 C1598 0.960 . S
H1585 C1598 0.961 . S
H1586 C1598 0.959 . S
H1587 C1601 0.929 . S
H1588 C1602 0.931 . S
H1589 C1604 0.930 . S
C1590 H1578 0.930 . S
C1590 C1591 1.399 . S
C1590 C1595 1.399 . S
C1591 C1590 1.399 . S
C1591 C1592 1.376 . S
C1592 H1579 0.930 . S
C1592 C1591 1.376 . S
C1592 C1593 1.388 . S
C1593 H1580 0.930 . S
C1593 C1592 1.388 . S
C1593 C1594 1.390 . S
C1594 C1593 1.390 . S
C1594 C1595 1.394 . S
C1594 C1600 1.465 . S
C1595 C1590 1.399 . S
C1595 C1594 1.394 . S
C1595 C1596 1.516 . S
C1596 C1595 1.516 . S
C1596 C1597 1.502 . S
C1596 C1598 1.561 . S
C1596 C1599 1.526 . S
C1597 H1581 0.959 . S
C1597 H1582 0.959 . S
C1597 H1583 0.961 . S
C1597 C1596 1.502 . S
C1598 H1584 0.960 . S
C1598 H1585 0.961 . S
C1598 H1586 0.959 . S
C1598 C1596 1.561 . S
C1599 C1596 1.526 . S
C1599 C1600 1.396 . S
C1599 C1604 1.390 . S
C1600 C1594 1.465 . S
C1600 C1599 1.396 . S
C1600 C1601 1.399 . S
C1601 H1587 0.929 . S
C1601 C1600 1.399 . S
C1601 C1602 1.385 . S
C1602 H1588 0.931 . S
C1602 C1601 1.385 . S
C1602 C1603 1.389 . S
C1603 C1602 1.389 . S
C1603 C1604 1.387 . S
C1604 H1589 0.930 . S
C1604 C1599 1.390 . S
C1604 C1603 1.387 . S
H1605 C1617 0.930 . S
H1606 C1619 0.930 . S
H1607 C1620 0.930 . S
H1608 C1624 0.959 . S
H1609 C1624 0.959 . S
H1610 C1624 0.961 . S
H1611 C1625 0.960 . S
H1612 C1625 0.961 . S
H1613 C1625 0.959 . S
H1614 C1628 0.929 . S
H1615 C1629 0.931 . S
H1616 C1631 0.930 . S
C1617 H1605 0.930 . S
C1617 C1618 1.399 . S
C1617 C1622 1.399 . S
C1618 C1617 1.399 . S
C1618 C1619 1.376 . S
C1619 H1606 0.930 . S
C1619 C1618 1.376 . S
C1619 C1620 1.388 . S
C1620 H1607 0.930 . S
C1620 C1619 1.388 . S
C1620 C1621 1.390 . S
C1621 C1620 1.390 . S
C1621 C1622 1.394 . S
C1621 C1627 1.465 . S
C1622 C1617 1.399 . S
C1622 C1621 1.394 . S
C1622 C1623 1.516 . S
C1623 C1622 1.516 . S
C1623 C1624 1.502 . S
C1623 C1625 1.561 . S
C1623 C1626 1.526 . S
C1624 H1608 0.959 . S
C1624 H1609 0.959 . S
C1624 H1610 0.961 . S
C1624 C1623 1.502 . S
C1625 H1611 0.960 . S
C1625 H1612 0.961 . S
C1625 H1613 0.959 . S
C1625 C1623 1.561 . S
C1626 C1623 1.526 . S
C1626 C1627 1.396 . S
C1626 C1631 1.390 . S
C1627 C1621 1.465 . S
C1627 C1626 1.396 . S
C1627 C1628 1.399 . S
C1628 H1614 0.929 . S
C1628 C1627 1.399 . S
C1628 C1629 1.385 . S
C1629 H1615 0.931 . S
C1629 C1628 1.385 . S
C1629 C1630 1.389 . S
C1630 C1629 1.389 . S
C1630 C1631 1.387 . S
C1631 H1616 0.930 . S
C1631 C1626 1.390 . S
C1631 C1630 1.387 . S
H1632 C1644 0.930 . S
H1633 C1646 0.930 . S
H1634 C1647 0.930 . S
H1635 C1651 0.959 . S
H1636 C1651 0.959 . S
H1637 C1651 0.961 . S
H1638 C1652 0.960 . S
H1639 C1652 0.961 . S
H1640 C1652 0.959 . S
H1641 C1655 0.929 . S
H1642 C1656 0.931 . S
H1643 C1658 0.930 . S
C1644 H1632 0.930 . S
C1644 C1645 1.399 . S
C1644 C1649 1.399 . S
C1645 C1644 1.399 . S
C1645 C1646 1.376 . S
C1646 H1633 0.930 . S
C1646 C1645 1.376 . S
C1646 C1647 1.388 . S
C1647 H1634 0.930 . S
C1647 C1646 1.388 . S
C1647 C1648 1.390 . S
C1648 C1647 1.390 . S
C1648 C1649 1.394 . S
C1648 C1654 1.465 . S
C1649 C1644 1.399 . S
C1649 C1648 1.394 . S
C1649 C1650 1.516 . S
C1650 C1649 1.516 . S
C1650 C1651 1.502 . S
C1650 C1652 1.561 . S
C1650 C1653 1.526 . S
C1651 H1635 0.959 . S
C1651 H1636 0.959 . S
C1651 H1637 0.961 . S
C1651 C1650 1.502 . S
C1652 H1638 0.960 . S
C1652 H1639 0.961 . S
C1652 H1640 0.959 . S
C1652 C1650 1.561 . S
C1653 C1650 1.526 . S
C1653 C1654 1.396 . S
C1653 C1658 1.390 . S
C1654 C1648 1.465 . S
C1654 C1653 1.396 . S
C1654 C1655 1.399 . S
C1655 H1641 0.929 . S
C1655 C1654 1.399 . S
C1655 C1656 1.385 . S
C1656 H1642 0.931 . S
C1656 C1655 1.385 . S
C1656 C1657 1.389 . S
C1657 C1656 1.389 . S
C1657 C1658 1.387 . S
C1658 H1643 0.930 . S
C1658 C1653 1.390 . S
C1658 C1657 1.387 . S
H1659 C1671 0.930 . S
H1660 C1673 0.930 . S
H1661 C1674 0.930 . S
H1662 C1678 0.959 . S
H1663 C1678 0.959 . S
H1664 C1678 0.961 . S
H1665 C1679 0.960 . S
H1666 C1679 0.961 . S
H1667 C1679 0.959 . S
H1668 C1682 0.929 . S
H1669 C1683 0.931 . S
H1670 C1685 0.930 . S
C1671 H1659 0.930 . S
C1671 C1672 1.399 . S
C1671 C1676 1.399 . S
C1672 C1671 1.399 . S
C1672 C1673 1.376 . S
C1673 H1660 0.930 . S
C1673 C1672 1.376 . S
C1673 C1674 1.388 . S
C1674 H1661 0.930 . S
C1674 C1673 1.388 . S
C1674 C1675 1.390 . S
C1675 C1674 1.390 . S
C1675 C1676 1.394 . S
C1675 C1681 1.465 . S
C1676 C1671 1.399 . S
C1676 C1675 1.394 . S
C1676 C1677 1.516 . S
C1677 C1676 1.516 . S
C1677 C1678 1.502 1_554 S
C1677 C1679 1.561 . S
C1677 C1680 1.526 . S
C1678 H1662 0.959 . S
C1678 H1663 0.959 . S
C1678 H1664 0.961 . S
C1678 C1677 1.502 1_556 S
C1679 H1665 0.960 . S
C1679 H1666 0.961 . S
C1679 H1667 0.959 . S
C1679 C1677 1.561 . S
C1680 C1677 1.526 . S
C1680 C1681 1.396 . S
C1680 C1685 1.390 1_554 S
C1681 C1675 1.465 . S
C1681 C1680 1.396 . S
C1681 C1682 1.399 . S
C1682 H1668 0.929 . S
C1682 C1681 1.399 . S
C1682 C1683 1.385 . S
C1683 H1669 0.931 . S
C1683 C1682 1.385 . S
C1683 C1684 1.389 1_554 S
C1684 C1683 1.389 1_556 S
C1684 C1685 1.387 . S
C1685 H1670 0.930 . S
C1685 C1680 1.390 1_556 S
C1685 C1684 1.387 . S
H1686 C1698 0.930 . S
H1687 C1700 0.930 . S
H1688 C1701 0.930 . S
H1689 C1705 0.959 . S
H1690 C1705 0.959 . S
H1691 C1705 0.961 . S
H1692 C1706 0.960 . S
H1693 C1706 0.961 . S
H1694 C1706 0.959 . S
H1695 C1709 0.929 . S
H1696 C1710 0.931 . S
H1697 C1712 0.930 . S
C1698 H1686 0.930 . S
C1698 C1699 1.399 . S
C1698 C1703 1.399 . S
C1699 C1698 1.399 . S
C1699 C1700 1.376 . S
C1700 H1687 0.930 . S
C1700 C1699 1.376 . S
C1700 C1701 1.388 . S
C1701 H1688 0.930 . S
C1701 C1700 1.388 . S
C1701 C1702 1.390 . S
C1702 C1701 1.390 . S
C1702 C1703 1.394 . S
C1702 C1708 1.465 . S
C1703 C1698 1.399 . S
C1703 C1702 1.394 . S
C1703 C1704 1.516 . S
C1704 C1703 1.516 . S
C1704 C1705 1.502 . S
C1704 C1706 1.561 . S
C1704 C1707 1.526 . S
C1705 H1689 0.959 . S
C1705 H1690 0.959 . S
C1705 H1691 0.961 . S
C1705 C1704 1.502 . S
C1706 H1692 0.960 . S
C1706 H1693 0.961 . S
C1706 H1694 0.959 . S
C1706 C1704 1.561 . S
C1707 C1704 1.526 . S
C1707 C1708 1.396 . S
C1707 C1712 1.390 . S
C1708 C1702 1.465 . S
C1708 C1707 1.396 . S
C1708 C1709 1.399 . S
C1709 H1695 0.929 . S
C1709 C1708 1.399 . S
C1709 C1710 1.385 . S
C1710 H1696 0.931 . S
C1710 C1709 1.385 . S
C1710 C1711 1.389 . S
C1711 C1710 1.389 . S
C1711 C1712 1.387 . S
C1712 H1697 0.930 . S
C1712 C1707 1.390 . S
C1712 C1711 1.387 . S
H1713 C1725 0.930 . S
H1714 C1727 0.930 . S
H1715 C1728 0.930 . S
H1716 C1732 0.959 . S
H1717 C1732 0.959 . S
H1718 C1732 0.961 1_455 S
H1719 C1733 0.960 . S
H1720 C1733 0.961 . S
H1721 C1733 0.959 . S
H1722 C1736 0.929 . S
H1723 C1737 0.931 . S
H1724 C1739 0.930 . S
C1725 H1713 0.930 . S
C1725 C1726 1.399 . S
C1725 C1730 1.399 . S
C1726 C1725 1.399 . S
C1726 C1727 1.376 . S
C1727 H1714 0.930 . S
C1727 C1726 1.376 . S
C1727 C1728 1.388 . S
C1728 H1715 0.930 . S
C1728 C1727 1.388 . S
C1728 C1729 1.390 1_455 S
C1729 C1728 1.390 1_655 S
C1729 C1730 1.394 1_655 S
C1729 C1735 1.465 . S
C1730 C1725 1.399 . S
C1730 C1729 1.394 1_455 S
C1730 C1731 1.516 1_455 S
C1731 C1730 1.516 1_655 S
C1731 C1732 1.502 . S
C1731 C1733 1.561 . S
C1731 C1734 1.526 . S
C1732 H1716 0.959 . S
C1732 H1717 0.959 . S
C1732 H1718 0.961 1_655 S
C1732 C1731 1.502 . S
C1733 H1719 0.960 . S
C1733 H1720 0.961 . S
C1733 H1721 0.959 . S
C1733 C1731 1.561 . S
C1734 C1731 1.526 . S
C1734 C1735 1.396 . S
C1734 C1739 1.390 . S
C1735 C1729 1.465 . S
C1735 C1734 1.396 . S
C1735 C1736 1.399 . S
C1736 H1722 0.929 . S
C1736 C1735 1.399 . S
C1736 C1737 1.385 . S
C1737 H1723 0.931 . S
C1737 C1736 1.385 . S
C1737 C1738 1.389 . S
C1738 C1737 1.389 . S
C1738 C1739 1.387 . S
C1739 H1724 0.930 . S
C1739 C1734 1.390 . S
C1739 C1738 1.387 . S
H1740 C1752 0.930 . S
H1741 C1754 0.930 . S
H1742 C1755 0.930 . S
H1743 C1759 0.959 . S
H1744 C1759 0.959 . S
H1745 C1759 0.961 . S
H1746 C1760 0.960 . S
H1747 C1760 0.961 . S
H1748 C1760 0.959 . S
H1749 C1763 0.929 . S
H1750 C1764 0.931 . S
H1751 C1766 0.930 . S
C1752 H1740 0.930 . S
C1752 C1753 1.399 . S
C1752 C1757 1.399 . S
C1753 C1752 1.399 . S
C1753 C1754 1.376 . S
C1754 H1741 0.930 . S
C1754 C1753 1.376 . S
C1754 C1755 1.388 . S
C1755 H1742 0.930 . S
C1755 C1754 1.388 . S
C1755 C1756 1.390 . S
C1756 C1755 1.390 . S
C1756 C1757 1.394 . S
C1756 C1762 1.465 . S
C1757 C1752 1.399 . S
C1757 C1756 1.394 . S
C1757 C1758 1.516 . S
C1758 C1757 1.516 . S
C1758 C1759 1.502 . S
C1758 C1760 1.561 . S
C1758 C1761 1.526 . S
C1759 H1743 0.959 . S
C1759 H1744 0.959 . S
C1759 H1745 0.961 . S
C1759 C1758 1.502 . S
C1760 H1746 0.960 . S
C1760 H1747 0.961 . S
C1760 H1748 0.959 . S
C1760 C1758 1.561 . S
C1761 C1758 1.526 . S
C1761 C1762 1.396 . S
C1761 C1766 1.390 . S
C1762 C1756 1.465 . S
C1762 C1761 1.396 . S
C1762 C1763 1.399 . S
C1763 H1749 0.929 . S
C1763 C1762 1.399 . S
C1763 C1764 1.385 . S
C1764 H1750 0.931 . S
C1764 C1763 1.385 . S
C1764 C1765 1.389 . S
C1765 C1764 1.389 . S
C1765 C1766 1.387 . S
C1766 H1751 0.930 . S
C1766 C1761 1.390 . S
C1766 C1765 1.387 . S
H1767 C1779 0.930 . S
H1768 C1781 0.930 . S
H1769 C1782 0.930 . S
H1770 C1786 0.959 1_554 S
H1771 C1786 0.959 1_454 S
H1772 C1786 0.961 . S
H1773 C1787 0.960 1_655 S
H1774 C1787 0.961 . S
H1775 C1787 0.959 . S
H1776 C1790 0.929 . S
H1777 C1791 0.931 . S
H1778 C1793 0.930 . S
C1779 H1767 0.930 . S
C1779 C1780 1.399 . S
C1779 C1784 1.399 . S
C1780 C1779 1.399 . S
C1780 C1781 1.376 . S
C1781 H1768 0.930 . S
C1781 C1780 1.376 . S
C1781 C1782 1.388 . S
C1782 H1769 0.930 . S
C1782 C1781 1.388 . S
C1782 C1783 1.390 . S
C1783 C1782 1.390 . S
C1783 C1784 1.394 . S
C1783 C1789 1.465 . S
C1784 C1779 1.399 . S
C1784 C1783 1.394 . S
C1784 C1785 1.516 . S
C1785 C1784 1.516 . S
C1785 C1786 1.502 . S
C1785 C1787 1.561 1_655 S
C1785 C1788 1.526 1_655 S
C1786 H1770 0.959 1_556 S
C1786 H1771 0.959 1_656 S
C1786 H1772 0.961 . S
C1786 C1785 1.502 . S
C1787 H1773 0.960 1_455 S
C1787 H1774 0.961 . S
C1787 H1775 0.959 . S
C1787 C1785 1.561 1_455 S
C1788 C1785 1.526 1_455 S
C1788 C1789 1.396 1_455 S
C1788 C1793 1.390 1_556 S
C1789 C1783 1.465 . S
C1789 C1788 1.396 1_655 S
C1789 C1790 1.399 1_655 S
C1790 H1776 0.929 . S
C1790 C1789 1.399 1_455 S
C1790 C1791 1.385 1_556 S
C1791 H1777 0.931 . S
C1791 C1790 1.385 1_554 S
C1791 C1792 1.389 . S
C1792 C1791 1.389 . S
C1792 C1793 1.387 . S
C1793 H1778 0.930 . S
C1793 C1788 1.390 1_554 S
C1793 C1792 1.387 . S
H1794 C1806 0.930 . S
H1795 C1808 0.930 . S
H1796 C1809 0.930 . S
H1797 C1813 0.959 . S
H1798 C1813 0.959 . S
H1799 C1813 0.961 . S
H1800 C1814 0.960 . S
H1801 C1814 0.961 . S
H1802 C1814 0.959 . S
H1803 C1817 0.929 . S
H1804 C1818 0.931 . S
H1805 C1820 0.930 . S
C1806 H1794 0.930 . S
C1806 C1807 1.399 . S
C1806 C1811 1.399 . S
C1807 C1806 1.399 . S
C1807 C1808 1.376 . S
C1808 H1795 0.930 . S
C1808 C1807 1.376 . S
C1808 C1809 1.388 . S
C1809 H1796 0.930 . S
C1809 C1808 1.388 . S
C1809 C1810 1.390 . S
C1810 C1809 1.390 . S
C1810 C1811 1.394 . S
C1810 C1816 1.465 . S
C1811 C1806 1.399 . S
C1811 C1810 1.394 . S
C1811 C1812 1.516 . S
C1812 C1811 1.516 . S
C1812 C1813 1.502 . S
C1812 C1814 1.561 . S
C1812 C1815 1.526 . S
C1813 H1797 0.959 . S
C1813 H1798 0.959 . S
C1813 H1799 0.961 . S
C1813 C1812 1.502 . S
C1814 H1800 0.960 . S
C1814 H1801 0.961 . S
C1814 H1802 0.959 . S
C1814 C1812 1.561 . S
C1815 C1812 1.526 . S
C1815 C1816 1.396 . S
C1815 C1820 1.390 . S
C1816 C1810 1.465 . S
C1816 C1815 1.396 . S
C1816 C1817 1.399 . S
C1817 H1803 0.929 . S
C1817 C1816 1.399 . S
C1817 C1818 1.385 . S
C1818 H1804 0.931 . S
C1818 C1817 1.385 . S
C1818 C1819 1.389 . S
C1819 C1818 1.389 . S
C1819 C1820 1.387 . S
C1820 H1805 0.930 . S
C1820 C1815 1.390 . S
C1820 C1819 1.387 . S
H1821 C1833 0.930 . S
H1822 C1835 0.930 . S
H1823 C1836 0.930 . S
H1824 C1840 0.959 . S
H1825 C1840 0.959 . S
H1826 C1840 0.961 . S
H1827 C1841 0.960 . S
H1828 C1841 0.961 . S
H1829 C1841 0.959 . S
H1830 C1844 0.929 . S
H1831 C1845 0.931 . S
H1832 C1847 0.930 . S
C1833 H1821 0.930 . S
C1833 C1834 1.399 . S
C1833 C1838 1.399 . S
C1834 C1833 1.399 . S
C1834 C1835 1.376 . S
C1835 H1822 0.930 . S
C1835 C1834 1.376 . S
C1835 C1836 1.388 . S
C1836 H1823 0.930 . S
C1836 C1835 1.388 . S
C1836 C1837 1.390 . S
C1837 C1836 1.390 . S
C1837 C1838 1.394 . S
C1837 C1843 1.465 . S
C1838 C1833 1.399 . S
C1838 C1837 1.394 . S
C1838 C1839 1.516 . S
C1839 C1838 1.516 . S
C1839 C1840 1.502 . S
C1839 C1841 1.561 . S
C1839 C1842 1.526 . S
C1840 H1824 0.959 . S
C1840 H1825 0.959 . S
C1840 H1826 0.961 . S
C1840 C1839 1.502 . S
C1841 H1827 0.960 . S
C1841 H1828 0.961 . S
C1841 H1829 0.959 . S
C1841 C1839 1.561 . S
C1842 C1839 1.526 . S
C1842 C1843 1.396 . S
C1842 C1847 1.390 . S
C1843 C1837 1.465 . S
C1843 C1842 1.396 . S
C1843 C1844 1.399 . S
C1844 H1830 0.929 . S
C1844 C1843 1.399 . S
C1844 C1845 1.385 . S
C1845 H1831 0.931 . S
C1845 C1844 1.385 . S
C1845 C1846 1.389 . S
C1846 C1845 1.389 . S
C1846 C1847 1.387 . S
C1847 H1832 0.930 . S
C1847 C1842 1.390 . S
C1847 C1846 1.387 . S
H1848 C1860 0.930 . S
H1849 C1862 0.930 . S
H1850 C1863 0.930 . S
H1851 C1867 0.959 . S
H1852 C1867 0.959 . S
H1853 C1867 0.961 . S
H1854 C1868 0.960 . S
H1855 C1868 0.961 . S
H1856 C1868 0.959 . S
H1857 C1871 0.929 . S
H1858 C1872 0.931 . S
H1859 C1874 0.930 . S
C1860 H1848 0.930 . S
C1860 C1861 1.399 . S
C1860 C1865 1.399 . S
C1861 C1860 1.399 . S
C1861 C1862 1.376 . S
C1862 H1849 0.930 . S
C1862 C1861 1.376 . S
C1862 C1863 1.388 . S
C1863 H1850 0.930 . S
C1863 C1862 1.388 . S
C1863 C1864 1.390 . S
C1864 C1863 1.390 . S
C1864 C1865 1.394 . S
C1864 C1870 1.465 . S
C1865 C1860 1.399 . S
C1865 C1864 1.394 . S
C1865 C1866 1.516 . S
C1866 C1865 1.516 . S
C1866 C1867 1.502 . S
C1866 C1868 1.561 . S
C1866 C1869 1.526 . S
C1867 H1851 0.959 . S
C1867 H1852 0.959 . S
C1867 H1853 0.961 . S
C1867 C1866 1.502 . S
C1868 H1854 0.960 . S
C1868 H1855 0.961 . S
C1868 H1856 0.959 . S
C1868 C1866 1.561 . S
C1869 C1866 1.526 . S
C1869 C1870 1.396 . S
C1869 C1874 1.390 . S
C1870 C1864 1.465 . S
C1870 C1869 1.396 . S
C1870 C1871 1.399 . S
C1871 H1857 0.929 . S
C1871 C1870 1.399 . S
C1871 C1872 1.385 . S
C1872 H1858 0.931 . S
C1872 C1871 1.385 . S
C1872 C1873 1.389 . S
C1873 C1872 1.389 . S
C1873 C1874 1.387 . S
C1874 H1859 0.930 . S
C1874 C1869 1.390 . S
C1874 C1873 1.387 . S
H1875 C1887 0.930 . S
H1876 C1889 0.930 . S
H1877 C1890 0.930 . S
H1878 C1894 0.959 . S
H1879 C1894 0.959 . S
H1880 C1894 0.961 . S
H1881 C1895 0.960 . S
H1882 C1895 0.961 . S
H1883 C1895 0.959 . S
H1884 C1898 0.929 . S
H1885 C1899 0.931 . S
H1886 C1901 0.930 . S
C1887 H1875 0.930 . S
C1887 C1888 1.399 . S
C1887 C1892 1.399 . S
C1888 C1887 1.399 . S
C1888 C1889 1.376 . S
C1889 H1876 0.930 . S
C1889 C1888 1.376 . S
C1889 C1890 1.388 . S
C1890 H1877 0.930 . S
C1890 C1889 1.388 . S
C1890 C1891 1.390 . S
C1891 C1890 1.390 . S
C1891 C1892 1.394 . S
C1891 C1897 1.465 . S
C1892 C1887 1.399 . S
C1892 C1891 1.394 . S
C1892 C1893 1.516 . S
C1893 C1892 1.516 . S
C1893 C1894 1.502 . S
C1893 C1895 1.561 . S
C1893 C1896 1.526 . S
C1894 H1878 0.959 . S
C1894 H1879 0.959 . S
C1894 H1880 0.961 . S
C1894 C1893 1.502 . S
C1895 H1881 0.960 . S
C1895 H1882 0.961 . S
C1895 H1883 0.959 . S
C1895 C1893 1.561 . S
C1896 C1893 1.526 . S
C1896 C1897 1.396 . S
C1896 C1901 1.390 . S
C1897 C1891 1.465 . S
C1897 C1896 1.396 . S
C1897 C1898 1.399 . S
C1898 H1884 0.929 . S
C1898 C1897 1.399 . S
C1898 C1899 1.385 . S
C1899 H1885 0.931 . S
C1899 C1898 1.385 . S
C1899 C1900 1.389 . S
C1900 C1899 1.389 . S
C1900 C1901 1.387 . S
C1901 H1886 0.930 . S
C1901 C1896 1.390 . S
C1901 C1900 1.387 . S
H1902 C1914 0.930 . S
H1903 C1916 0.930 . S
H1904 C1917 0.930 1_565 S
H1905 C1921 0.959 . S
H1906 C1921 0.959 . S
H1907 C1921 0.961 . S
H1908 C1922 0.960 . S
H1909 C1922 0.961 . S
H1910 C1922 0.959 1_565 S
H1911 C1925 0.929 . S
H1912 C1926 0.931 . S
H1913 C1928 0.930 . S
C1914 H1902 0.930 . S
C1914 C1915 1.399 . S
C1914 C1919 1.399 . S
C1915 C1914 1.399 . S
C1915 C1916 1.376 . S
C1916 H1903 0.930 . S
C1916 C1915 1.376 . S
C1916 C1917 1.388 . S
C1917 H1904 0.930 1_545 S
C1917 C1916 1.388 . S
C1917 C1918 1.390 . S
C1918 C1917 1.390 . S
C1918 C1919 1.394 . S
C1918 C1924 1.465 1_545 S
C1919 C1914 1.399 . S
C1919 C1918 1.394 . S
C1919 C1920 1.516 . S
C1920 C1919 1.516 . S
C1920 C1921 1.502 . S
C1920 C1922 1.561 . S
C1920 C1923 1.526 1_545 S
C1921 H1905 0.959 . S
C1921 H1906 0.959 . S
C1921 H1907 0.961 . S
C1921 C1920 1.502 . S
C1922 H1908 0.960 . S
C1922 H1909 0.961 . S
C1922 H1910 0.959 1_545 S
C1922 C1920 1.561 . S
C1923 C1920 1.526 1_565 S
C1923 C1924 1.396 . S
C1923 C1928 1.390 . S
C1924 C1918 1.465 1_565 S
C1924 C1923 1.396 . S
C1924 C1925 1.399 . S
C1925 H1911 0.929 . S
C1925 C1924 1.399 . S
C1925 C1926 1.385 . S
C1926 H1912 0.931 . S
C1926 C1925 1.385 . S
C1926 C1927 1.389 . S
C1927 C1926 1.389 . S
C1927 C1928 1.387 . S
C1928 H1913 0.930 . S
C1928 C1923 1.390 . S
C1928 C1927 1.387 . S
H1929 C1941 0.930 . S
H1930 C1943 0.930 . S
H1931 C1944 0.930 . S
H1932 C1948 0.959 . S
H1933 C1948 0.959 . S
H1934 C1948 0.961 . S
H1935 C1949 0.960 . S
H1936 C1949 0.961 . S
H1937 C1949 0.959 . S
H1938 C1952 0.929 . S
H1939 C1953 0.931 . S
H1940 C1955 0.930 . S
C1941 H1929 0.930 . S
C1941 C1942 1.399 . S
C1941 C1946 1.399 . S
C1942 C1941 1.399 . S
C1942 C1943 1.376 . S
C1943 H1930 0.930 . S
C1943 C1942 1.376 . S
C1943 C1944 1.388 . S
C1944 H1931 0.930 . S
C1944 C1943 1.388 . S
C1944 C1945 1.390 . S
C1945 C1944 1.390 . S
C1945 C1946 1.394 . S
C1945 C1951 1.465 . S
C1946 C1941 1.399 . S
C1946 C1945 1.394 . S
C1946 C1947 1.516 . S
C1947 C1946 1.516 . S
C1947 C1948 1.502 . S
C1947 C1949 1.561 . S
C1947 C1950 1.526 . S
C1948 H1932 0.959 . S
C1948 H1933 0.959 . S
C1948 H1934 0.961 . S
C1948 C1947 1.502 . S
C1949 H1935 0.960 . S
C1949 H1936 0.961 . S
C1949 H1937 0.959 . S
C1949 C1947 1.561 . S
C1950 C1947 1.526 . S
C1950 C1951 1.396 . S
C1950 C1955 1.390 . S
C1951 C1945 1.465 . S
C1951 C1950 1.396 . S
C1951 C1952 1.399 . S
C1952 H1938 0.929 . S
C1952 C1951 1.399 . S
C1952 C1953 1.385 . S
C1953 H1939 0.931 . S
C1953 C1952 1.385 . S
C1953 C1954 1.389 . S
C1954 C1953 1.389 . S
C1954 C1955 1.387 . S
C1955 H1940 0.930 . S
C1955 C1950 1.390 . S
C1955 C1954 1.387 . S
H1956 C1968 0.930 . S
H1957 C1970 0.930 . S
H1958 C1971 0.930 . S
H1959 C1975 0.959 . S
H1960 C1975 0.959 . S
H1961 C1975 0.961 . S
H1962 C1976 0.960 . S
H1963 C1976 0.961 . S
H1964 C1976 0.959 . S
H1965 C1979 0.929 . S
H1966 C1980 0.931 . S
H1967 C1982 0.930 . S
C1968 H1956 0.930 . S
C1968 C1969 1.399 . S
C1968 C1973 1.399 . S
C1969 C1968 1.399 . S
C1969 C1970 1.376 . S
C1970 H1957 0.930 . S
C1970 C1969 1.376 . S
C1970 C1971 1.388 . S
C1971 H1958 0.930 . S
C1971 C1970 1.388 . S
C1971 C1972 1.390 . S
C1972 C1971 1.390 . S
C1972 C1973 1.394 . S
C1972 C1978 1.465 . S
C1973 C1968 1.399 . S
C1973 C1972 1.394 . S
C1973 C1974 1.516 . S
C1974 C1973 1.516 . S
C1974 C1975 1.502 . S
C1974 C1976 1.561 . S
C1974 C1977 1.526 . S
C1975 H1959 0.959 . S
C1975 H1960 0.959 . S
C1975 H1961 0.961 . S
C1975 C1974 1.502 . S
C1976 H1962 0.960 . S
C1976 H1963 0.961 . S
C1976 H1964 0.959 . S
C1976 C1974 1.561 . S
C1977 C1974 1.526 . S
C1977 C1978 1.396 . S
C1977 C1982 1.390 . S
C1978 C1972 1.465 . S
C1978 C1977 1.396 . S
C1978 C1979 1.399 . S
C1979 H1965 0.929 . S
C1979 C1978 1.399 . S
C1979 C1980 1.385 . S
C1980 H1966 0.931 . S
C1980 C1979 1.385 . S
C1980 C1981 1.389 . S
C1981 C1980 1.389 . S
C1981 C1982 1.387 . S
C1982 H1967 0.930 . S
C1982 C1977 1.390 . S
C1982 C1981 1.387 . S
H1983 C1995 0.930 . S
H1984 C1997 0.930 . S
H1985 C1998 0.930 . S
H1986 C2002 0.959 . S
H1987 C2002 0.959 . S
H1988 C2002 0.961 . S
H1989 C2003 0.960 . S
H1990 C2003 0.961 . S
H1991 C2003 0.959 . S
H1992 C2006 0.929 . S
H1993 C2007 0.931 . S
H1994 C2009 0.930 . S
C1995 H1983 0.930 . S
C1995 C1996 1.399 . S
C1995 C2000 1.399 . S
C1996 C1995 1.399 . S
C1996 C1997 1.376 . S
C1997 H1984 0.930 . S
C1997 C1996 1.376 . S
C1997 C1998 1.388 . S
C1998 H1985 0.930 . S
C1998 C1997 1.388 . S
C1998 C1999 1.390 . S
C1999 C1998 1.390 . S
C1999 C2000 1.394 . S
C1999 C2005 1.465 . S
C2000 C1995 1.399 . S
C2000 C1999 1.394 . S
C2000 C2001 1.516 . S
C2001 C2000 1.516 . S
C2001 C2002 1.502 . S
C2001 C2003 1.561 . S
C2001 C2004 1.526 . S
C2002 H1986 0.959 . S
C2002 H1987 0.959 . S
C2002 H1988 0.961 . S
C2002 C2001 1.502 . S
C2003 H1989 0.960 . S
C2003 H1990 0.961 . S
C2003 H1991 0.959 . S
C2003 C2001 1.561 . S
C2004 C2001 1.526 . S
C2004 C2005 1.396 . S
C2004 C2009 1.390 . S
C2005 C1999 1.465 . S
C2005 C2004 1.396 . S
C2005 C2006 1.399 . S
C2006 H1992 0.929 . S
C2006 C2005 1.399 . S
C2006 C2007 1.385 . S
C2007 H1993 0.931 . S
C2007 C2006 1.385 . S
C2007 C2008 1.389 . S
C2008 C2007 1.389 . S
C2008 C2009 1.387 . S
C2009 H1994 0.930 . S
C2009 C2004 1.390 . S
C2009 C2008 1.387 . S
H2010 C2022 0.930 . S
H2011 C2024 0.930 . S
H2012 C2025 0.930 1_545 S
H2013 C2029 0.959 . S
H2014 C2029 0.959 . S
H2015 C2029 0.961 . S
H2016 C2030 0.960 . S
H2017 C2030 0.961 1_554 S
H2018 C2030 0.959 . S
H2019 C2033 0.929 . S
H2020 C2034 0.931 . S
H2021 C2036 0.930 . S
C2022 H2010 0.930 . S
C2022 C2023 1.399 . S
C2022 C2027 1.399 . S
C2023 C2022 1.399 . S
C2023 C2024 1.376 . S
C2024 H2011 0.930 . S
C2024 C2023 1.376 . S
C2024 C2025 1.388 . S
C2025 H2012 0.930 1_565 S
C2025 C2024 1.388 . S
C2025 C2026 1.390 . S
C2026 C2025 1.390 . S
C2026 C2027 1.394 . S
C2026 C2032 1.465 1_565 S
C2027 C2022 1.399 . S
C2027 C2026 1.394 . S
C2027 C2028 1.516 . S
C2028 C2027 1.516 . S
C2028 C2029 1.502 1_556 S
C2028 C2030 1.561 . S
C2028 C2031 1.526 1_565 S
C2029 H2013 0.959 . S
C2029 H2014 0.959 . S
C2029 H2015 0.961 . S
C2029 C2028 1.502 1_554 S
C2030 H2016 0.960 . S
C2030 H2017 0.961 1_556 S
C2030 H2018 0.959 . S
C2030 C2028 1.561 . S
C2031 C2028 1.526 1_545 S
C2031 C2032 1.396 . S
C2031 C2036 1.390 1_556 S
C2032 C2026 1.465 1_545 S
C2032 C2031 1.396 . S
C2032 C2033 1.399 . S
C2033 H2019 0.929 . S
C2033 C2032 1.399 . S
C2033 C2034 1.385 . S
C2034 H2020 0.931 . S
C2034 C2033 1.385 . S
C2034 C2035 1.389 1_556 S
C2035 C2034 1.389 1_554 S
C2035 C2036 1.387 . S
C2036 H2021 0.930 . S
C2036 C2031 1.390 1_554 S
C2036 C2035 1.387 . S
H2037 C2049 0.930 . S
H2038 C2051 0.930 . S
H2039 C2052 0.930 1_565 S
H2040 C2056 0.959 . S
H2041 C2056 0.959 . S
H2042 C2056 0.961 . S
H2043 C2057 0.960 . S
H2044 C2057 0.961 . S
H2045 C2057 0.959 . S
H2046 C2060 0.929 . S
H2047 C2061 0.931 . S
H2048 C2063 0.930 . S
C2049 H2037 0.930 . S
C2049 C2050 1.399 . S
C2049 C2054 1.399 . S
C2050 C2049 1.399 . S
C2050 C2051 1.376 . S
C2051 H2038 0.930 . S
C2051 C2050 1.376 . S
C2051 C2052 1.388 . S
C2052 H2039 0.930 1_545 S
C2052 C2051 1.388 . S
C2052 C2053 1.390 . S
C2053 C2052 1.390 . S
C2053 C2054 1.394 . S
C2053 C2059 1.465 . S
C2054 C2049 1.399 . S
C2054 C2053 1.394 . S
C2054 C2055 1.516 . S
C2055 C2054 1.516 . S
C2055 C2056 1.502 . S
C2055 C2057 1.561 . S
C2055 C2058 1.526 . S
C2056 H2040 0.959 . S
C2056 H2041 0.959 . S
C2056 H2042 0.961 . S
C2056 C2055 1.502 . S
C2057 H2043 0.960 . S
C2057 H2044 0.961 . S
C2057 H2045 0.959 . S
C2057 C2055 1.561 . S
C2058 C2055 1.526 . S
C2058 C2059 1.396 . S
C2058 C2063 1.390 . S
C2059 C2053 1.465 . S
C2059 C2058 1.396 . S
C2059 C2060 1.399 1_545 S
C2060 H2046 0.929 . S
C2060 C2059 1.399 1_565 S
C2060 C2061 1.385 . S
C2061 H2047 0.931 . S
C2061 C2060 1.385 . S
C2061 C2062 1.389 . S
C2062 C2061 1.389 . S
C2062 C2063 1.387 1_565 S
C2063 H2048 0.930 . S
C2063 C2058 1.390 . S
C2063 C2062 1.387 1_545 S
H2064 C2076 0.930 . S
H2065 C2078 0.930 . S
H2066 C2079 0.930 . S
H2067 C2083 0.959 . S
H2068 C2083 0.959 . S
H2069 C2083 0.961 . S
H2070 C2084 0.960 . S
H2071 C2084 0.961 . S
H2072 C2084 0.959 . S
H2073 C2087 0.929 . S
H2074 C2088 0.931 . S
H2075 C2090 0.930 . S
C2076 H2064 0.930 . S
C2076 C2077 1.399 . S
C2076 C2081 1.399 . S
C2077 C2076 1.399 . S
C2077 C2078 1.376 . S
C2078 H2065 0.930 . S
C2078 C2077 1.376 . S
C2078 C2079 1.388 . S
C2079 H2066 0.930 . S
C2079 C2078 1.388 . S
C2079 C2080 1.390 . S
C2080 C2079 1.390 . S
C2080 C2081 1.394 . S
C2080 C2086 1.465 . S
C2081 C2076 1.399 . S
C2081 C2080 1.394 . S
C2081 C2082 1.516 . S
C2082 C2081 1.516 . S
C2082 C2083 1.502 . S
C2082 C2084 1.561 . S
C2082 C2085 1.526 . S
C2083 H2067 0.959 . S
C2083 H2068 0.959 . S
C2083 H2069 0.961 . S
C2083 C2082 1.502 . S
C2084 H2070 0.960 . S
C2084 H2071 0.961 . S
C2084 H2072 0.959 . S
C2084 C2082 1.561 . S
C2085 C2082 1.526 . S
C2085 C2086 1.396 . S
C2085 C2090 1.390 . S
C2086 C2080 1.465 . S
C2086 C2085 1.396 . S
C2086 C2087 1.399 . S
C2087 H2073 0.929 . S
C2087 C2086 1.399 . S
C2087 C2088 1.385 . S
C2088 H2074 0.931 . S
C2088 C2087 1.385 . S
C2088 C2089 1.389 . S
C2089 C2088 1.389 . S
C2089 C2090 1.387 . S
C2090 H2075 0.930 . S
C2090 C2085 1.390 . S
C2090 C2089 1.387 . S
H2091 C2103 0.930 . S
H2092 C2105 0.930 . S
H2093 C2106 0.930 . S
H2094 C2110 0.959 . S
H2095 C2110 0.959 . S
H2096 C2110 0.961 1_455 S
H2097 C2111 0.960 . S
H2098 C2111 0.961 . S
H2099 C2111 0.959 . S
H2100 C2114 0.929 . S
H2101 C2115 0.931 . S
H2102 C2117 0.930 . S
C2103 H2091 0.930 . S
C2103 C2104 1.399 . S
C2103 C2108 1.399 . S
C2104 C2103 1.399 . S
C2104 C2105 1.376 . S
C2105 H2092 0.930 . S
C2105 C2104 1.376 . S
C2105 C2106 1.388 . S
C2106 H2093 0.930 . S
C2106 C2105 1.388 . S
C2106 C2107 1.390 . S
C2107 C2106 1.390 . S
C2107 C2108 1.394 . S
C2107 C2113 1.465 1_455 S
C2108 C2103 1.399 . S
C2108 C2107 1.394 . S
C2108 C2109 1.516 . S
C2109 C2108 1.516 . S
C2109 C2110 1.502 1_455 S
C2109 C2111 1.561 . S
C2109 C2112 1.526 1_455 S
C2110 H2094 0.959 . S
C2110 H2095 0.959 . S
C2110 H2096 0.961 1_655 S
C2110 C2109 1.502 1_655 S
C2111 H2097 0.960 . S
C2111 H2098 0.961 . S
C2111 H2099 0.959 . S
C2111 C2109 1.561 . S
C2112 C2109 1.526 1_655 S
C2112 C2113 1.396 . S
C2112 C2117 1.390 . S
C2113 C2107 1.465 1_655 S
C2113 C2112 1.396 . S
C2113 C2114 1.399 . S
C2114 H2100 0.929 . S
C2114 C2113 1.399 . S
C2114 C2115 1.385 . S
C2115 H2101 0.931 . S
C2115 C2114 1.385 . S
C2115 C2116 1.389 . S
C2116 C2115 1.389 . S
C2116 C2117 1.387 . S
C2117 H2102 0.930 . S
C2117 C2112 1.390 . S
C2117 C2116 1.387 . S
H2118 C2130 0.930 . S
H2119 C2132 0.930 . S
H2120 C2133 0.930 . S
H2121 C2137 0.959 . S
H2122 C2137 0.959 . S
H2123 C2137 0.961 . S
H2124 C2138 0.960 . S
H2125 C2138 0.961 . S
H2126 C2138 0.959 . S
H2127 C2141 0.929 1_554 S
H2128 C2142 0.931 . S
H2129 C2144 0.930 . S
C2130 H2118 0.930 . S
C2130 C2131 1.399 . S
C2130 C2135 1.399 . S
C2131 C2130 1.399 . S
C2131 C2132 1.376 . S
C2132 H2119 0.930 . S
C2132 C2131 1.376 . S
C2132 C2133 1.388 . S
C2133 H2120 0.930 . S
C2133 C2132 1.388 . S
C2133 C2134 1.390 . S
C2134 C2133 1.390 . S
C2134 C2135 1.394 . S
C2134 C2140 1.465 1_554 S
C2135 C2130 1.399 . S
C2135 C2134 1.394 . S
C2135 C2136 1.516 1_554 S
C2136 C2135 1.516 1_556 S
C2136 C2137 1.502 . S
C2136 C2138 1.561 . S
C2136 C2139 1.526 . S
C2137 H2121 0.959 . S
C2137 H2122 0.959 . S
C2137 H2123 0.961 . S
C2137 C2136 1.502 . S
C2138 H2124 0.960 . S
C2138 H2125 0.961 . S
C2138 H2126 0.959 . S
C2138 C2136 1.561 . S
C2139 C2136 1.526 . S
C2139 C2140 1.396 . S
C2139 C2144 1.390 . S
C2140 C2134 1.465 1_556 S
C2140 C2139 1.396 . S
C2140 C2141 1.399 . S
C2141 H2127 0.929 1_556 S
C2141 C2140 1.399 . S
C2141 C2142 1.385 . S
C2142 H2128 0.931 . S
C2142 C2141 1.385 . S
C2142 C2143 1.389 . S
C2143 C2142 1.389 . S
C2143 C2144 1.387 . S
C2144 H2129 0.930 . S
C2144 C2139 1.390 . S
C2144 C2143 1.387 . S
H2145 C2157 0.930 . S
H2146 C2159 0.930 . S
H2147 C2160 0.930 . S
H2148 C2164 0.959 . S
H2149 C2164 0.959 . S
H2150 C2164 0.961 . S
H2151 C2165 0.960 . S
H2152 C2165 0.961 . S
H2153 C2165 0.959 . S
H2154 C2168 0.929 . S
H2155 C2169 0.931 . S
H2156 C2171 0.930 . S
C2157 H2145 0.930 . S
C2157 C2158 1.399 . S
C2157 C2162 1.399 . S
C2158 C2157 1.399 . S
C2158 C2159 1.376 . S
C2159 H2146 0.930 . S
C2159 C2158 1.376 . S
C2159 C2160 1.388 . S
C2160 H2147 0.930 . S
C2160 C2159 1.388 . S
C2160 C2161 1.390 . S
C2161 C2160 1.390 . S
C2161 C2162 1.394 . S
C2161 C2167 1.465 . S
C2162 C2157 1.399 . S
C2162 C2161 1.394 . S
C2162 C2163 1.516 . S
C2163 C2162 1.516 . S
C2163 C2164 1.502 . S
C2163 C2165 1.561 . S
C2163 C2166 1.526 . S
C2164 H2148 0.959 . S
C2164 H2149 0.959 . S
C2164 H2150 0.961 . S
C2164 C2163 1.502 . S
C2165 H2151 0.960 . S
C2165 H2152 0.961 . S
C2165 H2153 0.959 . S
C2165 C2163 1.561 . S
C2166 C2163 1.526 . S
C2166 C2167 1.396 . S
C2166 C2171 1.390 . S
C2167 C2161 1.465 . S
C2167 C2166 1.396 . S
C2167 C2168 1.399 . S
C2168 H2154 0.929 . S
C2168 C2167 1.399 . S
C2168 C2169 1.385 . S
C2169 H2155 0.931 . S
C2169 C2168 1.385 . S
C2169 C2170 1.389 . S
C2170 C2169 1.389 . S
C2170 C2171 1.387 . S
C2171 H2156 0.930 . S
C2171 C2166 1.390 . S
C2171 C2170 1.387 . S
H2172 C2184 0.930 . S
H2173 C2186 0.930 . S
H2174 C2187 0.930 . S
H2175 C2191 0.959 . S
H2176 C2191 0.959 . S
H2177 C2191 0.961 . S
H2178 C2192 0.960 . S
H2179 C2192 0.961 . S
H2180 C2192 0.959 . S
H2181 C2195 0.929 . S
H2182 C2196 0.931 . S
H2183 C2198 0.930 . S
C2184 H2172 0.930 . S
C2184 C2185 1.399 . S
C2184 C2189 1.399 . S
C2185 C2184 1.399 . S
C2185 C2186 1.376 . S
C2186 H2173 0.930 . S
C2186 C2185 1.376 . S
C2186 C2187 1.388 . S
C2187 H2174 0.930 . S
C2187 C2186 1.388 . S
C2187 C2188 1.390 . S
C2188 C2187 1.390 . S
C2188 C2189 1.394 . S
C2188 C2194 1.437 1_556 S
C2189 C2184 1.399 . S
C2189 C2188 1.394 . S
C2189 C2190 1.516 1_556 S
C2190 C2189 1.516 1_554 S
C2190 C2191 1.502 . S
C2190 C2192 1.561 . S
C2190 C2193 1.526 . S
C2191 H2175 0.959 . S
C2191 H2176 0.959 . S
C2191 H2177 0.961 . S
C2191 C2190 1.502 . S
C2192 H2178 0.960 . S
C2192 H2179 0.961 . S
C2192 H2180 0.959 . S
C2192 C2190 1.561 . S
C2193 C2190 1.526 . S
C2193 C2194 1.431 . S
C2193 C2198 1.390 . S
C2194 C2188 1.437 1_554 S
C2194 C2193 1.431 . S
C2194 C2195 1.397 1_554 S
C2195 H2181 0.929 . S
C2195 C2194 1.397 1_556 S
C2195 C2196 1.385 1_556 S
C2196 H2182 0.931 . S
C2196 C2195 1.385 1_554 S
C2196 C2197 1.389 . S
C2197 C2196 1.389 . S
C2197 C2198 1.387 . S
C2198 H2183 0.930 . S
C2198 C2193 1.390 . S
C2198 C2197 1.387 . S
H2199 C2211 0.930 . S
H2200 C2213 0.930 . S
H2201 C2214 0.930 . S
H2202 C2218 0.959 . S
H2203 C2218 0.959 . S
H2204 C2218 0.961 . S
H2205 C2219 0.960 . S
H2206 C2219 0.961 . S
H2207 C2219 0.959 . S
H2208 C2222 0.929 . S
H2209 C2223 0.931 . S
H2210 C2225 0.930 . S
C2211 H2199 0.930 . S
C2211 C2212 1.399 . S
C2211 C2216 1.399 . S
C2212 C2211 1.399 . S
C2212 C2213 1.376 . S
C2213 H2200 0.930 . S
C2213 C2212 1.376 . S
C2213 C2214 1.388 . S
C2214 H2201 0.930 . S
C2214 C2213 1.388 . S
C2214 C2215 1.390 . S
C2215 C2214 1.390 . S
C2215 C2216 1.394 . S
C2215 C2221 1.465 . S
C2216 C2211 1.399 . S
C2216 C2215 1.394 . S
C2216 C2217 1.516 . S
C2217 C2216 1.516 . S
C2217 C2218 1.502 . S
C2217 C2219 1.561 . S
C2217 C2220 1.526 . S
C2218 H2202 0.959 . S
C2218 H2203 0.959 . S
C2218 H2204 0.961 . S
C2218 C2217 1.502 . S
C2219 H2205 0.960 . S
C2219 H2206 0.961 . S
C2219 H2207 0.959 . S
C2219 C2217 1.561 . S
C2220 C2217 1.526 . S
C2220 C2221 1.396 . S
C2220 C2225 1.390 . S
C2221 C2215 1.465 . S
C2221 C2220 1.396 . S
C2221 C2222 1.399 . S
C2222 H2208 0.929 . S
C2222 C2221 1.399 . S
C2222 C2223 1.385 . S
C2223 H2209 0.931 . S
C2223 C2222 1.385 . S
C2223 C2224 1.389 . S
C2224 C2223 1.389 . S
C2224 C2225 1.387 . S
C2225 H2210 0.930 . S
C2225 C2220 1.390 . S
C2225 C2224 1.387 . S
H2226 C2238 0.930 . S
H2227 C2240 0.930 . S
H2228 C2241 0.930 . S
H2229 C2245 0.959 . S
H2230 C2245 0.959 . S
H2231 C2245 0.961 . S
H2232 C2246 0.960 . S
H2233 C2246 0.961 . S
H2234 C2246 0.959 . S
H2235 C2249 0.929 . S
H2236 C2250 0.931 . S
H2237 C2252 0.930 . S
C2238 H2226 0.930 . S
C2238 C2239 1.399 . S
C2238 C2243 1.399 . S
C2239 C2238 1.399 . S
C2239 C2240 1.376 . S
C2240 H2227 0.930 . S
C2240 C2239 1.376 . S
C2240 C2241 1.388 . S
C2241 H2228 0.930 . S
C2241 C2240 1.388 . S
C2241 C2242 1.390 . S
C2242 C2241 1.390 . S
C2242 C2243 1.394 . S
C2242 C2248 1.465 . S
C2243 C2238 1.399 . S
C2243 C2242 1.394 . S
C2243 C2244 1.516 . S
C2244 C2243 1.516 . S
C2244 C2245 1.502 . S
C2244 C2246 1.561 . S
C2244 C2247 1.526 . S
C2245 H2229 0.959 . S
C2245 H2230 0.959 . S
C2245 H2231 0.961 . S
C2245 C2244 1.502 . S
C2246 H2232 0.960 . S
C2246 H2233 0.961 . S
C2246 H2234 0.959 . S
C2246 C2244 1.561 . S
C2247 C2244 1.526 . S
C2247 C2248 1.396 . S
C2247 C2252 1.390 . S
C2248 C2242 1.465 . S
C2248 C2247 1.396 . S
C2248 C2249 1.399 . S
C2249 H2235 0.929 . S
C2249 C2248 1.399 . S
C2249 C2250 1.385 . S
C2250 H2236 0.931 . S
C2250 C2249 1.385 . S
C2250 C2251 1.389 . S
C2251 C2250 1.389 . S
C2251 C2252 1.387 . S
C2252 H2237 0.930 . S
C2252 C2247 1.390 . S
C2252 C2251 1.387 . S
H2253 C2265 0.930 . S
H2254 C2267 0.930 . S
H2255 C2268 0.930 . S
H2256 C2272 0.959 . S
H2257 C2272 0.959 . S
H2258 C2272 0.961 . S
H2259 C2273 0.960 . S
H2260 C2273 0.961 1_455 S
H2261 C2273 0.959 . S
H2262 C2276 0.929 . S
H2263 C2277 0.931 . S
H2264 C2279 0.930 . S
C2265 H2253 0.930 . S
C2265 C2266 1.399 . S
C2265 C2270 1.399 . S
C2266 C2265 1.399 . S
C2266 C2267 1.376 . S
C2267 H2254 0.930 . S
C2267 C2266 1.376 . S
C2267 C2268 1.388 . S
C2268 H2255 0.930 . S
C2268 C2267 1.388 . S
C2268 C2269 1.390 . S
C2269 C2268 1.390 . S
C2269 C2270 1.394 . S
C2269 C2275 1.465 1_655 S
C2270 C2265 1.399 . S
C2270 C2269 1.394 . S
C2270 C2271 1.516 1_655 S
C2271 C2270 1.516 1_455 S
C2271 C2272 1.502 . S
C2271 C2273 1.561 1_455 S
C2271 C2274 1.526 . S
C2272 H2256 0.959 . S
C2272 H2257 0.959 . S
C2272 H2258 0.961 . S
C2272 C2271 1.502 . S
C2273 H2259 0.960 . S
C2273 H2260 0.961 1_655 S
C2273 H2261 0.959 . S
C2273 C2271 1.561 1_655 S
C2274 C2271 1.526 . S
C2274 C2275 1.396 . S
C2274 C2279 1.390 . S
C2275 C2269 1.465 1_455 S
C2275 C2274 1.396 . S
C2275 C2276 1.399 . S
C2276 H2262 0.929 . S
C2276 C2275 1.399 . S
C2276 C2277 1.385 . S
C2277 H2263 0.931 . S
C2277 C2276 1.385 . S
C2277 C2278 1.389 . S
C2278 C2277 1.389 . S
C2278 C2279 1.387 . S
C2279 H2264 0.930 . S
C2279 C2274 1.390 . S
C2279 C2278 1.387 . S
H2280 C2292 0.930 . S
H2281 C2294 0.930 . S
H2282 C2295 0.930 . S
H2283 C2299 0.959 . S
H2284 C2299 0.959 . S
H2285 C2299 0.961 . S
H2286 C2300 0.960 . S
H2287 C2300 0.961 . S
H2288 C2300 0.959 . S
H2289 C2303 0.929 . S
H2290 C2304 0.931 . S
H2291 C2306 0.930 . S
C2292 H2280 0.930 . S
C2292 C2293 1.399 . S
C2292 C2297 1.399 . S
C2293 C2292 1.399 . S
C2293 C2294 1.376 . S
C2294 H2281 0.930 . S
C2294 C2293 1.376 . S
C2294 C2295 1.388 . S
C2295 H2282 0.930 . S
C2295 C2294 1.388 . S
C2295 C2296 1.390 . S
C2296 C2295 1.390 . S
C2296 C2297 1.394 . S
C2296 C2302 1.465 . S
C2297 C2292 1.399 . S
C2297 C2296 1.394 . S
C2297 C2298 1.516 . S
C2298 C2297 1.516 . S
C2298 C2299 1.502 . S
C2298 C2300 1.561 . S
C2298 C2301 1.526 . S
C2299 H2283 0.959 . S
C2299 H2284 0.959 . S
C2299 H2285 0.961 . S
C2299 C2298 1.502 . S
C2300 H2286 0.960 . S
C2300 H2287 0.961 . S
C2300 H2288 0.959 . S
C2300 C2298 1.561 . S
C2301 C2298 1.526 . S
C2301 C2302 1.396 . S
C2301 C2306 1.390 . S
C2302 C2296 1.465 . S
C2302 C2301 1.396 . S
C2302 C2303 1.399 . S
C2303 H2289 0.929 . S
C2303 C2302 1.399 . S
C2303 C2304 1.385 . S
C2304 H2290 0.931 . S
C2304 C2303 1.385 . S
C2304 C2305 1.389 . S
C2305 C2304 1.389 . S
C2305 C2306 1.387 . S
C2306 H2291 0.930 . S
C2306 C2301 1.390 . S
C2306 C2305 1.387 . S
H2307 C2319 0.930 . S
H2308 C2321 0.930 . S
H2309 C2322 0.930 1_565 S
H2310 C2326 0.959 . S
H2311 C2326 0.959 . S
H2312 C2326 0.961 . S
H2313 C2327 0.960 1_545 S
H2314 C2327 0.961 . S
H2315 C2327 0.959 . S
H2316 C2330 0.929 . S
H2317 C2331 0.931 . S
H2318 C2333 0.930 . S
C2319 H2307 0.930 . S
C2319 C2320 1.399 . S
C2319 C2324 1.399 . S
C2320 C2319 1.399 . S
C2320 C2321 1.376 . S
C2321 H2308 0.930 . S
C2321 C2320 1.376 . S
C2321 C2322 1.388 . S
C2322 H2309 0.930 1_545 S
C2322 C2321 1.388 . S
C2322 C2323 1.390 1_545 S
C2323 C2322 1.390 1_565 S
C2323 C2324 1.394 1_565 S
C2323 C2329 1.465 . S
C2324 C2319 1.399 . S
C2324 C2323 1.394 1_545 S
C2324 C2325 1.516 . S
C2325 C2324 1.516 . S
C2325 C2326 1.502 . S
C2325 C2327 1.561 1_545 S
C2325 C2328 1.526 1_545 S
C2326 H2310 0.959 . S
C2326 H2311 0.959 . S
C2326 H2312 0.961 . S
C2326 C2325 1.502 . S
C2327 H2313 0.960 1_565 S
C2327 H2314 0.961 . S
C2327 H2315 0.959 . S
C2327 C2325 1.561 1_565 S
C2328 C2325 1.526 1_565 S
C2328 C2329 1.396 . S
C2328 C2333 1.390 . S
C2329 C2323 1.465 . S
C2329 C2328 1.396 . S
C2329 C2330 1.399 . S
C2330 H2316 0.929 . S
C2330 C2329 1.399 . S
C2330 C2331 1.385 . S
C2331 H2317 0.931 . S
C2331 C2330 1.385 . S
C2331 C2332 1.389 . S
C2332 C2331 1.389 . S
C2332 C2333 1.387 . S
C2333 H2318 0.930 . S
C2333 C2328 1.390 . S
C2333 C2332 1.387 . S
H2334 C2346 0.930 . S
H2335 C2348 0.930 . S
H2336 C2349 0.930 . S
H2337 C2353 0.959 . S
H2338 C2353 0.959 . S
H2339 C2353 0.961 . S
H2340 C2354 0.960 1_545 S
H2341 C2354 0.961 . S
H2342 C2354 0.959 . S
H2343 C2357 0.929 . S
H2344 C2358 0.931 . S
H2345 C2360 0.930 . S
C2346 H2334 0.930 . S
C2346 C2347 1.399 . S
C2346 C2351 1.399 . S
C2347 C2346 1.399 . S
C2347 C2348 1.376 . S
C2348 H2335 0.930 . S
C2348 C2347 1.376 . S
C2348 C2349 1.388 . S
C2349 H2336 0.930 . S
C2349 C2348 1.388 . S
C2349 C2350 1.390 . S
C2350 C2349 1.390 . S
C2350 C2351 1.394 . S
C2350 C2356 1.465 1_545 S
C2351 C2346 1.399 . S
C2351 C2350 1.394 . S
C2351 C2352 1.516 . S
C2352 C2351 1.516 . S
C2352 C2353 1.502 . S
C2352 C2354 1.561 1_545 S
C2352 C2355 1.526 1_545 S
C2353 H2337 0.959 . S
C2353 H2338 0.959 . S
C2353 H2339 0.961 . S
C2353 C2352 1.502 . S
C2354 H2340 0.960 1_565 S
C2354 H2341 0.961 . S
C2354 H2342 0.959 . S
C2354 C2352 1.561 1_565 S
C2355 C2352 1.526 1_565 S
C2355 C2356 1.396 . S
C2355 C2360 1.390 . S
C2356 C2350 1.465 1_565 S
C2356 C2355 1.396 . S
C2356 C2357 1.399 . S
C2357 H2343 0.929 . S
C2357 C2356 1.399 . S
C2357 C2358 1.385 . S
C2358 H2344 0.931 . S
C2358 C2357 1.385 . S
C2358 C2359 1.389 . S
C2359 C2358 1.389 . S
C2359 C2360 1.387 . S
C2360 H2345 0.930 . S
C2360 C2355 1.390 . S
C2360 C2359 1.387 . S
H2361 C2373 0.930 . S
H2362 C2375 0.930 . S
H2363 C2376 0.929 1_545 S
H2364 C2380 0.959 . S
H2365 C2380 0.959 . S
H2366 C2380 0.961 . S
H2367 C2381 0.961 . S
H2368 C2381 0.961 . S
H2369 C2381 0.959 . S
H2370 C2384 0.929 . S
H2371 C2385 0.931 . S
H2372 C2387 0.930 . S
C2373 H2361 0.930 . S
C2373 C2374 1.399 . S
C2373 C2378 1.399 . S
C2374 C2373 1.399 . S
C2374 C2375 1.376 . S
C2375 H2362 0.930 . S
C2375 C2374 1.376 . S
C2375 C2376 1.388 . S
C2376 H2363 0.929 1_565 S
C2376 C2375 1.388 . S
C2376 C2377 1.390 . S
C2377 C2376 1.390 . S
C2377 C2378 1.394 . S
C2377 C2383 1.465 1_565 S
C2378 C2373 1.399 . S
C2378 C2377 1.394 . S
C2378 C2379 1.516 . S
C2379 C2378 1.516 . S
C2379 C2380 1.502 . S
C2379 C2381 1.561 1_565 S
C2379 C2382 1.526 1_565 S
C2380 H2364 0.959 . S
C2380 H2365 0.959 . S
C2380 H2366 0.961 . S
C2380 C2379 1.502 . S
C2381 H2367 0.961 . S
C2381 H2368 0.961 . S
C2381 H2369 0.959 . S
C2381 C2379 1.561 1_545 S
C2382 C2379 1.526 1_545 S
C2382 C2383 1.396 . S
C2382 C2387 1.390 . S
C2383 C2377 1.465 1_545 S
C2383 C2382 1.396 . S
C2383 C2384 1.399 . S
C2384 H2370 0.929 . S
C2384 C2383 1.399 . S
C2384 C2385 1.385 . S
C2385 H2371 0.931 . S
C2385 C2384 1.385 . S
C2385 C2386 1.389 . S
C2386 C2385 1.389 . S
C2386 C2387 1.387 . S
C2387 H2372 0.930 . S
C2387 C2382 1.390 . S
C2387 C2386 1.387 . S
H2388 C2400 0.930 . S
H2389 C2402 0.930 . S
H2390 C2403 0.930 . S
H2391 C2407 0.959 . S
H2392 C2407 0.959 . S
H2393 C2407 0.961 . S
H2394 C2408 0.960 . S
H2395 C2408 0.961 . S
H2396 C2408 0.959 . S
H2397 C2411 0.929 . S
H2398 C2412 0.931 . S
H2399 C2414 0.930 . S
C2400 H2388 0.930 . S
C2400 C2401 1.399 . S
C2400 C2405 1.399 . S
C2401 C2400 1.399 . S
C2401 C2402 1.376 . S
C2402 H2389 0.930 . S
C2402 C2401 1.376 . S
C2402 C2403 1.388 . S
C2403 H2390 0.930 . S
C2403 C2402 1.388 . S
C2403 C2404 1.390 . S
C2404 C2403 1.390 . S
C2404 C2405 1.394 . S
C2404 C2410 1.465 . S
C2405 C2400 1.399 . S
C2405 C2404 1.394 . S
C2405 C2406 1.516 . S
C2406 C2405 1.516 . S
C2406 C2407 1.502 . S
C2406 C2408 1.561 . S
C2406 C2409 1.526 . S
C2407 H2391 0.959 . S
C2407 H2392 0.959 . S
C2407 H2393 0.961 . S
C2407 C2406 1.502 . S
C2408 H2394 0.960 . S
C2408 H2395 0.961 . S
C2408 H2396 0.959 . S
C2408 C2406 1.561 . S
C2409 C2406 1.526 . S
C2409 C2410 1.396 . S
C2409 C2414 1.390 . S
C2410 C2404 1.465 . S
C2410 C2409 1.396 . S
C2410 C2411 1.399 . S
C2411 H2397 0.929 . S
C2411 C2410 1.399 . S
C2411 C2412 1.385 . S
C2412 H2398 0.931 . S
C2412 C2411 1.385 . S
C2412 C2413 1.389 . S
C2413 C2412 1.389 . S
C2413 C2414 1.387 . S
C2414 H2399 0.930 . S
C2414 C2409 1.390 . S
C2414 C2413 1.387 . S
H2415 C2427 0.930 . S
H2416 C2429 0.930 . S
H2417 C2430 0.930 . S
H2418 C2434 0.959 . S
H2419 C2434 0.959 . S
H2420 C2434 0.961 . S
H2421 C2435 0.960 . S
H2422 C2435 0.961 . S
H2423 C2435 0.959 . S
H2424 C2438 0.929 . S
H2425 C2439 0.931 . S
H2426 C2441 0.930 . S
C2427 H2415 0.930 . S
C2427 C2428 1.399 . S
C2427 C2432 1.399 . S
C2428 C2427 1.399 . S
C2428 C2429 1.376 . S
C2429 H2416 0.930 . S
C2429 C2428 1.376 . S
C2429 C2430 1.388 . S
C2430 H2417 0.930 . S
C2430 C2429 1.388 . S
C2430 C2431 1.390 . S
C2431 C2430 1.390 . S
C2431 C2432 1.394 . S
C2431 C2437 1.465 . S
C2432 C2427 1.399 . S
C2432 C2431 1.394 . S
C2432 C2433 1.516 . S
C2433 C2432 1.516 . S
C2433 C2434 1.502 . S
C2433 C2435 1.561 . S
C2433 C2436 1.526 . S
C2434 H2418 0.959 . S
C2434 H2419 0.959 . S
C2434 H2420 0.961 . S
C2434 C2433 1.502 . S
C2435 H2421 0.960 . S
C2435 H2422 0.961 . S
C2435 H2423 0.959 . S
C2435 C2433 1.561 . S
C2436 C2433 1.526 . S
C2436 C2437 1.396 . S
C2436 C2441 1.390 . S
C2437 C2431 1.465 . S
C2437 C2436 1.396 . S
C2437 C2438 1.399 . S
C2438 H2424 0.929 . S
C2438 C2437 1.399 . S
C2438 C2439 1.385 . S
C2439 H2425 0.931 . S
C2439 C2438 1.385 . S
C2439 C2440 1.389 . S
C2440 C2439 1.389 . S
C2440 C2441 1.387 . S
C2441 H2426 0.930 . S
C2441 C2436 1.390 . S
C2441 C2440 1.387 . S
H2442 C2454 0.930 . S
H2443 C2456 0.930 . S
H2444 C2457 0.930 . S
H2445 C2461 0.959 . S
H2446 C2461 0.959 . S
H2447 C2461 0.961 . S
H2448 C2462 0.960 . S
H2449 C2462 0.961 . S
H2450 C2462 0.959 . S
H2451 C2465 0.929 . S
H2452 C2466 0.931 . S
H2453 C2468 0.930 . S
C2454 H2442 0.930 . S
C2454 C2455 1.399 . S
C2454 C2459 1.399 . S
C2455 C2454 1.399 . S
C2455 C2456 1.376 . S
C2456 H2443 0.930 . S
C2456 C2455 1.376 . S
C2456 C2457 1.388 . S
C2457 H2444 0.930 . S
C2457 C2456 1.388 . S
C2457 C2458 1.390 . S
C2458 C2457 1.390 . S
C2458 C2459 1.394 . S
C2458 C2464 1.465 . S
C2459 C2454 1.399 . S
C2459 C2458 1.394 . S
C2459 C2460 1.516 . S
C2460 C2459 1.516 . S
C2460 C2461 1.502 . S
C2460 C2462 1.561 . S
C2460 C2463 1.526 . S
C2461 H2445 0.959 . S
C2461 H2446 0.959 . S
C2461 H2447 0.961 . S
C2461 C2460 1.502 . S
C2462 H2448 0.960 . S
C2462 H2449 0.961 . S
C2462 H2450 0.959 . S
C2462 C2460 1.561 . S
C2463 C2460 1.526 . S
C2463 C2464 1.396 . S
C2463 C2468 1.390 . S
C2464 C2458 1.465 . S
C2464 C2463 1.396 . S
C2464 C2465 1.399 . S
C2465 H2451 0.929 . S
C2465 C2464 1.399 . S
C2465 C2466 1.385 . S
C2466 H2452 0.931 . S
C2466 C2465 1.385 . S
C2466 C2467 1.389 . S
C2467 C2466 1.389 . S
C2467 C2468 1.387 . S
C2468 H2453 0.930 . S
C2468 C2463 1.390 . S
C2468 C2467 1.387 . S
H2469 C2481 0.930 . S
H2470 C2483 0.930 . S
H2471 C2484 0.930 . S
H2472 C2488 0.959 . S
H2473 C2488 0.959 1_556 S
H2474 C2488 0.961 . S
H2475 C2489 0.960 . S
H2476 C2489 0.961 . S
H2477 C2489 0.959 . S
H2478 C2492 0.912 1_554 S
H2479 C2493 0.931 . S
H2480 C2495 0.930 . S
C2481 H2469 0.930 . S
C2481 C2482 1.399 . S
C2481 C2486 1.399 . S
C2482 C2481 1.399 . S
C2482 C2483 1.376 . S
C2483 H2470 0.930 . S
C2483 C2482 1.376 . S
C2483 C2484 1.388 . S
C2484 H2471 0.930 . S
C2484 C2483 1.388 . S
C2484 C2485 1.390 . S
C2485 C2484 1.390 . S
C2485 C2486 1.394 . S
C2485 C2491 1.433 1_554 S
C2486 C2481 1.399 . S
C2486 C2485 1.394 . S
C2486 C2487 1.516 1_554 S
C2487 C2486 1.516 1_556 S
C2487 C2488 1.502 1_556 S
C2487 C2489 1.561 . S
C2487 C2490 1.526 . S
C2488 H2472 0.959 . S
C2488 H2473 0.959 1_554 S
C2488 H2474 0.961 . S
C2488 C2487 1.502 1_554 S
C2489 H2475 0.960 . S
C2489 H2476 0.961 . S
C2489 H2477 0.959 . S
C2489 C2487 1.561 . S
C2490 C2487 1.526 . S
C2490 C2491 1.419 . S
C2490 C2495 1.390 . S
C2491 C2485 1.433 1_556 S
C2491 C2490 1.419 . S
C2491 C2492 1.410 . S
C2492 H2478 0.912 1_556 S
C2492 C2491 1.410 . S
C2492 C2493 1.385 . S
C2493 H2479 0.931 . S
C2493 C2492 1.385 . S
C2493 C2494 1.389 . S
C2494 C2493 1.389 . S
C2494 C2495 1.387 . S
C2495 H2480 0.930 . S
C2495 C2490 1.390 . S
C2495 C2494 1.387 . S
H2496 C2508 0.930 . S
H2497 C2510 0.930 . S
H2498 C2511 0.930 . S
H2499 C2515 0.959 . S
H2500 C2515 0.959 . S
H2501 C2515 0.961 . S
H2502 C2516 0.960 . S
H2503 C2516 0.961 . S
H2504 C2516 0.959 . S
H2505 C2519 0.929 . S
H2506 C2520 0.931 . S
H2507 C2522 0.930 . S
C2508 H2496 0.930 . S
C2508 C2509 1.399 . S
C2508 C2513 1.399 . S
C2509 C2508 1.399 . S
C2509 C2510 1.376 . S
C2510 H2497 0.930 . S
C2510 C2509 1.376 . S
C2510 C2511 1.388 . S
C2511 H2498 0.930 . S
C2511 C2510 1.388 . S
C2511 C2512 1.390 . S
C2512 C2511 1.390 . S
C2512 C2513 1.394 . S
C2512 C2518 1.465 . S
C2513 C2508 1.399 . S
C2513 C2512 1.394 . S
C2513 C2514 1.516 . S
C2514 C2513 1.516 . S
C2514 C2515 1.502 . S
C2514 C2516 1.561 . S
C2514 C2517 1.526 . S
C2515 H2499 0.959 . S
C2515 H2500 0.959 . S
C2515 H2501 0.961 . S
C2515 C2514 1.502 . S
C2516 H2502 0.960 . S
C2516 H2503 0.961 . S
C2516 H2504 0.959 . S
C2516 C2514 1.561 . S
C2517 C2514 1.526 . S
C2517 C2518 1.396 . S
C2517 C2522 1.390 . S
C2518 C2512 1.465 . S
C2518 C2517 1.396 . S
C2518 C2519 1.399 . S
C2519 H2505 0.929 . S
C2519 C2518 1.399 . S
C2519 C2520 1.385 . S
C2520 H2506 0.931 . S
C2520 C2519 1.385 . S
C2520 C2521 1.389 . S
C2521 C2520 1.389 . S
C2521 C2522 1.387 . S
C2522 H2507 0.930 . S
C2522 C2517 1.390 . S
C2522 C2521 1.387 . S
H2523 C2535 0.930 . S
H2524 C2537 0.930 . S
H2525 C2538 0.930 . S
H2526 C2542 0.959 . S
H2527 C2542 0.959 . S
H2528 C2542 0.961 . S
H2529 C2543 0.960 . S
H2530 C2543 0.961 . S
H2531 C2543 0.959 . S
H2532 C2546 0.929 . S
H2533 C2547 0.931 . S
H2534 C2549 0.930 . S
C2535 H2523 0.930 . S
C2535 C2536 1.399 . S
C2535 C2540 1.399 . S
C2536 C2535 1.399 . S
C2536 C2537 1.376 . S
C2537 H2524 0.930 . S
C2537 C2536 1.376 . S
C2537 C2538 1.388 . S
C2538 H2525 0.930 . S
C2538 C2537 1.388 . S
C2538 C2539 1.390 . S
C2539 C2538 1.390 . S
C2539 C2540 1.394 . S
C2539 C2545 1.465 . S
C2540 C2535 1.399 . S
C2540 C2539 1.394 . S
C2540 C2541 1.516 . S
C2541 C2540 1.516 . S
C2541 C2542 1.502 . S
C2541 C2543 1.561 . S
C2541 C2544 1.526 . S
C2542 H2526 0.959 . S
C2542 H2527 0.959 . S
C2542 H2528 0.961 . S
C2542 C2541 1.502 . S
C2543 H2529 0.960 . S
C2543 H2530 0.961 . S
C2543 H2531 0.959 . S
C2543 C2541 1.561 . S
C2544 C2541 1.526 . S
C2544 C2545 1.396 . S
C2544 C2549 1.390 . S
C2545 C2539 1.465 . S
C2545 C2544 1.396 . S
C2545 C2546 1.399 . S
C2546 H2532 0.929 . S
C2546 C2545 1.399 . S
C2546 C2547 1.385 . S
C2547 H2533 0.931 . S
C2547 C2546 1.385 . S
C2547 C2548 1.389 . S
C2548 C2547 1.389 . S
C2548 C2549 1.387 . S
C2549 H2534 0.930 . S
C2549 C2544 1.390 . S
C2549 C2548 1.387 . S
H2550 C2562 0.930 . S
H2551 C2564 0.930 . S
H2552 C2565 0.930 . S
H2553 C2569 0.959 . S
H2554 C2569 0.959 . S
H2555 C2569 0.961 . S
H2556 C2570 0.960 . S
H2557 C2570 0.961 1_455 S
H2558 C2570 0.959 . S
H2559 C2573 0.929 . S
H2560 C2574 0.931 . S
H2561 C2576 0.930 . S
C2562 H2550 0.930 . S
C2562 C2563 1.399 . S
C2562 C2567 1.399 . S
C2563 C2562 1.399 . S
C2563 C2564 1.376 . S
C2564 H2551 0.930 . S
C2564 C2563 1.376 . S
C2564 C2565 1.388 . S
C2565 H2552 0.930 . S
C2565 C2564 1.388 . S
C2565 C2566 1.390 . S
C2566 C2565 1.390 . S
C2566 C2567 1.394 . S
C2566 C2572 1.465 1_655 S
C2567 C2562 1.399 . S
C2567 C2566 1.394 . S
C2567 C2568 1.516 1_655 S
C2568 C2567 1.516 1_455 S
C2568 C2569 1.502 . S
C2568 C2570 1.561 1_455 S
C2568 C2571 1.526 . S
C2569 H2553 0.959 . S
C2569 H2554 0.959 . S
C2569 H2555 0.961 . S
C2569 C2568 1.502 . S
C2570 H2556 0.960 . S
C2570 H2557 0.961 1_655 S
C2570 H2558 0.959 . S
C2570 C2568 1.561 1_655 S
C2571 C2568 1.526 . S
C2571 C2572 1.396 . S
C2571 C2576 1.390 . S
C2572 C2566 1.465 1_455 S
C2572 C2571 1.396 . S
C2572 C2573 1.399 . S
C2573 H2559 0.929 . S
C2573 C2572 1.399 . S
C2573 C2574 1.385 . S
C2574 H2560 0.931 . S
C2574 C2573 1.385 . S
C2574 C2575 1.389 . S
C2575 C2574 1.389 . S
C2575 C2576 1.387 . S
C2576 H2561 0.930 . S
C2576 C2571 1.390 . S
C2576 C2575 1.387 . S
H2577 C2589 0.930 . S
H2578 C2591 0.930 . S
H2579 C2592 0.930 . S
H2580 C2596 0.959 . S
H2581 C2596 0.959 . S
H2582 C2596 0.961 . S
H2583 C2597 0.960 . S
H2584 C2597 0.961 . S
H2585 C2597 0.959 . S
H2586 C2600 0.929 . S
H2587 C2601 0.931 . S
H2588 C2603 0.930 . S
C2589 H2577 0.930 . S
C2589 C2590 1.399 . S
C2589 C2594 1.399 . S
C2590 C2589 1.399 . S
C2590 C2591 1.376 . S
C2591 H2578 0.930 . S
C2591 C2590 1.376 . S
C2591 C2592 1.388 . S
C2592 H2579 0.930 . S
C2592 C2591 1.388 . S
C2592 C2593 1.390 . S
C2593 C2592 1.390 . S
C2593 C2594 1.394 . S
C2593 C2599 1.465 . S
C2594 C2589 1.399 . S
C2594 C2593 1.394 . S
C2594 C2595 1.516 . S
C2595 C2594 1.516 . S
C2595 C2596 1.502 . S
C2595 C2597 1.561 . S
C2595 C2598 1.526 . S
C2596 H2580 0.959 . S
C2596 H2581 0.959 . S
C2596 H2582 0.961 . S
C2596 C2595 1.502 . S
C2597 H2583 0.960 . S
C2597 H2584 0.961 . S
C2597 H2585 0.959 . S
C2597 C2595 1.561 . S
C2598 C2595 1.526 . S
C2598 C2599 1.396 . S
C2598 C2603 1.390 . S
C2599 C2593 1.465 . S
C2599 C2598 1.396 . S
C2599 C2600 1.399 . S
C2600 H2586 0.929 . S
C2600 C2599 1.399 . S
C2600 C2601 1.385 . S
C2601 H2587 0.931 . S
C2601 C2600 1.385 . S
C2601 C2602 1.389 . S
C2602 C2601 1.389 . S
C2602 C2603 1.387 . S
C2603 H2588 0.930 . S
C2603 C2598 1.390 . S
C2603 C2602 1.387 . S
H2604 C2616 0.930 . S
H2605 C2618 0.930 . S
H2606 C2619 0.930 . S
H2607 C2623 0.959 . S
H2608 C2623 0.959 . S
H2609 C2623 0.961 . S
H2610 C2624 0.960 . S
H2611 C2624 0.961 1_455 S
H2612 C2624 0.959 . S
H2613 C2627 0.927 . S
H2614 C2628 0.931 . S
H2615 C2630 0.930 . S
C2616 H2604 0.930 . S
C2616 C2617 1.399 . S
C2616 C2621 1.399 . S
C2617 C2616 1.399 . S
C2617 C2618 1.376 . S
C2618 H2605 0.930 . S
C2618 C2617 1.376 . S
C2618 C2619 1.388 . S
C2619 H2606 0.930 . S
C2619 C2618 1.388 . S
C2619 C2620 1.390 . S
C2620 C2619 1.390 . S
C2620 C2621 1.394 . S
C2620 C2626 1.465 1_655 S
C2621 C2616 1.399 . S
C2621 C2620 1.394 . S
C2621 C2622 1.516 1_655 S
C2622 C2621 1.516 1_455 S
C2622 C2623 1.502 . S
C2622 C2624 1.561 1_455 S
C2622 C2625 1.526 . S
C2623 H2607 0.959 . S
C2623 H2608 0.959 . S
C2623 H2609 0.961 . S
C2623 C2622 1.502 . S
C2624 H2610 0.960 . S
C2624 H2611 0.961 1_655 S
C2624 H2612 0.959 . S
C2624 C2622 1.561 1_655 S
C2625 C2622 1.526 . S
C2625 C2626 1.396 . S
C2625 C2630 1.390 . S
C2626 C2620 1.465 1_455 S
C2626 C2625 1.396 . S
C2626 C2627 1.399 . S
C2627 H2613 0.927 . S
C2627 C2626 1.399 . S
C2627 C2628 1.385 . S
C2628 H2614 0.931 . S
C2628 C2627 1.385 . S
C2628 C2629 1.389 . S
C2629 C2628 1.389 . S
C2629 C2630 1.387 . S
C2630 H2615 0.930 . S
C2630 C2625 1.390 . S
C2630 C2629 1.387 . S
H2631 C2643 0.930 . S
H2632 C2645 0.930 . S
H2633 C2646 0.930 1_556 S
H2634 C2650 0.978 . S
H2635 C2650 0.959 . S
H2636 C2650 0.961 . S
H2637 C2651 0.960 . S
H2638 C2651 0.961 . S
H2639 C2651 0.959 . S
H2640 C2654 0.929 . S
H2641 C2655 0.931 . S
H2642 C2657 0.930 . S
C2643 H2631 0.930 . S
C2643 C2644 1.399 . S
C2643 C2648 1.399 . S
C2644 C2643 1.399 . S
C2644 C2645 1.376 . S
C2645 H2632 0.930 . S
C2645 C2644 1.376 . S
C2645 C2646 1.388 . S
C2646 H2633 0.930 1_554 S
C2646 C2645 1.388 . S
C2646 C2647 1.387 1_554 S
C2647 C2646 1.387 1_556 S
C2647 C2648 1.370 1_556 S
C2647 C2653 1.491 . S
C2648 C2643 1.399 . S
C2648 C2647 1.370 1_554 S
C2648 C2649 1.516 . S
C2649 C2648 1.516 . S
C2649 C2650 1.502 . S
C2649 C2651 1.561 . S
C2649 C2652 1.526 1_554 S
C2650 H2634 0.978 . S
C2650 H2635 0.959 . S
C2650 H2636 0.961 . S
C2650 C2649 1.502 . S
C2651 H2637 0.960 . S
C2651 H2638 0.961 . S
C2651 H2639 0.959 . S
C2651 C2649 1.561 . S
C2652 C2649 1.526 1_556 S
C2652 C2653 1.396 . S
C2652 C2657 1.390 . S
C2653 C2647 1.491 . S
C2653 C2652 1.396 . S
C2653 C2654 1.399 . S
C2654 H2640 0.929 . S
C2654 C2653 1.399 . S
C2654 C2655 1.385 . S
C2655 H2641 0.931 . S
C2655 C2654 1.385 . S
C2655 C2656 1.389 . S
C2656 C2655 1.389 . S
C2656 C2657 1.387 . S
C2657 H2642 0.930 . S
C2657 C2652 1.390 . S
C2657 C2656 1.387 . S
H2658 C2670 0.930 . S
H2659 C2672 0.930 . S
H2660 C2673 0.930 . S
H2661 C2677 0.959 . S
H2662 C2677 0.959 . S
H2663 C2677 0.961 . S
H2664 C2678 0.960 . S
H2665 C2678 0.961 . S
H2666 C2678 0.959 . S
H2667 C2681 0.929 . S
H2668 C2682 0.931 . S
H2669 C2684 0.930 . S
C2670 H2658 0.930 . S
C2670 C2671 1.399 . S
C2670 C2675 1.399 . S
C2671 C2670 1.399 . S
C2671 C2672 1.376 . S
C2672 H2659 0.930 . S
C2672 C2671 1.376 . S
C2672 C2673 1.388 . S
C2673 H2660 0.930 . S
C2673 C2672 1.388 . S
C2673 C2674 1.390 . S
C2674 C2673 1.390 . S
C2674 C2675 1.394 . S
C2674 C2680 1.465 . S
C2675 C2670 1.399 . S
C2675 C2674 1.394 . S
C2675 C2676 1.516 . S
C2676 C2675 1.516 . S
C2676 C2677 1.502 . S
C2676 C2678 1.561 . S
C2676 C2679 1.526 . S
C2677 H2661 0.959 . S
C2677 H2662 0.959 . S
C2677 H2663 0.961 . S
C2677 C2676 1.502 . S
C2678 H2664 0.960 . S
C2678 H2665 0.961 . S
C2678 H2666 0.959 . S
C2678 C2676 1.561 . S
C2679 C2676 1.526 . S
C2679 C2680 1.396 . S
C2679 C2684 1.390 . S
C2680 C2674 1.465 . S
C2680 C2679 1.396 . S
C2680 C2681 1.399 . S
C2681 H2667 0.929 . S
C2681 C2680 1.399 . S
C2681 C2682 1.385 . S
C2682 H2668 0.931 . S
C2682 C2681 1.385 . S
C2682 C2683 1.389 . S
C2683 C2682 1.389 . S
C2683 C2684 1.387 . S
C2684 H2669 0.930 . S
C2684 C2679 1.390 . S
C2684 C2683 1.387 . S
H2685 C2697 0.930 . S
H2686 C2699 0.930 . S
H2687 C2700 0.930 1_545 S
H2688 C2704 0.959 . S
H2689 C2704 0.959 . S
H2690 C2704 0.961 . S
H2691 C2705 0.960 . S
H2692 C2705 0.961 . S
H2693 C2705 0.959 . S
H2694 C2708 0.929 . S
H2695 C2709 0.931 . S
H2696 C2711 0.930 . S
C2697 H2685 0.930 . S
C2697 C2698 1.399 . S
C2697 C2702 1.399 . S
C2698 C2697 1.399 . S
C2698 C2699 1.376 . S
C2699 H2686 0.930 . S
C2699 C2698 1.376 . S
C2699 C2700 1.388 . S
C2700 H2687 0.930 1_565 S
C2700 C2699 1.388 . S
C2700 C2701 1.390 1_565 S
C2701 C2700 1.390 1_545 S
C2701 C2702 1.394 1_545 S
C2701 C2707 1.465 . S
C2702 C2697 1.399 . S
C2702 C2701 1.394 1_565 S
C2702 C2703 1.516 1_565 S
C2703 C2702 1.516 1_545 S
C2703 C2704 1.502 1_545 S
C2703 C2705 1.561 . S
C2703 C2706 1.526 . S
C2704 H2688 0.959 . S
C2704 H2689 0.959 . S
C2704 H2690 0.961 . S
C2704 C2703 1.502 1_565 S
C2705 H2691 0.960 . S
C2705 H2692 0.961 . S
C2705 H2693 0.959 . S
C2705 C2703 1.561 . S
C2706 C2703 1.526 . S
C2706 C2707 1.396 . S
C2706 C2711 1.390 . S
C2707 C2701 1.465 . S
C2707 C2706 1.396 . S
C2707 C2708 1.399 . S
C2708 H2694 0.929 . S
C2708 C2707 1.399 . S
C2708 C2709 1.385 . S
C2709 H2695 0.931 . S
C2709 C2708 1.385 . S
C2709 C2710 1.389 . S
C2710 C2709 1.389 . S
C2710 C2711 1.387 . S
C2711 H2696 0.930 . S
C2711 C2706 1.390 . S
C2711 C2710 1.387 . S
H2712 C2724 0.930 . S
H2713 C2726 0.930 . S
H2714 C2727 0.930 . S
H2715 C2731 0.959 . S
H2716 C2731 0.959 . S
H2717 C2731 0.961 . S
H2718 C2732 0.960 . S
H2719 C2732 0.961 . S
H2720 C2732 0.959 . S
H2721 C2735 0.929 . S
H2722 C2736 0.931 . S
H2723 C2738 0.930 . S
C2724 H2712 0.930 . S
C2724 C2725 1.399 . S
C2724 C2729 1.399 . S
C2725 C2724 1.399 . S
C2725 C2726 1.376 . S
C2726 H2713 0.930 . S
C2726 C2725 1.376 . S
C2726 C2727 1.388 . S
C2727 H2714 0.930 . S
C2727 C2726 1.388 . S
C2727 C2728 1.390 . S
C2728 C2727 1.390 . S
C2728 C2729 1.394 . S
C2728 C2734 1.465 . S
C2729 C2724 1.399 . S
C2729 C2728 1.394 . S
C2729 C2730 1.516 . S
C2730 C2729 1.516 . S
C2730 C2731 1.502 . S
C2730 C2732 1.561 . S
C2730 C2733 1.526 . S
C2731 H2715 0.959 . S
C2731 H2716 0.959 . S
C2731 H2717 0.961 . S
C2731 C2730 1.502 . S
C2732 H2718 0.960 . S
C2732 H2719 0.961 . S
C2732 H2720 0.959 . S
C2732 C2730 1.561 . S
C2733 C2730 1.526 . S
C2733 C2734 1.396 . S
C2733 C2738 1.390 . S
C2734 C2728 1.465 . S
C2734 C2733 1.396 . S
C2734 C2735 1.399 . S
C2735 H2721 0.929 . S
C2735 C2734 1.399 . S
C2735 C2736 1.385 . S
C2736 H2722 0.931 . S
C2736 C2735 1.385 . S
C2736 C2737 1.389 . S
C2737 C2736 1.389 . S
C2737 C2738 1.387 . S
C2738 H2723 0.930 . S
C2738 C2733 1.390 . S
C2738 C2737 1.387 . S
H2739 C2751 0.930 . S
H2740 C2753 0.930 . S
H2741 C2754 0.930 . S
H2742 C2758 0.959 . S
H2743 C2758 0.959 . S
H2744 C2758 0.961 . S
H2745 C2759 0.960 . S
H2746 C2759 0.961 . S
H2747 C2759 0.959 . S
H2748 C2762 0.929 . S
H2749 C2763 0.931 . S
H2750 C2765 0.930 . S
C2751 H2739 0.930 . S
C2751 C2752 1.399 . S
C2751 C2756 1.399 . S
C2752 C2751 1.399 . S
C2752 C2753 1.376 . S
C2753 H2740 0.930 . S
C2753 C2752 1.376 . S
C2753 C2754 1.388 . S
C2754 H2741 0.930 . S
C2754 C2753 1.388 . S
C2754 C2755 1.390 . S
C2755 C2754 1.390 . S
C2755 C2756 1.394 . S
C2755 C2761 1.465 . S
C2756 C2751 1.399 . S
C2756 C2755 1.394 . S
C2756 C2757 1.516 . S
C2757 C2756 1.516 . S
C2757 C2758 1.502 . S
C2757 C2759 1.561 . S
C2757 C2760 1.526 . S
C2758 H2742 0.959 . S
C2758 H2743 0.959 . S
C2758 H2744 0.961 . S
C2758 C2757 1.502 . S
C2759 H2745 0.960 . S
C2759 H2746 0.961 . S
C2759 H2747 0.959 . S
C2759 C2757 1.561 . S
C2760 C2757 1.526 . S
C2760 C2761 1.396 . S
C2760 C2765 1.390 . S
C2761 C2755 1.465 . S
C2761 C2760 1.396 . S
C2761 C2762 1.399 . S
C2762 H2748 0.929 . S
C2762 C2761 1.399 . S
C2762 C2763 1.385 . S
C2763 H2749 0.931 . S
C2763 C2762 1.385 . S
C2763 C2764 1.389 . S
C2764 C2763 1.389 . S
C2764 C2765 1.387 . S
C2765 H2750 0.930 . S
C2765 C2760 1.390 . S
C2765 C2764 1.387 . S
H2766 C2778 0.930 . S
H2767 C2780 0.930 . S
H2768 C2781 0.930 . S
H2769 C2785 0.959 . S
H2770 C2785 0.959 . S
H2771 C2785 0.961 . S
H2772 C2786 0.960 . S
H2773 C2786 0.961 . S
H2774 C2786 0.959 . S
H2775 C2789 0.929 . S
H2776 C2790 0.931 . S
H2777 C2792 0.930 . S
C2778 H2766 0.930 . S
C2778 C2779 1.399 . S
C2778 C2783 1.399 . S
C2779 C2778 1.399 . S
C2779 C2780 1.376 . S
C2780 H2767 0.930 . S
C2780 C2779 1.376 . S
C2780 C2781 1.388 . S
C2781 H2768 0.930 . S
C2781 C2780 1.388 . S
C2781 C2782 1.390 . S
C2782 C2781 1.390 . S
C2782 C2783 1.394 . S
C2782 C2788 1.465 . S
C2783 C2778 1.399 . S
C2783 C2782 1.394 . S
C2783 C2784 1.516 . S
C2784 C2783 1.516 . S
C2784 C2785 1.502 . S
C2784 C2786 1.561 . S
C2784 C2787 1.526 . S
C2785 H2769 0.959 . S
C2785 H2770 0.959 . S
C2785 H2771 0.961 . S
C2785 C2784 1.502 . S
C2786 H2772 0.960 . S
C2786 H2773 0.961 . S
C2786 H2774 0.959 . S
C2786 C2784 1.561 . S
C2787 C2784 1.526 . S
C2787 C2788 1.396 . S
C2787 C2792 1.390 . S
C2788 C2782 1.465 . S
C2788 C2787 1.396 . S
C2788 C2789 1.399 . S
C2789 H2775 0.929 . S
C2789 C2788 1.399 . S
C2789 C2790 1.385 . S
C2790 H2776 0.931 . S
C2790 C2789 1.385 . S
C2790 C2791 1.389 . S
C2791 C2790 1.389 . S
C2791 C2792 1.387 . S
C2792 H2777 0.930 . S
C2792 C2787 1.390 . S
C2792 C2791 1.387 . S
H2793 C2805 0.930 . S
H2794 C2807 0.930 . S
H2795 C2808 0.930 . S
H2796 C2812 0.959 . S
H2797 C2812 0.959 . S
H2798 C2812 0.961 . S
H2799 C2813 0.960 . S
H2800 C2813 0.961 . S
H2801 C2813 0.959 . S
H2802 C2816 0.929 . S
H2803 C2817 0.931 . S
H2804 C2819 0.930 . S
C2805 H2793 0.930 . S
C2805 C2806 1.399 . S
C2805 C2810 1.399 . S
C2806 C2805 1.399 . S
C2806 C2807 1.376 . S
C2807 H2794 0.930 . S
C2807 C2806 1.376 . S
C2807 C2808 1.388 . S
C2808 H2795 0.930 . S
C2808 C2807 1.388 . S
C2808 C2809 1.390 . S
C2809 C2808 1.390 . S
C2809 C2810 1.394 . S
C2809 C2815 1.465 1_556 S
C2810 C2805 1.399 . S
C2810 C2809 1.394 . S
C2810 C2811 1.516 1_556 S
C2811 C2810 1.516 1_554 S
C2811 C2812 1.502 . S
C2811 C2813 1.561 1_554 S
C2811 C2814 1.526 . S
C2812 H2796 0.959 . S
C2812 H2797 0.959 . S
C2812 H2798 0.961 . S
C2812 C2811 1.502 . S
C2813 H2799 0.960 . S
C2813 H2800 0.961 . S
C2813 H2801 0.959 . S
C2813 C2811 1.561 1_556 S
C2814 C2811 1.526 . S
C2814 C2815 1.396 . S
C2814 C2819 1.390 . S
C2815 C2809 1.465 1_554 S
C2815 C2814 1.396 . S
C2815 C2816 1.399 . S
C2816 H2802 0.929 . S
C2816 C2815 1.399 . S
C2816 C2817 1.385 . S
C2817 H2803 0.931 . S
C2817 C2816 1.385 . S
C2817 C2818 1.389 . S
C2818 C2817 1.389 . S
C2818 C2819 1.387 . S
C2819 H2804 0.930 . S
C2819 C2814 1.390 . S
C2819 C2818 1.387 . S
H2820 C2832 0.930 . S
H2821 C2834 0.930 . S
H2822 C2835 0.930 . S
H2823 C2839 0.959 . S
H2824 C2839 0.959 . S
H2825 C2839 0.961 . S
H2826 C2840 0.960 . S
H2827 C2840 0.961 . S
H2828 C2840 0.959 . S
H2829 C2843 0.929 . S
H2830 C2844 0.931 . S
H2831 C2846 0.930 . S
C2832 H2820 0.930 . S
C2832 C2833 1.399 . S
C2832 C2837 1.399 . S
C2833 C2832 1.399 . S
C2833 C2834 1.376 . S
C2834 H2821 0.930 . S
C2834 C2833 1.376 . S
C2834 C2835 1.388 . S
C2835 H2822 0.930 . S
C2835 C2834 1.388 . S
C2835 C2836 1.390 . S
C2836 C2835 1.390 . S
C2836 C2837 1.394 . S
C2836 C2842 1.465 . S
C2837 C2832 1.399 . S
C2837 C2836 1.394 . S
C2837 C2838 1.516 . S
C2838 C2837 1.516 . S
C2838 C2839 1.502 . S
C2838 C2840 1.561 . S
C2838 C2841 1.526 . S
C2839 H2823 0.959 . S
C2839 H2824 0.959 . S
C2839 H2825 0.961 . S
C2839 C2838 1.502 . S
C2840 H2826 0.960 . S
C2840 H2827 0.961 . S
C2840 H2828 0.959 . S
C2840 C2838 1.561 . S
C2841 C2838 1.526 . S
C2841 C2842 1.396 . S
C2841 C2846 1.390 . S
C2842 C2836 1.465 . S
C2842 C2841 1.396 . S
C2842 C2843 1.399 . S
C2843 H2829 0.929 . S
C2843 C2842 1.399 . S
C2843 C2844 1.385 . S
C2844 H2830 0.931 . S
C2844 C2843 1.385 . S
C2844 C2845 1.389 . S
C2845 C2844 1.389 . S
C2845 C2846 1.387 . S
C2846 H2831 0.930 . S
C2846 C2841 1.390 . S
C2846 C2845 1.387 . S
H2847 C2859 0.930 . S
H2848 C2861 0.930 . S
H2849 C2862 0.930 . S
H2850 C2866 0.959 . S
H2851 C2866 0.959 . S
H2852 C2866 0.961 . S
H2853 C2867 0.960 . S
H2854 C2867 0.961 . S
H2855 C2867 0.959 . S
H2856 C2870 0.929 1_565 S
H2857 C2871 0.931 . S
H2858 C2873 0.930 . S
C2859 H2847 0.930 . S
C2859 C2860 1.399 . S
C2859 C2864 1.401 . S
C2860 C2859 1.399 . S
C2860 C2861 1.376 . S
C2861 H2848 0.930 . S
C2861 C2860 1.376 . S
C2861 C2862 1.388 . S
C2862 H2849 0.930 . S
C2862 C2861 1.388 . S
C2862 C2863 1.390 . S
C2863 C2862 1.390 . S
C2863 C2864 1.395 . S
C2863 C2869 1.465 1_565 S
C2864 C2859 1.401 . S
C2864 C2863 1.395 . S
C2864 C2865 1.513 1_565 S
C2865 C2864 1.513 1_545 S
C2865 C2866 1.502 . S
C2865 C2867 1.561 . S
C2865 C2868 1.526 . S
C2866 H2850 0.959 . S
C2866 H2851 0.959 . S
C2866 H2852 0.961 . S
C2866 C2865 1.502 . S
C2867 H2853 0.960 . S
C2867 H2854 0.961 . S
C2867 H2855 0.959 . S
C2867 C2865 1.561 . S
C2868 C2865 1.526 . S
C2868 C2869 1.396 . S
C2868 C2873 1.390 . S
C2869 C2863 1.465 1_545 S
C2869 C2868 1.396 . S
C2869 C2870 1.399 . S
C2870 H2856 0.929 1_545 S
C2870 C2869 1.399 . S
C2870 C2871 1.385 . S
C2871 H2857 0.931 . S
C2871 C2870 1.385 . S
C2871 C2872 1.389 . S
C2872 C2871 1.389 . S
C2872 C2873 1.387 . S
C2873 H2858 0.930 . S
C2873 C2868 1.390 . S
C2873 C2872 1.387 . S
H2874 C2886 0.930 . S
H2875 C2888 0.930 . S
H2876 C2889 0.930 . S
H2877 C2893 0.959 . S
H2878 C2893 0.959 . S
H2879 C2893 0.961 . S
H2880 C2894 0.960 . S
H2881 C2894 0.961 1_554 S
H2882 C2894 0.959 . S
H2883 C2897 0.929 . S
H2884 C2898 0.931 . S
H2885 C2900 0.930 . S
C2886 H2874 0.930 . S
C2886 C2887 1.399 . S
C2886 C2891 1.399 . S
C2887 C2886 1.399 . S
C2887 C2888 1.376 . S
C2888 H2875 0.930 . S
C2888 C2887 1.376 . S
C2888 C2889 1.388 . S
C2889 H2876 0.930 . S
C2889 C2888 1.388 . S
C2889 C2890 1.390 . S
C2890 C2889 1.390 . S
C2890 C2891 1.394 . S
C2890 C2896 1.465 1_556 S
C2891 C2886 1.399 . S
C2891 C2890 1.394 . S
C2891 C2892 1.516 1_556 S
C2892 C2891 1.516 1_554 S
C2892 C2893 1.502 . S
C2892 C2894 1.561 1_554 S
C2892 C2895 1.526 . S
C2893 H2877 0.959 . S
C2893 H2878 0.959 . S
C2893 H2879 0.961 . S
C2893 C2892 1.502 . S
C2894 H2880 0.960 . S
C2894 H2881 0.961 1_556 S
C2894 H2882 0.959 . S
C2894 C2892 1.561 1_556 S
C2895 C2892 1.526 . S
C2895 C2896 1.396 . S
C2895 C2900 1.390 . S
C2896 C2890 1.465 1_554 S
C2896 C2895 1.396 . S
C2896 C2897 1.399 . S
C2897 H2883 0.929 . S
C2897 C2896 1.399 . S
C2897 C2898 1.385 . S
C2898 H2884 0.931 . S
C2898 C2897 1.385 . S
C2898 C2899 1.389 . S
C2899 C2898 1.389 . S
C2899 C2900 1.387 . S
C2900 H2885 0.930 . S
C2900 C2895 1.390 . S
C2900 C2899 1.387 . S
H2901 C2913 0.930 . S
H2902 C2915 0.930 . S
H2903 C2916 0.930 . S
H2904 C2920 0.959 . S
H2905 C2920 0.959 . S
H2906 C2920 0.961 . S
H2907 C2921 0.960 . S
H2908 C2921 0.961 1_565 S
H2909 C2921 0.959 1_565 S
H2910 C2924 0.929 . S
H2911 C2925 0.931 . S
H2912 C2927 0.930 . S
C2913 H2901 0.930 . S
C2913 C2914 1.399 . S
C2913 C2918 1.399 . S
C2914 C2913 1.399 . S
C2914 C2915 1.376 . S
C2915 H2902 0.930 . S
C2915 C2914 1.376 . S
C2915 C2916 1.388 . S
C2916 H2903 0.930 . S
C2916 C2915 1.388 . S
C2916 C2917 1.390 . S
C2917 C2916 1.390 . S
C2917 C2918 1.394 . S
C2917 C2923 1.465 1_545 S
C2918 C2913 1.399 . S
C2918 C2917 1.394 . S
C2918 C2919 1.516 . S
C2919 C2918 1.516 . S
C2919 C2920 1.502 . S
C2919 C2921 1.561 . S
C2919 C2922 1.526 1_545 S
C2920 H2904 0.959 . S
C2920 H2905 0.959 . S
C2920 H2906 0.961 . S
C2920 C2919 1.502 . S
C2921 H2907 0.960 . S
C2921 H2908 0.961 1_545 S
C2921 H2909 0.959 1_545 S
C2921 C2919 1.561 . S
C2922 C2919 1.526 1_565 S
C2922 C2923 1.396 . S
C2922 C2927 1.390 . S
C2923 C2917 1.465 1_565 S
C2923 C2922 1.396 . S
C2923 C2924 1.399 . S
C2924 H2910 0.929 . S
C2924 C2923 1.399 . S
C2924 C2925 1.385 . S
C2925 H2911 0.931 . S
C2925 C2924 1.385 . S
C2925 C2926 1.389 . S
C2926 C2925 1.389 . S
C2926 C2927 1.387 . S
C2927 H2912 0.930 . S
C2927 C2922 1.390 . S
C2927 C2926 1.387 . S
H2928 C2940 0.930 . S
H2929 C2942 0.930 . S
H2930 C2943 0.930 . S
H2931 C2947 0.959 . S
H2932 C2947 0.959 . S
H2933 C2947 0.961 . S
H2934 C2948 0.960 . S
H2935 C2948 0.961 . S
H2936 C2948 0.959 . S
H2937 C2951 0.929 . S
H2938 C2952 0.931 . S
H2939 C2954 0.930 . S
C2940 H2928 0.930 . S
C2940 C2941 1.399 . S
C2940 C2945 1.399 . S
C2941 C2940 1.399 . S
C2941 C2942 1.376 . S
C2942 H2929 0.930 . S
C2942 C2941 1.376 . S
C2942 C2943 1.388 . S
C2943 H2930 0.930 . S
C2943 C2942 1.388 . S
C2943 C2944 1.390 . S
C2944 C2943 1.390 . S
C2944 C2945 1.394 . S
C2944 C2950 1.465 . S
C2945 C2940 1.399 . S
C2945 C2944 1.394 . S
C2945 C2946 1.516 . S
C2946 C2945 1.516 . S
C2946 C2947 1.502 . S
C2946 C2948 1.561 . S
C2946 C2949 1.526 . S
C2947 H2931 0.959 . S
C2947 H2932 0.959 . S
C2947 H2933 0.961 . S
C2947 C2946 1.502 . S
C2948 H2934 0.960 . S
C2948 H2935 0.961 . S
C2948 H2936 0.959 . S
C2948 C2946 1.561 . S
C2949 C2946 1.526 . S
C2949 C2950 1.396 . S
C2949 C2954 1.390 . S
C2950 C2944 1.465 . S
C2950 C2949 1.396 . S
C2950 C2951 1.399 . S
C2951 H2937 0.929 . S
C2951 C2950 1.399 . S
C2951 C2952 1.385 . S
C2952 H2938 0.931 . S
C2952 C2951 1.385 . S
C2952 C2953 1.389 . S
C2953 C2952 1.389 . S
C2953 C2954 1.387 . S
C2954 H2939 0.930 . S
C2954 C2949 1.390 . S
C2954 C2953 1.387 . S
H2955 C2967 0.930 . S
H2956 C2969 0.930 . S
H2957 C2970 0.930 . S
H2958 C2974 0.959 . S
H2959 C2974 0.959 . S
H2960 C2974 0.961 . S
H2961 C2975 0.960 . S
H2962 C2975 0.961 . S
H2963 C2975 0.959 . S
H2964 C2978 0.929 1_655 S
H2965 C2979 0.931 . S
H2966 C2981 0.930 . S
C2967 H2955 0.930 . S
C2967 C2968 1.399 . S
C2967 C2972 1.399 . S
C2968 C2967 1.399 . S
C2968 C2969 1.376 . S
C2969 H2956 0.930 . S
C2969 C2968 1.376 . S
C2969 C2970 1.388 . S
C2970 H2957 0.930 . S
C2970 C2969 1.388 . S
C2970 C2971 1.390 . S
C2971 C2970 1.390 . S
C2971 C2972 1.394 . S
C2971 C2977 1.465 1_655 S
C2972 C2967 1.399 . S
C2972 C2971 1.394 . S
C2972 C2973 1.516 1_655 S
C2973 C2972 1.516 1_455 S
C2973 C2974 1.502 . S
C2973 C2975 1.561 . S
C2973 C2976 1.526 . S
C2974 H2958 0.959 . S
C2974 H2959 0.959 . S
C2974 H2960 0.961 . S
C2974 C2973 1.502 . S
C2975 H2961 0.960 . S
C2975 H2962 0.961 . S
C2975 H2963 0.959 . S
C2975 C2973 1.561 . S
C2976 C2973 1.526 . S
C2976 C2977 1.396 . S
C2976 C2981 1.390 . S
C2977 C2971 1.465 1_455 S
C2977 C2976 1.396 . S
C2977 C2978 1.399 . S
C2978 H2964 0.929 1_455 S
C2978 C2977 1.399 . S
C2978 C2979 1.385 . S
C2979 H2965 0.931 . S
C2979 C2978 1.385 . S
C2979 C2980 1.389 . S
C2980 C2979 1.389 . S
C2980 C2981 1.387 . S
C2981 H2966 0.930 . S
C2981 C2976 1.390 . S
C2981 C2980 1.387 . S
H2982 C2994 0.930 . S
H2983 C2996 0.930 . S
H2984 C2997 0.930 . S
H2985 C3001 0.959 . S
H2986 C3001 0.959 . S
H2987 C3001 0.961 . S
H2988 C3002 0.960 . S
H2989 C3002 0.961 . S
H2990 C3002 0.959 1_655 S
H2991 C3005 0.929 1_655 S
H2992 C3006 0.931 . S
H2993 C3008 0.930 . S
C2994 H2982 0.930 . S
C2994 C2995 1.399 . S
C2994 C2999 1.399 . S
C2995 C2994 1.399 . S
C2995 C2996 1.376 . S
C2996 H2983 0.930 . S
C2996 C2995 1.376 . S
C2996 C2997 1.388 . S
C2997 H2984 0.930 . S
C2997 C2996 1.388 . S
C2997 C2998 1.390 . S
C2998 C2997 1.390 . S
C2998 C2999 1.394 . S
C2998 C3004 1.465 1_655 S
C2999 C2994 1.399 . S
C2999 C2998 1.394 . S
C2999 C3000 1.516 1_655 S
C3000 C2999 1.516 1_455 S
C3000 C3001 1.502 . S
C3000 C3002 1.561 . S
C3000 C3003 1.526 . S
C3001 H2985 0.959 . S
C3001 H2986 0.959 . S
C3001 H2987 0.961 . S
C3001 C3000 1.502 . S
C3002 H2988 0.960 . S
C3002 H2989 0.961 . S
C3002 H2990 0.959 1_455 S
C3002 C3000 1.561 . S
C3003 C3000 1.526 . S
C3003 C3004 1.396 . S
C3003 C3008 1.390 . S
C3004 C2998 1.465 1_455 S
C3004 C3003 1.396 . S
C3004 C3005 1.399 . S
C3005 H2991 0.929 1_455 S
C3005 C3004 1.399 . S
C3005 C3006 1.385 . S
C3006 H2992 0.931 . S
C3006 C3005 1.385 . S
C3006 C3007 1.389 . S
C3007 C3006 1.389 . S
C3007 C3008 1.387 . S
C3008 H2993 0.930 . S
C3008 C3003 1.390 . S
C3008 C3007 1.387 . S
H3009 C3021 0.930 . S
H3010 C3023 0.930 . S
H3011 C3024 0.930 . S
H3012 C3028 0.959 . S
H3013 C3028 0.959 . S
H3014 C3028 0.961 . S
H3015 C3029 0.960 . S
H3016 C3029 0.961 . S
H3017 C3029 0.959 . S
H3018 C3032 0.929 . S
H3019 C3033 0.931 . S
H3020 C3035 0.930 . S
C3021 H3009 0.930 . S
C3021 C3022 1.399 . S
C3021 C3026 1.399 . S
C3022 C3021 1.399 . S
C3022 C3023 1.376 . S
C3023 H3010 0.930 . S
C3023 C3022 1.376 . S
C3023 C3024 1.388 . S
C3024 H3011 0.930 . S
C3024 C3023 1.388 . S
C3024 C3025 1.390 . S
C3025 C3024 1.390 . S
C3025 C3026 1.394 . S
C3025 C3031 1.465 . S
C3026 C3021 1.399 . S
C3026 C3025 1.394 . S
C3026 C3027 1.516 . S
C3027 C3026 1.516 . S
C3027 C3028 1.502 . S
C3027 C3029 1.561 . S
C3027 C3030 1.526 . S
C3028 H3012 0.959 . S
C3028 H3013 0.959 . S
C3028 H3014 0.961 . S
C3028 C3027 1.502 . S
C3029 H3015 0.960 . S
C3029 H3016 0.961 . S
C3029 H3017 0.959 . S
C3029 C3027 1.561 . S
C3030 C3027 1.526 . S
C3030 C3031 1.396 . S
C3030 C3035 1.390 . S
C3031 C3025 1.465 . S
C3031 C3030 1.396 . S
C3031 C3032 1.399 . S
C3032 H3018 0.929 . S
C3032 C3031 1.399 . S
C3032 C3033 1.385 . S
C3033 H3019 0.931 . S
C3033 C3032 1.385 . S
C3033 C3034 1.389 . S
C3034 C3033 1.389 . S
C3034 C3035 1.387 . S
C3035 H3020 0.930 . S
C3035 C3030 1.390 . S
C3035 C3034 1.387 . S
H3036 C3048 0.930 . S
H3037 C3050 0.930 . S
H3038 C3051 0.930 . S
H3039 C3055 0.959 . S
H3040 C3055 0.959 . S
H3041 C3055 0.961 . S
H3042 C3056 0.960 . S
H3043 C3056 0.961 . S
H3044 C3056 0.959 . S
H3045 C3059 0.929 1_655 S
H3046 C3060 0.931 . S
H3047 C3062 0.930 . S
C3048 H3036 0.930 . S
C3048 C3049 1.399 . S
C3048 C3053 1.399 1_655 S
C3049 C3048 1.399 . S
C3049 C3050 1.376 . S
C3050 H3037 0.930 . S
C3050 C3049 1.376 . S
C3050 C3051 1.388 . S
C3051 H3038 0.930 . S
C3051 C3050 1.388 . S
C3051 C3052 1.390 . S
C3052 C3051 1.390 . S
C3052 C3053 1.394 1_655 S
C3052 C3058 1.465 1_655 S
C3053 C3048 1.399 1_455 S
C3053 C3052 1.394 1_455 S
C3053 C3054 1.516 . S
C3054 C3053 1.516 . S
C3054 C3055 1.502 . S
C3054 C3056 1.561 . S
C3054 C3057 1.526 . S
C3055 H3039 0.959 . S
C3055 H3040 0.959 . S
C3055 H3041 0.961 . S
C3055 C3054 1.502 . S
C3056 H3042 0.960 . S
C3056 H3043 0.961 . S
C3056 H3044 0.959 . S
C3056 C3054 1.561 . S
C3057 C3054 1.526 . S
C3057 C3058 1.396 . S
C3057 C3062 1.390 . S
C3058 C3052 1.465 1_455 S
C3058 C3057 1.396 . S
C3058 C3059 1.399 . S
C3059 H3045 0.929 1_455 S
C3059 C3058 1.399 . S
C3059 C3060 1.385 . S
C3060 H3046 0.931 . S
C3060 C3059 1.385 . S
C3060 C3061 1.389 . S
C3061 C3060 1.389 . S
C3061 C3062 1.387 . S
C3062 H3047 0.930 . S
C3062 C3057 1.390 . S
C3062 C3061 1.387 . S
H3063 C3075 0.930 . S
H3064 C3077 0.930 . S
H3065 C3078 0.930 1_655 S
H3066 C3082 0.959 . S
H3067 C3082 0.959 . S
H3068 C3082 0.961 . S
H3069 C3083 0.960 . S
H3070 C3083 0.961 . S
H3071 C3083 0.959 . S
H3072 C3086 0.929 . S
H3073 C3087 0.931 . S
H3074 C3089 0.930 . S
C3075 H3063 0.930 . S
C3075 C3076 1.399 . S
C3075 C3080 1.399 . S
C3076 C3075 1.399 . S
C3076 C3077 1.376 . S
C3077 H3064 0.930 . S
C3077 C3076 1.376 . S
C3077 C3078 1.388 . S
C3078 H3065 0.930 1_455 S
C3078 C3077 1.388 . S
C3078 C3079 1.390 . S
C3079 C3078 1.390 . S
C3079 C3080 1.394 . S
C3079 C3085 1.465 1_455 S
C3080 C3075 1.399 . S
C3080 C3079 1.394 . S
C3080 C3081 1.516 . S
C3081 C3080 1.516 . S
C3081 C3082 1.502 . S
C3081 C3083 1.561 . S
C3081 C3084 1.526 1_455 S
C3082 H3066 0.959 . S
C3082 H3067 0.959 . S
C3082 H3068 0.961 . S
C3082 C3081 1.502 . S
C3083 H3069 0.960 . S
C3083 H3070 0.961 . S
C3083 H3071 0.959 . S
C3083 C3081 1.561 . S
C3084 C3081 1.526 1_655 S
C3084 C3085 1.396 . S
C3084 C3089 1.390 . S
C3085 C3079 1.465 1_655 S
C3085 C3084 1.396 . S
C3085 C3086 1.399 . S
C3086 H3072 0.929 . S
C3086 C3085 1.399 . S
C3086 C3087 1.385 . S
C3087 H3073 0.931 . S
C3087 C3086 1.385 . S
C3087 C3088 1.389 . S
C3088 C3087 1.389 . S
C3088 C3089 1.387 . S
C3089 H3074 0.930 . S
C3089 C3084 1.390 . S
C3089 C3088 1.387 . S
H3090 C3102 0.930 . S
H3091 C3104 0.930 . S
H3092 C3105 0.930 . S
H3093 C3109 0.959 . S
H3094 C3109 0.959 . S
H3095 C3109 0.961 . S
H3096 C3110 0.960 . S
H3097 C3110 0.961 . S
H3098 C3110 0.959 . S
H3099 C3113 0.929 . S
H3100 C3114 0.931 . S
H3101 C3116 0.930 . S
C3102 H3090 0.930 . S
C3102 C3103 1.399 . S
C3102 C3107 1.399 . S
C3103 C3102 1.399 . S
C3103 C3104 1.376 . S
C3104 H3091 0.930 . S
C3104 C3103 1.376 . S
C3104 C3105 1.388 . S
C3105 H3092 0.930 . S
C3105 C3104 1.388 . S
C3105 C3106 1.390 . S
C3106 C3105 1.390 . S
C3106 C3107 1.394 . S
C3106 C3112 1.465 . S
C3107 C3102 1.399 . S
C3107 C3106 1.394 . S
C3107 C3108 1.516 . S
C3108 C3107 1.516 . S
C3108 C3109 1.502 . S
C3108 C3110 1.561 . S
C3108 C3111 1.526 . S
C3109 H3093 0.959 . S
C3109 H3094 0.959 . S
C3109 H3095 0.961 . S
C3109 C3108 1.502 . S
C3110 H3096 0.960 . S
C3110 H3097 0.961 . S
C3110 H3098 0.959 . S
C3110 C3108 1.561 . S
C3111 C3108 1.526 . S
C3111 C3112 1.396 . S
C3111 C3116 1.390 . S
C3112 C3106 1.465 . S
C3112 C3111 1.396 . S
C3112 C3113 1.399 . S
C3113 H3099 0.929 . S
C3113 C3112 1.399 . S
C3113 C3114 1.385 . S
C3114 H3100 0.931 . S
C3114 C3113 1.385 . S
C3114 C3115 1.389 . S
C3115 C3114 1.389 . S
C3115 C3116 1.387 . S
C3116 H3101 0.930 . S
C3116 C3111 1.390 . S
C3116 C3115 1.387 . S
H3117 C3129 0.930 . S
H3118 C3131 0.930 . S
H3119 C3132 0.930 . S
H3120 C3136 0.959 . S
H3121 C3136 0.959 . S
H3122 C3136 0.961 . S
H3123 C3137 0.960 . S
H3124 C3137 0.961 . S
H3125 C3137 0.959 . S
H3126 C3140 0.911 1_545 S
H3127 C3141 0.931 . S
H3128 C3143 0.930 . S
C3129 H3117 0.930 . S
C3129 C3130 1.399 . S
C3129 C3134 1.399 . S
C3130 C3129 1.399 . S
C3130 C3131 1.376 . S
C3131 H3118 0.930 . S
C3131 C3130 1.376 . S
C3131 C3132 1.388 . S
C3132 H3119 0.930 . S
C3132 C3131 1.388 . S
C3132 C3133 1.390 . S
C3133 C3132 1.390 . S
C3133 C3134 1.394 . S
C3133 C3139 1.465 1_545 S
C3134 C3129 1.399 . S
C3134 C3133 1.394 . S
C3134 C3135 1.516 1_545 S
C3135 C3134 1.516 1_565 S
C3135 C3136 1.502 . S
C3135 C3137 1.561 . S
C3135 C3138 1.526 . S
C3136 H3120 0.959 . S
C3136 H3121 0.959 . S
C3136 H3122 0.961 . S
C3136 C3135 1.502 . S
C3137 H3123 0.960 . S
C3137 H3124 0.961 . S
C3137 H3125 0.959 . S
C3137 C3135 1.561 . S
C3138 C3135 1.526 . S
C3138 C3139 1.396 . S
C3138 C3143 1.390 . S
C3139 C3133 1.465 1_565 S
C3139 C3138 1.396 . S
C3139 C3140 1.401 . S
C3140 H3126 0.911 1_565 S
C3140 C3139 1.401 . S
C3140 C3141 1.402 . S
C3141 H3127 0.931 . S
C3141 C3140 1.402 . S
C3141 C3142 1.389 . S
C3142 C3141 1.389 . S
C3142 C3143 1.387 . S
C3143 H3128 0.930 . S
C3143 C3138 1.390 . S
C3143 C3142 1.387 . S
H3144 C3156 0.930 . S
H3145 C3158 0.930 . S
H3146 C3159 0.930 . S
H3147 C3163 0.959 . S
H3148 C3163 0.959 . S
H3149 C3163 0.961 . S
H3150 C3164 0.960 . S
H3151 C3164 0.961 1_556 S
H3152 C3164 0.959 1_556 S
H3153 C3167 0.929 . S
H3154 C3168 0.931 . S
H3155 C3170 0.930 . S
C3156 H3144 0.930 . S
C3156 C3157 1.399 . S
C3156 C3161 1.399 . S
C3157 C3156 1.399 . S
C3157 C3158 1.376 . S
C3158 H3145 0.930 . S
C3158 C3157 1.376 . S
C3158 C3159 1.388 . S
C3159 H3146 0.930 . S
C3159 C3158 1.388 . S
C3159 C3160 1.390 . S
C3160 C3159 1.390 . S
C3160 C3161 1.394 . S
C3160 C3166 1.465 1_554 S
C3161 C3156 1.399 . S
C3161 C3160 1.394 . S
C3161 C3162 1.516 . S
C3162 C3161 1.516 . S
C3162 C3163 1.502 . S
C3162 C3164 1.561 . S
C3162 C3165 1.526 1_554 S
C3163 H3147 0.959 . S
C3163 H3148 0.959 . S
C3163 H3149 0.961 . S
C3163 C3162 1.502 . S
C3164 H3150 0.960 . S
C3164 H3151 0.961 1_554 S
C3164 H3152 0.959 1_554 S
C3164 C3162 1.561 . S
C3165 C3162 1.526 1_556 S
C3165 C3166 1.396 . S
C3165 C3170 1.390 . S
C3166 C3160 1.465 1_556 S
C3166 C3165 1.396 . S
C3166 C3167 1.399 . S
C3167 H3153 0.929 . S
C3167 C3166 1.399 . S
C3167 C3168 1.385 . S
C3168 H3154 0.931 . S
C3168 C3167 1.385 . S
C3168 C3169 1.389 . S
C3169 C3168 1.389 . S
C3169 C3170 1.387 . S
C3170 H3155 0.930 . S
C3170 C3165 1.390 . S
C3170 C3169 1.387 . S
H3171 C3183 0.930 . S
H3172 C3185 0.930 . S
H3173 C3186 0.930 . S
H3174 C3190 0.959 . S
H3175 C3190 0.959 . S
H3176 C3190 0.961 . S
H3177 C3191 0.960 . S
H3178 C3191 0.961 . S
H3179 C3191 0.959 . S
H3180 C3194 0.929 . S
H3181 C3195 0.931 . S
H3182 C3197 0.930 . S
C3183 H3171 0.930 . S
C3183 C3184 1.399 . S
C3183 C3188 1.399 . S
C3184 C3183 1.399 . S
C3184 C3185 1.376 . S
C3185 H3172 0.930 . S
C3185 C3184 1.376 . S
C3185 C3186 1.388 . S
C3186 H3173 0.930 . S
C3186 C3185 1.388 . S
C3186 C3187 1.390 . S
C3187 C3186 1.390 . S
C3187 C3188 1.394 . S
C3187 C3193 1.465 . S
C3188 C3183 1.399 . S
C3188 C3187 1.394 . S
C3188 C3189 1.516 1_565 S
C3189 C3188 1.516 1_545 S
C3189 C3190 1.502 . S
C3189 C3191 1.561 . S
C3189 C3192 1.526 . S
C3190 H3174 0.959 . S
C3190 H3175 0.959 . S
C3190 H3176 0.961 . S
C3190 C3189 1.502 . S
C3191 H3177 0.960 . S
C3191 H3178 0.961 . S
C3191 H3179 0.959 . S
C3191 C3189 1.561 . S
C3192 C3189 1.526 . S
C3192 C3193 1.396 1_545 S
C3192 C3197 1.390 . S
C3193 C3187 1.465 . S
C3193 C3192 1.396 1_565 S
C3193 C3194 1.399 . S
C3194 H3180 0.929 . S
C3194 C3193 1.399 . S
C3194 C3195 1.385 1_565 S
C3195 H3181 0.931 . S
C3195 C3194 1.385 1_545 S
C3195 C3196 1.389 . S
C3196 C3195 1.389 . S
C3196 C3197 1.387 . S
C3197 H3182 0.930 . S
C3197 C3192 1.390 . S
C3197 C3196 1.387 . S
H3198 C3210 0.930 . S
H3199 C3212 0.930 . S
H3200 C3213 0.930 . S
H3201 C3217 0.959 . S
H3202 C3217 0.959 . S
H3203 C3217 0.961 . S
H3204 C3218 0.960 . S
H3205 C3218 0.961 . S
H3206 C3218 0.959 . S
H3207 C3221 0.929 . S
H3208 C3222 0.931 . S
H3209 C3224 0.930 . S
C3210 H3198 0.930 . S
C3210 C3211 1.399 . S
C3210 C3215 1.399 . S
C3211 C3210 1.399 . S
C3211 C3212 1.376 . S
C3212 H3199 0.930 . S
C3212 C3211 1.376 . S
C3212 C3213 1.388 . S
C3213 H3200 0.930 . S
C3213 C3212 1.388 . S
C3213 C3214 1.390 . S
C3214 C3213 1.390 . S
C3214 C3215 1.394 . S
C3214 C3220 1.465 . S
C3215 C3210 1.399 . S
C3215 C3214 1.394 . S
C3215 C3216 1.516 . S
C3216 C3215 1.516 . S
C3216 C3217 1.502 . S
C3216 C3218 1.561 . S
C3216 C3219 1.526 . S
C3217 H3201 0.959 . S
C3217 H3202 0.959 . S
C3217 H3203 0.961 . S
C3217 C3216 1.502 . S
C3218 H3204 0.960 . S
C3218 H3205 0.961 . S
C3218 H3206 0.959 . S
C3218 C3216 1.561 . S
C3219 C3216 1.526 . S
C3219 C3220 1.396 . S
C3219 C3224 1.390 . S
C3220 C3214 1.465 . S
C3220 C3219 1.396 . S
C3220 C3221 1.399 . S
C3221 H3207 0.929 . S
C3221 C3220 1.399 . S
C3221 C3222 1.385 . S
C3222 H3208 0.931 . S
C3222 C3221 1.385 . S
C3222 C3223 1.389 . S
C3223 C3222 1.389 . S
C3223 C3224 1.387 . S
C3224 H3209 0.930 . S
C3224 C3219 1.390 . S
C3224 C3223 1.387 . S
H3225 C3237 0.930 . S
H3226 C3239 0.930 . S
H3227 C3240 0.930 . S
H3228 C3244 0.959 . S
H3229 C3244 0.959 . S
H3230 C3244 0.961 . S
H3231 C3245 0.960 . S
H3232 C3245 0.961 . S
H3233 C3245 0.959 . S
H3234 C3248 0.929 . S
H3235 C3249 0.931 . S
H3236 C3251 0.930 . S
C3237 H3225 0.930 . S
C3237 C3238 1.399 . S
C3237 C3242 1.399 . S
C3238 C3237 1.399 . S
C3238 C3239 1.376 . S
C3239 H3226 0.930 . S
C3239 C3238 1.376 . S
C3239 C3240 1.388 . S
C3240 H3227 0.930 . S
C3240 C3239 1.388 . S
C3240 C3241 1.390 . S
C3241 C3240 1.390 . S
C3241 C3242 1.394 . S
C3241 C3247 1.465 1_554 S
C3242 C3237 1.399 . S
C3242 C3241 1.394 . S
C3242 C3243 1.516 . S
C3243 C3242 1.516 . S
C3243 C3244 1.502 . S
C3243 C3245 1.561 1_554 S
C3243 C3246 1.526 1_554 S
C3244 H3228 0.959 . S
C3244 H3229 0.959 . S
C3244 H3230 0.961 . S
C3244 C3243 1.502 . S
C3245 H3231 0.960 . S
C3245 H3232 0.961 . S
C3245 H3233 0.959 . S
C3245 C3243 1.561 1_556 S
C3246 C3243 1.526 1_556 S
C3246 C3247 1.396 . S
C3246 C3251 1.390 . S
C3247 C3241 1.465 1_556 S
C3247 C3246 1.396 . S
C3247 C3248 1.399 . S
C3248 H3234 0.929 . S
C3248 C3247 1.399 . S
C3248 C3249 1.385 . S
C3249 H3235 0.931 . S
C3249 C3248 1.385 . S
C3249 C3250 1.389 . S
C3250 C3249 1.389 . S
C3250 C3251 1.387 . S
C3251 H3236 0.930 . S
C3251 C3246 1.390 . S
C3251 C3250 1.387 . S
H3252 C3264 0.930 . S
H3253 C3266 0.930 . S
H3254 C3267 0.930 . S
H3255 C3271 0.959 . S
H3256 C3271 0.959 . S
H3257 C3271 0.961 . S
H3258 C3272 0.960 . S
H3259 C3272 0.961 . S
H3260 C3272 0.959 . S
H3261 C3275 0.929 . S
H3262 C3276 0.931 . S
H3263 C3278 0.930 . S
C3264 H3252 0.930 . S
C3264 C3265 1.399 . S
C3264 C3269 1.399 . S
C3265 C3264 1.399 . S
C3265 C3266 1.376 . S
C3266 H3253 0.930 . S
C3266 C3265 1.376 . S
C3266 C3267 1.388 . S
C3267 H3254 0.930 . S
C3267 C3266 1.388 . S
C3267 C3268 1.390 . S
C3268 C3267 1.390 . S
C3268 C3269 1.394 . S
C3268 C3274 1.465 . S
C3269 C3264 1.399 . S
C3269 C3268 1.394 . S
C3269 C3270 1.516 . S
C3270 C3269 1.516 . S
C3270 C3271 1.502 . S
C3270 C3272 1.561 . S
C3270 C3273 1.526 . S
C3271 H3255 0.959 . S
C3271 H3256 0.959 . S
C3271 H3257 0.961 . S
C3271 C3270 1.502 . S
C3272 H3258 0.960 . S
C3272 H3259 0.961 . S
C3272 H3260 0.959 . S
C3272 C3270 1.561 . S
C3273 C3270 1.526 . S
C3273 C3274 1.396 . S
C3273 C3278 1.390 . S
C3274 C3268 1.465 . S
C3274 C3273 1.396 . S
C3274 C3275 1.399 . S
C3275 H3261 0.929 . S
C3275 C3274 1.399 . S
C3275 C3276 1.385 . S
C3276 H3262 0.931 . S
C3276 C3275 1.385 . S
C3276 C3277 1.389 . S
C3277 C3276 1.389 . S
C3277 C3278 1.387 . S
C3278 H3263 0.930 . S
C3278 C3273 1.390 . S
C3278 C3277 1.387 . S
H3279 C3291 0.930 . S
H3280 C3293 0.930 . S
H3281 C3294 0.930 . S
H3282 C3298 0.959 . S
H3283 C3298 0.959 . S
H3284 C3298 0.961 . S
H3285 C3299 0.960 . S
H3286 C3299 0.961 . S
H3287 C3299 0.959 . S
H3288 C3302 0.929 . S
H3289 C3303 0.931 . S
H3290 C3305 0.930 . S
C3291 H3279 0.930 . S
C3291 C3292 1.399 . S
C3291 C3296 1.399 . S
C3292 C3291 1.399 . S
C3292 C3293 1.376 . S
C3293 H3280 0.930 . S
C3293 C3292 1.376 . S
C3293 C3294 1.388 . S
C3294 H3281 0.930 . S
C3294 C3293 1.388 . S
C3294 C3295 1.390 . S
C3295 C3294 1.390 . S
C3295 C3296 1.394 . S
C3295 C3301 1.465 . S
C3296 C3291 1.399 . S
C3296 C3295 1.394 . S
C3296 C3297 1.516 . S
C3297 C3296 1.516 . S
C3297 C3298 1.502 . S
C3297 C3299 1.561 . S
C3297 C3300 1.526 . S
C3298 H3282 0.959 . S
C3298 H3283 0.959 . S
C3298 H3284 0.961 . S
C3298 C3297 1.502 . S
C3299 H3285 0.960 . S
C3299 H3286 0.961 . S
C3299 H3287 0.959 . S
C3299 C3297 1.561 . S
C3300 C3297 1.526 . S
C3300 C3301 1.396 . S
C3300 C3305 1.390 . S
C3301 C3295 1.465 . S
C3301 C3300 1.396 . S
C3301 C3302 1.399 . S
C3302 H3288 0.929 . S
C3302 C3301 1.399 . S
C3302 C3303 1.385 . S
C3303 H3289 0.931 . S
C3303 C3302 1.385 . S
C3303 C3304 1.389 . S
C3304 C3303 1.389 . S
C3304 C3305 1.387 . S
C3305 H3290 0.930 . S
C3305 C3300 1.390 . S
C3305 C3304 1.387 . S
H3306 C3318 0.930 . S
H3307 C3320 0.930 . S
H3308 C3321 0.930 . S
H3309 C3325 0.959 . S
H3310 C3325 0.959 . S
H3311 C3325 0.961 . S
H3312 C3326 0.960 . S
H3313 C3326 0.961 . S
H3314 C3326 0.959 . S
H3315 C3329 0.929 . S
H3316 C3330 0.931 . S
H3317 C3332 0.930 . S
C3318 H3306 0.930 . S
C3318 C3319 1.399 . S
C3318 C3323 1.399 . S
C3319 C3318 1.399 . S
C3319 C3320 1.376 . S
C3320 H3307 0.930 . S
C3320 C3319 1.376 . S
C3320 C3321 1.388 . S
C3321 H3308 0.930 . S
C3321 C3320 1.388 . S
C3321 C3322 1.390 . S
C3322 C3321 1.390 . S
C3322 C3323 1.394 . S
C3322 C3328 1.465 . S
C3323 C3318 1.399 . S
C3323 C3322 1.394 . S
C3323 C3324 1.516 . S
C3324 C3323 1.516 . S
C3324 C3325 1.502 . S
C3324 C3326 1.561 . S
C3324 C3327 1.526 . S
C3325 H3309 0.959 . S
C3325 H3310 0.959 . S
C3325 H3311 0.961 . S
C3325 C3324 1.502 . S
C3326 H3312 0.960 . S
C3326 H3313 0.961 . S
C3326 H3314 0.959 . S
C3326 C3324 1.561 . S
C3327 C3324 1.526 . S
C3327 C3328 1.396 . S
C3327 C3332 1.390 . S
C3328 C3322 1.465 . S
C3328 C3327 1.396 . S
C3328 C3329 1.399 . S
C3329 H3315 0.929 . S
C3329 C3328 1.399 . S
C3329 C3330 1.385 . S
C3330 H3316 0.931 . S
C3330 C3329 1.385 . S
C3330 C3331 1.389 . S
C3331 C3330 1.389 . S
C3331 C3332 1.387 . S
C3332 H3317 0.930 . S
C3332 C3327 1.390 . S
C3332 C3331 1.387 . S
H3333 C3345 0.930 . S
H3334 C3347 0.930 . S
H3335 C3348 0.930 . S
H3336 C3352 0.959 . S
H3337 C3352 0.959 . S
H3338 C3352 0.961 . S
H3339 C3353 0.960 . S
H3340 C3353 0.961 . S
H3341 C3353 0.959 . S
H3342 C3356 0.929 . S
H3343 C3357 0.931 . S
H3344 C3359 0.930 . S
C3345 H3333 0.930 . S
C3345 C3346 1.399 . S
C3345 C3350 1.399 . S
C3346 C3345 1.399 . S
C3346 C3347 1.376 . S
C3347 H3334 0.930 . S
C3347 C3346 1.376 . S
C3347 C3348 1.388 . S
C3348 H3335 0.930 . S
C3348 C3347 1.388 . S
C3348 C3349 1.390 . S
C3349 C3348 1.390 . S
C3349 C3350 1.394 . S
C3349 C3355 1.465 . S
C3350 C3345 1.399 . S
C3350 C3349 1.394 . S
C3350 C3351 1.516 . S
C3351 C3350 1.516 . S
C3351 C3352 1.502 . S
C3351 C3353 1.561 . S
C3351 C3354 1.526 . S
C3352 H3336 0.959 . S
C3352 H3337 0.959 . S
C3352 H3338 0.961 . S
C3352 C3351 1.502 . S
C3353 H3339 0.960 . S
C3353 H3340 0.961 . S
C3353 H3341 0.959 . S
C3353 C3351 1.561 . S
C3354 C3351 1.526 . S
C3354 C3355 1.396 . S
C3354 C3359 1.390 . S
C3355 C3349 1.465 . S
C3355 C3354 1.396 . S
C3355 C3356 1.399 . S
C3356 H3342 0.929 . S
C3356 C3355 1.399 . S
C3356 C3357 1.385 . S
C3357 H3343 0.931 . S
C3357 C3356 1.385 . S
C3357 C3358 1.389 . S
C3358 C3357 1.389 . S
C3358 C3359 1.387 . S
C3359 H3344 0.930 . S
C3359 C3354 1.390 . S
C3359 C3358 1.387 . S
C781 C21 1.043 . S
C793 C274 1.041 . S
C808 C49 1.465 . S
C820 C310 1.568 . S
C835 C342 1.246 . S
C847 C85 1.241 . S
C862 C370 0.990 . S
C874 C117 1.025 . S
C889 C149 1.115 . S
C901 C374 1.101 . S
C916 C181 1.160 . S
C928 C278 1.213 . S
C943 C209 1.385 . S
C955 C306 1.470 . S
C970 C338 1.043 . S
C982 C245 1.081 . S
C997 C402 1.153 . S
C1009 C277 1.138 . S
C1024 C305 1.450 . S
C1036 C534 1.690 . S
C1051 C337 1.622 . S
C1063 C470 1.807 . S
C1078 C502 1.244 . S
C1090 C373 1.250 . S
C1105 C369 1.648 . S
C1117 C630 1.820 . S
C1132 C566 1.558 . S
C1144 C273 1.413 . S
C1159 C309 1.102 . S
C1171 C598 1.145 . S
C1186 C434 1.301 . S
C1198 C341 1.264 . S
C1213 C405 1.357 . S
C1225 C18 1.344 . S
C1240 C241 1.555 . S
C1252 C562 1.654 . S
C1267 C594 1.509 . S
C1279 C145 1.327 . S
C1294 C438 1.955 . S
C1306 C177 1.788 . S
C1321 C242 1.184 . S
C1333 C437 1.177 . S
C1348 C82 1.520 . S
C1360 C465 1.394 . S
C1375 C466 1.574 . S
C1387 C17 1.382 . S
C1402 C406 1.886 . S
C1414 C81 1.762 . S
C1429 C501 1.016 . S
C1441 C658 1.007 . S
C1456 C401 1.493 . S
C1468 C694 1.602 . S
C1483 C726 1.331 . S
C1495 C533 1.284 . S
C1510 C469 1.111 . S
C1522 C758 1.078 . S
C1537 C754 1.067 . S
C1549 C565 1.021 . S
C1564 C662 1.168 . S
C1576 C597 1.179 . S
C1591 C433 1.386 . S
C1603 C690 1.486 . S
C1618 C722 1.114 . S
C1630 C629 1.079 . S
C1645 C50 1.105 . S
C1657 C661 1.101 . S
C1672 C689 1.450 . S
C1684 C86 1.682 . S
C1699 C118 1.643 . S
C1711 C721 1.548 . S
C1726 C22 1.838 . S
C1738 C753 1.613 . S
C1753 C757 1.298 . S
C1765 C246 1.329 . S
C1780 C657 1.515 . S
C1792 C150 1.721 . S
C1807 C693 1.133 . S
C1819 C182 1.133 . S
C1834 C725 1.237 . S
C1846 C210 1.219 . S
C1861 C53 1.261 . S
C1873 C498 1.237 . S
C1888 C146 1.581 . S
C1900 C625 1.462 . S
C1915 C561 1.509 . S
C1927 C178 1.628 . S
C1942 C214 1.971 . S
C1954 C593 1.756 . S
C1969 C213 1.229 . S
C1981 C626 1.256 . S
C1996 C113 1.523 . S
C2008 C530 1.631 . S
C2023 C497 1.510 . S
C2035 C114 1.655 . S
C2050 C529 1.690 . S
C2062 C54 1.856 . S
C2077 C16 1.816 . S
C2089 C311 1.727 . S
C2104 C343 2.096 . S
C2116 C55 2.034 . S
C2131 C368 1.529 . S
C2143 C80 1.524 . S
C2158 C272 1.556 . S
C2170 C112 1.556 . S
C2185 C336 1.587 . S
C2197 C144 1.584 . S
C2212 C375 1.683 . S
C2224 C176 1.747 . S
C2239 C279 1.961 . S
C2251 C215 1.918 . S
C2266 C240 1.545 . S
C2278 C304 1.554 . S
C2293 C151 1.701 . S
C2305 C400 1.742 . S
C2320 C247 2.019 . S
C2332 C503 2.058 . S
C2347 C535 2.010 . S
C2359 C183 1.957 . S
C2374 C432 1.914 . S
C2386 C119 1.821 . S
C2401 C208 1.812 . S
C2413 C471 1.797 . S
C2428 C23 2.056 . S
C2440 C631 1.999 . S
C2455 C599 1.895 . S
C2467 C87 1.848 . S
C2482 C695 1.743 . S
C2494 C496 1.750 . S
C2509 C727 1.915 . S
C2521 C407 1.969 . S
C2536 C528 1.767 . S
C2548 C759 1.763 . S
C2563 C656 1.567 . S
C2575 C464 1.564 . S
C2590 C720 1.612 . S
C2602 C560 1.610 . S
C2617 C752 1.511 . S
C2629 C592 1.511 . S
C2644 C439 2.089 . S
C2656 C663 2.040 . S
C2671 C688 1.616 . S
C2683 C624 1.612 . S
C2698 C48 1.803 . S
C2710 C567 1.789 . S
C2725 C148 1.583 . S
C2737 C20 1.615 . S
C2752 C180 1.902 . S
C2764 C51 1.862 . S
C2779 C211 1.683 . S
C2791 C84 1.810 . S
C2806 C244 1.604 . S
C2818 C116 1.588 . S
C2833 C308 1.746 . S
C2845 C276 1.732 . S
C2860 C340 1.946 . S
C2872 C307 1.879 . S
C2887 C339 2.141 . S
C2899 C371 2.156 . S
C2914 C275 1.881 . S
C2926 C372 1.942 . S
C2941 C404 1.918 . S
C2953 C115 1.801 . S
C2968 C243 2.125 . S
C2980 C595 2.139 . S
C2995 C436 1.879 . S
C3007 C147 1.778 . S
C3022 C179 2.102 . S
C3034 C627 2.094 . S
C3049 C52 1.966 . S
C3061 C467 1.887 . S
C3076 C19 1.958 . S
C3088 C531 1.971 . S
C3103 C83 2.052 . S
C3115 C499 2.059 . S
C3130 C564 1.645 . S
C3142 C500 1.670 . S
C3157 C403 1.733 . S
C3169 C596 1.795 . S
C3184 C435 1.811 . S
C3196 C532 1.930 . S
C3211 C468 1.529 . S
C3223 C628 1.550 . S
C3238 C692 1.762 . S
C3250 C660 1.749 . S
C3265 C724 1.917 . S
C3277 C691 1.842 . S
C3292 C756 1.947 . S
C3304 C723 1.901 . S
C3319 C755 2.112 . S
C3331 C659 2.112 . S
C3346 C212 1.803 . S
C3358 C563 1.771 . S
