# Generated by pormake.
# Topology ske, (6)-cn, num edge types: 1
# Building blocks:
#     Node 0, Type 0, BuildingBlock: FUNLAD_clean_sbu_0, # of connection points: 6
#     Node 1, Type 0, BuildingBlock: FUNLAD_clean_sbu_0, # of connection points: 6
#     Node 2, Type 0, BuildingBlock: FUNLAD_clean_sbu_0, # of connection points: 6
#     Node 3, Type 0, BuildingBlock: FUNLAD_clean_sbu_0, # of connection points: 6
#     Node 4, Type 0, BuildingBlock: FUNLAD_clean_sbu_0, # of connection points: 6
#     Node 5, Type 0, BuildingBlock: FUNLAD_clean_sbu_0, # of connection points: 6
#     Node 6, Type 0, BuildingBlock: FUNLAD_clean_sbu_0, # of connection points: 6
#     Node 7, Type 0, BuildingBlock: FUNLAD_clean_sbu_0, # of connection points: 6
#     Edge 8, Type (0, 0), None
#     Edge 9, Type (0, 0), None
#     Edge 10, Type (0, 0), None
#     Edge 11, Type (0, 0), None
#     Edge 12, Type (0, 0), None
#     Edge 13, Type (0, 0), None
#     Edge 14, Type (0, 0), None
#     Edge 15, Type (0, 0), None
#     Edge 16, Type (0, 0), None
#     Edge 17, Type (0, 0), None
#     Edge 18, Type (0, 0), None
#     Edge 19, Type (0, 0), None
#     Edge 20, Type (0, 0), None
#     Edge 21, Type (0, 0), None
#     Edge 22, Type (0, 0), None
#     Edge 23, Type (0, 0), None
#     Edge 24, Type (0, 0), None
#     Edge 25, Type (0, 0), None
#     Edge 26, Type (0, 0), None
#     Edge 27, Type (0, 0), None
#     Edge 28, Type (0, 0), None
#     Edge 29, Type (0, 0), None
#     Edge 30, Type (0, 0), None
#     Edge 31, Type (0, 0), None
# Relax obj value: 0.026
# Max RMSD: 0.112
# Mean RMSD: 0.108
data_MOF--net-ske--node1-FUNLAD_clean_sbu_0--edge1-none
_symmetry_space_group_name_H-M    P1
_symmetry_Int_Tables_number       1
_symmetry_cell_setting            triclinic
loop_
_symmetry_equiv_pos_as_xyz
'x, y, z'
_cell_length_a     27.592856
_cell_length_b     26.288585
_cell_length_c     6.7804028
_cell_angle_alpha  89.90448
_cell_angle_beta   90.000581
_cell_angle_gamma 90.768762
loop_
_atom_site_label
_atom_site_type_symbol
_atom_site_fract_x
_atom_site_fract_y
_atom_site_fract_z
_atom_type_partial_charge
C0 C 0.1966 0.28194 0.69068 0.0
N1 N 0.09773 0.16012 0.61671 0.0
C2 C 0.13586 0.14103 0.51391 0.0
C3 C 0.13635 0.09023 0.4566 0.0
C4 C 0.09667 0.05846 0.4998 0.0
C5 C 0.05769 0.07847 0.60674 0.0
C6 C 0.05911 0.1297 0.66545 0.0
Zn7 Zn 0.09718 0.23873 0.64063 0.0
C8 C 0.09641 0.28158 0.04275 0.0
N9 N 0.09946 0.40309 0.61694 0.0
C10 C 0.13714 0.42363 0.51243 0.0
C11 C 0.06078 0.43205 0.66794 0.0
C12 C 0.05859 0.48314 0.60854 0.0
C13 C 0.0969 0.50463 0.49876 0.0
C14 C 0.13686 0.47446 0.45417 0.0
Zn15 Zn 0.09848 0.32452 0.63964 0.0
O16 O 0.17345 0.24029 0.67058 0.0
C17 C 0.09901 0.28168 0.23662 0.0
O18 O 0.17486 0.32379 0.66858 0.0
H19 H 0.03071 0.41519 0.748 0.0
H20 H 0.16523 0.16565 0.46649 0.0
H21 H 0.16666 0.40008 0.46476 0.0
O22 O 0.09957 0.24005 0.33006 0.0
O23 O 0.10082 0.32341 0.32898 0.0
H24 H 0.02857 0.14544 0.7432 0.0
O25 O 0.02233 0.32316 0.62331 0.0
O26 O 0.02091 0.23942 0.62401 0.0
O27 O 0.09594 0.32376 0.94988 0.0
O28 O 0.09463 0.2393 0.95096 0.0
C29 C -0.00129 0.28143 0.6195 0.0
H30 H 0.16683 0.07635 0.37252 0.0
H31 H 0.02651 0.05487 0.64372 0.0
H32 H 0.02733 0.50553 0.64733 0.0
H33 H 0.16695 0.4896 0.36863 0.0
C34 C 0.9459 0.28183 0.6195 0.0
N35 N 0.84702 0.40324 0.6155 0.0
C36 C 0.8856 0.43359 0.66493 0.0
C37 C 0.88705 0.4849 0.60667 0.0
C38 C 0.84812 0.50505 0.49953 0.0
C39 C 0.80849 0.47333 0.45556 0.0
C40 C 0.80896 0.42244 0.51241 0.0
Zn41 Zn 0.84746 0.32463 0.64001 0.0
C42 C 0.8456 0.2817 0.2366 0.0
N43 N 0.845 0.16026 0.61805 0.0
C44 C 0.8837 0.13125 0.66857 0.0
C45 C 0.80725 0.13984 0.51388 0.0
C46 C 0.80752 0.08909 0.45524 0.0
C47 C 0.84752 0.05888 0.49915 0.0
C48 C 0.88588 0.08023 0.6088 0.0
Zn49 Zn 0.8461 0.23884 0.64022 0.0
O50 O 0.92372 0.32385 0.62344 0.0
C51 C 0.8482 0.28177 0.04273 0.0
O52 O 0.92226 0.2401 0.62386 0.0
H53 H 0.77771 0.16345 0.46654 0.0
H54 H 0.91607 0.41775 0.743 0.0
H55 H 0.91383 0.14801 0.74838 0.0
O56 O 0.85001 0.32403 0.95032 0.0
O57 O 0.84864 0.23957 0.95048 0.0
H58 H 0.77961 0.39788 0.46461 0.0
O59 O 0.76971 0.23971 0.66921 0.0
O60 O 0.7712 0.3232 0.6699 0.0
O61 O 0.84376 0.23999 0.32958 0.0
O62 O 0.84508 0.32335 0.32943 0.0
C63 C 0.74801 0.28159 0.69065 0.0
H64 H 0.91819 0.50847 0.64422 0.0
H65 H 0.77805 0.48733 0.37134 0.0
H66 H 0.77739 0.07407 0.36982 0.0
H67 H 0.91717 0.05781 0.64712 0.0
C68 C -0.00129 0.78173 0.31394 0.0
N69 N 0.09961 0.90329 0.31535 0.0
C70 C 0.06091 0.93231 0.26484 0.0
C71 C 0.05873 0.98333 0.32459 0.0
C72 C 0.09709 1.00468 0.43422 0.0
C73 C 0.13709 0.97447 0.47814 0.0
C74 C 0.13736 0.92372 0.41951 0.0
Zn75 Zn 0.09851 0.82472 0.2932 0.0
C76 C 0.09901 0.78186 0.69681 0.0
N77 N 0.09759 0.66032 0.31791 0.0
C78 C 0.05901 0.62997 0.26848 0.0
C79 C 0.13566 0.64111 0.42097 0.0
C80 C 0.13613 0.59022 0.47781 0.0
C81 C 0.09649 0.55851 0.43385 0.0
C82 C 0.05756 0.57866 0.32673 0.0
Zn83 Zn 0.09715 0.73893 0.29341 0.0
O84 O 0.02235 0.82346 0.30956 0.0
C85 C 0.09641 0.78179 0.89069 0.0
O86 O 0.02089 0.73971 0.30999 0.0
H87 H 0.165 0.66567 0.46877 0.0
H88 H 0.03078 0.91555 0.18504 0.0
H89 H 0.02854 0.64581 0.19043 0.0
O90 O 0.09597 0.82399 -0.01707 0.0
O91 O 0.0946 0.73953 -0.0169 0.0
H92 H 0.1669 0.90012 0.46685 0.0
O93 O 0.17342 0.74035 0.26352 0.0
O94 O 0.1749 0.82385 0.26421 0.0
O95 O 0.09954 0.74021 0.60399 0.0
O96 O 0.10085 0.82357 0.60384 0.0
C97 C 0.1966 0.78197 0.24277 0.0
H98 H 0.02744 1.00575 0.28628 0.0
H99 H 0.16722 0.9895 0.56353 0.0
H100 H 0.16657 0.57622 0.56202 0.0
H101 H 0.02642 0.55509 0.28919 0.0
C102 C 0.9459 0.78213 0.31395 0.0
N103 N 0.84514 0.66047 0.31656 0.0
C104 C 0.88382 0.63152 0.26551 0.0
C105 C 0.88602 0.58042 0.32487 0.0
C106 C 0.84771 0.55893 0.43463 0.0
C107 C 0.80774 0.58909 0.47923 0.0
C108 C 0.80746 0.63992 0.421 0.0
Zn109 Zn 0.84613 0.73903 0.29383 0.0
C110 C 0.8456 0.78187 0.69685 0.0
N111 N 0.84688 0.90344 0.31679 0.0
C112 C 0.8855 0.93385 0.26798 0.0
C113 C 0.80874 0.92253 0.41953 0.0
C114 C 0.80825 0.97333 0.47679 0.0
C115 C 0.84793 1.0051 0.43358 0.0
C116 C 0.88692 0.98508 0.32665 0.0
Zn117 Zn 0.84743 0.82482 0.29284 0.0
O118 O 0.92228 0.74039 0.31015 0.0
C119 C 0.8482 0.78198 0.89072 0.0
O120 O 0.9237 0.82414 0.30945 0.0
H121 H 0.77937 0.89792 0.46695 0.0
H122 H 0.91389 0.64838 0.18545 0.0
H123 H 0.91603 0.91811 0.19023 0.0
O124 O 0.84867 0.73979 -0.01642 0.0
O125 O 0.84998 0.82425 -0.01749 0.0
H126 H 0.77794 0.66347 0.46867 0.0
O127 O 0.77116 0.82327 0.26289 0.0
O128 O 0.76975 0.73977 0.26489 0.0
O129 O 0.84504 0.82351 0.6034 0.0
O130 O 0.8438 0.74014 0.60449 0.0
C131 C 0.74801 0.78162 0.2428 0.0
H132 H 0.91728 0.55804 0.28607 0.0
H133 H 0.77765 0.57394 0.56473 0.0
H134 H 0.77777 0.98722 0.56085 0.0
H135 H 0.9181 1.00869 0.28965 0.0
C136 C 0.6966 0.78194 0.19068 0.0
N137 N 0.59773 0.66012 0.11671 0.0
C138 C 0.63586 0.64103 0.01391 0.0
C139 C 0.63635 0.59023 0.9566 0.0
C140 C 0.59667 0.55846 -0.0002 0.0
C141 C 0.55769 0.57847 0.10674 0.0
C142 C 0.55911 0.6297 0.16545 0.0
Zn143 Zn 0.59718 0.73873 0.14063 0.0
C144 C 0.59641 0.78158 0.54275 0.0
N145 N 0.59946 0.90309 0.11694 0.0
C146 C 0.63714 0.92363 0.01243 0.0
C147 C 0.56078 0.93205 0.16794 0.0
C148 C 0.55859 0.98314 0.10854 0.0
C149 C 0.5969 1.00463 -0.00124 0.0
C150 C 0.63686 0.97446 0.95417 0.0
Zn151 Zn 0.59848 0.82452 0.13964 0.0
O152 O 0.67345 0.74029 0.17058 0.0
C153 C 0.59901 0.78168 0.73662 0.0
O154 O 0.67486 0.82379 0.16858 0.0
H155 H 0.53071 0.91519 0.248 0.0
H156 H 0.66523 0.66565 0.96649 0.0
H157 H 0.66666 0.90008 0.96476 0.0
O158 O 0.59957 0.74005 0.83006 0.0
O159 O 0.60082 0.82341 0.82898 0.0
H160 H 0.52857 0.64544 0.2432 0.0
O161 O 0.52233 0.82316 0.12331 0.0
O162 O 0.52091 0.73942 0.12401 0.0
O163 O 0.59594 0.82376 0.44988 0.0
O164 O 0.59463 0.7393 0.45096 0.0
C165 C 0.49871 0.78143 0.1195 0.0
H166 H 0.66683 0.57635 0.87252 0.0
H167 H 0.52651 0.55487 0.14372 0.0
H168 H 0.52733 1.00553 0.14733 0.0
H169 H 0.66695 0.9896 0.86863 0.0
C170 C 0.4459 0.78183 0.11949 0.0
N171 N 0.34702 0.90324 0.1155 0.0
C172 C 0.3856 0.93359 0.16493 0.0
C173 C 0.38705 0.9849 0.10667 0.0
C174 C 0.34812 1.00505 -0.00047 0.0
C175 C 0.30849 0.97333 0.95556 0.0
C176 C 0.30896 0.92244 0.01241 0.0
Zn177 Zn 0.34746 0.82463 0.14001 0.0
C178 C 0.3456 0.7817 0.7366 0.0
N179 N 0.345 0.66026 0.11805 0.0
C180 C 0.3837 0.63125 0.16857 0.0
C181 C 0.30725 0.63984 0.01388 0.0
C182 C 0.30752 0.58909 0.95524 0.0
C183 C 0.34752 0.55888 -0.00085 0.0
C184 C 0.38588 0.58023 0.1088 0.0
Zn185 Zn 0.3461 0.73884 0.14022 0.0
O186 O 0.42372 0.82385 0.12344 0.0
C187 C 0.3482 0.78177 0.54273 0.0
O188 O 0.42226 0.7401 0.12386 0.0
H189 H 0.27771 0.66345 0.96654 0.0
H190 H 0.41607 0.91775 0.243 0.0
H191 H 0.41383 0.64801 0.24838 0.0
O192 O 0.35001 0.82403 0.45032 0.0
O193 O 0.34864 0.73957 0.45048 0.0
H194 H 0.27961 0.89788 0.96461 0.0
O195 O 0.26971 0.73971 0.16921 0.0
O196 O 0.2712 0.8232 0.1699 0.0
O197 O 0.34376 0.73999 0.82958 0.0
O198 O 0.34508 0.82335 0.82943 0.0
C199 C 0.24801 0.78159 0.19065 0.0
H200 H 0.41819 1.00847 0.14422 0.0
H201 H 0.27805 0.98733 0.87134 0.0
H202 H 0.27739 0.57407 0.86982 0.0
H203 H 0.41717 0.55781 0.14712 0.0
C204 C 0.49871 0.28173 0.81394 0.0
N205 N 0.59961 0.40329 0.81535 0.0
C206 C 0.56091 0.43231 0.76484 0.0
C207 C 0.55873 0.48333 0.82459 0.0
C208 C 0.59709 0.50468 0.93422 0.0
C209 C 0.63709 0.47447 -0.02186 0.0
C210 C 0.63736 0.42372 0.91951 0.0
Zn211 Zn 0.59851 0.32472 0.7932 0.0
C212 C 0.59901 0.28186 0.19681 0.0
N213 N 0.59759 0.16032 0.81791 0.0
C214 C 0.55901 0.12997 0.76848 0.0
C215 C 0.63566 0.14111 0.92097 0.0
C216 C 0.63613 0.09022 -0.02219 0.0
C217 C 0.59649 0.05851 0.93385 0.0
C218 C 0.55756 0.07866 0.82673 0.0
Zn219 Zn 0.59715 0.23893 0.79341 0.0
O220 O 0.52235 0.32346 0.80956 0.0
C221 C 0.59641 0.28179 0.39069 0.0
O222 O 0.52089 0.23971 0.80999 0.0
H223 H 0.665 0.16567 -0.03123 0.0
H224 H 0.53078 0.41555 0.68504 0.0
H225 H 0.52854 0.14581 0.69043 0.0
O226 O 0.59597 0.32399 0.48293 0.0
O227 O 0.5946 0.23953 0.4831 0.0
H228 H 0.6669 0.40012 -0.03315 0.0
O229 O 0.67342 0.24035 0.76352 0.0
O230 O 0.6749 0.32385 0.76421 0.0
O231 O 0.59954 0.24021 0.10399 0.0
O232 O 0.60085 0.32357 0.10384 0.0
C233 C 0.6966 0.28197 0.74276 0.0
H234 H 0.52744 0.50575 0.78628 0.0
H235 H 0.66722 0.4895 0.06353 0.0
H236 H 0.66657 0.07622 0.06202 0.0
H237 H 0.52642 0.05509 0.78919 0.0
C238 C 0.4459 0.28213 0.81395 0.0
N239 N 0.34514 0.16047 0.81656 0.0
C240 C 0.38382 0.13152 0.76551 0.0
C241 C 0.38602 0.08042 0.82487 0.0
C242 C 0.34771 0.05893 0.93463 0.0
C243 C 0.30774 0.08909 -0.02077 0.0
C244 C 0.30746 0.13992 0.921 0.0
Zn245 Zn 0.34613 0.23903 0.79383 0.0
C246 C 0.3456 0.28187 0.19685 0.0
N247 N 0.34688 0.40344 0.81679 0.0
C248 C 0.3855 0.43385 0.76798 0.0
C249 C 0.30874 0.42253 0.91953 0.0
C250 C 0.30825 0.47333 -0.02321 0.0
C251 C 0.34793 0.5051 0.93358 0.0
C252 C 0.38692 0.48508 0.82665 0.0
Zn253 Zn 0.34743 0.32482 0.79284 0.0
O254 O 0.42228 0.24039 0.81015 0.0
C255 C 0.3482 0.28198 0.39072 0.0
O256 O 0.4237 0.32414 0.80945 0.0
H257 H 0.27937 0.39792 -0.03305 0.0
H258 H 0.41389 0.14838 0.68545 0.0
H259 H 0.41603 0.41811 0.69023 0.0
O260 O 0.34867 0.23979 0.48358 0.0
O261 O 0.34998 0.32425 0.48251 0.0
H262 H 0.27794 0.16347 -0.03133 0.0
O263 O 0.27116 0.32327 0.76289 0.0
O264 O 0.26975 0.23977 0.76489 0.0
O265 O 0.34504 0.32351 0.1034 0.0
O266 O 0.3438 0.24014 0.10449 0.0
C267 C 0.24801 0.28162 0.7428 0.0
H268 H 0.41728 0.05804 0.78607 0.0
H269 H 0.27765 0.07394 0.06473 0.0
H270 H 0.27777 0.48722 0.06085 0.0
H271 H 0.4181 0.50869 0.78965 0.0
loop_
_geom_bond_atom_site_label_1
_geom_bond_atom_site_label_2
_geom_bond_distance
_geom_bond_site_symmetry_2
_ccdc_geom_bond_type
C0 O16 1.251 . S
C0 O18 1.254 . S
N1 C2 1.333 . S
N1 C6 1.307 . S
N1 Zn7 2.020 . S
C2 N1 1.333 . S
C2 C3 1.379 . S
C2 H20 0.952 . S
C3 C2 1.379 . S
C3 C4 1.390 . S
C3 H30 0.949 . S
C4 C3 1.390 . S
C4 C5 1.357 . S
C5 C4 1.357 . S
C5 C6 1.370 . S
C5 H31 0.950 . S
C6 N1 1.307 . S
C6 C5 1.370 . S
C6 H24 0.948 . S
Zn7 N1 2.020 . S
Zn7 O16 2.039 . S
Zn7 O22 2.034 . S
Zn7 O26 2.025 . S
Zn7 O28 2.024 . S
C8 O27 1.246 . S
C8 O28 1.249 . S
N9 C10 1.307 . S
N9 C11 1.333 . S
N9 Zn15 2.020 . S
C10 N9 1.307 . S
C10 C14 1.370 . S
C10 H21 0.948 . S
C11 N9 1.333 . S
C11 C12 1.379 . S
C11 H19 0.952 . S
C12 C11 1.379 . S
C12 C13 1.390 . S
C12 H32 0.949 . S
C13 C12 1.390 . S
C13 C14 1.357 . S
C14 C10 1.370 . S
C14 C13 1.357 . S
C14 H33 0.950 . S
Zn15 N9 2.020 . S
Zn15 O18 2.025 . S
Zn15 O23 2.024 . S
Zn15 O25 2.039 . S
Zn15 O27 2.034 . S
O16 C0 1.251 . S
O16 Zn7 2.039 . S
C17 O22 1.246 . S
C17 O23 1.249 . S
O18 C0 1.254 . S
O18 Zn15 2.025 . S
H19 C11 0.952 . S
H20 C2 0.952 . S
H21 C10 0.948 . S
O22 Zn7 2.034 . S
O22 C17 1.246 . S
O23 Zn15 2.024 . S
O23 C17 1.249 . S
H24 C6 0.948 . S
O25 Zn15 2.039 . S
O25 C29 1.251 . S
O26 Zn7 2.025 . S
O26 C29 1.254 . S
O27 C8 1.246 . S
O27 Zn15 2.034 . S
O28 Zn7 2.024 . S
O28 C8 1.249 . S
C29 O25 1.251 . S
C29 O26 1.254 . S
H30 C3 0.949 . S
H31 C5 0.950 . S
H32 C12 0.949 . S
H33 C14 0.950 . S
C34 O50 1.251 . S
C34 O52 1.254 . S
N35 C36 1.333 . S
N35 C40 1.307 . S
N35 Zn41 2.020 . S
C36 N35 1.333 . S
C36 C37 1.379 . S
C36 H54 0.952 . S
C37 C36 1.379 . S
C37 C38 1.390 . S
C37 H64 0.949 . S
C38 C37 1.390 . S
C38 C39 1.357 . S
C39 C38 1.357 . S
C39 C40 1.370 . S
C39 H65 0.950 . S
C40 N35 1.307 . S
C40 C39 1.370 . S
C40 H58 0.948 . S
Zn41 N35 2.020 . S
Zn41 O50 2.039 . S
Zn41 O56 2.034 . S
Zn41 O60 2.025 . S
Zn41 O62 2.024 . S
C42 O61 1.246 . S
C42 O62 1.249 . S
N43 C44 1.307 . S
N43 C45 1.333 . S
N43 Zn49 2.020 . S
C44 N43 1.307 . S
C44 C48 1.370 . S
C44 H55 0.948 . S
C45 N43 1.333 . S
C45 C46 1.379 . S
C45 H53 0.952 . S
C46 C45 1.379 . S
C46 C47 1.390 . S
C46 H66 0.949 . S
C47 C46 1.390 . S
C47 C48 1.357 . S
C48 C44 1.370 . S
C48 C47 1.357 . S
C48 H67 0.950 . S
Zn49 N43 2.020 . S
Zn49 O52 2.025 . S
Zn49 O57 2.024 . S
Zn49 O59 2.039 . S
Zn49 O61 2.034 . S
O50 C34 1.251 . S
O50 Zn41 2.039 . S
C51 O56 1.246 . S
C51 O57 1.249 . S
O52 C34 1.254 . S
O52 Zn49 2.025 . S
H53 C45 0.952 . S
H54 C36 0.952 . S
H55 C44 0.948 . S
O56 Zn41 2.034 . S
O56 C51 1.246 . S
O57 Zn49 2.024 . S
O57 C51 1.249 . S
H58 C40 0.948 . S
O59 Zn49 2.039 . S
O59 C63 1.251 . S
O60 Zn41 2.025 . S
O60 C63 1.254 . S
O61 C42 1.246 . S
O61 Zn49 2.034 . S
O62 Zn41 2.024 . S
O62 C42 1.249 . S
C63 O59 1.251 . S
C63 O60 1.254 . S
H64 C37 0.949 . S
H65 C39 0.950 . S
H66 C46 0.949 . S
H67 C48 0.950 . S
C68 O84 1.251 . S
C68 O86 1.254 . S
N69 C70 1.333 . S
N69 C74 1.307 . S
N69 Zn75 2.020 . S
C70 N69 1.333 . S
C70 C71 1.379 . S
C70 H88 0.952 . S
C71 C70 1.379 . S
C71 C72 1.390 . S
C71 H98 0.949 . S
C72 C71 1.390 . S
C72 C73 1.357 . S
C73 C72 1.357 . S
C73 C74 1.370 . S
C73 H99 0.950 . S
C74 N69 1.307 . S
C74 C73 1.370 . S
C74 H92 0.948 . S
Zn75 N69 2.020 . S
Zn75 O84 2.039 . S
Zn75 O90 2.034 . S
Zn75 O94 2.025 . S
Zn75 O96 2.024 . S
C76 O95 1.246 . S
C76 O96 1.249 . S
N77 C78 1.307 . S
N77 C79 1.333 . S
N77 Zn83 2.020 . S
C78 N77 1.307 . S
C78 C82 1.370 . S
C78 H89 0.948 . S
C79 N77 1.333 . S
C79 C80 1.379 . S
C79 H87 0.952 . S
C80 C79 1.379 . S
C80 C81 1.390 . S
C80 H100 0.949 . S
C81 C80 1.390 . S
C81 C82 1.357 . S
C82 C78 1.370 . S
C82 C81 1.357 . S
C82 H101 0.950 . S
Zn83 N77 2.020 . S
Zn83 O86 2.025 . S
Zn83 O91 2.024 . S
Zn83 O93 2.039 . S
Zn83 O95 2.034 . S
O84 C68 1.251 . S
O84 Zn75 2.039 . S
C85 O90 1.246 . S
C85 O91 1.249 . S
O86 C68 1.254 . S
O86 Zn83 2.025 . S
H87 C79 0.952 . S
H88 C70 0.952 . S
H89 C78 0.948 . S
O90 Zn75 2.034 . S
O90 C85 1.246 . S
O91 Zn83 2.024 . S
O91 C85 1.249 . S
H92 C74 0.948 . S
O93 Zn83 2.039 . S
O93 C97 1.251 . S
O94 Zn75 2.025 . S
O94 C97 1.254 . S
O95 C76 1.246 . S
O95 Zn83 2.034 . S
O96 Zn75 2.024 . S
O96 C76 1.249 . S
C97 O93 1.251 . S
C97 O94 1.254 . S
H98 C71 0.949 . S
H99 C73 0.950 . S
H100 C80 0.949 . S
H101 C82 0.950 . S
C102 O118 1.251 . S
C102 O120 1.254 . S
N103 C104 1.333 . S
N103 C108 1.307 . S
N103 Zn109 2.020 . S
C104 N103 1.333 . S
C104 C105 1.379 . S
C104 H122 0.952 . S
C105 C104 1.379 . S
C105 C106 1.390 . S
C105 H132 0.949 . S
C106 C105 1.390 . S
C106 C107 1.357 . S
C107 C106 1.357 . S
C107 C108 1.370 . S
C107 H133 0.950 . S
C108 N103 1.307 . S
C108 C107 1.370 . S
C108 H126 0.948 . S
Zn109 N103 2.020 . S
Zn109 O118 2.039 . S
Zn109 O124 2.034 . S
Zn109 O128 2.025 . S
Zn109 O130 2.024 . S
C110 O129 1.246 . S
C110 O130 1.249 . S
N111 C112 1.307 . S
N111 C113 1.333 . S
N111 Zn117 2.020 . S
C112 N111 1.307 . S
C112 C116 1.370 . S
C112 H123 0.948 . S
C113 N111 1.333 . S
C113 C114 1.379 . S
C113 H121 0.952 . S
C114 C113 1.379 . S
C114 C115 1.390 . S
C114 H134 0.949 . S
C115 C114 1.390 . S
C115 C116 1.357 . S
C116 C112 1.370 . S
C116 C115 1.357 . S
C116 H135 0.950 . S
Zn117 N111 2.020 . S
Zn117 O120 2.025 . S
Zn117 O125 2.024 . S
Zn117 O127 2.039 . S
Zn117 O129 2.034 . S
O118 C102 1.251 . S
O118 Zn109 2.039 . S
C119 O124 1.246 . S
C119 O125 1.249 . S
O120 C102 1.254 . S
O120 Zn117 2.025 . S
H121 C113 0.952 . S
H122 C104 0.952 . S
H123 C112 0.948 . S
O124 Zn109 2.034 . S
O124 C119 1.246 . S
O125 Zn117 2.024 . S
O125 C119 1.249 . S
H126 C108 0.948 . S
O127 Zn117 2.039 . S
O127 C131 1.251 . S
O128 Zn109 2.025 . S
O128 C131 1.254 . S
O129 C110 1.246 . S
O129 Zn117 2.034 . S
O130 Zn109 2.024 . S
O130 C110 1.249 . S
C131 O127 1.251 . S
C131 O128 1.254 . S
H132 C105 0.949 . S
H133 C107 0.950 . S
H134 C114 0.949 . S
H135 C116 0.950 . S
C136 O152 1.251 . S
C136 O154 1.254 . S
N137 C138 1.333 . S
N137 C142 1.307 . S
N137 Zn143 2.020 . S
C138 N137 1.333 . S
C138 C139 1.379 1_554 S
C138 H156 0.952 1_554 S
C139 C138 1.379 1_556 S
C139 C140 1.390 1_556 S
C139 H166 0.949 . S
C140 C139 1.390 1_554 S
C140 C141 1.357 . S
C141 C140 1.357 . S
C141 C142 1.370 . S
C141 H167 0.950 . S
C142 N137 1.307 . S
C142 C141 1.370 . S
C142 H160 0.948 . S
Zn143 N137 2.020 . S
Zn143 O152 2.039 . S
Zn143 O158 2.034 1_554 S
Zn143 O162 2.025 . S
Zn143 O164 2.024 . S
C144 O163 1.246 . S
C144 O164 1.249 . S
N145 C146 1.307 1_554 S
N145 C147 1.333 . S
N145 Zn151 2.020 . S
C146 N145 1.307 1_556 S
C146 C150 1.370 . S
C146 H157 0.948 . S
C147 N145 1.333 . S
C147 C148 1.379 . S
C147 H155 0.952 . S
C148 C147 1.379 . S
C148 C149 1.390 . S
C148 H168 0.949 . S
C149 C148 1.390 . S
C149 C150 1.357 1_554 S
C150 C146 1.370 . S
C150 C149 1.357 1_556 S
C150 H169 0.950 . S
Zn151 N145 2.020 . S
Zn151 O154 2.025 . S
Zn151 O159 2.024 1_554 S
Zn151 O161 2.039 . S
Zn151 O163 2.034 . S
O152 C136 1.251 . S
O152 Zn143 2.039 . S
C153 O158 1.246 . S
C153 O159 1.249 . S
O154 C136 1.254 . S
O154 Zn151 2.025 . S
H155 C147 0.952 . S
H156 C138 0.952 1_556 S
H157 C146 0.948 . S
O158 Zn143 2.034 1_556 S
O158 C153 1.246 . S
O159 Zn151 2.024 1_556 S
O159 C153 1.249 . S
H160 C142 0.948 . S
O161 Zn151 2.039 . S
O161 C165 1.251 . S
O162 Zn143 2.025 . S
O162 C165 1.254 . S
O163 C144 1.246 . S
O163 Zn151 2.034 . S
O164 Zn143 2.024 . S
O164 C144 1.249 . S
C165 O161 1.251 . S
C165 O162 1.254 . S
H166 C139 0.949 . S
H167 C141 0.950 . S
H168 C148 0.949 . S
H169 C150 0.950 . S
C170 O186 1.251 . S
C170 O188 1.254 . S
N171 C172 1.333 . S
N171 C176 1.307 1_554 S
N171 Zn177 2.020 . S
C172 N171 1.333 . S
C172 C173 1.379 . S
C172 H190 0.952 . S
C173 C172 1.379 . S
C173 C174 1.390 . S
C173 H200 0.949 . S
C174 C173 1.390 . S
C174 C175 1.357 1_554 S
C175 C174 1.357 1_556 S
C175 C176 1.370 . S
C175 H201 0.950 . S
C176 N171 1.307 1_556 S
C176 C175 1.370 . S
C176 H194 0.948 . S
Zn177 N171 2.020 . S
Zn177 O186 2.039 . S
Zn177 O192 2.034 . S
Zn177 O196 2.025 . S
Zn177 O198 2.024 1_554 S
C178 O197 1.246 . S
C178 O198 1.249 . S
N179 C180 1.307 . S
N179 C181 1.333 . S
N179 Zn185 2.020 . S
C180 N179 1.307 . S
C180 C184 1.370 . S
C180 H191 0.948 . S
C181 N179 1.333 . S
C181 C182 1.379 1_554 S
C181 H189 0.952 1_554 S
C182 C181 1.379 1_556 S
C182 C183 1.389 1_556 S
C182 H202 0.950 . S
C183 C182 1.389 1_554 S
C183 C184 1.357 . S
C184 C180 1.370 . S
C184 C183 1.357 . S
C184 H203 0.950 . S
Zn185 N179 2.020 . S
Zn185 O188 2.025 . S
Zn185 O193 2.024 . S
Zn185 O195 2.039 . S
Zn185 O197 2.034 1_554 S
O186 C170 1.251 . S
O186 Zn177 2.039 . S
C187 O192 1.246 . S
C187 O193 1.249 . S
O188 C170 1.254 . S
O188 Zn185 2.025 . S
H189 C181 0.952 1_556 S
H190 C172 0.952 . S
H191 C180 0.948 . S
O192 Zn177 2.034 . S
O192 C187 1.246 . S
O193 Zn185 2.024 . S
O193 C187 1.249 . S
H194 C176 0.948 . S
O195 Zn185 2.039 . S
O195 C199 1.251 . S
O196 Zn177 2.025 . S
O196 C199 1.254 . S
O197 C178 1.246 . S
O197 Zn185 2.034 1_556 S
O198 Zn177 2.024 1_556 S
O198 C178 1.249 . S
C199 O195 1.251 . S
C199 O196 1.254 . S
H200 C173 0.949 . S
H201 C175 0.950 . S
H202 C182 0.950 . S
H203 C184 0.950 . S
C204 O220 1.251 . S
C204 O222 1.254 . S
N205 C206 1.333 . S
N205 C210 1.307 1_556 S
N205 Zn211 2.020 . S
C206 N205 1.333 . S
C206 C207 1.379 . S
C206 H224 0.952 . S
C207 C206 1.379 . S
C207 C208 1.390 . S
C207 H234 0.949 . S
C208 C207 1.390 . S
C208 C209 1.357 1_556 S
C209 C208 1.357 1_554 S
C209 C210 1.370 . S
C209 H235 0.950 . S
C210 N205 1.307 1_554 S
C210 C209 1.370 . S
C210 H228 0.948 . S
Zn211 N205 2.020 . S
Zn211 O220 2.039 . S
Zn211 O226 2.034 . S
Zn211 O230 2.025 . S
Zn211 O232 2.024 1_556 S
C212 O231 1.246 . S
C212 O232 1.249 . S
N213 C214 1.307 . S
N213 C215 1.333 . S
N213 Zn219 2.020 . S
C214 N213 1.307 . S
C214 C218 1.370 . S
C214 H225 0.948 . S
C215 N213 1.333 . S
C215 C216 1.379 1_556 S
C215 H223 0.952 1_556 S
C216 C215 1.379 1_554 S
C216 C217 1.390 1_554 S
C216 H236 0.949 . S
C217 C216 1.390 1_556 S
C217 C218 1.357 . S
C218 C214 1.370 . S
C218 C217 1.357 . S
C218 H237 0.950 . S
Zn219 N213 2.020 . S
Zn219 O222 2.025 . S
Zn219 O227 2.024 . S
Zn219 O229 2.039 . S
Zn219 O231 2.034 1_556 S
O220 C204 1.251 . S
O220 Zn211 2.039 . S
C221 O226 1.246 . S
C221 O227 1.249 . S
O222 C204 1.254 . S
O222 Zn219 2.025 . S
H223 C215 0.952 1_554 S
H224 C206 0.952 . S
H225 C214 0.948 . S
O226 Zn211 2.034 . S
O226 C221 1.246 . S
O227 Zn219 2.024 . S
O227 C221 1.249 . S
H228 C210 0.948 . S
O229 Zn219 2.039 . S
O229 C233 1.251 . S
O230 Zn211 2.025 . S
O230 C233 1.254 . S
O231 C212 1.246 . S
O231 Zn219 2.034 1_554 S
O232 Zn211 2.024 1_554 S
O232 C212 1.249 . S
C233 O229 1.251 . S
C233 O230 1.254 . S
H234 C207 0.949 . S
H235 C209 0.950 . S
H236 C216 0.949 . S
H237 C218 0.950 . S
C238 O254 1.251 . S
C238 O256 1.254 . S
N239 C240 1.333 . S
N239 C244 1.307 1_556 S
N239 Zn245 2.020 . S
C240 N239 1.333 . S
C240 C241 1.379 . S
C240 H258 0.952 . S
C241 C240 1.379 . S
C241 C242 1.390 . S
C241 H268 0.949 . S
C242 C241 1.390 . S
C242 C243 1.357 1_556 S
C243 C242 1.357 1_554 S
C243 C244 1.370 . S
C243 H269 0.950 . S
C244 N239 1.307 1_554 S
C244 C243 1.370 . S
C244 H262 0.948 . S
Zn245 N239 2.020 . S
Zn245 O254 2.039 . S
Zn245 O260 2.034 . S
Zn245 O264 2.025 . S
Zn245 O266 2.024 1_556 S
C246 O265 1.246 . S
C246 O266 1.249 . S
N247 C248 1.307 . S
N247 C249 1.333 . S
N247 Zn253 2.020 . S
C248 N247 1.307 . S
C248 C252 1.370 . S
C248 H259 0.948 . S
C249 N247 1.333 . S
C249 C250 1.379 1_556 S
C249 H257 0.952 1_556 S
C250 C249 1.379 1_554 S
C250 C251 1.390 1_554 S
C250 H270 0.949 . S
C251 C250 1.390 1_556 S
C251 C252 1.357 . S
C252 C248 1.370 . S
C252 C251 1.357 . S
C252 H271 0.950 . S
Zn253 N247 2.020 . S
Zn253 O256 2.025 . S
Zn253 O261 2.024 . S
Zn253 O263 2.039 . S
Zn253 O265 2.034 1_556 S
O254 C238 1.251 . S
O254 Zn245 2.039 . S
C255 O260 1.246 . S
C255 O261 1.249 . S
O256 C238 1.254 . S
O256 Zn253 2.025 . S
H257 C249 0.952 1_554 S
H258 C240 0.952 . S
H259 C248 0.948 . S
O260 Zn245 2.034 . S
O260 C255 1.246 . S
O261 Zn253 2.024 . S
O261 C255 1.249 . S
H262 C244 0.948 . S
O263 Zn253 2.039 . S
O263 C267 1.251 . S
O264 Zn245 2.025 . S
O264 C267 1.254 . S
O265 C246 1.246 . S
O265 Zn253 2.034 1_554 S
O266 Zn245 2.024 1_554 S
O266 C246 1.249 . S
C267 O263 1.251 . S
C267 O264 1.254 . S
H268 C241 0.949 . S
H269 C243 0.950 . S
H270 C250 0.949 . S
H271 C252 0.950 . S
C0 C267 2.068 . S
C233 C63 2.071 . S
C199 C97 2.071 . S
C136 C131 2.068 . S
C72 C4 1.789 1_565 S
C38 C106 1.758 . S
C115 C47 1.670 1_565 S
C81 C13 1.607 . S
C140 C208 1.789 1_554 S
C174 C242 1.758 1_564 S
C251 C183 1.670 1_556 S
C217 C149 1.607 1_546 S
C17 C8 1.275 1_554 S
C42 C51 1.274 1_554 S
C85 C76 1.275 1_554 S
C110 C119 1.275 1_556 S
C144 C153 1.275 . S
C178 C187 1.274 . S
C212 C221 1.275 . S
C246 C255 1.275 . S
C29 C34 1.610 1_455 S
C102 C68 1.607 1_655 S
C165 C170 1.610 . S
C238 C204 1.607 . S
