# Generated by pormake.
# Topology zfs, (5)-cn, num edge types: 1
# Building blocks:
#     Node 0, Type 0, BuildingBlock: XOMCOT_clean_sbu_0, # of connection points: 5
#     Node 1, Type 0, BuildingBlock: XOMCOT_clean_sbu_0, # of connection points: 5
#     Node 2, Type 0, BuildingBlock: XOMCOT_clean_sbu_0, # of connection points: 5
#     Node 3, Type 0, BuildingBlock: XOMCOT_clean_sbu_0, # of connection points: 5
#     Node 4, Type 0, BuildingBlock: XOMCOT_clean_sbu_0, # of connection points: 5
#     Node 5, Type 0, BuildingBlock: XOMCOT_clean_sbu_0, # of connection points: 5
#     Node 6, Type 0, BuildingBlock: XOMCOT_clean_sbu_0, # of connection points: 5
#     Node 7, Type 0, BuildingBlock: XOMCOT_clean_sbu_0, # of connection points: 5
#     Edge 8, Type (0, 0), BuildingBlock: CIFDUS_clean_linker_0, # of connection points: 2
#     Edge 9, Type (0, 0), BuildingBlock: CIFDUS_clean_linker_0, # of connection points: 2
#     Edge 10, Type (0, 0), BuildingBlock: CIFDUS_clean_linker_0, # of connection points: 2
#     Edge 11, Type (0, 0), BuildingBlock: CIFDUS_clean_linker_0, # of connection points: 2
#     Edge 12, Type (0, 0), BuildingBlock: CIFDUS_clean_linker_0, # of connection points: 2
#     Edge 13, Type (0, 0), BuildingBlock: CIFDUS_clean_linker_0, # of connection points: 2
#     Edge 14, Type (0, 0), BuildingBlock: CIFDUS_clean_linker_0, # of connection points: 2
#     Edge 15, Type (0, 0), BuildingBlock: CIFDUS_clean_linker_0, # of connection points: 2
#     Edge 16, Type (0, 0), BuildingBlock: CIFDUS_clean_linker_0, # of connection points: 2
#     Edge 17, Type (0, 0), BuildingBlock: CIFDUS_clean_linker_0, # of connection points: 2
#     Edge 18, Type (0, 0), BuildingBlock: CIFDUS_clean_linker_0, # of connection points: 2
#     Edge 19, Type (0, 0), BuildingBlock: CIFDUS_clean_linker_0, # of connection points: 2
#     Edge 20, Type (0, 0), BuildingBlock: CIFDUS_clean_linker_0, # of connection points: 2
#     Edge 21, Type (0, 0), BuildingBlock: CIFDUS_clean_linker_0, # of connection points: 2
#     Edge 22, Type (0, 0), BuildingBlock: CIFDUS_clean_linker_0, # of connection points: 2
#     Edge 23, Type (0, 0), BuildingBlock: CIFDUS_clean_linker_0, # of connection points: 2
#     Edge 24, Type (0, 0), BuildingBlock: CIFDUS_clean_linker_0, # of connection points: 2
#     Edge 25, Type (0, 0), BuildingBlock: CIFDUS_clean_linker_0, # of connection points: 2
#     Edge 26, Type (0, 0), BuildingBlock: CIFDUS_clean_linker_0, # of connection points: 2
#     Edge 27, Type (0, 0), BuildingBlock: CIFDUS_clean_linker_0, # of connection points: 2
# Relax obj value: 0.142
# Max RMSD: 0.162
# Mean RMSD: 0.162
data_MOF--net-zfs--node1-XOMCOT_clean_sbu_0--edge1-CIFDUS_clean_linker_0
_symmetry_space_group_name_H-M    P1
_symmetry_Int_Tables_number       1
_symmetry_cell_setting            triclinic
loop_
_symmetry_equiv_pos_as_xyz
'x, y, z'
_cell_length_a     29.991915
_cell_length_b     30.26592
_cell_length_c     36.06293
_cell_angle_alpha  89.590533
_cell_angle_beta   90.073981
_cell_angle_gamma 89.995521
loop_
_atom_site_label
_atom_site_type_symbol
_atom_site_fract_x
_atom_site_fract_y
_atom_site_fract_z
_atom_type_partial_charge
Co0 Co 0.04931 0.25163 0.20397 0.0
C1 C 1.0004 0.25886 0.13425 0.0
C2 C 0.98284 0.20044 0.16447 0.0
C3 C 0.9708 0.19488 0.12795 0.0
N4 N 1.00221 0.24044 0.1684 0.0
N5 N 0.98235 0.23162 0.10907 0.0
H6 H 1.01941 0.28751 0.1261 0.0
H7 H 0.98399 0.17433 0.18507 0.0
C8 C 0.97117 0.22432 0.25161 0.0
O9 O 0.94498 0.24896 0.2308 0.0
N10 N 0.09674 0.26155 0.23867 0.0
C11 C 0.12603 0.29521 0.23855 0.0
C12 C 0.1536 0.29055 0.26888 0.0
C13 C 0.10677 0.2368 0.26863 0.0
N14 N 0.14133 0.25383 0.28781 0.0
C15 C 0.03128 0.34326 0.18933 0.0
C16 C 1.002 0.36513 0.2594 0.0
C17 C 1.0059 0.39886 0.23263 0.0
C18 C 1.02087 0.38714 0.1972 0.0
C19 C 1.01328 0.32153 0.25042 0.0
N20 N 1.02643 0.31061 0.21533 0.0
H21 H 0.04598 0.33639 0.16285 0.0
H22 H 1.0133 0.29717 0.27239 0.0
H23 H 0.12702 0.32142 0.21802 0.0
H24 H 0.08851 0.20744 0.27653 0.0
O25 O 0.08927 0.26676 0.16349 0.0
O26 O 0.07965 0.19926 0.18573 0.0
O27 O 1.01301 0.22259 0.24481 0.0
C28 C 0.0985 0.22491 0.16121 0.0
H29 H 0.9601 0.16423 0.11543 0.0
H30 H 0.1807 0.31242 0.27621 0.0
H31 H 0.99126 0.37231 0.28735 0.0
H32 H 1.02673 0.41196 0.176 0.0
Co33 Co 0.80978 0.05255 0.45778 0.0
C34 C 0.7998 1.00655 0.38719 0.0
C35 C 0.85252 0.97824 0.41938 0.0
C36 C 0.85623 0.96337 0.38345 0.0
N37 N 0.8168 1.00529 0.42193 0.0
N38 N 0.82333 0.98184 0.36329 0.0
H39 H 0.77488 0.02992 0.37797 0.0
H40 H 0.87784 0.97434 0.4405 0.0
C41 C 0.83525 0.97539 0.50757 0.0
O42 O 0.80595 0.95068 0.49024 0.0
N43 N 0.80306 0.10045 0.492 0.0
C44 C 0.7709 0.13145 0.49066 0.0
C45 C 0.77542 0.15838 0.52092 0.0
C46 C 0.8268 0.10878 0.52283 0.0
N47 N 0.81045 0.14397 0.54121 0.0
C48 C 0.71586 0.03415 0.44753 0.0
C49 C 0.69751 1.01788 0.52145 0.0
C50 C 0.66162 1.02055 0.4965 0.0
C51 C 0.67152 0.02808 0.45889 0.0
C52 C 0.74113 1.02469 0.50905 0.0
N53 N 0.75022 0.03235 0.4724 0.0
H54 H 0.72201 0.04311 0.41908 0.0
H55 H 0.76728 0.02627 0.52957 0.0
H56 H 0.74544 0.13378 0.46946 0.0
H57 H 0.85458 0.08879 0.5321 0.0
O58 O 0.79434 0.09307 0.41761 0.0
O59 O 0.86289 0.07987 0.43746 0.0
O60 O 0.84016 1.01591 0.49804 0.0
C61 C 0.83693 0.10045 0.41415 0.0
H62 H 0.88418 0.94533 0.37208 0.0
H63 H 0.75447 0.18638 0.52738 0.0
H64 H 0.69203 1.01196 0.55073 0.0
H65 H 0.64514 0.0317 0.43858 0.0
Co66 Co 1.01925 0.80073 0.70096 0.0
C67 C 0.05466 0.79094 0.62636 0.0
C68 C 0.09789 0.83064 0.65959 0.0
C69 C 0.10931 0.83637 0.62287 0.0
N70 N 0.06299 0.80269 0.66166 0.0
N71 N 0.0812 0.81225 0.60189 0.0
H72 H 1.02569 0.77201 0.61839 0.0
H73 H 0.11081 0.84978 0.68238 0.0
C74 C 0.06983 0.81718 0.77224 0.0
O75 O 0.04469 0.78755 0.7889 0.0
N76 N 0.97468 0.80005 0.73957 0.0
C77 C 0.94266 0.76964 0.74591 0.0
C78 C 0.91657 0.78363 0.77482 0.0
C79 C 0.96668 0.83275 0.76388 0.0
N80 N 0.93198 0.8231 0.78618 0.0
C81 C 1.0066 0.70685 0.69557 0.0
C82 C 0.07907 0.67967 0.73712 0.0
C83 C 0.04916 0.64771 0.72412 0.0
C84 C 1.01326 0.6618 0.70229 0.0
C85 C 0.07177 0.72463 0.72888 0.0
N86 N 0.03421 0.73815 0.71034 0.0
H87 H 0.97834 0.71633 0.67885 0.0
H88 H 0.09684 0.748 0.73719 0.0
H89 H 0.93764 0.7397 0.73049 0.0
H90 H 0.98596 0.86293 0.76527 0.0
O91 O 0.9718 0.79284 0.66494 0.0
O92 O 0.99608 0.85775 0.6834 0.0
O93 O 0.06576 0.82402 0.73727 0.0
C94 C 0.9692 0.83551 0.66213 0.0
H95 H 0.13352 0.85987 0.61248 0.0
H96 H 0.8888 0.76584 0.78694 0.0
H97 H 0.10831 0.66992 0.75283 0.0
H98 H 0.98991 0.63813 0.69096 0.0
Co99 Co 0.24512 1.00845 0.95608 0.0
C100 C 0.25579 0.05194 0.88435 0.0
C101 C 0.19726 0.07439 0.9123 0.0
C102 C 0.19355 0.08524 0.87525 0.0
N103 N 0.23621 0.05298 0.918 0.0
N104 N 0.23036 0.07073 0.85782 0.0
H105 H 0.28405 0.03142 0.8779 0.0
H106 H 0.17063 0.07635 0.93242 0.0
C107 C 0.22373 0.0917 1.00022 0.0
O108 O 0.2428 0.11742 0.9754 0.0
N109 N 0.25293 0.9636 0.99323 0.0
C110 C 0.28455 0.93206 0.995 0.0
C111 C 0.27727 0.90689 0.02641 0.0
C112 C 0.22683 0.95725 0.02301 0.0
N113 N 0.24109 0.92307 0.04394 0.0
C114 C 0.33874 1.00995 0.93743 0.0
C115 C 0.3685 0.04935 1.00173 0.0
C116 C 0.40029 0.0351 0.97592 0.0
C117 C 0.38462 1.01535 0.94328 0.0
C118 C 0.3229 0.04331 0.99481 0.0
N119 N 0.30814 1.02462 0.96256 0.0
H120 H 0.32816 0.9916 0.91349 0.0
H121 H 0.30005 0.05177 0.0166 0.0
H122 H 0.3109 0.9277 0.97492 0.0
H123 H 0.19737 0.97664 0.02875 0.0
O124 O 0.24974 0.96373 0.91726 0.0
O125 O 0.18719 0.98426 0.9446 0.0
O126 O 0.22403 0.04976 0.99634 0.0
C127 C 0.20663 0.95958 0.92019 0.0
H128 H 0.16404 0.098 0.86156 0.0
H129 H 0.29724 0.8792 0.03582 0.0
H130 H 0.37868 0.06442 0.02753 0.0
H131 H 0.40766 1.00225 0.92305 0.0
Co132 Co 0.04765 0.80333 0.30175 0.0
C133 C 1.00383 0.796 0.37251 0.0
C134 C 0.98344 0.8552 0.34425 0.0
C135 C 0.97195 0.85854 0.3812 0.0
N136 N 1.00414 0.81619 0.33919 0.0
N137 N 0.98499 0.8212 0.39872 0.0
H138 H 1.02337 0.76684 0.37879 0.0
H139 H 0.9822 0.88159 0.32389 0.0
C140 C 0.99775 0.80913 0.2282 0.0
O141 O 1.02303 0.77826 0.21383 0.0
N142 N 0.09286 0.79051 0.26504 0.0
C143 C 0.12262 0.75705 0.26562 0.0
C144 C 0.15097 0.76159 0.23609 0.0
C145 C 0.10495 0.81604 0.23592 0.0
N146 N 0.13968 0.79849 0.21726 0.0
C147 C 0.05498 0.71204 0.32293 0.0
C148 C 0.98228 0.68062 0.28432 0.0
C149 C 1.01131 0.65001 0.30115 0.0
C150 C 0.0473 0.66662 0.32163 0.0
C151 C 0.99146 0.72601 0.28616 0.0
N152 N 1.02924 0.74108 0.30319 0.0
H153 H 0.0831 0.72363 0.3388 0.0
H154 H 0.96785 0.74855 0.27388 0.0
H155 H 0.12542 0.73176 0.28657 0.0
H156 H 0.08813 0.84642 0.22832 0.0
O157 O 0.0936 0.80294 0.34016 0.0
O158 O 0.07301 0.86175 0.30774 0.0
O159 O 1.00212 0.8201 0.26225 0.0
C160 C 0.09793 0.84508 0.3338 0.0
H161 H 0.95955 0.88784 0.39481 0.0
H162 H 0.17866 0.74004 0.22968 0.0
H163 H 0.95275 0.6697 0.26973 0.0
H164 H 0.07064 0.6448 0.33552 0.0
Co165 Co 0.24311 0.04023 0.55232 0.0
C166 C 0.24761 1.00664 0.62796 0.0
C167 C 0.20456 0.96641 0.5949 0.0
C168 C 0.19807 0.95577 0.63176 0.0
N169 N 0.2353 0.99875 0.5927 0.0
N170 N 0.22456 0.98185 0.65261 0.0
H171 H 0.26891 0.03393 0.63558 0.0
H172 H 0.1848 0.95463 0.5719 0.0
C173 C 0.23456 0.98733 0.48169 0.0
O174 O 0.26591 1.01161 0.46633 0.0
N175 N 0.24996 0.08307 0.51253 0.0
C176 C 0.28148 0.11462 0.50873 0.0
C177 C 0.27137 0.14051 0.4785 0.0
C178 C 0.22025 0.0914 0.48521 0.0
N179 N 0.23296 0.1258 0.46368 0.0
C180 C 0.33746 0.05215 0.56351 0.0
C181 C 0.36557 0.97676 0.52793 0.0
C182 C 0.39768 1.00857 0.53748 0.0
C183 C 0.38299 0.04589 0.55691 0.0
C184 C 0.32025 0.98464 0.53482 0.0
N185 N 0.30637 1.02378 0.54959 0.0
H186 H 0.32718 0.08122 0.57839 0.0
H187 H 0.29662 0.95919 0.52787 0.0
H188 H 0.30923 0.12015 0.52701 0.0
H189 H 0.18963 0.07299 0.48154 0.0
O190 O 0.24616 0.08835 0.58795 0.0
O191 O 0.18421 0.06383 0.56189 0.0
O192 O 0.22398 0.99294 0.51573 0.0
C193 C 0.203 0.09092 0.58492 0.0
H194 H 0.17306 0.9332 0.64231 0.0
H195 H 0.29087 0.16809 0.46824 0.0
H196 H 0.37521 0.94608 0.51493 0.0
H197 H 0.40608 0.07121 0.56575 0.0
Co198 Co 1.01982 0.24165 0.80712 0.0
C199 C 0.05511 0.24749 0.88156 0.0
C200 C 0.09468 0.20336 0.84918 0.0
C201 C 0.10595 0.19801 0.88606 0.0
N202 N 0.06239 0.23411 0.84665 0.0
N203 N 0.08023 0.22522 0.90657 0.0
H204 H 1.02777 0.26904 0.88867 0.0
H205 H 0.10591 0.18296 0.82653 0.0
C206 C 0.0709 0.23342 0.73503 0.0
O207 O 0.04515 0.26355 0.71969 0.0
N208 N 0.97603 0.2484 0.76821 0.0
C209 C 0.94621 0.28125 0.76303 0.0
C210 C 0.92004 0.27127 0.73293 0.0
C211 C 0.96656 0.21829 0.74201 0.0
N212 N 0.93313 0.23184 0.71968 0.0
C213 C 1.00749 0.33414 0.82278 0.0
C214 C 0.07783 0.36648 0.78137 0.0
C215 C 0.04792 0.39668 0.79699 0.0
C216 C 1.01326 0.3799 0.819 0.0
C217 C 0.07136 0.32091 0.7865 0.0
N218 N 0.03467 0.30503 0.8048 0.0
H219 H 0.97975 0.32222 0.83903 0.0
H220 H 0.0962 0.29893 0.77562 0.0
H221 H 0.94281 0.31027 0.77989 0.0
H222 H 0.98407 0.1872 0.73929 0.0
O223 O 0.97142 0.24216 0.84354 0.0
O224 O 0.9976 0.18239 0.8164 0.0
O225 O 0.06735 0.22425 0.76965 0.0
C226 C 0.96978 0.19946 0.83985 0.0
H227 H 0.12857 0.17323 0.89689 0.0
H228 H 0.89389 0.29182 0.72134 0.0
H229 H 0.10623 0.37801 0.76549 0.0
H230 H 0.98973 0.40192 0.83218 0.0
Co231 Co 0.81179 1.00133 0.05203 0.0
C232 C 0.80776 0.03249 0.12798 0.0
C233 C 0.85337 0.07209 0.09627 0.0
C234 C 0.85772 0.08282 0.13331 0.0
N235 N 0.82206 0.0404 0.09316 0.0
N236 N 0.82945 0.05725 0.15313 0.0
H237 H 0.78428 1.00666 0.13507 0.0
H238 H 0.8742 0.08385 0.07383 0.0
C239 C 0.82099 0.05754 0.98173 0.0
O240 O 0.7902 0.03421 0.96488 0.0
N241 N 0.80127 0.96039 0.01195 0.0
C242 C 0.76773 0.93084 0.01008 0.0
C243 C 0.77244 0.90639 0.97855 0.0
C244 C 0.82721 0.95195 0.98223 0.0
N245 N 0.80949 0.92 0.96071 0.0
C246 C 0.71936 0.99121 0.07175 0.0
C247 C 0.68538 0.05982 0.02955 0.0
C248 C 0.65538 0.03008 0.04612 0.0
C249 C 0.67314 0.99634 0.06855 0.0
C250 C 0.73154 0.05365 0.03374 0.0
N251 N 0.74817 1.01773 0.05244 0.0
H252 H 0.73181 0.96408 0.08833 0.0
H253 H 0.7533 0.07801 0.02172 0.0
H254 H 0.74214 0.92591 0.03058 0.0
H255 H 0.85769 0.96966 0.97609 0.0
O256 O 0.81143 0.95136 0.08671 0.0
O257 O 0.87124 0.97725 0.05831 0.0
O258 O 0.82965 0.05076 0.01613 0.0
C259 C 0.85431 0.94904 0.08165 0.0
H260 H 0.88239 0.10484 0.14498 0.0
H261 H 0.75067 0.87985 0.96994 0.0
H262 H 0.67333 0.08771 0.01344 0.0
H263 H 0.65159 0.97277 0.08243 0.0
H264 H 0.98171 0.60618 0.23971 0.0
H265 H 1.02838 0.58343 0.35158 0.0
H266 H 1.0294 0.50409 0.34074 0.0
H267 H 1.02264 0.44157 0.29813 0.0
H268 H 0.97072 0.46379 0.18777 0.0
H269 H 0.96599 0.54275 0.19971 0.0
C270 C 0.99114 0.58398 0.2621 0.0
C271 C 1.00571 0.60127 0.29623 0.0
C272 C 0.99119 0.53811 0.25588 0.0
C273 C 1.01817 0.57151 0.32464 0.0
C274 C 1.01852 0.52594 0.31857 0.0
C275 C 1.00927 0.46334 0.27687 0.0
C276 C 0.99777 0.44635 0.24182 0.0
C277 C 1.00599 0.5089 0.28404 0.0
C278 C 0.98102 0.47571 0.21469 0.0
C279 C 0.97799 0.52101 0.22155 0.0
H280 H 0.58774 0.98507 0.46233 0.0
H281 H 0.62834 0.05357 0.56148 0.0
H282 H 0.55194 0.05284 0.58384 0.0
H283 H 0.47299 0.03504 0.57492 0.0
H284 H 0.43089 0.9719 0.47373 0.0
H285 H 0.50811 0.96799 0.45306 0.0
C286 C 0.57996 1.00008 0.48874 0.0
C287 C 0.61439 1.01897 0.51015 0.0
C288 C 0.53541 1.00046 0.50132 0.0
C289 C 0.60321 0.03778 0.54456 0.0
C290 C 0.55923 0.03779 0.55735 0.0
C291 C 0.48042 1.02071 0.54818 0.0
C292 C 0.44557 1.00385 0.52609 0.0
C293 C 0.52498 1.01951 0.53589 0.0
C294 C 0.45664 0.98454 0.49185 0.0
C295 C 0.50095 0.98266 0.47973 0.0
H296 H 0.05089 0.60663 0.79171 0.0
H297 H 0.05916 0.58124 0.67455 0.0
H298 H 0.06254 0.50161 0.68676 0.0
H299 H 0.05905 0.43878 0.7306 0.0
H300 H 0.04535 0.46368 0.84754 0.0
H301 H 0.04811 0.54344 0.83579 0.0
C302 C 0.05406 0.58356 0.76899 0.0
C303 C 0.05517 0.59975 0.73229 0.0
C304 C 0.05462 0.53763 0.77622 0.0
C305 C 0.05843 0.56953 0.70301 0.0
C306 C 0.06026 0.52401 0.70999 0.0
C307 C 0.05723 0.46169 0.75353 0.0
C308 C 0.05216 0.44521 0.78993 0.0
C309 C 0.05781 0.5076 0.74645 0.0
C310 C 0.04906 0.47543 0.81927 0.0
C311 C 0.05072 0.52108 0.81256 0.0
H312 H 0.44401 1.02293 0.04212 0.0
H313 H 0.46754 0.05517 0.92703 0.0
H314 H 0.54771 0.05791 0.93868 0.0
H315 H 0.6117 0.04898 0.98115 0.0
H316 H 0.58782 1.0179 0.09638 0.0
H317 H 0.50756 1.01742 0.08508 0.0
C318 C 0.46649 0.03126 0.01963 0.0
C319 C 0.44932 0.03875 0.98365 0.0
C320 C 0.51277 0.0329 0.02653 0.0
C321 C 0.47949 0.04863 0.95487 0.0
C322 C 0.52548 0.05046 0.96156 0.0
C323 C 0.58896 0.04276 1.00394 0.0
C324 C 0.60613 0.03331 0.03959 0.0
C325 C 0.54258 0.04236 0.99722 0.0
C326 C 0.57587 1.02468 0.06857 0.0
C327 C 0.52982 1.02454 0.06215 0.0
H328 H 0.23383 0.2099 0.43958 0.0
H329 H 0.18282 0.08024 0.41466 0.0
H330 H 0.14915 0.10879 0.35752 0.0
H331 H 0.13723 0.16989 0.31365 0.0
H332 H 0.18781 0.29977 0.33929 0.0
H333 H 0.21999 0.27138 0.3967 0.0
C334 C 0.21555 0.18785 0.42155 0.0
C335 C 0.211 0.14302 0.43121 0.0
C336 C 0.19673 0.20438 0.38871 0.0
C337 C 0.1864 0.11499 0.40798 0.0
C338 C 0.16747 0.13122 0.3752 0.0
C339 C 0.15478 0.19221 0.3319 0.0
C340 C 0.16015 0.23696 0.32188 0.0
C341 C 0.17276 0.1758 0.36517 0.0
C342 C 0.18374 0.26507 0.34581 0.0
C343 C 0.20189 0.24895 0.37886 0.0
H344 H 0.89315 0.13631 0.57008 0.0
H345 H 0.76273 0.19125 0.59085 0.0
H346 H 0.78935 0.22278 0.64867 0.0
H347 H 0.84972 0.2354 0.69307 0.0
H348 H 0.97982 0.17994 0.67298 0.0
H349 H 0.95284 0.14662 0.61567 0.0
C350 C 0.87035 0.15468 0.58739 0.0
C351 C 0.82607 0.16162 0.57584 0.0
C352 C 0.88572 0.17235 0.62088 0.0
C353 C 0.79721 0.18608 0.59856 0.0
C354 C 0.81229 0.20387 0.63184 0.0
C355 C 0.87214 0.21614 0.67605 0.0
C356 C 0.91663 0.21024 0.68711 0.0
C357 C 0.85652 0.19745 0.64311 0.0
C358 C 0.94524 0.18454 0.66521 0.0
C359 C 0.92994 0.16578 0.63233 0.0
H360 H 0.89411 0.92234 0.93459 0.0
H361 H 0.75997 0.88245 0.90681 0.0
H362 H 0.7862 0.85045 0.84933 0.0
H363 H 0.84737 0.83063 0.80809 0.0
H364 H 0.98144 0.87105 0.83403 0.0
H365 H 0.95505 0.90719 0.89051 0.0
C366 C 0.87057 0.90715 0.91578 0.0
C367 C 0.82526 0.90402 0.92555 0.0
C368 C 0.88583 0.88905 0.88233 0.0
C369 C 0.79522 0.88419 0.9007 0.0
C370 C 0.81009 0.86616 0.86757 0.0
C371 C 0.87069 0.84746 0.82613 0.0
C372 C 0.91615 0.84794 0.81726 0.0
C373 C 0.85535 0.86775 0.85842 0.0
C374 C 0.94615 0.87054 0.84032 0.0
C375 C 0.93112 0.89088 0.87268 0.0
H376 H 0.23895 0.83913 0.06817 0.0
H377 H 0.19813 0.97156 0.09532 0.0
H378 H 0.16228 0.94453 0.15185 0.0
H379 H 0.14311 0.88315 0.19369 0.0
H380 H 0.18286 0.75051 0.16558 0.0
H381 H 0.21933 0.7778 0.10969 0.0
C382 C 0.22259 0.86205 0.08668 0.0
C383 C 0.22113 0.90716 0.07764 0.0
C384 C 0.20201 0.84627 0.119 0.0
C385 C 0.1992 0.93654 0.10152 0.0
C386 C 0.17889 0.92116 0.1339 0.0
C387 C 0.15937 0.8602 0.17519 0.0
C388 C 0.16044 0.81492 0.18398 0.0
C389 C 0.17996 0.87605 0.14284 0.0
C390 C 0.1822 0.78565 0.15987 0.0
C391 C 0.20285 0.80116 0.12774 0.0
H392 H 0.03221 0.17439 0.07095 0.0
H393 H 0.96047 0.29718 0.06248 0.0
H394 H 0.98875 0.30855 0.99935 0.0
H395 H 0.03478 0.28422 0.94795 0.0
H396 H 0.1047 0.15952 0.95515 0.0
H397 H 0.07851 0.14957 0.01847 0.0
C398 C 1.02191 0.20291 0.05471 0.0
C399 C 0.99321 0.23433 0.07046 0.0
C400 C 0.03911 0.20953 0.01893 0.0
C401 C 0.98159 0.27225 0.05017 0.0
C402 C 0.99818 0.2789 0.01445 0.0
C403 C 0.04389 0.2544 0.96286 0.0
C404 C 0.07084 0.22223 0.94587 0.0
C405 C 1.02714 0.24786 0.99869 0.0
C406 C 0.08388 0.18496 0.9669 0.0
C407 C 0.06841 0.17886 1.00315 0.0
H408 H 0.81866 0.9802 0.18977 0.0
H409 H 0.84092 0.11949 0.20562 0.0
H410 H 0.84088 0.10829 0.27301 0.0
H411 H 0.83375 0.05863 0.32732 0.0
H412 H 0.81477 0.91918 0.31132 0.0
H413 H 0.81334 0.93051 0.24375 0.0
C414 C 0.82295 1.00819 0.20795 0.0
C415 C 0.8291 0.05078 0.19276 0.0
C416 C 0.82343 1.00134 0.24647 0.0
C417 C 0.83599 0.08651 0.21671 0.0
C418 C 0.83589 0.0801 0.25516 0.0
C419 C 0.82924 0.0309 0.30884 0.0
C420 C 0.82376 0.9882 0.32382 0.0
C421 C 0.82952 0.03769 0.27031 0.0
C422 C 0.81885 0.95219 0.30003 0.0
C423 C 0.81816 0.95873 0.2616 0.0
H424 H 0.03689 0.75629 0.55726 0.0
H425 H 0.10051 0.8843 0.55892 0.0
H426 H 0.07289 0.89986 0.49675 0.0
H427 H 1.02934 0.87769 0.44193 0.0
H428 H 0.96521 0.75057 0.44052 0.0
H429 H 0.99259 0.73474 0.50335 0.0
C430 C 0.0446 0.78771 0.54419 0.0
C431 C 0.07058 0.81901 0.56317 0.0
C432 C 1.02749 0.79707 0.50881 0.0
C433 C 0.08109 0.85915 0.54517 0.0
C434 C 0.06472 0.86845 0.50968 0.0
C435 C 1.02044 0.84714 0.45596 0.0
C436 C 0.99439 0.81569 0.43742 0.0
C437 C 0.03739 0.83793 0.49147 0.0
C438 C 0.98444 0.7754 0.45495 0.0
C439 C 1.00052 0.76625 0.49051 0.0
H440 H 0.28561 1.02105 0.6965 0.0
H441 H 0.15322 0.9649 0.69735 0.0
H442 H 0.1425 0.98982 0.76071 0.0
H443 H 0.16979 0.02975 0.8156 0.0
H444 H 0.30157 0.08593 0.81482 0.0
H445 H 0.31292 0.06045 0.75107 0.0
C446 C 0.25426 1.01444 0.71034 0.0
C447 C 0.22023 0.99142 0.69168 0.0
C448 C 0.2478 0.02987 0.74653 0.0
C449 C 0.1803 0.98217 0.71074 0.0
C450 C 0.17382 0.99697 0.74696 0.0
C451 C 0.2005 0.0372 0.801 0.0
C452 C 0.23446 0.06065 0.81916 0.0
C453 C 0.20705 1.02145 0.76489 0.0
C454 C 0.27485 0.06867 0.8008 0.0
C455 C 0.28139 0.05378 0.76465 0.0
H456 H 0.12372 0.13954 0.1493 0.0
H457 H 0.13184 0.27051 0.10185 0.0
H458 H 0.17142 0.24144 0.04814 0.0
H459 H 0.20301 0.17841 0.01388 0.0
H460 H 0.19445 0.04758 0.06175 0.0
H461 H 0.15617 0.07693 0.11566 0.0
C462 C 0.13451 0.1618 0.12739 0.0
C463 C 0.12513 0.20722 0.12989 0.0
C464 C 0.15724 0.14483 0.09642 0.0
C465 C 0.13902 0.23546 0.10096 0.0
C466 C 0.16156 0.21883 0.07008 0.0
C467 C 0.19307 0.15636 0.03621 0.0
C468 C 0.20176 0.11074 0.03353 0.0
C469 C 0.17083 0.17353 0.06743 0.0
C470 C 0.18817 0.08274 0.06275 0.0
C471 C 0.16624 0.09953 0.09378 0.0
H472 H 0.88412 0.2188 0.27406 0.0
H473 H 1.01664 0.17382 0.30218 0.0
H474 H 0.98711 0.13309 0.35525 0.0
H475 H 0.92372 0.10923 0.39352 0.0
H476 H 0.79096 0.15284 0.36525 0.0
H477 H 0.82056 0.19525 0.31279 0.0
C478 C 0.90661 0.20019 0.29182 0.0
C479 C 0.95265 0.19958 0.28395 0.0
C480 C 0.88937 0.17665 0.32248 0.0
C481 C 0.98111 0.17505 0.30736 0.0
C482 C 0.96425 0.15169 0.33784 0.0
C483 C 0.90126 0.1283 0.37608 0.0
C484 C 0.85518 0.12805 0.38351 0.0
C485 C 0.91845 0.15219 0.34567 0.0
C486 C 0.82658 0.15259 0.36032 0.0
C487 C 0.84349 0.17682 0.33024 0.0
H488 H 0.83601 0.8903 0.53347 0.0
H489 H 0.89669 1.01768 0.55125 0.0
H490 H 0.94217 0.98664 0.60128 0.0
H491 H 0.96606 0.92256 0.6397 0.0
H492 H 0.90561 0.79535 0.62062 0.0
H493 H 0.85903 0.82703 0.57186 0.0
C494 C 0.85907 0.9114 0.54828 0.0
C495 C 0.86269 0.95638 0.53838 0.0
C496 C 0.88537 0.89328 0.57705 0.0
C497 C 0.893 0.98298 0.55806 0.0
C498 C 0.91912 0.96522 0.5868 0.0
C499 C 0.9424 0.90191 0.62509 0.0
C500 C 0.93933 0.8566 0.63409 0.0
C501 C 0.91572 0.92034 0.59655 0.0
C502 C 0.90875 0.83029 0.61449 0.0
C503 C 0.88204 0.84838 0.58645 0.0
H504 H 0.06727 0.83153 0.84621 0.0
H505 H 0.14349 0.86347 0.74833 0.0
H506 H 0.19469 0.9081 0.78564 0.0
H507 H 0.21668 0.93988 0.84654 0.0
H508 H 0.13592 0.91155 0.94262 0.0
H509 H 0.08792 0.86367 0.90579 0.0
C510 C 0.09531 0.84789 0.83302 0.0
C511 C 0.10174 0.84369 0.79456 0.0
C512 C 0.12389 0.87427 0.85446 0.0
C513 C 0.13777 0.86598 0.77788 0.0
C514 C 0.1671 0.89152 0.79924 0.0
C515 C 0.18891 0.92266 0.85935 0.0
C516 C 0.18013 0.9287 0.89736 0.0
C517 C 0.16044 0.89607 0.83761 0.0
C518 C 0.14341 0.9072 0.91349 0.0
C519 C 0.11592 0.87986 0.89243 0.0
H520 H 0.11932 0.83625 0.407 0.0
H521 H 0.14194 0.91851 0.31077 0.0
H522 H 0.18817 0.96834 0.34756 0.0
H523 H 0.22029 0.98999 0.40745 0.0
H524 H 0.19276 0.91167 0.50511 0.0
H525 H 0.15076 0.8588 0.46758 0.0
C526 C 0.13492 0.86479 0.39409 0.0
C527 C 0.12777 0.87344 0.35612 0.0
C528 C 0.16041 0.89412 0.41575 0.0
C529 C 0.14715 0.91111 0.3399 0.0
C530 C 0.17356 0.93962 0.36093 0.0
C531 C 0.20543 0.96113 0.42047 0.0
C532 C 0.21008 0.95454 0.45896 0.0
C533 C 0.18018 0.93165 0.39892 0.0
C534 C 0.18978 0.91747 0.47553 0.0
C535 C 0.16572 0.88724 0.45408 0.0
H536 H 0.21689 0.11447 0.65678 0.0
H537 H 0.12785 0.13428 0.56422 0.0
H538 H 0.08075 0.18234 0.60187 0.0
H539 H 0.06352 0.21692 0.66153 0.0
H540 H 0.14814 0.19179 0.75611 0.0
H541 H 0.19821 0.14762 0.71751 0.0
C542 C 0.18744 0.12982 0.64485 0.0
C543 C 0.1761 0.12145 0.60765 0.0
C544 C 0.15966 0.15628 0.66711 0.0
C545 C 0.13729 0.14049 0.59273 0.0
C546 C 0.11038 0.16794 0.61424 0.0
C547 C 0.09322 0.20224 0.67361 0.0
C548 C 0.10242 0.20817 0.71154 0.0
C549 C 0.12107 0.17588 0.65151 0.0
C550 C 0.14044 0.18796 0.72695 0.0
C551 C 0.16908 0.1627 0.70488 0.0
H552 H 0.94415 0.20773 0.91227 0.0
H553 H 0.92631 0.12698 0.81541 0.0
H554 H 0.8765 0.07782 0.85001 0.0
H555 H 0.83977 0.0562 0.90819 0.0
H556 H 0.86287 0.1321 0.00706 0.0
H557 H 0.90873 0.18451 0.97162 0.0
C558 C 0.9289 0.1796 0.89877 0.0
C559 C 0.93841 0.17123 0.8612 0.0
C560 C 0.90137 0.15048 0.91929 0.0
C561 C 0.91936 0.13413 0.84423 0.0
C562 C 0.89087 0.10602 0.86401 0.0
C563 C 0.8544 0.0845 0.92192 0.0
C564 C 0.84736 0.09051 0.96015 0.0
C565 C 0.88182 0.11367 0.90159 0.0
C566 C 0.86753 0.1268 0.97765 0.0
C567 C 0.89378 0.15679 0.95736 0.0
H568 H 1.00444 0.83032 0.1551 0.0
H569 H 0.91629 0.84048 0.24895 0.0
H570 H 0.86201 0.88084 0.21087 0.0
H571 H 0.84108 0.9167 0.15151 0.0
H572 H 0.93312 0.91338 0.05991 0.0
H573 H 0.98411 0.86699 0.09615 0.0
C574 C 0.97313 0.84107 0.16707 0.0
C575 C 0.96421 0.83209 0.20469 0.0
C576 C 0.94283 0.86578 0.14539 0.0
C577 C 0.92392 0.84697 0.22006 0.0
C578 C 0.89289 0.87011 0.19831 0.0
C579 C 0.87211 0.90543 0.13945 0.0
C580 C 0.88318 0.9182 0.10299 0.0
C581 C 0.90214 0.88016 0.16103 0.0
C582 C 0.92382 0.90392 0.08788 0.0
C583 C 0.95303 0.87744 0.10862 0.0
loop_
_geom_bond_atom_site_label_1
_geom_bond_atom_site_label_2
_geom_bond_distance
_geom_bond_site_symmetry_2
_ccdc_geom_bond_type
Co0 N4 2.148 . S
Co0 N10 2.128 . S
Co0 N20 2.194 . S
Co0 O25 2.351 . S
Co0 O26 2.155 . S
Co0 O27 2.096 . S
C1 N4 1.301 . S
C1 N5 1.328 1_455 S
C1 H6 0.930 . S
C2 C3 1.333 . S
C2 N4 1.317 1_655 S
C2 H7 0.930 . S
C3 C2 1.333 . S
C3 N5 1.350 . S
C3 H29 0.931 . S
N4 Co0 2.148 . S
N4 C1 1.301 . S
N4 C2 1.317 1_455 S
N5 C1 1.328 1_655 S
N5 C3 1.350 . S
H6 C1 0.930 . S
H7 C2 0.930 . S
C8 O9 1.224 1_655 S
C8 O27 1.247 1_655 S
O9 C8 1.224 1_455 S
N10 Co0 2.128 . S
N10 C11 1.355 . S
N10 C13 1.311 . S
C11 N10 1.355 . S
C11 C12 1.363 . S
C11 H23 0.929 . S
C12 C11 1.363 . S
C12 N14 1.375 . S
C12 H30 0.931 . S
C13 N10 1.311 . S
C13 N14 1.347 . S
C13 H24 0.929 . S
N14 C12 1.375 . S
N14 C13 1.347 . S
C15 C18 1.365 . S
C15 N20 1.328 . S
C15 H21 0.929 . S
C16 C17 1.362 . S
C16 C19 1.378 . S
C16 H31 0.929 . S
C17 C16 1.362 . S
C17 C18 1.366 . S
C18 C15 1.365 . S
C18 C17 1.366 . S
C18 H32 0.930 . S
C19 C16 1.378 . S
C19 N20 1.315 . S
C19 H22 0.930 . S
N20 Co0 2.194 . S
N20 C15 1.328 . S
N20 C19 1.315 . S
H21 C15 0.929 . S
H22 C19 0.930 . S
H23 C11 0.929 . S
H24 C13 0.929 . S
O25 Co0 2.351 . S
O25 C28 1.244 . S
O26 Co0 2.155 . S
O26 C28 1.240 . S
O27 Co0 2.096 . S
O27 C8 1.247 1_455 S
C28 O25 1.244 . S
C28 O26 1.240 . S
H29 C3 0.931 . S
H30 C12 0.931 . S
H31 C16 0.929 . S
H32 C18 0.930 . S
Co33 N37 2.148 . S
Co33 N43 2.128 . S
Co33 N53 2.194 . S
Co33 O58 2.351 . S
Co33 O59 2.155 . S
Co33 O60 2.096 . S
C34 N37 1.301 . S
C34 N38 1.328 1_545 S
C34 H39 0.930 . S
C35 C36 1.333 . S
C35 N37 1.317 1_565 S
C35 H40 0.930 . S
C36 C35 1.333 . S
C36 N38 1.350 . S
C36 H62 0.931 . S
N37 Co33 2.148 . S
N37 C34 1.301 . S
N37 C35 1.317 1_545 S
N38 C34 1.328 1_565 S
N38 C36 1.350 . S
H39 C34 0.930 . S
H40 C35 0.930 . S
C41 O42 1.224 1_565 S
C41 O60 1.247 1_565 S
O42 C41 1.224 1_545 S
N43 Co33 2.128 . S
N43 C44 1.355 . S
N43 C46 1.311 . S
C44 N43 1.355 . S
C44 C45 1.363 . S
C44 H56 0.929 . S
C45 C44 1.363 . S
C45 N47 1.375 . S
C45 H63 0.931 . S
C46 N43 1.311 . S
C46 N47 1.347 . S
C46 H57 0.929 . S
N47 C45 1.375 . S
N47 C46 1.347 . S
C48 C51 1.365 . S
C48 N53 1.328 . S
C48 H54 0.929 . S
C49 C50 1.362 . S
C49 C52 1.378 . S
C49 H64 0.929 . S
C50 C49 1.362 . S
C50 C51 1.366 . S
C51 C48 1.365 . S
C51 C50 1.366 . S
C51 H65 0.930 . S
C52 C49 1.378 . S
C52 N53 1.315 . S
C52 H55 0.930 . S
N53 Co33 2.194 . S
N53 C48 1.328 . S
N53 C52 1.315 . S
H54 C48 0.929 . S
H55 C52 0.930 . S
H56 C44 0.929 . S
H57 C46 0.929 . S
O58 Co33 2.351 . S
O58 C61 1.244 . S
O59 Co33 2.155 . S
O59 C61 1.240 . S
O60 Co33 2.096 . S
O60 C41 1.247 1_545 S
C61 O58 1.244 . S
C61 O59 1.240 . S
H62 C36 0.931 . S
H63 C45 0.931 . S
H64 C49 0.929 . S
H65 C51 0.930 . S
Co66 N70 2.148 . S
Co66 N76 2.128 . S
Co66 N86 2.194 . S
Co66 O91 2.351 . S
Co66 O92 2.155 . S
Co66 O93 2.096 . S
C67 N70 1.301 . S
C67 N71 1.328 1_655 S
C67 H72 0.930 . S
C68 C69 1.333 . S
C68 N70 1.317 1_455 S
C68 H73 0.930 . S
C69 C68 1.333 . S
C69 N71 1.350 . S
C69 H95 0.931 . S
N70 Co66 2.148 . S
N70 C67 1.301 . S
N70 C68 1.317 1_655 S
N71 C67 1.328 1_455 S
N71 C69 1.350 . S
H72 C67 0.930 . S
H73 C68 0.930 . S
C74 O75 1.224 1_455 S
C74 O93 1.247 1_455 S
O75 C74 1.224 1_655 S
N76 Co66 2.128 . S
N76 C77 1.355 . S
N76 C79 1.311 . S
C77 N76 1.355 . S
C77 C78 1.363 . S
C77 H89 0.929 . S
C78 C77 1.363 . S
C78 N80 1.375 . S
C78 H96 0.931 . S
C79 N76 1.311 . S
C79 N80 1.347 . S
C79 H90 0.929 . S
N80 C78 1.375 . S
N80 C79 1.347 . S
C81 C84 1.365 . S
C81 N86 1.328 . S
C81 H87 0.929 . S
C82 C83 1.362 . S
C82 C85 1.378 . S
C82 H97 0.929 . S
C83 C82 1.362 . S
C83 C84 1.366 . S
C84 C81 1.365 . S
C84 C83 1.366 . S
C84 H98 0.930 . S
C85 C82 1.378 . S
C85 N86 1.315 . S
C85 H88 0.930 . S
N86 Co66 2.194 . S
N86 C81 1.328 . S
N86 C85 1.315 . S
H87 C81 0.929 . S
H88 C85 0.930 . S
H89 C77 0.929 . S
H90 C79 0.929 . S
O91 Co66 2.351 . S
O91 C94 1.244 . S
O92 Co66 2.155 . S
O92 C94 1.240 . S
O93 Co66 2.096 . S
O93 C74 1.247 1_655 S
C94 O91 1.244 . S
C94 O92 1.240 . S
H95 C69 0.931 . S
H96 C78 0.931 . S
H97 C82 0.929 . S
H98 C84 0.930 . S
Co99 N103 2.148 . S
Co99 N109 2.128 . S
Co99 N119 2.194 . S
Co99 O124 2.351 . S
Co99 O125 2.155 . S
Co99 O126 2.096 . S
C100 N103 1.301 . S
C100 N104 1.328 1_565 S
C100 H105 0.930 . S
C101 C102 1.333 . S
C101 N103 1.317 1_545 S
C101 H106 0.930 . S
C102 C101 1.333 . S
C102 N104 1.350 . S
C102 H128 0.931 . S
N103 Co99 2.148 . S
N103 C100 1.301 . S
N103 C101 1.317 1_565 S
N104 C100 1.328 1_545 S
N104 C102 1.350 . S
H105 C100 0.930 . S
H106 C101 0.930 . S
C107 O108 1.223 1_546 S
C107 O126 1.247 1_545 S
O108 C107 1.223 1_564 S
N109 Co99 2.128 . S
N109 C110 1.355 1_556 S
N109 C112 1.311 1_556 S
C110 N109 1.355 1_554 S
C110 C111 1.363 . S
C110 H122 0.929 1_554 S
C111 C110 1.363 . S
C111 N113 1.375 . S
C111 H129 0.931 . S
C112 N109 1.311 1_554 S
C112 N113 1.347 . S
C112 H123 0.929 . S
N113 C111 1.375 . S
N113 C112 1.347 . S
C114 C117 1.365 . S
C114 N119 1.328 . S
C114 H120 0.929 . S
C115 C116 1.362 . S
C115 C118 1.378 . S
C115 H130 0.949 . S
C116 C115 1.362 . S
C116 C117 1.366 . S
C117 C114 1.365 . S
C117 C116 1.366 . S
C117 H131 0.930 . S
C118 C115 1.378 . S
C118 N119 1.315 . S
C118 H121 0.930 . S
N119 Co99 2.194 . S
N119 C114 1.328 . S
N119 C118 1.315 . S
H120 C114 0.929 . S
H121 C118 0.930 . S
H122 C110 0.929 1_556 S
H123 C112 0.929 . S
O124 Co99 2.351 . S
O124 C127 1.244 . S
O125 Co99 2.155 . S
O125 C127 1.240 . S
O126 Co99 2.096 . S
O126 C107 1.247 1_565 S
C127 O124 1.244 . S
C127 O125 1.240 . S
H128 C102 0.931 . S
H129 C111 0.931 . S
H130 C115 0.949 . S
H131 C117 0.930 . S
Co132 N136 2.148 . S
Co132 N142 2.128 . S
Co132 N152 2.194 . S
Co132 O157 2.351 . S
Co132 O158 2.155 . S
Co132 O159 2.096 . S
C133 N136 1.301 . S
C133 N137 1.328 1_455 S
C133 H138 0.930 . S
C134 C135 1.333 . S
C134 N136 1.317 1_655 S
C134 H139 0.930 . S
C135 C134 1.333 . S
C135 N137 1.350 . S
C135 H161 0.931 . S
N136 Co132 2.148 . S
N136 C133 1.301 . S
N136 C134 1.317 1_455 S
N137 C133 1.328 1_655 S
N137 C135 1.350 . S
H138 C133 0.930 . S
H139 C134 0.930 . S
C140 O141 1.224 1_655 S
C140 O159 1.247 1_655 S
O141 C140 1.224 1_455 S
N142 Co132 2.128 . S
N142 C143 1.355 . S
N142 C145 1.311 . S
C143 N142 1.355 . S
C143 C144 1.363 . S
C143 H155 0.929 . S
C144 C143 1.363 . S
C144 N146 1.375 . S
C144 H162 0.931 . S
C145 N142 1.311 . S
C145 N146 1.347 . S
C145 H156 0.929 . S
N146 C144 1.375 . S
N146 C145 1.347 . S
C147 C150 1.365 . S
C147 N152 1.328 . S
C147 H153 0.929 . S
C148 C149 1.362 . S
C148 C151 1.378 . S
C148 H163 0.929 . S
C149 C148 1.362 . S
C149 C150 1.366 . S
C150 C147 1.365 . S
C150 C149 1.366 . S
C150 H164 0.930 . S
C151 C148 1.378 . S
C151 N152 1.315 . S
C151 H154 0.930 . S
N152 Co132 2.194 . S
N152 C147 1.328 . S
N152 C151 1.315 . S
H153 C147 0.929 . S
H154 C151 0.930 . S
H155 C143 0.929 . S
H156 C145 0.929 . S
O157 Co132 2.351 . S
O157 C160 1.244 . S
O158 Co132 2.155 . S
O158 C160 1.240 . S
O159 Co132 2.096 . S
O159 C140 1.247 1_455 S
C160 O157 1.244 . S
C160 O158 1.240 . S
H161 C135 0.931 . S
H162 C144 0.931 . S
H163 C148 0.929 . S
H164 C150 0.930 . S
Co165 N169 2.148 . S
Co165 N175 2.128 . S
Co165 N185 2.194 . S
Co165 O190 2.351 . S
Co165 O191 2.155 . S
Co165 O192 2.096 . S
C166 N169 1.301 . S
C166 N170 1.328 1_545 S
C166 H171 0.930 . S
C167 C168 1.333 . S
C167 N169 1.317 1_565 S
C167 H172 0.930 . S
C168 C167 1.333 . S
C168 N170 1.350 . S
C168 H194 0.931 . S
N169 Co165 2.148 . S
N169 C166 1.301 . S
N169 C167 1.317 1_545 S
N170 C166 1.328 1_565 S
N170 C168 1.350 . S
H171 C166 0.930 . S
H172 C167 0.930 . S
C173 O174 1.224 1_565 S
C173 O192 1.247 1_565 S
O174 C173 1.224 1_545 S
N175 Co165 2.128 . S
N175 C176 1.355 . S
N175 C178 1.311 . S
C176 N175 1.355 . S
C176 C177 1.363 . S
C176 H188 0.929 . S
C177 C176 1.363 . S
C177 N179 1.375 . S
C177 H195 0.931 . S
C178 N175 1.311 . S
C178 N179 1.347 . S
C178 H189 0.929 . S
N179 C177 1.375 . S
N179 C178 1.347 . S
C180 C183 1.365 . S
C180 N185 1.328 . S
C180 H186 0.929 . S
C181 C182 1.362 . S
C181 C184 1.378 . S
C181 H196 0.929 . S
C182 C181 1.362 . S
C182 C183 1.366 . S
C183 C180 1.365 . S
C183 C182 1.366 . S
C183 H197 0.930 . S
C184 C181 1.378 . S
C184 N185 1.315 . S
C184 H187 0.930 . S
N185 Co165 2.194 . S
N185 C180 1.328 . S
N185 C184 1.315 . S
H186 C180 0.929 . S
H187 C184 0.930 . S
H188 C176 0.929 . S
H189 C178 0.929 . S
O190 Co165 2.351 . S
O190 C193 1.244 . S
O191 Co165 2.155 . S
O191 C193 1.240 . S
O192 Co165 2.096 . S
O192 C173 1.247 1_545 S
C193 O190 1.244 . S
C193 O191 1.240 . S
H194 C168 0.931 . S
H195 C177 0.931 . S
H196 C181 0.929 . S
H197 C183 0.930 . S
Co198 N202 2.148 . S
Co198 N208 2.128 . S
Co198 N218 2.194 . S
Co198 O223 2.351 . S
Co198 O224 2.155 . S
Co198 O225 2.096 . S
C199 N202 1.301 . S
C199 N203 1.328 1_655 S
C199 H204 0.930 . S
C200 C201 1.333 . S
C200 N202 1.317 1_455 S
C200 H205 0.930 . S
C201 C200 1.333 . S
C201 N203 1.350 . S
C201 H227 0.931 . S
N202 Co198 2.148 . S
N202 C199 1.301 . S
N202 C200 1.317 1_655 S
N203 C199 1.328 1_455 S
N203 C201 1.350 . S
H204 C199 0.930 . S
H205 C200 0.930 . S
C206 O207 1.224 1_455 S
C206 O225 1.247 1_455 S
O207 C206 1.224 1_655 S
N208 Co198 2.128 . S
N208 C209 1.355 . S
N208 C211 1.311 . S
C209 N208 1.355 . S
C209 C210 1.363 . S
C209 H221 0.929 . S
C210 C209 1.363 . S
C210 N212 1.375 . S
C210 H228 0.931 . S
C211 N208 1.311 . S
C211 N212 1.347 . S
C211 H222 0.929 . S
N212 C210 1.375 . S
N212 C211 1.347 . S
C213 C216 1.365 . S
C213 N218 1.328 . S
C213 H219 0.929 . S
C214 C215 1.362 . S
C214 C217 1.378 . S
C214 H229 0.929 . S
C215 C214 1.362 . S
C215 C216 1.366 . S
C216 C213 1.365 . S
C216 C215 1.366 . S
C216 H230 0.930 . S
C217 C214 1.378 . S
C217 N218 1.315 . S
C217 H220 0.930 . S
N218 Co198 2.194 . S
N218 C213 1.328 . S
N218 C217 1.315 . S
H219 C213 0.929 . S
H220 C217 0.930 . S
H221 C209 0.929 . S
H222 C211 0.929 . S
O223 Co198 2.351 . S
O223 C226 1.244 . S
O224 Co198 2.155 . S
O224 C226 1.240 . S
O225 Co198 2.096 . S
O225 C206 1.247 1_655 S
C226 O223 1.244 . S
C226 O224 1.240 . S
H227 C201 0.931 . S
H228 C210 0.931 . S
H229 C214 0.929 . S
H230 C216 0.930 . S
Co231 N235 2.148 . S
Co231 N241 2.128 . S
Co231 N251 2.194 . S
Co231 O256 2.351 . S
Co231 O257 2.155 . S
Co231 O258 2.096 . S
C232 N235 1.301 . S
C232 N236 1.328 1_565 S
C232 H237 0.930 . S
C233 C234 1.333 . S
C233 N235 1.317 1_545 S
C233 H238 0.930 . S
C234 C233 1.333 . S
C234 N236 1.350 . S
C234 H260 0.931 . S
N235 Co231 2.148 . S
N235 C232 1.301 . S
N235 C233 1.317 1_565 S
N236 C232 1.328 1_545 S
N236 C234 1.350 . S
H237 C232 0.930 . S
H238 C233 0.930 . S
C239 O240 1.223 1_544 S
C239 O258 1.247 1_545 S
O240 C239 1.223 1_566 S
N241 Co231 2.128 . S
N241 C242 1.355 1_554 S
N241 C244 1.311 1_554 S
C242 N241 1.355 1_556 S
C242 C243 1.363 . S
C242 H254 0.929 1_556 S
C243 C242 1.363 . S
C243 N245 1.375 . S
C243 H261 0.931 . S
C244 N241 1.311 1_556 S
C244 N245 1.347 . S
C244 H255 0.929 . S
N245 C243 1.375 . S
N245 C244 1.347 . S
C246 C249 1.365 . S
C246 N251 1.328 . S
C246 H252 0.929 . S
C247 C248 1.362 . S
C247 C250 1.378 . S
C247 H262 0.949 . S
C248 C247 1.362 . S
C248 C249 1.366 . S
C249 C246 1.365 . S
C249 C248 1.366 . S
C249 H263 0.930 . S
C250 C247 1.378 . S
C250 N251 1.315 . S
C250 H253 0.930 . S
N251 Co231 2.194 . S
N251 C246 1.328 . S
N251 C250 1.315 . S
H252 C246 0.929 . S
H253 C250 0.930 . S
H254 C242 0.929 1_554 S
H255 C244 0.929 . S
O256 Co231 2.351 . S
O256 C259 1.244 . S
O257 Co231 2.155 . S
O257 C259 1.240 . S
O258 Co231 2.096 . S
O258 C239 1.247 1_565 S
C259 O256 1.244 . S
C259 O257 1.240 . S
H260 C234 0.931 . S
H261 C243 0.931 . S
H262 C247 0.949 . S
H263 C249 0.930 . S
H264 C270 0.930 . S
H265 C273 0.930 . S
H266 C274 0.930 . S
H267 C275 0.930 . S
H268 C278 0.930 . S
H269 C279 0.930 . S
C270 H264 0.930 . S
C270 C271 1.355 . S
C270 C272 1.415 . S
C271 C270 1.355 . S
C271 C273 1.419 . S
C272 C270 1.415 . S
C272 C277 1.425 . S
C272 C279 1.409 . S
C273 H265 0.930 . S
C273 C271 1.419 . S
C273 C274 1.362 . S
C274 H266 0.930 . S
C274 C273 1.362 . S
C274 C277 1.409 . S
C275 H267 0.930 . S
C275 C276 1.355 . S
C275 C277 1.415 . S
C276 C275 1.355 . S
C276 C278 1.419 . S
C277 C272 1.425 . S
C277 C274 1.409 . S
C277 C275 1.415 . S
C278 H268 0.930 . S
C278 C276 1.419 . S
C278 C279 1.362 . S
C279 H269 0.930 . S
C279 C272 1.409 . S
C279 C278 1.362 . S
H280 C286 0.930 . S
H281 C289 0.930 . S
H282 C290 0.930 . S
H283 C291 0.930 . S
H284 C294 0.930 . S
H285 C295 0.930 . S
C286 H280 0.930 . S
C286 C287 1.355 . S
C286 C288 1.415 . S
C287 C286 1.355 . S
C287 C289 1.419 . S
C288 C286 1.415 . S
C288 C293 1.425 . S
C288 C295 1.409 . S
C289 H281 0.930 . S
C289 C287 1.419 . S
C289 C290 1.362 . S
C290 H282 0.930 . S
C290 C289 1.362 . S
C290 C293 1.409 . S
C291 H283 0.930 . S
C291 C292 1.355 . S
C291 C293 1.415 . S
C292 C291 1.355 . S
C292 C294 1.419 . S
C293 C288 1.425 . S
C293 C290 1.409 . S
C293 C291 1.415 . S
C294 H284 0.930 . S
C294 C292 1.419 . S
C294 C295 1.362 . S
C295 H285 0.930 . S
C295 C288 1.409 . S
C295 C294 1.362 . S
H296 C302 0.930 . S
H297 C305 0.930 . S
H298 C306 0.930 . S
H299 C307 0.930 . S
H300 C310 0.930 . S
H301 C311 0.930 . S
C302 H296 0.930 . S
C302 C303 1.355 . S
C302 C304 1.415 . S
C303 C302 1.355 . S
C303 C305 1.419 . S
C304 C302 1.415 . S
C304 C309 1.425 . S
C304 C311 1.409 . S
C305 H297 0.930 . S
C305 C303 1.419 . S
C305 C306 1.362 . S
C306 H298 0.930 . S
C306 C305 1.362 . S
C306 C309 1.409 . S
C307 H299 0.930 . S
C307 C308 1.355 . S
C307 C309 1.415 . S
C308 C307 1.355 . S
C308 C310 1.419 . S
C309 C304 1.425 . S
C309 C306 1.409 . S
C309 C307 1.415 . S
C310 H300 0.930 . S
C310 C308 1.419 . S
C310 C311 1.362 . S
C311 H301 0.930 . S
C311 C304 1.409 . S
C311 C310 1.362 . S
H312 C318 0.930 . S
H313 C321 0.930 . S
H314 C322 0.930 . S
H315 C323 0.930 . S
H316 C326 0.930 . S
H317 C327 0.930 . S
C318 H312 0.930 . S
C318 C319 1.355 1_554 S
C318 C320 1.415 . S
C319 C318 1.355 1_556 S
C319 C321 1.419 . S
C320 C318 1.415 . S
C320 C325 1.425 1_554 S
C320 C327 1.409 . S
C321 H313 0.930 . S
C321 C319 1.419 . S
C321 C322 1.362 . S
C322 H314 0.930 . S
C322 C321 1.362 . S
C322 C325 1.409 . S
C323 H315 0.930 . S
C323 C324 1.355 1_556 S
C323 C325 1.415 . S
C324 C323 1.355 1_554 S
C324 C326 1.419 . S
C325 C320 1.425 1_556 S
C325 C322 1.409 . S
C325 C323 1.415 . S
C326 H316 0.930 . S
C326 C324 1.419 . S
C326 C327 1.362 . S
C327 H317 0.930 . S
C327 C320 1.409 . S
C327 C326 1.362 . S
H328 C334 0.930 . S
H329 C337 0.930 . S
H330 C338 0.930 . S
H331 C339 0.930 . S
H332 C342 0.930 . S
H333 C343 0.930 . S
C334 H328 0.930 . S
C334 C335 1.355 . S
C334 C336 1.415 . S
C335 C334 1.355 . S
C335 C337 1.419 . S
C336 C334 1.415 . S
C336 C341 1.425 . S
C336 C343 1.409 . S
C337 H329 0.930 . S
C337 C335 1.419 . S
C337 C338 1.362 . S
C338 H330 0.930 . S
C338 C337 1.362 . S
C338 C341 1.409 . S
C339 H331 0.930 . S
C339 C340 1.355 . S
C339 C341 1.415 . S
C340 C339 1.355 . S
C340 C342 1.419 . S
C341 C336 1.425 . S
C341 C338 1.409 . S
C341 C339 1.415 . S
C342 H332 0.930 . S
C342 C340 1.419 . S
C342 C343 1.362 . S
C343 H333 0.930 . S
C343 C336 1.409 . S
C343 C342 1.362 . S
H344 C350 0.930 . S
H345 C353 0.930 . S
H346 C354 0.930 . S
H347 C355 0.930 . S
H348 C358 0.930 . S
H349 C359 0.930 . S
C350 H344 0.930 . S
C350 C351 1.355 . S
C350 C352 1.415 . S
C351 C350 1.355 . S
C351 C353 1.419 . S
C352 C350 1.415 . S
C352 C357 1.425 . S
C352 C359 1.409 . S
C353 H345 0.930 . S
C353 C351 1.419 . S
C353 C354 1.362 . S
C354 H346 0.930 . S
C354 C353 1.362 . S
C354 C357 1.409 . S
C355 H347 0.930 . S
C355 C356 1.355 . S
C355 C357 1.415 . S
C356 C355 1.355 . S
C356 C358 1.419 . S
C357 C352 1.425 . S
C357 C354 1.409 . S
C357 C355 1.415 . S
C358 H348 0.930 . S
C358 C356 1.419 . S
C358 C359 1.362 . S
C359 H349 0.930 . S
C359 C352 1.409 . S
C359 C358 1.362 . S
H360 C366 0.930 . S
H361 C369 0.930 . S
H362 C370 0.930 . S
H363 C371 0.930 . S
H364 C374 0.930 . S
H365 C375 0.930 . S
C366 H360 0.930 . S
C366 C367 1.355 . S
C366 C368 1.415 . S
C367 C366 1.355 . S
C367 C369 1.419 . S
C368 C366 1.415 . S
C368 C373 1.425 . S
C368 C375 1.409 . S
C369 H361 0.930 . S
C369 C367 1.419 . S
C369 C370 1.362 . S
C370 H362 0.930 . S
C370 C369 1.362 . S
C370 C373 1.409 . S
C371 H363 0.930 . S
C371 C372 1.355 . S
C371 C373 1.415 . S
C372 C371 1.355 . S
C372 C374 1.419 . S
C373 C368 1.425 . S
C373 C370 1.409 . S
C373 C371 1.415 . S
C374 H364 0.930 . S
C374 C372 1.419 . S
C374 C375 1.362 . S
C375 H365 0.930 . S
C375 C368 1.409 . S
C375 C374 1.362 . S
H376 C382 0.930 . S
H377 C385 0.930 . S
H378 C386 0.930 . S
H379 C387 0.930 . S
H380 C390 0.930 . S
H381 C391 0.930 . S
C382 H376 0.930 . S
C382 C383 1.355 . S
C382 C384 1.415 . S
C383 C382 1.355 . S
C383 C385 1.419 . S
C384 C382 1.415 . S
C384 C389 1.425 . S
C384 C391 1.409 . S
C385 H377 0.930 . S
C385 C383 1.419 . S
C385 C386 1.362 . S
C386 H378 0.930 . S
C386 C385 1.362 . S
C386 C389 1.409 . S
C387 H379 0.930 . S
C387 C388 1.355 . S
C387 C389 1.415 . S
C388 C387 1.355 . S
C388 C390 1.419 . S
C389 C384 1.425 . S
C389 C386 1.409 . S
C389 C387 1.415 . S
C390 H380 0.930 . S
C390 C388 1.419 . S
C390 C391 1.362 . S
C391 H381 0.930 . S
C391 C384 1.409 . S
C391 C390 1.362 . S
H392 C398 0.930 . S
H393 C401 0.930 . S
H394 C402 0.930 . S
H395 C403 0.930 . S
H396 C406 0.930 . S
H397 C407 0.930 . S
C398 H392 0.930 . S
C398 C399 1.355 . S
C398 C400 1.415 . S
C399 C398 1.355 . S
C399 C401 1.419 1_655 S
C400 C398 1.415 . S
C400 C405 1.425 1_654 S
C400 C407 1.409 1_554 S
C401 H393 0.930 . S
C401 C399 1.419 1_455 S
C401 C402 1.362 . S
C402 H394 0.930 . S
C402 C401 1.362 . S
C402 C405 1.409 1_554 S
C403 H395 0.930 . S
C403 C404 1.355 . S
C403 C405 1.415 . S
C404 C403 1.355 . S
C404 C406 1.419 1_455 S
C405 C400 1.425 1_456 S
C405 C402 1.409 1_556 S
C405 C403 1.415 . S
C406 H396 0.930 . S
C406 C404 1.419 1_655 S
C406 C407 1.362 . S
C407 H397 0.930 . S
C407 C400 1.409 1_556 S
C407 C406 1.362 . S
H408 C414 0.930 . S
H409 C417 0.930 . S
H410 C418 0.930 . S
H411 C419 0.930 . S
H412 C422 0.930 . S
H413 C423 0.930 . S
C414 H408 0.930 . S
C414 C415 1.355 1_565 S
C414 C416 1.415 . S
C415 C414 1.355 1_545 S
C415 C417 1.419 . S
C416 C414 1.415 . S
C416 C421 1.425 1_565 S
C416 C423 1.409 . S
C417 H409 0.930 . S
C417 C415 1.419 . S
C417 C418 1.362 . S
C418 H410 0.930 . S
C418 C417 1.362 . S
C418 C421 1.409 . S
C419 H411 0.930 . S
C419 C420 1.355 1_545 S
C419 C421 1.415 . S
C420 C419 1.355 1_565 S
C420 C422 1.419 . S
C421 C416 1.425 1_545 S
C421 C418 1.409 . S
C421 C419 1.415 . S
C422 H412 0.930 . S
C422 C420 1.419 . S
C422 C423 1.362 . S
C423 H413 0.930 . S
C423 C416 1.409 . S
C423 C422 1.362 . S
H424 C430 0.930 . S
H425 C433 0.930 . S
H426 C434 0.930 . S
H427 C435 0.930 . S
H428 C438 0.930 . S
H429 C439 0.930 . S
C430 H424 0.930 . S
C430 C431 1.355 . S
C430 C432 1.415 . S
C431 C430 1.355 . S
C431 C433 1.419 1_455 S
C432 C430 1.415 . S
C432 C437 1.425 1_455 S
C432 C439 1.409 . S
C433 H425 0.930 . S
C433 C431 1.419 1_655 S
C433 C434 1.362 . S
C434 H426 0.930 . S
C434 C433 1.362 . S
C434 C437 1.409 . S
C435 H427 0.930 . S
C435 C436 1.355 . S
C435 C437 1.415 . S
C436 C435 1.355 . S
C436 C438 1.419 1_655 S
C437 C432 1.425 1_655 S
C437 C434 1.409 . S
C437 C435 1.415 . S
C438 H428 0.930 . S
C438 C436 1.419 1_455 S
C438 C439 1.362 . S
C439 H429 0.930 . S
C439 C432 1.409 . S
C439 C438 1.362 . S
H440 C446 0.930 . S
H441 C449 0.930 . S
H442 C450 0.930 1_545 S
H443 C451 0.930 . S
H444 C454 0.930 . S
H445 C455 0.930 1_565 S
C446 H440 0.930 . S
C446 C447 1.355 . S
C446 C448 1.415 . S
C447 C446 1.355 . S
C447 C449 1.419 . S
C448 C446 1.415 . S
C448 C453 1.425 1_565 S
C448 C455 1.408 1_565 S
C449 H441 0.930 . S
C449 C447 1.419 . S
C449 C450 1.364 . S
C450 H442 0.930 1_565 S
C450 C449 1.364 . S
C450 C453 1.408 1_565 S
C451 H443 0.930 . S
C451 C452 1.355 . S
C451 C453 1.415 . S
C452 C451 1.355 . S
C452 C454 1.419 . S
C453 C448 1.425 1_545 S
C453 C450 1.408 1_545 S
C453 C451 1.415 . S
C454 H444 0.930 . S
C454 C452 1.419 . S
C454 C455 1.364 . S
C455 H445 0.930 1_545 S
C455 C448 1.408 1_545 S
C455 C454 1.364 . S
H456 C462 0.930 . S
H457 C465 0.930 . S
H458 C466 0.930 . S
H459 C467 0.930 . S
H460 C470 0.930 1_565 S
H461 C471 0.930 . S
C462 H456 0.930 . S
C462 C463 1.355 . S
C462 C464 1.415 . S
C463 C462 1.355 . S
C463 C465 1.419 . S
C464 C462 1.415 . S
C464 C469 1.425 . S
C464 C471 1.409 . S
C465 H457 0.930 . S
C465 C463 1.419 . S
C465 C466 1.362 . S
C466 H458 0.930 . S
C466 C465 1.362 . S
C466 C469 1.409 . S
C467 H459 0.930 . S
C467 C468 1.355 . S
C467 C469 1.415 . S
C468 C467 1.355 . S
C468 C470 1.419 . S
C469 C464 1.425 . S
C469 C466 1.409 . S
C469 C467 1.415 . S
C470 H460 0.930 1_545 S
C470 C468 1.419 . S
C470 C471 1.362 . S
C471 H461 0.930 . S
C471 C464 1.409 . S
C471 C470 1.362 . S
H472 C478 0.930 . S
H473 C481 0.930 . S
H474 C482 0.930 . S
H475 C483 0.930 . S
H476 C486 0.930 . S
H477 C487 0.930 . S
C478 H472 0.930 . S
C478 C479 1.355 . S
C478 C480 1.415 . S
C479 C478 1.355 . S
C479 C481 1.419 . S
C480 C478 1.415 . S
C480 C485 1.425 . S
C480 C487 1.409 . S
C481 H473 0.930 . S
C481 C479 1.419 . S
C481 C482 1.362 . S
C482 H474 0.930 . S
C482 C481 1.362 . S
C482 C485 1.409 . S
C483 H475 0.930 . S
C483 C484 1.355 . S
C483 C485 1.415 . S
C484 C483 1.355 . S
C484 C486 1.419 . S
C485 C480 1.425 . S
C485 C482 1.409 . S
C485 C483 1.415 . S
C486 H476 0.930 . S
C486 C484 1.419 . S
C486 C487 1.362 . S
C487 H477 0.930 . S
C487 C480 1.409 . S
C487 C486 1.362 . S
H488 C494 0.930 . S
H489 C497 0.930 1_545 S
H490 C498 0.930 . S
H491 C499 0.930 . S
H492 C502 0.930 . S
H493 C503 0.930 . S
C494 H488 0.930 . S
C494 C495 1.355 . S
C494 C496 1.415 . S
C495 C494 1.355 . S
C495 C497 1.419 . S
C496 C494 1.415 . S
C496 C501 1.425 . S
C496 C503 1.409 . S
C497 H489 0.930 1_565 S
C497 C495 1.419 . S
C497 C498 1.362 . S
C498 H490 0.930 . S
C498 C497 1.362 . S
C498 C501 1.409 . S
C499 H491 0.930 . S
C499 C500 1.355 . S
C499 C501 1.415 . S
C500 C499 1.355 . S
C500 C502 1.419 . S
C501 C496 1.425 . S
C501 C498 1.409 . S
C501 C499 1.415 . S
C502 H492 0.930 . S
C502 C500 1.419 . S
C502 C503 1.362 . S
C503 H493 0.930 . S
C503 C496 1.409 . S
C503 C502 1.362 . S
H504 C510 0.930 . S
H505 C513 0.930 . S
H506 C514 0.930 . S
H507 C515 0.930 . S
H508 C518 0.930 . S
H509 C519 0.930 . S
C510 H504 0.930 . S
C510 C511 1.355 . S
C510 C512 1.415 . S
C511 C510 1.355 . S
C511 C513 1.419 . S
C512 C510 1.415 . S
C512 C517 1.425 . S
C512 C519 1.409 . S
C513 H505 0.930 . S
C513 C511 1.419 . S
C513 C514 1.362 . S
C514 H506 0.930 . S
C514 C513 1.362 . S
C514 C517 1.409 . S
C515 H507 0.930 . S
C515 C516 1.355 . S
C515 C517 1.415 . S
C516 C515 1.355 . S
C516 C518 1.419 . S
C517 C512 1.425 . S
C517 C514 1.409 . S
C517 C515 1.415 . S
C518 H508 0.930 . S
C518 C516 1.419 . S
C518 C519 1.362 . S
C519 H509 0.930 . S
C519 C512 1.409 . S
C519 C518 1.362 . S
H520 C526 0.930 . S
H521 C529 0.930 . S
H522 C530 0.930 . S
H523 C531 0.930 . S
H524 C534 0.930 . S
H525 C535 0.930 . S
C526 H520 0.930 . S
C526 C527 1.355 . S
C526 C528 1.415 . S
C527 C526 1.355 . S
C527 C529 1.419 . S
C528 C526 1.415 . S
C528 C533 1.425 . S
C528 C535 1.409 . S
C529 H521 0.930 . S
C529 C527 1.419 . S
C529 C530 1.362 . S
C530 H522 0.930 . S
C530 C529 1.362 . S
C530 C533 1.409 . S
C531 H523 0.930 . S
C531 C532 1.355 . S
C531 C533 1.415 . S
C532 C531 1.355 . S
C532 C534 1.419 . S
C533 C528 1.425 . S
C533 C530 1.409 . S
C533 C531 1.415 . S
C534 H524 0.930 . S
C534 C532 1.419 . S
C534 C535 1.362 . S
C535 H525 0.930 . S
C535 C528 1.409 . S
C535 C534 1.362 . S
H536 C542 0.930 . S
H537 C545 0.930 . S
H538 C546 0.930 . S
H539 C547 0.930 . S
H540 C550 0.930 . S
H541 C551 0.930 . S
C542 H536 0.930 . S
C542 C543 1.355 . S
C542 C544 1.415 . S
C543 C542 1.355 . S
C543 C545 1.419 . S
C544 C542 1.415 . S
C544 C549 1.425 . S
C544 C551 1.409 . S
C545 H537 0.930 . S
C545 C543 1.419 . S
C545 C546 1.362 . S
C546 H538 0.930 . S
C546 C545 1.362 . S
C546 C549 1.409 . S
C547 H539 0.930 . S
C547 C548 1.355 . S
C547 C549 1.415 . S
C548 C547 1.355 . S
C548 C550 1.419 . S
C549 C544 1.425 . S
C549 C546 1.409 . S
C549 C547 1.415 . S
C550 H540 0.930 . S
C550 C548 1.419 . S
C550 C551 1.362 . S
C551 H541 0.930 . S
C551 C544 1.409 . S
C551 C550 1.362 . S
H552 C558 0.930 . S
H553 C561 0.930 . S
H554 C562 0.930 . S
H555 C563 0.930 . S
H556 C566 0.930 . S
H557 C567 0.930 . S
C558 H552 0.930 . S
C558 C559 1.355 . S
C558 C560 1.415 . S
C559 C558 1.355 . S
C559 C561 1.419 . S
C560 C558 1.415 . S
C560 C565 1.425 . S
C560 C567 1.409 . S
C561 H553 0.930 . S
C561 C559 1.419 . S
C561 C562 1.362 . S
C562 H554 0.930 . S
C562 C561 1.362 . S
C562 C565 1.409 . S
C563 H555 0.930 . S
C563 C564 1.355 . S
C563 C565 1.415 . S
C564 C563 1.355 . S
C564 C566 1.419 . S
C565 C560 1.425 . S
C565 C562 1.409 . S
C565 C563 1.415 . S
C566 H556 0.930 . S
C566 C564 1.419 . S
C566 C567 1.362 . S
C567 H557 0.930 . S
C567 C560 1.409 . S
C567 C566 1.362 . S
H568 C574 0.930 . S
H569 C577 0.930 . S
H570 C578 0.930 . S
H571 C579 0.930 . S
H572 C582 0.930 . S
H573 C583 0.930 . S
C574 H568 0.930 . S
C574 C575 1.355 . S
C574 C576 1.415 . S
C575 C574 1.355 . S
C575 C577 1.419 . S
C576 C574 1.415 . S
C576 C581 1.425 . S
C576 C583 1.409 . S
C577 H569 0.930 . S
C577 C575 1.419 . S
C577 C578 1.362 . S
C578 H570 0.930 . S
C578 C577 1.362 . S
C578 C581 1.409 . S
C579 H571 0.930 . S
C579 C580 1.355 . S
C579 C581 1.415 . S
C580 C579 1.355 . S
C580 C582 1.419 . S
C581 C576 1.425 . S
C581 C578 1.409 . S
C581 C579 1.415 . S
C582 H572 0.930 . S
C582 C580 1.419 . S
C582 C583 1.362 . S
C583 H573 0.930 . S
C583 C576 1.409 . S
C583 C582 1.362 . S
C271 C149 1.435 . S
C276 C17 1.461 . S
C287 C50 1.451 . S
C292 C182 1.423 . S
C303 C83 1.444 . S
C308 C215 1.459 . S
C319 C116 1.456 . S
C324 C248 1.449 . S
C335 N179 0.800 . S
C340 N14 0.751 . S
C351 N47 0.838 . S
C356 N212 0.857 . S
C367 N245 0.855 . S
C372 N80 0.845 . S
C383 N113 0.852 . S
C388 N146 0.811 . S
C399 N5 1.205 . S
C404 N203 1.174 . S
C415 N236 1.214 . S
C420 N38 1.207 . S
C431 N71 1.171 . S
C436 N137 1.220 . S
C447 N170 1.178 . S
C452 N104 1.226 . S
C463 C28 1.941 . S
C468 C107 1.934 1_554 S
C479 C8 1.923 . S
C484 C61 1.921 . S
C495 C41 1.924 . S
C500 C94 1.926 . S
C511 C74 1.946 . S
C516 C127 1.920 . S
C527 C160 1.909 . S
C532 C173 1.929 . S
C543 C193 1.909 . S
C548 C206 1.930 . S
C559 C226 1.910 . S
C564 C239 1.926 1_556 S
C575 C140 1.938 . S
C580 C259 1.911 . S
