# Generated by pormake.
# Topology noo, (5)-cn, num edge types: 1
# Building blocks:
#     Node 0, Type 0, BuildingBlock: XOMCOT_clean_sbu_1, # of connection points: 5
#     Node 1, Type 0, BuildingBlock: XOMCOT_clean_sbu_1, # of connection points: 5
#     Node 2, Type 0, BuildingBlock: XOMCOT_clean_sbu_1, # of connection points: 5
#     Node 3, Type 0, BuildingBlock: XOMCOT_clean_sbu_1, # of connection points: 5
#     Node 4, Type 0, BuildingBlock: XOMCOT_clean_sbu_1, # of connection points: 5
#     Node 5, Type 0, BuildingBlock: XOMCOT_clean_sbu_1, # of connection points: 5
#     Node 6, Type 0, BuildingBlock: XOMCOT_clean_sbu_1, # of connection points: 5
#     Node 7, Type 0, BuildingBlock: XOMCOT_clean_sbu_1, # of connection points: 5
#     Edge 8, Type (0, 0), BuildingBlock: UVAHIK_clean_linker_0, # of connection points: 2
#     Edge 9, Type (0, 0), BuildingBlock: UVAHIK_clean_linker_0, # of connection points: 2
#     Edge 10, Type (0, 0), BuildingBlock: UVAHIK_clean_linker_0, # of connection points: 2
#     Edge 11, Type (0, 0), BuildingBlock: UVAHIK_clean_linker_0, # of connection points: 2
#     Edge 12, Type (0, 0), BuildingBlock: UVAHIK_clean_linker_0, # of connection points: 2
#     Edge 13, Type (0, 0), BuildingBlock: UVAHIK_clean_linker_0, # of connection points: 2
#     Edge 14, Type (0, 0), BuildingBlock: UVAHIK_clean_linker_0, # of connection points: 2
#     Edge 15, Type (0, 0), BuildingBlock: UVAHIK_clean_linker_0, # of connection points: 2
#     Edge 16, Type (0, 0), BuildingBlock: UVAHIK_clean_linker_0, # of connection points: 2
#     Edge 17, Type (0, 0), BuildingBlock: UVAHIK_clean_linker_0, # of connection points: 2
#     Edge 18, Type (0, 0), BuildingBlock: UVAHIK_clean_linker_0, # of connection points: 2
#     Edge 19, Type (0, 0), BuildingBlock: UVAHIK_clean_linker_0, # of connection points: 2
#     Edge 20, Type (0, 0), BuildingBlock: UVAHIK_clean_linker_0, # of connection points: 2
#     Edge 21, Type (0, 0), BuildingBlock: UVAHIK_clean_linker_0, # of connection points: 2
#     Edge 22, Type (0, 0), BuildingBlock: UVAHIK_clean_linker_0, # of connection points: 2
#     Edge 23, Type (0, 0), BuildingBlock: UVAHIK_clean_linker_0, # of connection points: 2
#     Edge 24, Type (0, 0), BuildingBlock: UVAHIK_clean_linker_0, # of connection points: 2
#     Edge 25, Type (0, 0), BuildingBlock: UVAHIK_clean_linker_0, # of connection points: 2
#     Edge 26, Type (0, 0), BuildingBlock: UVAHIK_clean_linker_0, # of connection points: 2
#     Edge 27, Type (0, 0), BuildingBlock: UVAHIK_clean_linker_0, # of connection points: 2
# Relax obj value: 0.065
# Max RMSD: 0.101
# Mean RMSD: 0.101
data_MOF--net-noo--node1-XOMCOT_clean_sbu_1--edge1-UVAHIK_clean_linker_0
_symmetry_space_group_name_H-M    P1
_symmetry_Int_Tables_number       1
_symmetry_cell_setting            triclinic
loop_
_symmetry_equiv_pos_as_xyz
'x, y, z'
_cell_length_a     51.689921
_cell_length_b     51.74525
_cell_length_c     34.245116
_cell_angle_alpha  89.988144
_cell_angle_beta   90.008722
_cell_angle_gamma 89.910892
loop_
_atom_site_label
_atom_site_type_symbol
_atom_site_fract_x
_atom_site_fract_y
_atom_site_fract_z
_atom_type_partial_charge
C0 C 0.42362 0.24542 0.97522 0.0
C1 C 0.41126 0.26863 0.96958 0.0
N2 N 0.39275 0.27114 0.99706 0.0
N3 N 0.41305 0.23332 1.00616 0.0
C4 C 0.39394 0.24922 1.01846 0.0
H5 H 0.44008 0.23832 0.95894 0.0
Co6 Co 0.42636 0.20288 0.02715 0.0
C7 C 0.40595 0.21354 0.10969 0.0
O8 O 0.42774 0.22416 0.1208 0.0
N9 N 0.43967 0.17159 0.04776 0.0
C10 C 0.45739 0.1431 0.08846 0.0
C11 C 0.44625 0.167 0.08533 0.0
C12 C 0.44712 0.14987 0.02862 0.0
N13 N 0.45814 0.13237 0.05275 0.0
O14 O 0.40002 0.1841 0.99919 0.0
H15 H 0.44455 0.18047 0.10904 0.0
H16 H 0.44577 0.14732 0.99739 0.0
O17 O 0.40339 0.2054 0.07441 0.0
C18 C 0.40899 0.17969 0.96503 0.0
O19 O 0.43286 0.18668 0.95724 0.0
N20 N 0.45452 0.22197 0.049 0.0
C21 C 0.49931 0.25166 0.0603 0.0
C22 C 0.47477 0.2619 0.06842 0.0
C23 C 0.45268 0.24698 0.06185 0.0
C24 C 0.47838 0.21192 0.04076 0.0
C25 C 0.50091 0.22615 0.04689 0.0
H26 H 0.43404 0.25591 0.06634 0.0
H27 H 0.4802 0.19331 0.0268 0.0
H28 H 0.38236 0.24569 0.04421 0.0
H29 H 0.41607 0.28289 0.94764 0.0
H30 H 0.46488 0.13451 0.11499 0.0
H31 H 0.47255 0.28161 0.07855 0.0
H32 H 0.5193 0.21773 0.03863 0.0
C33 C 0.75721 0.4292 0.97787 0.0
C34 C 0.73316 0.41828 0.97383 0.0
N35 N 0.73089 0.39906 1.00019 0.0
N36 N 0.77009 0.417 1.0067 0.0
C37 C 0.75374 0.39846 1.01939 0.0
H38 H 0.76458 0.44556 0.9617 0.0
Co39 Co 0.80272 0.42683 0.02438 0.0
C40 C 0.79199 0.40777 0.10771 0.0
O41 O 0.78276 0.43001 0.11957 0.0
N42 N 0.83598 0.43618 0.04138 0.0
C43 C 0.8698 0.44592 0.07868 0.0
C44 C 0.84394 0.44008 0.07851 0.0
C45 C 0.85734 0.4404 1.01941 0.0
N46 N 0.87814 0.44614 0.04153 0.0
O47 O 0.8173 0.39811 0.99608 0.0
H48 H 0.83181 0.43938 0.10405 0.0
H49 H 0.85776 0.43922 0.98789 0.0
O50 O 0.79961 0.40491 0.07227 0.0
C51 C 0.81972 0.40464 0.96029 0.0
O52 O 0.81356 0.42828 0.94988 0.0
N53 N 0.78798 0.4573 0.04725 0.0
C54 C 0.76355 0.50537 0.05735 0.0
C55 C 0.75072 0.48235 0.06671 0.0
C56 C 0.76308 0.45859 0.06093 0.0
C57 C 0.80077 0.47973 0.03877 0.0
C58 C 0.78919 0.50381 0.04438 0.0
H59 H 0.75202 0.44121 0.06581 0.0
H60 H 0.81947 0.47934 0.02483 0.0
H61 H 0.75799 0.38562 0.04347 0.0
H62 H 0.71837 0.42433 0.9534 0.0
H63 H 0.88149 0.4503 0.10406 0.0
H64 H 0.73069 0.48252 0.07598 0.0
H65 H 0.7999 0.52104 0.03666 0.0
C66 C 0.57678 0.75701 0.9768 0.0
C67 C 0.58897 0.7335 0.9728 0.0
N68 N 0.60861 0.73238 0.99867 0.0
N69 N 0.58857 0.77062 1.00522 0.0
C70 C 0.60812 0.7553 1.01756 0.0
H71 H 0.5599 0.76349 0.9609 0.0
Co72 Co 0.5779 0.8028 0.02385 0.0
C73 C 0.59805 0.7919 0.10629 0.0
O74 O 0.5758 0.78243 0.11763 0.0
N75 N 0.56787 0.83575 0.04257 0.0
C76 C 0.55662 0.86751 0.08298 0.0
C77 C 0.56274 0.84184 0.08018 0.0
C78 C 0.56411 0.8582 0.02291 0.0
N79 N 0.5575 0.87777 0.047 0.0
O80 O 0.60536 0.81845 0.99369 0.0
H81 H 0.56253 0.82848 0.10425 0.0
H82 H 0.56617 0.86035 0.99169 0.0
O83 O 0.60092 0.79983 0.07098 0.0
C84 C 0.59528 0.82191 0.95994 0.0
O85 O 0.57083 0.81567 0.95519 0.0
N86 N 0.54819 0.78702 0.04746 0.0
C87 C 0.5005 0.76251 0.06057 0.0
C88 C 0.52385 0.74956 0.06782 0.0
C89 C 0.54741 0.76194 0.06038 0.0
C90 C 0.52543 0.79967 0.04024 0.0
C91 C 0.50159 0.78811 0.04748 0.0
H92 H 0.56501 0.75092 0.06395 0.0
H93 H 0.52531 0.81837 0.02632 0.0
H94 H 0.62102 0.76034 0.04119 0.0
H95 H 0.58352 0.71832 0.95271 0.0
H96 H 0.55116 0.87773 0.10932 0.0
H97 H 0.52398 0.72952 0.07696 0.0
H98 H 0.48409 0.79885 0.04113 0.0
C99 C 0.24812 0.58183 0.98191 0.0
C100 C 0.27141 0.59449 0.98069 0.0
N101 N 0.27146 0.61279 1.0087 0.0
N102 N 0.23341 0.59204 1.01051 0.0
C103 C 0.24799 0.61117 0.02597 0.0
H104 H 0.24266 0.56544 0.96417 0.0
Co105 Co 0.20139 0.57849 0.02541 0.0
C106 C 0.20665 0.59512 0.11072 0.0
O107 O 0.2156 0.57232 0.12049 0.0
N108 N 0.16868 0.56506 0.03973 0.0
C109 C 0.13762 0.5457 0.07381 0.0
C110 C 0.16129 0.55733 0.07576 0.0
C111 C 0.14873 0.55798 1.0163 0.0
N112 N 0.12979 0.54596 0.03646 0.0
O113 O 0.18466 0.60591 0.99628 0.0
H114 H 0.17278 0.55826 0.1018 0.0
H115 H 0.14871 0.56006 0.98489 0.0
O116 O 0.20101 0.59986 0.07481 0.0
C117 C 0.18488 0.59806 0.96083 0.0
O118 O 0.19312 0.57445 0.95392 0.0
N119 N 0.21873 0.54926 0.04787 0.0
C120 C 0.24718 0.50367 0.05991 0.0
C121 C 0.25731 0.52773 0.07076 0.0
C122 C 0.24302 0.55025 0.0639 0.0
C123 C 0.20886 0.52584 0.03694 0.0
C124 C 0.22241 0.50292 0.04345 0.0
H125 H 0.25187 0.56856 0.07088 0.0
H126 H 0.19109 0.52469 1.02053 0.0
H127 H 0.24216 0.6226 0.0509 0.0
H128 H 0.28728 0.5901 0.96118 0.0
H129 H 0.12733 0.53678 0.09783 0.0
H130 H 0.27649 0.52926 0.08326 0.0
H131 H 0.21423 0.48492 0.03309 0.0
C132 C 0.93069 0.25811 0.57434 0.0
C133 C 0.91864 0.23477 0.58006 0.0
N134 N 0.89876 0.23296 0.55471 0.0
N135 N 0.91857 0.27099 0.54544 0.0
C136 C 0.8989 0.25539 0.53447 0.0
H137 H 0.94785 0.26486 0.58921 0.0
Co138 Co 0.9302 0.30226 0.52497 0.0
C139 C 0.90605 0.29201 0.44458 0.0
O140 O 0.92657 0.28026 0.43085 0.0
N141 N 0.94148 0.33426 0.50464 0.0
C142 C 0.95418 0.36456 0.46276 0.0
C143 C 0.94677 0.33929 0.46675 0.0
C144 C 0.94624 0.35689 0.52319 0.0
N145 N 0.9538 0.37565 0.49826 0.0
O146 O 0.90446 0.31968 0.55625 0.0
H147 H 0.94609 0.32536 0.44338 0.0
H148 H 0.94415 0.35977 0.55426 0.0
O149 O 0.90567 0.3004 0.47987 0.0
C150 C 0.91504 0.32327 0.58956 0.0
O151 O 0.93943 0.31653 0.59376 0.0
N152 N 0.95811 0.28449 0.49974 0.0
C153 C 0.00349 0.25581 0.48672 0.0
C154 C 0.97908 0.24503 0.47945 0.0
C155 C 0.95671 0.25947 0.48678 0.0
C156 C 0.98187 0.29521 0.50647 0.0
C157 C 0.00465 0.28148 0.49945 0.0
H158 H 0.93828 0.24993 0.48369 0.0
H159 H 0.9835 0.31387 0.52033 0.0
H160 H 0.88591 0.25967 0.51057 0.0
H161 H 0.92447 0.22005 0.60072 0.0
H162 H 0.96008 0.37388 0.4359 0.0
H163 H 0.97721 0.22517 0.46989 0.0
H164 H 0.02297 0.29034 0.50691 0.0
C165 C 0.75319 0.92422 0.56798 0.0
C166 C 0.77689 0.91218 0.56876 0.0
N167 N 0.77696 0.89344 0.54145 0.0
N168 N 0.73841 0.91328 0.5401 0.0
C169 C 0.75325 0.89424 0.52487 0.0
H170 H 0.74747 0.94074 0.58531 0.0
Co171 Co 0.70605 0.92585 0.52499 0.0
C172 C 0.71261 0.91041 0.43919 0.0
O173 O 0.72023 0.93362 0.42913 0.0
N174 N 0.67298 0.93815 0.51033 0.0
C175 C 0.63999 0.95287 0.47494 0.0
C176 C 0.66569 0.94649 0.47456 0.0
C177 C 0.65126 0.94036 0.53231 0.0
N178 N 0.63098 0.94902 0.51119 0.0
O179 O 0.6902 0.8972 0.552 0.0
H180 H 0.67812 0.94855 0.44965 0.0
H181 H 0.65014 0.93546 0.56295 0.0
O182 O 0.70711 0.90546 0.47505 0.0
C183 C 0.68943 0.90284 0.58833 0.0
O184 O 0.69752 0.92571 0.59955 0.0
N185 N 0.72231 0.95593 0.50394 0.0
C186 C 0.74957 1.00235 0.49437 0.0
C187 C 0.76019 0.97881 0.48191 0.0
C188 C 0.74648 0.95584 0.48754 0.0
C189 C 0.71178 0.97882 0.51606 0.0
C190 C 0.72479 1.00218 0.5109 0.0
H191 H 0.75578 0.93787 0.47971 0.0
H192 H 0.69388 0.97905 0.53232 0.0
H193 H 0.74745 0.88226 0.50053 0.0
H194 H 0.79308 0.91729 0.58725 0.0
H195 H 0.62879 0.96019 0.45059 0.0
H196 H 0.77935 0.97798 0.46919 0.0
H197 H 0.71619 0.01973 0.52227 0.0
C198 C 0.06316 0.75623 0.55065 0.0
C199 C 0.07489 0.77941 0.55871 0.0
N200 N 0.10063 0.77654 0.554 0.0
N201 N 0.08128 0.73882 0.54009 0.0
C202 C 0.10398 0.75149 0.54385 0.0
H203 H 0.04259 0.75257 0.55137 0.0
Co204 Co 0.07465 0.70484 0.52426 0.0
C205 C 0.11303 0.72163 0.45857 0.0
O206 O 0.11198 0.74679 0.46335 0.0
N207 N 0.0677 0.67096 0.50856 0.0
C208 C 0.0586 0.63834 0.46885 0.0
C209 C 0.06796 0.66298 0.47101 0.0
C210 C 0.05801 0.65068 0.52881 0.0
N211 N 0.05213 0.63065 0.50507 0.0
O212 O 0.10042 0.69267 0.56089 0.0
H213 H 0.07318 0.6748 0.44621 0.0
H214 H 0.05383 0.65118 0.55976 0.0
O215 O 0.10001 0.70665 0.48093 0.0
C216 C 0.08925 0.69294 0.59424 0.0
O217 O 0.06468 0.69952 0.59544 0.0
N218 N 0.04715 0.71651 0.49278 0.0
C219 C 1.00135 0.74006 0.46822 0.0
C220 C 0.02509 0.74651 0.45086 0.0
C221 C 0.04787 0.7344 0.46349 0.0
C222 C 0.02404 0.70887 0.50805 0.0
C223 C 1.00093 0.72019 0.496 0.0
H224 H 0.0659 0.74092 0.45164 0.0
H225 H 0.02371 0.6953 0.53205 0.0
H226 H 0.12257 0.74262 0.53814 0.0
H227 H 0.065 0.79727 0.56559 0.0
H228 H 0.0559 0.6272 0.4424 0.0
H229 H 0.02623 0.76172 0.42919 0.0
H230 H 0.98317 0.71488 0.51073 0.0
C231 C 0.26219 0.08127 0.58082 0.0
C232 C 0.23896 0.09378 0.58567 0.0
N233 N 0.23638 0.11143 0.55696 0.0
N234 N 0.27426 0.09088 0.54914 0.0
C235 C 0.2583 0.10959 0.5356 0.0
H236 H 0.26936 0.06538 0.59827 0.0
Co237 Co 0.30493 0.07727 0.52895 0.0
C238 C 0.29323 0.09469 0.44532 0.0
O239 O 0.2831 0.07229 0.43619 0.0
N240 N 0.33648 0.06381 0.50911 0.0
C241 C 0.36515 0.04528 0.46949 0.0
C242 C 0.34124 0.05652 0.47188 0.0
C243 C 0.35818 0.05675 0.52877 0.0
N244 N 0.37576 0.04523 0.5053 0.0
O245 O 0.3234 0.10469 0.55482 0.0
H246 H 0.32785 0.05776 0.44798 0.0
H247 H 0.36061 0.05864 0.55996 0.0
O248 O 0.30175 0.09861 0.4801 0.0
C249 C 0.32785 0.09662 0.58947 0.0
O250 O 0.32107 0.07292 0.59862 0.0
N251 N 0.28616 0.04809 0.50939 0.0
C252 C 0.25698 0.00261 0.50283 0.0
C253 C 0.24607 0.02665 0.49366 0.0
C254 C 0.26084 0.04913 0.49756 0.0
C255 C 0.29683 0.02465 0.51856 0.0
C256 C 0.28287 1.00176 0.51461 0.0
H257 H 0.2515 0.06743 0.49204 0.0
H258 H 0.31576 0.02347 0.53171 0.0
H259 H 0.26184 0.12045 0.50916 0.0
H260 H 0.22477 0.08968 0.60806 0.0
H261 H 0.37381 0.03714 0.44345 0.0
H262 H 0.22601 0.02819 0.48479 0.0
H263 H 0.29178 0.98372 0.52341 0.0
C264 C 0.53569 0.91019 1.00525 0.0
C265 C 0.55149 0.90411 0.03737 0.0
C266 C 0.52638 0.93546 1.00023 0.0
C267 C 0.51171 0.99172 0.06144 0.0
H268 H 0.50516 0.03048 0.96497 0.0
C269 C 0.49098 0.09895 0.06511 0.0
C270 C 0.47004 0.10806 0.0429 0.0
C271 C 0.50106 0.07437 0.05877 0.0
C272 C 0.50667 0.01969 0.99198 0.0
H273 H 0.5719 0.91972 0.08715 0.0
H274 H 0.55634 0.96373 0.07806 0.0
H275 H 0.52351 0.98655 0.96378 0.0
H276 H 0.44425 0.09915 0.99488 0.0
H277 H 0.46207 0.05564 0.98367 0.0
H278 H 0.49531 0.02459 0.08982 0.0
C279 C 0.55033 0.94902 0.05746 0.0
C280 C 0.51716 0.99464 0.99133 0.0
C281 C 0.55934 0.92391 0.06263 0.0
C282 C 0.46035 0.09255 1.0125 0.0
C283 C 0.47052 0.06775 1.00608 0.0
C284 C 0.50143 0.01656 0.06209 0.0
C285 C 0.53292 0.9549 0.02719 0.0
C286 C 0.52032 0.98069 0.02629 0.0
C287 C 0.49048 0.05822 0.03001 0.0
C288 C 0.49932 0.03104 0.02759 0.0
H289 H 0.52937 0.89514 0.98548 0.0
H290 H 0.51303 0.93944 0.9766 0.0
H291 H 0.5131 0.98119 0.08871 0.0
H292 H 0.49941 0.11072 0.08791 0.0
H293 H 0.51686 0.06774 0.07703 0.0
C294 C 0.90854 0.46999 0.99918 0.0
C295 C 0.90397 0.45202 0.02911 0.0
C296 C 0.93373 0.47879 0.99186 0.0
C297 C 0.99508 0.4855 0.04558 0.0
H298 H 0.02525 0.5034 0.94545 0.0
C299 C 0.10117 0.50837 0.03637 0.0
C300 C 0.10725 0.53298 0.02192 0.0
C301 C 0.07707 0.49748 0.02918 0.0
C302 C 0.0169 0.49858 0.97352 0.0
H303 H 0.92184 0.42739 0.07235 0.0
H304 H 0.96577 0.44173 0.05874 0.0
H305 H 0.98126 0.48529 0.94819 0.0
H306 H 0.09394 0.5647 0.98601 0.0
H307 H 0.05104 0.54555 0.97345 0.0
H308 H 0.03047 0.49836 0.07098 0.0
C309 C 0.95004 0.44996 0.04191 0.0
C310 C 0.99179 0.48827 0.97515 0.0
C311 C 0.92497 0.44158 0.04959 0.0
C312 C 0.08955 0.54568 0.99737 0.0
C313 C 0.06515 0.53475 0.99024 0.0
C314 C 0.01999 0.49549 0.04391 0.0
C315 C 0.95465 0.46945 1.01413 0.0
C316 C 0.98082 0.4812 1.01126 0.0
C317 C 0.05841 0.51104 1.00754 0.0
C318 C 0.03135 0.50174 1.00794 0.0
H319 H 0.89249 0.4783 0.98315 0.0
H320 H 0.93661 0.49381 0.97028 0.0
H321 H 0.98696 0.4812 0.074 0.0
H322 H 0.11474 0.49809 0.05482 0.0
H323 H 0.07251 0.47897 0.04226 0.0
C324 C 0.97345 0.40836 0.54206 0.0
C325 C 0.9608 0.40193 0.50701 0.0
C326 C 0.98265 0.43353 0.54818 0.0
C327 C 0.00354 0.48948 0.49033 0.0
H328 H 0.99777 0.52928 0.58595 0.0
C329 C 0.02078 0.59699 0.48808 0.0
C330 C 0.03903 0.60695 0.51438 0.0
C331 C 0.01068 0.57234 0.49321 0.0
C332 C 0.99973 0.5182 0.55928 0.0
H333 H 0.94606 0.41715 0.45245 0.0
H334 H 0.96177 0.46082 0.46311 0.0
H335 H 0.98078 0.48488 0.58351 0.0
H336 H 0.05967 0.59978 0.56829 0.0
H337 H 0.04184 0.55598 0.57743 0.0
H338 H 0.022 0.52256 0.46575 0.0
C339 C 0.96533 0.44639 0.4854 0.0
C340 C 0.99004 0.49288 0.55786 0.0
C341 C 0.95631 0.42138 0.47926 0.0
C342 C 0.04566 0.59242 0.54761 0.0
C343 C 0.0355 0.56748 0.55278 0.0
C344 C 0.01306 0.51458 0.49171 0.0
C345 C 0.97927 0.4526 0.51935 0.0
C346 C 0.99129 0.47854 0.52297 0.0
C347 C 0.01862 0.55695 0.52477 0.0
C348 C 0.01069 0.52945 0.5258 0.0
H349 H 0.9772 0.39371 0.56391 0.0
H350 H 0.99332 0.43776 0.57464 0.0
H351 H 0.00552 0.47869 0.46338 0.0
H352 H 0.01484 0.60807 0.46278 0.0
H353 H 0.99721 0.56495 0.4717 0.0
C354 C 0.58466 0.94283 0.5008 0.0
C355 C 0.60475 0.95327 0.5232 0.0
C356 C 0.55924 0.95091 0.5065 0.0
C357 C 0.51405 0.98793 0.56923 0.0
H358 H 0.48169 1.00196 0.46922 0.0
C359 C 0.41602 0.04385 0.54476 0.0
C360 C 0.39989 0.03317 0.51591 0.0
C361 C 0.44073 0.03345 0.55151 0.0
C362 C 0.49032 0.99795 0.49743 0.0
H363 H 0.61421 0.97912 0.57062 0.0
H364 H 0.56937 0.99394 0.58036 0.0
H365 H 0.52509 0.98428 0.47115 0.0
H366 H 0.39594 1.00194 0.47422 0.0
H367 H 0.43864 0.98389 0.48591 0.0
H368 H 0.47885 1.00205 0.59523 0.0
C369 C 0.57327 0.97918 0.55873 0.0
C370 C 0.5152 0.98772 0.49855 0.0
C371 C 0.59885 0.97073 0.55328 0.0
C372 C 0.40823 0.01105 0.49577 0.0
C373 C 0.43267 1.00068 0.50255 0.0
C374 C 0.48893 0.99832 0.56808 0.0
C375 C 0.55339 0.97007 0.53425 0.0
C376 C 0.52722 0.98205 0.53436 0.0
C377 C 0.44953 0.0122 0.52955 0.0
C378 C 0.47667 0.00291 0.53206 0.0
H379 H 0.58889 0.9292 0.47765 0.0
H380 H 0.54428 0.94297 0.48789 0.0
H381 H 0.52288 0.9839 0.59726 0.0
H382 H 0.40998 0.06087 0.56076 0.0
H383 H 0.45334 0.04269 0.57255 0.0
C384 C 0.2891 0.48041 0.04877 0.0
C385 C 0.26322 0.47983 0.06137 0.0
C386 C 0.30327 0.45755 0.04505 0.0
C387 C 0.30588 0.38862 0.0729 0.0
H388 H 0.34356 0.38171 0.97555 0.0
C389 C 0.35336 0.29215 0.02348 0.0
C390 C 0.37763 0.29395 1.00517 0.0
C391 C 0.33899 0.31447 0.03173 0.0
C392 C 0.33343 0.3834 1.00312 0.0
H393 H 0.23241 0.45491 0.08192 0.0
H394 H 0.25722 0.41488 0.07525 0.0
H395 H 0.3202 0.42148 0.98935 0.0
H396 H 0.40619 0.32069 0.98248 0.0
H397 H 0.38141 0.35936 0.99698 0.0
H398 H 0.31932 0.35049 0.08672 0.0
C399 C 0.26649 0.43306 0.06827 0.0
C400 C 0.32004 0.40623 1.01102 0.0
C401 C 0.25224 0.45595 0.07183 0.0
C402 C 0.38731 0.31853 0.99569 0.0
C403 C 0.37307 0.34076 1.00407 0.0
C404 C 0.31944 0.36575 0.06507 0.0
C405 C 0.29196 0.43357 0.05393 0.0
C406 C 0.30623 0.40918 0.04607 0.0
C407 C 0.34866 0.33905 0.02198 0.0
C408 C 0.33351 0.36293 0.03015 0.0
H409 H 0.29808 0.49841 0.04008 0.0
H410 H 0.32299 0.45859 0.03444 0.0
H411 H 0.2955 0.39039 0.10025 0.0
H412 H 0.34535 0.27348 0.03095 0.0
H413 H 0.32014 0.31243 0.04517 0.0
C414 C 0.52205 0.29357 0.0472 0.0
C415 C 0.52287 0.26811 0.06149 0.0
C416 C 0.54469 0.30808 0.04377 0.0
C417 C 0.61332 0.31201 0.07452 0.0
H418 H 0.62076 0.34981 0.97738 0.0
C419 C 0.70985 0.35947 0.02571 0.0
C420 C 0.70801 0.38407 1.00842 0.0
C421 C 0.68753 0.34512 0.03376 0.0
C422 C 0.6189 0.33961 1.00486 0.0
H423 H 0.54804 0.23843 0.08522 0.0
H424 H 0.58768 0.26365 0.07863 0.0
H425 H 0.5812 0.32588 0.99005 0.0
H426 H 0.68113 0.41313 0.98729 0.0
H427 H 0.64246 0.38821 1.00114 0.0
H428 H 0.65121 0.32576 0.08914 0.0
C429 C 0.56946 0.27242 0.07026 0.0
C430 C 0.59618 0.32592 1.01216 0.0
C431 C 0.54678 0.25789 0.07372 0.0
C432 C 0.68336 0.39404 0.99974 0.0
C433 C 0.66113 0.37975 1.00777 0.0
C434 C 0.63612 0.32575 0.06719 0.0
C435 C 0.56874 0.29748 0.05443 0.0
C436 C 0.59302 0.31208 0.04715 0.0
C437 C 0.66292 0.35507 0.02468 0.0
C438 C 0.63909 0.33984 0.03235 0.0
H439 H 0.50406 0.30199 0.03711 0.0
H440 H 0.54341 0.32748 0.03206 0.0
H441 H 0.61142 0.30168 0.10187 0.0
H442 H 0.72853 0.35114 0.03247 0.0
H443 H 0.68958 0.32605 0.04644 0.0
C444 C 0.61691 0.68524 0.99855 0.0
C445 C 0.62513 0.71053 1.007 0.0
C446 C 0.63252 0.66401 1.00766 0.0
C447 C 0.70022 0.64565 0.02791 0.0
H448 H 0.66885 0.58258 0.06651 0.0
C449 C 0.75324 0.54787 0.02578 0.0
C450 C 0.74951 0.5305 0.05687 0.0
C451 C 0.73907 0.57079 0.02357 0.0
C452 C 0.67798 0.60013 0.05624 0.0
H453 H 0.65653 0.73319 0.03126 0.0
H454 H 0.68358 0.69614 0.04772 0.0
H455 H 0.64203 0.62071 0.05566 0.0
H456 H 0.72818 0.52396 0.11047 0.0
H457 H 0.70332 0.56416 0.1066 0.0
H458 H 0.73619 0.62513 0.02872 0.0
C459 C 0.66508 0.69277 0.03377 0.0
C460 C 0.66255 0.6219 0.04951 0.0
C461 C 0.64945 0.71402 0.02465 0.0
C462 C 0.73138 0.53682 0.08598 0.0
C463 C 0.71713 0.55982 0.08374 0.0
C464 C 0.71565 0.62389 0.03464 0.0
C465 C 0.65677 0.66749 0.02548 0.0
C466 C 0.67342 0.64482 0.03476 0.0
C467 C 0.72069 0.57698 0.05232 0.0
C468 C 0.70466 0.60075 0.04835 0.0
H469 H 0.59821 0.68173 0.98543 0.0
H470 H 0.62566 0.64485 1.00035 0.0
H471 H 0.70922 0.66291 1.01632 0.0
H472 H 0.76655 0.5434 1.00231 0.0
H473 H 0.74194 0.58327 0.99855 0.0
C474 C 0.28932 0.65233 0.03948 0.0
C475 C 0.29313 0.62859 1.02033 0.0
C476 C 0.31049 0.66757 0.05042 0.0
C477 C 0.38163 0.66461 0.06652 0.0
H478 H 0.37915 0.73803 0.04444 0.0
C479 C 0.46986 0.73127 0.09304 0.0
C480 C 0.47526 0.7488 0.06275 0.0
C481 C 0.44638 0.71777 0.09374 0.0
C482 C 0.38016 0.71755 0.05079 0.0
H483 H 0.32234 0.60196 0.9989 0.0
H484 H 0.35894 0.62865 1.01689 0.0
H485 H 0.34062 0.71176 0.03451 0.0
H486 H 0.46035 0.76546 1.00908 0.0
H487 H 0.41975 0.74207 1.01029 0.0
H488 H 0.42149 0.67016 0.08104 0.0
C489 C 0.33967 0.63546 0.02387 0.0
C490 C 0.35797 0.70254 0.04552 0.0
C491 C 0.31859 0.62031 1.01293 0.0
C492 C 0.45662 0.75261 0.03338 0.0
C493 C 0.43326 0.73917 0.03407 0.0
C494 C 0.40383 0.67961 0.07173 0.0
C495 C 0.33593 0.65932 0.04263 0.0
C496 C 0.3586 0.67578 0.05247 0.0
C497 C 0.42786 0.72149 0.06412 0.0
C498 C 0.40353 0.70616 0.06307 0.0
H499 H 0.26998 0.65932 0.0455 0.0
H500 H 0.30694 0.68578 0.06506 0.0
H501 H 0.38266 0.64412 0.07278 0.0
H502 H 0.48373 0.72804 0.11623 0.0
H503 H 0.44273 0.70444 0.11748 0.0
C504 C 0.75379 0.05049 0.48556 0.0
C505 C 0.76519 0.02647 0.49432 0.0
C506 C 0.76789 0.07341 0.4897 0.0
C507 C 0.82296 0.09953 0.54475 0.0
H508 H 0.82049 0.156 0.47038 0.0
C509 C 0.8924 0.18566 0.55573 0.0
C510 C 0.88287 0.21054 0.54762 0.0
C511 C 0.87736 0.16383 0.54837 0.0
C512 C 0.82111 0.14054 0.49168 0.0
H513 H 0.80055 0.00774 0.51358 0.0
H514 H 0.82517 0.04756 0.52013 0.0
H515 H 0.79581 0.11657 0.45774 0.0
H516 H 0.84993 0.23193 0.52544 0.0
H517 H 0.82344 0.1937 0.51286 0.0
H518 H 0.84799 0.12335 0.57889 0.0
C519 C 0.80526 0.04871 0.51041 0.0
C520 C 0.80703 0.11794 0.48437 0.0
C521 C 0.79123 0.02585 0.50613 0.0
C522 C 0.8579 0.21304 0.53175 0.0
C523 C 0.84275 0.19112 0.52447 0.0
C524 C 0.8369 0.12209 0.55212 0.0
C525 C 0.79362 0.07278 0.50295 0.0
C526 C 0.80805 0.09708 0.51065 0.0
C527 C 0.85231 0.16625 0.53282 0.0
C528 C 0.8364 0.14278 0.52551 0.0
H529 H 0.73382 0.0516 0.47613 0.0
H530 H 0.75836 0.09165 0.48383 0.0
H531 H 0.82368 0.08406 0.56603 0.0
H532 H 0.91175 0.18293 0.56706 0.0
H533 H 0.88559 0.14498 0.55434 0.0
C534 C 0.95318 0.74495 0.46036 0.0
C535 C 0.97789 0.75625 0.46234 0.0
C536 C 0.9309 0.76028 0.46265 0.0
C537 C 0.91033 0.8207 0.50735 0.0
H538 H 0.84733 0.81247 0.4472 0.0
C539 C 0.82389 0.88856 0.53098 0.0
C540 C 0.79885 0.87816 0.52931 0.0
C541 C 0.84525 0.87394 0.51939 0.0
C542 C 0.86467 0.81479 0.46459 0.0
H543 H 0.99851 0.79263 0.46632 0.0
H544 H 0.95969 0.81931 0.46999 0.0
H545 H 0.88554 0.78664 0.4309 0.0
H546 H 0.77647 0.84436 0.51387 0.0
H547 H 0.81394 0.81834 0.49461 0.0
H548 H 0.8896 0.84805 0.54193 0.0
C549 C 0.95757 0.79859 0.4669 0.0
C550 C 0.88657 0.80009 0.45507 0.0
C551 C 0.97981 0.78331 0.46431 0.0
C552 C 0.79558 0.85286 0.51533 0.0
C553 C 0.81705 0.83804 0.50413 0.0
C554 C 0.88845 0.83513 0.51712 0.0
C555 C 0.93291 0.78718 0.46733 0.0
C556 C 0.90968 0.80303 0.47624 0.0
C557 C 0.84221 0.84836 0.50628 0.0
C558 C 0.86534 0.83253 0.49577 0.0
H559 H 0.95111 0.72415 0.45862 0.0
H560 H 0.91216 0.75094 0.46295 0.0
H561 H 0.92766 0.82296 0.52481 0.0
H562 H 0.82697 0.90822 0.54071 0.0
H563 H 0.86419 0.88284 0.52048 0.0
C564 C 0.21674 0.97935 0.52319 0.0
C565 C 0.24092 0.97888 0.50445 0.0
C566 C 0.2028 0.95654 0.52878 0.0
C567 C 0.19468 0.89008 0.49363 0.0
H568 H 0.16691 0.87774 0.59717 0.0
C569 C 0.14236 0.79481 0.53135 0.0
C570 C 0.11961 0.79701 0.55369 0.0
C571 C 0.1591 0.81585 0.52722 0.0
C572 C 0.17428 0.88096 0.56797 0.0
H573 H 0.26903 0.9543 0.47564 0.0
H574 H 0.24444 0.91437 0.485 0.0
H575 H 0.19116 0.91717 0.5842 0.0
H576 H 0.0976 0.82277 0.59105 0.0
H577 H 0.12615 0.85952 0.58287 0.0
H578 H 0.17725 0.85428 0.47699 0.0
C579 C 0.23638 0.93241 0.49549 0.0
C580 C 0.1882 0.90356 0.56059 0.0
C581 C 0.25048 0.95521 0.49028 0.0
C582 C 0.11467 0.82044 0.57311 0.0
C583 C 0.13128 0.8415 0.56878 0.0
C584 C 0.18052 0.86757 0.5009 0.0
C585 C 0.21262 0.93279 0.51543 0.0
C586 C 0.19837 0.90846 0.52328 0.0
C587 C 0.15349 0.83965 0.5452 0.0
C588 C 0.16995 0.86281 0.53811 0.0
H589 H 0.20901 0.99722 0.53485 0.0
H590 H 0.1844 0.95744 0.54385 0.0
H591 H 0.20216 0.89344 0.46453 0.0
H592 H 0.14684 0.77718 0.51579 0.0
H593 H 0.17627 0.81356 0.50943 0.0
C594 C 0.05105 0.24985 0.47317 0.0
C595 C 0.02733 0.23964 0.48612 0.0
C596 C 0.07402 0.23578 0.4776 0.0
C597 C 0.10179 0.18522 0.54025 0.0
H598 H 0.15633 0.1818 0.46269 0.0
C599 C 0.18899 0.11759 0.55922 0.0
C600 C 0.21359 0.12649 0.54808 0.0
C601 C 0.16679 0.13175 0.5502 0.0
C602 C 0.14141 0.18285 0.48483 0.0
H603 H 0.00919 0.20624 0.51286 0.0
H604 H 0.04905 0.18162 0.51984 0.0
H605 H 0.11636 0.20527 0.44803 0.0
H606 H 0.23406 0.15737 0.51864 0.0
H607 H 0.19518 0.18238 0.50316 0.0
H608 H 0.1267 0.16314 0.57724 0.0
C609 C 0.04994 0.20063 0.50666 0.0
C610 C 0.11849 0.19623 0.47638 0.0
C611 C 0.02701 0.21462 0.50214 0.0
C612 C 0.2154 0.14991 0.52743 0.0
C613 C 0.19311 0.16419 0.51848 0.0
C614 C 0.12465 0.17199 0.54874 0.0
C615 C 0.07378 0.21126 0.49529 0.0
C616 C 0.09833 0.19734 0.50389 0.0
C617 C 0.16853 0.1553 0.52991 0.0
C618 C 0.14467 0.17039 0.52105 0.0
H619 H 0.05193 0.26899 0.46043 0.0
H620 H 0.09208 0.24454 0.46861 0.0
H621 H 0.0869 0.18623 0.56245 0.0
H622 H 0.18676 0.09934 0.57427 0.0
H623 H 0.14817 0.124 0.55868 0.0
C624 C 0.36799 0.18773 0.13545 0.0
C625 C 0.38701 0.20678 0.14084 0.0
C626 C 0.35348 0.17864 0.16737 0.0
C627 C 0.33871 0.19183 0.27357 0.0
H628 H 0.32704 0.11794 0.27673 0.0
C629 C 0.31713 0.13278 0.41595 0.0
C630 C 0.29868 0.11294 0.4127 0.0
C631 C 0.32484 0.14685 0.38274 0.0
C632 C 0.32991 0.13867 0.27621 0.0
H633 H 0.40448 0.23226 0.18372 0.0
H634 H 0.38002 0.21621 0.23867 0.0
H635 H 0.34489 0.13747 0.21806 0.0
H636 H 0.27267 0.09363 0.37235 0.0
H637 H 0.2861 0.11789 0.31519 0.0
H638 H 0.32456 0.19263 0.33256 0.0
C639 C 0.37583 0.20834 0.21008 0.0
C640 C 0.34002 0.14996 0.24234 0.0
C641 C 0.39012 0.21746 0.17835 0.0
C642 C 0.28719 0.10851 0.37602 0.0
C643 C 0.29496 0.12235 0.34305 0.0
C644 C 0.32888 0.18045 0.30767 0.0
C645 C 0.3577 0.18835 0.2054 0.0
C646 C 0.34479 0.1767 0.2405 0.0
C647 C 0.31436 0.14121 0.3457 0.0
C648 C 0.32444 0.15371 0.30945 0.0
H649 H 0.36507 0.17908 0.107 0.0
H650 H 0.33934 0.16361 0.16231 0.0
H651 H 0.3416 0.21254 0.27325 0.0
H652 H 0.32643 0.13666 0.44367 0.0
H653 H 0.33986 0.16128 0.38575 0.0
C654 C 0.78239 0.38605 0.17104 0.0
C655 C 0.79848 0.3885 0.13821 0.0
C656 C 0.79053 0.37219 0.20392 0.0
C657 C 0.84284 0.32819 0.24174 0.0
H658 H 0.82162 0.35682 0.34134 0.0
C659 C 0.87979 0.28313 0.38511 0.0
C660 C 0.88611 0.2999 0.41588 0.0
C661 C 0.86561 0.29192 0.35292 0.0
C662 C 0.82799 0.34863 0.31389 0.0
H663 H 0.83552 0.37777 0.11365 0.0
H664 H 0.85023 0.35422 0.17133 0.0
H665 H 0.80491 0.37528 0.28134 0.0
H666 H 0.88198 0.33893 0.4376 0.0
H667 H 0.85793 0.35468 0.38102 0.0
H668 H 0.86723 0.30268 0.27415 0.0
C669 C 0.83093 0.36234 0.17155 0.0
C670 C 0.81798 0.35898 0.27919 0.0
C671 C 0.82251 0.37582 0.13827 0.0
C672 C 0.87695 0.32544 0.41465 0.0
C673 C 0.86318 0.33444 0.38199 0.0
C674 C 0.85313 0.31809 0.27641 0.0
C675 C 0.81532 0.36089 0.20534 0.0
C676 C 0.82528 0.349 0.24247 0.0
C677 C 0.85792 0.31798 0.35005 0.0
C678 C 0.84595 0.32817 0.31312 0.0
H679 H 0.76373 0.39562 0.17177 0.0
H680 H 0.77752 0.37093 0.22861 0.0
H681 H 0.84879 0.31964 0.21433 0.0
H682 H 0.88664 0.26332 0.38531 0.0
H683 H 0.86133 0.27834 0.32978 0.0
C684 C 0.69147 0.8698 0.41298 0.0
C685 C 0.70697 0.89176 0.40719 0.0
C686 C 0.68346 0.85475 0.38098 0.0
C687 C 0.69495 0.84423 0.27337 0.0
H688 H 0.62354 0.82169 0.2745 0.0
C689 C 0.63513 0.81804 0.13383 0.0
C690 C 0.61738 0.7976 0.13727 0.0
C691 C 0.64938 0.82633 0.16652 0.0
C692 C 0.64365 0.82755 0.2738 0.0
H693 H 0.72731 0.91419 0.36329 0.0
H694 H 0.71311 0.88867 0.30829 0.0
H695 H 0.64213 0.84102 0.33279 0.0
H696 H 0.60224 0.76861 0.17691 0.0
H697 H 0.62704 0.78284 0.23321 0.0
H698 H 0.69597 0.83152 0.21367 0.0
C699 C 0.70724 0.88263 0.33724 0.0
C700 C 0.65439 0.83857 0.30743 0.0
C701 C 0.71525 0.89751 0.36901 0.0
C702 C 0.6155 0.78463 0.17328 0.0
C703 C 0.62961 0.79288 0.20572 0.0
C704 C 0.68409 0.83343 0.23956 0.0
C705 C 0.69079 0.86132 0.3425 0.0
C706 C 0.68014 0.84733 0.30768 0.0
C707 C 0.64609 0.81435 0.20318 0.0
C708 C 0.65824 0.82509 0.23928 0.0
H709 H 0.68475 0.86478 0.44195 0.0
H710 H 0.67116 0.83822 0.38637 0.0
H711 H 0.71498 0.85028 0.27247 0.0
H712 H 0.63691 0.82856 0.10662 0.0
H713 H 0.66193 0.84296 0.16356 0.0
C714 C 0.12994 0.68427 0.41893 0.0
C715 C 0.12519 0.7109 0.42262 0.0
C716 C 0.1392 0.67393 0.38376 0.0
C717 C 0.16857 0.69208 0.287 0.0
H718 H 0.14617 0.623 0.25948 0.0
C719 C 0.18634 0.63656 0.13695 0.0
C720 C 0.1992 0.61288 0.14318 0.0
C721 C 0.1773 0.65122 0.1689 0.0
C722 C 0.15245 0.64239 0.2667 0.0
H723 H 0.12685 0.74758 0.39208 0.0
H724 H 0.14219 0.72959 0.33067 0.0
H725 H 0.1305 0.64276 0.31948 0.0
H726 H 0.21341 0.58684 0.18831 0.0
H727 H 0.19721 0.61182 0.24279 0.0
H728 H 0.1902 0.69147 0.23325 0.0
C729 C 0.13939 0.71662 0.3551 0.0
C730 C 0.14375 0.65366 0.30143 0.0
C731 C 0.13047 0.72699 0.39046 0.0
C732 C 0.20345 0.60479 0.18197 0.0
C733 C 0.19413 0.61907 0.21346 0.0
C734 C 0.17695 0.68089 0.25181 0.0
C735 C 0.14362 0.68986 0.35097 0.0
C736 C 0.15207 0.67849 0.31266 0.0
C737 C 0.18062 0.64219 0.2074 0.0
C738 C 0.16933 0.65574 0.24171 0.0
H739 H 0.12629 0.67133 0.44317 0.0
H740 H 0.14285 0.65335 0.3824 0.0
H741 H 0.17568 0.7111 0.29455 0.0
H742 H 0.18274 0.6434 0.10756 0.0
H743 H 0.16695 0.66908 0.16352 0.0
C744 C 0.59483 0.84617 0.89761 0.0
C745 C 0.60928 0.83279 0.92589 0.0
C746 C 0.60572 0.85303 0.86188 0.0
C747 C 0.65759 0.83478 0.793 0.0
H748 H 0.63551 0.89773 0.74125 0.0
C749 C 0.69746 0.873 0.64366 0.0
C750 C 0.67968 0.8852 0.61867 0.0
C751 C 0.68965 0.86374 0.6803 0.0
C752 C 0.64162 0.87989 0.75504 0.0
H753 H 0.64694 0.81676 0.93928 0.0
H754 H 0.66644 0.82916 0.8763 0.0
H755 H 0.62301 0.88996 0.80862 0.0
H756 H 0.63975 0.89675 0.61173 0.0
H757 H 0.62585 0.88022 0.67535 0.0
H758 H 0.67658 0.82507 0.73907 0.0
C759 C 0.64643 0.83411 0.88194 0.0
C760 C 0.63452 0.87546 0.79385 0.0
C761 C 0.63542 0.82731 0.91818 0.0
C762 C 0.65367 0.88677 0.63001 0.0
C763 C 0.64586 0.87771 0.66672 0.0
C764 C 0.66493 0.83936 0.75408 0.0
C765 C 0.63153 0.84676 0.85308 0.0
C766 C 0.64193 0.85262 0.81323 0.0
C767 C 0.66396 0.86701 0.69295 0.0
C768 C 0.6566 0.86178 0.7344 0.0
H769 H 0.57461 0.85067 0.90258 0.0
H770 H 0.59343 0.86236 0.84047 0.0
H771 H 0.66349 0.81688 0.80677 0.0
H772 H 0.7178 0.87232 0.63602 0.0
H773 H 0.70411 0.85578 0.69978 0.0
C774 C 0.09116 0.69579 0.66673 0.0
C775 C 0.1027 0.68738 0.63173 0.0
C776 C 0.10186 0.68956 0.70291 0.0
C777 C 0.16111 0.66529 0.75248 0.0
H778 H 0.11232 0.64668 0.83387 0.0
C779 C 0.19046 0.60928 0.89093 0.0
C780 C 0.1782 0.61449 0.92675 0.0
C781 C 0.18285 0.62176 0.85672 0.0
C782 C 0.12623 0.65228 0.81179 0.0
H783 H 0.13518 0.6664 0.60747 0.0
H784 H 0.15388 0.65493 0.67124 0.0
H785 H 0.09644 0.66012 0.77014 0.0
H786 H 0.14881 0.63769 0.95499 0.0
H787 H 0.13514 0.65972 0.89455 0.0
H788 H 0.19091 0.65679 0.79412 0.0
C789 C 0.13654 0.66668 0.67044 0.0
C790 C 0.11713 0.65995 0.77504 0.0
C791 C 0.12583 0.67316 0.63387 0.0
C792 C 0.15866 0.63335 0.92785 0.0
C793 C 0.15074 0.64576 0.89319 0.0
C794 C 0.17022 0.65754 0.78926 0.0
C795 C 0.12439 0.67445 0.7055 0.0
C796 C 0.13441 0.66645 0.74474 0.0
C797 C 0.16254 0.63978 0.85708 0.0
C798 C 0.1529 0.65069 0.81933 0.0
H799 H 0.07357 0.70719 0.66632 0.0
H800 H 0.09231 0.69657 0.72899 0.0
H801 H 0.17501 0.67053 0.7302 0.0
H802 H 0.20573 0.59495 0.88908 0.0
H803 H 0.19222 0.61638 0.82962 0.0
C804 C 0.36044 0.10292 0.64119 0.0
C805 C 0.33907 0.11269 0.6207 0.0
C806 C 0.36647 0.11211 0.67843 0.0
C807 C 0.35307 0.16254 0.7532 0.0
H808 H 0.36983 0.10645 0.82405 0.0
C809 C 0.37088 0.17923 0.9196 0.0
C810 C 0.39385 0.16781 0.93321 0.0
C811 C 0.36074 0.17229 0.88293 0.0
C812 C 0.36525 0.12238 0.80472 0.0
H813 H 0.30776 0.14043 0.6223 0.0
H814 H 0.31835 0.1568 0.68773 0.0
H815 H 0.3611 0.09716 0.75574 0.0
H816 H 0.42362 0.13969 0.92029 0.0
H817 H 0.40576 0.12705 0.85745 0.0
H818 H 0.35755 0.18776 0.80257 0.0
C819 C 0.33072 0.14224 0.67473 0.0
C820 C 0.36039 0.11709 0.76538 0.0
C821 C 0.32478 0.1331 0.63709 0.0
C822 C 0.40563 0.14843 0.91075 0.0
C823 C 0.39539 0.14126 0.87463 0.0
C824 C 0.35797 0.16786 0.79277 0.0
C825 C 0.35097 0.13101 0.69652 0.0
C826 C 0.35481 0.13711 0.73883 0.0
C827 C 0.37325 0.1536 0.85962 0.0
C828 C 0.36465 0.14787 0.81885 0.0
H829 H 0.37151 0.08691 0.62939 0.0
H830 H 0.38262 0.10348 0.69385 0.0
H831 H 0.34876 0.17842 0.73364 0.0
H832 H 0.3618 0.19468 0.93598 0.0
H833 H 0.34356 0.18204 0.87235 0.0
C834 C 0.87487 0.33011 0.63064 0.0
C835 C 0.90138 0.33416 0.6239 0.0
C836 C 0.86376 0.33702 0.66674 0.0
C837 C 0.87635 0.3767 0.75596 0.0
H838 H 0.83146 0.32783 0.80846 0.0
C839 C 0.85533 0.38786 0.91907 0.0
C840 C 0.82917 0.38704 0.92972 0.0
C841 C 0.86327 0.37874 0.88248 0.0
C842 C 0.84389 0.34171 0.79408 0.0
H843 H 0.93667 0.34962 0.64883 0.0
H844 H 0.91763 0.36152 0.71076 0.0
H845 H 0.84515 0.31959 0.74104 0.0
H846 H 0.79087 0.37551 0.91134 0.0
H847 H 0.80475 0.35899 0.84764 0.0
H848 H 0.87548 0.39864 0.80883 0.0
C849 C 0.90518 0.35321 0.68867 0.0
C850 C 0.85158 0.3371 0.75534 0.0
C851 C 0.91618 0.34622 0.65306 0.0
C852 C 0.81129 0.37559 0.90418 0.0
C853 C 0.81923 0.36633 0.8676 0.0
C854 C 0.86885 0.38119 0.79456 0.0
C855 C 0.87894 0.34837 0.69641 0.0
C856 C 0.86826 0.35437 0.73597 0.0
C857 C 0.84515 0.36882 0.85567 0.0
C858 C 0.85285 0.3636 0.81438 0.0
H859 H 0.86306 0.32062 0.60883 0.0
H860 H 0.84343 0.33321 0.67161 0.0
H861 H 0.8887 0.39076 0.7418 0.0
H862 H 0.86932 0.39724 0.93786 0.0
H863 H 0.88345 0.3806 0.87444 0.0
loop_
_geom_bond_atom_site_label_1
_geom_bond_atom_site_label_2
_geom_bond_distance
_geom_bond_site_symmetry_2
_ccdc_geom_bond_type
C0 C1 1.351 . S
C0 N3 1.368 . S
C0 H5 0.931 . S
C1 C0 1.351 . S
C1 N2 1.373 1_556 S
C1 H29 0.930 . S
N2 C1 1.373 1_554 S
N2 C4 1.340 . S
N3 C0 1.368 . S
N3 C4 1.321 1_556 S
N3 Co6 2.135 1_556 S
C4 N2 1.340 . S
C4 N3 1.321 1_554 S
C4 H28 0.930 . S
H5 C0 0.931 . S
Co6 N3 2.135 1_554 S
Co6 N9 2.121 . S
Co6 O14 2.055 1_554 S
Co6 O17 2.039 . S
Co6 N20 2.140 . S
C7 O8 1.227 . S
C7 O17 1.265 . S
O8 C7 1.227 . S
N9 Co6 2.121 . S
N9 C11 1.375 . S
N9 C12 1.313 1_554 S
C10 C11 1.338 . S
C10 N13 1.377 . S
C10 H30 0.930 . S
C11 N9 1.375 . S
C11 C10 1.338 . S
C11 H15 0.931 . S
C12 N9 1.313 1_556 S
C12 N13 1.344 1_556 S
C12 H16 0.930 . S
N13 C10 1.377 . S
N13 C12 1.344 1_554 S
O14 Co6 2.055 1_556 S
O14 C18 1.253 . S
H15 C11 0.931 . S
H16 C12 0.930 . S
O17 Co6 2.039 . S
O17 C7 1.265 . S
C18 O14 1.253 . S
C18 O19 1.227 . S
O19 C18 1.227 . S
N20 Co6 2.140 . S
N20 C23 1.346 . S
N20 C24 1.345 1_554 S
C21 C22 1.387 . S
C21 C25 1.391 1_554 S
C22 C21 1.387 . S
C22 C23 1.369 . S
C22 H31 0.929 . S
C23 N20 1.346 . S
C23 C22 1.369 . S
C23 H26 0.928 . S
C24 N20 1.345 1_556 S
C24 C25 1.371 . S
C24 H27 0.931 . S
C25 C21 1.391 1_556 S
C25 C24 1.371 . S
C25 H32 0.930 . S
H26 C23 0.928 . S
H27 C24 0.931 . S
H28 C4 0.930 . S
H29 C1 0.930 . S
H30 C10 0.930 . S
H31 C22 0.929 . S
H32 C25 0.930 . S
C33 C34 1.351 . S
C33 N36 1.368 . S
C33 H38 0.931 . S
C34 C33 1.351 . S
C34 N35 1.373 1_556 S
C34 H62 0.930 . S
N35 C34 1.373 1_554 S
N35 C37 1.340 . S
N36 C33 1.368 . S
N36 C37 1.321 1_556 S
N36 Co39 2.135 1_556 S
C37 N35 1.340 . S
C37 N36 1.321 1_554 S
C37 H61 0.930 . S
H38 C33 0.931 . S
Co39 N36 2.135 1_554 S
Co39 N42 2.121 . S
Co39 O47 2.055 1_554 S
Co39 O50 2.039 . S
Co39 N53 2.140 . S
C40 O41 1.227 . S
C40 O50 1.265 . S
O41 C40 1.227 . S
N42 Co39 2.121 . S
N42 C44 1.375 . S
N42 C45 1.313 1_554 S
C43 C44 1.338 . S
C43 N46 1.377 . S
C43 H63 0.930 . S
C44 N42 1.375 . S
C44 C43 1.338 . S
C44 H48 0.931 . S
C45 N42 1.313 1_556 S
C45 N46 1.344 1_556 S
C45 H49 0.930 . S
N46 C43 1.377 . S
N46 C45 1.344 1_554 S
O47 Co39 2.055 1_556 S
O47 C51 1.253 . S
H48 C44 0.931 . S
H49 C45 0.930 . S
O50 Co39 2.039 . S
O50 C40 1.265 . S
C51 O47 1.253 . S
C51 O52 1.227 . S
O52 C51 1.227 . S
N53 Co39 2.140 . S
N53 C56 1.346 . S
N53 C57 1.345 1_554 S
C54 C55 1.387 . S
C54 C58 1.391 1_554 S
C55 C54 1.387 . S
C55 C56 1.369 . S
C55 H64 0.929 . S
C56 N53 1.346 . S
C56 C55 1.369 . S
C56 H59 0.928 . S
C57 N53 1.345 1_556 S
C57 C58 1.371 . S
C57 H60 0.931 . S
C58 C54 1.391 1_556 S
C58 C57 1.371 . S
C58 H65 0.930 . S
H59 C56 0.928 . S
H60 C57 0.931 . S
H61 C37 0.930 . S
H62 C34 0.930 . S
H63 C43 0.930 . S
H64 C55 0.929 . S
H65 C58 0.930 . S
C66 C67 1.351 . S
C66 N69 1.368 . S
C66 H71 0.931 . S
C67 C66 1.351 . S
C67 N68 1.373 1_556 S
C67 H95 0.930 . S
N68 C67 1.373 1_554 S
N68 C70 1.340 . S
N69 C66 1.368 . S
N69 C70 1.321 1_556 S
N69 Co72 2.135 1_556 S
C70 N68 1.340 . S
C70 N69 1.321 1_554 S
C70 H94 0.930 . S
H71 C66 0.931 . S
Co72 N69 2.135 1_554 S
Co72 N75 2.121 . S
Co72 O80 2.055 1_554 S
Co72 O83 2.039 . S
Co72 N86 2.140 . S
C73 O74 1.227 . S
C73 O83 1.265 . S
O74 C73 1.227 . S
N75 Co72 2.121 . S
N75 C77 1.375 . S
N75 C78 1.313 1_554 S
C76 C77 1.338 . S
C76 N79 1.377 . S
C76 H96 0.930 . S
C77 N75 1.375 . S
C77 C76 1.338 . S
C77 H81 0.931 . S
C78 N75 1.313 1_556 S
C78 N79 1.344 1_556 S
C78 H82 0.930 . S
N79 C76 1.377 . S
N79 C78 1.344 1_554 S
O80 Co72 2.055 1_556 S
O80 C84 1.253 . S
H81 C77 0.931 . S
H82 C78 0.930 . S
O83 Co72 2.039 . S
O83 C73 1.265 . S
C84 O80 1.253 . S
C84 O85 1.227 . S
O85 C84 1.227 . S
N86 Co72 2.140 . S
N86 C89 1.346 . S
N86 C90 1.345 1_554 S
C87 C88 1.387 . S
C87 C91 1.391 1_554 S
C88 C87 1.387 . S
C88 C89 1.369 . S
C88 H97 0.929 . S
C89 N86 1.346 . S
C89 C88 1.369 . S
C89 H92 0.928 . S
C90 N86 1.345 1_556 S
C90 C91 1.371 . S
C90 H93 0.931 . S
C91 C87 1.391 1_556 S
C91 C90 1.371 . S
C91 H98 0.930 . S
H92 C89 0.928 . S
H93 C90 0.931 . S
H94 C70 0.930 . S
H95 C67 0.930 . S
H96 C76 0.930 . S
H97 C88 0.929 . S
H98 C91 0.930 . S
C99 C100 1.351 . S
C99 N102 1.368 . S
C99 H104 0.931 . S
C100 C99 1.351 . S
C100 N101 1.373 1_556 S
C100 H128 0.930 . S
N101 C100 1.373 1_554 S
N101 C103 1.340 . S
N102 C99 1.368 . S
N102 C103 1.321 1_556 S
N102 Co105 2.135 1_556 S
C103 N101 1.340 . S
C103 N102 1.321 1_554 S
C103 H127 0.930 . S
H104 C99 0.931 . S
Co105 N102 2.135 1_554 S
Co105 N108 2.121 . S
Co105 O113 2.055 1_554 S
Co105 O116 2.039 . S
Co105 N119 2.140 . S
C106 O107 1.227 . S
C106 O116 1.265 . S
O107 C106 1.227 . S
N108 Co105 2.121 . S
N108 C110 1.375 . S
N108 C111 1.313 1_554 S
C109 C110 1.338 . S
C109 N112 1.377 . S
C109 H129 0.930 . S
C110 N108 1.375 . S
C110 C109 1.338 . S
C110 H114 0.931 . S
C111 N108 1.313 1_556 S
C111 N112 1.344 1_556 S
C111 H115 0.930 . S
N112 C109 1.377 . S
N112 C111 1.344 1_554 S
O113 Co105 2.055 1_556 S
O113 C117 1.253 . S
H114 C110 0.931 . S
H115 C111 0.930 . S
O116 Co105 2.039 . S
O116 C106 1.265 . S
C117 O113 1.253 . S
C117 O118 1.227 . S
O118 C117 1.227 . S
N119 Co105 2.140 . S
N119 C122 1.346 . S
N119 C123 1.345 1_554 S
C120 C121 1.387 . S
C120 C124 1.391 1_554 S
C121 C120 1.387 . S
C121 C122 1.369 . S
C121 H130 0.929 . S
C122 N119 1.346 . S
C122 C121 1.369 . S
C122 H125 0.928 . S
C123 N119 1.345 1_556 S
C123 C124 1.371 . S
C123 H126 0.931 . S
C124 C120 1.391 1_556 S
C124 C123 1.371 . S
C124 H131 0.930 . S
H125 C122 0.928 . S
H126 C123 0.931 . S
H127 C103 0.930 . S
H128 C100 0.930 . S
H129 C109 0.930 . S
H130 C121 0.929 . S
H131 C124 0.930 . S
C132 C133 1.351 . S
C132 N135 1.368 . S
C132 H137 0.931 . S
C133 C132 1.351 . S
C133 N134 1.373 . S
C133 H161 0.930 . S
N134 C133 1.373 . S
N134 C136 1.340 . S
N135 C132 1.368 . S
N135 C136 1.321 . S
N135 Co138 2.135 . S
C136 N134 1.340 . S
C136 N135 1.321 . S
C136 H160 0.930 . S
H137 C132 0.931 . S
Co138 N135 2.135 . S
Co138 N141 2.121 . S
Co138 O146 2.055 . S
Co138 O149 2.039 . S
Co138 N152 2.140 . S
C139 O140 1.227 . S
C139 O149 1.265 . S
O140 C139 1.227 . S
N141 Co138 2.121 . S
N141 C143 1.375 . S
N141 C144 1.313 . S
C142 C143 1.338 . S
C142 N145 1.377 . S
C142 H162 0.930 . S
C143 N141 1.375 . S
C143 C142 1.338 . S
C143 H147 0.931 . S
C144 N141 1.313 . S
C144 N145 1.344 . S
C144 H148 0.930 . S
N145 C142 1.377 . S
N145 C144 1.344 . S
O146 Co138 2.055 . S
O146 C150 1.253 . S
H147 C143 0.931 . S
H148 C144 0.930 . S
O149 Co138 2.039 . S
O149 C139 1.265 . S
C150 O146 1.253 . S
C150 O151 1.227 . S
O151 C150 1.227 . S
N152 Co138 2.140 . S
N152 C155 1.346 . S
N152 C156 1.345 . S
C153 C154 1.387 . S
C153 C157 1.391 . S
C154 C153 1.387 . S
C154 C155 1.369 . S
C154 H163 0.929 . S
C155 N152 1.346 . S
C155 C154 1.369 . S
C155 H158 0.928 . S
C156 N152 1.345 . S
C156 C157 1.371 . S
C156 H159 0.931 . S
C157 C153 1.391 . S
C157 C156 1.371 . S
C157 H164 0.930 1_655 S
H158 C155 0.928 . S
H159 C156 0.931 . S
H160 C136 0.930 . S
H161 C133 0.930 . S
H162 C142 0.930 . S
H163 C154 0.929 . S
H164 C157 0.930 1_455 S
C165 C166 1.351 . S
C165 N168 1.368 . S
C165 H170 0.931 . S
C166 C165 1.351 . S
C166 N167 1.373 . S
C166 H194 0.930 . S
N167 C166 1.373 . S
N167 C169 1.340 . S
N168 C165 1.368 . S
N168 C169 1.321 . S
N168 Co171 2.135 . S
C169 N167 1.340 . S
C169 N168 1.321 . S
C169 H193 0.930 . S
H170 C165 0.931 . S
Co171 N168 2.135 . S
Co171 N174 2.121 . S
Co171 O179 2.055 . S
Co171 O182 2.039 . S
Co171 N185 2.140 . S
C172 O173 1.227 . S
C172 O182 1.265 . S
O173 C172 1.227 . S
N174 Co171 2.121 . S
N174 C176 1.375 . S
N174 C177 1.313 . S
C175 C176 1.338 . S
C175 N178 1.377 . S
C175 H195 0.930 . S
C176 N174 1.375 . S
C176 C175 1.338 . S
C176 H180 0.931 . S
C177 N174 1.313 . S
C177 N178 1.344 . S
C177 H181 0.930 . S
N178 C175 1.377 . S
N178 C177 1.344 . S
O179 Co171 2.055 . S
O179 C183 1.253 . S
H180 C176 0.931 . S
H181 C177 0.930 . S
O182 Co171 2.039 . S
O182 C172 1.265 . S
C183 O179 1.253 . S
C183 O184 1.227 . S
O184 C183 1.227 . S
N185 Co171 2.140 . S
N185 C188 1.346 . S
N185 C189 1.345 . S
C186 C187 1.387 . S
C186 C190 1.391 . S
C187 C186 1.387 . S
C187 C188 1.369 . S
C187 H196 0.929 . S
C188 N185 1.346 . S
C188 C187 1.369 . S
C188 H191 0.928 . S
C189 N185 1.345 . S
C189 C190 1.371 . S
C189 H192 0.931 . S
C190 C186 1.391 . S
C190 C189 1.371 . S
C190 H197 0.930 1_565 S
H191 C188 0.928 . S
H192 C189 0.931 . S
H193 C169 0.930 . S
H194 C166 0.930 . S
H195 C175 0.930 . S
H196 C187 0.929 . S
H197 C190 0.930 1_545 S
C198 C199 1.351 . S
C198 N201 1.368 . S
C198 H203 0.931 . S
C199 C198 1.351 . S
C199 N200 1.373 . S
C199 H227 0.930 . S
N200 C199 1.373 . S
N200 C202 1.340 . S
N201 C198 1.368 . S
N201 C202 1.321 . S
N201 Co204 2.135 . S
C202 N200 1.340 . S
C202 N201 1.321 . S
C202 H226 0.930 . S
H203 C198 0.931 . S
Co204 N201 2.135 . S
Co204 N207 2.121 . S
Co204 O212 2.055 . S
Co204 O215 2.039 . S
Co204 N218 2.140 . S
C205 O206 1.227 . S
C205 O215 1.265 . S
O206 C205 1.227 . S
N207 Co204 2.121 . S
N207 C209 1.375 . S
N207 C210 1.313 . S
C208 C209 1.338 . S
C208 N211 1.377 . S
C208 H228 0.930 . S
C209 N207 1.375 . S
C209 C208 1.338 . S
C209 H213 0.931 . S
C210 N207 1.313 . S
C210 N211 1.344 . S
C210 H214 0.930 . S
N211 C208 1.377 . S
N211 C210 1.344 . S
O212 Co204 2.055 . S
O212 C216 1.253 . S
H213 C209 0.931 . S
H214 C210 0.930 . S
O215 Co204 2.039 . S
O215 C205 1.265 . S
C216 O212 1.253 . S
C216 O217 1.227 . S
O217 C216 1.227 . S
N218 Co204 2.140 . S
N218 C221 1.346 . S
N218 C222 1.345 . S
C219 C220 1.387 . S
C219 C223 1.391 . S
C220 C219 1.387 . S
C220 C221 1.369 . S
C220 H229 0.929 . S
C221 N218 1.346 . S
C221 C220 1.369 . S
C221 H224 0.928 . S
C222 N218 1.345 . S
C222 C223 1.371 . S
C222 H225 0.931 . S
C223 C219 1.391 . S
C223 C222 1.371 . S
C223 H230 0.930 1_455 S
H224 C221 0.928 . S
H225 C222 0.931 . S
H226 C202 0.930 . S
H227 C199 0.930 . S
H228 C208 0.930 . S
H229 C220 0.929 . S
H230 C223 0.930 1_655 S
C231 C232 1.351 . S
C231 N234 1.368 . S
C231 H236 0.931 . S
C232 C231 1.351 . S
C232 N233 1.373 . S
C232 H260 0.930 . S
N233 C232 1.373 . S
N233 C235 1.340 . S
N234 C231 1.368 . S
N234 C235 1.321 . S
N234 Co237 2.135 . S
C235 N233 1.340 . S
C235 N234 1.321 . S
C235 H259 0.930 . S
H236 C231 0.931 . S
Co237 N234 2.135 . S
Co237 N240 2.121 . S
Co237 O245 2.055 . S
Co237 O248 2.039 . S
Co237 N251 2.140 . S
C238 O239 1.227 . S
C238 O248 1.265 . S
O239 C238 1.227 . S
N240 Co237 2.121 . S
N240 C242 1.375 . S
N240 C243 1.313 . S
C241 C242 1.338 . S
C241 N244 1.377 . S
C241 H261 0.930 . S
C242 N240 1.375 . S
C242 C241 1.338 . S
C242 H246 0.931 . S
C243 N240 1.313 . S
C243 N244 1.344 . S
C243 H247 0.930 . S
N244 C241 1.377 . S
N244 C243 1.344 . S
O245 Co237 2.055 . S
O245 C249 1.253 . S
H246 C242 0.931 . S
H247 C243 0.930 . S
O248 Co237 2.039 . S
O248 C238 1.265 . S
C249 O245 1.253 . S
C249 O250 1.227 . S
O250 C249 1.227 . S
N251 Co237 2.140 . S
N251 C254 1.346 . S
N251 C255 1.345 . S
C252 C253 1.387 . S
C252 C256 1.391 . S
C253 C252 1.387 . S
C253 C254 1.369 . S
C253 H262 0.929 . S
C254 N251 1.346 . S
C254 C253 1.369 . S
C254 H257 0.928 . S
C255 N251 1.345 . S
C255 C256 1.371 . S
C255 H258 0.931 . S
C256 C252 1.391 . S
C256 C255 1.371 . S
C256 H263 0.930 1_545 S
H257 C254 0.928 . S
H258 C255 0.931 . S
H259 C235 0.930 . S
H260 C232 0.930 . S
H261 C241 0.930 . S
H262 C253 0.929 . S
H263 C256 0.930 1_565 S
C264 C265 1.349 . S
C264 C266 1.327 . S
C264 H289 0.950 . S
C265 C264 1.349 . S
C265 C281 1.349 1_556 S
C266 C264 1.327 . S
C266 C285 1.429 . S
C266 H290 0.950 . S
C267 C284 1.574 1_565 S
C267 C286 1.368 1_554 S
C267 H291 0.949 . S
H268 C272 0.949 . S
C269 C270 1.349 1_554 S
C269 C271 1.327 . S
C269 H292 0.950 . S
C270 C269 1.349 1_556 S
C270 C282 1.349 . S
C271 C269 1.327 . S
C271 C287 1.429 1_554 S
C271 H293 0.950 . S
C272 H268 0.949 . S
C272 C280 1.574 1_545 S
C272 C288 1.368 . S
H273 C281 0.950 . S
H274 C279 0.950 . S
H275 C280 0.949 . S
H276 C282 0.950 . S
H277 C283 0.950 . S
H278 C284 0.949 . S
C279 H274 0.950 . S
C279 C281 1.327 . S
C279 C285 1.429 1_554 S
C280 C272 1.574 1_565 S
C280 H275 0.949 . S
C280 C286 1.368 . S
C281 C265 1.349 1_554 S
C281 H273 0.950 . S
C281 C279 1.327 . S
C282 C270 1.349 . S
C282 H276 0.950 . S
C282 C283 1.327 . S
C283 H277 0.950 . S
C283 C282 1.327 . S
C283 C287 1.429 . S
C284 C267 1.574 1_545 S
C284 H278 0.949 . S
C284 C288 1.368 1_554 S
C285 C266 1.429 . S
C285 C279 1.429 1_556 S
C285 C286 1.523 . S
C286 C267 1.368 1_556 S
C286 C280 1.368 . S
C286 C285 1.523 . S
C287 C271 1.429 1_556 S
C287 C283 1.429 . S
C287 C288 1.523 . S
C288 C272 1.368 . S
C288 C284 1.368 1_556 S
C288 C287 1.523 . S
H289 C264 0.950 . S
H290 C266 0.950 . S
H291 C267 0.949 . S
H292 C269 0.950 . S
H293 C271 0.950 . S
C294 C295 1.349 . S
C294 C296 1.327 . S
C294 H319 0.950 . S
C295 C294 1.349 . S
C295 C311 1.349 1_556 S
C296 C294 1.327 . S
C296 C315 1.429 . S
C296 H320 0.950 . S
C297 C314 1.574 1_655 S
C297 C316 1.368 1_554 S
C297 H321 0.949 . S
H298 C302 0.949 . S
C299 C300 1.349 1_554 S
C299 C301 1.327 . S
C299 H322 0.950 . S
C300 C299 1.349 1_556 S
C300 C312 1.349 . S
C301 C299 1.327 . S
C301 C317 1.429 1_554 S
C301 H323 0.950 . S
C302 H298 0.949 . S
C302 C310 1.574 1_455 S
C302 C318 1.368 . S
H303 C311 0.950 . S
H304 C309 0.950 . S
H305 C310 0.949 . S
H306 C312 0.950 . S
H307 C313 0.950 . S
H308 C314 0.949 . S
C309 H304 0.950 . S
C309 C311 1.327 . S
C309 C315 1.429 1_554 S
C310 C302 1.574 1_655 S
C310 H305 0.949 . S
C310 C316 1.368 . S
C311 C295 1.349 1_554 S
C311 H303 0.950 . S
C311 C309 1.327 . S
C312 C300 1.349 . S
C312 H306 0.950 . S
C312 C313 1.327 . S
C313 H307 0.950 . S
C313 C312 1.327 . S
C313 C317 1.429 . S
C314 C297 1.574 1_455 S
C314 H308 0.949 . S
C314 C318 1.368 1_554 S
C315 C296 1.429 . S
C315 C309 1.429 1_556 S
C315 C316 1.523 . S
C316 C297 1.368 1_556 S
C316 C310 1.368 . S
C316 C315 1.523 . S
C317 C301 1.429 1_556 S
C317 C313 1.429 . S
C317 C318 1.523 . S
C318 C302 1.368 . S
C318 C314 1.368 1_556 S
C318 C317 1.523 . S
H319 C294 0.950 . S
H320 C296 0.950 . S
H321 C297 0.949 . S
H322 C299 0.950 . S
H323 C301 0.950 . S
C324 C325 1.349 . S
C324 C326 1.327 . S
C324 H349 0.950 . S
C325 C324 1.349 . S
C325 C341 1.349 . S
C326 C324 1.327 . S
C326 C345 1.429 . S
C326 H350 0.963 . S
C327 C344 1.574 . S
C327 C346 1.368 . S
C327 H351 0.949 . S
H328 C332 0.949 . S
C329 C330 1.349 . S
C329 C331 1.327 . S
C329 H352 0.950 . S
C330 C329 1.349 . S
C330 C342 1.349 . S
C331 C329 1.327 . S
C331 C347 1.429 . S
C331 H353 0.963 . S
C332 H328 0.949 . S
C332 C340 1.574 . S
C332 C348 1.368 . S
H333 C341 0.950 . S
H334 C339 0.950 . S
H335 C340 0.949 . S
H336 C342 0.950 . S
H337 C343 0.950 . S
H338 C344 0.949 . S
C339 H334 0.950 . S
C339 C341 1.327 . S
C339 C345 1.429 . S
C340 C332 1.574 . S
C340 H335 0.949 . S
C340 C346 1.368 1_455 S
C341 C325 1.349 . S
C341 H333 0.950 . S
C341 C339 1.327 . S
C342 C330 1.349 . S
C342 H336 0.950 . S
C342 C343 1.327 . S
C343 H337 0.950 . S
C343 C342 1.327 . S
C343 C347 1.429 . S
C344 C327 1.574 . S
C344 H338 0.949 . S
C344 C348 1.368 1_655 S
C345 C326 1.429 . S
C345 C339 1.429 . S
C345 C346 1.523 . S
C346 C327 1.368 . S
C346 C340 1.368 1_655 S
C346 C345 1.523 . S
C347 C331 1.429 . S
C347 C343 1.429 . S
C347 C348 1.523 . S
C348 C332 1.368 . S
C348 C344 1.368 1_455 S
C348 C347 1.523 . S
H349 C324 0.950 . S
H350 C326 0.963 . S
H351 C327 0.949 . S
H352 C329 0.950 . S
H353 C331 0.963 . S
C354 C355 1.349 . S
C354 C356 1.327 . S
C354 H379 0.950 . S
C355 C354 1.349 . S
C355 C371 1.349 . S
C356 C354 1.327 . S
C356 C375 1.429 . S
C356 H380 0.950 . S
C357 C374 1.574 . S
C357 C376 1.368 1_545 S
C357 H381 0.949 . S
H358 C362 0.949 . S
C359 C360 1.349 . S
C359 C361 1.327 . S
C359 H382 0.950 . S
C360 C359 1.349 . S
C360 C372 1.349 . S
C361 C359 1.327 . S
C361 C377 1.429 . S
C361 H383 0.950 . S
C362 H358 0.949 . S
C362 C370 1.574 . S
C362 C378 1.368 1_565 S
H363 C371 0.950 . S
H364 C369 0.963 . S
H365 C370 0.949 . S
H366 C372 0.950 . S
H367 C373 0.963 . S
H368 C374 0.949 . S
C369 H364 0.963 . S
C369 C371 1.327 . S
C369 C375 1.429 . S
C370 C362 1.574 . S
C370 H365 0.949 . S
C370 C376 1.368 . S
C371 C355 1.349 . S
C371 H363 0.950 . S
C371 C369 1.327 . S
C372 C360 1.349 . S
C372 H366 0.950 . S
C372 C373 1.327 . S
C373 H367 0.963 . S
C373 C372 1.327 . S
C373 C377 1.429 . S
C374 C357 1.574 . S
C374 H368 0.949 . S
C374 C378 1.368 . S
C375 C356 1.429 . S
C375 C369 1.429 . S
C375 C376 1.523 . S
C376 C357 1.368 1_565 S
C376 C370 1.368 . S
C376 C375 1.523 . S
C377 C361 1.429 . S
C377 C373 1.429 . S
C377 C378 1.523 . S
C378 C362 1.368 1_545 S
C378 C374 1.368 . S
C378 C377 1.523 . S
H379 C354 0.950 . S
H380 C356 0.950 . S
H381 C357 0.949 . S
H382 C359 0.950 . S
H383 C361 0.950 . S
C384 C385 1.349 1_556 S
C384 C386 1.327 . S
C384 H409 0.950 . S
C385 C384 1.349 1_554 S
C385 C401 1.349 . S
C386 C384 1.327 . S
C386 C405 1.429 1_556 S
C386 H410 0.950 . S
C387 C404 1.574 . S
C387 C406 1.368 . S
C387 H411 0.949 . S
H388 C392 0.949 . S
C389 C390 1.349 . S
C389 C391 1.327 . S
C389 H412 0.950 . S
C390 C389 1.349 . S
C390 C402 1.349 1_554 S
C391 C389 1.327 . S
C391 C407 1.429 . S
C391 H413 0.950 . S
C392 H388 0.949 . S
C392 C400 1.574 . S
C392 C408 1.368 1_556 S
H393 C401 0.950 . S
H394 C399 0.950 . S
H395 C400 0.949 . S
H396 C402 0.950 . S
H397 C403 0.950 . S
H398 C404 0.949 . S
C399 H394 0.950 . S
C399 C401 1.327 . S
C399 C405 1.429 . S
C400 C392 1.574 . S
C400 H395 0.949 . S
C400 C406 1.368 1_556 S
C401 C385 1.349 . S
C401 H393 0.950 . S
C401 C399 1.327 . S
C402 C390 1.349 1_556 S
C402 H396 0.950 . S
C402 C403 1.327 . S
C403 H397 0.950 . S
C403 C402 1.327 . S
C403 C407 1.429 1_556 S
C404 C387 1.574 . S
C404 H398 0.949 . S
C404 C408 1.368 . S
C405 C386 1.429 1_554 S
C405 C399 1.429 . S
C405 C406 1.523 . S
C406 C387 1.368 . S
C406 C400 1.368 1_554 S
C406 C405 1.523 . S
C407 C391 1.429 . S
C407 C403 1.429 1_554 S
C407 C408 1.523 . S
C408 C392 1.368 1_554 S
C408 C404 1.368 . S
C408 C407 1.523 . S
H409 C384 0.950 . S
H410 C386 0.950 . S
H411 C387 0.949 . S
H412 C389 0.950 . S
H413 C391 0.950 . S
C414 C415 1.349 1_556 S
C414 C416 1.327 . S
C414 H439 0.950 . S
C415 C414 1.349 1_554 S
C415 C431 1.349 . S
C416 C414 1.327 . S
C416 C435 1.429 1_556 S
C416 H440 0.950 . S
C417 C434 1.574 . S
C417 C436 1.368 . S
C417 H441 0.949 . S
H418 C422 0.949 . S
C419 C420 1.349 . S
C419 C421 1.327 . S
C419 H442 0.950 . S
C420 C419 1.349 . S
C420 C432 1.349 1_554 S
C421 C419 1.327 . S
C421 C437 1.429 . S
C421 H443 0.950 . S
C422 H418 0.949 . S
C422 C430 1.574 . S
C422 C438 1.368 1_556 S
H423 C431 0.950 . S
H424 C429 0.950 . S
H425 C430 0.949 . S
H426 C432 0.950 . S
H427 C433 0.950 . S
H428 C434 0.949 . S
C429 H424 0.950 . S
C429 C431 1.327 . S
C429 C435 1.429 . S
C430 C422 1.574 . S
C430 H425 0.949 . S
C430 C436 1.368 1_556 S
C431 C415 1.349 . S
C431 H423 0.950 . S
C431 C429 1.327 . S
C432 C420 1.349 1_556 S
C432 H426 0.950 . S
C432 C433 1.327 . S
C433 H427 0.950 . S
C433 C432 1.327 . S
C433 C437 1.429 1_556 S
C434 C417 1.574 . S
C434 H428 0.949 . S
C434 C438 1.368 . S
C435 C416 1.429 1_554 S
C435 C429 1.429 . S
C435 C436 1.523 . S
C436 C417 1.368 . S
C436 C430 1.368 1_554 S
C436 C435 1.523 . S
C437 C421 1.429 . S
C437 C433 1.429 1_554 S
C437 C438 1.523 . S
C438 C422 1.368 1_554 S
C438 C434 1.368 . S
C438 C437 1.523 . S
H439 C414 0.950 . S
H440 C416 0.950 . S
H441 C417 0.949 . S
H442 C419 0.950 . S
H443 C421 0.950 . S
C444 C445 1.349 . S
C444 C446 1.327 . S
C444 H469 0.950 . S
C445 C444 1.349 . S
C445 C461 1.349 1_554 S
C446 C444 1.327 . S
C446 C465 1.429 . S
C446 H470 0.950 . S
C447 C464 1.574 . S
C447 C466 1.368 1_556 S
C447 H471 0.949 . S
H448 C452 0.949 . S
C449 C450 1.349 1_556 S
C449 C451 1.327 . S
C449 H472 0.950 . S
C450 C449 1.349 1_554 S
C450 C462 1.349 . S
C451 C449 1.327 . S
C451 C467 1.429 1_556 S
C451 H473 0.950 . S
C452 H448 0.949 . S
C452 C460 1.574 . S
C452 C468 1.368 . S
H453 C461 0.950 . S
H454 C459 0.950 . S
H455 C460 0.949 . S
H456 C462 0.950 . S
H457 C463 0.950 . S
H458 C464 0.949 . S
C459 H454 0.950 . S
C459 C461 1.327 . S
C459 C465 1.429 1_556 S
C460 C452 1.574 . S
C460 H455 0.949 . S
C460 C466 1.368 . S
C461 C445 1.349 1_556 S
C461 H453 0.950 . S
C461 C459 1.327 . S
C462 C450 1.349 . S
C462 H456 0.950 . S
C462 C463 1.327 . S
C463 H457 0.950 . S
C463 C462 1.327 . S
C463 C467 1.429 . S
C464 C447 1.574 . S
C464 H458 0.949 . S
C464 C468 1.368 1_556 S
C465 C446 1.429 . S
C465 C459 1.429 1_554 S
C465 C466 1.523 . S
C466 C447 1.368 1_554 S
C466 C460 1.368 . S
C466 C465 1.523 . S
C467 C451 1.429 1_554 S
C467 C463 1.429 . S
C467 C468 1.523 . S
C468 C452 1.368 . S
C468 C464 1.368 1_554 S
C468 C467 1.523 . S
H469 C444 0.950 . S
H470 C446 0.950 . S
H471 C447 0.949 . S
H472 C449 0.950 . S
H473 C451 0.950 . S
C474 C475 1.349 1_556 S
C474 C476 1.327 . S
C474 H499 0.950 . S
C475 C474 1.349 1_554 S
C475 C491 1.349 . S
C476 C474 1.327 . S
C476 C495 1.429 1_556 S
C476 H500 0.950 . S
C477 C494 1.574 . S
C477 C496 1.368 . S
C477 H501 0.949 . S
H478 C482 0.949 . S
C479 C480 1.349 . S
C479 C481 1.327 . S
C479 H502 0.950 . S
C480 C479 1.349 . S
C480 C492 1.349 1_554 S
C481 C479 1.327 . S
C481 C497 1.429 . S
C481 H503 0.950 . S
C482 H478 0.949 . S
C482 C490 1.574 . S
C482 C498 1.368 1_556 S
H483 C491 0.950 . S
H484 C489 0.950 . S
H485 C490 0.949 . S
H486 C492 0.950 . S
H487 C493 0.950 . S
H488 C494 0.949 . S
C489 H484 0.950 . S
C489 C491 1.327 . S
C489 C495 1.429 . S
C490 C482 1.574 . S
C490 H485 0.949 . S
C490 C496 1.368 1_556 S
C491 C475 1.349 . S
C491 H483 0.950 . S
C491 C489 1.327 . S
C492 C480 1.349 1_556 S
C492 H486 0.950 . S
C492 C493 1.327 . S
C493 H487 0.950 . S
C493 C492 1.327 . S
C493 C497 1.429 1_556 S
C494 C477 1.574 . S
C494 H488 0.949 . S
C494 C498 1.368 . S
C495 C476 1.429 1_554 S
C495 C489 1.429 . S
C495 C496 1.523 . S
C496 C477 1.368 . S
C496 C490 1.368 1_554 S
C496 C495 1.523 . S
C497 C481 1.429 . S
C497 C493 1.429 1_554 S
C497 C498 1.523 . S
C498 C482 1.368 1_554 S
C498 C494 1.368 . S
C498 C497 1.523 . S
H499 C474 0.950 . S
H500 C476 0.950 . S
H501 C477 0.949 . S
H502 C479 0.950 . S
H503 C481 0.950 . S
C504 C505 1.349 . S
C504 C506 1.327 . S
C504 H529 0.950 . S
C505 C504 1.349 . S
C505 C521 1.349 . S
C506 C504 1.327 . S
C506 C525 1.429 . S
C506 H530 0.950 . S
C507 C524 1.574 . S
C507 C526 1.368 . S
C507 H531 0.949 . S
H508 C512 0.949 . S
C509 C510 1.349 . S
C509 C511 1.327 . S
C509 H532 0.950 . S
C510 C509 1.349 . S
C510 C522 1.349 . S
C511 C509 1.327 . S
C511 C527 1.429 . S
C511 H533 0.950 . S
C512 H508 0.949 . S
C512 C520 1.574 . S
C512 C528 1.368 . S
H513 C521 0.950 . S
H514 C519 0.950 . S
H515 C520 0.949 . S
H516 C522 0.950 . S
H517 C523 0.950 . S
H518 C524 0.949 . S
C519 H514 0.950 . S
C519 C521 1.327 . S
C519 C525 1.429 . S
C520 C512 1.574 . S
C520 H515 0.949 . S
C520 C526 1.368 . S
C521 C505 1.349 . S
C521 H513 0.950 . S
C521 C519 1.327 . S
C522 C510 1.349 . S
C522 H516 0.950 . S
C522 C523 1.327 . S
C523 H517 0.950 . S
C523 C522 1.327 . S
C523 C527 1.429 . S
C524 C507 1.574 . S
C524 H518 0.949 . S
C524 C528 1.368 . S
C525 C506 1.429 . S
C525 C519 1.429 . S
C525 C526 1.523 . S
C526 C507 1.368 . S
C526 C520 1.368 . S
C526 C525 1.523 . S
C527 C511 1.429 . S
C527 C523 1.429 . S
C527 C528 1.523 . S
C528 C512 1.368 . S
C528 C524 1.368 . S
C528 C527 1.523 . S
H529 C504 0.950 . S
H530 C506 0.950 . S
H531 C507 0.949 . S
H532 C509 0.950 . S
H533 C511 0.950 . S
C534 C535 1.349 . S
C534 C536 1.327 . S
C534 H559 0.950 . S
C535 C534 1.349 . S
C535 C551 1.349 . S
C536 C534 1.327 . S
C536 C555 1.429 . S
C536 H560 0.950 . S
C537 C554 1.574 . S
C537 C556 1.368 . S
C537 H561 0.949 . S
H538 C542 0.949 . S
C539 C540 1.349 . S
C539 C541 1.327 . S
C539 H562 0.950 . S
C540 C539 1.349 . S
C540 C552 1.349 . S
C541 C539 1.327 . S
C541 C557 1.429 . S
C541 H563 0.950 . S
C542 H538 0.949 . S
C542 C550 1.574 . S
C542 C558 1.368 . S
H543 C551 0.950 . S
H544 C549 0.950 . S
H545 C550 0.949 . S
H546 C552 0.950 . S
H547 C553 0.950 . S
H548 C554 0.949 . S
C549 H544 0.950 . S
C549 C551 1.327 . S
C549 C555 1.429 . S
C550 C542 1.574 . S
C550 H545 0.949 . S
C550 C556 1.368 . S
C551 C535 1.349 . S
C551 H543 0.950 . S
C551 C549 1.327 . S
C552 C540 1.349 . S
C552 H546 0.950 . S
C552 C553 1.327 . S
C553 H547 0.950 . S
C553 C552 1.327 . S
C553 C557 1.429 . S
C554 C537 1.574 . S
C554 H548 0.949 . S
C554 C558 1.368 . S
C555 C536 1.429 . S
C555 C549 1.429 . S
C555 C556 1.523 . S
C556 C537 1.368 . S
C556 C550 1.368 . S
C556 C555 1.523 . S
C557 C541 1.429 . S
C557 C553 1.429 . S
C557 C558 1.523 . S
C558 C542 1.368 . S
C558 C554 1.368 . S
C558 C557 1.523 . S
H559 C534 0.950 . S
H560 C536 0.950 . S
H561 C537 0.949 . S
H562 C539 0.950 . S
H563 C541 0.950 . S
C564 C565 1.349 . S
C564 C566 1.327 . S
C564 H589 0.950 . S
C565 C564 1.349 . S
C565 C581 1.349 . S
C566 C564 1.327 . S
C566 C585 1.429 . S
C566 H590 0.950 . S
C567 C584 1.574 . S
C567 C586 1.368 . S
C567 H591 0.949 . S
H568 C572 0.949 . S
C569 C570 1.349 . S
C569 C571 1.327 . S
C569 H592 0.950 . S
C570 C569 1.349 . S
C570 C582 1.349 . S
C571 C569 1.327 . S
C571 C587 1.429 . S
C571 H593 0.950 . S
C572 H568 0.949 . S
C572 C580 1.574 . S
C572 C588 1.368 . S
H573 C581 0.950 . S
H574 C579 0.950 . S
H575 C580 0.949 . S
H576 C582 0.950 . S
H577 C583 0.950 . S
H578 C584 0.949 . S
C579 H574 0.950 . S
C579 C581 1.327 . S
C579 C585 1.429 . S
C580 C572 1.574 . S
C580 H575 0.949 . S
C580 C586 1.368 . S
C581 C565 1.349 . S
C581 H573 0.950 . S
C581 C579 1.327 . S
C582 C570 1.349 . S
C582 H576 0.950 . S
C582 C583 1.327 . S
C583 H577 0.950 . S
C583 C582 1.327 . S
C583 C587 1.429 . S
C584 C567 1.574 . S
C584 H578 0.949 . S
C584 C588 1.368 . S
C585 C566 1.429 . S
C585 C579 1.429 . S
C585 C586 1.523 . S
C586 C567 1.368 . S
C586 C580 1.368 . S
C586 C585 1.523 . S
C587 C571 1.429 . S
C587 C583 1.429 . S
C587 C588 1.523 . S
C588 C572 1.368 . S
C588 C584 1.368 . S
C588 C587 1.523 . S
H589 C564 0.950 . S
H590 C566 0.950 . S
H591 C567 0.949 . S
H592 C569 0.950 . S
H593 C571 0.950 . S
C594 C595 1.349 . S
C594 C596 1.327 . S
C594 H619 0.950 . S
C595 C594 1.349 . S
C595 C611 1.349 . S
C596 C594 1.327 . S
C596 C615 1.429 . S
C596 H620 0.950 . S
C597 C614 1.574 . S
C597 C616 1.368 . S
C597 H621 0.949 . S
H598 C602 0.949 . S
C599 C600 1.349 . S
C599 C601 1.327 . S
C599 H622 0.950 . S
C600 C599 1.349 . S
C600 C612 1.349 . S
C601 C599 1.327 . S
C601 C617 1.429 . S
C601 H623 0.950 . S
C602 H598 0.949 . S
C602 C610 1.574 . S
C602 C618 1.368 . S
H603 C611 0.950 . S
H604 C609 0.950 . S
H605 C610 0.949 . S
H606 C612 0.950 . S
H607 C613 0.950 . S
H608 C614 0.949 . S
C609 H604 0.950 . S
C609 C611 1.327 . S
C609 C615 1.429 . S
C610 C602 1.574 . S
C610 H605 0.949 . S
C610 C616 1.368 . S
C611 C595 1.349 . S
C611 H603 0.950 . S
C611 C609 1.327 . S
C612 C600 1.349 . S
C612 H606 0.950 . S
C612 C613 1.327 . S
C613 H607 0.950 . S
C613 C612 1.327 . S
C613 C617 1.429 . S
C614 C597 1.574 . S
C614 H608 0.949 . S
C614 C618 1.368 . S
C615 C596 1.429 . S
C615 C609 1.429 . S
C615 C616 1.523 . S
C616 C597 1.368 . S
C616 C610 1.368 . S
C616 C615 1.523 . S
C617 C601 1.429 . S
C617 C613 1.429 . S
C617 C618 1.523 . S
C618 C602 1.368 . S
C618 C614 1.368 . S
C618 C617 1.523 . S
H619 C594 0.950 . S
H620 C596 0.950 . S
H621 C597 0.949 . S
H622 C599 0.950 . S
H623 C601 0.950 . S
C624 C625 1.349 . S
C624 C626 1.327 . S
C624 H649 0.950 . S
C625 C624 1.349 . S
C625 C641 1.349 . S
C626 C624 1.327 . S
C626 C645 1.429 . S
C626 H650 0.950 . S
C627 C644 1.574 . S
C627 C646 1.368 . S
C627 H651 0.949 . S
H628 C632 0.949 . S
C629 C630 1.349 . S
C629 C631 1.327 . S
C629 H652 0.950 . S
C630 C629 1.349 . S
C630 C642 1.349 . S
C631 C629 1.327 . S
C631 C647 1.429 . S
C631 H653 0.950 . S
C632 H628 0.949 . S
C632 C640 1.574 . S
C632 C648 1.368 . S
H633 C641 0.950 . S
H634 C639 0.950 . S
H635 C640 0.949 . S
H636 C642 0.950 . S
H637 C643 0.950 . S
H638 C644 0.949 . S
C639 H634 0.950 . S
C639 C641 1.327 . S
C639 C645 1.429 . S
C640 C632 1.574 . S
C640 H635 0.949 . S
C640 C646 1.368 . S
C641 C625 1.349 . S
C641 H633 0.950 . S
C641 C639 1.327 . S
C642 C630 1.349 . S
C642 H636 0.950 . S
C642 C643 1.327 . S
C643 H637 0.950 . S
C643 C642 1.327 . S
C643 C647 1.429 . S
C644 C627 1.574 . S
C644 H638 0.949 . S
C644 C648 1.368 . S
C645 C626 1.429 . S
C645 C639 1.429 . S
C645 C646 1.523 . S
C646 C627 1.368 . S
C646 C640 1.368 . S
C646 C645 1.523 . S
C647 C631 1.429 . S
C647 C643 1.429 . S
C647 C648 1.523 . S
C648 C632 1.368 . S
C648 C644 1.368 . S
C648 C647 1.523 . S
H649 C624 0.950 . S
H650 C626 0.950 . S
H651 C627 0.949 . S
H652 C629 0.950 . S
H653 C631 0.950 . S
C654 C655 1.349 . S
C654 C656 1.327 . S
C654 H679 0.950 . S
C655 C654 1.349 . S
C655 C671 1.349 . S
C656 C654 1.327 . S
C656 C675 1.429 . S
C656 H680 0.950 . S
C657 C674 1.574 . S
C657 C676 1.368 . S
C657 H681 0.949 . S
H658 C662 0.949 . S
C659 C660 1.349 . S
C659 C661 1.327 . S
C659 H682 0.950 . S
C660 C659 1.349 . S
C660 C672 1.349 . S
C661 C659 1.327 . S
C661 C677 1.429 . S
C661 H683 0.950 . S
C662 H658 0.949 . S
C662 C670 1.574 . S
C662 C678 1.368 . S
H663 C671 0.950 . S
H664 C669 0.950 . S
H665 C670 0.949 . S
H666 C672 0.950 . S
H667 C673 0.950 . S
H668 C674 0.949 . S
C669 H664 0.950 . S
C669 C671 1.327 . S
C669 C675 1.429 . S
C670 C662 1.574 . S
C670 H665 0.949 . S
C670 C676 1.368 . S
C671 C655 1.349 . S
C671 H663 0.950 . S
C671 C669 1.327 . S
C672 C660 1.349 . S
C672 H666 0.950 . S
C672 C673 1.327 . S
C673 H667 0.950 . S
C673 C672 1.327 . S
C673 C677 1.429 . S
C674 C657 1.574 . S
C674 H668 0.949 . S
C674 C678 1.368 . S
C675 C656 1.429 . S
C675 C669 1.429 . S
C675 C676 1.523 . S
C676 C657 1.368 . S
C676 C670 1.368 . S
C676 C675 1.523 . S
C677 C661 1.429 . S
C677 C673 1.429 . S
C677 C678 1.523 . S
C678 C662 1.368 . S
C678 C674 1.368 . S
C678 C677 1.523 . S
H679 C654 0.950 . S
H680 C656 0.950 . S
H681 C657 0.949 . S
H682 C659 0.950 . S
H683 C661 0.950 . S
C684 C685 1.349 . S
C684 C686 1.327 . S
C684 H709 0.950 . S
C685 C684 1.349 . S
C685 C701 1.349 . S
C686 C684 1.327 . S
C686 C705 1.429 . S
C686 H710 0.950 . S
C687 C704 1.574 . S
C687 C706 1.368 . S
C687 H711 0.949 . S
H688 C692 0.949 . S
C689 C690 1.349 . S
C689 C691 1.327 . S
C689 H712 0.950 . S
C690 C689 1.349 . S
C690 C702 1.349 . S
C691 C689 1.327 . S
C691 C707 1.429 . S
C691 H713 0.950 . S
C692 H688 0.949 . S
C692 C700 1.574 . S
C692 C708 1.368 . S
H693 C701 0.950 . S
H694 C699 0.950 . S
H695 C700 0.949 . S
H696 C702 0.950 . S
H697 C703 0.950 . S
H698 C704 0.949 . S
C699 H694 0.950 . S
C699 C701 1.327 . S
C699 C705 1.429 . S
C700 C692 1.574 . S
C700 H695 0.949 . S
C700 C706 1.368 . S
C701 C685 1.349 . S
C701 H693 0.950 . S
C701 C699 1.327 . S
C702 C690 1.349 . S
C702 H696 0.950 . S
C702 C703 1.327 . S
C703 H697 0.950 . S
C703 C702 1.327 . S
C703 C707 1.429 . S
C704 C687 1.574 . S
C704 H698 0.949 . S
C704 C708 1.368 . S
C705 C686 1.429 . S
C705 C699 1.429 . S
C705 C706 1.523 . S
C706 C687 1.368 . S
C706 C700 1.368 . S
C706 C705 1.523 . S
C707 C691 1.429 . S
C707 C703 1.429 . S
C707 C708 1.523 . S
C708 C692 1.368 . S
C708 C704 1.368 . S
C708 C707 1.523 . S
H709 C684 0.950 . S
H710 C686 0.950 . S
H711 C687 0.949 . S
H712 C689 0.950 . S
H713 C691 0.950 . S
C714 C715 1.349 . S
C714 C716 1.327 . S
C714 H739 0.950 . S
C715 C714 1.349 . S
C715 C731 1.349 . S
C716 C714 1.327 . S
C716 C735 1.429 . S
C716 H740 0.950 . S
C717 C734 1.574 . S
C717 C736 1.368 . S
C717 H741 0.949 . S
H718 C722 0.949 . S
C719 C720 1.349 . S
C719 C721 1.327 . S
C719 H742 0.950 . S
C720 C719 1.349 . S
C720 C732 1.349 . S
C721 C719 1.327 . S
C721 C737 1.429 . S
C721 H743 0.950 . S
C722 H718 0.949 . S
C722 C730 1.574 . S
C722 C738 1.368 . S
H723 C731 0.950 . S
H724 C729 0.950 . S
H725 C730 0.949 . S
H726 C732 0.950 . S
H727 C733 0.950 . S
H728 C734 0.949 . S
C729 H724 0.950 . S
C729 C731 1.327 . S
C729 C735 1.429 . S
C730 C722 1.574 . S
C730 H725 0.949 . S
C730 C736 1.368 . S
C731 C715 1.349 . S
C731 H723 0.950 . S
C731 C729 1.327 . S
C732 C720 1.349 . S
C732 H726 0.950 . S
C732 C733 1.327 . S
C733 H727 0.950 . S
C733 C732 1.327 . S
C733 C737 1.429 . S
C734 C717 1.574 . S
C734 H728 0.949 . S
C734 C738 1.368 . S
C735 C716 1.429 . S
C735 C729 1.429 . S
C735 C736 1.523 . S
C736 C717 1.368 . S
C736 C730 1.368 . S
C736 C735 1.523 . S
C737 C721 1.429 . S
C737 C733 1.429 . S
C737 C738 1.523 . S
C738 C722 1.368 . S
C738 C734 1.368 . S
C738 C737 1.523 . S
H739 C714 0.950 . S
H740 C716 0.950 . S
H741 C717 0.949 . S
H742 C719 0.950 . S
H743 C721 0.950 . S
C744 C745 1.349 . S
C744 C746 1.327 . S
C744 H769 0.950 . S
C745 C744 1.349 . S
C745 C761 1.349 . S
C746 C744 1.327 . S
C746 C765 1.429 . S
C746 H770 0.950 . S
C747 C764 1.574 . S
C747 C766 1.368 . S
C747 H771 0.949 . S
H748 C752 0.949 . S
C749 C750 1.349 . S
C749 C751 1.327 . S
C749 H772 0.950 . S
C750 C749 1.349 . S
C750 C762 1.349 . S
C751 C749 1.327 . S
C751 C767 1.429 . S
C751 H773 0.950 . S
C752 H748 0.949 . S
C752 C760 1.574 . S
C752 C768 1.368 . S
H753 C761 0.950 . S
H754 C759 0.950 . S
H755 C760 0.949 . S
H756 C762 0.950 . S
H757 C763 0.950 . S
H758 C764 0.949 . S
C759 H754 0.950 . S
C759 C761 1.327 . S
C759 C765 1.429 . S
C760 C752 1.574 . S
C760 H755 0.949 . S
C760 C766 1.368 . S
C761 C745 1.349 . S
C761 H753 0.950 . S
C761 C759 1.327 . S
C762 C750 1.349 . S
C762 H756 0.950 . S
C762 C763 1.327 . S
C763 H757 0.950 . S
C763 C762 1.327 . S
C763 C767 1.429 . S
C764 C747 1.574 . S
C764 H758 0.949 . S
C764 C768 1.368 . S
C765 C746 1.429 . S
C765 C759 1.429 . S
C765 C766 1.523 . S
C766 C747 1.368 . S
C766 C760 1.368 . S
C766 C765 1.523 . S
C767 C751 1.429 . S
C767 C763 1.429 . S
C767 C768 1.523 . S
C768 C752 1.368 . S
C768 C764 1.368 . S
C768 C767 1.523 . S
H769 C744 0.950 . S
H770 C746 0.950 . S
H771 C747 0.949 . S
H772 C749 0.950 . S
H773 C751 0.950 . S
C774 C775 1.349 . S
C774 C776 1.327 . S
C774 H799 0.950 . S
C775 C774 1.349 . S
C775 C791 1.349 . S
C776 C774 1.327 . S
C776 C795 1.429 . S
C776 H800 0.950 . S
C777 C794 1.574 . S
C777 C796 1.368 . S
C777 H801 0.949 . S
H778 C782 0.949 . S
C779 C780 1.349 . S
C779 C781 1.327 . S
C779 H802 0.950 . S
C780 C779 1.349 . S
C780 C792 1.349 . S
C781 C779 1.327 . S
C781 C797 1.429 . S
C781 H803 0.950 . S
C782 H778 0.949 . S
C782 C790 1.574 . S
C782 C798 1.368 . S
H783 C791 0.950 . S
H784 C789 0.950 . S
H785 C790 0.949 . S
H786 C792 0.950 . S
H787 C793 0.950 . S
H788 C794 0.949 . S
C789 H784 0.950 . S
C789 C791 1.327 . S
C789 C795 1.429 . S
C790 C782 1.574 . S
C790 H785 0.949 . S
C790 C796 1.368 . S
C791 C775 1.349 . S
C791 H783 0.950 . S
C791 C789 1.327 . S
C792 C780 1.349 . S
C792 H786 0.950 . S
C792 C793 1.327 . S
C793 H787 0.950 . S
C793 C792 1.327 . S
C793 C797 1.429 . S
C794 C777 1.574 . S
C794 H788 0.949 . S
C794 C798 1.368 . S
C795 C776 1.429 . S
C795 C789 1.429 . S
C795 C796 1.523 . S
C796 C777 1.368 . S
C796 C790 1.368 . S
C796 C795 1.523 . S
C797 C781 1.429 . S
C797 C793 1.429 . S
C797 C798 1.523 . S
C798 C782 1.368 . S
C798 C794 1.368 . S
C798 C797 1.523 . S
H799 C774 0.950 . S
H800 C776 0.950 . S
H801 C777 0.949 . S
H802 C779 0.950 . S
H803 C781 0.950 . S
C804 C805 1.349 . S
C804 C806 1.327 . S
C804 H829 0.950 . S
C805 C804 1.349 . S
C805 C821 1.349 . S
C806 C804 1.327 . S
C806 C825 1.429 . S
C806 H830 0.950 . S
C807 C824 1.574 . S
C807 C826 1.368 . S
C807 H831 0.949 . S
H808 C812 0.949 . S
C809 C810 1.349 . S
C809 C811 1.327 . S
C809 H832 0.950 . S
C810 C809 1.349 . S
C810 C822 1.349 . S
C811 C809 1.327 . S
C811 C827 1.429 . S
C811 H833 0.950 . S
C812 H808 0.949 . S
C812 C820 1.574 . S
C812 C828 1.368 . S
H813 C821 0.950 . S
H814 C819 0.950 . S
H815 C820 0.949 . S
H816 C822 0.950 . S
H817 C823 0.950 . S
H818 C824 0.949 . S
C819 H814 0.950 . S
C819 C821 1.327 . S
C819 C825 1.429 . S
C820 C812 1.574 . S
C820 H815 0.949 . S
C820 C826 1.368 . S
C821 C805 1.349 . S
C821 H813 0.950 . S
C821 C819 1.327 . S
C822 C810 1.349 . S
C822 H816 0.950 . S
C822 C823 1.327 . S
C823 H817 0.950 . S
C823 C822 1.327 . S
C823 C827 1.429 . S
C824 C807 1.574 . S
C824 H818 0.949 . S
C824 C828 1.368 . S
C825 C806 1.429 . S
C825 C819 1.429 . S
C825 C826 1.523 . S
C826 C807 1.368 . S
C826 C820 1.368 . S
C826 C825 1.523 . S
C827 C811 1.429 . S
C827 C823 1.429 . S
C827 C828 1.523 . S
C828 C812 1.368 . S
C828 C824 1.368 . S
C828 C827 1.523 . S
H829 C804 0.950 . S
H830 C806 0.950 . S
H831 C807 0.949 . S
H832 C809 0.950 . S
H833 C811 0.950 . S
C834 C835 1.349 . S
C834 C836 1.327 . S
C834 H859 0.950 . S
C835 C834 1.349 . S
C835 C851 1.349 . S
C836 C834 1.327 . S
C836 C855 1.429 . S
C836 H860 0.950 . S
C837 C854 1.574 . S
C837 C856 1.368 . S
C837 H861 0.949 . S
H838 C842 0.949 . S
C839 C840 1.349 . S
C839 C841 1.327 . S
C839 H862 0.950 . S
C840 C839 1.349 . S
C840 C852 1.349 . S
C841 C839 1.327 . S
C841 C857 1.429 . S
C841 H863 0.950 . S
C842 H838 0.949 . S
C842 C850 1.574 . S
C842 C858 1.368 . S
H843 C851 0.950 . S
H844 C849 0.950 . S
H845 C850 0.949 . S
H846 C852 0.950 . S
H847 C853 0.950 . S
H848 C854 0.949 . S
C849 H844 0.950 . S
C849 C851 1.327 . S
C849 C855 1.429 . S
C850 C842 1.574 . S
C850 H845 0.949 . S
C850 C856 1.368 . S
C851 C835 1.349 . S
C851 H843 0.950 . S
C851 C849 1.327 . S
C852 C840 1.349 . S
C852 H846 0.950 . S
C852 C853 1.327 . S
C853 H847 0.950 . S
C853 C852 1.327 . S
C853 C857 1.429 . S
C854 C837 1.574 . S
C854 H848 0.949 . S
C854 C858 1.368 . S
C855 C836 1.429 . S
C855 C849 1.429 . S
C855 C856 1.523 . S
C856 C837 1.368 . S
C856 C850 1.368 . S
C856 C855 1.523 . S
C857 C841 1.429 . S
C857 C853 1.429 . S
C857 C858 1.523 . S
C858 C842 1.368 . S
C858 C854 1.368 . S
C858 C857 1.523 . S
H859 C834 0.950 . S
H860 C836 0.950 . S
H861 C837 0.949 . S
H862 C839 0.950 . S
H863 C841 0.950 . S
C265 N79 1.271 1_556 S
C270 N13 1.271 1_556 S
C295 N46 1.271 1_556 S
C300 N112 1.271 1_556 S
C325 N145 1.271 . S
C330 N211 1.271 . S
C355 N178 1.271 . S
C360 N244 1.271 . S
C385 C120 1.560 . S
C390 N2 1.507 . S
C415 C21 1.560 . S
C420 N35 1.507 . S
C445 N68 1.507 . S
C450 C54 1.560 . S
C475 N101 1.507 . S
C480 C87 1.560 . S
C505 C186 1.560 1_545 S
C510 N134 1.507 . S
C535 C219 1.560 1_655 S
C540 N167 1.507 . S
C565 C252 1.560 1_565 S
C570 N200 1.507 . S
C595 C153 1.560 1_455 S
C600 N233 1.507 . S
C625 C7 1.473 . S
C630 C238 1.473 . S
C655 C40 1.473 . S
C660 C139 1.473 . S
C685 C172 1.473 . S
C690 C73 1.473 . S
C715 C205 1.473 . S
C720 C106 1.473 . S
C745 C84 1.417 . S
C750 C183 1.417 . S
C775 C216 1.417 . S
C780 C117 1.417 . S
C805 C249 1.417 . S
C810 C18 1.417 . S
C835 C150 1.417 . S
C840 C51 1.417 . S
