# Generated by pormake.
# Topology umy, (4)-cn, num edge types: 1
# Building blocks:
#     Node 0, Type 0, BuildingBlock: QUQFOY_clean_sbu_1, # of connection points: 4
#     Node 1, Type 0, BuildingBlock: QUQFOY_clean_sbu_1, # of connection points: 4
#     Node 2, Type 0, BuildingBlock: QUQFOY_clean_sbu_1, # of connection points: 4
#     Node 3, Type 0, BuildingBlock: QUQFOY_clean_sbu_1, # of connection points: 4
#     Node 4, Type 0, BuildingBlock: QUQFOY_clean_sbu_1, # of connection points: 4
#     Node 5, Type 0, BuildingBlock: QUQFOY_clean_sbu_1, # of connection points: 4
#     Node 6, Type 0, BuildingBlock: QUQFOY_clean_sbu_1, # of connection points: 4
#     Node 7, Type 0, BuildingBlock: QUQFOY_clean_sbu_1, # of connection points: 4
#     Node 8, Type 0, BuildingBlock: QUQFOY_clean_sbu_1, # of connection points: 4
#     Node 9, Type 0, BuildingBlock: QUQFOY_clean_sbu_1, # of connection points: 4
#     Node 10, Type 0, BuildingBlock: QUQFOY_clean_sbu_1, # of connection points: 4
#     Node 11, Type 0, BuildingBlock: QUQFOY_clean_sbu_1, # of connection points: 4
#     Edge 12, Type (0, 0), BuildingBlock: CIFDUS_clean_linker_0, # of connection points: 2
#     Edge 13, Type (0, 0), BuildingBlock: CIFDUS_clean_linker_0, # of connection points: 2
#     Edge 14, Type (0, 0), BuildingBlock: CIFDUS_clean_linker_0, # of connection points: 2
#     Edge 15, Type (0, 0), BuildingBlock: CIFDUS_clean_linker_0, # of connection points: 2
#     Edge 16, Type (0, 0), BuildingBlock: CIFDUS_clean_linker_0, # of connection points: 2
#     Edge 17, Type (0, 0), BuildingBlock: CIFDUS_clean_linker_0, # of connection points: 2
#     Edge 18, Type (0, 0), BuildingBlock: CIFDUS_clean_linker_0, # of connection points: 2
#     Edge 19, Type (0, 0), BuildingBlock: CIFDUS_clean_linker_0, # of connection points: 2
#     Edge 20, Type (0, 0), BuildingBlock: CIFDUS_clean_linker_0, # of connection points: 2
#     Edge 21, Type (0, 0), BuildingBlock: CIFDUS_clean_linker_0, # of connection points: 2
#     Edge 22, Type (0, 0), BuildingBlock: CIFDUS_clean_linker_0, # of connection points: 2
#     Edge 23, Type (0, 0), BuildingBlock: CIFDUS_clean_linker_0, # of connection points: 2
#     Edge 24, Type (0, 0), BuildingBlock: CIFDUS_clean_linker_0, # of connection points: 2
#     Edge 25, Type (0, 0), BuildingBlock: CIFDUS_clean_linker_0, # of connection points: 2
#     Edge 26, Type (0, 0), BuildingBlock: CIFDUS_clean_linker_0, # of connection points: 2
#     Edge 27, Type (0, 0), BuildingBlock: CIFDUS_clean_linker_0, # of connection points: 2
#     Edge 28, Type (0, 0), BuildingBlock: CIFDUS_clean_linker_0, # of connection points: 2
#     Edge 29, Type (0, 0), BuildingBlock: CIFDUS_clean_linker_0, # of connection points: 2
#     Edge 30, Type (0, 0), BuildingBlock: CIFDUS_clean_linker_0, # of connection points: 2
#     Edge 31, Type (0, 0), BuildingBlock: CIFDUS_clean_linker_0, # of connection points: 2
#     Edge 32, Type (0, 0), BuildingBlock: CIFDUS_clean_linker_0, # of connection points: 2
#     Edge 33, Type (0, 0), BuildingBlock: CIFDUS_clean_linker_0, # of connection points: 2
#     Edge 34, Type (0, 0), BuildingBlock: CIFDUS_clean_linker_0, # of connection points: 2
#     Edge 35, Type (0, 0), BuildingBlock: CIFDUS_clean_linker_0, # of connection points: 2
# Relax obj value: 0.087
# Max RMSD: 0.117
# Mean RMSD: 0.117
data_MOF--net-umy--node1-QUQFOY_clean_sbu_1--edge1-CIFDUS_clean_linker_0
_symmetry_space_group_name_H-M    P1
_symmetry_Int_Tables_number       1
_symmetry_cell_setting            triclinic
loop_
_symmetry_equiv_pos_as_xyz
'x, y, z'
_cell_length_a     36.113736
_cell_length_b     36.034937
_cell_length_c     45.415337
_cell_angle_alpha  89.877046
_cell_angle_beta   90.050899
_cell_angle_gamma 119.88196
loop_
_atom_site_label
_atom_site_type_symbol
_atom_site_fract_x
_atom_site_fract_y
_atom_site_fract_z
_atom_type_partial_charge
O0 O 1.00285 0.32896 0.15088 0.0
Cd1 Cd 0.06107 0.38441 0.14707 0.0
Cd2 Cd 0.08824 0.32614 0.12869 0.0
O3 O 0.02455 0.28346 0.13878 0.0
O4 O 0.04884 0.43231 0.15247 0.0
O5 O 0.07588 0.423 0.1114 0.0
C6 C 0.06304 0.44505 0.12622 0.0
C7 C 0.12025 0.31233 0.08821 0.0
C8 C 0.99528 0.29077 0.14755 0.0
C9 C 0.12904 0.37929 0.18296 0.0
O10 O 0.12848 0.35282 0.16428 0.0
O11 O 0.10445 0.39486 0.18022 0.0
O12 O 0.10755 0.28782 0.111 0.0
O13 O 0.11373 0.34445 0.08774 0.0
O14 O 0.69652 1.0081 0.32341 0.0
Cd15 Cd 0.70323 0.06734 0.31456 0.0
Cd16 Cd 0.78256 0.08562 0.29338 0.0
O17 O 0.76039 0.02303 0.30766 0.0
O18 O 0.64506 0.06102 0.31471 0.0
O19 O 0.6862 0.07954 0.2751 0.0
C20 C 0.65052 0.0714 0.2872 0.0
C21 C 0.8226 0.11141 0.24985 0.0
C22 C 0.72468 0.9972 0.31954 0.0
C23 C 0.77998 0.13813 0.34435 0.0
O24 O 0.80234 0.13165 0.32571 0.0
O25 O 0.73948 0.11556 0.34416 0.0
O26 O 0.8368 0.10051 0.27232 0.0
O27 O 0.78442 0.10577 0.25136 0.0
O28 O 0.70858 0.68861 0.4866 0.0
Cd29 Cd 0.65531 0.69491 0.48135 0.0
Cd30 Cd 0.71313 0.77782 0.46602 0.0
O31 O 0.75528 0.75601 0.47631 0.0
O32 O 0.60463 0.63619 0.4791 0.0
O33 O 0.62507 0.68269 0.44231 0.0
C34 C 0.59865 0.64516 0.45264 0.0
C35 C 0.72585 0.82224 0.42483 0.0
C36 C 0.74704 0.71879 0.48442 0.0
C37 C 0.65881 0.76455 0.51954 0.0
O38 O 0.68621 0.7912 0.50162 0.0
O39 O 0.64278 0.72453 0.51568 0.0
O40 O 0.7507 0.83488 0.4474 0.0
O41 O 0.69399 0.78358 0.42505 0.0
O42 O 0.03956 0.69957 0.64917 0.0
Cd43 Cd 0.98097 0.64505 0.64407 0.0
Cd44 Cd 0.95417 0.70204 0.6274 0.0
O45 O 1.01756 0.74505 0.6378 0.0
O46 O 0.9908 0.59523 0.64281 0.0
O47 O 0.96413 0.61376 0.60537 0.0
C48 C 0.97608 0.58823 0.61629 0.0
C49 C 0.92301 0.71647 0.58668 0.0
C50 C 0.04695 0.73779 0.64637 0.0
C51 C 0.91296 0.64714 0.681 0.0
O52 O 0.91341 0.67409 0.66269 0.0
O53 O 0.93786 0.63202 0.67786 0.0
O54 O 0.93458 0.74019 0.60981 0.0
O55 O 0.92998 0.68465 0.5861 0.0
O56 O 0.34412 0.02429 0.82049 0.0
Cd57 Cd 0.33747 0.96495 0.81256 0.0
Cd58 Cd 0.25864 0.94635 0.79066 0.0
O59 O 0.28068 1.00929 0.80375 0.0
O60 O 0.39554 0.97118 0.81317 0.0
O61 O 0.35464 0.95236 0.77341 0.0
C62 C 0.39023 0.96059 0.78573 0.0
C63 C 0.21918 0.91961 0.74711 0.0
C64 C 0.3162 0.03528 0.81575 0.0
C65 C 0.26061 0.89464 0.84252 0.0
O66 O 0.23843 0.90097 0.82359 0.0
O67 O 0.3011 0.91711 0.84241 0.0
O68 O 0.20471 0.93103 0.76909 0.0
O69 O 0.25732 0.92524 0.7491 0.0
O70 O 0.33641 0.33691 0.99097 0.0
Cd71 Cd 0.38803 0.32873 0.98248 0.0
Cd72 Cd 0.32679 0.24957 0.96234 0.0
O73 O 0.28705 0.27292 0.97574 0.0
O74 O 0.44055 0.38634 0.98077 0.0
O75 O 0.41542 0.34284 0.94244 0.0
C76 C 0.44394 0.37903 0.95338 0.0
C77 C 0.3131 0.20957 0.91894 0.0
C78 C 0.29734 0.30907 0.98713 0.0
C79 C 0.38129 0.25221 0.01363 0.0
O80 O 0.35229 0.22959 0.9952 0.0
O81 O 0.39966 0.29282 0.01283 0.0
O82 O 0.28753 0.19548 0.94112 0.0
O83 O 0.34584 0.24759 0.92068 0.0
O84 O 0.70797 0.0279 0.68839 0.0
Cd85 Cd 0.654 0.96872 0.6926 0.0
Cd86 Cd 0.7111 0.94225 0.70875 0.0
O87 O 0.75382 1.00617 0.69901 0.0
O88 O 0.60407 0.97817 0.6932 0.0
O89 O 0.62119 0.95033 0.7307 0.0
C90 C 0.59602 0.96247 0.71947 0.0
C91 C 0.72397 0.90966 0.7494 0.0
C92 C 0.74621 0.0356 0.69096 0.0
C93 C 0.6579 0.90272 0.65445 0.0
O94 O 0.68443 0.90262 0.6728 0.0
O95 O 0.64235 0.92719 0.65804 0.0
O96 O 0.74861 0.92217 0.72672 0.0
O97 O 0.6922 0.91664 0.74961 0.0
O98 O 0.69024 0.68974 0.84528 0.0
Cd99 Cd 0.69526 0.63547 0.84989 0.0
Cd100 Cd 0.77618 0.69123 0.86782 0.0
O101 O 0.75642 0.73542 0.85877 0.0
O102 O 0.63632 0.5849 0.85194 0.0
O103 O 0.68248 0.6047 0.88877 0.0
C104 C 0.64495 0.57863 0.87844 0.0
C105 C 0.81327 0.69397 0.91095 0.0
C106 C 0.72013 0.728 0.84931 0.0
C107 C 0.7666 0.64087 0.81285 0.0
O108 O 0.79205 0.66767 0.83154 0.0
O109 O 0.72642 0.62403 0.81594 0.0
O110 O 0.83031 0.72313 0.89095 0.0
O111 O 0.77423 0.66393 0.90717 0.0
O112 O 1.01156 0.69899 0.0092 0.0
Cd113 Cd 0.06803 0.6989 0.01627 0.0
Cd114 Cd 0.0947 0.78042 0.04144 0.0
O115 O 0.03348 0.76362 0.02721 0.0
O116 O 0.05625 0.63914 0.0099 0.0
O117 O 0.07756 0.67246 0.05264 0.0
C118 C 0.06683 0.6387 0.03696 0.0
C119 C 0.12193 0.82148 0.08453 0.0
C120 C 1.00502 0.72991 0.01448 0.0
C121 C 0.14319 0.7755 0.9887 0.0
O122 O 0.14032 0.79816 0.00897 0.0
O123 O 0.11704 0.73554 0.98732 0.0
O124 O 0.11251 0.83611 0.0616 0.0
O125 O 0.11444 0.78255 0.0837 0.0
O126 O 0.33619 1.00641 0.18427 0.0
Cd127 Cd 0.38865 0.06586 0.1919 0.0
Cd128 Cd 0.32804 0.08513 0.21288 0.0
O129 O 0.28766 0.02208 0.19987 0.0
O130 O 0.44044 0.05938 0.19183 0.0
O131 O 0.41854 0.07938 0.23108 0.0
C132 C 0.44583 0.0707 0.21913 0.0
C133 C 0.31407 0.11226 0.25582 0.0
C134 C 0.29732 0.99575 0.18848 0.0
C135 C 0.38202 0.13586 0.16093 0.0
O136 O 0.35367 0.13018 0.17975 0.0
O137 O 0.39985 0.11309 0.16143 0.0
O138 O 0.28883 0.10069 0.23347 0.0
O139 O 0.34664 0.1066 0.25454 0.0
O140 O 0.35064 0.3337 0.34832 0.0
Cd141 Cd 0.34605 0.38828 0.35176 0.0
Cd142 Cd 0.26532 0.33359 0.37036 0.0
O143 O 0.28466 0.28882 0.36266 0.0
O144 O 0.40503 0.43868 0.35336 0.0
O145 O 0.35894 0.41973 0.39022 0.0
C146 C 0.39647 0.44548 0.37971 0.0
C147 C 0.22805 0.33196 0.41302 0.0
C148 C 0.32075 0.29568 0.35323 0.0
C149 C 0.27487 0.38257 0.31449 0.0
O150 O 0.24949 0.35628 0.33349 0.0
O151 O 0.31505 0.39926 0.31746 0.0
O152 O 0.21107 0.30238 0.39338 0.0
O153 O 0.26715 0.36184 0.40918 0.0
O154 O 0.02997 0.32952 0.51059 0.0
Cd155 Cd 0.97349 0.32891 0.51898 0.0
Cd156 Cd 0.94658 0.24859 0.5426 0.0
O157 O 1.00729 0.2644 0.52796 0.0
O158 O 0.98399 0.38879 0.5194 0.0
O159 O 0.96254 0.34633 0.55854 0.0
C160 C 0.97298 0.38299 0.54679 0.0
C161 C 0.92031 0.20777 0.58591 0.0
C162 C 0.03601 0.29815 0.51538 0.0
C163 C 0.89785 0.2551 0.49055 0.0
O164 O 0.90045 0.23178 0.51053 0.0
O165 O 0.92453 0.29496 0.48944 0.0
O166 O 0.92839 0.19274 0.56267 0.0
O167 O 0.92837 0.24691 0.58518 0.0
H168 H 0.0661 0.6176 0.09473 0.0
H169 H 0.06803 0.57425 0.00657 0.0
H170 H 0.06863 0.51142 0.02619 0.0
H171 H 0.06779 0.46806 0.06849 0.0
H172 H 0.06157 0.50933 0.15653 0.0
H173 H 0.06353 0.57342 0.13695 0.0
C174 C 0.06676 0.59444 0.07984 0.0
C175 C 0.06711 0.6007 0.04925 0.0
C176 C 0.0663 0.55788 0.09127 0.0
C177 C 0.06758 0.57017 0.03023 0.0
C178 C 0.06802 0.53422 0.04142 0.0
C179 C 0.06702 0.49118 0.08335 0.0
C180 C 0.06466 0.48395 0.11391 0.0
C181 C 0.06728 0.52765 0.07191 0.0
C182 C 0.06325 0.51402 0.13289 0.0
C183 C 0.06444 0.55076 0.12173 0.0
H184 H 0.58141 0.07367 0.3086 0.0
H185 H 0.64326 0.07346 0.2274 0.0
H186 H 0.58554 0.0735 0.19923 0.0
H187 H 0.51666 0.07187 0.19768 0.0
H188 H 0.4562 0.07485 0.27886 0.0
H189 H 0.51431 0.0756 0.30702 0.0
C190 C 0.5823 0.07368 0.28473 0.0
C191 C 0.61646 0.07324 0.27013 0.0
C192 C 0.54923 0.07416 0.26868 0.0
C193 C 0.61735 0.07376 0.23919 0.0
C194 C 0.5843 0.0737 0.22307 0.0
C195 C 0.5162 0.07273 0.22154 0.0
C196 C 0.48195 0.07299 0.23615 0.0
C197 C 0.54995 0.07361 0.23758 0.0
C198 C 0.48213 0.07461 0.26706 0.0
C199 C 0.51532 0.07495 0.28319 0.0
H200 H 0.52579 0.57643 0.4723 0.0
H201 H 0.59124 0.64159 0.39273 0.0
H202 H 0.53411 0.58574 0.36308 0.0
H203 H 0.4668 0.517 0.35986 0.0
H204 H 0.39959 0.45394 0.43947 0.0
H205 H 0.45606 0.51047 0.46905 0.0
C206 C 0.52748 0.57845 0.44846 0.0
C207 C 0.56288 0.61286 0.4347 0.0
C208 C 0.49424 0.54658 0.4316 0.0
C209 C 0.56434 0.61541 0.40382 0.0
C210 C 0.53175 0.58342 0.38687 0.0
C211 C 0.46448 0.51572 0.38369 0.0
C212 C 0.42927 0.48113 0.39748 0.0
C213 C 0.49676 0.54865 0.40053 0.0
C214 C 0.42637 0.4802 0.42834 0.0
C215 C 0.45871 0.51245 0.44526 0.0
H216 H 0.97718 0.51813 0.63716 0.0
H217 H 0.96894 0.57732 0.55663 0.0
H218 H 0.96756 0.51919 0.52802 0.0
H219 H 0.97004 0.45219 0.52589 0.0
H220 H 0.97449 0.39115 0.60659 0.0
H221 H 0.97593 0.44931 0.63516 0.0
C222 C 0.97507 0.5183 0.61334 0.0
C223 C 0.9735 0.55218 0.59902 0.0
C224 C 0.97366 0.48447 0.59709 0.0
C225 C 0.97019 0.55164 0.56818 0.0
C226 C 0.96951 0.51846 0.55182 0.0
C227 C 0.97136 0.45164 0.54974 0.0
C228 C 0.97252 0.41757 0.5641 0.0
C229 C 0.97147 0.48484 0.56603 0.0
C230 C 0.9736 0.417 0.59501 0.0
C231 C 0.9745 0.45029 0.61135 0.0
H232 H 0.5268 0.96377 0.69747 0.0
H233 H 0.58269 0.95347 0.77891 0.0
H234 H 0.52367 0.95159 0.80658 0.0
H235 H 0.4573 0.95502 0.80767 0.0
H236 H 0.39979 0.96197 0.72604 0.0
H237 H 0.45827 0.96283 0.69837 0.0
C238 C 0.52604 0.96105 0.72128 0.0
C239 C 0.55927 0.95915 0.73615 0.0
C240 C 0.49175 0.95943 0.73699 0.0
C241 C 0.55752 0.95503 0.76695 0.0
C242 C 0.52384 0.95406 0.78278 0.0
C243 C 0.45753 0.95665 0.78381 0.0
C244 C 0.42443 0.9588 0.76893 0.0
C245 C 0.49097 0.95659 0.76804 0.0
C246 C 0.42488 0.96031 0.73802 0.0
C247 C 0.45837 0.96092 0.72219 0.0
H248 H 0.5182 0.447 0.97228 0.0
H249 H 0.44865 0.38432 0.89337 0.0
H250 H 0.50491 0.44031 0.86323 0.0
H251 H 0.57282 0.50826 0.85936 0.0
H252 H 0.64388 0.56921 0.93816 0.0
H253 H 0.58816 0.51262 0.96826 0.0
C254 C 0.51539 0.44555 0.94847 0.0
C255 C 0.4791 0.41172 0.9351 0.0
C256 C 0.54811 0.47757 0.93127 0.0
C257 C 0.47622 0.41 0.90422 0.0
C258 C 0.50833 0.44208 0.88697 0.0
C259 C 0.57616 0.50911 0.88313 0.0
C260 C 0.6123 0.54311 0.89652 0.0
C261 C 0.54424 0.47619 0.90027 0.0
C262 C 0.6164 0.54344 0.9273 0.0
C263 C 0.58449 0.51114 0.94453 0.0
H264 H 0.18625 0.37176 0.05521 0.0
H265 H 0.10818 0.23581 0.06926 0.0
H266 H 0.15305 0.22256 0.0356 0.0
H267 H 0.21875 0.2498 0.00658 0.0
H268 H 0.30146 0.38598 0.99663 0.0
H269 H 0.25058 0.39902 0.02386 0.0
C270 C 0.17865 0.33925 0.05036 0.0
C271 C 0.14389 0.30478 0.06457 0.0
C272 C 0.20573 0.33196 0.03189 0.0
C273 C 0.13479 0.26284 0.05857 0.0
C274 C 0.1605 0.25525 0.03938 0.0
C275 C 0.22523 0.28232 0.00982 0.0
C276 C 0.2638 0.31686 0.99951 0.0
C277 C 0.19669 0.28959 0.02653 0.0
C278 C 0.27202 0.35883 0.00436 0.0
C279 C 0.24298 0.3663 0.02001 0.0
H280 H 0.82341 0.17305 0.21468 0.0
H281 H 0.88751 0.10084 0.22974 0.0
H282 H 0.9436 0.1464 0.19502 0.0
H283 H 0.97944 0.21249 0.166 0.0
H284 H 0.91932 0.28928 0.15483 0.0
H285 H 0.85659 0.23613 0.18188 0.0
C286 C 0.8491 0.16668 0.20973 0.0
C287 C 0.85135 0.13365 0.22473 0.0
C288 C 0.88229 0.19423 0.19065 0.0
C289 C 0.88516 0.12615 0.21851 0.0
C290 C 0.91733 0.15229 0.19873 0.0
C291 C 0.95219 0.21712 0.16882 0.0
C292 C 0.95418 0.25492 0.15846 0.0
C293 C 0.91701 0.18732 0.18547 0.0
C294 C 0.91872 0.26057 0.16267 0.0
C295 C 0.88288 0.23024 0.17825 0.0
H296 H 0.66572 0.82643 0.39098 0.0
H297 H 0.80158 0.887 0.40525 0.0
H298 H 0.81354 0.94351 0.37026 0.0
H299 H 0.78506 0.97992 0.33994 0.0
H300 H 0.64886 0.92387 0.3297 0.0
H301 H 0.63729 0.86134 0.35833 0.0
C302 C 0.69794 0.85156 0.38591 0.0
C303 C 0.73275 0.85253 0.40058 0.0
C304 C 0.70446 0.885 0.36663 0.0
C305 C 0.7743 0.88565 0.39425 0.0
C306 C 0.78115 0.91801 0.37429 0.0
C307 C 0.75288 0.95359 0.34341 0.0
C308 C 0.71788 0.9565 0.3326 0.0
C309 C 0.74643 0.91864 0.36094 0.0
C310 C 0.67634 0.92242 0.33778 0.0
C311 C 0.66971 0.88672 0.35424 0.0
H312 H 0.82395 0.77899 0.50562 0.0
H313 H 0.74734 0.64327 0.49006 0.0
H314 H 0.79889 0.63103 0.51717 0.0
H315 H 0.86106 0.65811 0.55061 0.0
H316 H 0.9328 0.79307 0.56992 0.0
H317 H 0.88832 0.80647 0.53594 0.0
C318 C 0.819 0.74682 0.50754 0.0
C319 C 0.78181 0.71211 0.49581 0.0
C320 C 0.8478 0.73985 0.52421 0.0
C321 C 0.77566 0.67056 0.49891 0.0
C322 C 0.80505 0.66352 0.51454 0.0
C323 C 0.86743 0.69051 0.54684 0.0
C324 C 0.90012 0.72457 0.56273 0.0
C325 C 0.84055 0.69778 0.52809 0.0
C326 C 0.9077 0.76633 0.55801 0.0
C327 C 0.88223 0.774 0.53862 0.0
H328 H 0.06312 0.8167 0.66326 0.0
H329 H 0.12243 0.73875 0.65528 0.0
H330 H 0.18502 0.79244 0.68207 0.0
H331 H 0.21829 0.85663 0.71368 0.0
H332 H 0.15497 0.93018 0.72548 0.0
H333 H 0.09904 0.88368 0.69104 0.0
C334 C 0.09013 0.81186 0.66675 0.0
C335 C 0.08794 0.77361 0.65737 0.0
C336 C 0.12525 0.84205 0.68318 0.0
C337 C 0.12316 0.76778 0.66238 0.0
C338 C 0.15893 0.79843 0.6778 0.0
C339 C 0.19282 0.86305 0.70807 0.0
C340 C 0.19071 0.89675 0.72206 0.0
C341 C 0.15971 0.835 0.68919 0.0
C342 C 0.15718 0.90436 0.71501 0.0
C343 C 0.12511 0.87768 0.69541 0.0
H344 H 0.25564 0.05419 0.83312 0.0
H345 H 0.39207 0.10794 0.82685 0.0
H346 H 0.40322 0.17077 0.85465 0.0
H347 H 0.37407 0.20587 0.88616 0.0
H348 H 0.23772 0.14759 0.89669 0.0
H349 H 0.22657 0.0916 0.86161 0.0
C350 C 0.28782 0.08011 0.83724 0.0
C351 C 0.32297 0.07638 0.82792 0.0
C352 C 0.29396 0.11525 0.8543 0.0
C353 C 0.36447 0.10998 0.83385 0.0
C354 C 0.37086 0.14587 0.84983 0.0
C355 C 0.34195 0.18148 0.88015 0.0
C356 C 0.30674 0.18088 0.89386 0.0
C357 C 0.33585 0.14824 0.86096 0.0
C358 C 0.26529 0.14867 0.88638 0.0
C359 C 0.25892 0.11657 0.86642 0.0
H360 H 0.7817 0.80568 0.82986 0.0
H361 H 0.64563 0.72971 0.8431 0.0
H362 H 0.63522 0.78302 0.81659 0.0
H363 H 0.6641 0.84663 0.78421 0.0
H364 H 0.79946 0.91786 0.76702 0.0
H365 H 0.81092 0.8715 0.80059 0.0
C366 C 0.74985 0.80128 0.82759 0.0
C367 C 0.71451 0.76377 0.83849 0.0
C368 C 0.74395 0.8311 0.81121 0.0
C369 C 0.67338 0.75828 0.8349 0.0
C370 C 0.66739 0.78868 0.81962 0.0
C371 C 0.69614 0.85248 0.78836 0.0
C372 C 0.73089 0.88559 0.77317 0.0
C373 C 0.70231 0.82454 0.80685 0.0
C374 C 0.7722 0.89246 0.77838 0.0
C375 C 0.77877 0.86592 0.79754 0.0
H376 H 0.878 0.76195 0.93863 0.0
H377 H 0.80771 0.62404 0.93838 0.0
H378 H 0.85917 0.62245 0.9728 0.0
H379 H 0.9288 0.66064 0.99842 0.0
H380 H 0.99647 0.79874 1.00059 0.0
H381 H 0.94114 0.79985 0.97048 0.0
C382 C 0.87358 0.73159 0.94656 0.0
C383 C 0.83946 0.69319 0.93577 0.0
C384 C 0.90298 0.73095 0.96659 0.0
C385 C 0.83373 0.65403 0.94643 0.0
C386 C 0.8633 0.65312 0.96596 0.0
C387 C 0.93099 0.69093 0.99277 0.0
C388 C 0.96707 0.72954 0.00149 0.0
C389 C 0.89875 0.6914 0.97553 0.0
C390 C 0.96914 0.76851 0.99423 0.0
C391 C 0.93761 0.76923 0.9768 0.0
H392 H 0.21851 0.97729 0.17006 0.0
H393 H 0.3005 0.92261 0.17824 0.0
H394 H 0.24935 0.85974 0.15034 0.0
H395 H 0.18576 0.82475 0.11822 0.0
H396 H 0.10866 0.88412 0.10577 0.0
H397 H 0.15285 0.94021 0.14091 0.0
C398 C 0.22473 0.95117 0.16634 0.0
C399 C 0.26327 0.95465 0.17624 0.0
C400 C 0.19608 0.91602 0.1492 0.0
C401 C 0.27112 0.92077 0.17081 0.0
C402 C 0.24193 0.88486 0.15476 0.0
C403 C 0.17811 0.84941 0.12383 0.0
C404 C 0.14394 0.85028 0.10959 0.0
C405 C 0.20492 0.88273 0.14306 0.0
C406 C 0.13481 0.88284 0.11652 0.0
C407 C 0.16016 0.91499 0.13652 0.0
H408 H 0.37494 0.17531 0.28971 0.0
H409 H 0.23884 0.10208 0.27604 0.0
H410 H 0.2284 0.14898 0.3096 0.0
H411 H 0.25858 0.21644 0.33691 0.0
H412 H 0.39519 0.29412 0.3464 0.0
H413 H 0.40484 0.23981 0.32093 0.0
C414 C 0.34297 0.16903 0.29473 0.0
C415 C 0.3077 0.13532 0.28045 0.0
C416 C 0.33736 0.19733 0.31307 0.0
C417 C 0.26647 0.12791 0.28674 0.0
C418 C 0.26051 0.15482 0.30584 0.0
C419 C 0.29041 0.22101 0.33409 0.0
C420 C 0.32611 0.25936 0.34348 0.0
C421 C 0.2958 0.1905 0.3183 0.0
C422 C 0.36717 0.26497 0.33929 0.0
C423 C 0.37272 0.23398 0.3246 0.0
H424 H 0.16284 0.26455 0.44081 0.0
H425 H 0.23384 0.40244 0.4396 0.0
H426 H 0.18221 0.40471 0.47343 0.0
H427 H 0.11236 0.36706 0.49889 0.0
H428 H 0.04396 0.22895 0.50188 0.0
H429 H 0.0993 0.22724 0.47229 0.0
C430 C 0.16737 0.29507 0.4484 0.0
C431 C 0.20175 0.33325 0.43752 0.0
C432 C 0.13784 0.29609 0.46804 0.0
C433 C 0.20762 0.3726 0.44773 0.0
C434 C 0.17794 0.37391 0.46692 0.0
C435 C 0.10998 0.33665 0.49349 0.0
C436 C 0.07372 0.29821 0.50232 0.0
C437 C 0.14224 0.33582 0.47657 0.0
C438 C 0.07141 0.25906 0.49542 0.0
C439 C 0.10296 0.25799 0.4783 0.0
H440 H 0.86054 0.20749 0.62252 0.0
H441 H 0.93164 0.14294 0.60519 0.0
H442 H 0.88796 0.08713 0.64071 0.0
H443 H 0.82355 0.05157 0.67107 0.0
H444 H 0.7473 0.11171 0.68446 0.0
H445 H 0.79911 0.17447 0.65666 0.0
C446 C 0.86707 0.18175 0.62715 0.0
C447 C 0.89921 0.17925 0.61132 0.0
C448 C 0.84052 0.14868 0.64669 0.0
C449 C 0.90697 0.14542 0.61709 0.0
C450 C 0.88192 0.11344 0.63733 0.0
C451 C 0.81877 0.07884 0.66857 0.0
C452 C 0.7815 0.07685 0.67977 0.0
C453 C 0.84768 0.11395 0.65147 0.0
C454 C 0.77563 0.11233 0.67598 0.0
C455 C 0.80517 0.14817 0.65996 0.0
H456 H 0.20421 0.39023 0.30953 0.0
H457 H 0.30573 0.39152 0.25886 0.0
H458 H 0.27065 0.39297 0.2131 0.0
H459 H 0.20754 0.38704 0.18763 0.0
H460 H 0.10876 0.39116 0.23833 0.0
H461 H 0.14647 0.39495 0.28395 0.0
C462 C 0.21886 0.39148 0.28843 0.0
C463 C 0.25714 0.39031 0.28743 0.0
C464 C 0.19891 0.39305 0.26228 0.0
C465 C 0.27626 0.39248 0.26009 0.0
C466 C 0.2561 0.39305 0.23394 0.0
C467 C 0.1947 0.3894 0.20868 0.0
C468 C 0.1553 0.38835 0.20974 0.0
C469 C 0.21691 0.39231 0.23478 0.0
C470 C 0.13912 0.39199 0.23703 0.0
C471 C 0.16052 0.3939 0.26311 0.0
H472 H 0.90852 0.27596 0.43278 0.0
H473 H 0.81739 0.1869 0.49506 0.0
H474 H 0.76932 0.14602 0.45476 0.0
H475 H 0.75723 0.131 0.40171 0.0
H476 H 0.85279 0.21506 0.3397 0.0
H477 H 0.89493 0.26279 0.37977 0.0
C478 C 0.8777 0.24814 0.43749 0.0
C479 C 0.86631 0.23447 0.46675 0.0
C480 C 0.85126 0.2237 0.41418 0.0
C481 C 0.82673 0.19792 0.47263 0.0
C482 C 0.79934 0.17452 0.44962 0.0
C483 C 0.78684 0.16027 0.39701 0.0
C484 C 0.80192 0.16973 0.36791 0.0
C485 C 0.81182 0.18641 0.42028 0.0
C486 C 0.84068 0.20724 0.36201 0.0
C487 C 0.86478 0.23443 0.3849 0.0
H488 H 0.64897 0.82385 0.6478 0.0
H489 H 0.64798 0.9266 0.59966 0.0
H490 H 0.64552 0.89156 0.55307 0.0
H491 H 0.65103 0.83518 0.52607 0.0
H492 H 0.64654 0.72973 0.57416 0.0
H493 H 0.64322 0.76193 0.62071 0.0
C494 C 0.6475 0.8381 0.62707 0.0
C495 C 0.64912 0.87786 0.62703 0.0
C496 C 0.64536 0.81743 0.60041 0.0
C497 C 0.64668 0.89591 0.60017 0.0
C498 C 0.64555 0.87604 0.57353 0.0
C499 C 0.64861 0.81902 0.54676 0.0
C500 C 0.6495 0.78049 0.54682 0.0
C501 C 0.64598 0.83734 0.57339 0.0
C502 C 0.64583 0.75943 0.57364 0.0
C503 C 0.6442 0.77794 0.60025 0.0
H504 H 0.83373 0.63752 0.68587 0.0
H505 H 0.93379 0.63518 0.73625 0.0
H506 H 0.89597 0.63038 0.78199 0.0
H507 H 0.83781 0.63408 0.80776 0.0
H508 H 0.73509 0.63097 0.75737 0.0
H509 H 0.77017 0.63014 0.71152 0.0
C510 C 0.84681 0.63527 0.70688 0.0
C511 C 0.8866 0.63716 0.70781 0.0
C512 C 0.82454 0.63178 0.73304 0.0
C513 C 0.90312 0.6337 0.73504 0.0
C514 C 0.88165 0.63122 0.7612 0.0
C515 C 0.82287 0.63251 0.7867 0.0
C516 C 0.78426 0.63304 0.78582 0.0
C517 C 0.84287 0.63132 0.76049 0.0
C518 C 0.76481 0.63049 0.75852 0.0
C519 C 0.78498 0.63029 0.73232 0.0
H520 H 0.28301 0.90177 0.89996 0.0
H521 H 0.18789 0.8177 0.83786 0.0
H522 H 0.14591 0.7695 0.87789 0.0
H523 H 0.13251 0.75561 0.93086 0.0
H524 H 0.22314 0.84452 0.99327 0.0
H525 H 0.27091 0.88629 0.953 0.0
C526 C 0.2535 0.87243 0.89523 0.0
C527 C 0.23851 0.86306 0.86613 0.0
C528 C 0.22863 0.84599 0.91847 0.0
C529 C 0.1999 0.82546 0.86019 0.0
C530 C 0.17591 0.79799 0.88304 0.0
C531 C 0.16314 0.78364 0.9356 0.0
C532 C 0.1745 0.79697 0.96488 0.0
C533 C 0.1894 0.80853 0.91233 0.0
C534 C 0.21383 0.83376 0.97082 0.0
C535 C 0.24105 0.85766 0.94783 0.0
H536 H 0.39343 0.12563 0.10335 0.0
H537 H 0.38953 0.21454 0.16485 0.0
H538 H 0.39548 0.26206 0.12428 0.0
H539 H 0.39395 0.27437 0.07109 0.0
H540 H 0.38795 0.18057 0.00964 0.0
H541 H 0.39415 0.13906 0.05016 0.0
C542 C 0.39477 0.15585 0.1078 0.0
C543 C 0.39134 0.16686 0.13691 0.0
C544 C 0.39606 0.18189 0.0843 0.0
C545 C 0.39218 0.20557 0.14252 0.0
C546 C 0.39547 0.23264 0.11936 0.0
C547 C 0.3949 0.24529 0.06663 0.0
C548 C 0.39081 0.23055 0.03756 0.0
C549 C 0.39632 0.22059 0.09012 0.0
C550 C 0.39112 0.19241 0.03194 0.0
C551 C 0.39455 0.16868 0.05507 0.0
loop_
_geom_bond_atom_site_label_1
_geom_bond_atom_site_label_2
_geom_bond_distance
_geom_bond_site_symmetry_2
_ccdc_geom_bond_type
O0 Cd1 2.223 . S
O0 C8 1.315 . S
Cd1 O0 2.223 . S
Cd1 O4 2.297 . S
Cd1 O5 2.439 . S
Cd1 O11 2.240 . S
Cd2 O3 2.240 . S
Cd2 O10 2.223 . S
Cd2 O12 2.297 . S
Cd2 O13 2.439 . S
O3 Cd2 2.240 . S
O3 C8 1.279 . S
O4 Cd1 2.297 . S
O4 C6 1.247 . S
O5 Cd1 2.439 . S
O5 C6 1.208 . S
C6 O4 1.247 . S
C6 O5 1.208 . S
C7 O12 1.247 . S
C7 O13 1.208 . S
C8 O0 1.315 . S
C8 O3 1.279 . S
C9 O10 1.315 . S
C9 O11 1.279 . S
O10 Cd2 2.223 . S
O10 C9 1.315 . S
O11 Cd1 2.240 . S
O11 C9 1.279 . S
O12 Cd2 2.297 . S
O12 C7 1.247 . S
O13 Cd2 2.439 . S
O13 C7 1.208 . S
O14 Cd15 2.223 . S
O14 C22 1.315 . S
Cd15 O14 2.223 . S
Cd15 O18 2.297 . S
Cd15 O19 2.439 . S
Cd15 O25 2.240 . S
Cd16 O17 2.240 . S
Cd16 O24 2.223 . S
Cd16 O26 2.297 . S
Cd16 O27 2.439 . S
O17 Cd16 2.240 . S
O17 C22 1.279 . S
O18 Cd15 2.297 . S
O18 C20 1.247 . S
O19 Cd15 2.439 . S
O19 C20 1.208 . S
C20 O18 1.247 . S
C20 O19 1.208 . S
C21 O26 1.247 . S
C21 O27 1.208 . S
C22 O14 1.315 . S
C22 O17 1.279 . S
C23 O24 1.315 . S
C23 O25 1.279 . S
O24 Cd16 2.223 . S
O24 C23 1.315 . S
O25 Cd15 2.240 . S
O25 C23 1.279 . S
O26 Cd16 2.297 . S
O26 C21 1.247 . S
O27 Cd16 2.439 . S
O27 C21 1.208 . S
O28 Cd29 2.223 . S
O28 C36 1.315 . S
Cd29 O28 2.223 . S
Cd29 O32 2.297 . S
Cd29 O33 2.439 . S
Cd29 O39 2.240 . S
Cd30 O31 2.240 . S
Cd30 O38 2.223 . S
Cd30 O40 2.297 . S
Cd30 O41 2.439 . S
O31 Cd30 2.240 . S
O31 C36 1.279 . S
O32 Cd29 2.297 . S
O32 C34 1.247 . S
O33 Cd29 2.439 . S
O33 C34 1.208 . S
C34 O32 1.247 . S
C34 O33 1.208 . S
C35 O40 1.247 . S
C35 O41 1.208 . S
C36 O28 1.315 . S
C36 O31 1.279 . S
C37 O38 1.315 . S
C37 O39 1.279 . S
O38 Cd30 2.223 . S
O38 C37 1.315 . S
O39 Cd29 2.240 . S
O39 C37 1.279 . S
O40 Cd30 2.297 . S
O40 C35 1.247 . S
O41 Cd30 2.439 . S
O41 C35 1.208 . S
O42 Cd43 2.223 . S
O42 C50 1.315 . S
Cd43 O42 2.223 . S
Cd43 O46 2.297 . S
Cd43 O47 2.439 . S
Cd43 O53 2.240 . S
Cd44 O45 2.240 . S
Cd44 O52 2.223 . S
Cd44 O54 2.297 . S
Cd44 O55 2.439 . S
O45 Cd44 2.240 . S
O45 C50 1.279 . S
O46 Cd43 2.297 . S
O46 C48 1.247 . S
O47 Cd43 2.439 . S
O47 C48 1.208 . S
C48 O46 1.247 . S
C48 O47 1.208 . S
C49 O54 1.247 . S
C49 O55 1.208 . S
C50 O42 1.315 . S
C50 O45 1.279 . S
C51 O52 1.315 . S
C51 O53 1.279 . S
O52 Cd44 2.223 . S
O52 C51 1.315 . S
O53 Cd43 2.240 . S
O53 C51 1.279 . S
O54 Cd44 2.297 . S
O54 C49 1.247 . S
O55 Cd44 2.439 . S
O55 C49 1.208 . S
O56 Cd57 2.223 . S
O56 C64 1.315 . S
Cd57 O56 2.223 . S
Cd57 O60 2.297 . S
Cd57 O61 2.439 . S
Cd57 O67 2.240 . S
Cd58 O59 2.240 . S
Cd58 O66 2.223 . S
Cd58 O68 2.297 . S
Cd58 O69 2.439 . S
O59 Cd58 2.240 . S
O59 C64 1.279 . S
O60 Cd57 2.297 . S
O60 C62 1.247 . S
O61 Cd57 2.439 . S
O61 C62 1.208 . S
C62 O60 1.247 . S
C62 O61 1.208 . S
C63 O68 1.247 . S
C63 O69 1.208 . S
C64 O56 1.315 . S
C64 O59 1.279 . S
C65 O66 1.315 . S
C65 O67 1.279 . S
O66 Cd58 2.223 . S
O66 C65 1.315 . S
O67 Cd57 2.240 . S
O67 C65 1.279 . S
O68 Cd58 2.297 . S
O68 C63 1.247 . S
O69 Cd58 2.439 . S
O69 C63 1.208 . S
O70 Cd71 2.223 1_554 S
O70 C78 1.315 1_554 S
Cd71 O70 2.223 1_556 S
Cd71 O74 2.297 . S
Cd71 O75 2.439 . S
Cd71 O81 2.240 . S
Cd72 O73 2.240 . S
Cd72 O80 2.223 . S
Cd72 O82 2.297 . S
Cd72 O83 2.439 . S
O73 Cd72 2.240 . S
O73 C78 1.279 . S
O74 Cd71 2.297 . S
O74 C76 1.247 . S
O75 Cd71 2.439 . S
O75 C76 1.208 . S
C76 O74 1.247 . S
C76 O75 1.208 . S
C77 O82 1.247 . S
C77 O83 1.208 . S
C78 O70 1.315 1_556 S
C78 O73 1.279 . S
C79 O80 1.315 1_554 S
C79 O81 1.279 1_554 S
O80 Cd72 2.223 . S
O80 C79 1.315 1_556 S
O81 Cd71 2.240 . S
O81 C79 1.279 1_556 S
O82 Cd72 2.297 . S
O82 C77 1.247 . S
O83 Cd72 2.439 . S
O83 C77 1.208 . S
O84 Cd85 2.223 . S
O84 C92 1.315 . S
Cd85 O84 2.223 . S
Cd85 O88 2.297 . S
Cd85 O89 2.439 . S
Cd85 O95 2.240 . S
Cd86 O87 2.240 . S
Cd86 O94 2.223 . S
Cd86 O96 2.297 . S
Cd86 O97 2.439 . S
O87 Cd86 2.240 . S
O87 C92 1.279 . S
O88 Cd85 2.297 . S
O88 C90 1.247 . S
O89 Cd85 2.439 . S
O89 C90 1.208 . S
C90 O88 1.247 . S
C90 O89 1.208 . S
C91 O96 1.247 . S
C91 O97 1.208 . S
C92 O84 1.315 . S
C92 O87 1.279 . S
C93 O94 1.315 . S
C93 O95 1.279 . S
O94 Cd86 2.223 . S
O94 C93 1.315 . S
O95 Cd85 2.240 . S
O95 C93 1.279 . S
O96 Cd86 2.297 . S
O96 C91 1.247 . S
O97 Cd86 2.439 . S
O97 C91 1.208 . S
O98 Cd99 2.223 . S
O98 C106 1.315 . S
Cd99 O98 2.223 . S
Cd99 O102 2.297 . S
Cd99 O103 2.439 . S
Cd99 O109 2.240 . S
Cd100 O101 2.240 . S
Cd100 O108 2.223 . S
Cd100 O110 2.297 . S
Cd100 O111 2.439 . S
O101 Cd100 2.240 . S
O101 C106 1.279 . S
O102 Cd99 2.297 . S
O102 C104 1.247 . S
O103 Cd99 2.439 . S
O103 C104 1.208 . S
C104 O102 1.247 . S
C104 O103 1.208 . S
C105 O110 1.247 . S
C105 O111 1.208 . S
C106 O98 1.315 . S
C106 O101 1.279 . S
C107 O108 1.315 . S
C107 O109 1.279 . S
O108 Cd100 2.223 . S
O108 C107 1.315 . S
O109 Cd99 2.240 . S
O109 C107 1.279 . S
O110 Cd100 2.297 . S
O110 C105 1.247 . S
O111 Cd100 2.439 . S
O111 C105 1.208 . S
O112 Cd113 2.223 1_556 S
O112 C120 1.315 1_556 S
Cd113 O112 2.223 1_554 S
Cd113 O116 2.297 . S
Cd113 O117 2.439 . S
Cd113 O123 2.240 . S
Cd114 O115 2.240 . S
Cd114 O122 2.223 . S
Cd114 O124 2.297 . S
Cd114 O125 2.439 . S
O115 Cd114 2.240 . S
O115 C120 1.279 . S
O116 Cd113 2.297 . S
O116 C118 1.247 . S
O117 Cd113 2.439 . S
O117 C118 1.208 . S
C118 O116 1.247 . S
C118 O117 1.208 . S
C119 O124 1.247 . S
C119 O125 1.208 . S
C120 O112 1.315 1_554 S
C120 O115 1.279 . S
C121 O122 1.315 1_556 S
C121 O123 1.279 1_556 S
O122 Cd114 2.223 . S
O122 C121 1.315 1_554 S
O123 Cd113 2.240 . S
O123 C121 1.279 1_554 S
O124 Cd114 2.297 . S
O124 C119 1.247 . S
O125 Cd114 2.439 . S
O125 C119 1.208 . S
O126 Cd127 2.223 . S
O126 C134 1.315 . S
Cd127 O126 2.223 . S
Cd127 O130 2.297 . S
Cd127 O131 2.439 . S
Cd127 O137 2.240 . S
Cd128 O129 2.240 . S
Cd128 O136 2.223 . S
Cd128 O138 2.297 . S
Cd128 O139 2.439 . S
O129 Cd128 2.240 . S
O129 C134 1.279 . S
O130 Cd127 2.297 . S
O130 C132 1.247 . S
O131 Cd127 2.439 . S
O131 C132 1.208 . S
C132 O130 1.247 . S
C132 O131 1.208 . S
C133 O138 1.247 . S
C133 O139 1.208 . S
C134 O126 1.315 . S
C134 O129 1.279 . S
C135 O136 1.315 . S
C135 O137 1.279 . S
O136 Cd128 2.223 . S
O136 C135 1.315 . S
O137 Cd127 2.240 . S
O137 C135 1.279 . S
O138 Cd128 2.297 . S
O138 C133 1.247 . S
O139 Cd128 2.439 . S
O139 C133 1.208 . S
O140 Cd141 2.223 . S
O140 C148 1.315 . S
Cd141 O140 2.223 . S
Cd141 O144 2.297 . S
Cd141 O145 2.439 . S
Cd141 O151 2.240 . S
Cd142 O143 2.240 . S
Cd142 O150 2.223 . S
Cd142 O152 2.297 . S
Cd142 O153 2.439 . S
O143 Cd142 2.240 . S
O143 C148 1.279 . S
O144 Cd141 2.297 . S
O144 C146 1.247 . S
O145 Cd141 2.439 . S
O145 C146 1.208 . S
C146 O144 1.247 . S
C146 O145 1.208 . S
C147 O152 1.247 . S
C147 O153 1.208 . S
C148 O140 1.315 . S
C148 O143 1.279 . S
C149 O150 1.315 . S
C149 O151 1.279 . S
O150 Cd142 2.223 . S
O150 C149 1.315 . S
O151 Cd141 2.240 . S
O151 C149 1.279 . S
O152 Cd142 2.297 . S
O152 C147 1.247 . S
O153 Cd142 2.439 . S
O153 C147 1.208 . S
O154 Cd155 2.223 . S
O154 C162 1.315 . S
Cd155 O154 2.223 . S
Cd155 O158 2.297 . S
Cd155 O159 2.439 . S
Cd155 O165 2.240 . S
Cd156 O157 2.240 . S
Cd156 O164 2.223 . S
Cd156 O166 2.297 . S
Cd156 O167 2.439 . S
O157 Cd156 2.240 . S
O157 C162 1.279 . S
O158 Cd155 2.297 . S
O158 C160 1.247 . S
O159 Cd155 2.439 . S
O159 C160 1.208 . S
C160 O158 1.247 . S
C160 O159 1.208 . S
C161 O166 1.247 . S
C161 O167 1.208 . S
C162 O154 1.315 . S
C162 O157 1.279 . S
C163 O164 1.315 . S
C163 O165 1.279 . S
O164 Cd156 2.223 . S
O164 C163 1.315 . S
O165 Cd155 2.240 . S
O165 C163 1.279 . S
O166 Cd156 2.297 . S
O166 C161 1.247 . S
O167 Cd156 2.439 . S
O167 C161 1.208 . S
H168 C174 0.930 . S
H169 C177 0.930 1_655 S
H170 C178 0.930 1_655 S
H171 C179 0.930 . S
H172 C182 0.930 . S
H173 C183 0.930 . S
C174 H168 0.930 . S
C174 C175 1.355 . S
C174 C176 1.415 . S
C175 C174 1.355 . S
C175 C177 1.419 . S
C176 C174 1.415 . S
C176 C181 1.425 . S
C176 C183 1.409 . S
C177 H169 0.930 1_455 S
C177 C175 1.419 . S
C177 C178 1.362 . S
C178 H170 0.930 1_455 S
C178 C177 1.362 . S
C178 C181 1.409 . S
C179 H171 0.930 . S
C179 C180 1.355 . S
C179 C181 1.415 . S
C180 C179 1.355 . S
C180 C182 1.419 . S
C181 C176 1.425 . S
C181 C178 1.409 . S
C181 C179 1.415 . S
C182 H172 0.930 . S
C182 C180 1.419 . S
C182 C183 1.362 . S
C183 H173 0.930 . S
C183 C176 1.409 . S
C183 C182 1.362 . S
H184 C190 0.930 . S
H185 C193 0.930 . S
H186 C194 0.930 . S
H187 C195 0.930 . S
H188 C198 0.930 . S
H189 C199 0.930 . S
C190 H184 0.930 . S
C190 C191 1.355 . S
C190 C192 1.415 . S
C191 C190 1.355 . S
C191 C193 1.419 . S
C192 C190 1.415 . S
C192 C197 1.425 . S
C192 C199 1.409 . S
C193 H185 0.930 . S
C193 C191 1.419 . S
C193 C194 1.362 . S
C194 H186 0.930 . S
C194 C193 1.362 . S
C194 C197 1.409 . S
C195 H187 0.930 . S
C195 C196 1.355 . S
C195 C197 1.415 . S
C196 C195 1.355 . S
C196 C198 1.419 . S
C197 C192 1.425 . S
C197 C194 1.409 . S
C197 C195 1.415 . S
C198 H188 0.930 . S
C198 C196 1.419 . S
C198 C199 1.362 . S
C199 H189 0.930 . S
C199 C192 1.409 . S
C199 C198 1.362 . S
H200 C206 0.930 . S
H201 C209 0.930 . S
H202 C210 0.930 . S
H203 C211 0.930 . S
H204 C214 0.930 . S
H205 C215 0.930 . S
C206 H200 0.930 . S
C206 C207 1.355 . S
C206 C208 1.415 . S
C207 C206 1.355 . S
C207 C209 1.419 . S
C208 C206 1.415 . S
C208 C213 1.425 . S
C208 C215 1.409 . S
C209 H201 0.930 . S
C209 C207 1.419 . S
C209 C210 1.362 . S
C210 H202 0.930 . S
C210 C209 1.362 . S
C210 C213 1.409 . S
C211 H203 0.930 . S
C211 C212 1.355 . S
C211 C213 1.415 . S
C212 C211 1.355 . S
C212 C214 1.419 . S
C213 C208 1.425 . S
C213 C210 1.409 . S
C213 C211 1.415 . S
C214 H204 0.930 . S
C214 C212 1.419 . S
C214 C215 1.362 . S
C215 H205 0.930 . S
C215 C208 1.409 . S
C215 C214 1.362 . S
H216 C222 0.930 . S
H217 C225 0.930 . S
H218 C226 0.930 . S
H219 C227 0.930 . S
H220 C230 0.930 1_455 S
H221 C231 0.930 1_455 S
C222 H216 0.930 . S
C222 C223 1.355 . S
C222 C224 1.415 . S
C223 C222 1.355 . S
C223 C225 1.419 . S
C224 C222 1.415 . S
C224 C229 1.425 . S
C224 C231 1.409 . S
C225 H217 0.930 . S
C225 C223 1.419 . S
C225 C226 1.362 . S
C226 H218 0.930 . S
C226 C225 1.362 . S
C226 C229 1.409 . S
C227 H219 0.930 . S
C227 C228 1.355 . S
C227 C229 1.415 . S
C228 C227 1.355 . S
C228 C230 1.419 . S
C229 C224 1.425 . S
C229 C226 1.409 . S
C229 C227 1.415 . S
C230 H220 0.930 1_655 S
C230 C228 1.419 . S
C230 C231 1.362 . S
C231 H221 0.930 1_655 S
C231 C224 1.409 . S
C231 C230 1.362 . S
H232 C238 0.930 . S
H233 C241 0.930 . S
H234 C242 0.930 . S
H235 C243 0.930 . S
H236 C246 0.930 . S
H237 C247 0.930 . S
C238 H232 0.930 . S
C238 C239 1.355 . S
C238 C240 1.415 . S
C239 C238 1.355 . S
C239 C241 1.419 . S
C240 C238 1.415 . S
C240 C245 1.425 . S
C240 C247 1.409 . S
C241 H233 0.930 . S
C241 C239 1.419 . S
C241 C242 1.362 . S
C242 H234 0.930 . S
C242 C241 1.362 . S
C242 C245 1.409 . S
C243 H235 0.930 . S
C243 C244 1.355 . S
C243 C245 1.415 . S
C244 C243 1.355 . S
C244 C246 1.419 . S
C245 C240 1.425 . S
C245 C242 1.409 . S
C245 C243 1.415 . S
C246 H236 0.930 . S
C246 C244 1.419 . S
C246 C247 1.362 . S
C247 H237 0.930 . S
C247 C240 1.409 . S
C247 C246 1.362 . S
H248 C254 0.930 . S
H249 C257 0.930 . S
H250 C258 0.930 . S
H251 C259 0.930 . S
H252 C262 0.930 . S
H253 C263 0.930 . S
C254 H248 0.930 . S
C254 C255 1.355 . S
C254 C256 1.415 . S
C255 C254 1.355 . S
C255 C257 1.419 . S
C256 C254 1.415 . S
C256 C261 1.425 . S
C256 C263 1.409 . S
C257 H249 0.930 . S
C257 C255 1.419 . S
C257 C258 1.362 . S
C258 H250 0.930 . S
C258 C257 1.362 . S
C258 C261 1.409 . S
C259 H251 0.930 . S
C259 C260 1.355 . S
C259 C261 1.415 . S
C260 C259 1.355 . S
C260 C262 1.419 . S
C261 C256 1.425 . S
C261 C258 1.409 . S
C261 C259 1.415 . S
C262 H252 0.930 . S
C262 C260 1.419 . S
C262 C263 1.362 . S
C263 H253 0.930 . S
C263 C256 1.409 . S
C263 C262 1.362 . S
H264 C270 0.930 . S
H265 C273 0.930 . S
H266 C274 0.930 . S
H267 C275 0.930 . S
H268 C278 0.930 . S
H269 C279 0.930 . S
C270 H264 0.930 . S
C270 C271 1.355 . S
C270 C272 1.415 . S
C271 C270 1.355 . S
C271 C273 1.419 . S
C272 C270 1.415 . S
C272 C277 1.425 . S
C272 C279 1.409 . S
C273 H265 0.930 . S
C273 C271 1.419 . S
C273 C274 1.362 . S
C274 H266 0.930 . S
C274 C273 1.362 . S
C274 C277 1.409 . S
C275 H267 0.930 . S
C275 C276 1.355 . S
C275 C277 1.415 . S
C276 C275 1.355 . S
C276 C278 1.419 . S
C277 C272 1.425 . S
C277 C274 1.409 . S
C277 C275 1.415 . S
C278 H268 0.930 . S
C278 C276 1.419 . S
C278 C279 1.362 . S
C279 H269 0.930 . S
C279 C272 1.409 . S
C279 C278 1.362 . S
H280 C286 0.930 . S
H281 C289 0.930 . S
H282 C290 0.930 . S
H283 C291 0.930 . S
H284 C294 0.930 . S
H285 C295 0.930 . S
C286 H280 0.930 . S
C286 C287 1.355 . S
C286 C288 1.415 . S
C287 C286 1.355 . S
C287 C289 1.419 . S
C288 C286 1.415 . S
C288 C293 1.425 . S
C288 C295 1.409 . S
C289 H281 0.930 . S
C289 C287 1.419 . S
C289 C290 1.362 . S
C290 H282 0.930 . S
C290 C289 1.362 . S
C290 C293 1.409 . S
C291 H283 0.930 . S
C291 C292 1.355 . S
C291 C293 1.415 . S
C292 C291 1.355 . S
C292 C294 1.419 . S
C293 C288 1.425 . S
C293 C290 1.409 . S
C293 C291 1.415 . S
C294 H284 0.930 . S
C294 C292 1.419 . S
C294 C295 1.362 . S
C295 H285 0.930 . S
C295 C288 1.409 . S
C295 C294 1.362 . S
H296 C302 0.930 . S
H297 C305 0.930 . S
H298 C306 0.930 . S
H299 C307 0.930 . S
H300 C310 0.930 . S
H301 C311 0.930 . S
C302 H296 0.930 . S
C302 C303 1.355 . S
C302 C304 1.415 . S
C303 C302 1.355 . S
C303 C305 1.419 . S
C304 C302 1.415 . S
C304 C309 1.425 . S
C304 C311 1.409 . S
C305 H297 0.930 . S
C305 C303 1.419 . S
C305 C306 1.362 . S
C306 H298 0.930 . S
C306 C305 1.362 . S
C306 C309 1.409 . S
C307 H299 0.930 . S
C307 C308 1.355 . S
C307 C309 1.415 . S
C308 C307 1.355 . S
C308 C310 1.419 . S
C309 C304 1.425 . S
C309 C306 1.409 . S
C309 C307 1.415 . S
C310 H300 0.930 . S
C310 C308 1.419 . S
C310 C311 1.362 . S
C311 H301 0.930 . S
C311 C304 1.409 . S
C311 C310 1.362 . S
H312 C318 0.930 . S
H313 C321 0.930 . S
H314 C322 0.930 . S
H315 C323 0.930 . S
H316 C326 0.930 . S
H317 C327 0.930 . S
C318 H312 0.930 . S
C318 C319 1.355 . S
C318 C320 1.415 . S
C319 C318 1.355 . S
C319 C321 1.419 . S
C320 C318 1.415 . S
C320 C325 1.425 . S
C320 C327 1.409 . S
C321 H313 0.930 . S
C321 C319 1.419 . S
C321 C322 1.362 . S
C322 H314 0.930 . S
C322 C321 1.362 . S
C322 C325 1.409 . S
C323 H315 0.930 . S
C323 C324 1.355 . S
C323 C325 1.415 . S
C324 C323 1.355 . S
C324 C326 1.419 . S
C325 C320 1.425 . S
C325 C322 1.409 . S
C325 C323 1.415 . S
C326 H316 0.930 . S
C326 C324 1.419 . S
C326 C327 1.362 . S
C327 H317 0.930 . S
C327 C320 1.409 . S
C327 C326 1.362 . S
H328 C334 0.930 . S
H329 C337 0.930 . S
H330 C338 0.930 . S
H331 C339 0.930 . S
H332 C342 0.930 . S
H333 C343 0.930 . S
C334 H328 0.930 . S
C334 C335 1.355 . S
C334 C336 1.415 . S
C335 C334 1.355 . S
C335 C337 1.419 . S
C336 C334 1.415 . S
C336 C341 1.425 . S
C336 C343 1.409 . S
C337 H329 0.930 . S
C337 C335 1.419 . S
C337 C338 1.362 . S
C338 H330 0.930 . S
C338 C337 1.362 . S
C338 C341 1.409 . S
C339 H331 0.930 . S
C339 C340 1.355 . S
C339 C341 1.415 . S
C340 C339 1.355 . S
C340 C342 1.419 . S
C341 C336 1.425 . S
C341 C338 1.409 . S
C341 C339 1.415 . S
C342 H332 0.930 . S
C342 C340 1.419 . S
C342 C343 1.362 . S
C343 H333 0.930 . S
C343 C336 1.409 . S
C343 C342 1.362 . S
H344 C350 0.930 . S
H345 C353 0.930 . S
H346 C354 0.930 . S
H347 C355 0.930 . S
H348 C358 0.930 . S
H349 C359 0.930 . S
C350 H344 0.930 . S
C350 C351 1.355 . S
C350 C352 1.415 . S
C351 C350 1.355 . S
C351 C353 1.419 . S
C352 C350 1.415 . S
C352 C357 1.425 . S
C352 C359 1.409 . S
C353 H345 0.930 . S
C353 C351 1.419 . S
C353 C354 1.362 . S
C354 H346 0.930 . S
C354 C353 1.362 . S
C354 C357 1.409 . S
C355 H347 0.930 . S
C355 C356 1.355 . S
C355 C357 1.415 . S
C356 C355 1.355 . S
C356 C358 1.419 . S
C357 C352 1.425 . S
C357 C354 1.409 . S
C357 C355 1.415 . S
C358 H348 0.930 . S
C358 C356 1.419 . S
C358 C359 1.362 . S
C359 H349 0.930 . S
C359 C352 1.409 . S
C359 C358 1.362 . S
H360 C366 0.930 . S
H361 C369 0.930 . S
H362 C370 0.930 . S
H363 C371 0.930 . S
H364 C374 0.930 . S
H365 C375 0.930 . S
C366 H360 0.930 . S
C366 C367 1.355 . S
C366 C368 1.415 . S
C367 C366 1.355 . S
C367 C369 1.419 . S
C368 C366 1.415 . S
C368 C373 1.425 . S
C368 C375 1.409 . S
C369 H361 0.930 . S
C369 C367 1.419 . S
C369 C370 1.362 . S
C370 H362 0.930 . S
C370 C369 1.362 . S
C370 C373 1.409 . S
C371 H363 0.930 . S
C371 C372 1.355 . S
C371 C373 1.415 . S
C372 C371 1.355 . S
C372 C374 1.419 . S
C373 C368 1.425 . S
C373 C370 1.409 . S
C373 C371 1.415 . S
C374 H364 0.930 . S
C374 C372 1.419 . S
C374 C375 1.362 . S
C375 H365 0.930 . S
C375 C368 1.409 . S
C375 C374 1.362 . S
H376 C382 0.930 . S
H377 C385 0.930 . S
H378 C386 0.930 . S
H379 C387 0.930 . S
H380 C390 0.930 . S
H381 C391 0.930 . S
C382 H376 0.930 . S
C382 C383 1.355 . S
C382 C384 1.415 . S
C383 C382 1.355 . S
C383 C385 1.419 . S
C384 C382 1.415 . S
C384 C389 1.425 . S
C384 C391 1.409 1_556 S
C385 H377 0.930 . S
C385 C383 1.419 . S
C385 C386 1.362 . S
C386 H378 0.930 . S
C386 C385 1.362 . S
C386 C389 1.409 . S
C387 H379 0.930 . S
C387 C388 1.355 . S
C387 C389 1.415 . S
C388 C387 1.355 . S
C388 C390 1.419 1_556 S
C389 C384 1.425 . S
C389 C386 1.409 . S
C389 C387 1.415 . S
C390 H380 0.930 . S
C390 C388 1.419 1_554 S
C390 C391 1.362 . S
C391 H381 0.930 . S
C391 C384 1.409 1_554 S
C391 C390 1.362 . S
H392 C398 0.930 . S
H393 C401 0.930 . S
H394 C402 0.930 . S
H395 C403 0.930 . S
H396 C406 0.930 . S
H397 C407 0.930 . S
C398 H392 0.930 . S
C398 C399 1.355 . S
C398 C400 1.415 . S
C399 C398 1.355 . S
C399 C401 1.419 . S
C400 C398 1.415 . S
C400 C405 1.425 . S
C400 C407 1.409 . S
C401 H393 0.930 . S
C401 C399 1.419 . S
C401 C402 1.362 . S
C402 H394 0.930 . S
C402 C401 1.362 . S
C402 C405 1.409 . S
C403 H395 0.930 . S
C403 C404 1.355 . S
C403 C405 1.415 . S
C404 C403 1.355 . S
C404 C406 1.419 . S
C405 C400 1.425 . S
C405 C402 1.409 . S
C405 C403 1.415 . S
C406 H396 0.930 . S
C406 C404 1.419 . S
C406 C407 1.362 . S
C407 H397 0.930 . S
C407 C400 1.409 . S
C407 C406 1.362 . S
H408 C414 0.930 . S
H409 C417 0.930 . S
H410 C418 0.930 . S
H411 C419 0.930 . S
H412 C422 0.930 . S
H413 C423 0.930 . S
C414 H408 0.930 . S
C414 C415 1.355 . S
C414 C416 1.415 . S
C415 C414 1.355 . S
C415 C417 1.419 . S
C416 C414 1.415 . S
C416 C421 1.425 . S
C416 C423 1.409 . S
C417 H409 0.930 . S
C417 C415 1.419 . S
C417 C418 1.362 . S
C418 H410 0.930 . S
C418 C417 1.362 . S
C418 C421 1.409 . S
C419 H411 0.930 . S
C419 C420 1.355 . S
C419 C421 1.415 . S
C420 C419 1.355 . S
C420 C422 1.419 . S
C421 C416 1.425 . S
C421 C418 1.409 . S
C421 C419 1.415 . S
C422 H412 0.930 . S
C422 C420 1.419 . S
C422 C423 1.362 . S
C423 H413 0.930 . S
C423 C416 1.409 . S
C423 C422 1.362 . S
H424 C430 0.930 . S
H425 C433 0.930 . S
H426 C434 0.930 . S
H427 C435 0.930 . S
H428 C438 0.930 1_655 S
H429 C439 0.930 . S
C430 H424 0.930 . S
C430 C431 1.355 . S
C430 C432 1.415 . S
C431 C430 1.355 . S
C431 C433 1.419 . S
C432 C430 1.415 . S
C432 C437 1.425 . S
C432 C439 1.409 . S
C433 H425 0.930 . S
C433 C431 1.419 . S
C433 C434 1.362 . S
C434 H426 0.930 . S
C434 C433 1.362 . S
C434 C437 1.409 . S
C435 H427 0.930 . S
C435 C436 1.355 . S
C435 C437 1.415 . S
C436 C435 1.355 . S
C436 C438 1.419 . S
C437 C432 1.425 . S
C437 C434 1.409 . S
C437 C435 1.415 . S
C438 H428 0.930 1_455 S
C438 C436 1.419 . S
C438 C439 1.362 . S
C439 H429 0.930 . S
C439 C432 1.409 . S
C439 C438 1.362 . S
H440 C446 0.930 . S
H441 C449 0.930 . S
H442 C450 0.930 . S
H443 C451 0.930 . S
H444 C454 0.930 . S
H445 C455 0.930 . S
C446 H440 0.930 . S
C446 C447 1.355 . S
C446 C448 1.415 . S
C447 C446 1.355 . S
C447 C449 1.419 . S
C448 C446 1.415 . S
C448 C453 1.425 . S
C448 C455 1.409 . S
C449 H441 0.930 . S
C449 C447 1.419 . S
C449 C450 1.362 . S
C450 H442 0.930 . S
C450 C449 1.362 . S
C450 C453 1.409 . S
C451 H443 0.930 . S
C451 C452 1.355 . S
C451 C453 1.415 . S
C452 C451 1.355 . S
C452 C454 1.419 . S
C453 C448 1.425 . S
C453 C450 1.409 . S
C453 C451 1.415 . S
C454 H444 0.930 . S
C454 C452 1.419 . S
C454 C455 1.362 . S
C455 H445 0.930 . S
C455 C448 1.409 . S
C455 C454 1.362 . S
H456 C462 0.930 . S
H457 C465 0.930 . S
H458 C466 0.930 . S
H459 C467 0.930 . S
H460 C470 0.930 . S
H461 C471 0.930 . S
C462 H456 0.930 . S
C462 C463 1.355 . S
C462 C464 1.415 . S
C463 C462 1.355 . S
C463 C465 1.419 . S
C464 C462 1.415 . S
C464 C469 1.425 . S
C464 C471 1.409 . S
C465 H457 0.930 . S
C465 C463 1.419 . S
C465 C466 1.362 . S
C466 H458 0.930 . S
C466 C465 1.362 . S
C466 C469 1.409 . S
C467 H459 0.930 . S
C467 C468 1.355 . S
C467 C469 1.415 . S
C468 C467 1.355 . S
C468 C470 1.419 . S
C469 C464 1.425 . S
C469 C466 1.409 . S
C469 C467 1.415 . S
C470 H460 0.930 . S
C470 C468 1.419 . S
C470 C471 1.362 . S
C471 H461 0.930 . S
C471 C464 1.409 . S
C471 C470 1.362 . S
H472 C478 0.930 . S
H473 C481 0.930 . S
H474 C482 0.930 . S
H475 C483 0.930 . S
H476 C486 0.930 . S
H477 C487 0.930 . S
C478 H472 0.930 . S
C478 C479 1.355 . S
C478 C480 1.415 . S
C479 C478 1.355 . S
C479 C481 1.419 . S
C480 C478 1.415 . S
C480 C485 1.425 . S
C480 C487 1.409 . S
C481 H473 0.930 . S
C481 C479 1.419 . S
C481 C482 1.362 . S
C482 H474 0.930 . S
C482 C481 1.362 . S
C482 C485 1.409 . S
C483 H475 0.930 . S
C483 C484 1.355 . S
C483 C485 1.415 . S
C484 C483 1.355 . S
C484 C486 1.419 . S
C485 C480 1.425 . S
C485 C482 1.409 . S
C485 C483 1.415 . S
C486 H476 0.930 . S
C486 C484 1.419 . S
C486 C487 1.362 . S
C487 H477 0.930 . S
C487 C480 1.409 . S
C487 C486 1.362 . S
H488 C494 0.930 . S
H489 C497 0.930 . S
H490 C498 0.930 . S
H491 C499 0.930 . S
H492 C502 0.930 . S
H493 C503 0.930 . S
C494 H488 0.930 . S
C494 C495 1.355 . S
C494 C496 1.415 . S
C495 C494 1.355 . S
C495 C497 1.419 . S
C496 C494 1.415 . S
C496 C501 1.425 . S
C496 C503 1.409 . S
C497 H489 0.930 . S
C497 C495 1.419 . S
C497 C498 1.362 . S
C498 H490 0.930 . S
C498 C497 1.362 . S
C498 C501 1.409 . S
C499 H491 0.930 . S
C499 C500 1.355 . S
C499 C501 1.415 . S
C500 C499 1.355 . S
C500 C502 1.419 . S
C501 C496 1.425 . S
C501 C498 1.409 . S
C501 C499 1.415 . S
C502 H492 0.930 . S
C502 C500 1.419 . S
C502 C503 1.362 . S
C503 H493 0.930 . S
C503 C496 1.409 . S
C503 C502 1.362 . S
H504 C510 0.930 . S
H505 C513 0.930 . S
H506 C514 0.930 . S
H507 C515 0.930 . S
H508 C518 0.930 . S
H509 C519 0.930 . S
C510 H504 0.930 . S
C510 C511 1.355 . S
C510 C512 1.415 . S
C511 C510 1.355 . S
C511 C513 1.419 . S
C512 C510 1.415 . S
C512 C517 1.425 . S
C512 C519 1.409 . S
C513 H505 0.930 . S
C513 C511 1.419 . S
C513 C514 1.362 . S
C514 H506 0.930 . S
C514 C513 1.362 . S
C514 C517 1.409 . S
C515 H507 0.930 . S
C515 C516 1.355 . S
C515 C517 1.415 . S
C516 C515 1.355 . S
C516 C518 1.419 . S
C517 C512 1.425 . S
C517 C514 1.409 . S
C517 C515 1.415 . S
C518 H508 0.930 . S
C518 C516 1.419 . S
C518 C519 1.362 . S
C519 H509 0.930 . S
C519 C512 1.409 . S
C519 C518 1.362 . S
H520 C526 0.930 . S
H521 C529 0.930 . S
H522 C530 0.930 . S
H523 C531 0.930 . S
H524 C534 0.930 . S
H525 C535 0.930 . S
C526 H520 0.930 . S
C526 C527 1.355 . S
C526 C528 1.415 . S
C527 C526 1.355 . S
C527 C529 1.419 . S
C528 C526 1.415 . S
C528 C533 1.425 . S
C528 C535 1.409 . S
C529 H521 0.930 . S
C529 C527 1.419 . S
C529 C530 1.362 . S
C530 H522 0.930 . S
C530 C529 1.362 . S
C530 C533 1.409 . S
C531 H523 0.930 . S
C531 C532 1.355 . S
C531 C533 1.415 . S
C532 C531 1.355 . S
C532 C534 1.419 . S
C533 C528 1.425 . S
C533 C530 1.409 . S
C533 C531 1.415 . S
C534 H524 0.930 . S
C534 C532 1.419 . S
C534 C535 1.362 . S
C535 H525 0.930 . S
C535 C528 1.409 . S
C535 C534 1.362 . S
H536 C542 0.930 . S
H537 C545 0.930 . S
H538 C546 0.930 . S
H539 C547 0.930 . S
H540 C550 0.930 . S
H541 C551 0.930 . S
C542 H536 0.930 . S
C542 C543 1.355 . S
C542 C544 1.415 . S
C543 C542 1.355 . S
C543 C545 1.419 . S
C544 C542 1.415 . S
C544 C549 1.425 . S
C544 C551 1.409 . S
C545 H537 0.930 . S
C545 C543 1.419 . S
C545 C546 1.362 . S
C546 H538 0.930 . S
C546 C545 1.362 . S
C546 C549 1.409 . S
C547 H539 0.930 . S
C547 C548 1.355 . S
C547 C549 1.415 . S
C548 C547 1.355 . S
C548 C550 1.419 . S
C549 C544 1.425 . S
C549 C546 1.409 . S
C549 C547 1.415 . S
C550 H540 0.930 . S
C550 C548 1.419 . S
C550 C551 1.362 . S
C551 H541 0.930 . S
C551 C544 1.409 . S
C551 C550 1.362 . S
C175 C118 1.480 . S
C180 C6 1.458 . S
C191 C20 1.536 . S
C196 C132 1.526 . S
C207 C34 1.524 . S
C212 C146 1.536 . S
C223 C48 1.480 . S
C228 C160 1.509 . S
C239 C90 1.521 . S
C244 C62 1.535 . S
C255 C76 1.501 . S
C260 C104 1.473 . S
C271 C7 1.564 . S
C276 C78 1.572 1_554 S
C287 C21 1.551 . S
C292 C8 1.594 1_655 S
C303 C35 1.561 . S
C308 C22 1.573 1_565 S
C319 C36 1.596 . S
C324 C49 1.552 . S
C335 C50 1.601 1_455 S
C340 C63 1.560 . S
C351 C64 1.602 1_545 S
C356 C77 1.564 . S
C367 C106 1.600 . S
C372 C91 1.557 . S
C383 C105 1.565 . S
C388 C120 1.603 1_656 S
C399 C134 1.575 1_565 S
C404 C119 1.558 . S
C415 C133 1.550 . S
C420 C148 1.588 . S
C431 C147 1.590 . S
C436 C162 1.571 1_455 S
C447 C161 1.551 . S
C452 C92 1.594 1_545 S
C463 C149 1.476 . S
C468 C9 1.492 . S
C479 C163 1.485 . S
C484 C23 1.461 . S
C495 C93 1.472 . S
C500 C37 1.492 . S
C511 C51 1.481 . S
C516 C107 1.490 . S
C527 C65 1.482 . S
C532 C121 1.461 . S
C543 C135 1.465 . S
C548 C79 1.469 . S
