# Generated by pormake.
# Topology ure, (4)-cn, num edge types: 1
# Building blocks:
#     Node 0, Type 0, BuildingBlock: CEKHIL_clean_sbu_0, # of connection points: 4
#     Node 1, Type 0, BuildingBlock: CEKHIL_clean_sbu_0, # of connection points: 4
#     Node 2, Type 0, BuildingBlock: CEKHIL_clean_sbu_0, # of connection points: 4
#     Node 3, Type 0, BuildingBlock: CEKHIL_clean_sbu_0, # of connection points: 4
#     Node 4, Type 0, BuildingBlock: CEKHIL_clean_sbu_0, # of connection points: 4
#     Node 5, Type 0, BuildingBlock: CEKHIL_clean_sbu_0, # of connection points: 4
#     Node 6, Type 0, BuildingBlock: CEKHIL_clean_sbu_0, # of connection points: 4
#     Node 7, Type 0, BuildingBlock: CEKHIL_clean_sbu_0, # of connection points: 4
#     Node 8, Type 0, BuildingBlock: CEKHIL_clean_sbu_0, # of connection points: 4
#     Node 9, Type 0, BuildingBlock: CEKHIL_clean_sbu_0, # of connection points: 4
#     Node 10, Type 0, BuildingBlock: CEKHIL_clean_sbu_0, # of connection points: 4
#     Node 11, Type 0, BuildingBlock: CEKHIL_clean_sbu_0, # of connection points: 4
#     Node 12, Type 0, BuildingBlock: CEKHIL_clean_sbu_0, # of connection points: 4
#     Node 13, Type 0, BuildingBlock: CEKHIL_clean_sbu_0, # of connection points: 4
#     Node 14, Type 0, BuildingBlock: CEKHIL_clean_sbu_0, # of connection points: 4
#     Node 15, Type 0, BuildingBlock: CEKHIL_clean_sbu_0, # of connection points: 4
#     Edge 16, Type (0, 0), BuildingBlock: AJUNOK_clean_linker_0, # of connection points: 2
#     Edge 17, Type (0, 0), BuildingBlock: AJUNOK_clean_linker_0, # of connection points: 2
#     Edge 18, Type (0, 0), BuildingBlock: AJUNOK_clean_linker_0, # of connection points: 2
#     Edge 19, Type (0, 0), BuildingBlock: AJUNOK_clean_linker_0, # of connection points: 2
#     Edge 20, Type (0, 0), BuildingBlock: AJUNOK_clean_linker_0, # of connection points: 2
#     Edge 21, Type (0, 0), BuildingBlock: AJUNOK_clean_linker_0, # of connection points: 2
#     Edge 22, Type (0, 0), BuildingBlock: AJUNOK_clean_linker_0, # of connection points: 2
#     Edge 23, Type (0, 0), BuildingBlock: AJUNOK_clean_linker_0, # of connection points: 2
#     Edge 24, Type (0, 0), BuildingBlock: AJUNOK_clean_linker_0, # of connection points: 2
#     Edge 25, Type (0, 0), BuildingBlock: AJUNOK_clean_linker_0, # of connection points: 2
#     Edge 26, Type (0, 0), BuildingBlock: AJUNOK_clean_linker_0, # of connection points: 2
#     Edge 27, Type (0, 0), BuildingBlock: AJUNOK_clean_linker_0, # of connection points: 2
#     Edge 28, Type (0, 0), BuildingBlock: AJUNOK_clean_linker_0, # of connection points: 2
#     Edge 29, Type (0, 0), BuildingBlock: AJUNOK_clean_linker_0, # of connection points: 2
#     Edge 30, Type (0, 0), BuildingBlock: AJUNOK_clean_linker_0, # of connection points: 2
#     Edge 31, Type (0, 0), BuildingBlock: AJUNOK_clean_linker_0, # of connection points: 2
#     Edge 32, Type (0, 0), BuildingBlock: AJUNOK_clean_linker_0, # of connection points: 2
#     Edge 33, Type (0, 0), BuildingBlock: AJUNOK_clean_linker_0, # of connection points: 2
#     Edge 34, Type (0, 0), BuildingBlock: AJUNOK_clean_linker_0, # of connection points: 2
#     Edge 35, Type (0, 0), BuildingBlock: AJUNOK_clean_linker_0, # of connection points: 2
#     Edge 36, Type (0, 0), BuildingBlock: AJUNOK_clean_linker_0, # of connection points: 2
#     Edge 37, Type (0, 0), BuildingBlock: AJUNOK_clean_linker_0, # of connection points: 2
#     Edge 38, Type (0, 0), BuildingBlock: AJUNOK_clean_linker_0, # of connection points: 2
#     Edge 39, Type (0, 0), BuildingBlock: AJUNOK_clean_linker_0, # of connection points: 2
#     Edge 40, Type (0, 0), BuildingBlock: AJUNOK_clean_linker_0, # of connection points: 2
#     Edge 41, Type (0, 0), BuildingBlock: AJUNOK_clean_linker_0, # of connection points: 2
#     Edge 42, Type (0, 0), BuildingBlock: AJUNOK_clean_linker_0, # of connection points: 2
#     Edge 43, Type (0, 0), BuildingBlock: AJUNOK_clean_linker_0, # of connection points: 2
#     Edge 44, Type (0, 0), BuildingBlock: AJUNOK_clean_linker_0, # of connection points: 2
#     Edge 45, Type (0, 0), BuildingBlock: AJUNOK_clean_linker_0, # of connection points: 2
#     Edge 46, Type (0, 0), BuildingBlock: AJUNOK_clean_linker_0, # of connection points: 2
#     Edge 47, Type (0, 0), BuildingBlock: AJUNOK_clean_linker_0, # of connection points: 2
# Relax obj value: 0.215
# Max RMSD: 0.161
# Mean RMSD: 0.161
data_MOF--net-ure--node1-CEKHIL_clean_sbu_0--edge1-AJUNOK_clean_linker_0
_symmetry_space_group_name_H-M    P1
_symmetry_Int_Tables_number       1
_symmetry_cell_setting            triclinic
loop_
_symmetry_equiv_pos_as_xyz
'x, y, z'
_cell_length_a     24.748603
_cell_length_b     21.245657
_cell_length_c     21.167748
_cell_angle_alpha  90.102347
_cell_angle_beta   89.952804
_cell_angle_gamma 89.901896
loop_
_atom_site_label
_atom_site_type_symbol
_atom_site_fract_x
_atom_site_fract_y
_atom_site_fract_z
_atom_type_partial_charge
Co0 Co 0.27957 0.21846 0.27782 0.0
O1 O 0.20479 0.19931 0.2598 0.0
O2 O 0.2706 0.1887 0.1906 0.0
C3 C 0.28101 0.16772 0.3722 0.0
O4 O 0.36302 0.23298 0.28208 0.0
Co5 Co 0.30245 0.29939 0.39718 0.0
O6 O 0.37854 0.28952 0.37053 0.0
C7 C 0.2517 0.35707 0.28883 0.0
C8 C 0.21928 0.18292 0.20343 0.0
C9 C 0.39554 0.2609 0.32131 0.0
O10 O 0.2669 0.31016 0.25387 0.0
O11 O 0.25305 0.35533 0.34898 0.0
O12 O 0.28888 0.1357 0.32062 0.0
O13 O 0.26875 0.22567 0.36399 0.0
Co14 Co 1.00682 0.0169 0.48726 0.0
O15 O 0.07921 0.98306 0.4759 0.0
O16 O 1.00525 0.92989 0.45554 0.0
C17 C 0.02788 0.10934 0.43814 0.0
O18 O 0.92381 0.03491 0.49064 0.0
Co19 Co 0.98482 0.1417 0.55791 0.0
O20 O 0.91072 0.13372 0.52485 0.0
C21 C 1.01652 0.02883 0.62977 0.0
C22 C 0.0578 0.93185 0.45448 0.0
C23 C 0.89228 0.08217 0.50303 0.0
O24 O 1.00795 0.99269 0.58106 0.0
O25 O 1.01503 0.08886 0.62684 0.0
O26 O 1.01288 0.06112 0.40458 0.0
O27 O 0.02986 0.09985 0.49775 0.0
Co28 Co 0.25559 0.78983 0.78442 0.0
O29 O 0.33102 0.80713 0.76421 0.0
O30 O 0.26374 0.82153 0.6981 0.0
C31 C 0.25674 0.83746 0.88097 0.0
O32 O 0.17175 0.77916 0.78981 0.0
Co33 Co 0.23116 0.70619 0.90267 0.0
O34 O 0.15561 0.71962 0.87566 0.0
C35 C 0.27929 0.64955 0.79117 0.0
C36 C 0.31542 0.82596 0.709 0.0
C37 C 0.13877 0.75143 0.82854 0.0
O38 O 0.26537 0.69798 0.75758 0.0
O39 O 0.27759 0.64939 0.85142 0.0
O40 O 0.24982 0.87164 0.83072 0.0
O41 O 0.26646 0.7793 0.87017 0.0
Co42 Co 0.53224 0.98986 0.97949 0.0
O43 O 0.4603 0.01972 0.96129 0.0
O44 O 0.53345 0.07734 0.95026 0.0
C45 C 0.52155 0.89676 0.92716 0.0
O46 O 0.614 0.97312 0.99333 0.0
Co47 Co 0.54336 0.86627 0.05552 0.0
O48 O 0.62145 0.87754 0.0384 0.0
C49 C 0.51102 0.98191 0.1206 0.0
C50 C 0.48113 0.07276 0.9446 0.0
C51 C 0.64276 0.92715 0.01541 0.0
O52 O 0.52441 0.01538 0.072 0.0
O53 O 0.50684 0.92223 0.11844 0.0
O54 O 0.53612 0.9465 0.89594 0.0
O55 O 0.51078 0.9063 0.98541 0.0
Co56 Co 0.27523 0.75518 0.23224 0.0
O57 O 0.19822 0.76609 0.24827 0.0
O58 O 0.26106 0.77847 0.32029 0.0
C59 C 0.27096 0.81167 0.14117 0.0
O60 O 0.35983 0.75145 0.23446 0.0
Co61 Co 0.3197 0.6945 0.1094 0.0
O62 O 0.39131 0.72042 0.13966 0.0
C63 C 0.26995 0.61518 0.20806 0.0
C64 C 0.21004 0.78209 0.30569 0.0
C65 C 0.39932 0.73881 0.19603 0.0
O66 O 0.26952 0.66096 0.24867 0.0
O67 O 0.28295 0.62217 0.15014 0.0
O68 O 0.27683 0.84081 0.19479 0.0
O69 O 0.26783 0.75163 0.1446 0.0
Co70 Co 0.53509 0.03854 0.52457 0.0
O71 O 0.45975 0.01801 0.53655 0.0
O72 O 0.52504 0.94953 0.54909 0.0
C73 C 0.52704 0.12687 0.58453 0.0
O74 O 0.61951 0.04583 0.51757 0.0
Co75 Co 0.56374 0.16766 0.46355 0.0
O76 O 0.63811 0.14498 0.48706 0.0
C77 C 0.52927 0.06145 0.38242 0.0
C78 C 0.47354 0.96204 0.55369 0.0
C79 C 0.65367 0.09056 0.50459 0.0
O80 O 0.52913 0.02204 0.42927 0.0
O81 O 0.53675 0.1205 0.38895 0.0
O82 O 0.53722 0.07345 0.61156 0.0
O83 O 0.52097 0.1247 0.52452 0.0
Co84 Co 0.27057 0.25157 0.72061 0.0
O85 O 0.34613 0.24246 0.74184 0.0
O86 O 0.27999 0.22814 0.8095 0.0
C87 C 0.28073 0.19409 0.63104 0.0
O88 O 0.18626 0.25484 0.7145 0.0
Co89 Co 0.23673 0.31169 0.59359 0.0
O90 O 0.16736 0.27042 0.6122 0.0
C91 C 0.27295 0.39304 0.69896 0.0
C92 C 0.33175 0.22578 0.79803 0.0
C93 C 0.15208 0.25796 0.66819 0.0
O94 O 0.27419 0.34599 0.73792 0.0
O95 O 0.26287 0.38717 0.64008 0.0
O96 O 0.27127 0.16553 0.68409 0.0
O97 O 0.28437 0.25412 0.6343 0.0
Co98 Co 0.99993 0.95989 0.03419 0.0
O99 O 0.07536 0.98225 0.04435 0.0
O100 O 1.00809 0.04817 0.05947 0.0
C101 C 1.00966 0.86885 0.09098 0.0
O102 O 0.91535 0.95321 0.0301 0.0
Co103 Co 0.96654 0.8381 0.96975 0.0
O104 O 0.89468 0.8539 1.00405 0.0
C105 C 1.00309 0.94271 0.89055 0.0
C106 C 0.05998 0.03785 0.06171 0.0
C107 C 0.88019 0.90872 0.02094 0.0
O108 O 1.00394 0.98005 0.93919 0.0
O109 O 0.99376 0.88397 0.8951 0.0
O110 O 1.00042 0.92162 0.12007 0.0
O111 O 1.01434 0.87331 0.0308 0.0
Co112 Co 0.79679 0.28824 0.72037 0.0
O113 O 0.72176 0.30237 0.74133 0.0
O114 O 0.78749 0.31537 0.80914 0.0
C115 C 0.79036 0.3438 0.62849 0.0
O116 O 0.8808 0.27916 0.71253 0.0
Co117 Co 0.82161 0.21888 0.5928 0.0
O118 O 0.89683 0.23738 0.61639 0.0
C119 C 0.78426 0.14635 0.70261 0.0
C120 C 0.73593 0.32022 0.79714 0.0
C121 C 0.91374 0.25967 0.6687 0.0
O122 O 0.78969 0.19405 0.74056 0.0
O123 O 0.78743 0.1507 0.64263 0.0
O124 O 0.79958 0.37358 0.68095 0.0
O125 O 0.78339 0.28457 0.63426 0.0
Co126 Co 0.04814 0.51772 0.03567 0.0
O127 O 0.97274 0.49617 0.05063 0.0
O128 O 0.03926 0.42971 0.06455 0.0
C129 C 0.04309 0.61086 0.09033 0.0
O130 O 0.13269 0.52663 0.02667 0.0
Co131 Co 0.07174 0.63633 0.95956 0.0
O132 O 0.14705 0.62194 0.98367 0.0
C133 C 0.02901 0.52999 0.89262 0.0
C134 C 0.9875 0.44079 0.06838 0.0
C135 C 0.16501 0.57135 0.00796 0.0
O136 O 0.04072 0.49497 0.94113 0.0
O137 O 0.03003 0.58984 0.89478 0.0
O138 O 0.05167 0.55871 0.12054 0.0
O139 O 0.03384 0.60371 0.03112 0.0
Co140 Co 0.75466 0.72448 0.2373 0.0
O141 O 0.83113 0.70861 0.25451 0.0
O142 O 0.76612 0.69179 0.32285 0.0
C143 C 0.75462 0.67712 0.14019 0.0
O144 O 0.67034 0.73281 0.23685 0.0
Co145 Co 0.72317 0.80569 0.11954 0.0
O146 O 0.6491 0.78741 0.14945 0.0
C147 C 0.77238 0.86628 0.22783 0.0
C148 C 0.81739 0.6875 0.30953 0.0
C149 C 0.63498 0.75859 0.19968 0.0
O150 O 0.76231 0.81744 0.26301 0.0
O151 O 0.76991 0.86483 0.16765 0.0
O152 O 0.74982 0.6426 0.19052 0.0
O153 O 0.76286 0.73548 0.15101 0.0
Co154 Co 0.04306 0.46574 0.48501 0.0
O155 O 0.96647 0.48185 0.47079 0.0
O156 O 0.02945 0.55227 0.45499 0.0
C157 C 0.04421 0.37083 0.43307 0.0
O158 O 0.12722 0.46485 0.49148 0.0
Co159 Co 0.07655 0.34498 0.56081 0.0
O160 O 0.14996 0.37462 0.54055 0.0
C161 C 0.03252 0.45261 0.62917 0.0
C162 C 0.97842 0.53771 0.45091 0.0
C163 C 0.16295 0.42544 0.51275 0.0
O164 O 0.03658 0.4889 0.5798 0.0
O165 O 0.03731 0.39291 0.62668 0.0
O166 O 0.04767 0.42263 0.40084 0.0
O167 O 0.03611 0.37885 0.49223 0.0
Co168 Co 0.52208 0.53935 0.98732 0.0
O169 O 0.59756 0.51892 0.97071 0.0
O170 O 0.52994 0.45325 0.95642 0.0
C171 C 0.52468 0.63363 0.93685 0.0
O172 O 0.43835 0.54363 0.99709 0.0
Co173 Co 0.49326 0.65817 0.06665 0.0
O174 O 0.41796 0.6364 0.04263 0.0
C175 C 0.53899 0.5474 0.12939 0.0
C176 C 0.58156 0.46417 0.95142 0.0
C177 C 0.40346 0.58457 0.01729 0.0
O178 O 0.53026 0.5137 0.07943 0.0
O179 O 0.53358 0.60726 0.13077 0.0
O180 O 0.51682 0.58235 0.90469 0.0
O181 O 0.53376 0.62587 0.99609 0.0
Co182 Co 0.78231 0.74551 0.78188 0.0
O183 O 0.70693 0.73334 0.75809 0.0
O184 O 0.77638 0.71413 0.69589 0.0
C185 C 0.77319 0.69734 0.87756 0.0
O186 O 0.86597 0.74778 0.78802 0.0
Co187 Co 0.81322 0.82281 0.90047 0.0
O188 O 0.888 0.80027 0.87638 0.0
C189 C 0.77115 0.88799 0.79049 0.0
C190 C 0.72438 0.71147 0.70458 0.0
C191 C 0.90146 0.76953 0.827 0.0
O192 O 0.77928 0.83823 0.75593 0.0
O193 O 0.77372 0.88742 0.8507 0.0
O194 O 0.78152 0.66362 0.82717 0.0
O195 O 0.76832 0.75668 0.86785 0.0
Co196 Co 0.75378 0.27177 0.28089 0.0
O197 O 0.82993 0.28328 0.26419 0.0
O198 O 0.76834 0.29761 0.19197 0.0
C199 C 0.75921 0.32931 0.37173 0.0
O200 O 0.66905 0.26703 0.28441 0.0
Co201 Co 0.71953 0.20951 0.40816 0.0
O202 O 0.64839 0.24355 0.38516 0.0
C203 C 0.75731 0.12927 0.30263 0.0
C204 C 0.81912 0.30204 0.20785 0.0
C205 C 0.63396 0.25909 0.32956 0.0
O206 O 0.75902 0.17635 0.26333 0.0
O207 O 0.74827 0.13564 0.36166 0.0
O208 O 0.75213 0.35782 0.31823 0.0
O209 O 0.76459 0.2696 0.36802 0.0
Co210 Co 0.5171 0.47431 0.52789 0.0
O211 O 0.59155 0.49615 0.54427 0.0
O212 O 0.52432 0.56307 0.55319 0.0
C213 C 0.52163 0.38412 0.58511 0.0
O214 O 0.43356 0.46686 0.5169 0.0
Co215 Co 0.49145 0.34699 0.46065 0.0
O216 O 0.41693 0.36729 0.48652 0.0
C217 C 0.52946 0.4553 0.3855 0.0
C218 C 0.57589 0.55215 0.55977 0.0
C219 C 0.4003 0.42155 0.50363 0.0
O220 O 0.52684 0.49307 0.43366 0.0
O221 O 0.52098 0.39621 0.38884 0.0
O222 O 0.51152 0.437 0.61363 0.0
O223 O 0.53101 0.38819 0.52581 0.0
C224 C 0.19467 0.10688 0.11644 0.0
C225 C 0.1791 0.15436 0.15916 0.0
C226 C 0.15589 0.07169 0.08279 0.0
C227 C 0.09987 0.08313 0.08949 0.0
H228 H 0.23692 0.09438 0.11154 0.0
H229 H 0.17 0.03362 0.05288 0.0
S230 S 0.03843 0.2082 0.1891 0.0
N231 N 0.10397 0.2148 0.20202 0.0
N232 N 0.03159 0.14987 0.13807 0.0
C233 C 0.08408 0.13335 0.12887 0.0
C234 C 0.1235 0.16851 0.16387 0.0
C235 C 0.07938 0.86224 0.36126 0.0
C236 C 0.09215 0.88326 0.42256 0.0
C237 C 0.11666 0.82695 0.32504 0.0
C238 C 0.16822 0.81064 0.34873 0.0
H239 H 0.04157 0.87627 0.33965 0.0
H240 H 0.10571 0.81478 0.27701 0.0
S241 S 0.21639 0.84285 0.51139 0.0
N242 N 0.15697 0.8782 0.50825 0.0
N243 N 0.22613 0.81071 0.44126 0.0
C244 C 0.1796 0.82738 0.41172 0.0
C245 C 0.14193 0.864 0.44822 0.0
C246 C 0.44849 0.87203 0.62724 0.0
C247 C 0.43268 0.92001 0.58514 0.0
C248 C 0.41031 0.84058 0.66576 0.0
C249 C 0.35456 0.85508 0.6633 0.0
H250 H 0.4909 0.86065 0.63273 0.0
H251 H 0.42479 0.80551 0.69878 0.0
S252 S 0.29189 0.97596 0.56066 0.0
N253 N 0.35662 0.97878 0.54246 0.0
N254 N 0.28607 0.92082 0.61498 0.0
C255 C 0.3382 0.90147 0.6201 0.0
C256 C 0.37684 0.93349 0.5811 0.0
C257 C 0.39074 0.12469 0.93001 0.0
C258 C 0.44623 0.1217 0.91488 0.0
C259 C 0.35448 0.16199 0.89491 0.0
C260 C 0.37198 0.19702 0.84236 0.0
H261 H 0.37475 0.09607 0.96798 0.0
H262 H 0.31197 0.16054 0.90705 0.0
S263 S 0.51364 0.20599 0.78408 0.0
N264 N 0.51716 0.15859 0.84551 0.0
N265 N 0.44976 0.22793 0.77889 0.0
C266 C 0.42794 0.19641 0.82851 0.0
C267 C 0.46483 0.15902 0.86488 0.0
C268 C 0.71104 0.37958 0.89781 0.0
C269 C 0.69527 0.35051 0.84073 0.0
C270 C 0.6739 0.41466 0.93476 0.0
C271 C 0.61917 0.42089 0.91698 0.0
H272 H 0.75276 0.37716 0.913 0.0
H273 H 0.68834 0.43795 0.97705 0.0
S274 S 0.55746 0.35874 0.77055 0.0
N275 N 0.62047 0.33339 0.76775 0.0
N276 N 0.55186 0.39762 0.83763 0.0
C277 C 0.60273 0.39136 0.86096 0.0
C278 C 0.64036 0.35666 0.82285 0.0
C279 C 0.91124 0.36001 0.07169 0.0
C280 C 0.94826 0.39973 0.1033 0.0
C281 C 0.869 0.3286 0.10464 0.0
C282 C 0.86194 0.33618 0.17043 0.0
H283 H 0.91442 0.35393 0.02102 0.0
H284 H 0.84197 0.29813 0.07854 0.0
S285 S 0.94256 0.44313 0.27289 0.0
N286 N 0.97136 0.44918 0.20278 0.0
N287 N 0.89283 0.39216 0.26399 0.0
C288 C 0.89788 0.3774 0.20171 0.0
C289 C 0.94061 0.40869 0.16843 0.0
C290 C 0.95129 0.63339 0.38525 0.0
C291 C 0.93639 0.57943 0.42009 0.0
C292 C 0.91277 0.66903 0.35086 0.0
C293 C 0.85729 0.65342 0.35094 0.0
H294 H 0.99334 0.64716 0.38279 0.0
H295 H 0.92669 0.70881 0.32339 0.0
S296 S 0.79678 0.51588 0.43105 0.0
N297 N 0.86138 0.51171 0.44993 0.0
N298 N 0.79004 0.57938 0.38724 0.0
C299 C 0.8418 0.60046 0.38616 0.0
C300 C 0.88091 0.56345 0.4201 0.0
C301 C 0.5963 0.65153 0.6222 0.0
C302 C 0.61476 0.59778 0.58936 0.0
C303 C 0.63202 0.68964 0.65766 0.0
C304 C 0.68787 0.67641 0.66059 0.0
H305 H 0.55362 0.66286 0.62276 0.0
H306 H 0.61559 0.72899 0.68405 0.0
S307 S 0.7571 0.54131 0.58456 0.0
N308 N 0.69341 0.53386 0.56283 0.0
N309 N 0.75957 0.60562 0.62804 0.0
C310 C 0.707 0.62413 0.6265 0.0
C311 C 0.67078 0.58489 0.59131 0.0
C312 C 0.33553 0.17278 0.46824 0.0
C313 C 0.2919 0.14502 0.43657 0.0
C314 C 0.33384 0.18274 0.53344 0.0
C315 C 0.28952 0.16291 0.56976 0.0
H316 H 0.36832 0.19353 0.44175 0.0
H317 H 0.36503 0.21153 0.55448 0.0
S318 S 0.17218 0.0726 0.51201 0.0
N319 N 0.20754 0.08776 0.44748 0.0
N320 N 0.20575 0.10416 0.57151 0.0
C321 C 0.24915 0.1275 0.54017 0.0
C322 C 0.2502 0.11868 0.47308 0.0
C323 C 0.98828 0.92998 0.77441 0.0
C324 C 1.01011 0.96592 0.82462 0.0
C325 C 0.99479 0.94726 0.71104 0.0
C326 C 1.02158 1.00287 0.69482 0.0
H327 H 0.96436 0.88862 0.78411 0.0
H328 H 0.97613 0.91847 0.6749 0.0
S329 S 0.09062 0.1115 0.80699 0.0
N330 N 0.0635 0.05728 0.8529 0.0
N331 N 0.07422 0.09186 0.73396 0.0
C332 C 0.04517 0.0386 0.74428 0.0
C333 C 0.03934 0.02009 0.80901 0.0
C334 C 0.20851 0.82981 0.98173 0.0
C335 C 0.24968 0.85886 0.94685 0.0
C336 C 0.21352 0.82076 0.04683 0.0
C337 C 0.25904 0.84215 0.08014 0.0
H338 H 0.17504 0.80759 0.95766 0.0
H339 H 0.18408 0.79126 0.07011 0.0
S340 S 0.37363 0.93066 0.01305 0.0
N341 N 0.33439 0.91621 0.95152 0.0
N342 N 0.34283 0.90048 0.07519 0.0
C343 C 0.2975 0.8777 0.0474 0.0
C344 C 0.29289 0.88606 0.98036 0.0
C345 C 0.48534 0.99621 0.29708 0.0
C346 C 0.52437 0.0402 0.31587 0.0
C347 C 0.47851 0.98094 0.23281 0.0
C348 C 0.51028 0.00928 0.18509 0.0
H349 H 0.45973 0.97395 0.332 0.0
H350 H 0.44895 0.94544 0.22042 0.0
S351 S 0.62191 0.12234 0.21083 0.0
N352 N 0.59741 0.10909 0.28209 0.0
N353 N 0.58442 0.08023 0.16222 0.0
C354 C 0.54942 0.05318 0.20356 0.0
C355 C 0.55658 0.06846 0.26866 0.0
C356 C 0.48497 0.25544 0.37319 0.0
C357 C 0.45612 0.25675 0.31612 0.0
C358 C 0.54109 0.26032 0.37533 0.0
C359 C 0.57335 0.26313 0.32042 0.0
H360 H 0.4638 0.2517 0.41787 0.0
H361 H 0.55914 0.26191 0.42184 0.0
S362 S 0.51865 0.26863 0.15704 0.0
N363 N 0.46401 0.26343 0.20182 0.0
N364 N 0.57102 0.26849 0.20558 0.0
C365 C 0.54545 0.26408 0.26209 0.0
C366 C 0.48687 0.26097 0.25998 0.0
C367 C 0.09143 0.26897 0.43861 0.0
C368 C 0.05259 0.30624 0.40818 0.0
C369 C 0.08613 0.20359 0.4417 0.0
C370 C 0.04231 0.17236 0.41352 0.0
H371 H 0.12328 0.29066 0.46575 0.0
H372 H 0.11398 0.17818 0.47144 0.0
S373 S 0.93762 0.24615 0.3143 0.0
N374 N 0.97454 0.3061 0.33892 0.0
N375 N 0.96507 0.18203 0.34428 0.0
C376 C 1.00743 0.2078 0.37552 0.0
C377 C 1.01258 0.27511 0.37278 0.0
C378 C 0.99142 0.76463 0.76474 0.0
C379 C 0.96076 0.75512 0.82046 0.0
C380 C 0.04919 0.76456 0.76604 0.0
C381 C 0.07793 0.75693 0.82339 0.0
H382 H 0.9709 0.77458 0.72072 0.0
H383 H 0.0712 0.77106 0.72233 0.0
S384 S 1.01508 0.73329 0.98037 0.0
N385 N 0.96383 0.73108 0.9315 0.0
N386 N 0.06892 0.74669 0.93709 0.0
C387 C 0.04672 0.74889 0.87852 0.0
C388 C 0.98939 0.74321 0.87605 0.0
C389 C 0.57088 0.73175 0.90308 0.0
C390 C 0.52268 0.69751 0.90979 0.0
C391 C 0.57053 0.79796 0.8997 0.0
C392 C 0.52164 0.83166 0.90265 0.0
H393 H 0.60907 0.70721 0.9052 0.0
H394 H 0.6087 0.82285 0.90101 0.0
S395 S 0.38459 0.763 0.91168 0.0
N396 N 0.42508 0.70126 0.91215 0.0
N397 N 0.42393 0.82538 0.90577 0.0
C398 C 0.47318 0.79732 0.9033 0.0
C399 C 0.47371 0.73019 0.90678 0.0
C400 C 0.54195 0.79312 0.17075 0.0
C401 C 0.57439 0.75711 0.21166 0.0
C402 C 0.48561 0.7898 0.16998 0.0
C403 C 0.45714 0.75173 0.2121 0.0
H404 H 0.56081 0.82326 0.13693 0.0
H405 H 0.46392 0.81526 0.13364 0.0
S406 S 0.51922 0.6559 0.33931 0.0
N407 N 0.57177 0.68753 0.3029 0.0
N408 N 0.46474 0.68125 0.30194 0.0
C409 C 0.48776 0.7185 0.2575 0.0
C410 C 0.5464 0.72142 0.25756 0.0
C411 C 0.47679 0.22068 0.62034 0.0
C412 C 0.52622 0.18812 0.61665 0.0
C413 C 0.47509 0.28684 0.61983 0.0
C414 C 0.52298 0.32191 0.6154 0.0
H415 H 0.4393 0.19478 0.61739 0.0
H416 H 0.43625 0.3101 0.61581 0.0
S417 S 0.66214 0.25827 0.61374 0.0
N418 N 0.62356 0.19525 0.61744 0.0
N419 N 0.62086 0.3194 0.61444 0.0
C420 C 0.57249 0.28973 0.61858 0.0
C421 C 0.57403 0.22268 0.62003 0.0
C422 C 0.06118 0.2406 0.62183 0.0
C423 C 0.09177 0.25199 0.67659 0.0
C424 C 1.00519 0.24717 0.62067 0.0
C425 C 0.97458 0.26035 0.67537 0.0
H426 H 0.08088 0.22931 0.57756 0.0
H427 H 0.98595 0.24231 0.57504 0.0
S428 S 0.03347 0.29 0.83402 0.0
N429 N 0.08683 0.27684 0.78873 0.0
N430 N 0.97989 0.28313 0.78788 0.0
C431 C 1.00397 0.26953 0.73189 0.0
C432 C 0.06251 0.26577 0.73241 0.0
C433 C 0.07009 0.78153 0.12453 0.0
C434 C 1.01753 0.80692 0.12208 0.0
C435 C 0.07903 0.71587 0.12344 0.0
C436 C 0.03544 0.67348 0.12061 0.0
H437 H 0.10436 0.81275 0.12042 0.0
H438 H 0.11999 0.69863 0.11784 0.0
S439 S 0.89051 0.71636 0.12249 0.0
N440 N 0.92185 0.78475 0.12471 0.0
N441 N 0.93809 0.66179 0.12335 0.0
C442 C 0.98291 0.69839 0.12624 0.0
C443 C 0.97402 0.76512 0.12694 0.0
C444 C 0.27568 0.43703 0.20836 0.0
C445 C 0.2448 0.4205 0.26126 0.0
C446 C 0.28282 0.5001 0.19189 0.0
C447 C 0.25903 0.54941 0.22716 0.0
H448 H 0.29769 0.4015 0.18202 0.0
H449 H 0.30933 0.51023 0.15253 0.0
S450 S 0.16671 0.53059 0.36325 0.0
N451 N 0.18469 0.45794 0.34462 0.0
N452 N 0.19823 0.57693 0.31276 0.0
C453 C 0.22525 0.53348 0.27771 0.0
C454 C 0.21786 0.46897 0.29467 0.0
C455 C 0.74477 0.06369 0.77491 0.0
C456 C 0.78033 0.08082 0.72628 0.0
C457 C 0.73917 1.00013 0.79269 0.0
C458 C 0.76846 0.95159 0.76201 0.0
H459 H 0.72105 0.09932 0.79896 0.0
H460 H 0.71253 0.98893 0.83173 0.0
S461 S 0.87075 0.97311 0.63651 0.0
N462 N 0.84811 0.04473 0.65103 0.0
N463 N 0.83638 0.9261 0.68355 0.0
C464 C 0.80397 0.96841 0.71347 0.0
C465 C 0.8103 0.03277 0.69604 0.0
C466 C 0.31077 0.6288 1.00527 0.0
C467 C 0.34335 0.57489 0.01084 0.0
C468 C 0.25441 0.62588 0.00723 0.0
C469 C 0.22601 0.56847 0.0126 0.0
H470 H 0.32899 0.67486 1.00096 0.0
H471 H 0.23294 0.67028 1.00496 0.0
S472 S 0.29138 0.4116 0.02618 0.0
N473 N 0.3429 0.46092 0.02179 0.0
N474 N 0.23593 0.45499 0.02209 0.0
C475 C 0.25773 0.51329 0.01692 0.0
C476 C 0.31629 0.51651 0.01613 0.0
C477 C 0.80107 0.04179 0.2389 0.0
C478 C 0.76146 0.06248 0.28169 0.0
C479 C 0.80735 0.97711 0.22535 0.0
C480 C 0.7748 0.9308 0.25468 0.0
H481 H 0.82749 0.0755 0.21622 0.0
H482 H 0.83703 0.96323 0.1903 0.0
S483 S 0.66058 0.96155 0.36355 0.0
N484 N 0.68624 0.03171 0.34922 0.0
N485 N 0.69871 0.91135 0.324 0.0
C486 C 0.73492 0.95118 0.29701 0.0
C487 C 0.72804 0.01661 0.31024 0.0
C488 C 0.78642 0.86554 0.01725 0.0
C489 C 0.81991 0.91897 0.02356 0.0
C490 C 0.7304 0.87027 0.01185 0.0
C491 C 0.7034 0.92835 0.01436 0.0
H492 H 0.8034 0.81851 0.01569 0.0
H493 H 0.70776 0.82714 1.00644 0.0
S494 S 0.76998 0.08362 0.03451 0.0
N495 N 0.82089 0.03309 0.03345 0.0
N496 N 0.71429 0.04152 0.02609 0.0
C497 C 0.73555 0.98275 0.02173 0.0
C498 C 0.79377 0.97809 0.02624 0.0
C499 C 0.25774 0.57064 0.70773 0.0
C500 C 0.28758 0.58702 0.76155 0.0
C501 C 0.25383 0.50782 0.68824 0.0
C502 C 0.2798 0.45871 0.72144 0.0
H503 H 0.23452 0.60591 0.68266 0.0
H504 H 0.22831 0.49746 0.64804 0.0
S505 S 0.36941 0.47785 0.86005 0.0
N506 N 0.34825 0.54991 0.84423 0.0
N507 N 0.34067 0.4317 0.80702 0.0
C508 C 0.312 0.47472 0.77341 0.0
C509 C 0.31616 0.53886 0.79333 0.0
C510 C 0.25201 0.3769 0.4925 0.0
C511 C 0.22258 0.43272 0.50209 0.0
C512 C 0.30818 0.37497 0.49605 0.0
C513 C 0.33964 0.42946 0.50507 0.0
H514 H 0.23117 0.33266 0.48495 0.0
H515 H 0.32691 0.32904 0.49234 0.0
S516 S 0.28332 0.59027 0.52784 0.0
N517 N 0.22911 0.54549 0.51992 0.0
N518 N 0.33622 0.54295 0.52121 0.0
C519 C 0.31118 0.48694 0.51195 0.0
C520 C 0.25262 0.48847 0.51075 0.0
C521 C 0.71631 0.69747 0.97317 0.0
C522 C 0.76066 0.67168 0.94088 0.0
C523 C 0.70936 0.68887 0.03805 0.0
C524 C 0.74761 0.65594 0.07408 0.0
H525 H 0.68916 0.72922 0.94904 0.0
H526 H 0.67687 0.71409 0.06106 0.0
S527 S 0.86633 0.57005 0.01063 0.0
N528 N 0.83936 0.60384 0.94781 0.0
N529 N 0.82737 0.58915 0.07125 0.0
C530 C 0.7892 0.62417 0.04155 0.0
C531 C 0.79572 0.63204 0.97455 0.0
C532 C 0.49789 0.45875 0.27475 0.0
C533 C 0.53528 0.47938 0.3205 0.0
C534 C 0.50214 0.47702 0.21151 0.0
C535 C 0.54397 0.51668 0.1915 0.0
H536 H 0.46432 0.42892 0.28826 0.0
H537 H 0.47088 0.46255 0.17874 0.0
S538 S 0.65811 0.57359 0.28961 0.0
N539 N 0.61978 0.53395 0.33963 0.0
N540 N 0.62704 0.57044 0.2205 0.0
C541 C 0.58326 0.53518 0.23592 0.0
C542 C 0.57917 0.51591 0.30052 0.0
C543 C 0.7275 0.37675 0.47307 0.0
C544 C 0.77024 0.36066 0.43242 0.0
C545 C 0.73625 0.38282 0.53853 0.0
C546 C 0.78761 0.37213 0.56512 0.0
H547 H 0.68651 0.3787 0.45523 0.0
H548 H 0.70167 0.38953 0.5691 0.0
S549 S 0.91299 0.33623 0.4778 0.0
N550 N 0.86626 0.34057 0.4224 0.0
N551 N 0.88227 0.35252 0.54503 0.0
C552 C 0.8312 0.36277 0.52409 0.0
C553 C 0.8225 0.35639 0.45779 0.0
C554 C 0.98951 0.51316 0.71946 0.0
C555 C 0.0325 0.47755 0.69479 0.0
C556 C 0.98661 0.52674 0.78477 0.0
C557 C 0.02562 0.50356 0.82779 0.0
H558 H 0.95773 0.52974 0.68849 0.0
H559 H 0.95396 0.55629 0.80178 0.0
S560 S 0.14877 0.41373 0.7856 0.0
N561 N 0.1169 0.4234 0.7178 0.0
N562 N 0.11035 0.4476 0.83965 0.0
C563 C 0.06876 0.46844 0.80332 0.0
C564 C 0.07243 0.45585 0.73717 0.0
C565 C 0.80243 0.13532 0.49912 0.0
C566 C 0.83151 0.07842 0.49731 0.0
C567 C 0.74631 0.13712 0.50598 0.0
C568 C 0.71435 0.08218 0.50694 0.0
H569 H 0.82336 0.17996 0.49641 0.0
H570 H 0.72787 0.18321 0.50981 0.0
S571 S 0.76895 0.91944 0.49778 0.0
N572 N 0.8234 0.96429 0.49418 0.0
N573 N 0.71677 0.9678 0.50389 0.0
C574 C 0.7423 0.02424 0.50318 0.0
C575 C 0.8007 0.02236 0.49792 0.0
loop_
_geom_bond_atom_site_label_1
_geom_bond_atom_site_label_2
_geom_bond_distance
_geom_bond_site_symmetry_2
_ccdc_geom_bond_type
Co0 O1 2.216 . S
Co0 O2 2.091 . S
Co0 O4 2.004 . S
Co0 O10 2.021 . S
Co0 O12 2.137 . S
Co0 O13 2.244 . S
O1 Co0 2.216 . S
O1 C8 1.247 . S
O2 Co0 2.091 . S
O2 C8 1.261 . S
C3 O12 1.247 . S
C3 O13 1.272 . S
O4 Co0 2.004 . S
O4 C9 1.259 . S
Co5 O6 2.061 . S
Co5 O11 2.052 . S
Co5 O13 2.135 . S
O6 Co5 2.061 . S
O6 C9 1.235 . S
C7 O10 1.238 . S
C7 O11 1.241 . S
C8 O1 1.247 . S
C8 O2 1.261 . S
C9 O4 1.259 . S
C9 O6 1.235 . S
O10 Co0 2.021 . S
O10 C7 1.238 . S
O11 Co5 2.052 . S
O11 C7 1.241 . S
O12 Co0 2.137 . S
O12 C3 1.247 . S
O13 Co0 2.244 . S
O13 C3 1.272 . S
O13 Co5 2.135 . S
Co14 O15 2.216 1_655 S
Co14 O16 2.091 1_545 S
Co14 O18 2.004 . S
Co14 O24 2.021 1_545 S
Co14 O26 2.137 . S
Co14 O27 2.244 . S
O15 Co14 2.216 1_455 S
O15 C22 1.247 1_545 S
O16 Co14 2.091 1_565 S
O16 C22 1.261 1_655 S
C17 O26 1.247 . S
C17 O27 1.272 . S
O18 Co14 2.004 . S
O18 C23 1.259 . S
Co19 O20 2.061 . S
Co19 O25 2.052 . S
Co19 O27 2.135 . S
O20 Co19 2.061 . S
O20 C23 1.235 . S
C21 O24 1.238 . S
C21 O25 1.241 1_565 S
C22 O15 1.247 1_565 S
C22 O16 1.261 1_455 S
C23 O18 1.259 . S
C23 O20 1.235 . S
O24 Co14 2.021 1_565 S
O24 C21 1.238 . S
O25 Co19 2.052 . S
O25 C21 1.241 1_545 S
O26 Co14 2.137 . S
O26 C17 1.247 . S
O27 Co14 2.244 . S
O27 C17 1.272 . S
O27 Co19 2.135 . S
Co28 O29 2.216 . S
Co28 O30 2.091 . S
Co28 O32 2.004 . S
Co28 O38 2.021 . S
Co28 O40 2.137 . S
Co28 O41 2.244 . S
O29 Co28 2.216 . S
O29 C36 1.247 . S
O30 Co28 2.091 . S
O30 C36 1.261 . S
C31 O40 1.247 . S
C31 O41 1.272 . S
O32 Co28 2.004 . S
O32 C37 1.259 . S
Co33 O34 2.061 . S
Co33 O39 2.052 . S
Co33 O41 2.135 . S
O34 Co33 2.061 . S
O34 C37 1.235 . S
C35 O38 1.238 . S
C35 O39 1.241 . S
C36 O29 1.247 . S
C36 O30 1.261 . S
C37 O32 1.259 . S
C37 O34 1.235 . S
O38 Co28 2.021 . S
O38 C35 1.238 . S
O39 Co33 2.052 . S
O39 C35 1.241 . S
O40 Co28 2.137 . S
O40 C31 1.247 . S
O41 Co28 2.244 . S
O41 C31 1.272 . S
O41 Co33 2.135 . S
Co42 O43 2.216 . S
Co42 O44 2.091 1_565 S
Co42 O46 2.004 . S
Co42 O52 2.021 1_566 S
Co42 O54 2.137 . S
Co42 O55 2.244 1_556 S
O43 Co42 2.216 . S
O43 C50 1.247 1_565 S
O44 Co42 2.091 1_545 S
O44 C50 1.261 . S
C45 O54 1.247 . S
C45 O55 1.272 1_556 S
O46 Co42 2.004 . S
O46 C51 1.259 . S
Co47 O48 2.061 . S
Co47 O53 2.052 . S
Co47 O55 2.135 . S
O48 Co47 2.061 . S
O48 C51 1.235 1_554 S
C49 O52 1.238 . S
C49 O53 1.241 1_545 S
C50 O43 1.247 1_545 S
C50 O44 1.261 . S
C51 O46 1.259 . S
C51 O48 1.235 1_556 S
O52 Co42 2.021 1_544 S
O52 C49 1.238 . S
O53 Co47 2.052 . S
O53 C49 1.241 1_565 S
O54 Co42 2.137 . S
O54 C45 1.247 . S
O55 Co42 2.244 1_554 S
O55 C45 1.272 1_554 S
O55 Co47 2.135 . S
Co56 O57 2.216 . S
Co56 O58 2.091 . S
Co56 O60 2.004 . S
Co56 O66 2.021 . S
Co56 O68 2.137 . S
Co56 O69 2.244 . S
O57 Co56 2.216 . S
O57 C64 1.247 . S
O58 Co56 2.091 . S
O58 C64 1.261 . S
C59 O68 1.247 . S
C59 O69 1.272 . S
O60 Co56 2.004 . S
O60 C65 1.259 . S
Co61 O62 2.061 . S
Co61 O67 2.052 . S
Co61 O69 2.135 . S
O62 Co61 2.061 . S
O62 C65 1.235 . S
C63 O66 1.238 . S
C63 O67 1.241 . S
C64 O57 1.247 . S
C64 O58 1.261 . S
C65 O60 1.259 . S
C65 O62 1.235 . S
O66 Co56 2.021 . S
O66 C63 1.238 . S
O67 Co61 2.052 . S
O67 C63 1.241 . S
O68 Co56 2.137 . S
O68 C59 1.247 . S
O69 Co56 2.244 . S
O69 C59 1.272 . S
O69 Co61 2.135 . S
Co70 O71 2.216 . S
Co70 O72 2.091 1_545 S
Co70 O74 2.004 . S
Co70 O80 2.021 1_545 S
Co70 O82 2.137 . S
Co70 O83 2.244 . S
O71 Co70 2.216 . S
O71 C78 1.247 1_545 S
O72 Co70 2.091 1_565 S
O72 C78 1.261 . S
C73 O82 1.247 . S
C73 O83 1.272 . S
O74 Co70 2.004 . S
O74 C79 1.259 . S
Co75 O76 2.061 . S
Co75 O81 2.052 . S
Co75 O83 2.135 . S
O76 Co75 2.061 . S
O76 C79 1.235 . S
C77 O80 1.238 . S
C77 O81 1.241 1_565 S
C78 O71 1.247 1_565 S
C78 O72 1.261 . S
C79 O74 1.259 . S
C79 O76 1.235 . S
O80 Co70 2.021 1_565 S
O80 C77 1.238 . S
O81 Co75 2.052 . S
O81 C77 1.241 1_545 S
O82 Co70 2.137 . S
O82 C73 1.247 . S
O83 Co70 2.244 . S
O83 C73 1.272 . S
O83 Co75 2.135 . S
Co84 O85 2.216 . S
Co84 O86 2.091 . S
Co84 O88 2.004 . S
Co84 O94 2.021 . S
Co84 O96 2.137 . S
Co84 O97 2.244 . S
O85 Co84 2.216 . S
O85 C92 1.247 . S
O86 Co84 2.091 . S
O86 C92 1.261 . S
C87 O96 1.247 . S
C87 O97 1.272 . S
O88 Co84 2.004 . S
O88 C93 1.259 . S
Co89 O90 2.061 . S
Co89 O95 2.052 . S
Co89 O97 2.135 . S
O90 Co89 2.061 . S
O90 C93 1.235 . S
C91 O94 1.238 . S
C91 O95 1.241 . S
C92 O85 1.247 . S
C92 O86 1.261 . S
C93 O88 1.259 . S
C93 O90 1.235 . S
O94 Co84 2.021 . S
O94 C91 1.238 . S
O95 Co89 2.052 . S
O95 C91 1.241 . S
O96 Co84 2.137 . S
O96 C87 1.247 . S
O97 Co84 2.244 . S
O97 C87 1.272 . S
O97 Co89 2.135 . S
Co98 O99 2.216 1_655 S
Co98 O100 2.091 1_565 S
Co98 O102 2.004 . S
Co98 O108 2.021 1_564 S
Co98 O110 2.137 . S
Co98 O111 2.244 1_554 S
O99 Co98 2.216 1_455 S
O99 C106 1.247 1_565 S
O100 Co98 2.091 1_545 S
O100 C106 1.261 1_655 S
C101 O110 1.247 . S
C101 O111 1.272 1_554 S
O102 Co98 2.004 . S
O102 C107 1.259 . S
Co103 O104 2.061 . S
Co103 O109 2.052 . S
Co103 O111 2.135 . S
O104 Co103 2.061 . S
O104 C107 1.235 1_556 S
C105 O108 1.238 . S
C105 O109 1.241 1_545 S
C106 O99 1.247 1_545 S
C106 O100 1.261 1_455 S
C107 O102 1.259 . S
C107 O104 1.235 1_554 S
O108 Co98 2.021 1_546 S
O108 C105 1.238 . S
O109 Co103 2.052 . S
O109 C105 1.241 1_565 S
O110 Co98 2.137 . S
O110 C101 1.247 . S
O111 Co98 2.244 1_556 S
O111 C101 1.272 1_556 S
O111 Co103 2.135 . S
Co112 O113 2.216 . S
Co112 O114 2.091 . S
Co112 O116 2.004 . S
Co112 O122 2.021 . S
Co112 O124 2.137 . S
Co112 O125 2.244 . S
O113 Co112 2.216 . S
O113 C120 1.247 . S
O114 Co112 2.091 . S
O114 C120 1.261 . S
C115 O124 1.247 . S
C115 O125 1.272 . S
O116 Co112 2.004 . S
O116 C121 1.259 . S
Co117 O118 2.061 . S
Co117 O123 2.052 . S
Co117 O125 2.135 . S
O118 Co117 2.061 . S
O118 C121 1.235 . S
C119 O122 1.238 . S
C119 O123 1.241 . S
C120 O113 1.247 . S
C120 O114 1.261 . S
C121 O116 1.259 . S
C121 O118 1.235 . S
O122 Co112 2.021 . S
O122 C119 1.238 . S
O123 Co117 2.052 . S
O123 C119 1.241 . S
O124 Co112 2.137 . S
O124 C115 1.247 . S
O125 Co112 2.244 . S
O125 C115 1.272 . S
O125 Co117 2.135 . S
Co126 O127 2.216 1_455 S
Co126 O128 2.091 . S
Co126 O130 2.004 . S
Co126 O136 2.021 1_554 S
Co126 O138 2.137 . S
Co126 O139 2.244 1_554 S
O127 Co126 2.216 1_655 S
O127 C134 1.247 . S
O128 Co126 2.091 . S
O128 C134 1.261 1_455 S
C129 O138 1.247 . S
C129 O139 1.272 1_554 S
O130 Co126 2.004 . S
O130 C135 1.259 . S
Co131 O132 2.061 . S
Co131 O137 2.052 . S
Co131 O139 2.135 . S
O132 Co131 2.061 . S
O132 C135 1.235 1_556 S
C133 O136 1.238 . S
C133 O137 1.241 . S
C134 O127 1.247 . S
C134 O128 1.261 1_655 S
C135 O130 1.259 . S
C135 O132 1.235 1_554 S
O136 Co126 2.021 1_556 S
O136 C133 1.238 . S
O137 Co131 2.052 . S
O137 C133 1.241 . S
O138 Co126 2.137 . S
O138 C129 1.247 . S
O139 Co126 2.244 1_556 S
O139 C129 1.272 1_556 S
O139 Co131 2.135 . S
Co140 O141 2.216 . S
Co140 O142 2.091 . S
Co140 O144 2.004 . S
Co140 O150 2.021 . S
Co140 O152 2.137 . S
Co140 O153 2.244 . S
O141 Co140 2.216 . S
O141 C148 1.247 . S
O142 Co140 2.091 . S
O142 C148 1.261 . S
C143 O152 1.247 . S
C143 O153 1.272 . S
O144 Co140 2.004 . S
O144 C149 1.259 . S
Co145 O146 2.061 . S
Co145 O151 2.052 . S
Co145 O153 2.135 . S
O146 Co145 2.061 . S
O146 C149 1.235 . S
C147 O150 1.238 . S
C147 O151 1.241 . S
C148 O141 1.247 . S
C148 O142 1.261 . S
C149 O144 1.259 . S
C149 O146 1.235 . S
O150 Co140 2.021 . S
O150 C147 1.238 . S
O151 Co145 2.052 . S
O151 C147 1.241 . S
O152 Co140 2.137 . S
O152 C143 1.247 . S
O153 Co140 2.244 . S
O153 C143 1.272 . S
O153 Co145 2.135 . S
Co154 O155 2.216 1_455 S
Co154 O156 2.091 . S
Co154 O158 2.004 . S
Co154 O164 2.021 . S
Co154 O166 2.137 . S
Co154 O167 2.244 . S
O155 Co154 2.216 1_655 S
O155 C162 1.247 . S
O156 Co154 2.091 . S
O156 C162 1.261 1_455 S
C157 O166 1.247 . S
C157 O167 1.272 . S
O158 Co154 2.004 . S
O158 C163 1.259 . S
Co159 O160 2.061 . S
Co159 O165 2.052 . S
Co159 O167 2.135 . S
O160 Co159 2.061 . S
O160 C163 1.235 . S
C161 O164 1.238 . S
C161 O165 1.241 . S
C162 O155 1.247 . S
C162 O156 1.261 1_655 S
C163 O158 1.259 . S
C163 O160 1.235 . S
O164 Co154 2.021 . S
O164 C161 1.238 . S
O165 Co159 2.052 . S
O165 C161 1.241 . S
O166 Co154 2.137 . S
O166 C157 1.247 . S
O167 Co154 2.244 . S
O167 C157 1.272 . S
O167 Co159 2.135 . S
Co168 O169 2.216 . S
Co168 O170 2.091 . S
Co168 O172 2.004 . S
Co168 O178 2.021 1_556 S
Co168 O180 2.137 . S
Co168 O181 2.244 1_556 S
O169 Co168 2.216 . S
O169 C176 1.247 . S
O170 Co168 2.091 . S
O170 C176 1.261 . S
C171 O180 1.247 . S
C171 O181 1.272 1_556 S
O172 Co168 2.004 . S
O172 C177 1.259 . S
Co173 O174 2.061 . S
Co173 O179 2.052 . S
Co173 O181 2.135 . S
O174 Co173 2.061 . S
O174 C177 1.235 1_554 S
C175 O178 1.238 . S
C175 O179 1.241 . S
C176 O169 1.247 . S
C176 O170 1.261 . S
C177 O172 1.259 . S
C177 O174 1.235 1_556 S
O178 Co168 2.021 1_554 S
O178 C175 1.238 . S
O179 Co173 2.052 . S
O179 C175 1.241 . S
O180 Co168 2.137 . S
O180 C171 1.247 . S
O181 Co168 2.244 1_554 S
O181 C171 1.272 1_554 S
O181 Co173 2.135 . S
Co182 O183 2.216 . S
Co182 O184 2.091 . S
Co182 O186 2.004 . S
Co182 O192 2.021 . S
Co182 O194 2.137 . S
Co182 O195 2.244 . S
O183 Co182 2.216 . S
O183 C190 1.247 . S
O184 Co182 2.091 . S
O184 C190 1.261 . S
C185 O194 1.247 . S
C185 O195 1.272 . S
O186 Co182 2.004 . S
O186 C191 1.259 . S
Co187 O188 2.061 . S
Co187 O193 2.052 . S
Co187 O195 2.135 . S
O188 Co187 2.061 . S
O188 C191 1.235 . S
C189 O192 1.238 . S
C189 O193 1.241 . S
C190 O183 1.247 . S
C190 O184 1.261 . S
C191 O186 1.259 . S
C191 O188 1.235 . S
O192 Co182 2.021 . S
O192 C189 1.238 . S
O193 Co187 2.052 . S
O193 C189 1.241 . S
O194 Co182 2.137 . S
O194 C185 1.247 . S
O195 Co182 2.244 . S
O195 C185 1.272 . S
O195 Co187 2.135 . S
Co196 O197 2.216 . S
Co196 O198 2.091 . S
Co196 O200 2.004 . S
Co196 O206 2.021 . S
Co196 O208 2.137 . S
Co196 O209 2.244 . S
O197 Co196 2.216 . S
O197 C204 1.247 . S
O198 Co196 2.091 . S
O198 C204 1.261 . S
C199 O208 1.247 . S
C199 O209 1.272 . S
O200 Co196 2.004 . S
O200 C205 1.259 . S
Co201 O202 2.061 . S
Co201 O207 2.052 . S
Co201 O209 2.135 . S
O202 Co201 2.061 . S
O202 C205 1.235 . S
C203 O206 1.238 . S
C203 O207 1.241 . S
C204 O197 1.247 . S
C204 O198 1.261 . S
C205 O200 1.259 . S
C205 O202 1.235 . S
O206 Co196 2.021 . S
O206 C203 1.238 . S
O207 Co201 2.052 . S
O207 C203 1.241 . S
O208 Co196 2.137 . S
O208 C199 1.247 . S
O209 Co196 2.244 . S
O209 C199 1.272 . S
O209 Co201 2.135 . S
Co210 O211 2.216 . S
Co210 O212 2.091 . S
Co210 O214 2.004 . S
Co210 O220 2.021 . S
Co210 O222 2.137 . S
Co210 O223 2.244 . S
O211 Co210 2.216 . S
O211 C218 1.247 . S
O212 Co210 2.091 . S
O212 C218 1.261 . S
C213 O222 1.247 . S
C213 O223 1.272 . S
O214 Co210 2.004 . S
O214 C219 1.259 . S
Co215 O216 2.061 . S
Co215 O221 2.052 . S
Co215 O223 2.135 . S
O216 Co215 2.061 . S
O216 C219 1.235 . S
C217 O220 1.238 . S
C217 O221 1.241 . S
C218 O211 1.247 . S
C218 O212 1.261 . S
C219 O214 1.259 . S
C219 O216 1.235 . S
O220 Co210 2.021 . S
O220 C217 1.238 . S
O221 Co215 2.052 . S
O221 C217 1.241 . S
O222 Co210 2.137 . S
O222 C213 1.247 . S
O223 Co210 2.244 . S
O223 C213 1.272 . S
O223 Co215 2.135 . S
C224 C225 1.369 . S
C224 C226 1.419 . S
C224 H228 0.930 . S
C225 C224 1.369 . S
C225 C234 1.429 . S
C226 C224 1.419 . S
C226 C227 1.363 . S
C226 H229 0.929 . S
C227 C226 1.363 . S
C227 C233 1.428 . S
H228 C224 0.930 . S
H229 C226 0.929 . S
S230 N231 1.613 . S
S230 N232 1.610 . S
N231 S230 1.613 . S
N231 C234 1.350 . S
N232 S230 1.610 . S
N232 C233 1.351 . S
C233 C227 1.428 . S
C233 N232 1.351 . S
C233 C234 1.434 . S
C234 C225 1.429 . S
C234 N231 1.350 . S
C234 C233 1.434 . S
C235 C236 1.369 . S
C235 C237 1.419 . S
C235 H239 0.930 . S
C236 C235 1.369 . S
C236 C245 1.429 . S
C237 C235 1.419 . S
C237 C238 1.363 . S
C237 H240 0.929 . S
C238 C237 1.363 . S
C238 C244 1.428 . S
H239 C235 0.930 . S
H240 C237 0.929 . S
S241 N242 1.613 . S
S241 N243 1.610 . S
N242 S241 1.613 . S
N242 C245 1.350 . S
N243 S241 1.610 . S
N243 C244 1.351 . S
C244 C238 1.428 . S
C244 N243 1.351 . S
C244 C245 1.434 . S
C245 C236 1.429 . S
C245 N242 1.350 . S
C245 C244 1.434 . S
C246 C247 1.369 . S
C246 C248 1.419 . S
C246 H250 0.930 . S
C247 C246 1.369 . S
C247 C256 1.429 . S
C248 C246 1.419 . S
C248 C249 1.363 . S
C248 H251 0.929 . S
C249 C248 1.363 . S
C249 C255 1.428 . S
H250 C246 0.930 . S
H251 C248 0.929 . S
S252 N253 1.613 . S
S252 N254 1.610 . S
N253 S252 1.613 . S
N253 C256 1.350 . S
N254 S252 1.610 . S
N254 C255 1.351 . S
C255 C249 1.428 . S
C255 N254 1.351 . S
C255 C256 1.434 . S
C256 C247 1.429 . S
C256 N253 1.350 . S
C256 C255 1.434 . S
C257 C258 1.369 . S
C257 C259 1.419 . S
C257 H261 0.930 . S
C258 C257 1.369 . S
C258 C267 1.429 . S
C259 C257 1.419 . S
C259 C260 1.363 . S
C259 H262 0.929 . S
C260 C259 1.363 . S
C260 C266 1.428 . S
H261 C257 0.930 . S
H262 C259 0.929 . S
S263 N264 1.613 . S
S263 N265 1.610 . S
N264 S263 1.613 . S
N264 C267 1.350 . S
N265 S263 1.610 . S
N265 C266 1.351 . S
C266 C260 1.428 . S
C266 N265 1.351 . S
C266 C267 1.434 . S
C267 C258 1.429 . S
C267 N264 1.350 . S
C267 C266 1.434 . S
C268 C269 1.369 . S
C268 C270 1.419 . S
C268 H272 0.930 . S
C269 C268 1.369 . S
C269 C278 1.429 . S
C270 C268 1.419 . S
C270 C271 1.363 . S
C270 H273 0.929 . S
C271 C270 1.363 . S
C271 C277 1.428 . S
H272 C268 0.930 . S
H273 C270 0.929 . S
S274 N275 1.613 . S
S274 N276 1.610 . S
N275 S274 1.613 . S
N275 C278 1.350 . S
N276 S274 1.610 . S
N276 C277 1.351 . S
C277 C271 1.428 . S
C277 N276 1.351 . S
C277 C278 1.434 . S
C278 C269 1.429 . S
C278 N275 1.350 . S
C278 C277 1.434 . S
C279 C280 1.369 . S
C279 C281 1.419 . S
C279 H283 0.930 . S
C280 C279 1.369 . S
C280 C289 1.429 . S
C281 C279 1.419 . S
C281 C282 1.363 . S
C281 H284 0.929 . S
C282 C281 1.363 . S
C282 C288 1.428 . S
H283 C279 0.930 . S
H284 C281 0.929 . S
S285 N286 1.613 . S
S285 N287 1.610 . S
N286 S285 1.613 . S
N286 C289 1.350 . S
N287 S285 1.610 . S
N287 C288 1.351 . S
C288 C282 1.428 . S
C288 N287 1.351 . S
C288 C289 1.434 . S
C289 C280 1.429 . S
C289 N286 1.350 . S
C289 C288 1.434 . S
C290 C291 1.369 . S
C290 C292 1.419 . S
C290 H294 0.930 . S
C291 C290 1.369 . S
C291 C300 1.429 . S
C292 C290 1.419 . S
C292 C293 1.363 . S
C292 H295 0.929 . S
C293 C292 1.363 . S
C293 C299 1.428 . S
H294 C290 0.930 . S
H295 C292 0.929 . S
S296 N297 1.613 . S
S296 N298 1.610 . S
N297 S296 1.613 . S
N297 C300 1.350 . S
N298 S296 1.610 . S
N298 C299 1.351 . S
C299 C293 1.428 . S
C299 N298 1.351 . S
C299 C300 1.434 . S
C300 C291 1.429 . S
C300 N297 1.350 . S
C300 C299 1.434 . S
C301 C302 1.369 . S
C301 C303 1.419 . S
C301 H305 0.930 . S
C302 C301 1.369 . S
C302 C311 1.429 . S
C303 C301 1.419 . S
C303 C304 1.363 . S
C303 H306 0.929 . S
C304 C303 1.363 . S
C304 C310 1.428 . S
H305 C301 0.930 . S
H306 C303 0.929 . S
S307 N308 1.613 . S
S307 N309 1.610 . S
N308 S307 1.613 . S
N308 C311 1.350 . S
N309 S307 1.610 . S
N309 C310 1.351 . S
C310 C304 1.428 . S
C310 N309 1.351 . S
C310 C311 1.434 . S
C311 C302 1.429 . S
C311 N308 1.350 . S
C311 C310 1.434 . S
C312 C313 1.369 . S
C312 C314 1.419 . S
C312 H316 0.930 . S
C313 C312 1.369 . S
C313 C322 1.429 . S
C314 C312 1.419 . S
C314 C315 1.363 . S
C314 H317 0.929 . S
C315 C314 1.363 . S
C315 C321 1.428 . S
H316 C312 0.930 . S
H317 C314 0.929 . S
S318 N319 1.613 . S
S318 N320 1.610 . S
N319 S318 1.613 . S
N319 C322 1.350 . S
N320 S318 1.610 . S
N320 C321 1.351 . S
C321 C315 1.428 . S
C321 N320 1.351 . S
C321 C322 1.434 . S
C322 C313 1.429 . S
C322 N319 1.350 . S
C322 C321 1.434 . S
C323 C324 1.369 1_565 S
C323 C325 1.419 . S
C323 H327 0.930 . S
C324 C323 1.369 1_545 S
C324 C333 1.429 1_655 S
C325 C323 1.419 . S
C325 C326 1.363 . S
C325 H328 0.929 . S
C326 C325 1.363 . S
C326 C332 1.428 1_665 S
H327 C323 0.930 . S
H328 C325 0.929 . S
S329 N330 1.613 . S
S329 N331 1.610 . S
N330 S329 1.613 . S
N330 C333 1.350 . S
N331 S329 1.610 . S
N331 C332 1.351 . S
C332 C326 1.428 1_445 S
C332 N331 1.351 . S
C332 C333 1.434 . S
C333 C324 1.429 1_455 S
C333 N330 1.350 . S
C333 C332 1.434 . S
C334 C335 1.369 . S
C334 C336 1.419 1_556 S
C334 H338 0.930 . S
C335 C334 1.369 . S
C335 C344 1.429 . S
C336 C334 1.419 1_554 S
C336 C337 1.363 . S
C336 H339 0.929 . S
C337 C336 1.363 . S
C337 C343 1.428 . S
H338 C334 0.930 . S
H339 C336 0.929 . S
S340 N341 1.613 . S
S340 N342 1.610 1_556 S
N341 S340 1.613 . S
N341 C344 1.350 . S
N342 S340 1.610 1_554 S
N342 C343 1.351 . S
C343 C337 1.428 . S
C343 N342 1.351 . S
C343 C344 1.434 1_554 S
C344 C335 1.429 . S
C344 N341 1.350 . S
C344 C343 1.434 1_556 S
C345 C346 1.369 . S
C345 C347 1.419 . S
C345 H349 0.930 . S
C346 C345 1.369 . S
C346 C355 1.429 1_565 S
C347 C345 1.419 . S
C347 C348 1.363 1_565 S
C347 H350 0.929 . S
C348 C347 1.363 1_545 S
C348 C354 1.428 . S
H349 C345 0.930 . S
H350 C347 0.929 . S
S351 N352 1.613 . S
S351 N353 1.610 . S
N352 S351 1.613 . S
N352 C355 1.350 . S
N353 S351 1.610 . S
N353 C354 1.351 . S
C354 C348 1.428 . S
C354 N353 1.351 . S
C354 C355 1.434 . S
C355 C346 1.429 1_545 S
C355 N352 1.350 . S
C355 C354 1.434 . S
C356 C357 1.369 . S
C356 C358 1.419 . S
C356 H360 0.930 . S
C357 C356 1.369 . S
C357 C366 1.429 . S
C358 C356 1.419 . S
C358 C359 1.363 . S
C358 H361 0.929 . S
C359 C358 1.363 . S
C359 C365 1.428 . S
H360 C356 0.930 . S
H361 C358 0.929 . S
S362 N363 1.613 . S
S362 N364 1.610 . S
N363 S362 1.613 . S
N363 C366 1.350 . S
N364 S362 1.610 . S
N364 C365 1.351 . S
C365 C359 1.428 . S
C365 N364 1.351 . S
C365 C366 1.434 . S
C366 C357 1.429 . S
C366 N363 1.350 . S
C366 C365 1.434 . S
C367 C368 1.369 . S
C367 C369 1.419 . S
C367 H371 0.930 . S
C368 C367 1.369 . S
C368 C377 1.429 1_455 S
C369 C367 1.419 . S
C369 C370 1.363 1_455 S
C369 H372 0.929 . S
C370 C369 1.363 1_655 S
C370 C376 1.428 . S
H371 C367 0.930 . S
H372 C369 0.929 . S
S373 N374 1.613 . S
S373 N375 1.610 . S
N374 S373 1.613 . S
N374 C377 1.350 . S
N375 S373 1.610 . S
N375 C376 1.351 . S
C376 C370 1.428 . S
C376 N375 1.351 . S
C376 C377 1.434 . S
C377 C368 1.429 1_655 S
C377 N374 1.350 . S
C377 C376 1.434 . S
C378 C379 1.369 . S
C378 C380 1.419 1_655 S
C378 H382 0.930 . S
C379 C378 1.369 . S
C379 C388 1.429 . S
C380 C378 1.419 1_455 S
C380 C381 1.363 . S
C380 H383 0.929 . S
C381 C380 1.363 . S
C381 C387 1.428 . S
H382 C378 0.930 . S
H383 C380 0.929 . S
S384 N385 1.613 . S
S384 N386 1.610 1_655 S
N385 S384 1.613 . S
N385 C388 1.350 . S
N386 S384 1.610 1_455 S
N386 C387 1.351 . S
C387 C381 1.428 . S
C387 N386 1.351 . S
C387 C388 1.434 1_455 S
C388 C379 1.429 . S
C388 N385 1.350 . S
C388 C387 1.434 1_655 S
C389 C390 1.369 . S
C389 C391 1.419 . S
C389 H393 0.930 . S
C390 C389 1.369 . S
C390 C399 1.429 1_556 S
C391 C389 1.419 . S
C391 C392 1.363 . S
C391 H394 0.929 . S
C392 C391 1.363 . S
C392 C398 1.428 1_556 S
H393 C389 0.930 . S
H394 C391 0.929 . S
S395 N396 1.613 . S
S395 N397 1.610 . S
N396 S395 1.613 . S
N396 C399 1.350 . S
N397 S395 1.610 . S
N397 C398 1.351 . S
C398 C392 1.428 1_554 S
C398 N397 1.351 . S
C398 C399 1.434 . S
C399 C390 1.429 1_554 S
C399 N396 1.350 . S
C399 C398 1.434 . S
C400 C401 1.369 . S
C400 C402 1.419 . S
C400 H404 0.930 . S
C401 C400 1.369 . S
C401 C410 1.429 . S
C402 C400 1.419 . S
C402 C403 1.363 . S
C402 H405 0.929 . S
C403 C402 1.363 . S
C403 C409 1.428 . S
H404 C400 0.930 . S
H405 C402 0.929 . S
S406 N407 1.613 . S
S406 N408 1.610 . S
N407 S406 1.613 . S
N407 C410 1.350 . S
N408 S406 1.610 . S
N408 C409 1.351 . S
C409 C403 1.428 . S
C409 N408 1.351 . S
C409 C410 1.434 . S
C410 C401 1.429 . S
C410 N407 1.350 . S
C410 C409 1.434 . S
C411 C412 1.369 . S
C411 C413 1.419 . S
C411 H415 0.930 . S
C412 C411 1.369 . S
C412 C421 1.429 . S
C413 C411 1.419 . S
C413 C414 1.363 . S
C413 H416 0.929 . S
C414 C413 1.363 . S
C414 C420 1.428 . S
H415 C411 0.930 . S
H416 C413 0.929 . S
S417 N418 1.613 . S
S417 N419 1.610 . S
N418 S417 1.613 . S
N418 C421 1.350 . S
N419 S417 1.610 . S
N419 C420 1.351 . S
C420 C414 1.428 . S
C420 N419 1.351 . S
C420 C421 1.434 . S
C421 C412 1.429 . S
C421 N418 1.350 . S
C421 C420 1.434 . S
C422 C423 1.369 . S
C422 C424 1.419 1_455 S
C422 H426 0.930 . S
C423 C422 1.369 . S
C423 C432 1.429 . S
C424 C422 1.419 1_655 S
C424 C425 1.363 . S
C424 H427 0.929 . S
C425 C424 1.363 . S
C425 C431 1.428 . S
H426 C422 0.930 . S
H427 C424 0.929 . S
S428 N429 1.613 1_655 S
S428 N430 1.610 . S
N429 S428 1.613 1_455 S
N429 C432 1.350 . S
N430 S428 1.610 . S
N430 C431 1.351 . S
C431 C425 1.428 . S
C431 N430 1.351 . S
C431 C432 1.434 1_655 S
C432 C423 1.429 . S
C432 N429 1.350 . S
C432 C431 1.434 1_455 S
C433 C434 1.369 1_455 S
C433 C435 1.419 . S
C433 H437 0.930 . S
C434 C433 1.369 1_655 S
C434 C443 1.429 . S
C435 C433 1.419 . S
C435 C436 1.363 . S
C435 H438 0.929 . S
C436 C435 1.363 . S
C436 C442 1.428 1_455 S
H437 C433 0.930 . S
H438 C435 0.929 . S
S439 N440 1.613 . S
S439 N441 1.610 . S
N440 S439 1.613 . S
N440 C443 1.350 . S
N441 S439 1.610 . S
N441 C442 1.351 . S
C442 C436 1.428 1_655 S
C442 N441 1.351 . S
C442 C443 1.434 . S
C443 C434 1.429 . S
C443 N440 1.350 . S
C443 C442 1.434 . S
C444 C445 1.369 . S
C444 C446 1.419 . S
C444 H448 0.930 . S
C445 C444 1.369 . S
C445 C454 1.429 . S
C446 C444 1.419 . S
C446 C447 1.363 . S
C446 H449 0.929 . S
C447 C446 1.363 . S
C447 C453 1.428 . S
H448 C444 0.930 . S
H449 C446 0.929 . S
S450 N451 1.613 . S
S450 N452 1.610 . S
N451 S450 1.613 . S
N451 C454 1.350 . S
N452 S450 1.610 . S
N452 C453 1.351 . S
C453 C447 1.428 . S
C453 N452 1.351 . S
C453 C454 1.434 . S
C454 C445 1.429 . S
C454 N451 1.350 . S
C454 C453 1.434 . S
C455 C456 1.369 . S
C455 C457 1.419 1_545 S
C455 H459 0.930 . S
C456 C455 1.369 . S
C456 C465 1.429 . S
C457 C455 1.419 1_565 S
C457 C458 1.363 . S
C457 H460 0.929 . S
C458 C457 1.363 . S
C458 C464 1.428 . S
H459 C455 0.930 . S
H460 C457 0.929 . S
S461 N462 1.613 . S
S461 N463 1.610 1_545 S
N462 S461 1.613 . S
N462 C465 1.350 . S
N463 S461 1.610 1_565 S
N463 C464 1.351 . S
C464 C458 1.428 . S
C464 N463 1.351 . S
C464 C465 1.434 1_565 S
C465 C456 1.429 . S
C465 N462 1.350 . S
C465 C464 1.434 1_545 S
C466 C467 1.369 . S
C466 C468 1.419 . S
C466 H470 0.930 . S
C467 C466 1.369 . S
C467 C476 1.429 1_556 S
C468 C466 1.419 . S
C468 C469 1.363 1_556 S
C468 H471 0.929 . S
C469 C468 1.363 1_554 S
C469 C475 1.428 . S
H470 C466 0.930 . S
H471 C468 0.929 . S
S472 N473 1.613 . S
S472 N474 1.610 . S
N473 S472 1.613 . S
N473 C476 1.350 . S
N474 S472 1.610 . S
N474 C475 1.351 . S
C475 C469 1.428 . S
C475 N474 1.351 . S
C475 C476 1.434 . S
C476 C467 1.429 1_554 S
C476 N473 1.350 . S
C476 C475 1.434 . S
C477 C478 1.369 . S
C477 C479 1.419 1_545 S
C477 H481 0.930 . S
C478 C477 1.369 . S
C478 C487 1.429 . S
C479 C477 1.419 1_565 S
C479 C480 1.363 . S
C479 H482 0.929 . S
C480 C479 1.363 . S
C480 C486 1.428 . S
H481 C477 0.930 . S
H482 C479 0.929 . S
S483 N484 1.613 . S
S483 N485 1.610 1_545 S
N484 S483 1.613 . S
N484 C487 1.350 . S
N485 S483 1.610 1_565 S
N485 C486 1.351 . S
C486 C480 1.428 . S
C486 N485 1.351 . S
C486 C487 1.434 1_565 S
C487 C478 1.429 . S
C487 N484 1.350 . S
C487 C486 1.434 1_545 S
C488 C489 1.369 . S
C488 C490 1.419 . S
C488 H492 0.930 . S
C489 C488 1.369 . S
C489 C498 1.429 1_564 S
C490 C488 1.419 . S
C490 C491 1.363 1_554 S
C490 H493 0.929 . S
C491 C490 1.363 1_556 S
C491 C497 1.428 1_565 S
H492 C488 0.930 . S
H493 C490 0.929 . S
S494 N495 1.616 . S
S494 N496 1.610 . S
N495 S494 1.616 . S
N495 C498 1.350 . S
N496 S494 1.610 . S
N496 C497 1.351 . S
C497 C491 1.428 1_545 S
C497 N496 1.351 . S
C497 C498 1.434 . S
C498 C489 1.429 1_546 S
C498 N495 1.350 . S
C498 C497 1.434 . S
C499 C500 1.369 . S
C499 C501 1.419 . S
C499 H503 0.930 . S
C500 C499 1.369 . S
C500 C509 1.429 . S
C501 C499 1.419 . S
C501 C502 1.363 . S
C501 H504 0.929 . S
C502 C501 1.363 . S
C502 C508 1.428 . S
H503 C499 0.930 . S
H504 C501 0.929 . S
S505 N506 1.613 . S
S505 N507 1.610 . S
N506 S505 1.613 . S
N506 C509 1.350 . S
N507 S505 1.610 . S
N507 C508 1.351 . S
C508 C502 1.428 . S
C508 N507 1.351 . S
C508 C509 1.434 . S
C509 C500 1.429 . S
C509 N506 1.350 . S
C509 C508 1.434 . S
C510 C511 1.369 . S
C510 C512 1.419 . S
C510 H514 0.930 . S
C511 C510 1.369 . S
C511 C520 1.429 . S
C512 C510 1.419 . S
C512 C513 1.363 . S
C512 H515 0.929 . S
C513 C512 1.363 . S
C513 C519 1.428 . S
H514 C510 0.930 . S
H515 C512 0.929 . S
S516 N517 1.613 . S
S516 N518 1.610 . S
N517 S516 1.613 . S
N517 C520 1.350 . S
N518 S516 1.610 . S
N518 C519 1.351 . S
C519 C513 1.428 . S
C519 N518 1.351 . S
C519 C520 1.434 . S
C520 C511 1.429 . S
C520 N517 1.350 . S
C520 C519 1.434 . S
C521 C522 1.369 . S
C521 C523 1.419 1_556 S
C521 H525 0.930 . S
C522 C521 1.369 . S
C522 C531 1.429 . S
C523 C521 1.419 1_554 S
C523 C524 1.363 . S
C523 H526 0.929 . S
C524 C523 1.363 . S
C524 C530 1.428 . S
H525 C521 0.930 . S
H526 C523 0.929 . S
S527 N528 1.613 1_554 S
S527 N529 1.610 . S
N528 S527 1.613 1_556 S
N528 C531 1.350 . S
N529 S527 1.610 . S
N529 C530 1.351 . S
C530 C524 1.428 . S
C530 N529 1.351 . S
C530 C531 1.434 1_554 S
C531 C522 1.429 . S
C531 N528 1.350 . S
C531 C530 1.434 1_556 S
C532 C533 1.369 . S
C532 C534 1.419 . S
C532 H536 0.930 . S
C533 C532 1.369 . S
C533 C542 1.429 . S
C534 C532 1.419 . S
C534 C535 1.363 . S
C534 H537 0.929 . S
C535 C534 1.363 . S
C535 C541 1.428 . S
H536 C532 0.930 . S
H537 C534 0.929 . S
S538 N539 1.613 . S
S538 N540 1.610 . S
N539 S538 1.613 . S
N539 C542 1.350 . S
N540 S538 1.610 . S
N540 C541 1.351 . S
C541 C535 1.428 . S
C541 N540 1.351 . S
C541 C542 1.434 . S
C542 C533 1.429 . S
C542 N539 1.350 . S
C542 C541 1.434 . S
C543 C544 1.369 . S
C543 C545 1.419 . S
C543 H547 0.930 . S
C544 C543 1.369 . S
C544 C553 1.429 . S
C545 C543 1.419 . S
C545 C546 1.363 . S
C545 H548 0.929 . S
C546 C545 1.363 . S
C546 C552 1.428 . S
H547 C543 0.930 . S
H548 C545 0.929 . S
S549 N550 1.613 . S
S549 N551 1.610 . S
N550 S549 1.613 . S
N550 C553 1.350 . S
N551 S549 1.610 . S
N551 C552 1.351 . S
C552 C546 1.428 . S
C552 N551 1.351 . S
C552 C553 1.434 . S
C553 C544 1.429 . S
C553 N550 1.350 . S
C553 C552 1.434 . S
C554 C555 1.369 1_655 S
C554 C556 1.419 . S
C554 H558 0.930 . S
C555 C554 1.369 1_455 S
C555 C564 1.429 . S
C556 C554 1.419 . S
C556 C557 1.363 1_655 S
C556 H559 0.929 . S
C557 C556 1.363 1_455 S
C557 C563 1.428 . S
H558 C554 0.930 . S
H559 C556 0.929 . S
S560 N561 1.613 . S
S560 N562 1.610 . S
N561 S560 1.613 . S
N561 C564 1.350 . S
N562 S560 1.610 . S
N562 C563 1.351 . S
C563 C557 1.428 . S
C563 N562 1.351 . S
C563 C564 1.434 . S
C564 C555 1.429 . S
C564 N561 1.350 . S
C564 C563 1.434 . S
C565 C566 1.369 . S
C565 C567 1.419 . S
C565 H569 0.930 . S
C566 C565 1.369 . S
C566 C575 1.429 1_545 S
C567 C565 1.419 . S
C567 C568 1.363 . S
C567 H570 0.929 . S
C568 C567 1.363 . S
C568 C574 1.428 1_545 S
H569 C565 0.930 . S
H570 C567 0.929 . S
S571 N572 1.613 . S
S571 N573 1.610 . S
N572 S571 1.613 . S
N572 C575 1.350 . S
N573 S571 1.610 . S
N573 C574 1.351 . S
C574 C568 1.428 1_565 S
C574 N573 1.351 . S
C574 C575 1.434 . S
C575 C566 1.429 1_565 S
C575 N572 1.350 . S
C575 C574 1.434 . S
C225 C8 1.684 . S
C227 C106 1.685 . S
C236 C22 1.687 . S
C238 C64 1.685 . S
C247 C78 1.687 . S
C249 C36 1.685 . S
C258 C50 1.684 . S
C260 C92 1.685 . S
C269 C120 1.687 . S
C271 C176 1.684 . S
C280 C134 1.684 . S
C282 C204 1.685 . S
C291 C162 1.684 . S
C293 C148 1.684 . S
C302 C218 1.686 . S
C304 C190 1.684 . S
C313 C3 1.007 . S
C315 C87 1.007 . S
C324 C105 1.507 . S
C326 C21 1.495 . S
C335 C31 1.010 . S
C337 C59 1.009 . S
C346 C77 1.493 . S
C348 C49 1.505 . S
C357 C9 1.422 . S
C359 C205 1.417 . S
C368 C157 1.008 . S
C370 C17 1.008 . S
C379 C191 1.414 . S
C381 C37 1.419 . S
C390 C171 1.005 . S
C392 C45 1.006 . S
C401 C149 1.420 . S
C403 C65 1.415 . S
C412 C73 1.010 . S
C414 C213 1.009 . S
C423 C93 1.420 . S
C425 C121 1.415 . S
C434 C101 1.009 . S
C436 C129 1.009 . S
C445 C7 1.500 . S
C447 C63 1.503 . S
C456 C119 1.492 . S
C458 C189 1.504 . S
C467 C177 1.417 . S
C469 C135 1.421 . S
C478 C203 1.494 . S
C480 C147 1.500 . S
C489 C107 1.421 . S
C491 C51 1.419 . S
C500 C35 1.507 . S
C502 C91 1.495 . S
C511 C163 1.415 . S
C513 C219 1.421 . S
C522 C185 1.010 . S
C524 C143 1.009 . S
C533 C217 1.506 . S
C535 C175 1.498 . S
C544 C199 1.006 . S
C546 C115 1.006 . S
C555 C161 1.492 . S
C557 C133 1.504 . S
C566 C23 1.418 . S
C568 C79 1.420 . S
