# Generated by pormake.
# Topology qtz-x, (6)-cn, num edge types: 1
# Building blocks:
#     Node 0, Type 0, BuildingBlock: JUFBIX_clean_sbu_0, # of connection points: 6
#     Node 1, Type 0, BuildingBlock: JUFBIX_clean_sbu_0, # of connection points: 6
#     Node 2, Type 0, BuildingBlock: JUFBIX_clean_sbu_0, # of connection points: 6
#     Edge 3, Type (0, 0), BuildingBlock: UVAHIK_clean_linker_0, # of connection points: 2
#     Edge 4, Type (0, 0), BuildingBlock: UVAHIK_clean_linker_0, # of connection points: 2
#     Edge 5, Type (0, 0), BuildingBlock: UVAHIK_clean_linker_0, # of connection points: 2
#     Edge 6, Type (0, 0), BuildingBlock: UVAHIK_clean_linker_0, # of connection points: 2
#     Edge 7, Type (0, 0), BuildingBlock: UVAHIK_clean_linker_0, # of connection points: 2
#     Edge 8, Type (0, 0), BuildingBlock: UVAHIK_clean_linker_0, # of connection points: 2
#     Edge 9, Type (0, 0), BuildingBlock: UVAHIK_clean_linker_0, # of connection points: 2
#     Edge 10, Type (0, 0), BuildingBlock: UVAHIK_clean_linker_0, # of connection points: 2
#     Edge 11, Type (0, 0), BuildingBlock: UVAHIK_clean_linker_0, # of connection points: 2
# Relax obj value: 0.447
# Max RMSD: 0.289
# Mean RMSD: 0.289
data_MOF--net-qtz-x--node1-JUFBIX_clean_sbu_0--edge1-UVAHIK_clean_linker_0
_symmetry_space_group_name_H-M    P1
_symmetry_Int_Tables_number       1
_symmetry_cell_setting            triclinic
loop_
_symmetry_equiv_pos_as_xyz
'x, y, z'
_cell_length_a     19.499647
_cell_length_b     19.51009
_cell_length_c     53.801806
_cell_angle_alpha  89.89982
_cell_angle_beta   90.054681
_cell_angle_gamma 119.95493
loop_
_atom_site_label
_atom_site_type_symbol
_atom_site_fract_x
_atom_site_fract_y
_atom_site_fract_z
_atom_type_partial_charge
Co0 Co 0.07384 0.54875 0.14936 0.0
C1 C 0.0114 0.64782 0.15726 0.0
Co2 Co 0.95484 0.48899 0.16601 0.0
C3 C 0.19685 0.57286 0.11561 0.0
C4 C 0.23252 0.67423 0.13877 0.0
N5 N 0.17284 0.5998 0.13485 0.0
N6 N 0.26844 0.62774 0.10706 0.0
C7 C 0.29125 0.69186 0.1215 0.0
H8 H 0.16026 0.51573 0.107 0.0
H9 H 0.23174 0.71421 0.15253 0.0
C10 C 0.01685 0.38969 0.15815 0.0
N11 N 0.85502 0.43707 0.17978 0.0
C12 C 0.831 0.45278 0.20141 0.0
C13 C 0.79224 0.37014 0.17138 0.0
N14 N 0.75603 0.3972 0.20728 0.0
C15 C 0.73151 0.34549 0.18818 0.0
C16 C 0.952 0.48428 0.11491 0.0
O17 O 0.07654 0.45264 0.15026 0.0
O18 O 0.95672 0.39255 0.16581 0.0
O19 O 0.90921 0.46616 0.13419 0.0
O20 O 0.02676 0.52181 0.11723 0.0
O21 O 0.95324 0.58557 0.1662 0.0
H22 H 0.79202 0.33891 0.15475 0.0
H23 H 0.86946 0.5024 0.21305 0.0
O24 O 0.0702 0.64438 0.14858 0.0
O25 O 0.1202 0.57475 0.18152 0.0
O26 O 1.00151 0.51157 0.19801 0.0
C27 C 0.07617 0.55069 0.20068 0.0
H28 H 0.34526 0.74802 0.11924 0.0
H29 H 0.67584 0.29051 0.18711 0.0
Co30 Co 0.54031 0.97371 0.48272 0.0
C31 C 0.70177 0.03463 0.48996 0.0
Co32 Co 0.60219 0.09483 0.49811 0.0
C33 C 0.45181 0.85378 0.44698 0.0
C34 C 0.48524 0.80574 0.4773 0.0
N35 N 0.48949 0.87317 0.46905 0.0
N36 N 0.42548 0.77787 0.44088 0.0
C37 C 0.44543 0.74667 0.45997 0.0
H38 H 0.44468 0.89491 0.43525 0.0
H39 H 0.51145 0.80047 0.49441 0.0
C40 C 0.44081 0.03411 0.49087 0.0
N41 N 0.65263 0.19657 0.51096 0.0
C42 C 0.68501 0.22054 0.53368 0.0
C43 C 0.6587 0.26194 0.5002 0.0
N44 N 0.70977 0.29772 0.5377 0.0
C45 C 0.69377 0.32408 0.51655 0.0
C46 C 0.59708 0.0923 0.44701 0.0
O47 O 0.44328 0.97385 0.48316 0.0
O48 O 0.50419 0.09413 0.49839 0.0
O49 O 0.62247 0.13752 0.46569 0.0
O50 O 0.56088 0.01813 0.45031 0.0
O51 O 0.69922 0.09482 0.49775 0.0
H52 H 0.63582 0.26383 0.48205 0.0
H53 H 0.68575 0.18095 0.54764 0.0
O54 O 0.63843 0.97451 0.48239 0.0
O55 O 0.51934 0.93042 0.51518 0.0
O56 O 0.58098 0.05043 0.53066 0.0
C57 C 0.54308 0.97598 0.53394 0.0
H58 H 0.43519 0.68683 0.46077 0.0
H59 H 0.70333 0.38306 0.51348 0.0
Co60 Co 0.4966 0.50003 0.81525 0.0
C61 C 0.39704 0.33801 0.82272 0.0
Co62 Co 0.5557 0.43938 0.83173 0.0
C63 C 0.4727 0.60074 0.78212 0.0
C64 C 0.37161 0.53474 0.80543 0.0
N65 N 0.44576 0.54894 0.80118 0.0
N66 N 0.41807 0.61855 0.774 0.0
C67 C 0.35414 0.57707 0.78855 0.0
H68 H 0.52963 0.62123 0.77333 0.0
H69 H 0.33173 0.49368 0.81918 0.0
C70 C 0.6556 0.60104 0.82431 0.0
N71 N 0.60783 0.39021 0.8451 0.0
C72 C 0.5996 0.35866 0.86797 0.0
C73 C 0.66761 0.38441 0.83462 0.0
N74 N 0.65254 0.33464 0.87234 0.0
C75 C 0.69505 0.35026 0.85126 0.0
C76 C 0.56074 0.44415 0.78043 0.0
O77 O 0.59306 0.59807 0.81608 0.0
O78 O 0.65225 0.53793 0.83218 0.0
O79 O 0.57952 0.41953 0.79961 0.0
O80 O 0.5224 0.48046 0.78294 0.0
O81 O 0.45947 0.3414 0.83126 0.0
H82 H 0.69246 0.40688 0.81646 0.0
H83 H 0.55894 0.35796 0.88177 0.0
O84 O 0.40032 0.40085 0.81459 0.0
O85 O 0.47182 0.5203 0.84754 0.0
O86 O 0.53096 0.46034 0.86392 0.0
C87 C 0.49325 0.49734 0.86664 0.0
H88 H 0.2982 0.57569 0.78663 0.0
H89 H 0.74478 0.34103 0.84842 0.0
C90 C 0.0762 0.79262 0.1476 0.0
C91 C 0.01116 0.7236 0.15711 0.0
C92 C 0.07648 0.86438 0.14763 0.0
C93 C 0.98346 0.96745 0.17794 0.0
H94 H 0.06587 0.10761 0.12099 0.0
C95 C 0.95116 0.24464 0.16741 0.0
C96 C 0.01678 0.31378 0.15822 0.0
C97 C 0.95059 0.17273 0.16732 0.0
C98 C 0.04348 0.06955 0.13716 0.0
H99 H 0.89517 0.67587 0.17401 0.0
H100 H 0.89535 0.80098 0.17382 0.0
H101 H 0.06395 0.98169 0.1206 0.0
H102 H 0.13334 0.36158 0.14173 0.0
H103 H 0.13253 0.23612 0.14175 0.0
H104 H 0.96292 0.0553 0.19449 0.0
C105 C 0.9466 0.79979 0.16663 0.0
C106 C 0.04235 0.99735 0.13693 0.0
C107 C 0.9463 0.72796 0.1666 0.0
C108 C 0.08183 0.3094 0.14893 0.0
C109 C 0.08117 0.2374 0.1488 0.0
C110 C 0.98454 0.03962 0.17816 0.0
C111 C 0.01173 0.86888 0.15716 0.0
C112 C 0.01239 0.94545 0.15733 0.0
C113 C 0.01552 0.16822 0.15798 0.0
C114 C 0.0146 0.09155 0.15778 0.0
H115 H 0.12728 0.79143 0.14023 0.0
H116 H 0.12804 0.91665 0.14051 0.0
H117 H 0.96114 0.92945 0.19412 0.0
H118 H 0.89994 0.24587 0.17463 0.0
H119 H 0.89868 0.12038 0.17423 0.0
C120 C 0.36168 0.10074 0.49942 0.0
C121 C 0.36507 0.03441 0.49091 0.0
C122 C 0.29009 0.10095 0.4993 0.0
C123 C 0.07344 0.96714 0.49771 0.0
H124 H 0.0695 0.15539 0.47673 0.0
C125 C 0.78129 0.96846 0.48127 0.0
C126 C 0.7777 0.03463 0.48982 0.0
C127 C 0.85303 0.96853 0.48131 0.0
C128 C 0.06972 0.10262 0.48289 0.0
H129 H 0.2959 0.91638 0.47552 0.0
H130 H 0.17136 0.9171 0.47514 0.0
H131 H 0.19461 0.1555 0.47715 0.0
H132 H 0.84674 0.15278 0.50515 0.0
H133 H 0.97153 0.15253 0.5054 0.0
H134 H 0.94857 0.91425 0.50345 0.0
C135 C 0.22379 0.96855 0.4822 0.0
C136 C 0.14143 0.1027 0.48314 0.0
C137 C 0.29532 0.96834 0.4823 0.0
C138 C 0.84744 0.1009 0.49836 0.0
C139 C 0.91913 0.10097 0.49838 0.0
C140 C 1.00173 0.96705 0.49746 0.0
C141 C 0.2203 0.03484 0.4907 0.0
C142 C 0.14413 0.03495 0.49055 0.0
C143 C 0.92278 0.03477 0.48988 0.0
C144 C 0.99901 0.03478 0.49004 0.0
H145 H 0.41431 0.15256 0.50621 0.0
H146 H 0.28923 0.15259 0.50625 0.0
H147 H 0.07365 0.91437 0.50388 0.0
H148 H 0.72871 0.91653 0.47451 0.0
H149 H 0.85401 0.91697 0.47435 0.0
C150 C 0.80092 0.68029 0.8335 0.0
C151 C 0.73161 0.67679 0.82441 0.0
C152 C 0.87287 0.75159 0.83329 0.0
C153 C 0.97518 0.94807 0.80304 0.0
H154 H 0.11693 1.00536 0.85952 0.0
C155 C 0.25188 0.25809 0.8133 0.0
C156 C 0.32125 0.26198 0.82249 0.0
C157 C 0.18018 0.18651 0.81336 0.0
C158 C 0.07845 0.98984 0.84348 0.0
H159 H 0.6836 0.74567 0.80805 0.0
H160 H 0.80893 0.87012 0.80791 0.0
H161 H 0.99141 0.88107 0.86009 0.0
H162 H 0.36967 0.19342 0.83883 0.0
H163 H 0.2448 0.06852 0.83872 0.0
H164 H 0.0622 0.05685 0.78643 0.0
C165 C 0.80785 0.81753 0.81493 0.0
C166 C 1.00646 0.91857 0.84381 0.0
C167 C 0.73588 0.74625 0.81516 0.0
C168 C 0.31732 0.19258 0.83167 0.0
C169 C 0.2456 0.12103 0.83175 0.0
C170 C 0.04716 0.01933 0.80271 0.0
C171 C 0.87725 0.82106 0.82396 0.0
C172 C 0.95391 0.89684 0.8236 0.0
C173 C 0.17612 0.11714 0.82264 0.0
C174 C 0.09966 0.04112 0.82293 0.0
H175 H 0.79978 0.62782 0.84068 0.0
H176 H 0.92536 0.75201 0.84009 0.0
H177 H 0.93667 0.93255 0.787 0.0
H178 H 0.25275 0.31048 0.80616 0.0
H179 H 0.12761 0.18581 0.8065 0.0
C180 C 0.4597 0.57619 0.89561 0.0
C181 C 0.47535 0.51419 0.89177 0.0
C182 C 0.4441 0.59305 0.91946 0.0
C183 C 0.45844 0.55171 0.98658 0.0
H184 H 0.30901 0.62647 -0.00568 0.0
C185 C 0.30249 0.5506 0.0786 0.0
C186 C 0.30548 0.62197 0.08473 0.0
C187 C 0.33145 0.54215 0.05577 0.0
C188 C 0.35139 0.6063 -0.00764 0.0
H189 H 0.4858 0.4203 0.90974 0.0
H190 H 0.45472 0.44689 0.95114 0.0
H191 H 0.34001 0.59988 0.95287 0.0
H192 H 0.34153 0.74064 0.07208 0.0
H193 H 0.39067 0.72525 0.03174 0.0
H194 H 0.46608 0.55464 0.0264 0.0
C195 C 0.45727 0.48466 0.93599 0.0
C196 C 0.36961 0.59139 0.96861 0.0
C197 C 0.47446 0.46887 0.91219 0.0
C198 C 0.33943 0.68538 0.06786 0.0
C199 C 0.36689 0.67641 0.0448 0.0
C200 C 0.43891 0.56514 0.01037 0.0
C201 C 0.44213 0.5472 0.93999 0.0
C202 C 0.42346 0.56392 0.96536 0.0
C203 C 0.36234 0.60445 0.03849 0.0
C204 C 0.38536 0.59267 0.01341 0.0
H205 H 0.46083 0.61263 0.88021 0.0
H206 H 0.43448 0.64272 0.92178 0.0
H207 H 0.50135 0.53219 0.98489 0.0
H208 H 0.27662 0.50107 0.09138 0.0
H209 H 0.32699 0.48599 0.05122 0.0
C210 C 0.65664 0.20565 0.41733 0.0
C211 C 0.60278 0.1256 0.42205 0.0
C212 C 0.65796 0.23862 0.39418 0.0
C213 C 0.59423 0.18238 0.329 0.0
H214 H 0.65464 0.40385 0.32356 0.0
C215 C 0.63769 0.32587 0.23408 0.0
C216 C 0.71747 0.38498 0.23111 0.0
C217 C 0.60569 0.30094 0.25777 0.0
C218 C 0.63672 0.34171 0.32489 0.0
H219 H 0.5072 0.01737 0.40652 0.0
H220 H 0.5076 0.07527 0.36645 0.0
H221 H 0.63416 0.34278 0.3646 0.0
H222 H 0.82241 0.47113 0.25118 0.0
H223 H 0.76602 0.42848 0.2921 0.0
H224 H 0.59747 0.18166 0.28932 0.0
C225 C 0.5505 0.11231 0.38027 0.0
C226 C 0.62589 0.30688 0.34833 0.0
C227 C 0.55022 0.07903 0.40325 0.0
C228 C 0.76124 0.42489 0.2524 0.0
C229 C 0.72881 0.40066 0.27605 0.0
C230 C 0.60374 0.21683 0.30563 0.0
C231 C 0.60442 0.19254 0.37543 0.0
C232 C 0.60687 0.22739 0.35066 0.0
C233 C 0.65227 0.33589 0.2789 0.0
C234 C 0.62717 0.29725 0.3034 0.0
H235 H 0.69785 0.24285 0.43152 0.0
H236 H 0.70162 0.30006 0.39096 0.0
H237 H 0.58077 0.12148 0.32998 0.0
H238 H 0.60095 0.29569 0.2182 0.0
H239 H 0.54594 0.25157 0.25959 0.0
C240 C 0.3597 0.63499 0.7354 0.0
C241 C 0.42377 0.66266 0.75195 0.0
C242 C 0.3684 0.67252 0.71253 0.0
C243 C 0.48088 0.85596 0.67816 0.0
H244 H 0.4412 0.72254 0.62044 0.0
C245 C 0.57286 0.98717 0.57945 0.0
C246 C 0.52632 0.94262 0.55928 0.0
C247 C 0.55779 0.95472 0.60336 0.0
C248 C 0.45106 0.76063 0.63625 0.0
H249 H 0.5456 0.75286 0.75829 0.0
H250 H 0.56026 0.82018 0.71845 0.0
H251 H 0.41595 0.66453 0.66183 0.0
H252 H 0.42609 0.83032 0.54831 0.0
H253 H 0.39721 0.77501 0.59003 0.0
H254 H 0.51388 0.95183 0.65279 0.0
C255 C 0.50377 0.76902 0.7231 0.0
C256 C 0.43693 0.72724 0.65996 0.0
C257 C 0.49556 0.73051 0.74574 0.0
C258 C 0.46353 0.86567 0.5635 0.0
C259 C 0.44738 0.83382 0.58745 0.0
C260 C 0.49353 0.88925 0.6544 0.0
C261 C 0.44078 0.73926 0.7061 0.0
C262 C 0.45223 0.77468 0.68109 0.0
C263 C 0.49479 0.87751 0.6077 0.0
C264 C 0.47936 0.8421 0.63309 0.0
H265 H 0.30409 0.5823 0.73967 0.0
H266 H 0.31902 0.64872 0.69968 0.0
H267 H 0.49277 0.89355 0.69426 0.0
H268 H 0.622 0.04657 0.57669 0.0
H269 H 0.5966 0.98983 0.6183 0.0
C270 C 0.61292 0.28154 0.91481 0.0
C271 C 0.67112 0.31481 0.89622 0.0
C272 C 0.63397 0.2769 0.9393 0.0
C273 C 0.80076 0.30475 0.97985 0.0
H274 H 0.71644 0.40053 0.02445 0.0
C275 C 0.96097 0.46855 0.0691 0.0
C276 C 0.91466 0.45671 0.09038 0.0
C277 C 0.92491 0.4377 0.04623 0.0
C278 C 0.73964 0.37251 0.01239 0.0
H279 H 0.79619 0.36349 0.88843 0.0
H280 H 0.83277 0.35576 0.93092 0.0
H281 H 0.66109 0.36116 0.98301 0.0
H282 H 0.79435 0.40351 0.1044 0.0
H283 H 0.73175 0.34998 0.06451 0.0
H284 H 0.88137 0.31905 0.00911 0.0
C285 C 0.77076 0.33261 0.92666 0.0
C286 C 0.70764 0.34952 0.98866 0.0
C287 C 0.74971 0.33715 0.90221 0.0
C288 C 0.83172 0.41408 0.08831 0.0
C289 C 0.79578 0.3834 0.06547 0.0
C290 C 0.83292 0.32795 0.00361 0.0
C291 C 0.71364 0.30544 0.94561 0.0
C292 C 0.73902 0.31704 0.97194 0.0
C293 C 0.84197 0.39462 0.04423 0.0
C294 C 0.80375 0.36363 0.01989 0.0
H295 H 0.55161 0.26216 0.91062 0.0
H296 H 0.58843 0.25416 0.95347 0.0
H297 H 0.82548 0.279 0.96745 0.0
H298 H 0.02501 0.50092 0.07014 0.0
H299 H 0.96196 0.44832 0.03005 0.0
C300 C 0.19092 0.62291 0.22954 0.0
C301 C 0.11111 0.56605 0.22581 0.0
C302 C 0.2239 0.6368 0.25333 0.0
C303 C 0.16845 0.60527 0.32019 0.0
H304 H 0.38958 0.66696 0.32819 0.0
C305 C 0.32633 0.6656 0.41605 0.0
C306 C 0.39213 0.74216 0.41736 0.0
C307 C 0.29088 0.63404 0.39307 0.0
C308 C 0.32763 0.64933 0.32619 0.0
H309 H 1.00337 0.47827 0.24398 0.0
H310 H 0.06144 0.50046 0.28529 0.0
H311 H 0.32883 0.63054 0.28713 0.0
H312 H 0.47494 0.8444 0.39599 0.0
H313 H 0.41442 0.78874 0.35584 0.0
H314 H 0.16783 0.62369 0.35946 0.0
C315 C 0.09826 0.53601 0.27004 0.0
C316 C 0.29292 0.62921 0.30267 0.0
C317 C 0.06501 0.52298 0.24631 0.0
C318 C 0.42378 0.78547 0.39539 0.0
C319 C 0.38959 0.75348 0.37247 0.0
C320 C 0.20295 0.6242 0.34379 0.0
C321 C 0.17812 0.59326 0.27389 0.0
C322 C 0.21332 0.60862 0.29925 0.0
C323 C 0.32222 0.67801 0.37113 0.0
C324 C 0.2832 0.64794 0.34687 0.0
H325 H 0.22776 0.65739 0.21411 0.0
H326 H 0.28507 0.68261 0.2556 0.0
H327 H 0.10739 0.59079 0.31831 0.0
H328 H 0.30106 0.63154 0.43284 0.0
H329 H 0.23891 0.57564 0.3924 0.0
C330 C 0.63138 0.39535 0.75353 0.0
C331 C 0.58842 0.43528 0.75581 0.0
C332 C 0.66213 0.39089 0.73062 0.0
C333 C 0.71655 0.48453 0.66877 0.0
H334 H 0.68521 0.28058 0.64808 0.0
C335 C 0.70762 0.3928 0.56735 0.0
C336 C 0.73033 0.33683 0.56141 0.0
C337 C 0.71238 0.41857 0.59176 0.0
C338 C 0.69633 0.33849 0.65376 0.0
H339 H 0.54365 0.50156 0.73585 0.0
H340 H 0.59626 0.49239 0.69562 0.0
H341 H 0.64559 0.29563 0.68956 0.0
H342 H 0.78405 0.27086 0.5758 0.0
H343 H 0.79259 0.3161 0.61858 0.0
H344 H 0.76517 0.52662 0.63258 0.0
C345 C 0.60716 0.46571 0.7117 0.0
C346 C 0.6732 0.34697 0.67751 0.0
C347 C 0.57629 0.47017 0.73465 0.0
C348 C 0.76441 0.31257 0.57997 0.0
C349 C 0.76932 0.33848 0.60441 0.0
C350 C 0.73986 0.47608 0.64498 0.0
C351 C 0.65057 0.4262 0.70949 0.0
C352 C 0.68147 0.41956 0.68506 0.0
C353 C 0.74018 0.38909 0.61071 0.0
C354 C 0.72833 0.40246 0.63705 0.0
H355 H 0.6421 0.36815 0.76951 0.0
H356 H 0.69583 0.36057 0.72951 0.0
H357 H 0.72495 0.54158 0.6743 0.0
H358 H 0.68069 0.41241 0.55358 0.0
H359 H 0.68882 0.45707 0.59601 0.0
loop_
_geom_bond_atom_site_label_1
_geom_bond_atom_site_label_2
_geom_bond_distance
_geom_bond_site_symmetry_2
_ccdc_geom_bond_type
Co0 N5 2.057 . S
Co0 O17 2.021 . S
Co0 O20 2.062 1_455 S
Co0 O24 2.117 . S
Co0 O25 2.020 . S
C1 O21 1.259 . S
C1 O24 1.258 1_655 S
Co2 N11 2.057 . S
Co2 O18 2.117 . S
Co2 O19 2.020 . S
Co2 O21 2.021 . S
Co2 O26 2.062 1_655 S
C3 N5 1.316 . S
C3 N6 1.347 . S
C3 H8 0.931 . S
C4 N5 1.375 . S
C4 C7 1.350 . S
C4 H9 0.930 . S
N5 Co0 2.057 . S
N5 C3 1.316 . S
N5 C4 1.375 . S
N6 C3 1.347 . S
N6 C7 1.373 . S
C7 C4 1.350 . S
C7 N6 1.373 . S
C7 H28 0.931 . S
H8 C3 0.931 . S
H9 C4 0.930 . S
C10 O17 1.259 . S
C10 O18 1.258 1_455 S
N11 Co2 2.057 . S
N11 C12 1.316 . S
N11 C13 1.375 . S
C12 N11 1.316 . S
C12 N14 1.347 . S
C12 H23 0.931 . S
C13 N11 1.375 . S
C13 C15 1.350 . S
C13 H22 0.930 . S
N14 C12 1.347 . S
N14 C15 1.373 . S
C15 C13 1.350 . S
C15 N14 1.373 . S
C15 H29 0.931 . S
C16 O19 1.256 . S
C16 O20 1.255 . S
O17 Co0 2.021 . S
O17 C10 1.259 . S
O18 Co2 2.117 . S
O18 C10 1.258 1_655 S
O19 Co2 2.020 . S
O19 C16 1.256 . S
O20 Co0 2.062 1_655 S
O20 C16 1.255 . S
O21 C1 1.259 . S
O21 Co2 2.021 . S
H22 C13 0.930 . S
H23 C12 0.931 . S
O24 Co0 2.117 . S
O24 C1 1.258 1_455 S
O25 Co0 2.020 . S
O25 C27 1.256 . S
O26 Co2 2.062 1_455 S
O26 C27 1.255 . S
C27 O25 1.256 . S
C27 O26 1.255 . S
H28 C7 0.931 . S
H29 C15 0.931 . S
Co30 N35 2.057 . S
Co30 O47 2.021 . S
Co30 O50 2.062 1_565 S
Co30 O54 2.117 . S
Co30 O55 2.020 . S
C31 O51 1.259 . S
C31 O54 1.258 1_545 S
Co32 N41 2.057 . S
Co32 O48 2.117 . S
Co32 O49 2.020 . S
Co32 O51 2.021 . S
Co32 O56 2.062 1_545 S
C33 N35 1.316 . S
C33 N36 1.347 . S
C33 H38 0.931 . S
C34 N35 1.375 . S
C34 C37 1.350 . S
C34 H39 0.930 . S
N35 Co30 2.057 . S
N35 C33 1.316 . S
N35 C34 1.375 . S
N36 C33 1.347 . S
N36 C37 1.373 . S
C37 C34 1.350 . S
C37 N36 1.373 . S
C37 H58 0.931 . S
H38 C33 0.931 . S
H39 C34 0.930 . S
C40 O47 1.259 1_545 S
C40 O48 1.258 . S
N41 Co32 2.057 . S
N41 C42 1.316 . S
N41 C43 1.375 . S
C42 N41 1.316 . S
C42 N44 1.347 . S
C42 H53 0.931 . S
C43 N41 1.375 . S
C43 C45 1.350 . S
C43 H52 0.930 . S
N44 C42 1.347 . S
N44 C45 1.373 . S
C45 C43 1.350 . S
C45 N44 1.373 . S
C45 H59 0.931 . S
C46 O49 1.256 . S
C46 O50 1.255 . S
O47 Co30 2.021 . S
O47 C40 1.259 1_565 S
O48 Co32 2.117 . S
O48 C40 1.258 . S
O49 Co32 2.020 . S
O49 C46 1.256 . S
O50 Co30 2.062 1_545 S
O50 C46 1.255 . S
O51 C31 1.259 . S
O51 Co32 2.021 . S
H52 C43 0.930 . S
H53 C42 0.931 . S
O54 Co30 2.117 . S
O54 C31 1.258 1_565 S
O55 Co30 2.020 . S
O55 C57 1.256 . S
O56 Co32 2.062 1_565 S
O56 C57 1.255 . S
C57 O55 1.256 . S
C57 O56 1.255 . S
H58 C37 0.931 . S
H59 C45 0.931 . S
Co60 N65 2.057 . S
Co60 O77 2.021 . S
Co60 O80 2.062 . S
Co60 O84 2.117 . S
Co60 O85 2.020 . S
C61 O81 1.259 . S
C61 O84 1.258 . S
Co62 N71 2.057 . S
Co62 O78 2.117 . S
Co62 O79 2.020 . S
Co62 O81 2.021 . S
Co62 O86 2.062 . S
C63 N65 1.316 . S
C63 N66 1.347 . S
C63 H68 0.931 . S
C64 N65 1.375 . S
C64 C67 1.350 . S
C64 H69 0.930 . S
N65 Co60 2.057 . S
N65 C63 1.316 . S
N65 C64 1.375 . S
N66 C63 1.347 . S
N66 C67 1.373 . S
C67 C64 1.350 . S
C67 N66 1.373 . S
C67 H88 0.931 . S
H68 C63 0.931 . S
H69 C64 0.930 . S
C70 O77 1.259 . S
C70 O78 1.258 . S
N71 Co62 2.057 . S
N71 C72 1.316 . S
N71 C73 1.375 . S
C72 N71 1.316 . S
C72 N74 1.347 . S
C72 H83 0.931 . S
C73 N71 1.375 . S
C73 C75 1.350 . S
C73 H82 0.930 . S
N74 C72 1.347 . S
N74 C75 1.373 . S
C75 C73 1.350 . S
C75 N74 1.373 . S
C75 H89 0.931 . S
C76 O79 1.256 . S
C76 O80 1.255 . S
O77 Co60 2.021 . S
O77 C70 1.259 . S
O78 Co62 2.117 . S
O78 C70 1.258 . S
O79 Co62 2.020 . S
O79 C76 1.256 . S
O80 Co60 2.062 . S
O80 C76 1.255 . S
O81 C61 1.259 . S
O81 Co62 2.021 . S
H82 C73 0.930 . S
H83 C72 0.931 . S
O84 Co60 2.117 . S
O84 C61 1.258 . S
O85 Co60 2.020 . S
O85 C87 1.256 . S
O86 Co62 2.062 . S
O86 C87 1.255 . S
C87 O85 1.256 . S
C87 O86 1.255 . S
H88 C67 0.931 . S
H89 C75 0.931 . S
C90 C91 1.341 1_655 S
C90 C92 1.327 . S
C90 H115 0.950 . S
C91 C90 1.341 1_455 S
C91 C107 1.351 . S
C92 C90 1.327 . S
C92 C111 1.427 1_655 S
C92 H116 0.950 . S
C93 C110 1.574 1_565 S
C93 C112 1.371 . S
C93 H117 0.949 . S
H94 C98 0.949 . S
C95 C96 1.354 . S
C95 C97 1.327 . S
C95 H118 0.950 . S
C96 C95 1.354 . S
C96 C108 1.348 1_455 S
C97 C95 1.327 . S
C97 C113 1.430 . S
C97 H119 0.950 . S
C98 H94 0.949 . S
C98 C106 1.574 1_545 S
C98 C114 1.366 1_655 S
H99 C107 0.950 . S
H100 C105 0.950 . S
H101 C106 0.949 . S
H102 C108 0.950 . S
H103 C109 0.950 . S
H104 C110 0.949 . S
C105 H100 0.950 . S
C105 C107 1.327 . S
C105 C111 1.436 . S
C106 C98 1.574 1_565 S
C106 H101 0.949 . S
C106 C112 1.362 1_655 S
C107 C91 1.351 . S
C107 H99 0.950 . S
C107 C105 1.327 . S
C108 C96 1.348 1_655 S
C108 H102 0.950 . S
C108 C109 1.327 . S
C109 H103 0.950 . S
C109 C108 1.327 . S
C109 C113 1.423 1_655 S
C110 C93 1.574 1_545 S
C110 H104 0.949 . S
C110 C114 1.374 . S
C111 C92 1.427 1_455 S
C111 C105 1.436 . S
C111 C112 1.523 . S
C112 C93 1.371 . S
C112 C106 1.362 1_455 S
C112 C111 1.523 . S
C113 C97 1.430 . S
C113 C109 1.423 1_455 S
C113 C114 1.523 . S
C114 C98 1.366 1_455 S
C114 C110 1.374 . S
C114 C113 1.523 . S
H115 C90 0.950 . S
H116 C92 0.950 . S
H117 C93 0.949 . S
H118 C95 0.950 . S
H119 C97 0.950 . S
C120 C121 1.349 . S
C120 C122 1.327 . S
C120 H145 0.950 . S
C121 C120 1.349 . S
C121 C137 1.349 1_545 S
C122 C120 1.327 . S
C122 C141 1.429 . S
C122 H146 0.950 . S
C123 C140 1.574 1_455 S
C123 C142 1.368 1_565 S
C123 H147 0.949 . S
H124 C128 0.949 . S
C125 C126 1.349 1_565 S
C125 C127 1.327 . S
C125 H148 0.950 . S
C126 C125 1.349 1_545 S
C126 C138 1.349 . S
C127 C125 1.327 . S
C127 C143 1.429 1_565 S
C127 H149 0.950 . S
C128 H124 0.949 . S
C128 C136 1.574 . S
C128 C144 1.368 1_455 S
H129 C137 0.950 . S
H130 C135 0.950 . S
H131 C136 0.949 . S
H132 C138 0.950 . S
H133 C139 0.950 . S
H134 C140 0.949 . S
C135 H130 0.950 . S
C135 C137 1.327 . S
C135 C141 1.429 1_565 S
C136 C128 1.574 . S
C136 H131 0.949 . S
C136 C142 1.368 . S
C137 C121 1.349 1_565 S
C137 H129 0.950 . S
C137 C135 1.327 . S
C138 C126 1.349 . S
C138 H132 0.950 . S
C138 C139 1.327 . S
C139 H133 0.950 . S
C139 C138 1.327 . S
C139 C143 1.429 . S
C140 C123 1.574 1_655 S
C140 H134 0.949 . S
C140 C144 1.368 1_565 S
C141 C122 1.429 . S
C141 C135 1.429 1_545 S
C141 C142 1.523 . S
C142 C123 1.368 1_545 S
C142 C136 1.368 . S
C142 C141 1.523 . S
C143 C127 1.429 1_545 S
C143 C139 1.429 . S
C143 C144 1.523 . S
C144 C128 1.368 1_655 S
C144 C140 1.368 1_545 S
C144 C143 1.523 . S
H145 C120 0.950 . S
H146 C122 0.950 . S
H147 C123 0.949 . S
H148 C125 0.950 . S
H149 C127 0.950 . S
C150 C151 1.349 . S
C150 C152 1.327 . S
C150 H175 0.950 . S
C151 C150 1.349 . S
C151 C167 1.349 . S
C152 C150 1.327 . S
C152 C171 1.429 . S
C152 H176 0.950 . S
C153 C170 1.574 1_665 S
C153 C172 1.368 . S
C153 H177 0.949 . S
H154 C158 0.949 . S
C155 C156 1.349 . S
C155 C157 1.327 . S
C155 H178 0.950 . S
C156 C155 1.349 . S
C156 C168 1.349 . S
C157 C155 1.327 . S
C157 C173 1.429 . S
C157 H179 0.950 . S
C158 H154 0.949 . S
C158 C166 1.574 1_545 S
C158 C174 1.368 . S
H159 C167 0.950 . S
H160 C165 0.950 . S
H161 C166 0.949 . S
H162 C168 0.950 . S
H163 C169 0.950 . S
H164 C170 0.949 . S
C165 H160 0.950 . S
C165 C167 1.327 . S
C165 C171 1.429 . S
C166 C158 1.574 1_565 S
C166 H161 0.949 . S
C166 C172 1.368 1_455 S
C167 C151 1.349 . S
C167 H159 0.950 . S
C167 C165 1.327 . S
C168 C156 1.349 . S
C168 H162 0.950 . S
C168 C169 1.327 . S
C169 H163 0.950 . S
C169 C168 1.327 . S
C169 C173 1.429 . S
C170 C153 1.574 1_445 S
C170 H164 0.949 . S
C170 C174 1.368 . S
C171 C152 1.429 . S
C171 C165 1.429 . S
C171 C172 1.523 . S
C172 C153 1.368 . S
C172 C166 1.368 1_655 S
C172 C171 1.523 . S
C173 C157 1.429 . S
C173 C169 1.429 . S
C173 C174 1.523 . S
C174 C158 1.368 . S
C174 C170 1.368 . S
C174 C173 1.523 . S
H175 C150 0.950 . S
H176 C152 0.950 . S
H177 C153 0.949 . S
H178 C155 0.950 . S
H179 C157 0.950 . S
C180 C181 1.349 . S
C180 C182 1.327 . S
C180 H205 0.950 . S
C181 C180 1.349 . S
C181 C197 1.349 . S
C182 C180 1.327 . S
C182 C201 1.429 . S
C182 H206 0.950 . S
C183 C200 1.573 1_556 S
C183 C202 1.368 . S
C183 H207 0.949 . S
H184 C188 0.949 . S
C185 C186 1.349 . S
C185 C187 1.327 . S
C185 H208 0.950 . S
C186 C185 1.349 . S
C186 C198 1.349 . S
C187 C185 1.327 . S
C187 C203 1.429 . S
C187 H209 0.950 . S
C188 H184 0.949 . S
C188 C196 1.574 . S
C188 C204 1.368 1_556 S
H189 C197 0.950 . S
H190 C195 0.950 . S
H191 C196 0.949 . S
H192 C198 0.950 . S
H193 C199 0.950 . S
H194 C200 0.949 . S
C195 H190 0.950 . S
C195 C197 1.327 . S
C195 C201 1.429 . S
C196 C188 1.574 . S
C196 H191 0.949 . S
C196 C202 1.368 . S
C197 C181 1.349 . S
C197 H189 0.950 . S
C197 C195 1.327 . S
C198 C186 1.349 . S
C198 H192 0.950 . S
C198 C199 1.327 . S
C199 H193 0.950 . S
C199 C198 1.327 . S
C199 C203 1.429 . S
C200 C183 1.573 1_554 S
C200 H194 0.949 . S
C200 C204 1.368 . S
C201 C182 1.429 . S
C201 C195 1.429 . S
C201 C202 1.523 . S
C202 C183 1.368 . S
C202 C196 1.368 . S
C202 C201 1.523 . S
C203 C187 1.429 . S
C203 C199 1.429 . S
C203 C204 1.523 . S
C204 C188 1.368 1_554 S
C204 C200 1.368 . S
C204 C203 1.523 . S
H205 C180 0.950 . S
H206 C182 0.950 . S
H207 C183 0.949 . S
H208 C185 0.950 . S
H209 C187 0.950 . S
C210 C211 1.349 . S
C210 C212 1.327 . S
C210 H235 0.950 . S
C211 C210 1.349 . S
C211 C227 1.349 . S
C212 C210 1.327 . S
C212 C231 1.429 . S
C212 H236 0.950 . S
C213 C230 1.574 . S
C213 C232 1.368 . S
C213 H237 0.949 . S
H214 C218 0.949 . S
C215 C216 1.349 . S
C215 C217 1.327 . S
C215 H238 0.950 . S
C216 C215 1.349 . S
C216 C228 1.349 . S
C217 C215 1.327 . S
C217 C233 1.429 . S
C217 H239 0.950 . S
C218 H214 0.949 . S
C218 C226 1.574 . S
C218 C234 1.368 . S
H219 C227 0.950 . S
H220 C225 0.950 . S
H221 C226 0.949 . S
H222 C228 0.950 . S
H223 C229 0.950 . S
H224 C230 0.949 . S
C225 H220 0.950 . S
C225 C227 1.327 . S
C225 C231 1.429 . S
C226 C218 1.574 . S
C226 H221 0.949 . S
C226 C232 1.368 . S
C227 C211 1.349 . S
C227 H219 0.950 . S
C227 C225 1.327 . S
C228 C216 1.349 . S
C228 H222 0.950 . S
C228 C229 1.327 . S
C229 H223 0.950 . S
C229 C228 1.327 . S
C229 C233 1.429 . S
C230 C213 1.574 . S
C230 H224 0.949 . S
C230 C234 1.368 . S
C231 C212 1.429 . S
C231 C225 1.429 . S
C231 C232 1.523 . S
C232 C213 1.368 . S
C232 C226 1.368 . S
C232 C231 1.523 . S
C233 C217 1.429 . S
C233 C229 1.429 . S
C233 C234 1.523 . S
C234 C218 1.368 . S
C234 C230 1.368 . S
C234 C233 1.523 . S
H235 C210 0.950 . S
H236 C212 0.950 . S
H237 C213 0.949 . S
H238 C215 0.950 . S
H239 C217 0.950 . S
C240 C241 1.349 . S
C240 C242 1.327 . S
C240 H265 0.950 . S
C241 C240 1.349 . S
C241 C257 1.349 . S
C242 C240 1.327 . S
C242 C261 1.429 . S
C242 H266 0.950 . S
C243 C260 1.574 . S
C243 C262 1.368 . S
C243 H267 0.949 . S
H244 C248 0.949 . S
C245 C246 1.349 . S
C245 C247 1.327 . S
C245 H268 0.950 . S
C246 C245 1.349 . S
C246 C258 1.349 . S
C247 C245 1.327 . S
C247 C263 1.429 . S
C247 H269 0.950 . S
C248 H244 0.949 . S
C248 C256 1.574 . S
C248 C264 1.368 . S
H249 C257 0.950 . S
H250 C255 0.950 . S
H251 C256 0.949 . S
H252 C258 0.950 . S
H253 C259 0.950 . S
H254 C260 0.949 . S
C255 H250 0.950 . S
C255 C257 1.327 . S
C255 C261 1.429 . S
C256 C248 1.574 . S
C256 H251 0.949 . S
C256 C262 1.368 . S
C257 C241 1.349 . S
C257 H249 0.950 . S
C257 C255 1.327 . S
C258 C246 1.349 . S
C258 H252 0.950 . S
C258 C259 1.327 . S
C259 H253 0.950 . S
C259 C258 1.327 . S
C259 C263 1.429 . S
C260 C243 1.574 . S
C260 H254 0.949 . S
C260 C264 1.368 . S
C261 C242 1.429 . S
C261 C255 1.429 . S
C261 C262 1.523 . S
C262 C243 1.368 . S
C262 C256 1.368 . S
C262 C261 1.523 . S
C263 C247 1.429 . S
C263 C259 1.429 . S
C263 C264 1.523 . S
C264 C248 1.368 . S
C264 C260 1.368 . S
C264 C263 1.523 . S
H265 C240 0.950 . S
H266 C242 0.950 . S
H267 C243 0.949 . S
H268 C245 0.950 . S
H269 C247 0.950 . S
C270 C271 1.349 . S
C270 C272 1.327 . S
C270 H295 0.950 . S
C271 C270 1.349 . S
C271 C287 1.349 . S
C272 C270 1.327 . S
C272 C291 1.429 . S
C272 H296 0.950 . S
C273 C290 1.574 . S
C273 C292 1.368 1_554 S
C273 H297 0.949 1_554 S
H274 C278 0.949 . S
C275 C276 1.349 . S
C275 C277 1.327 . S
C275 H298 0.950 . S
C276 C275 1.349 . S
C276 C288 1.349 . S
C277 C275 1.327 . S
C277 C293 1.429 . S
C277 H299 0.950 . S
C278 H274 0.949 . S
C278 C286 1.574 . S
C278 C294 1.368 . S
H279 C287 0.950 . S
H280 C285 0.950 . S
H281 C286 0.949 . S
H282 C288 0.950 . S
H283 C289 0.950 . S
H284 C290 0.949 . S
C285 H280 0.950 . S
C285 C287 1.327 . S
C285 C291 1.429 . S
C286 C278 1.574 . S
C286 H281 0.949 . S
C286 C292 1.368 1_554 S
C287 C271 1.349 . S
C287 H279 0.950 . S
C287 C285 1.327 . S
C288 C276 1.349 . S
C288 H282 0.950 . S
C288 C289 1.327 . S
C289 H283 0.950 . S
C289 C288 1.327 . S
C289 C293 1.429 . S
C290 C273 1.574 . S
C290 H284 0.949 . S
C290 C294 1.368 . S
C291 C272 1.429 . S
C291 C285 1.429 . S
C291 C292 1.523 . S
C292 C273 1.368 1_556 S
C292 C286 1.368 1_556 S
C292 C291 1.523 . S
C293 C277 1.429 . S
C293 C289 1.429 . S
C293 C294 1.523 . S
C294 C278 1.368 . S
C294 C290 1.368 . S
C294 C293 1.523 . S
H295 C270 0.950 . S
H296 C272 0.950 . S
H297 C273 0.949 1_556 S
H298 C275 0.950 . S
H299 C277 0.950 . S
C300 C301 1.349 . S
C300 C302 1.327 . S
C300 H325 0.950 . S
C301 C300 1.349 . S
C301 C317 1.349 . S
C302 C300 1.327 . S
C302 C321 1.429 . S
C302 H326 0.950 . S
C303 C320 1.574 . S
C303 C322 1.368 . S
C303 H327 0.949 . S
H304 C308 0.949 . S
C305 C306 1.349 . S
C305 C307 1.327 . S
C305 H328 0.950 . S
C306 C305 1.349 . S
C306 C318 1.349 . S
C307 C305 1.327 . S
C307 C323 1.429 . S
C307 H329 0.950 . S
C308 H304 0.949 . S
C308 C316 1.574 . S
C308 C324 1.368 . S
H309 C317 0.950 . S
H310 C315 0.950 . S
H311 C316 0.949 . S
H312 C318 0.950 . S
H313 C319 0.950 . S
H314 C320 0.949 . S
C315 H310 0.950 . S
C315 C317 1.327 . S
C315 C321 1.429 . S
C316 C308 1.574 . S
C316 H311 0.949 . S
C316 C322 1.368 . S
C317 C301 1.349 . S
C317 H309 0.950 . S
C317 C315 1.327 . S
C318 C306 1.349 . S
C318 H312 0.950 . S
C318 C319 1.327 . S
C319 H313 0.950 . S
C319 C318 1.327 . S
C319 C323 1.429 . S
C320 C303 1.574 . S
C320 H314 0.949 . S
C320 C324 1.368 . S
C321 C302 1.429 . S
C321 C315 1.429 . S
C321 C322 1.523 . S
C322 C303 1.368 . S
C322 C316 1.368 . S
C322 C321 1.523 . S
C323 C307 1.429 . S
C323 C319 1.429 . S
C323 C324 1.523 . S
C324 C308 1.368 . S
C324 C320 1.368 . S
C324 C323 1.523 . S
H325 C300 0.950 . S
H326 C302 0.950 . S
H327 C303 0.949 . S
H328 C305 0.950 . S
H329 C307 0.950 . S
C330 C331 1.349 . S
C330 C332 1.327 . S
C330 H355 0.950 . S
C331 C330 1.349 . S
C331 C347 1.349 . S
C332 C330 1.327 . S
C332 C351 1.429 . S
C332 H356 0.950 . S
C333 C350 1.574 . S
C333 C352 1.368 . S
C333 H357 0.949 . S
H334 C338 0.949 . S
C335 C336 1.349 . S
C335 C337 1.327 . S
C335 H358 0.950 . S
C336 C335 1.349 . S
C336 C348 1.349 . S
C337 C335 1.327 . S
C337 C353 1.429 . S
C337 H359 0.950 . S
C338 H334 0.949 . S
C338 C346 1.574 . S
C338 C354 1.368 . S
H339 C347 0.950 . S
H340 C345 0.950 . S
H341 C346 0.949 . S
H342 C348 0.950 . S
H343 C349 0.950 . S
H344 C350 0.949 . S
C345 H340 0.950 . S
C345 C347 1.327 . S
C345 C351 1.429 . S
C346 C338 1.574 . S
C346 H341 0.949 . S
C346 C352 1.368 . S
C347 C331 1.349 . S
C347 H339 0.950 . S
C347 C345 1.327 . S
C348 C336 1.349 . S
C348 H342 0.950 . S
C348 C349 1.327 . S
C349 H343 0.950 . S
C349 C348 1.327 . S
C349 C353 1.429 . S
C350 C333 1.574 . S
C350 H344 0.949 . S
C350 C354 1.368 . S
C351 C332 1.429 . S
C351 C345 1.429 . S
C351 C352 1.523 . S
C352 C333 1.368 . S
C352 C346 1.368 . S
C352 C351 1.523 . S
C353 C337 1.429 . S
C353 C349 1.429 . S
C353 C354 1.523 . S
C354 C338 1.368 . S
C354 C350 1.368 . S
C354 C353 1.523 . S
H355 C330 0.950 . S
H356 C332 0.950 . S
H357 C333 0.949 . S
H358 C335 0.950 . S
H359 C337 0.950 . S
C91 C1 1.691 1_455 S
C96 C10 1.683 . S
C121 C40 1.686 . S
C126 C31 1.686 . S
C151 C70 1.686 . S
C156 C61 1.686 . S
C181 C87 0.898 . S
C186 N6 0.903 . S
C211 C46 0.674 . S
C216 N14 0.689 . S
C241 N66 0.902 . S
C246 C57 0.898 . S
C271 N74 0.689 . S
C276 C16 0.674 . S
C301 C27 0.898 . S
C306 N36 0.902 . S
C331 C76 0.674 . S
C336 N44 0.689 . S
