# Generated by pormake.
# Topology uoh, (4)-cn, num edge types: 1
# Building blocks:
#     Node 0, Type 0, BuildingBlock: QUQFOY_clean_sbu_3, # of connection points: 4
#     Node 1, Type 0, BuildingBlock: QUQFOY_clean_sbu_3, # of connection points: 4
#     Node 2, Type 0, BuildingBlock: QUQFOY_clean_sbu_3, # of connection points: 4
#     Node 3, Type 0, BuildingBlock: QUQFOY_clean_sbu_3, # of connection points: 4
#     Node 4, Type 0, BuildingBlock: QUQFOY_clean_sbu_3, # of connection points: 4
#     Node 5, Type 0, BuildingBlock: QUQFOY_clean_sbu_3, # of connection points: 4
#     Node 6, Type 0, BuildingBlock: QUQFOY_clean_sbu_3, # of connection points: 4
#     Node 7, Type 0, BuildingBlock: QUQFOY_clean_sbu_3, # of connection points: 4
#     Node 8, Type 0, BuildingBlock: QUQFOY_clean_sbu_3, # of connection points: 4
#     Node 9, Type 0, BuildingBlock: QUQFOY_clean_sbu_3, # of connection points: 4
#     Node 10, Type 0, BuildingBlock: QUQFOY_clean_sbu_3, # of connection points: 4
#     Node 11, Type 0, BuildingBlock: QUQFOY_clean_sbu_3, # of connection points: 4
#     Node 12, Type 0, BuildingBlock: QUQFOY_clean_sbu_3, # of connection points: 4
#     Node 13, Type 0, BuildingBlock: QUQFOY_clean_sbu_3, # of connection points: 4
#     Node 14, Type 0, BuildingBlock: QUQFOY_clean_sbu_3, # of connection points: 4
#     Node 15, Type 0, BuildingBlock: QUQFOY_clean_sbu_3, # of connection points: 4
#     Node 16, Type 0, BuildingBlock: QUQFOY_clean_sbu_3, # of connection points: 4
#     Node 17, Type 0, BuildingBlock: QUQFOY_clean_sbu_3, # of connection points: 4
#     Node 18, Type 0, BuildingBlock: QUQFOY_clean_sbu_3, # of connection points: 4
#     Node 19, Type 0, BuildingBlock: QUQFOY_clean_sbu_3, # of connection points: 4
#     Node 20, Type 0, BuildingBlock: QUQFOY_clean_sbu_3, # of connection points: 4
#     Node 21, Type 0, BuildingBlock: QUQFOY_clean_sbu_3, # of connection points: 4
#     Node 22, Type 0, BuildingBlock: QUQFOY_clean_sbu_3, # of connection points: 4
#     Node 23, Type 0, BuildingBlock: QUQFOY_clean_sbu_3, # of connection points: 4
#     Node 24, Type 0, BuildingBlock: QUQFOY_clean_sbu_3, # of connection points: 4
#     Node 25, Type 0, BuildingBlock: QUQFOY_clean_sbu_3, # of connection points: 4
#     Node 26, Type 0, BuildingBlock: QUQFOY_clean_sbu_3, # of connection points: 4
#     Node 27, Type 0, BuildingBlock: QUQFOY_clean_sbu_3, # of connection points: 4
#     Node 28, Type 0, BuildingBlock: QUQFOY_clean_sbu_3, # of connection points: 4
#     Node 29, Type 0, BuildingBlock: QUQFOY_clean_sbu_3, # of connection points: 4
#     Node 30, Type 0, BuildingBlock: QUQFOY_clean_sbu_3, # of connection points: 4
#     Node 31, Type 0, BuildingBlock: QUQFOY_clean_sbu_3, # of connection points: 4
#     Node 32, Type 0, BuildingBlock: QUQFOY_clean_sbu_3, # of connection points: 4
#     Node 33, Type 0, BuildingBlock: QUQFOY_clean_sbu_3, # of connection points: 4
#     Node 34, Type 0, BuildingBlock: QUQFOY_clean_sbu_3, # of connection points: 4
#     Node 35, Type 0, BuildingBlock: QUQFOY_clean_sbu_3, # of connection points: 4
#     Edge 36, Type (0, 0), BuildingBlock: OJICUG_clean_linker_0, # of connection points: 2
#     Edge 37, Type (0, 0), BuildingBlock: OJICUG_clean_linker_0, # of connection points: 2
#     Edge 38, Type (0, 0), BuildingBlock: OJICUG_clean_linker_0, # of connection points: 2
#     Edge 39, Type (0, 0), BuildingBlock: OJICUG_clean_linker_0, # of connection points: 2
#     Edge 40, Type (0, 0), BuildingBlock: OJICUG_clean_linker_0, # of connection points: 2
#     Edge 41, Type (0, 0), BuildingBlock: OJICUG_clean_linker_0, # of connection points: 2
#     Edge 42, Type (0, 0), BuildingBlock: OJICUG_clean_linker_0, # of connection points: 2
#     Edge 43, Type (0, 0), BuildingBlock: OJICUG_clean_linker_0, # of connection points: 2
#     Edge 44, Type (0, 0), BuildingBlock: OJICUG_clean_linker_0, # of connection points: 2
#     Edge 45, Type (0, 0), BuildingBlock: OJICUG_clean_linker_0, # of connection points: 2
#     Edge 46, Type (0, 0), BuildingBlock: OJICUG_clean_linker_0, # of connection points: 2
#     Edge 47, Type (0, 0), BuildingBlock: OJICUG_clean_linker_0, # of connection points: 2
#     Edge 48, Type (0, 0), BuildingBlock: OJICUG_clean_linker_0, # of connection points: 2
#     Edge 49, Type (0, 0), BuildingBlock: OJICUG_clean_linker_0, # of connection points: 2
#     Edge 50, Type (0, 0), BuildingBlock: OJICUG_clean_linker_0, # of connection points: 2
#     Edge 51, Type (0, 0), BuildingBlock: OJICUG_clean_linker_0, # of connection points: 2
#     Edge 52, Type (0, 0), BuildingBlock: OJICUG_clean_linker_0, # of connection points: 2
#     Edge 53, Type (0, 0), BuildingBlock: OJICUG_clean_linker_0, # of connection points: 2
#     Edge 54, Type (0, 0), BuildingBlock: OJICUG_clean_linker_0, # of connection points: 2
#     Edge 55, Type (0, 0), BuildingBlock: OJICUG_clean_linker_0, # of connection points: 2
#     Edge 56, Type (0, 0), BuildingBlock: OJICUG_clean_linker_0, # of connection points: 2
#     Edge 57, Type (0, 0), BuildingBlock: OJICUG_clean_linker_0, # of connection points: 2
#     Edge 58, Type (0, 0), BuildingBlock: OJICUG_clean_linker_0, # of connection points: 2
#     Edge 59, Type (0, 0), BuildingBlock: OJICUG_clean_linker_0, # of connection points: 2
#     Edge 60, Type (0, 0), BuildingBlock: OJICUG_clean_linker_0, # of connection points: 2
#     Edge 61, Type (0, 0), BuildingBlock: OJICUG_clean_linker_0, # of connection points: 2
#     Edge 62, Type (0, 0), BuildingBlock: OJICUG_clean_linker_0, # of connection points: 2
#     Edge 63, Type (0, 0), BuildingBlock: OJICUG_clean_linker_0, # of connection points: 2
#     Edge 64, Type (0, 0), BuildingBlock: OJICUG_clean_linker_0, # of connection points: 2
#     Edge 65, Type (0, 0), BuildingBlock: OJICUG_clean_linker_0, # of connection points: 2
#     Edge 66, Type (0, 0), BuildingBlock: OJICUG_clean_linker_0, # of connection points: 2
#     Edge 67, Type (0, 0), BuildingBlock: OJICUG_clean_linker_0, # of connection points: 2
#     Edge 68, Type (0, 0), BuildingBlock: OJICUG_clean_linker_0, # of connection points: 2
#     Edge 69, Type (0, 0), BuildingBlock: OJICUG_clean_linker_0, # of connection points: 2
#     Edge 70, Type (0, 0), BuildingBlock: OJICUG_clean_linker_0, # of connection points: 2
#     Edge 71, Type (0, 0), BuildingBlock: OJICUG_clean_linker_0, # of connection points: 2
#     Edge 72, Type (0, 0), BuildingBlock: OJICUG_clean_linker_0, # of connection points: 2
#     Edge 73, Type (0, 0), BuildingBlock: OJICUG_clean_linker_0, # of connection points: 2
#     Edge 74, Type (0, 0), BuildingBlock: OJICUG_clean_linker_0, # of connection points: 2
#     Edge 75, Type (0, 0), BuildingBlock: OJICUG_clean_linker_0, # of connection points: 2
#     Edge 76, Type (0, 0), BuildingBlock: OJICUG_clean_linker_0, # of connection points: 2
#     Edge 77, Type (0, 0), BuildingBlock: OJICUG_clean_linker_0, # of connection points: 2
#     Edge 78, Type (0, 0), BuildingBlock: OJICUG_clean_linker_0, # of connection points: 2
#     Edge 79, Type (0, 0), BuildingBlock: OJICUG_clean_linker_0, # of connection points: 2
#     Edge 80, Type (0, 0), BuildingBlock: OJICUG_clean_linker_0, # of connection points: 2
#     Edge 81, Type (0, 0), BuildingBlock: OJICUG_clean_linker_0, # of connection points: 2
#     Edge 82, Type (0, 0), BuildingBlock: OJICUG_clean_linker_0, # of connection points: 2
#     Edge 83, Type (0, 0), BuildingBlock: OJICUG_clean_linker_0, # of connection points: 2
#     Edge 84, Type (0, 0), BuildingBlock: OJICUG_clean_linker_0, # of connection points: 2
#     Edge 85, Type (0, 0), BuildingBlock: OJICUG_clean_linker_0, # of connection points: 2
#     Edge 86, Type (0, 0), BuildingBlock: OJICUG_clean_linker_0, # of connection points: 2
#     Edge 87, Type (0, 0), BuildingBlock: OJICUG_clean_linker_0, # of connection points: 2
#     Edge 88, Type (0, 0), BuildingBlock: OJICUG_clean_linker_0, # of connection points: 2
#     Edge 89, Type (0, 0), BuildingBlock: OJICUG_clean_linker_0, # of connection points: 2
#     Edge 90, Type (0, 0), BuildingBlock: OJICUG_clean_linker_0, # of connection points: 2
#     Edge 91, Type (0, 0), BuildingBlock: OJICUG_clean_linker_0, # of connection points: 2
#     Edge 92, Type (0, 0), BuildingBlock: OJICUG_clean_linker_0, # of connection points: 2
#     Edge 93, Type (0, 0), BuildingBlock: OJICUG_clean_linker_0, # of connection points: 2
#     Edge 94, Type (0, 0), BuildingBlock: OJICUG_clean_linker_0, # of connection points: 2
#     Edge 95, Type (0, 0), BuildingBlock: OJICUG_clean_linker_0, # of connection points: 2
#     Edge 96, Type (0, 0), BuildingBlock: OJICUG_clean_linker_0, # of connection points: 2
#     Edge 97, Type (0, 0), BuildingBlock: OJICUG_clean_linker_0, # of connection points: 2
#     Edge 98, Type (0, 0), BuildingBlock: OJICUG_clean_linker_0, # of connection points: 2
#     Edge 99, Type (0, 0), BuildingBlock: OJICUG_clean_linker_0, # of connection points: 2
#     Edge 100, Type (0, 0), BuildingBlock: OJICUG_clean_linker_0, # of connection points: 2
#     Edge 101, Type (0, 0), BuildingBlock: OJICUG_clean_linker_0, # of connection points: 2
#     Edge 102, Type (0, 0), BuildingBlock: OJICUG_clean_linker_0, # of connection points: 2
#     Edge 103, Type (0, 0), BuildingBlock: OJICUG_clean_linker_0, # of connection points: 2
#     Edge 104, Type (0, 0), BuildingBlock: OJICUG_clean_linker_0, # of connection points: 2
#     Edge 105, Type (0, 0), BuildingBlock: OJICUG_clean_linker_0, # of connection points: 2
#     Edge 106, Type (0, 0), BuildingBlock: OJICUG_clean_linker_0, # of connection points: 2
#     Edge 107, Type (0, 0), BuildingBlock: OJICUG_clean_linker_0, # of connection points: 2
# Relax obj value: 0.088
# Max RMSD: 0.144
# Mean RMSD: 0.143
data_MOF--net-uoh--node1-QUQFOY_clean_sbu_3--edge1-OJICUG_clean_linker_0
_symmetry_space_group_name_H-M    P1
_symmetry_Int_Tables_number       1
_symmetry_cell_setting            triclinic
loop_
_symmetry_equiv_pos_as_xyz
'x, y, z'
_cell_length_a     67.386335
_cell_length_b     67.399139
_cell_length_c     20.974024
_cell_angle_alpha  90.103053
_cell_angle_beta   89.912125
_cell_angle_gamma 120.03083
loop_
_atom_site_label
_atom_site_type_symbol
_atom_site_fract_x
_atom_site_fract_y
_atom_site_fract_z
_atom_type_partial_charge
C0 C 0.216 0.09342 0.1671 0.0
O1 O 0.21915 0.08102 0.20659 0.0
Cd2 Cd 0.23841 0.09895 0.30436 0.0
O3 O 0.22052 0.11347 0.18254 0.0
Cd4 Cd 0.23396 0.14083 0.26941 0.0
C5 C 0.28335 0.14369 0.22716 0.0
O6 O 0.21797 0.1151 0.3594 0.0
O7 O 0.24416 0.15028 0.37944 0.0
O8 O 0.20159 0.14513 0.24686 0.0
C9 C 0.22826 0.13115 0.39981 0.0
O10 O 0.27595 0.12489 0.25722 0.0
C11 C 0.21274 0.16687 0.24491 0.0
O12 O 0.2715 0.15357 0.22459 0.0
O13 O 0.23434 0.17672 0.25243 0.0
C14 C 0.88989 0.11862 0.16205 0.0
O15 O 0.90234 0.134 0.20206 0.0
Cd16 Cd 0.88452 0.13522 0.30021 0.0
O17 O 0.86978 0.1031 0.17707 0.0
Cd18 Cd 0.84223 0.08886 0.2635 0.0
C19 C 0.83995 0.13586 0.22324 0.0
O20 O 0.86791 0.09838 0.35354 0.0
O21 O 0.83275 0.08936 0.37376 0.0
O22 O 0.83751 0.05205 0.23928 0.0
C23 C 0.85193 0.09274 0.39409 0.0
O24 O 0.85874 0.14705 0.25357 0.0
C25 C 0.81578 0.0417 0.23689 0.0
O26 O 0.8299 0.11412 0.21987 0.0
O27 O 0.80617 0.05363 0.24517 0.0
C28 C 0.86625 0.77041 0.16321 0.0
O29 O 0.85063 0.76714 0.20277 0.0
Cd30 Cd 0.84929 0.74818 0.30099 0.0
O31 O 0.88183 0.76596 0.17847 0.0
Cd32 Cd 0.89548 0.75242 0.2655 0.0
C33 C 0.84873 0.70277 0.22574 0.0
O34 O 0.88597 0.76879 0.35529 0.0
O35 O 0.89495 0.74266 0.37575 0.0
O36 O 0.93233 0.78445 0.24234 0.0
C37 C 0.89179 0.75865 0.39584 0.0
O38 O 0.83739 0.71029 0.25575 0.0
C39 C 0.94271 0.7731 0.24052 0.0
O40 O 0.87044 0.71469 0.22222 0.0
O41 O 0.93076 0.75154 0.24832 0.0
C42 C 0.09184 0.22145 0.29219 0.0
O43 O 0.07963 0.22474 0.25231 0.0
Cd44 Cd 0.09765 0.24345 0.15404 0.0
O45 O 0.11182 0.22564 0.27711 0.0
Cd46 Cd 0.13927 0.23849 0.19048 0.0
C47 C 0.14296 0.28849 0.22964 0.0
O48 O 0.1135 0.22252 0.10048 0.0
O49 O 0.14885 0.24816 0.08018 0.0
O50 O 0.14285 0.20581 0.21454 0.0
C51 C 0.12954 0.23253 0.05993 0.0
O52 O 0.12416 0.2811 0.19955 0.0
C53 C 0.16459 0.21662 0.21657 0.0
O54 O 0.15258 0.27641 0.23349 0.0
O55 O 0.1748 0.23819 0.20837 0.0
C56 C 0.75823 0.86525 0.27769 0.0
O57 O 0.75493 0.84991 0.23707 0.0
Cd58 Cd 0.73585 0.84945 0.13995 0.0
O59 O 0.75424 0.88122 0.26337 0.0
Cd60 Cd 0.7419 0.89664 0.17734 0.0
C61 C 0.69192 0.85098 0.21934 0.0
O62 O 0.75689 0.88612 0.08647 0.0
O63 O 0.73154 0.89624 0.06722 0.0
O64 O 0.7752 0.93267 0.2007 0.0
C65 C 0.74674 0.89204 0.04622 0.0
O66 O 0.69893 0.83931 0.18876 0.0
C67 C 0.76474 0.94392 0.20362 0.0
O68 O 0.70415 0.87269 0.22233 0.0
O69 O 0.74312 0.93287 0.19603 0.0
C70 C 0.11792 0.89282 0.29012 0.0
O71 O 0.13354 0.90517 0.25058 0.0
Cd72 Cd 0.13444 0.88722 0.15226 0.0
O73 O 0.10225 0.87285 0.27462 0.0
Cd74 Cd 0.08798 0.84557 0.18763 0.0
C75 C 0.13425 0.84206 0.22783 0.0
O76 O 0.09776 0.87149 0.09809 0.0
O77 O 0.08824 0.83622 0.0772 0.0
O78 O 0.05181 0.84216 0.21179 0.0
C79 C 0.09166 0.85547 0.05739 0.0
O80 O 0.14572 0.8609 0.19797 0.0
C81 C 0.04071 0.82043 0.21325 0.0
O82 O 0.11253 0.83233 0.23105 0.0
O83 O 0.05194 0.81009 0.20478 0.0
C84 C 0.75666 0.88829 0.77766 0.0
O85 O 0.75316 0.9002 0.73724 0.0
Cd86 Cd 0.73494 0.88174 0.6389 0.0
O87 O 0.75315 0.86851 0.7629 0.0
Cd88 Cd 0.74155 0.84098 0.67624 0.0
C89 C 0.69091 0.83563 0.71562 0.0
O90 O 0.75687 0.86685 0.58636 0.0
O91 O 0.73219 0.83126 0.56553 0.0
O92 O 0.77507 0.83898 0.70137 0.0
C93 C 0.74728 0.85086 0.54548 0.0
O94 O 0.69784 0.85434 0.68541 0.0
C95 C 0.76498 0.81726 0.70367 0.0
O96 O 0.70341 0.82648 0.7193 0.0
O97 O 0.74342 0.80632 0.69487 0.0
C98 C 0.0905 0.86775 0.79053 0.0
O99 O 0.07804 0.85229 0.75071 0.0
Cd100 Cd 0.09627 0.85103 0.65333 0.0
O101 O 0.1106 0.88321 0.77535 0.0
Cd102 Cd 0.13815 0.89744 0.68908 0.0
C103 C 0.14092 0.85099 0.73168 0.0
O104 O 0.11275 0.88758 0.59827 0.0
O105 O 0.14802 0.89658 0.57948 0.0
O106 O 0.14197 0.93392 0.71163 0.0
C107 C 0.12894 0.89323 0.55836 0.0
O108 O 0.12216 0.8396 0.70134 0.0
C109 C 0.16371 0.94472 0.71421 0.0
O110 O 0.15086 0.87273 0.73435 0.0
O111 O 0.17379 0.93319 0.70698 0.0
C112 C 0.11695 0.22114 0.79221 0.0
O113 O 0.13241 0.22428 0.7522 0.0
Cd114 Cd 0.13338 0.24313 0.65406 0.0
O115 O 0.10129 0.22551 0.7773 0.0
Cd116 Cd 0.08697 0.23858 0.69069 0.0
C117 C 0.13357 0.28836 0.72993 0.0
O118 O 0.09663 0.22254 0.6004 0.0
O119 O 0.0874 0.24853 0.58056 0.0
O120 O 0.05052 0.20599 0.71413 0.0
C121 C 0.09082 0.23276 0.56005 0.0
O122 O 0.14484 0.28083 0.69966 0.0
C123 C 0.03968 0.21688 0.71607 0.0
O124 O 0.11185 0.27643 0.73393 0.0
O125 O 0.0512 0.23848 0.70835 0.0
C126 C 0.89239 0.77112 0.66314 0.0
O127 O 0.90488 0.76812 0.7027 0.0
Cd128 Cd 0.88737 0.74915 0.80117 0.0
O129 O 0.87227 0.7664 0.67844 0.0
Cd130 Cd 0.84488 0.75259 0.76511 0.0
C131 C 0.84304 0.70331 0.7259 0.0
O132 O 0.8706 0.76924 0.855 0.0
O133 O 0.83552 0.74287 0.87534 0.0
O134 O 0.83934 0.78415 0.74117 0.0
C135 C 0.85461 0.75891 0.89553 0.0
O136 O 0.86187 0.7111 0.75605 0.0
C137 C 0.81763 0.77236 0.73858 0.0
O138 O 0.83295 0.71494 0.72219 0.0
O139 O 0.80841 0.75085 0.74668 0.0
C140 C 0.21598 0.11948 0.66732 0.0
O141 O 0.21904 0.13499 0.70703 0.0
Cd142 Cd 0.23825 0.13624 0.80475 0.0
O143 O 0.22054 0.10398 0.68254 0.0
Cd144 Cd 0.23386 0.0899 0.76896 0.0
C145 C 0.28323 0.13651 0.7272 0.0
O146 O 0.21783 0.09957 0.85916 0.0
O147 O 0.24395 0.09051 0.87898 0.0
O148 O 0.20142 0.05337 0.7454 0.0
C149 C 0.22808 0.09378 0.89946 0.0
O150 O 0.27578 0.14786 0.75745 0.0
C151 C 0.21245 0.04267 0.74333 0.0
O152 O 0.27143 0.11478 0.72436 0.0
O153 O 0.23403 0.05429 0.75131 0.0
C154 C 0.86424 0.09427 0.66204 0.0
O155 O 0.84862 0.08207 0.70175 0.0
Cd156 Cd 0.84752 0.09995 0.79982 0.0
O157 O 0.88003 0.11424 0.67726 0.0
Cd158 Cd 0.89418 0.14152 0.76458 0.0
C159 C 0.84802 0.14517 0.72367 0.0
O160 O 0.88413 0.11554 0.85403 0.0
O161 O 0.89349 0.15073 0.87506 0.0
O162 O 0.93083 0.14568 0.74182 0.0
C163 C 0.89002 0.13147 0.89488 0.0
O164 O 0.83644 0.12636 0.75361 0.0
C165 C 0.94155 0.16743 0.74061 0.0
O166 O 0.86973 0.15478 0.72065 0.0
O167 O 0.92989 0.17735 0.74839 0.0
C168 C 0.88431 0.42706 0.50315 0.0
O169 O 0.88745 0.4147 0.54282 0.0
Cd170 Cd 0.90694 0.43279 0.64014 0.0
O171 O 0.88883 0.44713 0.51837 0.0
Cd172 Cd 0.90226 0.47459 0.60513 0.0
C173 C 0.95156 0.47749 0.56169 0.0
O174 O 0.88663 0.44899 0.69549 0.0
O175 O 0.91289 0.48418 0.71496 0.0
O176 O 0.86988 0.47902 0.58347 0.0
C177 C 0.89709 0.46506 0.73572 0.0
O178 O 0.94428 0.45874 0.59188 0.0
C179 C 0.88112 0.50075 0.5813 0.0
O180 O 0.93968 0.48734 0.55949 0.0
O181 O 0.90273 0.51051 0.58827 0.0
C182 C 0.55833 0.45213 0.50856 0.0
O183 O 0.57078 0.46762 0.54829 0.0
Cd184 Cd 0.55298 0.46892 0.64648 0.0
O185 O 0.53822 0.43666 0.52377 0.0
Cd186 Cd 0.51076 0.42274 0.61031 0.0
C187 C 0.50844 0.46975 0.57037 0.0
O188 O 0.53646 0.4321 0.70023 0.0
O189 O 0.50129 0.42306 0.72061 0.0
O190 O 0.50605 0.38602 0.58581 0.0
C191 C 0.52045 0.42632 0.74078 0.0
O192 O 0.52728 0.48097 0.60046 0.0
C193 C 0.48433 0.37564 0.58331 0.0
O194 O 0.49843 0.44801 0.56706 0.0
O195 O 0.47466 0.38751 0.59178 0.0
C196 C 0.53258 0.10303 0.50164 0.0
O197 O 0.51698 0.09962 0.54145 0.0
Cd198 Cd 0.51632 0.0812 0.64024 0.0
O199 O 0.54838 0.0989 0.51669 0.0
Cd200 Cd 0.56268 0.08589 0.60334 0.0
C201 C 0.51604 0.03569 0.56647 0.0
O202 O 0.55321 0.10226 0.69329 0.0
O203 O 0.56291 0.07666 0.71374 0.0
O204 O 0.59912 0.11825 0.5783 0.0
C205 C 0.55937 0.09239 0.73383 0.0
O206 O 0.50471 0.04318 0.59662 0.0
C207 C 0.60981 0.10721 0.57605 0.0
O208 O 0.53772 0.04781 0.56175 0.0
O209 O 0.59822 0.08566 0.58469 0.0
C210 C 0.7607 0.55584 0.62883 0.0
O211 O 0.74843 0.55897 0.5888 0.0
Cd212 Cd 0.7665 0.57779 0.4907 0.0
O213 O 0.78074 0.56018 0.61392 0.0
Cd214 Cd 0.80831 0.57309 0.52746 0.0
C215 C 0.81169 0.62292 0.56683 0.0
O216 O 0.7826 0.55708 0.43736 0.0
O217 O 0.81791 0.58282 0.41707 0.0
O218 O 0.81171 0.54032 0.55172 0.0
C219 C 0.79862 0.56717 0.39678 0.0
O220 O 0.79288 0.61538 0.53663 0.0
C221 C 0.83344 0.55102 0.55369 0.0
O222 O 0.82147 0.611 0.57073 0.0
O223 O 0.84376 0.5726 0.5454 0.0
C224 C 0.42888 0.20047 0.62166 0.0
O225 O 0.42578 0.18504 0.58161 0.0
Cd226 Cd 0.40671 0.18422 0.48397 0.0
O227 O 0.42449 0.21611 0.60672 0.0
Cd228 Cd 0.41161 0.23081 0.52068 0.0
C229 C 0.36199 0.18446 0.56195 0.0
O230 O 0.42737 0.22097 0.43021 0.0
O231 O 0.40167 0.23061 0.41055 0.0
O232 O 0.44448 0.26691 0.54505 0.0
C233 C 0.41726 0.22694 0.38993 0.0
O234 O 0.36935 0.17305 0.53158 0.0
C235 C 0.43383 0.27798 0.54785 0.0
O236 O 0.37391 0.20619 0.56501 0.0
O237 O 0.41224 0.26678 0.53964 0.0
C238 C 0.78528 0.22845 0.62126 0.0
O239 O 0.80082 0.24072 0.58143 0.0
Cd240 Cd 0.80161 0.22255 0.48341 0.0
O241 O 0.7695 0.2085 0.60599 0.0
Cd242 Cd 0.75495 0.18114 0.51916 0.0
C243 C 0.80101 0.1774 0.56033 0.0
O244 O 0.76502 0.20675 0.42876 0.0
O245 O 0.75547 0.17138 0.40926 0.0
O246 O 0.71854 0.17749 0.54213 0.0
C247 C 0.75907 0.1906 0.38856 0.0
O248 O 0.81261 0.19615 0.53014 0.0
C249 C 0.70767 0.15576 0.54453 0.0
O250 O 0.7793 0.16781 0.5634 0.0
O251 O 0.71913 0.14562 0.53697 0.0
C252 C 0.42893 0.22613 0.12202 0.0
O253 O 0.42576 0.23841 0.08213 0.0
Cd254 Cd 0.40675 0.22016 -0.01566 0.0
O255 O 0.42469 0.20615 0.10683 0.0
Cd256 Cd 0.41193 0.17867 0.02018 0.0
C257 C 0.36218 0.17499 0.06189 0.0
O258 O 0.42754 0.20431 0.92988 0.0
O259 O 0.4018 0.16894 0.91011 0.0
O260 O 0.4449 0.17551 0.04346 0.0
C261 C 0.4174 0.18821 0.88953 0.0
O262 O 0.36943 0.19374 0.0317 0.0
C263 C 0.43429 0.15378 0.04569 0.0
O264 O 0.37421 0.16531 0.06477 0.0
O265 O 0.41268 0.14336 0.0379 0.0
C266 C 0.75967 0.20206 0.12062 0.0
O267 O 0.74716 0.18658 0.08092 0.0
Cd268 Cd 0.76513 0.18527 -0.01693 0.0
O269 O 0.7798 0.21745 0.10538 0.0
Cd270 Cd 0.80734 0.23144 0.01898 0.0
C271 C 0.80971 0.18461 0.05991 0.0
O272 O 0.78161 0.22203 0.92913 0.0
O273 O 0.81677 0.23108 0.90859 0.0
O274 O 0.81143 0.26788 0.04338 0.0
C275 C 0.7976 0.22784 0.88852 0.0
O276 O 0.79086 0.17341 0.02987 0.0
C277 C 0.83316 0.2786 0.04563 0.0
O278 O 0.81983 0.20635 0.06292 0.0
O279 O 0.84316 0.26704 0.03721 0.0
C280 C 0.7856 0.55563 0.12899 0.0
O281 O 0.80106 0.55895 0.08876 0.0
Cd282 Cd 0.8015 0.5775 -0.0095 0.0
O283 O 0.76968 0.55963 0.11421 0.0
Cd284 Cd 0.75473 0.5721 0.02768 0.0
C285 C 0.80083 0.6223 0.06653 0.0
O286 O 0.76471 0.55642 0.93723 0.0
O287 O 0.75481 0.58191 0.91753 0.0
O288 O 0.71854 0.53921 0.05176 0.0
C289 C 0.75865 0.56643 0.89691 0.0
O290 O 0.81233 0.61504 0.03616 0.0
C291 C 0.7075 0.5499 0.05422 0.0
O292 O 0.77914 0.61008 0.07066 0.0
O293 O 0.71878 0.57149 0.04621 0.0
C294 C 0.55905 0.10439 0.00129 0.0
O295 O 0.57153 0.10147 0.04109 0.0
Cd296 Cd 0.55391 0.08259 0.13963 0.0
O297 O 0.53892 0.09968 0.01643 0.0
Cd298 Cd 0.5115 0.08612 0.10306 0.0
C299 C 0.5094 0.03669 0.06487 0.0
O300 O 0.53704 0.10259 0.1934 0.0
O301 O 0.5019 0.07624 0.2131 0.0
O302 O 0.50671 0.11807 0.07903 0.0
C303 C 0.52097 0.09218 0.23368 0.0
O304 O 0.52823 0.04452 0.09507 0.0
C305 C 0.48498 0.10667 0.07649 0.0
O306 O 0.49937 0.04836 0.0606 0.0
O307 O 0.47536 0.08512 0.0845 0.0
C308 C 0.88593 0.4534 0.00376 0.0
O309 O 0.88906 0.46892 0.04352 0.0
Cd310 Cd 0.90801 0.46996 0.14155 0.0
O311 O 0.89034 0.4378 0.01898 0.0
Cd312 Cd 0.90345 0.42353 0.10556 0.0
C313 C 0.95301 0.47004 0.06468 0.0
O314 O 0.88718 0.43319 0.1952 0.0
O315 O 0.91299 0.42379 0.21602 0.0
O316 O 0.87105 0.3871 0.081 0.0
C317 C 0.89716 0.42723 0.23592 0.0
O318 O 0.94556 0.48142 0.09472 0.0
C319 C 0.88204 0.37636 0.07895 0.0
O320 O 0.94116 0.44831 0.06178 0.0
O321 O 0.9036 0.38791 0.08757 0.0
C322 C 0.53252 0.42635 0.00829 0.0
O323 O 0.51695 0.41406 0.04801 0.0
Cd324 Cd 0.51593 0.43194 0.14632 0.0
O325 O 0.54822 0.44634 0.02354 0.0
Cd326 Cd 0.56237 0.47367 0.1105 0.0
C327 C 0.51586 0.47689 0.07054 0.0
O328 O 0.55263 0.44792 0.20048 0.0
O329 O 0.56195 0.48317 0.2207 0.0
O330 O 0.59906 0.47803 0.08696 0.0
C331 C 0.55854 0.46397 0.24096 0.0
O332 O 0.50442 0.4581 0.10065 0.0
C333 C 0.60961 0.49976 0.08486 0.0
O334 O 0.53757 0.48659 0.06711 0.0
O335 O 0.59784 0.50956 0.09283 0.0
C336 C 0.54386 0.75571 0.82608 0.0
O337 O 0.54679 0.7428 0.86418 0.0
Cd338 Cd 0.56732 0.76016 0.96084 0.0
O339 O 0.54926 0.77591 0.84262 0.0
Cd340 Cd 0.56431 0.80277 0.93009 0.0
C341 C 0.61247 0.80409 0.88249 0.0
O342 O 0.54815 0.77693 0.01969 0.0
O343 O 0.57572 0.81159 0.03924 0.0
O344 O 0.5327 0.80868 0.91244 0.0
C345 C 0.55912 0.79292 0.05978 0.0
O346 O 0.60485 0.78514 0.9119 0.0
C347 C 0.54449 0.8304 0.91163 0.0
O348 O 0.60112 0.81451 0.88207 0.0
O349 O 0.56611 0.83951 0.91686 0.0
C350 C 0.22276 0.78681 0.83322 0.0
O351 O 0.23509 0.8024 0.87287 0.0
Cd352 Cd 0.21719 0.80327 0.97126 0.0
O353 O 0.20278 0.77112 0.84856 0.0
Cd354 Cd 0.17538 0.75673 0.93524 0.0
C355 C 0.17204 0.80314 0.89554 0.0
O356 O 0.20141 0.76646 0.02446 0.0
O357 O 0.16616 0.75682 0.04591 0.0
O358 O 0.17167 0.72047 0.91015 0.0
C359 C 0.18549 0.76036 0.06543 0.0
O360 O 0.19088 0.81456 0.92545 0.0
C361 C 0.14993 0.70954 0.90869 0.0
O362 O 0.16226 0.78143 0.89219 0.0
O363 O 0.13975 0.72089 0.91773 0.0
C364 C 0.20011 0.43658 0.82642 0.0
O365 O 0.18455 0.43347 0.866 0.0
Cd366 Cd 0.183 0.41437 0.9641 0.0
O367 O 0.21558 0.43197 0.84166 0.0
Cd368 Cd 0.22912 0.41835 0.92877 0.0
C369 C 0.1823 0.36889 0.88858 0.0
O370 O 0.21961 0.43469 0.01863 0.0
O371 O 0.22814 0.40822 0.03883 0.0
O372 O 0.26602 0.45051 0.90666 0.0
C373 C 0.2252 0.42432 0.05908 0.0
O374 O 0.17108 0.37653 0.91864 0.0
C375 C 0.2765 0.43926 0.9057 0.0
O376 O 0.20403 0.38067 0.885 0.0
O377 O 0.26458 0.41767 0.91296 0.0
C378 C 0.42676 0.88824 0.97342 0.0
O379 O 0.41437 0.8913 0.93364 0.0
Cd380 Cd 0.4322 0.90992 0.83511 0.0
O381 O 0.44679 0.89264 0.95819 0.0
Cd382 Cd 0.47414 0.90549 0.87142 0.0
C383 C 0.47761 0.9554 0.90951 0.0
O384 O 0.44822 0.88913 0.78187 0.0
O385 O 0.48347 0.91491 0.76096 0.0
O386 O 0.47711 0.87261 0.89622 0.0
C387 C 0.46419 0.8991 0.7411 0.0
O388 O 0.45872 0.94769 0.87968 0.0
C389 C 0.49884 0.88294 0.89673 0.0
O390 O 0.48743 0.94353 0.91381 0.0
O391 O 0.50945 0.9045 0.88789 0.0
C392 C 0.09866 0.53494 0.95582 0.0
O393 O 0.09568 0.51948 0.91601 0.0
Cd394 Cd 0.07608 0.51798 0.81892 0.0
O395 O 0.09395 0.55034 0.94075 0.0
Cd396 Cd 0.08044 0.56433 0.85447 0.0
C397 C 0.03136 0.51779 0.89797 0.0
O398 O 0.09616 0.55452 0.76388 0.0
O399 O 0.06979 0.5633 0.74475 0.0
O400 O 0.11286 0.60104 0.87663 0.0
C401 C 0.08564 0.56007 0.72382 0.0
O402 O 0.03877 0.50643 0.86765 0.0
C403 C 0.10171 0.61161 0.87916 0.0
O404 O 0.04307 0.53954 0.90021 0.0
O405 O 0.0801 0.59985 0.87209 0.0
C406 C 0.45214 0.55985 0.96882 0.0
O407 O 0.46773 0.57216 0.92916 0.0
Cd408 Cd 0.46891 0.55409 0.83151 0.0
O409 O 0.43648 0.53984 0.95353 0.0
Cd410 Cd 0.42231 0.51252 0.86652 0.0
C411 C 0.46834 0.50891 0.9085 0.0
O412 O 0.43244 0.53826 0.7765 0.0
O413 O 0.42336 0.50305 0.75659 0.0
O414 O 0.38587 0.50894 0.88813 0.0
C415 C 0.42669 0.5222 0.73614 0.0
O416 O 0.47987 0.5277 0.87845 0.0
C417 C 0.37483 0.4872 0.88912 0.0
O418 O 0.44661 0.4992 0.91141 0.0
O419 O 0.38623 0.47697 0.88212 0.0
C420 C 0.09701 0.55989 0.45576 0.0
O421 O 0.0937 0.57219 0.41624 0.0
Cd422 Cd 0.07473 0.55413 0.31829 0.0
O423 O 0.09278 0.53994 0.44028 0.0
Cd424 Cd 0.07986 0.51264 0.35327 0.0
C425 C 0.03008 0.50887 0.39516 0.0
O426 O 0.09576 0.53857 0.26368 0.0
O427 O 0.07001 0.50329 0.24295 0.0
O428 O 0.11266 0.50917 0.37638 0.0
C429 C 0.08578 0.52257 0.22299 0.0
O430 O 0.03733 0.52768 0.36525 0.0
C431 C 0.10194 0.48742 0.37777 0.0
O432 O 0.04213 0.49921 0.39778 0.0
O433 O 0.08035 0.47715 0.36981 0.0
C434 C 0.42643 0.53398 0.46861 0.0
O435 O 0.41401 0.51849 0.42884 0.0
Cd436 Cd 0.43214 0.51751 0.33102 0.0
O437 O 0.44646 0.54957 0.45332 0.0
Cd438 Cd 0.47387 0.56407 0.36673 0.0
C439 C 0.47736 0.51798 0.40798 0.0
O440 O 0.44812 0.55411 0.27676 0.0
O441 O 0.48339 0.56345 0.25665 0.0
O442 O 0.47684 0.60006 0.3901 0.0
C443 C 0.46418 0.55999 0.23633 0.0
O444 O 0.45853 0.50657 0.37798 0.0
C445 C 0.49858 0.6114 0.39123 0.0
O446 O 0.4872 0.53971 0.41107 0.0
O447 O 0.50914 0.60036 0.38329 0.0
C448 C 0.45139 0.88686 0.47383 0.0
O449 O 0.46691 0.89018 0.43387 0.0
Cd450 Cd 0.4679 0.90904 0.33581 0.0
O451 O 0.43563 0.89109 0.45896 0.0
Cd452 Cd 0.42137 0.90415 0.37219 0.0
C453 C 0.46773 0.95412 0.41147 0.0
O454 O 0.43127 0.88841 0.28167 0.0
O455 O 0.42212 0.91449 0.26237 0.0
O456 O 0.38475 0.8715 0.39431 0.0
C457 C 0.42552 0.89875 0.24155 0.0
O458 O 0.47912 0.94674 0.38111 0.0
C459 C 0.37395 0.88243 0.39579 0.0
O460 O 0.44603 0.94202 0.41569 0.0
O461 O 0.38557 0.90406 0.38879 0.0
C462 C 0.22574 0.43652 0.32649 0.0
O463 O 0.23809 0.43328 0.36599 0.0
Cd464 Cd 0.22034 0.41431 0.4642 0.0
O465 O 0.20571 0.43207 0.34184 0.0
Cd466 Cd 0.17837 0.41866 0.42863 0.0
C467 C 0.17539 0.369 0.3887 0.0
O468 O 0.20421 0.4349 0.51836 0.0
O469 O 0.16902 0.40885 0.53883 0.0
O470 O 0.17386 0.45086 0.40545 0.0
C471 C 0.18821 0.42474 0.55894 0.0
O472 O 0.19423 0.37652 0.41867 0.0
C473 C 0.15212 0.43962 0.40367 0.0
O474 O 0.16559 0.38091 0.38523 0.0
O475 O 0.14236 0.41805 0.41148 0.0
C476 C 0.54537 0.78429 0.32646 0.0
O477 O 0.54839 0.80016 0.36473 0.0
Cd478 Cd 0.56806 0.80267 0.46253 0.0
O479 O 0.55041 0.76925 0.34303 0.0
Cd480 Cd 0.56481 0.75697 0.43064 0.0
C481 C 0.61355 0.80383 0.3863 0.0
O482 O 0.54809 0.76643 0.51959 0.0
O483 O 0.57512 0.7587 0.54046 0.0
O484 O 0.53315 0.71968 0.40995 0.0
C485 C 0.55853 0.76096 0.56015 0.0
O486 O 0.60587 0.81515 0.41564 0.0
C487 C 0.54478 0.70959 0.40952 0.0
O488 O 0.60205 0.78207 0.38488 0.0
O489 O 0.56635 0.72191 0.41655 0.0
C490 C 0.19848 0.76004 0.33227 0.0
O491 O 0.183 0.74765 0.37208 0.0
Cd492 Cd 0.18155 0.7657 0.46946 0.0
O493 O 0.21404 0.78011 0.34746 0.0
Cd494 Cd 0.22809 0.80746 0.43449 0.0
C495 C 0.18187 0.81056 0.39135 0.0
O496 O 0.21793 0.78193 0.52503 0.0
O497 O 0.22663 0.81708 0.54403 0.0
O498 O 0.26481 0.81145 0.41393 0.0
C499 C 0.2234 0.79804 0.56505 0.0
O500 O 0.17039 0.79181 0.42162 0.0
C501 C 0.2756 0.8332 0.41257 0.0
O502 O 0.20361 0.8204 0.38875 0.0
O503 O 0.26395 0.84319 0.4189 0.0
C504 C 0.2282 0.07795 0.00672 0.0
C505 C 0.22136 0.09023 0.96709 0.0
H506 H 0.23075 0.06833 0.10214 0.0
C507 C 0.20856 0.09951 -0.007 0.0
H508 H 0.23767 0.07019 -0.01237 0.0
C509 C 0.20456 0.0984 0.05852 0.0
C510 C 0.213 0.08769 0.09888 0.0
H511 H 0.20279 0.10877 0.96329 0.0
H512 H 0.19621 0.10723 0.07813 0.0
C513 C 0.22385 0.07649 0.0721 0.0
C514 C 0.88394 0.10581 -0.01261 0.0
C515 C 0.89338 0.12801 0.96237 0.0
H516 H 0.87599 0.08537 0.07168 0.0
C517 C 0.90568 0.14696 0.00275 0.0
H518 H 0.87467 0.0909 0.95709 0.0
C519 C 0.90702 0.14378 0.06799 0.0
C520 C 0.89568 0.12162 0.09387 0.0
H521 H 0.91356 0.16427 -0.01564 0.0
H522 H 0.91521 0.15872 0.09862 0.0
C523 C 0.88493 0.10264 0.05276 0.0
C524 C 0.88276 0.78203 0.05464 0.0
C525 C 0.86359 0.77356 0.0951 0.0
H526 H 0.89493 0.78398 0.95922 0.0
C527 C 0.84154 0.76291 0.0684 0.0
H528 H 0.89995 0.79024 0.07419 0.0
C529 C 0.83867 0.75875 0.00295 0.0
C530 C 0.8578 0.76558 0.96318 0.0
H531 H 0.82646 0.75602 0.09851 0.0
H532 H 0.82144 0.7494 -0.01611 0.0
C533 C 0.87989 0.77822 -0.01096 0.0
C534 C 0.09637 0.20985 0.40101 0.0
C535 C 0.08589 0.21843 0.36027 0.0
H536 H 0.10617 0.20771 0.49664 0.0
C537 C 0.07455 0.22919 0.38666 0.0
H538 H 0.1053 0.20154 0.38172 0.0
C539 C 0.0756 0.23327 0.45214 0.0
C540 C 0.08764 0.22628 0.49224 0.0
H541 H 0.06654 0.23618 0.35633 0.0
H542 H 0.06773 0.24267 0.47099 0.0
C543 C 0.09709 0.21359 0.46661 0.0
C544 C 0.76926 0.88068 0.38764 0.0
C545 C 0.76114 0.86195 0.34563 0.0
H546 H 0.7712 0.89183 0.48419 0.0
C547 C 0.75091 0.83967 0.37062 0.0
H548 H 0.77716 0.89804 0.36951 0.0
C549 C 0.74697 0.8361 0.43605 0.0
C550 C 0.75356 0.85477 0.47752 0.0
H551 H 0.74429 0.82491 0.33934 0.0
H552 H 0.73802 0.81868 0.45383 0.0
C553 C 0.76564 0.87712 0.45314 0.0
C554 C 0.14524 0.90854 0.45089 0.0
C555 C 0.12599 0.89651 0.49042 0.0
H556 H 0.1577 0.91777 0.35545 0.0
C557 C 0.10398 0.88722 0.46413 0.0
H558 H 0.16243 0.91629 0.47025 0.0
C559 C 0.10129 0.88811 0.39846 0.0
C560 C 0.12056 0.89861 0.3583 0.0
H561 H 0.08885 0.87815 0.49371 0.0
H562 H 0.08414 0.87931 0.37864 0.0
C563 C 0.14255 0.90977 0.38533 0.0
C564 C 0.74523 0.90576 0.93683 0.0
C565 C 0.75251 0.89421 0.9779 0.0
H566 H 0.74179 0.9138 0.8403 0.0
C567 C 0.76489 0.88432 0.95285 0.0
H568 H 0.73602 0.91391 0.95511 0.0
C569 C 0.76821 0.8843 0.8872 0.0
C570 C 0.75951 0.89444 0.84567 0.0
H571 H 0.77096 0.87558 -0.01645 0.0
H572 H 0.77642 0.87518 0.86863 0.0
C573 C 0.74888 0.90605 0.87122 0.0
C574 C 0.09698 0.8809 0.96488 0.0
C575 C 0.08783 0.85877 -0.00988 0.0
H576 H 0.10438 0.90116 0.88039 0.0
C577 C 0.07539 0.83972 0.95015 0.0
H578 H 0.10633 0.89588 -0.00514 0.0
C579 C 0.0737 0.84274 0.885 0.0
C580 C 0.0848 0.86486 0.85878 0.0
H581 H 0.06772 0.82244 0.96875 0.0
H582 H 0.06546 0.82774 0.8546 0.0
C583 C 0.09561 0.88393 0.89958 0.0
C584 C 0.14197 0.22861 0.88637 0.0
C585 C 0.11984 0.21809 0.86026 0.0
H586 H 0.16239 0.24195 0.97045 0.0
C587 C 0.10082 0.20975 0.90124 0.0
H588 H 0.15694 0.23541 0.85585 0.0
C589 C 0.10392 0.21352 0.9668 0.0
C590 C 0.12611 0.22598 -0.00784 0.0
H591 H 0.08357 0.20162 0.88217 0.0
H592 H 0.089 0.20783 -0.00297 0.0
C593 C 0.14509 0.23272 0.95182 0.0
C594 C 0.88617 0.77836 0.48905 0.0
C595 C 0.89548 0.76557 0.46329 0.0
H596 H 0.87845 0.79077 0.57408 0.0
C597 C 0.9079 0.7589 0.50295 0.0
H598 H 0.87682 0.78401 0.4593 0.0
C599 C 0.90942 0.76336 0.56827 0.0
C600 C 0.89815 0.77415 0.59495 0.0
H601 H 0.91569 0.74945 0.48394 0.0
H602 H 0.91766 0.75656 0.59836 0.0
C603 C 0.88734 0.78247 0.55453 0.0
C604 C 0.20454 0.10307 0.55863 0.0
C605 C 0.21303 0.12224 0.59914 0.0
H606 H 0.20278 0.09089 0.46333 0.0
C607 C 0.224 0.14429 0.57255 0.0
H608 H 0.19611 0.08588 0.57812 0.0
C609 C 0.22841 0.14716 0.5072 0.0
C610 C 0.22151 0.12801 0.46741 0.0
H611 H 0.23095 0.15936 0.60272 0.0
H612 H 0.23797 0.16439 0.48825 0.0
C613 C 0.2086 0.10594 0.49314 0.0
C614 C 0.8393 0.07675 0.56766 0.0
C615 C 0.86141 0.08832 0.59394 0.0
H616 H 0.81898 0.0696 0.4834 0.0
C617 C 0.88048 0.09891 0.55309 0.0
H618 H 0.82429 0.06866 0.59805 0.0
C619 C 0.87744 0.09946 0.48747 0.0
C620 C 0.85528 0.08976 0.46193 0.0
H621 H 0.89771 0.10801 0.57228 0.0
H622 H 0.8924 0.10861 0.45732 0.0
C623 C 0.83626 0.07766 0.50217 0.0
C624 C 0.87746 0.43315 0.32867 0.0
C625 C 0.8902 0.42372 0.30337 0.0
H626 H 0.86496 0.44105 0.41323 0.0
C627 C 0.89676 0.41132 0.34347 0.0
H628 H 0.87189 0.4425 0.29859 0.0
C629 C 0.89221 0.40991 0.40873 0.0
C630 C 0.88144 0.42128 0.43494 0.0
H631 H 0.90618 0.40344 0.32485 0.0
H632 H 0.89891 0.40166 0.43914 0.0
C633 C 0.87325 0.43209 0.39407 0.0
C634 C 0.55243 0.43863 0.33429 0.0
C635 C 0.56195 0.46074 0.30858 0.0
H636 H 0.54437 0.41851 0.41925 0.0
C637 C 0.5743 0.47983 0.34846 0.0
H638 H 0.54311 0.42362 0.3044 0.0
C639 C 0.57558 0.4769 0.41386 0.0
C640 C 0.56415 0.45484 0.4404 0.0
H641 H 0.58223 0.49708 0.32953 0.0
H642 H 0.58381 0.49196 0.44407 0.0
C643 C 0.55338 0.43571 0.39982 0.0
C644 C 0.50776 0.09537 0.40695 0.0
C645 C 0.5298 0.1062 0.4336 0.0
H646 H 0.48769 0.08195 0.32233 0.0
C647 C 0.54899 0.115 0.3931 0.0
H648 H 0.49267 0.08822 0.4371 0.0
C649 C 0.54615 0.11139 0.32743 0.0
C650 C 0.52408 0.09862 0.30151 0.0
H651 H 0.56618 0.12336 0.41261 0.0
H652 H 0.56121 0.11742 0.29756 0.0
C653 C 0.50491 0.09142 0.3414 0.0
C654 C 0.74292 0.56309 0.72309 0.0
C655 C 0.75464 0.55269 0.69686 0.0
H656 H 0.7355 0.5761 0.8074 0.0
C657 C 0.76524 0.54428 0.73775 0.0
H658 H 0.73482 0.56994 0.69264 0.0
C659 C 0.76567 0.54783 0.8034 0.0
C660 C 0.7558 0.56013 0.82896 0.0
H661 H 0.77445 0.53625 0.71859 0.0
H662 H 0.77483 0.54207 0.83358 0.0
C663 C 0.74368 0.56697 0.78864 0.0
C664 C 0.44034 0.21665 0.73061 0.0
C665 C 0.43185 0.19757 0.68976 0.0
H666 H 0.44236 0.22861 0.82628 0.0
C667 C 0.42109 0.17547 0.71602 0.0
H668 H 0.44863 0.23388 0.71141 0.0
C669 C 0.41694 0.17245 0.78147 0.0
C670 C 0.42386 0.1915 0.82169 0.0
H671 H 0.41415 0.16046 0.68559 0.0
H672 H 0.40755 0.15518 0.80021 0.0
C673 C 0.43652 0.21363 0.79617 0.0
C674 C 0.76922 0.22365 0.73039 0.0
C675 C 0.78829 0.23417 0.68951 0.0
H676 H 0.75724 0.21335 0.82583 0.0
C677 C 0.81041 0.2451 0.71568 0.0
H678 H 0.75197 0.21502 0.71125 0.0
C679 C 0.81343 0.24357 0.78093 0.0
C680 C 0.79436 0.23147 0.82105 0.0
H681 H 0.82541 0.2531 0.68523 0.0
H682 H 0.8307 0.25111 0.79952 0.0
C683 C 0.77223 0.22245 0.79577 0.0
C684 C 0.41684 0.24219 0.28194 0.0
C685 C 0.42377 0.2301 0.3221 0.0
H686 H 0.4141 0.25136 0.18612 0.0
C687 C 0.43645 0.22065 0.29654 0.0
H688 H 0.40743 0.25006 0.30071 0.0
C689 C 0.44031 0.22144 0.231 0.0
C690 C 0.43183 0.23199 0.19019 0.0
H691 H 0.44229 0.21153 0.32661 0.0
H692 H 0.44863 0.21252 0.21177 0.0
C693 C 0.42103 0.24331 0.2165 0.0
C694 C 0.74346 0.1746 0.28104 0.0
C695 C 0.7558 0.19374 0.32075 0.0
H696 H 0.73405 0.16234 0.18549 0.0
C697 C 0.76545 0.21582 0.29474 0.0
H698 H 0.73544 0.15738 0.30019 0.0
C699 C 0.76461 0.21864 0.22911 0.0
C700 C 0.75381 0.19945 0.18875 0.0
H701 H 0.77476 0.23087 0.32448 0.0
H702 H 0.77369 0.23581 0.20948 0.0
C703 C 0.74228 0.17744 0.21554 0.0
C704 C 0.77294 0.54802 0.30384 0.0
C705 C 0.79515 0.56071 0.32894 0.0
H706 H 0.75246 0.53589 0.21949 0.0
C707 C 0.81409 0.5677 0.28828 0.0
H708 H 0.75804 0.54214 0.33429 0.0
C709 C 0.8109 0.56358 0.22284 0.0
C710 C 0.78871 0.55277 0.19704 0.0
H711 H 0.83142 0.57711 0.30668 0.0
H712 H 0.82582 0.57054 0.19211 0.0
C713 C 0.76975 0.54423 0.23831 0.0
C714 C 0.5753 0.09272 0.84129 0.0
C715 C 0.56282 0.09924 0.80136 0.0
H716 H 0.58485 0.09033 0.93694 0.0
C717 C 0.55315 0.11171 0.82699 0.0
H718 H 0.58335 0.08349 0.82242 0.0
C719 C 0.55405 0.11566 0.89251 0.0
C720 C 0.56493 0.10748 0.93316 0.0
H721 H 0.54373 0.11724 0.79707 0.0
H722 H 0.54492 0.12374 0.91189 0.0
C723 C 0.57653 0.09701 0.90669 0.0
C724 C 0.89781 0.48107 0.84352 0.0
C725 C 0.89074 0.46193 0.80362 0.0
H726 H 0.90076 0.49328 0.93919 0.0
C727 C 0.87803 0.43985 0.82949 0.0
H728 H 0.90724 0.4983 0.82449 0.0
C729 C 0.87429 0.43699 0.8951 0.0
C730 C 0.8829 0.45616 0.93563 0.0
H731 H 0.87209 0.4248 0.79961 0.0
H732 H 0.86596 0.4198 0.91459 0.0
C733 C 0.89373 0.47821 0.90902 0.0
C734 C 0.54581 0.43212 0.83389 0.0
C735 C 0.52369 0.42284 0.80836 0.0
H736 H 0.566 0.43995 0.91867 0.0
C737 C 0.5046 0.41068 0.84836 0.0
H738 H 0.56081 0.44129 0.8039 0.0
C739 C 0.50757 0.40934 0.91372 0.0
C740 C 0.52966 0.42054 0.9401 0.0
H741 H 0.48734 0.40293 0.82957 0.0
H742 H 0.49254 0.40127 0.94403 0.0
C743 C 0.54877 0.43112 0.89938 0.0
C744 C 0.5327 0.76199 0.71869 0.0
C745 C 0.54079 0.75058 0.75758 0.0
H746 H 0.53213 0.77434 0.6251 0.0
C747 C 0.5519 0.73988 0.72939 0.0
H748 H 0.52417 0.77047 0.73949 0.0
C749 C 0.5571 0.74275 0.66452 0.0
C750 C 0.55082 0.75591 0.62675 0.0
H751 H 0.55852 0.73119 0.75831 0.0
H752 H 0.56687 0.73544 0.64452 0.0
C753 C 0.53754 0.76449 0.65354 0.0
C754 C 0.21733 0.77302 0.65913 0.0
C755 C 0.22658 0.79505 0.63302 0.0
H756 H 0.2094 0.75312 0.74446 0.0
C757 C 0.23851 0.81427 0.67271 0.0
H758 H 0.20833 0.75792 0.6294 0.0
C759 C 0.2397 0.81153 0.73825 0.0
C760 C 0.22859 0.78952 0.76509 0.0
H761 H 0.24623 0.83147 0.65349 0.0
H762 H 0.24763 0.82665 0.76827 0.0
C763 C 0.21817 0.77028 0.72478 0.0
C764 C 0.21362 0.44404 0.6522 0.0
C765 C 0.19149 0.43149 0.62651 0.0
H766 H 0.23376 0.45611 0.73717 0.0
C767 C 0.17242 0.42485 0.66637 0.0
H768 H 0.22861 0.44966 0.6223 0.0
C769 C 0.17537 0.42913 0.73175 0.0
C770 C 0.19743 0.43969 0.7583 0.0
H771 H 0.15516 0.41557 0.64743 0.0
H772 H 0.16032 0.42237 0.76194 0.0
C773 C 0.21657 0.44796 0.71773 0.0
C774 C 0.40935 0.89561 0.06824 0.0
C775 C 0.42083 0.88505 0.04149 0.0
H776 H 0.40236 0.90874 0.15299 0.0
C777 C 0.43139 0.87646 0.08189 0.0
H778 H 0.40129 0.9026 0.03815 0.0
C779 C 0.43204 0.87999 0.14757 0.0
C780 C 0.42244 0.89247 0.17362 0.0
H781 H 0.44042 0.8683 0.06228 0.0
H782 H 0.44117 0.8741 0.17738 0.0
C783 C 0.41034 0.89948 0.13381 0.0
C784 C 0.09076 0.50999 0.05022 0.0
C785 C 0.10155 0.5321 0.024 0.0
H786 H 0.07675 0.48964 0.13409 0.0
C787 C 0.10972 0.55115 0.06484 0.0
H788 H 0.08406 0.49499 0.0198 0.0
C789 C 0.10549 0.54809 0.13023 0.0
C790 C 0.09273 0.52593 0.15553 0.0
H791 H 0.11802 0.56838 0.04566 0.0
H792 H 0.11105 0.56304 0.16028 0.0
C793 C 0.08618 0.50692 0.11546 0.0
C794 C 0.43584 0.55499 0.07765 0.0
C795 C 0.45496 0.56567 0.03699 0.0
H796 H 0.42381 0.54478 0.1731 0.0
C797 C 0.47705 0.57698 0.06341 0.0
H798 H 0.41863 0.54609 0.05832 0.0
C799 C 0.48001 0.57566 0.12877 0.0
C800 C 0.46093 0.5634 0.16872 0.0
H801 H 0.49208 0.58513 0.03313 0.0
H802 H 0.49728 0.5835 0.1476 0.0
C803 C 0.43881 0.55401 0.14314 0.0
C804 C 0.08485 0.57539 0.61629 0.0
C805 C 0.09204 0.5634 0.65595 0.0
H806 H 0.08186 0.58465 0.52079 0.0
C807 C 0.10491 0.55423 0.62989 0.0
H808 H 0.0753 0.58304 0.63548 0.0
C809 C 0.10871 0.5552 0.56428 0.0
C810 C 0.09998 0.56566 0.52397 0.0
H811 H 0.11095 0.5452 0.65959 0.0
H812 H 0.11717 0.54649 0.54462 0.0
C813 C 0.08899 0.5767 0.5508 0.0
C814 C 0.41103 0.50621 0.62865 0.0
C815 C 0.42321 0.52534 0.66851 0.0
H816 H 0.40152 0.49404 0.53308 0.0
C817 C 0.4324 0.54743 0.64285 0.0
H818 H 0.40335 0.48897 0.64756 0.0
C819 C 0.4313 0.55031 0.57737 0.0
C820 C 0.42069 0.53116 0.5368 0.0
H821 H 0.44157 0.56246 0.67272 0.0
H822 H 0.44005 0.56751 0.55795 0.0
C823 C 0.40959 0.5091 0.5633 0.0
C824 C 0.43852 0.87957 0.64845 0.0
C825 C 0.46073 0.89227 0.67357 0.0
H826 H 0.41809 0.86728 0.56404 0.0
C827 C 0.47968 0.89898 0.63318 0.0
H828 H 0.42362 0.87389 0.67875 0.0
C829 C 0.47652 0.89463 0.56784 0.0
C830 C 0.45436 0.88391 0.54189 0.0
H831 H 0.497 0.90837 0.65165 0.0
H832 H 0.49147 0.90144 0.53724 0.0
C833 C 0.43537 0.87556 0.58299 0.0
C834 C 0.24261 0.42859 0.23156 0.0
C835 C 0.23151 0.43954 0.25833 0.0
H836 H 0.24874 0.41464 0.1471 0.0
C837 C 0.2209 0.44809 0.21799 0.0
H838 H 0.2507 0.42162 0.2616 0.0
C839 C 0.21974 0.44406 0.15247 0.0
C840 C 0.22886 0.43113 0.1266 0.0
H841 H 0.21216 0.45653 0.23762 0.0
H842 H 0.21054 0.4499 0.12277 0.0
C843 C 0.24109 0.42421 0.1662 0.0
C844 C 0.53832 0.76885 0.1539 0.0
C845 C 0.55192 0.79059 0.12683 0.0
H846 H 0.52489 0.74977 0.24009 0.0
C847 C 0.55892 0.81021 0.16464 0.0
H848 H 0.53239 0.75347 0.12548 0.0
C849 C 0.55398 0.80811 0.22969 0.0
C850 C 0.54241 0.78636 0.25797 0.0
H851 H 0.56896 0.82721 0.14448 0.0
H852 H 0.56107 0.82351 0.25856 0.0
C853 C 0.53375 0.76674 0.21919 0.0
C854 C 0.17333 0.74287 0.23818 0.0
C855 C 0.19551 0.75429 0.26405 0.0
H856 H 0.15277 0.7364 0.1547 0.0
C857 C 0.21446 0.76519 0.22292 0.0
H858 H 0.1584 0.73455 0.26881 0.0
C859 C 0.21125 0.7663 0.15762 0.0
C860 C 0.18902 0.75681 0.13271 0.0
H861 H 0.23174 0.77419 0.24181 0.0
H862 H 0.22613 0.77571 0.12735 0.0
C863 C 0.17011 0.74432 0.17303 0.0
C864 C 0.16509 0.18026 0.22876 0.0
C865 C 0.17722 0.20427 0.22522 0.0
H866 H 0.16686 0.14968 0.23705 0.0
C867 C 0.20127 0.21606 0.22767 0.0
H868 H 0.14654 0.17068 0.22675 0.0
C869 C 0.21299 0.20394 0.2336 0.0
C870 C 0.20078 0.1799 0.23684 0.0
H871 H 0.21103 0.23458 0.22483 0.0
H872 H 0.23154 0.21338 0.23566 0.0
C873 C 0.17675 0.1682 0.23436 0.0
C874 C 0.766 0.98143 0.21698 0.0
C875 C 0.77747 0.96889 0.21304 0.0
H876 H 0.7692 0.01454 0.22747 0.0
C877 C 0.80149 0.98048 0.21627 0.0
H878 H 0.74747 0.9729 0.21442 0.0
C879 C 0.81385 0.00417 0.2232 0.0
C880 C 0.80246 0.01676 0.22732 0.0
H881 H 0.81083 0.97129 0.21311 0.0
H882 H 0.83238 0.01258 0.22569 0.0
C883 C 0.77841 0.00522 0.22421 0.0
C884 C 0.97934 0.77241 0.22935 0.0
C885 C 0.96772 0.78482 0.23251 0.0
H886 H 0.01182 0.77402 0.22094 0.0
C887 C 0.98027 0.80884 0.23018 0.0
H888 H 0.97005 0.75386 0.23129 0.0
C889 C 0.00401 0.82029 0.2249 0.0
C890 C 0.0157 0.80798 0.2215 0.0
H891 H 0.97181 0.81888 0.23282 0.0
H892 H 0.01315 0.83885 0.22304 0.0
C893 C 0.0032 0.78392 0.22371 0.0
C894 C 0.81484 0.80749 0.72546 0.0
C895 C 0.80389 0.7835 0.72884 0.0
H896 H 0.81108 0.8369 0.7155 0.0
C897 C 0.77988 0.77054 0.72467 0.0
H898 H 0.83331 0.81795 0.7288 0.0
C899 C 0.76706 0.78146 0.717 0.0
C900 C 0.7781 0.80548 0.71371 0.0
H901 H 0.77101 0.75201 0.72734 0.0
H902 H 0.74858 0.77113 0.71353 0.0
C903 C 0.80208 0.81836 0.71811 0.0
C904 C 0.2124 0.00567 0.73223 0.0
C905 C 0.20036 0.01768 0.7347 0.0
H906 H 0.21016 0.97292 0.72398 0.0
C907 C 0.17634 0.00551 0.73105 0.0
H908 H 0.23093 0.01465 0.73516 0.0
C909 C 0.16453 0.98179 0.72524 0.0
C910 C 0.17648 0.96972 0.72265 0.0
H911 H 0.16657 0.01429 0.73308 0.0
H912 H 0.146 0.97295 0.72241 0.0
C913 C 0.20053 0.98183 0.7261 0.0
C914 C 0.97859 0.20445 0.73107 0.0
C915 C 0.9666 0.18039 0.73336 0.0
H916 H 0.01137 0.23503 0.72404 0.0
C917 C 0.97883 0.1686 0.73096 0.0
H918 H 0.96956 0.21396 0.73311 0.0
C919 C 0.0026 0.18058 0.72641 0.0
C920 C 0.01464 0.20461 0.72383 0.0
H921 H 0.97008 0.15006 0.73296 0.0
H922 H 0.01149 0.17093 0.72443 0.0
C923 C 0.00248 0.21649 0.72618 0.0
C924 C 0.87001 0.55019 0.56426 0.0
C925 C 0.84595 0.53854 0.56229 0.0
H926 H 0.90016 0.54728 0.57164 0.0
C927 C 0.8337 0.51453 0.56618 0.0
H928 H 0.87986 0.56871 0.56114 0.0
C929 C 0.84523 0.50235 0.5716 0.0
C930 C 0.86927 0.51391 0.57354 0.0
H931 H 0.81514 0.50506 0.56456 0.0
H932 H 0.83525 0.48383 0.57455 0.0
C933 C 0.8816 0.53795 0.57 0.0
C934 C 0.43476 0.31533 0.56183 0.0
C935 C 0.44636 0.30291 0.55787 0.0
H936 H 0.43777 0.34833 0.57288 0.0
C937 C 0.47037 0.3146 0.56171 0.0
H938 H 0.41624 0.30671 0.55881 0.0
C939 C 0.48261 0.33825 0.5692 0.0
C940 C 0.47109 0.35073 0.57332 0.0
H941 H 0.47981 0.30551 0.55857 0.0
H942 H 0.50112 0.34673 0.57212 0.0
C943 C 0.44706 0.3391 0.56964 0.0
C944 C 0.64674 0.10719 0.56391 0.0
C945 C 0.63476 0.11926 0.56657 0.0
H946 H 0.67944 0.10936 0.55501 0.0
C947 C 0.64693 0.14325 0.56235 0.0
H948 H 0.63775 0.08867 0.56725 0.0
C949 C 0.67064 0.15502 0.55593 0.0
C950 C 0.68268 0.14304 0.55329 0.0
H951 H 0.63818 0.15304 0.56448 0.0
H952 H 0.6795 0.17355 0.55275 0.0
C953 C 0.67056 0.11901 0.55717 0.0
C954 C 0.47091 0.15374 0.05754 0.0
C955 C 0.44688 0.1414 0.05442 0.0
H956 H 0.50171 0.1524 0.06624 0.0
C957 C 0.43532 0.11736 0.05771 0.0
H958 H 0.48032 0.17228 0.05483 0.0
C959 C 0.44766 0.10589 0.06428 0.0
C960 C 0.4717 0.11833 0.06734 0.0
H961 H 0.41679 0.10743 0.05518 0.0
H962 H 0.43839 0.08736 0.06712 0.0
C963 C 0.48318 0.14233 0.06378 0.0
C964 C 0.84593 0.33932 0.06562 0.0
C965 C 0.86993 0.35142 0.06943 0.0
H966 H 0.81556 0.30685 0.05578 0.0
C967 C 0.88194 0.33939 0.06605 0.0
H968 H 0.83618 0.3481 0.06834 0.0
C969 C 0.87004 0.31558 0.05878 0.0
C970 C 0.846 0.30355 0.05515 0.0
H971 H 0.90047 0.34833 0.06907 0.0
H972 H 0.87963 0.30665 0.05596 0.0
C973 C 0.83409 0.31564 0.05871 0.0
C974 C 0.67018 0.54912 0.06641 0.0
C975 C 0.68252 0.53743 0.06328 0.0
H976 H 0.63719 0.54629 0.07553 0.0
C977 C 0.6707 0.51341 0.06666 0.0
H978 H 0.6789 0.56765 0.0637 0.0
C979 C 0.64699 0.50126 0.07285 0.0
C980 C 0.63459 0.51288 0.07609 0.0
H981 H 0.67974 0.50391 0.06411 0.0
H982 H 0.6384 0.48274 0.07545 0.0
C983 C 0.64636 0.53692 0.07293 0.0
C984 C 0.53498 0.88105 0.90182 0.0
C985 C 0.51093 0.86998 0.90327 0.0
H986 H 0.56463 0.8771 0.90307 0.0
C987 C 0.4982 0.846 0.90757 0.0
H988 H 0.54519 0.89953 0.89829 0.0
C989 C 0.50921 0.83325 0.90957 0.0
C990 C 0.53322 0.84421 0.9077 0.0
H991 H 0.47963 0.83695 0.9086 0.0
H992 H 0.49884 0.81477 0.91277 0.0
C993 C 0.54607 0.86824 0.90421 0.0
C994 C 0.13772 0.64897 0.88922 0.0
C995 C 0.11368 0.63661 0.88743 0.0
H996 H 0.16795 0.68169 0.89658 0.0
C997 C 0.10147 0.64843 0.89166 0.0
H998 H 0.14761 0.64036 0.88574 0.0
C999 C 0.1132 0.67226 0.89791 0.0
C1000 C 0.13727 0.68456 0.89969 0.0
H1001 H 0.08292 0.63929 0.89017 0.0
H1002 H 0.10345 0.68102 0.90155 0.0
C1003 C 0.14939 0.67269 0.89512 0.0
C1004 C 0.31339 0.43887 0.89886 0.0
C1005 C 0.3016 0.45114 0.89993 0.0
H1006 H 0.34606 0.44074 0.8949 0.0
C1007 C 0.31406 0.47518 0.89832 0.0
H1008 H 0.30417 0.42032 0.90036 0.0
C1009 C 0.33786 0.48678 0.89591 0.0
C1010 C 0.34972 0.4746 0.8947 0.0
H1011 H 0.30546 0.48512 0.89942 0.0
H1012 H 0.34694 0.50534 0.89453 0.0
C1013 C 0.33732 0.45054 0.89609 0.0
C1014 C 0.10271 0.45082 0.38783 0.0
C1015 C 0.11441 0.47488 0.38548 0.0
H1016 H 0.10556 0.42064 0.39525 0.0
C1017 C 0.13844 0.48707 0.38827 0.0
H1018 H 0.08417 0.44101 0.38552 0.0
C1019 C 0.15059 0.4755 0.3932 0.0
C1020 C 0.13898 0.45148 0.39579 0.0
H1021 H 0.14795 0.50562 0.38625 0.0
H1022 H 0.16913 0.48545 0.39544 0.0
C1023 C 0.11492 0.43919 0.39312 0.0
C1024 C 0.53482 0.64928 0.39875 0.0
C1025 C 0.51076 0.63647 0.39787 0.0
H1026 H 0.56462 0.68274 0.40289 0.0
C1027 C 0.49816 0.64788 0.40043 0.0
H1028 H 0.54494 0.64088 0.39659 0.0
C1029 C 0.50934 0.67164 0.40333 0.0
C1030 C 0.53336 0.68452 0.40412 0.0
H1031 H 0.47959 0.63848 0.39957 0.0
H1032 H 0.49907 0.67989 0.40529 0.0
C1033 C 0.54606 0.67318 0.40204 0.0
C1034 C 0.33671 0.84616 0.40374 0.0
C1035 C 0.34885 0.87019 0.40181 0.0
H1036 H 0.30407 0.81568 0.40781 0.0
C1037 C 0.33673 0.88214 0.40272 0.0
H1038 H 0.34557 0.83646 0.4028 0.0
C1039 C 0.31281 0.87016 0.40553 0.0
C1040 C 0.30072 0.84609 0.40716 0.0
H1041 H 0.34569 0.90068 0.40099 0.0
H1042 H 0.30382 0.87971 0.4065 0.0
C1043 C 0.3129 0.83423 0.40623 0.0
C1044 C 0.31613 0.1402 0.18353 0.0
C1045 C 0.30422 0.15235 0.18735 0.0
H1046 H 0.34336 0.13745 0.14 0.0
C1047 C 0.31107 0.17152 0.14777 0.0
H1048 H 0.31117 0.12521 0.21279 0.0
C1049 C 0.32934 0.17836 0.10536 0.0
C1050 C 0.34126 0.16623 0.10158 0.0
H1051 H 0.30214 0.18114 0.14891 0.0
H1052 H 0.33429 0.19336 0.07612 0.0
C1053 C 0.33442 0.14705 0.14114 0.0
C1054 C 0.80568 0.14804 0.10247 0.0
C1055 C 0.81813 0.1721 0.09919 0.0
H1056 H 0.80242 0.11777 0.14512 0.0
C1057 C 0.83737 0.18415 0.13881 0.0
H1058 H 0.79063 0.13821 0.07316 0.0
C1059 C 0.84397 0.17243 0.18075 0.0
C1060 C 0.83152 0.14837 0.18401 0.0
H1061 H 0.84722 0.2027 0.13807 0.0
H1062 H 0.85902 0.18226 0.21004 0.0
C1063 C 0.81228 0.13632 0.14439 0.0
C1064 C 0.80079 0.65062 0.14406 0.0
C1065 C 0.81304 0.64358 0.10471 0.0
H1066 H 0.80236 0.67447 0.21409 0.0
C1067 C 0.83712 0.65577 0.10712 0.0
H1068 H 0.78222 0.64149 0.14392 0.0
C1069 C 0.84867 0.6745 0.14801 0.0
C1070 C 0.83642 0.68154 0.18739 0.0
H1071 H 0.84712 0.65069 0.07798 0.0
H1072 H 0.86723 0.6836 0.14814 0.0
C1073 C 0.81234 0.66938 0.18493 0.0
C1074 C 0.17846 0.33567 0.34781 0.0
C1075 C 0.16648 0.34777 0.35037 0.0
H1076 H 0.18078 0.30783 0.30677 0.0
C1077 C 0.14718 0.34064 0.31114 0.0
H1078 H 0.19354 0.34082 0.37684 0.0
C1079 C 0.14002 0.32189 0.27031 0.0
C1080 C 0.15197 0.30978 0.26779 0.0
H1081 H 0.13767 0.3497 0.31136 0.0
H1082 H 0.12493 0.31675 0.24129 0.0
C1083 C 0.17129 0.3169 0.30698 0.0
C1084 C 0.64605 0.84007 0.34148 0.0
C1085 C 0.63429 0.81603 0.346 0.0
H1086 H 0.67312 0.86995 0.29703 0.0
C1087 C 0.64114 0.80361 0.30668 0.0
H1088 H 0.64107 0.85017 0.37054 0.0
C1089 C 0.65928 0.81493 0.26385 0.0
C1090 C 0.6711 0.83896 0.25941 0.0
H1091 H 0.63233 0.78507 0.30833 0.0
H1092 H 0.66422 0.80479 0.23485 0.0
C1093 C 0.66425 0.85141 0.2987 0.0
C1094 C 0.182 0.8384 0.31207 0.0
C1095 C 0.16967 0.81923 0.35166 0.0
H1096 H 0.18057 0.86033 0.24091 0.0
C1097 C 0.14561 0.8071 0.34821 0.0
H1098 H 0.20056 0.848 0.31293 0.0
C1099 C 0.13414 0.81401 0.30626 0.0
C1100 C 0.14646 0.83323 0.26681 0.0
H1101 H 0.13556 0.7921 0.37747 0.0
H1102 H 0.11558 0.80443 0.30546 0.0
C1103 C 0.17053 0.84531 0.27012 0.0
C1104 C 0.65783 0.83851 0.75904 0.0
C1105 C 0.66987 0.82652 0.75494 0.0
H1106 H 0.63074 0.84123 0.80341 0.0
C1107 C 0.66314 0.80728 0.79422 0.0
H1108 H 0.66266 0.85352 0.72998 0.0
C1109 C 0.6449 0.80035 0.83696 0.0
C1110 C 0.63303 0.8125 0.84147 0.0
H1111 H 0.67216 0.79776 0.79274 0.0
H1112 H 0.64006 0.78537 0.8662 0.0
C1113 C 0.63968 0.83162 0.80185 0.0
C1114 C 0.14405 0.80314 0.81703 0.0
C1115 C 0.16328 0.81541 0.85652 0.0
H1116 H 0.12222 0.80466 0.74568 0.0
C1117 C 0.17546 0.83947 0.85316 0.0
H1118 H 0.13438 0.78459 0.81787 0.0
C1119 C 0.16865 0.85098 0.8111 0.0
C1120 C 0.14947 0.83872 0.77145 0.0
H1121 H 0.19049 0.84947 0.88239 0.0
H1122 H 0.17833 0.86954 0.81021 0.0
C1123 C 0.13723 0.81466 0.77497 0.0
C1124 C 0.14572 0.33567 0.84814 0.0
C1125 C 0.16981 0.34765 0.85034 0.0
H1126 H 0.1154 0.30793 0.80751 0.0
C1127 C 0.18186 0.34039 0.81089 0.0
H1128 H 0.13589 0.34092 0.87737 0.0
C1129 C 0.17011 0.32163 0.77019 0.0
C1130 C 0.14602 0.30964 0.76802 0.0
H1131 H 0.20042 0.34935 0.81084 0.0
H1132 H 0.17995 0.31638 0.74098 0.0
C1133 C 0.13397 0.3169 0.80745 0.0
C1134 C 0.84666 0.67024 0.68527 0.0
C1135 C 0.83444 0.6821 0.68761 0.0
H1136 H 0.84941 0.64261 0.64441 0.0
C1137 C 0.81516 0.67477 0.64815 0.0
H1138 H 0.86174 0.67556 0.71449 0.0
C1139 C 0.80827 0.65606 0.60732 0.0
C1140 C 0.82045 0.64418 0.60503 0.0
H1141 H 0.80546 0.68362 0.64818 0.0
H1142 H 0.79319 0.65077 0.57812 0.0
C1143 C 0.83975 0.6515 0.64445 0.0
C1144 C 0.31103 0.13659 0.6476 0.0
C1145 C 0.3041 0.14883 0.68743 0.0
H1146 H 0.33429 0.13814 0.57575 0.0
C1147 C 0.31591 0.17289 0.68388 0.0
H1148 H 0.30218 0.11804 0.64853 0.0
C1149 C 0.33418 0.18442 0.64148 0.0
C1150 C 0.3411 0.17218 0.60166 0.0
H1151 H 0.31089 0.18286 0.71333 0.0
H1152 H 0.34304 0.20298 0.64054 0.0
C1153 C 0.32928 0.14812 0.60519 0.0
C1154 C 0.81191 0.14218 0.68098 0.0
C1155 C 0.83597 0.15412 0.68447 0.0
H1156 H 0.78202 0.1398 0.63811 0.0
C1157 C 0.84844 0.17334 0.64512 0.0
H1158 H 0.80176 0.12716 0.71008 0.0
C1159 C 0.83712 0.18042 0.60319 0.0
C1160 C 0.81306 0.16848 0.59966 0.0
H1161 H 0.867 0.18281 0.64606 0.0
H1162 H 0.84727 0.19544 0.57408 0.0
C1163 C 0.80059 0.14927 0.63905 0.0
C1164 C 0.00241 0.48085 0.47438 0.0
C1165 C 0.00919 0.50005 0.43497 0.0
H1166 H 0.97931 0.45898 0.54626 0.0
C1167 C -0.00274 0.51217 0.43915 0.0
H1168 H 0.01136 0.47125 0.47292 0.0
C1169 C 0.97907 0.5053 0.48187 0.0
C1170 C 0.97232 0.48613 0.52138 0.0
H1171 H 0.00215 0.52718 0.41003 0.0
H1172 H 0.97014 0.51493 0.48336 0.0
C1173 C 0.9842 0.47398 0.51709 0.0
C1174 C 0.5053 0.51785 0.48653 0.0
C1175 C 0.48605 0.50567 0.44707 0.0
H1176 H 0.52719 0.51614 0.5574 0.0
C1177 C 0.47379 0.48161 0.45026 0.0
H1178 H 0.51501 0.53641 0.48583 0.0
C1179 C 0.48059 0.47 0.49195 0.0
C1180 C 0.49985 0.48216 0.5314 0.0
H1181 H 0.45873 0.47167 0.42108 0.0
H1182 H 0.47087 0.45144 0.49262 0.0
C1183 C 0.51213 0.50623 0.52822 0.0
C1184 C 0.51582 0.00694 0.49016 0.0
C1185 C 0.50368 0.01414 0.52945 0.0
H1186 H 0.51406 0.98272 0.42119 0.0
C1187 C 0.47959 0.00178 0.52816 0.0
H1188 H 0.53438 0.01618 0.48945 0.0
C1189 C 0.46792 0.98272 0.48839 0.0
C1190 C 0.48006 0.97555 0.449 0.0
H1191 H 0.46968 0.00696 0.55733 0.0
H1192 H 0.44935 0.97348 0.48905 0.0
C1193 C 0.50415 0.98789 0.45039 0.0
C1194 C 0.48139 0.0078 -0.01196 0.0
C1195 C 0.50072 0.0153 0.0274 0.0
H1196 H 0.45927 0.98343 0.919 0.0
C1197 C 0.51287 0.00336 0.02591 0.0
H1198 H 0.47175 0.01672 -0.01255 0.0
C1199 C 0.50583 0.98437 -0.01398 0.0
C1200 C 0.48648 0.97687 0.94672 0.0
H1201 H 0.52797 0.00879 0.05509 0.0
H1202 H 0.51544 0.97542 -0.01338 0.0
C1203 C 0.47437 0.98885 0.94814 0.0
C1204 C 0.98086 0.47002 -0.01459 0.0
C1205 C 0.97389 0.4823 0.02492 0.0
H1206 H 0.00404 0.47148 0.91338 0.0
C1207 C 0.98559 0.50635 0.0208 0.0
H1208 H 0.9721 0.45147 -0.01318 0.0
C1209 C 0.00373 0.51782 0.97802 0.0
C1210 C 0.01065 0.50553 0.93838 0.0
H1211 H 0.98054 0.51636 0.05 0.0
H1212 H 0.01248 0.53636 0.97656 0.0
C1213 C -0.00099 0.48149 0.94263 0.0
C1214 C 0.47958 0.47377 0.02862 0.0
C1215 C 0.50366 0.48577 0.03173 0.0
H1216 H 0.44957 0.4713 -0.01364 0.0
C1217 C 0.516 0.50501 -0.00761 0.0
H1218 H 0.46953 0.45873 0.05774 0.0
C1219 C 0.50455 0.51205 0.95081 0.0
C1220 C 0.48048 0.50005 0.94764 0.0
H1221 H 0.53456 0.51454 -0.00697 0.0
H1222 H 0.51462 0.52709 0.92167 0.0
C1223 C 0.46813 0.48082 -0.01296 0.0
loop_
_geom_bond_atom_site_label_1
_geom_bond_atom_site_label_2
_geom_bond_distance
_geom_bond_site_symmetry_2
_ccdc_geom_bond_type
C0 O1 1.306 . S
C0 O3 1.160 . S
O1 C0 1.306 . S
O1 Cd2 2.228 . S
Cd2 O1 2.228 . S
Cd2 O6 2.273 . S
Cd2 O10 2.277 . S
O3 C0 1.160 . S
O3 Cd4 2.203 . S
Cd4 O3 2.203 . S
Cd4 O6 2.411 . S
Cd4 O7 2.333 . S
Cd4 O8 2.352 . S
Cd4 O12 2.277 . S
Cd4 O13 2.356 . S
C5 O10 1.209 . S
C5 O12 1.226 . S
O6 Cd2 2.273 . S
O6 Cd4 2.411 . S
O6 C9 1.320 . S
O7 Cd4 2.333 . S
O7 C9 1.214 . S
O8 Cd4 2.352 . S
O8 C11 1.258 . S
C9 O6 1.320 . S
C9 O7 1.214 . S
O10 Cd2 2.277 . S
O10 C5 1.209 . S
C11 O8 1.258 . S
C11 O13 1.282 . S
O12 Cd4 2.277 . S
O12 C5 1.226 . S
O13 Cd4 2.356 . S
O13 C11 1.282 . S
C14 O15 1.306 . S
C14 O17 1.160 . S
O15 C14 1.306 . S
O15 Cd16 2.228 . S
Cd16 O15 2.228 . S
Cd16 O20 2.273 . S
Cd16 O24 2.277 . S
O17 C14 1.160 . S
O17 Cd18 2.203 . S
Cd18 O17 2.203 . S
Cd18 O20 2.411 . S
Cd18 O21 2.333 . S
Cd18 O22 2.352 . S
Cd18 O26 2.277 . S
Cd18 O27 2.356 . S
C19 O24 1.209 . S
C19 O26 1.226 . S
O20 Cd16 2.273 . S
O20 Cd18 2.411 . S
O20 C23 1.320 . S
O21 Cd18 2.333 . S
O21 C23 1.214 . S
O22 Cd18 2.352 . S
O22 C25 1.258 . S
C23 O20 1.320 . S
C23 O21 1.214 . S
O24 Cd16 2.277 . S
O24 C19 1.209 . S
C25 O22 1.258 . S
C25 O27 1.282 . S
O26 Cd18 2.277 . S
O26 C19 1.226 . S
O27 Cd18 2.356 . S
O27 C25 1.282 . S
C28 O29 1.306 . S
C28 O31 1.160 . S
O29 C28 1.306 . S
O29 Cd30 2.228 . S
Cd30 O29 2.228 . S
Cd30 O34 2.273 . S
Cd30 O38 2.277 . S
O31 C28 1.160 . S
O31 Cd32 2.203 . S
Cd32 O31 2.203 . S
Cd32 O34 2.411 . S
Cd32 O35 2.333 . S
Cd32 O36 2.352 . S
Cd32 O40 2.277 . S
Cd32 O41 2.356 . S
C33 O38 1.209 . S
C33 O40 1.226 . S
O34 Cd30 2.273 . S
O34 Cd32 2.411 . S
O34 C37 1.320 . S
O35 Cd32 2.333 . S
O35 C37 1.214 . S
O36 Cd32 2.352 . S
O36 C39 1.258 . S
C37 O34 1.320 . S
C37 O35 1.214 . S
O38 Cd30 2.277 . S
O38 C33 1.209 . S
C39 O36 1.258 . S
C39 O41 1.282 . S
O40 Cd32 2.277 . S
O40 C33 1.226 . S
O41 Cd32 2.356 . S
O41 C39 1.282 . S
C42 O43 1.306 . S
C42 O45 1.160 . S
O43 C42 1.306 . S
O43 Cd44 2.228 . S
Cd44 O43 2.228 . S
Cd44 O48 2.273 . S
Cd44 O52 2.277 . S
O45 C42 1.160 . S
O45 Cd46 2.203 . S
Cd46 O45 2.203 . S
Cd46 O48 2.411 . S
Cd46 O49 2.333 . S
Cd46 O50 2.352 . S
Cd46 O54 2.277 . S
Cd46 O55 2.356 . S
C47 O52 1.209 . S
C47 O54 1.226 . S
O48 Cd44 2.273 . S
O48 Cd46 2.411 . S
O48 C51 1.320 . S
O49 Cd46 2.333 . S
O49 C51 1.214 . S
O50 Cd46 2.352 . S
O50 C53 1.258 . S
C51 O48 1.320 . S
C51 O49 1.214 . S
O52 Cd44 2.277 . S
O52 C47 1.209 . S
C53 O50 1.258 . S
C53 O55 1.282 . S
O54 Cd46 2.277 . S
O54 C47 1.226 . S
O55 Cd46 2.356 . S
O55 C53 1.282 . S
C56 O57 1.306 . S
C56 O59 1.160 . S
O57 C56 1.306 . S
O57 Cd58 2.228 . S
Cd58 O57 2.228 . S
Cd58 O62 2.273 . S
Cd58 O66 2.277 . S
O59 C56 1.160 . S
O59 Cd60 2.203 . S
Cd60 O59 2.203 . S
Cd60 O62 2.411 . S
Cd60 O63 2.333 . S
Cd60 O64 2.352 . S
Cd60 O68 2.277 . S
Cd60 O69 2.356 . S
C61 O66 1.209 . S
C61 O68 1.226 . S
O62 Cd58 2.273 . S
O62 Cd60 2.411 . S
O62 C65 1.320 . S
O63 Cd60 2.333 . S
O63 C65 1.214 . S
O64 Cd60 2.352 . S
O64 C67 1.258 . S
C65 O62 1.320 . S
C65 O63 1.214 . S
O66 Cd58 2.277 . S
O66 C61 1.209 . S
C67 O64 1.258 . S
C67 O69 1.282 . S
O68 Cd60 2.277 . S
O68 C61 1.226 . S
O69 Cd60 2.356 . S
O69 C67 1.282 . S
C70 O71 1.306 . S
C70 O73 1.160 . S
O71 C70 1.306 . S
O71 Cd72 2.228 . S
Cd72 O71 2.228 . S
Cd72 O76 2.273 . S
Cd72 O80 2.277 . S
O73 C70 1.160 . S
O73 Cd74 2.203 . S
Cd74 O73 2.203 . S
Cd74 O76 2.411 . S
Cd74 O77 2.333 . S
Cd74 O78 2.352 . S
Cd74 O82 2.277 . S
Cd74 O83 2.356 . S
C75 O80 1.209 . S
C75 O82 1.226 . S
O76 Cd72 2.273 . S
O76 Cd74 2.411 . S
O76 C79 1.320 . S
O77 Cd74 2.333 . S
O77 C79 1.214 . S
O78 Cd74 2.352 . S
O78 C81 1.258 . S
C79 O76 1.320 . S
C79 O77 1.214 . S
O80 Cd72 2.277 . S
O80 C75 1.209 . S
C81 O78 1.258 . S
C81 O83 1.282 . S
O82 Cd74 2.277 . S
O82 C75 1.226 . S
O83 Cd74 2.356 . S
O83 C81 1.282 . S
C84 O85 1.306 . S
C84 O87 1.160 . S
O85 C84 1.306 . S
O85 Cd86 2.228 . S
Cd86 O85 2.228 . S
Cd86 O90 2.273 . S
Cd86 O94 2.277 . S
O87 C84 1.160 . S
O87 Cd88 2.203 . S
Cd88 O87 2.203 . S
Cd88 O90 2.411 . S
Cd88 O91 2.333 . S
Cd88 O92 2.352 . S
Cd88 O96 2.277 . S
Cd88 O97 2.356 . S
C89 O94 1.209 . S
C89 O96 1.226 . S
O90 Cd86 2.273 . S
O90 Cd88 2.411 . S
O90 C93 1.320 . S
O91 Cd88 2.333 . S
O91 C93 1.214 . S
O92 Cd88 2.352 . S
O92 C95 1.258 . S
C93 O90 1.320 . S
C93 O91 1.214 . S
O94 Cd86 2.277 . S
O94 C89 1.209 . S
C95 O92 1.258 . S
C95 O97 1.282 . S
O96 Cd88 2.277 . S
O96 C89 1.226 . S
O97 Cd88 2.356 . S
O97 C95 1.282 . S
C98 O99 1.306 . S
C98 O101 1.160 . S
O99 C98 1.306 . S
O99 Cd100 2.228 . S
Cd100 O99 2.228 . S
Cd100 O104 2.273 . S
Cd100 O108 2.277 . S
O101 C98 1.160 . S
O101 Cd102 2.203 . S
Cd102 O101 2.203 . S
Cd102 O104 2.411 . S
Cd102 O105 2.333 . S
Cd102 O106 2.352 . S
Cd102 O110 2.277 . S
Cd102 O111 2.356 . S
C103 O108 1.209 . S
C103 O110 1.226 . S
O104 Cd100 2.273 . S
O104 Cd102 2.411 . S
O104 C107 1.320 . S
O105 Cd102 2.333 . S
O105 C107 1.214 . S
O106 Cd102 2.352 . S
O106 C109 1.258 . S
C107 O104 1.320 . S
C107 O105 1.214 . S
O108 Cd100 2.277 . S
O108 C103 1.209 . S
C109 O106 1.258 . S
C109 O111 1.282 . S
O110 Cd102 2.277 . S
O110 C103 1.226 . S
O111 Cd102 2.356 . S
O111 C109 1.282 . S
C112 O113 1.306 . S
C112 O115 1.160 . S
O113 C112 1.306 . S
O113 Cd114 2.228 . S
Cd114 O113 2.228 . S
Cd114 O118 2.273 . S
Cd114 O122 2.277 . S
O115 C112 1.160 . S
O115 Cd116 2.203 . S
Cd116 O115 2.203 . S
Cd116 O118 2.411 . S
Cd116 O119 2.333 . S
Cd116 O120 2.352 . S
Cd116 O124 2.277 . S
Cd116 O125 2.356 . S
C117 O122 1.209 . S
C117 O124 1.226 . S
O118 Cd114 2.273 . S
O118 Cd116 2.411 . S
O118 C121 1.320 . S
O119 Cd116 2.333 . S
O119 C121 1.214 . S
O120 Cd116 2.352 . S
O120 C123 1.258 . S
C121 O118 1.320 . S
C121 O119 1.214 . S
O122 Cd114 2.277 . S
O122 C117 1.209 . S
C123 O120 1.258 . S
C123 O125 1.282 . S
O124 Cd116 2.277 . S
O124 C117 1.226 . S
O125 Cd116 2.356 . S
O125 C123 1.282 . S
C126 O127 1.306 . S
C126 O129 1.160 . S
O127 C126 1.306 . S
O127 Cd128 2.228 . S
Cd128 O127 2.228 . S
Cd128 O132 2.273 . S
Cd128 O136 2.277 . S
O129 C126 1.160 . S
O129 Cd130 2.203 . S
Cd130 O129 2.203 . S
Cd130 O132 2.411 . S
Cd130 O133 2.333 . S
Cd130 O134 2.352 . S
Cd130 O138 2.277 . S
Cd130 O139 2.356 . S
C131 O136 1.209 . S
C131 O138 1.226 . S
O132 Cd128 2.273 . S
O132 Cd130 2.411 . S
O132 C135 1.320 . S
O133 Cd130 2.333 . S
O133 C135 1.214 . S
O134 Cd130 2.352 . S
O134 C137 1.258 . S
C135 O132 1.320 . S
C135 O133 1.214 . S
O136 Cd128 2.277 . S
O136 C131 1.209 . S
C137 O134 1.258 . S
C137 O139 1.282 . S
O138 Cd130 2.277 . S
O138 C131 1.226 . S
O139 Cd130 2.356 . S
O139 C137 1.282 . S
C140 O141 1.306 . S
C140 O143 1.160 . S
O141 C140 1.306 . S
O141 Cd142 2.228 . S
Cd142 O141 2.228 . S
Cd142 O146 2.273 . S
Cd142 O150 2.277 . S
O143 C140 1.160 . S
O143 Cd144 2.203 . S
Cd144 O143 2.203 . S
Cd144 O146 2.411 . S
Cd144 O147 2.333 . S
Cd144 O148 2.352 . S
Cd144 O152 2.277 . S
Cd144 O153 2.356 . S
C145 O150 1.209 . S
C145 O152 1.226 . S
O146 Cd142 2.273 . S
O146 Cd144 2.411 . S
O146 C149 1.320 . S
O147 Cd144 2.333 . S
O147 C149 1.214 . S
O148 Cd144 2.352 . S
O148 C151 1.258 . S
C149 O146 1.320 . S
C149 O147 1.214 . S
O150 Cd142 2.277 . S
O150 C145 1.209 . S
C151 O148 1.258 . S
C151 O153 1.282 . S
O152 Cd144 2.277 . S
O152 C145 1.226 . S
O153 Cd144 2.356 . S
O153 C151 1.282 . S
C154 O155 1.306 . S
C154 O157 1.160 . S
O155 C154 1.306 . S
O155 Cd156 2.228 . S
Cd156 O155 2.228 . S
Cd156 O160 2.273 . S
Cd156 O164 2.277 . S
O157 C154 1.160 . S
O157 Cd158 2.203 . S
Cd158 O157 2.203 . S
Cd158 O160 2.411 . S
Cd158 O161 2.333 . S
Cd158 O162 2.352 . S
Cd158 O166 2.277 . S
Cd158 O167 2.356 . S
C159 O164 1.209 . S
C159 O166 1.226 . S
O160 Cd156 2.273 . S
O160 Cd158 2.411 . S
O160 C163 1.320 . S
O161 Cd158 2.333 . S
O161 C163 1.214 . S
O162 Cd158 2.352 . S
O162 C165 1.258 . S
C163 O160 1.320 . S
C163 O161 1.214 . S
O164 Cd156 2.277 . S
O164 C159 1.209 . S
C165 O162 1.258 . S
C165 O167 1.282 . S
O166 Cd158 2.277 . S
O166 C159 1.226 . S
O167 Cd158 2.356 . S
O167 C165 1.282 . S
C168 O169 1.306 . S
C168 O171 1.160 . S
O169 C168 1.306 . S
O169 Cd170 2.228 . S
Cd170 O169 2.228 . S
Cd170 O174 2.273 . S
Cd170 O178 2.277 . S
O171 C168 1.160 . S
O171 Cd172 2.203 . S
Cd172 O171 2.203 . S
Cd172 O174 2.411 . S
Cd172 O175 2.333 . S
Cd172 O176 2.352 . S
Cd172 O180 2.277 . S
Cd172 O181 2.356 . S
C173 O178 1.209 . S
C173 O180 1.226 . S
O174 Cd170 2.273 . S
O174 Cd172 2.411 . S
O174 C177 1.320 . S
O175 Cd172 2.333 . S
O175 C177 1.214 . S
O176 Cd172 2.352 . S
O176 C179 1.258 . S
C177 O174 1.320 . S
C177 O175 1.214 . S
O178 Cd170 2.277 . S
O178 C173 1.209 . S
C179 O176 1.258 . S
C179 O181 1.282 . S
O180 Cd172 2.277 . S
O180 C173 1.226 . S
O181 Cd172 2.356 . S
O181 C179 1.282 . S
C182 O183 1.306 . S
C182 O185 1.160 . S
O183 C182 1.306 . S
O183 Cd184 2.228 . S
Cd184 O183 2.228 . S
Cd184 O188 2.273 . S
Cd184 O192 2.277 . S
O185 C182 1.160 . S
O185 Cd186 2.203 . S
Cd186 O185 2.203 . S
Cd186 O188 2.411 . S
Cd186 O189 2.333 . S
Cd186 O190 2.352 . S
Cd186 O194 2.277 . S
Cd186 O195 2.356 . S
C187 O192 1.209 . S
C187 O194 1.226 . S
O188 Cd184 2.273 . S
O188 Cd186 2.411 . S
O188 C191 1.320 . S
O189 Cd186 2.333 . S
O189 C191 1.214 . S
O190 Cd186 2.352 . S
O190 C193 1.258 . S
C191 O188 1.320 . S
C191 O189 1.214 . S
O192 Cd184 2.277 . S
O192 C187 1.209 . S
C193 O190 1.258 . S
C193 O195 1.282 . S
O194 Cd186 2.277 . S
O194 C187 1.226 . S
O195 Cd186 2.356 . S
O195 C193 1.282 . S
C196 O197 1.306 . S
C196 O199 1.160 . S
O197 C196 1.306 . S
O197 Cd198 2.228 . S
Cd198 O197 2.228 . S
Cd198 O202 2.273 . S
Cd198 O206 2.277 . S
O199 C196 1.160 . S
O199 Cd200 2.203 . S
Cd200 O199 2.203 . S
Cd200 O202 2.411 . S
Cd200 O203 2.333 . S
Cd200 O204 2.352 . S
Cd200 O208 2.277 . S
Cd200 O209 2.356 . S
C201 O206 1.209 . S
C201 O208 1.226 . S
O202 Cd198 2.273 . S
O202 Cd200 2.411 . S
O202 C205 1.320 . S
O203 Cd200 2.333 . S
O203 C205 1.214 . S
O204 Cd200 2.352 . S
O204 C207 1.258 . S
C205 O202 1.320 . S
C205 O203 1.214 . S
O206 Cd198 2.277 . S
O206 C201 1.209 . S
C207 O204 1.258 . S
C207 O209 1.282 . S
O208 Cd200 2.277 . S
O208 C201 1.226 . S
O209 Cd200 2.356 . S
O209 C207 1.282 . S
C210 O211 1.306 . S
C210 O213 1.160 . S
O211 C210 1.306 . S
O211 Cd212 2.228 . S
Cd212 O211 2.228 . S
Cd212 O216 2.273 . S
Cd212 O220 2.277 . S
O213 C210 1.160 . S
O213 Cd214 2.203 . S
Cd214 O213 2.203 . S
Cd214 O216 2.411 . S
Cd214 O217 2.333 . S
Cd214 O218 2.352 . S
Cd214 O222 2.277 . S
Cd214 O223 2.356 . S
C215 O220 1.209 . S
C215 O222 1.226 . S
O216 Cd212 2.273 . S
O216 Cd214 2.411 . S
O216 C219 1.320 . S
O217 Cd214 2.333 . S
O217 C219 1.214 . S
O218 Cd214 2.352 . S
O218 C221 1.258 . S
C219 O216 1.320 . S
C219 O217 1.214 . S
O220 Cd212 2.277 . S
O220 C215 1.209 . S
C221 O218 1.258 . S
C221 O223 1.282 . S
O222 Cd214 2.277 . S
O222 C215 1.226 . S
O223 Cd214 2.356 . S
O223 C221 1.282 . S
C224 O225 1.306 . S
C224 O227 1.160 . S
O225 C224 1.306 . S
O225 Cd226 2.228 . S
Cd226 O225 2.228 . S
Cd226 O230 2.273 . S
Cd226 O234 2.277 . S
O227 C224 1.160 . S
O227 Cd228 2.203 . S
Cd228 O227 2.203 . S
Cd228 O230 2.411 . S
Cd228 O231 2.333 . S
Cd228 O232 2.352 . S
Cd228 O236 2.277 . S
Cd228 O237 2.356 . S
C229 O234 1.209 . S
C229 O236 1.226 . S
O230 Cd226 2.273 . S
O230 Cd228 2.411 . S
O230 C233 1.320 . S
O231 Cd228 2.333 . S
O231 C233 1.214 . S
O232 Cd228 2.352 . S
O232 C235 1.258 . S
C233 O230 1.320 . S
C233 O231 1.214 . S
O234 Cd226 2.277 . S
O234 C229 1.209 . S
C235 O232 1.258 . S
C235 O237 1.282 . S
O236 Cd228 2.277 . S
O236 C229 1.226 . S
O237 Cd228 2.356 . S
O237 C235 1.282 . S
C238 O239 1.306 . S
C238 O241 1.160 . S
O239 C238 1.306 . S
O239 Cd240 2.228 . S
Cd240 O239 2.228 . S
Cd240 O244 2.273 . S
Cd240 O248 2.277 . S
O241 C238 1.160 . S
O241 Cd242 2.203 . S
Cd242 O241 2.203 . S
Cd242 O244 2.411 . S
Cd242 O245 2.333 . S
Cd242 O246 2.352 . S
Cd242 O250 2.277 . S
Cd242 O251 2.356 . S
C243 O248 1.209 . S
C243 O250 1.226 . S
O244 Cd240 2.273 . S
O244 Cd242 2.411 . S
O244 C247 1.320 . S
O245 Cd242 2.333 . S
O245 C247 1.214 . S
O246 Cd242 2.352 . S
O246 C249 1.258 . S
C247 O244 1.320 . S
C247 O245 1.214 . S
O248 Cd240 2.277 . S
O248 C243 1.209 . S
C249 O246 1.258 . S
C249 O251 1.282 . S
O250 Cd242 2.277 . S
O250 C243 1.226 . S
O251 Cd242 2.356 . S
O251 C249 1.282 . S
C252 O253 1.306 . S
C252 O255 1.160 . S
O253 C252 1.306 . S
O253 Cd254 2.228 . S
Cd254 O253 2.228 . S
Cd254 O258 2.273 . S
Cd254 O262 2.277 . S
O255 C252 1.160 . S
O255 Cd256 2.203 . S
Cd256 O255 2.203 . S
Cd256 O258 2.411 . S
Cd256 O259 2.333 . S
Cd256 O260 2.352 . S
Cd256 O264 2.277 . S
Cd256 O265 2.356 . S
C257 O262 1.209 . S
C257 O264 1.226 . S
O258 Cd254 2.273 . S
O258 Cd256 2.411 . S
O258 C261 1.320 . S
O259 Cd256 2.333 . S
O259 C261 1.214 . S
O260 Cd256 2.352 . S
O260 C263 1.258 . S
C261 O258 1.320 . S
C261 O259 1.214 . S
O262 Cd254 2.277 . S
O262 C257 1.209 . S
C263 O260 1.258 . S
C263 O265 1.282 . S
O264 Cd256 2.277 . S
O264 C257 1.226 . S
O265 Cd256 2.356 . S
O265 C263 1.282 . S
C266 O267 1.306 . S
C266 O269 1.160 . S
O267 C266 1.306 . S
O267 Cd268 2.228 . S
Cd268 O267 2.228 . S
Cd268 O272 2.273 . S
Cd268 O276 2.277 . S
O269 C266 1.160 . S
O269 Cd270 2.203 . S
Cd270 O269 2.203 . S
Cd270 O272 2.411 . S
Cd270 O273 2.333 . S
Cd270 O274 2.352 . S
Cd270 O278 2.277 . S
Cd270 O279 2.356 . S
C271 O276 1.209 . S
C271 O278 1.226 . S
O272 Cd268 2.273 . S
O272 Cd270 2.411 . S
O272 C275 1.320 . S
O273 Cd270 2.333 . S
O273 C275 1.214 . S
O274 Cd270 2.352 . S
O274 C277 1.258 . S
C275 O272 1.320 . S
C275 O273 1.214 . S
O276 Cd268 2.277 . S
O276 C271 1.209 . S
C277 O274 1.258 . S
C277 O279 1.282 . S
O278 Cd270 2.277 . S
O278 C271 1.226 . S
O279 Cd270 2.356 . S
O279 C277 1.282 . S
C280 O281 1.306 . S
C280 O283 1.160 . S
O281 C280 1.306 . S
O281 Cd282 2.228 . S
Cd282 O281 2.228 . S
Cd282 O286 2.273 . S
Cd282 O290 2.277 . S
O283 C280 1.160 . S
O283 Cd284 2.203 . S
Cd284 O283 2.203 . S
Cd284 O286 2.411 . S
Cd284 O287 2.333 . S
Cd284 O288 2.352 . S
Cd284 O292 2.277 . S
Cd284 O293 2.356 . S
C285 O290 1.209 . S
C285 O292 1.226 . S
O286 Cd282 2.273 . S
O286 Cd284 2.411 . S
O286 C289 1.320 . S
O287 Cd284 2.333 . S
O287 C289 1.214 . S
O288 Cd284 2.352 . S
O288 C291 1.258 . S
C289 O286 1.320 . S
C289 O287 1.214 . S
O290 Cd282 2.277 . S
O290 C285 1.209 . S
C291 O288 1.258 . S
C291 O293 1.282 . S
O292 Cd284 2.277 . S
O292 C285 1.226 . S
O293 Cd284 2.356 . S
O293 C291 1.282 . S
C294 O295 1.306 . S
C294 O297 1.160 . S
O295 C294 1.306 . S
O295 Cd296 2.228 1_556 S
Cd296 O295 2.228 1_554 S
Cd296 O300 2.273 . S
Cd296 O304 2.277 . S
O297 C294 1.160 . S
O297 Cd298 2.203 1_556 S
Cd298 O297 2.203 1_554 S
Cd298 O300 2.411 . S
Cd298 O301 2.333 . S
Cd298 O302 2.352 . S
Cd298 O306 2.277 . S
Cd298 O307 2.356 . S
C299 O304 1.209 . S
C299 O306 1.226 . S
O300 Cd296 2.273 . S
O300 Cd298 2.411 . S
O300 C303 1.320 . S
O301 Cd298 2.333 . S
O301 C303 1.214 . S
O302 Cd298 2.352 . S
O302 C305 1.258 . S
C303 O300 1.320 . S
C303 O301 1.214 . S
O304 Cd296 2.277 . S
O304 C299 1.209 . S
C305 O302 1.258 . S
C305 O307 1.282 . S
O306 Cd298 2.277 . S
O306 C299 1.226 . S
O307 Cd298 2.356 . S
O307 C305 1.282 . S
C308 O309 1.306 . S
C308 O311 1.160 . S
O309 C308 1.306 . S
O309 Cd310 2.228 1_556 S
Cd310 O309 2.228 1_554 S
Cd310 O314 2.273 . S
Cd310 O318 2.277 . S
O311 C308 1.160 . S
O311 Cd312 2.203 1_556 S
Cd312 O311 2.203 1_554 S
Cd312 O314 2.411 . S
Cd312 O315 2.333 . S
Cd312 O316 2.352 . S
Cd312 O320 2.277 . S
Cd312 O321 2.356 . S
C313 O318 1.209 . S
C313 O320 1.226 . S
O314 Cd310 2.273 . S
O314 Cd312 2.411 . S
O314 C317 1.320 . S
O315 Cd312 2.333 . S
O315 C317 1.214 . S
O316 Cd312 2.352 . S
O316 C319 1.258 . S
C317 O314 1.320 . S
C317 O315 1.214 . S
O318 Cd310 2.277 . S
O318 C313 1.209 . S
C319 O316 1.258 . S
C319 O321 1.282 . S
O320 Cd312 2.277 . S
O320 C313 1.226 . S
O321 Cd312 2.356 . S
O321 C319 1.282 . S
C322 O323 1.306 . S
C322 O325 1.160 . S
O323 C322 1.306 . S
O323 Cd324 2.228 1_556 S
Cd324 O323 2.228 1_554 S
Cd324 O328 2.273 . S
Cd324 O332 2.277 . S
O325 C322 1.160 . S
O325 Cd326 2.203 1_556 S
Cd326 O325 2.203 1_554 S
Cd326 O328 2.411 . S
Cd326 O329 2.333 . S
Cd326 O330 2.352 . S
Cd326 O334 2.277 . S
Cd326 O335 2.356 . S
C327 O332 1.209 . S
C327 O334 1.226 . S
O328 Cd324 2.273 . S
O328 Cd326 2.411 . S
O328 C331 1.320 . S
O329 Cd326 2.333 . S
O329 C331 1.214 . S
O330 Cd326 2.352 . S
O330 C333 1.258 . S
C331 O328 1.320 . S
C331 O329 1.214 . S
O332 Cd324 2.277 . S
O332 C327 1.209 . S
C333 O330 1.258 . S
C333 O335 1.282 . S
O334 Cd326 2.277 . S
O334 C327 1.226 . S
O335 Cd326 2.356 . S
O335 C333 1.282 . S
C336 O337 1.306 . S
C336 O339 1.160 . S
O337 C336 1.306 . S
O337 Cd338 2.228 . S
Cd338 O337 2.228 . S
Cd338 O342 2.273 . S
Cd338 O346 2.277 . S
O339 C336 1.160 . S
O339 Cd340 2.203 . S
Cd340 O339 2.203 . S
Cd340 O342 2.411 . S
Cd340 O343 2.333 . S
Cd340 O344 2.352 . S
Cd340 O348 2.277 . S
Cd340 O349 2.356 . S
C341 O346 1.209 . S
C341 O348 1.226 . S
O342 Cd338 2.273 . S
O342 Cd340 2.411 . S
O342 C345 1.320 . S
O343 Cd340 2.333 . S
O343 C345 1.214 . S
O344 Cd340 2.352 . S
O344 C347 1.258 . S
C345 O342 1.320 . S
C345 O343 1.214 . S
O346 Cd338 2.277 . S
O346 C341 1.209 . S
C347 O344 1.258 . S
C347 O349 1.282 . S
O348 Cd340 2.277 . S
O348 C341 1.226 . S
O349 Cd340 2.356 . S
O349 C347 1.282 . S
C350 O351 1.306 . S
C350 O353 1.160 . S
O351 C350 1.306 . S
O351 Cd352 2.228 . S
Cd352 O351 2.228 . S
Cd352 O356 2.273 . S
Cd352 O360 2.277 . S
O353 C350 1.160 . S
O353 Cd354 2.203 . S
Cd354 O353 2.203 . S
Cd354 O356 2.411 . S
Cd354 O357 2.333 . S
Cd354 O358 2.352 . S
Cd354 O362 2.277 . S
Cd354 O363 2.356 . S
C355 O360 1.209 . S
C355 O362 1.226 . S
O356 Cd352 2.273 . S
O356 Cd354 2.411 . S
O356 C359 1.320 . S
O357 Cd354 2.333 . S
O357 C359 1.214 . S
O358 Cd354 2.352 . S
O358 C361 1.258 . S
C359 O356 1.320 . S
C359 O357 1.214 . S
O360 Cd352 2.277 . S
O360 C355 1.209 . S
C361 O358 1.258 . S
C361 O363 1.282 . S
O362 Cd354 2.277 . S
O362 C355 1.226 . S
O363 Cd354 2.356 . S
O363 C361 1.282 . S
C364 O365 1.306 . S
C364 O367 1.160 . S
O365 C364 1.306 . S
O365 Cd366 2.228 . S
Cd366 O365 2.228 . S
Cd366 O370 2.273 . S
Cd366 O374 2.277 . S
O367 C364 1.160 . S
O367 Cd368 2.203 . S
Cd368 O367 2.203 . S
Cd368 O370 2.411 . S
Cd368 O371 2.333 . S
Cd368 O372 2.352 . S
Cd368 O376 2.277 . S
Cd368 O377 2.356 . S
C369 O374 1.209 . S
C369 O376 1.226 . S
O370 Cd366 2.273 . S
O370 Cd368 2.411 . S
O370 C373 1.320 . S
O371 Cd368 2.333 . S
O371 C373 1.214 . S
O372 Cd368 2.352 . S
O372 C375 1.258 . S
C373 O370 1.320 . S
C373 O371 1.214 . S
O374 Cd366 2.277 . S
O374 C369 1.209 . S
C375 O372 1.258 . S
C375 O377 1.282 . S
O376 Cd368 2.277 . S
O376 C369 1.226 . S
O377 Cd368 2.356 . S
O377 C375 1.282 . S
C378 O379 1.306 . S
C378 O381 1.160 . S
O379 C378 1.306 . S
O379 Cd380 2.228 1_554 S
Cd380 O379 2.228 1_556 S
Cd380 O384 2.273 . S
Cd380 O388 2.277 . S
O381 C378 1.160 . S
O381 Cd382 2.203 1_554 S
Cd382 O381 2.203 1_556 S
Cd382 O384 2.411 . S
Cd382 O385 2.333 . S
Cd382 O386 2.352 . S
Cd382 O390 2.277 . S
Cd382 O391 2.356 . S
C383 O388 1.209 . S
C383 O390 1.226 . S
O384 Cd380 2.273 . S
O384 Cd382 2.411 . S
O384 C387 1.320 . S
O385 Cd382 2.333 . S
O385 C387 1.214 . S
O386 Cd382 2.352 . S
O386 C389 1.258 . S
C387 O384 1.320 . S
C387 O385 1.214 . S
O388 Cd380 2.277 . S
O388 C383 1.209 . S
C389 O386 1.258 . S
C389 O391 1.282 . S
O390 Cd382 2.277 . S
O390 C383 1.226 . S
O391 Cd382 2.356 . S
O391 C389 1.282 . S
C392 O393 1.306 . S
C392 O395 1.160 . S
O393 C392 1.306 . S
O393 Cd394 2.228 1_554 S
Cd394 O393 2.228 1_556 S
Cd394 O398 2.273 . S
Cd394 O402 2.277 . S
O395 C392 1.160 . S
O395 Cd396 2.203 1_554 S
Cd396 O395 2.203 1_556 S
Cd396 O398 2.411 . S
Cd396 O399 2.333 . S
Cd396 O400 2.352 . S
Cd396 O404 2.277 . S
Cd396 O405 2.356 . S
C397 O402 1.209 . S
C397 O404 1.226 . S
O398 Cd394 2.273 . S
O398 Cd396 2.411 . S
O398 C401 1.320 . S
O399 Cd396 2.333 . S
O399 C401 1.214 . S
O400 Cd396 2.352 . S
O400 C403 1.258 . S
C401 O398 1.320 . S
C401 O399 1.214 . S
O402 Cd394 2.277 . S
O402 C397 1.209 . S
C403 O400 1.258 . S
C403 O405 1.282 . S
O404 Cd396 2.277 . S
O404 C397 1.226 . S
O405 Cd396 2.356 . S
O405 C403 1.282 . S
C406 O407 1.306 . S
C406 O409 1.160 . S
O407 C406 1.306 . S
O407 Cd408 2.228 1_554 S
Cd408 O407 2.228 1_556 S
Cd408 O412 2.273 . S
Cd408 O416 2.277 . S
O409 C406 1.160 . S
O409 Cd410 2.203 1_554 S
Cd410 O409 2.203 1_556 S
Cd410 O412 2.411 . S
Cd410 O413 2.333 . S
Cd410 O414 2.352 . S
Cd410 O418 2.277 . S
Cd410 O419 2.356 . S
C411 O416 1.209 . S
C411 O418 1.226 . S
O412 Cd408 2.273 . S
O412 Cd410 2.411 . S
O412 C415 1.320 . S
O413 Cd410 2.333 . S
O413 C415 1.214 . S
O414 Cd410 2.352 . S
O414 C417 1.258 . S
C415 O412 1.320 . S
C415 O413 1.214 . S
O416 Cd408 2.277 . S
O416 C411 1.209 . S
C417 O414 1.258 . S
C417 O419 1.282 . S
O418 Cd410 2.277 . S
O418 C411 1.226 . S
O419 Cd410 2.356 . S
O419 C417 1.282 . S
C420 O421 1.306 . S
C420 O423 1.160 . S
O421 C420 1.306 . S
O421 Cd422 2.228 . S
Cd422 O421 2.228 . S
Cd422 O426 2.273 . S
Cd422 O430 2.277 . S
O423 C420 1.160 . S
O423 Cd424 2.203 . S
Cd424 O423 2.203 . S
Cd424 O426 2.411 . S
Cd424 O427 2.333 . S
Cd424 O428 2.352 . S
Cd424 O432 2.277 . S
Cd424 O433 2.356 . S
C425 O430 1.209 . S
C425 O432 1.226 . S
O426 Cd422 2.273 . S
O426 Cd424 2.411 . S
O426 C429 1.320 . S
O427 Cd424 2.333 . S
O427 C429 1.214 . S
O428 Cd424 2.352 . S
O428 C431 1.258 . S
C429 O426 1.320 . S
C429 O427 1.214 . S
O430 Cd422 2.277 . S
O430 C425 1.209 . S
C431 O428 1.258 . S
C431 O433 1.282 . S
O432 Cd424 2.277 . S
O432 C425 1.226 . S
O433 Cd424 2.356 . S
O433 C431 1.282 . S
C434 O435 1.306 . S
C434 O437 1.160 . S
O435 C434 1.306 . S
O435 Cd436 2.228 . S
Cd436 O435 2.228 . S
Cd436 O440 2.273 . S
Cd436 O444 2.277 . S
O437 C434 1.160 . S
O437 Cd438 2.203 . S
Cd438 O437 2.203 . S
Cd438 O440 2.411 . S
Cd438 O441 2.333 . S
Cd438 O442 2.352 . S
Cd438 O446 2.277 . S
Cd438 O447 2.356 . S
C439 O444 1.209 . S
C439 O446 1.226 . S
O440 Cd436 2.273 . S
O440 Cd438 2.411 . S
O440 C443 1.320 . S
O441 Cd438 2.333 . S
O441 C443 1.214 . S
O442 Cd438 2.352 . S
O442 C445 1.258 . S
C443 O440 1.320 . S
C443 O441 1.214 . S
O444 Cd436 2.277 . S
O444 C439 1.209 . S
C445 O442 1.258 . S
C445 O447 1.282 . S
O446 Cd438 2.277 . S
O446 C439 1.226 . S
O447 Cd438 2.356 . S
O447 C445 1.282 . S
C448 O449 1.306 . S
C448 O451 1.160 . S
O449 C448 1.306 . S
O449 Cd450 2.228 . S
Cd450 O449 2.228 . S
Cd450 O454 2.273 . S
Cd450 O458 2.277 . S
O451 C448 1.160 . S
O451 Cd452 2.203 . S
Cd452 O451 2.203 . S
Cd452 O454 2.411 . S
Cd452 O455 2.333 . S
Cd452 O456 2.352 . S
Cd452 O460 2.277 . S
Cd452 O461 2.356 . S
C453 O458 1.209 . S
C453 O460 1.226 . S
O454 Cd450 2.273 . S
O454 Cd452 2.411 . S
O454 C457 1.320 . S
O455 Cd452 2.333 . S
O455 C457 1.214 . S
O456 Cd452 2.352 . S
O456 C459 1.258 . S
C457 O454 1.320 . S
C457 O455 1.214 . S
O458 Cd450 2.277 . S
O458 C453 1.209 . S
C459 O456 1.258 . S
C459 O461 1.282 . S
O460 Cd452 2.277 . S
O460 C453 1.226 . S
O461 Cd452 2.356 . S
O461 C459 1.282 . S
C462 O463 1.306 . S
C462 O465 1.160 . S
O463 C462 1.306 . S
O463 Cd464 2.228 . S
Cd464 O463 2.228 . S
Cd464 O468 2.273 . S
Cd464 O472 2.277 . S
O465 C462 1.160 . S
O465 Cd466 2.203 . S
Cd466 O465 2.203 . S
Cd466 O468 2.411 . S
Cd466 O469 2.333 . S
Cd466 O470 2.352 . S
Cd466 O474 2.277 . S
Cd466 O475 2.356 . S
C467 O472 1.209 . S
C467 O474 1.226 . S
O468 Cd464 2.273 . S
O468 Cd466 2.411 . S
O468 C471 1.320 . S
O469 Cd466 2.333 . S
O469 C471 1.214 . S
O470 Cd466 2.352 . S
O470 C473 1.258 . S
C471 O468 1.320 . S
C471 O469 1.214 . S
O472 Cd464 2.277 . S
O472 C467 1.209 . S
C473 O470 1.258 . S
C473 O475 1.282 . S
O474 Cd466 2.277 . S
O474 C467 1.226 . S
O475 Cd466 2.356 . S
O475 C473 1.282 . S
C476 O477 1.306 . S
C476 O479 1.160 . S
O477 C476 1.306 . S
O477 Cd478 2.228 . S
Cd478 O477 2.228 . S
Cd478 O482 2.273 . S
Cd478 O486 2.277 . S
O479 C476 1.160 . S
O479 Cd480 2.203 . S
Cd480 O479 2.203 . S
Cd480 O482 2.411 . S
Cd480 O483 2.333 . S
Cd480 O484 2.352 . S
Cd480 O488 2.277 . S
Cd480 O489 2.356 . S
C481 O486 1.209 . S
C481 O488 1.226 . S
O482 Cd478 2.273 . S
O482 Cd480 2.411 . S
O482 C485 1.320 . S
O483 Cd480 2.333 . S
O483 C485 1.214 . S
O484 Cd480 2.352 . S
O484 C487 1.258 . S
C485 O482 1.320 . S
C485 O483 1.214 . S
O486 Cd478 2.277 . S
O486 C481 1.209 . S
C487 O484 1.258 . S
C487 O489 1.282 . S
O488 Cd480 2.277 . S
O488 C481 1.226 . S
O489 Cd480 2.356 . S
O489 C487 1.282 . S
C490 O491 1.306 . S
C490 O493 1.160 . S
O491 C490 1.306 . S
O491 Cd492 2.228 . S
Cd492 O491 2.228 . S
Cd492 O496 2.273 . S
Cd492 O500 2.277 . S
O493 C490 1.160 . S
O493 Cd494 2.203 . S
Cd494 O493 2.203 . S
Cd494 O496 2.411 . S
Cd494 O497 2.333 . S
Cd494 O498 2.352 . S
Cd494 O502 2.277 . S
Cd494 O503 2.356 . S
C495 O500 1.209 . S
C495 O502 1.226 . S
O496 Cd492 2.273 . S
O496 Cd494 2.411 . S
O496 C499 1.320 . S
O497 Cd494 2.333 . S
O497 C499 1.214 . S
O498 Cd494 2.352 . S
O498 C501 1.258 . S
C499 O496 1.320 . S
C499 O497 1.214 . S
O500 Cd492 2.277 . S
O500 C495 1.209 . S
C501 O498 1.258 . S
C501 O503 1.282 . S
O502 Cd494 2.277 . S
O502 C495 1.226 . S
O503 Cd494 2.356 . S
O503 C501 1.282 . S
C504 C505 1.387 . S
C504 H508 0.950 . S
C504 C513 1.390 . S
C505 C504 1.387 . S
C505 C507 1.387 . S
H506 C513 0.950 1_554 S
C507 C505 1.387 . S
C507 C509 1.390 . S
C507 H511 0.950 . S
H508 C504 0.950 . S
C509 C507 1.390 . S
C509 C510 1.387 1_556 S
C509 H512 0.950 1_556 S
C510 C509 1.387 1_554 S
C510 C513 1.387 1_554 S
H511 C507 0.950 . S
H512 C509 0.950 1_554 S
C513 C504 1.390 . S
C513 H506 0.950 1_556 S
C513 C510 1.387 1_556 S
C514 C515 1.387 . S
C514 H518 0.950 . S
C514 C523 1.390 . S
C515 C514 1.387 . S
C515 C517 1.387 . S
H516 C523 0.950 1_554 S
C517 C515 1.387 . S
C517 C519 1.390 . S
C517 H521 0.950 . S
H518 C514 0.950 . S
C519 C517 1.390 . S
C519 C520 1.387 1_556 S
C519 H522 0.950 1_556 S
C520 C519 1.387 1_554 S
C520 C523 1.387 1_554 S
H521 C517 0.950 . S
H522 C519 0.950 1_554 S
C523 C514 1.390 . S
C523 H516 0.950 1_556 S
C523 C520 1.387 1_556 S
C524 C525 1.387 1_556 S
C524 H528 0.950 1_556 S
C524 C533 1.390 . S
C525 C524 1.387 1_554 S
C525 C527 1.387 1_554 S
H526 C533 0.950 . S
C527 C525 1.387 1_556 S
C527 C529 1.390 . S
C527 H531 0.950 1_556 S
H528 C524 0.950 1_554 S
C529 C527 1.390 . S
C529 C530 1.387 . S
C529 H532 0.950 . S
C530 C529 1.387 . S
C530 C533 1.387 . S
H531 C527 0.950 1_554 S
H532 C529 0.950 . S
C533 C524 1.390 . S
C533 H526 0.950 . S
C533 C530 1.387 . S
C534 C535 1.387 . S
C534 H538 0.950 . S
C534 C543 1.390 . S
C535 C534 1.387 . S
C535 C537 1.387 . S
H536 C543 0.950 . S
C537 C535 1.387 . S
C537 C539 1.390 . S
C537 H541 0.950 . S
H538 C534 0.950 . S
C539 C537 1.390 . S
C539 C540 1.387 . S
C539 H542 0.950 . S
C540 C539 1.387 . S
C540 C543 1.387 . S
H541 C537 0.950 . S
H542 C539 0.950 . S
C543 C534 1.390 . S
C543 H536 0.950 . S
C543 C540 1.387 . S
C544 C545 1.387 . S
C544 H548 0.950 . S
C544 C553 1.390 . S
C545 C544 1.387 . S
C545 C547 1.387 . S
H546 C553 0.950 . S
C547 C545 1.387 . S
C547 C549 1.390 . S
C547 H551 0.950 . S
H548 C544 0.950 . S
C549 C547 1.390 . S
C549 C550 1.387 . S
C549 H552 0.950 . S
C550 C549 1.387 . S
C550 C553 1.387 . S
H551 C547 0.950 . S
H552 C549 0.950 . S
C553 C544 1.390 . S
C553 H546 0.950 . S
C553 C550 1.387 . S
C554 C555 1.387 . S
C554 H558 0.950 . S
C554 C563 1.390 . S
C555 C554 1.387 . S
C555 C557 1.387 . S
H556 C563 0.950 . S
C557 C555 1.387 . S
C557 C559 1.390 . S
C557 H561 0.950 . S
H558 C554 0.950 . S
C559 C557 1.390 . S
C559 C560 1.387 . S
C559 H562 0.950 . S
C560 C559 1.387 . S
C560 C563 1.387 . S
H561 C557 0.950 . S
H562 C559 0.950 . S
C563 C554 1.390 . S
C563 H556 0.950 . S
C563 C560 1.387 . S
C564 C565 1.387 . S
C564 H568 0.950 . S
C564 C573 1.390 . S
C565 C564 1.387 . S
C565 C567 1.387 . S
H566 C573 0.950 1_556 S
C567 C565 1.387 . S
C567 C569 1.390 . S
C567 H571 0.950 . S
H568 C564 0.950 . S
C569 C567 1.390 . S
C569 C570 1.387 1_554 S
C569 H572 0.950 1_554 S
C570 C569 1.387 1_556 S
C570 C573 1.387 1_556 S
H571 C567 0.950 . S
H572 C569 0.950 1_556 S
C573 C564 1.390 . S
C573 H566 0.950 1_554 S
C573 C570 1.387 1_554 S
C574 C575 1.387 . S
C574 H578 0.950 . S
C574 C583 1.390 . S
C575 C574 1.387 . S
C575 C577 1.387 . S
H576 C583 0.950 1_556 S
C577 C575 1.387 . S
C577 C579 1.390 . S
C577 H581 0.950 . S
H578 C574 0.950 . S
C579 C577 1.390 . S
C579 C580 1.387 1_554 S
C579 H582 0.950 1_554 S
C580 C579 1.387 1_556 S
C580 C583 1.387 1_556 S
H581 C577 0.950 . S
H582 C579 0.950 1_556 S
C583 C574 1.390 . S
C583 H576 0.950 1_554 S
C583 C580 1.387 1_554 S
C584 C585 1.387 1_554 S
C584 H588 0.950 1_554 S
C584 C593 1.390 . S
C585 C584 1.387 1_556 S
C585 C587 1.387 1_556 S
H586 C593 0.950 . S
C587 C585 1.387 1_554 S
C587 C589 1.390 . S
C587 H591 0.950 1_554 S
H588 C584 0.950 1_556 S
C589 C587 1.390 . S
C589 C590 1.387 . S
C589 H592 0.950 . S
C590 C589 1.387 . S
C590 C593 1.387 . S
H591 C587 0.950 1_556 S
H592 C589 0.950 . S
C593 C584 1.390 . S
C593 H586 0.950 . S
C593 C590 1.387 . S
C594 C595 1.387 . S
C594 H598 0.950 . S
C594 C603 1.390 . S
C595 C594 1.387 . S
C595 C597 1.387 . S
H596 C603 0.950 . S
C597 C595 1.387 . S
C597 C599 1.390 . S
C597 H601 0.950 . S
H598 C594 0.950 . S
C599 C597 1.390 . S
C599 C600 1.387 . S
C599 H602 0.950 . S
C600 C599 1.387 . S
C600 C603 1.387 . S
H601 C597 0.950 . S
H602 C599 0.950 . S
C603 C594 1.390 . S
C603 H596 0.950 . S
C603 C600 1.387 . S
C604 C605 1.387 . S
C604 H608 0.950 . S
C604 C613 1.390 . S
C605 C604 1.387 . S
C605 C607 1.387 . S
H606 C613 0.950 . S
C607 C605 1.387 . S
C607 C609 1.390 . S
C607 H611 0.950 . S
H608 C604 0.950 . S
C609 C607 1.390 . S
C609 C610 1.387 . S
C609 H612 0.950 . S
C610 C609 1.387 . S
C610 C613 1.387 . S
H611 C607 0.950 . S
H612 C609 0.950 . S
C613 C604 1.390 . S
C613 H606 0.950 . S
C613 C610 1.387 . S
C614 C615 1.387 . S
C614 H618 0.950 . S
C614 C623 1.390 . S
C615 C614 1.387 . S
C615 C617 1.387 . S
H616 C623 0.950 . S
C617 C615 1.387 . S
C617 C619 1.390 . S
C617 H621 0.950 . S
H618 C614 0.950 . S
C619 C617 1.390 . S
C619 C620 1.387 . S
C619 H622 0.950 . S
C620 C619 1.387 . S
C620 C623 1.387 . S
H621 C617 0.950 . S
H622 C619 0.950 . S
C623 C614 1.390 . S
C623 H616 0.950 . S
C623 C620 1.387 . S
C624 C625 1.387 . S
C624 H628 0.950 . S
C624 C633 1.390 . S
C625 C624 1.387 . S
C625 C627 1.387 . S
H626 C633 0.950 . S
C627 C625 1.387 . S
C627 C629 1.390 . S
C627 H631 0.950 . S
H628 C624 0.950 . S
C629 C627 1.390 . S
C629 C630 1.387 . S
C629 H632 0.950 . S
C630 C629 1.387 . S
C630 C633 1.387 . S
H631 C627 0.950 . S
H632 C629 0.950 . S
C633 C624 1.390 . S
C633 H626 0.950 . S
C633 C630 1.387 . S
C634 C635 1.387 . S
C634 H638 0.950 . S
C634 C643 1.390 . S
C635 C634 1.387 . S
C635 C637 1.387 . S
H636 C643 0.950 . S
C637 C635 1.387 . S
C637 C639 1.390 . S
C637 H641 0.950 . S
H638 C634 0.950 . S
C639 C637 1.390 . S
C639 C640 1.387 . S
C639 H642 0.950 . S
C640 C639 1.387 . S
C640 C643 1.387 . S
H641 C637 0.950 . S
H642 C639 0.950 . S
C643 C634 1.390 . S
C643 H636 0.950 . S
C643 C640 1.387 . S
C644 C645 1.387 . S
C644 H648 0.950 . S
C644 C653 1.390 . S
C645 C644 1.387 . S
C645 C647 1.387 . S
H646 C653 0.950 . S
C647 C645 1.387 . S
C647 C649 1.390 . S
C647 H651 0.950 . S
H648 C644 0.950 . S
C649 C647 1.390 . S
C649 C650 1.387 . S
C649 H652 0.950 . S
C650 C649 1.387 . S
C650 C653 1.387 . S
H651 C647 0.950 . S
H652 C649 0.950 . S
C653 C644 1.390 . S
C653 H646 0.950 . S
C653 C650 1.387 . S
C654 C655 1.387 . S
C654 H658 0.950 . S
C654 C663 1.390 . S
C655 C654 1.387 . S
C655 C657 1.387 . S
H656 C663 0.950 . S
C657 C655 1.387 . S
C657 C659 1.390 . S
C657 H661 0.950 . S
H658 C654 0.950 . S
C659 C657 1.390 . S
C659 C660 1.387 . S
C659 H662 0.950 . S
C660 C659 1.387 . S
C660 C663 1.387 . S
H661 C657 0.950 . S
H662 C659 0.950 . S
C663 C654 1.390 . S
C663 H656 0.950 . S
C663 C660 1.387 . S
C664 C665 1.387 . S
C664 H668 0.950 . S
C664 C673 1.390 . S
C665 C664 1.387 . S
C665 C667 1.387 . S
H666 C673 0.950 . S
C667 C665 1.387 . S
C667 C669 1.390 . S
C667 H671 0.950 . S
H668 C664 0.950 . S
C669 C667 1.390 . S
C669 C670 1.387 . S
C669 H672 0.950 . S
C670 C669 1.387 . S
C670 C673 1.387 . S
H671 C667 0.950 . S
H672 C669 0.950 . S
C673 C664 1.390 . S
C673 H666 0.950 . S
C673 C670 1.387 . S
C674 C675 1.387 . S
C674 H678 0.950 . S
C674 C683 1.390 . S
C675 C674 1.387 . S
C675 C677 1.387 . S
H676 C683 0.950 . S
C677 C675 1.387 . S
C677 C679 1.390 . S
C677 H681 0.950 . S
H678 C674 0.950 . S
C679 C677 1.390 . S
C679 C680 1.387 . S
C679 H682 0.950 . S
C680 C679 1.387 . S
C680 C683 1.387 . S
H681 C677 0.950 . S
H682 C679 0.950 . S
C683 C674 1.390 . S
C683 H676 0.950 . S
C683 C680 1.387 . S
C684 C685 1.387 . S
C684 H688 0.950 . S
C684 C693 1.390 . S
C685 C684 1.387 . S
C685 C687 1.387 . S
H686 C693 0.950 . S
C687 C685 1.387 . S
C687 C689 1.390 . S
C687 H691 0.950 . S
H688 C684 0.950 . S
C689 C687 1.390 . S
C689 C690 1.387 . S
C689 H692 0.950 . S
C690 C689 1.387 . S
C690 C693 1.387 . S
H691 C687 0.950 . S
H692 C689 0.950 . S
C693 C684 1.390 . S
C693 H686 0.950 . S
C693 C690 1.387 . S
C694 C695 1.387 . S
C694 H698 0.950 . S
C694 C703 1.390 . S
C695 C694 1.387 . S
C695 C697 1.387 . S
H696 C703 0.950 . S
C697 C695 1.387 . S
C697 C699 1.390 . S
C697 H701 0.950 . S
H698 C694 0.950 . S
C699 C697 1.390 . S
C699 C700 1.387 . S
C699 H702 0.950 . S
C700 C699 1.387 . S
C700 C703 1.387 . S
H701 C697 0.950 . S
H702 C699 0.950 . S
C703 C694 1.390 . S
C703 H696 0.950 . S
C703 C700 1.387 . S
C704 C705 1.387 . S
C704 H708 0.950 . S
C704 C713 1.390 . S
C705 C704 1.387 . S
C705 C707 1.387 . S
H706 C713 0.950 . S
C707 C705 1.387 . S
C707 C709 1.390 . S
C707 H711 0.950 . S
H708 C704 0.950 . S
C709 C707 1.390 . S
C709 C710 1.387 . S
C709 H712 0.950 . S
C710 C709 1.387 . S
C710 C713 1.387 . S
H711 C707 0.950 . S
H712 C709 0.950 . S
C713 C704 1.390 . S
C713 H706 0.950 . S
C713 C710 1.387 . S
C714 C715 1.387 . S
C714 H718 0.950 . S
C714 C723 1.390 . S
C715 C714 1.387 . S
C715 C717 1.387 . S
H716 C723 0.950 . S
C717 C715 1.387 . S
C717 C719 1.390 . S
C717 H721 0.950 . S
H718 C714 0.950 . S
C719 C717 1.390 . S
C719 C720 1.387 . S
C719 H722 0.950 . S
C720 C719 1.387 . S
C720 C723 1.387 . S
H721 C717 0.950 . S
H722 C719 0.950 . S
C723 C714 1.390 . S
C723 H716 0.950 . S
C723 C720 1.387 . S
C724 C725 1.387 . S
C724 H728 0.950 . S
C724 C733 1.390 . S
C725 C724 1.387 . S
C725 C727 1.387 . S
H726 C733 0.950 . S
C727 C725 1.387 . S
C727 C729 1.390 . S
C727 H731 0.950 . S
H728 C724 0.950 . S
C729 C727 1.390 . S
C729 C730 1.387 . S
C729 H732 0.950 . S
C730 C729 1.387 . S
C730 C733 1.387 . S
H731 C727 0.950 . S
H732 C729 0.950 . S
C733 C724 1.390 . S
C733 H726 0.950 . S
C733 C730 1.387 . S
C734 C735 1.387 . S
C734 H738 0.950 . S
C734 C743 1.390 . S
C735 C734 1.387 . S
C735 C737 1.387 . S
H736 C743 0.950 . S
C737 C735 1.387 . S
C737 C739 1.390 . S
C737 H741 0.950 . S
H738 C734 0.950 . S
C739 C737 1.390 . S
C739 C740 1.387 . S
C739 H742 0.950 . S
C740 C739 1.387 . S
C740 C743 1.387 . S
H741 C737 0.950 . S
H742 C739 0.950 . S
C743 C734 1.390 . S
C743 H736 0.950 . S
C743 C740 1.387 . S
C744 C745 1.387 . S
C744 H748 0.950 . S
C744 C753 1.390 . S
C745 C744 1.387 . S
C745 C747 1.387 . S
H746 C753 0.950 . S
C747 C745 1.387 . S
C747 C749 1.390 . S
C747 H751 0.950 . S
H748 C744 0.950 . S
C749 C747 1.390 . S
C749 C750 1.387 . S
C749 H752 0.950 . S
C750 C749 1.387 . S
C750 C753 1.387 . S
H751 C747 0.950 . S
H752 C749 0.950 . S
C753 C744 1.390 . S
C753 H746 0.950 . S
C753 C750 1.387 . S
C754 C755 1.387 . S
C754 H758 0.950 . S
C754 C763 1.390 . S
C755 C754 1.387 . S
C755 C757 1.387 . S
H756 C763 0.950 . S
C757 C755 1.387 . S
C757 C759 1.390 . S
C757 H761 0.950 . S
H758 C754 0.950 . S
C759 C757 1.390 . S
C759 C760 1.387 . S
C759 H762 0.950 . S
C760 C759 1.387 . S
C760 C763 1.387 . S
H761 C757 0.950 . S
H762 C759 0.950 . S
C763 C754 1.390 . S
C763 H756 0.950 . S
C763 C760 1.387 . S
C764 C765 1.387 . S
C764 H768 0.950 . S
C764 C773 1.390 . S
C765 C764 1.387 . S
C765 C767 1.387 . S
H766 C773 0.950 . S
C767 C765 1.387 . S
C767 C769 1.390 . S
C767 H771 0.950 . S
H768 C764 0.950 . S
C769 C767 1.390 . S
C769 C770 1.387 . S
C769 H772 0.950 . S
C770 C769 1.387 . S
C770 C773 1.387 . S
H771 C767 0.950 . S
H772 C769 0.950 . S
C773 C764 1.390 . S
C773 H766 0.950 . S
C773 C770 1.387 . S
C774 C775 1.387 . S
C774 H778 0.950 . S
C774 C783 1.390 . S
C775 C774 1.387 . S
C775 C777 1.387 . S
H776 C783 0.950 . S
C777 C775 1.387 . S
C777 C779 1.390 . S
C777 H781 0.950 . S
H778 C774 0.950 . S
C779 C777 1.390 . S
C779 C780 1.387 . S
C779 H782 0.950 . S
C780 C779 1.387 . S
C780 C783 1.387 . S
H781 C777 0.950 . S
H782 C779 0.950 . S
C783 C774 1.390 . S
C783 H776 0.950 . S
C783 C780 1.387 . S
C784 C785 1.387 . S
C784 H788 0.950 . S
C784 C793 1.390 . S
C785 C784 1.387 . S
C785 C787 1.387 . S
H786 C793 0.950 . S
C787 C785 1.387 . S
C787 C789 1.390 . S
C787 H791 0.950 . S
H788 C784 0.950 . S
C789 C787 1.390 . S
C789 C790 1.387 . S
C789 H792 0.950 . S
C790 C789 1.387 . S
C790 C793 1.387 . S
H791 C787 0.950 . S
H792 C789 0.950 . S
C793 C784 1.390 . S
C793 H786 0.950 . S
C793 C790 1.387 . S
C794 C795 1.387 . S
C794 H798 0.950 . S
C794 C803 1.390 . S
C795 C794 1.387 . S
C795 C797 1.387 . S
H796 C803 0.950 . S
C797 C795 1.387 . S
C797 C799 1.390 . S
C797 H801 0.950 . S
H798 C794 0.950 . S
C799 C797 1.390 . S
C799 C800 1.387 . S
C799 H802 0.950 . S
C800 C799 1.387 . S
C800 C803 1.387 . S
H801 C797 0.950 . S
H802 C799 0.950 . S
C803 C794 1.390 . S
C803 H796 0.950 . S
C803 C800 1.387 . S
C804 C805 1.387 . S
C804 H808 0.950 . S
C804 C813 1.390 . S
C805 C804 1.387 . S
C805 C807 1.387 . S
H806 C813 0.950 . S
C807 C805 1.387 . S
C807 C809 1.390 . S
C807 H811 0.950 . S
H808 C804 0.950 . S
C809 C807 1.390 . S
C809 C810 1.387 . S
C809 H812 0.950 . S
C810 C809 1.387 . S
C810 C813 1.387 . S
H811 C807 0.950 . S
H812 C809 0.950 . S
C813 C804 1.390 . S
C813 H806 0.950 . S
C813 C810 1.387 . S
C814 C815 1.387 . S
C814 H818 0.950 . S
C814 C823 1.390 . S
C815 C814 1.387 . S
C815 C817 1.387 . S
H816 C823 0.950 . S
C817 C815 1.387 . S
C817 C819 1.390 . S
C817 H821 0.950 . S
H818 C814 0.950 . S
C819 C817 1.390 . S
C819 C820 1.387 . S
C819 H822 0.950 . S
C820 C819 1.387 . S
C820 C823 1.387 . S
H821 C817 0.950 . S
H822 C819 0.950 . S
C823 C814 1.390 . S
C823 H816 0.950 . S
C823 C820 1.387 . S
C824 C825 1.387 . S
C824 H828 0.950 . S
C824 C833 1.390 . S
C825 C824 1.387 . S
C825 C827 1.387 . S
H826 C833 0.950 . S
C827 C825 1.387 . S
C827 C829 1.390 . S
C827 H831 0.950 . S
H828 C824 0.950 . S
C829 C827 1.390 . S
C829 C830 1.387 . S
C829 H832 0.950 . S
C830 C829 1.387 . S
C830 C833 1.387 . S
H831 C827 0.950 . S
H832 C829 0.950 . S
C833 C824 1.390 . S
C833 H826 0.950 . S
C833 C830 1.387 . S
C834 C835 1.387 . S
C834 H838 0.950 . S
C834 C843 1.390 . S
C835 C834 1.387 . S
C835 C837 1.387 . S
H836 C843 0.950 . S
C837 C835 1.387 . S
C837 C839 1.390 . S
C837 H841 0.950 . S
H838 C834 0.950 . S
C839 C837 1.390 . S
C839 C840 1.387 . S
C839 H842 0.950 . S
C840 C839 1.387 . S
C840 C843 1.387 . S
H841 C837 0.950 . S
H842 C839 0.950 . S
C843 C834 1.390 . S
C843 H836 0.950 . S
C843 C840 1.387 . S
C844 C845 1.387 . S
C844 H848 0.950 . S
C844 C853 1.390 . S
C845 C844 1.387 . S
C845 C847 1.387 . S
H846 C853 0.950 . S
C847 C845 1.387 . S
C847 C849 1.390 . S
C847 H851 0.950 . S
H848 C844 0.950 . S
C849 C847 1.390 . S
C849 C850 1.387 . S
C849 H852 0.950 . S
C850 C849 1.387 . S
C850 C853 1.387 . S
H851 C847 0.950 . S
H852 C849 0.950 . S
C853 C844 1.390 . S
C853 H846 0.950 . S
C853 C850 1.387 . S
C854 C855 1.387 . S
C854 H858 0.950 . S
C854 C863 1.390 . S
C855 C854 1.387 . S
C855 C857 1.387 . S
H856 C863 0.950 . S
C857 C855 1.387 . S
C857 C859 1.390 . S
C857 H861 0.950 . S
H858 C854 0.950 . S
C859 C857 1.390 . S
C859 C860 1.387 . S
C859 H862 0.950 . S
C860 C859 1.387 . S
C860 C863 1.387 . S
H861 C857 0.950 . S
H862 C859 0.950 . S
C863 C854 1.390 . S
C863 H856 0.950 . S
C863 C860 1.387 . S
C864 C865 1.387 . S
C864 H868 0.950 . S
C864 C873 1.390 . S
C865 C864 1.387 . S
C865 C867 1.387 . S
H866 C873 0.950 . S
C867 C865 1.387 . S
C867 C869 1.390 . S
C867 H871 0.950 . S
H868 C864 0.950 . S
C869 C867 1.390 . S
C869 C870 1.387 . S
C869 H872 0.950 . S
C870 C869 1.387 . S
C870 C873 1.387 . S
H871 C867 0.950 . S
H872 C869 0.950 . S
C873 C864 1.390 . S
C873 H866 0.950 . S
C873 C870 1.387 . S
C874 C875 1.387 . S
C874 H878 0.950 . S
C874 C883 1.390 1_565 S
C875 C874 1.387 . S
C875 C877 1.387 . S
H876 C883 0.950 . S
C877 C875 1.387 . S
C877 C879 1.390 1_565 S
C877 H881 0.950 . S
H878 C874 0.950 . S
C879 C877 1.390 1_545 S
C879 C880 1.387 . S
C879 H882 0.950 . S
C880 C879 1.387 . S
C880 C883 1.387 . S
H881 C877 0.950 . S
H882 C879 0.950 . S
C883 C874 1.390 1_545 S
C883 H876 0.950 . S
C883 C880 1.387 . S
C884 C885 1.387 . S
C884 H888 0.950 . S
C884 C893 1.390 1_655 S
C885 C884 1.387 . S
C885 C887 1.387 . S
H886 C893 0.950 . S
C887 C885 1.387 . S
C887 C889 1.390 1_655 S
C887 H891 0.950 . S
H888 C884 0.950 . S
C889 C887 1.390 1_455 S
C889 C890 1.387 . S
C889 H892 0.950 . S
C890 C889 1.387 . S
C890 C893 1.387 . S
H891 C887 0.950 . S
H892 C889 0.950 . S
C893 C884 1.390 1_455 S
C893 H886 0.950 . S
C893 C890 1.387 . S
C894 C895 1.387 . S
C894 H898 0.950 . S
C894 C903 1.390 . S
C895 C894 1.387 . S
C895 C897 1.387 . S
H896 C903 0.950 . S
C897 C895 1.387 . S
C897 C899 1.390 . S
C897 H901 0.950 . S
H898 C894 0.950 . S
C899 C897 1.390 . S
C899 C900 1.387 . S
C899 H902 0.950 . S
C900 C899 1.387 . S
C900 C903 1.387 . S
H901 C897 0.950 . S
H902 C899 0.950 . S
C903 C894 1.390 . S
C903 H896 0.950 . S
C903 C900 1.387 . S
C904 C905 1.387 . S
C904 H908 0.950 . S
C904 C913 1.390 1_545 S
C905 C904 1.387 . S
C905 C907 1.387 . S
H906 C913 0.950 . S
C907 C905 1.387 . S
C907 C909 1.390 1_545 S
C907 H911 0.950 . S
H908 C904 0.950 . S
C909 C907 1.390 1_565 S
C909 C910 1.387 . S
C909 H912 0.950 . S
C910 C909 1.387 . S
C910 C913 1.387 . S
H911 C907 0.950 . S
H912 C909 0.950 . S
C913 C904 1.390 1_565 S
C913 H906 0.950 . S
C913 C910 1.387 . S
C914 C915 1.387 . S
C914 H918 0.950 . S
C914 C923 1.390 1_655 S
C915 C914 1.387 . S
C915 C917 1.387 . S
H916 C923 0.950 . S
C917 C915 1.387 . S
C917 C919 1.390 1_655 S
C917 H921 0.950 . S
H918 C914 0.950 . S
C919 C917 1.390 1_455 S
C919 C920 1.387 . S
C919 H922 0.950 . S
C920 C919 1.387 . S
C920 C923 1.387 . S
H921 C917 0.950 . S
H922 C919 0.950 . S
C923 C914 1.390 1_455 S
C923 H916 0.950 . S
C923 C920 1.387 . S
C924 C925 1.387 . S
C924 H928 0.950 . S
C924 C933 1.390 . S
C925 C924 1.387 . S
C925 C927 1.387 . S
H926 C933 0.950 . S
C927 C925 1.387 . S
C927 C929 1.390 . S
C927 H931 0.950 . S
H928 C924 0.950 . S
C929 C927 1.390 . S
C929 C930 1.387 . S
C929 H932 0.950 . S
C930 C929 1.387 . S
C930 C933 1.387 . S
H931 C927 0.950 . S
H932 C929 0.950 . S
C933 C924 1.390 . S
C933 H926 0.950 . S
C933 C930 1.387 . S
C934 C935 1.387 . S
C934 H938 0.950 . S
C934 C943 1.390 . S
C935 C934 1.387 . S
C935 C937 1.387 . S
H936 C943 0.950 . S
C937 C935 1.387 . S
C937 C939 1.390 . S
C937 H941 0.950 . S
H938 C934 0.950 . S
C939 C937 1.390 . S
C939 C940 1.387 . S
C939 H942 0.950 . S
C940 C939 1.387 . S
C940 C943 1.387 . S
H941 C937 0.950 . S
H942 C939 0.950 . S
C943 C934 1.390 . S
C943 H936 0.950 . S
C943 C940 1.387 . S
C944 C945 1.387 . S
C944 H948 0.950 . S
C944 C953 1.390 . S
C945 C944 1.387 . S
C945 C947 1.387 . S
H946 C953 0.950 . S
C947 C945 1.387 . S
C947 C949 1.390 . S
C947 H951 0.950 . S
H948 C944 0.950 . S
C949 C947 1.390 . S
C949 C950 1.387 . S
C949 H952 0.950 . S
C950 C949 1.387 . S
C950 C953 1.387 . S
H951 C947 0.950 . S
H952 C949 0.950 . S
C953 C944 1.390 . S
C953 H946 0.950 . S
C953 C950 1.387 . S
C954 C955 1.387 . S
C954 H958 0.950 . S
C954 C963 1.390 . S
C955 C954 1.387 . S
C955 C957 1.387 . S
H956 C963 0.950 . S
C957 C955 1.387 . S
C957 C959 1.390 . S
C957 H961 0.950 . S
H958 C954 0.950 . S
C959 C957 1.390 . S
C959 C960 1.387 . S
C959 H962 0.950 . S
C960 C959 1.387 . S
C960 C963 1.387 . S
H961 C957 0.950 . S
H962 C959 0.950 . S
C963 C954 1.390 . S
C963 H956 0.950 . S
C963 C960 1.387 . S
C964 C965 1.387 . S
C964 H968 0.950 . S
C964 C973 1.390 . S
C965 C964 1.387 . S
C965 C967 1.387 . S
H966 C973 0.950 . S
C967 C965 1.387 . S
C967 C969 1.390 . S
C967 H971 0.950 . S
H968 C964 0.950 . S
C969 C967 1.390 . S
C969 C970 1.387 . S
C969 H972 0.950 . S
C970 C969 1.387 . S
C970 C973 1.387 . S
H971 C967 0.950 . S
H972 C969 0.950 . S
C973 C964 1.390 . S
C973 H966 0.950 . S
C973 C970 1.387 . S
C974 C975 1.387 . S
C974 H978 0.950 . S
C974 C983 1.390 . S
C975 C974 1.387 . S
C975 C977 1.387 . S
H976 C983 0.950 1_556 S
C977 C975 1.387 . S
C977 C979 1.390 . S
C977 H981 0.950 . S
H978 C974 0.950 . S
C979 C977 1.390 . S
C979 C980 1.387 . S
C979 H982 0.950 . S
C980 C979 1.387 . S
C980 C983 1.387 . S
H981 C977 0.950 . S
H982 C979 0.950 . S
C983 C974 1.390 . S
C983 H976 0.950 1_554 S
C983 C980 1.387 . S
C984 C985 1.387 . S
C984 H988 0.950 . S
C984 C993 1.390 . S
C985 C984 1.387 . S
C985 C987 1.387 . S
H986 C993 0.950 . S
C987 C985 1.387 . S
C987 C989 1.390 . S
C987 H991 0.950 . S
H988 C984 0.950 . S
C989 C987 1.390 . S
C989 C990 1.387 . S
C989 H992 0.950 . S
C990 C989 1.387 . S
C990 C993 1.387 . S
H991 C987 0.950 . S
H992 C989 0.950 . S
C993 C984 1.390 . S
C993 H986 0.950 . S
C993 C990 1.387 . S
C994 C995 1.387 . S
C994 H998 0.950 . S
C994 C1003 1.390 . S
C995 C994 1.387 . S
C995 C997 1.387 . S
H996 C1003 0.950 . S
C997 C995 1.387 . S
C997 C999 1.390 . S
C997 H1001 0.950 . S
H998 C994 0.950 . S
C999 C997 1.390 . S
C999 C1000 1.387 . S
C999 H1002 0.950 . S
C1000 C999 1.387 . S
C1000 C1003 1.387 . S
H1001 C997 0.950 . S
H1002 C999 0.950 . S
C1003 C994 1.390 . S
C1003 H996 0.950 . S
C1003 C1000 1.387 . S
C1004 C1005 1.387 . S
C1004 H1008 0.950 . S
C1004 C1013 1.390 . S
C1005 C1004 1.387 . S
C1005 C1007 1.387 . S
H1006 C1013 0.950 1_554 S
C1007 C1005 1.387 . S
C1007 C1009 1.390 . S
C1007 H1011 0.950 . S
H1008 C1004 0.950 . S
C1009 C1007 1.390 . S
C1009 C1010 1.387 . S
C1009 H1012 0.950 . S
C1010 C1009 1.387 . S
C1010 C1013 1.387 . S
H1011 C1007 0.950 . S
H1012 C1009 0.950 . S
C1013 C1004 1.390 . S
C1013 H1006 0.950 1_556 S
C1013 C1010 1.387 . S
C1014 C1015 1.387 . S
C1014 H1018 0.950 . S
C1014 C1023 1.390 . S
C1015 C1014 1.387 . S
C1015 C1017 1.387 . S
H1016 C1023 0.950 . S
C1017 C1015 1.387 . S
C1017 C1019 1.390 . S
C1017 H1021 0.950 . S
H1018 C1014 0.950 . S
C1019 C1017 1.390 . S
C1019 C1020 1.387 . S
C1019 H1022 0.950 . S
C1020 C1019 1.387 . S
C1020 C1023 1.387 . S
H1021 C1017 0.950 . S
H1022 C1019 0.950 . S
C1023 C1014 1.390 . S
C1023 H1016 0.950 . S
C1023 C1020 1.387 . S
C1024 C1025 1.387 . S
C1024 H1028 0.950 . S
C1024 C1033 1.390 . S
C1025 C1024 1.387 . S
C1025 C1027 1.387 . S
H1026 C1033 0.950 . S
C1027 C1025 1.387 . S
C1027 C1029 1.390 . S
C1027 H1031 0.950 . S
H1028 C1024 0.950 . S
C1029 C1027 1.390 . S
C1029 C1030 1.387 . S
C1029 H1032 0.950 . S
C1030 C1029 1.387 . S
C1030 C1033 1.387 . S
H1031 C1027 0.950 . S
H1032 C1029 0.950 . S
C1033 C1024 1.390 . S
C1033 H1026 0.950 . S
C1033 C1030 1.387 . S
C1034 C1035 1.387 . S
C1034 H1038 0.950 . S
C1034 C1043 1.390 . S
C1035 C1034 1.387 . S
C1035 C1037 1.387 . S
H1036 C1043 0.950 . S
C1037 C1035 1.387 . S
C1037 C1039 1.390 . S
C1037 H1041 0.950 . S
H1038 C1034 0.950 . S
C1039 C1037 1.390 . S
C1039 C1040 1.387 . S
C1039 H1042 0.950 . S
C1040 C1039 1.387 . S
C1040 C1043 1.387 . S
H1041 C1037 0.950 . S
H1042 C1039 0.950 . S
C1043 C1034 1.390 . S
C1043 H1036 0.950 . S
C1043 C1040 1.387 . S
C1044 C1045 1.387 . S
C1044 H1048 0.950 . S
C1044 C1053 1.390 . S
C1045 C1044 1.387 . S
C1045 C1047 1.387 . S
H1046 C1053 0.950 . S
C1047 C1045 1.387 . S
C1047 C1049 1.390 . S
C1047 H1051 0.950 . S
H1048 C1044 0.950 . S
C1049 C1047 1.390 . S
C1049 C1050 1.387 . S
C1049 H1052 0.950 . S
C1050 C1049 1.387 . S
C1050 C1053 1.387 . S
H1051 C1047 0.950 . S
H1052 C1049 0.950 . S
C1053 C1044 1.390 . S
C1053 H1046 0.950 . S
C1053 C1050 1.387 . S
C1054 C1055 1.387 . S
C1054 H1058 0.950 . S
C1054 C1063 1.390 . S
C1055 C1054 1.387 . S
C1055 C1057 1.387 . S
H1056 C1063 0.950 . S
C1057 C1055 1.387 . S
C1057 C1059 1.390 . S
C1057 H1061 0.950 . S
H1058 C1054 0.950 . S
C1059 C1057 1.390 . S
C1059 C1060 1.387 . S
C1059 H1062 0.950 . S
C1060 C1059 1.387 . S
C1060 C1063 1.387 . S
H1061 C1057 0.950 . S
H1062 C1059 0.950 . S
C1063 C1054 1.390 . S
C1063 H1056 0.950 . S
C1063 C1060 1.387 . S
C1064 C1065 1.387 . S
C1064 H1068 0.950 . S
C1064 C1073 1.390 . S
C1065 C1064 1.387 . S
C1065 C1067 1.387 . S
H1066 C1073 0.950 . S
C1067 C1065 1.387 . S
C1067 C1069 1.390 . S
C1067 H1071 0.950 . S
H1068 C1064 0.950 . S
C1069 C1067 1.390 . S
C1069 C1070 1.387 . S
C1069 H1072 0.950 . S
C1070 C1069 1.387 . S
C1070 C1073 1.387 . S
H1071 C1067 0.950 . S
H1072 C1069 0.950 . S
C1073 C1064 1.390 . S
C1073 H1066 0.950 . S
C1073 C1070 1.387 . S
C1074 C1075 1.387 . S
C1074 H1078 0.950 . S
C1074 C1083 1.390 . S
C1075 C1074 1.387 . S
C1075 C1077 1.387 . S
H1076 C1083 0.950 . S
C1077 C1075 1.387 . S
C1077 C1079 1.390 . S
C1077 H1081 0.950 . S
H1078 C1074 0.950 . S
C1079 C1077 1.390 . S
C1079 C1080 1.387 . S
C1079 H1082 0.950 . S
C1080 C1079 1.387 . S
C1080 C1083 1.387 . S
H1081 C1077 0.950 . S
H1082 C1079 0.950 . S
C1083 C1074 1.390 . S
C1083 H1076 0.950 . S
C1083 C1080 1.387 . S
C1084 C1085 1.387 . S
C1084 H1088 0.950 . S
C1084 C1093 1.390 . S
C1085 C1084 1.387 . S
C1085 C1087 1.387 . S
H1086 C1093 0.950 . S
C1087 C1085 1.387 . S
C1087 C1089 1.390 . S
C1087 H1091 0.950 . S
H1088 C1084 0.950 . S
C1089 C1087 1.390 . S
C1089 C1090 1.387 . S
C1089 H1092 0.950 . S
C1090 C1089 1.387 . S
C1090 C1093 1.387 . S
H1091 C1087 0.950 . S
H1092 C1089 0.950 . S
C1093 C1084 1.390 . S
C1093 H1086 0.950 . S
C1093 C1090 1.387 . S
C1094 C1095 1.387 . S
C1094 H1098 0.950 . S
C1094 C1103 1.390 . S
C1095 C1094 1.387 . S
C1095 C1097 1.387 . S
H1096 C1103 0.950 . S
C1097 C1095 1.387 . S
C1097 C1099 1.390 . S
C1097 H1101 0.950 . S
H1098 C1094 0.950 . S
C1099 C1097 1.390 . S
C1099 C1100 1.387 . S
C1099 H1102 0.950 . S
C1100 C1099 1.387 . S
C1100 C1103 1.387 . S
H1101 C1097 0.950 . S
H1102 C1099 0.950 . S
C1103 C1094 1.390 . S
C1103 H1096 0.950 . S
C1103 C1100 1.387 . S
C1104 C1105 1.387 . S
C1104 H1108 0.950 . S
C1104 C1113 1.390 . S
C1105 C1104 1.387 . S
C1105 C1107 1.387 . S
H1106 C1113 0.950 . S
C1107 C1105 1.387 . S
C1107 C1109 1.390 . S
C1107 H1111 0.950 . S
H1108 C1104 0.950 . S
C1109 C1107 1.390 . S
C1109 C1110 1.387 . S
C1109 H1112 0.950 . S
C1110 C1109 1.387 . S
C1110 C1113 1.387 . S
H1111 C1107 0.950 . S
H1112 C1109 0.950 . S
C1113 C1104 1.390 . S
C1113 H1106 0.950 . S
C1113 C1110 1.387 . S
C1114 C1115 1.387 . S
C1114 H1118 0.950 . S
C1114 C1123 1.390 . S
C1115 C1114 1.387 . S
C1115 C1117 1.387 . S
H1116 C1123 0.950 . S
C1117 C1115 1.387 . S
C1117 C1119 1.390 . S
C1117 H1121 0.950 . S
H1118 C1114 0.950 . S
C1119 C1117 1.390 . S
C1119 C1120 1.387 . S
C1119 H1122 0.950 . S
C1120 C1119 1.387 . S
C1120 C1123 1.387 . S
H1121 C1117 0.950 . S
H1122 C1119 0.950 . S
C1123 C1114 1.390 . S
C1123 H1116 0.950 . S
C1123 C1120 1.387 . S
C1124 C1125 1.387 . S
C1124 H1128 0.950 . S
C1124 C1133 1.390 . S
C1125 C1124 1.387 . S
C1125 C1127 1.387 . S
H1126 C1133 0.950 . S
C1127 C1125 1.387 . S
C1127 C1129 1.390 . S
C1127 H1131 0.950 . S
H1128 C1124 0.950 . S
C1129 C1127 1.390 . S
C1129 C1130 1.387 . S
C1129 H1132 0.950 . S
C1130 C1129 1.387 . S
C1130 C1133 1.387 . S
H1131 C1127 0.950 . S
H1132 C1129 0.950 . S
C1133 C1124 1.390 . S
C1133 H1126 0.950 . S
C1133 C1130 1.387 . S
C1134 C1135 1.387 . S
C1134 H1138 0.950 . S
C1134 C1143 1.390 . S
C1135 C1134 1.387 . S
C1135 C1137 1.387 . S
H1136 C1143 0.950 . S
C1137 C1135 1.387 . S
C1137 C1139 1.390 . S
C1137 H1141 0.950 . S
H1138 C1134 0.950 . S
C1139 C1137 1.390 . S
C1139 C1140 1.387 . S
C1139 H1142 0.950 . S
C1140 C1139 1.387 . S
C1140 C1143 1.387 . S
H1141 C1137 0.950 . S
H1142 C1139 0.950 . S
C1143 C1134 1.390 . S
C1143 H1136 0.950 . S
C1143 C1140 1.387 . S
C1144 C1145 1.387 . S
C1144 H1148 0.950 . S
C1144 C1153 1.390 . S
C1145 C1144 1.387 . S
C1145 C1147 1.387 . S
H1146 C1153 0.950 . S
C1147 C1145 1.387 . S
C1147 C1149 1.390 . S
C1147 H1151 0.950 . S
H1148 C1144 0.950 . S
C1149 C1147 1.390 . S
C1149 C1150 1.387 . S
C1149 H1152 0.950 . S
C1150 C1149 1.387 . S
C1150 C1153 1.387 . S
H1151 C1147 0.950 . S
H1152 C1149 0.950 . S
C1153 C1144 1.390 . S
C1153 H1146 0.950 . S
C1153 C1150 1.387 . S
C1154 C1155 1.387 . S
C1154 H1158 0.950 . S
C1154 C1163 1.390 . S
C1155 C1154 1.387 . S
C1155 C1157 1.387 . S
H1156 C1163 0.950 . S
C1157 C1155 1.387 . S
C1157 C1159 1.390 . S
C1157 H1161 0.950 . S
H1158 C1154 0.950 . S
C1159 C1157 1.390 . S
C1159 C1160 1.387 . S
C1159 H1162 0.950 . S
C1160 C1159 1.387 . S
C1160 C1163 1.387 . S
H1161 C1157 0.950 . S
H1162 C1159 0.950 . S
C1163 C1154 1.390 . S
C1163 H1156 0.950 . S
C1163 C1160 1.387 . S
C1164 C1165 1.387 . S
C1164 H1168 0.950 . S
C1164 C1173 1.390 1_455 S
C1165 C1164 1.387 . S
C1165 C1167 1.387 . S
H1166 C1173 0.950 . S
C1167 C1165 1.387 . S
C1167 C1169 1.390 1_455 S
C1167 H1171 0.950 . S
H1168 C1164 0.950 . S
C1169 C1167 1.390 1_655 S
C1169 C1170 1.387 . S
C1169 H1172 0.950 . S
C1170 C1169 1.387 . S
C1170 C1173 1.387 . S
H1171 C1167 0.950 . S
H1172 C1169 0.950 . S
C1173 C1164 1.390 1_655 S
C1173 H1166 0.950 . S
C1173 C1170 1.387 . S
C1174 C1175 1.387 . S
C1174 H1178 0.950 . S
C1174 C1183 1.390 . S
C1175 C1174 1.387 . S
C1175 C1177 1.387 . S
H1176 C1183 0.950 . S
C1177 C1175 1.387 . S
C1177 C1179 1.390 . S
C1177 H1181 0.950 . S
H1178 C1174 0.950 . S
C1179 C1177 1.390 . S
C1179 C1180 1.387 . S
C1179 H1182 0.950 . S
C1180 C1179 1.387 . S
C1180 C1183 1.387 . S
H1181 C1177 0.950 . S
H1182 C1179 0.950 . S
C1183 C1174 1.390 . S
C1183 H1176 0.950 . S
C1183 C1180 1.387 . S
C1184 C1185 1.387 . S
C1184 H1188 0.950 . S
C1184 C1193 1.390 1_545 S
C1185 C1184 1.387 . S
C1185 C1187 1.387 . S
H1186 C1193 0.950 . S
C1187 C1185 1.387 . S
C1187 C1189 1.390 1_545 S
C1187 H1191 0.950 . S
H1188 C1184 0.950 . S
C1189 C1187 1.390 1_565 S
C1189 C1190 1.387 . S
C1189 H1192 0.950 . S
C1190 C1189 1.387 . S
C1190 C1193 1.387 . S
H1191 C1187 0.950 . S
H1192 C1189 0.950 . S
C1193 C1184 1.390 1_565 S
C1193 H1186 0.950 . S
C1193 C1190 1.387 . S
C1194 C1195 1.387 1_556 S
C1194 H1198 0.950 . S
C1194 C1203 1.390 1_545 S
C1195 C1194 1.387 1_554 S
C1195 C1197 1.387 . S
H1196 C1203 0.950 . S
C1197 C1195 1.387 . S
C1197 C1199 1.390 1_545 S
C1197 H1201 0.950 . S
H1198 C1194 0.950 . S
C1199 C1197 1.390 1_565 S
C1199 C1200 1.387 1_554 S
C1199 H1202 0.950 . S
C1200 C1199 1.387 1_556 S
C1200 C1203 1.387 . S
H1201 C1197 0.950 . S
H1202 C1199 0.950 . S
C1203 C1194 1.390 1_565 S
C1203 H1196 0.950 . S
C1203 C1200 1.387 . S
C1204 C1205 1.387 1_556 S
C1204 H1208 0.950 . S
C1204 C1213 1.390 1_655 S
C1205 C1204 1.387 1_554 S
C1205 C1207 1.387 . S
H1206 C1213 0.950 . S
C1207 C1205 1.387 . S
C1207 C1209 1.390 1_655 S
C1207 H1211 0.950 . S
H1208 C1204 0.950 . S
C1209 C1207 1.390 1_455 S
C1209 C1210 1.387 1_554 S
C1209 H1212 0.950 . S
C1210 C1209 1.387 1_556 S
C1210 C1213 1.387 . S
H1211 C1207 0.950 . S
H1212 C1209 0.950 . S
C1213 C1204 1.390 1_455 S
C1213 H1206 0.950 . S
C1213 C1210 1.387 . S
C1214 C1215 1.387 1_556 S
C1214 H1218 0.950 . S
C1214 C1223 1.390 . S
C1215 C1214 1.387 1_554 S
C1215 C1217 1.387 . S
H1216 C1223 0.950 . S
C1217 C1215 1.387 . S
C1217 C1219 1.390 . S
C1217 H1221 0.950 . S
H1218 C1214 0.950 . S
C1219 C1217 1.390 . S
C1219 C1220 1.387 1_554 S
C1219 H1222 0.950 . S
C1220 C1219 1.387 1_556 S
C1220 C1223 1.387 . S
H1221 C1217 0.950 . S
H1222 C1219 0.950 . S
C1223 C1214 1.390 . S
C1223 H1216 0.950 . S
C1223 C1220 1.387 . S
C505 C149 1.305 . S
C510 C0 1.317 . S
C515 C163 1.305 . S
C520 C14 1.320 . S
C525 C28 1.320 . S
C530 C135 1.304 . S
C535 C42 1.320 . S
C540 C121 1.304 . S
C545 C56 1.319 . S
C550 C93 1.303 . S
C555 C107 1.305 . S
C560 C70 1.318 . S
C565 C65 1.303 . S
C570 C84 1.320 . S
C575 C79 1.304 . S
C580 C98 1.317 . S
C585 C112 1.320 . S
C590 C51 1.304 . S
C595 C37 1.304 . S
C600 C126 1.317 . S
C605 C140 1.317 . S
C610 C9 1.303 . S
C615 C154 1.319 . S
C620 C23 1.303 . S
C625 C317 1.303 . S
C630 C168 1.319 . S
C635 C331 1.304 . S
C640 C182 1.320 . S
C645 C196 1.317 . S
C650 C303 1.304 . S
C655 C210 1.317 . S
C660 C289 1.304 1_556 S
C665 C224 1.320 . S
C670 C261 1.306 1_556 S
C675 C238 1.319 . S
C680 C275 1.303 1_556 S
C685 C233 1.302 . S
C690 C252 1.319 . S
C695 C247 1.305 . S
C700 C266 1.320 . S
C705 C219 1.305 . S
C710 C280 1.317 . S
C715 C205 1.303 . S
C720 C294 1.320 . S
C725 C177 1.306 . S
C730 C308 1.320 . S
C735 C191 1.303 . S
C740 C322 1.317 . S
C745 C336 1.320 . S
C750 C485 1.303 . S
C755 C499 1.305 . S
C760 C350 1.320 . S
C765 C471 1.304 . S
C770 C364 1.320 . S
C775 C378 1.317 . S
C780 C457 1.304 . S
C785 C392 1.317 . S
C790 C429 1.304 . S
C795 C406 1.320 . S
C800 C443 1.303 . S
C805 C401 1.302 . S
C810 C420 1.319 . S
C815 C415 1.305 . S
C820 C434 1.320 . S
C825 C387 1.304 . S
C830 C448 1.317 . S
C835 C462 1.319 . S
C840 C373 1.303 1_554 S
C845 C345 1.306 1_554 S
C850 C476 1.319 . S
C855 C490 1.320 . S
C860 C359 1.303 1_554 S
C865 C53 1.497 . S
C870 C11 1.498 . S
C875 C67 1.496 . S
C880 C25 1.496 . S
C885 C39 1.497 . S
C890 C81 1.497 . S
C895 C137 1.497 . S
C900 C95 1.496 . S
C905 C151 1.498 . S
C910 C109 1.497 . S
C915 C165 1.497 . S
C920 C123 1.497 . S
C925 C221 1.497 . S
C930 C179 1.496 . S
C935 C235 1.496 . S
C940 C193 1.496 . S
C945 C207 1.497 . S
C950 C249 1.496 . S
C955 C263 1.496 . S
C960 C305 1.497 . S
C965 C319 1.496 . S
C970 C277 1.496 . S
C975 C291 1.497 . S
C980 C333 1.497 . S
C985 C389 1.497 . S
C990 C347 1.496 . S
C995 C403 1.498 . S
C1000 C361 1.498 . S
C1005 C375 1.497 . S
C1010 C417 1.497 . S
C1015 C431 1.498 . S
C1020 C473 1.497 . S
C1025 C445 1.498 . S
C1030 C487 1.498 . S
C1035 C459 1.497 . S
C1040 C501 1.496 . S
C1045 C5 1.503 . S
C1050 C257 1.503 . S
C1055 C271 1.503 . S
C1060 C19 1.503 . S
C1065 C285 1.504 . S
C1070 C33 1.504 . S
C1075 C467 1.504 . S
C1080 C47 1.504 . S
C1085 C481 1.503 . S
C1090 C61 1.503 . S
C1095 C495 1.503 . S
C1100 C75 1.503 . S
C1105 C89 1.503 . S
C1110 C341 1.503 . S
C1115 C355 1.503 . S
C1120 C103 1.503 . S
C1125 C369 1.504 . S
C1130 C117 1.504 . S
C1135 C131 1.503 . S
C1140 C215 1.503 . S
C1145 C145 1.504 . S
C1150 C229 1.504 . S
C1155 C159 1.504 . S
C1160 C243 1.504 . S
C1165 C425 1.503 . S
C1170 C173 1.503 . S
C1175 C439 1.504 . S
C1180 C187 1.504 . S
C1185 C201 1.503 . S
C1190 C453 1.503 . S
C1195 C299 1.504 . S
C1200 C383 1.504 . S
C1205 C313 1.504 . S
C1210 C397 1.504 . S
C1215 C327 1.503 . S
C1220 C411 1.503 . S
