# Generated by pormake.
# Topology svi, (7)-cn, num edge types: 1
# Building blocks:
#     Node 0, Type 0, BuildingBlock: HICVOG_clean_sbu_0, # of connection points: 7
#     Node 1, Type 0, BuildingBlock: HICVOG_clean_sbu_0, # of connection points: 7
#     Node 2, Type 0, BuildingBlock: HICVOG_clean_sbu_0, # of connection points: 7
#     Node 3, Type 0, BuildingBlock: HICVOG_clean_sbu_0, # of connection points: 7
#     Node 4, Type 0, BuildingBlock: HICVOG_clean_sbu_0, # of connection points: 7
#     Node 5, Type 0, BuildingBlock: HICVOG_clean_sbu_0, # of connection points: 7
#     Node 6, Type 0, BuildingBlock: HICVOG_clean_sbu_0, # of connection points: 7
#     Node 7, Type 0, BuildingBlock: HICVOG_clean_sbu_0, # of connection points: 7
#     Edge 8, Type (0, 0), BuildingBlock: OJICUG_clean_linker_0, # of connection points: 2
#     Edge 9, Type (0, 0), BuildingBlock: OJICUG_clean_linker_0, # of connection points: 2
#     Edge 10, Type (0, 0), BuildingBlock: OJICUG_clean_linker_0, # of connection points: 2
#     Edge 11, Type (0, 0), BuildingBlock: OJICUG_clean_linker_0, # of connection points: 2
#     Edge 12, Type (0, 0), BuildingBlock: OJICUG_clean_linker_0, # of connection points: 2
#     Edge 13, Type (0, 0), BuildingBlock: OJICUG_clean_linker_0, # of connection points: 2
#     Edge 14, Type (0, 0), BuildingBlock: OJICUG_clean_linker_0, # of connection points: 2
#     Edge 15, Type (0, 0), BuildingBlock: OJICUG_clean_linker_0, # of connection points: 2
#     Edge 16, Type (0, 0), BuildingBlock: OJICUG_clean_linker_0, # of connection points: 2
#     Edge 17, Type (0, 0), BuildingBlock: OJICUG_clean_linker_0, # of connection points: 2
#     Edge 18, Type (0, 0), BuildingBlock: OJICUG_clean_linker_0, # of connection points: 2
#     Edge 19, Type (0, 0), BuildingBlock: OJICUG_clean_linker_0, # of connection points: 2
#     Edge 20, Type (0, 0), BuildingBlock: OJICUG_clean_linker_0, # of connection points: 2
#     Edge 21, Type (0, 0), BuildingBlock: OJICUG_clean_linker_0, # of connection points: 2
#     Edge 22, Type (0, 0), BuildingBlock: OJICUG_clean_linker_0, # of connection points: 2
#     Edge 23, Type (0, 0), BuildingBlock: OJICUG_clean_linker_0, # of connection points: 2
#     Edge 24, Type (0, 0), BuildingBlock: OJICUG_clean_linker_0, # of connection points: 2
#     Edge 25, Type (0, 0), BuildingBlock: OJICUG_clean_linker_0, # of connection points: 2
#     Edge 26, Type (0, 0), BuildingBlock: OJICUG_clean_linker_0, # of connection points: 2
#     Edge 27, Type (0, 0), BuildingBlock: OJICUG_clean_linker_0, # of connection points: 2
#     Edge 28, Type (0, 0), BuildingBlock: OJICUG_clean_linker_0, # of connection points: 2
#     Edge 29, Type (0, 0), BuildingBlock: OJICUG_clean_linker_0, # of connection points: 2
#     Edge 30, Type (0, 0), BuildingBlock: OJICUG_clean_linker_0, # of connection points: 2
#     Edge 31, Type (0, 0), BuildingBlock: OJICUG_clean_linker_0, # of connection points: 2
#     Edge 32, Type (0, 0), BuildingBlock: OJICUG_clean_linker_0, # of connection points: 2
#     Edge 33, Type (0, 0), BuildingBlock: OJICUG_clean_linker_0, # of connection points: 2
#     Edge 34, Type (0, 0), BuildingBlock: OJICUG_clean_linker_0, # of connection points: 2
#     Edge 35, Type (0, 0), BuildingBlock: OJICUG_clean_linker_0, # of connection points: 2
# Relax obj value: 0.306
# Max RMSD: 0.292
# Mean RMSD: 0.250
data_MOF--net-svi--node1-HICVOG_clean_sbu_0--edge1-OJICUG_clean_linker_0
_symmetry_space_group_name_H-M    P1
_symmetry_Int_Tables_number       1
_symmetry_cell_setting            triclinic
loop_
_symmetry_equiv_pos_as_xyz
'x, y, z'
_cell_length_a     23.755536
_cell_length_b     20.419647
_cell_length_c     30.657731
_cell_angle_alpha  95.626959
_cell_angle_beta   95.086849
_cell_angle_gamma 90.543002
loop_
_atom_site_label
_atom_site_type_symbol
_atom_site_fract_x
_atom_site_fract_y
_atom_site_fract_z
_atom_type_partial_charge
Zn0 Zn 0.24331 0.35757 0.03818 0.0
C1 C 0.12232 0.47025 0.08932 0.0
N2 N 0.15223 0.5199 0.07679 0.0
C3 C 0.19979 0.49085 0.06519 0.0
N4 N 0.19927 0.42543 0.07023 0.0
N5 N 0.15062 0.41287 0.08676 0.0
C6 C 0.02017 0.27959 0.08103 0.0
O7 O 0.04867 0.2601 0.04743 0.0
O8 O 0.32729 0.37689 0.03506 0.0
Zn9 Zn 0.13179 0.33757 0.12059 0.0
N10 N 0.21428 0.34755 0.97638 0.0
C11 C 0.14448 0.36658 0.91875 0.0
C12 C 0.16304 0.37154 0.96341 0.0
C13 C 0.24765 0.31827 0.9464 0.0
N14 N 0.17777 0.33758 0.88886 0.0
C15 C 0.22917 0.31272 0.9011 0.0
O16 O 0.1753 0.25369 0.10753 0.0
C17 C 0.21446 0.23148 0.08476 0.0
O18 O 0.23922 0.26689 0.06001 0.0
H19 H 0.1371 0.39487 0.9875 0.0
H20 H 0.28847 0.30085 0.95805 0.0
C21 C 0.1751 0.32236 0.21148 0.0
C22 C 0.18884 0.34451 0.25646 0.0
C23 C 0.15517 0.45038 0.24224 0.0
C24 C 0.14181 0.42822 0.19819 0.0
N25 N 0.15207 0.36494 0.18336 0.0
N26 N 0.17818 0.40834 0.27006 0.0
H27 H 0.18161 0.27201 0.19885 0.0
C28 C 0.36628 0.36076 0.06296 0.0
O29 O 0.35262 0.34447 0.10111 0.0
O30 O 0.04597 0.31306 0.11435 0.0
H31 H 0.1231 0.46142 0.17617 0.0
H32 H 0.1039 0.38577 0.90785 0.0
H33 H 0.1472 0.5007 0.25434 0.0
Zn34 Zn 0.67894 0.14805 0.09939 0.0
C35 C 0.55574 0.21219 1.01883 0.0
N36 N 0.53208 0.15197 1.01689 0.0
C37 C 0.57221 0.11668 0.03717 0.0
N38 N 0.61843 0.1545 0.05228 0.0
N39 N 0.60917 0.21258 0.03783 0.0
C40 C 0.62127 0.39588 0.98693 0.0
O41 O 0.56744 0.40843 0.98905 0.0
O42 O 0.69556 0.05396 0.10531 0.0
Zn43 Zn 0.66529 0.24987 1.00548 0.0
N44 N 0.65484 0.18727 0.15523 0.0
C45 C 0.57977 0.21945 0.19879 0.0
C46 C 0.59864 0.19581 0.15857 0.0
C47 C 0.69334 0.20413 0.1904 0.0
N48 N 0.61792 0.23522 0.23396 0.0
C49 C 0.67449 0.22889 0.23103 0.0
O50 O 0.7463 0.25278 1.03403 0.0
C51 C 0.77652 0.22922 0.06507 0.0
O52 O 0.75524 0.19121 0.09019 0.0
H53 H 0.56854 0.18374 0.13032 0.0
H54 H 0.73792 0.1975 0.18687 0.0
C55 C 0.69196 0.23739 0.91813 0.0
C56 C 0.69478 0.20982 0.87451 0.0
C57 C 0.64719 0.11409 0.89198 0.0
C58 C 0.64493 0.14193 0.93524 0.0
N59 N 0.66705 0.20326 0.94731 0.0
N60 N 0.6718 0.14855 0.86275 0.0
H61 H 0.7085 0.2859 0.92928 0.0
C62 C 0.70966 1.02018 0.07121 0.0
O63 O 0.70836 0.04748 1.03405 0.0
O64 O 0.63948 0.33947 0.99412 0.0
H65 H 0.62559 0.11499 0.95874 0.0
H66 H 0.5351 0.22555 0.20201 0.0
H67 H 0.62949 0.06544 0.88167 0.0
Zn68 Zn 0.88622 0.67416 0.13036 0.0
C69 C 0.8158 0.54281 0.03548 0.0
N70 N 0.85424 0.49958 0.04861 0.0
C71 C 0.88915 0.53674 0.07857 0.0
N72 N 0.87022 0.59941 0.08496 0.0
N73 N 0.82646 0.60304 0.05566 0.0
C74 C 0.702 0.70786 0.06281 0.0
O75 O 0.72735 0.69289 0.10026 0.0
O76 O 0.96078 0.71548 0.12467 0.0
Zn77 Zn 0.80811 0.6793 1.02571 0.0
N78 N 0.87766 0.64897 0.18978 0.0
C79 C 0.8852 0.56719 0.24016 0.0
C80 C 0.89145 0.58694 0.19869 0.0
C81 C 0.85566 0.69167 0.22082 0.0
N82 N 0.86357 0.60951 0.27094 0.0
C83 C 0.84783 0.67139 0.26276 0.0
O84 O 0.85439 0.75533 0.05402 0.0
C85 C 0.8327 0.78131 0.0876 0.0
O86 O 0.83333 0.75029 0.12164 0.0
H87 H 0.9065 0.55244 0.17376 0.0
H88 H 0.8445 0.74056 0.21278 0.0
C89 C 0.78983 0.69952 0.93437 0.0
C90 C 0.79915 0.69109 0.88928 0.0
C91 C 0.87016 0.61354 0.90589 0.0
C92 C 0.86132 0.62314 0.95037 0.0
N93 N 0.82124 0.66563 0.96374 0.0
N94 N 0.83921 0.64763 0.87663 0.0
H95 H 0.75785 0.73202 0.94646 0.0
C96 C 0.97827 0.71517 0.08669 0.0
O97 O 0.95096 0.68021 0.05301 0.0
O98 O 0.72803 0.70263 1.02835 0.0
H99 H 0.88615 0.59693 0.97409 0.0
H100 H 0.89658 0.5181 0.24766 0.0
H101 H 0.9017 0.57956 0.89467 0.0
Zn102 Zn 0.37262 0.84072 1.01605 0.0
C103 C 0.33214 0.99143 0.10013 0.0
N104 N 0.38616 1.01164 0.10073 0.0
C105 C 0.41076 0.96114 0.07861 0.0
N106 N 0.37259 0.91262 0.06334 0.0
N107 N 0.32474 0.92994 0.07961 0.0
C108 C 0.18081 0.8586 0.06971 0.0
O109 O 0.20987 0.8425 0.03584 0.0
O110 O 0.45207 0.81646 1.01368 0.0
Zn111 Zn 0.28876 0.86553 0.11047 0.0
N112 N 0.34271 0.87119 0.96026 0.0
C113 C 0.32768 0.96185 0.91759 0.0
C114 C 0.34488 0.93713 0.95726 0.0
C115 C 0.32121 0.82889 0.92533 0.0
N116 N 0.30744 0.91982 0.88261 0.0
C117 C 0.30308 0.85386 0.88523 0.0
O118 O 0.2964 0.76901 0.08841 0.0
C119 C 0.31045 0.73106 0.05589 0.0
O120 O 0.33399 0.75339 1.02457 0.0
H121 H 0.36033 0.97045 0.9854 0.0
H122 H 0.31899 0.77664 0.92857 0.0
C123 C 0.28448 0.84385 0.20046 0.0
C124 C 0.30477 0.844 0.24512 0.0
C125 C 0.38646 0.90382 0.23083 0.0
C126 C 0.36678 0.9019 0.18659 0.0
N127 N 0.31597 0.87273 0.17234 0.0
N128 N 0.3553 0.87479 0.25881 0.0
H129 H 0.24436 0.82108 0.18771 0.0
C130 C 0.47362 0.79747 0.04957 0.0
O131 O 0.44243 0.79635 0.08283 0.0
O132 O 0.20713 0.87977 0.10619 0.0
H133 H 0.39228 0.92266 0.16382 0.0
H134 H 0.33008 1.01414 0.91466 0.0
H135 H 0.42666 0.92726 0.24276 0.0
Zn136 Zn 0.17888 0.64822 0.59945 0.0
C137 C 0.05551 0.7121 0.51896 0.0
N138 N 0.03186 0.6519 0.51713 0.0
C139 C 0.07206 0.61666 0.53738 0.0
N140 N 0.1183 0.65451 0.55237 0.0
N141 N 0.10897 0.71256 0.5379 0.0
C142 C 0.12057 0.8962 0.48675 0.0
O143 O 0.06677 0.90943 0.48826 0.0
O144 O 0.19553 0.55416 0.60555 0.0
Zn145 Zn 0.1649 0.75025 0.50555 0.0
N146 N 0.15484 0.68757 0.65529 0.0
C147 C 0.07979 0.71993 0.69883 0.0
C148 C 0.09866 0.69626 0.65861 0.0
C149 C 0.19334 0.70432 0.69048 0.0
N150 N 0.11794 0.73558 0.73402 0.0
C151 C 0.17449 0.7291 0.73112 0.0
O152 O 0.24596 0.75357 0.53414 0.0
C153 C 0.27625 0.72976 0.56505 0.0
O154 O 0.25506 0.69147 0.59005 0.0
H155 H 0.06855 0.68424 0.63036 0.0
H156 H 0.23791 0.69756 0.68697 0.0
C157 C 0.19195 0.73739 0.41828 0.0
C158 C 0.19478 0.70976 0.37467 0.0
C159 C 0.14689 0.61424 0.39213 0.0
C160 C 0.14459 0.64215 0.43537 0.0
N161 N 0.16685 0.70344 0.44744 0.0
N162 N 0.17165 0.64857 0.36291 0.0
H163 H 0.20862 0.78584 0.42943 0.0
C164 C 0.20919 0.52 0.57145 0.0
O165 O 0.20752 0.54691 0.53414 0.0
O166 O 0.13794 0.83949 0.49406 0.0
H167 H 0.12508 0.61533 0.45885 0.0
H168 H 0.03512 0.72615 0.70203 0.0
H169 H 0.12908 0.56564 0.38182 0.0
Zn170 Zn 0.38603 0.17422 0.63082 0.0
C171 C 0.31552 0.04273 0.53602 0.0
N172 N 0.35402 0.99957 0.54912 0.0
C173 C 0.38893 0.03676 0.57905 0.0
N174 N 0.36995 0.0994 0.58547 0.0
N175 N 0.32612 0.10298 0.55621 0.0
C176 C 0.20161 0.20793 0.56328 0.0
O177 O 0.22687 0.19296 0.60077 0.0
O178 O 0.46049 0.21564 0.62493 0.0
Zn179 Zn 0.30778 0.17924 0.52625 0.0
N180 N 0.37779 0.14905 0.69029 0.0
C181 C 0.38593 0.06744 0.74077 0.0
C182 C 0.39194 0.08714 0.69926 0.0
C183 C 0.35567 0.19165 0.72132 0.0
N184 N 0.36418 0.10967 0.77154 0.0
C185 C 0.34809 0.17141 0.76331 0.0
O186 O 0.35403 0.25528 0.55458 0.0
C187 C 0.3323 0.28125 0.58815 0.0
O188 O 0.33299 0.25027 0.62221 0.0
H189 H 0.40709 0.05271 0.67433 0.0
H190 H 0.34425 0.24044 0.71325 0.0
C191 C 0.28957 0.19944 0.43492 0.0
C192 C 0.29897 0.19105 0.38984 0.0
C193 C 0.37005 0.11362 0.40651 0.0
C194 C 0.36114 0.12319 0.45099 0.0
N195 N 0.32098 0.1656 0.46431 0.0
N196 N 0.3391 0.14766 0.37723 0.0
H197 H 0.25754 0.23189 0.44698 0.0
C198 C 0.4779 0.21523 0.5869 0.0
O199 O 0.45055 0.18014 0.5533 0.0
O200 O 0.2277 0.20261 0.52886 0.0
H201 H 0.38597 0.09701 0.47472 0.0
H202 H 0.3976 1.01846 0.74831 0.0
H203 H 0.40166 0.0797 0.39532 0.0
Zn204 Zn 0.87242 0.34097 0.51587 0.0
C205 C 0.83162 0.4916 0.59985 0.0
N206 N 0.88566 0.51183 0.60057 0.0
C207 C 0.91034 0.46135 0.57851 0.0
N208 N 0.87221 0.41284 0.56315 0.0
N209 N 0.8243 0.43011 0.57931 0.0
C210 C 0.68036 0.35853 0.56951 0.0
O211 O 0.70936 0.34233 0.53561 0.0
O212 O 0.95188 0.31669 0.5137 0.0
Zn213 Zn 0.78839 0.36566 0.6102 0.0
N214 N 0.84272 0.37144 0.46003 0.0
C215 C 0.82796 0.46201 0.41726 0.0
C216 C 0.84506 0.43736 0.45697 0.0
C217 C 0.82118 0.32912 0.42514 0.0
N218 N 0.80767 0.41996 0.38231 0.0
C219 C 0.80315 0.35403 0.385 0.0
O220 O 0.79608 0.26915 0.58811 0.0
C221 C 0.81016 0.23127 0.55556 0.0
O222 O 0.83371 0.25366 0.52428 0.0
H223 H 0.86054 0.4707 0.48509 0.0
H224 H 0.81882 0.27689 0.42843 0.0
C225 C 0.78414 0.34402 0.70021 0.0
C226 C 0.80442 0.34427 0.74488 0.0
C227 C 0.88604 0.4042 0.73056 0.0
C228 C 0.86638 0.40217 0.68632 0.0
N229 N 0.8156 0.3729 0.67207 0.0
N230 N 0.8549 0.37517 0.75857 0.0
H231 H 0.74405 0.32116 0.68747 0.0
C232 C 0.9733 0.29771 0.54963 0.0
O233 O 0.94199 0.29661 0.58281 0.0
O234 O 0.70674 0.37981 0.60595 0.0
H235 H 0.89186 0.42293 0.66354 0.0
H236 H 0.83049 0.51429 0.41427 0.0
H237 H 0.92621 0.42773 0.7425 0.0
Zn238 Zn 0.74305 0.85777 0.53762 0.0
C239 C 0.62213 0.97048 0.58889 0.0
N240 N 0.652 1.02011 0.5763 0.0
C241 C 0.69952 0.99104 0.56463 0.0
N242 N 0.69902 0.92563 0.56969 0.0
N243 N 0.65042 0.91309 0.5863 0.0
C244 C 0.51996 0.77978 0.58083 0.0
O245 O 0.54841 0.76022 0.54721 0.0
O246 O 0.82708 0.87697 0.5346 0.0
Zn247 Zn 0.63164 0.83784 0.6202 0.0
N248 N 0.71415 0.84789 0.47579 0.0
C249 C 0.64457 0.86735 0.41809 0.0
C250 C 0.66303 0.87214 0.46277 0.0
C251 C 0.7475 0.81851 0.44583 0.0
N252 N 0.67785 0.83825 0.38823 0.0
C253 C 0.72913 0.81313 0.40051 0.0
O254 O 0.67505 0.75396 0.60703 0.0
C255 C 0.71411 0.73167 0.58418 0.0
O256 O 0.73885 0.76705 0.5594 0.0
H257 H 0.6371 0.89555 0.48684 0.0
H258 H 0.78825 0.8009 0.45751 0.0
C259 C 0.67513 0.82258 0.71104 0.0
C260 C 0.68908 0.84474 0.75599 0.0
C261 C 0.65572 0.95075 0.74177 0.0
C262 C 0.64216 0.92857 0.69776 0.0
N263 N 0.65216 0.86522 0.68294 0.0
N264 N 0.67867 0.90864 0.76958 0.0
H265 H 0.68144 0.77218 0.69842 0.0
C266 C 0.86602 0.86094 0.56258 0.0
O267 O 0.8523 0.84482 0.60075 0.0
O268 O 0.54581 0.81333 0.6141 0.0
H269 H 0.62352 0.96183 0.67575 0.0
H270 H 0.60409 0.88674 0.40717 0.0
H271 H 0.64797 1.00113 0.75387 0.0
C272 C 0.26806 0.20674 0.31074 0.0
C273 C 0.26767 0.22834 0.35586 0.0
H274 H 0.24493 0.22516 0.24416 0.0
C275 C 0.23959 0.28703 0.36739 0.0
H276 H 0.28929 0.16196 0.30029 0.0
C277 C 0.21322 0.32288 0.33503 0.0
C278 C 0.21426 0.30195 0.2899 0.0
H279 H 0.23898 0.30703 0.40131 0.0
H280 H 0.19254 0.36794 0.34571 0.0
C281 C 0.24189 0.24295 0.27824 0.0
C282 C 0.70059 0.23881 0.31241 0.0
C283 C 0.71388 0.25119 0.27011 0.0
H284 H 0.71964 0.26005 0.38219 0.0
C285 C 0.76093 0.29167 0.26618 0.0
H286 H 0.66439 0.20798 0.31638 0.0
C287 C 0.79177 0.32243 0.30382 0.0
C288 C 0.77717 0.31199 0.3461 0.0
H289 H 0.77177 0.30288 0.23411 0.0
H290 H 0.82592 0.3563 0.29988 0.0
C291 C 0.73237 0.26824 0.35006 0.0
C292 C 0.8041 0.73354 0.37562 0.0
C293 C 0.76331 0.7808 0.36588 0.0
H294 H 0.86286 0.66355 0.35117 0.0
C295 C 0.7531 0.79479 0.32175 0.0
H296 H 0.81287 0.71987 0.4087 0.0
C297 C 0.7818 0.76165 0.2883 0.0
C298 C 0.82152 0.71327 0.29801 0.0
H299 H 0.7221 0.83081 0.31279 0.0
H300 H 0.77102 0.77234 0.25473 0.0
C301 C 0.83266 0.70047 0.34225 0.0
C302 C 0.26223 0.79615 0.35428 0.0
C303 C 0.22174 0.74551 0.34148 0.0
H304 H 0.31862 0.86705 0.33433 0.0
C305 C 0.20795 0.72799 0.29621 0.0
H306 H 0.27582 0.8103 0.38852 0.0
C307 C 0.23375 0.76015 0.26469 0.0
C308 C 0.27404 0.81104 0.27761 0.0
H309 H 0.17726 0.68905 0.28497 0.0
H310 H 0.22285 0.74357 0.23037 0.0
C311 C 0.28764 0.82851 0.32287 0.0
C312 C 0.73995 0.78722 0.86688 0.0
C313 C 0.76786 0.72843 0.85532 0.0
H314 H 0.69304 0.86826 0.84524 0.0
C315 C 0.76809 0.70677 0.8102 0.0
H316 H 0.73947 0.80727 0.9008 0.0
C317 C 0.74192 0.74303 0.77772 0.0
C318 C 0.71446 0.80214 0.78941 0.0
H319 H 0.78918 0.66191 0.79973 0.0
H320 H 0.74484 0.72519 0.74363 0.0
C321 C 0.71358 0.82312 0.83454 0.0
C322 C 0.20055 0.73878 0.81251 0.0
C323 C 0.21389 0.75125 0.77023 0.0
H324 H 0.21956 0.75987 0.8823 0.0
C325 C 0.26098 0.7917 0.76636 0.0
H326 H 0.16432 0.70798 0.81642 0.0
C327 C 0.29181 0.82236 0.80404 0.0
C328 C 0.27716 0.81185 0.84629 0.0
H329 H 0.27185 0.80297 0.73431 0.0
H330 H 0.32598 0.85623 0.80015 0.0
C331 C 0.23233 0.76812 0.85019 0.0
C332 C 0.25297 0.29432 0.8223 0.0
C333 C 0.26337 0.28049 0.86645 0.0
H334 H 0.27078 0.27184 0.75526 0.0
C335 C 0.30439 0.23349 0.87619 0.0
H336 H 0.22178 0.33014 0.81334 0.0
C337 C 0.333 0.20052 0.84281 0.0
C338 C 0.32168 0.21317 0.79856 0.0
H339 H 0.31333 0.21993 0.90928 0.0
H340 H 0.3634 0.16381 0.85174 0.0
C341 C 0.28171 0.26128 0.78884 0.0
C342 C 0.70788 0.22804 0.79604 0.0
C343 C 0.72161 0.24567 0.8413 0.0
H344 H 0.72277 0.24356 0.73018 0.0
C345 C 0.76193 0.2965 0.85407 0.0
H346 H 0.67732 0.18895 0.78481 0.0
C347 C 0.78725 0.32891 0.82265 0.0
C348 C 0.77373 0.31131 0.77739 0.0
H349 H 0.77547 0.31076 0.88831 0.0
H350 H 0.81811 0.36759 0.83408 0.0
C351 C 0.7336 0.26024 0.76449 0.0
C352 C 0.24657 0.12325 0.0512 0.0
C353 C 0.23434 0.16359 0.0888 0.0
H354 H 0.28424 0.03428 1.02571 0.0
C355 C 0.24634 0.14077 0.13043 0.0
H356 H 0.23786 0.1397 1.01877 0.0
C357 C 0.27425 0.081 0.13447 0.0
C358 C 0.28833 0.04196 0.09685 0.0
H359 H 0.23779 0.17128 0.15996 0.0
H360 H 0.28753 0.06706 0.16695 0.0
C361 C 0.27246 0.0626 0.05517 0.0
C362 C 0.86748 0.25235 1.03285 0.0
C363 C 0.83873 0.24347 0.0701 0.0
H364 H 0.94679 0.2693 1.00708 0.0
C365 C 0.87027 0.24727 0.11145 0.0
H366 H 0.84471 0.24935 1.00048 0.0
C367 C 0.92894 0.26056 0.11539 0.0
C368 C 0.95769 0.268 0.07789 0.0
H369 H 0.84946 0.24073 0.14081 0.0
H370 H 0.952 0.26363 0.14765 0.0
C371 C 0.92615 0.26347 0.03662 0.0
C372 C 0.78752 0.86447 0.04216 0.0
C373 C 0.79752 0.83986 0.08335 0.0
H374 H 0.75101 0.93994 1.00591 0.0
C375 C 0.77383 0.87177 0.11987 0.0
H376 H 0.80427 0.84033 1.01313 0.0
C377 C 0.743 0.9291 0.11562 0.0
C378 C 0.73527 0.95524 0.07476 0.0
H379 H 0.78024 0.85342 0.15188 0.0
H380 H 0.72669 0.95394 0.14461 0.0
C381 C 0.75662 0.92142 0.0379 0.0
C382 C 0.04786 0.8046 0.11387 0.0
C383 C 0.02663 0.75709 0.08013 0.0
H384 H 0.11234 0.87642 0.1362 0.0
C385 C 0.0516 0.75062 0.04015 0.0
H386 H 0.02855 0.81179 0.14465 0.0
C387 C 0.09962 0.78799 0.03518 0.0
C388 C 0.12312 0.83233 0.07012 0.0
H389 H 0.03539 0.71504 1.01334 0.0
H390 H 0.11999 0.77939 1.00495 0.0
C391 C 0.09548 0.84219 0.10881 0.0
C392 C 0.26036 0.97309 0.47652 0.0
C393 C 0.26167 0.02239 0.51163 0.0
H394 H 0.21143 0.8956 0.43893 0.0
C395 C 0.21157 0.03994 0.53048 0.0
H396 H 0.2987 0.95907 0.46157 0.0
C397 C 0.16193 1.00361 0.51778 0.0
C398 C 0.16266 0.94877 0.48672 0.0
H399 H 0.21234 0.07565 0.55891 0.0
H400 H 0.12541 1.0133 0.53609 0.0
C401 C 0.21077 0.93661 0.46391 0.0
C402 C 0.05604 0.25538 0.59354 0.0
C403 C 0.03204 0.27616 0.55378 0.0
H404 H 0.12902 0.21722 0.62782 0.0
C405 C 0.06439 0.27527 0.51765 0.0
H406 H 0.03201 0.25584 0.62199 0.0
C407 C 0.11952 0.25305 0.52095 0.0
C408 C 0.14343 0.2315 0.5605 0.0
H409 H 0.04707 0.29128 0.48665 0.0
H410 H 0.14334 0.25281 0.49239 0.0
C411 C 0.11146 0.23327 0.5969 0.0
C412 C 0.76994 0.12518 0.5152 0.0
C413 C 0.79594 0.15986 0.55376 0.0
H414 H 0.71935 0.04055 0.48793 0.0
C415 C 0.80232 0.12775 0.59235 0.0
H416 H 0.76414 0.14881 0.48503 0.0
C417 C 0.77919 0.06456 0.59335 0.0
C418 C 0.74767 0.03276 0.55619 0.0
H419 H 0.82234 0.15313 0.62253 0.0
H420 H 0.78013 0.04405 0.6247 0.0
C421 C 0.7452 0.0626 0.51661 0.0
C422 C 0.97285 0.77681 0.49298 0.0
C423 C 0.01804 0.76921 0.52468 0.0
H424 H 0.89006 0.81467 0.47963 0.0
C425 C 0.01708 0.80316 0.56682 0.0
H426 H 0.97207 0.75019 0.46056 0.0
C427 C 0.96907 0.83784 0.57842 0.0
C428 C 0.92185 0.84098 0.54771 0.0
H429 H 0.05082 0.79717 0.59222 0.0
H430 H 0.96744 0.85845 0.61221 0.0
C431 C 0.92567 0.81345 0.50412 0.0
C432 C 0.74648 0.62354 0.55067 0.0
C433 C 0.73395 0.66377 0.58823 0.0
H434 H 0.78436 0.53465 0.52529 0.0
C435 C 0.74558 0.64083 0.62986 0.0
H436 H 0.73805 0.64008 0.51824 0.0
C437 C 0.77343 0.58104 0.63397 0.0
C438 C 0.78783 0.54212 0.59641 0.0
H439 H 0.73678 0.67124 0.65936 0.0
H440 H 0.78643 0.567 0.66648 0.0
C441 C 0.77233 0.56288 0.5547 0.0
C442 C 0.3672 0.75274 0.53276 0.0
C443 C 0.33848 0.74395 0.57003 0.0
H444 H 0.4465 0.76952 0.50692 0.0
C445 C 0.37007 0.74767 0.61137 0.0
H446 H 0.34439 0.74975 0.5004 0.0
C447 C 0.42876 0.76086 0.61526 0.0
C448 C 0.45747 0.76825 0.57773 0.0
H449 H 0.34929 0.74116 0.64074 0.0
H450 H 0.45185 0.7639 0.64751 0.0
C451 C 0.42588 0.76374 0.53648 0.0
C452 C 0.2557 0.42085 0.53824 0.0
C453 C 0.23474 0.45505 0.57513 0.0
H454 H 0.30308 0.3395 0.5135 0.0
C455 C 0.24282 0.42929 0.6161 0.0
H456 H 0.24979 0.43906 0.50616 0.0
C457 C 0.27367 0.37197 0.62041 0.0
C458 C 0.29701 0.33971 0.58385 0.0
H459 H 0.22682 0.45441 0.64511 0.0
H460 H 0.28038 0.35392 0.6525 0.0
C461 C 0.28662 0.36392 0.54256 0.0
C462 C 0.55112 0.25051 0.54023 0.0
C463 C 0.52621 0.25712 0.58022 0.0
H464 H 0.61946 0.27912 0.5049 0.0
C465 C 0.5475 0.30474 0.61388 0.0
H466 H 0.53488 0.21484 0.51347 0.0
C467 C 0.5951 0.34228 0.60872 0.0
C468 C 0.62268 0.33228 0.57001 0.0
H469 H 0.52823 0.31204 0.64469 0.0
H470 H 0.612 0.3766 0.63605 0.0
C471 C 0.59913 0.28784 0.53515 0.0
C472 C 0.76038 0.47355 0.97591 0.0
C473 C 0.76186 0.52257 1.01119 0.0
H474 H 0.71134 0.39614 0.93831 0.0
C475 C 0.71186 0.53996 1.03026 0.0
H476 H 0.79863 0.45966 0.9608 0.0
C477 C 0.6622 0.50362 1.01764 0.0
C478 C 0.66283 0.44891 0.98647 0.0
H479 H 0.71276 0.57547 0.05881 0.0
H480 H 0.62584 0.51307 0.03617 0.0
C481 C 0.71075 0.43707 0.96337 0.0
C482 C 0.61971 0.75274 1.02057 0.0
C483 C 0.64379 0.73134 0.06011 0.0
H484 H 0.5471 0.79082 0.98637 0.0
C485 C 0.61197 0.7332 0.0966 0.0
H486 H 0.6434 0.75241 0.99194 0.0
C487 C 0.55654 0.75527 0.09334 0.0
C488 C 0.53237 0.77592 0.0536 0.0
H489 H 0.62966 0.71727 0.12752 0.0
H490 H 0.53264 0.75581 0.12186 0.0
C491 C 0.56455 0.77492 1.01737 0.0
C492 C 0.2794 0.56452 0.0939 0.0
C493 C 0.24795 0.53259 0.05675 0.0
H494 H 0.3225 0.65315 0.123 0.0
C495 C 0.24555 0.56229 1.01712 0.0
H496 H 0.28027 0.5441 0.12528 0.0
C497 C 0.27031 0.62484 1.01563 0.0
C498 C 0.29624 0.65965 0.05418 0.0
H499 H 0.21976 0.54012 0.98844 0.0
H500 H 0.26456 0.64836 0.98541 0.0
C501 C 0.30254 0.62768 0.09283 0.0
C502 C 0.42584 0.31356 1.00436 0.0
C503 C 0.42207 0.34088 0.048 0.0
H504 H 0.47216 0.25055 0.96061 0.0
C505 C 0.46933 0.33757 0.07866 0.0
H506 H 0.39019 0.31493 0.97991 0.0
C507 C 0.51732 0.30296 0.06693 0.0
C508 C 0.51824 0.26924 1.02472 0.0
H509 H 0.46774 0.35801 0.11249 0.0
H510 H 0.55108 0.29684 0.09229 0.0
C511 C 0.473 0.27699 0.99308 0.0
C512 C 0.96465 0.45368 0.07027 0.0
C513 C 0.94712 0.51372 0.09123 0.0
H514 H 0.03445 0.39593 0.05085 0.0
C515 C 0.98776 0.55376 0.11754 0.0
H516 H 0.9351 0.42141 0.04917 0.0
C517 C 0.04483 0.53635 0.12041 0.0
C518 C 0.06231 0.47852 0.09698 0.0
H519 H 0.97605 0.59952 0.13456 0.0
H520 H 0.07577 0.56998 0.13892 0.0
C521 C 0.02165 0.43745 0.07213 0.0
C522 C 0.4827 0.96816 1.02458 0.0
C523 C 0.47006 0.96822 0.06831 0.0
H524 H 0.52964 1.01606 0.98006 0.0
C525 C 0.50883 0.99869 0.10182 0.0
H526 H 0.45468 0.9442 0.99804 0.0
C527 C 0.55287 0.03896 0.09156 0.0
C528 C 0.55766 0.04996 0.04771 0.0
H529 H 0.50055 0.99867 0.13602 0.0
H530 H 0.57719 0.06839 0.11798 0.0
C531 C 0.52628 1.00905 1.01434 0.0
C532 C 0.00832 0.49898 0.60198 0.0
C533 C 0.96971 0.46842 0.56838 0.0
H534 H 0.07664 0.56869 0.61828 0.0
C535 C 0.98263 0.46819 0.52471 0.0
H536 H 0.99981 0.4991 0.63614 0.0
C537 C 0.02634 0.50898 0.51456 0.0
C538 C 0.05757 0.54996 0.54798 0.0
H539 H 0.95474 0.44418 0.4981 0.0
H540 H 0.02993 0.51586 0.48029 0.0
C541 C 0.05247 0.53915 0.59182 0.0
C542 C 0.48774 0.05395 0.61764 0.0
C543 C 0.44699 1.01383 0.59151 0.0
H544 H 0.57585 0.07028 0.63865 0.0
C545 C 0.46445 0.9538 0.57049 0.0
H546 H 0.4761 0.0997 0.6347 0.0
C547 C 0.52145 0.93766 0.57208 0.0
C548 C 0.5622 0.97878 0.59677 0.0
H549 H 0.43481 0.92147 0.54951 0.0
H550 H 0.53415 0.89616 0.55074 0.0
C551 C 0.54482 0.03661 0.62027 0.0
loop_
_geom_bond_atom_site_label_1
_geom_bond_atom_site_label_2
_geom_bond_distance
_geom_bond_site_symmetry_2
_ccdc_geom_bond_type
Zn0 N4 2.020 . S
Zn0 O8 2.019 1_554 S
Zn0 N10 2.119 1_554 S
Zn0 O18 1.975 . S
C1 N2 1.334 . S
C1 N5 1.336 . S
N2 C1 1.334 . S
N2 C3 1.334 . S
C3 N2 1.334 . S
C3 N4 1.336 . S
N4 Zn0 2.020 . S
N4 C3 1.336 . S
N4 N5 1.354 . S
N5 C1 1.336 . S
N5 N4 1.354 . S
N5 Zn9 2.020 . S
C6 O7 1.244 . S
C6 O30 1.257 . S
O7 C6 1.244 . S
O8 Zn0 2.019 1_556 S
O8 C28 1.257 1_556 S
Zn9 N5 2.020 . S
Zn9 O16 1.975 . S
Zn9 N25 2.119 . S
Zn9 O30 2.019 . S
N10 Zn0 2.119 1_556 S
N10 C12 1.334 . S
N10 C13 1.328 . S
C11 C12 1.391 . S
C11 N14 1.329 . S
C11 H32 0.930 . S
C12 N10 1.334 . S
C12 C11 1.391 . S
C12 H19 0.930 . S
C13 N10 1.328 . S
C13 C15 1.392 . S
C13 H20 0.930 . S
N14 C11 1.329 . S
N14 C15 1.331 . S
C15 C13 1.392 . S
C15 N14 1.331 . S
O16 Zn9 1.975 . S
O16 C17 1.252 . S
C17 O16 1.252 . S
C17 O18 1.252 . S
O18 Zn0 1.975 . S
O18 C17 1.252 . S
H19 C12 0.930 . S
H20 C13 0.930 . S
C21 C22 1.392 . S
C21 N25 1.328 . S
C21 H27 0.930 . S
C22 C21 1.392 . S
C22 N26 1.331 . S
C23 C24 1.391 . S
C23 N26 1.329 . S
C23 H33 0.930 . S
C24 C23 1.391 . S
C24 N25 1.334 . S
C24 H31 0.930 . S
N25 Zn9 2.119 . S
N25 C21 1.328 . S
N25 C24 1.334 . S
N26 C22 1.331 . S
N26 C23 1.329 . S
H27 C21 0.930 . S
C28 O8 1.257 1_554 S
C28 O29 1.244 . S
O29 C28 1.244 . S
O30 C6 1.257 . S
O30 Zn9 2.019 . S
H31 C24 0.930 . S
H32 C11 0.930 . S
H33 C23 0.930 . S
Zn34 N38 2.020 . S
Zn34 O42 2.019 . S
Zn34 N44 2.119 . S
Zn34 O52 1.975 . S
C35 N36 1.334 1_556 S
C35 N39 1.336 1_556 S
N36 C35 1.334 1_554 S
N36 C37 1.334 . S
C37 N36 1.334 . S
C37 N38 1.336 . S
N38 Zn34 2.020 . S
N38 C37 1.336 . S
N38 N39 1.354 . S
N39 C35 1.336 1_554 S
N39 N38 1.354 . S
N39 Zn43 2.020 1_554 S
C40 O41 1.244 1_556 S
C40 O64 1.257 . S
O41 C40 1.244 1_554 S
O42 Zn34 2.019 . S
O42 C62 1.257 . S
Zn43 N39 2.020 1_556 S
Zn43 O50 1.975 1_556 S
Zn43 N59 2.119 . S
Zn43 O64 2.019 . S
N44 Zn34 2.119 . S
N44 C46 1.334 . S
N44 C47 1.328 . S
C45 C46 1.391 . S
C45 N48 1.329 . S
C45 H66 0.930 . S
C46 N44 1.334 . S
C46 C45 1.391 . S
C46 H53 0.930 . S
C47 N44 1.328 . S
C47 C49 1.392 . S
C47 H54 0.930 . S
N48 C45 1.329 . S
N48 C49 1.331 . S
C49 C47 1.392 . S
C49 N48 1.331 . S
O50 Zn43 1.975 1_554 S
O50 C51 1.252 . S
C51 O50 1.252 . S
C51 O52 1.252 . S
O52 Zn34 1.975 . S
O52 C51 1.252 . S
H53 C46 0.930 . S
H54 C47 0.930 . S
C55 C56 1.392 . S
C55 N59 1.328 . S
C55 H61 0.930 . S
C56 C55 1.392 . S
C56 N60 1.331 . S
C57 C58 1.391 . S
C57 N60 1.329 . S
C57 H67 0.930 . S
C58 C57 1.391 . S
C58 N59 1.334 . S
C58 H65 0.930 . S
N59 Zn43 2.119 . S
N59 C55 1.328 . S
N59 C58 1.334 . S
N60 C56 1.331 . S
N60 C57 1.329 . S
H61 C55 0.930 . S
C62 O42 1.257 . S
C62 O63 1.245 . S
O63 C62 1.245 . S
O64 C40 1.257 . S
O64 Zn43 2.019 . S
H65 C58 0.930 . S
H66 C45 0.930 . S
H67 C57 0.930 . S
Zn68 N72 2.020 . S
Zn68 O76 2.019 . S
Zn68 N78 2.119 . S
Zn68 O86 1.975 . S
C69 N70 1.334 . S
C69 N73 1.336 . S
N70 C69 1.334 . S
N70 C71 1.334 . S
C71 N70 1.334 . S
C71 N72 1.336 . S
N72 Zn68 2.020 . S
N72 C71 1.336 . S
N72 N73 1.354 . S
N73 C69 1.336 . S
N73 N72 1.354 . S
N73 Zn77 2.020 . S
C74 O75 1.244 . S
C74 O98 1.257 1_554 S
O75 C74 1.244 . S
O76 Zn68 2.019 . S
O76 C96 1.257 . S
Zn77 N73 2.020 . S
Zn77 O84 1.975 . S
Zn77 N93 2.119 1_554 S
Zn77 O98 2.019 1_554 S
N78 Zn68 2.119 . S
N78 C80 1.334 . S
N78 C81 1.328 . S
C79 C80 1.391 . S
C79 N82 1.329 . S
C79 H100 0.930 . S
C80 N78 1.334 . S
C80 C79 1.391 . S
C80 H87 0.930 . S
C81 N78 1.328 . S
C81 C83 1.392 . S
C81 H88 0.930 . S
N82 C79 1.329 . S
N82 C83 1.331 . S
C83 C81 1.392 . S
C83 N82 1.331 . S
O84 Zn77 1.975 . S
O84 C85 1.252 . S
C85 O84 1.252 . S
C85 O86 1.252 . S
O86 Zn68 1.975 . S
O86 C85 1.252 . S
H87 C80 0.930 . S
H88 C81 0.930 . S
C89 C90 1.392 . S
C89 N93 1.328 . S
C89 H95 0.930 . S
C90 C89 1.392 . S
C90 N94 1.331 . S
C91 C92 1.391 . S
C91 N94 1.329 . S
C91 H101 0.930 . S
C92 C91 1.391 . S
C92 N93 1.334 . S
C92 H99 0.930 . S
N93 Zn77 2.119 1_556 S
N93 C89 1.328 . S
N93 C92 1.334 . S
N94 C90 1.331 . S
N94 C91 1.329 . S
H95 C89 0.930 . S
C96 O76 1.257 . S
C96 O97 1.244 . S
O97 C96 1.244 . S
O98 C74 1.257 1_556 S
O98 Zn77 2.019 1_556 S
H99 C92 0.930 . S
H100 C79 0.930 . S
H101 C91 0.930 . S
Zn102 N106 2.020 1_556 S
Zn102 O110 2.019 . S
Zn102 N112 2.119 . S
Zn102 O120 1.975 1_556 S
C103 N104 1.334 . S
C103 N107 1.336 . S
N104 C103 1.334 . S
N104 C105 1.334 . S
C105 N104 1.334 . S
C105 N106 1.336 . S
N106 Zn102 2.020 1_554 S
N106 C105 1.336 . S
N106 N107 1.354 . S
N107 C103 1.336 . S
N107 N106 1.354 . S
N107 Zn111 2.020 . S
C108 O109 1.244 . S
C108 O132 1.257 . S
O109 C108 1.244 . S
O110 Zn102 2.019 . S
O110 C130 1.257 1_556 S
Zn111 N107 2.020 . S
Zn111 O118 1.975 . S
Zn111 N127 2.119 . S
Zn111 O132 2.019 . S
N112 Zn102 2.119 . S
N112 C114 1.334 . S
N112 C115 1.328 . S
C113 C114 1.391 . S
C113 N116 1.329 . S
C113 H134 0.930 . S
C114 N112 1.334 . S
C114 C113 1.391 . S
C114 H121 0.930 . S
C115 N112 1.328 . S
C115 C117 1.392 . S
C115 H122 0.930 . S
N116 C113 1.329 . S
N116 C117 1.331 . S
C117 C115 1.392 . S
C117 N116 1.331 . S
O118 Zn111 1.975 . S
O118 C119 1.252 . S
C119 O118 1.252 . S
C119 O120 1.252 . S
O120 Zn102 1.975 1_554 S
O120 C119 1.252 . S
H121 C114 0.930 . S
H122 C115 0.930 . S
C123 C124 1.392 . S
C123 N127 1.328 . S
C123 H129 0.930 . S
C124 C123 1.392 . S
C124 N128 1.331 . S
C125 C126 1.391 . S
C125 N128 1.329 . S
C125 H135 0.930 . S
C126 C125 1.391 . S
C126 N127 1.334 . S
C126 H133 0.930 . S
N127 Zn111 2.119 . S
N127 C123 1.328 . S
N127 C126 1.334 . S
N128 C124 1.331 . S
N128 C125 1.329 . S
H129 C123 0.930 . S
C130 O110 1.257 1_554 S
C130 O131 1.244 . S
O131 C130 1.244 . S
O132 C108 1.257 . S
O132 Zn111 2.019 . S
H133 C126 0.930 . S
H134 C113 0.930 . S
H135 C125 0.930 . S
Zn136 N140 2.020 . S
Zn136 O144 2.019 . S
Zn136 N146 2.119 . S
Zn136 O154 1.975 . S
C137 N138 1.334 . S
C137 N141 1.336 . S
N138 C137 1.334 . S
N138 C139 1.334 . S
C139 N138 1.334 . S
C139 N140 1.336 . S
N140 Zn136 2.020 . S
N140 C139 1.336 . S
N140 N141 1.354 . S
N141 C137 1.336 . S
N141 N140 1.354 . S
N141 Zn145 2.020 . S
C142 O143 1.244 . S
C142 O166 1.257 . S
O143 C142 1.244 . S
O144 Zn136 2.019 . S
O144 C164 1.257 . S
Zn145 N141 2.020 . S
Zn145 O152 1.975 . S
Zn145 N161 2.119 . S
Zn145 O166 2.019 . S
N146 Zn136 2.119 . S
N146 C148 1.334 . S
N146 C149 1.328 . S
C147 C148 1.391 . S
C147 N150 1.329 . S
C147 H168 0.930 . S
C148 N146 1.334 . S
C148 C147 1.391 . S
C148 H155 0.930 . S
C149 N146 1.328 . S
C149 C151 1.392 . S
C149 H156 0.930 . S
N150 C147 1.329 . S
N150 C151 1.331 . S
C151 C149 1.392 . S
C151 N150 1.331 . S
O152 Zn145 1.975 . S
O152 C153 1.252 . S
C153 O152 1.252 . S
C153 O154 1.252 . S
O154 Zn136 1.975 . S
O154 C153 1.252 . S
H155 C148 0.930 . S
H156 C149 0.930 . S
C157 C158 1.392 . S
C157 N161 1.328 . S
C157 H163 0.930 . S
C158 C157 1.392 . S
C158 N162 1.331 . S
C159 C160 1.391 . S
C159 N162 1.329 . S
C159 H169 0.930 . S
C160 C159 1.391 . S
C160 N161 1.334 . S
C160 H167 0.930 . S
N161 Zn145 2.119 . S
N161 C157 1.328 . S
N161 C160 1.334 . S
N162 C158 1.331 . S
N162 C159 1.329 . S
H163 C157 0.930 . S
C164 O144 1.257 . S
C164 O165 1.244 . S
O165 C164 1.244 . S
O166 C142 1.257 . S
O166 Zn145 2.019 . S
H167 C160 0.930 . S
H168 C147 0.930 . S
H169 C159 0.930 . S
Zn170 N174 2.020 . S
Zn170 O178 2.019 . S
Zn170 N180 2.119 . S
Zn170 O188 1.975 . S
C171 N172 1.334 . S
C171 N175 1.336 . S
N172 C171 1.334 . S
N172 C173 1.334 . S
C173 N172 1.334 . S
C173 N174 1.336 . S
N174 Zn170 2.020 . S
N174 C173 1.336 . S
N174 N175 1.354 . S
N175 C171 1.336 . S
N175 N174 1.354 . S
N175 Zn179 2.020 . S
C176 O177 1.244 . S
C176 O200 1.257 . S
O177 C176 1.244 . S
O178 Zn170 2.019 . S
O178 C198 1.257 . S
Zn179 N175 2.020 . S
Zn179 O186 1.975 . S
Zn179 N195 2.119 . S
Zn179 O200 2.019 . S
N180 Zn170 2.119 . S
N180 C182 1.334 . S
N180 C183 1.328 . S
C181 C182 1.391 . S
C181 N184 1.329 . S
C181 H202 0.930 . S
C182 N180 1.334 . S
C182 C181 1.391 . S
C182 H189 0.930 . S
C183 N180 1.328 . S
C183 C185 1.392 . S
C183 H190 0.930 . S
N184 C181 1.329 . S
N184 C185 1.331 . S
C185 C183 1.392 . S
C185 N184 1.331 . S
O186 Zn179 1.975 . S
O186 C187 1.252 . S
C187 O186 1.252 . S
C187 O188 1.252 . S
O188 Zn170 1.975 . S
O188 C187 1.252 . S
H189 C182 0.930 . S
H190 C183 0.930 . S
C191 C192 1.392 . S
C191 N195 1.328 . S
C191 H197 0.930 . S
C192 C191 1.392 . S
C192 N196 1.331 . S
C193 C194 1.391 . S
C193 N196 1.329 . S
C193 H203 0.930 . S
C194 C193 1.391 . S
C194 N195 1.334 . S
C194 H201 0.930 . S
N195 Zn179 2.119 . S
N195 C191 1.328 . S
N195 C194 1.334 . S
N196 C192 1.331 . S
N196 C193 1.329 . S
H197 C191 0.930 . S
C198 O178 1.257 . S
C198 O199 1.244 . S
O199 C198 1.244 . S
O200 C176 1.257 . S
O200 Zn179 2.019 . S
H201 C194 0.930 . S
H202 C181 0.930 . S
H203 C193 0.930 . S
Zn204 N208 2.020 . S
Zn204 O212 2.019 . S
Zn204 N214 2.119 . S
Zn204 O222 1.975 . S
C205 N206 1.334 . S
C205 N209 1.336 . S
N206 C205 1.334 . S
N206 C207 1.334 . S
C207 N206 1.334 . S
C207 N208 1.336 . S
N208 Zn204 2.020 . S
N208 C207 1.336 . S
N208 N209 1.354 . S
N209 C205 1.336 . S
N209 N208 1.354 . S
N209 Zn213 2.020 . S
C210 O211 1.244 . S
C210 O234 1.257 . S
O211 C210 1.244 . S
O212 Zn204 2.019 . S
O212 C232 1.257 . S
Zn213 N209 2.020 . S
Zn213 O220 1.975 . S
Zn213 N229 2.119 . S
Zn213 O234 2.019 . S
N214 Zn204 2.119 . S
N214 C216 1.334 . S
N214 C217 1.328 . S
C215 C216 1.391 . S
C215 N218 1.329 . S
C215 H236 0.930 . S
C216 N214 1.334 . S
C216 C215 1.391 . S
C216 H223 0.930 . S
C217 N214 1.328 . S
C217 C219 1.392 . S
C217 H224 0.930 . S
N218 C215 1.329 . S
N218 C219 1.331 . S
C219 C217 1.392 . S
C219 N218 1.331 . S
O220 Zn213 1.975 . S
O220 C221 1.252 . S
C221 O220 1.252 . S
C221 O222 1.252 . S
O222 Zn204 1.975 . S
O222 C221 1.252 . S
H223 C216 0.930 . S
H224 C217 0.930 . S
C225 C226 1.392 . S
C225 N229 1.328 . S
C225 H231 0.930 . S
C226 C225 1.392 . S
C226 N230 1.331 . S
C227 C228 1.391 . S
C227 N230 1.329 . S
C227 H237 0.930 . S
C228 C227 1.391 . S
C228 N229 1.334 . S
C228 H235 0.930 . S
N229 Zn213 2.119 . S
N229 C225 1.328 . S
N229 C228 1.334 . S
N230 C226 1.331 . S
N230 C227 1.329 . S
H231 C225 0.930 . S
C232 O212 1.257 . S
C232 O233 1.244 . S
O233 C232 1.244 . S
O234 C210 1.257 . S
O234 Zn213 2.019 . S
H235 C228 0.930 . S
H236 C215 0.930 . S
H237 C227 0.930 . S
Zn238 N242 2.020 . S
Zn238 O246 2.019 . S
Zn238 N248 2.119 . S
Zn238 O256 1.975 . S
C239 N240 1.334 . S
C239 N243 1.336 . S
N240 C239 1.334 . S
N240 C241 1.334 . S
C241 N240 1.334 . S
C241 N242 1.336 . S
N242 Zn238 2.020 . S
N242 C241 1.336 . S
N242 N243 1.354 . S
N243 C239 1.336 . S
N243 N242 1.354 . S
N243 Zn247 2.020 . S
C244 O245 1.244 . S
C244 O268 1.257 . S
O245 C244 1.244 . S
O246 Zn238 2.019 . S
O246 C266 1.257 . S
Zn247 N243 2.020 . S
Zn247 O254 1.975 . S
Zn247 N263 2.119 . S
Zn247 O268 2.019 . S
N248 Zn238 2.119 . S
N248 C250 1.334 . S
N248 C251 1.328 . S
C249 C250 1.391 . S
C249 N252 1.329 . S
C249 H270 0.930 . S
C250 N248 1.334 . S
C250 C249 1.391 . S
C250 H257 0.930 . S
C251 N248 1.328 . S
C251 C253 1.392 . S
C251 H258 0.930 . S
N252 C249 1.329 . S
N252 C253 1.331 . S
C253 C251 1.392 . S
C253 N252 1.331 . S
O254 Zn247 1.975 . S
O254 C255 1.252 . S
C255 O254 1.252 . S
C255 O256 1.252 . S
O256 Zn238 1.975 . S
O256 C255 1.252 . S
H257 C250 0.930 . S
H258 C251 0.930 . S
C259 C260 1.392 . S
C259 N263 1.328 . S
C259 H265 0.930 . S
C260 C259 1.392 . S
C260 N264 1.331 . S
C261 C262 1.391 . S
C261 N264 1.329 . S
C261 H271 0.930 . S
C262 C261 1.391 . S
C262 N263 1.334 . S
C262 H269 0.930 . S
N263 Zn247 2.119 . S
N263 C259 1.328 . S
N263 C262 1.334 . S
N264 C260 1.331 . S
N264 C261 1.329 . S
H265 C259 0.930 . S
C266 O246 1.257 . S
C266 O267 1.244 . S
O267 C266 1.244 . S
O268 C244 1.257 . S
O268 Zn247 2.019 . S
H269 C262 0.930 . S
H270 C249 0.930 . S
H271 C261 0.930 . S
C272 C273 1.387 . S
C272 H276 0.950 . S
C272 C281 1.390 . S
C273 C272 1.387 . S
C273 C275 1.387 . S
H274 C281 0.950 . S
C275 C273 1.387 . S
C275 C277 1.390 . S
C275 H279 0.950 . S
H276 C272 0.950 . S
C277 C275 1.390 . S
C277 C278 1.387 . S
C277 H280 0.950 . S
C278 C277 1.387 . S
C278 C281 1.387 . S
H279 C275 0.950 . S
H280 C277 0.950 . S
C281 C272 1.390 . S
C281 H274 0.950 . S
C281 C278 1.387 . S
C282 C283 1.387 . S
C282 H286 0.950 . S
C282 C291 1.390 . S
C283 C282 1.387 . S
C283 C285 1.387 . S
H284 C291 0.950 . S
C285 C283 1.387 . S
C285 C287 1.390 . S
C285 H289 0.950 . S
H286 C282 0.950 . S
C287 C285 1.390 . S
C287 C288 1.387 . S
C287 H290 0.950 . S
C288 C287 1.387 . S
C288 C291 1.387 . S
H289 C285 0.950 . S
H290 C287 0.950 . S
C291 C282 1.390 . S
C291 H284 0.950 . S
C291 C288 1.387 . S
C292 C293 1.387 . S
C292 H296 0.950 . S
C292 C301 1.390 . S
C293 C292 1.387 . S
C293 C295 1.387 . S
H294 C301 0.950 . S
C295 C293 1.387 . S
C295 C297 1.390 . S
C295 H299 0.950 . S
H296 C292 0.950 . S
C297 C295 1.390 . S
C297 C298 1.387 . S
C297 H300 0.950 . S
C298 C297 1.387 . S
C298 C301 1.387 . S
H299 C295 0.950 . S
H300 C297 0.950 . S
C301 C292 1.390 . S
C301 H294 0.950 . S
C301 C298 1.387 . S
C302 C303 1.387 . S
C302 H306 0.950 . S
C302 C311 1.390 . S
C303 C302 1.387 . S
C303 C305 1.387 . S
H304 C311 0.950 . S
C305 C303 1.387 . S
C305 C307 1.390 . S
C305 H309 0.950 . S
H306 C302 0.950 . S
C307 C305 1.390 . S
C307 C308 1.387 . S
C307 H310 0.950 . S
C308 C307 1.387 . S
C308 C311 1.387 . S
H309 C305 0.950 . S
H310 C307 0.950 . S
C311 C302 1.390 . S
C311 H304 0.950 . S
C311 C308 1.387 . S
C312 C313 1.387 . S
C312 H316 0.950 . S
C312 C321 1.390 . S
C313 C312 1.387 . S
C313 C315 1.387 . S
H314 C321 0.950 . S
C315 C313 1.387 . S
C315 C317 1.390 . S
C315 H319 0.950 . S
H316 C312 0.950 . S
C317 C315 1.390 . S
C317 C318 1.387 . S
C317 H320 0.950 . S
C318 C317 1.387 . S
C318 C321 1.387 . S
H319 C315 0.950 . S
H320 C317 0.950 . S
C321 C312 1.390 . S
C321 H314 0.950 . S
C321 C318 1.387 . S
C322 C323 1.387 . S
C322 H326 0.950 . S
C322 C331 1.390 . S
C323 C322 1.387 . S
C323 C325 1.387 . S
H324 C331 0.950 . S
C325 C323 1.387 . S
C325 C327 1.390 . S
C325 H329 0.950 . S
H326 C322 0.950 . S
C327 C325 1.390 . S
C327 C328 1.387 . S
C327 H330 0.950 . S
C328 C327 1.387 . S
C328 C331 1.387 . S
H329 C325 0.950 . S
H330 C327 0.950 . S
C331 C322 1.390 . S
C331 H324 0.950 . S
C331 C328 1.387 . S
C332 C333 1.387 . S
C332 H336 0.950 . S
C332 C341 1.390 . S
C333 C332 1.387 . S
C333 C335 1.387 . S
H334 C341 0.950 . S
C335 C333 1.387 . S
C335 C337 1.390 . S
C335 H339 0.950 . S
H336 C332 0.950 . S
C337 C335 1.390 . S
C337 C338 1.387 . S
C337 H340 0.950 . S
C338 C337 1.387 . S
C338 C341 1.387 . S
H339 C335 0.950 . S
H340 C337 0.950 . S
C341 C332 1.390 . S
C341 H334 0.950 . S
C341 C338 1.387 . S
C342 C343 1.387 . S
C342 H346 0.950 . S
C342 C351 1.390 . S
C343 C342 1.387 . S
C343 C345 1.387 . S
H344 C351 0.950 . S
C345 C343 1.387 . S
C345 C347 1.390 . S
C345 H349 0.950 . S
H346 C342 0.950 . S
C347 C345 1.390 . S
C347 C348 1.387 . S
C347 H350 0.950 . S
C348 C347 1.387 . S
C348 C351 1.387 . S
H349 C345 0.950 . S
H350 C347 0.950 . S
C351 C342 1.390 . S
C351 H344 0.950 . S
C351 C348 1.387 . S
C352 C353 1.387 . S
C352 H356 0.950 1_554 S
C352 C361 1.390 . S
C353 C352 1.387 . S
C353 C355 1.387 . S
H354 C361 0.950 1_566 S
C355 C353 1.387 . S
C355 C357 1.390 . S
C355 H359 0.950 . S
H356 C352 0.950 1_556 S
C357 C355 1.390 . S
C357 C358 1.387 1_545 S
C357 H360 0.950 . S
C358 C357 1.387 1_565 S
C358 C361 1.387 1_565 S
H359 C355 0.950 . S
H360 C357 0.950 . S
C361 C352 1.390 . S
C361 H354 0.950 1_544 S
C361 C358 1.387 1_545 S
C362 C363 1.387 1_556 S
C362 H366 0.950 . S
C362 C371 1.390 1_556 S
C363 C362 1.387 1_554 S
C363 C365 1.387 . S
H364 C371 0.950 1_556 S
C365 C363 1.387 . S
C365 C367 1.390 . S
C365 H369 0.950 . S
H366 C362 0.950 . S
C367 C365 1.390 . S
C367 C368 1.387 . S
C367 H370 0.950 . S
C368 C367 1.387 . S
C368 C371 1.387 . S
H369 C365 0.950 . S
H370 C367 0.950 . S
C371 C362 1.390 1_554 S
C371 H364 0.950 1_554 S
C371 C368 1.387 . S
C372 C373 1.387 . S
C372 H376 0.950 . S
C372 C381 1.390 . S
C373 C372 1.387 . S
C373 C375 1.387 . S
H374 C381 0.950 1_556 S
C375 C373 1.387 . S
C375 C377 1.390 . S
C375 H379 0.950 . S
H376 C372 0.950 . S
C377 C375 1.390 . S
C377 C378 1.387 . S
C377 H380 0.950 . S
C378 C377 1.387 . S
C378 C381 1.387 . S
H379 C375 0.950 . S
H380 C377 0.950 . S
C381 C372 1.390 . S
C381 H374 0.950 1_554 S
C381 C378 1.387 . S
C382 C383 1.387 . S
C382 H386 0.950 . S
C382 C391 1.390 . S
C383 C382 1.387 . S
C383 C385 1.387 . S
H384 C391 0.950 . S
C385 C383 1.387 . S
C385 C387 1.390 . S
C385 H389 0.950 . S
H386 C382 0.950 . S
C387 C385 1.390 . S
C387 C388 1.387 . S
C387 H390 0.950 . S
C388 C387 1.387 . S
C388 C391 1.387 . S
H389 C385 0.950 . S
H390 C387 0.950 . S
C391 C382 1.390 . S
C391 H384 0.950 . S
C391 C388 1.387 . S
C392 C393 1.387 . S
C392 H396 0.950 . S
C392 C401 1.390 1_545 S
C393 C392 1.387 . S
C393 C395 1.387 . S
H394 C401 0.950 . S
C395 C393 1.387 . S
C395 C397 1.390 1_545 S
C395 H399 0.950 . S
H396 C392 0.950 . S
C397 C395 1.390 1_565 S
C397 C398 1.387 . S
C397 H400 0.950 . S
C398 C397 1.387 . S
C398 C401 1.387 . S
H399 C395 0.950 . S
H400 C397 0.950 . S
C401 C392 1.390 1_565 S
C401 H394 0.950 . S
C401 C398 1.387 . S
C402 C403 1.387 1_455 S
C402 H406 0.950 . S
C402 C411 1.390 . S
C403 C402 1.387 1_655 S
C403 C405 1.387 1_655 S
H404 C411 0.950 . S
C405 C403 1.387 1_455 S
C405 C407 1.390 . S
C405 H409 0.955 . S
H406 C402 0.950 . S
C407 C405 1.390 . S
C407 C408 1.387 . S
C407 H410 0.950 . S
C408 C407 1.387 . S
C408 C411 1.387 . S
H409 C405 0.955 . S
H410 C407 0.950 . S
C411 C402 1.390 . S
C411 H404 0.950 . S
C411 C408 1.387 . S
C412 C413 1.387 . S
C412 H416 0.950 . S
C412 C421 1.390 . S
C413 C412 1.387 . S
C413 C415 1.387 . S
H414 C421 0.950 1_565 S
C415 C413 1.387 . S
C415 C417 1.390 . S
C415 H419 0.950 . S
H416 C412 0.950 . S
C417 C415 1.390 . S
C417 C418 1.387 1_545 S
C417 H420 0.950 . S
C418 C417 1.387 1_565 S
C418 C421 1.387 1_565 S
H419 C415 0.950 . S
H420 C417 0.950 . S
C421 C412 1.390 . S
C421 H414 0.950 1_545 S
C421 C418 1.387 1_545 S
C422 C423 1.387 . S
C422 H426 0.950 . S
C422 C431 1.390 1_455 S
C423 C422 1.387 . S
C423 C425 1.387 . S
H424 C431 0.950 . S
C425 C423 1.387 . S
C425 C427 1.390 1_455 S
C425 H429 0.950 . S
H426 C422 0.950 . S
C427 C425 1.390 1_655 S
C427 C428 1.387 . S
C427 H430 0.950 . S
C428 C427 1.387 . S
C428 C431 1.387 . S
H429 C425 0.950 . S
H430 C427 0.950 . S
C431 C422 1.390 1_655 S
C431 H424 0.950 . S
C431 C428 1.387 . S
C432 C433 1.387 . S
C432 H436 0.950 . S
C432 C441 1.390 . S
C433 C432 1.387 . S
C433 C435 1.387 . S
H434 C441 0.950 . S
C435 C433 1.387 . S
C435 C437 1.390 . S
C435 H439 0.950 . S
H436 C432 0.950 . S
C437 C435 1.390 . S
C437 C438 1.387 . S
C437 H440 0.950 . S
C438 C437 1.387 . S
C438 C441 1.387 . S
H439 C435 0.950 . S
H440 C437 0.950 . S
C441 C432 1.390 . S
C441 H434 0.950 . S
C441 C438 1.387 . S
C442 C443 1.387 . S
C442 H446 0.950 . S
C442 C451 1.390 . S
C443 C442 1.387 . S
C443 C445 1.387 . S
H444 C451 0.950 . S
C445 C443 1.387 . S
C445 C447 1.390 . S
C445 H449 0.950 . S
H446 C442 0.950 . S
C447 C445 1.390 . S
C447 C448 1.387 . S
C447 H450 0.950 . S
C448 C447 1.387 . S
C448 C451 1.387 . S
H449 C445 0.950 . S
H450 C447 0.950 . S
C451 C442 1.390 . S
C451 H444 0.950 . S
C451 C448 1.387 . S
C452 C453 1.387 . S
C452 H456 0.950 . S
C452 C461 1.390 . S
C453 C452 1.387 . S
C453 C455 1.387 . S
H454 C461 0.950 . S
C455 C453 1.387 . S
C455 C457 1.390 . S
C455 H459 0.950 . S
H456 C452 0.950 . S
C457 C455 1.390 . S
C457 C458 1.387 . S
C457 H460 0.950 . S
C458 C457 1.387 . S
C458 C461 1.387 . S
H459 C455 0.950 . S
H460 C457 0.950 . S
C461 C452 1.390 . S
C461 H454 0.950 . S
C461 C458 1.387 . S
C462 C463 1.387 . S
C462 H466 0.950 . S
C462 C471 1.390 . S
C463 C462 1.387 . S
C463 C465 1.387 . S
H464 C471 0.950 . S
C465 C463 1.387 . S
C465 C467 1.390 . S
C465 H469 0.950 . S
H466 C462 0.950 . S
C467 C465 1.390 . S
C467 C468 1.387 . S
C467 H470 0.950 . S
C468 C467 1.387 . S
C468 C471 1.387 . S
H469 C465 0.950 . S
H470 C467 0.950 . S
C471 C462 1.390 . S
C471 H464 0.950 . S
C471 C468 1.387 . S
C472 C473 1.387 1_556 S
C472 H476 0.950 . S
C472 C481 1.390 . S
C473 C472 1.387 1_554 S
C473 C475 1.387 . S
H474 C481 0.950 . S
C475 C473 1.387 . S
C475 C477 1.390 . S
C475 H479 0.950 . S
H476 C472 0.950 . S
C477 C475 1.390 . S
C477 C478 1.387 1_554 S
C477 H480 0.950 . S
C478 C477 1.387 1_556 S
C478 C481 1.387 . S
H479 C475 0.950 . S
H480 C477 0.950 . S
C481 C472 1.390 . S
C481 H474 0.950 . S
C481 C478 1.387 . S
C482 C483 1.387 1_556 S
C482 H486 0.950 . S
C482 C491 1.390 . S
C483 C482 1.387 1_554 S
C483 C485 1.387 . S
H484 C491 0.950 . S
C485 C483 1.387 . S
C485 C487 1.390 . S
C485 H489 0.950 . S
H486 C482 0.950 . S
C487 C485 1.390 . S
C487 C488 1.387 . S
C487 H490 0.950 . S
C488 C487 1.387 . S
C488 C491 1.387 1_554 S
H489 C485 0.950 . S
H490 C487 0.950 . S
C491 C482 1.390 . S
C491 H484 0.950 . S
C491 C488 1.387 1_556 S
C492 C493 1.387 . S
C492 H496 0.950 . S
C492 C501 1.390 . S
C493 C492 1.387 . S
C493 C495 1.387 1_554 S
H494 C501 0.950 . S
C495 C493 1.387 1_556 S
C495 C497 1.390 . S
C495 H499 0.950 . S
H496 C492 0.950 . S
C497 C495 1.390 . S
C497 C498 1.387 1_556 S
C497 H500 0.950 . S
C498 C497 1.387 1_554 S
C498 C501 1.387 . S
H499 C495 0.950 . S
H500 C497 0.950 . S
C501 C492 1.390 . S
C501 H494 0.950 . S
C501 C498 1.387 . S
C502 C503 1.387 1_556 S
C502 H506 0.950 . S
C502 C511 1.390 . S
C503 C502 1.387 1_554 S
C503 C505 1.387 . S
H504 C511 0.950 . S
C505 C503 1.387 . S
C505 C507 1.390 . S
C505 H509 0.950 . S
H506 C502 0.950 . S
C507 C505 1.390 . S
C507 C508 1.387 1_554 S
C507 H510 0.950 . S
C508 C507 1.387 1_556 S
C508 C511 1.387 . S
H509 C505 0.950 . S
H510 C507 0.950 . S
C511 C502 1.390 . S
C511 H504 0.950 . S
C511 C508 1.387 . S
C512 C513 1.387 . S
C512 H516 0.950 . S
C512 C521 1.390 1_655 S
C513 C512 1.387 . S
C513 C515 1.387 . S
H514 C521 0.950 . S
C515 C513 1.387 . S
C515 C517 1.390 1_655 S
C515 H519 0.950 . S
H516 C512 0.950 . S
C517 C515 1.390 1_455 S
C517 C518 1.387 . S
C517 H520 0.950 . S
C518 C517 1.387 . S
C518 C521 1.387 . S
H519 C515 0.950 . S
H520 C517 0.950 . S
C521 C512 1.390 1_455 S
C521 H514 0.950 . S
C521 C518 1.387 . S
C522 C523 1.387 1_556 S
C522 H526 0.950 . S
C522 C531 1.390 1_565 S
C523 C522 1.387 1_554 S
C523 C525 1.387 . S
H524 C531 0.950 . S
C525 C523 1.387 . S
C525 C527 1.391 1_565 S
C525 H529 0.949 . S
H526 C522 0.950 . S
C527 C525 1.391 1_545 S
C527 C528 1.387 . S
C527 H530 0.950 . S
C528 C527 1.387 . S
C528 C531 1.387 1_554 S
H529 C525 0.949 . S
H530 C527 0.950 . S
C531 C522 1.390 1_545 S
C531 H524 0.950 . S
C531 C528 1.387 1_556 S
C532 C533 1.387 . S
C532 H536 0.950 . S
C532 C541 1.390 1_655 S
C533 C532 1.387 . S
C533 C535 1.387 . S
H534 C541 0.950 . S
C535 C533 1.387 . S
C535 C537 1.390 1_655 S
C535 H539 0.950 . S
H536 C532 0.950 . S
C537 C535 1.390 1_455 S
C537 C538 1.387 . S
C537 H540 0.950 . S
C538 C537 1.387 . S
C538 C541 1.387 . S
H539 C535 0.950 . S
H540 C537 0.950 . S
C541 C532 1.390 1_455 S
C541 H534 0.950 . S
C541 C538 1.387 . S
C542 C543 1.387 . S
C542 H546 0.950 . S
C542 C551 1.390 1_545 S
C543 C542 1.387 . S
C543 C545 1.387 . S
H544 C551 0.950 . S
C545 C543 1.387 . S
C545 C547 1.390 1_545 S
C545 H549 0.950 . S
H546 C542 0.950 . S
C547 C545 1.390 1_565 S
C547 C548 1.387 . S
C547 H550 0.950 . S
C548 C547 1.387 . S
C548 C551 1.387 . S
H549 C545 0.950 . S
H550 C547 0.950 . S
C551 C542 1.390 1_565 S
C551 H544 0.950 . S
C551 C548 1.387 . S
C273 C192 1.870 . S
C278 C22 1.745 . S
C283 C49 1.907 . S
C288 C219 1.874 . S
C293 C253 2.090 . S
C298 C83 1.716 . S
C303 C158 1.614 . S
C308 C124 1.616 . S
C313 C90 1.871 . S
C318 C260 1.741 . S
C323 C151 1.909 . S
C328 C117 1.873 . S
C333 C15 2.090 . S
C338 C185 1.721 . S
C343 C56 1.611 . S
C348 C226 1.619 . S
C353 C17 1.724 . S
C358 C103 1.481 . S
C363 C51 1.452 . S
C368 C6 1.443 1_655 S
C373 C85 0.728 . S
C378 C62 0.727 1_565 S
C383 C96 0.691 1_455 S
C388 C108 0.694 . S
C393 C171 0.863 . S
C398 C142 0.863 . S
C403 C232 0.547 . S
C408 C176 0.585 . S
C413 C221 1.511 . S
C418 C241 1.354 . S
C423 C137 1.336 . S
C428 C266 1.492 . S
C433 C255 1.724 . S
C438 C205 1.481 . S
C443 C153 1.452 . S
C448 C244 1.444 . S
C453 C164 0.728 . S
C458 C187 0.729 . S
C463 C198 0.696 . S
C468 C210 0.701 . S
C473 C69 0.862 . S
C478 C40 0.863 . S
C483 C74 0.577 . S
C488 C130 0.543 . S
C493 C3 1.350 . S
C498 C119 1.511 . S
C503 C28 1.492 . S
C508 C35 1.336 . S
C513 C71 2.397 . S
C518 C1 2.401 . S
C523 C105 2.242 . S
C528 C37 2.193 . S
C533 C207 2.241 . S
C538 C139 2.196 . S
C543 C173 2.398 . S
C548 C239 2.402 . S
