# Generated by pormake.
# Topology wkf, (6)-cn, num edge types: 1
# Building blocks:
#     Node 0, Type 0, BuildingBlock: OJICUG_clean_sbu_0, # of connection points: 6
#     Node 1, Type 0, BuildingBlock: OJICUG_clean_sbu_0, # of connection points: 6
#     Node 2, Type 0, BuildingBlock: OJICUG_clean_sbu_0, # of connection points: 6
#     Node 3, Type 0, BuildingBlock: OJICUG_clean_sbu_0, # of connection points: 6
#     Node 4, Type 0, BuildingBlock: OJICUG_clean_sbu_0, # of connection points: 6
#     Node 5, Type 0, BuildingBlock: OJICUG_clean_sbu_0, # of connection points: 6
#     Node 6, Type 0, BuildingBlock: OJICUG_clean_sbu_0, # of connection points: 6
#     Node 7, Type 0, BuildingBlock: OJICUG_clean_sbu_0, # of connection points: 6
#     Node 8, Type 0, BuildingBlock: OJICUG_clean_sbu_0, # of connection points: 6
#     Node 9, Type 0, BuildingBlock: OJICUG_clean_sbu_0, # of connection points: 6
#     Node 10, Type 0, BuildingBlock: OJICUG_clean_sbu_0, # of connection points: 6
#     Node 11, Type 0, BuildingBlock: OJICUG_clean_sbu_0, # of connection points: 6
#     Edge 12, Type (0, 0), BuildingBlock: UVAHIK_clean_linker_0, # of connection points: 2
#     Edge 13, Type (0, 0), BuildingBlock: UVAHIK_clean_linker_0, # of connection points: 2
#     Edge 14, Type (0, 0), BuildingBlock: UVAHIK_clean_linker_0, # of connection points: 2
#     Edge 15, Type (0, 0), BuildingBlock: UVAHIK_clean_linker_0, # of connection points: 2
#     Edge 16, Type (0, 0), BuildingBlock: UVAHIK_clean_linker_0, # of connection points: 2
#     Edge 17, Type (0, 0), BuildingBlock: UVAHIK_clean_linker_0, # of connection points: 2
#     Edge 18, Type (0, 0), BuildingBlock: UVAHIK_clean_linker_0, # of connection points: 2
#     Edge 19, Type (0, 0), BuildingBlock: UVAHIK_clean_linker_0, # of connection points: 2
#     Edge 20, Type (0, 0), BuildingBlock: UVAHIK_clean_linker_0, # of connection points: 2
#     Edge 21, Type (0, 0), BuildingBlock: UVAHIK_clean_linker_0, # of connection points: 2
#     Edge 22, Type (0, 0), BuildingBlock: UVAHIK_clean_linker_0, # of connection points: 2
#     Edge 23, Type (0, 0), BuildingBlock: UVAHIK_clean_linker_0, # of connection points: 2
#     Edge 24, Type (0, 0), BuildingBlock: UVAHIK_clean_linker_0, # of connection points: 2
#     Edge 25, Type (0, 0), BuildingBlock: UVAHIK_clean_linker_0, # of connection points: 2
#     Edge 26, Type (0, 0), BuildingBlock: UVAHIK_clean_linker_0, # of connection points: 2
#     Edge 27, Type (0, 0), BuildingBlock: UVAHIK_clean_linker_0, # of connection points: 2
#     Edge 28, Type (0, 0), BuildingBlock: UVAHIK_clean_linker_0, # of connection points: 2
#     Edge 29, Type (0, 0), BuildingBlock: UVAHIK_clean_linker_0, # of connection points: 2
#     Edge 30, Type (0, 0), BuildingBlock: UVAHIK_clean_linker_0, # of connection points: 2
#     Edge 31, Type (0, 0), BuildingBlock: UVAHIK_clean_linker_0, # of connection points: 2
#     Edge 32, Type (0, 0), BuildingBlock: UVAHIK_clean_linker_0, # of connection points: 2
#     Edge 33, Type (0, 0), BuildingBlock: UVAHIK_clean_linker_0, # of connection points: 2
#     Edge 34, Type (0, 0), BuildingBlock: UVAHIK_clean_linker_0, # of connection points: 2
#     Edge 35, Type (0, 0), BuildingBlock: UVAHIK_clean_linker_0, # of connection points: 2
#     Edge 36, Type (0, 0), BuildingBlock: UVAHIK_clean_linker_0, # of connection points: 2
#     Edge 37, Type (0, 0), BuildingBlock: UVAHIK_clean_linker_0, # of connection points: 2
#     Edge 38, Type (0, 0), BuildingBlock: UVAHIK_clean_linker_0, # of connection points: 2
#     Edge 39, Type (0, 0), BuildingBlock: UVAHIK_clean_linker_0, # of connection points: 2
#     Edge 40, Type (0, 0), BuildingBlock: UVAHIK_clean_linker_0, # of connection points: 2
#     Edge 41, Type (0, 0), BuildingBlock: UVAHIK_clean_linker_0, # of connection points: 2
#     Edge 42, Type (0, 0), BuildingBlock: UVAHIK_clean_linker_0, # of connection points: 2
#     Edge 43, Type (0, 0), BuildingBlock: UVAHIK_clean_linker_0, # of connection points: 2
#     Edge 44, Type (0, 0), BuildingBlock: UVAHIK_clean_linker_0, # of connection points: 2
#     Edge 45, Type (0, 0), BuildingBlock: UVAHIK_clean_linker_0, # of connection points: 2
#     Edge 46, Type (0, 0), BuildingBlock: UVAHIK_clean_linker_0, # of connection points: 2
#     Edge 47, Type (0, 0), BuildingBlock: UVAHIK_clean_linker_0, # of connection points: 2
# Relax obj value: 0.170
# Max RMSD: 0.210
# Mean RMSD: 0.210
data_MOF--net-wkf--node1-OJICUG_clean_sbu_0--edge1-UVAHIK_clean_linker_0
_symmetry_space_group_name_H-M    P1
_symmetry_Int_Tables_number       1
_symmetry_cell_setting            triclinic
loop_
_symmetry_equiv_pos_as_xyz
'x, y, z'
_cell_length_a     35.92227
_cell_length_b     35.846017
_cell_length_c     92.089415
_cell_angle_alpha  90.24574
_cell_angle_beta   89.637555
_cell_angle_gamma 120.1474
loop_
_atom_site_label
_atom_site_type_symbol
_atom_site_fract_x
_atom_site_fract_y
_atom_site_fract_z
_atom_type_partial_charge
Sc0 Sc 0.4751 0.08789 0.35751 0.0
Sc1 Sc 0.36447 0.04784 0.35768 0.0
Sc2 Sc 0.41441 0.02977 0.387 0.0
O3 O 0.41747 0.05514 0.36733 0.0
C4 C 0.47705 0.00907 0.37094 0.0
C5 C 0.41528 0.02734 0.33294 0.0
C6 C 0.32504 0.95836 0.37351 0.0
C7 C 0.4304 0.13962 0.34594 0.0
C8 C 0.49769 0.12156 0.38881 0.0
C9 C 0.35802 0.07397 0.39061 0.0
O10 O 0.49811 0.04853 0.36724 0.0
O11 O 0.38317 0.03058 0.33736 0.0
O12 O 0.35209 0.97355 0.38377 0.0
O13 O 0.46141 0.13217 0.34609 0.0
O14 O 0.47675 0.08271 0.39324 0.0
O15 O 0.34388 0.06517 0.3776 0.0
O16 O 0.49782 0.13163 0.37557 0.0
O17 O 0.39415 0.11419 0.35161 0.0
O18 O 0.38587 0.06541 0.39569 0.0
O19 O 0.45109 0.04355 0.3396 0.0
O20 O 0.44192 0.9937 0.37799 0.0
O21 O 0.32754 0.98037 0.36244 0.0
Sc22 Sc 0.28771 0.41284 0.52698 0.0
Sc23 Sc 0.2043 0.33975 0.50447 0.0
Sc24 Sc 0.28606 0.4401 0.49056 0.0
O25 O 0.25925 0.3976 0.50731 0.0
C26 C 0.2927 0.50068 0.51703 0.0
C27 C 0.18826 0.36435 0.53593 0.0
C28 C 0.18566 0.39974 0.48427 0.0
C29 C 0.2599 0.31435 0.52484 0.0
C30 C 0.37079 0.45703 0.50711 0.0
C31 C 0.26058 0.34956 0.47607 0.0
O32 O 0.29279 0.47482 0.52643 0.0
O33 O 0.17349 0.34581 0.52383 0.0
O34 O 0.22505 0.42741 0.48226 0.0
O35 O 0.28543 0.35258 0.52905 0.0
O36 O 0.35162 0.46025 0.49609 0.0
O37 O 0.22953 0.32787 0.48483 0.0
O38 O 0.35132 0.43895 0.51874 0.0
O39 O 0.22837 0.30448 0.51639 0.0
O40 O 0.28527 0.39034 0.47693 0.0
O41 O 0.22812 0.38832 0.53837 0.0
O42 O 0.28925 0.49276 0.50341 0.0
O43 O 0.17311 0.36739 0.49255 0.0
Sc44 Sc 0.88231 0.34196 0.68107 0.0
Sc45 Sc 0.88509 0.24906 0.69001 0.0
Sc46 Sc 0.90416 0.32629 0.71687 0.0
O47 O 0.89051 0.30584 0.69606 0.0
C48 C 0.96279 0.41155 0.69858 0.0
C49 C 0.93484 0.30567 0.66349 0.0
C50 C 0.95878 0.28056 0.71396 0.0
C51 C 0.81264 0.25167 0.67066 0.0
C52 C 0.83914 0.35797 0.70901 0.0
C53 C 0.83408 0.22512 0.71959 0.0
O54 O 0.94242 0.39683 0.68679 0.0
O55 O 0.93273 0.27968 0.67325 0.0
O56 O 0.95521 0.31221 0.71831 0.0
O57 O 0.82179 0.28949 0.67427 0.0
O58 O 0.85485 0.34292 0.71798 0.0
O59 O 0.83732 0.21551 0.70649 0.0
O60 O 0.84785 0.36147 0.69553 0.0
O61 O 0.83493 0.23494 0.67452 0.0
O62 O 0.85782 0.26273 0.72494 0.0
O63 O 0.9151 0.32676 0.66442 0.0
O64 O 0.95157 0.39151 0.71063 0.0
O65 O 0.93407 0.2539 0.7045 0.0
Sc66 Sc 0.60719 0.92222 0.88643 0.0
Sc67 Sc 0.63935 0.87654 0.85871 0.0
Sc68 Sc 0.54355 0.88013 0.85537 0.0
O69 O 0.59651 0.89266 0.86685 0.0
C70 C 0.50696 0.85668 0.8879 0.0
C71 C 0.63456 0.85057 0.89158 0.0
C72 C 0.54944 0.79763 0.84762 0.0
C73 C 0.70097 0.96759 0.87353 0.0
C74 C 0.57098 0.97239 0.86842 0.0
C75 C 0.61828 0.91553 0.83123 0.0
O76 O 0.5435 0.87842 0.89387 0.0
O77 O 0.63681 0.84241 0.87824 0.0
O78 O 0.52734 0.81543 0.85037 0.0
O79 O 0.67125 0.96889 0.88055 0.0
O80 O 0.55426 0.94376 0.85864 0.0
O81 O 0.64457 0.90957 0.83869 0.0
O82 O 0.58903 0.96821 0.8796 0.0
O83 O 0.69554 0.93488 0.86636 0.0
O84 O 0.58026 0.9041 0.83553 0.0
O85 O 0.62724 0.88016 0.8958 0.0
O86 O 0.50173 0.85525 0.87419 0.0
O87 O 0.58989 0.81647 0.84959 0.0
Sc88 Sc 0.67192 0.54991 0.03051 0.0
Sc89 Sc 0.72792 0.65634 0.04398 0.0
Sc90 Sc 0.65124 0.57237 0.06591 0.0
O91 O 0.68381 0.59297 0.0468 0.0
C92 C 0.5777 0.51358 0.04387 0.0
C93 C 0.67693 0.62963 0.01376 0.0
C94 C 0.65508 0.6621 0.06231 0.0
C95 C 0.77246 0.61381 0.02606 0.0
C96 C 0.67341 0.49864 0.05818 0.0
C97 C 0.74598 0.64097 0.0766 0.0
O98 O 0.60396 0.51461 0.0344 0.0
O99 O 0.70163 0.65695 0.02314 0.0
O100 O 0.63858 0.62433 0.06747 0.0
O101 O 0.73746 0.57914 0.02382 0.0
O102 O 0.66037 0.51802 0.06654 0.0
O103 O 0.75771 0.66128 0.06462 0.0
O104 O 0.68195 0.5078 0.04478 0.0
O105 O 0.77544 0.6442 0.034 0.0
O106 O 0.7089 0.60807 0.0786 0.0
O107 O 0.66184 0.58911 0.015 0.0
O108 O 0.58979 0.53503 0.0556 0.0
O109 O 0.68691 0.67775 0.05358 0.0
Sc110 Sc 0.10836 0.67074 0.20822 0.0
Sc111 Sc 0.11107 0.76972 0.21122 0.0
Sc112 Sc 0.13703 0.73862 0.17794 0.0
O113 O 0.11868 0.72646 0.19913 0.0
C114 C 0.18884 0.69427 0.18734 0.0
C115 C 0.16288 0.74066 0.23207 0.0
C116 C 0.19225 0.8322 0.19193 0.0
C117 C 0.03682 0.68304 0.22468 0.0
C118 C 0.06565 0.63804 0.1778 0.0
C119 C 0.06745 0.76843 0.18092 0.0
O120 O 0.16018 0.67053 0.19649 0.0
O121 O 0.14811 0.76526 0.22878 0.0
O122 O 0.18337 0.80529 0.18168 0.0
O123 O 0.05408 0.66091 0.22122 0.0
O124 O 0.09285 0.67261 0.17137 0.0
O125 O 0.07266 0.77644 0.19449 0.0
O126 O 0.06398 0.63357 0.19152 0.0
O127 O 0.05239 0.72223 0.22118 0.0
O128 O 0.08787 0.75415 0.17363 0.0
O129 O 0.15332 0.70594 0.22531 0.0
O130 O 0.1885 0.72494 0.18064 0.0
O131 O 0.16989 0.82359 0.20343 0.0
Sc132 Sc 0.84452 0.57379 0.47177 0.0
Sc133 Sc 0.85825 0.66329 0.45133 0.0
Sc134 Sc 0.83858 0.56774 0.43374 0.0
O135 O 0.84726 0.60172 0.45231 0.0
C136 C 0.89298 0.53778 0.45197 0.0
C137 C 0.92398 0.66893 0.47569 0.0
C138 C 0.913 0.66101 0.42426 0.0
C139 C 0.79941 0.6287 0.47948 0.0
C140 C 0.76743 0.49736 0.45504 0.0
C141 C 0.78372 0.61358 0.42814 0.0
O142 O 0.88068 0.54457 0.46416 0.0
O143 O 0.91145 0.68644 0.46637 0.0
O144 O 0.89186 0.62033 0.42275 0.0
O145 O 0.80806 0.5991 0.48201 0.0
O146 O 0.78425 0.51154 0.44264 0.0
O147 O 0.80506 0.64553 0.43657 0.0
O148 O 0.7847 0.51623 0.46687 0.0
O149 O 0.8141 0.65353 0.46858 0.0
O150 O 0.79326 0.58446 0.42589 0.0
O151 O 0.90355 0.62874 0.47842 0.0
O152 O 0.88219 0.54646 0.43993 0.0
O153 O 0.90417 0.68066 0.43397 0.0
Sc154 Sc 0.31772 0.94406 0.59736 0.0
Sc155 Sc 0.23467 0.90615 0.62301 0.0
Sc156 Sc 0.31998 0.88605 0.62744 0.0
O157 O 0.29085 0.91194 0.61599 0.0
C158 C 0.32774 0.8616 0.59435 0.0
C159 C 0.21725 0.89187 0.58988 0.0
C160 C 0.22311 0.81586 0.63313 0.0
C161 C 0.28431 0.00197 0.61001 0.0
C162 C 0.40152 0.97087 0.61609 0.0
C163 C 0.29014 0.93073 0.65172 0.0
O164 O 0.32142 0.89037 0.58878 0.0
O165 O 0.20407 0.87834 0.60268 0.0
O166 O 0.2619 0.82637 0.63075 0.0
O167 O 0.31582 -0.00057 0.60489 0.0
O168 O 0.38205 0.94215 0.62565 0.0
O169 O 0.26268 0.93318 0.64368 0.0
O170 O 0.38293 0.97409 0.60491 0.0
O171 O 0.25107 0.96973 0.6154 0.0
O172 O 0.31146 0.91272 0.64764 0.0
O173 O 0.25624 0.91917 0.58688 0.0
O174 O 0.33037 0.85768 0.60803 0.0
O175 O 0.20926 0.84195 0.63164 0.0
Sc176 Sc 0.43752 0.33245 0.80787 0.0
Sc177 Sc 0.34468 0.2297 0.8041 0.0
Sc178 Sc 0.38168 0.30361 0.77496 0.0
O179 O 0.38796 0.28841 0.79563 0.0
C180 C 0.4132 0.39331 0.78998 0.0
C181 C 0.35758 0.29635 0.82953 0.0
C182 C 0.28404 0.25131 0.78536 0.0
C183 C 0.43067 0.24532 0.81916 0.0
C184 C 0.48345 0.34272 0.77766 0.0
C185 C 0.36013 0.20557 0.77209 0.0
O186 O 0.43356 0.38608 0.79971 0.0
O187 O 0.33706 0.25933 0.82352 0.0
O188 O 0.3141 0.27846 0.7773 0.0
O189 O 0.44982 0.28596 0.81785 0.0
O190 O 0.44933 0.33167 0.77047 0.0
O191 O 0.34865 0.19549 0.78528 0.0
O192 O 0.48421 0.34189 0.79146 0.0
O193 O 0.39322 0.22056 0.81421 0.0
O194 O 0.37265 0.24304 0.76701 0.0
O195 O 0.39381 0.32644 0.82495 0.0
O196 O 0.38957 0.36548 0.78065 0.0
O197 O 0.2896 0.23034 0.79533 0.0
Sc198 Sc 0.07637 0.42557 0.9511 0.0
Sc199 Sc 0.08365 0.34871 0.97287 0.0
Sc200 Sc 0.10945 0.44966 0.9875 0.0
O201 O 0.08977 0.40793 0.97047 0.0
C202 C 0.15913 0.51318 0.96154 0.0
C203 C 0.12853 0.37842 0.94184 0.0
C204 C 0.16635 0.40576 0.99221 0.0
C205 C 0.00548 0.32582 0.95154 0.0
C206 C 0.03801 0.46587 0.97307 0.0
C207 C 0.04204 0.35969 0.00201 0.0
O208 O 0.13133 0.48902 0.95228 0.0
O209 O 0.11946 0.35585 0.95334 0.0
O210 O 0.15862 0.43629 0.99398 0.0
O211 O 0.0198 0.36416 0.94713 0.0
O212 O 0.06348 0.469 0.98309 0.0
O213 O 0.04686 0.33668 0.99247 0.0
O214 O 0.03638 0.4484 0.96084 0.0
O215 O 0.02457 0.31608 0.96104 0.0
O216 O 0.06236 0.40076 0.00171 0.0
O217 O 0.1158 0.40526 0.93953 0.0
O218 O 0.15753 0.50263 0.9748 0.0
O219 O 0.14226 0.37221 0.98488 0.0
Sc220 Sc 0.73442 0.15124 0.17001 0.0
Sc221 Sc 0.78038 0.10706 0.14766 0.0
Sc222 Sc 0.68055 0.09375 0.13979 0.0
O223 O 0.73156 0.11634 0.15259 0.0
C224 C 0.63542 0.07902 0.16902 0.0
C225 C 0.76565 0.09092 0.18184 0.0
C226 C 0.70273 0.01806 0.13891 0.0
C227 C 0.82909 0.20179 0.1586 0.0
C228 C 0.70245 0.18755 0.14604 0.0
C229 C 0.75452 0.1276 0.11693 0.0
O230 O 0.66479 0.11615 0.17323 0.0
O231 O 0.7887 0.09769 0.17044 0.0
O232 O 0.68192 0.03605 0.13469 0.0
O233 O 0.80361 0.19065 0.1694 0.0
O234 O 0.67312 0.14876 0.14385 0.0
O235 O 0.77571 0.11522 0.12461 0.0
O236 O 0.73124 0.19716 0.15564 0.0
O237 O 0.824 0.17552 0.14849 0.0
O238 O 0.72058 0.12678 0.12143 0.0
O239 O 0.73943 0.10494 0.18334 0.0
O240 O 0.63976 0.0608 0.15781 0.0
O241 O 0.73828 0.03831 0.14568 0.0
Sc242 Sc 0.5655 0.60142 0.25782 0.0
Sc243 Sc 0.61038 0.66523 0.28885 0.0
Sc244 Sc 0.49806 0.59901 0.28639 0.0
O245 O 0.55786 0.62183 0.27771 0.0
C246 C 0.481 0.60787 0.25303 0.0
C247 C 0.63472 0.70083 0.25638 0.0
C248 C 0.54523 0.69898 0.29486 0.0
C249 C 0.6444 0.60648 0.27557 0.0
C250 C 0.49401 0.51478 0.27283 0.0
C251 C 0.55077 0.60607 0.3147 0.0
O252 O 0.51234 0.60423 0.24835 0.0
O253 O 0.64082 0.70331 0.26999 0.0
O254 O 0.51143 0.66247 0.29297 0.0
O255 O 0.62021 0.59632 0.2645 0.0
O256 O 0.47958 0.5336 0.28091 0.0
O257 O 0.58642 0.63402 0.30922 0.0
O258 O 0.52549 0.53489 0.26409 0.0
O259 O 0.64276 0.62915 0.28592 0.0
O260 O 0.51574 0.58787 0.30766 0.0
O261 O 0.60648 0.66657 0.25012 0.0
O262 O 0.47269 0.60767 0.26646 0.0
O263 O 0.58307 0.70524 0.29312 0.0
C264 C 0.19007 0.77369 0.25625 0.0
C265 C 0.19569 0.75573 0.24346 0.0
C266 C 0.22402 0.7949 0.26597 0.0
C267 C 0.33309 0.86865 0.2653 0.0
H268 H 0.32927 0.85296 0.30705 0.0
C269 C 0.42275 0.96945 0.32061 0.0
C270 C 0.40861 -0.00042 0.32029 0.0
C271 C 0.40894 0.93717 0.31003 0.0
C272 C 0.33141 0.85728 0.29537 0.0
H273 H 0.24026 0.74446 0.23085 0.0
H274 H 0.3007 0.78368 0.24767 0.0
H275 H 0.27765 0.79395 0.29159 0.0
H276 H 0.372 0.02195 0.30825 0.0
H277 H 0.34931 0.96658 0.28941 0.0
H278 H 0.38374 0.93353 0.26924 0.0
C279 C 0.26962 0.78007 0.25031 0.0
C280 C 0.30192 0.82368 0.28659 0.0
C281 C 0.23518 0.75767 0.24078 0.0
C282 C 0.38328 -0.00095 0.30868 0.0
C283 C 0.37054 0.9676 0.29791 0.0
C284 C 0.36192 0.90259 0.27413 0.0
C285 C 0.26438 0.79945 0.26282 0.0
C286 C 0.30169 0.82969 0.27156 0.0
C287 C 0.38201 0.93558 0.29879 0.0
C288 C 0.36025 0.89754 0.28925 0.0
H289 H 0.15992 0.77269 0.25845 0.0
H290 H 0.21956 0.81017 0.27548 0.0
H291 H 0.333 0.87404 0.25374 0.0
H292 H 0.44196 0.96903 0.32957 0.0
H293 H 0.41779 0.91249 0.31094 0.0
C294 C 0.23549 0.28758 0.45895 0.0
C295 C 0.26949 0.32526 0.46497 0.0
C296 C 0.24379 0.26154 0.44975 0.0
C297 C 0.3319 0.25724 0.42917 0.0
H298 H 0.25452 0.13379 0.43267 0.0
C299 C 0.37321 0.12839 0.41006 0.0
C300 C 0.34457 0.09907 0.39977 0.0
C301 C 0.3629 0.15586 0.41762 0.0
C302 C 0.27618 0.16821 0.43156 0.0
H303 H 0.33879 0.36586 0.46593 0.0
H304 H 0.3536 0.31952 0.45045 0.0
H305 H 0.2394 0.18323 0.44622 0.0
H306 H 0.28218 0.07454 0.38968 0.0
H307 H 0.26343 0.12164 0.40342 0.0
H308 H 0.36972 0.24145 0.41505 0.0
C309 C 0.32037 0.31055 0.45236 0.0
C310 C 0.26744 0.1967 0.4392 0.0
C311 C 0.31198 0.33716 0.46129 0.0
C312 C 0.30479 0.09677 0.39755 0.0
C313 C 0.29407 0.12361 0.40538 0.0
C314 C 0.34108 0.22866 0.42178 0.0
C315 C 0.28636 0.27193 0.44666 0.0
C316 C 0.29515 0.24168 0.43812 0.0
C317 C 0.3234 0.15387 0.41526 0.0
C318 C 0.3133 0.18397 0.42293 0.0
H319 H 0.20237 0.27794 0.46151 0.0
H320 H 0.21668 0.23289 0.44524 0.0
H321 H 0.35359 0.29152 0.42779 0.0
H322 H 0.40432 0.13126 0.41188 0.0
H323 H 0.38586 0.17884 0.42526 0.0
C324 C 0.94741 0.32154 0.63706 0.0
C325 C 0.95937 0.31027 0.65011 0.0
C326 C 0.96996 0.3255 0.62426 0.0
C327 C 0.07475 0.35456 0.61093 0.0
H328 H 0.01837 0.29002 0.57608 0.0
C329 C 0.17345 0.35532 0.56232 0.0
C330 C 0.15884 0.35572 0.54826 0.0
C331 C 0.14712 0.34841 0.57429 0.0
C332 C 0.03446 0.3088 0.58564 0.0
H333 H 0.00412 0.29429 0.66005 0.0
H334 H 0.04466 0.30269 0.63761 0.0
H335 H 0.9759 0.28035 0.59809 0.0
H336 H 0.10499 0.34836 0.53558 0.0
H337 H 0.05895 0.33792 0.55674 0.0
H338 H 0.13292 0.38434 0.59859 0.0
C339 C 0.01743 0.30787 0.63736 0.0
C340 C 0.01022 0.303 0.59822 0.0
C341 C -0.0057 0.30302 0.65014 0.0
C342 C 0.11692 0.34826 0.54634 0.0
C343 C 0.09063 0.34211 0.55844 0.0
C344 C 0.09881 0.36097 0.59833 0.0
C345 C 0.00531 0.31906 0.62435 0.0
C346 C 0.03039 0.32542 0.61098 0.0
C347 C 0.10573 0.34262 0.57257 0.0
C348 C 0.07914 0.33762 0.5856 0.0
H349 H 0.9203 0.32689 0.6367 0.0
H350 H 0.96032 0.3344 0.61433 0.0
H351 H 0.09072 0.37275 0.62061 0.0
H352 H 0.20533 0.36002 0.56408 0.0
H353 H 0.15932 0.34754 0.58493 0.0
C354 C 0.79743 0.19955 0.74373 0.0
C355 C 0.80306 0.19039 0.72929 0.0
C356 C 0.77108 0.16629 0.75324 0.0
C357 C 0.7304 0.05147 0.75921 0.0
H358 H 0.65808 0.06356 0.78807 0.0
C359 C 0.60744 0.95154 0.8097 0.0
C360 C 0.63347 0.93939 0.81736 0.0
C361 C 0.62337 0.97785 0.79745 0.0
C362 C 0.67767 0.0594 0.77996 0.0
H363 H 0.78394 0.13905 0.71339 0.0
H364 H 0.73792 0.08115 0.73002 0.0
H365 H 0.69317 0.11854 0.76936 0.0
H366 H 0.69607 0.94396 0.81771 0.0
H367 H 0.7238 0.98999 0.79639 0.0
H368 H 0.7153 0.99257 0.76992 0.0
C369 C 0.75433 0.11407 0.73399 0.0
C370 C 0.69809 0.0911 0.76934 0.0
C371 C 0.78053 0.14732 0.72445 0.0
C372 C 0.67515 0.95273 0.81211 0.0
C373 C 0.69099 0.97893 0.79983 0.0
C374 C 0.71011 0.01985 0.76986 0.0
C375 C 0.74986 0.12316 0.74853 0.0
C376 C 0.72516 0.08777 0.75899 0.0
C377 C 0.66556 0.99244 0.79255 0.0
C378 C 0.68403 0.02381 0.78047 0.0
H379 H 0.81415 0.23231 0.74783 0.0
H380 H 0.76857 0.17427 0.76443 0.0
H381 H 0.75138 0.04821 0.75144 0.0
H382 H 0.57512 0.94176 0.81338 0.0
H383 H 0.60286 0.98732 0.79193 0.0
C384 C 0.64973 0.84018 0.91718 0.0
C385 C 0.64041 0.82469 0.90285 0.0
C386 C 0.65439 0.81589 0.92802 0.0
C387 C 0.62255 0.70656 0.93889 0.0
H388 H 0.71781 0.76481 0.96567 0.0
C389 C 0.65346 0.62226 0.98771 0.0
C390 C 0.66739 0.64668 0.00058 0.0
C391 C 0.64939 0.64081 0.9749 0.0
C392 C 0.69082 0.74812 0.95836 0.0
H393 H 0.62846 0.77132 0.88867 0.0
H394 H 0.63622 0.7284 0.90784 0.0
H395 H 0.71373 0.80335 0.94462 0.0
H396 H 0.68522 0.70871 0.0103 0.0
H397 H 0.67735 0.74048 0.98818 0.0
H398 H 0.59905 0.6516 0.95293 0.0
C399 C 0.64001 0.75956 0.91055 0.0
C400 C 0.68863 0.77015 0.94628 0.0
C401 C 0.63585 0.78421 0.8996 0.0
C402 C 0.67512 0.68919 0.00053 0.0
C403 C 0.67087 0.70753 0.98781 0.0
C404 C 0.62462 0.68445 0.95108 0.0
C405 C 0.6495 0.77534 0.92484 0.0
C406 C 0.65402 0.74995 0.9366 0.0
C407 C 0.65907 0.68401 0.97477 0.0
C408 C 0.65827 0.70543 0.96112 0.0
H409 H 0.65353 0.87124 0.92006 0.0
H410 H 0.66119 0.82861 0.93898 0.0
H411 H 0.59543 0.69034 0.9316 0.0
H412 H 0.64727 0.58942 0.98741 0.0
H413 H 0.64018 0.62188 0.965 0.0
C414 C -0.0066 0.75802 0.17984 0.0
C415 C 0.03365 0.77211 0.17325 0.0
C416 C 0.95843 0.75205 0.17148 0.0
C417 C 0.92654 0.77359 0.1358 0.0
H418 H 0.83595 0.65364 0.13731 0.0
C419 C 0.8194 0.68931 0.08677 0.0
C420 C 0.77599 0.658 0.08901 0.0
C421 C 0.84721 0.70729 0.09853 0.0
C422 C 0.86035 0.68747 0.1369 0.0
H423 H 0.07015 0.79467 0.15322 0.0
H424 H 0.00955 0.78531 0.13874 0.0
H425 H 0.89084 0.6824 0.15608 0.0
H426 H 0.72773 0.62111 0.1054 0.0
H427 H 0.77618 0.653 0.12593 0.0
H428 H 0.8967 0.77855 0.11647 0.0
C429 C 0.00473 0.77849 0.15026 0.0
C430 C 0.89176 0.70396 0.14769 0.0
C431 C 0.03935 0.78364 0.15852 0.0
C432 C 0.7611 0.64487 0.10328 0.0
C433 C 0.78887 0.66317 0.11506 0.0
C434 C 0.89491 0.75725 0.12509 0.0
C435 C 0.96359 0.76101 0.15652 0.0
C436 C 0.92589 0.74676 0.14697 0.0
C437 C 0.83223 0.69474 0.11282 0.0
C438 C 0.86229 0.71359 0.12524 0.0
H439 H 0.98821 0.74866 0.19117 0.0
H440 H 0.92699 0.73865 0.17655 0.0
H441 H 0.95239 0.80681 0.13509 0.0
H442 H 0.83201 0.69998 0.07592 0.0
H443 H 0.88065 0.73072 0.09637 0.0
C444 C 0.15323 0.8311 0.57795 0.0
C445 C 0.18698 0.87408 0.57769 0.0
C446 C 0.12805 0.81284 0.56562 0.0
C447 C 0.08703 0.83307 0.53302 0.0
H448 H 0.08798 0.73284 0.51744 0.0
C449 C 0.9852 0.74155 0.48311 0.0
C450 C 0.96233 0.69641 0.4846 0.0
C451 C 0.01835 0.76716 0.49275 0.0
C452 C 0.08709 0.7606 0.5217 0.0
H453 H 0.2195 0.93246 0.56476 0.0
H454 H 0.17428 0.90065 0.54333 0.0
H455 H 0.13111 0.76948 0.53873 0.0
H456 H 0.95779 0.6428 0.49702 0.0
H457 H 0.01398 0.687 0.51387 0.0
H458 H 0.04124 0.823 0.51653 0.0
C459 C 0.16798 0.88112 0.55298 0.0
C460 C 0.11182 0.78151 0.53384 0.0
C461 C 0.19377 0.89913 0.56518 0.0
C462 C 0.97453 0.67744 0.49552 0.0
C463 C 0.00722 0.7029 0.50516 0.0
C464 C 0.06156 0.81163 0.521 0.0
C465 C 0.13569 0.83761 0.55302 0.0
C466 C 0.11132 0.81734 0.53973 0.0
C467 C 0.02909 0.74807 0.50407 0.0
C468 C 0.06061 0.77456 0.5154 0.0
H469 H 0.14752 0.81111 0.58744 0.0
H470 H 0.10301 0.7792 0.56584 0.0
H471 H 0.08646 0.86086 0.53742 0.0
H472 H 0.97681 0.75718 0.47475 0.0
H473 H 0.03503 0.80188 0.4915 0.0
C474 C 0.33413 0.95827 0.67452 0.0
C475 C 0.29799 0.95062 0.66635 0.0
C476 C 0.3426 0.97963 0.68791 0.0
C477 C 0.3671 0.05367 0.7094 0.0
H478 H 0.2748 0.03447 0.73592 0.0
C479 C 0.37691 0.18406 0.74812 0.0
C480 C 0.35804 0.17223 0.762 0.0
C481 C 0.37295 0.15278 0.73819 0.0
C482 C 0.3011 0.03984 0.72877 0.0
H483 H 0.24162 0.95809 0.66615 0.0
H484 H 0.25647 -0.00478 0.68933 0.0
H485 H 0.26009 0.98523 0.71557 0.0
H486 H 0.32122 0.11806 0.77645 0.0
H487 H 0.31415 0.06328 0.759 0.0
H488 H 0.40789 0.10882 0.72242 0.0
C489 C 0.27816 0.98456 0.68547 0.0
C490 C 0.29257 0.01188 0.71704 0.0
C491 C 0.26987 0.96358 0.67209 0.0
C492 C 0.33606 0.12831 0.76584 0.0
C493 C 0.33185 0.09691 0.75584 0.0
C494 C 0.37559 0.08172 0.72111 0.0
C495 C 0.31487 0.99333 0.69345 0.0
C496 C 0.32522 0.01915 0.70701 0.0
C497 C 0.34988 0.10882 0.74185 0.0
C498 C 0.34243 0.07575 0.7307 0.0
H499 H 0.35645 0.9487 0.67043 0.0
H500 H 0.37102 0.98573 0.69387 0.0
H501 H 0.39289 0.06026 0.70184 0.0
H502 H 0.39429 0.21756 0.74479 0.0
H503 H 0.38674 0.16301 0.72745 0.0
C504 C 0.15434 0.33289 0.92992 0.0
C505 C 0.15394 0.37188 0.9305 0.0
C506 C 0.17728 0.32581 0.91906 0.0
C507 C 0.26855 0.37896 0.89479 0.0
H508 H 0.20894 0.27498 0.87152 0.0
C509 C 0.34819 0.34834 0.84507 0.0
C510 C 0.33726 0.30565 0.84193 0.0
C511 C 0.32681 0.3571 0.85609 0.0
C512 C 0.22635 0.3038 0.87806 0.0
H513 H 0.17788 0.43435 0.92032 0.0
H514 H 0.21905 0.42216 0.90143 0.0
H515 H 0.16985 0.28938 0.89034 0.0
H516 H 0.29653 0.23878 0.8482 0.0
H517 H 0.26047 0.2541 0.86784 0.0
H518 H 0.32542 0.39288 0.88293 0.0
C519 C 0.20115 0.3971 0.90937 0.0
C520 C 0.20381 0.31214 0.88876 0.0
C521 C 0.17749 0.40394 0.9201 0.0
C522 C 0.30537 0.27198 0.85029 0.0
C523 C 0.28449 0.28079 0.86148 0.0
C524 C 0.29134 0.3703 0.88424 0.0
C525 C 0.20086 0.35781 0.90871 0.0
C526 C 0.22472 0.34975 0.89719 0.0
C527 C 0.29446 0.32342 0.86438 0.0
C528 C 0.27051 0.33258 0.87574 0.0
H529 H 0.13634 0.30747 0.93773 0.0
H530 H 0.17686 0.29537 0.9188 0.0
H531 H 0.28538 0.40799 0.90129 0.0
H532 H 0.37234 0.37497 0.83871 0.0
H533 H 0.33492 0.39023 0.85782 0.0
C534 C 0.79806 0.13395 0.09499 0.0
C535 C 0.77238 0.14667 0.10266 0.0
C536 C 0.81996 0.15591 0.08247 0.0
C537 C 0.87288 0.26246 0.06759 0.0
H538 H 0.87982 0.20673 0.03233 0.0
C539 C -0.01005 0.35758 0.02063 0.0
C540 C 0.00974 0.33725 0.01353 0.0
C541 C 0.95682 0.33485 0.03067 0.0
C542 C 0.87856 0.22276 0.04216 0.0
H543 H 0.74823 0.19131 0.1031 0.0
H544 H 0.78763 0.23052 0.08128 0.0
H545 H 0.82663 0.16427 0.05089 0.0
H546 H 0.01163 0.27787 0.01176 0.0
H547 H 0.95525 0.23887 0.02962 0.0
H548 H 0.92624 0.32045 0.05933 0.0
C549 C 0.79027 0.20324 0.08492 0.0
C550 C 0.84786 0.19849 0.05269 0.0
C551 C 0.76762 0.18069 0.09731 0.0
C552 C -0.00334 0.29425 0.01695 0.0
C553 C 0.96402 0.27177 0.02709 0.0
C554 C 0.90402 0.28668 0.05715 0.0
C555 C 0.81714 0.19141 0.07757 0.0
C556 C 0.84529 0.218 0.06559 0.0
C557 C 0.94322 0.29153 0.03391 0.0
C558 C 0.90781 0.26689 0.04444 0.0
H559 H 0.80216 0.10777 0.09889 0.0
H560 H 0.8408 0.14645 0.07704 0.0
H561 H 0.87178 0.27806 0.07756 0.0
H562 H -0.00087 0.39061 0.01811 0.0
H563 H 0.94127 0.35095 0.03563 0.0
C564 C 0.64651 0.7451 0.23393 0.0
C565 C 0.65935 0.74108 0.24794 0.0
C566 C 0.66588 0.78534 0.22708 0.0
C567 C 0.72606 0.87324 0.21312 0.0
H568 H 0.73332 0.96529 0.23752 0.0
C569 C 0.79354 0.04414 0.19102 0.0
C570 C 0.76563 0.06074 0.19276 0.0
C571 C 0.78737 0.00866 0.1991 0.0
C572 C 0.73163 0.93994 0.23062 0.0
H573 H 0.70486 0.7755 0.26526 0.0
H574 H 0.73834 0.84523 0.2533 0.0
H575 H 0.70934 0.89422 0.24799 0.0
H576 H 0.71176 0.05541 0.20528 0.0
H577 H 0.70128 0.99356 0.21946 0.0
H578 H 0.7473 0.91866 0.19567 0.0
C579 C 0.71283 0.81755 0.24775 0.0
C580 C 0.71823 0.89941 0.2366 0.0
C581 C 0.69367 0.7775 0.25456 0.0
C582 C 0.73378 0.0434 0.20364 0.0
C583 C 0.72775 0.00795 0.21177 0.0
C584 C 0.73982 0.91388 0.20717 0.0
C585 C 0.6983 0.82212 0.23415 0.0
C586 C 0.7149 0.86558 0.22787 0.0
C587 C 0.75342 0.98926 0.20915 0.0
C588 C 0.74231 0.94747 0.21583 0.0
H589 H 0.6202 0.7177 0.22854 0.0
H590 H 0.65403 0.78806 0.21658 0.0
H591 H 0.72393 0.84776 0.20619 0.0
H592 H 0.81879 0.057 0.18287 0.0
H593 H 0.80814 -0.00465 0.19708 0.0
C594 C 0.73904 0.64208 0.41715 0.0
C595 C 0.74389 0.60723 0.42137 0.0
C596 C 0.70219 0.63462 0.4096 0.0
C597 C 0.61539 0.61022 0.39638 0.0
H598 H 0.59008 0.52797 0.36517 0.0
C599 C 0.5294 0.55622 0.3361 0.0
C600 C 0.55057 0.59804 0.33032 0.0
C601 C 0.53611 0.54967 0.35062 0.0
C602 C 0.59549 0.55003 0.37405 0.0
H603 H 0.71252 0.5374 0.42234 0.0
H604 H 0.6482 0.52448 0.40961 0.0
H605 H 0.63663 0.53225 0.38475 0.0
H606 H 0.59131 0.66596 0.33525 0.0
H607 H 0.60294 0.65479 0.36034 0.0
H608 H 0.57625 0.62981 0.38499 0.0
C609 C 0.67323 0.5575 0.41157 0.0
C610 C 0.62245 0.55269 0.38529 0.0
C611 C 0.71015 0.56495 0.41885 0.0
C612 C 0.57522 0.63331 0.33946 0.0
C613 C 0.58136 0.62691 0.3539 0.0
C614 C 0.58835 0.60756 0.38509 0.0
C615 C 0.66943 0.59217 0.40639 0.0
C616 C 0.63422 0.58408 0.39625 0.0
C617 C 0.56338 0.58499 0.3595 0.0
C618 C 0.57989 0.57887 0.37345 0.0
H619 H 0.76446 0.67495 0.41908 0.0
H620 H 0.70043 0.66209 0.40564 0.0
H621 H 0.62309 0.63405 0.40484 0.0
H622 H 0.51002 0.52863 0.32921 0.0
H623 H 0.52173 0.51701 0.35471 0.0
C624 C 0.57532 0.76804 0.30857 0.0
C625 C 0.54078 0.73467 0.30096 0.0
C626 C 0.57011 0.79896 0.31603 0.0
C627 C 0.55861 0.8719 0.3264 0.0
H628 H 0.44888 0.83573 0.3452 0.0
C629 C 0.5198 0.99292 0.35332 0.0
C630 C 0.49129 0.97976 0.36521 0.0
C631 C 0.52786 0.96356 0.34607 0.0
C632 C 0.47999 0.84622 0.34024 0.0
H633 H 0.47427 0.70878 0.2946 0.0
H634 H 0.46566 0.7642 0.30708 0.0
H635 H 0.45832 0.78421 0.33078 0.0
H636 H 0.45078 0.92607 0.37934 0.0
H637 H 0.46665 0.87507 0.3671 0.0
H638 H 0.58107 0.93314 0.33648 0.0
C639 C 0.49638 0.7655 0.30772 0.0
C640 C 0.48513 0.81686 0.33169 0.0
C641 C 0.50139 0.73399 0.30044 0.0
C642 C 0.47282 0.93711 0.37019 0.0
C643 C 0.48153 0.9078 0.36306 0.0
C644 C 0.55374 0.90096 0.33516 0.0
C645 C 0.53045 0.79785 0.31586 0.0
C646 C 0.52447 0.82938 0.32461 0.0
C647 C 0.5083 0.92044 0.35068 0.0
C648 C 0.51427 0.88862 0.34211 0.0
H649 H 0.60599 0.76926 0.30934 0.0
H650 H 0.59686 0.82277 0.32237 0.0
H651 H 0.58921 0.88297 0.32097 0.0
H652 H 0.53416 0.0254 0.34906 0.0
H653 H 0.54799 0.97442 0.33645 0.0
C654 C 0.44242 0.5098 0.49651 0.0
C655 C 0.41815 0.47882 0.50712 0.0
C656 C 0.48715 0.53398 0.49758 0.0
C657 C 0.57831 0.53015 0.51248 0.0
H658 H 0.6402 0.65258 0.50377 0.0
C659 C 0.75609 0.61054 0.50231 0.0
C660 C 0.76684 0.63075 0.48868 0.0
C661 C 0.71878 0.60341 0.50946 0.0
C662 C 0.62336 0.61849 0.50633 0.0
H663 H 0.42178 0.44812 0.52694 0.0
H664 H 0.49984 0.49003 0.52864 0.0
H665 H 0.5617 0.61416 0.50577 0.0
H666 H 0.75004 0.66394 0.47264 0.0
H667 H 0.68428 0.65003 0.48474 0.0
H668 H 0.63902 0.53331 0.51215 0.0
C669 C 0.48421 0.49575 0.51959 0.0
C670 C 0.57855 0.59655 0.50742 0.0
C671 C 0.43955 0.47175 0.51858 0.0
C672 C 0.74232 0.64787 0.48307 0.0
C673 C 0.70469 0.64017 0.49011 0.0
C674 C 0.62294 0.55192 0.51129 0.0
C675 C 0.50833 0.52737 0.50919 0.0
C676 C 0.55567 0.55194 0.51003 0.0
C677 C 0.69128 0.61568 0.50294 0.0
C678 C 0.64586 0.596 0.50769 0.0
H679 H 0.42688 0.51616 0.4876 0.0
H680 H 0.50521 0.55762 0.48925 0.0
H681 H 0.56139 0.49569 0.51442 0.0
H682 H 0.77508 0.59795 0.50705 0.0
H683 H 0.70985 0.58552 0.51956 0.0
C684 C 0.20561 0.74045 0.63799 0.0
C685 C 0.19444 0.77269 0.63924 0.0
C686 C 0.18235 0.70171 0.64548 0.0
C687 C 0.11623 0.65633 0.67791 0.0
H688 H 0.08334 0.54665 0.65953 0.0
C689 C -0.00468 0.49006 0.70195 0.0
C690 C 6e-05 0.45492 0.69797 0.0
C691 C 0.02481 0.53135 0.69696 0.0
C692 C 0.09313 0.57707 0.66494 0.0
H693 H 0.14914 0.78903 0.64886 0.0
H694 H 0.10824 0.72086 0.66195 0.0
H695 H 0.11964 0.6125 0.64532 0.0
H696 H 0.04018 0.43475 0.68685 0.0
H697 H 0.09306 0.50721 0.67867 0.0
H698 H 0.08953 0.62073 0.69756 0.0
C699 C 0.13533 0.72599 0.65527 0.0
C700 C 0.11356 0.61471 0.65674 0.0
C701 C 0.15841 0.76471 0.64765 0.0
C702 C 0.03642 0.46176 0.69012 0.0
C703 C 0.0662 0.50304 0.6853 0.0
C704 C 0.09593 0.61858 0.68617 0.0
C705 C 0.14761 0.69451 0.65443 0.0
C706 C 0.12515 0.65464 0.66312 0.0
C707 C 0.05933 0.53778 0.68796 0.0
C708 C 0.08409 0.57853 0.67975 0.0
H709 H 0.23314 0.74562 0.63155 0.0
H710 H 0.19256 0.678 0.64468 0.0
H711 H 0.12545 0.68688 0.68313 0.0
H712 H 0.96688 0.48502 0.70779 0.0
H713 H 0.01847 0.55736 0.69914 0.0
C714 C 0.49647 0.25157 0.8307 0.0
C715 C 0.45261 0.22629 0.82714 0.0
C716 C 0.51715 0.23367 0.83833 0.0
C717 C 0.49719 0.14178 0.86144 0.0
H718 H 0.59972 0.15261 0.84316 0.0
C719 C 0.56819 0.02618 0.85231 0.0
C720 C 0.56979 0.01244 0.86642 0.0
C721 C 0.56427 0.0624 0.85016 0.0
C722 C 0.57157 0.14994 0.84853 0.0
H723 H 0.39592 0.16267 0.82905 0.0
H724 H 0.43215 0.13145 0.84228 0.0
H725 H 0.57028 0.19685 0.83461 0.0
H726 H 0.57021 0.02651 0.88936 0.0
H727 H 0.56192 0.08971 0.88555 0.0
H728 H 0.49705 0.09297 0.87478 0.0
C729 C 0.45035 0.16521 0.83928 0.0
C730 C 0.55484 0.17531 0.8437 0.0
C731 C 0.42975 0.18296 0.83155 0.0
C732 C 0.56892 0.03647 0.87838 0.0
C733 C 0.56421 0.07248 0.87622 0.0
C734 C 0.51411 0.11662 0.86635 0.0
C735 C 0.49426 0.19033 0.84266 0.0
C736 C 0.51649 0.17009 0.84971 0.0
C737 C 0.56134 0.08534 0.86208 0.0
C738 C 0.55035 0.11922 0.85951 0.0
H739 H 0.51501 0.28511 0.82748 0.0
H740 H 0.55104 0.25365 0.84081 0.0
H741 H 0.46788 0.13764 0.86637 0.0
H742 H 0.56933 0.00853 0.8429 0.0
H743 H 0.56151 0.07128 0.83916 0.0
C744 C 0.24046 0.45116 0.00188 0.0
C745 C 0.20561 0.41003 -0.00128 0.0
C746 C 0.27833 0.45562 0.00753 0.0
C747 C 0.36039 0.4499 0.00754 0.0
H748 H 0.36599 0.40051 0.04433 0.0
C749 C 0.51774 0.46695 0.02708 0.0
C750 C 0.53132 0.48873 0.04045 0.0
C751 C 0.47505 0.44876 0.02278 0.0
C752 C 0.36463 0.41413 0.034 0.0
H753 H 0.18241 0.34127 -0.00058 0.0
H754 H 0.24892 0.34932 0.00967 0.0
H755 H 0.29596 0.38633 0.03503 0.0
H756 H 0.50987 0.50528 0.06029 0.0
H757 H 0.43491 0.47327 0.05267 0.0
H758 H 0.42867 0.47798 0.00644 0.0
C759 C 0.24667 0.37785 0.0076 0.0
C760 C 0.32483 0.40595 0.0287 0.0
C761 C 0.20894 0.37336 0.00167 0.0
C762 C 0.50054 0.48909 0.04988 0.0
C763 C 0.45762 0.47056 0.04558 0.0
C764 C 0.39988 0.45742 0.01268 0.0
C765 C 0.28173 0.41905 0.01035 0.0
C766 C 0.32272 0.42446 0.01556 0.0
C767 C 0.44501 0.45165 0.03179 0.0
C768 C 0.4024 0.44008 0.02603 0.0
H769 H 0.23886 0.47999 -0.00032 0.0
H770 H 0.30511 0.48769 0.00965 0.0
H771 H 0.35928 0.46429 -0.00266 0.0
H772 H 0.5404 0.46549 0.01962 0.0
H773 H 0.46581 0.43389 0.01215 0.0
C774 C 0.05084 0.59184 0.15573 0.0
C775 C 0.03697 0.59981 0.16909 0.0
C776 C 0.02718 0.55156 0.14899 0.0
C777 C 0.92294 0.44848 0.15039 0.0
H778 H -0.00736 0.39428 0.14601 0.0
C779 C 0.86407 0.2775 0.16758 0.0
C780 C 0.86128 0.24806 0.1569 0.0
C781 C 0.88693 0.3216 0.16487 0.0
C782 C 0.9729 0.40919 0.14684 0.0
H783 H 0.98601 0.57379 0.18524 0.0
H784 H 0.94469 0.50406 0.1735 0.0
H785 H 0.02761 0.47298 0.14759 0.0
H786 H 0.88317 0.24221 0.13541 0.0
H787 H 0.92463 0.32026 0.13093 0.0
H788 H 0.86853 0.3845 0.15084 0.0
C789 C 0.97369 0.52851 0.16819 0.0
C790 C -0.00723 0.45414 0.14768 0.0
C791 C -0.00247 0.56833 0.17499 0.0
C792 C 0.88467 0.26403 0.14386 0.0
C793 C 0.90814 0.30852 0.14123 0.0
C794 C 0.9032 0.40371 0.14966 0.0
C795 C -0.01098 0.51914 0.1554 0.0
C796 C 0.96802 0.47398 0.15021 0.0
C797 C 0.908 0.33732 0.15155 0.0
C798 C 0.92819 0.38379 0.14857 0.0
H799 H 0.08126 0.61562 0.15098 0.0
H800 H 0.03958 0.54516 0.13912 0.0
H801 H 0.9031 0.46299 0.1521 0.0
H802 H 0.84681 0.26651 0.17778 0.0
H803 H 0.88721 0.3435 0.17308 0.0
C804 C 0.91915 0.49257 0.46353 0.0
C805 C 0.92043 0.51816 0.45182 0.0
C806 C 0.9451 0.47396 0.46346 0.0
C807 C 0.04766 0.49316 0.45139 0.0
H808 H 0.00424 0.37337 0.46162 0.0
C809 C 0.16384 0.43247 0.46458 0.0
C810 C 0.15298 0.40616 0.47695 0.0
C811 C 0.13353 0.44059 0.45818 0.0
C812 C 0.0169 0.40693 0.4588 0.0
H813 H 0.9496 0.54427 0.43084 0.0
H814 H -0.00376 0.51264 0.43101 0.0
H815 H 0.95375 0.39854 0.45672 0.0
H816 H 0.1017 0.36679 0.49209 0.0
H817 H 0.04946 0.38232 0.48135 0.0
H818 H 0.11063 0.50269 0.45444 0.0
C819 C 0.97456 0.50661 0.44007 0.0
C820 C 0.98801 0.42115 0.45592 0.0
C821 C 0.94797 0.52461 0.44 0.0
C822 C 0.11094 0.38709 0.48254 0.0
C823 C 0.08086 0.39573 0.47628 0.0
C824 C 0.07657 0.47915 0.4545 0.0
C825 C 0.97326 0.48119 0.45181 0.0
C826 C 0.00324 0.46459 0.45255 0.0
C827 C 0.09198 0.4231 0.46415 0.0
C828 C 0.0615 0.43613 0.45864 0.0
H829 H 0.89798 0.48681 0.47273 0.0
H830 H 0.94404 0.45488 0.47272 0.0
H831 H 0.06003 0.52692 0.44893 0.0
H832 H 0.19587 0.44708 0.45991 0.0
H833 H 0.1429 0.46115 0.44869 0.0
C834 C 0.47157 0.03376 0.60776 0.0
C835 C 0.44789 0.00125 0.61803 0.0
C836 C 0.51554 0.06214 0.60975 0.0
C837 C 0.60871 0.07388 0.63023 0.0
H838 H 0.6513 0.19678 0.6278 0.0
C839 C 0.7419 0.23538 0.6604 0.0
C840 C 0.77579 0.22665 0.66103 0.0
C841 C 0.70652 0.21064 0.65154 0.0
C842 C 0.63987 0.16254 0.62849 0.0
H843 H 0.45181 0.97308 0.63841 0.0
H844 H 0.5278 0.02266 0.64192 0.0
H845 H 0.57911 0.14589 0.61908 0.0
H846 H 0.80086 0.18733 0.65224 0.0
H847 H 0.73963 0.14485 0.6365 0.0
H848 H 0.66771 0.08994 0.64058 0.0
C849 C 0.51273 0.02578 0.63221 0.0
C850 C 0.59882 0.13348 0.62333 0.0
C851 C 0.46901 -0.0024 0.63025 0.0
C852 C 0.77465 0.19409 0.6522 0.0
C853 C 0.73966 0.16984 0.64317 0.0
C854 C 0.64947 0.1028 0.63547 0.0
C855 C 0.53643 0.05823 0.62198 0.0
C856 C 0.58235 0.0889 0.62468 0.0
C857 C 0.70476 0.17719 0.64298 0.0
C858 C 0.66491 0.14739 0.63512 0.0
H859 H 0.45621 0.03737 0.59821 0.0
H860 H 0.5332 0.08695 0.60172 0.0
H861 H 0.59699 0.03961 0.63115 0.0
H862 H 0.74211 0.26044 0.66708 0.0
H863 H 0.67986 0.21668 0.65184 0.0
C864 C 0.48294 0.73261 0.83831 0.0
C865 C 0.52781 0.75494 0.84044 0.0
C866 C 0.46325 0.69491 0.82999 0.0
C867 C 0.48801 0.63884 0.80138 0.0
H868 H 0.38985 0.5344 0.81619 0.0
C869 C 0.46064 0.47215 0.79082 0.0
C870 C 0.41895 0.4367 0.78955 0.0
C871 C 0.46692 0.5133 0.79294 0.0
C872 C 0.41643 0.56356 0.81168 0.0
H873 H 0.58683 0.75419 0.83591 0.0
H874 H 0.55238 0.68834 0.82157 0.0
H875 H 0.41488 0.60244 0.82914 0.0
H876 H 0.35106 0.41596 0.78875 0.0
H877 H 0.362 0.4887 0.79292 0.0
H878 H 0.49099 0.59962 0.78436 0.0
C879 C 0.53263 0.7005 0.82611 0.0
C880 C 0.43091 0.60242 0.81914 0.0
C881 C 0.55227 0.73795 0.83448 0.0
C882 C 0.38351 0.44313 0.78963 0.0
C883 C 0.38975 0.48448 0.79207 0.0
C884 C 0.47352 0.60011 0.79393 0.0
C885 C 0.48809 0.67907 0.82357 0.0
C886 C 0.468 0.63993 0.8144 0.0
C887 C 0.43152 0.5197 0.79408 0.0
C888 C 0.43884 0.56179 0.79938 0.0
H889 H 0.4631 0.74476 0.84277 0.0
H890 H 0.42881 0.67882 0.82826 0.0
H891 H 0.51606 0.6676 0.79731 0.0
H892 H 0.48836 0.46773 0.79076 0.0
H893 H 0.49942 0.53965 0.79466 0.0
C894 C 0.84646 0.62421 0.02518 0.0
C895 C 0.81004 0.61922 0.01798 0.0
C896 C 0.87731 0.61902 0.01751 0.0
C897 C 0.87961 0.55803 0.9859 0.0
H898 H 0.00011 0.60894 -0.00415 0.0
C899 C 0.98846 0.49214 0.96468 0.0
C900 C 0.01157 0.48619 0.97582 0.0
C901 C 0.96708 0.51515 0.96739 0.0
C902 C 0.96652 0.59463 0.9929 0.0
H903 H 0.77862 0.60919 -0.00282 0.0
H904 H 0.83314 0.60181 0.98368 0.0
H905 H 0.95908 0.64162 0.00501 0.0
H906 H 0.02897 0.4985 -0.00134 0.0
H907 H -0.0081 0.53796 0.00324 0.0
H908 H 0.88671 0.51017 0.97424 0.0
C909 C 0.8375 0.60828 0.99523 0.0
C910 C 0.94308 0.61326 -0.00184 0.0
C911 C 0.80651 0.61278 0.00291 0.0
C912 C 0.01196 0.50277 0.98974 0.0
C913 C -0.00897 0.52582 0.99237 0.0
C914 C 0.9031 0.53953 0.9806 0.0
C915 C 0.87211 0.60922 0.00255 0.0
C916 C 0.89903 0.59436 0.99509 0.0
C917 C 0.96888 0.53277 0.98122 0.0
C918 C 0.94635 0.5568 0.98447 0.0
H919 H 0.84943 0.62889 0.03684 0.0
H920 H 0.90348 0.61966 0.02349 0.0
H921 H 0.84557 0.54222 0.98348 0.0
H922 H 0.98762 0.47986 0.95385 0.0
H923 H 0.94986 0.51985 0.95863 0.0
C924 C 0.57682 0.08462 0.18182 0.0
C925 C 0.59251 0.05901 0.17584 0.0
C926 C 0.5332 0.0662 0.1854 0.0
C927 C 0.43099 0.97427 0.17369 0.0
H928 H 0.38046 0.00222 0.20626 0.0
C929 C 0.25016 0.89206 0.17757 0.0
C930 C 0.23336 0.87309 0.1911 0.0
C931 C 0.29293 0.92493 0.17634 0.0
C932 C 0.39416 -0.0058 0.1971 0.0
H933 H 0.57636 0.99377 0.17031 0.0
H934 H 0.5008 0.96146 0.17699 0.0
H935 H 0.4589 0.03617 0.20431 0.0
H936 H 0.24658 0.87566 0.21413 0.0
H937 H 0.32184 0.93163 0.21191 0.0
H938 H 0.36714 0.93102 0.16673 0.0
C939 C 0.52161 -0.00408 0.17841 0.0
C940 C 0.439 0.01376 0.19595 0.0
C941 C 0.56489 0.01431 0.17468 0.0
C942 C 0.25885 0.88989 0.20356 0.0
C943 C 0.30198 0.92212 0.20229 0.0
C944 C 0.38651 0.95471 0.17485 0.0
C945 C 0.50491 0.02193 0.18316 0.0
C946 C 0.45773 0.00322 0.18438 0.0
C947 C 0.31999 0.93848 0.18855 0.0
C948 C 0.36742 0.96393 0.18665 0.0
H949 H 0.59752 0.11923 0.18281 0.0
H950 H 0.52122 0.087 0.18907 0.0
H951 H 0.44444 0.96628 0.16444 0.0
H952 H 0.23083 0.88005 0.16784 0.0
H953 H 0.30547 0.93787 0.16566 0.0
C954 C 0.43868 0.44383 0.28311 0.0
C955 C 0.47734 0.46838 0.27539 0.0
C956 C 0.42787 0.40342 0.2886 0.0
C957 C 0.45843 0.31838 0.28885 0.0
H958 H 0.42428 0.3087 0.32934 0.0
C959 C 0.47102 0.20153 0.32882 0.0
C960 C 0.43539 0.17764 0.33799 0.0
C961 C 0.47365 0.23505 0.32037 0.0
C962 C 0.43331 0.31064 0.31801 0.0
H963 H 0.53312 0.46818 0.26629 0.0
H964 H 0.51467 0.39805 0.27609 0.0
H965 H 0.42991 0.36775 0.31481 0.0
H966 H 0.3751 0.17101 0.34574 0.0
H967 H 0.37991 0.22953 0.33106 0.0
H968 H 0.46285 0.26164 0.29228 0.0
C969 C 0.49246 0.40978 0.27781 0.0
C970 C 0.4363 0.34434 0.30963 0.0
C971 C 0.50309 0.45008 0.27219 0.0
C972 C 0.40301 0.18871 0.33879 0.0
C973 C 0.40577 0.22232 0.33041 0.0
C974 C 0.45559 0.28469 0.29727 0.0
C975 C 0.45571 0.3869 0.28661 0.0
C976 C 0.44911 0.34877 0.29498 0.0
C977 C 0.44088 0.24553 0.32101 0.0
C978 C 0.44326 0.2807 0.31195 0.0
H979 H 0.41782 0.45678 0.28556 0.0
H980 H 0.3987 0.38599 0.295 0.0
H981 H 0.46804 0.32072 0.27757 0.0
H982 H 0.49648 0.19381 0.32792 0.0
H983 H 0.50139 0.25286 0.31336 0.0
C984 C 0.9768 0.73125 0.41704 0.0
C985 C 0.95219 0.68626 0.41535 0.0
C986 C 0.01716 0.7545 0.41051 0.0
C987 C 0.11123 0.785 0.40657 0.0
H988 H 0.13944 0.77797 0.3663 0.0
C989 C 0.28314 0.88917 0.38719 0.0
C990 C 0.2867 0.91504 0.37524 0.0
C991 C 0.24398 0.85228 0.3904 0.0
C992 C 0.13199 0.77995 0.37759 0.0
H993 H 0.94948 0.63085 0.4046 0.0
H994 H 0.0203 0.67191 0.39314 0.0
H995 H 0.06505 0.73313 0.3749 0.0
H996 H 0.25318 0.92004 0.35646 0.0
H997 H 0.18474 0.85632 0.36228 0.0
H998 H 0.17722 0.83262 0.4093 0.0
C999 C 0.00817 0.68888 0.3996 0.0
C1000 C 0.08958 0.75428 0.3825 0.0
C1001 C 0.96769 0.66546 0.40618 0.0
C1002 C 0.25143 0.90111 0.36585 0.0
C1003 C 0.2122 0.86433 0.36911 0.0
C1004 C 0.15342 0.81033 0.40172 0.0
C1005 C 0.03375 0.73335 0.40212 0.0
C1006 C 0.07877 0.75751 0.39694 0.0
C1007 C 0.20761 0.84071 0.38179 0.0
C1008 C 0.16415 0.80876 0.38713 0.0
H1009 H 0.96571 0.74843 0.42387 0.0
H1010 H 0.03597 0.78899 0.41235 0.0
H1011 H 0.10384 0.7875 0.41783 0.0
H1012 H 0.30994 0.89851 0.39449 0.0
H1013 H 0.24157 0.83408 0.40008 0.0
C1014 C 0.22802 0.23959 0.53451 0.0
C1015 C 0.26452 0.27984 0.5316 0.0
C1016 C 0.23108 0.2104 0.54371 0.0
C1017 C 0.30588 0.18189 0.56011 0.0
H1018 H 0.2249 0.14087 0.59234 0.0
C1019 C 0.3216 0.08013 0.60389 0.0
C1020 C 0.28321 0.04165 0.60694 0.0
C1021 C 0.32044 0.11407 0.59701 0.0
C1022 C 0.24759 0.15189 0.58337 0.0
H1023 H 0.3333 0.31989 0.53501 0.0
H1024 H 0.33874 0.26847 0.5508 0.0
H1025 H 0.2195 0.18611 0.57367 0.0
H1026 H 0.2135 0.01008 0.6066 0.0
H1027 H 0.21144 0.06874 0.59427 0.0
H1028 H 0.33334 0.14694 0.56944 0.0
C1029 C 0.30777 0.25973 0.54615 0.0
C1030 C 0.24435 0.17755 0.57267 0.0
C1031 C 0.30463 0.28911 0.53714 0.0
C1032 C 0.24363 0.03937 0.60436 0.0
C1033 C 0.24247 0.07309 0.59729 0.0
C1034 C 0.30888 0.15595 0.5707 0.0
C1035 C 0.27078 0.22082 0.5499 0.0
C1036 C 0.27338 0.19258 0.56094 0.0
C1037 C 0.28089 0.10983 0.59287 0.0
C1038 C 0.27972 0.14055 0.58244 0.0
H1039 H 0.19668 0.23175 0.53044 0.0
H1040 H 0.20224 0.18024 0.54632 0.0
H1041 H 0.32849 0.19298 0.55111 0.0
H1042 H 0.35257 0.08296 0.60598 0.0
H1043 H 0.35058 0.14259 0.59415 0.0
C1044 C 0.20528 0.20323 0.78138 0.0
C1045 C 0.24099 0.24482 0.78294 0.0
C1046 C 0.16597 0.19799 0.7767 0.0
C1047 C 0.10464 0.25361 0.77192 0.0
H1048 H 0.07515 0.20025 0.73382 0.0
C1049 C 0.02173 0.30342 0.73028 0.0
C1050 C -0.01047 0.27163 0.7215 0.0
C1051 C 0.04677 0.29331 0.73909 0.0
C1052 C 0.08223 0.21445 0.74457 0.0
H1053 H 0.26363 0.31329 0.78199 0.0
H1054 H 0.19482 0.30422 0.77426 0.0
H1055 H 0.12582 0.1916 0.74895 0.0
H1056 H 0.95925 0.20461 0.7147 0.0
H1057 H 0.00289 0.18693 0.73023 0.0
H1058 H 0.06214 0.27752 0.76747 0.0
C1059 C 0.19704 0.27574 0.77648 0.0
C1060 C 0.11106 0.20932 0.75324 0.0
C1061 C 0.23637 0.28095 0.78078 0.0
C1062 C 0.98403 0.22992 0.72128 0.0
C1063 C 0.00891 0.21972 0.73021 0.0
C1064 C 0.07554 0.25839 0.76334 0.0
C1065 C 0.16194 0.23432 0.77397 0.0
C1066 C 0.1237 0.23029 0.76672 0.0
C1067 C 0.03992 0.25111 0.73942 0.0
C1068 C 0.06546 0.24039 0.74932 0.0
H1069 H 0.20847 0.17502 0.78295 0.0
H1070 H 0.13922 0.1658 0.77476 0.0
H1071 H 0.11386 0.26984 0.78234 0.0
H1072 H 0.027 0.33594 0.73059 0.0
H1073 H 0.07135 0.31857 0.74574 0.0
C1074 C 0.77417 0.004 0.88384 0.0
C1075 C 0.74381 0.00551 0.87479 0.0
C1076 C 0.80825 0.04219 0.88937 0.0
C1077 C 0.82642 0.1493 0.899 0.0
H1078 H 0.93585 0.167 0.91277 0.0
C1079 C 0.95012 0.29886 0.93183 0.0
C1080 C 0.96929 0.29019 0.94363 0.0
C1081 C 0.92288 0.26574 0.92243 0.0
C1082 C 0.90525 0.16228 0.90901 0.0
H1083 H 0.72671 0.04703 0.86318 0.0
H1084 H 0.78756 0.11398 0.87215 0.0
H1085 H 0.89362 0.10814 0.89587 0.0
H1086 H 0.972 0.23922 0.95545 0.0
H1087 H 0.92445 0.18174 0.93907 0.0
H1088 H 0.8381 0.20338 0.91222 0.0
C1089 C 0.78456 0.08359 0.87541 0.0
C1090 C 0.88117 0.12871 0.89933 0.0
C1091 C 0.75015 0.04543 0.87011 0.0
C1092 C 0.95817 0.24724 0.94641 0.0
C1093 C 0.93128 0.2143 0.93696 0.0
C1094 C 0.8507 0.18309 0.90857 0.0
C1095 C 0.81241 0.08229 0.8858 0.0
C1096 C 0.84108 0.12133 0.89441 0.0
C1097 C 0.91454 0.2235 0.92465 0.0
C1098 C 0.88988 0.1893 0.91388 0.0
H1099 H 0.76921 0.97335 0.88775 0.0
H1100 H 0.82892 0.03992 0.89739 0.0
H1101 H 0.79527 0.14407 0.89571 0.0
H1102 H 0.95784 0.33153 0.9294 0.0
H1103 H 0.91009 0.27355 0.91304 0.0
C1104 C 0.71168 0.95361 0.1351 0.0
C1105 C 0.68575 0.97264 0.13464 0.0
C1106 C 0.6974 0.91315 0.12878 0.0
C1107 C 0.65033 0.81901 0.11828 0.0
H1108 H 0.61506 0.81703 0.07836 0.0
C1109 C 0.61328 0.67762 0.0807 0.0
C1110 C 0.64079 0.69095 0.0685 0.0
C1111 C 0.60783 0.70748 0.08878 0.0
C1112 C 0.62437 0.81699 0.08953 0.0
H1113 H 0.62296 0.96243 0.12844 0.0
H1114 H 0.59856 0.89232 0.11739 0.0
H1115 H 0.62751 0.87693 0.09426 0.0
H1116 H 0.68026 0.74507 0.05433 0.0
H1117 H 0.67014 0.7971 0.0684 0.0
H1118 H 0.64852 0.75973 0.11339 0.0
C1119 C 0.63005 0.90894 0.1224 0.0
C1120 C 0.63127 0.85102 0.09863 0.0
C1121 C 0.64415 0.94911 0.12873 0.0
C1122 C 0.65922 0.73385 0.06374 0.0
C1123 C 0.65333 0.76362 0.07176 0.0
C1124 C 0.64288 0.78468 0.10923 0.0
C1125 C 0.65709 0.89131 0.12193 0.0
C1126 C 0.64518 0.85274 0.11299 0.0
C1127 C 0.62916 0.75098 0.08469 0.0
C1128 C 0.63075 0.78392 0.09469 0.0
H1129 H 0.74376 0.97082 0.13964 0.0
H1130 H 0.71887 0.90014 0.12851 0.0
H1131 H 0.66092 0.81966 0.12932 0.0
H1132 H 0.59817 0.64472 0.08461 0.0
H1133 H 0.58857 0.69698 0.09862 0.0
C1134 C 0.6837 0.5727 0.26398 0.0
C1135 C 0.67923 0.59581 0.27559 0.0
C1136 C 0.7213 0.57061 0.26238 0.0
C1137 C 0.83322 0.64232 0.26888 0.0
H1138 H 0.84968 0.55082 0.25343 0.0
C1139 C -0.00239 0.68363 0.24676 0.0
C1140 C -0.00196 0.66335 0.23379 0.0
C1141 C 0.95995 0.66757 0.25495 0.0
C1142 C 0.84559 0.57678 0.25766 0.0
H1143 H 0.7087 0.63057 0.29552 0.0
H1144 H 0.77434 0.62717 0.29259 0.0
H1145 H 0.77887 0.5339 0.26272 0.0
H1146 H 0.96068 0.60982 0.21931 0.0
H1147 H 0.89364 0.58309 0.23308 0.0
H1148 H 0.89815 0.68583 0.26294 0.0
C1149 C 0.74893 0.61117 0.28467 0.0
C1150 C 0.80517 0.56696 0.26308 0.0
C1151 C 0.71131 0.6131 0.28632 0.0
C1152 C 0.96079 0.62584 0.22933 0.0
C1153 C 0.92259 0.61042 0.23731 0.0
C1154 C 0.87318 0.65222 0.26328 0.0
C1155 C 0.75506 0.59167 0.27234 0.0
C1156 C 0.79857 0.59982 0.26856 0.0
C1157 C 0.92146 0.63178 0.25005 0.0
C1158 C 0.87987 0.61976 0.25739 0.0
H1159 H 0.65937 0.55847 0.25562 0.0
H1160 H 0.72526 0.55545 0.25275 0.0
H1161 H 0.82882 0.66847 0.27273 0.0
H1162 H 0.02639 0.71226 0.25047 0.0
H1163 H 0.96083 0.68405 0.26493 0.0
C1164 C 0.6967 0.44825 0.44405 0.0
C1165 C 0.72589 0.45697 0.45536 0.0
C1166 C 0.66037 0.40768 0.44271 0.0
C1167 C 0.6333 0.29846 0.44826 0.0
H1168 H 0.52895 0.27745 0.42887 0.0
C1169 C 0.52723 0.14568 0.41379 0.0
C1170 C 0.51997 0.15586 0.39973 0.0
C1171 C 0.5443 0.17733 0.42456 0.0
C1172 C 0.5577 0.28268 0.43442 0.0
H1173 H 0.73877 0.43158 0.47479 0.0
H1174 H 0.67512 0.35939 0.47222 0.0
H1175 H 0.57064 0.34373 0.44282 0.0
H1176 H 0.525 0.20715 0.38594 0.0
H1177 H 0.55503 0.26241 0.40475 0.0
H1178 H 0.62162 0.23852 0.43913 0.0
C1179 C 0.6804 0.38426 0.46448 0.0
C1180 C 0.58138 0.32039 0.44244 0.0
C1181 C 0.71664 0.42539 0.46595 0.0
C1182 C 0.53054 0.19837 0.39662 0.0
C1183 C 0.54709 0.22983 0.40744 0.0
C1184 C 0.60942 0.26055 0.4403 0.0
C1185 C 0.65273 0.37474 0.45256 0.0
C1186 C 0.62074 0.32979 0.44869 0.0
C1187 C 0.55378 0.2195 0.42152 0.0
C1188 C 0.5728 0.25363 0.43267 0.0
H1189 H 0.70296 0.47231 0.43585 0.0
H1190 H 0.64008 0.40132 0.4333 0.0
H1191 H 0.66363 0.30492 0.45288 0.0
H1192 H 0.5193 0.11313 0.41652 0.0
H1193 H 0.54947 0.16874 0.43532 0.0
C1194 C 0.32393 0.83149 0.5694 0.0
C1195 C 0.33066 0.83051 0.58441 0.0
C1196 C 0.3245 0.80092 0.56008 0.0
C1197 C 0.36088 0.72142 0.55751 0.0
H1198 H 0.26684 0.66222 0.53028 0.0
C1199 C 0.30792 0.55249 0.53733 0.0
C1200 C 0.2988 0.54234 0.52252 0.0
C1201 C 0.31557 0.59188 0.5428 0.0
C1202 C 0.29374 0.67904 0.53761 0.0
H1203 H 0.34396 0.79685 0.60131 0.0
H1204 H 0.34477 0.74351 0.58507 0.0
H1205 H 0.27398 0.72402 0.54404 0.0
H1206 H 0.28985 0.56579 0.5019 0.0
H1207 H 0.30282 0.63525 0.51168 0.0
H1208 H 0.37982 0.67566 0.55147 0.0
C1209 C 0.33947 0.76824 0.5805 0.0
C1210 C 0.29782 0.71434 0.54551 0.0
C1211 C 0.33874 0.79868 0.58983 0.0
C1212 C 0.29686 0.57261 0.51334 0.0
C1213 C 0.30423 0.61226 0.51892 0.0
C1214 C 0.3568 0.68625 0.54964 0.0
C1215 C 0.33204 0.76884 0.56555 0.0
C1216 C 0.33072 0.73505 0.55585 0.0
C1217 C 0.3142 0.62235 0.53368 0.0
C1218 C 0.32243 0.66389 0.53996 0.0
H1219 H 0.31762 0.85553 0.56482 0.0
H1220 H 0.31903 0.80241 0.5486 0.0
H1221 H 0.38712 0.73734 0.56515 0.0
H1222 H 0.30961 0.53015 0.5448 0.0
H1223 H 0.32224 0.59835 0.55428 0.0
C1224 C 0.5612 0.36363 0.77662 0.0
C1225 C 0.52391 0.35708 0.7695 0.0
C1226 C 0.59881 0.37545 0.76876 0.0
C1227 C 0.6334 0.36594 0.73227 0.0
H1228 H 0.74732 0.43953 0.74814 0.0
C1229 C 0.78374 0.37971 0.70493 0.0
C1230 C 0.80882 0.37116 0.71453 0.0
C1231 C 0.75284 0.389 0.71029 0.0
C1232 C 0.71569 0.41912 0.74354 0.0
H1233 H 0.49745 0.35972 0.74863 0.0
H1234 H 0.56322 0.38066 0.73498 0.0
H1235 H 0.6847 0.43548 0.76026 0.0
H1236 H 0.82277 0.36795 0.73726 0.0
H1237 H 0.76875 0.38369 0.74654 0.0
H1238 H 0.66409 0.34835 0.71587 0.0
C1239 C 0.5631 0.37595 0.74659 0.0
C1240 C 0.67992 0.4167 0.75049 0.0
C1241 C 0.52545 0.36395 0.75443 0.0
C1242 C 0.80373 0.374 0.72956 0.0
C1243 C 0.7731 0.38351 0.7349 0.0
C1244 C 0.66914 0.36847 0.72531 0.0
C1245 C 0.59995 0.38116 0.75364 0.0
C1246 C 0.63832 0.38904 0.74516 0.0
C1247 C 0.74679 0.39024 0.72533 0.0
C1248 C 0.71044 0.39402 0.73114 0.0
H1249 H 0.56112 0.35864 0.78822 0.0
H1250 H 0.62651 0.37857 0.77447 0.0
H1251 H 0.60173 0.34397 0.72799 0.0
H1252 H 0.78704 0.378 0.69328 0.0
H1253 H 0.73308 0.39432 0.70269 0.0
C1254 C 0.4746 0.83183 0.91258 0.0
C1255 C 0.46937 0.83075 0.89742 0.0
C1256 C 0.4402 0.80491 0.92158 0.0
C1257 C 0.32214 0.73516 0.92295 0.0
H1258 H 0.34654 0.66745 0.94995 0.0
C1259 C 0.19376 0.56855 0.94211 0.0
C1260 C 0.19418 0.55551 0.95646 0.0
C1261 C 0.22649 0.60801 0.93702 0.0
C1262 C 0.33931 0.68671 0.94272 0.0
H1263 H 0.42329 0.80176 0.87991 0.0
H1264 H 0.36325 0.75445 0.89566 0.0
H1265 H 0.4055 0.72693 0.93689 0.0
H1266 H 0.2292 0.57424 0.9768 0.0
H1267 H 0.28691 0.64367 0.96778 0.0
H1268 H 0.2558 0.69405 0.92845 0.0
C1269 C 0.394 0.77646 0.90055 0.0
C1270 C 0.37306 0.72073 0.93522 0.0
C1271 C 0.42847 0.80336 0.89152 0.0
C1272 C 0.228 0.58326 0.96568 0.0
C1273 C 0.26102 0.62293 0.96052 0.0
C1274 C 0.28842 0.70125 0.93048 0.0
C1275 C 0.39979 0.77643 0.91564 0.0
C1276 C 0.36465 0.74446 0.92496 0.0
C1277 C 0.26055 0.63555 0.94612 0.0
C1278 C 0.29657 0.67585 0.9401 0.0
H1279 H 0.50555 0.85281 0.91753 0.0
H1280 H 0.44539 0.80589 0.93319 0.0
H1281 H 0.31489 0.75346 0.91529 0.0
H1282 H 0.16826 0.54814 0.93468 0.0
H1283 H 0.22566 0.61639 0.92578 0.0
C1284 C 0.68008 0.20733 0.1233 0.0
C1285 C 0.70378 0.22076 0.13626 0.0
C1286 C 0.68147 0.23725 0.11349 0.0
C1287 C 0.74004 0.35125 0.10237 0.0
H1288 H 0.62765 0.32259 0.08774 0.0
C1289 C 0.65222 0.44179 0.07676 0.0
C1290 C 0.67814 0.46388 0.06475 0.0
C1291 C 0.65801 0.41132 0.08406 0.0
C1292 C 0.65928 0.33093 0.09167 0.0
H1293 H 0.74904 0.2764 0.14879 0.0
H1294 H 0.75008 0.32941 0.13169 0.0
H1295 H 0.634 0.27304 0.10398 0.0
H1296 H 0.73024 0.47118 0.05083 0.0
H1297 H 0.7406 0.41713 0.06382 0.0
H1298 H 0.76472 0.41029 0.09032 0.0
C1299 C 0.73086 0.29538 0.12917 0.0
C1300 C 0.66301 0.30247 0.10091 0.0
C1301 C 0.72989 0.26514 0.13901 0.0
C1302 C 0.70966 0.4543 0.06 0.0
C1303 C 0.71584 0.42385 0.06748 0.0
C1304 C 0.73626 0.37995 0.09305 0.0
C1305 C 0.70607 0.28153 0.11641 0.0
C1306 C 0.70331 0.31236 0.10645 0.0
C1307 C 0.68999 0.40221 0.07959 0.0
C1308 C 0.69567 0.3702 0.08783 0.0
H1309 H 0.66063 0.17346 0.12056 0.0
H1310 H 0.66296 0.22557 0.10359 0.0
H1311 H 0.77153 0.35946 0.10638 0.0
H1312 H 0.62754 0.44835 0.08065 0.0
H1313 H 0.63794 0.39544 0.09344 0.0
C1314 C 0.46552 0.62228 0.22774 0.0
C1315 C 0.4533 0.61331 0.24244 0.0
C1316 C 0.43969 0.62863 0.2179 0.0
C1317 C 0.39091 0.66859 0.2031 0.0
H1318 H 0.26726 0.59408 0.20622 0.0
C1319 C 0.26695 0.71909 0.18867 0.0
C1320 C 0.22494 0.68658 0.18537 0.0
C1321 C 0.299 0.70851 0.19099 0.0
C1322 C 0.30169 0.61475 0.20488 0.0
H1323 H 0.40422 0.60373 0.25827 0.0
H1324 H 0.35943 0.61469 0.24117 0.0
H1325 H 0.31429 0.57698 0.21978 0.0
H1326 H 0.18406 0.61893 0.18029 0.0
H1327 H 0.24038 0.60072 0.18357 0.0
H1328 H 0.37805 0.70695 0.18839 0.0
C1329 C 0.38877 0.6165 0.23722 0.0
C1330 C 0.32862 0.60519 0.21285 0.0
C1331 C 0.41461 0.61049 0.24704 0.0
C1332 C 0.21634 0.64439 0.18292 0.0
C1333 C 0.24848 0.63399 0.18492 0.0
C1334 C 0.36384 0.67825 0.19508 0.0
C1335 C 0.401 0.62564 0.22256 0.0
C1336 C 0.37338 0.63268 0.2124 0.0
C1337 C 0.2894 0.66537 0.18987 0.0
C1338 C 0.31885 0.65199 0.19619 0.0
H1339 H 0.49525 0.62487 0.22385 0.0
H1340 H 0.44977 0.63555 0.20665 0.0
H1341 H 0.42538 0.69035 0.20257 0.0
H1342 H 0.27401 0.75179 0.19073 0.0
H1343 H 0.33008 0.73348 0.19486 0.0
loop_
_geom_bond_atom_site_label_1
_geom_bond_atom_site_label_2
_geom_bond_distance
_geom_bond_site_symmetry_2
_ccdc_geom_bond_type
Sc0 O3 2.025 . S
Sc0 O10 2.105 . S
Sc0 O13 2.105 . S
Sc0 O16 2.105 . S
Sc0 O19 2.105 . S
Sc1 O3 2.025 . S
Sc1 O11 2.105 . S
Sc1 O15 2.105 . S
Sc1 O17 2.105 . S
Sc1 O21 2.105 . S
Sc2 O3 2.025 . S
Sc2 O12 2.105 . S
Sc2 O14 2.105 . S
Sc2 O18 2.105 . S
Sc2 O20 2.105 . S
O3 Sc0 2.025 . S
O3 Sc1 2.025 . S
O3 Sc2 2.025 . S
C4 O10 1.268 . S
C4 O20 1.268 . S
C5 O11 1.268 . S
C5 O19 1.268 . S
C6 O12 1.268 . S
C6 O21 1.268 . S
C7 O13 1.268 . S
C7 O17 1.268 . S
C8 O14 1.268 . S
C8 O16 1.268 . S
C9 O15 1.268 . S
C9 O18 1.268 . S
O10 Sc0 2.105 . S
O10 C4 1.268 . S
O11 Sc1 2.105 . S
O11 C5 1.268 . S
O12 Sc2 2.105 . S
O12 C6 1.268 . S
O13 Sc0 2.105 . S
O13 C7 1.268 . S
O14 Sc2 2.105 . S
O14 C8 1.268 . S
O15 Sc1 2.105 . S
O15 C9 1.268 . S
O16 Sc0 2.105 . S
O16 C8 1.268 . S
O17 Sc1 2.105 . S
O17 C7 1.268 . S
O18 Sc2 2.105 . S
O18 C9 1.268 . S
O19 Sc0 2.105 . S
O19 C5 1.268 . S
O20 Sc2 2.105 . S
O20 C4 1.268 . S
O21 Sc1 2.105 . S
O21 C6 1.268 . S
Sc22 O25 2.025 . S
Sc22 O32 2.105 . S
Sc22 O35 2.105 . S
Sc22 O38 2.105 . S
Sc22 O41 2.105 . S
Sc23 O25 2.025 . S
Sc23 O33 2.105 . S
Sc23 O37 2.105 . S
Sc23 O39 2.105 . S
Sc23 O43 2.105 . S
Sc24 O25 2.025 . S
Sc24 O34 2.105 . S
Sc24 O36 2.105 . S
Sc24 O40 2.105 . S
Sc24 O42 2.105 . S
O25 Sc22 2.025 . S
O25 Sc23 2.025 . S
O25 Sc24 2.025 . S
C26 O32 1.268 . S
C26 O42 1.268 . S
C27 O33 1.268 . S
C27 O41 1.268 . S
C28 O34 1.268 . S
C28 O43 1.268 . S
C29 O35 1.268 . S
C29 O39 1.268 . S
C30 O36 1.268 . S
C30 O38 1.268 . S
C31 O37 1.268 . S
C31 O40 1.268 . S
O32 Sc22 2.105 . S
O32 C26 1.268 . S
O33 Sc23 2.105 . S
O33 C27 1.268 . S
O34 Sc24 2.105 . S
O34 C28 1.268 . S
O35 Sc22 2.105 . S
O35 C29 1.268 . S
O36 Sc24 2.105 . S
O36 C30 1.268 . S
O37 Sc23 2.105 . S
O37 C31 1.268 . S
O38 Sc22 2.105 . S
O38 C30 1.268 . S
O39 Sc23 2.105 . S
O39 C29 1.268 . S
O40 Sc24 2.105 . S
O40 C31 1.268 . S
O41 Sc22 2.105 . S
O41 C27 1.268 . S
O42 Sc24 2.105 . S
O42 C26 1.268 . S
O43 Sc23 2.105 . S
O43 C28 1.268 . S
Sc44 O47 2.025 . S
Sc44 O54 2.105 . S
Sc44 O57 2.105 . S
Sc44 O60 2.105 . S
Sc44 O63 2.105 . S
Sc45 O47 2.025 . S
Sc45 O55 2.105 . S
Sc45 O59 2.105 . S
Sc45 O61 2.105 . S
Sc45 O65 2.105 . S
Sc46 O47 2.025 . S
Sc46 O56 2.105 . S
Sc46 O58 2.105 . S
Sc46 O62 2.105 . S
Sc46 O64 2.105 . S
O47 Sc44 2.025 . S
O47 Sc45 2.025 . S
O47 Sc46 2.025 . S
C48 O54 1.268 . S
C48 O64 1.268 . S
C49 O55 1.268 . S
C49 O63 1.268 . S
C50 O56 1.268 . S
C50 O65 1.268 . S
C51 O57 1.268 . S
C51 O61 1.268 . S
C52 O58 1.268 . S
C52 O60 1.268 . S
C53 O59 1.268 . S
C53 O62 1.268 . S
O54 Sc44 2.105 . S
O54 C48 1.268 . S
O55 Sc45 2.105 . S
O55 C49 1.268 . S
O56 Sc46 2.105 . S
O56 C50 1.268 . S
O57 Sc44 2.105 . S
O57 C51 1.268 . S
O58 Sc46 2.105 . S
O58 C52 1.268 . S
O59 Sc45 2.105 . S
O59 C53 1.268 . S
O60 Sc44 2.105 . S
O60 C52 1.268 . S
O61 Sc45 2.105 . S
O61 C51 1.268 . S
O62 Sc46 2.105 . S
O62 C53 1.268 . S
O63 Sc44 2.105 . S
O63 C49 1.268 . S
O64 Sc46 2.105 . S
O64 C48 1.268 . S
O65 Sc45 2.105 . S
O65 C50 1.268 . S
Sc66 O69 2.025 . S
Sc66 O76 2.105 . S
Sc66 O79 2.105 . S
Sc66 O82 2.105 . S
Sc66 O85 2.105 . S
Sc67 O69 2.025 . S
Sc67 O77 2.105 . S
Sc67 O81 2.105 . S
Sc67 O83 2.105 . S
Sc67 O87 2.105 . S
Sc68 O69 2.025 . S
Sc68 O78 2.105 . S
Sc68 O80 2.105 . S
Sc68 O84 2.105 . S
Sc68 O86 2.105 . S
O69 Sc66 2.025 . S
O69 Sc67 2.025 . S
O69 Sc68 2.025 . S
C70 O76 1.268 . S
C70 O86 1.268 . S
C71 O77 1.268 . S
C71 O85 1.268 . S
C72 O78 1.268 . S
C72 O87 1.268 . S
C73 O79 1.268 . S
C73 O83 1.268 . S
C74 O80 1.268 . S
C74 O82 1.268 . S
C75 O81 1.268 . S
C75 O84 1.268 . S
O76 Sc66 2.105 . S
O76 C70 1.268 . S
O77 Sc67 2.105 . S
O77 C71 1.268 . S
O78 Sc68 2.105 . S
O78 C72 1.268 . S
O79 Sc66 2.105 . S
O79 C73 1.268 . S
O80 Sc68 2.105 . S
O80 C74 1.268 . S
O81 Sc67 2.105 . S
O81 C75 1.268 . S
O82 Sc66 2.105 . S
O82 C74 1.268 . S
O83 Sc67 2.105 . S
O83 C73 1.268 . S
O84 Sc68 2.105 . S
O84 C75 1.268 . S
O85 Sc66 2.105 . S
O85 C71 1.268 . S
O86 Sc68 2.105 . S
O86 C70 1.268 . S
O87 Sc67 2.105 . S
O87 C72 1.268 . S
Sc88 O91 2.025 . S
Sc88 O98 2.105 . S
Sc88 O101 2.105 . S
Sc88 O104 2.105 . S
Sc88 O107 2.105 . S
Sc89 O91 2.025 . S
Sc89 O99 2.105 . S
Sc89 O103 2.105 . S
Sc89 O105 2.105 . S
Sc89 O109 2.105 . S
Sc90 O91 2.025 . S
Sc90 O100 2.105 . S
Sc90 O102 2.105 . S
Sc90 O106 2.105 . S
Sc90 O108 2.105 . S
O91 Sc88 2.025 . S
O91 Sc89 2.025 . S
O91 Sc90 2.025 . S
C92 O98 1.268 . S
C92 O108 1.268 . S
C93 O99 1.268 . S
C93 O107 1.268 . S
C94 O100 1.268 . S
C94 O109 1.268 . S
C95 O101 1.268 . S
C95 O105 1.268 . S
C96 O102 1.268 . S
C96 O104 1.268 . S
C97 O103 1.268 . S
C97 O106 1.268 . S
O98 Sc88 2.105 . S
O98 C92 1.268 . S
O99 Sc89 2.105 . S
O99 C93 1.268 . S
O100 Sc90 2.105 . S
O100 C94 1.268 . S
O101 Sc88 2.105 . S
O101 C95 1.268 . S
O102 Sc90 2.105 . S
O102 C96 1.268 . S
O103 Sc89 2.105 . S
O103 C97 1.268 . S
O104 Sc88 2.105 . S
O104 C96 1.268 . S
O105 Sc89 2.105 . S
O105 C95 1.268 . S
O106 Sc90 2.105 . S
O106 C97 1.268 . S
O107 Sc88 2.105 . S
O107 C93 1.268 . S
O108 Sc90 2.105 . S
O108 C92 1.268 . S
O109 Sc89 2.105 . S
O109 C94 1.268 . S
Sc110 O113 2.025 . S
Sc110 O120 2.105 . S
Sc110 O123 2.105 . S
Sc110 O126 2.105 . S
Sc110 O129 2.105 . S
Sc111 O113 2.025 . S
Sc111 O121 2.105 . S
Sc111 O125 2.105 . S
Sc111 O127 2.105 . S
Sc111 O131 2.105 . S
Sc112 O113 2.025 . S
Sc112 O122 2.105 . S
Sc112 O124 2.105 . S
Sc112 O128 2.105 . S
Sc112 O130 2.105 . S
O113 Sc110 2.025 . S
O113 Sc111 2.025 . S
O113 Sc112 2.025 . S
C114 O120 1.268 . S
C114 O130 1.268 . S
C115 O121 1.268 . S
C115 O129 1.268 . S
C116 O122 1.268 . S
C116 O131 1.268 . S
C117 O123 1.268 . S
C117 O127 1.268 . S
C118 O124 1.268 . S
C118 O126 1.268 . S
C119 O125 1.268 . S
C119 O128 1.268 . S
O120 Sc110 2.105 . S
O120 C114 1.268 . S
O121 Sc111 2.105 . S
O121 C115 1.268 . S
O122 Sc112 2.105 . S
O122 C116 1.268 . S
O123 Sc110 2.105 . S
O123 C117 1.268 . S
O124 Sc112 2.105 . S
O124 C118 1.268 . S
O125 Sc111 2.105 . S
O125 C119 1.268 . S
O126 Sc110 2.105 . S
O126 C118 1.268 . S
O127 Sc111 2.105 . S
O127 C117 1.268 . S
O128 Sc112 2.105 . S
O128 C119 1.268 . S
O129 Sc110 2.105 . S
O129 C115 1.268 . S
O130 Sc112 2.105 . S
O130 C114 1.268 . S
O131 Sc111 2.105 . S
O131 C116 1.268 . S
Sc132 O135 2.025 . S
Sc132 O142 2.105 . S
Sc132 O145 2.105 . S
Sc132 O148 2.105 . S
Sc132 O151 2.105 . S
Sc133 O135 2.025 . S
Sc133 O143 2.105 . S
Sc133 O147 2.105 . S
Sc133 O149 2.105 . S
Sc133 O153 2.105 . S
Sc134 O135 2.025 . S
Sc134 O144 2.105 . S
Sc134 O146 2.105 . S
Sc134 O150 2.105 . S
Sc134 O152 2.105 . S
O135 Sc132 2.025 . S
O135 Sc133 2.025 . S
O135 Sc134 2.025 . S
C136 O142 1.268 . S
C136 O152 1.268 . S
C137 O143 1.268 . S
C137 O151 1.268 . S
C138 O144 1.268 . S
C138 O153 1.268 . S
C139 O145 1.268 . S
C139 O149 1.268 . S
C140 O146 1.268 . S
C140 O148 1.268 . S
C141 O147 1.268 . S
C141 O150 1.268 . S
O142 Sc132 2.105 . S
O142 C136 1.268 . S
O143 Sc133 2.105 . S
O143 C137 1.268 . S
O144 Sc134 2.105 . S
O144 C138 1.268 . S
O145 Sc132 2.105 . S
O145 C139 1.268 . S
O146 Sc134 2.105 . S
O146 C140 1.268 . S
O147 Sc133 2.105 . S
O147 C141 1.268 . S
O148 Sc132 2.105 . S
O148 C140 1.268 . S
O149 Sc133 2.105 . S
O149 C139 1.268 . S
O150 Sc134 2.105 . S
O150 C141 1.268 . S
O151 Sc132 2.105 . S
O151 C137 1.268 . S
O152 Sc134 2.105 . S
O152 C136 1.268 . S
O153 Sc133 2.105 . S
O153 C138 1.268 . S
Sc154 O157 2.025 . S
Sc154 O164 2.105 . S
Sc154 O167 2.105 . S
Sc154 O170 2.105 . S
Sc154 O173 2.105 . S
Sc155 O157 2.025 . S
Sc155 O165 2.105 . S
Sc155 O169 2.105 . S
Sc155 O171 2.105 . S
Sc155 O175 2.105 . S
Sc156 O157 2.025 . S
Sc156 O166 2.105 . S
Sc156 O168 2.105 . S
Sc156 O172 2.105 . S
Sc156 O174 2.105 . S
O157 Sc154 2.025 . S
O157 Sc155 2.025 . S
O157 Sc156 2.025 . S
C158 O164 1.268 . S
C158 O174 1.268 . S
C159 O165 1.268 . S
C159 O173 1.268 . S
C160 O166 1.268 . S
C160 O175 1.268 . S
C161 O167 1.268 . S
C161 O171 1.268 . S
C162 O168 1.268 . S
C162 O170 1.268 . S
C163 O169 1.268 . S
C163 O172 1.268 . S
O164 Sc154 2.105 . S
O164 C158 1.268 . S
O165 Sc155 2.105 . S
O165 C159 1.268 . S
O166 Sc156 2.105 . S
O166 C160 1.268 . S
O167 Sc154 2.105 . S
O167 C161 1.268 . S
O168 Sc156 2.105 . S
O168 C162 1.268 . S
O169 Sc155 2.105 . S
O169 C163 1.268 . S
O170 Sc154 2.105 . S
O170 C162 1.268 . S
O171 Sc155 2.105 . S
O171 C161 1.268 . S
O172 Sc156 2.105 . S
O172 C163 1.268 . S
O173 Sc154 2.105 . S
O173 C159 1.268 . S
O174 Sc156 2.105 . S
O174 C158 1.268 . S
O175 Sc155 2.105 . S
O175 C160 1.268 . S
Sc176 O179 2.025 . S
Sc176 O186 2.105 . S
Sc176 O189 2.105 . S
Sc176 O192 2.105 . S
Sc176 O195 2.105 . S
Sc177 O179 2.025 . S
Sc177 O187 2.105 . S
Sc177 O191 2.105 . S
Sc177 O193 2.105 . S
Sc177 O197 2.105 . S
Sc178 O179 2.025 . S
Sc178 O188 2.105 . S
Sc178 O190 2.105 . S
Sc178 O194 2.105 . S
Sc178 O196 2.105 . S
O179 Sc176 2.025 . S
O179 Sc177 2.025 . S
O179 Sc178 2.025 . S
C180 O186 1.268 . S
C180 O196 1.268 . S
C181 O187 1.268 . S
C181 O195 1.268 . S
C182 O188 1.268 . S
C182 O197 1.268 . S
C183 O189 1.268 . S
C183 O193 1.268 . S
C184 O190 1.268 . S
C184 O192 1.268 . S
C185 O191 1.268 . S
C185 O194 1.268 . S
O186 Sc176 2.105 . S
O186 C180 1.268 . S
O187 Sc177 2.105 . S
O187 C181 1.268 . S
O188 Sc178 2.105 . S
O188 C182 1.268 . S
O189 Sc176 2.105 . S
O189 C183 1.268 . S
O190 Sc178 2.105 . S
O190 C184 1.268 . S
O191 Sc177 2.105 . S
O191 C185 1.268 . S
O192 Sc176 2.105 . S
O192 C184 1.268 . S
O193 Sc177 2.105 . S
O193 C183 1.268 . S
O194 Sc178 2.105 . S
O194 C185 1.268 . S
O195 Sc176 2.105 . S
O195 C181 1.268 . S
O196 Sc178 2.105 . S
O196 C180 1.268 . S
O197 Sc177 2.105 . S
O197 C182 1.268 . S
Sc198 O201 2.025 . S
Sc198 O208 2.105 . S
Sc198 O211 2.105 . S
Sc198 O214 2.105 . S
Sc198 O217 2.105 . S
Sc199 O201 2.025 . S
Sc199 O209 2.105 . S
Sc199 O213 2.105 . S
Sc199 O215 2.105 . S
Sc199 O219 2.105 . S
Sc200 O201 2.025 . S
Sc200 O210 2.105 . S
Sc200 O212 2.105 . S
Sc200 O216 2.105 . S
Sc200 O218 2.105 . S
O201 Sc198 2.025 . S
O201 Sc199 2.025 . S
O201 Sc200 2.025 . S
C202 O208 1.268 . S
C202 O218 1.268 . S
C203 O209 1.268 . S
C203 O217 1.268 . S
C204 O210 1.268 . S
C204 O219 1.268 . S
C205 O211 1.268 . S
C205 O215 1.268 . S
C206 O212 1.268 . S
C206 O214 1.268 . S
C207 O213 1.268 . S
C207 O216 1.268 . S
O208 Sc198 2.105 . S
O208 C202 1.268 . S
O209 Sc199 2.105 . S
O209 C203 1.268 . S
O210 Sc200 2.105 . S
O210 C204 1.268 . S
O211 Sc198 2.105 . S
O211 C205 1.268 . S
O212 Sc200 2.105 . S
O212 C206 1.268 . S
O213 Sc199 2.105 . S
O213 C207 1.268 . S
O214 Sc198 2.105 . S
O214 C206 1.268 . S
O215 Sc199 2.105 . S
O215 C205 1.268 . S
O216 Sc200 2.105 . S
O216 C207 1.268 . S
O217 Sc198 2.105 . S
O217 C203 1.268 . S
O218 Sc200 2.105 . S
O218 C202 1.268 . S
O219 Sc199 2.105 . S
O219 C204 1.268 . S
Sc220 O223 2.025 . S
Sc220 O230 2.105 . S
Sc220 O233 2.105 . S
Sc220 O236 2.105 . S
Sc220 O239 2.105 . S
Sc221 O223 2.025 . S
Sc221 O231 2.105 . S
Sc221 O235 2.105 . S
Sc221 O237 2.105 . S
Sc221 O241 2.105 . S
Sc222 O223 2.025 . S
Sc222 O232 2.105 . S
Sc222 O234 2.105 . S
Sc222 O238 2.105 . S
Sc222 O240 2.105 . S
O223 Sc220 2.025 . S
O223 Sc221 2.025 . S
O223 Sc222 2.025 . S
C224 O230 1.268 . S
C224 O240 1.268 . S
C225 O231 1.268 . S
C225 O239 1.268 . S
C226 O232 1.268 . S
C226 O241 1.268 . S
C227 O233 1.268 . S
C227 O237 1.268 . S
C228 O234 1.268 . S
C228 O236 1.268 . S
C229 O235 1.268 . S
C229 O238 1.268 . S
O230 Sc220 2.105 . S
O230 C224 1.268 . S
O231 Sc221 2.105 . S
O231 C225 1.268 . S
O232 Sc222 2.105 . S
O232 C226 1.268 . S
O233 Sc220 2.105 . S
O233 C227 1.268 . S
O234 Sc222 2.105 . S
O234 C228 1.268 . S
O235 Sc221 2.105 . S
O235 C229 1.268 . S
O236 Sc220 2.105 . S
O236 C228 1.268 . S
O237 Sc221 2.105 . S
O237 C227 1.268 . S
O238 Sc222 2.105 . S
O238 C229 1.268 . S
O239 Sc220 2.105 . S
O239 C225 1.268 . S
O240 Sc222 2.105 . S
O240 C224 1.268 . S
O241 Sc221 2.105 . S
O241 C226 1.268 . S
Sc242 O245 2.025 . S
Sc242 O252 2.105 . S
Sc242 O255 2.105 . S
Sc242 O258 2.105 . S
Sc242 O261 2.105 . S
Sc243 O245 2.025 . S
Sc243 O253 2.105 . S
Sc243 O257 2.105 . S
Sc243 O259 2.105 . S
Sc243 O263 2.105 . S
Sc244 O245 2.025 . S
Sc244 O254 2.105 . S
Sc244 O256 2.105 . S
Sc244 O260 2.105 . S
Sc244 O262 2.105 . S
O245 Sc242 2.025 . S
O245 Sc243 2.025 . S
O245 Sc244 2.025 . S
C246 O252 1.268 . S
C246 O262 1.268 . S
C247 O253 1.268 . S
C247 O261 1.268 . S
C248 O254 1.268 . S
C248 O263 1.268 . S
C249 O255 1.268 . S
C249 O259 1.268 . S
C250 O256 1.268 . S
C250 O258 1.268 . S
C251 O257 1.268 . S
C251 O260 1.268 . S
O252 Sc242 2.105 . S
O252 C246 1.268 . S
O253 Sc243 2.105 . S
O253 C247 1.268 . S
O254 Sc244 2.105 . S
O254 C248 1.268 . S
O255 Sc242 2.105 . S
O255 C249 1.268 . S
O256 Sc244 2.105 . S
O256 C250 1.268 . S
O257 Sc243 2.105 . S
O257 C251 1.268 . S
O258 Sc242 2.105 . S
O258 C250 1.268 . S
O259 Sc243 2.105 . S
O259 C249 1.268 . S
O260 Sc244 2.105 . S
O260 C251 1.268 . S
O261 Sc242 2.105 . S
O261 C247 1.268 . S
O262 Sc244 2.105 . S
O262 C246 1.268 . S
O263 Sc243 2.105 . S
O263 C248 1.268 . S
C264 C265 1.349 . S
C264 C266 1.327 . S
C264 H289 0.950 . S
C265 C264 1.349 . S
C265 C281 1.349 . S
C266 C264 1.327 . S
C266 C285 1.429 . S
C266 H290 0.950 . S
C267 C284 1.574 . S
C267 C286 1.368 . S
C267 H291 0.949 . S
H268 C272 0.949 . S
C269 C270 1.349 . S
C269 C271 1.327 . S
C269 H292 0.950 . S
C270 C269 1.349 . S
C270 C282 1.349 . S
C271 C269 1.327 . S
C271 C287 1.429 1_545 S
C271 H293 0.950 . S
C272 H268 0.949 . S
C272 C280 1.574 . S
C272 C288 1.368 . S
H273 C281 0.950 . S
H274 C279 0.950 . S
H275 C280 0.949 . S
H276 C282 0.950 . S
H277 C283 0.950 . S
H278 C284 0.949 . S
C279 H274 0.950 . S
C279 C281 1.327 . S
C279 C285 1.429 . S
C280 C272 1.574 . S
C280 H275 0.949 . S
C280 C286 1.368 . S
C281 C265 1.349 . S
C281 H273 0.950 . S
C281 C279 1.327 . S
C282 C270 1.349 . S
C282 H276 0.950 . S
C282 C283 1.327 . S
C283 H277 0.950 . S
C283 C282 1.327 . S
C283 C287 1.429 1_545 S
C284 C267 1.574 . S
C284 H278 0.949 . S
C284 C288 1.368 . S
C285 C266 1.429 . S
C285 C279 1.429 . S
C285 C286 1.523 . S
C286 C267 1.368 . S
C286 C280 1.368 . S
C286 C285 1.523 . S
C287 C271 1.429 1_565 S
C287 C283 1.429 1_565 S
C287 C288 1.523 . S
C288 C272 1.368 . S
C288 C284 1.368 . S
C288 C287 1.523 . S
H289 C264 0.950 . S
H290 C266 0.950 . S
H291 C267 0.949 . S
H292 C269 0.950 . S
H293 C271 0.950 . S
C294 C295 1.349 . S
C294 C296 1.327 . S
C294 H319 0.950 . S
C295 C294 1.349 . S
C295 C311 1.349 . S
C296 C294 1.327 . S
C296 C315 1.429 . S
C296 H320 0.950 . S
C297 C314 1.574 . S
C297 C316 1.368 . S
C297 H321 0.949 . S
H298 C302 0.949 . S
C299 C300 1.349 . S
C299 C301 1.327 . S
C299 H322 0.950 . S
C300 C299 1.349 . S
C300 C312 1.349 . S
C301 C299 1.327 . S
C301 C317 1.429 . S
C301 H323 0.950 . S
C302 H298 0.949 . S
C302 C310 1.574 . S
C302 C318 1.368 . S
H303 C311 0.950 . S
H304 C309 0.950 . S
H305 C310 0.949 . S
H306 C312 0.950 . S
H307 C313 0.950 . S
H308 C314 0.949 . S
C309 H304 0.950 . S
C309 C311 1.327 . S
C309 C315 1.429 . S
C310 C302 1.574 . S
C310 H305 0.949 . S
C310 C316 1.368 . S
C311 C295 1.349 . S
C311 H303 0.950 . S
C311 C309 1.327 . S
C312 C300 1.349 . S
C312 H306 0.950 . S
C312 C313 1.327 . S
C313 H307 0.950 . S
C313 C312 1.327 . S
C313 C317 1.429 . S
C314 C297 1.574 . S
C314 H308 0.949 . S
C314 C318 1.368 . S
C315 C296 1.429 . S
C315 C309 1.429 . S
C315 C316 1.523 . S
C316 C297 1.368 . S
C316 C310 1.368 . S
C316 C315 1.523 . S
C317 C301 1.429 . S
C317 C313 1.429 . S
C317 C318 1.523 . S
C318 C302 1.368 . S
C318 C314 1.368 . S
C318 C317 1.523 . S
H319 C294 0.950 . S
H320 C296 0.950 . S
H321 C297 0.949 . S
H322 C299 0.950 . S
H323 C301 0.950 . S
C324 C325 1.349 . S
C324 C326 1.327 . S
C324 H349 0.950 . S
C325 C324 1.349 . S
C325 C341 1.349 . S
C326 C324 1.327 . S
C326 C345 1.429 1_655 S
C326 H350 0.950 . S
C327 C344 1.574 . S
C327 C346 1.368 . S
C327 H351 0.949 . S
H328 C332 0.949 . S
C329 C330 1.349 . S
C329 C331 1.327 . S
C329 H352 0.950 . S
C330 C329 1.349 . S
C330 C342 1.349 . S
C331 C329 1.327 . S
C331 C347 1.429 . S
C331 H353 0.950 . S
C332 H328 0.949 . S
C332 C340 1.574 . S
C332 C348 1.368 . S
H333 C341 0.950 . S
H334 C339 0.950 . S
H335 C340 0.949 1_655 S
H336 C342 0.950 . S
H337 C343 0.950 . S
H338 C344 0.949 . S
C339 H334 0.950 . S
C339 C341 1.327 1_455 S
C339 C345 1.429 . S
C340 C332 1.574 . S
C340 H335 0.949 1_455 S
C340 C346 1.368 . S
C341 C325 1.349 . S
C341 H333 0.950 . S
C341 C339 1.327 1_655 S
C342 C330 1.349 . S
C342 H336 0.950 . S
C342 C343 1.327 . S
C343 H337 0.950 . S
C343 C342 1.327 . S
C343 C347 1.429 . S
C344 C327 1.574 . S
C344 H338 0.949 . S
C344 C348 1.368 . S
C345 C326 1.429 1_455 S
C345 C339 1.429 . S
C345 C346 1.523 . S
C346 C327 1.368 . S
C346 C340 1.368 . S
C346 C345 1.523 . S
C347 C331 1.429 . S
C347 C343 1.429 . S
C347 C348 1.523 . S
C348 C332 1.368 . S
C348 C344 1.368 . S
C348 C347 1.523 . S
H349 C324 0.950 . S
H350 C326 0.950 . S
H351 C327 0.949 . S
H352 C329 0.950 . S
H353 C331 0.950 . S
C354 C355 1.349 . S
C354 C356 1.327 . S
C354 H379 0.950 . S
C355 C354 1.349 . S
C355 C371 1.349 . S
C356 C354 1.327 . S
C356 C375 1.429 . S
C356 H380 0.950 . S
C357 C374 1.574 . S
C357 C376 1.368 . S
C357 H381 0.949 . S
H358 C362 0.949 . S
C359 C360 1.349 . S
C359 C361 1.327 . S
C359 H382 0.950 . S
C360 C359 1.349 . S
C360 C372 1.349 . S
C361 C359 1.327 . S
C361 C377 1.429 1_565 S
C361 H383 0.950 . S
C362 H358 0.949 . S
C362 C370 1.574 . S
C362 C378 1.368 . S
H363 C371 0.950 . S
H364 C369 0.950 . S
H365 C370 0.949 . S
H366 C372 0.950 . S
H367 C373 0.950 . S
H368 C374 0.949 . S
C369 H364 0.950 . S
C369 C371 1.327 . S
C369 C375 1.429 . S
C370 C362 1.574 . S
C370 H365 0.949 . S
C370 C376 1.368 . S
C371 C355 1.349 . S
C371 H363 0.950 . S
C371 C369 1.327 . S
C372 C360 1.349 . S
C372 H366 0.950 . S
C372 C373 1.327 1_565 S
C373 H367 0.950 . S
C373 C372 1.327 1_545 S
C373 C377 1.429 . S
C374 C357 1.574 . S
C374 H368 0.949 . S
C374 C378 1.368 . S
C375 C356 1.429 . S
C375 C369 1.429 . S
C375 C376 1.523 . S
C376 C357 1.368 . S
C376 C370 1.368 . S
C376 C375 1.523 . S
C377 C361 1.429 1_545 S
C377 C373 1.429 . S
C377 C378 1.523 . S
C378 C362 1.368 . S
C378 C374 1.368 . S
C378 C377 1.523 . S
H379 C354 0.950 . S
H380 C356 0.950 . S
H381 C357 0.949 . S
H382 C359 0.950 . S
H383 C361 0.950 . S
C384 C385 1.349 . S
C384 C386 1.327 . S
C384 H409 0.950 . S
C385 C384 1.349 . S
C385 C401 1.349 . S
C386 C384 1.327 . S
C386 C405 1.429 . S
C386 H410 0.950 . S
C387 C404 1.574 . S
C387 C406 1.368 . S
C387 H411 0.949 . S
H388 C392 0.949 . S
C389 C390 1.349 . S
C389 C391 1.327 . S
C389 H412 0.950 . S
C390 C389 1.349 . S
C390 C402 1.349 1_556 S
C391 C389 1.327 . S
C391 C407 1.429 . S
C391 H413 0.950 . S
C392 H388 0.949 . S
C392 C400 1.574 . S
C392 C408 1.368 . S
H393 C401 0.950 . S
H394 C399 0.950 . S
H395 C400 0.949 . S
H396 C402 0.950 . S
H397 C403 0.950 . S
H398 C404 0.949 . S
C399 H394 0.950 . S
C399 C401 1.327 . S
C399 C405 1.429 . S
C400 C392 1.574 . S
C400 H395 0.949 . S
C400 C406 1.368 . S
C401 C385 1.349 . S
C401 H393 0.950 . S
C401 C399 1.327 . S
C402 C390 1.349 1_554 S
C402 H396 0.950 . S
C402 C403 1.327 1_554 S
C403 H397 0.950 . S
C403 C402 1.327 1_556 S
C403 C407 1.429 . S
C404 C387 1.574 . S
C404 H398 0.949 . S
C404 C408 1.368 . S
C405 C386 1.429 . S
C405 C399 1.429 . S
C405 C406 1.523 . S
C406 C387 1.368 . S
C406 C400 1.368 . S
C406 C405 1.523 . S
C407 C391 1.429 . S
C407 C403 1.429 . S
C407 C408 1.523 . S
C408 C392 1.368 . S
C408 C404 1.368 . S
C408 C407 1.523 . S
H409 C384 0.950 . S
H410 C386 0.950 . S
H411 C387 0.949 . S
H412 C389 0.950 . S
H413 C391 0.950 . S
C414 C415 1.349 . S
C414 C416 1.327 1_455 S
C414 H439 0.950 . S
C415 C414 1.349 . S
C415 C431 1.349 . S
C416 C414 1.327 1_655 S
C416 C435 1.429 . S
C416 H440 0.950 . S
C417 C434 1.574 . S
C417 C436 1.368 . S
C417 H441 0.949 1_655 S
H418 C422 0.949 . S
C419 C420 1.349 . S
C419 C421 1.327 . S
C419 H442 0.950 . S
C420 C419 1.349 . S
C420 C432 1.349 . S
C421 C419 1.327 . S
C421 C437 1.429 . S
C421 H443 0.950 . S
C422 H418 0.949 . S
C422 C430 1.574 . S
C422 C438 1.368 . S
H423 C431 0.950 . S
H424 C429 0.950 . S
H425 C430 0.949 . S
H426 C432 0.950 . S
H427 C433 0.950 . S
H428 C434 0.949 . S
C429 H424 0.950 . S
C429 C431 1.327 . S
C429 C435 1.429 1_455 S
C430 C422 1.574 . S
C430 H425 0.949 . S
C430 C436 1.368 . S
C431 C415 1.349 . S
C431 H423 0.950 . S
C431 C429 1.327 . S
C432 C420 1.349 . S
C432 H426 0.950 . S
C432 C433 1.327 . S
C433 H427 0.950 . S
C433 C432 1.327 . S
C433 C437 1.429 . S
C434 C417 1.574 . S
C434 H428 0.949 . S
C434 C438 1.368 . S
C435 C416 1.429 . S
C435 C429 1.429 1_655 S
C435 C436 1.523 . S
C436 C417 1.368 . S
C436 C430 1.368 . S
C436 C435 1.523 . S
C437 C421 1.429 . S
C437 C433 1.429 . S
C437 C438 1.523 . S
C438 C422 1.368 . S
C438 C434 1.368 . S
C438 C437 1.523 . S
H439 C414 0.950 . S
H440 C416 0.950 . S
H441 C417 0.949 1_455 S
H442 C419 0.950 . S
H443 C421 0.950 . S
C444 C445 1.349 . S
C444 C446 1.327 . S
C444 H469 0.950 . S
C445 C444 1.349 . S
C445 C461 1.349 . S
C446 C444 1.327 . S
C446 C465 1.429 . S
C446 H470 0.950 . S
C447 C464 1.574 . S
C447 C466 1.368 . S
C447 H471 0.949 . S
H448 C452 0.949 . S
C449 C450 1.349 . S
C449 C451 1.327 1_655 S
C449 H472 0.950 . S
C450 C449 1.349 . S
C450 C462 1.349 . S
C451 C449 1.327 1_455 S
C451 C467 1.429 . S
C451 H473 0.950 . S
C452 H448 0.949 . S
C452 C460 1.574 . S
C452 C468 1.368 . S
H453 C461 0.950 . S
H454 C459 0.950 . S
H455 C460 0.949 . S
H456 C462 0.950 . S
H457 C463 0.950 . S
H458 C464 0.949 . S
C459 H454 0.950 . S
C459 C461 1.327 . S
C459 C465 1.429 . S
C460 C452 1.574 . S
C460 H455 0.949 . S
C460 C466 1.368 . S
C461 C445 1.349 . S
C461 H453 0.950 . S
C461 C459 1.327 . S
C462 C450 1.349 . S
C462 H456 0.950 . S
C462 C463 1.327 . S
C463 H457 0.950 . S
C463 C462 1.327 . S
C463 C467 1.429 1_655 S
C464 C447 1.574 . S
C464 H458 0.949 . S
C464 C468 1.368 . S
C465 C446 1.429 . S
C465 C459 1.429 . S
C465 C466 1.523 . S
C466 C447 1.368 . S
C466 C460 1.368 . S
C466 C465 1.523 . S
C467 C451 1.429 . S
C467 C463 1.429 1_455 S
C467 C468 1.523 . S
C468 C452 1.368 . S
C468 C464 1.368 . S
C468 C467 1.523 . S
H469 C444 0.950 . S
H470 C446 0.950 . S
H471 C447 0.949 . S
H472 C449 0.950 . S
H473 C451 0.950 . S
C474 C475 1.349 . S
C474 C476 1.327 . S
C474 H499 0.950 . S
C475 C474 1.349 . S
C475 C491 1.349 . S
C476 C474 1.327 . S
C476 C495 1.429 1_565 S
C476 H500 0.950 . S
C477 C494 1.574 . S
C477 C496 1.368 . S
C477 H501 0.949 . S
H478 C482 0.949 . S
C479 C480 1.349 . S
C479 C481 1.327 . S
C479 H502 0.950 . S
C480 C479 1.349 . S
C480 C492 1.349 . S
C481 C479 1.327 . S
C481 C497 1.429 . S
C481 H503 0.950 . S
C482 H478 0.949 . S
C482 C490 1.574 . S
C482 C498 1.368 . S
H483 C491 0.950 . S
H484 C489 0.950 . S
H485 C490 0.949 1_565 S
H486 C492 0.950 . S
H487 C493 0.950 . S
H488 C494 0.949 . S
C489 H484 0.950 . S
C489 C491 1.327 1_545 S
C489 C495 1.429 . S
C490 C482 1.574 . S
C490 H485 0.949 1_545 S
C490 C496 1.368 . S
C491 C475 1.349 . S
C491 H483 0.950 . S
C491 C489 1.327 1_565 S
C492 C480 1.349 . S
C492 H486 0.950 . S
C492 C493 1.327 . S
C493 H487 0.950 . S
C493 C492 1.327 . S
C493 C497 1.429 . S
C494 C477 1.574 . S
C494 H488 0.949 . S
C494 C498 1.368 . S
C495 C476 1.429 1_545 S
C495 C489 1.429 . S
C495 C496 1.523 . S
C496 C477 1.368 . S
C496 C490 1.368 . S
C496 C495 1.523 . S
C497 C481 1.429 . S
C497 C493 1.429 . S
C497 C498 1.523 . S
C498 C482 1.368 . S
C498 C494 1.368 . S
C498 C497 1.523 . S
H499 C474 0.950 . S
H500 C476 0.950 . S
H501 C477 0.949 . S
H502 C479 0.950 . S
H503 C481 0.950 . S
C504 C505 1.349 . S
C504 C506 1.327 . S
C504 H529 0.950 . S
C505 C504 1.349 . S
C505 C521 1.349 . S
C506 C504 1.327 . S
C506 C525 1.429 . S
C506 H530 0.950 . S
C507 C524 1.574 . S
C507 C526 1.368 . S
C507 H531 0.949 . S
H508 C512 0.949 . S
C509 C510 1.349 . S
C509 C511 1.327 . S
C509 H532 0.950 . S
C510 C509 1.349 . S
C510 C522 1.349 . S
C511 C509 1.327 . S
C511 C527 1.429 . S
C511 H533 0.950 . S
C512 H508 0.949 . S
C512 C520 1.574 . S
C512 C528 1.368 . S
H513 C521 0.950 . S
H514 C519 0.950 . S
H515 C520 0.949 . S
H516 C522 0.950 . S
H517 C523 0.950 . S
H518 C524 0.949 . S
C519 H514 0.950 . S
C519 C521 1.327 . S
C519 C525 1.429 . S
C520 C512 1.574 . S
C520 H515 0.949 . S
C520 C526 1.368 . S
C521 C505 1.349 . S
C521 H513 0.950 . S
C521 C519 1.327 . S
C522 C510 1.349 . S
C522 H516 0.950 . S
C522 C523 1.327 . S
C523 H517 0.950 . S
C523 C522 1.327 . S
C523 C527 1.429 . S
C524 C507 1.574 . S
C524 H518 0.949 . S
C524 C528 1.368 . S
C525 C506 1.429 . S
C525 C519 1.429 . S
C525 C526 1.523 . S
C526 C507 1.368 . S
C526 C520 1.368 . S
C526 C525 1.523 . S
C527 C511 1.429 . S
C527 C523 1.429 . S
C527 C528 1.523 . S
C528 C512 1.368 . S
C528 C524 1.368 . S
C528 C527 1.523 . S
H529 C504 0.950 . S
H530 C506 0.950 . S
H531 C507 0.949 . S
H532 C509 0.950 . S
H533 C511 0.950 . S
C534 C535 1.349 . S
C534 C536 1.327 . S
C534 H559 0.950 . S
C535 C534 1.349 . S
C535 C551 1.349 . S
C536 C534 1.327 . S
C536 C555 1.429 . S
C536 H560 0.950 . S
C537 C554 1.574 . S
C537 C556 1.368 . S
C537 H561 0.949 . S
H538 C542 0.949 . S
C539 C540 1.403 . S
C539 C541 1.327 . S
C539 H562 0.950 . S
C540 C539 1.403 . S
C540 C552 1.337 1_554 S
C541 C539 1.327 . S
C541 C557 1.429 1_455 S
C541 H563 0.950 . S
C542 H538 0.949 . S
C542 C550 1.574 . S
C542 C558 1.368 . S
H543 C551 0.950 . S
H544 C549 0.950 . S
H545 C550 0.949 . S
H546 C552 0.950 . S
H547 C553 0.950 . S
H548 C554 0.949 1_455 S
C549 H544 0.950 . S
C549 C551 1.327 . S
C549 C555 1.429 . S
C550 C542 1.574 . S
C550 H545 0.949 . S
C550 C556 1.368 . S
C551 C535 1.349 . S
C551 H543 0.950 . S
C551 C549 1.327 . S
C552 C540 1.337 1_556 S
C552 H546 0.950 . S
C552 C553 1.327 1_456 S
C553 H547 0.950 . S
C553 C552 1.327 1_654 S
C553 C557 1.429 . S
C554 C537 1.574 . S
C554 H548 0.949 1_655 S
C554 C558 1.368 . S
C555 C536 1.429 . S
C555 C549 1.429 . S
C555 C556 1.523 . S
C556 C537 1.368 . S
C556 C550 1.368 . S
C556 C555 1.523 . S
C557 C541 1.429 1_655 S
C557 C553 1.429 . S
C557 C558 1.523 . S
C558 C542 1.368 . S
C558 C554 1.368 . S
C558 C557 1.523 . S
H559 C534 0.950 . S
H560 C536 0.950 . S
H561 C537 0.949 . S
H562 C539 0.950 . S
H563 C541 0.950 . S
C564 C565 1.349 . S
C564 C566 1.327 . S
C564 H589 0.950 . S
C565 C564 1.349 . S
C565 C581 1.349 . S
C566 C564 1.327 . S
C566 C585 1.429 . S
C566 H590 0.950 . S
C567 C584 1.574 . S
C567 C586 1.368 . S
C567 H591 0.949 . S
H568 C572 0.949 1_545 S
C569 C570 1.349 . S
C569 C571 1.327 1_545 S
C569 H592 0.950 . S
C570 C569 1.349 . S
C570 C582 1.349 . S
C571 C569 1.327 1_565 S
C571 C587 1.429 . S
C571 H593 0.950 . S
C572 H568 0.949 1_565 S
C572 C580 1.574 . S
C572 C588 1.368 . S
H573 C581 0.950 . S
H574 C579 0.950 . S
H575 C580 0.949 . S
H576 C582 0.950 . S
H577 C583 0.950 . S
H578 C584 0.949 . S
C579 H574 0.950 . S
C579 C581 1.327 . S
C579 C585 1.429 . S
C580 C572 1.574 . S
C580 H575 0.949 . S
C580 C586 1.368 . S
C581 C565 1.349 . S
C581 H573 0.950 . S
C581 C579 1.327 . S
C582 C570 1.349 . S
C582 H576 0.950 . S
C582 C583 1.327 . S
C583 H577 0.950 . S
C583 C582 1.327 . S
C583 C587 1.429 1_545 S
C584 C567 1.574 . S
C584 H578 0.949 . S
C584 C588 1.368 . S
C585 C566 1.429 . S
C585 C579 1.429 . S
C585 C586 1.523 . S
C586 C567 1.368 . S
C586 C580 1.368 . S
C586 C585 1.523 . S
C587 C571 1.429 . S
C587 C583 1.429 1_565 S
C587 C588 1.523 . S
C588 C572 1.368 . S
C588 C584 1.368 . S
C588 C587 1.523 . S
H589 C564 0.950 . S
H590 C566 0.950 . S
H591 C567 0.949 . S
H592 C569 0.950 . S
H593 C571 0.950 . S
C594 C595 1.349 . S
C594 C596 1.327 . S
C594 H619 0.950 . S
C595 C594 1.349 . S
C595 C611 1.349 . S
C596 C594 1.327 . S
C596 C615 1.429 . S
C596 H620 0.950 . S
C597 C614 1.574 . S
C597 C616 1.368 . S
C597 H621 0.949 . S
H598 C602 0.949 . S
C599 C600 1.349 . S
C599 C601 1.327 . S
C599 H622 0.950 . S
C600 C599 1.349 . S
C600 C612 1.349 . S
C601 C599 1.327 . S
C601 C617 1.429 . S
C601 H623 0.950 . S
C602 H598 0.949 . S
C602 C610 1.574 . S
C602 C618 1.368 . S
H603 C611 0.950 . S
H604 C609 0.950 . S
H605 C610 0.949 . S
H606 C612 0.950 . S
H607 C613 0.950 . S
H608 C614 0.949 . S
C609 H604 0.950 . S
C609 C611 1.327 . S
C609 C615 1.429 . S
C610 C602 1.574 . S
C610 H605 0.949 . S
C610 C616 1.368 . S
C611 C595 1.349 . S
C611 H603 0.950 . S
C611 C609 1.327 . S
C612 C600 1.349 . S
C612 H606 0.950 . S
C612 C613 1.327 . S
C613 H607 0.950 . S
C613 C612 1.327 . S
C613 C617 1.429 . S
C614 C597 1.574 . S
C614 H608 0.949 . S
C614 C618 1.368 . S
C615 C596 1.429 . S
C615 C609 1.429 . S
C615 C616 1.523 . S
C616 C597 1.368 . S
C616 C610 1.368 . S
C616 C615 1.523 . S
C617 C601 1.429 . S
C617 C613 1.429 . S
C617 C618 1.523 . S
C618 C602 1.368 . S
C618 C614 1.368 . S
C618 C617 1.523 . S
H619 C594 0.950 . S
H620 C596 0.950 . S
H621 C597 0.949 . S
H622 C599 0.950 . S
H623 C601 0.950 . S
C624 C625 1.349 . S
C624 C626 1.327 . S
C624 H649 0.950 . S
C625 C624 1.349 . S
C625 C641 1.349 . S
C626 C624 1.327 . S
C626 C645 1.429 . S
C626 H650 0.950 . S
C627 C644 1.574 . S
C627 C646 1.368 . S
C627 H651 0.949 . S
H628 C632 0.949 . S
C629 C630 1.347 1_565 S
C629 C631 1.330 . S
C629 H652 0.948 . S
C630 C629 1.347 1_545 S
C630 C642 1.349 . S
C631 C629 1.330 . S
C631 C647 1.429 . S
C631 H653 0.950 . S
C632 H628 0.949 . S
C632 C640 1.574 . S
C632 C648 1.368 . S
H633 C641 0.950 . S
H634 C639 0.950 . S
H635 C640 0.949 . S
H636 C642 0.950 . S
H637 C643 0.950 . S
H638 C644 0.949 . S
C639 H634 0.950 . S
C639 C641 1.327 . S
C639 C645 1.429 . S
C640 C632 1.574 . S
C640 H635 0.949 . S
C640 C646 1.368 . S
C641 C625 1.349 . S
C641 H633 0.950 . S
C641 C639 1.327 . S
C642 C630 1.349 . S
C642 H636 0.950 . S
C642 C643 1.327 . S
C643 H637 0.950 . S
C643 C642 1.327 . S
C643 C647 1.429 1_545 S
C644 C627 1.574 . S
C644 H638 0.949 . S
C644 C648 1.368 . S
C645 C626 1.429 . S
C645 C639 1.429 . S
C645 C646 1.523 . S
C646 C627 1.368 . S
C646 C640 1.368 . S
C646 C645 1.523 . S
C647 C631 1.429 . S
C647 C643 1.429 1_565 S
C647 C648 1.523 . S
C648 C632 1.368 . S
C648 C644 1.368 . S
C648 C647 1.523 . S
H649 C624 0.950 . S
H650 C626 0.950 . S
H651 C627 0.949 . S
H652 C629 0.948 . S
H653 C631 0.950 . S
C654 C655 1.349 . S
C654 C656 1.327 . S
C654 H679 0.950 . S
C655 C654 1.349 . S
C655 C671 1.349 . S
C656 C654 1.327 . S
C656 C675 1.429 . S
C656 H680 0.950 . S
C657 C674 1.574 . S
C657 C676 1.368 . S
C657 H681 0.949 . S
H658 C662 0.949 . S
C659 C660 1.349 . S
C659 C661 1.327 . S
C659 H682 0.950 . S
C660 C659 1.349 . S
C660 C672 1.349 . S
C661 C659 1.327 . S
C661 C677 1.429 . S
C661 H683 0.950 . S
C662 H658 0.949 . S
C662 C670 1.574 . S
C662 C678 1.368 . S
H663 C671 0.950 . S
H664 C669 0.950 . S
H665 C670 0.949 . S
H666 C672 0.950 . S
H667 C673 0.950 . S
H668 C674 0.949 . S
C669 H664 0.950 . S
C669 C671 1.327 . S
C669 C675 1.429 . S
C670 C662 1.574 . S
C670 H665 0.949 . S
C670 C676 1.368 . S
C671 C655 1.349 . S
C671 H663 0.950 . S
C671 C669 1.327 . S
C672 C660 1.349 . S
C672 H666 0.950 . S
C672 C673 1.327 . S
C673 H667 0.950 . S
C673 C672 1.327 . S
C673 C677 1.429 . S
C674 C657 1.574 . S
C674 H668 0.949 . S
C674 C678 1.368 . S
C675 C656 1.429 . S
C675 C669 1.429 . S
C675 C676 1.523 . S
C676 C657 1.368 . S
C676 C670 1.368 . S
C676 C675 1.523 . S
C677 C661 1.429 . S
C677 C673 1.429 . S
C677 C678 1.523 . S
C678 C662 1.368 . S
C678 C674 1.368 . S
C678 C677 1.523 . S
H679 C654 0.950 . S
H680 C656 0.950 . S
H681 C657 0.949 . S
H682 C659 0.950 . S
H683 C661 0.950 . S
C684 C685 1.349 . S
C684 C686 1.327 . S
C684 H709 0.950 . S
C685 C684 1.349 . S
C685 C701 1.349 . S
C686 C684 1.327 . S
C686 C705 1.429 . S
C686 H710 0.950 . S
C687 C704 1.574 . S
C687 C706 1.368 . S
C687 H711 0.949 . S
H688 C692 0.949 . S
C689 C690 1.349 . S
C689 C691 1.327 . S
C689 H712 0.950 . S
C690 C689 1.349 . S
C690 C702 1.349 . S
C691 C689 1.327 . S
C691 C707 1.429 1_655 S
C691 H713 0.950 1_655 S
C692 H688 0.949 . S
C692 C700 1.574 . S
C692 C708 1.368 . S
H693 C701 0.950 . S
H694 C699 0.950 . S
H695 C700 0.949 . S
H696 C702 0.950 . S
H697 C703 0.950 . S
H698 C704 0.949 . S
C699 H694 0.950 . S
C699 C701 1.327 . S
C699 C705 1.429 . S
C700 C692 1.574 . S
C700 H695 0.949 . S
C700 C706 1.368 . S
C701 C685 1.349 . S
C701 H693 0.950 . S
C701 C699 1.327 . S
C702 C690 1.349 . S
C702 H696 0.950 . S
C702 C703 1.327 1_655 S
C703 H697 0.950 . S
C703 C702 1.327 1_455 S
C703 C707 1.429 . S
C704 C687 1.574 . S
C704 H698 0.949 . S
C704 C708 1.368 . S
C705 C686 1.429 . S
C705 C699 1.429 . S
C705 C706 1.523 . S
C706 C687 1.368 . S
C706 C700 1.368 . S
C706 C705 1.523 . S
C707 C691 1.429 1_455 S
C707 C703 1.429 . S
C707 C708 1.523 . S
C708 C692 1.368 . S
C708 C704 1.368 . S
C708 C707 1.523 . S
H709 C684 0.950 . S
H710 C686 0.950 . S
H711 C687 0.949 . S
H712 C689 0.950 . S
H713 C691 0.950 1_455 S
C714 C715 1.349 . S
C714 C716 1.327 . S
C714 H739 0.950 . S
C715 C714 1.349 . S
C715 C731 1.349 . S
C716 C714 1.327 . S
C716 C735 1.429 . S
C716 H740 0.950 . S
C717 C734 1.574 . S
C717 C736 1.368 . S
C717 H741 0.949 . S
H718 C722 0.949 . S
C719 C720 1.349 . S
C719 C721 1.327 1_565 S
C719 H742 0.950 . S
C720 C719 1.349 . S
C720 C732 1.349 . S
C721 C719 1.327 1_545 S
C721 C737 1.429 . S
C721 H743 0.950 . S
C722 H718 0.949 . S
C722 C730 1.574 . S
C722 C738 1.368 . S
H723 C731 0.950 . S
H724 C729 0.950 . S
H725 C730 0.949 . S
H726 C732 0.950 . S
H727 C733 0.950 . S
H728 C734 0.949 . S
C729 H724 0.950 . S
C729 C731 1.327 . S
C729 C735 1.429 . S
C730 C722 1.574 . S
C730 H725 0.949 . S
C730 C736 1.368 . S
C731 C715 1.349 . S
C731 H723 0.950 . S
C731 C729 1.327 . S
C732 C720 1.349 . S
C732 H726 0.950 . S
C732 C733 1.327 1_565 S
C733 H727 0.950 . S
C733 C732 1.327 1_545 S
C733 C737 1.429 . S
C734 C717 1.574 . S
C734 H728 0.949 . S
C734 C738 1.368 . S
C735 C716 1.429 . S
C735 C729 1.429 . S
C735 C736 1.523 . S
C736 C717 1.368 . S
C736 C730 1.368 . S
C736 C735 1.523 . S
C737 C721 1.429 . S
C737 C733 1.429 . S
C737 C738 1.523 . S
C738 C722 1.368 . S
C738 C734 1.368 . S
C738 C737 1.523 . S
H739 C714 0.950 . S
H740 C716 0.950 . S
H741 C717 0.949 . S
H742 C719 0.950 . S
H743 C721 0.950 . S
C744 C745 1.349 . S
C744 C746 1.327 . S
C744 H769 0.950 . S
C745 C744 1.349 . S
C745 C761 1.349 . S
C746 C744 1.327 . S
C746 C765 1.429 . S
C746 H770 0.950 . S
C747 C764 1.574 . S
C747 C766 1.368 . S
C747 H771 0.949 . S
H748 C752 0.949 . S
C749 C750 1.349 . S
C749 C751 1.327 . S
C749 H772 0.950 . S
C750 C749 1.349 . S
C750 C762 1.349 . S
C751 C749 1.327 . S
C751 C767 1.429 . S
C751 H773 0.950 . S
C752 H748 0.949 . S
C752 C760 1.574 . S
C752 C768 1.368 . S
H753 C761 0.950 . S
H754 C759 0.950 . S
H755 C760 0.949 1_556 S
H756 C762 0.950 . S
H757 C763 0.950 . S
H758 C764 0.949 . S
C759 H754 0.950 . S
C759 C761 1.327 . S
C759 C765 1.429 . S
C760 C752 1.574 . S
C760 H755 0.949 1_554 S
C760 C766 1.368 . S
C761 C745 1.349 . S
C761 H753 0.950 . S
C761 C759 1.327 . S
C762 C750 1.349 . S
C762 H756 0.950 . S
C762 C763 1.327 . S
C763 H757 0.950 . S
C763 C762 1.327 . S
C763 C767 1.429 . S
C764 C747 1.574 . S
C764 H758 0.949 . S
C764 C768 1.368 . S
C765 C746 1.429 . S
C765 C759 1.429 . S
C765 C766 1.523 1_556 S
C766 C747 1.368 . S
C766 C760 1.368 . S
C766 C765 1.523 1_554 S
C767 C751 1.429 . S
C767 C763 1.429 . S
C767 C768 1.523 . S
C768 C752 1.368 . S
C768 C764 1.368 . S
C768 C767 1.523 . S
H769 C744 0.950 . S
H770 C746 0.950 . S
H771 C747 0.949 . S
H772 C749 0.950 . S
H773 C751 0.950 . S
C774 C775 1.349 1_655 S
C774 C776 1.327 . S
C774 H799 0.950 . S
C775 C774 1.349 1_455 S
C775 C791 1.349 . S
C776 C774 1.327 . S
C776 C795 1.429 . S
C776 H800 0.950 . S
C777 C794 1.574 . S
C777 C796 1.368 . S
C777 H801 0.949 . S
H778 C782 0.949 . S
C779 C780 1.349 . S
C779 C781 1.327 . S
C779 H802 0.950 . S
C780 C779 1.349 . S
C780 C792 1.349 . S
C781 C779 1.327 . S
C781 C797 1.429 . S
C781 H803 0.950 . S
C782 H778 0.949 . S
C782 C790 1.574 . S
C782 C798 1.368 . S
H783 C791 0.950 . S
H784 C789 0.950 . S
H785 C790 0.949 . S
H786 C792 0.950 . S
H787 C793 0.950 . S
H788 C794 0.949 . S
C789 H784 0.950 . S
C789 C791 1.327 . S
C789 C795 1.429 1_455 S
C790 C782 1.574 . S
C790 H785 0.949 . S
C790 C796 1.368 . S
C791 C775 1.349 . S
C791 H783 0.950 . S
C791 C789 1.327 . S
C792 C780 1.349 . S
C792 H786 0.950 . S
C792 C793 1.327 . S
C793 H787 0.950 . S
C793 C792 1.327 . S
C793 C797 1.429 . S
C794 C777 1.574 . S
C794 H788 0.949 . S
C794 C798 1.368 . S
C795 C776 1.429 . S
C795 C789 1.429 1_655 S
C795 C796 1.523 . S
C796 C777 1.368 . S
C796 C790 1.368 . S
C796 C795 1.523 . S
C797 C781 1.429 . S
C797 C793 1.429 . S
C797 C798 1.523 . S
C798 C782 1.368 . S
C798 C794 1.368 . S
C798 C797 1.523 . S
H799 C774 0.950 . S
H800 C776 0.950 . S
H801 C777 0.949 . S
H802 C779 0.950 . S
H803 C781 0.950 . S
C804 C805 1.349 . S
C804 C806 1.327 . S
C804 H829 0.950 . S
C805 C804 1.349 . S
C805 C821 1.324 1_655 S
C806 C804 1.327 . S
C806 C825 1.429 1_655 S
C806 H830 0.950 . S
C807 C824 1.574 . S
C807 C826 1.368 . S
C807 H831 0.949 . S
H808 C812 0.949 . S
C809 C810 1.349 . S
C809 C811 1.327 . S
C809 H832 0.950 . S
C810 C809 1.349 . S
C810 C822 1.349 . S
C811 C809 1.327 . S
C811 C827 1.429 . S
C811 H833 0.950 . S
C812 H808 0.949 . S
C812 C820 1.574 . S
C812 C828 1.368 . S
H813 C821 0.950 . S
H814 C819 0.950 . S
H815 C820 0.949 . S
H816 C822 0.950 . S
H817 C823 0.950 . S
H818 C824 0.949 . S
C819 H814 0.950 . S
C819 C821 1.353 . S
C819 C825 1.429 . S
C820 C812 1.574 . S
C820 H815 0.949 . S
C820 C826 1.368 . S
C821 C805 1.324 1_455 S
C821 H813 0.950 . S
C821 C819 1.353 . S
C822 C810 1.349 . S
C822 H816 0.950 . S
C822 C823 1.327 . S
C823 H817 0.950 . S
C823 C822 1.327 . S
C823 C827 1.429 . S
C824 C807 1.574 . S
C824 H818 0.949 . S
C824 C828 1.368 . S
C825 C806 1.429 1_455 S
C825 C819 1.429 . S
C825 C826 1.523 . S
C826 C807 1.368 . S
C826 C820 1.368 . S
C826 C825 1.523 . S
C827 C811 1.429 . S
C827 C823 1.429 . S
C827 C828 1.523 . S
C828 C812 1.368 . S
C828 C824 1.368 . S
C828 C827 1.523 . S
H829 C804 0.950 . S
H830 C806 0.950 . S
H831 C807 0.949 . S
H832 C809 0.950 . S
H833 C811 0.950 . S
C834 C835 1.349 . S
C834 C836 1.327 . S
C834 H859 0.950 . S
C835 C834 1.349 . S
C835 C851 1.349 . S
C836 C834 1.327 . S
C836 C855 1.429 1_565 S
C836 H860 0.950 . S
C837 C854 1.574 . S
C837 C856 1.368 . S
C837 H861 0.949 . S
H838 C842 0.949 . S
C839 C840 1.349 . S
C839 C841 1.327 . S
C839 H862 0.950 . S
C840 C839 1.349 . S
C840 C852 1.349 . S
C841 C839 1.327 . S
C841 C857 1.429 . S
C841 H863 0.950 . S
C842 H838 0.949 . S
C842 C850 1.574 . S
C842 C858 1.368 . S
H843 C851 0.950 . S
H844 C849 0.950 . S
H845 C850 0.949 . S
H846 C852 0.950 . S
H847 C853 0.950 . S
H848 C854 0.949 . S
C849 H844 0.950 . S
C849 C851 1.327 1_545 S
C849 C855 1.429 . S
C850 C842 1.574 . S
C850 H845 0.949 . S
C850 C856 1.368 . S
C851 C835 1.349 . S
C851 H843 0.950 . S
C851 C849 1.327 1_565 S
C852 C840 1.349 . S
C852 H846 0.950 . S
C852 C853 1.327 . S
C853 H847 0.950 . S
C853 C852 1.327 . S
C853 C857 1.429 . S
C854 C837 1.574 . S
C854 H848 0.949 . S
C854 C858 1.368 . S
C855 C836 1.429 1_545 S
C855 C849 1.429 . S
C855 C856 1.523 . S
C856 C837 1.368 . S
C856 C850 1.368 . S
C856 C855 1.523 . S
C857 C841 1.429 . S
C857 C853 1.429 . S
C857 C858 1.523 . S
C858 C842 1.368 . S
C858 C854 1.368 . S
C858 C857 1.523 . S
H859 C834 0.950 . S
H860 C836 0.950 . S
H861 C837 0.949 . S
H862 C839 0.950 . S
H863 C841 0.950 . S
C864 C865 1.349 . S
C864 C866 1.327 . S
C864 H889 0.950 . S
C865 C864 1.349 . S
C865 C881 1.349 . S
C866 C864 1.327 . S
C866 C885 1.429 . S
C866 H890 0.950 . S
C867 C884 1.574 . S
C867 C886 1.368 . S
C867 H891 0.949 . S
H868 C872 0.949 . S
C869 C870 1.349 . S
C869 C871 1.327 . S
C869 H892 0.950 . S
C870 C869 1.349 . S
C870 C882 1.349 . S
C871 C869 1.327 . S
C871 C887 1.429 . S
C871 H893 0.950 . S
C872 H868 0.949 . S
C872 C880 1.574 . S
C872 C888 1.368 . S
H873 C881 0.950 . S
H874 C879 0.950 . S
H875 C880 0.949 . S
H876 C882 0.950 . S
H877 C883 0.950 . S
H878 C884 0.949 . S
C879 H874 0.950 . S
C879 C881 1.327 . S
C879 C885 1.429 . S
C880 C872 1.574 . S
C880 H875 0.949 . S
C880 C886 1.368 . S
C881 C865 1.349 . S
C881 H873 0.950 . S
C881 C879 1.327 . S
C882 C870 1.349 . S
C882 H876 0.950 . S
C882 C883 1.327 . S
C883 H877 0.950 . S
C883 C882 1.327 . S
C883 C887 1.429 . S
C884 C867 1.574 . S
C884 H878 0.949 . S
C884 C888 1.368 . S
C885 C866 1.429 . S
C885 C879 1.429 . S
C885 C886 1.523 . S
C886 C867 1.368 . S
C886 C880 1.368 . S
C886 C885 1.523 . S
C887 C871 1.429 . S
C887 C883 1.429 . S
C887 C888 1.523 . S
C888 C872 1.368 . S
C888 C884 1.368 . S
C888 C887 1.523 . S
H889 C864 0.950 . S
H890 C866 0.950 . S
H891 C867 0.949 . S
H892 C869 0.950 . S
H893 C871 0.950 . S
C894 C895 1.349 . S
C894 C896 1.327 . S
C894 H919 0.950 . S
C895 C894 1.349 . S
C895 C911 1.349 . S
C896 C894 1.327 . S
C896 C915 1.429 . S
C896 H920 0.950 . S
C897 C914 1.574 . S
C897 C916 1.368 . S
C897 H921 0.949 . S
H898 C902 0.949 1_554 S
C899 C900 1.349 . S
C899 C901 1.327 . S
C899 H922 0.950 . S
C900 C899 1.349 . S
C900 C912 1.349 . S
C901 C899 1.327 . S
C901 C917 1.429 1_455 S
C901 H923 0.950 . S
C902 H898 0.949 1_556 S
C902 C910 1.574 1_556 S
C902 C918 1.368 . S
H903 C911 0.937 1_556 S
H904 C909 0.950 . S
H905 C910 0.949 . S
H906 C912 0.950 . S
H907 C913 0.950 . S
H908 C914 0.949 . S
C909 H904 0.950 . S
C909 C911 1.327 1_556 S
C909 C915 1.429 1_556 S
C910 C902 1.574 1_554 S
C910 H905 0.949 . S
C910 C916 1.368 1_554 S
C911 C895 1.349 . S
C911 H903 0.937 1_554 S
C911 C909 1.327 1_554 S
C912 C900 1.349 . S
C912 H906 0.950 . S
C912 C913 1.327 1_455 S
C913 H907 0.950 . S
C913 C912 1.327 1_655 S
C913 C917 1.429 . S
C914 C897 1.574 . S
C914 H908 0.949 . S
C914 C918 1.368 . S
C915 C896 1.429 . S
C915 C909 1.429 1_554 S
C915 C916 1.523 1_554 S
C916 C897 1.368 . S
C916 C910 1.368 1_556 S
C916 C915 1.523 1_556 S
C917 C901 1.429 1_655 S
C917 C913 1.429 . S
C917 C918 1.523 . S
C918 C902 1.368 . S
C918 C914 1.368 . S
C918 C917 1.523 . S
H919 C894 0.950 . S
H920 C896 0.950 . S
H921 C897 0.949 . S
H922 C899 0.950 . S
H923 C901 0.950 . S
C924 C925 1.349 . S
C924 C926 1.327 . S
C924 H949 0.950 . S
C925 C924 1.349 . S
C925 C941 1.349 1_545 S
C926 C924 1.327 . S
C926 C945 1.429 1_545 S
C926 H950 0.950 . S
C927 C944 1.574 . S
C927 C946 1.368 . S
C927 H951 0.949 . S
H928 C932 0.949 . S
C929 C930 1.349 . S
C929 C931 1.327 . S
C929 H952 0.950 . S
C930 C929 1.349 . S
C930 C942 1.349 . S
C931 C929 1.327 . S
C931 C947 1.429 . S
C931 H953 0.950 . S
C932 H928 0.949 . S
C932 C940 1.574 . S
C932 C948 1.368 . S
H933 C941 0.950 . S
H934 C939 0.950 . S
H935 C940 0.949 1_545 S
H936 C942 0.950 . S
H937 C943 0.950 . S
H938 C944 0.949 . S
C939 H934 0.950 . S
C939 C941 1.327 . S
C939 C945 1.429 . S
C940 C932 1.574 . S
C940 H935 0.949 1_565 S
C940 C946 1.368 . S
C941 C925 1.349 1_565 S
C941 H933 0.950 . S
C941 C939 1.327 . S
C942 C930 1.349 . S
C942 H936 0.950 . S
C942 C943 1.327 . S
C943 H937 0.950 . S
C943 C942 1.327 . S
C943 C947 1.429 . S
C944 C927 1.574 . S
C944 H938 0.949 . S
C944 C948 1.368 . S
C945 C926 1.429 1_565 S
C945 C939 1.429 . S
C945 C946 1.523 . S
C946 C927 1.368 . S
C946 C940 1.368 . S
C946 C945 1.523 . S
C947 C931 1.429 . S
C947 C943 1.429 . S
C947 C948 1.523 . S
C948 C932 1.368 . S
C948 C944 1.368 . S
C948 C947 1.523 . S
H949 C924 0.950 . S
H950 C926 0.950 . S
H951 C927 0.949 . S
H952 C929 0.950 . S
H953 C931 0.950 . S
C954 C955 1.349 . S
C954 C956 1.327 . S
C954 H979 0.950 . S
C955 C954 1.349 . S
C955 C971 1.349 . S
C956 C954 1.327 . S
C956 C975 1.429 . S
C956 H980 0.950 . S
C957 C974 1.574 . S
C957 C976 1.368 . S
C957 H981 0.949 . S
H958 C962 0.949 . S
C959 C960 1.349 . S
C959 C961 1.327 . S
C959 H982 0.950 . S
C960 C959 1.349 . S
C960 C972 1.349 . S
C961 C959 1.327 . S
C961 C977 1.429 . S
C961 H983 0.950 . S
C962 H958 0.949 . S
C962 C970 1.574 . S
C962 C978 1.368 . S
H963 C971 0.950 . S
H964 C969 0.950 . S
H965 C970 0.949 . S
H966 C972 0.950 . S
H967 C973 0.950 . S
H968 C974 0.949 . S
C969 H964 0.950 . S
C969 C971 1.327 . S
C969 C975 1.429 . S
C970 C962 1.574 . S
C970 H965 0.949 . S
C970 C976 1.368 . S
C971 C955 1.349 . S
C971 H963 0.950 . S
C971 C969 1.327 . S
C972 C960 1.349 . S
C972 H966 0.950 . S
C972 C973 1.327 . S
C973 H967 0.950 . S
C973 C972 1.327 . S
C973 C977 1.429 . S
C974 C957 1.574 . S
C974 H968 0.949 . S
C974 C978 1.368 . S
C975 C956 1.429 . S
C975 C969 1.429 . S
C975 C976 1.523 . S
C976 C957 1.368 . S
C976 C970 1.368 . S
C976 C975 1.523 . S
C977 C961 1.429 . S
C977 C973 1.429 . S
C977 C978 1.523 . S
C978 C962 1.368 . S
C978 C974 1.368 . S
C978 C977 1.523 . S
H979 C954 0.950 . S
H980 C956 0.950 . S
H981 C957 0.949 . S
H982 C959 0.950 . S
H983 C961 0.950 . S
C984 C985 1.349 1_655 S
C984 C986 1.327 1_655 S
C984 H1009 0.950 . S
C985 C984 1.349 1_455 S
C985 C1001 1.349 . S
C986 C984 1.327 1_455 S
C986 C1005 1.429 . S
C986 H1010 0.950 . S
C987 C1004 1.574 . S
C987 C1006 1.368 . S
C987 H1011 0.949 . S
H988 C992 0.949 . S
C989 C990 1.349 . S
C989 C991 1.327 . S
C989 H1012 0.949 1_565 S
C990 C989 1.349 . S
C990 C1002 1.349 . S
C991 C989 1.327 . S
C991 C1007 1.429 . S
C991 H1013 0.950 . S
C992 H988 0.949 . S
C992 C1000 1.574 . S
C992 C1008 1.368 . S
H993 C1001 0.950 . S
H994 C999 0.950 . S
H995 C1000 0.949 . S
H996 C1002 0.950 . S
H997 C1003 0.950 . S
H998 C1004 0.949 . S
C999 H994 0.950 . S
C999 C1001 1.327 . S
C999 C1005 1.429 . S
C1000 C992 1.574 . S
C1000 H995 0.949 . S
C1000 C1006 1.368 . S
C1001 C985 1.349 . S
C1001 H993 0.950 . S
C1001 C999 1.327 . S
C1002 C990 1.349 . S
C1002 H996 0.950 . S
C1002 C1003 1.327 . S
C1003 H997 0.950 . S
C1003 C1002 1.327 . S
C1003 C1007 1.429 . S
C1004 C987 1.574 . S
C1004 H998 0.949 . S
C1004 C1008 1.368 . S
C1005 C986 1.429 . S
C1005 C999 1.429 . S
C1005 C1006 1.523 . S
C1006 C987 1.368 . S
C1006 C1000 1.368 . S
C1006 C1005 1.523 . S
C1007 C991 1.429 . S
C1007 C1003 1.429 . S
C1007 C1008 1.523 . S
C1008 C992 1.368 . S
C1008 C1004 1.368 . S
C1008 C1007 1.523 . S
H1009 C984 0.950 . S
H1010 C986 0.950 . S
H1011 C987 0.949 . S
H1012 C989 0.949 1_545 S
H1013 C991 0.950 . S
C1014 C1015 1.349 . S
C1014 C1016 1.327 . S
C1014 H1039 0.950 . S
C1015 C1014 1.349 . S
C1015 C1031 1.349 . S
C1016 C1014 1.327 . S
C1016 C1035 1.429 . S
C1016 H1040 0.950 . S
C1017 C1034 1.574 . S
C1017 C1036 1.368 . S
C1017 H1041 0.949 . S
H1018 C1022 0.949 . S
C1019 C1020 1.349 . S
C1019 C1021 1.327 . S
C1019 H1042 0.950 . S
C1020 C1019 1.349 . S
C1020 C1032 1.349 . S
C1021 C1019 1.327 . S
C1021 C1037 1.429 . S
C1021 H1043 0.950 . S
C1022 H1018 0.949 . S
C1022 C1030 1.574 . S
C1022 C1038 1.368 . S
H1023 C1031 0.950 . S
H1024 C1029 0.950 . S
H1025 C1030 0.949 . S
H1026 C1032 0.950 . S
H1027 C1033 0.950 . S
H1028 C1034 0.949 . S
C1029 H1024 0.950 . S
C1029 C1031 1.327 . S
C1029 C1035 1.429 . S
C1030 C1022 1.574 . S
C1030 H1025 0.949 . S
C1030 C1036 1.368 . S
C1031 C1015 1.349 . S
C1031 H1023 0.950 . S
C1031 C1029 1.327 . S
C1032 C1020 1.349 . S
C1032 H1026 0.950 . S
C1032 C1033 1.327 . S
C1033 H1027 0.950 . S
C1033 C1032 1.327 . S
C1033 C1037 1.429 . S
C1034 C1017 1.574 . S
C1034 H1028 0.949 . S
C1034 C1038 1.368 . S
C1035 C1016 1.429 . S
C1035 C1029 1.429 . S
C1035 C1036 1.523 . S
C1036 C1017 1.368 . S
C1036 C1030 1.368 . S
C1036 C1035 1.523 . S
C1037 C1021 1.429 . S
C1037 C1033 1.429 . S
C1037 C1038 1.523 . S
C1038 C1022 1.368 . S
C1038 C1034 1.368 . S
C1038 C1037 1.523 . S
H1039 C1014 0.950 . S
H1040 C1016 0.950 . S
H1041 C1017 0.949 . S
H1042 C1019 0.950 . S
H1043 C1021 0.950 . S
C1044 C1045 1.349 . S
C1044 C1046 1.327 . S
C1044 H1069 0.950 . S
C1045 C1044 1.349 . S
C1045 C1061 1.349 . S
C1046 C1044 1.327 . S
C1046 C1065 1.429 . S
C1046 H1070 0.950 . S
C1047 C1064 1.574 . S
C1047 C1066 1.368 . S
C1047 H1071 0.949 . S
H1048 C1052 0.949 . S
C1049 C1050 1.349 . S
C1049 C1051 1.327 . S
C1049 H1072 0.950 . S
C1050 C1049 1.349 . S
C1050 C1062 1.349 1_455 S
C1051 C1049 1.327 . S
C1051 C1067 1.429 . S
C1051 H1073 0.950 . S
C1052 H1048 0.949 . S
C1052 C1060 1.574 . S
C1052 C1068 1.368 . S
H1053 C1061 0.950 . S
H1054 C1059 0.950 . S
H1055 C1060 0.949 . S
H1056 C1062 0.950 . S
H1057 C1063 0.950 . S
H1058 C1064 0.949 . S
C1059 H1054 0.950 . S
C1059 C1061 1.327 . S
C1059 C1065 1.429 . S
C1060 C1052 1.574 . S
C1060 H1055 0.949 . S
C1060 C1066 1.368 . S
C1061 C1045 1.349 . S
C1061 H1053 0.950 . S
C1061 C1059 1.327 . S
C1062 C1050 1.349 1_655 S
C1062 H1056 0.950 . S
C1062 C1063 1.327 1_655 S
C1063 H1057 0.950 . S
C1063 C1062 1.327 1_455 S
C1063 C1067 1.429 . S
C1064 C1047 1.574 . S
C1064 H1058 0.949 . S
C1064 C1068 1.368 . S
C1065 C1046 1.429 . S
C1065 C1059 1.429 . S
C1065 C1066 1.523 . S
C1066 C1047 1.368 . S
C1066 C1060 1.368 . S
C1066 C1065 1.523 . S
C1067 C1051 1.429 . S
C1067 C1063 1.429 . S
C1067 C1068 1.523 . S
C1068 C1052 1.368 . S
C1068 C1064 1.368 . S
C1068 C1067 1.523 . S
H1069 C1044 0.950 . S
H1070 C1046 0.950 . S
H1071 C1047 0.949 . S
H1072 C1049 0.950 . S
H1073 C1051 0.950 . S
C1074 C1075 1.349 1_565 S
C1074 C1076 1.327 1_565 S
C1074 H1099 0.950 . S
C1075 C1074 1.349 1_545 S
C1075 C1091 1.349 . S
C1076 C1074 1.327 1_545 S
C1076 C1095 1.429 . S
C1076 H1100 0.950 . S
C1077 C1094 1.574 . S
C1077 C1096 1.368 . S
C1077 H1101 0.949 . S
H1078 C1082 0.949 . S
C1079 C1080 1.349 . S
C1079 C1081 1.327 . S
C1079 H1102 0.950 . S
C1080 C1079 1.349 . S
C1080 C1092 1.360 . S
C1081 C1079 1.327 . S
C1081 C1097 1.429 . S
C1081 H1103 0.950 . S
C1082 H1078 0.949 . S
C1082 C1090 1.574 . S
C1082 C1098 1.368 . S
H1083 C1091 0.950 . S
H1084 C1089 0.950 . S
H1085 C1090 0.949 . S
H1086 C1092 0.930 1_455 S
H1087 C1093 0.950 . S
H1088 C1094 0.949 . S
C1089 H1084 0.950 . S
C1089 C1091 1.327 . S
C1089 C1095 1.429 . S
C1090 C1082 1.574 . S
C1090 H1085 0.949 . S
C1090 C1096 1.368 . S
C1091 C1075 1.349 . S
C1091 H1083 0.950 . S
C1091 C1089 1.327 . S
C1092 C1080 1.360 . S
C1092 H1086 0.930 1_655 S
C1092 C1093 1.336 . S
C1093 H1087 0.950 . S
C1093 C1092 1.336 . S
C1093 C1097 1.429 . S
C1094 C1077 1.574 . S
C1094 H1088 0.949 . S
C1094 C1098 1.368 . S
C1095 C1076 1.429 . S
C1095 C1089 1.429 . S
C1095 C1096 1.523 . S
C1096 C1077 1.368 . S
C1096 C1090 1.368 . S
C1096 C1095 1.523 . S
C1097 C1081 1.429 . S
C1097 C1093 1.429 . S
C1097 C1098 1.523 . S
C1098 C1082 1.368 . S
C1098 C1094 1.368 . S
C1098 C1097 1.523 . S
H1099 C1074 0.950 . S
H1100 C1076 0.950 . S
H1101 C1077 0.949 . S
H1102 C1079 0.950 . S
H1103 C1081 0.950 . S
C1104 C1105 1.349 1_545 S
C1104 C1106 1.327 1_545 S
C1104 H1129 0.950 . S
C1105 C1104 1.349 1_565 S
C1105 C1121 1.349 . S
C1106 C1104 1.327 1_565 S
C1106 C1125 1.429 . S
C1106 H1130 0.950 . S
C1107 C1124 1.574 . S
C1107 C1126 1.368 . S
C1107 H1131 0.949 . S
H1108 C1112 0.949 . S
C1109 C1110 1.349 . S
C1109 C1111 1.327 . S
C1109 H1132 0.950 . S
C1110 C1109 1.349 . S
C1110 C1122 1.349 . S
C1111 C1109 1.327 . S
C1111 C1127 1.429 . S
C1111 H1133 0.950 . S
C1112 H1108 0.949 . S
C1112 C1120 1.574 . S
C1112 C1128 1.368 . S
H1113 C1121 0.950 . S
H1114 C1119 0.950 . S
H1115 C1120 0.949 . S
H1116 C1122 0.950 . S
H1117 C1123 0.950 . S
H1118 C1124 0.949 . S
C1119 H1114 0.950 . S
C1119 C1121 1.327 . S
C1119 C1125 1.429 . S
C1120 C1112 1.574 . S
C1120 H1115 0.949 . S
C1120 C1126 1.368 . S
C1121 C1105 1.349 . S
C1121 H1113 0.950 . S
C1121 C1119 1.327 . S
C1122 C1110 1.349 . S
C1122 H1116 0.950 . S
C1122 C1123 1.327 . S
C1123 H1117 0.950 . S
C1123 C1122 1.327 . S
C1123 C1127 1.429 . S
C1124 C1107 1.574 . S
C1124 H1118 0.949 . S
C1124 C1128 1.368 . S
C1125 C1106 1.429 . S
C1125 C1119 1.429 . S
C1125 C1126 1.523 . S
C1126 C1107 1.368 . S
C1126 C1120 1.368 . S
C1126 C1125 1.523 . S
C1127 C1111 1.429 . S
C1127 C1123 1.429 . S
C1127 C1128 1.523 . S
C1128 C1112 1.368 . S
C1128 C1124 1.368 . S
C1128 C1127 1.523 . S
H1129 C1104 0.950 . S
H1130 C1106 0.950 . S
H1131 C1107 0.949 . S
H1132 C1109 0.950 . S
H1133 C1111 0.950 . S
C1134 C1135 1.349 . S
C1134 C1136 1.327 . S
C1134 H1159 0.950 . S
C1135 C1134 1.349 . S
C1135 C1151 1.349 . S
C1136 C1134 1.327 . S
C1136 C1155 1.429 . S
C1136 H1160 0.950 . S
C1137 C1154 1.574 . S
C1137 C1156 1.368 . S
C1137 H1161 0.949 . S
H1138 C1142 0.949 . S
C1139 C1140 1.349 1_455 S
C1139 C1141 1.327 1_455 S
C1139 H1162 0.950 . S
C1140 C1139 1.349 1_655 S
C1140 C1152 1.349 . S
C1141 C1139 1.327 1_655 S
C1141 C1157 1.429 . S
C1141 H1163 0.950 . S
C1142 H1138 0.949 . S
C1142 C1150 1.574 . S
C1142 C1158 1.368 . S
H1143 C1151 0.950 . S
H1144 C1149 0.950 . S
H1145 C1150 0.949 . S
H1146 C1152 0.950 . S
H1147 C1153 0.950 . S
H1148 C1154 0.949 . S
C1149 H1144 0.950 . S
C1149 C1151 1.327 . S
C1149 C1155 1.429 . S
C1150 C1142 1.574 . S
C1150 H1145 0.949 . S
C1150 C1156 1.368 . S
C1151 C1135 1.349 . S
C1151 H1143 0.950 . S
C1151 C1149 1.327 . S
C1152 C1140 1.349 . S
C1152 H1146 0.950 . S
C1152 C1153 1.327 . S
C1153 H1147 0.950 . S
C1153 C1152 1.327 . S
C1153 C1157 1.429 . S
C1154 C1137 1.574 . S
C1154 H1148 0.949 . S
C1154 C1158 1.368 . S
C1155 C1136 1.429 . S
C1155 C1149 1.429 . S
C1155 C1156 1.523 . S
C1156 C1137 1.368 . S
C1156 C1150 1.368 . S
C1156 C1155 1.523 . S
C1157 C1141 1.429 . S
C1157 C1153 1.429 . S
C1157 C1158 1.523 . S
C1158 C1142 1.368 . S
C1158 C1154 1.368 . S
C1158 C1157 1.523 . S
H1159 C1134 0.950 . S
H1160 C1136 0.950 . S
H1161 C1137 0.949 . S
H1162 C1139 0.950 . S
H1163 C1141 0.950 . S
C1164 C1165 1.349 . S
C1164 C1166 1.327 . S
C1164 H1189 0.950 . S
C1165 C1164 1.349 . S
C1165 C1181 1.349 . S
C1166 C1164 1.327 . S
C1166 C1185 1.429 . S
C1166 H1190 0.950 . S
C1167 C1184 1.574 . S
C1167 C1186 1.368 . S
C1167 H1191 0.949 . S
H1168 C1172 0.949 . S
C1169 C1170 1.349 . S
C1169 C1171 1.327 . S
C1169 H1192 0.950 . S
C1170 C1169 1.349 . S
C1170 C1182 1.349 . S
C1171 C1169 1.327 . S
C1171 C1187 1.429 . S
C1171 H1193 0.950 . S
C1172 H1168 0.949 . S
C1172 C1180 1.574 . S
C1172 C1188 1.368 . S
H1173 C1181 0.950 . S
H1174 C1179 0.950 . S
H1175 C1180 0.949 . S
H1176 C1182 0.950 . S
H1177 C1183 0.950 . S
H1178 C1184 0.949 . S
C1179 H1174 0.950 . S
C1179 C1181 1.327 . S
C1179 C1185 1.429 . S
C1180 C1172 1.574 . S
C1180 H1175 0.949 . S
C1180 C1186 1.368 . S
C1181 C1165 1.349 . S
C1181 H1173 0.950 . S
C1181 C1179 1.327 . S
C1182 C1170 1.349 . S
C1182 H1176 0.950 . S
C1182 C1183 1.327 . S
C1183 H1177 0.950 . S
C1183 C1182 1.327 . S
C1183 C1187 1.429 . S
C1184 C1167 1.574 . S
C1184 H1178 0.949 . S
C1184 C1188 1.368 . S
C1185 C1166 1.429 . S
C1185 C1179 1.429 . S
C1185 C1186 1.523 . S
C1186 C1167 1.368 . S
C1186 C1180 1.368 . S
C1186 C1185 1.523 . S
C1187 C1171 1.429 . S
C1187 C1183 1.429 . S
C1187 C1188 1.523 . S
C1188 C1172 1.368 . S
C1188 C1184 1.368 . S
C1188 C1187 1.523 . S
H1189 C1164 0.950 . S
H1190 C1166 0.950 . S
H1191 C1167 0.949 . S
H1192 C1169 0.950 . S
H1193 C1171 0.950 . S
C1194 C1195 1.349 . S
C1194 C1196 1.327 . S
C1194 H1219 0.950 . S
C1195 C1194 1.349 . S
C1195 C1211 1.349 . S
C1196 C1194 1.327 . S
C1196 C1215 1.429 . S
C1196 H1220 0.950 . S
C1197 C1214 1.574 . S
C1197 C1216 1.368 . S
C1197 H1221 0.949 . S
H1198 C1202 0.949 . S
C1199 C1200 1.349 . S
C1199 C1201 1.327 . S
C1199 H1222 0.950 . S
C1200 C1199 1.349 . S
C1200 C1212 1.349 . S
C1201 C1199 1.327 . S
C1201 C1217 1.429 . S
C1201 H1223 0.950 . S
C1202 H1198 0.949 . S
C1202 C1210 1.574 . S
C1202 C1218 1.368 . S
H1203 C1211 0.950 . S
H1204 C1209 0.950 . S
H1205 C1210 0.949 . S
H1206 C1212 0.950 . S
H1207 C1213 0.950 . S
H1208 C1214 0.949 . S
C1209 H1204 0.950 . S
C1209 C1211 1.327 . S
C1209 C1215 1.429 . S
C1210 C1202 1.574 . S
C1210 H1205 0.949 . S
C1210 C1216 1.368 . S
C1211 C1195 1.349 . S
C1211 H1203 0.950 . S
C1211 C1209 1.327 . S
C1212 C1200 1.349 . S
C1212 H1206 0.950 . S
C1212 C1213 1.327 . S
C1213 H1207 0.950 . S
C1213 C1212 1.327 . S
C1213 C1217 1.429 . S
C1214 C1197 1.574 . S
C1214 H1208 0.949 . S
C1214 C1218 1.368 . S
C1215 C1196 1.429 . S
C1215 C1209 1.429 . S
C1215 C1216 1.523 . S
C1216 C1197 1.368 . S
C1216 C1210 1.368 . S
C1216 C1215 1.523 . S
C1217 C1201 1.429 . S
C1217 C1213 1.429 . S
C1217 C1218 1.523 . S
C1218 C1202 1.368 . S
C1218 C1214 1.368 . S
C1218 C1217 1.523 . S
H1219 C1194 0.950 . S
H1220 C1196 0.950 . S
H1221 C1197 0.949 . S
H1222 C1199 0.950 . S
H1223 C1201 0.950 . S
C1224 C1225 1.349 . S
C1224 C1226 1.327 . S
C1224 H1249 0.950 . S
C1225 C1224 1.349 . S
C1225 C1241 1.349 . S
C1226 C1224 1.327 . S
C1226 C1245 1.429 . S
C1226 H1250 0.950 . S
C1227 C1244 1.574 . S
C1227 C1246 1.368 . S
C1227 H1251 0.949 . S
H1228 C1232 0.949 . S
C1229 C1230 1.349 . S
C1229 C1231 1.327 . S
C1229 H1252 0.950 . S
C1230 C1229 1.349 . S
C1230 C1242 1.349 . S
C1231 C1229 1.327 . S
C1231 C1247 1.429 . S
C1231 H1253 0.950 . S
C1232 H1228 0.949 . S
C1232 C1240 1.574 . S
C1232 C1248 1.368 . S
H1233 C1241 0.950 . S
H1234 C1239 0.950 . S
H1235 C1240 0.949 . S
H1236 C1242 0.950 . S
H1237 C1243 0.950 . S
H1238 C1244 0.949 . S
C1239 H1234 0.950 . S
C1239 C1241 1.327 . S
C1239 C1245 1.429 . S
C1240 C1232 1.574 . S
C1240 H1235 0.949 . S
C1240 C1246 1.368 . S
C1241 C1225 1.349 . S
C1241 H1233 0.950 . S
C1241 C1239 1.327 . S
C1242 C1230 1.349 . S
C1242 H1236 0.950 . S
C1242 C1243 1.327 . S
C1243 H1237 0.950 . S
C1243 C1242 1.327 . S
C1243 C1247 1.429 . S
C1244 C1227 1.574 . S
C1244 H1238 0.949 . S
C1244 C1248 1.368 . S
C1245 C1226 1.429 . S
C1245 C1239 1.429 . S
C1245 C1246 1.523 . S
C1246 C1227 1.368 . S
C1246 C1240 1.368 . S
C1246 C1245 1.523 . S
C1247 C1231 1.429 . S
C1247 C1243 1.429 . S
C1247 C1248 1.523 . S
C1248 C1232 1.368 . S
C1248 C1244 1.368 . S
C1248 C1247 1.523 . S
H1249 C1224 0.950 . S
H1250 C1226 0.950 . S
H1251 C1227 0.949 . S
H1252 C1229 0.950 . S
H1253 C1231 0.950 . S
C1254 C1255 1.349 . S
C1254 C1256 1.327 . S
C1254 H1279 0.950 . S
C1255 C1254 1.349 . S
C1255 C1271 1.349 . S
C1256 C1254 1.327 . S
C1256 C1275 1.429 . S
C1256 H1280 0.950 . S
C1257 C1274 1.574 . S
C1257 C1276 1.368 . S
C1257 H1281 0.949 . S
H1258 C1262 0.949 . S
C1259 C1260 1.349 . S
C1259 C1261 1.327 . S
C1259 H1282 0.950 . S
C1260 C1259 1.349 . S
C1260 C1272 1.349 . S
C1261 C1259 1.327 . S
C1261 C1277 1.429 . S
C1261 H1283 0.950 . S
C1262 H1258 0.949 . S
C1262 C1270 1.574 . S
C1262 C1278 1.368 . S
H1263 C1271 0.950 . S
H1264 C1269 0.950 . S
H1265 C1270 0.949 . S
H1266 C1272 0.950 . S
H1267 C1273 0.950 . S
H1268 C1274 0.949 . S
C1269 H1264 0.950 . S
C1269 C1271 1.327 . S
C1269 C1275 1.429 . S
C1270 C1262 1.574 . S
C1270 H1265 0.949 . S
C1270 C1276 1.368 . S
C1271 C1255 1.349 . S
C1271 H1263 0.950 . S
C1271 C1269 1.327 . S
C1272 C1260 1.349 . S
C1272 H1266 0.950 . S
C1272 C1273 1.327 . S
C1273 H1267 0.950 . S
C1273 C1272 1.327 . S
C1273 C1277 1.429 . S
C1274 C1257 1.574 . S
C1274 H1268 0.949 . S
C1274 C1278 1.368 . S
C1275 C1256 1.429 . S
C1275 C1269 1.429 . S
C1275 C1276 1.523 . S
C1276 C1257 1.368 . S
C1276 C1270 1.368 . S
C1276 C1275 1.523 . S
C1277 C1261 1.429 . S
C1277 C1273 1.429 . S
C1277 C1278 1.523 . S
C1278 C1262 1.368 . S
C1278 C1274 1.368 . S
C1278 C1277 1.523 . S
H1279 C1254 0.950 . S
H1280 C1256 0.950 . S
H1281 C1257 0.949 . S
H1282 C1259 0.950 . S
H1283 C1261 0.950 . S
C1284 C1285 1.349 . S
C1284 C1286 1.327 . S
C1284 H1309 0.950 . S
C1285 C1284 1.349 . S
C1285 C1301 1.349 . S
C1286 C1284 1.327 . S
C1286 C1305 1.429 . S
C1286 H1310 0.950 . S
C1287 C1304 1.574 . S
C1287 C1306 1.368 . S
C1287 H1311 0.949 . S
H1288 C1292 0.949 . S
C1289 C1290 1.349 . S
C1289 C1291 1.327 . S
C1289 H1312 0.950 . S
C1290 C1289 1.349 . S
C1290 C1302 1.349 . S
C1291 C1289 1.327 . S
C1291 C1307 1.429 . S
C1291 H1313 0.950 . S
C1292 H1288 0.949 . S
C1292 C1300 1.574 . S
C1292 C1308 1.368 . S
H1293 C1301 0.950 . S
H1294 C1299 0.950 . S
H1295 C1300 0.949 . S
H1296 C1302 0.950 . S
H1297 C1303 0.950 . S
H1298 C1304 0.949 . S
C1299 H1294 0.950 . S
C1299 C1301 1.327 . S
C1299 C1305 1.429 . S
C1300 C1292 1.574 . S
C1300 H1295 0.949 . S
C1300 C1306 1.368 . S
C1301 C1285 1.349 . S
C1301 H1293 0.950 . S
C1301 C1299 1.327 . S
C1302 C1290 1.349 . S
C1302 H1296 0.950 . S
C1302 C1303 1.327 . S
C1303 H1297 0.950 . S
C1303 C1302 1.327 . S
C1303 C1307 1.429 . S
C1304 C1287 1.574 . S
C1304 H1298 0.949 . S
C1304 C1308 1.368 . S
C1305 C1286 1.429 . S
C1305 C1299 1.429 . S
C1305 C1306 1.523 . S
C1306 C1287 1.368 . S
C1306 C1300 1.368 . S
C1306 C1305 1.523 . S
C1307 C1291 1.429 . S
C1307 C1303 1.429 . S
C1307 C1308 1.523 . S
C1308 C1292 1.368 . S
C1308 C1304 1.368 . S
C1308 C1307 1.523 . S
H1309 C1284 0.950 . S
H1310 C1286 0.950 . S
H1311 C1287 0.949 . S
H1312 C1289 0.950 . S
H1313 C1291 0.950 . S
C1314 C1315 1.349 . S
C1314 C1316 1.327 . S
C1314 H1339 0.950 . S
C1315 C1314 1.349 . S
C1315 C1331 1.349 . S
C1316 C1314 1.327 . S
C1316 C1335 1.429 . S
C1316 H1340 0.950 . S
C1317 C1334 1.574 . S
C1317 C1336 1.368 . S
C1317 H1341 0.949 . S
H1318 C1322 0.949 . S
C1319 C1320 1.349 . S
C1319 C1321 1.327 . S
C1319 H1342 0.950 . S
C1320 C1319 1.349 . S
C1320 C1332 1.349 . S
C1321 C1319 1.327 . S
C1321 C1337 1.429 . S
C1321 H1343 0.950 . S
C1322 H1318 0.949 . S
C1322 C1330 1.574 . S
C1322 C1338 1.368 . S
H1323 C1331 0.950 . S
H1324 C1329 0.950 . S
H1325 C1330 0.949 . S
H1326 C1332 0.950 . S
H1327 C1333 0.950 . S
H1328 C1334 0.949 . S
C1329 H1324 0.950 . S
C1329 C1331 1.327 . S
C1329 C1335 1.429 . S
C1330 C1322 1.574 . S
C1330 H1325 0.949 . S
C1330 C1336 1.368 . S
C1331 C1315 1.349 . S
C1331 H1323 0.950 . S
C1331 C1329 1.327 . S
C1332 C1320 1.349 . S
C1332 H1326 0.950 . S
C1332 C1333 1.327 . S
C1333 H1327 0.950 . S
C1333 C1332 1.327 . S
C1333 C1337 1.429 . S
C1334 C1317 1.574 . S
C1334 H1328 0.949 . S
C1334 C1338 1.368 . S
C1335 C1316 1.429 . S
C1335 C1329 1.429 . S
C1335 C1336 1.523 . S
C1336 C1317 1.368 . S
C1336 C1330 1.368 . S
C1336 C1335 1.523 . S
C1337 C1321 1.429 . S
C1337 C1333 1.429 . S
C1337 C1338 1.523 . S
C1338 C1322 1.368 . S
C1338 C1334 1.368 . S
C1338 C1337 1.523 . S
H1339 C1314 0.950 . S
H1340 C1316 0.950 . S
H1341 C1317 0.949 . S
H1342 C1319 0.950 . S
H1343 C1321 0.950 . S
C265 C115 1.018 . S
C270 C5 1.027 . S
C295 C31 1.027 . S
C300 C9 1.018 . S
C325 C49 1.026 . S
C330 C27 1.018 . S
C355 C53 1.018 . S
C360 C75 1.027 . S
C385 C71 1.019 . S
C390 C93 1.027 1_556 S
C415 C119 1.026 . S
C420 C97 1.018 . S
C445 C159 1.018 . S
C450 C137 1.027 . S
C475 C163 1.026 . S
C480 C185 1.018 . S
C505 C203 1.018 . S
C510 C181 1.026 . S
C535 C229 1.018 . S
C540 C207 0.987 1_554 S
C565 C247 1.018 . S
C570 C225 1.026 . S
C595 C141 1.018 . S
C600 C251 1.027 . S
C625 C248 1.293 . S
C630 C4 1.285 . S
C655 C30 1.285 . S
C660 C139 1.293 . S
C685 C160 1.293 . S
C690 C48 1.285 . S
C715 C183 1.293 . S
C720 C74 1.285 . S
C745 C204 1.293 . S
C750 C92 1.285 . S
C775 C118 1.285 . S
C780 C227 1.293 . S
C805 C136 1.285 . S
C810 C28 1.293 . S
C835 C162 1.285 . S
C840 C51 1.293 . S
C865 C72 1.292 . S
C870 C180 1.285 . S
C895 C95 1.293 . S
C900 C206 1.285 . S
C925 C224 1.285 . S
C930 C116 1.293 . S
C955 C250 1.285 . S
C960 C7 1.293 . S
C985 C138 1.083 1_455 S
C990 C6 1.083 1_565 S
C1015 C29 1.083 . S
C1020 C161 1.083 1_545 S
C1045 C182 1.083 . S
C1050 C50 1.083 1_455 S
C1075 C73 1.083 1_545 S
C1080 C205 1.083 1_655 S
C1105 C226 1.083 1_565 S
C1110 C94 1.083 . S
C1135 C249 1.083 . S
C1140 C117 1.083 1_655 S
C1165 C140 0.731 . S
C1170 C8 0.731 . S
C1195 C158 0.731 . S
C1200 C26 0.731 . S
C1225 C184 0.731 . S
C1230 C52 0.731 . S
C1255 C70 0.731 . S
C1260 C202 0.731 . S
C1285 C228 0.731 . S
C1290 C96 0.731 . S
C1315 C246 0.731 . S
C1320 C114 0.731 . S
