# Generated by pormake.
# Topology soi, (5)-cn, num edge types: 1
# Building blocks:
#     Node 0, Type 0, BuildingBlock: XOMCOT_clean_sbu_0, # of connection points: 5
#     Node 1, Type 0, BuildingBlock: XOMCOT_clean_sbu_0, # of connection points: 5
#     Node 2, Type 0, BuildingBlock: XOMCOT_clean_sbu_0, # of connection points: 5
#     Node 3, Type 0, BuildingBlock: XOMCOT_clean_sbu_0, # of connection points: 5
#     Node 4, Type 0, BuildingBlock: XOMCOT_clean_sbu_0, # of connection points: 5
#     Node 5, Type 0, BuildingBlock: XOMCOT_clean_sbu_0, # of connection points: 5
#     Node 6, Type 0, BuildingBlock: XOMCOT_clean_sbu_0, # of connection points: 5
#     Node 7, Type 0, BuildingBlock: XOMCOT_clean_sbu_0, # of connection points: 5
#     Node 8, Type 0, BuildingBlock: XOMCOT_clean_sbu_0, # of connection points: 5
#     Node 9, Type 0, BuildingBlock: XOMCOT_clean_sbu_0, # of connection points: 5
#     Node 10, Type 0, BuildingBlock: XOMCOT_clean_sbu_0, # of connection points: 5
#     Node 11, Type 0, BuildingBlock: XOMCOT_clean_sbu_0, # of connection points: 5
#     Node 12, Type 0, BuildingBlock: XOMCOT_clean_sbu_0, # of connection points: 5
#     Node 13, Type 0, BuildingBlock: XOMCOT_clean_sbu_0, # of connection points: 5
#     Node 14, Type 0, BuildingBlock: XOMCOT_clean_sbu_0, # of connection points: 5
#     Node 15, Type 0, BuildingBlock: XOMCOT_clean_sbu_0, # of connection points: 5
#     Edge 16, Type (0, 0), None
#     Edge 17, Type (0, 0), None
#     Edge 18, Type (0, 0), None
#     Edge 19, Type (0, 0), None
#     Edge 20, Type (0, 0), None
#     Edge 21, Type (0, 0), None
#     Edge 22, Type (0, 0), None
#     Edge 23, Type (0, 0), None
#     Edge 24, Type (0, 0), None
#     Edge 25, Type (0, 0), None
#     Edge 26, Type (0, 0), None
#     Edge 27, Type (0, 0), None
#     Edge 28, Type (0, 0), None
#     Edge 29, Type (0, 0), None
#     Edge 30, Type (0, 0), None
#     Edge 31, Type (0, 0), None
#     Edge 32, Type (0, 0), None
#     Edge 33, Type (0, 0), None
#     Edge 34, Type (0, 0), None
#     Edge 35, Type (0, 0), None
#     Edge 36, Type (0, 0), None
#     Edge 37, Type (0, 0), None
#     Edge 38, Type (0, 0), None
#     Edge 39, Type (0, 0), None
#     Edge 40, Type (0, 0), None
#     Edge 41, Type (0, 0), None
#     Edge 42, Type (0, 0), None
#     Edge 43, Type (0, 0), None
#     Edge 44, Type (0, 0), None
#     Edge 45, Type (0, 0), None
#     Edge 46, Type (0, 0), None
#     Edge 47, Type (0, 0), None
#     Edge 48, Type (0, 0), None
#     Edge 49, Type (0, 0), None
#     Edge 50, Type (0, 0), None
#     Edge 51, Type (0, 0), None
#     Edge 52, Type (0, 0), None
#     Edge 53, Type (0, 0), None
#     Edge 54, Type (0, 0), None
#     Edge 55, Type (0, 0), None
# Relax obj value: 0.083
# Max RMSD: 0.148
# Mean RMSD: 0.148
data_MOF--net-soi--node1-XOMCOT_clean_sbu_0--edge1-none
_symmetry_space_group_name_H-M    P1
_symmetry_Int_Tables_number       1
_symmetry_cell_setting            triclinic
loop_
_symmetry_equiv_pos_as_xyz
'x, y, z'
_cell_length_a     25.58499
_cell_length_b     12.250227
_cell_length_c     36.382886
_cell_angle_alpha  90.000002
_cell_angle_beta   89.999995
_cell_angle_gamma 90.003173
loop_
_atom_site_label
_atom_site_type_symbol
_atom_site_fract_x
_atom_site_fract_y
_atom_site_fract_z
_atom_type_partial_charge
Co0 Co 0.30717 0.11242 0.14858 0.0
C1 C 0.30539 0.00203 0.22155 0.0
C2 C 0.30488 0.17637 0.22697 0.0
C3 C 0.30706 0.13135 0.26163 0.0
N4 N 0.304 0.0955 0.20173 0.0
N5 N 0.3069 0.02216 0.25799 0.0
H6 H 0.30587 0.92108 0.20982 0.0
H7 H 0.30454 0.26263 0.2209 0.0
C8 C 0.28902 0.34851 0.13314 0.0
O9 O 0.32713 0.34604 0.10901 0.0
N10 N 0.30987 0.12866 0.09532 0.0
C11 C 0.35095 0.12024 0.07206 0.0
C12 C 0.33328 0.12888 0.03641 0.0
C13 C 0.26781 0.14228 0.07333 0.0
N14 N 0.28112 0.14231 0.03748 0.0
C15 C 0.41855 0.08316 0.14636 0.0
C16 C 0.44649 0.28864 0.17062 0.0
C17 C 0.486 0.21618 0.15993 0.0
C18 C 0.47142 0.11118 0.1485 0.0
C19 C 0.39413 0.25722 0.16809 0.0
N20 N 0.38032 0.15768 0.15402 0.0
H21 H 0.40843 0.0024 0.1369 0.0
H22 H 0.36527 0.31401 0.17778 0.0
H23 H 0.39102 0.1063 0.07966 0.0
H24 H 0.2282 0.14956 0.08339 0.0
O25 O 0.3166 0.95622 0.14274 0.0
O26 O 0.24013 0.04177 0.14343 0.0
O27 O 0.27859 0.26528 0.15288 0.0
C28 C 0.26592 0.95119 0.14008 0.0
H29 H 0.30925 0.17541 0.2873 0.0
H30 H 0.3567 0.1217 1.01178 0.0
H31 H 0.45589 0.36895 0.18118 0.0
H32 H 0.50049 0.05182 0.14021 0.0
Co33 Co 0.72066 0.35418 0.14858 0.0
C34 C 0.72244 0.46457 0.22155 0.0
C35 C 0.72295 0.29022 0.22697 0.0
C36 C 0.72077 0.33525 0.26163 0.0
N37 N 0.72383 0.37109 0.20173 0.0
N38 N 0.72093 0.44443 0.25799 0.0
H39 H 0.72196 0.54552 0.20982 0.0
H40 H 0.72328 0.20396 0.2209 0.0
C41 C 0.73881 0.11808 0.13314 0.0
O42 O 0.70069 0.12055 0.10901 0.0
N43 N 0.71795 0.33793 0.09532 0.0
C44 C 0.67687 0.34636 0.07206 0.0
C45 C 0.69455 0.33771 0.03641 0.0
C46 C 0.76002 0.32431 0.07333 0.0
N47 N 0.74671 0.32428 0.03748 0.0
C48 C 0.60928 0.38343 0.14636 0.0
C49 C 0.58134 0.17795 0.17062 0.0
C50 C 0.54183 0.25041 0.15993 0.0
C51 C 0.5564 0.35542 0.14849 0.0
C52 C 0.6337 0.20937 0.16809 0.0
N53 N 0.64751 0.30891 0.15402 0.0
H54 H 0.6194 0.46419 0.1369 0.0
H55 H 0.66256 0.15258 0.17778 0.0
H56 H 0.63681 0.36029 0.07966 0.0
H57 H 0.79963 0.31703 0.08339 0.0
O58 O 0.71123 0.51037 0.14274 0.0
O59 O 0.7877 0.42482 0.14343 0.0
O60 O 0.74924 0.20132 0.15288 0.0
C61 C 0.76191 0.51541 0.14008 0.0
H62 H 0.71858 0.29119 0.2873 0.0
H63 H 0.67113 0.3449 1.01178 0.0
H64 H 0.57194 0.09765 0.18118 0.0
H65 H 0.52734 0.41477 0.14022 0.0
Co66 Co 0.30718 0.85418 0.39605 0.0
C67 C 0.30539 0.96457 0.32308 0.0
C68 C 0.30488 0.79023 0.31767 0.0
C69 C 0.30706 0.83525 0.28301 0.0
N70 N 0.304 0.8711 0.34291 0.0
N71 N 0.30688 0.94444 0.28665 0.0
H72 H 0.30587 0.04552 0.33481 0.0
H73 H 0.30455 0.70396 0.32373 0.0
C74 C 0.28903 0.61809 0.4115 0.0
O75 O 0.32715 0.62057 0.43563 0.0
N76 N 0.30989 0.83795 0.44932 0.0
C77 C 0.35097 0.84641 0.47257 0.0
C78 C 0.33329 0.83776 0.50823 0.0
C79 C 0.26782 0.82429 0.47131 0.0
N80 N 0.28114 0.82429 0.50716 0.0
C81 C 0.41856 0.88344 0.39827 0.0
C82 C 0.44649 0.67796 0.37401 0.0
C83 C 0.486 0.75042 0.38471 0.0
C84 C 0.47143 0.85542 0.39614 0.0
C85 C 0.39413 0.70938 0.37654 0.0
N86 N 0.38033 0.80893 0.39061 0.0
H87 H 0.40845 0.9642 0.40773 0.0
H88 H 0.36527 0.6526 0.36685 0.0
H89 H 0.39103 0.86039 0.46498 0.0
H90 H 0.22821 0.81698 0.46125 0.0
O91 O 0.31661 0.01038 0.4019 0.0
O92 O 0.24014 0.92482 0.40121 0.0
O93 O 0.27859 0.70132 0.39176 0.0
C94 C 0.26593 0.01541 0.40456 0.0
H95 H 0.30925 0.7912 0.25733 0.0
H96 H 0.35671 0.84498 0.53286 0.0
H97 H 0.45588 0.59765 0.36346 0.0
H98 H 0.5005 0.91478 0.40442 0.0
Co99 Co 0.72065 0.61241 0.39605 0.0
C100 C 0.72244 0.50202 0.32308 0.0
C101 C 0.72295 0.67636 0.31767 0.0
C102 C 0.72077 0.63134 0.28301 0.0
N103 N 0.72383 0.5955 0.34291 0.0
N104 N 0.72094 0.52216 0.28665 0.0
H105 H 0.72196 0.42107 0.33481 0.0
H106 H 0.72328 0.76263 0.32373 0.0
C107 C 0.7388 0.84851 0.4115 0.0
O108 O 0.70068 0.84603 0.43563 0.0
N109 N 0.71794 0.62865 0.44932 0.0
C110 C 0.67686 0.62018 0.47257 0.0
C111 C 0.69454 0.62883 0.50823 0.0
C112 C 0.76001 0.6423 0.47131 0.0
N113 N 0.74669 0.64231 0.50716 0.0
C114 C 0.60927 0.58315 0.39827 0.0
C115 C 0.58134 0.78863 0.37401 0.0
C116 C 0.54183 0.71618 0.38471 0.0
C117 C 0.5564 0.61117 0.39614 0.0
C118 C 0.6337 0.75721 0.37654 0.0
N119 N 0.6475 0.65767 0.39061 0.0
H120 H 0.61938 0.50239 0.40773 0.0
H121 H 0.66256 0.814 0.36685 0.0
H122 H 0.6368 0.6062 0.46498 0.0
H123 H 0.79962 0.64961 0.46125 0.0
O124 O 0.71122 0.45621 0.4019 0.0
O125 O 0.78769 0.54178 0.40121 0.0
O126 O 0.74924 0.76528 0.39176 0.0
C127 C 0.7619 0.45119 0.40456 0.0
H128 H 0.71858 0.6754 0.25733 0.0
H129 H 0.67112 0.62161 0.53286 0.0
H130 H 0.57195 0.86894 0.36346 0.0
H131 H 0.52732 0.55182 0.40442 0.0
Co132 Co 0.72066 0.85418 0.89605 0.0
C133 C 0.72244 0.96457 0.82308 0.0
C134 C 0.72295 0.79022 0.81767 0.0
C135 C 0.72077 0.83525 0.78301 0.0
N136 N 0.72383 0.87109 0.84291 0.0
N137 N 0.72093 0.94443 0.78665 0.0
H138 H 0.72196 0.04552 0.83482 0.0
H139 H 0.72328 0.70396 0.82374 0.0
C140 C 0.73881 0.61808 0.9115 0.0
O141 O 0.70069 0.62055 0.93563 0.0
N142 N 0.71795 0.83793 0.94932 0.0
C143 C 0.67687 0.84636 0.97258 0.0
C144 C 0.69455 0.83771 1.00823 0.0
C145 C 0.76002 0.82431 0.97131 0.0
N146 N 0.74671 0.82428 1.00716 0.0
C147 C 0.60928 0.88343 0.89828 0.0
C148 C 0.58133 0.67796 0.87402 0.0
C149 C 0.54183 0.75042 0.88471 0.0
C150 C 0.5564 0.85542 0.89614 0.0
C151 C 0.63369 0.70937 0.87655 0.0
N152 N 0.64751 0.80891 0.89062 0.0
H153 H 0.6194 0.96419 0.90774 0.0
H154 H 0.66256 0.65258 0.86686 0.0
H155 H 0.63681 0.86029 0.96498 0.0
H156 H 0.79963 0.81703 0.96125 0.0
O157 O 0.71123 0.01037 0.9019 0.0
O158 O 0.7877 0.92482 0.90121 0.0
O159 O 0.74924 0.70132 0.89176 0.0
C160 C 0.76191 0.01541 0.90456 0.0
H161 H 0.71858 0.79119 0.75734 0.0
H162 H 0.67113 0.8449 0.03286 0.0
H163 H 0.57194 0.59765 0.86346 0.0
H164 H 0.52734 0.91478 0.90442 0.0
Co165 Co 0.30717 0.61242 0.89605 0.0
C166 C 0.30539 0.50203 0.82308 0.0
C167 C 0.30488 0.67637 0.81767 0.0
C168 C 0.30706 0.63135 0.78301 0.0
N169 N 0.304 0.5955 0.84291 0.0
N170 N 0.3069 0.52216 0.78665 0.0
H171 H 0.30587 0.42108 0.83482 0.0
H172 H 0.30454 0.76263 0.82374 0.0
C173 C 0.28902 0.84851 0.9115 0.0
O174 O 0.32713 0.84604 0.93563 0.0
N175 N 0.30987 0.62866 0.94932 0.0
C176 C 0.35095 0.62024 0.97258 0.0
C177 C 0.33328 0.62888 1.00823 0.0
C178 C 0.26781 0.64228 0.97131 0.0
N179 N 0.28112 0.64231 1.00716 0.0
C180 C 0.41855 0.58316 0.89828 0.0
C181 C 0.44649 0.78864 0.87402 0.0
C182 C 0.48599 0.71618 0.88471 0.0
C183 C 0.47142 0.61118 0.89614 0.0
C184 C 0.39413 0.75722 0.87655 0.0
N185 N 0.38032 0.65768 0.89062 0.0
H186 H 0.40843 0.5024 0.90774 0.0
H187 H 0.36527 0.81401 0.86686 0.0
H188 H 0.39102 0.6063 0.96498 0.0
H189 H 0.2282 0.64956 0.96125 0.0
O190 O 0.3166 0.45622 0.9019 0.0
O191 O 0.24013 0.54177 0.90121 0.0
O192 O 0.27858 0.76528 0.89176 0.0
C193 C 0.26592 0.45119 0.90456 0.0
H194 H 0.30925 0.67541 0.75734 0.0
H195 H 0.3567 0.6217 0.03286 0.0
H196 H 0.45589 0.86895 0.86346 0.0
H197 H 0.50049 0.55182 0.90442 0.0
Co198 Co 0.72065 0.11241 0.64859 0.0
C199 C 0.72244 0.00202 0.72156 0.0
C200 C 0.72295 0.17636 0.72697 0.0
C201 C 0.72077 0.13134 0.76163 0.0
N202 N 0.72383 0.0955 0.70173 0.0
N203 N 0.72094 0.02216 0.75799 0.0
H204 H 0.72196 0.92107 0.70983 0.0
H205 H 0.72328 0.26263 0.72091 0.0
C206 C 0.7388 0.34851 0.63314 0.0
O207 O 0.70068 0.34603 0.60901 0.0
N208 N 0.71794 0.12865 0.59532 0.0
C209 C 0.67686 0.12018 0.57206 0.0
C210 C 0.69454 0.12883 0.53641 0.0
C211 C 0.76001 0.1423 0.57333 0.0
N212 N 0.74669 0.14231 0.53748 0.0
C213 C 0.60927 0.08315 0.64637 0.0
C214 C 0.58134 0.28863 0.67063 0.0
C215 C 0.54183 0.21617 0.65993 0.0
C216 C 0.5564 0.11117 0.6485 0.0
C217 C 0.6337 0.25721 0.6681 0.0
N218 N 0.6475 0.15767 0.65403 0.0
H219 H 0.61938 0.00239 0.63691 0.0
H220 H 0.66256 0.314 0.67779 0.0
H221 H 0.6368 0.1062 0.57966 0.0
H222 H 0.79962 0.14961 0.58339 0.0
O223 O 0.71122 0.95621 0.64274 0.0
O224 O 0.78769 0.04178 0.64343 0.0
O225 O 0.74924 0.26528 0.65288 0.0
C226 C 0.7619 0.95119 0.64008 0.0
H227 H 0.71858 0.1754 0.78731 0.0
H228 H 0.67112 0.12161 0.51178 0.0
H229 H 0.57195 0.36894 0.68118 0.0
H230 H 0.52732 0.05181 0.64022 0.0
Co231 Co 0.30718 0.35418 0.64859 0.0
C232 C 0.30539 0.46457 0.72156 0.0
C233 C 0.30488 0.29023 0.72697 0.0
C234 C 0.30706 0.33525 0.76163 0.0
N235 N 0.304 0.3711 0.70173 0.0
N236 N 0.30688 0.44444 0.75799 0.0
H237 H 0.30587 0.54552 0.70983 0.0
H238 H 0.30455 0.20396 0.72091 0.0
C239 C 0.28903 0.11809 0.63314 0.0
O240 O 0.32715 0.12057 0.60901 0.0
N241 N 0.30989 0.33795 0.59532 0.0
C242 C 0.35097 0.34641 0.57206 0.0
C243 C 0.33329 0.33777 0.53641 0.0
C244 C 0.26782 0.32429 0.57333 0.0
N245 N 0.28114 0.32429 0.53748 0.0
C246 C 0.41856 0.38344 0.64637 0.0
C247 C 0.44649 0.17796 0.67063 0.0
C248 C 0.486 0.25042 0.65993 0.0
C249 C 0.47143 0.35542 0.6485 0.0
C250 C 0.39413 0.20938 0.6681 0.0
N251 N 0.38033 0.30892 0.65403 0.0
H252 H 0.40845 0.4642 0.63691 0.0
H253 H 0.36527 0.1526 0.67779 0.0
H254 H 0.39103 0.36039 0.57966 0.0
H255 H 0.22821 0.31698 0.58339 0.0
O256 O 0.31661 0.51038 0.64274 0.0
O257 O 0.24014 0.42482 0.64343 0.0
O258 O 0.27859 0.20132 0.65288 0.0
C259 C 0.26593 0.51541 0.64008 0.0
H260 H 0.30925 0.2912 0.78731 0.0
H261 H 0.35671 0.34499 0.51178 0.0
H262 H 0.45588 0.09765 0.68118 0.0
H263 H 0.5005 0.41478 0.64022 0.0
Co264 Co 0.80717 0.61242 0.64858 0.0
C265 C 0.80541 0.50203 0.72155 0.0
C266 C 0.8049 0.67637 0.72697 0.0
C267 C 0.80709 0.63135 0.76163 0.0
N268 N 0.80402 0.59551 0.70173 0.0
N269 N 0.80693 0.52216 0.75799 0.0
H270 H 0.80588 0.42108 0.70982 0.0
H271 H 0.80456 0.76264 0.7209 0.0
C272 C 0.78901 0.84851 0.63313 0.0
O273 O 0.82712 0.84604 0.609 0.0
N274 N 0.80985 0.62865 0.59531 0.0
C275 C 0.85094 0.62046 0.57205 0.0
C276 C 0.83325 0.62906 0.5364 0.0
C277 C 0.76777 0.64212 0.57333 0.0
N278 N 0.78108 0.64217 0.53748 0.0
C279 C 0.91854 0.58317 0.64634 0.0
C280 C 0.9465 0.78864 0.6706 0.0
C281 C 0.986 0.71618 0.6599 0.0
C282 C 0.97142 0.61118 0.64846 0.0
C283 C 0.89414 0.75722 0.66807 0.0
N284 N 0.88032 0.65768 0.654 0.0
H285 H 0.90843 0.50242 0.63687 0.0
H286 H 0.86527 0.81401 0.67777 0.0
H287 H 0.89103 0.60679 0.57964 0.0
H288 H 0.72816 0.64932 0.58339 0.0
O289 O 0.81659 0.45622 0.64273 0.0
O290 O 0.74013 0.54177 0.64344 0.0
O291 O 0.77859 0.76528 0.65288 0.0
C292 C 0.76591 0.45119 0.64008 0.0
H293 H 0.80928 0.67541 0.7873 0.0
H294 H 0.85669 0.62213 0.51177 0.0
H295 H 0.95589 0.86894 0.68115 0.0
H296 H 1.00049 0.55183 0.64018 0.0
Co297 Co 0.22066 0.85417 0.64858 0.0
C298 C 0.22241 0.96457 0.72155 0.0
C299 C 0.22293 0.79022 0.72697 0.0
C300 C 0.22074 0.83524 0.76163 0.0
N301 N 0.22381 0.87109 0.70173 0.0
N302 N 0.2209 0.94443 0.75799 0.0
H303 H 0.22195 0.04551 0.70982 0.0
H304 H 0.22326 0.70396 0.7209 0.0
C305 C 0.23882 0.61809 0.63313 0.0
O306 O 0.20071 0.62055 0.609 0.0
N307 N 0.21798 0.83794 0.59531 0.0
C308 C 0.17689 0.84614 0.57205 0.0
C309 C 0.19458 0.83754 0.5364 0.0
C310 C 0.26006 0.82447 0.57333 0.0
N311 N 0.24675 0.82442 0.53748 0.0
C312 C 0.10929 0.88342 0.64634 0.0
C313 C 0.08133 0.67796 0.6706 0.0
C314 C 0.04183 0.75041 0.6599 0.0
C315 C 0.05641 0.85541 0.64846 0.0
C316 C 0.13369 0.70937 0.66807 0.0
N317 N 0.14751 0.80891 0.654 0.0
H318 H 0.1194 0.96417 0.63687 0.0
H319 H 0.16255 0.65259 0.67777 0.0
H320 H 0.1368 0.85981 0.57965 0.0
H321 H 0.29967 0.81728 0.58339 0.0
O322 O 0.21123 0.01037 0.64273 0.0
O323 O 0.2877 0.92482 0.64344 0.0
O324 O 0.24924 0.70131 0.65288 0.0
C325 C 0.26192 0.01541 0.64008 0.0
H326 H 0.21855 0.79119 0.7873 0.0
H327 H 0.17114 0.84447 0.51177 0.0
H328 H 0.07193 0.59765 0.68115 0.0
H329 H 0.02734 0.91476 0.64018 0.0
Co330 Co 0.80718 0.35418 0.89605 0.0
C331 C 0.80541 0.46457 0.82308 0.0
C332 C 0.8049 0.29023 0.81767 0.0
C333 C 0.80708 0.33525 0.78301 0.0
N334 N 0.80402 0.37109 0.84291 0.0
N335 N 0.80691 0.44444 0.78665 0.0
H336 H 0.80588 0.54552 0.83481 0.0
H337 H 0.80457 0.20396 0.82373 0.0
C338 C 0.78902 0.11809 0.91151 0.0
O339 O 0.82713 0.12057 0.93564 0.0
N340 N 0.80986 0.33795 0.94932 0.0
C341 C 0.85095 0.3462 0.97258 0.0
C342 C 0.83326 0.33759 1.00824 0.0
C343 C 0.76778 0.32446 0.97131 0.0
N344 N 0.78109 0.32443 1.00716 0.0
C345 C 0.91855 0.38344 0.8983 0.0
C346 C 0.94649 0.17796 0.87404 0.0
C347 C 0.986 0.25042 0.88473 0.0
C348 C 0.97143 0.35542 0.89617 0.0
C349 C 0.89414 0.20939 0.87656 0.0
N350 N 0.88033 0.30892 0.89063 0.0
H351 H 0.90844 0.46419 0.90776 0.0
H352 H 0.86527 0.1526 0.86686 0.0
H353 H 0.89104 0.35991 0.96499 0.0
H354 H 0.72817 0.31723 0.96125 0.0
O355 O 0.8166 0.51038 0.9019 0.0
O356 O 0.74014 0.42482 0.9012 0.0
O357 O 0.77859 0.20131 0.89176 0.0
C358 C 0.76592 0.51541 0.90455 0.0
H359 H 0.80928 0.29119 0.75733 0.0
H360 H 0.8567 0.34456 0.03287 0.0
H361 H 0.95589 0.09766 0.86348 0.0
H362 H 1.0005 0.41477 0.90446 0.0
Co363 Co 0.22065 0.11241 0.89605 0.0
C364 C 0.22242 0.00202 0.82308 0.0
C365 C 0.22293 0.17637 0.81767 0.0
C366 C 0.22074 0.13134 0.78301 0.0
N367 N 0.22381 0.0955 0.84291 0.0
N368 N 0.22092 0.02216 0.78665 0.0
H369 H 0.22194 0.92107 0.83481 0.0
H370 H 0.22326 0.26263 0.82373 0.0
C371 C 0.23881 0.3485 0.91151 0.0
O372 O 0.20069 0.34602 0.93564 0.0
N373 N 0.21796 0.12864 0.94932 0.0
C374 C 0.17688 0.1204 0.97258 0.0
C375 C 0.19456 0.129 1.00824 0.0
C376 C 0.26004 0.14214 0.97131 0.0
N377 N 0.24673 0.14217 1.00716 0.0
C378 C 0.10928 0.08316 0.8983 0.0
C379 C 0.08134 0.28863 0.87404 0.0
C380 C 0.04183 0.21618 0.88473 0.0
C381 C 0.0564 0.11118 0.89617 0.0
C382 C 0.13369 0.25721 0.87656 0.0
N383 N 0.1475 0.15767 0.89063 0.0
H384 H 0.11939 0.00241 0.90776 0.0
H385 H 0.16256 0.31399 0.86686 0.0
H386 H 0.13679 0.10669 0.96499 0.0
H387 H 0.29966 0.14937 0.96125 0.0
O388 O 0.21122 0.95621 0.9019 0.0
O389 O 0.28769 0.04178 0.9012 0.0
O390 O 0.24924 0.26528 0.89176 0.0
C391 C 0.26191 0.95119 0.90455 0.0
H392 H 0.21855 0.1754 0.75733 0.0
H393 H 0.17113 0.12204 0.03287 0.0
H394 H 0.07194 0.36894 0.86348 0.0
H395 H 0.02733 0.05183 0.90446 0.0
Co396 Co 0.22066 0.35418 0.39606 0.0
C397 C 0.22241 0.46457 0.32309 0.0
C398 C 0.22293 0.29022 0.31767 0.0
C399 C 0.22074 0.33525 0.28301 0.0
N400 N 0.22381 0.37109 0.34291 0.0
N401 N 0.2209 0.44443 0.28665 0.0
H402 H 0.22195 0.54551 0.33482 0.0
H403 H 0.22326 0.20396 0.32374 0.0
C404 C 0.23882 0.11809 0.41151 0.0
O405 O 0.20071 0.12055 0.43564 0.0
N406 N 0.21798 0.33794 0.44933 0.0
C407 C 0.17689 0.34614 0.47259 0.0
C408 C 0.19458 0.33754 0.50824 0.0
C409 C 0.26006 0.32447 0.47131 0.0
N410 N 0.24675 0.32442 0.50716 0.0
C411 C 0.10929 0.38342 0.3983 0.0
C412 C 0.08133 0.17796 0.37404 0.0
C413 C 0.04183 0.25041 0.38474 0.0
C414 C 0.05641 0.35541 0.39618 0.0
C415 C 0.13369 0.20937 0.37657 0.0
N416 N 0.14751 0.30891 0.39064 0.0
H417 H 0.1194 0.46417 0.40777 0.0
H418 H 0.16255 0.15259 0.36687 0.0
H419 H 0.1368 0.35981 0.46499 0.0
H420 H 0.29967 0.31728 0.46125 0.0
O421 O 0.21123 0.51037 0.40191 0.0
O422 O 0.2877 0.42482 0.4012 0.0
O423 O 0.24924 0.20131 0.39176 0.0
C424 C 0.26192 0.51541 0.40456 0.0
H425 H 0.21855 0.29119 0.25734 0.0
H426 H 0.17114 0.34447 0.53287 0.0
H427 H 0.07193 0.09765 0.36348 0.0
H428 H 0.02734 0.41476 0.40446 0.0
Co429 Co 0.80717 0.11242 0.39606 0.0
C430 C 0.80541 0.00203 0.32309 0.0
C431 C 0.8049 0.17637 0.31767 0.0
C432 C 0.80709 0.13135 0.28301 0.0
N433 N 0.80402 0.09551 0.34291 0.0
N434 N 0.80693 0.02216 0.28665 0.0
H435 H 0.80588 0.92108 0.33482 0.0
H436 H 0.80456 0.26264 0.32374 0.0
C437 C 0.78901 0.34851 0.41151 0.0
O438 O 0.82712 0.34604 0.43564 0.0
N439 N 0.80985 0.12865 0.44933 0.0
C440 C 0.85094 0.12046 0.47259 0.0
C441 C 0.83325 0.12906 0.50824 0.0
C442 C 0.76777 0.14212 0.47131 0.0
N443 N 0.78108 0.14217 0.50716 0.0
C444 C 0.91854 0.08317 0.3983 0.0
C445 C 0.9465 0.28864 0.37404 0.0
C446 C 0.98599 0.21618 0.38474 0.0
C447 C 0.97142 0.11118 0.39618 0.0
C448 C 0.89414 0.25722 0.37657 0.0
N449 N 0.88032 0.15768 0.39064 0.0
H450 H 0.90843 0.00242 0.40777 0.0
H451 H 0.86527 0.31401 0.36687 0.0
H452 H 0.89103 0.10679 0.46499 0.0
H453 H 0.72816 0.14932 0.46125 0.0
O454 O 0.81659 0.95622 0.40191 0.0
O455 O 0.74013 0.04177 0.4012 0.0
O456 O 0.77859 0.26528 0.39176 0.0
C457 C 0.76591 0.95119 0.40456 0.0
H458 H 0.80928 0.17541 0.25734 0.0
H459 H 0.85669 0.12212 0.53287 0.0
H460 H 0.95589 0.36894 0.36348 0.0
H461 H 1.00049 0.05183 0.40446 0.0
Co462 Co 0.22065 0.61241 0.14859 0.0
C463 C 0.22242 0.50202 0.22156 0.0
C464 C 0.22293 0.67637 0.22697 0.0
C465 C 0.22074 0.63134 0.26163 0.0
N466 N 0.22381 0.5955 0.20173 0.0
N467 N 0.22092 0.52216 0.25799 0.0
H468 H 0.22194 0.42108 0.20983 0.0
H469 H 0.22326 0.76263 0.22091 0.0
C470 C 0.23881 0.8485 0.13313 0.0
O471 O 0.20069 0.84602 0.109 0.0
N472 N 0.21796 0.62864 0.09532 0.0
C473 C 0.17688 0.6204 0.07206 0.0
C474 C 0.19456 0.62901 0.0364 0.0
C475 C 0.26004 0.64214 0.07333 0.0
N476 N 0.24673 0.64217 0.03748 0.0
C477 C 0.10928 0.58316 0.14634 0.0
C478 C 0.08134 0.78863 0.1706 0.0
C479 C 0.04183 0.71618 0.15991 0.0
C480 C 0.0564 0.61118 0.14847 0.0
C481 C 0.13369 0.75721 0.16808 0.0
N482 N 0.1475 0.65767 0.15401 0.0
H483 H 0.11939 0.50241 0.13688 0.0
H484 H 0.16256 0.81399 0.17778 0.0
H485 H 0.13679 0.60669 0.07965 0.0
H486 H 0.29966 0.64937 0.08339 0.0
O487 O 0.21123 0.45621 0.14274 0.0
O488 O 0.28769 0.54178 0.14344 0.0
O489 O 0.24924 0.76528 0.15288 0.0
C490 C 0.26191 0.45119 0.14009 0.0
H491 H 0.21855 0.6754 0.28731 0.0
H492 H 0.17113 0.62204 1.01177 0.0
H493 H 0.07194 0.86894 0.18116 0.0
H494 H 0.02733 0.55183 0.14018 0.0
Co495 Co 0.80718 0.85418 0.14859 0.0
C496 C 0.80541 0.96457 0.22156 0.0
C497 C 0.8049 0.79023 0.22697 0.0
C498 C 0.80708 0.83525 0.26163 0.0
N499 N 0.80402 0.87109 0.20173 0.0
N500 N 0.80691 0.94444 0.25799 0.0
H501 H 0.80588 0.04552 0.20983 0.0
H502 H 0.80457 0.70396 0.22091 0.0
C503 C 0.78902 0.61809 0.13313 0.0
O504 O 0.82713 0.62057 0.109 0.0
N505 N 0.80986 0.83795 0.09532 0.0
C506 C 0.85095 0.8462 0.07206 0.0
C507 C 0.83326 0.83759 0.0364 0.0
C508 C 0.76778 0.82446 0.07333 0.0
N509 N 0.78109 0.82443 0.03748 0.0
C510 C 0.91855 0.88344 0.14634 0.0
C511 C 0.94649 0.67796 0.1706 0.0
C512 C 0.986 0.75042 0.15991 0.0
C513 C 0.97143 0.85542 0.14847 0.0
C514 C 0.89413 0.70938 0.16808 0.0
N515 N 0.88033 0.80892 0.15401 0.0
H516 H 0.90844 0.96419 0.13688 0.0
H517 H 0.86527 0.6526 0.17778 0.0
H518 H 0.89104 0.85991 0.07965 0.0
H519 H 0.72817 0.81723 0.08339 0.0
O520 O 0.8166 0.01038 0.14274 0.0
O521 O 0.74014 0.92482 0.14344 0.0
O522 O 0.77859 0.70131 0.15288 0.0
C523 C 0.76592 0.01541 0.14009 0.0
H524 H 0.80928 0.79119 0.28731 0.0
H525 H 0.8567 0.84456 1.01177 0.0
H526 H 0.95588 0.59766 0.18116 0.0
H527 H 1.0005 0.91477 0.14018 0.0
loop_
_geom_bond_atom_site_label_1
_geom_bond_atom_site_label_2
_geom_bond_distance
_geom_bond_site_symmetry_2
_ccdc_geom_bond_type
Co0 N4 2.148 . S
Co0 N10 2.128 . S
Co0 N20 2.194 . S
Co0 O25 2.351 1_545 S
Co0 O26 2.155 . S
Co0 O27 2.096 . S
C1 N4 1.301 . S
C1 N5 1.328 . S
C1 H6 0.930 . S
C2 C3 1.333 . S
C2 N4 1.317 . S
C2 H7 0.930 . S
C3 C2 1.333 . S
C3 N5 1.350 . S
C3 H29 0.931 . S
N4 Co0 2.148 . S
N4 C1 1.301 . S
N4 C2 1.317 . S
N5 C1 1.328 . S
N5 C3 1.350 . S
H6 C1 0.930 . S
H7 C2 0.930 . S
C8 O9 1.224 . S
C8 O27 1.247 . S
O9 C8 1.224 . S
N10 Co0 2.128 . S
N10 C11 1.355 . S
N10 C13 1.311 . S
C11 N10 1.355 . S
C11 C12 1.363 . S
C11 H23 0.929 . S
C12 C11 1.363 . S
C12 N14 1.375 . S
C12 H30 0.931 1_554 S
C13 N10 1.311 . S
C13 N14 1.347 . S
C13 H24 0.929 . S
N14 C12 1.375 . S
N14 C13 1.347 . S
C15 C18 1.365 . S
C15 N20 1.328 . S
C15 H21 0.929 . S
C16 C17 1.362 . S
C16 C19 1.378 . S
C16 H31 0.929 . S
C17 C16 1.362 . S
C17 C18 1.366 . S
C18 C15 1.365 . S
C18 C17 1.366 . S
C18 H32 0.930 . S
C19 C16 1.378 . S
C19 N20 1.315 . S
C19 H22 0.930 . S
N20 Co0 2.194 . S
N20 C15 1.328 . S
N20 C19 1.315 . S
H21 C15 0.929 . S
H22 C19 0.930 . S
H23 C11 0.929 . S
H24 C13 0.929 . S
O25 Co0 2.351 1_565 S
O25 C28 1.244 . S
O26 Co0 2.155 . S
O26 C28 1.240 1_545 S
O27 Co0 2.096 . S
O27 C8 1.247 . S
C28 O25 1.244 . S
C28 O26 1.240 1_565 S
H29 C3 0.931 . S
H30 C12 0.931 1_556 S
H31 C16 0.929 . S
H32 C18 0.930 . S
Co33 N37 2.148 . S
Co33 N43 2.128 . S
Co33 N53 2.194 . S
Co33 O58 2.351 . S
Co33 O59 2.155 . S
Co33 O60 2.096 . S
C34 N37 1.301 . S
C34 N38 1.328 . S
C34 H39 0.930 . S
C35 C36 1.333 . S
C35 N37 1.317 . S
C35 H40 0.930 . S
C36 C35 1.333 . S
C36 N38 1.350 . S
C36 H62 0.931 . S
N37 Co33 2.148 . S
N37 C34 1.301 . S
N37 C35 1.317 . S
N38 C34 1.328 . S
N38 C36 1.350 . S
H39 C34 0.930 . S
H40 C35 0.930 . S
C41 O42 1.224 . S
C41 O60 1.247 . S
O42 C41 1.224 . S
N43 Co33 2.128 . S
N43 C44 1.355 . S
N43 C46 1.311 . S
C44 N43 1.355 . S
C44 C45 1.363 . S
C44 H56 0.929 . S
C45 C44 1.363 . S
C45 N47 1.375 . S
C45 H63 0.931 1_554 S
C46 N43 1.311 . S
C46 N47 1.347 . S
C46 H57 0.929 . S
N47 C45 1.375 . S
N47 C46 1.347 . S
C48 C51 1.365 . S
C48 N53 1.328 . S
C48 H54 0.929 . S
C49 C50 1.362 . S
C49 C52 1.378 . S
C49 H64 0.929 . S
C50 C49 1.362 . S
C50 C51 1.366 . S
C51 C48 1.365 . S
C51 C50 1.366 . S
C51 H65 0.930 . S
C52 C49 1.378 . S
C52 N53 1.315 . S
C52 H55 0.930 . S
N53 Co33 2.194 . S
N53 C48 1.328 . S
N53 C52 1.315 . S
H54 C48 0.929 . S
H55 C52 0.930 . S
H56 C44 0.929 . S
H57 C46 0.929 . S
O58 Co33 2.351 . S
O58 C61 1.244 . S
O59 Co33 2.155 . S
O59 C61 1.240 . S
O60 Co33 2.096 . S
O60 C41 1.247 . S
C61 O58 1.244 . S
C61 O59 1.240 . S
H62 C36 0.931 . S
H63 C45 0.931 1_556 S
H64 C49 0.929 . S
H65 C51 0.930 . S
Co66 N70 2.148 . S
Co66 N76 2.128 . S
Co66 N86 2.194 . S
Co66 O91 2.351 1_565 S
Co66 O92 2.155 . S
Co66 O93 2.096 . S
C67 N70 1.301 . S
C67 N71 1.328 . S
C67 H72 0.930 . S
C68 C69 1.333 . S
C68 N70 1.317 . S
C68 H73 0.930 . S
C69 C68 1.333 . S
C69 N71 1.350 . S
C69 H95 0.931 . S
N70 Co66 2.148 . S
N70 C67 1.301 . S
N70 C68 1.317 . S
N71 C67 1.328 . S
N71 C69 1.350 . S
H72 C67 0.930 . S
H73 C68 0.930 . S
C74 O75 1.224 . S
C74 O93 1.247 . S
O75 C74 1.224 . S
N76 Co66 2.128 . S
N76 C77 1.355 . S
N76 C79 1.311 . S
C77 N76 1.355 . S
C77 C78 1.363 . S
C77 H89 0.929 . S
C78 C77 1.363 . S
C78 N80 1.375 . S
C78 H96 0.931 . S
C79 N76 1.311 . S
C79 N80 1.347 . S
C79 H90 0.929 . S
N80 C78 1.375 . S
N80 C79 1.347 . S
C81 C84 1.365 . S
C81 N86 1.328 . S
C81 H87 0.929 . S
C82 C83 1.362 . S
C82 C85 1.378 . S
C82 H97 0.929 . S
C83 C82 1.362 . S
C83 C84 1.366 . S
C84 C81 1.365 . S
C84 C83 1.366 . S
C84 H98 0.930 . S
C85 C82 1.378 . S
C85 N86 1.315 . S
C85 H88 0.930 . S
N86 Co66 2.194 . S
N86 C81 1.328 . S
N86 C85 1.315 . S
H87 C81 0.929 . S
H88 C85 0.930 . S
H89 C77 0.929 . S
H90 C79 0.929 . S
O91 Co66 2.351 1_545 S
O91 C94 1.244 . S
O92 Co66 2.155 . S
O92 C94 1.240 1_565 S
O93 Co66 2.096 . S
O93 C74 1.247 . S
C94 O91 1.244 . S
C94 O92 1.240 1_545 S
H95 C69 0.931 . S
H96 C78 0.931 . S
H97 C82 0.929 . S
H98 C84 0.930 . S
Co99 N103 2.148 . S
Co99 N109 2.128 . S
Co99 N119 2.194 . S
Co99 O124 2.351 . S
Co99 O125 2.155 . S
Co99 O126 2.096 . S
C100 N103 1.301 . S
C100 N104 1.328 . S
C100 H105 0.930 . S
C101 C102 1.333 . S
C101 N103 1.317 . S
C101 H106 0.930 . S
C102 C101 1.333 . S
C102 N104 1.350 . S
C102 H128 0.931 . S
N103 Co99 2.148 . S
N103 C100 1.301 . S
N103 C101 1.317 . S
N104 C100 1.328 . S
N104 C102 1.350 . S
H105 C100 0.930 . S
H106 C101 0.930 . S
C107 O108 1.224 . S
C107 O126 1.247 . S
O108 C107 1.224 . S
N109 Co99 2.128 . S
N109 C110 1.355 . S
N109 C112 1.311 . S
C110 N109 1.355 . S
C110 C111 1.363 . S
C110 H122 0.929 . S
C111 C110 1.363 . S
C111 N113 1.375 . S
C111 H129 0.931 . S
C112 N109 1.311 . S
C112 N113 1.347 . S
C112 H123 0.929 . S
N113 C111 1.375 . S
N113 C112 1.347 . S
C114 C117 1.365 . S
C114 N119 1.328 . S
C114 H120 0.929 . S
C115 C116 1.362 . S
C115 C118 1.378 . S
C115 H130 0.929 . S
C116 C115 1.362 . S
C116 C117 1.366 . S
C117 C114 1.365 . S
C117 C116 1.366 . S
C117 H131 0.930 . S
C118 C115 1.378 . S
C118 N119 1.315 . S
C118 H121 0.930 . S
N119 Co99 2.194 . S
N119 C114 1.328 . S
N119 C118 1.315 . S
H120 C114 0.929 . S
H121 C118 0.930 . S
H122 C110 0.929 . S
H123 C112 0.929 . S
O124 Co99 2.351 . S
O124 C127 1.244 . S
O125 Co99 2.155 . S
O125 C127 1.240 . S
O126 Co99 2.096 . S
O126 C107 1.247 . S
C127 O124 1.244 . S
C127 O125 1.240 . S
H128 C102 0.931 . S
H129 C111 0.931 . S
H130 C115 0.929 . S
H131 C117 0.930 . S
Co132 N136 2.148 . S
Co132 N142 2.128 . S
Co132 N152 2.194 . S
Co132 O157 2.351 1_565 S
Co132 O158 2.155 . S
Co132 O159 2.096 . S
C133 N136 1.301 . S
C133 N137 1.328 . S
C133 H138 0.930 . S
C134 C135 1.333 . S
C134 N136 1.317 . S
C134 H139 0.930 . S
C135 C134 1.333 . S
C135 N137 1.350 . S
C135 H161 0.931 . S
N136 Co132 2.148 . S
N136 C133 1.301 . S
N136 C134 1.317 . S
N137 C133 1.328 . S
N137 C135 1.350 . S
H138 C133 0.930 . S
H139 C134 0.930 . S
C140 O141 1.224 . S
C140 O159 1.247 . S
O141 C140 1.224 . S
N142 Co132 2.128 . S
N142 C143 1.355 . S
N142 C145 1.311 . S
C143 N142 1.355 . S
C143 C144 1.363 . S
C143 H155 0.929 . S
C144 C143 1.363 . S
C144 N146 1.375 . S
C144 H162 0.931 1_556 S
C145 N142 1.311 . S
C145 N146 1.347 . S
C145 H156 0.929 . S
N146 C144 1.375 . S
N146 C145 1.347 . S
C147 C150 1.365 . S
C147 N152 1.328 . S
C147 H153 0.929 . S
C148 C149 1.362 . S
C148 C151 1.378 . S
C148 H163 0.929 . S
C149 C148 1.362 . S
C149 C150 1.366 . S
C150 C147 1.365 . S
C150 C149 1.366 . S
C150 H164 0.930 . S
C151 C148 1.378 . S
C151 N152 1.315 . S
C151 H154 0.930 . S
N152 Co132 2.194 . S
N152 C147 1.328 . S
N152 C151 1.315 . S
H153 C147 0.929 . S
H154 C151 0.930 . S
H155 C143 0.929 . S
H156 C145 0.929 . S
O157 Co132 2.351 1_545 S
O157 C160 1.244 . S
O158 Co132 2.155 . S
O158 C160 1.240 1_565 S
O159 Co132 2.096 . S
O159 C140 1.247 . S
C160 O157 1.244 . S
C160 O158 1.240 1_545 S
H161 C135 0.931 . S
H162 C144 0.931 1_554 S
H163 C148 0.929 . S
H164 C150 0.930 . S
Co165 N169 2.148 . S
Co165 N175 2.128 . S
Co165 N185 2.194 . S
Co165 O190 2.351 . S
Co165 O191 2.155 . S
Co165 O192 2.096 . S
C166 N169 1.301 . S
C166 N170 1.328 . S
C166 H171 0.930 . S
C167 C168 1.333 . S
C167 N169 1.317 . S
C167 H172 0.930 . S
C168 C167 1.333 . S
C168 N170 1.350 . S
C168 H194 0.931 . S
N169 Co165 2.148 . S
N169 C166 1.301 . S
N169 C167 1.317 . S
N170 C166 1.328 . S
N170 C168 1.350 . S
H171 C166 0.930 . S
H172 C167 0.930 . S
C173 O174 1.224 . S
C173 O192 1.247 . S
O174 C173 1.224 . S
N175 Co165 2.128 . S
N175 C176 1.355 . S
N175 C178 1.311 . S
C176 N175 1.355 . S
C176 C177 1.363 . S
C176 H188 0.929 . S
C177 C176 1.363 . S
C177 N179 1.375 . S
C177 H195 0.931 1_556 S
C178 N175 1.311 . S
C178 N179 1.347 . S
C178 H189 0.929 . S
N179 C177 1.375 . S
N179 C178 1.347 . S
C180 C183 1.365 . S
C180 N185 1.328 . S
C180 H186 0.929 . S
C181 C182 1.362 . S
C181 C184 1.378 . S
C181 H196 0.929 . S
C182 C181 1.362 . S
C182 C183 1.366 . S
C183 C180 1.365 . S
C183 C182 1.366 . S
C183 H197 0.930 . S
C184 C181 1.378 . S
C184 N185 1.315 . S
C184 H187 0.930 . S
N185 Co165 2.194 . S
N185 C180 1.328 . S
N185 C184 1.315 . S
H186 C180 0.929 . S
H187 C184 0.930 . S
H188 C176 0.929 . S
H189 C178 0.929 . S
O190 Co165 2.351 . S
O190 C193 1.244 . S
O191 Co165 2.155 . S
O191 C193 1.240 . S
O192 Co165 2.096 . S
O192 C173 1.247 . S
C193 O190 1.244 . S
C193 O191 1.240 . S
H194 C168 0.931 . S
H195 C177 0.931 1_554 S
H196 C181 0.929 . S
H197 C183 0.930 . S
Co198 N202 2.148 . S
Co198 N208 2.128 . S
Co198 N218 2.194 . S
Co198 O223 2.351 1_545 S
Co198 O224 2.155 . S
Co198 O225 2.096 . S
C199 N202 1.301 . S
C199 N203 1.328 . S
C199 H204 0.930 . S
C200 C201 1.333 . S
C200 N202 1.317 . S
C200 H205 0.930 . S
C201 C200 1.333 . S
C201 N203 1.350 . S
C201 H227 0.931 . S
N202 Co198 2.148 . S
N202 C199 1.301 . S
N202 C200 1.317 . S
N203 C199 1.328 . S
N203 C201 1.350 . S
H204 C199 0.930 . S
H205 C200 0.930 . S
C206 O207 1.224 . S
C206 O225 1.247 . S
O207 C206 1.224 . S
N208 Co198 2.128 . S
N208 C209 1.355 . S
N208 C211 1.311 . S
C209 N208 1.355 . S
C209 C210 1.363 . S
C209 H221 0.929 . S
C210 C209 1.363 . S
C210 N212 1.375 . S
C210 H228 0.931 . S
C211 N208 1.311 . S
C211 N212 1.347 . S
C211 H222 0.929 . S
N212 C210 1.375 . S
N212 C211 1.347 . S
C213 C216 1.365 . S
C213 N218 1.328 . S
C213 H219 0.929 . S
C214 C215 1.362 . S
C214 C217 1.378 . S
C214 H229 0.929 . S
C215 C214 1.362 . S
C215 C216 1.366 . S
C216 C213 1.365 . S
C216 C215 1.366 . S
C216 H230 0.930 . S
C217 C214 1.378 . S
C217 N218 1.315 . S
C217 H220 0.930 . S
N218 Co198 2.194 . S
N218 C213 1.328 . S
N218 C217 1.315 . S
H219 C213 0.929 . S
H220 C217 0.930 . S
H221 C209 0.929 . S
H222 C211 0.929 . S
O223 Co198 2.351 1_565 S
O223 C226 1.244 . S
O224 Co198 2.155 . S
O224 C226 1.240 1_545 S
O225 Co198 2.096 . S
O225 C206 1.247 . S
C226 O223 1.244 . S
C226 O224 1.240 1_565 S
H227 C201 0.931 . S
H228 C210 0.931 . S
H229 C214 0.929 . S
H230 C216 0.930 . S
Co231 N235 2.148 . S
Co231 N241 2.128 . S
Co231 N251 2.194 . S
Co231 O256 2.351 . S
Co231 O257 2.155 . S
Co231 O258 2.096 . S
C232 N235 1.301 . S
C232 N236 1.328 . S
C232 H237 0.930 . S
C233 C234 1.333 . S
C233 N235 1.317 . S
C233 H238 0.930 . S
C234 C233 1.333 . S
C234 N236 1.350 . S
C234 H260 0.931 . S
N235 Co231 2.148 . S
N235 C232 1.301 . S
N235 C233 1.317 . S
N236 C232 1.328 . S
N236 C234 1.350 . S
H237 C232 0.930 . S
H238 C233 0.930 . S
C239 O240 1.224 . S
C239 O258 1.247 . S
O240 C239 1.224 . S
N241 Co231 2.128 . S
N241 C242 1.355 . S
N241 C244 1.311 . S
C242 N241 1.355 . S
C242 C243 1.363 . S
C242 H254 0.929 . S
C243 C242 1.363 . S
C243 N245 1.375 . S
C243 H261 0.931 . S
C244 N241 1.311 . S
C244 N245 1.347 . S
C244 H255 0.929 . S
N245 C243 1.375 . S
N245 C244 1.347 . S
C246 C249 1.365 . S
C246 N251 1.328 . S
C246 H252 0.929 . S
C247 C248 1.362 . S
C247 C250 1.378 . S
C247 H262 0.929 . S
C248 C247 1.362 . S
C248 C249 1.366 . S
C249 C246 1.365 . S
C249 C248 1.366 . S
C249 H263 0.930 . S
C250 C247 1.378 . S
C250 N251 1.315 . S
C250 H253 0.930 . S
N251 Co231 2.194 . S
N251 C246 1.328 . S
N251 C250 1.315 . S
H252 C246 0.929 . S
H253 C250 0.930 . S
H254 C242 0.929 . S
H255 C244 0.929 . S
O256 Co231 2.351 . S
O256 C259 1.244 . S
O257 Co231 2.155 . S
O257 C259 1.240 . S
O258 Co231 2.096 . S
O258 C239 1.247 . S
C259 O256 1.244 . S
C259 O257 1.240 . S
H260 C234 0.931 . S
H261 C243 0.931 . S
H262 C247 0.929 . S
H263 C249 0.930 . S
Co264 N268 2.148 . S
Co264 N274 2.128 . S
Co264 N284 2.194 . S
Co264 O289 2.351 . S
Co264 O290 2.155 . S
Co264 O291 2.096 . S
C265 N268 1.301 . S
C265 N269 1.328 . S
C265 H270 0.930 . S
C266 C267 1.333 . S
C266 N268 1.317 . S
C266 H271 0.930 . S
C267 C266 1.333 . S
C267 N269 1.350 . S
C267 H293 0.931 . S
N268 Co264 2.148 . S
N268 C265 1.301 . S
N268 C266 1.317 . S
N269 C265 1.328 . S
N269 C267 1.350 . S
H270 C265 0.930 . S
H271 C266 0.930 . S
C272 O273 1.224 . S
C272 O291 1.247 . S
O273 C272 1.224 . S
N274 Co264 2.128 . S
N274 C275 1.355 . S
N274 C277 1.311 . S
C275 N274 1.355 . S
C275 C276 1.363 . S
C275 H287 0.929 . S
C276 C275 1.363 . S
C276 N278 1.375 . S
C276 H294 0.931 . S
C277 N274 1.311 . S
C277 N278 1.347 . S
C277 H288 0.929 . S
N278 C276 1.375 . S
N278 C277 1.347 . S
C279 C282 1.365 . S
C279 N284 1.328 . S
C279 H285 0.929 . S
C280 C281 1.362 . S
C280 C283 1.378 . S
C280 H295 0.929 . S
C281 C280 1.362 . S
C281 C282 1.366 . S
C282 C279 1.365 . S
C282 C281 1.366 . S
C282 H296 0.930 . S
C283 C280 1.378 . S
C283 N284 1.315 . S
C283 H286 0.930 . S
N284 Co264 2.194 . S
N284 C279 1.328 . S
N284 C283 1.315 . S
H285 C279 0.929 . S
H286 C283 0.930 . S
H287 C275 0.929 . S
H288 C277 0.929 . S
O289 Co264 2.351 . S
O289 C292 1.244 . S
O290 Co264 2.155 . S
O290 C292 1.240 . S
O291 Co264 2.096 . S
O291 C272 1.247 . S
C292 O289 1.244 . S
C292 O290 1.240 . S
H293 C267 0.931 . S
H294 C276 0.931 . S
H295 C280 0.929 . S
H296 C282 0.930 . S
Co297 N301 2.148 . S
Co297 N307 2.128 . S
Co297 N317 2.194 . S
Co297 O322 2.351 1_565 S
Co297 O323 2.155 . S
Co297 O324 2.096 . S
C298 N301 1.301 . S
C298 N302 1.328 . S
C298 H303 0.930 . S
C299 C300 1.333 . S
C299 N301 1.317 . S
C299 H304 0.930 . S
C300 C299 1.333 . S
C300 N302 1.350 . S
C300 H326 0.931 . S
N301 Co297 2.148 . S
N301 C298 1.301 . S
N301 C299 1.317 . S
N302 C298 1.328 . S
N302 C300 1.350 . S
H303 C298 0.930 . S
H304 C299 0.930 . S
C305 O306 1.224 . S
C305 O324 1.247 . S
O306 C305 1.224 . S
N307 Co297 2.128 . S
N307 C308 1.355 . S
N307 C310 1.311 . S
C308 N307 1.355 . S
C308 C309 1.363 . S
C308 H320 0.929 . S
C309 C308 1.363 . S
C309 N311 1.375 . S
C309 H327 0.931 . S
C310 N307 1.311 . S
C310 N311 1.347 . S
C310 H321 0.929 . S
N311 C309 1.375 . S
N311 C310 1.347 . S
C312 C315 1.365 . S
C312 N317 1.328 . S
C312 H318 0.929 . S
C313 C314 1.362 . S
C313 C316 1.378 . S
C313 H328 0.929 . S
C314 C313 1.362 . S
C314 C315 1.366 . S
C315 C312 1.365 . S
C315 C314 1.366 . S
C315 H329 0.930 . S
C316 C313 1.378 . S
C316 N317 1.315 . S
C316 H319 0.930 . S
N317 Co297 2.194 . S
N317 C312 1.328 . S
N317 C316 1.315 . S
H318 C312 0.929 . S
H319 C316 0.930 . S
H320 C308 0.929 . S
H321 C310 0.929 . S
O322 Co297 2.351 1_545 S
O322 C325 1.244 . S
O323 Co297 2.155 . S
O323 C325 1.240 1_565 S
O324 Co297 2.096 . S
O324 C305 1.247 . S
C325 O322 1.244 . S
C325 O323 1.240 1_545 S
H326 C300 0.931 . S
H327 C309 0.931 . S
H328 C313 0.929 . S
H329 C315 0.930 . S
Co330 N334 2.148 . S
Co330 N340 2.128 . S
Co330 N350 2.194 . S
Co330 O355 2.351 . S
Co330 O356 2.155 . S
Co330 O357 2.096 . S
C331 N334 1.301 . S
C331 N335 1.328 . S
C331 H336 0.930 . S
C332 C333 1.333 . S
C332 N334 1.317 . S
C332 H337 0.930 . S
C333 C332 1.333 . S
C333 N335 1.350 . S
C333 H359 0.931 . S
N334 Co330 2.148 . S
N334 C331 1.301 . S
N334 C332 1.317 . S
N335 C331 1.328 . S
N335 C333 1.350 . S
H336 C331 0.930 . S
H337 C332 0.930 . S
C338 O339 1.224 . S
C338 O357 1.247 . S
O339 C338 1.224 . S
N340 Co330 2.128 . S
N340 C341 1.355 . S
N340 C343 1.311 . S
C341 N340 1.355 . S
C341 C342 1.363 . S
C341 H353 0.929 . S
C342 C341 1.363 . S
C342 N344 1.375 . S
C342 H360 0.931 1_556 S
C343 N340 1.311 . S
C343 N344 1.347 . S
C343 H354 0.929 . S
N344 C342 1.375 . S
N344 C343 1.347 . S
C345 C348 1.365 . S
C345 N350 1.328 . S
C345 H351 0.929 . S
C346 C347 1.362 . S
C346 C349 1.378 . S
C346 H361 0.929 . S
C347 C346 1.362 . S
C347 C348 1.366 . S
C348 C345 1.365 . S
C348 C347 1.366 . S
C348 H362 0.930 . S
C349 C346 1.378 . S
C349 N350 1.315 . S
C349 H352 0.930 . S
N350 Co330 2.194 . S
N350 C345 1.328 . S
N350 C349 1.315 . S
H351 C345 0.929 . S
H352 C349 0.930 . S
H353 C341 0.929 . S
H354 C343 0.929 . S
O355 Co330 2.351 . S
O355 C358 1.244 . S
O356 Co330 2.155 . S
O356 C358 1.240 . S
O357 Co330 2.096 . S
O357 C338 1.247 . S
C358 O355 1.244 . S
C358 O356 1.240 . S
H359 C333 0.931 . S
H360 C342 0.931 1_554 S
H361 C346 0.929 . S
H362 C348 0.930 . S
Co363 N367 2.148 . S
Co363 N373 2.128 . S
Co363 N383 2.194 . S
Co363 O388 2.351 1_545 S
Co363 O389 2.155 . S
Co363 O390 2.096 . S
C364 N367 1.301 . S
C364 N368 1.328 . S
C364 H369 0.930 . S
C365 C366 1.333 . S
C365 N367 1.317 . S
C365 H370 0.930 . S
C366 C365 1.333 . S
C366 N368 1.350 . S
C366 H392 0.931 . S
N367 Co363 2.148 . S
N367 C364 1.301 . S
N367 C365 1.317 . S
N368 C364 1.328 . S
N368 C366 1.350 . S
H369 C364 0.930 . S
H370 C365 0.930 . S
C371 O372 1.224 . S
C371 O390 1.247 . S
O372 C371 1.224 . S
N373 Co363 2.128 . S
N373 C374 1.355 . S
N373 C376 1.311 . S
C374 N373 1.355 . S
C374 C375 1.363 . S
C374 H386 0.929 . S
C375 C374 1.363 . S
C375 N377 1.375 . S
C375 H393 0.931 1_556 S
C376 N373 1.311 . S
C376 N377 1.347 . S
C376 H387 0.929 . S
N377 C375 1.375 . S
N377 C376 1.347 . S
C378 C381 1.365 . S
C378 N383 1.328 . S
C378 H384 0.929 . S
C379 C380 1.362 . S
C379 C382 1.378 . S
C379 H394 0.929 . S
C380 C379 1.362 . S
C380 C381 1.366 . S
C381 C378 1.365 . S
C381 C380 1.366 . S
C381 H395 0.930 . S
C382 C379 1.378 . S
C382 N383 1.315 . S
C382 H385 0.930 . S
N383 Co363 2.194 . S
N383 C378 1.328 . S
N383 C382 1.315 . S
H384 C378 0.929 . S
H385 C382 0.930 . S
H386 C374 0.929 . S
H387 C376 0.929 . S
O388 Co363 2.351 1_565 S
O388 C391 1.244 . S
O389 Co363 2.155 . S
O389 C391 1.240 1_545 S
O390 Co363 2.096 . S
O390 C371 1.247 . S
C391 O388 1.244 . S
C391 O389 1.240 1_565 S
H392 C366 0.931 . S
H393 C375 0.931 1_554 S
H394 C379 0.929 . S
H395 C381 0.930 . S
Co396 N400 2.148 . S
Co396 N406 2.128 . S
Co396 N416 2.194 . S
Co396 O421 2.351 . S
Co396 O422 2.155 . S
Co396 O423 2.096 . S
C397 N400 1.301 . S
C397 N401 1.328 . S
C397 H402 0.930 . S
C398 C399 1.333 . S
C398 N400 1.317 . S
C398 H403 0.930 . S
C399 C398 1.333 . S
C399 N401 1.350 . S
C399 H425 0.931 . S
N400 Co396 2.148 . S
N400 C397 1.301 . S
N400 C398 1.317 . S
N401 C397 1.328 . S
N401 C399 1.350 . S
H402 C397 0.930 . S
H403 C398 0.930 . S
C404 O405 1.224 . S
C404 O423 1.247 . S
O405 C404 1.224 . S
N406 Co396 2.128 . S
N406 C407 1.355 . S
N406 C409 1.311 . S
C407 N406 1.355 . S
C407 C408 1.363 . S
C407 H419 0.929 . S
C408 C407 1.363 . S
C408 N410 1.375 . S
C408 H426 0.931 . S
C409 N406 1.311 . S
C409 N410 1.347 . S
C409 H420 0.929 . S
N410 C408 1.375 . S
N410 C409 1.347 . S
C411 C414 1.365 . S
C411 N416 1.328 . S
C411 H417 0.929 . S
C412 C413 1.362 . S
C412 C415 1.378 . S
C412 H427 0.929 . S
C413 C412 1.362 . S
C413 C414 1.366 . S
C414 C411 1.365 . S
C414 C413 1.366 . S
C414 H428 0.930 . S
C415 C412 1.378 . S
C415 N416 1.315 . S
C415 H418 0.930 . S
N416 Co396 2.194 . S
N416 C411 1.328 . S
N416 C415 1.315 . S
H417 C411 0.929 . S
H418 C415 0.930 . S
H419 C407 0.929 . S
H420 C409 0.929 . S
O421 Co396 2.351 . S
O421 C424 1.244 . S
O422 Co396 2.155 . S
O422 C424 1.240 . S
O423 Co396 2.096 . S
O423 C404 1.247 . S
C424 O421 1.244 . S
C424 O422 1.240 . S
H425 C399 0.931 . S
H426 C408 0.931 . S
H427 C412 0.929 . S
H428 C414 0.930 . S
Co429 N433 2.148 . S
Co429 N439 2.128 . S
Co429 N449 2.194 . S
Co429 O454 2.351 1_545 S
Co429 O455 2.155 . S
Co429 O456 2.096 . S
C430 N433 1.301 . S
C430 N434 1.328 . S
C430 H435 0.930 . S
C431 C432 1.333 . S
C431 N433 1.317 . S
C431 H436 0.930 . S
C432 C431 1.333 . S
C432 N434 1.350 . S
C432 H458 0.931 . S
N433 Co429 2.148 . S
N433 C430 1.301 . S
N433 C431 1.317 . S
N434 C430 1.328 . S
N434 C432 1.350 . S
H435 C430 0.930 . S
H436 C431 0.930 . S
C437 O438 1.224 . S
C437 O456 1.247 . S
O438 C437 1.224 . S
N439 Co429 2.128 . S
N439 C440 1.355 . S
N439 C442 1.311 . S
C440 N439 1.355 . S
C440 C441 1.363 . S
C440 H452 0.929 . S
C441 C440 1.363 . S
C441 N443 1.375 . S
C441 H459 0.931 . S
C442 N439 1.311 . S
C442 N443 1.347 . S
C442 H453 0.929 . S
N443 C441 1.375 . S
N443 C442 1.347 . S
C444 C447 1.365 . S
C444 N449 1.328 . S
C444 H450 0.929 . S
C445 C446 1.362 . S
C445 C448 1.378 . S
C445 H460 0.929 . S
C446 C445 1.362 . S
C446 C447 1.366 . S
C447 C444 1.365 . S
C447 C446 1.366 . S
C447 H461 0.930 . S
C448 C445 1.378 . S
C448 N449 1.315 . S
C448 H451 0.930 . S
N449 Co429 2.194 . S
N449 C444 1.328 . S
N449 C448 1.315 . S
H450 C444 0.929 . S
H451 C448 0.930 . S
H452 C440 0.929 . S
H453 C442 0.929 . S
O454 Co429 2.351 1_565 S
O454 C457 1.244 . S
O455 Co429 2.155 . S
O455 C457 1.240 1_545 S
O456 Co429 2.096 . S
O456 C437 1.247 . S
C457 O454 1.244 . S
C457 O455 1.240 1_565 S
H458 C432 0.931 . S
H459 C441 0.931 . S
H460 C445 0.929 . S
H461 C447 0.930 . S
Co462 N466 2.148 . S
Co462 N472 2.128 . S
Co462 N482 2.194 . S
Co462 O487 2.351 . S
Co462 O488 2.155 . S
Co462 O489 2.096 . S
C463 N466 1.301 . S
C463 N467 1.328 . S
C463 H468 0.930 . S
C464 C465 1.333 . S
C464 N466 1.317 . S
C464 H469 0.930 . S
C465 C464 1.333 . S
C465 N467 1.350 . S
C465 H491 0.931 . S
N466 Co462 2.148 . S
N466 C463 1.301 . S
N466 C464 1.317 . S
N467 C463 1.328 . S
N467 C465 1.350 . S
H468 C463 0.930 . S
H469 C464 0.930 . S
C470 O471 1.224 . S
C470 O489 1.247 . S
O471 C470 1.224 . S
N472 Co462 2.128 . S
N472 C473 1.355 . S
N472 C475 1.311 . S
C473 N472 1.355 . S
C473 C474 1.363 . S
C473 H485 0.929 . S
C474 C473 1.363 . S
C474 N476 1.375 . S
C474 H492 0.931 1_554 S
C475 N472 1.311 . S
C475 N476 1.347 . S
C475 H486 0.929 . S
N476 C474 1.375 . S
N476 C475 1.347 . S
C477 C480 1.365 . S
C477 N482 1.328 . S
C477 H483 0.929 . S
C478 C479 1.362 . S
C478 C481 1.378 . S
C478 H493 0.929 . S
C479 C478 1.362 . S
C479 C480 1.366 . S
C480 C477 1.365 . S
C480 C479 1.366 . S
C480 H494 0.930 . S
C481 C478 1.378 . S
C481 N482 1.315 . S
C481 H484 0.930 . S
N482 Co462 2.194 . S
N482 C477 1.328 . S
N482 C481 1.315 . S
H483 C477 0.929 . S
H484 C481 0.930 . S
H485 C473 0.929 . S
H486 C475 0.929 . S
O487 Co462 2.351 . S
O487 C490 1.244 . S
O488 Co462 2.155 . S
O488 C490 1.240 . S
O489 Co462 2.096 . S
O489 C470 1.247 . S
C490 O487 1.244 . S
C490 O488 1.240 . S
H491 C465 0.931 . S
H492 C474 0.931 1_556 S
H493 C478 0.929 . S
H494 C480 0.930 . S
Co495 N499 2.148 . S
Co495 N505 2.128 . S
Co495 N515 2.194 . S
Co495 O520 2.351 1_565 S
Co495 O521 2.155 . S
Co495 O522 2.096 . S
C496 N499 1.301 . S
C496 N500 1.328 . S
C496 H501 0.930 . S
C497 C498 1.333 . S
C497 N499 1.317 . S
C497 H502 0.930 . S
C498 C497 1.333 . S
C498 N500 1.350 . S
C498 H524 0.931 . S
N499 Co495 2.148 . S
N499 C496 1.301 . S
N499 C497 1.317 . S
N500 C496 1.328 . S
N500 C498 1.350 . S
H501 C496 0.930 . S
H502 C497 0.930 . S
C503 O504 1.224 . S
C503 O522 1.247 . S
O504 C503 1.224 . S
N505 Co495 2.128 . S
N505 C506 1.355 . S
N505 C508 1.311 . S
C506 N505 1.355 . S
C506 C507 1.363 . S
C506 H518 0.929 . S
C507 C506 1.363 . S
C507 N509 1.375 . S
C507 H525 0.931 1_554 S
C508 N505 1.311 . S
C508 N509 1.347 . S
C508 H519 0.929 . S
N509 C507 1.375 . S
N509 C508 1.347 . S
C510 C513 1.365 . S
C510 N515 1.328 . S
C510 H516 0.929 . S
C511 C512 1.362 . S
C511 C514 1.378 . S
C511 H526 0.929 . S
C512 C511 1.362 . S
C512 C513 1.366 . S
C513 C510 1.365 . S
C513 C512 1.366 . S
C513 H527 0.930 . S
C514 C511 1.378 . S
C514 N515 1.315 . S
C514 H517 0.930 . S
N515 Co495 2.194 . S
N515 C510 1.328 . S
N515 C514 1.315 . S
H516 C510 0.929 . S
H517 C514 0.930 . S
H518 C506 0.929 . S
H519 C508 0.929 . S
O520 Co495 2.351 1_545 S
O520 C523 1.244 . S
O521 Co495 2.155 . S
O521 C523 1.240 1_565 S
O522 Co495 2.096 . S
O522 C503 1.247 . S
C523 O520 1.244 . S
C523 O521 1.240 1_545 S
H524 C498 0.931 . S
H525 C507 0.931 1_556 S
H526 C511 0.929 . S
H527 C513 0.930 . S
C28 C470 0.892 . S
C61 C503 0.892 . S
C94 C404 0.892 . S
C437 C127 0.892 . S
C160 C338 0.892 . S
C193 C371 0.892 . S
C226 C272 0.892 . S
C305 C259 0.892 . S
C292 C206 0.892 . S
C239 C325 0.892 . S
C358 C140 0.892 . S
C391 C173 0.892 . S
C424 C74 0.892 . S
C457 C107 0.892 . S
C8 C490 0.892 . S
C41 C523 0.892 . S
N14 N377 2.014 1_554 S
N344 N47 2.014 1_556 S
N80 N311 2.014 . S
N278 N113 2.014 . S
N146 N509 2.014 1_556 S
N476 N179 2.014 1_554 S
N212 N443 2.014 . S
N245 N410 2.014 . S
N5 N71 2.583 1_545 S
N38 N104 2.583 . S
N137 N203 2.583 1_565 S
N236 N170 2.583 . S
N335 N269 2.583 . S
N368 N302 2.583 1_545 S
N401 N467 2.583 . S
N434 N500 2.583 1_545 S
C50 C17 1.842 . S
C83 C116 1.842 . S
C149 C182 1.842 . S
C248 C215 1.842 . S
C281 C314 1.842 1_655 S
C380 C347 1.842 1_455 S
C413 C446 1.842 1_455 S
C512 C479 1.842 1_655 S
