# Generated by pormake.
# Topology dei, (4)-cn, num edge types: 1
# Building blocks:
#     Node 0, Type 0, BuildingBlock: CEKHIL_clean_sbu_0, # of connection points: 4
#     Node 1, Type 0, BuildingBlock: CEKHIL_clean_sbu_0, # of connection points: 4
#     Node 2, Type 0, BuildingBlock: CEKHIL_clean_sbu_0, # of connection points: 4
#     Node 3, Type 0, BuildingBlock: CEKHIL_clean_sbu_0, # of connection points: 4
#     Node 4, Type 0, BuildingBlock: CEKHIL_clean_sbu_0, # of connection points: 4
#     Node 5, Type 0, BuildingBlock: CEKHIL_clean_sbu_0, # of connection points: 4
#     Node 6, Type 0, BuildingBlock: CEKHIL_clean_sbu_0, # of connection points: 4
#     Node 7, Type 0, BuildingBlock: CEKHIL_clean_sbu_0, # of connection points: 4
#     Node 8, Type 0, BuildingBlock: CEKHIL_clean_sbu_0, # of connection points: 4
#     Node 9, Type 0, BuildingBlock: CEKHIL_clean_sbu_0, # of connection points: 4
#     Node 10, Type 0, BuildingBlock: CEKHIL_clean_sbu_0, # of connection points: 4
#     Node 11, Type 0, BuildingBlock: CEKHIL_clean_sbu_0, # of connection points: 4
#     Node 12, Type 0, BuildingBlock: CEKHIL_clean_sbu_0, # of connection points: 4
#     Node 13, Type 0, BuildingBlock: CEKHIL_clean_sbu_0, # of connection points: 4
#     Node 14, Type 0, BuildingBlock: CEKHIL_clean_sbu_0, # of connection points: 4
#     Node 15, Type 0, BuildingBlock: CEKHIL_clean_sbu_0, # of connection points: 4
#     Node 16, Type 0, BuildingBlock: CEKHIL_clean_sbu_0, # of connection points: 4
#     Node 17, Type 0, BuildingBlock: CEKHIL_clean_sbu_0, # of connection points: 4
#     Node 18, Type 0, BuildingBlock: CEKHIL_clean_sbu_0, # of connection points: 4
#     Node 19, Type 0, BuildingBlock: CEKHIL_clean_sbu_0, # of connection points: 4
#     Node 20, Type 0, BuildingBlock: CEKHIL_clean_sbu_0, # of connection points: 4
#     Node 21, Type 0, BuildingBlock: CEKHIL_clean_sbu_0, # of connection points: 4
#     Node 22, Type 0, BuildingBlock: CEKHIL_clean_sbu_0, # of connection points: 4
#     Node 23, Type 0, BuildingBlock: CEKHIL_clean_sbu_0, # of connection points: 4
#     Node 24, Type 0, BuildingBlock: CEKHIL_clean_sbu_0, # of connection points: 4
#     Node 25, Type 0, BuildingBlock: CEKHIL_clean_sbu_0, # of connection points: 4
#     Node 26, Type 0, BuildingBlock: CEKHIL_clean_sbu_0, # of connection points: 4
#     Node 27, Type 0, BuildingBlock: CEKHIL_clean_sbu_0, # of connection points: 4
#     Node 28, Type 0, BuildingBlock: CEKHIL_clean_sbu_0, # of connection points: 4
#     Node 29, Type 0, BuildingBlock: CEKHIL_clean_sbu_0, # of connection points: 4
#     Node 30, Type 0, BuildingBlock: CEKHIL_clean_sbu_0, # of connection points: 4
#     Node 31, Type 0, BuildingBlock: CEKHIL_clean_sbu_0, # of connection points: 4
#     Edge 32, Type (0, 0), BuildingBlock: AJUNOK_clean_linker_0, # of connection points: 2
#     Edge 33, Type (0, 0), BuildingBlock: AJUNOK_clean_linker_0, # of connection points: 2
#     Edge 34, Type (0, 0), BuildingBlock: AJUNOK_clean_linker_0, # of connection points: 2
#     Edge 35, Type (0, 0), BuildingBlock: AJUNOK_clean_linker_0, # of connection points: 2
#     Edge 36, Type (0, 0), BuildingBlock: AJUNOK_clean_linker_0, # of connection points: 2
#     Edge 37, Type (0, 0), BuildingBlock: AJUNOK_clean_linker_0, # of connection points: 2
#     Edge 38, Type (0, 0), BuildingBlock: AJUNOK_clean_linker_0, # of connection points: 2
#     Edge 39, Type (0, 0), BuildingBlock: AJUNOK_clean_linker_0, # of connection points: 2
#     Edge 40, Type (0, 0), BuildingBlock: AJUNOK_clean_linker_0, # of connection points: 2
#     Edge 41, Type (0, 0), BuildingBlock: AJUNOK_clean_linker_0, # of connection points: 2
#     Edge 42, Type (0, 0), BuildingBlock: AJUNOK_clean_linker_0, # of connection points: 2
#     Edge 43, Type (0, 0), BuildingBlock: AJUNOK_clean_linker_0, # of connection points: 2
#     Edge 44, Type (0, 0), BuildingBlock: AJUNOK_clean_linker_0, # of connection points: 2
#     Edge 45, Type (0, 0), BuildingBlock: AJUNOK_clean_linker_0, # of connection points: 2
#     Edge 46, Type (0, 0), BuildingBlock: AJUNOK_clean_linker_0, # of connection points: 2
#     Edge 47, Type (0, 0), BuildingBlock: AJUNOK_clean_linker_0, # of connection points: 2
#     Edge 48, Type (0, 0), BuildingBlock: AJUNOK_clean_linker_0, # of connection points: 2
#     Edge 49, Type (0, 0), BuildingBlock: AJUNOK_clean_linker_0, # of connection points: 2
#     Edge 50, Type (0, 0), BuildingBlock: AJUNOK_clean_linker_0, # of connection points: 2
#     Edge 51, Type (0, 0), BuildingBlock: AJUNOK_clean_linker_0, # of connection points: 2
#     Edge 52, Type (0, 0), BuildingBlock: AJUNOK_clean_linker_0, # of connection points: 2
#     Edge 53, Type (0, 0), BuildingBlock: AJUNOK_clean_linker_0, # of connection points: 2
#     Edge 54, Type (0, 0), BuildingBlock: AJUNOK_clean_linker_0, # of connection points: 2
#     Edge 55, Type (0, 0), BuildingBlock: AJUNOK_clean_linker_0, # of connection points: 2
#     Edge 56, Type (0, 0), BuildingBlock: AJUNOK_clean_linker_0, # of connection points: 2
#     Edge 57, Type (0, 0), BuildingBlock: AJUNOK_clean_linker_0, # of connection points: 2
#     Edge 58, Type (0, 0), BuildingBlock: AJUNOK_clean_linker_0, # of connection points: 2
#     Edge 59, Type (0, 0), BuildingBlock: AJUNOK_clean_linker_0, # of connection points: 2
#     Edge 60, Type (0, 0), BuildingBlock: AJUNOK_clean_linker_0, # of connection points: 2
#     Edge 61, Type (0, 0), BuildingBlock: AJUNOK_clean_linker_0, # of connection points: 2
#     Edge 62, Type (0, 0), BuildingBlock: AJUNOK_clean_linker_0, # of connection points: 2
#     Edge 63, Type (0, 0), BuildingBlock: AJUNOK_clean_linker_0, # of connection points: 2
#     Edge 64, Type (0, 0), BuildingBlock: AJUNOK_clean_linker_0, # of connection points: 2
#     Edge 65, Type (0, 0), BuildingBlock: AJUNOK_clean_linker_0, # of connection points: 2
#     Edge 66, Type (0, 0), BuildingBlock: AJUNOK_clean_linker_0, # of connection points: 2
#     Edge 67, Type (0, 0), BuildingBlock: AJUNOK_clean_linker_0, # of connection points: 2
#     Edge 68, Type (0, 0), BuildingBlock: AJUNOK_clean_linker_0, # of connection points: 2
#     Edge 69, Type (0, 0), BuildingBlock: AJUNOK_clean_linker_0, # of connection points: 2
#     Edge 70, Type (0, 0), BuildingBlock: AJUNOK_clean_linker_0, # of connection points: 2
#     Edge 71, Type (0, 0), BuildingBlock: AJUNOK_clean_linker_0, # of connection points: 2
#     Edge 72, Type (0, 0), BuildingBlock: AJUNOK_clean_linker_0, # of connection points: 2
#     Edge 73, Type (0, 0), BuildingBlock: AJUNOK_clean_linker_0, # of connection points: 2
#     Edge 74, Type (0, 0), BuildingBlock: AJUNOK_clean_linker_0, # of connection points: 2
#     Edge 75, Type (0, 0), BuildingBlock: AJUNOK_clean_linker_0, # of connection points: 2
#     Edge 76, Type (0, 0), BuildingBlock: AJUNOK_clean_linker_0, # of connection points: 2
#     Edge 77, Type (0, 0), BuildingBlock: AJUNOK_clean_linker_0, # of connection points: 2
#     Edge 78, Type (0, 0), BuildingBlock: AJUNOK_clean_linker_0, # of connection points: 2
#     Edge 79, Type (0, 0), BuildingBlock: AJUNOK_clean_linker_0, # of connection points: 2
#     Edge 80, Type (0, 0), BuildingBlock: AJUNOK_clean_linker_0, # of connection points: 2
#     Edge 81, Type (0, 0), BuildingBlock: AJUNOK_clean_linker_0, # of connection points: 2
#     Edge 82, Type (0, 0), BuildingBlock: AJUNOK_clean_linker_0, # of connection points: 2
#     Edge 83, Type (0, 0), BuildingBlock: AJUNOK_clean_linker_0, # of connection points: 2
#     Edge 84, Type (0, 0), BuildingBlock: AJUNOK_clean_linker_0, # of connection points: 2
#     Edge 85, Type (0, 0), BuildingBlock: AJUNOK_clean_linker_0, # of connection points: 2
#     Edge 86, Type (0, 0), BuildingBlock: AJUNOK_clean_linker_0, # of connection points: 2
#     Edge 87, Type (0, 0), BuildingBlock: AJUNOK_clean_linker_0, # of connection points: 2
#     Edge 88, Type (0, 0), BuildingBlock: AJUNOK_clean_linker_0, # of connection points: 2
#     Edge 89, Type (0, 0), BuildingBlock: AJUNOK_clean_linker_0, # of connection points: 2
#     Edge 90, Type (0, 0), BuildingBlock: AJUNOK_clean_linker_0, # of connection points: 2
#     Edge 91, Type (0, 0), BuildingBlock: AJUNOK_clean_linker_0, # of connection points: 2
#     Edge 92, Type (0, 0), BuildingBlock: AJUNOK_clean_linker_0, # of connection points: 2
#     Edge 93, Type (0, 0), BuildingBlock: AJUNOK_clean_linker_0, # of connection points: 2
#     Edge 94, Type (0, 0), BuildingBlock: AJUNOK_clean_linker_0, # of connection points: 2
#     Edge 95, Type (0, 0), BuildingBlock: AJUNOK_clean_linker_0, # of connection points: 2
# Relax obj value: 0.239
# Max RMSD: 0.067
# Mean RMSD: 0.067
data_MOF--net-dei--node1-CEKHIL_clean_sbu_0--edge1-AJUNOK_clean_linker_0
_symmetry_space_group_name_H-M    P1
_symmetry_Int_Tables_number       1
_symmetry_cell_setting            triclinic
loop_
_symmetry_equiv_pos_as_xyz
'x, y, z'
_cell_length_a     42.745594
_cell_length_b     42.739051
_cell_length_c     54.9647
_cell_angle_alpha  89.998204
_cell_angle_beta   89.998564
_cell_angle_gamma 89.997345
loop_
_atom_site_label
_atom_site_type_symbol
_atom_site_fract_x
_atom_site_fract_y
_atom_site_fract_z
_atom_type_partial_charge
Co0 Co 0.12973 0.6218 0.02817 0.0
O1 O 0.12189 0.57746 0.03134 0.0
O2 O 0.15313 0.59768 0.00369 0.0
C3 C 0.13617 0.62816 0.06876 0.0
O4 O 0.14374 0.6679 0.02086 0.0
Co5 Co 0.08548 0.6691 0.05427 0.0
O6 O 0.11929 0.69915 0.04802 0.0
C7 C 0.06579 0.63849 0.00841 0.0
C8 C 0.14077 0.57269 0.0134 0.0
C9 C 0.13943 0.69491 0.03133 0.0
O10 O 0.09273 0.62565 0.00536 0.0
O11 O 0.05827 0.65454 0.02716 0.0
O12 O 0.15949 0.619 0.05536 0.0
O13 O 0.11002 0.63165 0.05751 0.0
Co14 Co 0.64598 0.88249 0.27856 0.0
O15 O 0.6903 0.87456 0.28123 0.0
O16 O 0.66957 0.90473 0.25308 0.0
C17 C 0.64146 0.89064 0.31902 0.0
O18 O 0.59971 0.89618 0.27166 0.0
Co19 Co 0.59897 0.84043 0.30726 0.0
O20 O 0.56994 0.87538 0.30147 0.0
C21 C 0.62769 0.81815 0.26101 0.0
C22 C 0.69472 0.89288 0.26291 0.0
C23 C 0.57335 0.89365 0.2834 0.0
O24 O 0.64118 0.84454 0.25699 0.0
O25 O 0.61186 0.81197 0.28021 0.0
O26 O 0.64982 0.91344 0.3048 0.0
O27 O 0.63707 0.86412 0.30855 0.0
Co28 Co 0.38313 0.39549 0.53007 0.0
O29 O 0.39058 0.43984 0.53323 0.0
O30 O 0.36113 0.41923 0.50457 0.0
C31 C 0.37427 0.3902 0.57039 0.0
O32 O 0.37002 0.34919 0.52261 0.0
Co33 Co 0.42545 0.34863 0.55867 0.0
O34 O 0.39126 0.31901 0.55201 0.0
C35 C 0.44798 0.37824 0.51289 0.0
C36 C 0.3726 0.44436 0.51472 0.0
C37 C 0.37297 0.32259 0.53397 0.0
O38 O 0.42146 0.39143 0.50882 0.0
O39 O 0.45418 0.36224 0.53199 0.0
O40 O 0.35167 0.3986 0.55599 0.0
O41 O 0.40105 0.38631 0.56019 0.0
Co42 Co 0.87151 0.13618 0.778 0.0
O43 O 0.82714 0.14368 0.78125 0.0
O44 O 0.84744 0.1122 0.75382 0.0
C45 C 0.87796 0.1304 0.81866 0.0
O46 O 0.91774 0.12253 0.77066 0.0
Co47 Co 0.91852 0.18113 0.80341 0.0
O48 O 0.94872 0.14727 0.79782 0.0
C49 C 0.8876 0.19988 0.7574 0.0
C50 C 0.82241 0.12452 0.76349 0.0
C51 C 0.9447 0.12702 0.78117 0.0
O52 O 0.87482 0.17284 0.75482 0.0
O53 O 0.90388 0.20781 0.77593 0.0
O54 O 0.86918 0.10679 0.80542 0.0
O55 O 0.88121 0.15643 0.80718 0.0
Co56 Co 0.12851 0.39416 0.96629 0.0
O57 O 0.12087 0.43851 0.96311 0.0
O58 O 0.15263 0.41824 0.9904 0.0
C59 C 0.13402 0.38784 0.92561 0.0
O60 O 0.14245 0.34798 0.97344 0.0
Co61 Co 0.08358 0.34702 0.94093 0.0
O62 O 0.11769 0.31701 0.94628 0.0
C63 C 0.06495 0.37786 0.98698 0.0
C64 C 0.14031 0.44324 0.98068 0.0
C65 C 0.13806 0.32108 0.96282 0.0
O66 O 0.09199 0.39064 0.98959 0.0
O67 O 0.05699 0.36166 0.96842 0.0
O68 O 0.15769 0.3967 0.93874 0.0
O69 O 0.10809 0.38444 0.93719 0.0
Co70 Co 0.87296 0.88182 0.21453 0.0
O71 O 0.82858 0.87448 0.21107 0.0
O72 O 0.84888 0.90503 0.23913 0.0
C73 C 0.87982 0.88888 0.17406 0.0
O74 O 0.91918 0.89518 0.2222 0.0
Co75 Co 0.91973 0.83706 0.18832 0.0
O76 O 0.95057 0.86982 0.19561 0.0
C77 C 0.88792 0.81712 0.2336 0.0
C78 C 0.82386 0.89301 0.22923 0.0
C79 C 0.94635 0.89016 0.21217 0.0
O80 O 0.87609 0.84444 0.23701 0.0
O81 O 0.9038 0.8095 0.21478 0.0
O82 O 0.87076 0.91207 0.18762 0.0
O83 O 0.88286 0.86249 0.18505 0.0
Co84 Co 0.38326 0.62196 0.46467 0.0
O85 O 0.39077 0.57756 0.4619 0.0
O86 O 0.36117 0.59853 0.49029 0.0
C87 C 0.3746 0.62681 0.42429 0.0
O88 O 0.37007 0.66835 0.47175 0.0
Co89 Co 0.42573 0.66848 0.43586 0.0
O90 O 0.39157 0.69823 0.44228 0.0
C91 C 0.44812 0.63914 0.48178 0.0
C92 C 0.37286 0.57327 0.48048 0.0
C93 C 0.37314 0.69483 0.46025 0.0
O94 O 0.42148 0.62628 0.486 0.0
O95 O 0.45443 0.65483 0.46255 0.0
O96 O 0.35193 0.61854 0.43867 0.0
O97 O 0.40132 0.63081 0.43456 0.0
Co98 Co 0.64429 0.13424 0.7149 0.0
O99 O 0.68856 0.14246 0.7123 0.0
O100 O 0.66797 0.112 0.74033 0.0
C101 C 0.64003 0.12624 0.67442 0.0
O102 O 0.59811 0.12026 0.72173 0.0
Co103 Co 0.59689 0.17581 0.68616 0.0
O104 O 0.56838 0.14036 0.69163 0.0
C105 C 0.6246 0.19799 0.73285 0.0
C106 C 0.69307 0.12401 0.73053 0.0
C107 C 0.57181 0.12239 0.70987 0.0
O108 O 0.63906 0.17204 0.73656 0.0
O109 O 0.60853 0.20397 0.71374 0.0
O110 O 0.64847 0.10343 0.6886 0.0
O111 O 0.63535 0.15269 0.68494 0.0
Co112 Co 0.88432 0.3947 0.96541 0.0
O113 O 0.89165 0.43901 0.96171 0.0
O114 O 0.86058 0.41901 0.98958 0.0
C115 C 0.87788 0.38765 0.9249 0.0
O116 O 0.8709 0.34861 0.97322 0.0
Co117 Co 0.92908 0.34753 0.93992 0.0
O118 O 0.89515 0.31748 0.94591 0.0
C119 C 0.94813 0.37857 0.98582 0.0
C120 C 0.87254 0.44392 0.97946 0.0
C121 C 0.8752 0.3216 0.96275 0.0
O122 O 0.92124 0.39167 0.98835 0.0
O123 O 0.95589 0.36204 0.96737 0.0
O124 O 0.85451 0.39664 0.93829 0.0
O125 O 0.90415 0.38465 0.9361 0.0
Co126 Co 0.37191 0.13566 0.71454 0.0
O127 O 0.32758 0.1436 0.71141 0.0
O128 O 0.34771 0.11179 0.7387 0.0
C129 C 0.37806 0.13007 0.67384 0.0
O130 O 0.41795 0.12145 0.72184 0.0
Co131 Co 0.41973 0.17965 0.68909 0.0
O132 O 0.44902 0.14485 0.69408 0.0
C133 C 0.38937 0.19889 0.73525 0.0
C134 C 0.32275 0.12435 0.7291 0.0
C135 C 0.44482 0.12505 0.71101 0.0
O136 O 0.37574 0.17224 0.73774 0.0
O137 O 0.40598 0.20639 0.71679 0.0
O138 O 0.36915 0.10645 0.68703 0.0
O139 O 0.38177 0.15596 0.68542 0.0
Co140 Co 0.63202 0.62241 0.46487 0.0
O141 O 0.62415 0.57808 0.46211 0.0
O142 O 0.65447 0.59871 0.4902 0.0
C143 C 0.63988 0.62711 0.42441 0.0
O144 O 0.64572 0.66874 0.47175 0.0
Co145 Co 0.58929 0.6692 0.43645 0.0
O146 O 0.62352 0.69887 0.44271 0.0
C147 C 0.56741 0.63963 0.48243 0.0
C148 C 0.64257 0.57358 0.48035 0.0
C149 C 0.64243 0.6953 0.46036 0.0
O150 O 0.59416 0.62693 0.48658 0.0
O151 O 0.5609 0.65522 0.46319 0.0
O152 O 0.66281 0.61873 0.4385 0.0
O153 O 0.61343 0.63136 0.43501 0.0
Co154 Co 0.14627 0.88175 0.21536 0.0
O155 O 0.19061 0.8741 0.21255 0.0
O156 O 0.16985 0.90431 0.24066 0.0
C157 C 0.14141 0.88965 0.17487 0.0
O158 O 0.09995 0.89517 0.22238 0.0
Co159 Co 0.0995 0.83898 0.18712 0.0
O160 O 0.06999 0.8735 0.19305 0.0
C161 C 0.12845 0.81747 0.23347 0.0
C162 C 0.19502 0.89253 0.2308 0.0
C163 C 0.07345 0.89211 0.21091 0.0
O164 O 0.14185 0.84398 0.23718 0.0
O165 O 0.11255 0.8109 0.2144 0.0
O166 O 0.14972 0.91256 0.18901 0.0
O167 O 0.13732 0.86312 0.18543 0.0
Co168 Co 0.88336 0.62182 0.02795 0.0
O169 O 0.89064 0.5774 0.03068 0.0
O170 O 0.86057 0.59849 0.00264 0.0
C171 C 0.87552 0.62676 0.06844 0.0
O172 O 0.87027 0.66826 0.02109 0.0
Co173 Co 0.92706 0.66781 0.05607 0.0
O174 O 0.89322 0.69803 0.04998 0.0
C175 C 0.94797 0.63854 0.00976 0.0
C176 C 0.87229 0.57319 0.01236 0.0
C177 C 0.87406 0.69474 0.03246 0.0
O178 O 0.92112 0.62584 0.00605 0.0
O179 O 0.95497 0.65415 0.02888 0.0
O180 O 0.85255 0.61866 0.05429 0.0
O181 O 0.9021 0.63049 0.05787 0.0
Co182 Co 0.14486 0.13431 0.77795 0.0
O183 O 0.18924 0.14184 0.78063 0.0
O184 O 0.16827 0.11186 0.75246 0.0
C185 C 0.14031 0.12618 0.81843 0.0
O186 O 0.09844 0.12111 0.77105 0.0
Co187 Co 0.09836 0.17692 0.80663 0.0
O188 O 0.06877 0.14249 0.80068 0.0
C189 C 0.12691 0.19868 0.76017 0.0
C190 C 0.19351 0.12352 0.7623 0.0
C191 C 0.07203 0.12412 0.78265 0.0
O192 O 0.14036 0.17223 0.75631 0.0
O193 O 0.11114 0.2051 0.77935 0.0
O194 O 0.14843 0.10332 0.80419 0.0
O195 O 0.13618 0.15276 0.80796 0.0
Co196 Co 0.6317 0.3957 0.52989 0.0
O197 O 0.62387 0.44008 0.53253 0.0
O198 O 0.65424 0.4193 0.50458 0.0
C199 C 0.63937 0.391 0.5704 0.0
O200 O 0.64537 0.34936 0.52305 0.0
Co201 Co 0.58889 0.34892 0.55828 0.0
O202 O 0.62305 0.31917 0.55199 0.0
C203 C 0.56717 0.37836 0.5122 0.0
C204 C 0.64221 0.4445 0.51422 0.0
C205 C 0.642 0.32277 0.53437 0.0
O206 O 0.5939 0.39115 0.5081 0.0
O207 O 0.56061 0.36279 0.53144 0.0
O208 O 0.66237 0.39937 0.55638 0.0
O209 O 0.61299 0.38678 0.55969 0.0
Co210 Co 0.37337 0.88091 0.27866 0.0
O211 O 0.32903 0.87312 0.28187 0.0
O212 O 0.34922 0.90461 0.25439 0.0
C213 C 0.37966 0.88685 0.31931 0.0
O214 O 0.41946 0.89496 0.27133 0.0
Co215 Co 0.42088 0.83666 0.30423 0.0
O216 O 0.45053 0.87106 0.29886 0.0
C217 C 0.38968 0.81709 0.25855 0.0
C218 C 0.32424 0.89217 0.26405 0.0
C219 C 0.44636 0.89106 0.28206 0.0
O220 O 0.37694 0.84411 0.25567 0.0
O221 O 0.40602 0.8095 0.27714 0.0
O222 O 0.37074 0.91037 0.30602 0.0
O223 O 0.3832 0.86083 0.30787 0.0
Co224 Co 0.63362 0.12212 0.52864 0.0
O225 O 0.62663 0.07767 0.53133 0.0
O226 O 0.65692 0.09894 0.50353 0.0
C227 C 0.64093 0.12705 0.56918 0.0
O228 O 0.64645 0.16872 0.52196 0.0
Co229 Co 0.58891 0.16747 0.55651 0.0
O230 O 0.62189 0.1985 0.55008 0.0
C231 C 0.56869 0.13714 0.51046 0.0
C232 C 0.64525 0.07356 0.51316 0.0
C233 C 0.64171 0.1953 0.533 0.0
O234 O 0.59605 0.12574 0.5065 0.0
O235 O 0.5612 0.15225 0.52971 0.0
O236 O 0.66416 0.11919 0.55521 0.0
O237 O 0.61446 0.13056 0.5584 0.0
Co238 Co 0.14077 0.38057 0.77958 0.0
O239 O 0.18503 0.37274 0.78323 0.0
O240 O 0.16528 0.40385 0.75527 0.0
C241 C 0.13401 0.38721 0.8201 0.0
O242 O 0.09484 0.39451 0.77171 0.0
Co243 Co 0.09267 0.3371 0.8053 0.0
O244 O 0.06363 0.37202 0.79981 0.0
C245 C 0.12332 0.31697 0.75949 0.0
C246 C 0.19009 0.39168 0.76539 0.0
C247 C 0.06793 0.39131 0.78254 0.0
O248 O 0.13722 0.34346 0.75688 0.0
O249 O 0.1064 0.30988 0.77788 0.0
O250 O 0.14319 0.41047 0.80666 0.0
O251 O 0.13049 0.36099 0.80893 0.0
Co252 Co 0.88756 0.8945 0.02776 0.0
O253 O 0.89582 0.93884 0.03043 0.0
O254 O 0.86414 0.91846 0.00318 0.0
C255 C 0.88158 0.88914 0.06852 0.0
O256 O 0.87295 0.84844 0.02091 0.0
Co257 Co 0.93083 0.8467 0.05403 0.0
O258 O 0.89589 0.8176 0.04907 0.0
C259 C 0.951 0.87636 0.00785 0.0
C260 C 0.87679 0.94349 0.01257 0.0
C261 C 0.87623 0.82171 0.03203 0.0
O262 O 0.92439 0.88992 0.00486 0.0
O263 O 0.95813 0.86013 0.0266 0.0
O264 O 0.85814 0.89802 0.05513 0.0
O265 O 0.90749 0.88497 0.05708 0.0
Co266 Co 0.36879 0.63466 0.27844 0.0
O267 O 0.32439 0.6422 0.28095 0.0
O268 O 0.34549 0.61181 0.25314 0.0
C269 C 0.37338 0.62713 0.31899 0.0
O270 O 0.41527 0.62132 0.27183 0.0
Co271 Co 0.4148 0.67831 0.30669 0.0
O272 O 0.44506 0.6445 0.30061 0.0
C273 C 0.38564 0.69918 0.26029 0.0
C274 C 0.32019 0.62374 0.26269 0.0
C275 C 0.44177 0.62522 0.28317 0.0
O276 O 0.37317 0.67225 0.25642 0.0
O277 O 0.40097 0.70621 0.27954 0.0
O278 O 0.36526 0.60406 0.30495 0.0
O279 O 0.37735 0.65358 0.3083 0.0
Co280 Co 0.63402 0.89587 0.46476 0.0
O281 O 0.62704 0.94027 0.46169 0.0
O282 O 0.65719 0.91937 0.48978 0.0
C283 C 0.64158 0.8905 0.42429 0.0
O284 O 0.64684 0.84937 0.47181 0.0
Co285 Co 0.58951 0.85018 0.43708 0.0
O286 O 0.62249 0.81925 0.4438 0.0
C287 C 0.56901 0.88102 0.48285 0.0
C288 C 0.6457 0.9446 0.4798 0.0
C289 C 0.64221 0.82267 0.46093 0.0
O290 O 0.59634 0.89251 0.4868 0.0
O291 O 0.56163 0.86567 0.46369 0.0
O292 O 0.66471 0.89852 0.43829 0.0
O293 O 0.61503 0.88709 0.43498 0.0
Co294 Co 0.36791 0.38109 0.71622 0.0
O295 O 0.32352 0.37344 0.7137 0.0
O296 O 0.34458 0.40364 0.74166 0.0
C297 C 0.37245 0.38897 0.67569 0.0
O298 O 0.41429 0.39449 0.72295 0.0
Co299 Co 0.4142 0.33802 0.6877 0.0
O300 O 0.44427 0.37192 0.69401 0.0
C301 C 0.38566 0.31673 0.73424 0.0
C302 C 0.3193 0.39174 0.73206 0.0
C303 C 0.44084 0.39087 0.71165 0.0
O304 O 0.37251 0.34334 0.73805 0.0
O305 O 0.40119 0.31001 0.71502 0.0
O306 O 0.36426 0.41189 0.68985 0.0
O307 O 0.37655 0.36245 0.68626 0.0
Co308 Co 0.88643 0.12223 0.96472 0.0
O309 O 0.8945 0.07797 0.96112 0.0
O310 O 0.86363 0.09763 0.98927 0.0
C311 C 0.87931 0.12898 0.92422 0.0
O312 O 0.87224 0.16809 0.97264 0.0
Co313 Co 0.92936 0.17059 0.93864 0.0
O314 O 0.89457 0.19961 0.94465 0.0
C315 C 0.95019 0.14003 0.98429 0.0
C316 C 0.87587 0.07286 0.97917 0.0
C317 C 0.87535 0.19511 0.96193 0.0
O318 O 0.92377 0.1261 0.98717 0.0
O319 O 0.957 0.15687 0.96579 0.0
O320 O 0.85627 0.11956 0.93779 0.0
O321 O 0.9056 0.13265 0.93524 0.0
Co322 Co 0.14193 0.63561 0.21486 0.0
O323 O 0.18626 0.64323 0.21156 0.0
O324 O 0.16609 0.61194 0.2392 0.0
C325 C 0.13578 0.62943 0.17424 0.0
O326 O 0.09576 0.62184 0.22225 0.0
Co327 Co 0.09449 0.67961 0.189 0.0
O328 O 0.06507 0.64494 0.19408 0.0
C329 C 0.1251 0.69935 0.23491 0.0
C330 C 0.19106 0.62408 0.2293 0.0
C331 C 0.069 0.62539 0.21123 0.0
O332 O 0.13838 0.67258 0.23771 0.0
O333 O 0.1086 0.70672 0.21636 0.0
O334 O 0.14451 0.60595 0.18763 0.0
O335 O 0.13222 0.65553 0.18558 0.0
Co336 Co 0.38659 0.89487 0.46532 0.0
O337 O 0.39429 0.93918 0.46182 0.0
O338 O 0.36321 0.91921 0.4897 0.0
C339 C 0.37994 0.88799 0.42481 0.0
O340 O 0.37261 0.84879 0.47285 0.0
Co341 Co 0.43127 0.84769 0.4395 0.0
O342 O 0.39808 0.8172 0.44647 0.0
C343 C 0.45112 0.8798 0.48464 0.0
C344 C 0.37537 0.9441 0.4797 0.0
C345 C 0.37748 0.82161 0.46279 0.0
O346 O 0.42374 0.89153 0.48804 0.0
O347 O 0.4588 0.86392 0.46585 0.0
O348 O 0.35668 0.89725 0.43822 0.0
O349 O 0.40618 0.88477 0.43598 0.0
Co350 Co 0.86893 0.6345 0.21417 0.0
O351 O 0.8246 0.64195 0.21097 0.0
O352 O 0.84508 0.61173 0.2392 0.0
C353 C 0.87447 0.62674 0.17374 0.0
O354 O 0.91521 0.62123 0.22152 0.0
Co355 Co 0.9157 0.67787 0.18648 0.0
O356 O 0.9456 0.64384 0.19288 0.0
C357 C 0.88543 0.69905 0.23238 0.0
C358 C 0.82 0.62345 0.22915 0.0
C359 C 0.94191 0.62481 0.21044 0.0
O360 O 0.87273 0.67221 0.2361 0.0
O361 O 0.90136 0.70592 0.21338 0.0
O362 O 0.86605 0.60375 0.18775 0.0
O363 O 0.8782 0.65327 0.18437 0.0
Co364 Co 0.13279 0.12099 0.96421 0.0
O365 O 0.12563 0.07659 0.96129 0.0
O366 O 0.15565 0.09759 0.98943 0.0
C367 C 0.14056 0.12598 0.92372 0.0
O368 O 0.14564 0.1674 0.97138 0.0
Co369 Co 0.08964 0.16747 0.93609 0.0
O370 O 0.12392 0.19725 0.94202 0.0
C371 C 0.06849 0.13831 0.98249 0.0
C372 C 0.14415 0.07233 0.9795 0.0
C373 C 0.1424 0.19392 0.95997 0.0
O374 O 0.09503 0.12491 0.98606 0.0
O375 O 0.06179 0.15431 0.96349 0.0
O376 O 0.1636 0.11797 0.93782 0.0
O377 O 0.11402 0.12981 0.93433 0.0
Co378 Co 0.64124 0.38167 0.71605 0.0
O379 O 0.68557 0.37394 0.71346 0.0
O380 O 0.66463 0.4038 0.74171 0.0
C381 C 0.63715 0.39017 0.67563 0.0
O382 O 0.59483 0.39503 0.72286 0.0
Co383 Co 0.59463 0.33974 0.68692 0.0
O384 O 0.5653 0.37437 0.69285 0.0
C385 C 0.6227 0.31728 0.73336 0.0
C386 C 0.68985 0.39214 0.73185 0.0
C387 C 0.56851 0.3924 0.71108 0.0
O388 O 0.63646 0.34353 0.73739 0.0
O389 O 0.6069 0.31123 0.71413 0.0
O390 O 0.64517 0.4129 0.69004 0.0
O391 O 0.6327 0.36353 0.68592 0.0
Co392 Co 0.38613 0.12253 0.52783 0.0
O393 O 0.39381 0.07816 0.53102 0.0
O394 O 0.36302 0.09852 0.50313 0.0
C395 C 0.37907 0.12904 0.56833 0.0
O396 O 0.37225 0.16869 0.52055 0.0
Co397 Co 0.43078 0.16927 0.55422 0.0
O398 O 0.398 0.20009 0.54692 0.0
C399 C 0.45084 0.13776 0.50891 0.0
C400 C 0.37521 0.07348 0.51289 0.0
C401 C 0.37736 0.19584 0.5306 0.0
O402 O 0.42346 0.12615 0.50531 0.0
O403 O 0.45847 0.15332 0.52788 0.0
O404 O 0.35596 0.11985 0.55474 0.0
O405 O 0.40543 0.13231 0.55734 0.0
Co406 Co 0.64241 0.63434 0.27868 0.0
O407 O 0.6868 0.64188 0.2812 0.0
O408 O 0.6657 0.61174 0.25323 0.0
C409 C 0.63808 0.6265 0.31919 0.0
O410 O 0.59591 0.62107 0.272 0.0
Co411 Co 0.59621 0.67736 0.30726 0.0
O412 O 0.56631 0.6432 0.30137 0.0
C413 C 0.62539 0.69899 0.26105 0.0
C414 C 0.691 0.62358 0.26284 0.0
C415 C 0.56951 0.62443 0.28359 0.0
O416 O 0.63803 0.6722 0.25697 0.0
O417 O 0.60989 0.70563 0.28031 0.0
O418 O 0.64604 0.60351 0.30502 0.0
O419 O 0.63392 0.653 0.30861 0.0
Co420 Co 0.13325 0.89491 0.02902 0.0
O421 O 0.12599 0.93932 0.03181 0.0
O422 O 0.15607 0.91826 0.00377 0.0
C423 C 0.14099 0.88992 0.06953 0.0
O424 O 0.14621 0.84851 0.02194 0.0
Co425 Co 0.08991 0.84855 0.05704 0.0
O426 O 0.12407 0.81862 0.05108 0.0
C427 C 0.06898 0.87757 0.01057 0.0
C428 C 0.14434 0.94355 0.01348 0.0
C429 C 0.14278 0.82198 0.03328 0.0
O430 O 0.09557 0.89089 0.00708 0.0
O431 O 0.06214 0.86164 0.02957 0.0
O432 O 0.16401 0.898 0.05542 0.0
O433 O 0.11445 0.88612 0.05892 0.0
Co434 Co 0.86854 0.38006 0.7788 0.0
O435 O 0.82425 0.37221 0.78225 0.0
O436 O 0.84414 0.40383 0.75472 0.0
C437 C 0.87538 0.38605 0.81939 0.0
O438 O 0.91449 0.39412 0.7712 0.0
Co439 Co 0.91624 0.33566 0.80408 0.0
O440 O 0.94584 0.37008 0.79846 0.0
C441 C 0.88556 0.31668 0.75802 0.0
C442 C 0.81927 0.39136 0.76452 0.0
C443 C 0.9415 0.39011 0.78171 0.0
O444 O 0.87211 0.34343 0.75561 0.0
O445 O 0.90213 0.30897 0.77645 0.0
O446 O 0.86616 0.40949 0.80617 0.0
O447 O 0.87873 0.35997 0.80798 0.0
C448 C 0.15406 0.6075 0.13443 0.0
C449 C 0.13471 0.62828 0.14739 0.0
C450 C 0.15565 0.60851 0.10889 0.0
C451 C 0.13754 0.62998 0.09554 0.0
H452 H 0.16852 0.59078 0.14407 0.0
H453 H 0.17051 0.59187 0.09953 0.0
S454 S 0.08329 0.6894 0.12086 0.0
N455 N 0.09735 0.67105 0.14488 0.0
N456 N 0.10002 0.6726 0.0972 0.0
C457 C 0.11814 0.65076 0.10833 0.0
C458 C 0.1168 0.65 0.13419 0.0
C459 C 0.62243 0.87146 0.38436 0.0
C460 C 0.64349 0.89017 0.39753 0.0
C461 C 0.62146 0.87249 0.35895 0.0
C462 C 0.64096 0.89283 0.34577 0.0
H463 H 0.6066 0.85579 0.39376 0.0
H464 H 0.60525 0.85721 0.34956 0.0
S465 S 0.69984 0.94714 0.37164 0.0
N466 N 0.68422 0.92982 0.39561 0.0
N467 N 0.68197 0.93215 0.34767 0.0
C468 C 0.66189 0.91198 0.35867 0.0
C469 C 0.66334 0.91047 0.38462 0.0
C470 C 0.39169 0.36987 0.63577 0.0
C471 C 0.37319 0.39116 0.64891 0.0
C472 C 0.39117 0.36925 0.61034 0.0
C473 C 0.37154 0.38936 0.59709 0.0
H474 H 0.40686 0.35357 0.64519 0.0
H475 H 0.40628 0.35284 0.60098 0.0
S476 S 0.31823 0.4493 0.62278 0.0
N477 N 0.33465 0.43293 0.64684 0.0
N478 N 0.33322 0.43133 0.59885 0.0
C479 C 0.35263 0.41059 0.60994 0.0
C480 C 0.35365 0.41167 0.63592 0.0
C481 C 0.8591 0.10953 0.88424 0.0
C482 C 0.87754 0.13088 0.89743 0.0
C483 C 0.86024 0.10858 0.85868 0.0
C484 C 0.87941 0.12933 0.84552 0.0
H485 H 0.84435 0.09291 0.89373 0.0
H486 H 0.84556 0.09192 0.84917 0.0
S487 S 0.93163 0.19009 0.87157 0.0
N488 N 0.91527 0.17329 0.89541 0.0
N489 N 0.91699 0.17191 0.84767 0.0
C490 C 0.89764 0.15094 0.85856 0.0
C491 C 0.8968 0.15161 0.88445 0.0
C492 C 0.15489 0.40629 0.88553 0.0
C493 C 0.13485 0.38647 0.89876 0.0
C494 C 0.15354 0.40757 0.85999 0.0
C495 C 0.13251 0.38866 0.84691 0.0
H496 H 0.17125 0.42138 0.89496 0.0
H497 H 0.1696 0.42286 0.85044 0.0
S498 S 0.07525 0.33271 0.87301 0.0
N499 N 0.09334 0.34769 0.89681 0.0
N500 N 0.09121 0.34971 0.8491 0.0
C501 C 0.11251 0.36872 0.85996 0.0
C502 C 0.11359 0.36771 0.88583 0.0
C503 C 0.85906 0.90668 0.1084 0.0
C504 C 0.88053 0.8881 0.09542 0.0
C505 C 0.85988 0.90814 0.13396 0.0
C506 C 0.88185 0.89064 0.1473 0.0
H507 H 0.84188 0.92059 0.09876 0.0
H508 H 0.84269 0.92234 0.14332 0.0
S509 S 0.94324 0.83865 0.12206 0.0
N510 N 0.92459 0.85222 0.09801 0.0
N511 N 0.9257 0.85463 0.14572 0.0
C512 C 0.90335 0.87207 0.13454 0.0
C513 C 0.90279 0.87087 0.10866 0.0
C514 C 0.39219 0.64701 0.38427 0.0
C515 C 0.37202 0.62748 0.39756 0.0
C516 C 0.39285 0.64616 0.35885 0.0
C517 C 0.37395 0.62518 0.34577 0.0
H518 H 0.40763 0.66315 0.39359 0.0
H519 H 0.40844 0.66201 0.34938 0.0
S520 S 0.31729 0.56877 0.37197 0.0
N521 N 0.33261 0.58653 0.39587 0.0
N522 N 0.33431 0.58447 0.3479 0.0
C523 C 0.35381 0.6053 0.35879 0.0
C524 C 0.35265 0.60664 0.38476 0.0
C525 C 0.61969 0.14389 0.63449 0.0
C526 C 0.6398 0.12419 0.64768 0.0
C527 C 0.62084 0.14512 0.6091 0.0
C528 C 0.64267 0.12728 0.59596 0.0
H529 H 0.60286 0.15851 0.64387 0.0
H530 H 0.60451 0.16028 0.5997 0.0
S531 S 0.70108 0.07249 0.62196 0.0
N532 N 0.68238 0.08657 0.64588 0.0
N533 N 0.68497 0.0893 0.59796 0.0
C534 C 0.6632 0.10769 0.6089 0.0
C535 C 0.66158 0.10596 0.63483 0.0
C536 C 0.85733 0.40711 0.85948 0.0
C537 C 0.87735 0.38733 0.8462 0.0
C538 C 0.8566 0.40618 0.88503 0.0
C539 C 0.87631 0.38588 0.8981 0.0
H540 H 0.84163 0.42291 0.85007 0.0
H541 H 0.84104 0.42196 0.89459 0.0
S542 S 0.93327 0.3297 0.8719 0.0
N543 N 0.91727 0.3469 0.84809 0.0
N544 N 0.91638 0.34566 0.89586 0.0
C545 C 0.89655 0.36622 0.88501 0.0
C546 C 0.89695 0.36682 0.85911 0.0
C547 C 0.36069 0.108 0.63382 0.0
C548 C 0.37936 0.12921 0.64697 0.0
C549 C 0.35944 0.109 0.60827 0.0
C550 C 0.37725 0.13088 0.59509 0.0
H551 H 0.34653 0.09089 0.64331 0.0
H552 H 0.34513 0.09202 0.59877 0.0
S553 S 0.42963 0.1916 0.62084 0.0
N554 N 0.41567 0.17293 0.64476 0.0
N555 N 0.41368 0.17438 0.59703 0.0
C556 C 0.39594 0.15212 0.60803 0.0
C557 C 0.39691 0.15139 0.63391 0.0
C558 C 0.62161 0.64726 0.38463 0.0
C559 C 0.64178 0.62746 0.39767 0.0
C560 C 0.6201 0.6461 0.35926 0.0
C561 C 0.63815 0.62459 0.34596 0.0
H562 H 0.60682 0.66385 0.39411 0.0
H563 H 0.60457 0.6622 0.34999 0.0
S564 S 0.69424 0.56712 0.37153 0.0
N565 N 0.6801 0.58552 0.39557 0.0
N566 N 0.67689 0.58296 0.34765 0.0
C567 C 0.65824 0.60439 0.35875 0.0
C568 C 0.66023 0.606 0.38467 0.0
C569 C 0.12098 0.87187 0.13495 0.0
C570 C 0.14089 0.89179 0.14812 0.0
C571 C 0.12177 0.87099 0.10953 0.0
C572 C 0.14307 0.8894 0.09632 0.0
H573 H 0.10455 0.85684 0.14437 0.0
H574 H 0.10558 0.85566 0.10015 0.0
S575 S 0.20082 0.94494 0.12223 0.0
N576 N 0.18274 0.93022 0.1462 0.0
N577 N 0.18469 0.92811 0.09824 0.0
C578 C 0.16343 0.90918 0.10924 0.0
C579 C 0.16215 0.91057 0.13519 0.0
C580 C 0.89456 0.6456 0.10852 0.0
C581 C 0.87333 0.62722 0.09521 0.0
C582 C 0.89519 0.64466 0.13394 0.0
C583 C 0.87519 0.62469 0.147 0.0
H584 H 0.9108 0.66094 0.09921 0.0
H585 H 0.91155 0.65965 0.14346 0.0
S586 S 0.81536 0.57168 0.12081 0.0
N587 N 0.83165 0.58855 0.09692 0.0
N588 N 0.83332 0.58631 0.14487 0.0
C589 C 0.85399 0.60597 0.13397 0.0
C590 C 0.85287 0.60743 0.10802 0.0
C591 C 0.12073 0.14454 0.85842 0.0
C592 C 0.13992 0.12398 0.84518 0.0
C593 C 0.12176 0.14546 0.88383 0.0
C594 C 0.14257 0.12643 0.89696 0.0
H595 H 0.1047 0.16006 0.84908 0.0
H596 H 0.10613 0.16132 0.89326 0.0
S597 S 0.19812 0.0688 0.87092 0.0
N598 N 0.18043 0.0841 0.84699 0.0
N599 N 0.18277 0.08626 0.89494 0.0
C600 C 0.16214 0.10592 0.884 0.0
C601 C 0.16064 0.10451 0.85804 0.0
C602 C 0.61973 0.3715 0.61001 0.0
C603 C 0.64114 0.39023 0.59717 0.0
C604 C 0.61816 0.37237 0.63538 0.0
C605 C 0.63743 0.39251 0.6489 0.0
H606 H 0.60398 0.35599 0.60037 0.0
H607 H 0.60162 0.35714 0.64448 0.0
S608 S 0.69754 0.44631 0.6241 0.0
N609 N 0.68227 0.42938 0.59982 0.0
N610 N 0.67896 0.43136 0.64775 0.0
C611 C 0.6589 0.41152 0.63638 0.0
C612 C 0.66092 0.4102 0.61044 0.0
C613 C 0.3616 0.90862 0.35923 0.0
C614 C 0.38091 0.8879 0.34617 0.0
C615 C 0.36018 0.90759 0.38477 0.0
C616 C 0.37846 0.88617 0.39803 0.0
H617 H 0.34702 0.92531 0.34966 0.0
H618 H 0.34534 0.92418 0.3942 0.0
S619 S 0.43276 0.82699 0.37248 0.0
N620 N 0.41845 0.84527 0.34851 0.0
N621 N 0.41614 0.84372 0.39624 0.0
C622 C 0.39784 0.86546 0.38517 0.0
C623 C 0.39899 0.86623 0.35929 0.0
C624 C 0.0234 0.60434 0.99519 0.0
C625 C 0.04 0.63233 0.99147 0.0
C626 C 0.99056 0.60455 0.99603 0.0
C627 C 0.97402 0.63271 0.99298 0.0
H628 H 0.03553 0.58377 0.00184 0.0
H629 H 0.9787 0.5841 0.00316 0.0
S630 S 1.00677 0.70863 0.97323 0.0
N631 N 0.03763 0.68594 0.97723 0.0
N632 N 0.97597 0.68643 0.97891 0.0
C633 C 0.99019 0.6587 0.98383 0.0
C634 C 0.02345 0.65842 0.98289 0.0
C635 C 0.60522 0.74264 0.23699 0.0
C636 C 0.63143 0.72549 0.24475 0.0
C637 C 0.6059 0.77538 0.2369 0.0
C638 C 0.63276 0.79151 0.24465 0.0
H639 H 0.5828 0.73108 0.23499 0.0
H640 H 0.58395 0.78782 0.23486 0.0
S641 S 0.71029 0.75696 0.2576 0.0
N642 N 0.68711 0.72652 0.25322 0.0
N643 N 0.68835 0.78828 0.25314 0.0
C644 C 0.66072 0.77462 0.2471 0.0
C645 C 0.66005 0.74125 0.24714 0.0
C646 C 0.49117 0.41194 0.49985 0.0
C647 C 0.47461 0.38383 0.49664 0.0
C648 C 0.52402 0.41205 0.49942 0.0
C649 C 0.54064 0.38403 0.49588 0.0
H650 H 0.47921 0.43248 0.50671 0.0
H651 H 0.5361 0.43266 0.50605 0.0
S652 S 0.50752 0.30761 0.4778 0.0
N653 N 0.47669 0.32998 0.48292 0.0
N654 N 0.53838 0.3302 0.48213 0.0
C655 C 0.52418 0.35781 0.48746 0.0
C656 C 0.49091 0.35768 0.4879 0.0
C657 C 0.8518 0.27421 0.74412 0.0
C658 C 0.87954 0.29131 0.74066 0.0
C659 C 0.85239 0.24135 0.74392 0.0
C660 C 0.88074 0.22533 0.7403 0.0
H661 H 0.83121 0.28577 0.75131 0.0
H662 H 0.83222 0.22894 0.75098 0.0
S663 S 0.95585 0.25986 0.72059 0.0
N664 N 0.93293 0.29026 0.72582 0.0
N665 N 0.93406 0.22856 0.72551 0.0
C666 C 0.90627 0.24222 0.73114 0.0
C667 C 0.90566 0.27551 0.73131 0.0
C668 C 0.99028 0.41283 -0.0003 0.0
C669 C 0.97351 0.38488 0.00311 0.0
C670 C 0.02314 0.4127 0.00026 0.0
C671 C 0.03949 0.38458 0.0041 0.0
H672 H 0.97856 0.43324 0.99235 0.0
H673 H 0.03538 0.433 0.99325 0.0
S674 S 1.00566 0.30908 0.02367 0.0
N675 N 0.97504 0.33154 0.01805 0.0
N676 N 0.03673 0.3313 0.01904 0.0
C677 C 0.02279 0.35887 0.0132 0.0
C678 C 0.98951 0.359 0.01265 0.0
C679 C 0.90634 0.77385 0.25869 0.0
C680 C 0.88065 0.79121 0.25016 0.0
C681 C 0.9058 0.74111 0.258 0.0
C682 C 0.87945 0.72521 0.24901 0.0
H683 H 0.92862 0.78535 0.26165 0.0
H684 H 0.92764 0.72864 0.26053 0.0
S685 S 0.80265 0.76008 0.23411 0.0
N686 N 0.82549 0.79039 0.23986 0.0
N687 N 0.82438 0.72865 0.23872 0.0
C688 C 0.85161 0.74214 0.24596 0.0
C689 C 0.85221 0.7755 0.24659 0.0
C690 C 0.4912 0.65998 0.50613 0.0
C691 C 0.47475 0.6335 0.49803 0.0
C692 C 0.52394 0.66006 0.50648 0.0
C693 C 0.54079 0.63369 0.49863 0.0
H694 H 0.4791 0.6821 0.50826 0.0
H695 H 0.53583 0.68226 0.50882 0.0
S696 S 0.50822 0.55563 0.48454 0.0
N697 N 0.4772 0.57802 0.48893 0.0
N698 N 0.53895 0.5782 0.48952 0.0
C699 C 0.52458 0.6054 0.49576 0.0
C700 C 0.49121 0.6053 0.49543 0.0
C701 C 0.6569 0.2416 0.74701 0.0
C702 C 0.62895 0.22454 0.74941 0.0
C703 C 0.65635 0.27445 0.74711 0.0
C704 C 0.62785 0.29055 0.74961 0.0
H705 H 0.67801 0.22995 0.74089 0.0
H706 H 0.67707 0.28684 0.74108 0.0
S707 S 0.55119 0.25618 0.76558 0.0
N708 N 0.57442 0.22573 0.7615 0.0
N709 N 0.57337 0.28743 0.76164 0.0
C710 C 0.60151 0.2737 0.75731 0.0
C711 C 0.60208 0.24043 0.75724 0.0
C712 C 0.35322 0.27314 0.74824 0.0
C713 C 0.38083 0.29062 0.75114 0.0
C714 C 0.35416 0.2403 0.74884 0.0
C715 C 0.38278 0.22465 0.75214 0.0
H716 H 0.33227 0.28437 0.74137 0.0
H717 H 0.33391 0.22754 0.74232 0.0
S718 S 0.45813 0.26036 0.76996 0.0
N719 N 0.43475 0.29042 0.76478 0.0
N720 N 0.43652 0.22874 0.76585 0.0
C721 C 0.40843 0.242 0.76058 0.0
C722 C 0.40748 0.27527 0.75998 0.0
C723 C 0.16032 0.74103 0.24796 0.0
C724 C 0.13181 0.72529 0.25159 0.0
C725 C 0.16113 0.77387 0.2472 0.0
C726 C 0.1335 0.79128 0.25026 0.0
H727 H 0.18052 0.72829 0.24135 0.0
H728 H 0.18196 0.78512 0.24013 0.0
S729 S 0.05654 0.76087 0.26979 0.0
N730 N 0.07823 0.7293 0.26568 0.0
N731 N 0.07974 0.79098 0.26428 0.0
C732 C 0.107 0.77589 0.25934 0.0
C733 C 0.1062 0.74263 0.26012 0.0
C734 C 0.15934 0.24243 0.7465 0.0
C735 C 0.13173 0.225 0.74347 0.0
C736 C 0.15841 0.27528 0.7461 0.0
C737 C 0.12982 0.29097 0.74281 0.0
H738 H 0.18029 0.23113 0.75331 0.0
H739 H 0.17867 0.28798 0.75268 0.0
S740 S 0.05442 0.25545 0.72484 0.0
N741 N 0.0778 0.22534 0.72985 0.0
N742 N 0.07605 0.28702 0.72911 0.0
C743 C 0.10414 0.2737 0.73433 0.0
C744 C 0.10508 0.24044 0.73474 0.0
C745 C 0.40689 0.74066 0.23455 0.0
C746 C 0.38021 0.72519 0.2434 0.0
C747 C 0.40789 0.77339 0.23373 0.0
C748 C 0.38233 0.79117 0.24199 0.0
H749 H 0.42859 0.72787 0.23226 0.0
H750 H 0.43037 0.78456 0.23091 0.0
S751 S 0.3037 0.7612 0.25752 0.0
N752 N 0.32507 0.72945 0.25323 0.0
N753 N 0.32702 0.79116 0.2518 0.0
C754 C 0.35362 0.77587 0.24535 0.0
C755 C 0.35257 0.74252 0.24614 0.0
C756 C 0.49378 0.15668 0.48372 0.0
C757 C 0.47678 0.13076 0.49229 0.0
C758 C 0.52652 0.15668 0.48456 0.0
C759 C 0.5428 0.13064 0.49368 0.0
H760 H 0.48194 0.17876 0.48066 0.0
H761 H 0.53863 0.17873 0.48202 0.0
S762 S 0.50909 0.05336 0.50872 0.0
N763 N 0.47845 0.07568 0.50278 0.0
N764 N 0.54019 0.07558 0.50415 0.0
C765 C 0.5263 0.10256 0.49676 0.0
C766 C 0.49294 0.1026 0.496 0.0
C767 C 0.99332 0.9107 0.99481 0.0
C768 C 0.97711 0.88245 0.99118 0.0
C769 C 0.02614 0.91085 0.99615 0.0
C770 C 0.04304 0.88284 0.99358 0.0
H771 H 0.98081 0.93124 0.00107 0.0
H772 H 0.03761 0.93155 0.00323 0.0
S773 S 0.01165 0.80625 0.97411 0.0
N774 N 0.98042 0.82863 0.97751 0.0
N775 N 0.04204 0.8289 0.97998 0.0
C776 C 0.02738 0.85652 0.98447 0.0
C777 C 0.99415 0.8564 0.98309 0.0
C778 C 0.49422 0.86149 0.50991 0.0
C779 C 0.47704 0.88718 0.50116 0.0
C780 C 0.52696 0.86162 0.50895 0.0
C781 C 0.54306 0.88761 0.49955 0.0
H782 H 0.48251 0.8394 0.51322 0.0
H783 H 0.5392 0.83968 0.51166 0.0
S784 S 0.50888 0.96448 0.4839 0.0
N785 N 0.47838 0.94211 0.49017 0.0
N786 N 0.54011 0.94249 0.48856 0.0
C787 C 0.5264 0.91556 0.49625 0.0
C788 C 0.49304 0.91537 0.49714 0.0
C789 C 0.02536 0.10513 0.99639 0.0
C790 C 0.04238 0.13302 -0.0007 0.0
C791 C 0.99252 0.10549 -0.00277 0.0
C792 C 0.97641 0.1338 0.00081 0.0
H793 H 0.03688 0.08442 0.98937 0.0
H794 H 0.98004 0.08506 0.99072 0.0
S795 S 0.01099 0.2097 0.0186 0.0
N796 N 0.04139 0.18689 0.0131 0.0
N797 N 0.97972 0.18754 0.01467 0.0
C798 C 0.99341 0.15972 0.00918 0.0
C799 C 0.02667 0.15938 0.00831 0.0
C800 C 0.14576 0.48354 0.01385 0.0
C801 C 0.1466 0.47584 0.98902 0.0
C802 C 0.14528 0.51502 0.02153 0.0
C803 C 0.14648 0.54006 0.00474 0.0
H804 H 0.14353 0.46521 0.02736 0.0
H805 H 0.14302 0.51981 0.0408 0.0
S806 S 0.15198 0.53225 0.93776 0.0
N807 N 0.1505 0.49579 0.9477 0.0
N808 N 0.15076 0.55466 0.96223 0.0
C809 C 0.14932 0.53259 0.97998 0.0
C810 C 0.14903 0.50059 0.97212 0.0
C811 C 0.76602 0.89652 0.22144 0.0
C812 C 0.79124 0.89856 0.23801 0.0
C813 C 0.73462 0.89704 0.22931 0.0
C814 C 0.72721 0.89881 0.25416 0.0
H815 H 0.7706 0.89361 0.20218 0.0
H816 H 0.71617 0.8942 0.21599 0.0
S817 S 0.7841 0.90663 0.3049 0.0
N818 N 0.80626 0.90457 0.28032 0.0
N819 N 0.74757 0.9045 0.29523 0.0
C820 C 0.75212 0.90206 0.27083 0.0
C821 C 0.78402 0.90226 0.26275 0.0
C822 C 0.36799 0.48412 0.48107 0.0
C823 C 0.36683 0.47688 0.50598 0.0
C824 C 0.36861 0.51545 0.47306 0.0
C825 C 0.36729 0.54081 0.48956 0.0
H826 H 0.37027 0.46555 0.46778 0.0
H827 H 0.37101 0.51986 0.45374 0.0
S828 S 0.36079 0.53424 0.55657 0.0
N829 N 0.36233 0.49761 0.54704 0.0
N830 N 0.36249 0.5562 0.53187 0.0
C831 C 0.36416 0.53381 0.51438 0.0
C832 C 0.36424 0.50195 0.52259 0.0
C833 C 0.7647 0.12081 0.77165 0.0
C834 C 0.78977 0.11859 0.75495 0.0
C835 C 0.73323 0.12015 0.76395 0.0
C836 C 0.72559 0.11804 0.73916 0.0
H837 H 0.76945 0.12404 0.79085 0.0
H838 H 0.71489 0.1232 0.77735 0.0
S839 S 0.78203 0.10946 0.68819 0.0
N840 N 0.80441 0.11191 0.71263 0.0
N841 N 0.74559 0.11172 0.69804 0.0
C842 C 0.75035 0.11452 0.72239 0.0
C843 C 0.78234 0.11447 0.73029 0.0
C844 C 0.86648 0.51567 0.02022 0.0
C845 C 0.86636 0.54075 0.00346 0.0
C846 C 0.86605 0.48422 0.01249 0.0
C847 C 0.86632 0.4766 0.98764 0.0
H848 H 0.86791 0.52038 0.03956 0.0
H849 H 0.86745 0.46585 0.02603 0.0
S850 S 0.86376 0.53321 0.93636 0.0
N851 N 0.86415 0.55554 0.9609 0.0
N852 N 0.86441 0.49672 0.94627 0.0
C853 C 0.86487 0.50142 0.97072 0.0
C854 C 0.86456 0.5334 0.97863 0.0
C855 C 0.23352 0.12033 0.72874 0.0
C856 C 0.22595 0.1175 0.7535 0.0
C857 C 0.26497 0.12117 0.72101 0.0
C858 C 0.29009 0.11843 0.73762 0.0
H859 H 0.21515 0.12383 0.71544 0.0
H860 H 0.26967 0.12493 0.70186 0.0
S861 S 0.2825 0.10738 0.80422 0.0
N862 N 0.24603 0.10998 0.79447 0.0
N863 N 0.30482 0.11049 0.7798 0.0
C864 C 0.2827 0.1136 0.76221 0.0
C865 C 0.25075 0.11347 0.77017 0.0
C866 C 0.64634 0.5023 0.52185 0.0
C867 C 0.64789 0.47702 0.50529 0.0
C868 C 0.64701 0.53369 0.51393 0.0
C869 C 0.64845 0.54105 0.48906 0.0
H870 H 0.64371 0.4978 0.54114 0.0
H871 H 0.64452 0.55219 0.52726 0.0
S872 S 0.6551 0.48396 0.43834 0.0
N873 N 0.65319 0.46187 0.46296 0.0
N874 N 0.65339 0.52054 0.44797 0.0
C875 C 0.65126 0.51607 0.4724 0.0
C876 C 0.6513 0.48416 0.48051 0.0
C877 C 0.23504 0.89636 0.26431 0.0
C878 C 0.2275 0.89854 0.2395 0.0
C879 C 0.26648 0.89567 0.27207 0.0
C880 C 0.29161 0.89795 0.25543 0.0
H881 H 0.21666 0.89328 0.27765 0.0
H882 H 0.27116 0.89242 0.29128 0.0
S883 S 0.28412 0.90715 0.18866 0.0
N884 N 0.24764 0.90489 0.19843 0.0
N885 N 0.30641 0.90467 0.21315 0.0
C886 C 0.28427 0.9021 0.23076 0.0
C887 C 0.25232 0.90206 0.22278 0.0
C888 C 0.65032 0.01596 0.521 0.0
C889 C 0.65146 0.04113 0.50433 0.0
C890 C 0.65097 0.98455 0.5132 0.0
C891 C 0.65202 0.97708 0.48834 0.0
H892 H 0.64787 0.02057 0.54029 0.0
H893 H 0.64867 0.96612 0.52661 0.0
S894 S 0.65775 0.0339 0.43736 0.0
N895 N 0.65611 0.05612 0.46193 0.0
N896 N 0.65636 0.99737 0.44714 0.0
C897 C 0.65459 1.00197 0.47156 0.0
C898 C 0.65461 0.03391 0.47956 0.0
C899 C 0.2303 0.39787 0.73224 0.0
C900 C 0.2228 0.39757 0.75711 0.0
C901 C 0.26171 0.3974 0.72441 0.0
C902 C 0.28687 0.39749 0.74109 0.0
H903 H 0.21187 0.39658 0.71875 0.0
H904 H 0.26632 0.39604 0.70505 0.0
S905 S 0.27968 0.3999 0.80821 0.0
N906 N 0.24314 0.39932 0.79842 0.0
N907 N 0.30188 0.39954 0.7836 0.0
C908 C 0.27965 0.3992 0.76595 0.0
C909 C 0.24771 0.39891 0.77396 0.0
C910 C 0.87225 1.00124 0.02037 0.0
C911 C 0.87108 0.97605 0.00373 0.0
C912 C 0.87147 0.03265 0.01253 0.0
C913 C 0.87039 0.04015 0.98766 0.0
H914 H 0.87463 0.99663 0.03966 0.0
H915 H 0.87356 0.0511 0.02594 0.0
S916 S 0.86512 0.98324 0.93672 0.0
N917 N 0.86668 0.96106 0.96131 0.0
N918 N 0.86641 0.01979 0.94646 0.0
C919 C 0.8681 0.01523 0.97089 0.0
C920 C 0.86809 0.98329 0.97893 0.0
C921 C 0.26258 0.6182 0.27036 0.0
C922 C 0.28776 0.61791 0.25369 0.0
C923 C 0.23118 0.61778 0.26252 0.0
C924 C 0.2237 0.61791 0.23764 0.0
H925 H 0.26718 0.61972 0.28971 0.0
H926 H 0.21273 0.61927 0.27598 0.0
S927 S 0.28061 0.61503 0.18657 0.0
N928 N 0.30279 0.61549 0.21119 0.0
N929 N 0.24406 0.61579 0.19635 0.0
C930 C 0.24862 0.61635 0.22081 0.0
C931 C 0.28055 0.61602 0.22884 0.0
C932 C 0.37062 0.01576 0.52076 0.0
C933 C 0.36966 0.0409 0.50407 0.0
C934 C 0.37011 0.98432 0.51297 0.0
C935 C 0.36949 0.97677 0.4881 0.0
H936 H 0.37267 0.02043 0.54007 0.0
H937 H 0.37207 0.96592 0.52643 0.0
S938 S 0.36494 0.03352 0.43702 0.0
N939 N 0.36598 0.05577 0.46158 0.0
N940 N 0.36616 0.997 0.44684 0.0
C941 C 0.36739 1.00164 0.47128 0.0
C942 C 0.36713 0.03359 0.47926 0.0
C943 C 0.74868 0.61869 0.27046 0.0
C944 C 0.72344 0.61778 0.25385 0.0
C945 C 0.78005 0.61813 0.26257 0.0
C946 C 0.78744 0.61744 0.23769 0.0
H947 H 0.74415 0.6208 0.28979 0.0
H948 H 0.79854 0.62014 0.27597 0.0
S949 S 0.73042 0.6126 0.1868 0.0
N950 N 0.7083 0.61386 0.21144 0.0
N951 N 0.76698 0.61382 0.1965 0.0
C952 C 0.76248 0.61523 0.22095 0.0
C953 C 0.73058 0.61508 0.22903 0.0
C954 C 0.14885 1.00128 0.02105 0.0
C955 C 0.15019 0.97598 0.00451 0.0
C956 C 0.14934 0.03262 0.01309 0.0
C957 C 0.15042 0.0399 0.9882 0.0
H958 H 0.14641 0.99681 0.04036 0.0
H959 H 0.14694 0.05115 0.02641 0.0
S960 S 0.15667 0.98273 0.93751 0.0
N961 N 0.15507 0.9607 0.96218 0.0
N962 N 0.15501 0.01933 0.9471 0.0
C963 C 0.15316 0.01491 0.97155 0.0
C964 C 0.15335 0.98304 0.9797 0.0
C965 C 0.76155 0.39436 0.77288 0.0
C966 C 0.78654 0.39726 0.75617 0.0
C967 C 0.73005 0.39518 0.76528 0.0
C968 C 0.72231 0.39818 0.74056 0.0
H969 H 0.76638 0.39048 0.79199 0.0
H970 H 0.71177 0.39155 0.77864 0.0
S971 S 0.77849 0.4088 0.68965 0.0
N972 N 0.80098 0.40555 0.71397 0.0
N973 N 0.74209 0.40606 0.69955 0.0
C974 C 0.74698 0.4024 0.72381 0.0
C975 C 0.77899 0.40226 0.73163 0.0
C976 C 0.17409 0.77376 0.04011 0.0
C977 C 0.15591 0.79191 0.02402 0.0
C978 C 0.17341 0.74076 0.03948 0.0
C979 C 0.15444 0.72441 0.02279 0.0
H980 H 0.18581 0.78502 0.05524 0.0
H981 H 0.18457 0.7281 0.0542 0.0
S982 S 0.10589 0.76072 0.97457 0.0
N983 N 0.12154 0.79085 0.98895 0.0
N984 N 0.12017 0.72911 0.98785 0.0
C985 C 0.13929 0.74224 0.00475 0.0
C986 C 0.14004 0.77589 0.00535 0.0
C987 C 0.52546 0.92509 0.29098 0.0
C988 C 0.54337 0.90736 0.27443 0.0
C989 C 0.49246 0.92454 0.29058 0.0
C990 C 0.47586 0.9062 0.27361 0.0
H991 H 0.53691 0.93625 0.30628 0.0
H992 H 0.48002 0.93524 0.30561 0.0
S993 S 0.51145 0.85966 0.2239 0.0
N994 N 0.5418 0.87451 0.2385 0.0
N995 N 0.48003 0.87343 0.23777 0.0
C996 C 0.49343 0.89173 0.25508 0.0
C997 C 0.5271 0.89232 0.25548 0.0
C998 C 0.37633 0.24379 0.50491 0.0
C999 C 0.3615 0.22522 0.52274 0.0
C1000 C 0.37527 0.27688 0.50585 0.0
C1001 C 0.35943 0.29268 0.52471 0.0
H1002 H 0.39224 0.2329 0.49212 0.0
H1003 H 0.39039 0.28994 0.49371 0.0
S1004 S 0.31231 0.25505 0.57316 0.0
N1005 N 0.32672 0.22535 0.55753 0.0
N1006 N 0.32484 0.28701 0.55935 0.0
C1007 C 0.34129 0.27434 0.54064 0.0
C1008 C 0.34229 0.2408 0.53963 0.0
C1009 C 0.99088 0.09338 0.78924 0.0
C1010 C 0.97435 0.11228 0.77262 0.0
C1011 C 0.02389 0.09275 0.78969 0.0
C1012 C 0.04189 0.11096 0.77351 0.0
H1013 H 0.97837 0.08217 0.80401 0.0
H1014 H 0.03529 0.08103 0.80476 0.0
S1015 S 0.01017 0.16097 0.72425 0.0
N1016 N 0.9787 0.14661 0.73768 0.0
N1017 N 0.04045 0.14538 0.73847 0.0
C1018 C 0.02568 0.12684 0.75494 0.0
C1019 C 0.99202 0.12751 0.75451 0.0
C1020 C 0.1732 0.24252 0.95333 0.0
C1021 C 0.15528 0.22403 0.96938 0.0
C1022 C 0.17223 0.2755 0.95417 0.0
C1023 C 0.15325 0.29151 0.97105 0.0
H1024 H 0.18493 0.23151 0.9381 0.0
H1025 H 0.18321 0.28841 0.9395 0.0
S1026 S 0.10529 0.25427 0.0192 0.0
N1027 N 0.12111 0.22443 0.00457 0.0
N1028 N 0.11921 0.28615 0.00607 0.0
C1029 C 0.13834 0.27335 0.98902 0.0
C1030 C 0.13937 0.23972 0.9882 0.0
C1031 C 0.99264 0.92359 0.20414 0.0
C1032 C 0.97593 0.90494 0.22084 0.0
C1033 C 0.02565 0.92392 0.2037 0.0
C1034 C 0.04347 0.90569 0.21998 0.0
H1035 H 0.98024 0.93475 0.18929 0.0
H1036 H 0.03716 0.93538 0.18856 0.0
S1037 S 0.01131 0.85662 0.26963 0.0
N1038 N 0.97996 0.87103 0.25605 0.0
N1039 N 0.04173 0.87176 0.25529 0.0
C1040 C 0.02711 0.89019 0.23866 0.0
C1041 C 0.99345 0.88979 0.23908 0.0
C1042 C 0.37512 0.74085 0.4881 0.0
C1043 C 0.35949 0.72483 0.46924 0.0
C1044 C 0.37617 0.77395 0.48882 0.0
C1045 C 0.36154 0.79231 0.47077 0.0
H1046 H 0.3901 0.72792 0.50042 0.0
H1047 H 0.39195 0.78498 0.50164 0.0
S1048 S 0.31283 0.76192 0.42027 0.0
N1049 N 0.32523 0.73011 0.43437 0.0
N1050 N 0.3271 0.79179 0.43578 0.0
C1051 C 0.3425 0.77655 0.45387 0.0
C1052 C 0.3415 0.74299 0.45309 0.0
C1053 C 0.49094 0.09125 0.70328 0.0
C1054 C 0.47433 0.11026 0.71978 0.0
C1055 C 0.52394 0.09065 0.70294 0.0
C1056 C 0.54182 0.10903 0.71908 0.0
H1057 H 0.47851 0.07995 0.68852 0.0
H1058 H 0.53543 0.07887 0.68794 0.0
S1059 S 0.50981 0.15919 0.76814 0.0
N1060 N 0.47843 0.14472 0.75466 0.0
N1061 N 0.54018 0.14358 0.75404 0.0
C1062 C 0.52551 0.12493 0.73759 0.0
C1063 C 0.49186 0.12555 0.73793 0.0
C1064 C 0.84208 0.2749 0.95534 0.0
C1065 C 0.86084 0.29199 0.97172 0.0
C1066 C 0.84211 0.24189 0.95514 0.0
C1067 C 0.86092 0.22449 0.9713 0.0
H1068 H 0.83055 0.28701 0.94052 0.0
H1069 H 0.8306 0.23008 0.94017 0.0
S1070 S 0.9105 0.25779 0.02018 0.0
N1071 N 0.8954 0.2888 0.00659 0.0
N1072 N 0.89546 0.22703 0.00621 0.0
C1073 C 0.87649 0.24124 0.98974 0.0
C1074 C 0.87646 0.27489 0.98994 0.0
C1075 C 0.64142 0.77533 0.48747 0.0
C1076 C 0.65673 0.79272 0.46918 0.0
C1077 C 0.64152 0.7422 0.48735 0.0
C1078 C 0.65688 0.72515 0.46889 0.0
H1079 H 0.62593 0.78721 0.50005 0.0
H1080 H 0.62608 0.73008 0.49982 0.0
S1081 S 0.70488 0.75941 0.41946 0.0
N1082 N 0.69134 0.79014 0.43434 0.0
N1083 N 0.69149 0.7284 0.43408 0.0
C1084 C 0.67544 0.74231 0.45248 0.0
C1085 C 0.67536 0.7759 0.45262 0.0
C1086 C 0.8751 0.74156 0.00542 0.0
C1087 C 0.85985 0.72474 0.02405 0.0
C1088 C 0.87559 0.77469 0.00527 0.0
C1089 C 0.86085 0.79225 0.02374 0.0
H1090 H 0.8902 0.72924 0.99281 0.0
H1091 H 0.89106 0.78635 0.99256 0.0
S1092 S 0.81304 0.75958 0.0739 0.0
N1093 N 0.82581 0.72841 0.05917 0.0
N1094 N 0.82673 0.79013 0.05889 0.0
C1095 C 0.84222 0.77568 0.04045 0.0
C1096 C 0.84173 0.74211 0.04061 0.0
C1097 C 0.64106 0.27608 0.50715 0.0
C1098 C 0.65637 0.29292 0.52574 0.0
C1099 C 0.64098 0.24294 0.5068 0.0
C1100 C 0.65623 0.22535 0.525 0.0
H1101 H 0.62568 0.28834 0.49472 0.0
H1102 H 0.62553 0.23121 0.49411 0.0
S1103 S 0.70418 0.25812 0.57506 0.0
N1104 N 0.69083 0.28928 0.56062 0.0
N1105 N 0.6907 0.22755 0.55994 0.0
C1106 C 0.67478 0.242 0.54172 0.0
C1107 C 0.67485 0.27558 0.54209 0.0
C1108 C 0.98782 0.42367 0.78931 0.0
C1109 C 0.97094 0.40488 0.77282 0.0
C1110 C 0.02082 0.424 0.78951 0.0
C1111 C 0.03842 0.40553 0.77324 0.0
H1112 H 0.97559 0.43493 0.8042 0.0
H1113 H 0.03251 0.4355 0.80455 0.0
S1114 S 1.00566 0.35609 0.72406 0.0
N1115 N 0.9745 0.37072 0.73774 0.0
N1116 N 0.03625 0.37132 0.73811 0.0
C1117 C 0.02185 0.38997 0.7547 0.0
C1118 C 0.9882 0.38964 0.7545 0.0
C1119 C 0.48889 0.59297 0.29163 0.0
C1120 C 0.47181 0.61102 0.27477 0.0
C1121 C 0.5219 0.59275 0.29173 0.0
C1122 C 0.53939 0.6106 0.27498 0.0
H1123 H 0.47678 0.58207 0.30674 0.0
H1124 H 0.53371 0.5817 0.30692 0.0
S1125 S 0.50616 0.65809 0.22482 0.0
N1126 N 0.47511 0.64395 0.23895 0.0
N1127 N 0.5369 0.64355 0.23914 0.0
C1128 C 0.52264 0.62556 0.25623 0.0
C1129 C 0.48895 0.62578 0.25613 0.0
C1130 C 0.48773 0.42391 0.70426 0.0
C1131 C 0.47081 0.40474 0.72046 0.0
C1132 C 0.52074 0.42433 0.70413 0.0
C1133 C 0.53836 0.40557 0.72018 0.0
H1134 H 0.47551 0.43565 0.68959 0.0
H1135 H 0.53245 0.43637 0.68936 0.0
S1136 S 0.50553 0.35443 0.7683 0.0
N1137 N 0.47437 0.36941 0.75485 0.0
N1138 N 0.53614 0.37018 0.75461 0.0
C1139 C 0.52174 0.38929 0.73833 0.0
C1140 C 0.48807 0.38886 0.73846 0.0
C1141 C 0.98925 0.59248 0.20302 0.0
C1142 C 0.97174 0.61083 0.21942 0.0
C1143 C 0.02226 0.59251 0.20329 0.0
C1144 C 0.03928 0.61093 0.21995 0.0
H1145 H 0.9775 0.58118 0.18792 0.0
H1146 H 0.03443 0.58128 0.18835 0.0
S1147 S 1.00481 0.65936 0.26904 0.0
N1148 N 0.97412 0.6446 0.2548 0.0
N1149 N 0.03589 0.64469 0.25528 0.0
C1150 C 0.02208 0.62614 0.23833 0.0
C1151 C 0.98841 0.6261 0.23806 0.0
loop_
_geom_bond_atom_site_label_1
_geom_bond_atom_site_label_2
_geom_bond_distance
_geom_bond_site_symmetry_2
_ccdc_geom_bond_type
Co0 O1 2.216 . S
Co0 O2 2.091 1_554 S
Co0 O4 2.004 . S
Co0 O10 2.021 . S
Co0 O12 2.137 . S
Co0 O13 2.244 . S
O1 Co0 2.216 . S
O1 C8 1.247 . S
O2 Co0 2.091 1_556 S
O2 C8 1.261 1_556 S
C3 O12 1.247 . S
C3 O13 1.272 . S
O4 Co0 2.004 . S
O4 C9 1.259 . S
Co5 O6 2.061 . S
Co5 O11 2.052 . S
Co5 O13 2.135 . S
O6 Co5 2.061 . S
O6 C9 1.235 . S
C7 O10 1.238 . S
C7 O11 1.241 . S
C8 O1 1.247 . S
C8 O2 1.261 1_554 S
C9 O4 1.259 . S
C9 O6 1.235 . S
O10 Co0 2.021 . S
O10 C7 1.238 . S
O11 Co5 2.052 . S
O11 C7 1.241 . S
O12 Co0 2.137 . S
O12 C3 1.247 . S
O13 Co0 2.244 . S
O13 C3 1.272 . S
O13 Co5 2.135 . S
Co14 O15 2.216 . S
Co14 O16 2.091 . S
Co14 O18 2.004 . S
Co14 O24 2.021 . S
Co14 O26 2.137 . S
Co14 O27 2.244 . S
O15 Co14 2.216 . S
O15 C22 1.247 . S
O16 Co14 2.091 . S
O16 C22 1.261 . S
C17 O26 1.247 . S
C17 O27 1.272 . S
O18 Co14 2.004 . S
O18 C23 1.259 . S
Co19 O20 2.061 . S
Co19 O25 2.052 . S
Co19 O27 2.135 . S
O20 Co19 2.061 . S
O20 C23 1.235 . S
C21 O24 1.238 . S
C21 O25 1.241 . S
C22 O15 1.247 . S
C22 O16 1.261 . S
C23 O18 1.259 . S
C23 O20 1.235 . S
O24 Co14 2.021 . S
O24 C21 1.238 . S
O25 Co19 2.052 . S
O25 C21 1.241 . S
O26 Co14 2.137 . S
O26 C17 1.247 . S
O27 Co14 2.244 . S
O27 C17 1.272 . S
O27 Co19 2.135 . S
Co28 O29 2.216 . S
Co28 O30 2.091 . S
Co28 O32 2.004 . S
Co28 O38 2.021 . S
Co28 O40 2.137 . S
Co28 O41 2.244 . S
O29 Co28 2.216 . S
O29 C36 1.247 . S
O30 Co28 2.091 . S
O30 C36 1.261 . S
C31 O40 1.247 . S
C31 O41 1.272 . S
O32 Co28 2.004 . S
O32 C37 1.259 . S
Co33 O34 2.061 . S
Co33 O39 2.052 . S
Co33 O41 2.135 . S
O34 Co33 2.061 . S
O34 C37 1.235 . S
C35 O38 1.238 . S
C35 O39 1.241 . S
C36 O29 1.247 . S
C36 O30 1.261 . S
C37 O32 1.259 . S
C37 O34 1.235 . S
O38 Co28 2.021 . S
O38 C35 1.238 . S
O39 Co33 2.052 . S
O39 C35 1.241 . S
O40 Co28 2.137 . S
O40 C31 1.247 . S
O41 Co28 2.244 . S
O41 C31 1.272 . S
O41 Co33 2.135 . S
Co42 O43 2.216 . S
Co42 O44 2.091 . S
Co42 O46 2.004 . S
Co42 O52 2.021 . S
Co42 O54 2.137 . S
Co42 O55 2.244 . S
O43 Co42 2.216 . S
O43 C50 1.247 . S
O44 Co42 2.091 . S
O44 C50 1.261 . S
C45 O54 1.247 . S
C45 O55 1.272 . S
O46 Co42 2.004 . S
O46 C51 1.259 . S
Co47 O48 2.061 . S
Co47 O53 2.052 . S
Co47 O55 2.135 . S
O48 Co47 2.061 . S
O48 C51 1.235 . S
C49 O52 1.238 . S
C49 O53 1.241 . S
C50 O43 1.247 . S
C50 O44 1.261 . S
C51 O46 1.259 . S
C51 O48 1.235 . S
O52 Co42 2.021 . S
O52 C49 1.238 . S
O53 Co47 2.052 . S
O53 C49 1.241 . S
O54 Co42 2.137 . S
O54 C45 1.247 . S
O55 Co42 2.244 . S
O55 C45 1.272 . S
O55 Co47 2.135 . S
Co56 O57 2.216 . S
Co56 O58 2.091 1_556 S
Co56 O60 2.004 . S
Co56 O66 2.021 . S
Co56 O68 2.137 . S
Co56 O69 2.244 . S
O57 Co56 2.216 . S
O57 C64 1.247 . S
O58 Co56 2.091 1_554 S
O58 C64 1.261 1_554 S
C59 O68 1.247 . S
C59 O69 1.272 . S
O60 Co56 2.004 . S
O60 C65 1.259 . S
Co61 O62 2.061 . S
Co61 O67 2.052 . S
Co61 O69 2.135 . S
O62 Co61 2.061 . S
O62 C65 1.235 . S
C63 O66 1.238 . S
C63 O67 1.241 . S
C64 O57 1.247 . S
C64 O58 1.261 1_556 S
C65 O60 1.259 . S
C65 O62 1.235 . S
O66 Co56 2.021 . S
O66 C63 1.238 . S
O67 Co61 2.052 . S
O67 C63 1.241 . S
O68 Co56 2.137 . S
O68 C59 1.247 . S
O69 Co56 2.244 . S
O69 C59 1.272 . S
O69 Co61 2.135 . S
Co70 O71 2.216 . S
Co70 O72 2.091 . S
Co70 O74 2.004 . S
Co70 O80 2.021 . S
Co70 O82 2.137 . S
Co70 O83 2.244 . S
O71 Co70 2.216 . S
O71 C78 1.247 . S
O72 Co70 2.091 . S
O72 C78 1.261 . S
C73 O82 1.247 . S
C73 O83 1.272 . S
O74 Co70 2.004 . S
O74 C79 1.259 . S
Co75 O76 2.061 . S
Co75 O81 2.052 . S
Co75 O83 2.135 . S
O76 Co75 2.061 . S
O76 C79 1.235 . S
C77 O80 1.238 . S
C77 O81 1.241 . S
C78 O71 1.247 . S
C78 O72 1.261 . S
C79 O74 1.259 . S
C79 O76 1.235 . S
O80 Co70 2.021 . S
O80 C77 1.238 . S
O81 Co75 2.052 . S
O81 C77 1.241 . S
O82 Co70 2.137 . S
O82 C73 1.247 . S
O83 Co70 2.244 . S
O83 C73 1.272 . S
O83 Co75 2.135 . S
Co84 O85 2.216 . S
Co84 O86 2.091 . S
Co84 O88 2.004 . S
Co84 O94 2.021 . S
Co84 O96 2.137 . S
Co84 O97 2.244 . S
O85 Co84 2.216 . S
O85 C92 1.247 . S
O86 Co84 2.091 . S
O86 C92 1.261 . S
C87 O96 1.247 . S
C87 O97 1.272 . S
O88 Co84 2.004 . S
O88 C93 1.259 . S
Co89 O90 2.061 . S
Co89 O95 2.052 . S
Co89 O97 2.135 . S
O90 Co89 2.061 . S
O90 C93 1.235 . S
C91 O94 1.238 . S
C91 O95 1.241 . S
C92 O85 1.247 . S
C92 O86 1.261 . S
C93 O88 1.259 . S
C93 O90 1.235 . S
O94 Co84 2.021 . S
O94 C91 1.238 . S
O95 Co89 2.052 . S
O95 C91 1.241 . S
O96 Co84 2.137 . S
O96 C87 1.247 . S
O97 Co84 2.244 . S
O97 C87 1.272 . S
O97 Co89 2.135 . S
Co98 O99 2.216 . S
Co98 O100 2.091 . S
Co98 O102 2.004 . S
Co98 O108 2.021 . S
Co98 O110 2.137 . S
Co98 O111 2.244 . S
O99 Co98 2.216 . S
O99 C106 1.247 . S
O100 Co98 2.091 . S
O100 C106 1.261 . S
C101 O110 1.247 . S
C101 O111 1.272 . S
O102 Co98 2.004 . S
O102 C107 1.259 . S
Co103 O104 2.061 . S
Co103 O109 2.052 . S
Co103 O111 2.135 . S
O104 Co103 2.061 . S
O104 C107 1.235 . S
C105 O108 1.238 . S
C105 O109 1.241 . S
C106 O99 1.247 . S
C106 O100 1.261 . S
C107 O102 1.259 . S
C107 O104 1.235 . S
O108 Co98 2.021 . S
O108 C105 1.238 . S
O109 Co103 2.052 . S
O109 C105 1.241 . S
O110 Co98 2.137 . S
O110 C101 1.247 . S
O111 Co98 2.244 . S
O111 C101 1.272 . S
O111 Co103 2.135 . S
Co112 O113 2.216 . S
Co112 O114 2.091 1_556 S
Co112 O116 2.004 . S
Co112 O122 2.021 . S
Co112 O124 2.137 . S
Co112 O125 2.244 . S
O113 Co112 2.216 . S
O113 C120 1.247 . S
O114 Co112 2.091 1_554 S
O114 C120 1.261 1_554 S
C115 O124 1.247 . S
C115 O125 1.272 . S
O116 Co112 2.004 . S
O116 C121 1.259 . S
Co117 O118 2.061 . S
Co117 O123 2.052 . S
Co117 O125 2.135 . S
O118 Co117 2.061 . S
O118 C121 1.235 . S
C119 O122 1.238 . S
C119 O123 1.241 . S
C120 O113 1.247 . S
C120 O114 1.261 1_556 S
C121 O116 1.259 . S
C121 O118 1.235 . S
O122 Co112 2.021 . S
O122 C119 1.238 . S
O123 Co117 2.052 . S
O123 C119 1.241 . S
O124 Co112 2.137 . S
O124 C115 1.247 . S
O125 Co112 2.244 . S
O125 C115 1.272 . S
O125 Co117 2.135 . S
Co126 O127 2.216 . S
Co126 O128 2.091 . S
Co126 O130 2.004 . S
Co126 O136 2.021 . S
Co126 O138 2.137 . S
Co126 O139 2.244 . S
O127 Co126 2.216 . S
O127 C134 1.247 . S
O128 Co126 2.091 . S
O128 C134 1.261 . S
C129 O138 1.247 . S
C129 O139 1.272 . S
O130 Co126 2.004 . S
O130 C135 1.259 . S
Co131 O132 2.061 . S
Co131 O137 2.052 . S
Co131 O139 2.135 . S
O132 Co131 2.061 . S
O132 C135 1.235 . S
C133 O136 1.238 . S
C133 O137 1.241 . S
C134 O127 1.247 . S
C134 O128 1.261 . S
C135 O130 1.259 . S
C135 O132 1.235 . S
O136 Co126 2.021 . S
O136 C133 1.238 . S
O137 Co131 2.052 . S
O137 C133 1.241 . S
O138 Co126 2.137 . S
O138 C129 1.247 . S
O139 Co126 2.244 . S
O139 C129 1.272 . S
O139 Co131 2.135 . S
Co140 O141 2.216 . S
Co140 O142 2.091 . S
Co140 O144 2.004 . S
Co140 O150 2.021 . S
Co140 O152 2.137 . S
Co140 O153 2.244 . S
O141 Co140 2.216 . S
O141 C148 1.247 . S
O142 Co140 2.091 . S
O142 C148 1.261 . S
C143 O152 1.247 . S
C143 O153 1.272 . S
O144 Co140 2.004 . S
O144 C149 1.259 . S
Co145 O146 2.061 . S
Co145 O151 2.052 . S
Co145 O153 2.135 . S
O146 Co145 2.061 . S
O146 C149 1.235 . S
C147 O150 1.238 . S
C147 O151 1.241 . S
C148 O141 1.247 . S
C148 O142 1.261 . S
C149 O144 1.259 . S
C149 O146 1.235 . S
O150 Co140 2.021 . S
O150 C147 1.238 . S
O151 Co145 2.052 . S
O151 C147 1.241 . S
O152 Co140 2.137 . S
O152 C143 1.247 . S
O153 Co140 2.244 . S
O153 C143 1.272 . S
O153 Co145 2.135 . S
Co154 O155 2.216 . S
Co154 O156 2.091 . S
Co154 O158 2.004 . S
Co154 O164 2.021 . S
Co154 O166 2.137 . S
Co154 O167 2.244 . S
O155 Co154 2.216 . S
O155 C162 1.247 . S
O156 Co154 2.091 . S
O156 C162 1.261 . S
C157 O166 1.247 . S
C157 O167 1.272 . S
O158 Co154 2.004 . S
O158 C163 1.259 . S
Co159 O160 2.061 . S
Co159 O165 2.052 . S
Co159 O167 2.135 . S
O160 Co159 2.061 . S
O160 C163 1.235 . S
C161 O164 1.238 . S
C161 O165 1.241 . S
C162 O155 1.247 . S
C162 O156 1.261 . S
C163 O158 1.259 . S
C163 O160 1.235 . S
O164 Co154 2.021 . S
O164 C161 1.238 . S
O165 Co159 2.052 . S
O165 C161 1.241 . S
O166 Co154 2.137 . S
O166 C157 1.247 . S
O167 Co154 2.244 . S
O167 C157 1.272 . S
O167 Co159 2.135 . S
Co168 O169 2.216 . S
Co168 O170 2.091 1_554 S
Co168 O172 2.004 . S
Co168 O178 2.021 . S
Co168 O180 2.137 . S
Co168 O181 2.244 . S
O169 Co168 2.216 . S
O169 C176 1.247 . S
O170 Co168 2.091 1_556 S
O170 C176 1.261 1_556 S
C171 O180 1.247 . S
C171 O181 1.272 . S
O172 Co168 2.004 . S
O172 C177 1.259 . S
Co173 O174 2.061 . S
Co173 O179 2.052 . S
Co173 O181 2.135 . S
O174 Co173 2.061 . S
O174 C177 1.235 . S
C175 O178 1.238 . S
C175 O179 1.241 . S
C176 O169 1.247 . S
C176 O170 1.261 1_554 S
C177 O172 1.259 . S
C177 O174 1.235 . S
O178 Co168 2.021 . S
O178 C175 1.238 . S
O179 Co173 2.052 . S
O179 C175 1.241 . S
O180 Co168 2.137 . S
O180 C171 1.247 . S
O181 Co168 2.244 . S
O181 C171 1.272 . S
O181 Co173 2.135 . S
Co182 O183 2.216 . S
Co182 O184 2.091 . S
Co182 O186 2.004 . S
Co182 O192 2.021 . S
Co182 O194 2.137 . S
Co182 O195 2.244 . S
O183 Co182 2.216 . S
O183 C190 1.247 . S
O184 Co182 2.091 . S
O184 C190 1.261 . S
C185 O194 1.247 . S
C185 O195 1.272 . S
O186 Co182 2.004 . S
O186 C191 1.259 . S
Co187 O188 2.061 . S
Co187 O193 2.052 . S
Co187 O195 2.135 . S
O188 Co187 2.061 . S
O188 C191 1.235 . S
C189 O192 1.238 . S
C189 O193 1.241 . S
C190 O183 1.247 . S
C190 O184 1.261 . S
C191 O186 1.259 . S
C191 O188 1.235 . S
O192 Co182 2.021 . S
O192 C189 1.238 . S
O193 Co187 2.052 . S
O193 C189 1.241 . S
O194 Co182 2.137 . S
O194 C185 1.247 . S
O195 Co182 2.244 . S
O195 C185 1.272 . S
O195 Co187 2.135 . S
Co196 O197 2.216 . S
Co196 O198 2.091 . S
Co196 O200 2.004 . S
Co196 O206 2.021 . S
Co196 O208 2.137 . S
Co196 O209 2.244 . S
O197 Co196 2.216 . S
O197 C204 1.247 . S
O198 Co196 2.091 . S
O198 C204 1.261 . S
C199 O208 1.247 . S
C199 O209 1.272 . S
O200 Co196 2.004 . S
O200 C205 1.259 . S
Co201 O202 2.061 . S
Co201 O207 2.052 . S
Co201 O209 2.135 . S
O202 Co201 2.061 . S
O202 C205 1.235 . S
C203 O206 1.238 . S
C203 O207 1.241 . S
C204 O197 1.247 . S
C204 O198 1.261 . S
C205 O200 1.259 . S
C205 O202 1.235 . S
O206 Co196 2.021 . S
O206 C203 1.238 . S
O207 Co201 2.052 . S
O207 C203 1.241 . S
O208 Co196 2.137 . S
O208 C199 1.247 . S
O209 Co196 2.244 . S
O209 C199 1.272 . S
O209 Co201 2.135 . S
Co210 O211 2.216 . S
Co210 O212 2.091 . S
Co210 O214 2.004 . S
Co210 O220 2.021 . S
Co210 O222 2.137 . S
Co210 O223 2.244 . S
O211 Co210 2.216 . S
O211 C218 1.247 . S
O212 Co210 2.091 . S
O212 C218 1.261 . S
C213 O222 1.247 . S
C213 O223 1.272 . S
O214 Co210 2.004 . S
O214 C219 1.259 . S
Co215 O216 2.061 . S
Co215 O221 2.052 . S
Co215 O223 2.135 . S
O216 Co215 2.061 . S
O216 C219 1.235 . S
C217 O220 1.238 . S
C217 O221 1.241 . S
C218 O211 1.247 . S
C218 O212 1.261 . S
C219 O214 1.259 . S
C219 O216 1.235 . S
O220 Co210 2.021 . S
O220 C217 1.238 . S
O221 Co215 2.052 . S
O221 C217 1.241 . S
O222 Co210 2.137 . S
O222 C213 1.247 . S
O223 Co210 2.244 . S
O223 C213 1.272 . S
O223 Co215 2.135 . S
Co224 O225 2.216 . S
Co224 O226 2.091 . S
Co224 O228 2.004 . S
Co224 O234 2.021 . S
Co224 O236 2.137 . S
Co224 O237 2.244 . S
O225 Co224 2.216 . S
O225 C232 1.247 . S
O226 Co224 2.091 . S
O226 C232 1.261 . S
C227 O236 1.247 . S
C227 O237 1.272 . S
O228 Co224 2.004 . S
O228 C233 1.259 . S
Co229 O230 2.061 . S
Co229 O235 2.052 . S
Co229 O237 2.135 . S
O230 Co229 2.061 . S
O230 C233 1.235 . S
C231 O234 1.238 . S
C231 O235 1.241 . S
C232 O225 1.247 . S
C232 O226 1.261 . S
C233 O228 1.259 . S
C233 O230 1.235 . S
O234 Co224 2.021 . S
O234 C231 1.238 . S
O235 Co229 2.052 . S
O235 C231 1.241 . S
O236 Co224 2.137 . S
O236 C227 1.247 . S
O237 Co224 2.244 . S
O237 C227 1.272 . S
O237 Co229 2.135 . S
Co238 O239 2.216 . S
Co238 O240 2.091 . S
Co238 O242 2.004 . S
Co238 O248 2.021 . S
Co238 O250 2.137 . S
Co238 O251 2.244 . S
O239 Co238 2.216 . S
O239 C246 1.247 . S
O240 Co238 2.091 . S
O240 C246 1.261 . S
C241 O250 1.247 . S
C241 O251 1.272 . S
O242 Co238 2.004 . S
O242 C247 1.259 . S
Co243 O244 2.061 . S
Co243 O249 2.052 . S
Co243 O251 2.135 . S
O244 Co243 2.061 . S
O244 C247 1.235 . S
C245 O248 1.238 . S
C245 O249 1.241 . S
C246 O239 1.247 . S
C246 O240 1.261 . S
C247 O242 1.259 . S
C247 O244 1.235 . S
O248 Co238 2.021 . S
O248 C245 1.238 . S
O249 Co243 2.052 . S
O249 C245 1.241 . S
O250 Co238 2.137 . S
O250 C241 1.247 . S
O251 Co238 2.244 . S
O251 C241 1.272 . S
O251 Co243 2.135 . S
Co252 O253 2.216 . S
Co252 O254 2.091 1_554 S
Co252 O256 2.004 . S
Co252 O262 2.021 . S
Co252 O264 2.137 . S
Co252 O265 2.244 . S
O253 Co252 2.216 . S
O253 C260 1.247 . S
O254 Co252 2.091 1_556 S
O254 C260 1.261 1_556 S
C255 O264 1.247 . S
C255 O265 1.272 . S
O256 Co252 2.004 . S
O256 C261 1.259 . S
Co257 O258 2.061 . S
Co257 O263 2.052 . S
Co257 O265 2.135 . S
O258 Co257 2.061 . S
O258 C261 1.235 . S
C259 O262 1.238 . S
C259 O263 1.241 . S
C260 O253 1.247 . S
C260 O254 1.261 1_554 S
C261 O256 1.259 . S
C261 O258 1.235 . S
O262 Co252 2.021 . S
O262 C259 1.238 . S
O263 Co257 2.052 . S
O263 C259 1.241 . S
O264 Co252 2.137 . S
O264 C255 1.247 . S
O265 Co252 2.244 . S
O265 C255 1.272 . S
O265 Co257 2.135 . S
Co266 O267 2.216 . S
Co266 O268 2.091 . S
Co266 O270 2.004 . S
Co266 O276 2.021 . S
Co266 O278 2.137 . S
Co266 O279 2.244 . S
O267 Co266 2.216 . S
O267 C274 1.247 . S
O268 Co266 2.091 . S
O268 C274 1.261 . S
C269 O278 1.247 . S
C269 O279 1.272 . S
O270 Co266 2.004 . S
O270 C275 1.259 . S
Co271 O272 2.061 . S
Co271 O277 2.052 . S
Co271 O279 2.135 . S
O272 Co271 2.061 . S
O272 C275 1.235 . S
C273 O276 1.238 . S
C273 O277 1.241 . S
C274 O267 1.247 . S
C274 O268 1.261 . S
C275 O270 1.259 . S
C275 O272 1.235 . S
O276 Co266 2.021 . S
O276 C273 1.238 . S
O277 Co271 2.052 . S
O277 C273 1.241 . S
O278 Co266 2.137 . S
O278 C269 1.247 . S
O279 Co266 2.244 . S
O279 C269 1.272 . S
O279 Co271 2.135 . S
Co280 O281 2.216 . S
Co280 O282 2.091 . S
Co280 O284 2.004 . S
Co280 O290 2.021 . S
Co280 O292 2.137 . S
Co280 O293 2.244 . S
O281 Co280 2.216 . S
O281 C288 1.247 . S
O282 Co280 2.091 . S
O282 C288 1.261 . S
C283 O292 1.247 . S
C283 O293 1.272 . S
O284 Co280 2.004 . S
O284 C289 1.259 . S
Co285 O286 2.061 . S
Co285 O291 2.052 . S
Co285 O293 2.135 . S
O286 Co285 2.061 . S
O286 C289 1.235 . S
C287 O290 1.238 . S
C287 O291 1.241 . S
C288 O281 1.247 . S
C288 O282 1.261 . S
C289 O284 1.259 . S
C289 O286 1.235 . S
O290 Co280 2.021 . S
O290 C287 1.238 . S
O291 Co285 2.052 . S
O291 C287 1.241 . S
O292 Co280 2.137 . S
O292 C283 1.247 . S
O293 Co280 2.244 . S
O293 C283 1.272 . S
O293 Co285 2.135 . S
Co294 O295 2.216 . S
Co294 O296 2.091 . S
Co294 O298 2.004 . S
Co294 O304 2.021 . S
Co294 O306 2.137 . S
Co294 O307 2.244 . S
O295 Co294 2.216 . S
O295 C302 1.247 . S
O296 Co294 2.091 . S
O296 C302 1.261 . S
C297 O306 1.247 . S
C297 O307 1.272 . S
O298 Co294 2.004 . S
O298 C303 1.259 . S
Co299 O300 2.061 . S
Co299 O305 2.052 . S
Co299 O307 2.135 . S
O300 Co299 2.061 . S
O300 C303 1.235 . S
C301 O304 1.238 . S
C301 O305 1.241 . S
C302 O295 1.247 . S
C302 O296 1.261 . S
C303 O298 1.259 . S
C303 O300 1.235 . S
O304 Co294 2.021 . S
O304 C301 1.238 . S
O305 Co299 2.052 . S
O305 C301 1.241 . S
O306 Co294 2.137 . S
O306 C297 1.247 . S
O307 Co294 2.244 . S
O307 C297 1.272 . S
O307 Co299 2.135 . S
Co308 O309 2.216 . S
Co308 O310 2.091 1_556 S
Co308 O312 2.004 . S
Co308 O318 2.021 . S
Co308 O320 2.137 . S
Co308 O321 2.244 . S
O309 Co308 2.216 . S
O309 C316 1.247 . S
O310 Co308 2.091 1_554 S
O310 C316 1.261 1_554 S
C311 O320 1.247 . S
C311 O321 1.272 . S
O312 Co308 2.004 . S
O312 C317 1.259 . S
Co313 O314 2.061 . S
Co313 O319 2.052 . S
Co313 O321 2.135 . S
O314 Co313 2.061 . S
O314 C317 1.235 . S
C315 O318 1.238 . S
C315 O319 1.241 . S
C316 O309 1.247 . S
C316 O310 1.261 1_556 S
C317 O312 1.259 . S
C317 O314 1.235 . S
O318 Co308 2.021 . S
O318 C315 1.238 . S
O319 Co313 2.052 . S
O319 C315 1.241 . S
O320 Co308 2.137 . S
O320 C311 1.247 . S
O321 Co308 2.244 . S
O321 C311 1.272 . S
O321 Co313 2.135 . S
Co322 O323 2.216 . S
Co322 O324 2.091 . S
Co322 O326 2.004 . S
Co322 O332 2.021 . S
Co322 O334 2.137 . S
Co322 O335 2.244 . S
O323 Co322 2.216 . S
O323 C330 1.247 . S
O324 Co322 2.091 . S
O324 C330 1.261 . S
C325 O334 1.247 . S
C325 O335 1.272 . S
O326 Co322 2.004 . S
O326 C331 1.259 . S
Co327 O328 2.061 . S
Co327 O333 2.052 . S
Co327 O335 2.135 . S
O328 Co327 2.061 . S
O328 C331 1.235 . S
C329 O332 1.238 . S
C329 O333 1.241 . S
C330 O323 1.247 . S
C330 O324 1.261 . S
C331 O326 1.259 . S
C331 O328 1.235 . S
O332 Co322 2.021 . S
O332 C329 1.238 . S
O333 Co327 2.052 . S
O333 C329 1.241 . S
O334 Co322 2.137 . S
O334 C325 1.247 . S
O335 Co322 2.244 . S
O335 C325 1.272 . S
O335 Co327 2.135 . S
Co336 O337 2.216 . S
Co336 O338 2.091 . S
Co336 O340 2.004 . S
Co336 O346 2.021 . S
Co336 O348 2.137 . S
Co336 O349 2.244 . S
O337 Co336 2.216 . S
O337 C344 1.247 . S
O338 Co336 2.091 . S
O338 C344 1.261 . S
C339 O348 1.247 . S
C339 O349 1.272 . S
O340 Co336 2.004 . S
O340 C345 1.259 . S
Co341 O342 2.061 . S
Co341 O347 2.052 . S
Co341 O349 2.135 . S
O342 Co341 2.061 . S
O342 C345 1.235 . S
C343 O346 1.238 . S
C343 O347 1.241 . S
C344 O337 1.247 . S
C344 O338 1.261 . S
C345 O340 1.259 . S
C345 O342 1.235 . S
O346 Co336 2.021 . S
O346 C343 1.238 . S
O347 Co341 2.052 . S
O347 C343 1.241 . S
O348 Co336 2.137 . S
O348 C339 1.247 . S
O349 Co336 2.244 . S
O349 C339 1.272 . S
O349 Co341 2.135 . S
Co350 O351 2.216 . S
Co350 O352 2.091 . S
Co350 O354 2.004 . S
Co350 O360 2.021 . S
Co350 O362 2.137 . S
Co350 O363 2.244 . S
O351 Co350 2.216 . S
O351 C358 1.247 . S
O352 Co350 2.091 . S
O352 C358 1.261 . S
C353 O362 1.247 . S
C353 O363 1.272 . S
O354 Co350 2.004 . S
O354 C359 1.259 . S
Co355 O356 2.061 . S
Co355 O361 2.052 . S
Co355 O363 2.135 . S
O356 Co355 2.061 . S
O356 C359 1.235 . S
C357 O360 1.238 . S
C357 O361 1.241 . S
C358 O351 1.247 . S
C358 O352 1.261 . S
C359 O354 1.259 . S
C359 O356 1.235 . S
O360 Co350 2.021 . S
O360 C357 1.238 . S
O361 Co355 2.052 . S
O361 C357 1.241 . S
O362 Co350 2.137 . S
O362 C353 1.247 . S
O363 Co350 2.244 . S
O363 C353 1.272 . S
O363 Co355 2.135 . S
Co364 O365 2.216 . S
Co364 O366 2.091 1_556 S
Co364 O368 2.004 . S
Co364 O374 2.021 . S
Co364 O376 2.137 . S
Co364 O377 2.244 . S
O365 Co364 2.216 . S
O365 C372 1.247 . S
O366 Co364 2.091 1_554 S
O366 C372 1.261 1_554 S
C367 O376 1.247 . S
C367 O377 1.272 . S
O368 Co364 2.004 . S
O368 C373 1.259 . S
Co369 O370 2.061 . S
Co369 O375 2.052 . S
Co369 O377 2.135 . S
O370 Co369 2.061 . S
O370 C373 1.235 . S
C371 O374 1.238 . S
C371 O375 1.241 . S
C372 O365 1.247 . S
C372 O366 1.261 1_556 S
C373 O368 1.259 . S
C373 O370 1.235 . S
O374 Co364 2.021 . S
O374 C371 1.238 . S
O375 Co369 2.052 . S
O375 C371 1.241 . S
O376 Co364 2.137 . S
O376 C367 1.247 . S
O377 Co364 2.244 . S
O377 C367 1.272 . S
O377 Co369 2.135 . S
Co378 O379 2.216 . S
Co378 O380 2.091 . S
Co378 O382 2.004 . S
Co378 O388 2.021 . S
Co378 O390 2.137 . S
Co378 O391 2.244 . S
O379 Co378 2.216 . S
O379 C386 1.247 . S
O380 Co378 2.091 . S
O380 C386 1.261 . S
C381 O390 1.247 . S
C381 O391 1.272 . S
O382 Co378 2.004 . S
O382 C387 1.259 . S
Co383 O384 2.061 . S
Co383 O389 2.052 . S
Co383 O391 2.135 . S
O384 Co383 2.061 . S
O384 C387 1.235 . S
C385 O388 1.238 . S
C385 O389 1.241 . S
C386 O379 1.247 . S
C386 O380 1.261 . S
C387 O382 1.259 . S
C387 O384 1.235 . S
O388 Co378 2.021 . S
O388 C385 1.238 . S
O389 Co383 2.052 . S
O389 C385 1.241 . S
O390 Co378 2.137 . S
O390 C381 1.247 . S
O391 Co378 2.244 . S
O391 C381 1.272 . S
O391 Co383 2.135 . S
Co392 O393 2.216 . S
Co392 O394 2.091 . S
Co392 O396 2.004 . S
Co392 O402 2.021 . S
Co392 O404 2.137 . S
Co392 O405 2.244 . S
O393 Co392 2.216 . S
O393 C400 1.247 . S
O394 Co392 2.091 . S
O394 C400 1.261 . S
C395 O404 1.247 . S
C395 O405 1.272 . S
O396 Co392 2.004 . S
O396 C401 1.259 . S
Co397 O398 2.061 . S
Co397 O403 2.052 . S
Co397 O405 2.135 . S
O398 Co397 2.061 . S
O398 C401 1.235 . S
C399 O402 1.238 . S
C399 O403 1.241 . S
C400 O393 1.247 . S
C400 O394 1.261 . S
C401 O396 1.259 . S
C401 O398 1.235 . S
O402 Co392 2.021 . S
O402 C399 1.238 . S
O403 Co397 2.052 . S
O403 C399 1.241 . S
O404 Co392 2.137 . S
O404 C395 1.247 . S
O405 Co392 2.244 . S
O405 C395 1.272 . S
O405 Co397 2.135 . S
Co406 O407 2.216 . S
Co406 O408 2.091 . S
Co406 O410 2.004 . S
Co406 O416 2.021 . S
Co406 O418 2.137 . S
Co406 O419 2.244 . S
O407 Co406 2.216 . S
O407 C414 1.247 . S
O408 Co406 2.091 . S
O408 C414 1.261 . S
C409 O418 1.247 . S
C409 O419 1.272 . S
O410 Co406 2.004 . S
O410 C415 1.259 . S
Co411 O412 2.061 . S
Co411 O417 2.052 . S
Co411 O419 2.135 . S
O412 Co411 2.061 . S
O412 C415 1.235 . S
C413 O416 1.238 . S
C413 O417 1.241 . S
C414 O407 1.247 . S
C414 O408 1.261 . S
C415 O410 1.259 . S
C415 O412 1.235 . S
O416 Co406 2.021 . S
O416 C413 1.238 . S
O417 Co411 2.052 . S
O417 C413 1.241 . S
O418 Co406 2.137 . S
O418 C409 1.247 . S
O419 Co406 2.244 . S
O419 C409 1.272 . S
O419 Co411 2.135 . S
Co420 O421 2.216 . S
Co420 O422 2.091 1_554 S
Co420 O424 2.004 . S
Co420 O430 2.021 . S
Co420 O432 2.137 . S
Co420 O433 2.244 . S
O421 Co420 2.216 . S
O421 C428 1.247 . S
O422 Co420 2.091 1_556 S
O422 C428 1.261 1_556 S
C423 O432 1.247 . S
C423 O433 1.272 . S
O424 Co420 2.004 . S
O424 C429 1.259 . S
Co425 O426 2.061 . S
Co425 O431 2.052 . S
Co425 O433 2.135 . S
O426 Co425 2.061 . S
O426 C429 1.235 . S
C427 O430 1.238 . S
C427 O431 1.241 . S
C428 O421 1.247 . S
C428 O422 1.261 1_554 S
C429 O424 1.259 . S
C429 O426 1.235 . S
O430 Co420 2.021 . S
O430 C427 1.238 . S
O431 Co425 2.052 . S
O431 C427 1.241 . S
O432 Co420 2.137 . S
O432 C423 1.247 . S
O433 Co420 2.244 . S
O433 C423 1.272 . S
O433 Co425 2.135 . S
Co434 O435 2.216 . S
Co434 O436 2.091 . S
Co434 O438 2.004 . S
Co434 O444 2.021 . S
Co434 O446 2.137 . S
Co434 O447 2.244 . S
O435 Co434 2.216 . S
O435 C442 1.247 . S
O436 Co434 2.091 . S
O436 C442 1.261 . S
C437 O446 1.247 . S
C437 O447 1.272 . S
O438 Co434 2.004 . S
O438 C443 1.259 . S
Co439 O440 2.061 . S
Co439 O445 2.052 . S
Co439 O447 2.135 . S
O440 Co439 2.061 . S
O440 C443 1.235 . S
C441 O444 1.238 . S
C441 O445 1.241 . S
C442 O435 1.247 . S
C442 O436 1.261 . S
C443 O438 1.259 . S
C443 O440 1.235 . S
O444 Co434 2.021 . S
O444 C441 1.238 . S
O445 Co439 2.052 . S
O445 C441 1.241 . S
O446 Co434 2.137 . S
O446 C437 1.247 . S
O447 Co434 2.244 . S
O447 C437 1.272 . S
O447 Co439 2.135 . S
C448 C449 1.369 . S
C448 C450 1.419 . S
C448 H452 0.930 . S
C449 C448 1.369 . S
C449 C458 1.429 . S
C450 C448 1.419 . S
C450 C451 1.363 . S
C450 H453 0.929 . S
C451 C450 1.363 . S
C451 C457 1.428 . S
H452 C448 0.930 . S
H453 C450 0.929 . S
S454 N455 1.613 . S
S454 N456 1.610 . S
N455 S454 1.613 . S
N455 C458 1.350 . S
N456 S454 1.610 . S
N456 C457 1.351 . S
C457 C451 1.428 . S
C457 N456 1.351 . S
C457 C458 1.434 . S
C458 C449 1.429 . S
C458 N455 1.350 . S
C458 C457 1.434 . S
C459 C460 1.369 . S
C459 C461 1.419 . S
C459 H463 0.930 . S
C460 C459 1.369 . S
C460 C469 1.429 . S
C461 C459 1.419 . S
C461 C462 1.363 . S
C461 H464 0.929 . S
C462 C461 1.363 . S
C462 C468 1.428 . S
H463 C459 0.930 . S
H464 C461 0.929 . S
S465 N466 1.613 . S
S465 N467 1.610 . S
N466 S465 1.613 . S
N466 C469 1.350 . S
N467 S465 1.610 . S
N467 C468 1.351 . S
C468 C462 1.428 . S
C468 N467 1.351 . S
C468 C469 1.434 . S
C469 C460 1.429 . S
C469 N466 1.350 . S
C469 C468 1.434 . S
C470 C471 1.369 . S
C470 C472 1.419 . S
C470 H474 0.930 . S
C471 C470 1.369 . S
C471 C480 1.429 . S
C472 C470 1.419 . S
C472 C473 1.363 . S
C472 H475 0.929 . S
C473 C472 1.363 . S
C473 C479 1.428 . S
H474 C470 0.930 . S
H475 C472 0.929 . S
S476 N477 1.613 . S
S476 N478 1.610 . S
N477 S476 1.613 . S
N477 C480 1.350 . S
N478 S476 1.610 . S
N478 C479 1.351 . S
C479 C473 1.428 . S
C479 N478 1.351 . S
C479 C480 1.434 . S
C480 C471 1.429 . S
C480 N477 1.350 . S
C480 C479 1.434 . S
C481 C482 1.369 . S
C481 C483 1.419 . S
C481 H485 0.930 . S
C482 C481 1.369 . S
C482 C491 1.429 . S
C483 C481 1.419 . S
C483 C484 1.363 . S
C483 H486 0.929 . S
C484 C483 1.363 . S
C484 C490 1.428 . S
H485 C481 0.930 . S
H486 C483 0.929 . S
S487 N488 1.613 . S
S487 N489 1.610 . S
N488 S487 1.613 . S
N488 C491 1.350 . S
N489 S487 1.610 . S
N489 C490 1.351 . S
C490 C484 1.428 . S
C490 N489 1.351 . S
C490 C491 1.434 . S
C491 C482 1.429 . S
C491 N488 1.350 . S
C491 C490 1.434 . S
C492 C493 1.369 . S
C492 C494 1.419 . S
C492 H496 0.930 . S
C493 C492 1.369 . S
C493 C502 1.429 . S
C494 C492 1.419 . S
C494 C495 1.363 . S
C494 H497 0.929 . S
C495 C494 1.363 . S
C495 C501 1.428 . S
H496 C492 0.930 . S
H497 C494 0.929 . S
S498 N499 1.613 . S
S498 N500 1.610 . S
N499 S498 1.613 . S
N499 C502 1.350 . S
N500 S498 1.610 . S
N500 C501 1.351 . S
C501 C495 1.428 . S
C501 N500 1.351 . S
C501 C502 1.434 . S
C502 C493 1.429 . S
C502 N499 1.350 . S
C502 C501 1.434 . S
C503 C504 1.369 . S
C503 C505 1.419 . S
C503 H507 0.930 . S
C504 C503 1.369 . S
C504 C513 1.429 . S
C505 C503 1.419 . S
C505 C506 1.363 . S
C505 H508 0.929 . S
C506 C505 1.363 . S
C506 C512 1.428 . S
H507 C503 0.930 . S
H508 C505 0.929 . S
S509 N510 1.613 . S
S509 N511 1.610 . S
N510 S509 1.613 . S
N510 C513 1.350 . S
N511 S509 1.610 . S
N511 C512 1.351 . S
C512 C506 1.428 . S
C512 N511 1.351 . S
C512 C513 1.434 . S
C513 C504 1.429 . S
C513 N510 1.350 . S
C513 C512 1.434 . S
C514 C515 1.369 . S
C514 C516 1.419 . S
C514 H518 0.930 . S
C515 C514 1.369 . S
C515 C524 1.429 . S
C516 C514 1.419 . S
C516 C517 1.363 . S
C516 H519 0.929 . S
C517 C516 1.363 . S
C517 C523 1.428 . S
H518 C514 0.930 . S
H519 C516 0.929 . S
S520 N521 1.613 . S
S520 N522 1.610 . S
N521 S520 1.613 . S
N521 C524 1.350 . S
N522 S520 1.610 . S
N522 C523 1.351 . S
C523 C517 1.428 . S
C523 N522 1.351 . S
C523 C524 1.434 . S
C524 C515 1.429 . S
C524 N521 1.350 . S
C524 C523 1.434 . S
C525 C526 1.369 . S
C525 C527 1.419 . S
C525 H529 0.930 . S
C526 C525 1.369 . S
C526 C535 1.429 . S
C527 C525 1.419 . S
C527 C528 1.363 . S
C527 H530 0.929 . S
C528 C527 1.363 . S
C528 C534 1.428 . S
H529 C525 0.930 . S
H530 C527 0.929 . S
S531 N532 1.613 . S
S531 N533 1.610 . S
N532 S531 1.613 . S
N532 C535 1.350 . S
N533 S531 1.610 . S
N533 C534 1.351 . S
C534 C528 1.428 . S
C534 N533 1.351 . S
C534 C535 1.434 . S
C535 C526 1.429 . S
C535 N532 1.350 . S
C535 C534 1.434 . S
C536 C537 1.369 . S
C536 C538 1.419 . S
C536 H540 0.930 . S
C537 C536 1.369 . S
C537 C546 1.429 . S
C538 C536 1.419 . S
C538 C539 1.363 . S
C538 H541 0.929 . S
C539 C538 1.363 . S
C539 C545 1.428 . S
H540 C536 0.930 . S
H541 C538 0.929 . S
S542 N543 1.613 . S
S542 N544 1.610 . S
N543 S542 1.613 . S
N543 C546 1.350 . S
N544 S542 1.610 . S
N544 C545 1.351 . S
C545 C539 1.428 . S
C545 N544 1.351 . S
C545 C546 1.434 . S
C546 C537 1.429 . S
C546 N543 1.350 . S
C546 C545 1.434 . S
C547 C548 1.369 . S
C547 C549 1.419 . S
C547 H551 0.930 . S
C548 C547 1.369 . S
C548 C557 1.429 . S
C549 C547 1.419 . S
C549 C550 1.363 . S
C549 H552 0.929 . S
C550 C549 1.363 . S
C550 C556 1.428 . S
H551 C547 0.930 . S
H552 C549 0.929 . S
S553 N554 1.613 . S
S553 N555 1.610 . S
N554 S553 1.613 . S
N554 C557 1.350 . S
N555 S553 1.610 . S
N555 C556 1.351 . S
C556 C550 1.428 . S
C556 N555 1.351 . S
C556 C557 1.434 . S
C557 C548 1.429 . S
C557 N554 1.350 . S
C557 C556 1.434 . S
C558 C559 1.369 . S
C558 C560 1.419 . S
C558 H562 0.930 . S
C559 C558 1.369 . S
C559 C568 1.429 . S
C560 C558 1.419 . S
C560 C561 1.363 . S
C560 H563 0.929 . S
C561 C560 1.363 . S
C561 C567 1.428 . S
H562 C558 0.930 . S
H563 C560 0.929 . S
S564 N565 1.613 . S
S564 N566 1.610 . S
N565 S564 1.613 . S
N565 C568 1.350 . S
N566 S564 1.610 . S
N566 C567 1.351 . S
C567 C561 1.428 . S
C567 N566 1.351 . S
C567 C568 1.434 . S
C568 C559 1.429 . S
C568 N565 1.350 . S
C568 C567 1.434 . S
C569 C570 1.369 . S
C569 C571 1.419 . S
C569 H573 0.930 . S
C570 C569 1.369 . S
C570 C579 1.429 . S
C571 C569 1.419 . S
C571 C572 1.363 . S
C571 H574 0.929 . S
C572 C571 1.363 . S
C572 C578 1.428 . S
H573 C569 0.930 . S
H574 C571 0.929 . S
S575 N576 1.613 . S
S575 N577 1.610 . S
N576 S575 1.613 . S
N576 C579 1.350 . S
N577 S575 1.610 . S
N577 C578 1.351 . S
C578 C572 1.428 . S
C578 N577 1.351 . S
C578 C579 1.434 . S
C579 C570 1.429 . S
C579 N576 1.350 . S
C579 C578 1.434 . S
C580 C581 1.369 . S
C580 C582 1.419 . S
C580 H584 0.930 . S
C581 C580 1.369 . S
C581 C590 1.429 . S
C582 C580 1.419 . S
C582 C583 1.363 . S
C582 H585 0.929 . S
C583 C582 1.363 . S
C583 C589 1.428 . S
H584 C580 0.930 . S
H585 C582 0.929 . S
S586 N587 1.613 . S
S586 N588 1.610 . S
N587 S586 1.613 . S
N587 C590 1.350 . S
N588 S586 1.610 . S
N588 C589 1.351 . S
C589 C583 1.428 . S
C589 N588 1.351 . S
C589 C590 1.434 . S
C590 C581 1.429 . S
C590 N587 1.350 . S
C590 C589 1.434 . S
C591 C592 1.369 . S
C591 C593 1.419 . S
C591 H595 0.930 . S
C592 C591 1.369 . S
C592 C601 1.429 . S
C593 C591 1.419 . S
C593 C594 1.363 . S
C593 H596 0.929 . S
C594 C593 1.363 . S
C594 C600 1.428 . S
H595 C591 0.930 . S
H596 C593 0.929 . S
S597 N598 1.613 . S
S597 N599 1.610 . S
N598 S597 1.613 . S
N598 C601 1.350 . S
N599 S597 1.610 . S
N599 C600 1.351 . S
C600 C594 1.428 . S
C600 N599 1.351 . S
C600 C601 1.434 . S
C601 C592 1.429 . S
C601 N598 1.350 . S
C601 C600 1.434 . S
C602 C603 1.369 . S
C602 C604 1.419 . S
C602 H606 0.930 . S
C603 C602 1.369 . S
C603 C612 1.429 . S
C604 C602 1.419 . S
C604 C605 1.363 . S
C604 H607 0.929 . S
C605 C604 1.363 . S
C605 C611 1.428 . S
H606 C602 0.930 . S
H607 C604 0.929 . S
S608 N609 1.613 . S
S608 N610 1.610 . S
N609 S608 1.613 . S
N609 C612 1.350 . S
N610 S608 1.610 . S
N610 C611 1.351 . S
C611 C605 1.428 . S
C611 N610 1.351 . S
C611 C612 1.434 . S
C612 C603 1.429 . S
C612 N609 1.350 . S
C612 C611 1.434 . S
C613 C614 1.369 . S
C613 C615 1.419 . S
C613 H617 0.930 . S
C614 C613 1.369 . S
C614 C623 1.429 . S
C615 C613 1.419 . S
C615 C616 1.363 . S
C615 H618 0.929 . S
C616 C615 1.363 . S
C616 C622 1.428 . S
H617 C613 0.930 . S
H618 C615 0.929 . S
S619 N620 1.613 . S
S619 N621 1.610 . S
N620 S619 1.613 . S
N620 C623 1.350 . S
N621 S619 1.610 . S
N621 C622 1.351 . S
C622 C616 1.428 . S
C622 N621 1.351 . S
C622 C623 1.434 . S
C623 C614 1.429 . S
C623 N620 1.350 . S
C623 C622 1.434 . S
C624 C625 1.369 1_556 S
C624 C626 1.419 1_455 S
C624 H628 0.930 . S
C625 C624 1.369 1_554 S
C625 C634 1.429 . S
C626 C624 1.419 1_655 S
C626 C627 1.363 1_556 S
C626 H629 0.929 . S
C627 C626 1.363 1_554 S
C627 C633 1.428 . S
H628 C624 0.930 . S
H629 C626 0.929 . S
S630 N631 1.616 1_655 S
S630 N632 1.608 . S
N631 S630 1.616 1_455 S
N631 C634 1.350 . S
N632 S630 1.608 . S
N632 C633 1.351 . S
C633 C627 1.428 . S
C633 N632 1.351 . S
C633 C634 1.434 1_655 S
C634 C625 1.429 . S
C634 N631 1.350 . S
C634 C633 1.434 1_455 S
C635 C636 1.369 . S
C635 C637 1.419 . S
C635 H639 0.930 . S
C636 C635 1.369 . S
C636 C645 1.429 . S
C637 C635 1.419 . S
C637 C638 1.363 . S
C637 H640 0.929 . S
C638 C637 1.363 . S
C638 C644 1.428 . S
H639 C635 0.930 . S
H640 C637 0.929 . S
S641 N642 1.613 . S
S641 N643 1.610 . S
N642 S641 1.613 . S
N642 C645 1.350 . S
N643 S641 1.610 . S
N643 C644 1.351 . S
C644 C638 1.428 . S
C644 N643 1.351 . S
C644 C645 1.434 . S
C645 C636 1.429 . S
C645 N642 1.350 . S
C645 C644 1.434 . S
C646 C647 1.369 . S
C646 C648 1.419 . S
C646 H650 0.930 . S
C647 C646 1.369 . S
C647 C656 1.429 . S
C648 C646 1.419 . S
C648 C649 1.363 . S
C648 H651 0.929 . S
C649 C648 1.363 . S
C649 C655 1.428 . S
H650 C646 0.930 . S
H651 C648 0.929 . S
S652 N653 1.613 . S
S652 N654 1.610 . S
N653 S652 1.613 . S
N653 C656 1.350 . S
N654 S652 1.610 . S
N654 C655 1.351 . S
C655 C649 1.428 . S
C655 N654 1.351 . S
C655 C656 1.434 . S
C656 C647 1.429 . S
C656 N653 1.350 . S
C656 C655 1.434 . S
C657 C658 1.369 . S
C657 C659 1.419 . S
C657 H661 0.930 . S
C658 C657 1.369 . S
C658 C667 1.429 . S
C659 C657 1.419 . S
C659 C660 1.363 . S
C659 H662 0.929 . S
C660 C659 1.363 . S
C660 C666 1.428 . S
H661 C657 0.930 . S
H662 C659 0.929 . S
S663 N664 1.613 . S
S663 N665 1.610 . S
N664 S663 1.613 . S
N664 C667 1.350 . S
N665 S663 1.610 . S
N665 C666 1.351 . S
C666 C660 1.428 . S
C666 N665 1.351 . S
C666 C667 1.434 . S
C667 C658 1.429 . S
C667 N664 1.350 . S
C667 C666 1.434 . S
C668 C669 1.369 . S
C668 C670 1.419 1_655 S
C668 H672 0.930 . S
C669 C668 1.369 . S
C669 C678 1.429 1_556 S
C670 C668 1.419 1_455 S
C670 C671 1.363 . S
C670 H673 0.929 . S
C671 C670 1.363 . S
C671 C677 1.428 1_556 S
H672 C668 0.930 . S
H673 C670 0.929 . S
S674 N675 1.616 1_455 S
S674 N676 1.608 . S
N675 S674 1.616 1_655 S
N675 C678 1.350 . S
N676 S674 1.608 . S
N676 C677 1.351 . S
C677 C671 1.428 1_554 S
C677 N676 1.351 . S
C677 C678 1.434 1_455 S
C678 C669 1.429 1_554 S
C678 N675 1.350 . S
C678 C677 1.434 1_655 S
C679 C680 1.369 . S
C679 C681 1.419 . S
C679 H683 0.930 . S
C680 C679 1.369 . S
C680 C689 1.429 . S
C681 C679 1.419 . S
C681 C682 1.363 . S
C681 H684 0.929 . S
C682 C681 1.363 . S
C682 C688 1.428 . S
H683 C679 0.930 . S
H684 C681 0.929 . S
S685 N686 1.613 . S
S685 N687 1.610 . S
N686 S685 1.613 . S
N686 C689 1.350 . S
N687 S685 1.610 . S
N687 C688 1.351 . S
C688 C682 1.428 . S
C688 N687 1.351 . S
C688 C689 1.434 . S
C689 C680 1.429 . S
C689 N686 1.350 . S
C689 C688 1.434 . S
C690 C691 1.369 . S
C690 C692 1.419 . S
C690 H694 0.930 . S
C691 C690 1.369 . S
C691 C700 1.429 . S
C692 C690 1.419 . S
C692 C693 1.363 . S
C692 H695 0.929 . S
C693 C692 1.363 . S
C693 C699 1.428 . S
H694 C690 0.930 . S
H695 C692 0.929 . S
S696 N697 1.613 . S
S696 N698 1.610 . S
N697 S696 1.613 . S
N697 C700 1.350 . S
N698 S696 1.610 . S
N698 C699 1.351 . S
C699 C693 1.428 . S
C699 N698 1.351 . S
C699 C700 1.434 . S
C700 C691 1.429 . S
C700 N697 1.350 . S
C700 C699 1.434 . S
C701 C702 1.369 . S
C701 C703 1.419 . S
C701 H705 0.930 . S
C702 C701 1.369 . S
C702 C711 1.429 . S
C703 C701 1.419 . S
C703 C704 1.363 . S
C703 H706 0.929 . S
C704 C703 1.363 . S
C704 C710 1.428 . S
H705 C701 0.930 . S
H706 C703 0.929 . S
S707 N708 1.613 . S
S707 N709 1.610 . S
N708 S707 1.613 . S
N708 C711 1.350 . S
N709 S707 1.610 . S
N709 C710 1.351 . S
C710 C704 1.428 . S
C710 N709 1.351 . S
C710 C711 1.434 . S
C711 C702 1.429 . S
C711 N708 1.350 . S
C711 C710 1.434 . S
C712 C713 1.369 . S
C712 C714 1.419 . S
C712 H716 0.930 . S
C713 C712 1.369 . S
C713 C722 1.429 . S
C714 C712 1.419 . S
C714 C715 1.363 . S
C714 H717 0.929 . S
C715 C714 1.363 . S
C715 C721 1.428 . S
H716 C712 0.930 . S
H717 C714 0.929 . S
S718 N719 1.613 . S
S718 N720 1.610 . S
N719 S718 1.613 . S
N719 C722 1.350 . S
N720 S718 1.610 . S
N720 C721 1.351 . S
C721 C715 1.428 . S
C721 N720 1.351 . S
C721 C722 1.434 . S
C722 C713 1.429 . S
C722 N719 1.350 . S
C722 C721 1.434 . S
C723 C724 1.369 . S
C723 C725 1.419 . S
C723 H727 0.930 . S
C724 C723 1.369 . S
C724 C733 1.429 . S
C725 C723 1.419 . S
C725 C726 1.363 . S
C725 H728 0.929 . S
C726 C725 1.363 . S
C726 C732 1.428 . S
H727 C723 0.930 . S
H728 C725 0.929 . S
S729 N730 1.613 . S
S729 N731 1.610 . S
N730 S729 1.613 . S
N730 C733 1.350 . S
N731 S729 1.610 . S
N731 C732 1.351 . S
C732 C726 1.428 . S
C732 N731 1.351 . S
C732 C733 1.434 . S
C733 C724 1.429 . S
C733 N730 1.350 . S
C733 C732 1.434 . S
C734 C735 1.369 . S
C734 C736 1.419 . S
C734 H738 0.930 . S
C735 C734 1.369 . S
C735 C744 1.429 . S
C736 C734 1.419 . S
C736 C737 1.363 . S
C736 H739 0.929 . S
C737 C736 1.363 . S
C737 C743 1.428 . S
H738 C734 0.930 . S
H739 C736 0.929 . S
S740 N741 1.613 . S
S740 N742 1.610 . S
N741 S740 1.613 . S
N741 C744 1.350 . S
N742 S740 1.610 . S
N742 C743 1.351 . S
C743 C737 1.428 . S
C743 N742 1.351 . S
C743 C744 1.434 . S
C744 C735 1.429 . S
C744 N741 1.350 . S
C744 C743 1.434 . S
C745 C746 1.369 . S
C745 C747 1.419 . S
C745 H749 0.930 . S
C746 C745 1.369 . S
C746 C755 1.429 . S
C747 C745 1.419 . S
C747 C748 1.363 . S
C747 H750 0.929 . S
C748 C747 1.363 . S
C748 C754 1.428 . S
H749 C745 0.930 . S
H750 C747 0.929 . S
S751 N752 1.613 . S
S751 N753 1.610 . S
N752 S751 1.613 . S
N752 C755 1.350 . S
N753 S751 1.610 . S
N753 C754 1.351 . S
C754 C748 1.428 . S
C754 N753 1.351 . S
C754 C755 1.434 . S
C755 C746 1.429 . S
C755 N752 1.350 . S
C755 C754 1.434 . S
C756 C757 1.369 . S
C756 C758 1.419 . S
C756 H760 0.930 . S
C757 C756 1.369 . S
C757 C766 1.429 . S
C758 C756 1.419 . S
C758 C759 1.363 . S
C758 H761 0.929 . S
C759 C758 1.363 . S
C759 C765 1.428 . S
H760 C756 0.930 . S
H761 C758 0.929 . S
S762 N763 1.613 . S
S762 N764 1.610 . S
N763 S762 1.613 . S
N763 C766 1.350 . S
N764 S762 1.610 . S
N764 C765 1.351 . S
C765 C759 1.428 . S
C765 N764 1.351 . S
C765 C766 1.434 . S
C766 C757 1.429 . S
C766 N763 1.350 . S
C766 C765 1.434 . S
C767 C768 1.369 1_556 S
C767 C769 1.419 1_655 S
C767 H771 0.930 . S
C768 C767 1.369 1_554 S
C768 C777 1.429 . S
C769 C767 1.419 1_455 S
C769 C770 1.363 1_556 S
C769 H772 0.929 . S
C770 C769 1.363 1_554 S
C770 C776 1.428 . S
H771 C767 0.930 . S
H772 C769 0.929 . S
S773 N774 1.616 1_455 S
S773 N775 1.608 . S
N774 S773 1.616 1_655 S
N774 C777 1.350 . S
N775 S773 1.608 . S
N775 C776 1.351 . S
C776 C770 1.428 . S
C776 N775 1.351 . S
C776 C777 1.434 1_455 S
C777 C768 1.429 . S
C777 N774 1.350 . S
C777 C776 1.434 1_655 S
C778 C779 1.369 . S
C778 C780 1.419 . S
C778 H782 0.930 . S
C779 C778 1.369 . S
C779 C788 1.429 . S
C780 C778 1.419 . S
C780 C781 1.363 . S
C780 H783 0.929 . S
C781 C780 1.363 . S
C781 C787 1.428 . S
H782 C778 0.930 . S
H783 C780 0.929 . S
S784 N785 1.613 . S
S784 N786 1.610 . S
N785 S784 1.613 . S
N785 C788 1.350 . S
N786 S784 1.610 . S
N786 C787 1.351 . S
C787 C781 1.428 . S
C787 N786 1.351 . S
C787 C788 1.434 . S
C788 C779 1.429 . S
C788 N785 1.350 . S
C788 C787 1.434 . S
C789 C790 1.369 . S
C789 C791 1.419 1_455 S
C789 H793 0.930 . S
C790 C789 1.369 . S
C790 C799 1.429 1_556 S
C791 C789 1.419 1_655 S
C791 C792 1.363 . S
C791 H794 0.929 . S
C792 C791 1.363 . S
C792 C798 1.428 1_556 S
H793 C789 0.930 . S
H794 C791 0.929 . S
S795 N796 1.616 1_655 S
S795 N797 1.608 . S
N796 S795 1.616 1_455 S
N796 C799 1.350 . S
N797 S795 1.608 . S
N797 C798 1.351 . S
C798 C792 1.428 1_554 S
C798 N797 1.351 . S
C798 C799 1.434 1_655 S
C799 C790 1.429 1_554 S
C799 N796 1.350 . S
C799 C798 1.434 1_455 S
C800 C801 1.369 1_554 S
C800 C802 1.419 . S
C800 H804 0.930 . S
C801 C800 1.369 1_556 S
C801 C810 1.429 . S
C802 C800 1.419 . S
C802 C803 1.377 . S
C802 H805 0.929 . S
C803 C802 1.377 . S
C803 C809 1.413 1_554 S
H804 C800 0.930 . S
H805 C802 0.929 . S
S806 N807 1.613 . S
S806 N808 1.610 . S
N807 S806 1.613 . S
N807 C810 1.350 . S
N808 S806 1.610 . S
N808 C809 1.351 . S
C809 C803 1.413 1_556 S
C809 N808 1.351 . S
C809 C810 1.434 . S
C810 C801 1.429 . S
C810 N807 1.350 . S
C810 C809 1.434 . S
C811 C812 1.369 . S
C811 C813 1.419 . S
C811 H815 0.930 . S
C812 C811 1.369 . S
C812 C821 1.429 . S
C813 C811 1.419 . S
C813 C814 1.363 . S
C813 H816 0.929 . S
C814 C813 1.363 . S
C814 C820 1.428 . S
H815 C811 0.930 . S
H816 C813 0.929 . S
S817 N818 1.613 . S
S817 N819 1.610 . S
N818 S817 1.613 . S
N818 C821 1.350 . S
N819 S817 1.610 . S
N819 C820 1.351 . S
C820 C814 1.428 . S
C820 N819 1.351 . S
C820 C821 1.434 . S
C821 C812 1.429 . S
C821 N818 1.350 . S
C821 C820 1.434 . S
C822 C823 1.369 . S
C822 C824 1.419 . S
C822 H826 0.930 . S
C823 C822 1.369 . S
C823 C832 1.429 . S
C824 C822 1.419 . S
C824 C825 1.363 . S
C824 H827 0.929 . S
C825 C824 1.363 . S
C825 C831 1.428 . S
H826 C822 0.930 . S
H827 C824 0.929 . S
S828 N829 1.613 . S
S828 N830 1.610 . S
N829 S828 1.613 . S
N829 C832 1.350 . S
N830 S828 1.610 . S
N830 C831 1.351 . S
C831 C825 1.428 . S
C831 N830 1.351 . S
C831 C832 1.434 . S
C832 C823 1.429 . S
C832 N829 1.350 . S
C832 C831 1.434 . S
C833 C834 1.369 . S
C833 C835 1.419 . S
C833 H837 0.930 . S
C834 C833 1.369 . S
C834 C843 1.429 . S
C835 C833 1.419 . S
C835 C836 1.363 . S
C835 H838 0.929 . S
C836 C835 1.363 . S
C836 C842 1.428 . S
H837 C833 0.930 . S
H838 C835 0.929 . S
S839 N840 1.613 . S
S839 N841 1.610 . S
N840 S839 1.613 . S
N840 C843 1.350 . S
N841 S839 1.610 . S
N841 C842 1.351 . S
C842 C836 1.428 . S
C842 N841 1.351 . S
C842 C843 1.434 . S
C843 C834 1.429 . S
C843 N840 1.350 . S
C843 C842 1.434 . S
C844 C845 1.381 . S
C844 C846 1.419 . S
C844 H848 0.930 . S
C845 C844 1.381 . S
C845 C854 1.416 1_554 S
C846 C844 1.419 . S
C846 C847 1.326 1_554 S
C846 H849 0.929 . S
C847 C846 1.326 1_556 S
C847 C853 1.466 . S
H848 C844 0.930 . S
H849 C846 0.929 . S
S850 N851 1.613 . S
S850 N852 1.610 . S
N851 S850 1.613 . S
N851 C854 1.350 . S
N852 S850 1.610 . S
N852 C853 1.351 . S
C853 C847 1.466 . S
C853 N852 1.351 . S
C853 C854 1.434 . S
C854 C845 1.416 1_556 S
C854 N851 1.350 . S
C854 C853 1.434 . S
C855 C856 1.369 . S
C855 C857 1.419 . S
C855 H859 0.930 . S
C856 C855 1.369 . S
C856 C865 1.429 . S
C857 C855 1.419 . S
C857 C858 1.363 . S
C857 H860 0.929 . S
C858 C857 1.363 . S
C858 C864 1.428 . S
H859 C855 0.930 . S
H860 C857 0.929 . S
S861 N862 1.613 . S
S861 N863 1.610 . S
N862 S861 1.613 . S
N862 C865 1.350 . S
N863 S861 1.610 . S
N863 C864 1.351 . S
C864 C858 1.428 . S
C864 N863 1.351 . S
C864 C865 1.434 . S
C865 C856 1.429 . S
C865 N862 1.350 . S
C865 C864 1.434 . S
C866 C867 1.369 . S
C866 C868 1.419 . S
C866 H870 0.930 . S
C867 C866 1.369 . S
C867 C876 1.429 . S
C868 C866 1.419 . S
C868 C869 1.363 . S
C868 H871 0.929 . S
C869 C868 1.363 . S
C869 C875 1.428 . S
H870 C866 0.930 . S
H871 C868 0.929 . S
S872 N873 1.613 . S
S872 N874 1.610 . S
N873 S872 1.613 . S
N873 C876 1.350 . S
N874 S872 1.610 . S
N874 C875 1.351 . S
C875 C869 1.428 . S
C875 N874 1.351 . S
C875 C876 1.434 . S
C876 C867 1.429 . S
C876 N873 1.350 . S
C876 C875 1.434 . S
C877 C878 1.369 . S
C877 C879 1.419 . S
C877 H881 0.930 . S
C878 C877 1.369 . S
C878 C887 1.429 . S
C879 C877 1.419 . S
C879 C880 1.363 . S
C879 H882 0.929 . S
C880 C879 1.363 . S
C880 C886 1.428 . S
H881 C877 0.930 . S
H882 C879 0.929 . S
S883 N884 1.613 . S
S883 N885 1.610 . S
N884 S883 1.613 . S
N884 C887 1.350 . S
N885 S883 1.610 . S
N885 C886 1.351 . S
C886 C880 1.428 . S
C886 N885 1.351 . S
C886 C887 1.434 . S
C887 C878 1.429 . S
C887 N884 1.350 . S
C887 C886 1.434 . S
C888 C889 1.369 . S
C888 C890 1.419 1_545 S
C888 H892 0.930 . S
C889 C888 1.369 . S
C889 C898 1.429 . S
C890 C888 1.419 1_565 S
C890 C891 1.363 . S
C890 H893 0.929 . S
C891 C890 1.363 . S
C891 C897 1.428 . S
H892 C888 0.930 . S
H893 C890 0.929 . S
S894 N895 1.613 . S
S894 N896 1.610 1_545 S
N895 S894 1.613 . S
N895 C898 1.350 . S
N896 S894 1.610 1_565 S
N896 C897 1.351 . S
C897 C891 1.428 . S
C897 N896 1.351 . S
C897 C898 1.434 1_565 S
C898 C889 1.429 . S
C898 N895 1.350 . S
C898 C897 1.434 1_545 S
C899 C900 1.369 . S
C899 C901 1.419 . S
C899 H903 0.930 . S
C900 C899 1.369 . S
C900 C909 1.429 . S
C901 C899 1.419 . S
C901 C902 1.363 . S
C901 H904 0.929 . S
C902 C901 1.363 . S
C902 C908 1.428 . S
H903 C899 0.930 . S
H904 C901 0.929 . S
S905 N906 1.613 . S
S905 N907 1.610 . S
N906 S905 1.613 . S
N906 C909 1.350 . S
N907 S905 1.610 . S
N907 C908 1.351 . S
C908 C902 1.428 . S
C908 N907 1.351 . S
C908 C909 1.434 . S
C909 C900 1.429 . S
C909 N906 1.350 . S
C909 C908 1.434 . S
C910 C911 1.385 . S
C910 C912 1.419 1_565 S
C910 H914 0.930 . S
C911 C910 1.385 . S
C911 C920 1.412 1_554 S
C912 C910 1.419 1_545 S
C912 C913 1.326 1_554 S
C912 H915 0.929 . S
C913 C912 1.326 1_556 S
C913 C919 1.465 . S
H914 C910 0.930 . S
H915 C912 0.929 . S
S916 N917 1.613 . S
S916 N918 1.610 1_565 S
N917 S916 1.613 . S
N917 C920 1.350 . S
N918 S916 1.610 1_545 S
N918 C919 1.351 . S
C919 C913 1.465 . S
C919 N918 1.351 . S
C919 C920 1.434 1_545 S
C920 C911 1.412 1_556 S
C920 N917 1.350 . S
C920 C919 1.434 1_565 S
C921 C922 1.369 . S
C921 C923 1.419 . S
C921 H925 0.930 . S
C922 C921 1.369 . S
C922 C931 1.429 . S
C923 C921 1.419 . S
C923 C924 1.363 . S
C923 H926 0.929 . S
C924 C923 1.363 . S
C924 C930 1.428 . S
H925 C921 0.930 . S
H926 C923 0.929 . S
S927 N928 1.613 . S
S927 N929 1.610 . S
N928 S927 1.613 . S
N928 C931 1.350 . S
N929 S927 1.610 . S
N929 C930 1.351 . S
C930 C924 1.428 . S
C930 N929 1.351 . S
C930 C931 1.434 . S
C931 C922 1.429 . S
C931 N928 1.350 . S
C931 C930 1.434 . S
C932 C933 1.369 . S
C932 C934 1.419 1_545 S
C932 H936 0.930 . S
C933 C932 1.369 . S
C933 C942 1.429 . S
C934 C932 1.419 1_565 S
C934 C935 1.363 . S
C934 H937 0.929 . S
C935 C934 1.363 . S
C935 C941 1.428 . S
H936 C932 0.930 . S
H937 C934 0.929 . S
S938 N939 1.613 . S
S938 N940 1.610 1_545 S
N939 S938 1.613 . S
N939 C942 1.350 . S
N940 S938 1.610 1_565 S
N940 C941 1.351 . S
C941 C935 1.428 . S
C941 N940 1.351 . S
C941 C942 1.434 1_565 S
C942 C933 1.429 . S
C942 N939 1.350 . S
C942 C941 1.434 1_545 S
C943 C944 1.369 . S
C943 C945 1.419 . S
C943 H947 0.930 . S
C944 C943 1.369 . S
C944 C953 1.429 . S
C945 C943 1.419 . S
C945 C946 1.363 . S
C945 H948 0.929 . S
C946 C945 1.363 . S
C946 C952 1.428 . S
H947 C943 0.930 . S
H948 C945 0.929 . S
S949 N950 1.613 . S
S949 N951 1.610 . S
N950 S949 1.613 . S
N950 C953 1.350 . S
N951 S949 1.610 . S
N951 C952 1.351 . S
C952 C946 1.428 . S
C952 N951 1.351 . S
C952 C953 1.434 . S
C953 C944 1.429 . S
C953 N950 1.350 . S
C953 C952 1.434 . S
C954 C955 1.375 . S
C954 C956 1.419 1_565 S
C954 H958 0.930 . S
C955 C954 1.375 . S
C955 C964 1.422 1_554 S
C956 C954 1.419 1_545 S
C956 C957 1.351 1_554 S
C956 H959 0.929 . S
C957 C956 1.351 1_556 S
C957 C963 1.442 . S
H958 C954 0.930 . S
H959 C956 0.929 . S
S960 N961 1.638 . S
S960 N962 1.585 1_565 S
N961 S960 1.638 . S
N961 C964 1.350 . S
N962 S960 1.585 1_545 S
N962 C963 1.351 . S
C963 C957 1.442 . S
C963 N962 1.351 . S
C963 C964 1.434 1_545 S
C964 C955 1.422 1_556 S
C964 N961 1.350 . S
C964 C963 1.434 1_565 S
C965 C966 1.369 . S
C965 C967 1.419 . S
C965 H969 0.930 . S
C966 C965 1.369 . S
C966 C975 1.429 . S
C967 C965 1.419 . S
C967 C968 1.363 . S
C967 H970 0.929 . S
C968 C967 1.363 . S
C968 C974 1.428 . S
H969 C965 0.930 . S
H970 C967 0.929 . S
S971 N972 1.613 . S
S971 N973 1.610 . S
N972 S971 1.613 . S
N972 C975 1.350 . S
N973 S971 1.610 . S
N973 C974 1.351 . S
C974 C968 1.428 . S
C974 N973 1.351 . S
C974 C975 1.434 . S
C975 C966 1.429 . S
C975 N972 1.350 . S
C975 C974 1.434 . S
C976 C977 1.369 1_556 S
C976 C978 1.419 . S
C976 H980 0.930 . S
C977 C976 1.369 1_554 S
C977 C986 1.429 . S
C978 C976 1.419 . S
C978 C979 1.363 1_556 S
C978 H981 0.929 . S
C979 C978 1.363 1_554 S
C979 C985 1.428 . S
H980 C976 0.930 . S
H981 C978 0.929 . S
S982 N983 1.613 . S
S982 N984 1.610 . S
N983 S982 1.613 . S
N983 C986 1.350 . S
N984 S982 1.610 . S
N984 C985 1.351 . S
C985 C979 1.428 . S
C985 N984 1.351 . S
C985 C986 1.434 . S
C986 C977 1.429 . S
C986 N983 1.350 . S
C986 C985 1.434 . S
C987 C988 1.369 . S
C987 C989 1.419 . S
C987 H991 0.930 . S
C988 C987 1.369 . S
C988 C997 1.429 . S
C989 C987 1.419 . S
C989 C990 1.363 . S
C989 H992 0.929 . S
C990 C989 1.363 . S
C990 C996 1.428 . S
H991 C987 0.930 . S
H992 C989 0.929 . S
S993 N994 1.613 . S
S993 N995 1.610 . S
N994 S993 1.613 . S
N994 C997 1.350 . S
N995 S993 1.610 . S
N995 C996 1.351 . S
C996 C990 1.428 . S
C996 N995 1.351 . S
C996 C997 1.434 . S
C997 C988 1.429 . S
C997 N994 1.350 . S
C997 C996 1.434 . S
C998 C999 1.369 . S
C998 C1000 1.419 . S
C998 H1002 0.930 . S
C999 C998 1.369 . S
C999 C1008 1.429 . S
C1000 C998 1.419 . S
C1000 C1001 1.363 . S
C1000 H1003 0.929 . S
C1001 C1000 1.363 . S
C1001 C1007 1.428 . S
H1002 C998 0.930 . S
H1003 C1000 0.929 . S
S1004 N1005 1.613 . S
S1004 N1006 1.610 . S
N1005 S1004 1.613 . S
N1005 C1008 1.350 . S
N1006 S1004 1.610 . S
N1006 C1007 1.351 . S
C1007 C1001 1.428 . S
C1007 N1006 1.351 . S
C1007 C1008 1.434 . S
C1008 C999 1.429 . S
C1008 N1005 1.350 . S
C1008 C1007 1.434 . S
C1009 C1010 1.369 . S
C1009 C1011 1.419 1_655 S
C1009 H1013 0.930 . S
C1010 C1009 1.369 . S
C1010 C1019 1.429 . S
C1011 C1009 1.419 1_455 S
C1011 C1012 1.363 . S
C1011 H1014 0.929 . S
C1012 C1011 1.363 . S
C1012 C1018 1.428 . S
H1013 C1009 0.930 . S
H1014 C1011 0.929 . S
S1015 N1016 1.616 1_455 S
S1015 N1017 1.608 . S
N1016 S1015 1.616 1_655 S
N1016 C1019 1.350 . S
N1017 S1015 1.608 . S
N1017 C1018 1.351 . S
C1018 C1012 1.428 . S
C1018 N1017 1.351 . S
C1018 C1019 1.434 1_455 S
C1019 C1010 1.429 . S
C1019 N1016 1.350 . S
C1019 C1018 1.434 1_655 S
C1020 C1021 1.369 . S
C1020 C1022 1.419 . S
C1020 H1024 0.930 . S
C1021 C1020 1.369 . S
C1021 C1030 1.429 1_556 S
C1022 C1020 1.419 . S
C1022 C1023 1.363 . S
C1022 H1025 0.929 . S
C1023 C1022 1.363 . S
C1023 C1029 1.428 1_556 S
H1024 C1020 0.930 . S
H1025 C1022 0.929 . S
S1026 N1027 1.613 . S
S1026 N1028 1.610 . S
N1027 S1026 1.613 . S
N1027 C1030 1.350 . S
N1028 S1026 1.610 . S
N1028 C1029 1.351 . S
C1029 C1023 1.428 1_554 S
C1029 N1028 1.351 . S
C1029 C1030 1.434 . S
C1030 C1021 1.429 1_554 S
C1030 N1027 1.350 . S
C1030 C1029 1.434 . S
C1031 C1032 1.369 . S
C1031 C1033 1.419 1_655 S
C1031 H1035 0.930 . S
C1032 C1031 1.369 . S
C1032 C1041 1.429 . S
C1033 C1031 1.419 1_455 S
C1033 C1034 1.363 . S
C1033 H1036 0.929 . S
C1034 C1033 1.363 . S
C1034 C1040 1.428 . S
H1035 C1031 0.930 . S
H1036 C1033 0.929 . S
S1037 N1038 1.616 1_455 S
S1037 N1039 1.608 . S
N1038 S1037 1.616 1_655 S
N1038 C1041 1.350 . S
N1039 S1037 1.608 . S
N1039 C1040 1.351 . S
C1040 C1034 1.428 . S
C1040 N1039 1.351 . S
C1040 C1041 1.434 1_455 S
C1041 C1032 1.429 . S
C1041 N1038 1.350 . S
C1041 C1040 1.434 1_655 S
C1042 C1043 1.369 . S
C1042 C1044 1.419 . S
C1042 H1046 0.930 . S
C1043 C1042 1.369 . S
C1043 C1052 1.429 . S
C1044 C1042 1.419 . S
C1044 C1045 1.363 . S
C1044 H1047 0.929 . S
C1045 C1044 1.363 . S
C1045 C1051 1.428 . S
H1046 C1042 0.930 . S
H1047 C1044 0.929 . S
S1048 N1049 1.613 . S
S1048 N1050 1.610 . S
N1049 S1048 1.613 . S
N1049 C1052 1.350 . S
N1050 S1048 1.610 . S
N1050 C1051 1.351 . S
C1051 C1045 1.428 . S
C1051 N1050 1.351 . S
C1051 C1052 1.434 . S
C1052 C1043 1.429 . S
C1052 N1049 1.350 . S
C1052 C1051 1.434 . S
C1053 C1054 1.369 . S
C1053 C1055 1.419 . S
C1053 H1057 0.930 . S
C1054 C1053 1.369 . S
C1054 C1063 1.429 . S
C1055 C1053 1.419 . S
C1055 C1056 1.363 . S
C1055 H1058 0.929 . S
C1056 C1055 1.363 . S
C1056 C1062 1.428 . S
H1057 C1053 0.930 . S
H1058 C1055 0.929 . S
S1059 N1060 1.613 . S
S1059 N1061 1.610 . S
N1060 S1059 1.613 . S
N1060 C1063 1.350 . S
N1061 S1059 1.610 . S
N1061 C1062 1.351 . S
C1062 C1056 1.428 . S
C1062 N1061 1.351 . S
C1062 C1063 1.434 . S
C1063 C1054 1.429 . S
C1063 N1060 1.350 . S
C1063 C1062 1.434 . S
C1064 C1065 1.369 . S
C1064 C1066 1.419 . S
C1064 H1068 0.930 . S
C1065 C1064 1.369 . S
C1065 C1074 1.429 1_556 S
C1066 C1064 1.419 . S
C1066 C1067 1.363 . S
C1066 H1069 0.929 . S
C1067 C1066 1.363 . S
C1067 C1073 1.428 1_556 S
H1068 C1064 0.930 . S
H1069 C1066 0.929 . S
S1070 N1071 1.613 . S
S1070 N1072 1.610 . S
N1071 S1070 1.613 . S
N1071 C1074 1.350 . S
N1072 S1070 1.610 . S
N1072 C1073 1.351 . S
C1073 C1067 1.428 1_554 S
C1073 N1072 1.351 . S
C1073 C1074 1.434 . S
C1074 C1065 1.429 1_554 S
C1074 N1071 1.350 . S
C1074 C1073 1.434 . S
C1075 C1076 1.369 . S
C1075 C1077 1.419 . S
C1075 H1079 0.930 . S
C1076 C1075 1.369 . S
C1076 C1085 1.429 . S
C1077 C1075 1.419 . S
C1077 C1078 1.363 . S
C1077 H1080 0.929 . S
C1078 C1077 1.363 . S
C1078 C1084 1.428 . S
H1079 C1075 0.930 . S
H1080 C1077 0.929 . S
S1081 N1082 1.613 . S
S1081 N1083 1.610 . S
N1082 S1081 1.613 . S
N1082 C1085 1.350 . S
N1083 S1081 1.610 . S
N1083 C1084 1.351 . S
C1084 C1078 1.428 . S
C1084 N1083 1.351 . S
C1084 C1085 1.434 . S
C1085 C1076 1.429 . S
C1085 N1082 1.350 . S
C1085 C1084 1.434 . S
C1086 C1087 1.369 . S
C1086 C1088 1.419 . S
C1086 H1090 0.930 . S
C1087 C1086 1.369 . S
C1087 C1096 1.429 . S
C1088 C1086 1.419 . S
C1088 C1089 1.363 . S
C1088 H1091 0.929 . S
C1089 C1088 1.363 . S
C1089 C1095 1.428 . S
H1090 C1086 0.930 . S
H1091 C1088 0.929 . S
S1092 N1093 1.613 . S
S1092 N1094 1.610 . S
N1093 S1092 1.613 . S
N1093 C1096 1.350 . S
N1094 S1092 1.610 . S
N1094 C1095 1.351 . S
C1095 C1089 1.428 . S
C1095 N1094 1.351 . S
C1095 C1096 1.434 . S
C1096 C1087 1.429 . S
C1096 N1093 1.350 . S
C1096 C1095 1.434 . S
C1097 C1098 1.369 . S
C1097 C1099 1.419 . S
C1097 H1101 0.930 . S
C1098 C1097 1.369 . S
C1098 C1107 1.429 . S
C1099 C1097 1.419 . S
C1099 C1100 1.363 . S
C1099 H1102 0.929 . S
C1100 C1099 1.363 . S
C1100 C1106 1.428 . S
H1101 C1097 0.930 . S
H1102 C1099 0.929 . S
S1103 N1104 1.613 . S
S1103 N1105 1.610 . S
N1104 S1103 1.613 . S
N1104 C1107 1.350 . S
N1105 S1103 1.610 . S
N1105 C1106 1.351 . S
C1106 C1100 1.428 . S
C1106 N1105 1.351 . S
C1106 C1107 1.434 . S
C1107 C1098 1.429 . S
C1107 N1104 1.350 . S
C1107 C1106 1.434 . S
C1108 C1109 1.369 . S
C1108 C1110 1.419 1_655 S
C1108 H1112 0.930 . S
C1109 C1108 1.369 . S
C1109 C1118 1.429 . S
C1110 C1108 1.419 1_455 S
C1110 C1111 1.363 . S
C1110 H1113 0.929 . S
C1111 C1110 1.363 . S
C1111 C1117 1.428 . S
H1112 C1108 0.930 . S
H1113 C1110 0.929 . S
S1114 N1115 1.616 1_455 S
S1114 N1116 1.608 . S
N1115 S1114 1.616 1_655 S
N1115 C1118 1.350 . S
N1116 S1114 1.608 . S
N1116 C1117 1.351 . S
C1117 C1111 1.428 . S
C1117 N1116 1.351 . S
C1117 C1118 1.434 1_455 S
C1118 C1109 1.429 . S
C1118 N1115 1.350 . S
C1118 C1117 1.434 1_655 S
C1119 C1120 1.369 . S
C1119 C1121 1.419 . S
C1119 H1123 0.930 . S
C1120 C1119 1.369 . S
C1120 C1129 1.429 . S
C1121 C1119 1.419 . S
C1121 C1122 1.363 . S
C1121 H1124 0.929 . S
C1122 C1121 1.363 . S
C1122 C1128 1.428 . S
H1123 C1119 0.930 . S
H1124 C1121 0.929 . S
S1125 N1126 1.613 . S
S1125 N1127 1.610 . S
N1126 S1125 1.613 . S
N1126 C1129 1.350 . S
N1127 S1125 1.610 . S
N1127 C1128 1.351 . S
C1128 C1122 1.428 . S
C1128 N1127 1.351 . S
C1128 C1129 1.434 . S
C1129 C1120 1.429 . S
C1129 N1126 1.350 . S
C1129 C1128 1.434 . S
C1130 C1131 1.369 . S
C1130 C1132 1.419 . S
C1130 H1134 0.930 . S
C1131 C1130 1.369 . S
C1131 C1140 1.429 . S
C1132 C1130 1.419 . S
C1132 C1133 1.363 . S
C1132 H1135 0.929 . S
C1133 C1132 1.363 . S
C1133 C1139 1.428 . S
H1134 C1130 0.930 . S
H1135 C1132 0.929 . S
S1136 N1137 1.613 . S
S1136 N1138 1.610 . S
N1137 S1136 1.613 . S
N1137 C1140 1.350 . S
N1138 S1136 1.610 . S
N1138 C1139 1.351 . S
C1139 C1133 1.428 . S
C1139 N1138 1.351 . S
C1139 C1140 1.434 . S
C1140 C1131 1.429 . S
C1140 N1137 1.350 . S
C1140 C1139 1.434 . S
C1141 C1142 1.369 . S
C1141 C1143 1.419 1_655 S
C1141 H1145 0.930 . S
C1142 C1141 1.369 . S
C1142 C1151 1.429 . S
C1143 C1141 1.419 1_455 S
C1143 C1144 1.363 . S
C1143 H1146 0.929 . S
C1144 C1143 1.363 . S
C1144 C1150 1.428 . S
H1145 C1141 0.930 . S
H1146 C1143 0.929 . S
S1147 N1148 1.616 1_455 S
S1147 N1149 1.608 . S
N1148 S1147 1.616 1_655 S
N1148 C1151 1.350 . S
N1149 S1147 1.608 . S
N1149 C1150 1.351 . S
C1150 C1144 1.428 . S
C1150 N1149 1.351 . S
C1150 C1151 1.434 1_455 S
C1151 C1142 1.429 . S
C1151 N1148 1.350 . S
C1151 C1150 1.434 1_655 S
C449 C325 1.725 . S
C451 C3 1.728 . S
C460 C283 1.728 . S
C462 C17 1.730 . S
C471 C297 1.731 . S
C473 C31 1.728 . S
C482 C311 1.727 . S
C484 C45 1.727 . S
C493 C59 1.726 . S
C495 C241 1.728 . S
C504 C255 1.725 . S
C506 C73 1.729 . S
C515 C87 1.729 . S
C517 C269 1.730 . S
C526 C101 1.727 . S
C528 C227 1.731 . S
C537 C437 1.725 . S
C539 C115 1.729 . S
C548 C129 1.725 . S
C550 C395 1.728 . S
C559 C143 1.731 . S
C561 C409 1.726 . S
C570 C157 1.730 . S
C572 C423 1.729 . S
C581 C171 1.731 . S
C583 C353 1.726 . S
C592 C185 1.731 . S
C594 C367 1.728 . S
C603 C199 1.730 . S
C605 C381 1.729 . S
C614 C213 1.726 . S
C616 C339 1.727 . S
C625 C7 1.354 . S
C627 C175 1.355 . S
C636 C413 1.355 . S
C638 C21 1.356 . S
C647 C35 1.363 . S
C649 C203 1.362 . S
C658 C441 1.361 . S
C660 C49 1.361 . S
C669 C119 1.362 . S
C671 C63 1.361 . S
C680 C77 1.365 . S
C682 C357 1.363 . S
C691 C91 1.362 . S
C693 C147 1.361 . S
C702 C105 1.358 . S
C704 C385 1.359 . S
C713 C301 1.364 . S
C715 C133 1.363 . S
C724 C329 1.358 . S
C726 C161 1.359 . S
C735 C189 1.364 . S
C737 C245 1.363 . S
C746 C273 1.361 . S
C748 C217 1.360 . S
C757 C399 1.354 . S
C759 C231 1.355 . S
C768 C259 1.354 . S
C770 C427 1.355 . S
C779 C343 1.355 . S
C781 C287 1.356 . S
C790 C371 1.364 . S
C792 C315 1.363 . S
C801 C64 1.372 . S
C803 C8 1.383 . S
C812 C78 1.377 . S
C814 C22 1.373 . S
C823 C36 1.372 . S
C825 C92 1.376 . S
C834 C50 1.375 . S
C836 C106 1.374 . S
C845 C176 1.383 . S
C847 C120 1.384 . S
C856 C190 1.374 . S
C858 C134 1.379 . S
C867 C204 1.380 . S
C869 C148 1.374 . S
C878 C162 1.373 . S
C880 C218 1.376 . S
C889 C232 1.380 . S
C891 C288 1.374 . S
C900 C246 1.374 . S
C902 C302 1.379 . S
C911 C260 1.382 . S
C913 C316 1.383 . S
C922 C274 1.376 . S
C924 C330 1.373 . S
C933 C400 1.377 . S
C935 C344 1.373 . S
C944 C414 1.379 . S
C946 C358 1.376 . S
C955 C428 1.382 . S
C957 C372 1.383 . S
C966 C442 1.379 . S
C968 C386 1.373 . S
C977 C429 1.522 . S
C979 C9 1.523 . S
C988 C23 1.532 . S
C990 C219 1.531 . S
C999 C401 1.532 . S
C1001 C37 1.531 . S
C1010 C51 1.532 . S
C1012 C191 1.531 . S
C1021 C373 1.531 . S
C1023 C65 1.531 . S
C1032 C79 1.532 . S
C1034 C163 1.531 . S
C1043 C93 1.529 . S
C1045 C345 1.528 . S
C1054 C135 1.524 . S
C1056 C107 1.525 . S
C1065 C121 1.527 . S
C1067 C317 1.527 . S
C1076 C289 1.525 . S
C1078 C149 1.526 . S
C1087 C177 1.532 . S
C1089 C261 1.530 . S
C1098 C205 1.532 . S
C1100 C233 1.531 . S
C1109 C443 1.531 . S
C1111 C247 1.530 . S
C1120 C275 1.522 . S
C1122 C415 1.523 . S
C1131 C303 1.528 . S
C1133 C387 1.528 . S
C1142 C359 1.525 . S
C1144 C331 1.526 . S
