# Generated by pormake.
# Topology lcy-e, (6)-cn, num edge types: 1
# Building blocks:
#     Node 0, Type 0, BuildingBlock: HISSIN_clean_sbu_0, # of connection points: 6
#     Node 1, Type 0, BuildingBlock: HISSIN_clean_sbu_0, # of connection points: 6
#     Node 2, Type 0, BuildingBlock: HISSIN_clean_sbu_0, # of connection points: 6
#     Node 3, Type 0, BuildingBlock: HISSIN_clean_sbu_0, # of connection points: 6
#     Node 4, Type 0, BuildingBlock: HISSIN_clean_sbu_0, # of connection points: 6
#     Node 5, Type 0, BuildingBlock: HISSIN_clean_sbu_0, # of connection points: 6
#     Node 6, Type 0, BuildingBlock: HISSIN_clean_sbu_0, # of connection points: 6
#     Node 7, Type 0, BuildingBlock: HISSIN_clean_sbu_0, # of connection points: 6
#     Node 8, Type 0, BuildingBlock: HISSIN_clean_sbu_0, # of connection points: 6
#     Node 9, Type 0, BuildingBlock: HISSIN_clean_sbu_0, # of connection points: 6
#     Node 10, Type 0, BuildingBlock: HISSIN_clean_sbu_0, # of connection points: 6
#     Node 11, Type 0, BuildingBlock: HISSIN_clean_sbu_0, # of connection points: 6
#     Edge 12, Type (0, 0), None
#     Edge 13, Type (0, 0), None
#     Edge 14, Type (0, 0), None
#     Edge 15, Type (0, 0), None
#     Edge 16, Type (0, 0), None
#     Edge 17, Type (0, 0), None
#     Edge 18, Type (0, 0), None
#     Edge 19, Type (0, 0), None
#     Edge 20, Type (0, 0), None
#     Edge 21, Type (0, 0), None
#     Edge 22, Type (0, 0), None
#     Edge 23, Type (0, 0), None
#     Edge 24, Type (0, 0), None
#     Edge 25, Type (0, 0), None
#     Edge 26, Type (0, 0), None
#     Edge 27, Type (0, 0), None
#     Edge 28, Type (0, 0), None
#     Edge 29, Type (0, 0), None
#     Edge 30, Type (0, 0), None
#     Edge 31, Type (0, 0), None
#     Edge 32, Type (0, 0), None
#     Edge 33, Type (0, 0), None
#     Edge 34, Type (0, 0), None
#     Edge 35, Type (0, 0), None
#     Edge 36, Type (0, 0), None
#     Edge 37, Type (0, 0), None
#     Edge 38, Type (0, 0), None
#     Edge 39, Type (0, 0), None
#     Edge 40, Type (0, 0), None
#     Edge 41, Type (0, 0), None
#     Edge 42, Type (0, 0), None
#     Edge 43, Type (0, 0), None
#     Edge 44, Type (0, 0), None
#     Edge 45, Type (0, 0), None
#     Edge 46, Type (0, 0), None
#     Edge 47, Type (0, 0), None
# Relax obj value: 0.210
# Max RMSD: 0.317
# Mean RMSD: 0.300
data_MOF--net-lcy-e--node1-HISSIN_clean_sbu_0--edge1-none
_symmetry_space_group_name_H-M    P1
_symmetry_Int_Tables_number       1
_symmetry_cell_setting            triclinic
loop_
_symmetry_equiv_pos_as_xyz
'x, y, z'
_cell_length_a     23.397405
_cell_length_b     24.931816
_cell_length_c     23.991529
_cell_angle_alpha  89.988003
_cell_angle_beta   90.11924
_cell_angle_gamma 89.196699
loop_
_atom_site_label
_atom_site_type_symbol
_atom_site_fract_x
_atom_site_fract_y
_atom_site_fract_z
_atom_type_partial_charge
Eu0 Eu 0.16199 0.25238 0.59923 0.0
Eu1 Eu 0.11117 0.33677 0.51669 0.0
C2 C 0.07793 0.33108 0.65368 0.0
C3 C 0.14892 0.11899 0.66618 0.0
C4 C 0.09349 0.1269 0.68832 0.0
C5 C 0.1333 1.02291 0.66788 0.0
C6 C 0.05915 0.08286 0.70203 0.0
C7 C 0.1675 0.06659 0.65453 0.0
C8 C 0.07953 1.0303 0.69335 0.0
C9 C 0.18677 0.16465 0.65275 0.0
O10 O 0.18022 0.38745 0.54594 0.0
O11 O 0.20046 0.33578 0.62337 0.0
C12 C 0.20219 0.38226 0.59513 0.0
O13 O 0.23702 0.27343 0.54911 0.0
O14 O 0.08671 0.4139 0.47974 0.0
O15 O 0.08296 0.34166 0.42978 0.0
O16 O 0.17546 0.27622 0.47793 0.0
C17 C 0.22761 0.26628 0.4965 0.0
O18 O 0.09852 0.21778 0.53533 0.0
O19 O 1.03654 0.28673 0.53521 0.0
O20 O 0.07824 0.35924 0.60604 0.0
O21 O 0.19844 0.17113 0.59997 0.0
O22 O 0.1762 0.21018 0.67796 0.0
O23 O 0.097 0.28236 0.65637 0.0
C24 C 0.12622 0.41701 0.38799 0.0
C25 C 0.12738 0.39843 0.33254 0.0
C26 C 0.20741 0.47375 0.36673 0.0
C27 C 0.16791 0.41766 0.29446 0.0
C28 C 0.16733 0.45444 0.40466 0.0
C29 C 0.20797 0.45609 0.31103 0.0
C30 C 0.08587 0.39393 0.42931 0.0
C31 C 0.04647 0.23632 0.52573 0.0
H32 H 0.07734 0.16702 0.69662 0.0
H33 H 0.15047 0.98281 0.66127 0.0
H34 H 1.01864 0.08985 0.72275 0.0
H35 H 0.2093 0.05929 0.63647 0.0
H36 H 0.09683 0.36903 0.31862 0.0
H37 H 0.23754 0.50344 0.38091 0.0
H38 H 0.16661 0.40378 0.2517 0.0
H39 H 0.16876 0.46901 0.44716 0.0
Eu40 Eu 0.97299 0.88876 0.75627 0.0
Eu41 Eu 0.06814 0.9266 0.83595 0.0
C42 C 0.92992 0.95966 0.84324 0.0
C43 C 0.88174 0.89448 0.62717 0.0
C44 C 0.92162 0.92508 0.59722 0.0
C45 C 0.80545 0.9347 0.57275 0.0
C46 C 0.90308 0.96054 0.55488 0.0
C47 C 0.82394 0.89853 0.61323 0.0
C48 C 0.84441 0.96699 0.54367 0.0
C49 C 0.89605 0.86896 0.68083 0.0
O50 O 1.02733 0.88028 0.90037 0.0
O51 O 0.96966 0.83531 0.8385 0.0
C52 C 0.98949 0.84452 0.89059 0.0
O53 O 0.05338 0.85705 0.72042 0.0
O54 O 0.10615 0.95612 0.91342 0.0
O55 O 0.15781 0.94977 0.83938 0.0
O56 O 0.09232 0.84162 0.80477 0.0
C57 C 0.08972 0.83069 0.75102 0.0
O58 O 1.00065 0.97386 0.72963 0.0
O59 O 0.09169 0.95609 0.7524 0.0
O60 O 0.98306 0.97962 0.84191 0.0
O61 O 0.94341 0.8407 0.68529 0.0
O62 O 0.88784 0.90079 0.72307 0.0
O63 O 0.92193 0.91146 0.82706 0.0
C64 C 0.19831 0.91452 0.92154 0.0
C65 C 0.25486 0.90883 0.90227 0.0
C66 C 0.21554 0.83973 0.98495 0.0
C67 C 0.29143 0.869 0.9242 0.0
C68 C 0.17901 0.87914 0.96286 0.0
C69 C 0.27222 0.83428 0.96613 0.0
C70 C 0.15794 0.95233 0.89352 0.0
C71 C 0.05537 0.98408 0.7237 0.0
H72 H 0.96647 0.92362 0.60848 0.0
H73 H 0.75987 0.93842 0.56574 0.0
H74 H 0.93401 0.98487 0.53331 0.0
H75 H 0.79236 0.8764 0.63654 0.0
H76 H 0.2706 0.93492 0.86978 0.0
H77 H 0.19949 0.81379 1.01743 0.0
H78 H 0.33511 0.86642 0.90945 0.0
H79 H 0.13545 0.88142 0.97794 0.0
Eu80 Eu 0.37771 0.81214 0.09911 0.0
Eu81 Eu 0.42886 0.72774 1.01706 0.0
C82 C 0.46194 0.73369 0.15415 0.0
C83 C 0.38983 0.94567 0.16582 0.0
C84 C 0.44578 0.93797 0.18698 0.0
C85 C 0.40439 0.04184 0.16874 0.0
C86 C 0.47991 0.98215 0.20083 0.0
C87 C 0.37041 0.99803 0.15527 0.0
C88 C 0.45876 1.03462 0.19327 0.0
C89 C 0.35228 0.89984 0.15225 0.0
O90 O 0.3598 0.67701 0.04607 0.0
O91 O 0.33928 0.72879 0.12325 0.0
C92 C 0.33763 0.68228 0.09509 0.0
O93 O 0.30287 0.79059 0.04868 0.0
O94 O 0.45354 0.65059 0.98042 0.0
O95 O 0.45726 0.72277 0.93034 0.0
O96 O 0.36451 0.78812 0.97783 0.0
C97 C 0.31231 0.79783 0.99613 0.0
O98 O 0.44115 0.84684 1.03545 0.0
O99 O 0.50331 0.77803 1.03581 0.0
O100 O 0.46174 0.70546 0.10658 0.0
O101 O 0.34085 0.89322 0.0994 0.0
O102 O 0.36309 0.85441 0.17763 0.0
O103 O 0.44272 0.78237 0.15665 0.0
C104 C 0.41415 0.64733 0.88849 0.0
C105 C 0.41281 0.66605 0.83308 0.0
C106 C 0.33311 0.5904 0.86695 0.0
C107 C 0.37225 0.64681 0.79488 0.0
C108 C 0.37321 0.60972 0.905 0.0
C109 C 0.33236 0.60823 0.8113 0.0
C110 C 0.45443 0.67049 0.92996 0.0
C111 C 0.49325 0.82839 1.0261 0.0
H112 H 0.46254 0.89788 0.19437 0.0
H113 H 0.38666 0.08186 0.1629 0.0
H114 H 0.52096 0.97526 0.22073 0.0
H115 H 0.32817 1.00515 0.13793 0.0
H116 H 0.44321 0.69559 0.81929 0.0
H117 H 0.30311 0.56058 0.881 0.0
H118 H 0.37339 0.66081 0.75216 0.0
H119 H 0.37193 0.59503 0.94745 0.0
Eu120 Eu 0.56653 0.17548 0.25607 0.0
Eu121 Eu 0.47129 0.13797 0.33578 0.0
C122 C 0.60938 0.10476 0.34344 0.0
C123 C 0.65786 0.16939 0.12719 0.0
C124 C 0.61813 0.13833 0.09743 0.0
C125 C 0.73414 0.13028 0.07225 0.0
C126 C 0.63674 0.10316 0.05495 0.0
C127 C 0.71555 0.16613 0.11291 0.0
C128 C 0.69536 0.0975 0.0434 0.0
C129 C 0.6437 0.19463 0.18095 0.0
O130 O 0.51182 0.18512 0.39985 0.0
O131 O 0.57038 0.22906 0.33813 0.0
C132 C 0.55015 0.22041 0.39009 0.0
O133 O 0.48634 0.20783 0.2201 0.0
O134 O 0.43365 0.10844 0.41328 0.0
O135 O 0.38163 0.11478 0.33926 0.0
O136 O 0.4471 0.22287 0.30433 0.0
C137 C 0.44988 0.23398 0.25063 0.0
O138 O 0.53814 0.09055 0.22958 0.0
O139 O 0.44731 0.10912 0.25202 0.0
O140 O 0.55625 0.08482 0.34193 0.0
O141 O 0.59668 0.22338 0.18531 0.0
O142 O 0.65144 0.16242 0.22302 0.0
O143 O 0.61734 0.15298 0.32732 0.0
C144 C 0.34143 0.14989 0.42151 0.0
C145 C 0.28507 0.15622 0.40168 0.0
C146 C 0.32416 0.22377 0.48597 0.0
C147 C 0.24858 0.19593 0.42383 0.0
C148 C 0.36061 0.18448 0.46367 0.0
C149 C 0.26768 0.22988 0.46655 0.0
C150 C 0.38176 0.1122 0.3934 0.0
C151 C 0.48333 0.08079 0.22346 0.0
H152 H 0.57338 0.13921 0.10896 0.0
H153 H 0.77968 0.12715 0.06494 0.0
H154 H 0.60595 0.07844 1.03357 0.0
H155 H 0.74703 0.18863 0.13606 0.0
H156 H 0.2694 0.13074 0.36859 0.0
H157 H 0.34013 0.24912 0.51905 0.0
H158 H 0.20506 0.19902 0.40857 0.0
H159 H 0.40403 0.18168 0.47927 0.0
Eu160 Eu 0.61214 0.23232 0.57885 0.0
Eu161 Eu 0.66908 0.31019 0.49672 0.0
C162 C 0.69931 0.17702 0.50185 0.0
C163 C 0.6232 0.15354 0.70832 0.0
C164 C 0.63184 0.17722 0.761 0.0
C165 C 0.69837 0.0882 0.73059 0.0
C166 C 0.6732 0.15641 0.79815 0.0
C167 C 0.65732 0.10885 0.6937 0.0
C168 C 0.70675 0.11136 0.78344 0.0
C169 C 0.5834 0.17848 0.6667 0.0
O170 O 0.6027 0.28808 0.43673 0.0
O171 O 0.57533 0.21555 0.48941 0.0
C172 C 0.57609 0.24318 0.44122 0.0
O173 O 0.53949 0.28451 0.55595 0.0
O174 O 0.70042 0.34838 0.42097 0.0
O175 O 0.70354 0.39126 0.49948 0.0
O176 O 0.60368 0.34974 0.55752 0.0
C177 C 0.55066 0.33424 0.56569 0.0
O178 O 0.67584 0.29129 0.61894 0.0
O179 O 0.74031 0.28488 0.55151 0.0
O180 O 0.70124 0.22338 0.4735 0.0
O181 O 0.58231 0.23089 0.66526 0.0
O182 O 0.58333 0.1577 0.61661 0.0
O183 O 0.67651 0.17423 0.5507 0.0
C184 C 0.66671 0.4391 0.4221 0.0
C185 C 0.66894 0.49152 0.44391 0.0
C186 C 0.5871 0.46756 0.36319 0.0
C187 C 0.63082 0.53178 0.42503 0.0
C188 C 0.62473 0.42762 0.38202 0.0
C189 C 0.58994 0.52022 0.3839 0.0
C190 C 0.70347 0.39529 0.44522 0.0
C191 C 0.72912 0.29698 0.60277 0.0
H192 H 0.60679 0.21208 0.77336 0.0
H193 H 0.72323 0.05336 0.71777 0.0
H194 H 0.67795 0.17482 0.83875 0.0
H195 H 0.65283 0.0898 0.65339 0.0
H196 H 0.70015 0.50131 0.4756 0.0
H197 H 0.55616 0.45733 0.33138 0.0
H198 H 0.63462 0.57214 0.44118 0.0
H199 H 0.6206 0.3876 0.36506 0.0
Eu200 Eu 0.97196 0.43555 0.75457 0.0
Eu201 Eu 0.05853 0.39162 0.84106 0.0
C202 C 0.05383 0.35336 0.70544 0.0
C203 C 0.84168 0.41624 0.67125 0.0
C204 C 0.78473 0.41315 0.68975 0.0
C205 C 0.82574 0.33725 0.61349 0.0
C206 C 0.74854 0.37271 0.66999 0.0
C207 C 0.86176 0.3773 0.63329 0.0
C208 C 0.76856 0.33458 0.63115 0.0
C209 C 0.88145 0.45631 0.69547 0.0
O210 O 0.11414 0.45464 0.81187 0.0
O211 O 0.06326 0.46701 0.73064 0.0
C212 C 0.11156 0.4705 0.76075 0.0
O213 O 0.99259 0.50785 0.80236 0.0
O214 O 0.13911 0.3698 0.88173 0.0
O215 O 0.06008 0.36696 0.92869 0.0
O216 O 0.99247 0.45329 0.87599 0.0
C217 C 0.9844 0.50179 0.85517 0.0
O218 O 0.93516 0.37411 0.81724 0.0
O219 O 1.01131 0.31932 0.81829 0.0
O220 O 0.08415 0.35724 0.75286 0.0
O221 O 0.88173 0.45969 0.74987 0.0
O222 O 0.93314 0.4574 0.67474 0.0
O223 O 1.00176 0.37044 0.70198 0.0
C224 C 0.13878 0.40866 0.9726 0.0
C225 C 0.12094 0.40773 1.02862 0.0
C226 C 0.19551 0.48748 0.9936 0.0
C227 C 0.14079 0.44601 0.06693 0.0
C228 C 0.17554 0.44968 0.95549 0.0
C229 C 0.17905 0.48583 0.0499 0.0
C230 C 0.11578 0.36985 0.93127 0.0
C231 C 0.95679 0.32542 0.82419 0.0
H232 H 0.76822 0.44201 0.7196 0.0
H233 H 0.84256 0.30871 0.58345 0.0
H234 H 0.70453 0.37233 0.68385 0.0
H235 H 0.90555 0.37747 0.61875 0.0
H236 H 0.09194 0.37716 0.04285 0.0
H237 H 0.22511 0.51748 0.97915 0.0
H238 H 0.12799 0.44311 0.11017 0.0
H239 H 0.18936 0.45262 0.91256 0.0
Eu240 Eu 0.92748 0.83228 0.07919 0.0
Eu241 Eu 0.87092 0.75433 0.99658 0.0
C242 C 0.84051 0.88749 1.00174 0.0
C243 C 0.9159 0.91089 0.20875 0.0
C244 C 0.90783 0.88749 0.26163 0.0
C245 C 0.84023 0.97575 0.23071 0.0
C246 C 0.86652 0.90821 0.29873 0.0
C247 C 0.88121 0.95517 0.19385 0.0
C248 C 0.83246 0.9529 0.28377 0.0
C249 C 0.95583 0.8861 0.16729 0.0
O250 O 0.93747 0.77655 0.93712 0.0
O251 O 0.96424 0.8493 0.98986 0.0
C252 C 0.96374 0.82162 0.94168 0.0
O253 O 1.00032 0.78035 0.05658 0.0
O254 O 0.8399 0.71624 0.92053 0.0
O255 O 0.83674 0.67314 0.99892 0.0
O256 O 0.93635 0.71489 0.05767 0.0
C257 C 0.98931 0.73054 0.0661 0.0
O258 O 0.86388 0.7731 0.11884 0.0
O259 O 0.79949 0.77927 0.05102 0.0
O260 O 0.83882 0.84121 0.97324 0.0
O261 O 0.95709 0.8337 0.16581 0.0
O262 O 0.95592 0.90695 0.11722 0.0
O263 O 0.86291 0.89013 0.05086 0.0
C264 C 0.87371 0.62551 0.92159 0.0
C265 C 0.87174 0.5731 0.94349 0.0
C266 C 0.95302 0.59712 0.86257 0.0
C267 C 0.90984 0.53289 0.92461 0.0
C268 C 0.91541 0.63702 0.88139 0.0
C269 C 0.95044 0.54448 0.88338 0.0
C270 C 0.8369 0.66925 0.94465 0.0
C271 C 0.81065 0.76727 0.10237 0.0
H272 H 0.93332 0.85294 0.27421 0.0
H273 H 0.81496 1.0103 0.21769 0.0
H274 H 0.86225 0.89005 0.33949 0.0
H275 H 0.88524 0.97398 0.15338 0.0
H276 H 0.84075 0.56328 0.97524 0.0
H277 H 0.98374 0.60738 0.83068 0.0
H278 H 0.90624 0.49255 0.94086 0.0
H279 H 0.91932 0.67702 0.86434 0.0
Eu280 Eu 0.5682 0.62913 0.25481 0.0
Eu281 Eu 0.48158 0.67289 0.34141 0.0
C282 C 0.48613 0.71154 0.20603 0.0
C283 C 0.69805 0.64839 0.17113 0.0
C284 C 0.75494 0.6517 0.18997 0.0
C285 C 0.71406 0.72688 0.1127 0.0
C286 C 0.79113 0.69201 0.17008 0.0
C287 C 0.67803 0.68696 0.13264 0.0
C288 C 0.77118 0.72979 0.13074 0.0
C289 C 0.6583 0.60842 0.19544 0.0
O290 O 0.42651 0.60938 0.3121 0.0
O291 O 0.47689 0.59772 0.23067 0.0
C292 C 0.42883 0.59385 0.26086 0.0
O293 O 0.54781 0.55688 0.30273 0.0
O294 O 0.40091 0.69464 0.3816 0.0
O295 O 0.47983 0.69748 0.42903 0.0
O296 O 0.54778 0.61134 0.37651 0.0
C297 C 0.55601 0.56293 0.35559 0.0
O298 O 0.60524 0.69026 0.31775 0.0
O299 O 0.52907 0.74509 0.31892 0.0
O300 O 0.4557 0.70722 0.25319 0.0
O301 O 0.65838 0.60495 0.24984 0.0
O302 O 0.60646 0.60749 0.17483 0.0
O303 O 0.53837 0.69488 0.20289 0.0
C304 C 0.401 0.65592 0.47257 0.0
C305 C 0.41918 0.65658 0.52857 0.0
C306 C 0.34359 0.57758 0.49357 0.0
C307 C 0.3992 0.61841 0.56685 0.0
C308 C 0.3637 0.61527 0.45547 0.0
C309 C 0.36044 0.57896 0.54984 0.0
C310 C 0.42414 0.69462 0.43128 0.0
C311 C 0.58361 0.73891 0.32483 0.0
H312 H 0.77142 0.62312 0.2202 0.0
H313 H 0.69729 0.75514 0.08227 0.0
H314 H 0.83509 0.69258 0.18426 0.0
H315 H 0.63429 0.68659 0.1178 0.0
H316 H 0.44858 0.68686 0.54279 0.0
H317 H 0.3136 0.54787 0.47912 0.0
H318 H 0.41233 0.6211 0.61006 0.0
H319 H 0.34958 0.61255 0.41256 0.0
Eu320 Eu 0.31428 0.50178 0.15352 0.0
Eu321 Eu 0.23359 0.58386 0.20639 0.0
C322 C 0.37501 0.57381 0.23711 0.0
C323 C 0.3817 0.36691 0.1574 0.0
C324 C 0.3876 0.37141 0.2158 0.0
C325 C 0.40827 0.27301 0.16424 0.0
C326 C 0.40566 0.32713 0.24803 0.0
C327 C 0.39058 0.31702 0.13228 0.0
C328 C 0.41776 0.27782 0.22215 0.0
C329 C 0.36539 0.41371 0.12277 0.0
O330 O 0.2636 0.63963 0.14327 0.0
O331 O 0.33981 0.58582 0.11781 0.0
C332 C 0.31256 0.63353 0.11925 0.0
O333 O 0.26284 0.52831 0.08144 0.0
O334 O 0.19509 0.65994 0.23307 0.0
O335 O 0.14451 0.58777 0.23398 0.0
O336 O 0.19223 0.52576 0.1428 0.0
C337 C 0.2094 0.51999 0.09086 0.0
O338 O 0.2515 0.46647 0.21839 0.0
O339 O 0.25515 0.53387 0.27922 0.0
O340 O 0.32591 0.60226 0.23962 0.0
O341 O 0.31051 0.42189 0.11644 0.0
O342 O 0.39274 0.45799 0.13292 0.0
O343 O 0.37779 0.52719 0.21392 0.0
C344 C 0.10298 0.66397 0.19045 0.0
C345 C 0.04572 0.64742 0.18793 0.0
C346 C 0.08648 0.71739 0.1067 0.0
C347 C 1.009 0.66621 0.14545 0.0
C348 C 0.12292 0.6987 0.14878 0.0
C349 C 1.02897 0.70192 0.10469 0.0
C350 C 0.14358 0.64013 0.23175 0.0
C351 C 0.24466 0.48392 0.26987 0.0
H352 H 0.37977 0.40955 0.23622 0.0
H353 H 0.4169 0.2354 0.14301 0.0
H354 H 0.41307 0.33222 0.29227 0.0
H355 H 0.38521 0.31234 0.08768 0.0
H356 H 1.02942 0.61986 0.21877 0.0
H357 H 0.10319 0.74509 0.07617 0.0
H358 H 0.96467 0.65427 0.14567 0.0
H359 H 0.16695 0.71152 0.14832 0.0
Eu360 Eu 0.73506 0.98637 0.89228 0.0
Eu361 Eu 0.82195 0.06797 0.93697 0.0
C362 C 0.81612 0.93797 0.979 0.0
C363 C 0.60705 0.902 0.90797 0.0
C364 C 0.55154 0.92306 0.91618 0.0
C365 C 0.58905 0.83632 0.98098 0.0
C366 C 0.51515 0.90091 0.95631 0.0
C367 C 0.62536 0.85849 0.9412 0.0
C368 C 0.53339 0.85697 0.98887 0.0
C369 C 0.64714 0.92817 0.86857 0.0
O370 O 0.88007 0.03899 0.87211 0.0
O371 O 0.82764 0.96216 0.86323 0.0
C372 C 0.87681 0.98902 0.85842 0.0
O373 O 0.75454 1.03304 0.817 0.0
O374 O 0.90044 0.10897 0.96006 0.0
O375 O 0.81871 0.15043 0.96765 0.0
O376 O 0.75592 0.10346 0.87415 0.0
C377 C 0.74524 0.08379 0.82425 0.0
O378 O 0.69648 0.04833 0.95443 0.0
O379 O 0.77212 0.04418 1.01011 0.0
O380 O 0.84647 0.98324 0.97494 0.0
O381 O 0.64532 0.98058 0.86756 0.0
O382 O 0.69962 0.90944 0.8674 0.0
O383 O 0.76429 0.93541 0.96066 0.0
C384 C 0.89371 0.1994 0.92792 0.0
C385 C 0.87444 0.25255 0.93633 0.0
C386 C 0.94509 0.22899 0.84567 0.0
C387 C 0.89112 0.29377 0.90006 0.0
C388 C 0.92816 0.188 0.88137 0.0
C389 C 0.92755 0.28238 0.85498 0.0
C390 C 0.87405 0.15544 0.96463 0.0
C391 C 0.71882 0.05686 1.00401 0.0
H392 H 0.53632 0.95686 0.89166 0.0
H393 H 0.6045 0.8024 1.0052 0.0
H394 H 0.47232 0.91737 0.9608 0.0
H395 H 0.66797 0.84149 0.93682 0.0
H396 H 0.84694 0.26224 0.97128 0.0
H397 H 0.97351 0.21911 0.81144 0.0
H398 H 0.87785 0.3347 0.90883 0.0
H399 H 0.94264 0.14742 0.87264 0.0
Eu400 Eu 0.71789 0.99653 0.43726 0.0
Eu401 Eu 0.80439 0.07802 0.39235 0.0
C402 C 0.66252 0.07536 0.35865 0.0
C403 C 0.64661 0.86498 0.42857 0.0
C404 C 0.66535 0.81176 0.43762 0.0
C405 C 0.59602 0.83532 0.3457 0.0
C406 C 0.64877 0.77047 0.40135 0.0
C407 C 0.61287 0.87638 0.3814 0.0
C408 C 0.613 0.78188 0.35563 0.0
C409 C 0.66621 0.90901 0.46525 0.0
O410 O 0.77536 0.12927 0.46049 0.0
O411 O 0.69346 0.08123 0.47523 0.0
C412 C 0.72372 0.12657 0.47912 0.0
O413 O 0.76793 1.02075 0.51029 0.0
O414 O 0.8397 0.15486 0.36711 0.0
O415 O 0.89403 0.08374 0.36761 0.0
O416 O 0.84325 1.01614 0.45465 0.0
C417 C 0.82115 1.00784 0.50428 0.0
O418 O 0.78367 0.96095 0.37448 0.0
O419 O 0.78464 1.03123 0.31714 0.0
O420 O 0.71172 0.1022 0.36333 0.0
O421 O 0.72154 0.91419 0.46826 0.0
O422 O 0.63964 0.95538 0.46053 0.0
O423 O 0.65929 1.02542 0.37248 0.0
C424 C 0.9324 0.16248 0.40766 0.0
C425 C 0.98788 0.14135 0.41611 0.0
C426 C 0.95062 0.22843 0.48036 0.0
C427 C 1.02436 0.1636 0.45622 0.0
C428 C 0.91422 0.20617 0.44059 0.0
C429 C 1.00624 0.20771 0.48851 0.0
C430 C 0.89219 0.13615 0.36837 0.0
C431 C 0.7941 0.98052 0.32452 0.0
H432 H 0.69234 0.80208 0.47307 0.0
H433 H 0.56808 0.8452 0.31098 0.0
H434 H 0.66155 0.72949 0.4106 0.0
H435 H 0.59886 0.91702 0.37218 0.0
H436 H 1.003 0.10741 0.39181 0.0
H437 H 0.93527 0.26249 0.50437 0.0
H438 H 0.06716 0.14708 0.46092 0.0
H439 H 0.87164 0.22321 0.43601 0.0
Eu440 Eu 0.22553 0.56286 0.65364 0.0
Eu441 Eu 0.30664 0.4807 0.70625 0.0
C442 C 0.16529 0.49062 0.73707 0.0
C443 C 0.15773 0.69773 0.65788 0.0
C444 C 0.15187 0.69317 0.71626 0.0
C445 C 0.13111 0.79163 0.6647 0.0
C446 C 0.13384 0.73744 0.74846 0.0
C447 C 0.14878 0.74765 0.63278 0.0
C448 C 0.12171 0.78679 0.72259 0.0
C449 C 0.17405 0.65098 0.62322 0.0
O450 O 0.27641 0.425 0.64313 0.0
O451 O 0.19994 0.47875 0.61793 0.0
C452 C 0.22727 0.43106 0.61929 0.0
O453 O 0.27662 0.53669 0.5814 0.0
O454 O 0.34542 0.40459 0.73267 0.0
O455 O 0.3959 0.47682 0.73369 0.0
O456 O 0.34758 0.53897 0.64271 0.0
C457 C 0.33012 0.54489 0.5908 0.0
O458 O 0.28856 0.59802 0.71858 0.0
O459 O 0.28535 0.53041 0.77923 0.0
O460 O 0.21444 0.46219 0.73949 0.0
O461 O 0.22892 0.64292 0.61687 0.0
O462 O 0.14686 0.6066 0.63327 0.0
O463 O 0.16236 0.53731 0.71403 0.0
C464 C 0.43734 0.40075 0.68998 0.0
C465 C 0.49462 0.41724 0.68756 0.0
C466 C 0.45358 0.34745 0.60617 0.0
C467 C 0.53121 0.39847 0.64512 0.0
C468 C 0.41726 0.36611 0.64822 0.0
C469 C 0.51112 0.36285 0.60427 0.0
C470 C 0.39689 0.42446 0.73134 0.0
C471 C 0.29565 0.58042 0.77002 0.0
H472 H 0.15974 0.65502 0.73668 0.0
H473 H 0.12247 0.82925 0.64346 0.0
H474 H 0.12649 0.7323 0.79269 0.0
H475 H 0.1541 0.75237 0.58819 0.0
H476 H 0.51104 0.44472 0.71847 0.0
H477 H 0.43676 0.31982 0.57557 0.0
H478 H 0.57556 0.41037 0.64543 0.0
H479 H 0.37322 0.35333 0.64767 0.0
loop_
_geom_bond_atom_site_label_1
_geom_bond_atom_site_label_2
_geom_bond_distance
_geom_bond_site_symmetry_2
_ccdc_geom_bond_type
Eu0 C9 2.828 . S
Eu0 O11 2.392 . S
Eu0 O13 2.418 . S
Eu0 O18 2.373 . S
Eu0 O21 2.488 . S
Eu0 O22 2.471 . S
Eu0 O23 2.349 . S
Eu1 O10 2.373 . S
Eu1 O14 2.488 . S
Eu1 O15 2.471 . S
Eu1 O16 2.349 . S
Eu1 O19 2.392 . S
Eu1 O20 2.418 . S
Eu1 C30 2.828 . S
C2 O20 1.244 . S
C2 O23 1.265 . S
C3 C4 1.379 . S
C3 C7 1.373 . S
C3 C9 1.505 . S
C4 C3 1.379 . S
C4 C6 1.369 . S
C4 H32 0.930 . S
C5 C7 1.383 . S
C5 C8 1.382 . S
C5 H33 0.930 1_545 S
C6 C4 1.369 . S
C6 C8 1.392 . S
C6 H34 0.930 1_455 S
C7 C3 1.373 . S
C7 C5 1.383 . S
C7 H35 0.931 . S
C8 C5 1.382 . S
C8 C6 1.392 . S
C9 Eu0 2.828 . S
C9 C3 1.505 . S
C9 O21 1.249 . S
C9 O22 1.244 . S
O10 Eu1 2.373 . S
O10 C12 1.258 . S
O11 Eu0 2.392 . S
O11 C12 1.242 . S
C12 O10 1.258 . S
C12 O11 1.242 . S
O13 Eu0 2.418 . S
O13 C17 1.244 . S
O14 Eu1 2.488 . S
O14 C30 1.249 . S
O15 Eu1 2.471 . S
O15 C30 1.244 . S
O16 Eu1 2.349 . S
O16 C17 1.265 . S
C17 O13 1.244 . S
C17 O16 1.265 . S
O18 Eu0 2.373 . S
O18 C31 1.258 . S
O19 Eu1 2.392 . S
O19 C31 1.242 . S
O20 Eu1 2.418 . S
O20 C2 1.244 . S
O21 Eu0 2.488 . S
O21 C9 1.249 . S
O22 Eu0 2.471 . S
O22 C9 1.244 . S
O23 Eu0 2.349 . S
O23 C2 1.265 . S
C24 C25 1.379 . S
C24 C28 1.373 . S
C24 C30 1.505 . S
C25 C24 1.379 . S
C25 C27 1.369 . S
C25 H36 0.930 . S
C26 C28 1.383 . S
C26 C29 1.382 . S
C26 H37 0.930 . S
C27 C25 1.369 . S
C27 C29 1.392 . S
C27 H38 0.930 . S
C28 C24 1.373 . S
C28 C26 1.383 . S
C28 H39 0.931 . S
C29 C26 1.382 . S
C29 C27 1.392 . S
C30 Eu1 2.828 . S
C30 O14 1.249 . S
C30 O15 1.244 . S
C30 C24 1.505 . S
C31 O18 1.258 . S
C31 O19 1.242 . S
H32 C4 0.930 . S
H33 C5 0.930 1_565 S
H34 C6 0.930 1_655 S
H35 C7 0.931 . S
H36 C25 0.930 . S
H37 C26 0.930 . S
H38 C27 0.930 . S
H39 C28 0.931 . S
Eu40 C49 2.828 . S
Eu40 O51 2.392 . S
Eu40 O53 2.418 1_655 S
Eu40 O58 2.373 . S
Eu40 O61 2.488 . S
Eu40 O62 2.471 . S
Eu40 O63 2.349 . S
Eu41 O50 2.373 . S
Eu41 O54 2.488 . S
Eu41 O55 2.471 . S
Eu41 O56 2.349 . S
Eu41 O59 2.392 . S
Eu41 O60 2.418 1_455 S
Eu41 C70 2.828 . S
C42 O60 1.244 . S
C42 O63 1.265 . S
C43 C44 1.379 . S
C43 C47 1.373 . S
C43 C49 1.505 . S
C44 C43 1.379 . S
C44 C46 1.369 . S
C44 H72 0.930 . S
C45 C47 1.383 . S
C45 C48 1.382 . S
C45 H73 0.930 . S
C46 C44 1.369 . S
C46 C48 1.392 . S
C46 H74 0.930 1_565 S
C47 C43 1.373 . S
C47 C45 1.383 . S
C47 H75 0.931 . S
C48 C45 1.382 . S
C48 C46 1.392 . S
C49 Eu40 2.828 . S
C49 C43 1.505 . S
C49 O61 1.249 . S
C49 O62 1.244 . S
O50 Eu41 2.373 . S
O50 C52 1.258 1_455 S
O51 Eu40 2.392 . S
O51 C52 1.242 . S
C52 O50 1.258 1_655 S
C52 O51 1.242 . S
O53 Eu40 2.418 1_455 S
O53 C57 1.244 . S
O54 Eu41 2.488 . S
O54 C70 1.249 . S
O55 Eu41 2.471 . S
O55 C70 1.244 . S
O56 Eu41 2.349 . S
O56 C57 1.265 . S
C57 O53 1.244 . S
C57 O56 1.265 . S
O58 Eu40 2.373 . S
O58 C71 1.258 1_655 S
O59 Eu41 2.392 . S
O59 C71 1.242 . S
O60 Eu41 2.418 1_655 S
O60 C42 1.244 . S
O61 Eu40 2.488 . S
O61 C49 1.249 . S
O62 Eu40 2.471 . S
O62 C49 1.244 . S
O63 Eu40 2.349 . S
O63 C42 1.265 . S
C64 C65 1.379 . S
C64 C68 1.373 . S
C64 C70 1.505 . S
C65 C64 1.379 . S
C65 C67 1.369 . S
C65 H76 0.930 . S
C66 C68 1.383 1_554 S
C66 C69 1.382 . S
C66 H77 0.930 . S
C67 C65 1.369 . S
C67 C69 1.392 1_556 S
C67 H78 0.930 . S
C68 C64 1.373 . S
C68 C66 1.383 1_556 S
C68 H79 0.931 . S
C69 C66 1.382 . S
C69 C67 1.392 1_554 S
C70 Eu41 2.828 . S
C70 O54 1.249 . S
C70 O55 1.244 . S
C70 C64 1.505 . S
C71 O58 1.258 1_455 S
C71 O59 1.242 . S
H72 C44 0.930 . S
H73 C45 0.930 . S
H74 C46 0.930 1_545 S
H75 C47 0.931 . S
H76 C65 0.930 . S
H77 C66 0.930 . S
H78 C67 0.930 . S
H79 C68 0.931 . S
Eu80 C89 2.828 . S
Eu80 O91 2.392 . S
Eu80 O93 2.418 1_554 S
Eu80 O98 2.373 . S
Eu80 O101 2.488 . S
Eu80 O102 2.471 . S
Eu80 O103 2.349 . S
Eu81 O90 2.373 . S
Eu81 O94 2.488 . S
Eu81 O95 2.471 . S
Eu81 O96 2.349 . S
Eu81 O99 2.392 . S
Eu81 O100 2.418 1_556 S
Eu81 C110 2.828 . S
C82 O100 1.244 . S
C82 O103 1.265 . S
C83 C84 1.379 . S
C83 C87 1.373 . S
C83 C89 1.505 . S
C84 C83 1.379 . S
C84 C86 1.369 . S
C84 H112 0.930 . S
C85 C87 1.383 . S
C85 C88 1.382 . S
C85 H113 0.930 1_565 S
C86 C84 1.369 . S
C86 C88 1.392 . S
C86 H114 0.930 . S
C87 C83 1.373 . S
C87 C85 1.383 . S
C87 H115 0.931 . S
C88 C85 1.382 . S
C88 C86 1.392 . S
C89 Eu80 2.828 . S
C89 C83 1.505 . S
C89 O101 1.249 . S
C89 O102 1.244 . S
O90 Eu81 2.373 . S
O90 C92 1.258 1_556 S
O91 Eu80 2.392 . S
O91 C92 1.242 . S
C92 O90 1.258 1_554 S
C92 O91 1.242 . S
O93 Eu80 2.418 1_556 S
O93 C97 1.244 . S
O94 Eu81 2.488 . S
O94 C110 1.249 . S
O95 Eu81 2.471 . S
O95 C110 1.244 . S
O96 Eu81 2.349 . S
O96 C97 1.265 . S
C97 O93 1.244 . S
C97 O96 1.265 . S
O98 Eu80 2.373 . S
O98 C111 1.258 1_554 S
O99 Eu81 2.392 . S
O99 C111 1.242 . S
O100 Eu81 2.418 1_554 S
O100 C82 1.244 . S
O101 Eu80 2.488 . S
O101 C89 1.249 . S
O102 Eu80 2.471 . S
O102 C89 1.244 . S
O103 Eu80 2.349 . S
O103 C82 1.265 . S
C104 C105 1.379 . S
C104 C108 1.373 . S
C104 C110 1.505 . S
C105 C104 1.379 . S
C105 C107 1.369 . S
C105 H116 0.930 . S
C106 C108 1.383 . S
C106 C109 1.382 . S
C106 H117 0.930 . S
C107 C105 1.369 . S
C107 C109 1.392 . S
C107 H118 0.930 . S
C108 C104 1.373 . S
C108 C106 1.383 . S
C108 H119 0.931 . S
C109 C106 1.382 . S
C109 C107 1.392 . S
C110 Eu81 2.828 . S
C110 O94 1.249 . S
C110 O95 1.244 . S
C110 C104 1.505 . S
C111 O98 1.258 1_556 S
C111 O99 1.242 . S
H112 C84 0.930 . S
H113 C85 0.930 1_545 S
H114 C86 0.930 . S
H115 C87 0.931 . S
H116 C105 0.930 . S
H117 C106 0.930 . S
H118 C107 0.930 . S
H119 C108 0.931 . S
Eu120 C129 2.828 . S
Eu120 O131 2.392 . S
Eu120 O133 2.418 . S
Eu120 O138 2.373 . S
Eu120 O141 2.488 . S
Eu120 O142 2.471 . S
Eu120 O143 2.349 . S
Eu121 O130 2.373 . S
Eu121 O134 2.488 . S
Eu121 O135 2.471 . S
Eu121 O136 2.349 . S
Eu121 O139 2.392 . S
Eu121 O140 2.418 . S
Eu121 C150 2.828 . S
C122 O140 1.244 . S
C122 O143 1.265 . S
C123 C124 1.379 . S
C123 C127 1.373 . S
C123 C129 1.505 . S
C124 C123 1.379 . S
C124 C126 1.369 . S
C124 H152 0.930 . S
C125 C127 1.383 . S
C125 C128 1.382 . S
C125 H153 0.930 1_554 S
C126 C124 1.369 . S
C126 C128 1.392 . S
C126 H154 0.930 1_545 S
C127 C123 1.373 . S
C127 C125 1.383 . S
C127 H155 0.931 . S
C128 C125 1.382 . S
C128 C126 1.392 . S
C129 Eu120 2.828 . S
C129 C123 1.505 . S
C129 O141 1.249 . S
C129 O142 1.244 . S
O130 Eu121 2.373 . S
O130 C132 1.258 . S
O131 Eu120 2.392 . S
O131 C132 1.242 . S
C132 O130 1.258 . S
C132 O131 1.242 . S
O133 Eu120 2.418 . S
O133 C137 1.244 . S
O134 Eu121 2.488 . S
O134 C150 1.249 . S
O135 Eu121 2.471 . S
O135 C150 1.244 . S
O136 Eu121 2.349 . S
O136 C137 1.265 . S
C137 O133 1.244 . S
C137 O136 1.265 . S
O138 Eu120 2.373 . S
O138 C151 1.258 . S
O139 Eu121 2.392 . S
O139 C151 1.242 . S
O140 Eu121 2.418 . S
O140 C122 1.244 . S
O141 Eu120 2.488 . S
O141 C129 1.249 . S
O142 Eu120 2.471 . S
O142 C129 1.244 . S
O143 Eu120 2.349 . S
O143 C122 1.265 . S
C144 C145 1.379 . S
C144 C148 1.373 . S
C144 C150 1.505 . S
C145 C144 1.379 . S
C145 C147 1.369 . S
C145 H156 0.930 . S
C146 C148 1.383 . S
C146 C149 1.382 . S
C146 H157 0.930 . S
C147 C145 1.369 . S
C147 C149 1.392 . S
C147 H158 0.930 . S
C148 C144 1.373 . S
C148 C146 1.383 . S
C148 H159 0.931 . S
C149 C146 1.382 . S
C149 C147 1.392 . S
C150 Eu121 2.828 . S
C150 O134 1.249 . S
C150 O135 1.244 . S
C150 C144 1.505 . S
C151 O138 1.258 . S
C151 O139 1.242 . S
H152 C124 0.930 . S
H153 C125 0.930 1_556 S
H154 C126 0.930 1_565 S
H155 C127 0.931 . S
H156 C145 0.930 . S
H157 C146 0.930 . S
H158 C147 0.930 . S
H159 C148 0.931 . S
Eu160 C169 2.828 . S
Eu160 O171 2.392 . S
Eu160 O173 2.418 . S
Eu160 O178 2.373 . S
Eu160 O181 2.488 . S
Eu160 O182 2.471 . S
Eu160 O183 2.349 . S
Eu161 O170 2.373 . S
Eu161 O174 2.488 . S
Eu161 O175 2.471 . S
Eu161 O176 2.349 . S
Eu161 O179 2.392 . S
Eu161 O180 2.418 . S
Eu161 C190 2.828 . S
C162 O180 1.244 . S
C162 O183 1.265 . S
C163 C164 1.379 . S
C163 C167 1.373 . S
C163 C169 1.505 . S
C164 C163 1.379 . S
C164 C166 1.369 . S
C164 H192 0.930 . S
C165 C167 1.383 . S
C165 C168 1.382 . S
C165 H193 0.930 . S
C166 C164 1.369 . S
C166 C168 1.392 . S
C166 H194 0.930 . S
C167 C163 1.373 . S
C167 C165 1.383 . S
C167 H195 0.931 . S
C168 C165 1.382 . S
C168 C166 1.392 . S
C169 Eu160 2.828 . S
C169 C163 1.505 . S
C169 O181 1.249 . S
C169 O182 1.244 . S
O170 Eu161 2.373 . S
O170 C172 1.258 . S
O171 Eu160 2.392 . S
O171 C172 1.242 . S
C172 O170 1.258 . S
C172 O171 1.242 . S
O173 Eu160 2.418 . S
O173 C177 1.244 . S
O174 Eu161 2.488 . S
O174 C190 1.249 . S
O175 Eu161 2.471 . S
O175 C190 1.244 . S
O176 Eu161 2.349 . S
O176 C177 1.265 . S
C177 O173 1.244 . S
C177 O176 1.265 . S
O178 Eu160 2.373 . S
O178 C191 1.258 . S
O179 Eu161 2.392 . S
O179 C191 1.242 . S
O180 Eu161 2.418 . S
O180 C162 1.244 . S
O181 Eu160 2.488 . S
O181 C169 1.249 . S
O182 Eu160 2.471 . S
O182 C169 1.244 . S
O183 Eu160 2.349 . S
O183 C162 1.265 . S
C184 C185 1.379 . S
C184 C188 1.373 . S
C184 C190 1.505 . S
C185 C184 1.379 . S
C185 C187 1.369 . S
C185 H196 0.930 . S
C186 C188 1.383 . S
C186 C189 1.382 . S
C186 H197 0.930 . S
C187 C185 1.369 . S
C187 C189 1.392 . S
C187 H198 0.930 . S
C188 C184 1.373 . S
C188 C186 1.383 . S
C188 H199 0.931 . S
C189 C186 1.382 . S
C189 C187 1.392 . S
C190 Eu161 2.828 . S
C190 O174 1.249 . S
C190 O175 1.244 . S
C190 C184 1.505 . S
C191 O178 1.258 . S
C191 O179 1.242 . S
H192 C164 0.930 . S
H193 C165 0.930 . S
H194 C166 0.930 . S
H195 C167 0.931 . S
H196 C185 0.930 . S
H197 C186 0.930 . S
H198 C187 0.930 . S
H199 C188 0.931 . S
Eu200 C209 2.828 . S
Eu200 O211 2.392 1_655 S
Eu200 O213 2.418 . S
Eu200 O218 2.373 . S
Eu200 O221 2.488 . S
Eu200 O222 2.471 . S
Eu200 O223 2.349 1_655 S
Eu201 O210 2.373 . S
Eu201 O214 2.488 . S
Eu201 O215 2.471 . S
Eu201 O216 2.349 1_455 S
Eu201 O219 2.392 1_455 S
Eu201 O220 2.418 . S
Eu201 C230 2.828 . S
C202 O220 1.244 . S
C202 O223 1.265 . S
C203 C204 1.379 . S
C203 C207 1.373 . S
C203 C209 1.505 . S
C204 C203 1.379 . S
C204 C206 1.369 . S
C204 H232 0.930 . S
C205 C207 1.383 . S
C205 C208 1.382 . S
C205 H233 0.930 . S
C206 C204 1.369 . S
C206 C208 1.392 . S
C206 H234 0.930 . S
C207 C203 1.373 . S
C207 C205 1.383 . S
C207 H235 0.931 . S
C208 C205 1.382 . S
C208 C206 1.392 . S
C209 Eu200 2.828 . S
C209 C203 1.505 . S
C209 O221 1.249 . S
C209 O222 1.244 . S
O210 Eu201 2.373 . S
O210 C212 1.258 . S
O211 Eu200 2.392 1_455 S
O211 C212 1.242 . S
C212 O210 1.258 . S
C212 O211 1.242 . S
O213 Eu200 2.418 . S
O213 C217 1.244 . S
O214 Eu201 2.488 . S
O214 C230 1.249 . S
O215 Eu201 2.471 . S
O215 C230 1.244 . S
O216 Eu201 2.349 1_655 S
O216 C217 1.265 . S
C217 O213 1.244 . S
C217 O216 1.265 . S
O218 Eu200 2.373 . S
O218 C231 1.258 . S
O219 Eu201 2.392 1_655 S
O219 C231 1.242 . S
O220 Eu201 2.418 . S
O220 C202 1.244 . S
O221 Eu200 2.488 . S
O221 C209 1.249 . S
O222 Eu200 2.471 . S
O222 C209 1.244 . S
O223 Eu200 2.349 1_455 S
O223 C202 1.265 . S
C224 C225 1.379 . S
C224 C228 1.373 . S
C224 C230 1.505 . S
C225 C224 1.379 . S
C225 C227 1.369 . S
C225 H236 0.930 . S
C226 C228 1.383 . S
C226 C229 1.382 . S
C226 H237 0.930 . S
C227 C225 1.369 . S
C227 C229 1.392 . S
C227 H238 0.930 . S
C228 C224 1.373 . S
C228 C226 1.383 . S
C228 H239 0.931 . S
C229 C226 1.382 . S
C229 C227 1.392 . S
C230 Eu201 2.828 . S
C230 O214 1.249 . S
C230 O215 1.244 . S
C230 C224 1.505 . S
C231 O218 1.258 . S
C231 O219 1.242 . S
H232 C204 0.930 . S
H233 C205 0.930 . S
H234 C206 0.930 . S
H235 C207 0.931 . S
H236 C225 0.930 . S
H237 C226 0.930 . S
H238 C227 0.930 . S
H239 C228 0.931 . S
Eu240 C249 2.828 . S
Eu240 O251 2.392 1_554 S
Eu240 O253 2.418 . S
Eu240 O258 2.373 . S
Eu240 O261 2.488 . S
Eu240 O262 2.471 . S
Eu240 O263 2.349 1_554 S
Eu241 O250 2.373 . S
Eu241 O254 2.488 . S
Eu241 O255 2.471 . S
Eu241 O256 2.349 1_556 S
Eu241 O259 2.392 1_556 S
Eu241 O260 2.418 . S
Eu241 C270 2.828 . S
C242 O260 1.244 . S
C242 O263 1.265 . S
C243 C244 1.379 . S
C243 C247 1.373 . S
C243 C249 1.505 . S
C244 C243 1.379 . S
C244 C246 1.369 . S
C244 H272 0.930 . S
C245 C247 1.383 . S
C245 C248 1.382 . S
C245 H273 0.930 . S
C246 C244 1.369 . S
C246 C248 1.392 . S
C246 H274 0.930 . S
C247 C243 1.373 . S
C247 C245 1.383 . S
C247 H275 0.931 . S
C248 C245 1.382 . S
C248 C246 1.392 . S
C249 Eu240 2.828 . S
C249 C243 1.505 . S
C249 O261 1.249 . S
C249 O262 1.244 . S
O250 Eu241 2.373 . S
O250 C252 1.258 . S
O251 Eu240 2.392 1_556 S
O251 C252 1.242 . S
C252 O250 1.258 . S
C252 O251 1.242 . S
O253 Eu240 2.418 . S
O253 C257 1.244 . S
O254 Eu241 2.488 . S
O254 C270 1.249 . S
O255 Eu241 2.471 . S
O255 C270 1.244 . S
O256 Eu241 2.349 1_554 S
O256 C257 1.265 . S
C257 O253 1.244 . S
C257 O256 1.265 . S
O258 Eu240 2.373 . S
O258 C271 1.258 . S
O259 Eu241 2.392 1_554 S
O259 C271 1.242 . S
O260 Eu241 2.418 . S
O260 C242 1.244 . S
O261 Eu240 2.488 . S
O261 C249 1.249 . S
O262 Eu240 2.471 . S
O262 C249 1.244 . S
O263 Eu240 2.349 1_556 S
O263 C242 1.265 . S
C264 C265 1.379 . S
C264 C268 1.373 . S
C264 C270 1.505 . S
C265 C264 1.379 . S
C265 C267 1.369 . S
C265 H276 0.930 . S
C266 C268 1.383 . S
C266 C269 1.382 . S
C266 H277 0.930 . S
C267 C265 1.369 . S
C267 C269 1.392 . S
C267 H278 0.930 1_655 S
C268 C264 1.373 . S
C268 C266 1.383 . S
C268 H279 0.931 . S
C269 C266 1.382 . S
C269 C267 1.392 . S
C270 Eu241 2.828 . S
C270 O254 1.249 . S
C270 O255 1.244 . S
C270 C264 1.505 . S
C271 O258 1.258 . S
C271 O259 1.242 . S
H272 C244 0.930 . S
H273 C245 0.930 . S
H274 C246 0.930 . S
H275 C247 0.931 . S
H276 C265 0.930 . S
H277 C266 0.930 . S
H278 C267 0.930 1_455 S
H279 C268 0.931 . S
Eu280 C289 2.828 . S
Eu280 O291 2.392 . S
Eu280 O293 2.418 . S
Eu280 O298 2.373 . S
Eu280 O301 2.488 . S
Eu280 O302 2.471 . S
Eu280 O303 2.349 . S
Eu281 O290 2.373 . S
Eu281 O294 2.488 . S
Eu281 O295 2.471 . S
Eu281 O296 2.349 . S
Eu281 O299 2.392 . S
Eu281 O300 2.418 . S
Eu281 C310 2.828 . S
C282 O300 1.244 . S
C282 O303 1.265 . S
C283 C284 1.379 . S
C283 C287 1.373 . S
C283 C289 1.505 . S
C284 C283 1.379 . S
C284 C286 1.369 . S
C284 H312 0.930 . S
C285 C287 1.383 . S
C285 C288 1.382 . S
C285 H313 0.930 . S
C286 C284 1.369 . S
C286 C288 1.392 . S
C286 H314 0.930 . S
C287 C283 1.373 . S
C287 C285 1.383 . S
C287 H315 0.931 . S
C288 C285 1.382 . S
C288 C286 1.392 . S
C289 Eu280 2.828 . S
C289 C283 1.505 . S
C289 O301 1.249 . S
C289 O302 1.244 . S
O290 Eu281 2.373 . S
O290 C292 1.258 . S
O291 Eu280 2.392 . S
O291 C292 1.242 . S
C292 O290 1.258 . S
C292 O291 1.242 . S
O293 Eu280 2.418 . S
O293 C297 1.244 . S
O294 Eu281 2.488 . S
O294 C310 1.249 . S
O295 Eu281 2.471 . S
O295 C310 1.244 . S
O296 Eu281 2.349 . S
O296 C297 1.265 . S
C297 O293 1.244 . S
C297 O296 1.265 . S
O298 Eu280 2.373 . S
O298 C311 1.258 . S
O299 Eu281 2.392 . S
O299 C311 1.242 . S
O300 Eu281 2.418 . S
O300 C282 1.244 . S
O301 Eu280 2.488 . S
O301 C289 1.249 . S
O302 Eu280 2.471 . S
O302 C289 1.244 . S
O303 Eu280 2.349 . S
O303 C282 1.265 . S
C304 C305 1.379 . S
C304 C308 1.373 . S
C304 C310 1.505 . S
C305 C304 1.379 . S
C305 C307 1.369 . S
C305 H316 0.930 . S
C306 C308 1.383 . S
C306 C309 1.382 . S
C306 H317 0.930 . S
C307 C305 1.369 . S
C307 C309 1.392 . S
C307 H318 0.930 . S
C308 C304 1.373 . S
C308 C306 1.383 . S
C308 H319 0.931 . S
C309 C306 1.382 . S
C309 C307 1.392 . S
C310 Eu281 2.828 . S
C310 O294 1.249 . S
C310 O295 1.244 . S
C310 C304 1.505 . S
C311 O298 1.258 . S
C311 O299 1.242 . S
H312 C284 0.930 . S
H313 C285 0.930 . S
H314 C286 0.930 . S
H315 C287 0.931 . S
H316 C305 0.930 . S
H317 C306 0.930 . S
H318 C307 0.930 . S
H319 C308 0.931 . S
Eu320 C329 2.828 . S
Eu320 O331 2.392 . S
Eu320 O333 2.418 . S
Eu320 O338 2.373 . S
Eu320 O341 2.488 . S
Eu320 O342 2.471 . S
Eu320 O343 2.349 . S
Eu321 O330 2.373 . S
Eu321 O334 2.488 . S
Eu321 O335 2.471 . S
Eu321 O336 2.349 . S
Eu321 O339 2.392 . S
Eu321 O340 2.418 . S
Eu321 C350 2.828 . S
C322 O340 1.244 . S
C322 O343 1.265 . S
C323 C324 1.379 . S
C323 C327 1.373 . S
C323 C329 1.505 . S
C324 C323 1.379 . S
C324 C326 1.369 . S
C324 H352 0.930 . S
C325 C327 1.383 . S
C325 C328 1.382 . S
C325 H353 0.930 . S
C326 C324 1.369 . S
C326 C328 1.392 . S
C326 H354 0.930 . S
C327 C323 1.373 . S
C327 C325 1.383 . S
C327 H355 0.931 . S
C328 C325 1.382 . S
C328 C326 1.392 . S
C329 Eu320 2.828 . S
C329 C323 1.505 . S
C329 O341 1.249 . S
C329 O342 1.244 . S
O330 Eu321 2.373 . S
O330 C332 1.258 . S
O331 Eu320 2.392 . S
O331 C332 1.242 . S
C332 O330 1.258 . S
C332 O331 1.242 . S
O333 Eu320 2.418 . S
O333 C337 1.244 . S
O334 Eu321 2.488 . S
O334 C350 1.249 . S
O335 Eu321 2.471 . S
O335 C350 1.244 . S
O336 Eu321 2.349 . S
O336 C337 1.265 . S
C337 O333 1.244 . S
C337 O336 1.265 . S
O338 Eu320 2.373 . S
O338 C351 1.258 . S
O339 Eu321 2.392 . S
O339 C351 1.242 . S
O340 Eu321 2.418 . S
O340 C322 1.244 . S
O341 Eu320 2.488 . S
O341 C329 1.249 . S
O342 Eu320 2.471 . S
O342 C329 1.244 . S
O343 Eu320 2.349 . S
O343 C322 1.265 . S
C344 C345 1.379 . S
C344 C348 1.373 . S
C344 C350 1.505 . S
C345 C344 1.379 . S
C345 C347 1.369 . S
C345 H356 0.930 . S
C346 C348 1.383 . S
C346 C349 1.382 . S
C346 H357 0.930 . S
C347 C345 1.369 . S
C347 C349 1.392 . S
C347 H358 0.930 1_554 S
C348 C344 1.373 . S
C348 C346 1.383 . S
C348 H359 0.931 . S
C349 C346 1.382 . S
C349 C347 1.392 . S
C350 Eu321 2.828 . S
C350 O334 1.249 . S
C350 O335 1.244 . S
C350 C344 1.505 . S
C351 O338 1.258 . S
C351 O339 1.242 . S
H352 C324 0.930 . S
H353 C325 0.930 . S
H354 C326 0.930 . S
H355 C327 0.931 . S
H356 C345 0.930 . S
H357 C346 0.930 . S
H358 C347 0.930 1_556 S
H359 C348 0.931 . S
Eu360 C369 2.828 . S
Eu360 O371 2.392 . S
Eu360 O373 2.418 1_565 S
Eu360 O378 2.373 . S
Eu360 O381 2.488 . S
Eu360 O382 2.471 . S
Eu360 O383 2.349 . S
Eu361 O370 2.373 . S
Eu361 O374 2.488 . S
Eu361 O375 2.471 . S
Eu361 O376 2.349 . S
Eu361 O379 2.392 . S
Eu361 O380 2.418 1_545 S
Eu361 C390 2.828 . S
C362 O380 1.244 . S
C362 O383 1.265 . S
C363 C364 1.379 . S
C363 C367 1.373 . S
C363 C369 1.505 . S
C364 C363 1.379 . S
C364 C366 1.369 . S
C364 H392 0.930 . S
C365 C367 1.383 . S
C365 C368 1.382 . S
C365 H393 0.930 . S
C366 C364 1.369 . S
C366 C368 1.392 . S
C366 H394 0.930 1_556 S
C367 C363 1.373 . S
C367 C365 1.383 . S
C367 H395 0.931 . S
C368 C365 1.382 . S
C368 C366 1.392 . S
C369 Eu360 2.828 . S
C369 C363 1.505 . S
C369 O381 1.249 . S
C369 O382 1.244 . S
O370 Eu361 2.373 . S
O370 C372 1.258 1_545 S
O371 Eu360 2.392 . S
O371 C372 1.242 . S
C372 O370 1.258 1_565 S
C372 O371 1.242 . S
O373 Eu360 2.418 1_545 S
O373 C377 1.244 . S
O374 Eu361 2.488 . S
O374 C390 1.249 . S
O375 Eu361 2.471 . S
O375 C390 1.244 . S
O376 Eu361 2.349 . S
O376 C377 1.265 . S
C377 O373 1.244 . S
C377 O376 1.265 . S
O378 Eu360 2.373 . S
O378 C391 1.258 1_565 S
O379 Eu361 2.392 . S
O379 C391 1.242 . S
O380 Eu361 2.418 1_565 S
O380 C362 1.244 . S
O381 Eu360 2.488 . S
O381 C369 1.249 . S
O382 Eu360 2.471 . S
O382 C369 1.244 . S
O383 Eu360 2.349 . S
O383 C362 1.265 . S
C384 C385 1.379 . S
C384 C388 1.373 . S
C384 C390 1.505 . S
C385 C384 1.379 . S
C385 C387 1.369 . S
C385 H396 0.930 . S
C386 C388 1.383 1_455 S
C386 C389 1.382 . S
C386 H397 0.930 . S
C387 C385 1.369 . S
C387 C389 1.392 1_655 S
C387 H398 0.930 . S
C388 C384 1.373 . S
C388 C386 1.383 1_655 S
C388 H399 0.931 . S
C389 C386 1.382 . S
C389 C387 1.392 1_455 S
C390 Eu361 2.828 . S
C390 O374 1.249 . S
C390 O375 1.244 . S
C390 C384 1.505 . S
C391 O378 1.258 1_545 S
C391 O379 1.242 . S
H392 C364 0.930 . S
H393 C365 0.930 . S
H394 C366 0.930 1_554 S
H395 C367 0.931 . S
H396 C385 0.930 . S
H397 C386 0.930 . S
H398 C387 0.930 . S
H399 C388 0.931 . S
Eu400 C409 2.828 . S
Eu400 O411 2.392 1_565 S
Eu400 O413 2.418 . S
Eu400 O418 2.373 . S
Eu400 O421 2.488 . S
Eu400 O422 2.471 . S
Eu400 O423 2.349 1_565 S
Eu401 O410 2.373 . S
Eu401 O414 2.488 . S
Eu401 O415 2.471 . S
Eu401 O416 2.349 1_545 S
Eu401 O419 2.392 1_545 S
Eu401 O420 2.418 . S
Eu401 C430 2.828 . S
C402 O420 1.244 . S
C402 O423 1.265 . S
C403 C404 1.379 . S
C403 C407 1.373 . S
C403 C409 1.505 . S
C404 C403 1.379 . S
C404 C406 1.369 . S
C404 H432 0.930 . S
C405 C407 1.383 . S
C405 C408 1.382 . S
C405 H433 0.930 . S
C406 C404 1.369 . S
C406 C408 1.392 . S
C406 H434 0.930 . S
C407 C403 1.373 . S
C407 C405 1.383 . S
C407 H435 0.931 . S
C408 C405 1.382 . S
C408 C406 1.392 . S
C409 Eu400 2.828 . S
C409 C403 1.505 . S
C409 O421 1.249 . S
C409 O422 1.244 . S
O410 Eu401 2.373 . S
O410 C412 1.258 . S
O411 Eu400 2.392 1_545 S
O411 C412 1.242 . S
C412 O410 1.258 . S
C412 O411 1.242 . S
O413 Eu400 2.418 . S
O413 C417 1.244 . S
O414 Eu401 2.488 . S
O414 C430 1.249 . S
O415 Eu401 2.471 . S
O415 C430 1.244 . S
O416 Eu401 2.349 1_565 S
O416 C417 1.265 . S
C417 O413 1.244 . S
C417 O416 1.265 . S
O418 Eu400 2.373 . S
O418 C431 1.258 . S
O419 Eu401 2.392 1_565 S
O419 C431 1.242 . S
O420 Eu401 2.418 . S
O420 C402 1.244 . S
O421 Eu400 2.488 . S
O421 C409 1.249 . S
O422 Eu400 2.471 . S
O422 C409 1.244 . S
O423 Eu400 2.349 1_545 S
O423 C402 1.265 . S
C424 C425 1.379 . S
C424 C428 1.373 . S
C424 C430 1.505 . S
C425 C424 1.379 . S
C425 C427 1.369 . S
C425 H436 0.930 . S
C426 C428 1.383 . S
C426 C429 1.382 . S
C426 H437 0.930 . S
C427 C425 1.369 . S
C427 C429 1.392 . S
C427 H438 0.930 . S
C428 C424 1.373 . S
C428 C426 1.383 . S
C428 H439 0.931 . S
C429 C426 1.382 . S
C429 C427 1.392 . S
C430 Eu401 2.828 . S
C430 O414 1.249 . S
C430 O415 1.244 . S
C430 C424 1.505 . S
C431 O418 1.258 . S
C431 O419 1.242 . S
H432 C404 0.930 . S
H433 C405 0.930 . S
H434 C406 0.930 . S
H435 C407 0.931 . S
H436 C425 0.930 . S
H437 C426 0.930 . S
H438 C427 0.930 . S
H439 C428 0.931 . S
Eu440 C449 2.828 . S
Eu440 O451 2.392 . S
Eu440 O453 2.418 . S
Eu440 O458 2.373 . S
Eu440 O461 2.488 . S
Eu440 O462 2.471 . S
Eu440 O463 2.349 . S
Eu441 O450 2.373 . S
Eu441 O454 2.488 . S
Eu441 O455 2.471 . S
Eu441 O456 2.349 . S
Eu441 O459 2.392 . S
Eu441 O460 2.418 . S
Eu441 C470 2.828 . S
C442 O460 1.244 . S
C442 O463 1.265 . S
C443 C444 1.379 . S
C443 C447 1.373 . S
C443 C449 1.505 . S
C444 C443 1.379 . S
C444 C446 1.369 . S
C444 H472 0.930 . S
C445 C447 1.383 . S
C445 C448 1.382 . S
C445 H473 0.930 . S
C446 C444 1.369 . S
C446 C448 1.392 . S
C446 H474 0.930 . S
C447 C443 1.373 . S
C447 C445 1.383 . S
C447 H475 0.931 . S
C448 C445 1.382 . S
C448 C446 1.392 . S
C449 Eu440 2.828 . S
C449 C443 1.505 . S
C449 O461 1.249 . S
C449 O462 1.244 . S
O450 Eu441 2.373 . S
O450 C452 1.258 . S
O451 Eu440 2.392 . S
O451 C452 1.242 . S
C452 O450 1.258 . S
C452 O451 1.242 . S
O453 Eu440 2.418 . S
O453 C457 1.244 . S
O454 Eu441 2.488 . S
O454 C470 1.249 . S
O455 Eu441 2.471 . S
O455 C470 1.244 . S
O456 Eu441 2.349 . S
O456 C457 1.265 . S
C457 O453 1.244 . S
C457 O456 1.265 . S
O458 Eu440 2.373 . S
O458 C471 1.258 . S
O459 Eu441 2.392 . S
O459 C471 1.242 . S
O460 Eu441 2.418 . S
O460 C442 1.244 . S
O461 Eu440 2.488 . S
O461 C449 1.249 . S
O462 Eu440 2.471 . S
O462 C449 1.244 . S
O463 Eu440 2.349 . S
O463 C442 1.265 . S
C464 C465 1.379 . S
C464 C468 1.373 . S
C464 C470 1.505 . S
C465 C464 1.379 . S
C465 C467 1.369 . S
C465 H476 0.930 . S
C466 C468 1.383 . S
C466 C469 1.382 . S
C466 H477 0.930 . S
C467 C465 1.369 . S
C467 C469 1.392 . S
C467 H478 0.930 . S
C468 C464 1.373 . S
C468 C466 1.383 . S
C468 H479 0.931 . S
C469 C466 1.382 . S
C469 C467 1.392 . S
C470 Eu441 2.828 . S
C470 O454 1.249 . S
C470 O455 1.244 . S
C470 C464 1.505 . S
C471 O458 1.258 . S
C471 O459 1.242 . S
H472 C444 0.930 . S
H473 C445 0.930 . S
H474 C446 0.930 . S
H475 C447 0.931 . S
H476 C465 0.930 . S
H477 C466 0.930 . S
H478 C467 0.930 . S
H479 C468 0.931 . S
C12 C452 1.813 . S
C372 C42 3.105 . S
C92 C332 2.309 . S
C122 C402 3.411 . S
C162 C412 2.922 . S
C212 C442 2.347 . S
C362 C242 3.748 . S
C292 C322 2.031 . S
C132 C172 1.919 . S
C2 C202 3.248 . S
C52 C252 2.599 . S
C282 C82 3.554 . S
C29 C351 4.157 . S
C48 C417 1.450 . S
C471 C109 3.588 . S
C128 C391 1.654 1_554 S
C168 C377 1.483 . S
C337 C229 3.983 1_554 S
C431 C248 1.644 . S
C457 C309 4.042 . S
C17 C149 3.103 . S
C8 C71 1.914 1_545 S
C69 C97 2.857 1_554 S
C151 C88 1.687 1_545 S
C208 C191 1.868 . S
C217 C269 4.107 . S
C271 C288 1.986 . S
C189 C297 4.285 . S
C328 C137 2.061 . S
C231 C389 3.868 1_655 S
C349 C257 3.639 1_455 S
C408 C311 1.885 . S
C177 C469 3.490 . S
C448 C57 2.057 . S
C111 C368 1.815 . S
C429 C31 3.846 1_655 S
