# Generated by pormake.
# Topology usf, (4)-cn, num edge types: 1
# Building blocks:
#     Node 0, Type 0, BuildingBlock: MUDLON_clean_sbu_0, # of connection points: 4
#     Node 1, Type 0, BuildingBlock: MUDLON_clean_sbu_0, # of connection points: 4
#     Node 2, Type 0, BuildingBlock: MUDLON_clean_sbu_0, # of connection points: 4
#     Node 3, Type 0, BuildingBlock: MUDLON_clean_sbu_0, # of connection points: 4
#     Node 4, Type 0, BuildingBlock: MUDLON_clean_sbu_0, # of connection points: 4
#     Node 5, Type 0, BuildingBlock: MUDLON_clean_sbu_0, # of connection points: 4
#     Node 6, Type 0, BuildingBlock: MUDLON_clean_sbu_0, # of connection points: 4
#     Node 7, Type 0, BuildingBlock: MUDLON_clean_sbu_0, # of connection points: 4
#     Node 8, Type 0, BuildingBlock: MUDLON_clean_sbu_0, # of connection points: 4
#     Node 9, Type 0, BuildingBlock: MUDLON_clean_sbu_0, # of connection points: 4
#     Node 10, Type 0, BuildingBlock: MUDLON_clean_sbu_0, # of connection points: 4
#     Node 11, Type 0, BuildingBlock: MUDLON_clean_sbu_0, # of connection points: 4
#     Node 12, Type 0, BuildingBlock: MUDLON_clean_sbu_0, # of connection points: 4
#     Node 13, Type 0, BuildingBlock: MUDLON_clean_sbu_0, # of connection points: 4
#     Node 14, Type 0, BuildingBlock: MUDLON_clean_sbu_0, # of connection points: 4
#     Node 15, Type 0, BuildingBlock: MUDLON_clean_sbu_0, # of connection points: 4
#     Node 16, Type 0, BuildingBlock: MUDLON_clean_sbu_0, # of connection points: 4
#     Node 17, Type 0, BuildingBlock: MUDLON_clean_sbu_0, # of connection points: 4
#     Edge 18, Type (0, 0), BuildingBlock: EZIPEK_clean_linker_0, # of connection points: 2
#     Edge 19, Type (0, 0), BuildingBlock: EZIPEK_clean_linker_0, # of connection points: 2
#     Edge 20, Type (0, 0), BuildingBlock: EZIPEK_clean_linker_0, # of connection points: 2
#     Edge 21, Type (0, 0), BuildingBlock: EZIPEK_clean_linker_0, # of connection points: 2
#     Edge 22, Type (0, 0), BuildingBlock: EZIPEK_clean_linker_0, # of connection points: 2
#     Edge 23, Type (0, 0), BuildingBlock: EZIPEK_clean_linker_0, # of connection points: 2
#     Edge 24, Type (0, 0), BuildingBlock: EZIPEK_clean_linker_0, # of connection points: 2
#     Edge 25, Type (0, 0), BuildingBlock: EZIPEK_clean_linker_0, # of connection points: 2
#     Edge 26, Type (0, 0), BuildingBlock: EZIPEK_clean_linker_0, # of connection points: 2
#     Edge 27, Type (0, 0), BuildingBlock: EZIPEK_clean_linker_0, # of connection points: 2
#     Edge 28, Type (0, 0), BuildingBlock: EZIPEK_clean_linker_0, # of connection points: 2
#     Edge 29, Type (0, 0), BuildingBlock: EZIPEK_clean_linker_0, # of connection points: 2
#     Edge 30, Type (0, 0), BuildingBlock: EZIPEK_clean_linker_0, # of connection points: 2
#     Edge 31, Type (0, 0), BuildingBlock: EZIPEK_clean_linker_0, # of connection points: 2
#     Edge 32, Type (0, 0), BuildingBlock: EZIPEK_clean_linker_0, # of connection points: 2
#     Edge 33, Type (0, 0), BuildingBlock: EZIPEK_clean_linker_0, # of connection points: 2
#     Edge 34, Type (0, 0), BuildingBlock: EZIPEK_clean_linker_0, # of connection points: 2
#     Edge 35, Type (0, 0), BuildingBlock: EZIPEK_clean_linker_0, # of connection points: 2
#     Edge 36, Type (0, 0), BuildingBlock: EZIPEK_clean_linker_0, # of connection points: 2
#     Edge 37, Type (0, 0), BuildingBlock: EZIPEK_clean_linker_0, # of connection points: 2
#     Edge 38, Type (0, 0), BuildingBlock: EZIPEK_clean_linker_0, # of connection points: 2
#     Edge 39, Type (0, 0), BuildingBlock: EZIPEK_clean_linker_0, # of connection points: 2
#     Edge 40, Type (0, 0), BuildingBlock: EZIPEK_clean_linker_0, # of connection points: 2
#     Edge 41, Type (0, 0), BuildingBlock: EZIPEK_clean_linker_0, # of connection points: 2
#     Edge 42, Type (0, 0), BuildingBlock: EZIPEK_clean_linker_0, # of connection points: 2
#     Edge 43, Type (0, 0), BuildingBlock: EZIPEK_clean_linker_0, # of connection points: 2
#     Edge 44, Type (0, 0), BuildingBlock: EZIPEK_clean_linker_0, # of connection points: 2
#     Edge 45, Type (0, 0), BuildingBlock: EZIPEK_clean_linker_0, # of connection points: 2
#     Edge 46, Type (0, 0), BuildingBlock: EZIPEK_clean_linker_0, # of connection points: 2
#     Edge 47, Type (0, 0), BuildingBlock: EZIPEK_clean_linker_0, # of connection points: 2
#     Edge 48, Type (0, 0), BuildingBlock: EZIPEK_clean_linker_0, # of connection points: 2
#     Edge 49, Type (0, 0), BuildingBlock: EZIPEK_clean_linker_0, # of connection points: 2
#     Edge 50, Type (0, 0), BuildingBlock: EZIPEK_clean_linker_0, # of connection points: 2
#     Edge 51, Type (0, 0), BuildingBlock: EZIPEK_clean_linker_0, # of connection points: 2
#     Edge 52, Type (0, 0), BuildingBlock: EZIPEK_clean_linker_0, # of connection points: 2
#     Edge 53, Type (0, 0), BuildingBlock: EZIPEK_clean_linker_0, # of connection points: 2
# Relax obj value: 0.161
# Max RMSD: 0.154
# Mean RMSD: 0.149
data_MOF--net-usf--node1-MUDLON_clean_sbu_0--edge1-EZIPEK_clean_linker_0
_symmetry_space_group_name_H-M    P1
_symmetry_Int_Tables_number       1
_symmetry_cell_setting            triclinic
loop_
_symmetry_equiv_pos_as_xyz
'x, y, z'
_cell_length_a     36.607837
_cell_length_b     36.43795
_cell_length_c     21.557587
_cell_angle_alpha  89.781646
_cell_angle_beta   89.960425
_cell_angle_gamma 119.98576
loop_
_atom_site_label
_atom_site_type_symbol
_atom_site_fract_x
_atom_site_fract_y
_atom_site_fract_z
_atom_type_partial_charge
Mg0 Mg 0.9953 0.50526 0.0152 0.0
C1 C 1.0288 0.4432 0.97442 0.0
O2 O 0.98872 0.41499 0.98157 0.0
C3 C 0.91262 0.51097 0.04573 0.0
O4 O 0.89238 0.47145 0.02697 0.0
C5 C 0.99274 0.50753 0.86954 0.0
O6 O 0.98627 0.4688 0.87458 0.0
O7 O 0.9941 0.52776 0.91789 0.0
O8 O 0.04119 0.48196 0.98562 0.0
O9 O 1.00055 0.48974 0.11451 0.0
C10 C 0.9707 0.46477 0.15001 0.0
O11 O 0.93235 0.44178 0.12818 0.0
O12 O 0.95275 0.53144 0.0457 0.0
Mg13 Mg 0.49807 0.57788 0.05324 0.0
C14 C 0.56228 0.66847 1.00031 0.0
O15 O 0.57214 0.64483 0.96646 0.0
C16 C 0.48402 0.49123 0.10072 0.0
O17 O 0.52247 0.5173 0.12002 0.0
C18 C 0.5104 0.55016 0.92035 0.0
O19 O 0.52802 0.53312 0.95399 0.0
O20 O 0.49408 0.56961 0.94717 0.0
O21 O 0.53287 0.65084 0.0404 0.0
O22 O 0.50193 0.58492 0.15902 0.0
C23 C 0.53671 0.60784 0.18662 0.0
O24 O 0.57087 0.63097 0.15356 0.0
O25 O 0.46477 0.50565 0.06851 0.0
Mg26 Mg 0.54887 1.00903 0.00749 0.0
C27 C 0.59902 0.05851 0.88971 0.0
O28 O 0.63299 0.07395 0.92429 0.0
C29 C 0.51919 0.03405 0.12018 0.0
O30 O 0.49218 0.99324 0.11685 0.0
C31 C 0.46546 0.94409 0.95087 0.0
O32 O 0.48639 0.96244 0.89993 0.0
O33 O 0.485 0.95332 1.00255 0.0
O34 O 0.56286 0.03519 0.91393 0.0
O35 O 0.60367 1.00449 0.0378 0.0
C36 C 0.61296 1.00933 0.09526 0.0
O37 O 0.58366 1.0036 0.13553 0.0
O38 O 0.54595 0.05126 0.0766 0.0
Mg39 Mg 0.53387 0.03076 0.50801 0.0
C40 C 0.57587 0.98326 0.47405 0.0
O41 O 0.60529 1.02334 0.47053 0.0
C42 C 0.46686 0.05352 0.52482 0.0
O43 O 0.48936 0.0789 0.47942 0.0
C44 C 0.52345 0.03929 0.37627 0.0
O45 O 0.4942 1.00051 0.39095 0.0
O46 O 0.54756 0.06325 0.4188 0.0
O47 O 0.5387 0.97407 0.49009 0.0
O48 O 0.57642 0.06399 0.58427 0.0
C49 C 0.57145 0.03939 0.62955 0.0
O50 O 0.5454 0.99858 0.62346 0.0
O51 O 0.47533 0.02544 0.54375 0.0
Mg52 Mg 0.07325 0.56487 0.50664 0.0
C53 C 0.16121 0.65065 0.5076 0.0
O54 O 0.17265 0.63591 0.5549 0.0
C55 C 0.09472 0.50255 0.58316 0.0
O56 O 0.12806 0.53448 0.60835 0.0
C57 C 0.04152 0.51831 0.39001 0.0
O58 O 0.07342 0.51234 0.40151 0.0
O59 O 1.03335 0.54016 0.42723 0.0
O60 O 0.12594 0.62743 0.48129 0.0
O61 O 0.0367 0.57211 0.57839 0.0
C62 C 0.05459 0.57757 0.63047 0.0
O63 O 0.09463 0.58861 0.63186 0.0
O64 O 0.07471 0.50901 0.54037 0.0
Mg65 Mg 0.52613 0.50192 0.53432 0.0
C66 C 0.4379 0.43723 0.49894 0.0
O67 O 0.43109 0.4596 0.54014 0.0
C68 C 0.61631 0.54039 0.55929 0.0
O69 O 0.60994 0.57257 0.55269 0.0
C70 C 0.51873 0.56399 0.44262 0.0
O71 O 0.47867 0.54272 0.45827 0.0
O72 O 0.54354 0.55387 0.46875 0.0
O73 O 0.47559 0.44555 0.48907 0.0
O74 O 0.50686 0.51012 0.62664 0.0
C75 C 0.52134 0.54616 0.65205 0.0
O76 O 0.54511 0.58067 0.61964 0.0
O77 O 0.58558 0.50296 0.5512 0.0
Mg78 Mg 0.70237 0.83968 0.40315 0.0
C79 C 0.66115 0.89279 0.41209 0.0
O80 O 0.70023 0.92148 0.3988 0.0
C81 C 0.66512 0.75393 0.33565 0.0
O82 O 0.65203 0.77278 0.297 0.0
C83 C 0.72546 0.82485 0.53008 0.0
O84 O 0.69093 0.78898 0.51802 0.0
O85 O 0.73743 0.85443 0.48998 0.0
O86 O 0.6512 0.85395 0.41504 0.0
O87 O 0.74331 0.8756 0.32542 0.0
C88 C 0.72694 0.87775 0.27447 0.0
O89 O 0.68583 0.86029 0.27026 0.0
O90 O 0.68397 0.77388 0.38443 0.0
Mg91 Mg 0.22591 0.89932 0.38521 0.0
C92 C 0.16916 0.88688 0.27056 0.0
O93 O 0.16763 0.92031 0.28923 0.0
C94 C 0.22186 0.92611 0.51315 0.0
O95 O 0.25656 0.95943 0.49344 0.0
C96 C 0.26447 0.99266 0.3577 0.0
O97 O 0.22641 0.98276 0.37618 0.0
O98 O 0.27472 0.96392 0.35781 0.0
O99 O 0.18663 0.87144 0.30433 0.0
O100 O 0.24379 0.85164 0.40781 0.0
C101 C 0.21071 0.81706 0.42285 0.0
O102 O 0.17409 0.81547 0.42124 0.0
O103 O 0.19746 0.89911 0.47374 0.0
Mg104 Mg 0.20843 0.35759 0.32598 0.0
C105 C 0.23933 0.37352 0.19247 0.0
O106 O 0.23247 0.33473 0.19896 0.0
C107 C 0.19763 0.38263 0.44729 0.0
O108 O 0.18863 0.34305 0.4526 0.0
C109 C 0.1246 0.29428 0.26221 0.0
O110 O 0.14816 0.30828 0.21224 0.0
O111 O 0.14179 0.30663 0.3153 0.0
O112 O 0.23389 0.39186 0.23871 0.0
O113 O 0.25529 0.3474 0.37519 0.0
C114 C 0.28759 0.34919 0.35016 0.0
O115 O 0.2889 0.34633 0.2897 0.0
O116 O 0.20548 0.39973 0.3938 0.0
Mg117 Mg 0.21501 0.38933 0.81406 0.0
C118 C 0.12838 0.37224 0.87648 0.0
O119 O 0.11666 0.33204 0.88402 0.0
C120 C 0.24873 0.33532 0.78147 0.0
O121 O 0.27983 0.37469 0.77835 0.0
C122 C 0.24306 0.39228 0.93594 0.0
O123 O 0.20961 0.355 0.92668 0.0
O124 O 0.25817 0.41811 0.89065 0.0
O125 O 0.16278 0.39679 0.8485 0.0
O126 O 0.23176 0.41791 0.72248 0.0
C127 C 0.2131 0.43558 0.69724 0.0
O128 O 0.19052 0.4466 0.73148 0.0
O129 O 0.21244 0.3284 0.79866 0.0
Mg130 Mg 0.75266 0.91208 0.90059 0.0
C131 C 0.74519 0.87265 0.77823 0.0
O132 O 0.7082 0.86959 0.78608 0.0
C133 C 0.78282 0.93521 0.0316 0.0
O134 O 0.76981 0.96203 0.01823 0.0
C135 C 0.77634 0.99159 0.82438 0.0
O136 O 0.76549 0.96426 0.77898 0.0
O137 O 0.77102 0.97833 0.88024 0.0
O138 O 0.7726 0.88895 0.82111 0.0
O139 O 0.68638 0.86295 0.91358 0.0
C140 C 0.67109 0.84968 0.96749 0.0
O141 O 0.69151 0.87222 0.01599 0.0
O142 O 0.78161 0.91091 0.98843 0.0
Mg143 Mg 0.19544 0.8341 0.89116 0.0
C144 C 0.20783 0.86002 0.76094 0.0
O145 O 0.21199 0.82625 0.76144 0.0
C146 C 0.15837 0.83165 0.01753 0.0
O147 O 0.1399 0.79068 0.00792 0.0
C148 C 0.10919 0.77604 0.85588 0.0
O149 O 0.11108 0.81242 0.86642 0.0
O150 O 0.14169 0.77282 0.86638 0.0
O151 O 0.20172 0.87365 0.81179 0.0
O152 O 0.25679 0.83879 0.90765 0.0
C153 C 0.288 0.87645 0.90453 0.0
O154 O 0.28098 0.90728 0.88898 0.0
O155 O 0.18165 0.85723 0.97543 0.0
Mg156 Mg 0.38592 0.20617 0.70233 0.0
C157 C 0.32495 0.24076 0.6942 0.0
O158 O 0.34885 0.26085 0.64624 0.0
C159 C 0.38251 0.13379 0.63092 0.0
O160 O 0.38292 0.15745 0.58459 0.0
C161 C 0.41897 0.20113 0.8283 0.0
O162 O 0.39804 0.16072 0.81428 0.0
O163 O 0.42271 0.22837 0.78769 0.0
O164 O 0.33078 0.21339 0.72281 0.0
O165 O 0.41778 0.24208 0.6186 0.0
C166 C 0.45571 0.25359 0.60387 0.0
O167 O 0.4803 0.24968 0.64451 0.0
O168 O 0.37694 0.14287 0.6858 0.0
Mg169 Mg 0.90564 0.25439 0.70805 0.0
C170 C 0.84133 0.23918 0.59828 0.0
O171 O 0.81282 0.23638 0.638 0.0
C172 C 0.88917 0.29391 0.82576 0.0
O173 O 0.91469 0.33174 0.80294 0.0
C174 C 0.97333 0.33649 0.66053 0.0
O175 O 0.93914 0.33229 0.63427 0.0
O176 O 0.97029 0.30743 0.69697 0.0
O177 O 0.87715 0.24622 0.61687 0.0
O178 O 0.89598 0.19211 0.73284 0.0
C179 C 0.8567 0.16548 0.73875 0.0
O180 O 0.8294 0.17748 0.72404 0.0
O181 O 0.87661 0.26148 0.79159 0.0
Mg182 Mg 0.8705 0.67493 0.69134 0.0
C183 C 0.88888 0.69091 0.56005 0.0
O184 O 0.8798 0.6515 0.56843 0.0
C185 C 0.84089 0.68269 0.81339 0.0
O186 O 0.83185 0.643 0.81132 0.0
C187 C 0.78332 0.62633 0.64776 0.0
O188 O 0.79182 0.66587 0.64751 0.0
O189 O 0.81158 0.61814 0.66595 0.0
O190 O 0.89095 0.71266 0.60717 0.0
O191 O 0.92129 0.66588 0.72602 0.0
C192 C 0.95491 0.70094 0.73525 0.0
O193 O 0.95585 0.73635 0.72022 0.0
O194 O 0.85706 0.70614 0.76596 0.0
Mg195 Mg 0.82108 0.66981 0.18642 0.0
C196 C 0.75806 0.68824 0.23778 0.0
O197 O 0.79277 0.72523 0.23506 0.0
C198 C 0.82494 0.59939 0.12072 0.0
O199 O 0.80688 0.61049 0.0777 0.0
C200 C 0.85607 0.6871 0.30918 0.0
O201 O 0.82569 0.64736 0.3098 0.0
O202 O 0.86424 0.70821 0.25903 0.0
O203 O 0.75865 0.65565 0.21816 0.0
O204 O 0.83545 0.69822 0.09466 0.0
C205 C 0.8136 0.71022 0.06409 0.0
O206 O 0.78359 0.7138 0.09181 0.0
O207 O 0.8309 0.61595 0.17428 0.0
Mg208 Mg 0.43584 0.24751 0.22375 0.0
C209 C 0.4286 0.22631 0.09263 0.0
O210 O 0.39012 0.21356 0.1124 0.0
C211 C 0.48667 0.28731 0.3404 0.0
O212 O 0.49613 0.32324 0.31295 0.0
C213 C 0.4141 0.31652 0.18087 0.0
O214 O 0.38039 0.28572 0.15471 0.0
O215 O 0.43693 0.30796 0.21555 0.0
O216 O 0.45859 0.24178 0.13192 0.0
O217 O 0.37853 0.18608 0.2402 0.0
C218 C 0.36961 0.17097 0.29513 0.0
O219 O 0.38928 0.1958 0.34222 0.0
O220 O 0.47065 0.25343 0.30862 0.0
Mg221 Mg 0.85799 0.20376 0.20613 0.0
C222 C 0.86159 0.2277 0.07323 0.0
O223 O 0.86254 0.19221 0.06995 0.0
C224 C 0.84255 0.2035 0.34119 0.0
O225 O 0.85374 0.17454 0.33623 0.0
C226 C 0.7739 0.12356 0.20493 0.0
O227 O 0.76816 0.14497 0.2489 0.0
O228 O 0.81055 0.13867 0.18118 0.0
O229 O 0.85907 0.24162 0.12626 0.0
O230 O 0.92402 0.22121 0.22122 0.0
C231 C 0.9426 0.19961 0.22388 0.0
O232 O 0.92102 0.15842 0.21571 0.0
O233 O 0.83963 0.22153 0.29228 0.0
C234 C 1.00107 0.45851 0.31586 0.0
C235 C 1.01689 0.5016 0.33249 0.0
C236 C 0.98552 0.51213 0.23925 0.0
C237 C 0.97777 0.47244 0.21697 0.0
N238 N 0.97823 0.40727 0.23225 0.0
N239 N 1.02985 0.5716 0.30407 0.0
C240 C 0.9851 0.44513 0.25501 0.0
C241 C 1.01014 0.52897 0.29314 0.0
N242 N 1.0003 0.43029 0.35854 0.0
N243 N 0.96974 0.53391 0.20824 0.0
H244 H 0.05084 0.58633 0.34043 0.0
H245 H 1.02907 0.59313 0.27292 0.0
H246 H 0.95096 0.52177 0.16893 0.0
H247 H 0.97129 0.56135 0.22541 0.0
H248 H 0.98583 0.39783 0.35057 0.0
H249 H 1.0104 0.43873 0.40419 0.0
H250 H 0.9876 0.38812 0.25516 0.0
H251 H 0.96499 0.39614 0.18865 0.0
C252 C 0.56846 0.59708 0.3515 0.0
C253 C 0.53239 0.59104 0.38477 0.0
C254 C 0.50982 0.61359 0.29162 0.0
C255 C 0.53856 0.60697 0.2556 0.0
N256 N 0.59455 0.58979 0.25231 0.0
N257 N 0.47579 0.60642 0.39145 0.0
C258 C 0.56822 0.59869 0.28578 0.0
C259 C 0.50525 0.6035 0.35628 0.0
N260 N 0.6035 0.60296 0.38241 0.0
N261 N 0.48817 0.63089 0.26428 0.0
H262 H 0.47666 0.60637 0.43983 0.0
H263 H 0.45107 0.60938 0.37318 0.0
H264 H 0.49232 0.6402 0.21779 0.0
H265 H 0.46891 0.63944 0.28825 0.0
H266 H 0.63132 0.60942 0.35997 0.0
H267 H 0.60695 0.60813 0.43012 0.0
H268 H 0.61363 0.57948 0.27283 0.0
H269 H 0.59457 0.58859 0.20407 0.0
C270 C 0.48646 0.04437 0.21538 0.0
C271 C 0.52348 0.0555 0.18076 0.0
C272 C 0.56412 0.06937 0.27623 0.0
C273 C 0.52626 0.05389 0.31113 0.0
N274 N 0.45539 0.04207 0.31599 0.0
N275 N 0.59902 0.09999 0.17858 0.0
C276 C 0.48867 0.04666 0.28123 0.0
C277 C 0.56295 0.07526 0.21125 0.0
N278 N 0.44911 0.03021 0.18496 0.0
N279 N 0.60044 0.07575 0.30368 0.0
H280 H 0.59826 0.10854 0.13266 0.0
H281 H 0.62858 0.11695 0.19927 0.0
H282 H 0.60301 0.07181 0.35103 0.0
H283 H 0.62724 0.08195 0.27842 0.0
H284 H 0.41991 1.01664 0.20709 0.0
H285 H 0.44768 0.03134 0.13664 0.0
H286 H 0.42819 0.03983 0.2971 0.0
H287 H 0.45679 0.04458 0.36424 0.0
C288 C 0.99589 0.52124 0.6959 0.0
C289 C 1.0301 0.56345 0.68877 0.0
C290 C 0.03835 0.57043 0.80093 0.0
C291 C 1.00289 0.52901 0.80838 0.0
N292 N 0.94003 0.47158 0.76338 0.0
N293 N 0.07346 0.6321 0.73418 0.0
C294 C 0.9789 0.50669 0.75596 0.0
C295 C 0.04742 0.58944 0.74137 0.0
N296 N 0.98186 0.49358 0.6473 0.0
N297 N 0.06578 0.59029 0.84861 0.0
H298 H 0.08027 0.64676 0.69065 0.0
H299 H 0.08425 0.65301 0.77147 0.0
H300 H 0.06341 0.57646 0.89184 0.0
H301 H 0.09399 0.61877 0.84286 0.0
H302 H 0.96074 0.46129 0.65301 0.0
H303 H 0.99379 0.50136 0.60244 0.0
H304 H 0.9199 0.4563 0.72627 0.0
H305 H 0.92613 0.46074 0.80685 0.0
C306 C 0.55544 0.56412 0.75691 0.0
C307 C 0.51835 0.54859 0.72048 0.0
C308 C 0.47549 0.53108 0.81538 0.0
C309 C 0.51292 0.54988 0.85149 0.0
N310 N 0.589 0.59109 0.85598 0.0
N311 N 0.44374 0.52279 0.7137 0.0
C312 C 0.55303 0.5683 0.82207 0.0
C313 C 0.47851 0.53359 0.74937 0.0
N314 N 0.5928 0.57303 0.72978 0.0
N315 N 0.43708 0.50915 0.84408 0.0
H316 H 0.44486 0.52409 0.66533 0.0
H317 H 0.41463 0.51594 0.73186 0.0
H318 H 0.4336 0.50619 0.89216 0.0
H319 H 0.40893 0.49085 0.82038 0.0
H320 H 0.61965 0.57947 0.75487 0.0
H321 H 0.59619 0.57023 0.68234 0.0
H322 H 0.61868 0.60964 0.83604 0.0
H323 H 0.58905 0.59458 0.9039 0.0
C324 C 0.57536 0.07858 0.79356 0.0
C325 C 0.60176 0.06511 0.82141 0.0
C326 C 0.61989 0.05083 0.71796 0.0
C327 C 0.58717 0.05599 0.69234 0.0
N328 N 0.53055 0.07102 0.70653 0.0
N329 N 0.64788 0.03567 0.81004 0.0
C330 C 0.56446 0.06959 0.73008 0.0
C331 C 0.62454 0.05137 0.7836 0.0
N332 N 0.56061 0.09984 0.82809 0.0
N333 N 0.64602 0.04475 0.67941 0.0
H334 H 0.65173 0.03453 0.85769 0.0
H335 H 0.66103 1.02076 0.78489 0.0
H336 H 0.64282 0.04387 0.63122 0.0
H337 H 0.67301 0.04472 0.6946 0.0
H338 H 0.54419 0.11369 0.80909 0.0
H339 H 0.56872 0.10741 0.87459 0.0
H340 H 0.50998 0.07616 0.73365 0.0
H341 H 0.52088 0.06356 0.66062 0.0
C342 C 0.72771 0.81402 0.7034 0.0
C343 C 0.75354 0.8573 0.71911 0.0
C344 C 0.77761 0.87369 0.61095 0.0
C345 C 0.74447 0.83301 0.59393 0.0
N346 N 0.70936 0.75975 0.62552 0.0
N347 N 0.80888 0.92732 0.69091 0.0
C348 C 0.72594 0.80142 0.64069 0.0
C349 C 0.78106 0.88668 0.67399 0.0
N350 N 0.7038 0.78533 0.74817 0.0
N351 N 0.80718 0.89839 0.56783 0.0
H352 H 0.81474 0.93645 0.73714 0.0
H353 H 0.82555 0.95196 0.65953 0.0
H354 H 0.80808 0.88708 0.52381 0.0
H355 H 0.83369 0.92745 0.57763 0.0
H356 H 0.68028 0.75444 0.7385 0.0
H357 H 0.70661 0.79316 0.79514 0.0
H358 H 0.69782 0.73529 0.65809 0.0
H359 H 0.71275 0.75039 0.58121 0.0
C360 C 0.25113 0.8989 0.66906 0.0
C361 C 0.21254 0.88255 0.70164 0.0
C362 C 0.18227 0.90192 0.61448 0.0
C363 C 0.21898 0.91283 0.57898 0.0
N364 N 0.28417 0.91133 0.56862 0.0
N365 N 0.13929 0.86368 0.70357 0.0
C366 C 0.25257 0.90901 0.60532 0.0
C367 C 0.17753 0.88304 0.67416 0.0
N368 N 0.28657 0.90494 0.69915 0.0
N369 N 0.15233 0.91021 0.59159 0.0
H370 H 0.13469 0.84978 0.74736 0.0
H371 H 0.11151 0.85867 0.68275 0.0
H372 H 0.15491 0.92391 0.54804 0.0
H373 H 0.12687 0.90685 0.61768 0.0
H374 H 0.31651 0.92079 0.6791 0.0
H375 H 0.2867 0.89808 0.74618 0.0
H376 H 0.30694 0.90449 0.58476 0.0
H377 H 0.28492 0.91486 0.52057 0.0
C378 C 0.2384 0.4388 0.52679 0.0
C379 C 0.19921 0.40593 0.50421 0.0
C380 C 0.16681 0.39807 0.60629 0.0
C381 C 0.20621 0.4305 0.6294 0.0
N382 N 0.27595 0.48866 0.60962 0.0
N383 N 0.12418 0.36245 0.51615 0.0
C384 C 0.2408 0.45331 0.5887 0.0
C385 C 0.16269 0.38863 0.54199 0.0
N386 N 0.27385 0.45399 0.49085 0.0
N387 N 0.13433 0.3741 0.64622 0.0
H388 H 0.12044 0.35565 0.4688 0.0
H389 H 0.09577 0.35084 0.53993 0.0
H390 H 0.136 0.37899 0.6939 0.0
H391 H 0.10665 0.34705 0.63307 0.0
H392 H 0.30416 0.47399 0.5074 0.0
H393 H 0.27336 0.44467 0.44507 0.0
H394 H 0.3009 0.50902 0.58099 0.0
H395 H 0.27834 0.49969 0.6549 0.0
C396 C 0.75582 0.8678 0.17446 0.0
C397 C 0.75318 0.89553 0.21795 0.0
C398 C 0.7898 0.9549 0.14504 0.0
C399 C 0.78627 0.92566 0.09862 0.0
N400 N 0.78921 0.86188 0.08099 0.0
N401 N 0.77626 0.96655 0.25203 0.0
C402 C 0.77654 0.88431 0.11684 0.0
C403 C 0.77337 0.93968 0.20574 0.0
N404 N 0.73767 0.82553 0.18758 0.0
N405 N 0.80907 0.99703 0.13044 0.0
H406 H 0.76427 0.95589 0.29649 0.0
H407 H 0.79186 0.99935 0.24796 0.0
H408 H 0.8257 1.00886 0.08895 0.0
H409 H 0.81004 1.02035 0.15915 0.0
H410 H 0.7337 0.80298 0.15463 0.0
H411 H 0.72468 0.81274 0.23083 0.0
H412 H 0.7851 0.83246 0.09378 0.0
H413 H 0.80944 0.8755 0.04322 0.0
C414 C 0.19957 0.86805 0.11216 0.0
C415 C 0.1602 0.84749 0.08123 0.0
C416 C 0.12526 0.85338 0.17499 0.0
C417 C 0.16525 0.8766 0.20372 0.0
N418 N 0.24109 0.91615 0.19354 0.0
N419 N 0.08618 0.82527 0.07915 0.0
C420 C 0.2026 0.88716 0.17027 0.0
C421 C 0.1231 0.84149 0.11148 0.0
N422 N 0.23362 0.86702 0.08809 0.0
N423 N 0.08952 0.84167 0.20889 0.0
H424 H 0.08366 0.81606 0.03285 0.0
H425 H 0.05895 0.82379 0.09657 0.0
H426 H 0.09037 0.85098 0.25484 0.0
H427 H 0.05927 0.82088 0.19287 0.0
H428 H 0.2617 0.87754 0.11236 0.0
H429 H 0.2325 0.8516 0.04688 0.0
H430 H 0.26898 0.92804 0.16808 0.0
H431 H 0.24466 0.93172 0.23553 0.0
C432 C 0.2841 0.39648 0.03048 0.0
C433 C 0.25527 0.40567 1.00066 0.0
C434 C 0.22325 0.40604 0.10004 0.0
C435 C 0.24999 0.39349 0.1299 0.0
N436 N 0.31403 0.39021 0.12768 0.0
N437 N 0.20819 0.43343 0.00643 0.0
C438 C 0.28331 0.39334 0.09629 0.0
C439 C 0.22882 0.41574 0.03564 0.0
N440 N 0.3107 0.38885 0.9955 0.0
N441 N 0.19038 0.40526 0.13137 0.0
H442 H 0.21185 0.44042 0.95905 0.0
H443 H 0.19102 0.44489 0.02971 0.0
H444 H 0.1847 0.39849 0.17843 0.0
H445 H 0.1669 0.40886 0.10989 0.0
H446 H 0.32911 0.37694 0.01341 0.0
H447 H 0.31321 0.39348 0.9475 0.0
H448 H 0.34074 0.39264 0.10663 0.0
H449 H 0.31451 0.38916 0.176 0.0
C450 C 0.41743 0.24592 0.98651 0.0
C451 C 0.43585 0.22766 0.02437 0.0
C452 C 0.45315 0.2014 0.93027 0.0
C453 C 0.42798 0.21328 0.89467 0.0
N454 N 0.37722 0.23737 0.89419 0.0
N455 N 0.46937 0.18527 0.03267 0.0
C456 C 0.40803 0.23341 0.92395 0.0
C457 C 0.45381 0.20507 0.99636 0.0
N458 N 0.40888 0.27545 0.01035 0.0
N459 N 0.4765 0.18687 0.9009 0.0
H460 H 0.47074 0.18766 0.08087 0.0
H461 H 0.4784 0.16434 0.01533 0.0
H462 H 0.4766 0.18395 0.85276 0.0
H463 H 0.49839 0.1813 0.92357 0.0
H464 H 0.39885 0.29247 0.98319 0.0
H465 H 0.41672 0.28634 0.05557 0.0
H466 H 0.35891 0.248 0.91633 0.0
H467 H 0.36624 0.22521 0.85016 0.0
C468 C 0.91424 0.30167 0.93741 0.0
C469 C 0.8806 0.28649 0.89367 0.0
C470 C 0.83284 0.23541 0.97091 0.0
C471 C 0.8659 0.2517 0.01515 0.0
N472 N 0.93483 0.3074 0.04532 0.0
N473 N 0.80577 0.24782 0.87529 0.0
C474 C 0.90529 0.28758 1.00018 0.0
C475 C 0.83912 0.25643 0.91289 0.0
N476 N 0.95524 0.32604 0.91862 0.0
N477 N 0.79608 0.19878 0.98306 0.0
H478 H 0.80952 0.2634 0.83301 0.0
H479 H 0.77443 0.22877 0.88885 0.0
H480 H 0.79071 0.18221 0.02459 0.0
H481 H 0.77248 0.18308 0.9502 0.0
H482 H 0.98071 0.33265 0.94721 0.0
H483 H 0.96445 0.33652 0.87338 0.0
H484 H 0.96206 0.33645 0.03814 0.0
H485 H 0.93037 0.297 0.09128 0.0
C486 C 0.85785 0.73813 0.96865 0.0
C487 C 0.81756 0.71185 0.99551 0.0
C488 C 0.7907 0.67899 0.89424 0.0
C489 C 0.83252 0.699 0.87125 0.0
N490 N 0.9069 0.74706 0.88651 0.0
N491 N 0.74566 0.6541 0.98468 0.0
C492 C 0.86638 0.72912 0.90793 0.0
C493 C 0.78363 0.68201 0.95832 0.0
N494 N 0.88787 0.77165 1.00149 0.0
N495 N 0.75776 0.6569 0.85459 0.0
H496 H 0.73875 0.65414 0.03149 0.0
H497 H 0.72184 0.62847 0.96095 0.0
H498 H 0.76218 0.65436 0.80728 0.0
H499 H 0.72633 0.64496 0.86719 0.0
H500 H 0.91668 0.79431 0.98268 0.0
H501 H 0.88214 0.77905 0.04586 0.0
H502 H 0.93322 0.76496 0.91416 0.0
H503 H 0.91449 0.74188 0.84203 0.0
C504 C 0.49916 0.25913 0.44006 0.0
C505 C 0.48446 0.28378 0.40945 0.0
C506 C 0.46203 0.29735 0.51008 0.0
C507 C 0.46999 0.26698 0.53868 0.0
N508 N 0.4893 0.21272 0.52655 0.0
N509 N 0.44195 0.31783 0.41542 0.0
C510 C 0.48713 0.24639 0.50276 0.0
C511 C 0.46354 0.30104 0.4444 0.0
N512 N 0.52493 0.2481 0.40947 0.0
N513 N 0.4532 0.32295 0.54556 0.0
H514 H 0.43848 0.31803 0.36754 0.0
H515 H 0.42299 0.32691 0.43934 0.0
H516 H 0.45255 0.32168 0.59394 0.0
H517 H 0.4513 0.34843 0.52711 0.0
H518 H 0.53972 0.23348 0.43136 0.0
H519 H 0.535 0.25755 0.36392 0.0
H520 H 0.49704 0.19379 0.49983 0.0
H521 H 0.47929 0.20085 0.57108 0.0
C522 C 0.80474 0.18319 0.44333 0.0
C523 C 0.835 0.21532 0.40382 0.0
C524 C 0.8567 0.26602 0.48949 0.0
C525 C 0.83229 0.23222 0.531 0.0
N526 N 0.78367 0.15798 0.54879 0.0
N527 N 0.89225 0.28723 0.39009 0.0
C528 C 0.80582 0.1907 0.50822 0.0
C529 C 0.86116 0.25701 0.42671 0.0
N530 N 0.77475 0.14564 0.41858 0.0
N531 N 0.87557 0.30678 0.51046 0.0
H532 H 0.89707 0.28209 0.34406 0.0
H533 H 0.91543 0.31651 0.40666 0.0
H534 H 0.87208 0.31404 0.55609 0.0
H535 H 0.89082 0.3332 0.48156 0.0
H536 H 0.74934 0.1225 0.44383 0.0
H537 H 0.77303 0.1393 0.37122 0.0
H538 H 0.76811 0.12624 0.5358 0.0
H539 H 0.78285 0.16233 0.59644 0.0
C540 C 0.91817 0.69904 0.45374 0.0
C541 C 0.89319 0.70718 0.49563 0.0
C542 C 0.86241 0.72485 0.40759 0.0
C543 C 0.87871 0.70592 0.36754 0.0
N544 N 0.92546 0.6787 0.34932 0.0
N545 N 0.84178 0.7297 0.51231 0.0
C546 C 0.90837 0.69494 0.38951 0.0
C547 C 0.86629 0.72193 0.47276 0.0
N548 N 0.9509 0.69493 0.47593 0.0
N549 N 0.84258 0.74482 0.38307 0.0
H550 H 0.84382 0.72905 0.56034 0.0
H551 H 0.81745 0.73453 0.49737 0.0
H552 H 0.83994 0.74739 0.3353 0.0
H553 H 0.83285 0.76233 0.40935 0.0
H554 H 0.97229 0.69193 0.44758 0.0
H555 H 0.95894 0.69872 0.52288 0.0
H556 H 0.94345 0.6653 0.36333 0.0
H557 H 0.92019 0.67743 0.30157 0.0
C558 C 0.07909 0.44253 0.89471 0.0
C559 C 0.05882 0.42926 0.95326 0.0
C560 C 0.0895 0.38295 0.96601 0.0
C561 C 0.10311 0.39052 0.90301 0.0
N562 N 0.10479 0.42298 0.80454 0.0
N563 N 0.04567 0.38779 0.04647 0.0
C564 C 0.09654 0.41938 0.86677 0.0
C565 C 0.06414 0.39952 0.98926 0.0
N566 N 0.08184 0.47715 0.86551 0.0
N567 N 0.10307 0.36248 1.00486 0.0
H568 H 1.03074 0.40243 0.06782 0.0
H569 H 0.04332 0.36219 0.07139 0.0
H570 H 0.12373 0.3522 0.99109 0.0
H571 H 0.0975 0.35949 0.05246 0.0
H572 H 0.10103 0.49134 0.82695 0.0
H573 H 0.06853 0.49441 0.8829 0.0
H574 H 0.09961 0.44255 0.77508 0.0
H575 H 0.11266 0.40299 0.78094 0.0
C576 C 0.59792 0.78567 0.97253 0.0
C577 C 0.64226 0.80353 0.97654 0.0
C578 C 0.63295 0.73427 0.00613 0.0
C579 C 0.58889 0.7154 0.99605 0.0
N580 N 0.5295 0.7219 0.96264 0.0
N581 N 0.70269 0.79402 0.98762 0.0
C582 C 0.57126 0.7408 0.97777 0.0
C583 C 0.65996 0.77758 0.99074 0.0
N584 N 0.58137 0.81168 0.96464 0.0
N585 N 0.64889 0.71108 0.0326 0.0
H586 H 0.72382 0.82563 0.97683 0.0
H587 H 0.71709 0.77562 0.99035 0.0
H588 H 0.63008 0.67942 0.04557 0.0
H589 H 0.67998 0.72421 0.04749 0.0
H590 H 0.54929 0.80135 0.96789 0.0
H591 H 0.60018 0.84442 0.95908 0.0
H592 H 0.51566 0.738 0.94259 0.0
H593 H 0.50909 0.68928 0.96591 0.0
C594 C 0.35156 0.91877 0.97077 0.0
C595 C 0.33125 0.8873 0.92458 0.0
C596 C 0.39677 0.88506 0.9101 0.0
C597 C 0.4185 0.92117 0.94865 0.0
N598 N 0.41723 0.97688 0.00778 0.0
N599 N 0.33536 0.84246 0.84614 0.0
C600 C 0.39603 0.93893 0.97765 0.0
C601 C 0.35388 0.87045 0.89366 0.0
N602 N 0.32826 0.92933 0.00852 0.0
N603 N 0.41719 0.86464 0.88955 0.0
H604 H 0.30421 0.83112 0.83262 0.0
H605 H 0.35171 0.83283 0.81712 0.0
H606 H 0.44846 0.8746 0.90104 0.0
H607 H 0.40217 0.83585 0.86618 0.0
H608 H 0.34067 0.94855 0.04739 0.0
H609 H 0.29564 0.91551 1.0047 0.0
H610 H 0.40273 0.99351 0.0234 0.0
H611 H 0.44992 0.99409 0.01201 0.0
C612 C 0.39835 0.04737 0.55948 0.0
C613 C 0.44275 0.06707 0.56478 0.0
C614 C 0.44292 0.12009 0.63484 0.0
C615 C 0.40005 0.10535 0.61991 0.0
N616 N 0.33593 0.05443 0.57002 0.0
N617 N 0.50837 0.1241 0.60411 0.0
C618 C 0.37729 0.06842 0.58337 0.0
C619 C 0.46525 0.10358 0.60233 0.0
N620 N 0.37661 1.00895 0.53101 0.0
N621 N 0.46273 0.15043 0.67919 0.0
H622 H 0.52616 0.11255 0.58279 0.0
H623 H 0.52677 0.15402 0.62339 0.0
H624 H 0.44833 0.16466 0.70286 0.0
H625 H 0.4924 0.15882 0.69668 0.0
H626 H 0.34388 0.99128 0.52953 0.0
H627 H 0.39151 0.99335 0.51264 0.0
H628 H 0.31862 0.03082 0.53793 0.0
H629 H 0.3193 0.06786 0.58971 0.0
C630 C 1.03307 0.38299 0.58932 0.0
C631 C 1.01393 0.37606 0.64869 0.0
C632 C 0.05565 0.45208 0.67127 0.0
C633 C 0.07421 0.45928 0.6111 0.0
N634 N 0.08774 0.43175 0.51824 0.0
N635 N 1.01255 0.40112 0.75095 0.0
C636 C 0.06534 0.42454 0.57207 0.0
C637 C 1.02753 0.40975 0.69144 0.0
N638 N 1.01901 0.34997 0.54868 0.0
N639 N 0.0626 0.48565 0.70754 0.0
H640 H 0.99326 0.37032 0.76711 0.0
H641 H 1.02169 0.42356 0.78586 0.0
H642 H 0.08349 0.51706 0.69589 0.0
H643 H 0.04597 0.48288 0.74803 0.0
H644 H 1.02761 0.35332 0.50211 0.0
H645 H 0.99723 0.31887 0.56139 0.0
H646 H 0.08443 0.40807 0.48812 0.0
H647 H 0.11222 0.46177 0.50576 0.0
C648 C 0.7347 0.59682 0.55709 0.0
C649 C 0.74278 0.5934 0.62068 0.0
C650 C 0.66776 0.54239 0.6383 0.0
C651 C 0.65925 0.54935 0.57641 0.0
N652 N 0.6837 0.57388 0.47289 0.0
N653 N 0.72013 0.55645 0.71828 0.0
C654 C 0.69267 0.57346 0.5344 0.0
C655 C 0.71029 0.56357 0.65996 0.0
N656 N 0.76734 0.62341 0.51916 0.0
N657 N 0.63491 0.51774 0.67719 0.0
H658 H 0.75078 0.57233 0.73565 0.0
H659 H 0.69886 0.53303 0.74818 0.0
H660 H 0.60373 0.50085 0.6621 0.0
H661 H 0.6379 0.51485 0.72465 0.0
H662 H 0.76387 0.6314 0.47407 0.0
H663 H 0.79868 0.63819 0.53356 0.0
H664 H 0.70622 0.58899 0.43832 0.0
H665 H 0.65311 0.55624 0.45553 0.0
C666 C 0.87961 0.59445 0.0572 0.0
C667 C 0.8471 0.57629 0.10257 0.0
C668 C 0.85979 0.51654 0.11469 0.0
C669 C 0.88904 0.53256 0.06456 0.0
N670 N 0.92011 0.58226 0.97971 0.0
N671 N 0.80225 0.5176 0.16928 0.0
C672 C 0.8971 0.57028 0.03347 0.0
C673 C 0.83608 0.53662 0.12998 0.0
N674 N 0.89529 0.63559 0.03872 0.0
N675 N 0.85596 0.48333 0.14941 0.0
H676 H 0.78452 0.53163 0.18187 0.0
H677 H 0.78974 0.48664 0.18546 0.0
H678 H 0.8729 0.46796 0.14008 0.0
H679 H 0.83876 0.4733 0.19057 0.0
H680 H 0.92227 0.65184 0.01143 0.0
H681 H 0.8843 0.65503 0.05594 0.0
H682 H 0.92315 0.60701 0.95169 0.0
H683 H 0.93258 0.56488 0.95962 0.0
C684 C 0.46598 0.37953 0.11821 0.0
C685 C 0.43082 0.36099 0.1594 0.0
C686 C 0.42959 0.42797 0.16118 0.0
C687 C 0.46356 0.44562 0.11796 0.0
N688 N 0.50887 0.43651 0.04645 0.0
N689 N 0.37915 0.36631 0.22137 0.0
C690 C 0.48033 0.42092 0.09415 0.0
C691 C 0.41228 0.38479 0.18072 0.0
N692 N 0.48659 0.35809 0.10335 0.0
N693 N 0.41462 0.45293 0.18412 0.0
H694 H 0.36645 0.33519 0.23719 0.0
H695 H 0.36388 0.38121 0.23996 0.0
H696 H 0.42735 0.48477 0.17221 0.0
H697 H 0.38987 0.44292 0.21532 0.0
H698 H 0.51547 0.37189 0.08032 0.0
H699 H 0.47662 0.32719 0.11775 0.0
H700 H 0.51865 0.41843 0.02176 0.0
H701 H 0.52007 0.46665 0.02751 0.0
C702 C 0.71723 0.04879 0.18012 0.0
C703 C 0.73633 0.09301 0.16906 0.0
C704 C 0.67703 0.08159 0.10262 0.0
C705 C 0.65766 0.03721 0.11396 0.0
N706 N 0.66136 0.97757 0.15432 0.0
N707 N 0.73763 0.15203 0.1162 0.0
C708 C 0.67849 1.02052 0.14994 0.0
C709 C 0.71728 0.10944 0.12866 0.0
N710 N 0.73525 0.03417 0.22162 0.0
N711 N 0.65595 0.09727 0.06931 0.0
H712 H 0.76681 0.17355 0.13508 0.0
H713 H 0.72753 0.16648 0.08431 0.0
H714 H 0.62666 0.07832 0.04902 0.0
H715 H 0.66577 0.12922 0.06394 0.0
H716 H 0.72077 1.00307 0.23772 0.0
H717 H 0.76421 0.05401 0.24266 0.0
H718 H 0.67636 0.96286 0.17512 0.0
H719 H 0.63306 0.95638 0.13276 0.0
C720 C 0.59068 0.92458 0.50041 0.0
C721 C 0.58664 0.95055 0.45491 0.0
C722 C 0.61994 0.92709 0.37743 0.0
C723 C 0.62999 0.90674 0.42519 0.0
N724 N 0.6263 0.88657 0.5327 0.0
N725 N 0.59466 0.97519 0.34928 0.0
C726 C 0.61494 0.90478 0.48663 0.0
C727 C 0.60009 0.95099 0.39292 0.0
N728 N 0.57191 0.91945 0.55706 0.0
N729 N 0.62894 0.92293 0.31715 0.0
H730 H 0.57711 0.99006 0.35788 0.0
H731 H 0.60835 0.98166 0.30536 0.0
H732 H 0.64304 0.90524 0.30459 0.0
H733 H 0.61957 0.93389 0.27917 0.0
H734 H 0.57007 0.89784 0.59037 0.0
H735 H 0.55486 0.93429 0.56894 0.0
H736 H 0.62098 0.88864 0.57965 0.0
H737 H 0.64354 0.87137 0.52453 0.0
C738 C 0.185 0.72684 0.53225 0.0
C739 C 0.18505 0.6965 0.49101 0.0
C740 C 0.2136 0.75008 0.40774 0.0
C741 C 0.21197 0.77974 0.44835 0.0
N742 N 0.20725 0.80066 0.55218 0.0
N743 N 0.20851 0.6813 0.3953 0.0
C744 C 0.20162 0.76946 0.5118 0.0
C745 C 0.20251 0.70895 0.43056 0.0
N746 N 0.16623 0.71438 0.58927 0.0
N747 N 0.22351 0.76054 0.34668 0.0
H748 H 0.20077 0.65117 0.41123 0.0
H749 H 0.22427 0.68928 0.35289 0.0
H750 H 0.23329 0.79088 0.32948 0.0
H751 H 0.22044 0.73897 0.31269 0.0
H752 H 0.1607 0.73381 0.61837 0.0
H753 H 0.15347 0.68359 0.60633 0.0
H754 H 0.20428 0.79668 0.60013 0.0
H755 H 0.21876 0.83187 0.53772 0.0
C756 C 0.36067 0.40971 0.36843 0.0
C757 C 0.32773 0.36876 0.38582 0.0
C758 C 0.36901 0.37056 0.47694 0.0
C759 C 0.4031 0.40986 0.45605 0.0
N760 N 0.43507 0.46077 0.37281 0.0
N761 N 0.30266 0.30728 0.45173 0.0
C762 C 0.40022 0.42721 0.39858 0.0
C763 C 0.33258 0.3482 0.43866 0.0
N764 N 0.35335 0.43361 0.32663 0.0
N765 N 0.37111 0.35516 0.5339 0.0
H766 H 0.27566 0.29041 0.42475 0.0
H767 H 0.3061 0.28911 0.48613 0.0
H768 H 0.398 0.3699 0.56161 0.0
H769 H 0.34566 0.3292 0.55498 0.0
H770 H 0.37484 0.46551 0.3183 0.0
H771 H 0.32434 0.42326 0.30512 0.0
H772 H 0.43522 0.47202 0.3282 0.0
H773 H 0.46483 0.47438 0.39297 0.0
C774 C 0.69013 0.68835 0.22709 0.0
C775 C 0.71997 0.68581 0.26577 0.0
C776 C 0.68992 0.70187 0.35587 0.0
C777 C 0.67014 0.71722 0.31516 0.0
N778 N 0.63726 0.70964 0.21565 0.0
N779 N 0.74352 0.68175 0.3683 0.0
C780 C 0.66513 0.70485 0.25184 0.0
C781 C 0.71781 0.68919 0.33089 0.0
N782 N 0.6858 0.67467 0.16728 0.0
N783 N 0.68111 0.69873 0.41783 0.0
H784 H 0.7623 0.67 0.35103 0.0
H785 H 0.7471 0.6883 0.41559 0.0
H786 H 0.65826 0.70503 0.43556 0.0
H787 H 0.69234 0.6853 0.44986 0.0
H788 H 0.66235 0.67215 0.13759 0.0
H789 H 0.70375 0.66225 0.14907 0.0
H790 H 0.63708 0.70859 0.16744 0.0
H791 H 0.61311 0.71328 0.23488 0.0
C792 C 0.36164 0.10333 0.33945 0.0
C793 C 0.34394 0.12429 0.30563 0.0
C794 C 0.27907 0.05598 0.29227 0.0
C795 C 0.29389 0.0368 0.3355 0.0
N796 N 0.34849 0.04449 0.4062 0.0
N797 N 0.28374 0.12099 0.25474 0.0
C798 C 0.33511 0.06096 0.3604 0.0
C799 C 0.30214 0.10068 0.28298 0.0
N800 N 0.40417 0.12327 0.34957 0.0
N801 N 0.24376 0.03125 0.25814 0.0
H802 H 0.29944 0.15367 0.24743 0.0
H803 H 0.25183 0.10591 0.24345 0.0
H804 H 0.22743 0.99828 0.26118 0.0
H805 H 0.23364 0.04297 0.22193 0.0
H806 H 0.41927 0.108 0.36841 0.0
H807 H 0.42505 0.15357 0.33273 0.0
H808 H 0.37637 0.06256 0.43067 0.0
H809 H 0.33021 1.0139 0.42369 0.0
C810 C 0.05815 0.28507 0.21365 0.0
C811 C 0.07769 0.2698 0.25523 0.0
C812 C 1.00771 0.20951 0.28097 0.0
C813 C 0.98929 0.2221 0.2333 0.0
N814 N 1.0 0.26658 0.14384 0.0
N815 N 0.07142 0.21331 0.32128 0.0
C816 C 1.01541 0.25834 0.19658 0.0
C817 C 0.05257 0.23082 0.28703 0.0
N818 N 0.07963 0.326 0.19273 0.0
N819 N 0.98252 0.17859 0.3223 0.0
H820 H 0.10403 0.22763 0.32626 0.0
H821 H 0.05493 0.18287 0.34006 0.0
H822 H 0.94969 0.16301 0.32067 0.0
H823 H 0.99415 0.17127 0.36168 0.0
H824 H 0.06533 0.33971 0.16725 0.0
H825 H 0.11004 0.34774 0.20729 0.0
H826 H 1.01912 0.29022 0.11232 0.0
H827 H 0.9694 0.24684 0.12782 0.0
C828 C 0.3132 0.28161 0.77818 0.0
C829 C 0.29909 0.25748 0.72281 0.0
C830 C 0.24449 0.27771 0.71149 0.0
C831 C 0.25827 0.30094 0.76763 0.0
N832 N 0.29674 0.31449 0.86299 0.0
N833 N 0.24649 0.22571 0.64311 0.0
C834 C 0.28952 0.29909 0.80389 0.0
C835 C 0.26299 0.2532 0.69162 0.0
N836 N 0.35105 0.29091 0.80358 0.0
N837 N 0.21551 0.28095 0.67554 0.0
H838 H 0.25962 0.20773 0.62751 0.0
H839 H 0.21808 0.21812 0.6218 0.0
H840 H 0.20057 0.29754 0.68962 0.0
H841 H 0.20784 0.26912 0.63066 0.0
H842 H 0.36499 0.31219 0.83994 0.0
H843 H 0.37063 0.28071 0.78462 0.0
H844 H 0.31657 0.31078 0.89386 0.0
H845 H 0.27927 0.32689 0.88304 0.0
C846 C 0.85329 0.0944 0.7434 0.0
C847 C 0.84086 0.12278 0.76699 0.0
C848 C 0.78654 0.06548 0.83122 0.0
C849 C 0.80037 0.03774 0.80972 0.0
N850 N 0.85611 0.03042 0.76237 0.0
N851 N 0.80474 0.13837 0.84756 0.0
C852 C 0.83658 0.05362 0.77092 0.0
C853 C 0.81022 0.10924 0.81532 0.0
N854 N 0.87932 0.10527 0.69294 0.0
N855 N 0.74995 0.04999 0.86447 0.0
H856 H 0.82298 0.17091 0.83949 0.0
H857 H 0.78562 0.13068 0.8868 0.0
H858 H 0.73152 1.01812 0.87665 0.0
H859 H 0.73611 0.06814 0.87541 0.0
H860 H 0.88552 0.0838 0.6701 0.0
H861 H 0.89163 0.13441 0.67033 0.0
H862 H 0.88461 0.04193 0.73866 0.0
H863 H 0.84659 1.00192 0.7857 0.0
C864 C 0.0682 0.73205 0.76509 0.0
C865 C 0.06975 0.74105 0.82933 0.0
C866 C 0.99245 0.70497 0.83365 0.0
C867 C 0.99169 0.7035 0.76797 0.0
N868 N 1.02601 0.709 0.67073 0.0
N869 N 1.03484 0.73019 0.92757 0.0
C870 C 1.02874 0.71421 0.73366 0.0
C871 C 1.03208 0.72488 0.86465 0.0
N872 N 0.10459 0.74174 0.73429 0.0
N873 N 0.95523 0.68858 0.8656 0.0
H874 H 0.06356 0.74277 0.95089 0.0
H875 H 1.0094 0.72215 0.95696 0.0
H876 H 0.926 0.67335 0.84357 0.0
H877 H 0.95269 0.68813 0.9136 0.0
H878 H 0.10602 0.73471 0.688 0.0
H879 H 0.13361 0.75442 0.75655 0.0
H880 H 0.05175 0.71937 0.64107 0.0
H881 H 0.99709 0.69419 0.64769 0.0
loop_
_geom_bond_atom_site_label_1
_geom_bond_atom_site_label_2
_geom_bond_distance
_geom_bond_site_symmetry_2
_ccdc_geom_bond_type
Mg0 O7 2.141 1_554 S
Mg0 O8 2.048 1_554 S
Mg0 O9 2.048 . S
Mg0 O12 2.141 . S
C1 O2 1.316 . S
C1 O8 1.195 1_554 S
O2 C1 1.316 . S
C3 O4 1.245 . S
C3 O12 1.289 1_655 S
O4 C3 1.245 . S
C5 O6 1.245 1_455 S
C5 O7 1.289 . S
O6 C5 1.245 1_655 S
O7 Mg0 2.141 1_556 S
O7 C5 1.289 . S
O8 Mg0 2.048 1_556 S
O8 C1 1.195 1_556 S
O9 Mg0 2.048 . S
O9 C10 1.195 . S
C10 O9 1.195 . S
C10 O11 1.313 1_455 S
O11 C10 1.313 1_655 S
O12 Mg0 2.141 . S
O12 C3 1.289 1_455 S
Mg13 O20 2.141 1_554 S
Mg13 O21 2.048 1_554 S
Mg13 O22 2.048 . S
Mg13 O25 2.141 . S
C14 O15 1.313 . S
C14 O21 1.195 1_554 S
O15 C14 1.313 . S
C16 O17 1.245 . S
C16 O25 1.289 . S
O17 C16 1.245 . S
C18 O19 1.245 . S
C18 O20 1.289 . S
O19 C18 1.245 . S
O20 Mg13 2.141 1_556 S
O20 C18 1.289 . S
O21 Mg13 2.048 1_556 S
O21 C14 1.195 1_556 S
O22 Mg13 2.048 . S
O22 C23 1.195 . S
C23 O22 1.195 . S
C23 O24 1.313 . S
O24 C23 1.313 . S
O25 Mg13 2.141 . S
O25 C16 1.289 . S
Mg26 O33 2.141 1_545 S
Mg26 O34 2.048 1_554 S
Mg26 O35 2.048 . S
Mg26 O38 2.141 . S
C27 O28 1.313 1_545 S
C27 O34 1.195 . S
O28 C27 1.313 1_565 S
C29 O30 1.245 . S
C29 O38 1.289 1_565 S
O30 C29 1.245 . S
C31 O32 1.245 . S
C31 O33 1.289 1_556 S
O32 C31 1.245 . S
O33 Mg26 2.141 1_565 S
O33 C31 1.289 1_554 S
O34 Mg26 2.048 1_556 S
O34 C27 1.195 . S
O35 Mg26 2.048 . S
O35 C36 1.195 . S
C36 O35 1.195 . S
C36 O37 1.313 . S
O37 C36 1.313 . S
O38 Mg26 2.141 . S
O38 C29 1.289 1_545 S
Mg39 O46 2.141 . S
Mg39 O47 2.048 . S
Mg39 O48 2.048 . S
Mg39 O51 2.141 . S
C40 O41 1.313 . S
C40 O47 1.195 1_565 S
O41 C40 1.313 . S
C42 O43 1.245 . S
C42 O51 1.289 . S
O43 C42 1.245 . S
C44 O45 1.245 1_545 S
C44 O46 1.289 . S
O45 C44 1.245 1_565 S
O46 Mg39 2.141 . S
O46 C44 1.289 . S
O47 Mg39 2.048 . S
O47 C40 1.195 1_545 S
O48 Mg39 2.048 . S
O48 C49 1.195 . S
C49 O48 1.195 . S
C49 O50 1.313 1_545 S
O50 C49 1.313 1_565 S
O51 Mg39 2.141 . S
O51 C42 1.289 . S
Mg52 O59 2.141 . S
Mg52 O60 2.048 1_655 S
Mg52 O61 2.048 1_655 S
Mg52 O64 2.141 . S
C53 O54 1.313 . S
C53 O60 1.195 . S
O54 C53 1.313 . S
C55 O56 1.245 1_655 S
C55 O64 1.289 . S
O56 C55 1.245 1_455 S
C57 O58 1.245 . S
C57 O59 1.289 1_455 S
O58 C57 1.245 . S
O59 Mg52 2.141 . S
O59 C57 1.289 1_655 S
O60 Mg52 2.048 1_455 S
O60 C53 1.195 . S
O61 Mg52 2.048 1_455 S
O61 C62 1.195 . S
C62 O61 1.195 . S
C62 O63 1.313 . S
O63 C62 1.313 . S
O64 Mg52 2.141 . S
O64 C55 1.289 . S
Mg65 O72 2.141 . S
Mg65 O73 2.048 . S
Mg65 O74 2.048 . S
Mg65 O77 2.141 . S
C66 O67 1.313 . S
C66 O73 1.195 . S
O67 C66 1.313 . S
C68 O69 1.245 . S
C68 O77 1.289 . S
O69 C68 1.245 . S
C70 O71 1.245 . S
C70 O72 1.289 . S
O71 C70 1.245 . S
O72 Mg65 2.141 . S
O72 C70 1.289 . S
O73 Mg65 2.048 . S
O73 C66 1.195 . S
O74 Mg65 2.048 . S
O74 C75 1.195 . S
C75 O74 1.195 . S
C75 O76 1.313 . S
O76 C75 1.313 . S
O77 Mg65 2.141 . S
O77 C68 1.289 . S
Mg78 O85 2.141 . S
Mg78 O86 2.048 . S
Mg78 O87 2.048 . S
Mg78 O90 2.141 . S
C79 O80 1.313 . S
C79 O86 1.195 . S
O80 C79 1.313 . S
C81 O82 1.245 . S
C81 O90 1.289 . S
O82 C81 1.245 . S
C83 O84 1.245 . S
C83 O85 1.289 . S
O84 C83 1.245 . S
O85 Mg78 2.141 . S
O85 C83 1.289 . S
O86 Mg78 2.048 . S
O86 C79 1.195 . S
O87 Mg78 2.048 . S
O87 C88 1.195 . S
C88 O87 1.195 . S
C88 O89 1.313 . S
O89 C88 1.313 . S
O90 Mg78 2.141 . S
O90 C81 1.289 . S
Mg91 O98 2.141 . S
Mg91 O99 2.048 . S
Mg91 O100 2.048 . S
Mg91 O103 2.141 . S
C92 O93 1.313 . S
C92 O99 1.195 . S
O93 C92 1.313 . S
C94 O95 1.245 . S
C94 O103 1.289 . S
O95 C94 1.245 . S
C96 O97 1.245 . S
C96 O98 1.289 . S
O97 C96 1.245 . S
O98 Mg91 2.141 . S
O98 C96 1.289 . S
O99 Mg91 2.048 . S
O99 C92 1.195 . S
O100 Mg91 2.048 . S
O100 C101 1.195 . S
C101 O100 1.195 . S
C101 O102 1.313 . S
O102 C101 1.313 . S
O103 Mg91 2.141 . S
O103 C94 1.289 . S
Mg104 O111 2.141 . S
Mg104 O112 2.048 . S
Mg104 O113 2.048 . S
Mg104 O116 2.141 . S
C105 O106 1.313 . S
C105 O112 1.195 . S
O106 C105 1.313 . S
C107 O108 1.245 . S
C107 O116 1.289 . S
O108 C107 1.245 . S
C109 O110 1.245 . S
C109 O111 1.289 . S
O110 C109 1.245 . S
O111 Mg104 2.141 . S
O111 C109 1.289 . S
O112 Mg104 2.048 . S
O112 C105 1.195 . S
O113 Mg104 2.048 . S
O113 C114 1.195 . S
C114 O113 1.195 . S
C114 O115 1.313 . S
O115 C114 1.313 . S
O116 Mg104 2.141 . S
O116 C107 1.289 . S
Mg117 O124 2.141 . S
Mg117 O125 2.048 . S
Mg117 O126 2.048 . S
Mg117 O129 2.141 . S
C118 O119 1.313 . S
C118 O125 1.195 . S
O119 C118 1.313 . S
C120 O121 1.245 . S
C120 O129 1.289 . S
O121 C120 1.245 . S
C122 O123 1.245 . S
C122 O124 1.289 . S
O123 C122 1.245 . S
O124 Mg117 2.141 . S
O124 C122 1.289 . S
O125 Mg117 2.048 . S
O125 C118 1.195 . S
O126 Mg117 2.048 . S
O126 C127 1.195 . S
C127 O126 1.195 . S
C127 O128 1.313 . S
O128 C127 1.313 . S
O129 Mg117 2.141 . S
O129 C120 1.289 . S
Mg130 O137 2.141 . S
Mg130 O138 2.048 . S
Mg130 O139 2.048 . S
Mg130 O142 2.141 . S
C131 O132 1.313 . S
C131 O138 1.195 . S
O132 C131 1.313 . S
C133 O134 1.245 . S
C133 O142 1.289 . S
O134 C133 1.245 . S
C135 O136 1.245 . S
C135 O137 1.289 . S
O136 C135 1.245 . S
O137 Mg130 2.141 . S
O137 C135 1.289 . S
O138 Mg130 2.048 . S
O138 C131 1.195 . S
O139 Mg130 2.048 . S
O139 C140 1.195 . S
C140 O139 1.195 . S
C140 O141 1.313 . S
O141 C140 1.313 . S
O142 Mg130 2.141 . S
O142 C133 1.289 . S
Mg143 O150 2.141 . S
Mg143 O151 2.048 . S
Mg143 O152 2.048 . S
Mg143 O155 2.141 . S
C144 O145 1.313 . S
C144 O151 1.195 . S
O145 C144 1.313 . S
C146 O147 1.245 . S
C146 O155 1.289 . S
O147 C146 1.245 . S
C148 O149 1.245 . S
C148 O150 1.289 . S
O149 C148 1.245 . S
O150 Mg143 2.141 . S
O150 C148 1.289 . S
O151 Mg143 2.048 . S
O151 C144 1.195 . S
O152 Mg143 2.048 . S
O152 C153 1.195 . S
C153 O152 1.195 . S
C153 O154 1.313 . S
O154 C153 1.313 . S
O155 Mg143 2.141 . S
O155 C146 1.289 . S
Mg156 O163 2.141 . S
Mg156 O164 2.048 . S
Mg156 O165 2.048 . S
Mg156 O168 2.141 . S
C157 O158 1.313 . S
C157 O164 1.195 . S
O158 C157 1.313 . S
C159 O160 1.245 . S
C159 O168 1.289 . S
O160 C159 1.245 . S
C161 O162 1.245 . S
C161 O163 1.289 . S
O162 C161 1.245 . S
O163 Mg156 2.141 . S
O163 C161 1.289 . S
O164 Mg156 2.048 . S
O164 C157 1.195 . S
O165 Mg156 2.048 . S
O165 C166 1.195 . S
C166 O165 1.195 . S
C166 O167 1.313 . S
O167 C166 1.313 . S
O168 Mg156 2.141 . S
O168 C159 1.289 . S
Mg169 O176 2.141 . S
Mg169 O177 2.048 . S
Mg169 O178 2.048 . S
Mg169 O181 2.141 . S
C170 O171 1.313 . S
C170 O177 1.195 . S
O171 C170 1.313 . S
C172 O173 1.245 . S
C172 O181 1.289 . S
O173 C172 1.245 . S
C174 O175 1.245 . S
C174 O176 1.289 . S
O175 C174 1.245 . S
O176 Mg169 2.141 . S
O176 C174 1.289 . S
O177 Mg169 2.048 . S
O177 C170 1.195 . S
O178 Mg169 2.048 . S
O178 C179 1.195 . S
C179 O178 1.195 . S
C179 O180 1.313 . S
O180 C179 1.313 . S
O181 Mg169 2.141 . S
O181 C172 1.289 . S
Mg182 O189 2.141 . S
Mg182 O190 2.048 . S
Mg182 O191 2.048 . S
Mg182 O194 2.141 . S
C183 O184 1.313 . S
C183 O190 1.195 . S
O184 C183 1.313 . S
C185 O186 1.245 . S
C185 O194 1.289 . S
O186 C185 1.245 . S
C187 O188 1.245 . S
C187 O189 1.289 . S
O188 C187 1.245 . S
O189 Mg182 2.141 . S
O189 C187 1.289 . S
O190 Mg182 2.048 . S
O190 C183 1.195 . S
O191 Mg182 2.048 . S
O191 C192 1.195 . S
C192 O191 1.195 . S
C192 O193 1.313 . S
O193 C192 1.313 . S
O194 Mg182 2.141 . S
O194 C185 1.289 . S
Mg195 O202 2.141 . S
Mg195 O203 2.048 . S
Mg195 O204 2.048 . S
Mg195 O207 2.141 . S
C196 O197 1.313 . S
C196 O203 1.195 . S
O197 C196 1.313 . S
C198 O199 1.245 . S
C198 O207 1.289 . S
O199 C198 1.245 . S
C200 O201 1.245 . S
C200 O202 1.289 . S
O201 C200 1.245 . S
O202 Mg195 2.141 . S
O202 C200 1.289 . S
O203 Mg195 2.048 . S
O203 C196 1.195 . S
O204 Mg195 2.048 . S
O204 C205 1.195 . S
C205 O204 1.195 . S
C205 O206 1.313 . S
O206 C205 1.313 . S
O207 Mg195 2.141 . S
O207 C198 1.289 . S
Mg208 O215 2.141 . S
Mg208 O216 2.048 . S
Mg208 O217 2.048 . S
Mg208 O220 2.141 . S
C209 O210 1.313 . S
C209 O216 1.195 . S
O210 C209 1.313 . S
C211 O212 1.245 . S
C211 O220 1.289 . S
O212 C211 1.245 . S
C213 O214 1.245 . S
C213 O215 1.289 . S
O214 C213 1.245 . S
O215 Mg208 2.141 . S
O215 C213 1.289 . S
O216 Mg208 2.048 . S
O216 C209 1.195 . S
O217 Mg208 2.048 . S
O217 C218 1.195 . S
C218 O217 1.195 . S
C218 O219 1.313 . S
O219 C218 1.313 . S
O220 Mg208 2.141 . S
O220 C211 1.289 . S
Mg221 O228 2.141 . S
Mg221 O229 2.048 . S
Mg221 O230 2.048 . S
Mg221 O233 2.141 . S
C222 O223 1.313 . S
C222 O229 1.195 . S
O223 C222 1.313 . S
C224 O225 1.245 . S
C224 O233 1.289 . S
O225 C224 1.245 . S
C226 O227 1.245 . S
C226 O228 1.289 . S
O227 C226 1.245 . S
O228 Mg221 2.141 . S
O228 C226 1.289 . S
O229 Mg221 2.048 . S
O229 C222 1.195 . S
O230 Mg221 2.048 . S
O230 C231 1.195 . S
C231 O230 1.195 . S
C231 O232 1.313 . S
O232 C231 1.313 . S
O233 Mg221 2.141 . S
O233 C224 1.289 . S
C234 C235 1.363 . S
C234 C240 1.379 . S
C234 N242 1.356 . S
C235 C234 1.363 . S
C235 C241 1.363 . S
C236 C237 1.363 . S
C236 C241 1.379 . S
C236 N243 1.356 . S
C237 C236 1.363 . S
C237 C240 1.363 . S
N238 C240 1.356 . S
N238 H250 0.984 . S
N238 H251 0.985 . S
N239 C241 1.356 . S
N239 H244 0.984 . S
N239 H245 0.985 . S
C240 C234 1.379 . S
C240 C237 1.363 . S
C240 N238 1.356 . S
C241 C235 1.363 . S
C241 C236 1.379 . S
C241 N239 1.356 . S
N242 C234 1.356 . S
N242 H248 0.984 . S
N242 H249 0.984 . S
N243 C236 1.356 . S
N243 H246 0.984 . S
N243 H247 0.985 . S
H244 N239 0.984 . S
H245 N239 0.985 . S
H246 N243 0.984 . S
H247 N243 0.985 . S
H248 N242 0.984 . S
H249 N242 0.984 . S
H250 N238 0.984 . S
H251 N238 0.985 . S
C252 C253 1.363 . S
C252 C258 1.379 . S
C252 N260 1.356 . S
C253 C252 1.363 . S
C253 C259 1.363 . S
C254 C255 1.363 . S
C254 C259 1.379 . S
C254 N261 1.356 . S
C255 C254 1.363 . S
C255 C258 1.363 . S
N256 C258 1.356 . S
N256 H268 0.984 . S
N256 H269 0.985 . S
N257 C259 1.356 . S
N257 H262 0.984 . S
N257 H263 0.985 . S
C258 C252 1.379 . S
C258 C255 1.363 . S
C258 N256 1.356 . S
C259 C253 1.363 . S
C259 C254 1.379 . S
C259 N257 1.356 . S
N260 C252 1.356 . S
N260 H266 0.984 . S
N260 H267 0.984 . S
N261 C254 1.356 . S
N261 H264 0.984 . S
N261 H265 0.985 . S
H262 N257 0.984 . S
H263 N257 0.985 . S
H264 N261 0.984 . S
H265 N261 0.985 . S
H266 N260 0.984 . S
H267 N260 0.984 . S
H268 N256 0.984 . S
H269 N256 0.985 . S
C270 C271 1.363 . S
C270 C276 1.379 1_565 S
C270 N278 1.356 . S
C271 C270 1.363 . S
C271 C277 1.363 1_565 S
C272 C273 1.363 . S
C272 C277 1.379 . S
C272 N279 1.356 . S
C273 C272 1.363 . S
C273 C276 1.363 . S
N274 C276 1.356 . S
N274 H286 0.987 1_545 S
N274 H287 0.985 . S
N275 C277 1.356 . S
N275 H280 0.981 1_545 S
N275 H281 0.985 . S
C276 C270 1.379 1_545 S
C276 C273 1.363 . S
C276 N274 1.356 . S
C277 C271 1.363 1_545 S
C277 C272 1.379 . S
C277 N275 1.356 . S
N278 C270 1.356 . S
N278 H284 0.984 . S
N278 H285 0.984 . S
N279 C272 1.356 . S
N279 H282 0.984 . S
N279 H283 0.985 . S
H280 N275 0.981 1_565 S
H281 N275 0.985 . S
H282 N279 0.984 . S
H283 N279 0.985 . S
H284 N278 0.984 . S
H285 N278 0.984 . S
H286 N274 0.987 1_565 S
H287 N274 0.985 . S
C288 C289 1.363 1_655 S
C288 C294 1.379 . S
C288 N296 1.356 . S
C289 C288 1.363 1_455 S
C289 C295 1.363 . S
C290 C291 1.363 . S
C290 C295 1.379 . S
C290 N297 1.356 . S
C291 C290 1.363 . S
C291 C294 1.363 1_455 S
N292 C294 1.356 . S
N292 H304 0.984 . S
N292 H305 0.985 . S
N293 C295 1.356 . S
N293 H298 0.984 . S
N293 H299 0.985 . S
C294 C288 1.379 . S
C294 C291 1.363 1_655 S
C294 N292 1.356 . S
C295 C289 1.363 . S
C295 C290 1.379 . S
C295 N293 1.356 . S
N296 C288 1.356 . S
N296 H302 0.984 . S
N296 H303 0.984 . S
N297 C290 1.356 . S
N297 H300 0.984 . S
N297 H301 0.985 . S
H298 N293 0.984 . S
H299 N293 0.985 . S
H300 N297 0.984 . S
H301 N297 0.985 . S
H302 N296 0.984 . S
H303 N296 0.984 . S
H304 N292 0.984 . S
H305 N292 0.985 . S
C306 C307 1.363 . S
C306 C312 1.379 . S
C306 N314 1.356 . S
C307 C306 1.363 . S
C307 C313 1.363 . S
C308 C309 1.363 . S
C308 C313 1.379 . S
C308 N315 1.356 . S
C309 C308 1.363 . S
C309 C312 1.363 . S
N310 C312 1.356 . S
N310 H322 0.984 . S
N310 H323 0.985 . S
N311 C313 1.356 . S
N311 H316 0.984 . S
N311 H317 0.985 . S
C312 C306 1.379 . S
C312 C309 1.363 . S
C312 N310 1.356 . S
C313 C307 1.363 . S
C313 C308 1.379 . S
C313 N311 1.356 . S
N314 C306 1.356 . S
N314 H320 0.984 . S
N314 H321 0.984 . S
N315 C308 1.356 . S
N315 H318 0.984 . S
N315 H319 0.985 . S
H316 N311 0.984 . S
H317 N311 0.985 . S
H318 N315 0.984 . S
H319 N315 0.985 . S
H320 N314 0.984 . S
H321 N314 0.984 . S
H322 N310 0.984 . S
H323 N310 0.985 . S
C324 C325 1.363 . S
C324 C330 1.379 . S
C324 N332 1.356 . S
C325 C324 1.363 . S
C325 C331 1.363 1_545 S
C326 C327 1.363 1_565 S
C326 C331 1.379 . S
C326 N333 1.356 . S
C327 C326 1.363 1_545 S
C327 C330 1.363 . S
N328 C330 1.356 . S
N328 H340 0.984 . S
N328 H341 0.985 . S
N329 C331 1.356 . S
N329 H334 0.984 . S
N329 H335 0.985 . S
C330 C324 1.379 . S
C330 C327 1.363 . S
C330 N328 1.356 . S
C331 C325 1.363 1_565 S
C331 C326 1.379 . S
C331 N329 1.356 . S
N332 C324 1.356 . S
N332 H338 0.984 . S
N332 H339 0.984 . S
N333 C326 1.356 . S
N333 H336 0.984 . S
N333 H337 0.985 . S
H334 N329 0.984 . S
H335 N329 0.985 . S
H336 N333 0.984 . S
H337 N333 0.985 . S
H338 N332 0.984 . S
H339 N332 0.984 . S
H340 N328 0.984 . S
H341 N328 0.985 . S
C342 C343 1.363 . S
C342 C348 1.379 . S
C342 N350 1.356 . S
C343 C342 1.363 . S
C343 C349 1.363 . S
C344 C345 1.363 . S
C344 C349 1.379 . S
C344 N351 1.356 . S
C345 C344 1.363 . S
C345 C348 1.363 . S
N346 C348 1.356 . S
N346 H358 0.984 . S
N346 H359 0.985 . S
N347 C349 1.356 . S
N347 H352 0.984 . S
N347 H353 0.985 . S
C348 C342 1.379 . S
C348 C345 1.363 . S
C348 N346 1.356 . S
C349 C343 1.363 . S
C349 C344 1.379 . S
C349 N347 1.356 . S
N350 C342 1.356 . S
N350 H356 0.984 . S
N350 H357 0.984 . S
N351 C344 1.356 . S
N351 H354 0.984 . S
N351 H355 0.985 . S
H352 N347 0.984 . S
H353 N347 0.985 . S
H354 N351 0.984 . S
H355 N351 0.985 . S
H356 N350 0.984 . S
H357 N350 0.984 . S
H358 N346 0.984 . S
H359 N346 0.985 . S
C360 C361 1.363 . S
C360 C366 1.379 . S
C360 N368 1.356 . S
C361 C360 1.363 . S
C361 C367 1.363 . S
C362 C363 1.363 . S
C362 C367 1.379 . S
C362 N369 1.356 . S
C363 C362 1.363 . S
C363 C366 1.363 . S
N364 C366 1.356 . S
N364 H376 0.984 . S
N364 H377 0.985 . S
N365 C367 1.356 . S
N365 H370 0.984 . S
N365 H371 0.985 . S
C366 C360 1.379 . S
C366 C363 1.363 . S
C366 N364 1.356 . S
C367 C361 1.363 . S
C367 C362 1.379 . S
C367 N365 1.356 . S
N368 C360 1.356 . S
N368 H374 0.984 . S
N368 H375 0.984 . S
N369 C362 1.356 . S
N369 H372 0.984 . S
N369 H373 0.985 . S
H370 N365 0.984 . S
H371 N365 0.985 . S
H372 N369 0.984 . S
H373 N369 0.985 . S
H374 N368 0.984 . S
H375 N368 0.984 . S
H376 N364 0.984 . S
H377 N364 0.985 . S
C378 C379 1.363 . S
C378 C384 1.379 . S
C378 N386 1.356 . S
C379 C378 1.363 . S
C379 C385 1.363 . S
C380 C381 1.363 . S
C380 C385 1.379 . S
C380 N387 1.356 . S
C381 C380 1.363 . S
C381 C384 1.363 . S
N382 C384 1.356 . S
N382 H394 0.984 . S
N382 H395 0.985 . S
N383 C385 1.356 . S
N383 H388 0.984 . S
N383 H389 0.985 . S
C384 C378 1.379 . S
C384 C381 1.363 . S
C384 N382 1.356 . S
C385 C379 1.363 . S
C385 C380 1.379 . S
C385 N383 1.356 . S
N386 C378 1.356 . S
N386 H392 0.984 . S
N386 H393 0.984 . S
N387 C380 1.356 . S
N387 H390 0.984 . S
N387 H391 0.985 . S
H388 N383 0.984 . S
H389 N383 0.985 . S
H390 N387 0.984 . S
H391 N387 0.985 . S
H392 N386 0.984 . S
H393 N386 0.984 . S
H394 N382 0.984 . S
H395 N382 0.985 . S
C396 C397 1.363 . S
C396 C402 1.379 . S
C396 N404 1.356 . S
C397 C396 1.363 . S
C397 C403 1.363 . S
C398 C399 1.363 . S
C398 C403 1.379 . S
C398 N405 1.356 . S
C399 C398 1.363 . S
C399 C402 1.363 . S
N400 C402 1.356 . S
N400 H412 0.984 . S
N400 H413 0.985 1_554 S
N401 C403 1.356 . S
N401 H406 0.984 . S
N401 H407 0.985 . S
C402 C396 1.379 . S
C402 C399 1.363 . S
C402 N400 1.356 . S
C403 C397 1.363 . S
C403 C398 1.379 . S
C403 N401 1.356 . S
N404 C396 1.356 . S
N404 H410 0.984 . S
N404 H411 0.984 . S
N405 C398 1.356 . S
N405 H408 0.984 . S
N405 H409 0.985 . S
H406 N401 0.984 . S
H407 N401 0.985 . S
H408 N405 0.984 . S
H409 N405 0.985 . S
H410 N404 0.984 . S
H411 N404 0.984 . S
H412 N400 0.984 . S
H413 N400 0.985 1_556 S
C414 C415 1.363 . S
C414 C420 1.379 . S
C414 N422 1.356 . S
C415 C414 1.363 . S
C415 C421 1.363 . S
C416 C417 1.363 . S
C416 C421 1.379 . S
C416 N423 1.356 . S
C417 C416 1.363 . S
C417 C420 1.363 . S
N418 C420 1.356 . S
N418 H430 0.984 . S
N418 H431 0.985 . S
N419 C421 1.356 . S
N419 H424 0.974 1_554 S
N419 H425 0.985 . S
C420 C414 1.379 . S
C420 C417 1.363 . S
C420 N418 1.356 . S
C421 C415 1.363 . S
C421 C416 1.379 . S
C421 N419 1.356 . S
N422 C414 1.356 . S
N422 H428 0.984 . S
N422 H429 0.984 1_554 S
N423 C416 1.356 . S
N423 H426 0.984 . S
N423 H427 0.985 . S
H424 N419 0.974 1_556 S
H425 N419 0.985 . S
H426 N423 0.984 . S
H427 N423 0.985 . S
H428 N422 0.984 . S
H429 N422 0.984 1_556 S
H430 N418 0.984 . S
H431 N418 0.985 . S
C432 C433 1.363 . S
C432 C438 1.379 . S
C432 N440 1.356 . S
C433 C432 1.363 . S
C433 C439 1.363 . S
C434 C435 1.363 . S
C434 C439 1.379 . S
C434 N441 1.356 . S
C435 C434 1.363 . S
C435 C438 1.363 . S
N436 C438 1.356 . S
N436 H448 0.984 . S
N436 H449 0.985 . S
N437 C439 1.356 . S
N437 H442 0.984 1_554 S
N437 H443 0.985 . S
C438 C432 1.379 . S
C438 C435 1.363 . S
C438 N436 1.356 . S
C439 C433 1.363 . S
C439 C434 1.379 . S
C439 N437 1.356 . S
N440 C432 1.356 . S
N440 H446 0.984 . S
N440 H447 0.984 1_554 S
N441 C434 1.356 . S
N441 H444 0.984 . S
N441 H445 0.985 . S
H442 N437 0.984 1_556 S
H443 N437 0.985 . S
H444 N441 0.984 . S
H445 N441 0.985 . S
H446 N440 0.984 . S
H447 N440 0.984 1_556 S
H448 N436 0.984 . S
H449 N436 0.985 . S
C450 C451 1.363 1_556 S
C450 C456 1.379 . S
C450 N458 1.356 1_556 S
C451 C450 1.363 1_554 S
C451 C457 1.363 1_554 S
C452 C453 1.363 . S
C452 C457 1.379 . S
C452 N459 1.356 . S
C453 C452 1.363 . S
C453 C456 1.363 . S
N454 C456 1.356 . S
N454 H466 0.984 . S
N454 H467 0.985 . S
N455 C457 1.356 1_554 S
N455 H460 0.984 . S
N455 H461 0.985 . S
C456 C450 1.379 . S
C456 C453 1.363 . S
C456 N454 1.356 . S
C457 C451 1.363 1_556 S
C457 C452 1.379 . S
C457 N455 1.356 1_556 S
N458 C450 1.356 1_554 S
N458 H464 0.984 . S
N458 H465 0.984 . S
N459 C452 1.356 . S
N459 H462 0.984 . S
N459 H463 0.985 . S
H460 N455 0.984 . S
H461 N455 0.985 . S
H462 N459 0.984 . S
H463 N459 0.985 . S
H464 N458 0.984 . S
H465 N458 0.984 . S
H466 N454 0.984 . S
H467 N454 0.985 . S
C468 C469 1.363 . S
C468 C474 1.379 . S
C468 N476 1.356 . S
C469 C468 1.363 . S
C469 C475 1.363 . S
C470 C471 1.363 1_556 S
C470 C475 1.379 . S
C470 N477 1.356 1_556 S
C471 C470 1.363 1_554 S
C471 C474 1.363 1_554 S
N472 C474 1.356 1_554 S
N472 H484 0.984 . S
N472 H485 0.985 . S
N473 C475 1.356 . S
N473 H478 0.984 . S
N473 H479 0.985 . S
C474 C468 1.379 . S
C474 C471 1.363 1_556 S
C474 N472 1.356 1_556 S
C475 C469 1.363 . S
C475 C470 1.379 . S
C475 N473 1.356 . S
N476 C468 1.356 . S
N476 H482 0.984 . S
N476 H483 0.984 . S
N477 C470 1.356 1_554 S
N477 H480 0.984 . S
N477 H481 0.985 . S
H478 N473 0.984 . S
H479 N473 0.985 . S
H480 N477 0.984 . S
H481 N477 0.985 . S
H482 N476 0.984 . S
H483 N476 0.984 . S
H484 N472 0.984 . S
H485 N472 0.985 . S
C486 C487 1.363 1_556 S
C486 C492 1.379 . S
C486 N494 1.356 1_556 S
C487 C486 1.363 1_554 S
C487 C493 1.363 1_554 S
C488 C489 1.363 . S
C488 C493 1.379 . S
C488 N495 1.356 . S
C489 C488 1.363 . S
C489 C492 1.363 . S
N490 C492 1.356 . S
N490 H502 0.984 . S
N490 H503 0.985 . S
N491 C493 1.356 1_554 S
N491 H496 0.984 . S
N491 H497 0.985 . S
C492 C486 1.379 . S
C492 C489 1.363 . S
C492 N490 1.356 . S
C493 C487 1.363 1_556 S
C493 C488 1.379 . S
C493 N491 1.356 1_556 S
N494 C486 1.356 1_554 S
N494 H500 0.988 . S
N494 H501 0.984 . S
N495 C488 1.356 . S
N495 H498 0.984 . S
N495 H499 0.985 . S
H496 N491 0.984 . S
H497 N491 0.985 . S
H498 N495 0.984 . S
H499 N495 0.985 . S
H500 N494 0.988 . S
H501 N494 0.984 . S
H502 N490 0.984 . S
H503 N490 0.985 . S
C504 C505 1.363 . S
C504 C510 1.379 . S
C504 N512 1.356 . S
C505 C504 1.363 . S
C505 C511 1.363 . S
C506 C507 1.363 . S
C506 C511 1.379 . S
C506 N513 1.356 . S
C507 C506 1.363 . S
C507 C510 1.363 . S
N508 C510 1.356 . S
N508 H520 0.984 . S
N508 H521 0.985 . S
N509 C511 1.356 . S
N509 H514 0.984 . S
N509 H515 0.985 . S
C510 C504 1.379 . S
C510 C507 1.363 . S
C510 N508 1.356 . S
C511 C505 1.363 . S
C511 C506 1.379 . S
C511 N509 1.356 . S
N512 C504 1.356 . S
N512 H518 0.984 . S
N512 H519 0.984 . S
N513 C506 1.356 . S
N513 H516 0.984 . S
N513 H517 0.985 . S
H514 N509 0.984 . S
H515 N509 0.985 . S
H516 N513 0.984 . S
H517 N513 0.985 . S
H518 N512 0.984 . S
H519 N512 0.984 . S
H520 N508 0.984 . S
H521 N508 0.985 . S
C522 C523 1.363 . S
C522 C528 1.379 . S
C522 N530 1.356 . S
C523 C522 1.363 . S
C523 C529 1.363 . S
C524 C525 1.363 . S
C524 C529 1.379 . S
C524 N531 1.356 . S
C525 C524 1.363 . S
C525 C528 1.363 . S
N526 C528 1.356 . S
N526 H538 0.984 . S
N526 H539 0.985 . S
N527 C529 1.356 . S
N527 H532 0.984 . S
N527 H533 0.985 . S
C528 C522 1.379 . S
C528 C525 1.363 . S
C528 N526 1.356 . S
C529 C523 1.363 . S
C529 C524 1.379 . S
C529 N527 1.356 . S
N530 C522 1.356 . S
N530 H536 0.984 . S
N530 H537 0.984 . S
N531 C524 1.356 . S
N531 H534 0.984 . S
N531 H535 0.985 . S
H532 N527 0.984 . S
H533 N527 0.985 . S
H534 N531 0.984 . S
H535 N531 0.985 . S
H536 N530 0.984 . S
H537 N530 0.984 . S
H538 N526 0.984 . S
H539 N526 0.985 . S
C540 C541 1.363 . S
C540 C546 1.379 . S
C540 N548 1.356 . S
C541 C540 1.363 . S
C541 C547 1.363 . S
C542 C543 1.363 . S
C542 C547 1.379 . S
C542 N549 1.356 . S
C543 C542 1.363 . S
C543 C546 1.363 . S
N544 C546 1.356 . S
N544 H556 0.984 . S
N544 H557 0.985 . S
N545 C547 1.356 . S
N545 H550 0.984 . S
N545 H551 0.985 . S
C546 C540 1.379 . S
C546 C543 1.363 . S
C546 N544 1.356 . S
C547 C541 1.363 . S
C547 C542 1.379 . S
C547 N545 1.356 . S
N548 C540 1.356 . S
N548 H554 0.984 . S
N548 H555 0.984 . S
N549 C542 1.356 . S
N549 H552 0.984 . S
N549 H553 0.985 . S
H550 N545 0.984 . S
H551 N545 0.985 . S
H552 N549 0.984 . S
H553 N549 0.985 . S
H554 N548 0.984 . S
H555 N548 0.984 . S
H556 N544 0.984 . S
H557 N544 0.985 . S
C558 C559 1.363 . S
C558 C564 1.379 . S
C558 N566 1.356 . S
C559 C558 1.363 . S
C559 C565 1.358 1_556 S
C560 C561 1.363 . S
C560 C565 1.372 1_556 S
C560 N567 1.356 . S
C561 C560 1.363 . S
C561 C564 1.363 . S
N562 C564 1.356 . S
N562 H574 0.984 . S
N562 H575 0.985 . S
N563 C565 1.368 . S
N563 H568 0.984 . S
N563 H569 0.985 . S
C564 C558 1.379 . S
C564 C561 1.363 . S
C564 N562 1.356 . S
C565 C559 1.358 1_554 S
C565 C560 1.372 1_554 S
C565 N563 1.368 . S
N566 C558 1.356 . S
N566 H572 0.984 . S
N566 H573 0.984 . S
N567 C560 1.356 . S
N567 H570 0.984 . S
N567 H571 0.985 1_556 S
H568 N563 0.984 . S
H569 N563 0.985 . S
H570 N567 0.984 . S
H571 N567 0.985 1_554 S
H572 N566 0.984 . S
H573 N566 0.984 . S
H574 N562 0.984 . S
H575 N562 0.985 . S
C576 C577 1.363 . S
C576 C582 1.379 . S
C576 N584 1.356 . S
C577 C576 1.363 . S
C577 C583 1.363 . S
C578 C579 1.363 . S
C578 C583 1.379 . S
C578 N585 1.356 1_556 S
C579 C578 1.363 . S
C579 C582 1.363 . S
N580 C582 1.356 . S
N580 H592 0.984 . S
N580 H593 0.985 . S
N581 C583 1.356 . S
N581 H586 0.984 . S
N581 H587 0.985 . S
C582 C576 1.379 . S
C582 C579 1.363 . S
C582 N580 1.356 . S
C583 C577 1.363 . S
C583 C578 1.379 . S
C583 N581 1.356 . S
N584 C576 1.356 . S
N584 H590 0.984 . S
N584 H591 0.984 . S
N585 C578 1.356 1_554 S
N585 H588 0.984 . S
N585 H589 0.985 . S
H586 N581 0.984 . S
H587 N581 0.985 . S
H588 N585 0.984 . S
H589 N585 0.985 . S
H590 N584 0.984 . S
H591 N584 0.984 . S
H592 N580 0.984 . S
H593 N580 0.985 . S
C594 C595 1.363 . S
C594 C600 1.379 . S
C594 N602 1.356 . S
C595 C594 1.363 . S
C595 C601 1.363 . S
C596 C597 1.363 . S
C596 C601 1.379 . S
C596 N603 1.356 1_556 S
C597 C596 1.363 . S
C597 C600 1.363 . S
N598 C600 1.356 . S
N598 H610 0.984 . S
N598 H611 0.985 . S
N599 C601 1.356 . S
N599 H604 0.984 . S
N599 H605 0.985 1_556 S
C600 C594 1.379 . S
C600 C597 1.363 . S
C600 N598 1.356 . S
C601 C595 1.363 . S
C601 C596 1.379 . S
C601 N599 1.356 . S
N602 C594 1.356 . S
N602 H608 0.984 . S
N602 H609 0.984 . S
N603 C596 1.356 1_554 S
N603 H606 0.984 . S
N603 H607 0.985 . S
H604 N599 0.984 . S
H605 N599 0.985 1_554 S
H606 N603 0.984 . S
H607 N603 0.985 . S
H608 N602 0.984 . S
H609 N602 0.984 . S
H610 N598 0.984 . S
H611 N598 0.985 . S
C612 C613 1.363 . S
C612 C618 1.379 . S
C612 N620 1.356 . S
C613 C612 1.363 . S
C613 C619 1.363 . S
C614 C615 1.363 . S
C614 C619 1.379 . S
C614 N621 1.356 . S
C615 C614 1.363 . S
C615 C618 1.363 . S
N616 C618 1.356 . S
N616 H628 0.984 . S
N616 H629 0.985 . S
N617 C619 1.356 . S
N617 H622 0.984 . S
N617 H623 0.985 . S
C618 C612 1.379 . S
C618 C615 1.363 . S
C618 N616 1.356 . S
C619 C613 1.363 . S
C619 C614 1.379 . S
C619 N617 1.356 . S
N620 C612 1.356 . S
N620 H626 0.984 1_545 S
N620 H627 0.984 . S
N621 C614 1.356 . S
N621 H624 0.984 . S
N621 H625 0.985 . S
H622 N617 0.984 . S
H623 N617 0.985 . S
H624 N621 0.984 . S
H625 N621 0.985 . S
H626 N620 0.984 1_565 S
H627 N620 0.984 . S
H628 N616 0.984 . S
H629 N616 0.985 . S
C630 C631 1.363 . S
C630 C636 1.379 . S
C630 N638 1.356 . S
C631 C630 1.363 . S
C631 C637 1.363 . S
C632 C633 1.363 . S
C632 C637 1.379 . S
C632 N639 1.356 . S
C633 C632 1.363 . S
C633 C636 1.363 . S
N634 C636 1.356 . S
N634 H646 0.984 . S
N634 H647 0.985 . S
N635 C637 1.356 . S
N635 H640 0.984 . S
N635 H641 0.985 . S
C636 C630 1.379 . S
C636 C633 1.363 . S
C636 N634 1.356 . S
C637 C631 1.363 . S
C637 C632 1.379 . S
C637 N635 1.356 . S
N638 C630 1.356 . S
N638 H644 0.984 . S
N638 H645 0.984 . S
N639 C632 1.356 . S
N639 H642 0.984 . S
N639 H643 0.985 . S
H640 N635 0.984 . S
H641 N635 0.985 . S
H642 N639 0.984 . S
H643 N639 0.985 . S
H644 N638 0.984 . S
H645 N638 0.984 . S
H646 N634 0.984 . S
H647 N634 0.985 . S
C648 C649 1.363 . S
C648 C654 1.379 . S
C648 N656 1.356 . S
C649 C648 1.363 . S
C649 C655 1.363 . S
C650 C651 1.363 . S
C650 C655 1.379 . S
C650 N657 1.356 . S
C651 C650 1.363 . S
C651 C654 1.363 . S
N652 C654 1.356 . S
N652 H664 0.984 . S
N652 H665 0.985 . S
N653 C655 1.356 . S
N653 H658 0.984 . S
N653 H659 0.985 . S
C654 C648 1.379 . S
C654 C651 1.363 . S
C654 N652 1.356 . S
C655 C649 1.363 . S
C655 C650 1.379 . S
C655 N653 1.356 . S
N656 C648 1.356 . S
N656 H662 0.984 . S
N656 H663 0.984 . S
N657 C650 1.356 . S
N657 H660 0.984 . S
N657 H661 0.985 . S
H658 N653 0.984 . S
H659 N653 0.985 . S
H660 N657 0.984 . S
H661 N657 0.985 . S
H662 N656 0.984 . S
H663 N656 0.984 . S
H664 N652 0.984 . S
H665 N652 0.985 . S
C666 C667 1.363 . S
C666 C672 1.379 . S
C666 N674 1.356 . S
C667 C666 1.363 . S
C667 C673 1.363 . S
C668 C669 1.363 . S
C668 C673 1.379 . S
C668 N675 1.356 . S
C669 C668 1.363 . S
C669 C672 1.363 . S
N670 C672 1.356 1_556 S
N670 H682 0.984 . S
N670 H683 0.985 . S
N671 C673 1.356 . S
N671 H676 0.984 . S
N671 H677 0.985 . S
C672 C666 1.379 . S
C672 C669 1.363 . S
C672 N670 1.356 1_554 S
C673 C667 1.363 . S
C673 C668 1.379 . S
C673 N671 1.356 . S
N674 C666 1.356 . S
N674 H680 0.984 . S
N674 H681 0.984 . S
N675 C668 1.356 . S
N675 H678 0.984 . S
N675 H679 0.985 . S
H676 N671 0.984 . S
H677 N671 0.985 . S
H678 N675 0.984 . S
H679 N675 0.985 . S
H680 N674 0.984 . S
H681 N674 0.984 . S
H682 N670 0.984 . S
H683 N670 0.985 . S
C684 C685 1.363 . S
C684 C690 1.379 . S
C684 N692 1.356 . S
C685 C684 1.363 . S
C685 C691 1.363 . S
C686 C687 1.363 . S
C686 C691 1.379 . S
C686 N693 1.356 . S
C687 C686 1.363 . S
C687 C690 1.363 . S
N688 C690 1.360 . S
N688 H700 0.982 1_554 S
N688 H701 0.983 1_554 S
N689 C691 1.356 . S
N689 H694 0.984 . S
N689 H695 0.985 . S
C690 C684 1.379 . S
C690 C687 1.363 . S
C690 N688 1.360 . S
C691 C685 1.363 . S
C691 C686 1.379 . S
C691 N689 1.356 . S
N692 C684 1.356 . S
N692 H698 0.984 . S
N692 H699 0.984 . S
N693 C686 1.356 . S
N693 H696 0.984 . S
N693 H697 0.985 . S
H694 N689 0.984 . S
H695 N689 0.985 . S
H696 N693 0.984 . S
H697 N693 0.985 . S
H698 N692 0.984 . S
H699 N692 0.984 . S
H700 N688 0.982 1_556 S
H701 N688 0.983 1_556 S
C702 C703 1.363 . S
C702 C708 1.379 . S
C702 N710 1.356 . S
C703 C702 1.363 . S
C703 C709 1.363 . S
C704 C705 1.363 . S
C704 C709 1.379 . S
C704 N711 1.356 . S
C705 C704 1.363 . S
C705 C708 1.363 . S
N706 C708 1.356 . S
N706 H718 0.984 . S
N706 H719 0.985 . S
N707 C709 1.356 . S
N707 H712 0.984 . S
N707 H713 0.985 . S
C708 C702 1.379 . S
C708 C705 1.363 . S
C708 N706 1.356 . S
C709 C703 1.363 . S
C709 C704 1.379 . S
C709 N707 1.356 . S
N710 C702 1.356 . S
N710 H716 0.984 . S
N710 H717 0.984 . S
N711 C704 1.356 . S
N711 H714 0.984 . S
N711 H715 0.985 . S
H712 N707 0.984 . S
H713 N707 0.985 . S
H714 N711 0.984 . S
H715 N711 0.985 . S
H716 N710 0.984 . S
H717 N710 0.984 . S
H718 N706 0.984 . S
H719 N706 0.985 . S
C720 C721 1.363 . S
C720 C726 1.379 . S
C720 N728 1.356 . S
C721 C720 1.363 . S
C721 C727 1.363 . S
C722 C723 1.363 . S
C722 C727 1.379 . S
C722 N729 1.356 . S
C723 C722 1.363 . S
C723 C726 1.363 . S
N724 C726 1.356 . S
N724 H736 0.984 . S
N724 H737 0.985 . S
N725 C727 1.359 . S
N725 H730 0.982 1_565 S
N725 H731 0.984 1_565 S
C726 C720 1.379 . S
C726 C723 1.363 . S
C726 N724 1.356 . S
C727 C721 1.363 . S
C727 C722 1.379 . S
C727 N725 1.359 . S
N728 C720 1.356 . S
N728 H734 0.984 . S
N728 H735 0.984 . S
N729 C722 1.356 . S
N729 H732 0.984 . S
N729 H733 0.985 . S
H730 N725 0.982 1_545 S
H731 N725 0.984 1_545 S
H732 N729 0.984 . S
H733 N729 0.985 . S
H734 N728 0.984 . S
H735 N728 0.984 . S
H736 N724 0.984 . S
H737 N724 0.985 . S
C738 C739 1.363 . S
C738 C744 1.379 . S
C738 N746 1.356 . S
C739 C738 1.363 . S
C739 C745 1.363 . S
C740 C741 1.363 . S
C740 C745 1.379 . S
C740 N747 1.356 . S
C741 C740 1.363 . S
C741 C744 1.363 . S
N742 C744 1.356 . S
N742 H754 0.984 . S
N742 H755 0.985 . S
N743 C745 1.356 . S
N743 H748 0.984 . S
N743 H749 0.985 . S
C744 C738 1.379 . S
C744 C741 1.363 . S
C744 N742 1.356 . S
C745 C739 1.363 . S
C745 C740 1.379 . S
C745 N743 1.356 . S
N746 C738 1.356 . S
N746 H752 0.984 . S
N746 H753 0.984 . S
N747 C740 1.356 . S
N747 H750 0.984 . S
N747 H751 0.985 . S
H748 N743 0.984 . S
H749 N743 0.985 . S
H750 N747 0.984 . S
H751 N747 0.985 . S
H752 N746 0.984 . S
H753 N746 0.984 . S
H754 N742 0.984 . S
H755 N742 0.985 . S
C756 C757 1.363 . S
C756 C762 1.379 . S
C756 N764 1.356 . S
C757 C756 1.363 . S
C757 C763 1.363 . S
C758 C759 1.363 . S
C758 C763 1.379 . S
C758 N765 1.356 . S
C759 C758 1.363 . S
C759 C762 1.363 . S
N760 C762 1.356 . S
N760 H772 0.984 . S
N760 H773 0.985 . S
N761 C763 1.356 . S
N761 H766 0.984 . S
N761 H767 0.985 . S
C762 C756 1.379 . S
C762 C759 1.363 . S
C762 N760 1.356 . S
C763 C757 1.363 . S
C763 C758 1.379 . S
C763 N761 1.356 . S
N764 C756 1.356 . S
N764 H770 0.984 . S
N764 H771 0.984 . S
N765 C758 1.356 . S
N765 H768 0.984 . S
N765 H769 0.985 . S
H766 N761 0.984 . S
H767 N761 0.985 . S
H768 N765 0.984 . S
H769 N765 0.985 . S
H770 N764 0.984 . S
H771 N764 0.984 . S
H772 N760 0.984 . S
H773 N760 0.985 . S
C774 C775 1.363 . S
C774 C780 1.379 . S
C774 N782 1.356 . S
C775 C774 1.363 . S
C775 C781 1.363 . S
C776 C777 1.363 . S
C776 C781 1.379 . S
C776 N783 1.356 . S
C777 C776 1.363 . S
C777 C780 1.363 . S
N778 C780 1.356 . S
N778 H790 0.984 . S
N778 H791 0.985 . S
N779 C781 1.356 . S
N779 H784 0.984 . S
N779 H785 0.985 . S
C780 C774 1.379 . S
C780 C777 1.363 . S
C780 N778 1.356 . S
C781 C775 1.363 . S
C781 C776 1.379 . S
C781 N779 1.356 . S
N782 C774 1.356 . S
N782 H788 0.984 . S
N782 H789 0.984 . S
N783 C776 1.356 . S
N783 H786 0.984 . S
N783 H787 0.985 . S
H784 N779 0.984 . S
H785 N779 0.985 . S
H786 N783 0.984 . S
H787 N783 0.985 . S
H788 N782 0.984 . S
H789 N782 0.984 . S
H790 N778 0.984 . S
H791 N778 0.985 . S
C792 C793 1.363 . S
C792 C798 1.379 . S
C792 N800 1.356 . S
C793 C792 1.363 . S
C793 C799 1.363 . S
C794 C795 1.363 . S
C794 C799 1.379 1_565 S
C794 N801 1.356 . S
C795 C794 1.363 . S
C795 C798 1.363 1_565 S
N796 C798 1.342 1_565 S
N796 H808 0.978 1_565 S
N796 H809 1.006 . S
N797 C799 1.356 . S
N797 H802 0.984 . S
N797 H803 0.985 . S
C798 C792 1.379 . S
C798 C795 1.363 1_545 S
C798 N796 1.342 1_545 S
C799 C793 1.363 . S
C799 C794 1.379 1_545 S
C799 N797 1.356 . S
N800 C792 1.356 . S
N800 H806 0.984 . S
N800 H807 0.984 . S
N801 C794 1.356 . S
N801 H804 0.984 . S
N801 H805 0.985 . S
H802 N797 0.984 . S
H803 N797 0.985 . S
H804 N801 0.984 . S
H805 N801 0.985 . S
H806 N800 0.984 . S
H807 N800 0.984 . S
H808 N796 0.978 1_545 S
H809 N796 1.006 . S
C810 C811 1.363 . S
C810 C816 1.379 1_455 S
C810 N818 1.356 . S
C811 C810 1.363 . S
C811 C817 1.363 . S
C812 C813 1.363 . S
C812 C817 1.379 1_655 S
C812 N819 1.356 . S
C813 C812 1.363 . S
C813 C816 1.363 . S
N814 C816 1.356 . S
N814 H826 0.984 1_655 S
N814 H827 0.985 . S
N815 C817 1.356 . S
N815 H820 0.984 . S
N815 H821 0.985 . S
C816 C810 1.379 1_655 S
C816 C813 1.363 . S
C816 N814 1.356 . S
C817 C811 1.363 . S
C817 C812 1.379 1_455 S
C817 N815 1.356 . S
N818 C810 1.356 . S
N818 H824 0.984 . S
N818 H825 0.984 . S
N819 C812 1.356 . S
N819 H822 0.984 . S
N819 H823 0.985 . S
H820 N815 0.984 . S
H821 N815 0.985 . S
H822 N819 0.984 . S
H823 N819 0.985 . S
H824 N818 0.984 . S
H825 N818 0.984 . S
H826 N814 0.984 1_455 S
H827 N814 0.985 . S
C828 C829 1.363 . S
C828 C834 1.379 . S
C828 N836 1.356 . S
C829 C828 1.363 . S
C829 C835 1.363 . S
C830 C831 1.363 . S
C830 C835 1.379 . S
C830 N837 1.356 . S
C831 C830 1.363 . S
C831 C834 1.363 . S
N832 C834 1.356 . S
N832 H844 0.984 . S
N832 H845 0.985 . S
N833 C835 1.356 . S
N833 H838 0.984 . S
N833 H839 0.985 . S
C834 C828 1.379 . S
C834 C831 1.363 . S
C834 N832 1.356 . S
C835 C829 1.363 . S
C835 C830 1.379 . S
C835 N833 1.356 . S
N836 C828 1.356 . S
N836 H842 0.984 . S
N836 H843 0.984 . S
N837 C830 1.356 . S
N837 H840 0.984 . S
N837 H841 0.985 . S
H838 N833 0.984 . S
H839 N833 0.985 . S
H840 N837 0.984 . S
H841 N837 0.985 . S
H842 N836 0.984 . S
H843 N836 0.984 . S
H844 N832 0.984 . S
H845 N832 0.985 . S
C846 C847 1.363 . S
C846 C852 1.379 1_545 S
C846 N854 1.356 . S
C847 C846 1.363 . S
C847 C853 1.363 . S
C848 C849 1.363 1_545 S
C848 C853 1.379 . S
C848 N855 1.356 . S
C849 C848 1.363 1_565 S
C849 C852 1.363 . S
N850 C852 1.356 . S
N850 H862 0.984 . S
N850 H863 0.985 . S
N851 C853 1.356 . S
N851 H856 0.984 . S
N851 H857 0.985 . S
C852 C846 1.379 1_565 S
C852 C849 1.363 . S
C852 N850 1.356 . S
C853 C847 1.363 . S
C853 C848 1.379 . S
C853 N851 1.356 . S
N854 C846 1.356 . S
N854 H860 0.984 . S
N854 H861 0.984 . S
N855 C848 1.356 . S
N855 H858 0.984 1_545 S
N855 H859 0.985 . S
H856 N851 0.984 . S
H857 N851 0.985 . S
H858 N855 0.984 1_565 S
H859 N855 0.985 . S
H860 N854 0.984 . S
H861 N854 0.984 . S
H862 N850 0.984 . S
H863 N850 0.985 . S
C864 C865 1.363 . S
C864 C870 1.379 1_455 S
C864 N872 1.356 . S
C865 C864 1.363 . S
C865 C871 1.363 . S
C866 C867 1.363 . S
C866 C871 1.379 1_655 S
C866 N873 1.356 . S
C867 C866 1.363 . S
C867 C870 1.363 . S
N868 C870 1.356 . S
N868 H880 0.984 . S
N868 H881 0.985 . S
N869 C871 1.356 . S
N869 H874 0.984 . S
N869 H875 0.985 . S
C870 C864 1.379 1_655 S
C870 C867 1.363 . S
C870 N868 1.356 . S
C871 C865 1.363 . S
C871 C866 1.379 1_455 S
C871 N869 1.356 . S
N872 C864 1.356 . S
N872 H878 0.984 . S
N872 H879 0.984 . S
N873 C866 1.356 . S
N873 H876 0.984 . S
N873 H877 0.985 . S
H874 N869 0.984 . S
H875 N869 0.985 . S
H876 N873 0.984 . S
H877 N873 0.985 . S
H878 N872 0.984 . S
H879 N872 0.984 . S
H880 N868 0.984 . S
H881 N868 0.985 . S
C235 C57 1.173 . S
C237 C10 1.178 . S
C253 C70 1.173 . S
C255 C23 1.178 . S
C271 C29 1.202 . S
C273 C44 1.170 . S
C289 C62 1.199 . S
C291 C5 1.192 . S
C307 C75 1.199 . S
C309 C18 1.192 . S
C325 C27 1.204 . S
C327 C49 1.206 . S
C343 C131 1.189 . S
C345 C83 1.168 . S
C361 C144 1.187 . S
C363 C94 1.181 . S
C379 C107 1.191 . S
C381 C127 1.183 . S
C397 C88 1.203 . S
C399 C133 1.183 1_554 S
C415 C146 1.182 1_554 S
C417 C92 1.187 . S
C433 C122 1.185 1_554 S
C435 C105 1.176 . S
C451 C209 1.189 . S
C453 C161 1.169 . S
C469 C172 1.183 . S
C471 C222 1.190 . S
C487 C205 1.186 . S
C489 C185 1.194 . S
C505 C211 1.184 . S
C507 C166 1.204 . S
C523 C224 1.185 . S
C525 C170 1.190 . S
C541 C183 1.179 . S
C543 C200 1.187 . S
C559 C1 1.575 1_556 S
C561 C118 1.582 . S
C577 C140 1.580 . S
C579 C14 1.578 1_556 S
C595 C153 1.570 . S
C597 C31 1.568 . S
C613 C42 1.558 . S
C615 C159 1.574 . S
C631 C174 1.568 . S
C633 C55 1.570 . S
C649 C187 1.569 . S
C651 C68 1.571 . S
C667 C198 1.571 . S
C669 C3 1.566 . S
C685 C213 1.570 . S
C687 C16 1.567 . S
C703 C226 1.581 . S
C705 C36 1.589 . S
C721 C40 1.589 . S
C723 C79 1.601 . S
C739 C53 1.586 . S
C741 C101 1.583 . S
C757 C114 1.583 . S
C759 C66 1.585 . S
C775 C196 1.579 . S
C777 C81 1.580 . S
C793 C218 1.575 . S
C795 C96 1.565 . S
C811 C109 1.573 . S
C813 C231 1.583 . S
C829 C157 1.583 . S
C831 C120 1.569 . S
C847 C179 1.581 . S
C849 C135 1.576 . S
C865 C148 1.570 . S
C867 C192 1.573 . S
