# Generated by pormake.
# Topology uoc, (4)-cn, num edge types: 1
# Building blocks:
#     Node 0, Type 0, BuildingBlock: QUQFOY_clean_sbu_3, # of connection points: 4
#     Node 1, Type 0, BuildingBlock: QUQFOY_clean_sbu_3, # of connection points: 4
#     Node 2, Type 0, BuildingBlock: QUQFOY_clean_sbu_3, # of connection points: 4
#     Node 3, Type 0, BuildingBlock: QUQFOY_clean_sbu_3, # of connection points: 4
#     Node 4, Type 0, BuildingBlock: QUQFOY_clean_sbu_3, # of connection points: 4
#     Node 5, Type 0, BuildingBlock: QUQFOY_clean_sbu_3, # of connection points: 4
#     Node 6, Type 0, BuildingBlock: QUQFOY_clean_sbu_3, # of connection points: 4
#     Node 7, Type 0, BuildingBlock: QUQFOY_clean_sbu_3, # of connection points: 4
#     Edge 8, Type (0, 0), BuildingBlock: TEMPAE_clean_linker_10, # of connection points: 2
#     Edge 9, Type (0, 0), BuildingBlock: TEMPAE_clean_linker_10, # of connection points: 2
#     Edge 10, Type (0, 0), BuildingBlock: TEMPAE_clean_linker_10, # of connection points: 2
#     Edge 11, Type (0, 0), BuildingBlock: TEMPAE_clean_linker_10, # of connection points: 2
#     Edge 12, Type (0, 0), BuildingBlock: TEMPAE_clean_linker_10, # of connection points: 2
#     Edge 13, Type (0, 0), BuildingBlock: TEMPAE_clean_linker_10, # of connection points: 2
#     Edge 14, Type (0, 0), BuildingBlock: TEMPAE_clean_linker_10, # of connection points: 2
#     Edge 15, Type (0, 0), BuildingBlock: TEMPAE_clean_linker_10, # of connection points: 2
#     Edge 16, Type (0, 0), BuildingBlock: TEMPAE_clean_linker_10, # of connection points: 2
#     Edge 17, Type (0, 0), BuildingBlock: TEMPAE_clean_linker_10, # of connection points: 2
#     Edge 18, Type (0, 0), BuildingBlock: TEMPAE_clean_linker_10, # of connection points: 2
#     Edge 19, Type (0, 0), BuildingBlock: TEMPAE_clean_linker_10, # of connection points: 2
#     Edge 20, Type (0, 0), BuildingBlock: TEMPAE_clean_linker_10, # of connection points: 2
#     Edge 21, Type (0, 0), BuildingBlock: TEMPAE_clean_linker_10, # of connection points: 2
#     Edge 22, Type (0, 0), BuildingBlock: TEMPAE_clean_linker_10, # of connection points: 2
#     Edge 23, Type (0, 0), BuildingBlock: TEMPAE_clean_linker_10, # of connection points: 2
# Relax obj value: 0.101
# Max RMSD: 0.113
# Mean RMSD: 0.113
data_MOF--net-uoc--node1-QUQFOY_clean_sbu_3--edge1-TEMPAE_clean_linker_10
_symmetry_space_group_name_H-M    P1
_symmetry_Int_Tables_number       1
_symmetry_cell_setting            triclinic
loop_
_symmetry_equiv_pos_as_xyz
'x, y, z'
_cell_length_a     27.543271
_cell_length_b     27.57992
_cell_length_c     56.90345
_cell_angle_alpha  90.111661
_cell_angle_beta   90.039145
_cell_angle_gamma 95.660857
loop_
_atom_site_label
_atom_site_type_symbol
_atom_site_fract_x
_atom_site_fract_y
_atom_site_fract_z
_atom_type_partial_charge
C0 C 0.23359 0.25779 0.06909 0.0
O1 O 0.25021 0.22831 0.08342 0.0
Cd2 Cd 0.21409 0.21336 0.12141 0.0
O3 O 0.19477 0.27752 0.07349 0.0
Cd4 Cd 0.13187 0.27829 0.10373 0.0
C5 C 0.10393 0.15574 0.10447 0.0
O6 O 0.19316 0.29165 0.13434 0.0
O7 O 0.11824 0.28374 0.14589 0.0
O8 O 0.12291 0.35707 0.08559 0.0
C9 C 0.16294 0.29295 0.15102 0.0
O10 O 0.1439 0.15318 0.11544 0.0
C11 C 0.07731 0.35542 0.08914 0.0
O12 O 0.0925 0.19633 0.09669 0.0
O13 O 0.05701 0.3175 0.09902 0.0
C14 C 0.7822 0.76463 0.40355 0.0
O15 O 0.75376 0.7791 0.38807 0.0
Cd16 Cd 0.73578 0.73587 0.35191 0.0
O17 O 0.80148 0.72493 0.40099 0.0
Cd18 Cd 0.80358 0.65746 0.3733 0.0
C19 C 0.68097 0.62827 0.37439 0.0
O20 O 0.80897 0.70616 0.33792 0.0
O21 O 0.79512 0.6281 0.33327 0.0
O22 O 0.89061 0.65445 0.37806 0.0
C23 C 0.80368 0.66991 0.32408 0.0
O24 O 0.67801 0.66668 0.36229 0.0
C25 C 0.88789 0.61157 0.3863 0.0
O26 O 0.72195 0.61763 0.38229 0.0
O27 O 0.84541 0.59001 0.38931 0.0
C28 C 0.23504 0.23022 0.56498 0.0
O29 O 0.21561 0.25879 0.57883 0.0
Cd30 Cd 0.25299 0.28042 0.61618 0.0
O31 O 0.27601 0.21514 0.56977 0.0
Cd32 Cd 0.339 0.22231 0.59992 0.0
C33 C 0.35837 0.34493 0.59782 0.0
O34 O 0.28179 0.20799 0.63258 0.0
O35 O 0.35757 0.22752 0.64132 0.0
O36 O 0.35167 0.14139 0.58543 0.0
C37 C 0.31481 0.21336 0.64817 0.0
O38 O 0.31849 0.34518 0.60911 0.0
C39 C 0.39771 0.14676 0.5876 0.0
O40 O 0.3725 0.3051 0.59037 0.0
O41 O 0.41669 0.1878 0.59497 0.0
C42 C 0.73169 0.73648 0.90532 0.0
O43 O 0.76309 0.71903 0.8923 0.0
Cd44 Cd 0.79097 0.75838 0.85638 0.0
O45 O 0.71615 0.77724 0.90066 0.0
Cd46 Cd 0.72711 0.84259 0.87183 0.0
C47 C 0.84996 0.8646 0.87755 0.0
O48 O 0.72291 0.78999 0.8375 0.0
O49 O 0.74302 0.86689 0.83153 0.0
O50 O 0.64097 0.85354 0.8724 0.0
C51 C 0.73181 0.8247 0.82305 0.0
O52 O 0.8524 0.8245 0.86669 0.0
C53 C 0.64568 0.89633 0.88081 0.0
O54 O 0.80882 0.87846 0.88337 0.0
O55 O 0.68875 0.91455 0.88556 0.0
C56 C 0.72893 0.75237 0.56978 0.0
O57 O 0.74491 0.72059 0.58306 0.0
Cd58 Cd 0.70728 0.69969 0.62022 0.0
O59 O 0.68987 0.77126 0.57461 0.0
Cd60 Cd 0.62559 0.76657 0.60432 0.0
C61 C 0.59736 0.64438 0.60154 0.0
O62 O 0.68516 0.77524 0.636 0.0
O63 O 0.60945 0.76539 0.64628 0.0
O64 O 0.6183 0.84817 0.58912 0.0
C65 C 0.65376 0.77368 0.65228 0.0
O66 O 0.63709 0.64074 0.61255 0.0
C67 C 0.57251 0.84637 0.59199 0.0
O68 O 0.58617 0.68569 0.59457 0.0
O69 O 0.55123 0.80709 0.60017 0.0
C70 C 0.25301 0.24092 0.90083 0.0
O71 O 0.22199 0.25537 0.88661 0.0
Cd72 Cd 0.19939 0.21324 0.85067 0.0
O73 O 0.27204 0.20138 0.89732 0.0
Cd74 Cd 0.26941 0.13413 0.86923 0.0
C75 C 0.14687 0.10525 0.87336 0.0
O76 O 0.27157 0.18495 0.83464 0.0
O77 O 0.25863 0.1072 0.82875 0.0
O78 O 0.35669 0.12989 0.87254 0.0
C79 C 0.26589 0.14974 0.82022 0.0
O80 O 0.14247 0.1439 0.86166 0.0
C81 C 0.35393 0.08685 0.88057 0.0
O82 O 0.1887 0.09452 0.88004 0.0
O83 O 0.31143 0.06562 0.8839 0.0
C84 C 0.73775 0.74041 0.07176 0.0
O85 O 0.72133 0.76837 0.08691 0.0
Cd86 Cd 0.76563 0.78789 0.12275 0.0
O87 O 0.7795 0.72512 0.07413 0.0
Cd88 Cd 0.84889 0.73041 0.10092 0.0
C89 C 0.86818 0.85329 0.10122 0.0
O90 O 0.79808 0.71461 0.13572 0.0
O91 O 0.8754 0.73196 0.14137 0.0
O92 O 0.85879 0.65018 0.08461 0.0
C93 C 0.83378 0.71873 0.14989 0.0
O94 O 0.83016 0.85249 0.11399 0.0
C95 C 0.90506 0.6558 0.08462 0.0
O96 O 0.88096 0.81418 0.09223 0.0
O97 O 0.92521 0.69675 0.09149 0.0
C98 C 0.26553 0.25789 0.39922 0.0
O99 O 0.29667 0.24198 0.38553 0.0
Cd100 Cd 0.32229 0.28526 0.35029 0.0
O101 O 0.24956 0.29896 0.39581 0.0
Cd102 Cd 0.25825 0.36761 0.3687 0.0
C103 C 0.38153 0.38995 0.37297 0.0
O104 O 0.25155 0.31684 0.33391 0.0
O105 O 0.26838 0.39425 0.32818 0.0
O106 O 0.17211 0.37737 0.37222 0.0
C107 C 0.25756 0.35208 0.31959 0.0
O108 O 0.38381 0.35082 0.36129 0.0
C109 C 0.17744 0.41976 0.38109 0.0
O110 O 0.34052 0.40301 0.3795 0.0
O111 O 0.2209 0.43828 0.38469 0.0
C112 C 0.26122 0.22474 0.03171 0.0
C113 C 0.25541 0.26521 0.04581 0.0
C114 C 0.26966 0.23035 0.00758 0.0
C115 C 0.27432 0.27781 -0.00225 0.0
C116 C 0.27393 0.31905 0.01252 0.0
C117 C 0.26305 0.3122 0.0364 0.0
C118 C 0.26886 0.18526 -0.00761 0.0
C119 C 0.28162 0.37022 0.00296 0.0
C120 C 0.30755 0.26859 0.93396 0.0
C121 C 0.26112 0.26486 0.92368 0.0
C122 C 0.31347 0.279 0.95795 0.0
C123 C 0.27163 0.28302 0.97192 0.0
C124 C 0.22523 0.28335 0.96116 0.0
C125 C 0.22075 0.2752 0.93695 0.0
C126 C 0.36386 0.28168 0.96859 0.0
C127 C 0.1795 0.28682 0.97548 0.0
H128 H 0.2549 0.18848 0.03915 0.0
H129 H 0.25882 0.34345 0.04754 0.0
H130 H 0.23701 0.1835 0.98034 0.0
H131 H 0.30215 0.18667 0.98139 0.0
H132 H 0.26646 0.15125 0.00293 0.0
H133 H 0.29496 0.3966 0.01685 0.0
H134 H 0.30811 0.37271 -0.01179 0.0
H135 H 0.24651 0.38118 -0.00374 0.0
H136 H 0.33883 0.26101 0.92348 0.0
H137 H 0.18487 0.27202 0.92889 0.0
H138 H 0.37002 0.24582 0.97622 0.0
H139 H 0.36795 0.30915 0.98292 0.0
H140 H 0.39251 0.291 0.95516 0.0
H141 H 0.173 0.2542 -0.01312 0.0
H142 H 0.14679 0.28913 0.96426 0.0
H143 H 0.18374 0.31923 -0.0129 0.0
C144 C 0.80736 0.72308 0.28868 0.0
C145 C 0.80503 0.67628 0.29841 0.0
C146 C 0.8096 0.72972 0.26431 0.0
C147 C 0.80991 0.68857 0.24946 0.0
C148 C 0.80693 0.6412 0.25916 0.0
C149 C 0.80435 0.6356 0.28358 0.0
C150 C 0.81243 0.78076 0.25448 0.0
C151 C 0.80753 0.59657 0.24377 0.0
C152 C 0.78043 0.70296 0.18501 0.0
C153 C 0.82728 0.71012 0.17525 0.0
C154 C 0.77411 0.69573 0.20922 0.0
C155 C 0.81566 0.69531 0.22382 0.0
C156 C 0.863 0.70194 0.21401 0.0
C157 C 0.86824 0.70946 0.18982 0.0
C158 C 0.72312 0.68904 0.21922 0.0
C159 C 0.90812 0.70131 0.22909 0.0
H160 H 0.80758 0.7546 0.30011 0.0
H161 H 0.80255 0.59935 0.29107 0.0
H162 H 0.84761 0.78925 0.24517 0.0
H163 H 0.78288 0.78362 0.24145 0.0
H164 H 0.8094 0.80864 0.26839 0.0
H165 H 0.80316 0.56223 0.25406 0.0
H166 H 0.77785 0.59558 0.23054 0.0
H167 H 0.84252 0.59812 0.23401 0.0
H168 H 0.7487 0.70354 0.17377 0.0
H169 H 0.90453 0.71474 0.18231 0.0
H170 H 0.71827 0.71823 0.23221 0.0
H171 H 0.7173 0.65378 0.22865 0.0
H172 H 0.69468 0.68986 0.20541 0.0
H173 H 0.90925 0.73093 0.24236 0.0
H174 H 0.94225 0.706 0.2186 0.0
H175 H 0.90708 0.66636 0.23879 0.0
C176 C 0.21895 0.17471 0.53099 0.0
C177 C 0.21511 0.22025 0.5414 0.0
C178 C 0.21509 0.16888 0.50659 0.0
C179 C 0.20968 0.21013 0.4925 0.0
C180 C 0.20034 0.25477 0.50318 0.0
C181 C 0.20238 0.25902 0.5277 0.0
C182 C 0.22172 0.11992 0.49585 0.0
C183 C 0.19435 0.29971 0.48877 0.0
C184 C 0.28793 0.23165 0.43859 0.0
C185 C 0.2524 0.23276 0.42118 0.0
C186 C 0.27453 0.22137 0.46188 0.0
C187 C 0.22448 0.21017 0.4675 0.0
C188 C 0.18909 0.20606 0.4494 0.0
C189 C 0.20337 0.21886 0.42641 0.0
C190 C 0.31349 0.22706 0.48069 0.0
C191 C 0.13586 0.19153 0.45438 0.0
H192 H 0.22813 0.14452 0.54177 0.0
H193 H 0.19943 0.29418 0.53586 0.0
H194 H 0.19848 0.11328 0.47999 0.0
H195 H 0.26027 0.11901 0.49039 0.0
H196 H 0.21274 0.08992 0.50859 0.0
H197 H 0.18346 0.33026 0.49969 0.0
H198 H 0.22936 0.31185 0.47992 0.0
H199 H 0.16648 0.29155 0.4749 0.0
H200 H 0.32572 0.2431 0.43435 0.0
H201 H 0.17603 0.21991 0.41274 0.0
H202 H 0.31283 0.19341 0.49134 0.0
H203 H 0.30632 0.25725 0.49274 0.0
H204 H 0.35067 0.23507 0.47323 0.0
H205 H 0.13095 0.16655 0.46966 0.0
H206 H 0.11746 0.17349 0.43884 0.0
H207 H 0.11739 0.22455 0.45836 0.0
C208 C 0.71869 0.76932 0.78852 0.0
C209 C 0.72679 0.81674 0.79754 0.0
C210 C 0.71015 0.76133 0.7645 0.0
C211 C 0.70933 0.80177 0.74931 0.0
C212 C 0.71899 0.84969 0.7582 0.0
C213 C 0.72784 0.85661 0.78226 0.0
C214 C 0.70049 0.70971 0.75551 0.0
C215 C 0.71814 0.89365 0.74247 0.0
C216 C 0.71743 0.78296 0.68357 0.0
C217 C 0.66813 0.78041 0.67708 0.0
C218 C 0.73148 0.78956 0.70711 0.0
C219 C 0.69533 0.79408 0.7244 0.0
C220 C 0.64554 0.79156 0.71794 0.0
C221 C 0.6325 0.78454 0.69432 0.0
C222 C 0.78488 0.79172 0.7135 0.0
C223 C 0.60605 0.79659 0.73595 0.0
H224 H 0.71822 0.73841 0.80028 0.0
H225 H 0.73415 0.89333 0.78918 0.0
H226 H 0.66236 0.70333 0.74907 0.0
H227 H 0.72477 0.70379 0.74044 0.0
H228 H 0.70608 0.68234 0.76929 0.0
H229 H 0.72916 0.9283 0.7519 0.0
H230 H 0.7429 0.89073 0.72727 0.0
H231 H 0.68081 0.89522 0.73534 0.0
H232 H 0.74505 0.7796 0.67027 0.0
H233 H 0.59436 0.78272 0.68934 0.0
H234 H 0.7907 0.76296 0.72653 0.0
H235 H 0.79688 0.82728 0.72184 0.0
H236 H 0.80834 0.78687 0.69796 0.0
H237 H 0.60679 0.76775 0.74947 0.0
H238 H 0.56906 0.79398 0.72797 0.0
H239 H 0.61272 0.83221 0.74509 0.0
C240 C 0.24735 0.38442 0.27918 0.0
C241 C 0.24931 0.34449 0.29422 0.0
C242 C 0.2356 0.37749 0.25537 0.0
C243 C 0.22599 0.32954 0.24651 0.0
C244 C 0.22951 0.28911 0.26145 0.0
C245 C 0.24102 0.29709 0.28519 0.0
C246 C 0.23199 0.4214 0.23988 0.0
C247 C 0.21984 0.23744 0.2525 0.0
C248 C 0.14484 0.30793 0.19313 0.0
C249 C 0.17917 0.30314 0.17534 0.0
C250 C 0.15971 0.31722 0.21637 0.0
C251 C 0.21006 0.3215 0.22187 0.0
C252 C 0.24493 0.31699 0.20398 0.0
C253 C 0.22904 0.30796 0.18085 0.0
C254 C 0.12154 0.32206 0.23506 0.0
C255 C 0.29891 0.32114 0.20931 0.0
H256 H 0.25373 0.42113 0.28612 0.0
H257 H 0.24279 0.26612 0.29675 0.0
H258 H 0.25542 0.41928 0.22414 0.0
H259 H 0.1939 0.42195 0.23359 0.0
H260 H 0.24294 0.45617 0.24922 0.0
H261 H 0.22674 0.21012 0.26612 0.0
H262 H 0.18134 0.23058 0.24666 0.0
H263 H 0.24321 0.23189 0.23705 0.0
H264 H 0.10626 0.30441 0.18891 0.0
H265 H 0.2557 0.30425 0.16713 0.0
H266 H 0.12854 0.35774 0.24411 0.0
H267 H 0.12359 0.29331 0.24854 0.0
H268 H 0.08397 0.31901 0.22773 0.0
H269 H 0.31028 0.35676 0.21774 0.0
H270 H 0.32131 0.31762 0.19329 0.0
H271 H 0.3069 0.29236 0.22194 0.0
C272 C 0.76026 0.72763 0.53146 0.0
C273 C 0.75279 0.76475 0.54735 0.0
C274 C 0.77286 0.73866 0.50813 0.0
C275 C 0.78009 0.78813 0.501 0.0
C276 C 0.77717 0.82579 0.51769 0.0
C277 C 0.76213 0.81359 0.54063 0.0
C278 C 0.77456 0.69729 0.49078 0.0
C279 C 0.78716 0.87885 0.51118 0.0
C280 C 0.82909 0.78952 0.43954 0.0
C281 C 0.78551 0.78781 0.42675 0.0
C282 C 0.82912 0.79656 0.46393 0.0
C283 C 0.78418 0.79928 0.4756 0.0
C284 C 0.74101 0.80273 0.46241 0.0
C285 C 0.74246 0.79788 0.43795 0.0
C286 C 0.87636 0.79635 0.47734 0.0
C287 C 0.69222 0.80539 0.4742 0.0
H288 H 0.75258 0.68994 0.53682 0.0
H289 H 0.75653 0.8422 0.55315 0.0
H290 H 0.74627 0.69979 0.47704 0.0
H291 H 0.81045 0.69975 0.48185 0.0
H292 H 0.76827 0.661 0.4993 0.0
H293 H 0.80014 0.90111 0.52666 0.0
H294 H 0.81476 0.8843 0.49699 0.0
H295 H 0.75297 0.89264 0.50491 0.0
H296 H 0.86252 0.78231 0.43071 0.0
H297 H 0.7088 0.79644 0.42796 0.0
H298 H 0.87957 0.75935 0.48441 0.0
H299 H 0.87738 0.82202 0.49243 0.0
H300 H 0.90838 0.80641 0.46587 0.0
H301 H 0.6817 0.77078 0.48366 0.0
H302 H 0.66295 0.81144 0.46141 0.0
H303 H 0.69447 0.83521 0.48734 0.0
C304 C 0.34284 0.20362 0.68925 0.0
C305 C 0.3043 0.20359 0.67316 0.0
C306 C 0.33388 0.19399 0.71305 0.0
C307 C 0.28518 0.18451 0.72092 0.0
C308 C 0.24605 0.18455 0.70481 0.0
C309 C 0.25611 0.19392 0.68102 0.0
C310 C 0.37655 0.19392 0.72976 0.0
C311 C 0.19368 0.17494 0.71275 0.0
C312 C 0.26932 0.11897 0.77912 0.0
C313 C 0.26722 0.15812 0.79469 0.0
C314 C 0.27372 0.12688 0.75488 0.0
C315 C 0.27559 0.17501 0.74614 0.0
C316 C 0.27169 0.21448 0.7617 0.0
C317 C 0.26779 0.20556 0.78585 0.0
C318 C 0.27816 0.08401 0.73874 0.0
C319 C 0.27315 0.26625 0.7529 0.0
H320 H 0.38017 0.21088 0.68323 0.0
H321 H 0.22624 0.19397 0.66861 0.0
H322 H 0.37402 0.22202 0.74356 0.0
H323 H 0.37561 0.15815 0.73873 0.0
H324 H 0.41222 0.20122 0.72069 0.0
H325 H 0.16747 0.17628 0.69797 0.0
H326 H 0.18774 0.13861 0.72117 0.0
H327 H 0.18553 0.20231 0.72613 0.0
H328 H 0.26885 0.08223 0.78592 0.0
H329 H 0.26574 0.23588 0.79785 0.0
H330 H 0.31479 0.08741 0.73044 0.0
H331 H 0.25086 0.08362 0.72438 0.0
H332 H 0.27299 0.04866 0.74818 0.0
H333 H 0.30955 0.27761 0.74528 0.0
H334 H 0.26591 0.29228 0.7671 0.0
H335 H 0.24582 0.26877 0.73874 0.0
C336 C 0.70239 0.68255 0.04161 0.0
C337 C 0.71246 0.73063 0.04945 0.0
C338 C 0.6919 0.6726 0.01789 0.0
C339 C 0.69451 0.71165 0.00173 0.0
C340 C 0.70062 0.76043 0.01002 0.0
C341 C 0.70865 0.76928 0.034 0.0
C342 C 0.68226 0.62031 0.00997 0.0
C343 C 0.70432 0.80325 -0.00664 0.0
C344 C 0.75653 0.70388 0.94325 0.0
C345 C 0.719 0.71456 0.92819 0.0
C346 C 0.74808 0.69873 0.9674 0.0
C347 C 0.70049 0.70245 0.9763 0.0
C348 C 0.66126 0.70645 0.96063 0.0
C349 C 0.67122 0.71387 0.93669 0.0
C350 C 0.79117 0.69499 0.98353 0.0
C351 C 0.60956 0.7071 0.96926 0.0
H352 H 0.70532 0.65275 0.05378 0.0
H353 H 0.71698 0.80637 0.04024 0.0
H354 H 0.6575 0.61692 -0.00547 0.0
H355 H 0.71715 0.60629 0.00489 0.0
H356 H 0.66591 0.59691 0.02436 0.0
H357 H 0.70685 0.83873 0.00279 0.0
H358 H 0.73723 0.80231 0.98218 0.0
H359 H 0.6722 0.80123 0.98155 0.0
H360 H 0.79346 0.70468 0.93655 0.0
H361 H 0.64215 0.72169 0.92484 0.0
H362 H 0.78386 0.66385 -0.00429 0.0
H363 H 0.79733 0.72857 -0.00564 0.0
H364 H 0.82522 0.69025 0.97369 0.0
H365 H 0.60255 0.68312 0.98478 0.0
H366 H 0.58286 0.69526 0.95524 0.0
H367 H 0.60324 0.74471 0.97452 0.0
C368 C 0.03026 0.11084 0.08574 0.0
C369 C 0.0698 0.11122 0.10133 0.0
C370 C 0.9967 0.06938 0.08333 0.0
C371 C 0.00248 0.02764 0.09709 0.0
C372 C 0.04272 0.02754 0.11257 0.0
C373 C 0.07605 0.06921 0.11439 0.0
C374 C 0.95463 0.0705 0.06638 0.0
C375 C 0.04985 0.98387 0.12772 0.0
C376 C 0.89261 0.93986 0.11252 0.0
C377 C 0.89973 0.89957 0.09829 0.0
C378 C 0.92507 0.98229 0.11181 0.0
C379 C 0.96531 0.98479 0.09626 0.0
C380 C 0.97154 0.94516 0.08108 0.0
C381 C 0.93883 0.90285 0.08238 0.0
C382 C 0.91742 0.02366 0.12841 0.0
C383 C 0.01361 0.94686 0.06401 0.0
H384 H 0.02539 0.14303 0.07544 0.0
H385 H 0.10643 0.0692 0.12651 0.0
H386 H 0.95343 0.03891 0.05422 0.0
H387 H 0.91969 0.06746 0.07621 0.0
H388 H 0.95713 0.10452 0.05584 0.0
H389 H 0.08373 0.98921 0.13841 0.0
H390 H 0.01832 0.97656 0.13976 0.0
H391 H 0.05146 0.95102 0.11658 0.0
H392 H 0.86256 0.9377 0.12489 0.0
H393 H 0.94441 0.87203 0.07119 0.0
H394 H 0.91658 0.05818 0.11852 0.0
H395 H 0.94836 0.02884 0.14097 0.0
H396 H 0.883 0.01695 0.13859 0.0
H397 H 0.01528 0.98064 0.05337 0.0
H398 H 0.01077 0.91497 0.05196 0.0
H399 H 0.04846 0.94755 0.07385 0.0
C400 C 0.13746 0.48519 0.40201 0.0
C401 C 0.13491 0.44696 0.38565 0.0
C402 C 0.09746 0.51229 0.40555 0.0
C403 C 0.05477 0.5018 0.39183 0.0
C404 C 0.05193 0.46278 0.37553 0.0
C405 C 0.09178 0.4354 0.37291 0.0
C406 C 0.10117 0.55264 0.42361 0.0
C407 C 0.00756 0.45117 0.36013 0.0
C408 C 0.9317 0.54645 0.40515 0.0
C409 C 0.93223 0.58667 0.39012 0.0
C410 C 0.9727 0.52016 0.40709 0.0
C411 C 0.01431 0.53356 0.39306 0.0
C412 C 0.0154 0.57501 0.37837 0.0
C413 C 0.97459 0.60148 0.37736 0.0
C414 C 0.97086 0.47713 0.42353 0.0
C415 C 0.05851 0.58978 0.36266 0.0
H416 H 0.17067 0.49384 0.41204 0.0
H417 H 0.08981 0.40599 0.36016 0.0
H418 H 0.10191 0.58842 0.41469 0.0
H419 H 0.06872 0.54908 0.43526 0.0
H420 H 0.13453 0.55259 0.43459 0.0
H421 H 0.01093 0.41915 0.34858 0.0
H422 H 0.97444 0.44373 0.37111 0.0
H423 H 0.00205 0.48304 0.3489 0.0
H424 H 0.89909 0.53523 0.41519 0.0
H425 H 0.97501 0.63244 0.36562 0.0
H426 H 0.00471 0.47858 0.4342 0.0
H427 H 0.96847 0.44286 0.41318 0.0
H428 H 0.93897 0.47572 0.43554 0.0
H429 H 0.09263 0.59457 0.37312 0.0
H430 H 0.05445 0.62418 0.35305 0.0
H431 H 0.06267 0.56053 0.3496 0.0
C432 C 0.42952 0.39352 0.57897 0.0
C433 C 0.39018 0.39096 0.59472 0.0
C434 C 0.4624 0.43566 0.57745 0.0
C435 C 0.4562 0.47578 0.59232 0.0
C436 C 0.41566 0.47402 0.60768 0.0
C437 C 0.38293 0.43178 0.60855 0.0
C438 C 0.50468 0.43659 0.56053 0.0
C439 C 0.4081 0.51587 0.624 0.0
C440 C 0.56793 0.5581 0.61095 0.0
C441 C 0.56284 0.60036 0.59788 0.0
C442 C 0.53385 0.51708 0.60899 0.0
C443 C 0.49407 0.51801 0.59329 0.0
C444 C 0.48954 0.55992 0.57945 0.0
C445 C 0.52378 0.60082 0.58206 0.0
C446 C 0.53963 0.47327 0.62427 0.0
C447 C 0.44807 0.56184 0.56222 0.0
H448 H 0.43509 0.36229 0.56806 0.0
H449 H 0.35267 0.4301 0.62079 0.0
H450 H 0.50718 0.47041 0.54989 0.0
H451 H 0.53931 0.43659 0.5705 0.0
H452 H 0.50143 0.4047 0.54848 0.0
H453 H 0.37327 0.50988 0.63389 0.0
H454 H 0.43861 0.52074 0.63681 0.0
H455 H 0.40821 0.55029 0.61395 0.0
H456 H 0.59788 0.55748 0.62328 0.0
H457 H 0.51981 0.63323 0.57177 0.0
H458 H 0.54103 0.44028 0.61321 0.0
H459 H 0.50761 0.46658 0.63607 0.0
H460 H 0.57317 0.47803 0.63523 0.0
H461 H 0.44639 0.53002 0.55018 0.0
H462 H 0.45171 0.59572 0.55157 0.0
H463 H 0.4129 0.55983 0.57183 0.0
C464 C 0.56141 0.9124 0.8699 0.0
C465 C 0.60297 0.92408 0.88377 0.0
C466 C 0.52126 0.93971 0.87132 0.0
C467 C 0.52214 0.9788 0.88752 0.0
C468 C 0.56335 0.98973 0.90219 0.0
C469 C 0.60373 0.96265 0.89988 0.0
C470 C 0.47855 0.92766 0.85493 0.0
C471 C 0.56495 0.03026 0.92012 0.0
C472 C 0.44098 0.07716 0.87198 0.0
C473 C 0.3982 0.06176 0.88431 0.0
C474 C 0.48213 0.0512 0.8734 0.0
C475 C 0.48086 0.00963 0.88801 0.0
C476 C 0.43861 0.99539 0.90146 0.0
C477 C 0.3974 0.02124 0.89917 0.0
C478 C 0.52601 0.06687 0.85833 0.0
C479 C 0.43645 0.95207 0.91773 0.0
H480 H 0.56088 0.88277 0.85732 0.0
H481 H 0.63573 0.97143 0.91075 0.0
H482 H 0.44451 0.91944 0.86517 0.0
H483 H 0.47351 0.95959 0.84366 0.0
H484 H 0.48359 0.89598 0.84341 0.0
H485 H 0.59783 0.0314 0.9315 0.0
H486 H 0.56491 0.06585 0.91108 0.0
H487 H 0.53196 0.02575 0.9314 0.0
H488 H 0.44163 0.10836 0.86039 0.0
H489 H 0.36448 0.00957 0.90888 0.0
H490 H 0.53156 0.03785 0.84534 0.0
H491 H 0.5594 0.07218 0.8693 0.0
H492 H 0.52191 0.1012 0.84868 0.0
H493 H 0.43624 0.91807 0.90728 0.0
H494 H 0.40338 0.94937 0.929 0.0
H495 H 0.46925 0.95437 0.92918 0.0
C496 C 0.91441 0.57601 0.06525 0.0
C497 C 0.93381 0.6148 0.07942 0.0
C498 C 0.93858 0.5338 0.06289 0.0
C499 C 0.98208 0.52984 0.0757 0.0
C500 C 0.00279 0.56978 0.08925 0.0
C501 C 0.97873 0.61214 0.09064 0.0
C502 C 0.91641 0.49265 0.04758 0.0
C503 C 0.04852 0.5666 0.10361 0.0
C504 C 0.00921 0.40564 0.0973 0.0
C505 C 0.04994 0.39727 0.08374 0.0
C506 C 0.98608 0.44825 0.09445 0.0
C507 C 0.00322 0.48247 0.07708 0.0
C508 C 0.04261 0.47279 0.0624 0.0
C509 C 0.06615 0.43061 0.0662 0.0
C510 C 0.9449 0.45775 0.11083 0.0
C511 C 0.06068 0.50758 0.04315 0.0
H512 H 0.87983 0.57827 0.05641 0.0
H513 H 0.99359 0.64203 0.10172 0.0
H514 H 0.94483 0.47809 0.03652 0.0
H515 H 0.90027 0.46242 0.0588 0.0
H516 H 0.88731 0.50435 0.03596 0.0
H517 H 0.06129 0.60179 0.11219 0.0
H518 H 0.04139 0.53851 0.11745 0.0
H519 H 0.0783 0.55528 0.09239 0.0
H520 H 0.99686 0.37999 0.11096 0.0
H521 H 0.09745 0.42386 0.05557 0.0
H522 H 0.91184 0.46411 0.10061 0.0
H523 H 0.95533 0.49117 0.12129 0.0
H524 H 0.93546 0.42702 0.12312 0.0
H525 H 0.02963 0.51788 0.03244 0.0
H526 H 0.08716 0.49171 0.03138 0.0
H527 H 0.07879 0.5415 0.05101 0.0
C528 C 0.42737 0.46132 0.39327 0.0
C529 C 0.42691 0.42211 0.37749 0.0
C530 C 0.46923 0.49432 0.39601 0.0
C531 C 0.51118 0.48839 0.38234 0.0
C532 C 0.51146 0.44794 0.36702 0.0
C533 C 0.4695 0.41511 0.36494 0.0
C534 C 0.46795 0.5365 0.41287 0.0
C535 C 0.55523 0.44067 0.35189 0.0
C536 C 0.59473 0.59937 0.36441 0.0
C537 C 0.63638 0.5945 0.37808 0.0
C538 C 0.55331 0.56578 0.36614 0.0
C539 C 0.55312 0.5267 0.38222 0.0
C540 C 0.5942 0.52262 0.3968 0.0
C541 C 0.6356 0.55637 0.39441 0.0
C542 C 0.51049 0.57108 0.35005 0.0
C543 C 0.59487 0.48193 0.41446 0.0
H544 H 0.39476 0.46671 0.4032 0.0
H545 H 0.46953 0.38495 0.35269 0.0
H546 H 0.5009 0.5397 0.42421 0.0
H547 H 0.46808 0.57097 0.40285 0.0
H548 H 0.43503 0.53263 0.42424 0.0
H549 H 0.55065 0.40582 0.34195 0.0
H550 H 0.56125 0.47108 0.33915 0.0
H551 H 0.58856 0.44115 0.36287 0.0
H552 H 0.59496 0.62863 0.35171 0.0
H553 H 0.66748 0.5526 0.40517 0.0
H554 H 0.47659 0.57215 0.36045 0.0
H555 H 0.50504 0.53905 0.33816 0.0
H556 H 0.51574 0.60455 0.33914 0.0
H557 H 0.56159 0.47989 0.42553 0.0
H558 H 0.62746 0.48666 0.42605 0.0
H559 H 0.5948 0.44657 0.40513 0.0
C560 C 0.41057 0.06758 0.56854 0.0
C561 C 0.42716 0.10574 0.58371 0.0
C562 C 0.43552 0.02579 0.56673 0.0
C563 C 0.47694 0.02158 0.58104 0.0
C564 C 0.49469 0.06074 0.59583 0.0
C565 C 0.46994 0.10274 0.59671 0.0
C566 C 0.41654 0.98545 0.55017 0.0
C567 C 0.53807 0.05719 0.61177 0.0
C568 C 0.50356 0.89554 0.60032 0.0
C569 C 0.54583 0.88914 0.5875 0.0
C570 C 0.48042 0.93832 0.59812 0.0
C571 C 0.49923 0.97481 0.58217 0.0
C572 C 0.5406 0.96748 0.56835 0.0
C573 C 0.56396 0.92498 0.57148 0.0
C574 C 0.43704 0.94527 0.61357 0.0
C575 C 0.56068 0.0049 0.55064 0.0
H576 H 0.37766 0.07013 0.55833 0.0
H577 H 0.48258 0.13214 0.60856 0.0
H578 H 0.44681 0.97314 0.53955 0.0
H579 H 0.40046 0.95367 0.56042 0.0
H580 H 0.38816 0.99702 0.53809 0.0
H581 H 0.54857 0.09172 0.6214 0.0
H582 H 0.52938 0.02771 0.6248 0.0
H583 H 0.56994 0.04759 0.60148 0.0
H584 H 0.48976 0.86797 0.61284 0.0
H585 H 0.5965 0.91981 0.56144 0.0
H586 H 0.40509 0.95204 0.60262 0.0
H587 H 0.44545 0.97771 0.62498 0.0
H588 H 0.42679 0.91318 0.62493 0.0
H589 H 0.53108 0.01508 0.53895 0.0
H590 H 0.58993 0.9915 0.53967 0.0
H591 H 0.57586 0.0385 0.55986 0.0
C592 C 0.89576 0.93731 0.89679 0.0
C593 C 0.89531 0.89704 0.88166 0.0
C594 C 0.93747 0.97075 0.89888 0.0
C595 C 0.97919 0.96422 0.88515 0.0
C596 C 0.97954 0.92266 0.87056 0.0
C597 C 0.93779 0.88938 0.86916 0.0
C598 C 0.93619 0.01406 0.91505 0.0
C599 C 0.02303 0.91471 0.85536 0.0
C600 C 0.06054 0.07464 0.86464 0.0
C601 C 0.10289 0.07129 0.878 0.0
C602 C 0.0196 0.04074 0.8673 0.0
C603 C 0.02061 0.003 0.88406 0.0
C604 C 0.06242 0.00057 0.89834 0.0
C605 C 0.10336 0.03449 0.89496 0.0
C606 C 0.97603 0.04417 0.85145 0.0
C607 C 0.06434 0.96147 0.91674 0.0
H608 H 0.86324 0.94321 0.90669 0.0
H609 H 0.93782 0.8584 0.85741 0.0
H610 H 0.96965 0.0187 0.92603 0.0
H611 H 0.93519 0.04769 0.90447 0.0
H612 H 0.9038 0.01046 0.92677 0.0
H613 H 0.01862 0.87905 0.8461 0.0
H614 H 0.02828 0.94406 0.84202 0.0
H615 H 0.05671 0.9165 0.86614 0.0
H616 H 0.05988 0.10286 0.85144 0.0
H617 H 0.13582 0.03197 0.90549 0.0
H618 H 0.94251 0.04578 0.86209 0.0
H619 H 0.97046 0.01112 0.84023 0.0
H620 H 0.98044 0.07669 0.83987 0.0
H621 H 0.03139 0.9598 0.92804 0.0
H622 H 0.09726 0.96771 0.92806 0.0
H623 H 0.06461 0.92543 0.90809 0.0
loop_
_geom_bond_atom_site_label_1
_geom_bond_atom_site_label_2
_geom_bond_distance
_geom_bond_site_symmetry_2
_ccdc_geom_bond_type
C0 O1 1.306 . S
C0 O3 1.160 . S
O1 C0 1.306 . S
O1 Cd2 2.228 . S
Cd2 O1 2.228 . S
Cd2 O6 2.273 . S
Cd2 O10 2.277 . S
O3 C0 1.160 . S
O3 Cd4 2.203 . S
Cd4 O3 2.203 . S
Cd4 O6 2.411 . S
Cd4 O7 2.333 . S
Cd4 O8 2.352 . S
Cd4 O12 2.277 . S
Cd4 O13 2.356 . S
C5 O10 1.209 . S
C5 O12 1.226 . S
O6 Cd2 2.273 . S
O6 Cd4 2.411 . S
O6 C9 1.320 . S
O7 Cd4 2.333 . S
O7 C9 1.214 . S
O8 Cd4 2.352 . S
O8 C11 1.258 . S
C9 O6 1.320 . S
C9 O7 1.214 . S
O10 Cd2 2.277 . S
O10 C5 1.209 . S
C11 O8 1.258 . S
C11 O13 1.282 . S
O12 Cd4 2.277 . S
O12 C5 1.226 . S
O13 Cd4 2.356 . S
O13 C11 1.282 . S
C14 O15 1.306 . S
C14 O17 1.160 . S
O15 C14 1.306 . S
O15 Cd16 2.228 . S
Cd16 O15 2.228 . S
Cd16 O20 2.273 . S
Cd16 O24 2.277 . S
O17 C14 1.160 . S
O17 Cd18 2.203 . S
Cd18 O17 2.203 . S
Cd18 O20 2.411 . S
Cd18 O21 2.333 . S
Cd18 O22 2.352 . S
Cd18 O26 2.277 . S
Cd18 O27 2.356 . S
C19 O24 1.209 . S
C19 O26 1.226 . S
O20 Cd16 2.273 . S
O20 Cd18 2.411 . S
O20 C23 1.320 . S
O21 Cd18 2.333 . S
O21 C23 1.214 . S
O22 Cd18 2.352 . S
O22 C25 1.258 . S
C23 O20 1.320 . S
C23 O21 1.214 . S
O24 Cd16 2.277 . S
O24 C19 1.209 . S
C25 O22 1.258 . S
C25 O27 1.282 . S
O26 Cd18 2.277 . S
O26 C19 1.226 . S
O27 Cd18 2.356 . S
O27 C25 1.282 . S
C28 O29 1.306 . S
C28 O31 1.160 . S
O29 C28 1.306 . S
O29 Cd30 2.228 . S
Cd30 O29 2.228 . S
Cd30 O34 2.273 . S
Cd30 O38 2.277 . S
O31 C28 1.160 . S
O31 Cd32 2.203 . S
Cd32 O31 2.203 . S
Cd32 O34 2.411 . S
Cd32 O35 2.333 . S
Cd32 O36 2.352 . S
Cd32 O40 2.277 . S
Cd32 O41 2.356 . S
C33 O38 1.209 . S
C33 O40 1.226 . S
O34 Cd30 2.273 . S
O34 Cd32 2.411 . S
O34 C37 1.320 . S
O35 Cd32 2.333 . S
O35 C37 1.214 . S
O36 Cd32 2.352 . S
O36 C39 1.258 . S
C37 O34 1.320 . S
C37 O35 1.214 . S
O38 Cd30 2.277 . S
O38 C33 1.209 . S
C39 O36 1.258 . S
C39 O41 1.282 . S
O40 Cd32 2.277 . S
O40 C33 1.226 . S
O41 Cd32 2.356 . S
O41 C39 1.282 . S
C42 O43 1.306 . S
C42 O45 1.160 . S
O43 C42 1.306 . S
O43 Cd44 2.228 . S
Cd44 O43 2.228 . S
Cd44 O48 2.273 . S
Cd44 O52 2.277 . S
O45 C42 1.160 . S
O45 Cd46 2.203 . S
Cd46 O45 2.203 . S
Cd46 O48 2.411 . S
Cd46 O49 2.333 . S
Cd46 O50 2.352 . S
Cd46 O54 2.277 . S
Cd46 O55 2.356 . S
C47 O52 1.209 . S
C47 O54 1.226 . S
O48 Cd44 2.273 . S
O48 Cd46 2.411 . S
O48 C51 1.320 . S
O49 Cd46 2.333 . S
O49 C51 1.214 . S
O50 Cd46 2.352 . S
O50 C53 1.258 . S
C51 O48 1.320 . S
C51 O49 1.214 . S
O52 Cd44 2.277 . S
O52 C47 1.209 . S
C53 O50 1.258 . S
C53 O55 1.282 . S
O54 Cd46 2.277 . S
O54 C47 1.226 . S
O55 Cd46 2.356 . S
O55 C53 1.282 . S
C56 O57 1.306 . S
C56 O59 1.160 . S
O57 C56 1.306 . S
O57 Cd58 2.228 . S
Cd58 O57 2.228 . S
Cd58 O62 2.273 . S
Cd58 O66 2.277 . S
O59 C56 1.160 . S
O59 Cd60 2.203 . S
Cd60 O59 2.203 . S
Cd60 O62 2.411 . S
Cd60 O63 2.333 . S
Cd60 O64 2.352 . S
Cd60 O68 2.277 . S
Cd60 O69 2.356 . S
C61 O66 1.209 . S
C61 O68 1.226 . S
O62 Cd58 2.273 . S
O62 Cd60 2.411 . S
O62 C65 1.320 . S
O63 Cd60 2.333 . S
O63 C65 1.214 . S
O64 Cd60 2.352 . S
O64 C67 1.258 . S
C65 O62 1.320 . S
C65 O63 1.214 . S
O66 Cd58 2.277 . S
O66 C61 1.209 . S
C67 O64 1.258 . S
C67 O69 1.282 . S
O68 Cd60 2.277 . S
O68 C61 1.226 . S
O69 Cd60 2.356 . S
O69 C67 1.282 . S
C70 O71 1.306 . S
C70 O73 1.160 . S
O71 C70 1.306 . S
O71 Cd72 2.228 . S
Cd72 O71 2.228 . S
Cd72 O76 2.273 . S
Cd72 O80 2.277 . S
O73 C70 1.160 . S
O73 Cd74 2.203 . S
Cd74 O73 2.203 . S
Cd74 O76 2.411 . S
Cd74 O77 2.333 . S
Cd74 O78 2.352 . S
Cd74 O82 2.277 . S
Cd74 O83 2.356 . S
C75 O80 1.209 . S
C75 O82 1.226 . S
O76 Cd72 2.273 . S
O76 Cd74 2.411 . S
O76 C79 1.320 . S
O77 Cd74 2.333 . S
O77 C79 1.214 . S
O78 Cd74 2.352 . S
O78 C81 1.258 . S
C79 O76 1.320 . S
C79 O77 1.214 . S
O80 Cd72 2.277 . S
O80 C75 1.209 . S
C81 O78 1.258 . S
C81 O83 1.282 . S
O82 Cd74 2.277 . S
O82 C75 1.226 . S
O83 Cd74 2.356 . S
O83 C81 1.282 . S
C84 O85 1.306 . S
C84 O87 1.160 . S
O85 C84 1.306 . S
O85 Cd86 2.228 . S
Cd86 O85 2.228 . S
Cd86 O90 2.273 . S
Cd86 O94 2.277 . S
O87 C84 1.160 . S
O87 Cd88 2.203 . S
Cd88 O87 2.203 . S
Cd88 O90 2.411 . S
Cd88 O91 2.333 . S
Cd88 O92 2.352 . S
Cd88 O96 2.277 . S
Cd88 O97 2.356 . S
C89 O94 1.209 . S
C89 O96 1.226 . S
O90 Cd86 2.273 . S
O90 Cd88 2.411 . S
O90 C93 1.320 . S
O91 Cd88 2.333 . S
O91 C93 1.214 . S
O92 Cd88 2.352 . S
O92 C95 1.258 . S
C93 O90 1.320 . S
C93 O91 1.214 . S
O94 Cd86 2.277 . S
O94 C89 1.209 . S
C95 O92 1.258 . S
C95 O97 1.282 . S
O96 Cd88 2.277 . S
O96 C89 1.226 . S
O97 Cd88 2.356 . S
O97 C95 1.282 . S
C98 O99 1.306 . S
C98 O101 1.160 . S
O99 C98 1.306 . S
O99 Cd100 2.228 . S
Cd100 O99 2.228 . S
Cd100 O104 2.273 . S
Cd100 O108 2.277 . S
O101 C98 1.160 . S
O101 Cd102 2.203 . S
Cd102 O101 2.203 . S
Cd102 O104 2.411 . S
Cd102 O105 2.333 . S
Cd102 O106 2.352 . S
Cd102 O110 2.277 . S
Cd102 O111 2.356 . S
C103 O108 1.209 . S
C103 O110 1.226 . S
O104 Cd100 2.273 . S
O104 Cd102 2.411 . S
O104 C107 1.320 . S
O105 Cd102 2.333 . S
O105 C107 1.214 . S
O106 Cd102 2.352 . S
O106 C109 1.258 . S
C107 O104 1.320 . S
C107 O105 1.214 . S
O108 Cd100 2.277 . S
O108 C103 1.209 . S
C109 O106 1.258 . S
C109 O111 1.282 . S
O110 Cd102 2.277 . S
O110 C103 1.226 . S
O111 Cd102 2.356 . S
O111 C109 1.282 . S
C112 C113 1.391 . S
C112 C114 1.394 . S
C112 H128 0.931 . S
C113 C112 1.391 . S
C113 C117 1.376 . S
C114 C112 1.394 . S
C114 C115 1.369 . S
C114 C118 1.531 . S
C115 C114 1.369 . S
C115 C116 1.410 . S
C115 C123 1.503 1_554 S
C116 C115 1.410 . S
C116 C117 1.392 . S
C116 C119 1.511 . S
C117 C113 1.376 . S
C117 C116 1.392 . S
C117 H129 0.929 . S
C118 C114 1.531 . S
C118 H130 0.960 . S
C118 H131 0.962 . S
C118 H132 0.960 . S
C119 C116 1.511 . S
C119 H133 0.961 . S
C119 H134 0.961 1_554 S
C119 H135 0.961 1_554 S
C120 C121 1.370 . S
C120 C122 1.363 . S
C120 H136 0.931 . S
C121 C120 1.370 . S
C121 C125 1.408 . S
C122 C120 1.363 . S
C122 C123 1.370 . S
C122 C126 1.524 . S
C123 C115 1.503 1_556 S
C123 C122 1.370 . S
C123 C124 1.403 . S
C124 C123 1.403 . S
C124 C125 1.404 . S
C124 C127 1.539 . S
C125 C121 1.408 . S
C125 C124 1.404 . S
C125 H137 0.930 . S
C126 C122 1.524 . S
C126 H138 0.956 1_556 S
C126 H139 0.961 . S
C126 H140 0.961 . S
C127 C124 1.539 . S
C127 H141 0.958 . S
C127 H142 0.961 . S
C127 H143 0.993 . S
H128 C112 0.931 . S
H129 C117 0.929 . S
H130 C118 0.960 . S
H131 C118 0.962 . S
H132 C118 0.960 . S
H133 C119 0.961 . S
H134 C119 0.961 1_556 S
H135 C119 0.961 1_556 S
H136 C120 0.931 . S
H137 C125 0.930 . S
H138 C126 0.956 1_554 S
H139 C126 0.961 . S
H140 C126 0.961 . S
H141 C127 0.958 . S
H142 C127 0.961 . S
H143 C127 0.993 . S
C144 C145 1.391 . S
C144 C146 1.394 . S
C144 H160 0.931 . S
C145 C144 1.391 . S
C145 C149 1.376 . S
C146 C144 1.394 . S
C146 C147 1.369 . S
C146 C150 1.531 . S
C147 C146 1.369 . S
C147 C148 1.410 . S
C147 C155 1.503 . S
C148 C147 1.410 . S
C148 C149 1.392 . S
C148 C151 1.511 . S
C149 C145 1.376 . S
C149 C148 1.392 . S
C149 H161 0.929 . S
C150 C146 1.531 . S
C150 H162 0.960 . S
C150 H163 0.962 . S
C150 H164 0.960 . S
C151 C148 1.511 . S
C151 H165 0.961 . S
C151 H166 0.961 . S
C151 H167 0.961 . S
C152 C153 1.370 . S
C152 C154 1.363 . S
C152 H168 0.931 . S
C153 C152 1.370 . S
C153 C157 1.408 . S
C154 C152 1.363 . S
C154 C155 1.370 . S
C154 C158 1.524 . S
C155 C147 1.503 . S
C155 C154 1.370 . S
C155 C156 1.403 . S
C156 C155 1.403 . S
C156 C157 1.404 . S
C156 C159 1.539 . S
C157 C153 1.408 . S
C157 C156 1.404 . S
C157 H169 0.930 . S
C158 C154 1.524 . S
C158 H170 0.956 . S
C158 H171 0.961 . S
C158 H172 0.961 . S
C159 C156 1.539 . S
C159 H173 0.958 . S
C159 H174 0.961 . S
C159 H175 0.960 . S
H160 C144 0.931 . S
H161 C149 0.929 . S
H162 C150 0.960 . S
H163 C150 0.962 . S
H164 C150 0.960 . S
H165 C151 0.961 . S
H166 C151 0.961 . S
H167 C151 0.961 . S
H168 C152 0.931 . S
H169 C157 0.930 . S
H170 C158 0.956 . S
H171 C158 0.961 . S
H172 C158 0.961 . S
H173 C159 0.958 . S
H174 C159 0.961 . S
H175 C159 0.960 . S
C176 C177 1.391 . S
C176 C178 1.394 . S
C176 H192 0.931 . S
C177 C176 1.391 . S
C177 C181 1.376 . S
C178 C176 1.394 . S
C178 C179 1.369 . S
C178 C182 1.531 . S
C179 C178 1.369 . S
C179 C180 1.410 . S
C179 C187 1.503 . S
C180 C179 1.410 . S
C180 C181 1.392 . S
C180 C183 1.511 . S
C181 C177 1.376 . S
C181 C180 1.392 . S
C181 H193 0.929 . S
C182 C178 1.531 . S
C182 H194 0.960 . S
C182 H195 0.962 . S
C182 H196 0.960 . S
C183 C180 1.511 . S
C183 H197 0.961 . S
C183 H198 0.961 . S
C183 H199 0.961 . S
C184 C185 1.370 . S
C184 C186 1.363 . S
C184 H200 0.931 . S
C185 C184 1.370 . S
C185 C189 1.408 . S
C186 C184 1.363 . S
C186 C187 1.370 . S
C186 C190 1.524 . S
C187 C179 1.503 . S
C187 C186 1.370 . S
C187 C188 1.403 . S
C188 C187 1.403 . S
C188 C189 1.404 . S
C188 C191 1.539 . S
C189 C185 1.408 . S
C189 C188 1.404 . S
C189 H201 0.930 . S
C190 C186 1.524 . S
C190 H202 0.956 . S
C190 H203 0.961 . S
C190 H204 0.961 . S
C191 C188 1.539 . S
C191 H205 0.958 . S
C191 H206 0.961 . S
C191 H207 0.960 . S
H192 C176 0.931 . S
H193 C181 0.929 . S
H194 C182 0.960 . S
H195 C182 0.962 . S
H196 C182 0.960 . S
H197 C183 0.961 . S
H198 C183 0.961 . S
H199 C183 0.961 . S
H200 C184 0.931 . S
H201 C189 0.930 . S
H202 C190 0.956 . S
H203 C190 0.961 . S
H204 C190 0.961 . S
H205 C191 0.958 . S
H206 C191 0.961 . S
H207 C191 0.960 . S
C208 C209 1.391 . S
C208 C210 1.394 . S
C208 H224 0.931 . S
C209 C208 1.391 . S
C209 C213 1.376 . S
C210 C208 1.394 . S
C210 C211 1.369 . S
C210 C214 1.531 . S
C211 C210 1.369 . S
C211 C212 1.410 . S
C211 C219 1.503 . S
C212 C211 1.410 . S
C212 C213 1.392 . S
C212 C215 1.511 . S
C213 C209 1.376 . S
C213 C212 1.392 . S
C213 H225 0.929 . S
C214 C210 1.531 . S
C214 H226 0.960 . S
C214 H227 0.962 . S
C214 H228 0.960 . S
C215 C212 1.511 . S
C215 H229 0.961 . S
C215 H230 0.961 . S
C215 H231 0.961 . S
C216 C217 1.370 . S
C216 C218 1.363 . S
C216 H232 0.931 . S
C217 C216 1.370 . S
C217 C221 1.408 . S
C218 C216 1.363 . S
C218 C219 1.370 . S
C218 C222 1.524 . S
C219 C211 1.503 . S
C219 C218 1.370 . S
C219 C220 1.403 . S
C220 C219 1.403 . S
C220 C221 1.404 . S
C220 C223 1.539 . S
C221 C217 1.408 . S
C221 C220 1.404 . S
C221 H233 0.930 . S
C222 C218 1.524 . S
C222 H234 0.956 . S
C222 H235 0.961 . S
C222 H236 0.961 . S
C223 C220 1.539 . S
C223 H237 0.958 . S
C223 H238 0.961 . S
C223 H239 0.960 . S
H224 C208 0.931 . S
H225 C213 0.929 . S
H226 C214 0.960 . S
H227 C214 0.962 . S
H228 C214 0.960 . S
H229 C215 0.961 . S
H230 C215 0.961 . S
H231 C215 0.961 . S
H232 C216 0.931 . S
H233 C221 0.930 . S
H234 C222 0.956 . S
H235 C222 0.961 . S
H236 C222 0.961 . S
H237 C223 0.958 . S
H238 C223 0.961 . S
H239 C223 0.960 . S
C240 C241 1.391 . S
C240 C242 1.394 . S
C240 H256 0.931 . S
C241 C240 1.391 . S
C241 C245 1.376 . S
C242 C240 1.394 . S
C242 C243 1.369 . S
C242 C246 1.531 . S
C243 C242 1.369 . S
C243 C244 1.410 . S
C243 C251 1.503 . S
C244 C243 1.410 . S
C244 C245 1.392 . S
C244 C247 1.511 . S
C245 C241 1.376 . S
C245 C244 1.392 . S
C245 H257 0.929 . S
C246 C242 1.531 . S
C246 H258 0.960 . S
C246 H259 0.962 . S
C246 H260 0.960 . S
C247 C244 1.511 . S
C247 H261 0.961 . S
C247 H262 0.961 . S
C247 H263 0.961 . S
C248 C249 1.370 . S
C248 C250 1.363 . S
C248 H264 0.931 . S
C249 C248 1.370 . S
C249 C253 1.408 . S
C250 C248 1.363 . S
C250 C251 1.370 . S
C250 C254 1.524 . S
C251 C243 1.503 . S
C251 C250 1.370 . S
C251 C252 1.403 . S
C252 C251 1.403 . S
C252 C253 1.404 . S
C252 C255 1.539 . S
C253 C249 1.408 . S
C253 C252 1.404 . S
C253 H265 0.930 . S
C254 C250 1.524 . S
C254 H266 0.956 . S
C254 H267 0.961 . S
C254 H268 0.961 . S
C255 C252 1.539 . S
C255 H269 0.958 . S
C255 H270 0.961 . S
C255 H271 0.960 . S
H256 C240 0.931 . S
H257 C245 0.929 . S
H258 C246 0.960 . S
H259 C246 0.962 . S
H260 C246 0.960 . S
H261 C247 0.961 . S
H262 C247 0.961 . S
H263 C247 0.961 . S
H264 C248 0.931 . S
H265 C253 0.930 . S
H266 C254 0.956 . S
H267 C254 0.961 . S
H268 C254 0.961 . S
H269 C255 0.958 . S
H270 C255 0.961 . S
H271 C255 0.960 . S
C272 C273 1.391 . S
C272 C274 1.394 . S
C272 H288 0.931 . S
C273 C272 1.391 . S
C273 C277 1.376 . S
C274 C272 1.394 . S
C274 C275 1.369 . S
C274 C278 1.531 . S
C275 C274 1.369 . S
C275 C276 1.410 . S
C275 C283 1.503 . S
C276 C275 1.410 . S
C276 C277 1.392 . S
C276 C279 1.511 . S
C277 C273 1.376 . S
C277 C276 1.392 . S
C277 H289 0.929 . S
C278 C274 1.531 . S
C278 H290 0.960 . S
C278 H291 0.962 . S
C278 H292 0.960 . S
C279 C276 1.511 . S
C279 H293 0.961 . S
C279 H294 0.961 . S
C279 H295 0.961 . S
C280 C281 1.370 . S
C280 C282 1.363 . S
C280 H296 0.931 . S
C281 C280 1.370 . S
C281 C285 1.408 . S
C282 C280 1.363 . S
C282 C283 1.370 . S
C282 C286 1.524 . S
C283 C275 1.503 . S
C283 C282 1.370 . S
C283 C284 1.403 . S
C284 C283 1.403 . S
C284 C285 1.404 . S
C284 C287 1.539 . S
C285 C281 1.408 . S
C285 C284 1.404 . S
C285 H297 0.930 . S
C286 C282 1.524 . S
C286 H298 0.956 . S
C286 H299 0.961 . S
C286 H300 0.961 . S
C287 C284 1.539 . S
C287 H301 0.958 . S
C287 H302 0.961 . S
C287 H303 0.960 . S
H288 C272 0.931 . S
H289 C277 0.929 . S
H290 C278 0.960 . S
H291 C278 0.962 . S
H292 C278 0.960 . S
H293 C279 0.961 . S
H294 C279 0.961 . S
H295 C279 0.961 . S
H296 C280 0.931 . S
H297 C285 0.930 . S
H298 C286 0.956 . S
H299 C286 0.961 . S
H300 C286 0.961 . S
H301 C287 0.958 . S
H302 C287 0.961 . S
H303 C287 0.960 . S
C304 C305 1.391 . S
C304 C306 1.394 . S
C304 H320 0.931 . S
C305 C304 1.391 . S
C305 C309 1.376 . S
C306 C304 1.394 . S
C306 C307 1.369 . S
C306 C310 1.531 . S
C307 C306 1.369 . S
C307 C308 1.410 . S
C307 C315 1.503 . S
C308 C307 1.410 . S
C308 C309 1.392 . S
C308 C311 1.511 . S
C309 C305 1.376 . S
C309 C308 1.392 . S
C309 H321 0.929 . S
C310 C306 1.531 . S
C310 H322 0.960 . S
C310 H323 0.962 . S
C310 H324 0.960 . S
C311 C308 1.511 . S
C311 H325 0.961 . S
C311 H326 0.961 . S
C311 H327 0.961 . S
C312 C313 1.370 . S
C312 C314 1.363 . S
C312 H328 0.931 . S
C313 C312 1.370 . S
C313 C317 1.408 . S
C314 C312 1.363 . S
C314 C315 1.370 . S
C314 C318 1.524 . S
C315 C307 1.503 . S
C315 C314 1.370 . S
C315 C316 1.403 . S
C316 C315 1.403 . S
C316 C317 1.404 . S
C316 C319 1.539 . S
C317 C313 1.408 . S
C317 C316 1.404 . S
C317 H329 0.930 . S
C318 C314 1.524 . S
C318 H330 0.956 . S
C318 H331 0.961 . S
C318 H332 0.961 . S
C319 C316 1.539 . S
C319 H333 0.958 . S
C319 H334 0.961 . S
C319 H335 0.960 . S
H320 C304 0.931 . S
H321 C309 0.929 . S
H322 C310 0.960 . S
H323 C310 0.962 . S
H324 C310 0.960 . S
H325 C311 0.961 . S
H326 C311 0.961 . S
H327 C311 0.961 . S
H328 C312 0.931 . S
H329 C317 0.930 . S
H330 C318 0.956 . S
H331 C318 0.961 . S
H332 C318 0.961 . S
H333 C319 0.958 . S
H334 C319 0.961 . S
H335 C319 0.960 . S
C336 C337 1.391 . S
C336 C338 1.394 . S
C336 H352 0.931 . S
C337 C336 1.391 . S
C337 C341 1.376 . S
C338 C336 1.394 . S
C338 C339 1.369 . S
C338 C342 1.531 . S
C339 C338 1.369 . S
C339 C340 1.410 . S
C339 C347 1.503 1_554 S
C340 C339 1.410 . S
C340 C341 1.392 . S
C340 C343 1.511 . S
C341 C337 1.376 . S
C341 C340 1.392 . S
C341 H353 0.929 . S
C342 C338 1.531 . S
C342 H354 0.960 1_554 S
C342 H355 0.962 1_554 S
C342 H356 0.960 . S
C343 C340 1.511 . S
C343 H357 0.961 . S
C343 H358 0.961 . S
C343 H359 0.961 . S
C344 C345 1.370 . S
C344 C346 1.363 . S
C344 H360 0.931 . S
C345 C344 1.370 . S
C345 C349 1.408 . S
C346 C344 1.363 . S
C346 C347 1.370 . S
C346 C350 1.524 . S
C347 C339 1.503 1_556 S
C347 C346 1.370 . S
C347 C348 1.403 . S
C348 C347 1.403 . S
C348 C349 1.404 . S
C348 C351 1.539 . S
C349 C345 1.408 . S
C349 C348 1.404 . S
C349 H361 0.930 . S
C350 C346 1.524 . S
C350 H362 0.956 . S
C350 H363 0.961 1_556 S
C350 H364 0.961 . S
C351 C348 1.539 . S
C351 H365 0.958 . S
C351 H366 0.961 . S
C351 H367 0.960 1_556 S
H352 C336 0.931 . S
H353 C341 0.929 . S
H354 C342 0.960 1_556 S
H355 C342 0.962 1_556 S
H356 C342 0.960 . S
H357 C343 0.961 . S
H358 C343 0.961 . S
H359 C343 0.961 . S
H360 C344 0.931 . S
H361 C349 0.930 . S
H362 C350 0.956 . S
H363 C350 0.961 1_554 S
H364 C350 0.961 . S
H365 C351 0.958 . S
H366 C351 0.961 . S
H367 C351 0.960 1_554 S
C368 C369 1.391 . S
C368 C370 1.394 1_455 S
C368 H384 0.931 . S
C369 C368 1.391 . S
C369 C373 1.376 . S
C370 C368 1.394 1_655 S
C370 C371 1.369 1_655 S
C370 C374 1.531 . S
C371 C370 1.369 1_455 S
C371 C372 1.410 . S
C371 C379 1.503 1_445 S
C372 C371 1.410 . S
C372 C373 1.392 . S
C372 C375 1.511 1_545 S
C373 C369 1.376 . S
C373 C372 1.392 . S
C373 H385 0.929 . S
C374 C370 1.531 . S
C374 H386 0.960 . S
C374 H387 0.962 . S
C374 H388 0.960 . S
C375 C372 1.511 1_565 S
C375 H389 0.961 . S
C375 H390 0.961 . S
C375 H391 0.961 . S
C376 C377 1.370 . S
C376 C378 1.363 . S
C376 H392 0.931 . S
C377 C376 1.370 . S
C377 C381 1.408 . S
C378 C376 1.363 . S
C378 C379 1.370 . S
C378 C382 1.524 . S
C379 C371 1.503 1_665 S
C379 C378 1.370 . S
C379 C380 1.403 . S
C380 C379 1.403 . S
C380 C381 1.404 . S
C380 C383 1.539 . S
C381 C377 1.408 . S
C381 C380 1.404 . S
C381 H393 0.930 . S
C382 C378 1.524 . S
C382 H394 0.956 1_565 S
C382 H395 0.961 1_655 S
C382 H396 0.961 . S
C383 C380 1.539 . S
C383 H397 0.958 . S
C383 H398 0.961 . S
C383 H399 0.960 1_655 S
H384 C368 0.931 . S
H385 C373 0.929 . S
H386 C374 0.960 . S
H387 C374 0.962 . S
H388 C374 0.960 . S
H389 C375 0.961 . S
H390 C375 0.961 . S
H391 C375 0.961 . S
H392 C376 0.931 . S
H393 C381 0.930 . S
H394 C382 0.956 1_545 S
H395 C382 0.961 1_455 S
H396 C382 0.961 . S
H397 C383 0.958 . S
H398 C383 0.961 . S
H399 C383 0.960 1_455 S
C400 C401 1.391 . S
C400 C402 1.394 . S
C400 H416 0.931 . S
C401 C400 1.391 . S
C401 C405 1.376 . S
C402 C400 1.394 . S
C402 C403 1.369 . S
C402 C406 1.531 . S
C403 C402 1.369 . S
C403 C404 1.410 . S
C403 C411 1.503 1_455 S
C404 C403 1.410 . S
C404 C405 1.392 . S
C404 C407 1.519 . S
C405 C401 1.376 . S
C405 C404 1.392 . S
C405 H417 0.929 . S
C406 C402 1.531 . S
C406 H418 0.960 . S
C406 H419 0.962 . S
C406 H420 0.960 . S
C407 C404 1.519 . S
C407 H421 0.961 1_455 S
C407 H422 0.950 1_455 S
C407 H423 0.964 . S
C408 C409 1.370 . S
C408 C410 1.363 . S
C408 H424 0.931 . S
C409 C408 1.370 . S
C409 C413 1.408 . S
C410 C408 1.363 . S
C410 C411 1.370 . S
C410 C414 1.524 . S
C411 C403 1.503 1_655 S
C411 C410 1.370 . S
C411 C412 1.403 . S
C412 C411 1.403 . S
C412 C413 1.404 . S
C412 C415 1.539 1_655 S
C413 C409 1.408 . S
C413 C412 1.404 . S
C413 H425 0.930 . S
C414 C410 1.524 . S
C414 H426 0.956 . S
C414 H427 0.961 . S
C414 H428 0.961 . S
C415 C412 1.539 1_455 S
C415 H429 0.958 . S
C415 H430 0.961 . S
C415 H431 0.960 . S
H416 C400 0.931 . S
H417 C405 0.929 . S
H418 C406 0.960 . S
H419 C406 0.962 . S
H420 C406 0.960 . S
H421 C407 0.961 1_655 S
H422 C407 0.950 1_655 S
H423 C407 0.964 . S
H424 C408 0.931 . S
H425 C413 0.930 . S
H426 C414 0.956 . S
H427 C414 0.961 . S
H428 C414 0.961 . S
H429 C415 0.958 . S
H430 C415 0.961 . S
H431 C415 0.960 . S
C432 C433 1.391 . S
C432 C434 1.394 . S
C432 H448 0.931 . S
C433 C432 1.391 . S
C433 C437 1.376 . S
C434 C432 1.394 . S
C434 C435 1.369 . S
C434 C438 1.531 . S
C435 C434 1.369 . S
C435 C436 1.410 . S
C435 C443 1.503 . S
C436 C435 1.410 . S
C436 C437 1.392 . S
C436 C439 1.511 . S
C437 C433 1.376 . S
C437 C436 1.392 . S
C437 H449 0.929 . S
C438 C434 1.531 . S
C438 H450 0.960 . S
C438 H451 0.962 . S
C438 H452 0.960 . S
C439 C436 1.511 . S
C439 H453 0.961 . S
C439 H454 0.961 . S
C439 H455 0.961 . S
C440 C441 1.370 . S
C440 C442 1.363 . S
C440 H456 0.931 . S
C441 C440 1.370 . S
C441 C445 1.408 . S
C442 C440 1.363 . S
C442 C443 1.370 . S
C442 C446 1.524 . S
C443 C435 1.503 . S
C443 C442 1.370 . S
C443 C444 1.403 . S
C444 C443 1.403 . S
C444 C445 1.404 . S
C444 C447 1.539 . S
C445 C441 1.408 . S
C445 C444 1.404 . S
C445 H457 0.930 . S
C446 C442 1.524 . S
C446 H458 0.956 . S
C446 H459 0.961 . S
C446 H460 0.961 . S
C447 C444 1.539 . S
C447 H461 0.958 . S
C447 H462 0.961 . S
C447 H463 0.960 . S
H448 C432 0.931 . S
H449 C437 0.929 . S
H450 C438 0.960 . S
H451 C438 0.962 . S
H452 C438 0.960 . S
H453 C439 0.961 . S
H454 C439 0.961 . S
H455 C439 0.961 . S
H456 C440 0.931 . S
H457 C445 0.930 . S
H458 C446 0.956 . S
H459 C446 0.961 . S
H460 C446 0.961 . S
H461 C447 0.958 . S
H462 C447 0.961 . S
H463 C447 0.960 . S
C464 C465 1.391 . S
C464 C466 1.394 . S
C464 H480 0.931 . S
C465 C464 1.391 . S
C465 C469 1.376 . S
C466 C464 1.394 . S
C466 C467 1.369 . S
C466 C470 1.531 . S
C467 C466 1.369 . S
C467 C468 1.410 . S
C467 C475 1.503 1_565 S
C468 C467 1.410 . S
C468 C469 1.392 . S
C468 C471 1.511 1_565 S
C469 C465 1.376 . S
C469 C468 1.392 . S
C469 H481 0.929 . S
C470 C466 1.531 . S
C470 H482 0.960 . S
C470 H483 0.962 . S
C470 H484 0.960 . S
C471 C468 1.511 1_545 S
C471 H485 0.961 . S
C471 H486 0.961 . S
C471 H487 0.953 1_545 S
C472 C473 1.370 . S
C472 C474 1.363 . S
C472 H488 0.931 . S
C473 C472 1.370 . S
C473 C477 1.408 . S
C474 C472 1.363 . S
C474 C475 1.370 . S
C474 C478 1.524 . S
C475 C467 1.503 1_545 S
C475 C474 1.370 . S
C475 C476 1.403 1_545 S
C476 C475 1.403 1_565 S
C476 C477 1.404 1_565 S
C476 C479 1.539 . S
C477 C473 1.408 . S
C477 C476 1.404 1_545 S
C477 H489 0.930 . S
C478 C474 1.524 . S
C478 H490 0.956 . S
C478 H491 0.961 . S
C478 H492 0.961 . S
C479 C476 1.539 . S
C479 H493 0.958 . S
C479 H494 0.961 . S
C479 H495 0.960 . S
H480 C464 0.931 . S
H481 C469 0.929 . S
H482 C470 0.960 . S
H483 C470 0.962 . S
H484 C470 0.960 . S
H485 C471 0.961 . S
H486 C471 0.961 . S
H487 C471 0.953 1_565 S
H488 C472 0.931 . S
H489 C477 0.930 . S
H490 C478 0.956 . S
H491 C478 0.961 . S
H492 C478 0.961 . S
H493 C479 0.958 . S
H494 C479 0.961 . S
H495 C479 0.960 . S
C496 C497 1.391 . S
C496 C498 1.394 . S
C496 H512 0.931 . S
C497 C496 1.391 . S
C497 C501 1.376 . S
C498 C496 1.394 . S
C498 C499 1.369 . S
C498 C502 1.531 . S
C499 C498 1.369 . S
C499 C500 1.410 1_655 S
C499 C507 1.503 1_655 S
C500 C499 1.410 1_455 S
C500 C501 1.392 1_455 S
C500 C503 1.511 . S
C501 C497 1.376 . S
C501 C500 1.392 1_655 S
C501 H513 0.929 . S
C502 C498 1.531 . S
C502 H514 0.960 . S
C502 H515 0.962 . S
C502 H516 0.960 . S
C503 C500 1.511 . S
C503 H517 0.961 . S
C503 H518 0.961 . S
C503 H519 0.961 . S
C504 C505 1.370 . S
C504 C506 1.363 . S
C504 H520 0.931 . S
C505 C504 1.370 . S
C505 C509 1.408 . S
C506 C504 1.363 . S
C506 C507 1.370 . S
C506 C510 1.524 1_455 S
C507 C499 1.503 1_455 S
C507 C506 1.370 . S
C507 C508 1.403 . S
C508 C507 1.403 . S
C508 C509 1.404 . S
C508 C511 1.539 . S
C509 C505 1.408 . S
C509 C508 1.404 . S
C509 H521 0.930 . S
C510 C506 1.524 1_655 S
C510 H522 0.956 . S
C510 H523 0.961 . S
C510 H524 0.961 . S
C511 C508 1.539 . S
C511 H525 0.958 . S
C511 H526 0.961 . S
C511 H527 0.960 . S
H512 C496 0.931 . S
H513 C501 0.929 . S
H514 C502 0.960 . S
H515 C502 0.962 . S
H516 C502 0.960 . S
H517 C503 0.961 . S
H518 C503 0.961 . S
H519 C503 0.961 . S
H520 C504 0.931 . S
H521 C509 0.930 . S
H522 C510 0.956 . S
H523 C510 0.961 . S
H524 C510 0.961 . S
H525 C511 0.958 . S
H526 C511 0.961 . S
H527 C511 0.960 . S
C528 C529 1.391 . S
C528 C530 1.394 . S
C528 H544 0.931 . S
C529 C528 1.391 . S
C529 C533 1.376 . S
C530 C528 1.394 . S
C530 C531 1.369 . S
C530 C534 1.531 . S
C531 C530 1.369 . S
C531 C532 1.410 . S
C531 C539 1.503 . S
C532 C531 1.410 . S
C532 C533 1.392 . S
C532 C535 1.511 . S
C533 C529 1.376 . S
C533 C532 1.392 . S
C533 H545 0.929 . S
C534 C530 1.531 . S
C534 H546 0.960 . S
C534 H547 0.962 . S
C534 H548 0.960 . S
C535 C532 1.511 . S
C535 H549 0.961 . S
C535 H550 0.961 . S
C535 H551 0.961 . S
C536 C537 1.370 . S
C536 C538 1.363 . S
C536 H552 0.931 . S
C537 C536 1.370 . S
C537 C541 1.408 . S
C538 C536 1.363 . S
C538 C539 1.370 . S
C538 C542 1.524 . S
C539 C531 1.503 . S
C539 C538 1.370 . S
C539 C540 1.403 . S
C540 C539 1.403 . S
C540 C541 1.404 . S
C540 C543 1.539 . S
C541 C537 1.408 . S
C541 C540 1.404 . S
C541 H553 0.930 . S
C542 C538 1.524 . S
C542 H554 0.956 . S
C542 H555 0.961 . S
C542 H556 0.961 . S
C543 C540 1.539 . S
C543 H557 0.958 . S
C543 H558 0.961 . S
C543 H559 0.960 . S
H544 C528 0.931 . S
H545 C533 0.929 . S
H546 C534 0.960 . S
H547 C534 0.962 . S
H548 C534 0.960 . S
H549 C535 0.961 . S
H550 C535 0.961 . S
H551 C535 0.961 . S
H552 C536 0.931 . S
H553 C541 0.930 . S
H554 C542 0.956 . S
H555 C542 0.961 . S
H556 C542 0.961 . S
H557 C543 0.958 . S
H558 C543 0.961 . S
H559 C543 0.960 . S
C560 C561 1.391 . S
C560 C562 1.394 . S
C560 H576 0.931 . S
C561 C560 1.391 . S
C561 C565 1.376 . S
C562 C560 1.394 . S
C562 C563 1.369 . S
C562 C566 1.531 1_545 S
C563 C562 1.369 . S
C563 C564 1.410 . S
C563 C571 1.503 1_545 S
C564 C563 1.410 . S
C564 C565 1.392 . S
C564 C567 1.511 . S
C565 C561 1.376 . S
C565 C564 1.392 . S
C565 H577 0.929 . S
C566 C562 1.531 1_565 S
C566 H578 0.960 . S
C566 H579 0.962 . S
C566 H580 0.960 . S
C567 C564 1.511 . S
C567 H581 0.961 . S
C567 H582 0.961 . S
C567 H583 0.961 . S
C568 C569 1.370 . S
C568 C570 1.363 . S
C568 H584 0.931 . S
C569 C568 1.370 . S
C569 C573 1.408 . S
C570 C568 1.363 . S
C570 C571 1.370 . S
C570 C574 1.524 . S
C571 C563 1.503 1_565 S
C571 C570 1.370 . S
C571 C572 1.403 . S
C572 C571 1.403 . S
C572 C573 1.404 . S
C572 C575 1.539 1_565 S
C573 C569 1.408 . S
C573 C572 1.404 . S
C573 H585 0.930 . S
C574 C570 1.524 . S
C574 H586 0.956 . S
C574 H587 0.961 . S
C574 H588 0.961 . S
C575 C572 1.539 1_545 S
C575 H589 0.958 . S
C575 H590 0.961 . S
C575 H591 0.960 . S
H576 C560 0.931 . S
H577 C565 0.929 . S
H578 C566 0.960 . S
H579 C566 0.962 . S
H580 C566 0.960 . S
H581 C567 0.961 . S
H582 C567 0.961 . S
H583 C567 0.961 . S
H584 C568 0.931 . S
H585 C573 0.930 . S
H586 C574 0.956 . S
H587 C574 0.961 . S
H588 C574 0.961 . S
H589 C575 0.958 . S
H590 C575 0.961 . S
H591 C575 0.960 . S
C592 C593 1.391 . S
C592 C594 1.394 1_565 S
C592 H608 0.931 . S
C593 C592 1.391 . S
C593 C597 1.376 . S
C594 C592 1.394 1_545 S
C594 C595 1.369 1_545 S
C594 C598 1.531 . S
C595 C594 1.369 1_565 S
C595 C596 1.410 . S
C595 C603 1.503 1_665 S
C596 C595 1.410 . S
C596 C597 1.392 . S
C596 C599 1.511 1_655 S
C597 C593 1.376 . S
C597 C596 1.392 . S
C597 H609 0.929 . S
C598 C594 1.531 . S
C598 H610 0.960 . S
C598 H611 0.962 . S
C598 H612 0.960 . S
C599 C596 1.511 1_455 S
C599 H613 0.961 . S
C599 H614 0.961 . S
C599 H615 0.961 . S
C600 C601 1.370 . S
C600 C602 1.363 . S
C600 H616 0.931 . S
C601 C600 1.370 . S
C601 C605 1.408 . S
C602 C600 1.363 . S
C602 C603 1.370 . S
C602 C606 1.524 . S
C603 C595 1.503 1_445 S
C603 C602 1.370 . S
C603 C604 1.403 . S
C604 C603 1.403 . S
C604 C605 1.404 . S
C604 C607 1.539 1_545 S
C605 C601 1.408 . S
C605 C604 1.404 . S
C605 H617 0.930 . S
C606 C602 1.524 . S
C606 H618 0.956 1_455 S
C606 H619 0.967 1_455 S
C606 H620 0.961 . S
C607 C604 1.539 1_565 S
C607 H621 0.958 1_565 S
C607 H622 0.961 . S
C607 H623 0.960 . S
H608 C592 0.931 . S
H609 C597 0.929 . S
H610 C598 0.960 . S
H611 C598 0.962 . S
H612 C598 0.960 . S
H613 C599 0.961 . S
H614 C599 0.961 . S
H615 C599 0.961 . S
H616 C600 0.931 . S
H617 C605 0.930 . S
H618 C606 0.956 1_655 S
H619 C606 0.967 1_655 S
H620 C606 0.961 . S
H621 C607 0.958 1_545 S
H622 C607 0.961 . S
H623 C607 0.960 . S
C113 C0 1.195 . S
C121 C70 1.210 . S
C145 C23 1.228 . S
C153 C93 1.201 . S
C177 C28 1.234 . S
C185 C98 1.226 . S
C209 C51 1.172 . S
C217 C65 1.205 . S
C241 C107 1.176 . S
C249 C9 1.210 . S
C273 C56 1.197 . S
C281 C14 1.211 . S
C305 C37 1.227 . S
C313 C79 1.218 . S
C337 C84 1.235 . S
C345 C42 1.226 . S
C369 C5 1.565 . S
C377 C89 1.572 . S
C401 C109 1.552 . S
C409 C25 1.576 . S
C433 C33 1.563 . S
C441 C61 1.573 . S
C465 C53 1.586 . S
C473 C81 1.571 . S
C497 C95 1.569 . S
C505 C11 1.580 . S
C529 C103 1.575 . S
C537 C19 1.571 . S
C561 C39 1.565 . S
C569 C67 1.580 . S
C593 C47 1.568 . S
C601 C75 1.571 . S
