# Generated by pormake.
# Topology sme, (6)-cn, num edge types: 1
# Building blocks:
#     Node 0, Type 0, BuildingBlock: OJICUG_clean_sbu_0, # of connection points: 6
#     Node 1, Type 0, BuildingBlock: OJICUG_clean_sbu_0, # of connection points: 6
#     Node 2, Type 0, BuildingBlock: OJICUG_clean_sbu_0, # of connection points: 6
#     Node 3, Type 0, BuildingBlock: OJICUG_clean_sbu_0, # of connection points: 6
#     Node 4, Type 0, BuildingBlock: OJICUG_clean_sbu_0, # of connection points: 6
#     Node 5, Type 0, BuildingBlock: OJICUG_clean_sbu_0, # of connection points: 6
#     Node 6, Type 0, BuildingBlock: OJICUG_clean_sbu_0, # of connection points: 6
#     Node 7, Type 0, BuildingBlock: OJICUG_clean_sbu_0, # of connection points: 6
#     Node 8, Type 0, BuildingBlock: OJICUG_clean_sbu_0, # of connection points: 6
#     Node 9, Type 0, BuildingBlock: OJICUG_clean_sbu_0, # of connection points: 6
#     Node 10, Type 0, BuildingBlock: OJICUG_clean_sbu_0, # of connection points: 6
#     Node 11, Type 0, BuildingBlock: OJICUG_clean_sbu_0, # of connection points: 6
#     Node 12, Type 0, BuildingBlock: OJICUG_clean_sbu_0, # of connection points: 6
#     Node 13, Type 0, BuildingBlock: OJICUG_clean_sbu_0, # of connection points: 6
#     Node 14, Type 0, BuildingBlock: OJICUG_clean_sbu_0, # of connection points: 6
#     Node 15, Type 0, BuildingBlock: OJICUG_clean_sbu_0, # of connection points: 6
#     Node 16, Type 0, BuildingBlock: OJICUG_clean_sbu_0, # of connection points: 6
#     Node 17, Type 0, BuildingBlock: OJICUG_clean_sbu_0, # of connection points: 6
#     Edge 18, Type (0, 0), BuildingBlock: AJUNOK_clean_linker_0, # of connection points: 2
#     Edge 19, Type (0, 0), BuildingBlock: AJUNOK_clean_linker_0, # of connection points: 2
#     Edge 20, Type (0, 0), BuildingBlock: AJUNOK_clean_linker_0, # of connection points: 2
#     Edge 21, Type (0, 0), BuildingBlock: AJUNOK_clean_linker_0, # of connection points: 2
#     Edge 22, Type (0, 0), BuildingBlock: AJUNOK_clean_linker_0, # of connection points: 2
#     Edge 23, Type (0, 0), BuildingBlock: AJUNOK_clean_linker_0, # of connection points: 2
#     Edge 24, Type (0, 0), BuildingBlock: AJUNOK_clean_linker_0, # of connection points: 2
#     Edge 25, Type (0, 0), BuildingBlock: AJUNOK_clean_linker_0, # of connection points: 2
#     Edge 26, Type (0, 0), BuildingBlock: AJUNOK_clean_linker_0, # of connection points: 2
#     Edge 27, Type (0, 0), BuildingBlock: AJUNOK_clean_linker_0, # of connection points: 2
#     Edge 28, Type (0, 0), BuildingBlock: AJUNOK_clean_linker_0, # of connection points: 2
#     Edge 29, Type (0, 0), BuildingBlock: AJUNOK_clean_linker_0, # of connection points: 2
#     Edge 30, Type (0, 0), BuildingBlock: AJUNOK_clean_linker_0, # of connection points: 2
#     Edge 31, Type (0, 0), BuildingBlock: AJUNOK_clean_linker_0, # of connection points: 2
#     Edge 32, Type (0, 0), BuildingBlock: AJUNOK_clean_linker_0, # of connection points: 2
#     Edge 33, Type (0, 0), BuildingBlock: AJUNOK_clean_linker_0, # of connection points: 2
#     Edge 34, Type (0, 0), BuildingBlock: AJUNOK_clean_linker_0, # of connection points: 2
#     Edge 35, Type (0, 0), BuildingBlock: AJUNOK_clean_linker_0, # of connection points: 2
#     Edge 36, Type (0, 0), BuildingBlock: AJUNOK_clean_linker_0, # of connection points: 2
#     Edge 37, Type (0, 0), BuildingBlock: AJUNOK_clean_linker_0, # of connection points: 2
#     Edge 38, Type (0, 0), BuildingBlock: AJUNOK_clean_linker_0, # of connection points: 2
#     Edge 39, Type (0, 0), BuildingBlock: AJUNOK_clean_linker_0, # of connection points: 2
#     Edge 40, Type (0, 0), BuildingBlock: AJUNOK_clean_linker_0, # of connection points: 2
#     Edge 41, Type (0, 0), BuildingBlock: AJUNOK_clean_linker_0, # of connection points: 2
#     Edge 42, Type (0, 0), BuildingBlock: AJUNOK_clean_linker_0, # of connection points: 2
#     Edge 43, Type (0, 0), BuildingBlock: AJUNOK_clean_linker_0, # of connection points: 2
#     Edge 44, Type (0, 0), BuildingBlock: AJUNOK_clean_linker_0, # of connection points: 2
#     Edge 45, Type (0, 0), BuildingBlock: AJUNOK_clean_linker_0, # of connection points: 2
#     Edge 46, Type (0, 0), BuildingBlock: AJUNOK_clean_linker_0, # of connection points: 2
#     Edge 47, Type (0, 0), BuildingBlock: AJUNOK_clean_linker_0, # of connection points: 2
#     Edge 48, Type (0, 0), BuildingBlock: AJUNOK_clean_linker_0, # of connection points: 2
#     Edge 49, Type (0, 0), BuildingBlock: AJUNOK_clean_linker_0, # of connection points: 2
#     Edge 50, Type (0, 0), BuildingBlock: AJUNOK_clean_linker_0, # of connection points: 2
#     Edge 51, Type (0, 0), BuildingBlock: AJUNOK_clean_linker_0, # of connection points: 2
#     Edge 52, Type (0, 0), BuildingBlock: AJUNOK_clean_linker_0, # of connection points: 2
#     Edge 53, Type (0, 0), BuildingBlock: AJUNOK_clean_linker_0, # of connection points: 2
#     Edge 54, Type (0, 0), BuildingBlock: AJUNOK_clean_linker_0, # of connection points: 2
#     Edge 55, Type (0, 0), BuildingBlock: AJUNOK_clean_linker_0, # of connection points: 2
#     Edge 56, Type (0, 0), BuildingBlock: AJUNOK_clean_linker_0, # of connection points: 2
#     Edge 57, Type (0, 0), BuildingBlock: AJUNOK_clean_linker_0, # of connection points: 2
#     Edge 58, Type (0, 0), BuildingBlock: AJUNOK_clean_linker_0, # of connection points: 2
#     Edge 59, Type (0, 0), BuildingBlock: AJUNOK_clean_linker_0, # of connection points: 2
#     Edge 60, Type (0, 0), BuildingBlock: AJUNOK_clean_linker_0, # of connection points: 2
#     Edge 61, Type (0, 0), BuildingBlock: AJUNOK_clean_linker_0, # of connection points: 2
#     Edge 62, Type (0, 0), BuildingBlock: AJUNOK_clean_linker_0, # of connection points: 2
#     Edge 63, Type (0, 0), BuildingBlock: AJUNOK_clean_linker_0, # of connection points: 2
#     Edge 64, Type (0, 0), BuildingBlock: AJUNOK_clean_linker_0, # of connection points: 2
#     Edge 65, Type (0, 0), BuildingBlock: AJUNOK_clean_linker_0, # of connection points: 2
#     Edge 66, Type (0, 0), BuildingBlock: AJUNOK_clean_linker_0, # of connection points: 2
#     Edge 67, Type (0, 0), BuildingBlock: AJUNOK_clean_linker_0, # of connection points: 2
#     Edge 68, Type (0, 0), BuildingBlock: AJUNOK_clean_linker_0, # of connection points: 2
#     Edge 69, Type (0, 0), BuildingBlock: AJUNOK_clean_linker_0, # of connection points: 2
#     Edge 70, Type (0, 0), BuildingBlock: AJUNOK_clean_linker_0, # of connection points: 2
#     Edge 71, Type (0, 0), BuildingBlock: AJUNOK_clean_linker_0, # of connection points: 2
# Relax obj value: 0.180
# Max RMSD: 0.201
# Mean RMSD: 0.201
data_MOF--net-sme--node1-OJICUG_clean_sbu_0--edge1-AJUNOK_clean_linker_0
_symmetry_space_group_name_H-M    P1
_symmetry_Int_Tables_number       1
_symmetry_cell_setting            triclinic
loop_
_symmetry_equiv_pos_as_xyz
'x, y, z'
_cell_length_a     35.591876
_cell_length_b     35.554146
_cell_length_c     30.087697
_cell_angle_alpha  89.990989
_cell_angle_beta   89.961974
_cell_angle_gamma 119.96472
loop_
_atom_site_label
_atom_site_type_symbol
_atom_site_fract_x
_atom_site_fract_y
_atom_site_fract_z
_atom_type_partial_charge
Sc0 Sc 0.03808 0.31416 0.75637 0.0
Sc1 Sc 0.03475 0.22647 0.69858 0.0
Sc2 Sc 0.03821 0.22883 0.81478 0.0
O3 O 0.03706 0.25661 0.75652 0.0
C4 C 0.11432 0.32813 0.8188 0.0
C5 C 0.08643 0.32387 0.66308 0.0
C6 C 0.09965 0.20846 0.75288 0.0
C7 C 0.96047 0.25226 0.69485 0.0
C8 C -0.01169 0.2763 0.84921 0.0
C9 C 0.97271 0.14557 0.76153 0.0
O10 O 0.09778 0.34294 0.7913 0.0
O11 O 0.07691 0.28445 0.66096 0.0
O12 O 0.08066 0.20794 0.78873 0.0
O13 O 0.97848 0.28421 0.72148 0.0
O14 O -0.00363 0.24544 0.8513 0.0
O15 O -0.00853 0.16311 0.72518 0.0
O16 O 0.00208 0.30344 0.8175 0.0
O17 O 0.97807 0.23066 0.68097 0.0
O18 O 0.9824 0.16654 0.79807 0.0
O19 O 0.07411 0.3382 0.69519 0.0
O20 O 0.09539 0.28895 0.83275 0.0
O21 O 0.09019 0.21899 0.71567 0.0
Sc22 Sc 0.86158 0.87597 0.69633 0.0
Sc23 Sc 0.86092 0.87429 0.81275 0.0
Sc24 Sc 0.77593 0.7896 0.75331 0.0
O25 O 0.83275 0.84654 0.75413 0.0
C26 C 0.76417 0.8294 0.66196 0.0
C27 C 0.87892 0.95721 0.75341 0.0
C28 C 0.76115 0.84974 0.81902 0.0
C29 C 0.9437 0.89449 0.75696 0.0
C30 C 0.83819 0.77663 0.68892 0.0
C31 C 0.81474 0.77605 0.8445 0.0
O32 O 0.80307 0.86032 0.66005 0.0
O33 O 0.88043 0.93839 0.78869 0.0
O34 O 0.74667 0.81954 0.79006 0.0
O35 O 0.92522 0.8962 0.72159 0.0
O36 O 0.8069 0.76138 0.71664 0.0
O37 O 0.84547 0.81499 0.84762 0.0
O38 O 0.85837 0.81617 0.67594 0.0
O39 O 0.92365 0.88248 0.79405 0.0
O40 O 0.7874 0.76364 0.81316 0.0
O41 O 0.86805 0.93778 0.71594 0.0
O42 O 0.75093 0.80183 0.69319 0.0
O43 O 0.80037 0.86939 0.83275 0.0
Sc44 Sc 0.29967 0.05214 0.75809 0.0
Sc45 Sc 0.216 0.05459 0.69848 0.0
Sc46 Sc 0.21264 0.05059 0.81485 0.0
O47 O 0.2429 0.05252 0.75713 0.0
C48 C 0.2366 0.9753 0.82036 0.0
C49 C 0.26153 0.00187 0.66583 0.0
C50 C 0.13213 -0.01066 0.75131 0.0
C51 C 0.31582 0.12856 0.69365 0.0
C52 C 0.30992 0.1017 0.85055 0.0
C53 C 0.19594 0.11634 0.76049 0.0
O54 O 0.26883 -0.00743 0.79394 0.0
O55 O 0.23224 0.01209 0.66213 0.0
O56 O 0.14928 0.00772 0.78791 0.0
O57 O 0.3296 0.11149 0.72177 0.0
O58 O 0.27056 0.09226 0.85271 0.0
O59 O 0.19553 0.09798 0.72412 0.0
O60 O 0.32415 0.08914 0.81857 0.0
O61 O 0.27654 0.11089 0.68045 0.0
O62 O 0.20645 0.10632 0.79732 0.0
O63 O 0.28793 0.01481 0.69806 0.0
O64 O 0.21554 -0.00632 0.8333 0.0
O65 O 0.15344 -0.00071 0.71497 0.0
Sc66 Sc 0.03776 0.78939 0.2527 0.0
Sc67 Sc 0.04041 0.87638 0.31075 0.0
Sc68 Sc 0.03718 0.8747 0.19417 0.0
O69 O 0.03851 0.8468 0.25253 0.0
C70 C 0.0885 0.82814 0.16055 0.0
C71 C 0.11367 0.84939 0.31716 0.0
C72 C 0.10327 0.9574 0.24845 0.0
C73 C -0.01234 0.77879 0.34492 0.0
C74 C 0.9623 0.77506 0.18831 0.0
C75 C 0.97519 0.89431 0.25633 0.0
O76 O 0.07488 0.80121 0.19242 0.0
O77 O 0.09604 0.87125 0.32993 0.0
O78 O 0.09251 0.93722 0.21142 0.0
O79 O 0.00061 0.76476 0.3131 0.0
O80 O 0.98094 0.8145 0.17533 0.0
O81 O -0.01422 0.88466 0.29332 0.0
O82 O 0.97863 0.76054 0.21643 0.0
O83 O -0.00288 0.81818 0.34728 0.0
O84 O -0.00652 0.8947 0.21993 0.0
O85 O 0.09683 0.81863 0.28901 0.0
O86 O 0.07956 0.85842 0.15757 0.0
O87 O 0.08483 0.93962 0.28481 0.0
Sc88 Sc 0.21295 0.22791 0.31057 0.0
Sc89 Sc 0.21409 0.22701 0.19417 0.0
Sc90 Sc 0.29857 0.3134 0.25223 0.0
O91 O 0.24195 0.25622 0.25233 0.0
C92 C 0.23621 0.32721 0.31565 0.0
C93 C 0.13129 0.2086 0.24873 0.0
C94 C 0.25993 0.32452 0.1597 0.0
C95 C 0.19546 0.1454 0.25591 0.0
C96 C 0.31074 0.27464 0.34424 0.0
C97 C 0.31336 0.25128 0.18936 0.0
O98 O 0.2162 0.28794 0.32933 0.0
O99 O 0.152 0.22021 0.21202 0.0
O100 O 0.28668 0.33823 0.19165 0.0
O101 O 0.20661 0.16578 0.29281 0.0
O102 O 0.32382 0.30181 0.31263 0.0
O103 O 0.27422 0.23075 0.17562 0.0
O104 O 0.27162 0.24428 0.34714 0.0
O105 O 0.19398 0.16343 0.22003 0.0
O106 O 0.32797 0.28294 0.21659 0.0
O107 O 0.14906 0.2072 0.28486 0.0
O108 O 0.26756 0.34219 0.288 0.0
O109 O 0.23003 0.28521 0.15696 0.0
Sc110 Sc 0.86047 0.0497 0.31266 0.0
Sc111 Sc 0.86064 0.05122 0.19628 0.0
Sc112 Sc 0.77587 0.05229 0.25477 0.0
O113 O 0.8322 0.05102 0.25463 0.0
C114 C 0.76024 0.97629 0.31948 0.0
C115 C 0.87906 0.98671 0.25058 0.0
C116 C 0.76274 0.00064 0.1631 0.0
C117 C 0.94296 0.1136 0.2572 0.0
C118 C 0.81543 0.10259 0.34668 0.0
C119 C 0.83784 0.12762 0.19049 0.0
O120 O 0.79987 -0.00656 0.33159 0.0
O121 O 0.86708 -0.00454 0.21392 0.0
O122 O 0.74973 0.01465 0.19488 0.0
O123 O 0.92314 0.10497 0.29451 0.0
O124 O 0.78898 0.09011 0.31453 0.0
O125 O 0.85801 0.10841 0.17717 0.0
O126 O 0.84464 0.09219 0.3499 0.0
O127 O 0.92427 0.09392 0.2217 0.0
O128 O 0.80653 0.1113 0.21807 0.0
O129 O 0.88054 0.00616 0.28654 0.0
O130 O 0.74618 -0.00645 0.29192 0.0
O131 O 0.80174 0.00904 0.1604 0.0
Sc132 Sc 0.70314 0.64721 0.08558 0.0
Sc133 Sc 0.69996 0.55904 0.02969 0.0
Sc134 Sc 0.70585 0.56417 0.14624 0.0
O135 O 0.70298 0.59014 0.08719 0.0
C136 C 0.78087 0.66411 0.14747 0.0
C137 C 0.75187 0.65584 0.99299 0.0
C138 C 0.76635 0.54268 0.08405 0.0
C139 C 0.62527 0.58414 0.02509 0.0
C140 C 0.65456 0.61109 0.17903 0.0
C141 C 0.63881 0.47974 0.09456 0.0
O142 O 0.7629 0.6773 0.11998 0.0
O143 O 0.74244 0.61642 0.99142 0.0
O144 O 0.74884 0.54349 0.12052 0.0
O145 O 0.64316 0.61631 0.0514 0.0
O146 O 0.66387 0.58112 0.18278 0.0
O147 O 0.65646 0.49664 0.05765 0.0
O148 O 0.66757 0.63708 0.14642 0.0
O149 O 0.64323 0.56286 0.01135 0.0
O150 O 0.65025 0.50084 0.1311 0.0
O151 O 0.73901 0.67038 0.02439 0.0
O152 O 0.76291 0.6253 0.1625 0.0
O153 O 0.75515 0.55136 0.04683 0.0
Sc154 Sc 0.44291 0.12273 0.09084 0.0
Sc155 Sc 0.52787 0.20906 0.03253 0.0
Sc156 Sc 0.52727 0.20953 0.14883 0.0
O157 O 0.4992 0.18033 0.09073 0.0
C158 C 0.42739 0.18328 0.15555 0.0
C159 C 0.42984 0.16201 0.9996 0.0
C160 C 0.54606 0.29154 0.08779 0.0
C161 C 0.50473 0.10985 0.02584 0.0
C162 C 0.48188 0.11166 0.18284 0.0
C163 C 0.60973 0.22778 0.09376 0.0
O164 O 0.41333 0.15181 0.12817 0.0
O165 O 0.46892 0.19244 0.99642 0.0
O166 O 0.54771 0.2733 0.12343 0.0
O167 O 0.47359 0.09465 0.05367 0.0
O168 O 0.51118 0.15121 0.18554 0.0
O169 O 0.59168 0.22957 0.05801 0.0
O170 O 0.45551 0.09729 0.15061 0.0
O171 O 0.52496 0.14933 0.01286 0.0
O172 O 0.58938 0.21619 0.13069 0.0
O173 O 0.417 0.13486 0.03124 0.0
O174 O 0.46697 0.20565 0.16776 0.0
O175 O 0.53426 0.2712 0.05088 0.0
Sc176 Sc 0.96519 0.38546 0.09032 0.0
Sc177 Sc 0.88002 0.38561 0.03166 0.0
Sc178 Sc 0.87826 0.38312 0.1483 0.0
O179 O 0.90792 0.38477 0.09011 0.0
C180 C 0.90469 0.30947 0.15505 0.0
C181 C 0.92671 0.33425 0.99858 0.0
C182 C 0.79752 0.31984 0.08601 0.0
C183 C 0.97951 0.46058 0.0252 0.0
C184 C 0.9762 0.43653 0.18182 0.0
C185 C 0.85938 0.44727 0.09324 0.0
O186 O 0.93595 0.32684 0.12751 0.0
O187 O 0.89696 0.34382 0.99509 0.0
O188 O 0.81503 0.33907 0.12214 0.0
O189 O -0.00596 0.44407 0.05307 0.0
O190 O 0.93657 0.42598 0.18527 0.0
O191 O 0.859 0.42837 0.0573 0.0
O192 O -0.00992 0.42377 0.14975 0.0
O193 O 0.93996 0.44236 0.01275 0.0
O194 O 0.87043 0.43816 0.13032 0.0
O195 O 0.95314 0.34737 0.0308 0.0
O196 O 0.88248 0.32682 0.16751 0.0
O197 O 0.81794 0.3298 0.0491 0.0
Sc198 Sc 0.70571 0.20829 0.6467 0.0
Sc199 Sc 0.70101 0.20531 0.53025 0.0
Sc200 Sc 0.70382 0.12139 0.58904 0.0
O201 O 0.70354 0.17834 0.58867 0.0
C202 C 0.78001 0.18263 0.65222 0.0
C203 C 0.76652 0.28942 0.58344 0.0
C204 C 0.75318 0.15988 0.49614 0.0
C205 C 0.63979 0.22564 0.5927 0.0
C206 C 0.65431 0.11098 0.68168 0.0
C207 C 0.62713 0.10507 0.526 0.0
O208 O 0.76158 0.20351 0.66562 0.0
O209 O 0.75541 0.26856 0.54682 0.0
O210 O 0.73971 0.13266 0.52779 0.0
O211 O 0.65101 0.21641 0.62956 0.0
O212 O 0.66803 0.09724 0.65029 0.0
O213 O 0.64533 0.1442 0.512 0.0
O214 O 0.66267 0.15007 0.68343 0.0
O215 O 0.65685 0.22466 0.55594 0.0
O216 O 0.64384 0.0913 0.55444 0.0
O217 O 0.74956 0.2717 0.62036 0.0
O218 O 0.76364 0.15202 0.62388 0.0
O219 O 0.7444 0.1903 0.49406 0.0
Sc220 Sc 0.8778 0.5613 0.64349 0.0
Sc221 Sc 0.87942 0.56046 0.52705 0.0
Sc222 Sc 0.965 0.64552 0.58544 0.0
O223 O 0.90753 0.58922 0.58536 0.0
C224 C 0.90443 0.66153 0.64973 0.0
C225 C 0.79707 0.5438 0.58091 0.0
C226 C 0.92689 0.65855 0.49367 0.0
C227 C 0.85865 0.47825 0.58882 0.0
C228 C 0.97565 0.60585 0.67736 0.0
C229 C 0.97824 0.58283 0.5218 0.0
O230 O 0.882 0.62195 0.66212 0.0
O231 O 0.81786 0.55543 0.54426 0.0
O232 O 0.95326 0.67176 0.52592 0.0
O233 O 0.87031 0.4985 0.62583 0.0
O234 O -0.01029 0.63215 0.64501 0.0
O235 O 0.93882 0.56214 0.50887 0.0
O236 O 0.93595 0.57702 0.68091 0.0
O237 O 0.85742 0.49664 0.55313 0.0
O238 O -0.00666 0.61481 0.54858 0.0
O239 O 0.81459 0.5417 0.61691 0.0
O240 O 0.93595 0.67535 0.62246 0.0
O241 O 0.8972 0.61923 0.49006 0.0
Sc242 Sc 0.52785 0.38541 0.64371 0.0
Sc243 Sc 0.52825 0.38491 0.52736 0.0
Sc244 Sc 0.44145 0.38296 0.58508 0.0
O245 O 0.49905 0.38437 0.58535 0.0
C246 C 0.42922 0.30875 0.65057 0.0
C247 C 0.54796 0.32237 0.58392 0.0
C248 C 0.43063 0.33218 0.49329 0.0
C249 C 0.60939 0.45022 0.58799 0.0
C250 C 0.48016 0.43573 0.67608 0.0
C251 C 0.50175 0.45866 0.52021 0.0
O252 O 0.46855 0.3286 0.66383 0.0
O253 O 0.53646 0.33036 0.5465 0.0
O254 O 0.41673 0.34533 0.52503 0.0
O255 O 0.5892 0.44125 0.62498 0.0
O256 O 0.45277 0.42076 0.64476 0.0
O257 O 0.52318 0.44053 0.50754 0.0
O258 O 0.51099 0.42773 0.67911 0.0
O259 O 0.59177 0.42974 0.55243 0.0
O260 O 0.47062 0.44185 0.54805 0.0
O261 O 0.5491 0.34258 0.6191 0.0
O262 O 0.41378 0.32407 0.62223 0.0
O263 O 0.46991 0.34134 0.49106 0.0
Sc264 Sc 0.36804 0.97831 0.42401 0.0
Sc265 Sc 0.37063 0.89415 0.36575 0.0
Sc266 Sc 0.37225 0.89505 0.48228 0.0
O267 O 0.37024 0.92251 0.42403 0.0
C268 C 0.44589 -0.00479 0.48605 0.0
C269 C 0.41969 -0.00815 0.33223 0.0
C270 C 0.43592 0.87736 0.42098 0.0
C271 C 0.29357 0.91587 0.35987 0.0
C272 C 0.31952 0.93978 0.51697 0.0
C273 C 0.30837 0.81197 0.42741 0.0
O274 O 0.42778 0.00884 0.4591 0.0
O275 O 0.41312 0.95338 0.32982 0.0
O276 O 0.41632 0.87571 0.45679 0.0
O277 O 0.30858 0.94625 0.38855 0.0
O278 O 0.32929 0.91008 0.51937 0.0
O279 O 0.32749 0.83029 0.39141 0.0
O280 O 0.33182 0.9663 0.48482 0.0
O281 O 0.31381 0.89693 0.34594 0.0
O282 O 0.31751 0.83219 0.46446 0.0
O283 O 0.40395 0.00371 0.36333 0.0
O284 O 0.42838 0.95615 0.50032 0.0
O285 O 0.42637 0.88794 0.38391 0.0
Sc286 Sc 0.19486 0.541 0.36366 0.0
Sc287 Sc 0.19281 0.54173 0.48034 0.0
Sc288 Sc 0.10839 0.45574 0.4213 0.0
O289 O 0.16531 0.51274 0.42178 0.0
C290 C 0.09703 0.49585 0.32982 0.0
C291 C 0.21253 0.62368 0.41876 0.0
C292 C 0.09312 0.51617 0.48644 0.0
C293 C 0.27569 0.55892 0.42603 0.0
C294 C 0.16901 0.44107 0.35601 0.0
C295 C 0.14693 0.44335 0.51322 0.0
O296 O 0.13644 0.52566 0.32718 0.0
O297 O 0.21319 0.6055 0.45484 0.0
O298 O 0.07912 0.48505 0.45869 0.0
O299 O 0.2581 0.56019 0.38977 0.0
O300 O 0.13802 0.42677 0.38393 0.0
O301 O 0.17619 0.48289 0.51693 0.0
O302 O 0.19081 0.48073 0.34382 0.0
O303 O 0.25528 0.54871 0.46299 0.0
O304 O 0.12074 0.42983 0.48079 0.0
O305 O 0.20245 0.60364 0.38164 0.0
O306 O 0.08324 0.46883 0.36162 0.0
O307 O 0.13259 0.53815 0.499 0.0
Sc308 Sc 0.54603 0.71921 0.36428 0.0
Sc309 Sc 0.54578 0.71504 0.48046 0.0
Sc310 Sc 0.63273 0.71961 0.4204 0.0
O311 O 0.57498 0.71798 0.42172 0.0
C312 C 0.59328 0.66931 0.32853 0.0
C313 C 0.46379 0.65351 0.41873 0.0
C314 C 0.57214 0.6411 0.48251 0.0
C315 C 0.52728 0.78068 0.42812 0.0
C316 C 0.64492 0.79553 0.35772 0.0
C317 C 0.64396 0.76826 0.51342 0.0
O318 O 0.56267 0.67778 0.32673 0.0
O319 O 0.48201 0.67236 0.45477 0.0
O320 O 0.60429 0.66017 0.45621 0.0
O321 O 0.5256 0.76175 0.39176 0.0
O322 O 0.66036 0.77899 0.38449 0.0
O323 O 0.60416 0.75662 0.51763 0.0
O324 O 0.6054 0.77657 0.34514 0.0
O325 O 0.53872 0.77094 0.46462 0.0
O326 O 0.65806 0.75695 0.48037 0.0
O327 O 0.48414 0.66303 0.3818 0.0
O328 O 0.62062 0.68275 0.35994 0.0
O329 O 0.54984 0.65791 0.49643 0.0
Sc330 Sc 0.37001 0.45576 0.91685 0.0
Sc331 Sc 0.37081 0.54106 0.97634 0.0
Sc332 Sc 0.36974 0.54204 0.85996 0.0
O333 O 0.37019 0.51289 0.91769 0.0
C334 C 0.42092 0.49603 0.82512 0.0
C335 C 0.44505 0.51502 0.98177 0.0
C336 C 0.4341 0.62386 0.91635 0.0
C337 C 0.3192 0.44318 0.00922 0.0
C338 C 0.29533 0.44233 0.8522 0.0
C339 C 0.30678 0.56043 0.9217 0.0
O340 O 0.40691 0.46831 0.85628 0.0
O341 O 0.42656 0.53583 0.99548 0.0
O342 O 0.42473 0.60437 0.87891 0.0
O343 O 0.33311 0.42994 0.9775 0.0
O344 O 0.31358 0.48195 0.83968 0.0
O345 O 0.31611 0.54936 0.95861 0.0
O346 O 0.31131 0.42762 0.88047 0.0
O347 O 0.32734 0.48214 0.01146 0.0
O348 O 0.32587 0.56147 0.8857 0.0
O349 O 0.42895 0.48494 0.95288 0.0
O350 O 0.4128 0.52689 0.82349 0.0
O351 O 0.41502 0.60492 0.95206 0.0
Sc352 Sc 0.54444 0.89441 0.98048 0.0
Sc353 Sc 0.54774 0.89273 0.86381 0.0
Sc354 Sc 0.63142 0.97916 0.9229 0.0
O355 O 0.57454 0.9222 0.92241 0.0
C356 C 0.57007 -0.00563 0.98659 0.0
C357 C 0.46368 0.87415 0.91676 0.0
C358 C 0.59311 -0.00908 0.83063 0.0
C359 C 0.52862 0.81177 0.92656 0.0
C360 C 0.6421 0.93988 0.01497 0.0
C361 C 0.64764 0.9183 0.85925 0.0
O362 O 0.54756 0.95469 0.99861 0.0
O363 O 0.48467 0.88511 0.88014 0.0
O364 O 0.61913 0.00465 0.86319 0.0
O365 O 0.53809 0.83201 0.9636 0.0
O366 O 0.65627 0.96613 0.98259 0.0
O367 O 0.60837 0.89648 0.84595 0.0
O368 O 0.60243 0.911 0.01842 0.0
O369 O 0.52788 0.82947 0.89018 0.0
O370 O 0.66097 0.9497 0.8865 0.0
O371 O 0.48133 0.87375 0.9533 0.0
O372 O 0.6018 0.00845 0.95965 0.0
O373 O 0.56415 0.95128 0.82681 0.0
Sc374 Sc 0.19182 0.7147 0.97595 0.0
Sc375 Sc 0.19411 0.71882 0.85944 0.0
Sc376 Sc 0.108 0.718 0.91766 0.0
O377 O 0.16464 0.71727 0.91768 0.0
C378 C 0.09185 0.64069 0.98027 0.0
C379 C 0.21095 0.65271 0.91363 0.0
C380 C 0.09634 0.66729 0.82556 0.0
C381 C 0.27522 0.78053 0.92207 0.0
C382 C 0.14663 0.7672 0.01048 0.0
C383 C 0.16894 0.79348 0.85323 0.0
O384 O 0.13104 0.65811 0.99386 0.0
O385 O 0.20137 0.66338 0.87663 0.0
O386 O 0.08284 0.6809 0.85728 0.0
O387 O 0.25477 0.76989 0.95903 0.0
O388 O 0.12022 0.75508 0.97821 0.0
O389 O 0.19037 0.77542 0.84038 0.0
O390 O 0.17612 0.75716 0.01298 0.0
O391 O 0.25747 0.76237 0.88561 0.0
O392 O 0.13821 0.77699 0.88141 0.0
O393 O 0.21149 0.67109 0.94994 0.0
O394 O 0.07819 0.65883 0.95352 0.0
O395 O 0.13552 0.67615 0.82308 0.0
C396 C 0.16803 0.15849 0.71852 0.0
C397 C 0.17891 0.14708 0.75958 0.0
C398 C 0.14467 0.18064 0.7164 0.0
C399 C 0.13105 0.19229 0.75526 0.0
H400 H 0.17596 0.14862 0.68748 0.0
H401 H 0.13543 0.18669 0.68405 0.0
S402 S 0.15691 0.17608 0.87127 0.0
N403 N 0.17863 0.15387 0.83995 0.0
N404 N 0.13464 0.19501 0.83635 0.0
C405 C 0.14449 0.18389 0.79657 0.0
C406 C 0.16846 0.16153 0.79864 0.0
C407 C 0.93025 0.07568 0.7196 0.0
C408 C 0.94154 0.09787 0.7607 0.0
C409 C 0.90753 0.0302 0.71736 0.0
C410 C 0.89503 0.00477 0.75613 0.0
H411 H 0.94067 0.09348 0.68859 0.0
H412 H 0.90181 0.01504 0.68496 0.0
S413 S 0.90997 0.04646 0.87206 0.0
N414 N 0.93359 0.09057 0.841 0.0
N415 N 0.8907 0.00529 0.83703 0.0
C416 C 0.90301 0.02646 0.79742 0.0
C417 C 0.92621 0.07287 0.79966 0.0
C418 C 0.01627 0.92229 0.79378 0.0
C419 C -0.0086 0.91136 0.7547 0.0
C420 C 0.06176 0.94527 0.79217 0.0
C421 C 0.08447 0.95822 0.7514 0.0
H422 H 0.00063 0.91503 0.82603 0.0
H423 H 0.07917 0.95443 0.82341 0.0
S424 S 0.03476 0.93186 0.6391 0.0
N425 N -0.00684 0.91104 0.67361 0.0
N426 N 0.07832 0.95389 0.67087 0.0
C427 C 0.06005 0.94459 0.71201 0.0
C428 C 0.0137 0.92134 0.71359 0.0
C429 C 0.93588 0.92752 0.29402 0.0
C430 C 0.94356 0.91017 0.25542 0.0
C431 C 0.9128 0.94991 0.29231 0.0
C432 C 0.89633 0.95609 0.25191 0.0
H433 H 0.94974 0.92588 0.3255 0.0
H434 H 0.90965 0.96417 0.32289 0.0
S435 S 0.90032 0.90952 0.14273 0.0
N436 N 0.92735 0.89504 0.1766 0.0
N437 N 0.8844 0.93752 0.17339 0.0
C438 C 0.90077 0.93585 0.21367 0.0
C439 C 0.92426 0.91289 0.21543 0.0
C440 C 0.14198 0.03007 0.21112 0.0
C441 C 0.13476 0.00486 0.24948 0.0
C442 C 0.16393 0.0755 0.21332 0.0
C443 C 0.17959 0.09784 0.25402 0.0
H444 H 0.12843 0.0147 0.1795 0.0
H445 H 0.16673 0.09304 0.18292 0.0
S446 S 0.17718 0.04696 0.36249 0.0
N447 N 0.15116 0.00561 0.3282 0.0
N448 N 0.19193 0.09097 0.33235 0.0
C449 C 0.17595 0.07309 0.29192 0.0
C450 C 0.15367 0.0267 0.28964 0.0
C451 C 0.06147 0.18173 0.29087 0.0
C452 C 0.0836 0.19179 0.24973 0.0
C453 C 0.01598 0.15878 0.29319 0.0
C454 C -0.00942 0.14474 0.25446 0.0
H455 H 0.07935 0.19007 0.32183 0.0
H456 H 0.00079 0.15019 0.32564 0.0
S457 S 0.03231 0.16822 0.1382 0.0
N458 N 0.0763 0.1901 0.16934 0.0
N459 N -0.00877 0.147 0.17334 0.0
C460 C 0.0123 0.15736 0.21303 0.0
C461 C 0.05861 0.18089 0.21075 0.0
C462 C 0.82588 0.48361 0.05027 0.0
C463 C 0.8425 0.47818 0.09097 0.0
C464 C 0.80383 0.50699 0.0476 0.0
C465 C 0.79741 0.52613 0.08548 0.0
H466 H 0.82812 0.46808 0.02021 0.0
H467 H 0.78974 0.50798 0.01603 0.0
S468 S 0.84152 0.52906 0.19831 0.0
N469 N 0.85587 0.49914 0.16878 0.0
N470 N 0.81494 0.54353 0.1638 0.0
C471 C 0.81686 0.52405 0.12566 0.0
C472 C 0.83924 0.50003 0.12841 0.0
C473 C 0.58058 0.36176 0.13017 0.0
C474 C 0.5625 0.33924 0.09 0.0
C475 C 0.60251 0.40722 0.13233 0.0
C476 C 0.60732 0.43227 0.09446 0.0
H477 H 0.57969 0.34435 0.16005 0.0
H478 H 0.61796 0.42276 0.16331 0.0
S479 S 0.55873 0.38978 0.98341 0.0
N480 N 0.54579 0.34586 0.01304 0.0
N481 N 0.58656 0.43123 0.01712 0.0
C482 C 0.58627 0.41027 0.05503 0.0
C483 C 0.56401 0.36387 0.05278 0.0
C484 C 0.67956 0.25943 0.05103 0.0
C485 C 0.65725 0.24369 0.09175 0.0
C486 C 0.72495 0.28131 0.04875 0.0
C487 C 0.75011 0.28838 0.08706 0.0
H488 H 0.66204 0.25673 0.02069 0.0
H489 H 0.74034 0.29495 0.01714 0.0
S490 S 0.7081 0.24577 0.2001 0.0
N491 N 0.66413 0.23113 0.17005 0.0
N492 N 0.74939 0.27185 0.16574 0.0
C493 C 0.7283 0.26943 0.12725 0.0
C494 C 0.68197 0.2472 0.1296 0.0
C495 C 0.59628 0.25206 0.55091 0.0
C496 C 0.60924 0.24291 0.59201 0.0
C497 C 0.57431 0.2756 0.54852 0.0
C498 C 0.56434 0.29112 0.58712 0.0
H499 H 0.60475 0.24259 0.51995 0.0
H500 H 0.56698 0.28337 0.51602 0.0
S501 S 0.58528 0.27057 0.70347 0.0
N502 N 0.60597 0.24716 0.67243 0.0
N503 N 0.56497 0.2913 0.66828 0.0
C504 C 0.57433 0.27949 0.62864 0.0
C505 C 0.59659 0.2554 0.631 0.0
C506 C 0.809 0.36012 0.62435 0.0
C507 C 0.79696 0.33732 0.58358 0.0
C508 C 0.83111 0.40567 0.6259 0.0
C509 C 0.84213 0.43054 0.58678 0.0
H510 H 0.79973 0.3427 0.65562 0.0
H511 H 0.83771 0.42131 0.65811 0.0
S512 S 0.824 0.38718 0.47125 0.0
N513 N 0.80232 0.34357 0.50308 0.0
N514 N 0.84351 0.42879 0.50571 0.0
C515 C 0.83301 0.40824 0.54572 0.0
C516 C 0.81063 0.36184 0.5442 0.0
C517 C 0.68176 0.49114 0.62516 0.0
C518 C 0.65667 0.48204 0.58648 0.0
C519 C 0.72714 0.51355 0.62311 0.0
C520 C 0.74953 0.52784 0.58225 0.0
H521 H 0.66638 0.4787 0.65706 0.0
H522 H 0.74463 0.51777 0.65385 0.0
S523 S 0.69874 0.5202 0.4724 0.0
N524 N 0.6574 0.4951 0.5069 0.0
N525 N 0.74271 0.53679 0.50302 0.0
C526 C 0.72483 0.52234 0.5438 0.0
C527 C 0.67847 0.49954 0.54592 0.0
C528 C 0.49845 0.82179 0.38603 0.0
C529 C 0.51164 0.81258 0.427 0.0
C530 C 0.4767 0.84547 0.38391 0.0
C531 C 0.46725 0.86117 0.42262 0.0
H532 H 0.5031 0.80894 0.35518 0.0
H533 H 0.4651 0.84926 0.35188 0.0
S534 S 0.50273 0.85434 0.53718 0.0
N535 N 0.5192 0.82687 0.50646 0.0
N536 N 0.47895 0.87195 0.50255 0.0
C537 C 0.48376 0.85576 0.46337 0.0
C538 C 0.50579 0.8314 0.46554 0.0
C539 C 0.27025 0.74216 0.38452 0.0
C540 C 0.27707 0.76429 0.42539 0.0
C541 C 0.24679 0.69672 0.38203 0.0
C542 C 0.22897 0.67127 0.42028 0.0
H543 H 0.28477 0.75988 0.35414 0.0
H544 H 0.24476 0.68153 0.35023 0.0
S545 S 0.22941 0.71273 0.53389 0.0
N546 N 0.25842 0.75692 0.50392 0.0
N547 N 0.21392 0.6716 0.49926 0.0
C548 C 0.23222 0.6929 0.46071 0.0
C549 C 0.25629 0.73929 0.46327 0.0
C550 C 0.34828 0.59296 0.4633 0.0
C551 C 0.32314 0.57492 0.42498 0.0
C552 C 0.39369 0.61615 0.46113 0.0
C553 C 0.4161 0.62241 0.42052 0.0
H554 H 0.33288 0.59137 0.49487 0.0
H555 H 0.41117 0.63095 0.4915 0.0
S556 S 0.36529 0.57413 0.31203 0.0
N557 N 0.32396 0.5592 0.34628 0.0
N558 N 0.40925 0.60312 0.3422 0.0
C559 C 0.39137 0.60146 0.3826 0.0
C560 C 0.345 0.57769 0.38484 0.0
C561 C 0.24544 0.6144 0.87661 0.0
C562 C 0.22715 0.62139 0.91483 0.0
C563 C 0.26895 0.59249 0.879 0.0
C564 C 0.27536 0.57663 0.91975 0.0
H565 H 0.24379 0.62805 0.84498 0.0
H566 H 0.2839 0.58985 0.84869 0.0
S567 S 0.22651 0.5789 0.028 0.0
N568 N 0.21125 0.6049 0.99356 0.0
N569 N 0.25592 0.56424 0.99803 0.0
C570 C 0.25414 0.58024 0.95755 0.0
C571 C 0.22998 0.60246 0.95509 0.0
C572 C 0.49315 0.73865 0.96294 0.0
C573 C 0.51288 0.76437 0.92532 0.0
C574 C 0.46992 0.69325 0.95999 0.0
C575 C 0.46526 0.67148 0.91925 0.0
H576 H 0.49341 0.7536 0.9944 0.0
H577 H 0.45373 0.6753 0.98975 0.0
S578 S 0.5185 0.72398 0.81289 0.0
N579 N 0.5321 0.76481 0.8475 0.0
N580 N 0.48798 0.67951 0.84193 0.0
C581 C 0.48794 0.69679 0.8822 0.0
C582 C 0.5118 0.74313 0.88526 0.0
C583 C 0.34759 0.81929 0.95989 0.0
C584 C 0.3228 0.81173 0.9212 0.0
C585 C 0.39303 0.84156 0.95821 0.0
C586 C 0.41588 0.85729 0.91774 0.0
H587 H 0.33191 0.80593 0.99145 0.0
H588 H 0.41018 0.84467 0.98893 0.0
S589 S 0.36618 0.85326 0.80816 0.0
N590 N 0.32449 0.82729 0.84209 0.0
N591 N 0.40982 0.86865 0.83898 0.0
C592 C 0.39152 0.85294 0.87935 0.0
C593 C 0.34511 0.83032 0.88108 0.0
C594 C 0.13067 0.39902 0.63106 0.0
C595 C 0.10879 0.35365 0.62479 0.0
C596 C 0.14581 0.42794 0.59486 0.0
C597 C 0.13899 0.41276 0.55072 0.0
H598 H 0.13485 0.41237 0.66424 0.0
H599 H 0.16066 0.46239 0.60154 0.0
S600 S 0.08757 0.2974 0.51584 0.0
N601 N 0.08458 0.29523 0.57064 0.0
N602 N 0.11219 0.34948 0.50288 0.0
C603 C 0.11927 0.36764 0.54398 0.0
C604 C 0.10448 0.33817 0.58087 0.0
C605 C 0.6596 0.78232 0.59496 0.0
C606 C 0.67444 0.79133 0.55074 0.0
C607 C 0.68874 0.79683 0.63088 0.0
C608 C 0.73394 0.82171 0.6242 0.0
H609 H 0.62535 0.76168 0.6019 0.0
H610 H 0.67577 0.78708 0.66414 0.0
S611 S 0.78906 0.85904 0.51496 0.0
N612 N 0.73705 0.83005 0.50241 0.0
N613 N 0.79169 0.85801 0.56971 0.0
C614 C 0.74896 0.8336 0.58024 0.0
C615 C 0.7193 0.81819 0.54363 0.0
C616 C 0.26122 0.9858 0.58454 0.0
C617 C 0.26882 0.97843 0.62875 0.0
C618 C 0.27555 0.97103 0.54853 0.0
C619 C 0.29736 0.94752 0.55513 0.0
H620 H 0.24641 0.0054 0.5776 0.0
H621 H 0.27092 0.97955 0.51522 0.0
S622 S 0.32003 0.91453 0.66451 0.0
N623 N 0.29595 0.94258 0.67711 0.0
N624 N 0.3221 0.91413 0.60969 0.0
C625 C 0.30229 0.93719 0.59918 0.0
C626 C 0.28832 0.95287 0.63587 0.0
C627 C 0.41408 0.16156 0.91817 0.0
C628 C 0.39909 0.15415 0.9624 0.0
C629 C 0.38503 0.14648 0.88214 0.0
C630 C 0.33973 0.12412 0.88871 0.0
H631 H 0.4485 0.1768 0.91129 0.0
H632 H 0.39823 0.15107 0.84884 0.0
S633 S 0.28396 0.10131 0.99808 0.0
N634 N 0.33605 0.12628 0.0107 0.0
N635 N 0.28156 0.09885 0.94326 0.0
C636 C 0.32442 0.11925 0.93276 0.0
C637 C 0.35402 0.13394 0.96946 0.0
C638 C 0.94461 0.30792 0.88077 0.0
C639 C 0.96586 0.28387 0.88718 0.0
C640 C 0.92906 0.32133 0.91691 0.0
C641 C 0.9349 0.31201 0.96102 0.0
H642 H 0.94118 0.31772 0.84762 0.0
H643 H 0.91469 0.34139 0.91027 0.0
S644 S -0.01555 0.24643 0.99604 0.0
N645 N -0.01157 0.24814 0.9413 0.0
N646 N 0.96014 0.2742 0.00891 0.0
C647 C 0.95403 0.28612 0.96782 0.0
C648 C 0.96918 0.27179 0.93103 0.0
C649 C 0.79842 0.7308 0.96173 0.0
C650 C 0.77504 0.6855 0.95501 0.0
C651 C 0.81425 0.75996 0.92578 0.0
C652 C 0.80658 0.74506 0.88155 0.0
H653 H 0.8032 0.74393 0.99506 0.0
H654 H 0.83018 0.79444 0.93274 0.0
S655 S 0.75133 0.62983 0.84565 0.0
N656 N 0.74865 0.6273 0.90045 0.0
N657 N 0.77751 0.68203 0.83311 0.0
C658 C 0.78546 0.69992 0.87438 0.0
C659 C 0.77 0.6702 0.91099 0.0
C660 C 0.9281 0.67434 0.41222 0.0
C661 C 0.93483 0.68928 0.45643 0.0
C662 C 0.94321 0.70348 0.37623 0.0
C663 C 0.96493 0.74879 0.38286 0.0
H664 H 0.91339 0.63994 0.40533 0.0
H665 H 0.9392 0.69037 0.34295 0.0
S666 S -0.01443 0.80432 0.49218 0.0
N667 N 0.96115 0.75217 0.50476 0.0
N668 N -0.01129 0.80686 0.43739 0.0
C669 C 0.96903 0.764 0.42686 0.0
C670 C 0.95429 0.73432 0.46352 0.0
C671 C 0.32642 0.27368 0.42558 0.0
C672 C 0.34144 0.28195 0.38137 0.0
C673 C 0.35546 0.28787 0.46165 0.0
C674 C 0.40076 0.31011 0.45509 0.0
H675 H 0.29201 0.25843 0.43249 0.0
H676 H 0.34228 0.28276 0.49499 0.0
S677 S 0.4566 0.33509 0.34567 0.0
N678 N 0.40452 0.31057 0.33304 0.0
N679 N 0.45894 0.33634 0.4005 0.0
C680 C 0.41608 0.31584 0.41099 0.0
C681 C 0.38651 0.30208 0.37429 0.0
C682 C 0.79691 0.12817 0.46461 0.0
C683 C 0.7762 0.15279 0.45829 0.0
C684 C 0.81267 0.11492 0.4285 0.0
C685 C 0.80765 0.12501 0.38444 0.0
H686 H 0.79964 0.1177 0.49767 0.0
H687 H 0.82643 0.09433 0.43506 0.0
S688 S 0.76009 0.19248 0.34966 0.0
N689 N 0.75526 0.19 0.40432 0.0
N690 N 0.78397 0.16431 0.33674 0.0
C691 C 0.78923 0.15158 0.37776 0.0
C692 C 0.77382 0.16571 0.41455 0.0
C693 C 0.68696 0.95848 0.13244 0.0
C694 C 0.73208 0.97773 0.12569 0.0
C695 C 0.65766 0.9432 0.09664 0.0
C696 C 0.6723 0.94727 0.05248 0.0
H697 H 0.67419 0.9566 0.16557 0.0
H698 H 0.62354 0.93059 0.10348 0.0
S699 S 0.78637 -0.00949 0.01667 0.0
N700 N 0.78934 -0.004 0.07125 0.0
N701 N 0.7344 0.96822 0.00423 0.0
C702 C 0.71697 0.96412 0.04539 0.0
C703 C 0.74678 0.97902 0.08187 0.0
C704 C 0.1158 0.81154 0.04254 0.0
C705 C 0.13933 0.78968 0.04872 0.0
C706 C 0.10224 0.82681 0.07882 0.0
C707 C 0.11087 0.82012 0.1229 0.0
H708 H 0.10644 0.8156 0.00941 0.0
H709 H 0.08259 0.84164 0.07228 0.0
S710 S 0.17492 0.76881 0.15754 0.0
N711 N 0.17383 0.76566 0.10275 0.0
N712 N 0.14753 0.79346 0.17059 0.0
C713 C 0.13626 0.80041 0.12953 0.0
C714 C 0.15073 0.78551 0.0926 0.0
C715 C 0.27674 0.36783 0.0414 0.0
C716 C 0.29709 0.41316 0.04738 0.0
C717 C 0.26189 0.33911 0.0778 0.0
C718 C 0.26762 0.35454 0.1218 0.0
H719 H 0.27352 0.35443 0.00836 0.0
H720 H 0.24816 0.30471 0.07147 0.0
S721 S 0.31515 0.46971 0.15586 0.0
N722 N 0.31879 0.47165 0.10111 0.0
N723 N 0.29191 0.41779 0.16915 0.0
C724 C 0.28593 0.39952 0.1282 0.0
C725 C 0.30032 0.42875 0.09115 0.0
C726 C 0.02139 0.46425 0.29917 0.0
C727 C 0.06662 0.48879 0.2923 0.0
C728 C -0.00796 0.45035 0.26339 0.0
C729 C 0.00668 0.4597 0.21912 0.0
H730 H 0.00853 0.4542 0.33241 0.0
H731 H 0.9578 0.42977 0.2704 0.0
S732 S 0.12117 0.52707 0.18288 0.0
N733 N 0.1241 0.5254 0.23756 0.0
N734 N 0.06906 0.49855 0.17061 0.0
C735 C 0.05153 0.48636 0.21188 0.0
C736 C 0.08142 0.50113 0.24833 0.0
C737 C 0.62115 0.6226 0.29634 0.0
C738 C 0.60114 0.64782 0.29004 0.0
C739 C 0.63562 0.60818 0.26009 0.0
C740 C 0.63172 0.6194 0.21608 0.0
H741 H 0.62694 0.61511 0.32967 0.0
H742 H 0.65222 0.59025 0.26685 0.0
S743 S 0.57971 0.68302 0.18147 0.0
N744 N 0.57582 0.68111 0.23618 0.0
N745 N 0.60422 0.65551 0.16841 0.0
C746 C 0.61019 0.64315 0.20932 0.0
C747 C 0.59458 0.65693 0.24614 0.0
C748 C 0.45551 0.03729 0.21534 0.0
C749 C 0.47383 0.08239 0.22152 0.0
C750 C 0.44085 0.00835 0.25161 0.0
C751 C 0.44278 0.02325 0.29543 0.0
H752 H 0.45121 0.02412 0.18207 0.0
H753 H 0.4256 0.97388 0.24493 0.0
S754 S 0.48951 0.13845 0.32975 0.0
N755 N 0.49528 0.14065 0.27523 0.0
N756 N 0.46633 0.08651 0.34284 0.0
C757 C 0.46248 0.06842 0.3021 0.0
C758 C 0.47837 0.09789 0.26536 0.0
C759 C 0.61011 0.03566 0.71305 0.0
C760 C 0.63157 0.08097 0.7196 0.0
C761 C 0.59475 0.00654 0.74906 0.0
C762 C 0.60095 0.02152 0.79325 0.0
H763 H 0.60648 0.02254 0.67982 0.0
H764 H 0.5803 0.97216 0.74224 0.0
S765 S 0.65098 0.13662 0.82869 0.0
N766 N 0.65463 0.13909 0.77393 0.0
N767 N 0.62659 0.08449 0.84139 0.0
C768 C 0.62016 0.06657 0.80022 0.0
C769 C 0.63517 0.09622 0.76352 0.0
C770 C 0.02068 0.62355 0.79484 0.0
C771 C 0.0659 0.64417 0.78802 0.0
C772 C -0.00863 0.60806 0.75902 0.0
C773 C 0.00606 0.61327 0.71477 0.0
H774 H 0.0078 0.62074 0.82808 0.0
H775 H 0.95712 0.59441 0.76598 0.0
S776 S 0.12061 0.66037 0.67871 0.0
N777 N 0.12346 0.66502 0.73338 0.0
N778 N 0.06852 0.63677 0.66636 0.0
C779 C 0.05093 0.63146 0.7076 0.0
C780 C 0.08076 0.6466 0.74408 0.0
C781 C 0.48024 0.45139 0.75733 0.0
C782 C 0.47235 0.45867 0.71319 0.0
C783 C 0.46553 0.46563 0.79346 0.0
C784 C 0.44319 0.48859 0.78697 0.0
H785 H 0.49556 0.43224 0.76411 0.0
H786 H 0.47036 0.45721 0.82675 0.0
S787 S 0.41917 0.52075 0.67782 0.0
N788 N 0.44401 0.49347 0.665 0.0
N789 N 0.41731 0.52115 0.73266 0.0
C790 C 0.43785 0.49875 0.74298 0.0
C791 C 0.4521 0.48351 0.70619 0.0
C792 C 0.17755 0.40164 0.82993 0.0
C793 C 0.16017 0.35642 0.82944 0.0
C794 C 0.22203 0.42961 0.83476 0.0
C795 C 0.25043 0.41314 0.83906 0.0
H796 H 0.15661 0.41549 0.82668 0.0
H797 H 0.23399 0.4642 0.83667 0.0
S798 S 0.22183 0.29771 0.83466 0.0
N799 N 0.17506 0.29658 0.83013 0.0
N800 N 0.25893 0.34944 0.8394 0.0
C801 C 0.23368 0.36812 0.83734 0.0
C802 C 0.18841 0.33963 0.83263 0.0
C803 C 0.68881 0.8448 0.81891 0.0
C804 C 0.73246 0.86661 0.83262 0.0
C805 C 0.66214 0.86257 0.8261 0.0
C806 C 0.67795 0.9029 0.84736 0.0
H807 H 0.67503 0.81383 0.80198 0.0
H808 H 0.62865 0.84405 0.81542 0.0
S809 S 0.78995 0.97343 0.88985 0.0
N810 N 0.79032 0.93082 0.86878 0.0
N811 N 0.74032 0.96444 0.88196 0.0
C812 C 0.72159 0.92516 0.86133 0.0
C813 C 0.74871 0.9069 0.85424 0.0
C814 C 0.22928 0.86661 0.8341 0.0
C815 C 0.18461 0.83863 0.8405 0.0
C816 C 0.24613 0.9112 0.82927 0.0
C817 C 0.21888 0.92922 0.83077 0.0
H818 H 0.25163 0.85425 0.83431 0.0
H819 H 0.28077 0.93169 0.82442 0.0
S820 S 0.09889 0.86893 0.84214 0.0
N821 N 0.11302 0.8313 0.84508 0.0
N822 N 0.14461 0.91531 0.8358 0.0
C823 C 0.17395 0.9014 0.83609 0.0
C824 C 0.15683 0.85601 0.84085 0.0
C825 C 0.35602 0.24488 0.66187 0.0
C826 C 0.40127 0.26344 0.66429 0.0
C827 C 0.32863 0.20074 0.66979 0.0
C828 C 0.34555 0.17359 0.68038 0.0
H829 H 0.34159 0.26458 0.65366 0.0
H830 H 0.29393 0.18809 0.6686 0.0
S831 S 0.46171 0.20551 0.68783 0.0
N832 N 0.46194 0.25095 0.676 0.0
N833 N 0.41014 0.16771 0.69109 0.0
C834 C 0.39071 0.19154 0.68245 0.0
C835 C 0.41867 0.23657 0.67447 0.0
C836 C 0.85253 0.19171 0.63712 0.0
C837 C 0.82504 0.19845 0.6656 0.0
C838 C 0.89662 0.21014 0.64622 0.0
C839 C 0.91475 0.23601 0.68403 0.0
H840 H 0.84022 0.17292 0.60688 0.0
H841 H 0.91663 0.20422 0.62334 0.0
S842 S 0.8558 0.26025 0.7713 0.0
N843 N 0.81835 0.23054 0.73439 0.0
N844 N 0.90143 0.26523 0.75189 0.0
C845 C 0.88746 0.24235 0.71334 0.0
C846 C 0.84252 0.22349 0.70405 0.0
C847 C 0.82893 0.70294 0.68058 0.0
C848 C 0.85536 0.74816 0.67604 0.0
C849 C 0.84561 0.67526 0.67389 0.0
C850 C 0.88939 0.69176 0.66242 0.0
H851 H 0.79504 0.68872 0.68954 0.0
H852 H 0.82366 0.64061 0.67669 0.0
S853 S 0.97297 0.80781 0.64906 0.0
N854 N 0.92801 0.80838 0.66106 0.0
N855 N 0.95936 0.75616 0.64848 0.0
C856 C 0.91637 0.73694 0.65827 0.0
C857 C 0.89934 0.76517 0.66491 0.0
C858 C 0.89096 0.70864 0.20034 0.0
C859 C 0.91706 0.74607 0.1749 0.0
C860 C 0.8467 0.68307 0.19209 0.0
C861 C 0.82679 0.69387 0.15809 0.0
H862 H 0.90447 0.69937 0.22764 0.0
H863 H 0.82805 0.6546 0.21261 0.0
S864 S 0.88139 0.78721 0.07993 0.0
N865 N 0.92033 0.79174 0.11305 0.0
N866 N 0.83698 0.74372 0.0973 0.0
C867 C 0.85264 0.73096 0.13188 0.0
C868 C 0.89781 0.75695 0.14026 0.0
C869 C 0.38685 0.26026 0.18187 0.0
C870 C 0.34167 0.23353 0.17859 0.0
C871 C 0.41435 0.2432 0.17662 0.0
C872 C 0.39759 0.19877 0.168 0.0
H873 H 0.40114 0.29468 0.18849 0.0
H874 H 0.44904 0.26532 0.178 0.0
S875 S 0.28142 0.11417 0.16059 0.0
N876 N 0.28112 0.15986 0.1691 0.0
N877 N 0.33305 0.12784 0.1591 0.0
C878 C 0.35242 0.17144 0.16568 0.0
C879 C 0.32439 0.18882 0.17086 0.0
C880 C 0.82848 0.19199 0.18254 0.0
C881 C 0.85522 0.17349 0.17865 0.0
C882 C 0.84526 0.23652 0.17705 0.0
C883 C 0.88943 0.26416 0.1675 0.0
H884 H 0.79426 0.17194 0.19002 0.0
H885 H 0.82313 0.24907 0.17909 0.0
S886 S 0.97388 0.23257 0.15724 0.0
N887 N 0.92855 0.1866 0.16684 0.0
N888 N 0.96009 0.27048 0.15651 0.0
C889 C 0.91672 0.24627 0.16426 0.0
C890 C 0.8996 0.20087 0.16965 0.0
C891 C 0.74646 0.90306 0.34005 0.0
C892 C 0.73021 0.93131 0.33263 0.0
C893 C 0.71847 0.85876 0.34643 0.0
C894 C 0.67328 0.84119 0.34559 0.0
H895 H 0.78105 0.91495 0.33967 0.0
H896 H 0.73238 0.83813 0.35208 0.0
S897 S 0.61452 0.90216 0.33133 0.0
N898 N 0.66631 0.93928 0.32721 0.0
N899 N 0.61344 0.85574 0.33953 0.0
C900 C 0.65654 0.86919 0.33895 0.0
C901 C 0.6851 0.91436 0.33253 0.0
C902 C 0.18556 0.90843 0.34151 0.0
C903 C 0.15854 0.86444 0.33068 0.0
C904 C 0.22966 0.92514 0.34922 0.0
C905 C 0.2483 0.89849 0.34639 0.0
H906 H 0.17289 0.93049 0.34299 0.0
H907 H 0.24928 0.95924 0.35755 0.0
S908 S 0.19086 0.78029 0.32223 0.0
N909 N 0.15294 0.794 0.31935 0.0
N910 N 0.23615 0.82548 0.33419 0.0
C911 C 0.2216 0.85429 0.33607 0.0
C912 C 0.17659 0.83722 0.32826 0.0
C913 C 0.22824 0.42821 0.33145 0.0
C914 C 0.18425 0.41133 0.34222 0.0
C915 C 0.24512 0.40075 0.3243 0.0
C916 C 0.21866 0.35547 0.32776 0.0
H917 H 0.2502 0.46294 0.32975 0.0
H918 H 0.27922 0.41517 0.31614 0.0
S919 S 0.10029 0.2949 0.35108 0.0
N920 N 0.11389 0.34654 0.35334 0.0
N921 N 0.14558 0.29475 0.3398 0.0
C922 C 0.17435 0.33808 0.33762 0.0
C923 C 0.15714 0.36606 0.34474 0.0
C924 C 0.04442 0.53265 0.03843 0.0
C925 C 0.00888 0.50551 0.01123 0.0
C926 C 0.07052 0.57664 0.02881 0.0
C927 C 0.06197 0.59508 0.99173 0.0
H928 H 0.05169 0.52016 0.06806 0.0
H929 H 0.09747 0.59632 0.05071 0.0
S930 S 0.97497 0.53705 0.90783 0.0
N931 N 0.96783 0.49946 0.94441 0.0
N932 N 0.01699 0.58233 0.92594 0.0
C933 C 0.02694 0.56813 0.96372 0.0
C934 C 0.00042 0.52327 0.97353 0.0
C935 C 0.51778 0.52474 0.96626 0.0
C936 C 0.48993 0.53036 0.99533 0.0
C937 C 0.5618 0.54291 0.97569 0.0
C938 C 0.57946 0.56745 0.01437 0.0
H939 H 0.50582 0.50711 0.93533 0.0
H940 H 0.58217 0.53802 0.95234 0.0
S941 S 0.51913 0.58735 0.1036 0.0
N942 N 0.48219 0.55925 0.06568 0.0
N943 N 0.56514 0.59348 0.08387 0.0
C944 C 0.55171 0.57235 0.04435 0.0
C945 C 0.50686 0.55374 0.03471 0.0
C946 C 0.49448 0.03613 0.01508 0.0
C947 C 0.52175 0.08138 0.01297 0.0
C948 C 0.51084 0.00818 0.00838 0.0
C949 C 0.55507 0.02453 0.99938 0.0
H950 H 0.4602 0.02212 0.0221 0.0
H951 H 0.48836 0.97352 0.00919 0.0
S952 S 0.64073 0.14059 0.99361 0.0
N953 N 0.59556 0.14146 1.00345 0.0
N954 N 0.62633 0.08876 0.99066 0.0
C955 C 0.58287 0.06975 0.99776 0.0
C956 C 0.56619 0.09824 0.00446 0.0
C957 C 0.55407 0.04351 0.54364 0.0
C958 C 0.58188 0.07577 0.51349 0.0
C959 C 0.50977 0.01826 0.53513 0.0
C960 C 0.49181 0.02454 0.49631 0.0
H961 H 0.56634 0.03839 0.57465 0.0
H962 H 0.48946 -0.0062 0.5592 0.0
S963 S 0.55182 0.1017 0.40467 0.0
N964 N 0.58917 0.11073 0.44216 0.0
N965 N 0.50574 0.06311 0.42571 0.0
C966 C 0.51948 0.05607 0.46538 0.0
C967 C 0.56459 0.08169 0.47407 0.0
C968 C 0.0519 0.59272 0.51201 0.0
C969 C 0.00668 0.56535 0.51047 0.0
C970 C 0.07977 0.57612 0.50641 0.0
C971 C 0.06333 0.53155 0.49915 0.0
H972 H 0.06592 0.62728 0.51758 0.0
H973 H 0.11441 0.59861 0.50646 0.0
S974 S 0.94759 0.44553 0.49653 0.0
N975 N 0.94668 0.49105 0.50407 0.0
N976 N -0.00067 0.45991 0.49337 0.0
C977 C 0.01823 0.50365 0.49851 0.0
C978 C -0.01018 0.52054 0.50406 0.0
C979 C 0.52522 0.57433 0.52608 0.0
C980 C 0.55631 0.59501 0.49252 0.0
C981 C 0.50641 0.52983 0.53338 0.0
C982 C 0.51796 0.50419 0.50744 0.0
H983 H 0.51519 0.59259 0.54694 0.0
H984 H 0.48336 0.51578 0.56042 0.0
S985 S 0.59595 0.54198 0.41344 0.0
N986 N 0.59666 0.58608 0.43165 0.0
N987 N 0.56117 0.50228 0.4457 0.0
C988 C 0.54857 0.52424 0.47331 0.0
C989 C 0.56787 0.56968 0.46586 0.0
loop_
_geom_bond_atom_site_label_1
_geom_bond_atom_site_label_2
_geom_bond_distance
_geom_bond_site_symmetry_2
_ccdc_geom_bond_type
Sc0 O3 2.025 . S
Sc0 O10 2.105 . S
Sc0 O13 2.105 1_455 S
Sc0 O16 2.105 . S
Sc0 O19 2.105 . S
Sc1 O3 2.025 . S
Sc1 O11 2.105 . S
Sc1 O15 2.105 1_455 S
Sc1 O17 2.105 1_455 S
Sc1 O21 2.105 . S
Sc2 O3 2.025 . S
Sc2 O12 2.105 . S
Sc2 O14 2.105 . S
Sc2 O18 2.105 . S
Sc2 O20 2.105 . S
O3 Sc0 2.025 . S
O3 Sc1 2.025 . S
O3 Sc2 2.025 . S
C4 O10 1.268 . S
C4 O20 1.268 . S
C5 O11 1.268 . S
C5 O19 1.268 . S
C6 O12 1.268 . S
C6 O21 1.268 . S
C7 O13 1.268 . S
C7 O17 1.268 . S
C8 O14 1.268 . S
C8 O16 1.268 . S
C9 O15 1.268 . S
C9 O18 1.268 1_655 S
O10 Sc0 2.105 . S
O10 C4 1.268 . S
O11 Sc1 2.105 . S
O11 C5 1.268 . S
O12 Sc2 2.105 . S
O12 C6 1.268 . S
O13 Sc0 2.105 1_655 S
O13 C7 1.268 . S
O14 Sc2 2.105 . S
O14 C8 1.268 . S
O15 Sc1 2.105 1_655 S
O15 C9 1.268 . S
O16 Sc0 2.105 . S
O16 C8 1.268 . S
O17 Sc1 2.105 1_655 S
O17 C7 1.268 . S
O18 Sc2 2.105 . S
O18 C9 1.268 1_455 S
O19 Sc0 2.105 . S
O19 C5 1.268 . S
O20 Sc2 2.105 . S
O20 C4 1.268 . S
O21 Sc1 2.105 . S
O21 C6 1.268 . S
Sc22 O25 2.025 . S
Sc22 O32 2.105 . S
Sc22 O35 2.105 . S
Sc22 O38 2.105 . S
Sc22 O41 2.105 . S
Sc23 O25 2.025 . S
Sc23 O33 2.105 . S
Sc23 O37 2.105 . S
Sc23 O39 2.105 . S
Sc23 O43 2.105 . S
Sc24 O25 2.025 . S
Sc24 O34 2.105 . S
Sc24 O36 2.105 . S
Sc24 O40 2.105 . S
Sc24 O42 2.105 . S
O25 Sc22 2.025 . S
O25 Sc23 2.025 . S
O25 Sc24 2.025 . S
C26 O32 1.268 . S
C26 O42 1.268 . S
C27 O33 1.268 . S
C27 O41 1.268 . S
C28 O34 1.268 . S
C28 O43 1.268 . S
C29 O35 1.268 . S
C29 O39 1.268 . S
C30 O36 1.268 . S
C30 O38 1.268 . S
C31 O37 1.268 . S
C31 O40 1.268 . S
O32 Sc22 2.105 . S
O32 C26 1.268 . S
O33 Sc23 2.105 . S
O33 C27 1.268 . S
O34 Sc24 2.105 . S
O34 C28 1.268 . S
O35 Sc22 2.105 . S
O35 C29 1.268 . S
O36 Sc24 2.105 . S
O36 C30 1.268 . S
O37 Sc23 2.105 . S
O37 C31 1.268 . S
O38 Sc22 2.105 . S
O38 C30 1.268 . S
O39 Sc23 2.105 . S
O39 C29 1.268 . S
O40 Sc24 2.105 . S
O40 C31 1.268 . S
O41 Sc22 2.105 . S
O41 C27 1.268 . S
O42 Sc24 2.105 . S
O42 C26 1.268 . S
O43 Sc23 2.105 . S
O43 C28 1.268 . S
Sc44 O47 2.025 . S
Sc44 O54 2.105 1_545 S
Sc44 O57 2.105 . S
Sc44 O60 2.105 . S
Sc44 O63 2.105 . S
Sc45 O47 2.025 . S
Sc45 O55 2.105 . S
Sc45 O59 2.105 . S
Sc45 O61 2.105 . S
Sc45 O65 2.105 . S
Sc46 O47 2.025 . S
Sc46 O56 2.105 . S
Sc46 O58 2.105 . S
Sc46 O62 2.105 . S
Sc46 O64 2.105 1_545 S
O47 Sc44 2.025 . S
O47 Sc45 2.025 . S
O47 Sc46 2.025 . S
C48 O54 1.268 . S
C48 O64 1.268 . S
C49 O55 1.268 . S
C49 O63 1.268 . S
C50 O56 1.268 1_565 S
C50 O65 1.268 1_565 S
C51 O57 1.268 . S
C51 O61 1.268 . S
C52 O58 1.268 . S
C52 O60 1.268 . S
C53 O59 1.268 . S
C53 O62 1.268 . S
O54 Sc44 2.105 1_565 S
O54 C48 1.268 . S
O55 Sc45 2.105 . S
O55 C49 1.268 . S
O56 Sc46 2.105 . S
O56 C50 1.268 1_545 S
O57 Sc44 2.105 . S
O57 C51 1.268 . S
O58 Sc46 2.105 . S
O58 C52 1.268 . S
O59 Sc45 2.105 . S
O59 C53 1.268 . S
O60 Sc44 2.105 . S
O60 C52 1.268 . S
O61 Sc45 2.105 . S
O61 C51 1.268 . S
O62 Sc46 2.105 . S
O62 C53 1.268 . S
O63 Sc44 2.105 . S
O63 C49 1.268 . S
O64 Sc46 2.105 1_565 S
O64 C48 1.268 . S
O65 Sc45 2.105 . S
O65 C50 1.268 1_545 S
Sc66 O69 2.025 . S
Sc66 O76 2.105 . S
Sc66 O79 2.105 . S
Sc66 O82 2.105 1_455 S
Sc66 O85 2.105 . S
Sc67 O69 2.025 . S
Sc67 O77 2.105 . S
Sc67 O81 2.105 . S
Sc67 O83 2.105 . S
Sc67 O87 2.105 . S
Sc68 O69 2.025 . S
Sc68 O78 2.105 . S
Sc68 O80 2.105 1_455 S
Sc68 O84 2.105 1_455 S
Sc68 O86 2.105 . S
O69 Sc66 2.025 . S
O69 Sc67 2.025 . S
O69 Sc68 2.025 . S
C70 O76 1.268 . S
C70 O86 1.268 . S
C71 O77 1.268 . S
C71 O85 1.268 . S
C72 O78 1.268 . S
C72 O87 1.268 . S
C73 O79 1.268 . S
C73 O83 1.268 . S
C74 O80 1.268 . S
C74 O82 1.268 . S
C75 O81 1.268 1_655 S
C75 O84 1.268 . S
O76 Sc66 2.105 . S
O76 C70 1.268 . S
O77 Sc67 2.105 . S
O77 C71 1.268 . S
O78 Sc68 2.105 . S
O78 C72 1.268 . S
O79 Sc66 2.105 . S
O79 C73 1.268 . S
O80 Sc68 2.105 1_655 S
O80 C74 1.268 . S
O81 Sc67 2.105 . S
O81 C75 1.268 1_455 S
O82 Sc66 2.105 1_655 S
O82 C74 1.268 . S
O83 Sc67 2.105 . S
O83 C73 1.268 . S
O84 Sc68 2.105 1_655 S
O84 C75 1.268 . S
O85 Sc66 2.105 . S
O85 C71 1.268 . S
O86 Sc68 2.105 . S
O86 C70 1.268 . S
O87 Sc67 2.105 . S
O87 C72 1.268 . S
Sc88 O91 2.025 . S
Sc88 O98 2.105 . S
Sc88 O101 2.105 . S
Sc88 O104 2.105 . S
Sc88 O107 2.105 . S
Sc89 O91 2.025 . S
Sc89 O99 2.105 . S
Sc89 O103 2.105 . S
Sc89 O105 2.105 . S
Sc89 O109 2.105 . S
Sc90 O91 2.025 . S
Sc90 O100 2.105 . S
Sc90 O102 2.105 . S
Sc90 O106 2.105 . S
Sc90 O108 2.105 . S
O91 Sc88 2.025 . S
O91 Sc89 2.025 . S
O91 Sc90 2.025 . S
C92 O98 1.268 . S
C92 O108 1.268 . S
C93 O99 1.268 . S
C93 O107 1.268 . S
C94 O100 1.268 . S
C94 O109 1.268 . S
C95 O101 1.268 . S
C95 O105 1.268 . S
C96 O102 1.268 . S
C96 O104 1.268 . S
C97 O103 1.268 . S
C97 O106 1.268 . S
O98 Sc88 2.105 . S
O98 C92 1.268 . S
O99 Sc89 2.105 . S
O99 C93 1.268 . S
O100 Sc90 2.105 . S
O100 C94 1.268 . S
O101 Sc88 2.105 . S
O101 C95 1.268 . S
O102 Sc90 2.105 . S
O102 C96 1.268 . S
O103 Sc89 2.105 . S
O103 C97 1.268 . S
O104 Sc88 2.105 . S
O104 C96 1.268 . S
O105 Sc89 2.105 . S
O105 C95 1.268 . S
O106 Sc90 2.105 . S
O106 C97 1.268 . S
O107 Sc88 2.105 . S
O107 C93 1.268 . S
O108 Sc90 2.105 . S
O108 C92 1.268 . S
O109 Sc89 2.105 . S
O109 C94 1.268 . S
Sc110 O113 2.025 . S
Sc110 O120 2.105 1_545 S
Sc110 O123 2.105 . S
Sc110 O126 2.105 . S
Sc110 O129 2.105 . S
Sc111 O113 2.025 . S
Sc111 O121 2.105 . S
Sc111 O125 2.105 . S
Sc111 O127 2.105 . S
Sc111 O131 2.105 . S
Sc112 O113 2.025 . S
Sc112 O122 2.105 . S
Sc112 O124 2.105 . S
Sc112 O128 2.105 . S
Sc112 O130 2.106 1_545 S
O113 Sc110 2.025 . S
O113 Sc111 2.025 . S
O113 Sc112 2.025 . S
C114 O120 1.268 . S
C114 O130 1.267 . S
C115 O121 1.268 1_565 S
C115 O129 1.268 1_565 S
C116 O122 1.268 . S
C116 O131 1.268 . S
C117 O123 1.268 . S
C117 O127 1.268 . S
C118 O124 1.268 . S
C118 O126 1.268 . S
C119 O125 1.268 . S
C119 O128 1.268 . S
O120 Sc110 2.105 1_565 S
O120 C114 1.268 . S
O121 Sc111 2.105 . S
O121 C115 1.268 1_545 S
O122 Sc112 2.105 . S
O122 C116 1.268 . S
O123 Sc110 2.105 . S
O123 C117 1.268 . S
O124 Sc112 2.105 . S
O124 C118 1.268 . S
O125 Sc111 2.105 . S
O125 C119 1.268 . S
O126 Sc110 2.105 . S
O126 C118 1.268 . S
O127 Sc111 2.105 . S
O127 C117 1.268 . S
O128 Sc112 2.105 . S
O128 C119 1.268 . S
O129 Sc110 2.105 . S
O129 C115 1.268 1_545 S
O130 Sc112 2.106 1_565 S
O130 C114 1.267 . S
O131 Sc111 2.105 . S
O131 C116 1.268 . S
Sc132 O135 2.025 . S
Sc132 O142 2.105 . S
Sc132 O145 2.105 . S
Sc132 O148 2.105 . S
Sc132 O151 2.105 . S
Sc133 O135 2.025 . S
Sc133 O143 2.105 1_554 S
Sc133 O147 2.105 . S
Sc133 O149 2.105 . S
Sc133 O153 2.105 . S
Sc134 O135 2.025 . S
Sc134 O144 2.105 . S
Sc134 O146 2.105 . S
Sc134 O150 2.105 . S
Sc134 O152 2.105 . S
O135 Sc132 2.025 . S
O135 Sc133 2.025 . S
O135 Sc134 2.025 . S
C136 O142 1.268 . S
C136 O152 1.268 . S
C137 O143 1.268 . S
C137 O151 1.268 1_556 S
C138 O144 1.268 . S
C138 O153 1.268 . S
C139 O145 1.268 . S
C139 O149 1.268 . S
C140 O146 1.268 . S
C140 O148 1.268 . S
C141 O147 1.268 . S
C141 O150 1.268 . S
O142 Sc132 2.105 . S
O142 C136 1.268 . S
O143 Sc133 2.105 1_556 S
O143 C137 1.268 . S
O144 Sc134 2.105 . S
O144 C138 1.268 . S
O145 Sc132 2.105 . S
O145 C139 1.268 . S
O146 Sc134 2.105 . S
O146 C140 1.268 . S
O147 Sc133 2.105 . S
O147 C141 1.268 . S
O148 Sc132 2.105 . S
O148 C140 1.268 . S
O149 Sc133 2.105 . S
O149 C139 1.268 . S
O150 Sc134 2.105 . S
O150 C141 1.268 . S
O151 Sc132 2.105 . S
O151 C137 1.268 1_554 S
O152 Sc134 2.105 . S
O152 C136 1.268 . S
O153 Sc133 2.105 . S
O153 C138 1.268 . S
Sc154 O157 2.025 . S
Sc154 O164 2.105 . S
Sc154 O167 2.105 . S
Sc154 O170 2.105 . S
Sc154 O173 2.105 . S
Sc155 O157 2.025 . S
Sc155 O165 2.105 1_554 S
Sc155 O169 2.105 . S
Sc155 O171 2.105 . S
Sc155 O175 2.105 . S
Sc156 O157 2.025 . S
Sc156 O166 2.105 . S
Sc156 O168 2.105 . S
Sc156 O172 2.105 . S
Sc156 O174 2.105 . S
O157 Sc154 2.025 . S
O157 Sc155 2.025 . S
O157 Sc156 2.025 . S
C158 O164 1.268 . S
C158 O174 1.268 . S
C159 O165 1.268 . S
C159 O173 1.268 1_556 S
C160 O166 1.268 . S
C160 O175 1.268 . S
C161 O167 1.268 . S
C161 O171 1.268 . S
C162 O168 1.268 . S
C162 O170 1.268 . S
C163 O169 1.268 . S
C163 O172 1.268 . S
O164 Sc154 2.105 . S
O164 C158 1.268 . S
O165 Sc155 2.105 1_556 S
O165 C159 1.268 . S
O166 Sc156 2.105 . S
O166 C160 1.268 . S
O167 Sc154 2.105 . S
O167 C161 1.268 . S
O168 Sc156 2.105 . S
O168 C162 1.268 . S
O169 Sc155 2.105 . S
O169 C163 1.268 . S
O170 Sc154 2.105 . S
O170 C162 1.268 . S
O171 Sc155 2.105 . S
O171 C161 1.268 . S
O172 Sc156 2.105 . S
O172 C163 1.268 . S
O173 Sc154 2.105 . S
O173 C159 1.268 1_554 S
O174 Sc156 2.105 . S
O174 C158 1.268 . S
O175 Sc155 2.105 . S
O175 C160 1.268 . S
Sc176 O179 2.025 . S
Sc176 O186 2.105 . S
Sc176 O189 2.105 1_655 S
Sc176 O192 2.106 . S
Sc176 O195 2.105 . S
Sc177 O179 2.025 . S
Sc177 O187 2.105 1_554 S
Sc177 O191 2.105 . S
Sc177 O193 2.105 . S
Sc177 O197 2.105 . S
Sc178 O179 2.025 . S
Sc178 O188 2.105 . S
Sc178 O190 2.105 . S
Sc178 O194 2.105 . S
Sc178 O196 2.105 . S
O179 Sc176 2.025 . S
O179 Sc177 2.025 . S
O179 Sc178 2.025 . S
C180 O186 1.268 . S
C180 O196 1.268 . S
C181 O187 1.268 . S
C181 O195 1.268 1_556 S
C182 O188 1.268 . S
C182 O197 1.268 . S
C183 O189 1.268 . S
C183 O193 1.268 1_455 S
C184 O190 1.268 . S
C184 O192 1.276 . S
C185 O191 1.268 . S
C185 O194 1.268 . S
O186 Sc176 2.105 . S
O186 C180 1.268 . S
O187 Sc177 2.105 1_556 S
O187 C181 1.268 . S
O188 Sc178 2.105 . S
O188 C182 1.268 . S
O189 Sc176 2.105 1_455 S
O189 C183 1.268 . S
O190 Sc178 2.105 . S
O190 C184 1.268 . S
O191 Sc177 2.105 . S
O191 C185 1.268 . S
O192 Sc176 2.106 . S
O192 C184 1.276 . S
O193 Sc177 2.105 . S
O193 C183 1.268 1_655 S
O194 Sc178 2.105 . S
O194 C185 1.268 . S
O195 Sc176 2.105 . S
O195 C181 1.268 1_554 S
O196 Sc178 2.105 . S
O196 C180 1.268 . S
O197 Sc177 2.105 . S
O197 C182 1.268 . S
Sc198 O201 2.025 . S
Sc198 O208 2.105 . S
Sc198 O211 2.105 . S
Sc198 O214 2.105 . S
Sc198 O217 2.105 . S
Sc199 O201 2.025 . S
Sc199 O209 2.105 . S
Sc199 O213 2.105 . S
Sc199 O215 2.105 . S
Sc199 O219 2.105 . S
Sc200 O201 2.025 . S
Sc200 O210 2.105 . S
Sc200 O212 2.105 . S
Sc200 O216 2.105 . S
Sc200 O218 2.105 . S
O201 Sc198 2.025 . S
O201 Sc199 2.025 . S
O201 Sc200 2.025 . S
C202 O208 1.268 . S
C202 O218 1.268 . S
C203 O209 1.268 . S
C203 O217 1.268 . S
C204 O210 1.268 . S
C204 O219 1.268 . S
C205 O211 1.268 . S
C205 O215 1.268 . S
C206 O212 1.268 . S
C206 O214 1.268 . S
C207 O213 1.268 . S
C207 O216 1.268 . S
O208 Sc198 2.105 . S
O208 C202 1.268 . S
O209 Sc199 2.105 . S
O209 C203 1.268 . S
O210 Sc200 2.105 . S
O210 C204 1.268 . S
O211 Sc198 2.105 . S
O211 C205 1.268 . S
O212 Sc200 2.105 . S
O212 C206 1.268 . S
O213 Sc199 2.105 . S
O213 C207 1.268 . S
O214 Sc198 2.105 . S
O214 C206 1.268 . S
O215 Sc199 2.105 . S
O215 C205 1.268 . S
O216 Sc200 2.105 . S
O216 C207 1.268 . S
O217 Sc198 2.105 . S
O217 C203 1.268 . S
O218 Sc200 2.105 . S
O218 C202 1.268 . S
O219 Sc199 2.105 . S
O219 C204 1.268 . S
Sc220 O223 2.025 . S
Sc220 O230 2.105 . S
Sc220 O233 2.105 . S
Sc220 O236 2.105 . S
Sc220 O239 2.105 . S
Sc221 O223 2.025 . S
Sc221 O231 2.105 . S
Sc221 O235 2.105 . S
Sc221 O237 2.105 . S
Sc221 O241 2.105 . S
Sc222 O223 2.025 . S
Sc222 O232 2.105 . S
Sc222 O234 2.110 . S
Sc222 O238 2.105 1_655 S
Sc222 O240 2.105 . S
O223 Sc220 2.025 . S
O223 Sc221 2.025 . S
O223 Sc222 2.025 . S
C224 O230 1.268 . S
C224 O240 1.268 . S
C225 O231 1.268 . S
C225 O239 1.268 . S
C226 O232 1.268 . S
C226 O241 1.268 . S
C227 O233 1.268 . S
C227 O237 1.268 . S
C228 O234 1.270 . S
C228 O236 1.268 . S
C229 O235 1.268 1_455 S
C229 O238 1.268 . S
O230 Sc220 2.105 . S
O230 C224 1.268 . S
O231 Sc221 2.105 . S
O231 C225 1.268 . S
O232 Sc222 2.105 . S
O232 C226 1.268 . S
O233 Sc220 2.105 . S
O233 C227 1.268 . S
O234 Sc222 2.110 . S
O234 C228 1.270 . S
O235 Sc221 2.105 . S
O235 C229 1.268 1_655 S
O236 Sc220 2.105 . S
O236 C228 1.268 . S
O237 Sc221 2.105 . S
O237 C227 1.268 . S
O238 Sc222 2.105 1_455 S
O238 C229 1.268 . S
O239 Sc220 2.105 . S
O239 C225 1.268 . S
O240 Sc222 2.105 . S
O240 C224 1.268 . S
O241 Sc221 2.105 . S
O241 C226 1.268 . S
Sc242 O245 2.025 . S
Sc242 O252 2.105 . S
Sc242 O255 2.105 . S
Sc242 O258 2.105 . S
Sc242 O261 2.105 . S
Sc243 O245 2.025 . S
Sc243 O253 2.105 . S
Sc243 O257 2.105 . S
Sc243 O259 2.105 . S
Sc243 O263 2.105 . S
Sc244 O245 2.025 . S
Sc244 O254 2.105 . S
Sc244 O256 2.105 . S
Sc244 O260 2.105 . S
Sc244 O262 2.105 . S
O245 Sc242 2.025 . S
O245 Sc243 2.025 . S
O245 Sc244 2.025 . S
C246 O252 1.268 . S
C246 O262 1.268 . S
C247 O253 1.268 . S
C247 O261 1.268 . S
C248 O254 1.268 . S
C248 O263 1.268 . S
C249 O255 1.268 . S
C249 O259 1.268 . S
C250 O256 1.268 . S
C250 O258 1.268 . S
C251 O257 1.268 . S
C251 O260 1.268 . S
O252 Sc242 2.105 . S
O252 C246 1.268 . S
O253 Sc243 2.105 . S
O253 C247 1.268 . S
O254 Sc244 2.105 . S
O254 C248 1.268 . S
O255 Sc242 2.105 . S
O255 C249 1.268 . S
O256 Sc244 2.105 . S
O256 C250 1.268 . S
O257 Sc243 2.105 . S
O257 C251 1.268 . S
O258 Sc242 2.105 . S
O258 C250 1.268 . S
O259 Sc243 2.105 . S
O259 C249 1.268 . S
O260 Sc244 2.105 . S
O260 C251 1.268 . S
O261 Sc242 2.105 . S
O261 C247 1.268 . S
O262 Sc244 2.105 . S
O262 C246 1.268 . S
O263 Sc243 2.105 . S
O263 C248 1.268 . S
Sc264 O267 2.025 . S
Sc264 O274 2.105 1_565 S
Sc264 O277 2.105 . S
Sc264 O280 2.105 . S
Sc264 O283 2.105 1_565 S
Sc265 O267 2.025 . S
Sc265 O275 2.105 . S
Sc265 O279 2.105 . S
Sc265 O281 2.105 . S
Sc265 O285 2.105 . S
Sc266 O267 2.025 . S
Sc266 O276 2.105 . S
Sc266 O278 2.105 . S
Sc266 O282 2.105 . S
Sc266 O284 2.105 . S
O267 Sc264 2.025 . S
O267 Sc265 2.025 . S
O267 Sc266 2.025 . S
C268 O274 1.268 . S
C268 O284 1.268 1_545 S
C269 O275 1.268 . S
C269 O283 1.268 1_565 S
C270 O276 1.268 . S
C270 O285 1.268 . S
C271 O277 1.268 . S
C271 O281 1.268 . S
C272 O278 1.268 . S
C272 O280 1.268 . S
C273 O279 1.268 . S
C273 O282 1.268 . S
O274 Sc264 2.105 1_545 S
O274 C268 1.268 . S
O275 Sc265 2.105 . S
O275 C269 1.268 . S
O276 Sc266 2.105 . S
O276 C270 1.268 . S
O277 Sc264 2.105 . S
O277 C271 1.268 . S
O278 Sc266 2.105 . S
O278 C272 1.268 . S
O279 Sc265 2.105 . S
O279 C273 1.268 . S
O280 Sc264 2.105 . S
O280 C272 1.268 . S
O281 Sc265 2.105 . S
O281 C271 1.268 . S
O282 Sc266 2.105 . S
O282 C273 1.268 . S
O283 Sc264 2.105 1_545 S
O283 C269 1.268 1_545 S
O284 Sc266 2.105 . S
O284 C268 1.268 1_565 S
O285 Sc265 2.105 . S
O285 C270 1.268 . S
Sc286 O289 2.025 . S
Sc286 O296 2.105 . S
Sc286 O299 2.105 . S
Sc286 O302 2.105 . S
Sc286 O305 2.105 . S
Sc287 O289 2.025 . S
Sc287 O297 2.105 . S
Sc287 O301 2.105 . S
Sc287 O303 2.105 . S
Sc287 O307 2.105 . S
Sc288 O289 2.025 . S
Sc288 O298 2.105 . S
Sc288 O300 2.105 . S
Sc288 O304 2.105 . S
Sc288 O306 2.105 . S
O289 Sc286 2.025 . S
O289 Sc287 2.025 . S
O289 Sc288 2.025 . S
C290 O296 1.268 . S
C290 O306 1.268 . S
C291 O297 1.268 . S
C291 O305 1.268 . S
C292 O298 1.268 . S
C292 O307 1.268 . S
C293 O299 1.268 . S
C293 O303 1.268 . S
C294 O300 1.268 . S
C294 O302 1.268 . S
C295 O301 1.268 . S
C295 O304 1.268 . S
O296 Sc286 2.105 . S
O296 C290 1.268 . S
O297 Sc287 2.105 . S
O297 C291 1.268 . S
O298 Sc288 2.105 . S
O298 C292 1.268 . S
O299 Sc286 2.105 . S
O299 C293 1.268 . S
O300 Sc288 2.105 . S
O300 C294 1.268 . S
O301 Sc287 2.105 . S
O301 C295 1.268 . S
O302 Sc286 2.105 . S
O302 C294 1.268 . S
O303 Sc287 2.105 . S
O303 C293 1.268 . S
O304 Sc288 2.105 . S
O304 C295 1.268 . S
O305 Sc286 2.105 . S
O305 C291 1.268 . S
O306 Sc288 2.105 . S
O306 C290 1.268 . S
O307 Sc287 2.105 . S
O307 C292 1.268 . S
Sc308 O311 2.025 . S
Sc308 O318 2.105 . S
Sc308 O321 2.105 . S
Sc308 O324 2.105 . S
Sc308 O327 2.105 . S
Sc309 O311 2.025 . S
Sc309 O319 2.105 . S
Sc309 O323 2.105 . S
Sc309 O325 2.105 . S
Sc309 O329 2.105 . S
Sc310 O311 2.025 . S
Sc310 O320 2.105 . S
Sc310 O322 2.105 . S
Sc310 O326 2.105 . S
Sc310 O328 2.105 . S
O311 Sc308 2.025 . S
O311 Sc309 2.025 . S
O311 Sc310 2.025 . S
C312 O318 1.268 . S
C312 O328 1.268 . S
C313 O319 1.268 . S
C313 O327 1.268 . S
C314 O320 1.268 . S
C314 O329 1.268 . S
C315 O321 1.268 . S
C315 O325 1.268 . S
C316 O322 1.268 . S
C316 O324 1.268 . S
C317 O323 1.268 . S
C317 O326 1.268 . S
O318 Sc308 2.105 . S
O318 C312 1.268 . S
O319 Sc309 2.105 . S
O319 C313 1.268 . S
O320 Sc310 2.105 . S
O320 C314 1.268 . S
O321 Sc308 2.105 . S
O321 C315 1.268 . S
O322 Sc310 2.105 . S
O322 C316 1.268 . S
O323 Sc309 2.105 . S
O323 C317 1.268 . S
O324 Sc308 2.105 . S
O324 C316 1.268 . S
O325 Sc309 2.105 . S
O325 C315 1.268 . S
O326 Sc310 2.105 . S
O326 C317 1.268 . S
O327 Sc308 2.105 . S
O327 C313 1.268 . S
O328 Sc310 2.105 . S
O328 C312 1.268 . S
O329 Sc309 2.105 . S
O329 C314 1.268 . S
Sc330 O333 2.025 . S
Sc330 O340 2.105 . S
Sc330 O343 2.105 . S
Sc330 O346 2.105 . S
Sc330 O349 2.105 . S
Sc331 O333 2.025 . S
Sc331 O341 2.105 . S
Sc331 O345 2.105 . S
Sc331 O347 2.105 1_556 S
Sc331 O351 2.105 . S
Sc332 O333 2.025 . S
Sc332 O342 2.105 . S
Sc332 O344 2.105 . S
Sc332 O348 2.105 . S
Sc332 O350 2.105 . S
O333 Sc330 2.025 . S
O333 Sc331 2.025 . S
O333 Sc332 2.025 . S
C334 O340 1.268 . S
C334 O350 1.268 . S
C335 O341 1.268 . S
C335 O349 1.268 . S
C336 O342 1.268 . S
C336 O351 1.268 . S
C337 O343 1.268 1_554 S
C337 O347 1.268 . S
C338 O344 1.268 . S
C338 O346 1.268 . S
C339 O345 1.268 . S
C339 O348 1.268 . S
O340 Sc330 2.105 . S
O340 C334 1.268 . S
O341 Sc331 2.105 . S
O341 C335 1.268 . S
O342 Sc332 2.105 . S
O342 C336 1.268 . S
O343 Sc330 2.105 . S
O343 C337 1.268 1_556 S
O344 Sc332 2.105 . S
O344 C338 1.268 . S
O345 Sc331 2.105 . S
O345 C339 1.268 . S
O346 Sc330 2.105 . S
O346 C338 1.268 . S
O347 Sc331 2.105 1_554 S
O347 C337 1.268 . S
O348 Sc332 2.105 . S
O348 C339 1.268 . S
O349 Sc330 2.105 . S
O349 C335 1.268 . S
O350 Sc332 2.105 . S
O350 C334 1.268 . S
O351 Sc331 2.105 . S
O351 C336 1.268 . S
Sc352 O355 2.025 . S
Sc352 O362 2.105 . S
Sc352 O365 2.105 . S
Sc352 O368 2.105 1_556 S
Sc352 O371 2.105 . S
Sc353 O355 2.025 . S
Sc353 O363 2.105 . S
Sc353 O367 2.105 . S
Sc353 O369 2.105 . S
Sc353 O373 2.105 . S
Sc354 O355 2.025 . S
Sc354 O364 2.105 1_565 S
Sc354 O366 2.105 . S
Sc354 O370 2.105 . S
Sc354 O372 2.105 1_565 S
O355 Sc352 2.025 . S
O355 Sc353 2.025 . S
O355 Sc354 2.025 . S
C356 O362 1.268 1_545 S
C356 O372 1.268 . S
C357 O363 1.268 . S
C357 O371 1.268 . S
C358 O364 1.268 1_565 S
C358 O373 1.268 . S
C359 O365 1.268 . S
C359 O369 1.268 . S
C360 O366 1.268 1_554 S
C360 O368 1.268 . S
C361 O367 1.268 . S
C361 O370 1.268 . S
O362 Sc352 2.105 . S
O362 C356 1.268 1_565 S
O363 Sc353 2.105 . S
O363 C357 1.268 . S
O364 Sc354 2.105 1_545 S
O364 C358 1.268 1_545 S
O365 Sc352 2.105 . S
O365 C359 1.268 . S
O366 Sc354 2.105 . S
O366 C360 1.268 1_556 S
O367 Sc353 2.105 . S
O367 C361 1.268 . S
O368 Sc352 2.105 1_554 S
O368 C360 1.268 . S
O369 Sc353 2.105 . S
O369 C359 1.268 . S
O370 Sc354 2.105 . S
O370 C361 1.268 . S
O371 Sc352 2.105 . S
O371 C357 1.268 . S
O372 Sc354 2.105 1_545 S
O372 C356 1.268 . S
O373 Sc353 2.105 . S
O373 C358 1.268 . S
Sc374 O377 2.025 . S
Sc374 O384 2.105 . S
Sc374 O387 2.105 . S
Sc374 O390 2.105 1_556 S
Sc374 O393 2.105 . S
Sc375 O377 2.025 . S
Sc375 O385 2.105 . S
Sc375 O389 2.105 . S
Sc375 O391 2.105 . S
Sc375 O395 2.105 . S
Sc376 O377 2.025 . S
Sc376 O386 2.105 . S
Sc376 O388 2.105 . S
Sc376 O392 2.105 . S
Sc376 O394 2.105 . S
O377 Sc374 2.025 . S
O377 Sc375 2.025 . S
O377 Sc376 2.025 . S
C378 O384 1.268 . S
C378 O394 1.268 . S
C379 O385 1.268 . S
C379 O393 1.268 . S
C380 O386 1.268 . S
C380 O395 1.268 . S
C381 O387 1.268 . S
C381 O391 1.268 . S
C382 O388 1.268 1_554 S
C382 O390 1.268 . S
C383 O389 1.268 . S
C383 O392 1.268 . S
O384 Sc374 2.105 . S
O384 C378 1.268 . S
O385 Sc375 2.105 . S
O385 C379 1.268 . S
O386 Sc376 2.105 . S
O386 C380 1.268 . S
O387 Sc374 2.105 . S
O387 C381 1.268 . S
O388 Sc376 2.105 . S
O388 C382 1.268 1_556 S
O389 Sc375 2.105 . S
O389 C383 1.268 . S
O390 Sc374 2.105 1_554 S
O390 C382 1.268 . S
O391 Sc375 2.105 . S
O391 C381 1.268 . S
O392 Sc376 2.105 . S
O392 C383 1.268 . S
O393 Sc374 2.105 . S
O393 C379 1.268 . S
O394 Sc376 2.105 . S
O394 C378 1.268 . S
O395 Sc375 2.105 . S
O395 C380 1.268 . S
C396 C397 1.369 . S
C396 C398 1.419 . S
C396 H400 0.930 . S
C397 C396 1.369 . S
C397 C406 1.429 . S
C398 C396 1.419 . S
C398 C399 1.363 . S
C398 H401 0.929 . S
C399 C398 1.363 . S
C399 C405 1.428 . S
H400 C396 0.930 . S
H401 C398 0.929 . S
S402 N403 1.613 . S
S402 N404 1.610 . S
N403 S402 1.613 . S
N403 C406 1.350 . S
N404 S402 1.610 . S
N404 C405 1.351 . S
C405 C399 1.428 . S
C405 N404 1.351 . S
C405 C406 1.434 . S
C406 C397 1.429 . S
C406 N403 1.350 . S
C406 C405 1.434 . S
C407 C408 1.369 . S
C407 C409 1.419 . S
C407 H411 0.930 . S
C408 C407 1.369 . S
C408 C417 1.429 . S
C409 C407 1.419 . S
C409 C410 1.363 . S
C409 H412 0.929 . S
C410 C409 1.363 . S
C410 C416 1.428 . S
H411 C407 0.930 . S
H412 C409 0.929 . S
S413 N414 1.613 . S
S413 N415 1.610 1_545 S
N414 S413 1.613 . S
N414 C417 1.350 . S
N415 S413 1.610 1_565 S
N415 C416 1.351 1_565 S
C416 C410 1.428 . S
C416 N415 1.351 1_545 S
C416 C417 1.434 . S
C417 C408 1.429 . S
C417 N414 1.350 . S
C417 C416 1.434 . S
C418 C419 1.369 . S
C418 C420 1.419 . S
C418 H422 0.930 . S
C419 C418 1.369 . S
C419 C428 1.429 . S
C420 C418 1.419 . S
C420 C421 1.363 . S
C420 H423 0.929 . S
C421 C420 1.363 . S
C421 C427 1.428 . S
H422 C418 0.930 . S
H423 C420 0.929 . S
S424 N425 1.613 1_455 S
S424 N426 1.610 . S
N425 S424 1.613 1_655 S
N425 C428 1.350 1_655 S
N426 S424 1.610 . S
N426 C427 1.351 . S
C427 C421 1.428 . S
C427 N426 1.351 . S
C427 C428 1.434 . S
C428 C419 1.429 . S
C428 N425 1.350 1_455 S
C428 C427 1.434 . S
C429 C430 1.369 . S
C429 C431 1.419 . S
C429 H433 0.930 . S
C430 C429 1.369 . S
C430 C439 1.429 . S
C431 C429 1.419 . S
C431 C432 1.363 . S
C431 H434 0.929 . S
C432 C431 1.363 . S
C432 C438 1.428 . S
H433 C429 0.930 . S
H434 C431 0.929 . S
S435 N436 1.613 . S
S435 N437 1.610 . S
N436 S435 1.613 . S
N436 C439 1.350 . S
N437 S435 1.610 . S
N437 C438 1.351 . S
C438 C432 1.428 . S
C438 N437 1.351 . S
C438 C439 1.434 . S
C439 C430 1.429 . S
C439 N436 1.350 . S
C439 C438 1.434 . S
C440 C441 1.369 . S
C440 C442 1.419 . S
C440 H444 0.930 . S
C441 C440 1.369 . S
C441 C450 1.429 . S
C442 C440 1.419 . S
C442 C443 1.363 . S
C442 H445 0.929 . S
C443 C442 1.363 . S
C443 C449 1.428 . S
H444 C440 0.930 . S
H445 C442 0.929 . S
S446 N447 1.613 1_545 S
S446 N448 1.610 . S
N447 S446 1.613 1_565 S
N447 C450 1.350 1_565 S
N448 S446 1.610 . S
N448 C449 1.351 . S
C449 C443 1.428 . S
C449 N448 1.351 . S
C449 C450 1.434 . S
C450 C441 1.429 . S
C450 N447 1.350 1_545 S
C450 C449 1.434 . S
C451 C452 1.369 . S
C451 C453 1.419 . S
C451 H455 0.930 . S
C452 C451 1.369 . S
C452 C461 1.429 . S
C453 C451 1.419 . S
C453 C454 1.363 . S
C453 H456 0.929 . S
C454 C453 1.363 . S
C454 C460 1.428 . S
H455 C451 0.930 . S
H456 C453 0.929 . S
S457 N458 1.613 . S
S457 N459 1.610 1_455 S
N458 S457 1.613 . S
N458 C461 1.350 . S
N459 S457 1.610 1_655 S
N459 C460 1.351 1_655 S
C460 C454 1.428 . S
C460 N459 1.351 1_455 S
C460 C461 1.434 . S
C461 C452 1.429 . S
C461 N458 1.350 . S
C461 C460 1.434 . S
C462 C463 1.369 . S
C462 C464 1.419 . S
C462 H466 0.930 . S
C463 C462 1.369 . S
C463 C472 1.429 . S
C464 C462 1.419 . S
C464 C465 1.363 . S
C464 H467 0.929 . S
C465 C464 1.363 . S
C465 C471 1.428 . S
H466 C462 0.930 . S
H467 C464 0.929 . S
S468 N469 1.613 . S
S468 N470 1.610 . S
N469 S468 1.613 . S
N469 C472 1.350 . S
N470 S468 1.610 . S
N470 C471 1.351 . S
C471 C465 1.428 . S
C471 N470 1.351 . S
C471 C472 1.434 . S
C472 C463 1.429 . S
C472 N469 1.350 . S
C472 C471 1.434 . S
C473 C474 1.369 . S
C473 C475 1.419 . S
C473 H477 0.930 . S
C474 C473 1.369 . S
C474 C483 1.429 . S
C475 C473 1.419 . S
C475 C476 1.363 . S
C475 H478 0.929 . S
C476 C475 1.363 . S
C476 C482 1.428 . S
H477 C473 0.930 . S
H478 C475 0.929 . S
S479 N480 1.613 . S
S479 N481 1.610 1_556 S
N480 S479 1.613 . S
N480 C483 1.350 1_556 S
N481 S479 1.610 1_554 S
N481 C482 1.351 . S
C482 C476 1.428 . S
C482 N481 1.351 . S
C482 C483 1.434 . S
C483 C474 1.429 . S
C483 N480 1.350 1_554 S
C483 C482 1.434 . S
C484 C485 1.369 . S
C484 C486 1.419 . S
C484 H488 0.930 . S
C485 C484 1.369 . S
C485 C494 1.429 . S
C486 C484 1.419 . S
C486 C487 1.363 . S
C486 H489 0.929 . S
C487 C486 1.363 . S
C487 C493 1.428 . S
H488 C484 0.930 . S
H489 C486 0.929 . S
S490 N491 1.613 . S
S490 N492 1.610 . S
N491 S490 1.613 . S
N491 C494 1.350 . S
N492 S490 1.610 . S
N492 C493 1.351 . S
C493 C487 1.428 . S
C493 N492 1.351 . S
C493 C494 1.434 . S
C494 C485 1.429 . S
C494 N491 1.350 . S
C494 C493 1.434 . S
C495 C496 1.369 . S
C495 C497 1.419 . S
C495 H499 0.930 . S
C496 C495 1.369 . S
C496 C505 1.429 . S
C497 C495 1.419 . S
C497 C498 1.363 . S
C497 H500 0.929 . S
C498 C497 1.363 . S
C498 C504 1.428 . S
H499 C495 0.930 . S
H500 C497 0.929 . S
S501 N502 1.613 . S
S501 N503 1.610 . S
N502 S501 1.613 . S
N502 C505 1.350 . S
N503 S501 1.610 . S
N503 C504 1.351 . S
C504 C498 1.428 . S
C504 N503 1.351 . S
C504 C505 1.434 . S
C505 C496 1.429 . S
C505 N502 1.350 . S
C505 C504 1.434 . S
C506 C507 1.369 . S
C506 C508 1.419 . S
C506 H510 0.930 . S
C507 C506 1.369 . S
C507 C516 1.429 . S
C508 C506 1.419 . S
C508 C509 1.363 . S
C508 H511 0.929 . S
C509 C508 1.363 . S
C509 C515 1.428 . S
H510 C506 0.930 . S
H511 C508 0.929 . S
S512 N513 1.613 . S
S512 N514 1.610 . S
N513 S512 1.613 . S
N513 C516 1.350 . S
N514 S512 1.610 . S
N514 C515 1.351 . S
C515 C509 1.428 . S
C515 N514 1.351 . S
C515 C516 1.434 . S
C516 C507 1.429 . S
C516 N513 1.350 . S
C516 C515 1.434 . S
C517 C518 1.369 . S
C517 C519 1.419 . S
C517 H521 0.930 . S
C518 C517 1.369 . S
C518 C527 1.429 . S
C519 C517 1.419 . S
C519 C520 1.363 . S
C519 H522 0.929 . S
C520 C519 1.363 . S
C520 C526 1.428 . S
H521 C517 0.930 . S
H522 C519 0.929 . S
S523 N524 1.613 . S
S523 N525 1.610 . S
N524 S523 1.613 . S
N524 C527 1.350 . S
N525 S523 1.610 . S
N525 C526 1.351 . S
C526 C520 1.428 . S
C526 N525 1.351 . S
C526 C527 1.434 . S
C527 C518 1.429 . S
C527 N524 1.350 . S
C527 C526 1.434 . S
C528 C529 1.369 . S
C528 C530 1.419 . S
C528 H532 0.930 . S
C529 C528 1.369 . S
C529 C538 1.429 . S
C530 C528 1.419 . S
C530 C531 1.363 . S
C530 H533 0.929 . S
C531 C530 1.363 . S
C531 C537 1.428 . S
H532 C528 0.930 . S
H533 C530 0.929 . S
S534 N535 1.613 . S
S534 N536 1.610 . S
N535 S534 1.613 . S
N535 C538 1.350 . S
N536 S534 1.610 . S
N536 C537 1.351 . S
C537 C531 1.428 . S
C537 N536 1.351 . S
C537 C538 1.434 . S
C538 C529 1.429 . S
C538 N535 1.350 . S
C538 C537 1.434 . S
C539 C540 1.369 . S
C539 C541 1.419 . S
C539 H543 0.930 . S
C540 C539 1.369 . S
C540 C549 1.429 . S
C541 C539 1.419 . S
C541 C542 1.363 . S
C541 H544 0.929 . S
C542 C541 1.363 . S
C542 C548 1.428 . S
H543 C539 0.930 . S
H544 C541 0.929 . S
S545 N546 1.613 . S
S545 N547 1.610 . S
N546 S545 1.613 . S
N546 C549 1.350 . S
N547 S545 1.610 . S
N547 C548 1.351 . S
C548 C542 1.428 . S
C548 N547 1.351 . S
C548 C549 1.434 . S
C549 C540 1.429 . S
C549 N546 1.350 . S
C549 C548 1.434 . S
C550 C551 1.369 . S
C550 C552 1.419 . S
C550 H554 0.930 . S
C551 C550 1.369 . S
C551 C560 1.429 . S
C552 C550 1.419 . S
C552 C553 1.363 . S
C552 H555 0.929 . S
C553 C552 1.363 . S
C553 C559 1.428 . S
H554 C550 0.930 . S
H555 C552 0.929 . S
S556 N557 1.613 . S
S556 N558 1.610 . S
N557 S556 1.613 . S
N557 C560 1.350 . S
N558 S556 1.610 . S
N558 C559 1.351 . S
C559 C553 1.428 . S
C559 N558 1.351 . S
C559 C560 1.434 . S
C560 C551 1.429 . S
C560 N557 1.350 . S
C560 C559 1.434 . S
C561 C562 1.369 . S
C561 C563 1.419 . S
C561 H565 0.930 . S
C562 C561 1.369 . S
C562 C571 1.429 . S
C563 C561 1.419 . S
C563 C564 1.363 . S
C563 H566 0.929 . S
C564 C563 1.363 . S
C564 C570 1.428 . S
H565 C561 0.930 . S
H566 C563 0.929 . S
S567 N568 1.613 1_554 S
S567 N569 1.610 . S
N568 S567 1.613 1_556 S
N568 C571 1.350 . S
N569 S567 1.610 . S
N569 C570 1.351 1_554 S
C570 C564 1.428 . S
C570 N569 1.351 1_556 S
C570 C571 1.434 . S
C571 C562 1.429 . S
C571 N568 1.350 . S
C571 C570 1.434 . S
C572 C573 1.369 . S
C572 C574 1.419 . S
C572 H576 0.930 . S
C573 C572 1.369 . S
C573 C582 1.429 . S
C574 C572 1.419 . S
C574 C575 1.363 . S
C574 H577 0.929 . S
C575 C574 1.363 . S
C575 C581 1.428 . S
H576 C572 0.930 . S
H577 C574 0.929 . S
S578 N579 1.613 . S
S578 N580 1.610 . S
N579 S578 1.613 . S
N579 C582 1.350 . S
N580 S578 1.610 . S
N580 C581 1.351 . S
C581 C575 1.428 . S
C581 N580 1.351 . S
C581 C582 1.434 . S
C582 C573 1.429 . S
C582 N579 1.350 . S
C582 C581 1.434 . S
C583 C584 1.369 . S
C583 C585 1.419 . S
C583 H587 0.930 . S
C584 C583 1.369 . S
C584 C593 1.429 . S
C585 C583 1.419 . S
C585 C586 1.363 . S
C585 H588 0.929 . S
C586 C585 1.363 . S
C586 C592 1.428 . S
H587 C583 0.930 . S
H588 C585 0.929 . S
S589 N590 1.613 . S
S589 N591 1.610 . S
N590 S589 1.613 . S
N590 C593 1.350 . S
N591 S589 1.610 . S
N591 C592 1.351 . S
C592 C586 1.428 . S
C592 N591 1.351 . S
C592 C593 1.434 . S
C593 C584 1.429 . S
C593 N590 1.350 . S
C593 C592 1.434 . S
C594 C595 1.369 . S
C594 C596 1.419 . S
C594 H598 0.930 . S
C595 C594 1.369 . S
C595 C604 1.429 . S
C596 C594 1.419 . S
C596 C597 1.363 . S
C596 H599 0.929 . S
C597 C596 1.363 . S
C597 C603 1.428 . S
H598 C594 0.930 . S
H599 C596 0.929 . S
S600 N601 1.613 . S
S600 N602 1.610 . S
N601 S600 1.613 . S
N601 C604 1.350 . S
N602 S600 1.610 . S
N602 C603 1.351 . S
C603 C597 1.428 . S
C603 N602 1.351 . S
C603 C604 1.434 . S
C604 C595 1.429 . S
C604 N601 1.350 . S
C604 C603 1.434 . S
C605 C606 1.369 . S
C605 C607 1.419 . S
C605 H609 0.930 . S
C606 C605 1.369 . S
C606 C615 1.429 . S
C607 C605 1.419 . S
C607 C608 1.363 . S
C607 H610 0.929 . S
C608 C607 1.363 . S
C608 C614 1.428 . S
H609 C605 0.930 . S
H610 C607 0.929 . S
S611 N612 1.613 . S
S611 N613 1.610 . S
N612 S611 1.613 . S
N612 C615 1.350 . S
N613 S611 1.610 . S
N613 C614 1.351 . S
C614 C608 1.428 . S
C614 N613 1.351 . S
C614 C615 1.434 . S
C615 C606 1.429 . S
C615 N612 1.350 . S
C615 C614 1.434 . S
C616 C617 1.369 . S
C616 C618 1.419 . S
C616 H620 0.930 . S
C617 C616 1.369 . S
C617 C626 1.429 . S
C618 C616 1.419 . S
C618 C619 1.363 . S
C618 H621 0.929 . S
C619 C618 1.363 . S
C619 C625 1.428 . S
H620 C616 0.930 . S
H621 C618 0.929 . S
S622 N623 1.613 . S
S622 N624 1.610 . S
N623 S622 1.613 . S
N623 C626 1.350 . S
N624 S622 1.610 . S
N624 C625 1.351 . S
C625 C619 1.428 . S
C625 N624 1.351 . S
C625 C626 1.434 . S
C626 C617 1.429 . S
C626 N623 1.350 . S
C626 C625 1.434 . S
C627 C628 1.369 . S
C627 C629 1.419 . S
C627 H631 0.930 . S
C628 C627 1.369 . S
C628 C637 1.429 . S
C629 C627 1.419 . S
C629 C630 1.363 . S
C629 H632 0.929 . S
C630 C629 1.363 . S
C630 C636 1.428 . S
H631 C627 0.930 . S
H632 C629 0.929 . S
S633 N634 1.613 . S
S633 N635 1.610 . S
N634 S633 1.613 . S
N634 C637 1.350 . S
N635 S633 1.610 . S
N635 C636 1.351 . S
C636 C630 1.428 . S
C636 N635 1.351 . S
C636 C637 1.434 . S
C637 C628 1.429 . S
C637 N634 1.350 . S
C637 C636 1.434 . S
C638 C639 1.369 . S
C638 C640 1.419 . S
C638 H642 0.930 . S
C639 C638 1.369 . S
C639 C648 1.429 1_655 S
C640 C638 1.419 . S
C640 C641 1.363 . S
C640 H643 0.929 . S
C641 C640 1.363 . S
C641 C647 1.428 . S
H642 C638 0.930 . S
H643 C640 0.929 . S
S644 N645 1.613 . S
S644 N646 1.610 . S
N645 S644 1.613 . S
N645 C648 1.350 . S
N646 S644 1.610 . S
N646 C647 1.351 1_455 S
C647 C641 1.428 . S
C647 N646 1.351 1_655 S
C647 C648 1.434 1_655 S
C648 C639 1.429 1_455 S
C648 N645 1.350 . S
C648 C647 1.434 1_455 S
C649 C650 1.369 . S
C649 C651 1.419 . S
C649 H653 0.930 . S
C650 C649 1.369 . S
C650 C659 1.429 . S
C651 C649 1.419 . S
C651 C652 1.363 . S
C651 H654 0.929 . S
C652 C651 1.363 . S
C652 C658 1.428 . S
H653 C649 0.930 . S
H654 C651 0.929 . S
S655 N656 1.613 . S
S655 N657 1.610 . S
N656 S655 1.613 . S
N656 C659 1.350 . S
N657 S655 1.610 . S
N657 C658 1.351 . S
C658 C652 1.428 . S
C658 N657 1.351 . S
C658 C659 1.434 . S
C659 C650 1.429 . S
C659 N656 1.350 . S
C659 C658 1.434 . S
C660 C661 1.369 . S
C660 C662 1.419 . S
C660 H664 0.930 . S
C661 C660 1.369 . S
C661 C670 1.429 . S
C662 C660 1.419 . S
C662 C663 1.363 . S
C662 H665 0.929 . S
C663 C662 1.363 . S
C663 C669 1.428 1_655 S
H664 C660 0.930 . S
H665 C662 0.929 . S
S666 N667 1.613 . S
S666 N668 1.610 . S
N667 S666 1.613 . S
N667 C670 1.350 1_455 S
N668 S666 1.610 . S
N668 C669 1.351 . S
C669 C663 1.428 1_455 S
C669 N668 1.351 . S
C669 C670 1.434 1_455 S
C670 C661 1.429 . S
C670 N667 1.350 1_655 S
C670 C669 1.434 1_655 S
C671 C672 1.369 . S
C671 C673 1.419 . S
C671 H675 0.930 . S
C672 C671 1.369 . S
C672 C681 1.429 . S
C673 C671 1.419 . S
C673 C674 1.363 . S
C673 H676 0.929 . S
C674 C673 1.363 . S
C674 C680 1.428 . S
H675 C671 0.930 . S
H676 C673 0.929 . S
S677 N678 1.613 . S
S677 N679 1.610 . S
N678 S677 1.613 . S
N678 C681 1.350 . S
N679 S677 1.610 . S
N679 C680 1.351 . S
C680 C674 1.428 . S
C680 N679 1.351 . S
C680 C681 1.434 . S
C681 C672 1.429 . S
C681 N678 1.350 . S
C681 C680 1.434 . S
C682 C683 1.369 . S
C682 C684 1.419 . S
C682 H686 0.930 . S
C683 C682 1.369 . S
C683 C692 1.429 . S
C684 C682 1.419 . S
C684 C685 1.363 . S
C684 H687 0.929 . S
C685 C684 1.363 . S
C685 C691 1.428 . S
H686 C682 0.930 . S
H687 C684 0.929 . S
S688 N689 1.613 . S
S688 N690 1.610 . S
N689 S688 1.613 . S
N689 C692 1.350 . S
N690 S688 1.610 . S
N690 C691 1.351 . S
C691 C685 1.428 . S
C691 N690 1.351 . S
C691 C692 1.434 . S
C692 C683 1.429 . S
C692 N689 1.350 . S
C692 C691 1.434 . S
C693 C694 1.369 1_545 S
C693 C695 1.419 1_545 S
C693 H697 0.930 . S
C694 C693 1.369 1_565 S
C694 C703 1.429 . S
C695 C693 1.419 1_565 S
C695 C696 1.365 . S
C695 H698 0.927 1_565 S
C696 C695 1.365 . S
C696 C702 1.428 . S
H697 C693 0.930 . S
H698 C695 0.927 1_545 S
S699 N700 1.613 . S
S699 N701 1.610 . S
N700 S699 1.613 . S
N700 C703 1.350 . S
N701 S699 1.610 . S
N701 C702 1.351 . S
C702 C696 1.428 . S
C702 N701 1.351 . S
C702 C703 1.434 . S
C703 C694 1.429 . S
C703 N700 1.350 . S
C703 C702 1.434 . S
C704 C705 1.369 . S
C704 C706 1.419 . S
C704 H708 0.930 . S
C705 C704 1.369 . S
C705 C714 1.429 . S
C706 C704 1.419 . S
C706 C707 1.363 . S
C706 H709 0.929 . S
C707 C706 1.363 . S
C707 C713 1.428 . S
H708 C704 0.930 . S
H709 C706 0.929 . S
S710 N711 1.613 . S
S710 N712 1.610 . S
N711 S710 1.613 . S
N711 C714 1.350 . S
N712 S710 1.610 . S
N712 C713 1.351 . S
C713 C707 1.428 . S
C713 N712 1.351 . S
C713 C714 1.434 . S
C714 C705 1.429 . S
C714 N711 1.350 . S
C714 C713 1.434 . S
C715 C716 1.369 . S
C715 C717 1.419 . S
C715 H719 0.930 . S
C716 C715 1.369 . S
C716 C725 1.429 . S
C717 C715 1.419 . S
C717 C718 1.363 . S
C717 H720 0.929 . S
C718 C717 1.363 . S
C718 C724 1.428 . S
H719 C715 0.930 . S
H720 C717 0.929 . S
S721 N722 1.613 . S
S721 N723 1.610 . S
N722 S721 1.613 . S
N722 C725 1.350 . S
N723 S721 1.610 . S
N723 C724 1.351 . S
C724 C718 1.428 . S
C724 N723 1.351 . S
C724 C725 1.434 . S
C725 C716 1.429 . S
C725 N722 1.350 . S
C725 C724 1.434 . S
C726 C727 1.369 . S
C726 C728 1.419 . S
C726 H730 0.930 . S
C727 C726 1.369 . S
C727 C736 1.429 . S
C728 C726 1.419 . S
C728 C729 1.363 . S
C728 H731 0.929 1_455 S
C729 C728 1.363 . S
C729 C735 1.428 . S
H730 C726 0.930 . S
H731 C728 0.929 1_655 S
S732 N733 1.613 . S
S732 N734 1.610 . S
N733 S732 1.613 . S
N733 C736 1.350 . S
N734 S732 1.610 . S
N734 C735 1.351 . S
C735 C729 1.428 . S
C735 N734 1.351 . S
C735 C736 1.434 . S
C736 C727 1.429 . S
C736 N733 1.350 . S
C736 C735 1.434 . S
C737 C738 1.369 . S
C737 C739 1.419 . S
C737 H741 0.930 . S
C738 C737 1.369 . S
C738 C747 1.429 . S
C739 C737 1.419 . S
C739 C740 1.363 . S
C739 H742 0.929 . S
C740 C739 1.363 . S
C740 C746 1.428 . S
H741 C737 0.930 . S
H742 C739 0.929 . S
S743 N744 1.613 . S
S743 N745 1.610 . S
N744 S743 1.613 . S
N744 C747 1.350 . S
N745 S743 1.610 . S
N745 C746 1.351 . S
C746 C740 1.428 . S
C746 N745 1.351 . S
C746 C747 1.434 . S
C747 C738 1.429 . S
C747 N744 1.350 . S
C747 C746 1.434 . S
C748 C749 1.369 . S
C748 C750 1.419 . S
C748 H752 0.930 . S
C749 C748 1.369 . S
C749 C758 1.429 . S
C750 C748 1.419 . S
C750 C751 1.363 . S
C750 H753 0.929 1_545 S
C751 C750 1.363 . S
C751 C757 1.428 . S
H752 C748 0.930 . S
H753 C750 0.929 1_565 S
S754 N755 1.613 . S
S754 N756 1.610 . S
N755 S754 1.613 . S
N755 C758 1.350 . S
N756 S754 1.610 . S
N756 C757 1.351 . S
C757 C751 1.428 . S
C757 N756 1.351 . S
C757 C758 1.434 . S
C758 C749 1.429 . S
C758 N755 1.350 . S
C758 C757 1.434 . S
C759 C760 1.369 . S
C759 C761 1.419 . S
C759 H763 0.930 . S
C760 C759 1.369 . S
C760 C769 1.429 . S
C761 C759 1.419 . S
C761 C762 1.363 . S
C761 H764 0.905 1_545 S
C762 C761 1.363 . S
C762 C768 1.428 . S
H763 C759 0.930 . S
H764 C761 0.905 1_565 S
S765 N766 1.613 . S
S765 N767 1.610 . S
N766 S765 1.613 . S
N766 C769 1.350 . S
N767 S765 1.610 . S
N767 C768 1.351 . S
C768 C762 1.428 . S
C768 N767 1.351 . S
C768 C769 1.434 . S
C769 C760 1.429 . S
C769 N766 1.350 . S
C769 C768 1.434 . S
C770 C771 1.369 . S
C770 C772 1.419 . S
C770 H774 0.930 . S
C771 C770 1.369 . S
C771 C780 1.429 . S
C772 C770 1.419 . S
C772 C773 1.363 . S
C772 H775 0.929 1_455 S
C773 C772 1.363 . S
C773 C779 1.428 . S
H774 C770 0.930 . S
H775 C772 0.929 1_655 S
S776 N777 1.613 . S
S776 N778 1.610 . S
N777 S776 1.613 . S
N777 C780 1.350 . S
N778 S776 1.610 . S
N778 C779 1.351 . S
C779 C773 1.428 . S
C779 N778 1.351 . S
C779 C780 1.434 . S
C780 C771 1.429 . S
C780 N777 1.350 . S
C780 C779 1.434 . S
C781 C782 1.369 . S
C781 C783 1.419 . S
C781 H785 0.930 . S
C782 C781 1.369 . S
C782 C791 1.429 . S
C783 C781 1.419 . S
C783 C784 1.363 . S
C783 H786 0.929 . S
C784 C783 1.363 . S
C784 C790 1.428 . S
H785 C781 0.930 . S
H786 C783 0.929 . S
S787 N788 1.613 . S
S787 N789 1.610 . S
N788 S787 1.613 . S
N788 C791 1.350 . S
N789 S787 1.610 . S
N789 C790 1.351 . S
C790 C784 1.428 . S
C790 N789 1.351 . S
C790 C791 1.434 . S
C791 C782 1.429 . S
C791 N788 1.350 . S
C791 C790 1.434 . S
C792 C793 1.369 . S
C792 C794 1.419 . S
C792 H796 0.930 . S
C793 C792 1.369 . S
C793 C802 1.429 . S
C794 C792 1.419 . S
C794 C795 1.363 . S
C794 H797 0.929 . S
C795 C794 1.363 . S
C795 C801 1.428 . S
H796 C792 0.930 . S
H797 C794 0.929 . S
S798 N799 1.613 . S
S798 N800 1.610 . S
N799 S798 1.613 . S
N799 C802 1.350 . S
N800 S798 1.610 . S
N800 C801 1.351 . S
C801 C795 1.428 . S
C801 N800 1.351 . S
C801 C802 1.434 . S
C802 C793 1.429 . S
C802 N799 1.350 . S
C802 C801 1.434 . S
C803 C804 1.369 . S
C803 C805 1.419 . S
C803 H807 0.930 . S
C804 C803 1.369 . S
C804 C813 1.429 . S
C805 C803 1.419 . S
C805 C806 1.363 . S
C805 H808 0.929 . S
C806 C805 1.363 . S
C806 C812 1.428 . S
H807 C803 0.930 . S
H808 C805 0.929 . S
S809 N810 1.613 . S
S809 N811 1.610 . S
N810 S809 1.613 . S
N810 C813 1.350 . S
N811 S809 1.610 . S
N811 C812 1.351 . S
C812 C806 1.428 . S
C812 N811 1.351 . S
C812 C813 1.434 . S
C813 C804 1.429 . S
C813 N810 1.350 . S
C813 C812 1.434 . S
C814 C815 1.369 . S
C814 C816 1.419 . S
C814 H818 0.930 . S
C815 C814 1.369 . S
C815 C824 1.429 . S
C816 C814 1.419 . S
C816 C817 1.363 . S
C816 H819 0.929 . S
C817 C816 1.363 . S
C817 C823 1.428 . S
H818 C814 0.930 . S
H819 C816 0.929 . S
S820 N821 1.613 . S
S820 N822 1.610 . S
N821 S820 1.613 . S
N821 C824 1.350 . S
N822 S820 1.610 . S
N822 C823 1.351 . S
C823 C817 1.428 . S
C823 N822 1.351 . S
C823 C824 1.434 . S
C824 C815 1.429 . S
C824 N821 1.350 . S
C824 C823 1.434 . S
C825 C826 1.369 . S
C825 C827 1.419 . S
C825 H829 0.930 . S
C826 C825 1.369 . S
C826 C835 1.429 . S
C827 C825 1.419 . S
C827 C828 1.363 . S
C827 H830 0.929 . S
C828 C827 1.363 . S
C828 C834 1.428 . S
H829 C825 0.930 . S
H830 C827 0.929 . S
S831 N832 1.613 . S
S831 N833 1.610 . S
N832 S831 1.613 . S
N832 C835 1.350 . S
N833 S831 1.610 . S
N833 C834 1.351 . S
C834 C828 1.428 . S
C834 N833 1.351 . S
C834 C835 1.434 . S
C835 C826 1.429 . S
C835 N832 1.350 . S
C835 C834 1.434 . S
C836 C837 1.369 . S
C836 C838 1.419 . S
C836 H840 0.930 . S
C837 C836 1.369 . S
C837 C846 1.429 . S
C838 C836 1.419 . S
C838 C839 1.363 . S
C838 H841 0.929 . S
C839 C838 1.363 . S
C839 C845 1.428 . S
H840 C836 0.930 . S
H841 C838 0.929 . S
S842 N843 1.613 . S
S842 N844 1.610 . S
N843 S842 1.613 . S
N843 C846 1.350 . S
N844 S842 1.610 . S
N844 C845 1.351 . S
C845 C839 1.428 . S
C845 N844 1.351 . S
C845 C846 1.434 . S
C846 C837 1.429 . S
C846 N843 1.350 . S
C846 C845 1.434 . S
C847 C848 1.369 . S
C847 C849 1.419 . S
C847 H851 0.930 . S
C848 C847 1.369 . S
C848 C857 1.429 . S
C849 C847 1.419 . S
C849 C850 1.363 . S
C849 H852 0.929 . S
C850 C849 1.363 . S
C850 C856 1.428 . S
H851 C847 0.930 . S
H852 C849 0.929 . S
S853 N854 1.613 . S
S853 N855 1.610 . S
N854 S853 1.613 . S
N854 C857 1.350 . S
N855 S853 1.610 . S
N855 C856 1.351 . S
C856 C850 1.428 . S
C856 N855 1.351 . S
C856 C857 1.434 . S
C857 C848 1.429 . S
C857 N854 1.350 . S
C857 C856 1.434 . S
C858 C859 1.369 . S
C858 C860 1.419 . S
C858 H862 0.930 . S
C859 C858 1.369 . S
C859 C868 1.429 . S
C860 C858 1.419 . S
C860 C861 1.363 . S
C860 H863 0.929 . S
C861 C860 1.363 . S
C861 C867 1.428 . S
H862 C858 0.930 . S
H863 C860 0.929 . S
S864 N865 1.613 . S
S864 N866 1.610 . S
N865 S864 1.613 . S
N865 C868 1.350 . S
N866 S864 1.610 . S
N866 C867 1.351 . S
C867 C861 1.428 . S
C867 N866 1.351 . S
C867 C868 1.434 . S
C868 C859 1.429 . S
C868 N865 1.350 . S
C868 C867 1.434 . S
C869 C870 1.369 . S
C869 C871 1.419 . S
C869 H873 0.930 . S
C870 C869 1.369 . S
C870 C879 1.429 . S
C871 C869 1.419 . S
C871 C872 1.363 . S
C871 H874 0.929 . S
C872 C871 1.363 . S
C872 C878 1.428 . S
H873 C869 0.930 . S
H874 C871 0.929 . S
S875 N876 1.613 . S
S875 N877 1.610 . S
N876 S875 1.613 . S
N876 C879 1.350 . S
N877 S875 1.610 . S
N877 C878 1.351 . S
C878 C872 1.428 . S
C878 N877 1.351 . S
C878 C879 1.434 . S
C879 C870 1.429 . S
C879 N876 1.350 . S
C879 C878 1.434 . S
C880 C881 1.369 . S
C880 C882 1.419 . S
C880 H884 0.930 . S
C881 C880 1.369 . S
C881 C890 1.429 . S
C882 C880 1.419 . S
C882 C883 1.363 . S
C882 H885 0.929 . S
C883 C882 1.363 . S
C883 C889 1.428 . S
H884 C880 0.930 . S
H885 C882 0.929 . S
S886 N887 1.613 . S
S886 N888 1.610 . S
N887 S886 1.613 . S
N887 C890 1.350 . S
N888 S886 1.610 . S
N888 C889 1.351 . S
C889 C883 1.428 . S
C889 N888 1.351 . S
C889 C890 1.434 . S
C890 C881 1.429 . S
C890 N887 1.350 . S
C890 C889 1.434 . S
C891 C892 1.369 . S
C891 C893 1.419 . S
C891 H895 0.930 . S
C892 C891 1.369 . S
C892 C901 1.429 . S
C893 C891 1.419 . S
C893 C894 1.363 . S
C893 H896 0.929 . S
C894 C893 1.363 . S
C894 C900 1.428 . S
H895 C891 0.930 . S
H896 C893 0.929 . S
S897 N898 1.613 . S
S897 N899 1.610 . S
N898 S897 1.613 . S
N898 C901 1.350 . S
N899 S897 1.610 . S
N899 C900 1.351 . S
C900 C894 1.428 . S
C900 N899 1.351 . S
C900 C901 1.434 . S
C901 C892 1.429 . S
C901 N898 1.350 . S
C901 C900 1.434 . S
C902 C903 1.369 . S
C902 C904 1.419 . S
C902 H906 0.930 . S
C903 C902 1.369 . S
C903 C912 1.429 . S
C904 C902 1.419 . S
C904 C905 1.363 . S
C904 H907 0.929 . S
C905 C904 1.363 . S
C905 C911 1.428 . S
H906 C902 0.930 . S
H907 C904 0.929 . S
S908 N909 1.613 . S
S908 N910 1.610 . S
N909 S908 1.613 . S
N909 C912 1.350 . S
N910 S908 1.610 . S
N910 C911 1.351 . S
C911 C905 1.428 . S
C911 N910 1.351 . S
C911 C912 1.434 . S
C912 C903 1.429 . S
C912 N909 1.350 . S
C912 C911 1.434 . S
C913 C914 1.369 . S
C913 C915 1.419 . S
C913 H917 0.930 . S
C914 C913 1.369 . S
C914 C923 1.429 . S
C915 C913 1.419 . S
C915 C916 1.363 . S
C915 H918 0.929 . S
C916 C915 1.363 . S
C916 C922 1.428 . S
H917 C913 0.930 . S
H918 C915 0.929 . S
S919 N920 1.613 . S
S919 N921 1.610 . S
N920 S919 1.613 . S
N920 C923 1.350 . S
N921 S919 1.610 . S
N921 C922 1.351 . S
C922 C916 1.428 . S
C922 N921 1.351 . S
C922 C923 1.434 . S
C923 C914 1.429 . S
C923 N920 1.350 . S
C923 C922 1.434 . S
C924 C925 1.369 . S
C924 C926 1.419 . S
C924 H928 0.930 . S
C925 C924 1.369 . S
C925 C934 1.429 1_554 S
C926 C924 1.419 . S
C926 C927 1.363 1_554 S
C926 H929 0.929 . S
C927 C926 1.363 1_556 S
C927 C933 1.428 . S
H928 C924 0.930 . S
H929 C926 0.929 . S
S930 N931 1.613 . S
S930 N932 1.610 1_655 S
N931 S930 1.613 . S
N931 C934 1.350 1_655 S
N932 S930 1.610 1_455 S
N932 C933 1.351 . S
C933 C927 1.428 . S
C933 N932 1.351 . S
C933 C934 1.434 . S
C934 C925 1.429 1_556 S
C934 N931 1.350 1_455 S
C934 C933 1.434 . S
C935 C936 1.369 . S
C935 C937 1.419 . S
C935 H939 0.930 . S
C936 C935 1.369 . S
C936 C945 1.429 1_556 S
C937 C935 1.419 . S
C937 C938 1.363 1_556 S
C937 H940 0.929 . S
C938 C937 1.363 1_554 S
C938 C944 1.428 . S
H939 C935 0.930 . S
H940 C937 0.929 . S
S941 N942 1.613 . S
S941 N943 1.610 . S
N942 S941 1.613 . S
N942 C945 1.350 . S
N943 S941 1.610 . S
N943 C944 1.351 . S
C944 C938 1.428 . S
C944 N943 1.351 . S
C944 C945 1.434 . S
C945 C936 1.429 1_554 S
C945 N942 1.350 . S
C945 C944 1.434 . S
C946 C947 1.369 . S
C946 C948 1.419 . S
C946 H950 0.930 . S
C947 C946 1.369 . S
C947 C956 1.429 1_554 S
C948 C946 1.419 . S
C948 C949 1.363 1_554 S
C948 H951 0.929 1_545 S
C949 C948 1.363 1_556 S
C949 C955 1.428 . S
H950 C946 0.930 . S
H951 C948 0.929 1_565 S
S952 N953 1.613 . S
S952 N954 1.610 . S
N953 S952 1.613 . S
N953 C956 1.350 . S
N954 S952 1.610 . S
N954 C955 1.351 . S
C955 C949 1.428 . S
C955 N954 1.351 . S
C955 C956 1.434 . S
C956 C947 1.429 1_556 S
C956 N953 1.350 . S
C956 C955 1.434 . S
C957 C958 1.369 . S
C957 C959 1.419 . S
C957 H961 0.930 . S
C958 C957 1.369 . S
C958 C967 1.429 . S
C959 C957 1.419 . S
C959 C960 1.363 . S
C959 H962 0.929 . S
C960 C959 1.363 . S
C960 C966 1.428 . S
H961 C957 0.930 . S
H962 C959 0.929 . S
S963 N964 1.613 . S
S963 N965 1.610 . S
N964 S963 1.613 . S
N964 C967 1.350 . S
N965 S963 1.610 . S
N965 C966 1.351 . S
C966 C960 1.428 . S
C966 N965 1.351 . S
C966 C967 1.434 . S
C967 C958 1.429 . S
C967 N964 1.350 . S
C967 C966 1.434 . S
C968 C969 1.369 . S
C968 C970 1.419 . S
C968 H972 0.930 . S
C969 C968 1.369 . S
C969 C978 1.429 . S
C970 C968 1.419 . S
C970 C971 1.363 . S
C970 H973 0.929 . S
C971 C970 1.363 . S
C971 C977 1.428 . S
H972 C968 0.930 . S
H973 C970 0.929 . S
S974 N975 1.613 . S
S974 N976 1.610 1_655 S
N975 S974 1.613 . S
N975 C978 1.350 1_655 S
N976 S974 1.610 1_455 S
N976 C977 1.351 . S
C977 C971 1.428 . S
C977 N976 1.351 . S
C977 C978 1.434 . S
C978 C969 1.429 . S
C978 N975 1.350 1_455 S
C978 C977 1.434 . S
C979 C980 1.369 . S
C979 C981 1.419 . S
C979 H983 0.930 . S
C980 C979 1.369 . S
C980 C989 1.429 . S
C981 C979 1.419 . S
C981 C982 1.363 . S
C981 H984 0.929 . S
C982 C981 1.363 . S
C982 C988 1.428 . S
H983 C979 0.930 . S
H984 C981 0.929 . S
S985 N986 1.613 . S
S985 N987 1.610 . S
N986 S985 1.613 . S
N986 C989 1.350 . S
N987 S985 1.610 . S
N987 C988 1.351 . S
C988 C982 1.428 . S
C988 N987 1.351 . S
C988 C989 1.434 . S
C989 C980 1.429 . S
C989 N986 1.350 . S
C989 C988 1.434 . S
C397 C53 1.487 . S
C399 C6 1.479 . S
C408 C9 1.487 . S
C410 C27 1.479 1_545 S
C419 C29 1.478 1_455 S
C421 C50 1.487 . S
C430 C75 1.478 . S
C432 C115 1.487 . S
C441 C72 1.478 1_545 S
C443 C95 1.486 . S
C452 C93 1.485 . S
C454 C117 1.479 1_455 S
C463 C185 1.488 . S
C465 C138 1.480 . S
C474 C160 1.488 . S
C476 C141 1.480 . S
C485 C163 1.487 . S
C487 C182 1.479 . S
C496 C205 1.486 . S
C498 C247 1.479 . S
C507 C203 1.489 . S
C509 C227 1.481 . S
C518 C249 1.481 . S
C520 C225 1.488 . S
C529 C315 1.480 . S
C531 C270 1.479 . S
C540 C273 1.480 . S
C542 C291 1.479 . S
C551 C293 1.486 . S
C553 C313 1.487 . S
C562 C379 1.478 . S
C564 C339 1.486 . S
C573 C359 1.482 . S
C575 C336 1.488 . S
C584 C381 1.481 . S
C586 C357 1.488 . S
C595 C5 1.764 . S
C597 C295 1.764 . S
C606 C317 1.766 . S
C608 C26 1.768 . S
C617 C49 1.763 1_565 S
C619 C272 1.765 . S
C628 C159 1.767 . S
C630 C52 1.768 . S
C639 C8 1.765 1_655 S
C641 C181 1.764 . S
C650 C137 1.768 . S
C652 C31 1.767 . S
C661 C226 1.763 . S
C663 C73 1.765 1_655 S
C672 C96 1.762 . S
C674 C248 1.764 . S
C683 C204 1.767 . S
C685 C118 1.766 . S
C694 C116 1.770 1_565 S
C696 C360 1.769 . S
C705 C382 1.764 . S
C707 C70 1.764 . S
C716 C337 1.768 . S
C718 C94 1.767 . S
C727 C290 1.768 . S
C729 C184 1.766 1_455 S
C738 C312 1.765 . S
C740 C140 1.765 . S
C749 C162 1.767 . S
C751 C269 1.766 1_545 S
C760 C206 1.768 . S
C762 C358 1.767 1_545 S
C771 C380 1.765 . S
C773 C228 1.765 1_455 S
C782 C250 1.764 . S
C784 C334 1.765 . S
C793 C4 1.186 . S
C795 C338 1.187 . S
C804 C28 1.185 . S
C806 C361 1.189 . S
C815 C383 1.184 . S
C817 C48 1.189 . S
C826 C246 1.187 . S
C828 C51 1.187 . S
C837 C202 1.183 . S
C839 C7 1.189 . S
C848 C30 1.185 . S
C850 C224 1.188 . S
C859 C74 1.184 . S
C861 C136 1.190 . S
C870 C97 1.184 . S
C872 C158 1.189 . S
C881 C119 1.188 . S
C883 C180 1.186 . S
C892 C114 1.185 . S
C894 C316 1.189 . S
C903 C71 1.187 . S
C905 C271 1.186 . S
C914 C294 1.189 . S
C916 C92 1.185 . S
C925 C183 1.184 . S
C927 C378 1.190 . S
C936 C335 1.184 . S
C938 C139 1.189 . S
C947 C161 1.184 . S
C949 C356 1.190 . S
C958 C207 1.184 . S
C960 C268 1.189 . S
C969 C229 1.188 . S
C971 C292 1.186 . S
C980 C314 1.190 . S
C982 C251 1.185 . S
