# Generated by pormake.
# Topology ukn, (4)-cn, num edge types: 1
# Building blocks:
#     Node 0, Type 0, BuildingBlock: KUFVIS_clean_sbu_0, # of connection points: 4
#     Node 1, Type 0, BuildingBlock: KUFVIS_clean_sbu_0, # of connection points: 4
#     Node 2, Type 0, BuildingBlock: KUFVIS_clean_sbu_0, # of connection points: 4
#     Node 3, Type 0, BuildingBlock: KUFVIS_clean_sbu_0, # of connection points: 4
#     Node 4, Type 0, BuildingBlock: KUFVIS_clean_sbu_0, # of connection points: 4
#     Node 5, Type 0, BuildingBlock: KUFVIS_clean_sbu_0, # of connection points: 4
#     Node 6, Type 0, BuildingBlock: KUFVIS_clean_sbu_0, # of connection points: 4
#     Node 7, Type 0, BuildingBlock: KUFVIS_clean_sbu_0, # of connection points: 4
#     Node 8, Type 0, BuildingBlock: KUFVIS_clean_sbu_0, # of connection points: 4
#     Node 9, Type 0, BuildingBlock: KUFVIS_clean_sbu_0, # of connection points: 4
#     Node 10, Type 0, BuildingBlock: KUFVIS_clean_sbu_0, # of connection points: 4
#     Node 11, Type 0, BuildingBlock: KUFVIS_clean_sbu_0, # of connection points: 4
#     Node 12, Type 0, BuildingBlock: KUFVIS_clean_sbu_0, # of connection points: 4
#     Node 13, Type 0, BuildingBlock: KUFVIS_clean_sbu_0, # of connection points: 4
#     Node 14, Type 0, BuildingBlock: KUFVIS_clean_sbu_0, # of connection points: 4
#     Node 15, Type 0, BuildingBlock: KUFVIS_clean_sbu_0, # of connection points: 4
#     Node 16, Type 0, BuildingBlock: KUFVIS_clean_sbu_0, # of connection points: 4
#     Node 17, Type 0, BuildingBlock: KUFVIS_clean_sbu_0, # of connection points: 4
#     Node 18, Type 0, BuildingBlock: KUFVIS_clean_sbu_0, # of connection points: 4
#     Node 19, Type 0, BuildingBlock: KUFVIS_clean_sbu_0, # of connection points: 4
#     Node 20, Type 0, BuildingBlock: KUFVIS_clean_sbu_0, # of connection points: 4
#     Node 21, Type 0, BuildingBlock: KUFVIS_clean_sbu_0, # of connection points: 4
#     Node 22, Type 0, BuildingBlock: KUFVIS_clean_sbu_0, # of connection points: 4
#     Node 23, Type 0, BuildingBlock: KUFVIS_clean_sbu_0, # of connection points: 4
#     Node 24, Type 0, BuildingBlock: KUFVIS_clean_sbu_0, # of connection points: 4
#     Node 25, Type 0, BuildingBlock: KUFVIS_clean_sbu_0, # of connection points: 4
#     Node 26, Type 0, BuildingBlock: KUFVIS_clean_sbu_0, # of connection points: 4
#     Node 27, Type 0, BuildingBlock: KUFVIS_clean_sbu_0, # of connection points: 4
#     Node 28, Type 0, BuildingBlock: KUFVIS_clean_sbu_0, # of connection points: 4
#     Node 29, Type 0, BuildingBlock: KUFVIS_clean_sbu_0, # of connection points: 4
#     Node 30, Type 0, BuildingBlock: KUFVIS_clean_sbu_0, # of connection points: 4
#     Node 31, Type 0, BuildingBlock: KUFVIS_clean_sbu_0, # of connection points: 4
#     Node 32, Type 0, BuildingBlock: KUFVIS_clean_sbu_0, # of connection points: 4
#     Node 33, Type 0, BuildingBlock: KUFVIS_clean_sbu_0, # of connection points: 4
#     Node 34, Type 0, BuildingBlock: KUFVIS_clean_sbu_0, # of connection points: 4
#     Node 35, Type 0, BuildingBlock: KUFVIS_clean_sbu_0, # of connection points: 4
#     Edge 36, Type (0, 0), BuildingBlock: XIVTED_clean_linker_0, # of connection points: 2
#     Edge 37, Type (0, 0), BuildingBlock: XIVTED_clean_linker_0, # of connection points: 2
#     Edge 38, Type (0, 0), BuildingBlock: XIVTED_clean_linker_0, # of connection points: 2
#     Edge 39, Type (0, 0), BuildingBlock: XIVTED_clean_linker_0, # of connection points: 2
#     Edge 40, Type (0, 0), BuildingBlock: XIVTED_clean_linker_0, # of connection points: 2
#     Edge 41, Type (0, 0), BuildingBlock: XIVTED_clean_linker_0, # of connection points: 2
#     Edge 42, Type (0, 0), BuildingBlock: XIVTED_clean_linker_0, # of connection points: 2
#     Edge 43, Type (0, 0), BuildingBlock: XIVTED_clean_linker_0, # of connection points: 2
#     Edge 44, Type (0, 0), BuildingBlock: XIVTED_clean_linker_0, # of connection points: 2
#     Edge 45, Type (0, 0), BuildingBlock: XIVTED_clean_linker_0, # of connection points: 2
#     Edge 46, Type (0, 0), BuildingBlock: XIVTED_clean_linker_0, # of connection points: 2
#     Edge 47, Type (0, 0), BuildingBlock: XIVTED_clean_linker_0, # of connection points: 2
#     Edge 48, Type (0, 0), BuildingBlock: XIVTED_clean_linker_0, # of connection points: 2
#     Edge 49, Type (0, 0), BuildingBlock: XIVTED_clean_linker_0, # of connection points: 2
#     Edge 50, Type (0, 0), BuildingBlock: XIVTED_clean_linker_0, # of connection points: 2
#     Edge 51, Type (0, 0), BuildingBlock: XIVTED_clean_linker_0, # of connection points: 2
#     Edge 52, Type (0, 0), BuildingBlock: XIVTED_clean_linker_0, # of connection points: 2
#     Edge 53, Type (0, 0), BuildingBlock: XIVTED_clean_linker_0, # of connection points: 2
#     Edge 54, Type (0, 0), BuildingBlock: XIVTED_clean_linker_0, # of connection points: 2
#     Edge 55, Type (0, 0), BuildingBlock: XIVTED_clean_linker_0, # of connection points: 2
#     Edge 56, Type (0, 0), BuildingBlock: XIVTED_clean_linker_0, # of connection points: 2
#     Edge 57, Type (0, 0), BuildingBlock: XIVTED_clean_linker_0, # of connection points: 2
#     Edge 58, Type (0, 0), BuildingBlock: XIVTED_clean_linker_0, # of connection points: 2
#     Edge 59, Type (0, 0), BuildingBlock: XIVTED_clean_linker_0, # of connection points: 2
#     Edge 60, Type (0, 0), BuildingBlock: XIVTED_clean_linker_0, # of connection points: 2
#     Edge 61, Type (0, 0), BuildingBlock: XIVTED_clean_linker_0, # of connection points: 2
#     Edge 62, Type (0, 0), BuildingBlock: XIVTED_clean_linker_0, # of connection points: 2
#     Edge 63, Type (0, 0), BuildingBlock: XIVTED_clean_linker_0, # of connection points: 2
#     Edge 64, Type (0, 0), BuildingBlock: XIVTED_clean_linker_0, # of connection points: 2
#     Edge 65, Type (0, 0), BuildingBlock: XIVTED_clean_linker_0, # of connection points: 2
#     Edge 66, Type (0, 0), BuildingBlock: XIVTED_clean_linker_0, # of connection points: 2
#     Edge 67, Type (0, 0), BuildingBlock: XIVTED_clean_linker_0, # of connection points: 2
#     Edge 68, Type (0, 0), BuildingBlock: XIVTED_clean_linker_0, # of connection points: 2
#     Edge 69, Type (0, 0), BuildingBlock: XIVTED_clean_linker_0, # of connection points: 2
#     Edge 70, Type (0, 0), BuildingBlock: XIVTED_clean_linker_0, # of connection points: 2
#     Edge 71, Type (0, 0), BuildingBlock: XIVTED_clean_linker_0, # of connection points: 2
#     Edge 72, Type (0, 0), BuildingBlock: XIVTED_clean_linker_0, # of connection points: 2
#     Edge 73, Type (0, 0), BuildingBlock: XIVTED_clean_linker_0, # of connection points: 2
#     Edge 74, Type (0, 0), BuildingBlock: XIVTED_clean_linker_0, # of connection points: 2
#     Edge 75, Type (0, 0), BuildingBlock: XIVTED_clean_linker_0, # of connection points: 2
#     Edge 76, Type (0, 0), BuildingBlock: XIVTED_clean_linker_0, # of connection points: 2
#     Edge 77, Type (0, 0), BuildingBlock: XIVTED_clean_linker_0, # of connection points: 2
#     Edge 78, Type (0, 0), BuildingBlock: XIVTED_clean_linker_0, # of connection points: 2
#     Edge 79, Type (0, 0), BuildingBlock: XIVTED_clean_linker_0, # of connection points: 2
#     Edge 80, Type (0, 0), BuildingBlock: XIVTED_clean_linker_0, # of connection points: 2
#     Edge 81, Type (0, 0), BuildingBlock: XIVTED_clean_linker_0, # of connection points: 2
#     Edge 82, Type (0, 0), BuildingBlock: XIVTED_clean_linker_0, # of connection points: 2
#     Edge 83, Type (0, 0), BuildingBlock: XIVTED_clean_linker_0, # of connection points: 2
#     Edge 84, Type (0, 0), BuildingBlock: XIVTED_clean_linker_0, # of connection points: 2
#     Edge 85, Type (0, 0), BuildingBlock: XIVTED_clean_linker_0, # of connection points: 2
#     Edge 86, Type (0, 0), BuildingBlock: XIVTED_clean_linker_0, # of connection points: 2
#     Edge 87, Type (0, 0), BuildingBlock: XIVTED_clean_linker_0, # of connection points: 2
#     Edge 88, Type (0, 0), BuildingBlock: XIVTED_clean_linker_0, # of connection points: 2
#     Edge 89, Type (0, 0), BuildingBlock: XIVTED_clean_linker_0, # of connection points: 2
#     Edge 90, Type (0, 0), BuildingBlock: XIVTED_clean_linker_0, # of connection points: 2
#     Edge 91, Type (0, 0), BuildingBlock: XIVTED_clean_linker_0, # of connection points: 2
#     Edge 92, Type (0, 0), BuildingBlock: XIVTED_clean_linker_0, # of connection points: 2
#     Edge 93, Type (0, 0), BuildingBlock: XIVTED_clean_linker_0, # of connection points: 2
#     Edge 94, Type (0, 0), BuildingBlock: XIVTED_clean_linker_0, # of connection points: 2
#     Edge 95, Type (0, 0), BuildingBlock: XIVTED_clean_linker_0, # of connection points: 2
#     Edge 96, Type (0, 0), BuildingBlock: XIVTED_clean_linker_0, # of connection points: 2
#     Edge 97, Type (0, 0), BuildingBlock: XIVTED_clean_linker_0, # of connection points: 2
#     Edge 98, Type (0, 0), BuildingBlock: XIVTED_clean_linker_0, # of connection points: 2
#     Edge 99, Type (0, 0), BuildingBlock: XIVTED_clean_linker_0, # of connection points: 2
#     Edge 100, Type (0, 0), BuildingBlock: XIVTED_clean_linker_0, # of connection points: 2
#     Edge 101, Type (0, 0), BuildingBlock: XIVTED_clean_linker_0, # of connection points: 2
#     Edge 102, Type (0, 0), BuildingBlock: XIVTED_clean_linker_0, # of connection points: 2
#     Edge 103, Type (0, 0), BuildingBlock: XIVTED_clean_linker_0, # of connection points: 2
#     Edge 104, Type (0, 0), BuildingBlock: XIVTED_clean_linker_0, # of connection points: 2
#     Edge 105, Type (0, 0), BuildingBlock: XIVTED_clean_linker_0, # of connection points: 2
#     Edge 106, Type (0, 0), BuildingBlock: XIVTED_clean_linker_0, # of connection points: 2
#     Edge 107, Type (0, 0), BuildingBlock: XIVTED_clean_linker_0, # of connection points: 2
# Relax obj value: 0.087
# Max RMSD: 0.108
# Mean RMSD: 0.107
data_MOF--net-ukn--node1-KUFVIS_clean_sbu_0--edge1-XIVTED_clean_linker_0
_symmetry_space_group_name_H-M    P1
_symmetry_Int_Tables_number       1
_symmetry_cell_setting            triclinic
loop_
_symmetry_equiv_pos_as_xyz
'x, y, z'
_cell_length_a     107.62486
_cell_length_b     107.63546
_cell_length_c     25.962349
_cell_angle_alpha  89.996427
_cell_angle_beta   90.012725
_cell_angle_gamma 119.98054
loop_
_atom_site_label
_atom_site_type_symbol
_atom_site_fract_x
_atom_site_fract_y
_atom_site_fract_z
_atom_type_partial_charge
Mn0 Mn 0.08297 0.29936 0.06728 0.0
Mn1 Mn 0.11246 0.33227 0.07113 0.0
C2 C 0.09522 0.31045 0.99239 0.0
C3 C 0.05785 0.28583 0.058 0.0
C4 C 0.11222 0.305 0.10458 0.0
O5 O 0.08201 0.3069 0.13926 0.0
O6 O 0.10018 0.32974 0.13104 0.0
C7 C 0.09866 0.34985 0.05512 0.0
N8 N 0.1085 0.34608 0.04065 0.0
C9 C 0.11685 0.36319 0.97125 0.0
C10 C 0.10694 0.36738 0.98581 0.0
C11 C 0.09776 0.36063 0.02776 0.0
C12 C 0.11723 0.35235 -0.00014 0.0
H13 H 0.09152 0.34461 0.0871 0.0
C14 C 0.0894 0.31988 0.15523 0.0
O15 O 0.06499 0.2802 0.07812 0.0
O16 O 0.0652 0.29927 0.04605 0.0
N17 N 0.12523 0.33616 0.01427 0.0
C18 C 0.13366 0.33036 0.00353 0.0
C19 C 0.14322 0.33565 0.96175 0.0
C20 C 0.14412 0.34695 0.93182 0.0
C21 C 0.13547 0.35287 0.94398 0.0
C22 C 0.12618 0.34718 0.98614 0.0
H23 H 0.13313 0.32177 0.02662 0.0
O24 O 0.08659 0.2967 0.99307 0.0
O25 O 0.09622 0.31709 0.03493 0.0
O26 O 0.09939 0.29594 0.09068 0.0
O27 O 0.11758 0.31861 0.10181 0.0
C28 C 0.13557 0.36406 0.91554 0.0
C29 C 0.12619 0.36915 0.92892 0.0
H30 H 0.10619 0.37567 0.96474 0.0
H31 H 0.08999 0.36371 0.03895 0.0
H32 H 0.14988 0.33105 0.95269 0.0
H33 H 0.15144 0.35095 0.89946 0.0
H34 H 0.14266 0.3687 0.88281 0.0
H35 H 0.12617 0.37757 0.90613 0.0
Mn36 Mn 0.71331 0.786 0.06551 0.0
Mn37 Mn 0.68065 0.78318 0.06882 0.0
C38 C 0.70251 0.78754 0.99046 0.0
C39 C 0.72644 0.77402 0.05654 0.0
C40 C 0.70811 0.80982 0.1033 0.0
O41 O 0.70556 0.77747 0.13719 0.0
O42 O 0.68283 0.7731 0.12847 0.0
C43 C 0.66261 0.7519 0.0517 0.0
N44 N 0.66669 0.7656 0.03761 0.0
C45 C 0.64975 0.75734 0.96765 0.0
C46 C 0.64526 0.74314 0.98177 0.0
C47 C 0.65177 0.74041 0.02382 0.0
C48 C 0.66064 0.76835 -0.00324 0.0
H49 H 0.66765 0.74977 0.0838 0.0
C50 C 0.69256 0.77198 0.15283 0.0
O51 O 0.73227 0.78678 0.07676 0.0
O52 O 0.71305 0.76818 0.04416 0.0
N53 N 0.67713 0.7924 0.01216 0.0
C54 C 0.6832 0.80668 0.0019 0.0
C55 C 0.67815 0.81122 0.96014 0.0
C56 C 0.66684 0.80105 0.92971 0.0
C57 C 0.66064 0.78642 0.94136 0.0
C58 C 0.66609 0.78254 0.98353 0.0
H59 H 0.69181 0.81457 0.02538 0.0
O60 O 0.71622 0.79242 0.99144 0.0
O61 O 0.69574 0.7819 0.0328 0.0
O62 O 0.71705 0.80591 0.08924 0.0
O63 O 0.69448 0.80176 0.10026 0.0
C64 C 0.6494 0.77554 0.9124 0.0
C65 C 0.64403 0.761 0.9253 0.0
H66 H 0.63692 0.73425 0.9603 0.0
H67 H 0.64845 0.72948 0.03469 0.0
H68 H 0.68297 0.82253 0.95147 0.0
H69 H 0.66303 0.80459 0.89737 0.0
H70 H 0.64495 0.77822 0.87966 0.0
H71 H 0.63558 0.75272 0.90212 0.0
Mn72 Mn 0.22542 0.92782 0.07205 0.0
Mn73 Mn 0.22892 0.89843 0.08071 0.0
C74 C 0.22405 0.91481 -0.00096 0.0
C75 C 0.23696 0.95282 0.05992 0.0
C76 C 0.20189 0.89893 0.11215 0.0
O77 O 0.234 0.92951 0.14435 0.0
O78 O 0.23865 0.91127 0.13946 0.0
C79 C 0.26029 0.91223 0.0649 0.0
N80 N 0.24671 0.90222 0.05092 0.0
C81 C 0.25553 0.89343 0.98314 0.0
C82 C 0.26961 0.90353 -0.00279 0.0
C83 C 0.272 0.91302 0.0381 0.0
C84 C 0.24429 0.89319 0.01115 0.0
H85 H 0.26217 0.9196 0.09607 0.0
C86 C 0.23958 0.92228 0.16201 0.0
O87 O 0.22422 0.94587 0.08025 0.0
O88 O 0.24304 0.94538 0.04922 0.0
N89 N 0.22008 0.8851 0.02529 0.0
C90 C 0.20585 0.87642 0.01512 0.0
C91 C 0.20162 0.86648 0.97457 0.0
C92 C 0.21205 0.86546 0.94527 0.0
C93 C 0.22662 0.87438 0.95688 0.0
C94 C 0.23018 0.88403 -0.00213 0.0
H95 H 0.19777 0.87704 0.03774 0.0
O96 O 0.21898 0.92348 -0.00182 0.0
O97 O 0.22985 0.91426 0.04189 0.0
O98 O 0.20565 0.91164 0.09675 0.0
O99 O 0.21013 0.89353 0.1107 0.0
C100 C 0.23775 0.87417 0.92904 0.0
C101 C 0.25219 0.88376 0.94191 0.0
H102 H 0.27867 0.90419 0.97657 0.0
H103 H 0.28284 0.92092 0.04891 0.0
H104 H 0.19036 0.85961 0.96594 0.0
H105 H 0.20876 0.85784 0.91384 0.0
H106 H 0.23533 0.8668 0.89722 0.0
H107 H 0.26066 0.88367 0.91961 0.0
Mn108 Mn 0.30121 0.07961 0.91827 0.0
Mn109 Mn 0.33437 0.10861 0.90994 0.0
C110 C 0.31306 0.09236 0.99144 0.0
C111 C 0.28741 0.05461 0.92995 0.0
C112 C 0.30713 0.10885 0.87955 0.0
O113 O 0.30792 0.07786 0.84576 0.0
O114 O 0.33091 0.09586 0.85064 0.0
C115 C 0.35132 0.09407 0.92426 0.0
N116 N 0.34813 0.10431 0.93884 0.0
C117 C 0.36587 0.1126 0.00611 0.0
C118 C 0.36949 0.10228 0.99134 0.0
C119 C 0.36213 0.09292 0.95042 0.0
C120 C 0.35497 0.1132 0.97872 0.0
H121 H 0.34561 0.08679 0.8931 0.0
C122 C 0.32073 0.08497 0.82802 0.0
O123 O 0.2818 0.06178 0.91001 0.0
O124 O 0.30095 0.06184 0.9405 0.0
N125 N 0.33924 0.12185 0.96588 0.0
C126 C 0.33405 0.1308 0.97673 0.0
C127 C 0.34006 0.14065 0.01742 0.0
C128 C 0.35144 0.14132 0.04613 0.0
C129 C 0.35674 0.13214 0.03381 0.0
C130 C 0.35036 0.12258 0.99274 0.0
H131 H 0.3254 0.13045 0.95453 0.0
O132 O 0.29928 0.0839 0.99234 0.0
O133 O 0.31932 0.09286 0.94846 0.0
O134 O 0.29801 0.09611 0.89426 0.0
O135 O 0.32073 0.11401 0.88097 0.0
C136 C 0.36801 0.13202 0.06097 0.0
C137 C 0.3725 0.12218 0.0474 0.0
H138 H 0.37781 0.10135 0.01147 0.0
H139 H 0.36476 0.08484 0.9391 0.0
H140 H 0.33594 0.14773 0.02659 0.0
H141 H 0.356 0.14888 0.07764 0.0
H142 H 0.3732 0.13932 0.09277 0.0
H143 H 0.381 0.12201 0.06919 0.0
Mn144 Mn 0.93043 0.22407 0.92136 0.0
Mn145 Mn 0.90122 0.22794 0.91362 0.0
C146 C 0.91742 0.22251 -0.00546 0.0
C147 C 0.95546 0.23547 0.93339 0.0
C148 C 0.90127 0.2007 0.88186 0.0
O149 O 0.93222 0.23283 0.84939 0.0
O150 O 0.91402 0.2375 0.85473 0.0
C151 C 0.91567 0.25935 0.92963 0.0
N152 N 0.90543 0.24586 0.9435 0.0
C153 C 0.89698 0.25499 0.01135 0.0
C154 C 0.90732 0.26899 -0.00265 0.0
C155 C 0.91675 0.27118 0.95649 0.0
C156 C 0.89647 0.24362 0.98334 0.0
H157 H 0.923 0.26107 0.89849 0.0
C158 C 0.925 0.23845 0.83201 0.0
O159 O 0.94844 0.22278 0.91274 0.0
O160 O 0.94807 0.24157 0.94458 0.0
N161 N 0.88783 0.21931 0.96899 0.0
C162 C 0.87868 0.20513 0.97841 0.0
C163 C 0.8686 0.2011 0.0184 0.0
C164 C 0.86789 0.21168 0.04781 0.0
C165 C 0.87725 0.2262 0.03687 0.0
C166 C 0.88703 0.22957 -0.00358 0.0
H167 H 0.87904 0.19693 0.95558 0.0
O168 O 0.92607 0.21742 -0.00506 0.0
O169 O 0.91695 0.22855 0.95216 0.0
O170 O 0.91407 0.20441 0.89622 0.0
O171 O 0.89599 0.20903 0.88385 0.0
C172 C 0.87733 0.23747 0.06476 0.0
C173 C 0.88727 0.25185 0.05231 0.0
H174 H 0.90818 0.27814 0.01797 0.0
H175 H 0.92484 0.28195 0.94574 0.0
H176 H 0.86138 0.18986 0.02646 0.0
H177 H 0.86015 0.20853 0.07879 0.0
H178 H 0.86988 0.23521 0.0962 0.0
H179 H 0.88738 0.26042 0.07457 0.0
Mn180 Mn 0.78818 0.70838 0.92071 0.0
Mn181 Mn 0.78426 0.67528 0.91448 0.0
C182 C 0.7901 0.69728 -0.00572 0.0
C183 C 0.77698 0.72216 0.93268 0.0
C184 C 0.81124 0.70237 0.87976 0.0
O185 O 0.77899 0.70102 0.84957 0.0
O186 O 0.77429 0.67816 0.856 0.0
C187 C 0.75296 0.65826 0.9329 0.0
N188 N 0.76656 0.6617 0.94602 0.0
C189 C 0.75794 0.64454 0.01522 0.0
C190 C 0.74383 0.64069 0.0021 0.0
C191 C 0.74134 0.64764 0.96092 0.0
C192 C 0.7691 0.65525 0.98608 0.0
H193 H 0.75101 0.66362 0.90143 0.0
C194 C 0.77325 0.6881 0.83294 0.0
O195 O 0.78953 0.72765 0.91101 0.0
O196 O 0.77087 0.70874 0.94487 0.0
N197 N 0.79329 0.67092 0.96961 0.0
C198 C 0.80755 0.67616 0.97826 0.0
C199 C 0.81188 0.67044 0.0185 0.0
C200 C 0.80152 0.65929 0.04898 0.0
C201 C 0.78692 0.65393 0.0389 0.0
C202 C 0.78324 0.66001 -0.00182 0.0
H203 H 0.81557 0.68461 0.95463 0.0
O204 O 0.79526 0.71103 -0.00616 0.0
O205 O 0.78384 0.69059 0.95243 0.0
O206 O 0.80766 0.71152 0.89433 0.0
O207 O 0.80294 0.68877 0.88281 0.0
C208 C 0.77586 0.64286 0.0679 0.0
C209 C 0.76139 0.63826 0.05638 0.0
H210 H 0.73483 0.6325 0.02361 0.0
H211 H 0.73048 0.6448 0.95079 0.0
H212 H 0.82317 0.67461 0.02593 0.0
H213 H 0.8049 0.65496 0.08014 0.0
H214 H 0.77836 0.63791 0.0995 0.0
H215 H 0.75299 0.62991 0.0795 0.0
Mn216 Mn 0.93021 0.70835 0.9221 0.0
Mn217 Mn 0.90108 0.67521 0.91644 0.0
C218 C 0.9172 0.69741 -0.00417 0.0
C219 C 0.9552 0.72214 0.93365 0.0
C220 C 0.90115 0.70221 0.88069 0.0
O221 O 0.932 0.70087 0.85118 0.0
O222 O 0.91393 0.67799 0.85813 0.0
C223 C 0.91538 0.65825 0.93581 0.0
N224 N 0.90522 0.66172 0.9486 0.0
C225 C 0.89667 0.64468 0.01819 0.0
C226 C 0.90696 0.64082 0.00545 0.0
C227 C 0.9164 0.64769 0.96423 0.0
C228 C 0.89623 0.65533 0.98866 0.0
H229 H 0.92269 0.66354 0.90426 0.0
C230 C 0.92486 0.68792 0.83484 0.0
O231 O 0.94811 0.72758 0.91185 0.0
O232 O 0.94789 0.70875 0.94636 0.0
N233 N 0.88766 0.67094 0.97138 0.0
C234 C 0.87859 0.67614 0.9795 0.0
C235 C 0.8685 0.67046 0.01962 0.0
C236 C 0.86772 0.65938 0.05052 0.0
C237 C 0.87702 0.65405 0.04096 0.0
C238 C 0.88681 0.66009 0.00033 0.0
H239 H 0.87901 0.68453 0.95553 0.0
O240 O 0.92582 0.71116 -0.00494 0.0
O241 O 0.91677 0.69062 0.95424 0.0
O242 O 0.91385 0.71142 0.8954 0.0
O243 O 0.89588 0.68862 0.88408 0.0
C244 C 0.87703 0.64305 0.07037 0.0
C245 C 0.88693 0.63846 0.0593 0.0
H246 H 0.90777 0.63268 0.02726 0.0
H247 H 0.92443 0.64485 0.95437 0.0
H248 H 0.86133 0.6746 0.02663 0.0
H249 H 0.85998 0.65508 0.08158 0.0
H250 H 0.86955 0.63814 0.10194 0.0
H251 H 0.88698 0.63015 0.08272 0.0
Mn252 Mn 0.30227 0.22293 0.92057 0.0
Mn253 Mn 0.33521 0.22649 0.9132 0.0
C254 C 0.31376 0.22157 -0.00593 0.0
C255 C 0.2888 0.23451 0.93209 0.0
C256 C 0.3078 0.19941 0.88129 0.0
O257 O 0.30929 0.23149 0.84834 0.0
O258 O 0.33215 0.23611 0.85399 0.0
C259 C 0.35259 0.2579 0.92859 0.0
N260 N 0.34909 0.24436 0.94287 0.0
C261 C 0.36669 0.25334 0.01065 0.0
C262 C 0.37061 0.26739 -0.00373 0.0
C263 C 0.36347 0.26967 0.95524 0.0
C264 C 0.35572 0.24204 0.98283 0.0
H265 H 0.34707 0.25969 0.89728 0.0
C266 C 0.32213 0.23703 0.831 0.0
O267 O 0.28303 0.22177 0.9118 0.0
O268 O 0.30229 0.24056 0.94311 0.0
N269 N 0.33969 0.21778 0.96907 0.0
C270 C 0.33423 0.20358 0.97946 0.0
C271 C 0.34 0.19946 0.02014 0.0
C272 C 0.35143 0.20996 0.04928 0.0
C273 C 0.357 0.2245 0.03743 0.0
C274 C 0.35084 0.22796 -0.00361 0.0
H275 H 0.32555 0.19544 0.95688 0.0
O276 O 0.30002 0.21649 -0.00551 0.0
O277 O 0.3202 0.22738 0.95138 0.0
O278 O 0.29878 0.20315 0.89604 0.0
O279 O 0.32142 0.20765 0.88335 0.0
C280 C 0.36836 0.2357 0.06499 0.0
C281 C 0.37311 0.25011 0.0519 0.0
H282 H 0.37899 0.2765 0.01674 0.0
H283 H 0.36634 0.28048 0.94419 0.0
H284 H 0.33567 0.18821 0.02894 0.0
H285 H 0.35582 0.20674 0.08075 0.0
H286 H 0.37341 0.23337 0.09669 0.0
H287 H 0.38167 0.25863 0.07399 0.0
Mn288 Mn 0.78737 0.08071 0.92127 0.0
Mn289 Mn 0.78306 0.10967 0.91486 0.0
C290 C 0.78824 0.09319 -0.00481 0.0
C291 C 0.77628 0.05568 0.93172 0.0
C292 C 0.81064 0.11018 0.88387 0.0
O293 O 0.77888 0.07917 0.84894 0.0
O294 O 0.77392 0.09716 0.8549 0.0
C295 C 0.75155 0.09487 0.92865 0.0
N296 N 0.76493 0.10513 0.94365 0.0
C297 C 0.75528 0.11313 0.01116 0.0
C298 C 0.74139 0.10279 -0.00401 0.0
C299 C 0.73953 0.09356 0.95475 0.0
C300 C 0.76686 0.11388 0.98388 0.0
H301 H 0.75008 0.0877 0.8972 0.0
C302 C 0.77321 0.08635 0.83169 0.0
O303 O 0.78905 0.06297 0.91183 0.0
O304 O 0.76992 0.06282 0.94299 0.0
N305 N 0.79128 0.12271 0.97143 0.0
C306 C 0.80539 0.13174 0.98249 0.0
C307 C 0.8091 0.14151 0.0234 0.0
C308 C 0.7983 0.14203 0.05205 0.0
C309 C 0.78386 0.13277 0.0395 0.0
C310 C 0.78081 0.12329 -0.00175 0.0
H311 H 0.81375 0.13152 0.96027 0.0
O312 O 0.79361 0.08478 -0.0046 0.0
O313 O 0.78243 0.09381 0.95246 0.0
O314 O 0.80703 0.09736 0.89753 0.0
O315 O 0.80217 0.1153 0.88611 0.0
C316 C 0.77238 0.13251 0.06653 0.0
C317 C 0.7581 0.12261 0.05267 0.0
H318 H 0.73209 0.10174 0.01603 0.0
H319 H 0.72885 0.08546 0.94311 0.0
H320 H 0.82027 0.14865 0.03274 0.0
H321 H 0.80122 0.14954 0.08367 0.0
H322 H 0.7744 0.13976 0.09842 0.0
H323 H 0.74937 0.12233 0.07436 0.0
Mn324 Mn 0.71233 0.92791 0.06195 0.0
Mn325 Mn 0.67989 0.89783 0.06365 0.0
C326 C 0.70214 0.91537 0.98656 0.0
C327 C 0.72529 0.95301 0.05253 0.0
C328 C 0.70728 0.8991 0.10162 0.0
O329 O 0.70399 0.92872 0.13243 0.0
O330 O 0.68147 0.91009 0.12257 0.0
C331 C 0.66166 0.91069 0.043 0.0
N332 N 0.66604 0.90122 0.03014 0.0
C333 C 0.64989 0.89256 0.95786 0.0
C334 C 0.64511 0.90214 0.9706 0.0
C335 C 0.65107 0.91128 0.01324 0.0
C336 C 0.66051 0.89249 0.98883 0.0
H337 H 0.66626 0.91778 0.07561 0.0
C338 C 0.69092 0.92107 0.14719 0.0
O339 O 0.73108 0.94623 0.0742 0.0
O340 O 0.71201 0.94533 0.03894 0.0
N341 N 0.67692 0.88505 0.00764 0.0
C342 C 0.6831 0.87684 -0.0007 0.0
C343 C 0.67846 0.86719 0.95774 0.0
C344 C 0.66742 0.86599 0.9255 0.0
C345 C 0.66112 0.87444 0.93515 0.0
C346 C 0.66615 0.88381 0.97729 0.0
H347 H 0.69149 0.8776 0.02419 0.0
O348 O 0.71581 0.92434 0.98861 0.0
O349 O 0.69507 0.91422 0.02815 0.0
O350 O 0.71617 0.91197 0.08762 0.0
O351 O 0.69365 0.89335 0.09737 0.0
C352 C 0.6502 0.87408 0.90414 0.0
C353 C 0.64466 0.88321 0.91526 0.0
H354 H 0.63696 0.90264 0.94771 0.0
H355 H 0.64751 0.91877 0.02312 0.0
H356 H 0.68336 0.86069 0.95061 0.0
H357 H 0.66394 0.85861 0.89328 0.0
H358 H 0.64614 0.86697 0.87121 0.0
H359 H 0.63644 0.88301 0.89062 0.0
Mn360 Mn 0.08312 0.78586 0.06264 0.0
Mn361 Mn 0.11288 0.78289 0.06555 0.0
C362 C 0.09595 0.7884 0.98793 0.0
C363 C 0.05805 0.77397 0.05236 0.0
C364 C 0.11201 0.80925 0.1034 0.0
O365 O 0.08188 0.77649 0.13296 0.0
O366 O 0.10034 0.77232 0.12402 0.0
C367 C 0.09942 0.75177 0.04469 0.0
N368 N 0.10922 0.76555 0.03223 0.0
C369 C 0.11806 0.75778 0.96136 0.0
C370 C 0.10817 0.74349 0.97374 0.0
C371 C 0.09876 0.74048 0.01543 0.0
C372 C 0.11816 0.76858 0.99171 0.0
H373 H 0.09214 0.74941 0.07658 0.0
C374 C 0.08934 0.7709 0.14809 0.0
O375 O 0.06488 0.7865 0.07431 0.0
O376 O 0.06567 0.76831 0.03869 0.0
N377 N 0.12597 0.79253 0.01018 0.0
C378 C 0.13453 0.80689 0.00217 0.0
C379 C 0.14445 0.81172 0.96146 0.0
C380 C 0.1456 0.80176 0.92984 0.0
C381 C 0.13682 0.78704 0.93921 0.0
C382 C 0.12714 0.78286 0.98038 0.0
H383 H 0.13383 0.81462 0.02669 0.0
O384 O 0.08705 0.7932 0.98974 0.0
O385 O 0.09679 0.78215 0.02917 0.0
O386 O 0.09918 0.80545 0.08933 0.0
O387 O 0.1176 0.80123 0.09909 0.0
C388 C 0.1372 0.77635 0.90908 0.0
C389 C 0.12773 0.76173 0.91982 0.0
H390 H 0.10763 0.73475 0.9513 0.0
H391 H 0.09103 0.72948 0.02501 0.0
H392 H 0.15122 0.8231 0.95456 0.0
H393 H 0.15322 0.80552 0.89834 0.0
H394 H 0.14463 0.77924 0.87721 0.0
H395 H 0.12795 0.75361 0.8958 0.0
Mn396 Mn 0.22598 0.29904 0.06739 0.0
Mn397 Mn 0.22953 0.33201 0.07114 0.0
C398 C 0.22508 0.31026 0.99241 0.0
C399 C 0.23743 0.28538 0.05826 0.0
C400 C 0.20236 0.3048 0.10372 0.0
O401 O 0.23441 0.3065 0.13951 0.0
O402 O 0.23902 0.32933 0.13154 0.0
C403 C 0.26097 0.34947 0.05665 0.0
N404 N 0.24745 0.34579 0.04147 0.0
C405 C 0.25653 0.36293 0.97223 0.0
C406 C 0.27056 0.36703 0.98752 0.0
C407 C 0.27278 0.36021 0.02975 0.0
C408 C 0.24518 0.35212 0.00041 0.0
H409 H 0.26272 0.34418 0.08886 0.0
C410 C 0.23994 0.31946 0.15571 0.0
O411 O 0.22465 0.27981 0.07814 0.0
O412 O 0.24363 0.29884 0.04653 0.0
N413 N 0.22092 0.33605 0.01377 0.0
C414 C 0.20674 0.33034 0.00234 0.0
C415 C 0.20268 0.33572 0.96024 0.0
C416 C 0.21322 0.347 0.93069 0.0
C417 C 0.22773 0.35282 0.94355 0.0
C418 C 0.23113 0.34705 0.986 0.0
H419 H 0.19857 0.32176 0.02513 0.0
O420 O 0.21985 0.29649 0.993 0.0
O421 O 0.23063 0.31683 0.03513 0.0
O422 O 0.20614 0.29571 0.09032 0.0
O423 O 0.21063 0.3184 0.10093 0.0
C424 C 0.23896 0.36399 0.91551 0.0
C425 C 0.25336 0.36898 0.9296 0.0
H426 H 0.27969 0.3753 0.96681 0.0
H427 H 0.28358 0.36323 0.04151 0.0
H428 H 0.19145 0.33119 0.95064 0.0
H429 H 0.21005 0.35107 0.89808 0.0
H430 H 0.23666 0.36868 0.88256 0.0
H431 H 0.2619 0.37738 0.90713 0.0
Mn432 Mn 0.74935 0.63231 0.39585 0.0
Mn433 Mn 0.77907 0.66505 0.39949 0.0
C434 C 0.76222 0.64274 0.32138 0.0
C435 C 0.7243 0.61902 0.38528 0.0
C436 C 0.77826 0.63778 0.43636 0.0
O437 O 0.74803 0.64027 0.46642 0.0
O438 O 0.76654 0.66289 0.45822 0.0
C439 C 0.76553 0.68271 0.3799 0.0
N440 N 0.77534 0.67878 0.36695 0.0
C441 C 0.78413 0.6956 0.29669 0.0
C442 C 0.77421 0.69992 0.30956 0.0
C443 C 0.76482 0.69339 0.35119 0.0
C444 C 0.78427 0.68483 0.32648 0.0
H445 H 0.75827 0.67769 0.41179 0.0
C446 C 0.75553 0.65326 0.48209 0.0
O447 O 0.73119 0.61338 0.40723 0.0
O448 O 0.73184 0.63234 0.37191 0.0
N449 N 0.79219 0.66871 0.344 0.0
C450 C 0.80084 0.66303 0.33567 0.0
C451 C 0.81079 0.66829 0.29507 0.0
C452 C 0.81189 0.67947 0.26392 0.0
C453 C 0.80301 0.68529 0.27367 0.0
C454 C 0.79331 0.67962 0.31471 0.0
H455 H 0.80019 0.65457 0.35984 0.0
O456 O 0.75335 0.62905 0.3229 0.0
O457 O 0.763 0.64977 0.36274 0.0
O458 O 0.76542 0.62879 0.42237 0.0
O459 O 0.78387 0.6514 0.43224 0.0
C460 C 0.80334 0.69642 0.24406 0.0
C461 C 0.79381 0.70147 0.25523 0.0
H462 H 0.77364 0.70818 0.28756 0.0
H463 H 0.75706 0.69661 0.36117 0.0
H464 H 0.81763 0.66378 0.2879 0.0
H465 H 0.81953 0.68346 0.23252 0.0
H466 H 0.81078 0.70108 0.21227 0.0
H467 H 0.794 0.70987 0.23164 0.0
Mn468 Mn 0.37774 0.11782 0.39369 0.0
Mn469 Mn 0.34515 0.11513 0.39282 0.0
C470 C 0.36807 0.12053 0.31767 0.0
C471 C 0.39082 0.10579 0.3851 0.0
C472 C 0.37214 0.1412 0.43353 0.0
O473 O 0.36901 0.10836 0.46329 0.0
O474 O 0.34649 0.10431 0.45178 0.0
C475 C 0.32736 0.0841 0.37045 0.0
N476 N 0.33165 0.09797 0.3581 0.0
C477 C 0.31583 0.0906 0.2849 0.0
C478 C 0.31115 0.07624 0.29705 0.0
C479 C 0.31699 0.07298 0.33989 0.0
C480 C 0.32625 0.10123 0.31659 0.0
H481 H 0.33184 0.08156 0.4033 0.0
C482 C 0.35586 0.10283 0.47715 0.0
O483 O 0.39645 0.11828 0.40738 0.0
O484 O 0.37764 0.10023 0.37028 0.0
N485 N 0.34236 0.12506 0.33682 0.0
C486 C 0.34838 0.13947 0.32928 0.0
C487 C 0.34381 0.14454 0.28771 0.0
C488 C 0.33299 0.13476 0.2547 0.0
C489 C 0.32682 0.12 0.26357 0.0
C490 C 0.33179 0.11557 0.30569 0.0
H491 H 0.35659 0.14704 0.35481 0.0
O492 O 0.38173 0.12527 0.32092 0.0
O493 O 0.3607 0.11431 0.35842 0.0
O494 O 0.38123 0.13741 0.42026 0.0
O495 O 0.35857 0.13327 0.42776 0.0
C496 C 0.31607 0.10949 0.23192 0.0
C497 C 0.31067 0.0948 0.2423 0.0
H498 H 0.30315 0.06763 0.27359 0.0
H499 H 0.31349 0.06192 0.34935 0.0
H500 H 0.3486 0.15595 0.28119 0.0
H501 H 0.32954 0.13871 0.22252 0.0
H502 H 0.31203 0.11259 0.19907 0.0
H503 H 0.30259 0.08683 0.21714 0.0
Mn504 Mn 0.89206 0.26217 0.39594 0.0
Mn505 Mn 0.89476 0.23225 0.39751 0.0
C506 C 0.88958 0.24957 0.3207 0.0
C507 C 0.90399 0.28724 0.3864 0.0
C508 C 0.86838 0.23316 0.43485 0.0
O509 O 0.90131 0.26316 0.46633 0.0
O510 O 0.90505 0.24444 0.45699 0.0
C511 C 0.92598 0.24567 0.37869 0.0
N512 N 0.91224 0.236 0.36516 0.0
C513 C 0.92032 0.22738 0.29452 0.0
C514 C 0.93456 0.23716 0.30797 0.0
C515 C 0.93739 0.2464 0.35008 0.0
C516 C 0.90939 0.22723 0.3242 0.0
H517 H 0.92819 0.25281 0.41098 0.0
C518 C 0.90661 0.25544 0.48145 0.0
O519 O 0.89144 0.28039 0.40824 0.0
O520 O 0.90967 0.27965 0.37263 0.0
N521 N 0.88536 0.21945 0.34118 0.0
C522 C 0.87104 0.21094 0.33227 0.0
C523 C 0.86638 0.20117 0.2911 0.0
C524 C 0.87648 0.20008 0.26002 0.0
C525 C 0.89115 0.2088 0.27035 0.0
C526 C 0.89515 0.21834 0.31188 0.0
H527 H 0.86321 0.21158 0.35641 0.0
O528 O 0.88482 0.25849 0.32293 0.0
O529 O 0.89576 0.24856 0.36187 0.0
O530 O 0.87239 0.24612 0.42198 0.0
O531 O 0.87628 0.22745 0.42996 0.0
C532 C 0.90197 0.20845 0.24092 0.0
C533 C 0.91654 0.21784 0.25263 0.0
H534 H 0.94339 0.23773 0.28606 0.0
H535 H 0.94835 0.25404 0.36051 0.0
H536 H 0.85503 0.19445 0.28347 0.0
H537 H 0.87284 0.19256 0.22822 0.0
H538 H 0.89921 0.20109 0.20888 0.0
H539 H 0.92476 0.21764 0.22914 0.0
Mn540 Mn 0.96834 0.41497 0.25758 0.0
Mn541 Mn 1.0011 0.44464 0.25597 0.0
C542 C 0.97891 0.42714 0.33316 0.0
C543 C 0.95494 0.38988 0.26626 0.0
C544 C 0.97392 0.44408 0.21945 0.0
O545 O 0.97641 0.41415 0.18658 0.0
O546 O 0.99912 0.43248 0.19624 0.0
C547 C 0.01899 0.43128 0.27413 0.0
N548 N 0.01485 0.44086 0.28812 0.0
C549 C 0.03135 0.4492 0.35941 0.0
C550 C 0.03589 0.43952 0.34549 0.0
C551 C 0.02963 0.43047 0.3028 0.0
C552 C 0.02066 0.44948 0.3295 0.0
H553 H 0.01417 0.42427 0.24146 0.0
C554 C 0.98947 0.42165 0.17152 0.0
O555 O 0.94935 0.39695 0.24532 0.0
O556 O 0.96828 0.39727 0.27944 0.0
N557 N 1.00437 0.45724 0.31288 0.0
C558 C 0.99827 0.46544 0.32283 0.0
C559 C 1.00307 0.47485 0.36506 0.0
C560 C 0.01419 0.47584 0.39632 0.0
C561 C 0.0204 0.4674 0.38504 0.0
C562 C 0.0152 0.45824 0.34237 0.0
H563 H 0.9898 0.46482 0.29874 0.0
O564 O 0.96518 0.41846 0.33139 0.0
O565 O 0.9858 0.42826 0.29113 0.0
O566 O 0.96486 0.43124 0.2331 0.0
O567 O 0.98752 0.44958 0.22354 0.0
C568 C 0.03144 0.46759 0.41484 0.0
C569 C 0.03683 0.45843 0.40227 0.0
H570 H 0.04407 0.43884 0.36756 0.0
H571 H 0.03301 0.42289 0.29203 0.0
H572 H 0.99823 0.48134 0.37347 0.0
H573 H 0.01781 0.48306 0.42903 0.0
H574 H 0.03571 0.4746 0.44797 0.0
H575 H 0.04512 0.45847 0.42608 0.0
Mn576 Mn 0.59624 0.55695 0.25907 0.0
Mn577 Mn 0.56655 0.56006 0.25706 0.0
C578 C 0.58376 0.55487 0.33427 0.0
C579 C 0.62132 0.56862 0.26827 0.0
C580 C 0.56703 0.53335 0.2211 0.0
O581 O 0.59732 0.56606 0.18835 0.0
O582 O 0.57874 0.57003 0.1972 0.0
C583 C 0.58038 0.59138 0.2744 0.0
N584 N 0.57057 0.57774 0.28852 0.0
C585 C 0.56225 0.58627 0.35869 0.0
C586 C 0.57216 0.60042 0.3446 0.0
C587 C 0.58131 0.60297 0.30244 0.0
C588 C 0.56189 0.57515 0.32955 0.0
H589 H 0.58745 0.59338 0.24211 0.0
C590 C 0.5897 0.57145 0.17292 0.0
O591 O 0.6143 0.55602 0.24695 0.0
O592 O 0.61389 0.5745 0.28182 0.0
N593 N 0.55377 0.551 0.31374 0.0
C594 C 0.54512 0.53673 0.32329 0.0
C595 C 0.53541 0.53235 0.36461 0.0
C596 C 0.53454 0.54265 0.39519 0.0
C597 C 0.5434 0.55726 0.38419 0.0
C598 C 0.55287 0.56099 0.34253 0.0
H599 H 0.54559 0.52875 0.29954 0.0
O600 O 0.59254 0.54994 0.33237 0.0
O601 O 0.58281 0.56097 0.2928 0.0
O602 O 0.57999 0.53729 0.2337 0.0
O603 O 0.56146 0.54139 0.22559 0.0
C604 C 0.54328 0.56828 0.4131 0.0
C605 C 0.5528 0.58277 0.40072 0.0
H606 H 0.57289 0.60939 0.36607 0.0
H607 H 0.58905 0.61386 0.29153 0.0
H608 H 0.52857 0.52105 0.37275 0.0
H609 H 0.52707 0.53923 0.42712 0.0
H610 H 0.53599 0.56573 0.44526 0.0
H611 H 0.55277 0.59114 0.4238 0.0
Mn612 Mn 0.45382 0.0411 0.25423 0.0
Mn613 Mn 0.45082 0.00837 0.25046 0.0
C614 C 0.45598 0.03049 0.32878 0.0
C615 C 0.44218 0.05449 0.26483 0.0
C616 C 0.47733 0.03567 0.2142 0.0
O617 O 0.44463 0.0332 0.18349 0.0
O618 O 0.44048 0.01054 0.19159 0.0
C619 C 0.41962 0.99063 0.26982 0.0
N620 N 0.43336 0.99461 0.28295 0.0
C621 C 0.42535 0.97807 0.35412 0.0
C622 C 0.41111 0.97369 0.34106 0.0
C623 C 0.40823 0.98004 0.29885 0.0
C624 C 0.43625 0.9887 0.32387 0.0
H625 H 0.41737 0.99553 0.23758 0.0
C626 C 0.43912 0.02021 0.16776 0.0
O627 O 0.45473 0.06009 0.24306 0.0
O628 O 0.4363 0.04114 0.27782 0.0
N629 N 0.46027 0.00479 0.30622 0.0
C630 C 0.47461 0.01057 0.31485 0.0
C631 C 0.4793 0.00548 0.35602 0.0
C632 C 0.46923 0.99443 0.38756 0.0
C633 C 0.45454 0.98853 0.37758 0.0
C634 C 0.4505 0.99396 0.33581 0.0
H635 H 0.48242 0.01897 0.29052 0.0
O636 O 0.46091 0.0442 0.32747 0.0
O637 O 0.44991 0.02359 0.28706 0.0
O638 O 0.47344 0.04463 0.22821 0.0
O639 O 0.46929 0.02205 0.21792 0.0
C640 C 0.44375 0.97761 0.40788 0.0
C641 C 0.42917 0.97245 0.39638 0.0
H642 H 0.40229 0.96555 0.3634 0.0
H643 H 0.39727 0.97679 0.28875 0.0
H644 H 0.49066 0.01008 0.3634 0.0
H645 H 0.47289 0.99061 0.4195 0.0
H646 H 0.44655 0.97324 0.44055 0.0
H647 H 0.42097 0.96422 0.42048 0.0
Mn648 Mn 0.59657 0.04227 0.25851 0.0
Mn649 Mn 0.56691 0.0095 0.25571 0.0
C650 C 0.58379 0.03197 0.33323 0.0
C651 C 0.62161 0.05557 0.26887 0.0
C652 C 0.56764 0.03665 0.21772 0.0
O653 O 0.59782 0.03418 0.18822 0.0
O654 O 0.57945 0.0115 0.19719 0.0
C655 C 0.58044 0.9919 0.27669 0.0
N656 N 0.57065 0.9959 0.28922 0.0
C657 C 0.56209 0.97955 0.36093 0.0
C658 C 0.572 0.97517 0.34853 0.0
C659 C 0.58126 0.98142 0.30635 0.0
C660 C 0.56183 0.99009 0.33011 0.0
H661 H 0.58761 0.99672 0.24441 0.0
C662 C 0.5904 0.02114 0.17301 0.0
O663 O 0.61473 0.06119 0.24681 0.0
O664 O 0.61407 0.04227 0.28246 0.0
N665 N 0.55382 0.00605 0.3111 0.0
C666 C 0.54516 0.01176 0.31884 0.0
C667 C 0.53531 0.00673 0.35976 0.0
C668 C 0.53434 0.99579 0.39194 0.0
C669 C 0.54323 0.98995 0.38284 0.0
C670 C 0.55278 0.99534 0.3413 0.0
H671 H 0.54573 0.02006 0.29396 0.0
O672 O 0.59263 0.04567 0.33138 0.0
O673 O 0.58297 0.0249 0.29198 0.0
O674 O 0.58046 0.04571 0.2318 0.0
O675 O 0.56211 0.02305 0.22208 0.0
C676 C 0.54309 0.97912 0.41371 0.0
C677 C 0.55259 0.974 0.40301 0.0
H678 H 0.57267 0.96709 0.37133 0.0
H679 H 0.58899 0.97816 0.29673 0.0
H680 H 0.52846 0.01127 0.36643 0.0
H681 H 0.52679 0.99201 0.42366 0.0
H682 H 0.53584 0.97478 0.44619 0.0
H683 H 0.55254 0.96583 0.42753 0.0
Mn684 Mn 0.96932 0.55765 0.2564 0.0
Mn685 Mn 1.00208 0.5607 0.25338 0.0
C686 C 0.97978 0.55544 0.33123 0.0
C687 C 0.95597 0.56936 0.26622 0.0
C688 C 0.97484 0.53423 0.21643 0.0
O689 O 0.97731 0.56677 0.18564 0.0
O690 O 1.00002 0.57112 0.19464 0.0
C691 C 0.01974 0.59186 0.27351 0.0
N692 N 0.01576 0.5781 0.28635 0.0
C693 C 0.03227 0.58601 0.35761 0.0
C694 C 0.03664 0.60028 0.34486 0.0
C695 C 0.0303 0.60321 0.30277 0.0
C696 C 0.02164 0.57516 0.3272 0.0
H697 H 0.01485 0.59415 0.2413 0.0
C698 C 0.99035 0.57237 0.17035 0.0
O699 O 0.95036 0.55679 0.24467 0.0
O700 O 0.9693 0.57521 0.27954 0.0
N701 N 1.00559 0.55116 0.309 0.0
C702 C 0.99987 0.53682 0.31714 0.0
C703 C 1.00497 0.53206 0.35805 0.0
C704 C 0.01601 0.54209 0.3898 0.0
C705 C 0.02186 0.55679 0.38028 0.0
C706 C 0.01639 0.56089 0.33879 0.0
H707 H 0.9915 0.52905 0.29258 0.0
O708 O 0.96608 0.55059 0.32965 0.0
O709 O 0.98677 0.56154 0.28967 0.0
O710 O 0.96582 0.53802 0.23068 0.0
O711 O 0.98846 0.54229 0.22023 0.0
C712 C 0.03279 0.56754 0.4107 0.0
C713 C 0.03791 0.58214 0.39963 0.0
H714 H 0.04478 0.60906 0.36734 0.0
H715 H 0.03355 0.61419 0.29289 0.0
H716 H 1.00043 0.5207 0.36506 0.0
H717 H 0.01986 0.53838 0.42151 0.0
H718 H 0.0372 0.56469 0.44312 0.0
H719 H 0.04615 0.5903 0.42382 0.0
Mn720 Mn 0.45413 0.41287 0.2543 0.0
Mn721 Mn 0.45041 0.4422 0.25032 0.0
C722 C 0.45512 0.42502 0.32916 0.0
C723 C 0.44277 0.38779 0.26315 0.0
C724 C 0.47768 0.44228 0.21804 0.0
O725 O 0.44578 0.41188 0.18214 0.0
O726 O 0.44104 0.43001 0.18982 0.0
C727 C 0.41895 0.42808 0.26432 0.0
N728 N 0.43243 0.43797 0.27968 0.0
C729 C 0.42319 0.44602 0.34844 0.0
C730 C 0.4092 0.43603 0.33301 0.0
C731 C 0.40708 0.42697 0.29092 0.0
C732 C 0.4346 0.44659 0.32057 0.0
H733 H 0.41727 0.42105 0.23215 0.0
C734 C 0.44024 0.41928 0.16568 0.0
O735 O 0.45555 0.39504 0.24337 0.0
O736 O 0.43653 0.395 0.27508 0.0
N737 N 0.45891 0.45491 0.30759 0.0
C738 C 0.47308 0.46353 0.31896 0.0
C739 C 0.47704 0.47303 0.36084 0.0
C740 C 0.46643 0.4737 0.39018 0.0
C741 C 0.45193 0.46488 0.3773 0.0
C742 C 0.44863 0.45566 0.33508 0.0
H743 H 0.4813 0.46317 0.29631 0.0
O744 O 0.46032 0.41646 0.32852 0.0
O745 O 0.44943 0.42599 0.28664 0.0
O746 O 0.47393 0.42941 0.23133 0.0
O747 O 0.46937 0.44757 0.22087 0.0
C748 C 0.44063 0.46477 0.40506 0.0
C749 C 0.42627 0.45528 0.39087 0.0
H750 H 0.40002 0.43513 0.35347 0.0
H751 H 0.39631 0.41916 0.27902 0.0
H752 H 0.48825 0.47982 0.37044 0.0
H753 H 0.46952 0.48098 0.42263 0.0
H754 H 0.44286 0.47181 0.43782 0.0
H755 H 0.41767 0.4551 0.4131 0.0
Mn756 Mn 0.37915 0.26019 0.39497 0.0
Mn757 Mn 0.34694 0.22981 0.39707 0.0
C758 C 0.3691 0.24746 0.31982 0.0
C759 C 0.39187 0.28527 0.38511 0.0
C760 C 0.37453 0.23161 0.43532 0.0
O761 O 0.37074 0.26094 0.46536 0.0
O762 O 0.34834 0.24208 0.45573 0.0
C763 C 0.32838 0.24227 0.37586 0.0
N764 N 0.33294 0.23292 0.36329 0.0
C765 C 0.31682 0.22399 0.29096 0.0
C766 C 0.31186 0.23345 0.30339 0.0
C767 C 0.31771 0.24266 0.34591 0.0
C768 C 0.32751 0.22413 0.3221 0.0
H769 H 0.33289 0.24941 0.40838 0.0
C770 C 0.35769 0.25315 0.48022 0.0
O771 O 0.39777 0.27862 0.40709 0.0
O772 O 0.3786 0.27746 0.37153 0.0
N773 N 0.34415 0.21701 0.34135 0.0
C774 C 0.35048 0.20892 0.33336 0.0
C775 C 0.34595 0.19921 0.292 0.0
C776 C 0.33487 0.19782 0.25959 0.0
C777 C 0.3284 0.20614 0.2689 0.0
C778 C 0.33332 0.21558 0.31086 0.0
H779 H 0.3589 0.20982 0.35837 0.0
O780 O 0.38273 0.25659 0.32181 0.0
O781 O 0.36198 0.24628 0.3613 0.0
O782 O 0.38327 0.24448 0.42101 0.0
O783 O 0.36088 0.22563 0.4311 0.0
C784 C 0.31742 0.20558 0.23773 0.0
C785 C 0.3117 0.21458 0.24852 0.0
H786 H 0.30365 0.23379 0.28036 0.0
H787 H 0.31401 0.25005 0.35555 0.0
H788 H 0.35097 0.19281 0.28515 0.0
H789 H 0.33146 0.19039 0.22753 0.0
H790 H 0.31343 0.19842 0.20493 0.0
H791 H 0.30343 0.21423 0.22375 0.0
Mn792 Mn 0.74946 0.11979 0.39652 0.0
Mn793 Mn 0.77941 0.11715 0.39651 0.0
C794 C 0.76175 0.12212 0.32061 0.0
C795 C 0.72436 0.10787 0.38808 0.0
C796 C 0.77852 0.14344 0.43493 0.0
O797 O 0.74877 0.1106 0.46673 0.0
O798 O 0.76733 0.10665 0.45599 0.0
C799 C 0.76617 0.08601 0.37638 0.0
N800 N 0.77572 0.09981 0.36315 0.0
C801 C 0.78411 0.09205 0.29086 0.0
C802 C 0.77445 0.07775 0.30396 0.0
C803 C 0.7654 0.07473 0.34678 0.0
C804 C 0.78433 0.10284 0.32162 0.0
H805 H 0.75917 0.08365 0.40919 0.0
C806 C 0.75645 0.10518 0.48109 0.0
O807 O 0.7313 0.12042 0.40983 0.0
O808 O 0.73189 0.10216 0.37386 0.0
N809 N 0.79205 0.12678 0.34 0.0
C810 C 0.80041 0.14114 0.33148 0.0
C811 C 0.81001 0.14598 0.28979 0.0
C812 C 0.81104 0.13604 0.25767 0.0
C813 C 0.80245 0.12132 0.26755 0.0
C814 C 0.79311 0.11713 0.30975 0.0
H815 H 0.79981 0.14886 0.35633 0.0
O816 O 0.75286 0.12691 0.32331 0.0
O817 O 0.76296 0.11609 0.36182 0.0
O818 O 0.76558 0.13949 0.42199 0.0
O819 O 0.78418 0.1355 0.42995 0.0
C820 C 0.80267 0.11064 0.23681 0.0
C821 C 0.79342 0.09602 0.24818 0.0
H822 H 0.77382 0.06902 0.28123 0.0
H823 H 0.75785 0.06372 0.35695 0.0
H824 H 0.81663 0.15736 0.2825 0.0
H825 H 0.8184 0.13981 0.22538 0.0
H826 H 0.80977 0.11356 0.2039 0.0
H827 H 0.79351 0.08791 0.22372 0.0
Mn828 Mn 0.89133 0.63245 0.39746 0.0
Mn829 Mn 0.89428 0.66515 0.40199 0.0
C830 C 0.88892 0.64303 0.32327 0.0
C831 C 0.90315 0.61924 0.38642 0.0
C832 C 0.8679 0.63781 0.43865 0.0
O833 O 0.90061 0.64031 0.46812 0.0
O834 O 0.90475 0.66296 0.46037 0.0
C835 C 0.92544 0.68294 0.38202 0.0
N836 N 0.91167 0.67895 0.3693 0.0
C837 C 0.91954 0.69577 0.29903 0.0
C838 C 0.93382 0.70015 0.31167 0.0
C839 C 0.93677 0.69365 0.3532 0.0
C840 C 0.9087 0.68498 0.32896 0.0
H841 H 0.92775 0.67794 0.41381 0.0
C842 C 0.90614 0.65329 0.48395 0.0
O843 O 0.89061 0.61352 0.40829 0.0
O844 O 0.90889 0.63257 0.37337 0.0
N845 N 0.88472 0.66878 0.34677 0.0
C846 C 0.87037 0.66299 0.33849 0.0
C847 C 0.86559 0.66818 0.29791 0.0
C848 C 0.8756 0.67938 0.26669 0.0
C849 C 0.89031 0.6853 0.27635 0.0
C850 C 0.89443 0.67971 0.31739 0.0
H851 H 0.86261 0.65449 0.36267 0.0
O852 O 0.8841 0.62933 0.32444 0.0
O853 O 0.89511 0.64995 0.36485 0.0
O854 O 0.87171 0.62884 0.42406 0.0
O855 O 0.8759 0.65143 0.43495 0.0
C856 C 0.90104 0.69645 0.24661 0.0
C857 C 0.91565 0.70158 0.25763 0.0
H858 H 0.94259 0.70842 0.28956 0.0
H859 H 0.94776 0.69691 0.36299 0.0
H860 H 0.85422 0.66358 0.29078 0.0
H861 H 0.87188 0.68331 0.23529 0.0
H862 H 0.89819 0.70105 0.21484 0.0
H863 H 0.9238 0.70998 0.23392 0.0
Mn864 Mn 0.41469 0.96493 0.72999 0.0
Mn865 Mn 0.44354 0.9983 0.73429 0.0
C866 C 0.42762 0.9758 0.65605 0.0
C867 C 0.38987 0.95046 0.71727 0.0
C868 C 0.44406 0.97172 0.77116 0.0
O869 O 0.41252 0.97262 0.79995 0.0
O870 O 0.4309 0.99536 0.79352 0.0
C871 C 0.42859 0.01472 0.71632 0.0
N872 N 0.43888 0.01149 0.70269 0.0
C873 C 0.44681 0.02846 0.63289 0.0
C874 C 0.4364 0.03206 0.64648 0.0
C875 C 0.4272 0.02511 0.68822 0.0
C876 C 0.44763 0.01795 0.66211 0.0
H877 H 0.42148 0.00937 0.74827 0.0
C878 C 0.41986 0.98552 0.81658 0.0
O879 O 0.39712 0.94558 0.74163 0.0
O880 O 0.39683 0.96376 0.70332 0.0
N881 N 0.45669 1.00272 0.67837 0.0
C882 C 0.46584 0.99766 0.66918 0.0
C883 C 0.47563 1.00337 0.62821 0.0
C884 C 0.47605 0.01433 0.59756 0.0
C885 C 0.46667 0.0195 0.60818 0.0
C886 C 0.45716 0.01342 0.64956 0.0
H887 H 0.46568 0.98935 0.69293 0.0
O888 O 0.4194 0.96198 0.65761 0.0
O889 O 0.42787 0.98264 0.69725 0.0
O890 O 0.43122 0.96239 0.75832 0.0
O891 O 0.44929 0.98526 0.76602 0.0
C892 C 0.46632 0.03038 0.57915 0.0
C893 C 0.45631 0.03476 0.59118 0.0
H894 H 0.4353 0.04008 0.62492 0.0
H895 H 0.41907 0.02776 0.69874 0.0
H896 H 0.48287 0.99935 0.62036 0.0
H897 H 0.48359 0.01867 0.56591 0.0
H898 H 0.4736 0.03535 0.54712 0.0
H899 H 0.45598 0.04296 0.568 0.0
Mn900 Mn 0.04564 0.45219 0.7328 0.0
Mn901 Mn 0.01292 0.44921 0.73731 0.0
C902 C 0.03458 0.45357 0.65819 0.0
C903 C 0.05891 0.44036 0.72315 0.0
C904 C 0.0404 0.47596 0.77092 0.0
O905 O 0.0381 0.44367 0.80468 0.0
O906 O 0.01534 0.43929 0.79696 0.0
C907 C 0.99493 0.41789 0.72114 0.0
N908 N 0.99892 0.43155 0.7067 0.0
C909 C 0.98186 0.42308 0.63715 0.0
C910 C 0.97745 0.40892 0.65162 0.0
C911 C 0.98406 0.40632 0.69365 0.0
C912 C 0.99277 0.43418 0.66591 0.0
H913 H 1.00004 0.41586 0.75324 0.0
C914 C 0.02515 0.43821 0.8209 0.0
O915 O 0.06468 0.45312 0.74335 0.0
O916 O 0.04547 0.43441 0.71124 0.0
N917 N 0.00918 0.45828 0.68067 0.0
C918 C 0.01517 0.47254 0.67009 0.0
C919 C 0.01001 0.47695 0.62832 0.0
C920 C 0.99867 0.46669 0.59821 0.0
C921 C 0.99257 0.45209 0.61019 0.0
C922 C 0.99812 0.44833 0.65237 0.0
H923 H 0.0238 0.48049 0.6933 0.0
O924 O 0.04831 0.45854 0.6587 0.0
O925 O 0.02795 0.44795 0.70076 0.0
O926 O 0.04934 0.47207 0.75661 0.0
O927 O 0.02677 0.46787 0.7682 0.0
C928 C 0.98132 0.44112 0.58152 0.0
C929 C 0.97603 0.42662 0.59478 0.0
H930 H 0.96909 0.39997 0.63044 0.0
H931 H 0.9808 0.39543 0.7048 0.0
H932 H 0.01476 0.48825 0.61939 0.0
H933 H 0.99479 0.47014 0.56584 0.0
H934 H 0.97681 0.4437 0.54874 0.0
H935 H 0.96757 0.41827 0.57185 0.0
Mn936 Mn 0.56031 0.59747 0.73372 0.0
Mn937 Mn 0.56359 0.56792 0.74098 0.0
C938 C 0.55838 0.58437 0.66039 0.0
C939 C 0.57202 0.62248 0.72202 0.0
C940 C 0.53674 0.56857 0.77382 0.0
O941 O 0.5691 0.59906 0.80549 0.0
O942 O 0.57351 0.5807 0.7996 0.0
C943 C 0.59492 0.58178 0.72379 0.0
N944 N 0.5813 0.57174 0.71034 0.0
C945 C 0.58992 0.56291 0.64205 0.0
C946 C 0.60404 0.57305 0.65555 0.0
C947 C 0.60655 0.58257 0.69643 0.0
C948 C 0.57876 0.5627 0.67051 0.0
H949 H 0.59688 0.58917 0.75501 0.0
C950 C 0.57462 0.59172 0.82253 0.0
O951 O 0.55935 0.61561 0.74288 0.0
O952 O 0.57794 0.61494 0.71041 0.0
N953 N 0.55458 0.55454 0.68585 0.0
C954 C 0.54032 0.54561 0.67694 0.0
C955 C 0.53598 0.53547 0.63704 0.0
C956 C 0.54633 0.53446 0.6072 0.0
C957 C 0.56094 0.5436 0.61759 0.0
C958 C 0.56462 0.55346 0.65797 0.0
H959 H 0.5323 0.54619 0.70012 0.0
O960 O 0.55352 0.59323 0.66027 0.0
O961 O 0.56443 0.58378 0.70258 0.0
O962 O 0.54059 0.58136 0.75907 0.0
O963 O 0.54489 0.56307 0.77167 0.0
C964 C 0.57199 0.54337 0.58928 0.0
C965 C 0.58647 0.55311 0.60117 0.0
H966 H 0.61304 0.57368 0.63457 0.0
H967 H 0.61741 0.5905 0.70683 0.0
H968 H 0.52469 0.52842 0.62938 0.0
H969 H 0.54294 0.52668 0.5763 0.0
H970 H 0.56948 0.53585 0.55793 0.0
H971 H 0.59487 0.55299 0.57858 0.0
Mn972 Mn 0.63639 0.74993 0.58964 0.0
Mn973 Mn 0.66913 0.77962 0.58815 0.0
C974 C 0.64697 0.76209 0.66528 0.0
C975 C 0.62298 0.72484 0.59832 0.0
C976 C 0.64194 0.77904 0.55153 0.0
O977 O 0.6445 0.74915 0.51865 0.0
O978 O 0.66722 0.76744 0.52859 0.0
C979 C 0.68703 0.76631 0.6069 0.0
N980 N 0.68288 0.7759 0.62059 0.0
C981 C 0.69933 0.78431 0.69204 0.0
C982 C 0.7039 0.77463 0.67837 0.0
C983 C 0.69767 0.76554 0.63576 0.0
C984 C 0.68866 0.78455 0.66193 0.0
H985 H 0.68222 0.75925 0.57436 0.0
C986 C 0.65759 0.75661 0.50383 0.0
O987 O 0.6174 0.73191 0.57736 0.0
O988 O 0.63633 0.73223 0.61147 0.0
N989 N 0.67233 0.79223 0.64497 0.0
C990 C 0.66616 0.80039 0.65478 0.0
C991 C 0.67091 0.80981 0.697 0.0
C992 C 0.68202 0.81085 0.72839 0.0
C993 C 0.6883 0.80246 0.71726 0.0
C994 C 0.68315 0.79329 0.67461 0.0
H995 H 0.6577 0.79974 0.6306 0.0
O996 O 0.63323 0.75341 0.66351 0.0
O997 O 0.65383 0.76324 0.62321 0.0
O998 O 0.6329 0.7662 0.56526 0.0
O999 O 0.65554 0.78453 0.55546 0.0
C1000 C 0.69932 0.80269 0.74724 0.0
C1001 C 0.70477 0.79355 0.73487 0.0
H1002 H 0.71207 0.77398 0.7006 0.0
H1003 H 0.70105 0.75796 0.62522 0.0
H1004 H 0.66602 0.81627 0.70529 0.0
H1005 H 0.6856 0.81807 0.76108 0.0
H1006 H 0.70354 0.8097 0.78039 0.0
H1007 H 0.71304 0.79362 0.75883 0.0
Mn1008 Mn 0.26208 0.88855 0.59642 0.0
Mn1009 Mn 0.23296 0.89265 0.59665 0.0
C1010 C 0.24927 0.88556 0.67154 0.0
C1011 C 0.28695 0.89906 0.60814 0.0
C1012 C 0.23281 0.86623 0.55397 0.0
O1013 O 0.26393 0.8991 0.52832 0.0
O1014 O 0.24545 0.90321 0.53799 0.0
C1015 C 0.24743 0.92372 0.61982 0.0
N1016 N 0.23739 0.90998 0.63182 0.0
C1017 C 0.2295 0.91783 0.70529 0.0
C1018 C 0.2397 0.93207 0.69352 0.0
C1019 C 0.24874 0.93502 0.65072 0.0
C1020 C 0.22875 0.90701 0.67327 0.0
H1021 H 0.25442 0.92602 0.58701 0.0
C1022 C 0.25647 0.90474 0.51372 0.0
O1023 O 0.2798 0.8872 0.58224 0.0
O1024 O 0.27987 0.90509 0.62419 0.0
N1025 N 0.21994 0.88303 0.65223 0.0
C1026 C 0.21099 0.86869 0.65925 0.0
C1027 C 0.20129 0.86391 0.70065 0.0
C1028 C 0.20079 0.87392 0.73405 0.0
C1029 C 0.21 0.88863 0.72571 0.0
C1030 C 0.2194 0.89275 0.68371 0.0
H1031 H 0.21121 0.86094 0.63343 0.0
O1032 O 0.25762 0.88014 0.66781 0.0
O1033 O 0.24881 0.89248 0.63161 0.0
O1034 O 0.24566 0.8697 0.56632 0.0
O1035 O 0.22744 0.87436 0.56131 0.0
C1036 C 0.21033 0.89935 0.75777 0.0
C1037 C 0.22015 0.91394 0.74783 0.0
H1038 H 0.24073 0.94082 0.71725 0.0
H1039 H 0.25668 0.94598 0.64154 0.0
H1040 H 0.1942 0.85255 0.70676 0.0
H1041 H 0.19336 0.8702 0.76612 0.0
H1042 H 0.2032 0.89649 0.79057 0.0
H1043 H 0.22047 0.92206 0.77325 0.0
Mn1044 Mn 0.12278 0.37664 0.59185 0.0
Mn1045 Mn 0.1203 0.34414 0.59109 0.0
C1046 C 0.12454 0.36628 0.66779 0.0
C1047 C 0.11079 0.38978 0.60016 0.0
C1048 C 0.14661 0.37148 0.55409 0.0
O1049 O 0.11395 0.36834 0.52089 0.0
O1050 O 0.10987 0.34575 0.53142 0.0
C1051 C 0.08914 0.32586 0.61004 0.0
N1052 N 0.10294 0.33025 0.62372 0.0
C1053 C 0.09518 0.31387 0.69534 0.0
C1054 C 0.08088 0.30907 0.6817 0.0
C1055 C 0.07785 0.31514 0.63901 0.0
C1056 C 0.10597 0.32462 0.66515 0.0
H1057 H 0.08677 0.33054 0.5774 0.0
C1058 C 0.10851 0.35524 0.50634 0.0
O1059 O 0.12344 0.39547 0.57916 0.0
O1060 O 0.10499 0.37646 0.61346 0.0
N1061 N 0.12988 0.34123 0.64804 0.0
C1062 C 0.14422 0.34762 0.65781 0.0
C1063 C 0.14905 0.34305 0.70009 0.0
C1064 C 0.13911 0.33187 0.73156 0.0
C1065 C 0.12443 0.32537 0.72048 0.0
C1066 C 0.12024 0.33036 0.67778 0.0
H1067 H 0.15193 0.35613 0.63354 0.0
O1068 O 0.1294 0.37998 0.66577 0.0
O1069 O 0.11891 0.35932 0.62579 0.0
O1070 O 0.14265 0.38041 0.56771 0.0
O1071 O 0.13867 0.35787 0.55817 0.0
C1072 C 0.11376 0.31426 0.75051 0.0
C1073 C 0.09914 0.30858 0.7382 0.0
H1074 H 0.07214 0.30082 0.704 0.0
H1075 H 0.06684 0.31157 0.62848 0.0
H1076 H 0.16041 0.34811 0.70834 0.0
H1077 H 0.14288 0.32842 0.76429 0.0
H1078 H 0.11667 0.31014 0.78365 0.0
H1079 H 0.09103 0.30025 0.76222 0.0
Mn1080 Mn 0.26558 0.37691 0.59258 0.0
Mn1081 Mn 0.23578 0.34422 0.59165 0.0
C1082 C 0.25359 0.36638 0.66847 0.0
C1083 C 0.2907 0.39034 0.60055 0.0
C1084 C 0.23635 0.37146 0.55603 0.0
O1085 O 0.26616 0.3688 0.52131 0.0
O1086 O 0.24771 0.34618 0.53127 0.0
C1087 C 0.24913 0.32625 0.60825 0.0
N1088 N 0.2396 0.3304 0.62293 0.0
C1089 C 0.2313 0.31369 0.69358 0.0
C1090 C 0.24093 0.30915 0.67894 0.0
C1091 C 0.24994 0.31551 0.63624 0.0
C1092 C 0.23103 0.3245 0.66438 0.0
H1093 H 0.2561 0.33115 0.57556 0.0
C1094 C 0.25851 0.35576 0.50626 0.0
O1095 O 0.28355 0.39588 0.57991 0.0
O1096 O 0.28336 0.37698 0.61369 0.0
N1097 N 0.22335 0.3409 0.64913 0.0
C1098 C 0.21517 0.34699 0.65976 0.0
C1099 C 0.2058 0.34208 0.70209 0.0
C1100 C 0.2048 0.33085 0.73269 0.0
C1101 C 0.21319 0.32464 0.72067 0.0
C1102 C 0.22234 0.32997 0.678 0.0
H1103 H 0.21578 0.35553 0.63613 0.0
O1104 O 0.2623 0.38011 0.6666 0.0
O1105 O 0.25232 0.35945 0.62641 0.0
O1106 O 0.24928 0.38046 0.56897 0.0
O1107 O 0.23078 0.35786 0.56015 0.0
C1108 C 0.21296 0.31346 0.74969 0.0
C1109 C 0.22209 0.30807 0.73642 0.0
H1110 H 0.24159 0.30087 0.70044 0.0
H1111 H 0.25747 0.31213 0.62492 0.0
H1112 H 0.19933 0.34692 0.71105 0.0
H1113 H 0.1976 0.32714 0.76544 0.0
H1114 H 0.20595 0.30907 0.78273 0.0
H1115 H 0.22202 0.29968 0.75965 0.0
Mn1116 Mn 0.63544 0.89192 0.5868 0.0
Mn1117 Mn 0.66868 0.89618 0.58051 0.0
C1118 C 0.64687 0.8907 0.66068 0.0
C1119 C 0.62144 0.90292 0.59771 0.0
C1120 C 0.64165 0.86886 0.54768 0.0
O1121 O 0.64254 0.90064 0.51481 0.0
O1122 O 0.66552 0.90569 0.5212 0.0
C1123 C 0.68554 0.9276 0.59644 0.0
N1124 N 0.68225 0.91411 0.61061 0.0
C1125 C 0.69972 0.92329 0.67882 0.0
C1126 C 0.7034 0.93729 0.6646 0.0
C1127 C 0.69622 0.93944 0.6234 0.0
C1128 C 0.68892 0.91191 0.65072 0.0
H1129 H 0.68 0.92929 0.56494 0.0
C1130 C 0.65543 0.9064 0.49785 0.0
O1131 O 0.61604 0.89024 0.57709 0.0
O1132 O 0.63492 0.90927 0.60934 0.0
N1133 N 0.67328 0.88759 0.63644 0.0
C1134 C 0.6681 0.87341 0.64648 0.0
C1135 C 0.67398 0.86941 0.68714 0.0
C1136 C 0.68524 0.88 0.7166 0.0
C1137 C 0.69054 0.89452 0.70511 0.0
C1138 C 0.68428 0.89786 0.66406 0.0
H1139 H 0.65956 0.86521 0.62363 0.0
O1140 O 0.63309 0.88538 0.66057 0.0
O1141 O 0.65339 0.8967 0.61828 0.0
O1142 O 0.63243 0.87237 0.56214 0.0
O1143 O 0.65524 0.87728 0.5502 0.0
C1144 C 0.70171 0.90581 0.73299 0.0
C1145 C 0.70621 0.92018 0.72016 0.0
H1146 H 0.71164 0.94645 0.6853 0.0
H1147 H 0.69892 0.95021 0.61244 0.0
H1148 H 0.66986 0.85818 0.69566 0.0
H1149 H 0.68972 0.87687 0.74801 0.0
H1150 H 0.70681 0.90356 0.76476 0.0
H1151 H 0.71463 0.92876 0.74249 0.0
Mn1152 Mn 0.1202 0.74755 0.58644 0.0
Mn1153 Mn 0.11612 0.77663 0.58019 0.0
C1154 C 0.1223 0.76067 0.65992 0.0
C1155 C 0.10898 0.72258 0.59853 0.0
C1156 C 0.14302 0.77651 0.54433 0.0
O1157 O 0.11089 0.74566 0.51552 0.0
O1158 O 0.10589 0.76361 0.5224 0.0
C1159 C 0.08491 0.76236 0.6006 0.0
N1160 N 0.09857 0.77258 0.6128 0.0
C1161 C 0.09025 0.7813 0.68242 0.0
C1162 C 0.07609 0.77097 0.67024 0.0
C1163 C 0.07341 0.76142 0.62931 0.0
C1164 C 0.10128 0.78167 0.65261 0.0
H1165 H 0.08282 0.75495 0.56934 0.0
C1166 C 0.10495 0.75269 0.49926 0.0
O1167 O 0.12151 0.72961 0.57669 0.0
O1168 O 0.10293 0.72994 0.61096 0.0
N1169 N 0.12539 0.79017 0.63468 0.0
C1170 C 0.13969 0.79923 0.64241 0.0
C1171 C 0.14419 0.80939 0.68229 0.0
C1172 C 0.13398 0.81027 0.71336 0.0
C1173 C 0.11933 0.80098 0.70422 0.0
C1174 C 0.11547 0.79111 0.66381 0.0
H1175 H 0.1476 0.79874 0.61832 0.0
O1176 O 0.12744 0.75205 0.65937 0.0
O1177 O 0.11593 0.76103 0.61827 0.0
O1178 O 0.1396 0.76387 0.55952 0.0
O1179 O 0.13465 0.78173 0.54738 0.0
C1180 C 0.1084 0.80105 0.73387 0.0
C1181 C 0.09388 0.79113 0.72329 0.0
H1182 H 0.06719 0.77022 0.69228 0.0
H1183 H 0.06252 0.75335 0.61991 0.0
H1184 H 0.15552 0.81655 0.689 0.0
H1185 H 0.13749 0.81807 0.74425 0.0
H1186 H 0.11104 0.80858 0.76528 0.0
H1187 H 0.08559 0.79114 0.74691 0.0
Mn1188 Mn 0.04615 0.59513 0.73162 0.0
Mn1189 Mn 0.01326 0.56565 0.73654 0.0
C1190 C 0.03503 0.58258 0.65722 0.0
C1191 C 0.05959 0.62019 0.72155 0.0
C1192 C 0.04059 0.56598 0.76979 0.0
O1193 O 0.03872 0.5964 0.80339 0.0
O1194 O 0.01596 0.57805 0.79624 0.0
C1195 C 0.99581 0.57959 0.72079 0.0
N1196 N 0.99946 0.56967 0.70635 0.0
C1197 C 0.98217 0.56125 0.63755 0.0
C1198 C 0.9781 0.57126 0.65207 0.0
C1199 C 0.98501 0.58053 0.69369 0.0
C1200 C 0.99306 0.56088 0.66581 0.0
H1201 H 1.00115 0.58678 0.75258 0.0
C1202 C 0.0258 0.58899 0.81985 0.0
O1203 O 0.06528 0.61315 0.74196 0.0
O1204 O 0.04616 0.61277 0.70951 0.0
N1205 N 0.00915 0.55274 0.68 0.0
C1206 C 0.01477 0.54413 0.66947 0.0
C1207 C 0.00924 0.53443 0.62818 0.0
C1208 C 0.99789 0.53353 0.59859 0.0
C1209 C 0.99216 0.54235 0.61057 0.0
C1210 C 0.99809 0.55181 0.65216 0.0
H1211 H 0.02338 0.54465 0.69239 0.0
O1212 O 0.04877 0.59124 0.65771 0.0
O1213 O 0.0284 0.58175 0.69963 0.0
O1214 O 0.04961 0.57883 0.75596 0.0
O1215 O 0.02697 0.56054 0.76688 0.0
C1216 C 0.98086 0.54222 0.58263 0.0
C1217 C 0.97597 0.55175 0.59578 0.0
H1218 H 0.96977 0.57201 0.63126 0.0
H1219 H 0.98202 0.58836 0.70486 0.0
H1220 H 0.0137 0.52762 0.61928 0.0
H1221 H 0.9937 0.52606 0.56668 0.0
H1222 H 0.97597 0.53493 0.55056 0.0
H1223 H 0.96747 0.55174 0.57336 0.0
Mn1224 Mn 0.41853 0.45467 0.72918 0.0
Mn1225 Mn 0.44874 0.45255 0.73071 0.0
C1226 C 0.43076 0.45649 0.65349 0.0
C1227 C 0.3934 0.44237 0.72058 0.0
C1228 C 0.44732 0.47868 0.76761 0.0
O1229 O 0.41801 0.44589 0.80016 0.0
O1230 O 0.43669 0.44204 0.79026 0.0
C1231 C 0.43626 0.42143 0.71193 0.0
N1232 N 0.4455 0.43526 0.69812 0.0
C1233 C 0.45417 0.42765 0.62622 0.0
C1234 C 0.44483 0.41332 0.63994 0.0
C1235 C 0.4358 0.41021 0.68285 0.0
C1236 C 0.45412 0.43838 0.65656 0.0
H1237 H 0.42925 0.41899 0.74475 0.0
C1238 C 0.42574 0.44056 0.81502 0.0
O1239 O 0.40018 0.45505 0.74139 0.0
O1240 O 0.40111 0.43675 0.70746 0.0
N1241 N 0.4612 0.46223 0.67383 0.0
C1242 C 0.46898 0.47657 0.66401 0.0
C1243 C 0.47832 0.48149 0.62157 0.0
C1244 C 0.47965 0.47163 0.58992 0.0
C1245 C 0.47162 0.45693 0.60102 0.0
C1246 C 0.46252 0.45267 0.64393 0.0
H1247 H 0.46811 0.48422 0.68836 0.0
O1248 O 0.42184 0.46125 0.65522 0.0
O1249 O 0.43213 0.45098 0.69572 0.0
O1250 O 0.43444 0.47462 0.75357 0.0
O1251 O 0.45313 0.47085 0.76364 0.0
C1252 C 0.47213 0.44633 0.57074 0.0
C1253 C 0.46334 0.4317 0.58313 0.0
H1254 H 0.44442 0.40463 0.61754 0.0
H1255 H 0.42849 0.39917 0.69347 0.0
H1256 H 0.48449 0.49285 0.61329 0.0
H1257 H 0.48679 0.47545 0.55705 0.0
H1258 H 0.47907 0.44931 0.53737 0.0
H1259 H 0.46362 0.42364 0.55896 0.0
Mn1260 Mn 0.5574 0.96613 0.73416 0.0
Mn1261 Mn 0.56088 0.99903 0.74029 0.0
C1262 C 0.55573 0.97731 0.66032 0.0
C1263 C 0.56913 0.95283 0.72296 0.0
C1264 C 0.53403 0.97172 0.77443 0.0
O1265 O 0.56627 0.97348 0.80569 0.0
O1266 O 0.57087 0.99632 0.79908 0.0
C1267 C 0.59219 0.01652 0.72275 0.0
N1268 N 0.57854 0.01283 0.70916 0.0
C1269 C 0.58706 0.03001 0.64003 0.0
C1270 C 0.6012 0.03411 0.65364 0.0
C1271 C 0.60377 0.02728 0.69502 0.0
C1272 C 0.57594 0.01917 0.66892 0.0
H1273 H 0.5942 0.01125 0.75436 0.0
C1274 C 0.57193 0.9864 0.82228 0.0
O1275 O 0.55643 0.94702 0.74369 0.0
O1276 O 0.57501 0.96625 0.71111 0.0
N1277 N 0.5518 1.00311 0.68459 0.0
C1278 C 0.53753 0.99745 0.67489 0.0
C1279 C 0.53313 1.00288 0.63393 0.0
C1280 C 0.54342 0.01418 0.60376 0.0
C1281 C 0.55804 0.01995 0.61486 0.0
C1282 C 0.56178 0.01411 0.6562 0.0
H1283 H 0.52955 0.98886 0.69822 0.0
O1284 O 0.55067 0.96357 0.66052 0.0
O1285 O 0.56164 0.98389 0.70269 0.0
O1286 O 0.5377 0.96265 0.75957 0.0
O1287 O 0.54224 0.98533 0.77165 0.0
C1288 C 0.56905 0.03118 0.58623 0.0
C1289 C 0.58354 0.03612 0.59851 0.0
H1290 H 0.61017 0.0424 0.63232 0.0
H1291 H 0.61466 0.03031 0.70551 0.0
H1292 H 0.52183 0.99839 0.62569 0.0
H1293 H 0.53999 0.01829 0.57207 0.0
H1294 H 0.56649 0.03598 0.55431 0.0
H1295 H 0.5919 0.04457 0.57559 0.0
H1296 H 0.13218 0.31597 0.1804 0.0
H1297 H 0.17749 0.28235 0.06425 0.0
H1298 H 0.11562 0.28341 0.06263 0.0
H1299 H 0.19307 0.31659 0.17563 0.0
H1300 H 0.15313 0.27861 0.07549 0.0
H1301 H 0.15249 0.31216 0.19227 0.0
C1302 C 0.13267 0.30776 0.15785 0.0
C1303 C 0.12223 0.30003 0.1204 0.0
C1304 C 0.16184 0.28672 0.0983 0.0
C1305 C 0.14581 0.29591 0.13244 0.0
C1306 C 0.17571 0.28876 0.09224 0.0
C1307 C 0.18732 0.29985 0.11886 0.0
C1308 C 0.15962 0.29579 0.13141 0.0
C1309 C 0.18445 0.30799 0.15404 0.0
C1310 C 0.14433 0.30563 0.16438 0.0
C1311 C 0.1234 0.28953 0.09216 0.0
N1312 N 0.17097 0.30589 0.15887 0.0
N1313 N 0.13516 0.28796 0.09802 0.0
H1314 H 0.73059 0.83462 0.06384 0.0
H1315 H 0.69656 0.87951 0.17872 0.0
H1316 H 0.69677 0.81912 0.17686 0.0
H1317 H 0.72931 0.89616 0.06166 0.0
H1318 H 0.70081 0.85954 0.19229 0.0
H1319 H 0.73441 0.85898 0.0755 0.0
C1320 C 0.72431 0.83642 0.09234 0.0
C1321 C 0.71328 0.82484 0.11921 0.0
C1322 C 0.7073 0.86766 0.16424 0.0
C1323 C 0.71742 0.85253 0.13218 0.0
C1324 C 0.70492 0.87913 0.15675 0.0
C1325 C 0.71256 0.88947 0.11893 0.0
C1326 C 0.71717 0.86626 0.13282 0.0
C1327 C 0.72325 0.88844 0.09143 0.0
C1328 C 0.7264 0.8503 0.09864 0.0
C1329 C 0.70531 0.82773 0.15506 0.0
N1330 N 0.72504 0.87686 0.09814 0.0
N1331 N 0.70742 0.84121 0.16004 0.0
H1332 H 0.11424 0.83431 0.06725 0.0
H1333 H 0.1926 0.8789 0.18791 0.0
H1334 H 0.1326 0.818 0.17707 0.0
H1335 H 0.17708 0.89586 0.06977 0.0
H1336 H 0.16839 0.85868 0.19883 0.0
H1337 H 0.13464 0.85861 0.08134 0.0
C1338 C 0.12231 0.83591 0.09557 0.0
C1339 C 0.1218 0.82413 0.12084 0.0
C1340 C 0.17015 0.86692 0.17109 0.0
C1341 C 0.14518 0.85177 0.13659 0.0
C1342 C 0.18398 0.87852 0.16509 0.0
C1343 C 0.18686 0.88902 0.12771 0.0
C1344 C 0.15907 0.86556 0.1387 0.0
C1345 C 0.1753 0.88801 0.09919 0.0
C1346 C 0.13401 0.84976 0.10324 0.0
C1347 C 0.13264 0.82677 0.1565 0.0
N1348 N 0.16194 0.87631 0.10452 0.0
N1349 N 0.14391 0.84023 0.16287 0.0
H1350 H 0.2848 0.11137 0.91962 0.0
H1351 H 0.31861 0.19043 0.80484 0.0
H1352 H 0.31892 0.13 0.80779 0.0
H1353 H 0.2862 0.17441 0.92314 0.0
H1354 H 0.31467 0.16629 0.79229 0.0
H1355 H 0.28116 0.13206 0.90901 0.0
C1356 C 0.29121 0.11958 0.89168 0.0
C1357 C 0.30225 0.11902 0.86477 0.0
C1358 C 0.3082 0.16792 0.82045 0.0
C1359 C 0.29829 0.14274 0.85293 0.0
C1360 C 0.3104 0.18172 0.82739 0.0
C1361 C 0.30276 0.18443 0.8652 0.0
C1362 C 0.29848 0.1567 0.85233 0.0
C1363 C 0.29226 0.17275 0.89337 0.0
C1364 C 0.28922 0.13144 0.88597 0.0
C1365 C 0.31038 0.13004 0.82963 0.0
N1366 N 0.29061 0.15941 0.8871 0.0
N1367 N 0.30833 0.14146 0.82515 0.0
H1368 H 0.83546 0.11088 0.91575 0.0
H1369 H 0.90035 0.17606 0.91669 0.0
H1370 H 0.8202 0.13327 0.82038 0.0
H1371 H 0.87862 0.19091 0.81608 0.0
H1372 H 0.88015 0.15163 0.90842 0.0
H1373 H 0.85993 0.13095 0.90605 0.0
C1374 C 0.83731 0.11988 0.89174 0.0
C1375 C 0.82573 0.12045 0.86937 0.0
C1376 C 0.87982 0.16009 0.88724 0.0
C1377 C 0.85375 0.14376 0.85876 0.0
C1378 C 0.8915 0.1741 0.89164 0.0
C1379 C 0.89113 0.18558 0.86745 0.0
C1380 C 0.86769 0.15758 0.85828 0.0
C1381 C 0.87932 0.18243 0.83593 0.0
C1382 C 0.85134 0.13149 0.88659 0.0
C1383 C 0.82876 0.13242 0.83895 0.0
N1384 N 0.86808 0.16883 0.8328 0.0
N1385 N 0.84238 0.14358 0.83505 0.0
H1386 H 0.83625 0.72528 0.91595 0.0
H1387 H 0.88097 0.69046 0.80566 0.0
H1388 H 0.82021 0.69004 0.80862 0.0
H1389 H 0.898 0.72434 0.9186 0.0
H1390 H 0.86071 0.69425 0.79216 0.0
H1391 H 0.86056 0.72901 0.90398 0.0
C1392 C 0.83791 0.71864 0.88865 0.0
C1393 C 0.82619 0.70726 0.86352 0.0
C1394 C 0.86896 0.70107 0.8193 0.0
C1395 C 0.85384 0.71132 0.85018 0.0
C1396 C 0.88059 0.69895 0.82679 0.0
C1397 C 0.89113 0.70704 0.86348 0.0
C1398 C 0.86762 0.71118 0.84952 0.0
C1399 C 0.89011 0.71791 0.88977 0.0
C1400 C 0.85176 0.72069 0.88217 0.0
C1401 C 0.82891 0.69885 0.82912 0.0
N1402 N 0.87839 0.71947 0.88306 0.0
N1403 N 0.84238 0.70095 0.82394 0.0
H1404 H 0.85913 0.64876 0.51534 0.0
H1405 H 0.78023 0.61482 0.40009 0.0
H1406 H 0.84287 0.6158 0.39897 0.0
H1407 H 0.7991 0.64962 0.5092 0.0
H1408 H 0.80059 0.61079 0.41321 0.0
H1409 H 0.83497 0.64476 0.5284 0.0
C1410 C 0.85036 0.64041 0.49342 0.0
C1411 C 0.853 0.63265 0.45588 0.0
C1412 C 0.80008 0.61908 0.43519 0.0
C1413 C 0.82528 0.62832 0.46921 0.0
C1414 C 0.7884 0.62129 0.42806 0.0
C1415 C 0.78805 0.63264 0.45336 0.0
C1416 C 0.81139 0.62825 0.46801 0.0
C1417 C 0.79901 0.64084 0.48858 0.0
C1418 C 0.83656 0.63817 0.50062 0.0
C1419 C 0.84126 0.62196 0.4285 0.0
N1420 N 0.81027 0.63859 0.4944 0.0
N1421 N 0.82793 0.62031 0.43491 0.0
H1422 H 0.3596 0.14938 0.50605 0.0
H1423 H 0.36805 0.21617 0.52376 0.0
H1424 H 0.39538 0.16652 0.40112 0.0
H1425 H 0.39261 0.22501 0.38409 0.0
H1426 H 0.37155 0.19585 0.54038 0.0
H1427 H 0.3637 0.17331 0.52099 0.0
C1428 C 0.36866 0.15833 0.4874 0.0
C1429 C 0.37714 0.15595 0.45231 0.0
C1430 C 0.37618 0.2021 0.5059 0.0
C1431 C 0.38208 0.1838 0.46913 0.0
C1432 C 0.37442 0.21393 0.49708 0.0
C1433 C 0.38003 0.22221 0.45253 0.0
C1434 C 0.38306 0.19813 0.46862 0.0
C1435 C 0.38819 0.21889 0.41909 0.0
C1436 C 0.3711 0.17214 0.49614 0.0
C1437 C 0.38866 0.16791 0.42885 0.0
N1438 N 0.38921 0.20692 0.42723 0.0
N1439 N 0.3906 0.1813 0.43683 0.0
H1440 H 0.84377 0.23282 0.40352 0.0
H1441 H 0.77887 0.1681 0.40405 0.0
H1442 H 0.85884 0.2108 0.5016 0.0
H1443 H 0.80096 0.15293 0.50133 0.0
H1444 H 0.79876 0.1926 0.41477 0.0
H1445 H 0.81924 0.21297 0.41425 0.0
C1446 C 0.84184 0.22398 0.42854 0.0
C1447 C 0.85338 0.22338 0.4512 0.0
C1448 C 0.79925 0.18404 0.43462 0.0
C1449 C 0.82531 0.20034 0.46306 0.0
C1450 C 0.78774 0.16999 0.42888 0.0
C1451 C 0.78834 0.15844 0.45131 0.0
C1452 C 0.81144 0.18648 0.46309 0.0
C1453 C 0.80013 0.16149 0.48274 0.0
C1454 C 0.82778 0.21249 0.43432 0.0
C1455 C 0.85029 0.21163 0.48285 0.0
N1456 N 0.81122 0.17513 0.48712 0.0
N1457 N 0.83664 0.20056 0.48727 0.0
H1458 H 0.98609 0.52536 0.1411 0.0
H1459 H 0.95123 0.44645 0.25634 0.0
H1460 H 0.95259 0.50927 0.2554 0.0
H1461 H 0.98579 0.46473 0.14616 0.0
H1462 H 0.94751 0.46699 0.24312 0.0
H1463 H 0.9819 0.50113 0.12831 0.0
C1464 C 0.97759 0.51662 0.16265 0.0
C1465 C 0.96972 0.51932 0.19952 0.0
C1466 C 0.95567 0.46632 0.22094 0.0
C1467 C 0.96516 0.49151 0.18648 0.0
C1468 C 0.9577 0.45453 0.22814 0.0
C1469 C 0.9689 0.45397 0.20256 0.0
C1470 C 0.96487 0.47752 0.1878 0.0
C1471 C 0.97712 0.46482 0.16701 0.0
C1472 C 0.97524 0.50277 0.15558 0.0
C1473 C 0.95884 0.50761 0.22641 0.0
N1474 N 0.97504 0.47619 0.16115 0.0
N1475 N 0.95707 0.49423 0.22016 0.0
H1476 H 0.56718 0.50878 0.25027 0.0
H1477 H 0.50242 0.44365 0.254 0.0
H1478 H 0.5439 0.52361 0.15775 0.0
H1479 H 0.48721 0.46447 0.15059 0.0
H1480 H 0.52674 0.46402 0.24527 0.0
H1481 H 0.5475 0.48414 0.2396 0.0
C1482 C 0.55807 0.5068 0.22666 0.0
C1483 C 0.55711 0.51829 0.20543 0.0
C1484 C 0.51824 0.4641 0.22343 0.0
C1485 C 0.53425 0.49009 0.19393 0.0
C1486 C 0.50429 0.45233 0.22818 0.0
C1487 C 0.49275 0.45243 0.2034 0.0
C1488 C 0.52059 0.47602 0.19348 0.0
C1489 C 0.49576 0.46401 0.17091 0.0
C1490 C 0.54667 0.49268 0.22105 0.0
C1491 C 0.54503 0.51511 0.17545 0.0
N1492 N 0.50929 0.47534 0.16744 0.0
N1493 N 0.53408 0.5014 0.17113 0.0
H1494 H 0.56684 0.06071 0.24858 0.0
H1495 H 0.50183 0.06023 0.24432 0.0
H1496 H 0.54554 0.02367 0.14992 0.0
H1497 H 0.4871 0.0226 0.14937 0.0
H1498 H 0.52644 0.06512 0.23415 0.0
H1499 H 0.54681 0.06505 0.23689 0.0
C1500 C 0.55813 0.05374 0.22321 0.0
C1501 C 0.55778 0.04171 0.20072 0.0
C1502 C 0.51795 0.05591 0.21477 0.0
C1503 C 0.53452 0.04636 0.18769 0.0
C1504 C 0.50384 0.05321 0.22018 0.0
C1505 C 0.49237 0.04088 0.19826 0.0
C1506 C 0.52055 0.04615 0.18718 0.0
C1507 C 0.49558 0.03212 0.16762 0.0
C1508 C 0.54653 0.05612 0.21685 0.0
C1509 C 0.54618 0.03297 0.16858 0.0
N1510 N 0.50928 0.03483 0.16358 0.0
N1511 N 0.535 0.03536 0.16362 0.0
H1512 H 0.4459 0.94839 0.73822 0.0
H1513 H 0.52534 0.98295 0.85038 0.0
H1514 H 0.4658 0.9848 0.84031 0.0
H1515 H 0.50888 0.94983 0.73459 0.0
H1516 H 0.50129 0.97926 0.86283 0.0
H1517 H 0.46639 0.94457 0.75128 0.0
C1518 C 0.45435 0.9553 0.76461 0.0
C1519 C 0.45421 0.967 0.78796 0.0
C1520 C 0.50281 0.97258 0.8353 0.0
C1521 C 0.47768 0.9628 0.80262 0.0
C1522 C 0.51655 0.97463 0.82842 0.0
C1523 C 0.51912 0.96674 0.7912 0.0
C1524 C 0.4915 0.96275 0.80399 0.0
C1525 C 0.50734 0.95609 0.76385 0.0
C1526 C 0.4661 0.95319 0.77169 0.0
C1527 C 0.46553 0.97573 0.8212 0.0
N1528 N 0.49406 0.95459 0.77003 0.0
N1529 N 0.47682 0.97354 0.82711 0.0
H1530 H 0.06317 0.56373 0.7309 0.0
H1531 H 0.02984 0.48501 0.84795 0.0
H1532 H 0.02896 0.54507 0.84236 0.0
H1533 H 0.06199 0.50087 0.72874 0.0
H1534 H 0.03382 0.50917 0.86032 0.0
H1535 H 0.06709 0.54326 0.74273 0.0
C1536 C 0.05681 0.55557 0.75905 0.0
C1537 C 0.04566 0.55603 0.78548 0.0
C1538 C 0.04023 0.5075 0.83202 0.0
C1539 C 0.04994 0.53257 0.79871 0.0
C1540 C 0.03801 0.49369 0.8252 0.0
C1541 C 0.04556 0.49094 0.78716 0.0
C1542 C 0.04986 0.51867 0.79975 0.0
C1543 C 0.05601 0.50258 0.7587 0.0
C1544 C 0.05896 0.54383 0.76545 0.0
C1545 C 0.03759 0.54508 0.8209 0.0
N1546 N 0.05766 0.51591 0.76483 0.0
N1547 N 0.03979 0.53377 0.82605 0.0
H1548 H 0.46636 0.4874 0.84638 0.0
H1549 H 0.51212 0.56652 0.7338 0.0
H1550 H 0.45064 0.50372 0.72673 0.0
H1551 H 0.52712 0.5476 0.84636 0.0
H1552 H 0.48768 0.54605 0.74411 0.0
H1553 H 0.48634 0.51156 0.86099 0.0
C1554 C 0.46695 0.49618 0.82404 0.0
C1555 C 0.45688 0.49357 0.78522 0.0
C1556 C 0.49627 0.54657 0.76744 0.0
C1557 C 0.48009 0.52129 0.80033 0.0
C1558 C 0.51019 0.55831 0.76191 0.0
C1559 C 0.52167 0.5587 0.78904 0.0
C1560 C 0.49387 0.53521 0.8005 0.0
C1561 C 0.51861 0.54767 0.82438 0.0
C1562 C 0.47842 0.50999 0.83213 0.0
C1563 C 0.45815 0.50532 0.75727 0.0
N1564 N 0.50508 0.53635 0.82863 0.0
N1565 N 0.46974 0.51866 0.76463 0.0
H1566 H 0.65321 0.86012 0.47305 0.0
H1567 H 0.61908 0.78116 0.58809 0.0
H1568 H 0.61978 0.84375 0.58766 0.0
H1569 H 0.65392 0.79997 0.47916 0.0
H1570 H 0.61518 0.80161 0.57521 0.0
H1571 H 0.64945 0.83604 0.46089 0.0
C1572 C 0.64484 0.85135 0.49487 0.0
C1573 C 0.63686 0.85394 0.53161 0.0
C1574 C 0.62345 0.80108 0.55325 0.0
C1575 C 0.63277 0.82628 0.51918 0.0
C1576 C 0.62559 0.78934 0.56025 0.0
C1577 C 0.6369 0.78894 0.53489 0.0
C1578 C 0.63267 0.81239 0.52052 0.0
C1579 C 0.64516 0.79992 0.49982 0.0
C1580 C 0.64273 0.83758 0.48813 0.0
C1581 C 0.62612 0.84218 0.55878 0.0
N1582 N 0.64298 0.81122 0.49413 0.0
N1583 N 0.62458 0.82888 0.5528 0.0
H1584 H 0.15156 0.79712 0.4708 0.0
H1585 H 0.23108 0.84081 0.58257 0.0
H1586 H 0.16824 0.77935 0.58153 0.0
H1587 H 0.2112 0.85828 0.48471 0.0
H1588 H 0.21063 0.81664 0.56702 0.0
H1589 H 0.17561 0.81753 0.45903 0.0
C1590 C 0.16038 0.79737 0.49176 0.0
C1591 C 0.15788 0.78658 0.52746 0.0
C1592 C 0.21092 0.82574 0.54803 0.0
C1593 C 0.1855 0.81023 0.51545 0.0
C1594 C 0.22264 0.83952 0.55652 0.0
C1595 C 0.22277 0.85157 0.53517 0.0
C1596 C 0.19934 0.82406 0.51773 0.0
C1597 C 0.21147 0.8493 0.50231 0.0
C1598 C 0.17413 0.80908 0.48527 0.0
C1599 C 0.16973 0.78743 0.5535 0.0
N1600 N 0.20019 0.83588 0.49506 0.0
N1601 N 0.183 0.79922 0.54778 0.0
H1602 H 0.23429 0.39425 0.59378 0.0
H1603 H 0.15554 0.36081 0.47708 0.0
H1604 H 0.21547 0.35975 0.48347 0.0
H1605 H 0.17155 0.39326 0.59524 0.0
H1606 H 0.1797 0.36479 0.46448 0.0
H1607 H 0.2139 0.39829 0.58125 0.0
C1608 C 0.22612 0.38785 0.56571 0.0
C1609 C 0.22649 0.37659 0.53983 0.0
C1610 C 0.17806 0.37127 0.49256 0.0
C1611 C 0.20314 0.381 0.52581 0.0
C1612 C 0.16426 0.36906 0.49949 0.0
C1613 C 0.16155 0.37668 0.53734 0.0
C1614 C 0.18927 0.38097 0.52457 0.0
C1615 C 0.17323 0.38722 0.56543 0.0
C1616 C 0.21442 0.39007 0.55891 0.0
C1617 C 0.21553 0.36847 0.5045 0.0
N1618 N 0.18656 0.38885 0.55925 0.0
N1619 N 0.20428 0.37074 0.49896 0.0
H1620 H 0.04025 0.25637 0.04936 0.0
H1621 H 0.97299 0.26357 0.9562 0.0
H1622 H 0.04022 0.29626 0.03423 0.0
H1623 H 0.97304 0.22362 0.94488 0.0
H1624 H 0.99742 0.27514 0.9886 0.0
H1625 H 0.01537 0.24354 0.01694 0.0
C1626 C 0.03497 0.2624 0.03994 0.0
C1627 C 0.04235 0.27743 0.04463 0.0
C1628 C 0.9922 0.26386 0.97886 0.0
C1629 C 0.01402 0.26288 0.00709 0.0
C1630 C 0.97819 0.25723 0.96013 0.0
C1631 C 0.97091 0.24259 0.94759 0.0
C1632 C 0.99912 0.25585 0.98581 0.0
C1633 C 0.97828 0.23496 0.95367 0.0
C1634 C 0.02083 0.25509 0.02101 0.0
C1635 C 0.03502 0.28469 0.03126 0.0
N1636 N 0.99197 0.24166 0.97268 0.0
N1637 N 0.02136 0.27739 0.01321 0.0
H1638 H 0.78901 0.75168 0.93907 0.0
H1639 H 0.71552 0.74568 0.0373 0.0
H1640 H 0.74925 0.712 0.96076 0.0
H1641 H 0.75575 0.78549 0.04435 0.0
H1642 H 0.72805 0.73366 0.00582 0.0
H1643 H 0.77735 0.76483 0.9721 0.0
C1644 C 0.77781 0.74575 0.95013 0.0
C1645 C 0.7701 0.7307 0.94702 0.0
C1646 C 0.73423 0.74501 0.01449 0.0
C1647 C 0.75677 0.74561 0.98521 0.0
C1648 C 0.72706 0.7519 0.03268 0.0
C1649 C 0.73458 0.76663 0.04367 0.0
C1650 C 0.74913 0.75287 0.00645 0.0
C1651 C 0.74955 0.77409 0.03677 0.0
C1652 C 0.77121 0.75325 0.9694 0.0
C1653 C 0.75566 0.72358 0.96245 0.0
N1654 N 0.75634 0.76715 0.0182 0.0
N1655 N 0.74953 0.73106 0.98074 0.0
H1656 H 0.26508 0.97023 0.03705 0.0
H1657 H 0.25797 0.03731 0.9409 0.0
H1658 H 0.22516 0.9704 0.04754 0.0
H1659 H 0.29771 0.0369 0.95384 0.0
H1660 H 0.24512 0.01259 0.97486 0.0
H1661 H 0.27666 0.99454 0.00358 0.0
C1662 C 0.25874 0.97544 0.03273 0.0
C1663 C 0.24411 0.96823 0.0453 0.0
C1664 C 0.25665 0.01793 0.96998 0.0
C1665 C 0.25738 0.99629 0.00585 0.0
C1666 C 0.26396 0.03198 0.95019 0.0
C1667 C 0.27895 0.0392 0.94444 0.0
C1668 C 0.2644 0.01108 0.98371 0.0
C1669 C 0.28618 0.03182 0.95765 0.0
C1670 C 0.26538 0.98938 0.01337 0.0
C1671 C 0.2365 0.9756 0.03871 0.0
N1672 N 0.27887 0.01827 0.97657 0.0
N1673 N 0.2432 0.98921 0.0191 0.0
H1674 H 0.97271 0.75165 0.93969 0.0
H1675 H 0.04085 0.74579 0.03017 0.0
H1676 H 0.97284 0.71195 0.96035 0.0
H1677 H 0.03998 0.78528 0.0436 0.0
H1678 H 0.01619 0.73378 -0.00014 0.0
H1679 H 0.99767 0.7648 0.97123 0.0
C1680 C 0.97802 0.74572 0.95023 0.0
C1681 C 0.97067 0.73066 0.94726 0.0
C1682 C 0.02128 0.74506 0.00966 0.0
C1683 C 0.99908 0.74558 0.98365 0.0
C1684 C 0.03541 0.75193 0.02715 0.0
C1685 C 0.04252 0.76657 0.03964 0.0
C1686 C 0.01408 0.75283 0.00383 0.0
C1687 C 0.03486 0.77395 0.0348 0.0
C1688 C 0.9922 0.75321 0.96864 0.0
C1689 C 0.97803 0.72353 0.96198 0.0
N1690 N 0.02107 0.76703 0.01688 0.0
N1691 N 0.99174 0.73102 0.97937 0.0
H1692 H 0.29952 0.26267 0.95433 0.0
H1693 H 0.22537 0.25591 0.04905 0.0
H1694 H 0.25942 0.2228 0.94422 0.0
H1695 H 0.26547 0.29563 0.03472 0.0
H1696 H 0.23725 0.24296 0.01616 0.0
H1697 H 0.28682 0.27436 0.98713 0.0
C1698 C 0.28798 0.25636 0.9586 0.0
C1699 C 0.28055 0.24171 0.9463 0.0
C1700 C 0.24342 0.2545 0.02051 0.0
C1701 C 0.26578 0.25511 0.98499 0.0
C1702 C 0.23669 0.26187 0.03972 0.0
C1703 C 0.24443 0.27689 0.04476 0.0
C1704 C 0.25802 0.26221 0.00664 0.0
C1705 C 0.25903 0.28407 0.03148 0.0
C1706 C 0.2807 0.26307 0.97756 0.0
C1707 C 0.26556 0.23414 0.95281 0.0
N1708 N 0.26528 0.2767 0.01313 0.0
N1709 N 0.25867 0.24091 0.97205 0.0
H1710 H 0.78857 0.03848 0.94162 0.0
H1711 H 0.71425 0.97007 0.02834 0.0
H1712 H 0.74822 0.0377 0.95429 0.0
H1713 H 0.75467 0.9712 0.04501 0.0
H1714 H 0.7269 0.99465 -0.00275 0.0
H1715 H 0.77674 0.01357 0.97358 0.0
C1716 C 0.77722 0.03304 0.95045 0.0
C1717 C 0.76938 0.0402 0.94517 0.0
C1718 C 0.73309 0.98964 0.00793 0.0
C1719 C 0.75585 0.01184 0.98211 0.0
C1720 C 0.72585 0.97555 0.0259 0.0
C1721 C 0.73339 0.96854 0.03951 0.0
C1722 C 0.74809 0.99689 0.00279 0.0
C1723 C 0.74844 0.97624 0.03535 0.0
C1724 C 0.77051 0.01888 0.96911 0.0
C1725 C 0.75473 0.03267 0.95775 0.0
N1726 N 0.7553 0.98999 0.01699 0.0
N1727 N 0.7485 0.01899 0.97551 0.0
H1728 H 0.63895 0.59681 0.28954 0.0
H1729 H 0.70627 0.58958 0.38046 0.0
H1730 H 0.63899 0.55687 0.27728 0.0
H1731 H 0.70709 0.6297 0.35826 0.0
H1732 H 0.68127 0.5768 0.34935 0.0
H1733 H 0.66364 0.6085 0.31954 0.0
C1734 C 0.64421 0.5905 0.29273 0.0
C1735 C 0.63687 0.57583 0.28068 0.0
C1736 C 0.68695 0.58839 0.35151 0.0
C1737 C 0.66532 0.5892 0.31614 0.0
C1738 C 0.70116 0.59568 0.36969 0.0
C1739 C 0.70879 0.61074 0.37208 0.0
C1740 C 0.68033 0.59624 0.33616 0.0
C1741 C 0.70168 0.6181 0.35707 0.0
C1742 C 0.65835 0.59719 0.31005 0.0
C1743 C 0.64429 0.56823 0.28573 0.0
N1744 N 0.68793 0.61081 0.33991 0.0
N1745 N 0.6581 0.57498 0.30348 0.0
H1746 H 0.45392 0.08395 0.27067 0.0
H1747 H 0.37993 0.07758 0.3638 0.0
H1748 H 0.41435 0.04406 0.29221 0.0
H1749 H 0.42019 0.11719 0.37635 0.0
H1750 H 0.39264 0.06564 0.33318 0.0
H1751 H 0.44201 0.09692 0.30298 0.0
C1752 C 0.44271 0.07794 0.28153 0.0
C1753 C 0.43511 0.06289 0.27859 0.0
C1754 C 0.39878 0.07692 0.34289 0.0
C1755 C 0.42151 0.0776 0.31592 0.0
C1756 C 0.3915 0.08376 0.36058 0.0
C1757 C 0.399 0.09841 0.37285 0.0
C1758 C 0.41374 0.08477 0.33662 0.0
C1759 C 0.41401 0.10584 0.36775 0.0
C1760 C 0.43597 0.08533 0.3004 0.0
C1761 C 0.42066 0.05565 0.29377 0.0
N1762 N 0.4209 0.09897 0.34959 0.0
N1763 N 0.41438 0.06304 0.31163 0.0
H1764 H 0.93212 0.30453 0.36352 0.0
H1765 H 0.92549 0.37225 0.27325 0.0
H1766 H 0.89252 0.30517 0.37777 0.0
H1767 H 0.96537 0.37229 0.29064 0.0
H1768 H 0.91257 0.34732 0.30502 0.0
H1769 H 0.94392 0.3291 0.33234 0.0
C1770 C 0.92591 0.3099 0.36053 0.0
C1771 C 0.9113 0.30276 0.37348 0.0
C1772 C 0.92414 0.35281 0.3016 0.0
C1773 C 0.92479 0.33108 0.33665 0.0
C1774 C 0.9315 0.36697 0.28302 0.0
C1775 C 0.94654 0.37437 0.27917 0.0
C1776 C 0.9319 0.34601 0.31592 0.0
C1777 C 0.95379 0.36706 0.29298 0.0
C1778 C 0.93267 0.32397 0.34252 0.0
C1779 C 0.90384 0.31032 0.36864 0.0
N1780 N 0.94643 0.35337 0.31063 0.0
N1781 N 0.91064 0.32405 0.35023 0.0
H1782 H 0.70643 0.11938 0.38253 0.0
H1783 H 0.63898 0.04485 0.29248 0.0
H1784 H 0.70699 0.07987 0.36307 0.0
H1785 H 0.63942 0.08497 0.2774 0.0
H1786 H 0.66356 0.05775 0.32367 0.0
H1787 H 0.68144 0.10719 0.35127 0.0
C1788 C 0.70126 0.10812 0.37241 0.0
C1789 C 0.70882 0.10063 0.37552 0.0
C1790 C 0.65838 0.06382 0.31331 0.0
C1791 C 0.68039 0.08671 0.33938 0.0
C1792 C 0.64431 0.05643 0.2953 0.0
C1793 C 0.63711 0.06383 0.28208 0.0
C1794 C 0.66543 0.07879 0.3189 0.0
C1795 C 0.64461 0.07885 0.28674 0.0
C1796 C 0.68706 0.10122 0.35412 0.0
C1797 C 0.70163 0.0861 0.3613 0.0
N1798 N 0.65835 0.08586 0.30514 0.0
N1799 N 0.6879 0.07967 0.34398 0.0
H1800 H 0.8918 0.58982 0.3803 0.0
H1801 H 0.9665 0.59746 0.28921 0.0
H1802 H 0.93109 0.63004 0.36007 0.0
H1803 H 0.92655 0.55759 0.27499 0.0
H1804 H 0.95345 0.60902 0.32016 0.0
H1805 H 0.9041 0.57718 0.34856 0.0
C1806 C 0.90303 0.59597 0.36984 0.0
C1807 C 0.91043 0.61102 0.37294 0.0
C1808 C 0.94746 0.59776 0.31003 0.0
C1809 C 0.92449 0.59669 0.33631 0.0
C1810 C 0.95493 0.59114 0.29216 0.0
C1811 C 0.94763 0.57653 0.27926 0.0
C1812 C 0.93249 0.58974 0.31581 0.0
C1813 C 0.9326 0.56891 0.28408 0.0
C1814 C 0.91 0.58877 0.3513 0.0
C1815 C 0.92492 0.61845 0.35832 0.0
N1816 N 0.92552 0.57557 0.30236 0.0
N1817 N 0.93143 0.61124 0.34078 0.0
H1818 H 0.45498 0.37056 0.27295 0.0
H1819 H 0.38067 0.3021 0.3593 0.0
H1820 H 0.41465 0.36982 0.28503 0.0
H1821 H 0.42121 0.30359 0.3781 0.0
H1822 H 0.39326 0.32663 0.32754 0.0
H1823 H 0.44312 0.34566 0.30494 0.0
C1824 C 0.44362 0.36511 0.2816 0.0
C1825 C 0.4358 0.37229 0.2762 0.0
C1826 C 0.39948 0.3217 0.33884 0.0
C1827 C 0.42223 0.34395 0.31321 0.0
C1828 C 0.39228 0.30765 0.35719 0.0
C1829 C 0.39988 0.30076 0.37162 0.0
C1830 C 0.41449 0.32903 0.33414 0.0
C1831 C 0.41493 0.30854 0.36782 0.0
C1832 C 0.43689 0.35096 0.30031 0.0
C1833 C 0.42114 0.36477 0.28859 0.0
N1834 N 0.42176 0.32224 0.3491 0.0
N1835 N 0.41489 0.35109 0.30641 0.0
H1836 H 0.29821 0.90927 0.7022 0.0
H1837 H 0.37849 0.95065 0.6246 0.0
H1838 H 0.30993 0.90202 0.55109 0.0
H1839 H 0.36708 0.92933 0.77188 0.0
H1840 H 0.35344 0.9362 0.59681 0.0
H1841 H 0.3233 0.91986 0.72948 0.0
C1842 C 0.30609 0.9099 0.67478 0.0
C1843 C 0.30204 0.90482 0.62426 0.0
C1844 C 0.35645 0.93461 0.63501 0.0
C1845 C 0.33074 0.91717 0.655 0.0
C1846 C 0.37068 0.94289 0.65107 0.0
C1847 C 0.37481 0.94119 0.70068 0.0
C1848 C 0.34615 0.92489 0.6694 0.0
C1849 C 0.36431 0.93093 0.73332 0.0
C1850 C 0.32035 0.91584 0.69052 0.0
C1851 C 0.31264 0.9058 0.59037 0.0
N1852 N 0.35036 0.92334 0.71747 0.0
N1853 N 0.3266 0.91214 0.60606 0.0
H1854 H 0.04819 0.41213 0.70194 0.0
H1855 H 0.12234 0.41921 0.60617 0.0
H1856 H 0.08825 0.45205 0.71164 0.0
H1857 H 0.08283 0.37918 0.62604 0.0
H1858 H 0.11027 0.43202 0.63847 0.0
H1859 H 0.06096 0.4004 0.66995 0.0
C1860 C 0.05974 0.41843 0.69779 0.0
C1861 C 0.06714 0.43311 0.70971 0.0
C1862 C 0.10427 0.42044 0.63547 0.0
C1863 C 0.08197 0.41969 0.67193 0.0
C1864 C 0.11111 0.41314 0.61659 0.0
C1865 C 0.10358 0.39809 0.61328 0.0
C1866 C 0.08979 0.41262 0.65069 0.0
C1867 C 0.08909 0.39077 0.62792 0.0
C1868 C 0.06705 0.41171 0.6793 0.0
C1869 C 0.08213 0.44069 0.70335 0.0
N1870 N 0.08272 0.39808 0.64588 0.0
N1871 N 0.08905 0.43391 0.68452 0.0
H1872 H 0.60018 0.63978 0.69938 0.0
H1873 H 0.59352 0.70722 0.60512 0.0
H1874 H 0.56043 0.64026 0.71072 0.0
H1875 H 0.63337 0.70725 0.62329 0.0
H1876 H 0.58057 0.68234 0.63734 0.0
H1877 H 0.61195 0.66424 0.66708 0.0
C1878 C 0.59392 0.64509 0.69548 0.0
C1879 C 0.57928 0.63793 0.70798 0.0
C1880 C 0.59214 0.68781 0.63398 0.0
C1881 C 0.59276 0.66613 0.6699 0.0
C1882 C 0.59952 0.70195 0.61515 0.0
C1883 C 0.61456 0.70934 0.6114 0.0
C1884 C 0.59988 0.68102 0.64869 0.0
C1885 C 0.62179 0.70203 0.62554 0.0
C1886 C 0.60067 0.6591 0.67682 0.0
C1887 C 0.57177 0.64541 0.70196 0.0
N1888 N 0.61442 0.68837 0.64346 0.0
N1889 N 0.57857 0.65909 0.68299 0.0
H1890 H 0.37632 0.4141 0.69886 0.0
H1891 H 0.3082 0.4198 0.60662 0.0
H1892 H 0.37523 0.4535 0.71101 0.0
H1893 H 0.30844 0.38012 0.62581 0.0
H1894 H 0.33311 0.43293 0.63836 0.0
H1895 H 0.35172 0.40199 0.66771 0.0
C1896 C 0.37084 0.4202 0.69544 0.0
C1897 C 0.37787 0.43485 0.70779 0.0
C1898 C 0.32769 0.42136 0.63535 0.0
C1899 C 0.34952 0.421 0.67097 0.0
C1900 C 0.31353 0.41387 0.61679 0.0
C1901 C 0.30621 0.39883 0.61343 0.0
C1902 C 0.33458 0.41373 0.65019 0.0
C1903 C 0.31361 0.3917 0.62774 0.0
C1904 C 0.35675 0.41327 0.67744 0.0
C1905 C 0.37018 0.44217 0.70237 0.0
N1906 N 0.3273 0.39918 0.64538 0.0
N1907 N 0.35644 0.43519 0.68398 0.0
H1908 H 0.5919 0.89049 0.60569 0.0
H1909 H 0.59741 0.96385 0.70293 0.0
H1910 H 0.63132 0.93073 0.62362 0.0
H1911 H 0.55771 0.92351 0.71027 0.0
H1912 H 0.60947 0.95146 0.67083 0.0
H1913 H 0.57859 0.90197 0.6388 0.0
C1914 C 0.59773 0.90175 0.61592 0.0
C1915 C 0.61276 0.90966 0.61178 0.0
C1916 C 0.59814 0.94521 0.67965 0.0
C1917 C 0.59766 0.92277 0.65008 0.0
C1918 C 0.59123 0.95231 0.6982 0.0
C1919 C 0.57651 0.94472 0.70946 0.0
C1920 C 0.59034 0.93032 0.67156 0.0
C1921 C 0.5691 0.92976 0.70246 0.0
C1922 C 0.59014 0.90825 0.63522 0.0
C1923 C 0.61976 0.92417 0.62615 0.0
N1924 N 0.57607 0.92304 0.68358 0.0
N1925 N 0.61219 0.9302 0.64454 0.0
H1926 H 0.08901 0.63793 0.71221 0.0
H1927 H 0.08104 0.70501 0.62321 0.0
H1928 H 0.04892 0.63765 0.69888 0.0
H1929 H 0.12098 0.7051 0.60768 0.0
H1930 H 0.06972 0.68057 0.65527 0.0
H1931 H 0.10162 0.66285 0.68016 0.0
C1932 C 0.08289 0.64315 0.70325 0.0
C1933 C 0.06788 0.63568 0.70831 0.0
C1934 C 0.08094 0.68582 0.64466 0.0
C1935 C 0.08216 0.66403 0.67127 0.0
C1936 C 0.08743 0.69983 0.62615 0.0
C1937 C 0.10199 0.70715 0.61254 0.0
C1938 C 0.08903 0.67894 0.65031 0.0
C1939 C 0.1097 0.69982 0.61734 0.0
C1940 C 0.09007 0.65731 0.68453 0.0
C1941 C 0.06048 0.64292 0.69556 0.0
N1942 N 0.10315 0.68613 0.63617 0.0
N1943 N 0.06767 0.6566 0.67774 0.0
H1944 H 0.09776 0.34985 0.70168 0.0
H1945 H 0.0855 0.32736 0.95726 0.0
H1946 H 0.14188 0.366 0.74494 0.0
H1947 H 0.11346 0.31089 0.91768 0.0
H1948 H 0.09263 0.34162 0.87809 0.0
H1949 H 0.09007 0.3359 0.78143 0.0
C1950 C 0.1058 0.35046 0.72833 0.0
C1951 C 0.12041 0.35882 0.71707 0.0
C1952 C 0.09714 0.33484 0.88673 0.0
C1953 C 0.11178 0.34298 0.8072 0.0
C1954 C 0.09312 0.32677 0.93159 0.0
C1955 C 0.09912 0.31822 0.9437 0.0
C1956 C 0.1073 0.3344 0.85431 0.0
C1957 C 0.10878 0.31754 0.90938 0.0
C1958 C 0.10143 0.34257 0.77354 0.0
C1959 C 0.13051 0.3595 0.7526 0.0
N1960 N 0.11284 0.32582 0.86623 0.0
N1961 N 0.12598 0.35139 0.79612 0.0
H1962 H 0.68533 0.76107 0.9547 0.0
H1963 H 0.66315 0.75142 0.69899 0.0
H1964 H 0.70255 0.80565 0.91597 0.0
H1965 H 0.64762 0.77991 0.74233 0.0
H1966 H 0.67712 0.75751 0.77868 0.0
H1967 H 0.67123 0.75428 0.87517 0.0
C1968 C 0.68613 0.7694 0.92913 0.0
C1969 C 0.69484 0.78389 0.94159 0.0
C1970 C 0.67059 0.76235 0.7708 0.0
C1971 C 0.67885 0.77627 0.85176 0.0
C1972 C 0.66269 0.75893 0.72564 0.0
C1973 C 0.65448 0.76537 0.71444 0.0
C1974 C 0.67034 0.77237 0.80449 0.0
C1975 C 0.65399 0.77489 0.74995 0.0
C1976 C 0.67815 0.76554 0.88406 0.0
C1977 C 0.69577 0.79436 0.90739 0.0
N1978 N 0.6621 0.77835 0.79345 0.0
N1979 N 0.68759 0.79034 0.864 0.0
H1980 H 0.25033 0.92376 0.96159 0.0
H1981 H 0.23018 0.86673 0.74241 0.0
H1982 H 0.20553 0.89568 0.92786 0.0
H1983 H 0.26039 0.91141 0.715 0.0
H1984 H 0.22322 0.87345 0.82415 0.0
H1985 H 0.25662 0.91573 0.88259 0.0
C1986 C 0.24185 0.91585 0.93739 0.0
C1987 C 0.22744 0.91012 0.95105 0.0
C1988 C 0.23145 0.88168 0.80015 0.0
C1989 C 0.23451 0.90082 0.86215 0.0
C1990 C 0.2354 0.87788 0.75404 0.0
C1991 C 0.24556 0.88863 0.72213 0.0
C1992 C 0.23824 0.89617 0.81456 0.0
C1993 C 0.2523 0.90291 0.73855 0.0
C1994 C 0.24543 0.91131 0.89268 0.0
C1995 C 0.21676 0.90013 0.91845 0.0
N1996 N 0.24855 0.90629 0.78389 0.0
N1997 N 0.22052 0.89555 0.87547 0.0
H1998 H 0.32996 0.0828 0.02818 0.0
H1999 H 0.36853 0.13953 0.24615 0.0
H2000 H 0.31418 0.11161 0.06307 0.0
H2001 H 0.35228 0.0946 0.27566 0.0
H2002 H 0.35467 0.13304 0.16488 0.0
H2003 H 0.34438 0.09048 0.10708 0.0
C2004 C 0.32962 0.09079 0.05261 0.0
C2005 C 0.32118 0.09682 0.03935 0.0
C2006 C 0.35433 0.1247 0.1892 0.0
C2007 C 0.33766 0.10573 0.12802 0.0
C2008 C 0.36217 0.12837 0.23506 0.0
C2009 C 0.36113 0.1175 0.26743 0.0
C2010 C 0.34609 0.1102 0.17543 0.0
C2011 C 0.35304 0.1032 0.25171 0.0
C2012 C 0.33779 0.09513 0.09724 0.0
C2013 C 0.32077 0.10692 0.0722 0.0
N2014 N 0.34584 0.09993 0.20652 0.0
N2015 N 0.32916 0.1113 0.11506 0.0
H2016 H 0.87 0.23107 0.25063 0.0
H2017 H 0.89756 0.20321 0.06177 0.0
H2018 H 0.91527 0.25842 0.27816 0.0
H2019 H 0.92638 0.24832 0.03654 0.0
H2020 H 0.88866 0.20918 0.14028 0.0
H2021 H 0.87572 0.22288 0.1697 0.0
C2022 C 0.88109 0.23537 0.23927 0.0
C2023 C 0.89225 0.24506 0.27099 0.0
C2024 C 0.89696 0.2177 0.11744 0.0
C2025 C 0.89874 0.23631 0.17951 0.0
C2026 C 0.90203 0.21431 0.07315 0.0
C2027 C 0.91238 0.22537 0.04275 0.0
C2028 C 0.9029 0.23212 0.13193 0.0
C2029 C 0.91815 0.23959 0.05891 0.0
C2030 C 0.88432 0.23069 0.19365 0.0
C2031 C 0.90644 0.25066 0.25482 0.0
N2032 N 0.91342 0.24258 0.10288 0.0
N2033 N 0.90931 0.24626 0.20984 0.0
H2034 H 0.7812 0.64197 0.25288 0.0
H2035 H 0.8094 0.69697 0.0624 0.0
H2036 H 0.75354 0.65965 0.27805 0.0
H2037 H 0.7643 0.68072 0.03666 0.0
H2038 H 0.80338 0.68248 0.14197 0.0
H2039 H 0.78976 0.65603 0.17239 0.0
C2040 C 0.77692 0.64874 0.24111 0.0
C2041 C 0.76701 0.65008 0.27204 0.0
C2042 C 0.79488 0.68218 0.11872 0.0
C2043 C 0.77618 0.66548 0.18096 0.0
C2044 C 0.79829 0.69041 0.07385 0.0
C2045 C 0.78725 0.68961 0.04303 0.0
C2046 C 0.78044 0.67376 0.13321 0.0
C2047 C 0.77303 0.68129 0.05932 0.0
C2048 C 0.78181 0.65673 0.19573 0.0
C2049 C 0.76145 0.65867 0.25533 0.0
N2050 N 0.77001 0.67374 0.10372 0.0
N2051 N 0.76605 0.66601 0.21055 0.0
H2052 H 0.89752 0.69748 0.06254 0.0
H2053 H 0.86955 0.64264 0.25367 0.0
H2054 H 0.92612 0.68079 0.04003 0.0
H2055 H 0.91472 0.65983 0.28142 0.0
H2056 H 0.87552 0.6568 0.17328 0.0
H2057 H 0.88871 0.6832 0.14244 0.0
C2058 C 0.90195 0.69087 0.07477 0.0
C2059 C 0.91221 0.68988 0.04474 0.0
C2060 C 0.88405 0.6574 0.1972 0.0
C2061 C 0.90279 0.67427 0.13532 0.0
C2062 C 0.88067 0.64934 0.24251 0.0
C2063 C 0.89173 0.65049 0.27409 0.0
C2064 C 0.8985 0.66602 0.18317 0.0
C2065 C 0.90597 0.65899 0.25817 0.0
C2066 C 0.89693 0.68276 0.11985 0.0
C2067 C 0.91795 0.6815 0.06204 0.0
N2068 N 0.90897 0.66639 0.21344 0.0
N2069 N 0.91323 0.67406 0.1066 0.0
H2070 H 0.33097 0.24782 0.03191 0.0
H2071 H 0.36921 0.2289 0.24747 0.0
H2072 H 0.31423 0.20301 0.06542 0.0
H2073 H 0.3528 0.25731 0.28012 0.0
H2074 H 0.3549 0.22149 0.16717 0.0
H2075 H 0.34513 0.25408 0.11136 0.0
C2076 C 0.33035 0.23934 0.05616 0.0
C2077 C 0.32173 0.22494 0.04232 0.0
C2078 C 0.35462 0.22943 0.19195 0.0
C2079 C 0.3379 0.23196 0.13168 0.0
C2080 C 0.36271 0.23363 0.23728 0.0
C2081 C 0.36179 0.24342 0.27023 0.0
C2082 C 0.34629 0.23567 0.17917 0.0
C2083 C 0.3535 0.24953 0.25568 0.0
C2084 C 0.33837 0.24289 0.10112 0.0
C2085 C 0.32098 0.21424 0.07499 0.0
N2086 N 0.3461 0.24562 0.21087 0.0
N2087 N 0.32922 0.21797 0.1182 0.0
H2088 H 0.76184 0.08355 0.03275 0.0
H2089 H 0.78025 0.14079 0.24833 0.0
H2090 H 0.80648 0.11233 0.06682 0.0
H2091 H 0.7516 0.096 0.28019 0.0
H2092 H 0.78763 0.13394 0.16793 0.0
H2093 H 0.75524 0.09125 0.11192 0.0
C2094 C 0.77022 0.09152 0.0571 0.0
C2095 C 0.78466 0.09756 0.04349 0.0
C2096 C 0.77963 0.12571 0.19253 0.0
C2097 C 0.77725 0.1065 0.13242 0.0
C2098 C 0.77545 0.12958 0.23791 0.0
C2099 C 0.76563 0.11886 0.27071 0.0
C2100 C 0.77336 0.11115 0.17958 0.0
C2101 C 0.75942 0.10449 0.25587 0.0
C2102 C 0.76647 0.09588 0.10188 0.0
C2103 C 0.79522 0.10764 0.07622 0.0
N2104 N 0.76334 0.10101 0.21105 0.0
N2105 N 0.79128 0.11205 0.11918 0.0
H2106 H 0.66376 0.91683 0.70029 0.0
H2107 H 0.70189 0.89684 0.91332 0.0
H2108 H 0.64731 0.87192 0.73094 0.0
H2109 H 0.68612 0.92568 0.94782 0.0
H2110 H 0.68751 0.88977 0.83323 0.0
H2111 H 0.67779 0.9228 0.78 0.0
C2112 C 0.66317 0.90825 0.72399 0.0
C2113 C 0.65469 0.89391 0.70922 0.0
C2114 C 0.68737 0.89772 0.85839 0.0
C2115 C 0.67072 0.90062 0.79888 0.0
C2116 C 0.69551 0.90174 0.90359 0.0
C2117 C 0.6948 0.91155 0.937 0.0
C2118 C 0.67917 0.90416 0.8462 0.0
C2119 C 0.68666 0.91787 0.92302 0.0
C2120 C 0.67112 0.91165 0.76912 0.0
C2121 C 0.65396 0.8831 0.74121 0.0
N2122 N 0.67919 0.91413 0.87834 0.0
N2123 N 0.66214 0.88669 0.78454 0.0
H2124 H 0.14195 0.7805 0.72654 0.0
H2125 H 0.11483 0.80796 0.91862 0.0
H2126 H 0.09673 0.7516 0.70389 0.0
H2127 H 0.08697 0.76273 0.94508 0.0
H2128 H 0.12303 0.80221 0.83777 0.0
H2129 H 0.13634 0.78926 0.80629 0.0
C2130 C 0.1309 0.776 0.7387 0.0
C2131 C 0.1197 0.76566 0.7087 0.0
C2132 C 0.11511 0.79362 0.8615 0.0
C2133 C 0.11336 0.77503 0.79909 0.0
C2134 C 0.11044 0.79688 0.90707 0.0
C2135 C 0.10056 0.78573 0.93843 0.0
C2136 C 0.10933 0.77921 0.84702 0.0
C2137 C 0.09485 0.77154 0.92201 0.0
C2138 C 0.12772 0.78099 0.78368 0.0
C2139 C 0.10556 0.75983 0.7259 0.0
N2140 N 0.09925 0.76866 0.87707 0.0
N2141 N 0.10278 0.76452 0.77038 0.0
H2142 H 0.25192 0.32688 0.95893 0.0
H2143 H 0.26356 0.34968 0.7034 0.0
H2144 H 0.20781 0.31113 0.91641 0.0
H2145 H 0.23589 0.36637 0.74464 0.0
H2146 H 0.25686 0.3357 0.78318 0.0
H2147 H 0.25963 0.34126 0.88004 0.0
C2148 C 0.24389 0.32647 0.93267 0.0
C2149 C 0.22927 0.31808 0.94386 0.0
C2150 C 0.25235 0.3425 0.77484 0.0
C2151 C 0.23793 0.3344 0.85482 0.0
C2152 C 0.2561 0.3504 0.72961 0.0
C2153 C 0.25004 0.35891 0.71775 0.0
C2154 C 0.24236 0.34305 0.80787 0.0
C2155 C 0.24061 0.35974 0.75274 0.0
C2156 C 0.24827 0.3346 0.88798 0.0
C2157 C 0.21919 0.31765 0.90882 0.0
N2158 N 0.23678 0.35161 0.79624 0.0
N2159 N 0.22373 0.32598 0.86586 0.0
H2160 H 0.01743 0.42698 0.62338 0.0
H2161 H 0.99527 0.41674 0.3676 0.0
H2162 H 0.03432 0.47142 0.58329 0.0
H2163 H 0.9793 0.44495 0.40972 0.0
H2164 H 0.00916 0.42302 0.44752 0.0
H2165 H 1.00321 0.41991 0.54411 0.0
C2166 C 0.01812 0.43522 0.59759 0.0
C2167 C 0.02678 0.44975 0.60957 0.0
C2168 C 1.00254 0.42776 0.43933 0.0
C2169 C 0.01066 0.44182 0.52003 0.0
C2170 C 0.9947 0.42423 0.39402 0.0
C2171 C 0.98641 0.43055 0.38239 0.0
C2172 C 1.00216 0.43775 0.47274 0.0
C2173 C 0.98576 0.44003 0.41766 0.0
C2174 C 0.01008 0.4312 0.55267 0.0
C2175 C 0.02758 0.46011 0.57508 0.0
N2176 N 0.99382 0.44361 0.46131 0.0
N2177 N 0.01934 0.45593 0.53184 0.0
H2178 H 0.56514 0.53572 0.4051 0.0
H2179 H 0.53864 0.5647 0.59377 0.0
H2180 H 0.59306 0.58078 0.37558 0.0
H2181 H 0.58397 0.59278 0.61741 0.0
H2182 H 0.54409 0.55547 0.51494 0.0
H2183 H 0.55726 0.54194 0.48568 0.0
C2184 C 0.56963 0.54687 0.41596 0.0
C2185 C 0.57941 0.55783 0.3838 0.0
C2186 C 0.55276 0.56369 0.5375 0.0
C2187 C 0.57102 0.56488 0.47493 0.0
C2188 C 0.54968 0.56894 0.58197 0.0
C2189 C 0.56094 0.57917 0.61203 0.0
C2190 C 0.56711 0.56931 0.52251 0.0
C2191 C 0.57508 0.58465 0.59532 0.0
C2192 C 0.56513 0.55039 0.46139 0.0
C2193 C 0.58525 0.57211 0.3993 0.0
N2194 N 0.57779 0.57973 0.55121 0.0
N2195 N 0.58103 0.57525 0.44415 0.0
H2196 H 0.41741 0.99169 0.61525 0.0
H2197 H 0.47465 0.03021 0.40018 0.0
H2198 H 0.44686 0.97639 0.58516 0.0
H2199 H 0.42985 0.0142 0.36869 0.0
H2200 H 0.46781 0.01571 0.47996 0.0
H2201 H 0.42483 0.00534 0.5348 0.0
C2202 C 0.42545 0.99124 0.59144 0.0
C2203 C 0.43177 0.98321 0.60663 0.0
C2204 C 0.45957 0.01552 0.45549 0.0
C2205 C 0.44037 0.99882 0.51597 0.0
C2206 C 0.46344 0.02374 0.41049 0.0
C2207 C 0.45272 0.02301 0.37801 0.0
C2208 C 0.44501 0.00723 0.46846 0.0
C2209 C 0.43834 0.01476 0.39273 0.0
C2210 C 0.42964 0.99897 0.54585 0.0
C2211 C 0.44194 0.98268 0.57453 0.0
N2212 N 0.43488 0.00722 0.43722 0.0
N2213 N 0.44619 0.99067 0.53067 0.0
H2214 H 0.58214 0.99397 0.62325 0.0
H2215 H 0.5646 0.03204 0.4026 0.0
H2216 H 0.53757 0.978 0.58754 0.0
H2217 H 0.59345 0.01583 0.37584 0.0
H2218 H 0.5566 0.01786 0.48305 0.0
H2219 H 0.5889 0.00792 0.54338 0.0
C2220 C 0.57381 0.99347 0.5984 0.0
C2221 C 0.55934 0.98512 0.61173 0.0
C2222 C 0.56477 0.01759 0.45954 0.0
C2223 C 0.56693 1.00105 0.52179 0.0
C2224 C 0.5693 0.02561 0.41412 0.0
C2225 C 0.57938 0.0247 0.38276 0.0
C2226 C 0.57098 0.00935 0.47405 0.0
C2227 C 0.58544 0.01651 0.39901 0.0
C2228 C 0.57765 1.00137 0.55318 0.0
C2229 C 0.54885 0.98453 0.57834 0.0
N2230 N 0.5812 0.00918 0.44389 0.0
N2231 N 0.55287 0.99265 0.53481 0.0
H2232 H 0.97998 0.53643 0.40105 0.0
H2233 H 0.01825 0.59226 0.62044 0.0
H2234 H 0.99594 0.58137 0.37295 0.0
H2235 H 0.03452 0.56395 0.58393 0.0
H2236 H 1.00425 0.58504 0.54064 0.0
H2237 H 0.99444 0.54286 0.48087 0.0
C2238 C 0.98641 0.54758 0.41217 0.0
C2239 C 0.98717 0.55847 0.38058 0.0
C2240 C 0.01088 0.58042 0.55023 0.0
C2241 C 1.00282 0.5657 0.47126 0.0
C2242 C 0.01881 0.5845 0.59541 0.0
C2243 C 0.02725 0.57845 0.60852 0.0
C2244 C 0.01125 0.57008 0.51871 0.0
C2245 C 0.02792 0.56864 0.57491 0.0
C2246 C 0.99458 0.55121 0.45725 0.0
C2247 C 0.99537 0.57276 0.39632 0.0
N2248 N 0.01975 0.5645 0.53149 0.0
N2249 N 1.00284 0.57599 0.44093 0.0
H2250 H 0.42871 0.41589 0.36573 0.0
H2251 H 0.42011 0.4295 0.6216 0.0
H2252 H 0.47342 0.44326 0.40266 0.0
H2253 H 0.4482 0.4733 0.57495 0.0
H2254 H 0.42589 0.42124 0.54215 0.0
H2255 H 0.42219 0.42351 0.44521 0.0
C2256 C 0.43712 0.42349 0.39087 0.0
C2257 C 0.45157 0.42921 0.3779 0.0
C2258 C 0.43071 0.43265 0.54927 0.0
C2259 C 0.44427 0.43792 0.46761 0.0
C2260 C 0.42747 0.43735 0.59429 0.0
C2261 C 0.43388 0.45204 0.60447 0.0
C2262 C 0.44053 0.44274 0.51471 0.0
C2263 C 0.4432 0.46187 0.56812 0.0
C2264 C 0.43342 0.42778 0.4359 0.0
C2265 C 0.46216 0.43882 0.4116 0.0
N2266 N 0.44651 0.45702 0.52477 0.0
N2267 N 0.45829 0.44315 0.45491 0.0
H2268 H 0.09423 0.34629 0.18242 0.0
H2269 H 0.0882 0.32805 0.48071 0.0
H2270 H 0.07791 0.30357 0.24278 0.0
H2271 H 0.11096 0.37104 0.41926 0.0
H2272 H 0.07882 0.31891 0.3953 0.0
H2273 H 0.09458 0.35503 0.26909 0.0
C2274 C 0.09045 0.33867 0.21389 0.0
C2275 C 0.08627 0.32419 0.20548 0.0
C2276 C 0.08569 0.33036 0.4005 0.0
C2277 C 0.08684 0.33425 0.30517 0.0
C2278 C 0.09107 0.33563 0.44932 0.0
C2279 C 0.10065 0.35035 0.45698 0.0
C2280 C 0.08994 0.33982 0.35869 0.0
C2281 C 0.10372 0.35963 0.41504 0.0
C2282 C 0.09069 0.34371 0.26343 0.0
C2283 C 0.08128 0.3148 0.24758 0.0
N2284 N 0.09857 0.35417 0.36741 0.0
N2285 N 0.08195 0.32006 0.29586 0.0
H2286 H 0.68458 0.76288 0.47797 0.0
H2287 H 0.66593 0.75084 0.18009 0.0
H2288 H 0.64154 0.74331 0.41717 0.0
H2289 H 0.70885 0.77631 0.24006 0.0
H2290 H 0.65716 0.74251 0.2668 0.0
H2291 H 0.6935 0.76225 0.39256 0.0
C2292 C 0.67694 0.75823 0.44673 0.0
C2293 C 0.66229 0.75341 0.45454 0.0
C2294 C 0.66853 0.74973 0.26103 0.0
C2295 C 0.67255 0.75278 0.35625 0.0
C2296 C 0.67358 0.75449 0.21147 0.0
C2297 C 0.68813 0.76453 0.20298 0.0
C2298 C 0.67805 0.7551 0.30267 0.0
C2299 C 0.69755 0.76866 0.24494 0.0
C2300 C 0.68208 0.75789 0.3979 0.0
C2301 C 0.65291 0.74726 0.4128 0.0
N2302 N 0.69229 0.76413 0.29324 0.0
N2303 N 0.65825 0.74735 0.36515 0.0
H2304 H 0.23507 0.93511 0.2464 0.0
H2305 H 0.27145 0.90334 0.42986 0.0
H2306 H 0.26079 0.91725 0.1927 0.0
H2307 H 0.24851 0.92409 0.4848 0.0
H2308 H 0.27169 0.91259 0.34344 0.0
H2309 H 0.24376 0.93551 0.33416 0.0
C2310 C 0.24281 0.93162 0.25283 0.0
C2311 C 0.24697 0.92586 0.21244 0.0
C2312 C 0.26682 0.91533 0.37464 0.0
C2313 C 0.25679 0.92608 0.31241 0.0
C2314 C 0.26676 0.91009 0.42404 0.0
C2315 C 0.25966 0.91265 0.46434 0.0
C2316 C 0.25968 0.9231 0.3656 0.0
C2317 C 0.2538 0.92154 0.45457 0.0
C2318 C 0.24771 0.93177 0.30294 0.0
C2319 C 0.25704 0.92149 0.22292 0.0
N2320 N 0.25372 0.92622 0.40613 0.0
N2321 N 0.26141 0.92147 0.27188 0.0
H2322 H 0.37187 0.10381 0.56165 0.0
H2323 H 0.30343 0.07282 0.74302 0.0
H2324 H 0.32835 0.08395 0.50534 0.0
H2325 H 0.34671 0.08923 0.79786 0.0
H2326 H 0.31177 0.07251 0.65529 0.0
H2327 H 0.36255 0.0944 0.64763 0.0
C2328 C 0.36039 0.09724 0.56709 0.0
C2329 C 0.3509 0.09498 0.52654 0.0
C2330 C 0.31938 0.0759 0.68675 0.0
C2331 C 0.34011 0.08433 0.62471 0.0
C2332 C 0.31458 0.07599 0.73682 0.0
C2333 C 0.32443 0.08133 0.77753 0.0
C2334 C 0.33411 0.08123 0.67766 0.0
C2335 C 0.33879 0.08531 0.76739 0.0
C2336 C 0.35504 0.0919 0.61622 0.0
C2337 C 0.33609 0.0863 0.53578 0.0
N2338 N 0.34322 0.08541 0.71847 0.0
N2339 N 0.33116 0.08151 0.58396 0.0
H2340 H 0.93746 0.23381 0.74683 0.0
H2341 H 0.9051 0.27015 0.56612 0.0
H2342 H 0.9202 0.25988 0.80247 0.0
H2343 H 0.92592 0.24742 0.50969 0.0
H2344 H 0.91457 0.27037 0.65224 0.0
H2345 H 0.93755 0.24247 0.65932 0.0
C2346 C 0.93406 0.24162 0.74086 0.0
C2347 C 0.92854 0.24589 0.78173 0.0
C2348 C 0.91727 0.26555 0.62075 0.0
C2349 C 0.92837 0.25566 0.68206 0.0
C2350 C 0.91189 0.26548 0.57157 0.0
C2351 C 0.91443 0.25847 0.53096 0.0
C2352 C 0.92515 0.2585 0.62918 0.0
C2353 C 0.92338 0.25265 0.54017 0.0
C2354 C 0.93401 0.24651 0.6909 0.0
C2355 C 0.92425 0.25605 0.77185 0.0
N2356 N 0.92821 0.25259 0.58835 0.0
N2357 N 0.92403 0.26039 0.72302 0.0
H2358 H 0.77689 0.70511 0.74836 0.0
H2359 H 0.74135 0.63667 0.56664 0.0
H2360 H 0.75228 0.66158 0.80365 0.0
H2361 H 0.76263 0.6803 0.51103 0.0
H2362 H 0.74118 0.6456 0.65335 0.0
H2363 H 0.76783 0.69651 0.66126 0.0
C2364 C 0.76932 0.69382 0.74243 0.0
C2365 C 0.7656 0.68402 0.78304 0.0
C2366 C 0.74565 0.6532 0.62194 0.0
C2367 C 0.75537 0.67406 0.68377 0.0
C2368 C 0.74568 0.64807 0.5724 0.0
C2369 C 0.75231 0.65776 0.53183 0.0
C2370 C 0.75235 0.66809 0.63074 0.0
C2371 C 0.75771 0.67244 0.54146 0.0
C2372 C 0.7642 0.68888 0.69269 0.0
C2373 C 0.75572 0.66949 0.77321 0.0
N2374 N 0.75784 0.67717 0.58997 0.0
N2375 N 0.75115 0.66493 0.72454 0.0
H2376 H 0.90403 0.63662 0.56792 0.0
H2377 H 0.938 0.70495 0.75018 0.0
H2378 H 0.92615 0.6803 0.51282 0.0
H2379 H 0.91924 0.6614 0.8051 0.0
H2380 H 0.93804 0.69637 0.66274 0.0
H2381 H 0.91358 0.64546 0.65432 0.0
C2382 C 0.91114 0.64801 0.57371 0.0
C2383 C 0.91401 0.65775 0.53342 0.0
C2384 C 0.93417 0.68873 0.69413 0.0
C2385 C 0.92482 0.66797 0.63194 0.0
C2386 C 0.93424 0.69366 0.74408 0.0
C2387 C 0.92831 0.68384 0.78471 0.0
C2388 C 0.92808 0.6739 0.68501 0.0
C2389 C 0.9236 0.66931 0.77464 0.0
C2390 C 0.91655 0.65309 0.62305 0.0
C2391 C 0.92334 0.67242 0.54306 0.0
N2392 N 0.92335 0.66476 0.72576 0.0
N2393 N 0.92821 0.67709 0.59139 0.0
H2394 H 0.30504 0.23209 0.74555 0.0
H2395 H 0.37378 0.26819 0.56467 0.0
H2396 H 0.34835 0.25834 0.80095 0.0
H2397 H 0.33025 0.24475 0.50831 0.0
H2398 H 0.36446 0.26855 0.6505 0.0
H2399 H 0.31361 0.24041 0.65776 0.0
C2400 C 0.31625 0.23988 0.73945 0.0
C2401 C 0.32603 0.2443 0.78038 0.0
C2402 C 0.35696 0.26354 0.61909 0.0
C2403 C 0.33597 0.25368 0.68039 0.0
C2404 C 0.36231 0.26339 0.57006 0.0
C2405 C 0.35279 0.25616 0.52955 0.0
C2406 C 0.34203 0.25635 0.6275 0.0
C2407 C 0.338 0.25016 0.53871 0.0
C2408 C 0.32118 0.24457 0.68933 0.0
C2409 C 0.34048 0.25441 0.77031 0.0
N2410 N 0.33308 0.25019 0.58677 0.0
N2411 N 0.34504 0.25856 0.72135 0.0
H2412 H 0.77827 0.0743 0.74622 0.0
H2413 H 0.74161 0.10639 0.56584 0.0
H2414 H 0.75171 0.09099 0.80181 0.0
H2415 H 0.7648 0.08608 0.50903 0.0
H2416 H 0.7414 0.09682 0.6517 0.0
H2417 H 0.76975 0.07432 0.65854 0.0
C2418 C 0.77039 0.07761 0.74018 0.0
C2419 C 0.76593 0.08293 0.78111 0.0
C2420 C 0.74633 0.09427 0.62019 0.0
C2421 C 0.75631 0.08322 0.6813 0.0
C2422 C 0.74639 0.0997 0.57115 0.0
C2423 C 0.75353 0.09734 0.53051 0.0
C2424 C 0.7535 0.0865 0.62848 0.0
C2425 C 0.75948 0.0885 0.53955 0.0
C2426 C 0.76557 0.07771 0.69014 0.0
C2427 C 0.75568 0.08709 0.77117 0.0
N2428 N 0.75955 0.08361 0.58763 0.0
N2429 N 0.75141 0.08738 0.72228 0.0
H2430 H 0.70705 0.93624 0.23144 0.0
H2431 H 0.63834 0.90103 0.41219 0.0
H2432 H 0.66351 0.91288 0.17512 0.0
H2433 H 0.68157 0.92784 0.46751 0.0
H2434 H 0.64691 0.90897 0.32416 0.0
H2435 H 0.69776 0.93699 0.31694 0.0
C2436 C 0.69558 0.93153 0.23676 0.0
C2437 C 0.68606 0.9242 0.19638 0.0
C2438 C 0.65447 0.91333 0.35573 0.0
C2439 C 0.67532 0.92487 0.29392 0.0
C2440 C 0.64953 0.90887 0.40599 0.0
C2441 C 0.65929 0.91354 0.44701 0.0
C2442 C 0.66925 0.92247 0.34673 0.0
C2443 C 0.67371 0.92371 0.43681 0.0
C2444 C 0.69026 0.9319 0.28559 0.0
C2445 C 0.67127 0.91834 0.20543 0.0
N2446 N 0.67829 0.92762 0.38771 0.0
N2447 N 0.66637 0.9186 0.25329 0.0
H2448 H 0.08306 0.75702 0.47162 0.0
H2449 H 0.0958 0.75034 0.17445 0.0
H2450 H 0.10958 0.7406 0.41309 0.0
H2451 H 0.07553 0.77328 0.23386 0.0
H2452 H 0.09511 0.74086 0.26011 0.0
H2453 H 0.07454 0.75688 0.38465 0.0
C2454 C 0.08688 0.7531 0.44051 0.0
C2455 C 0.09728 0.74908 0.44944 0.0
C2456 C 0.0906 0.74777 0.25438 0.0
C2457 C 0.08765 0.74908 0.34951 0.0
C2458 C 0.09098 0.75321 0.20543 0.0
C2459 C 0.08599 0.76289 0.19719 0.0
C2460 C 0.08528 0.75208 0.29572 0.0
C2461 C 0.07961 0.76597 0.23857 0.0
C2462 C 0.08202 0.75306 0.39082 0.0
C2463 C 0.10165 0.74388 0.40787 0.0
N2464 N 0.07967 0.76078 0.28635 0.0
N2465 N 0.09701 0.74429 0.35943 0.0
H2466 H 0.2361 0.3028 0.24167 0.0
H2467 H 0.2721 0.372 0.4203 0.0
H2468 H 0.26071 0.34612 0.18435 0.0
H2469 H 0.2511 0.32859 0.4781 0.0
H2470 H 0.2718 0.36271 0.33379 0.0
H2471 H 0.24511 0.31176 0.32855 0.0
C2472 C 0.24364 0.31411 0.24713 0.0
C2473 C 0.2474 0.32375 0.20596 0.0
C2474 C 0.26748 0.35524 0.36563 0.0
C2475 C 0.2576 0.33412 0.30491 0.0
C2476 C 0.26772 0.36057 0.41504 0.0
C2477 C 0.26133 0.35105 0.45622 0.0
C2478 C 0.26076 0.34031 0.35759 0.0
C2479 C 0.25585 0.33632 0.44721 0.0
C2480 C 0.24874 0.31926 0.29672 0.0
C2481 C 0.25724 0.33833 0.21519 0.0
N2482 N 0.25547 0.3314 0.39886 0.0
N2483 N 0.26181 0.34308 0.26367 0.0
H2484 H 0.04192 0.44202 0.90638 0.0
H2485 H 0.97305 0.40751 0.08654 0.0
H2486 H 0.99845 0.41765 0.85019 0.0
H2487 H 0.0166 0.4289 0.14316 0.0
H2488 H 0.98213 0.40713 0.00029 0.0
H2489 H 0.03308 0.4334 -0.00636 0.0
C2490 C 0.03059 0.4346 0.91218 0.0
C2491 C 0.02088 0.43081 0.87122 0.0
C2492 C 0.98967 0.41169 0.03184 0.0
C2493 C 0.01065 0.42108 0.97063 0.0
C2494 C 0.98446 0.41184 0.08109 0.0
C2495 C 0.99408 0.41854 0.12181 0.0
C2496 C 1.00458 0.41831 0.02347 0.0
C2497 C 0.00879 0.42393 0.1126 0.0
C2498 C 0.02551 0.42973 0.962 0.0
C2499 C 1.00629 0.42113 0.88088 0.0
N2500 N 0.01359 0.42391 0.06437 0.0
N2501 N 1.0016 0.4168 0.9296 0.0
H2502 H 0.60457 0.56995 0.08867 0.0
H2503 H 0.5701 0.6042 0.90781 0.0
H2504 H 0.58201 0.59099 0.14462 0.0
H2505 H 0.59572 0.58641 0.8523 0.0
H2506 H 0.57832 0.60374 -0.00446 0.0
H2507 H 0.60539 0.57989 0.00289 0.0
C2508 C 0.60006 0.57687 0.0832 0.0
C2509 C 0.59292 0.57935 0.12354 0.0
C2510 C 0.58237 0.60021 0.96397 0.0
C2511 C 0.59367 0.59064 0.02576 0.0
C2512 C 0.57774 0.60057 0.91388 0.0
C2513 C 0.58198 0.59505 0.87295 0.0
C2514 C 0.59122 0.59423 0.9729 0.0
C2515 C 0.59191 0.59047 0.88297 0.0
C2516 C 0.60048 0.58252 0.03422 0.0
C2517 C 0.58732 0.58849 0.11434 0.0
N2518 N 0.59598 0.58993 0.93194 0.0
N2519 N 0.58761 0.5936 0.06637 0.0
H2520 H 0.44111 0.03686 0.08385 0.0
H2521 H 0.40665 0.96851 0.90121 0.0
H2522 H 0.41928 0.99315 0.13867 0.0
H2523 H 0.42577 0.01212 0.84658 0.0
H2524 H 0.40682 0.97711 0.98881 0.0
H2525 H 0.43147 0.02803 -0.00246 0.0
C2526 C 0.43406 0.02546 0.07802 0.0
C2527 C 0.43128 0.01572 0.11822 0.0
C2528 C 0.41073 0.98476 0.95745 0.0
C2529 C 0.42035 0.00551 0.01977 0.0
C2530 C 0.41053 0.97982 0.90741 0.0
C2531 C 0.41649 0.98964 0.86679 0.0
C2532 C 0.41698 0.9996 0.96668 0.0
C2533 C 0.42137 1.0042 0.87701 0.0
C2534 C 0.4286 0.02039 0.02872 0.0
C2535 C 0.42201 1.00104 0.10851 0.0
N2536 N 0.42174 0.00876 0.92596 0.0
N2537 N 0.41708 0.99638 0.06023 0.0
H2538 H 0.56861 0.96938 0.90649 0.0
H2539 H 0.60454 0.03773 0.08854 0.0
H2540 H 0.59271 0.013 0.85166 0.0
H2541 H 0.58324 0.99408 0.14393 0.0
H2542 H 0.60456 0.02883 0.00169 0.0
H2543 H 0.57793 0.97793 0.99339 0.0
C2544 C 0.57611 0.98067 0.91247 0.0
C2545 C 0.57962 0.99051 0.8721 0.0
C2546 C 0.60011 0.02122 0.03307 0.0
C2547 C 0.59017 1.00041 0.97109 0.0
C2548 C 0.60018 0.02633 0.08269 0.0
C2549 C 0.59357 0.01663 0.12324 0.0
C2550 C 0.59334 0.00633 0.02415 0.0
C2551 C 0.58813 1.00194 0.11349 0.0
C2552 C 0.58138 0.98559 0.96208 0.0
C2553 C 0.58943 0.00506 0.88195 0.0
N2554 N 0.5879 0.99723 0.06488 0.0
N2555 N 0.59416 0.00958 0.93049 0.0
H2556 H 0.04261 0.60252 0.90481 0.0
H2557 H 0.97384 0.56953 0.08511 0.0
H2558 H 0.99908 0.58288 0.84873 0.0
H2559 H 0.01735 0.59249 0.14176 0.0
H2560 H 0.98287 0.57836 -0.00172 0.0
H2561 H 0.03381 0.60305 0.99153 0.0
C2562 C 0.03128 0.59863 0.91048 0.0
C2563 C 0.02154 0.59236 0.86978 0.0
C2564 C 0.99041 0.58168 0.02993 0.0
C2565 C 0.01137 0.59275 0.96855 0.0
C2566 C 0.98523 0.57668 0.07953 0.0
C2567 C 0.99486 0.57999 0.12046 0.0
C2568 C 1.00532 0.58996 0.02143 0.0
C2569 C 0.00954 0.58937 0.11105 0.0
C2570 C 0.02623 0.59887 0.95999 0.0
C2571 C 0.00696 0.58751 0.87925 0.0
N2572 N 0.01433 0.59381 0.06248 0.0
N2573 N 1.0023 0.5876 0.92767 0.0
H2574 H 0.44523 0.40734 0.07983 0.0
H2575 H 0.41065 0.44164 0.89926 0.0
H2576 H 0.41936 0.42484 0.13534 0.0
H2577 H 0.43396 0.42138 0.84312 0.0
H2578 H 0.40985 0.43159 0.98478 0.0
H2579 H 0.43733 0.40815 0.9919 0.0
C2580 C 0.43762 0.41099 0.07369 0.0
C2581 C 0.4332 0.41631 0.11473 0.0
C2582 C 0.41494 0.42916 0.95346 0.0
C2583 C 0.4243 0.41751 0.01459 0.0
C2584 C 0.41535 0.43487 0.90463 0.0
C2585 C 0.42267 0.43264 0.86431 0.0
C2586 C 0.42194 0.42122 0.96181 0.0
C2587 C 0.4285 0.4237 0.8734 0.0
C2588 C 0.43317 0.41155 0.0235 0.0
C2589 C 0.4233 0.42093 0.10462 0.0
N2590 N 0.4282 0.41851 0.92124 0.0
N2591 N 0.41939 0.42165 0.05558 0.0
loop_
_geom_bond_atom_site_label_1
_geom_bond_atom_site_label_2
_geom_bond_distance
_geom_bond_site_symmetry_2
_ccdc_geom_bond_type
Mn0 O5 2.095 . S
Mn0 O15 2.162 . S
Mn0 O16 2.297 . S
Mn0 O24 2.385 1_554 S
Mn0 O25 2.209 . S
Mn0 O26 2.094 . S
Mn1 O6 2.121 . S
Mn1 N8 2.257 . S
Mn1 N17 2.282 1_554 S
Mn1 O25 2.215 . S
Mn1 O27 2.117 . S
C2 O24 1.234 . S
C2 O25 1.283 1_556 S
C3 O15 1.281 . S
C3 O16 1.236 . S
C4 O26 1.240 . S
C4 O27 1.264 . S
O5 Mn0 2.095 . S
O5 C14 1.250 . S
O6 Mn1 2.121 . S
O6 C14 1.258 . S
C7 N8 1.326 . S
C7 C11 1.460 . S
C7 H13 0.929 . S
N8 Mn1 2.257 . S
N8 C7 1.326 . S
N8 C12 1.362 . S
C9 C10 1.258 1_556 S
C9 C12 1.431 1_556 S
C9 C29 1.449 . S
C10 C9 1.258 1_554 S
C10 C11 1.477 . S
C10 H30 0.931 . S
C11 C7 1.460 . S
C11 C10 1.477 . S
C11 H31 0.930 . S
C12 N8 1.362 . S
C12 C9 1.431 1_554 S
C12 C22 1.476 1_554 S
H13 C7 0.929 . S
C14 O5 1.250 . S
C14 O6 1.258 . S
O15 Mn0 2.162 . S
O15 C3 1.281 . S
O16 Mn0 2.297 . S
O16 C3 1.236 . S
N17 Mn1 2.282 1_556 S
N17 C18 1.328 . S
N17 C22 1.318 . S
C18 N17 1.328 . S
C18 C19 1.457 . S
C18 H23 0.929 . S
C19 C18 1.457 . S
C19 C20 1.291 . S
C19 H32 0.931 . S
C20 C19 1.291 . S
C20 C21 1.373 . S
C20 H33 0.929 . S
C21 C20 1.373 . S
C21 C22 1.396 . S
C21 C28 1.403 . S
C22 C12 1.476 1_556 S
C22 N17 1.318 . S
C22 C21 1.396 . S
H23 C18 0.929 . S
O24 Mn0 2.385 1_556 S
O24 C2 1.234 . S
O25 Mn0 2.209 . S
O25 Mn1 2.215 . S
O25 C2 1.283 1_554 S
O26 Mn0 2.094 . S
O26 C4 1.240 . S
O27 Mn1 2.117 . S
O27 C4 1.264 . S
C28 C21 1.403 . S
C28 C29 1.399 . S
C28 H34 0.929 . S
C29 C9 1.449 . S
C29 C28 1.399 . S
C29 H35 0.930 . S
H30 C10 0.931 . S
H31 C11 0.930 . S
H32 C19 0.931 . S
H33 C20 0.929 . S
H34 C28 0.929 . S
H35 C29 0.930 . S
Mn36 O41 2.095 . S
Mn36 O51 2.162 . S
Mn36 O52 2.297 . S
Mn36 O60 2.385 1_554 S
Mn36 O61 2.209 . S
Mn36 O62 2.094 . S
Mn37 O42 2.121 . S
Mn37 N44 2.257 . S
Mn37 N53 2.282 1_554 S
Mn37 O61 2.215 . S
Mn37 O63 2.117 . S
C38 O60 1.234 . S
C38 O61 1.283 1_556 S
C39 O51 1.281 . S
C39 O52 1.236 . S
C40 O62 1.240 . S
C40 O63 1.264 . S
O41 Mn36 2.095 . S
O41 C50 1.250 . S
O42 Mn37 2.121 . S
O42 C50 1.258 . S
C43 N44 1.326 . S
C43 C47 1.460 . S
C43 H49 0.929 . S
N44 Mn37 2.257 . S
N44 C43 1.326 . S
N44 C48 1.362 . S
C45 C46 1.258 1_556 S
C45 C48 1.431 1_556 S
C45 C65 1.449 . S
C46 C45 1.258 1_554 S
C46 C47 1.477 . S
C46 H66 0.931 . S
C47 C43 1.460 . S
C47 C46 1.477 . S
C47 H67 0.930 . S
C48 N44 1.362 . S
C48 C45 1.431 1_554 S
C48 C58 1.476 1_554 S
H49 C43 0.929 . S
C50 O41 1.250 . S
C50 O42 1.258 . S
O51 Mn36 2.162 . S
O51 C39 1.281 . S
O52 Mn36 2.297 . S
O52 C39 1.236 . S
N53 Mn37 2.282 1_556 S
N53 C54 1.328 . S
N53 C58 1.318 . S
C54 N53 1.328 . S
C54 C55 1.457 . S
C54 H59 0.929 . S
C55 C54 1.457 . S
C55 C56 1.291 . S
C55 H68 0.931 . S
C56 C55 1.291 . S
C56 C57 1.373 . S
C56 H69 0.929 . S
C57 C56 1.373 . S
C57 C58 1.396 . S
C57 C64 1.403 . S
C58 C48 1.476 1_556 S
C58 N53 1.318 . S
C58 C57 1.396 . S
H59 C54 0.929 . S
O60 Mn36 2.385 1_556 S
O60 C38 1.234 . S
O61 Mn36 2.209 . S
O61 Mn37 2.215 . S
O61 C38 1.283 1_554 S
O62 Mn36 2.094 . S
O62 C40 1.240 . S
O63 Mn37 2.117 . S
O63 C40 1.264 . S
C64 C57 1.403 . S
C64 C65 1.399 . S
C64 H70 0.929 . S
C65 C45 1.449 . S
C65 C64 1.399 . S
C65 H71 0.930 . S
H66 C46 0.931 . S
H67 C47 0.930 . S
H68 C55 0.931 . S
H69 C56 0.929 . S
H70 C64 0.929 . S
H71 C65 0.930 . S
Mn72 O77 2.095 . S
Mn72 O87 2.162 . S
Mn72 O88 2.297 . S
Mn72 O96 2.385 1_554 S
Mn72 O97 2.209 . S
Mn72 O98 2.094 . S
Mn73 O78 2.121 . S
Mn73 N80 2.257 . S
Mn73 N89 2.282 1_554 S
Mn73 O97 2.215 . S
Mn73 O99 2.117 . S
C74 O96 1.234 . S
C74 O97 1.283 1_556 S
C75 O87 1.281 . S
C75 O88 1.236 . S
C76 O98 1.240 . S
C76 O99 1.264 . S
O77 Mn72 2.095 . S
O77 C86 1.250 . S
O78 Mn73 2.121 . S
O78 C86 1.258 . S
C79 N80 1.326 . S
C79 C83 1.460 . S
C79 H85 0.929 . S
N80 Mn73 2.257 . S
N80 C79 1.326 . S
N80 C84 1.362 . S
C81 C82 1.258 1_556 S
C81 C84 1.431 1_556 S
C81 C101 1.449 . S
C82 C81 1.258 1_554 S
C82 C83 1.477 . S
C82 H102 0.931 . S
C83 C79 1.460 . S
C83 C82 1.477 . S
C83 H103 0.930 . S
C84 N80 1.362 . S
C84 C81 1.431 1_554 S
C84 C94 1.476 1_554 S
H85 C79 0.929 . S
C86 O77 1.250 . S
C86 O78 1.258 . S
O87 Mn72 2.162 . S
O87 C75 1.281 . S
O88 Mn72 2.297 . S
O88 C75 1.236 . S
N89 Mn73 2.282 1_556 S
N89 C90 1.328 . S
N89 C94 1.318 . S
C90 N89 1.328 . S
C90 C91 1.457 . S
C90 H95 0.929 . S
C91 C90 1.457 . S
C91 C92 1.291 . S
C91 H104 0.931 . S
C92 C91 1.291 . S
C92 C93 1.373 . S
C92 H105 0.929 . S
C93 C92 1.373 . S
C93 C94 1.396 . S
C93 C100 1.403 . S
C94 C84 1.476 1_556 S
C94 N89 1.318 . S
C94 C93 1.396 . S
H95 C90 0.929 . S
O96 Mn72 2.385 1_556 S
O96 C74 1.234 . S
O97 Mn72 2.209 . S
O97 Mn73 2.215 . S
O97 C74 1.283 1_554 S
O98 Mn72 2.094 . S
O98 C76 1.240 . S
O99 Mn73 2.117 . S
O99 C76 1.264 . S
C100 C93 1.403 . S
C100 C101 1.399 . S
C100 H106 0.929 . S
C101 C81 1.449 . S
C101 C100 1.399 . S
C101 H107 0.930 . S
H102 C82 0.931 . S
H103 C83 0.930 . S
H104 C91 0.931 . S
H105 C92 0.929 . S
H106 C100 0.929 . S
H107 C101 0.930 . S
Mn108 O113 2.095 . S
Mn108 O123 2.162 . S
Mn108 O124 2.297 . S
Mn108 O132 2.385 1_556 S
Mn108 O133 2.209 . S
Mn108 O134 2.094 . S
Mn109 O114 2.121 . S
Mn109 N116 2.257 . S
Mn109 N125 2.282 1_556 S
Mn109 O133 2.215 . S
Mn109 O135 2.117 . S
C110 O132 1.234 . S
C110 O133 1.283 1_554 S
C111 O123 1.281 . S
C111 O124 1.236 . S
C112 O134 1.240 . S
C112 O135 1.264 . S
O113 Mn108 2.095 . S
O113 C122 1.250 . S
O114 Mn109 2.121 . S
O114 C122 1.258 . S
C115 N116 1.326 . S
C115 C119 1.460 . S
C115 H121 0.929 . S
N116 Mn109 2.257 . S
N116 C115 1.326 . S
N116 C120 1.362 . S
C117 C118 1.258 1_554 S
C117 C120 1.431 1_554 S
C117 C137 1.449 . S
C118 C117 1.258 1_556 S
C118 C119 1.477 . S
C118 H138 0.931 . S
C119 C115 1.460 . S
C119 C118 1.477 . S
C119 H139 0.930 . S
C120 N116 1.362 . S
C120 C117 1.431 1_556 S
C120 C130 1.476 1_556 S
H121 C115 0.929 . S
C122 O113 1.250 . S
C122 O114 1.258 . S
O123 Mn108 2.162 . S
O123 C111 1.281 . S
O124 Mn108 2.297 . S
O124 C111 1.236 . S
N125 Mn109 2.282 1_554 S
N125 C126 1.328 . S
N125 C130 1.318 . S
C126 N125 1.328 . S
C126 C127 1.457 . S
C126 H131 0.929 . S
C127 C126 1.457 . S
C127 C128 1.291 . S
C127 H140 0.931 . S
C128 C127 1.291 . S
C128 C129 1.373 . S
C128 H141 0.929 . S
C129 C128 1.373 . S
C129 C130 1.396 . S
C129 C136 1.403 . S
C130 C120 1.476 1_554 S
C130 N125 1.318 . S
C130 C129 1.396 . S
H131 C126 0.929 . S
O132 Mn108 2.385 1_554 S
O132 C110 1.234 . S
O133 Mn108 2.209 . S
O133 Mn109 2.215 . S
O133 C110 1.283 1_556 S
O134 Mn108 2.094 . S
O134 C112 1.240 . S
O135 Mn109 2.117 . S
O135 C112 1.264 . S
C136 C129 1.403 . S
C136 C137 1.399 . S
C136 H142 0.929 . S
C137 C117 1.449 . S
C137 C136 1.399 . S
C137 H143 0.930 . S
H138 C118 0.931 . S
H139 C119 0.930 . S
H140 C127 0.931 . S
H141 C128 0.929 . S
H142 C136 0.929 . S
H143 C137 0.930 . S
Mn144 O149 2.095 . S
Mn144 O159 2.162 . S
Mn144 O160 2.297 . S
Mn144 O168 2.385 1_556 S
Mn144 O169 2.209 . S
Mn144 O170 2.094 . S
Mn145 O150 2.121 . S
Mn145 N152 2.257 . S
Mn145 N161 2.282 1_556 S
Mn145 O169 2.215 . S
Mn145 O171 2.117 . S
C146 O168 1.234 . S
C146 O169 1.283 1_554 S
C147 O159 1.281 . S
C147 O160 1.236 . S
C148 O170 1.240 . S
C148 O171 1.264 . S
O149 Mn144 2.095 . S
O149 C158 1.250 . S
O150 Mn145 2.121 . S
O150 C158 1.258 . S
C151 N152 1.326 . S
C151 C155 1.460 . S
C151 H157 0.929 . S
N152 Mn145 2.257 . S
N152 C151 1.326 . S
N152 C156 1.362 . S
C153 C154 1.258 1_554 S
C153 C156 1.431 1_554 S
C153 C173 1.449 . S
C154 C153 1.258 1_556 S
C154 C155 1.477 . S
C154 H174 0.931 . S
C155 C151 1.460 . S
C155 C154 1.477 . S
C155 H175 0.930 . S
C156 N152 1.362 . S
C156 C153 1.431 1_556 S
C156 C166 1.476 1_556 S
H157 C151 0.929 . S
C158 O149 1.250 . S
C158 O150 1.258 . S
O159 Mn144 2.162 . S
O159 C147 1.281 . S
O160 Mn144 2.297 . S
O160 C147 1.236 . S
N161 Mn145 2.282 1_554 S
N161 C162 1.328 . S
N161 C166 1.318 . S
C162 N161 1.328 . S
C162 C163 1.457 . S
C162 H167 0.929 . S
C163 C162 1.457 . S
C163 C164 1.291 . S
C163 H176 0.931 . S
C164 C163 1.291 . S
C164 C165 1.373 . S
C164 H177 0.929 . S
C165 C164 1.373 . S
C165 C166 1.396 . S
C165 C172 1.403 . S
C166 C156 1.476 1_554 S
C166 N161 1.318 . S
C166 C165 1.396 . S
H167 C162 0.929 . S
O168 Mn144 2.385 1_554 S
O168 C146 1.234 . S
O169 Mn144 2.209 . S
O169 Mn145 2.215 . S
O169 C146 1.283 1_556 S
O170 Mn144 2.094 . S
O170 C148 1.240 . S
O171 Mn145 2.117 . S
O171 C148 1.264 . S
C172 C165 1.403 . S
C172 C173 1.399 . S
C172 H178 0.929 . S
C173 C153 1.449 . S
C173 C172 1.399 . S
C173 H179 0.930 . S
H174 C154 0.931 . S
H175 C155 0.930 . S
H176 C163 0.931 . S
H177 C164 0.929 . S
H178 C172 0.929 . S
H179 C173 0.930 . S
Mn180 O185 2.095 . S
Mn180 O195 2.162 . S
Mn180 O196 2.297 . S
Mn180 O204 2.385 1_556 S
Mn180 O205 2.209 . S
Mn180 O206 2.094 . S
Mn181 O186 2.121 . S
Mn181 N188 2.257 . S
Mn181 N197 2.282 1_556 S
Mn181 O205 2.215 . S
Mn181 O207 2.117 . S
C182 O204 1.234 . S
C182 O205 1.283 1_554 S
C183 O195 1.281 . S
C183 O196 1.236 . S
C184 O206 1.240 . S
C184 O207 1.264 . S
O185 Mn180 2.095 . S
O185 C194 1.250 . S
O186 Mn181 2.121 . S
O186 C194 1.258 . S
C187 N188 1.326 . S
C187 C191 1.460 . S
C187 H193 0.929 . S
N188 Mn181 2.257 . S
N188 C187 1.326 . S
N188 C192 1.362 . S
C189 C190 1.258 1_554 S
C189 C192 1.431 1_554 S
C189 C209 1.449 . S
C190 C189 1.258 1_556 S
C190 C191 1.477 . S
C190 H210 0.931 . S
C191 C187 1.460 . S
C191 C190 1.477 . S
C191 H211 0.930 . S
C192 N188 1.362 . S
C192 C189 1.431 1_556 S
C192 C202 1.476 1_556 S
H193 C187 0.929 . S
C194 O185 1.250 . S
C194 O186 1.258 . S
O195 Mn180 2.162 . S
O195 C183 1.281 . S
O196 Mn180 2.297 . S
O196 C183 1.236 . S
N197 Mn181 2.282 1_554 S
N197 C198 1.328 . S
N197 C202 1.318 . S
C198 N197 1.328 . S
C198 C199 1.457 . S
C198 H203 0.929 . S
C199 C198 1.457 . S
C199 C200 1.291 . S
C199 H212 0.931 . S
C200 C199 1.291 . S
C200 C201 1.373 . S
C200 H213 0.929 . S
C201 C200 1.373 . S
C201 C202 1.396 . S
C201 C208 1.403 . S
C202 C192 1.476 1_554 S
C202 N197 1.318 . S
C202 C201 1.396 . S
H203 C198 0.929 . S
O204 Mn180 2.385 1_554 S
O204 C182 1.234 . S
O205 Mn180 2.209 . S
O205 Mn181 2.215 . S
O205 C182 1.283 1_556 S
O206 Mn180 2.094 . S
O206 C184 1.240 . S
O207 Mn181 2.117 . S
O207 C184 1.264 . S
C208 C201 1.403 . S
C208 C209 1.399 . S
C208 H214 0.929 . S
C209 C189 1.449 . S
C209 C208 1.399 . S
C209 H215 0.930 . S
H210 C190 0.931 . S
H211 C191 0.930 . S
H212 C199 0.931 . S
H213 C200 0.929 . S
H214 C208 0.929 . S
H215 C209 0.930 . S
Mn216 O221 2.095 . S
Mn216 O231 2.162 . S
Mn216 O232 2.297 . S
Mn216 O240 2.385 1_556 S
Mn216 O241 2.209 . S
Mn216 O242 2.094 . S
Mn217 O222 2.121 . S
Mn217 N224 2.257 . S
Mn217 N233 2.282 1_556 S
Mn217 O241 2.215 . S
Mn217 O243 2.117 . S
C218 O240 1.234 . S
C218 O241 1.283 1_554 S
C219 O231 1.281 . S
C219 O232 1.236 . S
C220 O242 1.240 . S
C220 O243 1.264 . S
O221 Mn216 2.095 . S
O221 C230 1.250 . S
O222 Mn217 2.121 . S
O222 C230 1.258 . S
C223 N224 1.326 . S
C223 C227 1.460 . S
C223 H229 0.929 . S
N224 Mn217 2.257 . S
N224 C223 1.326 . S
N224 C228 1.362 . S
C225 C226 1.258 1_554 S
C225 C228 1.431 1_554 S
C225 C245 1.449 . S
C226 C225 1.258 1_556 S
C226 C227 1.477 . S
C226 H246 0.931 . S
C227 C223 1.460 . S
C227 C226 1.477 . S
C227 H247 0.930 . S
C228 N224 1.362 . S
C228 C225 1.431 1_556 S
C228 C238 1.476 1_556 S
H229 C223 0.929 . S
C230 O221 1.250 . S
C230 O222 1.258 . S
O231 Mn216 2.162 . S
O231 C219 1.281 . S
O232 Mn216 2.297 . S
O232 C219 1.236 . S
N233 Mn217 2.282 1_554 S
N233 C234 1.328 . S
N233 C238 1.318 . S
C234 N233 1.328 . S
C234 C235 1.457 . S
C234 H239 0.929 . S
C235 C234 1.457 . S
C235 C236 1.291 . S
C235 H248 0.931 . S
C236 C235 1.291 . S
C236 C237 1.373 . S
C236 H249 0.929 . S
C237 C236 1.373 . S
C237 C238 1.396 . S
C237 C244 1.403 . S
C238 C228 1.476 1_554 S
C238 N233 1.318 . S
C238 C237 1.396 . S
H239 C234 0.929 . S
O240 Mn216 2.385 1_554 S
O240 C218 1.234 . S
O241 Mn216 2.209 . S
O241 Mn217 2.215 . S
O241 C218 1.283 1_556 S
O242 Mn216 2.094 . S
O242 C220 1.240 . S
O243 Mn217 2.117 . S
O243 C220 1.264 . S
C244 C237 1.403 . S
C244 C245 1.399 . S
C244 H250 0.929 . S
C245 C225 1.449 . S
C245 C244 1.399 . S
C245 H251 0.930 . S
H246 C226 0.931 . S
H247 C227 0.930 . S
H248 C235 0.931 . S
H249 C236 0.929 . S
H250 C244 0.929 . S
H251 C245 0.930 . S
Mn252 O257 2.095 . S
Mn252 O267 2.162 . S
Mn252 O268 2.297 . S
Mn252 O276 2.385 1_556 S
Mn252 O277 2.209 . S
Mn252 O278 2.094 . S
Mn253 O258 2.121 . S
Mn253 N260 2.257 . S
Mn253 N269 2.282 1_556 S
Mn253 O277 2.215 . S
Mn253 O279 2.117 . S
C254 O276 1.234 . S
C254 O277 1.283 1_554 S
C255 O267 1.281 . S
C255 O268 1.236 . S
C256 O278 1.240 . S
C256 O279 1.264 . S
O257 Mn252 2.095 . S
O257 C266 1.250 . S
O258 Mn253 2.121 . S
O258 C266 1.258 . S
C259 N260 1.326 . S
C259 C263 1.460 . S
C259 H265 0.929 . S
N260 Mn253 2.257 . S
N260 C259 1.326 . S
N260 C264 1.362 . S
C261 C262 1.258 1_554 S
C261 C264 1.431 1_554 S
C261 C281 1.449 . S
C262 C261 1.258 1_556 S
C262 C263 1.477 . S
C262 H282 0.931 . S
C263 C259 1.460 . S
C263 C262 1.477 . S
C263 H283 0.930 . S
C264 N260 1.362 . S
C264 C261 1.431 1_556 S
C264 C274 1.476 1_556 S
H265 C259 0.929 . S
C266 O257 1.250 . S
C266 O258 1.258 . S
O267 Mn252 2.162 . S
O267 C255 1.281 . S
O268 Mn252 2.297 . S
O268 C255 1.236 . S
N269 Mn253 2.282 1_554 S
N269 C270 1.328 . S
N269 C274 1.318 . S
C270 N269 1.328 . S
C270 C271 1.457 . S
C270 H275 0.929 . S
C271 C270 1.457 . S
C271 C272 1.291 . S
C271 H284 0.931 . S
C272 C271 1.291 . S
C272 C273 1.373 . S
C272 H285 0.929 . S
C273 C272 1.373 . S
C273 C274 1.396 . S
C273 C280 1.403 . S
C274 C264 1.476 1_554 S
C274 N269 1.318 . S
C274 C273 1.396 . S
H275 C270 0.929 . S
O276 Mn252 2.385 1_554 S
O276 C254 1.234 . S
O277 Mn252 2.209 . S
O277 Mn253 2.215 . S
O277 C254 1.283 1_556 S
O278 Mn252 2.094 . S
O278 C256 1.240 . S
O279 Mn253 2.117 . S
O279 C256 1.264 . S
C280 C273 1.403 . S
C280 C281 1.399 . S
C280 H286 0.929 . S
C281 C261 1.449 . S
C281 C280 1.399 . S
C281 H287 0.930 . S
H282 C262 0.931 . S
H283 C263 0.930 . S
H284 C271 0.931 . S
H285 C272 0.929 . S
H286 C280 0.929 . S
H287 C281 0.930 . S
Mn288 O293 2.095 . S
Mn288 O303 2.162 . S
Mn288 O304 2.297 . S
Mn288 O312 2.385 1_556 S
Mn288 O313 2.209 . S
Mn288 O314 2.094 . S
Mn289 O294 2.121 . S
Mn289 N296 2.257 . S
Mn289 N305 2.282 1_556 S
Mn289 O313 2.215 . S
Mn289 O315 2.117 . S
C290 O312 1.234 . S
C290 O313 1.283 1_554 S
C291 O303 1.281 . S
C291 O304 1.236 . S
C292 O314 1.240 . S
C292 O315 1.264 . S
O293 Mn288 2.095 . S
O293 C302 1.250 . S
O294 Mn289 2.121 . S
O294 C302 1.258 . S
C295 N296 1.326 . S
C295 C299 1.460 . S
C295 H301 0.929 . S
N296 Mn289 2.257 . S
N296 C295 1.326 . S
N296 C300 1.362 . S
C297 C298 1.258 1_554 S
C297 C300 1.431 1_554 S
C297 C317 1.449 . S
C298 C297 1.258 1_556 S
C298 C299 1.477 . S
C298 H318 0.931 . S
C299 C295 1.460 . S
C299 C298 1.477 . S
C299 H319 0.930 . S
C300 N296 1.362 . S
C300 C297 1.431 1_556 S
C300 C310 1.476 1_556 S
H301 C295 0.929 . S
C302 O293 1.250 . S
C302 O294 1.258 . S
O303 Mn288 2.162 . S
O303 C291 1.281 . S
O304 Mn288 2.297 . S
O304 C291 1.236 . S
N305 Mn289 2.282 1_554 S
N305 C306 1.328 . S
N305 C310 1.318 . S
C306 N305 1.328 . S
C306 C307 1.457 . S
C306 H311 0.929 . S
C307 C306 1.457 . S
C307 C308 1.291 . S
C307 H320 0.931 . S
C308 C307 1.291 . S
C308 C309 1.373 . S
C308 H321 0.929 . S
C309 C308 1.373 . S
C309 C310 1.396 . S
C309 C316 1.403 . S
C310 C300 1.476 1_554 S
C310 N305 1.318 . S
C310 C309 1.396 . S
H311 C306 0.929 . S
O312 Mn288 2.385 1_554 S
O312 C290 1.234 . S
O313 Mn288 2.209 . S
O313 Mn289 2.215 . S
O313 C290 1.283 1_556 S
O314 Mn288 2.094 . S
O314 C292 1.240 . S
O315 Mn289 2.117 . S
O315 C292 1.264 . S
C316 C309 1.403 . S
C316 C317 1.399 . S
C316 H322 0.929 . S
C317 C297 1.449 . S
C317 C316 1.399 . S
C317 H323 0.930 . S
H318 C298 0.931 . S
H319 C299 0.930 . S
H320 C307 0.931 . S
H321 C308 0.929 . S
H322 C316 0.929 . S
H323 C317 0.930 . S
Mn324 O329 2.095 . S
Mn324 O339 2.162 . S
Mn324 O340 2.297 . S
Mn324 O348 2.385 1_554 S
Mn324 O349 2.209 . S
Mn324 O350 2.094 . S
Mn325 O330 2.121 . S
Mn325 N332 2.257 . S
Mn325 N341 2.282 1_554 S
Mn325 O349 2.215 . S
Mn325 O351 2.117 . S
C326 O348 1.234 . S
C326 O349 1.283 1_556 S
C327 O339 1.281 . S
C327 O340 1.236 . S
C328 O350 1.240 . S
C328 O351 1.264 . S
O329 Mn324 2.095 . S
O329 C338 1.250 . S
O330 Mn325 2.121 . S
O330 C338 1.258 . S
C331 N332 1.326 . S
C331 C335 1.460 . S
C331 H337 0.929 . S
N332 Mn325 2.257 . S
N332 C331 1.326 . S
N332 C336 1.362 . S
C333 C334 1.258 1_556 S
C333 C336 1.431 1_556 S
C333 C353 1.449 . S
C334 C333 1.258 1_554 S
C334 C335 1.477 . S
C334 H354 0.931 . S
C335 C331 1.460 . S
C335 C334 1.477 . S
C335 H355 0.930 . S
C336 N332 1.362 . S
C336 C333 1.431 1_554 S
C336 C346 1.476 1_554 S
H337 C331 0.929 . S
C338 O329 1.250 . S
C338 O330 1.258 . S
O339 Mn324 2.162 . S
O339 C327 1.281 . S
O340 Mn324 2.297 . S
O340 C327 1.236 . S
N341 Mn325 2.282 1_556 S
N341 C342 1.328 . S
N341 C346 1.318 . S
C342 N341 1.328 . S
C342 C343 1.457 . S
C342 H347 0.929 . S
C343 C342 1.457 . S
C343 C344 1.291 . S
C343 H356 0.931 . S
C344 C343 1.291 . S
C344 C345 1.373 . S
C344 H357 0.929 . S
C345 C344 1.373 . S
C345 C346 1.396 . S
C345 C352 1.403 . S
C346 C336 1.476 1_556 S
C346 N341 1.318 . S
C346 C345 1.396 . S
H347 C342 0.929 . S
O348 Mn324 2.385 1_556 S
O348 C326 1.234 . S
O349 Mn324 2.209 . S
O349 Mn325 2.215 . S
O349 C326 1.283 1_554 S
O350 Mn324 2.094 . S
O350 C328 1.240 . S
O351 Mn325 2.117 . S
O351 C328 1.264 . S
C352 C345 1.403 . S
C352 C353 1.399 . S
C352 H358 0.929 . S
C353 C333 1.449 . S
C353 C352 1.399 . S
C353 H359 0.930 . S
H354 C334 0.931 . S
H355 C335 0.930 . S
H356 C343 0.931 . S
H357 C344 0.929 . S
H358 C352 0.929 . S
H359 C353 0.930 . S
Mn360 O365 2.095 . S
Mn360 O375 2.162 . S
Mn360 O376 2.297 . S
Mn360 O384 2.385 1_554 S
Mn360 O385 2.209 . S
Mn360 O386 2.094 . S
Mn361 O366 2.121 . S
Mn361 N368 2.257 . S
Mn361 N377 2.282 1_554 S
Mn361 O385 2.215 . S
Mn361 O387 2.117 . S
C362 O384 1.234 . S
C362 O385 1.283 1_556 S
C363 O375 1.281 . S
C363 O376 1.236 . S
C364 O386 1.240 . S
C364 O387 1.264 . S
O365 Mn360 2.095 . S
O365 C374 1.250 . S
O366 Mn361 2.121 . S
O366 C374 1.258 . S
C367 N368 1.326 . S
C367 C371 1.460 . S
C367 H373 0.929 . S
N368 Mn361 2.257 . S
N368 C367 1.326 . S
N368 C372 1.362 . S
C369 C370 1.258 1_556 S
C369 C372 1.431 1_556 S
C369 C389 1.449 . S
C370 C369 1.258 1_554 S
C370 C371 1.477 . S
C370 H390 0.931 . S
C371 C367 1.460 . S
C371 C370 1.477 . S
C371 H391 0.930 . S
C372 N368 1.362 . S
C372 C369 1.431 1_554 S
C372 C382 1.476 1_554 S
H373 C367 0.929 . S
C374 O365 1.250 . S
C374 O366 1.258 . S
O375 Mn360 2.162 . S
O375 C363 1.281 . S
O376 Mn360 2.297 . S
O376 C363 1.236 . S
N377 Mn361 2.282 1_556 S
N377 C378 1.328 . S
N377 C382 1.318 . S
C378 N377 1.328 . S
C378 C379 1.457 . S
C378 H383 0.929 . S
C379 C378 1.457 . S
C379 C380 1.291 . S
C379 H392 0.931 . S
C380 C379 1.291 . S
C380 C381 1.373 . S
C380 H393 0.929 . S
C381 C380 1.373 . S
C381 C382 1.396 . S
C381 C388 1.403 . S
C382 C372 1.476 1_556 S
C382 N377 1.318 . S
C382 C381 1.396 . S
H383 C378 0.929 . S
O384 Mn360 2.385 1_556 S
O384 C362 1.234 . S
O385 Mn360 2.209 . S
O385 Mn361 2.215 . S
O385 C362 1.283 1_554 S
O386 Mn360 2.094 . S
O386 C364 1.240 . S
O387 Mn361 2.117 . S
O387 C364 1.264 . S
C388 C381 1.403 . S
C388 C389 1.399 . S
C388 H394 0.929 . S
C389 C369 1.449 . S
C389 C388 1.399 . S
C389 H395 0.930 . S
H390 C370 0.931 . S
H391 C371 0.930 . S
H392 C379 0.931 . S
H393 C380 0.929 . S
H394 C388 0.929 . S
H395 C389 0.930 . S
Mn396 O401 2.095 . S
Mn396 O411 2.162 . S
Mn396 O412 2.297 . S
Mn396 O420 2.385 1_554 S
Mn396 O421 2.209 . S
Mn396 O422 2.094 . S
Mn397 O402 2.121 . S
Mn397 N404 2.257 . S
Mn397 N413 2.282 1_554 S
Mn397 O421 2.215 . S
Mn397 O423 2.117 . S
C398 O420 1.234 . S
C398 O421 1.283 1_556 S
C399 O411 1.281 . S
C399 O412 1.236 . S
C400 O422 1.240 . S
C400 O423 1.264 . S
O401 Mn396 2.095 . S
O401 C410 1.250 . S
O402 Mn397 2.121 . S
O402 C410 1.258 . S
C403 N404 1.326 . S
C403 C407 1.460 . S
C403 H409 0.929 . S
N404 Mn397 2.257 . S
N404 C403 1.326 . S
N404 C408 1.362 . S
C405 C406 1.258 1_556 S
C405 C408 1.431 1_556 S
C405 C425 1.449 . S
C406 C405 1.258 1_554 S
C406 C407 1.477 . S
C406 H426 0.931 . S
C407 C403 1.460 . S
C407 C406 1.477 . S
C407 H427 0.930 . S
C408 N404 1.362 . S
C408 C405 1.431 1_554 S
C408 C418 1.476 1_554 S
H409 C403 0.929 . S
C410 O401 1.250 . S
C410 O402 1.258 . S
O411 Mn396 2.162 . S
O411 C399 1.281 . S
O412 Mn396 2.297 . S
O412 C399 1.236 . S
N413 Mn397 2.282 1_556 S
N413 C414 1.328 . S
N413 C418 1.318 . S
C414 N413 1.328 . S
C414 C415 1.457 . S
C414 H419 0.929 . S
C415 C414 1.457 . S
C415 C416 1.291 . S
C415 H428 0.931 . S
C416 C415 1.291 . S
C416 C417 1.373 . S
C416 H429 0.929 . S
C417 C416 1.373 . S
C417 C418 1.396 . S
C417 C424 1.403 . S
C418 C408 1.476 1_556 S
C418 N413 1.318 . S
C418 C417 1.396 . S
H419 C414 0.929 . S
O420 Mn396 2.385 1_556 S
O420 C398 1.234 . S
O421 Mn396 2.209 . S
O421 Mn397 2.215 . S
O421 C398 1.283 1_554 S
O422 Mn396 2.094 . S
O422 C400 1.240 . S
O423 Mn397 2.117 . S
O423 C400 1.264 . S
C424 C417 1.403 . S
C424 C425 1.399 . S
C424 H430 0.929 . S
C425 C405 1.449 . S
C425 C424 1.399 . S
C425 H431 0.930 . S
H426 C406 0.931 . S
H427 C407 0.930 . S
H428 C415 0.931 . S
H429 C416 0.929 . S
H430 C424 0.929 . S
H431 C425 0.930 . S
Mn432 O437 2.095 . S
Mn432 O447 2.162 . S
Mn432 O448 2.297 . S
Mn432 O456 2.385 . S
Mn432 O457 2.209 . S
Mn432 O458 2.094 . S
Mn433 O438 2.121 . S
Mn433 N440 2.257 . S
Mn433 N449 2.282 . S
Mn433 O457 2.215 . S
Mn433 O459 2.117 . S
C434 O456 1.234 . S
C434 O457 1.283 . S
C435 O447 1.281 . S
C435 O448 1.236 . S
C436 O458 1.240 . S
C436 O459 1.264 . S
O437 Mn432 2.095 . S
O437 C446 1.250 . S
O438 Mn433 2.121 . S
O438 C446 1.258 . S
C439 N440 1.326 . S
C439 C443 1.460 . S
C439 H445 0.929 . S
N440 Mn433 2.257 . S
N440 C439 1.326 . S
N440 C444 1.362 . S
C441 C442 1.258 . S
C441 C444 1.431 . S
C441 C461 1.449 . S
C442 C441 1.258 . S
C442 C443 1.477 . S
C442 H462 0.931 . S
C443 C439 1.460 . S
C443 C442 1.477 . S
C443 H463 0.930 . S
C444 N440 1.362 . S
C444 C441 1.431 . S
C444 C454 1.476 . S
H445 C439 0.929 . S
C446 O437 1.250 . S
C446 O438 1.258 . S
O447 Mn432 2.162 . S
O447 C435 1.281 . S
O448 Mn432 2.297 . S
O448 C435 1.236 . S
N449 Mn433 2.282 . S
N449 C450 1.328 . S
N449 C454 1.318 . S
C450 N449 1.328 . S
C450 C451 1.457 . S
C450 H455 0.929 . S
C451 C450 1.457 . S
C451 C452 1.291 . S
C451 H464 0.931 . S
C452 C451 1.291 . S
C452 C453 1.373 . S
C452 H465 0.929 . S
C453 C452 1.373 . S
C453 C454 1.396 . S
C453 C460 1.403 . S
C454 C444 1.476 . S
C454 N449 1.318 . S
C454 C453 1.396 . S
H455 C450 0.929 . S
O456 Mn432 2.385 . S
O456 C434 1.234 . S
O457 Mn432 2.209 . S
O457 Mn433 2.215 . S
O457 C434 1.283 . S
O458 Mn432 2.094 . S
O458 C436 1.240 . S
O459 Mn433 2.117 . S
O459 C436 1.264 . S
C460 C453 1.403 . S
C460 C461 1.399 . S
C460 H466 0.929 . S
C461 C441 1.449 . S
C461 C460 1.399 . S
C461 H467 0.930 . S
H462 C442 0.931 . S
H463 C443 0.930 . S
H464 C451 0.931 . S
H465 C452 0.929 . S
H466 C460 0.929 . S
H467 C461 0.930 . S
Mn468 O473 2.095 . S
Mn468 O483 2.162 . S
Mn468 O484 2.297 . S
Mn468 O492 2.385 . S
Mn468 O493 2.209 . S
Mn468 O494 2.094 . S
Mn469 O474 2.121 . S
Mn469 N476 2.257 . S
Mn469 N485 2.282 . S
Mn469 O493 2.215 . S
Mn469 O495 2.117 . S
C470 O492 1.234 . S
C470 O493 1.283 . S
C471 O483 1.281 . S
C471 O484 1.236 . S
C472 O494 1.240 . S
C472 O495 1.264 . S
O473 Mn468 2.095 . S
O473 C482 1.250 . S
O474 Mn469 2.121 . S
O474 C482 1.258 . S
C475 N476 1.326 . S
C475 C479 1.460 . S
C475 H481 0.929 . S
N476 Mn469 2.257 . S
N476 C475 1.326 . S
N476 C480 1.362 . S
C477 C478 1.258 . S
C477 C480 1.431 . S
C477 C497 1.449 . S
C478 C477 1.258 . S
C478 C479 1.477 . S
C478 H498 0.931 . S
C479 C475 1.460 . S
C479 C478 1.477 . S
C479 H499 0.930 . S
C480 N476 1.362 . S
C480 C477 1.431 . S
C480 C490 1.476 . S
H481 C475 0.929 . S
C482 O473 1.250 . S
C482 O474 1.258 . S
O483 Mn468 2.162 . S
O483 C471 1.281 . S
O484 Mn468 2.297 . S
O484 C471 1.236 . S
N485 Mn469 2.282 . S
N485 C486 1.328 . S
N485 C490 1.318 . S
C486 N485 1.328 . S
C486 C487 1.457 . S
C486 H491 0.929 . S
C487 C486 1.457 . S
C487 C488 1.291 . S
C487 H500 0.931 . S
C488 C487 1.291 . S
C488 C489 1.373 . S
C488 H501 0.929 . S
C489 C488 1.373 . S
C489 C490 1.396 . S
C489 C496 1.403 . S
C490 C480 1.476 . S
C490 N485 1.318 . S
C490 C489 1.396 . S
H491 C486 0.929 . S
O492 Mn468 2.385 . S
O492 C470 1.234 . S
O493 Mn468 2.209 . S
O493 Mn469 2.215 . S
O493 C470 1.283 . S
O494 Mn468 2.094 . S
O494 C472 1.240 . S
O495 Mn469 2.117 . S
O495 C472 1.264 . S
C496 C489 1.403 . S
C496 C497 1.399 . S
C496 H502 0.929 . S
C497 C477 1.449 . S
C497 C496 1.399 . S
C497 H503 0.930 . S
H498 C478 0.931 . S
H499 C479 0.930 . S
H500 C487 0.931 . S
H501 C488 0.929 . S
H502 C496 0.929 . S
H503 C497 0.930 . S
Mn504 O509 2.095 . S
Mn504 O519 2.162 . S
Mn504 O520 2.297 . S
Mn504 O528 2.385 . S
Mn504 O529 2.209 . S
Mn504 O530 2.094 . S
Mn505 O510 2.121 . S
Mn505 N512 2.257 . S
Mn505 N521 2.282 . S
Mn505 O529 2.215 . S
Mn505 O531 2.117 . S
C506 O528 1.234 . S
C506 O529 1.283 . S
C507 O519 1.281 . S
C507 O520 1.236 . S
C508 O530 1.240 . S
C508 O531 1.264 . S
O509 Mn504 2.095 . S
O509 C518 1.250 . S
O510 Mn505 2.121 . S
O510 C518 1.258 . S
C511 N512 1.326 . S
C511 C515 1.460 . S
C511 H517 0.929 . S
N512 Mn505 2.257 . S
N512 C511 1.326 . S
N512 C516 1.362 . S
C513 C514 1.258 . S
C513 C516 1.431 . S
C513 C533 1.449 . S
C514 C513 1.258 . S
C514 C515 1.477 . S
C514 H534 0.931 . S
C515 C511 1.460 . S
C515 C514 1.477 . S
C515 H535 0.930 . S
C516 N512 1.362 . S
C516 C513 1.431 . S
C516 C526 1.476 . S
H517 C511 0.929 . S
C518 O509 1.250 . S
C518 O510 1.258 . S
O519 Mn504 2.162 . S
O519 C507 1.281 . S
O520 Mn504 2.297 . S
O520 C507 1.236 . S
N521 Mn505 2.282 . S
N521 C522 1.328 . S
N521 C526 1.318 . S
C522 N521 1.328 . S
C522 C523 1.457 . S
C522 H527 0.929 . S
C523 C522 1.457 . S
C523 C524 1.291 . S
C523 H536 0.931 . S
C524 C523 1.291 . S
C524 C525 1.373 . S
C524 H537 0.929 . S
C525 C524 1.373 . S
C525 C526 1.396 . S
C525 C532 1.403 . S
C526 C516 1.476 . S
C526 N521 1.318 . S
C526 C525 1.396 . S
H527 C522 0.929 . S
O528 Mn504 2.385 . S
O528 C506 1.234 . S
O529 Mn504 2.209 . S
O529 Mn505 2.215 . S
O529 C506 1.283 . S
O530 Mn504 2.094 . S
O530 C508 1.240 . S
O531 Mn505 2.117 . S
O531 C508 1.264 . S
C532 C525 1.403 . S
C532 C533 1.399 . S
C532 H538 0.929 . S
C533 C513 1.449 . S
C533 C532 1.399 . S
C533 H539 0.930 . S
H534 C514 0.931 . S
H535 C515 0.930 . S
H536 C523 0.931 . S
H537 C524 0.929 . S
H538 C532 0.929 . S
H539 C533 0.930 . S
Mn540 O545 2.095 . S
Mn540 O555 2.162 . S
Mn540 O556 2.297 . S
Mn540 O564 2.385 . S
Mn540 O565 2.209 . S
Mn540 O566 2.094 . S
Mn541 O546 2.121 . S
Mn541 N548 2.257 1_655 S
Mn541 N557 2.282 . S
Mn541 O565 2.215 . S
Mn541 O567 2.117 . S
C542 O564 1.234 . S
C542 O565 1.283 . S
C543 O555 1.281 . S
C543 O556 1.236 . S
C544 O566 1.240 . S
C544 O567 1.264 . S
O545 Mn540 2.095 . S
O545 C554 1.250 . S
O546 Mn541 2.121 . S
O546 C554 1.258 . S
C547 N548 1.326 . S
C547 C551 1.460 . S
C547 H553 0.929 . S
N548 Mn541 2.257 1_455 S
N548 C547 1.326 . S
N548 C552 1.362 . S
C549 C550 1.258 . S
C549 C552 1.431 . S
C549 C569 1.449 . S
C550 C549 1.258 . S
C550 C551 1.477 . S
C550 H570 0.931 . S
C551 C547 1.460 . S
C551 C550 1.477 . S
C551 H571 0.930 . S
C552 N548 1.362 . S
C552 C549 1.431 . S
C552 C562 1.476 . S
H553 C547 0.929 . S
C554 O545 1.250 . S
C554 O546 1.258 . S
O555 Mn540 2.162 . S
O555 C543 1.281 . S
O556 Mn540 2.297 . S
O556 C543 1.236 . S
N557 Mn541 2.282 . S
N557 C558 1.328 . S
N557 C562 1.318 1_655 S
C558 N557 1.328 . S
C558 C559 1.457 . S
C558 H563 0.929 . S
C559 C558 1.457 . S
C559 C560 1.291 1_655 S
C559 H572 0.931 . S
C560 C559 1.291 1_455 S
C560 C561 1.373 . S
C560 H573 0.929 . S
C561 C560 1.373 . S
C561 C562 1.396 . S
C561 C568 1.403 . S
C562 C552 1.476 . S
C562 N557 1.318 1_455 S
C562 C561 1.396 . S
H563 C558 0.929 . S
O564 Mn540 2.385 . S
O564 C542 1.234 . S
O565 Mn540 2.209 . S
O565 Mn541 2.215 . S
O565 C542 1.283 . S
O566 Mn540 2.094 . S
O566 C544 1.240 . S
O567 Mn541 2.117 . S
O567 C544 1.264 . S
C568 C561 1.403 . S
C568 C569 1.399 . S
C568 H574 0.929 . S
C569 C549 1.449 . S
C569 C568 1.399 . S
C569 H575 0.930 . S
H570 C550 0.931 . S
H571 C551 0.930 . S
H572 C559 0.931 . S
H573 C560 0.929 . S
H574 C568 0.929 . S
H575 C569 0.930 . S
Mn576 O581 2.095 . S
Mn576 O591 2.162 . S
Mn576 O592 2.297 . S
Mn576 O600 2.385 . S
Mn576 O601 2.209 . S
Mn576 O602 2.094 . S
Mn577 O582 2.121 . S
Mn577 N584 2.257 . S
Mn577 N593 2.282 . S
Mn577 O601 2.215 . S
Mn577 O603 2.117 . S
C578 O600 1.234 . S
C578 O601 1.283 . S
C579 O591 1.281 . S
C579 O592 1.236 . S
C580 O602 1.240 . S
C580 O603 1.264 . S
O581 Mn576 2.095 . S
O581 C590 1.250 . S
O582 Mn577 2.121 . S
O582 C590 1.258 . S
C583 N584 1.326 . S
C583 C587 1.460 . S
C583 H589 0.929 . S
N584 Mn577 2.257 . S
N584 C583 1.326 . S
N584 C588 1.362 . S
C585 C586 1.258 . S
C585 C588 1.431 . S
C585 C605 1.449 . S
C586 C585 1.258 . S
C586 C587 1.477 . S
C586 H606 0.931 . S
C587 C583 1.460 . S
C587 C586 1.477 . S
C587 H607 0.930 . S
C588 N584 1.362 . S
C588 C585 1.431 . S
C588 C598 1.476 . S
H589 C583 0.929 . S
C590 O581 1.250 . S
C590 O582 1.258 . S
O591 Mn576 2.162 . S
O591 C579 1.281 . S
O592 Mn576 2.297 . S
O592 C579 1.236 . S
N593 Mn577 2.282 . S
N593 C594 1.328 . S
N593 C598 1.318 . S
C594 N593 1.328 . S
C594 C595 1.457 . S
C594 H599 0.929 . S
C595 C594 1.457 . S
C595 C596 1.291 . S
C595 H608 0.931 . S
C596 C595 1.291 . S
C596 C597 1.373 . S
C596 H609 0.929 . S
C597 C596 1.373 . S
C597 C598 1.396 . S
C597 C604 1.403 . S
C598 C588 1.476 . S
C598 N593 1.318 . S
C598 C597 1.396 . S
H599 C594 0.929 . S
O600 Mn576 2.385 . S
O600 C578 1.234 . S
O601 Mn576 2.209 . S
O601 Mn577 2.215 . S
O601 C578 1.283 . S
O602 Mn576 2.094 . S
O602 C580 1.240 . S
O603 Mn577 2.117 . S
O603 C580 1.264 . S
C604 C597 1.403 . S
C604 C605 1.399 . S
C604 H610 0.929 . S
C605 C585 1.449 . S
C605 C604 1.399 . S
C605 H611 0.930 . S
H606 C586 0.931 . S
H607 C587 0.930 . S
H608 C595 0.931 . S
H609 C596 0.929 . S
H610 C604 0.929 . S
H611 C605 0.930 . S
Mn612 O617 2.095 . S
Mn612 O627 2.162 . S
Mn612 O628 2.297 . S
Mn612 O636 2.385 . S
Mn612 O637 2.209 . S
Mn612 O638 2.094 . S
Mn613 O618 2.121 . S
Mn613 N620 2.257 1_545 S
Mn613 N629 2.282 . S
Mn613 O637 2.215 . S
Mn613 O639 2.117 . S
C614 O636 1.234 . S
C614 O637 1.283 . S
C615 O627 1.281 . S
C615 O628 1.236 . S
C616 O638 1.240 . S
C616 O639 1.264 . S
O617 Mn612 2.095 . S
O617 C626 1.250 . S
O618 Mn613 2.121 . S
O618 C626 1.258 . S
C619 N620 1.326 . S
C619 C623 1.460 . S
C619 H625 0.929 . S
N620 Mn613 2.257 1_565 S
N620 C619 1.326 . S
N620 C624 1.362 . S
C621 C622 1.258 . S
C621 C624 1.431 . S
C621 C641 1.449 . S
C622 C621 1.258 . S
C622 C623 1.477 . S
C622 H642 0.931 . S
C623 C619 1.460 . S
C623 C622 1.477 . S
C623 H643 0.930 . S
C624 N620 1.362 . S
C624 C621 1.431 . S
C624 C634 1.476 . S
H625 C619 0.929 . S
C626 O617 1.250 . S
C626 O618 1.258 . S
O627 Mn612 2.162 . S
O627 C615 1.281 . S
O628 Mn612 2.297 . S
O628 C615 1.236 . S
N629 Mn613 2.282 . S
N629 C630 1.328 . S
N629 C634 1.318 1_545 S
C630 N629 1.328 . S
C630 C631 1.457 . S
C630 H635 0.929 . S
C631 C630 1.457 . S
C631 C632 1.291 1_545 S
C631 H644 0.931 . S
C632 C631 1.291 1_565 S
C632 C633 1.373 . S
C632 H645 0.929 . S
C633 C632 1.373 . S
C633 C634 1.396 . S
C633 C640 1.403 . S
C634 C624 1.476 . S
C634 N629 1.318 1_565 S
C634 C633 1.396 . S
H635 C630 0.929 . S
O636 Mn612 2.385 . S
O636 C614 1.234 . S
O637 Mn612 2.209 . S
O637 Mn613 2.215 . S
O637 C614 1.283 . S
O638 Mn612 2.094 . S
O638 C616 1.240 . S
O639 Mn613 2.117 . S
O639 C616 1.264 . S
C640 C633 1.403 . S
C640 C641 1.399 . S
C640 H646 0.929 . S
C641 C621 1.449 . S
C641 C640 1.399 . S
C641 H647 0.930 . S
H642 C622 0.931 . S
H643 C623 0.930 . S
H644 C631 0.931 . S
H645 C632 0.929 . S
H646 C640 0.929 . S
H647 C641 0.930 . S
Mn648 O653 2.095 . S
Mn648 O663 2.162 . S
Mn648 O664 2.297 . S
Mn648 O672 2.385 . S
Mn648 O673 2.209 . S
Mn648 O674 2.094 . S
Mn649 O654 2.121 . S
Mn649 N656 2.257 1_545 S
Mn649 N665 2.282 . S
Mn649 O673 2.215 . S
Mn649 O675 2.117 . S
C650 O672 1.234 . S
C650 O673 1.283 . S
C651 O663 1.281 . S
C651 O664 1.236 . S
C652 O674 1.240 . S
C652 O675 1.264 . S
O653 Mn648 2.095 . S
O653 C662 1.250 . S
O654 Mn649 2.121 . S
O654 C662 1.258 . S
C655 N656 1.326 . S
C655 C659 1.460 . S
C655 H661 0.929 . S
N656 Mn649 2.257 1_565 S
N656 C655 1.326 . S
N656 C660 1.362 . S
C657 C658 1.258 . S
C657 C660 1.431 . S
C657 C677 1.449 . S
C658 C657 1.258 . S
C658 C659 1.477 . S
C658 H678 0.931 . S
C659 C655 1.460 . S
C659 C658 1.477 . S
C659 H679 0.930 . S
C660 N656 1.362 . S
C660 C657 1.431 . S
C660 C670 1.476 . S
H661 C655 0.929 . S
C662 O653 1.250 . S
C662 O654 1.258 . S
O663 Mn648 2.162 . S
O663 C651 1.281 . S
O664 Mn648 2.297 . S
O664 C651 1.236 . S
N665 Mn649 2.282 . S
N665 C666 1.328 . S
N665 C670 1.318 1_545 S
C666 N665 1.328 . S
C666 C667 1.457 . S
C666 H671 0.929 . S
C667 C666 1.457 . S
C667 C668 1.291 1_545 S
C667 H680 0.931 . S
C668 C667 1.291 1_565 S
C668 C669 1.373 . S
C668 H681 0.929 . S
C669 C668 1.373 . S
C669 C670 1.396 . S
C669 C676 1.403 . S
C670 C660 1.476 . S
C670 N665 1.318 1_565 S
C670 C669 1.396 . S
H671 C666 0.929 . S
O672 Mn648 2.385 . S
O672 C650 1.234 . S
O673 Mn648 2.209 . S
O673 Mn649 2.215 . S
O673 C650 1.283 . S
O674 Mn648 2.094 . S
O674 C652 1.240 . S
O675 Mn649 2.117 . S
O675 C652 1.264 . S
C676 C669 1.403 . S
C676 C677 1.399 . S
C676 H682 0.929 . S
C677 C657 1.449 . S
C677 C676 1.399 . S
C677 H683 0.930 . S
H678 C658 0.931 . S
H679 C659 0.930 . S
H680 C667 0.931 . S
H681 C668 0.929 . S
H682 C676 0.929 . S
H683 C677 0.930 . S
Mn684 O689 2.095 . S
Mn684 O699 2.162 . S
Mn684 O700 2.297 . S
Mn684 O708 2.385 . S
Mn684 O709 2.209 . S
Mn684 O710 2.094 . S
Mn685 O690 2.121 . S
Mn685 N692 2.257 1_655 S
Mn685 N701 2.282 . S
Mn685 O709 2.215 . S
Mn685 O711 2.117 . S
C686 O708 1.234 . S
C686 O709 1.283 . S
C687 O699 1.281 . S
C687 O700 1.236 . S
C688 O710 1.240 . S
C688 O711 1.264 . S
O689 Mn684 2.095 . S
O689 C698 1.250 . S
O690 Mn685 2.121 . S
O690 C698 1.258 . S
C691 N692 1.326 . S
C691 C695 1.460 . S
C691 H697 0.929 . S
N692 Mn685 2.257 1_455 S
N692 C691 1.326 . S
N692 C696 1.362 . S
C693 C694 1.258 . S
C693 C696 1.431 . S
C693 C713 1.449 . S
C694 C693 1.258 . S
C694 C695 1.477 . S
C694 H714 0.931 . S
C695 C691 1.460 . S
C695 C694 1.477 . S
C695 H715 0.930 . S
C696 N692 1.362 . S
C696 C693 1.431 . S
C696 C706 1.476 . S
H697 C691 0.929 . S
C698 O689 1.250 . S
C698 O690 1.258 . S
O699 Mn684 2.162 . S
O699 C687 1.281 . S
O700 Mn684 2.297 . S
O700 C687 1.236 . S
N701 Mn685 2.282 . S
N701 C702 1.328 . S
N701 C706 1.318 1_655 S
C702 N701 1.328 . S
C702 C703 1.457 . S
C702 H707 0.929 . S
C703 C702 1.457 . S
C703 C704 1.291 1_655 S
C703 H716 0.931 . S
C704 C703 1.291 1_455 S
C704 C705 1.373 . S
C704 H717 0.929 . S
C705 C704 1.373 . S
C705 C706 1.396 . S
C705 C712 1.403 . S
C706 C696 1.476 . S
C706 N701 1.318 1_455 S
C706 C705 1.396 . S
H707 C702 0.929 . S
O708 Mn684 2.385 . S
O708 C686 1.234 . S
O709 Mn684 2.209 . S
O709 Mn685 2.215 . S
O709 C686 1.283 . S
O710 Mn684 2.094 . S
O710 C688 1.240 . S
O711 Mn685 2.117 . S
O711 C688 1.264 . S
C712 C705 1.403 . S
C712 C713 1.399 . S
C712 H718 0.929 . S
C713 C693 1.449 . S
C713 C712 1.399 . S
C713 H719 0.930 . S
H714 C694 0.931 . S
H715 C695 0.930 . S
H716 C703 0.931 . S
H717 C704 0.929 . S
H718 C712 0.929 . S
H719 C713 0.930 . S
Mn720 O725 2.095 . S
Mn720 O735 2.162 . S
Mn720 O736 2.297 . S
Mn720 O744 2.385 . S
Mn720 O745 2.209 . S
Mn720 O746 2.094 . S
Mn721 O726 2.121 . S
Mn721 N728 2.257 . S
Mn721 N737 2.282 . S
Mn721 O745 2.215 . S
Mn721 O747 2.117 . S
C722 O744 1.234 . S
C722 O745 1.283 . S
C723 O735 1.281 . S
C723 O736 1.236 . S
C724 O746 1.240 . S
C724 O747 1.264 . S
O725 Mn720 2.095 . S
O725 C734 1.250 . S
O726 Mn721 2.121 . S
O726 C734 1.258 . S
C727 N728 1.326 . S
C727 C731 1.460 . S
C727 H733 0.929 . S
N728 Mn721 2.257 . S
N728 C727 1.326 . S
N728 C732 1.362 . S
C729 C730 1.258 . S
C729 C732 1.431 . S
C729 C749 1.449 . S
C730 C729 1.258 . S
C730 C731 1.477 . S
C730 H750 0.931 . S
C731 C727 1.460 . S
C731 C730 1.477 . S
C731 H751 0.930 . S
C732 N728 1.362 . S
C732 C729 1.431 . S
C732 C742 1.476 . S
H733 C727 0.929 . S
C734 O725 1.250 . S
C734 O726 1.258 . S
O735 Mn720 2.162 . S
O735 C723 1.281 . S
O736 Mn720 2.297 . S
O736 C723 1.236 . S
N737 Mn721 2.282 . S
N737 C738 1.328 . S
N737 C742 1.318 . S
C738 N737 1.328 . S
C738 C739 1.457 . S
C738 H743 0.929 . S
C739 C738 1.457 . S
C739 C740 1.291 . S
C739 H752 0.931 . S
C740 C739 1.291 . S
C740 C741 1.373 . S
C740 H753 0.929 . S
C741 C740 1.373 . S
C741 C742 1.396 . S
C741 C748 1.403 . S
C742 C732 1.476 . S
C742 N737 1.318 . S
C742 C741 1.396 . S
H743 C738 0.929 . S
O744 Mn720 2.385 . S
O744 C722 1.234 . S
O745 Mn720 2.209 . S
O745 Mn721 2.215 . S
O745 C722 1.283 . S
O746 Mn720 2.094 . S
O746 C724 1.240 . S
O747 Mn721 2.117 . S
O747 C724 1.264 . S
C748 C741 1.403 . S
C748 C749 1.399 . S
C748 H754 0.929 . S
C749 C729 1.449 . S
C749 C748 1.399 . S
C749 H755 0.930 . S
H750 C730 0.931 . S
H751 C731 0.930 . S
H752 C739 0.931 . S
H753 C740 0.929 . S
H754 C748 0.929 . S
H755 C749 0.930 . S
Mn756 O761 2.095 . S
Mn756 O771 2.162 . S
Mn756 O772 2.297 . S
Mn756 O780 2.385 . S
Mn756 O781 2.209 . S
Mn756 O782 2.094 . S
Mn757 O762 2.121 . S
Mn757 N764 2.257 . S
Mn757 N773 2.282 . S
Mn757 O781 2.215 . S
Mn757 O783 2.117 . S
C758 O780 1.234 . S
C758 O781 1.283 . S
C759 O771 1.281 . S
C759 O772 1.236 . S
C760 O782 1.240 . S
C760 O783 1.264 . S
O761 Mn756 2.095 . S
O761 C770 1.250 . S
O762 Mn757 2.121 . S
O762 C770 1.258 . S
C763 N764 1.326 . S
C763 C767 1.460 . S
C763 H769 0.929 . S
N764 Mn757 2.257 . S
N764 C763 1.326 . S
N764 C768 1.362 . S
C765 C766 1.258 . S
C765 C768 1.431 . S
C765 C785 1.449 . S
C766 C765 1.258 . S
C766 C767 1.477 . S
C766 H786 0.931 . S
C767 C763 1.460 . S
C767 C766 1.477 . S
C767 H787 0.930 . S
C768 N764 1.362 . S
C768 C765 1.431 . S
C768 C778 1.476 . S
H769 C763 0.929 . S
C770 O761 1.250 . S
C770 O762 1.258 . S
O771 Mn756 2.162 . S
O771 C759 1.281 . S
O772 Mn756 2.297 . S
O772 C759 1.236 . S
N773 Mn757 2.282 . S
N773 C774 1.328 . S
N773 C778 1.318 . S
C774 N773 1.328 . S
C774 C775 1.457 . S
C774 H779 0.929 . S
C775 C774 1.457 . S
C775 C776 1.291 . S
C775 H788 0.931 . S
C776 C775 1.291 . S
C776 C777 1.373 . S
C776 H789 0.929 . S
C777 C776 1.373 . S
C777 C778 1.396 . S
C777 C784 1.403 . S
C778 C768 1.476 . S
C778 N773 1.318 . S
C778 C777 1.396 . S
H779 C774 0.929 . S
O780 Mn756 2.385 . S
O780 C758 1.234 . S
O781 Mn756 2.209 . S
O781 Mn757 2.215 . S
O781 C758 1.283 . S
O782 Mn756 2.094 . S
O782 C760 1.240 . S
O783 Mn757 2.117 . S
O783 C760 1.264 . S
C784 C777 1.403 . S
C784 C785 1.399 . S
C784 H790 0.929 . S
C785 C765 1.449 . S
C785 C784 1.399 . S
C785 H791 0.930 . S
H786 C766 0.931 . S
H787 C767 0.930 . S
H788 C775 0.931 . S
H789 C776 0.929 . S
H790 C784 0.929 . S
H791 C785 0.930 . S
Mn792 O797 2.095 . S
Mn792 O807 2.162 . S
Mn792 O808 2.297 . S
Mn792 O816 2.385 . S
Mn792 O817 2.209 . S
Mn792 O818 2.094 . S
Mn793 O798 2.121 . S
Mn793 N800 2.257 . S
Mn793 N809 2.282 . S
Mn793 O817 2.215 . S
Mn793 O819 2.117 . S
C794 O816 1.234 . S
C794 O817 1.283 . S
C795 O807 1.281 . S
C795 O808 1.236 . S
C796 O818 1.240 . S
C796 O819 1.264 . S
O797 Mn792 2.095 . S
O797 C806 1.250 . S
O798 Mn793 2.121 . S
O798 C806 1.258 . S
C799 N800 1.326 . S
C799 C803 1.460 . S
C799 H805 0.929 . S
N800 Mn793 2.257 . S
N800 C799 1.326 . S
N800 C804 1.362 . S
C801 C802 1.258 . S
C801 C804 1.431 . S
C801 C821 1.449 . S
C802 C801 1.258 . S
C802 C803 1.477 . S
C802 H822 0.931 . S
C803 C799 1.460 . S
C803 C802 1.477 . S
C803 H823 0.930 . S
C804 N800 1.362 . S
C804 C801 1.431 . S
C804 C814 1.476 . S
H805 C799 0.929 . S
C806 O797 1.250 . S
C806 O798 1.258 . S
O807 Mn792 2.162 . S
O807 C795 1.281 . S
O808 Mn792 2.297 . S
O808 C795 1.236 . S
N809 Mn793 2.282 . S
N809 C810 1.328 . S
N809 C814 1.318 . S
C810 N809 1.328 . S
C810 C811 1.457 . S
C810 H815 0.929 . S
C811 C810 1.457 . S
C811 C812 1.291 . S
C811 H824 0.931 . S
C812 C811 1.291 . S
C812 C813 1.373 . S
C812 H825 0.929 . S
C813 C812 1.373 . S
C813 C814 1.396 . S
C813 C820 1.403 . S
C814 C804 1.476 . S
C814 N809 1.318 . S
C814 C813 1.396 . S
H815 C810 0.929 . S
O816 Mn792 2.385 . S
O816 C794 1.234 . S
O817 Mn792 2.209 . S
O817 Mn793 2.215 . S
O817 C794 1.283 . S
O818 Mn792 2.094 . S
O818 C796 1.240 . S
O819 Mn793 2.117 . S
O819 C796 1.264 . S
C820 C813 1.403 . S
C820 C821 1.399 . S
C820 H826 0.929 . S
C821 C801 1.449 . S
C821 C820 1.399 . S
C821 H827 0.930 . S
H822 C802 0.931 . S
H823 C803 0.930 . S
H824 C811 0.931 . S
H825 C812 0.929 . S
H826 C820 0.929 . S
H827 C821 0.930 . S
Mn828 O833 2.095 . S
Mn828 O843 2.162 . S
Mn828 O844 2.297 . S
Mn828 O852 2.385 . S
Mn828 O853 2.209 . S
Mn828 O854 2.094 . S
Mn829 O834 2.121 . S
Mn829 N836 2.257 . S
Mn829 N845 2.282 . S
Mn829 O853 2.215 . S
Mn829 O855 2.117 . S
C830 O852 1.234 . S
C830 O853 1.283 . S
C831 O843 1.281 . S
C831 O844 1.236 . S
C832 O854 1.240 . S
C832 O855 1.264 . S
O833 Mn828 2.095 . S
O833 C842 1.250 . S
O834 Mn829 2.121 . S
O834 C842 1.258 . S
C835 N836 1.326 . S
C835 C839 1.460 . S
C835 H841 0.929 . S
N836 Mn829 2.257 . S
N836 C835 1.326 . S
N836 C840 1.362 . S
C837 C838 1.258 . S
C837 C840 1.431 . S
C837 C857 1.449 . S
C838 C837 1.258 . S
C838 C839 1.477 . S
C838 H858 0.931 . S
C839 C835 1.460 . S
C839 C838 1.477 . S
C839 H859 0.930 . S
C840 N836 1.362 . S
C840 C837 1.431 . S
C840 C850 1.476 . S
H841 C835 0.929 . S
C842 O833 1.250 . S
C842 O834 1.258 . S
O843 Mn828 2.162 . S
O843 C831 1.281 . S
O844 Mn828 2.297 . S
O844 C831 1.236 . S
N845 Mn829 2.282 . S
N845 C846 1.328 . S
N845 C850 1.318 . S
C846 N845 1.328 . S
C846 C847 1.457 . S
C846 H851 0.929 . S
C847 C846 1.457 . S
C847 C848 1.291 . S
C847 H860 0.931 . S
C848 C847 1.291 . S
C848 C849 1.373 . S
C848 H861 0.929 . S
C849 C848 1.373 . S
C849 C850 1.396 . S
C849 C856 1.403 . S
C850 C840 1.476 . S
C850 N845 1.318 . S
C850 C849 1.396 . S
H851 C846 0.929 . S
O852 Mn828 2.385 . S
O852 C830 1.234 . S
O853 Mn828 2.209 . S
O853 Mn829 2.215 . S
O853 C830 1.283 . S
O854 Mn828 2.094 . S
O854 C832 1.240 . S
O855 Mn829 2.117 . S
O855 C832 1.264 . S
C856 C849 1.403 . S
C856 C857 1.399 . S
C856 H862 0.929 . S
C857 C837 1.449 . S
C857 C856 1.399 . S
C857 H863 0.930 . S
H858 C838 0.931 . S
H859 C839 0.930 . S
H860 C847 0.931 . S
H861 C848 0.929 . S
H862 C856 0.929 . S
H863 C857 0.930 . S
Mn864 O869 2.095 . S
Mn864 O879 2.162 . S
Mn864 O880 2.297 . S
Mn864 O888 2.385 . S
Mn864 O889 2.209 . S
Mn864 O890 2.094 . S
Mn865 O870 2.121 . S
Mn865 N872 2.257 1_565 S
Mn865 N881 2.282 . S
Mn865 O889 2.215 . S
Mn865 O891 2.117 . S
C866 O888 1.234 . S
C866 O889 1.283 . S
C867 O879 1.281 . S
C867 O880 1.236 . S
C868 O890 1.240 . S
C868 O891 1.264 . S
O869 Mn864 2.095 . S
O869 C878 1.250 . S
O870 Mn865 2.121 . S
O870 C878 1.258 . S
C871 N872 1.326 . S
C871 C875 1.460 . S
C871 H877 0.929 . S
N872 Mn865 2.257 1_545 S
N872 C871 1.326 . S
N872 C876 1.362 . S
C873 C874 1.258 . S
C873 C876 1.431 . S
C873 C893 1.449 . S
C874 C873 1.258 . S
C874 C875 1.477 . S
C874 H894 0.931 . S
C875 C871 1.460 . S
C875 C874 1.477 . S
C875 H895 0.930 . S
C876 N872 1.362 . S
C876 C873 1.431 . S
C876 C886 1.476 . S
H877 C871 0.929 . S
C878 O869 1.250 . S
C878 O870 1.258 . S
O879 Mn864 2.162 . S
O879 C867 1.281 . S
O880 Mn864 2.297 . S
O880 C867 1.236 . S
N881 Mn865 2.282 . S
N881 C882 1.328 . S
N881 C886 1.318 1_565 S
C882 N881 1.328 . S
C882 C883 1.457 . S
C882 H887 0.929 . S
C883 C882 1.457 . S
C883 C884 1.291 1_565 S
C883 H896 0.931 . S
C884 C883 1.291 1_545 S
C884 C885 1.373 . S
C884 H897 0.929 . S
C885 C884 1.373 . S
C885 C886 1.396 . S
C885 C892 1.403 . S
C886 C876 1.476 . S
C886 N881 1.318 1_545 S
C886 C885 1.396 . S
H887 C882 0.929 . S
O888 Mn864 2.385 . S
O888 C866 1.234 . S
O889 Mn864 2.209 . S
O889 Mn865 2.215 . S
O889 C866 1.283 . S
O890 Mn864 2.094 . S
O890 C868 1.240 . S
O891 Mn865 2.117 . S
O891 C868 1.264 . S
C892 C885 1.403 . S
C892 C893 1.399 . S
C892 H898 0.929 . S
C893 C873 1.449 . S
C893 C892 1.399 . S
C893 H899 0.930 . S
H894 C874 0.931 . S
H895 C875 0.930 . S
H896 C883 0.931 . S
H897 C884 0.929 . S
H898 C892 0.929 . S
H899 C893 0.930 . S
Mn900 O905 2.095 . S
Mn900 O915 2.162 . S
Mn900 O916 2.297 . S
Mn900 O924 2.385 . S
Mn900 O925 2.209 . S
Mn900 O926 2.094 . S
Mn901 O906 2.121 . S
Mn901 N908 2.257 1_455 S
Mn901 N917 2.282 . S
Mn901 O925 2.215 . S
Mn901 O927 2.117 . S
C902 O924 1.234 . S
C902 O925 1.283 . S
C903 O915 1.281 . S
C903 O916 1.236 . S
C904 O926 1.240 . S
C904 O927 1.264 . S
O905 Mn900 2.095 . S
O905 C914 1.250 . S
O906 Mn901 2.121 . S
O906 C914 1.258 . S
C907 N908 1.326 . S
C907 C911 1.460 . S
C907 H913 0.929 . S
N908 Mn901 2.257 1_655 S
N908 C907 1.326 . S
N908 C912 1.362 . S
C909 C910 1.258 . S
C909 C912 1.431 . S
C909 C929 1.449 . S
C910 C909 1.258 . S
C910 C911 1.477 . S
C910 H930 0.931 . S
C911 C907 1.460 . S
C911 C910 1.477 . S
C911 H931 0.930 . S
C912 N908 1.362 . S
C912 C909 1.431 . S
C912 C922 1.476 . S
H913 C907 0.929 . S
C914 O905 1.250 . S
C914 O906 1.258 . S
O915 Mn900 2.162 . S
O915 C903 1.281 . S
O916 Mn900 2.297 . S
O916 C903 1.236 . S
N917 Mn901 2.282 . S
N917 C918 1.328 . S
N917 C922 1.318 1_455 S
C918 N917 1.328 . S
C918 C919 1.457 . S
C918 H923 0.929 . S
C919 C918 1.457 . S
C919 C920 1.291 1_455 S
C919 H932 0.931 . S
C920 C919 1.291 1_655 S
C920 C921 1.373 . S
C920 H933 0.929 . S
C921 C920 1.373 . S
C921 C922 1.396 . S
C921 C928 1.403 . S
C922 C912 1.476 . S
C922 N917 1.318 1_655 S
C922 C921 1.396 . S
H923 C918 0.929 . S
O924 Mn900 2.385 . S
O924 C902 1.234 . S
O925 Mn900 2.209 . S
O925 Mn901 2.215 . S
O925 C902 1.283 . S
O926 Mn900 2.094 . S
O926 C904 1.240 . S
O927 Mn901 2.117 . S
O927 C904 1.264 . S
C928 C921 1.403 . S
C928 C929 1.399 . S
C928 H934 0.929 . S
C929 C909 1.449 . S
C929 C928 1.399 . S
C929 H935 0.930 . S
H930 C910 0.931 . S
H931 C911 0.930 . S
H932 C919 0.931 . S
H933 C920 0.929 . S
H934 C928 0.929 . S
H935 C929 0.930 . S
Mn936 O941 2.095 . S
Mn936 O951 2.162 . S
Mn936 O952 2.297 . S
Mn936 O960 2.385 . S
Mn936 O961 2.209 . S
Mn936 O962 2.094 . S
Mn937 O942 2.121 . S
Mn937 N944 2.257 . S
Mn937 N953 2.282 . S
Mn937 O961 2.215 . S
Mn937 O963 2.117 . S
C938 O960 1.234 . S
C938 O961 1.283 . S
C939 O951 1.281 . S
C939 O952 1.236 . S
C940 O962 1.240 . S
C940 O963 1.264 . S
O941 Mn936 2.095 . S
O941 C950 1.250 . S
O942 Mn937 2.121 . S
O942 C950 1.258 . S
C943 N944 1.326 . S
C943 C947 1.460 . S
C943 H949 0.929 . S
N944 Mn937 2.257 . S
N944 C943 1.326 . S
N944 C948 1.362 . S
C945 C946 1.258 . S
C945 C948 1.431 . S
C945 C965 1.449 . S
C946 C945 1.258 . S
C946 C947 1.477 . S
C946 H966 0.931 . S
C947 C943 1.460 . S
C947 C946 1.477 . S
C947 H967 0.930 . S
C948 N944 1.362 . S
C948 C945 1.431 . S
C948 C958 1.476 . S
H949 C943 0.929 . S
C950 O941 1.250 . S
C950 O942 1.258 . S
O951 Mn936 2.162 . S
O951 C939 1.281 . S
O952 Mn936 2.297 . S
O952 C939 1.236 . S
N953 Mn937 2.282 . S
N953 C954 1.328 . S
N953 C958 1.318 . S
C954 N953 1.328 . S
C954 C955 1.457 . S
C954 H959 0.929 . S
C955 C954 1.457 . S
C955 C956 1.291 . S
C955 H968 0.931 . S
C956 C955 1.291 . S
C956 C957 1.373 . S
C956 H969 0.929 . S
C957 C956 1.373 . S
C957 C958 1.396 . S
C957 C964 1.403 . S
C958 C948 1.476 . S
C958 N953 1.318 . S
C958 C957 1.396 . S
H959 C954 0.929 . S
O960 Mn936 2.385 . S
O960 C938 1.234 . S
O961 Mn936 2.209 . S
O961 Mn937 2.215 . S
O961 C938 1.283 . S
O962 Mn936 2.094 . S
O962 C940 1.240 . S
O963 Mn937 2.117 . S
O963 C940 1.264 . S
C964 C957 1.403 . S
C964 C965 1.399 . S
C964 H970 0.929 . S
C965 C945 1.449 . S
C965 C964 1.399 . S
C965 H971 0.930 . S
H966 C946 0.931 . S
H967 C947 0.930 . S
H968 C955 0.931 . S
H969 C956 0.929 . S
H970 C964 0.929 . S
H971 C965 0.930 . S
Mn972 O977 2.095 . S
Mn972 O987 2.162 . S
Mn972 O988 2.297 . S
Mn972 O996 2.385 . S
Mn972 O997 2.209 . S
Mn972 O998 2.094 . S
Mn973 O978 2.121 . S
Mn973 N980 2.257 . S
Mn973 N989 2.282 . S
Mn973 O997 2.215 . S
Mn973 O999 2.117 . S
C974 O996 1.234 . S
C974 O997 1.283 . S
C975 O987 1.281 . S
C975 O988 1.236 . S
C976 O998 1.240 . S
C976 O999 1.264 . S
O977 Mn972 2.095 . S
O977 C986 1.250 . S
O978 Mn973 2.121 . S
O978 C986 1.258 . S
C979 N980 1.326 . S
C979 C983 1.460 . S
C979 H985 0.929 . S
N980 Mn973 2.257 . S
N980 C979 1.326 . S
N980 C984 1.362 . S
C981 C982 1.258 . S
C981 C984 1.431 . S
C981 C1001 1.449 . S
C982 C981 1.258 . S
C982 C983 1.477 . S
C982 H1002 0.931 . S
C983 C979 1.460 . S
C983 C982 1.477 . S
C983 H1003 0.930 . S
C984 N980 1.362 . S
C984 C981 1.431 . S
C984 C994 1.476 . S
H985 C979 0.929 . S
C986 O977 1.250 . S
C986 O978 1.258 . S
O987 Mn972 2.162 . S
O987 C975 1.281 . S
O988 Mn972 2.297 . S
O988 C975 1.236 . S
N989 Mn973 2.282 . S
N989 C990 1.328 . S
N989 C994 1.318 . S
C990 N989 1.328 . S
C990 C991 1.457 . S
C990 H995 0.929 . S
C991 C990 1.457 . S
C991 C992 1.291 . S
C991 H1004 0.931 . S
C992 C991 1.291 . S
C992 C993 1.373 . S
C992 H1005 0.929 . S
C993 C992 1.373 . S
C993 C994 1.396 . S
C993 C1000 1.403 . S
C994 C984 1.476 . S
C994 N989 1.318 . S
C994 C993 1.396 . S
H995 C990 0.929 . S
O996 Mn972 2.385 . S
O996 C974 1.234 . S
O997 Mn972 2.209 . S
O997 Mn973 2.215 . S
O997 C974 1.283 . S
O998 Mn972 2.094 . S
O998 C976 1.240 . S
O999 Mn973 2.117 . S
O999 C976 1.264 . S
C1000 C993 1.403 . S
C1000 C1001 1.399 . S
C1000 H1006 0.929 . S
C1001 C981 1.449 . S
C1001 C1000 1.399 . S
C1001 H1007 0.930 . S
H1002 C982 0.931 . S
H1003 C983 0.930 . S
H1004 C991 0.931 . S
H1005 C992 0.929 . S
H1006 C1000 0.929 . S
H1007 C1001 0.930 . S
Mn1008 O1013 2.095 . S
Mn1008 O1023 2.162 . S
Mn1008 O1024 2.297 . S
Mn1008 O1032 2.385 . S
Mn1008 O1033 2.209 . S
Mn1008 O1034 2.094 . S
Mn1009 O1014 2.121 . S
Mn1009 N1016 2.257 . S
Mn1009 N1025 2.282 . S
Mn1009 O1033 2.215 . S
Mn1009 O1035 2.117 . S
C1010 O1032 1.234 . S
C1010 O1033 1.283 . S
C1011 O1023 1.281 . S
C1011 O1024 1.236 . S
C1012 O1034 1.240 . S
C1012 O1035 1.264 . S
O1013 Mn1008 2.095 . S
O1013 C1022 1.250 . S
O1014 Mn1009 2.121 . S
O1014 C1022 1.258 . S
C1015 N1016 1.326 . S
C1015 C1019 1.460 . S
C1015 H1021 0.929 . S
N1016 Mn1009 2.257 . S
N1016 C1015 1.326 . S
N1016 C1020 1.362 . S
C1017 C1018 1.258 . S
C1017 C1020 1.431 . S
C1017 C1037 1.449 . S
C1018 C1017 1.258 . S
C1018 C1019 1.477 . S
C1018 H1038 0.931 . S
C1019 C1015 1.460 . S
C1019 C1018 1.477 . S
C1019 H1039 0.930 . S
C1020 N1016 1.362 . S
C1020 C1017 1.431 . S
C1020 C1030 1.476 . S
H1021 C1015 0.929 . S
C1022 O1013 1.250 . S
C1022 O1014 1.258 . S
O1023 Mn1008 2.162 . S
O1023 C1011 1.281 . S
O1024 Mn1008 2.297 . S
O1024 C1011 1.236 . S
N1025 Mn1009 2.282 . S
N1025 C1026 1.328 . S
N1025 C1030 1.318 . S
C1026 N1025 1.328 . S
C1026 C1027 1.457 . S
C1026 H1031 0.929 . S
C1027 C1026 1.457 . S
C1027 C1028 1.291 . S
C1027 H1040 0.931 . S
C1028 C1027 1.291 . S
C1028 C1029 1.373 . S
C1028 H1041 0.929 . S
C1029 C1028 1.373 . S
C1029 C1030 1.396 . S
C1029 C1036 1.403 . S
C1030 C1020 1.476 . S
C1030 N1025 1.318 . S
C1030 C1029 1.396 . S
H1031 C1026 0.929 . S
O1032 Mn1008 2.385 . S
O1032 C1010 1.234 . S
O1033 Mn1008 2.209 . S
O1033 Mn1009 2.215 . S
O1033 C1010 1.283 . S
O1034 Mn1008 2.094 . S
O1034 C1012 1.240 . S
O1035 Mn1009 2.117 . S
O1035 C1012 1.264 . S
C1036 C1029 1.403 . S
C1036 C1037 1.399 . S
C1036 H1042 0.929 . S
C1037 C1017 1.449 . S
C1037 C1036 1.399 . S
C1037 H1043 0.930 . S
H1038 C1018 0.931 . S
H1039 C1019 0.930 . S
H1040 C1027 0.931 . S
H1041 C1028 0.929 . S
H1042 C1036 0.929 . S
H1043 C1037 0.930 . S
Mn1044 O1049 2.095 . S
Mn1044 O1059 2.162 . S
Mn1044 O1060 2.297 . S
Mn1044 O1068 2.385 . S
Mn1044 O1069 2.209 . S
Mn1044 O1070 2.094 . S
Mn1045 O1050 2.121 . S
Mn1045 N1052 2.257 . S
Mn1045 N1061 2.282 . S
Mn1045 O1069 2.215 . S
Mn1045 O1071 2.117 . S
C1046 O1068 1.234 . S
C1046 O1069 1.283 . S
C1047 O1059 1.281 . S
C1047 O1060 1.236 . S
C1048 O1070 1.240 . S
C1048 O1071 1.264 . S
O1049 Mn1044 2.095 . S
O1049 C1058 1.250 . S
O1050 Mn1045 2.121 . S
O1050 C1058 1.258 . S
C1051 N1052 1.326 . S
C1051 C1055 1.460 . S
C1051 H1057 0.929 . S
N1052 Mn1045 2.257 . S
N1052 C1051 1.326 . S
N1052 C1056 1.362 . S
C1053 C1054 1.258 . S
C1053 C1056 1.431 . S
C1053 C1073 1.449 . S
C1054 C1053 1.258 . S
C1054 C1055 1.477 . S
C1054 H1074 0.931 . S
C1055 C1051 1.460 . S
C1055 C1054 1.477 . S
C1055 H1075 0.930 . S
C1056 N1052 1.362 . S
C1056 C1053 1.431 . S
C1056 C1066 1.476 . S
H1057 C1051 0.929 . S
C1058 O1049 1.250 . S
C1058 O1050 1.258 . S
O1059 Mn1044 2.162 . S
O1059 C1047 1.281 . S
O1060 Mn1044 2.297 . S
O1060 C1047 1.236 . S
N1061 Mn1045 2.282 . S
N1061 C1062 1.328 . S
N1061 C1066 1.318 . S
C1062 N1061 1.328 . S
C1062 C1063 1.457 . S
C1062 H1067 0.929 . S
C1063 C1062 1.457 . S
C1063 C1064 1.291 . S
C1063 H1076 0.931 . S
C1064 C1063 1.291 . S
C1064 C1065 1.373 . S
C1064 H1077 0.929 . S
C1065 C1064 1.373 . S
C1065 C1066 1.396 . S
C1065 C1072 1.403 . S
C1066 C1056 1.476 . S
C1066 N1061 1.318 . S
C1066 C1065 1.396 . S
H1067 C1062 0.929 . S
O1068 Mn1044 2.385 . S
O1068 C1046 1.234 . S
O1069 Mn1044 2.209 . S
O1069 Mn1045 2.215 . S
O1069 C1046 1.283 . S
O1070 Mn1044 2.094 . S
O1070 C1048 1.240 . S
O1071 Mn1045 2.117 . S
O1071 C1048 1.264 . S
C1072 C1065 1.403 . S
C1072 C1073 1.399 . S
C1072 H1078 0.929 . S
C1073 C1053 1.449 . S
C1073 C1072 1.399 . S
C1073 H1079 0.930 . S
H1074 C1054 0.931 . S
H1075 C1055 0.930 . S
H1076 C1063 0.931 . S
H1077 C1064 0.929 . S
H1078 C1072 0.929 . S
H1079 C1073 0.930 . S
Mn1080 O1085 2.095 . S
Mn1080 O1095 2.162 . S
Mn1080 O1096 2.297 . S
Mn1080 O1104 2.385 . S
Mn1080 O1105 2.209 . S
Mn1080 O1106 2.094 . S
Mn1081 O1086 2.121 . S
Mn1081 N1088 2.257 . S
Mn1081 N1097 2.282 . S
Mn1081 O1105 2.215 . S
Mn1081 O1107 2.117 . S
C1082 O1104 1.234 . S
C1082 O1105 1.283 . S
C1083 O1095 1.281 . S
C1083 O1096 1.236 . S
C1084 O1106 1.240 . S
C1084 O1107 1.264 . S
O1085 Mn1080 2.095 . S
O1085 C1094 1.250 . S
O1086 Mn1081 2.121 . S
O1086 C1094 1.258 . S
C1087 N1088 1.326 . S
C1087 C1091 1.460 . S
C1087 H1093 0.929 . S
N1088 Mn1081 2.257 . S
N1088 C1087 1.326 . S
N1088 C1092 1.362 . S
C1089 C1090 1.258 . S
C1089 C1092 1.431 . S
C1089 C1109 1.449 . S
C1090 C1089 1.258 . S
C1090 C1091 1.477 . S
C1090 H1110 0.931 . S
C1091 C1087 1.460 . S
C1091 C1090 1.477 . S
C1091 H1111 0.930 . S
C1092 N1088 1.362 . S
C1092 C1089 1.431 . S
C1092 C1102 1.476 . S
H1093 C1087 0.929 . S
C1094 O1085 1.250 . S
C1094 O1086 1.258 . S
O1095 Mn1080 2.162 . S
O1095 C1083 1.281 . S
O1096 Mn1080 2.297 . S
O1096 C1083 1.236 . S
N1097 Mn1081 2.282 . S
N1097 C1098 1.328 . S
N1097 C1102 1.318 . S
C1098 N1097 1.328 . S
C1098 C1099 1.457 . S
C1098 H1103 0.929 . S
C1099 C1098 1.457 . S
C1099 C1100 1.291 . S
C1099 H1112 0.931 . S
C1100 C1099 1.291 . S
C1100 C1101 1.373 . S
C1100 H1113 0.929 . S
C1101 C1100 1.373 . S
C1101 C1102 1.396 . S
C1101 C1108 1.403 . S
C1102 C1092 1.476 . S
C1102 N1097 1.318 . S
C1102 C1101 1.396 . S
H1103 C1098 0.929 . S
O1104 Mn1080 2.385 . S
O1104 C1082 1.234 . S
O1105 Mn1080 2.209 . S
O1105 Mn1081 2.215 . S
O1105 C1082 1.283 . S
O1106 Mn1080 2.094 . S
O1106 C1084 1.240 . S
O1107 Mn1081 2.117 . S
O1107 C1084 1.264 . S
C1108 C1101 1.403 . S
C1108 C1109 1.399 . S
C1108 H1114 0.929 . S
C1109 C1089 1.449 . S
C1109 C1108 1.399 . S
C1109 H1115 0.930 . S
H1110 C1090 0.931 . S
H1111 C1091 0.930 . S
H1112 C1099 0.931 . S
H1113 C1100 0.929 . S
H1114 C1108 0.929 . S
H1115 C1109 0.930 . S
Mn1116 O1121 2.095 . S
Mn1116 O1131 2.162 . S
Mn1116 O1132 2.297 . S
Mn1116 O1140 2.385 . S
Mn1116 O1141 2.209 . S
Mn1116 O1142 2.094 . S
Mn1117 O1122 2.121 . S
Mn1117 N1124 2.257 . S
Mn1117 N1133 2.282 . S
Mn1117 O1141 2.215 . S
Mn1117 O1143 2.117 . S
C1118 O1140 1.234 . S
C1118 O1141 1.283 . S
C1119 O1131 1.281 . S
C1119 O1132 1.236 . S
C1120 O1142 1.240 . S
C1120 O1143 1.264 . S
O1121 Mn1116 2.095 . S
O1121 C1130 1.250 . S
O1122 Mn1117 2.121 . S
O1122 C1130 1.258 . S
C1123 N1124 1.326 . S
C1123 C1127 1.460 . S
C1123 H1129 0.929 . S
N1124 Mn1117 2.257 . S
N1124 C1123 1.326 . S
N1124 C1128 1.362 . S
C1125 C1126 1.258 . S
C1125 C1128 1.431 . S
C1125 C1145 1.449 . S
C1126 C1125 1.258 . S
C1126 C1127 1.477 . S
C1126 H1146 0.931 . S
C1127 C1123 1.460 . S
C1127 C1126 1.477 . S
C1127 H1147 0.930 . S
C1128 N1124 1.362 . S
C1128 C1125 1.431 . S
C1128 C1138 1.476 . S
H1129 C1123 0.929 . S
C1130 O1121 1.250 . S
C1130 O1122 1.258 . S
O1131 Mn1116 2.162 . S
O1131 C1119 1.281 . S
O1132 Mn1116 2.297 . S
O1132 C1119 1.236 . S
N1133 Mn1117 2.282 . S
N1133 C1134 1.328 . S
N1133 C1138 1.318 . S
C1134 N1133 1.328 . S
C1134 C1135 1.457 . S
C1134 H1139 0.929 . S
C1135 C1134 1.457 . S
C1135 C1136 1.291 . S
C1135 H1148 0.931 . S
C1136 C1135 1.291 . S
C1136 C1137 1.373 . S
C1136 H1149 0.929 . S
C1137 C1136 1.373 . S
C1137 C1138 1.396 . S
C1137 C1144 1.403 . S
C1138 C1128 1.476 . S
C1138 N1133 1.318 . S
C1138 C1137 1.396 . S
H1139 C1134 0.929 . S
O1140 Mn1116 2.385 . S
O1140 C1118 1.234 . S
O1141 Mn1116 2.209 . S
O1141 Mn1117 2.215 . S
O1141 C1118 1.283 . S
O1142 Mn1116 2.094 . S
O1142 C1120 1.240 . S
O1143 Mn1117 2.117 . S
O1143 C1120 1.264 . S
C1144 C1137 1.403 . S
C1144 C1145 1.399 . S
C1144 H1150 0.929 . S
C1145 C1125 1.449 . S
C1145 C1144 1.399 . S
C1145 H1151 0.930 . S
H1146 C1126 0.931 . S
H1147 C1127 0.930 . S
H1148 C1135 0.931 . S
H1149 C1136 0.929 . S
H1150 C1144 0.929 . S
H1151 C1145 0.930 . S
Mn1152 O1157 2.095 . S
Mn1152 O1167 2.162 . S
Mn1152 O1168 2.297 . S
Mn1152 O1176 2.385 . S
Mn1152 O1177 2.209 . S
Mn1152 O1178 2.094 . S
Mn1153 O1158 2.121 . S
Mn1153 N1160 2.257 . S
Mn1153 N1169 2.282 . S
Mn1153 O1177 2.215 . S
Mn1153 O1179 2.117 . S
C1154 O1176 1.234 . S
C1154 O1177 1.283 . S
C1155 O1167 1.281 . S
C1155 O1168 1.236 . S
C1156 O1178 1.240 . S
C1156 O1179 1.264 . S
O1157 Mn1152 2.095 . S
O1157 C1166 1.250 . S
O1158 Mn1153 2.121 . S
O1158 C1166 1.258 . S
C1159 N1160 1.326 . S
C1159 C1163 1.460 . S
C1159 H1165 0.929 . S
N1160 Mn1153 2.257 . S
N1160 C1159 1.326 . S
N1160 C1164 1.362 . S
C1161 C1162 1.258 . S
C1161 C1164 1.431 . S
C1161 C1181 1.449 . S
C1162 C1161 1.258 . S
C1162 C1163 1.477 . S
C1162 H1182 0.931 . S
C1163 C1159 1.460 . S
C1163 C1162 1.477 . S
C1163 H1183 0.930 . S
C1164 N1160 1.362 . S
C1164 C1161 1.431 . S
C1164 C1174 1.476 . S
H1165 C1159 0.929 . S
C1166 O1157 1.250 . S
C1166 O1158 1.258 . S
O1167 Mn1152 2.162 . S
O1167 C1155 1.281 . S
O1168 Mn1152 2.297 . S
O1168 C1155 1.236 . S
N1169 Mn1153 2.282 . S
N1169 C1170 1.328 . S
N1169 C1174 1.318 . S
C1170 N1169 1.328 . S
C1170 C1171 1.457 . S
C1170 H1175 0.929 . S
C1171 C1170 1.457 . S
C1171 C1172 1.291 . S
C1171 H1184 0.931 . S
C1172 C1171 1.291 . S
C1172 C1173 1.373 . S
C1172 H1185 0.929 . S
C1173 C1172 1.373 . S
C1173 C1174 1.396 . S
C1173 C1180 1.403 . S
C1174 C1164 1.476 . S
C1174 N1169 1.318 . S
C1174 C1173 1.396 . S
H1175 C1170 0.929 . S
O1176 Mn1152 2.385 . S
O1176 C1154 1.234 . S
O1177 Mn1152 2.209 . S
O1177 Mn1153 2.215 . S
O1177 C1154 1.283 . S
O1178 Mn1152 2.094 . S
O1178 C1156 1.240 . S
O1179 Mn1153 2.117 . S
O1179 C1156 1.264 . S
C1180 C1173 1.403 . S
C1180 C1181 1.399 . S
C1180 H1186 0.929 . S
C1181 C1161 1.449 . S
C1181 C1180 1.399 . S
C1181 H1187 0.930 . S
H1182 C1162 0.931 . S
H1183 C1163 0.930 . S
H1184 C1171 0.931 . S
H1185 C1172 0.929 . S
H1186 C1180 0.929 . S
H1187 C1181 0.930 . S
Mn1188 O1193 2.095 . S
Mn1188 O1203 2.162 . S
Mn1188 O1204 2.297 . S
Mn1188 O1212 2.385 . S
Mn1188 O1213 2.209 . S
Mn1188 O1214 2.094 . S
Mn1189 O1194 2.121 . S
Mn1189 N1196 2.257 1_455 S
Mn1189 N1205 2.282 . S
Mn1189 O1213 2.215 . S
Mn1189 O1215 2.117 . S
C1190 O1212 1.234 . S
C1190 O1213 1.283 . S
C1191 O1203 1.281 . S
C1191 O1204 1.236 . S
C1192 O1214 1.240 . S
C1192 O1215 1.264 . S
O1193 Mn1188 2.095 . S
O1193 C1202 1.250 . S
O1194 Mn1189 2.121 . S
O1194 C1202 1.258 . S
C1195 N1196 1.326 . S
C1195 C1199 1.460 . S
C1195 H1201 0.929 . S
N1196 Mn1189 2.257 1_655 S
N1196 C1195 1.326 . S
N1196 C1200 1.362 . S
C1197 C1198 1.258 . S
C1197 C1200 1.431 . S
C1197 C1217 1.449 . S
C1198 C1197 1.258 . S
C1198 C1199 1.477 . S
C1198 H1218 0.931 . S
C1199 C1195 1.460 . S
C1199 C1198 1.477 . S
C1199 H1219 0.930 . S
C1200 N1196 1.362 . S
C1200 C1197 1.431 . S
C1200 C1210 1.476 . S
H1201 C1195 0.929 . S
C1202 O1193 1.250 . S
C1202 O1194 1.258 . S
O1203 Mn1188 2.162 . S
O1203 C1191 1.281 . S
O1204 Mn1188 2.297 . S
O1204 C1191 1.236 . S
N1205 Mn1189 2.282 . S
N1205 C1206 1.328 . S
N1205 C1210 1.318 1_455 S
C1206 N1205 1.328 . S
C1206 C1207 1.457 . S
C1206 H1211 0.929 . S
C1207 C1206 1.457 . S
C1207 C1208 1.291 1_455 S
C1207 H1220 0.931 . S
C1208 C1207 1.291 1_655 S
C1208 C1209 1.373 . S
C1208 H1221 0.929 . S
C1209 C1208 1.373 . S
C1209 C1210 1.396 . S
C1209 C1216 1.403 . S
C1210 C1200 1.476 . S
C1210 N1205 1.318 1_655 S
C1210 C1209 1.396 . S
H1211 C1206 0.929 . S
O1212 Mn1188 2.385 . S
O1212 C1190 1.234 . S
O1213 Mn1188 2.209 . S
O1213 Mn1189 2.215 . S
O1213 C1190 1.283 . S
O1214 Mn1188 2.094 . S
O1214 C1192 1.240 . S
O1215 Mn1189 2.117 . S
O1215 C1192 1.264 . S
C1216 C1209 1.403 . S
C1216 C1217 1.399 . S
C1216 H1222 0.929 . S
C1217 C1197 1.449 . S
C1217 C1216 1.399 . S
C1217 H1223 0.930 . S
H1218 C1198 0.931 . S
H1219 C1199 0.930 . S
H1220 C1207 0.931 . S
H1221 C1208 0.929 . S
H1222 C1216 0.929 . S
H1223 C1217 0.930 . S
Mn1224 O1229 2.095 . S
Mn1224 O1239 2.162 . S
Mn1224 O1240 2.297 . S
Mn1224 O1248 2.385 . S
Mn1224 O1249 2.209 . S
Mn1224 O1250 2.094 . S
Mn1225 O1230 2.121 . S
Mn1225 N1232 2.257 . S
Mn1225 N1241 2.282 . S
Mn1225 O1249 2.215 . S
Mn1225 O1251 2.117 . S
C1226 O1248 1.234 . S
C1226 O1249 1.283 . S
C1227 O1239 1.281 . S
C1227 O1240 1.236 . S
C1228 O1250 1.240 . S
C1228 O1251 1.264 . S
O1229 Mn1224 2.095 . S
O1229 C1238 1.250 . S
O1230 Mn1225 2.121 . S
O1230 C1238 1.258 . S
C1231 N1232 1.326 . S
C1231 C1235 1.460 . S
C1231 H1237 0.929 . S
N1232 Mn1225 2.257 . S
N1232 C1231 1.326 . S
N1232 C1236 1.362 . S
C1233 C1234 1.258 . S
C1233 C1236 1.431 . S
C1233 C1253 1.449 . S
C1234 C1233 1.258 . S
C1234 C1235 1.477 . S
C1234 H1254 0.931 . S
C1235 C1231 1.460 . S
C1235 C1234 1.477 . S
C1235 H1255 0.930 . S
C1236 N1232 1.362 . S
C1236 C1233 1.431 . S
C1236 C1246 1.476 . S
H1237 C1231 0.929 . S
C1238 O1229 1.250 . S
C1238 O1230 1.258 . S
O1239 Mn1224 2.162 . S
O1239 C1227 1.281 . S
O1240 Mn1224 2.297 . S
O1240 C1227 1.236 . S
N1241 Mn1225 2.282 . S
N1241 C1242 1.328 . S
N1241 C1246 1.318 . S
C1242 N1241 1.328 . S
C1242 C1243 1.457 . S
C1242 H1247 0.929 . S
C1243 C1242 1.457 . S
C1243 C1244 1.291 . S
C1243 H1256 0.931 . S
C1244 C1243 1.291 . S
C1244 C1245 1.373 . S
C1244 H1257 0.929 . S
C1245 C1244 1.373 . S
C1245 C1246 1.396 . S
C1245 C1252 1.403 . S
C1246 C1236 1.476 . S
C1246 N1241 1.318 . S
C1246 C1245 1.396 . S
H1247 C1242 0.929 . S
O1248 Mn1224 2.385 . S
O1248 C1226 1.234 . S
O1249 Mn1224 2.209 . S
O1249 Mn1225 2.215 . S
O1249 C1226 1.283 . S
O1250 Mn1224 2.094 . S
O1250 C1228 1.240 . S
O1251 Mn1225 2.117 . S
O1251 C1228 1.264 . S
C1252 C1245 1.403 . S
C1252 C1253 1.399 . S
C1252 H1258 0.929 . S
C1253 C1233 1.449 . S
C1253 C1252 1.399 . S
C1253 H1259 0.930 . S
H1254 C1234 0.931 . S
H1255 C1235 0.930 . S
H1256 C1243 0.931 . S
H1257 C1244 0.929 . S
H1258 C1252 0.929 . S
H1259 C1253 0.930 . S
Mn1260 O1265 2.095 . S
Mn1260 O1275 2.162 . S
Mn1260 O1276 2.297 . S
Mn1260 O1284 2.385 . S
Mn1260 O1285 2.209 . S
Mn1260 O1286 2.094 . S
Mn1261 O1266 2.121 . S
Mn1261 N1268 2.257 1_565 S
Mn1261 N1277 2.282 . S
Mn1261 O1285 2.215 . S
Mn1261 O1287 2.117 . S
C1262 O1284 1.234 . S
C1262 O1285 1.283 . S
C1263 O1275 1.281 . S
C1263 O1276 1.236 . S
C1264 O1286 1.240 . S
C1264 O1287 1.264 . S
O1265 Mn1260 2.095 . S
O1265 C1274 1.250 . S
O1266 Mn1261 2.121 . S
O1266 C1274 1.258 . S
C1267 N1268 1.326 . S
C1267 C1271 1.460 . S
C1267 H1273 0.929 . S
N1268 Mn1261 2.257 1_545 S
N1268 C1267 1.326 . S
N1268 C1272 1.362 . S
C1269 C1270 1.258 . S
C1269 C1272 1.431 . S
C1269 C1289 1.449 . S
C1270 C1269 1.258 . S
C1270 C1271 1.477 . S
C1270 H1290 0.931 . S
C1271 C1267 1.460 . S
C1271 C1270 1.477 . S
C1271 H1291 0.930 . S
C1272 N1268 1.362 . S
C1272 C1269 1.431 . S
C1272 C1282 1.476 . S
H1273 C1267 0.929 . S
C1274 O1265 1.250 . S
C1274 O1266 1.258 . S
O1275 Mn1260 2.162 . S
O1275 C1263 1.281 . S
O1276 Mn1260 2.297 . S
O1276 C1263 1.236 . S
N1277 Mn1261 2.282 . S
N1277 C1278 1.328 . S
N1277 C1282 1.318 1_565 S
C1278 N1277 1.328 . S
C1278 C1279 1.457 . S
C1278 H1283 0.929 . S
C1279 C1278 1.457 . S
C1279 C1280 1.291 1_565 S
C1279 H1292 0.931 . S
C1280 C1279 1.291 1_545 S
C1280 C1281 1.373 . S
C1280 H1293 0.929 . S
C1281 C1280 1.373 . S
C1281 C1282 1.396 . S
C1281 C1288 1.403 . S
C1282 C1272 1.476 . S
C1282 N1277 1.318 1_545 S
C1282 C1281 1.396 . S
H1283 C1278 0.929 . S
O1284 Mn1260 2.385 . S
O1284 C1262 1.234 . S
O1285 Mn1260 2.209 . S
O1285 Mn1261 2.215 . S
O1285 C1262 1.283 . S
O1286 Mn1260 2.094 . S
O1286 C1264 1.240 . S
O1287 Mn1261 2.117 . S
O1287 C1264 1.264 . S
C1288 C1281 1.403 . S
C1288 C1289 1.399 . S
C1288 H1294 0.929 . S
C1289 C1269 1.449 . S
C1289 C1288 1.399 . S
C1289 H1295 0.930 . S
H1290 C1270 0.931 . S
H1291 C1271 0.930 . S
H1292 C1279 0.931 . S
H1293 C1280 0.929 . S
H1294 C1288 0.929 . S
H1295 C1289 0.930 . S
H1296 C1302 0.930 . S
H1297 C1306 0.930 . S
H1298 C1311 0.929 . S
H1299 C1309 0.929 . S
H1300 C1304 0.929 . S
H1301 C1310 0.929 . S
C1302 H1296 0.930 . S
C1302 C1303 1.367 . S
C1302 C1310 1.378 . S
C1303 C1302 1.367 . S
C1303 C1311 1.433 . S
C1304 H1300 0.929 . S
C1304 C1306 1.378 . S
C1304 C1308 1.350 . S
C1305 C1308 1.463 . S
C1305 C1310 1.350 . S
C1305 N1313 1.427 . S
C1306 H1297 0.930 . S
C1306 C1304 1.378 . S
C1306 C1307 1.367 . S
C1307 C1306 1.367 . S
C1307 C1309 1.433 . S
C1308 C1304 1.350 . S
C1308 C1305 1.463 . S
C1308 N1312 1.427 . S
C1309 H1299 0.929 . S
C1309 C1307 1.433 . S
C1309 N1312 1.384 . S
C1310 H1301 0.929 . S
C1310 C1302 1.378 . S
C1310 C1305 1.350 . S
C1311 H1298 0.929 . S
C1311 C1303 1.433 . S
C1311 N1313 1.384 . S
N1312 C1308 1.427 . S
N1312 C1309 1.384 . S
N1313 C1305 1.427 . S
N1313 C1311 1.384 . S
H1314 C1320 0.930 . S
H1315 C1324 0.930 . S
H1316 C1329 0.929 . S
H1317 C1327 0.929 . S
H1318 C1322 0.929 . S
H1319 C1328 0.929 . S
C1320 H1314 0.930 . S
C1320 C1321 1.367 . S
C1320 C1328 1.378 . S
C1321 C1320 1.367 . S
C1321 C1329 1.433 . S
C1322 H1318 0.929 . S
C1322 C1324 1.378 . S
C1322 C1326 1.350 . S
C1323 C1326 1.463 . S
C1323 C1328 1.350 . S
C1323 N1331 1.427 . S
C1324 H1315 0.930 . S
C1324 C1322 1.378 . S
C1324 C1325 1.367 . S
C1325 C1324 1.367 . S
C1325 C1327 1.433 . S
C1326 C1322 1.350 . S
C1326 C1323 1.463 . S
C1326 N1330 1.427 . S
C1327 H1317 0.929 . S
C1327 C1325 1.433 . S
C1327 N1330 1.384 . S
C1328 H1319 0.929 . S
C1328 C1320 1.378 . S
C1328 C1323 1.350 . S
C1329 H1316 0.929 . S
C1329 C1321 1.433 . S
C1329 N1331 1.384 . S
N1330 C1326 1.427 . S
N1330 C1327 1.384 . S
N1331 C1323 1.427 . S
N1331 C1329 1.384 . S
H1332 C1338 0.923 1_556 S
H1333 C1342 0.930 . S
H1334 C1347 0.929 . S
H1335 C1345 0.929 1_556 S
H1336 C1340 0.929 . S
H1337 C1346 0.922 1_556 S
C1338 H1332 0.923 1_554 S
C1338 C1339 1.367 . S
C1338 C1346 1.378 . S
C1339 C1338 1.367 . S
C1339 C1347 1.433 . S
C1340 H1336 0.929 . S
C1340 C1342 1.378 . S
C1340 C1344 1.350 . S
C1341 C1344 1.463 . S
C1341 C1346 1.350 . S
C1341 N1349 1.427 . S
C1342 H1333 0.930 . S
C1342 C1340 1.378 . S
C1342 C1343 1.367 . S
C1343 C1342 1.367 . S
C1343 C1345 1.433 . S
C1344 C1340 1.350 . S
C1344 C1341 1.463 . S
C1344 N1348 1.427 . S
C1345 H1335 0.929 1_554 S
C1345 C1343 1.433 . S
C1345 N1348 1.384 . S
C1346 H1337 0.922 1_554 S
C1346 C1338 1.378 . S
C1346 C1341 1.350 . S
C1347 H1334 0.929 . S
C1347 C1339 1.433 . S
C1347 N1349 1.384 . S
N1348 C1344 1.427 . S
N1348 C1345 1.384 . S
N1349 C1341 1.427 . S
N1349 C1347 1.384 . S
H1350 C1356 0.930 . S
H1351 C1360 0.930 . S
H1352 C1365 0.929 . S
H1353 C1363 0.929 . S
H1354 C1358 0.929 . S
H1355 C1364 0.929 . S
C1356 H1350 0.930 . S
C1356 C1357 1.367 . S
C1356 C1364 1.378 . S
C1357 C1356 1.367 . S
C1357 C1365 1.433 . S
C1358 H1354 0.929 . S
C1358 C1360 1.378 . S
C1358 C1362 1.350 . S
C1359 C1362 1.463 . S
C1359 C1364 1.350 . S
C1359 N1367 1.427 . S
C1360 H1351 0.930 . S
C1360 C1358 1.378 . S
C1360 C1361 1.367 . S
C1361 C1360 1.367 . S
C1361 C1363 1.433 . S
C1362 C1358 1.350 . S
C1362 C1359 1.463 . S
C1362 N1366 1.427 . S
C1363 H1353 0.929 . S
C1363 C1361 1.433 . S
C1363 N1366 1.384 . S
C1364 H1355 0.929 . S
C1364 C1356 1.378 . S
C1364 C1359 1.350 . S
C1365 H1352 0.929 . S
C1365 C1357 1.433 . S
C1365 N1367 1.384 . S
N1366 C1362 1.427 . S
N1366 C1363 1.384 . S
N1367 C1359 1.427 . S
N1367 C1365 1.384 . S
H1368 C1374 0.930 . S
H1369 C1378 0.930 . S
H1370 C1383 0.929 . S
H1371 C1381 0.929 . S
H1372 C1376 0.929 . S
H1373 C1382 0.929 . S
C1374 H1368 0.930 . S
C1374 C1375 1.367 . S
C1374 C1382 1.378 . S
C1375 C1374 1.367 . S
C1375 C1383 1.433 . S
C1376 H1372 0.929 . S
C1376 C1378 1.378 . S
C1376 C1380 1.350 . S
C1377 C1380 1.463 . S
C1377 C1382 1.350 . S
C1377 N1385 1.427 . S
C1378 H1369 0.930 . S
C1378 C1376 1.378 . S
C1378 C1379 1.367 . S
C1379 C1378 1.367 . S
C1379 C1381 1.433 . S
C1380 C1376 1.350 . S
C1380 C1377 1.463 . S
C1380 N1384 1.427 . S
C1381 H1371 0.929 . S
C1381 C1379 1.433 . S
C1381 N1384 1.384 . S
C1382 H1373 0.929 . S
C1382 C1374 1.378 . S
C1382 C1377 1.350 . S
C1383 H1370 0.929 . S
C1383 C1375 1.433 . S
C1383 N1385 1.384 . S
N1384 C1380 1.427 . S
N1384 C1381 1.384 . S
N1385 C1377 1.427 . S
N1385 C1383 1.384 . S
H1386 C1392 0.930 1_554 S
H1387 C1396 0.930 . S
H1388 C1401 0.929 . S
H1389 C1399 0.929 1_554 S
H1390 C1394 0.929 . S
H1391 C1400 0.929 1_554 S
C1392 H1386 0.930 1_556 S
C1392 C1393 1.367 . S
C1392 C1400 1.378 . S
C1393 C1392 1.367 . S
C1393 C1401 1.433 . S
C1394 H1390 0.929 . S
C1394 C1396 1.378 . S
C1394 C1398 1.350 . S
C1395 C1398 1.463 . S
C1395 C1400 1.350 . S
C1395 N1403 1.427 . S
C1396 H1387 0.930 . S
C1396 C1394 1.378 . S
C1396 C1397 1.367 . S
C1397 C1396 1.367 . S
C1397 C1399 1.433 . S
C1398 C1394 1.350 . S
C1398 C1395 1.463 . S
C1398 N1402 1.427 . S
C1399 H1389 0.929 1_556 S
C1399 C1397 1.433 . S
C1399 N1402 1.384 . S
C1400 H1391 0.929 1_556 S
C1400 C1392 1.378 . S
C1400 C1395 1.350 . S
C1401 H1388 0.929 . S
C1401 C1393 1.433 . S
C1401 N1403 1.384 . S
N1402 C1398 1.427 . S
N1402 C1399 1.384 . S
N1403 C1395 1.427 . S
N1403 C1401 1.384 . S
H1404 C1410 0.930 . S
H1405 C1414 0.930 . S
H1406 C1419 0.929 . S
H1407 C1417 0.929 . S
H1408 C1412 0.929 . S
H1409 C1418 0.929 . S
C1410 H1404 0.930 . S
C1410 C1411 1.367 . S
C1410 C1418 1.378 . S
C1411 C1410 1.367 . S
C1411 C1419 1.433 . S
C1412 H1408 0.929 . S
C1412 C1414 1.378 . S
C1412 C1416 1.350 . S
C1413 C1416 1.463 . S
C1413 C1418 1.350 . S
C1413 N1421 1.427 . S
C1414 H1405 0.930 . S
C1414 C1412 1.378 . S
C1414 C1415 1.367 . S
C1415 C1414 1.367 . S
C1415 C1417 1.433 . S
C1416 C1412 1.350 . S
C1416 C1413 1.463 . S
C1416 N1420 1.427 . S
C1417 H1407 0.929 . S
C1417 C1415 1.433 . S
C1417 N1420 1.384 . S
C1418 H1409 0.929 . S
C1418 C1410 1.378 . S
C1418 C1413 1.350 . S
C1419 H1406 0.929 . S
C1419 C1411 1.433 . S
C1419 N1421 1.384 . S
N1420 C1416 1.427 . S
N1420 C1417 1.384 . S
N1421 C1413 1.427 . S
N1421 C1419 1.384 . S
H1422 C1428 0.930 . S
H1423 C1432 0.930 . S
H1424 C1437 0.929 . S
H1425 C1435 0.929 . S
H1426 C1430 0.929 . S
H1427 C1436 0.929 . S
C1428 H1422 0.930 . S
C1428 C1429 1.367 . S
C1428 C1436 1.378 . S
C1429 C1428 1.367 . S
C1429 C1437 1.433 . S
C1430 H1426 0.929 . S
C1430 C1432 1.378 . S
C1430 C1434 1.350 . S
C1431 C1434 1.463 . S
C1431 C1436 1.350 . S
C1431 N1439 1.427 . S
C1432 H1423 0.930 . S
C1432 C1430 1.378 . S
C1432 C1433 1.367 . S
C1433 C1432 1.367 . S
C1433 C1435 1.433 . S
C1434 C1430 1.350 . S
C1434 C1431 1.463 . S
C1434 N1438 1.427 . S
C1435 H1425 0.929 . S
C1435 C1433 1.433 . S
C1435 N1438 1.384 . S
C1436 H1427 0.929 . S
C1436 C1428 1.378 . S
C1436 C1431 1.350 . S
C1437 H1424 0.929 . S
C1437 C1429 1.433 . S
C1437 N1439 1.384 . S
N1438 C1434 1.427 . S
N1438 C1435 1.384 . S
N1439 C1431 1.427 . S
N1439 C1437 1.384 . S
H1440 C1446 0.930 . S
H1441 C1450 0.930 . S
H1442 C1455 0.929 . S
H1443 C1453 0.929 . S
H1444 C1448 0.929 . S
H1445 C1454 0.929 . S
C1446 H1440 0.930 . S
C1446 C1447 1.367 . S
C1446 C1454 1.378 . S
C1447 C1446 1.367 . S
C1447 C1455 1.433 . S
C1448 H1444 0.929 . S
C1448 C1450 1.378 . S
C1448 C1452 1.350 . S
C1449 C1452 1.463 . S
C1449 C1454 1.350 . S
C1449 N1457 1.427 . S
C1450 H1441 0.930 . S
C1450 C1448 1.378 . S
C1450 C1451 1.367 . S
C1451 C1450 1.367 . S
C1451 C1453 1.433 . S
C1452 C1448 1.350 . S
C1452 C1449 1.463 . S
C1452 N1456 1.427 . S
C1453 H1443 0.929 . S
C1453 C1451 1.433 . S
C1453 N1456 1.384 . S
C1454 H1445 0.929 . S
C1454 C1446 1.378 . S
C1454 C1449 1.350 . S
C1455 H1442 0.929 . S
C1455 C1447 1.433 . S
C1455 N1457 1.384 . S
N1456 C1452 1.427 . S
N1456 C1453 1.384 . S
N1457 C1449 1.427 . S
N1457 C1455 1.384 . S
H1458 C1464 0.930 . S
H1459 C1468 0.930 . S
H1460 C1473 0.929 . S
H1461 C1471 0.929 . S
H1462 C1466 0.929 . S
H1463 C1472 0.929 . S
C1464 H1458 0.930 . S
C1464 C1465 1.367 . S
C1464 C1472 1.378 . S
C1465 C1464 1.367 . S
C1465 C1473 1.433 . S
C1466 H1462 0.929 . S
C1466 C1468 1.378 . S
C1466 C1470 1.350 . S
C1467 C1470 1.463 . S
C1467 C1472 1.350 . S
C1467 N1475 1.427 . S
C1468 H1459 0.930 . S
C1468 C1466 1.378 . S
C1468 C1469 1.367 . S
C1469 C1468 1.367 . S
C1469 C1471 1.433 . S
C1470 C1466 1.350 . S
C1470 C1467 1.463 . S
C1470 N1474 1.427 . S
C1471 H1461 0.929 . S
C1471 C1469 1.433 . S
C1471 N1474 1.384 . S
C1472 H1463 0.929 . S
C1472 C1464 1.378 . S
C1472 C1467 1.350 . S
C1473 H1460 0.929 . S
C1473 C1465 1.433 . S
C1473 N1475 1.384 . S
N1474 C1470 1.427 . S
N1474 C1471 1.384 . S
N1475 C1467 1.427 . S
N1475 C1473 1.384 . S
H1476 C1482 0.930 . S
H1477 C1486 0.930 . S
H1478 C1491 0.929 . S
H1479 C1489 0.929 . S
H1480 C1484 0.929 . S
H1481 C1490 0.929 . S
C1482 H1476 0.930 . S
C1482 C1483 1.367 . S
C1482 C1490 1.378 . S
C1483 C1482 1.367 . S
C1483 C1491 1.433 . S
C1484 H1480 0.929 . S
C1484 C1486 1.378 . S
C1484 C1488 1.350 . S
C1485 C1488 1.463 . S
C1485 C1490 1.350 . S
C1485 N1493 1.427 . S
C1486 H1477 0.930 . S
C1486 C1484 1.378 . S
C1486 C1487 1.367 . S
C1487 C1486 1.367 . S
C1487 C1489 1.433 . S
C1488 C1484 1.350 . S
C1488 C1485 1.463 . S
C1488 N1492 1.427 . S
C1489 H1479 0.929 . S
C1489 C1487 1.433 . S
C1489 N1492 1.384 . S
C1490 H1481 0.929 . S
C1490 C1482 1.378 . S
C1490 C1485 1.350 . S
C1491 H1478 0.929 . S
C1491 C1483 1.433 . S
C1491 N1493 1.384 . S
N1492 C1488 1.427 . S
N1492 C1489 1.384 . S
N1493 C1485 1.427 . S
N1493 C1491 1.384 . S
H1494 C1500 0.930 . S
H1495 C1504 0.930 . S
H1496 C1509 0.929 . S
H1497 C1507 0.929 . S
H1498 C1502 0.929 . S
H1499 C1508 0.929 . S
C1500 H1494 0.930 . S
C1500 C1501 1.367 . S
C1500 C1508 1.378 . S
C1501 C1500 1.367 . S
C1501 C1509 1.433 . S
C1502 H1498 0.929 . S
C1502 C1504 1.378 . S
C1502 C1506 1.350 . S
C1503 C1506 1.463 . S
C1503 C1508 1.350 . S
C1503 N1511 1.427 . S
C1504 H1495 0.930 . S
C1504 C1502 1.378 . S
C1504 C1505 1.367 . S
C1505 C1504 1.367 . S
C1505 C1507 1.433 . S
C1506 C1502 1.350 . S
C1506 C1503 1.463 . S
C1506 N1510 1.427 . S
C1507 H1497 0.929 . S
C1507 C1505 1.433 . S
C1507 N1510 1.384 . S
C1508 H1499 0.929 . S
C1508 C1500 1.378 . S
C1508 C1503 1.350 . S
C1509 H1496 0.929 . S
C1509 C1501 1.433 . S
C1509 N1511 1.384 . S
N1510 C1506 1.427 . S
N1510 C1507 1.384 . S
N1511 C1503 1.427 . S
N1511 C1509 1.384 . S
H1512 C1518 0.930 . S
H1513 C1522 0.930 . S
H1514 C1527 0.929 . S
H1515 C1525 0.929 . S
H1516 C1520 0.929 . S
H1517 C1526 0.929 . S
C1518 H1512 0.930 . S
C1518 C1519 1.367 . S
C1518 C1526 1.378 . S
C1519 C1518 1.367 . S
C1519 C1527 1.433 . S
C1520 H1516 0.929 . S
C1520 C1522 1.378 . S
C1520 C1524 1.350 . S
C1521 C1524 1.463 . S
C1521 C1526 1.350 . S
C1521 N1529 1.427 . S
C1522 H1513 0.930 . S
C1522 C1520 1.378 . S
C1522 C1523 1.367 . S
C1523 C1522 1.367 . S
C1523 C1525 1.433 . S
C1524 C1520 1.350 . S
C1524 C1521 1.463 . S
C1524 N1528 1.427 . S
C1525 H1515 0.929 . S
C1525 C1523 1.433 . S
C1525 N1528 1.384 . S
C1526 H1517 0.929 . S
C1526 C1518 1.378 . S
C1526 C1521 1.350 . S
C1527 H1514 0.929 . S
C1527 C1519 1.433 . S
C1527 N1529 1.384 . S
N1528 C1524 1.427 . S
N1528 C1525 1.384 . S
N1529 C1521 1.427 . S
N1529 C1527 1.384 . S
H1530 C1536 0.930 . S
H1531 C1540 0.930 . S
H1532 C1545 0.929 . S
H1533 C1543 0.929 . S
H1534 C1538 0.929 . S
H1535 C1544 0.929 . S
C1536 H1530 0.930 . S
C1536 C1537 1.367 . S
C1536 C1544 1.378 . S
C1537 C1536 1.367 . S
C1537 C1545 1.433 . S
C1538 H1534 0.929 . S
C1538 C1540 1.378 . S
C1538 C1542 1.350 . S
C1539 C1542 1.463 . S
C1539 C1544 1.350 . S
C1539 N1547 1.427 . S
C1540 H1531 0.930 . S
C1540 C1538 1.378 . S
C1540 C1541 1.367 . S
C1541 C1540 1.367 . S
C1541 C1543 1.433 . S
C1542 C1538 1.350 . S
C1542 C1539 1.463 . S
C1542 N1546 1.427 . S
C1543 H1533 0.929 . S
C1543 C1541 1.433 . S
C1543 N1546 1.384 . S
C1544 H1535 0.929 . S
C1544 C1536 1.378 . S
C1544 C1539 1.350 . S
C1545 H1532 0.929 . S
C1545 C1537 1.433 . S
C1545 N1547 1.384 . S
N1546 C1542 1.427 . S
N1546 C1543 1.384 . S
N1547 C1539 1.427 . S
N1547 C1545 1.384 . S
H1548 C1554 0.930 . S
H1549 C1558 0.930 . S
H1550 C1563 0.929 . S
H1551 C1561 0.929 . S
H1552 C1556 0.929 . S
H1553 C1562 0.929 . S
C1554 H1548 0.930 . S
C1554 C1555 1.367 . S
C1554 C1562 1.378 . S
C1555 C1554 1.367 . S
C1555 C1563 1.433 . S
C1556 H1552 0.929 . S
C1556 C1558 1.378 . S
C1556 C1560 1.350 . S
C1557 C1560 1.463 . S
C1557 C1562 1.350 . S
C1557 N1565 1.427 . S
C1558 H1549 0.930 . S
C1558 C1556 1.378 . S
C1558 C1559 1.367 . S
C1559 C1558 1.367 . S
C1559 C1561 1.433 . S
C1560 C1556 1.350 . S
C1560 C1557 1.463 . S
C1560 N1564 1.427 . S
C1561 H1551 0.929 . S
C1561 C1559 1.433 . S
C1561 N1564 1.384 . S
C1562 H1553 0.929 . S
C1562 C1554 1.378 . S
C1562 C1557 1.350 . S
C1563 H1550 0.929 . S
C1563 C1555 1.433 . S
C1563 N1565 1.384 . S
N1564 C1560 1.427 . S
N1564 C1561 1.384 . S
N1565 C1557 1.427 . S
N1565 C1563 1.384 . S
H1566 C1572 0.930 . S
H1567 C1576 0.930 . S
H1568 C1581 0.929 . S
H1569 C1579 0.929 . S
H1570 C1574 0.929 . S
H1571 C1580 0.929 . S
C1572 H1566 0.930 . S
C1572 C1573 1.367 . S
C1572 C1580 1.378 . S
C1573 C1572 1.367 . S
C1573 C1581 1.433 . S
C1574 H1570 0.929 . S
C1574 C1576 1.378 . S
C1574 C1578 1.350 . S
C1575 C1578 1.463 . S
C1575 C1580 1.350 . S
C1575 N1583 1.427 . S
C1576 H1567 0.930 . S
C1576 C1574 1.378 . S
C1576 C1577 1.367 . S
C1577 C1576 1.367 . S
C1577 C1579 1.433 . S
C1578 C1574 1.350 . S
C1578 C1575 1.463 . S
C1578 N1582 1.427 . S
C1579 H1569 0.929 . S
C1579 C1577 1.433 . S
C1579 N1582 1.384 . S
C1580 H1571 0.929 . S
C1580 C1572 1.378 . S
C1580 C1575 1.350 . S
C1581 H1568 0.929 . S
C1581 C1573 1.433 . S
C1581 N1583 1.384 . S
N1582 C1578 1.427 . S
N1582 C1579 1.384 . S
N1583 C1575 1.427 . S
N1583 C1581 1.384 . S
H1584 C1590 0.930 . S
H1585 C1594 0.930 . S
H1586 C1599 0.929 . S
H1587 C1597 0.929 . S
H1588 C1592 0.929 . S
H1589 C1598 0.929 . S
C1590 H1584 0.930 . S
C1590 C1591 1.367 . S
C1590 C1598 1.378 . S
C1591 C1590 1.367 . S
C1591 C1599 1.433 . S
C1592 H1588 0.929 . S
C1592 C1594 1.378 . S
C1592 C1596 1.350 . S
C1593 C1596 1.463 . S
C1593 C1598 1.350 . S
C1593 N1601 1.427 . S
C1594 H1585 0.930 . S
C1594 C1592 1.378 . S
C1594 C1595 1.367 . S
C1595 C1594 1.367 . S
C1595 C1597 1.433 . S
C1596 C1592 1.350 . S
C1596 C1593 1.463 . S
C1596 N1600 1.427 . S
C1597 H1587 0.929 . S
C1597 C1595 1.433 . S
C1597 N1600 1.384 . S
C1598 H1589 0.929 . S
C1598 C1590 1.378 . S
C1598 C1593 1.350 . S
C1599 H1586 0.929 . S
C1599 C1591 1.433 . S
C1599 N1601 1.384 . S
N1600 C1596 1.427 . S
N1600 C1597 1.384 . S
N1601 C1593 1.427 . S
N1601 C1599 1.384 . S
H1602 C1608 0.930 . S
H1603 C1612 0.930 . S
H1604 C1617 0.929 . S
H1605 C1615 0.929 . S
H1606 C1610 0.929 . S
H1607 C1616 0.929 . S
C1608 H1602 0.930 . S
C1608 C1609 1.367 . S
C1608 C1616 1.378 . S
C1609 C1608 1.367 . S
C1609 C1617 1.433 . S
C1610 H1606 0.929 . S
C1610 C1612 1.378 . S
C1610 C1614 1.350 . S
C1611 C1614 1.463 . S
C1611 C1616 1.350 . S
C1611 N1619 1.427 . S
C1612 H1603 0.930 . S
C1612 C1610 1.378 . S
C1612 C1613 1.367 . S
C1613 C1612 1.367 . S
C1613 C1615 1.433 . S
C1614 C1610 1.350 . S
C1614 C1611 1.463 . S
C1614 N1618 1.427 . S
C1615 H1605 0.929 . S
C1615 C1613 1.433 . S
C1615 N1618 1.384 . S
C1616 H1607 0.929 . S
C1616 C1608 1.378 . S
C1616 C1611 1.350 . S
C1617 H1604 0.929 . S
C1617 C1609 1.433 . S
C1617 N1619 1.384 . S
N1618 C1614 1.427 . S
N1618 C1615 1.384 . S
N1619 C1611 1.427 . S
N1619 C1617 1.384 . S
H1620 C1626 0.930 . S
H1621 C1630 0.930 . S
H1622 C1635 0.929 . S
H1623 C1633 0.929 . S
H1624 C1628 0.929 . S
H1625 C1634 0.929 . S
C1626 H1620 0.930 . S
C1626 C1627 1.367 . S
C1626 C1634 1.378 . S
C1627 C1626 1.367 . S
C1627 C1635 1.433 1_554 S
C1628 H1624 0.929 . S
C1628 C1630 1.378 . S
C1628 C1632 1.350 . S
C1629 C1632 1.463 1_454 S
C1629 C1634 1.350 . S
C1629 N1637 1.427 1_554 S
C1630 H1621 0.930 . S
C1630 C1628 1.378 . S
C1630 C1631 1.367 . S
C1631 C1630 1.367 . S
C1631 C1633 1.433 1_556 S
C1632 C1628 1.350 . S
C1632 C1629 1.463 1_656 S
C1632 N1636 1.427 1_556 S
C1633 H1623 0.929 . S
C1633 C1631 1.433 1_554 S
C1633 N1636 1.384 . S
C1634 H1625 0.929 . S
C1634 C1626 1.378 . S
C1634 C1629 1.350 . S
C1635 H1622 0.929 . S
C1635 C1627 1.433 1_556 S
C1635 N1637 1.384 . S
N1636 C1632 1.427 1_554 S
N1636 C1633 1.384 . S
N1637 C1629 1.427 1_556 S
N1637 C1635 1.384 . S
H1638 C1644 0.930 . S
H1639 C1648 0.930 . S
H1640 C1653 0.929 . S
H1641 C1651 0.929 . S
H1642 C1646 0.929 . S
H1643 C1652 0.929 . S
C1644 H1638 0.930 . S
C1644 C1645 1.367 1_554 S
C1644 C1652 1.378 . S
C1645 C1644 1.367 1_556 S
C1645 C1653 1.433 . S
C1646 H1642 0.929 . S
C1646 C1648 1.378 . S
C1646 C1650 1.350 1_556 S
C1647 C1650 1.463 1_556 S
C1647 C1652 1.350 1_556 S
C1647 N1655 1.427 . S
C1648 H1639 0.930 . S
C1648 C1646 1.378 . S
C1648 C1649 1.367 1_556 S
C1649 C1648 1.367 1_554 S
C1649 C1651 1.433 . S
C1650 C1646 1.350 1_554 S
C1650 C1647 1.463 1_554 S
C1650 N1654 1.427 . S
C1651 H1641 0.929 . S
C1651 C1649 1.433 . S
C1651 N1654 1.384 . S
C1652 H1643 0.929 . S
C1652 C1644 1.378 . S
C1652 C1647 1.350 1_554 S
C1653 H1640 0.929 . S
C1653 C1645 1.433 . S
C1653 N1655 1.384 . S
N1654 C1650 1.427 . S
N1654 C1651 1.384 . S
N1655 C1647 1.427 . S
N1655 C1653 1.384 . S
H1656 C1662 0.930 . S
H1657 C1666 0.930 . S
H1658 C1671 0.929 . S
H1659 C1669 0.929 . S
H1660 C1664 0.929 . S
H1661 C1670 0.929 . S
C1662 H1656 0.930 . S
C1662 C1663 1.367 . S
C1662 C1670 1.378 . S
C1663 C1662 1.367 . S
C1663 C1671 1.433 1_554 S
C1664 H1660 0.929 . S
C1664 C1666 1.378 . S
C1664 C1668 1.350 . S
C1665 C1668 1.463 1_564 S
C1665 C1670 1.350 . S
C1665 N1673 1.427 1_554 S
C1666 H1657 0.930 . S
C1666 C1664 1.378 . S
C1666 C1667 1.367 . S
C1667 C1666 1.367 . S
C1667 C1669 1.433 1_556 S
C1668 C1664 1.350 . S
C1668 C1665 1.463 1_546 S
C1668 N1672 1.427 1_556 S
C1669 H1659 0.929 . S
C1669 C1667 1.433 1_554 S
C1669 N1672 1.384 . S
C1670 H1661 0.929 . S
C1670 C1662 1.378 . S
C1670 C1665 1.350 . S
C1671 H1658 0.929 . S
C1671 C1663 1.433 1_556 S
C1671 N1673 1.384 . S
N1672 C1668 1.427 1_554 S
N1672 C1669 1.384 . S
N1673 C1665 1.427 1_556 S
N1673 C1671 1.384 . S
H1674 C1680 0.930 . S
H1675 C1684 0.930 . S
H1676 C1689 0.929 . S
H1677 C1687 0.929 . S
H1678 C1682 0.929 . S
H1679 C1688 0.929 . S
C1680 H1674 0.930 . S
C1680 C1681 1.367 . S
C1680 C1688 1.378 . S
C1681 C1680 1.367 . S
C1681 C1689 1.433 . S
C1682 H1678 0.929 . S
C1682 C1684 1.378 . S
C1682 C1686 1.350 . S
C1683 C1686 1.463 1_656 S
C1683 C1688 1.350 . S
C1683 N1691 1.427 . S
C1684 H1675 0.930 . S
C1684 C1682 1.378 . S
C1684 C1685 1.367 . S
C1685 C1684 1.367 . S
C1685 C1687 1.433 . S
C1686 C1682 1.350 . S
C1686 C1683 1.463 1_454 S
C1686 N1690 1.427 . S
C1687 H1677 0.929 . S
C1687 C1685 1.433 . S
C1687 N1690 1.384 . S
C1688 H1679 0.929 . S
C1688 C1680 1.378 . S
C1688 C1683 1.350 . S
C1689 H1676 0.929 . S
C1689 C1681 1.433 . S
C1689 N1691 1.384 . S
N1690 C1686 1.427 . S
N1690 C1687 1.384 . S
N1691 C1683 1.427 . S
N1691 C1689 1.384 . S
H1692 C1698 0.930 . S
H1693 C1702 0.930 . S
H1694 C1707 0.929 . S
H1695 C1705 0.929 . S
H1696 C1700 0.929 . S
H1697 C1706 0.929 . S
C1698 H1692 0.930 . S
C1698 C1699 1.367 . S
C1698 C1706 1.378 . S
C1699 C1698 1.367 . S
C1699 C1707 1.433 1_556 S
C1700 H1696 0.929 . S
C1700 C1702 1.378 . S
C1700 C1704 1.350 . S
C1701 C1704 1.463 1_556 S
C1701 C1706 1.350 . S
C1701 N1709 1.427 1_556 S
C1702 H1693 0.930 . S
C1702 C1700 1.378 . S
C1702 C1703 1.367 . S
C1703 C1702 1.367 . S
C1703 C1705 1.433 1_554 S
C1704 C1700 1.350 . S
C1704 C1701 1.463 1_554 S
C1704 N1708 1.427 1_554 S
C1705 H1695 0.929 . S
C1705 C1703 1.433 1_556 S
C1705 N1708 1.384 . S
C1706 H1697 0.929 . S
C1706 C1698 1.378 . S
C1706 C1701 1.350 . S
C1707 H1694 0.929 . S
C1707 C1699 1.433 1_554 S
C1707 N1709 1.384 . S
N1708 C1704 1.427 1_556 S
N1708 C1705 1.384 . S
N1709 C1701 1.427 1_554 S
N1709 C1707 1.384 . S
H1710 C1716 0.930 . S
H1711 C1720 0.930 . S
H1712 C1725 0.929 . S
H1713 C1723 0.929 . S
H1714 C1718 0.929 . S
H1715 C1724 0.929 . S
C1716 H1710 0.930 . S
C1716 C1717 1.367 1_554 S
C1716 C1724 1.378 . S
C1717 C1716 1.367 1_556 S
C1717 C1725 1.433 . S
C1718 H1714 0.929 . S
C1718 C1720 1.378 . S
C1718 C1722 1.350 1_556 S
C1719 C1722 1.463 1_546 S
C1719 C1724 1.350 1_556 S
C1719 N1727 1.427 . S
C1720 H1711 0.930 . S
C1720 C1718 1.378 . S
C1720 C1721 1.367 1_556 S
C1721 C1720 1.367 1_554 S
C1721 C1723 1.433 . S
C1722 C1718 1.350 1_554 S
C1722 C1719 1.463 1_564 S
C1722 N1726 1.427 . S
C1723 H1713 0.929 . S
C1723 C1721 1.433 . S
C1723 N1726 1.384 . S
C1724 H1715 0.929 . S
C1724 C1716 1.378 . S
C1724 C1719 1.350 1_554 S
C1725 H1712 0.929 . S
C1725 C1717 1.433 . S
C1725 N1727 1.384 . S
N1726 C1722 1.427 . S
N1726 C1723 1.384 . S
N1727 C1719 1.427 . S
N1727 C1725 1.384 . S
H1728 C1734 0.930 . S
H1729 C1738 0.930 . S
H1730 C1743 0.929 . S
H1731 C1741 0.929 . S
H1732 C1736 0.929 . S
H1733 C1742 0.929 . S
C1734 H1728 0.930 . S
C1734 C1735 1.367 . S
C1734 C1742 1.378 . S
C1735 C1734 1.367 . S
C1735 C1743 1.433 . S
C1736 H1732 0.929 . S
C1736 C1738 1.378 . S
C1736 C1740 1.350 . S
C1737 C1740 1.463 . S
C1737 C1742 1.350 . S
C1737 N1745 1.427 . S
C1738 H1729 0.930 . S
C1738 C1736 1.378 . S
C1738 C1739 1.367 . S
C1739 C1738 1.367 . S
C1739 C1741 1.433 . S
C1740 C1736 1.350 . S
C1740 C1737 1.463 . S
C1740 N1744 1.427 . S
C1741 H1731 0.929 . S
C1741 C1739 1.433 . S
C1741 N1744 1.384 . S
C1742 H1733 0.929 . S
C1742 C1734 1.378 . S
C1742 C1737 1.350 . S
C1743 H1730 0.929 . S
C1743 C1735 1.433 . S
C1743 N1745 1.384 . S
N1744 C1740 1.427 . S
N1744 C1741 1.384 . S
N1745 C1737 1.427 . S
N1745 C1743 1.384 . S
H1746 C1752 0.930 . S
H1747 C1756 0.930 . S
H1748 C1761 0.929 . S
H1749 C1759 0.929 . S
H1750 C1754 0.929 . S
H1751 C1760 0.929 . S
C1752 H1746 0.930 . S
C1752 C1753 1.367 . S
C1752 C1760 1.378 . S
C1753 C1752 1.367 . S
C1753 C1761 1.433 . S
C1754 H1750 0.929 . S
C1754 C1756 1.378 . S
C1754 C1758 1.350 . S
C1755 C1758 1.463 . S
C1755 C1760 1.350 . S
C1755 N1763 1.427 . S
C1756 H1747 0.930 . S
C1756 C1754 1.378 . S
C1756 C1757 1.367 . S
C1757 C1756 1.367 . S
C1757 C1759 1.433 . S
C1758 C1754 1.350 . S
C1758 C1755 1.463 . S
C1758 N1762 1.427 . S
C1759 H1749 0.929 . S
C1759 C1757 1.433 . S
C1759 N1762 1.384 . S
C1760 H1751 0.929 . S
C1760 C1752 1.378 . S
C1760 C1755 1.350 . S
C1761 H1748 0.929 . S
C1761 C1753 1.433 . S
C1761 N1763 1.384 . S
N1762 C1758 1.427 . S
N1762 C1759 1.384 . S
N1763 C1755 1.427 . S
N1763 C1761 1.384 . S
H1764 C1770 0.930 . S
H1765 C1774 0.930 . S
H1766 C1779 0.929 . S
H1767 C1777 0.929 . S
H1768 C1772 0.929 . S
H1769 C1778 0.929 . S
C1770 H1764 0.930 . S
C1770 C1771 1.367 . S
C1770 C1778 1.378 . S
C1771 C1770 1.367 . S
C1771 C1779 1.433 . S
C1772 H1768 0.929 . S
C1772 C1774 1.378 . S
C1772 C1776 1.350 . S
C1773 C1776 1.463 . S
C1773 C1778 1.350 . S
C1773 N1781 1.427 . S
C1774 H1765 0.930 . S
C1774 C1772 1.378 . S
C1774 C1775 1.367 . S
C1775 C1774 1.367 . S
C1775 C1777 1.433 . S
C1776 C1772 1.350 . S
C1776 C1773 1.463 . S
C1776 N1780 1.427 . S
C1777 H1767 0.929 . S
C1777 C1775 1.433 . S
C1777 N1780 1.384 . S
C1778 H1769 0.929 . S
C1778 C1770 1.378 . S
C1778 C1773 1.350 . S
C1779 H1766 0.929 . S
C1779 C1771 1.433 . S
C1779 N1781 1.384 . S
N1780 C1776 1.427 . S
N1780 C1777 1.384 . S
N1781 C1773 1.427 . S
N1781 C1779 1.384 . S
H1782 C1788 0.930 . S
H1783 C1792 0.930 . S
H1784 C1797 0.929 . S
H1785 C1795 0.929 . S
H1786 C1790 0.929 . S
H1787 C1796 0.929 . S
C1788 H1782 0.930 . S
C1788 C1789 1.367 . S
C1788 C1796 1.378 . S
C1789 C1788 1.367 . S
C1789 C1797 1.433 . S
C1790 H1786 0.929 . S
C1790 C1792 1.378 . S
C1790 C1794 1.350 . S
C1791 C1794 1.463 . S
C1791 C1796 1.350 . S
C1791 N1799 1.427 . S
C1792 H1783 0.930 . S
C1792 C1790 1.378 . S
C1792 C1793 1.367 . S
C1793 C1792 1.367 . S
C1793 C1795 1.433 . S
C1794 C1790 1.350 . S
C1794 C1791 1.463 . S
C1794 N1798 1.427 . S
C1795 H1785 0.929 . S
C1795 C1793 1.433 . S
C1795 N1798 1.384 . S
C1796 H1787 0.929 . S
C1796 C1788 1.378 . S
C1796 C1791 1.350 . S
C1797 H1784 0.929 . S
C1797 C1789 1.433 . S
C1797 N1799 1.384 . S
N1798 C1794 1.427 . S
N1798 C1795 1.384 . S
N1799 C1791 1.427 . S
N1799 C1797 1.384 . S
H1800 C1806 0.930 . S
H1801 C1810 0.930 . S
H1802 C1815 0.929 . S
H1803 C1813 0.929 . S
H1804 C1808 0.929 . S
H1805 C1814 0.929 . S
C1806 H1800 0.930 . S
C1806 C1807 1.367 . S
C1806 C1814 1.378 . S
C1807 C1806 1.367 . S
C1807 C1815 1.433 . S
C1808 H1804 0.929 . S
C1808 C1810 1.378 . S
C1808 C1812 1.350 . S
C1809 C1812 1.463 . S
C1809 C1814 1.350 . S
C1809 N1817 1.427 . S
C1810 H1801 0.930 . S
C1810 C1808 1.378 . S
C1810 C1811 1.367 . S
C1811 C1810 1.367 . S
C1811 C1813 1.433 . S
C1812 C1808 1.350 . S
C1812 C1809 1.463 . S
C1812 N1816 1.427 . S
C1813 H1803 0.929 . S
C1813 C1811 1.433 . S
C1813 N1816 1.384 . S
C1814 H1805 0.929 . S
C1814 C1806 1.378 . S
C1814 C1809 1.350 . S
C1815 H1802 0.929 . S
C1815 C1807 1.433 . S
C1815 N1817 1.384 . S
N1816 C1812 1.427 . S
N1816 C1813 1.384 . S
N1817 C1809 1.427 . S
N1817 C1815 1.384 . S
H1818 C1824 0.930 . S
H1819 C1828 0.930 . S
H1820 C1833 0.929 . S
H1821 C1831 0.929 . S
H1822 C1826 0.929 . S
H1823 C1832 0.929 . S
C1824 H1818 0.930 . S
C1824 C1825 1.367 . S
C1824 C1832 1.378 . S
C1825 C1824 1.367 . S
C1825 C1833 1.433 . S
C1826 H1822 0.929 . S
C1826 C1828 1.378 . S
C1826 C1830 1.350 . S
C1827 C1830 1.463 . S
C1827 C1832 1.350 . S
C1827 N1835 1.427 . S
C1828 H1819 0.930 . S
C1828 C1826 1.378 . S
C1828 C1829 1.367 . S
C1829 C1828 1.367 . S
C1829 C1831 1.433 . S
C1830 C1826 1.350 . S
C1830 C1827 1.463 . S
C1830 N1834 1.427 . S
C1831 H1821 0.929 . S
C1831 C1829 1.433 . S
C1831 N1834 1.384 . S
C1832 H1823 0.929 . S
C1832 C1824 1.378 . S
C1832 C1827 1.350 . S
C1833 H1820 0.929 . S
C1833 C1825 1.433 . S
C1833 N1835 1.384 . S
N1834 C1830 1.427 . S
N1834 C1831 1.384 . S
N1835 C1827 1.427 . S
N1835 C1833 1.384 . S
H1836 C1842 0.930 . S
H1837 C1846 0.930 . S
H1838 C1851 0.929 . S
H1839 C1849 0.929 . S
H1840 C1844 0.929 . S
H1841 C1850 0.929 . S
C1842 H1836 0.930 . S
C1842 C1843 1.367 . S
C1842 C1850 1.378 . S
C1843 C1842 1.367 . S
C1843 C1851 1.433 . S
C1844 H1840 0.929 . S
C1844 C1846 1.378 . S
C1844 C1848 1.350 . S
C1845 C1848 1.463 . S
C1845 C1850 1.350 . S
C1845 N1853 1.427 . S
C1846 H1837 0.930 . S
C1846 C1844 1.378 . S
C1846 C1847 1.367 . S
C1847 C1846 1.367 . S
C1847 C1849 1.433 . S
C1848 C1844 1.350 . S
C1848 C1845 1.463 . S
C1848 N1852 1.427 . S
C1849 H1839 0.929 . S
C1849 C1847 1.433 . S
C1849 N1852 1.384 . S
C1850 H1841 0.929 . S
C1850 C1842 1.378 . S
C1850 C1845 1.350 . S
C1851 H1838 0.929 . S
C1851 C1843 1.433 . S
C1851 N1853 1.384 . S
N1852 C1848 1.427 . S
N1852 C1849 1.384 . S
N1853 C1845 1.427 . S
N1853 C1851 1.384 . S
H1854 C1860 0.930 . S
H1855 C1864 0.930 . S
H1856 C1869 0.929 . S
H1857 C1867 0.929 . S
H1858 C1862 0.929 . S
H1859 C1868 0.929 . S
C1860 H1854 0.930 . S
C1860 C1861 1.367 . S
C1860 C1868 1.378 . S
C1861 C1860 1.367 . S
C1861 C1869 1.433 . S
C1862 H1858 0.929 . S
C1862 C1864 1.378 . S
C1862 C1866 1.350 . S
C1863 C1866 1.463 . S
C1863 C1868 1.350 . S
C1863 N1871 1.427 . S
C1864 H1855 0.930 . S
C1864 C1862 1.378 . S
C1864 C1865 1.367 . S
C1865 C1864 1.367 . S
C1865 C1867 1.433 . S
C1866 C1862 1.350 . S
C1866 C1863 1.463 . S
C1866 N1870 1.427 . S
C1867 H1857 0.929 . S
C1867 C1865 1.433 . S
C1867 N1870 1.384 . S
C1868 H1859 0.929 . S
C1868 C1860 1.378 . S
C1868 C1863 1.350 . S
C1869 H1856 0.929 . S
C1869 C1861 1.433 . S
C1869 N1871 1.384 . S
N1870 C1866 1.427 . S
N1870 C1867 1.384 . S
N1871 C1863 1.427 . S
N1871 C1869 1.384 . S
H1872 C1878 0.930 . S
H1873 C1882 0.930 . S
H1874 C1887 0.929 . S
H1875 C1885 0.929 . S
H1876 C1880 0.929 . S
H1877 C1886 0.929 . S
C1878 H1872 0.930 . S
C1878 C1879 1.367 . S
C1878 C1886 1.378 . S
C1879 C1878 1.367 . S
C1879 C1887 1.433 . S
C1880 H1876 0.929 . S
C1880 C1882 1.378 . S
C1880 C1884 1.350 . S
C1881 C1884 1.463 . S
C1881 C1886 1.350 . S
C1881 N1889 1.427 . S
C1882 H1873 0.930 . S
C1882 C1880 1.378 . S
C1882 C1883 1.367 . S
C1883 C1882 1.367 . S
C1883 C1885 1.433 . S
C1884 C1880 1.350 . S
C1884 C1881 1.463 . S
C1884 N1888 1.427 . S
C1885 H1875 0.929 . S
C1885 C1883 1.433 . S
C1885 N1888 1.384 . S
C1886 H1877 0.929 . S
C1886 C1878 1.378 . S
C1886 C1881 1.350 . S
C1887 H1874 0.929 . S
C1887 C1879 1.433 . S
C1887 N1889 1.384 . S
N1888 C1884 1.427 . S
N1888 C1885 1.384 . S
N1889 C1881 1.427 . S
N1889 C1887 1.384 . S
H1890 C1896 0.930 . S
H1891 C1900 0.930 . S
H1892 C1905 0.929 . S
H1893 C1903 0.929 . S
H1894 C1898 0.929 . S
H1895 C1904 0.929 . S
C1896 H1890 0.930 . S
C1896 C1897 1.367 . S
C1896 C1904 1.378 . S
C1897 C1896 1.367 . S
C1897 C1905 1.433 . S
C1898 H1894 0.929 . S
C1898 C1900 1.378 . S
C1898 C1902 1.350 . S
C1899 C1902 1.463 . S
C1899 C1904 1.350 . S
C1899 N1907 1.427 . S
C1900 H1891 0.930 . S
C1900 C1898 1.378 . S
C1900 C1901 1.367 . S
C1901 C1900 1.367 . S
C1901 C1903 1.433 . S
C1902 C1898 1.350 . S
C1902 C1899 1.463 . S
C1902 N1906 1.427 . S
C1903 H1893 0.929 . S
C1903 C1901 1.433 . S
C1903 N1906 1.384 . S
C1904 H1895 0.929 . S
C1904 C1896 1.378 . S
C1904 C1899 1.350 . S
C1905 H1892 0.929 . S
C1905 C1897 1.433 . S
C1905 N1907 1.384 . S
N1906 C1902 1.427 . S
N1906 C1903 1.384 . S
N1907 C1899 1.427 . S
N1907 C1905 1.384 . S
H1908 C1914 0.930 . S
H1909 C1918 0.930 . S
H1910 C1923 0.929 . S
H1911 C1921 0.929 . S
H1912 C1916 0.929 . S
H1913 C1922 0.929 . S
C1914 H1908 0.930 . S
C1914 C1915 1.367 . S
C1914 C1922 1.378 . S
C1915 C1914 1.367 . S
C1915 C1923 1.433 . S
C1916 H1912 0.929 . S
C1916 C1918 1.378 . S
C1916 C1920 1.350 . S
C1917 C1920 1.463 . S
C1917 C1922 1.350 . S
C1917 N1925 1.427 . S
C1918 H1909 0.930 . S
C1918 C1916 1.378 . S
C1918 C1919 1.367 . S
C1919 C1918 1.367 . S
C1919 C1921 1.433 . S
C1920 C1916 1.350 . S
C1920 C1917 1.463 . S
C1920 N1924 1.427 . S
C1921 H1911 0.929 . S
C1921 C1919 1.433 . S
C1921 N1924 1.384 . S
C1922 H1913 0.929 . S
C1922 C1914 1.378 . S
C1922 C1917 1.350 . S
C1923 H1910 0.929 . S
C1923 C1915 1.433 . S
C1923 N1925 1.384 . S
N1924 C1920 1.427 . S
N1924 C1921 1.384 . S
N1925 C1917 1.427 . S
N1925 C1923 1.384 . S
H1926 C1932 0.930 . S
H1927 C1936 0.930 . S
H1928 C1941 0.929 . S
H1929 C1939 0.929 . S
H1930 C1934 0.929 . S
H1931 C1940 0.929 . S
C1932 H1926 0.930 . S
C1932 C1933 1.367 . S
C1932 C1940 1.378 . S
C1933 C1932 1.367 . S
C1933 C1941 1.433 . S
C1934 H1930 0.929 . S
C1934 C1936 1.378 . S
C1934 C1938 1.350 . S
C1935 C1938 1.463 . S
C1935 C1940 1.350 . S
C1935 N1943 1.427 . S
C1936 H1927 0.930 . S
C1936 C1934 1.378 . S
C1936 C1937 1.367 . S
C1937 C1936 1.367 . S
C1937 C1939 1.433 . S
C1938 C1934 1.350 . S
C1938 C1935 1.463 . S
C1938 N1942 1.427 . S
C1939 H1929 0.929 . S
C1939 C1937 1.433 . S
C1939 N1942 1.384 . S
C1940 H1931 0.929 . S
C1940 C1932 1.378 . S
C1940 C1935 1.350 . S
C1941 H1928 0.929 . S
C1941 C1933 1.433 . S
C1941 N1943 1.384 . S
N1942 C1938 1.427 . S
N1942 C1939 1.384 . S
N1943 C1935 1.427 . S
N1943 C1941 1.384 . S
H1944 C1950 0.930 . S
H1945 C1954 0.930 . S
H1946 C1959 0.929 . S
H1947 C1957 0.929 . S
H1948 C1952 0.929 . S
H1949 C1958 0.929 . S
C1950 H1944 0.930 . S
C1950 C1951 1.367 . S
C1950 C1958 1.378 . S
C1951 C1950 1.367 . S
C1951 C1959 1.433 . S
C1952 H1948 0.929 . S
C1952 C1954 1.378 . S
C1952 C1956 1.350 . S
C1953 C1956 1.463 . S
C1953 C1958 1.350 . S
C1953 N1961 1.427 . S
C1954 H1945 0.930 . S
C1954 C1952 1.378 . S
C1954 C1955 1.367 . S
C1955 C1954 1.367 . S
C1955 C1957 1.433 . S
C1956 C1952 1.350 . S
C1956 C1953 1.463 . S
C1956 N1960 1.427 . S
C1957 H1947 0.929 . S
C1957 C1955 1.433 . S
C1957 N1960 1.384 . S
C1958 H1949 0.929 . S
C1958 C1950 1.378 . S
C1958 C1953 1.350 . S
C1959 H1946 0.929 . S
C1959 C1951 1.433 . S
C1959 N1961 1.384 . S
N1960 C1956 1.427 . S
N1960 C1957 1.384 . S
N1961 C1953 1.427 . S
N1961 C1959 1.384 . S
H1962 C1968 0.930 . S
H1963 C1972 0.930 . S
H1964 C1977 0.929 . S
H1965 C1975 0.929 . S
H1966 C1970 0.929 . S
H1967 C1976 0.929 . S
C1968 H1962 0.930 . S
C1968 C1969 1.367 . S
C1968 C1976 1.378 . S
C1969 C1968 1.367 . S
C1969 C1977 1.433 . S
C1970 H1966 0.929 . S
C1970 C1972 1.378 . S
C1970 C1974 1.350 . S
C1971 C1974 1.463 . S
C1971 C1976 1.350 . S
C1971 N1979 1.427 . S
C1972 H1963 0.930 . S
C1972 C1970 1.378 . S
C1972 C1973 1.367 . S
C1973 C1972 1.367 . S
C1973 C1975 1.433 . S
C1974 C1970 1.350 . S
C1974 C1971 1.463 . S
C1974 N1978 1.427 . S
C1975 H1965 0.929 . S
C1975 C1973 1.433 . S
C1975 N1978 1.384 . S
C1976 H1967 0.929 . S
C1976 C1968 1.378 . S
C1976 C1971 1.350 . S
C1977 H1964 0.929 . S
C1977 C1969 1.433 . S
C1977 N1979 1.384 . S
N1978 C1974 1.427 . S
N1978 C1975 1.384 . S
N1979 C1971 1.427 . S
N1979 C1977 1.384 . S
H1980 C1986 0.930 . S
H1981 C1990 0.930 . S
H1982 C1995 0.929 . S
H1983 C1993 0.929 . S
H1984 C1988 0.929 . S
H1985 C1994 0.929 . S
C1986 H1980 0.930 . S
C1986 C1987 1.367 . S
C1986 C1994 1.378 . S
C1987 C1986 1.367 . S
C1987 C1995 1.433 . S
C1988 H1984 0.929 . S
C1988 C1990 1.378 . S
C1988 C1992 1.350 . S
C1989 C1992 1.463 . S
C1989 C1994 1.350 . S
C1989 N1997 1.427 . S
C1990 H1981 0.930 . S
C1990 C1988 1.378 . S
C1990 C1991 1.367 . S
C1991 C1990 1.367 . S
C1991 C1993 1.433 . S
C1992 C1988 1.350 . S
C1992 C1989 1.463 . S
C1992 N1996 1.427 . S
C1993 H1983 0.929 . S
C1993 C1991 1.433 . S
C1993 N1996 1.384 . S
C1994 H1985 0.929 . S
C1994 C1986 1.378 . S
C1994 C1989 1.350 . S
C1995 H1982 0.929 . S
C1995 C1987 1.433 . S
C1995 N1997 1.384 . S
N1996 C1992 1.427 . S
N1996 C1993 1.384 . S
N1997 C1989 1.427 . S
N1997 C1995 1.384 . S
H1998 C2004 0.930 . S
H1999 C2008 0.930 . S
H2000 C2013 0.929 . S
H2001 C2011 0.929 . S
H2002 C2006 0.929 . S
H2003 C2012 0.929 . S
C2004 H1998 0.930 . S
C2004 C2005 1.367 . S
C2004 C2012 1.378 . S
C2005 C2004 1.367 . S
C2005 C2013 1.433 . S
C2006 H2002 0.929 . S
C2006 C2008 1.378 . S
C2006 C2010 1.350 . S
C2007 C2010 1.463 . S
C2007 C2012 1.350 . S
C2007 N2015 1.427 . S
C2008 H1999 0.930 . S
C2008 C2006 1.378 . S
C2008 C2009 1.367 . S
C2009 C2008 1.367 . S
C2009 C2011 1.433 . S
C2010 C2006 1.350 . S
C2010 C2007 1.463 . S
C2010 N2014 1.427 . S
C2011 H2001 0.929 . S
C2011 C2009 1.433 . S
C2011 N2014 1.384 . S
C2012 H2003 0.929 . S
C2012 C2004 1.378 . S
C2012 C2007 1.350 . S
C2013 H2000 0.929 . S
C2013 C2005 1.433 . S
C2013 N2015 1.384 . S
N2014 C2010 1.427 . S
N2014 C2011 1.384 . S
N2015 C2007 1.427 . S
N2015 C2013 1.384 . S
H2016 C2022 0.930 . S
H2017 C2026 0.930 . S
H2018 C2031 0.929 . S
H2019 C2029 0.929 . S
H2020 C2024 0.929 . S
H2021 C2030 0.929 . S
C2022 H2016 0.930 . S
C2022 C2023 1.367 . S
C2022 C2030 1.378 . S
C2023 C2022 1.367 . S
C2023 C2031 1.433 . S
C2024 H2020 0.929 . S
C2024 C2026 1.378 . S
C2024 C2028 1.350 . S
C2025 C2028 1.463 . S
C2025 C2030 1.350 . S
C2025 N2033 1.427 . S
C2026 H2017 0.930 . S
C2026 C2024 1.378 . S
C2026 C2027 1.367 . S
C2027 C2026 1.367 . S
C2027 C2029 1.433 . S
C2028 C2024 1.350 . S
C2028 C2025 1.463 . S
C2028 N2032 1.427 . S
C2029 H2019 0.929 . S
C2029 C2027 1.433 . S
C2029 N2032 1.384 . S
C2030 H2021 0.929 . S
C2030 C2022 1.378 . S
C2030 C2025 1.350 . S
C2031 H2018 0.929 . S
C2031 C2023 1.433 . S
C2031 N2033 1.384 . S
N2032 C2028 1.427 . S
N2032 C2029 1.384 . S
N2033 C2025 1.427 . S
N2033 C2031 1.384 . S
H2034 C2040 0.930 . S
H2035 C2044 0.930 . S
H2036 C2049 0.929 . S
H2037 C2047 0.929 . S
H2038 C2042 0.929 . S
H2039 C2048 0.929 . S
C2040 H2034 0.930 . S
C2040 C2041 1.367 . S
C2040 C2048 1.378 . S
C2041 C2040 1.367 . S
C2041 C2049 1.433 . S
C2042 H2038 0.929 . S
C2042 C2044 1.378 . S
C2042 C2046 1.350 . S
C2043 C2046 1.463 . S
C2043 C2048 1.350 . S
C2043 N2051 1.427 . S
C2044 H2035 0.930 . S
C2044 C2042 1.378 . S
C2044 C2045 1.367 . S
C2045 C2044 1.367 . S
C2045 C2047 1.433 . S
C2046 C2042 1.350 . S
C2046 C2043 1.463 . S
C2046 N2050 1.427 . S
C2047 H2037 0.929 . S
C2047 C2045 1.433 . S
C2047 N2050 1.384 . S
C2048 H2039 0.929 . S
C2048 C2040 1.378 . S
C2048 C2043 1.350 . S
C2049 H2036 0.929 . S
C2049 C2041 1.433 . S
C2049 N2051 1.384 . S
N2050 C2046 1.427 . S
N2050 C2047 1.384 . S
N2051 C2043 1.427 . S
N2051 C2049 1.384 . S
H2052 C2058 0.930 . S
H2053 C2062 0.930 . S
H2054 C2067 0.929 . S
H2055 C2065 0.929 . S
H2056 C2060 0.929 . S
H2057 C2066 0.929 . S
C2058 H2052 0.930 . S
C2058 C2059 1.367 . S
C2058 C2066 1.378 . S
C2059 C2058 1.367 . S
C2059 C2067 1.433 . S
C2060 H2056 0.929 . S
C2060 C2062 1.378 . S
C2060 C2064 1.350 . S
C2061 C2064 1.463 . S
C2061 C2066 1.350 . S
C2061 N2069 1.427 . S
C2062 H2053 0.930 . S
C2062 C2060 1.378 . S
C2062 C2063 1.367 . S
C2063 C2062 1.367 . S
C2063 C2065 1.433 . S
C2064 C2060 1.350 . S
C2064 C2061 1.463 . S
C2064 N2068 1.427 . S
C2065 H2055 0.929 . S
C2065 C2063 1.433 . S
C2065 N2068 1.384 . S
C2066 H2057 0.929 . S
C2066 C2058 1.378 . S
C2066 C2061 1.350 . S
C2067 H2054 0.929 . S
C2067 C2059 1.433 . S
C2067 N2069 1.384 . S
N2068 C2064 1.427 . S
N2068 C2065 1.384 . S
N2069 C2061 1.427 . S
N2069 C2067 1.384 . S
H2070 C2076 0.930 . S
H2071 C2080 0.930 . S
H2072 C2085 0.929 . S
H2073 C2083 0.929 . S
H2074 C2078 0.929 . S
H2075 C2084 0.929 . S
C2076 H2070 0.930 . S
C2076 C2077 1.367 . S
C2076 C2084 1.378 . S
C2077 C2076 1.367 . S
C2077 C2085 1.433 . S
C2078 H2074 0.929 . S
C2078 C2080 1.378 . S
C2078 C2082 1.350 . S
C2079 C2082 1.463 . S
C2079 C2084 1.350 . S
C2079 N2087 1.427 . S
C2080 H2071 0.930 . S
C2080 C2078 1.378 . S
C2080 C2081 1.367 . S
C2081 C2080 1.367 . S
C2081 C2083 1.433 . S
C2082 C2078 1.350 . S
C2082 C2079 1.463 . S
C2082 N2086 1.427 . S
C2083 H2073 0.929 . S
C2083 C2081 1.433 . S
C2083 N2086 1.384 . S
C2084 H2075 0.929 . S
C2084 C2076 1.378 . S
C2084 C2079 1.350 . S
C2085 H2072 0.929 . S
C2085 C2077 1.433 . S
C2085 N2087 1.384 . S
N2086 C2082 1.427 . S
N2086 C2083 1.384 . S
N2087 C2079 1.427 . S
N2087 C2085 1.384 . S
H2088 C2094 0.930 . S
H2089 C2098 0.930 . S
H2090 C2103 0.929 . S
H2091 C2101 0.929 . S
H2092 C2096 0.929 . S
H2093 C2102 0.929 . S
C2094 H2088 0.930 . S
C2094 C2095 1.367 . S
C2094 C2102 1.378 . S
C2095 C2094 1.367 . S
C2095 C2103 1.433 . S
C2096 H2092 0.929 . S
C2096 C2098 1.378 . S
C2096 C2100 1.350 . S
C2097 C2100 1.463 . S
C2097 C2102 1.350 . S
C2097 N2105 1.427 . S
C2098 H2089 0.930 . S
C2098 C2096 1.378 . S
C2098 C2099 1.367 . S
C2099 C2098 1.367 . S
C2099 C2101 1.433 . S
C2100 C2096 1.350 . S
C2100 C2097 1.463 . S
C2100 N2104 1.427 . S
C2101 H2091 0.929 . S
C2101 C2099 1.433 . S
C2101 N2104 1.384 . S
C2102 H2093 0.929 . S
C2102 C2094 1.378 . S
C2102 C2097 1.350 . S
C2103 H2090 0.929 . S
C2103 C2095 1.433 . S
C2103 N2105 1.384 . S
N2104 C2100 1.427 . S
N2104 C2101 1.384 . S
N2105 C2097 1.427 . S
N2105 C2103 1.384 . S
H2106 C2112 0.930 . S
H2107 C2116 0.930 . S
H2108 C2121 0.929 . S
H2109 C2119 0.929 . S
H2110 C2114 0.929 . S
H2111 C2120 0.929 . S
C2112 H2106 0.930 . S
C2112 C2113 1.367 . S
C2112 C2120 1.378 . S
C2113 C2112 1.367 . S
C2113 C2121 1.433 . S
C2114 H2110 0.929 . S
C2114 C2116 1.378 . S
C2114 C2118 1.350 . S
C2115 C2118 1.463 . S
C2115 C2120 1.350 . S
C2115 N2123 1.427 . S
C2116 H2107 0.930 . S
C2116 C2114 1.378 . S
C2116 C2117 1.367 . S
C2117 C2116 1.367 . S
C2117 C2119 1.433 . S
C2118 C2114 1.350 . S
C2118 C2115 1.463 . S
C2118 N2122 1.427 . S
C2119 H2109 0.929 . S
C2119 C2117 1.433 . S
C2119 N2122 1.384 . S
C2120 H2111 0.929 . S
C2120 C2112 1.378 . S
C2120 C2115 1.350 . S
C2121 H2108 0.929 . S
C2121 C2113 1.433 . S
C2121 N2123 1.384 . S
N2122 C2118 1.427 . S
N2122 C2119 1.384 . S
N2123 C2115 1.427 . S
N2123 C2121 1.384 . S
H2124 C2130 0.930 . S
H2125 C2134 0.930 . S
H2126 C2139 0.929 . S
H2127 C2137 0.929 . S
H2128 C2132 0.929 . S
H2129 C2138 0.929 . S
C2130 H2124 0.930 . S
C2130 C2131 1.367 . S
C2130 C2138 1.378 . S
C2131 C2130 1.367 . S
C2131 C2139 1.433 . S
C2132 H2128 0.929 . S
C2132 C2134 1.378 . S
C2132 C2136 1.350 . S
C2133 C2136 1.463 . S
C2133 C2138 1.350 . S
C2133 N2141 1.427 . S
C2134 H2125 0.930 . S
C2134 C2132 1.378 . S
C2134 C2135 1.367 . S
C2135 C2134 1.367 . S
C2135 C2137 1.433 . S
C2136 C2132 1.350 . S
C2136 C2133 1.463 . S
C2136 N2140 1.427 . S
C2137 H2127 0.929 . S
C2137 C2135 1.433 . S
C2137 N2140 1.384 . S
C2138 H2129 0.929 . S
C2138 C2130 1.378 . S
C2138 C2133 1.350 . S
C2139 H2126 0.929 . S
C2139 C2131 1.433 . S
C2139 N2141 1.384 . S
N2140 C2136 1.427 . S
N2140 C2137 1.384 . S
N2141 C2133 1.427 . S
N2141 C2139 1.384 . S
H2142 C2148 0.930 . S
H2143 C2152 0.930 . S
H2144 C2157 0.929 . S
H2145 C2155 0.929 . S
H2146 C2150 0.929 . S
H2147 C2156 0.929 . S
C2148 H2142 0.930 . S
C2148 C2149 1.367 . S
C2148 C2156 1.378 . S
C2149 C2148 1.367 . S
C2149 C2157 1.433 . S
C2150 H2146 0.929 . S
C2150 C2152 1.378 . S
C2150 C2154 1.350 . S
C2151 C2154 1.463 . S
C2151 C2156 1.350 . S
C2151 N2159 1.427 . S
C2152 H2143 0.930 . S
C2152 C2150 1.378 . S
C2152 C2153 1.367 . S
C2153 C2152 1.367 . S
C2153 C2155 1.433 . S
C2154 C2150 1.350 . S
C2154 C2151 1.463 . S
C2154 N2158 1.427 . S
C2155 H2145 0.929 . S
C2155 C2153 1.433 . S
C2155 N2158 1.384 . S
C2156 H2147 0.929 . S
C2156 C2148 1.378 . S
C2156 C2151 1.350 . S
C2157 H2144 0.929 . S
C2157 C2149 1.433 . S
C2157 N2159 1.384 . S
N2158 C2154 1.427 . S
N2158 C2155 1.384 . S
N2159 C2151 1.427 . S
N2159 C2157 1.384 . S
H2160 C2166 0.930 . S
H2161 C2170 0.930 . S
H2162 C2175 0.929 . S
H2163 C2173 0.929 . S
H2164 C2168 0.929 . S
H2165 C2174 0.929 . S
C2166 H2160 0.930 . S
C2166 C2167 1.367 . S
C2166 C2174 1.378 1_455 S
C2167 C2166 1.367 . S
C2167 C2175 1.433 . S
C2168 H2164 0.929 . S
C2168 C2170 1.378 1_455 S
C2168 C2172 1.350 1_455 S
C2169 C2172 1.463 1_455 S
C2169 C2174 1.350 1_455 S
C2169 N2177 1.427 . S
C2170 H2161 0.930 . S
C2170 C2168 1.378 1_655 S
C2170 C2171 1.367 . S
C2171 C2170 1.367 . S
C2171 C2173 1.433 . S
C2172 C2168 1.350 1_655 S
C2172 C2169 1.463 1_655 S
C2172 N2176 1.427 . S
C2173 H2163 0.929 . S
C2173 C2171 1.433 . S
C2173 N2176 1.384 . S
C2174 H2165 0.929 . S
C2174 C2166 1.378 1_655 S
C2174 C2169 1.350 1_655 S
C2175 H2162 0.929 . S
C2175 C2167 1.433 . S
C2175 N2177 1.384 . S
N2176 C2172 1.427 . S
N2176 C2173 1.384 . S
N2177 C2169 1.427 . S
N2177 C2175 1.384 . S
H2178 C2184 0.930 . S
H2179 C2188 0.930 . S
H2180 C2193 0.929 . S
H2181 C2191 0.929 . S
H2182 C2186 0.929 . S
H2183 C2192 0.929 . S
C2184 H2178 0.930 . S
C2184 C2185 1.367 . S
C2184 C2192 1.378 . S
C2185 C2184 1.367 . S
C2185 C2193 1.433 . S
C2186 H2182 0.929 . S
C2186 C2188 1.378 . S
C2186 C2190 1.350 . S
C2187 C2190 1.463 . S
C2187 C2192 1.350 . S
C2187 N2195 1.427 . S
C2188 H2179 0.930 . S
C2188 C2186 1.378 . S
C2188 C2189 1.367 . S
C2189 C2188 1.367 . S
C2189 C2191 1.433 . S
C2190 C2186 1.350 . S
C2190 C2187 1.463 . S
C2190 N2194 1.427 . S
C2191 H2181 0.929 . S
C2191 C2189 1.433 . S
C2191 N2194 1.384 . S
C2192 H2183 0.929 . S
C2192 C2184 1.378 . S
C2192 C2187 1.350 . S
C2193 H2180 0.929 . S
C2193 C2185 1.433 . S
C2193 N2195 1.384 . S
N2194 C2190 1.427 . S
N2194 C2191 1.384 . S
N2195 C2187 1.427 . S
N2195 C2193 1.384 . S
H2196 C2202 0.930 . S
H2197 C2206 0.930 . S
H2198 C2211 0.929 . S
H2199 C2209 0.929 . S
H2200 C2204 0.929 . S
H2201 C2210 0.929 . S
C2202 H2196 0.930 . S
C2202 C2203 1.367 . S
C2202 C2210 1.378 . S
C2203 C2202 1.367 . S
C2203 C2211 1.433 . S
C2204 H2200 0.929 . S
C2204 C2206 1.378 . S
C2204 C2208 1.350 . S
C2205 C2208 1.463 1_565 S
C2205 C2210 1.350 . S
C2205 N2213 1.427 . S
C2206 H2197 0.930 . S
C2206 C2204 1.378 . S
C2206 C2207 1.367 . S
C2207 C2206 1.367 . S
C2207 C2209 1.433 . S
C2208 C2204 1.350 . S
C2208 C2205 1.463 1_545 S
C2208 N2212 1.427 . S
C2209 H2199 0.929 . S
C2209 C2207 1.433 . S
C2209 N2212 1.384 . S
C2210 H2201 0.929 . S
C2210 C2202 1.378 . S
C2210 C2205 1.350 . S
C2211 H2198 0.929 . S
C2211 C2203 1.433 . S
C2211 N2213 1.384 . S
N2212 C2208 1.427 . S
N2212 C2209 1.384 . S
N2213 C2205 1.427 . S
N2213 C2211 1.384 . S
H2214 C2220 0.930 . S
H2215 C2224 0.930 . S
H2216 C2229 0.929 . S
H2217 C2227 0.929 . S
H2218 C2222 0.929 1_565 S
H2219 C2228 0.929 1_545 S
C2220 H2214 0.930 . S
C2220 C2221 1.367 . S
C2220 C2228 1.378 . S
C2221 C2220 1.367 . S
C2221 C2229 1.433 . S
C2222 H2218 0.929 1_545 S
C2222 C2224 1.378 . S
C2222 C2226 1.350 . S
C2223 C2226 1.463 1_565 S
C2223 C2228 1.350 . S
C2223 N2231 1.427 . S
C2224 H2215 0.930 . S
C2224 C2222 1.378 . S
C2224 C2225 1.367 . S
C2225 C2224 1.367 . S
C2225 C2227 1.433 . S
C2226 C2222 1.350 . S
C2226 C2223 1.463 1_545 S
C2226 N2230 1.427 . S
C2227 H2217 0.929 . S
C2227 C2225 1.433 . S
C2227 N2230 1.384 . S
C2228 H2219 0.929 1_565 S
C2228 C2220 1.378 . S
C2228 C2223 1.350 . S
C2229 H2216 0.929 . S
C2229 C2221 1.433 . S
C2229 N2231 1.384 . S
N2230 C2226 1.427 . S
N2230 C2227 1.384 . S
N2231 C2223 1.427 . S
N2231 C2229 1.384 . S
H2232 C2238 0.930 . S
H2233 C2242 0.930 . S
H2234 C2247 0.929 . S
H2235 C2245 0.929 . S
H2236 C2240 0.929 1_655 S
H2237 C2246 0.929 1_455 S
C2238 H2232 0.930 . S
C2238 C2239 1.367 . S
C2238 C2246 1.378 . S
C2239 C2238 1.367 . S
C2239 C2247 1.433 . S
C2240 H2236 0.929 1_455 S
C2240 C2242 1.378 . S
C2240 C2244 1.350 . S
C2241 C2244 1.463 1_655 S
C2241 C2246 1.350 . S
C2241 N2249 1.427 . S
C2242 H2233 0.930 . S
C2242 C2240 1.378 . S
C2242 C2243 1.367 . S
C2243 C2242 1.367 . S
C2243 C2245 1.433 . S
C2244 C2240 1.350 . S
C2244 C2241 1.463 1_455 S
C2244 N2248 1.427 . S
C2245 H2235 0.929 . S
C2245 C2243 1.433 . S
C2245 N2248 1.384 . S
C2246 H2237 0.929 1_655 S
C2246 C2238 1.378 . S
C2246 C2241 1.350 . S
C2247 H2234 0.929 . S
C2247 C2239 1.433 . S
C2247 N2249 1.384 . S
N2248 C2244 1.427 . S
N2248 C2245 1.384 . S
N2249 C2241 1.427 . S
N2249 C2247 1.384 . S
H2250 C2256 0.930 . S
H2251 C2260 0.930 . S
H2252 C2265 0.929 . S
H2253 C2263 0.929 . S
H2254 C2258 0.929 . S
H2255 C2264 0.929 . S
C2256 H2250 0.930 . S
C2256 C2257 1.367 . S
C2256 C2264 1.378 . S
C2257 C2256 1.367 . S
C2257 C2265 1.433 . S
C2258 H2254 0.929 . S
C2258 C2260 1.378 . S
C2258 C2262 1.350 . S
C2259 C2262 1.463 . S
C2259 C2264 1.350 . S
C2259 N2267 1.427 . S
C2260 H2251 0.930 . S
C2260 C2258 1.378 . S
C2260 C2261 1.367 . S
C2261 C2260 1.367 . S
C2261 C2263 1.433 . S
C2262 C2258 1.350 . S
C2262 C2259 1.463 . S
C2262 N2266 1.427 . S
C2263 H2253 0.929 . S
C2263 C2261 1.433 . S
C2263 N2266 1.384 . S
C2264 H2255 0.929 . S
C2264 C2256 1.378 . S
C2264 C2259 1.350 . S
C2265 H2252 0.929 . S
C2265 C2257 1.433 . S
C2265 N2267 1.384 . S
N2266 C2262 1.427 . S
N2266 C2263 1.384 . S
N2267 C2259 1.427 . S
N2267 C2265 1.384 . S
H2268 C2274 0.930 . S
H2269 C2278 0.930 . S
H2270 C2283 0.929 . S
H2271 C2281 0.929 . S
H2272 C2276 0.929 . S
H2273 C2282 0.929 . S
C2274 H2268 0.930 . S
C2274 C2275 1.367 . S
C2274 C2282 1.378 . S
C2275 C2274 1.367 . S
C2275 C2283 1.433 . S
C2276 H2272 0.929 . S
C2276 C2278 1.378 . S
C2276 C2280 1.350 . S
C2277 C2280 1.463 . S
C2277 C2282 1.350 . S
C2277 N2285 1.427 . S
C2278 H2269 0.930 . S
C2278 C2276 1.378 . S
C2278 C2279 1.367 . S
C2279 C2278 1.367 . S
C2279 C2281 1.433 . S
C2280 C2276 1.350 . S
C2280 C2277 1.463 . S
C2280 N2284 1.427 . S
C2281 H2271 0.929 . S
C2281 C2279 1.433 . S
C2281 N2284 1.384 . S
C2282 H2273 0.929 . S
C2282 C2274 1.378 . S
C2282 C2277 1.350 . S
C2283 H2270 0.929 . S
C2283 C2275 1.433 . S
C2283 N2285 1.384 . S
N2284 C2280 1.427 . S
N2284 C2281 1.384 . S
N2285 C2277 1.427 . S
N2285 C2283 1.384 . S
H2286 C2292 0.930 . S
H2287 C2296 0.930 . S
H2288 C2301 0.929 . S
H2289 C2299 0.929 . S
H2290 C2294 0.929 . S
H2291 C2300 0.929 . S
C2292 H2286 0.930 . S
C2292 C2293 1.367 . S
C2292 C2300 1.378 . S
C2293 C2292 1.367 . S
C2293 C2301 1.433 . S
C2294 H2290 0.929 . S
C2294 C2296 1.378 . S
C2294 C2298 1.350 . S
C2295 C2298 1.463 . S
C2295 C2300 1.350 . S
C2295 N2303 1.427 . S
C2296 H2287 0.930 . S
C2296 C2294 1.378 . S
C2296 C2297 1.367 . S
C2297 C2296 1.367 . S
C2297 C2299 1.433 . S
C2298 C2294 1.350 . S
C2298 C2295 1.463 . S
C2298 N2302 1.427 . S
C2299 H2289 0.929 . S
C2299 C2297 1.433 . S
C2299 N2302 1.384 . S
C2300 H2291 0.929 . S
C2300 C2292 1.378 . S
C2300 C2295 1.350 . S
C2301 H2288 0.929 . S
C2301 C2293 1.433 . S
C2301 N2303 1.384 . S
N2302 C2298 1.427 . S
N2302 C2299 1.384 . S
N2303 C2295 1.427 . S
N2303 C2301 1.384 . S
H2304 C2310 0.930 . S
H2305 C2314 0.930 . S
H2306 C2319 0.929 . S
H2307 C2317 0.929 . S
H2308 C2312 0.929 . S
H2309 C2318 0.929 . S
C2310 H2304 0.930 . S
C2310 C2311 1.367 . S
C2310 C2318 1.378 . S
C2311 C2310 1.367 . S
C2311 C2319 1.433 . S
C2312 H2308 0.929 . S
C2312 C2314 1.378 . S
C2312 C2316 1.350 . S
C2313 C2316 1.463 . S
C2313 C2318 1.350 . S
C2313 N2321 1.427 . S
C2314 H2305 0.930 . S
C2314 C2312 1.378 . S
C2314 C2315 1.367 . S
C2315 C2314 1.367 . S
C2315 C2317 1.433 . S
C2316 C2312 1.350 . S
C2316 C2313 1.463 . S
C2316 N2320 1.427 . S
C2317 H2307 0.929 . S
C2317 C2315 1.433 . S
C2317 N2320 1.384 . S
C2318 H2309 0.929 . S
C2318 C2310 1.378 . S
C2318 C2313 1.350 . S
C2319 H2306 0.929 . S
C2319 C2311 1.433 . S
C2319 N2321 1.384 . S
N2320 C2316 1.427 . S
N2320 C2317 1.384 . S
N2321 C2313 1.427 . S
N2321 C2319 1.384 . S
H2322 C2328 0.930 . S
H2323 C2332 0.930 . S
H2324 C2337 0.929 . S
H2325 C2335 0.929 . S
H2326 C2330 0.929 . S
H2327 C2336 0.929 . S
C2328 H2322 0.930 . S
C2328 C2329 1.367 . S
C2328 C2336 1.378 . S
C2329 C2328 1.367 . S
C2329 C2337 1.433 . S
C2330 H2326 0.929 . S
C2330 C2332 1.378 . S
C2330 C2334 1.350 . S
C2331 C2334 1.463 . S
C2331 C2336 1.350 . S
C2331 N2339 1.427 . S
C2332 H2323 0.930 . S
C2332 C2330 1.378 . S
C2332 C2333 1.367 . S
C2333 C2332 1.367 . S
C2333 C2335 1.433 . S
C2334 C2330 1.350 . S
C2334 C2331 1.463 . S
C2334 N2338 1.427 . S
C2335 H2325 0.929 . S
C2335 C2333 1.433 . S
C2335 N2338 1.384 . S
C2336 H2327 0.929 . S
C2336 C2328 1.378 . S
C2336 C2331 1.350 . S
C2337 H2324 0.929 . S
C2337 C2329 1.433 . S
C2337 N2339 1.384 . S
N2338 C2334 1.427 . S
N2338 C2335 1.384 . S
N2339 C2331 1.427 . S
N2339 C2337 1.384 . S
H2340 C2346 0.930 . S
H2341 C2350 0.930 . S
H2342 C2355 0.929 . S
H2343 C2353 0.929 . S
H2344 C2348 0.929 . S
H2345 C2354 0.929 . S
C2346 H2340 0.930 . S
C2346 C2347 1.367 . S
C2346 C2354 1.378 . S
C2347 C2346 1.367 . S
C2347 C2355 1.433 . S
C2348 H2344 0.929 . S
C2348 C2350 1.378 . S
C2348 C2352 1.350 . S
C2349 C2352 1.463 . S
C2349 C2354 1.350 . S
C2349 N2357 1.427 . S
C2350 H2341 0.930 . S
C2350 C2348 1.378 . S
C2350 C2351 1.367 . S
C2351 C2350 1.367 . S
C2351 C2353 1.433 . S
C2352 C2348 1.350 . S
C2352 C2349 1.463 . S
C2352 N2356 1.427 . S
C2353 H2343 0.929 . S
C2353 C2351 1.433 . S
C2353 N2356 1.384 . S
C2354 H2345 0.929 . S
C2354 C2346 1.378 . S
C2354 C2349 1.350 . S
C2355 H2342 0.929 . S
C2355 C2347 1.433 . S
C2355 N2357 1.384 . S
N2356 C2352 1.427 . S
N2356 C2353 1.384 . S
N2357 C2349 1.427 . S
N2357 C2355 1.384 . S
H2358 C2364 0.930 . S
H2359 C2368 0.930 . S
H2360 C2373 0.929 . S
H2361 C2371 0.929 . S
H2362 C2366 0.929 . S
H2363 C2372 0.929 . S
C2364 H2358 0.930 . S
C2364 C2365 1.367 . S
C2364 C2372 1.378 . S
C2365 C2364 1.367 . S
C2365 C2373 1.433 . S
C2366 H2362 0.929 . S
C2366 C2368 1.378 . S
C2366 C2370 1.350 . S
C2367 C2370 1.463 . S
C2367 C2372 1.350 . S
C2367 N2375 1.427 . S
C2368 H2359 0.930 . S
C2368 C2366 1.378 . S
C2368 C2369 1.367 . S
C2369 C2368 1.367 . S
C2369 C2371 1.433 . S
C2370 C2366 1.350 . S
C2370 C2367 1.463 . S
C2370 N2374 1.427 . S
C2371 H2361 0.929 . S
C2371 C2369 1.433 . S
C2371 N2374 1.384 . S
C2372 H2363 0.929 . S
C2372 C2364 1.378 . S
C2372 C2367 1.350 . S
C2373 H2360 0.929 . S
C2373 C2365 1.433 . S
C2373 N2375 1.384 . S
N2374 C2370 1.427 . S
N2374 C2371 1.384 . S
N2375 C2367 1.427 . S
N2375 C2373 1.384 . S
H2376 C2382 0.930 . S
H2377 C2386 0.930 . S
H2378 C2391 0.929 . S
H2379 C2389 0.929 . S
H2380 C2384 0.929 . S
H2381 C2390 0.929 . S
C2382 H2376 0.930 . S
C2382 C2383 1.367 . S
C2382 C2390 1.378 . S
C2383 C2382 1.367 . S
C2383 C2391 1.433 . S
C2384 H2380 0.929 . S
C2384 C2386 1.378 . S
C2384 C2388 1.350 . S
C2385 C2388 1.463 . S
C2385 C2390 1.350 . S
C2385 N2393 1.427 . S
C2386 H2377 0.930 . S
C2386 C2384 1.378 . S
C2386 C2387 1.367 . S
C2387 C2386 1.367 . S
C2387 C2389 1.433 . S
C2388 C2384 1.350 . S
C2388 C2385 1.463 . S
C2388 N2392 1.427 . S
C2389 H2379 0.929 . S
C2389 C2387 1.433 . S
C2389 N2392 1.384 . S
C2390 H2381 0.929 . S
C2390 C2382 1.378 . S
C2390 C2385 1.350 . S
C2391 H2378 0.929 . S
C2391 C2383 1.433 . S
C2391 N2393 1.384 . S
N2392 C2388 1.427 . S
N2392 C2389 1.384 . S
N2393 C2385 1.427 . S
N2393 C2391 1.384 . S
H2394 C2400 0.930 . S
H2395 C2404 0.930 . S
H2396 C2409 0.929 . S
H2397 C2407 0.929 . S
H2398 C2402 0.929 . S
H2399 C2408 0.929 . S
C2400 H2394 0.930 . S
C2400 C2401 1.367 . S
C2400 C2408 1.378 . S
C2401 C2400 1.367 . S
C2401 C2409 1.433 . S
C2402 H2398 0.929 . S
C2402 C2404 1.378 . S
C2402 C2406 1.350 . S
C2403 C2406 1.463 . S
C2403 C2408 1.350 . S
C2403 N2411 1.427 . S
C2404 H2395 0.930 . S
C2404 C2402 1.378 . S
C2404 C2405 1.367 . S
C2405 C2404 1.367 . S
C2405 C2407 1.433 . S
C2406 C2402 1.350 . S
C2406 C2403 1.463 . S
C2406 N2410 1.427 . S
C2407 H2397 0.929 . S
C2407 C2405 1.433 . S
C2407 N2410 1.384 . S
C2408 H2399 0.929 . S
C2408 C2400 1.378 . S
C2408 C2403 1.350 . S
C2409 H2396 0.929 . S
C2409 C2401 1.433 . S
C2409 N2411 1.384 . S
N2410 C2406 1.427 . S
N2410 C2407 1.384 . S
N2411 C2403 1.427 . S
N2411 C2409 1.384 . S
H2412 C2418 0.930 . S
H2413 C2422 0.930 . S
H2414 C2427 0.929 . S
H2415 C2425 0.929 . S
H2416 C2420 0.929 . S
H2417 C2426 0.929 . S
C2418 H2412 0.930 . S
C2418 C2419 1.367 . S
C2418 C2426 1.378 . S
C2419 C2418 1.367 . S
C2419 C2427 1.433 . S
C2420 H2416 0.929 . S
C2420 C2422 1.378 . S
C2420 C2424 1.350 . S
C2421 C2424 1.463 . S
C2421 C2426 1.350 . S
C2421 N2429 1.427 . S
C2422 H2413 0.930 . S
C2422 C2420 1.378 . S
C2422 C2423 1.367 . S
C2423 C2422 1.367 . S
C2423 C2425 1.433 . S
C2424 C2420 1.350 . S
C2424 C2421 1.463 . S
C2424 N2428 1.427 . S
C2425 H2415 0.929 . S
C2425 C2423 1.433 . S
C2425 N2428 1.384 . S
C2426 H2417 0.929 . S
C2426 C2418 1.378 . S
C2426 C2421 1.350 . S
C2427 H2414 0.929 . S
C2427 C2419 1.433 . S
C2427 N2429 1.384 . S
N2428 C2424 1.427 . S
N2428 C2425 1.384 . S
N2429 C2421 1.427 . S
N2429 C2427 1.384 . S
H2430 C2436 0.930 . S
H2431 C2440 0.930 . S
H2432 C2445 0.929 . S
H2433 C2443 0.929 . S
H2434 C2438 0.929 . S
H2435 C2444 0.929 . S
C2436 H2430 0.930 . S
C2436 C2437 1.367 . S
C2436 C2444 1.378 . S
C2437 C2436 1.367 . S
C2437 C2445 1.433 . S
C2438 H2434 0.929 . S
C2438 C2440 1.378 . S
C2438 C2442 1.350 . S
C2439 C2442 1.463 . S
C2439 C2444 1.350 . S
C2439 N2447 1.427 . S
C2440 H2431 0.930 . S
C2440 C2438 1.378 . S
C2440 C2441 1.367 . S
C2441 C2440 1.367 . S
C2441 C2443 1.433 . S
C2442 C2438 1.350 . S
C2442 C2439 1.463 . S
C2442 N2446 1.427 . S
C2443 H2433 0.929 . S
C2443 C2441 1.433 . S
C2443 N2446 1.384 . S
C2444 H2435 0.929 . S
C2444 C2436 1.378 . S
C2444 C2439 1.350 . S
C2445 H2432 0.929 . S
C2445 C2437 1.433 . S
C2445 N2447 1.384 . S
N2446 C2442 1.427 . S
N2446 C2443 1.384 . S
N2447 C2439 1.427 . S
N2447 C2445 1.384 . S
H2448 C2454 0.930 . S
H2449 C2458 0.930 . S
H2450 C2463 0.929 . S
H2451 C2461 0.929 . S
H2452 C2456 0.929 . S
H2453 C2462 0.929 . S
C2454 H2448 0.930 . S
C2454 C2455 1.367 . S
C2454 C2462 1.378 . S
C2455 C2454 1.367 . S
C2455 C2463 1.433 . S
C2456 H2452 0.929 . S
C2456 C2458 1.378 . S
C2456 C2460 1.350 . S
C2457 C2460 1.463 . S
C2457 C2462 1.350 . S
C2457 N2465 1.427 . S
C2458 H2449 0.930 . S
C2458 C2456 1.378 . S
C2458 C2459 1.367 . S
C2459 C2458 1.367 . S
C2459 C2461 1.433 . S
C2460 C2456 1.350 . S
C2460 C2457 1.463 . S
C2460 N2464 1.427 . S
C2461 H2451 0.929 . S
C2461 C2459 1.433 . S
C2461 N2464 1.384 . S
C2462 H2453 0.929 . S
C2462 C2454 1.378 . S
C2462 C2457 1.350 . S
C2463 H2450 0.929 . S
C2463 C2455 1.433 . S
C2463 N2465 1.384 . S
N2464 C2460 1.427 . S
N2464 C2461 1.384 . S
N2465 C2457 1.427 . S
N2465 C2463 1.384 . S
H2466 C2472 0.930 . S
H2467 C2476 0.930 . S
H2468 C2481 0.929 . S
H2469 C2479 0.929 . S
H2470 C2474 0.929 . S
H2471 C2480 0.929 . S
C2472 H2466 0.930 . S
C2472 C2473 1.367 . S
C2472 C2480 1.378 . S
C2473 C2472 1.367 . S
C2473 C2481 1.433 . S
C2474 H2470 0.929 . S
C2474 C2476 1.378 . S
C2474 C2478 1.350 . S
C2475 C2478 1.463 . S
C2475 C2480 1.350 . S
C2475 N2483 1.427 . S
C2476 H2467 0.930 . S
C2476 C2474 1.378 . S
C2476 C2477 1.367 . S
C2477 C2476 1.367 . S
C2477 C2479 1.433 . S
C2478 C2474 1.350 . S
C2478 C2475 1.463 . S
C2478 N2482 1.427 . S
C2479 H2469 0.929 . S
C2479 C2477 1.433 . S
C2479 N2482 1.384 . S
C2480 H2471 0.929 . S
C2480 C2472 1.378 . S
C2480 C2475 1.350 . S
C2481 H2468 0.929 . S
C2481 C2473 1.433 . S
C2481 N2483 1.384 . S
N2482 C2478 1.427 . S
N2482 C2479 1.384 . S
N2483 C2475 1.427 . S
N2483 C2481 1.384 . S
H2484 C2490 0.930 . S
H2485 C2494 0.930 . S
H2486 C2499 0.929 . S
H2487 C2497 0.929 . S
H2488 C2492 0.929 . S
H2489 C2498 0.929 . S
C2490 H2484 0.930 . S
C2490 C2491 1.367 . S
C2490 C2498 1.378 . S
C2491 C2490 1.367 . S
C2491 C2499 1.433 . S
C2492 H2488 0.929 . S
C2492 C2494 1.378 . S
C2492 C2496 1.350 . S
C2493 C2496 1.463 1_456 S
C2493 C2498 1.350 . S
C2493 N2501 1.427 . S
C2494 H2485 0.930 . S
C2494 C2492 1.378 . S
C2494 C2495 1.367 . S
C2495 C2494 1.367 . S
C2495 C2497 1.433 . S
C2496 C2492 1.350 . S
C2496 C2493 1.463 1_654 S
C2496 N2500 1.427 . S
C2497 H2487 0.929 . S
C2497 C2495 1.433 . S
C2497 N2500 1.384 . S
C2498 H2489 0.929 . S
C2498 C2490 1.378 . S
C2498 C2493 1.350 . S
C2499 H2486 0.929 . S
C2499 C2491 1.433 . S
C2499 N2501 1.384 . S
N2500 C2496 1.427 . S
N2500 C2497 1.384 . S
N2501 C2493 1.427 . S
N2501 C2499 1.384 . S
H2502 C2508 0.930 . S
H2503 C2512 0.930 . S
H2504 C2517 0.929 . S
H2505 C2515 0.929 . S
H2506 C2510 0.929 . S
H2507 C2516 0.929 . S
C2508 H2502 0.930 . S
C2508 C2509 1.367 . S
C2508 C2516 1.378 . S
C2509 C2508 1.367 . S
C2509 C2517 1.433 . S
C2510 H2506 0.929 . S
C2510 C2512 1.378 . S
C2510 C2514 1.350 . S
C2511 C2514 1.463 1_554 S
C2511 C2516 1.350 . S
C2511 N2519 1.427 . S
C2512 H2503 0.930 . S
C2512 C2510 1.378 . S
C2512 C2513 1.367 . S
C2513 C2512 1.367 . S
C2513 C2515 1.433 . S
C2514 C2510 1.350 . S
C2514 C2511 1.463 1_556 S
C2514 N2518 1.427 . S
C2515 H2505 0.929 . S
C2515 C2513 1.433 . S
C2515 N2518 1.384 . S
C2516 H2507 0.929 . S
C2516 C2508 1.378 . S
C2516 C2511 1.350 . S
C2517 H2504 0.929 . S
C2517 C2509 1.433 . S
C2517 N2519 1.384 . S
N2518 C2514 1.427 . S
N2518 C2515 1.384 . S
N2519 C2511 1.427 . S
N2519 C2517 1.384 . S
H2520 C2526 0.930 . S
H2521 C2530 0.930 . S
H2522 C2535 0.929 1_565 S
H2523 C2533 0.929 1_545 S
H2524 C2528 0.929 1_554 S
H2525 C2534 0.929 1_556 S
C2526 H2520 0.930 . S
C2526 C2527 1.367 . S
C2526 C2534 1.378 . S
C2527 C2526 1.367 . S
C2527 C2535 1.433 . S
C2528 H2524 0.929 1_556 S
C2528 C2530 1.378 . S
C2528 C2532 1.350 . S
C2529 C2532 1.463 1_544 S
C2529 C2534 1.350 . S
C2529 N2537 1.427 1_545 S
C2530 H2521 0.930 . S
C2530 C2528 1.378 . S
C2530 C2531 1.367 . S
C2531 C2530 1.367 . S
C2531 C2533 1.433 . S
C2532 C2528 1.350 . S
C2532 C2529 1.463 1_566 S
C2532 N2536 1.427 1_565 S
C2533 H2523 0.929 1_565 S
C2533 C2531 1.433 . S
C2533 N2536 1.384 1_565 S
C2534 H2525 0.929 1_554 S
C2534 C2526 1.378 . S
C2534 C2529 1.350 . S
C2535 H2522 0.929 1_545 S
C2535 C2527 1.433 . S
C2535 N2537 1.384 1_545 S
N2536 C2532 1.427 1_545 S
N2536 C2533 1.384 1_545 S
N2537 C2529 1.427 1_565 S
N2537 C2535 1.384 1_565 S
H2538 C2544 0.930 . S
H2539 C2548 0.930 . S
H2540 C2553 0.923 . S
H2541 C2551 0.926 . S
H2542 C2546 0.929 1_556 S
H2543 C2552 0.929 1_554 S
C2544 H2538 0.930 . S
C2544 C2545 1.367 . S
C2544 C2552 1.378 . S
C2545 C2544 1.367 . S
C2545 C2553 1.433 . S
C2546 H2542 0.929 1_554 S
C2546 C2548 1.378 . S
C2546 C2550 1.350 . S
C2547 C2550 1.463 1_566 S
C2547 C2552 1.350 . S
C2547 N2555 1.427 1_565 S
C2548 H2539 0.930 . S
C2548 C2546 1.378 . S
C2548 C2549 1.367 . S
C2549 C2548 1.367 . S
C2549 C2551 1.433 . S
C2550 C2546 1.350 . S
C2550 C2547 1.463 1_544 S
C2550 N2554 1.427 1_545 S
C2551 H2541 0.926 . S
C2551 C2549 1.433 . S
C2551 N2554 1.384 1_545 S
C2552 H2543 0.929 1_556 S
C2552 C2544 1.378 . S
C2552 C2547 1.350 . S
C2553 H2540 0.923 . S
C2553 C2545 1.433 . S
C2553 N2555 1.384 1_565 S
N2554 C2550 1.427 1_565 S
N2554 C2551 1.384 1_565 S
N2555 C2547 1.427 1_545 S
N2555 C2553 1.384 1_545 S
H2556 C2562 0.930 . S
H2557 C2566 0.930 . S
H2558 C2571 0.929 . S
H2559 C2569 0.929 . S
H2560 C2564 0.929 . S
H2561 C2570 0.929 . S
C2562 H2556 0.930 . S
C2562 C2563 1.367 . S
C2562 C2570 1.378 . S
C2563 C2562 1.367 . S
C2563 C2571 1.433 . S
C2564 H2560 0.929 . S
C2564 C2566 1.378 . S
C2564 C2568 1.350 . S
C2565 C2568 1.463 1_456 S
C2565 C2570 1.350 . S
C2565 N2573 1.427 . S
C2566 H2557 0.930 . S
C2566 C2564 1.378 . S
C2566 C2567 1.367 . S
C2567 C2566 1.367 . S
C2567 C2569 1.433 . S
C2568 C2564 1.350 . S
C2568 C2565 1.463 1_654 S
C2568 N2572 1.427 . S
C2569 H2559 0.929 . S
C2569 C2567 1.433 . S
C2569 N2572 1.384 . S
C2570 H2561 0.929 . S
C2570 C2562 1.378 . S
C2570 C2565 1.350 . S
C2571 H2558 0.929 . S
C2571 C2563 1.433 . S
C2571 N2573 1.384 . S
N2572 C2568 1.427 . S
N2572 C2569 1.384 . S
N2573 C2565 1.427 . S
N2573 C2571 1.384 . S
H2574 C2580 0.930 . S
H2575 C2584 0.930 . S
H2576 C2589 0.929 . S
H2577 C2587 0.929 . S
H2578 C2582 0.929 . S
H2579 C2588 0.929 . S
C2580 H2574 0.930 . S
C2580 C2581 1.367 . S
C2580 C2588 1.378 . S
C2581 C2580 1.367 . S
C2581 C2589 1.433 . S
C2582 H2578 0.929 . S
C2582 C2584 1.378 . S
C2582 C2586 1.350 . S
C2583 C2586 1.463 1_554 S
C2583 C2588 1.350 . S
C2583 N2591 1.427 . S
C2584 H2575 0.930 . S
C2584 C2582 1.378 . S
C2584 C2585 1.367 . S
C2585 C2584 1.367 . S
C2585 C2587 1.433 . S
C2586 C2582 1.350 . S
C2586 C2583 1.463 1_556 S
C2586 N2590 1.427 . S
C2587 H2577 0.929 . S
C2587 C2585 1.433 . S
C2587 N2590 1.384 . S
C2588 H2579 0.929 . S
C2588 C2580 1.378 . S
C2588 C2583 1.350 . S
C2589 H2576 0.929 . S
C2589 C2581 1.433 . S
C2589 N2591 1.384 . S
N2590 C2586 1.427 . S
N2590 C2587 1.384 . S
N2591 C2583 1.427 . S
N2591 C2589 1.384 . S
C1303 C4 1.308 . S
C1307 C400 1.321 . S
C1321 C40 1.318 . S
C1325 C328 1.311 . S
C1339 C364 1.316 . S
C1343 C76 1.313 . S
C1357 C112 1.310 . S
C1361 C256 1.319 . S
C1375 C292 1.321 . S
C1379 C148 1.308 . S
C1393 C184 1.313 . S
C1397 C220 1.315 . S
C1411 C832 1.311 . S
C1415 C436 1.319 . S
C1429 C472 1.309 . S
C1433 C760 1.320 . S
C1447 C508 1.308 . S
C1451 C796 1.321 . S
C1465 C688 1.308 . S
C1469 C544 1.320 . S
C1483 C580 1.308 . S
C1487 C724 1.321 . S
C1501 C652 1.320 . S
C1505 C616 1.308 . S
C1519 C868 1.320 . S
C1523 C1264 1.308 . S
C1537 C1192 1.318 . S
C1541 C904 1.310 . S
C1555 C1228 1.317 . S
C1559 C940 1.313 . S
C1573 C1120 1.311 . S
C1577 C976 1.317 . S
C1591 C1156 1.313 . S
C1595 C1012 1.315 . S
C1609 C1084 1.312 . S
C1613 C1048 1.317 . S
C1627 C3 1.295 . S
C1631 C147 1.294 . S
C1645 C183 1.289 . S
C1649 C39 1.288 . S
C1663 C75 1.294 . S
C1667 C111 1.295 . S
C1681 C219 1.293 . S
C1685 C363 1.290 . S
C1699 C255 1.294 . S
C1703 C399 1.295 . S
C1717 C291 1.289 . S
C1721 C327 1.289 . S
C1735 C579 1.289 . S
C1739 C435 1.291 . S
C1753 C615 1.288 . S
C1757 C471 1.288 . S
C1771 C507 1.293 . S
C1775 C543 1.295 . S
C1789 C795 1.295 . S
C1793 C651 1.293 . S
C1807 C831 1.294 . S
C1811 C687 1.292 . S
C1825 C723 1.290 . S
C1829 C759 1.288 . S
C1843 C1011 1.288 . S
C1847 C867 1.288 . S
C1861 C903 1.292 . S
C1865 C1047 1.294 . S
C1879 C939 1.288 . S
C1883 C975 1.290 . S
C1897 C1227 1.289 . S
C1901 C1083 1.292 . S
C1915 C1119 1.288 . S
C1919 C1263 1.288 . S
C1933 C1191 1.295 . S
C1937 C1155 1.294 . S
C1951 C1046 1.113 . S
C1955 C2 1.117 . S
C1969 C38 1.115 . S
C1973 C974 1.117 . S
C1987 C74 1.116 . S
C1991 C1010 1.111 . S
C2005 C110 1.114 . S
C2009 C470 1.109 . S
C2023 C506 1.111 . S
C2027 C146 1.107 . S
C2041 C434 1.111 . S
C2045 C182 1.107 . S
C2059 C218 1.106 . S
C2063 C830 1.110 . S
C2077 C254 1.114 . S
C2081 C758 1.109 . S
C2095 C290 1.113 . S
C2099 C794 1.108 . S
C2113 C1118 1.115 . S
C2117 C326 1.111 . S
C2131 C1154 1.111 . S
C2135 C362 1.107 . S
C2149 C398 1.117 . S
C2153 C1082 1.115 . S
C2167 C902 1.117 . S
C2171 C542 1.114 . S
C2185 C578 1.109 . S
C2189 C938 1.107 . S
C2203 C866 1.113 . S
C2207 C614 1.108 . S
C2221 C1262 1.116 . S
C2225 C650 1.112 . S
C2239 C686 1.111 . S
C2243 C1190 1.116 . S
C2257 C722 1.113 . S
C2261 C1226 1.117 . S
C2275 C14 1.572 . S
C2279 C1058 1.560 . S
C2293 C986 1.563 . S
C2297 C50 1.564 . S
C2311 C86 1.577 . S
C2315 C1022 1.569 . S
C2329 C482 1.576 . S
C2333 C122 1.562 . S
C2347 C158 1.564 . S
C2351 C518 1.577 . S
C2365 C194 1.568 . S
C2369 C446 1.576 . S
C2383 C842 1.577 . S
C2387 C230 1.568 . S
C2401 C266 1.569 . S
C2405 C770 1.576 . S
C2419 C302 1.563 . S
C2423 C806 1.576 . S
C2437 C338 1.577 . S
C2441 C1130 1.564 . S
C2455 C1166 1.573 . S
C2459 C374 1.561 . S
C2473 C410 1.561 . S
C2477 C1094 1.575 . S
C2491 C914 1.561 . S
C2495 C554 1.575 . S
C2509 C590 1.575 . S
C2513 C950 1.562 . S
C2527 C626 1.574 . S
C2531 C878 1.573 . S
C2545 C1274 1.576 . S
C2549 C662 1.570 . S
C2563 C1202 1.577 . S
C2567 C698 1.565 . S
C2581 C734 1.562 . S
C2585 C1238 1.576 . S
