# Generated by pormake.
# Topology sma, (6)-cn, num edge types: 1
# Building blocks:
#     Node 0, Type 0, BuildingBlock: NUHQIS_clean_sbu_0, # of connection points: 6
#     Node 1, Type 0, BuildingBlock: NUHQIS_clean_sbu_0, # of connection points: 6
#     Node 2, Type 0, BuildingBlock: NUHQIS_clean_sbu_0, # of connection points: 6
#     Edge 3, Type (0, 0), BuildingBlock: UVAHIK_clean_linker_0, # of connection points: 2
#     Edge 4, Type (0, 0), BuildingBlock: UVAHIK_clean_linker_0, # of connection points: 2
#     Edge 5, Type (0, 0), BuildingBlock: UVAHIK_clean_linker_0, # of connection points: 2
#     Edge 6, Type (0, 0), BuildingBlock: UVAHIK_clean_linker_0, # of connection points: 2
#     Edge 7, Type (0, 0), BuildingBlock: UVAHIK_clean_linker_0, # of connection points: 2
#     Edge 8, Type (0, 0), BuildingBlock: UVAHIK_clean_linker_0, # of connection points: 2
#     Edge 9, Type (0, 0), BuildingBlock: UVAHIK_clean_linker_0, # of connection points: 2
#     Edge 10, Type (0, 0), BuildingBlock: UVAHIK_clean_linker_0, # of connection points: 2
#     Edge 11, Type (0, 0), BuildingBlock: UVAHIK_clean_linker_0, # of connection points: 2
# Relax obj value: 0.086
# Max RMSD: 0.189
# Mean RMSD: 0.185
data_MOF--net-sma--node1-NUHQIS_clean_sbu_0--edge1-UVAHIK_clean_linker_0
_symmetry_space_group_name_H-M    P1
_symmetry_Int_Tables_number       1
_symmetry_cell_setting            triclinic
loop_
_symmetry_equiv_pos_as_xyz
'x, y, z'
_cell_length_a     48.309215
_cell_length_b     48.138696
_cell_length_c     18.544462
_cell_angle_alpha  92.224611
_cell_angle_beta   92.404026
_cell_angle_gamma 120.00181
loop_
_atom_site_label
_atom_site_type_symbol
_atom_site_fract_x
_atom_site_fract_y
_atom_site_fract_z
_atom_type_partial_charge
Tb0 Tb 0.07674 0.52933 0.14274 0.0
Eu1 Eu 1.03411 0.56682 0.16216 0.0
C2 C 0.04973 0.53407 0.28935 0.0
C3 C 0.99963 0.48856 0.14206 0.0
C4 C 0.14225 0.51249 0.09581 0.0
C5 C 0.18804 0.50443 0.09639 0.0
C6 C 0.15859 0.49735 0.12209 0.0
C7 C 0.15586 0.53505 0.04353 0.0
C8 C 0.18534 0.54207 0.01748 0.0
C9 C 0.20179 0.52683 0.04367 0.0
C10 C 0.11103 0.504 0.1234 0.0
O11 O 0.07438 0.55106 0.04468 0.0
O12 O 1.0246 0.54484 0.04982 0.0
O13 O 0.08529 0.60445 0.1498 0.0
O14 O 0.11043 0.57761 0.18967 0.0
C15 C 1.0469 0.54463 0.01296 0.0
O16 O 1.0242 0.60387 0.12775 0.0
O17 O 1.00005 0.57595 0.21757 0.0
O18 O 0.05104 0.56088 0.27188 0.0
O19 O 0.05412 0.51574 0.24277 0.0
O20 O 1.02692 0.4899 0.12822 0.0
O21 O 0.99748 0.51421 0.15907 0.0
C22 C 0.11091 0.60442 0.17602 0.0
O23 O 0.11179 0.51926 0.18377 0.0
O24 O 0.08873 0.50116 0.07645 0.0
C25 C 0.97091 0.59272 0.14192 0.0
C26 C 0.91262 0.58699 0.08678 0.0
C27 C 0.93719 0.59299 0.04086 0.0
C28 C 0.96598 0.59579 0.06805 0.0
C29 C 0.94639 0.58666 0.18782 0.0
C30 C 0.91753 0.5837 0.16057 0.0
C31 C 1.00164 0.59671 0.17219 0.0
H32 H 0.19979 0.49192 0.11701 0.0
H33 H 0.14843 0.47983 0.16232 0.0
H34 H 0.14367 0.54714 0.0228 0.0
H35 H 0.19542 0.55967 -0.02257 0.0
H36 H 0.93447 0.59615 -0.01599 0.0
H37 H 0.98442 0.60064 0.03113 0.0
H38 H 0.94958 0.58428 0.24498 0.0
H39 H 0.89898 0.57863 0.19734 0.0
Tb40 Tb 0.60627 0.08307 0.48033 0.0
Eu41 Eu 0.52598 0.04061 0.4851 0.0
C42 C 0.57326 0.06168 0.62487 0.0
C43 C 0.56946 1.00639 0.49595 0.0
C44 C 0.68961 0.14444 0.43412 0.0
C45 C 0.74536 0.18243 0.41707 0.0
C46 C 0.72226 0.15597 0.45047 0.0
C47 C 0.6802 0.15993 0.38437 0.0
C48 C 0.70339 0.18655 0.35088 0.0
C49 C 0.73627 0.19794 0.36645 0.0
C50 C 0.66605 0.1158 0.46843 0.0
O51 O 0.58278 0.07678 0.37412 0.0
O52 O 0.54005 1.02697 0.38323 0.0
O53 O 0.53983 0.09136 0.46213 0.0
O54 O 0.59176 0.11778 0.51129 0.0
C55 C 0.56233 0.04792 0.34545 0.0
O56 O 0.47929 1.02697 0.43282 0.0
O57 O 0.48222 1.00965 0.53763 0.0
O58 O 0.54766 0.06127 0.59681 0.0
O59 O 0.59686 0.06526 0.58653 0.0
O60 O 0.59555 0.03316 0.4817 0.0
O61 O 0.54164 1.00457 0.50374 0.0
C62 C 0.56533 0.11758 0.4903 0.0
O63 O 0.65156 0.12055 0.52119 0.0
O64 O 0.64634 0.09109 0.42497 0.0
C65 C 0.43745 0.97463 0.45643 0.0
C66 C 0.38637 0.91253 0.40945 0.0
C67 C 0.40278 0.93542 0.3592 0.0
C68 C 0.42799 0.9661 0.38237 0.0
C69 C 0.42112 0.95178 0.50665 0.0
C70 C 0.39597 0.92107 0.48347 0.0
C71 C 0.4635 1.00737 0.48199 0.0
H72 H 0.77042 0.19089 0.43136 0.0
H73 H 0.72992 0.14435 0.48893 0.0
H74 H 0.65502 0.15125 0.37103 0.0
H75 H 0.69558 0.19782 0.31184 0.0
H76 H 0.39573 0.92989 0.30191 0.0
H77 H 0.43982 0.98317 0.34212 0.0
H78 H 0.42773 0.95769 0.56407 0.0
H79 H 0.38415 0.90395 0.52364 0.0
Tb80 Tb 0.5741 0.60006 0.82041 0.0
Eu81 Eu 0.5352 0.51919 0.82504 0.0
C82 C 0.56251 0.56619 -0.03402 0.0
C83 C 0.61302 0.56258 0.84462 0.0
C84 C 0.59802 0.68496 0.77701 0.0
C85 C 0.61707 0.74159 0.76497 0.0
C86 C 0.62018 0.71732 0.79637 0.0
C87 C 0.57239 0.67699 0.72615 0.0
C88 C 0.5692 0.70135 0.69461 0.0
C89 C 0.59168 0.73396 0.71335 0.0
C90 C 0.60269 0.66022 0.81005 0.0
O91 O 0.555 0.57684 0.71356 0.0
O92 O 0.56182 0.53395 0.72598 0.0
O93 O 0.4978 0.53321 0.80192 0.0
O94 O 0.52533 0.58669 0.84271 0.0
C95 C 0.56288 0.55636 0.68704 0.0
O96 O 0.50063 0.47292 0.7704 0.0
O97 O 0.52386 0.47448 0.8745 0.0
O98 O 0.53744 0.53999 0.93631 0.0
O99 O 0.58235 0.58987 0.92877 0.0
O100 O 0.61252 0.58846 0.82521 0.0
O101 O 0.58689 0.53507 0.85319 0.0
C102 C 0.49842 0.55982 0.82401 0.0
O103 O 0.58463 0.64577 0.86228 0.0
O104 O 0.6055 0.64017 0.76588 0.0
C105 C 0.51251 0.43122 0.78945 0.0
C106 C 0.52387 0.38201 0.73674 0.0
C107 C 0.52214 0.40341 0.68962 0.0
C108 C 0.51662 0.42776 0.71564 0.0
C109 C 0.5143 0.40998 0.83663 0.0
C110 C 0.52003 0.38574 0.8107 0.0
C111 C 0.50599 0.45645 0.81781 0.0
H112 H 0.63443 0.76639 0.7817 0.0
H113 H 0.64003 0.72387 0.83581 0.0
H114 H 0.55506 0.65204 0.71059 0.0
H115 H 0.5495 0.69468 0.65474 0.0
H116 H 0.52449 0.40105 0.63223 0.0
H117 H 0.51538 0.44371 0.67767 0.0
H118 H 0.51127 0.41214 0.89375 0.0
H119 H 0.52169 0.37008 0.84886 0.0
C120 C 0.25797 0.53698 0.06368 0.0
C121 C 0.23301 0.53388 0.01602 0.0
C122 C 0.28681 0.54217 0.03771 0.0
C123 C 0.32147 0.53147 0.87242 0.0
H124 H 0.40209 0.58789 -0.01757 0.0
C125 C 0.43833 0.52974 0.82461 0.0
C126 C 0.46761 0.55897 0.83332 0.0
C127 C 0.40965 0.52847 0.84048 0.0
C128 C 0.37987 0.57233 -0.04953 0.0
H129 H 0.21902 0.5341 0.90351 0.0
H130 H 0.26962 0.54363 0.85819 0.0
H131 H 0.35277 0.58342 0.02263 0.0
H132 H 0.48933 0.61006 0.86261 0.0
H133 H 0.43936 0.60787 0.88921 0.0
H134 H 0.34866 0.52054 0.79999 0.0
C135 C 0.2667 0.54172 0.9157 0.0
C136 C 0.35149 0.56946 -0.02592 0.0
C137 C 0.23783 0.53662 0.94176 0.0
C138 C 0.46731 0.58707 0.85577 0.0
C139 C 0.43864 0.58579 0.8715 0.0
C140 C 0.34987 0.53432 0.84881 0.0
C141 C 0.2915 0.54439 -0.03667 0.0
C142 C 0.32188 0.54875 0.93581 0.0
C143 C 0.40952 0.55639 0.86531 0.0
C144 C 0.37942 0.55458 0.88788 0.0
H145 H 0.25521 0.53536 0.12129 0.0
H146 H 0.30522 0.54377 0.07591 0.0
H147 H 0.29907 0.5151 0.84193 0.0
H148 H 0.43759 0.50759 0.80764 0.0
H149 H 0.38776 0.50535 0.83575 0.0
C150 C 0.78841 0.22548 0.30731 0.0
C151 C 0.76121 0.22581 0.33041 0.0
C152 C 0.81283 0.25223 0.27724 0.0
C153 C 0.83206 0.32842 0.19482 0.0
H154 H 0.91932 0.35338 0.25913 0.0
C155 C 0.94095 0.45418 0.15929 0.0
C156 C 0.97048 0.45655 0.14565 0.0
C157 C 0.91441 0.4246 0.17221 0.0
C158 C 0.89515 0.3465 0.23957 0.0
H159 H 0.73814 0.25444 0.3386 0.0
H160 H 0.78086 0.30127 0.28633 0.0
H161 H 0.87498 0.30481 0.30058 0.0
H162 H 0.99463 0.42913 0.13159 0.0
H163 H 0.94823 0.37752 0.15342 0.0
H164 H 0.85238 0.37055 0.13475 0.0
C165 C 0.78313 0.28012 0.29077 0.0
C166 C 0.86967 0.31861 0.26345 0.0
C167 C 0.75863 0.25328 0.32082 0.0
C168 C 0.97235 0.4283 0.14209 0.0
C169 C 0.9458 0.39871 0.1552 0.0
C170 C 0.8576 0.35638 0.17094 0.0
C171 C 0.81074 0.28008 0.26949 0.0
C172 C 0.83778 0.30928 0.24175 0.0
C173 C 0.91669 0.39661 0.17195 0.0
C174 C 0.88947 0.36587 0.19339 0.0
H175 H 0.79087 0.20447 0.3125 0.0
H176 H 0.83341 0.25108 0.26009 0.0
H177 H 0.80783 0.32172 0.17623 0.0
H178 H 0.93851 0.47536 0.16233 0.0
H179 H 0.89248 0.42396 0.18544 0.0
C180 C 0.6014 0.97833 0.50704 0.0
C181 C 0.57172 0.97716 0.50676 0.0
C182 C 0.60368 0.95123 0.52189 0.0
C183 C 0.55564 0.86265 0.53069 0.0
H184 H 0.62589 0.87572 0.66357 0.0
C185 C 0.55908 0.75846 0.66986 0.0
C186 C 0.58891 0.76015 0.67986 0.0
C187 C 0.55699 0.78414 0.64266 0.0
C188 C 0.60636 0.87164 0.62556 0.0
H189 H 0.52098 0.9461 0.52013 0.0
H190 H 0.52507 0.89913 0.54635 0.0
H191 H 0.62252 0.92192 0.62625 0.0
H192 H 0.63971 0.78952 0.66555 0.0
H193 H 0.63607 0.83413 0.61812 0.0
H194 H 0.53934 0.81227 0.53069 0.0
C195 C 0.54655 0.92091 0.53454 0.0
C196 C 0.60445 0.89817 0.60412 0.0
C197 C 0.54427 0.94799 0.51991 0.0
C198 C 0.61644 0.78769 0.65998 0.0
C199 C 0.61435 0.8133 0.63279 0.0
C200 C 0.55757 0.83607 0.55213 0.0
C201 C 0.57634 0.92229 0.53659 0.0
C202 C 0.57899 0.89402 0.55671 0.0
C203 C 0.58469 0.81206 0.62474 0.0
C204 C 0.5829 0.84024 0.60009 0.0
H205 H 0.62303 1.00032 0.49698 0.0
H206 H 0.62693 0.95299 0.5221 0.0
H207 H 0.53593 0.85864 0.49337 0.0
H208 H 0.53745 0.73772 0.68523 0.0
H209 H 0.53379 0.7825 0.63782 0.0
C210 C 0.64601 0.5387 0.88752 0.0
C211 C 0.64447 0.56485 0.8606 0.0
C212 C 0.67554 0.54131 0.90673 0.0
C213 C 0.75989 0.60168 -0.03959 0.0
H214 H 0.77332 0.52942 0.92677 0.0
C215 C 0.86716 0.59792 0.09851 0.0
C216 C 0.88218 0.58459 0.05795 0.0
C217 C 0.83872 0.59588 0.07133 0.0
C218 C 0.77013 0.54996 0.93599 0.0
H219 H 0.67304 0.61409 0.83123 0.0
H220 H 0.72455 0.61846 0.86385 0.0
H221 H 0.72326 0.52538 0.8816 0.0
H222 H 0.8787 0.55834 -0.04301 0.0
H223 H 0.8296 0.55553 0.90884 0.0
H224 H 0.80695 0.62647 0.01373 0.0
C225 C 0.70283 0.59607 0.87118 0.0
C226 C 0.74124 0.5475 0.9108 0.0
C227 C 0.67327 0.59349 0.85204 0.0
C228 C 0.86801 0.56919 -0.01057 0.0
C229 C 0.83961 0.56723 -0.03785 0.0
C230 C 0.7888 0.60417 -0.01452 0.0
C231 C 0.70433 0.57011 0.89941 0.0
C232 C 0.73565 0.57324 0.92318 0.0
C233 C 0.82459 0.58055 0.00275 0.0
C234 C 0.7942 0.57825 -0.02591 0.0
H235 H 0.62438 0.51629 0.89518 0.0
H236 H 0.67574 0.52097 0.92918 0.0
H237 H 0.7563 0.62187 -0.02841 0.0
H238 H 0.87756 0.61031 0.15109 0.0
H239 H 0.82762 0.60605 0.10453 0.0
C240 C 0.35984 0.86371 0.32132 0.0
C241 C 0.35897 0.88014 0.38484 0.0
C242 C 0.33377 0.83363 0.29746 0.0
C243 C 0.24671 0.78194 0.31529 0.0
H244 H 0.25978 0.7145 0.2325 0.0
C245 C 0.14178 0.66466 0.17908 0.0
C246 C 0.1407 0.63572 0.19395 0.0
C247 C 0.16907 0.69427 0.19965 0.0
C248 C 0.25571 0.733 0.25591 0.0
H249 H 0.32977 0.87765 0.47286 0.0
H250 H 0.28476 0.82498 0.43232 0.0
H251 H 0.306 0.76611 0.27615 0.0
H252 H 0.16795 0.61536 0.24081 0.0
H253 H 0.21545 0.66708 0.27742 0.0
H254 H 0.19649 0.7487 0.29673 0.0
C255 C 0.30544 0.83552 0.40037 0.0
C256 C 0.28222 0.76273 0.28021 0.0
C257 C 0.33147 0.86558 0.42417 0.0
C258 C 0.16792 0.63715 0.22845 0.0
C259 C 0.19525 0.66683 0.24916 0.0
C260 C 0.22025 0.75226 0.29106 0.0
C261 C 0.30616 0.81922 0.3365 0.0
C262 C 0.27805 0.78756 0.31034 0.0
C263 C 0.19601 0.69577 0.23578 0.0
C264 C 0.22438 0.72741 0.26101 0.0
H265 H 0.38076 0.87401 0.29009 0.0
H266 H 0.33505 0.82192 0.2477 0.0
H267 H 0.24257 0.8006 0.33733 0.0
H268 H 0.12138 0.66454 0.15214 0.0
H269 H 0.16903 0.71605 0.18723 0.0
C270 C 0.51335 0.32517 0.73645 0.0
C271 C 0.52923 0.35571 0.70866 0.0
C272 C 0.51798 0.30036 0.70945 0.0
C273 C 0.57326 0.28463 0.60458 0.0
H274 H 0.50104 0.19755 0.58578 0.0
C275 C 0.58769 0.17358 0.54697 0.0
C276 C 0.56322 0.14702 0.50473 0.0
C277 C 0.58426 0.19997 0.567 0.0
C278 C 0.52143 0.22175 0.58975 0.0
H279 H 0.56295 0.38402 0.63105 0.0
H280 H 0.57019 0.34054 0.58248 0.0
H281 H 0.4934 0.24134 0.62947 0.0
H282 H 0.51651 0.12814 0.4478 0.0
H283 H 0.51088 0.17441 0.4812 0.0
H284 H 0.60111 0.26507 0.56313 0.0
C285 C 0.55447 0.33587 0.62597 0.0
C286 C 0.51714 0.24687 0.61596 0.0
C287 C 0.54997 0.36074 0.65323 0.0
C288 C 0.53576 0.14805 0.48079 0.0
C289 C 0.53241 0.17452 0.50047 0.0
C290 C 0.57752 0.25949 0.57802 0.0
C291 C 0.53848 0.3053 0.65358 0.0
C292 C 0.54302 0.27864 0.62421 0.0
C293 C 0.55635 0.20059 0.54496 0.0
C294 C 0.5517 0.22767 0.57058 0.0
H295 H 0.49691 0.3202 0.7785 0.0
H296 H 0.5056 0.27732 0.73288 0.0
H297 H 0.59384 0.3087 0.6108 0.0
H298 H 0.60914 0.17362 0.56666 0.0
H299 H 0.60306 0.21939 0.6019 0.0
C300 C 1.04806 0.50936 0.91447 0.0
C301 C 1.03864 0.53113 0.93843 0.0
C302 C 1.03829 0.49443 0.84515 0.0
C303 C 0.98772 0.48665 0.67863 0.0
H304 H 0.06013 0.49151 0.58503 0.0
C305 C 1.02719 0.53618 0.40647 0.0
C306 C 1.03962 0.52197 0.36046 0.0
C307 C 1.01667 0.52373 0.47282 0.0
C308 C 1.03929 0.48909 0.61035 0.0
H309 H 1.01104 0.55389 0.91132 0.0
H310 H 0.99635 0.53028 0.78748 0.0
H311 H 0.06134 0.49445 0.71516 0.0
H312 H 0.04963 0.48284 0.34614 0.0
H313 H 1.03203 0.4618 0.46309 0.0
H314 H 0.96753 0.48482 0.57223 0.0
C315 C 1.00996 0.52335 0.82278 0.0
C316 C 1.03987 0.49067 0.68525 0.0
C317 C 1.01889 0.53746 0.89303 0.0
C318 C 1.04051 0.49458 0.3809 0.0
C319 C 1.03016 0.48227 0.44729 0.0
C320 C 0.98745 0.4857 0.60343 0.0
C321 C 1.01988 0.50194 0.79778 0.0
C322 C 1.01489 0.49126 0.72024 0.0
C323 C 1.01863 0.49705 0.49407 0.0
C324 C 1.014 0.48853 0.5693 0.0
H325 H 0.06248 0.50339 0.94971 0.0
H326 H 1.04572 0.47751 0.82827 0.0
H327 H 0.96765 0.48598 0.7041 0.0
H328 H 1.02576 0.55699 0.39156 0.0
H329 H 1.00842 0.53588 0.50893 0.0
C330 C 0.59139 0.05847 0.23286 0.0
C331 C 0.56583 0.03771 0.27261 0.0
C332 C 0.5942 0.04858 0.16337 0.0
C333 C 0.59792 1.01829 0.02 0.0
H334 H 0.52002 1.0003 0.91015 0.0
C335 C 0.54544 1.02229 0.7144 0.0
C336 C 0.57244 0.05064 0.69692 0.0
C337 C 0.5455 1.00942 0.78016 0.0
C338 C 0.54173 1.0042 0.93914 0.0
H339 H 0.52441 0.98964 0.27321 0.0
H340 H 0.52908 0.97281 0.15111 0.0
H341 H 0.51975 0.99627 0.03915 0.0
H342 H 0.62097 0.08743 0.73125 0.0
H343 H 0.62026 0.06683 0.84958 0.0
H344 H 0.6202 1.02735 0.91978 0.0
C345 C 0.54686 0.99658 0.17387 0.0
C346 C 0.54152 1.00191 0.01344 0.0
C347 C 0.54407 1.00641 0.24328 0.0
C348 C 0.59973 0.06583 0.74496 0.0
C349 C 0.59948 0.05356 0.8118 0.0
C350 C 0.59801 1.02002 0.94518 0.0
C351 C 0.57146 1.01787 0.13281 0.0
C352 C 0.57002 1.01073 0.05472 0.0
C353 C 0.57224 1.02531 0.83034 0.0
C354 C 0.57037 1.01492 0.90473 0.0
H355 H 0.6088 0.08254 0.25467 0.0
H356 H 0.61308 0.06561 0.13208 0.0
H357 H 0.62005 1.02478 0.05112 0.0
H358 H 0.52461 1.00961 0.67637 0.0
H359 H 0.52445 0.98725 0.79196 0.0
C360 C 0.58072 0.58597 0.57539 0.0
C361 C 0.57712 0.56087 0.6172 0.0
C362 C 0.59413 0.58975 0.50892 0.0
C363 C 0.59276 0.53856 0.3651 0.0
H364 H 0.64237 0.61847 0.27395 0.0
C365 C 0.57659 0.54066 0.06174 0.0
C366 C 0.57294 0.56628 0.04049 0.0
C367 C 0.58993 0.54195 0.13053 0.0
C368 C 0.62856 0.59594 0.2987 0.0
H369 H 0.58671 0.52143 0.62508 0.0
H370 H 0.60956 0.52785 0.50846 0.0
H371 H 0.64407 0.61864 0.40586 0.0
H372 H 0.58104 0.61369 0.0711 0.0
H373 H 0.60157 0.61491 0.1942 0.0
H374 H 0.57451 0.51615 0.25983 0.0
C375 C 0.602 0.54447 0.52709 0.0
C376 C 0.62979 0.59606 0.37391 0.0
C377 C 0.58858 0.54064 0.59332 0.0
C378 C 0.58316 0.59346 0.08774 0.0
C379 C 0.59557 0.59437 0.15739 0.0
C380 C 0.59109 0.53851 0.29029 0.0
C381 C 0.60408 0.56848 0.48361 0.0
C382 C 0.61063 0.56759 0.40734 0.0
C383 C 0.59889 0.56849 0.17974 0.0
C384 C 0.60761 0.56748 0.25643 0.0
H385 H 0.57255 0.6022 0.59311 0.0
H386 H 0.59502 0.60814 0.47559 0.0
H387 H 0.57756 0.51631 0.3897 0.0
H388 H 0.56993 0.52003 0.02447 0.0
H389 H 0.59283 0.52197 0.1454 0.0
loop_
_geom_bond_atom_site_label_1
_geom_bond_atom_site_label_2
_geom_bond_distance
_geom_bond_site_symmetry_2
_ccdc_geom_bond_type
Tb0 C10 2.825 . S
Tb0 O11 2.347 . S
Tb0 O14 2.366 . S
Tb0 O19 2.418 . S
Tb0 O20 2.384 1_455 S
Tb0 O23 2.479 . S
Tb0 O24 2.471 . S
Eu1 O12 2.418 . S
Eu1 O13 2.384 1_655 S
Eu1 O16 2.479 . S
Eu1 O17 2.471 . S
Eu1 O18 2.347 1_655 S
Eu1 O21 2.366 . S
Eu1 C31 2.825 . S
C2 O18 1.259 . S
C2 O19 1.265 . S
C3 O20 1.255 . S
C3 O21 1.265 . S
C4 C6 1.380 . S
C4 C7 1.374 . S
C4 C10 1.507 . S
C5 C6 1.384 . S
C5 C9 1.387 . S
C5 H32 0.930 . S
C6 C4 1.380 . S
C6 C5 1.384 . S
C6 H33 0.931 . S
C7 C4 1.374 . S
C7 C8 1.390 . S
C7 H34 0.930 . S
C8 C7 1.390 . S
C8 C9 1.391 . S
C8 H35 0.930 . S
C9 C5 1.387 . S
C9 C8 1.391 . S
C10 Tb0 2.825 . S
C10 C4 1.507 . S
C10 O23 1.238 . S
C10 O24 1.247 . S
O11 Tb0 2.347 . S
O11 C15 1.259 . S
O12 Eu1 2.418 . S
O12 C15 1.265 1_655 S
O13 Eu1 2.384 1_455 S
O13 C22 1.255 . S
O14 Tb0 2.366 . S
O14 C22 1.265 . S
C15 O11 1.259 . S
C15 O12 1.265 1_455 S
O16 Eu1 2.479 . S
O16 C31 1.238 . S
O17 Eu1 2.471 . S
O17 C31 1.247 . S
O18 Eu1 2.347 1_455 S
O18 C2 1.259 . S
O19 Tb0 2.418 . S
O19 C2 1.265 . S
O20 Tb0 2.384 1_655 S
O20 C3 1.255 . S
O21 Eu1 2.366 . S
O21 C3 1.265 . S
C22 O13 1.255 . S
C22 O14 1.265 . S
O23 Tb0 2.479 . S
O23 C10 1.238 . S
O24 Tb0 2.471 . S
O24 C10 1.247 . S
C25 C28 1.380 . S
C25 C29 1.374 . S
C25 C31 1.507 . S
C26 C27 1.387 . S
C26 C30 1.391 . S
C27 C26 1.387 . S
C27 C28 1.384 . S
C27 H36 0.930 . S
C28 C25 1.380 . S
C28 C27 1.384 . S
C28 H37 0.931 . S
C29 C25 1.374 . S
C29 C30 1.390 . S
C29 H38 0.930 . S
C30 C26 1.391 . S
C30 C29 1.390 . S
C30 H39 0.930 . S
C31 Eu1 2.825 . S
C31 O16 1.238 . S
C31 O17 1.247 . S
C31 C25 1.507 . S
H32 C5 0.930 . S
H33 C6 0.931 . S
H34 C7 0.930 . S
H35 C8 0.930 . S
H36 C27 0.930 . S
H37 C28 0.931 . S
H38 C29 0.930 . S
H39 C30 0.930 . S
Tb40 C50 2.825 . S
Tb40 O51 2.347 . S
Tb40 O54 2.366 . S
Tb40 O59 2.418 . S
Tb40 O60 2.384 1_545 S
Tb40 O63 2.479 . S
Tb40 O64 2.471 . S
Eu41 O52 2.422 . S
Eu41 O53 2.343 1_565 S
Eu41 O56 2.503 . S
Eu41 O57 2.497 . S
Eu41 O58 2.352 1_565 S
Eu41 O61 2.408 . S
Eu41 C71 2.854 . S
C42 O58 1.259 . S
C42 O59 1.265 . S
C43 O60 1.255 . S
C43 O61 1.265 . S
C44 C46 1.380 . S
C44 C47 1.374 . S
C44 C50 1.507 . S
C45 C46 1.384 . S
C45 C49 1.387 . S
C45 H72 0.930 . S
C46 C44 1.380 . S
C46 C45 1.384 . S
C46 H73 0.931 . S
C47 C44 1.374 . S
C47 C48 1.390 . S
C47 H74 0.930 . S
C48 C47 1.390 . S
C48 C49 1.391 . S
C48 H75 0.930 . S
C49 C45 1.387 . S
C49 C48 1.391 . S
C50 Tb40 2.825 . S
C50 C44 1.507 . S
C50 O63 1.238 . S
C50 O64 1.247 . S
O51 Tb40 2.347 . S
O51 C55 1.259 . S
O52 Eu41 2.422 . S
O52 C55 1.265 1_565 S
O53 Eu41 2.343 1_545 S
O53 C62 1.255 . S
O54 Tb40 2.366 . S
O54 C62 1.265 . S
C55 O51 1.259 . S
C55 O52 1.265 1_545 S
O56 Eu41 2.503 . S
O56 C71 1.238 . S
O57 Eu41 2.497 . S
O57 C71 1.247 . S
O58 Eu41 2.352 1_545 S
O58 C42 1.259 . S
O59 Tb40 2.418 . S
O59 C42 1.265 . S
O60 Tb40 2.384 1_565 S
O60 C43 1.255 . S
O61 Eu41 2.408 . S
O61 C43 1.265 . S
C62 O53 1.255 . S
C62 O54 1.265 . S
O63 Tb40 2.479 . S
O63 C50 1.238 . S
O64 Tb40 2.471 . S
O64 C50 1.247 . S
C65 C68 1.380 . S
C65 C69 1.374 . S
C65 C71 1.507 . S
C66 C67 1.387 . S
C66 C70 1.391 . S
C67 C66 1.387 . S
C67 C68 1.384 . S
C67 H76 0.930 . S
C68 C65 1.380 . S
C68 C67 1.384 . S
C68 H77 0.931 . S
C69 C65 1.374 . S
C69 C70 1.390 . S
C69 H78 0.930 . S
C70 C66 1.391 . S
C70 C69 1.390 . S
C70 H79 0.930 . S
C71 Eu41 2.854 . S
C71 O56 1.238 . S
C71 O57 1.247 . S
C71 C65 1.507 . S
H72 C45 0.930 . S
H73 C46 0.931 . S
H74 C47 0.930 . S
H75 C48 0.930 . S
H76 C67 0.930 . S
H77 C68 0.931 . S
H78 C69 0.930 . S
H79 C70 0.930 . S
Tb80 C90 2.825 . S
Tb80 O91 2.347 . S
Tb80 O94 2.366 . S
Tb80 O99 2.418 . S
Tb80 O100 2.384 . S
Tb80 O103 2.479 . S
Tb80 O104 2.471 . S
Eu81 O92 2.418 . S
Eu81 O93 2.384 . S
Eu81 O96 2.479 . S
Eu81 O97 2.471 . S
Eu81 O98 2.347 . S
Eu81 O101 2.366 . S
Eu81 C111 2.825 . S
C82 O98 1.259 . S
C82 O99 1.265 . S
C83 O100 1.255 . S
C83 O101 1.265 . S
C84 C86 1.380 . S
C84 C87 1.374 . S
C84 C90 1.507 . S
C85 C86 1.384 . S
C85 C89 1.387 . S
C85 H112 0.930 . S
C86 C84 1.380 . S
C86 C85 1.384 . S
C86 H113 0.931 . S
C87 C84 1.374 . S
C87 C88 1.390 . S
C87 H114 0.930 . S
C88 C87 1.390 . S
C88 C89 1.391 . S
C88 H115 0.930 . S
C89 C85 1.387 . S
C89 C88 1.391 . S
C90 Tb80 2.825 . S
C90 C84 1.507 . S
C90 O103 1.238 . S
C90 O104 1.247 . S
O91 Tb80 2.347 . S
O91 C95 1.259 . S
O92 Eu81 2.418 . S
O92 C95 1.265 . S
O93 Eu81 2.384 . S
O93 C102 1.255 . S
O94 Tb80 2.366 . S
O94 C102 1.265 . S
C95 O91 1.259 . S
C95 O92 1.265 . S
O96 Eu81 2.479 . S
O96 C111 1.238 . S
O97 Eu81 2.471 . S
O97 C111 1.247 . S
O98 Eu81 2.347 . S
O98 C82 1.259 . S
O99 Tb80 2.418 . S
O99 C82 1.265 . S
O100 Tb80 2.384 . S
O100 C83 1.255 . S
O101 Eu81 2.366 . S
O101 C83 1.265 . S
C102 O93 1.255 . S
C102 O94 1.265 . S
O103 Tb80 2.479 . S
O103 C90 1.238 . S
O104 Tb80 2.471 . S
O104 C90 1.247 . S
C105 C108 1.380 . S
C105 C109 1.374 . S
C105 C111 1.507 . S
C106 C107 1.387 . S
C106 C110 1.391 . S
C107 C106 1.387 . S
C107 C108 1.384 . S
C107 H116 0.930 . S
C108 C105 1.380 . S
C108 C107 1.384 . S
C108 H117 0.931 . S
C109 C105 1.374 . S
C109 C110 1.390 . S
C109 H118 0.930 . S
C110 C106 1.391 . S
C110 C109 1.390 . S
C110 H119 0.930 . S
C111 Eu81 2.825 . S
C111 O96 1.238 . S
C111 O97 1.247 . S
C111 C105 1.507 . S
H112 C85 0.930 . S
H113 C86 0.931 . S
H114 C87 0.930 . S
H115 C88 0.930 . S
H116 C107 0.930 . S
H117 C108 0.931 . S
H118 C109 0.930 . S
H119 C110 0.930 . S
C120 C121 1.349 . S
C120 C122 1.327 . S
C120 H145 0.950 . S
C121 C120 1.349 . S
C121 C137 1.349 . S
C122 C120 1.327 . S
C122 C141 1.429 . S
C122 H146 0.950 . S
C123 C140 1.574 . S
C123 C142 1.368 1_556 S
C123 H147 0.949 . S
H124 C128 0.949 . S
C125 C126 1.349 . S
C125 C127 1.327 . S
C125 H148 0.950 . S
C126 C125 1.349 . S
C126 C138 1.349 . S
C127 C125 1.327 . S
C127 C143 1.429 . S
C127 H149 0.950 . S
C128 H124 0.949 . S
C128 C136 1.574 . S
C128 C144 1.368 1_554 S
H129 C137 0.950 . S
H130 C135 0.950 1_556 S
H131 C136 0.949 . S
H132 C138 0.950 . S
H133 C139 0.950 . S
H134 C140 0.949 . S
C135 H130 0.950 1_554 S
C135 C137 1.327 . S
C135 C141 1.429 . S
C136 C128 1.574 . S
C136 H131 0.949 . S
C136 C142 1.368 . S
C137 C121 1.349 . S
C137 H129 0.950 . S
C137 C135 1.327 . S
C138 C126 1.349 . S
C138 H132 0.950 . S
C138 C139 1.327 . S
C139 H133 0.950 . S
C139 C138 1.327 . S
C139 C143 1.429 . S
C140 C123 1.574 . S
C140 H134 0.949 . S
C140 C144 1.368 . S
C141 C122 1.429 . S
C141 C135 1.429 . S
C141 C142 1.523 . S
C142 C123 1.368 1_554 S
C142 C136 1.368 . S
C142 C141 1.523 . S
C143 C127 1.429 . S
C143 C139 1.429 . S
C143 C144 1.523 . S
C144 C128 1.368 1_556 S
C144 C140 1.368 . S
C144 C143 1.523 . S
H145 C120 0.950 . S
H146 C122 0.950 . S
H147 C123 0.949 . S
H148 C125 0.950 . S
H149 C127 0.950 . S
C150 C151 1.349 . S
C150 C152 1.327 . S
C150 H175 0.950 . S
C151 C150 1.349 . S
C151 C167 1.349 . S
C152 C150 1.327 . S
C152 C171 1.429 . S
C152 H176 0.950 . S
C153 C170 1.574 . S
C153 C172 1.368 . S
C153 H177 0.949 . S
H154 C158 0.949 . S
C155 C156 1.349 . S
C155 C157 1.327 . S
C155 H178 0.950 . S
C156 C155 1.349 . S
C156 C168 1.349 . S
C157 C155 1.327 . S
C157 C173 1.429 . S
C157 H179 0.950 . S
C158 H154 0.949 . S
C158 C166 1.574 . S
C158 C174 1.368 . S
H159 C167 0.950 . S
H160 C165 0.950 . S
H161 C166 0.949 . S
H162 C168 0.950 . S
H163 C169 0.950 . S
H164 C170 0.949 . S
C165 H160 0.950 . S
C165 C167 1.327 . S
C165 C171 1.429 . S
C166 C158 1.574 . S
C166 H161 0.949 . S
C166 C172 1.368 . S
C167 C151 1.349 . S
C167 H159 0.950 . S
C167 C165 1.327 . S
C168 C156 1.349 . S
C168 H162 0.950 . S
C168 C169 1.327 . S
C169 H163 0.950 . S
C169 C168 1.327 . S
C169 C173 1.429 . S
C170 C153 1.574 . S
C170 H164 0.949 . S
C170 C174 1.368 . S
C171 C152 1.429 . S
C171 C165 1.429 . S
C171 C172 1.523 . S
C172 C153 1.368 . S
C172 C166 1.368 . S
C172 C171 1.523 . S
C173 C157 1.429 . S
C173 C169 1.429 . S
C173 C174 1.523 . S
C174 C158 1.368 . S
C174 C170 1.368 . S
C174 C173 1.523 . S
H175 C150 0.950 . S
H176 C152 0.950 . S
H177 C153 0.949 . S
H178 C155 0.950 . S
H179 C157 0.950 . S
C180 C181 1.349 . S
C180 C182 1.327 . S
C180 H205 0.950 . S
C181 C180 1.349 . S
C181 C197 1.349 . S
C182 C180 1.327 . S
C182 C201 1.429 . S
C182 H206 0.950 . S
C183 C200 1.574 . S
C183 C202 1.368 . S
C183 H207 0.949 . S
H184 C188 0.949 . S
C185 C186 1.349 . S
C185 C187 1.327 . S
C185 H208 0.950 . S
C186 C185 1.349 . S
C186 C198 1.349 . S
C187 C185 1.327 . S
C187 C203 1.429 . S
C187 H209 0.950 . S
C188 H184 0.949 . S
C188 C196 1.574 . S
C188 C204 1.368 . S
H189 C197 0.950 . S
H190 C195 0.950 . S
H191 C196 0.949 . S
H192 C198 0.950 . S
H193 C199 0.950 . S
H194 C200 0.949 . S
C195 H190 0.950 . S
C195 C197 1.327 . S
C195 C201 1.429 . S
C196 C188 1.574 . S
C196 H191 0.949 . S
C196 C202 1.368 . S
C197 C181 1.349 . S
C197 H189 0.950 . S
C197 C195 1.327 . S
C198 C186 1.349 . S
C198 H192 0.950 . S
C198 C199 1.327 . S
C199 H193 0.950 . S
C199 C198 1.327 . S
C199 C203 1.429 . S
C200 C183 1.574 . S
C200 H194 0.949 . S
C200 C204 1.368 . S
C201 C182 1.429 . S
C201 C195 1.429 . S
C201 C202 1.523 . S
C202 C183 1.368 . S
C202 C196 1.368 . S
C202 C201 1.523 . S
C203 C187 1.429 . S
C203 C199 1.429 . S
C203 C204 1.523 . S
C204 C188 1.368 . S
C204 C200 1.368 . S
C204 C203 1.523 . S
H205 C180 0.950 . S
H206 C182 0.950 . S
H207 C183 0.949 . S
H208 C185 0.950 . S
H209 C187 0.950 . S
C210 C211 1.349 . S
C210 C212 1.327 . S
C210 H235 0.950 . S
C211 C210 1.349 . S
C211 C227 1.349 . S
C212 C210 1.327 . S
C212 C231 1.429 . S
C212 H236 0.950 . S
C213 C230 1.574 . S
C213 C232 1.368 1_554 S
C213 H237 0.949 . S
H214 C218 0.949 . S
C215 C216 1.349 . S
C215 C217 1.327 . S
C215 H238 0.950 . S
C216 C215 1.349 . S
C216 C228 1.349 . S
C217 C215 1.327 . S
C217 C233 1.429 . S
C217 H239 0.950 . S
C218 H214 0.949 . S
C218 C226 1.574 . S
C218 C234 1.368 1_556 S
H219 C227 0.950 . S
H220 C225 0.950 1_554 S
H221 C226 0.949 . S
H222 C228 0.950 . S
H223 C229 0.950 . S
H224 C230 0.949 . S
C225 H220 0.950 1_556 S
C225 C227 1.327 . S
C225 C231 1.429 . S
C226 C218 1.574 . S
C226 H221 0.949 . S
C226 C232 1.368 . S
C227 C211 1.349 . S
C227 H219 0.950 . S
C227 C225 1.327 . S
C228 C216 1.349 . S
C228 H222 0.950 . S
C228 C229 1.327 . S
C229 H223 0.950 . S
C229 C228 1.327 . S
C229 C233 1.429 . S
C230 C213 1.574 . S
C230 H224 0.949 . S
C230 C234 1.368 . S
C231 C212 1.429 . S
C231 C225 1.429 . S
C231 C232 1.523 . S
C232 C213 1.368 1_556 S
C232 C226 1.368 . S
C232 C231 1.523 . S
C233 C217 1.429 . S
C233 C229 1.429 . S
C233 C234 1.523 . S
C234 C218 1.368 1_554 S
C234 C230 1.368 . S
C234 C233 1.523 . S
H235 C210 0.950 . S
H236 C212 0.950 . S
H237 C213 0.949 . S
H238 C215 0.950 . S
H239 C217 0.950 . S
C240 C241 1.349 . S
C240 C242 1.327 . S
C240 H265 0.950 . S
C241 C240 1.349 . S
C241 C257 1.349 . S
C242 C240 1.327 . S
C242 C261 1.429 . S
C242 H266 0.950 . S
C243 C260 1.574 . S
C243 C262 1.368 . S
C243 H267 0.949 . S
H244 C248 0.949 . S
C245 C246 1.349 . S
C245 C247 1.327 . S
C245 H268 0.950 . S
C246 C245 1.349 . S
C246 C258 1.349 . S
C247 C245 1.327 . S
C247 C263 1.429 . S
C247 H269 0.950 . S
C248 H244 0.949 . S
C248 C256 1.574 . S
C248 C264 1.368 . S
H249 C257 0.950 . S
H250 C255 0.950 . S
H251 C256 0.949 . S
H252 C258 0.950 . S
H253 C259 0.950 . S
H254 C260 0.949 . S
C255 H250 0.950 . S
C255 C257 1.327 . S
C255 C261 1.429 . S
C256 C248 1.574 . S
C256 H251 0.949 . S
C256 C262 1.368 . S
C257 C241 1.349 . S
C257 H249 0.950 . S
C257 C255 1.327 . S
C258 C246 1.349 . S
C258 H252 0.950 . S
C258 C259 1.327 . S
C259 H253 0.950 . S
C259 C258 1.327 . S
C259 C263 1.429 . S
C260 C243 1.574 . S
C260 H254 0.949 . S
C260 C264 1.368 . S
C261 C242 1.429 . S
C261 C255 1.429 . S
C261 C262 1.523 . S
C262 C243 1.368 . S
C262 C256 1.368 . S
C262 C261 1.523 . S
C263 C247 1.429 . S
C263 C259 1.429 . S
C263 C264 1.523 . S
C264 C248 1.368 . S
C264 C260 1.368 . S
C264 C263 1.523 . S
H265 C240 0.950 . S
H266 C242 0.950 . S
H267 C243 0.949 . S
H268 C245 0.950 . S
H269 C247 0.950 . S
C270 C271 1.349 . S
C270 C272 1.327 . S
C270 H295 0.950 . S
C271 C270 1.349 . S
C271 C287 1.349 . S
C272 C270 1.327 . S
C272 C291 1.429 . S
C272 H296 0.950 . S
C273 C290 1.574 . S
C273 C292 1.368 . S
C273 H297 0.949 . S
H274 C278 0.949 . S
C275 C276 1.349 . S
C275 C277 1.327 . S
C275 H298 0.950 . S
C276 C275 1.349 . S
C276 C288 1.349 . S
C277 C275 1.327 . S
C277 C293 1.429 . S
C277 H299 0.950 . S
C278 H274 0.949 . S
C278 C286 1.574 . S
C278 C294 1.368 . S
H279 C287 0.950 . S
H280 C285 0.950 . S
H281 C286 0.949 . S
H282 C288 0.950 . S
H283 C289 0.950 . S
H284 C290 0.949 . S
C285 H280 0.950 . S
C285 C287 1.327 . S
C285 C291 1.429 . S
C286 C278 1.574 . S
C286 H281 0.949 . S
C286 C292 1.368 . S
C287 C271 1.349 . S
C287 H279 0.950 . S
C287 C285 1.327 . S
C288 C276 1.349 . S
C288 H282 0.950 . S
C288 C289 1.327 . S
C289 H283 0.950 . S
C289 C288 1.327 . S
C289 C293 1.429 . S
C290 C273 1.574 . S
C290 H284 0.949 . S
C290 C294 1.368 . S
C291 C272 1.429 . S
C291 C285 1.429 . S
C291 C292 1.523 . S
C292 C273 1.368 . S
C292 C286 1.368 . S
C292 C291 1.523 . S
C293 C277 1.429 . S
C293 C289 1.429 . S
C293 C294 1.523 . S
C294 C278 1.368 . S
C294 C290 1.368 . S
C294 C293 1.523 . S
H295 C270 0.950 . S
H296 C272 0.950 . S
H297 C273 0.949 . S
H298 C275 0.950 . S
H299 C277 0.950 . S
C300 C301 1.349 1_556 S
C300 C302 1.327 . S
C300 H325 0.950 1_556 S
C301 C300 1.349 1_554 S
C301 C317 1.349 1_454 S
C302 C300 1.327 . S
C302 C321 1.429 . S
C302 H326 0.950 . S
C303 C320 1.574 . S
C303 C322 1.368 1_655 S
C303 H327 0.949 . S
H304 C308 0.949 . S
C305 C306 1.349 1_655 S
C305 C307 1.327 . S
C305 H328 0.950 . S
C306 C305 1.349 1_455 S
C306 C318 1.349 . S
C307 C305 1.327 . S
C307 C323 1.429 1_655 S
C307 H329 0.950 . S
C308 H304 0.949 . S
C308 C316 1.574 . S
C308 C324 1.368 . S
H309 C317 0.950 . S
H310 C315 0.950 . S
H311 C316 0.949 . S
H312 C318 0.950 . S
H313 C319 0.950 . S
H314 C320 0.949 . S
C315 H310 0.950 . S
C315 C317 1.327 . S
C315 C321 1.429 1_655 S
C316 C308 1.574 . S
C316 H311 0.949 . S
C316 C322 1.368 . S
C317 C301 1.349 1_656 S
C317 H309 0.950 . S
C317 C315 1.327 . S
C318 C306 1.349 . S
C318 H312 0.950 . S
C318 C319 1.327 . S
C319 H313 0.950 . S
C319 C318 1.327 . S
C319 C323 1.429 . S
C320 C303 1.574 . S
C320 H314 0.949 . S
C320 C324 1.368 1_655 S
C321 C302 1.429 . S
C321 C315 1.429 1_455 S
C321 C322 1.523 . S
C322 C303 1.368 1_455 S
C322 C316 1.368 . S
C322 C321 1.523 . S
C323 C307 1.429 1_455 S
C323 C319 1.429 . S
C323 C324 1.523 . S
C324 C308 1.368 . S
C324 C320 1.368 1_455 S
C324 C323 1.523 . S
H325 C300 0.950 1_554 S
H326 C302 0.950 . S
H327 C303 0.949 . S
H328 C305 0.950 . S
H329 C307 0.950 . S
C330 C331 1.349 . S
C330 C332 1.327 . S
C330 H355 0.950 . S
C331 C330 1.349 . S
C331 C347 1.349 . S
C332 C330 1.327 . S
C332 C351 1.429 . S
C332 H356 0.950 . S
C333 C350 1.574 1_554 S
C333 C352 1.368 . S
C333 H357 0.949 1_545 S
H334 C338 0.949 . S
C335 C336 1.349 . S
C335 C337 1.327 . S
C335 H358 0.950 1_545 S
C336 C335 1.349 . S
C336 C348 1.349 . S
C337 C335 1.327 . S
C337 C353 1.429 . S
C337 H359 0.950 1_545 S
C338 H334 0.949 . S
C338 C346 1.574 1_556 S
C338 C354 1.368 . S
H339 C347 0.950 1_565 S
H340 C345 0.950 1_565 S
H341 C346 0.949 . S
H342 C348 0.950 . S
H343 C349 0.950 . S
H344 C350 0.949 1_565 S
C345 H340 0.950 1_545 S
C345 C347 1.327 . S
C345 C351 1.429 . S
C346 C338 1.574 1_554 S
C346 H341 0.949 . S
C346 C352 1.368 . S
C347 C331 1.349 . S
C347 H339 0.950 1_545 S
C347 C345 1.327 . S
C348 C336 1.349 . S
C348 H342 0.950 . S
C348 C349 1.327 . S
C349 H343 0.950 . S
C349 C348 1.327 . S
C349 C353 1.429 . S
C350 C333 1.574 1_556 S
C350 H344 0.949 1_545 S
C350 C354 1.368 . S
C351 C332 1.429 . S
C351 C345 1.429 . S
C351 C352 1.523 . S
C352 C333 1.368 . S
C352 C346 1.368 . S
C352 C351 1.523 . S
C353 C337 1.429 . S
C353 C349 1.429 . S
C353 C354 1.523 . S
C354 C338 1.368 . S
C354 C350 1.368 . S
C354 C353 1.523 . S
H355 C330 0.950 . S
H356 C332 0.950 . S
H357 C333 0.949 1_565 S
H358 C335 0.950 1_565 S
H359 C337 0.950 1_565 S
C360 C361 1.349 . S
C360 C362 1.327 . S
C360 H385 0.950 . S
C361 C360 1.349 . S
C361 C377 1.349 . S
C362 C360 1.327 . S
C362 C381 1.429 . S
C362 H386 0.950 . S
C363 C380 1.574 . S
C363 C382 1.368 . S
C363 H387 0.949 . S
H364 C368 0.949 . S
C365 C366 1.349 1_554 S
C365 C367 1.327 . S
C365 H388 0.950 . S
C366 C365 1.349 1_556 S
C366 C378 1.349 1_556 S
C367 C365 1.327 . S
C367 C383 1.429 . S
C367 H389 0.950 . S
C368 H364 0.949 . S
C368 C376 1.574 . S
C368 C384 1.368 . S
H369 C377 0.950 . S
H370 C375 0.950 . S
H371 C376 0.949 . S
H372 C378 0.950 . S
H373 C379 0.950 . S
H374 C380 0.949 . S
C375 H370 0.950 . S
C375 C377 1.327 . S
C375 C381 1.429 . S
C376 C368 1.574 . S
C376 H371 0.949 . S
C376 C382 1.368 . S
C377 C361 1.349 . S
C377 H369 0.950 . S
C377 C375 1.327 . S
C378 C366 1.349 1_554 S
C378 H372 0.950 . S
C378 C379 1.327 . S
C379 H373 0.950 . S
C379 C378 1.327 . S
C379 C383 1.429 . S
C380 C363 1.574 . S
C380 H374 0.949 . S
C380 C384 1.368 . S
C381 C362 1.429 . S
C381 C375 1.429 . S
C381 C382 1.523 . S
C382 C363 1.368 . S
C382 C376 1.368 . S
C382 C381 1.523 . S
C383 C367 1.429 . S
C383 C379 1.429 . S
C383 C384 1.523 . S
C384 C368 1.368 . S
C384 C380 1.368 . S
C384 C383 1.523 . S
H385 C360 0.950 . S
H386 C362 0.950 . S
H387 C363 0.949 . S
H388 C365 0.950 . S
H389 C367 0.950 . S
C121 C9 2.075 . S
C126 C102 2.065 . S
C151 C49 2.194 . S
C156 C3 2.177 . S
C181 C43 2.080 . S
C186 C89 2.088 . S
C211 C83 2.166 . S
C216 C26 2.117 . S
C241 C66 1.991 . S
C246 C22 2.037 . S
C271 C106 2.099 . S
C276 C62 2.141 . S
C301 C15 0.372 . S
C306 C2 0.372 . S
C331 C55 0.354 . S
C336 C42 0.354 . S
C361 C95 0.369 . S
C366 C82 0.369 . S
