# Generated by pormake.
# Topology wje, (4)-cn, num edge types: 1
# Building blocks:
#     Node 0, Type 0, BuildingBlock: UXUYUI_clean_sbu_0, # of connection points: 4
#     Node 1, Type 0, BuildingBlock: UXUYUI_clean_sbu_0, # of connection points: 4
#     Node 2, Type 0, BuildingBlock: UXUYUI_clean_sbu_0, # of connection points: 4
#     Node 3, Type 0, BuildingBlock: UXUYUI_clean_sbu_0, # of connection points: 4
#     Node 4, Type 0, BuildingBlock: UXUYUI_clean_sbu_0, # of connection points: 4
#     Node 5, Type 0, BuildingBlock: UXUYUI_clean_sbu_0, # of connection points: 4
#     Node 6, Type 0, BuildingBlock: UXUYUI_clean_sbu_0, # of connection points: 4
#     Node 7, Type 0, BuildingBlock: UXUYUI_clean_sbu_0, # of connection points: 4
#     Node 8, Type 0, BuildingBlock: UXUYUI_clean_sbu_0, # of connection points: 4
#     Node 9, Type 0, BuildingBlock: UXUYUI_clean_sbu_0, # of connection points: 4
#     Node 10, Type 0, BuildingBlock: UXUYUI_clean_sbu_0, # of connection points: 4
#     Node 11, Type 0, BuildingBlock: UXUYUI_clean_sbu_0, # of connection points: 4
#     Edge 12, Type (0, 0), BuildingBlock: XIVTED_clean_linker_0, # of connection points: 2
#     Edge 13, Type (0, 0), BuildingBlock: XIVTED_clean_linker_0, # of connection points: 2
#     Edge 14, Type (0, 0), BuildingBlock: XIVTED_clean_linker_0, # of connection points: 2
#     Edge 15, Type (0, 0), BuildingBlock: XIVTED_clean_linker_0, # of connection points: 2
#     Edge 16, Type (0, 0), BuildingBlock: XIVTED_clean_linker_0, # of connection points: 2
#     Edge 17, Type (0, 0), BuildingBlock: XIVTED_clean_linker_0, # of connection points: 2
#     Edge 18, Type (0, 0), BuildingBlock: XIVTED_clean_linker_0, # of connection points: 2
#     Edge 19, Type (0, 0), BuildingBlock: XIVTED_clean_linker_0, # of connection points: 2
#     Edge 20, Type (0, 0), BuildingBlock: XIVTED_clean_linker_0, # of connection points: 2
#     Edge 21, Type (0, 0), BuildingBlock: XIVTED_clean_linker_0, # of connection points: 2
#     Edge 22, Type (0, 0), BuildingBlock: XIVTED_clean_linker_0, # of connection points: 2
#     Edge 23, Type (0, 0), BuildingBlock: XIVTED_clean_linker_0, # of connection points: 2
#     Edge 24, Type (0, 0), BuildingBlock: XIVTED_clean_linker_0, # of connection points: 2
#     Edge 25, Type (0, 0), BuildingBlock: XIVTED_clean_linker_0, # of connection points: 2
#     Edge 26, Type (0, 0), BuildingBlock: XIVTED_clean_linker_0, # of connection points: 2
#     Edge 27, Type (0, 0), BuildingBlock: XIVTED_clean_linker_0, # of connection points: 2
#     Edge 28, Type (0, 0), BuildingBlock: XIVTED_clean_linker_0, # of connection points: 2
#     Edge 29, Type (0, 0), BuildingBlock: XIVTED_clean_linker_0, # of connection points: 2
#     Edge 30, Type (0, 0), BuildingBlock: XIVTED_clean_linker_0, # of connection points: 2
#     Edge 31, Type (0, 0), BuildingBlock: XIVTED_clean_linker_0, # of connection points: 2
#     Edge 32, Type (0, 0), BuildingBlock: XIVTED_clean_linker_0, # of connection points: 2
#     Edge 33, Type (0, 0), BuildingBlock: XIVTED_clean_linker_0, # of connection points: 2
#     Edge 34, Type (0, 0), BuildingBlock: XIVTED_clean_linker_0, # of connection points: 2
#     Edge 35, Type (0, 0), BuildingBlock: XIVTED_clean_linker_0, # of connection points: 2
# Relax obj value: 0.245
# Max RMSD: 0.179
# Mean RMSD: 0.178
data_MOF--net-wje--node1-UXUYUI_clean_sbu_0--edge1-XIVTED_clean_linker_0
_symmetry_space_group_name_H-M    P1
_symmetry_Int_Tables_number       1
_symmetry_cell_setting            triclinic
loop_
_symmetry_equiv_pos_as_xyz
'x, y, z'
_cell_length_a     62.542172
_cell_length_b     62.568566
_cell_length_c     48.732244
_cell_angle_alpha  89.987184
_cell_angle_beta   90.009673
_cell_angle_gamma 119.98929
loop_
_atom_site_label
_atom_site_type_symbol
_atom_site_fract_x
_atom_site_fract_y
_atom_site_fract_z
_atom_type_partial_charge
Li0 Li 0.34589 0.00205 0.26434 0.0
Li1 Li 0.32934 0.01537 0.30425 0.0
Li2 Li 0.30263 0.98693 0.27149 0.0
Li3 Li 0.32605 0.02884 0.25748 0.0
C4 C 0.31354 0.95862 0.30214 0.0
N5 N 0.2874 0.90882 0.31426 0.0
C6 C 0.29736 0.95012 0.32448 0.0
C7 C 0.31654 0.9418 0.28606 0.0
C8 C 0.28424 0.92486 0.3302 0.0
C9 C 0.30317 0.9167 0.29254 0.0
C10 C 0.37868 0.05435 0.28802 0.0
C11 C 0.40776 0.0973 0.2967 0.0
N12 N 0.42386 0.09089 0.30737 0.0
C13 C 0.39559 0.04822 0.29893 0.0
C14 C 0.38486 0.07911 0.28675 0.0
C15 C 0.4183 0.06694 0.30867 0.0
C16 C 0.38312 0.00357 0.22905 0.0
N17 N 0.37189 0.99648 0.25392 0.0
C18 C 0.4 0.98332 0.26812 0.0
C19 C 0.37975 0.98631 0.27323 0.0
C20 C 0.41233 0.99077 0.2428 0.0
C21 C 0.4035 0.00083 0.22299 0.0
H22 H 0.37649 0.01172 0.21413 0.0
H23 H 0.37069 0.98121 0.293 0.0
C24 C 0.3095 0.01116 0.35548 0.0
N25 N 0.33176 0.021 0.34275 0.0
C26 C 0.30796 0.00983 0.38398 0.0
C27 C 0.35246 0.02977 0.386 0.0
C28 C 0.35312 0.03061 0.35732 0.0
C29 C 0.32959 0.0187 0.39967 0.0
H30 H 0.29275 0.00306 0.3434 0.0
H31 H 0.37056 0.03796 0.34683 0.0
C32 C 0.30521 0.98308 0.21797 0.0
N33 N 0.27182 0.94958 0.18104 0.0
C34 C 0.28399 0.98397 0.21103 0.0
C35 C 0.30962 0.96537 0.20597 0.0
C36 C 0.26726 0.96678 0.19238 0.0
C37 C 0.29247 0.94855 0.18736 0.0
C38 C 0.2976 0.03386 0.29709 0.0
C39 C 0.27417 0.0315 0.29803 0.0
C40 C 0.31799 0.05551 0.30667 0.0
C41 C 0.27159 0.05092 0.30837 0.0
C42 C 0.31466 0.0745 0.31687 0.0
N43 N 0.29172 0.07184 0.31749 0.0
C44 C 0.25411 0.9596 0.28814 0.0
C45 C 0.26522 0.93585 0.25997 0.0
C46 C 0.23172 0.9388 0.2947 0.0
N47 N 0.27053 0.9578 0.27144 0.0
C48 C 0.24303 0.9144 0.26624 0.0
C49 C 0.22619 0.9157 0.28428 0.0
H50 H 0.25898 0.97696 0.29778 0.0
H51 H 0.27875 0.93461 0.24735 0.0
C52 C 0.34953 0.07137 0.22398 0.0
N53 N 0.32784 0.05517 0.23624 0.0
C54 C 0.35168 0.09177 0.20976 0.0
C55 C 0.30907 0.07817 0.22081 0.0
C56 C 0.30759 0.0578 0.23424 0.0
C57 C 0.33137 0.09551 0.2086 0.0
H58 H 0.36526 0.06865 0.22565 0.0
H59 H 0.29035 0.04423 0.24333 0.0
O60 O 0.32621 0.98323 0.29588 0.0
O61 O 0.35651 0.03631 0.27787 0.0
O62 O 0.32177 -0.00031 0.23617 0.0
O63 O 0.30035 0.015 0.28672 0.0
H64 H 0.29472 0.96283 0.33708 0.0
H65 H 0.32872 0.94799 0.26847 0.0
H66 H 0.27149 0.91801 0.34728 0.0
H67 H 0.3052 0.90347 0.28017 0.0
H68 H 0.41273 0.11652 0.2959 0.0
H69 H 0.39109 0.0292 0.30032 0.0
H70 H 0.37213 0.08428 0.27817 0.0
H71 H 0.43148 0.06242 0.31733 0.0
H72 H 0.40639 0.97601 0.28428 0.0
H73 H 0.4123 0.00665 0.20313 0.0
H74 H 0.28989 0.0007 0.39347 0.0
H75 H 0.36962 0.03709 0.39728 0.0
H76 H 0.28041 0.99766 0.22013 0.0
H77 H 0.32604 0.96455 0.21113 0.0
H78 H 0.25067 0.96712 0.18692 0.0
H79 H 0.29556 0.93465 0.17799 0.0
H80 H 0.25815 0.01496 0.29057 0.0
H81 H 0.33615 0.05758 0.30648 0.0
H82 H 0.25358 0.04937 0.30909 0.0
H83 H 0.33032 0.09134 0.32435 0.0
H84 H 0.21954 0.9406 0.30912 0.0
H85 H 0.23944 0.8969 0.25778 0.0
H86 H 0.36914 0.10481 0.20046 0.0
H87 H 0.29295 0.08035 0.21988 0.0
Li88 Li 0.34395 0.34568 0.59257 0.0
Li89 Li 0.31543 0.32999 0.6335 0.0
Li90 Li 0.3165 0.30269 0.60122 0.0
Li91 Li 0.29741 0.3254 0.58702 0.0
C92 C 0.35639 0.3141 0.63008 0.0
N93 N 0.3799 0.28753 0.64083 0.0
C94 C 0.35096 0.29999 0.654 0.0
C95 C 0.37387 0.31477 0.61168 0.0
C96 C 0.36296 0.28661 0.65901 0.0
C97 C 0.3856 0.30126 0.61751 0.0
C98 C 0.32827 0.37968 0.616 0.0
C99 C 0.32177 0.41426 0.62219 0.0
N100 N 0.3446 0.42736 0.63361 0.0
C101 C 0.35163 0.39346 0.62787 0.0
C102 C 0.31319 0.39014 0.61313 0.0
C103 C 0.35957 0.41755 0.63661 0.0
C104 C 0.37565 0.38766 0.56052 0.0
N105 N 0.37471 0.37254 0.58111 0.0
C106 C 0.41675 0.40028 0.59282 0.0
C107 C 0.3948 0.37819 0.59682 0.0
C108 C 0.41799 0.41695 0.57272 0.0
C109 C 0.39734 0.41011 0.55584 0.0
H110 H 0.3592 0.38291 0.54876 0.0
H111 H 0.39336 0.3663 0.61363 0.0
C112 C 0.30181 0.31087 0.68508 0.0
N113 N 0.31251 0.33299 0.67199 0.0
C114 C 0.30188 0.30976 0.7136 0.0
C115 C 0.32295 0.35432 0.71491 0.0
C116 C 0.3225 0.35455 0.68622 0.0
C117 C 0.31307 0.33169 0.72893 0.0
H118 H 0.29432 0.29402 0.67325 0.0
H119 H 0.33088 0.37193 0.67551 0.0
C120 C 0.32171 0.30407 0.54731 0.0
N121 N 0.32139 0.2704 0.51049 0.0
C122 C 0.2996 0.28259 0.54113 0.0
C123 C 0.34362 0.30861 0.53461 0.0
C124 C 0.29985 0.26572 0.52253 0.0
C125 C 0.34307 0.29132 0.51606 0.0
C126 C 0.26536 0.29864 0.6281 0.0
C127 C 0.24471 0.27528 0.63209 0.0
C128 C 0.26414 0.31965 0.63526 0.0
C129 C 0.22318 0.27333 0.64311 0.0
C130 C 0.24229 0.31693 0.64624 0.0
N131 N 0.22243 0.29402 0.64989 0.0
C132 C 0.29679 0.2557 0.62158 0.0
C133 C 0.32833 0.26371 0.58943 0.0
C134 C 0.29532 0.23359 0.62918 0.0
N135 N 0.31334 0.27049 0.60237 0.0
C136 C 0.3277 0.24175 0.59669 0.0
C137 C 0.31131 0.22664 0.6172 0.0
H138 H 0.28566 0.26173 0.63231 0.0
H139 H 0.34184 0.27595 0.57476 0.0
C140 C 0.2764 0.34719 0.55361 0.0
N141 N 0.27204 0.32603 0.56624 0.0
C142 C 0.25752 0.34806 0.53919 0.0
C143 C 0.23014 0.30531 0.55103 0.0
C144 C 0.24964 0.30517 0.56472 0.0
C145 C 0.23383 0.32698 0.53801 0.0
H146 H 0.29455 0.36342 0.5548 0.0
H147 H 0.2468 0.28843 0.57445 0.0
O148 O 0.34448 0.32697 0.62453 0.0
O149 O 0.32034 0.35629 0.60662 0.0
O150 O 0.32186 0.32084 0.56533 0.0
O151 O 0.28648 0.30066 0.61711 0.0
H152 H 0.33749 0.29919 0.66846 0.0
H153 H 0.37799 0.32522 0.5928 0.0
H154 H 0.35879 0.27547 0.67734 0.0
H155 H 0.39904 0.3015 0.60337 0.0
H156 H 0.31029 0.42258 0.62011 0.0
H157 H 0.3633 0.38548 0.63083 0.0
H158 H 0.29504 0.37972 0.60403 0.0
H159 H 0.37758 0.42839 0.6459 0.0
H160 H 0.43231 0.40472 0.6061 0.0
H161 H 0.39747 0.42256 0.5403 0.0
H162 H 0.29437 0.2919 0.72341 0.0
H163 H 0.33144 0.37166 0.72594 0.0
H164 H 0.2825 0.27892 0.55076 0.0
H165 H 0.36084 0.32526 0.53914 0.0
H166 H 0.28291 0.24892 0.51766 0.0
H167 H 0.35989 0.2945 0.50614 0.0
H168 H 0.24522 0.2588 0.62653 0.0
H169 H 0.27982 0.33787 0.6325 0.0
H170 H 0.20706 0.25536 0.64623 0.0
H171 H 0.24112 0.33304 0.65185 0.0
H172 H 0.28276 0.22277 0.64546 0.0
H173 H 0.34037 0.23702 0.587 0.0
H174 H 0.26154 0.36505 0.52902 0.0
H175 H 0.21227 0.28866 0.55118 0.0
Li176 Li 0.99592 0.34841 0.92801 0.0
Li177 Li 0.98084 0.3186 0.96776 0.0
Li178 Li 0.01245 0.32115 0.93762 0.0
Li179 Li 0.97096 0.3021 0.9218 0.0
C180 C 0.03672 0.36001 0.97083 0.0
N181 N 0.08462 0.38367 0.99018 0.0
C182 C 0.04255 0.3518 0.99484 0.0
C183 C 0.05515 0.38038 0.9568 0.0
C184 C 0.06692 0.36396 0.00423 0.0
C185 C 0.07928 0.39209 0.96691 0.0
C186 C 0.94319 0.32486 0.95559 0.0
C187 C 0.90724 0.30394 0.98455 0.0
N188 N 0.90759 0.32563 0.9885 0.0
C189 C 0.94305 0.34689 0.95971 0.0
C190 C 0.92501 0.30315 0.9679 0.0
C191 C 0.92495 0.34692 0.97649 0.0
C192 C 0.99626 0.38387 0.89097 0.0
N193 N 0.00073 0.37947 0.91708 0.0
C194 C 0.00568 0.4179 0.93232 0.0
C195 C 0.00599 0.39616 0.93748 0.0
C196 C 0.00025 0.42258 0.90583 0.0
C197 C 0.99621 0.40568 0.88476 0.0
H198 H 0.9918 0.37004 0.87527 0.0
H199 H 0.00913 0.39193 0.95811 0.0
C200 C 0.97477 0.29811 0.01977 0.0
N201 N 0.97343 0.31612 0.00562 0.0
C202 C 0.97564 0.2987 0.04836 0.0
C203 C 0.97249 0.33568 0.04733 0.0
C204 C 0.97202 0.33457 0.01869 0.0
C205 C 0.97512 0.31801 0.0624 0.0
H206 H 0.97676 0.28418 0.00885 0.0
H207 H 0.97207 0.34924 0.00692 0.0
C208 C 0.02041 0.33128 0.88483 0.0
N209 N 0.05953 0.33974 0.85139 0.0
C210 C 0.02347 0.31162 0.87646 0.0
C211 C 0.03713 0.35523 0.8761 0.0
C212 C 0.04342 0.31629 0.85961 0.0
C213 C 0.0568 0.35912 0.85919 0.0
C214 C 0.97235 0.26637 0.94975 0.0
C215 C 0.98366 0.2554 0.93526 0.0
C216 C 0.94908 0.25153 0.96143 0.0
C217 C 0.9713 0.22976 0.93234 0.0
C218 C 0.9373 0.22596 0.958 0.0
N219 N 0.94855 0.2157 0.94364 0.0
C220 C 0.04033 0.30298 0.96072 0.0
C221 C 0.06459 0.33622 0.93073 0.0
C222 C 0.06109 0.30218 0.96945 0.0
N223 N 0.0423 0.31974 0.94168 0.0
C224 C 0.08601 0.33621 0.93909 0.0
C225 C 0.08437 0.31912 0.9589 0.0
H226 H 0.02277 0.29095 0.9703 0.0
H227 H 0.06603 0.35018 0.91663 0.0
C228 C 0.92315 0.2758 0.89965 0.0
N229 N 0.9454 0.2769 0.90002 0.0
C230 C 0.90326 0.25691 0.88558 0.0
C231 C 0.92961 0.24079 0.87199 0.0
C232 C 0.94913 0.26031 0.8859 0.0
C233 C 0.90613 0.23871 0.87192 0.0
H234 H 0.92078 0.28956 0.9104 0.0
H235 H 0.96712 0.26191 0.88583 0.0
O236 O 0.01315 0.34791 0.96085 0.0
O237 O 0.96091 0.32448 0.93947 0.0
O238 O 0.00091 0.32708 0.90115 0.0
O239 O 0.98412 0.29148 0.95275 0.0
H240 H 0.02847 0.33599 0.00587 0.0
H241 H 0.05091 0.38687 0.93811 0.0
H242 H 0.07177 0.35767 0.02264 0.0
H243 H 0.09379 0.40778 0.95617 0.0
H244 H 0.89314 0.28729 0.99432 0.0
H245 H 0.95673 0.3638 0.95008 0.0
H246 H 0.92464 0.2859 0.96463 0.0
H247 H 0.9247 0.36387 0.97995 0.0
H248 H 0.00894 0.43061 0.94902 0.0
H249 H 0.99179 0.4087 0.86414 0.0
H250 H 0.97764 0.28474 0.05933 0.0
H251 H 0.97241 0.35104 0.05748 0.0
H252 H 0.01069 0.29299 0.88305 0.0
H253 H 0.03506 0.37065 0.88246 0.0
H254 H 0.04611 0.30127 0.85308 0.0
H255 H 0.06994 0.37756 0.85234 0.0
H256 H 0.00164 0.26658 0.92603 0.0
H257 H 0.94024 0.25964 0.97309 0.0
H258 H 0.97976 0.22106 0.92101 0.0
H259 H 0.91924 0.21428 0.96683 0.0
H260 H 0.05903 0.28916 0.98532 0.0
H261 H 0.10367 0.34971 0.93058 0.0
H262 H 0.88583 0.25667 0.88546 0.0
H263 H 0.93285 0.22723 0.86199 0.0
Li264 Li 0.64452 0.99138 0.26479 0.0
Li265 Li 0.6596 0.97607 0.304 0.0
Li266 Li 0.68866 0.00805 0.2739 0.0
Li267 Li 0.6663 0.96725 0.25811 0.0
C268 C 0.67402 0.03092 0.31007 0.0
N269 N 0.69798 0.07677 0.33476 0.0
C270 C 0.68932 0.03504 0.33273 0.0
C271 C 0.67074 0.05002 0.30009 0.0
C272 C 0.70133 0.05839 0.34487 0.0
C273 C 0.68303 0.07309 0.31285 0.0
C274 C 0.61497 0.93971 0.29223 0.0
C275 C 0.59911 0.90651 0.32523 0.0
N276 N 0.57735 0.90647 0.32579 0.0
C277 C 0.59235 0.93915 0.29293 0.0
C278 C 0.61829 0.92308 0.3083 0.0
C279 C 0.5736 0.92228 0.3101 0.0
C280 C 0.60867 0.99208 0.22903 0.0
N281 N 0.61818 0.99651 0.25486 0.0
C282 C 0.58565 0.00252 0.27133 0.0
C283 C 0.60747 0.00214 0.27574 0.0
C284 C 0.57495 0.99731 0.24511 0.0
C285 C 0.587 0.99267 0.22358 0.0
H286 H 0.61743 0.98728 0.21294 0.0
H287 H 0.61526 0.00516 0.29614 0.0
C288 C 0.67213 0.96772 0.35668 0.0
N289 N 0.65427 0.9688 0.34193 0.0
C290 C 0.67184 0.96845 0.38528 0.0
C291 C 0.63421 0.97035 0.38293 0.0
C292 C 0.63532 0.96975 0.35436 0.0
C293 C 0.65308 0.97051 0.39877 0.0
H294 H 0.68752 0.968 0.34624 0.0
H295 H 0.6218 0.97137 0.34205 0.0
C296 C 0.68535 0.018 0.22252 0.0
N297 N 0.71425 0.05991 0.19184 0.0
C298 C 0.70854 0.02303 0.21316 0.0
C299 C 0.67683 0.03425 0.21619 0.0
C300 C 0.72289 0.04434 0.19773 0.0
C301 C 0.69171 0.05533 0.20064 0.0
C302 C 0.70174 0.96651 0.28333 0.0
C303 C 0.72132 0.97563 0.26466 0.0
C304 C 0.69361 0.94355 0.29567 0.0
C305 C 0.73225 0.96147 0.25838 0.0
C306 C 0.70501 0.92994 0.28883 0.0
N307 N 0.72391 0.93909 0.27046 0.0
C308 C 0.73674 0.03588 0.29279 0.0
C309 C 0.72338 0.06065 0.27015 0.0
C310 C 0.75809 0.05675 0.30175 0.0
N311 N 0.71974 0.03808 0.27754 0.0
C312 C 0.74452 0.08213 0.27885 0.0
C313 C 0.76199 0.08029 0.29529 0.0
H314 H 0.73312 0.01792 0.29943 0.0
H315 H 0.70929 0.06208 0.25888 0.0
C316 C 0.65236 0.91848 0.24353 0.0
N317 N 0.66658 0.94238 0.23564 0.0
C318 C 0.65274 0.89963 0.22868 0.0
C319 C 0.68216 0.93026 0.19751 0.0
C320 C 0.68116 0.94855 0.21297 0.0
C321 C 0.66785 0.9054 0.20537 0.0
H322 H 0.64099 0.91407 0.26162 0.0
H323 H 0.69223 0.96769 0.20709 0.0
O324 O 0.66266 0.00841 0.29741 0.0
O325 O 0.63362 0.95624 0.27566 0.0
O326 O 0.67098 0.9972 0.23759 0.0
O327 O 0.69033 0.97981 0.2891 0.0
H328 H 0.69219 0.02049 0.34056 0.0
H329 H 0.65908 0.04714 0.28244 0.0
H330 H 0.7134 0.06192 0.36226 0.0
H331 H 0.6808 0.0881 0.30525 0.0
H332 H 0.60154 0.89373 0.33796 0.0
H333 H 0.58917 0.95143 0.28023 0.0
H334 H 0.63564 0.92323 0.30808 0.0
H335 H 0.55604 0.92171 0.31089 0.0
H336 H 0.57688 0.00624 0.28838 0.0
H337 H 0.57912 0.98839 0.20316 0.0
H338 H 0.68704 0.96901 0.39655 0.0
H339 H 0.61925 0.97165 0.39244 0.0
H340 H 0.7155 0.01076 0.21794 0.0
H341 H 0.65903 0.03078 0.2234 0.0
H342 H 0.74092 0.04852 0.19048 0.0
H343 H 0.68537 0.0681 0.19568 0.0
H344 H 0.72785 0.99336 0.25491 0.0
H345 H 0.67852 0.93619 0.31017 0.0
H346 H 0.7473 0.96824 0.24382 0.0
H347 H 0.69879 0.91206 0.29808 0.0
H348 H 0.77075 0.05441 0.31488 0.0
H349 H 0.74682 0.09993 0.27338 0.0
H350 H 0.64168 0.88078 0.23575 0.0
H351 H 0.69386 0.93551 0.17951 0.0
Li352 Li 0.67669 0.66246 0.63035 0.0
Li353 Li 0.64821 0.65012 0.58971 0.0
Li354 Li 0.69399 0.66679 0.58538 0.0
Li355 Li 0.67904 0.69324 0.59874 0.0
C356 C 0.66384 0.61644 0.62032 0.0
N357 N 0.65395 0.57832 0.65612 0.0
C358 C 0.63954 0.59753 0.62454 0.0
C359 C 0.68311 0.61585 0.63414 0.0
C360 C 0.63492 0.57844 0.64275 0.0
C361 C 0.67774 0.59647 0.65221 0.0
C362 C 0.64244 0.68456 0.63331 0.0
C363 C 0.61694 0.70342 0.63235 0.0
N364 N 0.62788 0.71581 0.65585 0.0
C365 C 0.65335 0.6974 0.65751 0.0
C366 C 0.62405 0.68755 0.62062 0.0
C367 C 0.64577 0.71314 0.66855 0.0
C368 C 0.69745 0.67177 0.68327 0.0
N369 N 0.67707 0.65648 0.66842 0.0
C370 C 0.65408 0.63828 0.70933 0.0
C371 C 0.65568 0.6398 0.68076 0.0
C372 C 0.67455 0.65449 0.72532 0.0
C373 C 0.69662 0.67106 0.71188 0.0
H374 H 0.71392 0.68551 0.67295 0.0
H375 H 0.63952 0.62845 0.66845 0.0
C376 C 0.61316 0.61041 0.55732 0.0
N377 N 0.61616 0.62602 0.57827 0.0
C378 C 0.5901 0.5895 0.55264 0.0
C379 C 0.57358 0.60204 0.5902 0.0
C380 C 0.59691 0.62249 0.59429 0.0
C381 C 0.57012 0.58471 0.56982 0.0
H382 H 0.62898 0.61344 0.5453 0.0
H383 H 0.59994 0.63475 0.61129 0.0
C384 C 0.73122 0.70099 0.61263 0.0
N385 N 0.78138 0.72043 0.60517 0.0
C386 C 0.74488 0.72282 0.59774 0.0
C387 C 0.74312 0.68915 0.62388 0.0
C388 C 0.77022 0.73235 0.5942 0.0
C389 C 0.76847 0.69922 0.61981 0.0
C390 C 0.66872 0.69007 0.54562 0.0
C391 C 0.68898 0.71224 0.5369 0.0
C392 C 0.64508 0.68336 0.53618 0.0
C393 C 0.6852 0.72748 0.51898 0.0
C394 C 0.64208 0.69909 0.51822 0.0
N395 N 0.66204 0.72064 0.51009 0.0
C396 C 0.71993 0.64299 0.56749 0.0
C397 C 0.73426 0.68271 0.54857 0.0
C398 C 0.73874 0.6411 0.5543 0.0
N399 N 0.7183 0.66374 0.56478 0.0
C400 C 0.75362 0.68183 0.53543 0.0
C401 C 0.75626 0.66089 0.53836 0.0
H402 H 0.70675 0.62796 0.5801 0.0
H403 H 0.73241 0.69889 0.54647 0.0
C404 C 0.70123 0.74051 0.61986 0.0
N405 N 0.6841 0.7261 0.60091 0.0
C406 C 0.70332 0.76275 0.62814 0.0
C407 C 0.67032 0.75543 0.59693 0.0
C408 C 0.66898 0.73329 0.58907 0.0
C409 C 0.68733 0.77019 0.61717 0.0
H410 H 0.71225 0.73399 0.62998 0.0
H411 H 0.65477 0.72117 0.57496 0.0
O412 O 0.66873 0.63549 0.60285 0.0
O413 O 0.65015 0.66964 0.62174 0.0
O414 O 0.70631 0.69116 0.61599 0.0
O415 O 0.67201 0.67478 0.56294 0.0
H416 H 0.62436 0.5976 0.61405 0.0
H417 H 0.70202 0.63028 0.63109 0.0
H418 H 0.6162 0.56374 0.64629 0.0
H419 H 0.69248 0.59586 0.66315 0.0
H420 H 0.60287 0.70606 0.62264 0.0
H421 H 0.66781 0.69555 0.66745 0.0
H422 H 0.61573 0.67814 0.60159 0.0
H423 H 0.6542 0.72333 0.68715 0.0
H424 H 0.63677 0.62504 0.71875 0.0
H425 H 0.71271 0.68427 0.72325 0.0
H426 H 0.58835 0.57651 0.5369 0.0
H427 H 0.55864 0.59929 0.60368 0.0
H428 H 0.73597 0.73212 0.58862 0.0
H429 H 0.73288 0.6723 0.63551 0.0
H430 H 0.78098 0.74913 0.58257 0.0
H431 H 0.77788 0.69017 0.62827 0.0
H432 H 0.70737 0.71777 0.54414 0.0
H433 H 0.62921 0.66624 0.54268 0.0
H434 H 0.70069 0.74477 0.51218 0.0
H435 H 0.62389 0.69418 0.51079 0.0
H436 H 0.73951 0.6243 0.55667 0.0
H437 H 0.76673 0.69774 0.52374 0.0
H438 H 0.71629 0.77322 0.64426 0.0
H439 H 0.65761 0.76049 0.58801 0.0
Li440 Li 0.00204 0.65239 0.93236 0.0
Li441 Li 0.0171 0.67948 0.97423 0.0
Li442 Li 0.98733 0.68101 0.94402 0.0
Li443 Li 0.02894 0.69854 0.93022 0.0
C444 C 0.96111 0.64159 0.97635 0.0
N445 N 0.91428 0.62134 0.9984 0.0
C446 C 0.95736 0.65077 0.00092 0.0
C447 C 0.94109 0.62199 0.9631 0.0
C448 C 0.93352 0.64033 0.01169 0.0
C449 C 0.91755 0.61202 0.97458 0.0
C450 C 0.05176 0.66924 0.96244 0.0
C451 C 0.08453 0.68294 0.99579 0.0
N452 N 0.08114 0.65973 0.99689 0.0
C453 C 0.04873 0.64556 0.96374 0.0
C454 C 0.06993 0.68814 0.97843 0.0
C455 C 0.06372 0.64111 0.98133 0.0
C456 C 0.00294 0.61832 0.89408 0.0
N457 N 0.99507 0.62114 0.91911 0.0
C458 C 0.9806 0.57896 0.93025 0.0
C459 C 0.9839 0.60204 0.93702 0.0
C460 C 0.98893 0.57544 0.90477 0.0
C461 C -4e-05 0.59543 0.8864 0.0
H462 H 0.01205 0.63398 0.88042 0.0
H463 H 0.97847 0.60502 0.95708 0.0
C464 C 0.02705 0.69802 0.02796 0.0
N465 N 0.02335 0.67864 0.01207 0.0
C466 C 0.02643 0.69599 0.05648 0.0
C467 C 0.01916 0.65441 0.05171 0.0
C468 C 0.01974 0.65719 0.02325 0.0
C469 C 0.02182 0.67373 0.06874 0.0
H470 H 0.02899 0.71452 0.0185 0.0
H471 H 0.01611 0.64183 0.01007 0.0
C472 C 0.98024 0.6728 0.89066 0.0
N473 N 0.94197 0.66573 0.85652 0.0
C474 C 0.97701 0.69268 0.8837 0.0
C475 C 0.96408 0.64935 0.88017 0.0
C476 C 0.95751 0.68871 0.86646 0.0
C477 C 0.94484 0.64615 0.86294 0.0
C478 C 0.02961 0.73367 0.95868 0.0
C479 C 0.0201 0.7462 0.94389 0.0
C480 C 0.05335 0.74682 0.9698 0.0
C481 C 0.03461 0.77169 0.94028 0.0
C482 C 0.06731 0.77229 0.96566 0.0
N483 N 0.05773 0.78409 0.9511 0.0
C484 C 0.95957 0.6998 0.96716 0.0
C485 C 0.93607 0.66727 0.93605 0.0
C486 C 0.9384 0.69975 0.97616 0.0
N487 N 0.95808 0.68354 0.9477 0.0
C488 C 0.91436 0.66653 0.94453 0.0
C489 C 0.91532 0.68257 0.96531 0.0
H490 H 0.977 0.71181 0.97704 0.0
H491 H 0.93504 0.65379 0.9215 0.0
C492 C 0.07879 0.72835 0.9146 0.0
N493 N 0.05563 0.72446 0.91038 0.0
C494 C 0.09901 0.748 0.90177 0.0
C495 C 0.07116 0.7591 0.88011 0.0
C496 C 0.05146 0.73908 0.89317 0.0
C497 C 0.0954 0.7639 0.88447 0.0
H498 H 0.0816 0.71628 0.92808 0.0
H499 H 0.03288 0.73556 0.89008 0.0
O500 O 0.98418 0.65206 0.96504 0.0
O501 O 0.03705 0.6739 0.94558 0.0
O502 O -0.00067 0.67632 0.90733 0.0
O503 O 0.01588 0.70862 0.96198 0.0
H504 H 0.97263 0.66605 0.01133 0.0
H505 H 0.94365 0.61485 0.94391 0.0
H506 H 0.93031 0.64739 0.03056 0.0
H507 H 0.90185 0.59697 0.96444 0.0
H508 H 0.09853 0.69736 0.00843 0.0
H509 H 0.03499 0.63076 0.95134 0.0
H510 H 0.07255 0.70656 0.97769 0.0
H511 H 0.06151 0.62285 0.98261 0.0
H512 H 0.97257 0.56435 0.94538 0.0
H513 H 0.00653 0.59353 0.8665 0.0
H514 H 0.02808 0.7112 0.06867 0.0
H515 H 0.01584 0.63702 0.06022 0.0
H516 H 0.98923 0.71091 0.89175 0.0
H517 H 0.96626 0.63375 0.88537 0.0
H518 H 0.95471 0.70389 0.86102 0.0
H519 H 0.93215 0.62809 0.85473 0.0
H520 H 0.00183 0.73632 0.93499 0.0
H521 H 0.061 0.73744 0.98133 0.0
H522 H 0.02753 0.7816 0.92873 0.0
H523 H 0.08577 0.78267 0.97399 0.0
H524 H 0.93999 0.71209 0.99263 0.0
H525 H 0.89694 0.653 0.93558 0.0
H526 H 0.11725 0.7506 0.90532 0.0
H527 H 0.06743 0.77097 0.86725 0.0
Li528 Li 0.01334 0.69437 0.39425 0.0
Li529 Li 0.972 0.66822 0.40834 0.0
Li530 Li 0.00112 0.65147 0.40487 0.0
Li531 Li 0.98452 0.66262 0.36373 0.0
C532 C 0.02079 0.69265 0.44767 0.0
N533 N 0.05804 0.72422 0.48261 0.0
C534 C 0.0226 0.71498 0.45552 0.0
C535 C 0.03782 0.68629 0.45768 0.0
C536 C 0.04162 0.73072 0.47316 0.0
C537 C 0.05654 0.70252 0.47532 0.0
C538 C 0.96894 0.70189 0.37985 0.0
C539 C 0.92987 0.70012 0.37308 0.0
N540 N 0.93868 0.72195 0.38656 0.0
C541 C 0.97764 0.72437 0.39355 0.0
C542 C 0.94491 0.68972 0.36939 0.0
C543 C 0.96205 0.7342 0.39674 0.0
C544 C 0.03849 0.74078 0.37093 0.0
N545 N 0.04119 0.72715 0.39092 0.0
C546 C 0.08425 0.75672 0.39457 0.0
C547 C 0.06347 0.73484 0.40308 0.0
C548 C 0.08205 0.77069 0.37332 0.0
C549 C 0.05866 0.76273 0.36194 0.0
H550 H 0.02097 0.73384 0.36062 0.0
H551 H 0.06555 0.72329 0.41803 0.0
C552 C 0.92252 0.64463 0.42703 0.0
N553 N 0.94479 0.6657 0.4288 0.0
C554 C 0.90182 0.64305 0.43989 0.0
C555 C 0.92743 0.68472 0.45648 0.0
C556 C 0.94771 0.6853 0.4438 0.0
C557 C 0.90411 0.66347 0.45435 0.0
H558 H 0.92073 0.62918 0.41528 0.0
H559 H 0.96567 0.70166 0.44531 0.0
C560 C 0.04082 0.68477 0.36008 0.0
N561 N 0.0862 0.71546 0.33627 0.0
C562 C 0.04225 0.69648 0.33514 0.0
C563 C 0.06249 0.68864 0.37286 0.0
C564 C 0.06536 0.71194 0.32346 0.0
C565 C 0.08525 0.7042 0.36048 0.0
C566 C 0.9516 0.61704 0.37505 0.0
C567 C 0.95721 0.59825 0.37111 0.0
C568 C 0.93146 0.61599 0.36135 0.0
C569 C 0.94268 0.57881 0.35332 0.0
C570 C 0.9174 0.59626 0.3437 0.0
N571 N 0.92326 0.57824 0.34008 0.0
C572 C 0.99598 0.61187 0.43782 0.0
C573 C 0.02546 0.62436 0.40199 0.0
C574 C -0.00191 0.59098 0.44285 0.0
N575 N 0.00916 0.62765 0.41722 0.0
C576 C 0.02836 0.60397 0.40649 0.0
C577 C 0.01386 0.58641 0.42641 0.0
H578 H 0.98273 0.61468 0.44917 0.0
H579 H 0.03513 0.63672 0.38521 0.0
C580 C 0.97244 0.6703 0.31043 0.0
N581 N 0.9779 0.65559 0.32589 0.0
C582 C 0.97351 0.66964 0.28187 0.0
C583 C 0.98453 0.63781 0.28573 0.0
C584 C 0.9835 0.63926 0.31423 0.0
C585 C 0.98032 0.65375 0.26926 0.0
H586 H 0.96887 0.68368 0.32024 0.0
H587 H 0.98872 0.62851 0.32706 0.0
O588 O 0.0022 0.67686 0.43066 0.0
O589 O 0.98379 0.69175 0.37689 0.0
O590 O 0.01839 0.67012 0.37224 0.0
O591 O 0.96583 0.63644 0.39208 0.0
H592 H 0.00965 0.72022 0.44785 0.0
H593 H 0.03662 0.66904 0.45184 0.0
H594 H 0.04334 0.74813 0.47929 0.0
H595 H 0.06989 0.69788 0.48318 0.0
H596 H 0.91119 0.69081 0.36524 0.0
H597 H 0.99608 0.73393 0.40206 0.0
H598 H 0.93789 0.67236 0.35869 0.0
H599 H 0.96848 0.75149 0.40746 0.0
H600 H 0.10199 0.76219 0.40387 0.0
H601 H 0.05618 0.77257 0.34508 0.0
H602 H 0.88408 0.62635 0.43784 0.0
H603 H 0.92991 0.70072 0.46776 0.0
H604 H 0.02575 0.694 0.32512 0.0
H605 H 0.0618 0.68017 0.39245 0.0
H606 H 0.06673 0.72124 0.30427 0.0
H607 H 0.10216 0.70751 0.37026 0.0
H608 H 0.97271 0.59871 0.38147 0.0
H609 H 0.92683 0.63033 0.36416 0.0
H610 H 0.94688 0.56421 0.35 0.0
H611 H 0.90184 0.59529 0.33287 0.0
H612 H 0.98636 0.57781 0.45819 0.0
H613 H 0.041 0.6014 0.39359 0.0
H614 H 0.97009 0.68218 0.26982 0.0
H615 H 0.99023 0.6256 0.27678 0.0
Li616 Li 0.32011 0.01452 0.72715 0.0
Li617 Li 0.30126 0.9732 0.74317 0.0
Li618 Li 0.34745 -0.00142 0.73486 0.0
Li619 Li 0.31689 0.98458 0.6958 0.0
C620 C 0.32879 0.02074 0.78052 0.0
N621 N 0.33255 0.05665 0.8163 0.0
C622 C 0.30766 0.02147 0.78829 0.0
C623 C 0.35179 0.03807 0.79111 0.0
C624 C 0.30997 0.03986 0.80633 0.0
C625 C 0.35331 0.05612 0.80917 0.0
C626 C 0.26722 0.96709 0.70444 0.0
C627 C 0.24239 0.92528 0.68818 0.0
N628 N 0.2225 0.92854 0.68671 0.0
C629 C 0.24651 0.97002 0.70274 0.0
C630 C 0.26514 0.94453 0.69709 0.0
C631 C 0.22408 0.95032 0.69374 0.0
C632 C 0.30013 0.04138 0.70642 0.0
N633 N 0.31726 0.04372 0.72518 0.0
C634 C 0.33197 0.08702 0.72908 0.0
C635 C 0.33275 0.06591 0.73701 0.0
C636 C 0.31495 0.08511 0.70901 0.0
C637 C 0.29855 0.0618 0.69816 0.0
H638 H 0.28856 0.02386 0.69657 0.0
H639 H 0.3467 0.06763 0.75131 0.0
C640 C 0.27949 0.9295 0.77499 0.0
N641 N 0.27643 0.94815 0.76522 0.0
C642 C 0.26038 0.90991 0.7893 0.0
C643 C 0.23567 0.92947 0.78374 0.0
C644 C 0.25531 0.94876 0.76979 0.0
C645 C 0.23796 0.90956 0.79339 0.0
H646 H 0.29659 0.92964 0.77121 0.0
H647 H 0.25355 0.96403 0.76213 0.0
C648 C 0.35876 0.04134 0.696 0.0
N649 N 0.38257 0.09107 0.6834 0.0
C650 C 0.35288 0.04946 0.67193 0.0
C651 C 0.37685 0.05854 0.71359 0.0
C652 C 0.36505 0.07468 0.66599 0.0
C653 C 0.38871 0.08359 0.70682 0.0
C654 C 0.3299 0.94821 0.7117 0.0
C655 C 0.35297 0.95752 0.69918 0.0
C656 C 0.31414 0.92269 0.71342 0.0
C657 C 0.35996 0.94114 0.68871 0.0
C658 C 0.32178 0.90691 0.70263 0.0
N659 N 0.34436 0.91638 0.69063 0.0
C660 C 0.38018 0.98907 0.76591 0.0
C661 C 0.39822 0.01665 0.72854 0.0
C662 C 0.40202 0.98849 0.77011 0.0
N663 N 0.3786 0.00265 0.74504 0.0
C664 C 0.42033 0.01669 0.73205 0.0
C665 C 0.42221 0.00188 0.75249 0.0
H666 H 0.36409 0.97772 0.77836 0.0
H667 H 0.39629 0.02664 0.71155 0.0
C668 C 0.30144 0.98931 0.64505 0.0
N669 N 0.3119 0.9774 0.6576 0.0
C670 C 0.30051 0.99007 0.61655 0.0
C671 C 0.31974 0.96488 0.6142 0.0
C672 C 0.32038 0.9647 0.64289 0.0
C673 C 0.31037 0.97832 0.60067 0.0
H674 H 0.29509 -0.00051 0.65723 0.0
H675 H 0.3285 0.95523 0.65316 0.0
O676 O 0.32692 0.00283 0.76305 0.0
O677 O 0.28918 0.98621 0.71368 0.0
O678 O 0.3467 0.01675 0.70248 0.0
O679 O 0.32289 0.96388 0.72274 0.0
H680 H 0.28973 0.00808 0.7803 0.0
H681 H 0.36827 0.0376 0.78536 0.0
H682 H 0.29381 0.04077 0.81241 0.0
H683 H 0.37099 0.06973 0.81746 0.0
H684 H 0.24056 0.90774 0.68244 0.0
H685 H 0.24771 0.98728 0.70854 0.0
H686 H 0.28085 0.94183 0.69818 0.0
H687 H 0.2079 0.95233 0.6924 0.0
H688 H 0.34496 0.10471 0.73795 0.0
H689 H 0.28548 0.05953 0.68224 0.0
H690 H 0.26283 0.89485 0.79633 0.0
H691 H 0.21884 0.93008 0.78687 0.0
H692 H 0.33898 0.0365 0.65807 0.0
H693 H 0.38134 0.05268 0.73255 0.0
H694 H 0.36055 0.08121 0.64753 0.0
H695 H 0.40263 0.09709 0.72034 0.0
H696 H 0.36511 0.97717 0.69698 0.0
H697 H 0.29618 0.91513 0.72295 0.0
H698 H 0.37774 0.94811 0.6789 0.0
H699 H 0.30977 0.88713 0.70381 0.0
H700 H 0.40262 0.97665 0.78594 0.0
H701 H 0.43551 0.0275 0.7182 0.0
H702 H 0.29343 0.00097 0.60717 0.0
H703 H 0.32715 0.9552 0.60278 0.0
Li704 Li 0.30521 0.32164 0.05882 0.0
Li705 Li 0.32828 0.30273 0.07246 0.0
Li706 Li 0.34812 0.34901 0.06752 0.0
Li707 Li 0.33263 0.32099 0.02644 0.0
C708 C 0.30638 0.32552 0.11293 0.0
N709 N 0.27223 0.32329 0.1504 0.0
C710 C 0.28511 0.30301 0.11843 0.0
C711 C 0.31046 0.34685 0.12663 0.0
C712 C 0.268 0.30229 0.13738 0.0
C713 C 0.29293 0.34534 0.14549 0.0
C714 C 0.30157 0.27094 0.03131 0.0
C715 C 0.32019 0.24811 0.01335 0.0
N716 N 0.29735 0.22838 0.00894 0.0
C717 C 0.27828 0.25041 0.02654 0.0
C718 C 0.32273 0.26978 0.02463 0.0
C719 C 0.27653 0.22908 0.01524 0.0
C720 C 0.25807 0.30214 0.03872 0.0
N721 N 0.27298 0.31842 0.05807 0.0
C722 C 0.24411 0.33244 0.06505 0.0
C723 C 0.26622 0.33313 0.07167 0.0
C724 C 0.22881 0.31629 0.04448 0.0
C725 C 0.2358 0.30064 0.03172 0.0
H726 H 0.26408 0.29121 0.02753 0.0
H727 H 0.27855 0.34641 0.08646 0.0
C728 C 0.35099 0.28259 0.10524 0.0
N729 N 0.32951 0.27746 0.09272 0.0
C730 C 0.35284 0.26401 0.11909 0.0
C731 C 0.31045 0.23531 0.10682 0.0
C732 C 0.30925 0.25453 0.09379 0.0
C733 C 0.33249 0.23998 0.11952 0.0
H734 H 0.36675 0.30106 0.1042 0.0
H735 H 0.29222 0.25108 0.08424 0.0
C736 C 0.31681 0.36224 0.03126 0.0
N737 N 0.29081 0.38668 0.02265 0.0
C738 C 0.30269 0.35781 0.00747 0.0
C739 C 0.31779 0.37922 0.05059 0.0
C740 C 0.2896 0.37027 0.00356 0.0
C741 C 0.30456 0.39142 0.04584 0.0
C742 C 0.38264 0.33634 0.04249 0.0
C743 C 0.39316 0.35913 0.02913 0.0
C744 C 0.39625 0.32432 0.04553 0.0
C745 C 0.41726 0.3696 0.01911 0.0
C746 C 0.42026 0.33536 0.03516 0.0
N747 N 0.43019 0.35759 0.02229 0.0
C748 C 0.38741 0.38037 0.10281 0.0
C749 C 0.38051 0.40036 0.06535 0.0
C750 C 0.40817 0.40251 0.11079 0.0
N751 N 0.37422 0.37973 0.08033 0.0
C752 C 0.40093 0.42284 0.07269 0.0
C753 C 0.41524 0.42408 0.0955 0.0
H754 H 0.38213 0.36357 0.11411 0.0
H755 H 0.37018 0.39921 0.0471 0.0
C756 C 0.31282 0.3085 0.9755 0.0
N757 N 0.33514 0.31771 0.98795 0.0
C758 C 0.31098 0.30734 0.94705 0.0
C759 C 0.35513 0.32421 0.94445 0.0
C760 C 0.35611 0.32498 0.97315 0.0
C761 C 0.33236 0.31571 0.93107 0.0
H762 H 0.29646 0.30285 0.9878 0.0
H763 H 0.37361 0.33186 0.98339 0.0
O764 O 0.32335 0.32662 0.09453 0.0
O765 O 0.30339 0.29186 0.04258 0.0
O766 O 0.3294 0.34988 0.03574 0.0
O767 O 0.35926 0.3259 0.05294 0.0
H768 H 0.2818 0.28635 0.10801 0.0
H769 H 0.32693 0.36438 0.12263 0.0
H770 H 0.25137 0.28504 0.14175 0.0
H771 H 0.29576 0.3617 0.15619 0.0
H772 H 0.33641 0.24698 0.00812 0.0
H773 H 0.26169 0.25088 0.03171 0.0
H774 H 0.34093 0.28533 0.02805 0.0
H775 H 0.25861 0.21306 0.01152 0.0
H776 H 0.23934 0.34483 0.07536 0.0
H777 H 0.22484 0.28827 0.01538 0.0
H778 H 0.3701 0.26819 0.12875 0.0
H779 H 0.29432 0.21701 0.10711 0.0
H780 H 0.30171 0.34479 0.99226 0.0
H781 H 0.32824 0.38257 0.06936 0.0
H782 H 0.27847 0.36687 0.98534 0.0
H783 H 0.30504 0.40448 0.06072 0.0
H784 H 0.38268 0.3684 0.02609 0.0
H785 H 0.38832 0.30662 0.05579 0.0
H786 H 0.42562 0.38721 0.00866 0.0
H787 H 0.43101 0.32625 0.03734 0.0
H788 H 0.41869 0.4027 0.12854 0.0
H789 H 0.40602 0.43887 0.05996 0.0
H790 H 0.29308 0.30095 0.9377 0.0
H791 H 0.37202 0.33049 0.93289 0.0
Li792 Li 0.0215 0.32552 0.40471 0.0
Li793 Li 0.97899 0.30201 0.39371 0.0
Li794 Li 0.00555 0.32949 0.36014 0.0
Li795 Li 0.99517 0.34506 0.40206 0.0
C796 C 0.02466 0.29849 0.3623 0.0
N797 N 0.0616 0.29393 0.33663 0.0
C798 C 0.02126 0.27513 0.35632 0.0
C799 C 0.04689 0.31953 0.35518 0.0
C800 C 0.04015 0.27322 0.34336 0.0
C801 C 0.06532 0.31683 0.34222 0.0
C802 C 0.97967 0.30319 0.44786 0.0
C803 C 0.94906 0.2885 0.48375 0.0
N804 N 0.9512 0.268 0.48637 0.0
C805 C 0.98175 0.28211 0.45105 0.0
C806 C 0.96334 0.30655 0.46442 0.0
C807 C 0.96711 0.26447 0.47057 0.0
C808 C 0.06554 0.34763 0.43584 0.0
N809 N 0.04863 0.32644 0.42335 0.0
C810 C 0.07101 0.30634 0.43637 0.0
C811 C 0.05076 0.30588 0.42379 0.0
C812 C 0.089 0.328 0.4494 0.0
C813 C 0.08588 0.34879 0.4492 0.0
H814 H 0.06317 0.36361 0.43547 0.0
H815 H 0.03683 0.28911 0.41414 0.0
C816 C 0.95072 0.25588 0.37248 0.0
N817 N 0.95016 0.26976 0.39361 0.0
C818 C 0.93007 0.23337 0.36608 0.0
C819 C 0.9082 0.23945 0.40337 0.0
C820 C 0.92956 0.26187 0.40932 0.0
C821 C 0.9083 0.22506 0.38127 0.0
H822 H 0.96687 0.26283 0.35961 0.0
H823 H 0.92921 0.27341 0.42558 0.0
C824 C 0.03769 0.37973 0.37472 0.0
N825 N 0.05533 0.42706 0.35507 0.0
C826 C 0.02308 0.38498 0.3574 0.0
C827 C 0.06127 0.39854 0.38204 0.0
C828 C 0.03233 0.40902 0.3477 0.0
C829 C 0.06987 0.42235 0.37187 0.0
C830 C 0.94838 0.31497 0.37235 0.0
C831 C 0.93422 0.30207 0.34956 0.0
C832 C 0.93661 0.3166 0.39599 0.0
C833 C 0.90852 0.29083 0.35091 0.0
C834 C 0.91089 0.30523 0.39648 0.0
N835 N 0.89748 0.29264 0.37414 0.0
C836 C 0.99077 0.31241 0.30869 0.0
C837 C 0.02761 0.35124 0.30707 0.0
C838 C 0.98864 0.31199 0.28027 0.0
N839 N 0.00948 0.33217 0.3215 0.0
C840 C 0.0264 0.35144 0.27838 0.0
C841 C 0.0063 0.3319 0.26482 0.0
H842 H 0.97721 0.29713 0.32074 0.0
H843 H 0.04269 0.36646 0.31773 0.0
C844 C 0.0063 0.38681 0.43508 0.0
N845 N 0.99194 0.37215 0.41431 0.0
C846 C 0.00794 0.40963 0.43999 0.0
C847 C 0.9792 0.40116 0.40278 0.0
C848 C 0.97815 0.37866 0.3986 0.0
C849 C 0.99485 0.41733 0.42308 0.0
H850 H 0.01756 0.38142 0.44677 0.0
H851 H 0.96749 0.3671 0.38167 0.0
O852 O 0.00623 0.30046 0.37518 0.0
O853 O 0.99381 0.32065 0.42889 0.0
O854 O 0.02878 0.35652 0.38521 0.0
O855 O 0.97357 0.32565 0.37176 0.0
H856 H 0.00425 0.25863 0.36181 0.0
H857 H 0.05003 0.33778 0.35959 0.0
H858 H 0.03776 0.25525 0.33867 0.0
H859 H 0.0826 0.33296 0.33662 0.0
H860 H 0.93626 0.29077 0.49665 0.0
H861 H 0.99436 0.27932 0.43838 0.0
H862 H 0.96169 0.32289 0.4623 0.0
H863 H 0.96838 0.24797 0.47316 0.0
H864 H 0.07262 0.28993 0.43545 0.0
H865 H 0.09885 0.36575 0.4594 0.0
H866 H 0.93079 0.22318 0.34849 0.0
H867 H 0.8917 0.23368 0.4155 0.0
H868 H 0.00478 0.37067 0.35153 0.0
H869 H 0.07276 0.3948 0.39552 0.0
H870 H 0.02119 0.41335 0.33434 0.0
H871 H 0.08808 0.4371 0.37738 0.0
H872 H 0.94287 0.3007 0.33099 0.0
H873 H 0.94721 0.32625 0.41394 0.0
H874 H 0.89735 0.28069 0.33346 0.0
H875 H 0.90157 0.30626 0.41471 0.0
H876 H 0.97324 0.29632 0.27046 0.0
H877 H 0.04048 0.36701 0.26703 0.0
H878 H 0.0204 0.42169 0.45567 0.0
H879 H 0.96864 0.4063 0.38947 0.0
Li880 Li 0.69771 0.02573 0.73847 0.0
Li881 Li 0.68235 0.98418 0.72592 0.0
Li882 Li 0.68036 0.01244 0.69373 0.0
Li883 Li 0.6519 0.99717 0.73439 0.0
C884 C 0.73473 0.02811 0.71178 0.0
N885 N 0.78482 0.0588 0.71979 0.0
C886 C 0.74816 0.0201 0.72739 0.0
C887 C 0.74683 0.05166 0.70009 0.0
C888 C 0.77347 0.03589 0.7312 0.0
C889 C 0.77214 0.06693 0.70445 0.0
C890 C 0.67174 0.97755 0.77887 0.0
C891 C 0.64444 0.94224 0.80634 0.0
N892 N 0.66407 0.94013 0.81466 0.0
C893 C 0.69165 0.97512 0.78779 0.0
C894 C 0.64794 0.96106 0.78826 0.0
C895 C 0.68738 0.95603 0.80584 0.0
C896 C 0.72475 0.07577 0.75512 0.0
N897 N 0.72225 0.05308 0.7588 0.0
C898 C 0.75718 0.06985 0.78873 0.0
C899 C 0.73757 0.04971 0.77577 0.0
C900 C 0.76055 0.09354 0.78476 0.0
C901 C 0.74381 0.09638 0.76814 0.0
H902 H 0.71217 0.07792 0.74178 0.0
H903 H 0.73495 0.03145 0.77869 0.0
C904 C 0.70445 0.95844 0.70626 0.0
N905 N 0.6869 0.95603 0.72444 0.0
C906 C 0.70633 0.93804 0.69852 0.0
C907 C 0.6722 0.91277 0.72863 0.0
C908 C 0.67111 0.93381 0.73601 0.0
C909 C 0.68968 0.91471 0.7092 0.0
H910 H 0.71601 0.97592 0.69627 0.0
H911 H 0.65662 0.93201 0.74951 0.0
C912 C 0.66797 0.04595 0.70265 0.0
N913 N 0.65831 0.07354 0.66563 0.0
C914 C 0.64374 0.04075 0.69831 0.0
C915 C 0.6873 0.06533 0.68832 0.0
C916 C 0.63923 0.05488 0.67948 0.0
C917 C 0.68204 0.07901 0.66964 0.0
C918 C 0.64566 0.9563 0.69132 0.0
C919 C 0.65705 0.95414 0.66763 0.0
C920 C 0.6266 0.9351 0.70355 0.0
C921 C 0.64924 0.93075 0.65664 0.0
C922 C 0.61928 0.91206 0.69189 0.0
N923 N 0.63068 0.91038 0.66889 0.0
C924 C 0.70062 0.02297 0.6404 0.0
C925 C 0.65856 0.0122 0.64348 0.0
C926 C 0.69908 0.02136 0.61184 0.0
N927 N 0.6804 0.01798 0.65553 0.0
C928 C 0.65624 0.01058 0.61498 0.0
C929 C 0.67648 0.01445 0.59886 0.0
H930 H 0.71751 0.02669 0.65054 0.0
H931 H 0.64255 0.00738 0.65608 0.0
C932 C 0.61724 0.00257 0.76668 0.0
N933 N 0.61999 0.98983 0.7457 0.0
C934 C 0.59435 0.00083 0.77135 0.0
C935 C 0.57749 0.97195 0.73367 0.0
C936 C 0.60066 0.9744 0.7296 0.0
C937 C 0.57429 0.98593 0.75413 0.0
H938 H 0.63312 0.01512 0.77876 0.0
H939 H 0.60352 0.96507 0.71257 0.0
O940 O 0.70983 0.01308 0.70822 0.0
O941 O 0.67552 0.99622 0.7614 0.0
O942 O 0.67275 0.03209 0.7207 0.0
O943 O 0.65357 0.97898 0.70286 0.0
H944 H 0.73909 0.00205 0.73688 0.0
H945 H 0.73677 0.05815 0.68793 0.0
H946 H 0.78404 0.03 0.74339 0.0
H947 H 0.78169 0.08525 0.69567 0.0
H948 H 0.62613 0.9293 0.81372 0.0
H949 H 0.71016 0.98762 0.7806 0.0
H950 H 0.63233 0.96271 0.7816 0.0
H951 H 0.7026 0.95382 0.81279 0.0
H952 H 0.76958 0.06697 0.80169 0.0
H953 H 0.74589 0.11442 0.76464 0.0
H954 H 0.71969 0.9403 0.68299 0.0
H955 H 0.65896 0.89506 0.73727 0.0
H956 H 0.62852 0.0259 0.70919 0.0
H957 H 0.70616 0.06965 0.69143 0.0
H958 H 0.62056 0.05098 0.67584 0.0
H959 H 0.69682 0.09397 0.6583 0.0
H960 H 0.67205 0.97027 0.65809 0.0
H961 H 0.6179 0.93637 0.7222 0.0
H962 H 0.65801 0.9288 0.63844 0.0
H963 H 0.60469 0.89549 0.70125 0.0
H964 H 0.71512 0.02457 0.60009 0.0
H965 H 0.63839 0.00481 0.60581 0.0
H966 H 0.5928 0.01216 0.78714 0.0
H967 H 0.56249 0.95998 0.72015 0.0
Li968 Li 0.67331 0.69831 0.06956 0.0
Li969 Li 0.6901 0.67186 0.06038 0.0
Li970 Li 0.66494 0.67558 0.02467 0.0
Li971 Li 0.64705 0.65319 0.06718 0.0
C972 C 0.72161 0.71672 0.03968 0.0
N973 N 0.77253 0.74492 0.03937 0.0
C974 C 0.73408 0.73204 0.06192 0.0
C975 C 0.73504 0.71586 0.01721 0.0
C976 C 0.75982 0.74616 0.06137 0.0
C977 C 0.76078 0.73019 0.01749 0.0
C978 C 0.68898 0.6736 0.11395 0.0
C979 C 0.70723 0.65348 0.13901 0.0
N980 N 0.72148 0.67475 0.15309 0.0
C981 C 0.70371 0.69522 0.12875 0.0
C982 C 0.69062 0.6525 0.11919 0.0
C983 C 0.72006 0.69544 0.14843 0.0
C984 C 0.6633 0.72353 0.11002 0.0
N985 N 0.67619 0.72696 0.08644 0.0
C986 C 0.68961 0.77005 0.08669 0.0
C987 C 0.68924 0.74961 0.07464 0.0
C988 C 0.67622 0.76703 0.11094 0.0
C989 C 0.6631 0.7434 0.12272 0.0
H990 H 0.65294 0.70523 0.11877 0.0
H991 H 0.699 0.75172 0.0556 0.0
C992 C 0.71902 0.65288 0.04196 0.0
N993 N 0.71896 0.66845 0.06136 0.0
C994 C 0.74056 0.65241 0.03607 0.0
C995 C 0.76168 0.68348 0.07087 0.0
C996 C 0.73958 0.6832 0.07628 0.0
C997 C 0.76245 0.66834 0.05004 0.0
H998 H 0.70271 0.64182 0.0298 0.0
H999 H 0.73934 0.69579 0.09125 0.0
C1000 C 0.63349 0.69389 0.039 0.0
N1001 N 0.61878 0.726 0.01946 0.0
C1002 C 0.60955 0.68929 0.04395 0.0
C1003 C 0.65 0.71491 0.02423 0.0
C1004 C 0.60244 0.70572 0.03385 0.0
C1005 C 0.6422 0.73089 0.0145 0.0
C1006 C 0.64839 0.62129 0.03435 0.0
C1007 C 0.62906 0.61343 0.0155 0.0
C1008 C 0.65089 0.60391 0.04993 0.0
C1009 C 0.61236 0.5882 0.01271 0.0
C1010 C 0.6338 0.57885 0.04655 0.0
N1011 N 0.61504 0.57159 0.02818 0.0
C1012 C 0.67841 0.66905 0.97413 0.0
C1013 C 0.64634 0.67864 0.97048 0.0
C1014 C 0.67925 0.66712 0.94577 0.0
N1015 N 0.66241 0.67502 0.98587 0.0
C1016 C 0.64664 0.67702 0.94184 0.0
C1017 C 0.66339 0.67133 0.92913 0.0
H1018 H 0.69035 0.66545 0.98699 0.0
H1019 H 0.6332 0.68257 0.98028 0.0
C1020 C 0.61754 0.61101 0.10113 0.0
N1021 N 0.61757 0.62564 0.08047 0.0
C1022 C 0.59557 0.58985 0.10867 0.0
C1023 C 0.57418 0.59969 0.07399 0.0
C1024 C 0.59649 0.6205 0.06706 0.0
C1025 C 0.57352 0.58392 0.09491 0.0
H1026 H 0.6346 0.61548 0.11136 0.0
H1027 H 0.59718 0.63227 0.05043 0.0
O1028 O 0.69641 0.70252 0.04002 0.0
O1029 O 0.67275 0.67299 0.09475 0.0
O1030 O 0.64083 0.67826 0.04938 0.0
O1031 O 0.66445 0.64591 0.03804 0.0
H1032 H 0.72405 0.73271 0.07965 0.0
H1033 H 0.72575 0.70418 -0.0002 0.0
H1034 H 0.7697 0.75797 0.07852 0.0
H1035 H 0.77142 0.72959 0.0003 0.0
H1036 H 0.70882 0.63735 0.14315 0.0
H1037 H 0.70258 0.71168 0.12504 0.0
H1038 H 0.67941 0.63566 0.10785 0.0
H1039 H 0.73164 0.71206 0.15998 0.0
H1040 H 0.6997 0.78787 0.07674 0.0
H1041 H 0.65276 0.7403 0.14156 0.0
H1042 H 0.74037 0.64076 0.01953 0.0
H1043 H 0.77815 0.69599 0.0822 0.0
H1044 H 0.59661 0.67324 0.05558 0.0
H1045 H 0.66861 0.71883 0.02021 0.0
H1046 H 0.58396 0.70237 0.03751 0.0
H1047 H 0.65477 0.74719 0.00302 0.0
H1048 H 0.62678 0.62667 0.00343 0.0
H1049 H 0.66573 0.60973 0.06465 0.0
H1050 H 0.59721 0.58184 0.99834 0.0
H1051 H 0.6354 0.56519 0.05858 0.0
H1052 H 0.69194 0.66195 0.93705 0.0
H1053 H 0.63404 0.68036 0.92982 0.0
H1054 H 0.59585 0.57825 0.125 0.0
H1055 H 0.55775 0.59559 0.06248 0.0
H1056 H 0.34437 0.11063 0.15561 0.0
H1057 H 0.34463 0.23725 0.17268 0.0
H1058 H 0.32303 0.13036 0.23135 0.0
H1059 H 0.32421 0.19687 0.09648 0.0
H1060 H 0.34584 0.20249 0.19473 0.0
H1061 H 0.3461 0.14683 0.13349 0.0
C1062 C 0.34024 0.12273 0.16755 0.0
C1063 C 0.33344 0.11762 0.1952 0.0
C1064 C 0.34118 0.20134 0.17317 0.0
C1065 C 0.33573 0.15889 0.17039 0.0
C1066 C 0.3406 0.22111 0.16063 0.0
C1067 C 0.33421 0.21971 0.13286 0.0
C1068 C 0.3359 0.18038 0.15761 0.0
C1069 C 0.32904 0.19846 0.11802 0.0
C1070 C 0.34112 0.14322 0.15497 0.0
C1071 C 0.32818 0.1337 0.2099 0.0
N1072 N 0.33013 0.17962 0.13054 0.0
N1073 N 0.32957 0.15375 0.19735 0.0
H1074 H 0.19484 0.28936 0.51009 0.0
H1075 H 0.13647 0.36749 0.45419 0.0
H1076 H 0.22503 0.36589 0.53294 0.0
H1077 H 0.09173 0.29037 0.4756 0.0
H1078 H 0.17196 0.36788 0.47572 0.0
H1079 H 0.15972 0.28998 0.48931 0.0
C1080 C 0.19414 0.30628 0.51096 0.0
C1081 C 0.213 0.32754 0.52372 0.0
C1082 C 0.1543 0.35094 0.47564 0.0
C1083 C 0.17303 0.32844 0.49898 0.0
C1084 C 0.13392 0.35068 0.46352 0.0
C1085 C 0.11085 0.32882 0.46287 0.0
C1086 C 0.15177 0.32912 0.4867 0.0
C1087 C 0.10911 0.30754 0.47487 0.0
C1088 C 0.1741 0.3066 0.4989 0.0
C1089 C 0.21123 0.3491 0.52314 0.0
N1090 N 0.12931 0.30819 0.48606 0.0
N1091 N 0.19164 0.34902 0.51092 0.0
H1092 H 0.75996 0.12967 0.81567 0.0
H1093 H 0.9059 0.21373 0.82511 0.0
H1094 H 0.80915 0.10667 0.78239 0.0
H1095 H 0.8572 0.21503 0.8872 0.0
H1096 H 0.87055 0.17836 0.80389 0.0
H1097 H 0.79553 0.16551 0.83659 0.0
C1098 C 0.77828 0.13226 0.81274 0.0
C1099 C 0.78173 0.11524 0.79746 0.0
C1100 C 0.86772 0.18649 0.82216 0.0
C1101 C 0.82229 0.1561 0.82091 0.0
C1102 C 0.8879 0.20662 0.83443 0.0
C1103 C 0.88472 0.21754 0.85814 0.0
C1104 C 0.84407 0.17741 0.83334 0.0
C1105 C 0.86067 0.20769 0.86871 0.0
C1106 C 0.79849 0.15258 0.82473 0.0
C1107 C 0.80578 0.1193 0.79428 0.0
N1108 N 0.84129 0.18828 0.85618 0.0
N1109 N 0.82521 0.13943 0.80577 0.0
H1110 H 0.71424 0.81461 0.11769 0.0
H1111 H 0.62943 0.85969 0.19208 0.0
H1112 H 0.63628 0.76771 0.13284 0.0
H1113 H 0.70831 0.90576 0.18285 0.0
H1114 H 0.63146 0.82649 0.16822 0.0
H1115 H 0.71228 0.849 0.13908 0.0
C1116 C 0.69669 0.81158 0.12538 0.0
C1117 C 0.67541 0.78821 0.1236 0.0
C1118 C 0.64834 0.84386 0.17135 0.0
C1119 C 0.67306 0.82742 0.1482 0.0
C1120 C 0.64721 0.86281 0.18509 0.0
C1121 C 0.66876 0.88552 0.18965 0.0
C1122 C 0.67119 0.84756 0.16202 0.0
C1123 C 0.6912 0.88864 0.1796 0.0
C1124 C 0.69561 0.83118 0.1377 0.0
C1125 C 0.65323 0.78529 0.13416 0.0
N1126 N 0.69185 0.86984 0.16635 0.0
N1127 N 0.65264 0.80463 0.14599 0.0
H1128 H 0.88884 0.69697 0.44742 0.0
H1129 H 0.78159 0.63847 0.55789 0.0
H1130 H 0.86962 0.62867 0.48859 0.0
H1131 H 0.77971 0.68144 0.4894 0.0
H1132 H 0.81685 0.63816 0.53691 0.0
H1133 H 0.85218 0.69567 0.4673 0.0
C1134 C 0.87692 0.68178 0.46077 0.0
C1135 C 0.88217 0.66291 0.46648 0.0
C1136 C 0.80859 0.64755 0.5265 0.0
C1137 C 0.84048 0.66138 0.48931 0.0
C1138 C 0.78831 0.64763 0.53834 0.0
C1139 C 0.77744 0.66 0.52548 0.0
C1140 C 0.81843 0.6603 0.50187 0.0
C1141 C 0.78762 0.67206 0.50046 0.0
C1142 C 0.85598 0.68096 0.47193 0.0
C1143 C 0.86608 0.6435 0.48366 0.0
N1144 N 0.80763 0.67206 0.48961 0.0
N1145 N 0.84602 0.64332 0.49469 0.0
H1146 H 0.18963 0.88549 0.77735 0.0
H1147 H 0.14156 0.79422 0.906 0.0
H1148 H 0.23819 0.88505 0.83997 0.0
H1149 H 0.0981 0.78299 0.8329 0.0
H1150 H 0.17638 0.82946 0.88396 0.0
H1151 H 0.15492 0.85016 0.79957 0.0
C1152 C 0.19295 0.87803 0.79589 0.0
C1153 C 0.21681 0.88824 0.80689 0.0
C1154 C 0.15923 0.81923 0.87275 0.0
C1155 C 0.1772 0.84773 0.83233 0.0
C1156 C 0.13934 0.79899 0.88525 0.0
C1157 C 0.11678 0.78546 0.8713 0.0
C1158 C 0.15655 0.82621 0.84617 0.0
C1159 C 0.11495 0.793 0.84466 0.0
C1160 C 0.17317 0.85776 0.80845 0.0
C1161 C 0.22012 0.87761 0.83071 0.0
N1162 N 0.13453 0.81287 0.83301 0.0
N1163 N 0.20051 0.85799 0.84272 0.0
H1164 H 0.42122 0.95389 0.25875 0.0
H1165 H 0.56096 0.01965 0.20617 0.0
H1166 H 0.45504 0.02365 0.2159 0.0
H1167 H 0.5333 0.9693 0.27461 0.0
H1168 H 0.52012 0.01622 0.20151 0.0
H1169 H 0.4602 0.95397 0.25623 0.0
C1170 C 0.4368 0.96921 0.24872 0.0
C1171 C 0.4349 0.98903 0.23798 0.0
C1172 C 0.52305 0.00588 0.21744 0.0
C1173 C 0.47954 0.98897 0.23465 0.0
C1174 C 0.54623 0.00778 0.22004 0.0
C1175 C 0.55044 0.99494 0.24098 0.0
C1176 C 0.50398 0.99065 0.23557 0.0
C1177 C 0.53085 0.97976 0.25845 0.0
C1178 C 0.45902 0.96918 0.24722 0.0
C1179 C 0.45557 0.00796 0.22444 0.0
N1180 N 0.50847 0.97801 0.25533 0.0
N1181 N 0.47712 0.00756 0.22333 0.0
H1182 H 0.54459 0.55765 0.52426 0.0
H1183 H 0.44289 0.44704 0.61555 0.0
H1184 H 0.54253 0.55658 0.61283 0.0
H1185 H 0.44253 0.44443 0.52705 0.0
H1186 H 0.47902 0.48799 0.61402 0.0
H1187 H 0.50691 0.51697 0.52387 0.0
C1188 C 0.5362 0.54895 0.54358 0.0
C1189 C 0.54666 0.5607 0.56861 0.0
C1190 C 0.47117 0.47855 0.59485 0.0
C1191 C 0.50368 0.51431 0.5683 0.0
C1192 C 0.45059 0.45502 0.59573 0.0
C1193 C 0.43989 0.44211 0.57139 0.0
C1194 C 0.4813 0.48947 0.56943 0.0
C1195 C 0.45025 0.45375 0.5463 0.0
C1196 C 0.51468 0.52579 0.54334 0.0
C1197 C 0.53493 0.54859 0.59301 0.0
N1198 N 0.47051 0.47678 0.54594 0.0
N1199 N 0.51419 0.52614 0.59221 0.0
H1200 H 0.95148 0.52881 0.91701 0.0
H1201 H 0.02293 0.45947 0.86758 0.0
H1202 H 0.02326 0.56737 0.87859 0.0
H1203 H 0.96953 0.43395 0.93314 0.0
H1204 H 0.01799 0.49595 0.86229 0.0
H1205 H 0.95236 0.49037 0.91328 0.0
C1206 C 0.96737 0.52921 0.90763 0.0
C1207 C 0.98754 0.5515 0.89859 0.0
C1208 C 0.00728 0.48224 0.87768 0.0
C1209 C 0.98846 0.50742 0.89395 0.0
C1210 C 0.01005 0.4615 0.88064 0.0
C1211 C 0.99682 0.44398 0.90103 0.0
C1212 C 0.99079 0.48503 0.89486 0.0
C1213 C 0.9803 0.44729 0.91745 0.0
C1214 C 0.96781 0.50723 0.90545 0.0
C1215 C 0.00729 0.55067 0.88584 0.0
N1216 N 0.97775 0.46741 0.91401 0.0
N1217 N 0.00736 0.529 0.88411 0.0
H1218 H 0.01056 0.55855 0.47197 0.0
H1219 H 0.00238 0.44837 0.38052 0.0
H1220 H 0.01483 0.55893 0.38352 0.0
H1221 H 0.99765 0.44458 0.46889 0.0
H1222 H 0.00842 0.48981 0.38224 0.0
H1223 H 0.00712 0.51767 0.47234 0.0
C1224 C 0.0109 0.55014 0.45268 0.0
C1225 C 0.01321 0.56234 0.4277 0.0
C1226 C 0.00605 0.48002 0.40134 0.0
C1227 C 0.0093 0.51573 0.42798 0.0
C1228 C 0.00241 0.45623 0.40034 0.0
C1229 C -0.00091 0.44284 0.42458 0.0
C1230 C 0.00638 0.49071 0.42679 0.0
C1231 C 7e-05 0.45428 0.44972 0.0
C1232 C 0.00901 0.52687 0.45292 0.0
C1233 C 0.01365 0.55059 0.40334 0.0
N1234 N 0.00348 0.47756 0.45019 0.0
N1235 N 0.01165 0.52802 0.40413 0.0
H1236 H 0.54906 0.9877 0.79984 0.0
H1237 H 0.44669 0.99632 0.7094 0.0
H1238 H 0.5468 0.987 0.71127 0.0
H1239 H 0.44758 -0.00015 0.79787 0.0
H1240 H 0.48296 0.9917 0.71059 0.0
H1241 H 0.51156 0.99104 0.80049 0.0
C1242 C 0.54067 0.98817 0.78057 0.0
C1243 C 0.55101 0.98683 0.75546 0.0
C1244 C 0.47535 0.99353 0.72982 0.0
C1245 C 0.50822 0.99061 0.75608 0.0
C1246 C 0.45469 0.99637 0.72914 0.0
C1247 C 0.44428 -0.00114 0.75357 0.0
C1248 C 0.48584 0.9931 0.75514 0.0
C1249 C 0.45504 0.99801 0.77855 0.0
C1250 C 0.51926 0.99 0.78096 0.0
C1251 C 0.53928 0.98741 0.73114 0.0
N1252 N 0.47535 0.9953 0.77872 0.0
N1253 N 0.51862 0.98928 0.73209 0.0
H1254 H 0.46059 0.43066 0.10962 0.0
H1255 H 0.52708 0.57775 0.09901 0.0
H1256 H 0.42213 0.47088 0.09587 0.0
H1257 H 0.56652 0.5377 0.10511 0.0
H1258 H 0.48823 0.53902 0.10439 0.0
H1259 H 0.49916 0.46986 0.11497 0.0
C1260 C 0.46018 0.44772 0.10818 0.0
C1261 C 0.43814 0.44751 0.10204 0.0
C1262 C 0.50538 0.5387 0.10478 0.0
C1263 C 0.48224 0.49242 0.10778 0.0
C1264 C 0.52757 0.5608 0.10161 0.0
C1265 C 0.55008 0.56094 0.10129 0.0
C1266 C 0.50562 0.51647 0.10756 0.0
C1267 C 0.54962 0.53849 0.10533 0.0
C1268 C 0.48224 0.4701 0.11104 0.0
C1269 C 0.43877 0.4702 0.10012 0.0
N1270 N 0.52772 0.51712 0.10804 0.0
N1271 N 0.46047 0.49171 0.10279 0.0
H1272 H 0.12722 0.77561 0.36179 0.0
H1273 H 0.17955 0.90825 0.29146 0.0
H1274 H 0.08682 0.81477 0.35697 0.0
H1275 H 0.22251 0.87208 0.30068 0.0
H1276 H 0.14466 0.87302 0.31341 0.0
H1277 H 0.16206 0.81015 0.33862 0.0
C1278 C 0.1258 0.79161 0.35621 0.0
C1279 C 0.10408 0.79232 0.3614 0.0
C1280 C 0.16165 0.87268 0.31052 0.0
C1281 C 0.14367 0.83166 0.33433 0.0
C1282 C 0.18157 0.89279 0.29795 0.0
C1283 C 0.20399 0.89313 0.2943 0.0
C1284 C 0.16413 0.85273 0.31962 0.0
C1285 C 0.20548 0.87247 0.30282 0.0
C1286 C 0.1456 0.81121 0.34273 0.0
C1287 C 0.1031 0.81332 0.35316 0.0
N1288 N 0.18587 0.85316 0.31524 0.0
N1289 N 0.12257 0.8321 0.34001 0.0
H1290 H 0.27222 0.18121 0.62941 0.0
H1291 H 0.35506 0.12938 0.69443 0.0
H1292 H 0.35184 0.2227 0.63026 0.0
H1293 H 0.27544 0.0909 0.69697 0.0
H1294 H 0.35469 0.16378 0.67083 0.0
H1295 H 0.27339 0.1473 0.6527 0.0
C1296 C 0.28997 0.18309 0.63435 0.0
C1297 C 0.31195 0.20481 0.62796 0.0
C1298 C 0.33732 0.14785 0.67668 0.0
C1299 C 0.31349 0.1661 0.65484 0.0
C1300 C 0.33753 0.12834 0.69041 0.0
C1301 C 0.31524 0.10724 0.69765 0.0
C1302 C 0.31466 0.14622 0.67016 0.0
C1303 C 0.29305 0.10669 0.69149 0.0
C1304 C 0.29065 0.16374 0.6477 0.0
C1305 C 0.33445 0.20616 0.63456 0.0
N1306 N 0.29333 0.12582 0.67804 0.0
N1307 N 0.33465 0.18712 0.6478 0.0
H1308 H 0.18341 0.27701 0.03253 0.0
H1309 H 0.12864 0.35937 0.97347 0.0
H1310 H 0.22395 0.35662 0.03335 0.0
H1311 H 0.0907 0.27983 0.97012 0.0
H1312 H 0.16371 0.35917 0.99563 0.0
H1313 H 0.14867 0.27801 0.01113 0.0
C1314 C 0.18491 0.29472 0.02834 0.0
C1315 C 0.20661 0.31676 0.03465 0.0
C1316 C 0.14774 0.34178 0.98995 0.0
C1317 C 0.16692 0.31809 0.00996 0.0
C1318 C 0.12782 0.3419 0.97706 0.0
C1319 C 0.1067 0.31957 0.96997 0.0
C1320 C 0.14649 0.31918 0.99577 0.0
C1321 C 0.10648 0.29745 0.97553 0.0
C1322 C 0.16509 0.2953 0.01608 0.0
C1323 C 0.20746 0.33919 0.02906 0.0
N1324 N 0.12601 0.29783 0.98814 0.0
N1325 N 0.18794 0.33929 0.01687 0.0
H1326 H 0.90381 0.18098 0.3662 0.0
H1327 H 0.76312 0.12118 0.31751 0.0
H1328 H 0.86146 0.21776 0.37556 0.0
H1329 H 0.80947 0.08971 0.30105 0.0
H1330 H 0.79794 0.15593 0.34057 0.0
H1331 H 0.86801 0.14589 0.34543 0.0
C1332 C 0.88687 0.18156 0.36405 0.0
C1333 C 0.88564 0.20236 0.37245 0.0
C1334 C 0.80048 0.14144 0.33184 0.0
C1335 C 0.84453 0.16227 0.34848 0.0
C1336 C 0.78069 0.12173 0.31843 0.0
C1337 C 0.78338 0.10249 0.30731 0.0
C1338 C 0.82308 0.14188 0.33419 0.0
C1339 C 0.80645 0.10395 0.30959 0.0
C1340 C 0.86643 0.16154 0.35214 0.0
C1341 C 0.86313 0.202 0.36954 0.0
N1342 N 0.82534 0.12324 0.3228 0.0
N1343 N 0.84348 0.18233 0.35759 0.0
H1344 H 0.6473 0.77479 0.63068 0.0
H1345 H 0.72912 0.90847 0.69807 0.0
H1346 H 0.72697 0.815 0.63083 0.0
H1347 H 0.64957 0.87074 0.69411 0.0
H1348 H 0.72847 0.87363 0.67474 0.0
H1349 H 0.64751 0.8095 0.65402 0.0
C1350 C 0.66484 0.79108 0.63523 0.0
C1351 C 0.68717 0.79202 0.62875 0.0
C1352 C 0.71113 0.87288 0.67908 0.0
C1353 C 0.68754 0.83156 0.65602 0.0
C1354 C 0.7115 0.89277 0.69243 0.0
C1355 C 0.68937 0.89252 0.69803 0.0
C1356 C 0.68846 0.85257 0.67116 0.0
C1357 C 0.66705 0.87157 0.69051 0.0
C1358 C 0.66494 0.81078 0.64882 0.0
C1359 C 0.70933 0.81339 0.63568 0.0
N1360 N 0.66717 0.85248 0.67733 0.0
N1361 N 0.70895 0.83225 0.64899 0.0
H1362 H 0.8069 0.71057 0.04263 0.0
H1363 H 0.87221 0.64017 0.97743 0.0
H1364 H 0.77175 0.63133 0.03587 0.0
H1365 H 0.9064 0.71949 0.98126 0.0
H1366 H 0.8356 0.63655 -0.00023 0.0
H1367 H 0.84438 0.71417 0.02257 0.0
C1368 C 0.8072 0.6939 0.03736 0.0
C1369 C 0.78614 0.6706 0.04093 0.0
C1370 C 0.85108 0.65476 0.99566 0.0
C1371 C 0.82882 0.67461 0.01738 0.0
C1372 C 0.87191 0.65684 0.98264 0.0
C1373 C 0.89239 0.68018 0.9773 0.0
C1374 C 0.85067 0.67616 0.00348 0.0
C1375 C 0.89113 0.70113 0.98516 0.0
C1376 C 0.82853 0.69598 0.02563 0.0
C1377 C 0.78746 0.64967 0.03322 0.0
N1378 N 0.87065 0.69862 0.99784 0.0
N1379 N 0.80839 0.65218 0.02172 0.0
H1380 H 0.2976 0.02151 0.43615 0.0
H1381 H 0.34877 0.98519 0.5675 0.0
H1382 H 0.35747 0.00595 0.43196 0.0
H1383 H 0.27748 0.98044 0.5649 0.0
H1384 H 0.35403 0.99542 0.5187 0.0
H1385 H 0.29234 0.01032 0.48465 0.0
C1386 C 0.30968 0.01578 0.4454 0.0
C1387 C 0.32792 0.01455 0.42982 0.0
C1388 C 0.33718 0.99199 0.52881 0.0
C1389 C 0.32209 0.00189 0.48548 0.0
C1390 C 0.33403 0.9859 0.55663 0.0
C1391 C 0.31265 0.98198 0.57045 0.0
C1392 C 0.31893 0.9944 0.5147 0.0
C1393 C 0.29446 0.98371 0.55529 0.0
C1394 C 0.30666 0.0094 0.47311 0.0
C1395 C 0.34335 0.00748 0.44315 0.0
N1396 N 0.29809 0.98994 0.52831 0.0
N1397 N 0.34005 0.00137 0.4702 0.0
H1398 H 0.29692 0.28172 0.89679 0.0
H1399 H 0.35307 0.36217 0.76077 0.0
H1400 H 0.36398 0.35251 0.8963 0.0
H1401 H 0.27973 0.29876 0.76587 0.0
H1402 H 0.35863 0.35808 0.80974 0.0
H1403 H 0.29209 0.28614 0.8478 0.0
C1404 C 0.31068 0.29818 0.88636 0.0
C1405 C 0.33079 0.31686 0.90076 0.0
C1406 C 0.34129 0.34513 0.80015 0.0
C1407 C 0.32541 0.322 0.84456 0.0
C1408 C 0.33799 0.34759 0.77223 0.0
C1409 C 0.31589 0.33076 0.75911 0.0
C1410 C 0.3224 0.32564 0.81506 0.0
C1411 C 0.29722 0.31195 0.77497 0.0
C1412 C 0.30791 0.30069 0.85838 0.0
C1413 C 0.3483 0.33754 0.88602 0.0
N1414 N 0.30094 0.30984 0.80205 0.0
N1415 N 0.34515 0.33961 0.85875 0.0
H1416 H 0.0401 0.34066 0.22431 0.0
H1417 H 0.9492 0.32704 0.10156 0.0
H1418 H 0.96509 0.32393 0.23735 0.0
H1419 H 0.01157 0.31615 0.09101 0.0
H1420 H 0.95768 0.33241 0.15102 0.0
H1421 H 0.03303 0.33854 0.17454 0.0
C1422 C 0.02225 0.33677 0.21664 0.0
C1423 C 0.00308 0.33228 0.23481 0.0
C1424 C 0.96946 0.3288 0.13784 0.0
C1425 C 0.9949 0.32992 0.17829 0.0
C1426 C 0.96466 0.3258 0.1097 0.0
C1427 C 0.97956 0.3209 0.09234 0.0
C1428 C 0.98955 0.32732 0.14852 0.0
C1429 C -0.00059 0.3195 0.10382 0.0
C1430 C 0.01817 0.33541 0.18834 0.0
C1431 C 0.98024 0.32721 0.22393 0.0
N1432 N 0.0039 0.32279 0.1312 0.0
N1433 N 0.97677 0.32619 0.19637 0.0
H1434 H 0.66816 0.95037 0.43932 0.0
H1435 H 0.65237 0.02731 0.56102 0.0
H1436 H 0.6419 0.0017 0.42677 0.0
H1437 H 0.69277 0.9884 0.56916 0.0
H1438 H 0.64526 0.01555 0.5125 0.0
H1439 H 0.67395 0.96128 0.48796 0.0
C1440 C 0.66354 0.96388 0.44676 0.0
C1441 C 0.65455 0.97513 0.42883 0.0
C1442 C 0.65578 0.00969 0.52489 0.0
C1443 C 0.66101 0.9876 0.48457 0.0
C1444 C 0.6598 0.01637 0.55255 0.0
C1445 C 0.67331 0.00896 0.56907 0.0
C1446 C 0.6651 0.99526 0.51376 0.0
C1447 C 0.6826 0.99485 0.55706 0.0
C1448 C 0.66683 0.97007 0.47455 0.0
C1449 C 0.64852 0.99223 0.43981 0.0
N1450 N 0.67823 0.98838 0.53018 0.0
N1451 N 0.65191 0.99797 0.46693 0.0
H1452 H 0.62477 0.65188 0.89236 0.0
H1453 H 0.70951 0.6627 0.76446 0.0
H1454 H 0.70418 0.68622 0.89661 0.0
H1455 H 0.63492 0.64882 0.7555 0.0
H1456 H 0.70663 0.66721 0.81385 0.0
H1457 H 0.62698 0.64713 0.84277 0.0
C1458 C 0.64268 0.65862 0.8829 0.0
C1459 C 0.66431 0.66935 0.89879 0.0
C1460 C 0.69088 0.66312 0.80105 0.0
C1461 C 0.66688 0.66349 0.84216 0.0
C1462 C 0.69252 0.66059 0.77282 0.0
C1463 C 0.67247 0.65543 0.75566 0.0
C1464 C 0.66896 0.66031 0.81234 0.0
C1465 C 0.65075 0.65243 0.76786 0.0
C1466 C 0.6439 0.65574 0.85461 0.0
C1467 C 0.68695 0.67739 0.88536 0.0
N1468 N 0.64958 0.65493 0.79543 0.0
N1469 N 0.68762 0.67419 0.8579 0.0
H1470 H 0.96638 0.61634 0.23176 0.0
H1471 H 0.04578 0.70724 0.11008 0.0
H1472 H 0.00715 0.69565 0.23934 0.0
H1473 H 0.9881 0.63199 0.09615 0.0
H1474 H 0.03569 0.70199 0.15891 0.0
H1475 H 0.97771 0.62049 0.18302 0.0
C1476 C 0.97763 0.6346 0.22311 0.0
C1477 C 0.98565 0.65569 0.23947 0.0
C1478 C 0.02533 0.68661 0.14514 0.0
C1479 C -0.00107 0.66056 0.1841 0.0
C1480 C 0.03104 0.6896 0.11724 0.0
C1481 C 0.0177 0.67009 0.09884 0.0
C1482 C 0.00624 0.6639 0.15483 0.0
C1483 C -0.00087 0.64748 0.10951 0.0
C1484 C 0.98406 0.63696 0.19537 0.0
C1485 C 0.00022 0.67893 0.22733 0.0
N1486 N 0.99391 0.64503 0.13678 0.0
N1487 N 0.00647 0.68073 0.20041 0.0
loop_
_geom_bond_atom_site_label_1
_geom_bond_atom_site_label_2
_geom_bond_distance
_geom_bond_site_symmetry_2
_ccdc_geom_bond_type
Li0 N17 1.990 . S
Li0 O60 1.956 . S
Li0 O61 1.970 1_565 S
Li0 O62 1.961 . S
Li1 N25 1.990 . S
Li1 O60 1.970 1_545 S
Li1 O61 1.956 . S
Li1 O63 1.961 . S
Li2 N47 1.990 . S
Li2 O60 1.961 . S
Li2 O62 1.956 . S
Li2 O63 1.970 1_565 S
Li3 N53 1.990 . S
Li3 O61 1.961 . S
Li3 O62 1.970 1_545 S
Li3 O63 1.956 . S
C4 C6 1.348 . S
C4 C7 1.356 . S
C4 O60 1.325 . S
N5 C8 1.314 . S
N5 C9 1.279 . S
C6 C4 1.348 . S
C6 C8 1.353 . S
C6 H64 0.929 . S
C7 C4 1.356 . S
C7 C9 1.358 . S
C7 H65 0.930 . S
C8 N5 1.314 . S
C8 C6 1.353 . S
C8 H66 0.930 . S
C9 N5 1.279 . S
C9 C7 1.358 . S
C9 H67 0.930 . S
C10 C13 1.348 . S
C10 C14 1.356 . S
C10 O61 1.325 . S
C11 N12 1.279 . S
C11 C14 1.358 . S
C11 H68 0.930 . S
N12 C11 1.279 . S
N12 C15 1.314 . S
C13 C10 1.348 . S
C13 C15 1.353 . S
C13 H69 0.929 . S
C14 C10 1.356 . S
C14 C11 1.358 . S
C14 H70 0.930 . S
C15 N12 1.314 . S
C15 C13 1.353 . S
C15 H71 0.930 . S
C16 N17 1.314 1_545 S
C16 C21 1.353 . S
C16 H22 0.930 . S
N17 Li0 1.990 . S
N17 C16 1.314 1_565 S
N17 C19 1.279 . S
C18 C19 1.358 . S
C18 C20 1.356 . S
C18 H72 0.930 . S
C19 N17 1.279 . S
C19 C18 1.358 . S
C19 H23 0.930 . S
C20 C18 1.356 . S
C20 C21 1.348 1_565 S
C21 C16 1.353 . S
C21 C20 1.348 1_545 S
C21 H73 0.929 . S
H22 C16 0.930 . S
H23 C19 0.930 . S
C24 N25 1.314 . S
C24 C26 1.353 . S
C24 H30 0.930 1_545 S
N25 Li1 1.990 . S
N25 C24 1.314 . S
N25 C28 1.279 . S
C26 C24 1.353 . S
C26 C29 1.348 . S
C26 H74 0.929 . S
C27 C28 1.358 . S
C27 C29 1.356 . S
C27 H75 0.930 . S
C28 N25 1.279 . S
C28 C27 1.358 . S
C28 H31 0.930 . S
C29 C26 1.348 . S
C29 C27 1.356 . S
H30 C24 0.930 1_565 S
H31 C28 0.930 . S
C32 C34 1.348 . S
C32 C35 1.356 . S
C32 O62 1.325 . S
N33 C36 1.314 . S
N33 C37 1.279 . S
C34 C32 1.348 . S
C34 C36 1.353 . S
C34 H76 0.929 1_565 S
C35 C32 1.356 . S
C35 C37 1.358 . S
C35 H77 0.930 . S
C36 N33 1.314 . S
C36 C34 1.353 . S
C36 H78 0.930 . S
C37 N33 1.279 . S
C37 C35 1.358 . S
C37 H79 0.930 . S
C38 C39 1.348 1_545 S
C38 C40 1.356 . S
C38 O63 1.325 . S
C39 C38 1.348 1_565 S
C39 C41 1.353 . S
C39 H80 0.929 . S
C40 C38 1.356 . S
C40 C42 1.358 . S
C40 H81 0.930 . S
C41 C39 1.353 . S
C41 N43 1.314 1_565 S
C41 H82 0.930 . S
C42 C40 1.358 . S
C42 N43 1.279 . S
C42 H83 0.930 . S
N43 C41 1.314 1_545 S
N43 C42 1.279 . S
C44 C46 1.353 . S
C44 N47 1.314 . S
C44 H50 0.930 . S
C45 N47 1.279 . S
C45 C48 1.358 . S
C45 H51 0.930 . S
C46 C44 1.353 . S
C46 C49 1.348 . S
C46 H84 0.929 . S
N47 Li2 1.990 . S
N47 C44 1.314 . S
N47 C45 1.279 . S
C48 C45 1.358 . S
C48 C49 1.356 . S
C48 H85 0.930 . S
C49 C46 1.348 . S
C49 C48 1.356 . S
H50 C44 0.930 . S
H51 C45 0.930 . S
C52 N53 1.314 . S
C52 C54 1.353 . S
C52 H58 0.930 . S
N53 Li3 1.990 . S
N53 C52 1.314 . S
N53 C56 1.279 . S
C54 C52 1.353 . S
C54 C57 1.348 . S
C54 H86 0.929 . S
C55 C56 1.358 . S
C55 C57 1.356 . S
C55 H87 0.930 . S
C56 N53 1.279 . S
C56 C55 1.358 . S
C56 H59 0.930 . S
C57 C54 1.348 . S
C57 C55 1.356 . S
H58 C52 0.930 . S
H59 C56 0.930 . S
O60 Li0 1.956 . S
O60 Li1 1.970 1_565 S
O60 Li2 1.961 . S
O60 C4 1.325 . S
O61 Li0 1.970 1_545 S
O61 Li1 1.956 . S
O61 Li3 1.961 . S
O61 C10 1.325 . S
O62 Li0 1.961 . S
O62 Li2 1.956 . S
O62 Li3 1.970 1_565 S
O62 C32 1.325 . S
O63 Li1 1.961 . S
O63 Li2 1.970 1_545 S
O63 Li3 1.956 . S
O63 C38 1.325 . S
H64 C6 0.929 . S
H65 C7 0.930 . S
H66 C8 0.930 . S
H67 C9 0.930 . S
H68 C11 0.930 . S
H69 C13 0.929 . S
H70 C14 0.930 . S
H71 C15 0.930 . S
H72 C18 0.930 . S
H73 C21 0.929 . S
H74 C26 0.929 . S
H75 C27 0.930 . S
H76 C34 0.929 1_545 S
H77 C35 0.930 . S
H78 C36 0.930 . S
H79 C37 0.930 . S
H80 C39 0.929 . S
H81 C40 0.930 . S
H82 C41 0.930 . S
H83 C42 0.930 . S
H84 C46 0.929 . S
H85 C48 0.930 . S
H86 C54 0.929 . S
H87 C55 0.930 . S
Li88 N105 1.990 . S
Li88 O148 1.956 . S
Li88 O149 1.970 . S
Li88 O150 1.961 . S
Li89 N113 1.990 . S
Li89 O148 1.970 . S
Li89 O149 1.956 . S
Li89 O151 1.961 . S
Li90 N135 1.990 . S
Li90 O148 1.961 . S
Li90 O150 1.956 . S
Li90 O151 1.970 . S
Li91 N141 1.990 . S
Li91 O149 1.961 . S
Li91 O150 1.970 . S
Li91 O151 1.956 . S
C92 C94 1.348 . S
C92 C95 1.356 . S
C92 O148 1.325 . S
N93 C96 1.314 . S
N93 C97 1.279 . S
C94 C92 1.348 . S
C94 C96 1.353 . S
C94 H152 0.929 . S
C95 C92 1.356 . S
C95 C97 1.358 . S
C95 H153 0.930 . S
C96 N93 1.314 . S
C96 C94 1.353 . S
C96 H154 0.930 . S
C97 N93 1.279 . S
C97 C95 1.358 . S
C97 H155 0.930 . S
C98 C101 1.348 . S
C98 C102 1.356 . S
C98 O149 1.325 . S
C99 N100 1.279 . S
C99 C102 1.358 . S
C99 H156 0.930 . S
N100 C99 1.279 . S
N100 C103 1.314 . S
C101 C98 1.348 . S
C101 C103 1.353 . S
C101 H157 0.929 . S
C102 C98 1.356 . S
C102 C99 1.358 . S
C102 H158 0.930 . S
C103 N100 1.314 . S
C103 C101 1.353 . S
C103 H159 0.930 . S
C104 N105 1.314 . S
C104 C109 1.353 . S
C104 H110 0.930 . S
N105 Li88 1.990 . S
N105 C104 1.314 . S
N105 C107 1.279 . S
C106 C107 1.358 . S
C106 C108 1.356 . S
C106 H160 0.930 . S
C107 N105 1.279 . S
C107 C106 1.358 . S
C107 H111 0.930 . S
C108 C106 1.356 . S
C108 C109 1.348 . S
C109 C104 1.353 . S
C109 C108 1.348 . S
C109 H161 0.929 . S
H110 C104 0.930 . S
H111 C107 0.930 . S
C112 N113 1.314 . S
C112 C114 1.353 . S
C112 H118 0.930 . S
N113 Li89 1.990 . S
N113 C112 1.314 . S
N113 C116 1.279 . S
C114 C112 1.353 . S
C114 C117 1.348 . S
C114 H162 0.929 . S
C115 C116 1.358 . S
C115 C117 1.356 . S
C115 H163 0.930 . S
C116 N113 1.279 . S
C116 C115 1.358 . S
C116 H119 0.930 . S
C117 C114 1.348 . S
C117 C115 1.356 . S
H118 C112 0.930 . S
H119 C116 0.930 . S
C120 C122 1.348 . S
C120 C123 1.356 . S
C120 O150 1.325 . S
N121 C124 1.314 . S
N121 C125 1.279 . S
C122 C120 1.348 . S
C122 C124 1.353 . S
C122 H164 0.929 . S
C123 C120 1.356 . S
C123 C125 1.358 . S
C123 H165 0.930 . S
C124 N121 1.314 . S
C124 C122 1.353 . S
C124 H166 0.930 . S
C125 N121 1.279 . S
C125 C123 1.358 . S
C125 H167 0.930 . S
C126 C127 1.348 . S
C126 C128 1.356 . S
C126 O151 1.325 . S
C127 C126 1.348 . S
C127 C129 1.353 . S
C127 H168 0.929 . S
C128 C126 1.356 . S
C128 C130 1.358 . S
C128 H169 0.930 . S
C129 C127 1.353 . S
C129 N131 1.314 . S
C129 H170 0.930 . S
C130 C128 1.358 . S
C130 N131 1.279 . S
C130 H171 0.930 . S
N131 C129 1.314 . S
N131 C130 1.279 . S
C132 C134 1.353 . S
C132 N135 1.314 . S
C132 H138 0.930 . S
C133 N135 1.279 . S
C133 C136 1.358 . S
C133 H139 0.930 . S
C134 C132 1.353 . S
C134 C137 1.348 . S
C134 H172 0.929 . S
N135 Li90 1.990 . S
N135 C132 1.314 . S
N135 C133 1.279 . S
C136 C133 1.358 . S
C136 C137 1.356 . S
C136 H173 0.930 . S
C137 C134 1.348 . S
C137 C136 1.356 . S
H138 C132 0.930 . S
H139 C133 0.930 . S
C140 N141 1.314 . S
C140 C142 1.353 . S
C140 H146 0.930 . S
N141 Li91 1.990 . S
N141 C140 1.314 . S
N141 C144 1.279 . S
C142 C140 1.353 . S
C142 C145 1.348 . S
C142 H174 0.929 . S
C143 C144 1.358 . S
C143 C145 1.356 . S
C143 H175 0.930 . S
C144 N141 1.279 . S
C144 C143 1.358 . S
C144 H147 0.930 . S
C145 C142 1.348 . S
C145 C143 1.356 . S
H146 C140 0.930 . S
H147 C144 0.930 . S
O148 Li88 1.956 . S
O148 Li89 1.970 . S
O148 Li90 1.961 . S
O148 C92 1.325 . S
O149 Li88 1.970 . S
O149 Li89 1.956 . S
O149 Li91 1.961 . S
O149 C98 1.325 . S
O150 Li88 1.961 . S
O150 Li90 1.956 . S
O150 Li91 1.970 . S
O150 C120 1.325 . S
O151 Li89 1.961 . S
O151 Li90 1.970 . S
O151 Li91 1.956 . S
O151 C126 1.325 . S
H152 C94 0.929 . S
H153 C95 0.930 . S
H154 C96 0.930 . S
H155 C97 0.930 . S
H156 C99 0.930 . S
H157 C101 0.929 . S
H158 C102 0.930 . S
H159 C103 0.930 . S
H160 C106 0.930 . S
H161 C109 0.929 . S
H162 C114 0.929 . S
H163 C115 0.930 . S
H164 C122 0.929 . S
H165 C123 0.930 . S
H166 C124 0.930 . S
H167 C125 0.930 . S
H168 C127 0.929 . S
H169 C128 0.930 . S
H170 C129 0.930 . S
H171 C130 0.930 . S
H172 C134 0.929 . S
H173 C136 0.930 . S
H174 C142 0.929 . S
H175 C143 0.930 . S
Li176 N193 1.990 . S
Li176 O236 1.956 . S
Li176 O237 1.970 1_455 S
Li176 O238 1.961 . S
Li177 N201 1.990 1_556 S
Li177 O236 1.970 1_655 S
Li177 O237 1.956 . S
Li177 O239 1.961 . S
Li178 N223 1.990 . S
Li178 O236 1.961 . S
Li178 O238 1.956 . S
Li178 O239 1.970 1_455 S
Li179 N229 1.990 . S
Li179 O237 1.961 . S
Li179 O238 1.970 1_655 S
Li179 O239 1.956 . S
C180 C182 1.348 1_556 S
C180 C183 1.356 . S
C180 O236 1.325 . S
N181 C184 1.314 . S
N181 C185 1.279 1_554 S
C182 C180 1.348 1_554 S
C182 C184 1.353 . S
C182 H240 0.929 . S
C183 C180 1.356 . S
C183 C185 1.358 . S
C183 H241 0.930 . S
C184 N181 1.314 . S
C184 C182 1.353 . S
C184 H242 0.930 . S
C185 N181 1.279 1_556 S
C185 C183 1.358 . S
C185 H243 0.930 . S
C186 C189 1.348 . S
C186 C190 1.356 . S
C186 O237 1.325 . S
C187 N188 1.279 . S
C187 C190 1.358 . S
C187 H244 0.930 . S
N188 C187 1.279 . S
N188 C191 1.314 . S
C189 C186 1.348 . S
C189 C191 1.353 . S
C189 H245 0.929 . S
C190 C186 1.356 . S
C190 C187 1.358 . S
C190 H246 0.930 . S
C191 N188 1.314 . S
C191 C189 1.353 . S
C191 H247 0.930 . S
C192 N193 1.314 1_655 S
C192 C197 1.353 . S
C192 H198 0.930 . S
N193 Li176 1.990 . S
N193 C192 1.314 1_455 S
N193 C195 1.279 . S
C194 C195 1.358 . S
C194 C196 1.356 . S
C194 H248 0.930 . S
C195 N193 1.279 . S
C195 C194 1.358 . S
C195 H199 0.930 . S
C196 C194 1.356 . S
C196 C197 1.348 1_455 S
C197 C192 1.353 . S
C197 C196 1.348 1_655 S
C197 H249 0.929 . S
H198 C192 0.930 . S
H199 C195 0.930 . S
C200 N201 1.314 . S
C200 C202 1.353 . S
C200 H206 0.930 1_655 S
N201 Li177 1.990 1_554 S
N201 C200 1.314 . S
N201 C204 1.279 . S
C202 C200 1.353 . S
C202 C205 1.348 . S
C202 H250 0.929 . S
C203 C204 1.358 . S
C203 C205 1.356 . S
C203 H251 0.930 . S
C204 N201 1.279 . S
C204 C203 1.358 . S
C204 H207 0.930 . S
C205 C202 1.348 . S
C205 C203 1.356 . S
H206 C200 0.930 1_455 S
H207 C204 0.930 . S
C208 C210 1.348 . S
C208 C211 1.356 . S
C208 O238 1.325 . S
N209 C212 1.314 . S
N209 C213 1.279 . S
C210 C208 1.348 . S
C210 C212 1.353 . S
C210 H252 0.929 1_455 S
C211 C208 1.356 . S
C211 C213 1.358 . S
C211 H253 0.930 . S
C212 N209 1.314 . S
C212 C210 1.353 . S
C212 H254 0.930 . S
C213 N209 1.279 . S
C213 C211 1.358 . S
C213 H255 0.930 . S
C214 C215 1.348 1_655 S
C214 C216 1.356 . S
C214 O239 1.325 . S
C215 C214 1.348 1_455 S
C215 C217 1.353 . S
C215 H256 0.929 . S
C216 C214 1.356 . S
C216 C218 1.358 . S
C216 H257 0.930 . S
C217 C215 1.353 . S
C217 N219 1.314 1_455 S
C217 H258 0.930 . S
C218 C216 1.358 . S
C218 N219 1.279 . S
C218 H259 0.930 1_556 S
N219 C217 1.314 1_655 S
N219 C218 1.279 . S
C220 C222 1.353 . S
C220 N223 1.314 . S
C220 H226 0.930 . S
C221 N223 1.279 . S
C221 C224 1.358 . S
C221 H227 0.930 . S
C222 C220 1.353 . S
C222 C225 1.348 . S
C222 H260 0.929 . S
N223 Li178 1.990 . S
N223 C220 1.314 . S
N223 C221 1.279 . S
C224 C221 1.358 . S
C224 C225 1.356 . S
C224 H261 0.930 . S
C225 C222 1.348 . S
C225 C224 1.356 . S
H226 C220 0.930 . S
H227 C221 0.930 . S
C228 N229 1.314 . S
C228 C230 1.353 . S
C228 H234 0.930 . S
N229 Li179 1.990 . S
N229 C228 1.314 . S
N229 C232 1.279 . S
C230 C228 1.353 . S
C230 C233 1.348 . S
C230 H262 0.929 . S
C231 C232 1.358 . S
C231 C233 1.356 . S
C231 H263 0.930 . S
C232 N229 1.279 . S
C232 C231 1.358 . S
C232 H235 0.930 . S
C233 C230 1.348 . S
C233 C231 1.356 . S
H234 C228 0.930 . S
H235 C232 0.930 . S
O236 Li176 1.956 . S
O236 Li177 1.970 1_455 S
O236 Li178 1.961 . S
O236 C180 1.325 . S
O237 Li176 1.970 1_655 S
O237 Li177 1.956 . S
O237 Li179 1.961 . S
O237 C186 1.325 . S
O238 Li176 1.961 . S
O238 Li178 1.956 . S
O238 Li179 1.970 1_455 S
O238 C208 1.325 . S
O239 Li177 1.961 . S
O239 Li178 1.970 1_655 S
O239 Li179 1.956 . S
O239 C214 1.325 . S
H240 C182 0.929 . S
H241 C183 0.930 . S
H242 C184 0.930 . S
H243 C185 0.930 . S
H244 C187 0.930 . S
H245 C189 0.929 . S
H246 C190 0.930 . S
H247 C191 0.930 . S
H248 C194 0.930 . S
H249 C197 0.929 . S
H250 C202 0.929 . S
H251 C203 0.930 . S
H252 C210 0.929 1_655 S
H253 C211 0.930 . S
H254 C212 0.930 . S
H255 C213 0.930 . S
H256 C215 0.929 . S
H257 C216 0.930 . S
H258 C217 0.930 . S
H259 C218 0.930 1_554 S
H260 C222 0.929 . S
H261 C224 0.930 . S
H262 C230 0.929 . S
H263 C231 0.930 . S
Li264 N281 1.990 . S
Li264 O324 1.956 . S
Li264 O325 1.970 1_545 S
Li264 O326 1.961 . S
Li265 N289 1.990 . S
Li265 O324 1.970 1_565 S
Li265 O325 1.956 . S
Li265 O327 1.961 . S
Li266 N311 1.990 . S
Li266 O324 1.961 . S
Li266 O326 1.956 . S
Li266 O327 1.970 1_545 S
Li267 N317 1.990 . S
Li267 O325 1.961 . S
Li267 O326 1.970 1_565 S
Li267 O327 1.956 . S
C268 C270 1.348 . S
C268 C271 1.356 . S
C268 O324 1.325 . S
N269 C272 1.314 . S
N269 C273 1.279 . S
C270 C268 1.348 . S
C270 C272 1.353 . S
C270 H328 0.929 . S
C271 C268 1.356 . S
C271 C273 1.358 . S
C271 H329 0.930 . S
C272 N269 1.314 . S
C272 C270 1.353 . S
C272 H330 0.930 . S
C273 N269 1.279 . S
C273 C271 1.358 . S
C273 H331 0.930 . S
C274 C277 1.348 . S
C274 C278 1.356 . S
C274 O325 1.325 . S
C275 N276 1.279 . S
C275 C278 1.358 . S
C275 H332 0.930 . S
N276 C275 1.279 . S
N276 C279 1.314 . S
C277 C274 1.348 . S
C277 C279 1.353 . S
C277 H333 0.929 . S
C278 C274 1.356 . S
C278 C275 1.358 . S
C278 H334 0.930 . S
C279 N276 1.314 . S
C279 C277 1.353 . S
C279 H335 0.930 . S
C280 N281 1.314 1_565 S
C280 C285 1.353 . S
C280 H286 0.930 . S
N281 Li264 1.990 . S
N281 C280 1.314 1_545 S
N281 C283 1.279 . S
C282 C283 1.358 . S
C282 C284 1.356 . S
C282 H336 0.930 . S
C283 N281 1.279 . S
C283 C282 1.358 . S
C283 H287 0.930 . S
C284 C282 1.356 . S
C284 C285 1.348 1_545 S
C285 C280 1.353 . S
C285 C284 1.348 1_565 S
C285 H337 0.929 . S
H286 C280 0.930 . S
H287 C283 0.930 . S
C288 N289 1.314 . S
C288 C290 1.353 . S
C288 H294 0.930 1_565 S
N289 Li265 1.990 . S
N289 C288 1.314 . S
N289 C292 1.279 . S
C290 C288 1.353 . S
C290 C293 1.348 . S
C290 H338 0.929 . S
C291 C292 1.358 . S
C291 C293 1.356 . S
C291 H339 0.930 . S
C292 N289 1.279 . S
C292 C291 1.358 . S
C292 H295 0.930 . S
C293 C290 1.348 . S
C293 C291 1.356 . S
H294 C288 0.930 1_545 S
H295 C292 0.930 . S
C296 C298 1.348 . S
C296 C299 1.356 . S
C296 O326 1.325 . S
N297 C300 1.314 . S
N297 C301 1.279 . S
C298 C296 1.348 . S
C298 C300 1.353 . S
C298 H340 0.929 1_545 S
C299 C296 1.356 . S
C299 C301 1.358 . S
C299 H341 0.930 . S
C300 N297 1.314 . S
C300 C298 1.353 . S
C300 H342 0.930 . S
C301 N297 1.279 . S
C301 C299 1.358 . S
C301 H343 0.930 . S
C302 C303 1.348 1_565 S
C302 C304 1.356 . S
C302 O327 1.325 . S
C303 C302 1.348 1_545 S
C303 C305 1.353 . S
C303 H344 0.929 . S
C304 C302 1.356 . S
C304 C306 1.358 . S
C304 H345 0.930 . S
C305 C303 1.353 . S
C305 N307 1.314 1_545 S
C305 H346 0.930 . S
C306 C304 1.358 . S
C306 N307 1.279 . S
C306 H347 0.930 . S
N307 C305 1.314 1_565 S
N307 C306 1.279 . S
C308 C310 1.353 . S
C308 N311 1.314 . S
C308 H314 0.930 . S
C309 N311 1.279 . S
C309 C312 1.358 . S
C309 H315 0.930 . S
C310 C308 1.353 . S
C310 C313 1.348 . S
C310 H348 0.929 . S
N311 Li266 1.990 . S
N311 C308 1.314 . S
N311 C309 1.279 . S
C312 C309 1.358 . S
C312 C313 1.356 . S
C312 H349 0.930 . S
C313 C310 1.348 . S
C313 C312 1.356 . S
H314 C308 0.930 . S
H315 C309 0.930 . S
C316 N317 1.314 . S
C316 C318 1.353 . S
C316 H322 0.930 . S
N317 Li267 1.990 . S
N317 C316 1.314 . S
N317 C320 1.279 . S
C318 C316 1.353 . S
C318 C321 1.348 . S
C318 H350 0.929 . S
C319 C320 1.358 . S
C319 C321 1.356 . S
C319 H351 0.930 . S
C320 N317 1.279 . S
C320 C319 1.358 . S
C320 H323 0.930 . S
C321 C318 1.348 . S
C321 C319 1.356 . S
H322 C316 0.930 . S
H323 C320 0.930 . S
O324 Li264 1.956 . S
O324 Li265 1.970 1_545 S
O324 Li266 1.961 . S
O324 C268 1.325 . S
O325 Li264 1.970 1_565 S
O325 Li265 1.956 . S
O325 Li267 1.961 . S
O325 C274 1.325 . S
O326 Li264 1.961 . S
O326 Li266 1.956 . S
O326 Li267 1.970 1_545 S
O326 C296 1.325 . S
O327 Li265 1.961 . S
O327 Li266 1.970 1_565 S
O327 Li267 1.956 . S
O327 C302 1.325 . S
H328 C270 0.929 . S
H329 C271 0.930 . S
H330 C272 0.930 . S
H331 C273 0.930 . S
H332 C275 0.930 . S
H333 C277 0.929 . S
H334 C278 0.930 . S
H335 C279 0.930 . S
H336 C282 0.930 . S
H337 C285 0.929 . S
H338 C290 0.929 . S
H339 C291 0.930 . S
H340 C298 0.929 1_565 S
H341 C299 0.930 . S
H342 C300 0.930 . S
H343 C301 0.930 . S
H344 C303 0.929 . S
H345 C304 0.930 . S
H346 C305 0.930 . S
H347 C306 0.930 . S
H348 C310 0.929 . S
H349 C312 0.930 . S
H350 C318 0.929 . S
H351 C319 0.930 . S
Li352 N369 1.990 . S
Li352 O412 1.956 . S
Li352 O413 1.970 . S
Li352 O414 1.961 . S
Li353 N377 1.990 . S
Li353 O412 1.970 . S
Li353 O413 1.956 . S
Li353 O415 1.961 . S
Li354 N399 1.990 . S
Li354 O412 1.961 . S
Li354 O414 1.956 . S
Li354 O415 1.970 . S
Li355 N405 1.990 . S
Li355 O413 1.961 . S
Li355 O414 1.970 . S
Li355 O415 1.956 . S
C356 C358 1.348 . S
C356 C359 1.356 . S
C356 O412 1.325 . S
N357 C360 1.314 . S
N357 C361 1.279 . S
C358 C356 1.348 . S
C358 C360 1.353 . S
C358 H416 0.929 . S
C359 C356 1.356 . S
C359 C361 1.358 . S
C359 H417 0.930 . S
C360 N357 1.314 . S
C360 C358 1.353 . S
C360 H418 0.930 . S
C361 N357 1.279 . S
C361 C359 1.358 . S
C361 H419 0.930 . S
C362 C365 1.348 . S
C362 C366 1.356 . S
C362 O413 1.325 . S
C363 N364 1.279 . S
C363 C366 1.358 . S
C363 H420 0.930 . S
N364 C363 1.279 . S
N364 C367 1.314 . S
C365 C362 1.348 . S
C365 C367 1.353 . S
C365 H421 0.929 . S
C366 C362 1.356 . S
C366 C363 1.358 . S
C366 H422 0.930 . S
C367 N364 1.314 . S
C367 C365 1.353 . S
C367 H423 0.930 . S
C368 N369 1.314 . S
C368 C373 1.353 . S
C368 H374 0.930 . S
N369 Li352 1.990 . S
N369 C368 1.314 . S
N369 C371 1.279 . S
C370 C371 1.358 . S
C370 C372 1.356 . S
C370 H424 0.930 . S
C371 N369 1.279 . S
C371 C370 1.358 . S
C371 H375 0.930 . S
C372 C370 1.356 . S
C372 C373 1.348 . S
C373 C368 1.353 . S
C373 C372 1.348 . S
C373 H425 0.929 . S
H374 C368 0.930 . S
H375 C371 0.930 . S
C376 N377 1.314 . S
C376 C378 1.353 . S
C376 H382 0.930 . S
N377 Li353 1.990 . S
N377 C376 1.314 . S
N377 C380 1.279 . S
C378 C376 1.353 . S
C378 C381 1.348 . S
C378 H426 0.929 . S
C379 C380 1.358 . S
C379 C381 1.356 . S
C379 H427 0.930 . S
C380 N377 1.279 . S
C380 C379 1.358 . S
C380 H383 0.930 . S
C381 C378 1.348 . S
C381 C379 1.356 . S
H382 C376 0.930 . S
H383 C380 0.930 . S
C384 C386 1.348 . S
C384 C387 1.356 . S
C384 O414 1.325 . S
N385 C388 1.314 . S
N385 C389 1.279 . S
C386 C384 1.348 . S
C386 C388 1.353 . S
C386 H428 0.929 . S
C387 C384 1.356 . S
C387 C389 1.358 . S
C387 H429 0.930 . S
C388 N385 1.314 . S
C388 C386 1.353 . S
C388 H430 0.930 . S
C389 N385 1.279 . S
C389 C387 1.358 . S
C389 H431 0.930 . S
C390 C391 1.348 . S
C390 C392 1.356 . S
C390 O415 1.325 . S
C391 C390 1.348 . S
C391 C393 1.353 . S
C391 H432 0.929 . S
C392 C390 1.356 . S
C392 C394 1.358 . S
C392 H433 0.930 . S
C393 C391 1.353 . S
C393 N395 1.314 . S
C393 H434 0.930 . S
C394 C392 1.358 . S
C394 N395 1.279 . S
C394 H435 0.930 . S
N395 C393 1.314 . S
N395 C394 1.279 . S
C396 C398 1.353 . S
C396 N399 1.314 . S
C396 H402 0.930 . S
C397 N399 1.279 . S
C397 C400 1.358 . S
C397 H403 0.930 . S
C398 C396 1.353 . S
C398 C401 1.348 . S
C398 H436 0.929 . S
N399 Li354 1.990 . S
N399 C396 1.314 . S
N399 C397 1.279 . S
C400 C397 1.358 . S
C400 C401 1.356 . S
C400 H437 0.930 . S
C401 C398 1.348 . S
C401 C400 1.356 . S
H402 C396 0.930 . S
H403 C397 0.930 . S
C404 N405 1.314 . S
C404 C406 1.353 . S
C404 H410 0.930 . S
N405 Li355 1.990 . S
N405 C404 1.314 . S
N405 C408 1.279 . S
C406 C404 1.353 . S
C406 C409 1.348 . S
C406 H438 0.929 . S
C407 C408 1.358 . S
C407 C409 1.356 . S
C407 H439 0.930 . S
C408 N405 1.279 . S
C408 C407 1.358 . S
C408 H411 0.930 . S
C409 C406 1.348 . S
C409 C407 1.356 . S
H410 C404 0.930 . S
H411 C408 0.930 . S
O412 Li352 1.956 . S
O412 Li353 1.970 . S
O412 Li354 1.961 . S
O412 C356 1.325 . S
O413 Li352 1.970 . S
O413 Li353 1.956 . S
O413 Li355 1.961 . S
O413 C362 1.325 . S
O414 Li352 1.961 . S
O414 Li354 1.956 . S
O414 Li355 1.970 . S
O414 C384 1.325 . S
O415 Li353 1.961 . S
O415 Li354 1.970 . S
O415 Li355 1.956 . S
O415 C390 1.325 . S
H416 C358 0.929 . S
H417 C359 0.930 . S
H418 C360 0.930 . S
H419 C361 0.930 . S
H420 C363 0.930 . S
H421 C365 0.929 . S
H422 C366 0.930 . S
H423 C367 0.930 . S
H424 C370 0.930 . S
H425 C373 0.929 . S
H426 C378 0.929 . S
H427 C379 0.930 . S
H428 C386 0.929 . S
H429 C387 0.930 . S
H430 C388 0.930 . S
H431 C389 0.930 . S
H432 C391 0.929 . S
H433 C392 0.930 . S
H434 C393 0.930 . S
H435 C394 0.930 . S
H436 C398 0.929 . S
H437 C400 0.930 . S
H438 C406 0.929 . S
H439 C407 0.930 . S
Li440 N457 1.990 . S
Li440 O500 1.956 . S
Li440 O501 1.970 1_655 S
Li440 O502 1.961 . S
Li441 N465 1.990 1_556 S
Li441 O500 1.970 1_455 S
Li441 O501 1.956 . S
Li441 O503 1.961 . S
Li442 N487 1.990 . S
Li442 O500 1.961 . S
Li442 O502 1.956 . S
Li442 O503 1.970 1_655 S
Li443 N493 1.990 . S
Li443 O501 1.961 . S
Li443 O502 1.970 1_455 S
Li443 O503 1.956 . S
C444 C446 1.348 1_556 S
C444 C447 1.356 . S
C444 O500 1.325 . S
N445 C448 1.314 . S
N445 C449 1.279 1_554 S
C446 C444 1.348 1_554 S
C446 C448 1.353 . S
C446 H504 0.929 . S
C447 C444 1.356 . S
C447 C449 1.358 . S
C447 H505 0.930 . S
C448 N445 1.314 . S
C448 C446 1.353 . S
C448 H506 0.930 . S
C449 N445 1.279 1_556 S
C449 C447 1.358 . S
C449 H507 0.930 . S
C450 C453 1.348 . S
C450 C454 1.356 . S
C450 O501 1.325 . S
C451 N452 1.279 . S
C451 C454 1.358 . S
C451 H508 0.930 . S
N452 C451 1.279 . S
N452 C455 1.314 . S
C453 C450 1.348 . S
C453 C455 1.353 . S
C453 H509 0.929 . S
C454 C450 1.356 . S
C454 C451 1.358 . S
C454 H510 0.930 . S
C455 N452 1.314 . S
C455 C453 1.353 . S
C455 H511 0.930 . S
C456 N457 1.314 1_455 S
C456 C461 1.353 . S
C456 H462 0.930 . S
N457 Li440 1.990 . S
N457 C456 1.314 1_655 S
N457 C459 1.279 . S
C458 C459 1.358 . S
C458 C460 1.356 . S
C458 H512 0.930 . S
C459 N457 1.279 . S
C459 C458 1.358 . S
C459 H463 0.930 . S
C460 C458 1.356 . S
C460 C461 1.348 1_655 S
C461 C456 1.353 . S
C461 C460 1.348 1_455 S
C461 H513 0.929 . S
H462 C456 0.930 . S
H463 C459 0.930 . S
C464 N465 1.314 . S
C464 C466 1.353 . S
C464 H470 0.930 1_455 S
N465 Li441 1.990 1_554 S
N465 C464 1.314 . S
N465 C468 1.279 . S
C466 C464 1.353 . S
C466 C469 1.348 . S
C466 H514 0.929 . S
C467 C468 1.358 . S
C467 C469 1.356 . S
C467 H515 0.930 . S
C468 N465 1.279 . S
C468 C467 1.358 . S
C468 H471 0.930 . S
C469 C466 1.348 . S
C469 C467 1.356 . S
H470 C464 0.930 1_655 S
H471 C468 0.930 . S
C472 C474 1.348 . S
C472 C475 1.356 . S
C472 O502 1.325 . S
N473 C476 1.314 . S
N473 C477 1.279 . S
C474 C472 1.348 . S
C474 C476 1.353 . S
C474 H516 0.929 1_655 S
C475 C472 1.356 . S
C475 C477 1.358 . S
C475 H517 0.930 . S
C476 N473 1.314 . S
C476 C474 1.353 . S
C476 H518 0.930 . S
C477 N473 1.279 . S
C477 C475 1.358 . S
C477 H519 0.930 . S
C478 C479 1.348 1_455 S
C478 C480 1.356 . S
C478 O503 1.325 . S
C479 C478 1.348 1_655 S
C479 C481 1.353 . S
C479 H520 0.929 . S
C480 C478 1.356 . S
C480 C482 1.358 . S
C480 H521 0.930 . S
C481 C479 1.353 . S
C481 N483 1.314 1_655 S
C481 H522 0.930 . S
C482 C480 1.358 . S
C482 N483 1.279 . S
C482 H523 0.930 1_556 S
N483 C481 1.314 1_455 S
N483 C482 1.279 . S
C484 C486 1.353 . S
C484 N487 1.314 . S
C484 H490 0.930 . S
C485 N487 1.279 . S
C485 C488 1.358 . S
C485 H491 0.930 . S
C486 C484 1.353 . S
C486 C489 1.348 . S
C486 H524 0.929 . S
N487 Li442 1.990 . S
N487 C484 1.314 . S
N487 C485 1.279 . S
C488 C485 1.358 . S
C488 C489 1.356 . S
C488 H525 0.930 . S
C489 C486 1.348 . S
C489 C488 1.356 . S
H490 C484 0.930 . S
H491 C485 0.930 . S
C492 N493 1.314 . S
C492 C494 1.353 . S
C492 H498 0.930 . S
N493 Li443 1.990 . S
N493 C492 1.314 . S
N493 C496 1.279 . S
C494 C492 1.353 . S
C494 C497 1.348 . S
C494 H526 0.929 . S
C495 C496 1.358 . S
C495 C497 1.356 . S
C495 H527 0.930 . S
C496 N493 1.279 . S
C496 C495 1.358 . S
C496 H499 0.930 . S
C497 C494 1.348 . S
C497 C495 1.356 . S
H498 C492 0.930 . S
H499 C496 0.930 . S
O500 Li440 1.956 . S
O500 Li441 1.970 1_655 S
O500 Li442 1.961 . S
O500 C444 1.325 . S
O501 Li440 1.970 1_455 S
O501 Li441 1.956 . S
O501 Li443 1.961 . S
O501 C450 1.325 . S
O502 Li440 1.961 . S
O502 Li442 1.956 . S
O502 Li443 1.970 1_655 S
O502 C472 1.325 . S
O503 Li441 1.961 . S
O503 Li442 1.970 1_455 S
O503 Li443 1.956 . S
O503 C478 1.325 . S
H504 C446 0.929 . S
H505 C447 0.930 . S
H506 C448 0.930 . S
H507 C449 0.930 . S
H508 C451 0.930 . S
H509 C453 0.929 . S
H510 C454 0.930 . S
H511 C455 0.930 . S
H512 C458 0.930 . S
H513 C461 0.929 . S
H514 C466 0.929 . S
H515 C467 0.930 . S
H516 C474 0.929 1_455 S
H517 C475 0.930 . S
H518 C476 0.930 . S
H519 C477 0.930 . S
H520 C479 0.929 . S
H521 C480 0.930 . S
H522 C481 0.930 . S
H523 C482 0.930 1_554 S
H524 C486 0.929 . S
H525 C488 0.930 . S
H526 C494 0.929 . S
H527 C495 0.930 . S
Li528 N545 1.990 . S
Li528 O588 1.956 . S
Li528 O589 1.970 1_455 S
Li528 O590 1.961 . S
Li529 N553 1.990 . S
Li529 O588 1.970 1_655 S
Li529 O589 1.956 . S
Li529 O591 1.961 . S
Li530 N575 1.990 . S
Li530 O588 1.961 . S
Li530 O590 1.956 . S
Li530 O591 1.970 1_455 S
Li531 N581 1.990 . S
Li531 O589 1.961 . S
Li531 O590 1.970 1_655 S
Li531 O591 1.956 . S
C532 C534 1.348 . S
C532 C535 1.356 . S
C532 O588 1.325 . S
N533 C536 1.314 . S
N533 C537 1.279 . S
C534 C532 1.348 . S
C534 C536 1.353 . S
C534 H592 0.929 1_455 S
C535 C532 1.356 . S
C535 C537 1.358 . S
C535 H593 0.930 . S
C536 N533 1.314 . S
C536 C534 1.353 . S
C536 H594 0.930 . S
C537 N533 1.279 . S
C537 C535 1.358 . S
C537 H595 0.930 . S
C538 C541 1.348 1_655 S
C538 C542 1.356 . S
C538 O589 1.325 . S
C539 N540 1.279 . S
C539 C542 1.358 . S
C539 H596 0.930 . S
N540 C539 1.279 . S
N540 C543 1.314 1_655 S
C541 C538 1.348 1_455 S
C541 C543 1.353 . S
C541 H597 0.929 . S
C542 C538 1.356 . S
C542 C539 1.358 . S
C542 H598 0.930 . S
C543 N540 1.314 1_455 S
C543 C541 1.353 . S
C543 H599 0.930 . S
C544 N545 1.314 . S
C544 C549 1.353 . S
C544 H550 0.930 . S
N545 Li528 1.990 . S
N545 C544 1.314 . S
N545 C547 1.279 . S
C546 C547 1.358 . S
C546 C548 1.356 . S
C546 H600 0.930 . S
C547 N545 1.279 . S
C547 C546 1.358 . S
C547 H551 0.930 . S
C548 C546 1.356 . S
C548 C549 1.348 . S
C549 C544 1.353 . S
C549 C548 1.348 . S
C549 H601 0.929 . S
H550 C544 0.930 . S
H551 C547 0.930 . S
C552 N553 1.314 . S
C552 C554 1.353 . S
C552 H558 0.930 . S
N553 Li529 1.990 . S
N553 C552 1.314 . S
N553 C556 1.279 . S
C554 C552 1.353 . S
C554 C557 1.348 . S
C554 H602 0.929 . S
C555 C556 1.358 . S
C555 C557 1.356 . S
C555 H603 0.930 . S
C556 N553 1.279 . S
C556 C555 1.358 . S
C556 H559 0.930 . S
C557 C554 1.348 . S
C557 C555 1.356 . S
H558 C552 0.930 . S
H559 C556 0.930 . S
C560 C562 1.348 . S
C560 C563 1.356 . S
C560 O590 1.325 . S
N561 C564 1.314 . S
N561 C565 1.279 . S
C562 C560 1.348 . S
C562 C564 1.353 . S
C562 H604 0.929 . S
C563 C560 1.356 . S
C563 C565 1.358 . S
C563 H605 0.930 . S
C564 N561 1.314 . S
C564 C562 1.353 . S
C564 H606 0.930 . S
C565 N561 1.279 . S
C565 C563 1.358 . S
C565 H607 0.930 . S
C566 C567 1.348 . S
C566 C568 1.356 . S
C566 O591 1.325 . S
C567 C566 1.348 . S
C567 C569 1.353 . S
C567 H608 0.929 . S
C568 C566 1.356 . S
C568 C570 1.358 . S
C568 H609 0.930 . S
C569 C567 1.353 . S
C569 N571 1.314 . S
C569 H610 0.930 . S
C570 C568 1.358 . S
C570 N571 1.279 . S
C570 H611 0.930 . S
N571 C569 1.314 . S
N571 C570 1.279 . S
C572 C574 1.353 . S
C572 N575 1.314 1_655 S
C572 H578 0.930 . S
C573 N575 1.279 . S
C573 C576 1.358 . S
C573 H579 0.930 . S
C574 C572 1.353 . S
C574 C577 1.348 1_655 S
C574 H612 0.929 . S
N575 Li530 1.990 . S
N575 C572 1.314 1_455 S
N575 C573 1.279 . S
C576 C573 1.358 . S
C576 C577 1.356 . S
C576 H613 0.930 . S
C577 C574 1.348 1_455 S
C577 C576 1.356 . S
H578 C572 0.930 . S
H579 C573 0.930 . S
C580 N581 1.314 . S
C580 C582 1.353 . S
C580 H586 0.930 1_655 S
N581 Li531 1.990 . S
N581 C580 1.314 . S
N581 C584 1.279 . S
C582 C580 1.353 . S
C582 C585 1.348 . S
C582 H614 0.929 . S
C583 C584 1.358 . S
C583 C585 1.356 . S
C583 H615 0.930 . S
C584 N581 1.279 . S
C584 C583 1.358 . S
C584 H587 0.930 . S
C585 C582 1.348 . S
C585 C583 1.356 . S
H586 C580 0.930 1_455 S
H587 C584 0.930 . S
O588 Li528 1.956 . S
O588 Li529 1.970 1_455 S
O588 Li530 1.961 . S
O588 C532 1.325 . S
O589 Li528 1.970 1_655 S
O589 Li529 1.956 . S
O589 Li531 1.961 . S
O589 C538 1.325 . S
O590 Li528 1.961 . S
O590 Li530 1.956 . S
O590 Li531 1.970 1_455 S
O590 C560 1.325 . S
O591 Li529 1.961 . S
O591 Li530 1.970 1_655 S
O591 Li531 1.956 . S
O591 C566 1.325 . S
H592 C534 0.929 1_655 S
H593 C535 0.930 . S
H594 C536 0.930 . S
H595 C537 0.930 . S
H596 C539 0.930 . S
H597 C541 0.929 . S
H598 C542 0.930 . S
H599 C543 0.930 . S
H600 C546 0.930 . S
H601 C549 0.929 . S
H602 C554 0.929 . S
H603 C555 0.930 . S
H604 C562 0.929 . S
H605 C563 0.930 . S
H606 C564 0.930 . S
H607 C565 0.930 . S
H608 C567 0.929 . S
H609 C568 0.930 . S
H610 C569 0.930 . S
H611 C570 0.930 . S
H612 C574 0.929 . S
H613 C576 0.930 . S
H614 C582 0.929 . S
H615 C583 0.930 . S
Li616 N633 1.990 . S
Li616 O676 1.956 . S
Li616 O677 1.970 1_545 S
Li616 O678 1.961 . S
Li617 N641 1.990 . S
Li617 O676 1.970 1_565 S
Li617 O677 1.956 . S
Li617 O679 1.961 . S
Li618 N663 1.990 . S
Li618 O676 1.961 . S
Li618 O678 1.956 . S
Li618 O679 1.970 1_545 S
Li619 N669 1.990 . S
Li619 O677 1.961 . S
Li619 O678 1.970 1_565 S
Li619 O679 1.956 . S
C620 C622 1.348 . S
C620 C623 1.356 . S
C620 O676 1.325 . S
N621 C624 1.314 . S
N621 C625 1.279 . S
C622 C620 1.348 . S
C622 C624 1.353 . S
C622 H680 0.929 1_545 S
C623 C620 1.356 . S
C623 C625 1.358 . S
C623 H681 0.930 . S
C624 N621 1.314 . S
C624 C622 1.353 . S
C624 H682 0.930 . S
C625 N621 1.279 . S
C625 C623 1.358 . S
C625 H683 0.930 . S
C626 C629 1.348 1_565 S
C626 C630 1.356 . S
C626 O677 1.325 . S
C627 N628 1.279 . S
C627 C630 1.358 . S
C627 H684 0.930 . S
N628 C627 1.279 . S
N628 C631 1.314 1_565 S
C629 C626 1.348 1_545 S
C629 C631 1.353 . S
C629 H685 0.929 . S
C630 C626 1.356 . S
C630 C627 1.358 . S
C630 H686 0.930 . S
C631 N628 1.314 1_545 S
C631 C629 1.353 . S
C631 H687 0.930 . S
C632 N633 1.314 . S
C632 C637 1.353 . S
C632 H638 0.930 . S
N633 Li616 1.990 . S
N633 C632 1.314 . S
N633 C635 1.279 . S
C634 C635 1.358 . S
C634 C636 1.356 . S
C634 H688 0.930 . S
C635 N633 1.279 . S
C635 C634 1.358 . S
C635 H639 0.930 . S
C636 C634 1.356 . S
C636 C637 1.348 . S
C637 C632 1.353 . S
C637 C636 1.348 . S
C637 H689 0.929 . S
H638 C632 0.930 . S
H639 C635 0.930 . S
C640 N641 1.314 . S
C640 C642 1.353 . S
C640 H646 0.930 . S
N641 Li617 1.990 . S
N641 C640 1.314 . S
N641 C644 1.279 . S
C642 C640 1.353 . S
C642 C645 1.348 . S
C642 H690 0.929 . S
C643 C644 1.358 . S
C643 C645 1.356 . S
C643 H691 0.930 . S
C644 N641 1.279 . S
C644 C643 1.358 . S
C644 H647 0.930 . S
C645 C642 1.348 . S
C645 C643 1.356 . S
H646 C640 0.930 . S
H647 C644 0.930 . S
C648 C650 1.348 . S
C648 C651 1.356 . S
C648 O678 1.325 . S
N649 C652 1.314 . S
N649 C653 1.279 . S
C650 C648 1.348 . S
C650 C652 1.353 . S
C650 H692 0.929 . S
C651 C648 1.356 . S
C651 C653 1.358 . S
C651 H693 0.930 . S
C652 N649 1.314 . S
C652 C650 1.353 . S
C652 H694 0.930 . S
C653 N649 1.279 . S
C653 C651 1.358 . S
C653 H695 0.930 . S
C654 C655 1.348 . S
C654 C656 1.356 . S
C654 O679 1.325 . S
C655 C654 1.348 . S
C655 C657 1.353 . S
C655 H696 0.929 . S
C656 C654 1.356 . S
C656 C658 1.358 . S
C656 H697 0.930 . S
C657 C655 1.353 . S
C657 N659 1.314 . S
C657 H698 0.930 . S
C658 C656 1.358 . S
C658 N659 1.279 . S
C658 H699 0.930 . S
N659 C657 1.314 . S
N659 C658 1.279 . S
C660 C662 1.353 . S
C660 N663 1.314 1_565 S
C660 H666 0.930 . S
C661 N663 1.279 . S
C661 C664 1.358 . S
C661 H667 0.930 . S
C662 C660 1.353 . S
C662 C665 1.348 1_565 S
C662 H700 0.929 . S
N663 Li618 1.990 . S
N663 C660 1.314 1_545 S
N663 C661 1.279 . S
C664 C661 1.358 . S
C664 C665 1.356 . S
C664 H701 0.930 . S
C665 C662 1.348 1_545 S
C665 C664 1.356 . S
H666 C660 0.930 . S
H667 C661 0.930 . S
C668 N669 1.314 . S
C668 C670 1.353 . S
C668 H674 0.930 1_565 S
N669 Li619 1.990 . S
N669 C668 1.314 . S
N669 C672 1.279 . S
C670 C668 1.353 . S
C670 C673 1.348 . S
C670 H702 0.929 . S
C671 C672 1.358 . S
C671 C673 1.356 . S
C671 H703 0.930 . S
C672 N669 1.279 . S
C672 C671 1.358 . S
C672 H675 0.930 . S
C673 C670 1.348 . S
C673 C671 1.356 . S
H674 C668 0.930 1_545 S
H675 C672 0.930 . S
O676 Li616 1.956 . S
O676 Li617 1.970 1_545 S
O676 Li618 1.961 . S
O676 C620 1.325 . S
O677 Li616 1.970 1_565 S
O677 Li617 1.956 . S
O677 Li619 1.961 . S
O677 C626 1.325 . S
O678 Li616 1.961 . S
O678 Li618 1.956 . S
O678 Li619 1.970 1_545 S
O678 C648 1.325 . S
O679 Li617 1.961 . S
O679 Li618 1.970 1_565 S
O679 Li619 1.956 . S
O679 C654 1.325 . S
H680 C622 0.929 1_565 S
H681 C623 0.930 . S
H682 C624 0.930 . S
H683 C625 0.930 . S
H684 C627 0.930 . S
H685 C629 0.929 . S
H686 C630 0.930 . S
H687 C631 0.930 . S
H688 C634 0.930 . S
H689 C637 0.929 . S
H690 C642 0.929 . S
H691 C643 0.930 . S
H692 C650 0.929 . S
H693 C651 0.930 . S
H694 C652 0.930 . S
H695 C653 0.930 . S
H696 C655 0.929 . S
H697 C656 0.930 . S
H698 C657 0.930 . S
H699 C658 0.930 . S
H700 C662 0.929 . S
H701 C664 0.930 . S
H702 C670 0.929 . S
H703 C671 0.930 . S
Li704 N721 1.990 . S
Li704 O764 1.956 . S
Li704 O765 1.970 . S
Li704 O766 1.961 . S
Li705 N729 1.990 . S
Li705 O764 1.970 . S
Li705 O765 1.956 . S
Li705 O767 1.961 . S
Li706 N751 1.990 . S
Li706 O764 1.961 . S
Li706 O766 1.956 . S
Li706 O767 1.970 . S
Li707 N757 1.990 1_554 S
Li707 O765 1.961 . S
Li707 O766 1.970 . S
Li707 O767 1.956 . S
C708 C710 1.348 . S
C708 C711 1.356 . S
C708 O764 1.325 . S
N709 C712 1.314 . S
N709 C713 1.279 . S
C710 C708 1.348 . S
C710 C712 1.353 . S
C710 H768 0.929 . S
C711 C708 1.356 . S
C711 C713 1.358 . S
C711 H769 0.930 . S
C712 N709 1.314 . S
C712 C710 1.353 . S
C712 H770 0.930 . S
C713 N709 1.279 . S
C713 C711 1.358 . S
C713 H771 0.930 . S
C714 C717 1.348 . S
C714 C718 1.356 . S
C714 O765 1.325 . S
C715 N716 1.279 . S
C715 C718 1.358 . S
C715 H772 0.930 1_554 S
N716 C715 1.279 . S
N716 C719 1.314 . S
C717 C714 1.348 . S
C717 C719 1.353 . S
C717 H773 0.929 . S
C718 C714 1.356 . S
C718 C715 1.358 . S
C718 H774 0.930 . S
C719 N716 1.314 . S
C719 C717 1.353 . S
C719 H775 0.930 . S
C720 N721 1.314 . S
C720 C725 1.353 . S
C720 H726 0.930 . S
N721 Li704 1.990 . S
N721 C720 1.314 . S
N721 C723 1.279 . S
C722 C723 1.358 . S
C722 C724 1.356 . S
C722 H776 0.930 . S
C723 N721 1.279 . S
C723 C722 1.358 . S
C723 H727 0.930 . S
C724 C722 1.356 . S
C724 C725 1.348 . S
C725 C720 1.353 . S
C725 C724 1.348 . S
C725 H777 0.929 . S
H726 C720 0.930 . S
H727 C723 0.930 . S
C728 N729 1.314 . S
C728 C730 1.353 . S
C728 H734 0.930 . S
N729 Li705 1.990 . S
N729 C728 1.314 . S
N729 C732 1.279 . S
C730 C728 1.353 . S
C730 C733 1.348 . S
C730 H778 0.929 . S
C731 C732 1.358 . S
C731 C733 1.356 . S
C731 H779 0.930 . S
C732 N729 1.279 . S
C732 C731 1.358 . S
C732 H735 0.930 . S
C733 C730 1.348 . S
C733 C731 1.356 . S
H734 C728 0.930 . S
H735 C732 0.930 . S
C736 C738 1.348 1_554 S
C736 C739 1.356 . S
C736 O766 1.325 . S
N737 C740 1.314 . S
N737 C741 1.279 1_556 S
C738 C736 1.348 1_556 S
C738 C740 1.353 . S
C738 H780 0.929 . S
C739 C736 1.356 . S
C739 C741 1.358 . S
C739 H781 0.930 . S
C740 N737 1.314 . S
C740 C738 1.353 . S
C740 H782 0.930 . S
C741 N737 1.279 1_554 S
C741 C739 1.358 . S
C741 H783 0.930 . S
C742 C743 1.348 . S
C742 C744 1.356 . S
C742 O767 1.325 . S
C743 C742 1.348 . S
C743 C745 1.353 . S
C743 H784 0.929 . S
C744 C742 1.356 . S
C744 C746 1.358 . S
C744 H785 0.930 . S
C745 C743 1.353 . S
C745 N747 1.314 . S
C745 H786 0.930 . S
C746 C744 1.358 . S
C746 N747 1.279 . S
C746 H787 0.930 . S
N747 C745 1.314 . S
N747 C746 1.279 . S
C748 C750 1.353 . S
C748 N751 1.314 . S
C748 H754 0.930 . S
C749 N751 1.279 . S
C749 C752 1.358 . S
C749 H755 0.930 . S
C750 C748 1.353 . S
C750 C753 1.348 . S
C750 H788 0.929 . S
N751 Li706 1.990 . S
N751 C748 1.314 . S
N751 C749 1.279 . S
C752 C749 1.358 . S
C752 C753 1.356 . S
C752 H789 0.930 . S
C753 C750 1.348 . S
C753 C752 1.356 . S
H754 C748 0.930 . S
H755 C749 0.930 . S
C756 N757 1.314 . S
C756 C758 1.353 . S
C756 H762 0.930 . S
N757 Li707 1.990 1_556 S
N757 C756 1.314 . S
N757 C760 1.279 . S
C758 C756 1.353 . S
C758 C761 1.348 . S
C758 H790 0.929 . S
C759 C760 1.358 . S
C759 C761 1.356 . S
C759 H791 0.930 . S
C760 N757 1.279 . S
C760 C759 1.358 . S
C760 H763 0.930 . S
C761 C758 1.348 . S
C761 C759 1.356 . S
H762 C756 0.930 . S
H763 C760 0.930 . S
O764 Li704 1.956 . S
O764 Li705 1.970 . S
O764 Li706 1.961 . S
O764 C708 1.325 . S
O765 Li704 1.970 . S
O765 Li705 1.956 . S
O765 Li707 1.961 . S
O765 C714 1.325 . S
O766 Li704 1.961 . S
O766 Li706 1.956 . S
O766 Li707 1.970 . S
O766 C736 1.325 . S
O767 Li705 1.961 . S
O767 Li706 1.970 . S
O767 Li707 1.956 . S
O767 C742 1.325 . S
H768 C710 0.929 . S
H769 C711 0.930 . S
H770 C712 0.930 . S
H771 C713 0.930 . S
H772 C715 0.930 1_556 S
H773 C717 0.929 . S
H774 C718 0.930 . S
H775 C719 0.930 . S
H776 C722 0.930 . S
H777 C725 0.929 . S
H778 C730 0.929 . S
H779 C731 0.930 . S
H780 C738 0.929 . S
H781 C739 0.930 . S
H782 C740 0.930 . S
H783 C741 0.930 . S
H784 C743 0.929 . S
H785 C744 0.930 . S
H786 C745 0.930 . S
H787 C746 0.930 . S
H788 C750 0.929 . S
H789 C752 0.930 . S
H790 C758 0.929 . S
H791 C759 0.930 . S
Li792 N809 1.990 . S
Li792 O852 1.956 . S
Li792 O853 1.970 1_455 S
Li792 O854 1.961 . S
Li793 N817 1.990 . S
Li793 O852 1.970 1_655 S
Li793 O853 1.956 . S
Li793 O855 1.961 . S
Li794 N839 1.990 . S
Li794 O852 1.961 . S
Li794 O854 1.956 . S
Li794 O855 1.970 1_455 S
Li795 N845 1.990 . S
Li795 O853 1.961 . S
Li795 O854 1.970 1_655 S
Li795 O855 1.956 . S
C796 C798 1.348 1_455 S
C796 C799 1.356 . S
C796 O852 1.325 . S
N797 C800 1.314 1_455 S
N797 C801 1.279 . S
C798 C796 1.348 1_655 S
C798 C800 1.353 . S
C798 H856 0.929 . S
C799 C796 1.356 . S
C799 C801 1.358 . S
C799 H857 0.930 . S
C800 N797 1.314 1_655 S
C800 C798 1.353 . S
C800 H858 0.930 . S
C801 N797 1.279 . S
C801 C799 1.358 . S
C801 H859 0.930 . S
C802 C805 1.348 . S
C802 C806 1.356 . S
C802 O853 1.325 . S
C803 N804 1.279 . S
C803 C806 1.358 . S
C803 H860 0.930 . S
N804 C803 1.279 . S
N804 C807 1.314 . S
C805 C802 1.348 . S
C805 C807 1.353 . S
C805 H861 0.929 1_655 S
C806 C802 1.356 . S
C806 C803 1.358 . S
C806 H862 0.930 . S
C807 N804 1.314 . S
C807 C805 1.353 . S
C807 H863 0.930 . S
C808 N809 1.314 . S
C808 C813 1.353 . S
C808 H814 0.930 . S
N809 Li792 1.990 . S
N809 C808 1.314 . S
N809 C811 1.279 . S
C810 C811 1.358 . S
C810 C812 1.356 . S
C810 H864 0.930 . S
C811 N809 1.279 . S
C811 C810 1.358 . S
C811 H815 0.930 . S
C812 C810 1.356 . S
C812 C813 1.348 . S
C813 C808 1.353 . S
C813 C812 1.348 . S
C813 H865 0.929 . S
H814 C808 0.930 . S
H815 C811 0.930 . S
C816 N817 1.314 . S
C816 C818 1.353 . S
C816 H822 0.930 . S
N817 Li793 1.990 . S
N817 C816 1.314 . S
N817 C820 1.279 . S
C818 C816 1.353 . S
C818 C821 1.348 . S
C818 H866 0.929 . S
C819 C820 1.358 . S
C819 C821 1.356 . S
C819 H867 0.930 . S
C820 N817 1.279 . S
C820 C819 1.358 . S
C820 H823 0.930 . S
C821 C818 1.348 . S
C821 C819 1.356 . S
H822 C816 0.930 . S
H823 C820 0.930 . S
C824 C826 1.348 . S
C824 C827 1.356 . S
C824 O854 1.325 . S
N825 C828 1.314 . S
N825 C829 1.279 . S
C826 C824 1.348 . S
C826 C828 1.353 . S
C826 H868 0.929 . S
C827 C824 1.356 . S
C827 C829 1.358 . S
C827 H869 0.930 . S
C828 N825 1.314 . S
C828 C826 1.353 . S
C828 H870 0.930 . S
C829 N825 1.279 . S
C829 C827 1.358 . S
C829 H871 0.930 . S
C830 C831 1.348 . S
C830 C832 1.356 . S
C830 O855 1.325 . S
C831 C830 1.348 . S
C831 C833 1.353 . S
C831 H872 0.929 . S
C832 C830 1.356 . S
C832 C834 1.358 . S
C832 H873 0.930 . S
C833 C831 1.353 . S
C833 N835 1.314 . S
C833 H874 0.930 . S
C834 C832 1.358 . S
C834 N835 1.279 . S
C834 H875 0.930 . S
N835 C833 1.314 . S
N835 C834 1.279 . S
C836 C838 1.353 . S
C836 N839 1.314 . S
C836 H842 0.930 1_455 S
C837 N839 1.279 . S
C837 C840 1.358 . S
C837 H843 0.930 . S
C838 C836 1.353 . S
C838 C841 1.348 . S
C838 H876 0.929 . S
N839 Li794 1.990 . S
N839 C836 1.314 . S
N839 C837 1.279 . S
C840 C837 1.358 . S
C840 C841 1.356 . S
C840 H877 0.930 . S
C841 C838 1.348 . S
C841 C840 1.356 . S
H842 C836 0.930 1_655 S
H843 C837 0.930 . S
C844 N845 1.314 1_455 S
C844 C846 1.353 . S
C844 H850 0.930 . S
N845 Li795 1.990 . S
N845 C844 1.314 1_655 S
N845 C848 1.279 . S
C846 C844 1.353 . S
C846 C849 1.348 1_455 S
C846 H878 0.929 . S
C847 C848 1.358 . S
C847 C849 1.356 . S
C847 H879 0.930 . S
C848 N845 1.279 . S
C848 C847 1.358 . S
C848 H851 0.930 . S
C849 C846 1.348 1_655 S
C849 C847 1.356 . S
H850 C844 0.930 . S
H851 C848 0.930 . S
O852 Li792 1.956 . S
O852 Li793 1.970 1_455 S
O852 Li794 1.961 . S
O852 C796 1.325 . S
O853 Li792 1.970 1_655 S
O853 Li793 1.956 . S
O853 Li795 1.961 . S
O853 C802 1.325 . S
O854 Li792 1.961 . S
O854 Li794 1.956 . S
O854 Li795 1.970 1_455 S
O854 C824 1.325 . S
O855 Li793 1.961 . S
O855 Li794 1.970 1_655 S
O855 Li795 1.956 . S
O855 C830 1.325 . S
H856 C798 0.929 . S
H857 C799 0.930 . S
H858 C800 0.930 . S
H859 C801 0.930 . S
H860 C803 0.930 . S
H861 C805 0.929 1_455 S
H862 C806 0.930 . S
H863 C807 0.930 . S
H864 C810 0.930 . S
H865 C813 0.929 . S
H866 C818 0.929 . S
H867 C819 0.930 . S
H868 C826 0.929 . S
H869 C827 0.930 . S
H870 C828 0.930 . S
H871 C829 0.930 . S
H872 C831 0.929 . S
H873 C832 0.930 . S
H874 C833 0.930 . S
H875 C834 0.930 . S
H876 C838 0.929 . S
H877 C840 0.930 . S
H878 C846 0.929 . S
H879 C847 0.930 . S
Li880 N897 1.990 . S
Li880 O940 1.956 . S
Li880 O941 1.970 1_545 S
Li880 O942 1.961 . S
Li881 N905 1.990 . S
Li881 O940 1.970 1_565 S
Li881 O941 1.956 . S
Li881 O943 1.961 . S
Li882 N927 1.990 . S
Li882 O940 1.961 . S
Li882 O942 1.956 . S
Li882 O943 1.970 1_545 S
Li883 N933 1.990 . S
Li883 O941 1.961 . S
Li883 O942 1.970 1_565 S
Li883 O943 1.956 . S
C884 C886 1.348 1_545 S
C884 C887 1.356 . S
C884 O940 1.325 . S
N885 C888 1.314 1_545 S
N885 C889 1.279 . S
C886 C884 1.348 1_565 S
C886 C888 1.353 . S
C886 H944 0.929 . S
C887 C884 1.356 . S
C887 C889 1.358 . S
C887 H945 0.930 . S
C888 N885 1.314 1_565 S
C888 C886 1.353 . S
C888 H946 0.930 . S
C889 N885 1.279 . S
C889 C887 1.358 . S
C889 H947 0.930 . S
C890 C893 1.348 . S
C890 C894 1.356 . S
C890 O941 1.325 . S
C891 N892 1.279 . S
C891 C894 1.358 . S
C891 H948 0.930 . S
N892 C891 1.279 . S
N892 C895 1.314 . S
C893 C890 1.348 . S
C893 C895 1.353 . S
C893 H949 0.929 1_565 S
C894 C890 1.356 . S
C894 C891 1.358 . S
C894 H950 0.930 . S
C895 N892 1.314 . S
C895 C893 1.353 . S
C895 H951 0.930 . S
C896 N897 1.314 . S
C896 C901 1.353 . S
C896 H902 0.930 . S
N897 Li880 1.990 . S
N897 C896 1.314 . S
N897 C899 1.279 . S
C898 C899 1.358 . S
C898 C900 1.356 . S
C898 H952 0.930 . S
C899 N897 1.279 . S
C899 C898 1.358 . S
C899 H903 0.930 . S
C900 C898 1.356 . S
C900 C901 1.348 . S
C901 C896 1.353 . S
C901 C900 1.348 . S
C901 H953 0.929 . S
H902 C896 0.930 . S
H903 C899 0.930 . S
C904 N905 1.314 . S
C904 C906 1.353 . S
C904 H910 0.930 . S
N905 Li881 1.990 . S
N905 C904 1.314 . S
N905 C908 1.279 . S
C906 C904 1.353 . S
C906 C909 1.348 . S
C906 H954 0.929 . S
C907 C908 1.358 . S
C907 C909 1.356 . S
C907 H955 0.930 . S
C908 N905 1.279 . S
C908 C907 1.358 . S
C908 H911 0.930 . S
C909 C906 1.348 . S
C909 C907 1.356 . S
H910 C904 0.930 . S
H911 C908 0.930 . S
C912 C914 1.348 . S
C912 C915 1.356 . S
C912 O942 1.325 . S
N913 C916 1.314 . S
N913 C917 1.279 . S
C914 C912 1.348 . S
C914 C916 1.353 . S
C914 H956 0.929 . S
C915 C912 1.356 . S
C915 C917 1.358 . S
C915 H957 0.930 . S
C916 N913 1.314 . S
C916 C914 1.353 . S
C916 H958 0.930 . S
C917 N913 1.279 . S
C917 C915 1.358 . S
C917 H959 0.930 . S
C918 C919 1.348 . S
C918 C920 1.356 . S
C918 O943 1.325 . S
C919 C918 1.348 . S
C919 C921 1.353 . S
C919 H960 0.929 . S
C920 C918 1.356 . S
C920 C922 1.358 . S
C920 H961 0.930 . S
C921 C919 1.353 . S
C921 N923 1.314 . S
C921 H962 0.930 . S
C922 C920 1.358 . S
C922 N923 1.279 . S
C922 H963 0.930 . S
N923 C921 1.314 . S
N923 C922 1.279 . S
C924 C926 1.353 . S
C924 N927 1.314 . S
C924 H930 0.930 1_545 S
C925 N927 1.279 . S
C925 C928 1.358 . S
C925 H931 0.930 . S
C926 C924 1.353 . S
C926 C929 1.348 . S
C926 H964 0.929 . S
N927 Li882 1.990 . S
N927 C924 1.314 . S
N927 C925 1.279 . S
C928 C925 1.358 . S
C928 C929 1.356 . S
C928 H965 0.930 . S
C929 C926 1.348 . S
C929 C928 1.356 . S
H930 C924 0.930 1_565 S
H931 C925 0.930 . S
C932 N933 1.314 1_545 S
C932 C934 1.353 . S
C932 H938 0.930 . S
N933 Li883 1.990 . S
N933 C932 1.314 1_565 S
N933 C936 1.279 . S
C934 C932 1.353 . S
C934 C937 1.348 1_545 S
C934 H966 0.929 . S
C935 C936 1.358 . S
C935 C937 1.356 . S
C935 H967 0.930 . S
C936 N933 1.279 . S
C936 C935 1.358 . S
C936 H939 0.930 . S
C937 C934 1.348 1_565 S
C937 C935 1.356 . S
H938 C932 0.930 . S
H939 C936 0.930 . S
O940 Li880 1.956 . S
O940 Li881 1.970 1_545 S
O940 Li882 1.961 . S
O940 C884 1.325 . S
O941 Li880 1.970 1_565 S
O941 Li881 1.956 . S
O941 Li883 1.961 . S
O941 C890 1.325 . S
O942 Li880 1.961 . S
O942 Li882 1.956 . S
O942 Li883 1.970 1_545 S
O942 C912 1.325 . S
O943 Li881 1.961 . S
O943 Li882 1.970 1_565 S
O943 Li883 1.956 . S
O943 C918 1.325 . S
H944 C886 0.929 . S
H945 C887 0.930 . S
H946 C888 0.930 . S
H947 C889 0.930 . S
H948 C891 0.930 . S
H949 C893 0.929 1_545 S
H950 C894 0.930 . S
H951 C895 0.930 . S
H952 C898 0.930 . S
H953 C901 0.929 . S
H954 C906 0.929 . S
H955 C907 0.930 . S
H956 C914 0.929 . S
H957 C915 0.930 . S
H958 C916 0.930 . S
H959 C917 0.930 . S
H960 C919 0.929 . S
H961 C920 0.930 . S
H962 C921 0.930 . S
H963 C922 0.930 . S
H964 C926 0.929 . S
H965 C928 0.930 . S
H966 C934 0.929 . S
H967 C935 0.930 . S
Li968 N985 1.990 . S
Li968 O1028 1.956 . S
Li968 O1029 1.970 . S
Li968 O1030 1.961 . S
Li969 N993 1.990 . S
Li969 O1028 1.970 . S
Li969 O1029 1.956 . S
Li969 O1031 1.961 . S
Li970 N1015 1.990 1_554 S
Li970 O1028 1.961 . S
Li970 O1030 1.956 . S
Li970 O1031 1.970 . S
Li971 N1021 1.990 . S
Li971 O1029 1.961 . S
Li971 O1030 1.970 . S
Li971 O1031 1.956 . S
C972 C974 1.348 . S
C972 C975 1.356 . S
C972 O1028 1.325 . S
N973 C976 1.314 . S
N973 C977 1.279 . S
C974 C972 1.348 . S
C974 C976 1.353 . S
C974 H1032 0.929 . S
C975 C972 1.356 . S
C975 C977 1.358 . S
C975 H1033 0.930 . S
C976 N973 1.314 . S
C976 C974 1.353 . S
C976 H1034 0.930 . S
C977 N973 1.279 . S
C977 C975 1.358 . S
C977 H1035 0.930 1_554 S
C978 C981 1.348 . S
C978 C982 1.356 . S
C978 O1029 1.325 . S
C979 N980 1.279 . S
C979 C982 1.358 . S
C979 H1036 0.930 . S
N980 C979 1.279 . S
N980 C983 1.314 . S
C981 C978 1.348 . S
C981 C983 1.353 . S
C981 H1037 0.929 . S
C982 C978 1.356 . S
C982 C979 1.358 . S
C982 H1038 0.930 . S
C983 N980 1.314 . S
C983 C981 1.353 . S
C983 H1039 0.930 . S
C984 N985 1.314 . S
C984 C989 1.353 . S
C984 H990 0.930 . S
N985 Li968 1.990 . S
N985 C984 1.314 . S
N985 C987 1.279 . S
C986 C987 1.358 . S
C986 C988 1.356 . S
C986 H1040 0.930 . S
C987 N985 1.279 . S
C987 C986 1.358 . S
C987 H991 0.930 . S
C988 C986 1.356 . S
C988 C989 1.348 . S
C989 C984 1.353 . S
C989 C988 1.348 . S
C989 H1041 0.929 . S
H990 C984 0.930 . S
H991 C987 0.930 . S
C992 N993 1.314 . S
C992 C994 1.353 . S
C992 H998 0.930 . S
N993 Li969 1.990 . S
N993 C992 1.314 . S
N993 C996 1.279 . S
C994 C992 1.353 . S
C994 C997 1.348 . S
C994 H1042 0.929 . S
C995 C996 1.358 . S
C995 C997 1.356 . S
C995 H1043 0.930 . S
C996 N993 1.279 . S
C996 C995 1.358 . S
C996 H999 0.930 . S
C997 C994 1.348 . S
C997 C995 1.356 . S
H998 C992 0.930 . S
H999 C996 0.930 . S
C1000 C1002 1.348 . S
C1000 C1003 1.356 . S
C1000 O1030 1.325 . S
N1001 C1004 1.314 . S
N1001 C1005 1.279 . S
C1002 C1000 1.348 . S
C1002 C1004 1.353 . S
C1002 H1044 0.929 . S
C1003 C1000 1.356 . S
C1003 C1005 1.358 . S
C1003 H1045 0.930 . S
C1004 N1001 1.314 . S
C1004 C1002 1.353 . S
C1004 H1046 0.930 . S
C1005 N1001 1.279 . S
C1005 C1003 1.358 . S
C1005 H1047 0.930 . S
C1006 C1007 1.348 1_554 S
C1006 C1008 1.356 . S
C1006 O1031 1.325 . S
C1007 C1006 1.348 1_556 S
C1007 C1009 1.353 . S
C1007 H1048 0.929 . S
C1008 C1006 1.356 . S
C1008 C1010 1.358 . S
C1008 H1049 0.930 . S
C1009 C1007 1.353 . S
C1009 N1011 1.314 . S
C1009 H1050 0.930 . S
C1010 C1008 1.358 . S
C1010 N1011 1.279 1_554 S
C1010 H1051 0.930 . S
N1011 C1009 1.314 . S
N1011 C1010 1.279 1_556 S
C1012 C1014 1.353 . S
C1012 N1015 1.314 . S
C1012 H1018 0.930 . S
C1013 N1015 1.279 . S
C1013 C1016 1.358 . S
C1013 H1019 0.930 . S
C1014 C1012 1.353 . S
C1014 C1017 1.348 . S
C1014 H1052 0.929 . S
N1015 Li970 1.990 1_556 S
N1015 C1012 1.314 . S
N1015 C1013 1.279 . S
C1016 C1013 1.358 . S
C1016 C1017 1.356 . S
C1016 H1053 0.930 . S
C1017 C1014 1.348 . S
C1017 C1016 1.356 . S
H1018 C1012 0.930 . S
H1019 C1013 0.930 . S
C1020 N1021 1.314 . S
C1020 C1022 1.353 . S
C1020 H1026 0.930 . S
N1021 Li971 1.990 . S
N1021 C1020 1.314 . S
N1021 C1024 1.279 . S
C1022 C1020 1.353 . S
C1022 C1025 1.348 . S
C1022 H1054 0.929 . S
C1023 C1024 1.358 . S
C1023 C1025 1.356 . S
C1023 H1055 0.930 . S
C1024 N1021 1.279 . S
C1024 C1023 1.358 . S
C1024 H1027 0.930 . S
C1025 C1022 1.348 . S
C1025 C1023 1.356 . S
H1026 C1020 0.930 . S
H1027 C1024 0.930 . S
O1028 Li968 1.956 . S
O1028 Li969 1.970 . S
O1028 Li970 1.961 . S
O1028 C972 1.325 . S
O1029 Li968 1.970 . S
O1029 Li969 1.956 . S
O1029 Li971 1.961 . S
O1029 C978 1.325 . S
O1030 Li968 1.961 . S
O1030 Li970 1.956 . S
O1030 Li971 1.970 . S
O1030 C1000 1.325 . S
O1031 Li969 1.961 . S
O1031 Li970 1.970 . S
O1031 Li971 1.956 . S
O1031 C1006 1.325 . S
H1032 C974 0.929 . S
H1033 C975 0.930 . S
H1034 C976 0.930 . S
H1035 C977 0.930 1_556 S
H1036 C979 0.930 . S
H1037 C981 0.929 . S
H1038 C982 0.930 . S
H1039 C983 0.930 . S
H1040 C986 0.930 . S
H1041 C989 0.929 . S
H1042 C994 0.929 . S
H1043 C995 0.930 . S
H1044 C1002 0.929 . S
H1045 C1003 0.930 . S
H1046 C1004 0.930 . S
H1047 C1005 0.930 . S
H1048 C1007 0.929 . S
H1049 C1008 0.930 . S
H1050 C1009 0.930 . S
H1051 C1010 0.930 . S
H1052 C1014 0.929 . S
H1053 C1016 0.930 . S
H1054 C1022 0.929 . S
H1055 C1023 0.930 . S
H1056 C1062 0.930 . S
H1057 C1066 0.930 . S
H1058 C1071 0.929 . S
H1059 C1069 0.929 . S
H1060 C1064 0.929 . S
H1061 C1070 0.929 . S
C1062 H1056 0.930 . S
C1062 C1063 1.367 . S
C1062 C1070 1.378 . S
C1063 C1062 1.367 . S
C1063 C1071 1.433 . S
C1064 H1060 0.929 . S
C1064 C1066 1.378 . S
C1064 C1068 1.350 . S
C1065 C1068 1.463 . S
C1065 C1070 1.350 . S
C1065 N1073 1.427 . S
C1066 H1057 0.930 . S
C1066 C1064 1.378 . S
C1066 C1067 1.367 . S
C1067 C1066 1.367 . S
C1067 C1069 1.433 . S
C1068 C1064 1.350 . S
C1068 C1065 1.463 . S
C1068 N1072 1.427 . S
C1069 H1059 0.929 . S
C1069 C1067 1.433 . S
C1069 N1072 1.384 . S
C1070 H1061 0.929 . S
C1070 C1062 1.378 . S
C1070 C1065 1.350 . S
C1071 H1058 0.929 . S
C1071 C1063 1.433 . S
C1071 N1073 1.384 . S
N1072 C1068 1.427 . S
N1072 C1069 1.384 . S
N1073 C1065 1.427 . S
N1073 C1071 1.384 . S
H1074 C1080 0.930 . S
H1075 C1084 0.930 . S
H1076 C1089 0.929 . S
H1077 C1087 0.929 . S
H1078 C1082 0.929 . S
H1079 C1088 0.929 . S
C1080 H1074 0.930 . S
C1080 C1081 1.367 . S
C1080 C1088 1.378 . S
C1081 C1080 1.367 . S
C1081 C1089 1.433 . S
C1082 H1078 0.929 . S
C1082 C1084 1.378 . S
C1082 C1086 1.350 . S
C1083 C1086 1.463 . S
C1083 C1088 1.350 . S
C1083 N1091 1.427 . S
C1084 H1075 0.930 . S
C1084 C1082 1.378 . S
C1084 C1085 1.367 . S
C1085 C1084 1.367 . S
C1085 C1087 1.433 . S
C1086 C1082 1.350 . S
C1086 C1083 1.463 . S
C1086 N1090 1.427 . S
C1087 H1077 0.929 . S
C1087 C1085 1.433 . S
C1087 N1090 1.384 . S
C1088 H1079 0.929 . S
C1088 C1080 1.378 . S
C1088 C1083 1.350 . S
C1089 H1076 0.929 . S
C1089 C1081 1.433 . S
C1089 N1091 1.384 . S
N1090 C1086 1.427 . S
N1090 C1087 1.384 . S
N1091 C1083 1.427 . S
N1091 C1089 1.384 . S
H1092 C1098 0.930 . S
H1093 C1102 0.930 . S
H1094 C1107 0.929 . S
H1095 C1105 0.929 . S
H1096 C1100 0.929 . S
H1097 C1106 0.929 . S
C1098 H1092 0.930 . S
C1098 C1099 1.367 . S
C1098 C1106 1.378 . S
C1099 C1098 1.367 . S
C1099 C1107 1.433 . S
C1100 H1096 0.929 . S
C1100 C1102 1.378 . S
C1100 C1104 1.350 . S
C1101 C1104 1.463 . S
C1101 C1106 1.350 . S
C1101 N1109 1.427 . S
C1102 H1093 0.930 . S
C1102 C1100 1.378 . S
C1102 C1103 1.367 . S
C1103 C1102 1.367 . S
C1103 C1105 1.433 . S
C1104 C1100 1.350 . S
C1104 C1101 1.463 . S
C1104 N1108 1.427 . S
C1105 H1095 0.929 . S
C1105 C1103 1.433 . S
C1105 N1108 1.384 . S
C1106 H1097 0.929 . S
C1106 C1098 1.378 . S
C1106 C1101 1.350 . S
C1107 H1094 0.929 . S
C1107 C1099 1.433 . S
C1107 N1109 1.384 . S
N1108 C1104 1.427 . S
N1108 C1105 1.384 . S
N1109 C1101 1.427 . S
N1109 C1107 1.384 . S
H1110 C1116 0.930 . S
H1111 C1120 0.930 . S
H1112 C1125 0.929 . S
H1113 C1123 0.929 . S
H1114 C1118 0.929 . S
H1115 C1124 0.929 . S
C1116 H1110 0.930 . S
C1116 C1117 1.367 . S
C1116 C1124 1.378 . S
C1117 C1116 1.367 . S
C1117 C1125 1.433 . S
C1118 H1114 0.929 . S
C1118 C1120 1.378 . S
C1118 C1122 1.350 . S
C1119 C1122 1.463 . S
C1119 C1124 1.350 . S
C1119 N1127 1.427 . S
C1120 H1111 0.930 . S
C1120 C1118 1.378 . S
C1120 C1121 1.367 . S
C1121 C1120 1.367 . S
C1121 C1123 1.433 . S
C1122 C1118 1.350 . S
C1122 C1119 1.463 . S
C1122 N1126 1.427 . S
C1123 H1113 0.929 . S
C1123 C1121 1.433 . S
C1123 N1126 1.384 . S
C1124 H1115 0.929 . S
C1124 C1116 1.378 . S
C1124 C1119 1.350 . S
C1125 H1112 0.929 . S
C1125 C1117 1.433 . S
C1125 N1127 1.384 . S
N1126 C1122 1.427 . S
N1126 C1123 1.384 . S
N1127 C1119 1.427 . S
N1127 C1125 1.384 . S
H1128 C1134 0.930 . S
H1129 C1138 0.930 . S
H1130 C1143 0.929 . S
H1131 C1141 0.929 . S
H1132 C1136 0.929 . S
H1133 C1142 0.929 . S
C1134 H1128 0.930 . S
C1134 C1135 1.367 . S
C1134 C1142 1.378 . S
C1135 C1134 1.367 . S
C1135 C1143 1.433 . S
C1136 H1132 0.929 . S
C1136 C1138 1.378 . S
C1136 C1140 1.350 . S
C1137 C1140 1.463 . S
C1137 C1142 1.350 . S
C1137 N1145 1.427 . S
C1138 H1129 0.930 . S
C1138 C1136 1.378 . S
C1138 C1139 1.367 . S
C1139 C1138 1.367 . S
C1139 C1141 1.433 . S
C1140 C1136 1.350 . S
C1140 C1137 1.463 . S
C1140 N1144 1.427 . S
C1141 H1131 0.929 . S
C1141 C1139 1.433 . S
C1141 N1144 1.384 . S
C1142 H1133 0.929 . S
C1142 C1134 1.378 . S
C1142 C1137 1.350 . S
C1143 H1130 0.929 . S
C1143 C1135 1.433 . S
C1143 N1145 1.384 . S
N1144 C1140 1.427 . S
N1144 C1141 1.384 . S
N1145 C1137 1.427 . S
N1145 C1143 1.384 . S
H1146 C1152 0.930 . S
H1147 C1156 0.930 . S
H1148 C1161 0.929 . S
H1149 C1159 0.929 . S
H1150 C1154 0.929 . S
H1151 C1160 0.929 . S
C1152 H1146 0.930 . S
C1152 C1153 1.367 . S
C1152 C1160 1.378 . S
C1153 C1152 1.367 . S
C1153 C1161 1.433 . S
C1154 H1150 0.929 . S
C1154 C1156 1.378 . S
C1154 C1158 1.350 . S
C1155 C1158 1.463 . S
C1155 C1160 1.350 . S
C1155 N1163 1.427 . S
C1156 H1147 0.930 . S
C1156 C1154 1.378 . S
C1156 C1157 1.367 . S
C1157 C1156 1.367 . S
C1157 C1159 1.433 . S
C1158 C1154 1.350 . S
C1158 C1155 1.463 . S
C1158 N1162 1.427 . S
C1159 H1149 0.929 . S
C1159 C1157 1.433 . S
C1159 N1162 1.384 . S
C1160 H1151 0.929 . S
C1160 C1152 1.378 . S
C1160 C1155 1.350 . S
C1161 H1148 0.929 . S
C1161 C1153 1.433 . S
C1161 N1163 1.384 . S
N1162 C1158 1.427 . S
N1162 C1159 1.384 . S
N1163 C1155 1.427 . S
N1163 C1161 1.384 . S
H1164 C1170 0.930 . S
H1165 C1174 0.930 . S
H1166 C1179 0.929 . S
H1167 C1177 0.929 . S
H1168 C1172 0.929 . S
H1169 C1178 0.929 . S
C1170 H1164 0.930 . S
C1170 C1171 1.367 . S
C1170 C1178 1.378 . S
C1171 C1170 1.367 . S
C1171 C1179 1.433 1_565 S
C1172 H1168 0.929 . S
C1172 C1174 1.378 . S
C1172 C1176 1.350 . S
C1173 C1176 1.463 1_565 S
C1173 C1178 1.350 . S
C1173 N1181 1.427 1_565 S
C1174 H1165 0.930 . S
C1174 C1172 1.378 . S
C1174 C1175 1.367 . S
C1175 C1174 1.367 . S
C1175 C1177 1.433 1_545 S
C1176 C1172 1.350 . S
C1176 C1173 1.463 1_545 S
C1176 N1180 1.427 1_545 S
C1177 H1167 0.929 . S
C1177 C1175 1.433 1_565 S
C1177 N1180 1.384 . S
C1178 H1169 0.929 . S
C1178 C1170 1.378 . S
C1178 C1173 1.350 . S
C1179 H1166 0.929 . S
C1179 C1171 1.433 1_545 S
C1179 N1181 1.384 . S
N1180 C1176 1.427 1_565 S
N1180 C1177 1.384 . S
N1181 C1173 1.427 1_545 S
N1181 C1179 1.384 . S
H1182 C1188 0.930 . S
H1183 C1192 0.930 . S
H1184 C1197 0.929 . S
H1185 C1195 0.929 . S
H1186 C1190 0.929 . S
H1187 C1196 0.929 . S
C1188 H1182 0.930 . S
C1188 C1189 1.367 . S
C1188 C1196 1.378 . S
C1189 C1188 1.367 . S
C1189 C1197 1.433 . S
C1190 H1186 0.929 . S
C1190 C1192 1.378 . S
C1190 C1194 1.350 . S
C1191 C1194 1.463 . S
C1191 C1196 1.350 . S
C1191 N1199 1.427 . S
C1192 H1183 0.930 . S
C1192 C1190 1.378 . S
C1192 C1193 1.367 . S
C1193 C1192 1.367 . S
C1193 C1195 1.433 . S
C1194 C1190 1.350 . S
C1194 C1191 1.463 . S
C1194 N1198 1.427 . S
C1195 H1185 0.929 . S
C1195 C1193 1.433 . S
C1195 N1198 1.384 . S
C1196 H1187 0.929 . S
C1196 C1188 1.378 . S
C1196 C1191 1.350 . S
C1197 H1184 0.929 . S
C1197 C1189 1.433 . S
C1197 N1199 1.384 . S
N1198 C1194 1.427 . S
N1198 C1195 1.384 . S
N1199 C1191 1.427 . S
N1199 C1197 1.384 . S
H1200 C1206 0.930 . S
H1201 C1210 0.930 . S
H1202 C1215 0.929 . S
H1203 C1213 0.929 . S
H1204 C1208 0.929 . S
H1205 C1214 0.929 . S
C1206 H1200 0.930 . S
C1206 C1207 1.367 . S
C1206 C1214 1.378 . S
C1207 C1206 1.367 . S
C1207 C1215 1.433 1_655 S
C1208 H1204 0.929 . S
C1208 C1210 1.378 . S
C1208 C1212 1.350 . S
C1209 C1212 1.463 1_655 S
C1209 C1214 1.350 . S
C1209 N1217 1.427 1_655 S
C1210 H1201 0.930 . S
C1210 C1208 1.378 . S
C1210 C1211 1.367 . S
C1211 C1210 1.367 . S
C1211 C1213 1.433 1_455 S
C1212 C1208 1.350 . S
C1212 C1209 1.463 1_455 S
C1212 N1216 1.427 1_455 S
C1213 H1203 0.929 . S
C1213 C1211 1.433 1_655 S
C1213 N1216 1.384 . S
C1214 H1205 0.929 . S
C1214 C1206 1.378 . S
C1214 C1209 1.350 . S
C1215 H1202 0.929 . S
C1215 C1207 1.433 1_455 S
C1215 N1217 1.384 . S
N1216 C1212 1.427 1_655 S
N1216 C1213 1.384 . S
N1217 C1209 1.427 1_455 S
N1217 C1215 1.384 . S
H1218 C1224 0.930 . S
H1219 C1228 0.930 . S
H1220 C1233 0.929 . S
H1221 C1231 0.929 . S
H1222 C1226 0.929 . S
H1223 C1232 0.929 . S
C1224 H1218 0.930 . S
C1224 C1225 1.367 1_655 S
C1224 C1232 1.378 . S
C1225 C1224 1.367 1_455 S
C1225 C1233 1.433 . S
C1226 H1222 0.929 . S
C1226 C1228 1.378 . S
C1226 C1230 1.350 1_455 S
C1227 C1230 1.487 1_455 S
C1227 C1232 1.320 1_455 S
C1227 N1235 1.438 . S
C1228 H1219 0.930 . S
C1228 C1226 1.378 . S
C1228 C1229 1.367 1_455 S
C1229 C1228 1.367 1_655 S
C1229 C1231 1.433 . S
C1230 C1226 1.350 1_655 S
C1230 C1227 1.487 1_655 S
C1230 N1234 1.427 . S
C1231 H1221 0.929 . S
C1231 C1229 1.433 . S
C1231 N1234 1.384 . S
C1232 H1223 0.929 . S
C1232 C1224 1.378 . S
C1232 C1227 1.320 1_655 S
C1233 H1220 0.929 . S
C1233 C1225 1.433 . S
C1233 N1235 1.384 . S
N1234 C1230 1.427 . S
N1234 C1231 1.384 . S
N1235 C1227 1.438 . S
N1235 C1233 1.384 . S
H1236 C1242 0.928 . S
H1237 C1246 0.926 . S
H1238 C1251 0.929 . S
H1239 C1249 0.929 . S
H1240 C1244 0.944 . S
H1241 C1250 0.950 . S
C1242 H1236 0.928 . S
C1242 C1243 1.367 . S
C1242 C1250 1.349 1_565 S
C1243 C1242 1.367 . S
C1243 C1251 1.433 . S
C1244 H1240 0.944 . S
C1244 C1246 1.356 1_565 S
C1244 C1248 1.357 1_565 S
C1245 C1248 1.463 1_565 S
C1245 C1250 1.360 1_565 S
C1245 N1253 1.427 . S
C1246 H1237 0.926 . S
C1246 C1244 1.356 1_545 S
C1246 C1247 1.367 . S
C1247 C1246 1.367 . S
C1247 C1249 1.433 . S
C1248 C1244 1.357 1_545 S
C1248 C1245 1.463 1_545 S
C1248 N1252 1.427 . S
C1249 H1239 0.929 . S
C1249 C1247 1.433 . S
C1249 N1252 1.384 . S
C1250 H1241 0.950 . S
C1250 C1242 1.349 1_545 S
C1250 C1245 1.360 1_545 S
C1251 H1238 0.929 . S
C1251 C1243 1.433 . S
C1251 N1253 1.384 . S
N1252 C1248 1.427 . S
N1252 C1249 1.384 . S
N1253 C1245 1.427 . S
N1253 C1251 1.384 . S
H1254 C1260 0.930 . S
H1255 C1264 0.930 . S
H1256 C1269 0.929 . S
H1257 C1267 0.929 . S
H1258 C1262 0.929 . S
H1259 C1268 0.929 . S
C1260 H1254 0.930 . S
C1260 C1261 1.367 . S
C1260 C1268 1.378 . S
C1261 C1260 1.367 . S
C1261 C1269 1.433 . S
C1262 H1258 0.929 . S
C1262 C1264 1.378 . S
C1262 C1266 1.350 . S
C1263 C1266 1.463 . S
C1263 C1268 1.350 . S
C1263 N1271 1.427 . S
C1264 H1255 0.930 . S
C1264 C1262 1.378 . S
C1264 C1265 1.367 . S
C1265 C1264 1.367 . S
C1265 C1267 1.433 . S
C1266 C1262 1.350 . S
C1266 C1263 1.463 . S
C1266 N1270 1.427 . S
C1267 H1257 0.929 . S
C1267 C1265 1.433 . S
C1267 N1270 1.384 . S
C1268 H1259 0.929 . S
C1268 C1260 1.378 . S
C1268 C1263 1.350 . S
C1269 H1256 0.929 . S
C1269 C1261 1.433 . S
C1269 N1271 1.384 . S
N1270 C1266 1.427 . S
N1270 C1267 1.384 . S
N1271 C1263 1.427 . S
N1271 C1269 1.384 . S
H1272 C1278 0.930 . S
H1273 C1282 0.930 . S
H1274 C1287 0.929 . S
H1275 C1285 0.929 . S
H1276 C1280 0.929 . S
H1277 C1286 0.929 . S
C1278 H1272 0.930 . S
C1278 C1279 1.367 . S
C1278 C1286 1.378 . S
C1279 C1278 1.367 . S
C1279 C1287 1.433 . S
C1280 H1276 0.929 . S
C1280 C1282 1.378 . S
C1280 C1284 1.350 . S
C1281 C1284 1.463 . S
C1281 C1286 1.350 . S
C1281 N1289 1.427 . S
C1282 H1273 0.930 . S
C1282 C1280 1.378 . S
C1282 C1283 1.367 . S
C1283 C1282 1.367 . S
C1283 C1285 1.433 . S
C1284 C1280 1.350 . S
C1284 C1281 1.463 . S
C1284 N1288 1.427 . S
C1285 H1275 0.929 . S
C1285 C1283 1.433 . S
C1285 N1288 1.384 . S
C1286 H1277 0.929 . S
C1286 C1278 1.378 . S
C1286 C1281 1.350 . S
C1287 H1274 0.929 . S
C1287 C1279 1.433 . S
C1287 N1289 1.384 . S
N1288 C1284 1.427 . S
N1288 C1285 1.384 . S
N1289 C1281 1.427 . S
N1289 C1287 1.384 . S
H1290 C1296 0.930 . S
H1291 C1300 0.930 . S
H1292 C1305 0.929 . S
H1293 C1303 0.929 . S
H1294 C1298 0.929 . S
H1295 C1304 0.929 . S
C1296 H1290 0.930 . S
C1296 C1297 1.367 . S
C1296 C1304 1.378 . S
C1297 C1296 1.367 . S
C1297 C1305 1.433 . S
C1298 H1294 0.929 . S
C1298 C1300 1.378 . S
C1298 C1302 1.350 . S
C1299 C1302 1.463 . S
C1299 C1304 1.350 . S
C1299 N1307 1.427 . S
C1300 H1291 0.930 . S
C1300 C1298 1.378 . S
C1300 C1301 1.367 . S
C1301 C1300 1.367 . S
C1301 C1303 1.433 . S
C1302 C1298 1.350 . S
C1302 C1299 1.463 . S
C1302 N1306 1.427 . S
C1303 H1293 0.929 . S
C1303 C1301 1.433 . S
C1303 N1306 1.384 . S
C1304 H1295 0.929 . S
C1304 C1296 1.378 . S
C1304 C1299 1.350 . S
C1305 H1292 0.929 . S
C1305 C1297 1.433 . S
C1305 N1307 1.384 . S
N1306 C1302 1.427 . S
N1306 C1303 1.384 . S
N1307 C1299 1.427 . S
N1307 C1305 1.384 . S
H1308 C1314 0.930 . S
H1309 C1318 0.930 . S
H1310 C1323 0.929 . S
H1311 C1321 0.929 . S
H1312 C1316 0.929 . S
H1313 C1322 0.929 . S
C1314 H1308 0.930 . S
C1314 C1315 1.367 . S
C1314 C1322 1.378 . S
C1315 C1314 1.367 . S
C1315 C1323 1.433 . S
C1316 H1312 0.929 . S
C1316 C1318 1.378 . S
C1316 C1320 1.350 . S
C1317 C1320 1.463 1_554 S
C1317 C1322 1.350 . S
C1317 N1325 1.427 . S
C1318 H1309 0.930 . S
C1318 C1316 1.378 . S
C1318 C1319 1.367 . S
C1319 C1318 1.367 . S
C1319 C1321 1.433 . S
C1320 C1316 1.350 . S
C1320 C1317 1.463 1_556 S
C1320 N1324 1.427 . S
C1321 H1311 0.929 . S
C1321 C1319 1.433 . S
C1321 N1324 1.384 . S
C1322 H1313 0.929 . S
C1322 C1314 1.378 . S
C1322 C1317 1.350 . S
C1323 H1310 0.929 . S
C1323 C1315 1.433 . S
C1323 N1325 1.384 . S
N1324 C1320 1.427 . S
N1324 C1321 1.384 . S
N1325 C1317 1.427 . S
N1325 C1323 1.384 . S
H1326 C1332 0.930 . S
H1327 C1336 0.930 . S
H1328 C1341 0.929 . S
H1329 C1339 0.929 . S
H1330 C1334 0.929 . S
H1331 C1340 0.929 . S
C1332 H1326 0.930 . S
C1332 C1333 1.367 . S
C1332 C1340 1.378 . S
C1333 C1332 1.367 . S
C1333 C1341 1.433 . S
C1334 H1330 0.929 . S
C1334 C1336 1.378 . S
C1334 C1338 1.350 . S
C1335 C1338 1.463 . S
C1335 C1340 1.350 . S
C1335 N1343 1.427 . S
C1336 H1327 0.930 . S
C1336 C1334 1.378 . S
C1336 C1337 1.367 . S
C1337 C1336 1.367 . S
C1337 C1339 1.433 . S
C1338 C1334 1.350 . S
C1338 C1335 1.463 . S
C1338 N1342 1.427 . S
C1339 H1329 0.929 . S
C1339 C1337 1.433 . S
C1339 N1342 1.384 . S
C1340 H1331 0.929 . S
C1340 C1332 1.378 . S
C1340 C1335 1.350 . S
C1341 H1328 0.929 . S
C1341 C1333 1.433 . S
C1341 N1343 1.384 . S
N1342 C1338 1.427 . S
N1342 C1339 1.384 . S
N1343 C1335 1.427 . S
N1343 C1341 1.384 . S
H1344 C1350 0.930 . S
H1345 C1354 0.930 . S
H1346 C1359 0.929 . S
H1347 C1357 0.929 . S
H1348 C1352 0.929 . S
H1349 C1358 0.929 . S
C1350 H1344 0.930 . S
C1350 C1351 1.367 . S
C1350 C1358 1.378 . S
C1351 C1350 1.367 . S
C1351 C1359 1.433 . S
C1352 H1348 0.929 . S
C1352 C1354 1.378 . S
C1352 C1356 1.350 . S
C1353 C1356 1.463 . S
C1353 C1358 1.350 . S
C1353 N1361 1.427 . S
C1354 H1345 0.930 . S
C1354 C1352 1.378 . S
C1354 C1355 1.367 . S
C1355 C1354 1.367 . S
C1355 C1357 1.433 . S
C1356 C1352 1.350 . S
C1356 C1353 1.463 . S
C1356 N1360 1.427 . S
C1357 H1347 0.929 . S
C1357 C1355 1.433 . S
C1357 N1360 1.384 . S
C1358 H1349 0.929 . S
C1358 C1350 1.378 . S
C1358 C1353 1.350 . S
C1359 H1346 0.929 . S
C1359 C1351 1.433 . S
C1359 N1361 1.384 . S
N1360 C1356 1.427 . S
N1360 C1357 1.384 . S
N1361 C1353 1.427 . S
N1361 C1359 1.384 . S
H1362 C1368 0.930 . S
H1363 C1372 0.930 . S
H1364 C1377 0.929 . S
H1365 C1375 0.929 . S
H1366 C1370 0.929 . S
H1367 C1376 0.929 . S
C1368 H1362 0.930 . S
C1368 C1369 1.367 . S
C1368 C1376 1.378 . S
C1369 C1368 1.367 . S
C1369 C1377 1.433 . S
C1370 H1366 0.929 . S
C1370 C1372 1.378 . S
C1370 C1374 1.350 . S
C1371 C1374 1.463 1_554 S
C1371 C1376 1.350 . S
C1371 N1379 1.427 . S
C1372 H1363 0.930 . S
C1372 C1370 1.378 . S
C1372 C1373 1.367 . S
C1373 C1372 1.367 . S
C1373 C1375 1.433 . S
C1374 C1370 1.350 . S
C1374 C1371 1.463 1_556 S
C1374 N1378 1.427 . S
C1375 H1365 0.929 . S
C1375 C1373 1.433 . S
C1375 N1378 1.384 . S
C1376 H1367 0.929 . S
C1376 C1368 1.378 . S
C1376 C1371 1.350 . S
C1377 H1364 0.929 . S
C1377 C1369 1.433 . S
C1377 N1379 1.384 . S
N1378 C1374 1.427 . S
N1378 C1375 1.384 . S
N1379 C1371 1.427 . S
N1379 C1377 1.384 . S
H1380 C1386 0.930 . S
H1381 C1390 0.930 . S
H1382 C1395 0.929 . S
H1383 C1393 0.929 . S
H1384 C1388 0.929 . S
H1385 C1394 0.929 . S
C1386 H1380 0.930 . S
C1386 C1387 1.367 . S
C1386 C1394 1.378 . S
C1387 C1386 1.367 . S
C1387 C1395 1.433 . S
C1388 H1384 0.929 . S
C1388 C1390 1.378 . S
C1388 C1392 1.350 . S
C1389 C1392 1.463 1_545 S
C1389 C1394 1.350 . S
C1389 N1397 1.427 1_545 S
C1390 H1381 0.930 . S
C1390 C1388 1.378 . S
C1390 C1391 1.367 . S
C1391 C1390 1.367 . S
C1391 C1393 1.433 . S
C1392 C1388 1.350 . S
C1392 C1389 1.463 1_565 S
C1392 N1396 1.427 1_565 S
C1393 H1383 0.929 . S
C1393 C1391 1.433 . S
C1393 N1396 1.384 1_565 S
C1394 H1385 0.929 . S
C1394 C1386 1.378 . S
C1394 C1389 1.350 . S
C1395 H1382 0.929 . S
C1395 C1387 1.433 . S
C1395 N1397 1.384 1_545 S
N1396 C1392 1.427 1_545 S
N1396 C1393 1.384 1_545 S
N1397 C1389 1.427 1_565 S
N1397 C1395 1.384 1_565 S
H1398 C1404 0.930 . S
H1399 C1408 0.930 . S
H1400 C1413 0.929 . S
H1401 C1411 0.929 . S
H1402 C1406 0.929 . S
H1403 C1412 0.929 . S
C1404 H1398 0.930 . S
C1404 C1405 1.367 . S
C1404 C1412 1.378 . S
C1405 C1404 1.367 . S
C1405 C1413 1.433 . S
C1406 H1402 0.929 . S
C1406 C1408 1.378 . S
C1406 C1410 1.350 . S
C1407 C1410 1.463 . S
C1407 C1412 1.350 . S
C1407 N1415 1.427 . S
C1408 H1399 0.930 . S
C1408 C1406 1.378 . S
C1408 C1409 1.367 . S
C1409 C1408 1.367 . S
C1409 C1411 1.433 . S
C1410 C1406 1.350 . S
C1410 C1407 1.463 . S
C1410 N1414 1.427 . S
C1411 H1401 0.929 . S
C1411 C1409 1.433 . S
C1411 N1414 1.384 . S
C1412 H1403 0.929 . S
C1412 C1404 1.378 . S
C1412 C1407 1.350 . S
C1413 H1400 0.929 . S
C1413 C1405 1.433 . S
C1413 N1415 1.384 . S
N1414 C1410 1.427 . S
N1414 C1411 1.384 . S
N1415 C1407 1.427 . S
N1415 C1413 1.384 . S
H1416 C1422 0.930 . S
H1417 C1426 0.930 . S
H1418 C1431 0.929 1_655 S
H1419 C1429 0.929 1_455 S
H1420 C1424 0.929 . S
H1421 C1430 0.929 . S
C1422 H1416 0.930 . S
C1422 C1423 1.367 . S
C1422 C1430 1.378 . S
C1423 C1422 1.367 . S
C1423 C1431 1.433 . S
C1424 H1420 0.929 . S
C1424 C1426 1.378 . S
C1424 C1428 1.350 . S
C1425 C1428 1.463 1_455 S
C1425 C1430 1.350 . S
C1425 N1433 1.427 1_455 S
C1426 H1417 0.930 . S
C1426 C1424 1.378 . S
C1426 C1427 1.367 . S
C1427 C1426 1.367 . S
C1427 C1429 1.433 . S
C1428 C1424 1.350 . S
C1428 C1425 1.463 1_655 S
C1428 N1432 1.427 1_655 S
C1429 H1419 0.929 1_655 S
C1429 C1427 1.433 . S
C1429 N1432 1.384 1_655 S
C1430 H1421 0.929 . S
C1430 C1422 1.378 . S
C1430 C1425 1.350 . S
C1431 H1418 0.929 1_455 S
C1431 C1423 1.433 . S
C1431 N1433 1.384 1_455 S
N1432 C1428 1.427 1_455 S
N1432 C1429 1.384 1_455 S
N1433 C1425 1.427 1_655 S
N1433 C1431 1.384 1_655 S
H1434 C1440 0.930 . S
H1435 C1444 0.930 . S
H1436 C1449 0.929 1_545 S
H1437 C1447 0.929 1_565 S
H1438 C1442 0.929 . S
H1439 C1448 0.929 . S
C1440 H1434 0.930 . S
C1440 C1441 1.367 . S
C1440 C1448 1.378 . S
C1441 C1440 1.367 . S
C1441 C1449 1.433 . S
C1442 H1438 0.929 . S
C1442 C1444 1.378 . S
C1442 C1446 1.350 . S
C1443 C1446 1.463 1_565 S
C1443 C1448 1.350 . S
C1443 N1451 1.427 1_565 S
C1444 H1435 0.930 . S
C1444 C1442 1.378 . S
C1444 C1445 1.367 . S
C1445 C1444 1.367 . S
C1445 C1447 1.433 . S
C1446 C1442 1.350 . S
C1446 C1443 1.463 1_545 S
C1446 N1450 1.427 1_545 S
C1447 H1437 0.929 1_545 S
C1447 C1445 1.433 . S
C1447 N1450 1.384 1_545 S
C1448 H1439 0.929 . S
C1448 C1440 1.378 . S
C1448 C1443 1.350 . S
C1449 H1436 0.929 1_565 S
C1449 C1441 1.433 . S
C1449 N1451 1.384 1_565 S
N1450 C1446 1.427 1_565 S
N1450 C1447 1.384 1_565 S
N1451 C1443 1.427 1_545 S
N1451 C1449 1.384 1_545 S
H1452 C1458 0.930 . S
H1453 C1462 0.930 . S
H1454 C1467 0.929 . S
H1455 C1465 0.929 . S
H1456 C1460 0.929 . S
H1457 C1466 0.929 . S
C1458 H1452 0.930 . S
C1458 C1459 1.367 . S
C1458 C1466 1.378 . S
C1459 C1458 1.367 . S
C1459 C1467 1.433 . S
C1460 H1456 0.929 . S
C1460 C1462 1.378 . S
C1460 C1464 1.350 . S
C1461 C1464 1.463 . S
C1461 C1466 1.350 . S
C1461 N1469 1.427 . S
C1462 H1453 0.930 . S
C1462 C1460 1.378 . S
C1462 C1463 1.367 . S
C1463 C1462 1.367 . S
C1463 C1465 1.433 . S
C1464 C1460 1.350 . S
C1464 C1461 1.463 . S
C1464 N1468 1.427 . S
C1465 H1455 0.929 . S
C1465 C1463 1.433 . S
C1465 N1468 1.384 . S
C1466 H1457 0.929 . S
C1466 C1458 1.378 . S
C1466 C1461 1.350 . S
C1467 H1454 0.929 . S
C1467 C1459 1.433 . S
C1467 N1469 1.384 . S
N1468 C1464 1.427 . S
N1468 C1465 1.384 . S
N1469 C1461 1.427 . S
N1469 C1467 1.384 . S
H1470 C1476 0.930 . S
H1471 C1480 0.930 . S
H1472 C1485 0.929 1_455 S
H1473 C1483 0.929 1_655 S
H1474 C1478 0.929 . S
H1475 C1484 0.929 . S
C1476 H1470 0.930 . S
C1476 C1477 1.367 . S
C1476 C1484 1.378 . S
C1477 C1476 1.367 . S
C1477 C1485 1.433 . S
C1478 H1474 0.929 . S
C1478 C1480 1.378 . S
C1478 C1482 1.350 . S
C1479 C1482 1.463 1_655 S
C1479 C1484 1.350 . S
C1479 N1487 1.427 1_655 S
C1480 H1471 0.930 . S
C1480 C1478 1.378 . S
C1480 C1481 1.367 . S
C1481 C1480 1.367 . S
C1481 C1483 1.433 . S
C1482 C1478 1.350 . S
C1482 C1479 1.463 1_455 S
C1482 N1486 1.427 1_455 S
C1483 H1473 0.929 1_455 S
C1483 C1481 1.433 . S
C1483 N1486 1.384 1_455 S
C1484 H1475 0.929 . S
C1484 C1476 1.378 . S
C1484 C1479 1.350 . S
C1485 H1472 0.929 1_655 S
C1485 C1477 1.433 . S
C1485 N1487 1.384 1_655 S
N1486 C1482 1.427 1_655 S
N1486 C1483 1.384 1_655 S
N1487 C1479 1.427 1_455 S
N1487 C1485 1.384 1_455 S
C1063 C57 1.936 . S
C1067 C733 1.930 . S
C1081 C145 1.934 . S
C1085 C812 1.929 . S
C1099 C900 1.878 . S
C1103 C233 1.873 . S
C1117 C988 1.935 . S
C1121 C321 1.930 . S
C1135 C557 1.933 . S
C1139 C401 1.927 . S
C1153 C645 1.876 . S
C1157 C497 1.871 . S
C1171 C20 1.534 . S
C1175 C284 1.545 . S
C1189 C381 1.528 . S
C1193 C108 1.521 . S
C1207 C460 1.477 . S
C1211 C196 1.477 . S
C1225 C577 1.538 . S
C1229 C849 1.537 . S
C1243 C937 1.482 . S
C1247 C665 1.469 . S
C1261 C753 1.525 . S
C1265 C1025 1.522 . S
C1279 C548 1.471 . S
C1283 C49 1.477 . S
C1297 C137 1.437 . S
C1301 C636 1.442 . S
C1315 C724 1.435 . S
C1319 C225 1.440 . S
C1333 C821 1.471 . S
C1337 C313 1.477 . S
C1351 C409 1.423 . S
C1355 C909 1.427 . S
C1369 C997 1.429 . S
C1373 C489 1.434 . S
C1387 C29 0.819 . S
C1391 C673 0.815 . S
C1405 C761 0.782 . S
C1409 C117 0.778 . S
C1423 C841 0.822 . S
C1427 C205 0.819 . S
C1441 C293 0.823 . S
C1445 C929 0.821 . S
C1459 C1017 0.780 . S
C1463 C372 0.783 . S
C1477 C585 0.822 . S
C1481 C469 0.821 . S
