# Generated by pormake.
# Topology qtz-e, (6)-cn, num edge types: 1
# Building blocks:
#     Node 0, Type 0, BuildingBlock: GEDQOX_clean_sbu_0, # of connection points: 6
#     Node 1, Type 0, BuildingBlock: GEDQOX_clean_sbu_0, # of connection points: 6
#     Node 2, Type 0, BuildingBlock: GEDQOX_clean_sbu_0, # of connection points: 6
#     Node 3, Type 0, BuildingBlock: GEDQOX_clean_sbu_0, # of connection points: 6
#     Node 4, Type 0, BuildingBlock: GEDQOX_clean_sbu_0, # of connection points: 6
#     Node 5, Type 0, BuildingBlock: GEDQOX_clean_sbu_0, # of connection points: 6
#     Edge 6, Type (0, 0), BuildingBlock: CIFDUS_clean_linker_0, # of connection points: 2
#     Edge 7, Type (0, 0), BuildingBlock: CIFDUS_clean_linker_0, # of connection points: 2
#     Edge 8, Type (0, 0), BuildingBlock: CIFDUS_clean_linker_0, # of connection points: 2
#     Edge 9, Type (0, 0), BuildingBlock: CIFDUS_clean_linker_0, # of connection points: 2
#     Edge 10, Type (0, 0), BuildingBlock: CIFDUS_clean_linker_0, # of connection points: 2
#     Edge 11, Type (0, 0), BuildingBlock: CIFDUS_clean_linker_0, # of connection points: 2
#     Edge 12, Type (0, 0), BuildingBlock: CIFDUS_clean_linker_0, # of connection points: 2
#     Edge 13, Type (0, 0), BuildingBlock: CIFDUS_clean_linker_0, # of connection points: 2
#     Edge 14, Type (0, 0), BuildingBlock: CIFDUS_clean_linker_0, # of connection points: 2
#     Edge 15, Type (0, 0), BuildingBlock: CIFDUS_clean_linker_0, # of connection points: 2
#     Edge 16, Type (0, 0), BuildingBlock: CIFDUS_clean_linker_0, # of connection points: 2
#     Edge 17, Type (0, 0), BuildingBlock: CIFDUS_clean_linker_0, # of connection points: 2
#     Edge 18, Type (0, 0), BuildingBlock: CIFDUS_clean_linker_0, # of connection points: 2
#     Edge 19, Type (0, 0), BuildingBlock: CIFDUS_clean_linker_0, # of connection points: 2
#     Edge 20, Type (0, 0), BuildingBlock: CIFDUS_clean_linker_0, # of connection points: 2
#     Edge 21, Type (0, 0), BuildingBlock: CIFDUS_clean_linker_0, # of connection points: 2
#     Edge 22, Type (0, 0), BuildingBlock: CIFDUS_clean_linker_0, # of connection points: 2
#     Edge 23, Type (0, 0), BuildingBlock: CIFDUS_clean_linker_0, # of connection points: 2
# Relax obj value: 0.082
# Max RMSD: 0.172
# Mean RMSD: 0.172
data_MOF--net-qtz-e--node1-GEDQOX_clean_sbu_0--edge1-CIFDUS_clean_linker_0
_symmetry_space_group_name_H-M    P1
_symmetry_Int_Tables_number       1
_symmetry_cell_setting            triclinic
loop_
_symmetry_equiv_pos_as_xyz
'x, y, z'
_cell_length_a     23.133962
_cell_length_b     23.185428
_cell_length_c     47.550417
_cell_angle_alpha  89.656627
_cell_angle_beta   90.235917
_cell_angle_gamma 119.10741
loop_
_atom_site_label
_atom_site_type_symbol
_atom_site_fract_x
_atom_site_fract_y
_atom_site_fract_z
_atom_type_partial_charge
Nd0 Nd 0.1563 0.35387 0.07253 0.0
Nd1 Nd 0.26371 0.47398 0.0431 0.0
C2 C 0.05658 0.25698 0.09998 0.0
C3 C 0.03288 0.25494 0.12905 0.0
C4 C 0.97361 0.20148 0.13864 0.0
C5 C 0.95096 0.20119 0.16607 0.0
C6 C 0.98698 0.2547 0.18432 0.0
C7 C 0.04687 0.30765 0.17464 0.0
C8 C 0.06956 0.30765 0.14741 0.0
C9 C 0.28462 0.38933 0.08738 0.0
C10 C 0.21516 0.49064 0.10473 0.0
C11 C 0.36966 0.57726 1.02283 0.0
C12 C 0.39153 0.59681 0.99378 0.0
C13 C 0.45501 0.64865 0.98806 0.0
C14 C 0.47585 0.66581 0.96022 0.0
C15 C 0.43333 0.6313 0.93777 0.0
C16 C 0.36957 0.5795 0.94371 0.0
C17 C 0.34892 0.56234 0.97149 0.0
C18 C 0.13786 0.44925 0.02984 0.0
C19 C 0.1955 0.33968 1.00716 0.0
O20 O 0.04897 0.29668 0.08254 0.0
O21 O 0.11497 0.2615 0.09779 0.0
O22 O 0.23812 0.37484 0.10562 0.0
O23 O 0.26291 0.38629 0.06291 0.0
O24 O 0.15972 0.4371 0.09848 0.0
O25 O 0.26796 0.5103 0.08868 0.0
O26 O 0.36987 0.52372 0.03154 0.0
O27 O 0.3158 0.57877 0.02983 0.0
O28 O 0.18513 0.46713 1.0116 0.0
O29 O 0.15804 0.44452 0.05393 0.0
O30 O 0.24861 0.39777 1.0102 0.0
O31 O 0.14973 0.31335 0.02713 0.0
H32 H 0.94454 0.16027 0.12486 0.0
H33 H 0.90443 0.15988 0.17273 0.0
H34 H 0.07649 0.34917 0.18819 0.0
H35 H 0.11584 0.3491 0.14063 0.0
H36 H 0.48844 0.67559 1.00508 0.0
H37 H 0.52508 0.70629 0.95625 0.0
H38 H 0.3361 0.5514 0.92689 0.0
H39 H 0.29981 0.52179 0.9756 0.0
Nd40 Nd 0.78163 0.16844 0.40241 0.0
Nd41 Nd 0.75665 0.2776 0.37781 0.0
C42 C 0.77519 0.06507 0.42953 0.0
C43 C 0.7544 0.03568 0.45785 0.0
C44 C 0.70393 0.04023 0.47216 0.0
C45 C 0.68397 0.01227 0.49886 0.0
C46 C 0.71358 0.97844 0.51191 0.0
C47 C 0.76502 0.97484 0.4977 0.0
C48 C 0.78523 0.00326 0.4709 0.0
C49 C 0.87963 0.29635 0.41053 0.0
C50 C 0.70638 0.23123 0.44074 0.0
C51 C 0.76846 0.38327 0.35164 0.0
C52 C 0.77892 0.40357 0.32184 0.0
C53 C 0.73193 0.41453 0.30758 0.0
C54 C 0.73796 0.42754 0.2787 0.0
C55 C 0.7912 0.4299 0.26358 0.0
C56 C 0.83892 0.42025 0.27803 0.0
C57 C 0.8329 0.40728 0.30685 0.0
C58 C 0.6524 0.15421 0.37227 0.0
C59 C 0.83026 0.21256 0.3388 0.0
O60 O 0.72845 0.06174 0.41288 0.0
O61 O 0.82883 0.12247 0.42833 0.0
O62 O 0.89258 0.24934 0.40426 0.0
O63 O 0.81874 0.27447 0.41263 0.0
O64 O 0.71185 0.1784 0.43462 0.0
O65 O 0.72999 0.28293 0.42367 0.0
O66 O 0.81775 0.38165 0.36455 0.0
O67 O 0.71106 0.33232 0.35764 0.0
O68 O 0.64642 0.20622 0.37666 0.0
O69 O 0.71219 0.16856 0.36889 0.0
O70 O 0.82012 0.26311 0.34379 0.0
O71 O 0.81258 0.16373 0.35713 0.0
H72 H 0.67947 0.06492 0.46254 0.0
H73 H 0.64506 0.01706 0.50928 0.0
H74 H 0.78858 0.94876 0.50697 0.0
H75 H 0.82447 -0.00066 0.46025 0.0
H76 H 0.68994 0.41191 0.31871 0.0
H77 H 0.70107 0.43603 0.26823 0.0
H78 H 0.88031 0.42148 0.26696 0.0
H79 H 0.86998 0.399 0.31723 0.0
Nd80 Nd 0.63336 0.79507 0.73522 0.0
Nd81 Nd 0.50055 0.75413 0.70862 0.0
C82 C 0.74377 0.81249 0.75942 0.0
C83 C 0.75734 0.79886 0.78855 0.0
C84 C 0.72644 0.80988 0.8118 0.0
C85 C 0.7352 0.79172 0.83904 0.0
C86 C 0.77418 0.76124 0.84355 0.0
C87 C 0.80604 0.7515 0.82033 0.0
C88 C 0.79786 0.77029 0.79317 0.0
C89 C 0.58407 0.88073 0.7427 0.0
C90 C 0.50692 0.72203 0.775 0.0
C91 C 0.38631 0.73045 0.68683 0.0
C92 C 0.37038 0.73484 0.65718 0.0
C93 C 0.33405 0.76658 0.64987 0.0
C94 C 0.32551 0.77763 0.62157 0.0
C95 C 0.35312 0.7569 0.60022 0.0
C96 C 0.38919 0.72488 0.60764 0.0
C97 C 0.39807 0.71429 0.63583 0.0
C98 C 0.54713 0.66711 0.69984 0.0
C99 C 0.62805 0.83153 0.66862 0.0
O100 O 0.70631 0.76073 0.74411 0.0
O101 O 0.72895 0.85988 0.75629 0.0
O102 O 0.61263 0.86538 0.76262 0.0
O103 O 0.58344 0.85211 0.72035 0.0
O104 O 0.56547 0.7288 0.76945 0.0
O105 O 0.47429 0.73675 0.75596 0.0
O106 O 0.42724 0.78673 0.69835 0.0
O107 O 0.40014 0.68351 0.69318 0.0
O108 O 0.52264 0.68809 0.68035 0.0
O109 O 0.54912 0.69458 0.72299 0.0
O110 O 0.5667 0.81837 0.67334 0.0
O111 O 0.66302 0.82081 0.68815 0.0
H112 H 0.69404 0.83093 0.80887 0.0
H113 H 0.70921 0.79895 0.85638 0.0
H114 H 0.83653 0.72826 0.82314 0.0
H115 H 0.8219 0.76096 0.77564 0.0
H116 H 0.31349 0.784 0.66604 0.0
H117 H 0.29721 0.80218 0.61638 0.0
H118 H 0.41187 0.70936 0.59164 0.0
H119 H 0.42793 0.69134 0.6409 0.0
Nd120 Nd 0.81089 0.64232 0.07111 0.0
Nd121 Nd 0.73574 0.51476 0.0372 0.0
C122 C 0.89422 0.74381 0.10205 0.0
C123 C 0.92008 0.74521 0.13081 0.0
C124 C 0.88875 0.68936 0.14832 0.0
C125 C 0.91442 0.6886 0.17495 0.0
C126 C 0.97192 0.7439 0.18492 0.0
C127 C 0.00241 0.8005 0.16763 0.0
C128 C 0.97692 0.80097 0.14075 0.0
C129 C 0.67523 0.57894 0.07737 0.0
C130 C 0.76325 0.50484 0.10291 0.0
C131 C 0.66178 0.40183 1.01114 0.0
C132 C 0.66087 0.37851 0.98253 0.0
C133 C 0.68835 0.4243 0.96043 0.0
C134 C 0.67824 0.40279 0.93265 0.0
C135 C 0.64175 0.33519 0.92669 0.0
C136 C 0.61829 0.28914 0.94884 0.0
C137 C 0.62747 0.3108 0.9767 0.0
C138 C 0.87149 0.57065 0.03471 0.0
C139 C 0.78329 0.65236 1.00334 0.0
O140 O 0.91373 0.7174 0.08258 0.0
O141 O 0.83093 0.72442 0.10028 0.0
O142 O 0.71591 0.61011 0.09766 0.0
O143 O 0.70626 0.58563 0.05479 0.0
O144 O 0.81385 0.56427 0.09927 0.0
O145 O 0.7174 0.4775 0.08328 0.0
O146 O 0.64629 0.44887 1.01291 0.0
O147 O 0.71259 0.41238 0.02678 0.0
O148 O 0.83248 0.54705 1.01321 0.0
O149 O 0.83796 0.56622 0.05621 0.0
O150 O 0.74282 0.58813 1.00378 0.0
O151 O 0.81816 0.68486 0.02581 0.0
H152 H 0.84442 0.64597 0.14137 0.0
H153 H 0.88902 0.64457 0.18781 0.0
H154 H 0.04697 0.84377 0.17456 0.0
H155 H 0.00201 0.84459 0.12763 0.0
H156 H 0.71474 0.47681 0.96461 0.0
H157 H 0.69656 0.43896 0.91579 0.0
H158 H 0.58949 0.23679 0.94455 0.0
H159 H 0.60609 0.27497 0.99357 0.0
Nd160 Nd 0.18046 0.81522 0.40292 0.0
Nd161 Nd 0.2007 0.70465 0.37701 0.0
C162 C 0.1923 0.91776 0.43199 0.0
C163 C 0.20385 0.93616 0.46198 0.0
C164 C 0.21286 -0.00246 0.47095 0.0
C165 C 0.22767 0.01646 0.49919 0.0
C166 C 0.23439 0.97447 0.51885 0.0
C167 C 0.22361 0.91227 0.50983 0.0
C168 C 0.20823 0.89324 0.48173 0.0
C169 C 0.08235 0.68753 0.41253 0.0
C170 C 0.25676 0.74928 0.43917 0.0
C171 C 0.18063 0.59673 0.35105 0.0
C172 C 0.17969 0.5838 0.32099 0.0
C173 C 0.14261 0.51955 0.31068 0.0
C174 C 0.13797 0.50846 0.28172 0.0
C175 C 0.17055 0.56163 0.26287 0.0
C176 C 0.20743 0.62592 0.27336 0.0
C177 C 0.21162 0.63697 0.30221 0.0
C178 C 0.30563 0.82699 0.36955 0.0
C179 C 0.12999 0.77537 0.33905 0.0
O180 O 0.24158 0.91726 0.41881 0.0
O181 O 0.13531 0.86661 0.42582 0.0
O182 O 0.06931 0.73511 0.40748 0.0
O183 O 0.14326 0.70906 0.41312 0.0
O184 O 0.2517 0.80272 0.4337 0.0
O185 O 0.2304 0.69785 0.42222 0.0
O186 O 0.13227 0.60642 0.35947 0.0
O187 O 0.23829 0.63956 0.36135 0.0
O188 O 0.311 0.77404 0.37208 0.0
O189 O 0.24581 0.81378 0.36805 0.0
O190 O 0.13848 0.72354 0.34358 0.0
O191 O 0.14945 0.82355 0.3577 0.0
H192 H 0.20964 0.03134 0.45601 0.0
H193 H 0.23619 0.06483 0.50543 0.0
H194 H 0.22764 0.87844 0.52449 0.0
H195 H 0.20069 0.84532 0.47533 0.0
H196 H 0.11679 0.47825 0.32497 0.0
H197 H 0.10947 0.45837 0.27406 0.0
H198 H 0.23216 0.6677 0.25922 0.0
H199 H 0.23912 0.68717 0.30987 0.0
Nd200 Nd 0.32957 0.15345 0.73997 0.0
Nd201 Nd 0.4636 0.18958 0.71349 0.0
C202 C 0.23056 0.14378 0.77125 0.0
C203 C 0.22557 0.17464 0.79755 0.0
C204 C 0.28049 0.23139 0.80791 0.0
C205 C 0.27747 0.25766 0.8339 0.0
C206 C 0.21902 0.22837 0.85008 0.0
C207 C 0.16381 0.17162 0.83945 0.0
C208 C 0.16721 0.14492 0.81349 0.0
C209 C 0.36353 0.05535 0.73819 0.0
C210 C 0.46609 0.22959 0.77811 0.0
C211 C 0.5712 0.19844 0.691 0.0
C212 C 0.59143 0.20443 0.66131 0.0
C213 C 0.61793 0.16566 0.65108 0.0
C214 C 0.62818 0.16345 0.62223 0.0
C215 C 0.61213 0.20007 0.6031 0.0
C216 C 0.58731 0.24031 0.6135 0.0
C217 C 0.57667 0.24217 0.64231 0.0
C218 C 0.42288 0.28237 0.70477 0.0
C219 C 0.3313 0.12042 0.67491 0.0
O220 O 0.25261 0.18199 0.74895 0.0
O221 O 0.25622 0.10476 0.77399 0.0
O222 O 0.30542 0.04528 0.73056 0.0
O223 O 0.39993 0.1141 0.74492 0.0
O224 O 0.40366 0.21482 0.77463 0.0
O225 O 0.49972 0.21864 0.75853 0.0
O226 O 0.51969 0.14183 0.69762 0.0
O227 O 0.56936 0.24934 0.70199 0.0
O228 O 0.45128 0.26477 0.6858 0.0
O229 O 0.41648 0.25023 0.72697 0.0
O230 O 0.38726 0.12132 0.6814 0.0
O231 O 0.30265 0.14213 0.69283 0.0
H232 H 0.32608 0.25509 0.79604 0.0
H233 H 0.32155 0.30052 0.84147 0.0
H234 H 0.11776 0.14809 0.85104 0.0
H235 H 0.12436 0.10076 0.80594 0.0
H236 H 0.62878 0.13551 0.66533 0.0
H237 H 0.64805 0.13253 0.61485 0.0
H238 H 0.57381 0.26849 0.59928 0.0
H239 H 0.5549 0.27149 0.64959 0.0
H240 H 0.27244 0.61052 0.22601 0.0
H241 H 0.06064 0.487 0.23155 0.0
H242 H 0.05554 0.46209 0.18143 0.0
H243 H 0.11188 0.46746 0.13779 0.0
H244 H 0.32441 0.5859 0.13214 0.0
H245 H 0.32849 0.62262 0.18066 0.0
C246 C 0.22515 0.57885 0.21609 0.0
C247 C 0.16706 0.55002 0.23232 0.0
C248 C 0.22277 0.56396 0.18747 0.0
C249 C 0.10603 0.50876 0.21945 0.0
C250 C 0.10308 0.49479 0.19087 0.0
C251 C 0.15923 0.50188 0.14699 0.0
C252 C 0.21795 0.52311 0.1316 0.0
C253 C 0.16128 0.52089 0.17492 0.0
C254 C 0.27859 0.56857 0.14366 0.0
C255 C 0.28095 0.58916 0.17142 0.0
H256 H 0.66355 0.29952 0.56429 0.0
H257 H 0.57545 0.08803 0.57282 0.0
H258 H 0.59005 0.07846 0.52259 0.0
H259 H 0.63457 0.13064 0.47698 0.0
H260 H 0.72528 0.34223 0.46837 0.0
H261 H 0.70133 0.35111 0.51766 0.0
C262 C 0.64716 0.25132 0.55509 0.0
C263 C 0.61938 0.19468 0.57235 0.0
C264 C 0.65627 0.24618 0.52619 0.0
C265 C 0.59842 0.13255 0.56013 0.0
C266 C 0.60651 0.12698 0.53138 0.0
C267 C 0.64914 0.17869 0.48585 0.0
C268 C 0.68269 0.23569 0.46911 0.0
C269 C 0.63655 0.18355 0.51433 0.0
C270 C 0.69945 0.29748 0.48076 0.0
C271 C 0.68624 0.30267 0.50903 0.0
H272 H 0.36519 0.6436 0.89336 0.0
H273 H 0.55201 0.65643 0.91601 0.0
H274 H 0.58986 0.68378 0.8675 0.0
H275 H 0.57047 0.7045 0.81921 0.0
H276 H 0.38496 0.69377 0.79565 0.0
H277 H 0.34543 0.66398 0.84412 0.0
C278 C 0.41398 0.65195 0.88759 0.0
C279 C 0.45585 0.64822 0.90825 0.0
C280 C 0.43543 0.66765 0.85961 0.0
C281 C 0.51925 0.65993 0.90058 0.0
C282 C 0.54074 0.67514 0.87283 0.0
C283 C 0.52112 0.69531 0.82447 0.0
C284 C 0.48057 0.7011 0.80375 0.0
C285 C 0.49929 0.6792 0.85225 0.0
C286 C 0.41708 0.68947 0.81117 0.0
C287 C 0.39456 0.67258 0.83888 0.0
H288 H 0.69369 0.37955 0.22393 0.0
H289 H 0.90342 0.51031 0.23436 0.0
H290 H 0.91384 0.5368 0.18434 0.0
H291 H 0.86249 0.53183 0.13913 0.0
H292 H 0.65229 0.40628 0.12814 0.0
H293 H 0.64296 0.36843 0.17705 0.0
C294 C 0.74158 0.4141 0.21525 0.0
C295 C 0.79754 0.44338 0.23291 0.0
C296 C 0.74712 0.43024 0.18653 0.0
C297 C 0.85961 0.4868 0.22126 0.0
C298 C 0.8656 0.50236 0.1927 0.0
C299 C 0.8146 0.49561 0.1473 0.0
C300 C 0.75797 0.47237 0.13023 0.0
C301 C 0.80954 0.47553 0.17536 0.0
C302 C 0.69656 0.42475 0.14093 0.0
C303 C 0.69119 0.40364 0.16892 0.0
H304 H 0.31792 0.66904 0.55761 0.0
H305 H 0.3693 0.87057 0.57563 0.0
H306 H 0.35167 0.888 0.52617 0.0
H307 H 0.31294 0.84381 0.47923 0.0
H308 H 0.25877 0.64125 0.46142 0.0
H309 H 0.28698 0.62689 0.5095 0.0
C310 C 0.32566 0.71693 0.55066 0.0
C311 C 0.34418 0.76822 0.57022 0.0
C312 C 0.3144 0.72638 0.52244 0.0
C313 C 0.35379 0.82997 0.56103 0.0
C314 C 0.34382 0.84003 0.53285 0.0
C315 C 0.30776 0.79662 0.48574 0.0
C316 C 0.28295 0.74348 0.46682 0.0
C317 C 0.32276 0.78823 0.51354 0.0
C318 C 0.27746 0.68297 0.47556 0.0
C319 C 0.29323 0.67455 0.50311 0.0
H320 H 0.56791 0.3691 0.8946 0.0
H321 H 0.66576 0.25157 0.89481 0.0
H322 H 0.6237 0.21188 0.84727 0.0
H323 H 0.55465 0.20737 0.80673 0.0
H324 H 0.44904 0.31766 0.80908 0.0
H325 H 0.49864 0.36399 0.85462 0.0
C326 C 0.58051 0.33538 0.88399 0.0
C327 C 0.62019 0.3136 0.8977 0.0
C328 C 0.55452 0.31148 0.85733 0.0
C329 C 0.63542 0.26895 0.88432 0.0
C330 C 0.61139 0.24637 0.85728 0.0
C331 C 0.54322 0.24206 0.81719 0.0
C332 C 0.49863 0.2594 0.80477 0.0
C333 C 0.57034 0.26684 0.84372 0.0
C334 C 0.48304 0.30348 0.81849 0.0
C335 C 0.51143 0.33002 0.84442 0.0
H336 H 0.37671 0.3667 0.06449 0.0
H337 H 0.3509 0.49076 0.12435 0.0
H338 H 0.47141 0.56171 0.12764 0.0
H339 H 0.58458 0.59298 0.10973 0.0
H340 H 0.60719 0.45726 0.05623 0.0
H341 H 0.48808 0.38591 0.05388 0.0
C342 C 0.39771 0.40863 0.07863 0.0
C343 C 0.35572 0.42442 0.0938 0.0
C344 C 0.46643 0.44762 0.08097 0.0
C345 C 0.38283 0.47818 0.11234 0.0
C346 C 0.4516 0.51879 0.11413 0.0
C347 C 0.56311 0.54752 0.09779 0.0
C348 C 0.60395 0.53255 0.08099 0.0
C349 C 0.49402 0.50484 0.09798 0.0
C350 C 0.57603 0.47249 0.06667 0.0
C351 C 0.50803 0.43092 0.06609 0.0
H352 H 0.11176 0.58891 0.41434 0.0
H353 H 0.94701 0.62727 0.4157 0.0
H354 H 0.87001 0.50805 0.4179 0.0
H355 H 0.8508 0.39444 0.41792 0.0
H356 H 0.01495 0.3567 0.40886 0.0
H357 H 0.0923 0.47567 0.41129 0.0
C358 C 0.05897 0.57136 0.41487 0.0
C359 C 0.03481 0.61659 0.41457 0.0
C360 C 0.01556 0.50341 0.41474 0.0
C361 C 0.96649 0.5932 0.41573 0.0
C362 C 0.92272 0.52528 0.41697 0.0
C363 C 0.90348 0.41215 0.41616 0.0
C364 C 0.92736 0.36714 0.41285 0.0
C365 C 0.94687 0.48014 0.41618 0.0
C366 C -0.00435 0.39061 0.41122 0.0
C367 C 0.03962 0.4584 0.41258 0.0
H368 H 0.429 0.02931 0.77796 0.0
H369 H 0.36073 0.98407 0.69234 0.0
H370 H 0.42828 0.92993 0.68559 0.0
H371 H 0.51356 0.90441 0.70335 0.0
H372 H 0.57048 0.93681 0.79073 0.0
H373 H 0.50295 -0.00938 0.7974 0.0
C374 C 0.42771 0.0059 0.75809 0.0
C375 C 0.38982 0.00959 0.73573 0.0
C376 C 0.46597 0.97472 0.75458 0.0
C377 C 0.38868 0.98028 0.70992 0.0
C378 C 0.42798 0.95039 0.706 0.0
C379 C 0.50957 0.92141 0.72405 0.0
C380 C 0.54582 0.9156 0.74666 0.0
C381 C 0.46774 0.94853 0.72806 0.0
C382 C 0.54279 0.94061 0.77306 0.0
C383 C 0.50387 0.97085 0.77691 0.0
H384 H 0.48363 0.56872 0.73748 0.0
H385 H 0.58076 0.61343 0.65689 0.0
H386 H 0.54647 0.49643 0.65 0.0
H387 H 0.4873 0.38143 0.66676 0.0
H388 H 0.38587 0.33669 0.74654 0.0
H389 H 0.42146 0.45352 0.75351 0.0
C390 C 0.49838 0.55283 0.71871 0.0
C391 C 0.53598 0.59929 0.69799 0.0
C392 C 0.47614 0.48544 0.71443 0.0
C393 C 0.55294 0.57824 0.67331 0.0
C394 C 0.5327 0.51146 0.66924 0.0
C395 C 0.47215 0.39716 0.68545 0.0
C396 C 0.43406 0.35058 0.70611 0.0
C397 C 0.4936 0.46452 0.68952 0.0
C398 C 0.41501 0.37169 0.73029 0.0
C399 C 0.43589 0.43851 0.73443 0.0
H400 H 0.09006 0.49832 0.06921 0.0
H401 H 0.07304 0.44584 0.98152 0.0
H402 H -0.00647 0.48593 0.97439 0.0
H403 H 0.92735 0.53334 0.99357 0.0
H404 H 0.94721 0.58805 0.08114 0.0
H405 H 0.02941 0.55181 0.08764 0.0
C406 C 0.06842 0.49503 0.04859 0.0
C407 C 0.08616 0.46812 0.02597 0.0
C408 C 0.0246 0.51988 0.04454 0.0
C409 C 0.05917 0.46564 0.99925 0.0
C410 C 0.01428 0.48899 0.99516 0.0
C411 C 0.95054 0.53843 1.01395 0.0
C412 C 0.93095 0.5629 0.0369 0.0
C413 C -0.00326 0.51629 1.01766 0.0
C414 C 0.96149 0.56934 0.06316 0.0
C415 C 0.00795 0.54801 0.06696 0.0
H416 H 0.43301 0.85635 0.36599 0.0
H417 H 0.30708 0.94542 0.3682 0.0
H418 H 0.40468 0.05537 0.36866 0.0
H419 H 0.52498 0.12488 0.37056 0.0
H420 H 0.65118 0.03632 0.36649 0.0
H421 H 0.55358 0.92637 0.36454 0.0
C422 C 0.42694 0.89988 0.3664 0.0
C423 C 0.36326 0.89321 0.36745 0.0
C424 C 0.483 0.96245 0.36644 0.0
C425 C 0.3558 0.94968 0.36767 0.0
C426 C 0.41146 0.01232 0.36793 0.0
C427 C 0.53117 0.08152 0.36912 0.0
C428 C 0.5949 0.08821 0.36911 0.0
C429 C 0.47517 0.0191 0.36769 0.0
C430 C 0.60243 0.03198 0.36688 0.0
C431 C 0.54676 0.96935 0.36572 0.0
H432 H 0.15454 0.16481 0.89891 0.0
H433 H 0.2762 0.35916 0.86339 0.0
H434 H 0.27885 0.40897 0.90848 0.0
H435 H 0.24936 0.39852 0.95789 0.0
H436 H 0.12358 0.2068 0.99436 0.0
H437 H 0.11842 0.15493 0.94875 0.0
C438 C 0.18092 0.21808 0.90089 0.0
C439 C 0.21616 0.25786 0.87763 0.0
C440 C 0.18141 0.24696 0.92702 0.0
C441 C 0.25021 0.32689 0.88088 0.0
C442 C 0.25134 0.35566 0.90668 0.0
C443 C 0.22077 0.34525 0.95602 0.0
C444 C 0.18762 0.3065 0.97966 0.0
C445 C 0.2178 0.31622 0.9299 0.0
C446 C 0.14972 0.23775 0.97654 0.0
C447 C 0.14698 0.20816 0.95048 0.0
H448 H 0.89165 0.31186 0.30044 0.0
H449 H 0.83521 0.10738 0.31502 0.0
H450 H 0.87821 0.10195 0.26876 0.0
H451 H 0.93025 0.15496 0.22352 0.0
H452 H 0.98635 0.35963 0.20968 0.0
H453 H 0.94606 0.3654 0.25624 0.0
C454 C 0.88862 0.26601 0.29358 0.0
C455 C 0.85966 0.21002 0.31128 0.0
C456 C 0.91357 0.26326 0.26696 0.0
C457 C 0.85717 0.15134 0.30198 0.0
C458 C 0.88159 0.14811 0.27542 0.0
C459 C 0.93319 0.20066 0.23063 0.0
C460 C 0.96156 0.25684 0.21297 0.0
C461 C 0.90946 0.20363 0.2576 0.0
C462 C 0.96572 0.31588 0.22281 0.0
C463 C 0.94213 0.31911 0.24944 0.0
H464 H 0.56097 0.83395 0.62246 0.0
H465 H 0.75857 0.89106 0.65142 0.0
H466 H 0.80286 0.9406 0.60524 0.0
H467 H 0.78494 0.971 0.55701 0.0
H468 H 0.58538 0.91001 0.52928 0.0
H469 H 0.5427 0.85957 0.57485 0.0
C470 C 0.61389 0.85726 0.61886 0.0
C471 C 0.65645 0.85924 0.64057 0.0
C472 C 0.63872 0.88545 0.59247 0.0
C473 C 0.72467 0.88887 0.63515 0.0
C474 C 0.74998 0.91735 0.60876 0.0
C475 C 0.7321 0.94611 0.56085 0.0
C476 C 0.68867 0.94531 0.53969 0.0
C477 C 0.70744 0.91636 0.58728 0.0
C478 C 0.62029 0.91298 0.54522 0.0
C479 C 0.59564 0.88359 0.57127 0.0
H480 H 0.80048 0.8229 0.8951 0.0
H481 H 0.75315 0.63817 0.8554 0.0
H482 H 0.75364 0.58991 0.90101 0.0
H483 H 0.76515 0.59863 0.95187 0.0
H484 H 0.81592 0.78241 0.99305 0.0
H485 H 0.81731 0.83296 0.94721 0.0
C486 C 0.79042 0.77216 0.89653 0.0
C487 C 0.77698 0.73423 0.87179 0.0
C488 C 0.79156 0.74467 0.92303 0.0
C489 C 0.76441 0.66867 0.87397 0.0
C490 C 0.7644 0.64092 0.90008 0.0
C491 C 0.7765 0.64983 0.95095 0.0
C492 C 0.78968 0.68646 0.97596 0.0
C493 C 0.77764 0.67829 0.92469 0.0
C494 C 0.80562 0.75309 0.97417 0.0
C495 C 0.80608 0.78183 0.94795 0.0
H496 H 0.08193 0.68388 0.29716 0.0
H497 H 0.11261 0.87736 0.31878 0.0
H498 H 0.06781 0.88546 0.27311 0.0
H499 H 0.01973 0.83743 0.22667 0.0
H500 H -0.01066 0.64378 0.20591 0.0
H501 H 0.0338 0.63598 0.25148 0.0
C502 C 0.07878 0.72792 0.29204 0.0
C503 C 0.10079 0.77995 0.3116 0.0
C504 C 0.05285 0.73223 0.26574 0.0
C505 C 0.09604 0.83642 0.30432 0.0
C506 C 0.07049 0.84116 0.27811 0.0
C507 C 0.02321 0.79373 0.23209 0.0
C508 C 0.00068 0.74106 0.21282 0.0
C509 C 0.04887 0.78945 0.25858 0.0
C510 C 0.00514 0.68457 0.22039 0.0
C511 C 0.03096 0.6802 0.24645 0.0
H512 H 0.36698 0.05381 0.63872 0.0
H513 H 0.22929 0.12784 0.64789 0.0
H514 H 0.1865 0.0891 0.60041 0.0
H515 H 0.19049 0.03601 0.55563 0.0
H516 H 0.33019 0.96428 0.54783 0.0
H517 H 0.36958 -4e-05 0.59543 0.0
C518 C 0.32749 0.06159 0.63048 0.0
C519 C 0.30167 0.09411 0.6469 0.0
C520 C 0.30342 0.03942 0.60331 0.0
C521 C 0.25007 0.10293 0.63579 0.0
C522 C 0.22576 0.08097 0.60857 0.0
C523 C 0.2296 0.02837 0.5644 0.0
C524 C 0.25687 -0.00328 0.54819 0.0
C525 C 0.25245 0.04955 0.59202 0.0
C526 C 0.30731 0.98698 0.55995 0.0
C527 C 0.33028 0.00793 0.58715 0.0
loop_
_geom_bond_atom_site_label_1
_geom_bond_atom_site_label_2
_geom_bond_distance
_geom_bond_site_symmetry_2
_ccdc_geom_bond_type
Nd0 C2 2.836 . S
Nd0 O20 2.500 . S
Nd0 O21 2.492 . S
Nd0 O22 2.487 . S
Nd0 O23 2.682 . S
Nd0 O24 2.410 . S
Nd0 O29 2.414 . S
Nd0 O31 2.424 . S
Nd1 C11 2.836 1_554 S
Nd1 O23 2.414 . S
Nd1 O25 2.424 . S
Nd1 O26 2.500 1_554 S
Nd1 O27 2.492 1_554 S
Nd1 O28 2.487 . S
Nd1 O29 2.682 . S
Nd1 O30 2.410 1_554 S
C2 Nd0 2.836 . S
C2 C3 1.498 . S
C2 O20 1.258 . S
C2 O21 1.239 . S
C3 C2 1.498 . S
C3 C4 1.366 . S
C3 C8 1.407 . S
C4 C3 1.366 . S
C4 C5 1.392 . S
C4 H32 0.930 . S
C5 C4 1.392 . S
C5 C6 1.398 . S
C5 H33 0.929 1_455 S
C6 C5 1.398 . S
C6 C7 1.352 . S
C7 C6 1.352 . S
C7 C8 1.384 . S
C7 H34 0.930 . S
C8 C3 1.407 . S
C8 C7 1.384 . S
C8 H35 0.929 . S
C9 O22 1.241 . S
C9 O23 1.273 . S
C10 O24 1.251 . S
C10 O25 1.268 . S
C11 Nd1 2.836 1_556 S
C11 C12 1.498 . S
C11 O26 1.258 . S
C11 O27 1.239 . S
C12 C11 1.498 . S
C12 C13 1.366 . S
C12 C17 1.407 . S
C13 C12 1.366 . S
C13 C14 1.392 . S
C13 H36 0.930 . S
C14 C13 1.392 . S
C14 C15 1.398 . S
C14 H37 0.929 . S
C15 C14 1.398 . S
C15 C16 1.352 . S
C16 C15 1.352 . S
C16 C17 1.384 . S
C16 H38 0.930 . S
C17 C12 1.407 . S
C17 C16 1.384 . S
C17 H39 0.929 . S
C18 O28 1.241 . S
C18 O29 1.273 . S
C19 O30 1.251 . S
C19 O31 1.268 1_556 S
O20 Nd0 2.500 . S
O20 C2 1.258 . S
O21 Nd0 2.492 . S
O21 C2 1.239 . S
O22 Nd0 2.487 . S
O22 C9 1.241 . S
O23 Nd0 2.682 . S
O23 Nd1 2.414 . S
O23 C9 1.273 . S
O24 Nd0 2.410 . S
O24 C10 1.251 . S
O25 Nd1 2.424 . S
O25 C10 1.268 . S
O26 Nd1 2.500 1_556 S
O26 C11 1.258 . S
O27 Nd1 2.492 1_556 S
O27 C11 1.239 . S
O28 Nd1 2.487 . S
O28 C18 1.241 . S
O29 Nd0 2.414 . S
O29 Nd1 2.682 . S
O29 C18 1.273 . S
O30 Nd1 2.410 1_556 S
O30 C19 1.251 . S
O31 Nd0 2.424 . S
O31 C19 1.268 1_554 S
H32 C4 0.930 . S
H33 C5 0.929 1_655 S
H34 C7 0.930 . S
H35 C8 0.929 . S
H36 C13 0.930 . S
H37 C14 0.929 . S
H38 C16 0.930 . S
H39 C17 0.929 . S
Nd40 C42 2.836 . S
Nd40 O60 2.500 . S
Nd40 O61 2.492 . S
Nd40 O62 2.487 . S
Nd40 O63 2.682 . S
Nd40 O64 2.410 . S
Nd40 O69 2.414 . S
Nd40 O71 2.424 . S
Nd41 C51 2.836 . S
Nd41 O63 2.414 . S
Nd41 O65 2.424 . S
Nd41 O66 2.500 . S
Nd41 O67 2.492 . S
Nd41 O68 2.487 . S
Nd41 O69 2.682 . S
Nd41 O70 2.410 . S
C42 Nd40 2.836 . S
C42 C43 1.498 . S
C42 O60 1.258 . S
C42 O61 1.239 . S
C43 C42 1.498 . S
C43 C44 1.366 . S
C43 C48 1.407 . S
C44 C43 1.366 . S
C44 C45 1.392 . S
C44 H72 0.930 . S
C45 C44 1.392 . S
C45 C46 1.398 . S
C45 H73 0.929 1_545 S
C46 C45 1.398 . S
C46 C47 1.352 . S
C47 C46 1.352 . S
C47 C48 1.384 . S
C47 H74 0.930 . S
C48 C43 1.407 . S
C48 C47 1.384 . S
C48 H75 0.929 . S
C49 O62 1.241 . S
C49 O63 1.273 . S
C50 O64 1.251 . S
C50 O65 1.268 . S
C51 Nd41 2.836 . S
C51 C52 1.498 . S
C51 O66 1.258 . S
C51 O67 1.239 . S
C52 C51 1.498 . S
C52 C53 1.366 . S
C52 C57 1.407 . S
C53 C52 1.366 . S
C53 C54 1.392 . S
C53 H76 0.930 . S
C54 C53 1.392 . S
C54 C55 1.398 . S
C54 H77 0.929 . S
C55 C54 1.398 . S
C55 C56 1.352 . S
C56 C55 1.352 . S
C56 C57 1.384 . S
C56 H78 0.930 . S
C57 C52 1.407 . S
C57 C56 1.384 . S
C57 H79 0.929 . S
C58 O68 1.241 . S
C58 O69 1.273 . S
C59 O70 1.251 . S
C59 O71 1.268 . S
O60 Nd40 2.500 . S
O60 C42 1.258 . S
O61 Nd40 2.492 . S
O61 C42 1.239 . S
O62 Nd40 2.487 . S
O62 C49 1.241 . S
O63 Nd40 2.682 . S
O63 Nd41 2.414 . S
O63 C49 1.273 . S
O64 Nd40 2.410 . S
O64 C50 1.251 . S
O65 Nd41 2.424 . S
O65 C50 1.268 . S
O66 Nd41 2.500 . S
O66 C51 1.258 . S
O67 Nd41 2.492 . S
O67 C51 1.239 . S
O68 Nd41 2.487 . S
O68 C58 1.241 . S
O69 Nd40 2.414 . S
O69 Nd41 2.682 . S
O69 C58 1.273 . S
O70 Nd41 2.410 . S
O70 C59 1.251 . S
O71 Nd40 2.424 . S
O71 C59 1.268 . S
H72 C44 0.930 . S
H73 C45 0.929 1_565 S
H74 C47 0.930 . S
H75 C48 0.929 . S
H76 C53 0.930 . S
H77 C54 0.929 . S
H78 C56 0.930 . S
H79 C57 0.929 . S
Nd80 C82 2.836 . S
Nd80 O100 2.500 . S
Nd80 O101 2.492 . S
Nd80 O102 2.487 . S
Nd80 O103 2.682 . S
Nd80 O104 2.410 . S
Nd80 O109 2.414 . S
Nd80 O111 2.424 . S
Nd81 C91 2.836 . S
Nd81 O103 2.414 . S
Nd81 O105 2.424 . S
Nd81 O106 2.500 . S
Nd81 O107 2.492 . S
Nd81 O108 2.487 . S
Nd81 O109 2.682 . S
Nd81 O110 2.410 . S
C82 Nd80 2.836 . S
C82 C83 1.498 . S
C82 O100 1.258 . S
C82 O101 1.239 . S
C83 C82 1.498 . S
C83 C84 1.366 . S
C83 C88 1.407 . S
C84 C83 1.366 . S
C84 C85 1.392 . S
C84 H112 0.930 . S
C85 C84 1.392 . S
C85 C86 1.398 . S
C85 H113 0.929 . S
C86 C85 1.398 . S
C86 C87 1.352 . S
C87 C86 1.352 . S
C87 C88 1.384 . S
C87 H114 0.930 . S
C88 C83 1.407 . S
C88 C87 1.384 . S
C88 H115 0.929 . S
C89 O102 1.241 . S
C89 O103 1.273 . S
C90 O104 1.251 . S
C90 O105 1.268 . S
C91 Nd81 2.836 . S
C91 C92 1.498 . S
C91 O106 1.258 . S
C91 O107 1.239 . S
C92 C91 1.498 . S
C92 C93 1.366 . S
C92 C97 1.407 . S
C93 C92 1.366 . S
C93 C94 1.392 . S
C93 H116 0.930 . S
C94 C93 1.392 . S
C94 C95 1.398 . S
C94 H117 0.929 . S
C95 C94 1.398 . S
C95 C96 1.352 . S
C96 C95 1.352 . S
C96 C97 1.384 . S
C96 H118 0.930 . S
C97 C92 1.407 . S
C97 C96 1.384 . S
C97 H119 0.929 . S
C98 O108 1.241 . S
C98 O109 1.273 . S
C99 O110 1.251 . S
C99 O111 1.268 . S
O100 Nd80 2.500 . S
O100 C82 1.258 . S
O101 Nd80 2.492 . S
O101 C82 1.239 . S
O102 Nd80 2.487 . S
O102 C89 1.241 . S
O103 Nd80 2.682 . S
O103 Nd81 2.414 . S
O103 C89 1.273 . S
O104 Nd80 2.410 . S
O104 C90 1.251 . S
O105 Nd81 2.424 . S
O105 C90 1.268 . S
O106 Nd81 2.500 . S
O106 C91 1.258 . S
O107 Nd81 2.492 . S
O107 C91 1.239 . S
O108 Nd81 2.487 . S
O108 C98 1.241 . S
O109 Nd80 2.414 . S
O109 Nd81 2.682 . S
O109 C98 1.273 . S
O110 Nd81 2.410 . S
O110 C99 1.251 . S
O111 Nd80 2.424 . S
O111 C99 1.268 . S
H112 C84 0.930 . S
H113 C85 0.929 . S
H114 C87 0.930 . S
H115 C88 0.929 . S
H116 C93 0.930 . S
H117 C94 0.929 . S
H118 C96 0.930 . S
H119 C97 0.929 . S
Nd120 C122 2.836 . S
Nd120 O140 2.500 . S
Nd120 O141 2.492 . S
Nd120 O142 2.487 . S
Nd120 O143 2.682 . S
Nd120 O144 2.410 . S
Nd120 O149 2.414 . S
Nd120 O151 2.424 . S
Nd121 C131 2.836 1_554 S
Nd121 O143 2.414 . S
Nd121 O145 2.424 . S
Nd121 O146 2.500 1_554 S
Nd121 O147 2.492 1_554 S
Nd121 O148 2.487 . S
Nd121 O149 2.682 . S
Nd121 O150 2.410 1_554 S
C122 Nd120 2.836 . S
C122 C123 1.498 . S
C122 O140 1.258 . S
C122 O141 1.239 . S
C123 C122 1.498 . S
C123 C124 1.366 . S
C123 C128 1.407 . S
C124 C123 1.366 . S
C124 C125 1.392 . S
C124 H152 0.930 . S
C125 C124 1.392 . S
C125 C126 1.398 . S
C125 H153 0.929 1_655 S
C126 C125 1.398 . S
C126 C127 1.352 . S
C127 C126 1.352 . S
C127 C128 1.384 . S
C127 H154 0.930 . S
C128 C123 1.407 . S
C128 C127 1.384 . S
C128 H155 0.929 . S
C129 O142 1.241 . S
C129 O143 1.273 . S
C130 O144 1.251 . S
C130 O145 1.268 . S
C131 Nd121 2.836 1_556 S
C131 C132 1.498 . S
C131 O146 1.258 . S
C131 O147 1.239 . S
C132 C131 1.498 . S
C132 C133 1.366 . S
C132 C137 1.407 . S
C133 C132 1.366 . S
C133 C134 1.392 . S
C133 H156 0.930 . S
C134 C133 1.392 . S
C134 C135 1.398 . S
C134 H157 0.929 . S
C135 C134 1.398 . S
C135 C136 1.352 . S
C136 C135 1.352 . S
C136 C137 1.384 . S
C136 H158 0.930 . S
C137 C132 1.407 . S
C137 C136 1.384 . S
C137 H159 0.929 . S
C138 O148 1.241 . S
C138 O149 1.273 . S
C139 O150 1.251 . S
C139 O151 1.268 1_556 S
O140 Nd120 2.500 . S
O140 C122 1.258 . S
O141 Nd120 2.492 . S
O141 C122 1.239 . S
O142 Nd120 2.487 . S
O142 C129 1.241 . S
O143 Nd120 2.682 . S
O143 Nd121 2.414 . S
O143 C129 1.273 . S
O144 Nd120 2.410 . S
O144 C130 1.251 . S
O145 Nd121 2.424 . S
O145 C130 1.268 . S
O146 Nd121 2.500 1_556 S
O146 C131 1.258 . S
O147 Nd121 2.492 1_556 S
O147 C131 1.239 . S
O148 Nd121 2.487 . S
O148 C138 1.241 . S
O149 Nd120 2.414 . S
O149 Nd121 2.682 . S
O149 C138 1.273 . S
O150 Nd121 2.410 1_556 S
O150 C139 1.251 . S
O151 Nd120 2.424 . S
O151 C139 1.268 1_554 S
H152 C124 0.930 . S
H153 C125 0.929 1_455 S
H154 C127 0.930 . S
H155 C128 0.929 . S
H156 C133 0.930 . S
H157 C134 0.929 . S
H158 C136 0.930 . S
H159 C137 0.929 . S
Nd160 C162 2.836 . S
Nd160 O180 2.500 . S
Nd160 O181 2.492 . S
Nd160 O182 2.487 . S
Nd160 O183 2.682 . S
Nd160 O184 2.410 . S
Nd160 O189 2.414 . S
Nd160 O191 2.424 . S
Nd161 C171 2.836 . S
Nd161 O183 2.414 . S
Nd161 O185 2.424 . S
Nd161 O186 2.500 . S
Nd161 O187 2.492 . S
Nd161 O188 2.487 . S
Nd161 O189 2.682 . S
Nd161 O190 2.410 . S
C162 Nd160 2.836 . S
C162 C163 1.498 . S
C162 O180 1.258 . S
C162 O181 1.239 . S
C163 C162 1.498 . S
C163 C164 1.366 . S
C163 C168 1.407 . S
C164 C163 1.366 . S
C164 C165 1.392 . S
C164 H192 0.930 . S
C165 C164 1.392 . S
C165 C166 1.398 . S
C165 H193 0.929 1_565 S
C166 C165 1.398 . S
C166 C167 1.352 . S
C167 C166 1.352 . S
C167 C168 1.384 . S
C167 H194 0.930 . S
C168 C163 1.407 . S
C168 C167 1.384 . S
C168 H195 0.929 . S
C169 O182 1.241 . S
C169 O183 1.273 . S
C170 O184 1.251 . S
C170 O185 1.268 . S
C171 Nd161 2.836 . S
C171 C172 1.498 . S
C171 O186 1.258 . S
C171 O187 1.239 . S
C172 C171 1.498 . S
C172 C173 1.366 . S
C172 C177 1.407 . S
C173 C172 1.366 . S
C173 C174 1.392 . S
C173 H196 0.930 . S
C174 C173 1.392 . S
C174 C175 1.398 . S
C174 H197 0.929 . S
C175 C174 1.398 . S
C175 C176 1.352 . S
C176 C175 1.352 . S
C176 C177 1.384 . S
C176 H198 0.930 . S
C177 C172 1.407 . S
C177 C176 1.384 . S
C177 H199 0.929 . S
C178 O188 1.241 . S
C178 O189 1.273 . S
C179 O190 1.251 . S
C179 O191 1.268 . S
O180 Nd160 2.500 . S
O180 C162 1.258 . S
O181 Nd160 2.492 . S
O181 C162 1.239 . S
O182 Nd160 2.487 . S
O182 C169 1.241 . S
O183 Nd160 2.682 . S
O183 Nd161 2.414 . S
O183 C169 1.273 . S
O184 Nd160 2.410 . S
O184 C170 1.251 . S
O185 Nd161 2.424 . S
O185 C170 1.268 . S
O186 Nd161 2.500 . S
O186 C171 1.258 . S
O187 Nd161 2.492 . S
O187 C171 1.239 . S
O188 Nd161 2.487 . S
O188 C178 1.241 . S
O189 Nd160 2.414 . S
O189 Nd161 2.682 . S
O189 C178 1.273 . S
O190 Nd161 2.410 . S
O190 C179 1.251 . S
O191 Nd160 2.424 . S
O191 C179 1.268 . S
H192 C164 0.930 . S
H193 C165 0.929 1_545 S
H194 C167 0.930 . S
H195 C168 0.929 . S
H196 C173 0.930 . S
H197 C174 0.929 . S
H198 C176 0.930 . S
H199 C177 0.929 . S
Nd200 C202 2.836 . S
Nd200 O220 2.500 . S
Nd200 O221 2.492 . S
Nd200 O222 2.487 . S
Nd200 O223 2.682 . S
Nd200 O224 2.410 . S
Nd200 O229 2.414 . S
Nd200 O231 2.424 . S
Nd201 C211 2.836 . S
Nd201 O223 2.414 . S
Nd201 O225 2.424 . S
Nd201 O226 2.500 . S
Nd201 O227 2.492 . S
Nd201 O228 2.487 . S
Nd201 O229 2.682 . S
Nd201 O230 2.410 . S
C202 Nd200 2.836 . S
C202 C203 1.498 . S
C202 O220 1.258 . S
C202 O221 1.239 . S
C203 C202 1.498 . S
C203 C204 1.366 . S
C203 C208 1.407 . S
C204 C203 1.366 . S
C204 C205 1.392 . S
C204 H232 0.930 . S
C205 C204 1.392 . S
C205 C206 1.398 . S
C205 H233 0.929 . S
C206 C205 1.398 . S
C206 C207 1.352 . S
C207 C206 1.352 . S
C207 C208 1.384 . S
C207 H234 0.930 . S
C208 C203 1.407 . S
C208 C207 1.384 . S
C208 H235 0.929 . S
C209 O222 1.241 . S
C209 O223 1.273 . S
C210 O224 1.251 . S
C210 O225 1.268 . S
C211 Nd201 2.836 . S
C211 C212 1.498 . S
C211 O226 1.258 . S
C211 O227 1.239 . S
C212 C211 1.498 . S
C212 C213 1.366 . S
C212 C217 1.407 . S
C213 C212 1.366 . S
C213 C214 1.392 . S
C213 H236 0.930 . S
C214 C213 1.392 . S
C214 C215 1.398 . S
C214 H237 0.929 . S
C215 C214 1.398 . S
C215 C216 1.352 . S
C216 C215 1.352 . S
C216 C217 1.384 . S
C216 H238 0.930 . S
C217 C212 1.407 . S
C217 C216 1.384 . S
C217 H239 0.929 . S
C218 O228 1.241 . S
C218 O229 1.273 . S
C219 O230 1.251 . S
C219 O231 1.268 . S
O220 Nd200 2.500 . S
O220 C202 1.258 . S
O221 Nd200 2.492 . S
O221 C202 1.239 . S
O222 Nd200 2.487 . S
O222 C209 1.241 . S
O223 Nd200 2.682 . S
O223 Nd201 2.414 . S
O223 C209 1.273 . S
O224 Nd200 2.410 . S
O224 C210 1.251 . S
O225 Nd201 2.424 . S
O225 C210 1.268 . S
O226 Nd201 2.500 . S
O226 C211 1.258 . S
O227 Nd201 2.492 . S
O227 C211 1.239 . S
O228 Nd201 2.487 . S
O228 C218 1.241 . S
O229 Nd200 2.414 . S
O229 Nd201 2.682 . S
O229 C218 1.273 . S
O230 Nd201 2.410 . S
O230 C219 1.251 . S
O231 Nd200 2.424 . S
O231 C219 1.268 . S
H232 C204 0.930 . S
H233 C205 0.929 . S
H234 C207 0.930 . S
H235 C208 0.929 . S
H236 C213 0.930 . S
H237 C214 0.929 . S
H238 C216 0.930 . S
H239 C217 0.929 . S
H240 C246 0.930 . S
H241 C249 0.930 . S
H242 C250 0.930 . S
H243 C251 0.930 . S
H244 C254 0.930 . S
H245 C255 0.930 . S
C246 H240 0.930 . S
C246 C247 1.355 . S
C246 C248 1.415 . S
C247 C246 1.355 . S
C247 C249 1.419 . S
C248 C246 1.415 . S
C248 C253 1.425 . S
C248 C255 1.409 . S
C249 H241 0.930 . S
C249 C247 1.419 . S
C249 C250 1.362 . S
C250 H242 0.930 . S
C250 C249 1.362 . S
C250 C253 1.409 . S
C251 H243 0.930 . S
C251 C252 1.355 . S
C251 C253 1.415 . S
C252 C251 1.355 . S
C252 C254 1.419 . S
C253 C248 1.425 . S
C253 C250 1.409 . S
C253 C251 1.415 . S
C254 H244 0.930 . S
C254 C252 1.419 . S
C254 C255 1.362 . S
C255 H245 0.930 . S
C255 C248 1.409 . S
C255 C254 1.362 . S
H256 C262 0.930 . S
H257 C265 0.930 . S
H258 C266 0.930 . S
H259 C267 0.930 . S
H260 C270 0.930 . S
H261 C271 0.930 . S
C262 H256 0.930 . S
C262 C263 1.355 . S
C262 C264 1.415 . S
C263 C262 1.355 . S
C263 C265 1.419 . S
C264 C262 1.415 . S
C264 C269 1.425 . S
C264 C271 1.409 . S
C265 H257 0.930 . S
C265 C263 1.419 . S
C265 C266 1.362 . S
C266 H258 0.930 . S
C266 C265 1.362 . S
C266 C269 1.409 . S
C267 H259 0.930 . S
C267 C268 1.355 . S
C267 C269 1.415 . S
C268 C267 1.355 . S
C268 C270 1.419 . S
C269 C264 1.425 . S
C269 C266 1.409 . S
C269 C267 1.415 . S
C270 H260 0.930 . S
C270 C268 1.419 . S
C270 C271 1.362 . S
C271 H261 0.930 . S
C271 C264 1.409 . S
C271 C270 1.362 . S
H272 C278 0.930 . S
H273 C281 0.930 . S
H274 C282 0.930 . S
H275 C283 0.930 . S
H276 C286 0.930 . S
H277 C287 0.930 . S
C278 H272 0.930 . S
C278 C279 1.355 . S
C278 C280 1.415 . S
C279 C278 1.355 . S
C279 C281 1.419 . S
C280 C278 1.415 . S
C280 C285 1.425 . S
C280 C287 1.409 . S
C281 H273 0.930 . S
C281 C279 1.419 . S
C281 C282 1.362 . S
C282 H274 0.930 . S
C282 C281 1.362 . S
C282 C285 1.409 . S
C283 H275 0.930 . S
C283 C284 1.355 . S
C283 C285 1.415 . S
C284 C283 1.355 . S
C284 C286 1.419 . S
C285 C280 1.425 . S
C285 C282 1.409 . S
C285 C283 1.415 . S
C286 H276 0.930 . S
C286 C284 1.419 . S
C286 C287 1.362 . S
C287 H277 0.930 . S
C287 C280 1.409 . S
C287 C286 1.362 . S
H288 C294 0.930 . S
H289 C297 0.930 . S
H290 C298 0.930 . S
H291 C299 0.930 . S
H292 C302 0.930 . S
H293 C303 0.930 . S
C294 H288 0.930 . S
C294 C295 1.355 . S
C294 C296 1.415 . S
C295 C294 1.355 . S
C295 C297 1.419 . S
C296 C294 1.415 . S
C296 C301 1.425 . S
C296 C303 1.409 . S
C297 H289 0.930 . S
C297 C295 1.419 . S
C297 C298 1.362 . S
C298 H290 0.930 . S
C298 C297 1.362 . S
C298 C301 1.409 . S
C299 H291 0.930 . S
C299 C300 1.355 . S
C299 C301 1.415 . S
C300 C299 1.355 . S
C300 C302 1.419 . S
C301 C296 1.425 . S
C301 C298 1.409 . S
C301 C299 1.415 . S
C302 H292 0.930 . S
C302 C300 1.419 . S
C302 C303 1.362 . S
C303 H293 0.930 . S
C303 C296 1.409 . S
C303 C302 1.362 . S
H304 C310 0.930 . S
H305 C313 0.930 . S
H306 C314 0.930 . S
H307 C315 0.930 . S
H308 C318 0.930 . S
H309 C319 0.930 . S
C310 H304 0.930 . S
C310 C311 1.355 . S
C310 C312 1.415 . S
C311 C310 1.355 . S
C311 C313 1.419 . S
C312 C310 1.415 . S
C312 C317 1.425 . S
C312 C319 1.409 . S
C313 H305 0.930 . S
C313 C311 1.419 . S
C313 C314 1.362 . S
C314 H306 0.930 . S
C314 C313 1.362 . S
C314 C317 1.409 . S
C315 H307 0.930 . S
C315 C316 1.355 . S
C315 C317 1.415 . S
C316 C315 1.355 . S
C316 C318 1.419 . S
C317 C312 1.425 . S
C317 C314 1.409 . S
C317 C315 1.415 . S
C318 H308 0.930 . S
C318 C316 1.419 . S
C318 C319 1.362 . S
C319 H309 0.930 . S
C319 C312 1.409 . S
C319 C318 1.362 . S
H320 C326 0.930 . S
H321 C329 0.930 . S
H322 C330 0.930 . S
H323 C331 0.930 . S
H324 C334 0.930 . S
H325 C335 0.930 . S
C326 H320 0.930 . S
C326 C327 1.355 . S
C326 C328 1.415 . S
C327 C326 1.355 . S
C327 C329 1.419 . S
C328 C326 1.415 . S
C328 C333 1.425 . S
C328 C335 1.409 . S
C329 H321 0.930 . S
C329 C327 1.419 . S
C329 C330 1.362 . S
C330 H322 0.930 . S
C330 C329 1.362 . S
C330 C333 1.409 . S
C331 H323 0.930 . S
C331 C332 1.355 . S
C331 C333 1.415 . S
C332 C331 1.355 . S
C332 C334 1.419 . S
C333 C328 1.425 . S
C333 C330 1.409 . S
C333 C331 1.415 . S
C334 H324 0.930 . S
C334 C332 1.419 . S
C334 C335 1.362 . S
C335 H325 0.930 . S
C335 C328 1.409 . S
C335 C334 1.362 . S
H336 C342 0.930 . S
H337 C345 0.930 . S
H338 C346 0.930 . S
H339 C347 0.930 . S
H340 C350 0.930 . S
H341 C351 0.930 . S
C342 H336 0.930 . S
C342 C343 1.355 . S
C342 C344 1.415 . S
C343 C342 1.355 . S
C343 C345 1.419 . S
C344 C342 1.415 . S
C344 C349 1.425 . S
C344 C351 1.409 . S
C345 H337 0.930 . S
C345 C343 1.419 . S
C345 C346 1.362 . S
C346 H338 0.930 . S
C346 C345 1.362 . S
C346 C349 1.409 . S
C347 H339 0.930 . S
C347 C348 1.355 . S
C347 C349 1.415 . S
C348 C347 1.355 . S
C348 C350 1.419 . S
C349 C344 1.425 . S
C349 C346 1.409 . S
C349 C347 1.415 . S
C350 H340 0.930 . S
C350 C348 1.419 . S
C350 C351 1.362 . S
C351 H341 0.930 . S
C351 C344 1.409 . S
C351 C350 1.362 . S
H352 C358 0.930 . S
H353 C361 0.930 . S
H354 C362 0.930 . S
H355 C363 0.930 . S
H356 C366 0.930 . S
H357 C367 0.930 . S
C358 H352 0.930 . S
C358 C359 1.355 . S
C358 C360 1.415 . S
C359 C358 1.355 . S
C359 C361 1.419 1_455 S
C360 C358 1.415 . S
C360 C365 1.425 1_455 S
C360 C367 1.409 . S
C361 H353 0.930 . S
C361 C359 1.419 1_655 S
C361 C362 1.362 . S
C362 H354 0.930 . S
C362 C361 1.362 . S
C362 C365 1.409 . S
C363 H355 0.930 . S
C363 C364 1.355 . S
C363 C365 1.415 . S
C364 C363 1.355 . S
C364 C366 1.419 1_655 S
C365 C360 1.425 1_655 S
C365 C362 1.409 . S
C365 C363 1.415 . S
C366 H356 0.930 . S
C366 C364 1.419 1_455 S
C366 C367 1.362 . S
C367 H357 0.930 . S
C367 C360 1.409 . S
C367 C366 1.362 . S
H368 C374 0.930 . S
H369 C377 0.930 . S
H370 C378 0.930 . S
H371 C379 0.930 . S
H372 C382 0.930 . S
H373 C383 0.930 . S
C374 H368 0.930 . S
C374 C375 1.355 . S
C374 C376 1.415 . S
C375 C374 1.355 . S
C375 C377 1.419 . S
C376 C374 1.415 . S
C376 C381 1.425 1_545 S
C376 C383 1.409 . S
C377 H369 0.930 . S
C377 C375 1.419 . S
C377 C378 1.362 1_545 S
C378 H370 0.930 . S
C378 C377 1.362 1_565 S
C378 C381 1.409 . S
C379 H371 0.930 . S
C379 C380 1.355 . S
C379 C381 1.415 . S
C380 C379 1.355 . S
C380 C382 1.419 . S
C381 C376 1.425 1_565 S
C381 C378 1.409 . S
C381 C379 1.415 . S
C382 H372 0.930 . S
C382 C380 1.419 . S
C382 C383 1.362 1_565 S
C383 H373 0.930 . S
C383 C376 1.409 . S
C383 C382 1.362 1_545 S
H384 C390 0.930 . S
H385 C393 0.930 . S
H386 C394 0.930 . S
H387 C395 0.930 . S
H388 C398 0.930 . S
H389 C399 0.930 . S
C390 H384 0.930 . S
C390 C391 1.355 . S
C390 C392 1.415 . S
C391 C390 1.355 . S
C391 C393 1.419 . S
C392 C390 1.415 . S
C392 C397 1.425 . S
C392 C399 1.409 . S
C393 H385 0.930 . S
C393 C391 1.419 . S
C393 C394 1.362 . S
C394 H386 0.930 . S
C394 C393 1.362 . S
C394 C397 1.409 . S
C395 H387 0.930 . S
C395 C396 1.355 . S
C395 C397 1.415 . S
C396 C395 1.355 . S
C396 C398 1.419 . S
C397 C392 1.425 . S
C397 C394 1.409 . S
C397 C395 1.415 . S
C398 H388 0.930 . S
C398 C396 1.419 . S
C398 C399 1.362 . S
C399 H389 0.930 . S
C399 C392 1.409 . S
C399 C398 1.362 . S
H400 C406 0.930 . S
H401 C409 0.930 . S
H402 C410 0.930 . S
H403 C411 0.930 . S
H404 C414 0.930 . S
H405 C415 0.930 . S
C406 H400 0.930 . S
C406 C407 1.355 1_655 S
C406 C408 1.415 . S
C407 C406 1.355 1_455 S
C407 C409 1.419 . S
C408 C406 1.415 . S
C408 C413 1.425 1_655 S
C408 C415 1.409 . S
C409 H401 0.930 . S
C409 C407 1.419 . S
C409 C410 1.362 . S
C410 H402 0.930 . S
C410 C409 1.362 . S
C410 C413 1.409 . S
C411 H403 0.930 . S
C411 C412 1.355 1_455 S
C411 C413 1.415 . S
C412 C411 1.355 1_655 S
C412 C414 1.419 . S
C413 C408 1.425 1_455 S
C413 C410 1.409 . S
C413 C411 1.415 . S
C414 H404 0.930 . S
C414 C412 1.419 . S
C414 C415 1.362 . S
C415 H405 0.930 . S
C415 C408 1.409 . S
C415 C414 1.362 . S
H416 C422 0.930 . S
H417 C425 0.930 . S
H418 C426 0.930 . S
H419 C427 0.930 . S
H420 C430 0.930 . S
H421 C431 0.930 . S
C422 H416 0.930 . S
C422 C423 1.355 . S
C422 C424 1.415 . S
C423 C422 1.355 . S
C423 C425 1.419 . S
C424 C422 1.415 . S
C424 C429 1.425 1_565 S
C424 C431 1.409 . S
C425 H417 0.930 . S
C425 C423 1.419 . S
C425 C426 1.362 1_565 S
C426 H418 0.930 . S
C426 C425 1.362 1_545 S
C426 C429 1.409 . S
C427 H419 0.930 . S
C427 C428 1.355 . S
C427 C429 1.415 . S
C428 C427 1.355 . S
C428 C430 1.419 . S
C429 C424 1.425 1_545 S
C429 C426 1.409 . S
C429 C427 1.415 . S
C430 H420 0.930 . S
C430 C428 1.419 . S
C430 C431 1.362 1_545 S
C431 H421 0.930 . S
C431 C424 1.409 . S
C431 C430 1.362 1_565 S
H432 C438 0.930 . S
H433 C441 0.930 . S
H434 C442 0.930 . S
H435 C443 0.930 . S
H436 C446 0.930 . S
H437 C447 0.930 . S
C438 H432 0.930 . S
C438 C439 1.355 . S
C438 C440 1.415 . S
C439 C438 1.355 . S
C439 C441 1.419 . S
C440 C438 1.415 . S
C440 C445 1.425 . S
C440 C447 1.409 . S
C441 H433 0.930 . S
C441 C439 1.419 . S
C441 C442 1.362 . S
C442 H434 0.930 . S
C442 C441 1.362 . S
C442 C445 1.409 . S
C443 H435 0.930 . S
C443 C444 1.355 . S
C443 C445 1.415 . S
C444 C443 1.355 . S
C444 C446 1.419 . S
C445 C440 1.425 . S
C445 C442 1.409 . S
C445 C443 1.415 . S
C446 H436 0.930 . S
C446 C444 1.419 . S
C446 C447 1.362 . S
C447 H437 0.930 . S
C447 C440 1.409 . S
C447 C446 1.362 . S
H448 C454 0.930 . S
H449 C457 0.930 . S
H450 C458 0.930 . S
H451 C459 0.930 . S
H452 C462 0.930 . S
H453 C463 0.930 . S
C454 H448 0.930 . S
C454 C455 1.355 . S
C454 C456 1.415 . S
C455 C454 1.355 . S
C455 C457 1.419 . S
C456 C454 1.415 . S
C456 C461 1.425 . S
C456 C463 1.409 1_655 S
C457 H449 0.930 . S
C457 C455 1.419 . S
C457 C458 1.362 . S
C458 H450 0.930 . S
C458 C457 1.362 . S
C458 C461 1.409 . S
C459 H451 0.930 . S
C459 C460 1.364 . S
C459 C461 1.415 . S
C460 C459 1.364 . S
C460 C462 1.413 1_655 S
C461 C456 1.425 . S
C461 C458 1.409 . S
C461 C459 1.415 . S
C462 H452 0.930 . S
C462 C460 1.413 1_455 S
C462 C463 1.362 . S
C463 H453 0.930 . S
C463 C456 1.409 1_455 S
C463 C462 1.362 . S
H464 C470 0.930 . S
H465 C473 0.930 . S
H466 C474 0.930 . S
H467 C475 0.930 . S
H468 C478 0.930 . S
H469 C479 0.930 . S
C470 H464 0.930 . S
C470 C471 1.355 . S
C470 C472 1.415 . S
C471 C470 1.355 . S
C471 C473 1.419 . S
C472 C470 1.415 . S
C472 C477 1.425 . S
C472 C479 1.409 . S
C473 H465 0.930 . S
C473 C471 1.419 . S
C473 C474 1.362 1_565 S
C474 H466 0.930 . S
C474 C473 1.362 1_545 S
C474 C477 1.409 1_545 S
C475 H467 0.930 . S
C475 C476 1.355 1_545 S
C475 C477 1.415 1_545 S
C476 C475 1.355 1_565 S
C476 C478 1.419 . S
C477 C472 1.425 . S
C477 C474 1.409 1_565 S
C477 C475 1.415 1_565 S
C478 H468 0.930 . S
C478 C476 1.419 . S
C478 C479 1.362 . S
C479 H469 0.930 . S
C479 C472 1.409 . S
C479 C478 1.362 . S
H480 C486 0.930 . S
H481 C489 0.930 . S
H482 C490 0.930 . S
H483 C491 0.930 . S
H484 C494 0.930 . S
H485 C495 0.930 . S
C486 H480 0.930 . S
C486 C487 1.355 . S
C486 C488 1.415 . S
C487 C486 1.355 . S
C487 C489 1.419 . S
C488 C486 1.415 . S
C488 C493 1.425 . S
C488 C495 1.409 . S
C489 H481 0.930 . S
C489 C487 1.419 . S
C489 C490 1.362 . S
C490 H482 0.930 . S
C490 C489 1.362 . S
C490 C493 1.409 . S
C491 H483 0.930 . S
C491 C492 1.355 . S
C491 C493 1.415 . S
C492 C491 1.355 . S
C492 C494 1.419 . S
C493 C488 1.425 . S
C493 C490 1.409 . S
C493 C491 1.415 . S
C494 H484 0.930 . S
C494 C492 1.419 . S
C494 C495 1.362 . S
C495 H485 0.930 . S
C495 C488 1.409 . S
C495 C494 1.362 . S
H496 C502 0.930 . S
H497 C505 0.930 . S
H498 C506 0.930 . S
H499 C507 0.930 1_655 S
H500 C510 0.930 . S
H501 C511 0.930 . S
C502 H496 0.930 . S
C502 C503 1.355 . S
C502 C504 1.415 . S
C503 C502 1.355 . S
C503 C505 1.419 . S
C504 C502 1.415 . S
C504 C509 1.425 . S
C504 C511 1.409 . S
C505 H497 0.930 . S
C505 C503 1.419 . S
C505 C506 1.362 . S
C506 H498 0.930 . S
C506 C505 1.362 . S
C506 C509 1.409 . S
C507 H499 0.930 1_455 S
C507 C508 1.355 . S
C507 C509 1.415 . S
C508 C507 1.355 . S
C508 C510 1.419 . S
C509 C504 1.425 . S
C509 C506 1.409 . S
C509 C507 1.415 . S
C510 H500 0.930 . S
C510 C508 1.419 . S
C510 C511 1.362 . S
C511 H501 0.930 . S
C511 C504 1.409 . S
C511 C510 1.362 . S
H512 C518 0.930 . S
H513 C521 0.930 . S
H514 C522 0.930 . S
H515 C523 0.930 . S
H516 C526 0.930 . S
H517 C527 0.930 . S
C518 H512 0.930 . S
C518 C519 1.355 . S
C518 C520 1.415 . S
C519 C518 1.355 . S
C519 C521 1.419 . S
C520 C518 1.415 . S
C520 C525 1.425 . S
C520 C527 1.409 1_545 S
C521 H513 0.930 . S
C521 C519 1.419 . S
C521 C522 1.362 . S
C522 H514 0.930 . S
C522 C521 1.362 . S
C522 C525 1.409 . S
C523 H515 0.930 . S
C523 C524 1.355 . S
C523 C525 1.415 . S
C524 C523 1.355 . S
C524 C526 1.419 1_545 S
C525 C520 1.425 . S
C525 C522 1.409 . S
C525 C523 1.415 . S
C526 H516 0.930 . S
C526 C524 1.419 1_565 S
C526 C527 1.362 . S
C527 H517 0.930 . S
C527 C520 1.409 1_565 S
C527 C526 1.362 . S
C247 C175 1.209 . S
C252 C10 1.181 . S
C263 C215 1.209 . S
C268 C50 1.181 . S
C279 C15 1.208 . S
C284 C90 1.182 . S
C295 C55 1.208 . S
C300 C130 1.204 . S
C311 C95 1.208 . S
C316 C170 1.183 . S
C327 C135 1.210 . S
C332 C210 1.219 . S
C343 C9 1.254 . S
C348 C129 1.275 . S
C359 C169 1.295 . S
C364 C49 1.287 . S
C375 C209 1.285 . S
C380 C89 1.260 . S
C391 C98 1.063 . S
C396 C218 1.085 . S
C407 C18 1.046 . S
C412 C138 1.057 . S
C423 C178 1.158 . S
C428 C58 1.179 . S
C439 C206 1.338 . S
C444 C19 1.387 . S
C455 C59 1.395 . S
C460 C6 1.383 1_655 S
C471 C99 1.396 . S
C476 C46 1.356 1_565 S
C487 C86 1.388 . S
C492 C139 1.405 . S
C503 C179 1.379 . S
C508 C126 1.327 1_455 S
C519 C219 1.396 . S
C524 C166 1.387 1_545 S
