# Generated by pormake.
# Topology umd, (4)-cn, num edge types: 1
# Building blocks:
#     Node 0, Type 0, BuildingBlock: ESEHIV_clean_sbu_0, # of connection points: 4
#     Node 1, Type 0, BuildingBlock: ESEHIV_clean_sbu_0, # of connection points: 4
#     Node 2, Type 0, BuildingBlock: ESEHIV_clean_sbu_0, # of connection points: 4
#     Node 3, Type 0, BuildingBlock: ESEHIV_clean_sbu_0, # of connection points: 4
#     Node 4, Type 0, BuildingBlock: ESEHIV_clean_sbu_0, # of connection points: 4
#     Node 5, Type 0, BuildingBlock: ESEHIV_clean_sbu_0, # of connection points: 4
#     Node 6, Type 0, BuildingBlock: ESEHIV_clean_sbu_0, # of connection points: 4
#     Node 7, Type 0, BuildingBlock: ESEHIV_clean_sbu_0, # of connection points: 4
#     Node 8, Type 0, BuildingBlock: ESEHIV_clean_sbu_0, # of connection points: 4
#     Node 9, Type 0, BuildingBlock: ESEHIV_clean_sbu_0, # of connection points: 4
#     Node 10, Type 0, BuildingBlock: ESEHIV_clean_sbu_0, # of connection points: 4
#     Node 11, Type 0, BuildingBlock: ESEHIV_clean_sbu_0, # of connection points: 4
#     Node 12, Type 0, BuildingBlock: ESEHIV_clean_sbu_0, # of connection points: 4
#     Node 13, Type 0, BuildingBlock: ESEHIV_clean_sbu_0, # of connection points: 4
#     Node 14, Type 0, BuildingBlock: ESEHIV_clean_sbu_0, # of connection points: 4
#     Node 15, Type 0, BuildingBlock: ESEHIV_clean_sbu_0, # of connection points: 4
#     Edge 16, Type (0, 0), BuildingBlock: XIVTED_clean_linker_0, # of connection points: 2
#     Edge 17, Type (0, 0), BuildingBlock: XIVTED_clean_linker_0, # of connection points: 2
#     Edge 18, Type (0, 0), BuildingBlock: XIVTED_clean_linker_0, # of connection points: 2
#     Edge 19, Type (0, 0), BuildingBlock: XIVTED_clean_linker_0, # of connection points: 2
#     Edge 20, Type (0, 0), BuildingBlock: XIVTED_clean_linker_0, # of connection points: 2
#     Edge 21, Type (0, 0), BuildingBlock: XIVTED_clean_linker_0, # of connection points: 2
#     Edge 22, Type (0, 0), BuildingBlock: XIVTED_clean_linker_0, # of connection points: 2
#     Edge 23, Type (0, 0), BuildingBlock: XIVTED_clean_linker_0, # of connection points: 2
#     Edge 24, Type (0, 0), BuildingBlock: XIVTED_clean_linker_0, # of connection points: 2
#     Edge 25, Type (0, 0), BuildingBlock: XIVTED_clean_linker_0, # of connection points: 2
#     Edge 26, Type (0, 0), BuildingBlock: XIVTED_clean_linker_0, # of connection points: 2
#     Edge 27, Type (0, 0), BuildingBlock: XIVTED_clean_linker_0, # of connection points: 2
#     Edge 28, Type (0, 0), BuildingBlock: XIVTED_clean_linker_0, # of connection points: 2
#     Edge 29, Type (0, 0), BuildingBlock: XIVTED_clean_linker_0, # of connection points: 2
#     Edge 30, Type (0, 0), BuildingBlock: XIVTED_clean_linker_0, # of connection points: 2
#     Edge 31, Type (0, 0), BuildingBlock: XIVTED_clean_linker_0, # of connection points: 2
#     Edge 32, Type (0, 0), BuildingBlock: XIVTED_clean_linker_0, # of connection points: 2
#     Edge 33, Type (0, 0), BuildingBlock: XIVTED_clean_linker_0, # of connection points: 2
#     Edge 34, Type (0, 0), BuildingBlock: XIVTED_clean_linker_0, # of connection points: 2
#     Edge 35, Type (0, 0), BuildingBlock: XIVTED_clean_linker_0, # of connection points: 2
#     Edge 36, Type (0, 0), BuildingBlock: XIVTED_clean_linker_0, # of connection points: 2
#     Edge 37, Type (0, 0), BuildingBlock: XIVTED_clean_linker_0, # of connection points: 2
#     Edge 38, Type (0, 0), BuildingBlock: XIVTED_clean_linker_0, # of connection points: 2
#     Edge 39, Type (0, 0), BuildingBlock: XIVTED_clean_linker_0, # of connection points: 2
#     Edge 40, Type (0, 0), BuildingBlock: XIVTED_clean_linker_0, # of connection points: 2
#     Edge 41, Type (0, 0), BuildingBlock: XIVTED_clean_linker_0, # of connection points: 2
#     Edge 42, Type (0, 0), BuildingBlock: XIVTED_clean_linker_0, # of connection points: 2
#     Edge 43, Type (0, 0), BuildingBlock: XIVTED_clean_linker_0, # of connection points: 2
#     Edge 44, Type (0, 0), BuildingBlock: XIVTED_clean_linker_0, # of connection points: 2
#     Edge 45, Type (0, 0), BuildingBlock: XIVTED_clean_linker_0, # of connection points: 2
#     Edge 46, Type (0, 0), BuildingBlock: XIVTED_clean_linker_0, # of connection points: 2
#     Edge 47, Type (0, 0), BuildingBlock: XIVTED_clean_linker_0, # of connection points: 2
# Relax obj value: 0.041
# Max RMSD: 0.125
# Mean RMSD: 0.125
data_MOF--net-umd--node1-ESEHIV_clean_sbu_0--edge1-XIVTED_clean_linker_0
_symmetry_space_group_name_H-M    P1
_symmetry_Int_Tables_number       1
_symmetry_cell_setting            triclinic
loop_
_symmetry_equiv_pos_as_xyz
'x, y, z'
_cell_length_a     48.025065
_cell_length_b     48.232271
_cell_length_c     55.289625
_cell_angle_alpha  90.156542
_cell_angle_beta   90.068316
_cell_angle_gamma 89.974019
loop_
_atom_site_label
_atom_site_type_symbol
_atom_site_fract_x
_atom_site_fract_y
_atom_site_fract_z
_atom_type_partial_charge
Cu0 Cu 0.17776 0.42945 0.15794 0.0
N1 N 0.13913 0.43284 0.15473 0.0
N2 N 0.09578 0.44974 0.15504 0.0
C3 C 0.12266 0.45427 0.1611 0.0
C4 C 0.09533 0.42444 0.14459 0.0
C5 C 0.12209 0.41414 0.14434 0.0
O6 O 0.19109 0.45238 0.18455 0.0
C7 C 0.18585 0.45477 0.11194 0.0
O8 O 0.16579 0.47155 0.11879 0.0
H9 H 0.13016 0.47282 0.16995 0.0
H10 H 0.12879 0.39455 0.13676 0.0
N11 N 0.18581 0.39286 0.16609 0.0
N12 N 0.20838 0.35264 0.17026 0.0
C13 C 0.20942 0.37875 0.16148 0.0
C14 C 0.16933 0.37524 0.17828 0.0
C15 C 0.18314 0.35038 0.18081 0.0
C16 C 0.18945 0.47866 0.18578 0.0
O17 O 0.18005 0.49263 0.16713 0.0
H18 H 0.22688 0.38743 0.15173 0.0
H19 H 0.14879 0.38023 0.18502 0.0
O20 O 0.195 0.43673 0.12674 0.0
H21 H 0.07714 0.41445 0.13697 0.0
H22 H 0.17539 0.33226 0.19013 0.0
Cu23 Cu 0.59846 0.1754 0.65104 0.0
N24 N 0.59671 0.1368 0.65126 0.0
N25 N 0.58075 0.09364 0.65593 0.0
C26 C 0.57704 0.12073 0.66143 0.0
C27 C 0.60359 0.09279 0.64174 0.0
C28 C 0.61322 0.11941 0.63875 0.0
O29 O 0.57435 0.18891 0.67686 0.0
C30 C 0.58897 0.20894 0.60791 0.0
O31 O 0.59918 0.2303 0.61969 0.0
H32 H 0.56 0.12887 0.6721 0.0
H33 H 0.63047 0.12581 0.62752 0.0
N34 N 0.63544 0.18608 0.65671 0.0
N35 N 0.67394 0.21119 0.66294 0.0
C36 C 0.64658 0.21175 0.65718 0.0
C37 C 0.65645 0.16886 0.66259 0.0
C38 C 0.68015 0.18421 0.66635 0.0
C39 C 0.58291 0.18714 0.69864 0.0
O40 O 0.60817 0.17777 0.70272 0.0
H41 H 0.63475 0.23049 0.65416 0.0
H42 H 0.65462 0.14666 0.66449 0.0
O43 O 0.58638 0.18575 0.61861 0.0
H44 H 0.61194 0.07442 0.63311 0.0
H45 H 0.70043 0.17608 0.67111 0.0
Cu46 Cu 0.85353 0.59919 0.16217 0.0
N47 N 0.89245 0.59814 0.16321 0.0
N48 N 0.93616 0.5819 0.1634 0.0
C49 C 0.90875 0.5754 0.16309 0.0
C50 C 0.93696 0.6099 0.16364 0.0
C51 C 0.91007 0.6198 0.1634 0.0
O52 O 0.83972 0.57828 0.18969 0.0
C53 C 0.81883 0.58431 0.12076 0.0
O54 O 0.79691 0.59132 0.13358 0.0
H55 H 0.90058 0.55456 0.16218 0.0
H56 H 0.90389 0.64134 0.16309 0.0
N57 N 0.84207 0.63587 0.16704 0.0
N58 N 0.81877 0.67605 0.16666 0.0
C59 C 0.82176 0.65078 0.15627 0.0
C60 C 0.85194 0.65215 0.18487 0.0
C61 C 0.83783 0.67691 0.1846 0.0
C62 C 0.84151 0.55222 0.19282 0.0
O63 O 0.85077 0.53647 0.17516 0.0
H64 H 0.8092 0.64322 0.14142 0.0
H65 H 0.86782 0.64604 0.19768 0.0
O66 O 0.84295 0.58543 0.13029 0.0
H67 H 0.95556 0.62252 0.16402 0.0
H68 H 0.84054 0.69375 0.19735 0.0
Cu69 Cu 0.43603 0.85008 0.66018 0.0
N70 N 0.43758 0.88868 0.65992 0.0
N71 N 0.45394 0.93194 0.66269 0.0
C72 C 0.45857 0.9049 0.66773 0.0
C73 C 0.42909 0.9326 0.65127 0.0
C74 C 0.41917 0.90591 0.64945 0.0
O75 O 0.46053 0.83716 0.68596 0.0
C76 C 0.44825 0.81452 0.61884 0.0
O77 O 0.4423 0.79306 0.63243 0.0
H78 H 0.47711 0.8969 0.6764 0.0
H79 H 0.40032 0.89938 0.64036 0.0
N80 N 0.39917 0.83939 0.66626 0.0
N81 N 0.36013 0.8146 0.67058 0.0
C82 C 0.38709 0.81431 0.66356 0.0
C83 C 0.37916 0.85595 0.67534 0.0
C84 C 0.35514 0.84081 0.67798 0.0
C85 C 0.45245 0.84017 0.70776 0.0
O86 O 0.42761 0.85057 0.71184 0.0
H87 H 0.39795 0.7961 0.6572 0.0
H88 H 0.38195 0.87751 0.68013 0.0
O89 O 0.44753 0.83882 0.62785 0.0
H90 H 0.41937 0.95087 0.64369 0.0
H91 H 0.33547 0.84862 0.68468 0.0
Cu92 Cu 0.17349 0.59748 0.38769 0.0
N93 N 0.13607 0.59804 0.39639 0.0
N94 N 0.09225 0.58424 0.40221 0.0
C95 C 0.11633 0.57945 0.39033 0.0
C96 C 0.09703 0.60675 0.41616 0.0
C97 C 0.12408 0.61525 0.41247 0.0
O98 O 0.1772 0.5743 0.35917 0.0
C99 C 0.1869 0.56407 0.42754 0.0
O100 O 0.16805 0.54769 0.41788 0.0
H101 H 0.12003 0.56192 0.3785 0.0
H102 H 0.13464 0.63216 0.42153 0.0
N103 N 0.18396 0.63322 0.37904 0.0
N104 N 0.20811 0.67242 0.37421 0.0
C105 C 0.20751 0.64704 0.38458 0.0
C106 C 0.16924 0.65023 0.3647 0.0
C107 C 0.18401 0.67439 0.36168 0.0
C108 C 0.19906 0.56193 0.35197 0.0
O109 O 0.22159 0.56234 0.36545 0.0
H110 H 0.22372 0.63863 0.39602 0.0
H111 H 0.14928 0.64519 0.35675 0.0
O112 O 0.19421 0.58572 0.41609 0.0
H113 H 0.08222 0.61602 0.42851 0.0
H114 H 0.17766 0.69178 0.35066 0.0
Cu115 Cu 0.43888 0.18149 0.89032 0.0
N116 N 0.44072 0.14327 0.89488 0.0
N117 N 0.45564 0.09941 0.89491 0.0
C118 C 0.46103 0.12572 0.88796 0.0
C119 C 0.43102 0.1006 0.90663 0.0
C120 C 0.42194 0.12767 0.90665 0.0
O121 O 0.46424 0.19187 0.86427 0.0
C122 C 0.46579 0.19102 0.93546 0.0
O123 O 0.48318 0.17175 0.92807 0.0
H124 H 0.47936 0.13218 0.87811 0.0
H125 H 0.40313 0.13556 0.91491 0.0
N126 N 0.40234 0.19046 0.8818 0.0
N127 N 0.36212 0.21334 0.87772 0.0
C128 C 0.38885 0.21463 0.88539 0.0
C129 C 0.3836 0.17334 0.87159 0.0
C130 C 0.35886 0.18737 0.86897 0.0
C131 C 0.45744 0.18539 0.84268 0.0
O132 O 0.43379 0.17241 0.83898 0.0
H133 H 0.39834 0.23251 0.89389 0.0
H134 H 0.38767 0.15209 0.86642 0.0
O135 O 0.44673 0.19932 0.92118 0.0
H136 H 0.42067 0.08331 0.91523 0.0
H137 H 0.34004 0.17906 0.86099 0.0
Cu138 Cu 0.84987 0.43382 0.39592 0.0
N139 N 0.88753 0.43815 0.40319 0.0
N140 N 0.92975 0.45669 0.40799 0.0
C141 C 0.90511 0.4584 0.39626 0.0
C142 C 0.9276 0.43452 0.42267 0.0
C143 C 0.90157 0.42314 0.41966 0.0
O144 O 0.84106 0.45311 0.36601 0.0
C145 C 0.82597 0.42998 0.44213 0.0
O146 O 0.83312 0.40388 0.43946 0.0
H147 H 0.89949 0.47486 0.38391 0.0
H148 H 0.89302 0.40573 0.42945 0.0
N149 N 0.8431 0.39628 0.38994 0.0
N150 N 0.82164 0.35573 0.38391 0.0
C151 C 0.81851 0.3828 0.38971 0.0
C152 C 0.86233 0.3772 0.38393 0.0
C153 C 0.8492 0.35219 0.38025 0.0
C154 C 0.83976 0.47916 0.36274 0.0
O155 O 0.8433 0.496 0.38121 0.0
H156 H 0.79877 0.39275 0.39346 0.0
H157 H 0.88438 0.38125 0.38223 0.0
O158 O 0.82985 0.44674 0.42464 0.0
H159 H 0.94352 0.4274 0.43507 0.0
H160 H 0.85926 0.33284 0.37553 0.0
Cu161 Cu 0.59502 0.85188 0.89933 0.0
N162 N 0.59397 0.89052 0.90011 0.0
N163 N 0.57917 0.9343 0.89719 0.0
C164 C 0.57387 0.90746 0.89173 0.0
C165 C 0.60343 0.93408 0.90953 0.0
C166 C 0.61236 0.90708 0.91145 0.0
O167 O 0.57044 0.83931 0.87341 0.0
C168 C 0.58331 0.81659 0.94107 0.0
O169 O 0.59073 0.79495 0.92815 0.0
H170 H 0.55555 0.90018 0.88223 0.0
H171 H 0.63062 0.89989 0.92104 0.0
N172 N 0.63183 0.84107 0.89298 0.0
N173 N 0.67073 0.81638 0.88731 0.0
C174 C 0.64387 0.81586 0.89464 0.0
C175 C 0.65174 0.85792 0.88424 0.0
C176 C 0.67567 0.84285 0.88081 0.0
C177 C 0.57848 0.8424 0.85161 0.0
O178 O 0.60326 0.85292 0.84757 0.0
H179 H 0.63305 0.79739 0.90038 0.0
H180 H 0.64893 0.87963 0.88013 0.0
O181 O 0.58324 0.84059 0.93154 0.0
H182 H 0.61341 0.95201 0.91754 0.0
H183 H 0.69524 0.85085 0.87411 0.0
Cu184 Cu 0.85214 0.59492 0.89901 0.0
N185 N 0.89092 0.59204 0.89959 0.0
N186 N 0.93406 0.57501 0.89672 0.0
C187 C 0.9069 0.57112 0.89127 0.0
C188 C 0.93516 0.59919 0.90897 0.0
C189 C 0.90853 0.60948 0.91091 0.0
O190 O 0.83827 0.57579 0.87041 0.0
C191 C 0.81609 0.58143 0.94004 0.0
O192 O 0.79458 0.59001 0.92745 0.0
H193 H 0.89878 0.5532 0.88183 0.0
H194 H 0.90229 0.62797 0.92061 0.0
N195 N 0.84277 0.63237 0.89542 0.0
N196 N 0.81829 0.67151 0.89105 0.0
C197 C 0.81752 0.64445 0.8973 0.0
C198 C 0.85992 0.65244 0.88751 0.0
C199 C 0.84499 0.67657 0.88496 0.0
C200 C 0.83855 0.5498 0.86648 0.0
O201 O 0.84634 0.53291 0.88382 0.0
H202 H 0.79873 0.6334 0.90198 0.0
H203 H 0.88163 0.64958 0.88304 0.0
O204 O 0.84012 0.58088 0.93035 0.0
H205 H 0.9537 0.60815 0.91692 0.0
H206 H 0.85315 0.69623 0.87879 0.0
Cu207 Cu 0.43377 0.84795 0.39768 0.0
N208 N 0.43692 0.88617 0.40276 0.0
N209 N 0.45393 0.92923 0.40495 0.0
C210 C 0.45444 0.90484 0.39285 0.0
C211 C 0.43522 0.92586 0.42286 0.0
C212 C 0.4249 0.89936 0.42151 0.0
O213 O 0.45401 0.83675 0.36875 0.0
C214 C 0.43912 0.81102 0.4389 0.0
O215 O 0.41984 0.79546 0.42893 0.0
H216 H 0.46866 0.90014 0.37825 0.0
H217 H 0.41074 0.88975 0.43417 0.0
N218 N 0.39595 0.83959 0.39361 0.0
N219 N 0.35588 0.81696 0.38743 0.0
C220 C 0.38394 0.81494 0.38861 0.0
C221 C 0.37479 0.8578 0.39521 0.0
C222 C 0.35015 0.84396 0.39152 0.0
C223 C 0.47991 0.84119 0.36592 0.0
O224 O 0.49427 0.85225 0.38374 0.0
H225 H 0.39557 0.79598 0.38581 0.0
H226 H 0.37702 0.87968 0.39891 0.0
O227 O 0.44839 0.83199 0.42752 0.0
H228 H 0.43031 0.94107 0.43665 0.0
H229 H 0.32956 0.85304 0.39237 0.0
Cu230 Cu 0.18104 0.43561 0.88559 0.0
N231 N 0.14236 0.43473 0.88774 0.0
N232 N 0.09809 0.44926 0.88794 0.0
C233 C 0.12515 0.4566 0.88561 0.0
C234 C 0.09857 0.42157 0.89175 0.0
C235 C 0.12585 0.41273 0.89168 0.0
O236 O 0.19002 0.46352 0.86135 0.0
C237 C 0.19367 0.42645 0.93427 0.0
O238 O 0.1844 0.4016 0.92875 0.0
H239 H 0.13261 0.47747 0.88271 0.0
H240 H 0.13314 0.39174 0.89432 0.0
N241 N 0.19343 0.40074 0.87541 0.0
N242 N 0.21808 0.36177 0.87104 0.0
C243 C 0.21652 0.38678 0.88205 0.0
C244 C 0.18021 0.38422 0.85949 0.0
C245 C 0.19528 0.36016 0.85681 0.0
C246 C 0.20605 0.45924 0.84336 0.0
O247 O 0.22003 0.43589 0.84199 0.0
H248 H 0.23153 0.39459 0.89499 0.0
H249 H 0.16091 0.38938 0.85045 0.0
O250 O 0.19501 0.44476 0.91775 0.0
H251 H 0.0806 0.40841 0.89428 0.0
H252 H 0.19 0.34294 0.84509 0.0
Cu253 Cu 0.60528 0.16748 0.38758 0.0
N254 N 0.60427 0.12887 0.38961 0.0
N255 N 0.58799 0.08558 0.39196 0.0
C256 C 0.58313 0.1116 0.38399 0.0
C257 C 0.61311 0.08653 0.40287 0.0
C258 C 0.62301 0.11321 0.40146 0.0
O259 O 0.58447 0.1793 0.35928 0.0
C260 C 0.58958 0.20467 0.42731 0.0
O261 O 0.59613 0.22599 0.41375 0.0
H262 H 0.56381 0.11833 0.3758 0.0
H263 H 0.64189 0.12103 0.4097 0.0
N264 N 0.64234 0.1783 0.38313 0.0
N265 N 0.68113 0.20369 0.37959 0.0
C266 C 0.65403 0.20349 0.38624 0.0
C267 C 0.66268 0.16215 0.37407 0.0
C268 C 0.68658 0.17762 0.37201 0.0
C269 C 0.55814 0.17898 0.35691 0.0
O270 O 0.54253 0.17193 0.3754 0.0
H271 H 0.64271 0.22151 0.3924 0.0
H272 H 0.66017 0.14069 0.36884 0.0
O273 O 0.59113 0.18024 0.41868 0.0
H274 H 0.62307 0.06941 0.41208 0.0
H275 H 0.70641 0.17017 0.36536 0.0
Cu276 Cu 0.84701 0.43782 0.66054 0.0
N277 N 0.88504 0.44115 0.65435 0.0
N278 N 0.92868 0.45698 0.65226 0.0
C279 C 0.90273 0.46153 0.66087 0.0
C280 C 0.92714 0.43287 0.63989 0.0
C281 C 0.90023 0.42325 0.64114 0.0
O282 O 0.83722 0.45716 0.69028 0.0
C283 C 0.83511 0.46712 0.6171 0.0
O284 O 0.85602 0.48298 0.62373 0.0
H285 H 0.89667 0.47934 0.67158 0.0
H286 H 0.89212 0.40468 0.6327 0.0
N287 N 0.83966 0.40052 0.66628 0.0
N288 N 0.81721 0.36024 0.67035 0.0
C289 C 0.8154 0.38696 0.66317 0.0
C290 C 0.85739 0.38188 0.67571 0.0
C291 C 0.84366 0.35701 0.67818 0.0
C292 C 0.83719 0.48314 0.69428 0.0
O293 O 0.84267 0.50034 0.67654 0.0
H294 H 0.79669 0.39674 0.65639 0.0
H295 H 0.87874 0.38618 0.68071 0.0
O296 O 0.82661 0.44835 0.63148 0.0
H297 H 0.94405 0.42329 0.62999 0.0
H298 H 0.85258 0.33804 0.68515 0.0
Cu299 Cu 0.59336 0.85299 0.16166 0.0
N300 N 0.59707 0.891 0.15727 0.0
N301 N 0.58515 0.93556 0.15423 0.0
C302 C 0.57815 0.91049 0.16309 0.0
C303 C 0.60944 0.93172 0.14245 0.0
C304 C 0.6168 0.90417 0.14444 0.0
O305 O 0.56826 0.84861 0.1889 0.0
C306 C 0.58048 0.81504 0.1216 0.0
O307 O 0.58932 0.79412 0.13469 0.0
H308 H 0.55877 0.90601 0.17229 0.0
H309 H 0.63457 0.89414 0.13616 0.0
N310 N 0.62823 0.83892 0.17017 0.0
N311 N 0.66891 0.81646 0.17137 0.0
C312 C 0.64488 0.82028 0.15905 0.0
C313 C 0.64221 0.84705 0.19003 0.0
C314 C 0.66726 0.83331 0.19083 0.0
C315 C 0.56203 0.82606 0.19947 0.0
O316 O 0.5706 0.80235 0.1904 0.0
H317 H 0.63985 0.81015 0.14214 0.0
H318 H 0.63459 0.86202 0.20304 0.0
O319 O 0.57976 0.8393 0.13069 0.0
H320 H 0.62058 0.94749 0.13249 0.0
H321 H 0.68287 0.8352 0.20488 0.0
Cu322 Cu 0.17876 0.59499 0.6486 0.0
N323 N 0.1403 0.59269 0.64425 0.0
N324 N 0.09646 0.57726 0.64494 0.0
C325 C 0.12304 0.57255 0.65188 0.0
C326 C 0.09716 0.60125 0.63244 0.0
C327 C 0.12423 0.61062 0.63196 0.0
O328 O 0.1895 0.57149 0.67568 0.0
C329 C 0.18927 0.56287 0.60694 0.0
O330 O 0.17271 0.54513 0.61776 0.0
H331 H 0.12989 0.55482 0.66227 0.0
H332 H 0.13179 0.62907 0.62303 0.0
N333 N 0.18792 0.63159 0.65618 0.0
N334 N 0.21213 0.6703 0.66333 0.0
C335 C 0.21316 0.64376 0.65545 0.0
C336 C 0.17039 0.65105 0.6647 0.0
C337 C 0.18522 0.67491 0.66911 0.0
C338 C 0.17895 0.57758 0.69616 0.0
O339 O 0.16174 0.5987 0.69753 0.0
H340 H 0.23193 0.63314 0.64982 0.0
H341 H 0.14839 0.64797 0.66784 0.0
O342 O 0.19606 0.58503 0.61801 0.0
H343 H 0.07953 0.61095 0.62366 0.0
H344 H 0.17676 0.6942 0.67594 0.0
Cu345 Cu 0.43127 0.17455 0.15734 0.0
N346 N 0.43532 0.13685 0.15076 0.0
N347 N 0.45437 0.09491 0.14668 0.0
C348 C 0.45579 0.11967 0.15806 0.0
C349 C 0.43215 0.09652 0.13182 0.0
C350 C 0.42041 0.12239 0.13443 0.0
O351 O 0.45142 0.18371 0.18679 0.0
C352 C 0.42723 0.19645 0.1106 0.0
O353 O 0.40132 0.18833 0.11317 0.0
H354 H 0.47228 0.12568 0.17035 0.0
H355 H 0.40292 0.13056 0.12437 0.0
N356 N 0.39374 0.182 0.16339 0.0
N357 N 0.35305 0.2041 0.16752 0.0
C358 C 0.38034 0.20648 0.16184 0.0
C359 C 0.37449 0.16358 0.17058 0.0
C360 C 0.3494 0.17709 0.17311 0.0
C361 C 0.47772 0.18457 0.18927 0.0
O362 O 0.49373 0.18056 0.17033 0.0
H363 H 0.39037 0.22546 0.15615 0.0
H364 H 0.37847 0.14183 0.17382 0.0
O365 O 0.44407 0.19375 0.12829 0.0
H366 H 0.42533 0.08038 0.11953 0.0
H367 H 0.33009 0.16769 0.1789 0.0
H368 H 0.04129 0.43652 0.1609 0.0
H369 H 0.99016 0.59371 0.15199 0.0
H370 H 0.09736 0.50602 0.15511 0.0
H371 H 0.93631 0.52655 0.17381 0.0
H372 H 0.02923 0.56163 0.15131 0.0
H373 H 1.00212 0.46883 0.16369 0.0
C374 C 0.04536 0.45858 0.1602 0.0
C375 C 0.07265 0.46857 0.15774 0.0
C376 C 1.00886 0.55395 0.15631 0.0
C377 C 0.02793 0.50569 0.16091 0.0
C378 C 0.98642 0.57233 0.15681 0.0
C379 C 0.95961 0.56303 0.16299 0.0
C380 C 1.0046 0.52589 0.16183 0.0
C381 C 0.95634 0.53479 0.16861 0.0
C382 C 0.02301 0.47701 0.16192 0.0
C383 C 0.07673 0.49739 0.15725 0.0
N384 N 0.97851 0.51725 0.16783 0.0
N385 N 0.05461 0.51491 0.15866 0.0
H386 H 0.51046 0.93027 0.66603 0.0
H387 H 0.52513 0.09548 0.66519 0.0
H388 H 0.44044 0.98637 0.66717 0.0
H389 H 0.59472 0.03927 0.65921 0.0
H390 H 0.4942 0.05588 0.67089 0.0
H391 H 0.54188 0.96993 0.66847 0.0
C392 C 0.50164 0.95088 0.66711 0.0
C393 C 0.47271 0.95495 0.66617 0.0
C394 C 0.51628 0.05221 0.66849 0.0
C395 C 0.50867 1.00057 0.66866 0.0
C396 C 0.534 0.07487 0.66539 0.0
C397 C 0.56259 0.07072 0.66148 0.0
C398 C 0.52718 0.02519 0.66771 0.0
C399 C 0.57278 0.04343 0.6617 0.0
C400 C 0.51963 0.97356 0.66834 0.0
C401 C 0.46258 0.98225 0.66738 0.0
N402 N 0.55509 0.02172 0.66461 0.0
N403 N 0.48052 1.004 0.66843 0.0
H404 H 0.07042 0.55601 0.36421 0.0
H405 H 0.96211 0.47349 0.44522 0.0
H406 H 0.05848 0.57304 0.44007 0.0
H407 H 0.94931 0.48383 0.3686 0.0
H408 H 1.00129 0.50577 0.44337 0.0
H409 H 0.0295 0.5254 0.36498 0.0
C410 C 0.05914 0.5533 0.38098 0.0
C411 C 0.06775 0.56708 0.40209 0.0
C412 C 0.98988 0.50105 0.42696 0.0
C413 C 0.02136 0.53206 0.40318 0.0
C414 C 0.96769 0.48249 0.42797 0.0
C415 C 0.95259 0.47595 0.407 0.0
C416 C 0.99739 0.51283 0.40472 0.0
C417 C 0.9604 0.4885 0.38516 0.0
C418 C 0.03579 0.53601 0.38138 0.0
C419 C 0.05236 0.56306 0.42335 0.0
N420 N 0.98247 0.50619 0.38452 0.0
N421 N 0.03008 0.54572 0.4234 0.0
H422 H 0.59535 0.98784 0.89235 0.0
H423 H 0.43927 0.04558 0.89296 0.0
H424 H 0.52276 0.93519 0.89266 0.0
H425 H 0.51195 0.09801 0.8899 0.0
H426 H 0.46938 1.00486 0.89054 0.0
H427 H 0.56511 0.02834 0.88897 0.0
C428 C 0.57304 0.98479 0.89165 0.0
C429 C 0.56159 0.95806 0.89302 0.0
C430 C 0.47875 0.02527 0.89025 0.0
C431 C 0.52676 1.00441 0.88907 0.0
C432 C 0.46156 0.04855 0.89177 0.0
C433 C 0.47308 0.07531 0.89184 0.0
C434 C 0.50774 0.0287 0.8889 0.0
C435 C 0.5021 0.07786 0.88977 0.0
C436 C 0.55577 1.00793 0.88961 0.0
C437 C 0.53253 0.95534 0.89154 0.0
N438 N 0.51843 0.05486 0.88857 0.0
N439 N 0.51611 0.97823 0.88986 0.0
H440 H 0.93223 0.51877 0.89537 0.0
H441 H 0.09578 0.50316 0.87273 0.0
H442 H 0.988 0.58838 0.88888 0.0
H443 H 0.04449 0.437 0.90079 0.0
H444 H 0.05535 0.53345 0.87286 0.0
H445 H 0.97201 0.4873 0.89116 0.0
C446 C 0.9528 0.52741 0.89276 0.0
C447 C 0.95688 0.55622 0.89257 0.0
C448 C 0.05301 0.51226 0.87896 0.0
C449 C 1.00241 0.52043 0.88786 0.0
C450 C 0.07621 0.49484 0.87901 0.0
C451 C 0.07397 0.46726 0.88701 0.0
C452 C 0.02717 0.50211 0.88671 0.0
C453 C 0.04754 0.45789 0.89437 0.0
C454 C 0.9755 0.50947 0.89055 0.0
C455 C 0.98403 0.56632 0.88942 0.0
N456 N 0.02525 0.47527 0.89406 0.0
N457 N 1.00576 0.54846 0.88719 0.0
H458 H 0.551 0.07059 0.3571 0.0
H459 H 0.47714 0.95919 0.44096 0.0
H460 H 0.58067 0.04893 0.4282 0.0
H461 H 0.47426 0.95118 0.36332 0.0
H462 H 0.50978 0.9976 0.43686 0.0
H463 H 0.51765 0.03177 0.35911 0.0
C464 C 0.55047 0.05765 0.37307 0.0
C465 C 0.56867 0.06279 0.39245 0.0
C466 C 0.50201 0.98749 0.42069 0.0
C467 C 0.53065 0.01899 0.39501 0.0
C468 C 0.48321 0.96573 0.42301 0.0
C469 C 0.4729 0.95212 0.40242 0.0
C470 C 0.51037 0.99608 0.3976 0.0
C471 C 0.48187 0.96114 0.3796 0.0
C472 C 0.53163 0.03553 0.37415 0.0
C473 C 0.56729 0.04545 0.41274 0.0
N474 N 0.50001 0.98276 0.37774 0.0
N475 N 0.54848 0.02451 0.41356 0.0
H476 H 0.92943 0.51305 0.65745 0.0
H477 H 0.0959 0.52144 0.65143 0.0
H478 H 0.98294 0.44147 0.65177 0.0
H479 H 0.04226 0.59306 0.64736 0.0
H480 H 0.05489 0.49201 0.65608 0.0
H481 H 0.97065 0.54283 0.65833 0.0
C482 C 0.94984 0.50357 0.65666 0.0
C483 C 0.95272 0.47472 0.65437 0.0
C484 C 0.05209 0.51418 0.65425 0.0
C485 C 1.0 0.50868 0.65516 0.0
C486 C 0.07554 0.53103 0.65175 0.0
C487 C 0.07254 0.55978 0.64886 0.0
C488 C 0.02541 0.52614 0.65397 0.0
C489 C 0.04554 0.57097 0.64914 0.0
C490 C 0.97337 0.52059 0.65699 0.0
C491 C 0.97972 0.46361 0.65315 0.0
N492 N 0.02303 0.55414 0.65159 0.0
N493 N 1.00228 0.48059 0.6535 0.0
H494 H 0.47338 0.06369 0.10961 0.0
H495 H 0.55315 0.95461 0.19093 0.0
H496 H 0.48053 0.07553 0.18665 0.0
H497 H 0.57795 0.97199 0.11765 0.0
H498 H 0.52192 0.99502 0.18982 0.0
H499 H 0.50706 0.02564 0.11201 0.0
C500 C 0.48198 0.05812 0.12705 0.0
C501 C 0.47417 0.07259 0.14799 0.0
C502 C 0.5344 0.99007 0.17409 0.0
C503 C 0.51249 0.02914 0.1509 0.0
C504 C 0.55206 0.96704 0.17468 0.0
C505 C 0.56812 0.9601 0.15438 0.0
C506 C 0.53234 1.00577 0.15282 0.0
C507 C 0.56611 0.97684 0.13375 0.0
C508 C 0.50131 0.03661 0.12838 0.0
C509 C 0.48617 0.06486 0.17012 0.0
N510 N 0.54828 0.99872 0.13339 0.0
N511 N 0.50457 0.04341 0.17107 0.0
H512 H 0.23641 0.52435 0.33305 0.0
H513 H 0.17158 0.53004 0.19998 0.0
H514 H 0.16276 0.57124 0.31489 0.0
H515 H 0.2181 0.45919 0.22521 0.0
H516 H 0.17551 0.5508 0.24027 0.0
H517 H 0.23655 0.50493 0.29186 0.0
C518 C 0.22031 0.53055 0.32045 0.0
C519 C 0.19945 0.54931 0.32748 0.0
C520 C 0.18501 0.53079 0.23692 0.0
C521 C 0.19984 0.52769 0.28039 0.0
C522 C 0.18296 0.51901 0.21388 0.0
C523 C 0.19442 0.49277 0.20924 0.0
C524 C 0.19898 0.51645 0.25539 0.0
C525 C 0.20881 0.47939 0.22805 0.0
C526 C 0.2204 0.51947 0.297 0.0
C527 C 0.17912 0.55667 0.31037 0.0
N528 N 0.2107 0.49137 0.25031 0.0
N529 N 0.17993 0.54599 0.28763 0.0
H530 H 0.52615 0.1947 0.69825 0.0
H531 H 0.51308 0.19943 0.84301 0.0
H532 H 0.59685 0.19173 0.74643 0.0
H533 H 0.44413 0.18369 0.79478 0.0
H534 H 0.54369 0.20438 0.80773 0.0
H535 H 0.49539 0.19862 0.73341 0.0
C536 C 0.53524 0.19522 0.71618 0.0
C537 C 0.56411 0.19265 0.71938 0.0
C538 C 0.5218 0.20003 0.80492 0.0
C539 C 0.52904 0.19705 0.75973 0.0
C540 C 0.50433 0.19731 0.82504 0.0
C541 C 0.47605 0.1909 0.82186 0.0
C542 C 0.51085 0.19659 0.78148 0.0
C543 C 0.46584 0.18835 0.79813 0.0
C544 C 0.51766 0.19733 0.73627 0.0
C545 C 0.5747 0.1934 0.74309 0.0
N546 N 0.4832 0.19112 0.77891 0.0
N547 N 0.55719 0.1954 0.76233 0.0
H548 H 0.84381 0.49767 0.20701 0.0
H549 H 0.83466 0.53348 0.34831 0.0
H550 H 0.82885 0.58011 0.23468 0.0
H551 H 0.83732 0.44994 0.32019 0.0
H552 H 0.83178 0.55095 0.30684 0.0
H553 H 0.84051 0.47966 0.24825 0.0
C554 C 0.83957 0.51197 0.22169 0.0
C555 C 0.83671 0.54048 0.2173 0.0
C556 C 0.83282 0.52878 0.30976 0.0
C557 C 0.83322 0.52001 0.2647 0.0
C558 C 0.83448 0.51879 0.33346 0.0
C559 C 0.83633 0.49019 0.33782 0.0
C560 C 0.83321 0.51008 0.2902 0.0
C561 C 0.83597 0.47217 0.31778 0.0
C562 C 0.83772 0.50167 0.24527 0.0
C563 C 0.83124 0.55798 0.23713 0.0
N564 N 0.83464 0.4824 0.2949 0.0
N565 N 0.8299 0.54751 0.25992 0.0
H566 H 0.52221 0.8315 0.85208 0.0
H567 H 0.50897 0.83061 0.70727 0.0
H568 H 0.59214 0.84012 0.80372 0.0
H569 H 0.43882 0.83763 0.75562 0.0
H570 H 0.53985 0.82662 0.74244 0.0
H571 H 0.49147 0.82633 0.81692 0.0
C572 C 0.53115 0.832 0.83411 0.0
C573 C 0.55977 0.83649 0.83086 0.0
C574 C 0.51766 0.82882 0.74532 0.0
C575 C 0.52474 0.83063 0.79055 0.0
C576 C 0.50002 0.83097 0.72524 0.0
C577 C 0.47128 0.8347 0.72849 0.0
C578 C 0.50647 0.83023 0.7688 0.0
C579 C 0.46086 0.83506 0.75223 0.0
C580 C 0.51358 0.82915 0.81404 0.0
C581 C 0.57017 0.83697 0.80712 0.0
N582 N 0.47843 0.833 0.77144 0.0
N583 N 0.55268 0.83421 0.78791 0.0
H584 H 0.83795 0.49575 0.85049 0.0
H585 H 0.83493 0.53715 0.71036 0.0
H586 H 0.82869 0.57991 0.82534 0.0
H587 H 0.83112 0.45266 0.73571 0.0
H588 H 0.83187 0.55327 0.75232 0.0
H589 H 0.83453 0.4795 0.80862 0.0
C590 C 0.83494 0.51081 0.83623 0.0
C591 C 0.83372 0.53927 0.84153 0.0
C592 C 0.83151 0.5312 0.74868 0.0
C593 C 0.83009 0.52079 0.79341 0.0
C594 C 0.83327 0.52198 0.7247 0.0
C595 C 0.83339 0.49349 0.71942 0.0
C596 C 0.83009 0.51181 0.7676 0.0
C597 C 0.83116 0.47483 0.73883 0.0
C598 C 0.83302 0.50151 0.81228 0.0
C599 C 0.8298 0.55778 0.8222 0.0
N600 N 0.8298 0.4843 0.76199 0.0
N601 N 0.82836 0.54825 0.79905 0.0
H602 H 0.5264 0.86632 0.34803 0.0
H603 H 0.53351 0.78471 0.22316 0.0
H604 H 0.46289 0.80687 0.32899 0.0
H605 H 0.55998 0.86979 0.23076 0.0
H606 H 0.51336 0.78705 0.26408 0.0
H607 H 0.54582 0.8619 0.3073 0.0
C608 C 0.51673 0.85209 0.33538 0.0
C609 C 0.49296 0.83697 0.34191 0.0
C610 C 0.5235 0.80516 0.25663 0.0
C611 C 0.51521 0.83173 0.29532 0.0
C612 C 0.535 0.80386 0.23337 0.0
C613 C 0.54833 0.82713 0.22348 0.0
C614 C 0.52606 0.82965 0.27027 0.0
C615 C 0.54972 0.85141 0.23754 0.0
C616 C 0.5277 0.84974 0.3121 0.0
C617 C 0.48117 0.81899 0.32466 0.0
N618 N 0.53901 0.85193 0.26026 0.0
N619 N 0.49251 0.81674 0.30215 0.0
H620 H 0.23377 0.45412 0.80019 0.0
H621 H 0.16007 0.58707 0.74191 0.0
H622 H 0.17777 0.50841 0.83886 0.0
H623 H 0.21221 0.53118 0.70097 0.0
H624 H 0.16927 0.5601 0.77816 0.0
H625 H 0.22938 0.48382 0.7646 0.0
C626 C 0.22078 0.47244 0.80132 0.0
C627 C 0.20601 0.47867 0.82259 0.0
C628 C 0.17879 0.5537 0.76131 0.0
C629 C 0.20076 0.51268 0.78175 0.0
C630 C 0.17353 0.56911 0.74051 0.0
C631 C 0.18528 0.56133 0.71825 0.0
C632 C 0.19595 0.53018 0.76001 0.0
C633 C 0.20264 0.5379 0.7177 0.0
C634 C 0.21821 0.48933 0.78092 0.0
C635 C 0.1895 0.5027 0.8229 0.0
N636 N 0.20738 0.52309 0.73826 0.0
N637 N 0.18722 0.5187 0.80278 0.0
H638 H 0.50272 0.17953 0.34433 0.0
H639 H 0.53299 0.18748 0.20207 0.0
H640 H 0.585 0.18901 0.31411 0.0
H641 H 0.45032 0.18817 0.23264 0.0
H642 H 0.55242 0.18915 0.24298 0.0
H643 H 0.48304 0.18383 0.30366 0.0
C644 C 0.51665 0.18272 0.3292 0.0
C645 C 0.54559 0.18379 0.33271 0.0
C646 C 0.53002 0.18912 0.24073 0.0
C647 C 0.52318 0.1885 0.28598 0.0
C648 C 0.51891 0.18817 0.21734 0.0
C649 C 0.48996 0.18758 0.21384 0.0
C650 C 0.5121 0.18929 0.26083 0.0
C651 C 0.47277 0.18853 0.2344 0.0
C652 C 0.50539 0.18516 0.30595 0.0
C653 C 0.56258 0.18799 0.31234 0.0
N654 N 0.48408 0.18916 0.25695 0.0
N655 N 0.55115 0.18999 0.2899 0.0
H656 H 0.19317 0.47763 0.95633 0.0
H657 H 0.21639 0.41464 0.08882 0.0
H658 H 0.20694 0.39082 0.97067 0.0
H659 H 0.17412 0.49225 0.07607 0.0
H660 H 0.22394 0.40986 0.04528 0.0
H661 H 0.19678 0.48712 0.99991 0.0
C662 C 0.19744 0.46066 0.96858 0.0
C663 C 0.19953 0.43335 0.9599 0.0
C664 C 0.21329 0.42809 0.05206 0.0
C665 C 0.20378 0.44407 1.0096 0.0
C666 C 0.20909 0.43093 0.07694 0.0
C667 C 0.19431 0.45376 0.08614 0.0
C668 C 0.20289 0.44832 0.03621 0.0
C669 C 0.18537 0.47418 0.06978 0.0
C670 C 0.19933 0.46607 0.99343 0.0
C671 C 0.20492 0.41214 0.9766 0.0
N672 N 0.18964 0.4709 0.0456 0.0
N673 N 0.20677 0.41792 1.00061 0.0
H674 H 0.59631 0.25139 0.45552 0.0
H675 H 0.56635 0.16914 0.5785 0.0
H676 H 0.56987 0.16598 0.459 0.0
H677 H 0.59905 0.25247 0.57696 0.0
H678 H 0.56186 0.17016 0.53461 0.0
H679 H 0.59182 0.25462 0.49964 0.0
C680 C 0.5892 0.23344 0.46548 0.0
C681 C 0.58369 0.2083 0.4535 0.0
C682 C 0.56984 0.18834 0.54383 0.0
C683 C 0.57865 0.21183 0.504 0.0
C684 C 0.57238 0.18779 0.56897 0.0
C685 C 0.58334 0.21067 0.58152 0.0
C686 C 0.57841 0.2119 0.53094 0.0
C687 C 0.59061 0.23429 0.56808 0.0
C688 C 0.58675 0.23527 0.49069 0.0
C689 C 0.5746 0.18573 0.46741 0.0
N690 N 0.58824 0.23421 0.54352 0.0
N691 N 0.57254 0.18799 0.49184 0.0
H692 H 0.85888 0.56397 0.0904 0.0
H693 H 0.77056 0.58936 0.96957 0.0
H694 H 0.77317 0.5909 0.09106 0.0
H695 H 0.85599 0.56156 0.97085 0.0
H696 H 0.76917 0.58572 1.01379 0.0
H697 H 0.85629 0.55867 0.04663 0.0
C698 C 0.83939 0.56856 0.08137 0.0
C699 C 0.81627 0.57812 0.0945 0.0
C700 C 0.78812 0.58016 1.00434 0.0
C701 C 0.81321 0.57229 0.04402 0.0
C702 C 0.7889 0.58214 0.97907 0.0
C703 C 0.81351 0.57598 0.9664 0.0
C704 C 0.81211 0.57198 1.01707 0.0
C705 C 0.83662 0.56676 0.97976 0.0
C706 C 0.83793 0.56554 0.05629 0.0
C707 C 0.79155 0.58354 0.08171 0.0
N708 N 0.8354 0.56525 1.00428 0.0
N709 N 0.79075 0.58081 0.05717 0.0
H710 H 0.46993 0.85231 0.58728 0.0
H711 H 0.42314 0.76916 0.46954 0.0
H712 H 0.43669 0.76927 0.59017 0.0
H713 H 0.47148 0.84456 0.46751 0.0
H714 H 0.42996 0.76725 0.51338 0.0
H715 H 0.47264 0.84857 0.54333 0.0
C716 C 0.46343 0.83316 0.57868 0.0
C717 C 0.45289 0.81113 0.59246 0.0
C718 C 0.43938 0.78401 0.50329 0.0
C719 C 0.45565 0.80682 0.54193 0.0
C720 C 0.43551 0.78511 0.47822 0.0
C721 C 0.44653 0.80719 0.46477 0.0
C722 C 0.45413 0.80529 0.51506 0.0
C723 C 0.46245 0.8272 0.47707 0.0
C724 C 0.46503 0.83102 0.55354 0.0
C725 C 0.44494 0.78678 0.58029 0.0
N726 N 0.46546 0.82594 0.5015 0.0
N727 N 0.44615 0.7854 0.5557 0.0
H728 H 0.21809 0.59888 0.45627 0.0
H729 H 0.1766 0.51886 0.57751 0.0
H730 H 0.17378 0.52106 0.4577 0.0
H731 H 0.21697 0.59879 0.57682 0.0
H732 H 0.18192 0.5161 0.53366 0.0
H733 H 0.22444 0.59586 0.50011 0.0
C734 C 0.21009 0.58092 0.4657 0.0
C735 C 0.19509 0.56033 0.45325 0.0
C736 C 0.18989 0.53413 0.5431 0.0
C737 C 0.20208 0.5569 0.50355 0.0
C738 C 0.18691 0.5357 0.5682 0.0
C739 C 0.19607 0.55924 0.58092 0.0
C740 C 0.20203 0.5563 0.53049 0.0
C741 C 0.20942 0.58032 0.5678 0.0
C742 C 0.21363 0.57927 0.49078 0.0
C743 C 0.18526 0.53755 0.46651 0.0
N744 N 0.21172 0.57848 0.54331 0.0
N745 N 0.18868 0.5366 0.49091 0.0
H746 H 0.50226 0.17648 0.97162 0.0
H747 H 0.39682 0.22045 0.0749 0.0
H748 H 0.42767 0.22413 0.95854 0.0
H749 H 0.47921 0.18973 0.0905 0.0
H750 H 0.40976 0.22557 0.03251 0.0
H751 H 0.49654 0.18439 1.01509 0.0
C752 C 0.48492 0.18896 0.97782 0.0
C753 C 0.46523 0.19936 0.96135 0.0
C754 C 0.42523 0.21813 0.04519 0.0
C755 C 0.45842 0.20824 1.01117 0.0
C756 C 0.41784 0.21523 0.06944 0.0
C757 C 0.43692 0.20451 0.08621 0.0
C758 C 0.45177 0.2097 0.03745 0.0
C759 C 0.46389 0.19815 0.07816 0.0
C760 C 0.48168 0.19348 1.00268 0.0
C761 C 0.44327 0.2155 0.97051 0.0
N762 N 0.47038 0.20036 0.05424 0.0
N763 N 0.44026 0.21909 0.99476 0.0
H764 H 0.80075 0.40046 0.47771 0.0
H765 H 0.84905 0.50374 0.58115 0.0
H766 H 0.83422 0.48148 0.46248 0.0
H767 H 0.80002 0.43038 0.59442 0.0
H768 H 0.83997 0.49863 0.53782 0.0
H769 H 0.79614 0.41339 0.5202 0.0
C770 C 0.80667 0.42119 0.48327 0.0
C771 C 0.81804 0.43986 0.46656 0.0
C772 C 0.83081 0.48392 0.55024 0.0
C773 C 0.81343 0.45467 0.51545 0.0
C774 C 0.83598 0.48682 0.57503 0.0
C775 C 0.82558 0.46726 0.59151 0.0
C776 C 0.81538 0.46112 0.54178 0.0
C777 C 0.80866 0.44587 0.58245 0.0
C778 C 0.80406 0.42858 0.50758 0.0
C779 C 0.82529 0.46648 0.47476 0.0
N780 N 0.80446 0.44315 0.55822 0.0
N781 N 0.82334 0.47293 0.49872 0.0
H782 H 0.59107 0.7698 0.09238 0.0
H783 H 0.56124 0.8556 0.97141 0.0
H784 H 0.5579 0.85296 0.09065 0.0
H785 H 0.59224 0.77159 0.97073 0.0
H786 H 0.5559 0.85284 1.01512 0.0
H787 H 0.58756 0.7678 0.04812 0.0
C788 C 0.58267 0.78747 0.08278 0.0
C789 C 0.57501 0.81168 0.0953 0.0
C790 C 0.56369 0.83488 1.00547 0.0
C791 C 0.57116 0.80961 0.04466 0.0
C792 C 0.56675 0.83645 0.98043 0.0
C793 C 0.57743 0.81387 0.96732 0.0
C794 C 0.57156 0.81063 1.01773 0.0
C795 C 0.584 0.78954 0.98008 0.0
C796 C 0.58078 0.78635 0.05749 0.0
C797 C 0.56432 0.83394 0.08184 0.0
N798 N 0.58122 0.78866 1.0046 0.0
N799 N 0.56293 0.83243 0.05733 0.0
H800 H 0.26438 0.36031 0.16705 0.0
H801 H 0.29689 0.19755 0.16422 0.0
H802 H 0.20126 0.29684 0.17059 0.0
H803 H 0.36089 0.26007 0.17011 0.0
H804 H 0.26175 0.23388 0.16446 0.0
H805 H 0.30014 0.32418 0.16565 0.0
C806 C 0.25801 0.3388 0.16738 0.0
C807 C 0.22973 0.33163 0.169 0.0
C808 C 0.28349 0.23968 0.16572 0.0
C809 C 0.27058 0.29015 0.16756 0.0
C810 C 0.30365 0.21886 0.16572 0.0
C811 C 0.33206 0.22559 0.1673 0.0
C812 C 0.29164 0.26758 0.16721 0.0
C813 C 0.33936 0.25378 0.16865 0.0
C814 C 0.27845 0.31818 0.16673 0.0
C815 C 0.22277 0.30337 0.16968 0.0
N816 N 0.31929 0.27371 0.1686 0.0
N817 N 0.24302 0.28371 0.16893 0.0
H818 H 0.81359 0.31466 0.69891 0.0
H819 H 0.67148 0.26054 0.63933 0.0
H820 H 0.77075 0.35857 0.642 0.0
H821 H 0.71966 0.21463 0.69155 0.0
H822 H 0.70543 0.2984 0.64194 0.0
H823 H 0.77752 0.27932 0.698 0.0
C824 C 0.7967 0.31685 0.6861 0.0
C825 C 0.79544 0.33961 0.67036 0.0
C826 C 0.7085 0.28005 0.65285 0.0
C827 C 0.7536 0.29914 0.66944 0.0
C828 C 0.68905 0.25852 0.65148 0.0
C829 C 0.69284 0.23428 0.66511 0.0
C830 C 0.7318 0.27736 0.66807 0.0
C831 C 0.71614 0.23268 0.68039 0.0
C832 C 0.77594 0.29668 0.6857 0.0
C833 C 0.77255 0.34153 0.65458 0.0
N834 N 0.7347 0.25385 0.68142 0.0
N835 N 0.75258 0.32151 0.65445 0.0
H836 H 0.7664 0.66867 0.14865 0.0
H837 H 0.72354 0.82455 0.1805 0.0
H838 H 0.82372 0.73136 0.17359 0.0
H839 H 0.66582 0.76585 0.14967 0.0
H840 H 0.76111 0.79117 0.17497 0.0
H841 H 0.73003 0.70422 0.14536 0.0
C842 C 0.77147 0.68994 0.15307 0.0
C843 C 0.79806 0.69698 0.16174 0.0
C844 C 0.74031 0.78554 0.16921 0.0
C845 C 0.75654 0.73765 0.15828 0.0
C846 C 0.71883 0.8046 0.17248 0.0
C847 C 0.69149 0.79784 0.1658 0.0
C848 C 0.73447 0.75927 0.15941 0.0
C849 C 0.68663 0.77187 0.15503 0.0
C850 C 0.75066 0.71021 0.15132 0.0
C851 C 0.80338 0.72487 0.16735 0.0
N852 N 0.70787 0.75336 0.15244 0.0
N853 N 0.78281 0.74406 0.16572 0.0
H854 H 0.21617 0.71311 0.69498 0.0
H855 H 0.36034 0.76903 0.64136 0.0
H856 H 0.26013 0.67183 0.63717 0.0
H857 H 0.31512 0.80814 0.69959 0.0
H858 H 0.32546 0.73196 0.64047 0.0
H859 H 0.25351 0.74704 0.69762 0.0
C860 C 0.23364 0.71123 0.68274 0.0
C861 C 0.23483 0.6897 0.66566 0.0
C862 C 0.32326 0.74864 0.65347 0.0
C863 C 0.27804 0.72854 0.66873 0.0
C864 C 0.34324 0.76974 0.65407 0.0
C865 C 0.34057 0.79191 0.67044 0.0
C866 C 0.30049 0.7497 0.66939 0.0
C867 C 0.31781 0.79183 0.68635 0.0
C868 C 0.2551 0.73056 0.68436 0.0
C869 C 0.25839 0.68799 0.65068 0.0
N870 N 0.29868 0.77115 0.68537 0.0
N871 N 0.27901 0.70727 0.65246 0.0
H872 H 0.36236 0.76192 0.39708 0.0
H873 H 0.20316 0.72781 0.36643 0.0
H874 H 0.30337 0.82168 0.36974 0.0
H875 H 0.2629 0.66465 0.38569 0.0
H876 H 0.23992 0.76232 0.36822 0.0
H877 H 0.32679 0.72579 0.39322 0.0
C878 C 0.34207 0.76743 0.39006 0.0
C879 C 0.33585 0.795 0.38389 0.0
C880 C 0.24507 0.74091 0.37201 0.0
C881 C 0.29493 0.75381 0.37975 0.0
C882 C 0.22402 0.72107 0.37088 0.0
C883 C 0.22981 0.6931 0.37578 0.0
C884 C 0.27226 0.73292 0.37819 0.0
C885 C 0.2573 0.68593 0.38198 0.0
C886 C 0.32171 0.74681 0.388 0.0
C887 C 0.30903 0.8009 0.37515 0.0
N888 N 0.2775 0.70571 0.38301 0.0
N889 N 0.28962 0.78055 0.37344 0.0
H890 H 0.30593 0.20682 0.87747 0.0
H891 H 0.27278 0.36943 0.88202 0.0
H892 H 0.37025 0.26926 0.88043 0.0
H893 H 0.21169 0.30622 0.86675 0.0
H894 H 0.3085 0.33327 0.88548 0.0
H895 H 0.27092 0.24322 0.87728 0.0
C896 C 0.31278 0.22817 0.87796 0.0
C897 C 0.34122 0.23486 0.87869 0.0
C898 C 0.28726 0.32736 0.8814 0.0
C899 C 0.30093 0.27691 0.87881 0.0
C900 C 0.26685 0.34796 0.87956 0.0
C901 C 0.23924 0.34085 0.87392 0.0
C902 C 0.27991 0.29946 0.87778 0.0
C903 C 0.23277 0.31271 0.87071 0.0
C904 C 0.29269 0.24901 0.87798 0.0
C905 C 0.34863 0.26304 0.87996 0.0
N906 N 0.25291 0.2931 0.87269 0.0
N907 N 0.32861 0.28303 0.87989 0.0
H908 H 0.67851 0.2504 0.4074 0.0
H909 H 0.82233 0.30962 0.35581 0.0
H910 H 0.72733 0.21032 0.35188 0.0
H911 H 0.77216 0.35385 0.40784 0.0
H912 H 0.7872 0.27326 0.35419 0.0
H913 H 0.71174 0.28887 0.40766 0.0
C914 C 0.69606 0.24971 0.39517 0.0
C915 C 0.70014 0.22689 0.3797 0.0
C916 C 0.78377 0.29093 0.36594 0.0
C917 C 0.73841 0.27079 0.38008 0.0
C918 C 0.80395 0.31166 0.36697 0.0
C919 C 0.80032 0.33477 0.38211 0.0
C920 C 0.75971 0.29313 0.38024 0.0
C921 C 0.77574 0.33651 0.3958 0.0
C922 C 0.71511 0.27165 0.39541 0.0
C923 C 0.7235 0.2271 0.36445 0.0
N924 N 0.75643 0.31588 0.39464 0.0
N925 N 0.74171 0.24861 0.36507 0.0
H926 H 0.77055 0.67096 0.91755 0.0
H927 H 0.71434 0.81073 0.8567 0.0
H928 H 0.81333 0.71593 0.86142 0.0
H929 H 0.67182 0.7701 0.91544 0.0
H930 H 0.74912 0.77408 0.85677 0.0
H931 H 0.73249 0.70483 0.91561 0.0
C932 C 0.77187 0.68782 0.90473 0.0
C933 C 0.79531 0.69072 0.88977 0.0
C934 C 0.73219 0.77306 0.86965 0.0
C935 C 0.75197 0.72954 0.88751 0.0
C936 C 0.71235 0.79412 0.8697 0.0
C937 C 0.69028 0.79371 0.88629 0.0
C938 C 0.73012 0.7513 0.88637 0.0
C939 C 0.68844 0.7712 0.90229 0.0
C940 C 0.75021 0.7072 0.9037 0.0
C941 C 0.796 0.71311 0.87363 0.0
N942 N 0.70822 0.75096 0.90205 0.0
N943 N 0.77473 0.73161 0.87297 0.0
loop_
_geom_bond_atom_site_label_1
_geom_bond_atom_site_label_2
_geom_bond_distance
_geom_bond_site_symmetry_2
_ccdc_geom_bond_type
Cu0 N1 1.999 . S
Cu0 O6 1.974 . S
Cu0 N11 1.985 . S
Cu0 O20 1.959 . S
N1 Cu0 1.999 . S
N1 C3 1.263 . S
N1 C5 1.389 . S
N2 C3 1.358 . S
N2 C4 1.400 . S
C3 N1 1.263 . S
C3 N2 1.358 . S
C3 H9 0.930 . S
C4 N2 1.400 . S
C4 C5 1.351 . S
C4 H21 0.930 . S
C5 N1 1.389 . S
C5 C4 1.351 . S
C5 H10 0.930 . S
O6 Cu0 1.974 . S
O6 C16 1.282 . S
C7 O8 1.261 . S
C7 O20 1.251 . S
O8 C7 1.261 . S
H9 C3 0.930 . S
H10 C5 0.930 . S
N11 Cu0 1.985 . S
N11 C13 1.335 . S
N11 C14 1.390 . S
N12 C13 1.345 . S
N12 C15 1.336 . S
C13 N11 1.335 . S
C13 N12 1.345 . S
C13 H18 0.930 . S
C14 N11 1.390 . S
C14 C15 1.346 . S
C14 H19 0.930 . S
C15 N12 1.336 . S
C15 C14 1.346 . S
C15 H22 0.929 . S
C16 O6 1.282 . S
C16 O17 1.216 . S
O17 C16 1.216 . S
H18 C13 0.930 . S
H19 C14 0.930 . S
O20 Cu0 1.959 . S
O20 C7 1.251 . S
H21 C4 0.930 . S
H22 C15 0.929 . S
Cu23 N24 1.999 . S
Cu23 O29 1.974 . S
Cu23 N34 1.985 . S
Cu23 O43 1.959 . S
N24 Cu23 1.999 . S
N24 C26 1.263 . S
N24 C28 1.389 . S
N25 C26 1.358 . S
N25 C27 1.400 . S
C26 N24 1.263 . S
C26 N25 1.358 . S
C26 H32 0.930 . S
C27 N25 1.400 . S
C27 C28 1.351 . S
C27 H44 0.930 . S
C28 N24 1.389 . S
C28 C27 1.351 . S
C28 H33 0.930 . S
O29 Cu23 1.974 . S
O29 C39 1.282 . S
C30 O31 1.261 . S
C30 O43 1.251 . S
O31 C30 1.261 . S
H32 C26 0.930 . S
H33 C28 0.930 . S
N34 Cu23 1.985 . S
N34 C36 1.335 . S
N34 C37 1.390 . S
N35 C36 1.345 . S
N35 C38 1.336 . S
C36 N34 1.335 . S
C36 N35 1.345 . S
C36 H41 0.930 . S
C37 N34 1.390 . S
C37 C38 1.346 . S
C37 H42 0.930 . S
C38 N35 1.336 . S
C38 C37 1.346 . S
C38 H45 0.929 . S
C39 O29 1.282 . S
C39 O40 1.216 . S
O40 C39 1.216 . S
H41 C36 0.930 . S
H42 C37 0.930 . S
O43 Cu23 1.959 . S
O43 C30 1.251 . S
H44 C27 0.930 . S
H45 C38 0.929 . S
Cu46 N47 1.999 . S
Cu46 O52 1.974 . S
Cu46 N57 1.985 . S
Cu46 O66 1.959 . S
N47 Cu46 1.999 . S
N47 C49 1.263 . S
N47 C51 1.389 . S
N48 C49 1.358 . S
N48 C50 1.400 . S
C49 N47 1.263 . S
C49 N48 1.358 . S
C49 H55 0.930 . S
C50 N48 1.400 . S
C50 C51 1.351 . S
C50 H67 0.930 . S
C51 N47 1.389 . S
C51 C50 1.351 . S
C51 H56 0.930 . S
O52 Cu46 1.974 . S
O52 C62 1.282 . S
C53 O54 1.261 . S
C53 O66 1.251 . S
O54 C53 1.261 . S
H55 C49 0.930 . S
H56 C51 0.930 . S
N57 Cu46 1.985 . S
N57 C59 1.335 . S
N57 C60 1.390 . S
N58 C59 1.345 . S
N58 C61 1.336 . S
C59 N57 1.335 . S
C59 N58 1.345 . S
C59 H64 0.930 . S
C60 N57 1.390 . S
C60 C61 1.346 . S
C60 H65 0.930 . S
C61 N58 1.336 . S
C61 C60 1.346 . S
C61 H68 0.929 . S
C62 O52 1.282 . S
C62 O63 1.216 . S
O63 C62 1.216 . S
H64 C59 0.930 . S
H65 C60 0.930 . S
O66 Cu46 1.959 . S
O66 C53 1.251 . S
H67 C50 0.930 . S
H68 C61 0.929 . S
Cu69 N70 1.999 . S
Cu69 O75 1.974 . S
Cu69 N80 1.985 . S
Cu69 O89 1.959 . S
N70 Cu69 1.999 . S
N70 C72 1.263 . S
N70 C74 1.389 . S
N71 C72 1.358 . S
N71 C73 1.400 . S
C72 N70 1.263 . S
C72 N71 1.358 . S
C72 H78 0.930 . S
C73 N71 1.400 . S
C73 C74 1.351 . S
C73 H90 0.930 . S
C74 N70 1.389 . S
C74 C73 1.351 . S
C74 H79 0.930 . S
O75 Cu69 1.974 . S
O75 C85 1.282 . S
C76 O77 1.261 . S
C76 O89 1.251 . S
O77 C76 1.261 . S
H78 C72 0.930 . S
H79 C74 0.930 . S
N80 Cu69 1.985 . S
N80 C82 1.335 . S
N80 C83 1.390 . S
N81 C82 1.345 . S
N81 C84 1.336 . S
C82 N80 1.335 . S
C82 N81 1.345 . S
C82 H87 0.930 . S
C83 N80 1.390 . S
C83 C84 1.346 . S
C83 H88 0.930 . S
C84 N81 1.336 . S
C84 C83 1.346 . S
C84 H91 0.929 . S
C85 O75 1.282 . S
C85 O86 1.216 . S
O86 C85 1.216 . S
H87 C82 0.930 . S
H88 C83 0.930 . S
O89 Cu69 1.959 . S
O89 C76 1.251 . S
H90 C73 0.930 . S
H91 C84 0.929 . S
Cu92 N93 1.999 . S
Cu92 O98 1.974 . S
Cu92 N103 1.985 . S
Cu92 O112 1.959 . S
N93 Cu92 1.999 . S
N93 C95 1.263 . S
N93 C97 1.389 . S
N94 C95 1.358 . S
N94 C96 1.400 . S
C95 N93 1.263 . S
C95 N94 1.358 . S
C95 H101 0.930 . S
C96 N94 1.400 . S
C96 C97 1.351 . S
C96 H113 0.930 . S
C97 N93 1.389 . S
C97 C96 1.351 . S
C97 H102 0.930 . S
O98 Cu92 1.974 . S
O98 C108 1.282 . S
C99 O100 1.261 . S
C99 O112 1.251 . S
O100 C99 1.261 . S
H101 C95 0.930 . S
H102 C97 0.930 . S
N103 Cu92 1.985 . S
N103 C105 1.335 . S
N103 C106 1.390 . S
N104 C105 1.345 . S
N104 C107 1.336 . S
C105 N103 1.335 . S
C105 N104 1.345 . S
C105 H110 0.930 . S
C106 N103 1.390 . S
C106 C107 1.346 . S
C106 H111 0.930 . S
C107 N104 1.336 . S
C107 C106 1.346 . S
C107 H114 0.929 . S
C108 O98 1.282 . S
C108 O109 1.216 . S
O109 C108 1.216 . S
H110 C105 0.930 . S
H111 C106 0.930 . S
O112 Cu92 1.959 . S
O112 C99 1.251 . S
H113 C96 0.930 . S
H114 C107 0.929 . S
Cu115 N116 1.999 . S
Cu115 O121 1.974 . S
Cu115 N126 1.985 . S
Cu115 O135 1.959 . S
N116 Cu115 1.999 . S
N116 C118 1.263 . S
N116 C120 1.389 . S
N117 C118 1.358 . S
N117 C119 1.400 . S
C118 N116 1.263 . S
C118 N117 1.358 . S
C118 H124 0.930 . S
C119 N117 1.400 . S
C119 C120 1.351 . S
C119 H136 0.930 . S
C120 N116 1.389 . S
C120 C119 1.351 . S
C120 H125 0.930 . S
O121 Cu115 1.974 . S
O121 C131 1.282 . S
C122 O123 1.261 . S
C122 O135 1.251 . S
O123 C122 1.261 . S
H124 C118 0.930 . S
H125 C120 0.930 . S
N126 Cu115 1.985 . S
N126 C128 1.335 . S
N126 C129 1.390 . S
N127 C128 1.345 . S
N127 C130 1.336 . S
C128 N126 1.335 . S
C128 N127 1.345 . S
C128 H133 0.930 . S
C129 N126 1.390 . S
C129 C130 1.346 . S
C129 H134 0.930 . S
C130 N127 1.336 . S
C130 C129 1.346 . S
C130 H137 0.929 . S
C131 O121 1.282 . S
C131 O132 1.216 . S
O132 C131 1.216 . S
H133 C128 0.930 . S
H134 C129 0.930 . S
O135 Cu115 1.959 . S
O135 C122 1.251 . S
H136 C119 0.930 . S
H137 C130 0.929 . S
Cu138 N139 1.999 . S
Cu138 O144 1.974 . S
Cu138 N149 1.985 . S
Cu138 O158 1.959 . S
N139 Cu138 1.999 . S
N139 C141 1.263 . S
N139 C143 1.389 . S
N140 C141 1.358 . S
N140 C142 1.400 . S
C141 N139 1.263 . S
C141 N140 1.358 . S
C141 H147 0.930 . S
C142 N140 1.400 . S
C142 C143 1.351 . S
C142 H159 0.930 . S
C143 N139 1.389 . S
C143 C142 1.351 . S
C143 H148 0.930 . S
O144 Cu138 1.974 . S
O144 C154 1.282 . S
C145 O146 1.261 . S
C145 O158 1.251 . S
O146 C145 1.261 . S
H147 C141 0.930 . S
H148 C143 0.930 . S
N149 Cu138 1.985 . S
N149 C151 1.335 . S
N149 C152 1.390 . S
N150 C151 1.345 . S
N150 C153 1.336 . S
C151 N149 1.335 . S
C151 N150 1.345 . S
C151 H156 0.930 . S
C152 N149 1.390 . S
C152 C153 1.346 . S
C152 H157 0.930 . S
C153 N150 1.336 . S
C153 C152 1.346 . S
C153 H160 0.929 . S
C154 O144 1.282 . S
C154 O155 1.216 . S
O155 C154 1.216 . S
H156 C151 0.930 . S
H157 C152 0.930 . S
O158 Cu138 1.959 . S
O158 C145 1.251 . S
H159 C142 0.930 . S
H160 C153 0.929 . S
Cu161 N162 1.999 . S
Cu161 O167 1.974 . S
Cu161 N172 1.985 . S
Cu161 O181 1.959 . S
N162 Cu161 1.999 . S
N162 C164 1.263 . S
N162 C166 1.389 . S
N163 C164 1.358 . S
N163 C165 1.400 . S
C164 N162 1.263 . S
C164 N163 1.358 . S
C164 H170 0.930 . S
C165 N163 1.400 . S
C165 C166 1.351 . S
C165 H182 0.930 . S
C166 N162 1.389 . S
C166 C165 1.351 . S
C166 H171 0.930 . S
O167 Cu161 1.974 . S
O167 C177 1.282 . S
C168 O169 1.261 . S
C168 O181 1.251 . S
O169 C168 1.261 . S
H170 C164 0.930 . S
H171 C166 0.930 . S
N172 Cu161 1.985 . S
N172 C174 1.335 . S
N172 C175 1.390 . S
N173 C174 1.345 . S
N173 C176 1.336 . S
C174 N172 1.335 . S
C174 N173 1.345 . S
C174 H179 0.930 . S
C175 N172 1.390 . S
C175 C176 1.346 . S
C175 H180 0.930 . S
C176 N173 1.336 . S
C176 C175 1.346 . S
C176 H183 0.929 . S
C177 O167 1.282 . S
C177 O178 1.216 . S
O178 C177 1.216 . S
H179 C174 0.930 . S
H180 C175 0.930 . S
O181 Cu161 1.959 . S
O181 C168 1.251 . S
H182 C165 0.930 . S
H183 C176 0.929 . S
Cu184 N185 1.999 . S
Cu184 O190 1.974 . S
Cu184 N195 1.985 . S
Cu184 O204 1.959 . S
N185 Cu184 1.999 . S
N185 C187 1.263 . S
N185 C189 1.389 . S
N186 C187 1.358 . S
N186 C188 1.400 . S
C187 N185 1.263 . S
C187 N186 1.358 . S
C187 H193 0.930 . S
C188 N186 1.400 . S
C188 C189 1.351 . S
C188 H205 0.930 . S
C189 N185 1.389 . S
C189 C188 1.351 . S
C189 H194 0.930 . S
O190 Cu184 1.974 . S
O190 C200 1.282 . S
C191 O192 1.261 . S
C191 O204 1.251 . S
O192 C191 1.261 . S
H193 C187 0.930 . S
H194 C189 0.930 . S
N195 Cu184 1.985 . S
N195 C197 1.335 . S
N195 C198 1.390 . S
N196 C197 1.345 . S
N196 C199 1.336 . S
C197 N195 1.335 . S
C197 N196 1.345 . S
C197 H202 0.930 . S
C198 N195 1.390 . S
C198 C199 1.346 . S
C198 H203 0.930 . S
C199 N196 1.336 . S
C199 C198 1.346 . S
C199 H206 0.929 . S
C200 O190 1.282 . S
C200 O201 1.216 . S
O201 C200 1.216 . S
H202 C197 0.930 . S
H203 C198 0.930 . S
O204 Cu184 1.959 . S
O204 C191 1.251 . S
H205 C188 0.930 . S
H206 C199 0.929 . S
Cu207 N208 1.999 . S
Cu207 O213 1.974 . S
Cu207 N218 1.985 . S
Cu207 O227 1.959 . S
N208 Cu207 1.999 . S
N208 C210 1.263 . S
N208 C212 1.389 . S
N209 C210 1.358 . S
N209 C211 1.400 . S
C210 N208 1.263 . S
C210 N209 1.358 . S
C210 H216 0.930 . S
C211 N209 1.400 . S
C211 C212 1.351 . S
C211 H228 0.930 . S
C212 N208 1.389 . S
C212 C211 1.351 . S
C212 H217 0.930 . S
O213 Cu207 1.974 . S
O213 C223 1.282 . S
C214 O215 1.261 . S
C214 O227 1.251 . S
O215 C214 1.261 . S
H216 C210 0.930 . S
H217 C212 0.930 . S
N218 Cu207 1.985 . S
N218 C220 1.335 . S
N218 C221 1.390 . S
N219 C220 1.345 . S
N219 C222 1.336 . S
C220 N218 1.335 . S
C220 N219 1.345 . S
C220 H225 0.930 . S
C221 N218 1.390 . S
C221 C222 1.346 . S
C221 H226 0.930 . S
C222 N219 1.336 . S
C222 C221 1.346 . S
C222 H229 0.929 . S
C223 O213 1.282 . S
C223 O224 1.216 . S
O224 C223 1.216 . S
H225 C220 0.930 . S
H226 C221 0.930 . S
O227 Cu207 1.959 . S
O227 C214 1.251 . S
H228 C211 0.930 . S
H229 C222 0.929 . S
Cu230 N231 1.999 . S
Cu230 O236 1.974 . S
Cu230 N241 1.985 . S
Cu230 O250 1.959 . S
N231 Cu230 1.999 . S
N231 C233 1.263 . S
N231 C235 1.389 . S
N232 C233 1.358 . S
N232 C234 1.400 . S
C233 N231 1.263 . S
C233 N232 1.358 . S
C233 H239 0.930 . S
C234 N232 1.400 . S
C234 C235 1.351 . S
C234 H251 0.930 . S
C235 N231 1.389 . S
C235 C234 1.351 . S
C235 H240 0.930 . S
O236 Cu230 1.974 . S
O236 C246 1.282 . S
C237 O238 1.261 . S
C237 O250 1.251 . S
O238 C237 1.261 . S
H239 C233 0.930 . S
H240 C235 0.930 . S
N241 Cu230 1.985 . S
N241 C243 1.335 . S
N241 C244 1.390 . S
N242 C243 1.345 . S
N242 C245 1.336 . S
C243 N241 1.335 . S
C243 N242 1.345 . S
C243 H248 0.930 . S
C244 N241 1.390 . S
C244 C245 1.346 . S
C244 H249 0.930 . S
C245 N242 1.336 . S
C245 C244 1.346 . S
C245 H252 0.929 . S
C246 O236 1.282 . S
C246 O247 1.216 . S
O247 C246 1.216 . S
H248 C243 0.930 . S
H249 C244 0.930 . S
O250 Cu230 1.959 . S
O250 C237 1.251 . S
H251 C234 0.930 . S
H252 C245 0.929 . S
Cu253 N254 1.999 . S
Cu253 O259 1.974 . S
Cu253 N264 1.985 . S
Cu253 O273 1.959 . S
N254 Cu253 1.999 . S
N254 C256 1.263 . S
N254 C258 1.389 . S
N255 C256 1.358 . S
N255 C257 1.400 . S
C256 N254 1.263 . S
C256 N255 1.358 . S
C256 H262 0.930 . S
C257 N255 1.400 . S
C257 C258 1.351 . S
C257 H274 0.930 . S
C258 N254 1.389 . S
C258 C257 1.351 . S
C258 H263 0.930 . S
O259 Cu253 1.974 . S
O259 C269 1.282 . S
C260 O261 1.261 . S
C260 O273 1.251 . S
O261 C260 1.261 . S
H262 C256 0.930 . S
H263 C258 0.930 . S
N264 Cu253 1.985 . S
N264 C266 1.335 . S
N264 C267 1.390 . S
N265 C266 1.345 . S
N265 C268 1.336 . S
C266 N264 1.335 . S
C266 N265 1.345 . S
C266 H271 0.930 . S
C267 N264 1.390 . S
C267 C268 1.346 . S
C267 H272 0.930 . S
C268 N265 1.336 . S
C268 C267 1.346 . S
C268 H275 0.929 . S
C269 O259 1.282 . S
C269 O270 1.216 . S
O270 C269 1.216 . S
H271 C266 0.930 . S
H272 C267 0.930 . S
O273 Cu253 1.959 . S
O273 C260 1.251 . S
H274 C257 0.930 . S
H275 C268 0.929 . S
Cu276 N277 1.999 . S
Cu276 O282 1.974 . S
Cu276 N287 1.985 . S
Cu276 O296 1.959 . S
N277 Cu276 1.999 . S
N277 C279 1.263 . S
N277 C281 1.389 . S
N278 C279 1.358 . S
N278 C280 1.400 . S
C279 N277 1.263 . S
C279 N278 1.358 . S
C279 H285 0.930 . S
C280 N278 1.400 . S
C280 C281 1.351 . S
C280 H297 0.930 . S
C281 N277 1.389 . S
C281 C280 1.351 . S
C281 H286 0.930 . S
O282 Cu276 1.974 . S
O282 C292 1.282 . S
C283 O284 1.261 . S
C283 O296 1.251 . S
O284 C283 1.261 . S
H285 C279 0.930 . S
H286 C281 0.930 . S
N287 Cu276 1.985 . S
N287 C289 1.335 . S
N287 C290 1.390 . S
N288 C289 1.345 . S
N288 C291 1.336 . S
C289 N287 1.335 . S
C289 N288 1.345 . S
C289 H294 0.930 . S
C290 N287 1.390 . S
C290 C291 1.346 . S
C290 H295 0.930 . S
C291 N288 1.336 . S
C291 C290 1.346 . S
C291 H298 0.929 . S
C292 O282 1.282 . S
C292 O293 1.216 . S
O293 C292 1.216 . S
H294 C289 0.930 . S
H295 C290 0.930 . S
O296 Cu276 1.959 . S
O296 C283 1.251 . S
H297 C280 0.930 . S
H298 C291 0.929 . S
Cu299 N300 1.999 . S
Cu299 O305 1.974 . S
Cu299 N310 1.985 . S
Cu299 O319 1.959 . S
N300 Cu299 1.999 . S
N300 C302 1.263 . S
N300 C304 1.389 . S
N301 C302 1.358 . S
N301 C303 1.400 . S
C302 N300 1.263 . S
C302 N301 1.358 . S
C302 H308 0.930 . S
C303 N301 1.400 . S
C303 C304 1.351 . S
C303 H320 0.930 . S
C304 N300 1.389 . S
C304 C303 1.351 . S
C304 H309 0.930 . S
O305 Cu299 1.974 . S
O305 C315 1.282 . S
C306 O307 1.261 . S
C306 O319 1.251 . S
O307 C306 1.261 . S
H308 C302 0.930 . S
H309 C304 0.930 . S
N310 Cu299 1.985 . S
N310 C312 1.335 . S
N310 C313 1.390 . S
N311 C312 1.345 . S
N311 C314 1.336 . S
C312 N310 1.335 . S
C312 N311 1.345 . S
C312 H317 0.930 . S
C313 N310 1.390 . S
C313 C314 1.346 . S
C313 H318 0.930 . S
C314 N311 1.336 . S
C314 C313 1.346 . S
C314 H321 0.929 . S
C315 O305 1.282 . S
C315 O316 1.216 . S
O316 C315 1.216 . S
H317 C312 0.930 . S
H318 C313 0.930 . S
O319 Cu299 1.959 . S
O319 C306 1.251 . S
H320 C303 0.930 . S
H321 C314 0.929 . S
Cu322 N323 1.999 . S
Cu322 O328 1.974 . S
Cu322 N333 1.985 . S
Cu322 O342 1.959 . S
N323 Cu322 1.999 . S
N323 C325 1.263 . S
N323 C327 1.389 . S
N324 C325 1.358 . S
N324 C326 1.400 . S
C325 N323 1.263 . S
C325 N324 1.358 . S
C325 H331 0.930 . S
C326 N324 1.400 . S
C326 C327 1.351 . S
C326 H343 0.930 . S
C327 N323 1.389 . S
C327 C326 1.351 . S
C327 H332 0.930 . S
O328 Cu322 1.974 . S
O328 C338 1.282 . S
C329 O330 1.261 . S
C329 O342 1.251 . S
O330 C329 1.261 . S
H331 C325 0.930 . S
H332 C327 0.930 . S
N333 Cu322 1.985 . S
N333 C335 1.335 . S
N333 C336 1.390 . S
N334 C335 1.345 . S
N334 C337 1.336 . S
C335 N333 1.335 . S
C335 N334 1.345 . S
C335 H340 0.930 . S
C336 N333 1.390 . S
C336 C337 1.346 . S
C336 H341 0.930 . S
C337 N334 1.336 . S
C337 C336 1.346 . S
C337 H344 0.929 . S
C338 O328 1.282 . S
C338 O339 1.216 . S
O339 C338 1.216 . S
H340 C335 0.930 . S
H341 C336 0.930 . S
O342 Cu322 1.959 . S
O342 C329 1.251 . S
H343 C326 0.930 . S
H344 C337 0.929 . S
Cu345 N346 1.999 . S
Cu345 O351 1.974 . S
Cu345 N356 1.985 . S
Cu345 O365 1.959 . S
N346 Cu345 1.999 . S
N346 C348 1.263 . S
N346 C350 1.389 . S
N347 C348 1.358 . S
N347 C349 1.400 . S
C348 N346 1.263 . S
C348 N347 1.358 . S
C348 H354 0.930 . S
C349 N347 1.400 . S
C349 C350 1.351 . S
C349 H366 0.930 . S
C350 N346 1.389 . S
C350 C349 1.351 . S
C350 H355 0.930 . S
O351 Cu345 1.974 . S
O351 C361 1.282 . S
C352 O353 1.261 . S
C352 O365 1.251 . S
O353 C352 1.261 . S
H354 C348 0.930 . S
H355 C350 0.930 . S
N356 Cu345 1.985 . S
N356 C358 1.335 . S
N356 C359 1.390 . S
N357 C358 1.345 . S
N357 C360 1.336 . S
C358 N356 1.335 . S
C358 N357 1.345 . S
C358 H363 0.930 . S
C359 N356 1.390 . S
C359 C360 1.346 . S
C359 H364 0.930 . S
C360 N357 1.336 . S
C360 C359 1.346 . S
C360 H367 0.929 . S
C361 O351 1.282 . S
C361 O362 1.216 . S
O362 C361 1.216 . S
H363 C358 0.930 . S
H364 C359 0.930 . S
O365 Cu345 1.959 . S
O365 C352 1.251 . S
H366 C349 0.930 . S
H367 C360 0.929 . S
H368 C374 0.930 . S
H369 C378 0.930 . S
H370 C383 0.929 . S
H371 C381 0.929 . S
H372 C376 0.929 . S
H373 C382 0.929 . S
C374 H368 0.930 . S
C374 C375 1.367 . S
C374 C382 1.378 . S
C375 C374 1.367 . S
C375 C383 1.433 . S
C376 H372 0.929 . S
C376 C378 1.378 . S
C376 C380 1.350 . S
C377 C380 1.463 1_455 S
C377 C382 1.350 . S
C377 N385 1.427 . S
C378 H369 0.930 . S
C378 C376 1.378 . S
C378 C379 1.367 . S
C379 C378 1.367 . S
C379 C381 1.433 . S
C380 C376 1.350 . S
C380 C377 1.463 1_655 S
C380 N384 1.427 . S
C381 H371 0.929 . S
C381 C379 1.433 . S
C381 N384 1.384 . S
C382 H373 0.929 . S
C382 C374 1.378 . S
C382 C377 1.350 . S
C383 H370 0.929 . S
C383 C375 1.433 . S
C383 N385 1.384 . S
N384 C380 1.427 . S
N384 C381 1.384 . S
N385 C377 1.427 . S
N385 C383 1.384 . S
H386 C392 0.930 . S
H387 C396 0.930 . S
H388 C401 0.929 . S
H389 C399 0.929 . S
H390 C394 0.929 . S
H391 C400 0.929 . S
C392 H386 0.930 . S
C392 C393 1.367 . S
C392 C400 1.378 . S
C393 C392 1.367 . S
C393 C401 1.433 . S
C394 H390 0.929 . S
C394 C396 1.378 . S
C394 C398 1.350 . S
C395 C398 1.463 1_565 S
C395 C400 1.350 . S
C395 N403 1.427 . S
C396 H387 0.930 . S
C396 C394 1.378 . S
C396 C397 1.367 . S
C397 C396 1.367 . S
C397 C399 1.433 . S
C398 C394 1.350 . S
C398 C395 1.463 1_545 S
C398 N402 1.427 . S
C399 H389 0.929 . S
C399 C397 1.433 . S
C399 N402 1.384 . S
C400 H391 0.929 . S
C400 C392 1.378 . S
C400 C395 1.350 . S
C401 H388 0.929 . S
C401 C393 1.433 . S
C401 N403 1.384 . S
N402 C398 1.427 . S
N402 C399 1.384 . S
N403 C395 1.427 . S
N403 C401 1.384 . S
H404 C410 0.930 . S
H405 C414 0.930 . S
H406 C419 0.929 . S
H407 C417 0.929 . S
H408 C412 0.929 . S
H409 C418 0.929 . S
C410 H404 0.930 . S
C410 C411 1.367 . S
C410 C418 1.378 . S
C411 C410 1.367 . S
C411 C419 1.433 . S
C412 H408 0.929 . S
C412 C414 1.378 . S
C412 C416 1.350 . S
C413 C416 1.463 1_455 S
C413 C418 1.350 . S
C413 N421 1.427 . S
C414 H405 0.930 . S
C414 C412 1.378 . S
C414 C415 1.367 . S
C415 C414 1.367 . S
C415 C417 1.433 . S
C416 C412 1.350 . S
C416 C413 1.463 1_655 S
C416 N420 1.427 . S
C417 H407 0.929 . S
C417 C415 1.433 . S
C417 N420 1.384 . S
C418 H409 0.929 . S
C418 C410 1.378 . S
C418 C413 1.350 . S
C419 H406 0.929 . S
C419 C411 1.433 . S
C419 N421 1.384 . S
N420 C416 1.427 . S
N420 C417 1.384 . S
N421 C413 1.427 . S
N421 C419 1.384 . S
H422 C428 0.930 . S
H423 C432 0.930 . S
H424 C437 0.929 . S
H425 C435 0.929 . S
H426 C430 0.929 . S
H427 C436 0.929 . S
C428 H422 0.930 . S
C428 C429 1.367 . S
C428 C436 1.378 . S
C429 C428 1.367 . S
C429 C437 1.433 . S
C430 H426 0.929 . S
C430 C432 1.378 . S
C430 C434 1.350 . S
C431 C434 1.463 1_565 S
C431 C436 1.350 . S
C431 N439 1.427 . S
C432 H423 0.930 . S
C432 C430 1.378 . S
C432 C433 1.367 . S
C433 C432 1.367 . S
C433 C435 1.433 . S
C434 C430 1.350 . S
C434 C431 1.463 1_545 S
C434 N438 1.427 . S
C435 H425 0.929 . S
C435 C433 1.433 . S
C435 N438 1.384 . S
C436 H427 0.929 . S
C436 C428 1.378 . S
C436 C431 1.350 . S
C437 H424 0.929 . S
C437 C429 1.433 . S
C437 N439 1.384 . S
N438 C434 1.427 . S
N438 C435 1.384 . S
N439 C431 1.427 . S
N439 C437 1.384 . S
H440 C446 0.930 . S
H441 C450 0.930 . S
H442 C455 0.929 . S
H443 C453 0.929 . S
H444 C448 0.929 . S
H445 C454 0.929 . S
C446 H440 0.930 . S
C446 C447 1.367 . S
C446 C454 1.378 . S
C447 C446 1.367 . S
C447 C455 1.433 . S
C448 H444 0.929 . S
C448 C450 1.378 . S
C448 C452 1.350 . S
C449 C452 1.463 1_655 S
C449 C454 1.350 . S
C449 N457 1.427 . S
C450 H441 0.930 . S
C450 C448 1.378 . S
C450 C451 1.367 . S
C451 C450 1.367 . S
C451 C453 1.433 . S
C452 C448 1.350 . S
C452 C449 1.463 1_455 S
C452 N456 1.427 . S
C453 H443 0.929 . S
C453 C451 1.433 . S
C453 N456 1.384 . S
C454 H445 0.929 . S
C454 C446 1.378 . S
C454 C449 1.350 . S
C455 H442 0.929 . S
C455 C447 1.433 . S
C455 N457 1.384 . S
N456 C452 1.427 . S
N456 C453 1.384 . S
N457 C449 1.427 . S
N457 C455 1.384 . S
H458 C464 0.930 . S
H459 C468 0.930 . S
H460 C473 0.929 . S
H461 C471 0.929 . S
H462 C466 0.929 . S
H463 C472 0.929 . S
C464 H458 0.930 . S
C464 C465 1.367 . S
C464 C472 1.378 . S
C465 C464 1.367 . S
C465 C473 1.433 . S
C466 H462 0.929 . S
C466 C468 1.378 . S
C466 C470 1.350 . S
C467 C470 1.463 1_545 S
C467 C472 1.350 . S
C467 N475 1.427 . S
C468 H459 0.930 . S
C468 C466 1.378 . S
C468 C469 1.367 . S
C469 C468 1.367 . S
C469 C471 1.433 . S
C470 C466 1.350 . S
C470 C467 1.463 1_565 S
C470 N474 1.427 . S
C471 H461 0.929 . S
C471 C469 1.433 . S
C471 N474 1.384 . S
C472 H463 0.929 . S
C472 C464 1.378 . S
C472 C467 1.350 . S
C473 H460 0.929 . S
C473 C465 1.433 . S
C473 N475 1.384 . S
N474 C470 1.427 . S
N474 C471 1.384 . S
N475 C467 1.427 . S
N475 C473 1.384 . S
H476 C482 0.930 . S
H477 C486 0.930 . S
H478 C491 0.929 . S
H479 C489 0.929 . S
H480 C484 0.929 . S
H481 C490 0.929 . S
C482 H476 0.930 . S
C482 C483 1.367 . S
C482 C490 1.378 . S
C483 C482 1.367 . S
C483 C491 1.433 . S
C484 H480 0.929 . S
C484 C486 1.378 . S
C484 C488 1.350 . S
C485 C488 1.463 1_655 S
C485 C490 1.350 . S
C485 N493 1.427 . S
C486 H477 0.930 . S
C486 C484 1.378 . S
C486 C487 1.367 . S
C487 C486 1.367 . S
C487 C489 1.433 . S
C488 C484 1.350 . S
C488 C485 1.463 1_455 S
C488 N492 1.427 . S
C489 H479 0.929 . S
C489 C487 1.433 . S
C489 N492 1.384 . S
C490 H481 0.929 . S
C490 C482 1.378 . S
C490 C485 1.350 . S
C491 H478 0.929 . S
C491 C483 1.433 . S
C491 N493 1.384 . S
N492 C488 1.427 . S
N492 C489 1.384 . S
N493 C485 1.427 . S
N493 C491 1.384 . S
H494 C500 0.930 . S
H495 C504 0.930 . S
H496 C509 0.929 . S
H497 C507 0.929 . S
H498 C502 0.929 . S
H499 C508 0.929 . S
C500 H494 0.930 . S
C500 C501 1.367 . S
C500 C508 1.378 . S
C501 C500 1.367 . S
C501 C509 1.433 . S
C502 H498 0.929 . S
C502 C504 1.378 . S
C502 C506 1.350 . S
C503 C506 1.463 1_545 S
C503 C508 1.350 . S
C503 N511 1.427 . S
C504 H495 0.930 . S
C504 C502 1.378 . S
C504 C505 1.367 . S
C505 C504 1.367 . S
C505 C507 1.433 . S
C506 C502 1.350 . S
C506 C503 1.463 1_565 S
C506 N510 1.427 . S
C507 H497 0.929 . S
C507 C505 1.433 . S
C507 N510 1.384 . S
C508 H499 0.929 . S
C508 C500 1.378 . S
C508 C503 1.350 . S
C509 H496 0.929 . S
C509 C501 1.433 . S
C509 N511 1.384 . S
N510 C506 1.427 . S
N510 C507 1.384 . S
N511 C503 1.427 . S
N511 C509 1.384 . S
H512 C518 0.930 . S
H513 C522 0.930 . S
H514 C527 0.929 . S
H515 C525 0.929 . S
H516 C520 0.929 . S
H517 C526 0.929 . S
C518 H512 0.930 . S
C518 C519 1.367 . S
C518 C526 1.378 . S
C519 C518 1.367 . S
C519 C527 1.433 . S
C520 H516 0.929 . S
C520 C522 1.378 . S
C520 C524 1.350 . S
C521 C524 1.463 . S
C521 C526 1.350 . S
C521 N529 1.427 . S
C522 H513 0.930 . S
C522 C520 1.378 . S
C522 C523 1.367 . S
C523 C522 1.367 . S
C523 C525 1.433 . S
C524 C520 1.350 . S
C524 C521 1.463 . S
C524 N528 1.427 . S
C525 H515 0.929 . S
C525 C523 1.433 . S
C525 N528 1.384 . S
C526 H517 0.929 . S
C526 C518 1.378 . S
C526 C521 1.350 . S
C527 H514 0.929 . S
C527 C519 1.433 . S
C527 N529 1.384 . S
N528 C524 1.427 . S
N528 C525 1.384 . S
N529 C521 1.427 . S
N529 C527 1.384 . S
H530 C536 0.930 . S
H531 C540 0.930 . S
H532 C545 0.929 . S
H533 C543 0.929 . S
H534 C538 0.929 . S
H535 C544 0.929 . S
C536 H530 0.930 . S
C536 C537 1.367 . S
C536 C544 1.378 . S
C537 C536 1.367 . S
C537 C545 1.433 . S
C538 H534 0.929 . S
C538 C540 1.378 . S
C538 C542 1.350 . S
C539 C542 1.463 . S
C539 C544 1.350 . S
C539 N547 1.427 . S
C540 H531 0.930 . S
C540 C538 1.378 . S
C540 C541 1.367 . S
C541 C540 1.367 . S
C541 C543 1.433 . S
C542 C538 1.350 . S
C542 C539 1.463 . S
C542 N546 1.427 . S
C543 H533 0.929 . S
C543 C541 1.433 . S
C543 N546 1.384 . S
C544 H535 0.929 . S
C544 C536 1.378 . S
C544 C539 1.350 . S
C545 H532 0.929 . S
C545 C537 1.433 . S
C545 N547 1.384 . S
N546 C542 1.427 . S
N546 C543 1.384 . S
N547 C539 1.427 . S
N547 C545 1.384 . S
H548 C554 0.930 . S
H549 C558 0.930 . S
H550 C563 0.929 . S
H551 C561 0.929 . S
H552 C556 0.929 . S
H553 C562 0.929 . S
C554 H548 0.930 . S
C554 C555 1.367 . S
C554 C562 1.378 . S
C555 C554 1.367 . S
C555 C563 1.433 . S
C556 H552 0.929 . S
C556 C558 1.378 . S
C556 C560 1.350 . S
C557 C560 1.463 . S
C557 C562 1.350 . S
C557 N565 1.427 . S
C558 H549 0.930 . S
C558 C556 1.378 . S
C558 C559 1.367 . S
C559 C558 1.367 . S
C559 C561 1.433 . S
C560 C556 1.350 . S
C560 C557 1.463 . S
C560 N564 1.427 . S
C561 H551 0.929 . S
C561 C559 1.433 . S
C561 N564 1.384 . S
C562 H553 0.929 . S
C562 C554 1.378 . S
C562 C557 1.350 . S
C563 H550 0.929 . S
C563 C555 1.433 . S
C563 N565 1.384 . S
N564 C560 1.427 . S
N564 C561 1.384 . S
N565 C557 1.427 . S
N565 C563 1.384 . S
H566 C572 0.930 . S
H567 C576 0.930 . S
H568 C581 0.929 . S
H569 C579 0.929 . S
H570 C574 0.929 . S
H571 C580 0.929 . S
C572 H566 0.930 . S
C572 C573 1.367 . S
C572 C580 1.378 . S
C573 C572 1.367 . S
C573 C581 1.433 . S
C574 H570 0.929 . S
C574 C576 1.378 . S
C574 C578 1.350 . S
C575 C578 1.463 . S
C575 C580 1.350 . S
C575 N583 1.427 . S
C576 H567 0.930 . S
C576 C574 1.378 . S
C576 C577 1.367 . S
C577 C576 1.367 . S
C577 C579 1.433 . S
C578 C574 1.350 . S
C578 C575 1.463 . S
C578 N582 1.427 . S
C579 H569 0.929 . S
C579 C577 1.433 . S
C579 N582 1.384 . S
C580 H571 0.929 . S
C580 C572 1.378 . S
C580 C575 1.350 . S
C581 H568 0.929 . S
C581 C573 1.433 . S
C581 N583 1.384 . S
N582 C578 1.427 . S
N582 C579 1.384 . S
N583 C575 1.427 . S
N583 C581 1.384 . S
H584 C590 0.930 . S
H585 C594 0.930 . S
H586 C599 0.929 . S
H587 C597 0.929 . S
H588 C592 0.929 . S
H589 C598 0.929 . S
C590 H584 0.930 . S
C590 C591 1.367 . S
C590 C598 1.378 . S
C591 C590 1.367 . S
C591 C599 1.433 . S
C592 H588 0.929 . S
C592 C594 1.378 . S
C592 C596 1.350 . S
C593 C596 1.463 . S
C593 C598 1.350 . S
C593 N601 1.427 . S
C594 H585 0.930 . S
C594 C592 1.378 . S
C594 C595 1.367 . S
C595 C594 1.367 . S
C595 C597 1.433 . S
C596 C592 1.350 . S
C596 C593 1.463 . S
C596 N600 1.427 . S
C597 H587 0.929 . S
C597 C595 1.433 . S
C597 N600 1.384 . S
C598 H589 0.929 . S
C598 C590 1.378 . S
C598 C593 1.350 . S
C599 H586 0.929 . S
C599 C591 1.433 . S
C599 N601 1.384 . S
N600 C596 1.427 . S
N600 C597 1.384 . S
N601 C593 1.427 . S
N601 C599 1.384 . S
H602 C608 0.930 . S
H603 C612 0.930 . S
H604 C617 0.929 . S
H605 C615 0.929 . S
H606 C610 0.929 . S
H607 C616 0.929 . S
C608 H602 0.930 . S
C608 C609 1.367 . S
C608 C616 1.378 . S
C609 C608 1.367 . S
C609 C617 1.433 . S
C610 H606 0.929 . S
C610 C612 1.378 . S
C610 C614 1.350 . S
C611 C614 1.463 . S
C611 C616 1.350 . S
C611 N619 1.427 . S
C612 H603 0.930 . S
C612 C610 1.378 . S
C612 C613 1.367 . S
C613 C612 1.367 . S
C613 C615 1.433 . S
C614 C610 1.350 . S
C614 C611 1.463 . S
C614 N618 1.427 . S
C615 H605 0.929 . S
C615 C613 1.433 . S
C615 N618 1.384 . S
C616 H607 0.929 . S
C616 C608 1.378 . S
C616 C611 1.350 . S
C617 H604 0.929 . S
C617 C609 1.433 . S
C617 N619 1.384 . S
N618 C614 1.427 . S
N618 C615 1.384 . S
N619 C611 1.427 . S
N619 C617 1.384 . S
H620 C626 0.930 . S
H621 C630 0.930 . S
H622 C635 0.929 . S
H623 C633 0.929 . S
H624 C628 0.929 . S
H625 C634 0.929 . S
C626 H620 0.930 . S
C626 C627 1.367 . S
C626 C634 1.378 . S
C627 C626 1.367 . S
C627 C635 1.433 . S
C628 H624 0.929 . S
C628 C630 1.378 . S
C628 C632 1.350 . S
C629 C632 1.463 . S
C629 C634 1.350 . S
C629 N637 1.427 . S
C630 H621 0.930 . S
C630 C628 1.378 . S
C630 C631 1.367 . S
C631 C630 1.367 . S
C631 C633 1.433 . S
C632 C628 1.350 . S
C632 C629 1.463 . S
C632 N636 1.427 . S
C633 H623 0.929 . S
C633 C631 1.433 . S
C633 N636 1.384 . S
C634 H625 0.929 . S
C634 C626 1.378 . S
C634 C629 1.350 . S
C635 H622 0.929 . S
C635 C627 1.433 . S
C635 N637 1.384 . S
N636 C632 1.427 . S
N636 C633 1.384 . S
N637 C629 1.427 . S
N637 C635 1.384 . S
H638 C644 0.930 . S
H639 C648 0.930 . S
H640 C653 0.929 . S
H641 C651 0.929 . S
H642 C646 0.929 . S
H643 C652 0.929 . S
C644 H638 0.930 . S
C644 C645 1.367 . S
C644 C652 1.378 . S
C645 C644 1.367 . S
C645 C653 1.433 . S
C646 H642 0.929 . S
C646 C648 1.378 . S
C646 C650 1.350 . S
C647 C650 1.463 . S
C647 C652 1.350 . S
C647 N655 1.427 . S
C648 H639 0.930 . S
C648 C646 1.378 . S
C648 C649 1.367 . S
C649 C648 1.367 . S
C649 C651 1.433 . S
C650 C646 1.350 . S
C650 C647 1.463 . S
C650 N654 1.427 . S
C651 H641 0.929 . S
C651 C649 1.433 . S
C651 N654 1.384 . S
C652 H643 0.929 . S
C652 C644 1.378 . S
C652 C647 1.350 . S
C653 H640 0.929 . S
C653 C645 1.433 . S
C653 N655 1.384 . S
N654 C650 1.427 . S
N654 C651 1.384 . S
N655 C647 1.427 . S
N655 C653 1.384 . S
H656 C662 0.930 . S
H657 C666 0.930 . S
H658 C671 0.929 . S
H659 C669 0.929 . S
H660 C664 0.929 . S
H661 C670 0.929 . S
C662 H656 0.930 . S
C662 C663 1.367 . S
C662 C670 1.378 . S
C663 C662 1.367 . S
C663 C671 1.433 . S
C664 H660 0.929 . S
C664 C666 1.378 . S
C664 C668 1.350 . S
C665 C668 1.463 1_556 S
C665 C670 1.350 . S
C665 N673 1.427 . S
C666 H657 0.930 . S
C666 C664 1.378 . S
C666 C667 1.367 . S
C667 C666 1.367 . S
C667 C669 1.433 . S
C668 C664 1.350 . S
C668 C665 1.463 1_554 S
C668 N672 1.427 . S
C669 H659 0.929 . S
C669 C667 1.433 . S
C669 N672 1.384 . S
C670 H661 0.929 . S
C670 C662 1.378 . S
C670 C665 1.350 . S
C671 H658 0.929 . S
C671 C663 1.433 . S
C671 N673 1.384 . S
N672 C668 1.427 . S
N672 C669 1.384 . S
N673 C665 1.427 . S
N673 C671 1.384 . S
H674 C680 0.930 . S
H675 C684 0.930 . S
H676 C689 0.929 . S
H677 C687 0.929 . S
H678 C682 0.929 . S
H679 C688 0.929 . S
C680 H674 0.930 . S
C680 C681 1.367 . S
C680 C688 1.378 . S
C681 C680 1.367 . S
C681 C689 1.433 . S
C682 H678 0.929 . S
C682 C684 1.378 . S
C682 C686 1.350 . S
C683 C686 1.463 . S
C683 C688 1.350 . S
C683 N691 1.427 . S
C684 H675 0.930 . S
C684 C682 1.378 . S
C684 C685 1.367 . S
C685 C684 1.367 . S
C685 C687 1.433 . S
C686 C682 1.350 . S
C686 C683 1.463 . S
C686 N690 1.427 . S
C687 H677 0.929 . S
C687 C685 1.433 . S
C687 N690 1.384 . S
C688 H679 0.929 . S
C688 C680 1.378 . S
C688 C683 1.350 . S
C689 H676 0.929 . S
C689 C681 1.433 . S
C689 N691 1.384 . S
N690 C686 1.427 . S
N690 C687 1.384 . S
N691 C683 1.427 . S
N691 C689 1.384 . S
H692 C698 0.930 . S
H693 C702 0.930 . S
H694 C707 0.929 . S
H695 C705 0.929 . S
H696 C700 0.929 . S
H697 C706 0.929 . S
C698 H692 0.930 . S
C698 C699 1.367 . S
C698 C706 1.378 . S
C699 C698 1.367 . S
C699 C707 1.433 . S
C700 H696 0.929 . S
C700 C702 1.378 . S
C700 C704 1.350 . S
C701 C704 1.463 1_554 S
C701 C706 1.350 . S
C701 N709 1.427 . S
C702 H693 0.930 . S
C702 C700 1.378 . S
C702 C703 1.367 . S
C703 C702 1.367 . S
C703 C705 1.433 . S
C704 C700 1.350 . S
C704 C701 1.463 1_556 S
C704 N708 1.427 . S
C705 H695 0.929 . S
C705 C703 1.433 . S
C705 N708 1.384 . S
C706 H697 0.929 . S
C706 C698 1.378 . S
C706 C701 1.350 . S
C707 H694 0.929 . S
C707 C699 1.433 . S
C707 N709 1.384 . S
N708 C704 1.427 . S
N708 C705 1.384 . S
N709 C701 1.427 . S
N709 C707 1.384 . S
H710 C716 0.930 . S
H711 C720 0.930 . S
H712 C725 0.929 . S
H713 C723 0.929 . S
H714 C718 0.929 . S
H715 C724 0.929 . S
C716 H710 0.930 . S
C716 C717 1.367 . S
C716 C724 1.378 . S
C717 C716 1.367 . S
C717 C725 1.433 . S
C718 H714 0.929 . S
C718 C720 1.378 . S
C718 C722 1.350 . S
C719 C722 1.463 . S
C719 C724 1.350 . S
C719 N727 1.427 . S
C720 H711 0.930 . S
C720 C718 1.378 . S
C720 C721 1.367 . S
C721 C720 1.367 . S
C721 C723 1.433 . S
C722 C718 1.350 . S
C722 C719 1.463 . S
C722 N726 1.427 . S
C723 H713 0.929 . S
C723 C721 1.433 . S
C723 N726 1.384 . S
C724 H715 0.929 . S
C724 C716 1.378 . S
C724 C719 1.350 . S
C725 H712 0.929 . S
C725 C717 1.433 . S
C725 N727 1.384 . S
N726 C722 1.427 . S
N726 C723 1.384 . S
N727 C719 1.427 . S
N727 C725 1.384 . S
H728 C734 0.930 . S
H729 C738 0.930 . S
H730 C743 0.929 . S
H731 C741 0.929 . S
H732 C736 0.929 . S
H733 C742 0.929 . S
C734 H728 0.930 . S
C734 C735 1.367 . S
C734 C742 1.378 . S
C735 C734 1.367 . S
C735 C743 1.433 . S
C736 H732 0.929 . S
C736 C738 1.378 . S
C736 C740 1.350 . S
C737 C740 1.463 . S
C737 C742 1.350 . S
C737 N745 1.427 . S
C738 H729 0.930 . S
C738 C736 1.378 . S
C738 C739 1.367 . S
C739 C738 1.367 . S
C739 C741 1.433 . S
C740 C736 1.350 . S
C740 C737 1.463 . S
C740 N744 1.427 . S
C741 H731 0.929 . S
C741 C739 1.433 . S
C741 N744 1.384 . S
C742 H733 0.929 . S
C742 C734 1.378 . S
C742 C737 1.350 . S
C743 H730 0.929 . S
C743 C735 1.433 . S
C743 N745 1.384 . S
N744 C740 1.427 . S
N744 C741 1.384 . S
N745 C737 1.427 . S
N745 C743 1.384 . S
H746 C752 0.930 . S
H747 C756 0.930 . S
H748 C761 0.929 . S
H749 C759 0.929 . S
H750 C754 0.929 . S
H751 C760 0.929 . S
C752 H746 0.930 . S
C752 C753 1.367 . S
C752 C760 1.378 . S
C753 C752 1.367 . S
C753 C761 1.433 . S
C754 H750 0.929 . S
C754 C756 1.378 . S
C754 C758 1.350 . S
C755 C758 1.463 1_556 S
C755 C760 1.350 . S
C755 N763 1.427 . S
C756 H747 0.930 . S
C756 C754 1.378 . S
C756 C757 1.367 . S
C757 C756 1.367 . S
C757 C759 1.433 . S
C758 C754 1.350 . S
C758 C755 1.463 1_554 S
C758 N762 1.427 . S
C759 H749 0.929 . S
C759 C757 1.433 . S
C759 N762 1.384 . S
C760 H751 0.929 . S
C760 C752 1.378 . S
C760 C755 1.350 . S
C761 H748 0.929 . S
C761 C753 1.433 . S
C761 N763 1.384 . S
N762 C758 1.427 . S
N762 C759 1.384 . S
N763 C755 1.427 . S
N763 C761 1.384 . S
H764 C770 0.930 . S
H765 C774 0.930 . S
H766 C779 0.929 . S
H767 C777 0.929 . S
H768 C772 0.929 . S
H769 C778 0.929 . S
C770 H764 0.930 . S
C770 C771 1.367 . S
C770 C778 1.378 . S
C771 C770 1.367 . S
C771 C779 1.433 . S
C772 H768 0.929 . S
C772 C774 1.378 . S
C772 C776 1.350 . S
C773 C776 1.463 . S
C773 C778 1.350 . S
C773 N781 1.427 . S
C774 H765 0.930 . S
C774 C772 1.378 . S
C774 C775 1.367 . S
C775 C774 1.367 . S
C775 C777 1.433 . S
C776 C772 1.350 . S
C776 C773 1.463 . S
C776 N780 1.427 . S
C777 H767 0.929 . S
C777 C775 1.433 . S
C777 N780 1.384 . S
C778 H769 0.929 . S
C778 C770 1.378 . S
C778 C773 1.350 . S
C779 H766 0.929 . S
C779 C771 1.433 . S
C779 N781 1.384 . S
N780 C776 1.427 . S
N780 C777 1.384 . S
N781 C773 1.427 . S
N781 C779 1.384 . S
H782 C788 0.930 . S
H783 C792 0.930 . S
H784 C797 0.929 . S
H785 C795 0.929 . S
H786 C790 0.929 . S
H787 C796 0.929 . S
C788 H782 0.930 . S
C788 C789 1.367 . S
C788 C796 1.378 . S
C789 C788 1.367 . S
C789 C797 1.433 . S
C790 H786 0.929 . S
C790 C792 1.378 . S
C790 C794 1.350 . S
C791 C794 1.463 1_554 S
C791 C796 1.350 . S
C791 N799 1.427 . S
C792 H783 0.930 . S
C792 C790 1.378 . S
C792 C793 1.367 . S
C793 C792 1.367 . S
C793 C795 1.433 . S
C794 C790 1.350 . S
C794 C791 1.463 1_556 S
C794 N798 1.427 . S
C795 H785 0.929 . S
C795 C793 1.433 . S
C795 N798 1.384 . S
C796 H787 0.929 . S
C796 C788 1.378 . S
C796 C791 1.350 . S
C797 H784 0.929 . S
C797 C789 1.433 . S
C797 N799 1.384 . S
N798 C794 1.427 . S
N798 C795 1.384 . S
N799 C791 1.427 . S
N799 C797 1.384 . S
H800 C806 0.930 . S
H801 C810 0.930 . S
H802 C815 0.929 . S
H803 C813 0.929 . S
H804 C808 0.929 . S
H805 C814 0.929 . S
C806 H800 0.930 . S
C806 C807 1.367 . S
C806 C814 1.378 . S
C807 C806 1.367 . S
C807 C815 1.433 . S
C808 H804 0.929 . S
C808 C810 1.378 . S
C808 C812 1.350 . S
C809 C812 1.463 . S
C809 C814 1.350 . S
C809 N817 1.427 . S
C810 H801 0.930 . S
C810 C808 1.378 . S
C810 C811 1.367 . S
C811 C810 1.367 . S
C811 C813 1.433 . S
C812 C808 1.350 . S
C812 C809 1.463 . S
C812 N816 1.427 . S
C813 H803 0.929 . S
C813 C811 1.433 . S
C813 N816 1.384 . S
C814 H805 0.929 . S
C814 C806 1.378 . S
C814 C809 1.350 . S
C815 H802 0.929 . S
C815 C807 1.433 . S
C815 N817 1.384 . S
N816 C812 1.427 . S
N816 C813 1.384 . S
N817 C809 1.427 . S
N817 C815 1.384 . S
H818 C824 0.930 . S
H819 C828 0.930 . S
H820 C833 0.929 . S
H821 C831 0.929 . S
H822 C826 0.929 . S
H823 C832 0.929 . S
C824 H818 0.930 . S
C824 C825 1.367 . S
C824 C832 1.378 . S
C825 C824 1.367 . S
C825 C833 1.433 . S
C826 H822 0.929 . S
C826 C828 1.378 . S
C826 C830 1.350 . S
C827 C830 1.463 . S
C827 C832 1.350 . S
C827 N835 1.427 . S
C828 H819 0.930 . S
C828 C826 1.378 . S
C828 C829 1.367 . S
C829 C828 1.367 . S
C829 C831 1.433 . S
C830 C826 1.350 . S
C830 C827 1.463 . S
C830 N834 1.427 . S
C831 H821 0.929 . S
C831 C829 1.433 . S
C831 N834 1.384 . S
C832 H823 0.929 . S
C832 C824 1.378 . S
C832 C827 1.350 . S
C833 H820 0.929 . S
C833 C825 1.433 . S
C833 N835 1.384 . S
N834 C830 1.427 . S
N834 C831 1.384 . S
N835 C827 1.427 . S
N835 C833 1.384 . S
H836 C842 0.930 . S
H837 C846 0.930 . S
H838 C851 0.929 . S
H839 C849 0.929 . S
H840 C844 0.929 . S
H841 C850 0.929 . S
C842 H836 0.930 . S
C842 C843 1.367 . S
C842 C850 1.378 . S
C843 C842 1.367 . S
C843 C851 1.433 . S
C844 H840 0.929 . S
C844 C846 1.378 . S
C844 C848 1.350 . S
C845 C848 1.463 . S
C845 C850 1.350 . S
C845 N853 1.427 . S
C846 H837 0.930 . S
C846 C844 1.378 . S
C846 C847 1.367 . S
C847 C846 1.367 . S
C847 C849 1.433 . S
C848 C844 1.350 . S
C848 C845 1.463 . S
C848 N852 1.427 . S
C849 H839 0.929 . S
C849 C847 1.433 . S
C849 N852 1.384 . S
C850 H841 0.929 . S
C850 C842 1.378 . S
C850 C845 1.350 . S
C851 H838 0.929 . S
C851 C843 1.433 . S
C851 N853 1.384 . S
N852 C848 1.427 . S
N852 C849 1.384 . S
N853 C845 1.427 . S
N853 C851 1.384 . S
H854 C860 0.930 . S
H855 C864 0.930 . S
H856 C869 0.929 . S
H857 C867 0.929 . S
H858 C862 0.929 . S
H859 C868 0.929 . S
C860 H854 0.930 . S
C860 C861 1.367 . S
C860 C868 1.378 . S
C861 C860 1.367 . S
C861 C869 1.433 . S
C862 H858 0.929 . S
C862 C864 1.378 . S
C862 C866 1.350 . S
C863 C866 1.463 . S
C863 C868 1.350 . S
C863 N871 1.427 . S
C864 H855 0.930 . S
C864 C862 1.378 . S
C864 C865 1.367 . S
C865 C864 1.367 . S
C865 C867 1.433 . S
C866 C862 1.350 . S
C866 C863 1.463 . S
C866 N870 1.427 . S
C867 H857 0.929 . S
C867 C865 1.433 . S
C867 N870 1.384 . S
C868 H859 0.929 . S
C868 C860 1.378 . S
C868 C863 1.350 . S
C869 H856 0.929 . S
C869 C861 1.433 . S
C869 N871 1.384 . S
N870 C866 1.427 . S
N870 C867 1.384 . S
N871 C863 1.427 . S
N871 C869 1.384 . S
H872 C878 0.930 . S
H873 C882 0.930 . S
H874 C887 0.929 . S
H875 C885 0.929 . S
H876 C880 0.929 . S
H877 C886 0.929 . S
C878 H872 0.930 . S
C878 C879 1.367 . S
C878 C886 1.378 . S
C879 C878 1.367 . S
C879 C887 1.433 . S
C880 H876 0.929 . S
C880 C882 1.378 . S
C880 C884 1.350 . S
C881 C884 1.463 . S
C881 C886 1.350 . S
C881 N889 1.427 . S
C882 H873 0.930 . S
C882 C880 1.378 . S
C882 C883 1.367 . S
C883 C882 1.367 . S
C883 C885 1.433 . S
C884 C880 1.350 . S
C884 C881 1.463 . S
C884 N888 1.427 . S
C885 H875 0.929 . S
C885 C883 1.433 . S
C885 N888 1.384 . S
C886 H877 0.929 . S
C886 C878 1.378 . S
C886 C881 1.350 . S
C887 H874 0.929 . S
C887 C879 1.433 . S
C887 N889 1.384 . S
N888 C884 1.427 . S
N888 C885 1.384 . S
N889 C881 1.427 . S
N889 C887 1.384 . S
H890 C896 0.930 . S
H891 C900 0.930 . S
H892 C905 0.929 . S
H893 C903 0.929 . S
H894 C898 0.929 . S
H895 C904 0.929 . S
C896 H890 0.930 . S
C896 C897 1.367 . S
C896 C904 1.378 . S
C897 C896 1.367 . S
C897 C905 1.433 . S
C898 H894 0.929 . S
C898 C900 1.378 . S
C898 C902 1.350 . S
C899 C902 1.463 . S
C899 C904 1.350 . S
C899 N907 1.427 . S
C900 H891 0.930 . S
C900 C898 1.378 . S
C900 C901 1.367 . S
C901 C900 1.367 . S
C901 C903 1.433 . S
C902 C898 1.350 . S
C902 C899 1.463 . S
C902 N906 1.427 . S
C903 H893 0.929 . S
C903 C901 1.433 . S
C903 N906 1.384 . S
C904 H895 0.929 . S
C904 C896 1.378 . S
C904 C899 1.350 . S
C905 H892 0.929 . S
C905 C897 1.433 . S
C905 N907 1.384 . S
N906 C902 1.427 . S
N906 C903 1.384 . S
N907 C899 1.427 . S
N907 C905 1.384 . S
H908 C914 0.930 . S
H909 C918 0.930 . S
H910 C923 0.929 . S
H911 C921 0.929 . S
H912 C916 0.929 . S
H913 C922 0.929 . S
C914 H908 0.930 . S
C914 C915 1.367 . S
C914 C922 1.378 . S
C915 C914 1.367 . S
C915 C923 1.433 . S
C916 H912 0.929 . S
C916 C918 1.378 . S
C916 C920 1.350 . S
C917 C920 1.463 . S
C917 C922 1.350 . S
C917 N925 1.427 . S
C918 H909 0.930 . S
C918 C916 1.378 . S
C918 C919 1.367 . S
C919 C918 1.367 . S
C919 C921 1.433 . S
C920 C916 1.350 . S
C920 C917 1.463 . S
C920 N924 1.427 . S
C921 H911 0.929 . S
C921 C919 1.433 . S
C921 N924 1.384 . S
C922 H913 0.929 . S
C922 C914 1.378 . S
C922 C917 1.350 . S
C923 H910 0.929 . S
C923 C915 1.433 . S
C923 N925 1.384 . S
N924 C920 1.427 . S
N924 C921 1.384 . S
N925 C917 1.427 . S
N925 C923 1.384 . S
H926 C932 0.930 . S
H927 C936 0.930 . S
H928 C941 0.929 . S
H929 C939 0.929 . S
H930 C934 0.929 . S
H931 C940 0.929 . S
C932 H926 0.930 . S
C932 C933 1.367 . S
C932 C940 1.378 . S
C933 C932 1.367 . S
C933 C941 1.433 . S
C934 H930 0.929 . S
C934 C936 1.378 . S
C934 C938 1.350 . S
C935 C938 1.463 . S
C935 C940 1.350 . S
C935 N943 1.427 . S
C936 H927 0.930 . S
C936 C934 1.378 . S
C936 C937 1.367 . S
C937 C936 1.367 . S
C937 C939 1.433 . S
C938 C934 1.350 . S
C938 C935 1.463 . S
C938 N942 1.427 . S
C939 H929 0.929 . S
C939 C937 1.433 . S
C939 N942 1.384 . S
C940 H931 0.929 . S
C940 C932 1.378 . S
C940 C935 1.350 . S
C941 H928 0.929 . S
C941 C933 1.433 . S
C941 N943 1.384 . S
N942 C938 1.427 . S
N942 C939 1.384 . S
N943 C935 1.427 . S
N943 C941 1.384 . S
C375 N2 1.526 . S
C379 N48 1.527 . S
C393 N71 1.538 . S
C397 N25 1.543 . S
C411 N94 1.535 . S
C415 N140 1.528 . S
C429 N163 1.526 . S
C433 N117 1.527 . S
C447 N186 1.535 . S
C451 N232 1.542 . S
C465 N255 1.534 . S
C469 N209 1.527 . S
C483 N278 1.544 . S
C487 N324 1.540 . S
C501 N347 1.527 . S
C505 N301 1.533 . S
C519 C108 1.619 . S
C523 C16 1.625 . S
C537 C39 1.622 . S
C541 C131 1.628 . S
C555 C62 1.620 . S
C559 C154 1.618 . S
C573 C177 1.629 . S
C577 C85 1.623 . S
C591 C200 1.618 . S
C595 C292 1.620 . S
C609 C223 1.622 . S
C613 C315 1.618 . S
C627 C246 1.618 . S
C631 C338 1.623 . S
C645 C269 1.620 . S
C649 C361 1.618 . S
C663 C237 1.648 . S
C667 C7 1.656 . S
C681 C260 1.649 . S
C685 C30 1.655 . S
C699 C53 1.655 . S
C703 C191 1.649 . S
C717 C76 1.648 . S
C721 C214 1.655 . S
C735 C99 1.655 . S
C739 C329 1.649 . S
C753 C122 1.648 . S
C757 C352 1.655 . S
C771 C145 1.655 . S
C775 C283 1.649 . S
C789 C306 1.654 . S
C793 C168 1.649 . S
C807 N12 1.564 . S
C811 N357 1.559 . S
C825 N288 1.556 . S
C829 N35 1.567 . S
C843 N58 1.567 . S
C847 N311 1.556 . S
C861 N334 1.557 . S
C865 N81 1.566 . S
C879 N219 1.568 . S
C883 N104 1.556 . S
C897 N127 1.561 . S
C901 N242 1.563 . S
C915 N265 1.567 . S
C919 N150 1.557 . S
C933 N196 1.567 . S
C937 N173 1.557 . S
