# Generated by pormake.
# Topology wht, (6)-cn, num edge types: 1
# Building blocks:
#     Node 0, Type 0, BuildingBlock: IZENUY_clean_sbu_0, # of connection points: 6
#     Node 1, Type 0, BuildingBlock: IZENUY_clean_sbu_0, # of connection points: 6
#     Node 2, Type 0, BuildingBlock: IZENUY_clean_sbu_0, # of connection points: 6
#     Node 3, Type 0, BuildingBlock: IZENUY_clean_sbu_0, # of connection points: 6
#     Node 4, Type 0, BuildingBlock: IZENUY_clean_sbu_0, # of connection points: 6
#     Node 5, Type 0, BuildingBlock: IZENUY_clean_sbu_0, # of connection points: 6
#     Node 6, Type 0, BuildingBlock: IZENUY_clean_sbu_0, # of connection points: 6
#     Node 7, Type 0, BuildingBlock: IZENUY_clean_sbu_0, # of connection points: 6
#     Edge 8, Type (0, 0), BuildingBlock: EZIPEK_clean_linker_0, # of connection points: 2
#     Edge 9, Type (0, 0), BuildingBlock: EZIPEK_clean_linker_0, # of connection points: 2
#     Edge 10, Type (0, 0), BuildingBlock: EZIPEK_clean_linker_0, # of connection points: 2
#     Edge 11, Type (0, 0), BuildingBlock: EZIPEK_clean_linker_0, # of connection points: 2
#     Edge 12, Type (0, 0), BuildingBlock: EZIPEK_clean_linker_0, # of connection points: 2
#     Edge 13, Type (0, 0), BuildingBlock: EZIPEK_clean_linker_0, # of connection points: 2
#     Edge 14, Type (0, 0), BuildingBlock: EZIPEK_clean_linker_0, # of connection points: 2
#     Edge 15, Type (0, 0), BuildingBlock: EZIPEK_clean_linker_0, # of connection points: 2
#     Edge 16, Type (0, 0), BuildingBlock: EZIPEK_clean_linker_0, # of connection points: 2
#     Edge 17, Type (0, 0), BuildingBlock: EZIPEK_clean_linker_0, # of connection points: 2
#     Edge 18, Type (0, 0), BuildingBlock: EZIPEK_clean_linker_0, # of connection points: 2
#     Edge 19, Type (0, 0), BuildingBlock: EZIPEK_clean_linker_0, # of connection points: 2
#     Edge 20, Type (0, 0), BuildingBlock: EZIPEK_clean_linker_0, # of connection points: 2
#     Edge 21, Type (0, 0), BuildingBlock: EZIPEK_clean_linker_0, # of connection points: 2
#     Edge 22, Type (0, 0), BuildingBlock: EZIPEK_clean_linker_0, # of connection points: 2
#     Edge 23, Type (0, 0), BuildingBlock: EZIPEK_clean_linker_0, # of connection points: 2
#     Edge 24, Type (0, 0), BuildingBlock: EZIPEK_clean_linker_0, # of connection points: 2
#     Edge 25, Type (0, 0), BuildingBlock: EZIPEK_clean_linker_0, # of connection points: 2
#     Edge 26, Type (0, 0), BuildingBlock: EZIPEK_clean_linker_0, # of connection points: 2
#     Edge 27, Type (0, 0), BuildingBlock: EZIPEK_clean_linker_0, # of connection points: 2
#     Edge 28, Type (0, 0), BuildingBlock: EZIPEK_clean_linker_0, # of connection points: 2
#     Edge 29, Type (0, 0), BuildingBlock: EZIPEK_clean_linker_0, # of connection points: 2
#     Edge 30, Type (0, 0), BuildingBlock: EZIPEK_clean_linker_0, # of connection points: 2
#     Edge 31, Type (0, 0), BuildingBlock: EZIPEK_clean_linker_0, # of connection points: 2
# Relax obj value: 0.256
# Max RMSD: 0.239
# Mean RMSD: 0.239
data_MOF--net-wht--node1-IZENUY_clean_sbu_0--edge1-EZIPEK_clean_linker_0
_symmetry_space_group_name_H-M    P1
_symmetry_Int_Tables_number       1
_symmetry_cell_setting            triclinic
loop_
_symmetry_equiv_pos_as_xyz
'x, y, z'
_cell_length_a     19.467431
_cell_length_b     19.352327
_cell_length_c     34.520568
_cell_angle_alpha  90.006079
_cell_angle_beta   90.050373
_cell_angle_gamma 89.744335
loop_
_atom_site_label
_atom_site_type_symbol
_atom_site_fract_x
_atom_site_fract_y
_atom_site_fract_z
_atom_type_partial_charge
Fe0 Fe 0.07942 0.18552 0.1508 0.0
Fe1 Fe 0.20556 0.273 0.17009 0.0
O2 O 0.11447 0.26468 0.16757 0.0
Fe3 Fe 0.06264 0.33656 0.18171 0.0
O4 O 1.00287 0.33008 0.14117 0.0
O5 O 1.01825 0.22552 0.11826 0.0
O6 O 0.13998 0.18316 0.10953 0.0
C7 C 0.18248 0.22754 0.09643 0.0
C8 C 0.98764 0.22214 0.21158 0.0
O9 O 0.21023 0.27311 0.11771 0.0
C10 C 0.16769 0.3208 0.24086 0.0
O11 O 0.13375 0.13242 0.18211 0.0
O12 O 0.22929 0.18214 0.16959 0.0
O13 O 1.00648 0.28476 0.21291 0.0
O14 O 1.015 0.17958 0.18847 0.0
C15 C 0.17253 0.40778 0.15103 0.0
O16 O 0.20074 0.27385 0.22277 0.0
O17 O 0.11776 0.35353 0.2248 0.0
C18 C 0.19737 0.12847 0.17783 0.0
O19 O 0.20855 0.36598 0.16969 0.0
O20 O 0.10901 0.39782 0.15046 0.0
C21 C 0.98945 0.28373 0.1166 0.0
Fe22 Fe 0.28134 0.72292 0.4116 0.0
Fe23 Fe 0.20882 0.58346 0.42887 0.0
O24 O 0.28042 0.63105 0.41219 0.0
Fe25 Fe 0.35183 0.58593 0.39319 0.0
O26 O 0.33301 0.6201 0.34601 0.0
O27 O 0.32658 0.7286 0.36486 0.0
O28 O 0.2058 0.72689 0.38258 0.0
C29 C 0.14899 0.69902 0.38801 0.0
C30 C 0.41591 0.70463 0.42605 0.0
O31 O 0.14328 0.64554 0.40946 0.0
C32 C 0.33019 0.51437 0.45913 0.0
O33 O 0.23241 0.73236 0.45724 0.0
O34 O 0.20824 0.62599 0.47583 0.0
O35 O 0.41261 0.65485 0.40249 0.0
O36 O 0.36058 0.72805 0.43975 0.0
C37 C 0.24731 0.49985 0.3675 0.0
O38 O 0.26524 0.5155 0.45209 0.0
O39 O 0.3712 0.55078 0.43955 0.0
C40 C 0.20965 0.69017 0.48232 0.0
O41 O 0.20075 0.53661 0.38257 0.0
O42 O 0.30757 0.5062 0.3797 0.0
C43 C 0.32865 0.68346 0.33819 0.0
Fe44 Fe 0.95057 0.86819 0.64395 0.0
Fe45 Fe 0.82443 0.77703 0.65957 0.0
O46 O 0.91502 0.78829 0.66018 0.0
Fe47 Fe 0.97129 0.72133 0.67536 0.0
O48 O 1.01727 0.72232 0.62945 0.0
O49 O 0.03479 0.833 0.62908 0.0
O50 O 0.92125 0.85095 0.59564 0.0
C51 C 0.86081 0.83486 0.58647 0.0
C52 C 0.02629 0.84706 0.70885 0.0
O53 O 0.81543 0.82133 0.61199 0.0
C54 C 0.86638 0.71004 0.72988 0.0
O55 O 0.87282 0.92175 0.65304 0.0
O56 O 0.80976 0.85422 0.6879 0.0
O57 O 0.0318 0.7832 0.69929 0.0
O58 O 0.98332 0.88675 0.69214 0.0
C59 C 0.86638 0.648 0.6332 0.0
O60 O 0.82103 0.72848 0.70549 0.0
O61 O 0.92974 0.71238 0.72218 0.0
C62 C 0.81981 0.91248 0.67352 0.0
O63 O 0.82754 0.69955 0.63178 0.0
O64 O 0.92019 0.64976 0.65405 0.0
C65 C 0.04792 0.77376 0.6157 0.0
Fe66 Fe 0.83428 0.48103 0.93543 0.0
Fe67 Fe 0.69893 0.46447 0.89071 0.0
O68 O 0.77377 0.42741 0.91125 0.0
Fe69 Fe 0.78968 0.33789 0.90669 0.0
O70 O 0.86961 0.35375 0.88235 0.0
O71 O 0.91083 0.42833 0.92341 0.0
O72 O 0.84963 0.52951 0.89089 0.0
C73 C 0.80303 0.55867 0.87111 0.0
C74 C 0.82859 0.36835 0.9844 0.0
O75 O 0.74022 0.54734 0.87834 0.0
C76 C 0.65162 0.33099 0.91612 0.0
O77 O 0.76938 0.54467 0.952 0.0
O78 O 0.67114 0.49558 0.9379 0.0
O79 O 0.83072 0.33091 0.95428 0.0
O80 O 0.82257 0.43356 0.98097 0.0
C81 C 0.73869 0.37529 0.83325 0.0
O82 O 0.64473 0.38742 0.89785 0.0
O83 O 0.7093 0.31354 0.92963 0.0
C84 C 0.7052 0.53878 0.95745 0.0
O85 O 0.72216 0.43614 0.84243 0.0
O86 O 0.75251 0.33035 0.85845 0.0
C87 C 0.91957 0.38655 0.89567 0.0
Fe88 Fe 0.55878 0.21788 0.58417 0.0
Fe89 Fe 0.5895 0.35938 0.62231 0.0
O90 O 0.61819 0.27979 0.60253 0.0
Fe91 Fe 0.70742 0.25942 0.60237 0.0
O92 O 0.69694 0.16608 0.60614 0.0
O93 O 0.58843 0.15267 0.61983 0.0
O94 O 0.48802 0.23872 0.61717 0.0
C95 C 0.48723 0.2704 0.64895 0.0
C96 C 0.67149 0.21255 0.53141 0.0
O97 O 0.53151 0.3162 0.65567 0.0
C98 C 0.71187 0.40519 0.5913 0.0
O99 O 0.52379 0.27857 0.54848 0.0
O100 O 0.52164 0.37159 0.58597 0.0
O101 O 0.70764 0.25577 0.54977 0.0
O102 O 0.61834 0.18613 0.54667 0.0
C103 C 0.68898 0.31083 0.67521 0.0
O104 O 0.64703 0.41178 0.59203 0.0
O105 O 0.73772 0.34781 0.60012 0.0
C106 C 0.50274 0.33939 0.55573 0.0
O107 O 0.65152 0.3587 0.66182 0.0
O108 O 0.71109 0.26191 0.65451 0.0
C109 C 0.65047 0.13362 0.62355 0.0
Fe110 Fe 0.2721 0.21551 0.8583 0.0
Fe111 Fe 0.33301 0.07439 0.83137 0.0
O112 O 0.26847 0.12344 0.85587 0.0
Fe113 Fe 0.19872 0.07977 0.87837 0.0
O114 O 0.22214 0.11178 0.92564 0.0
O115 O 0.23899 0.21996 0.90817 0.0
O116 O 0.3561 0.2152 0.87983 0.0
C117 C 0.40889 0.18164 0.8704 0.0
C118 C 0.13343 0.20289 0.85175 0.0
O119 O 0.40498 0.13004 0.84761 0.0
C120 C 0.20519 1.0083 0.81005 0.0
O121 O 0.30804 0.22703 0.80979 0.0
O122 O 0.3237 0.12246 0.78653 0.0
O123 O 0.13754 0.14995 0.87272 0.0
O124 O 0.18741 0.22641 0.83686 0.0
C125 C 0.30979 0.9906 0.89439 0.0
O126 O 0.27083 1.00931 0.81186 0.0
O127 O 0.16988 0.04599 0.83232 0.0
C128 C 0.32512 0.18733 0.78237 0.0
O129 O 0.35135 1.02267 0.8735 0.0
O130 O 0.2461 1.0003 0.89023 0.0
C131 C 0.22976 0.17474 0.93427 0.0
Fe132 Fe 0.32892 0.76221 0.10047 0.0
Fe133 Fe 0.47436 0.82687 0.09046 0.0
O134 O 0.42034 0.75778 0.10414 0.0
Fe135 Fe 0.45966 0.68241 0.12329 0.0
O136 O 0.4227 0.70168 0.16952 0.0
O137 O 0.31648 0.72084 0.14828 0.0
O138 O 0.3227 0.84243 0.12642 0.0
C139 C 0.35835 0.89604 0.12458 0.0
C140 C 0.34068 0.62408 0.08889 0.0
O141 O 0.41644 0.8963 0.10801 0.0
C142 C 0.53665 0.70388 0.0597 0.0
O143 O 0.32935 0.80757 0.05329 0.0
O144 O 0.43897 0.83053 0.04228 0.0
O145 O 0.3893 0.62501 0.11279 0.0
O146 O 0.32177 0.68041 0.07411 0.0
C147 C 0.54861 0.78169 0.1527 0.0
O148 O 0.54047 0.76754 0.06956 0.0
O149 O 0.49694 0.6625 0.07691 0.0
C150 C 0.37708 0.83033 0.03163 0.0
O151 O 0.51479 0.83071 0.13818 0.0
O152 O 0.54013 0.72188 0.13958 0.0
C153 C 0.3596 0.71217 0.17573 0.0
Fe154 Fe 0.85122 0.96133 0.3708 0.0
Fe155 Fe 0.77157 0.83186 0.34944 0.0
O156 O 0.77763 0.92292 0.35033 0.0
Fe157 Fe 0.7091 0.97385 0.33161 0.0
O158 O 0.71865 0.04494 0.36672 0.0
O159 O 0.79977 1.00837 0.4057 0.0
O160 O 0.86124 0.89561 0.40868 0.0
C161 C 0.81636 0.85579 0.42284 0.0
C162 C 0.81904 0.05076 0.30652 0.0
O163 O 0.77091 0.82838 0.4019 0.0
C164 C 0.72364 0.86216 0.27778 0.0
O165 O 0.90902 0.91521 0.33793 0.0
O166 O 0.86325 0.81469 0.34819 0.0
O167 O 0.76545 1.01774 0.29765 0.0
O168 O 0.85258 0.03484 0.33685 0.0
C169 C 0.63663 0.86977 0.36708 0.0
O170 O 0.77073 0.83225 0.2968 0.0
O171 O 0.68918 0.91165 0.29257 0.0
C172 C 0.91341 0.85001 0.33688 0.0
O173 O 0.67917 0.82965 0.35132 0.0
O174 O 0.64621 0.93426 0.3649 0.0
C175 C 0.74979 0.04804 0.39883 0.0
C176 C 0.87995 0.15038 0.21778 0.0
C177 C 0.92807 0.19611 0.23529 0.0
C178 C 0.88233 0.16511 0.29922 0.0
C179 C 0.84378 0.11064 0.28201 0.0
N180 N 0.77418 0.08708 0.22549 0.0
N181 N 0.94358 0.27256 0.28988 0.0
C182 C 0.8328 0.11327 0.24135 0.0
C183 C 0.92028 0.21149 0.27529 0.0
N184 N 0.87748 0.1441 0.17838 0.0
N185 N 0.87995 0.17465 0.33836 0.0
H186 H 0.96396 0.3114 0.27266 0.0
H187 H 0.93422 0.28911 0.31807 0.0
H188 H 0.84161 0.15277 0.35542 0.0
H189 H 0.91502 0.2048 0.35357 0.0
H190 H 0.85176 0.10413 0.16436 0.0
H191 H 0.90184 0.17864 0.15977 0.0
H192 H 0.76141 0.09254 0.19635 0.0
H193 H 0.73281 0.07051 0.24202 0.0
C194 C 0.42483 0.49247 0.50572 0.0
C195 C 0.36373 0.46742 0.48835 0.0
C196 C 0.39029 0.35343 0.51729 0.0
C197 C 0.4565 0.37756 0.52828 0.0
N198 N 0.54286 0.46317 0.51715 0.0
N199 N 0.29445 0.36713 0.47283 0.0
C200 C 0.47546 0.44514 0.51791 0.0
C201 C 0.34757 0.39585 0.49288 0.0
N202 N 0.43507 0.56172 0.51054 0.0
N203 N 0.3674 0.29131 0.53062 0.0
H204 H 0.26252 0.39506 0.45437 0.0
H205 H 0.28564 0.31406 0.47223 0.0
H206 H 0.39718 0.25917 0.54819 0.0
H207 H 0.31708 0.27454 0.52665 0.0
H208 H 0.47804 0.58122 0.5249 0.0
H209 H 0.39716 0.59838 0.50424 0.0
H210 H 0.55911 0.51054 0.50607 0.0
H211 H 0.58177 0.42702 0.52234 0.0
C212 C 0.14332 0.89896 0.7227 0.0
C213 C 0.0774 0.87859 0.73618 0.0
C214 C 0.10749 0.92365 0.80052 0.0
C215 C 0.16691 0.95683 0.78508 0.0
N216 N 0.23896 0.97764 0.72919 0.0
N217 N 0.99498 0.87493 0.78801 0.0
C218 C 0.18469 0.94425 0.74564 0.0
C219 C 0.05902 0.89202 0.77513 0.0
N220 N 0.16722 0.87418 0.6882 0.0
N221 N 0.09913 0.91884 0.83972 0.0
H222 H 0.95944 0.84877 0.77085 0.0
H223 H 0.97573 0.89074 0.81476 0.0
H224 H 0.13595 0.93599 0.85938 0.0
H225 H 0.06021 0.89014 0.85263 0.0
H226 H 0.21741 0.88134 0.67861 0.0
H227 H 0.13944 0.83987 0.67118 0.0
H228 H 0.24849 0.97747 0.6995 0.0
H229 H 0.27188 1.00972 0.74449 0.0
C230 C 0.56057 0.6552 0.99389 0.0
C231 C 0.58504 0.67418 0.031 0.0
C232 C 0.69209 0.61001 0.01936 0.0
C233 C 0.66762 0.59073 0.98189 0.0
N234 N 0.5904 0.61848 0.92914 0.0
N235 N 0.67998 0.68537 0.07526 0.0
C236 C 0.60523 0.62022 0.96784 0.0
C237 C 0.65293 0.65699 0.04237 0.0
N238 N 0.49426 0.66986 0.98359 0.0
N239 N 0.75067 0.58107 0.03409 0.0
H240 H 0.65243 0.71882 0.09314 0.0
H241 H 0.73158 0.68116 0.08291 0.0
H242 H 0.78248 0.54794 0.01862 0.0
H243 H 0.76564 0.58603 0.06291 0.0
H244 H 0.47104 0.64973 0.95885 0.0
H245 H 0.46108 0.69878 1.001 0.0
H246 H 0.54871 0.64444 0.9169 0.0
H247 H 0.62429 0.59869 0.90855 0.0
C248 C 0.15248 0.35839 0.3105 0.0
C249 C 0.19588 0.3499 0.27783 0.0
C250 C 0.27581 0.43442 0.30506 0.0
C251 C 0.23166 0.44499 0.33772 0.0
N252 N 0.14024 0.39833 0.37689 0.0
N253 N 0.31187 0.35927 0.25315 0.0
C254 C 0.1733 0.40156 0.34201 0.0
C255 C 0.26162 0.38097 0.27807 0.0
N256 N 0.09176 0.32372 0.31163 0.0
N257 N 0.32987 0.47723 0.29792 0.0
H258 H 0.30577 0.32038 0.23276 0.0
H259 H 0.36287 0.37492 0.25558 0.0
H260 H 0.34841 0.51327 0.31722 0.0
H261 H 0.35454 0.47944 0.27114 0.0
H262 H 0.05339 0.33372 0.33188 0.0
H263 H 0.07989 0.28553 0.2914 0.0
H264 H 0.10109 0.36354 0.38296 0.0
H265 H 0.15694 0.42501 0.40135 0.0
C266 C 0.1528 0.71233 0.58832 0.0
C267 C 0.10036 0.76347 0.58434 0.0
C268 C 0.11968 0.76534 0.51443 0.0
C269 C 0.1746 0.71717 0.51802 0.0
N270 N 0.25223 0.65484 0.5598 0.0
N271 N 0.05477 0.85654 0.5448 0.0
C272 C 0.19385 0.69355 0.55549 0.0
C273 C 0.09111 0.79629 0.54796 0.0
N274 N 0.16367 0.68209 0.62356 0.0
N275 N 0.09006 0.77717 0.47926 0.0
H276 H 0.03638 0.88398 0.56849 0.0
H277 H 0.05132 0.88429 0.51898 0.0
H278 H 0.10286 0.74832 0.455 0.0
H279 H 0.04658 0.80804 0.47546 0.0
H280 H 0.19458 0.63862 0.62755 0.0
H281 H 0.13989 0.69959 0.64882 0.0
H282 H 0.27278 0.64118 0.58659 0.0
H283 H 0.28356 0.64123 0.53649 0.0
C284 C 0.84266 0.56422 0.80207 0.0
C285 C 0.82103 0.59975 0.83592 0.0
C286 C 0.82797 0.71005 0.80023 0.0
C287 C 0.84521 0.67326 0.76594 0.0
N288 N 0.85053 0.5643 0.73228 0.0
N289 N 0.78508 0.7057 0.86651 0.0
C290 C 0.84738 0.60009 0.76636 0.0
C291 C 0.81108 0.67259 0.83476 0.0
N292 N 0.85965 0.49586 0.80385 0.0
N293 N 0.82897 0.78061 0.7999 0.0
H294 H 0.77519 0.68023 0.89255 0.0
H295 H 0.76985 0.75732 0.86652 0.0
H296 H 0.83799 0.809 0.77472 0.0
H297 H 0.82444 0.81091 0.82468 0.0
H298 H 0.8853 0.47046 0.78151 0.0
H299 H 0.8546 0.46633 0.82885 0.0
H300 H 0.84459 0.51092 0.73034 0.0
H301 H 0.85091 0.58864 0.70546 0.0
C302 C 0.93651 0.25873 0.04992 0.0
C303 C 0.93743 0.29786 0.0851 0.0
C304 C 0.84586 0.37255 0.05818 0.0
C305 C 0.85014 0.33635 0.02255 0.0
N306 N 0.8617 0.21934 0.99877 0.0
N307 N 0.86634 0.36809 0.12741 0.0
C308 C 0.88307 0.27086 0.02287 0.0
C309 C 0.88442 0.34831 0.09078 0.0
N310 N 0.98694 0.21206 0.04089 0.0
N311 N 0.80144 0.42674 0.06171 0.0
H312 H 0.88558 0.34396 0.15215 0.0
H313 H 0.82535 0.40112 0.13341 0.0
H314 H 0.76246 0.43556 0.04154 0.0
H315 H 0.80272 0.46141 0.0848 0.0
H316 H 0.98618 0.18227 0.01577 0.0
H317 H 0.03386 0.20857 0.05502 0.0
H318 H 0.88187 0.16938 0.9999 0.0
H319 H 0.81659 0.22332 0.98259 0.0
C320 C 0.76343 0.15635 0.48993 0.0
C321 C 0.69588 0.1831 0.49408 0.0
C322 C 0.66183 0.12452 0.4342 0.0
C323 C 0.73092 0.10135 0.42859 0.0
N324 N 0.85061 0.12324 0.4441 0.0
N325 N 0.58924 0.21267 0.46269 0.0
C326 C 0.7828 0.12621 0.45416 0.0
C327 C 0.64792 0.17381 0.46369 0.0
N328 N 0.80834 0.15541 0.52036 0.0
N329 N 0.60832 0.0975 0.41363 0.0
H330 H 0.5794 0.25156 0.48287 0.0
H331 H 0.55523 0.21214 0.43935 0.0
H332 H 0.61306 0.0596 0.39257 0.0
H333 H 0.55717 0.10806 0.42043 0.0
H334 H 0.85549 0.12968 0.51907 0.0
H335 H 0.79635 0.17344 0.54794 0.0
H336 H 0.88911 0.1457 0.46086 0.0
H337 H 0.86746 0.10694 0.41695 0.0
C338 C 0.39237 0.2799 0.74467 0.0
C339 C 0.35445 0.21687 0.74563 0.0
C340 C 0.40025 0.18827 0.68159 0.0
C341 C 0.43399 0.25375 0.67928 0.0
N342 N 0.42931 0.3719 0.70247 0.0
N343 N 0.29852 0.13179 0.70568 0.0
C344 C 0.41921 0.30305 0.70872 0.0
C345 C 0.35045 0.17783 0.71101 0.0
N346 N 0.40754 0.31609 0.77753 0.0
N347 N 0.41732 0.13396 0.65818 0.0
H348 H 0.25785 0.12778 0.72523 0.0
H349 H 0.29143 0.1054 0.67963 0.0
H350 H 0.45777 0.13374 0.63867 0.0
H351 H 0.39602 0.08503 0.66192 0.0
H352 H 0.43755 0.36055 0.777 0.0
H353 H 0.39885 0.2983 0.80547 0.0
H354 H 0.41507 0.40942 0.72266 0.0
H355 H 0.44205 0.3917 0.67532 0.0
C356 C 0.31968 0.83804 0.96545 0.0
C357 C 0.36065 0.86804 0.99496 0.0
C358 C 0.38635 0.96569 0.95194 0.0
C359 C 0.33538 0.94276 0.92535 0.0
N360 N 0.25665 0.85356 0.90526 0.0
N361 N 0.41943 0.96969 0.0188 0.0
C362 C 0.30271 0.87787 0.93179 0.0
C363 C 0.39069 0.93401 0.98873 0.0
N364 N 0.29984 0.77062 0.96865 0.0
N365 N 0.43052 1.0183 0.9432 0.0
H366 H 0.41832 0.95261 0.0472 0.0
H367 H 0.43592 1.02071 0.01664 0.0
H368 H 0.43 0.04732 0.918 0.0
H369 H 0.47354 0.02924 0.96009 0.0
H370 H 0.27566 0.74339 0.94655 0.0
H371 H 0.31281 0.73977 0.99234 0.0
H372 H 0.22404 0.81211 0.91052 0.0
H373 H 0.2502 0.87591 0.878 0.0
C374 C 0.6502 0.85089 0.17612 0.0
C375 C 0.60405 0.79502 0.18173 0.0
C376 C 0.66445 0.76636 0.24227 0.0
C377 C 0.69751 0.8313 0.24119 0.0
N378 N 0.7285 0.93288 0.20552 0.0
N379 N 0.56562 0.70099 0.22295 0.0
C380 C 0.69247 0.87272 0.20748 0.0
C381 C 0.61145 0.75236 0.2152 0.0
N382 N 0.65608 0.88076 0.1404 0.0
N383 N 0.6832 0.71761 0.26894 0.0
H384 H 0.52664 0.68648 0.20433 0.0
H385 H 0.56302 0.676 0.24965 0.0
H386 H 0.72169 0.72484 0.28941 0.0
H387 H 0.66541 0.66691 0.26809 0.0
H388 H 0.69282 0.91778 0.13368 0.0
H389 H 0.62943 0.863 0.11617 0.0
H390 H 0.72085 0.96986 0.18402 0.0
H391 H 0.76505 0.9461 0.22634 0.0
C392 C 0.25981 0.15597 1.00444 0.0
C393 C 0.22446 0.19578 0.97585 0.0
C394 C 0.16976 0.26461 0.02755 0.0
C395 C 0.20298 0.22251 0.05544 0.0
N396 N 0.29075 0.14006 0.072 0.0
N397 N 0.15229 0.29488 0.96032 0.0
C398 C 0.25114 0.17154 0.04432 0.0
C399 C 0.18201 0.2527 0.9874 0.0
N400 N 0.30161 0.1026 0.99354 0.0
N401 N 0.12359 0.31371 0.03959 0.0
H402 H 0.15015 0.28393 0.93094 0.0
H403 H 0.1307 0.3428 0.96671 0.0
H404 H 0.11594 0.32594 0.06871 0.0
H405 H 0.08994 0.33997 0.02131 0.0
H406 H 0.31668 0.06343 0.01234 0.0
H407 H 0.31936 0.09599 0.96536 0.0
H408 H 0.3319 0.1073 0.06597 0.0
H409 H 0.28631 0.15134 0.10142 0.0
C410 C 0.37416 0.76226 0.24105 0.0
C411 C 0.338 0.71626 0.21645 0.0
C412 C 0.27915 0.6683 0.27246 0.0
C413 C 0.32605 0.70342 0.29707 0.0
N414 N 0.42218 0.78118 0.30462 0.0
N415 N 0.25871 0.62163 0.20852 0.0
C416 C 0.37393 0.75078 0.2815 0.0
C417 C 0.29021 0.66887 0.23192 0.0
N418 N 0.409 0.81673 0.2255 0.0
N419 N 0.22373 0.63503 0.28789 0.0
H420 H 0.26543 0.62014 0.1786 0.0
H421 H 0.22983 0.58062 0.21916 0.0
H422 H 0.21304 0.63525 0.31749 0.0
H423 H 0.18472 0.61364 0.27112 0.0
H424 H 0.43126 0.85563 0.2421 0.0
H425 H 0.40951 0.82663 0.19583 0.0
H426 H 0.46298 0.80991 0.29379 0.0
H427 H 0.42522 0.77347 0.3344 0.0
C428 C 0.87025 0.79482 0.47882 0.0
C429 C 0.81936 0.84063 0.46453 0.0
C430 C 0.7947 0.88215 0.52993 0.0
C431 C 0.84344 0.83442 0.54478 0.0
N432 N 0.92301 0.73979 0.53467 0.0
N433 N 0.72328 0.91699 0.47586 0.0
C434 C 0.87994 0.78898 0.51954 0.0
C435 C 0.77801 0.88032 0.48999 0.0
N436 N 0.90954 0.75773 0.45327 0.0
N437 N 0.7689 0.93307 0.55323 0.0
H438 H 0.71034 0.91768 0.44655 0.0
H439 H 0.68727 0.94156 0.49348 0.0
H440 H 0.78355 0.93872 0.58206 0.0
H441 H 0.7391 0.97406 0.54306 0.0
H442 H 0.95163 0.72754 0.46105 0.0
H443 H 0.90114 0.75861 0.42342 0.0
H444 H 0.94752 0.70175 0.51845 0.0
H445 H 0.93049 0.73318 0.56434 0.0
C446 C 0.77336 0.32938 0.72864 0.0
C447 C 0.70603 0.31358 0.71636 0.0
C448 C 0.66061 0.33802 0.78044 0.0
C449 C 0.72817 0.35207 0.79333 0.0
N450 N 0.85041 0.33797 0.7831 0.0
N451 N 0.59184 0.27749 0.73346 0.0
C452 C 0.78528 0.34025 0.76858 0.0
C453 C 0.65147 0.30998 0.74321 0.0
N454 N 0.82504 0.33715 0.70226 0.0
N455 N 0.60512 0.35188 0.80336 0.0
H456 H 0.58639 0.25123 0.70736 0.0
H457 H 0.55193 0.26874 0.75288 0.0
H458 H 0.60913 0.37165 0.83121 0.0
H459 H 0.55471 0.34889 0.79351 0.0
H460 H 0.87313 0.35676 0.70954 0.0
H461 H 0.81832 0.32875 0.67266 0.0
H462 H 0.8929 0.32305 0.76671 0.0
H463 H 0.8611 0.34532 0.81227 0.0
C464 C 0.29863 0.04857 0.18702 0.0
C465 C 0.23325 0.0615 0.16967 0.0
C466 C 0.26209 0.9798 0.11788 0.0
C467 C 0.32368 0.9612 0.13711 0.0
N468 N 0.40134 0.97629 0.1905 0.0
N469 N 0.14696 0.02446 0.12332 0.0
C470 C 0.34232 0.99529 0.17188 0.0
C471 C 0.213 1.02229 0.13676 0.0
N472 N 0.31904 0.08804 0.21774 0.0
N473 N 0.25186 0.95924 0.08048 0.0
H474 H 0.1075 0.05193 0.13652 0.0
H475 H 0.1291 0.9918 0.10156 0.0
H476 H 0.28877 0.9315 0.06512 0.0
H477 H 0.21157 0.97736 0.06331 0.0
H478 H 0.36863 0.08755 0.22901 0.0
H479 H 0.28625 0.1233 0.23133 0.0
H480 H 0.41438 0.99268 0.21825 0.0
H481 H 0.43668 0.94198 0.17832 0.0
C482 C 0.48475 0.81855 0.43469 0.0
C483 C 0.48025 0.74755 0.42367 0.0
C484 C 0.56186 0.76723 0.37279 0.0
C485 C 0.57449 0.83603 0.3848 0.0
N486 N 0.55585 0.92172 0.43518 0.0
N487 N 0.54845 0.65316 0.39831 0.0
C488 C 0.53808 0.86083 0.41811 0.0
C489 C 0.53146 0.72156 0.39877 0.0
N490 N 0.44053 0.84508 0.46146 0.0
N491 N 0.57548 0.74582 0.33596 0.0
H492 H 0.52936 0.61884 0.419 0.0
H493 H 0.58689 0.63372 0.38019 0.0
H494 H 0.58806 0.7808 0.31412 0.0
H495 H 0.56413 0.69587 0.32653 0.0
H496 H 0.43548 0.89792 0.46663 0.0
H497 H 0.40942 0.8139 0.47862 0.0
H498 H 0.53547 0.93831 0.4615 0.0
H499 H 0.59509 0.95291 0.42497 0.0
C500 C 0.7171 0.08062 0.67792 0.0
C501 C 0.67221 0.07103 0.64601 0.0
C502 C 0.70302 0.94814 0.64674 0.0
C503 C 0.76145 0.96304 0.67043 0.0
N504 N 0.82189 0.04488 0.71028 0.0
N505 N 0.62162 0.9937 0.5997 0.0
C506 C 0.76768 0.02977 0.68669 0.0
C507 C 0.66399 1.00388 0.63068 0.0
N508 N 0.70884 0.13713 0.70086 0.0
N509 N 0.68442 0.88147 0.6395 0.0
H510 H 0.59088 0.03298 0.58824 0.0
H511 H 0.62008 0.94754 0.58418 0.0
H512 H 0.70844 0.8392 0.65234 0.0
H513 H 0.63976 0.86847 0.62458 0.0
H514 H 0.73698 0.14576 0.72608 0.0
H515 H 0.66658 0.16948 0.69707 0.0
H516 H 0.83275 0.09491 0.71957 0.0
H517 H 0.85774 1.00768 0.71895 0.0
C518 C 0.47876 0.23896 0.92338 0.0
C519 C 0.47656 0.20721 0.88596 0.0
C520 C 0.59963 0.23124 0.88006 0.0
C521 C 0.59629 0.27816 0.91162 0.0
N522 N 0.5302 0.32808 0.96339 0.0
N523 N 0.53713 0.1861 0.82549 0.0
C524 C 0.53501 0.28246 0.93336 0.0
C525 C 0.53776 0.20612 0.86342 0.0
N526 N 0.42872 0.2255 0.94998 0.0
N527 N 0.66165 0.20965 0.86623 0.0
H528 H 0.49268 0.17392 0.81027 0.0
H529 H 0.58028 0.1899 0.80776 0.0
H530 H 0.70734 0.22069 0.88061 0.0
H531 H 0.66652 0.17252 0.8445 0.0
H532 H 0.43063 0.24336 0.97845 0.0
H533 H 0.39016 0.18939 0.94506 0.0
H534 H 0.48412 0.33858 0.97764 0.0
H535 H 0.57171 0.35798 0.97248 0.0
C536 C 0.78362 0.59106 0.58666 0.0
C537 C 0.84065 0.58371 0.61254 0.0
C538 C 0.82995 0.45868 0.602 0.0
C539 C 0.76019 0.46684 0.58975 0.0
N540 N 0.67518 0.54691 0.5649 0.0
N541 N 0.92111 0.50219 0.64217 0.0
C542 C 0.73813 0.53489 0.58064 0.0
C543 C 0.865 0.51521 0.61956 0.0
N544 N 0.77528 0.65012 0.56548 0.0
N545 N 0.86523 0.39928 0.59389 0.0
H546 H 0.95513 0.53939 0.65195 0.0
H547 H 0.93301 0.45245 0.65182 0.0
H548 H 0.84617 0.36185 0.57504 0.0
H549 H 0.91726 0.39291 0.60025 0.0
H550 H 0.73797 0.6558 0.54402 0.0
H551 H 0.81163 0.68922 0.56534 0.0
H552 H 0.65321 0.59611 0.56332 0.0
H553 H 0.6458 0.50786 0.55318 0.0
C554 C 0.06392 0.31223 0.83606 0.0
C555 C 0.07185 0.24906 0.85696 0.0
C556 C 1.00195 0.29555 0.9091 0.0
C557 C 0.9873 0.35513 0.88757 0.0
N558 N 1.00355 0.42277 0.83031 0.0
N559 N 1.01401 0.17321 0.90243 0.0
C560 C 1.01839 0.36439 0.85082 0.0
C561 C 0.0304 0.23813 0.89018 0.0
N562 N 0.0974 0.32096 0.80171 0.0
N563 N 0.98721 0.29299 0.94755 0.0
H564 H 0.02329 0.12948 0.88552 0.0
H565 H 0.98149 0.16453 0.92595 0.0
H566 H 0.96954 0.33619 0.96266 0.0
H567 H 1.00248 0.25129 0.96454 0.0
H568 H 0.10019 0.36789 0.7871 0.0
H569 H 0.12138 0.28003 0.78736 0.0
H570 H 1.01784 0.43083 0.80164 0.0
H571 H 0.97606 0.46349 0.8428 0.0
C572 C 0.32238 0.50595 0.11295 0.0
C573 C 0.29585 0.56068 0.09049 0.0
C574 C 0.18175 0.50693 0.09944 0.0
C575 C 0.2087 0.46715 0.13123 0.0
N576 N 0.30463 0.46148 0.17634 0.0
N577 N 0.19598 0.60833 0.05831 0.0
C578 C 0.27923 0.47585 0.14038 0.0
C579 C 0.22395 0.56007 0.08243 0.0
N580 N 0.38979 0.4871 0.11073 0.0
N581 N 0.11858 0.49319 0.08417 0.0
H582 H 0.2258 0.64003 0.04075 0.0
H583 H 0.14317 0.61624 0.05581 0.0
H584 H 0.08615 0.45484 0.09432 0.0
H585 H 0.10069 0.51624 0.0588 0.0
H586 H 0.40984 0.44649 0.12722 0.0
H587 H 0.42236 0.50768 0.08967 0.0
H588 H 0.35602 0.47003 0.18353 0.0
H589 H 0.27243 0.45253 0.19992 0.0
C590 C 0.98364 0.74021 0.33149 0.0
C591 C 0.9815 0.81352 0.33552 0.0
C592 C 0.08748 0.81059 0.37257 0.0
C593 C 0.08885 0.73656 0.37091 0.0
N594 N 0.04888 0.63343 0.33882 0.0
N595 N 0.05176 0.91495 0.33969 0.0
C596 C 0.03992 0.70182 0.34742 0.0
C597 C 0.04001 0.84773 0.3495 0.0
N598 N 0.93177 0.70777 0.31214 0.0
N599 N 0.12943 0.84626 0.3972 0.0
H600 H 0.02176 0.94079 0.3192 0.0
H601 H 0.09676 0.94085 0.34708 0.0
H602 H 0.16402 0.8231 0.41618 0.0
H603 H 0.12438 0.89929 0.40182 0.0
H604 H 0.92424 0.65456 0.31242 0.0
H605 H 0.8955 0.73529 0.29593 0.0
H606 H 1.0188 0.60664 0.31898 0.0
H607 H 0.09008 0.60427 0.34917 0.0
loop_
_geom_bond_atom_site_label_1
_geom_bond_atom_site_label_2
_geom_bond_distance
_geom_bond_site_symmetry_2
_ccdc_geom_bond_type
Fe0 O2 1.918 . S
Fe0 O5 1.997 1_455 S
Fe0 O6 2.002 . S
Fe0 O11 1.976 . S
Fe0 O14 1.996 1_455 S
Fe1 O2 1.918 . S
Fe1 O9 1.997 . S
Fe1 O12 1.996 . S
Fe1 O16 1.976 . S
Fe1 O19 2.002 . S
O2 Fe0 1.918 . S
O2 Fe1 1.918 . S
O2 Fe3 1.918 . S
Fe3 O2 1.918 . S
Fe3 O4 2.002 1_455 S
Fe3 O13 1.976 1_455 S
Fe3 O17 1.996 . S
Fe3 O20 1.997 . S
O4 Fe3 2.002 1_655 S
O4 C21 1.295 . S
O5 Fe0 1.997 1_655 S
O5 C21 1.235 . S
O6 Fe0 2.002 . S
O6 C7 1.295 . S
C7 O6 1.295 . S
C7 O9 1.235 . S
C8 O13 1.287 . S
C8 O14 1.255 . S
O9 Fe1 1.997 . S
O9 C7 1.235 . S
C10 O16 1.287 . S
C10 O17 1.255 . S
O11 Fe0 1.976 . S
O11 C18 1.287 . S
O12 Fe1 1.996 . S
O12 C18 1.255 . S
O13 Fe3 1.976 1_655 S
O13 C8 1.287 . S
O14 Fe0 1.996 1_655 S
O14 C8 1.255 . S
C15 O19 1.295 . S
C15 O20 1.235 . S
O16 Fe1 1.976 . S
O16 C10 1.287 . S
O17 Fe3 1.996 . S
O17 C10 1.255 . S
C18 O11 1.287 . S
C18 O12 1.255 . S
O19 Fe1 2.002 . S
O19 C15 1.295 . S
O20 Fe3 1.997 . S
O20 C15 1.235 . S
C21 O4 1.295 . S
C21 O5 1.235 . S
Fe22 O24 1.918 . S
Fe22 O27 1.997 . S
Fe22 O28 2.002 . S
Fe22 O33 1.976 . S
Fe22 O36 1.996 . S
Fe23 O24 1.918 . S
Fe23 O31 1.997 . S
Fe23 O34 1.996 . S
Fe23 O38 1.976 . S
Fe23 O41 2.002 . S
O24 Fe22 1.918 . S
O24 Fe23 1.918 . S
O24 Fe25 1.918 . S
Fe25 O24 1.918 . S
Fe25 O26 2.002 . S
Fe25 O35 1.976 . S
Fe25 O39 1.996 . S
Fe25 O42 1.997 . S
O26 Fe25 2.002 . S
O26 C43 1.295 . S
O27 Fe22 1.997 . S
O27 C43 1.235 . S
O28 Fe22 2.002 . S
O28 C29 1.295 . S
C29 O28 1.295 . S
C29 O31 1.235 . S
C30 O35 1.287 . S
C30 O36 1.255 . S
O31 Fe23 1.997 . S
O31 C29 1.235 . S
C32 O38 1.287 . S
C32 O39 1.255 . S
O33 Fe22 1.976 . S
O33 C40 1.287 . S
O34 Fe23 1.996 . S
O34 C40 1.255 . S
O35 Fe25 1.976 . S
O35 C30 1.287 . S
O36 Fe22 1.996 . S
O36 C30 1.255 . S
C37 O41 1.295 . S
C37 O42 1.235 . S
O38 Fe23 1.976 . S
O38 C32 1.287 . S
O39 Fe25 1.996 . S
O39 C32 1.255 . S
C40 O33 1.287 . S
C40 O34 1.255 . S
O41 Fe23 2.002 . S
O41 C37 1.295 . S
O42 Fe25 1.997 . S
O42 C37 1.235 . S
C43 O26 1.295 . S
C43 O27 1.235 . S
Fe44 O46 1.918 . S
Fe44 O49 1.997 1_655 S
Fe44 O50 2.002 . S
Fe44 O55 1.976 . S
Fe44 O58 1.996 1_655 S
Fe45 O46 1.918 . S
Fe45 O53 1.997 . S
Fe45 O56 1.996 . S
Fe45 O60 1.976 . S
Fe45 O63 2.002 . S
O46 Fe44 1.918 . S
O46 Fe45 1.918 . S
O46 Fe47 1.918 . S
Fe47 O46 1.918 . S
Fe47 O48 2.002 1_655 S
Fe47 O57 1.976 1_655 S
Fe47 O61 1.996 . S
Fe47 O64 1.997 . S
O48 Fe47 2.002 1_455 S
O48 C65 1.295 . S
O49 Fe44 1.997 1_455 S
O49 C65 1.235 . S
O50 Fe44 2.002 . S
O50 C51 1.295 . S
C51 O50 1.295 . S
C51 O53 1.235 . S
C52 O57 1.287 . S
C52 O58 1.255 . S
O53 Fe45 1.997 . S
O53 C51 1.235 . S
C54 O60 1.287 . S
C54 O61 1.255 . S
O55 Fe44 1.976 . S
O55 C62 1.287 . S
O56 Fe45 1.996 . S
O56 C62 1.255 . S
O57 Fe47 1.976 1_455 S
O57 C52 1.287 . S
O58 Fe44 1.996 1_455 S
O58 C52 1.255 . S
C59 O63 1.295 . S
C59 O64 1.235 . S
O60 Fe45 1.976 . S
O60 C54 1.287 . S
O61 Fe47 1.996 . S
O61 C54 1.255 . S
C62 O55 1.287 . S
C62 O56 1.255 . S
O63 Fe45 2.002 . S
O63 C59 1.295 . S
O64 Fe47 1.997 . S
O64 C59 1.235 . S
C65 O48 1.295 . S
C65 O49 1.235 . S
Fe66 O68 1.918 . S
Fe66 O71 1.997 . S
Fe66 O72 2.002 . S
Fe66 O77 1.976 . S
Fe66 O80 1.996 . S
Fe67 O68 1.918 . S
Fe67 O75 1.997 . S
Fe67 O78 1.996 . S
Fe67 O82 1.976 . S
Fe67 O85 2.002 . S
O68 Fe66 1.918 . S
O68 Fe67 1.918 . S
O68 Fe69 1.918 . S
Fe69 O68 1.918 . S
Fe69 O70 2.002 . S
Fe69 O79 1.976 . S
Fe69 O83 1.996 . S
Fe69 O86 1.997 . S
O70 Fe69 2.002 . S
O70 C87 1.295 . S
O71 Fe66 1.997 . S
O71 C87 1.235 . S
O72 Fe66 2.002 . S
O72 C73 1.295 . S
C73 O72 1.295 . S
C73 O75 1.235 . S
C74 O79 1.287 . S
C74 O80 1.255 . S
O75 Fe67 1.997 . S
O75 C73 1.235 . S
C76 O82 1.287 . S
C76 O83 1.255 . S
O77 Fe66 1.976 . S
O77 C84 1.287 . S
O78 Fe67 1.996 . S
O78 C84 1.255 . S
O79 Fe69 1.976 . S
O79 C74 1.287 . S
O80 Fe66 1.996 . S
O80 C74 1.255 . S
C81 O85 1.295 . S
C81 O86 1.235 . S
O82 Fe67 1.976 . S
O82 C76 1.287 . S
O83 Fe69 1.996 . S
O83 C76 1.255 . S
C84 O77 1.287 . S
C84 O78 1.255 . S
O85 Fe67 2.002 . S
O85 C81 1.295 . S
O86 Fe69 1.997 . S
O86 C81 1.235 . S
C87 O70 1.295 . S
C87 O71 1.235 . S
Fe88 O90 1.918 . S
Fe88 O93 1.997 . S
Fe88 O94 2.002 . S
Fe88 O99 1.976 . S
Fe88 O102 1.996 . S
Fe89 O90 1.918 . S
Fe89 O97 1.997 . S
Fe89 O100 1.996 . S
Fe89 O104 1.976 . S
Fe89 O107 2.002 . S
O90 Fe88 1.918 . S
O90 Fe89 1.918 . S
O90 Fe91 1.918 . S
Fe91 O90 1.918 . S
Fe91 O92 2.002 . S
Fe91 O101 1.976 . S
Fe91 O105 1.996 . S
Fe91 O108 1.997 . S
O92 Fe91 2.002 . S
O92 C109 1.295 . S
O93 Fe88 1.997 . S
O93 C109 1.235 . S
O94 Fe88 2.002 . S
O94 C95 1.295 . S
C95 O94 1.295 . S
C95 O97 1.235 . S
C96 O101 1.287 . S
C96 O102 1.255 . S
O97 Fe89 1.997 . S
O97 C95 1.235 . S
C98 O104 1.287 . S
C98 O105 1.255 . S
O99 Fe88 1.976 . S
O99 C106 1.287 . S
O100 Fe89 1.996 . S
O100 C106 1.255 . S
O101 Fe91 1.976 . S
O101 C96 1.287 . S
O102 Fe88 1.996 . S
O102 C96 1.255 . S
C103 O107 1.295 . S
C103 O108 1.235 . S
O104 Fe89 1.976 . S
O104 C98 1.287 . S
O105 Fe91 1.996 . S
O105 C98 1.255 . S
C106 O99 1.287 . S
C106 O100 1.255 . S
O107 Fe89 2.002 . S
O107 C103 1.295 . S
O108 Fe91 1.997 . S
O108 C103 1.235 . S
C109 O92 1.295 . S
C109 O93 1.235 . S
Fe110 O112 1.918 . S
Fe110 O115 1.997 . S
Fe110 O116 2.002 . S
Fe110 O121 1.976 . S
Fe110 O124 1.996 . S
Fe111 O112 1.918 . S
Fe111 O119 1.997 . S
Fe111 O122 1.996 . S
Fe111 O126 1.976 1_545 S
Fe111 O129 2.002 1_545 S
O112 Fe110 1.918 . S
O112 Fe111 1.918 . S
O112 Fe113 1.918 . S
Fe113 O112 1.918 . S
Fe113 O114 2.002 . S
Fe113 O123 1.976 . S
Fe113 O127 1.996 1_545 S
Fe113 O130 1.997 1_545 S
O114 Fe113 2.002 . S
O114 C131 1.295 . S
O115 Fe110 1.997 . S
O115 C131 1.235 . S
O116 Fe110 2.002 . S
O116 C117 1.295 . S
C117 O116 1.295 . S
C117 O119 1.235 . S
C118 O123 1.287 . S
C118 O124 1.255 . S
O119 Fe111 1.997 . S
O119 C117 1.235 . S
C120 O126 1.287 . S
C120 O127 1.255 . S
O121 Fe110 1.976 . S
O121 C128 1.287 . S
O122 Fe111 1.996 . S
O122 C128 1.255 . S
O123 Fe113 1.976 . S
O123 C118 1.287 . S
O124 Fe110 1.996 . S
O124 C118 1.255 . S
C125 O129 1.295 . S
C125 O130 1.235 . S
O126 Fe111 1.976 1_565 S
O126 C120 1.287 . S
O127 Fe113 1.996 1_565 S
O127 C120 1.255 . S
C128 O121 1.287 . S
C128 O122 1.255 . S
O129 Fe111 2.002 1_565 S
O129 C125 1.295 . S
O130 Fe113 1.997 1_565 S
O130 C125 1.235 . S
C131 O114 1.295 . S
C131 O115 1.235 . S
Fe132 O134 1.918 . S
Fe132 O137 1.997 . S
Fe132 O138 2.002 . S
Fe132 O143 1.976 . S
Fe132 O146 1.996 . S
Fe133 O134 1.918 . S
Fe133 O141 1.997 . S
Fe133 O144 1.996 . S
Fe133 O148 1.976 . S
Fe133 O151 2.002 . S
O134 Fe132 1.918 . S
O134 Fe133 1.918 . S
O134 Fe135 1.918 . S
Fe135 O134 1.918 . S
Fe135 O136 2.002 . S
Fe135 O145 1.976 . S
Fe135 O149 1.996 . S
Fe135 O152 1.997 . S
O136 Fe135 2.002 . S
O136 C153 1.295 . S
O137 Fe132 1.997 . S
O137 C153 1.235 . S
O138 Fe132 2.002 . S
O138 C139 1.295 . S
C139 O138 1.295 . S
C139 O141 1.235 . S
C140 O145 1.287 . S
C140 O146 1.255 . S
O141 Fe133 1.997 . S
O141 C139 1.235 . S
C142 O148 1.287 . S
C142 O149 1.255 . S
O143 Fe132 1.976 . S
O143 C150 1.287 . S
O144 Fe133 1.996 . S
O144 C150 1.255 . S
O145 Fe135 1.976 . S
O145 C140 1.287 . S
O146 Fe132 1.996 . S
O146 C140 1.255 . S
C147 O151 1.295 . S
C147 O152 1.235 . S
O148 Fe133 1.976 . S
O148 C142 1.287 . S
O149 Fe135 1.996 . S
O149 C142 1.255 . S
C150 O143 1.287 . S
C150 O144 1.255 . S
O151 Fe133 2.002 . S
O151 C147 1.295 . S
O152 Fe135 1.997 . S
O152 C147 1.235 . S
C153 O136 1.295 . S
C153 O137 1.235 . S
Fe154 O156 1.918 . S
Fe154 O159 1.997 1_565 S
Fe154 O160 2.002 . S
Fe154 O165 1.976 . S
Fe154 O168 1.996 1_565 S
Fe155 O156 1.918 . S
Fe155 O163 1.997 . S
Fe155 O166 1.996 . S
Fe155 O170 1.976 . S
Fe155 O173 2.002 . S
O156 Fe154 1.918 . S
O156 Fe155 1.918 . S
O156 Fe157 1.918 . S
Fe157 O156 1.918 . S
Fe157 O158 2.002 1_565 S
Fe157 O167 1.976 1_565 S
Fe157 O171 1.996 . S
Fe157 O174 1.997 . S
O158 Fe157 2.002 1_545 S
O158 C175 1.295 . S
O159 Fe154 1.997 1_545 S
O159 C175 1.235 . S
O160 Fe154 2.002 . S
O160 C161 1.295 . S
C161 O160 1.295 . S
C161 O163 1.235 . S
C162 O167 1.287 . S
C162 O168 1.255 . S
O163 Fe155 1.997 . S
O163 C161 1.235 . S
C164 O170 1.287 . S
C164 O171 1.255 . S
O165 Fe154 1.976 . S
O165 C172 1.287 . S
O166 Fe155 1.996 . S
O166 C172 1.255 . S
O167 Fe157 1.976 1_545 S
O167 C162 1.287 . S
O168 Fe154 1.996 1_545 S
O168 C162 1.255 . S
C169 O173 1.295 . S
C169 O174 1.235 . S
O170 Fe155 1.976 . S
O170 C164 1.287 . S
O171 Fe157 1.996 . S
O171 C164 1.255 . S
C172 O165 1.287 . S
C172 O166 1.255 . S
O173 Fe155 2.002 . S
O173 C169 1.295 . S
O174 Fe157 1.997 . S
O174 C169 1.235 . S
C175 O158 1.295 . S
C175 O159 1.235 . S
C176 C177 1.363 . S
C176 C182 1.379 . S
C176 N184 1.356 . S
C177 C176 1.363 . S
C177 C183 1.363 . S
C178 C179 1.363 . S
C178 C183 1.379 . S
C178 N185 1.356 . S
C179 C178 1.363 . S
C179 C182 1.363 . S
N180 C182 1.356 . S
N180 H192 0.984 1_545 S
N180 H193 0.985 . S
N181 C183 1.356 . S
N181 H186 0.984 . S
N181 H187 0.985 . S
C182 C176 1.379 . S
C182 C179 1.363 . S
C182 N180 1.356 . S
C183 C177 1.363 . S
C183 C178 1.379 . S
C183 N181 1.356 . S
N184 C176 1.356 . S
N184 H190 0.984 . S
N184 H191 0.984 . S
N185 C178 1.356 . S
N185 H188 0.984 . S
N185 H189 0.985 . S
H186 N181 0.984 . S
H187 N181 0.985 . S
H188 N185 0.984 . S
H189 N185 0.985 . S
H190 N184 0.984 . S
H191 N184 0.984 . S
H192 N180 0.984 1_565 S
H193 N180 0.985 . S
C194 C195 1.363 . S
C194 C200 1.379 . S
C194 N202 1.356 . S
C195 C194 1.363 . S
C195 C201 1.363 . S
C196 C197 1.363 . S
C196 C201 1.379 . S
C196 N203 1.356 . S
C197 C196 1.363 . S
C197 C200 1.363 . S
N198 C200 1.356 . S
N198 H210 0.984 . S
N198 H211 0.985 . S
N199 C201 1.356 . S
N199 H204 0.984 . S
N199 H205 0.985 . S
C200 C194 1.379 . S
C200 C197 1.363 . S
C200 N198 1.356 . S
C201 C195 1.363 . S
C201 C196 1.379 . S
C201 N199 1.356 . S
N202 C194 1.356 . S
N202 H208 0.984 . S
N202 H209 0.984 . S
N203 C196 1.356 . S
N203 H206 0.984 . S
N203 H207 0.985 . S
H204 N199 0.984 . S
H205 N199 0.985 . S
H206 N203 0.984 . S
H207 N203 0.985 . S
H208 N202 0.984 . S
H209 N202 0.984 . S
H210 N198 0.984 . S
H211 N198 0.985 . S
C212 C213 1.363 . S
C212 C218 1.379 . S
C212 N220 1.356 . S
C213 C212 1.363 . S
C213 C219 1.363 . S
C214 C215 1.363 . S
C214 C219 1.379 . S
C214 N221 1.356 . S
C215 C214 1.363 . S
C215 C218 1.363 . S
N216 C218 1.356 . S
N216 H228 0.984 . S
N216 H229 0.985 . S
N217 C219 1.356 . S
N217 H222 0.984 . S
N217 H223 0.985 . S
C218 C212 1.379 . S
C218 C215 1.363 . S
C218 N216 1.356 . S
C219 C213 1.363 . S
C219 C214 1.379 . S
C219 N217 1.356 . S
N220 C212 1.356 . S
N220 H226 0.984 . S
N220 H227 0.984 . S
N221 C214 1.356 . S
N221 H224 0.984 . S
N221 H225 0.985 . S
H222 N217 0.984 . S
H223 N217 0.985 . S
H224 N221 0.984 . S
H225 N221 0.985 . S
H226 N220 0.984 . S
H227 N220 0.984 . S
H228 N216 0.984 . S
H229 N216 0.985 . S
C230 C231 1.363 1_556 S
C230 C236 1.379 . S
C230 N238 1.356 . S
C231 C230 1.363 1_554 S
C231 C237 1.363 . S
C232 C233 1.363 1_554 S
C232 C237 1.379 . S
C232 N239 1.356 . S
C233 C232 1.363 1_556 S
C233 C236 1.363 . S
N234 C236 1.356 . S
N234 H246 0.984 . S
N234 H247 0.985 . S
N235 C237 1.356 . S
N235 H240 0.984 . S
N235 H241 0.985 . S
C236 C230 1.379 . S
C236 C233 1.363 . S
C236 N234 1.356 . S
C237 C231 1.363 . S
C237 C232 1.379 . S
C237 N235 1.356 . S
N238 C230 1.356 . S
N238 H244 0.984 . S
N238 H245 0.984 1_556 S
N239 C232 1.356 . S
N239 H242 0.984 1_554 S
N239 H243 0.985 . S
H240 N235 0.984 . S
H241 N235 0.985 . S
H242 N239 0.984 1_556 S
H243 N239 0.985 . S
H244 N238 0.984 . S
H245 N238 0.984 1_554 S
H246 N234 0.984 . S
H247 N234 0.985 . S
C248 C249 1.363 . S
C248 C254 1.379 . S
C248 N256 1.356 . S
C249 C248 1.363 . S
C249 C255 1.363 . S
C250 C251 1.363 . S
C250 C255 1.379 . S
C250 N257 1.356 . S
C251 C250 1.363 . S
C251 C254 1.363 . S
N252 C254 1.356 . S
N252 H264 0.984 . S
N252 H265 0.985 . S
N253 C255 1.356 . S
N253 H258 0.984 . S
N253 H259 0.985 . S
C254 C248 1.379 . S
C254 C251 1.363 . S
C254 N252 1.356 . S
C255 C249 1.363 . S
C255 C250 1.379 . S
C255 N253 1.356 . S
N256 C248 1.356 . S
N256 H262 0.984 . S
N256 H263 0.984 . S
N257 C250 1.356 . S
N257 H260 0.984 . S
N257 H261 0.985 . S
H258 N253 0.984 . S
H259 N253 0.985 . S
H260 N257 0.984 . S
H261 N257 0.985 . S
H262 N256 0.984 . S
H263 N256 0.984 . S
H264 N252 0.984 . S
H265 N252 0.985 . S
C266 C267 1.363 . S
C266 C272 1.379 . S
C266 N274 1.356 . S
C267 C266 1.363 . S
C267 C273 1.363 . S
C268 C269 1.363 . S
C268 C273 1.379 . S
C268 N275 1.356 . S
C269 C268 1.363 . S
C269 C272 1.363 . S
N270 C272 1.356 . S
N270 H282 0.984 . S
N270 H283 0.985 . S
N271 C273 1.356 . S
N271 H276 0.984 1_455 S
N271 H277 0.985 1_455 S
C272 C266 1.379 . S
C272 C269 1.363 . S
C272 N270 1.356 . S
C273 C267 1.363 . S
C273 C268 1.379 . S
C273 N271 1.356 . S
N274 C266 1.356 . S
N274 H280 0.984 . S
N274 H281 0.984 . S
N275 C268 1.356 . S
N275 H278 0.984 . S
N275 H279 0.985 . S
H276 N271 0.984 1_655 S
H277 N271 0.985 1_655 S
H278 N275 0.984 . S
H279 N275 0.985 . S
H280 N274 0.984 . S
H281 N274 0.984 . S
H282 N270 0.984 . S
H283 N270 0.985 . S
C284 C285 1.363 . S
C284 C290 1.379 . S
C284 N292 1.356 . S
C285 C284 1.363 . S
C285 C291 1.363 . S
C286 C287 1.363 . S
C286 C291 1.379 . S
C286 N293 1.356 . S
C287 C286 1.363 . S
C287 C290 1.363 . S
N288 C290 1.356 . S
N288 H300 0.984 . S
N288 H301 0.985 . S
N289 C291 1.356 . S
N289 H294 0.984 . S
N289 H295 0.985 . S
C290 C284 1.379 . S
C290 C287 1.363 . S
C290 N288 1.356 . S
C291 C285 1.363 . S
C291 C286 1.379 . S
C291 N289 1.356 . S
N292 C284 1.356 . S
N292 H298 0.984 . S
N292 H299 0.984 . S
N293 C286 1.356 . S
N293 H296 0.984 . S
N293 H297 0.985 . S
H294 N289 0.984 . S
H295 N289 0.985 . S
H296 N293 0.984 . S
H297 N293 0.985 . S
H298 N292 0.984 . S
H299 N292 0.984 . S
H300 N288 0.984 . S
H301 N288 0.985 . S
C302 C303 1.363 . S
C302 C308 1.379 . S
C302 N310 1.356 . S
C303 C302 1.363 . S
C303 C309 1.363 . S
C304 C305 1.363 . S
C304 C309 1.379 . S
C304 N311 1.356 . S
C305 C304 1.363 . S
C305 C308 1.363 . S
N306 C308 1.356 1_556 S
N306 H318 0.984 . S
N306 H319 0.985 . S
N307 C309 1.356 . S
N307 H312 0.984 . S
N307 H313 0.985 . S
C308 C302 1.379 . S
C308 C305 1.363 . S
C308 N306 1.356 1_554 S
C309 C303 1.363 . S
C309 C304 1.379 . S
C309 N307 1.356 . S
N310 C302 1.356 . S
N310 H316 0.984 . S
N310 H317 0.984 . S
N311 C304 1.356 . S
N311 H314 0.984 . S
N311 H315 0.985 . S
H312 N307 0.984 . S
H313 N307 0.985 . S
H314 N311 0.984 . S
H315 N311 0.985 . S
H316 N310 0.984 . S
H317 N310 0.984 . S
H318 N306 0.984 . S
H319 N306 0.985 . S
C320 C321 1.363 . S
C320 C326 1.379 . S
C320 N328 1.356 . S
C321 C320 1.363 . S
C321 C327 1.363 . S
C322 C323 1.363 . S
C322 C327 1.379 . S
C322 N329 1.356 . S
C323 C322 1.363 . S
C323 C326 1.363 . S
N324 C326 1.356 . S
N324 H336 0.984 . S
N324 H337 0.985 . S
N325 C327 1.356 . S
N325 H330 0.984 . S
N325 H331 0.985 . S
C326 C320 1.379 . S
C326 C323 1.363 . S
C326 N324 1.356 . S
C327 C321 1.363 . S
C327 C322 1.379 . S
C327 N325 1.356 . S
N328 C320 1.356 . S
N328 H334 0.984 . S
N328 H335 0.984 . S
N329 C322 1.356 . S
N329 H332 0.984 . S
N329 H333 0.985 . S
H330 N325 0.984 . S
H331 N325 0.985 . S
H332 N329 0.984 . S
H333 N329 0.985 . S
H334 N328 0.984 . S
H335 N328 0.984 . S
H336 N324 0.984 . S
H337 N324 0.985 . S
C338 C339 1.363 . S
C338 C344 1.379 . S
C338 N346 1.356 . S
C339 C338 1.363 . S
C339 C345 1.363 . S
C340 C341 1.363 . S
C340 C345 1.379 . S
C340 N347 1.356 . S
C341 C340 1.363 . S
C341 C344 1.363 . S
N342 C344 1.356 . S
N342 H354 0.984 . S
N342 H355 0.985 . S
N343 C345 1.356 . S
N343 H348 0.984 . S
N343 H349 0.985 . S
C344 C338 1.379 . S
C344 C341 1.363 . S
C344 N342 1.356 . S
C345 C339 1.363 . S
C345 C340 1.379 . S
C345 N343 1.356 . S
N346 C338 1.356 . S
N346 H352 0.984 . S
N346 H353 0.984 . S
N347 C340 1.356 . S
N347 H350 0.984 . S
N347 H351 0.985 . S
H348 N343 0.984 . S
H349 N343 0.985 . S
H350 N347 0.984 . S
H351 N347 0.985 . S
H352 N346 0.984 . S
H353 N346 0.984 . S
H354 N342 0.984 . S
H355 N342 0.985 . S
C356 C357 1.363 . S
C356 C362 1.379 . S
C356 N364 1.356 . S
C357 C356 1.363 . S
C357 C363 1.363 . S
C358 C359 1.363 . S
C358 C363 1.379 . S
C358 N365 1.356 . S
C359 C358 1.363 . S
C359 C362 1.363 . S
N360 C362 1.356 . S
N360 H372 0.984 . S
N360 H373 0.985 . S
N361 C363 1.356 1_554 S
N361 H366 0.984 . S
N361 H367 0.985 . S
C362 C356 1.379 . S
C362 C359 1.363 . S
C362 N360 1.356 . S
C363 C357 1.363 . S
C363 C358 1.379 . S
C363 N361 1.356 1_556 S
N364 C356 1.356 . S
N364 H370 0.984 . S
N364 H371 1.002 . S
N365 C358 1.356 . S
N365 H368 0.984 1_565 S
N365 H369 0.985 1_565 S
H366 N361 0.984 . S
H367 N361 0.985 . S
H368 N365 0.984 1_545 S
H369 N365 0.985 1_545 S
H370 N364 0.984 . S
H371 N364 1.002 . S
H372 N360 0.984 . S
H373 N360 0.985 . S
C374 C375 1.363 . S
C374 C380 1.379 . S
C374 N382 1.356 . S
C375 C374 1.363 . S
C375 C381 1.363 . S
C376 C377 1.363 . S
C376 C381 1.379 . S
C376 N383 1.356 . S
C377 C376 1.363 . S
C377 C380 1.363 . S
N378 C380 1.356 . S
N378 H390 0.984 . S
N378 H391 0.985 . S
N379 C381 1.356 . S
N379 H384 0.984 . S
N379 H385 0.985 . S
C380 C374 1.379 . S
C380 C377 1.363 . S
C380 N378 1.356 . S
C381 C375 1.363 . S
C381 C376 1.379 . S
C381 N379 1.356 . S
N382 C374 1.356 . S
N382 H388 0.984 . S
N382 H389 0.984 . S
N383 C376 1.356 . S
N383 H386 0.984 . S
N383 H387 0.985 . S
H384 N379 0.984 . S
H385 N379 0.985 . S
H386 N383 0.984 . S
H387 N383 0.985 . S
H388 N382 0.984 . S
H389 N382 0.984 . S
H390 N378 0.984 . S
H391 N378 0.985 . S
C392 C393 1.363 . S
C392 C398 1.379 1_556 S
C392 N400 1.356 . S
C393 C392 1.363 . S
C393 C399 1.363 . S
C394 C395 1.363 . S
C394 C399 1.379 1_554 S
C394 N401 1.356 . S
C395 C394 1.363 . S
C395 C398 1.363 . S
N396 C398 1.356 . S
N396 H408 0.984 . S
N396 H409 0.985 . S
N397 C399 1.356 . S
N397 H402 0.984 . S
N397 H403 0.985 . S
C398 C392 1.379 1_554 S
C398 C395 1.363 . S
C398 N396 1.356 . S
C399 C393 1.363 . S
C399 C394 1.379 1_556 S
C399 N397 1.356 . S
N400 C392 1.356 . S
N400 H406 0.984 . S
N400 H407 0.984 . S
N401 C394 1.356 . S
N401 H404 0.984 . S
N401 H405 0.985 . S
H402 N397 0.984 . S
H403 N397 0.985 . S
H404 N401 0.984 . S
H405 N401 0.985 . S
H406 N400 0.984 . S
H407 N400 0.984 . S
H408 N396 0.984 . S
H409 N396 0.985 . S
C410 C411 1.363 . S
C410 C416 1.379 . S
C410 N418 1.356 . S
C411 C410 1.363 . S
C411 C417 1.363 . S
C412 C413 1.363 . S
C412 C417 1.379 . S
C412 N419 1.356 . S
C413 C412 1.363 . S
C413 C416 1.363 . S
N414 C416 1.356 . S
N414 H426 0.984 . S
N414 H427 0.985 . S
N415 C417 1.356 . S
N415 H420 0.984 . S
N415 H421 0.985 . S
C416 C410 1.379 . S
C416 C413 1.363 . S
C416 N414 1.356 . S
C417 C411 1.363 . S
C417 C412 1.379 . S
C417 N415 1.356 . S
N418 C410 1.356 . S
N418 H424 0.984 . S
N418 H425 0.984 . S
N419 C412 1.356 . S
N419 H422 0.984 . S
N419 H423 0.985 . S
H420 N415 0.984 . S
H421 N415 0.985 . S
H422 N419 0.984 . S
H423 N419 0.985 . S
H424 N418 0.984 . S
H425 N418 0.984 . S
H426 N414 0.984 . S
H427 N414 0.985 . S
C428 C429 1.363 . S
C428 C434 1.379 . S
C428 N436 1.356 . S
C429 C428 1.363 . S
C429 C435 1.363 . S
C430 C431 1.363 . S
C430 C435 1.379 . S
C430 N437 1.356 . S
C431 C430 1.363 . S
C431 C434 1.363 . S
N432 C434 1.356 . S
N432 H444 0.984 . S
N432 H445 0.985 . S
N433 C435 1.356 . S
N433 H438 0.984 . S
N433 H439 0.985 . S
C434 C428 1.379 . S
C434 C431 1.363 . S
C434 N432 1.356 . S
C435 C429 1.363 . S
C435 C430 1.379 . S
C435 N433 1.356 . S
N436 C428 1.356 . S
N436 H442 0.984 . S
N436 H443 0.984 . S
N437 C430 1.356 . S
N437 H440 0.984 . S
N437 H441 0.985 . S
H438 N433 0.984 . S
H439 N433 0.985 . S
H440 N437 0.984 . S
H441 N437 0.985 . S
H442 N436 0.984 . S
H443 N436 0.984 . S
H444 N432 0.984 . S
H445 N432 0.985 . S
C446 C447 1.363 . S
C446 C452 1.379 . S
C446 N454 1.356 . S
C447 C446 1.363 . S
C447 C453 1.363 . S
C448 C449 1.363 . S
C448 C453 1.379 . S
C448 N455 1.356 . S
C449 C448 1.363 . S
C449 C452 1.363 . S
N450 C452 1.356 . S
N450 H462 0.984 . S
N450 H463 0.985 . S
N451 C453 1.356 . S
N451 H456 0.984 . S
N451 H457 0.985 . S
C452 C446 1.379 . S
C452 C449 1.363 . S
C452 N450 1.356 . S
C453 C447 1.363 . S
C453 C448 1.379 . S
C453 N451 1.356 . S
N454 C446 1.356 . S
N454 H460 0.984 . S
N454 H461 0.984 . S
N455 C448 1.356 . S
N455 H458 0.984 . S
N455 H459 0.985 . S
H456 N451 0.984 . S
H457 N451 0.985 . S
H458 N455 0.984 . S
H459 N455 0.985 . S
H460 N454 0.984 . S
H461 N454 0.984 . S
H462 N450 0.984 . S
H463 N450 0.985 . S
C464 C465 1.363 . S
C464 C470 1.379 1_545 S
C464 N472 1.356 . S
C465 C464 1.363 . S
C465 C471 1.363 . S
C466 C467 1.363 . S
C466 C471 1.379 1_565 S
C466 N473 1.356 . S
C467 C466 1.363 . S
C467 C470 1.363 . S
N468 C470 1.356 . S
N468 H480 0.984 . S
N468 H481 0.985 . S
N469 C471 1.356 . S
N469 H474 0.984 . S
N469 H475 0.985 . S
C470 C464 1.379 1_565 S
C470 C467 1.363 . S
C470 N468 1.356 . S
C471 C465 1.363 . S
C471 C466 1.379 1_545 S
C471 N469 1.356 . S
N472 C464 1.356 . S
N472 H478 0.984 . S
N472 H479 0.984 . S
N473 C466 1.356 . S
N473 H476 0.984 . S
N473 H477 0.985 . S
H474 N469 0.984 . S
H475 N469 0.985 . S
H476 N473 0.984 . S
H477 N473 0.985 . S
H478 N472 0.984 . S
H479 N472 0.984 . S
H480 N468 0.984 . S
H481 N468 0.985 . S
C482 C483 1.363 . S
C482 C488 1.379 . S
C482 N490 1.356 . S
C483 C482 1.363 . S
C483 C489 1.363 . S
C484 C485 1.363 . S
C484 C489 1.379 . S
C484 N491 1.356 . S
C485 C484 1.363 . S
C485 C488 1.363 . S
N486 C488 1.356 . S
N486 H498 0.984 . S
N486 H499 0.985 . S
N487 C489 1.356 . S
N487 H492 0.984 . S
N487 H493 0.985 . S
C488 C482 1.379 . S
C488 C485 1.363 . S
C488 N486 1.356 . S
C489 C483 1.363 . S
C489 C484 1.379 . S
C489 N487 1.356 . S
N490 C482 1.356 . S
N490 H496 0.984 . S
N490 H497 0.984 . S
N491 C484 1.356 . S
N491 H494 0.984 . S
N491 H495 0.985 . S
H492 N487 0.984 . S
H493 N487 0.985 . S
H494 N491 0.984 . S
H495 N491 0.985 . S
H496 N490 0.984 . S
H497 N490 0.984 . S
H498 N486 0.984 . S
H499 N486 0.985 . S
C500 C501 1.363 . S
C500 C506 1.379 . S
C500 N508 1.356 . S
C501 C500 1.363 . S
C501 C507 1.363 1_545 S
C502 C503 1.363 . S
C502 C507 1.379 . S
C502 N509 1.356 . S
C503 C502 1.363 . S
C503 C506 1.363 1_565 S
N504 C506 1.356 . S
N504 H516 0.984 . S
N504 H517 0.985 1_545 S
N505 C507 1.356 . S
N505 H510 0.984 1_565 S
N505 H511 0.985 . S
C506 C500 1.379 . S
C506 C503 1.363 1_545 S
C506 N504 1.356 . S
C507 C501 1.363 1_565 S
C507 C502 1.379 . S
C507 N505 1.356 . S
N508 C500 1.356 . S
N508 H514 0.984 . S
N508 H515 0.984 . S
N509 C502 1.356 . S
N509 H512 0.984 . S
N509 H513 0.985 . S
H510 N505 0.984 1_545 S
H511 N505 0.985 . S
H512 N509 0.984 . S
H513 N509 0.985 . S
H514 N508 0.984 . S
H515 N508 0.984 . S
H516 N504 0.984 . S
H517 N504 0.985 1_565 S
C518 C519 1.363 . S
C518 C524 1.379 . S
C518 N526 1.356 . S
C519 C518 1.363 . S
C519 C525 1.363 . S
C520 C521 1.363 . S
C520 C525 1.379 . S
C520 N527 1.356 . S
C521 C520 1.363 . S
C521 C524 1.363 . S
N522 C524 1.356 . S
N522 H534 0.984 . S
N522 H535 0.985 . S
N523 C525 1.356 . S
N523 H528 0.984 . S
N523 H529 0.985 . S
C524 C518 1.379 . S
C524 C521 1.363 . S
C524 N522 1.356 . S
C525 C519 1.363 . S
C525 C520 1.379 . S
C525 N523 1.356 . S
N526 C518 1.356 . S
N526 H532 0.984 . S
N526 H533 0.984 . S
N527 C520 1.356 . S
N527 H530 0.984 . S
N527 H531 0.985 . S
H528 N523 0.984 . S
H529 N523 0.985 . S
H530 N527 0.984 . S
H531 N527 0.985 . S
H532 N526 0.984 . S
H533 N526 0.984 . S
H534 N522 0.984 . S
H535 N522 0.985 . S
C536 C537 1.363 . S
C536 C542 1.379 . S
C536 N544 1.356 . S
C537 C536 1.363 . S
C537 C543 1.363 . S
C538 C539 1.363 . S
C538 C543 1.379 . S
C538 N545 1.356 . S
C539 C538 1.363 . S
C539 C542 1.363 . S
N540 C542 1.356 . S
N540 H552 0.984 . S
N540 H553 0.985 . S
N541 C543 1.356 . S
N541 H546 0.984 . S
N541 H547 0.985 . S
C542 C536 1.379 . S
C542 C539 1.363 . S
C542 N540 1.356 . S
C543 C537 1.363 . S
C543 C538 1.379 . S
C543 N541 1.356 . S
N544 C536 1.356 . S
N544 H550 0.984 . S
N544 H551 0.984 . S
N545 C538 1.356 . S
N545 H548 0.984 . S
N545 H549 0.985 . S
H546 N541 0.984 . S
H547 N541 0.985 . S
H548 N545 0.984 . S
H549 N545 0.985 . S
H550 N544 0.984 . S
H551 N544 0.984 . S
H552 N540 0.984 . S
H553 N540 0.985 . S
C554 C555 1.363 . S
C554 C560 1.379 1_455 S
C554 N562 1.356 . S
C555 C554 1.363 . S
C555 C561 1.363 . S
C556 C557 1.363 . S
C556 C561 1.379 1_655 S
C556 N563 1.356 . S
C557 C556 1.363 . S
C557 C560 1.363 . S
N558 C560 1.356 . S
N558 H570 0.984 . S
N558 H571 0.985 . S
N559 C561 1.356 . S
N559 H564 0.984 . S
N559 H565 0.985 . S
C560 C554 1.379 1_655 S
C560 C557 1.363 . S
C560 N558 1.356 . S
C561 C555 1.363 . S
C561 C556 1.379 1_455 S
C561 N559 1.356 . S
N562 C554 1.356 . S
N562 H568 0.984 . S
N562 H569 0.984 . S
N563 C556 1.356 . S
N563 H566 0.984 . S
N563 H567 0.985 . S
H564 N559 0.984 . S
H565 N559 0.985 . S
H566 N563 0.984 . S
H567 N563 0.985 . S
H568 N562 0.984 . S
H569 N562 0.984 . S
H570 N558 0.984 . S
H571 N558 0.985 . S
C572 C573 1.363 . S
C572 C578 1.379 . S
C572 N580 1.356 . S
C573 C572 1.363 . S
C573 C579 1.363 . S
C574 C575 1.363 . S
C574 C579 1.379 . S
C574 N581 1.356 . S
C575 C574 1.363 . S
C575 C578 1.363 . S
N576 C578 1.356 . S
N576 H588 0.984 . S
N576 H589 0.985 . S
N577 C579 1.356 . S
N577 H582 0.984 . S
N577 H583 0.985 . S
C578 C572 1.379 . S
C578 C575 1.363 . S
C578 N576 1.356 . S
C579 C573 1.363 . S
C579 C574 1.379 . S
C579 N577 1.356 . S
N580 C572 1.356 . S
N580 H586 0.984 . S
N580 H587 0.984 . S
N581 C574 1.356 . S
N581 H584 0.984 . S
N581 H585 0.985 . S
H582 N577 0.984 . S
H583 N577 0.985 . S
H584 N581 0.984 . S
H585 N581 0.985 . S
H586 N580 0.984 . S
H587 N580 0.984 . S
H588 N576 0.984 . S
H589 N576 0.985 . S
C590 C591 1.363 . S
C590 C596 1.379 . S
C590 N598 1.356 . S
C591 C590 1.363 . S
C591 C597 1.363 1_655 S
C592 C593 1.363 . S
C592 C597 1.379 . S
C592 N599 1.356 . S
C593 C592 1.363 . S
C593 C596 1.363 1_455 S
N594 C596 1.356 . S
N594 H606 0.984 . S
N594 H607 0.985 1_655 S
N595 C597 1.356 . S
N595 H600 0.984 1_455 S
N595 H601 0.985 . S
C596 C590 1.379 . S
C596 C593 1.363 1_655 S
C596 N594 1.356 . S
C597 C591 1.363 1_455 S
C597 C592 1.379 . S
C597 N595 1.356 . S
N598 C590 1.356 . S
N598 H604 0.984 . S
N598 H605 0.984 . S
N599 C592 1.356 . S
N599 H602 0.984 . S
N599 H603 0.985 . S
H600 N595 0.984 1_655 S
H601 N595 0.985 . S
H602 N599 0.984 . S
H603 N599 0.985 . S
H604 N598 0.984 . S
H605 N598 0.984 . S
H606 N594 0.984 . S
H607 N594 0.985 1_455 S
C177 C8 1.604 . S
C179 C162 1.604 . S
C195 C32 1.604 . S
C197 C106 1.604 . S
C213 C52 1.604 . S
C215 C120 1.604 . S
C231 C142 1.604 . S
C233 C84 1.604 . S
C249 C10 1.416 . S
C251 C37 1.447 . S
C267 C65 1.447 . S
C269 C40 1.416 . S
C285 C73 1.447 . S
C287 C54 1.416 . S
C303 C21 1.447 . S
C305 C74 1.416 1_554 S
C321 C96 1.416 . S
C323 C175 1.447 . S
C339 C128 1.416 . S
C341 C95 1.447 . S
C357 C150 1.416 1_556 S
C359 C125 1.447 . S
C375 C147 1.447 . S
C377 C164 1.416 . S
C393 C131 0.926 . S
C395 C7 0.926 . S
C411 C153 0.926 . S
C413 C43 0.926 . S
C429 C161 0.926 . S
C431 C51 0.926 . S
C447 C103 0.926 . S
C449 C81 0.926 . S
C465 C18 1.590 . S
C467 C139 1.592 . S
C483 C30 1.590 . S
C485 C169 1.592 . S
C501 C109 1.592 . S
C503 C62 1.590 . S
C519 C117 1.592 . S
C521 C76 1.590 . S
C537 C59 1.592 . S
C539 C98 1.590 . S
C555 C118 1.590 . S
C557 C87 1.592 . S
C573 C140 1.590 . S
C575 C15 1.592 . S
C591 C172 1.590 . S
C593 C29 1.592 . S
