# Generated by pormake.
# Topology umf, (4)-cn, num edge types: 1
# Building blocks:
#     Node 0, Type 0, BuildingBlock: MUDLON_clean_sbu_0, # of connection points: 4
#     Node 1, Type 0, BuildingBlock: MUDLON_clean_sbu_0, # of connection points: 4
#     Node 2, Type 0, BuildingBlock: MUDLON_clean_sbu_0, # of connection points: 4
#     Node 3, Type 0, BuildingBlock: MUDLON_clean_sbu_0, # of connection points: 4
#     Node 4, Type 0, BuildingBlock: MUDLON_clean_sbu_0, # of connection points: 4
#     Node 5, Type 0, BuildingBlock: MUDLON_clean_sbu_0, # of connection points: 4
#     Node 6, Type 0, BuildingBlock: MUDLON_clean_sbu_0, # of connection points: 4
#     Node 7, Type 0, BuildingBlock: MUDLON_clean_sbu_0, # of connection points: 4
#     Edge 8, Type (0, 0), BuildingBlock: AJUNOK_clean_linker_0, # of connection points: 2
#     Edge 9, Type (0, 0), BuildingBlock: AJUNOK_clean_linker_0, # of connection points: 2
#     Edge 10, Type (0, 0), BuildingBlock: AJUNOK_clean_linker_0, # of connection points: 2
#     Edge 11, Type (0, 0), BuildingBlock: AJUNOK_clean_linker_0, # of connection points: 2
#     Edge 12, Type (0, 0), BuildingBlock: AJUNOK_clean_linker_0, # of connection points: 2
#     Edge 13, Type (0, 0), BuildingBlock: AJUNOK_clean_linker_0, # of connection points: 2
#     Edge 14, Type (0, 0), BuildingBlock: AJUNOK_clean_linker_0, # of connection points: 2
#     Edge 15, Type (0, 0), BuildingBlock: AJUNOK_clean_linker_0, # of connection points: 2
#     Edge 16, Type (0, 0), BuildingBlock: AJUNOK_clean_linker_0, # of connection points: 2
#     Edge 17, Type (0, 0), BuildingBlock: AJUNOK_clean_linker_0, # of connection points: 2
#     Edge 18, Type (0, 0), BuildingBlock: AJUNOK_clean_linker_0, # of connection points: 2
#     Edge 19, Type (0, 0), BuildingBlock: AJUNOK_clean_linker_0, # of connection points: 2
#     Edge 20, Type (0, 0), BuildingBlock: AJUNOK_clean_linker_0, # of connection points: 2
#     Edge 21, Type (0, 0), BuildingBlock: AJUNOK_clean_linker_0, # of connection points: 2
#     Edge 22, Type (0, 0), BuildingBlock: AJUNOK_clean_linker_0, # of connection points: 2
#     Edge 23, Type (0, 0), BuildingBlock: AJUNOK_clean_linker_0, # of connection points: 2
# Relax obj value: 0.092
# Max RMSD: 0.170
# Mean RMSD: 0.170
data_MOF--net-umf--node1-MUDLON_clean_sbu_0--edge1-AJUNOK_clean_linker_0
_symmetry_space_group_name_H-M    P1
_symmetry_Int_Tables_number       1
_symmetry_cell_setting            triclinic
loop_
_symmetry_equiv_pos_as_xyz
'x, y, z'
_cell_length_a     21.728318
_cell_length_b     22.280875
_cell_length_c     40.520159
_cell_angle_alpha  90.110803
_cell_angle_beta   90.627317
_cell_angle_gamma 89.931955
loop_
_atom_site_label
_atom_site_type_symbol
_atom_site_fract_x
_atom_site_fract_y
_atom_site_fract_z
_atom_type_partial_charge
Mg0 Mg 0.06249 0.24578 0.18338 0.0
C1 C 0.02117 0.24722 0.115 0.0
O2 O 0.97129 0.24195 0.13281 0.0
C3 C 0.12649 0.25637 0.2463 0.0
O4 O 0.06838 0.2685 0.25197 0.0
C5 C 0.04774 0.37285 0.19473 0.0
O6 O 0.10633 0.36397 0.18867 0.0
O7 O 0.01216 0.32742 0.195 0.0
O8 O 0.07298 0.25021 0.13002 0.0
O9 O 0.02365 0.15698 0.19127 0.0
C10 C 0.06407 0.11762 0.18421 0.0
O11 O 0.11827 0.13639 0.17452 0.0
O12 O 0.14219 0.246 0.21661 0.0
Mg13 Mg 0.75715 0.07613 0.67722 0.0
C14 C 0.75957 0.02788 0.61102 0.0
O15 O 0.75135 0.98227 0.63098 0.0
C16 C 0.73529 0.17089 0.73014 0.0
O17 O 0.68379 0.1411 0.73372 0.0
C18 C 0.63655 0.01742 0.70755 0.0
O19 O 0.66106 0.01923 0.73731 0.0
O20 O 0.6668 0.036 0.68294 0.0
O21 O 0.76489 0.08006 0.62373 0.0
O22 O 0.83765 0.02371 0.69105 0.0
C23 C 0.86727 0.0341 0.71771 0.0
O24 O 0.84274 0.06916 0.74011 0.0
O25 O 0.76888 0.15896 0.7054 0.0
Mg26 Mg 0.94014 0.74701 0.18234 0.0
C27 C 0.97893 0.72848 0.1135 0.0
O28 O 0.02471 0.70607 0.13101 0.0
C29 C 0.86836 0.73482 0.24181 0.0
O30 O 0.92354 0.71473 0.24947 0.0
C31 C 0.95273 0.61718 0.19214 0.0
O32 O 0.89469 0.62461 0.18363 0.0
O33 O 0.98677 0.66349 0.19475 0.0
O34 O 0.93198 0.74827 0.12869 0.0
O35 O 0.98229 0.83217 0.19628 0.0
C36 C 0.01856 0.86036 0.17745 0.0
O37 O 0.03951 0.83358 0.15096 0.0
O38 O 0.8575 0.74932 0.21191 0.0
Mg39 Mg 0.24669 0.94695 0.68708 0.0
C40 C 0.2442 0.99291 0.61926 0.0
O41 O 0.24355 0.04131 0.63785 0.0
C42 C 0.2661 0.86172 0.74234 0.0
O43 O 0.30282 0.90625 0.75044 0.0
C44 C 0.37891 0.95783 0.68512 0.0
O45 O 0.36442 0.91325 0.66525 0.0
O46 O 0.33578 0.98542 0.69981 0.0
O47 O 0.24519 0.94189 0.63341 0.0
O48 O 0.16273 0.99577 0.69852 0.0
C49 C 0.12972 0.98233 0.7232 0.0
O50 O 0.15165 0.94531 0.74559 0.0
O51 O 0.23926 0.86327 0.71424 0.0
Mg52 Mg 0.06204 0.74847 0.90515 0.0
C53 C 0.01337 0.75335 0.97143 0.0
O54 O 0.96605 0.7616 0.95148 0.0
C55 C 0.1363 0.74089 0.84599 0.0
O56 O 0.08194 0.7202 0.83718 0.0
C57 C 0.05369 0.62048 0.89399 0.0
O58 O 0.11113 0.63032 0.90289 0.0
O59 O 0.01746 0.66521 0.89167 0.0
O60 O 0.06636 0.74649 0.95875 0.0
O61 O 0.01486 0.83146 0.8931 0.0
C62 C 0.05089 0.87649 0.89302 0.0
O63 O 0.10966 0.86752 0.89914 0.0
O64 O 0.14561 0.7534 0.87631 0.0
Mg65 Mg 0.25541 0.07362 0.40994 0.0
C66 C 0.25079 0.02484 0.47611 0.0
O67 O 0.2581 0.9789 0.45616 0.0
C68 C 0.27053 0.16887 0.35681 0.0
O69 O 0.32119 0.13865 0.35116 0.0
C70 C 0.37661 0.01918 0.37847 0.0
O71 O 0.34925 0.01752 0.34943 0.0
O72 O 0.34744 0.03735 0.40361 0.0
O73 O 0.24729 0.07709 0.46343 0.0
O74 O 0.17704 0.01856 0.39602 0.0
C75 C 0.14761 0.02706 0.36912 0.0
O76 O 0.1716 0.0615 0.34637 0.0
O77 O 0.23955 0.15639 0.38238 0.0
Mg78 Mg 0.94283 0.24914 0.90436 0.0
C79 C 0.99051 0.25271 0.97136 0.0
O80 O 0.03831 0.25529 0.95184 0.0
C81 C 0.87566 0.25777 0.84245 0.0
O82 O 0.93286 0.27262 0.83617 0.0
C83 C 0.95718 0.37753 0.8922 0.0
O84 O 0.89785 0.37115 0.89708 0.0
O85 O 0.99108 0.33099 0.89272 0.0
O86 O 0.93711 0.24957 0.95805 0.0
O87 O 0.99055 0.16659 0.89297 0.0
C88 C 0.95603 0.12056 0.89409 0.0
O89 O 0.89747 0.12829 0.9007 0.0
O90 O 0.86164 0.24674 0.87229 0.0
Mg91 Mg 0.76675 0.94532 0.40029 0.0
C92 C 0.77062 0.9936 0.46807 0.0
O93 O 0.77558 0.0415 0.44942 0.0
C94 C 0.74355 0.85631 0.34679 0.0
O95 O 0.70578 0.89989 0.33842 0.0
C96 C 0.6347 0.96215 0.40145 0.0
O97 O 0.64685 0.92112 0.42385 0.0
O98 O 0.67932 0.98573 0.38608 0.0
O99 O 0.76671 0.94249 0.45403 0.0
O100 O 0.85215 0.99106 0.38834 0.0
C101 C 0.88544 0.97467 0.36425 0.0
O102 O 0.86343 0.93577 0.34281 0.0
O103 O 0.77214 0.86005 0.37433 0.0
C104 C 0.96067 0.44672 0.19379 0.0
C105 C 0.02384 0.43504 0.19788 0.0
C106 C 0.93813 0.50571 0.19292 0.0
C107 C 0.97778 0.5555 0.19624 0.0
H108 H 0.92848 0.41016 0.19012 0.0
H109 H 0.88923 0.51216 0.18883 0.0
S110 S 0.14652 0.54903 0.21112 0.0
N111 N 0.12532 0.47813 0.20796 0.0
N112 N 0.08292 0.58875 0.20627 0.0
C113 C 0.04073 0.54437 0.20187 0.0
C114 C 0.06373 0.48427 0.20268 0.0
C115 C 0.46489 0.9967 0.72111 0.0
C116 C 0.44443 0.97342 0.69061 0.0
C117 C 0.52757 0.00884 0.72698 0.0
C118 C 0.57163 -0.00079 0.7023 0.0
H119 H 0.43241 0.00484 0.74072 0.0
H120 H 0.54134 0.02721 0.7507 0.0
S121 S 0.54155 0.93924 0.6181 0.0
N122 N 0.47326 0.94108 0.63552 0.0
N123 N 0.59035 0.96461 0.64632 0.0
C124 C 0.55159 0.97599 0.67172 0.0
C125 C 0.48819 0.96292 0.66593 0.0
C126 C 0.94414 0.48858 0.88753 0.0
C127 C 0.98369 0.43851 0.88908 0.0
C128 C 0.96722 0.54722 0.88787 0.0
C129 C 0.03083 0.55822 0.88992 0.0
H130 H 0.89467 0.48268 0.88682 0.0
H131 H 0.93471 0.58412 0.88757 0.0
S132 S 0.15449 0.44279 0.89138 0.0
N133 N 0.08993 0.40386 0.89041 0.0
N134 N 0.13343 0.51397 0.89101 0.0
C135 C 0.07112 0.50858 0.89002 0.0
C136 C 0.04755 0.44878 0.88959 0.0
C137 C 0.46383 0.98372 0.41369 0.0
C138 C 0.44242 0.00313 0.3826 0.0
C139 C 0.52608 0.97111 0.41937 0.0
C140 C 0.56986 0.97846 0.39442 0.0
H141 H 0.43212 0.97795 0.43389 0.0
H142 H 0.54005 0.95593 0.44372 0.0
S143 S 0.53812 0.02825 0.30861 0.0
N144 N 0.47 0.02879 0.32634 0.0
N145 N 0.58767 0.00596 0.33729 0.0
C146 C 0.5494 -0.00192 0.36321 0.0
C147 C 0.48551 0.01 0.35721 0.0
C148 C 0.94917 0.24494 1.02885 0.0
C149 C 0.99967 0.25239 1.00788 0.0
C150 C 0.95688 0.24342 0.06327 0.0
C151 C 0.01544 0.24932 0.07834 0.0
H152 H 0.90317 0.23988 1.01866 0.0
H153 H 0.91625 0.23735 0.07814 0.0
S154 S 0.16293 0.27125 1.03469 0.0
N155 N 0.11073 0.26677 1.0049 0.0
N156 N 0.12482 0.26381 0.06945 0.0
C157 C 0.06638 0.25719 0.05772 0.0
C158 C 0.05859 0.25876 1.0226 0.0
C159 C 0.77517 0.06579 0.55335 0.0
C160 C 0.76243 0.01783 0.5747 0.0
C161 C 0.77806 0.05724 0.51907 0.0
C162 C 0.76838 0.00035 0.5046 0.0
H163 H 0.78305 0.11044 0.56312 0.0
H164 H 0.788 0.09584 0.50384 0.0
S165 S 0.73242 0.85978 0.54942 0.0
N166 N 0.73934 0.91103 0.57867 0.0
N167 N 0.74494 0.89529 0.51444 0.0
C168 C 0.75561 0.95193 0.52563 0.0
C169 C 0.75257 0.96059 0.56057 0.0
C170 C 0.04104 0.71766 0.06211 0.0
C171 C 0.9855 0.73491 0.07717 0.0
C172 C 0.05008 0.72469 1.02813 0.0
C173 C 1.00381 0.74889 1.00762 0.0
H174 H 0.07832 0.69866 0.07667 0.0
H175 H 0.09349 0.71031 1.01784 0.0
S176 S 0.85021 0.8026 1.03461 0.0
N177 N 0.88382 0.77835 0.06879 0.0
N178 N 0.90051 0.79141 1.00499 0.0
C179 C 0.94805 0.76663 1.0223 0.0
C180 C 0.93896 0.75967 0.05699 0.0
C181 C 0.24312 0.06453 0.53399 0.0
C182 C 0.24793 0.01525 0.51245 0.0
C183 C 0.24161 0.0566 0.56831 0.0
C184 C 0.24474 -0.00096 0.58267 0.0
H185 H 0.24086 0.10979 0.52434 0.0
H186 H 0.23814 0.09626 0.58368 0.0
S187 S 0.25673 0.8547 0.5373 0.0
N188 N 0.25507 0.90628 0.50813 0.0
N189 N 0.25223 0.89174 0.57249 0.0
C190 C 0.24905 0.94925 0.56145 0.0
C191 C 0.25065 0.95726 0.52645 0.0
C192 C 0.22508 0.21488 0.26982 0.0
C193 C 0.16926 0.24556 0.27458 0.0
C194 C 0.26032 0.19427 0.29677 0.0
C195 C 0.24096 0.2033 0.32952 0.0
H196 H 0.24007 0.20368 0.24515 0.0
H197 H 0.30099 0.16782 0.2917 0.0
S198 S 0.10454 0.29107 0.35544 0.0
N199 N 0.10112 0.29168 0.31473 0.0
N200 N 0.1669 0.25229 0.36513 0.0
C201 C 0.18801 0.23824 0.33461 0.0
C202 C 0.1523 0.2595 0.30722 0.0
C203 C 0.85341 0.25418 0.7819 0.0
C204 C 0.83263 0.24581 0.8144 0.0
C205 C 0.81928 0.23386 0.75461 0.0
C206 C 0.76259 0.20449 0.75851 0.0
H207 H 0.89799 0.27406 0.77737 0.0
H208 H 0.83916 0.23861 0.73035 0.0
S209 S 0.68257 0.18027 0.83804 0.0
N210 N 0.74814 0.21267 0.84869 0.0
N211 N 0.68346 0.17484 0.7974 0.0
C212 C 0.73868 0.20039 0.79069 0.0
C213 C 0.77382 0.22088 0.81861 0.0
C214 C 0.74825 0.82388 0.28778 0.0
C215 C 0.76467 0.81369 0.32106 0.0
C216 C 0.77859 0.79439 0.26205 0.0
C217 C 0.82635 0.75336 0.26862 0.0
H218 H 0.71457 0.85786 0.28128 0.0
H219 H 0.76723 0.80697 0.2369 0.0
S220 S 0.87676 0.70034 0.35152 0.0
N221 N 0.82451 0.75222 0.35918 0.0
N222 N 0.88108 0.69623 0.31093 0.0
C223 C 0.83859 0.73803 0.30179 0.0
C224 C 0.80788 0.76831 0.32799 0.0
C225 C 0.19464 0.78121 0.76127 0.0
C226 C 0.24391 0.82021 0.76831 0.0
C227 C 0.16314 0.75207 0.78658 0.0
C228 C 0.1794 0.76081 0.82001 0.0
H229 H 0.17774 0.77575 0.7362 0.0
H230 H 0.12345 0.72517 0.77982 0.0
S231 S 0.31274 0.84886 0.85125 0.0
N232 N 0.31356 0.85863 0.81089 0.0
N233 N 0.25377 0.80431 0.85841 0.0
C234 C 0.23216 0.79511 0.8272 0.0
C235 C 0.26454 0.82468 0.80137 0.0
C236 C 0.09574 0.01214 0.17217 0.0
C237 C 0.05148 0.05202 0.18497 0.0
C238 C 0.08529 0.95022 0.17074 0.0
C239 C 0.0306 0.92518 0.18256 0.0
H240 H 0.13866 0.02882 0.16243 0.0
H241 H 0.1202 0.92176 0.15994 0.0
S242 S 0.89998 0.00897 0.21906 0.0
N243 N 0.95075 0.06144 0.21009 0.0
N244 N 0.93146 0.94467 0.20785 0.0
C245 C 0.98634 0.96405 0.19617 0.0
C246 C 0.99666 0.02751 0.19723 0.0
C247 C 0.03234 0.00594 0.69262 0.0
C248 C 0.06335 0.99788 0.72296 0.0
C249 C 0.9686 0.0153 0.6912 0.0
C250 C 0.93339 0.01825 0.72009 0.0
H251 H 0.05724 0.00375 0.66963 0.0
H252 H 0.94703 0.02159 0.66721 0.0
S253 S 0.99213 0.0004 0.80571 0.0
N254 N 0.05385 0.99284 0.78262 0.0
N255 N 0.93409 0.01256 0.77994 0.0
C256 C 0.96376 0.01084 0.75062 0.0
C257 C 0.02865 6e-05 0.75205 0.0
C258 C 0.94167 0.00927 0.89488 0.0
C259 C 0.98105 0.05887 0.89072 0.0
C260 C 0.96417 0.95034 0.89437 0.0
C261 C 0.02702 0.93856 0.88978 0.0
H262 H 0.89306 0.01581 0.8993 0.0
H263 H 0.93224 0.91394 0.89863 0.0
S264 S 0.1484 0.05179 0.87365 0.0
N265 N 0.08529 0.09176 0.87905 0.0
N266 N 0.1276 0.98105 0.878 0.0
C267 C 0.06658 0.9875 0.88418 0.0
C268 C 0.04362 0.0476 0.88467 0.0
C269 C 0.98227 0.0022 0.3943 0.0
C270 C 0.95189 0.98984 0.3642 0.0
C271 C 0.04593 0.01178 0.3957 0.0
C272 C 0.0817 0.0107 0.36698 0.0
H273 H 0.95692 0.00334 0.41717 0.0
H274 H 0.067 0.02153 0.41947 0.0
S275 S 0.02505 0.98036 0.28203 0.0
N276 N 0.96282 0.9761 0.30497 0.0
N277 N 0.08243 0.99641 0.30759 0.0
C278 C 0.05206 -0.00109 0.33668 0.0
C279 C 0.98725 0.98783 0.3353 0.0
loop_
_geom_bond_atom_site_label_1
_geom_bond_atom_site_label_2
_geom_bond_distance
_geom_bond_site_symmetry_2
_ccdc_geom_bond_type
Mg0 O7 2.141 . S
Mg0 O8 2.048 . S
Mg0 O9 2.048 . S
Mg0 O12 2.141 . S
C1 O2 1.313 1_455 S
C1 O8 1.195 . S
O2 C1 1.313 1_655 S
C3 O4 1.245 . S
C3 O12 1.289 . S
O4 C3 1.245 . S
C5 O6 1.245 . S
C5 O7 1.289 . S
O6 C5 1.245 . S
O7 Mg0 2.141 . S
O7 C5 1.289 . S
O8 Mg0 2.048 . S
O8 C1 1.195 . S
O9 Mg0 2.048 . S
O9 C10 1.195 . S
C10 O9 1.195 . S
C10 O11 1.313 . S
O11 C10 1.313 . S
O12 Mg0 2.141 . S
O12 C3 1.289 . S
Mg13 O20 2.141 . S
Mg13 O21 2.048 . S
Mg13 O22 2.048 . S
Mg13 O25 2.141 . S
C14 O15 1.313 1_545 S
C14 O21 1.195 . S
O15 C14 1.313 1_565 S
C16 O17 1.245 . S
C16 O25 1.289 . S
O17 C16 1.245 . S
C18 O19 1.245 . S
C18 O20 1.289 . S
O19 C18 1.245 . S
O20 Mg13 2.141 . S
O20 C18 1.289 . S
O21 Mg13 2.048 . S
O21 C14 1.195 . S
O22 Mg13 2.048 . S
O22 C23 1.195 . S
C23 O22 1.195 . S
C23 O24 1.313 . S
O24 C23 1.313 . S
O25 Mg13 2.141 . S
O25 C16 1.289 . S
Mg26 O33 2.141 . S
Mg26 O34 2.048 . S
Mg26 O35 2.048 . S
Mg26 O38 2.141 . S
C27 O28 1.313 1_655 S
C27 O34 1.195 . S
O28 C27 1.313 1_455 S
C29 O30 1.245 . S
C29 O38 1.289 . S
O30 C29 1.245 . S
C31 O32 1.245 . S
C31 O33 1.289 . S
O32 C31 1.245 . S
O33 Mg26 2.141 . S
O33 C31 1.289 . S
O34 Mg26 2.048 . S
O34 C27 1.195 . S
O35 Mg26 2.048 . S
O35 C36 1.195 . S
C36 O35 1.195 . S
C36 O37 1.313 . S
O37 C36 1.313 . S
O38 Mg26 2.141 . S
O38 C29 1.289 . S
Mg39 O46 2.141 . S
Mg39 O47 2.048 . S
Mg39 O48 2.048 . S
Mg39 O51 2.141 . S
C40 O41 1.313 1_565 S
C40 O47 1.195 . S
O41 C40 1.313 1_545 S
C42 O43 1.245 . S
C42 O51 1.289 . S
O43 C42 1.245 . S
C44 O45 1.245 . S
C44 O46 1.289 . S
O45 C44 1.245 . S
O46 Mg39 2.141 . S
O46 C44 1.289 . S
O47 Mg39 2.048 . S
O47 C40 1.195 . S
O48 Mg39 2.048 . S
O48 C49 1.195 . S
C49 O48 1.195 . S
C49 O50 1.313 . S
O50 C49 1.313 . S
O51 Mg39 2.141 . S
O51 C42 1.289 . S
Mg52 O59 2.141 . S
Mg52 O60 2.048 . S
Mg52 O61 2.048 . S
Mg52 O64 2.141 . S
C53 O54 1.313 1_455 S
C53 O60 1.195 . S
O54 C53 1.313 1_655 S
C55 O56 1.245 . S
C55 O64 1.289 . S
O56 C55 1.245 . S
C57 O58 1.245 . S
C57 O59 1.289 . S
O58 C57 1.245 . S
O59 Mg52 2.141 . S
O59 C57 1.289 . S
O60 Mg52 2.048 . S
O60 C53 1.195 . S
O61 Mg52 2.048 . S
O61 C62 1.195 . S
C62 O61 1.195 . S
C62 O63 1.313 . S
O63 C62 1.313 . S
O64 Mg52 2.141 . S
O64 C55 1.289 . S
Mg65 O72 2.141 . S
Mg65 O73 2.048 . S
Mg65 O74 2.048 . S
Mg65 O77 2.141 . S
C66 O67 1.313 1_545 S
C66 O73 1.195 . S
O67 C66 1.313 1_565 S
C68 O69 1.245 . S
C68 O77 1.289 . S
O69 C68 1.245 . S
C70 O71 1.245 . S
C70 O72 1.289 . S
O71 C70 1.245 . S
O72 Mg65 2.141 . S
O72 C70 1.289 . S
O73 Mg65 2.048 . S
O73 C66 1.195 . S
O74 Mg65 2.048 . S
O74 C75 1.195 . S
C75 O74 1.195 . S
C75 O76 1.313 . S
O76 C75 1.313 . S
O77 Mg65 2.141 . S
O77 C68 1.289 . S
Mg78 O85 2.141 . S
Mg78 O86 2.048 . S
Mg78 O87 2.048 . S
Mg78 O90 2.141 . S
C79 O80 1.313 1_655 S
C79 O86 1.195 . S
O80 C79 1.313 1_455 S
C81 O82 1.245 . S
C81 O90 1.289 . S
O82 C81 1.245 . S
C83 O84 1.245 . S
C83 O85 1.289 . S
O84 C83 1.245 . S
O85 Mg78 2.141 . S
O85 C83 1.289 . S
O86 Mg78 2.048 . S
O86 C79 1.195 . S
O87 Mg78 2.048 . S
O87 C88 1.195 . S
C88 O87 1.195 . S
C88 O89 1.313 . S
O89 C88 1.313 . S
O90 Mg78 2.141 . S
O90 C81 1.289 . S
Mg91 O98 2.141 . S
Mg91 O99 2.048 . S
Mg91 O100 2.048 . S
Mg91 O103 2.141 . S
C92 O93 1.313 1_565 S
C92 O99 1.195 . S
O93 C92 1.313 1_545 S
C94 O95 1.245 . S
C94 O103 1.289 . S
O95 C94 1.245 . S
C96 O97 1.245 . S
C96 O98 1.289 . S
O97 C96 1.245 . S
O98 Mg91 2.141 . S
O98 C96 1.289 . S
O99 Mg91 2.048 . S
O99 C92 1.195 . S
O100 Mg91 2.048 . S
O100 C101 1.195 . S
C101 O100 1.195 . S
C101 O102 1.313 . S
O102 C101 1.313 . S
O103 Mg91 2.141 . S
O103 C94 1.289 . S
C104 C105 1.369 . S
C104 C106 1.419 . S
C104 H108 0.930 . S
C105 C104 1.369 . S
C105 C114 1.429 1_455 S
C106 C104 1.419 . S
C106 C107 1.363 1_455 S
C106 H109 0.929 . S
C107 C106 1.363 1_655 S
C107 C113 1.428 . S
H108 C104 0.930 . S
H109 C106 0.929 . S
S110 N111 1.613 . S
S110 N112 1.610 . S
N111 S110 1.613 . S
N111 C114 1.350 . S
N112 S110 1.610 . S
N112 C113 1.351 . S
C113 C107 1.428 . S
C113 N112 1.351 . S
C113 C114 1.434 . S
C114 C105 1.429 1_655 S
C114 N111 1.350 . S
C114 C113 1.434 . S
C115 C116 1.369 . S
C115 C117 1.419 . S
C115 H119 0.930 . S
C116 C115 1.369 . S
C116 C125 1.429 1_565 S
C117 C115 1.419 . S
C117 C118 1.363 1_565 S
C117 H120 0.929 . S
C118 C117 1.363 1_545 S
C118 C124 1.428 . S
H119 C115 0.930 . S
H120 C117 0.929 . S
S121 N122 1.613 . S
S121 N123 1.610 . S
N122 S121 1.613 . S
N122 C125 1.350 . S
N123 S121 1.610 . S
N123 C124 1.351 . S
C124 C118 1.428 . S
C124 N123 1.351 . S
C124 C125 1.434 . S
C125 C116 1.429 1_545 S
C125 N122 1.350 . S
C125 C124 1.434 . S
C126 C127 1.369 1_455 S
C126 C128 1.419 . S
C126 H130 0.930 . S
C127 C126 1.369 1_655 S
C127 C136 1.429 . S
C128 C126 1.419 . S
C128 C129 1.363 . S
C128 H131 0.929 . S
C129 C128 1.363 . S
C129 C135 1.428 1_455 S
H130 C126 0.930 . S
H131 C128 0.929 . S
S132 N133 1.613 . S
S132 N134 1.610 . S
N133 S132 1.613 . S
N133 C136 1.350 . S
N134 S132 1.610 . S
N134 C135 1.351 . S
C135 C129 1.428 1_655 S
C135 N134 1.351 . S
C135 C136 1.434 . S
C136 C127 1.429 . S
C136 N133 1.350 . S
C136 C135 1.434 . S
C137 C138 1.369 . S
C137 C139 1.419 . S
C137 H141 0.930 . S
C138 C137 1.369 . S
C138 C147 1.429 1_545 S
C139 C137 1.419 . S
C139 C140 1.363 1_545 S
C139 H142 0.929 . S
C140 C139 1.363 1_565 S
C140 C146 1.428 . S
H141 C137 0.930 . S
H142 C139 0.929 . S
S143 N144 1.613 . S
S143 N145 1.610 . S
N144 S143 1.613 . S
N144 C147 1.350 . S
N145 S143 1.610 . S
N145 C146 1.351 . S
C146 C140 1.428 . S
C146 N145 1.351 . S
C146 C147 1.434 . S
C147 C138 1.429 1_565 S
C147 N144 1.350 . S
C147 C146 1.434 . S
C148 C149 1.369 . S
C148 C150 1.418 1_656 S
C148 H152 0.930 . S
C149 C148 1.369 . S
C149 C158 1.429 1_655 S
C150 C148 1.418 1_454 S
C150 C151 1.364 . S
C150 H153 0.929 1_455 S
C151 C150 1.364 . S
C151 C157 1.428 . S
H152 C148 0.930 . S
H153 C150 0.929 1_655 S
S154 N155 1.613 . S
S154 N156 1.610 1_556 S
N155 S154 1.613 . S
N155 C158 1.350 . S
N156 S154 1.610 1_554 S
N156 C157 1.351 . S
C157 C151 1.428 . S
C157 N156 1.351 . S
C157 C158 1.434 1_554 S
C158 C149 1.429 1_455 S
C158 N155 1.350 . S
C158 C157 1.434 1_556 S
C159 C160 1.369 . S
C159 C161 1.419 . S
C159 H163 0.930 . S
C160 C159 1.369 . S
C160 C169 1.429 1_545 S
C161 C159 1.419 . S
C161 C162 1.363 1_545 S
C161 H164 0.929 . S
C162 C161 1.363 1_565 S
C162 C168 1.428 . S
H163 C159 0.930 . S
H164 C161 0.929 . S
S165 N166 1.613 . S
S165 N167 1.610 . S
N166 S165 1.613 . S
N166 C169 1.350 . S
N167 S165 1.610 . S
N167 C168 1.351 . S
C168 C162 1.428 . S
C168 N167 1.351 . S
C168 C169 1.434 . S
C169 C160 1.429 1_565 S
C169 N166 1.350 . S
C169 C168 1.434 . S
C170 C171 1.369 1_455 S
C170 C172 1.419 1_554 S
C170 H174 0.930 . S
C171 C170 1.369 1_655 S
C171 C180 1.429 . S
C172 C170 1.419 1_556 S
C172 C173 1.363 . S
C172 H175 0.929 . S
C173 C172 1.363 . S
C173 C179 1.428 1_455 S
H174 C170 0.930 . S
H175 C172 0.929 . S
S176 N177 1.613 1_556 S
S176 N178 1.610 . S
N177 S176 1.613 1_554 S
N177 C180 1.350 . S
N178 S176 1.610 . S
N178 C179 1.351 . S
C179 C173 1.428 1_655 S
C179 N178 1.351 . S
C179 C180 1.434 1_556 S
C180 C171 1.429 . S
C180 N177 1.350 . S
C180 C179 1.434 1_554 S
C181 C182 1.369 . S
C181 C183 1.419 . S
C181 H185 0.930 . S
C182 C181 1.369 . S
C182 C191 1.429 1_545 S
C183 C181 1.419 . S
C183 C184 1.363 1_545 S
C183 H186 0.929 . S
C184 C183 1.363 1_565 S
C184 C190 1.428 . S
H185 C181 0.930 . S
H186 C183 0.929 . S
S187 N188 1.613 . S
S187 N189 1.610 . S
N188 S187 1.613 . S
N188 C191 1.350 . S
N189 S187 1.610 . S
N189 C190 1.351 . S
C190 C184 1.428 . S
C190 N189 1.351 . S
C190 C191 1.434 . S
C191 C182 1.429 1_565 S
C191 N188 1.350 . S
C191 C190 1.434 . S
C192 C193 1.369 . S
C192 C194 1.419 . S
C192 H196 0.930 . S
C193 C192 1.369 . S
C193 C202 1.429 . S
C194 C192 1.419 . S
C194 C195 1.363 . S
C194 H197 0.929 . S
C195 C194 1.363 . S
C195 C201 1.428 . S
H196 C192 0.930 . S
H197 C194 0.929 . S
S198 N199 1.613 . S
S198 N200 1.610 . S
N199 S198 1.613 . S
N199 C202 1.350 . S
N200 S198 1.610 . S
N200 C201 1.351 . S
C201 C195 1.428 . S
C201 N200 1.351 . S
C201 C202 1.434 . S
C202 C193 1.429 . S
C202 N199 1.350 . S
C202 C201 1.434 . S
C203 C204 1.369 . S
C203 C205 1.419 . S
C203 H207 0.930 . S
C204 C203 1.369 . S
C204 C213 1.429 . S
C205 C203 1.419 . S
C205 C206 1.363 . S
C205 H208 0.929 . S
C206 C205 1.363 . S
C206 C212 1.428 . S
H207 C203 0.930 . S
H208 C205 0.929 . S
S209 N210 1.613 . S
S209 N211 1.610 . S
N210 S209 1.613 . S
N210 C213 1.350 . S
N211 S209 1.610 . S
N211 C212 1.351 . S
C212 C206 1.428 . S
C212 N211 1.351 . S
C212 C213 1.434 . S
C213 C204 1.429 . S
C213 N210 1.350 . S
C213 C212 1.434 . S
C214 C215 1.369 . S
C214 C216 1.419 . S
C214 H218 0.930 . S
C215 C214 1.369 . S
C215 C224 1.429 . S
C216 C214 1.419 . S
C216 C217 1.363 . S
C216 H219 0.929 . S
C217 C216 1.363 . S
C217 C223 1.428 . S
H218 C214 0.930 . S
H219 C216 0.929 . S
S220 N221 1.613 . S
S220 N222 1.610 . S
N221 S220 1.613 . S
N221 C224 1.350 . S
N222 S220 1.610 . S
N222 C223 1.351 . S
C223 C217 1.428 . S
C223 N222 1.351 . S
C223 C224 1.434 . S
C224 C215 1.429 . S
C224 N221 1.350 . S
C224 C223 1.434 . S
C225 C226 1.369 . S
C225 C227 1.419 . S
C225 H229 0.930 . S
C226 C225 1.369 . S
C226 C235 1.429 . S
C227 C225 1.419 . S
C227 C228 1.363 . S
C227 H230 0.929 . S
C228 C227 1.363 . S
C228 C234 1.428 . S
H229 C225 0.930 . S
H230 C227 0.929 . S
S231 N232 1.613 . S
S231 N233 1.610 . S
N232 S231 1.613 . S
N232 C235 1.350 . S
N233 S231 1.610 . S
N233 C234 1.351 . S
C234 C228 1.428 . S
C234 N233 1.351 . S
C234 C235 1.434 . S
C235 C226 1.429 . S
C235 N232 1.350 . S
C235 C234 1.434 . S
C236 C237 1.369 1_565 S
C236 C238 1.419 . S
C236 H240 0.930 . S
C237 C236 1.369 1_545 S
C237 C246 1.429 1_455 S
C238 C236 1.419 . S
C238 C239 1.363 1_455 S
C238 H241 0.929 . S
C239 C238 1.363 1_655 S
C239 C245 1.428 1_565 S
H240 C236 0.930 . S
H241 C238 0.929 . S
S242 N243 1.613 . S
S242 N244 1.610 . S
N243 S242 1.613 . S
N243 C246 1.350 . S
N244 S242 1.610 . S
N244 C245 1.351 . S
C245 C239 1.428 1_545 S
C245 N244 1.351 . S
C245 C246 1.434 . S
C246 C237 1.429 1_655 S
C246 N243 1.350 . S
C246 C245 1.434 . S
C247 C248 1.369 . S
C247 C249 1.419 1_465 S
C247 H251 0.930 . S
C248 C247 1.369 . S
C248 C257 1.429 . S
C249 C247 1.419 1_645 S
C249 C250 1.363 . S
C249 H252 0.929 . S
C250 C249 1.363 . S
C250 C256 1.428 . S
H251 C247 0.930 . S
H252 C249 0.929 . S
S253 N254 1.613 1_545 S
S253 N255 1.610 1_455 S
N254 S253 1.613 1_565 S
N254 C257 1.350 . S
N255 S253 1.610 1_655 S
N255 C256 1.351 . S
C256 C250 1.428 . S
C256 N255 1.351 . S
C256 C257 1.434 1_645 S
C257 C248 1.429 . S
C257 N254 1.350 . S
C257 C256 1.434 1_465 S
C258 C259 1.369 1_565 S
C258 C260 1.419 . S
C258 H262 0.930 . S
C259 C258 1.369 1_545 S
C259 C268 1.429 1_655 S
C260 C258 1.419 . S
C260 C261 1.363 1_655 S
C260 H263 0.929 . S
C261 C260 1.363 1_455 S
C261 C267 1.428 1_565 S
H262 C258 0.930 . S
H263 C260 0.929 . S
S264 N265 1.613 . S
S264 N266 1.610 . S
N265 S264 1.613 . S
N265 C268 1.350 . S
N266 S264 1.610 . S
N266 C267 1.351 . S
C267 C261 1.428 1_545 S
C267 N266 1.351 . S
C267 C268 1.434 . S
C268 C259 1.429 1_455 S
C268 N265 1.350 . S
C268 C267 1.434 . S
C269 C270 1.369 . S
C269 C271 1.419 1_665 S
C269 H273 0.930 . S
C270 C269 1.369 . S
C270 C279 1.429 . S
C271 C269 1.419 1_445 S
C271 C272 1.363 . S
C271 H274 0.929 . S
C272 C271 1.363 . S
C272 C278 1.428 . S
H273 C269 0.930 . S
H274 C271 0.929 . S
S275 N276 1.613 1_545 S
S275 N277 1.610 1_655 S
N276 S275 1.613 1_565 S
N276 C279 1.350 . S
N277 S275 1.610 1_455 S
N277 C278 1.351 . S
C278 C272 1.428 . S
C278 N277 1.351 . S
C278 C279 1.434 1_445 S
C279 C270 1.429 . S
C279 N276 1.350 . S
C279 C278 1.434 1_665 S
C105 C5 1.869 . S
C107 C31 1.876 . S
C116 C44 1.869 . S
C118 C18 1.876 . S
C127 C83 1.878 . S
C129 C57 1.868 . S
C138 C70 1.867 . S
C140 C96 1.877 . S
C149 C79 1.539 . S
C151 C1 1.541 . S
C160 C14 1.537 . S
C162 C92 1.541 . S
C171 C27 1.541 . S
C173 C53 1.540 . S
C182 C66 1.537 . S
C184 C40 1.541 . S
C193 C3 1.647 . S
C195 C68 1.645 . S
C204 C81 1.643 . S
C206 C16 1.645 . S
C215 C94 1.644 . S
C217 C29 1.643 . S
C226 C42 1.644 . S
C228 C55 1.643 . S
C237 C10 1.529 . S
C239 C36 1.534 . S
C248 C49 1.532 . S
C250 C23 1.532 . S
C259 C88 1.525 . S
C261 C62 1.537 . S
C270 C101 1.533 . S
C272 C75 1.531 . S
