# Generated by pormake.
# Topology fnd, (5)-cn, num edge types: 1
# Building blocks:
#     Node 0, Type 0, BuildingBlock: BEQFEK_clean_sbu_0, # of connection points: 5
#     Node 1, Type 0, BuildingBlock: BEQFEK_clean_sbu_0, # of connection points: 5
#     Node 2, Type 0, BuildingBlock: BEQFEK_clean_sbu_0, # of connection points: 5
#     Node 3, Type 0, BuildingBlock: BEQFEK_clean_sbu_0, # of connection points: 5
#     Node 4, Type 0, BuildingBlock: BEQFEK_clean_sbu_0, # of connection points: 5
#     Node 5, Type 0, BuildingBlock: BEQFEK_clean_sbu_0, # of connection points: 5
#     Node 6, Type 0, BuildingBlock: BEQFEK_clean_sbu_0, # of connection points: 5
#     Node 7, Type 0, BuildingBlock: BEQFEK_clean_sbu_0, # of connection points: 5
#     Node 8, Type 0, BuildingBlock: BEQFEK_clean_sbu_0, # of connection points: 5
#     Node 9, Type 0, BuildingBlock: BEQFEK_clean_sbu_0, # of connection points: 5
#     Node 10, Type 0, BuildingBlock: BEQFEK_clean_sbu_0, # of connection points: 5
#     Node 11, Type 0, BuildingBlock: BEQFEK_clean_sbu_0, # of connection points: 5
#     Node 12, Type 0, BuildingBlock: BEQFEK_clean_sbu_0, # of connection points: 5
#     Node 13, Type 0, BuildingBlock: BEQFEK_clean_sbu_0, # of connection points: 5
#     Node 14, Type 0, BuildingBlock: BEQFEK_clean_sbu_0, # of connection points: 5
#     Node 15, Type 0, BuildingBlock: BEQFEK_clean_sbu_0, # of connection points: 5
#     Node 16, Type 0, BuildingBlock: BEQFEK_clean_sbu_0, # of connection points: 5
#     Node 17, Type 0, BuildingBlock: BEQFEK_clean_sbu_0, # of connection points: 5
#     Edge 18, Type (0, 0), BuildingBlock: EZIPEK_clean_linker_0, # of connection points: 2
#     Edge 19, Type (0, 0), BuildingBlock: EZIPEK_clean_linker_0, # of connection points: 2
#     Edge 20, Type (0, 0), BuildingBlock: EZIPEK_clean_linker_0, # of connection points: 2
#     Edge 21, Type (0, 0), BuildingBlock: EZIPEK_clean_linker_0, # of connection points: 2
#     Edge 22, Type (0, 0), BuildingBlock: EZIPEK_clean_linker_0, # of connection points: 2
#     Edge 23, Type (0, 0), BuildingBlock: EZIPEK_clean_linker_0, # of connection points: 2
#     Edge 24, Type (0, 0), BuildingBlock: EZIPEK_clean_linker_0, # of connection points: 2
#     Edge 25, Type (0, 0), BuildingBlock: EZIPEK_clean_linker_0, # of connection points: 2
#     Edge 26, Type (0, 0), BuildingBlock: EZIPEK_clean_linker_0, # of connection points: 2
#     Edge 27, Type (0, 0), BuildingBlock: EZIPEK_clean_linker_0, # of connection points: 2
#     Edge 28, Type (0, 0), BuildingBlock: EZIPEK_clean_linker_0, # of connection points: 2
#     Edge 29, Type (0, 0), BuildingBlock: EZIPEK_clean_linker_0, # of connection points: 2
#     Edge 30, Type (0, 0), BuildingBlock: EZIPEK_clean_linker_0, # of connection points: 2
#     Edge 31, Type (0, 0), BuildingBlock: EZIPEK_clean_linker_0, # of connection points: 2
#     Edge 32, Type (0, 0), BuildingBlock: EZIPEK_clean_linker_0, # of connection points: 2
#     Edge 33, Type (0, 0), BuildingBlock: EZIPEK_clean_linker_0, # of connection points: 2
#     Edge 34, Type (0, 0), BuildingBlock: EZIPEK_clean_linker_0, # of connection points: 2
#     Edge 35, Type (0, 0), BuildingBlock: EZIPEK_clean_linker_0, # of connection points: 2
#     Edge 36, Type (0, 0), BuildingBlock: EZIPEK_clean_linker_0, # of connection points: 2
#     Edge 37, Type (0, 0), BuildingBlock: EZIPEK_clean_linker_0, # of connection points: 2
#     Edge 38, Type (0, 0), BuildingBlock: EZIPEK_clean_linker_0, # of connection points: 2
#     Edge 39, Type (0, 0), BuildingBlock: EZIPEK_clean_linker_0, # of connection points: 2
#     Edge 40, Type (0, 0), BuildingBlock: EZIPEK_clean_linker_0, # of connection points: 2
#     Edge 41, Type (0, 0), BuildingBlock: EZIPEK_clean_linker_0, # of connection points: 2
#     Edge 42, Type (0, 0), BuildingBlock: EZIPEK_clean_linker_0, # of connection points: 2
#     Edge 43, Type (0, 0), BuildingBlock: EZIPEK_clean_linker_0, # of connection points: 2
#     Edge 44, Type (0, 0), BuildingBlock: EZIPEK_clean_linker_0, # of connection points: 2
#     Edge 45, Type (0, 0), BuildingBlock: EZIPEK_clean_linker_0, # of connection points: 2
#     Edge 46, Type (0, 0), BuildingBlock: EZIPEK_clean_linker_0, # of connection points: 2
#     Edge 47, Type (0, 0), BuildingBlock: EZIPEK_clean_linker_0, # of connection points: 2
#     Edge 48, Type (0, 0), BuildingBlock: EZIPEK_clean_linker_0, # of connection points: 2
#     Edge 49, Type (0, 0), BuildingBlock: EZIPEK_clean_linker_0, # of connection points: 2
#     Edge 50, Type (0, 0), BuildingBlock: EZIPEK_clean_linker_0, # of connection points: 2
#     Edge 51, Type (0, 0), BuildingBlock: EZIPEK_clean_linker_0, # of connection points: 2
#     Edge 52, Type (0, 0), BuildingBlock: EZIPEK_clean_linker_0, # of connection points: 2
#     Edge 53, Type (0, 0), BuildingBlock: EZIPEK_clean_linker_0, # of connection points: 2
#     Edge 54, Type (0, 0), BuildingBlock: EZIPEK_clean_linker_0, # of connection points: 2
#     Edge 55, Type (0, 0), BuildingBlock: EZIPEK_clean_linker_0, # of connection points: 2
#     Edge 56, Type (0, 0), BuildingBlock: EZIPEK_clean_linker_0, # of connection points: 2
#     Edge 57, Type (0, 0), BuildingBlock: EZIPEK_clean_linker_0, # of connection points: 2
#     Edge 58, Type (0, 0), BuildingBlock: EZIPEK_clean_linker_0, # of connection points: 2
#     Edge 59, Type (0, 0), BuildingBlock: EZIPEK_clean_linker_0, # of connection points: 2
#     Edge 60, Type (0, 0), BuildingBlock: EZIPEK_clean_linker_0, # of connection points: 2
#     Edge 61, Type (0, 0), BuildingBlock: EZIPEK_clean_linker_0, # of connection points: 2
#     Edge 62, Type (0, 0), BuildingBlock: EZIPEK_clean_linker_0, # of connection points: 2
# Relax obj value: 0.144
# Max RMSD: 0.198
# Mean RMSD: 0.198
data_MOF--net-fnd--node1-BEQFEK_clean_sbu_0--edge1-EZIPEK_clean_linker_0
_symmetry_space_group_name_H-M    P1
_symmetry_Int_Tables_number       1
_symmetry_cell_setting            triclinic
loop_
_symmetry_equiv_pos_as_xyz
'x, y, z'
_cell_length_a     59.478153
_cell_length_b     59.461389
_cell_length_c     15.305234
_cell_angle_alpha  90.03988
_cell_angle_beta   89.945809
_cell_angle_gamma 119.9886
loop_
_atom_site_label
_atom_site_type_symbol
_atom_site_fract_x
_atom_site_fract_y
_atom_site_fract_z
_atom_type_partial_charge
Co0 Co 0.1085 0.21515 0.55229 0.0
Co1 Co 0.09985 0.20262 0.3507 0.0
C2 C 0.12643 0.18193 0.46296 0.0
O3 O 0.12359 0.19291 0.52985 0.0
O4 O 0.11847 0.18391 0.38752 0.0
C5 C 0.13275 0.22469 0.72116 0.0
O6 O 0.15182 0.224 0.68026 0.0
C7 C 0.11319 0.20543 0.16211 0.0
C8 C 0.07759 0.20129 0.10154 0.0
C9 C 0.10224 0.20581 0.08247 0.0
N10 N 0.09589 0.20127 0.22581 0.0
N11 N 0.07454 0.19844 0.18877 0.0
C12 C 0.14006 0.21028 0.1776 0.0
H13 H 0.14038 0.19202 0.16571 0.0
H14 H 0.14608 0.2165 0.24609 0.0
H15 H 0.15392 0.22519 0.1315 0.0
C16 C 0.13565 0.26951 0.48375 0.0
N17 N 0.12222 0.2435 0.47307 0.0
N18 N 0.11822 0.23814 0.38894 0.0
C19 C 0.12877 0.26065 0.3441 0.0
C20 C 0.1403 0.28115 0.40203 0.0
C21 C 0.14372 0.28277 0.57033 0.0
H22 H 0.15724 0.2775 0.60199 0.0
H23 H 0.15336 0.30419 0.56337 0.0
H24 H 0.12641 0.27572 0.61307 0.0
O25 O 0.07045 0.1945 0.54126 0.0
O26 O 0.06402 0.18463 0.40006 0.0
H27 H 0.10705 0.25021 0.2257 0.0
H28 H 0.13383 0.28306 0.22668 0.0
C29 C 0.12733 0.26286 0.24748 0.0
H30 H 0.14007 0.25666 0.21577 0.0
H31 H 0.05816 0.1955 0.2234 0.0
O32 O 0.11448 0.22453 0.67762 0.0
C33 C 0.05537 0.18338 0.4771 0.0
Co34 Co 0.78743 0.89409 0.54761 0.0
Co35 Co 0.80081 0.89799 0.34641 0.0
C36 C 0.82063 0.94524 0.45983 0.0
O37 O 0.80949 0.93131 0.52615 0.0
O38 O 0.81904 0.93534 0.38453 0.0
C39 C 0.77946 0.90971 0.71582 0.0
O40 O 0.7837 0.93084 0.67468 0.0
C41 C 0.79917 0.91136 0.16028 0.0
C42 C 0.79976 0.87872 0.09348 0.0
C43 C 0.79713 0.90025 0.07856 0.0
N44 N 0.8019 0.89645 0.2209 0.0
N45 N 0.80268 0.87725 0.18011 0.0
C46 C 0.79776 0.9352 0.18115 0.0
H47 H 0.81619 0.94973 0.21243 0.0
H48 H 0.78192 0.93025 0.22901 0.0
H49 H 0.79442 0.94374 0.12153 0.0
C50 C 0.73335 0.86721 0.47618 0.0
N51 N 0.75942 0.87947 0.46739 0.0
N52 N 0.76527 0.87988 0.38406 0.0
C53 C 0.74305 0.86691 0.33831 0.0
C54 C 0.72223 0.85901 0.39411 0.0
C55 C 0.71962 0.86377 0.56114 0.0
H56 H 0.72649 0.88307 0.59159 0.0
H57 H 0.69825 0.85373 0.55209 0.0
H58 H 0.72468 0.85237 0.60623 0.0
O59 O 0.80841 0.8769 0.53609 0.0
O60 O 0.81899 0.8803 0.39524 0.0
H61 H 0.72122 0.84791 0.22135 0.0
H62 H 0.7488 0.87981 0.20803 0.0
C63 C 0.74142 0.86132 0.24291 0.0
H64 H 0.75358 0.85262 0.22675 0.0
H65 H 0.80431 0.86259 0.21179 0.0
O66 O 0.77753 0.89053 0.67274 0.0
C67 C 0.81985 0.87293 0.47274 0.0
Co68 Co 0.10834 0.89295 0.53657 0.0
Co69 Co 0.10179 0.89707 0.33853 0.0
C70 C 0.05559 0.87173 0.44678 0.0
O71 O 0.07071 0.87659 0.51173 0.0
O72 O 0.06425 0.87828 0.36903 0.0
C73 C 0.10678 0.86996 0.71121 0.0
O74 O 0.10122 0.84734 0.67846 0.0
C75 C 0.09611 0.89189 0.14433 0.0
C76 C 0.13805 0.9123 0.11239 0.0
C77 C 0.11364 0.89764 0.07589 0.0
N78 N 0.10986 0.90193 0.21801 0.0
N79 N 0.13478 0.91466 0.1978 0.0
C80 C 0.06711 0.87672 0.1412 0.0
H81 H 0.05914 0.88731 0.17779 0.0
H82 H 0.06013 0.85779 0.17444 0.0
H83 H 0.05991 0.8734 0.07287 0.0
C84 C 0.1382 0.86709 0.47265 0.0
N85 N 0.12379 0.87876 0.46317 0.0
N86 N 0.11764 0.87791 0.38024 0.0
C87 C 0.12623 0.86408 0.33599 0.0
C88 C 0.14003 0.85737 0.39199 0.0
C89 C 0.15023 0.86541 0.55613 0.0
H90 H 0.15111 0.87982 0.604 0.0
H91 H 0.13855 0.84555 0.58338 0.0
H92 H 0.17007 0.86877 0.54358 0.0
O93 O 0.12536 0.93057 0.52395 0.0
O94 O 0.11893 0.93363 0.38322 0.0
H95 H 0.13499 0.86946 0.19961 0.0
H96 H 0.11827 0.83626 0.23306 0.0
C97 C 0.11957 0.85533 0.24341 0.0
H98 H 0.10062 0.85345 0.22702 0.0
H99 H 0.14968 0.92372 0.24356 0.0
O100 O 0.11052 0.88845 0.66118 0.0
C101 C 0.12755 0.94407 0.45727 0.0
Co102 Co 0.2142 0.10803 0.44219 0.0
Co103 Co 0.20124 0.09933 0.64363 0.0
C104 C 0.1814 0.12662 0.53049 0.0
O105 O 0.19226 0.12341 0.46396 0.0
O106 O 0.18319 0.11863 0.60618 0.0
C107 C 0.22437 0.13247 0.27318 0.0
O108 O 0.22435 0.15189 0.31407 0.0
C109 C 0.20454 0.11294 0.83224 0.0
C110 C 0.19875 0.07673 0.89321 0.0
C111 C 0.2044 0.10178 0.91204 0.0
N112 N 0.19962 0.09537 0.7687 0.0
N113 N 0.19581 0.07368 0.806 0.0
C114 C 0.21059 0.14021 0.8165 0.0
H115 H 0.19299 0.14157 0.83027 0.0
H116 H 0.21644 0.14586 0.74748 0.0
H117 H 0.22619 0.15374 0.86132 0.0
C118 C 0.2684 0.13508 0.51204 0.0
N119 N 0.24237 0.12161 0.52206 0.0
N120 N 0.23682 0.11728 0.60602 0.0
C121 C 0.25922 0.12746 0.65129 0.0
C122 C 0.27982 0.13927 0.59397 0.0
C123 C 0.28186 0.14356 0.42589 0.0
H124 H 0.2756 0.1263 0.38345 0.0
H125 H 0.27595 0.15647 0.3934 0.0
H126 H 0.30329 0.15393 0.43363 0.0
O127 O 0.19339 0.06998 0.45336 0.0
O128 O 0.18304 0.06346 0.5942 0.0
H129 H 0.2477 0.10495 0.7682 0.0
H130 H 0.28122 0.13027 0.76747 0.0
C131 C 0.26128 0.12515 0.74758 0.0
H132 H 0.25633 0.13861 0.78102 0.0
H133 H 0.19213 0.05703 0.77157 0.0
O134 O 0.22369 0.11395 0.31679 0.0
C135 C 0.18201 0.05486 0.51722 0.0
Co136 Co 0.89381 0.10766 0.45134 0.0
Co137 Co 0.89691 0.1007 0.64956 0.0
C138 C 0.87332 0.05475 0.54094 0.0
O139 O 0.87824 0.06998 0.47619 0.0
O140 O 0.87917 0.06326 0.61908 0.0
C141 C 0.8708 0.10659 0.27755 0.0
O142 O 0.84854 0.10178 0.31143 0.0
C143 C 0.89146 0.09558 0.84402 0.0
C144 C 0.91117 0.13763 0.87415 0.0
C145 C 0.897 0.1133 0.91163 0.0
N146 N 0.90125 0.10911 0.7698 0.0
N147 N 0.9135 0.13412 0.78891 0.0
C148 C 0.8767 0.06657 0.84851 0.0
H149 H 0.88735 0.05871 0.8117 0.0
H150 H 0.85758 0.05919 0.8163 0.0
H151 H 0.87378 0.05967 0.91717 0.0
C152 C 0.86789 0.13758 0.51467 0.0
N153 N 0.87893 0.12259 0.52399 0.0
N154 N 0.87721 0.1157 0.60641 0.0
C155 C 0.86323 0.1242 0.6501 0.0
C156 C 0.85752 0.13888 0.59471 0.0
C157 C 0.86809 0.15127 0.43269 0.0
H158 H 0.88263 0.15186 0.38595 0.0
H159 H 0.84852 0.14098 0.40259 0.0
H160 H 0.87251 0.17132 0.44808 0.0
O161 O 0.93133 0.12538 0.46529 0.0
O162 O 0.93367 0.11863 0.60627 0.0
H163 H 0.86704 0.13224 0.78709 0.0
H164 H 0.83427 0.11542 0.74894 0.0
C165 C 0.85356 0.11694 0.74158 0.0
H166 H 0.85177 0.09801 0.75811 0.0
H167 H 0.9223 0.14888 0.74252 0.0
O168 O 0.88928 0.10977 0.32662 0.0
C169 C 0.9445 0.12764 0.53294 0.0
Co170 Co 0.89368 0.78506 0.45235 0.0
Co171 Co 0.90124 0.79633 0.65372 0.0
C172 C 0.94668 0.81727 0.53793 0.0
O173 O 0.93137 0.80686 0.4738 0.0
O174 O 0.93831 0.81504 0.616 0.0
C175 C 0.90937 0.77667 0.28547 0.0
O176 O 0.93038 0.78082 0.32715 0.0
C177 C 0.91165 0.79439 0.84347 0.0
C178 C 0.87717 0.79388 0.90009 0.0
C179 C 0.89898 0.79246 0.92166 0.0
N180 N 0.89769 0.79652 0.77809 0.0
N181 N 0.87729 0.79648 0.81277 0.0
C182 C 0.93597 0.79318 0.83118 0.0
H183 H 0.95293 0.81243 0.84683 0.0
H184 H 0.93773 0.78823 0.76256 0.0
H185 H 0.9362 0.77873 0.87648 0.0
C186 C 0.86196 0.73093 0.51767 0.0
N187 N 0.87846 0.75648 0.52969 0.0
N188 N 0.88381 0.76103 0.6134 0.0
C189 C 0.87213 0.73818 0.65645 0.0
C190 C 0.85744 0.7183 0.59803 0.0
C191 C 0.84936 0.71948 0.43188 0.0
H192 H 0.84457 0.73299 0.39755 0.0
H193 H 0.86324 0.717 0.39021 0.0
H194 H 0.8315 0.70036 0.44069 0.0
O195 O 0.87714 0.80613 0.46623 0.0
O196 O 0.88341 0.81519 0.60806 0.0
H197 H 0.86379 0.74365 0.78661 0.0
H198 H 0.86617 0.71476 0.77183 0.0
C199 C 0.87438 0.73536 0.75232 0.0
H200 H 0.89504 0.74615 0.77155 0.0
H201 H 0.86295 0.79743 0.77641 0.0
O202 O 0.89027 0.77527 0.32759 0.0
C203 C 0.87484 0.81718 0.53383 0.0
Co204 Co 0.7696 0.54884 0.88249 0.0
Co205 Co 0.76792 0.53283 0.68595 0.0
C206 C 0.78864 0.5118 0.81403 0.0
O207 O 0.7835 0.52429 0.87073 0.0
O208 O 0.78531 0.51426 0.73288 0.0
C209 C 0.79266 0.56068 0.0517 0.0
O210 O 0.81278 0.56221 0.01081 0.0
C211 C 0.77736 0.52982 0.49256 0.0
C212 C 0.75385 0.54654 0.44361 0.0
C213 C 0.7709 0.5385 0.41712 0.0
N214 N 0.76513 0.53343 0.56088 0.0
N215 N 0.75086 0.54302 0.53036 0.0
C216 C 0.79539 0.51923 0.50011 0.0
H217 H 0.8136 0.53378 0.53237 0.0
H218 H 0.80005 0.51449 0.43481 0.0
H219 H 0.78643 0.50166 0.54206 0.0
C220 C 0.79357 0.60195 0.79581 0.0
N221 N 0.78398 0.57601 0.79803 0.0
N222 N 0.7859 0.56832 0.71966 0.0
C223 C 0.79853 0.58892 0.66691 0.0
C224 C 0.80129 0.61107 0.7094 0.0
C225 C 0.79841 0.61766 0.87739 0.0
H226 H 0.80501 0.60951 0.93016 0.0
H227 H 0.81332 0.6383 0.86691 0.0
H228 H 0.78 0.61622 0.89988 0.0
O229 O 0.73219 0.52851 0.86473 0.0
O230 O 0.73086 0.51498 0.72836 0.0
H231 H 0.80463 0.58364 0.53204 0.0
H232 H 0.83387 0.6066 0.58961 0.0
C233 C 0.81517 0.58811 0.59465 0.0
H234 H 0.81959 0.57235 0.60717 0.0
H235 H 0.73986 0.54823 0.56972 0.0
O236 O 0.77398 0.55942 0.00743 0.0
C237 C 0.71957 0.51537 0.79874 0.0
Co238 Co 0.44984 0.22613 0.8794 0.0
Co239 Co 0.46375 0.23028 0.68259 0.0
C240 C 0.4826 0.27781 0.78716 0.0
O241 O 0.47102 0.26359 0.85269 0.0
O242 O 0.48194 0.26809 0.71222 0.0
C243 C 0.46122 0.23712 0.04685 0.0
O244 O 0.48325 0.25131 0.00538 0.0
C245 C 0.46775 0.23871 0.49116 0.0
C246 C 0.45945 0.19975 0.44779 0.0
C247 C 0.464 0.22358 0.41766 0.0
N248 N 0.46485 0.22411 0.56185 0.0
N249 N 0.46023 0.20102 0.53539 0.0
C250 C 0.47371 0.26628 0.49479 0.0
H251 H 0.49302 0.27835 0.52547 0.0
H252 H 0.45924 0.26766 0.53685 0.0
H253 H 0.47376 0.27395 0.42866 0.0
C254 C 0.39566 0.1972 0.80822 0.0
N255 N 0.42177 0.21038 0.80048 0.0
N256 N 0.428 0.21345 0.71703 0.0
C257 C 0.40603 0.20283 0.66934 0.0
C258 C 0.38493 0.19203 0.72493 0.0
C259 C 0.38149 0.19046 0.89336 0.0
H260 H 0.38312 0.20832 0.92239 0.0
H261 H 0.36066 0.17586 0.8844 0.0
H262 H 0.39066 0.183 0.93935 0.0
O263 O 0.47061 0.20884 0.87515 0.0
O264 O 0.48198 0.21327 0.73582 0.0
H265 H 0.41127 0.1915 0.542 0.0
H266 H 0.38516 0.19846 0.54879 0.0
C267 C 0.405 0.20439 0.57228 0.0
H268 H 0.41832 0.22468 0.55221 0.0
H269 H 0.4569 0.18585 0.57745 0.0
O270 O 0.44051 0.22367 0.00315 0.0
C271 C 0.48261 0.20554 0.81262 0.0
Co272 Co 0.7744 0.22583 0.88251 0.0
Co273 Co 0.77156 0.23628 0.68186 0.0
C274 C 0.72381 0.21069 0.79502 0.0
O275 O 0.73724 0.21194 0.86107 0.0
O276 O 0.7343 0.21921 0.7205 0.0
C277 C 0.75801 0.20325 0.0514 0.0
O278 O 0.73601 0.18801 0.01156 0.0
C279 C 0.75826 0.22214 0.49521 0.0
C280 C 0.79197 0.25465 0.42998 0.0
C281 C 0.76984 0.23104 0.41408 0.0
N282 N 0.77349 0.23924 0.5566 0.0
N283 N 0.79335 0.25882 0.51676 0.0
C284 C 0.73356 0.19761 0.51466 0.0
H285 H 0.7196 0.20255 0.54472 0.0
H286 H 0.73745 0.18604 0.56287 0.0
H287 H 0.72488 0.18599 0.45461 0.0
C288 C 0.80008 0.19745 0.81102 0.0
N289 N 0.78828 0.21171 0.8022 0.0
N290 N 0.78826 0.21743 0.71901 0.0
C291 C 0.80101 0.20787 0.67335 0.0
C292 C 0.80839 0.19452 0.72912 0.0
C293 C 0.80345 0.1872 0.89609 0.0
H294 H 0.7844 0.17642 0.92965 0.0
H295 H 0.81179 0.17433 0.88651 0.0
H296 H 0.81648 0.20375 0.93866 0.0
O297 O 0.79286 0.26426 0.87186 0.0
O298 O 0.79038 0.27192 0.73085 0.0
H299 H 0.81732 0.23363 0.56494 0.0
H300 H 0.82018 0.20489 0.55689 0.0
C301 C 0.80747 0.21253 0.57859 0.0
H302 H 0.78922 0.20269 0.54175 0.0
H303 H 0.80836 0.27465 0.5492 0.0
O304 O 0.77778 0.21907 0.00725 0.0
C305 C 0.79756 0.27989 0.80861 0.0
Co306 Co 0.88122 0.44254 0.78752 0.0
Co307 Co 0.87244 0.43752 0.98618 0.0
C308 C 0.84748 0.46009 0.88297 0.0
O309 O 0.85833 0.45713 0.81554 0.0
O310 O 0.85066 0.45314 0.95872 0.0
C311 C 0.90249 0.46579 0.61316 0.0
O312 O 0.91988 0.48818 0.64638 0.0
C313 C 0.8726 0.44338 0.17941 0.0
C314 C 0.89555 0.42451 0.21214 0.0
C315 C 0.88488 0.43844 0.24797 0.0
N316 N 0.87678 0.43351 0.10617 0.0
N317 N 0.88992 0.42176 0.12672 0.0
C318 C 0.85789 0.4577 0.18198 0.0
H319 H 0.83936 0.44648 0.1458 0.0
H320 H 0.86929 0.47662 0.14811 0.0
H321 H 0.85388 0.46103 0.25018 0.0
C322 C 0.93751 0.46923 0.84659 0.0
N323 N 0.9115 0.45772 0.85812 0.0
N324 N 0.90678 0.45868 0.94157 0.0
C325 C 0.92949 0.47266 0.98395 0.0
C326 C 0.94959 0.47918 0.9263 0.0
C327 C 0.95063 0.46945 0.76314 0.0
H328 H 0.93658 0.45487 0.71689 0.0
H329 H 0.95946 0.48909 0.73359 0.0
H330 H 0.96658 0.46534 0.7764 0.0
O331 O 0.86229 0.40477 0.79976 0.0
O332 O 0.85531 0.40096 0.94228 0.0
H333 H 0.93444 0.4674 0.11921 0.0
H334 H 0.9501 0.50057 0.08519 0.0
C335 C 0.93235 0.48133 0.07683 0.0
H336 H 0.91526 0.48284 0.09634 0.0
H337 H 0.89623 0.41303 0.08125 0.0
O338 O 0.88735 0.44735 0.66272 0.0
C339 C 0.85287 0.39083 0.86722 0.0
Co340 Co 0.55532 0.4391 0.78092 0.0
Co341 Co 0.56449 0.43416 0.98169 0.0
C342 C 0.5373 0.38747 0.86564 0.0
O343 O 0.54012 0.40171 0.80009 0.0
O344 O 0.5454 0.39695 0.94162 0.0
C345 C 0.53105 0.42552 0.61148 0.0
O346 O 0.5113 0.4063 0.65186 0.0
C347 C 0.55073 0.42391 0.1705 0.0
C348 C 0.58767 0.45282 0.23165 0.0
C349 C 0.56221 0.4345 0.25046 0.0
N350 N 0.56852 0.43585 0.10696 0.0
N351 N 0.59064 0.4528 0.14441 0.0
C352 C 0.52303 0.40382 0.15459 0.0
H353 H 0.51768 0.40427 0.0854 0.0
H354 H 0.51006 0.40693 0.199 0.0
H355 H 0.52043 0.38437 0.1689 0.0
C356 C 0.52816 0.46586 0.85496 0.0
N357 N 0.54173 0.45332 0.86289 0.0
N358 N 0.54656 0.45207 0.94636 0.0
C359 C 0.53682 0.46447 0.99322 0.0
C360 C 0.52455 0.47317 0.93771 0.0
C361 C 0.5192 0.4709 0.76991 0.0
H362 H 0.53633 0.48292 0.72802 0.0
H363 H 0.50706 0.4522 0.73559 0.0
H364 H 0.50794 0.481 0.77961 0.0
O365 O 0.59344 0.45625 0.79165 0.0
O366 O 0.60025 0.452 0.93182 0.0
H367 H 0.53695 0.48557 0.10852 0.0
H368 H 0.52639 0.45191 0.12466 0.0
C369 C 0.54044 0.4696 0.08899 0.0
H370 H 0.56052 0.47503 0.10732 0.0
H371 H 0.60756 0.46514 0.11007 0.0
O372 O 0.54957 0.44316 0.65572 0.0
C373 C 0.6087 0.45978 0.85485 0.0
Co374 Co 0.55961 0.12064 0.78009 0.0
Co375 Co 0.56871 0.13296 0.97984 0.0
C376 C 0.61292 0.15874 0.85733 0.0
O377 O 0.59693 0.14638 0.7965 0.0
O378 O 0.60532 0.15438 0.93675 0.0
C379 C 0.57429 0.11228 0.61345 0.0
O380 O 0.59458 0.11475 0.65577 0.0
C381 C 0.58116 0.13263 0.16934 0.0
C382 C 0.54511 0.12825 0.22734 0.0
C383 C 0.56812 0.12908 0.24801 0.0
N384 N 0.56606 0.13312 0.10462 0.0
N385 N 0.54473 0.1308 0.14021 0.0
C386 C 0.60721 0.13515 0.15587 0.0
H387 H 0.62236 0.1558 0.16454 0.0
H388 H 0.60884 0.1291 0.08864 0.0
H389 H 0.61069 0.12346 0.20479 0.0
C390 C 0.53472 0.0662 0.84657 0.0
N391 N 0.54817 0.09223 0.85724 0.0
N392 N 0.55302 0.09762 0.94089 0.0
C393 C 0.54328 0.07513 0.98541 0.0
C394 C 0.53124 0.05457 0.92796 0.0
C395 C 0.52494 0.05297 0.76061 0.0
H396 H 0.54174 0.0568 0.71874 0.0
H397 H 0.51218 0.03169 0.76885 0.0
H398 H 0.51421 0.06127 0.72704 0.0
O399 O 0.53996 0.13856 0.79822 0.0
O400 O 0.54818 0.14929 0.93825 0.0
H401 H 0.53816 0.05267 0.10261 0.0
H402 H 0.56663 0.08445 0.09801 0.0
C403 C 0.54577 0.07305 0.08134 0.0
H404 H 0.53499 0.08107 0.11614 0.0
H405 H 0.52947 0.13016 0.10457 0.0
O406 O 0.55527 0.11092 0.6557 0.0
C407 C 0.53788 0.14977 0.86582 0.0
Co408 Co 0.44506 0.88368 0.21044 0.0
Co409 Co 0.43597 0.87038 0.00924 0.0
C410 C 0.46334 0.85061 0.12304 0.0
O411 O 0.46044 0.86168 0.18951 0.0
O412 O 0.45526 0.85231 0.04743 0.0
C413 C 0.46946 0.89428 0.37976 0.0
O414 O 0.48912 0.89466 0.33916 0.0
C415 C 0.44979 0.87403 0.82076 0.0
C416 C 0.41319 0.86691 0.75938 0.0
C417 C 0.4385 0.87345 0.7408 0.0
N418 N 0.43203 0.86851 0.88412 0.0
N419 N 0.41011 0.86391 0.84658 0.0
C420 C 0.47732 0.88103 0.83684 0.0
H421 H 0.48271 0.88678 0.90606 0.0
H422 H 0.49055 0.89698 0.79253 0.0
H423 H 0.47947 0.8639 0.82253 0.0
C424 C 0.47231 0.93785 0.13899 0.0
N425 N 0.45858 0.91178 0.12978 0.0
N426 N 0.45385 0.90605 0.04605 0.0
C427 C 0.46387 0.92838 0.00025 0.0
C428 C 0.47615 0.94911 0.05682 0.0
C429 C 0.48142 0.9515 0.2246 0.0
H430 H 0.46435 0.94629 0.26692 0.0
H431 H 0.49353 0.94472 0.25779 0.0
H432 H 0.49275 0.97289 0.21595 0.0
O433 O 0.40696 0.86259 0.19969 0.0
O434 O 0.40017 0.8522 0.0589 0.0
H435 H 0.44073 0.91606 0.88471 0.0
H436 H 0.46489 0.95 0.88531 0.0
C437 C 0.46082 0.9303 0.90432 0.0
H438 H 0.47474 0.92631 0.86932 0.0
H439 H 0.39326 0.85966 0.88083 0.0
O440 O 0.45086 0.8933 0.33579 0.0
C441 C 0.39174 0.85113 0.13615 0.0
Co442 Co 0.12066 0.56113 0.20516 0.0
Co443 Co 0.13393 0.56631 0.00375 0.0
C444 C 0.15444 0.61283 0.12044 0.0
O445 O 0.14333 0.59845 0.18601 0.0
O446 O 0.15243 0.60354 0.04374 0.0
C447 C 0.11003 0.57512 0.37378 0.0
O448 O 0.10954 0.59422 0.33241 0.0
C449 C 0.13031 0.57669 0.81523 0.0
C450 C 0.13721 0.54703 0.75375 0.0
C451 C 0.13081 0.5659 0.73523 0.0
N452 N 0.13576 0.5644 0.87854 0.0
N453 N 0.14023 0.54698 0.84091 0.0
C454 C 0.12343 0.59732 0.8314 0.0
H455 H 0.11791 0.59715 0.90082 0.0
H456 H 0.10737 0.59454 0.78762 0.0
H457 H 0.14054 0.61653 0.81637 0.0
C458 C 0.06656 0.53544 0.13409 0.0
N459 N 0.0926 0.54751 0.12465 0.0
N460 N 0.09828 0.54877 0.04078 0.0
C461 C 0.07593 0.53684 0.99508 0.0
C462 C 0.05526 0.52844 0.05191 0.0
C463 C 0.05298 0.53067 0.21995 0.0
H464 H 0.0598 0.54948 0.25391 0.0
H465 H 0.03159 0.52068 0.21156 0.0
H466 H 0.05819 0.51866 0.26143 0.0
O467 O 0.14089 0.54326 0.19224 0.0
O468 O 0.15172 0.54815 0.05163 0.0
H469 H 0.05417 0.51636 0.88028 0.0
H470 H 0.07792 0.54989 0.86439 0.0
C471 C 0.0739 0.53193 0.8991 0.0
H472 H 0.08807 0.52601 0.87907 0.0
H473 H 0.14438 0.53431 0.87508 0.0
O474 O 0.11108 0.5574 0.33052 0.0
C475 C 0.15235 0.53988 0.12776 0.0
Co476 Co 0.44229 0.5616 0.22233 0.0
Co477 Co 0.43563 0.56754 0.02247 0.0
C478 C 0.39017 0.54822 0.13988 0.0
O479 O 0.40525 0.55048 0.20233 0.0
O480 O 0.39883 0.55255 0.06184 0.0
C481 C 0.42584 0.53933 0.38999 0.0
O482 O 0.40417 0.52351 0.34936 0.0
C483 C 0.42357 0.55553 0.83316 0.0
C484 C 0.45943 0.58742 0.77511 0.0
C485 C 0.43644 0.56519 0.7544 0.0
N486 N 0.43871 0.57106 0.89793 0.0
N487 N 0.45994 0.59021 0.8624 0.0
C488 C 0.3976 0.53189 0.84668 0.0
H489 H 0.3962 0.52398 0.91339 0.0
H490 H 0.39401 0.51689 0.79687 0.0
H491 H 0.38237 0.53735 0.83966 0.0
C492 C 0.46718 0.53213 0.15465 0.0
N493 N 0.45434 0.54534 0.1444 0.0
N494 N 0.45059 0.54712 0.06054 0.0
C495 C 0.46049 0.53461 0.01539 0.0
C496 C 0.47143 0.52489 0.07266 0.0
C497 C 0.47558 0.52713 0.24091 0.0
H498 H 0.48698 0.54577 0.27637 0.0
H499 H 0.45814 0.51462 0.2809 0.0
H500 H 0.48735 0.5175 0.23284 0.0
O501 O 0.46234 0.59941 0.20903 0.0
O502 O 0.45594 0.60388 0.06868 0.0
H503 H 0.46969 0.55037 0.88679 0.0
H504 H 0.46705 0.51893 0.8965 0.0
C505 C 0.45893 0.53117 0.91899 0.0
H506 H 0.43819 0.52154 0.90063 0.0
H507 H 0.47519 0.60482 0.89812 0.0
O508 O 0.44568 0.55519 0.34647 0.0
C509 C 0.46538 0.6136 0.14314 0.0
Co510 Co 0.55072 0.7756 0.11238 0.0
Co511 Co 0.5406 0.77224 0.31065 0.0
C512 C 0.51852 0.79626 0.20288 0.0
O513 O 0.52869 0.79129 0.13773 0.0
O514 O 0.52117 0.79027 0.28081 0.0
C515 C 0.57284 0.79855 0.93829 0.0
O516 O 0.59058 0.82072 0.97179 0.0
C517 C 0.54087 0.77769 0.50508 0.0
C518 C 0.56291 0.75768 0.53536 0.0
C519 C 0.55294 0.77205 0.57273 0.0
N520 N 0.54453 0.76779 0.43092 0.0
N521 N 0.55711 0.75536 0.45012 0.0
C522 C 0.52683 0.79265 0.50945 0.0
H523 H 0.50827 0.78205 0.47298 0.0
H524 H 0.53865 0.81171 0.47683 0.0
H525 H 0.52295 0.79573 0.5781 0.0
C526 C 0.6065 0.80114 0.1759 0.0
N527 N 0.58048 0.79029 0.18507 0.0
N528 N 0.57528 0.79193 0.26755 0.0
C529 C 0.59772 0.80571 0.3114 0.0
C530 C 0.61811 0.81132 0.25611 0.0
C531 C 0.61999 0.80085 0.09397 0.0
H532 H 0.60602 0.78644 0.04707 0.0
H533 H 0.62948 0.82046 0.06405 0.0
H534 H 0.63546 0.79621 0.1094 0.0
O535 O 0.53102 0.73806 0.12577 0.0
O536 O 0.5219 0.73549 0.26683 0.0
H537 H 0.60174 0.8017 0.44836 0.0
H538 H 0.61796 0.83452 0.41055 0.0
C539 C 0.60011 0.81531 0.40296 0.0
H540 H 0.58305 0.81726 0.41935 0.0
H541 H 0.56297 0.74644 0.40379 0.0
O542 O 0.55737 0.78022 0.98766 0.0
C543 C 0.52019 0.72478 0.19331 0.0
Co544 Co 0.22988 0.77448 0.11812 0.0
Co545 Co 0.23404 0.76809 0.31619 0.0
C546 C 0.20957 0.72182 0.20798 0.0
O547 O 0.21427 0.73688 0.14293 0.0
O548 O 0.21585 0.73053 0.28577 0.0
C549 C 0.20664 0.77254 0.9437 0.0
O550 O 0.18398 0.76668 0.97673 0.0
C551 C 0.22881 0.7624 0.51048 0.0
C552 C 0.24853 0.80434 0.54217 0.0
C553 C 0.23424 0.7799 0.5788 0.0
N554 N 0.23868 0.77618 0.43673 0.0
N555 N 0.25099 0.80113 0.4568 0.0
C556 C 0.21407 0.73338 0.51379 0.0
H557 H 0.2249 0.72568 0.47721 0.0
H558 H 0.19508 0.72607 0.48066 0.0
H559 H 0.21088 0.72622 0.58217 0.0
C560 C 0.2031 0.80351 0.18184 0.0
N561 N 0.21509 0.7894 0.19139 0.0
N562 N 0.21427 0.78324 0.2743 0.0
C563 C 0.20012 0.79147 0.31844 0.0
C564 C 0.19318 0.80509 0.26242 0.0
C565 C 0.20142 0.81561 0.09851 0.0
H566 H 0.21596 0.81671 0.05079 0.0
H567 H 0.18163 0.80384 0.07092 0.0
H568 H 0.20459 0.83537 0.11135 0.0
O569 O 0.26748 0.79234 0.13088 0.0
O570 O 0.27069 0.78611 0.27169 0.0
H571 H 0.20526 0.80026 0.45482 0.0
H572 H 0.17211 0.783 0.42111 0.0
C573 C 0.19136 0.7847 0.41098 0.0
H574 H 0.18985 0.76591 0.4275 0.0
H575 H 0.25984 0.81604 0.41094 0.0
O576 O 0.22526 0.77652 0.99351 0.0
C577 C 0.28108 0.79489 0.19763 0.0
Co578 Co 0.22899 0.45215 0.12369 0.0
Co579 Co 0.23237 0.46604 0.32433 0.0
C580 C 0.27978 0.48783 0.20848 0.0
O581 O 0.2663 0.47452 0.14388 0.0
O582 O 0.26931 0.4868 0.28245 0.0
C583 C 0.24299 0.4421 0.95358 0.0
O584 O 0.26248 0.44201 0.99352 0.0
C585 C 0.24313 0.46278 0.51284 0.0
C586 C 0.21387 0.47011 0.57506 0.0
C587 C 0.23263 0.46353 0.59316 0.0
N588 N 0.23079 0.46824 0.44976 0.0
N589 N 0.2136 0.47298 0.48785 0.0
C590 C 0.26355 0.45565 0.49618 0.0
H591 H 0.26225 0.44875 0.42797 0.0
H592 H 0.26158 0.44051 0.54298 0.0
H593 H 0.28293 0.47308 0.506 0.0
C594 C 0.20233 0.39829 0.19581 0.0
N595 N 0.21488 0.42435 0.20479 0.0
N596 N 0.21591 0.43023 0.2884 0.0
C597 C 0.20346 0.40796 0.33449 0.0
C598 C 0.19482 0.38714 0.27805 0.0
C599 C 0.19717 0.38456 0.1101 0.0
H600 H 0.18535 0.39004 0.06875 0.0
H601 H 0.21585 0.39102 0.07577 0.0
H602 H 0.18684 0.36316 0.11881 0.0
O603 O 0.21144 0.47292 0.13442 0.0
O604 O 0.21307 0.48237 0.27561 0.0
H605 H 0.19218 0.42047 0.44871 0.0
H606 H 0.18263 0.38658 0.44977 0.0
C607 C 0.19818 0.40624 0.43026 0.0
H608 H 0.21601 0.41044 0.46607 0.0
H609 H 0.20095 0.47722 0.454 0.0
O610 O 0.22517 0.44253 -0.00177 0.0
C611 C 0.20639 0.4836 0.1976 0.0
C612 C 0.13997 0.12834 0.53206 0.0
C613 C 0.16717 0.1409 0.51784 0.0
C614 C 0.16651 0.17845 0.45414 0.0
C615 C 0.13979 0.16683 0.47498 0.0
N616 N 0.10142 0.13235 0.54301 0.0
N617 N 0.20725 0.17963 0.48067 0.0
C618 C 0.12663 0.14226 0.51694 0.0
C619 C 0.18069 0.16642 0.48276 0.0
N620 N 0.12669 0.10275 0.55583 0.0
N621 N 0.17833 0.20098 0.40688 0.0
H622 H 0.21837 0.17177 0.50363 0.0
H623 H 0.21838 0.19917 0.46418 0.0
H624 H 0.16879 0.21083 0.38735 0.0
H625 H 0.19696 0.20884 0.38111 0.0
H626 H 0.10652 0.09169 0.55757 0.0
H627 H 0.13572 0.09186 0.56737 0.0
H628 H 0.09176 0.11617 0.58334 0.0
H629 H 0.09053 0.14121 0.52852 0.0
C630 C 0.83538 0.01477 0.47974 0.0
C631 C 0.85982 0.02648 0.52274 0.0
C632 C 0.859 0.98482 0.52158 0.0
C633 C 0.83553 0.97369 0.47293 0.0
N634 N 0.80312 0.97859 0.39452 0.0
N635 N 0.89714 0.02409 0.57134 0.0
C636 C 0.82436 0.9889 0.44807 0.0
C637 C 0.87224 0.01189 0.54046 0.0
N638 N 0.82209 0.02798 0.47315 0.0
N639 N 0.86851 0.96944 0.5505 0.0
H640 H 0.90755 0.04389 0.58558 0.0
H641 H 0.90829 0.01512 0.57627 0.0
H642 H 0.8604 0.94994 0.53306 0.0
H643 H 0.88355 0.97559 0.59562 0.0
H644 H 0.80308 0.01966 0.45069 0.0
H645 H 0.82913 0.04666 0.49802 0.0
H646 H 0.79583 0.98953 0.36605 0.0
H647 H 0.79391 0.95941 0.37271 0.0
C648 C 0.99046 0.82086 0.53823 0.0
C649 C 0.97487 0.83207 0.51897 0.0
C650 C 0.01226 0.86955 0.45085 0.0
C651 C 0.0273 0.8574 0.46441 0.0
N652 N 0.02977 0.81961 0.50624 0.0
N653 N 0.96957 0.86533 0.44774 0.0
C654 C 0.01614 0.83254 0.50433 0.0
C655 C 0.98537 0.85587 0.4722 0.0
N656 N 0.98071 0.79901 0.58881 0.0
N657 N 0.02394 0.89466 0.42188 0.0
H658 H 0.95024 0.85689 0.46733 0.0
H659 H 0.97516 0.88064 0.40406 0.0
H660 H 0.04356 0.90534 0.40542 0.0
H661 H 0.01473 0.90563 0.42039 0.0
H662 H 0.992 0.79163 0.61364 0.0
H663 H 0.96164 0.78921 0.61161 0.0
H664 H 0.02189 0.8004 0.52626 0.0
H665 H 0.04836 0.82725 0.47988 0.0
C666 C 0.82074 0.83332 0.52409 0.0
C667 C 0.83422 0.859 0.49024 0.0
C668 C 0.87462 0.85738 0.48599 0.0
C669 C 0.86147 0.8324 0.52501 0.0
N670 N 0.82331 0.79811 0.59442 0.0
N671 N 0.87474 0.89742 0.45465 0.0
C672 C 0.83494 0.82091 0.54861 0.0
C673 C 0.86139 0.87159 0.4753 0.0
N674 N 0.79421 0.82027 0.5284 0.0
N675 N 0.89966 0.86739 0.4581 0.0
H676 H 0.8658 0.90858 0.4474 0.0
H677 H 0.89491 0.90839 0.45215 0.0
H678 H 0.91039 0.85816 0.46893 0.0
H679 H 0.90929 0.884 0.41967 0.0
H680 H 0.7831 0.80062 0.54349 0.0
H681 H 0.78302 0.82842 0.50909 0.0
H682 H 0.80489 0.79024 0.622 0.0
H683 H 0.83286 0.78802 0.61103 0.0
C684 C 0.14057 0.01182 0.5152 0.0
C685 C 0.16779 0.02648 0.50117 0.0
C686 C 0.16751 0.98767 0.44491 0.0
C687 C 0.14085 0.97261 0.4668 0.0
N688 N 0.10222 0.96927 0.53058 0.0
N689 N 0.20805 0.02787 0.46622 0.0
C690 C 0.12744 0.98438 0.50434 0.0
C691 C 0.18151 0.0143 0.46915 0.0
N692 N 0.12712 0.02426 0.53515 0.0
N693 N 0.17944 0.97649 0.40074 0.0
H694 H 0.21909 0.04725 0.48534 0.0
H695 H 0.21931 0.01939 0.45253 0.0
H696 H 0.17002 0.95683 0.38437 0.0
H697 H 0.198 0.98703 0.37425 0.0
H698 H 0.10694 0.01504 0.53696 0.0
H699 H 0.13601 0.04434 0.54288 0.0
H700 H 0.09232 0.9762 0.56788 0.0
H701 H 0.09156 0.94929 0.51952 0.0
C702 C 0.98528 0.12814 0.48873 0.0
C703 C 0.97308 0.14126 0.52523 0.0
C704 C 0.01447 0.18225 0.52458 0.0
C705 C 0.02701 0.16885 0.49301 0.0
N706 N 0.02556 0.12847 0.45992 0.0
N707 N 0.97612 0.17953 0.59095 0.0
C708 C 0.01275 0.14161 0.47894 0.0
C709 C 0.98774 0.16793 0.54757 0.0
N710 N 0.97055 0.10288 0.46236 0.0
N711 N 0.02779 0.20879 0.52833 0.0
H712 H 0.95639 0.16984 0.60644 0.0
H713 H 0.98631 0.19809 0.61766 0.0
H714 H 0.04725 0.22003 0.51049 0.0
H715 H 0.01907 0.21985 0.54169 0.0
H716 H 0.97782 0.09318 0.42565 0.0
H717 H 0.95055 0.09197 0.47272 0.0
H718 H 0.01661 0.10831 0.45819 0.0
H719 H 0.04568 0.13762 0.45297 0.0
C720 C 0.8336 0.49232 0.92359 0.0
C721 C 0.83018 0.47121 0.87139 0.0
C722 C 0.79539 0.47305 0.7904 0.0
C723 C 0.79921 0.49454 0.84274 0.0
N724 N 0.81112 0.51196 0.98979 0.0
N725 N 0.80277 0.43662 0.77258 0.0
C726 C 0.8151 0.5006 0.9186 0.0
C727 C 0.80965 0.46018 0.80936 0.0
N728 N 0.85474 0.50499 0.97685 0.0
N729 N 0.77728 0.46411 0.72526 0.0
H730 H 0.81184 0.42601 0.7882 0.0
H731 H 0.7865 0.4263 0.73319 0.0
H732 H 0.76271 0.46895 0.72113 0.0
H733 H 0.77656 0.4517 0.67592 0.0
H734 H 0.85902 0.52203 0.00987 0.0
H735 H 0.86932 0.50016 0.98097 0.0
H736 H 0.82168 0.51552 0.0475 0.0
H737 H 0.79425 0.51282 -0.00193 0.0
C738 C 0.52428 0.3207 0.79368 0.0
C739 C 0.49681 0.3063 0.80095 0.0
C740 C 0.49677 0.3442 0.86468 0.0
C741 C 0.52392 0.35911 0.85101 0.0
N742 N 0.56336 0.36302 0.79229 0.0
N743 N 0.45638 0.30529 0.82822 0.0
C744 C 0.53763 0.34779 0.81228 0.0
C745 C 0.48291 0.31833 0.83246 0.0
N746 N 0.53771 0.30828 0.77328 0.0
N747 N 0.48428 0.35475 0.90903 0.0
H748 H 0.44561 0.28655 0.80282 0.0
H749 H 0.44515 0.31379 0.84191 0.0
H750 H 0.49378 0.37383 0.93199 0.0
H751 H 0.46503 0.34407 0.92935 0.0
H752 H 0.55784 0.3171 0.77688 0.0
H753 H 0.5287 0.28851 0.75905 0.0
H754 H 0.57366 0.35667 0.75445 0.0
H755 H 0.57411 0.38263 0.80913 0.0
C756 C 0.67761 0.18158 0.74736 0.0
C757 C 0.69542 0.19988 0.80726 0.0
C758 C 0.65877 0.19549 0.89576 0.0
C759 C 0.64109 0.17705 0.83455 0.0
N760 N 0.6367 0.168 0.67872 0.0
N761 N 0.70277 0.23027 0.92367 0.0
C762 C 0.65122 0.17454 0.75305 0.0
C763 C 0.68599 0.20854 0.87775 0.0
N764 N 0.68546 0.17021 0.68628 0.0
N765 N 0.6497 0.20165 0.96857 0.0
H766 H 0.72245 0.24139 0.90856 0.0
H767 H 0.6969 0.23894 0.97067 0.0
H768 H 0.63059 0.19763 0.97452 0.0
H769 H 0.66134 0.21125 0.02224 0.0
H770 H 0.67235 0.15536 0.64548 0.0
H771 H 0.70435 0.17343 0.68339 0.0
H772 H 0.64413 0.1672 0.61773 0.0
H773 H 0.61943 0.16836 0.67519 0.0
C774 C 0.52155 0.2042 0.8679 0.0
C775 C 0.49658 0.19126 0.82902 0.0
C776 C 0.49714 0.15034 0.82961 0.0
C777 C 0.52328 0.16387 0.85881 0.0
N778 N 0.56188 0.20447 0.89344 0.0
N779 N 0.46129 0.15279 0.76441 0.0
C780 C 0.53588 0.191 0.87546 0.0
C781 C 0.48458 0.16454 0.80723 0.0
N782 N 0.53154 0.22906 0.89776 0.0
N783 N 0.48396 0.12379 0.82689 0.0
H784 H 0.45093 0.16223 0.75012 0.0
H785 H 0.45306 0.13424 0.7376 0.0
H786 H 0.49229 0.11268 0.84526 0.0
H787 H 0.46413 0.11267 0.81473 0.0
H788 H 0.54826 0.23845 0.93577 0.0
H789 H 0.52207 0.23971 0.89015 0.0
H790 H 0.57269 0.22465 0.89652 0.0
H791 H 0.57328 0.19573 0.89787 0.0
C792 C 0.79912 0.31986 0.86905 0.0
C793 C 0.81186 0.30815 0.82617 0.0
C794 C 0.85236 0.35005 0.82257 0.0
C795 C 0.83896 0.36221 0.85739 0.0
N796 N 0.79881 0.3596 0.90209 0.0
N797 N 0.8497 0.312 0.75397 0.0
C798 C 0.81215 0.34735 0.87824 0.0
C799 C 0.83821 0.32325 0.8003 0.0
N800 N 0.77453 0.30471 0.90093 0.0
N801 N 0.8788 0.3639 0.8144 0.0
H802 H 0.84045 0.29217 0.74038 0.0
H803 H 0.86777 0.32253 0.72404 0.0
H804 H 0.88989 0.38342 0.83183 0.0
H805 H 0.89004 0.35559 0.79806 0.0
H806 H 0.76539 0.31169 0.94187 0.0
H807 H 0.76379 0.28468 0.89139 0.0
H808 H 0.7787 0.35013 0.90845 0.0
H809 H 0.80753 0.3797 0.90858 0.0
C810 C 0.65142 0.46074 0.85164 0.0
C811 C 0.63704 0.47362 0.83797 0.0
C812 C 0.67619 0.51195 0.78271 0.0
C813 C 0.69098 0.50013 0.80529 0.0
N814 N 0.69374 0.46456 0.86922 0.0
N815 N 0.63619 0.51278 0.80292 0.0
C816 C 0.67888 0.47485 0.84196 0.0
C817 C 0.64951 0.49954 0.80624 0.0
N818 N 0.63872 0.43478 0.87035 0.0
N819 N 0.68767 0.53498 0.73826 0.0
H820 H 0.61679 0.50461 0.82147 0.0
H821 H 0.64491 0.53254 0.78936 0.0
H822 H 0.7073 0.5448 0.72137 0.0
H823 H 0.67737 0.54326 0.71168 0.0
H824 H 0.6478 0.42368 0.87187 0.0
H825 H 0.6186 0.42371 0.87701 0.0
H826 H 0.68649 0.44762 0.90604 0.0
H827 H 0.71378 0.47385 0.85975 0.0
C828 C 0.46315 0.8097 0.16223 0.0
C829 C 0.47726 0.83608 0.13574 0.0
C830 C 0.51837 0.83638 0.1544 0.0
C831 C 0.50435 0.8104 0.18568 0.0
N832 N 0.46392 0.77268 0.22634 0.0
N833 N 0.51786 0.87559 0.11338 0.0
C834 C 0.47685 0.79717 0.19184 0.0
C835 C 0.50477 0.84968 0.13325 0.0
N836 N 0.43664 0.79659 0.15716 0.0
N837 N 0.54473 0.84826 0.14443 0.0
H838 H 0.50855 0.88565 0.09344 0.0
H839 H 0.5378 0.88757 0.12067 0.0
H840 H 0.55571 0.84009 0.16595 0.0
H841 H 0.55576 0.86572 0.11148 0.0
H842 H 0.42499 0.77674 0.16763 0.0
H843 H 0.42613 0.80533 0.13615 0.0
H844 H 0.44422 0.76284 0.2413 0.0
H845 H 0.47319 0.7625 0.2451 0.0
C846 C 0.16897 0.68182 0.16153 0.0
C847 C 0.19513 0.69351 0.19069 0.0
C848 C 0.1956 0.65316 0.16067 0.0
C849 C 0.16912 0.64117 0.13566 0.0
N850 N 0.1295 0.64247 0.11992 0.0
N851 N 0.23294 0.6904 0.22603 0.0
C852 C 0.15553 0.6551 0.13787 0.0
C853 C 0.20832 0.67915 0.19285 0.0
N854 N 0.1571 0.69642 0.1557 0.0
N855 N 0.2086 0.63972 0.15188 0.0
H856 H 0.2431 0.70963 0.24729 0.0
H857 H 0.24288 0.68045 0.23768 0.0
H858 H 0.19973 0.62065 0.12897 0.0
H859 H 0.22848 0.64778 0.16128 0.0
H860 H 0.13945 0.69026 0.12438 0.0
H861 H 0.16544 0.7154 0.17912 0.0
H862 H 0.1176 0.65039 0.13068 0.0
H863 H 0.1193 0.62329 0.09808 0.0
C864 C 0.35249 0.53009 0.24614 0.0
C865 C 0.36186 0.53855 0.15991 0.0
C866 C 0.31637 0.52119 0.11535 0.0
C867 C 0.30796 0.50627 0.1938 0.0
N868 N 0.32008 0.49447 0.33006 0.0
N869 N 0.35124 0.5464 0.01411 0.0
C870 C 0.32657 0.51012 0.25831 0.0
C871 C 0.34338 0.53523 0.09447 0.0
N872 N 0.36737 0.54256 0.31709 0.0
N873 N 0.29889 0.52371 0.06429 0.0
H874 H 0.36966 0.56208 0.00205 0.0
H875 H 0.33892 0.54057 0.9601 0.0
H876 H 0.27944 0.51599 0.08143 0.0
H877 H 0.30416 0.53605 0.0105 0.0
H878 H 0.36054 0.5376 0.38101 0.0
H879 H 0.38446 0.56036 0.31142 0.0
H880 H 0.33394 0.49603 0.37517 0.0
H881 H 0.30177 0.47826 0.33899 0.0
C882 C 0.19128 0.53866 0.18379 0.0
C883 C 0.16667 0.52582 0.14228 0.0
C884 C 0.16725 0.48488 0.14334 0.0
C885 C 0.19265 0.49811 0.17922 0.0
N886 N 0.23086 0.53834 0.21899 0.0
N887 N 0.13259 0.48793 0.07094 0.0
C888 C 0.20522 0.52522 0.19581 0.0
C889 C 0.15512 0.4993 0.11816 0.0
N890 N 0.20124 0.56367 0.21232 0.0
N891 N 0.15422 0.45838 0.13735 0.0
H892 H 0.12258 0.49756 0.05426 0.0
H893 H 0.12477 0.46959 0.04275 0.0
H894 H 0.16225 0.44708 0.15655 0.0
H895 H 0.13468 0.44735 0.12069 0.0
H896 H 0.21752 0.57304 0.25231 0.0
H897 H 0.19227 0.57462 0.20065 0.0
H898 H 0.2419 0.55849 0.22276 0.0
H899 H 0.24188 0.52928 0.22715 0.0
C900 C 0.51821 0.68189 0.20414 0.0
C901 C 0.50559 0.6962 0.18539 0.0
C902 C 0.46601 0.65613 0.14411 0.0
C903 C 0.47942 0.64215 0.15503 0.0
N904 N 0.51924 0.64198 0.18278 0.0
N905 N 0.46878 0.69804 0.12841 0.0
C906 C 0.50578 0.65508 0.18205 0.0
C907 C 0.47986 0.68363 0.15256 0.0
N908 N 0.54202 0.69392 0.24363 0.0
N909 N 0.4398 0.64303 0.12985 0.0
H910 H 0.47783 0.71809 0.13766 0.0
H911 H 0.45136 0.69044 0.0942 0.0
H912 H 0.42885 0.62287 0.12424 0.0
H913 H 0.42845 0.65185 0.13097 0.0
H914 H 0.55102 0.68403 0.26772 0.0
H915 H 0.552 0.71368 0.25861 0.0
H916 H 0.53918 0.6509 0.19291 0.0
H917 H 0.5109 0.62244 0.16558 0.0
C918 C 0.34994 0.8091 0.15493 0.0
C919 C 0.36342 0.83667 0.15293 0.0
C920 C 0.32294 0.83678 0.18337 0.0
C921 C 0.30966 0.80927 0.18849 0.0
N922 N 0.31023 0.76907 0.19045 0.0
N923 N 0.36405 0.87718 0.17405 0.0
C924 C 0.32312 0.79537 0.17772 0.0
C925 C 0.35028 0.85064 0.16998 0.0
N926 N 0.36277 0.7961 0.13386 0.0
N927 N 0.30922 0.84958 0.18934 0.0
H928 H 0.38378 0.88811 0.15932 0.0
H929 H 0.35639 0.88849 0.19641 0.0
H930 H 0.28944 0.84024 0.20395 0.0
H931 H 0.31695 0.86921 0.17563 0.0
H932 H 0.35368 0.77612 0.12459 0.0
H933 H 0.38261 0.80549 0.12054 0.0
H934 H 0.31925 0.75794 0.19245 0.0
H935 H 0.29047 0.75839 0.205 0.0
C936 C 0.1817 0.32184 0.36519 0.0
C937 C 0.15444 0.30912 0.37797 0.0
C938 C 0.15336 0.34716 0.3208 0.0
C939 C 0.1804 0.35929 0.30358 0.0
N940 N 0.22007 0.35778 0.29948 0.0
N941 N 0.11365 0.30814 0.36298 0.0
C942 C 0.1945 0.34648 0.32299 0.0
C943 C 0.14009 0.32142 0.35466 0.0
N944 N 0.19532 0.31041 0.3946 0.0
N945 N 0.14058 0.36061 0.30675 0.0
H946 H 0.10347 0.28991 0.39242 0.0
H947 H 0.10158 0.31448 0.33739 0.0
H948 H 0.14935 0.3789 0.27745 0.0
H949 H 0.12172 0.35436 0.32763 0.0
H950 H 0.21547 0.31957 0.39561 0.0
H951 H 0.18648 0.2922 0.42431 0.0
H952 H 0.23099 0.34856 0.30348 0.0
H953 H 0.23009 0.37594 0.26957 0.0
C954 C 0.65349 0.8075 0.33127 0.0
C955 C 0.64563 0.82296 0.28384 0.0
C956 C 0.68607 0.8623 0.32381 0.0
C957 C 0.69464 0.84672 0.36646 0.0
N958 N 0.68836 0.80459 0.40293 0.0
N959 N 0.6552 0.86429 0.22476 0.0
C960 C 0.6788 0.81933 0.36837 0.0
C961 C 0.66223 0.85016 0.27689 0.0
N962 N 0.63649 0.78156 0.34221 0.0
N963 N 0.70057 0.88875 0.33015 0.0
H964 H 0.63768 0.85597 0.19068 0.0
H965 H 0.66743 0.88376 0.20956 0.0
H966 H 0.718 0.8982 0.36469 0.0
H967 H 0.69444 0.90132 0.30779 0.0
H968 H 0.6396 0.76984 0.38523 0.0
H969 H 0.61848 0.77185 0.31116 0.0
H970 H 0.67918 0.78448 0.39698 0.0
H971 H 0.70638 0.81264 0.43376 0.0
C972 C 0.19414 0.84593 0.31098 0.0
C973 C 0.17951 0.81925 0.28827 0.0
C974 C 0.14034 0.81682 0.35041 0.0
C975 C 0.15442 0.84393 0.36621 0.0
N976 N 0.19375 0.88522 0.3509 0.0
N977 N 0.1382 0.78011 0.27323 0.0
C978 C 0.18109 0.85877 0.34366 0.0
C979 C 0.15241 0.80495 0.30398 0.0
N980 N 0.22059 0.85881 0.30392 0.0
N981 N 0.11552 0.80241 0.38109 0.0
H982 H 0.14654 0.77095 0.23886 0.0
H983 H 0.11801 0.76941 0.27502 0.0
H984 H 0.10621 0.8106 0.41546 0.0
H985 H 0.10497 0.78221 0.37923 0.0
H986 H 0.23257 0.87729 0.32934 0.0
H987 H 0.2308 0.85036 0.27749 0.0
H988 H 0.21222 0.89734 0.32561 0.0
H989 H 0.18515 0.89527 0.37737 0.0
C990 C 0.34631 0.1519 0.66686 0.0
C991 C 0.35728 0.17785 0.69735 0.0
C992 C 0.31935 0.17975 0.6442 0.0
C993 C 0.30767 0.15331 0.61899 0.0
N994 N 0.30829 0.11316 0.61284 0.0
N995 N 0.35381 0.2159 0.72399 0.0
C996 C 0.32074 0.13911 0.63176 0.0
C997 C 0.34362 0.19161 0.68869 0.0
N998 N 0.36063 0.1397 0.66995 0.0
N999 N 0.30734 0.19358 0.62395 0.0
H1000 H 0.37175 0.2253 0.75544 0.0
H1001 H 0.34385 0.22611 0.72795 0.0
H1002 H 0.28952 0.1854 0.59168 0.0
H1003 H 0.31574 0.21353 0.63266 0.0
H1004 H 0.35524 0.12213 0.63903 0.0
H1005 H 0.37874 0.1478 0.70013 0.0
H1006 H 0.31526 0.10086 0.63059 0.0
H1007 H 0.29011 0.10347 0.58296 0.0
C1008 C 0.80579 0.15525 0.65934 0.0
C1009 C 0.82102 0.17946 0.70203 0.0
C1010 C 0.86059 0.17787 0.66938 0.0
C1011 C 0.84548 0.15447 0.62194 0.0
N1012 N 0.8045 0.12236 0.56174 0.0
N1013 N 0.86286 0.21561 0.73952 0.0
C1014 C 0.81828 0.14364 0.61377 0.0
C1015 C 0.84843 0.19123 0.70514 0.0
N1016 N 0.77931 0.14313 0.66437 0.0
N1017 N 0.88652 0.18704 0.68158 0.0
H1018 H 0.85456 0.22552 0.7693 0.0
H1019 H 0.88297 0.22666 0.73433 0.0
H1020 H 0.89648 0.17883 0.65156 0.0
H1021 H 0.89797 0.20197 0.72471 0.0
H1022 H 0.76694 0.12437 0.64202 0.0
H1023 H 0.76959 0.15106 0.69775 0.0
H1024 H 0.78506 0.11494 0.5456 0.0
H1025 H 0.81306 0.1132 0.52875 0.0
C1026 C 0.82171 0.64474 0.58709 0.0
C1027 C 0.80981 0.63773 0.66999 0.0
C1028 C 0.81935 0.68293 0.68348 0.0
C1029 C 0.83934 0.69033 0.61926 0.0
N1030 N 0.8601 0.67607 0.51349 0.0
N1031 N 0.78259 0.64745 0.75919 0.0
C1032 C 0.84086 0.67063 0.57237 0.0
C1033 C 0.80436 0.65616 0.70914 0.0
N1034 N 0.81033 0.6291 0.51697 0.0
N1035 N 0.81424 0.7012 0.71715 0.0
H1036 H 0.7689 0.62772 0.76318 0.0
H1037 H 0.7766 0.6593 0.78895 0.0
H1038 H 0.82229 0.71986 0.69117 0.0
H1039 H 0.80213 0.69807 0.77029 0.0
H1040 H 0.81756 0.63465 0.45363 0.0
H1041 H 0.79183 0.61276 0.52206 0.0
H1042 H 0.86119 0.66127 0.48036 0.0
H1043 H 0.87582 0.69471 0.50426 0.0
C1044 C 0.01799 0.53101 0.98734 0.0
C1045 C 0.02749 0.51569 0.02604 0.0
C1046 C 0.98631 0.47608 0.99425 0.0
C1047 C 0.97741 0.49131 0.95094 0.0
N1048 N 0.98545 0.53254 0.89561 0.0
N1049 N 0.02256 0.47377 0.05722 0.0
C1050 C 0.99352 0.51859 0.94412 0.0
C1051 C 0.01212 0.48823 0.02731 0.0
N1052 N 0.03215 0.55747 0.99418 0.0
N1053 N 0.96986 0.45002 0.00514 0.0
H1054 H 0.04105 0.48201 0.08466 0.0
H1055 H 0.01362 0.4537 0.05028 0.0
H1056 H 0.95147 0.4401 0.97678 0.0
H1057 H 0.97383 0.43839 0.0457 0.0
H1058 H 0.02539 0.56982 0.97503 0.0
H1059 H 0.05005 0.56713 0.02595 0.0
H1060 H 0.9972 0.55209 0.8804 0.0
H1061 H 0.96745 0.52403 0.86444 0.0
C1062 C 0.51159 0.52681 0.0123 0.0
C1063 C 0.48613 0.51173 0.0469 0.0
C1064 C 0.48455 0.4718 0.99607 0.0
C1065 C 0.51045 0.48677 0.96538 0.0
N1066 N 0.54992 0.52791 0.95202 0.0
N1067 N 0.44942 0.47012 0.08251 0.0
C1068 C 0.52431 0.51415 0.97538 0.0
C1069 C 0.47294 0.48425 0.04211 0.0
N1070 N 0.52333 0.55331 0.0131 0.0
N1071 N 0.47095 0.44571 0.97934 0.0
H1072 H 0.44033 0.47871 0.1158 0.0
H1073 H 0.43975 0.45002 0.08914 0.0
H1074 H 0.47893 0.43606 0.94589 0.0
H1075 H 0.45125 0.4339 0.99224 0.0
H1076 H 0.54033 0.56548 0.97921 0.0
H1077 H 0.51539 0.56328 0.04483 0.0
H1078 H 0.56213 0.54739 0.96722 0.0
H1079 H 0.55949 0.51944 0.921 0.0
C1080 C 0.49091 0.01688 0.98986 0.0
C1081 C 0.51606 0.02671 0.95314 0.0
C1082 C 0.51645 0.98731 -0.00176 0.0
C1083 C 0.49078 0.9769 0.03064 0.0
N1084 N 0.45217 0.97991 0.04917 0.0
N1085 N 0.55165 0.02058 0.91164 0.0
C1086 C 0.47764 0.99122 0.02448 0.0
C1087 C 0.52848 0.01165 0.95404 0.0
N1088 N 0.47998 0.03236 0.99319 0.0
N1089 N 0.52947 0.97408 0.01167 0.0
H1090 H 0.56105 0.03846 0.87966 0.0
H1091 H 0.56065 0.00961 0.90209 0.0
H1092 H 0.5212 0.95623 0.0438 0.0
H1093 H 0.54904 0.98153 0.99746 0.0
H1094 H 0.46332 0.02781 0.02879 0.0
H1095 H 0.4883 0.05056 0.96341 0.0
H1096 H 0.44042 0.9879 0.03666 0.0
H1097 H 0.44221 0.96163 0.07834 0.0
C1098 C 0.12495 0.19802 0.85719 0.0
C1099 C 0.13005 0.22179 0.81753 0.0
C1100 C 0.12233 0.23695 0.95747 0.0
C1101 C 0.11446 0.21218 0.99445 0.0
N1102 N 0.10742 0.16879 0.9815 0.0
N1103 N 0.13444 0.26418 0.82801 0.0
C1104 C 0.11602 0.19278 0.94534 0.0
C1105 C 0.12921 0.24143 0.86754 0.0
N1106 N 0.12806 0.18019 0.8101 0.0
N1107 N 0.12351 0.25628 0.00903 0.0
H1108 H 0.14166 0.26894 0.7645 0.0
H1109 H 0.13096 0.27805 0.85638 0.0
H1110 H 0.11768 0.25336 0.07403 0.0
H1111 H 0.13169 0.27558 0.98984 0.0
H1112 H 0.12785 0.16408 0.83751 0.0
H1113 H 0.13233 0.18199 0.74364 0.0
H1114 H 0.10489 0.15264 0.94686 0.0
H1115 H 0.10133 0.16446 0.0463 0.0
C1116 C 0.81027 0.92136 0.84106 0.0
C1117 C 0.78436 0.9109 0.81077 0.0
C1118 C 0.76848 0.90228 0.96136 0.0
C1119 C 0.79369 0.90875 0.99048 0.0
N1120 N 0.83899 0.92529 0.96015 0.0
N1121 N 0.73853 0.89033 0.83949 0.0
C1122 C 0.81477 0.91882 0.93089 0.0
C1123 C 0.76338 0.90121 0.87027 0.0
N1124 N 0.83053 0.93377 0.78387 0.0
N1125 N 0.7496 0.89778 0.02079 0.0
H1126 H 0.73422 0.89006 0.77328 0.0
H1127 H 0.72215 0.8801 0.87858 0.0
H1128 H 0.7533 0.90009 0.08731 0.0
H1129 H 0.73139 0.89497 0.0043 0.0
H1130 H 0.8499 0.9442 0.80294 0.0
H1131 H 0.82801 0.93524 0.71711 0.0
H1132 H 0.85459 0.9295 0.91924 0.0
H1133 H 0.8433 0.92555 0.02636 0.0
C1134 C 0.12748 0.90025 0.836 0.0
C1135 C 0.10891 0.87506 0.80648 0.0
C1136 C 0.09429 0.8631 0.95727 0.0
C1137 C 0.10944 0.88958 0.98279 0.0
N1138 N 0.13491 0.93436 0.93675 0.0
N1139 N 0.06985 0.8343 0.8394 0.0
C1140 C 0.12428 0.9085 0.91905 0.0
C1141 C 0.09085 0.85687 0.86697 0.0
N1142 N 0.14872 0.91605 0.78641 0.0
N1143 N 0.08441 0.84369 0.01783 0.0
H1144 H 0.06544 0.82943 0.77386 0.0
H1145 H 0.05521 0.82181 0.88201 0.0
H1146 H 0.08806 0.84709 0.08423 0.0
H1147 H 0.0752 0.8241 0.00077 0.0
H1148 H 0.16358 0.93388 0.80897 0.0
H1149 H 0.15306 0.90992 0.72813 0.0
H1150 H 0.14433 0.94865 0.88927 0.0
H1151 H 0.13156 0.94123 0.99526 0.0
C1152 C 0.19239 0.11662 0.04903 0.0
C1153 C 0.21121 0.11404 -0.0 0.0
C1154 C 0.2405 0.12796 0.12679 0.0
C1155 C 0.22139 0.12979 0.17675 0.0
N1156 N 0.18074 0.12977 0.18387 0.0
N1157 N 0.2546 0.12109 0.98555 0.0
C1158 C 0.19795 0.12564 0.13703 0.0
C1159 C 0.23575 0.12095 0.03698 0.0
N1160 N 0.16855 0.10886 0.01299 0.0
N1161 N 0.26298 0.13238 0.16627 0.0
H1162 H 0.25141 0.11504 0.92078 0.0
H1163 H 0.27382 0.12856 0.0046 0.0
H1164 H 0.268 0.13968 0.2296 0.0
H1165 H 0.27637 0.12818 0.13804 0.0
H1166 H 0.15269 0.10704 0.04769 0.0
H1167 H 0.164 0.10273 0.94831 0.0
H1168 H 0.16504 0.13032 0.15627 0.0
H1169 H 0.1827 0.13414 0.25025 0.0
C1170 C 0.90854 0.12408 0.06795 0.0
C1171 C 0.88934 0.10924 0.00504 0.0
C1172 C 0.85704 0.09082 0.12214 0.0
C1173 C 0.87555 0.10875 0.18209 0.0
N1174 N 0.91678 0.14832 0.20141 0.0
N1175 N 0.8434 0.08416 0.97162 0.0
C1176 C 0.90068 0.12723 0.15176 0.0
C1177 C 0.86297 0.09414 0.03158 0.0
N1178 N 0.93431 0.13475 0.04869 0.0
N1179 N 0.83444 0.07001 0.15053 0.0
H1180 H 0.84663 0.08759 0.90502 0.0
H1181 H 0.82386 0.07502 0.98926 0.0
H1182 H 0.82973 0.06577 0.21626 0.0
H1183 H 0.82169 0.05538 0.10844 0.0
H1184 H 0.94883 0.14411 0.09545 0.0
H1185 H 0.94091 0.1315 0.98943 0.0
H1186 H 0.93455 0.16318 0.17839 0.0
H1187 H 0.91098 0.15258 0.26052 0.0
C1188 C 0.92426 0.8054 0.15377 0.0
C1189 C 0.91017 0.78002 0.18987 0.0
C1190 C 0.89116 0.76221 0.04727 0.0
C1191 C 0.9053 0.78755 0.01077 0.0
N1192 N 0.93909 0.83226 0.0236 0.0
N1193 N 0.88493 0.7338 0.17011 0.0
C1194 C 0.92324 0.8088 0.06221 0.0
C1195 C 0.89511 0.75825 0.13614 0.0
N1196 N 0.93735 0.8264 0.20765 0.0
N1197 N 0.87327 0.7421 -0.00226 0.0
H1198 H 0.88749 0.73041 0.23526 0.0
H1199 H 0.87592 0.71694 0.13264 0.0
H1200 H 0.87062 0.74402 0.93168 0.0
H1201 H 0.86008 0.72393 0.02282 0.0
H1202 H 0.94532 0.84555 0.18687 0.0
H1203 H 0.93881 0.82483 0.275 0.0
H1204 H 0.95451 0.84774 0.05554 0.0
H1205 H 0.93817 0.83568 0.95726 0.0
C1206 C 0.76733 0.52913 0.17162 0.0
C1207 C 0.78868 0.55351 0.14581 0.0
C1208 C 0.80333 0.56234 0.29828 0.0
C1209 C 0.77974 0.54035 0.32512 0.0
N1210 N 0.739 0.50258 0.28872 0.0
N1211 N 0.82637 0.59417 0.18465 0.0
C1212 C 0.76177 0.52357 0.26198 0.0
C1213 C 0.80673 0.57023 0.20908 0.0
N1214 N 0.75293 0.51085 0.11005 0.0
N1215 N 0.82255 0.57555 0.35799 0.0
H1216 H 0.82935 0.60067 0.12011 0.0
H1217 H 0.83842 0.60842 0.22892 0.0
H1218 H 0.82092 0.56957 0.42265 0.0
H1219 H 0.84104 0.59047 0.3417 0.0
H1220 H 0.73904 0.49181 0.1253 0.0
H1221 H 0.75637 0.51379 0.04315 0.0
H1222 H 0.72345 0.49164 0.24702 0.0
H1223 H 0.73521 0.49679 0.35398 0.0
C1224 C 0.48318 0.22889 0.26989 0.0
C1225 C 0.46467 0.23023 0.32441 0.0
C1226 C 0.44551 0.23921 0.197 0.0
C1227 C 0.46172 0.23422 0.14216 0.0
N1228 N 0.49194 0.21842 0.12622 0.0
N1229 N 0.42535 0.23248 0.33882 0.0
C1230 C 0.47954 0.22751 0.17842 0.0
C1231 C 0.44507 0.23437 0.2879 0.0
N1232 N 0.50447 0.22934 0.30546 0.0
N1233 N 0.43116 0.24925 0.16292 0.0
H1234 H 0.42422 0.22882 0.40547 0.0
H1235 H 0.40904 0.23239 0.31362 0.0
H1236 H 0.43116 0.25327 0.0966 0.0
H1237 H 0.42115 0.2558 0.20149 0.0
H1238 H 0.51981 0.23088 0.26797 0.0
H1239 H 0.5081 0.231 0.37253 0.0
H1240 H 0.50319 0.21095 0.15086 0.0
H1241 H 0.4887 0.21554 0.05914 0.0
C1242 C 0.76513 0.19908 0.29671 0.0
C1243 C 0.7611 0.21953 0.32565 0.0
C1244 C 0.75122 0.22639 0.17584 0.0
C1245 C 0.75767 0.20764 0.1462 0.0
N1246 N 0.77153 0.17667 0.17454 0.0
N1247 N 0.74414 0.24804 0.29898 0.0
C1248 C 0.76455 0.19389 0.2057 0.0
C1249 C 0.75226 0.23181 0.26679 0.0
N1250 N 0.76869 0.18414 0.35651 0.0
N1251 N 0.74523 0.23978 0.11632 0.0
H1252 H 0.74411 0.25173 0.36565 0.0
H1253 H 0.7355 0.25625 0.26166 0.0
H1254 H 0.74364 0.2359 0.04946 0.0
H1255 H 0.74301 0.25559 0.1316 0.0
H1256 H 0.7698 0.16768 0.34121 0.0
H1257 H 0.76777 0.1866 0.42317 0.0
H1258 H 0.7797 0.16812 0.21261 0.0
H1259 H 0.7705 0.17189 0.10847 0.0
C1260 C 0.89397 0.43552 0.48906 0.0
C1261 C 0.90019 0.46066 0.51801 0.0
C1262 C 0.89869 0.47274 0.36651 0.0
C1263 C 0.88791 0.44632 0.34101 0.0
N1264 N 0.86871 0.40149 0.38621 0.0
N1265 N 0.9022 0.50146 0.48372 0.0
C1266 C 0.88345 0.42735 0.40491 0.0
C1267 C 0.9008 0.4789 0.45679 0.0
N1268 N 0.89898 0.41971 0.54026 0.0
N1269 N 0.90824 0.49214 0.3059 0.0
H1270 H 0.90236 0.50632 0.54915 0.0
H1271 H 0.90032 0.514 0.44062 0.0
H1272 H 0.90869 0.48876 0.23954 0.0
H1273 H 0.91834 0.51175 0.3229 0.0
H1274 H 0.8964 0.40197 0.51828 0.0
H1275 H 0.90877 0.42574 0.59972 0.0
H1276 H 0.86345 0.38711 0.43359 0.0
H1277 H 0.85924 0.39466 0.32651 0.0
C1278 C 0.53701 0.40501 0.47566 0.0
C1279 C 0.53408 0.42513 0.5151 0.0
C1280 C 0.54465 0.4486 0.37548 0.0
C1281 C 0.54998 0.42981 0.33848 0.0
N1282 N 0.55214 0.39062 0.3514 0.0
N1283 N 0.53403 0.46547 0.50418 0.0
C1284 C 0.5459 0.40786 0.38754 0.0
C1285 C 0.53736 0.44663 0.46502 0.0
N1286 N 0.53193 0.38344 0.52296 0.0
N1287 N 0.54634 0.46822 0.32431 0.0
H1288 H 0.52654 0.46352 0.56715 0.0
H1289 H 0.53922 0.48333 0.47611 0.0
H1290 H 0.55285 0.47098 0.2601 0.0
H1291 H 0.5401 0.48102 0.34304 0.0
H1292 H 0.53033 0.36667 0.49573 0.0
H1293 H 0.52803 0.38149 0.58966 0.0
H1294 H 0.55279 0.37589 0.38583 0.0
H1295 H 0.55815 0.39178 0.28671 0.0
C1296 C 0.575 0.09897 0.4588 0.0
C1297 C 0.57627 0.11768 0.51878 0.0
C1298 C 0.58143 0.14688 0.39771 0.0
C1299 C 0.57575 0.12656 0.33813 0.0
N1300 N 0.56587 0.0826 0.3109 0.0
N1301 N 0.57966 0.15934 0.54687 0.0
C1302 C 0.57261 0.10253 0.36818 0.0
C1303 C 0.57937 0.14171 0.48875 0.0
N1304 N 0.57576 0.07767 0.48846 0.0
N1305 N 0.58913 0.17125 0.36677 0.0
H1306 H 0.57921 0.15697 0.61438 0.0
H1307 H 0.57864 0.17565 0.52823 0.0
H1308 H 0.59112 0.17557 0.30014 0.0
H1309 H 0.59602 0.18759 0.40652 0.0
H1310 H 0.57777 0.06479 0.44754 0.0
H1311 H 0.57632 0.07386 0.55471 0.0
H1312 H 0.55993 0.06361 0.32968 0.0
H1313 H 0.56486 0.08485 0.24417 0.0
C1314 C 0.46394 0.90985 0.52594 0.0
C1315 C 0.46665 0.8912 0.4762 0.0
C1316 C 0.45426 0.86229 0.60413 0.0
C1317 C 0.45079 0.88061 0.65289 0.0
N1318 N 0.45599 0.92332 0.66678 0.0
N1319 N 0.46808 0.85127 0.46944 0.0
C1320 C 0.45682 0.90489 0.61566 0.0
C1321 C 0.46327 0.86806 0.51613 0.0
N1322 N 0.46764 0.93207 0.48632 0.0
N1323 N 0.44734 0.83866 0.64042 0.0
H1324 H 0.47229 0.85321 0.40295 0.0
H1325 H 0.46929 0.83595 0.49719 0.0
H1326 H 0.44124 0.83398 0.70508 0.0
H1327 H 0.44618 0.82303 0.60598 0.0
H1328 H 0.4628 0.94504 0.51425 0.0
H1329 H 0.47501 0.93732 0.42313 0.0
H1330 H 0.46276 0.94242 0.64764 0.0
H1331 H 0.44979 0.91992 0.73139 0.0
C1332 C 0.0944 0.55447 0.52041 0.0
C1333 C 0.11305 0.57568 0.47026 0.0
C1334 C 0.14188 0.59262 0.5982 0.0
C1335 C 0.12358 0.57093 0.64736 0.0
N1336 N 0.08087 0.5335 0.66181 0.0
N1337 N 0.15288 0.61708 0.46283 0.0
C1338 C 0.09932 0.55259 0.61033 0.0
C1339 C 0.13613 0.5956 0.50995 0.0
N1340 N 0.07221 0.53582 0.48102 0.0
N1341 N 0.16548 0.60945 0.63438 0.0
H1342 H 0.15094 0.61917 0.39623 0.0
H1343 H 0.16817 0.63371 0.49028 0.0
H1344 H 0.17013 0.60822 0.69921 0.0
H1345 H 0.18109 0.62384 0.59974 0.0
H1346 H 0.05926 0.51808 0.50938 0.0
H1347 H 0.06699 0.53775 0.41762 0.0
H1348 H 0.06178 0.52112 0.64272 0.0
H1349 H 0.08423 0.53092 0.72664 0.0
C1350 C 0.42281 0.56964 0.60488 0.0
C1351 C 0.42855 0.55501 0.66436 0.0
C1352 C 0.42655 0.52648 0.54483 0.0
C1353 C 0.42518 0.54371 0.48447 0.0
N1354 N 0.42372 0.58292 0.45499 0.0
N1355 N 0.4383 0.52077 0.69053 0.0
C1356 C 0.42363 0.56558 0.51386 0.0
C1357 C 0.4307 0.5335 0.63451 0.0
N1358 N 0.41625 0.58718 0.63577 0.0
N1359 N 0.42421 0.50361 0.51638 0.0
H1360 H 0.44144 0.52535 0.75627 0.0
H1361 H 0.44331 0.50707 0.67085 0.0
H1362 H 0.42206 0.49834 0.45056 0.0
H1363 H 0.42229 0.48897 0.55839 0.0
H1364 H 0.40939 0.59668 0.59618 0.0
H1365 H 0.41518 0.59029 0.7024 0.0
H1366 H 0.42569 0.60072 0.47279 0.0
H1367 H 0.42374 0.58049 0.38758 0.0
C1368 C 0.56315 0.76844 0.81287 0.0
C1369 C 0.57011 0.79368 0.84292 0.0
C1370 C 0.56812 0.80622 0.69235 0.0
C1371 C 0.55661 0.77979 0.66608 0.0
N1372 N 0.53676 0.73482 0.71021 0.0
N1373 N 0.57295 0.835 0.81109 0.0
C1374 C 0.55208 0.76058 0.72918 0.0
C1375 C 0.57085 0.81224 0.78284 0.0
N1376 N 0.56791 0.75221 0.86267 0.0
N1377 N 0.5778 0.82574 0.63218 0.0
H1378 H 0.57358 0.8398 0.8768 0.0
H1379 H 0.57119 0.84781 0.76898 0.0
H1380 H 0.57788 0.82243 0.5656 0.0
H1381 H 0.58838 0.8453 0.64957 0.0
H1382 H 0.56478 0.73433 0.83985 0.0
H1383 H 0.57799 0.75797 0.9217 0.0
H1384 H 0.53148 0.7203 0.75711 0.0
H1385 H 0.52689 0.72824 0.65104 0.0
C1386 C 0.24508 0.79065 0.73557 0.0
C1387 C 0.22623 0.77559 0.67195 0.0
C1388 C 0.19362 0.75659 0.78796 0.0
C1389 C 0.21168 0.77478 0.84839 0.0
N1390 N 0.25232 0.81497 0.86834 0.0
N1391 N 0.18039 0.74996 0.63715 0.0
C1392 C 0.23674 0.79365 0.81874 0.0
C1393 C 0.1998 0.76011 0.69762 0.0
N1394 N 0.27096 0.80168 0.71766 0.0
N1395 N 0.17122 0.73538 0.81563 0.0
H1396 H 0.18374 0.75361 0.57072 0.0
H1397 H 0.1608 0.74048 0.65429 0.0
H1398 H 0.1664 0.73094 0.88119 0.0
H1399 H 0.15886 0.72066 0.77308 0.0
H1400 H 0.28523 0.81127 0.76504 0.0
H1401 H 0.27793 0.7985 0.65906 0.0
H1402 H 0.27002 0.83003 0.8457 0.0
H1403 H 0.24609 0.81913 0.92675 0.0
C1404 C 0.25961 0.47451 0.72958 0.0
C1405 C 0.23777 0.45627 0.6809 0.0
C1406 C 0.2218 0.42683 0.80744 0.0
C1407 C 0.24316 0.44541 0.8572 0.0
N1408 N 0.28437 0.48549 0.86432 0.0
N1409 N 0.20015 0.41367 0.66696 0.0
C1410 C 0.26285 0.46867 0.81749 0.0
C1411 C 0.21952 0.43196 0.71799 0.0
N1412 N 0.27636 0.49812 0.69322 0.0
N1413 N 0.20338 0.40448 0.84681 0.0
H1414 H 0.19722 0.41721 0.60269 0.0
H1415 H 0.18778 0.39455 0.68582 0.0
H1416 H 0.20561 0.39911 0.90966 0.0
H1417 H 0.18558 0.3915 0.81901 0.0
H1418 H 0.29093 0.5137 0.72742 0.0
H1419 H 0.27494 0.50281 0.6286 0.0
H1420 H 0.30084 0.50098 0.83694 0.0
H1421 H 0.28663 0.48348 0.93072 0.0
loop_
_geom_bond_atom_site_label_1
_geom_bond_atom_site_label_2
_geom_bond_distance
_geom_bond_site_symmetry_2
_ccdc_geom_bond_type
Co0 O3 1.970 . S
Co0 N17 1.989 . S
Co0 O25 1.967 . S
Co0 O32 1.920 . S
Co1 O4 1.966 . S
Co1 N10 2.022 . S
Co1 N18 1.993 . S
Co1 O26 1.941 . S
C2 O3 1.258 . S
C2 O4 1.263 . S
O3 Co0 1.970 . S
O3 C2 1.258 . S
O4 Co1 1.966 . S
O4 C2 1.263 . S
C5 O6 1.235 . S
C5 O32 1.289 . S
O6 C5 1.235 . S
C7 C9 1.400 . S
C7 N10 1.351 . S
C7 C12 1.501 . S
C8 C9 1.387 . S
C8 N11 1.341 . S
C9 C7 1.400 . S
C9 C8 1.387 . S
N10 Co1 2.022 . S
N10 C7 1.351 . S
N10 N11 1.365 . S
N11 C8 1.341 . S
N11 N10 1.365 . S
N11 H31 0.862 . S
C12 C7 1.501 . S
C12 H13 0.961 . S
C12 H14 0.961 . S
C12 H15 0.960 . S
H13 C12 0.961 . S
H14 C12 0.961 . S
H15 C12 0.960 . S
C16 N17 1.342 . S
C16 C20 1.401 . S
C16 C21 1.499 . S
N17 Co0 1.989 . S
N17 C16 1.342 . S
N17 N18 1.388 . S
N18 Co1 1.993 . S
N18 N17 1.388 . S
N18 C19 1.346 . S
C19 N18 1.346 . S
C19 C20 1.396 . S
C19 C29 1.510 . S
C20 C16 1.401 . S
C20 C19 1.396 . S
C21 C16 1.499 . S
C21 H22 0.959 . S
C21 H23 0.960 . S
C21 H24 0.961 . S
H22 C21 0.959 . S
H23 C21 0.960 . S
H24 C21 0.961 . S
O25 Co0 1.967 . S
O25 C33 1.258 . S
O26 Co1 1.941 . S
O26 C33 1.266 . S
H27 C29 0.959 . S
H28 C29 0.961 . S
C29 C19 1.510 . S
C29 H27 0.959 . S
C29 H28 0.961 . S
C29 H30 0.960 . S
H30 C29 0.960 . S
H31 N11 0.862 . S
O32 Co0 1.920 . S
O32 C5 1.289 . S
C33 O25 1.258 . S
C33 O26 1.266 . S
Co34 O37 1.970 . S
Co34 N51 1.989 . S
Co34 O59 1.967 . S
Co34 O66 1.920 . S
Co35 O38 1.966 . S
Co35 N44 2.022 . S
Co35 N52 1.993 . S
Co35 O60 1.941 . S
C36 O37 1.258 . S
C36 O38 1.263 . S
O37 Co34 1.970 . S
O37 C36 1.258 . S
O38 Co35 1.966 . S
O38 C36 1.263 . S
C39 O40 1.235 . S
C39 O66 1.289 . S
O40 C39 1.235 . S
C41 C43 1.400 . S
C41 N44 1.351 . S
C41 C46 1.501 . S
C42 C43 1.387 . S
C42 N45 1.341 . S
C43 C41 1.400 . S
C43 C42 1.387 . S
N44 Co35 2.022 . S
N44 C41 1.351 . S
N44 N45 1.365 . S
N45 C42 1.341 . S
N45 N44 1.365 . S
N45 H65 0.862 . S
C46 C41 1.501 . S
C46 H47 0.961 . S
C46 H48 0.961 . S
C46 H49 0.960 . S
H47 C46 0.961 . S
H48 C46 0.961 . S
H49 C46 0.960 . S
C50 N51 1.342 . S
C50 C54 1.401 . S
C50 C55 1.499 . S
N51 Co34 1.989 . S
N51 C50 1.342 . S
N51 N52 1.388 . S
N52 Co35 1.993 . S
N52 N51 1.388 . S
N52 C53 1.346 . S
C53 N52 1.346 . S
C53 C54 1.396 . S
C53 C63 1.510 . S
C54 C50 1.401 . S
C54 C53 1.396 . S
C55 C50 1.499 . S
C55 H56 0.959 . S
C55 H57 0.960 . S
C55 H58 0.961 . S
H56 C55 0.959 . S
H57 C55 0.960 . S
H58 C55 0.961 . S
O59 Co34 1.967 . S
O59 C67 1.258 . S
O60 Co35 1.941 . S
O60 C67 1.266 . S
H61 C63 0.959 . S
H62 C63 0.961 . S
C63 C53 1.510 . S
C63 H61 0.959 . S
C63 H62 0.961 . S
C63 H64 0.960 . S
H64 C63 0.960 . S
H65 N45 0.862 . S
O66 Co34 1.920 . S
O66 C39 1.289 . S
C67 O59 1.258 . S
C67 O60 1.266 . S
Co68 O71 1.970 . S
Co68 N85 1.989 . S
Co68 O93 1.967 . S
Co68 O100 1.920 . S
Co69 O72 1.966 . S
Co69 N78 2.022 . S
Co69 N86 1.993 . S
Co69 O94 1.941 . S
C70 O71 1.258 . S
C70 O72 1.263 . S
O71 Co68 1.970 . S
O71 C70 1.258 . S
O72 Co69 1.966 . S
O72 C70 1.263 . S
C73 O74 1.235 . S
C73 O100 1.289 . S
O74 C73 1.235 . S
C75 C77 1.400 . S
C75 N78 1.351 . S
C75 C80 1.501 . S
C76 C77 1.387 . S
C76 N79 1.341 . S
C77 C75 1.400 . S
C77 C76 1.387 . S
N78 Co69 2.022 . S
N78 C75 1.351 . S
N78 N79 1.365 . S
N79 C76 1.341 . S
N79 N78 1.365 . S
N79 H99 0.862 . S
C80 C75 1.501 . S
C80 H81 0.961 . S
C80 H82 0.961 . S
C80 H83 0.960 . S
H81 C80 0.961 . S
H82 C80 0.961 . S
H83 C80 0.960 . S
C84 N85 1.342 . S
C84 C88 1.401 . S
C84 C89 1.499 . S
N85 Co68 1.989 . S
N85 C84 1.342 . S
N85 N86 1.388 . S
N86 Co69 1.993 . S
N86 N85 1.388 . S
N86 C87 1.346 . S
C87 N86 1.346 . S
C87 C88 1.396 . S
C87 C97 1.510 . S
C88 C84 1.401 . S
C88 C87 1.396 . S
C89 C84 1.499 . S
C89 H90 0.959 . S
C89 H91 0.960 . S
C89 H92 0.961 . S
H90 C89 0.959 . S
H91 C89 0.960 . S
H92 C89 0.961 . S
O93 Co68 1.967 . S
O93 C101 1.258 . S
O94 Co69 1.941 . S
O94 C101 1.266 . S
H95 C97 0.959 . S
H96 C97 0.961 . S
C97 C87 1.510 . S
C97 H95 0.959 . S
C97 H96 0.961 . S
C97 H98 0.960 . S
H98 C97 0.960 . S
H99 N79 0.862 . S
O100 Co68 1.920 . S
O100 C73 1.289 . S
C101 O93 1.258 . S
C101 O94 1.266 . S
Co102 O105 1.970 . S
Co102 N119 1.989 . S
Co102 O127 1.967 . S
Co102 O134 1.920 . S
Co103 O106 1.966 . S
Co103 N112 2.022 . S
Co103 N120 1.993 . S
Co103 O128 1.941 . S
C104 O105 1.258 . S
C104 O106 1.263 . S
O105 Co102 1.970 . S
O105 C104 1.258 . S
O106 Co103 1.966 . S
O106 C104 1.263 . S
C107 O108 1.235 . S
C107 O134 1.289 . S
O108 C107 1.235 . S
C109 C111 1.400 . S
C109 N112 1.351 . S
C109 C114 1.501 . S
C110 C111 1.387 . S
C110 N113 1.341 . S
C111 C109 1.400 . S
C111 C110 1.387 . S
N112 Co103 2.022 . S
N112 C109 1.351 . S
N112 N113 1.365 . S
N113 C110 1.341 . S
N113 N112 1.365 . S
N113 H133 0.862 . S
C114 C109 1.501 . S
C114 H115 0.961 . S
C114 H116 0.961 . S
C114 H117 0.960 . S
H115 C114 0.961 . S
H116 C114 0.961 . S
H117 C114 0.960 . S
C118 N119 1.342 . S
C118 C122 1.401 . S
C118 C123 1.499 . S
N119 Co102 1.989 . S
N119 C118 1.342 . S
N119 N120 1.388 . S
N120 Co103 1.993 . S
N120 N119 1.388 . S
N120 C121 1.346 . S
C121 N120 1.346 . S
C121 C122 1.396 . S
C121 C131 1.510 . S
C122 C118 1.401 . S
C122 C121 1.396 . S
C123 C118 1.499 . S
C123 H124 0.959 . S
C123 H125 0.960 . S
C123 H126 0.961 . S
H124 C123 0.959 . S
H125 C123 0.960 . S
H126 C123 0.961 . S
O127 Co102 1.967 . S
O127 C135 1.258 . S
O128 Co103 1.941 . S
O128 C135 1.266 . S
H129 C131 0.959 . S
H130 C131 0.961 . S
C131 C121 1.510 . S
C131 H129 0.959 . S
C131 H130 0.961 . S
C131 H132 0.960 . S
H132 C131 0.960 . S
H133 N113 0.862 . S
O134 Co102 1.920 . S
O134 C107 1.289 . S
C135 O127 1.258 . S
C135 O128 1.266 . S
Co136 O139 1.970 . S
Co136 N153 1.989 . S
Co136 O161 1.967 . S
Co136 O168 1.920 . S
Co137 O140 1.966 . S
Co137 N146 2.022 . S
Co137 N154 1.993 . S
Co137 O162 1.941 . S
C138 O139 1.258 . S
C138 O140 1.263 . S
O139 Co136 1.970 . S
O139 C138 1.258 . S
O140 Co137 1.966 . S
O140 C138 1.263 . S
C141 O142 1.235 . S
C141 O168 1.289 . S
O142 C141 1.235 . S
C143 C145 1.400 . S
C143 N146 1.351 . S
C143 C148 1.501 . S
C144 C145 1.387 . S
C144 N147 1.341 . S
C145 C143 1.400 . S
C145 C144 1.387 . S
N146 Co137 2.022 . S
N146 C143 1.351 . S
N146 N147 1.365 . S
N147 C144 1.341 . S
N147 N146 1.365 . S
N147 H167 0.862 . S
C148 C143 1.501 . S
C148 H149 0.961 . S
C148 H150 0.961 . S
C148 H151 0.960 . S
H149 C148 0.961 . S
H150 C148 0.961 . S
H151 C148 0.960 . S
C152 N153 1.342 . S
C152 C156 1.401 . S
C152 C157 1.499 . S
N153 Co136 1.989 . S
N153 C152 1.342 . S
N153 N154 1.388 . S
N154 Co137 1.993 . S
N154 N153 1.388 . S
N154 C155 1.346 . S
C155 N154 1.346 . S
C155 C156 1.396 . S
C155 C165 1.510 . S
C156 C152 1.401 . S
C156 C155 1.396 . S
C157 C152 1.499 . S
C157 H158 0.959 . S
C157 H159 0.960 . S
C157 H160 0.961 . S
H158 C157 0.959 . S
H159 C157 0.960 . S
H160 C157 0.961 . S
O161 Co136 1.967 . S
O161 C169 1.258 . S
O162 Co137 1.941 . S
O162 C169 1.266 . S
H163 C165 0.959 . S
H164 C165 0.961 . S
C165 C155 1.510 . S
C165 H163 0.959 . S
C165 H164 0.961 . S
C165 H166 0.960 . S
H166 C165 0.960 . S
H167 N147 0.862 . S
O168 Co136 1.920 . S
O168 C141 1.289 . S
C169 O161 1.258 . S
C169 O162 1.266 . S
Co170 O173 1.970 . S
Co170 N187 1.989 . S
Co170 O195 1.967 . S
Co170 O202 1.920 . S
Co171 O174 1.966 . S
Co171 N180 2.022 . S
Co171 N188 1.993 . S
Co171 O196 1.941 . S
C172 O173 1.258 . S
C172 O174 1.263 . S
O173 Co170 1.970 . S
O173 C172 1.258 . S
O174 Co171 1.966 . S
O174 C172 1.263 . S
C175 O176 1.235 . S
C175 O202 1.289 . S
O176 C175 1.235 . S
C177 C179 1.400 . S
C177 N180 1.351 . S
C177 C182 1.501 . S
C178 C179 1.387 . S
C178 N181 1.341 . S
C179 C177 1.400 . S
C179 C178 1.387 . S
N180 Co171 2.022 . S
N180 C177 1.351 . S
N180 N181 1.365 . S
N181 C178 1.341 . S
N181 N180 1.365 . S
N181 H201 0.862 . S
C182 C177 1.501 . S
C182 H183 0.961 . S
C182 H184 0.961 . S
C182 H185 0.960 . S
H183 C182 0.961 . S
H184 C182 0.961 . S
H185 C182 0.960 . S
C186 N187 1.342 . S
C186 C190 1.401 . S
C186 C191 1.499 . S
N187 Co170 1.989 . S
N187 C186 1.342 . S
N187 N188 1.388 . S
N188 Co171 1.993 . S
N188 N187 1.388 . S
N188 C189 1.346 . S
C189 N188 1.346 . S
C189 C190 1.396 . S
C189 C199 1.510 . S
C190 C186 1.401 . S
C190 C189 1.396 . S
C191 C186 1.499 . S
C191 H192 0.959 . S
C191 H193 0.960 . S
C191 H194 0.961 . S
H192 C191 0.959 . S
H193 C191 0.960 . S
H194 C191 0.961 . S
O195 Co170 1.967 . S
O195 C203 1.258 . S
O196 Co171 1.941 . S
O196 C203 1.266 . S
H197 C199 0.959 . S
H198 C199 0.961 . S
C199 C189 1.510 . S
C199 H197 0.959 . S
C199 H198 0.961 . S
C199 H200 0.960 . S
H200 C199 0.960 . S
H201 N181 0.862 . S
O202 Co170 1.920 . S
O202 C175 1.289 . S
C203 O195 1.258 . S
C203 O196 1.266 . S
Co204 O207 1.970 . S
Co204 N221 1.989 . S
Co204 O229 1.967 . S
Co204 O236 1.920 . S
Co205 O208 1.966 . S
Co205 N214 2.022 . S
Co205 N222 1.993 . S
Co205 O230 1.941 . S
C206 O207 1.258 . S
C206 O208 1.263 . S
O207 Co204 1.970 . S
O207 C206 1.258 . S
O208 Co205 1.966 . S
O208 C206 1.263 . S
C209 O210 1.234 . S
C209 O236 1.289 1_554 S
O210 C209 1.234 . S
C211 C213 1.400 . S
C211 N214 1.351 . S
C211 C216 1.501 . S
C212 C213 1.387 . S
C212 N215 1.341 . S
C213 C211 1.400 . S
C213 C212 1.387 . S
N214 Co205 2.022 . S
N214 C211 1.351 . S
N214 N215 1.365 . S
N215 C212 1.341 . S
N215 N214 1.365 . S
N215 H235 0.862 . S
C216 C211 1.501 . S
C216 H217 0.961 . S
C216 H218 0.961 . S
C216 H219 0.960 . S
H217 C216 0.961 . S
H218 C216 0.961 . S
H219 C216 0.960 . S
C220 N221 1.342 . S
C220 C224 1.401 . S
C220 C225 1.499 . S
N221 Co204 1.989 . S
N221 C220 1.342 . S
N221 N222 1.388 . S
N222 Co205 1.993 . S
N222 N221 1.388 . S
N222 C223 1.346 . S
C223 N222 1.346 . S
C223 C224 1.396 . S
C223 C233 1.510 . S
C224 C220 1.401 . S
C224 C223 1.396 . S
C225 C220 1.499 . S
C225 H226 0.959 . S
C225 H227 0.960 . S
C225 H228 0.961 . S
H226 C225 0.959 . S
H227 C225 0.960 . S
H228 C225 0.961 . S
O229 Co204 1.967 . S
O229 C237 1.258 . S
O230 Co205 1.941 . S
O230 C237 1.266 . S
H231 C233 0.959 . S
H232 C233 0.961 . S
C233 C223 1.510 . S
C233 H231 0.959 . S
C233 H232 0.961 . S
C233 H234 0.960 . S
H234 C233 0.960 . S
H235 N215 0.862 . S
O236 Co204 1.920 . S
O236 C209 1.289 1_556 S
C237 O229 1.258 . S
C237 O230 1.266 . S
Co238 O241 1.970 . S
Co238 N255 1.989 . S
Co238 O263 1.967 . S
Co238 O270 1.920 . S
Co239 O242 1.966 . S
Co239 N248 2.022 . S
Co239 N256 1.993 . S
Co239 O264 1.941 . S
C240 O241 1.258 . S
C240 O242 1.263 . S
O241 Co238 1.970 . S
O241 C240 1.258 . S
O242 Co239 1.966 . S
O242 C240 1.263 . S
C243 O244 1.235 . S
C243 O270 1.289 1_554 S
O244 C243 1.235 . S
C245 C247 1.400 . S
C245 N248 1.351 . S
C245 C250 1.501 . S
C246 C247 1.387 . S
C246 N249 1.341 . S
C247 C245 1.400 . S
C247 C246 1.387 . S
N248 Co239 2.022 . S
N248 C245 1.351 . S
N248 N249 1.365 . S
N249 C246 1.341 . S
N249 N248 1.365 . S
N249 H269 0.862 . S
C250 C245 1.501 . S
C250 H251 0.961 . S
C250 H252 0.961 . S
C250 H253 0.960 . S
H251 C250 0.961 . S
H252 C250 0.961 . S
H253 C250 0.960 . S
C254 N255 1.342 . S
C254 C258 1.401 . S
C254 C259 1.499 . S
N255 Co238 1.989 . S
N255 C254 1.342 . S
N255 N256 1.388 . S
N256 Co239 1.993 . S
N256 N255 1.388 . S
N256 C257 1.346 . S
C257 N256 1.346 . S
C257 C258 1.396 . S
C257 C267 1.510 . S
C258 C254 1.401 . S
C258 C257 1.396 . S
C259 C254 1.499 . S
C259 H260 0.959 . S
C259 H261 0.960 . S
C259 H262 0.961 . S
H260 C259 0.959 . S
H261 C259 0.960 . S
H262 C259 0.961 . S
O263 Co238 1.967 . S
O263 C271 1.258 . S
O264 Co239 1.941 . S
O264 C271 1.266 . S
H265 C267 0.959 . S
H266 C267 0.961 . S
C267 C257 1.510 . S
C267 H265 0.959 . S
C267 H266 0.961 . S
C267 H268 0.960 . S
H268 C267 0.960 . S
H269 N249 0.862 . S
O270 Co238 1.920 . S
O270 C243 1.289 1_556 S
C271 O263 1.258 . S
C271 O264 1.266 . S
Co272 O275 1.970 . S
Co272 N289 1.989 . S
Co272 O297 1.967 . S
Co272 O304 1.920 . S
Co273 O276 1.966 . S
Co273 N282 2.022 . S
Co273 N290 1.993 . S
Co273 O298 1.941 . S
C274 O275 1.258 . S
C274 O276 1.263 . S
O275 Co272 1.970 . S
O275 C274 1.258 . S
O276 Co273 1.966 . S
O276 C274 1.263 . S
C277 O278 1.235 . S
C277 O304 1.289 1_554 S
O278 C277 1.235 . S
C279 C281 1.400 . S
C279 N282 1.351 . S
C279 C284 1.501 . S
C280 C281 1.387 . S
C280 N283 1.341 . S
C281 C279 1.400 . S
C281 C280 1.387 . S
N282 Co273 2.022 . S
N282 C279 1.351 . S
N282 N283 1.365 . S
N283 C280 1.341 . S
N283 N282 1.365 . S
N283 H303 0.862 . S
C284 C279 1.501 . S
C284 H285 0.961 . S
C284 H286 0.961 . S
C284 H287 0.960 . S
H285 C284 0.961 . S
H286 C284 0.961 . S
H287 C284 0.960 . S
C288 N289 1.342 . S
C288 C292 1.401 . S
C288 C293 1.499 . S
N289 Co272 1.989 . S
N289 C288 1.342 . S
N289 N290 1.388 . S
N290 Co273 1.993 . S
N290 N289 1.388 . S
N290 C291 1.346 . S
C291 N290 1.346 . S
C291 C292 1.396 . S
C291 C301 1.510 . S
C292 C288 1.401 . S
C292 C291 1.396 . S
C293 C288 1.499 . S
C293 H294 0.959 . S
C293 H295 0.960 . S
C293 H296 0.961 . S
H294 C293 0.959 . S
H295 C293 0.960 . S
H296 C293 0.961 . S
O297 Co272 1.967 . S
O297 C305 1.258 . S
O298 Co273 1.941 . S
O298 C305 1.266 . S
H299 C301 0.959 . S
H300 C301 0.961 . S
C301 C291 1.510 . S
C301 H299 0.959 . S
C301 H300 0.961 . S
C301 H302 0.960 . S
H302 C301 0.960 . S
H303 N283 0.862 . S
O304 Co272 1.920 . S
O304 C277 1.289 1_556 S
C305 O297 1.258 . S
C305 O298 1.266 . S
Co306 O309 1.970 . S
Co306 N323 1.989 . S
Co306 O331 1.967 . S
Co306 O338 1.920 . S
Co307 O310 1.966 1_554 S
Co307 N316 2.022 . S
Co307 N324 1.993 1_554 S
Co307 O332 1.941 1_554 S
C308 O309 1.258 . S
C308 O310 1.263 . S
O309 Co306 1.970 . S
O309 C308 1.258 . S
O310 Co307 1.966 1_556 S
O310 C308 1.263 . S
C311 O312 1.235 . S
C311 O338 1.289 . S
O312 C311 1.235 . S
C313 C315 1.400 . S
C313 N316 1.351 . S
C313 C318 1.501 . S
C314 C315 1.387 . S
C314 N317 1.341 . S
C315 C313 1.400 . S
C315 C314 1.387 . S
N316 Co307 2.022 . S
N316 C313 1.351 . S
N316 N317 1.365 . S
N317 C314 1.341 . S
N317 N316 1.365 . S
N317 H337 0.862 . S
C318 C313 1.501 . S
C318 H319 0.961 . S
C318 H320 0.961 . S
C318 H321 0.960 . S
H319 C318 0.961 . S
H320 C318 0.961 . S
H321 C318 0.960 . S
C322 N323 1.342 . S
C322 C326 1.401 . S
C322 C327 1.499 . S
N323 Co306 1.989 . S
N323 C322 1.342 . S
N323 N324 1.388 . S
N324 Co307 1.993 1_556 S
N324 N323 1.388 . S
N324 C325 1.346 1_556 S
C325 N324 1.346 1_554 S
C325 C326 1.396 1_554 S
C325 C335 1.510 . S
C326 C322 1.401 . S
C326 C325 1.396 1_556 S
C327 C322 1.499 . S
C327 H328 0.959 . S
C327 H329 0.960 . S
C327 H330 0.961 . S
H328 C327 0.959 . S
H329 C327 0.960 . S
H330 C327 0.961 . S
O331 Co306 1.967 . S
O331 C339 1.258 . S
O332 Co307 1.941 1_556 S
O332 C339 1.266 . S
H333 C335 0.959 . S
H334 C335 0.961 . S
C335 C325 1.510 . S
C335 H333 0.959 . S
C335 H334 0.961 . S
C335 H336 0.960 . S
H336 C335 0.960 . S
H337 N317 0.862 . S
O338 Co306 1.920 . S
O338 C311 1.289 . S
C339 O331 1.258 . S
C339 O332 1.266 . S
Co340 O343 1.970 . S
Co340 N357 1.989 . S
Co340 O365 1.967 . S
Co340 O372 1.920 . S
Co341 O344 1.966 1_554 S
Co341 N350 2.022 . S
Co341 N358 1.993 1_554 S
Co341 O366 1.941 1_554 S
C342 O343 1.258 . S
C342 O344 1.263 . S
O343 Co340 1.970 . S
O343 C342 1.258 . S
O344 Co341 1.966 1_556 S
O344 C342 1.263 . S
C345 O346 1.235 . S
C345 O372 1.289 . S
O346 C345 1.235 . S
C347 C349 1.400 . S
C347 N350 1.351 . S
C347 C352 1.501 . S
C348 C349 1.387 . S
C348 N351 1.341 . S
C349 C347 1.400 . S
C349 C348 1.387 . S
N350 Co341 2.022 . S
N350 C347 1.351 . S
N350 N351 1.365 . S
N351 C348 1.341 . S
N351 N350 1.365 . S
N351 H371 0.862 . S
C352 C347 1.501 . S
C352 H353 0.961 . S
C352 H354 0.961 . S
C352 H355 0.960 . S
H353 C352 0.961 . S
H354 C352 0.961 . S
H355 C352 0.960 . S
C356 N357 1.342 . S
C356 C360 1.401 . S
C356 C361 1.499 . S
N357 Co340 1.989 . S
N357 C356 1.342 . S
N357 N358 1.388 . S
N358 Co341 1.993 1_556 S
N358 N357 1.388 . S
N358 C359 1.346 1_556 S
C359 N358 1.346 1_554 S
C359 C360 1.396 1_554 S
C359 C369 1.510 . S
C360 C356 1.401 . S
C360 C359 1.396 1_556 S
C361 C356 1.499 . S
C361 H362 0.959 . S
C361 H363 0.960 . S
C361 H364 0.961 . S
H362 C361 0.959 . S
H363 C361 0.960 . S
H364 C361 0.961 . S
O365 Co340 1.967 . S
O365 C373 1.258 . S
O366 Co341 1.941 1_556 S
O366 C373 1.266 . S
H367 C369 0.959 . S
H368 C369 0.961 . S
C369 C359 1.510 . S
C369 H367 0.959 . S
C369 H368 0.961 . S
C369 H370 0.960 . S
H370 C369 0.960 . S
H371 N351 0.862 . S
O372 Co340 1.920 . S
O372 C345 1.289 . S
C373 O365 1.258 . S
C373 O366 1.266 . S
Co374 O377 1.970 . S
Co374 N391 1.989 . S
Co374 O399 1.967 . S
Co374 O406 1.920 . S
Co375 O378 1.966 1_554 S
Co375 N384 2.022 . S
Co375 N392 1.993 1_554 S
Co375 O400 1.941 1_554 S
C376 O377 1.258 . S
C376 O378 1.263 . S
O377 Co374 1.970 . S
O377 C376 1.258 . S
O378 Co375 1.966 1_556 S
O378 C376 1.263 . S
C379 O380 1.235 . S
C379 O406 1.289 . S
O380 C379 1.235 . S
C381 C383 1.400 . S
C381 N384 1.351 . S
C381 C386 1.501 . S
C382 C383 1.387 . S
C382 N385 1.341 . S
C383 C381 1.400 . S
C383 C382 1.387 . S
N384 Co375 2.022 . S
N384 C381 1.351 . S
N384 N385 1.365 . S
N385 C382 1.341 . S
N385 N384 1.365 . S
N385 H405 0.862 . S
C386 C381 1.501 . S
C386 H387 0.961 . S
C386 H388 0.961 . S
C386 H389 0.960 . S
H387 C386 0.961 . S
H388 C386 0.961 . S
H389 C386 0.960 . S
C390 N391 1.342 . S
C390 C394 1.401 . S
C390 C395 1.499 . S
N391 Co374 1.989 . S
N391 C390 1.342 . S
N391 N392 1.388 . S
N392 Co375 1.993 1_556 S
N392 N391 1.388 . S
N392 C393 1.346 1_556 S
C393 N392 1.346 1_554 S
C393 C394 1.396 1_554 S
C393 C403 1.510 . S
C394 C390 1.401 . S
C394 C393 1.396 1_556 S
C395 C390 1.499 . S
C395 H396 0.959 . S
C395 H397 0.960 . S
C395 H398 0.961 . S
H396 C395 0.959 . S
H397 C395 0.960 . S
H398 C395 0.961 . S
O399 Co374 1.967 . S
O399 C407 1.258 . S
O400 Co375 1.941 1_556 S
O400 C407 1.266 . S
H401 C403 0.959 . S
H402 C403 0.961 . S
C403 C393 1.510 . S
C403 H401 0.959 . S
C403 H402 0.961 . S
C403 H404 0.960 . S
H404 C403 0.960 . S
H405 N385 0.862 . S
O406 Co374 1.920 . S
O406 C379 1.289 . S
C407 O399 1.258 . S
C407 O400 1.266 . S
Co408 O411 1.970 . S
Co408 N425 1.989 . S
Co408 O433 1.967 . S
Co408 O440 1.920 . S
Co409 O412 1.966 1_556 S
Co409 N418 2.022 . S
Co409 N426 1.993 1_556 S
Co409 O434 1.941 1_556 S
C410 O411 1.258 . S
C410 O412 1.263 . S
O411 Co408 1.970 . S
O411 C410 1.258 . S
O412 Co409 1.966 1_554 S
O412 C410 1.263 . S
C413 O414 1.235 . S
C413 O440 1.289 . S
O414 C413 1.235 . S
C415 C417 1.400 . S
C415 N418 1.351 . S
C415 C420 1.501 . S
C416 C417 1.387 . S
C416 N419 1.341 . S
C417 C415 1.400 . S
C417 C416 1.387 . S
N418 Co409 2.022 . S
N418 C415 1.351 . S
N418 N419 1.365 . S
N419 C416 1.341 . S
N419 N418 1.365 . S
N419 H439 0.862 . S
C420 C415 1.501 . S
C420 H421 0.961 . S
C420 H422 0.961 . S
C420 H423 0.960 . S
H421 C420 0.961 . S
H422 C420 0.961 . S
H423 C420 0.960 . S
C424 N425 1.342 . S
C424 C428 1.401 . S
C424 C429 1.499 . S
N425 Co408 1.989 . S
N425 C424 1.342 . S
N425 N426 1.388 . S
N426 Co409 1.993 1_554 S
N426 N425 1.388 . S
N426 C427 1.346 1_554 S
C427 N426 1.346 1_556 S
C427 C428 1.396 1_556 S
C427 C437 1.510 . S
C428 C424 1.401 . S
C428 C427 1.396 1_554 S
C429 C424 1.499 . S
C429 H430 0.959 . S
C429 H431 0.960 . S
C429 H432 0.961 . S
H430 C429 0.959 . S
H431 C429 0.960 . S
H432 C429 0.961 . S
O433 Co408 1.967 . S
O433 C441 1.258 . S
O434 Co409 1.941 1_554 S
O434 C441 1.266 . S
H435 C437 0.959 . S
H436 C437 0.961 . S
C437 C427 1.510 . S
C437 H435 0.959 . S
C437 H436 0.961 . S
C437 H438 0.960 . S
H438 C437 0.960 . S
H439 N419 0.862 . S
O440 Co408 1.920 . S
O440 C413 1.289 . S
C441 O433 1.258 . S
C441 O434 1.266 . S
Co442 O445 1.970 . S
Co442 N459 1.989 . S
Co442 O467 1.967 . S
Co442 O474 1.920 . S
Co443 O446 1.966 1_556 S
Co443 N452 2.022 . S
Co443 N460 1.993 1_556 S
Co443 O468 1.941 1_556 S
C444 O445 1.258 . S
C444 O446 1.263 . S
O445 Co442 1.970 . S
O445 C444 1.258 . S
O446 Co443 1.966 1_554 S
O446 C444 1.263 . S
C447 O448 1.235 . S
C447 O474 1.289 . S
O448 C447 1.235 . S
C449 C451 1.400 . S
C449 N452 1.351 . S
C449 C454 1.501 . S
C450 C451 1.387 . S
C450 N453 1.341 . S
C451 C449 1.400 . S
C451 C450 1.387 . S
N452 Co443 2.022 . S
N452 C449 1.351 . S
N452 N453 1.365 . S
N453 C450 1.341 . S
N453 N452 1.365 . S
N453 H473 0.862 . S
C454 C449 1.501 . S
C454 H455 0.961 . S
C454 H456 0.961 . S
C454 H457 0.960 . S
H455 C454 0.961 . S
H456 C454 0.961 . S
H457 C454 0.960 . S
C458 N459 1.342 . S
C458 C462 1.401 . S
C458 C463 1.499 . S
N459 Co442 1.989 . S
N459 C458 1.342 . S
N459 N460 1.388 . S
N460 Co443 1.993 1_554 S
N460 N459 1.388 . S
N460 C461 1.346 1_554 S
C461 N460 1.346 1_556 S
C461 C462 1.396 1_556 S
C461 C471 1.510 . S
C462 C458 1.401 . S
C462 C461 1.396 1_554 S
C463 C458 1.499 . S
C463 H464 0.959 . S
C463 H465 0.960 . S
C463 H466 0.961 . S
H464 C463 0.959 . S
H465 C463 0.960 . S
H466 C463 0.961 . S
O467 Co442 1.967 . S
O467 C475 1.258 . S
O468 Co443 1.941 1_554 S
O468 C475 1.266 . S
H469 C471 0.959 . S
H470 C471 0.961 . S
C471 C461 1.510 . S
C471 H469 0.959 . S
C471 H470 0.961 . S
C471 H472 0.960 . S
H472 C471 0.960 . S
H473 N453 0.862 . S
O474 Co442 1.920 . S
O474 C447 1.289 . S
C475 O467 1.258 . S
C475 O468 1.266 . S
Co476 O479 1.970 . S
Co476 N493 1.989 . S
Co476 O501 1.967 . S
Co476 O508 1.920 . S
Co477 O480 1.966 1_556 S
Co477 N486 2.022 . S
Co477 N494 1.993 1_556 S
Co477 O502 1.941 1_556 S
C478 O479 1.258 . S
C478 O480 1.263 . S
O479 Co476 1.970 . S
O479 C478 1.258 . S
O480 Co477 1.966 1_554 S
O480 C478 1.263 . S
C481 O482 1.235 . S
C481 O508 1.289 . S
O482 C481 1.235 . S
C483 C485 1.400 . S
C483 N486 1.351 . S
C483 C488 1.501 . S
C484 C485 1.387 . S
C484 N487 1.341 . S
C485 C483 1.400 . S
C485 C484 1.387 . S
N486 Co477 2.022 . S
N486 C483 1.351 . S
N486 N487 1.365 . S
N487 C484 1.341 . S
N487 N486 1.365 . S
N487 H507 0.862 . S
C488 C483 1.501 . S
C488 H489 0.961 . S
C488 H490 0.961 . S
C488 H491 0.960 . S
H489 C488 0.961 . S
H490 C488 0.961 . S
H491 C488 0.960 . S
C492 N493 1.342 . S
C492 C496 1.401 . S
C492 C497 1.499 . S
N493 Co476 1.989 . S
N493 C492 1.342 . S
N493 N494 1.388 . S
N494 Co477 1.993 1_554 S
N494 N493 1.388 . S
N494 C495 1.346 1_554 S
C495 N494 1.346 1_556 S
C495 C496 1.396 1_556 S
C495 C505 1.510 . S
C496 C492 1.401 . S
C496 C495 1.396 1_554 S
C497 C492 1.499 . S
C497 H498 0.959 . S
C497 H499 0.960 . S
C497 H500 0.961 . S
H498 C497 0.959 . S
H499 C497 0.960 . S
H500 C497 0.961 . S
O501 Co476 1.967 . S
O501 C509 1.258 . S
O502 Co477 1.941 1_554 S
O502 C509 1.266 . S
H503 C505 0.959 . S
H504 C505 0.961 . S
C505 C495 1.510 . S
C505 H503 0.959 . S
C505 H504 0.961 . S
C505 H506 0.960 . S
H506 C505 0.960 . S
H507 N487 0.862 . S
O508 Co476 1.920 . S
O508 C481 1.289 . S
C509 O501 1.258 . S
C509 O502 1.266 . S
Co510 O513 1.970 . S
Co510 N527 1.989 . S
Co510 O535 1.967 . S
Co510 O542 1.920 . S
Co511 O514 1.966 . S
Co511 N520 2.022 . S
Co511 N528 1.993 . S
Co511 O536 1.941 . S
C512 O513 1.258 . S
C512 O514 1.263 . S
O513 Co510 1.970 . S
O513 C512 1.258 . S
O514 Co511 1.966 . S
O514 C512 1.263 . S
C515 O516 1.234 . S
C515 O542 1.289 1_556 S
O516 C515 1.234 . S
C517 C519 1.400 . S
C517 N520 1.351 . S
C517 C522 1.501 . S
C518 C519 1.387 . S
C518 N521 1.341 . S
C519 C517 1.400 . S
C519 C518 1.387 . S
N520 Co511 2.022 . S
N520 C517 1.351 . S
N520 N521 1.365 . S
N521 C518 1.341 . S
N521 N520 1.365 . S
N521 H541 0.862 . S
C522 C517 1.501 . S
C522 H523 0.961 . S
C522 H524 0.961 . S
C522 H525 0.960 . S
H523 C522 0.961 . S
H524 C522 0.961 . S
H525 C522 0.960 . S
C526 N527 1.342 . S
C526 C530 1.401 . S
C526 C531 1.499 . S
N527 Co510 1.989 . S
N527 C526 1.342 . S
N527 N528 1.388 . S
N528 Co511 1.993 . S
N528 N527 1.388 . S
N528 C529 1.346 . S
C529 N528 1.346 . S
C529 C530 1.396 . S
C529 C539 1.510 . S
C530 C526 1.401 . S
C530 C529 1.396 . S
C531 C526 1.499 . S
C531 H532 0.959 . S
C531 H533 0.960 . S
C531 H534 0.961 . S
H532 C531 0.959 . S
H533 C531 0.960 . S
H534 C531 0.961 . S
O535 Co510 1.967 . S
O535 C543 1.258 . S
O536 Co511 1.941 . S
O536 C543 1.266 . S
H537 C539 0.959 . S
H538 C539 0.961 . S
C539 C529 1.510 . S
C539 H537 0.959 . S
C539 H538 0.961 . S
C539 H540 0.960 . S
H540 C539 0.960 . S
H541 N521 0.862 . S
O542 Co510 1.920 . S
O542 C515 1.289 1_554 S
C543 O535 1.258 . S
C543 O536 1.266 . S
Co544 O547 1.970 . S
Co544 N561 1.989 . S
Co544 O569 1.967 . S
Co544 O576 1.920 . S
Co545 O548 1.966 . S
Co545 N554 2.022 . S
Co545 N562 1.993 . S
Co545 O570 1.941 . S
C546 O547 1.258 . S
C546 O548 1.263 . S
O547 Co544 1.970 . S
O547 C546 1.258 . S
O548 Co545 1.966 . S
O548 C546 1.263 . S
C549 O550 1.235 . S
C549 O576 1.289 1_556 S
O550 C549 1.235 . S
C551 C553 1.400 . S
C551 N554 1.351 . S
C551 C556 1.501 . S
C552 C553 1.387 . S
C552 N555 1.341 . S
C553 C551 1.400 . S
C553 C552 1.387 . S
N554 Co545 2.022 . S
N554 C551 1.351 . S
N554 N555 1.365 . S
N555 C552 1.341 . S
N555 N554 1.365 . S
N555 H575 0.862 . S
C556 C551 1.501 . S
C556 H557 0.961 . S
C556 H558 0.961 . S
C556 H559 0.960 . S
H557 C556 0.961 . S
H558 C556 0.961 . S
H559 C556 0.960 . S
C560 N561 1.342 . S
C560 C564 1.401 . S
C560 C565 1.499 . S
N561 Co544 1.989 . S
N561 C560 1.342 . S
N561 N562 1.388 . S
N562 Co545 1.993 . S
N562 N561 1.388 . S
N562 C563 1.346 . S
C563 N562 1.346 . S
C563 C564 1.396 . S
C563 C573 1.510 . S
C564 C560 1.401 . S
C564 C563 1.396 . S
C565 C560 1.499 . S
C565 H566 0.959 . S
C565 H567 0.960 . S
C565 H568 0.961 . S
H566 C565 0.959 . S
H567 C565 0.960 . S
H568 C565 0.961 . S
O569 Co544 1.967 . S
O569 C577 1.258 . S
O570 Co545 1.941 . S
O570 C577 1.266 . S
H571 C573 0.959 . S
H572 C573 0.961 . S
C573 C563 1.510 . S
C573 H571 0.959 . S
C573 H572 0.961 . S
C573 H574 0.960 . S
H574 C573 0.960 . S
H575 N555 0.862 . S
O576 Co544 1.920 . S
O576 C549 1.289 1_554 S
C577 O569 1.258 . S
C577 O570 1.266 . S
Co578 O581 1.970 . S
Co578 N595 1.989 . S
Co578 O603 1.967 . S
Co578 O610 1.920 . S
Co579 O582 1.966 . S
Co579 N588 2.022 . S
Co579 N596 1.993 . S
Co579 O604 1.941 . S
C580 O581 1.258 . S
C580 O582 1.263 . S
O581 Co578 1.970 . S
O581 C580 1.258 . S
O582 Co579 1.966 . S
O582 C580 1.263 . S
C583 O584 1.235 . S
C583 O610 1.289 1_556 S
O584 C583 1.235 . S
C585 C587 1.400 . S
C585 N588 1.351 . S
C585 C590 1.501 . S
C586 C587 1.387 . S
C586 N589 1.341 . S
C587 C585 1.400 . S
C587 C586 1.387 . S
N588 Co579 2.022 . S
N588 C585 1.351 . S
N588 N589 1.365 . S
N589 C586 1.341 . S
N589 N588 1.365 . S
N589 H609 0.862 . S
C590 C585 1.501 . S
C590 H591 0.961 . S
C590 H592 0.961 . S
C590 H593 0.960 . S
H591 C590 0.961 . S
H592 C590 0.961 . S
H593 C590 0.960 . S
C594 N595 1.342 . S
C594 C598 1.401 . S
C594 C599 1.499 . S
N595 Co578 1.989 . S
N595 C594 1.342 . S
N595 N596 1.388 . S
N596 Co579 1.993 . S
N596 N595 1.388 . S
N596 C597 1.346 . S
C597 N596 1.346 . S
C597 C598 1.396 . S
C597 C607 1.510 . S
C598 C594 1.401 . S
C598 C597 1.396 . S
C599 C594 1.499 . S
C599 H600 0.959 . S
C599 H601 0.960 . S
C599 H602 0.961 . S
H600 C599 0.959 . S
H601 C599 0.960 . S
H602 C599 0.961 . S
O603 Co578 1.967 . S
O603 C611 1.258 . S
O604 Co579 1.941 . S
O604 C611 1.266 . S
H605 C607 0.959 . S
H606 C607 0.961 . S
C607 C597 1.510 . S
C607 H605 0.959 . S
C607 H606 0.961 . S
C607 H608 0.960 . S
H608 C607 0.960 . S
H609 N589 0.862 . S
O610 Co578 1.920 . S
O610 C583 1.289 1_554 S
C611 O603 1.258 . S
C611 O604 1.266 . S
C612 C613 1.363 . S
C612 C618 1.379 . S
C612 N620 1.356 . S
C613 C612 1.363 . S
C613 C619 1.363 . S
C614 C615 1.363 . S
C614 C619 1.379 . S
C614 N621 1.356 . S
C615 C614 1.363 . S
C615 C618 1.363 . S
N616 C618 1.356 . S
N616 H628 0.984 . S
N616 H629 0.985 . S
N617 C619 1.356 . S
N617 H622 0.984 . S
N617 H623 0.985 . S
C618 C612 1.379 . S
C618 C615 1.363 . S
C618 N616 1.356 . S
C619 C613 1.363 . S
C619 C614 1.379 . S
C619 N617 1.356 . S
N620 C612 1.356 . S
N620 H626 0.984 . S
N620 H627 0.984 . S
N621 C614 1.356 . S
N621 H624 0.984 . S
N621 H625 0.985 . S
H622 N617 0.984 . S
H623 N617 0.985 . S
H624 N621 0.984 . S
H625 N621 0.985 . S
H626 N620 0.984 . S
H627 N620 0.984 . S
H628 N616 0.984 . S
H629 N616 0.985 . S
C630 C631 1.363 . S
C630 C636 1.379 1_545 S
C630 N638 1.356 . S
C631 C630 1.363 . S
C631 C637 1.363 . S
C632 C633 1.363 . S
C632 C637 1.379 1_565 S
C632 N639 1.356 . S
C633 C632 1.363 . S
C633 C636 1.363 . S
N634 C636 1.356 . S
N634 H646 0.984 . S
N634 H647 0.985 . S
N635 C637 1.356 . S
N635 H640 0.984 . S
N635 H641 0.985 . S
C636 C630 1.379 1_565 S
C636 C633 1.363 . S
C636 N634 1.356 . S
C637 C631 1.363 . S
C637 C632 1.379 1_545 S
C637 N635 1.356 . S
N638 C630 1.356 . S
N638 H644 0.984 . S
N638 H645 0.984 . S
N639 C632 1.356 . S
N639 H642 0.984 . S
N639 H643 0.985 . S
H640 N635 0.984 . S
H641 N635 0.985 . S
H642 N639 0.984 . S
H643 N639 0.985 . S
H644 N638 0.984 . S
H645 N638 0.984 . S
H646 N634 0.984 . S
H647 N634 0.985 . S
C648 C649 1.363 . S
C648 C654 1.379 1_655 S
C648 N656 1.356 . S
C649 C648 1.363 . S
C649 C655 1.363 . S
C650 C651 1.363 . S
C650 C655 1.379 1_455 S
C650 N657 1.356 . S
C651 C650 1.363 . S
C651 C654 1.363 . S
N652 C654 1.356 . S
N652 H664 0.984 . S
N652 H665 0.985 . S
N653 C655 1.356 . S
N653 H658 0.984 . S
N653 H659 0.985 . S
C654 C648 1.379 1_455 S
C654 C651 1.363 . S
C654 N652 1.356 . S
C655 C649 1.363 . S
C655 C650 1.379 1_655 S
C655 N653 1.356 . S
N656 C648 1.356 . S
N656 H662 0.984 . S
N656 H663 0.984 . S
N657 C650 1.356 . S
N657 H660 0.984 . S
N657 H661 0.985 . S
H658 N653 0.984 . S
H659 N653 0.985 . S
H660 N657 0.984 . S
H661 N657 0.985 . S
H662 N656 0.984 . S
H663 N656 0.984 . S
H664 N652 0.984 . S
H665 N652 0.985 . S
C666 C667 1.363 . S
C666 C672 1.379 . S
C666 N674 1.356 . S
C667 C666 1.363 . S
C667 C673 1.363 . S
C668 C669 1.363 . S
C668 C673 1.379 . S
C668 N675 1.356 . S
C669 C668 1.363 . S
C669 C672 1.363 . S
N670 C672 1.356 . S
N670 H682 0.984 . S
N670 H683 0.985 . S
N671 C673 1.356 . S
N671 H676 0.984 . S
N671 H677 0.985 . S
C672 C666 1.379 . S
C672 C669 1.363 . S
C672 N670 1.356 . S
C673 C667 1.363 . S
C673 C668 1.379 . S
C673 N671 1.356 . S
N674 C666 1.356 . S
N674 H680 0.984 . S
N674 H681 0.984 . S
N675 C668 1.356 . S
N675 H678 0.984 . S
N675 H679 0.985 . S
H676 N671 0.984 . S
H677 N671 0.985 . S
H678 N675 0.984 . S
H679 N675 0.985 . S
H680 N674 0.984 . S
H681 N674 0.984 . S
H682 N670 0.984 . S
H683 N670 0.985 . S
C684 C685 1.363 . S
C684 C690 1.379 1_545 S
C684 N692 1.356 . S
C685 C684 1.363 . S
C685 C691 1.363 . S
C686 C687 1.363 . S
C686 C691 1.379 1_565 S
C686 N693 1.356 . S
C687 C686 1.363 . S
C687 C690 1.363 . S
N688 C690 1.356 . S
N688 H700 0.984 . S
N688 H701 0.985 . S
N689 C691 1.356 . S
N689 H694 0.984 . S
N689 H695 0.985 . S
C690 C684 1.379 1_565 S
C690 C687 1.363 . S
C690 N688 1.356 . S
C691 C685 1.363 . S
C691 C686 1.379 1_545 S
C691 N689 1.356 . S
N692 C684 1.356 . S
N692 H698 0.984 . S
N692 H699 0.984 . S
N693 C686 1.356 . S
N693 H696 0.984 . S
N693 H697 0.985 . S
H694 N689 0.984 . S
H695 N689 0.985 . S
H696 N693 0.984 . S
H697 N693 0.985 . S
H698 N692 0.984 . S
H699 N692 0.984 . S
H700 N688 0.984 . S
H701 N688 0.985 . S
C702 C703 1.363 . S
C702 C708 1.379 1_655 S
C702 N710 1.356 . S
C703 C702 1.363 . S
C703 C709 1.363 . S
C704 C705 1.363 . S
C704 C709 1.379 1_455 S
C704 N711 1.356 . S
C705 C704 1.363 . S
C705 C708 1.363 . S
N706 C708 1.356 . S
N706 H718 0.984 . S
N706 H719 0.985 . S
N707 C709 1.356 . S
N707 H712 0.984 . S
N707 H713 0.985 . S
C708 C702 1.379 1_455 S
C708 C705 1.363 . S
C708 N706 1.356 . S
C709 C703 1.363 . S
C709 C704 1.379 1_655 S
C709 N707 1.356 . S
N710 C702 1.356 . S
N710 H716 0.984 . S
N710 H717 0.984 . S
N711 C704 1.356 . S
N711 H714 0.984 . S
N711 H715 0.985 . S
H712 N707 0.984 . S
H713 N707 0.985 . S
H714 N711 0.984 . S
H715 N711 0.985 . S
H716 N710 0.984 . S
H717 N710 0.984 . S
H718 N706 0.984 . S
H719 N706 0.985 . S
C720 C721 1.363 . S
C720 C726 1.379 . S
C720 N728 1.356 1_556 S
C721 C720 1.363 . S
C721 C727 1.363 . S
C722 C723 1.363 . S
C722 C727 1.379 . S
C722 N729 1.356 . S
C723 C722 1.363 . S
C723 C726 1.363 . S
N724 C726 1.356 . S
N724 H736 0.984 . S
N724 H737 0.985 . S
N725 C727 1.356 . S
N725 H730 0.984 . S
N725 H731 0.985 . S
C726 C720 1.379 . S
C726 C723 1.363 . S
C726 N724 1.356 . S
C727 C721 1.363 . S
C727 C722 1.379 . S
C727 N725 1.356 . S
N728 C720 1.356 1_554 S
N728 H734 0.985 . S
N728 H735 0.985 . S
N729 C722 1.356 . S
N729 H732 0.984 . S
N729 H733 0.985 . S
H730 N725 0.984 . S
H731 N725 0.985 . S
H732 N729 0.984 . S
H733 N729 0.985 . S
H734 N728 0.985 . S
H735 N728 0.985 . S
H736 N724 0.984 . S
H737 N724 0.985 . S
C738 C739 1.363 . S
C738 C744 1.379 . S
C738 N746 1.356 . S
C739 C738 1.363 . S
C739 C745 1.363 . S
C740 C741 1.363 . S
C740 C745 1.379 . S
C740 N747 1.356 . S
C741 C740 1.363 . S
C741 C744 1.363 . S
N742 C744 1.356 . S
N742 H754 0.984 . S
N742 H755 0.985 . S
N743 C745 1.356 . S
N743 H748 0.984 . S
N743 H749 0.985 . S
C744 C738 1.379 . S
C744 C741 1.363 . S
C744 N742 1.356 . S
C745 C739 1.363 . S
C745 C740 1.379 . S
C745 N743 1.356 . S
N746 C738 1.356 . S
N746 H752 0.984 . S
N746 H753 0.984 . S
N747 C740 1.356 . S
N747 H750 0.984 . S
N747 H751 0.985 . S
H748 N743 0.984 . S
H749 N743 0.985 . S
H750 N747 0.984 . S
H751 N747 0.985 . S
H752 N746 0.984 . S
H753 N746 0.984 . S
H754 N742 0.984 . S
H755 N742 0.985 . S
C756 C757 1.363 . S
C756 C762 1.379 . S
C756 N764 1.356 . S
C757 C756 1.363 . S
C757 C763 1.363 . S
C758 C759 1.363 . S
C758 C763 1.379 . S
C758 N765 1.356 . S
C759 C758 1.363 . S
C759 C762 1.363 . S
N760 C762 1.356 . S
N760 H772 0.984 . S
N760 H773 0.985 . S
N761 C763 1.356 . S
N761 H766 0.984 . S
N761 H767 0.985 . S
C762 C756 1.379 . S
C762 C759 1.363 . S
C762 N760 1.356 . S
C763 C757 1.363 . S
C763 C758 1.379 . S
C763 N761 1.356 . S
N764 C756 1.356 . S
N764 H770 0.984 . S
N764 H771 0.984 . S
N765 C758 1.356 . S
N765 H768 0.984 . S
N765 H769 0.985 1_556 S
H766 N761 0.984 . S
H767 N761 0.985 . S
H768 N765 0.984 . S
H769 N765 0.985 1_554 S
H770 N764 0.984 . S
H771 N764 0.984 . S
H772 N760 0.984 . S
H773 N760 0.985 . S
C774 C775 1.363 . S
C774 C780 1.379 . S
C774 N782 1.356 . S
C775 C774 1.363 . S
C775 C781 1.363 . S
C776 C777 1.363 . S
C776 C781 1.379 . S
C776 N783 1.356 . S
C777 C776 1.363 . S
C777 C780 1.363 . S
N778 C780 1.356 . S
N778 H790 0.984 . S
N778 H791 0.985 . S
N779 C781 1.356 . S
N779 H784 0.984 . S
N779 H785 0.985 . S
C780 C774 1.379 . S
C780 C777 1.363 . S
C780 N778 1.356 . S
C781 C775 1.363 . S
C781 C776 1.379 . S
C781 N779 1.356 . S
N782 C774 1.356 . S
N782 H788 0.984 . S
N782 H789 0.984 . S
N783 C776 1.356 . S
N783 H786 0.984 . S
N783 H787 0.985 . S
H784 N779 0.984 . S
H785 N779 0.985 . S
H786 N783 0.984 . S
H787 N783 0.985 . S
H788 N782 0.984 . S
H789 N782 0.984 . S
H790 N778 0.984 . S
H791 N778 0.985 . S
C792 C793 1.363 . S
C792 C798 1.379 . S
C792 N800 1.356 . S
C793 C792 1.363 . S
C793 C799 1.363 . S
C794 C795 1.363 . S
C794 C799 1.379 . S
C794 N801 1.356 . S
C795 C794 1.363 . S
C795 C798 1.363 . S
N796 C798 1.356 . S
N796 H808 0.984 1_556 S
N796 H809 0.985 . S
N797 C799 1.356 . S
N797 H802 0.984 . S
N797 H803 0.985 . S
C798 C792 1.379 . S
C798 C795 1.363 . S
C798 N796 1.356 . S
C799 C793 1.363 . S
C799 C794 1.379 . S
C799 N797 1.356 . S
N800 C792 1.356 . S
N800 H806 0.984 . S
N800 H807 0.984 . S
N801 C794 1.356 . S
N801 H804 0.984 . S
N801 H805 0.985 . S
H802 N797 0.984 . S
H803 N797 0.985 . S
H804 N801 0.984 . S
H805 N801 0.985 . S
H806 N800 0.984 . S
H807 N800 0.984 . S
H808 N796 0.984 1_554 S
H809 N796 0.985 . S
C810 C811 1.363 . S
C810 C816 1.379 . S
C810 N818 1.356 . S
C811 C810 1.363 . S
C811 C817 1.363 . S
C812 C813 1.363 . S
C812 C817 1.379 . S
C812 N819 1.356 . S
C813 C812 1.363 . S
C813 C816 1.363 . S
N814 C816 1.356 . S
N814 H826 0.984 . S
N814 H827 0.985 . S
N815 C817 1.356 . S
N815 H820 0.984 . S
N815 H821 0.985 . S
C816 C810 1.379 . S
C816 C813 1.363 . S
C816 N814 1.356 . S
C817 C811 1.363 . S
C817 C812 1.379 . S
C817 N815 1.356 . S
N818 C810 1.356 . S
N818 H824 0.984 1_556 S
N818 H825 0.984 1_556 S
N819 C812 1.356 . S
N819 H822 0.984 . S
N819 H823 0.985 . S
H820 N815 0.984 . S
H821 N815 0.985 . S
H822 N819 0.984 . S
H823 N819 0.985 . S
H824 N818 0.984 1_554 S
H825 N818 0.984 1_554 S
H826 N814 0.984 . S
H827 N814 0.985 . S
C828 C829 1.363 . S
C828 C834 1.379 . S
C828 N836 1.356 . S
C829 C828 1.363 . S
C829 C835 1.363 . S
C830 C831 1.363 . S
C830 C835 1.379 . S
C830 N837 1.356 . S
C831 C830 1.363 . S
C831 C834 1.363 . S
N832 C834 1.356 . S
N832 H844 0.984 . S
N832 H845 0.985 . S
N833 C835 1.355 1_556 S
N833 H838 0.985 . S
N833 H839 0.986 . S
C834 C828 1.379 . S
C834 C831 1.363 . S
C834 N832 1.356 . S
C835 C829 1.363 . S
C835 C830 1.379 . S
C835 N833 1.355 1_554 S
N836 C828 1.356 . S
N836 H842 0.984 . S
N836 H843 0.984 . S
N837 C830 1.356 . S
N837 H840 0.984 . S
N837 H841 0.985 . S
H838 N833 0.985 . S
H839 N833 0.986 . S
H840 N837 0.984 . S
H841 N837 0.985 . S
H842 N836 0.984 . S
H843 N836 0.984 . S
H844 N832 0.984 . S
H845 N832 0.985 . S
C846 C847 1.363 . S
C846 C852 1.379 . S
C846 N854 1.356 . S
C847 C846 1.363 . S
C847 C853 1.363 . S
C848 C849 1.363 . S
C848 C853 1.379 . S
C848 N855 1.356 . S
C849 C848 1.363 . S
C849 C852 1.363 . S
N850 C852 1.356 . S
N850 H862 0.984 1_554 S
N850 H863 0.985 . S
N851 C853 1.356 . S
N851 H856 0.984 . S
N851 H857 0.985 . S
C852 C846 1.379 . S
C852 C849 1.363 . S
C852 N850 1.356 . S
C853 C847 1.363 . S
C853 C848 1.379 . S
C853 N851 1.356 . S
N854 C846 1.356 . S
N854 H860 0.984 . S
N854 H861 0.984 . S
N855 C848 1.356 . S
N855 H858 0.984 . S
N855 H859 0.985 . S
H856 N851 0.984 . S
H857 N851 0.985 . S
H858 N855 0.984 . S
H859 N855 0.985 . S
H860 N854 0.984 . S
H861 N854 0.984 . S
H862 N850 0.984 1_556 S
H863 N850 0.985 . S
C864 C865 1.363 . S
C864 C870 1.379 . S
C864 N872 1.356 . S
C865 C864 1.363 . S
C865 C871 1.363 . S
C866 C867 1.363 . S
C866 C871 1.379 . S
C866 N873 1.356 . S
C867 C866 1.363 . S
C867 C870 1.363 . S
N868 C870 1.356 . S
N868 H880 0.984 . S
N868 H881 0.985 . S
N869 C871 1.356 . S
N869 H874 0.984 . S
N869 H875 0.985 1_554 S
C870 C864 1.379 . S
C870 C867 1.363 . S
C870 N868 1.356 . S
C871 C865 1.363 . S
C871 C866 1.379 . S
C871 N869 1.356 . S
N872 C864 1.356 . S
N872 H878 0.984 . S
N872 H879 0.984 . S
N873 C866 1.356 . S
N873 H876 0.984 . S
N873 H877 0.985 . S
H874 N869 0.984 . S
H875 N869 0.985 1_556 S
H876 N873 0.984 . S
H877 N873 0.985 . S
H878 N872 0.984 . S
H879 N872 0.984 . S
H880 N868 0.984 . S
H881 N868 0.985 . S
C882 C883 1.363 . S
C882 C888 1.379 . S
C882 N890 1.356 . S
C883 C882 1.363 . S
C883 C889 1.363 . S
C884 C885 1.363 . S
C884 C889 1.379 . S
C884 N891 1.356 . S
C885 C884 1.363 . S
C885 C888 1.363 . S
N886 C888 1.356 . S
N886 H898 0.984 . S
N886 H899 0.985 . S
N887 C889 1.356 . S
N887 H892 0.984 . S
N887 H893 0.985 . S
C888 C882 1.379 . S
C888 C885 1.363 . S
C888 N886 1.356 . S
C889 C883 1.363 . S
C889 C884 1.379 . S
C889 N887 1.356 . S
N890 C882 1.356 . S
N890 H896 0.984 . S
N890 H897 0.984 . S
N891 C884 1.356 . S
N891 H894 0.984 . S
N891 H895 0.985 . S
H892 N887 0.984 . S
H893 N887 0.985 . S
H894 N891 0.984 . S
H895 N891 0.985 . S
H896 N890 0.984 . S
H897 N890 0.984 . S
H898 N886 0.984 . S
H899 N886 0.985 . S
C900 C901 1.363 . S
C900 C906 1.379 . S
C900 N908 1.356 . S
C901 C900 1.363 . S
C901 C907 1.363 . S
C902 C903 1.363 . S
C902 C907 1.379 . S
C902 N909 1.356 . S
C903 C902 1.363 . S
C903 C906 1.363 . S
N904 C906 1.356 . S
N904 H916 0.984 . S
N904 H917 0.985 . S
N905 C907 1.356 . S
N905 H910 0.984 . S
N905 H911 0.985 . S
C906 C900 1.379 . S
C906 C903 1.363 . S
C906 N904 1.356 . S
C907 C901 1.363 . S
C907 C902 1.379 . S
C907 N905 1.356 . S
N908 C900 1.356 . S
N908 H914 0.984 . S
N908 H915 0.984 . S
N909 C902 1.356 . S
N909 H912 0.984 . S
N909 H913 0.988 . S
H910 N905 0.984 . S
H911 N905 0.985 . S
H912 N909 0.984 . S
H913 N909 0.988 . S
H914 N908 0.984 . S
H915 N908 0.984 . S
H916 N904 0.984 . S
H917 N904 0.985 . S
C918 C919 1.363 . S
C918 C924 1.379 . S
C918 N926 1.361 . S
C919 C918 1.363 . S
C919 C925 1.363 . S
C920 C921 1.363 . S
C920 C925 1.379 . S
C920 N927 1.356 . S
C921 C920 1.363 . S
C921 C924 1.363 . S
N922 C924 1.356 . S
N922 H934 0.984 . S
N922 H935 0.985 . S
N923 C925 1.356 . S
N923 H928 0.984 . S
N923 H929 0.985 . S
C924 C918 1.379 . S
C924 C921 1.363 . S
C924 N922 1.356 . S
C925 C919 1.363 . S
C925 C920 1.379 . S
C925 N923 1.356 . S
N926 C918 1.361 . S
N926 H932 0.980 1_554 S
N926 H933 0.984 1_554 S
N927 C920 1.356 . S
N927 H930 0.984 . S
N927 H931 0.985 . S
H928 N923 0.984 . S
H929 N923 0.985 . S
H930 N927 0.984 . S
H931 N927 0.985 . S
H932 N926 0.980 1_556 S
H933 N926 0.984 1_556 S
H934 N922 0.984 . S
H935 N922 0.985 . S
C936 C937 1.363 . S
C936 C942 1.379 . S
C936 N944 1.356 . S
C937 C936 1.363 . S
C937 C943 1.363 . S
C938 C939 1.363 . S
C938 C943 1.379 . S
C938 N945 1.356 . S
C939 C938 1.363 . S
C939 C942 1.363 . S
N940 C942 1.356 . S
N940 H952 0.984 . S
N940 H953 0.985 . S
N941 C943 1.356 . S
N941 H946 0.984 . S
N941 H947 0.985 . S
C942 C936 1.379 . S
C942 C939 1.363 . S
C942 N940 1.356 . S
C943 C937 1.363 . S
C943 C938 1.379 . S
C943 N941 1.356 . S
N944 C936 1.356 . S
N944 H950 0.984 . S
N944 H951 0.984 . S
N945 C938 1.356 . S
N945 H948 0.984 . S
N945 H949 0.985 . S
H946 N941 0.984 . S
H947 N941 0.985 . S
H948 N945 0.984 . S
H949 N945 0.985 . S
H950 N944 0.984 . S
H951 N944 0.984 . S
H952 N940 0.984 . S
H953 N940 0.985 . S
C954 C955 1.363 . S
C954 C960 1.379 . S
C954 N962 1.356 . S
C955 C954 1.363 . S
C955 C961 1.363 . S
C956 C957 1.363 . S
C956 C961 1.379 . S
C956 N963 1.356 . S
C957 C956 1.363 . S
C957 C960 1.363 . S
N958 C960 1.356 . S
N958 H970 0.984 . S
N958 H971 0.985 . S
N959 C961 1.356 . S
N959 H964 0.984 . S
N959 H965 0.985 . S
C960 C954 1.379 . S
C960 C957 1.363 . S
C960 N958 1.356 . S
C961 C955 1.363 . S
C961 C956 1.379 . S
C961 N959 1.356 . S
N962 C954 1.356 . S
N962 H968 0.984 . S
N962 H969 0.984 . S
N963 C956 1.356 . S
N963 H966 0.984 . S
N963 H967 0.985 . S
H964 N959 0.984 . S
H965 N959 0.985 . S
H966 N963 0.984 . S
H967 N963 0.985 . S
H968 N962 0.984 . S
H969 N962 0.984 . S
H970 N958 0.984 . S
H971 N958 0.985 . S
C972 C973 1.363 . S
C972 C978 1.379 . S
C972 N980 1.356 . S
C973 C972 1.363 . S
C973 C979 1.363 . S
C974 C975 1.363 . S
C974 C979 1.379 . S
C974 N981 1.356 . S
C975 C974 1.363 . S
C975 C978 1.363 . S
N976 C978 1.356 . S
N976 H988 0.984 . S
N976 H989 0.985 . S
N977 C979 1.356 . S
N977 H982 0.984 . S
N977 H983 0.985 . S
C978 C972 1.379 . S
C978 C975 1.363 . S
C978 N976 1.356 . S
C979 C973 1.363 . S
C979 C974 1.379 . S
C979 N977 1.356 . S
N980 C972 1.356 . S
N980 H986 0.984 . S
N980 H987 0.984 . S
N981 C974 1.356 . S
N981 H984 0.984 . S
N981 H985 0.985 . S
H982 N977 0.984 . S
H983 N977 0.985 . S
H984 N981 0.984 . S
H985 N981 0.985 . S
H986 N980 0.984 . S
H987 N980 0.984 . S
H988 N976 0.984 . S
H989 N976 0.985 . S
C990 C991 1.363 . S
C990 C996 1.379 . S
C990 N998 1.356 . S
C991 C990 1.363 . S
C991 C997 1.363 . S
C992 C993 1.363 . S
C992 C997 1.379 . S
C992 N999 1.356 . S
C993 C992 1.363 . S
C993 C996 1.363 . S
N994 C996 1.356 . S
N994 H1006 0.984 . S
N994 H1007 0.985 . S
N995 C997 1.356 . S
N995 H1000 0.984 . S
N995 H1001 0.985 . S
C996 C990 1.379 . S
C996 C993 1.363 . S
C996 N994 1.356 . S
C997 C991 1.363 . S
C997 C992 1.379 . S
C997 N995 1.356 . S
N998 C990 1.356 . S
N998 H1004 0.984 . S
N998 H1005 0.984 . S
N999 C992 1.356 . S
N999 H1002 0.984 . S
N999 H1003 0.985 . S
H1000 N995 0.984 . S
H1001 N995 0.985 . S
H1002 N999 0.984 . S
H1003 N999 0.985 . S
H1004 N998 0.984 . S
H1005 N998 0.984 . S
H1006 N994 0.984 . S
H1007 N994 0.985 . S
C1008 C1009 1.363 . S
C1008 C1014 1.379 . S
C1008 N1016 1.356 . S
C1009 C1008 1.363 . S
C1009 C1015 1.363 . S
C1010 C1011 1.363 . S
C1010 C1015 1.379 . S
C1010 N1017 1.356 . S
C1011 C1010 1.363 . S
C1011 C1014 1.363 . S
N1012 C1014 1.356 . S
N1012 H1024 0.984 . S
N1012 H1025 0.985 . S
N1013 C1015 1.356 . S
N1013 H1018 0.984 . S
N1013 H1019 0.985 . S
C1014 C1008 1.379 . S
C1014 C1011 1.363 . S
C1014 N1012 1.356 . S
C1015 C1009 1.363 . S
C1015 C1010 1.379 . S
C1015 N1013 1.356 . S
N1016 C1008 1.356 . S
N1016 H1022 0.984 . S
N1016 H1023 0.984 . S
N1017 C1010 1.356 . S
N1017 H1020 0.984 . S
N1017 H1021 0.985 . S
H1018 N1013 0.984 . S
H1019 N1013 0.985 . S
H1020 N1017 0.984 . S
H1021 N1017 0.985 . S
H1022 N1016 0.984 . S
H1023 N1016 0.984 . S
H1024 N1012 0.984 . S
H1025 N1012 0.985 . S
C1026 C1027 1.363 . S
C1026 C1032 1.379 . S
C1026 N1034 1.356 . S
C1027 C1026 1.363 . S
C1027 C1033 1.363 . S
C1028 C1029 1.363 . S
C1028 C1033 1.379 . S
C1028 N1035 1.356 . S
C1029 C1028 1.363 . S
C1029 C1032 1.363 . S
N1030 C1032 1.356 . S
N1030 H1042 0.984 . S
N1030 H1043 0.985 . S
N1031 C1033 1.356 . S
N1031 H1036 0.984 . S
N1031 H1037 0.985 . S
C1032 C1026 1.379 . S
C1032 C1029 1.363 . S
C1032 N1030 1.356 . S
C1033 C1027 1.363 . S
C1033 C1028 1.379 . S
C1033 N1031 1.356 . S
N1034 C1026 1.356 . S
N1034 H1040 0.984 . S
N1034 H1041 0.984 . S
N1035 C1028 1.356 . S
N1035 H1038 0.984 . S
N1035 H1039 0.985 . S
H1036 N1031 0.984 . S
H1037 N1031 0.985 . S
H1038 N1035 0.984 . S
H1039 N1035 0.985 . S
H1040 N1034 0.984 . S
H1041 N1034 0.984 . S
H1042 N1030 0.984 . S
H1043 N1030 0.985 . S
C1044 C1045 1.363 1_556 S
C1044 C1050 1.379 1_455 S
C1044 N1052 1.356 . S
C1045 C1044 1.363 1_554 S
C1045 C1051 1.363 . S
C1046 C1047 1.363 1_554 S
C1046 C1051 1.379 1_655 S
C1046 N1053 1.356 . S
C1047 C1046 1.363 1_556 S
C1047 C1050 1.363 . S
N1048 C1050 1.356 . S
N1048 H1060 0.984 . S
N1048 H1061 0.985 . S
N1049 C1051 1.356 . S
N1049 H1054 0.984 . S
N1049 H1055 0.985 . S
C1050 C1044 1.379 1_655 S
C1050 C1047 1.363 . S
C1050 N1048 1.356 . S
C1051 C1045 1.363 . S
C1051 C1046 1.379 1_455 S
C1051 N1049 1.356 . S
N1052 C1044 1.356 . S
N1052 H1058 0.984 . S
N1052 H1059 0.984 . S
N1053 C1046 1.356 . S
N1053 H1056 0.984 . S
N1053 H1057 0.985 . S
H1054 N1049 0.984 . S
H1055 N1049 0.985 . S
H1056 N1053 0.984 . S
H1057 N1053 0.985 . S
H1058 N1052 0.984 . S
H1059 N1052 0.984 . S
H1060 N1048 0.984 . S
H1061 N1048 0.985 . S
C1062 C1063 1.363 1_556 S
C1062 C1068 1.379 . S
C1062 N1070 1.356 . S
C1063 C1062 1.363 1_554 S
C1063 C1069 1.363 . S
C1064 C1065 1.363 1_554 S
C1064 C1069 1.379 . S
C1064 N1071 1.356 . S
C1065 C1064 1.363 1_556 S
C1065 C1068 1.363 . S
N1066 C1068 1.356 . S
N1066 H1078 0.984 . S
N1066 H1079 0.985 . S
N1067 C1069 1.356 . S
N1067 H1072 0.984 . S
N1067 H1073 0.985 . S
C1068 C1062 1.379 . S
C1068 C1065 1.363 . S
C1068 N1066 1.356 . S
C1069 C1063 1.363 . S
C1069 C1064 1.379 . S
C1069 N1067 1.356 . S
N1070 C1062 1.356 . S
N1070 H1076 0.984 . S
N1070 H1077 0.984 1_556 S
N1071 C1064 1.356 . S
N1071 H1074 0.984 1_554 S
N1071 H1075 0.985 . S
H1072 N1067 0.984 . S
H1073 N1067 0.985 . S
H1074 N1071 0.984 1_556 S
H1075 N1071 0.985 . S
H1076 N1070 0.984 . S
H1077 N1070 0.984 1_554 S
H1078 N1066 0.984 . S
H1079 N1066 0.985 . S
C1080 C1081 1.363 . S
C1080 C1086 1.379 1_545 S
C1080 N1088 1.356 . S
C1081 C1080 1.363 . S
C1081 C1087 1.363 1_556 S
C1082 C1083 1.363 . S
C1082 C1087 1.379 1_565 S
C1082 N1089 1.356 . S
C1083 C1082 1.363 . S
C1083 C1086 1.363 1_554 S
N1084 C1086 1.356 . S
N1084 H1096 0.984 . S
N1084 H1097 0.985 . S
N1085 C1087 1.356 . S
N1085 H1090 0.984 . S
N1085 H1091 0.985 . S
C1086 C1080 1.379 1_565 S
C1086 C1083 1.363 1_556 S
C1086 N1084 1.356 . S
C1087 C1081 1.363 1_554 S
C1087 C1082 1.379 1_545 S
C1087 N1085 1.356 . S
N1088 C1080 1.356 . S
N1088 H1094 0.984 . S
N1088 H1095 0.984 . S
N1089 C1082 1.356 . S
N1089 H1092 0.984 . S
N1089 H1093 0.985 . S
H1090 N1085 0.984 . S
H1091 N1085 0.985 . S
H1092 N1089 0.984 . S
H1093 N1089 0.985 . S
H1094 N1088 0.984 . S
H1095 N1088 0.984 . S
H1096 N1084 0.984 . S
H1097 N1084 0.985 . S
C1098 C1099 1.363 . S
C1098 C1104 1.379 . S
C1098 N1106 1.356 . S
C1099 C1098 1.363 . S
C1099 C1105 1.363 . S
C1100 C1101 1.363 . S
C1100 C1105 1.379 . S
C1100 N1107 1.356 1_556 S
C1101 C1100 1.363 . S
C1101 C1104 1.363 . S
N1102 C1104 1.356 . S
N1102 H1114 0.984 . S
N1102 H1115 0.985 1_556 S
N1103 C1105 1.356 . S
N1103 H1108 0.984 . S
N1103 H1109 0.985 . S
C1104 C1098 1.379 . S
C1104 C1101 1.363 . S
C1104 N1102 1.356 . S
C1105 C1099 1.363 . S
C1105 C1100 1.379 . S
C1105 N1103 1.356 . S
N1106 C1098 1.356 . S
N1106 H1112 0.984 . S
N1106 H1113 0.984 . S
N1107 C1100 1.356 1_554 S
N1107 H1110 0.984 . S
N1107 H1111 0.985 . S
H1108 N1103 0.984 . S
H1109 N1103 0.985 . S
H1110 N1107 0.984 . S
H1111 N1107 0.985 . S
H1112 N1106 0.984 . S
H1113 N1106 0.984 . S
H1114 N1102 0.984 . S
H1115 N1102 0.985 1_554 S
C1116 C1117 1.363 . S
C1116 C1122 1.379 . S
C1116 N1124 1.356 . S
C1117 C1116 1.363 . S
C1117 C1123 1.363 . S
C1118 C1119 1.363 . S
C1118 C1123 1.379 . S
C1118 N1125 1.356 1_556 S
C1119 C1118 1.363 . S
C1119 C1122 1.363 . S
N1120 C1122 1.356 . S
N1120 H1132 0.984 . S
N1120 H1133 0.985 1_556 S
N1121 C1123 1.356 . S
N1121 H1126 0.984 . S
N1121 H1127 0.985 . S
C1122 C1116 1.379 . S
C1122 C1119 1.363 . S
C1122 N1120 1.356 . S
C1123 C1117 1.363 . S
C1123 C1118 1.379 . S
C1123 N1121 1.356 . S
N1124 C1116 1.356 . S
N1124 H1130 0.984 . S
N1124 H1131 0.984 . S
N1125 C1118 1.356 1_554 S
N1125 H1128 0.984 . S
N1125 H1129 0.985 . S
H1126 N1121 0.984 . S
H1127 N1121 0.985 . S
H1128 N1125 0.984 . S
H1129 N1125 0.985 . S
H1130 N1124 0.984 . S
H1131 N1124 0.984 . S
H1132 N1120 0.984 . S
H1133 N1120 0.985 1_554 S
C1134 C1135 1.363 . S
C1134 C1140 1.379 . S
C1134 N1142 1.356 . S
C1135 C1134 1.363 . S
C1135 C1141 1.363 . S
C1136 C1137 1.363 . S
C1136 C1141 1.379 . S
C1136 N1143 1.356 . S
C1137 C1136 1.363 . S
C1137 C1140 1.363 . S
N1138 C1140 1.356 1_554 S
N1138 H1150 0.985 1_554 S
N1138 H1151 0.985 . S
N1139 C1141 1.356 . S
N1139 H1144 0.984 . S
N1139 H1145 0.985 . S
C1140 C1134 1.379 . S
C1140 C1137 1.363 . S
C1140 N1138 1.356 1_556 S
C1141 C1135 1.363 . S
C1141 C1136 1.379 . S
C1141 N1139 1.356 . S
N1142 C1134 1.356 . S
N1142 H1148 0.984 . S
N1142 H1149 0.984 . S
N1143 C1136 1.356 . S
N1143 H1146 0.984 1_556 S
N1143 H1147 0.985 . S
H1144 N1139 0.984 . S
H1145 N1139 0.985 . S
H1146 N1143 0.984 1_554 S
H1147 N1143 0.985 . S
H1148 N1142 0.984 . S
H1149 N1142 0.984 . S
H1150 N1138 0.985 1_556 S
H1151 N1138 0.985 . S
C1152 C1153 1.363 . S
C1152 C1158 1.379 . S
C1152 N1160 1.356 . S
C1153 C1152 1.363 . S
C1153 C1159 1.363 . S
C1154 C1155 1.363 . S
C1154 C1159 1.379 . S
C1154 N1161 1.356 . S
C1155 C1154 1.363 . S
C1155 C1158 1.363 . S
N1156 C1158 1.356 . S
N1156 H1168 0.984 . S
N1156 H1169 0.985 . S
N1157 C1159 1.356 1_556 S
N1157 H1162 0.984 . S
N1157 H1163 0.985 . S
C1158 C1152 1.379 . S
C1158 C1155 1.363 . S
C1158 N1156 1.356 . S
C1159 C1153 1.363 . S
C1159 C1154 1.379 . S
C1159 N1157 1.356 1_554 S
N1160 C1152 1.356 . S
N1160 H1166 0.984 . S
N1160 H1167 0.984 1_554 S
N1161 C1154 1.356 . S
N1161 H1164 0.984 . S
N1161 H1165 0.985 . S
H1162 N1157 0.984 . S
H1163 N1157 0.985 . S
H1164 N1161 0.984 . S
H1165 N1161 0.985 . S
H1166 N1160 0.984 . S
H1167 N1160 0.984 1_556 S
H1168 N1156 0.984 . S
H1169 N1156 0.985 . S
C1170 C1171 1.363 . S
C1170 C1176 1.379 . S
C1170 N1178 1.356 . S
C1171 C1170 1.363 . S
C1171 C1177 1.363 . S
C1172 C1173 1.363 . S
C1172 C1177 1.379 . S
C1172 N1179 1.356 . S
C1173 C1172 1.363 . S
C1173 C1176 1.363 . S
N1174 C1176 1.356 . S
N1174 H1186 0.984 . S
N1174 H1187 0.985 . S
N1175 C1177 1.356 . S
N1175 H1180 0.984 1_554 S
N1175 H1181 0.985 . S
C1176 C1170 1.379 . S
C1176 C1173 1.363 . S
C1176 N1174 1.356 . S
C1177 C1171 1.363 . S
C1177 C1172 1.379 . S
C1177 N1175 1.356 . S
N1178 C1170 1.356 . S
N1178 H1184 0.984 . S
N1178 H1185 0.984 1_554 S
N1179 C1172 1.356 . S
N1179 H1182 0.984 . S
N1179 H1183 0.985 . S
H1180 N1175 0.984 1_556 S
H1181 N1175 0.985 . S
H1182 N1179 0.984 . S
H1183 N1179 0.985 . S
H1184 N1178 0.984 . S
H1185 N1178 0.984 1_556 S
H1186 N1174 0.984 . S
H1187 N1174 0.985 . S
C1188 C1189 1.363 . S
C1188 C1194 1.379 . S
C1188 N1196 1.356 . S
C1189 C1188 1.363 . S
C1189 C1195 1.363 . S
C1190 C1191 1.363 . S
C1190 C1195 1.379 . S
C1190 N1197 1.356 1_554 S
C1191 C1190 1.363 . S
C1191 C1194 1.363 . S
N1192 C1194 1.356 . S
N1192 H1204 0.984 . S
N1192 H1205 0.985 1_554 S
N1193 C1195 1.356 . S
N1193 H1198 0.984 . S
N1193 H1199 0.985 . S
C1194 C1188 1.379 . S
C1194 C1191 1.363 . S
C1194 N1192 1.356 . S
C1195 C1189 1.363 . S
C1195 C1190 1.379 . S
C1195 N1193 1.356 . S
N1196 C1188 1.356 . S
N1196 H1202 0.984 . S
N1196 H1203 0.984 . S
N1197 C1190 1.356 1_556 S
N1197 H1200 0.984 . S
N1197 H1201 0.985 . S
H1198 N1193 0.984 . S
H1199 N1193 0.985 . S
H1200 N1197 0.984 . S
H1201 N1197 0.985 . S
H1202 N1196 0.984 . S
H1203 N1196 0.984 . S
H1204 N1192 0.984 . S
H1205 N1192 0.985 1_556 S
C1206 C1207 1.363 . S
C1206 C1212 1.379 . S
C1206 N1214 1.356 . S
C1207 C1206 1.363 . S
C1207 C1213 1.363 . S
C1208 C1209 1.363 . S
C1208 C1213 1.379 . S
C1208 N1215 1.356 . S
C1209 C1208 1.363 . S
C1209 C1212 1.363 . S
N1210 C1212 1.356 . S
N1210 H1222 0.984 . S
N1210 H1223 0.985 . S
N1211 C1213 1.356 . S
N1211 H1216 0.984 . S
N1211 H1217 0.985 . S
C1212 C1206 1.379 . S
C1212 C1209 1.363 . S
C1212 N1210 1.356 . S
C1213 C1207 1.363 . S
C1213 C1208 1.379 . S
C1213 N1211 1.356 . S
N1214 C1206 1.356 . S
N1214 H1220 0.984 . S
N1214 H1221 0.984 . S
N1215 C1208 1.356 . S
N1215 H1218 0.984 . S
N1215 H1219 0.985 . S
H1216 N1211 0.984 . S
H1217 N1211 0.985 . S
H1218 N1215 0.984 . S
H1219 N1215 0.985 . S
H1220 N1214 0.984 . S
H1221 N1214 0.984 . S
H1222 N1210 0.984 . S
H1223 N1210 0.985 . S
C1224 C1225 1.363 . S
C1224 C1230 1.379 . S
C1224 N1232 1.356 . S
C1225 C1224 1.363 . S
C1225 C1231 1.363 . S
C1226 C1227 1.363 . S
C1226 C1231 1.379 . S
C1226 N1233 1.356 . S
C1227 C1226 1.363 . S
C1227 C1230 1.363 . S
N1228 C1230 1.356 . S
N1228 H1240 0.984 . S
N1228 H1241 0.985 . S
N1229 C1231 1.356 . S
N1229 H1234 0.984 . S
N1229 H1235 0.985 . S
C1230 C1224 1.379 . S
C1230 C1227 1.363 . S
C1230 N1228 1.356 . S
C1231 C1225 1.363 . S
C1231 C1226 1.379 . S
C1231 N1229 1.356 . S
N1232 C1224 1.356 . S
N1232 H1238 0.984 . S
N1232 H1239 0.984 . S
N1233 C1226 1.356 . S
N1233 H1236 0.984 . S
N1233 H1237 0.985 . S
H1234 N1229 0.984 . S
H1235 N1229 0.985 . S
H1236 N1233 0.984 . S
H1237 N1233 0.985 . S
H1238 N1232 0.984 . S
H1239 N1232 0.984 . S
H1240 N1228 0.984 . S
H1241 N1228 0.985 . S
C1242 C1243 1.363 . S
C1242 C1248 1.379 . S
C1242 N1250 1.356 . S
C1243 C1242 1.363 . S
C1243 C1249 1.363 . S
C1244 C1245 1.363 . S
C1244 C1249 1.379 . S
C1244 N1251 1.356 . S
C1245 C1244 1.363 . S
C1245 C1248 1.363 . S
N1246 C1248 1.356 . S
N1246 H1258 0.984 . S
N1246 H1259 0.985 . S
N1247 C1249 1.356 . S
N1247 H1252 0.984 . S
N1247 H1253 0.985 . S
C1248 C1242 1.379 . S
C1248 C1245 1.363 . S
C1248 N1246 1.356 . S
C1249 C1243 1.363 . S
C1249 C1244 1.379 . S
C1249 N1247 1.356 . S
N1250 C1242 1.356 . S
N1250 H1256 0.984 . S
N1250 H1257 0.984 . S
N1251 C1244 1.356 . S
N1251 H1254 0.984 . S
N1251 H1255 0.985 . S
H1252 N1247 0.984 . S
H1253 N1247 0.985 . S
H1254 N1251 0.984 . S
H1255 N1251 0.985 . S
H1256 N1250 0.984 . S
H1257 N1250 0.984 . S
H1258 N1246 0.984 . S
H1259 N1246 0.985 . S
C1260 C1261 1.363 . S
C1260 C1266 1.379 . S
C1260 N1268 1.356 . S
C1261 C1260 1.363 . S
C1261 C1267 1.363 . S
C1262 C1263 1.363 . S
C1262 C1267 1.379 . S
C1262 N1269 1.356 . S
C1263 C1262 1.363 . S
C1263 C1266 1.363 . S
N1264 C1266 1.356 . S
N1264 H1276 0.984 . S
N1264 H1277 0.985 . S
N1265 C1267 1.356 . S
N1265 H1270 0.984 . S
N1265 H1271 0.985 . S
C1266 C1260 1.379 . S
C1266 C1263 1.363 . S
C1266 N1264 1.356 . S
C1267 C1261 1.363 . S
C1267 C1262 1.379 . S
C1267 N1265 1.356 . S
N1268 C1260 1.356 . S
N1268 H1274 0.984 . S
N1268 H1275 0.984 . S
N1269 C1262 1.356 . S
N1269 H1272 0.984 . S
N1269 H1273 0.985 . S
H1270 N1265 0.984 . S
H1271 N1265 0.985 . S
H1272 N1269 0.984 . S
H1273 N1269 0.985 . S
H1274 N1268 0.984 . S
H1275 N1268 0.984 . S
H1276 N1264 0.984 . S
H1277 N1264 0.985 . S
C1278 C1279 1.363 . S
C1278 C1284 1.379 . S
C1278 N1286 1.356 . S
C1279 C1278 1.363 . S
C1279 C1285 1.363 . S
C1280 C1281 1.363 . S
C1280 C1285 1.379 . S
C1280 N1287 1.356 . S
C1281 C1280 1.363 . S
C1281 C1284 1.363 . S
N1282 C1284 1.356 . S
N1282 H1294 0.984 . S
N1282 H1295 0.985 . S
N1283 C1285 1.356 . S
N1283 H1288 0.984 . S
N1283 H1289 0.985 . S
C1284 C1278 1.379 . S
C1284 C1281 1.363 . S
C1284 N1282 1.356 . S
C1285 C1279 1.363 . S
C1285 C1280 1.379 . S
C1285 N1283 1.356 . S
N1286 C1278 1.356 . S
N1286 H1292 0.984 . S
N1286 H1293 0.984 . S
N1287 C1280 1.356 . S
N1287 H1290 0.984 . S
N1287 H1291 0.985 . S
H1288 N1283 0.984 . S
H1289 N1283 0.985 . S
H1290 N1287 0.984 . S
H1291 N1287 0.985 . S
H1292 N1286 0.984 . S
H1293 N1286 0.984 . S
H1294 N1282 0.984 . S
H1295 N1282 0.985 . S
C1296 C1297 1.363 . S
C1296 C1302 1.379 . S
C1296 N1304 1.356 . S
C1297 C1296 1.363 . S
C1297 C1303 1.363 . S
C1298 C1299 1.363 . S
C1298 C1303 1.379 . S
C1298 N1305 1.356 . S
C1299 C1298 1.363 . S
C1299 C1302 1.363 . S
N1300 C1302 1.356 . S
N1300 H1312 0.984 . S
N1300 H1313 0.985 . S
N1301 C1303 1.356 . S
N1301 H1306 0.984 . S
N1301 H1307 0.985 . S
C1302 C1296 1.379 . S
C1302 C1299 1.363 . S
C1302 N1300 1.356 . S
C1303 C1297 1.363 . S
C1303 C1298 1.379 . S
C1303 N1301 1.356 . S
N1304 C1296 1.356 . S
N1304 H1310 0.984 . S
N1304 H1311 0.984 . S
N1305 C1298 1.356 . S
N1305 H1308 0.984 . S
N1305 H1309 0.985 . S
H1306 N1301 0.984 . S
H1307 N1301 0.985 . S
H1308 N1305 0.984 . S
H1309 N1305 0.985 . S
H1310 N1304 0.984 . S
H1311 N1304 0.984 . S
H1312 N1300 0.984 . S
H1313 N1300 0.985 . S
C1314 C1315 1.363 . S
C1314 C1320 1.379 . S
C1314 N1322 1.356 . S
C1315 C1314 1.363 . S
C1315 C1321 1.363 . S
C1316 C1317 1.363 . S
C1316 C1321 1.379 . S
C1316 N1323 1.356 . S
C1317 C1316 1.363 . S
C1317 C1320 1.363 . S
N1318 C1320 1.356 . S
N1318 H1330 0.984 . S
N1318 H1331 0.985 . S
N1319 C1321 1.356 . S
N1319 H1324 0.984 . S
N1319 H1325 0.985 . S
C1320 C1314 1.379 . S
C1320 C1317 1.363 . S
C1320 N1318 1.356 . S
C1321 C1315 1.363 . S
C1321 C1316 1.379 . S
C1321 N1319 1.356 . S
N1322 C1314 1.356 . S
N1322 H1328 0.984 . S
N1322 H1329 0.984 . S
N1323 C1316 1.356 . S
N1323 H1326 0.984 . S
N1323 H1327 0.985 . S
H1324 N1319 0.984 . S
H1325 N1319 0.985 . S
H1326 N1323 0.984 . S
H1327 N1323 0.985 . S
H1328 N1322 0.984 . S
H1329 N1322 0.984 . S
H1330 N1318 0.984 . S
H1331 N1318 0.985 . S
C1332 C1333 1.363 . S
C1332 C1338 1.379 . S
C1332 N1340 1.356 . S
C1333 C1332 1.363 . S
C1333 C1339 1.363 . S
C1334 C1335 1.363 . S
C1334 C1339 1.379 . S
C1334 N1341 1.356 . S
C1335 C1334 1.363 . S
C1335 C1338 1.363 . S
N1336 C1338 1.356 . S
N1336 H1348 0.984 . S
N1336 H1349 0.985 . S
N1337 C1339 1.356 . S
N1337 H1342 0.984 . S
N1337 H1343 0.985 . S
C1338 C1332 1.379 . S
C1338 C1335 1.363 . S
C1338 N1336 1.356 . S
C1339 C1333 1.363 . S
C1339 C1334 1.379 . S
C1339 N1337 1.356 . S
N1340 C1332 1.356 . S
N1340 H1346 0.984 . S
N1340 H1347 0.984 . S
N1341 C1334 1.356 . S
N1341 H1344 0.984 . S
N1341 H1345 0.985 . S
H1342 N1337 0.984 . S
H1343 N1337 0.985 . S
H1344 N1341 0.984 . S
H1345 N1341 0.985 . S
H1346 N1340 0.984 . S
H1347 N1340 0.984 . S
H1348 N1336 0.984 . S
H1349 N1336 0.985 . S
C1350 C1351 1.363 . S
C1350 C1356 1.379 . S
C1350 N1358 1.356 . S
C1351 C1350 1.363 . S
C1351 C1357 1.363 . S
C1352 C1353 1.363 . S
C1352 C1357 1.379 . S
C1352 N1359 1.356 . S
C1353 C1352 1.363 . S
C1353 C1356 1.363 . S
N1354 C1356 1.356 . S
N1354 H1366 0.984 . S
N1354 H1367 0.985 . S
N1355 C1357 1.356 . S
N1355 H1360 0.984 . S
N1355 H1361 0.985 . S
C1356 C1350 1.379 . S
C1356 C1353 1.363 . S
C1356 N1354 1.356 . S
C1357 C1351 1.363 . S
C1357 C1352 1.379 . S
C1357 N1355 1.356 . S
N1358 C1350 1.356 . S
N1358 H1364 0.984 . S
N1358 H1365 0.984 . S
N1359 C1352 1.356 . S
N1359 H1362 0.984 . S
N1359 H1363 0.985 . S
H1360 N1355 0.984 . S
H1361 N1355 0.985 . S
H1362 N1359 0.984 . S
H1363 N1359 0.985 . S
H1364 N1358 0.984 . S
H1365 N1358 0.984 . S
H1366 N1354 0.984 . S
H1367 N1354 0.985 . S
C1368 C1369 1.363 . S
C1368 C1374 1.379 . S
C1368 N1376 1.356 . S
C1369 C1368 1.363 . S
C1369 C1375 1.363 . S
C1370 C1371 1.363 . S
C1370 C1375 1.379 . S
C1370 N1377 1.356 . S
C1371 C1370 1.363 . S
C1371 C1374 1.363 . S
N1372 C1374 1.356 . S
N1372 H1384 0.984 . S
N1372 H1385 0.985 . S
N1373 C1375 1.356 . S
N1373 H1378 0.984 . S
N1373 H1379 0.985 . S
C1374 C1368 1.379 . S
C1374 C1371 1.363 . S
C1374 N1372 1.356 . S
C1375 C1369 1.363 . S
C1375 C1370 1.379 . S
C1375 N1373 1.356 . S
N1376 C1368 1.356 . S
N1376 H1382 0.984 . S
N1376 H1383 0.984 . S
N1377 C1370 1.356 . S
N1377 H1380 0.984 . S
N1377 H1381 0.985 . S
H1378 N1373 0.984 . S
H1379 N1373 0.985 . S
H1380 N1377 0.984 . S
H1381 N1377 0.985 . S
H1382 N1376 0.984 . S
H1383 N1376 0.984 . S
H1384 N1372 0.984 . S
H1385 N1372 0.985 . S
C1386 C1387 1.363 . S
C1386 C1392 1.379 . S
C1386 N1394 1.356 . S
C1387 C1386 1.363 . S
C1387 C1393 1.363 . S
C1388 C1389 1.363 . S
C1388 C1393 1.379 . S
C1388 N1395 1.356 . S
C1389 C1388 1.363 . S
C1389 C1392 1.363 . S
N1390 C1392 1.356 . S
N1390 H1402 0.984 . S
N1390 H1403 0.985 . S
N1391 C1393 1.356 . S
N1391 H1396 0.984 . S
N1391 H1397 0.985 . S
C1392 C1386 1.379 . S
C1392 C1389 1.363 . S
C1392 N1390 1.356 . S
C1393 C1387 1.363 . S
C1393 C1388 1.379 . S
C1393 N1391 1.356 . S
N1394 C1386 1.356 . S
N1394 H1400 0.984 . S
N1394 H1401 0.984 . S
N1395 C1388 1.356 . S
N1395 H1398 0.984 . S
N1395 H1399 0.985 . S
H1396 N1391 0.984 . S
H1397 N1391 0.985 . S
H1398 N1395 0.984 . S
H1399 N1395 0.985 . S
H1400 N1394 0.984 . S
H1401 N1394 0.984 . S
H1402 N1390 0.984 . S
H1403 N1390 0.985 . S
C1404 C1405 1.363 . S
C1404 C1410 1.379 . S
C1404 N1412 1.356 . S
C1405 C1404 1.363 . S
C1405 C1411 1.363 . S
C1406 C1407 1.363 . S
C1406 C1411 1.379 . S
C1406 N1413 1.356 . S
C1407 C1406 1.363 . S
C1407 C1410 1.363 . S
N1408 C1410 1.356 . S
N1408 H1420 0.984 . S
N1408 H1421 0.985 . S
N1409 C1411 1.356 . S
N1409 H1414 0.984 . S
N1409 H1415 0.985 . S
C1410 C1404 1.379 . S
C1410 C1407 1.363 . S
C1410 N1408 1.356 . S
C1411 C1405 1.363 . S
C1411 C1406 1.379 . S
C1411 N1409 1.356 . S
N1412 C1404 1.356 . S
N1412 H1418 0.984 . S
N1412 H1419 0.984 . S
N1413 C1406 1.356 . S
N1413 H1416 0.984 . S
N1413 H1417 0.985 . S
H1414 N1409 0.984 . S
H1415 N1409 0.985 . S
H1416 N1413 0.984 . S
H1417 N1413 0.985 . S
H1418 N1412 0.984 . S
H1419 N1412 0.984 . S
H1420 N1408 0.984 . S
H1421 N1408 0.985 . S
C613 C104 1.687 . S
C615 C2 1.687 . S
C631 C138 1.686 . S
C633 C36 1.686 . S
C649 C172 1.686 . S
C651 C70 1.686 . S
C667 C67 1.280 . S
C669 C203 1.280 . S
C685 C135 1.280 . S
C687 C101 1.280 . S
C703 C169 1.280 . S
C705 C33 1.280 . S
C721 C308 1.686 . S
C723 C206 1.686 . S
C739 C240 1.686 . S
C741 C342 1.686 . S
C757 C274 1.686 . S
C759 C376 1.686 . S
C775 C271 1.280 . S
C777 C407 1.280 . S
C793 C305 1.280 . S
C795 C339 1.280 . S
C811 C373 1.280 . S
C813 C237 1.280 . S
C829 C410 1.686 . S
C831 C512 1.686 . S
C847 C546 1.686 . S
C849 C444 1.686 . S
C865 C478 1.686 . S
C867 C580 1.686 . S
C883 C475 1.280 . S
C885 C611 1.280 . S
C901 C543 1.280 . S
C903 C509 1.280 . S
C919 C441 1.280 . S
C921 C577 1.280 . S
C937 C20 1.737 . S
C939 C598 1.737 . S
C955 C530 1.737 . S
C957 C54 1.737 . S
C973 C564 1.737 . S
C975 C88 1.737 . S
C991 C258 1.737 . S
C993 C122 1.737 . S
C1009 C292 1.737 . S
C1011 C156 1.737 . S
C1027 C224 1.737 . S
C1029 C190 1.737 . S
C1045 C462 1.737 . S
C1047 C326 1.737 . S
C1063 C496 1.737 . S
C1065 C360 1.737 . S
C1081 C394 1.737 . S
C1083 C428 1.737 . S
C1099 C5 1.442 . S
C1101 C9 1.363 1_556 S
C1117 C39 1.442 . S
C1119 C43 1.363 1_556 S
C1135 C73 1.442 . S
C1137 C77 1.363 1_556 S
C1153 C111 1.363 1_554 S
C1155 C107 1.442 . S
C1171 C145 1.363 1_554 S
C1173 C141 1.442 . S
C1189 C175 1.442 . S
C1191 C179 1.363 1_554 S
C1207 C209 1.442 . S
C1209 C213 1.363 . S
C1225 C247 1.363 . S
C1227 C243 1.442 . S
C1243 C281 1.363 . S
C1245 C277 1.442 . S
C1261 C311 1.442 . S
C1263 C315 1.363 . S
C1279 C345 1.442 . S
C1281 C349 1.363 . S
C1297 C379 1.442 . S
C1299 C383 1.363 . S
C1315 C413 1.442 . S
C1317 C417 1.363 . S
C1333 C447 1.442 . S
C1335 C451 1.363 . S
C1351 C485 1.363 . S
C1353 C481 1.442 . S
C1369 C515 1.442 . S
C1371 C519 1.363 . S
C1387 C553 1.363 . S
C1389 C549 1.442 . S
C1405 C587 1.363 . S
C1407 C583 1.442 . S
