# Generated by pormake.
# Topology wio, (6)-cn, num edge types: 1
# Building blocks:
#     Node 0, Type 0, BuildingBlock: INOVEN_clean_sbu_0, # of connection points: 6
#     Node 1, Type 0, BuildingBlock: INOVEN_clean_sbu_0, # of connection points: 6
#     Node 2, Type 0, BuildingBlock: INOVEN_clean_sbu_0, # of connection points: 6
#     Node 3, Type 0, BuildingBlock: INOVEN_clean_sbu_0, # of connection points: 6
#     Node 4, Type 0, BuildingBlock: INOVEN_clean_sbu_0, # of connection points: 6
#     Node 5, Type 0, BuildingBlock: INOVEN_clean_sbu_0, # of connection points: 6
#     Node 6, Type 0, BuildingBlock: INOVEN_clean_sbu_0, # of connection points: 6
#     Node 7, Type 0, BuildingBlock: INOVEN_clean_sbu_0, # of connection points: 6
#     Node 8, Type 0, BuildingBlock: INOVEN_clean_sbu_0, # of connection points: 6
#     Node 9, Type 0, BuildingBlock: INOVEN_clean_sbu_0, # of connection points: 6
#     Node 10, Type 0, BuildingBlock: INOVEN_clean_sbu_0, # of connection points: 6
#     Node 11, Type 0, BuildingBlock: INOVEN_clean_sbu_0, # of connection points: 6
#     Node 12, Type 0, BuildingBlock: INOVEN_clean_sbu_0, # of connection points: 6
#     Node 13, Type 0, BuildingBlock: INOVEN_clean_sbu_0, # of connection points: 6
#     Node 14, Type 0, BuildingBlock: INOVEN_clean_sbu_0, # of connection points: 6
#     Node 15, Type 0, BuildingBlock: INOVEN_clean_sbu_0, # of connection points: 6
#     Node 16, Type 0, BuildingBlock: INOVEN_clean_sbu_0, # of connection points: 6
#     Node 17, Type 0, BuildingBlock: INOVEN_clean_sbu_0, # of connection points: 6
#     Node 18, Type 0, BuildingBlock: INOVEN_clean_sbu_0, # of connection points: 6
#     Node 19, Type 0, BuildingBlock: INOVEN_clean_sbu_0, # of connection points: 6
#     Node 20, Type 0, BuildingBlock: INOVEN_clean_sbu_0, # of connection points: 6
#     Node 21, Type 0, BuildingBlock: INOVEN_clean_sbu_0, # of connection points: 6
#     Node 22, Type 0, BuildingBlock: INOVEN_clean_sbu_0, # of connection points: 6
#     Node 23, Type 0, BuildingBlock: INOVEN_clean_sbu_0, # of connection points: 6
#     Node 24, Type 0, BuildingBlock: INOVEN_clean_sbu_0, # of connection points: 6
#     Node 25, Type 0, BuildingBlock: INOVEN_clean_sbu_0, # of connection points: 6
#     Node 26, Type 0, BuildingBlock: INOVEN_clean_sbu_0, # of connection points: 6
#     Node 27, Type 0, BuildingBlock: INOVEN_clean_sbu_0, # of connection points: 6
#     Node 28, Type 0, BuildingBlock: INOVEN_clean_sbu_0, # of connection points: 6
#     Node 29, Type 0, BuildingBlock: INOVEN_clean_sbu_0, # of connection points: 6
#     Node 30, Type 0, BuildingBlock: INOVEN_clean_sbu_0, # of connection points: 6
#     Node 31, Type 0, BuildingBlock: INOVEN_clean_sbu_0, # of connection points: 6
#     Edge 32, Type (0, 0), BuildingBlock: AJUNOK_clean_linker_0, # of connection points: 2
#     Edge 33, Type (0, 0), BuildingBlock: AJUNOK_clean_linker_0, # of connection points: 2
#     Edge 34, Type (0, 0), BuildingBlock: AJUNOK_clean_linker_0, # of connection points: 2
#     Edge 35, Type (0, 0), BuildingBlock: AJUNOK_clean_linker_0, # of connection points: 2
#     Edge 36, Type (0, 0), BuildingBlock: AJUNOK_clean_linker_0, # of connection points: 2
#     Edge 37, Type (0, 0), BuildingBlock: AJUNOK_clean_linker_0, # of connection points: 2
#     Edge 38, Type (0, 0), BuildingBlock: AJUNOK_clean_linker_0, # of connection points: 2
#     Edge 39, Type (0, 0), BuildingBlock: AJUNOK_clean_linker_0, # of connection points: 2
#     Edge 40, Type (0, 0), BuildingBlock: AJUNOK_clean_linker_0, # of connection points: 2
#     Edge 41, Type (0, 0), BuildingBlock: AJUNOK_clean_linker_0, # of connection points: 2
#     Edge 42, Type (0, 0), BuildingBlock: AJUNOK_clean_linker_0, # of connection points: 2
#     Edge 43, Type (0, 0), BuildingBlock: AJUNOK_clean_linker_0, # of connection points: 2
#     Edge 44, Type (0, 0), BuildingBlock: AJUNOK_clean_linker_0, # of connection points: 2
#     Edge 45, Type (0, 0), BuildingBlock: AJUNOK_clean_linker_0, # of connection points: 2
#     Edge 46, Type (0, 0), BuildingBlock: AJUNOK_clean_linker_0, # of connection points: 2
#     Edge 47, Type (0, 0), BuildingBlock: AJUNOK_clean_linker_0, # of connection points: 2
#     Edge 48, Type (0, 0), BuildingBlock: AJUNOK_clean_linker_0, # of connection points: 2
#     Edge 49, Type (0, 0), BuildingBlock: AJUNOK_clean_linker_0, # of connection points: 2
#     Edge 50, Type (0, 0), BuildingBlock: AJUNOK_clean_linker_0, # of connection points: 2
#     Edge 51, Type (0, 0), BuildingBlock: AJUNOK_clean_linker_0, # of connection points: 2
#     Edge 52, Type (0, 0), BuildingBlock: AJUNOK_clean_linker_0, # of connection points: 2
#     Edge 53, Type (0, 0), BuildingBlock: AJUNOK_clean_linker_0, # of connection points: 2
#     Edge 54, Type (0, 0), BuildingBlock: AJUNOK_clean_linker_0, # of connection points: 2
#     Edge 55, Type (0, 0), BuildingBlock: AJUNOK_clean_linker_0, # of connection points: 2
#     Edge 56, Type (0, 0), BuildingBlock: AJUNOK_clean_linker_0, # of connection points: 2
#     Edge 57, Type (0, 0), BuildingBlock: AJUNOK_clean_linker_0, # of connection points: 2
#     Edge 58, Type (0, 0), BuildingBlock: AJUNOK_clean_linker_0, # of connection points: 2
#     Edge 59, Type (0, 0), BuildingBlock: AJUNOK_clean_linker_0, # of connection points: 2
#     Edge 60, Type (0, 0), BuildingBlock: AJUNOK_clean_linker_0, # of connection points: 2
#     Edge 61, Type (0, 0), BuildingBlock: AJUNOK_clean_linker_0, # of connection points: 2
#     Edge 62, Type (0, 0), BuildingBlock: AJUNOK_clean_linker_0, # of connection points: 2
#     Edge 63, Type (0, 0), BuildingBlock: AJUNOK_clean_linker_0, # of connection points: 2
#     Edge 64, Type (0, 0), BuildingBlock: AJUNOK_clean_linker_0, # of connection points: 2
#     Edge 65, Type (0, 0), BuildingBlock: AJUNOK_clean_linker_0, # of connection points: 2
#     Edge 66, Type (0, 0), BuildingBlock: AJUNOK_clean_linker_0, # of connection points: 2
#     Edge 67, Type (0, 0), BuildingBlock: AJUNOK_clean_linker_0, # of connection points: 2
#     Edge 68, Type (0, 0), BuildingBlock: AJUNOK_clean_linker_0, # of connection points: 2
#     Edge 69, Type (0, 0), BuildingBlock: AJUNOK_clean_linker_0, # of connection points: 2
#     Edge 70, Type (0, 0), BuildingBlock: AJUNOK_clean_linker_0, # of connection points: 2
#     Edge 71, Type (0, 0), BuildingBlock: AJUNOK_clean_linker_0, # of connection points: 2
#     Edge 72, Type (0, 0), BuildingBlock: AJUNOK_clean_linker_0, # of connection points: 2
#     Edge 73, Type (0, 0), BuildingBlock: AJUNOK_clean_linker_0, # of connection points: 2
#     Edge 74, Type (0, 0), BuildingBlock: AJUNOK_clean_linker_0, # of connection points: 2
#     Edge 75, Type (0, 0), BuildingBlock: AJUNOK_clean_linker_0, # of connection points: 2
#     Edge 76, Type (0, 0), BuildingBlock: AJUNOK_clean_linker_0, # of connection points: 2
#     Edge 77, Type (0, 0), BuildingBlock: AJUNOK_clean_linker_0, # of connection points: 2
#     Edge 78, Type (0, 0), BuildingBlock: AJUNOK_clean_linker_0, # of connection points: 2
#     Edge 79, Type (0, 0), BuildingBlock: AJUNOK_clean_linker_0, # of connection points: 2
#     Edge 80, Type (0, 0), BuildingBlock: AJUNOK_clean_linker_0, # of connection points: 2
#     Edge 81, Type (0, 0), BuildingBlock: AJUNOK_clean_linker_0, # of connection points: 2
#     Edge 82, Type (0, 0), BuildingBlock: AJUNOK_clean_linker_0, # of connection points: 2
#     Edge 83, Type (0, 0), BuildingBlock: AJUNOK_clean_linker_0, # of connection points: 2
#     Edge 84, Type (0, 0), BuildingBlock: AJUNOK_clean_linker_0, # of connection points: 2
#     Edge 85, Type (0, 0), BuildingBlock: AJUNOK_clean_linker_0, # of connection points: 2
#     Edge 86, Type (0, 0), BuildingBlock: AJUNOK_clean_linker_0, # of connection points: 2
#     Edge 87, Type (0, 0), BuildingBlock: AJUNOK_clean_linker_0, # of connection points: 2
#     Edge 88, Type (0, 0), BuildingBlock: AJUNOK_clean_linker_0, # of connection points: 2
#     Edge 89, Type (0, 0), BuildingBlock: AJUNOK_clean_linker_0, # of connection points: 2
#     Edge 90, Type (0, 0), BuildingBlock: AJUNOK_clean_linker_0, # of connection points: 2
#     Edge 91, Type (0, 0), BuildingBlock: AJUNOK_clean_linker_0, # of connection points: 2
#     Edge 92, Type (0, 0), BuildingBlock: AJUNOK_clean_linker_0, # of connection points: 2
#     Edge 93, Type (0, 0), BuildingBlock: AJUNOK_clean_linker_0, # of connection points: 2
#     Edge 94, Type (0, 0), BuildingBlock: AJUNOK_clean_linker_0, # of connection points: 2
#     Edge 95, Type (0, 0), BuildingBlock: AJUNOK_clean_linker_0, # of connection points: 2
#     Edge 96, Type (0, 0), BuildingBlock: AJUNOK_clean_linker_0, # of connection points: 2
#     Edge 97, Type (0, 0), BuildingBlock: AJUNOK_clean_linker_0, # of connection points: 2
#     Edge 98, Type (0, 0), BuildingBlock: AJUNOK_clean_linker_0, # of connection points: 2
#     Edge 99, Type (0, 0), BuildingBlock: AJUNOK_clean_linker_0, # of connection points: 2
#     Edge 100, Type (0, 0), BuildingBlock: AJUNOK_clean_linker_0, # of connection points: 2
#     Edge 101, Type (0, 0), BuildingBlock: AJUNOK_clean_linker_0, # of connection points: 2
#     Edge 102, Type (0, 0), BuildingBlock: AJUNOK_clean_linker_0, # of connection points: 2
#     Edge 103, Type (0, 0), BuildingBlock: AJUNOK_clean_linker_0, # of connection points: 2
#     Edge 104, Type (0, 0), BuildingBlock: AJUNOK_clean_linker_0, # of connection points: 2
#     Edge 105, Type (0, 0), BuildingBlock: AJUNOK_clean_linker_0, # of connection points: 2
#     Edge 106, Type (0, 0), BuildingBlock: AJUNOK_clean_linker_0, # of connection points: 2
#     Edge 107, Type (0, 0), BuildingBlock: AJUNOK_clean_linker_0, # of connection points: 2
#     Edge 108, Type (0, 0), BuildingBlock: AJUNOK_clean_linker_0, # of connection points: 2
#     Edge 109, Type (0, 0), BuildingBlock: AJUNOK_clean_linker_0, # of connection points: 2
#     Edge 110, Type (0, 0), BuildingBlock: AJUNOK_clean_linker_0, # of connection points: 2
#     Edge 111, Type (0, 0), BuildingBlock: AJUNOK_clean_linker_0, # of connection points: 2
#     Edge 112, Type (0, 0), BuildingBlock: AJUNOK_clean_linker_0, # of connection points: 2
#     Edge 113, Type (0, 0), BuildingBlock: AJUNOK_clean_linker_0, # of connection points: 2
#     Edge 114, Type (0, 0), BuildingBlock: AJUNOK_clean_linker_0, # of connection points: 2
#     Edge 115, Type (0, 0), BuildingBlock: AJUNOK_clean_linker_0, # of connection points: 2
#     Edge 116, Type (0, 0), BuildingBlock: AJUNOK_clean_linker_0, # of connection points: 2
#     Edge 117, Type (0, 0), BuildingBlock: AJUNOK_clean_linker_0, # of connection points: 2
#     Edge 118, Type (0, 0), BuildingBlock: AJUNOK_clean_linker_0, # of connection points: 2
#     Edge 119, Type (0, 0), BuildingBlock: AJUNOK_clean_linker_0, # of connection points: 2
#     Edge 120, Type (0, 0), BuildingBlock: AJUNOK_clean_linker_0, # of connection points: 2
#     Edge 121, Type (0, 0), BuildingBlock: AJUNOK_clean_linker_0, # of connection points: 2
#     Edge 122, Type (0, 0), BuildingBlock: AJUNOK_clean_linker_0, # of connection points: 2
#     Edge 123, Type (0, 0), BuildingBlock: AJUNOK_clean_linker_0, # of connection points: 2
#     Edge 124, Type (0, 0), BuildingBlock: AJUNOK_clean_linker_0, # of connection points: 2
#     Edge 125, Type (0, 0), BuildingBlock: AJUNOK_clean_linker_0, # of connection points: 2
#     Edge 126, Type (0, 0), BuildingBlock: AJUNOK_clean_linker_0, # of connection points: 2
#     Edge 127, Type (0, 0), BuildingBlock: AJUNOK_clean_linker_0, # of connection points: 2
# Relax obj value: 0.203
# Max RMSD: 0.242
# Mean RMSD: 0.242
data_MOF--net-wio--node1-INOVEN_clean_sbu_0--edge1-AJUNOK_clean_linker_0
_symmetry_space_group_name_H-M    P1
_symmetry_Int_Tables_number       1
_symmetry_cell_setting            triclinic
loop_
_symmetry_equiv_pos_as_xyz
'x, y, z'
_cell_length_a     48.684727
_cell_length_b     48.725705
_cell_length_c     43.161382
_cell_angle_alpha  89.94345
_cell_angle_beta   90.067195
_cell_angle_gamma 90.009188
loop_
_atom_site_label
_atom_site_type_symbol
_atom_site_fract_x
_atom_site_fract_y
_atom_site_fract_z
_atom_type_partial_charge
Gd0 Gd 0.15517 0.11376 0.29208 0.0
Gd1 Gd 0.09424 0.11969 0.29943 0.0
C2 C 0.11969 0.13311 0.23089 0.0
C3 C 0.20595 0.10483 0.27735 0.0
C4 C 0.22578 0.11043 0.25228 0.0
C5 C 0.2315 0.13733 0.24217 0.0
C6 C 0.24 0.08841 0.23894 0.0
C7 C 0.26457 0.11977 0.20501 0.0
C8 C 0.25915 0.09301 0.21547 0.0
C9 C 0.25087 0.14195 0.21877 0.0
C10 C 0.14 0.15802 0.3259 0.0
C11 C 0.13122 0.08998 0.3545 0.0
C12 C 0.0472 0.13444 0.32382 0.0
C13 C 0.02996 0.13243 0.35278 0.0
C14 C 0.00917 0.11246 0.35538 0.0
C15 C 0.03189 0.15223 0.37661 0.0
C16 C 0.99165 0.1332 0.40339 0.0
C17 C 0.01316 0.1525 0.4016 0.0
C18 C 0.9905 0.11276 0.38027 0.0
C19 C 0.10943 0.06852 0.27804 0.0
O20 O 0.14283 0.12362 0.24282 0.0
O21 O 0.09751 0.13621 0.24888 0.0
O22 O 0.19783 0.12576 0.29389 0.0
O23 O 0.18614 0.08743 0.27135 0.0
O24 O 0.16099 0.14266 0.33168 0.0
O25 O 0.1281 0.15002 0.30113 0.0
O26 O 0.10819 0.10318 0.34707 0.0
O27 O 0.15131 0.08779 0.3342 0.0
O28 O 0.05031 0.11266 0.30648 0.0
O29 O 0.06944 0.14945 0.32467 0.0
O30 O 0.08691 0.08136 0.27042 0.0
O31 O 0.12176 0.08346 0.29738 0.0
H32 H 0.22093 0.15476 0.25214 0.0
H33 H 0.23619 0.06756 0.2466 0.0
H34 H 0.26958 0.07561 0.2052 0.0
H35 H 0.25459 0.16272 0.21083 0.0
H36 H 1.00679 0.09694 0.33764 0.0
H37 H 0.04742 0.16812 0.3755 0.0
H38 H 0.01486 0.1685 0.41889 0.0
H39 H 0.97474 0.09708 0.38112 0.0
Gd40 Gd 0.15322 0.90407 0.54234 0.0
Gd41 Gd 0.14658 0.84339 0.54795 0.0
C42 C 0.13398 0.86988 0.48006 0.0
C43 C 0.16192 0.95502 0.52827 0.0
C44 C 0.15516 0.97462 0.50332 0.0
C45 C 0.14322 0.99995 0.51108 0.0
C46 C 0.16037 0.96862 0.47207 0.0
C47 C 0.14284 0.01352 0.45693 0.0
C48 C 0.15437 0.98797 0.4491 0.0
C49 C 0.13703 0.01923 0.48808 0.0
C50 C 0.10899 0.88923 0.57635 0.0
C51 C 0.17507 0.87851 0.60476 0.0
C52 C 0.13167 0.79601 0.5712 0.0
C53 C 0.13271 0.77991 0.60098 0.0
C54 C 0.15757 0.76948 0.61282 0.0
C55 C 0.10825 0.7729 0.61662 0.0
C56 C 0.1333 0.74407 0.65378 0.0
C57 C 0.10852 0.75531 0.64264 0.0
C58 C 0.15783 0.7519 0.63873 0.0
C59 C 0.19828 0.85828 0.52792 0.0
O60 O 0.14342 0.8927 0.49271 0.0
O61 O 0.13062 0.84741 0.49744 0.0
O62 O 0.14119 0.94673 0.54499 0.0
O63 O 0.17945 0.93533 0.52213 0.0
O64 O 0.12448 0.91017 0.58176 0.0
O65 O 0.1165 0.87744 0.55128 0.0
O66 O 0.16183 0.85592 0.59624 0.0
O67 O 0.17811 0.89923 0.58536 0.0
O68 O 0.15447 0.79989 0.55581 0.0
O69 O 0.11566 0.81752 0.57014 0.0
O70 O 0.18486 0.83668 0.51848 0.0
O71 O 0.18341 0.87047 0.54746 0.0
H72 H 0.13899 1.00497 0.53506 0.0
H73 H 0.16932 0.94917 0.46539 0.0
H74 H 0.159 0.98311 0.42518 0.0
H75 H 0.12851 0.0389 0.49472 0.0
H76 H 0.17687 0.77432 0.60164 0.0
H77 H 0.08868 0.78035 0.60809 0.0
H78 H 0.08917 0.74957 0.65315 0.0
H79 H 0.17738 0.74392 0.64665 0.0
Gd80 Gd 0.36355 0.90156 0.78604 0.0
Gd81 Gd 0.42398 0.89572 0.79549 0.0
C82 C 0.39947 0.87997 0.72676 0.0
C83 C 0.31411 0.91425 0.76935 0.0
C84 C 0.29222 0.90467 0.74867 0.0
C85 C 0.2652 0.91307 0.75442 0.0
C86 C 0.29787 0.88788 0.72307 0.0
C87 C 0.24969 0.88951 0.708 0.0
C88 C 0.27671 0.88038 0.7028 0.0
C89 C 0.2441 0.90559 0.73423 0.0
C90 C 0.37678 0.85681 0.82015 0.0
C91 C 0.38696 0.92492 0.84907 0.0
C92 C 0.47133 0.8814 0.81927 0.0
C93 C 0.48634 0.88112 0.84966 0.0
C94 C 0.49135 0.90545 0.8663 0.0
C95 C 0.49799 0.85658 0.86096 0.0
C96 C 0.52126 0.88112 0.90301 0.0
C97 C 0.51515 0.85654 0.88732 0.0
C98 C 0.50858 0.90543 0.89247 0.0
C99 C 0.40987 0.94715 0.77403 0.0
O100 O 0.37525 0.88645 0.73832 0.0
O101 O 0.42204 0.88105 0.74441 0.0
O102 O 0.31964 0.89853 0.79309 0.0
O103 O 0.33611 0.92442 0.75618 0.0
O104 O 0.35448 0.87088 0.82317 0.0
O105 O 0.39014 0.86514 0.79648 0.0
O106 O 0.40904 0.90972 0.84356 0.0
O107 O 0.36849 0.92865 0.8271 0.0
O108 O 0.4666 0.90514 0.80622 0.0
O109 O 0.45085 0.8644 0.81559 0.0
O110 O 0.43228 0.93407 0.76675 0.0
O111 O 0.39664 0.93205 0.79245 0.0
H112 H 0.26052 0.92591 0.77421 0.0
H113 H 0.31865 0.88116 0.71836 0.0
H114 H 0.28168 0.86841 0.68242 0.0
H115 H 0.22346 0.91289 0.73872 0.0
H116 H 0.4827 0.92475 0.85855 0.0
H117 H 0.49465 0.83749 0.84867 0.0
H118 H 0.52477 0.83751 0.89443 0.0
H119 H 0.51269 0.92474 0.90399 0.0
Gd120 Gd 0.36323 0.10999 0.0363 0.0
Gd121 Gd 0.37202 0.16964 0.04942 0.0
C122 C 0.38755 0.14686 0.97939 0.0
C123 C 0.34921 0.06157 1.01754 0.0
C124 C 0.3573 0.0402 0.99532 0.0
C125 C 0.38478 0.03178 0.99184 0.0
C126 C 0.3368 0.02772 0.97748 0.0
C127 C 0.37103 0.99942 0.95191 0.0
C128 C 0.34359 1.00757 0.95594 0.0
C129 C 0.39159 0.01141 0.97028 0.0
C130 C 0.40859 0.1199 0.07124 0.0
C131 C 0.33836 0.13189 0.09996 0.0
C132 C 0.39064 0.21409 0.07637 0.0
C133 C 0.38772 0.23344 0.10319 0.0
C134 C 0.38661 0.2618 0.09747 0.0
C135 C 0.38869 0.2246 0.13435 0.0
C136 C 0.38712 0.27218 0.15315 0.0
C137 C 0.38833 0.24371 0.15898 0.0
C138 C 0.38628 0.2808 0.12194 0.0
C139 C 0.31983 0.15953 1.02696 0.0
O140 O 0.37853 0.1228 0.98897 0.0
O141 O 0.38855 0.16827 0.99882 0.0
O142 O 0.36565 0.06593 0.04097 0.0
O143 O 0.33888 0.08417 1.00593 0.0
O144 O 0.39279 0.09872 0.07364 0.0
O145 O 0.40098 0.13446 0.04809 0.0
O146 O 0.35333 0.15437 0.09547 0.0
O147 O 0.336 0.11353 0.07767 0.0
O148 O 0.37228 0.21447 0.05419 0.0
O149 O 0.39968 0.18936 0.08197 0.0
O150 O 0.33348 0.18224 1.02293 0.0
O151 O 0.3344 0.14434 0.04399 0.0
H152 H 0.40098 0.04115 1.00542 0.0
H153 H 0.3155 0.03379 0.97997 0.0
H154 H 0.32739 0.9986 0.94199 0.0
H155 H 0.41292 1.00572 0.96722 0.0
H156 H 0.38637 0.26939 0.07387 0.0
H157 H 0.38984 0.20292 0.13974 0.0
H158 H 0.38848 0.23613 0.18256 0.0
H159 H 0.38554 0.30245 0.11632 0.0
Gd160 Gd 0.15649 0.90326 0.28095 0.0
Gd161 Gd 0.09589 0.89611 0.27388 0.0
C162 C 0.12181 0.88341 0.34238 0.0
C163 C 0.20674 0.91513 0.29549 0.0
C164 C 0.22718 0.90897 0.31948 0.0
C165 C 0.22232 0.8889 0.34217 0.0
C166 C 0.25236 0.92284 0.319 0.0
C167 C 0.26782 0.89687 0.36389 0.0
C168 C 0.27251 0.9169 0.34105 0.0
C169 C 0.24253 0.8829 0.36427 0.0
C170 C 0.14258 0.85779 0.2484 0.0
C171 C 0.1322 0.92375 0.21735 0.0
C172 C 0.04867 0.8809 0.25034 0.0
C173 C 0.03162 0.88253 0.22122 0.0
C174 C 0.0117 0.90323 0.21755 0.0
C175 C 0.03294 0.8619 0.19827 0.0
C176 C 0.99374 0.88165 0.17025 0.0
C177 C 0.0144 0.86157 0.17307 0.0
C178 C 0.99323 0.90287 0.19246 0.0
C179 C 0.11026 0.94808 0.29324 0.0
O180 O 0.14483 0.8928 0.33018 0.0
O181 O 0.09951 0.88021 0.32459 0.0
O182 O 0.19988 0.89464 0.27761 0.0
O183 O 0.18572 0.93021 0.30372 0.0
O184 O 0.16386 0.87292 0.24322 0.0
O185 O 0.13017 0.86621 0.27268 0.0
O186 O 0.10937 0.91059 0.22537 0.0
O187 O 0.15213 0.92737 0.23761 0.0
O188 O 0.052 0.9031 0.26694 0.0
O189 O 0.07076 0.86567 0.25005 0.0
O190 O 0.0886 0.93474 0.30261 0.0
O191 O 0.12271 0.93301 0.27414 0.0
H192 H 0.20293 0.878 0.34283 0.0
H193 H 0.25646 0.93828 0.30151 0.0
H194 H 0.29178 0.928 0.3403 0.0
H195 H 0.23816 0.8678 0.38203 0.0
H196 H 0.00982 0.91941 0.23459 0.0
H197 H 0.0478 0.84545 0.20027 0.0
H198 H 0.01553 0.84495 0.15647 0.0
H199 H 0.97805 0.91905 0.1908 0.0
Gd200 Gd 0.36406 0.90485 0.53225 0.0
Gd201 Gd 0.37037 0.8442 0.52193 0.0
C202 C 0.38641 0.86793 0.59078 0.0
C203 C 0.3514 0.95422 0.54927 0.0
C204 C 0.35865 0.97526 0.57219 0.0
C205 C 0.38035 0.97153 0.59323 0.0
C206 C 0.34369 0.99979 0.57259 0.0
C207 C 0.37139 0.01661 0.6155 0.0
C208 C 0.34995 0.02027 0.59406 0.0
C209 C 0.38668 0.9921 0.61478 0.0
C210 C 0.40851 0.89184 0.49754 0.0
C211 C 0.34144 0.88206 0.46825 0.0
C212 C 0.38533 0.79748 0.49715 0.0
C213 C 0.38394 0.78076 0.46786 0.0
C214 C 0.36139 0.76347 0.46178 0.0
C215 C 0.40653 0.7795 0.4474 0.0
C216 C 0.38485 0.74279 0.41719 0.0
C217 C 0.40689 0.76093 0.42231 0.0
C218 C 0.36181 0.74491 0.43684 0.0
C219 C 0.31891 0.85829 0.54373 0.0
O220 O 0.37907 0.89223 0.57999 0.0
O221 O 0.38603 0.84579 0.57252 0.0
O222 O 0.37008 0.94867 0.5285 0.0
O223 O 0.33868 0.93233 0.55951 0.0
O224 O 0.39379 0.91372 0.49421 0.0
O225 O 0.40043 0.87843 0.52133 0.0
O226 O 0.35521 0.85924 0.47462 0.0
O227 O 0.33826 0.90122 0.48955 0.0
O228 O 0.36295 0.80071 0.51348 0.0
O229 O 0.40074 0.81945 0.49742 0.0
O230 O 0.33195 0.83568 0.55035 0.0
O231 O 0.33391 0.87149 0.52516 0.0
H232 H 0.39213 0.95267 0.59318 0.0
H233 H 0.32699 1.00305 0.55638 0.0
H234 H 0.33784 0.03892 0.59413 0.0
H235 H 0.40294 0.98852 0.63144 0.0
H236 H 0.34363 0.76364 0.47686 0.0
H237 H 0.4244 0.79226 0.45138 0.0
H238 H 0.42495 0.75994 0.40772 0.0
H239 H 0.34421 0.73167 0.43333 0.0
Gd240 Gd 0.36368 0.11297 0.78354 0.0
Gd241 Gd 0.42338 0.11822 0.77414 0.0
C242 C 0.39974 0.1344 0.84303 0.0
C243 C 0.31389 0.10278 0.80087 0.0
C244 C 0.29404 0.11242 0.82419 0.0
C245 C 0.26738 0.11963 0.81471 0.0
C246 C 0.30091 0.11371 0.85577 0.0
C247 C 0.25403 0.1269 0.86819 0.0
C248 C 0.28097 0.12072 0.87761 0.0
C249 C 0.24751 0.12694 0.83656 0.0
C250 C 0.37622 0.15671 0.74745 0.0
C251 C 0.38569 0.09041 0.71985 0.0
C252 C 0.47125 0.13074 0.75025 0.0
C253 C 0.4862 0.13183 0.7198 0.0
C254 C 0.49475 0.10775 0.70453 0.0
C255 C 0.49435 0.15722 0.70714 0.0
C256 C 0.51974 0.13444 0.6653 0.0
C257 C 0.51086 0.15851 0.68036 0.0
C258 C 0.51124 0.10904 0.6778 0.0
C259 C 0.40905 0.06685 0.79557 0.0
O260 O 0.37556 0.12789 0.83138 0.0
O261 O 0.42218 0.1332 0.82525 0.0
O262 O 0.31999 0.12022 0.77895 0.0
O263 O 0.33519 0.08883 0.81074 0.0
O264 O 0.35472 0.14139 0.74481 0.0
O265 O 0.38998 0.14959 0.77152 0.0
O266 O 0.4081 0.1049 0.72608 0.0
O267 O 0.36706 0.08646 0.74158 0.0
O268 O 0.46516 0.10673 0.76177 0.0
O269 O 0.45186 0.14869 0.75536 0.0
O270 O 0.4311 0.0802 0.80363 0.0
O271 O 0.39599 0.08177 0.77681 0.0
H272 H 0.26173 0.11887 0.79044 0.0
H273 H 0.3214 0.1086 0.86369 0.0
H274 H 0.28634 0.12054 0.90198 0.0
H275 H 0.22677 0.13133 0.82892 0.0
H276 H 0.4893 0.08777 0.71365 0.0
H277 H 0.48846 0.17619 0.71838 0.0
H278 H 0.51691 0.17844 0.67159 0.0
H279 H 0.51815 0.08997 0.6676 0.0
Gd280 Gd 0.15555 0.11117 1.03283 0.0
Gd281 Gd 0.14657 0.17116 1.02417 0.0
C282 C 0.13365 0.14572 0.09319 0.0
C283 C 0.16823 0.06183 0.04982 0.0
C284 C 0.15976 0.04136 0.07327 0.0
C285 C 0.14403 0.01845 0.06429 0.0
C286 C 0.16819 0.04367 0.1043 0.0
C287 C 0.14615 1.00018 0.11656 0.0
C288 C 0.16147 0.02325 0.12569 0.0
C289 C 0.13715 0.99809 0.0858 0.0
C290 C 0.10975 0.1223 0.9995 0.0
C291 C 0.17628 0.13498 0.96907 0.0
C292 C 0.12999 0.21759 0.99958 0.0
C293 C 0.13185 0.23514 0.97084 0.0
C294 C 0.15302 0.25457 0.96717 0.0
C295 C 0.1108 0.23474 0.94826 0.0
C296 C 0.13121 0.27372 0.92047 0.0
C297 C 0.11059 0.25359 0.92337 0.0
C298 C 0.15277 0.27339 0.94237 0.0
C299 C 0.19925 0.15898 0.04381 0.0
O300 O 0.1434 0.12281 0.0813 0.0
O301 O 0.13051 0.16786 0.07507 0.0
O302 O 0.15037 0.0673 1.02808 0.0
O303 O 0.18144 0.08366 0.05944 0.0
O304 O 0.12569 0.10142 0.9957 0.0
O305 O 0.1174 0.13596 1.02336 0.0
O306 O 0.1617 0.15719 0.97606 0.0
O307 O 0.18063 0.11596 0.99025 0.0
O308 O 0.15143 0.21542 1.01769 0.0
O309 O 0.11629 0.19461 0.99793 0.0
O310 O 0.18555 0.18086 0.05163 0.0
O311 O 0.18431 0.14549 1.02552 0.0
H312 H 0.13748 0.01601 0.04045 0.0
H313 H 0.18038 0.06097 0.11201 0.0
H314 H 0.16858 0.02528 0.14938 0.0
H315 H 0.12563 0.98031 0.07818 0.0
H316 H 0.16953 0.25577 0.98394 0.0
H317 H 0.09395 0.22034 0.95033 0.0
H318 H 0.09368 0.25309 0.90705 0.0
H319 H 0.16939 0.28808 0.94064 0.0
Gd320 Gd 0.92333 0.89551 0.7754 0.0
Gd321 Gd 0.86265 0.90093 0.77949 0.0
C322 C 0.88852 0.92332 0.71761 0.0
C323 C 0.97091 0.88012 0.75316 0.0
C324 C 0.9877 0.88089 0.72389 0.0
C325 C 1.0056 0.90292 0.71769 0.0
C326 C 0.98805 0.85839 0.70326 0.0
C327 C 0.0247 0.8793 0.67232 0.0
C328 C 1.00609 0.85772 0.67769 0.0
C329 C 0.02372 0.90214 0.69235 0.0
C330 C 0.90817 0.94705 0.79471 0.0
C331 C 0.89619 0.88296 0.84283 0.0
C332 C 0.81132 0.90951 0.79244 0.0
C333 C 0.79103 0.90367 0.81678 0.0
C334 C 0.79633 0.88456 0.84041 0.0
C335 C 0.76557 0.91701 0.81577 0.0
C336 C 0.75074 0.89246 0.86196 0.0
C337 C 0.74562 0.91152 0.83818 0.0
C338 C 0.7763 0.87898 0.86287 0.0
C339 C 0.87928 0.85595 0.74768 0.0
O340 O 0.91162 0.91156 0.72715 0.0
O341 O 0.86701 0.92511 0.73599 0.0
O342 O 0.96716 0.90289 0.76861 0.0
O343 O 0.9491 0.8645 0.7536 0.0
O344 O 0.92994 0.93386 0.80414 0.0
O345 O 0.89573 0.93209 0.77525 0.0
O346 O 0.87332 0.89159 0.82948 0.0
O347 O 0.91907 0.88027 0.82607 0.0
O348 O 0.82013 0.88838 0.77676 0.0
O349 O 0.83089 0.9269 0.79923 0.0
O350 O 0.85835 0.87088 0.74042 0.0
O351 O 0.89001 0.86457 0.77286 0.0
H352 H 1.00621 0.92054 0.73295 0.0
H353 H 0.97486 0.84086 0.70736 0.0
H354 H 1.00628 0.8398 0.66287 0.0
H355 H 0.03752 0.9193 0.68877 0.0
H356 H 0.81593 0.87408 0.84155 0.0
H357 H 0.76111 0.93173 0.79761 0.0
H358 H 0.72616 0.92224 0.83696 0.0
H359 H 0.78102 0.86465 0.88132 0.0
Gd360 Gd 0.86886 0.17102 0.52587 0.0
Gd361 Gd 0.86233 0.11088 0.53429 0.0
C362 C 0.83908 0.13447 0.47135 0.0
C363 C 0.88396 0.21847 0.50295 0.0
C364 C 0.88392 0.23586 0.47432 0.0
C365 C 0.88133 0.26444 0.47739 0.0
C366 C 0.88803 0.22503 0.44439 0.0
C367 C 0.88813 0.27133 0.42164 0.0
C368 C 0.8899 0.24255 0.41835 0.0
C369 C 0.88333 0.28187 0.45155 0.0
C370 C 0.81751 0.15738 0.54761 0.0
C371 C 0.88462 0.14609 0.59426 0.0
C372 C 0.85085 0.06102 0.55054 0.0
C373 C 0.85943 0.04036 0.57343 0.0
C374 C 0.85782 0.01251 0.56557 0.0
C375 C 0.86919 0.04789 0.60283 0.0
C376 C 0.87492 0.99973 0.61652 0.0
C377 C 0.87687 0.02771 0.62424 0.0
C378 C 0.8654 0.99234 0.58695 0.0
C379 C 0.90673 0.12443 0.49956 0.0
O380 O 0.85339 0.15694 0.47799 0.0
O381 O 0.8357 0.11528 0.49257 0.0
O382 O 0.86073 0.21454 0.51737 0.0
O383 O 0.89956 0.19666 0.5034 0.0
O384 O 0.83127 0.17915 0.5557 0.0
O385 O 0.83195 0.14419 0.52849 0.0
O386 O 0.87683 0.12231 0.58249 0.0
O387 O 0.88475 0.16859 0.57652 0.0
O388 O 0.86893 0.06716 0.52931 0.0
O389 O 0.83753 0.08248 0.56091 0.0
O390 O 0.89125 0.10327 0.49505 0.0
O391 O 0.89915 0.13699 0.52408 0.0
H392 H 0.8781 0.27343 0.50005 0.0
H393 H 0.89012 0.20308 0.44116 0.0
H394 H 0.89333 0.23362 0.39572 0.0
H395 H 0.88097 0.30374 0.45505 0.0
H396 H 0.85043 1.00633 0.54293 0.0
H397 H 0.87051 0.06929 0.60936 0.0
H398 H 0.88358 0.03395 0.64711 0.0
H399 H 0.86366 0.97094 0.58047 0.0
Gd400 Gd 0.59635 0.11926 0.27175 0.0
Gd401 Gd 0.657 0.11424 0.27873 0.0
C402 C 0.6335 0.09184 0.21567 0.0
C403 C 0.54869 0.13325 0.24812 0.0
C404 C 0.53241 0.13233 0.21846 0.0
C405 C 0.52666 0.10751 0.20307 0.0
C406 C 0.52055 0.15653 0.2065 0.0
C407 C 0.49634 0.13096 0.16576 0.0
C408 C 0.50284 0.15589 0.18059 0.0
C409 C 0.50895 0.10686 0.17721 0.0
C410 C 0.61178 0.06781 0.29152 0.0
C411 C 0.62169 0.1317 0.34056 0.0
C412 C 0.70778 0.10501 0.2935 0.0
C413 C 0.72776 0.11077 0.31826 0.0
C414 C 0.72559 0.13419 0.33708 0.0
C415 C 0.74993 0.09283 0.32245 0.0
C416 C 0.76767 0.12145 0.3641 0.0
C417 C 0.76966 0.09806 0.3452 0.0
C418 C 0.74547 0.13953 0.35981 0.0
C419 C 0.64135 0.15873 0.24541 0.0
O420 O 0.61033 0.10454 0.22348 0.0
O421 O 0.65359 0.08937 0.23593 0.0
O422 O 0.55314 0.11031 0.26303 0.0
O423 O 0.56985 0.14971 0.24941 0.0
O424 O 0.58985 0.08077 0.30074 0.0
O425 O 0.62424 0.08311 0.27255 0.0
O426 O 0.64514 0.12414 0.32791 0.0
O427 O 0.59912 0.13399 0.323 0.0
O428 O 0.69974 0.12599 0.27696 0.0
O429 O 0.68781 0.08797 0.30004 0.0
O430 O 0.66267 0.14381 0.23971 0.0
O431 O 0.62959 0.15038 0.27014 0.0
H432 H 0.53536 0.08842 0.21139 0.0
H433 H 0.52432 0.17599 0.21785 0.0
H434 H 0.49331 0.17483 0.17304 0.0
H435 H 0.50472 0.08724 0.16642 0.0
H436 H 0.70854 0.14826 0.33426 0.0
H437 H 0.75198 0.07472 0.30809 0.0
H438 H 0.78649 0.08374 0.34812 0.0
H439 H 0.74312 0.15737 0.37452 0.0
Gd440 Gd 0.64671 0.84546 1.02236 0.0
Gd441 Gd 0.65486 0.90565 1.02956 0.0
C442 C 0.67704 0.8809 0.96694 0.0
C443 C 0.6309 0.79834 0.99908 0.0
C444 C 0.63123 0.78206 0.96953 0.0
C445 C 0.65581 0.77603 0.95383 0.0
C446 C 0.60667 0.77066 0.95791 0.0
C447 C 0.63147 0.74612 0.91695 0.0
C448 C 0.60676 0.75296 0.93205 0.0
C449 C 0.6559 0.75842 0.92797 0.0
C450 C 0.69839 0.85875 0.04385 0.0
C451 C 0.6342 0.87128 0.09093 0.0
C452 C 0.66504 0.95615 0.04413 0.0
C453 C 0.65769 0.9761 0.06837 0.0
C454 C 0.64702 1.00177 0.05962 0.0
C455 C 0.66127 0.97015 0.09995 0.0
C456 C 0.64495 0.01579 0.11349 0.0
C457 C 0.65507 0.9899 0.12229 0.0
C458 C 0.6406 0.02146 0.08202 0.0
C459 C 0.6104 0.89282 0.99482 0.0
O460 O 0.66247 0.85874 0.97427 0.0
O461 O 0.68086 0.90057 0.98749 0.0
O462 O 0.65399 0.80193 1.01399 0.0
O463 O 0.61537 0.82014 1.00007 0.0
O464 O 0.68461 0.83692 0.05177 0.0
O465 O 0.68413 0.87159 1.02429 0.0
O466 O 0.644 0.89415 0.07879 0.0
O467 O 0.63074 0.84911 0.07306 0.0
O468 O 0.64505 0.9488 1.02577 0.0
O469 O 0.68118 0.9357 0.05177 0.0
O470 O 0.62678 0.91319 0.99011 0.0
O471 O 0.61722 0.88024 1.01973 0.0
H472 H 0.67514 0.78436 0.96196 0.0
H473 H 0.58739 0.77475 0.96952 0.0
H474 H 0.5876 0.74368 0.9248 0.0
H475 H 0.67535 0.75392 0.91694 0.0
H476 H 0.64405 1.00673 1.03537 0.0
H477 H 0.66921 0.95044 0.10737 0.0
H478 H 0.65854 0.98511 0.14651 0.0
H479 H 0.63316 0.04139 0.07471 0.0
Gd480 Gd 0.91982 0.12062 0.80096 0.0
Gd481 Gd 0.86025 0.11167 0.7878 0.0
C482 C 0.88122 0.0904 0.85312 0.0
C483 C 0.96476 0.13864 0.82758 0.0
C484 C 0.98412 0.13575 0.8545 0.0
C485 C 0.01249 0.13448 0.84882 0.0
C486 C 0.97531 0.1369 0.88564 0.0
C487 C 0.02297 0.13527 0.9045 0.0
C488 C 0.99448 0.13659 0.91029 0.0
C489 C 0.03153 0.13421 0.8733 0.0
C490 C 0.90928 0.06793 0.78036 0.0
C491 C 0.89772 0.13466 0.73065 0.0
C492 C 0.81174 0.0981 0.76839 0.0
C493 C 0.79016 0.1079 0.74721 0.0
C494 C 0.76268 0.10221 0.75434 0.0
C495 C 0.7964 0.1226 0.72011 0.0
C496 C 0.74776 0.12446 0.70673 0.0
C497 C 0.77534 0.13075 0.69996 0.0
C498 C 0.74166 0.11037 0.7343 0.0
C499 C 0.87016 0.15827 0.82072 0.0
O500 O 0.90366 0.10513 0.84777 0.0
O501 O 0.86341 0.08593 0.83059 0.0
O502 O 0.96469 0.1199 0.80589 0.0
O503 O 0.94025 0.14837 0.83288 0.0
O504 O 0.93187 0.0815 0.77541 0.0
O505 O 0.89421 0.08273 0.79723 0.0
O506 O 0.87409 0.12435 0.73988 0.0
O507 O 0.9186 0.13744 0.75058 0.0
O508 O 0.81604 0.11305 0.79299 0.0
O509 O 0.83446 0.08883 0.75599 0.0
O510 O 0.84861 0.14299 0.82307 0.0
O511 O 0.88485 0.14973 0.79815 0.0
H512 H 0.02005 0.13408 0.82523 0.0
H513 H 0.95362 0.13815 0.89099 0.0
H514 H 0.98693 0.13689 0.93387 0.0
H515 H 0.0532 0.13336 0.8677 0.0
H516 H 0.75747 0.09105 0.77526 0.0
H517 H 0.81751 0.12732 0.71426 0.0
H518 H 0.78071 0.14107 0.67857 0.0
H519 H 0.72063 0.10527 0.7401 0.0
Gd520 Gd 0.64511 0.17186 0.54643 0.0
Gd521 Gd 0.65187 0.1111 0.54238 0.0
C522 C 0.67145 0.13728 0.60532 0.0
C523 C 0.62941 0.2195 0.56808 0.0
C524 C 0.6303 0.2366 0.59713 0.0
C525 C 0.6497 0.25784 0.60026 0.0
C526 C 0.61035 0.23377 0.62069 0.0
C527 C 0.62836 0.27382 0.64851 0.0
C528 C 0.60953 0.25198 0.64612 0.0
C529 C 0.64881 0.27603 0.62552 0.0
C530 C 0.69733 0.15696 0.52904 0.0
C531 C 0.63368 0.14429 0.47875 0.0
C532 C 0.6631 0.06098 0.52724 0.0
C533 C 0.65609 0.04158 0.5021 0.0
C534 C 0.62903 0.03213 0.49755 0.0
C535 C 0.67697 0.03199 0.48256 0.0
C536 C 0.64388 1.00468 0.45367 0.0
C537 C 0.67093 0.01377 0.45857 0.0
C538 C 0.62301 0.01372 0.47359 0.0
C539 C 0.60548 0.12643 0.57177 0.0
O540 O 0.659 0.16 0.59563 0.0
O541 O 0.67474 0.11617 0.58663 0.0
O542 O 0.6522 0.21578 0.55262 0.0
O543 O 0.6139 0.19761 0.56789 0.0
O544 O 0.68431 0.17864 0.51915 0.0
O545 O 0.68191 0.14477 0.5481 0.0
O546 O 0.64144 0.12144 0.4927 0.0
O547 O 0.6311 0.16741 0.49515 0.0
O548 O 0.64344 0.06769 0.5464 0.0
O549 O 0.67879 0.08181 0.51978 0.0
O550 O 0.61981 0.105 0.57879 0.0
O551 O 0.61493 0.13785 0.54739 0.0
H552 H 0.66529 0.26089 0.5827 0.0
H553 H 0.59483 0.21791 0.61912 0.0
H554 H 0.59353 0.24957 0.66331 0.0
H555 H 0.66401 0.29222 0.62681 0.0
H556 H 0.61246 0.03904 0.51232 0.0
H557 H 0.69801 0.03869 0.48576 0.0
H558 H 0.68745 1.00679 0.44374 0.0
H559 H 0.60201 1.00701 0.47019 0.0
Gd560 Gd 0.59506 0.8972 0.29694 0.0
Gd561 Gd 0.65565 0.90168 0.29113 0.0
C562 C 0.6307 0.92915 0.3511 0.0
C563 C 0.5472 0.88343 0.32008 0.0
C564 C 0.53022 0.88443 0.34928 0.0
C565 C 0.51154 0.90601 0.3544 0.0
C566 C 0.53025 0.86249 0.37073 0.0
C567 C 0.49228 0.88293 0.40018 0.0
C568 C 0.5117 0.86184 0.39589 0.0
C569 C 0.49305 0.90534 0.37944 0.0
C570 C 0.61099 0.94761 0.2738 0.0
C571 C 0.62109 0.88377 0.22883 0.0
C572 C 0.7074 0.9067 0.2785 0.0
C573 C 0.72716 0.90107 0.25342 0.0
C574 C 0.75004 0.88436 0.25965 0.0
C575 C 0.72409 0.91256 0.22375 0.0
C576 C 0.76723 0.89178 0.20758 0.0
C577 C 0.74403 0.90799 0.20106 0.0
C578 C 0.76984 0.87959 0.23685 0.0
C579 C 0.63897 0.85987 0.32799 0.0
O580 O 0.60797 0.91519 0.34437 0.0
O581 O 0.65131 0.92996 0.33131 0.0
O582 O 0.55167 0.90622 0.30488 0.0
O583 O 0.56846 0.86708 0.31931 0.0
O584 O 0.58856 0.93462 0.26618 0.0
O585 O 0.6231 0.93305 0.29371 0.0
O586 O 0.64412 0.89278 0.24142 0.0
O587 O 0.59865 0.8808 0.24641 0.0
O588 O 0.69689 0.8852 0.29212 0.0
O589 O 0.68954 0.92651 0.27444 0.0
O590 O 0.65942 0.87594 0.33362 0.0
O591 O 0.62809 0.86605 0.30195 0.0
H592 H 0.51064 0.92321 0.33853 0.0
H593 H 0.54409 0.84532 0.36758 0.0
H594 H 0.51185 0.84429 0.4113 0.0
H595 H 0.47892 0.92231 0.38226 0.0
H596 H 0.75281 0.87529 0.28238 0.0
H597 H 0.70655 0.92531 0.21818 0.0
H598 H 0.74148 0.91733 0.17845 0.0
H599 H 0.78757 0.86706 0.24234 0.0
Gd600 Gd 0.87074 0.84477 0.04883 0.0
Gd601 Gd 0.86322 0.90525 0.04153 0.0
C602 C 0.84231 0.88087 0.10498 0.0
C603 C 0.88664 0.79746 0.07143 0.0
C604 C 0.88505 0.77931 0.09944 0.0
C605 C 0.88344 0.75074 0.0954 0.0
C606 C 0.887 0.78953 0.12993 0.0
C607 C 0.88696 0.74275 0.15141 0.0
C608 C 0.88777 0.77148 0.15557 0.0
C609 C 0.8843 0.73278 0.1209 0.0
C610 C 0.81878 0.85847 1.02893 0.0
C611 C 0.88296 0.87056 0.98032 0.0
C612 C 0.85186 0.95565 1.0272 0.0
C613 C 0.8569 0.97588 1.0026 0.0
C614 C 0.87927 0.97333 0.9823 0.0
C615 C 0.8396 0.99875 1.00024 0.0
C616 C 0.86698 0.0166 0.95765 0.0
C617 C 0.84453 0.01891 0.9779 0.0
C618 C 0.8843 0.99359 0.95999 0.0
C619 C 0.9085 0.89146 0.07477 0.0
O620 O 0.85529 0.85792 0.09703 0.0
O621 O 0.8389 0.90085 0.08476 0.0
O622 O 0.86468 0.80049 0.05434 0.0
O623 O 0.90083 0.82014 0.07363 0.0
O624 O 0.83234 0.83683 1.02 0.0
O625 O 0.83361 0.87134 0.04797 0.0
O626 O 0.87276 0.89336 0.99213 0.0
O627 O 0.887 0.84864 0.99842 0.0
O628 O 0.87326 0.94834 0.04351 0.0
O629 O 0.83563 0.93506 1.02054 0.0
O630 O 0.8929 0.91233 0.08016 0.0
O631 O 0.90046 0.87923 0.05018 0.0
H632 H 0.88191 0.74219 0.0723 0.0
H633 H 0.88832 0.81144 0.13394 0.0
H634 H 0.8896 0.78001 0.17864 0.0
H635 H 0.88275 0.71094 0.11664 0.0
H636 H 0.89282 0.95573 0.98375 0.0
H637 H 0.82231 1.00109 1.01582 0.0
H638 H 0.83082 0.03638 0.97649 0.0
H639 H 0.90139 0.99102 0.94421 0.0
Gd640 Gd 0.65525 0.6132 0.78937 0.0
Gd641 Gd 0.59523 0.61862 0.7989 0.0
C642 C 0.61865 0.63328 0.72954 0.0
C643 C 0.70496 0.60168 0.77263 0.0
C644 C 0.72534 0.60915 0.74876 0.0
C645 C 0.75044 0.6209 0.75794 0.0
C646 C 0.72074 0.60376 0.71722 0.0
C647 C 0.76652 0.62056 0.70474 0.0
C648 C 0.7412 0.60934 0.69544 0.0
C649 C 0.77083 0.62668 0.73609 0.0
C650 C 0.64261 0.65785 0.82369 0.0
C651 C 0.63335 0.59347 0.85453 0.0
C652 C 0.5473 0.63184 0.82227 0.0
C653 C 0.53158 0.63299 0.85225 0.0
C654 C 0.52546 0.60911 0.8693 0.0
C655 C 0.52013 0.65797 0.86251 0.0
C656 C 0.49525 0.63481 0.90453 0.0
C657 C 0.50229 0.6589 0.88827 0.0
C658 C 0.50764 0.61002 0.89495 0.0
C659 C 0.61035 0.56687 0.77925 0.0
O660 O 0.64297 0.62665 0.74085 0.0
O661 O 0.59643 0.63284 0.74768 0.0
O662 O 0.69892 0.6208 0.79268 0.0
O663 O 0.68355 0.58716 0.76414 0.0
O664 O 0.66449 0.64309 0.82647 0.0
O665 O 0.62873 0.64989 0.80007 0.0
O666 O 0.61033 0.60653 0.8473 0.0
O667 O 0.65251 0.5894 0.83347 0.0
O668 O 0.55308 0.60782 0.81057 0.0
O669 O 0.5672 0.6494 0.81795 0.0
O670 O 0.58847 0.5799 0.77 0.0
O671 O 0.62287 0.5823 0.79793 0.0
H672 H 0.7545 0.62512 0.78216 0.0
H673 H 0.70158 0.59482 0.70939 0.0
H674 H 0.73742 0.60453 0.6713 0.0
H675 H 0.79029 0.63502 0.74383 0.0
H676 H 0.53377 0.58946 0.86229 0.0
H677 H 0.52418 0.67675 0.84985 0.0
H678 H 0.49296 0.6783 0.89447 0.0
H679 H 0.50295 0.59103 0.90689 0.0
Gd680 Gd 0.65723 0.40793 0.04117 0.0
Gd681 Gd 0.64651 0.34804 0.04937 0.0
C682 C 0.63356 0.37441 0.98072 0.0
C683 C 0.67222 0.45646 1.02341 0.0
C684 C 0.66446 0.47752 1.00024 0.0
C685 C 0.642 0.49519 1.00512 0.0
C686 C 0.68052 0.48101 0.97354 0.0
C687 C 0.6516 0.519 0.95673 0.0
C688 C 0.6741 0.50141 0.95199 0.0
C689 C 0.63566 0.51573 0.98359 0.0
C690 C 0.61088 0.3978 0.07399 0.0
C691 C 0.67688 0.38355 0.10485 0.0
C692 C 0.62878 0.30185 0.07335 0.0
C693 C 0.63074 0.2838 0.10161 0.0
C694 C 0.65068 0.26294 0.10362 0.0
C695 C 0.61093 0.28528 0.12545 0.0
C696 C 0.6301 0.24471 0.15134 0.0
C697 C 0.61074 0.26615 0.15006 0.0
C698 C 0.65044 0.24386 0.1281 0.0
C699 C 0.69918 0.35883 1.0294 0.0
O700 O 0.64384 0.39691 0.99297 0.0
O701 O 0.63036 0.35208 0.99852 0.0
O702 O 0.65507 0.45204 0.04616 0.0
O703 O 0.68337 0.43384 1.01292 0.0
O704 O 0.62703 0.41856 0.07779 0.0
O705 O 0.61849 0.38405 0.05021 0.0
O706 O 0.66214 0.36148 0.09758 0.0
O707 O 0.68213 0.40239 0.08378 0.0
O708 O 0.64989 0.30356 0.05473 0.0
O709 O 0.61599 0.32528 0.07589 0.0
O710 O 0.68485 0.33736 1.0216 0.0
O711 O 0.68494 0.37264 0.04809 0.0
H712 H 0.62945 0.49338 1.02573 0.0
H713 H 0.69813 0.46796 0.96929 0.0
H714 H 0.68668 0.50327 0.93141 0.0
H715 H 0.61859 0.52935 0.98826 0.0
H716 H 0.66619 0.26088 0.08579 0.0
H717 H 0.59501 0.30079 0.12466 0.0
H718 H 0.59479 0.26753 0.16745 0.0
H719 H 0.66608 0.22806 0.12857 0.0
Gd720 Gd 0.86299 0.39892 0.29317 0.0
Gd721 Gd 0.92379 0.39586 0.29753 0.0
C722 C 0.89723 0.38235 0.22986 0.0
C723 C 0.81149 0.40544 0.28005 0.0
C724 C 0.79181 0.40016 0.25472 0.0
C725 C 0.7676 0.38553 0.26115 0.0
C726 C 0.79637 0.40993 0.22454 0.0
C727 C 0.75204 0.39185 0.20818 0.0
C728 C 0.77661 0.40583 0.20149 0.0
C729 C 0.74792 0.38126 0.23802 0.0
C730 C 0.88087 0.35483 0.32549 0.0
C731 C 0.88761 0.42111 0.35577 0.0
C732 C 0.97238 0.38295 0.31917 0.0
C733 C 0.98852 0.38282 0.34895 0.0
C734 C 0.99845 0.40728 0.36221 0.0
C735 C 0.99616 0.35781 0.36308 0.0
C736 C 0.02443 0.38169 0.40167 0.0
C737 C 0.01373 0.35724 0.38913 0.0
C738 C 0.01607 0.4067 0.38806 0.0
C739 C 0.90595 0.44662 0.2782 0.0
O740 O 0.87408 0.39029 0.24312 0.0
O741 O 0.92017 0.38055 0.24677 0.0
O742 O 0.8212 0.38378 0.29411 0.0
O743 O 0.83001 0.42463 0.27589 0.0
O744 O 0.85915 0.36881 0.33208 0.0
O745 O 0.89171 0.36368 0.30048 0.0
O746 O 0.91124 0.41036 0.3463 0.0
O747 O 0.86632 0.42256 0.33699 0.0
O748 O 0.96661 0.40653 0.3062 0.0
O749 O 0.95222 0.36544 0.3164 0.0
O750 O 0.92775 0.43418 0.26769 0.0
O751 O 0.89485 0.43116 0.29809 0.0
H752 H 0.7637 0.37776 0.28427 0.0
H753 H 0.81495 0.42105 0.21884 0.0
H754 H 0.78034 0.41389 0.17847 0.0
H755 H 0.72912 0.37046 0.24367 0.0
H756 H 0.9932 0.42696 0.35216 0.0
H757 H 0.98911 0.33854 0.35345 0.0
H758 H 0.0199 0.33758 0.39854 0.0
H759 H 0.0237 0.42599 0.39708 0.0
Gd760 Gd 0.8638 0.60876 0.53959 0.0
Gd761 Gd 0.87115 0.66892 0.54895 0.0
C762 C 0.88403 0.64478 0.47958 0.0
C763 C 0.85107 0.5593 0.52276 0.0
C764 C 0.85942 0.5381 0.50041 0.0
C765 C 0.85512 0.51046 0.50797 0.0
C766 C 0.87161 0.54482 0.47191 0.0
C767 C 0.87348 0.49635 0.45808 0.0
C768 C 0.87861 0.52406 0.4509 0.0
C769 C 0.86213 0.48976 0.48706 0.0
C770 C 0.90937 0.62054 0.57316 0.0
C771 C 0.8439 0.63137 0.60396 0.0
C772 C 0.88453 0.71678 0.57245 0.0
C773 C 0.88609 0.73272 0.60229 0.0
C774 C 0.86254 0.73901 0.61992 0.0
C775 C 0.9113 0.7441 0.61188 0.0
C776 C 0.88918 0.76895 0.65464 0.0
C777 C 0.91284 0.76185 0.6376 0.0
C778 C 0.86411 0.75669 0.64577 0.0
C779 C 0.81925 0.6552 0.52847 0.0
O780 O 0.87541 0.62125 0.4911 0.0
O781 O 0.88641 0.66684 0.49785 0.0
O782 O 0.86872 0.56482 0.54466 0.0
O783 O 0.83891 0.58124 0.5118 0.0
O784 O 0.89435 0.59886 0.57604 0.0
O785 O 0.90125 0.63451 0.54973 0.0
O786 O 0.85884 0.65343 0.59737 0.0
O787 O 0.83871 0.61306 0.58227 0.0
O788 O 0.86038 0.71098 0.56104 0.0
O789 O 0.90207 0.6969 0.56794 0.0
O790 O 0.83299 0.67671 0.51946 0.0
O791 O 0.83411 0.64228 0.54741 0.0
H792 H 0.84603 0.50487 0.53001 0.0
H793 H 0.87533 0.56606 0.46575 0.0
H794 H 0.88726 0.5297 0.42867 0.0
H795 H 0.85834 0.46857 0.49338 0.0
H796 H 0.84269 0.73084 0.61332 0.0
H797 H 0.92985 0.73982 0.59892 0.0
H798 H 0.93264 0.7703 0.64393 0.0
H799 H 0.8454 0.76158 0.65814 0.0
Gd800 Gd 0.65457 0.39958 0.78131 0.0
Gd801 Gd 0.59401 0.39568 0.77434 0.0
C802 C 0.61887 0.38215 0.84284 0.0
C803 C 0.7061 0.40592 0.7944 0.0
C804 C 0.72593 0.40059 0.81939 0.0
C805 C 0.75246 0.39173 0.81161 0.0
C806 C 0.71898 0.40424 0.85065 0.0
C807 C 0.76538 0.3913 0.86594 0.0
C808 C 0.73863 0.39976 0.87374 0.0
C809 C 0.77205 0.38707 0.8347 0.0
C810 C 0.63812 0.35682 0.74571 0.0
C811 C 0.6309 0.42451 0.71934 0.0
C812 C 0.54628 0.38267 0.75061 0.0
C813 C 0.53024 0.38384 0.7208 0.0
C814 C 0.51134 0.40519 0.71552 0.0
C815 C 0.53139 0.36237 0.69885 0.0
C816 C 0.4937 0.38257 0.66877 0.0
C817 C 0.51348 0.36184 0.67309 0.0
C818 C 0.49351 0.40462 0.6899 0.0
C819 C 0.61045 0.44643 0.79612 0.0
O820 O 0.64236 0.39063 0.8309 0.0
O821 O 0.59658 0.37986 0.82495 0.0
O822 O 0.69627 0.38425 0.78051 0.0
O823 O 0.68757 0.42497 0.79904 0.0
O824 O 0.65917 0.37214 0.74024 0.0
O825 O 0.62668 0.36413 0.77101 0.0
O826 O 0.60784 0.41142 0.72657 0.0
O827 O 0.65102 0.42626 0.73971 0.0
O828 O 0.55102 0.40557 0.76544 0.0
O829 O 0.56703 0.36573 0.75241 0.0
O830 O 0.58803 0.43371 0.80423 0.0
O831 O 0.62237 0.43136 0.77657 0.0
H832 H 0.75813 0.38874 0.78758 0.0
H833 H 0.69853 0.41081 0.8572 0.0
H834 H 0.733 0.40307 0.89773 0.0
H835 H 0.79261 0.38094 0.82809 0.0
H836 H 0.50966 0.42203 0.73176 0.0
H837 H 0.54554 0.34546 0.70207 0.0
H838 H 0.5143 0.34459 0.65731 0.0
H839 H 0.47895 0.42125 0.68705 0.0
Gd840 Gd 0.86211 0.40568 1.03343 0.0
Gd841 Gd 0.87267 0.34557 1.02226 0.0
C842 C 0.88462 0.36966 0.09223 0.0
C843 C 0.84714 0.45415 0.05141 0.0
C844 C 0.85643 0.47646 0.07173 0.0
C845 C 0.87717 0.4724 0.09388 0.0
C846 C 0.84392 0.50223 0.06909 0.0
C847 C 0.87147 0.51943 0.11192 0.0
C848 C 0.85133 0.52352 0.08902 0.0
C849 C 0.88464 0.49378 0.11389 0.0
C850 C 0.90929 0.39612 1.00177 0.0
C851 C 0.84155 0.38277 0.96897 0.0
C852 C 0.89059 0.30048 0.99585 0.0
C853 C 0.88692 0.28144 0.96864 0.0
C854 C 0.88307 0.25321 0.97389 0.0
C855 C 0.8897 0.29026 0.9376 0.0
C856 C 0.88473 0.24304 0.91807 0.0
C857 C 0.88854 0.27138 0.91273 0.0
C858 C 0.88194 0.23442 0.94916 0.0
C859 C 0.81987 0.35605 0.04244 0.0
O860 O 0.87357 0.39251 0.08166 0.0
O861 O 0.88924 0.34852 0.07303 0.0
O862 O 0.86196 0.44973 1.02674 0.0
O863 O 0.83907 0.43149 0.06492 0.0
O864 O 0.89382 0.41747 0.99888 0.0
O865 O 0.90072 0.38147 1.02438 0.0
O866 O 0.857 0.36092 0.97495 0.0
O867 O 0.8364 0.40075 0.99105 0.0
O868 O 0.8721 0.30067 1.01784 0.0
O869 O 0.90059 0.32492 0.99067 0.0
O870 O 0.83347 0.33359 0.048 0.0
O871 O 0.83458 0.37059 1.02499 0.0
H872 H 0.88709 0.4526 0.09614 0.0
H873 H 0.82799 0.50572 0.05198 0.0
H874 H 0.84085 0.54306 0.08705 0.0
H875 H 0.89985 0.48991 0.1317 0.0
H876 H 0.88133 0.24552 0.99737 0.0
H877 H 0.89292 0.31178 0.93247 0.0
H878 H 0.8902 0.2791 0.88928 0.0
H879 H 0.87917 0.21288 0.95452 0.0
Gd880 Gd 0.86085 0.61401 0.27972 0.0
Gd881 Gd 0.92197 0.61803 0.27412 0.0
C882 C 0.89582 0.6319 0.34203 0.0
C883 C 0.80996 0.60466 0.29399 0.0
C884 C 0.7899 0.61064 0.3185 0.0
C885 C 0.79531 0.63007 0.34173 0.0
C886 C 0.76459 0.59697 0.31818 0.0
C887 C 0.75015 0.6218 0.36426 0.0
C888 C 0.74492 0.60244 0.34087 0.0
C889 C 0.77554 0.63562 0.36447 0.0
C890 C 0.87762 0.65854 0.24729 0.0
C891 C 0.88516 0.5923 0.21677 0.0
C892 C 0.97037 0.63071 0.25182 0.0
C893 C 0.98583 0.63094 0.22163 0.0
C894 C 0.99093 0.60666 0.20495 0.0
C895 C 0.99751 0.65549 0.21035 0.0
C896 C 0.02042 0.63114 0.16784 0.0
C897 C 0.01448 0.65563 0.18383 0.0
C898 C 1.00789 0.60678 0.17856 0.0
C899 C 0.90458 0.56709 0.29411 0.0
O900 O 0.87244 0.62416 0.32914 0.0
O901 O 0.91868 0.63337 0.32494 0.0
O902 O 0.81803 0.62557 0.27736 0.0
O903 O 0.83002 0.58788 0.30102 0.0
O904 O 0.85545 0.64487 0.24168 0.0
O905 O 0.88918 0.64951 0.27184 0.0
O906 O 0.90835 0.60452 0.22536 0.0
O907 O 0.86465 0.58967 0.23645 0.0
O908 O 0.96443 0.607 0.26433 0.0
O909 O 0.95057 0.6485 0.25548 0.0
O910 O 0.92681 0.57951 0.30345 0.0
O911 O 0.8933 0.58255 0.27435 0.0
H912 H 0.81479 0.64079 0.34234 0.0
H913 H 0.76005 0.582 0.30034 0.0
H914 H 0.72557 0.59147 0.34019 0.0
H915 H 0.78035 0.65021 0.3826 0.0
H916 H 0.9824 0.58731 0.21274 0.0
H917 H 0.99417 0.67457 0.22264 0.0
H918 H 0.02396 0.67473 0.17673 0.0
H919 H 0.01178 0.5875 0.16689 0.0
Gd920 Gd 0.65458 0.61012 0.53293 0.0
Gd921 Gd 0.64756 0.67017 0.52446 0.0
C922 C 0.63201 0.64493 0.59287 0.0
C923 C 0.6657 0.56047 0.54975 0.0
C924 C 0.6562 0.54092 0.57343 0.0
C925 C 0.64958 0.51399 0.56459 0.0
C926 C 0.65379 0.5486 0.60466 0.0
C927 C 0.64054 0.50201 0.61815 0.0
C928 C 0.6462 0.5292 0.62688 0.0
C929 C 0.64171 0.49465 0.58681 0.0
C930 C 0.61026 0.62234 0.49775 0.0
C931 C 0.67695 0.6339 0.46964 0.0
C932 C 0.63303 0.71766 0.50097 0.0
C933 C 0.63375 0.73462 0.47179 0.0
C934 C 0.65505 0.75365 0.46673 0.0
C935 C 0.61171 0.73435 0.45044 0.0
C936 C 0.63144 0.77287 0.42134 0.0
C937 C 0.61069 0.75307 0.42544 0.0
C938 C 0.65395 0.77235 0.44193 0.0
C939 C 0.69913 0.65624 0.54604 0.0
O940 O 0.6399 0.62124 0.58108 0.0
O941 O 0.63191 0.66753 0.57524 0.0
O942 O 0.64789 0.56644 0.52815 0.0
O943 O 0.67977 0.58183 0.55924 0.0
O944 O 0.62599 0.60124 0.49442 0.0
O945 O 0.61734 0.63581 0.52199 0.0
O946 O 0.66262 0.65626 0.47653 0.0
O947 O 0.68064 0.61453 0.49063 0.0
O948 O 0.65593 0.71356 0.51609 0.0
O949 O 0.61704 0.69616 0.50185 0.0
O950 O 0.6857 0.67832 0.55369 0.0
O951 O 0.68448 0.64353 0.52681 0.0
H952 H 0.65113 0.50776 0.54056 0.0
H953 H 0.65836 0.56935 0.61204 0.0
H954 H 0.64546 0.53521 0.65104 0.0
H955 H 0.63776 0.47369 0.57973 0.0
H956 H 0.67229 0.75473 0.48257 0.0
H957 H 0.59474 0.72025 0.4536 0.0
H958 H 0.59305 0.75284 0.41012 0.0
H959 H 0.67054 0.78698 0.43927 0.0
Gd960 Gd 0.42207 0.3947 0.27259 0.0
Gd961 Gd 0.36188 0.40387 0.28169 0.0
C962 C 0.38562 0.42496 0.21784 0.0
C963 C 0.46809 0.37747 0.24779 0.0
C964 C 0.48717 0.38081 0.22071 0.0
C965 C 0.51561 0.38197 0.22606 0.0
C966 C 0.478 0.38062 0.18965 0.0
C967 C 0.52546 0.38283 0.17022 0.0
C968 C 0.49688 0.38167 0.16478 0.0
C969 C 0.53438 0.38299 0.20135 0.0
C970 C 0.41013 0.44725 0.29258 0.0
C971 C 0.39728 0.38262 0.34176 0.0
C972 C 0.31232 0.41557 0.2989 0.0
C973 C 0.29284 0.40835 0.32391 0.0
C974 C 0.2695 0.39247 0.31693 0.0
C975 C 0.29652 0.4179 0.35435 0.0
C976 C 0.2533 0.39687 0.36985 0.0
C977 C 0.27689 0.41223 0.37708 0.0
C978 C 0.25 0.38659 0.33976 0.0
C979 C 0.37325 0.35836 0.24826 0.0
O980 O 0.40816 0.41092 0.22501 0.0
O981 O 0.36616 0.42874 0.23867 0.0
O982 O 0.46695 0.39687 0.26868 0.0
O983 O 0.4441 0.36634 0.24278 0.0
O984 O 0.43243 0.43373 0.29921 0.0
O985 O 0.39634 0.43246 0.27443 0.0
O986 O 0.37449 0.39323 0.33037 0.0
O987 O 0.41883 0.37822 0.3232 0.0
O988 O 0.31822 0.396 0.27937 0.0
O989 O 0.33365 0.43075 0.30598 0.0
O990 O 0.35256 0.37449 0.24406 0.0
O991 O 0.38675 0.36582 0.27234 0.0
H992 H 0.52345 0.38174 0.24956 0.0
H993 H 0.45624 0.37958 0.18455 0.0
H994 H 0.48903 0.38207 0.1413 0.0
H995 H 0.55611 0.38369 0.20671 0.0
H996 H 0.26609 0.38496 0.29362 0.0
H997 H 0.31429 0.4301 0.36056 0.0
H998 H 0.27993 0.42015 0.40028 0.0
H999 H 0.23191 0.37481 0.33368 0.0
Gd1000 Gd 0.36823 0.67449 1.02505 0.0
Gd1001 Gd 0.3629 0.61451 1.03423 0.0
C1002 C 0.3365 0.63784 0.97281 0.0
C1003 C 0.38098 0.72227 1.0009 0.0
C1004 C 0.38091 0.73796 0.97077 0.0
C1005 C 0.35756 0.75283 0.96119 0.0
C1006 C 0.40496 0.74053 0.95276 0.0
C1007 C 0.38222 0.77224 0.91657 0.0
C1008 C 0.40562 0.75741 0.92614 0.0
C1009 C 0.35822 0.76963 0.93464 0.0
C1010 C 0.31775 0.66019 0.04945 0.0
C1011 C 0.38535 0.65007 0.09339 0.0
C1012 C 0.35367 0.56428 0.05063 0.0
C1013 C 0.36249 0.5444 0.07445 0.0
C1014 C 0.37522 0.51983 0.06524 0.0
C1015 C 0.35728 0.54888 0.10605 0.0
C1016 C 0.37566 0.50379 0.11845 0.0
C1017 C 0.36369 0.52866 0.12782 0.0
C1018 C 0.3819 0.49971 0.08711 0.0
C1019 C 0.40517 0.6278 0.99627 0.0
O1020 O 0.35194 0.65985 0.97778 0.0
O1021 O 0.33397 0.61893 0.99449 0.0
O1022 O 0.35745 0.71682 1.01402 0.0
O1023 O 0.39846 0.70216 1.00437 0.0
O1024 O 0.33131 0.68245 0.05613 0.0
O1025 O 0.33188 0.64723 1.02994 0.0
O1026 O 0.37825 0.62603 0.08192 0.0
O1027 O 0.38443 0.67259 0.07566 0.0
O1028 O 0.3721 0.5712 1.03009 0.0
O1029 O 0.33838 0.58496 0.05949 0.0
O1030 O 0.38904 0.60694 0.99315 0.0
O1031 O 0.39919 0.64081 1.02118 0.0
H1032 H 0.33881 0.75201 0.97462 0.0
H1033 H 0.42353 0.72984 0.95954 0.0
H1034 H 0.42452 0.75887 0.91304 0.0
H1035 H 0.33997 0.78124 0.92878 0.0
H1036 H 0.37938 0.51591 0.04099 0.0
H1037 H 0.34767 0.56766 0.11392 0.0
H1038 H 0.35877 0.53218 0.15197 0.0
H1039 H 0.39087 0.48055 0.0794 0.0
Gd1040 Gd 0.09578 0.62173 0.7735 0.0
Gd1041 Gd 0.15581 0.61202 0.78242 0.0
C1042 C 0.13177 0.59185 0.71852 0.0
C1043 C 0.04985 0.63977 0.74922 0.0
C1044 C 0.0312 0.63731 0.72165 0.0
C1045 C 1.00286 0.6341 0.72645 0.0
C1046 C 0.04059 0.64005 0.69085 0.0
C1047 C 0.99356 0.63596 0.67055 0.0
C1048 C 0.02202 0.63932 0.66565 0.0
C1049 C 0.9844 0.63342 0.70142 0.0
C1050 C 0.10708 0.56877 0.79267 0.0
C1051 C 0.12116 0.63412 0.84263 0.0
C1052 C 0.20486 0.59826 0.7995 0.0
C1053 C 0.22528 0.60647 0.82292 0.0
C1054 C 0.23415 0.63386 0.82594 0.0
C1055 C 0.23604 0.5864 0.84279 0.0
C1056 C 0.26315 0.62099 0.86935 0.0
C1057 C 0.25474 0.59361 0.86587 0.0
C1058 C 0.25311 0.64103 0.84895 0.0
C1059 C 0.14488 0.65797 0.74934 0.0
O1060 O 0.10962 0.60655 0.72543 0.0
O1061 O 0.15056 0.58703 0.73987 0.0
O1062 O 0.05103 0.61937 0.76889 0.0
O1063 O 0.07372 0.65149 0.74535 0.0
O1064 O 0.08499 0.58246 0.7997 0.0
O1065 O 0.12115 0.58367 0.77489 0.0
O1066 O 0.1441 0.62424 0.83084 0.0
O1067 O 0.09917 0.6376 0.82439 0.0
O1068 O 0.19979 0.61574 0.77724 0.0
O1069 O 0.1827 0.58614 0.80988 0.0
O1070 O 0.16587 0.64215 0.74554 0.0
O1071 O 0.13135 0.65028 0.77324 0.0
H1072 H 0.99485 0.63236 0.74978 0.0
H1073 H 0.06228 0.64275 0.68621 0.0
H1074 H 0.03004 0.64081 0.64232 0.0
H1075 H 0.96273 0.63098 0.70634 0.0
H1076 H 0.22619 0.64977 0.81088 0.0
H1077 H 0.22965 0.56517 0.84074 0.0
H1078 H 0.26237 0.57784 0.88137 0.0
H1079 H 0.25928 0.66228 0.85143 0.0
Gd1080 Gd 0.14789 0.34468 0.52473 0.0
Gd1081 Gd 0.15339 0.40473 0.53428 0.0
C1082 C 0.17685 0.38241 0.47103 0.0
C1083 C 0.13389 0.29715 0.50115 0.0
C1084 C 0.13435 0.2802 0.47204 0.0
C1085 C 0.15322 0.25848 0.46918 0.0
C1086 C 0.11441 0.28332 0.44848 0.0
C1087 C 0.13134 0.2425 0.42125 0.0
C1088 C 0.11307 0.26484 0.42331 0.0
C1089 C 0.15181 0.24006 0.44421 0.0
C1090 C 0.19907 0.35896 0.54712 0.0
C1091 C 0.13126 0.36883 0.59345 0.0
C1092 C 0.16351 0.45482 0.55025 0.0
C1093 C 0.15432 0.47499 0.57331 0.0
C1094 C 0.14803 0.50179 0.5636 0.0
C1095 C 0.15226 0.46818 0.60482 0.0
C1096 C 0.14004 0.51533 0.61683 0.0
C1097 C 0.14534 0.48828 0.62644 0.0
C1098 C 0.14083 0.52185 0.58523 0.0
C1099 C 0.11033 0.39151 0.49761 0.0
O1100 O 0.16311 0.35949 0.47711 0.0
O1101 O 0.18028 0.40108 0.49278 0.0
O1102 O 0.15707 0.30162 0.51556 0.0
O1103 O 0.11745 0.31831 0.50256 0.0
O1104 O 0.18574 0.33668 0.55428 0.0
O1105 O 0.18437 0.37207 0.52815 0.0
O1106 O 0.13817 0.39302 0.58211 0.0
O1107 O 0.13217 0.34648 0.57549 0.0
O1108 O 0.14545 0.44817 0.52919 0.0
O1109 O 0.17792 0.43383 0.5602 0.0
O1110 O 0.12558 0.41302 0.4947 0.0
O1111 O 0.11709 0.3783 0.52214 0.0
H1112 H 0.16873 0.2552 0.48682 0.0
H1113 H 0.09931 0.2996 0.44988 0.0
H1114 H 0.09708 0.26743 0.40608 0.0
H1115 H 0.1666 0.22348 0.44316 0.0
H1116 H 0.14937 0.50735 0.53933 0.0
H1117 H 0.15665 0.44756 0.61284 0.0
H1118 H 0.14491 0.48295 0.65082 0.0
H1119 H 0.13714 0.54269 0.57748 0.0
Gd1120 Gd 0.42281 0.61944 0.29806 0.0
Gd1121 Gd 0.36262 0.6126 0.28802 0.0
C1122 C 0.3852 0.59046 0.35227 0.0
C1123 C 0.46931 0.6362 0.32201 0.0
C1124 C 0.4878 0.6348 0.34973 0.0
C1125 C 0.51624 0.63269 0.34504 0.0
C1126 C 0.47818 0.63744 0.38042 0.0
C1127 C 0.52527 0.63523 0.40091 0.0
C1128 C 0.49669 0.6376 0.40571 0.0
C1129 C 0.53462 0.63291 0.3701 0.0
C1130 C 0.40974 0.56771 0.27701 0.0
C1131 C 0.39859 0.63535 0.22919 0.0
C1132 C 0.31304 0.60088 0.27105 0.0
C1133 C 0.29233 0.6092 0.24783 0.0
C1134 C 0.26848 0.62304 0.25752 0.0
C1135 C 0.29523 0.60226 0.21642 0.0
C1136 C 0.25027 0.62167 0.20521 0.0
C1137 C 0.27434 0.60839 0.19535 0.0
C1138 C 0.24766 0.62936 0.23634 0.0
C1139 C 0.37543 0.6575 0.32195 0.0
O1140 O 0.40852 0.6033 0.3455 0.0
O1141 O 0.36584 0.58754 0.33113 0.0
O1142 O 0.4672 0.61462 0.30417 0.0
O1143 O 0.44606 0.64936 0.32466 0.0
O1144 O 0.43188 0.58121 0.26959 0.0
O1145 O 0.39606 0.58246 0.29541 0.0
O1146 O 0.37454 0.62728 0.23995 0.0
O1147 O 0.42073 0.63548 0.24754 0.0
O1148 O 0.31887 0.61896 0.29239 0.0
O1149 O 0.33465 0.58726 0.26143 0.0
O1150 O 0.3539 0.64243 0.32589 0.0
O1151 O 0.38861 0.64942 0.29806 0.0
H1152 H 0.52437 0.63107 0.32176 0.0
H1153 H 0.45637 0.63933 0.3849 0.0
H1154 H 0.48858 0.63895 0.429 0.0
H1155 H 0.55638 0.63125 0.36528 0.0
H1156 H 0.26565 0.62842 0.28165 0.0
H1157 H 0.31333 0.59161 0.20818 0.0
H1158 H 0.27677 0.60234 0.17136 0.0
H1159 H 0.22914 0.63933 0.24448 0.0
Gd1160 Gd 0.14419 0.67012 0.05013 0.0
Gd1161 Gd 0.15398 0.61035 0.04051 0.0
C1162 C 0.17226 0.63328 0.10567 0.0
C1163 C 0.12749 0.71633 0.07485 0.0
C1164 C 0.12984 0.73377 0.10353 0.0
C1165 C 0.15193 0.75206 0.10768 0.0
C1166 C 0.10847 0.73434 0.12564 0.0
C1167 C 0.13037 0.77217 0.15385 0.0
C1168 C 0.10882 0.75313 0.15053 0.0
C1169 C 0.15223 0.77082 0.13245 0.0
C1170 C 0.19733 0.65872 1.03183 0.0
C1171 C 0.13242 0.6459 0.98061 0.0
C1172 C 0.16889 0.56159 1.02345 0.0
C1173 C 0.16217 0.54094 0.99987 0.0
C1174 C 0.13957 0.54418 0.97997 0.0
C1175 C 0.17816 0.51712 0.99801 0.0
C1176 C 0.14935 0.4999 0.95622 0.0
C1177 C 0.17186 0.4968 0.97635 0.0
C1178 C 0.13319 0.52377 0.95827 0.0
C1179 C 0.10745 0.62041 0.07288 0.0
O1180 O 0.15809 0.65566 0.09839 0.0
O1181 O 0.17738 0.6145 0.08449 0.0
O1182 O 0.14856 0.71442 0.05623 0.0
O1183 O 0.11413 0.69319 0.07693 0.0
O1184 O 0.18332 0.68019 1.0233 0.0
O1185 O 0.18231 0.64481 0.04966 0.0
O1186 O 0.14273 0.62296 0.9919 0.0
O1187 O 0.12831 0.66745 0.99925 0.0
O1188 O 0.14981 0.56634 0.04398 0.0
O1189 O 0.18114 0.58398 1.01392 0.0
O1190 O 0.12323 0.59932 0.07617 0.0
O1191 O 0.11542 0.63465 0.04954 0.0
H1192 H 0.16875 0.75244 0.09129 0.0
H1193 H 0.09096 0.7208 0.12317 0.0
H1194 H 0.09165 0.75349 0.16646 0.0
H1195 H 0.16947 0.78475 0.13452 0.0
H1196 H 0.12698 0.56248 0.98116 0.0
H1197 H 0.19557 0.51424 1.01334 0.0
H1198 H 0.18467 0.47865 0.97522 0.0
H1199 H 0.11609 0.52696 0.9426 0.0
Gd1200 Gd 0.09384 0.39699 0.79889 0.0
Gd1201 Gd 0.15394 0.40246 0.78853 0.0
C1202 C 0.13244 0.42632 0.85199 0.0
C1203 C 0.04722 0.38222 0.82427 0.0
C1204 C 0.03177 0.38287 0.85438 0.0
C1205 C 0.02694 0.40751 0.87046 0.0
C1206 C 0.01969 0.35868 0.86604 0.0
C1207 C 0.99677 0.38404 0.90773 0.0
C1208 C 1.00248 0.35922 0.89231 0.0
C1209 C 0.00975 0.40806 0.89668 0.0
C1210 C 0.10725 0.44818 0.77669 0.0
C1211 C 0.11712 0.38131 0.72958 0.0
C1212 C 0.20393 0.41204 0.77121 0.0
C1213 C 0.22399 0.40386 0.74722 0.0
C1214 C 0.24624 0.38678 0.75518 0.0
C1215 C 0.22242 0.41448 0.71699 0.0
C1216 C 0.26567 0.39244 0.70383 0.0
C1217 C 0.24308 0.40881 0.69552 0.0
C1218 C 0.26681 0.38094 0.73357 0.0
C1219 C 0.14033 0.35862 0.82414 0.0
O1220 O 0.10949 0.41251 0.84608 0.0
O1221 O 0.15129 0.42917 0.8303 0.0
O1222 O 0.05088 0.40528 0.80934 0.0
O1223 O 0.0686 0.36614 0.82228 0.0
O1224 O 0.08484 0.43485 0.76994 0.0
O1225 O 0.12116 0.43352 0.79509 0.0
O1226 O 0.1414 0.38844 0.74052 0.0
O1227 O 0.09499 0.38167 0.74794 0.0
O1228 O 0.19738 0.39345 0.79175 0.0
O1229 O 0.18296 0.42712 0.76264 0.0
O1230 O 0.16176 0.37385 0.82807 0.0
O1231 O 0.12741 0.36623 0.79982 0.0
H1232 H 0.03585 0.42656 0.86233 0.0
H1233 H 0.02282 0.33937 0.85413 0.0
H1234 H 0.99262 0.34038 0.89962 0.0
H1235 H 1.00609 0.42757 0.90795 0.0
H1236 H 0.2481 0.37851 0.77839 0.0
H1237 H 0.20563 0.42773 0.71006 0.0
H1238 H 0.24174 0.41769 0.67254 0.0
H1239 H 0.28412 0.36834 0.74042 0.0
Gd1240 Gd 0.37198 0.34498 0.54815 0.0
Gd1241 Gd 0.36364 0.40576 0.54034 0.0
C1242 C 0.3433 0.38117 0.60418 0.0
C1243 C 0.38962 0.2987 0.57191 0.0
C1244 C 0.38781 0.27994 0.5995 0.0
C1245 C 0.38388 0.2517 0.59469 0.0
C1246 C 0.3921 0.28903 0.63019 0.0
C1247 C 0.38812 0.24194 0.65038 0.0
C1248 C 0.3922 0.2703 0.65528 0.0
C1249 C 0.38401 0.23309 0.61959 0.0
C1250 C 0.31941 0.35811 0.52935 0.0
C1251 C 0.38446 0.37084 0.47949 0.0
C1252 C 0.35099 0.45559 0.52475 0.0
C1253 C 0.35759 0.47626 0.50108 0.0
C1254 C 0.37383 0.46988 0.47521 0.0
C1255 C 0.34796 0.50312 0.50496 0.0
C1256 C 0.36957 0.51694 0.45659 0.0
C1257 C 0.35393 0.52331 0.48297 0.0
C1258 C 0.3798 0.49011 0.45311 0.0
C1259 C 0.40974 0.39266 0.57231 0.0
O1260 O 0.35618 0.35817 0.59618 0.0
O1261 O 0.3398 0.40119 0.58397 0.0
O1262 O 0.36865 0.30031 0.55298 0.0
O1263 O 0.40197 0.3223 0.57537 0.0
O1264 O 0.33273 0.33611 0.52104 0.0
O1265 O 0.33469 0.3714 0.54756 0.0
O1266 O 0.3747 0.39375 0.49149 0.0
O1267 O 0.38788 0.34868 0.49744 0.0
O1268 O 0.3708 0.44945 0.54395 0.0
O1269 O 0.33694 0.43408 0.51577 0.0
O1270 O 0.39457 0.41392 0.57739 0.0
O1271 O 0.40101 0.37998 0.54834 0.0
H1272 H 0.38099 0.24388 0.57142 0.0
H1273 H 0.39542 0.31062 0.63486 0.0
H1274 H 0.39494 0.27812 0.67854 0.0
H1275 H 0.381 0.21151 0.61462 0.0
H1276 H 0.38171 0.44929 0.47204 0.0
H1277 H 0.3357 0.50848 0.525 0.0
H1278 H 0.34617 0.5439 0.4865 0.0
H1279 H 0.39182 0.48464 0.43293 0.0
C1280 C 0.30663 0.14035 0.18021 0.0
C1281 C 0.28284 0.12402 0.17806 0.0
C1282 C 0.32458 0.14315 0.15482 0.0
C1283 C 0.31924 0.12966 0.12662 0.0
H1284 H 0.31162 0.15055 0.20178 0.0
H1285 H 0.34293 0.15552 0.15746 0.0
S1286 S 0.25728 0.08775 0.10842 0.0
N1287 N 0.25347 0.0965 0.14506 0.0
N1288 N 0.28666 0.10155 0.0975 0.0
C1289 C 0.2948 0.11416 0.12408 0.0
C1290 C 0.27674 0.11139 0.14977 0.0
C1291 C 0.15893 0.06087 0.39006 0.0
C1292 C 0.13352 0.07338 0.38324 0.0
C1293 C 0.16162 0.04192 0.41414 0.0
C1294 C 0.13914 0.03482 0.43275 0.0
H1295 H 0.17696 0.06515 0.37619 0.0
H1296 H 0.18151 0.03252 0.41805 0.0
S1297 S 0.06851 0.06284 0.42646 0.0
N1298 N 0.08561 0.07825 0.39835 0.0
N1299 N 0.09087 0.0426 0.44407 0.0
C1300 C 0.11385 0.04796 0.42731 0.0
C1301 C 0.111 0.06727 0.40247 0.0
C1302 C 0.21356 0.90782 0.67282 0.0
C1303 C 0.22804 0.88505 0.6844 0.0
C1304 C 0.19527 0.90511 0.64804 0.0
C1305 C 0.1905 0.87949 0.63413 0.0
H1306 H 0.21733 0.92816 0.68203 0.0
H1307 H 0.18543 0.92342 0.63905 0.0
S1308 S 0.22127 0.81305 0.65769 0.0
N1309 N 0.23501 0.83571 0.68159 0.0
N1310 N 0.20032 0.83055 0.63494 0.0
C1311 C 0.20366 0.85626 0.64651 0.0
C1312 C 0.22261 0.85908 0.6716 0.0
C1313 C 0.37222 0.969 0.87186 0.0
C1314 C 0.3856 0.94362 0.87591 0.0
C1315 C 0.36849 0.98703 0.89647 0.0
C1316 C 0.37792 0.98053 0.92628 0.0
H1317 H 0.3643 0.97509 0.84941 0.0
H1318 H 0.35778 1.00617 0.89219 0.0
S1319 S 0.41558 0.9175 0.94911 0.0
N1320 N 0.40957 0.91342 0.91169 0.0
N1321 N 0.40229 0.94758 0.95856 0.0
C1322 C 0.39231 0.95576 0.93065 0.0
C1323 C 0.39622 0.93724 0.9053 0.0
C1324 C 0.31712 0.91119 0.42976 0.0
C1325 C 0.32561 0.88487 0.43916 0.0
C1326 C 0.29905 0.91479 0.4049 0.0
C1327 C 0.28855 0.89219 0.38854 0.0
H1328 H 0.324 0.92925 0.44217 0.0
H1329 H 0.29252 0.93543 0.39913 0.0
S1330 S 0.30589 0.81902 0.40218 0.0
N1331 N 0.32337 0.8358 0.42896 0.0
N1332 N 0.28925 0.84263 0.38206 0.0
C1333 C 0.29756 0.86576 0.39691 0.0
C1334 C 0.31623 0.86209 0.42217 0.0
C1335 C 0.35338 0.04617 0.6579 0.0
C1336 C 0.3759 0.03733 0.6402 0.0
C1337 C 0.3568 0.06432 0.68265 0.0
C1338 C 0.38287 0.07457 0.69073 0.0
H1339 H 0.33298 0.0383 0.65322 0.0
H1340 H 0.33882 0.06983 0.69604 0.0
S1341 S 0.44828 0.05954 0.65004 0.0
N1342 N 0.425 0.04142 0.6311 0.0
N1343 N 0.43152 0.07569 0.67785 0.0
C1344 C 0.4055 0.0668 0.67246 0.0
C1345 C 0.40201 0.04805 0.64725 0.0
C1346 C 0.20753 0.10879 0.93469 0.0
C1347 C 0.19282 0.1332 0.94032 0.0
C1348 C 0.22692 0.10708 0.91105 0.0
C1349 C 0.23219 0.12952 0.89167 0.0
H1350 H 0.20477 0.0909 0.94929 0.0
H1351 H 0.23819 0.08807 0.90813 0.0
S1352 S 0.19809 0.19746 0.89443 0.0
N1353 N 0.18397 0.18002 0.92317 0.0
N1354 N 0.22032 0.1764 0.87796 0.0
C1355 C 0.21683 0.15366 0.89574 0.0
C1356 C 0.19712 0.15558 0.92023 0.0
C1357 C 0.16085 0.94716 0.17804 0.0
C1358 C 0.13453 0.93884 0.18773 0.0
C1359 C 0.16428 0.96623 0.15422 0.0
C1360 C 0.14155 0.97759 0.13889 0.0
H1361 H 0.17907 0.93977 0.18983 0.0
H1362 H 0.18491 0.97274 0.14833 0.0
S1363 S 0.06837 0.96055 0.15282 0.0
N1364 N 0.08533 0.94174 0.17833 0.0
N1365 N 0.09188 0.97762 0.13304 0.0
C1366 C 0.11515 0.96813 0.14674 0.0
C1367 C 0.11161 0.94868 0.17127 0.0
C1368 C 0.71926 0.91148 0.9021 0.0
C1369 C 0.73014 0.88841 0.88696 0.0
C1370 C 0.70112 0.90864 0.927 0.0
C1371 C 0.69287 0.88262 0.93771 0.0
H1372 H 0.72549 0.93196 0.8953 0.0
H1373 H 0.69398 0.9271 0.93842 0.0
S1374 S 0.71382 0.81565 0.90448 0.0
N1375 N 0.73022 0.83862 0.88323 0.0
N1376 N 0.69595 0.83326 0.93019 0.0
C1377 C 0.70272 0.85933 0.92204 0.0
C1378 C 0.72149 0.86222 0.89673 0.0
C1379 C 0.86063 0.95821 0.64631 0.0
C1380 C 0.88069 0.97823 0.63999 0.0
C1381 C 0.86408 0.93939 0.67054 0.0
C1382 C 0.88795 0.9395 0.68883 0.0
H1383 H 0.84156 0.9579 0.63337 0.0
H1384 H 0.84756 0.92518 0.67563 0.0
S1385 S 0.94727 0.98663 0.68076 0.0
N1386 N 0.92578 0.99629 0.65317 0.0
N1387 N 0.93238 0.96054 0.69853 0.0
C1388 C 0.90873 0.95854 0.68194 0.0
C1389 C 0.90503 0.97806 0.65758 0.0
C1390 C 0.7921 0.10372 0.41064 0.0
C1391 C 0.78746 0.12544 0.38992 0.0
C1392 C 0.80955 0.1068 0.43611 0.0
C1393 C 0.82321 0.13176 0.44208 0.0
H1394 H 0.78159 0.0843 0.40761 0.0
H1395 H 0.81185 0.08943 0.45157 0.0
S1396 S 0.81993 0.19428 0.39302 0.0
N1397 N 0.79921 0.17226 0.37563 0.0
N1398 N 0.83216 0.17817 0.42378 0.0
C1399 C 0.81954 0.15344 0.42089 0.0
C1400 C 0.80155 0.15029 0.39485 0.0
C1401 C 0.66387 0.04407 0.15611 0.0
C1402 C 0.64147 0.03746 0.13712 0.0
C1403 C 0.66124 0.06297 0.18015 0.0
C1404 C 0.63595 0.07584 0.18659 0.0
H1405 H 0.68357 0.0342 0.15262 0.0
H1406 H 0.67916 0.06675 0.19441 0.0
S1407 S 0.57147 0.06713 0.14172 0.0
N1408 N 0.59364 0.04646 0.12455 0.0
N1409 N 0.58843 0.08197 0.17035 0.0
C1410 C 0.61361 0.07041 0.16678 0.0
C1411 C 0.61643 0.05119 0.14193 0.0
C1412 C 0.70812 0.10841 0.67488 0.0
C1413 C 0.72567 0.12996 0.68375 0.0
C1414 C 0.68921 0.11168 0.65073 0.0
C1415 C 0.68679 0.13672 0.63479 0.0
H1416 H 0.70994 0.08839 0.68563 0.0
H1417 H 0.67713 0.09408 0.64363 0.0
S1418 S 0.72623 0.20026 0.65067 0.0
N1419 N 0.73816 0.17781 0.67606 0.0
N1420 N 0.70239 0.18396 0.63057 0.0
C1421 C 0.7031 0.15893 0.64445 0.0
C1422 C 0.72267 0.15551 0.66888 0.0
C1423 C 0.62448 0.96103 0.43127 0.0
C1424 C 0.63764 0.98653 0.42703 0.0
C1425 C 0.62114 0.94264 0.40638 0.0
C1426 C 0.63115 0.94919 0.37676 0.0
H1427 H 0.61761 0.9549 0.45411 0.0
H1428 H 0.61164 0.92289 0.41058 0.0
S1429 S 0.66228 0.01551 0.35267 0.0
N1430 N 0.65706 0.01882 0.39025 0.0
N1431 N 0.65138 0.98442 0.34383 0.0
C1432 C 0.64278 0.97533 0.37201 0.0
C1433 C 0.6459 0.99396 0.39708 0.0
C1434 C 0.81574 0.85984 0.14879 0.0
C1435 C 0.82734 0.88312 0.13462 0.0
C1436 C 0.79692 0.86261 0.17329 0.0
C1437 C 0.78917 0.88871 0.18417 0.0
H1438 H 0.82004 0.83952 0.13986 0.0
H1439 H 0.78748 0.84434 0.18285 0.0
S1440 S 0.81737 0.95559 0.1586 0.0
N1441 N 0.83247 0.93279 0.13607 0.0
N1442 N 0.79704 0.93783 0.18172 0.0
C1443 C 0.80204 0.9119 0.17159 0.0
C1444 C 0.82119 0.90914 0.14693 0.0
C1445 C 0.8524 0.06216 0.88847 0.0
C1446 C 0.87799 0.0744 0.88213 0.0
C1447 C 0.849 0.04407 0.91333 0.0
C1448 C 0.87109 0.0373 0.93284 0.0
H1449 H 0.83483 0.06607 0.87368 0.0
H1450 H 0.82907 0.03463 0.91671 0.0
S1451 S 0.94183 0.06531 0.92814 0.0
N1452 N 0.92552 0.07968 0.89873 0.0
N1453 N 0.91903 0.04553 0.94562 0.0
C1454 C 0.8966 0.05004 0.92755 0.0
C1455 C 0.90005 0.0687 0.90225 0.0
C1456 C 0.79656 0.60104 0.66391 0.0
C1457 C 0.78891 0.62377 0.68184 0.0
C1458 C 0.81589 0.60355 0.64023 0.0
C1459 C 0.82821 0.62896 0.63322 0.0
H1460 H 0.78708 0.58121 0.66783 0.0
H1461 H 0.82041 0.58548 0.62654 0.0
S1462 S 0.81663 0.6944 0.67511 0.0
N1463 N 0.79629 0.67215 0.69268 0.0
N1464 N 0.83262 0.67704 0.64766 0.0
C1465 C 0.82183 0.65163 0.65206 0.0
C1466 C 0.80213 0.64899 0.67647 0.0
C1467 C 0.66238 0.57501 0.89692 0.0
C1468 C 0.63607 0.5786 0.88415 0.0
C1469 C 0.66689 0.55664 0.92132 0.0
C1470 C 0.64533 0.5408 0.93363 0.0
H1471 H 0.67983 0.58585 0.88727 0.0
H1472 H 0.68764 0.55425 0.93003 0.0
S1473 S 0.57237 0.54304 0.9086 0.0
N1474 N 0.58791 0.5657 0.88618 0.0
N1475 N 0.59643 0.53051 0.93163 0.0
C1476 C 0.61866 0.54499 0.92186 0.0
C1477 C 0.61402 0.56405 0.89719 0.0
C1478 C 0.70123 0.36199 0.15015 0.0
C1479 C 0.69196 0.38561 0.13453 0.0
C1480 C 0.72007 0.36406 0.17481 0.0
C1481 C 0.73022 0.38976 0.18437 0.0
H1482 H 0.69504 0.3418 0.14231 0.0
H1483 H 0.72761 0.34543 0.18558 0.0
S1484 S 0.70896 0.4578 0.15442 0.0
N1485 N 0.69182 0.43556 0.13302 0.0
N1486 N 0.72726 0.43923 0.1789 0.0
C1487 C 0.71979 0.41347 0.17021 0.0
C1488 C 0.70061 0.41144 0.14542 0.0
C1489 C 0.90356 0.47242 0.41913 0.0
C1490 C 0.87818 0.47458 0.43459 0.0
C1491 C 0.90737 0.45339 0.39503 0.0
C1492 C 0.88576 0.43627 0.38531 0.0
H1493 H 0.92036 0.48595 0.42528 0.0
H1494 H 0.9268 0.4532 0.38281 0.0
S1495 S 0.81583 0.43297 0.4191 0.0
N1496 N 0.83157 0.45713 0.43918 0.0
N1497 N 0.83871 0.42161 0.39399 0.0
C1498 C 0.8607 0.43753 0.40136 0.0
C1499 C 0.8569 0.45663 0.42596 0.0
C1500 C 0.79087 0.41083 0.91065 0.0
C1501 C 0.78664 0.38879 0.89034 0.0
C1502 C 0.80978 0.40898 0.9349 0.0
C1503 C 0.82511 0.38487 0.94011 0.0
H1504 H 0.77927 0.42966 0.90794 0.0
H1505 H 0.81179 0.4265 0.95016 0.0
S1506 S 0.82246 0.32162 0.89234 0.0
N1507 N 0.79998 0.34246 0.87589 0.0
N1508 N 0.83555 0.33878 0.92186 0.0
C1509 C 0.82181 0.36293 0.91925 0.0
C1510 C 0.80254 0.36493 0.89429 0.0
C1511 C 0.85663 0.56928 0.17678 0.0
C1512 C 0.88288 0.57744 0.18693 0.0
C1513 C 0.8533 0.55136 0.15183 0.0
C1514 C 0.87607 0.54071 0.13594 0.0
H1515 H 0.83835 0.57607 0.18885 0.0
H1516 H 0.83268 0.54489 0.14578 0.0
S1517 S 0.9491 0.55823 0.15039 0.0
N1518 N 0.93206 0.57553 0.17708 0.0
N1519 N 0.92571 0.5415 0.13006 0.0
C1520 C 0.90243 0.5497 0.14468 0.0
C1521 C 0.90585 0.56827 0.17008 0.0
C1522 C 0.71945 0.60291 0.40531 0.0
C1523 C 0.72985 0.62591 0.38953 0.0
C1524 C 0.70147 0.60585 0.43033 0.0
C1525 C 0.69288 0.6319 0.44051 0.0
H1526 H 0.72593 0.58242 0.39886 0.0
H1527 H 0.69466 0.58747 0.44222 0.0
S1528 S 0.71266 0.69869 0.40568 0.0
N1529 N 0.72921 0.67563 0.38476 0.0
N1530 N 0.69522 0.6812 0.43193 0.0
C1531 C 0.70231 0.65511 0.42427 0.0
C1532 C 0.72092 0.6521 0.39885 0.0
C1533 C 0.65715 0.45711 0.68653 0.0
C1534 C 0.63297 0.44172 0.69112 0.0
C1535 C 0.6592 0.47634 0.66275 0.0
C1536 C 0.63736 0.48078 0.64222 0.0
H1537 H 0.67462 0.45492 0.7019 0.0
H1538 H 0.67805 0.48801 0.66049 0.0
S1539 S 0.57022 0.44497 0.64233 0.0
N1540 N 0.58699 0.43153 0.67199 0.0
N1541 N 0.59126 0.46767 0.62659 0.0
C1542 C 0.61344 0.46493 0.64546 0.0
C1543 C 0.61115 0.44538 0.67007 0.0
C1544 C 0.20398 0.36305 0.42665 0.0
C1545 C 0.19268 0.38583 0.44208 0.0
C1546 C 0.22307 0.36663 0.40252 0.0
C1547 C 0.23148 0.39306 0.39332 0.0
H1548 H 0.1991 0.34241 0.4342 0.0
H1549 H 0.23211 0.34867 0.39184 0.0
S1550 S 0.20494 0.45918 0.42319 0.0
N1551 N 0.18903 0.43562 0.444 0.0
N1552 N 0.22496 0.44216 0.39908 0.0
C1553 C 0.21918 0.41587 0.40741 0.0
C1554 C 0.19975 0.41229 0.43167 0.0
C1555 C 0.35815 0.45221 0.18048 0.0
C1556 C 0.38386 0.44137 0.18907 0.0
C1557 C 0.35579 0.47188 0.15711 0.0
C1558 C 0.37901 0.48132 0.14113 0.0
H1559 H 0.33965 0.44618 0.19265 0.0
H1560 H 0.33566 0.48019 0.15188 0.0
S1561 S 0.45084 0.45837 0.15281 0.0
N1562 N 0.43298 0.44062 0.17847 0.0
N1563 N 0.42833 0.47751 0.13393 0.0
C1564 C 0.4047 0.46974 0.14816 0.0
C1565 C 0.40718 0.44973 0.17225 0.0
C1566 C 0.30722 0.63966 0.89121 0.0
C1567 C 0.28084 0.62855 0.89579 0.0
C1568 C 0.32514 0.64384 0.9164 0.0
C1569 C 0.31706 0.63683 0.94664 0.0
H1570 H 0.31436 0.64416 0.86799 0.0
H1571 H 0.34568 0.65146 0.91207 0.0
S1572 S 0.24834 0.61162 0.97095 0.0
N1573 N 0.24638 0.61392 0.93286 0.0
N1574 N 0.27974 0.62155 0.98004 0.0
C1575 C 0.2901 0.62731 0.9515 0.0
C1576 C 0.27204 0.62321 0.92608 0.0
C1577 C 0.15801 0.56074 0.68416 0.0
C1578 C 0.13375 0.57579 0.6895 0.0
C1579 C 0.15977 0.54169 0.66022 0.0
C1580 C 0.13756 0.53717 0.64025 0.0
H1581 H 0.17568 0.56289 0.69923 0.0
H1582 H 0.17859 0.53004 0.65759 0.0
S1583 S 0.07041 0.5729 0.64168 0.0
N1584 N 0.08753 0.58611 0.6712 0.0
N1585 N 0.09127 0.55038 0.6254 0.0
C1586 C 0.1137 0.55304 0.6439 0.0
C1587 C 0.11171 0.57239 0.66871 0.0
C1588 C 0.19766 0.60515 0.14391 0.0
C1589 C 0.18758 0.63109 0.13514 0.0
C1590 C 0.21719 0.60236 0.16737 0.0
C1591 C 0.22727 0.62536 0.18323 0.0
H1592 H 0.19131 0.58683 0.1316 0.0
H1593 H 0.22507 0.58206 0.17257 0.0
S1594 S 0.20576 0.69761 0.17154 0.0
N1595 N 0.18768 0.68014 0.14583 0.0
N1596 N 0.22442 0.67474 0.19047 0.0
C1597 C 0.21615 0.65127 0.17627 0.0
C1598 C 0.19623 0.65418 0.15211 0.0
C1599 C 0.16217 0.4532 0.88772 0.0
C1600 C 0.13604 0.44231 0.88096 0.0
C1601 C 0.16622 0.47122 0.91246 0.0
C1602 C 0.14432 0.47925 0.93155 0.0
H1603 H 0.17971 0.44829 0.87334 0.0
H1604 H 0.18659 0.47962 0.91607 0.0
S1605 S 0.0723 0.45484 0.92585 0.0
N1606 N 0.08817 0.43952 0.89681 0.0
N1607 N 0.09588 0.47353 0.94357 0.0
C1608 C 0.11824 0.46782 0.92591 0.0
C1609 C 0.1141 0.44922 0.90066 0.0
C1610 C 0.31552 0.36002 0.64691 0.0
C1611 C 0.3281 0.38324 0.63366 0.0
C1612 C 0.29606 0.36288 0.67077 0.0
C1613 C 0.28869 0.389 0.68188 0.0
H1614 H 0.31945 0.33977 0.63759 0.0
H1615 H 0.28576 0.34474 0.67948 0.0
S1616 S 0.31933 0.45551 0.65879 0.0
N1617 N 0.33451 0.43269 0.63635 0.0
N1618 N 0.29792 0.43793 0.68082 0.0
C1619 C 0.30261 0.41203 0.67038 0.0
C1620 C 0.32237 0.40917 0.64637 0.0
C1621 C 0.40031 0.54325 0.42023 0.0
C1622 C 0.37385 0.53784 0.43194 0.0
C1623 C 0.40428 0.5618 0.39562 0.0
C1624 C 0.38184 0.57516 0.38164 0.0
H1625 H 0.41799 0.53278 0.42987 0.0
H1626 H 0.42483 0.56468 0.38658 0.0
S1627 S 0.30865 0.56893 0.40451 0.0
N1628 N 0.32509 0.54805 0.42826 0.0
N1629 N 0.33251 0.5828 0.38233 0.0
C1630 C 0.35546 0.57057 0.39384 0.0
C1631 C 0.35146 0.55192 0.41889 0.0
C1632 C 0.12801 0.22779 0.36447 0.0
C1633 C 0.1287 0.22094 0.39633 0.0
C1634 C 0.12916 0.20729 0.34111 0.0
C1635 C 0.1308 0.1792 0.34879 0.0
H1636 H 0.12805 0.24915 0.35754 0.0
H1637 H 0.1305 0.21356 0.31709 0.0
S1638 S 0.12877 0.15019 0.42835 0.0
N1639 N 0.12762 0.1837 0.43374 0.0
N1640 N 0.13032 0.1458 0.39049 0.0
C1641 C 0.12971 0.17222 0.38043 0.0
C1642 C 0.12847 0.19285 0.40399 0.0
C1643 C 0.06066 0.87448 0.59258 0.0
C1644 C 0.08829 0.88022 0.60004 0.0
C1645 C 0.04015 0.87303 0.61599 0.0
C1646 C 0.04652 0.8775 0.64761 0.0
H1647 H 0.05456 0.87272 0.56853 0.0
H1648 H 0.019 0.8697 0.60916 0.0
S1649 S 0.11635 0.88906 0.67956 0.0
N1650 N 0.12101 0.88748 0.64175 0.0
N1651 N 0.08311 0.88453 0.68496 0.0
C1652 C 0.07431 0.88146 0.65525 0.0
C1653 C 0.09494 0.88289 0.63171 0.0
C1654 C 0.40387 0.82996 0.86023 0.0
C1655 C 0.38162 0.83161 0.83937 0.0
C1656 C 0.40461 0.80999 0.88416 0.0
C1657 C 0.38289 0.79108 0.88862 0.0
H1658 H 0.41994 0.84527 0.85947 0.0
H1659 H 0.42163 0.81039 0.90032 0.0
S1660 S 0.32107 0.78534 0.83848 0.0
N1661 N 0.33821 0.81152 0.82375 0.0
N1662 N 0.33966 0.77414 0.86791 0.0
C1663 C 0.3612 0.79186 0.86695 0.0
C1664 C 0.36052 0.81206 0.8427 0.0
C1665 C 0.43364 0.10652 0.11964 0.0
C1666 C 0.43175 0.12448 0.09398 0.0
C1667 C 0.45444 0.10884 0.14211 0.0
C1668 C 0.4747 0.12938 0.14052 0.0
H1669 H 0.41869 0.09027 0.1227 0.0
H1670 H 0.45431 0.09449 0.16129 0.0
S1671 S 0.4802 0.18145 0.07772 0.0
N1672 N 0.45284 0.16331 0.06797 0.0
N1673 N 0.49179 0.16805 0.11042 0.0
C1674 C 0.47322 0.14768 0.11502 0.0
C1675 C 0.45192 0.14512 0.09177 0.0
C1676 C 0.1271 0.80954 0.23293 0.0
C1677 C 0.13355 0.83687 0.22496 0.0
C1678 C 0.12508 0.78874 0.20993 0.0
C1679 C 0.12959 0.79448 0.17815 0.0
H1680 H 0.12511 0.80388 0.25709 0.0
H1681 H 0.12117 0.76783 0.21721 0.0
S1682 S 0.14274 0.86353 0.14492 0.0
N1683 N 0.1416 0.86873 0.18265 0.0
N1684 N 0.1373 0.83037 0.14013 0.0
C1685 C 0.13428 0.82204 0.17001 0.0
C1686 C 0.1364 0.84296 0.19317 0.0
C1687 C 0.47669 0.87547 0.45638 0.0
C1688 C 0.47037 0.88129 0.425 0.0
C1689 C 0.45636 0.87671 0.48 0.0
C1690 C 0.42891 0.88368 0.4731 0.0
H1691 H 0.49772 0.87113 0.46294 0.0
H1692 H 0.46251 0.8737 0.50388 0.0
S1693 S 0.40064 0.89626 0.39435 0.0
N1694 N 0.43366 0.89075 0.38838 0.0
N1695 N 0.39622 0.89369 0.43213 0.0
C1696 C 0.42219 0.88788 0.44167 0.0
C1697 C 0.44263 0.88651 0.41785 0.0
C1698 C 0.36496 0.20189 0.67632 0.0
C1699 C 0.38613 0.22151 0.67679 0.0
C1700 C 0.36246 0.18173 0.69936 0.0
C1701 C 0.3809 0.17976 0.72462 0.0
H1702 H 0.34988 0.20208 0.65784 0.0
H1703 H 0.34565 0.16731 0.69702 0.0
S1704 S 0.44014 0.22625 0.73764 0.0
N1705 N 0.42624 0.23774 0.70514 0.0
N1706 N 0.42108 0.19999 0.7489 0.0
C1707 C 0.40209 0.19943 0.72589 0.0
C1708 C 0.40474 0.22022 0.70205 0.0
C1709 C 0.08564 0.11078 0.95019 0.0
C1710 C 0.08658 0.1274 0.97699 0.0
C1711 C 0.06507 0.11348 0.92763 0.0
C1712 C 0.04398 0.13304 0.93026 0.0
H1713 H 0.10116 0.09524 0.94626 0.0
H1714 H 0.06568 0.0998 0.90786 0.0
S1715 S 0.03628 0.18207 0.9957 0.0
N1716 N 0.06398 0.16421 1.00497 0.0
N1717 N 0.02536 0.16976 0.96219 0.0
C1718 C 0.04433 0.14988 0.95701 0.0
C1719 C 0.06557 0.14705 0.98031 0.0
C1720 C 0.87513 0.80628 0.73196 0.0
C1721 C 0.88777 0.83208 0.72799 0.0
C1722 C 0.87639 0.78572 0.70879 0.0
C1723 C 0.89028 0.79003 0.68044 0.0
H1724 H 0.86294 0.80243 0.75249 0.0
H1725 H 0.86578 0.76652 0.71281 0.0
S1726 S 0.92566 0.85462 0.65788 0.0
N1727 N 0.91397 0.86089 0.69305 0.0
N1728 N 0.9166 0.82274 0.64997 0.0
C1729 C 0.90347 0.81561 0.67655 0.0
C1730 C 0.90205 0.83648 0.70007 0.0
C1731 C 0.97632 0.13761 0.46006 0.0
C1732 C 0.96973 0.13483 0.42823 0.0
C1733 C 0.95579 0.13648 0.48347 0.0
C1734 C 0.92785 0.13269 0.47594 0.0
H1735 H 0.99761 0.13945 0.46704 0.0
H1736 H 0.96203 0.13704 0.50755 0.0
S1737 S 0.89909 0.12879 0.39631 0.0
N1738 N 0.93252 0.13164 0.39087 0.0
N1739 N 0.89467 0.12886 0.4342 0.0
C1740 C 0.921 0.13151 0.44424 0.0
C1741 C 0.94166 0.13277 0.42062 0.0
C1742 C 0.62682 0.22866 0.20778 0.0
C1743 C 0.62867 0.22251 0.17579 0.0
C1744 C 0.62854 0.20781 0.23077 0.0
C1745 C 0.63197 0.18001 0.2226 0.0
H1746 H 0.62538 0.24985 0.21516 0.0
H1747 H 0.62883 0.21368 0.25496 0.0
S1748 S 0.6335 0.15248 0.14239 0.0
N1749 N 0.6306 0.18597 0.13764 0.0
N1750 N 0.63443 0.14747 0.18018 0.0
C1751 C 0.63213 0.17362 0.19077 0.0
C1752 C 0.6303 0.19461 0.16758 0.0
C1753 C 0.56443 0.90185 0.92413 0.0
C1754 C 0.5433 0.88247 0.92751 0.0
C1755 C 0.58558 0.90431 0.94599 0.0
C1756 C 0.58689 0.88774 0.97286 0.0
H1757 H 0.56485 0.91522 0.90406 0.0
H1758 H 0.60118 0.91966 0.94153 0.0
S1759 S 0.53629 0.83379 0.99337 0.0
N1760 N 0.52491 0.846 0.95997 0.0
N1761 N 0.56447 0.85124 1.0017 0.0
C1762 C 0.5659 0.86813 0.97675 0.0
C1763 C 0.54427 0.86533 0.95397 0.0
C1764 C 0.86137 0.20229 0.89332 0.0
C1765 C 0.88208 0.2224 0.89186 0.0
C1766 C 0.85821 0.18224 0.87018 0.0
C1767 C 0.87556 0.18083 0.84398 0.0
H1768 H 0.8471 0.20207 0.91256 0.0
H1769 H 0.84178 0.16748 0.87315 0.0
S1770 S 0.9333 0.22852 0.82826 0.0
N1771 N 0.92063 0.2395 0.86154 0.0
N1772 N 0.91429 0.20196 0.81784 0.0
C1773 C 0.89636 0.20086 0.84185 0.0
C1774 C 0.89963 0.22155 0.86567 0.0
C1775 C 0.56236 0.15307 0.63849 0.0
C1776 C 0.53912 0.13566 0.63794 0.0
C1777 C 0.5827 0.15195 0.61517 0.0
C1778 C 0.58048 0.13384 0.58988 0.0
H1779 H 0.56575 0.16654 0.65806 0.0
H1780 H 0.60115 0.1641 0.61806 0.0
S1781 S 0.52277 0.08588 0.5754 0.0
N1782 N 0.51432 0.10133 0.60808 0.0
N1783 N 0.5526 0.09908 0.56493 0.0
C1784 C 0.55683 0.11734 0.58822 0.0
C1785 C 0.53615 0.11835 0.61194 0.0
C1786 C 0.62604 0.81065 0.34264 0.0
C1787 C 0.6308 0.83824 0.35097 0.0
C1788 C 0.62512 0.78955 0.36542 0.0
C1789 C 0.62913 0.79527 0.39727 0.0
H1790 H 0.62462 0.80512 0.3184 0.0
H1791 H 0.62256 0.76851 0.35792 0.0
S1792 S 0.63797 0.86463 0.4313 0.0
N1793 N 0.63652 0.87019 0.39361 0.0
N1794 N 0.6346 0.83115 0.43572 0.0
C1795 C 0.63209 0.82297 0.40574 0.0
C1796 C 0.63298 0.84422 0.38282 0.0
C1797 C 0.9574 0.87823 0.09045 0.0
C1798 C 0.9296 0.88265 0.09817 0.0
C1799 C 0.97808 0.87683 0.11372 0.0
C1800 C 0.97175 0.87997 0.14555 0.0
H1801 H 0.96343 0.87745 0.06633 0.0
H1802 H 0.99929 0.87456 0.10665 0.0
S1803 S 0.9016 0.88778 0.17803 0.0
N1804 N 0.89687 0.88746 0.14018 0.0
N1805 N 0.935 0.88421 0.1832 0.0
C1806 C 0.94382 0.8826 0.15338 0.0
C1807 C 0.92303 0.88412 0.12993 0.0
C1808 C 0.65532 0.68297 0.87196 0.0
C1809 C 0.63745 0.68095 0.8462 0.0
C1810 C 0.65304 0.70389 0.8941 0.0
C1811 C 0.63262 0.7242 0.89214 0.0
H1812 H 0.67158 0.66808 0.87533 0.0
H1813 H 0.66739 0.70387 0.91329 0.0
S1814 S 0.58017 0.72894 0.82959 0.0
N1815 N 0.59837 0.70156 0.82011 0.0
N1816 N 0.59371 0.7409 0.86203 0.0
C1817 C 0.61418 0.72245 0.86677 0.0
C1818 C 0.61669 0.70096 0.8438 0.0
C1819 C 0.58779 0.40812 0.12431 0.0
C1820 C 0.58811 0.39229 0.09688 0.0
C1821 C 0.56755 0.40491 0.14719 0.0
C1822 C 0.54619 0.38564 0.14422 0.0
H1823 H 0.60355 0.42337 0.12848 0.0
H1824 H 0.56863 0.41798 0.16744 0.0
S1825 S 0.53693 0.33868 0.07709 0.0
N1826 N 0.56464 0.35656 0.06798 0.0
N1827 N 0.52671 0.35006 0.11127 0.0
C1828 C 0.54596 0.3696 0.11684 0.0
C1829 C 0.56684 0.37294 0.09327 0.0
C1830 C 0.87414 0.30615 0.34312 0.0
C1831 C 0.88923 0.33082 0.3449 0.0
C1832 C 0.8751 0.28628 0.36705 0.0
C1833 C 0.89066 0.29053 0.39425 0.0
H1834 H 0.86021 0.30288 0.32388 0.0
H1835 H 0.86222 0.26824 0.36504 0.0
S1836 S 0.93513 0.35101 0.40965 0.0
N1837 N 0.92109 0.35767 0.37562 0.0
N1838 N 0.92323 0.32065 0.42012 0.0
C1839 C 0.90681 0.31457 0.39558 0.0
C1840 C 0.90594 0.33462 0.37115 0.0
C1841 C 0.93362 0.60872 0.62233 0.0
C1842 C 0.932 0.62615 0.59619 0.0
C1843 C 0.95357 0.61204 0.64547 0.0
C1844 C 0.97331 0.63306 0.64413 0.0
H1845 H 0.91909 0.59209 0.62529 0.0
H1846 H 0.95353 0.59772 0.66469 0.0
S1847 S 0.97897 0.68451 0.58071 0.0
N1848 N 0.95268 0.66517 0.5701 0.0
N1849 N 0.99006 0.6719 0.61404 0.0
C1850 C 0.97235 0.65067 0.618 0.0
C1851 C 0.95176 0.64719 0.59409 0.0
C1852 C 0.62641 0.30793 0.72937 0.0
C1853 C 0.62876 0.3361 0.72228 0.0
C1854 C 0.62507 0.28781 0.70559 0.0
C1855 C 0.62625 0.2951 0.67385 0.0
H1856 H 0.62734 0.30127 0.75329 0.0
H1857 H 0.62451 0.26635 0.71211 0.0
S1858 S 0.6282 0.36629 0.64322 0.0
N1859 N 0.62944 0.37009 0.68117 0.0
N1860 N 0.62641 0.3329 0.63717 0.0
C1861 C 0.62676 0.32329 0.66675 0.0
C1862 C 0.62818 0.34355 0.69073 0.0
C1863 C 0.93458 0.40914 0.95366 0.0
C1864 C 0.93242 0.39115 0.97927 0.0
C1865 C 0.95531 0.40657 0.93129 0.0
C1866 C 0.97525 0.38575 0.93292 0.0
H1867 H 0.9199 0.42561 0.95054 0.0
H1868 H 0.95539 0.42096 0.91214 0.0
S1869 S 0.97997 0.33341 0.99551 0.0
N1870 N 0.95289 0.35195 1.00527 0.0
N1871 N 0.99176 0.34672 0.96286 0.0
C1872 C 0.9735 0.36738 0.95831 0.0
C1873 C 0.95225 0.3702 0.98151 0.0
C1874 C 0.87138 0.72676 0.20474 0.0
C1875 C 0.88833 0.72311 0.17855 0.0
C1876 C 0.86984 0.70676 0.22848 0.0
C1877 C 0.88569 0.68254 0.22761 0.0
H1878 H 0.85801 0.74448 0.2061 0.0
H1879 H 0.85506 0.70965 0.24694 0.0
S1880 S 0.93484 0.66376 0.16548 0.0
N1881 N 0.9227 0.69389 0.15449 0.0
N1882 N 0.91946 0.65661 0.19859 0.0
C1883 C 0.90358 0.67925 0.2023 0.0
C1884 C 0.90504 0.69943 0.17803 0.0
C1885 C 0.58603 0.60978 0.44892 0.0
C1886 C 0.58726 0.62726 0.47501 0.0
C1887 C 0.56587 0.61247 0.42594 0.0
C1888 C 0.54556 0.63291 0.42734 0.0
H1889 H 0.60103 0.5936 0.44585 0.0
H1890 H 0.56625 0.59815 0.40676 0.0
S1891 S 0.53861 0.68413 0.4907 0.0
N1892 N 0.56552 0.66561 0.50118 0.0
N1893 N 0.52775 0.6712 0.45745 0.0
C1894 C 0.54607 0.65053 0.45344 0.0
C1895 C 0.56686 0.64766 0.47723 0.0
C1896 C 0.36521 0.31423 0.176 0.0
C1897 C 0.38471 0.29311 0.17889 0.0
C1898 C 0.36228 0.33465 0.1986 0.0
C1899 C 0.3786 0.3354 0.22569 0.0
H1900 H 0.35174 0.31496 0.15602 0.0
H1901 H 0.3468 0.35021 0.19448 0.0
S1902 S 0.43301 0.28497 0.24513 0.0
N1903 N 0.42105 0.27424 0.21137 0.0
N1904 N 0.4151 0.31265 0.25419 0.0
C1905 C 0.3982 0.31437 0.22925 0.0
C1906 C 0.40126 0.29327 0.20593 0.0
C1907 C 0.45221 0.61458 0.92719 0.0
C1908 C 0.47297 0.63457 0.92896 0.0
C1909 C 0.43086 0.61324 0.94897 0.0
C1910 C 0.42891 0.63163 0.97419 0.0
H1911 H 0.45217 0.59986 0.9084 0.0
H1912 H 0.41562 0.5973 0.94576 0.0
S1913 S 0.47812 0.68802 0.99017 0.0
N1914 N 0.4902 0.6736 0.9583 0.0
N1915 N 0.45019 0.67064 0.99965 0.0
C1916 C 0.44947 0.65189 0.97646 0.0
C1917 C 0.47133 0.65348 0.95381 0.0
C1918 C 0.14959 0.6985 0.67406 0.0
C1919 C 0.13382 0.72229 0.6788 0.0
C1920 C 0.15184 0.67798 0.69675 0.0
C1921 C 0.13853 0.67987 0.72575 0.0
H1922 H 0.16047 0.6956 0.65241 0.0
H1923 H 0.1646 0.6604 0.69142 0.0
S1924 S 0.0938 0.73749 0.75012 0.0
N1925 N 0.10376 0.74622 0.71484 0.0
N1926 N 0.10816 0.70744 0.75759 0.0
C1927 C 0.12194 0.70311 0.73073 0.0
C1928 C 0.11956 0.72427 0.70732 0.0
C1929 C 0.06986 0.39779 0.42247 0.0
C1930 C 0.04627 0.38156 0.42661 0.0
C1931 C 0.09034 0.39962 0.44526 0.0
C1932 C 0.08858 0.38545 0.47376 0.0
H1933 H 0.07259 0.40939 0.40127 0.0
H1934 H 0.10776 0.41279 0.44042 0.0
S1935 S 0.03162 0.33904 0.49627 0.0
N1936 N 0.02276 0.34998 0.46137 0.0
N1937 N 0.06144 0.35365 0.50437 0.0
C1938 C 0.06558 0.36835 0.47807 0.0
C1939 C 0.04448 0.36636 0.45453 0.0
C1940 C 0.39254 0.72613 0.36155 0.0
C1941 C 0.38624 0.7205 0.39294 0.0
C1942 C 0.39116 0.7054 0.33842 0.0
C1943 C 0.38358 0.67827 0.34592 0.0
H1944 H 0.39739 0.74693 0.35459 0.0
H1945 H 0.39456 0.711 0.31444 0.0
S1946 S 0.36961 0.6518 0.42514 0.0
N1947 N 0.37557 0.68483 0.43034 0.0
N1948 N 0.37264 0.64655 0.38755 0.0
C1949 C 0.37896 0.67221 0.37744 0.0
C1950 C 0.38038 0.69307 0.40073 0.0
C1951 C 0.08282 0.6074 0.12141 0.0
C1952 C 0.08436 0.62522 0.09558 0.0
C1953 C 0.06226 0.60964 0.14401 0.0
C1954 C 0.04187 0.63 0.1425 0.0
H1955 H 0.09785 0.59124 0.12453 0.0
H1956 H 0.06265 0.59533 0.16324 0.0
S1957 S 0.03548 0.68194 0.07969 0.0
N1958 N 0.06278 0.66386 0.06962 0.0
N1959 N 0.02432 0.66859 0.1126 0.0
C1960 C 0.04301 0.6483 0.11699 0.0
C1961 C 0.06407 0.64577 0.09348 0.0
C1962 C 0.12647 0.31015 0.84074 0.0
C1963 C 0.13224 0.33775 0.84812 0.0
C1964 C 0.12523 0.28959 0.86413 0.0
C1965 C 0.12984 0.29581 0.89578 0.0
H1966 H 0.12439 0.30413 0.81671 0.0
H1967 H 0.1218 0.26851 0.85722 0.0
S1968 S 0.14141 0.3657 0.92753 0.0
N1969 N 0.13982 0.37037 0.8897 0.0
N1970 N 0.13693 0.33247 0.93302 0.0
C1971 C 0.13391 0.32362 0.90335 0.0
C1972 C 0.13527 0.34431 0.87975 0.0
C1973 C 0.47856 0.37696 0.61221 0.0
C1974 C 0.47198 0.38068 0.64388 0.0
C1975 C 0.45812 0.37846 0.5887 0.0
C1976 C 0.43037 0.38357 0.59606 0.0
H1977 H 0.49979 0.3742 0.60545 0.0
H1978 H 0.46434 0.37726 0.56466 0.0
S1979 S 0.40182 0.3905 0.6755 0.0
N1980 N 0.43508 0.38623 0.68108 0.0
N1981 N 0.3974 0.38972 0.63762 0.0
C1982 C 0.42354 0.3856 0.62771 0.0
C1983 C 0.44408 0.38396 0.65138 0.0
C1984 C 0.12512 0.02089 0.26255 0.0
C1985 C 0.10949 0.03794 0.28201 0.0
C1986 C 0.12586 0.9921 0.26691 0.0
C1987 C 0.11096 0.979 0.29092 0.0
H1988 H 0.13683 0.02984 0.24376 0.0
H1989 H 0.13791 0.98002 0.25089 0.0
S1990 S 0.06861 0.01489 0.34976 0.0
N1991 N 0.08007 0.03987 0.32731 0.0
N1992 N 0.08121 0.98614 0.33531 0.0
C1993 C 0.09575 0.99604 0.3109 0.0
C1994 C 0.09511 0.02532 0.30652 0.0
C1995 C 0.24261 0.87769 0.55019 0.0
C1996 C 0.22929 0.85913 0.52988 0.0
C1997 C 0.27142 0.87731 0.55476 0.0
C1998 C 0.28829 0.85818 0.5395 0.0
H1999 H 0.23064 0.89251 0.56308 0.0
H2000 H 0.28052 0.89197 0.57058 0.0
S2001 S 0.26475 0.80679 0.48184 0.0
N2002 N 0.23616 0.82218 0.4929 0.0
N2003 N 0.28984 0.82146 0.50161 0.0
C2004 C 0.27547 0.84004 0.51855 0.0
C2005 C 0.2462 0.84051 0.51373 0.0
C2006 C 0.4339 0.99291 0.78183 0.0
C2007 C 0.40934 0.97787 0.77786 0.0
C2008 C 0.43368 0.02128 0.78888 0.0
C2009 C 0.4089 0.03611 0.79183 0.0
H2010 H 0.45353 0.98259 0.78012 0.0
H2011 H 0.45317 0.03176 0.79137 0.0
S2012 S 0.33897 1.00668 0.78347 0.0
N2013 N 0.35957 0.9802 0.77792 0.0
N2014 N 0.35917 0.03334 0.78981 0.0
C2015 C 0.38428 0.02136 0.78764 0.0
C2016 C 0.38449 0.9924 0.78108 0.0
C2017 C 0.24577 0.18285 0.04379 0.0
C2018 C 0.23016 0.15855 0.04099 0.0
C2019 C 0.27442 0.18325 0.03813 0.0
C2020 C 0.28898 0.15929 1.02983 0.0
H2021 H 0.23572 0.20192 0.04986 0.0
H2022 H 0.28532 0.20247 0.04087 0.0
S2023 S 0.25819 0.09026 1.01943 0.0
N2024 N 0.23187 0.10987 1.029 0.0
N2025 N 0.28536 0.11056 1.01936 0.0
C2026 C 0.27371 0.13486 1.02729 0.0
C2027 C 0.24451 0.13452 1.03257 0.0
C2028 C 0.93303 0.02174 0.7862 0.0
C2029 C 0.90859 0.03701 0.78256 0.0
C2030 C 0.93267 0.993 0.7911 0.0
C2031 C 0.90788 0.97794 0.79197 0.0
H2032 H 0.9527 0.03213 0.78592 0.0
H2033 H 0.95211 0.98245 0.79368 0.0
S2034 S 0.83817 0.00777 0.78297 0.0
N2035 N 0.85884 0.03457 0.78037 0.0
N2036 N 0.85826 0.9808 0.78803 0.0
C2037 C 0.88337 0.9929 0.78783 0.0
C2038 C 0.8837 0.02225 0.7836 0.0
C2039 C 0.74406 0.13406 0.52763 0.0
C2040 C 0.72788 0.15735 0.5339 0.0
C2041 C 0.77277 0.13401 0.53295 0.0
C2042 C 0.78655 0.157 0.54557 0.0
H2043 H 0.73452 0.11583 0.51811 0.0
H2044 H 0.78433 0.11582 0.52682 0.0
S2045 S 0.75295 0.22227 0.56895 0.0
N2046 N 0.72752 0.20346 0.55512 0.0
N2047 N 0.78087 0.20323 0.56578 0.0
C2048 C 0.77029 0.18004 0.55304 0.0
C2049 C 0.7412 0.18024 0.54706 0.0
C2050 C 0.62891 0.02409 0.26574 0.0
C2051 C 0.61251 0.03691 0.28863 0.0
C2052 C 0.62807 0.9954 0.26056 0.0
C2053 C 0.61068 0.97819 0.27788 0.0
H2054 H 0.64233 0.03631 0.2513 0.0
H2055 H 0.64113 0.98665 0.24283 0.0
S2056 S 0.56582 1.00035 0.34269 0.0
N2057 N 0.57979 0.02921 0.33018 0.0
N2058 N 0.57824 0.97575 0.32044 0.0
C2059 C 0.59479 0.99052 0.30135 0.0
C2060 C 0.59568 0.01966 0.3067 0.0
C2061 C 0.74575 0.87744 0.05541 0.0
C2062 C 0.72899 0.85801 0.04047 0.0
C2063 C 0.77452 0.87788 0.05089 0.0
C2064 C 0.78785 0.85909 1.03092 0.0
H2065 H 0.73658 0.8924 0.07081 0.0
H2066 H 0.78643 0.89297 0.06348 0.0
S2067 S 0.75258 0.80597 0.98372 0.0
N2068 N 0.72746 0.82079 1.00321 0.0
N2069 N 0.78113 0.82159 0.99459 0.0
C2070 C 0.77104 0.84013 1.01511 0.0
C2071 C 0.7418 0.83961 1.01989 0.0
C2072 C 0.62417 0.52341 0.80806 0.0
C2073 C 0.61122 0.53598 0.78227 0.0
C2074 C 0.62365 0.49463 0.81273 0.0
C2075 C 0.61031 0.47703 0.79173 0.0
H2076 H 0.63446 0.53591 0.82523 0.0
H2077 H 0.63377 0.48612 0.83293 0.0
S2078 S 0.57472 0.49872 0.71958 0.0
N2079 N 0.58547 0.52786 0.73498 0.0
N2080 N 0.58478 0.47418 0.74347 0.0
C2081 C 0.59777 0.48917 0.76559 0.0
C2082 C 0.59812 0.51845 0.76096 0.0
C2083 C 0.77358 0.33277 1.03568 0.0
C2084 C 0.78903 0.35693 0.04041 0.0
C2085 C 0.74481 0.33357 1.03097 0.0
C2086 C 0.73005 0.35851 1.03139 0.0
H2087 H 0.78384 0.31306 1.03499 0.0
H2088 H 0.73401 0.31438 1.02758 0.0
S2089 S 0.7606 0.42753 0.04323 0.0
N2090 N 0.78718 0.40651 0.04472 0.0
N2091 N 0.73341 0.40792 0.03743 0.0
C2092 C 0.74526 0.38271 0.03642 0.0
C2093 C 0.77458 0.38195 0.04047 0.0
C2094 C 0.88899 0.51905 0.30875 0.0
C2095 C 0.90452 0.53653 0.28959 0.0
C2096 C 0.88882 0.49024 0.30426 0.0
C2097 C 0.90425 0.47754 0.28043 0.0
H2098 H 0.87699 0.52766 0.32749 0.0
H2099 H 0.87688 0.4778 0.32009 0.0
S2100 S 0.9471 0.51453 0.22281 0.0
N2101 N 0.93473 0.53918 0.24503 0.0
N2102 N 0.93462 0.48551 0.23673 0.0
C2103 C 0.91938 0.49501 0.26077 0.0
C2104 C 0.91945 0.52428 0.2653 0.0
C2105 C 0.74645 0.63691 0.55635 0.0
C2106 C 0.72968 0.65668 0.54199 0.0
C2107 C 0.77511 0.63615 0.55115 0.0
C2108 C 0.78834 0.65494 0.53104 0.0
H2109 H 0.73736 0.62194 0.57182 0.0
H2110 H 0.787 0.62077 0.56331 0.0
S2111 S 0.75293 0.70884 0.48504 0.0
N2112 N 0.72797 0.69419 0.50501 0.0
N2113 N 0.78147 0.69279 0.49515 0.0
C2114 C 0.7715 0.67423 0.51578 0.0
C2115 C 0.74236 0.67508 0.52124 0.0
C2116 C 0.38958 0.5232 0.29775 0.0
C2117 C 0.40913 0.53674 0.27888 0.0
C2118 C 0.3901 0.49443 0.30233 0.0
C2119 C 0.41039 0.47786 0.28861 0.0
H2120 H 0.37386 0.53494 0.30949 0.0
H2121 H 0.37461 0.48512 0.31695 0.0
S2122 S 0.46447 0.50203 0.23453 0.0
N2123 N 0.44813 0.53038 0.24452 0.0
N2124 N 0.44914 0.47678 0.25333 0.0
C2125 C 0.42951 0.49088 0.269 0.0
C2126 C 0.42888 0.52011 0.26411 0.0
C2127 C 0.2704 0.64055 0.05971 0.0
C2128 C 0.28706 0.66075 0.04591 0.0
C2129 C 0.24168 0.63973 0.05453 0.0
C2130 C 0.22827 0.65884 1.03492 0.0
H2131 H 0.27962 0.62523 0.07465 0.0
H2132 H 0.2299 0.62399 0.0662 0.0
S2133 S 0.26327 0.71382 0.99026 0.0
N2134 N 0.28835 0.69899 1.00989 0.0
N2135 N 0.23485 0.69742 1.00002 0.0
C2136 C 0.24497 0.67858 1.02025 0.0
C2137 C 0.27414 0.67952 1.02573 0.0
C2138 C 0.0829 0.49405 0.78241 0.0
C2139 C 0.10758 0.47904 0.77928 0.0
C2140 C 0.08287 0.52271 0.78786 0.0
C2141 C 0.1075 0.53791 0.78985 0.0
H2142 H 0.06335 0.4835 0.7813 0.0
H2143 H 0.0633 0.53309 0.78994 0.0
S2144 S 0.1777 0.50874 0.78293 0.0
N2145 N 0.15731 0.48185 0.77906 0.0
N2146 N 0.15725 0.53545 0.78774 0.0
C2147 C 0.13225 0.52319 0.78639 0.0
C2148 C 0.13229 0.49394 0.78158 0.0
C2149 C 0.2468 0.3779 0.55703 0.0
C2150 C 0.22967 0.35833 0.54283 0.0
C2151 C 0.27552 0.37812 0.5519 0.0
C2152 C 0.28847 0.35896 0.53204 0.0
H2153 H 0.23796 0.39309 0.57238 0.0
H2154 H 0.28769 0.39334 0.56395 0.0
S2155 S 0.25216 0.30541 0.48649 0.0
N2156 N 0.22743 0.32062 0.50624 0.0
N2157 N 0.28095 0.32102 0.49652 0.0
C2158 C 0.27128 0.33988 0.51694 0.0
C2159 C 0.24211 0.33959 0.52232 0.0
C2160 C 0.14051 0.12327 0.14561 0.0
C2161 C 0.12816 0.14474 0.12834 0.0
C2162 C 0.1367 0.11989 0.17779 0.0
C2163 C 0.11996 0.13745 0.19565 0.0
H2164 H 0.15388 0.10864 0.13426 0.0
H2165 H 0.14733 0.10298 0.18888 0.0
S2166 S 0.08213 0.19727 0.16314 0.0
N2167 N 0.09792 0.18427 0.13256 0.0
N2168 N 0.09053 0.17769 0.19303 0.0
C2169 C 0.10699 0.15901 0.17901 0.0
C2170 C 0.1112 0.16273 0.1457 0.0
C2171 C 0.14543 0.88961 0.42744 0.0
C2172 C 0.12956 0.87083 0.44485 0.0
C2173 C 0.14218 0.89319 0.39519 0.0
C2174 C 0.12251 0.87858 0.37755 0.0
H2175 H 0.161 0.90186 0.43885 0.0
H2176 H 0.15545 0.90803 0.38399 0.0
S2177 S 0.07497 0.82663 0.41094 0.0
N2178 N 0.09298 0.83702 0.44128 0.0
N2179 N 0.08655 0.84407 0.38075 0.0
C2180 C 0.10616 0.85969 0.39445 0.0
C2181 C 0.10982 0.85568 0.42776 0.0
C2182 C 0.41732 0.8861 0.67112 0.0
C2183 C 0.40006 0.87239 0.69243 0.0
C2184 C 0.41376 0.88349 0.63843 0.0
C2185 C 0.39341 0.86628 0.62517 0.0
H2186 H 0.43262 0.90035 0.6797 0.0
H2187 H 0.42658 0.89579 0.62334 0.0
S2188 S 0.343 0.82548 0.67031 0.0
N2189 N 0.36166 0.84084 0.69719 0.0
N2190 N 0.35596 0.83518 0.63667 0.0
C2191 C 0.37678 0.8517 0.64623 0.0
C2192 C 0.37985 0.85493 0.6794 0.0
C2193 C 0.41905 0.13047 0.89871 0.0
C2194 C 0.40032 0.1423 0.87744 0.0
C2195 C 0.4159 0.13339 0.93149 0.0
C2196 C 0.39446 0.14912 0.94493 0.0
H2197 H 0.4353 0.11738 0.8901 0.0
H2198 H 0.42988 0.12235 0.94654 0.0
S2199 S 0.34007 0.18484 0.90006 0.0
N2200 N 0.35942 0.17062 0.87308 0.0
N2201 N 0.35438 0.17676 0.93357 0.0
C2202 C 0.3763 0.16184 0.92389 0.0
C2203 C 0.37903 0.15832 0.89068 0.0
C2204 C 0.87261 0.8899 0.89458 0.0
C2205 C 0.89465 0.87802 0.87795 0.0
C2206 C 0.86923 0.88657 0.92685 0.0
C2207 C 0.8873 0.87069 0.94518 0.0
H2208 H 0.85764 0.90251 0.88263 0.0
H2209 H 0.85195 0.89681 0.93762 0.0
S2210 S 0.94845 0.83422 0.91418 0.0
N2211 N 0.93513 0.84914 0.88316 0.0
N2212 N 0.92841 0.84247 0.94367 0.0
C2213 C 0.90932 0.85813 0.9291 0.0
C2214 C 0.91309 0.86194 0.89582 0.0
C2215 C 0.90496 0.11857 0.67541 0.0
C2216 C 0.90033 0.14051 0.69607 0.0
C2217 C 0.90129 0.12127 0.6429 0.0
C2218 C 0.89253 0.14605 0.62872 0.0
H2219 H 0.91034 0.09858 0.68462 0.0
H2220 H 0.90463 0.10324 0.62877 0.0
S2221 S 0.87743 0.21015 0.67212 0.0
N2222 N 0.88646 0.18822 0.69957 0.0
N2223 N 0.87989 0.1934 0.63894 0.0
C2224 C 0.88863 0.1685 0.64903 0.0
C2225 C 0.89226 0.16566 0.68236 0.0
C2226 C 0.61189 0.15936 0.42564 0.0
C2227 C 0.62976 0.1424 0.44337 0.0
C2228 C 0.60809 0.15563 0.39284 0.0
C2229 C 0.62223 0.13497 0.37599 0.0
H2230 H 0.60053 0.17547 0.43719 0.0
H2231 H 0.59449 0.16944 0.38054 0.0
S2232 S 0.67158 0.08517 0.4107 0.0
N2233 N 0.66189 0.10425 0.4402 0.0
N2234 N 0.65456 0.09721 0.38061 0.0
C2235 C 0.63994 0.11802 0.39365 0.0
C2236 C 0.64374 0.12172 0.42651 0.0
C2237 C 0.64554 0.89021 0.14402 0.0
C2238 C 0.62951 0.87188 0.12617 0.0
C2239 C 0.64207 0.89359 0.17628 0.0
C2240 C 0.62199 0.8792 0.19356 0.0
H2241 H 0.66142 0.9023 0.13295 0.0
H2242 H 0.65549 0.9081 0.18778 0.0
S2243 S 0.57385 0.82838 0.15899 0.0
N2244 N 0.5923 0.83871 0.12899 0.0
N2245 N 0.58547 0.84535 0.1895 0.0
C2246 C 0.60548 0.86074 0.17623 0.0
C2247 C 0.60935 0.85695 0.14289 0.0
C2248 C 0.63048 0.66194 0.68117 0.0
C2249 C 0.61705 0.63906 0.69476 0.0
C2250 C 0.63348 0.66499 0.64837 0.0
C2251 C 0.62407 0.64481 0.62729 0.0
H2252 H 0.63953 0.67733 0.69611 0.0
H2253 H 0.64469 0.68255 0.63963 0.0
S2254 S 0.58813 0.58049 0.65052 0.0
N2255 N 0.5942 0.59601 0.68384 0.0
N2256 N 0.60048 0.60096 0.62336 0.0
C2257 C 0.61039 0.622 0.64073 0.0
C2258 C 0.60678 0.6193 0.67392 0.0
C2259 C 0.61257 0.3555 0.89495 0.0
C2260 C 0.6181 0.37996 0.87817 0.0
C2261 C 0.61683 0.35354 0.92786 0.0
C2262 C 0.62679 0.37594 0.94571 0.0
H2263 H 0.60591 0.33742 0.88247 0.0
H2264 H 0.61286 0.33412 0.93921 0.0
S2265 S 0.64309 0.44511 0.91253 0.0
N2266 N 0.63317 0.42702 0.88232 0.0
N2267 N 0.64077 0.42409 0.94236 0.0
C2268 C 0.63152 0.40065 0.92878 0.0
C2269 C 0.62735 0.40242 0.89574 0.0
C2270 C 0.86922 0.38257 0.14601 0.0
C2271 C 0.88882 0.36893 0.12744 0.0
C2272 C 0.87247 0.38623 0.17825 0.0
C2273 C 0.89582 0.37689 0.19476 0.0
H2274 H 0.85089 0.39099 0.13538 0.0
H2275 H 0.85631 0.39717 0.19024 0.0
S2276 S 0.9538 0.33926 0.158 0.0
N2277 N 0.93279 0.3454 0.12863 0.0
N2278 N 0.93913 0.35249 0.18916 0.0
C2279 C 0.91572 0.36284 0.1767 0.0
C2280 C 0.91217 0.35877 0.14337 0.0
C2281 C 0.87268 0.62562 0.39411 0.0
C2282 C 0.89474 0.63711 0.37713 0.0
C2283 C 0.86955 0.62926 0.42634 0.0
C2284 C 0.8879 0.64506 0.44436 0.0
H2285 H 0.85751 0.61305 0.38247 0.0
H2286 H 0.85228 0.61921 0.4374 0.0
S2287 S 0.9492 0.68068 0.4124 0.0
N2288 N 0.93552 0.66568 0.38166 0.0
N2289 N 0.92931 0.67283 0.44218 0.0
C2290 C 0.90995 0.65728 0.42795 0.0
C2291 C 0.91346 0.65318 0.39466 0.0
C2292 C 0.3801 0.39568 0.3948 0.0
C2293 C 0.39721 0.3784 0.377 0.0
C2294 C 0.37654 0.39253 0.42699 0.0
C2295 C 0.38963 0.37161 0.44436 0.0
H2296 H 0.36894 0.41225 0.38367 0.0
H2297 H 0.36281 0.40682 0.43829 0.0
S2298 S 0.43716 0.3202 0.40999 0.0
N2299 N 0.42794 0.33915 0.37989 0.0
N2300 N 0.42111 0.33301 0.4405 0.0
C2301 C 0.40702 0.35396 0.42714 0.0
C2302 C 0.41095 0.35741 0.39377 0.0
C2303 C 0.38251 0.66323 0.18203 0.0
C2304 C 0.39995 0.64283 0.19485 0.0
C2305 C 0.37965 0.66724 0.1494 0.0
C2306 C 0.39337 0.65043 0.12766 0.0
H2307 H 0.37021 0.67573 0.19743 0.0
H2308 H 0.3652 0.68251 0.1412 0.0
S2309 S 0.4408 0.59342 0.14852 0.0
N2310 N 0.43125 0.60583 0.18245 0.0
N2311 N 0.4251 0.61231 0.12207 0.0
C2312 C 0.41104 0.63017 0.14026 0.0
C2313 C 0.41452 0.62664 0.17338 0.0
C2314 C 0.14307 0.62649 0.89512 0.0
C2315 C 0.12187 0.63919 0.87781 0.0
C2316 C 0.14609 0.62974 0.92739 0.0
C2317 C 0.12831 0.64621 0.94534 0.0
H2318 H 0.15781 0.61323 0.88371 0.0
H2319 H 0.16285 0.6189 0.93844 0.0
S2320 S 0.06916 0.68501 0.91271 0.0
N2321 N 0.08245 0.66962 0.88202 0.0
N2322 N 0.0883 0.67597 0.94274 0.0
C2323 C 0.10706 0.65958 0.92868 0.0
C2324 C 0.1037 0.65599 0.89523 0.0
C2325 C 0.10287 0.39159 0.67354 0.0
C2326 C 0.11587 0.37405 0.69514 0.0
C2327 C 0.10685 0.38883 0.64095 0.0
C2328 C 0.12347 0.36792 0.62783 0.0
H2329 H 0.09079 0.4087 0.68193 0.0
H2330 H 0.09742 0.40388 0.62583 0.0
S2331 S 0.16221 0.31641 0.67385 0.0
N2332 N 0.14649 0.33503 0.70045 0.0
N2333 N 0.15281 0.32918 0.63998 0.0
C2334 C 0.13576 0.34966 0.64914 0.0
C2335 C 0.13232 0.35293 0.68236 0.0
loop_
_geom_bond_atom_site_label_1
_geom_bond_atom_site_label_2
_geom_bond_distance
_geom_bond_site_symmetry_2
_ccdc_geom_bond_type
Gd0 C3 2.818 . S
Gd0 O20 2.377 . S
Gd0 O22 2.448 . S
Gd0 O23 2.506 . S
Gd0 O24 2.435 . S
Gd0 O25 2.717 . S
Gd0 O27 2.395 . S
Gd0 O31 2.327 . S
Gd1 C12 2.818 . S
Gd1 O21 2.395 . S
Gd1 O25 2.327 . S
Gd1 O26 2.377 . S
Gd1 O28 2.448 . S
Gd1 O29 2.506 . S
Gd1 O30 2.435 . S
Gd1 O31 2.717 . S
C2 O20 1.240 . S
C2 O21 1.240 . S
C3 Gd0 2.818 . S
C3 C4 1.510 . S
C3 O22 1.249 . S
C3 O23 1.252 . S
C4 C3 1.510 . S
C4 C5 1.404 . S
C4 C6 1.352 . S
C5 C4 1.404 . S
C5 C9 1.389 . S
C5 H32 0.930 . S
C6 C4 1.352 . S
C6 C8 1.374 . S
C6 H33 0.931 . S
C7 C8 1.359 . S
C7 C9 1.364 . S
C8 C6 1.374 . S
C8 C7 1.359 . S
C8 H34 0.931 . S
C9 C5 1.389 . S
C9 C7 1.364 . S
C9 H35 0.931 . S
C10 O24 1.256 . S
C10 O25 1.257 . S
C11 O26 1.240 . S
C11 O27 1.240 . S
C12 Gd1 2.818 . S
C12 C13 1.510 . S
C12 O28 1.249 . S
C12 O29 1.252 . S
C13 C12 1.510 . S
C13 C14 1.404 . S
C13 C15 1.352 . S
C14 C13 1.404 . S
C14 C18 1.389 1_455 S
C14 H36 0.930 . S
C15 C13 1.352 . S
C15 C17 1.374 . S
C15 H37 0.931 . S
C16 C17 1.359 1_655 S
C16 C18 1.364 . S
C17 C15 1.374 . S
C17 C16 1.359 1_455 S
C17 H38 0.931 . S
C18 C14 1.389 1_655 S
C18 C16 1.364 . S
C18 H39 0.931 . S
C19 O30 1.256 . S
C19 O31 1.257 . S
O20 Gd0 2.377 . S
O20 C2 1.240 . S
O21 Gd1 2.395 . S
O21 C2 1.240 . S
O22 Gd0 2.448 . S
O22 C3 1.249 . S
O23 Gd0 2.506 . S
O23 C3 1.252 . S
O24 Gd0 2.435 . S
O24 C10 1.256 . S
O25 Gd0 2.717 . S
O25 Gd1 2.327 . S
O25 C10 1.257 . S
O26 Gd1 2.377 . S
O26 C11 1.240 . S
O27 Gd0 2.395 . S
O27 C11 1.240 . S
O28 Gd1 2.448 . S
O28 C12 1.249 . S
O29 Gd1 2.506 . S
O29 C12 1.252 . S
O30 Gd1 2.435 . S
O30 C19 1.256 . S
O31 Gd0 2.327 . S
O31 Gd1 2.717 . S
O31 C19 1.257 . S
H32 C5 0.930 . S
H33 C6 0.931 . S
H34 C8 0.931 . S
H35 C9 0.931 . S
H36 C14 0.930 . S
H37 C15 0.931 . S
H38 C17 0.931 . S
H39 C18 0.931 . S
Gd40 C43 2.818 . S
Gd40 O60 2.377 . S
Gd40 O62 2.448 . S
Gd40 O63 2.506 . S
Gd40 O64 2.435 . S
Gd40 O65 2.717 . S
Gd40 O67 2.395 . S
Gd40 O71 2.327 . S
Gd41 C52 2.818 . S
Gd41 O61 2.395 . S
Gd41 O65 2.327 . S
Gd41 O66 2.377 . S
Gd41 O68 2.448 . S
Gd41 O69 2.506 . S
Gd41 O70 2.435 . S
Gd41 O71 2.717 . S
C42 O60 1.240 . S
C42 O61 1.240 . S
C43 Gd40 2.818 . S
C43 C44 1.510 . S
C43 O62 1.249 . S
C43 O63 1.252 . S
C44 C43 1.510 . S
C44 C45 1.404 . S
C44 C46 1.352 . S
C45 C44 1.404 . S
C45 C49 1.389 1_565 S
C45 H72 0.931 . S
C46 C44 1.352 . S
C46 C48 1.374 . S
C46 H73 0.931 . S
C47 C48 1.359 1_545 S
C47 C49 1.364 . S
C48 C46 1.374 . S
C48 C47 1.359 1_565 S
C48 H74 0.931 . S
C49 C45 1.389 1_545 S
C49 C47 1.364 . S
C49 H75 0.931 . S
C50 O64 1.256 . S
C50 O65 1.257 . S
C51 O66 1.240 . S
C51 O67 1.240 . S
C52 Gd41 2.818 . S
C52 C53 1.510 . S
C52 O68 1.249 . S
C52 O69 1.252 . S
C53 C52 1.510 . S
C53 C54 1.404 . S
C53 C55 1.352 . S
C54 C53 1.404 . S
C54 C58 1.389 . S
C54 H76 0.930 . S
C55 C53 1.352 . S
C55 C57 1.374 . S
C55 H77 0.931 . S
C56 C57 1.359 . S
C56 C58 1.364 . S
C57 C55 1.374 . S
C57 C56 1.359 . S
C57 H78 0.931 . S
C58 C54 1.389 . S
C58 C56 1.364 . S
C58 H79 0.931 . S
C59 O70 1.256 . S
C59 O71 1.257 . S
O60 Gd40 2.377 . S
O60 C42 1.240 . S
O61 Gd41 2.395 . S
O61 C42 1.240 . S
O62 Gd40 2.448 . S
O62 C43 1.249 . S
O63 Gd40 2.506 . S
O63 C43 1.252 . S
O64 Gd40 2.435 . S
O64 C50 1.256 . S
O65 Gd40 2.717 . S
O65 Gd41 2.327 . S
O65 C50 1.257 . S
O66 Gd41 2.377 . S
O66 C51 1.240 . S
O67 Gd40 2.395 . S
O67 C51 1.240 . S
O68 Gd41 2.448 . S
O68 C52 1.249 . S
O69 Gd41 2.506 . S
O69 C52 1.252 . S
O70 Gd41 2.435 . S
O70 C59 1.256 . S
O71 Gd40 2.327 . S
O71 Gd41 2.717 . S
O71 C59 1.257 . S
H72 C45 0.931 . S
H73 C46 0.931 . S
H74 C48 0.931 . S
H75 C49 0.931 . S
H76 C54 0.930 . S
H77 C55 0.931 . S
H78 C57 0.931 . S
H79 C58 0.931 . S
Gd80 C83 2.818 . S
Gd80 O100 2.377 . S
Gd80 O102 2.448 . S
Gd80 O103 2.506 . S
Gd80 O104 2.435 . S
Gd80 O105 2.717 . S
Gd80 O107 2.395 . S
Gd80 O111 2.327 . S
Gd81 C92 2.818 . S
Gd81 O101 2.395 . S
Gd81 O105 2.327 . S
Gd81 O106 2.377 . S
Gd81 O108 2.448 . S
Gd81 O109 2.506 . S
Gd81 O110 2.435 . S
Gd81 O111 2.717 . S
C82 O100 1.240 . S
C82 O101 1.240 . S
C83 Gd80 2.818 . S
C83 C84 1.510 . S
C83 O102 1.249 . S
C83 O103 1.252 . S
C84 C83 1.510 . S
C84 C85 1.404 . S
C84 C86 1.352 . S
C85 C84 1.404 . S
C85 C89 1.389 . S
C85 H112 0.930 . S
C86 C84 1.352 . S
C86 C88 1.374 . S
C86 H113 0.931 . S
C87 C88 1.359 . S
C87 C89 1.364 . S
C88 C86 1.374 . S
C88 C87 1.359 . S
C88 H114 0.931 . S
C89 C85 1.389 . S
C89 C87 1.364 . S
C89 H115 0.931 . S
C90 O104 1.256 . S
C90 O105 1.257 . S
C91 O106 1.240 . S
C91 O107 1.240 . S
C92 Gd81 2.818 . S
C92 C93 1.510 . S
C92 O108 1.249 . S
C92 O109 1.252 . S
C93 C92 1.510 . S
C93 C94 1.404 . S
C93 C95 1.352 . S
C94 C93 1.404 . S
C94 C98 1.389 . S
C94 H116 0.930 . S
C95 C93 1.352 . S
C95 C97 1.374 . S
C95 H117 0.931 . S
C96 C97 1.359 . S
C96 C98 1.364 . S
C97 C95 1.374 . S
C97 C96 1.359 . S
C97 H118 0.931 . S
C98 C94 1.389 . S
C98 C96 1.364 . S
C98 H119 0.931 . S
C99 O110 1.256 . S
C99 O111 1.257 . S
O100 Gd80 2.377 . S
O100 C82 1.240 . S
O101 Gd81 2.395 . S
O101 C82 1.240 . S
O102 Gd80 2.448 . S
O102 C83 1.249 . S
O103 Gd80 2.506 . S
O103 C83 1.252 . S
O104 Gd80 2.435 . S
O104 C90 1.256 . S
O105 Gd80 2.717 . S
O105 Gd81 2.327 . S
O105 C90 1.257 . S
O106 Gd81 2.377 . S
O106 C91 1.240 . S
O107 Gd80 2.395 . S
O107 C91 1.240 . S
O108 Gd81 2.448 . S
O108 C92 1.249 . S
O109 Gd81 2.506 . S
O109 C92 1.252 . S
O110 Gd81 2.435 . S
O110 C99 1.256 . S
O111 Gd80 2.327 . S
O111 Gd81 2.717 . S
O111 C99 1.257 . S
H112 C85 0.930 . S
H113 C86 0.931 . S
H114 C88 0.931 . S
H115 C89 0.931 . S
H116 C94 0.930 . S
H117 C95 0.931 . S
H118 C97 0.931 . S
H119 C98 0.931 . S
Gd120 C123 2.818 1_554 S
Gd120 O140 2.377 1_554 S
Gd120 O142 2.448 1_554 S
Gd120 O143 2.506 1_554 S
Gd120 O144 2.435 . S
Gd120 O145 2.717 . S
Gd120 O147 2.395 . S
Gd120 O151 2.327 . S
Gd121 C132 2.818 . S
Gd121 O141 2.395 1_554 S
Gd121 O145 2.327 . S
Gd121 O146 2.377 . S
Gd121 O148 2.448 . S
Gd121 O149 2.506 . S
Gd121 O150 2.435 . S
Gd121 O151 2.717 . S
C122 O140 1.240 . S
C122 O141 1.240 . S
C123 Gd120 2.818 1_556 S
C123 C124 1.510 . S
C123 O142 1.249 . S
C123 O143 1.252 . S
C124 C123 1.510 . S
C124 C125 1.404 . S
C124 C126 1.352 . S
C125 C124 1.404 . S
C125 C129 1.389 1_545 S
C125 H152 0.931 . S
C126 C124 1.352 . S
C126 C128 1.374 . S
C126 H153 0.931 . S
C127 C128 1.359 1_565 S
C127 C129 1.364 . S
C128 C126 1.374 . S
C128 C127 1.359 1_545 S
C128 H154 0.931 . S
C129 C125 1.389 1_565 S
C129 C127 1.364 . S
C129 H155 0.931 . S
C130 O144 1.256 . S
C130 O145 1.257 . S
C131 O146 1.240 . S
C131 O147 1.240 . S
C132 Gd121 2.818 . S
C132 C133 1.510 . S
C132 O148 1.249 . S
C132 O149 1.252 . S
C133 C132 1.510 . S
C133 C134 1.404 . S
C133 C135 1.352 . S
C134 C133 1.404 . S
C134 C138 1.389 . S
C134 H156 0.930 . S
C135 C133 1.352 . S
C135 C137 1.374 . S
C135 H157 0.931 . S
C136 C137 1.359 . S
C136 C138 1.364 . S
C137 C135 1.374 . S
C137 C136 1.359 . S
C137 H158 0.931 . S
C138 C134 1.389 . S
C138 C136 1.364 . S
C138 H159 0.931 . S
C139 O150 1.256 1_556 S
C139 O151 1.257 1_556 S
O140 Gd120 2.377 1_556 S
O140 C122 1.240 . S
O141 Gd121 2.395 1_556 S
O141 C122 1.240 . S
O142 Gd120 2.448 1_556 S
O142 C123 1.249 . S
O143 Gd120 2.506 1_556 S
O143 C123 1.252 . S
O144 Gd120 2.435 . S
O144 C130 1.256 . S
O145 Gd120 2.717 . S
O145 Gd121 2.327 . S
O145 C130 1.257 . S
O146 Gd121 2.377 . S
O146 C131 1.240 . S
O147 Gd120 2.395 . S
O147 C131 1.240 . S
O148 Gd121 2.448 . S
O148 C132 1.249 . S
O149 Gd121 2.506 . S
O149 C132 1.252 . S
O150 Gd121 2.435 . S
O150 C139 1.256 1_554 S
O151 Gd120 2.327 . S
O151 Gd121 2.717 . S
O151 C139 1.257 1_554 S
H152 C125 0.931 . S
H153 C126 0.931 . S
H154 C128 0.931 . S
H155 C129 0.931 . S
H156 C134 0.930 . S
H157 C135 0.931 . S
H158 C137 0.931 . S
H159 C138 0.931 . S
Gd160 C163 2.818 . S
Gd160 O180 2.377 . S
Gd160 O182 2.448 . S
Gd160 O183 2.506 . S
Gd160 O184 2.435 . S
Gd160 O185 2.717 . S
Gd160 O187 2.395 . S
Gd160 O191 2.327 . S
Gd161 C172 2.818 . S
Gd161 O181 2.395 . S
Gd161 O185 2.327 . S
Gd161 O186 2.377 . S
Gd161 O188 2.448 . S
Gd161 O189 2.506 . S
Gd161 O190 2.435 . S
Gd161 O191 2.717 . S
C162 O180 1.240 . S
C162 O181 1.240 . S
C163 Gd160 2.818 . S
C163 C164 1.510 . S
C163 O182 1.249 . S
C163 O183 1.252 . S
C164 C163 1.510 . S
C164 C165 1.404 . S
C164 C166 1.352 . S
C165 C164 1.404 . S
C165 C169 1.389 . S
C165 H192 0.930 . S
C166 C164 1.352 . S
C166 C168 1.374 . S
C166 H193 0.931 . S
C167 C168 1.359 . S
C167 C169 1.364 . S
C168 C166 1.374 . S
C168 C167 1.359 . S
C168 H194 0.931 . S
C169 C165 1.389 . S
C169 C167 1.364 . S
C169 H195 0.931 . S
C170 O184 1.256 . S
C170 O185 1.257 . S
C171 O186 1.240 . S
C171 O187 1.240 . S
C172 Gd161 2.818 . S
C172 C173 1.510 . S
C172 O188 1.249 . S
C172 O189 1.252 . S
C173 C172 1.510 . S
C173 C174 1.404 . S
C173 C175 1.352 . S
C174 C173 1.404 . S
C174 C178 1.389 1_455 S
C174 H196 0.930 . S
C175 C173 1.352 . S
C175 C177 1.374 . S
C175 H197 0.931 . S
C176 C177 1.359 1_655 S
C176 C178 1.364 . S
C177 C175 1.374 . S
C177 C176 1.359 1_455 S
C177 H198 0.931 . S
C178 C174 1.389 1_655 S
C178 C176 1.364 . S
C178 H199 0.931 . S
C179 O190 1.256 . S
C179 O191 1.257 . S
O180 Gd160 2.377 . S
O180 C162 1.240 . S
O181 Gd161 2.395 . S
O181 C162 1.240 . S
O182 Gd160 2.448 . S
O182 C163 1.249 . S
O183 Gd160 2.506 . S
O183 C163 1.252 . S
O184 Gd160 2.435 . S
O184 C170 1.256 . S
O185 Gd160 2.717 . S
O185 Gd161 2.327 . S
O185 C170 1.257 . S
O186 Gd161 2.377 . S
O186 C171 1.240 . S
O187 Gd160 2.395 . S
O187 C171 1.240 . S
O188 Gd161 2.448 . S
O188 C172 1.249 . S
O189 Gd161 2.506 . S
O189 C172 1.252 . S
O190 Gd161 2.435 . S
O190 C179 1.256 . S
O191 Gd160 2.327 . S
O191 Gd161 2.717 . S
O191 C179 1.257 . S
H192 C165 0.930 . S
H193 C166 0.931 . S
H194 C168 0.931 . S
H195 C169 0.931 . S
H196 C174 0.930 . S
H197 C175 0.931 . S
H198 C177 0.931 . S
H199 C178 0.931 . S
Gd200 C203 2.818 . S
Gd200 O220 2.377 . S
Gd200 O222 2.448 . S
Gd200 O223 2.506 . S
Gd200 O224 2.435 . S
Gd200 O225 2.717 . S
Gd200 O227 2.395 . S
Gd200 O231 2.327 . S
Gd201 C212 2.818 . S
Gd201 O221 2.395 . S
Gd201 O225 2.327 . S
Gd201 O226 2.377 . S
Gd201 O228 2.448 . S
Gd201 O229 2.506 . S
Gd201 O230 2.435 . S
Gd201 O231 2.717 . S
C202 O220 1.240 . S
C202 O221 1.240 . S
C203 Gd200 2.818 . S
C203 C204 1.510 . S
C203 O222 1.249 . S
C203 O223 1.252 . S
C204 C203 1.510 . S
C204 C205 1.404 . S
C204 C206 1.352 . S
C205 C204 1.404 . S
C205 C209 1.389 1_565 S
C205 H232 0.931 . S
C206 C204 1.352 . S
C206 C208 1.374 . S
C206 H233 0.931 . S
C207 C208 1.359 1_545 S
C207 C209 1.364 . S
C208 C206 1.374 . S
C208 C207 1.359 1_565 S
C208 H234 0.931 . S
C209 C205 1.389 1_545 S
C209 C207 1.364 . S
C209 H235 0.931 . S
C210 O224 1.256 . S
C210 O225 1.257 . S
C211 O226 1.240 . S
C211 O227 1.240 . S
C212 Gd201 2.818 . S
C212 C213 1.510 . S
C212 O228 1.249 . S
C212 O229 1.252 . S
C213 C212 1.510 . S
C213 C214 1.404 . S
C213 C215 1.352 . S
C214 C213 1.404 . S
C214 C218 1.389 . S
C214 H236 0.930 . S
C215 C213 1.352 . S
C215 C217 1.374 . S
C215 H237 0.931 . S
C216 C217 1.359 . S
C216 C218 1.364 . S
C217 C215 1.374 . S
C217 C216 1.359 . S
C217 H238 0.931 . S
C218 C214 1.389 . S
C218 C216 1.364 . S
C218 H239 0.931 . S
C219 O230 1.256 . S
C219 O231 1.257 . S
O220 Gd200 2.377 . S
O220 C202 1.240 . S
O221 Gd201 2.395 . S
O221 C202 1.240 . S
O222 Gd200 2.448 . S
O222 C203 1.249 . S
O223 Gd200 2.506 . S
O223 C203 1.252 . S
O224 Gd200 2.435 . S
O224 C210 1.256 . S
O225 Gd200 2.717 . S
O225 Gd201 2.327 . S
O225 C210 1.257 . S
O226 Gd201 2.377 . S
O226 C211 1.240 . S
O227 Gd200 2.395 . S
O227 C211 1.240 . S
O228 Gd201 2.448 . S
O228 C212 1.249 . S
O229 Gd201 2.506 . S
O229 C212 1.252 . S
O230 Gd201 2.435 . S
O230 C219 1.256 . S
O231 Gd200 2.327 . S
O231 Gd201 2.717 . S
O231 C219 1.257 . S
H232 C205 0.931 . S
H233 C206 0.931 . S
H234 C208 0.931 . S
H235 C209 0.931 . S
H236 C214 0.930 . S
H237 C215 0.931 . S
H238 C217 0.931 . S
H239 C218 0.931 . S
Gd240 C243 2.818 . S
Gd240 O260 2.377 . S
Gd240 O262 2.448 . S
Gd240 O263 2.506 . S
Gd240 O264 2.435 . S
Gd240 O265 2.717 . S
Gd240 O267 2.395 . S
Gd240 O271 2.327 . S
Gd241 C252 2.818 . S
Gd241 O261 2.395 . S
Gd241 O265 2.327 . S
Gd241 O266 2.377 . S
Gd241 O268 2.448 . S
Gd241 O269 2.506 . S
Gd241 O270 2.435 . S
Gd241 O271 2.717 . S
C242 O260 1.240 . S
C242 O261 1.240 . S
C243 Gd240 2.818 . S
C243 C244 1.510 . S
C243 O262 1.249 . S
C243 O263 1.252 . S
C244 C243 1.510 . S
C244 C245 1.404 . S
C244 C246 1.352 . S
C245 C244 1.404 . S
C245 C249 1.389 . S
C245 H272 0.930 . S
C246 C244 1.352 . S
C246 C248 1.374 . S
C246 H273 0.931 . S
C247 C248 1.359 . S
C247 C249 1.364 . S
C248 C246 1.374 . S
C248 C247 1.359 . S
C248 H274 0.931 . S
C249 C245 1.389 . S
C249 C247 1.364 . S
C249 H275 0.931 . S
C250 O264 1.256 . S
C250 O265 1.257 . S
C251 O266 1.240 . S
C251 O267 1.240 . S
C252 Gd241 2.818 . S
C252 C253 1.510 . S
C252 O268 1.249 . S
C252 O269 1.252 . S
C253 C252 1.510 . S
C253 C254 1.404 . S
C253 C255 1.352 . S
C254 C253 1.404 . S
C254 C258 1.389 . S
C254 H276 0.930 . S
C255 C253 1.352 . S
C255 C257 1.374 . S
C255 H277 0.931 . S
C256 C257 1.359 . S
C256 C258 1.364 . S
C257 C255 1.374 . S
C257 C256 1.359 . S
C257 H278 0.931 . S
C258 C254 1.389 . S
C258 C256 1.364 . S
C258 H279 0.931 . S
C259 O270 1.256 . S
C259 O271 1.257 . S
O260 Gd240 2.377 . S
O260 C242 1.240 . S
O261 Gd241 2.395 . S
O261 C242 1.240 . S
O262 Gd240 2.448 . S
O262 C243 1.249 . S
O263 Gd240 2.506 . S
O263 C243 1.252 . S
O264 Gd240 2.435 . S
O264 C250 1.256 . S
O265 Gd240 2.717 . S
O265 Gd241 2.327 . S
O265 C250 1.257 . S
O266 Gd241 2.377 . S
O266 C251 1.240 . S
O267 Gd240 2.395 . S
O267 C251 1.240 . S
O268 Gd241 2.448 . S
O268 C252 1.249 . S
O269 Gd241 2.506 . S
O269 C252 1.252 . S
O270 Gd241 2.435 . S
O270 C259 1.256 . S
O271 Gd240 2.327 . S
O271 Gd241 2.717 . S
O271 C259 1.257 . S
H272 C245 0.930 . S
H273 C246 0.931 . S
H274 C248 0.931 . S
H275 C249 0.931 . S
H276 C254 0.930 . S
H277 C255 0.931 . S
H278 C257 0.931 . S
H279 C258 0.931 . S
Gd280 C283 2.818 1_556 S
Gd280 O300 2.377 1_556 S
Gd280 O302 2.448 1_556 S
Gd280 O303 2.506 1_556 S
Gd280 O304 2.435 . S
Gd280 O305 2.717 . S
Gd280 O307 2.395 . S
Gd280 O311 2.327 . S
Gd281 C292 2.818 . S
Gd281 O301 2.395 1_556 S
Gd281 O305 2.327 . S
Gd281 O306 2.377 . S
Gd281 O308 2.448 . S
Gd281 O309 2.506 . S
Gd281 O310 2.435 . S
Gd281 O311 2.717 . S
C282 O300 1.240 . S
C282 O301 1.240 . S
C283 Gd280 2.818 1_554 S
C283 C284 1.510 . S
C283 O302 1.249 . S
C283 O303 1.252 . S
C284 C283 1.510 . S
C284 C285 1.404 . S
C284 C286 1.352 . S
C285 C284 1.404 . S
C285 C289 1.389 1_545 S
C285 H312 0.931 . S
C286 C284 1.352 . S
C286 C288 1.374 . S
C286 H313 0.931 . S
C287 C288 1.359 1_565 S
C287 C289 1.364 . S
C288 C286 1.374 . S
C288 C287 1.359 1_545 S
C288 H314 0.931 . S
C289 C285 1.389 1_565 S
C289 C287 1.364 . S
C289 H315 0.931 . S
C290 O304 1.256 . S
C290 O305 1.257 . S
C291 O306 1.240 . S
C291 O307 1.240 . S
C292 Gd281 2.818 . S
C292 C293 1.510 . S
C292 O308 1.249 . S
C292 O309 1.252 . S
C293 C292 1.510 . S
C293 C294 1.404 . S
C293 C295 1.352 . S
C294 C293 1.404 . S
C294 C298 1.389 . S
C294 H316 0.930 . S
C295 C293 1.352 . S
C295 C297 1.374 . S
C295 H317 0.931 . S
C296 C297 1.359 . S
C296 C298 1.364 . S
C297 C295 1.374 . S
C297 C296 1.359 . S
C297 H318 0.931 . S
C298 C294 1.389 . S
C298 C296 1.364 . S
C298 H319 0.931 . S
C299 O310 1.256 1_554 S
C299 O311 1.257 1_554 S
O300 Gd280 2.377 1_554 S
O300 C282 1.240 . S
O301 Gd281 2.395 1_554 S
O301 C282 1.240 . S
O302 Gd280 2.448 1_554 S
O302 C283 1.249 . S
O303 Gd280 2.506 1_554 S
O303 C283 1.252 . S
O304 Gd280 2.435 . S
O304 C290 1.256 . S
O305 Gd280 2.717 . S
O305 Gd281 2.327 . S
O305 C290 1.257 . S
O306 Gd281 2.377 . S
O306 C291 1.240 . S
O307 Gd280 2.395 . S
O307 C291 1.240 . S
O308 Gd281 2.448 . S
O308 C292 1.249 . S
O309 Gd281 2.506 . S
O309 C292 1.252 . S
O310 Gd281 2.435 . S
O310 C299 1.256 1_556 S
O311 Gd280 2.327 . S
O311 Gd281 2.717 . S
O311 C299 1.257 1_556 S
H312 C285 0.931 . S
H313 C286 0.931 . S
H314 C288 0.931 . S
H315 C289 0.931 . S
H316 C294 0.930 . S
H317 C295 0.931 . S
H318 C297 0.931 . S
H319 C298 0.931 . S
Gd320 C323 2.818 . S
Gd320 O340 2.377 . S
Gd320 O342 2.448 . S
Gd320 O343 2.506 . S
Gd320 O344 2.435 . S
Gd320 O345 2.717 . S
Gd320 O347 2.395 . S
Gd320 O351 2.327 . S
Gd321 C332 2.818 . S
Gd321 O341 2.395 . S
Gd321 O345 2.327 . S
Gd321 O346 2.377 . S
Gd321 O348 2.448 . S
Gd321 O349 2.506 . S
Gd321 O350 2.435 . S
Gd321 O351 2.717 . S
C322 O340 1.240 . S
C322 O341 1.240 . S
C323 Gd320 2.818 . S
C323 C324 1.510 . S
C323 O342 1.249 . S
C323 O343 1.252 . S
C324 C323 1.510 . S
C324 C325 1.404 . S
C324 C326 1.352 . S
C325 C324 1.404 . S
C325 C329 1.389 1_655 S
C325 H352 0.930 . S
C326 C324 1.352 . S
C326 C328 1.374 . S
C326 H353 0.931 . S
C327 C328 1.359 1_455 S
C327 C329 1.364 . S
C328 C326 1.374 . S
C328 C327 1.359 1_655 S
C328 H354 0.931 . S
C329 C325 1.389 1_455 S
C329 C327 1.364 . S
C329 H355 0.931 . S
C330 O344 1.256 . S
C330 O345 1.257 . S
C331 O346 1.240 . S
C331 O347 1.240 . S
C332 Gd321 2.818 . S
C332 C333 1.510 . S
C332 O348 1.249 . S
C332 O349 1.252 . S
C333 C332 1.510 . S
C333 C334 1.404 . S
C333 C335 1.352 . S
C334 C333 1.404 . S
C334 C338 1.389 . S
C334 H356 0.930 . S
C335 C333 1.352 . S
C335 C337 1.374 . S
C335 H357 0.931 . S
C336 C337 1.359 . S
C336 C338 1.364 . S
C337 C335 1.374 . S
C337 C336 1.359 . S
C337 H358 0.931 . S
C338 C334 1.389 . S
C338 C336 1.364 . S
C338 H359 0.931 . S
C339 O350 1.256 . S
C339 O351 1.257 . S
O340 Gd320 2.377 . S
O340 C322 1.240 . S
O341 Gd321 2.395 . S
O341 C322 1.240 . S
O342 Gd320 2.448 . S
O342 C323 1.249 . S
O343 Gd320 2.506 . S
O343 C323 1.252 . S
O344 Gd320 2.435 . S
O344 C330 1.256 . S
O345 Gd320 2.717 . S
O345 Gd321 2.327 . S
O345 C330 1.257 . S
O346 Gd321 2.377 . S
O346 C331 1.240 . S
O347 Gd320 2.395 . S
O347 C331 1.240 . S
O348 Gd321 2.448 . S
O348 C332 1.249 . S
O349 Gd321 2.506 . S
O349 C332 1.252 . S
O350 Gd321 2.435 . S
O350 C339 1.256 . S
O351 Gd320 2.327 . S
O351 Gd321 2.717 . S
O351 C339 1.257 . S
H352 C325 0.930 . S
H353 C326 0.931 . S
H354 C328 0.931 . S
H355 C329 0.931 . S
H356 C334 0.930 . S
H357 C335 0.931 . S
H358 C337 0.931 . S
H359 C338 0.931 . S
Gd360 C363 2.818 . S
Gd360 O380 2.377 . S
Gd360 O382 2.448 . S
Gd360 O383 2.506 . S
Gd360 O384 2.435 . S
Gd360 O385 2.717 . S
Gd360 O387 2.395 . S
Gd360 O391 2.327 . S
Gd361 C372 2.818 . S
Gd361 O381 2.395 . S
Gd361 O385 2.327 . S
Gd361 O386 2.377 . S
Gd361 O388 2.448 . S
Gd361 O389 2.506 . S
Gd361 O390 2.435 . S
Gd361 O391 2.717 . S
C362 O380 1.240 . S
C362 O381 1.240 . S
C363 Gd360 2.818 . S
C363 C364 1.510 . S
C363 O382 1.249 . S
C363 O383 1.252 . S
C364 C363 1.510 . S
C364 C365 1.404 . S
C364 C366 1.352 . S
C365 C364 1.404 . S
C365 C369 1.389 . S
C365 H392 0.930 . S
C366 C364 1.352 . S
C366 C368 1.374 . S
C366 H393 0.931 . S
C367 C368 1.359 . S
C367 C369 1.364 . S
C368 C366 1.374 . S
C368 C367 1.359 . S
C368 H394 0.931 . S
C369 C365 1.389 . S
C369 C367 1.364 . S
C369 H395 0.931 . S
C370 O384 1.256 . S
C370 O385 1.257 . S
C371 O386 1.240 . S
C371 O387 1.240 . S
C372 Gd361 2.818 . S
C372 C373 1.510 . S
C372 O388 1.249 . S
C372 O389 1.252 . S
C373 C372 1.510 . S
C373 C374 1.404 . S
C373 C375 1.352 . S
C374 C373 1.404 . S
C374 C378 1.389 1_545 S
C374 H396 0.931 . S
C375 C373 1.352 . S
C375 C377 1.374 . S
C375 H397 0.931 . S
C376 C377 1.359 1_565 S
C376 C378 1.364 . S
C377 C375 1.374 . S
C377 C376 1.359 1_545 S
C377 H398 0.931 . S
C378 C374 1.389 1_565 S
C378 C376 1.364 . S
C378 H399 0.931 . S
C379 O390 1.256 . S
C379 O391 1.257 . S
O380 Gd360 2.377 . S
O380 C362 1.240 . S
O381 Gd361 2.395 . S
O381 C362 1.240 . S
O382 Gd360 2.448 . S
O382 C363 1.249 . S
O383 Gd360 2.506 . S
O383 C363 1.252 . S
O384 Gd360 2.435 . S
O384 C370 1.256 . S
O385 Gd360 2.717 . S
O385 Gd361 2.327 . S
O385 C370 1.257 . S
O386 Gd361 2.377 . S
O386 C371 1.240 . S
O387 Gd360 2.395 . S
O387 C371 1.240 . S
O388 Gd361 2.448 . S
O388 C372 1.249 . S
O389 Gd361 2.506 . S
O389 C372 1.252 . S
O390 Gd361 2.435 . S
O390 C379 1.256 . S
O391 Gd360 2.327 . S
O391 Gd361 2.717 . S
O391 C379 1.257 . S
H392 C365 0.930 . S
H393 C366 0.931 . S
H394 C368 0.931 . S
H395 C369 0.931 . S
H396 C374 0.931 . S
H397 C375 0.931 . S
H398 C377 0.931 . S
H399 C378 0.931 . S
Gd400 C403 2.818 . S
Gd400 O420 2.377 . S
Gd400 O422 2.448 . S
Gd400 O423 2.506 . S
Gd400 O424 2.435 . S
Gd400 O425 2.717 . S
Gd400 O427 2.395 . S
Gd400 O431 2.327 . S
Gd401 C412 2.818 . S
Gd401 O421 2.395 . S
Gd401 O425 2.327 . S
Gd401 O426 2.377 . S
Gd401 O428 2.448 . S
Gd401 O429 2.506 . S
Gd401 O430 2.435 . S
Gd401 O431 2.717 . S
C402 O420 1.240 . S
C402 O421 1.240 . S
C403 Gd400 2.818 . S
C403 C404 1.510 . S
C403 O422 1.249 . S
C403 O423 1.252 . S
C404 C403 1.510 . S
C404 C405 1.404 . S
C404 C406 1.352 . S
C405 C404 1.404 . S
C405 C409 1.389 . S
C405 H432 0.930 . S
C406 C404 1.352 . S
C406 C408 1.374 . S
C406 H433 0.931 . S
C407 C408 1.359 . S
C407 C409 1.364 . S
C408 C406 1.374 . S
C408 C407 1.359 . S
C408 H434 0.931 . S
C409 C405 1.389 . S
C409 C407 1.364 . S
C409 H435 0.931 . S
C410 O424 1.256 . S
C410 O425 1.257 . S
C411 O426 1.240 . S
C411 O427 1.240 . S
C412 Gd401 2.818 . S
C412 C413 1.510 . S
C412 O428 1.249 . S
C412 O429 1.252 . S
C413 C412 1.510 . S
C413 C414 1.404 . S
C413 C415 1.352 . S
C414 C413 1.404 . S
C414 C418 1.389 . S
C414 H436 0.930 . S
C415 C413 1.352 . S
C415 C417 1.374 . S
C415 H437 0.931 . S
C416 C417 1.359 . S
C416 C418 1.364 . S
C417 C415 1.374 . S
C417 C416 1.359 . S
C417 H438 0.931 . S
C418 C414 1.389 . S
C418 C416 1.364 . S
C418 H439 0.931 . S
C419 O430 1.256 . S
C419 O431 1.257 . S
O420 Gd400 2.377 . S
O420 C402 1.240 . S
O421 Gd401 2.395 . S
O421 C402 1.240 . S
O422 Gd400 2.448 . S
O422 C403 1.249 . S
O423 Gd400 2.506 . S
O423 C403 1.252 . S
O424 Gd400 2.435 . S
O424 C410 1.256 . S
O425 Gd400 2.717 . S
O425 Gd401 2.327 . S
O425 C410 1.257 . S
O426 Gd401 2.377 . S
O426 C411 1.240 . S
O427 Gd400 2.395 . S
O427 C411 1.240 . S
O428 Gd401 2.448 . S
O428 C412 1.249 . S
O429 Gd401 2.506 . S
O429 C412 1.252 . S
O430 Gd401 2.435 . S
O430 C419 1.256 . S
O431 Gd400 2.327 . S
O431 Gd401 2.717 . S
O431 C419 1.257 . S
H432 C405 0.930 . S
H433 C406 0.931 . S
H434 C408 0.931 . S
H435 C409 0.931 . S
H436 C414 0.930 . S
H437 C415 0.931 . S
H438 C417 0.931 . S
H439 C418 0.931 . S
Gd440 C443 2.818 . S
Gd440 O460 2.377 . S
Gd440 O462 2.448 . S
Gd440 O463 2.506 . S
Gd440 O464 2.435 . S
Gd440 O465 2.717 . S
Gd440 O467 2.395 1_556 S
Gd440 O471 2.327 . S
Gd441 C452 2.818 1_556 S
Gd441 O461 2.395 . S
Gd441 O465 2.327 . S
Gd441 O466 2.377 1_556 S
Gd441 O468 2.448 1_556 S
Gd441 O469 2.506 1_556 S
Gd441 O470 2.435 . S
Gd441 O471 2.717 . S
C442 O460 1.240 . S
C442 O461 1.240 . S
C443 Gd440 2.818 . S
C443 C444 1.510 . S
C443 O462 1.249 . S
C443 O463 1.252 . S
C444 C443 1.510 . S
C444 C445 1.404 . S
C444 C446 1.352 . S
C445 C444 1.404 . S
C445 C449 1.389 . S
C445 H472 0.930 . S
C446 C444 1.352 . S
C446 C448 1.374 . S
C446 H473 0.931 . S
C447 C448 1.359 . S
C447 C449 1.364 . S
C448 C446 1.374 . S
C448 C447 1.359 . S
C448 H474 0.931 . S
C449 C445 1.389 . S
C449 C447 1.364 . S
C449 H475 0.931 . S
C450 O464 1.256 1_554 S
C450 O465 1.257 1_554 S
C451 O466 1.240 . S
C451 O467 1.240 . S
C452 Gd441 2.818 1_554 S
C452 C453 1.510 . S
C452 O468 1.249 . S
C452 O469 1.252 . S
C453 C452 1.510 . S
C453 C454 1.404 . S
C453 C455 1.352 . S
C454 C453 1.404 . S
C454 C458 1.389 1_565 S
C454 H476 0.931 . S
C455 C453 1.352 . S
C455 C457 1.374 . S
C455 H477 0.931 . S
C456 C457 1.359 1_545 S
C456 C458 1.364 . S
C457 C455 1.374 . S
C457 C456 1.359 1_565 S
C457 H478 0.931 . S
C458 C454 1.389 1_545 S
C458 C456 1.364 . S
C458 H479 0.931 . S
C459 O470 1.256 . S
C459 O471 1.257 . S
O460 Gd440 2.377 . S
O460 C442 1.240 . S
O461 Gd441 2.395 . S
O461 C442 1.240 . S
O462 Gd440 2.448 . S
O462 C443 1.249 . S
O463 Gd440 2.506 . S
O463 C443 1.252 . S
O464 Gd440 2.435 . S
O464 C450 1.256 1_556 S
O465 Gd440 2.717 . S
O465 Gd441 2.327 . S
O465 C450 1.257 1_556 S
O466 Gd441 2.377 1_554 S
O466 C451 1.240 . S
O467 Gd440 2.395 1_554 S
O467 C451 1.240 . S
O468 Gd441 2.448 1_554 S
O468 C452 1.249 . S
O469 Gd441 2.506 1_554 S
O469 C452 1.252 . S
O470 Gd441 2.435 . S
O470 C459 1.256 . S
O471 Gd440 2.327 . S
O471 Gd441 2.717 . S
O471 C459 1.257 . S
H472 C445 0.930 . S
H473 C446 0.931 . S
H474 C448 0.931 . S
H475 C449 0.931 . S
H476 C454 0.931 . S
H477 C455 0.931 . S
H478 C457 0.931 . S
H479 C458 0.931 . S
Gd480 C483 2.818 . S
Gd480 O500 2.377 . S
Gd480 O502 2.448 . S
Gd480 O503 2.506 . S
Gd480 O504 2.435 . S
Gd480 O505 2.717 . S
Gd480 O507 2.395 . S
Gd480 O511 2.327 . S
Gd481 C492 2.818 . S
Gd481 O501 2.395 . S
Gd481 O505 2.327 . S
Gd481 O506 2.377 . S
Gd481 O508 2.448 . S
Gd481 O509 2.506 . S
Gd481 O510 2.435 . S
Gd481 O511 2.717 . S
C482 O500 1.240 . S
C482 O501 1.240 . S
C483 Gd480 2.818 . S
C483 C484 1.510 . S
C483 O502 1.249 . S
C483 O503 1.252 . S
C484 C483 1.510 . S
C484 C485 1.404 . S
C484 C486 1.352 . S
C485 C484 1.404 . S
C485 C489 1.389 1_655 S
C485 H512 0.930 . S
C486 C484 1.352 . S
C486 C488 1.374 . S
C486 H513 0.931 . S
C487 C488 1.359 1_455 S
C487 C489 1.364 . S
C488 C486 1.374 . S
C488 C487 1.359 1_655 S
C488 H514 0.931 . S
C489 C485 1.389 1_455 S
C489 C487 1.364 . S
C489 H515 0.931 . S
C490 O504 1.256 . S
C490 O505 1.257 . S
C491 O506 1.240 . S
C491 O507 1.240 . S
C492 Gd481 2.818 . S
C492 C493 1.510 . S
C492 O508 1.249 . S
C492 O509 1.252 . S
C493 C492 1.510 . S
C493 C494 1.404 . S
C493 C495 1.352 . S
C494 C493 1.404 . S
C494 C498 1.389 . S
C494 H516 0.930 . S
C495 C493 1.352 . S
C495 C497 1.374 . S
C495 H517 0.931 . S
C496 C497 1.359 . S
C496 C498 1.364 . S
C497 C495 1.374 . S
C497 C496 1.359 . S
C497 H518 0.931 . S
C498 C494 1.389 . S
C498 C496 1.364 . S
C498 H519 0.931 . S
C499 O510 1.256 . S
C499 O511 1.257 . S
O500 Gd480 2.377 . S
O500 C482 1.240 . S
O501 Gd481 2.395 . S
O501 C482 1.240 . S
O502 Gd480 2.448 . S
O502 C483 1.249 . S
O503 Gd480 2.506 . S
O503 C483 1.252 . S
O504 Gd480 2.435 . S
O504 C490 1.256 . S
O505 Gd480 2.717 . S
O505 Gd481 2.327 . S
O505 C490 1.257 . S
O506 Gd481 2.377 . S
O506 C491 1.240 . S
O507 Gd480 2.395 . S
O507 C491 1.240 . S
O508 Gd481 2.448 . S
O508 C492 1.249 . S
O509 Gd481 2.506 . S
O509 C492 1.252 . S
O510 Gd481 2.435 . S
O510 C499 1.256 . S
O511 Gd480 2.327 . S
O511 Gd481 2.717 . S
O511 C499 1.257 . S
H512 C485 0.930 . S
H513 C486 0.931 . S
H514 C488 0.931 . S
H515 C489 0.931 . S
H516 C494 0.930 . S
H517 C495 0.931 . S
H518 C497 0.931 . S
H519 C498 0.931 . S
Gd520 C523 2.818 . S
Gd520 O540 2.377 . S
Gd520 O542 2.448 . S
Gd520 O543 2.506 . S
Gd520 O544 2.435 . S
Gd520 O545 2.717 . S
Gd520 O547 2.395 . S
Gd520 O551 2.327 . S
Gd521 C532 2.818 . S
Gd521 O541 2.395 . S
Gd521 O545 2.327 . S
Gd521 O546 2.377 . S
Gd521 O548 2.448 . S
Gd521 O549 2.506 . S
Gd521 O550 2.435 . S
Gd521 O551 2.717 . S
C522 O540 1.240 . S
C522 O541 1.240 . S
C523 Gd520 2.818 . S
C523 C524 1.510 . S
C523 O542 1.249 . S
C523 O543 1.252 . S
C524 C523 1.510 . S
C524 C525 1.404 . S
C524 C526 1.352 . S
C525 C524 1.404 . S
C525 C529 1.389 . S
C525 H552 0.930 . S
C526 C524 1.352 . S
C526 C528 1.374 . S
C526 H553 0.931 . S
C527 C528 1.359 . S
C527 C529 1.364 . S
C528 C526 1.374 . S
C528 C527 1.359 . S
C528 H554 0.931 . S
C529 C525 1.389 . S
C529 C527 1.364 . S
C529 H555 0.931 . S
C530 O544 1.256 . S
C530 O545 1.257 . S
C531 O546 1.240 . S
C531 O547 1.240 . S
C532 Gd521 2.818 . S
C532 C533 1.510 . S
C532 O548 1.249 . S
C532 O549 1.252 . S
C533 C532 1.510 . S
C533 C534 1.404 . S
C533 C535 1.352 . S
C534 C533 1.404 . S
C534 C538 1.389 1_545 S
C534 H556 0.931 . S
C535 C533 1.352 . S
C535 C537 1.374 . S
C535 H557 0.931 . S
C536 C537 1.359 1_565 S
C536 C538 1.364 . S
C537 C535 1.374 . S
C537 C536 1.359 1_545 S
C537 H558 0.931 . S
C538 C534 1.389 1_565 S
C538 C536 1.364 . S
C538 H559 0.931 . S
C539 O550 1.256 . S
C539 O551 1.257 . S
O540 Gd520 2.377 . S
O540 C522 1.240 . S
O541 Gd521 2.395 . S
O541 C522 1.240 . S
O542 Gd520 2.448 . S
O542 C523 1.249 . S
O543 Gd520 2.506 . S
O543 C523 1.252 . S
O544 Gd520 2.435 . S
O544 C530 1.256 . S
O545 Gd520 2.717 . S
O545 Gd521 2.327 . S
O545 C530 1.257 . S
O546 Gd521 2.377 . S
O546 C531 1.240 . S
O547 Gd520 2.395 . S
O547 C531 1.240 . S
O548 Gd521 2.448 . S
O548 C532 1.249 . S
O549 Gd521 2.506 . S
O549 C532 1.252 . S
O550 Gd521 2.435 . S
O550 C539 1.256 . S
O551 Gd520 2.327 . S
O551 Gd521 2.717 . S
O551 C539 1.257 . S
H552 C525 0.930 . S
H553 C526 0.931 . S
H554 C528 0.931 . S
H555 C529 0.931 . S
H556 C534 0.931 . S
H557 C535 0.931 . S
H558 C537 0.931 . S
H559 C538 0.931 . S
Gd560 C563 2.818 . S
Gd560 O580 2.377 . S
Gd560 O582 2.448 . S
Gd560 O583 2.506 . S
Gd560 O584 2.435 . S
Gd560 O585 2.717 . S
Gd560 O587 2.395 . S
Gd560 O591 2.327 . S
Gd561 C572 2.818 . S
Gd561 O581 2.395 . S
Gd561 O585 2.327 . S
Gd561 O586 2.377 . S
Gd561 O588 2.448 . S
Gd561 O589 2.506 . S
Gd561 O590 2.435 . S
Gd561 O591 2.717 . S
C562 O580 1.240 . S
C562 O581 1.240 . S
C563 Gd560 2.818 . S
C563 C564 1.510 . S
C563 O582 1.249 . S
C563 O583 1.252 . S
C564 C563 1.510 . S
C564 C565 1.404 . S
C564 C566 1.352 . S
C565 C564 1.404 . S
C565 C569 1.389 . S
C565 H592 0.930 . S
C566 C564 1.352 . S
C566 C568 1.374 . S
C566 H593 0.931 . S
C567 C568 1.359 . S
C567 C569 1.364 . S
C568 C566 1.374 . S
C568 C567 1.359 . S
C568 H594 0.931 . S
C569 C565 1.389 . S
C569 C567 1.364 . S
C569 H595 0.931 . S
C570 O584 1.256 . S
C570 O585 1.257 . S
C571 O586 1.240 . S
C571 O587 1.240 . S
C572 Gd561 2.818 . S
C572 C573 1.510 . S
C572 O588 1.249 . S
C572 O589 1.252 . S
C573 C572 1.510 . S
C573 C574 1.404 . S
C573 C575 1.352 . S
C574 C573 1.404 . S
C574 C578 1.389 . S
C574 H596 0.930 . S
C575 C573 1.352 . S
C575 C577 1.374 . S
C575 H597 0.931 . S
C576 C577 1.359 . S
C576 C578 1.364 . S
C577 C575 1.374 . S
C577 C576 1.359 . S
C577 H598 0.931 . S
C578 C574 1.389 . S
C578 C576 1.364 . S
C578 H599 0.931 . S
C579 O590 1.256 . S
C579 O591 1.257 . S
O580 Gd560 2.377 . S
O580 C562 1.240 . S
O581 Gd561 2.395 . S
O581 C562 1.240 . S
O582 Gd560 2.448 . S
O582 C563 1.249 . S
O583 Gd560 2.506 . S
O583 C563 1.252 . S
O584 Gd560 2.435 . S
O584 C570 1.256 . S
O585 Gd560 2.717 . S
O585 Gd561 2.327 . S
O585 C570 1.257 . S
O586 Gd561 2.377 . S
O586 C571 1.240 . S
O587 Gd560 2.395 . S
O587 C571 1.240 . S
O588 Gd561 2.448 . S
O588 C572 1.249 . S
O589 Gd561 2.506 . S
O589 C572 1.252 . S
O590 Gd561 2.435 . S
O590 C579 1.256 . S
O591 Gd560 2.327 . S
O591 Gd561 2.717 . S
O591 C579 1.257 . S
H592 C565 0.930 . S
H593 C566 0.931 . S
H594 C568 0.931 . S
H595 C569 0.931 . S
H596 C574 0.930 . S
H597 C575 0.931 . S
H598 C577 0.931 . S
H599 C578 0.931 . S
Gd600 C603 2.818 . S
Gd600 O620 2.377 . S
Gd600 O622 2.448 . S
Gd600 O623 2.506 . S
Gd600 O624 2.435 . S
Gd600 O625 2.717 . S
Gd600 O627 2.395 1_554 S
Gd600 O631 2.327 . S
Gd601 C612 2.818 1_554 S
Gd601 O621 2.395 . S
Gd601 O625 2.327 . S
Gd601 O626 2.377 1_554 S
Gd601 O628 2.448 1_554 S
Gd601 O629 2.506 1_554 S
Gd601 O630 2.435 . S
Gd601 O631 2.717 . S
C602 O620 1.240 . S
C602 O621 1.240 . S
C603 Gd600 2.818 . S
C603 C604 1.510 . S
C603 O622 1.249 . S
C603 O623 1.252 . S
C604 C603 1.510 . S
C604 C605 1.404 . S
C604 C606 1.352 . S
C605 C604 1.404 . S
C605 C609 1.389 . S
C605 H632 0.930 . S
C606 C604 1.352 . S
C606 C608 1.374 . S
C606 H633 0.931 . S
C607 C608 1.359 . S
C607 C609 1.364 . S
C608 C606 1.374 . S
C608 C607 1.359 . S
C608 H634 0.931 . S
C609 C605 1.389 . S
C609 C607 1.364 . S
C609 H635 0.931 . S
C610 O624 1.256 1_556 S
C610 O625 1.257 1_556 S
C611 O626 1.240 . S
C611 O627 1.240 . S
C612 Gd601 2.818 1_556 S
C612 C613 1.510 . S
C612 O628 1.249 . S
C612 O629 1.252 . S
C613 C612 1.510 . S
C613 C614 1.404 . S
C613 C615 1.352 . S
C614 C613 1.404 . S
C614 C618 1.389 1_565 S
C614 H636 0.931 . S
C615 C613 1.352 . S
C615 C617 1.374 . S
C615 H637 0.931 . S
C616 C617 1.359 1_545 S
C616 C618 1.364 . S
C617 C615 1.374 . S
C617 C616 1.359 1_565 S
C617 H638 0.931 . S
C618 C614 1.389 1_545 S
C618 C616 1.364 . S
C618 H639 0.931 . S
C619 O630 1.256 . S
C619 O631 1.257 . S
O620 Gd600 2.377 . S
O620 C602 1.240 . S
O621 Gd601 2.395 . S
O621 C602 1.240 . S
O622 Gd600 2.448 . S
O622 C603 1.249 . S
O623 Gd600 2.506 . S
O623 C603 1.252 . S
O624 Gd600 2.435 . S
O624 C610 1.256 1_554 S
O625 Gd600 2.717 . S
O625 Gd601 2.327 . S
O625 C610 1.257 1_554 S
O626 Gd601 2.377 1_556 S
O626 C611 1.240 . S
O627 Gd600 2.395 1_556 S
O627 C611 1.240 . S
O628 Gd601 2.448 1_556 S
O628 C612 1.249 . S
O629 Gd601 2.506 1_556 S
O629 C612 1.252 . S
O630 Gd601 2.435 . S
O630 C619 1.256 . S
O631 Gd600 2.327 . S
O631 Gd601 2.717 . S
O631 C619 1.257 . S
H632 C605 0.930 . S
H633 C606 0.931 . S
H634 C608 0.931 . S
H635 C609 0.931 . S
H636 C614 0.931 . S
H637 C615 0.931 . S
H638 C617 0.931 . S
H639 C618 0.931 . S
Gd640 C643 2.818 . S
Gd640 O660 2.377 . S
Gd640 O662 2.448 . S
Gd640 O663 2.506 . S
Gd640 O664 2.435 . S
Gd640 O665 2.717 . S
Gd640 O667 2.395 . S
Gd640 O671 2.327 . S
Gd641 C652 2.818 . S
Gd641 O661 2.395 . S
Gd641 O665 2.327 . S
Gd641 O666 2.377 . S
Gd641 O668 2.448 . S
Gd641 O669 2.506 . S
Gd641 O670 2.435 . S
Gd641 O671 2.717 . S
C642 O660 1.240 . S
C642 O661 1.240 . S
C643 Gd640 2.818 . S
C643 C644 1.510 . S
C643 O662 1.249 . S
C643 O663 1.252 . S
C644 C643 1.510 . S
C644 C645 1.404 . S
C644 C646 1.352 . S
C645 C644 1.404 . S
C645 C649 1.389 . S
C645 H672 0.930 . S
C646 C644 1.352 . S
C646 C648 1.374 . S
C646 H673 0.931 . S
C647 C648 1.359 . S
C647 C649 1.364 . S
C648 C646 1.374 . S
C648 C647 1.359 . S
C648 H674 0.931 . S
C649 C645 1.389 . S
C649 C647 1.364 . S
C649 H675 0.931 . S
C650 O664 1.256 . S
C650 O665 1.257 . S
C651 O666 1.240 . S
C651 O667 1.240 . S
C652 Gd641 2.818 . S
C652 C653 1.510 . S
C652 O668 1.249 . S
C652 O669 1.252 . S
C653 C652 1.510 . S
C653 C654 1.404 . S
C653 C655 1.352 . S
C654 C653 1.404 . S
C654 C658 1.389 . S
C654 H676 0.930 . S
C655 C653 1.352 . S
C655 C657 1.374 . S
C655 H677 0.931 . S
C656 C657 1.359 . S
C656 C658 1.364 . S
C657 C655 1.374 . S
C657 C656 1.359 . S
C657 H678 0.931 . S
C658 C654 1.389 . S
C658 C656 1.364 . S
C658 H679 0.931 . S
C659 O670 1.256 . S
C659 O671 1.257 . S
O660 Gd640 2.377 . S
O660 C642 1.240 . S
O661 Gd641 2.395 . S
O661 C642 1.240 . S
O662 Gd640 2.448 . S
O662 C643 1.249 . S
O663 Gd640 2.506 . S
O663 C643 1.252 . S
O664 Gd640 2.435 . S
O664 C650 1.256 . S
O665 Gd640 2.717 . S
O665 Gd641 2.327 . S
O665 C650 1.257 . S
O666 Gd641 2.377 . S
O666 C651 1.240 . S
O667 Gd640 2.395 . S
O667 C651 1.240 . S
O668 Gd641 2.448 . S
O668 C652 1.249 . S
O669 Gd641 2.506 . S
O669 C652 1.252 . S
O670 Gd641 2.435 . S
O670 C659 1.256 . S
O671 Gd640 2.327 . S
O671 Gd641 2.717 . S
O671 C659 1.257 . S
H672 C645 0.930 . S
H673 C646 0.931 . S
H674 C648 0.931 . S
H675 C649 0.931 . S
H676 C654 0.930 . S
H677 C655 0.931 . S
H678 C657 0.931 . S
H679 C658 0.931 . S
Gd680 C683 2.818 1_554 S
Gd680 O700 2.377 1_554 S
Gd680 O702 2.448 1_554 S
Gd680 O703 2.506 1_554 S
Gd680 O704 2.435 . S
Gd680 O705 2.717 . S
Gd680 O707 2.395 . S
Gd680 O711 2.327 . S
Gd681 C692 2.818 . S
Gd681 O701 2.395 1_554 S
Gd681 O705 2.327 . S
Gd681 O706 2.377 . S
Gd681 O708 2.448 . S
Gd681 O709 2.506 . S
Gd681 O710 2.435 . S
Gd681 O711 2.717 . S
C682 O700 1.240 . S
C682 O701 1.240 . S
C683 Gd680 2.818 1_556 S
C683 C684 1.510 . S
C683 O702 1.249 . S
C683 O703 1.252 . S
C684 C683 1.510 . S
C684 C685 1.404 . S
C684 C686 1.352 . S
C685 C684 1.404 . S
C685 C689 1.389 . S
C685 H712 0.930 . S
C686 C684 1.352 . S
C686 C688 1.374 . S
C686 H713 0.931 . S
C687 C688 1.359 . S
C687 C689 1.364 . S
C688 C686 1.374 . S
C688 C687 1.359 . S
C688 H714 0.931 . S
C689 C685 1.389 . S
C689 C687 1.364 . S
C689 H715 0.931 . S
C690 O704 1.256 . S
C690 O705 1.257 . S
C691 O706 1.240 . S
C691 O707 1.240 . S
C692 Gd681 2.818 . S
C692 C693 1.510 . S
C692 O708 1.249 . S
C692 O709 1.252 . S
C693 C692 1.510 . S
C693 C694 1.404 . S
C693 C695 1.352 . S
C694 C693 1.404 . S
C694 C698 1.389 . S
C694 H716 0.930 . S
C695 C693 1.352 . S
C695 C697 1.374 . S
C695 H717 0.931 . S
C696 C697 1.359 . S
C696 C698 1.364 . S
C697 C695 1.374 . S
C697 C696 1.359 . S
C697 H718 0.931 . S
C698 C694 1.389 . S
C698 C696 1.364 . S
C698 H719 0.931 . S
C699 O710 1.256 1_556 S
C699 O711 1.257 1_556 S
O700 Gd680 2.377 1_556 S
O700 C682 1.240 . S
O701 Gd681 2.395 1_556 S
O701 C682 1.240 . S
O702 Gd680 2.448 1_556 S
O702 C683 1.249 . S
O703 Gd680 2.506 1_556 S
O703 C683 1.252 . S
O704 Gd680 2.435 . S
O704 C690 1.256 . S
O705 Gd680 2.717 . S
O705 Gd681 2.327 . S
O705 C690 1.257 . S
O706 Gd681 2.377 . S
O706 C691 1.240 . S
O707 Gd680 2.395 . S
O707 C691 1.240 . S
O708 Gd681 2.448 . S
O708 C692 1.249 . S
O709 Gd681 2.506 . S
O709 C692 1.252 . S
O710 Gd681 2.435 . S
O710 C699 1.256 1_554 S
O711 Gd680 2.327 . S
O711 Gd681 2.717 . S
O711 C699 1.257 1_554 S
H712 C685 0.930 . S
H713 C686 0.931 . S
H714 C688 0.931 . S
H715 C689 0.931 . S
H716 C694 0.930 . S
H717 C695 0.931 . S
H718 C697 0.931 . S
H719 C698 0.931 . S
Gd720 C723 2.818 . S
Gd720 O740 2.377 . S
Gd720 O742 2.448 . S
Gd720 O743 2.506 . S
Gd720 O744 2.435 . S
Gd720 O745 2.717 . S
Gd720 O747 2.395 . S
Gd720 O751 2.327 . S
Gd721 C732 2.818 . S
Gd721 O741 2.395 . S
Gd721 O745 2.327 . S
Gd721 O746 2.377 . S
Gd721 O748 2.448 . S
Gd721 O749 2.506 . S
Gd721 O750 2.435 . S
Gd721 O751 2.717 . S
C722 O740 1.240 . S
C722 O741 1.240 . S
C723 Gd720 2.818 . S
C723 C724 1.510 . S
C723 O742 1.249 . S
C723 O743 1.252 . S
C724 C723 1.510 . S
C724 C725 1.404 . S
C724 C726 1.352 . S
C725 C724 1.404 . S
C725 C729 1.389 . S
C725 H752 0.930 . S
C726 C724 1.352 . S
C726 C728 1.374 . S
C726 H753 0.931 . S
C727 C728 1.359 . S
C727 C729 1.364 . S
C728 C726 1.374 . S
C728 C727 1.359 . S
C728 H754 0.931 . S
C729 C725 1.389 . S
C729 C727 1.364 . S
C729 H755 0.931 . S
C730 O744 1.256 . S
C730 O745 1.257 . S
C731 O746 1.240 . S
C731 O747 1.240 . S
C732 Gd721 2.818 . S
C732 C733 1.510 . S
C732 O748 1.249 . S
C732 O749 1.252 . S
C733 C732 1.510 . S
C733 C734 1.404 . S
C733 C735 1.352 . S
C734 C733 1.404 . S
C734 C738 1.389 1_655 S
C734 H756 0.930 . S
C735 C733 1.352 . S
C735 C737 1.374 . S
C735 H757 0.931 . S
C736 C737 1.359 1_455 S
C736 C738 1.364 . S
C737 C735 1.374 . S
C737 C736 1.359 1_655 S
C737 H758 0.931 . S
C738 C734 1.389 1_455 S
C738 C736 1.364 . S
C738 H759 0.931 . S
C739 O750 1.256 . S
C739 O751 1.257 . S
O740 Gd720 2.377 . S
O740 C722 1.240 . S
O741 Gd721 2.395 . S
O741 C722 1.240 . S
O742 Gd720 2.448 . S
O742 C723 1.249 . S
O743 Gd720 2.506 . S
O743 C723 1.252 . S
O744 Gd720 2.435 . S
O744 C730 1.256 . S
O745 Gd720 2.717 . S
O745 Gd721 2.327 . S
O745 C730 1.257 . S
O746 Gd721 2.377 . S
O746 C731 1.240 . S
O747 Gd720 2.395 . S
O747 C731 1.240 . S
O748 Gd721 2.448 . S
O748 C732 1.249 . S
O749 Gd721 2.506 . S
O749 C732 1.252 . S
O750 Gd721 2.435 . S
O750 C739 1.256 . S
O751 Gd720 2.327 . S
O751 Gd721 2.717 . S
O751 C739 1.257 . S
H752 C725 0.930 . S
H753 C726 0.931 . S
H754 C728 0.931 . S
H755 C729 0.931 . S
H756 C734 0.930 . S
H757 C735 0.931 . S
H758 C737 0.931 . S
H759 C738 0.931 . S
Gd760 C763 2.818 . S
Gd760 O780 2.377 . S
Gd760 O782 2.448 . S
Gd760 O783 2.506 . S
Gd760 O784 2.435 . S
Gd760 O785 2.717 . S
Gd760 O787 2.395 . S
Gd760 O791 2.327 . S
Gd761 C772 2.818 . S
Gd761 O781 2.395 . S
Gd761 O785 2.327 . S
Gd761 O786 2.377 . S
Gd761 O788 2.448 . S
Gd761 O789 2.506 . S
Gd761 O790 2.435 . S
Gd761 O791 2.717 . S
C762 O780 1.240 . S
C762 O781 1.240 . S
C763 Gd760 2.818 . S
C763 C764 1.510 . S
C763 O782 1.249 . S
C763 O783 1.252 . S
C764 C763 1.510 . S
C764 C765 1.404 . S
C764 C766 1.352 . S
C765 C764 1.404 . S
C765 C769 1.389 . S
C765 H792 0.930 . S
C766 C764 1.352 . S
C766 C768 1.374 . S
C766 H793 0.931 . S
C767 C768 1.359 . S
C767 C769 1.364 . S
C768 C766 1.374 . S
C768 C767 1.359 . S
C768 H794 0.931 . S
C769 C765 1.389 . S
C769 C767 1.364 . S
C769 H795 0.931 . S
C770 O784 1.256 . S
C770 O785 1.257 . S
C771 O786 1.240 . S
C771 O787 1.240 . S
C772 Gd761 2.818 . S
C772 C773 1.510 . S
C772 O788 1.249 . S
C772 O789 1.252 . S
C773 C772 1.510 . S
C773 C774 1.404 . S
C773 C775 1.352 . S
C774 C773 1.404 . S
C774 C778 1.389 . S
C774 H796 0.930 . S
C775 C773 1.352 . S
C775 C777 1.374 . S
C775 H797 0.931 . S
C776 C777 1.359 . S
C776 C778 1.364 . S
C777 C775 1.374 . S
C777 C776 1.359 . S
C777 H798 0.931 . S
C778 C774 1.389 . S
C778 C776 1.364 . S
C778 H799 0.931 . S
C779 O790 1.256 . S
C779 O791 1.257 . S
O780 Gd760 2.377 . S
O780 C762 1.240 . S
O781 Gd761 2.395 . S
O781 C762 1.240 . S
O782 Gd760 2.448 . S
O782 C763 1.249 . S
O783 Gd760 2.506 . S
O783 C763 1.252 . S
O784 Gd760 2.435 . S
O784 C770 1.256 . S
O785 Gd760 2.717 . S
O785 Gd761 2.327 . S
O785 C770 1.257 . S
O786 Gd761 2.377 . S
O786 C771 1.240 . S
O787 Gd760 2.395 . S
O787 C771 1.240 . S
O788 Gd761 2.448 . S
O788 C772 1.249 . S
O789 Gd761 2.506 . S
O789 C772 1.252 . S
O790 Gd761 2.435 . S
O790 C779 1.256 . S
O791 Gd760 2.327 . S
O791 Gd761 2.717 . S
O791 C779 1.257 . S
H792 C765 0.930 . S
H793 C766 0.931 . S
H794 C768 0.931 . S
H795 C769 0.931 . S
H796 C774 0.930 . S
H797 C775 0.931 . S
H798 C777 0.931 . S
H799 C778 0.931 . S
Gd800 C803 2.818 . S
Gd800 O820 2.377 . S
Gd800 O822 2.448 . S
Gd800 O823 2.506 . S
Gd800 O824 2.435 . S
Gd800 O825 2.717 . S
Gd800 O827 2.395 . S
Gd800 O831 2.327 . S
Gd801 C812 2.818 . S
Gd801 O821 2.395 . S
Gd801 O825 2.327 . S
Gd801 O826 2.377 . S
Gd801 O828 2.448 . S
Gd801 O829 2.506 . S
Gd801 O830 2.435 . S
Gd801 O831 2.717 . S
C802 O820 1.240 . S
C802 O821 1.240 . S
C803 Gd800 2.818 . S
C803 C804 1.510 . S
C803 O822 1.249 . S
C803 O823 1.252 . S
C804 C803 1.510 . S
C804 C805 1.404 . S
C804 C806 1.352 . S
C805 C804 1.404 . S
C805 C809 1.389 . S
C805 H832 0.930 . S
C806 C804 1.352 . S
C806 C808 1.374 . S
C806 H833 0.931 . S
C807 C808 1.359 . S
C807 C809 1.364 . S
C808 C806 1.374 . S
C808 C807 1.359 . S
C808 H834 0.931 . S
C809 C805 1.389 . S
C809 C807 1.364 . S
C809 H835 0.931 . S
C810 O824 1.256 . S
C810 O825 1.257 . S
C811 O826 1.240 . S
C811 O827 1.240 . S
C812 Gd801 2.818 . S
C812 C813 1.510 . S
C812 O828 1.249 . S
C812 O829 1.252 . S
C813 C812 1.510 . S
C813 C814 1.404 . S
C813 C815 1.352 . S
C814 C813 1.404 . S
C814 C818 1.389 . S
C814 H836 0.930 . S
C815 C813 1.352 . S
C815 C817 1.374 . S
C815 H837 0.931 . S
C816 C817 1.359 . S
C816 C818 1.364 . S
C817 C815 1.374 . S
C817 C816 1.359 . S
C817 H838 0.931 . S
C818 C814 1.389 . S
C818 C816 1.364 . S
C818 H839 0.931 . S
C819 O830 1.256 . S
C819 O831 1.257 . S
O820 Gd800 2.377 . S
O820 C802 1.240 . S
O821 Gd801 2.395 . S
O821 C802 1.240 . S
O822 Gd800 2.448 . S
O822 C803 1.249 . S
O823 Gd800 2.506 . S
O823 C803 1.252 . S
O824 Gd800 2.435 . S
O824 C810 1.256 . S
O825 Gd800 2.717 . S
O825 Gd801 2.327 . S
O825 C810 1.257 . S
O826 Gd801 2.377 . S
O826 C811 1.240 . S
O827 Gd800 2.395 . S
O827 C811 1.240 . S
O828 Gd801 2.448 . S
O828 C812 1.249 . S
O829 Gd801 2.506 . S
O829 C812 1.252 . S
O830 Gd801 2.435 . S
O830 C819 1.256 . S
O831 Gd800 2.327 . S
O831 Gd801 2.717 . S
O831 C819 1.257 . S
H832 C805 0.930 . S
H833 C806 0.931 . S
H834 C808 0.931 . S
H835 C809 0.931 . S
H836 C814 0.930 . S
H837 C815 0.931 . S
H838 C817 0.931 . S
H839 C818 0.931 . S
Gd840 C843 2.818 1_556 S
Gd840 O860 2.377 1_556 S
Gd840 O862 2.448 1_556 S
Gd840 O863 2.506 1_556 S
Gd840 O864 2.435 . S
Gd840 O865 2.717 . S
Gd840 O867 2.395 . S
Gd840 O871 2.327 . S
Gd841 C852 2.818 . S
Gd841 O861 2.395 1_556 S
Gd841 O865 2.327 . S
Gd841 O866 2.377 . S
Gd841 O868 2.448 . S
Gd841 O869 2.506 . S
Gd841 O870 2.435 . S
Gd841 O871 2.717 . S
C842 O860 1.240 . S
C842 O861 1.240 . S
C843 Gd840 2.818 1_554 S
C843 C844 1.510 . S
C843 O862 1.249 . S
C843 O863 1.252 . S
C844 C843 1.510 . S
C844 C845 1.404 . S
C844 C846 1.352 . S
C845 C844 1.404 . S
C845 C849 1.389 . S
C845 H872 0.930 . S
C846 C844 1.352 . S
C846 C848 1.374 . S
C846 H873 0.931 . S
C847 C848 1.359 . S
C847 C849 1.364 . S
C848 C846 1.374 . S
C848 C847 1.359 . S
C848 H874 0.931 . S
C849 C845 1.389 . S
C849 C847 1.364 . S
C849 H875 0.931 . S
C850 O864 1.256 . S
C850 O865 1.257 . S
C851 O866 1.240 . S
C851 O867 1.240 . S
C852 Gd841 2.818 . S
C852 C853 1.510 . S
C852 O868 1.249 . S
C852 O869 1.252 . S
C853 C852 1.510 . S
C853 C854 1.404 . S
C853 C855 1.352 . S
C854 C853 1.404 . S
C854 C858 1.389 . S
C854 H876 0.930 . S
C855 C853 1.352 . S
C855 C857 1.374 . S
C855 H877 0.931 . S
C856 C857 1.359 . S
C856 C858 1.364 . S
C857 C855 1.374 . S
C857 C856 1.359 . S
C857 H878 0.931 . S
C858 C854 1.389 . S
C858 C856 1.364 . S
C858 H879 0.931 . S
C859 O870 1.256 1_554 S
C859 O871 1.257 1_554 S
O860 Gd840 2.377 1_554 S
O860 C842 1.240 . S
O861 Gd841 2.395 1_554 S
O861 C842 1.240 . S
O862 Gd840 2.448 1_554 S
O862 C843 1.249 . S
O863 Gd840 2.506 1_554 S
O863 C843 1.252 . S
O864 Gd840 2.435 . S
O864 C850 1.256 . S
O865 Gd840 2.717 . S
O865 Gd841 2.327 . S
O865 C850 1.257 . S
O866 Gd841 2.377 . S
O866 C851 1.240 . S
O867 Gd840 2.395 . S
O867 C851 1.240 . S
O868 Gd841 2.448 . S
O868 C852 1.249 . S
O869 Gd841 2.506 . S
O869 C852 1.252 . S
O870 Gd841 2.435 . S
O870 C859 1.256 1_556 S
O871 Gd840 2.327 . S
O871 Gd841 2.717 . S
O871 C859 1.257 1_556 S
H872 C845 0.930 . S
H873 C846 0.931 . S
H874 C848 0.931 . S
H875 C849 0.931 . S
H876 C854 0.930 . S
H877 C855 0.931 . S
H878 C857 0.931 . S
H879 C858 0.931 . S
Gd880 C883 2.818 . S
Gd880 O900 2.377 . S
Gd880 O902 2.448 . S
Gd880 O903 2.506 . S
Gd880 O904 2.435 . S
Gd880 O905 2.717 . S
Gd880 O907 2.395 . S
Gd880 O911 2.327 . S
Gd881 C892 2.818 . S
Gd881 O901 2.395 . S
Gd881 O905 2.327 . S
Gd881 O906 2.377 . S
Gd881 O908 2.448 . S
Gd881 O909 2.506 . S
Gd881 O910 2.435 . S
Gd881 O911 2.717 . S
C882 O900 1.240 . S
C882 O901 1.240 . S
C883 Gd880 2.818 . S
C883 C884 1.510 . S
C883 O902 1.249 . S
C883 O903 1.252 . S
C884 C883 1.510 . S
C884 C885 1.404 . S
C884 C886 1.352 . S
C885 C884 1.404 . S
C885 C889 1.389 . S
C885 H912 0.930 . S
C886 C884 1.352 . S
C886 C888 1.374 . S
C886 H913 0.931 . S
C887 C888 1.359 . S
C887 C889 1.364 . S
C888 C886 1.374 . S
C888 C887 1.359 . S
C888 H914 0.931 . S
C889 C885 1.389 . S
C889 C887 1.364 . S
C889 H915 0.931 . S
C890 O904 1.256 . S
C890 O905 1.257 . S
C891 O906 1.240 . S
C891 O907 1.240 . S
C892 Gd881 2.818 . S
C892 C893 1.510 . S
C892 O908 1.249 . S
C892 O909 1.252 . S
C893 C892 1.510 . S
C893 C894 1.404 . S
C893 C895 1.352 . S
C894 C893 1.404 . S
C894 C898 1.389 1_655 S
C894 H916 0.930 . S
C895 C893 1.352 . S
C895 C897 1.374 . S
C895 H917 0.931 . S
C896 C897 1.359 1_455 S
C896 C898 1.364 . S
C897 C895 1.374 . S
C897 C896 1.359 1_655 S
C897 H918 0.931 . S
C898 C894 1.389 1_455 S
C898 C896 1.364 . S
C898 H919 0.931 . S
C899 O910 1.256 . S
C899 O911 1.257 . S
O900 Gd880 2.377 . S
O900 C882 1.240 . S
O901 Gd881 2.395 . S
O901 C882 1.240 . S
O902 Gd880 2.448 . S
O902 C883 1.249 . S
O903 Gd880 2.506 . S
O903 C883 1.252 . S
O904 Gd880 2.435 . S
O904 C890 1.256 . S
O905 Gd880 2.717 . S
O905 Gd881 2.327 . S
O905 C890 1.257 . S
O906 Gd881 2.377 . S
O906 C891 1.240 . S
O907 Gd880 2.395 . S
O907 C891 1.240 . S
O908 Gd881 2.448 . S
O908 C892 1.249 . S
O909 Gd881 2.506 . S
O909 C892 1.252 . S
O910 Gd881 2.435 . S
O910 C899 1.256 . S
O911 Gd880 2.327 . S
O911 Gd881 2.717 . S
O911 C899 1.257 . S
H912 C885 0.930 . S
H913 C886 0.931 . S
H914 C888 0.931 . S
H915 C889 0.931 . S
H916 C894 0.930 . S
H917 C895 0.931 . S
H918 C897 0.931 . S
H919 C898 0.931 . S
Gd920 C923 2.818 . S
Gd920 O940 2.377 . S
Gd920 O942 2.448 . S
Gd920 O943 2.506 . S
Gd920 O944 2.435 . S
Gd920 O945 2.717 . S
Gd920 O947 2.395 . S
Gd920 O951 2.327 . S
Gd921 C932 2.818 . S
Gd921 O941 2.395 . S
Gd921 O945 2.327 . S
Gd921 O946 2.377 . S
Gd921 O948 2.448 . S
Gd921 O949 2.506 . S
Gd921 O950 2.435 . S
Gd921 O951 2.717 . S
C922 O940 1.240 . S
C922 O941 1.240 . S
C923 Gd920 2.818 . S
C923 C924 1.510 . S
C923 O942 1.249 . S
C923 O943 1.252 . S
C924 C923 1.510 . S
C924 C925 1.404 . S
C924 C926 1.352 . S
C925 C924 1.404 . S
C925 C929 1.389 . S
C925 H952 0.930 . S
C926 C924 1.352 . S
C926 C928 1.374 . S
C926 H953 0.931 . S
C927 C928 1.359 . S
C927 C929 1.364 . S
C928 C926 1.374 . S
C928 C927 1.359 . S
C928 H954 0.931 . S
C929 C925 1.389 . S
C929 C927 1.364 . S
C929 H955 0.931 . S
C930 O944 1.256 . S
C930 O945 1.257 . S
C931 O946 1.240 . S
C931 O947 1.240 . S
C932 Gd921 2.818 . S
C932 C933 1.510 . S
C932 O948 1.249 . S
C932 O949 1.252 . S
C933 C932 1.510 . S
C933 C934 1.404 . S
C933 C935 1.352 . S
C934 C933 1.404 . S
C934 C938 1.389 . S
C934 H956 0.930 . S
C935 C933 1.352 . S
C935 C937 1.374 . S
C935 H957 0.931 . S
C936 C937 1.359 . S
C936 C938 1.364 . S
C937 C935 1.374 . S
C937 C936 1.359 . S
C937 H958 0.931 . S
C938 C934 1.389 . S
C938 C936 1.364 . S
C938 H959 0.931 . S
C939 O950 1.256 . S
C939 O951 1.257 . S
O940 Gd920 2.377 . S
O940 C922 1.240 . S
O941 Gd921 2.395 . S
O941 C922 1.240 . S
O942 Gd920 2.448 . S
O942 C923 1.249 . S
O943 Gd920 2.506 . S
O943 C923 1.252 . S
O944 Gd920 2.435 . S
O944 C930 1.256 . S
O945 Gd920 2.717 . S
O945 Gd921 2.327 . S
O945 C930 1.257 . S
O946 Gd921 2.377 . S
O946 C931 1.240 . S
O947 Gd920 2.395 . S
O947 C931 1.240 . S
O948 Gd921 2.448 . S
O948 C932 1.249 . S
O949 Gd921 2.506 . S
O949 C932 1.252 . S
O950 Gd921 2.435 . S
O950 C939 1.256 . S
O951 Gd920 2.327 . S
O951 Gd921 2.717 . S
O951 C939 1.257 . S
H952 C925 0.930 . S
H953 C926 0.931 . S
H954 C928 0.931 . S
H955 C929 0.931 . S
H956 C934 0.930 . S
H957 C935 0.931 . S
H958 C937 0.931 . S
H959 C938 0.931 . S
Gd960 C963 2.818 . S
Gd960 O980 2.377 . S
Gd960 O982 2.448 . S
Gd960 O983 2.506 . S
Gd960 O984 2.435 . S
Gd960 O985 2.717 . S
Gd960 O987 2.395 . S
Gd960 O991 2.327 . S
Gd961 C972 2.818 . S
Gd961 O981 2.395 . S
Gd961 O985 2.327 . S
Gd961 O986 2.377 . S
Gd961 O988 2.448 . S
Gd961 O989 2.506 . S
Gd961 O990 2.435 . S
Gd961 O991 2.717 . S
C962 O980 1.240 . S
C962 O981 1.240 . S
C963 Gd960 2.818 . S
C963 C964 1.510 . S
C963 O982 1.249 . S
C963 O983 1.252 . S
C964 C963 1.510 . S
C964 C965 1.404 . S
C964 C966 1.352 . S
C965 C964 1.404 . S
C965 C969 1.389 . S
C965 H992 0.930 . S
C966 C964 1.352 . S
C966 C968 1.374 . S
C966 H993 0.931 . S
C967 C968 1.359 . S
C967 C969 1.364 . S
C968 C966 1.374 . S
C968 C967 1.359 . S
C968 H994 0.931 . S
C969 C965 1.389 . S
C969 C967 1.364 . S
C969 H995 0.931 . S
C970 O984 1.256 . S
C970 O985 1.257 . S
C971 O986 1.240 . S
C971 O987 1.240 . S
C972 Gd961 2.818 . S
C972 C973 1.510 . S
C972 O988 1.249 . S
C972 O989 1.252 . S
C973 C972 1.510 . S
C973 C974 1.404 . S
C973 C975 1.352 . S
C974 C973 1.404 . S
C974 C978 1.389 . S
C974 H996 0.930 . S
C975 C973 1.352 . S
C975 C977 1.374 . S
C975 H997 0.931 . S
C976 C977 1.359 . S
C976 C978 1.364 . S
C977 C975 1.374 . S
C977 C976 1.359 . S
C977 H998 0.931 . S
C978 C974 1.389 . S
C978 C976 1.364 . S
C978 H999 0.931 . S
C979 O990 1.256 . S
C979 O991 1.257 . S
O980 Gd960 2.377 . S
O980 C962 1.240 . S
O981 Gd961 2.395 . S
O981 C962 1.240 . S
O982 Gd960 2.448 . S
O982 C963 1.249 . S
O983 Gd960 2.506 . S
O983 C963 1.252 . S
O984 Gd960 2.435 . S
O984 C970 1.256 . S
O985 Gd960 2.717 . S
O985 Gd961 2.327 . S
O985 C970 1.257 . S
O986 Gd961 2.377 . S
O986 C971 1.240 . S
O987 Gd960 2.395 . S
O987 C971 1.240 . S
O988 Gd961 2.448 . S
O988 C972 1.249 . S
O989 Gd961 2.506 . S
O989 C972 1.252 . S
O990 Gd961 2.435 . S
O990 C979 1.256 . S
O991 Gd960 2.327 . S
O991 Gd961 2.717 . S
O991 C979 1.257 . S
H992 C965 0.930 . S
H993 C966 0.931 . S
H994 C968 0.931 . S
H995 C969 0.931 . S
H996 C974 0.930 . S
H997 C975 0.931 . S
H998 C977 0.931 . S
H999 C978 0.931 . S
Gd1000 C1003 2.818 . S
Gd1000 O1020 2.377 . S
Gd1000 O1022 2.448 . S
Gd1000 O1023 2.506 . S
Gd1000 O1024 2.435 . S
Gd1000 O1025 2.717 . S
Gd1000 O1027 2.395 1_556 S
Gd1000 O1031 2.327 . S
Gd1001 C1012 2.818 1_556 S
Gd1001 O1021 2.395 . S
Gd1001 O1025 2.327 . S
Gd1001 O1026 2.377 1_556 S
Gd1001 O1028 2.448 1_556 S
Gd1001 O1029 2.506 1_556 S
Gd1001 O1030 2.435 . S
Gd1001 O1031 2.717 . S
C1002 O1020 1.240 . S
C1002 O1021 1.240 . S
C1003 Gd1000 2.818 . S
C1003 C1004 1.510 . S
C1003 O1022 1.249 . S
C1003 O1023 1.252 . S
C1004 C1003 1.510 . S
C1004 C1005 1.404 . S
C1004 C1006 1.352 . S
C1005 C1004 1.404 . S
C1005 C1009 1.389 . S
C1005 H1032 0.930 . S
C1006 C1004 1.352 . S
C1006 C1008 1.374 . S
C1006 H1033 0.931 . S
C1007 C1008 1.359 . S
C1007 C1009 1.364 . S
C1008 C1006 1.374 . S
C1008 C1007 1.359 . S
C1008 H1034 0.931 . S
C1009 C1005 1.389 . S
C1009 C1007 1.364 . S
C1009 H1035 0.931 . S
C1010 O1024 1.256 1_554 S
C1010 O1025 1.257 1_554 S
C1011 O1026 1.240 . S
C1011 O1027 1.240 . S
C1012 Gd1001 2.818 1_554 S
C1012 C1013 1.510 . S
C1012 O1028 1.249 . S
C1012 O1029 1.252 . S
C1013 C1012 1.510 . S
C1013 C1014 1.404 . S
C1013 C1015 1.352 . S
C1014 C1013 1.404 . S
C1014 C1018 1.389 . S
C1014 H1036 0.930 . S
C1015 C1013 1.352 . S
C1015 C1017 1.374 . S
C1015 H1037 0.931 . S
C1016 C1017 1.359 . S
C1016 C1018 1.364 . S
C1017 C1015 1.374 . S
C1017 C1016 1.359 . S
C1017 H1038 0.931 . S
C1018 C1014 1.389 . S
C1018 C1016 1.364 . S
C1018 H1039 0.931 . S
C1019 O1030 1.256 . S
C1019 O1031 1.257 . S
O1020 Gd1000 2.377 . S
O1020 C1002 1.240 . S
O1021 Gd1001 2.395 . S
O1021 C1002 1.240 . S
O1022 Gd1000 2.448 . S
O1022 C1003 1.249 . S
O1023 Gd1000 2.506 . S
O1023 C1003 1.252 . S
O1024 Gd1000 2.435 . S
O1024 C1010 1.256 1_556 S
O1025 Gd1000 2.717 . S
O1025 Gd1001 2.327 . S
O1025 C1010 1.257 1_556 S
O1026 Gd1001 2.377 1_554 S
O1026 C1011 1.240 . S
O1027 Gd1000 2.395 1_554 S
O1027 C1011 1.240 . S
O1028 Gd1001 2.448 1_554 S
O1028 C1012 1.249 . S
O1029 Gd1001 2.506 1_554 S
O1029 C1012 1.252 . S
O1030 Gd1001 2.435 . S
O1030 C1019 1.256 . S
O1031 Gd1000 2.327 . S
O1031 Gd1001 2.717 . S
O1031 C1019 1.257 . S
H1032 C1005 0.930 . S
H1033 C1006 0.931 . S
H1034 C1008 0.931 . S
H1035 C1009 0.931 . S
H1036 C1014 0.930 . S
H1037 C1015 0.931 . S
H1038 C1017 0.931 . S
H1039 C1018 0.931 . S
Gd1040 C1043 2.818 . S
Gd1040 O1060 2.377 . S
Gd1040 O1062 2.448 . S
Gd1040 O1063 2.506 . S
Gd1040 O1064 2.435 . S
Gd1040 O1065 2.717 . S
Gd1040 O1067 2.395 . S
Gd1040 O1071 2.327 . S
Gd1041 C1052 2.818 . S
Gd1041 O1061 2.395 . S
Gd1041 O1065 2.327 . S
Gd1041 O1066 2.377 . S
Gd1041 O1068 2.448 . S
Gd1041 O1069 2.506 . S
Gd1041 O1070 2.435 . S
Gd1041 O1071 2.717 . S
C1042 O1060 1.240 . S
C1042 O1061 1.240 . S
C1043 Gd1040 2.818 . S
C1043 C1044 1.510 . S
C1043 O1062 1.249 . S
C1043 O1063 1.252 . S
C1044 C1043 1.510 . S
C1044 C1045 1.404 . S
C1044 C1046 1.352 . S
C1045 C1044 1.404 . S
C1045 C1049 1.389 1_455 S
C1045 H1072 0.930 . S
C1046 C1044 1.352 . S
C1046 C1048 1.374 . S
C1046 H1073 0.931 . S
C1047 C1048 1.359 1_655 S
C1047 C1049 1.364 . S
C1048 C1046 1.374 . S
C1048 C1047 1.359 1_455 S
C1048 H1074 0.931 . S
C1049 C1045 1.389 1_655 S
C1049 C1047 1.364 . S
C1049 H1075 0.931 . S
C1050 O1064 1.256 . S
C1050 O1065 1.257 . S
C1051 O1066 1.240 . S
C1051 O1067 1.240 . S
C1052 Gd1041 2.818 . S
C1052 C1053 1.510 . S
C1052 O1068 1.249 . S
C1052 O1069 1.252 . S
C1053 C1052 1.510 . S
C1053 C1054 1.404 . S
C1053 C1055 1.352 . S
C1054 C1053 1.404 . S
C1054 C1058 1.389 . S
C1054 H1076 0.930 . S
C1055 C1053 1.352 . S
C1055 C1057 1.374 . S
C1055 H1077 0.931 . S
C1056 C1057 1.359 . S
C1056 C1058 1.364 . S
C1057 C1055 1.374 . S
C1057 C1056 1.359 . S
C1057 H1078 0.931 . S
C1058 C1054 1.389 . S
C1058 C1056 1.364 . S
C1058 H1079 0.931 . S
C1059 O1070 1.256 . S
C1059 O1071 1.257 . S
O1060 Gd1040 2.377 . S
O1060 C1042 1.240 . S
O1061 Gd1041 2.395 . S
O1061 C1042 1.240 . S
O1062 Gd1040 2.448 . S
O1062 C1043 1.249 . S
O1063 Gd1040 2.506 . S
O1063 C1043 1.252 . S
O1064 Gd1040 2.435 . S
O1064 C1050 1.256 . S
O1065 Gd1040 2.717 . S
O1065 Gd1041 2.327 . S
O1065 C1050 1.257 . S
O1066 Gd1041 2.377 . S
O1066 C1051 1.240 . S
O1067 Gd1040 2.395 . S
O1067 C1051 1.240 . S
O1068 Gd1041 2.448 . S
O1068 C1052 1.249 . S
O1069 Gd1041 2.506 . S
O1069 C1052 1.252 . S
O1070 Gd1041 2.435 . S
O1070 C1059 1.256 . S
O1071 Gd1040 2.327 . S
O1071 Gd1041 2.717 . S
O1071 C1059 1.257 . S
H1072 C1045 0.930 . S
H1073 C1046 0.931 . S
H1074 C1048 0.931 . S
H1075 C1049 0.931 . S
H1076 C1054 0.930 . S
H1077 C1055 0.931 . S
H1078 C1057 0.931 . S
H1079 C1058 0.931 . S
Gd1080 C1083 2.818 . S
Gd1080 O1100 2.377 . S
Gd1080 O1102 2.448 . S
Gd1080 O1103 2.506 . S
Gd1080 O1104 2.435 . S
Gd1080 O1105 2.717 . S
Gd1080 O1107 2.395 . S
Gd1080 O1111 2.327 . S
Gd1081 C1092 2.818 . S
Gd1081 O1101 2.395 . S
Gd1081 O1105 2.327 . S
Gd1081 O1106 2.377 . S
Gd1081 O1108 2.448 . S
Gd1081 O1109 2.506 . S
Gd1081 O1110 2.435 . S
Gd1081 O1111 2.717 . S
C1082 O1100 1.240 . S
C1082 O1101 1.240 . S
C1083 Gd1080 2.818 . S
C1083 C1084 1.510 . S
C1083 O1102 1.249 . S
C1083 O1103 1.252 . S
C1084 C1083 1.510 . S
C1084 C1085 1.404 . S
C1084 C1086 1.352 . S
C1085 C1084 1.404 . S
C1085 C1089 1.389 . S
C1085 H1112 0.930 . S
C1086 C1084 1.352 . S
C1086 C1088 1.374 . S
C1086 H1113 0.931 . S
C1087 C1088 1.359 . S
C1087 C1089 1.364 . S
C1088 C1086 1.374 . S
C1088 C1087 1.359 . S
C1088 H1114 0.931 . S
C1089 C1085 1.389 . S
C1089 C1087 1.364 . S
C1089 H1115 0.931 . S
C1090 O1104 1.256 . S
C1090 O1105 1.257 . S
C1091 O1106 1.240 . S
C1091 O1107 1.240 . S
C1092 Gd1081 2.818 . S
C1092 C1093 1.510 . S
C1092 O1108 1.249 . S
C1092 O1109 1.252 . S
C1093 C1092 1.510 . S
C1093 C1094 1.404 . S
C1093 C1095 1.352 . S
C1094 C1093 1.404 . S
C1094 C1098 1.389 . S
C1094 H1116 0.930 . S
C1095 C1093 1.352 . S
C1095 C1097 1.374 . S
C1095 H1117 0.931 . S
C1096 C1097 1.359 . S
C1096 C1098 1.364 . S
C1097 C1095 1.374 . S
C1097 C1096 1.359 . S
C1097 H1118 0.931 . S
C1098 C1094 1.389 . S
C1098 C1096 1.364 . S
C1098 H1119 0.931 . S
C1099 O1110 1.256 . S
C1099 O1111 1.257 . S
O1100 Gd1080 2.377 . S
O1100 C1082 1.240 . S
O1101 Gd1081 2.395 . S
O1101 C1082 1.240 . S
O1102 Gd1080 2.448 . S
O1102 C1083 1.249 . S
O1103 Gd1080 2.506 . S
O1103 C1083 1.252 . S
O1104 Gd1080 2.435 . S
O1104 C1090 1.256 . S
O1105 Gd1080 2.717 . S
O1105 Gd1081 2.327 . S
O1105 C1090 1.257 . S
O1106 Gd1081 2.377 . S
O1106 C1091 1.240 . S
O1107 Gd1080 2.395 . S
O1107 C1091 1.240 . S
O1108 Gd1081 2.448 . S
O1108 C1092 1.249 . S
O1109 Gd1081 2.506 . S
O1109 C1092 1.252 . S
O1110 Gd1081 2.435 . S
O1110 C1099 1.256 . S
O1111 Gd1080 2.327 . S
O1111 Gd1081 2.717 . S
O1111 C1099 1.257 . S
H1112 C1085 0.930 . S
H1113 C1086 0.931 . S
H1114 C1088 0.931 . S
H1115 C1089 0.931 . S
H1116 C1094 0.930 . S
H1117 C1095 0.931 . S
H1118 C1097 0.931 . S
H1119 C1098 0.931 . S
Gd1120 C1123 2.818 . S
Gd1120 O1140 2.377 . S
Gd1120 O1142 2.448 . S
Gd1120 O1143 2.506 . S
Gd1120 O1144 2.435 . S
Gd1120 O1145 2.717 . S
Gd1120 O1147 2.395 . S
Gd1120 O1151 2.327 . S
Gd1121 C1132 2.818 . S
Gd1121 O1141 2.395 . S
Gd1121 O1145 2.327 . S
Gd1121 O1146 2.377 . S
Gd1121 O1148 2.448 . S
Gd1121 O1149 2.506 . S
Gd1121 O1150 2.435 . S
Gd1121 O1151 2.717 . S
C1122 O1140 1.240 . S
C1122 O1141 1.240 . S
C1123 Gd1120 2.818 . S
C1123 C1124 1.510 . S
C1123 O1142 1.249 . S
C1123 O1143 1.252 . S
C1124 C1123 1.510 . S
C1124 C1125 1.404 . S
C1124 C1126 1.352 . S
C1125 C1124 1.404 . S
C1125 C1129 1.389 . S
C1125 H1152 0.930 . S
C1126 C1124 1.352 . S
C1126 C1128 1.374 . S
C1126 H1153 0.931 . S
C1127 C1128 1.359 . S
C1127 C1129 1.364 . S
C1128 C1126 1.374 . S
C1128 C1127 1.359 . S
C1128 H1154 0.931 . S
C1129 C1125 1.389 . S
C1129 C1127 1.364 . S
C1129 H1155 0.931 . S
C1130 O1144 1.256 . S
C1130 O1145 1.257 . S
C1131 O1146 1.240 . S
C1131 O1147 1.240 . S
C1132 Gd1121 2.818 . S
C1132 C1133 1.510 . S
C1132 O1148 1.249 . S
C1132 O1149 1.252 . S
C1133 C1132 1.510 . S
C1133 C1134 1.404 . S
C1133 C1135 1.352 . S
C1134 C1133 1.404 . S
C1134 C1138 1.389 . S
C1134 H1156 0.930 . S
C1135 C1133 1.352 . S
C1135 C1137 1.374 . S
C1135 H1157 0.931 . S
C1136 C1137 1.359 . S
C1136 C1138 1.364 . S
C1137 C1135 1.374 . S
C1137 C1136 1.359 . S
C1137 H1158 0.931 . S
C1138 C1134 1.389 . S
C1138 C1136 1.364 . S
C1138 H1159 0.931 . S
C1139 O1150 1.256 . S
C1139 O1151 1.257 . S
O1140 Gd1120 2.377 . S
O1140 C1122 1.240 . S
O1141 Gd1121 2.395 . S
O1141 C1122 1.240 . S
O1142 Gd1120 2.448 . S
O1142 C1123 1.249 . S
O1143 Gd1120 2.506 . S
O1143 C1123 1.252 . S
O1144 Gd1120 2.435 . S
O1144 C1130 1.256 . S
O1145 Gd1120 2.717 . S
O1145 Gd1121 2.327 . S
O1145 C1130 1.257 . S
O1146 Gd1121 2.377 . S
O1146 C1131 1.240 . S
O1147 Gd1120 2.395 . S
O1147 C1131 1.240 . S
O1148 Gd1121 2.448 . S
O1148 C1132 1.249 . S
O1149 Gd1121 2.506 . S
O1149 C1132 1.252 . S
O1150 Gd1121 2.435 . S
O1150 C1139 1.256 . S
O1151 Gd1120 2.327 . S
O1151 Gd1121 2.717 . S
O1151 C1139 1.257 . S
H1152 C1125 0.930 . S
H1153 C1126 0.931 . S
H1154 C1128 0.931 . S
H1155 C1129 0.931 . S
H1156 C1134 0.930 . S
H1157 C1135 0.931 . S
H1158 C1137 0.931 . S
H1159 C1138 0.931 . S
Gd1160 C1163 2.818 . S
Gd1160 O1180 2.377 . S
Gd1160 O1182 2.448 . S
Gd1160 O1183 2.506 . S
Gd1160 O1184 2.435 . S
Gd1160 O1185 2.717 . S
Gd1160 O1187 2.395 1_554 S
Gd1160 O1191 2.327 . S
Gd1161 C1172 2.818 1_554 S
Gd1161 O1181 2.395 . S
Gd1161 O1185 2.327 . S
Gd1161 O1186 2.377 1_554 S
Gd1161 O1188 2.448 1_554 S
Gd1161 O1189 2.506 1_554 S
Gd1161 O1190 2.435 . S
Gd1161 O1191 2.717 . S
C1162 O1180 1.240 . S
C1162 O1181 1.240 . S
C1163 Gd1160 2.818 . S
C1163 C1164 1.510 . S
C1163 O1182 1.249 . S
C1163 O1183 1.252 . S
C1164 C1163 1.510 . S
C1164 C1165 1.404 . S
C1164 C1166 1.352 . S
C1165 C1164 1.404 . S
C1165 C1169 1.389 . S
C1165 H1192 0.930 . S
C1166 C1164 1.352 . S
C1166 C1168 1.374 . S
C1166 H1193 0.931 . S
C1167 C1168 1.359 . S
C1167 C1169 1.364 . S
C1168 C1166 1.374 . S
C1168 C1167 1.359 . S
C1168 H1194 0.931 . S
C1169 C1165 1.389 . S
C1169 C1167 1.364 . S
C1169 H1195 0.931 . S
C1170 O1184 1.256 1_556 S
C1170 O1185 1.257 1_556 S
C1171 O1186 1.240 . S
C1171 O1187 1.240 . S
C1172 Gd1161 2.818 1_556 S
C1172 C1173 1.510 . S
C1172 O1188 1.249 . S
C1172 O1189 1.252 . S
C1173 C1172 1.510 . S
C1173 C1174 1.404 . S
C1173 C1175 1.352 . S
C1174 C1173 1.404 . S
C1174 C1178 1.389 . S
C1174 H1196 0.930 . S
C1175 C1173 1.352 . S
C1175 C1177 1.374 . S
C1175 H1197 0.931 . S
C1176 C1177 1.359 . S
C1176 C1178 1.364 . S
C1177 C1175 1.374 . S
C1177 C1176 1.359 . S
C1177 H1198 0.931 . S
C1178 C1174 1.389 . S
C1178 C1176 1.364 . S
C1178 H1199 0.931 . S
C1179 O1190 1.256 . S
C1179 O1191 1.257 . S
O1180 Gd1160 2.377 . S
O1180 C1162 1.240 . S
O1181 Gd1161 2.395 . S
O1181 C1162 1.240 . S
O1182 Gd1160 2.448 . S
O1182 C1163 1.249 . S
O1183 Gd1160 2.506 . S
O1183 C1163 1.252 . S
O1184 Gd1160 2.435 . S
O1184 C1170 1.256 1_554 S
O1185 Gd1160 2.717 . S
O1185 Gd1161 2.327 . S
O1185 C1170 1.257 1_554 S
O1186 Gd1161 2.377 1_556 S
O1186 C1171 1.240 . S
O1187 Gd1160 2.395 1_556 S
O1187 C1171 1.240 . S
O1188 Gd1161 2.448 1_556 S
O1188 C1172 1.249 . S
O1189 Gd1161 2.506 1_556 S
O1189 C1172 1.252 . S
O1190 Gd1161 2.435 . S
O1190 C1179 1.256 . S
O1191 Gd1160 2.327 . S
O1191 Gd1161 2.717 . S
O1191 C1179 1.257 . S
H1192 C1165 0.930 . S
H1193 C1166 0.931 . S
H1194 C1168 0.931 . S
H1195 C1169 0.931 . S
H1196 C1174 0.930 . S
H1197 C1175 0.931 . S
H1198 C1177 0.931 . S
H1199 C1178 0.931 . S
Gd1200 C1203 2.818 . S
Gd1200 O1220 2.377 . S
Gd1200 O1222 2.448 . S
Gd1200 O1223 2.506 . S
Gd1200 O1224 2.435 . S
Gd1200 O1225 2.717 . S
Gd1200 O1227 2.395 . S
Gd1200 O1231 2.327 . S
Gd1201 C1212 2.818 . S
Gd1201 O1221 2.395 . S
Gd1201 O1225 2.327 . S
Gd1201 O1226 2.377 . S
Gd1201 O1228 2.448 . S
Gd1201 O1229 2.506 . S
Gd1201 O1230 2.435 . S
Gd1201 O1231 2.717 . S
C1202 O1220 1.240 . S
C1202 O1221 1.240 . S
C1203 Gd1200 2.818 . S
C1203 C1204 1.510 . S
C1203 O1222 1.249 . S
C1203 O1223 1.252 . S
C1204 C1203 1.510 . S
C1204 C1205 1.404 . S
C1204 C1206 1.352 . S
C1205 C1204 1.404 . S
C1205 C1209 1.389 1_455 S
C1205 H1232 0.930 . S
C1206 C1204 1.352 . S
C1206 C1208 1.374 . S
C1206 H1233 0.931 . S
C1207 C1208 1.359 1_655 S
C1207 C1209 1.364 . S
C1208 C1206 1.374 . S
C1208 C1207 1.359 1_455 S
C1208 H1234 0.931 . S
C1209 C1205 1.389 1_655 S
C1209 C1207 1.364 . S
C1209 H1235 0.931 . S
C1210 O1224 1.256 . S
C1210 O1225 1.257 . S
C1211 O1226 1.240 . S
C1211 O1227 1.240 . S
C1212 Gd1201 2.818 . S
C1212 C1213 1.510 . S
C1212 O1228 1.249 . S
C1212 O1229 1.252 . S
C1213 C1212 1.510 . S
C1213 C1214 1.404 . S
C1213 C1215 1.352 . S
C1214 C1213 1.404 . S
C1214 C1218 1.389 . S
C1214 H1236 0.930 . S
C1215 C1213 1.352 . S
C1215 C1217 1.374 . S
C1215 H1237 0.931 . S
C1216 C1217 1.359 . S
C1216 C1218 1.364 . S
C1217 C1215 1.374 . S
C1217 C1216 1.359 . S
C1217 H1238 0.931 . S
C1218 C1214 1.389 . S
C1218 C1216 1.364 . S
C1218 H1239 0.931 . S
C1219 O1230 1.256 . S
C1219 O1231 1.257 . S
O1220 Gd1200 2.377 . S
O1220 C1202 1.240 . S
O1221 Gd1201 2.395 . S
O1221 C1202 1.240 . S
O1222 Gd1200 2.448 . S
O1222 C1203 1.249 . S
O1223 Gd1200 2.506 . S
O1223 C1203 1.252 . S
O1224 Gd1200 2.435 . S
O1224 C1210 1.256 . S
O1225 Gd1200 2.717 . S
O1225 Gd1201 2.327 . S
O1225 C1210 1.257 . S
O1226 Gd1201 2.377 . S
O1226 C1211 1.240 . S
O1227 Gd1200 2.395 . S
O1227 C1211 1.240 . S
O1228 Gd1201 2.448 . S
O1228 C1212 1.249 . S
O1229 Gd1201 2.506 . S
O1229 C1212 1.252 . S
O1230 Gd1201 2.435 . S
O1230 C1219 1.256 . S
O1231 Gd1200 2.327 . S
O1231 Gd1201 2.717 . S
O1231 C1219 1.257 . S
H1232 C1205 0.930 . S
H1233 C1206 0.931 . S
H1234 C1208 0.931 . S
H1235 C1209 0.931 . S
H1236 C1214 0.930 . S
H1237 C1215 0.931 . S
H1238 C1217 0.931 . S
H1239 C1218 0.931 . S
Gd1240 C1243 2.818 . S
Gd1240 O1260 2.377 . S
Gd1240 O1262 2.448 . S
Gd1240 O1263 2.506 . S
Gd1240 O1264 2.435 . S
Gd1240 O1265 2.717 . S
Gd1240 O1267 2.395 . S
Gd1240 O1271 2.327 . S
Gd1241 C1252 2.818 . S
Gd1241 O1261 2.395 . S
Gd1241 O1265 2.327 . S
Gd1241 O1266 2.377 . S
Gd1241 O1268 2.448 . S
Gd1241 O1269 2.506 . S
Gd1241 O1270 2.435 . S
Gd1241 O1271 2.717 . S
C1242 O1260 1.240 . S
C1242 O1261 1.240 . S
C1243 Gd1240 2.818 . S
C1243 C1244 1.510 . S
C1243 O1262 1.249 . S
C1243 O1263 1.252 . S
C1244 C1243 1.510 . S
C1244 C1245 1.404 . S
C1244 C1246 1.352 . S
C1245 C1244 1.404 . S
C1245 C1249 1.389 . S
C1245 H1272 0.930 . S
C1246 C1244 1.352 . S
C1246 C1248 1.374 . S
C1246 H1273 0.931 . S
C1247 C1248 1.359 . S
C1247 C1249 1.364 . S
C1248 C1246 1.374 . S
C1248 C1247 1.359 . S
C1248 H1274 0.931 . S
C1249 C1245 1.389 . S
C1249 C1247 1.364 . S
C1249 H1275 0.931 . S
C1250 O1264 1.256 . S
C1250 O1265 1.257 . S
C1251 O1266 1.240 . S
C1251 O1267 1.240 . S
C1252 Gd1241 2.818 . S
C1252 C1253 1.510 . S
C1252 O1268 1.249 . S
C1252 O1269 1.252 . S
C1253 C1252 1.510 . S
C1253 C1254 1.404 . S
C1253 C1255 1.352 . S
C1254 C1253 1.404 . S
C1254 C1258 1.389 . S
C1254 H1276 0.930 . S
C1255 C1253 1.352 . S
C1255 C1257 1.374 . S
C1255 H1277 0.931 . S
C1256 C1257 1.359 . S
C1256 C1258 1.364 . S
C1257 C1255 1.374 . S
C1257 C1256 1.359 . S
C1257 H1278 0.931 . S
C1258 C1254 1.389 . S
C1258 C1256 1.364 . S
C1258 H1279 0.931 . S
C1259 O1270 1.256 . S
C1259 O1271 1.257 . S
O1260 Gd1240 2.377 . S
O1260 C1242 1.240 . S
O1261 Gd1241 2.395 . S
O1261 C1242 1.240 . S
O1262 Gd1240 2.448 . S
O1262 C1243 1.249 . S
O1263 Gd1240 2.506 . S
O1263 C1243 1.252 . S
O1264 Gd1240 2.435 . S
O1264 C1250 1.256 . S
O1265 Gd1240 2.717 . S
O1265 Gd1241 2.327 . S
O1265 C1250 1.257 . S
O1266 Gd1241 2.377 . S
O1266 C1251 1.240 . S
O1267 Gd1240 2.395 . S
O1267 C1251 1.240 . S
O1268 Gd1241 2.448 . S
O1268 C1252 1.249 . S
O1269 Gd1241 2.506 . S
O1269 C1252 1.252 . S
O1270 Gd1241 2.435 . S
O1270 C1259 1.256 . S
O1271 Gd1240 2.327 . S
O1271 Gd1241 2.717 . S
O1271 C1259 1.257 . S
H1272 C1245 0.930 . S
H1273 C1246 0.931 . S
H1274 C1248 0.931 . S
H1275 C1249 0.931 . S
H1276 C1254 0.930 . S
H1277 C1255 0.931 . S
H1278 C1257 0.931 . S
H1279 C1258 0.931 . S
C1280 C1281 1.369 . S
C1280 C1282 1.419 . S
C1280 H1284 0.930 . S
C1281 C1280 1.369 . S
C1281 C1290 1.429 . S
C1282 C1280 1.419 . S
C1282 C1283 1.363 . S
C1282 H1285 0.929 . S
C1283 C1282 1.363 . S
C1283 C1289 1.428 . S
H1284 C1280 0.930 . S
H1285 C1282 0.929 . S
S1286 N1287 1.613 . S
S1286 N1288 1.610 . S
N1287 S1286 1.613 . S
N1287 C1290 1.350 . S
N1288 S1286 1.610 . S
N1288 C1289 1.351 . S
C1289 C1283 1.428 . S
C1289 N1288 1.351 . S
C1289 C1290 1.434 . S
C1290 C1281 1.429 . S
C1290 N1287 1.350 . S
C1290 C1289 1.434 . S
C1291 C1292 1.369 . S
C1291 C1293 1.419 . S
C1291 H1295 0.930 . S
C1292 C1291 1.369 . S
C1292 C1301 1.429 . S
C1293 C1291 1.419 . S
C1293 C1294 1.363 . S
C1293 H1296 0.929 . S
C1294 C1293 1.363 . S
C1294 C1300 1.428 . S
H1295 C1291 0.930 . S
H1296 C1293 0.929 . S
S1297 N1298 1.613 . S
S1297 N1299 1.610 . S
N1298 S1297 1.613 . S
N1298 C1301 1.350 . S
N1299 S1297 1.610 . S
N1299 C1300 1.351 . S
C1300 C1294 1.428 . S
C1300 N1299 1.351 . S
C1300 C1301 1.434 . S
C1301 C1292 1.429 . S
C1301 N1298 1.350 . S
C1301 C1300 1.434 . S
C1302 C1303 1.369 . S
C1302 C1304 1.419 . S
C1302 H1306 0.930 . S
C1303 C1302 1.369 . S
C1303 C1312 1.429 . S
C1304 C1302 1.419 . S
C1304 C1305 1.363 . S
C1304 H1307 0.929 . S
C1305 C1304 1.363 . S
C1305 C1311 1.428 . S
H1306 C1302 0.930 . S
H1307 C1304 0.929 . S
S1308 N1309 1.613 . S
S1308 N1310 1.610 . S
N1309 S1308 1.613 . S
N1309 C1312 1.350 . S
N1310 S1308 1.610 . S
N1310 C1311 1.351 . S
C1311 C1305 1.428 . S
C1311 N1310 1.351 . S
C1311 C1312 1.434 . S
C1312 C1303 1.429 . S
C1312 N1309 1.350 . S
C1312 C1311 1.434 . S
C1313 C1314 1.369 . S
C1313 C1315 1.419 . S
C1313 H1317 0.930 . S
C1314 C1313 1.369 . S
C1314 C1323 1.429 . S
C1315 C1313 1.419 . S
C1315 C1316 1.363 . S
C1315 H1318 0.929 . S
C1316 C1315 1.363 . S
C1316 C1322 1.428 . S
H1317 C1313 0.930 . S
H1318 C1315 0.929 . S
S1319 N1320 1.613 . S
S1319 N1321 1.610 . S
N1320 S1319 1.613 . S
N1320 C1323 1.350 . S
N1321 S1319 1.610 . S
N1321 C1322 1.351 . S
C1322 C1316 1.428 . S
C1322 N1321 1.351 . S
C1322 C1323 1.434 . S
C1323 C1314 1.429 . S
C1323 N1320 1.350 . S
C1323 C1322 1.434 . S
C1324 C1325 1.369 . S
C1324 C1326 1.419 . S
C1324 H1328 0.930 . S
C1325 C1324 1.369 . S
C1325 C1334 1.429 . S
C1326 C1324 1.419 . S
C1326 C1327 1.363 . S
C1326 H1329 0.929 . S
C1327 C1326 1.363 . S
C1327 C1333 1.428 . S
H1328 C1324 0.930 . S
H1329 C1326 0.929 . S
S1330 N1331 1.613 . S
S1330 N1332 1.610 . S
N1331 S1330 1.613 . S
N1331 C1334 1.350 . S
N1332 S1330 1.610 . S
N1332 C1333 1.351 . S
C1333 C1327 1.428 . S
C1333 N1332 1.351 . S
C1333 C1334 1.434 . S
C1334 C1325 1.429 . S
C1334 N1331 1.350 . S
C1334 C1333 1.434 . S
C1335 C1336 1.369 . S
C1335 C1337 1.419 . S
C1335 H1339 0.930 . S
C1336 C1335 1.369 . S
C1336 C1345 1.429 . S
C1337 C1335 1.419 . S
C1337 C1338 1.363 . S
C1337 H1340 0.929 . S
C1338 C1337 1.363 . S
C1338 C1344 1.428 . S
H1339 C1335 0.930 . S
H1340 C1337 0.929 . S
S1341 N1342 1.613 . S
S1341 N1343 1.610 . S
N1342 S1341 1.613 . S
N1342 C1345 1.350 . S
N1343 S1341 1.610 . S
N1343 C1344 1.351 . S
C1344 C1338 1.428 . S
C1344 N1343 1.351 . S
C1344 C1345 1.434 . S
C1345 C1336 1.429 . S
C1345 N1342 1.350 . S
C1345 C1344 1.434 . S
C1346 C1347 1.369 . S
C1346 C1348 1.419 . S
C1346 H1350 0.930 . S
C1347 C1346 1.369 . S
C1347 C1356 1.429 . S
C1348 C1346 1.419 . S
C1348 C1349 1.363 . S
C1348 H1351 0.929 . S
C1349 C1348 1.363 . S
C1349 C1355 1.428 . S
H1350 C1346 0.930 . S
H1351 C1348 0.929 . S
S1352 N1353 1.613 . S
S1352 N1354 1.610 . S
N1353 S1352 1.613 . S
N1353 C1356 1.350 . S
N1354 S1352 1.610 . S
N1354 C1355 1.351 . S
C1355 C1349 1.428 . S
C1355 N1354 1.351 . S
C1355 C1356 1.434 . S
C1356 C1347 1.429 . S
C1356 N1353 1.350 . S
C1356 C1355 1.434 . S
C1357 C1358 1.369 . S
C1357 C1359 1.419 . S
C1357 H1361 0.930 . S
C1358 C1357 1.369 . S
C1358 C1367 1.429 . S
C1359 C1357 1.419 . S
C1359 C1360 1.363 . S
C1359 H1362 0.929 . S
C1360 C1359 1.363 . S
C1360 C1366 1.428 . S
H1361 C1357 0.930 . S
H1362 C1359 0.929 . S
S1363 N1364 1.612 . S
S1363 N1365 1.610 1_565 S
N1364 S1363 1.612 . S
N1364 C1367 1.350 . S
N1365 S1363 1.610 1_545 S
N1365 C1366 1.351 1_545 S
C1366 C1360 1.428 . S
C1366 N1365 1.351 1_565 S
C1366 C1367 1.434 . S
C1367 C1358 1.429 . S
C1367 N1364 1.350 . S
C1367 C1366 1.434 . S
C1368 C1369 1.369 . S
C1368 C1370 1.419 . S
C1368 H1372 0.930 . S
C1369 C1368 1.369 . S
C1369 C1378 1.429 . S
C1370 C1368 1.419 . S
C1370 C1371 1.363 . S
C1370 H1373 0.929 . S
C1371 C1370 1.363 . S
C1371 C1377 1.428 . S
H1372 C1368 0.930 . S
H1373 C1370 0.929 . S
S1374 N1375 1.613 . S
S1374 N1376 1.610 . S
N1375 S1374 1.613 . S
N1375 C1378 1.350 . S
N1376 S1374 1.610 . S
N1376 C1377 1.351 . S
C1377 C1371 1.428 . S
C1377 N1376 1.351 . S
C1377 C1378 1.434 . S
C1378 C1369 1.429 . S
C1378 N1375 1.350 . S
C1378 C1377 1.434 . S
C1379 C1380 1.369 . S
C1379 C1381 1.419 . S
C1379 H1383 0.930 . S
C1380 C1379 1.369 . S
C1380 C1389 1.429 . S
C1381 C1379 1.419 . S
C1381 C1382 1.363 . S
C1381 H1384 0.929 . S
C1382 C1381 1.363 . S
C1382 C1388 1.428 . S
H1383 C1379 0.930 . S
H1384 C1381 0.929 . S
S1385 N1386 1.613 1_565 S
S1385 N1387 1.610 . S
N1386 S1385 1.613 1_545 S
N1386 C1389 1.350 1_545 S
N1387 S1385 1.610 . S
N1387 C1388 1.351 . S
C1388 C1382 1.428 . S
C1388 N1387 1.351 . S
C1388 C1389 1.434 . S
C1389 C1380 1.429 . S
C1389 N1386 1.350 1_565 S
C1389 C1388 1.434 . S
C1390 C1391 1.369 . S
C1390 C1392 1.419 . S
C1390 H1394 0.930 . S
C1391 C1390 1.369 . S
C1391 C1400 1.429 . S
C1392 C1390 1.419 . S
C1392 C1393 1.363 . S
C1392 H1395 0.929 . S
C1393 C1392 1.363 . S
C1393 C1399 1.428 . S
H1394 C1390 0.930 . S
H1395 C1392 0.929 . S
S1396 N1397 1.613 . S
S1396 N1398 1.610 . S
N1397 S1396 1.613 . S
N1397 C1400 1.350 . S
N1398 S1396 1.610 . S
N1398 C1399 1.351 . S
C1399 C1393 1.428 . S
C1399 N1398 1.351 . S
C1399 C1400 1.434 . S
C1400 C1391 1.429 . S
C1400 N1397 1.350 . S
C1400 C1399 1.434 . S
C1401 C1402 1.369 . S
C1401 C1403 1.419 . S
C1401 H1405 0.930 . S
C1402 C1401 1.369 . S
C1402 C1411 1.429 . S
C1403 C1401 1.419 . S
C1403 C1404 1.363 . S
C1403 H1406 0.929 . S
C1404 C1403 1.363 . S
C1404 C1410 1.428 . S
H1405 C1401 0.930 . S
H1406 C1403 0.929 . S
S1407 N1408 1.613 . S
S1407 N1409 1.610 . S
N1408 S1407 1.613 . S
N1408 C1411 1.350 . S
N1409 S1407 1.610 . S
N1409 C1410 1.351 . S
C1410 C1404 1.428 . S
C1410 N1409 1.351 . S
C1410 C1411 1.434 . S
C1411 C1402 1.429 . S
C1411 N1408 1.350 . S
C1411 C1410 1.434 . S
C1412 C1413 1.369 . S
C1412 C1414 1.419 . S
C1412 H1416 0.930 . S
C1413 C1412 1.369 . S
C1413 C1422 1.429 . S
C1414 C1412 1.419 . S
C1414 C1415 1.363 . S
C1414 H1417 0.929 . S
C1415 C1414 1.363 . S
C1415 C1421 1.428 . S
H1416 C1412 0.930 . S
H1417 C1414 0.929 . S
S1418 N1419 1.613 . S
S1418 N1420 1.610 . S
N1419 S1418 1.613 . S
N1419 C1422 1.350 . S
N1420 S1418 1.610 . S
N1420 C1421 1.351 . S
C1421 C1415 1.428 . S
C1421 N1420 1.351 . S
C1421 C1422 1.434 . S
C1422 C1413 1.429 . S
C1422 N1419 1.350 . S
C1422 C1421 1.434 . S
C1423 C1424 1.369 . S
C1423 C1425 1.419 . S
C1423 H1427 0.930 . S
C1424 C1423 1.369 . S
C1424 C1433 1.429 . S
C1425 C1423 1.419 . S
C1425 C1426 1.363 . S
C1425 H1428 0.929 . S
C1426 C1425 1.363 . S
C1426 C1432 1.428 . S
H1427 C1423 0.930 . S
H1428 C1425 0.929 . S
S1429 N1430 1.616 . S
S1429 N1431 1.574 1_545 S
N1430 S1429 1.616 . S
N1430 C1433 1.350 1_545 S
N1431 S1429 1.574 1_565 S
N1431 C1432 1.351 . S
C1432 C1426 1.428 . S
C1432 N1431 1.351 . S
C1432 C1433 1.434 . S
C1433 C1424 1.429 . S
C1433 N1430 1.350 1_565 S
C1433 C1432 1.434 . S
C1434 C1435 1.369 . S
C1434 C1436 1.419 . S
C1434 H1438 0.930 . S
C1435 C1434 1.369 . S
C1435 C1444 1.429 . S
C1436 C1434 1.419 . S
C1436 C1437 1.363 . S
C1436 H1439 0.929 . S
C1437 C1436 1.363 . S
C1437 C1443 1.428 . S
H1438 C1434 0.930 . S
H1439 C1436 0.929 . S
S1440 N1441 1.613 . S
S1440 N1442 1.610 . S
N1441 S1440 1.613 . S
N1441 C1444 1.350 . S
N1442 S1440 1.610 . S
N1442 C1443 1.351 . S
C1443 C1437 1.428 . S
C1443 N1442 1.351 . S
C1443 C1444 1.434 . S
C1444 C1435 1.429 . S
C1444 N1441 1.350 . S
C1444 C1443 1.434 . S
C1445 C1446 1.369 . S
C1445 C1447 1.419 . S
C1445 H1449 0.930 . S
C1446 C1445 1.369 . S
C1446 C1455 1.429 . S
C1447 C1445 1.419 . S
C1447 C1448 1.363 . S
C1447 H1450 0.929 . S
C1448 C1447 1.363 . S
C1448 C1454 1.428 . S
H1449 C1445 0.930 . S
H1450 C1447 0.929 . S
S1451 N1452 1.613 . S
S1451 N1453 1.610 . S
N1452 S1451 1.613 . S
N1452 C1455 1.350 . S
N1453 S1451 1.610 . S
N1453 C1454 1.351 . S
C1454 C1448 1.428 . S
C1454 N1453 1.351 . S
C1454 C1455 1.434 . S
C1455 C1446 1.429 . S
C1455 N1452 1.350 . S
C1455 C1454 1.434 . S
C1456 C1457 1.369 . S
C1456 C1458 1.419 . S
C1456 H1460 0.930 . S
C1457 C1456 1.369 . S
C1457 C1466 1.429 . S
C1458 C1456 1.419 . S
C1458 C1459 1.363 . S
C1458 H1461 0.929 . S
C1459 C1458 1.363 . S
C1459 C1465 1.428 . S
H1460 C1456 0.930 . S
H1461 C1458 0.929 . S
S1462 N1463 1.613 . S
S1462 N1464 1.610 . S
N1463 S1462 1.613 . S
N1463 C1466 1.350 . S
N1464 S1462 1.610 . S
N1464 C1465 1.351 . S
C1465 C1459 1.428 . S
C1465 N1464 1.351 . S
C1465 C1466 1.434 . S
C1466 C1457 1.429 . S
C1466 N1463 1.350 . S
C1466 C1465 1.434 . S
C1467 C1468 1.369 . S
C1467 C1469 1.419 . S
C1467 H1471 0.930 . S
C1468 C1467 1.369 . S
C1468 C1477 1.429 . S
C1469 C1467 1.419 . S
C1469 C1470 1.363 . S
C1469 H1472 0.929 . S
C1470 C1469 1.363 . S
C1470 C1476 1.428 . S
H1471 C1467 0.930 . S
H1472 C1469 0.929 . S
S1473 N1474 1.613 . S
S1473 N1475 1.610 . S
N1474 S1473 1.613 . S
N1474 C1477 1.350 . S
N1475 S1473 1.610 . S
N1475 C1476 1.351 . S
C1476 C1470 1.428 . S
C1476 N1475 1.351 . S
C1476 C1477 1.434 . S
C1477 C1468 1.429 . S
C1477 N1474 1.350 . S
C1477 C1476 1.434 . S
C1478 C1479 1.369 . S
C1478 C1480 1.419 . S
C1478 H1482 0.930 . S
C1479 C1478 1.369 . S
C1479 C1488 1.429 . S
C1480 C1478 1.419 . S
C1480 C1481 1.363 . S
C1480 H1483 0.929 . S
C1481 C1480 1.363 . S
C1481 C1487 1.428 . S
H1482 C1478 0.930 . S
H1483 C1480 0.929 . S
S1484 N1485 1.613 . S
S1484 N1486 1.610 . S
N1485 S1484 1.613 . S
N1485 C1488 1.350 . S
N1486 S1484 1.610 . S
N1486 C1487 1.351 . S
C1487 C1481 1.428 . S
C1487 N1486 1.351 . S
C1487 C1488 1.434 . S
C1488 C1479 1.429 . S
C1488 N1485 1.350 . S
C1488 C1487 1.434 . S
C1489 C1490 1.369 . S
C1489 C1491 1.419 . S
C1489 H1493 0.930 . S
C1490 C1489 1.369 . S
C1490 C1499 1.429 . S
C1491 C1489 1.419 . S
C1491 C1492 1.363 . S
C1491 H1494 0.929 . S
C1492 C1491 1.363 . S
C1492 C1498 1.428 . S
H1493 C1489 0.930 . S
H1494 C1491 0.929 . S
S1495 N1496 1.613 . S
S1495 N1497 1.610 . S
N1496 S1495 1.613 . S
N1496 C1499 1.350 . S
N1497 S1495 1.610 . S
N1497 C1498 1.351 . S
C1498 C1492 1.428 . S
C1498 N1497 1.351 . S
C1498 C1499 1.434 . S
C1499 C1490 1.429 . S
C1499 N1496 1.350 . S
C1499 C1498 1.434 . S
C1500 C1501 1.369 . S
C1500 C1502 1.419 . S
C1500 H1504 0.930 . S
C1501 C1500 1.369 . S
C1501 C1510 1.429 . S
C1502 C1500 1.419 . S
C1502 C1503 1.363 . S
C1502 H1505 0.929 . S
C1503 C1502 1.363 . S
C1503 C1509 1.428 . S
H1504 C1500 0.930 . S
H1505 C1502 0.929 . S
S1506 N1507 1.613 . S
S1506 N1508 1.610 . S
N1507 S1506 1.613 . S
N1507 C1510 1.350 . S
N1508 S1506 1.610 . S
N1508 C1509 1.351 . S
C1509 C1503 1.428 . S
C1509 N1508 1.351 . S
C1509 C1510 1.434 . S
C1510 C1501 1.429 . S
C1510 N1507 1.350 . S
C1510 C1509 1.434 . S
C1511 C1512 1.369 . S
C1511 C1513 1.419 . S
C1511 H1515 0.930 . S
C1512 C1511 1.369 . S
C1512 C1521 1.429 . S
C1513 C1511 1.419 . S
C1513 C1514 1.363 . S
C1513 H1516 0.929 . S
C1514 C1513 1.363 . S
C1514 C1520 1.428 . S
H1515 C1511 0.930 . S
H1516 C1513 0.929 . S
S1517 N1518 1.613 . S
S1517 N1519 1.610 . S
N1518 S1517 1.613 . S
N1518 C1521 1.350 . S
N1519 S1517 1.610 . S
N1519 C1520 1.351 . S
C1520 C1514 1.428 . S
C1520 N1519 1.351 . S
C1520 C1521 1.434 . S
C1521 C1512 1.429 . S
C1521 N1518 1.350 . S
C1521 C1520 1.434 . S
C1522 C1523 1.369 . S
C1522 C1524 1.419 . S
C1522 H1526 0.930 . S
C1523 C1522 1.369 . S
C1523 C1532 1.429 . S
C1524 C1522 1.419 . S
C1524 C1525 1.363 . S
C1524 H1527 0.929 . S
C1525 C1524 1.363 . S
C1525 C1531 1.428 . S
H1526 C1522 0.930 . S
H1527 C1524 0.929 . S
S1528 N1529 1.613 . S
S1528 N1530 1.610 . S
N1529 S1528 1.613 . S
N1529 C1532 1.350 . S
N1530 S1528 1.610 . S
N1530 C1531 1.351 . S
C1531 C1525 1.428 . S
C1531 N1530 1.351 . S
C1531 C1532 1.434 . S
C1532 C1523 1.429 . S
C1532 N1529 1.350 . S
C1532 C1531 1.434 . S
C1533 C1534 1.369 . S
C1533 C1535 1.419 . S
C1533 H1537 0.930 . S
C1534 C1533 1.369 . S
C1534 C1543 1.429 . S
C1535 C1533 1.419 . S
C1535 C1536 1.363 . S
C1535 H1538 0.929 . S
C1536 C1535 1.363 . S
C1536 C1542 1.428 . S
H1537 C1533 0.930 . S
H1538 C1535 0.929 . S
S1539 N1540 1.613 . S
S1539 N1541 1.610 . S
N1540 S1539 1.613 . S
N1540 C1543 1.350 . S
N1541 S1539 1.610 . S
N1541 C1542 1.351 . S
C1542 C1536 1.428 . S
C1542 N1541 1.351 . S
C1542 C1543 1.434 . S
C1543 C1534 1.429 . S
C1543 N1540 1.350 . S
C1543 C1542 1.434 . S
C1544 C1545 1.369 . S
C1544 C1546 1.419 . S
C1544 H1548 0.930 . S
C1545 C1544 1.369 . S
C1545 C1554 1.429 . S
C1546 C1544 1.419 . S
C1546 C1547 1.363 . S
C1546 H1549 0.929 . S
C1547 C1546 1.363 . S
C1547 C1553 1.428 . S
H1548 C1544 0.930 . S
H1549 C1546 0.929 . S
S1550 N1551 1.613 . S
S1550 N1552 1.610 . S
N1551 S1550 1.613 . S
N1551 C1554 1.350 . S
N1552 S1550 1.610 . S
N1552 C1553 1.351 . S
C1553 C1547 1.428 . S
C1553 N1552 1.351 . S
C1553 C1554 1.434 . S
C1554 C1545 1.429 . S
C1554 N1551 1.350 . S
C1554 C1553 1.434 . S
C1555 C1556 1.369 . S
C1555 C1557 1.419 . S
C1555 H1559 0.930 . S
C1556 C1555 1.369 . S
C1556 C1565 1.429 . S
C1557 C1555 1.419 . S
C1557 C1558 1.363 . S
C1557 H1560 0.929 . S
C1558 C1557 1.363 . S
C1558 C1564 1.428 . S
H1559 C1555 0.930 . S
H1560 C1557 0.929 . S
S1561 N1562 1.613 . S
S1561 N1563 1.610 . S
N1562 S1561 1.613 . S
N1562 C1565 1.350 . S
N1563 S1561 1.610 . S
N1563 C1564 1.351 . S
C1564 C1558 1.428 . S
C1564 N1563 1.351 . S
C1564 C1565 1.434 . S
C1565 C1556 1.429 . S
C1565 N1562 1.350 . S
C1565 C1564 1.434 . S
C1566 C1567 1.369 . S
C1566 C1568 1.419 . S
C1566 H1570 0.930 . S
C1567 C1566 1.369 . S
C1567 C1576 1.429 . S
C1568 C1566 1.419 . S
C1568 C1569 1.363 . S
C1568 H1571 0.929 . S
C1569 C1568 1.363 . S
C1569 C1575 1.428 . S
H1570 C1566 0.930 . S
H1571 C1568 0.929 . S
S1572 N1573 1.613 . S
S1572 N1574 1.610 . S
N1573 S1572 1.613 . S
N1573 C1576 1.350 . S
N1574 S1572 1.610 . S
N1574 C1575 1.351 . S
C1575 C1569 1.428 . S
C1575 N1574 1.351 . S
C1575 C1576 1.434 . S
C1576 C1567 1.429 . S
C1576 N1573 1.350 . S
C1576 C1575 1.434 . S
C1577 C1578 1.369 . S
C1577 C1579 1.419 . S
C1577 H1581 0.930 . S
C1578 C1577 1.369 . S
C1578 C1587 1.429 . S
C1579 C1577 1.419 . S
C1579 C1580 1.363 . S
C1579 H1582 0.929 . S
C1580 C1579 1.363 . S
C1580 C1586 1.428 . S
H1581 C1577 0.930 . S
H1582 C1579 0.929 . S
S1583 N1584 1.613 . S
S1583 N1585 1.610 . S
N1584 S1583 1.613 . S
N1584 C1587 1.350 . S
N1585 S1583 1.610 . S
N1585 C1586 1.351 . S
C1586 C1580 1.428 . S
C1586 N1585 1.351 . S
C1586 C1587 1.434 . S
C1587 C1578 1.429 . S
C1587 N1584 1.350 . S
C1587 C1586 1.434 . S
C1588 C1589 1.369 . S
C1588 C1590 1.419 . S
C1588 H1592 0.930 . S
C1589 C1588 1.369 . S
C1589 C1598 1.429 . S
C1590 C1588 1.419 . S
C1590 C1591 1.363 . S
C1590 H1593 0.929 . S
C1591 C1590 1.363 . S
C1591 C1597 1.428 . S
H1592 C1588 0.930 . S
H1593 C1590 0.929 . S
S1594 N1595 1.613 . S
S1594 N1596 1.610 . S
N1595 S1594 1.613 . S
N1595 C1598 1.350 . S
N1596 S1594 1.610 . S
N1596 C1597 1.351 . S
C1597 C1591 1.428 . S
C1597 N1596 1.351 . S
C1597 C1598 1.434 . S
C1598 C1589 1.429 . S
C1598 N1595 1.350 . S
C1598 C1597 1.434 . S
C1599 C1600 1.369 . S
C1599 C1601 1.419 . S
C1599 H1603 0.930 . S
C1600 C1599 1.369 . S
C1600 C1609 1.429 . S
C1601 C1599 1.419 . S
C1601 C1602 1.363 . S
C1601 H1604 0.929 . S
C1602 C1601 1.363 . S
C1602 C1608 1.428 . S
H1603 C1599 0.930 . S
H1604 C1601 0.929 . S
S1605 N1606 1.613 . S
S1605 N1607 1.610 . S
N1606 S1605 1.613 . S
N1606 C1609 1.350 . S
N1607 S1605 1.610 . S
N1607 C1608 1.351 . S
C1608 C1602 1.428 . S
C1608 N1607 1.351 . S
C1608 C1609 1.434 . S
C1609 C1600 1.429 . S
C1609 N1606 1.350 . S
C1609 C1608 1.434 . S
C1610 C1611 1.369 . S
C1610 C1612 1.419 . S
C1610 H1614 0.930 . S
C1611 C1610 1.369 . S
C1611 C1620 1.429 . S
C1612 C1610 1.419 . S
C1612 C1613 1.363 . S
C1612 H1615 0.929 . S
C1613 C1612 1.363 . S
C1613 C1619 1.428 . S
H1614 C1610 0.930 . S
H1615 C1612 0.929 . S
S1616 N1617 1.613 . S
S1616 N1618 1.610 . S
N1617 S1616 1.613 . S
N1617 C1620 1.350 . S
N1618 S1616 1.610 . S
N1618 C1619 1.351 . S
C1619 C1613 1.428 . S
C1619 N1618 1.351 . S
C1619 C1620 1.434 . S
C1620 C1611 1.429 . S
C1620 N1617 1.350 . S
C1620 C1619 1.434 . S
C1621 C1622 1.369 . S
C1621 C1623 1.419 . S
C1621 H1625 0.930 . S
C1622 C1621 1.369 . S
C1622 C1631 1.429 . S
C1623 C1621 1.419 . S
C1623 C1624 1.363 . S
C1623 H1626 0.929 . S
C1624 C1623 1.363 . S
C1624 C1630 1.428 . S
H1625 C1621 0.930 . S
H1626 C1623 0.929 . S
S1627 N1628 1.613 . S
S1627 N1629 1.610 . S
N1628 S1627 1.613 . S
N1628 C1631 1.350 . S
N1629 S1627 1.610 . S
N1629 C1630 1.351 . S
C1630 C1624 1.428 . S
C1630 N1629 1.351 . S
C1630 C1631 1.434 . S
C1631 C1622 1.429 . S
C1631 N1628 1.350 . S
C1631 C1630 1.434 . S
C1632 C1633 1.369 . S
C1632 C1634 1.419 . S
C1632 H1636 0.930 . S
C1633 C1632 1.369 . S
C1633 C1642 1.429 . S
C1634 C1632 1.419 . S
C1634 C1635 1.363 . S
C1634 H1637 0.929 . S
C1635 C1634 1.363 . S
C1635 C1641 1.428 . S
H1636 C1632 0.930 . S
H1637 C1634 0.929 . S
S1638 N1639 1.613 . S
S1638 N1640 1.610 . S
N1639 S1638 1.613 . S
N1639 C1642 1.350 . S
N1640 S1638 1.610 . S
N1640 C1641 1.351 . S
C1641 C1635 1.428 . S
C1641 N1640 1.351 . S
C1641 C1642 1.434 . S
C1642 C1633 1.429 . S
C1642 N1639 1.350 . S
C1642 C1641 1.434 . S
C1643 C1644 1.369 . S
C1643 C1645 1.419 . S
C1643 H1647 0.930 . S
C1644 C1643 1.369 . S
C1644 C1653 1.429 . S
C1645 C1643 1.419 . S
C1645 C1646 1.363 . S
C1645 H1648 0.929 . S
C1646 C1645 1.363 . S
C1646 C1652 1.428 . S
H1647 C1643 0.930 . S
H1648 C1645 0.929 . S
S1649 N1650 1.613 . S
S1649 N1651 1.610 . S
N1650 S1649 1.613 . S
N1650 C1653 1.350 . S
N1651 S1649 1.610 . S
N1651 C1652 1.351 . S
C1652 C1646 1.428 . S
C1652 N1651 1.351 . S
C1652 C1653 1.434 . S
C1653 C1644 1.429 . S
C1653 N1650 1.350 . S
C1653 C1652 1.434 . S
C1654 C1655 1.369 . S
C1654 C1656 1.419 . S
C1654 H1658 0.930 . S
C1655 C1654 1.369 . S
C1655 C1664 1.429 . S
C1656 C1654 1.419 . S
C1656 C1657 1.363 . S
C1656 H1659 0.929 . S
C1657 C1656 1.363 . S
C1657 C1663 1.428 . S
H1658 C1654 0.930 . S
H1659 C1656 0.929 . S
S1660 N1661 1.613 . S
S1660 N1662 1.610 . S
N1661 S1660 1.613 . S
N1661 C1664 1.350 . S
N1662 S1660 1.610 . S
N1662 C1663 1.351 . S
C1663 C1657 1.428 . S
C1663 N1662 1.351 . S
C1663 C1664 1.434 . S
C1664 C1655 1.429 . S
C1664 N1661 1.350 . S
C1664 C1663 1.434 . S
C1665 C1666 1.369 . S
C1665 C1667 1.419 . S
C1665 H1669 0.930 . S
C1666 C1665 1.369 . S
C1666 C1675 1.429 . S
C1667 C1665 1.419 . S
C1667 C1668 1.363 . S
C1667 H1670 0.929 . S
C1668 C1667 1.363 . S
C1668 C1674 1.428 . S
H1669 C1665 0.930 . S
H1670 C1667 0.929 . S
S1671 N1672 1.613 . S
S1671 N1673 1.610 . S
N1672 S1671 1.613 . S
N1672 C1675 1.350 . S
N1673 S1671 1.610 . S
N1673 C1674 1.351 . S
C1674 C1668 1.428 . S
C1674 N1673 1.351 . S
C1674 C1675 1.434 . S
C1675 C1666 1.429 . S
C1675 N1672 1.350 . S
C1675 C1674 1.434 . S
C1676 C1677 1.369 . S
C1676 C1678 1.419 . S
C1676 H1680 0.930 . S
C1677 C1676 1.369 . S
C1677 C1686 1.429 . S
C1678 C1676 1.419 . S
C1678 C1679 1.363 . S
C1678 H1681 0.929 . S
C1679 C1678 1.363 . S
C1679 C1685 1.428 . S
H1680 C1676 0.930 . S
H1681 C1678 0.929 . S
S1682 N1683 1.613 . S
S1682 N1684 1.610 . S
N1683 S1682 1.613 . S
N1683 C1686 1.350 . S
N1684 S1682 1.610 . S
N1684 C1685 1.351 . S
C1685 C1679 1.428 . S
C1685 N1684 1.351 . S
C1685 C1686 1.434 . S
C1686 C1677 1.429 . S
C1686 N1683 1.350 . S
C1686 C1685 1.434 . S
C1687 C1688 1.369 . S
C1687 C1689 1.419 . S
C1687 H1691 0.930 . S
C1688 C1687 1.369 . S
C1688 C1697 1.429 . S
C1689 C1687 1.419 . S
C1689 C1690 1.363 . S
C1689 H1692 0.929 . S
C1690 C1689 1.363 . S
C1690 C1696 1.428 . S
H1691 C1687 0.930 . S
H1692 C1689 0.929 . S
S1693 N1694 1.613 . S
S1693 N1695 1.610 . S
N1694 S1693 1.613 . S
N1694 C1697 1.350 . S
N1695 S1693 1.610 . S
N1695 C1696 1.351 . S
C1696 C1690 1.428 . S
C1696 N1695 1.351 . S
C1696 C1697 1.434 . S
C1697 C1688 1.429 . S
C1697 N1694 1.350 . S
C1697 C1696 1.434 . S
C1698 C1699 1.369 . S
C1698 C1700 1.419 . S
C1698 H1702 0.930 . S
C1699 C1698 1.369 . S
C1699 C1708 1.429 . S
C1700 C1698 1.419 . S
C1700 C1701 1.363 . S
C1700 H1703 0.929 . S
C1701 C1700 1.363 . S
C1701 C1707 1.428 . S
H1702 C1698 0.930 . S
H1703 C1700 0.929 . S
S1704 N1705 1.613 . S
S1704 N1706 1.610 . S
N1705 S1704 1.613 . S
N1705 C1708 1.350 . S
N1706 S1704 1.610 . S
N1706 C1707 1.351 . S
C1707 C1701 1.428 . S
C1707 N1706 1.351 . S
C1707 C1708 1.434 . S
C1708 C1699 1.429 . S
C1708 N1705 1.350 . S
C1708 C1707 1.434 . S
C1709 C1710 1.369 . S
C1709 C1711 1.419 . S
C1709 H1713 0.930 . S
C1710 C1709 1.369 . S
C1710 C1719 1.429 . S
C1711 C1709 1.419 . S
C1711 C1712 1.363 . S
C1711 H1714 0.929 . S
C1712 C1711 1.363 . S
C1712 C1718 1.428 . S
H1713 C1709 0.930 . S
H1714 C1711 0.929 . S
S1715 N1716 1.613 . S
S1715 N1717 1.610 . S
N1716 S1715 1.613 . S
N1716 C1719 1.350 . S
N1717 S1715 1.610 . S
N1717 C1718 1.351 . S
C1718 C1712 1.428 . S
C1718 N1717 1.351 . S
C1718 C1719 1.434 . S
C1719 C1710 1.429 . S
C1719 N1716 1.350 . S
C1719 C1718 1.434 . S
C1720 C1721 1.369 . S
C1720 C1722 1.419 . S
C1720 H1724 0.930 . S
C1721 C1720 1.369 . S
C1721 C1730 1.429 . S
C1722 C1720 1.419 . S
C1722 C1723 1.363 . S
C1722 H1725 0.929 . S
C1723 C1722 1.363 . S
C1723 C1729 1.428 . S
H1724 C1720 0.930 . S
H1725 C1722 0.929 . S
S1726 N1727 1.613 . S
S1726 N1728 1.610 . S
N1727 S1726 1.613 . S
N1727 C1730 1.350 . S
N1728 S1726 1.610 . S
N1728 C1729 1.351 . S
C1729 C1723 1.428 . S
C1729 N1728 1.351 . S
C1729 C1730 1.434 . S
C1730 C1721 1.429 . S
C1730 N1727 1.350 . S
C1730 C1729 1.434 . S
C1731 C1732 1.369 . S
C1731 C1733 1.419 . S
C1731 H1735 0.930 . S
C1732 C1731 1.369 . S
C1732 C1741 1.429 . S
C1733 C1731 1.419 . S
C1733 C1734 1.363 . S
C1733 H1736 0.929 . S
C1734 C1733 1.363 . S
C1734 C1740 1.428 . S
H1735 C1731 0.930 . S
H1736 C1733 0.929 . S
S1737 N1738 1.613 . S
S1737 N1739 1.610 . S
N1738 S1737 1.613 . S
N1738 C1741 1.350 . S
N1739 S1737 1.610 . S
N1739 C1740 1.351 . S
C1740 C1734 1.428 . S
C1740 N1739 1.351 . S
C1740 C1741 1.434 . S
C1741 C1732 1.429 . S
C1741 N1738 1.350 . S
C1741 C1740 1.434 . S
C1742 C1743 1.369 . S
C1742 C1744 1.419 . S
C1742 H1746 0.930 . S
C1743 C1742 1.369 . S
C1743 C1752 1.429 . S
C1744 C1742 1.419 . S
C1744 C1745 1.363 . S
C1744 H1747 0.929 . S
C1745 C1744 1.363 . S
C1745 C1751 1.428 . S
H1746 C1742 0.930 . S
H1747 C1744 0.929 . S
S1748 N1749 1.613 . S
S1748 N1750 1.610 . S
N1749 S1748 1.613 . S
N1749 C1752 1.350 . S
N1750 S1748 1.610 . S
N1750 C1751 1.351 . S
C1751 C1745 1.428 . S
C1751 N1750 1.351 . S
C1751 C1752 1.434 . S
C1752 C1743 1.429 . S
C1752 N1749 1.350 . S
C1752 C1751 1.434 . S
C1753 C1754 1.369 . S
C1753 C1755 1.419 . S
C1753 H1757 0.930 . S
C1754 C1753 1.369 . S
C1754 C1763 1.429 . S
C1755 C1753 1.419 . S
C1755 C1756 1.363 . S
C1755 H1758 0.929 . S
C1756 C1755 1.363 . S
C1756 C1762 1.428 . S
H1757 C1753 0.930 . S
H1758 C1755 0.929 . S
S1759 N1760 1.613 . S
S1759 N1761 1.610 . S
N1760 S1759 1.613 . S
N1760 C1763 1.350 . S
N1761 S1759 1.610 . S
N1761 C1762 1.351 . S
C1762 C1756 1.428 . S
C1762 N1761 1.351 . S
C1762 C1763 1.434 . S
C1763 C1754 1.429 . S
C1763 N1760 1.350 . S
C1763 C1762 1.434 . S
C1764 C1765 1.369 . S
C1764 C1766 1.419 . S
C1764 H1768 0.930 . S
C1765 C1764 1.369 . S
C1765 C1774 1.429 . S
C1766 C1764 1.419 . S
C1766 C1767 1.363 . S
C1766 H1769 0.929 . S
C1767 C1766 1.363 . S
C1767 C1773 1.428 . S
H1768 C1764 0.930 . S
H1769 C1766 0.929 . S
S1770 N1771 1.613 . S
S1770 N1772 1.610 . S
N1771 S1770 1.613 . S
N1771 C1774 1.350 . S
N1772 S1770 1.610 . S
N1772 C1773 1.351 . S
C1773 C1767 1.428 . S
C1773 N1772 1.351 . S
C1773 C1774 1.434 . S
C1774 C1765 1.429 . S
C1774 N1771 1.350 . S
C1774 C1773 1.434 . S
C1775 C1776 1.369 . S
C1775 C1777 1.419 . S
C1775 H1779 0.930 . S
C1776 C1775 1.369 . S
C1776 C1785 1.429 . S
C1777 C1775 1.419 . S
C1777 C1778 1.363 . S
C1777 H1780 0.929 . S
C1778 C1777 1.363 . S
C1778 C1784 1.428 . S
H1779 C1775 0.930 . S
H1780 C1777 0.929 . S
S1781 N1782 1.613 . S
S1781 N1783 1.610 . S
N1782 S1781 1.613 . S
N1782 C1785 1.350 . S
N1783 S1781 1.610 . S
N1783 C1784 1.351 . S
C1784 C1778 1.428 . S
C1784 N1783 1.351 . S
C1784 C1785 1.434 . S
C1785 C1776 1.429 . S
C1785 N1782 1.350 . S
C1785 C1784 1.434 . S
C1786 C1787 1.369 . S
C1786 C1788 1.419 . S
C1786 H1790 0.930 . S
C1787 C1786 1.369 . S
C1787 C1796 1.429 . S
C1788 C1786 1.419 . S
C1788 C1789 1.363 . S
C1788 H1791 0.929 . S
C1789 C1788 1.363 . S
C1789 C1795 1.428 . S
H1790 C1786 0.930 . S
H1791 C1788 0.929 . S
S1792 N1793 1.613 . S
S1792 N1794 1.610 . S
N1793 S1792 1.613 . S
N1793 C1796 1.350 . S
N1794 S1792 1.610 . S
N1794 C1795 1.351 . S
C1795 C1789 1.428 . S
C1795 N1794 1.351 . S
C1795 C1796 1.434 . S
C1796 C1787 1.429 . S
C1796 N1793 1.350 . S
C1796 C1795 1.434 . S
C1797 C1798 1.369 . S
C1797 C1799 1.419 . S
C1797 H1801 0.930 . S
C1798 C1797 1.369 . S
C1798 C1807 1.429 . S
C1799 C1797 1.419 . S
C1799 C1800 1.363 . S
C1799 H1802 0.929 . S
C1800 C1799 1.363 . S
C1800 C1806 1.428 . S
H1801 C1797 0.930 . S
H1802 C1799 0.929 . S
S1803 N1804 1.613 . S
S1803 N1805 1.610 . S
N1804 S1803 1.613 . S
N1804 C1807 1.350 . S
N1805 S1803 1.610 . S
N1805 C1806 1.351 . S
C1806 C1800 1.428 . S
C1806 N1805 1.351 . S
C1806 C1807 1.434 . S
C1807 C1798 1.429 . S
C1807 N1804 1.350 . S
C1807 C1806 1.434 . S
C1808 C1809 1.369 . S
C1808 C1810 1.419 . S
C1808 H1812 0.930 . S
C1809 C1808 1.369 . S
C1809 C1818 1.429 . S
C1810 C1808 1.419 . S
C1810 C1811 1.363 . S
C1810 H1813 0.929 . S
C1811 C1810 1.363 . S
C1811 C1817 1.428 . S
H1812 C1808 0.930 . S
H1813 C1810 0.929 . S
S1814 N1815 1.613 . S
S1814 N1816 1.610 . S
N1815 S1814 1.613 . S
N1815 C1818 1.350 . S
N1816 S1814 1.610 . S
N1816 C1817 1.351 . S
C1817 C1811 1.428 . S
C1817 N1816 1.351 . S
C1817 C1818 1.434 . S
C1818 C1809 1.429 . S
C1818 N1815 1.350 . S
C1818 C1817 1.434 . S
C1819 C1820 1.369 . S
C1819 C1821 1.419 . S
C1819 H1823 0.930 . S
C1820 C1819 1.369 . S
C1820 C1829 1.429 . S
C1821 C1819 1.419 . S
C1821 C1822 1.363 . S
C1821 H1824 0.929 . S
C1822 C1821 1.363 . S
C1822 C1828 1.428 . S
H1823 C1819 0.930 . S
H1824 C1821 0.929 . S
S1825 N1826 1.613 . S
S1825 N1827 1.610 . S
N1826 S1825 1.613 . S
N1826 C1829 1.350 . S
N1827 S1825 1.610 . S
N1827 C1828 1.351 . S
C1828 C1822 1.428 . S
C1828 N1827 1.351 . S
C1828 C1829 1.434 . S
C1829 C1820 1.429 . S
C1829 N1826 1.350 . S
C1829 C1828 1.434 . S
C1830 C1831 1.369 . S
C1830 C1832 1.419 . S
C1830 H1834 0.930 . S
C1831 C1830 1.369 . S
C1831 C1840 1.429 . S
C1832 C1830 1.419 . S
C1832 C1833 1.363 . S
C1832 H1835 0.929 . S
C1833 C1832 1.363 . S
C1833 C1839 1.428 . S
H1834 C1830 0.930 . S
H1835 C1832 0.929 . S
S1836 N1837 1.613 . S
S1836 N1838 1.610 . S
N1837 S1836 1.613 . S
N1837 C1840 1.350 . S
N1838 S1836 1.610 . S
N1838 C1839 1.351 . S
C1839 C1833 1.428 . S
C1839 N1838 1.351 . S
C1839 C1840 1.434 . S
C1840 C1831 1.429 . S
C1840 N1837 1.350 . S
C1840 C1839 1.434 . S
C1841 C1842 1.369 . S
C1841 C1843 1.419 . S
C1841 H1845 0.930 . S
C1842 C1841 1.369 . S
C1842 C1851 1.429 . S
C1843 C1841 1.419 . S
C1843 C1844 1.363 . S
C1843 H1846 0.929 . S
C1844 C1843 1.363 . S
C1844 C1850 1.428 . S
H1845 C1841 0.930 . S
H1846 C1843 0.929 . S
S1847 N1848 1.613 . S
S1847 N1849 1.610 . S
N1848 S1847 1.613 . S
N1848 C1851 1.350 . S
N1849 S1847 1.610 . S
N1849 C1850 1.351 . S
C1850 C1844 1.428 . S
C1850 N1849 1.351 . S
C1850 C1851 1.434 . S
C1851 C1842 1.429 . S
C1851 N1848 1.350 . S
C1851 C1850 1.434 . S
C1852 C1853 1.369 . S
C1852 C1854 1.419 . S
C1852 H1856 0.930 . S
C1853 C1852 1.369 . S
C1853 C1862 1.429 . S
C1854 C1852 1.419 . S
C1854 C1855 1.363 . S
C1854 H1857 0.929 . S
C1855 C1854 1.363 . S
C1855 C1861 1.428 . S
H1856 C1852 0.930 . S
H1857 C1854 0.929 . S
S1858 N1859 1.613 . S
S1858 N1860 1.610 . S
N1859 S1858 1.613 . S
N1859 C1862 1.350 . S
N1860 S1858 1.610 . S
N1860 C1861 1.351 . S
C1861 C1855 1.428 . S
C1861 N1860 1.351 . S
C1861 C1862 1.434 . S
C1862 C1853 1.429 . S
C1862 N1859 1.350 . S
C1862 C1861 1.434 . S
C1863 C1864 1.369 . S
C1863 C1865 1.419 . S
C1863 H1867 0.930 . S
C1864 C1863 1.369 . S
C1864 C1873 1.429 . S
C1865 C1863 1.419 . S
C1865 C1866 1.363 . S
C1865 H1868 0.929 . S
C1866 C1865 1.363 . S
C1866 C1872 1.428 . S
H1867 C1863 0.930 . S
H1868 C1865 0.929 . S
S1869 N1870 1.613 . S
S1869 N1871 1.610 . S
N1870 S1869 1.613 . S
N1870 C1873 1.350 . S
N1871 S1869 1.610 . S
N1871 C1872 1.351 . S
C1872 C1866 1.428 . S
C1872 N1871 1.351 . S
C1872 C1873 1.434 . S
C1873 C1864 1.429 . S
C1873 N1870 1.350 . S
C1873 C1872 1.434 . S
C1874 C1875 1.369 . S
C1874 C1876 1.419 . S
C1874 H1878 0.930 . S
C1875 C1874 1.369 . S
C1875 C1884 1.429 . S
C1876 C1874 1.419 . S
C1876 C1877 1.363 . S
C1876 H1879 0.929 . S
C1877 C1876 1.363 . S
C1877 C1883 1.428 . S
H1878 C1874 0.930 . S
H1879 C1876 0.929 . S
S1880 N1881 1.613 . S
S1880 N1882 1.610 . S
N1881 S1880 1.613 . S
N1881 C1884 1.350 . S
N1882 S1880 1.610 . S
N1882 C1883 1.351 . S
C1883 C1877 1.428 . S
C1883 N1882 1.351 . S
C1883 C1884 1.434 . S
C1884 C1875 1.429 . S
C1884 N1881 1.350 . S
C1884 C1883 1.434 . S
C1885 C1886 1.369 . S
C1885 C1887 1.419 . S
C1885 H1889 0.930 . S
C1886 C1885 1.369 . S
C1886 C1895 1.429 . S
C1887 C1885 1.419 . S
C1887 C1888 1.363 . S
C1887 H1890 0.929 . S
C1888 C1887 1.363 . S
C1888 C1894 1.428 . S
H1889 C1885 0.930 . S
H1890 C1887 0.929 . S
S1891 N1892 1.613 . S
S1891 N1893 1.610 . S
N1892 S1891 1.613 . S
N1892 C1895 1.350 . S
N1893 S1891 1.610 . S
N1893 C1894 1.351 . S
C1894 C1888 1.428 . S
C1894 N1893 1.351 . S
C1894 C1895 1.434 . S
C1895 C1886 1.429 . S
C1895 N1892 1.350 . S
C1895 C1894 1.434 . S
C1896 C1897 1.369 . S
C1896 C1898 1.419 . S
C1896 H1900 0.930 . S
C1897 C1896 1.369 . S
C1897 C1906 1.429 . S
C1898 C1896 1.419 . S
C1898 C1899 1.363 . S
C1898 H1901 0.929 . S
C1899 C1898 1.363 . S
C1899 C1905 1.428 . S
H1900 C1896 0.930 . S
H1901 C1898 0.929 . S
S1902 N1903 1.613 . S
S1902 N1904 1.610 . S
N1903 S1902 1.613 . S
N1903 C1906 1.350 . S
N1904 S1902 1.610 . S
N1904 C1905 1.351 . S
C1905 C1899 1.428 . S
C1905 N1904 1.351 . S
C1905 C1906 1.434 . S
C1906 C1897 1.429 . S
C1906 N1903 1.350 . S
C1906 C1905 1.434 . S
C1907 C1908 1.369 . S
C1907 C1909 1.419 . S
C1907 H1911 0.930 . S
C1908 C1907 1.369 . S
C1908 C1917 1.429 . S
C1909 C1907 1.419 . S
C1909 C1910 1.363 . S
C1909 H1912 0.929 . S
C1910 C1909 1.363 . S
C1910 C1916 1.428 . S
H1911 C1907 0.930 . S
H1912 C1909 0.929 . S
S1913 N1914 1.613 . S
S1913 N1915 1.610 . S
N1914 S1913 1.613 . S
N1914 C1917 1.350 . S
N1915 S1913 1.610 . S
N1915 C1916 1.351 . S
C1916 C1910 1.428 . S
C1916 N1915 1.351 . S
C1916 C1917 1.434 . S
C1917 C1908 1.429 . S
C1917 N1914 1.350 . S
C1917 C1916 1.434 . S
C1918 C1919 1.369 . S
C1918 C1920 1.419 . S
C1918 H1922 0.930 . S
C1919 C1918 1.369 . S
C1919 C1928 1.429 . S
C1920 C1918 1.419 . S
C1920 C1921 1.363 . S
C1920 H1923 0.929 . S
C1921 C1920 1.363 . S
C1921 C1927 1.428 . S
H1922 C1918 0.930 . S
H1923 C1920 0.929 . S
S1924 N1925 1.613 . S
S1924 N1926 1.610 . S
N1925 S1924 1.613 . S
N1925 C1928 1.350 . S
N1926 S1924 1.610 . S
N1926 C1927 1.351 . S
C1927 C1921 1.428 . S
C1927 N1926 1.351 . S
C1927 C1928 1.434 . S
C1928 C1919 1.429 . S
C1928 N1925 1.350 . S
C1928 C1927 1.434 . S
C1929 C1930 1.369 . S
C1929 C1931 1.419 . S
C1929 H1933 0.930 . S
C1930 C1929 1.369 . S
C1930 C1939 1.429 . S
C1931 C1929 1.419 . S
C1931 C1932 1.363 . S
C1931 H1934 0.929 . S
C1932 C1931 1.363 . S
C1932 C1938 1.428 . S
H1933 C1929 0.930 . S
H1934 C1931 0.929 . S
S1935 N1936 1.613 . S
S1935 N1937 1.610 . S
N1936 S1935 1.613 . S
N1936 C1939 1.350 . S
N1937 S1935 1.610 . S
N1937 C1938 1.351 . S
C1938 C1932 1.428 . S
C1938 N1937 1.351 . S
C1938 C1939 1.434 . S
C1939 C1930 1.429 . S
C1939 N1936 1.350 . S
C1939 C1938 1.434 . S
C1940 C1941 1.369 . S
C1940 C1942 1.419 . S
C1940 H1944 0.930 . S
C1941 C1940 1.369 . S
C1941 C1950 1.429 . S
C1942 C1940 1.419 . S
C1942 C1943 1.363 . S
C1942 H1945 0.929 . S
C1943 C1942 1.363 . S
C1943 C1949 1.428 . S
H1944 C1940 0.930 . S
H1945 C1942 0.929 . S
S1946 N1947 1.613 . S
S1946 N1948 1.610 . S
N1947 S1946 1.613 . S
N1947 C1950 1.350 . S
N1948 S1946 1.610 . S
N1948 C1949 1.351 . S
C1949 C1943 1.428 . S
C1949 N1948 1.351 . S
C1949 C1950 1.434 . S
C1950 C1941 1.429 . S
C1950 N1947 1.350 . S
C1950 C1949 1.434 . S
C1951 C1952 1.369 . S
C1951 C1953 1.419 . S
C1951 H1955 0.930 . S
C1952 C1951 1.369 . S
C1952 C1961 1.429 . S
C1953 C1951 1.419 . S
C1953 C1954 1.363 . S
C1953 H1956 0.929 . S
C1954 C1953 1.363 . S
C1954 C1960 1.428 . S
H1955 C1951 0.930 . S
H1956 C1953 0.929 . S
S1957 N1958 1.613 . S
S1957 N1959 1.610 . S
N1958 S1957 1.613 . S
N1958 C1961 1.350 . S
N1959 S1957 1.610 . S
N1959 C1960 1.351 . S
C1960 C1954 1.428 . S
C1960 N1959 1.351 . S
C1960 C1961 1.434 . S
C1961 C1952 1.429 . S
C1961 N1958 1.350 . S
C1961 C1960 1.434 . S
C1962 C1963 1.369 . S
C1962 C1964 1.419 . S
C1962 H1966 0.930 . S
C1963 C1962 1.369 . S
C1963 C1972 1.429 . S
C1964 C1962 1.419 . S
C1964 C1965 1.363 . S
C1964 H1967 0.929 . S
C1965 C1964 1.363 . S
C1965 C1971 1.428 . S
H1966 C1962 0.930 . S
H1967 C1964 0.929 . S
S1968 N1969 1.613 . S
S1968 N1970 1.610 . S
N1969 S1968 1.613 . S
N1969 C1972 1.350 . S
N1970 S1968 1.610 . S
N1970 C1971 1.351 . S
C1971 C1965 1.428 . S
C1971 N1970 1.351 . S
C1971 C1972 1.434 . S
C1972 C1963 1.429 . S
C1972 N1969 1.350 . S
C1972 C1971 1.434 . S
C1973 C1974 1.369 . S
C1973 C1975 1.419 . S
C1973 H1977 0.930 . S
C1974 C1973 1.369 . S
C1974 C1983 1.429 . S
C1975 C1973 1.419 . S
C1975 C1976 1.363 . S
C1975 H1978 0.929 . S
C1976 C1975 1.363 . S
C1976 C1982 1.428 . S
H1977 C1973 0.930 . S
H1978 C1975 0.929 . S
S1979 N1980 1.613 . S
S1979 N1981 1.610 . S
N1980 S1979 1.613 . S
N1980 C1983 1.350 . S
N1981 S1979 1.610 . S
N1981 C1982 1.351 . S
C1982 C1976 1.428 . S
C1982 N1981 1.351 . S
C1982 C1983 1.434 . S
C1983 C1974 1.429 . S
C1983 N1980 1.350 . S
C1983 C1982 1.434 . S
C1984 C1985 1.369 . S
C1984 C1986 1.419 1_545 S
C1984 H1988 0.930 . S
C1985 C1984 1.369 . S
C1985 C1994 1.429 . S
C1986 C1984 1.419 1_565 S
C1986 C1987 1.363 . S
C1986 H1989 0.929 . S
C1987 C1986 1.363 . S
C1987 C1993 1.428 . S
H1988 C1984 0.930 . S
H1989 C1986 0.929 . S
S1990 N1991 1.613 . S
S1990 N1992 1.610 1_545 S
N1991 S1990 1.613 . S
N1991 C1994 1.350 . S
N1992 S1990 1.610 1_565 S
N1992 C1993 1.351 . S
C1993 C1987 1.428 . S
C1993 N1992 1.351 . S
C1993 C1994 1.434 1_565 S
C1994 C1985 1.429 . S
C1994 N1991 1.350 . S
C1994 C1993 1.434 1_545 S
C1995 C1996 1.369 . S
C1995 C1997 1.419 . S
C1995 H1999 0.930 . S
C1996 C1995 1.369 . S
C1996 C2005 1.429 . S
C1997 C1995 1.419 . S
C1997 C1998 1.363 . S
C1997 H2000 0.929 . S
C1998 C1997 1.363 . S
C1998 C2004 1.428 . S
H1999 C1995 0.930 . S
H2000 C1997 0.929 . S
S2001 N2002 1.613 . S
S2001 N2003 1.610 . S
N2002 S2001 1.613 . S
N2002 C2005 1.350 . S
N2003 S2001 1.610 . S
N2003 C2004 1.351 . S
C2004 C1998 1.428 . S
C2004 N2003 1.351 . S
C2004 C2005 1.434 . S
C2005 C1996 1.429 . S
C2005 N2002 1.350 . S
C2005 C2004 1.434 . S
C2006 C2007 1.369 . S
C2006 C2008 1.419 1_565 S
C2006 H2010 0.930 . S
C2007 C2006 1.369 . S
C2007 C2016 1.429 . S
C2008 C2006 1.419 1_545 S
C2008 C2009 1.363 . S
C2008 H2011 0.929 . S
C2009 C2008 1.363 . S
C2009 C2015 1.428 . S
H2010 C2006 0.930 . S
H2011 C2008 0.929 . S
S2012 N2013 1.613 1_545 S
S2012 N2014 1.610 . S
N2013 S2012 1.613 1_565 S
N2013 C2016 1.350 . S
N2014 S2012 1.610 . S
N2014 C2015 1.351 . S
C2015 C2009 1.428 . S
C2015 N2014 1.351 . S
C2015 C2016 1.434 1_545 S
C2016 C2007 1.429 . S
C2016 N2013 1.350 . S
C2016 C2015 1.434 1_565 S
C2017 C2018 1.369 . S
C2017 C2019 1.419 . S
C2017 H2021 0.930 . S
C2018 C2017 1.369 . S
C2018 C2027 1.419 1_554 S
C2019 C2017 1.419 . S
C2019 C2020 1.363 1_554 S
C2019 H2022 0.929 . S
C2020 C2019 1.363 1_556 S
C2020 C2026 1.428 . S
H2021 C2017 0.930 . S
H2022 C2019 0.929 . S
S2023 N2024 1.613 . S
S2023 N2025 1.610 . S
N2024 S2023 1.613 . S
N2024 C2027 1.351 . S
N2025 S2023 1.610 . S
N2025 C2026 1.351 . S
C2026 C2020 1.428 . S
C2026 N2025 1.351 . S
C2026 C2027 1.443 . S
C2027 C2018 1.419 1_556 S
C2027 N2024 1.351 . S
C2027 C2026 1.443 . S
C2028 C2029 1.369 . S
C2028 C2030 1.419 1_545 S
C2028 H2032 0.930 . S
C2029 C2028 1.369 . S
C2029 C2038 1.429 . S
C2030 C2028 1.419 1_565 S
C2030 C2031 1.363 . S
C2030 H2033 0.929 . S
C2031 C2030 1.363 . S
C2031 C2037 1.428 . S
H2032 C2028 0.930 . S
H2033 C2030 0.929 . S
S2034 N2035 1.613 . S
S2034 N2036 1.610 1_545 S
N2035 S2034 1.613 . S
N2035 C2038 1.350 . S
N2036 S2034 1.610 1_565 S
N2036 C2037 1.351 . S
C2037 C2031 1.428 . S
C2037 N2036 1.351 . S
C2037 C2038 1.434 1_565 S
C2038 C2029 1.429 . S
C2038 N2035 1.350 . S
C2038 C2037 1.434 1_545 S
C2039 C2040 1.369 . S
C2039 C2041 1.419 . S
C2039 H2043 0.930 . S
C2040 C2039 1.369 . S
C2040 C2049 1.429 . S
C2041 C2039 1.419 . S
C2041 C2042 1.363 . S
C2041 H2044 0.929 . S
C2042 C2041 1.363 . S
C2042 C2048 1.428 . S
H2043 C2039 0.930 . S
H2044 C2041 0.929 . S
S2045 N2046 1.613 . S
S2045 N2047 1.610 . S
N2046 S2045 1.613 . S
N2046 C2049 1.350 . S
N2047 S2045 1.610 . S
N2047 C2048 1.351 . S
C2048 C2042 1.428 . S
C2048 N2047 1.351 . S
C2048 C2049 1.434 . S
C2049 C2040 1.429 . S
C2049 N2046 1.350 . S
C2049 C2048 1.434 . S
C2050 C2051 1.369 . S
C2050 C2052 1.419 1_545 S
C2050 H2054 0.930 . S
C2051 C2050 1.369 . S
C2051 C2060 1.429 . S
C2052 C2050 1.419 1_565 S
C2052 C2053 1.363 . S
C2052 H2055 0.929 . S
C2053 C2052 1.363 . S
C2053 C2059 1.428 . S
H2054 C2050 0.930 . S
H2055 C2052 0.929 . S
S2056 N2057 1.613 1_565 S
S2056 N2058 1.610 . S
N2057 S2056 1.613 1_545 S
N2057 C2060 1.350 . S
N2058 S2056 1.610 . S
N2058 C2059 1.351 . S
C2059 C2053 1.428 . S
C2059 N2058 1.351 . S
C2059 C2060 1.434 1_565 S
C2060 C2051 1.429 . S
C2060 N2057 1.350 . S
C2060 C2059 1.434 1_545 S
C2061 C2062 1.369 . S
C2061 C2063 1.419 . S
C2061 H2065 0.930 . S
C2062 C2061 1.369 . S
C2062 C2071 1.429 1_554 S
C2063 C2061 1.419 . S
C2063 C2064 1.363 1_554 S
C2063 H2066 0.929 . S
C2064 C2063 1.363 1_556 S
C2064 C2070 1.428 . S
H2065 C2061 0.930 . S
H2066 C2063 0.929 . S
S2067 N2068 1.613 . S
S2067 N2069 1.610 . S
N2068 S2067 1.613 . S
N2068 C2071 1.350 . S
N2069 S2067 1.610 . S
N2069 C2070 1.351 . S
C2070 C2064 1.428 . S
C2070 N2069 1.351 . S
C2070 C2071 1.434 . S
C2071 C2062 1.429 1_556 S
C2071 N2068 1.350 . S
C2071 C2070 1.434 . S
C2072 C2073 1.369 . S
C2072 C2074 1.419 . S
C2072 H2076 0.930 . S
C2073 C2072 1.369 . S
C2073 C2082 1.429 . S
C2074 C2072 1.419 . S
C2074 C2075 1.363 . S
C2074 H2077 0.929 . S
C2075 C2074 1.363 . S
C2075 C2081 1.428 . S
H2076 C2072 0.930 . S
H2077 C2074 0.929 . S
S2078 N2079 1.613 . S
S2078 N2080 1.610 . S
N2079 S2078 1.613 . S
N2079 C2082 1.350 . S
N2080 S2078 1.610 . S
N2080 C2081 1.351 . S
C2081 C2075 1.428 . S
C2081 N2080 1.351 . S
C2081 C2082 1.434 . S
C2082 C2073 1.429 . S
C2082 N2079 1.350 . S
C2082 C2081 1.434 . S
C2083 C2084 1.369 1_556 S
C2083 C2085 1.419 . S
C2083 H2087 0.930 . S
C2084 C2083 1.369 1_554 S
C2084 C2093 1.429 . S
C2085 C2083 1.419 . S
C2085 C2086 1.363 . S
C2085 H2088 0.929 . S
C2086 C2085 1.363 . S
C2086 C2092 1.428 1_556 S
H2087 C2083 0.930 . S
H2088 C2085 0.929 . S
S2089 N2090 1.613 . S
S2089 N2091 1.610 . S
N2090 S2089 1.613 . S
N2090 C2093 1.350 . S
N2091 S2089 1.610 . S
N2091 C2092 1.351 . S
C2092 C2086 1.428 1_554 S
C2092 N2091 1.351 . S
C2092 C2093 1.434 . S
C2093 C2084 1.429 . S
C2093 N2090 1.350 . S
C2093 C2092 1.434 . S
C2094 C2095 1.369 . S
C2094 C2096 1.419 . S
C2094 H2098 0.930 . S
C2095 C2094 1.369 . S
C2095 C2104 1.429 . S
C2096 C2094 1.419 . S
C2096 C2097 1.363 . S
C2096 H2099 0.929 . S
C2097 C2096 1.363 . S
C2097 C2103 1.428 . S
H2098 C2094 0.930 . S
H2099 C2096 0.929 . S
S2100 N2101 1.613 . S
S2100 N2102 1.610 . S
N2101 S2100 1.613 . S
N2101 C2104 1.350 . S
N2102 S2100 1.610 . S
N2102 C2103 1.351 . S
C2103 C2097 1.428 . S
C2103 N2102 1.351 . S
C2103 C2104 1.434 . S
C2104 C2095 1.429 . S
C2104 N2101 1.350 . S
C2104 C2103 1.434 . S
C2105 C2106 1.369 . S
C2105 C2107 1.419 . S
C2105 H2109 0.930 . S
C2106 C2105 1.369 . S
C2106 C2115 1.429 . S
C2107 C2105 1.419 . S
C2107 C2108 1.363 . S
C2107 H2110 0.929 . S
C2108 C2107 1.363 . S
C2108 C2114 1.428 . S
H2109 C2105 0.930 . S
H2110 C2107 0.929 . S
S2111 N2112 1.613 . S
S2111 N2113 1.610 . S
N2112 S2111 1.613 . S
N2112 C2115 1.350 . S
N2113 S2111 1.610 . S
N2113 C2114 1.351 . S
C2114 C2108 1.428 . S
C2114 N2113 1.351 . S
C2114 C2115 1.434 . S
C2115 C2106 1.429 . S
C2115 N2112 1.350 . S
C2115 C2114 1.434 . S
C2116 C2117 1.369 . S
C2116 C2118 1.419 . S
C2116 H2120 0.930 . S
C2117 C2116 1.369 . S
C2117 C2126 1.429 . S
C2118 C2116 1.419 . S
C2118 C2119 1.363 . S
C2118 H2121 0.929 . S
C2119 C2118 1.363 . S
C2119 C2125 1.428 . S
H2120 C2116 0.930 . S
H2121 C2118 0.929 . S
S2122 N2123 1.613 . S
S2122 N2124 1.610 . S
N2123 S2122 1.613 . S
N2123 C2126 1.350 . S
N2124 S2122 1.610 . S
N2124 C2125 1.351 . S
C2125 C2119 1.428 . S
C2125 N2124 1.351 . S
C2125 C2126 1.434 . S
C2126 C2117 1.429 . S
C2126 N2123 1.350 . S
C2126 C2125 1.434 . S
C2127 C2128 1.369 . S
C2127 C2129 1.419 . S
C2127 H2131 0.930 . S
C2128 C2127 1.369 . S
C2128 C2137 1.429 1_554 S
C2129 C2127 1.419 . S
C2129 C2130 1.363 1_554 S
C2129 H2132 0.929 . S
C2130 C2129 1.363 1_556 S
C2130 C2136 1.428 . S
H2131 C2127 0.930 . S
H2132 C2129 0.929 . S
S2133 N2134 1.613 . S
S2133 N2135 1.610 . S
N2134 S2133 1.613 . S
N2134 C2137 1.350 . S
N2135 S2133 1.610 . S
N2135 C2136 1.351 . S
C2136 C2130 1.428 . S
C2136 N2135 1.351 . S
C2136 C2137 1.434 . S
C2137 C2128 1.429 1_556 S
C2137 N2134 1.350 . S
C2137 C2136 1.434 . S
C2138 C2139 1.369 . S
C2138 C2140 1.419 . S
C2138 H2142 0.930 . S
C2139 C2138 1.369 . S
C2139 C2148 1.429 . S
C2140 C2138 1.419 . S
C2140 C2141 1.363 . S
C2140 H2143 0.929 . S
C2141 C2140 1.363 . S
C2141 C2147 1.428 . S
H2142 C2138 0.930 . S
H2143 C2140 0.929 . S
S2144 N2145 1.613 . S
S2144 N2146 1.610 . S
N2145 S2144 1.613 . S
N2145 C2148 1.350 . S
N2146 S2144 1.610 . S
N2146 C2147 1.351 . S
C2147 C2141 1.428 . S
C2147 N2146 1.351 . S
C2147 C2148 1.434 . S
C2148 C2139 1.429 . S
C2148 N2145 1.350 . S
C2148 C2147 1.434 . S
C2149 C2150 1.369 . S
C2149 C2151 1.419 . S
C2149 H2153 0.930 . S
C2150 C2149 1.369 . S
C2150 C2159 1.429 . S
C2151 C2149 1.419 . S
C2151 C2152 1.363 . S
C2151 H2154 0.929 . S
C2152 C2151 1.363 . S
C2152 C2158 1.428 . S
H2153 C2149 0.930 . S
H2154 C2151 0.929 . S
S2155 N2156 1.613 . S
S2155 N2157 1.610 . S
N2156 S2155 1.613 . S
N2156 C2159 1.350 . S
N2157 S2155 1.610 . S
N2157 C2158 1.351 . S
C2158 C2152 1.428 . S
C2158 N2157 1.351 . S
C2158 C2159 1.434 . S
C2159 C2150 1.429 . S
C2159 N2156 1.350 . S
C2159 C2158 1.434 . S
C2160 C2161 1.369 . S
C2160 C2162 1.419 . S
C2160 H2164 0.930 . S
C2161 C2160 1.369 . S
C2161 C2170 1.429 . S
C2162 C2160 1.419 . S
C2162 C2163 1.363 . S
C2162 H2165 0.929 . S
C2163 C2162 1.363 . S
C2163 C2169 1.428 . S
H2164 C2160 0.930 . S
H2165 C2162 0.929 . S
S2166 N2167 1.613 . S
S2166 N2168 1.610 . S
N2167 S2166 1.613 . S
N2167 C2170 1.350 . S
N2168 S2166 1.610 . S
N2168 C2169 1.351 . S
C2169 C2163 1.428 . S
C2169 N2168 1.351 . S
C2169 C2170 1.434 . S
C2170 C2161 1.429 . S
C2170 N2167 1.350 . S
C2170 C2169 1.434 . S
C2171 C2172 1.369 . S
C2171 C2173 1.419 . S
C2171 H2175 0.930 . S
C2172 C2171 1.369 . S
C2172 C2181 1.429 . S
C2173 C2171 1.419 . S
C2173 C2174 1.363 . S
C2173 H2176 0.929 . S
C2174 C2173 1.363 . S
C2174 C2180 1.428 . S
H2175 C2171 0.930 . S
H2176 C2173 0.929 . S
S2177 N2178 1.613 . S
S2177 N2179 1.610 . S
N2178 S2177 1.613 . S
N2178 C2181 1.350 . S
N2179 S2177 1.610 . S
N2179 C2180 1.351 . S
C2180 C2174 1.428 . S
C2180 N2179 1.351 . S
C2180 C2181 1.434 . S
C2181 C2172 1.429 . S
C2181 N2178 1.350 . S
C2181 C2180 1.434 . S
C2182 C2183 1.369 . S
C2182 C2184 1.419 . S
C2182 H2186 0.930 . S
C2183 C2182 1.369 . S
C2183 C2192 1.429 . S
C2184 C2182 1.419 . S
C2184 C2185 1.363 . S
C2184 H2187 0.929 . S
C2185 C2184 1.363 . S
C2185 C2191 1.428 . S
H2186 C2182 0.930 . S
H2187 C2184 0.929 . S
S2188 N2189 1.613 . S
S2188 N2190 1.610 . S
N2189 S2188 1.613 . S
N2189 C2192 1.350 . S
N2190 S2188 1.610 . S
N2190 C2191 1.351 . S
C2191 C2185 1.428 . S
C2191 N2190 1.351 . S
C2191 C2192 1.434 . S
C2192 C2183 1.429 . S
C2192 N2189 1.350 . S
C2192 C2191 1.434 . S
C2193 C2194 1.369 . S
C2193 C2195 1.419 . S
C2193 H2197 0.930 . S
C2194 C2193 1.369 . S
C2194 C2203 1.429 . S
C2195 C2193 1.419 . S
C2195 C2196 1.363 . S
C2195 H2198 0.929 . S
C2196 C2195 1.363 . S
C2196 C2202 1.428 . S
H2197 C2193 0.930 . S
H2198 C2195 0.929 . S
S2199 N2200 1.613 . S
S2199 N2201 1.610 . S
N2200 S2199 1.613 . S
N2200 C2203 1.350 . S
N2201 S2199 1.610 . S
N2201 C2202 1.351 . S
C2202 C2196 1.428 . S
C2202 N2201 1.351 . S
C2202 C2203 1.434 . S
C2203 C2194 1.429 . S
C2203 N2200 1.350 . S
C2203 C2202 1.434 . S
C2204 C2205 1.369 . S
C2204 C2206 1.419 . S
C2204 H2208 0.930 . S
C2205 C2204 1.369 . S
C2205 C2214 1.429 . S
C2206 C2204 1.419 . S
C2206 C2207 1.363 . S
C2206 H2209 0.929 . S
C2207 C2206 1.363 . S
C2207 C2213 1.428 . S
H2208 C2204 0.930 . S
H2209 C2206 0.929 . S
S2210 N2211 1.613 . S
S2210 N2212 1.610 . S
N2211 S2210 1.613 . S
N2211 C2214 1.350 . S
N2212 S2210 1.610 . S
N2212 C2213 1.351 . S
C2213 C2207 1.428 . S
C2213 N2212 1.351 . S
C2213 C2214 1.434 . S
C2214 C2205 1.429 . S
C2214 N2211 1.350 . S
C2214 C2213 1.434 . S
C2215 C2216 1.369 . S
C2215 C2217 1.419 . S
C2215 H2219 0.930 . S
C2216 C2215 1.369 . S
C2216 C2225 1.429 . S
C2217 C2215 1.419 . S
C2217 C2218 1.363 . S
C2217 H2220 0.929 . S
C2218 C2217 1.363 . S
C2218 C2224 1.428 . S
H2219 C2215 0.930 . S
H2220 C2217 0.929 . S
S2221 N2222 1.613 . S
S2221 N2223 1.610 . S
N2222 S2221 1.613 . S
N2222 C2225 1.350 . S
N2223 S2221 1.610 . S
N2223 C2224 1.351 . S
C2224 C2218 1.428 . S
C2224 N2223 1.351 . S
C2224 C2225 1.434 . S
C2225 C2216 1.429 . S
C2225 N2222 1.350 . S
C2225 C2224 1.434 . S
C2226 C2227 1.369 . S
C2226 C2228 1.419 . S
C2226 H2230 0.930 . S
C2227 C2226 1.369 . S
C2227 C2236 1.429 . S
C2228 C2226 1.419 . S
C2228 C2229 1.363 . S
C2228 H2231 0.929 . S
C2229 C2228 1.363 . S
C2229 C2235 1.428 . S
H2230 C2226 0.930 . S
H2231 C2228 0.929 . S
S2232 N2233 1.613 . S
S2232 N2234 1.610 . S
N2233 S2232 1.613 . S
N2233 C2236 1.350 . S
N2234 S2232 1.610 . S
N2234 C2235 1.351 . S
C2235 C2229 1.428 . S
C2235 N2234 1.351 . S
C2235 C2236 1.434 . S
C2236 C2227 1.429 . S
C2236 N2233 1.350 . S
C2236 C2235 1.434 . S
C2237 C2238 1.369 . S
C2237 C2239 1.419 . S
C2237 H2241 0.930 . S
C2238 C2237 1.369 . S
C2238 C2247 1.429 . S
C2239 C2237 1.419 . S
C2239 C2240 1.363 . S
C2239 H2242 0.929 . S
C2240 C2239 1.363 . S
C2240 C2246 1.428 . S
H2241 C2237 0.930 . S
H2242 C2239 0.929 . S
S2243 N2244 1.613 . S
S2243 N2245 1.610 . S
N2244 S2243 1.613 . S
N2244 C2247 1.350 . S
N2245 S2243 1.610 . S
N2245 C2246 1.351 . S
C2246 C2240 1.428 . S
C2246 N2245 1.351 . S
C2246 C2247 1.434 . S
C2247 C2238 1.429 . S
C2247 N2244 1.350 . S
C2247 C2246 1.434 . S
C2248 C2249 1.369 . S
C2248 C2250 1.419 . S
C2248 H2252 0.930 . S
C2249 C2248 1.369 . S
C2249 C2258 1.429 . S
C2250 C2248 1.419 . S
C2250 C2251 1.363 . S
C2250 H2253 0.929 . S
C2251 C2250 1.363 . S
C2251 C2257 1.428 . S
H2252 C2248 0.930 . S
H2253 C2250 0.929 . S
S2254 N2255 1.613 . S
S2254 N2256 1.610 . S
N2255 S2254 1.613 . S
N2255 C2258 1.350 . S
N2256 S2254 1.610 . S
N2256 C2257 1.351 . S
C2257 C2251 1.428 . S
C2257 N2256 1.351 . S
C2257 C2258 1.434 . S
C2258 C2249 1.429 . S
C2258 N2255 1.350 . S
C2258 C2257 1.434 . S
C2259 C2260 1.369 . S
C2259 C2261 1.419 . S
C2259 H2263 0.930 . S
C2260 C2259 1.369 . S
C2260 C2269 1.429 . S
C2261 C2259 1.419 . S
C2261 C2262 1.363 . S
C2261 H2264 0.929 . S
C2262 C2261 1.363 . S
C2262 C2268 1.428 . S
H2263 C2259 0.930 . S
H2264 C2261 0.929 . S
S2265 N2266 1.613 . S
S2265 N2267 1.610 . S
N2266 S2265 1.613 . S
N2266 C2269 1.350 . S
N2267 S2265 1.610 . S
N2267 C2268 1.351 . S
C2268 C2262 1.428 . S
C2268 N2267 1.351 . S
C2268 C2269 1.434 . S
C2269 C2260 1.429 . S
C2269 N2266 1.350 . S
C2269 C2268 1.434 . S
C2270 C2271 1.369 . S
C2270 C2272 1.419 . S
C2270 H2274 0.930 . S
C2271 C2270 1.369 . S
C2271 C2280 1.429 . S
C2272 C2270 1.419 . S
C2272 C2273 1.363 . S
C2272 H2275 0.929 . S
C2273 C2272 1.363 . S
C2273 C2279 1.428 . S
H2274 C2270 0.930 . S
H2275 C2272 0.929 . S
S2276 N2277 1.613 . S
S2276 N2278 1.610 . S
N2277 S2276 1.613 . S
N2277 C2280 1.350 . S
N2278 S2276 1.610 . S
N2278 C2279 1.351 . S
C2279 C2273 1.428 . S
C2279 N2278 1.351 . S
C2279 C2280 1.434 . S
C2280 C2271 1.429 . S
C2280 N2277 1.350 . S
C2280 C2279 1.434 . S
C2281 C2282 1.369 . S
C2281 C2283 1.419 . S
C2281 H2285 0.930 . S
C2282 C2281 1.369 . S
C2282 C2291 1.429 . S
C2283 C2281 1.419 . S
C2283 C2284 1.363 . S
C2283 H2286 0.929 . S
C2284 C2283 1.363 . S
C2284 C2290 1.428 . S
H2285 C2281 0.930 . S
H2286 C2283 0.929 . S
S2287 N2288 1.613 . S
S2287 N2289 1.610 . S
N2288 S2287 1.613 . S
N2288 C2291 1.350 . S
N2289 S2287 1.610 . S
N2289 C2290 1.351 . S
C2290 C2284 1.428 . S
C2290 N2289 1.351 . S
C2290 C2291 1.434 . S
C2291 C2282 1.429 . S
C2291 N2288 1.350 . S
C2291 C2290 1.434 . S
C2292 C2293 1.369 . S
C2292 C2294 1.419 . S
C2292 H2296 0.930 . S
C2293 C2292 1.369 . S
C2293 C2302 1.429 . S
C2294 C2292 1.419 . S
C2294 C2295 1.363 . S
C2294 H2297 0.929 . S
C2295 C2294 1.363 . S
C2295 C2301 1.428 . S
H2296 C2292 0.930 . S
H2297 C2294 0.929 . S
S2298 N2299 1.613 . S
S2298 N2300 1.610 . S
N2299 S2298 1.613 . S
N2299 C2302 1.350 . S
N2300 S2298 1.610 . S
N2300 C2301 1.351 . S
C2301 C2295 1.428 . S
C2301 N2300 1.351 . S
C2301 C2302 1.434 . S
C2302 C2293 1.429 . S
C2302 N2299 1.350 . S
C2302 C2301 1.434 . S
C2303 C2304 1.369 . S
C2303 C2305 1.419 . S
C2303 H2307 0.930 . S
C2304 C2303 1.369 . S
C2304 C2313 1.429 . S
C2305 C2303 1.419 . S
C2305 C2306 1.363 . S
C2305 H2308 0.929 . S
C2306 C2305 1.363 . S
C2306 C2312 1.428 . S
H2307 C2303 0.930 . S
H2308 C2305 0.929 . S
S2309 N2310 1.613 . S
S2309 N2311 1.610 . S
N2310 S2309 1.613 . S
N2310 C2313 1.350 . S
N2311 S2309 1.610 . S
N2311 C2312 1.351 . S
C2312 C2306 1.428 . S
C2312 N2311 1.351 . S
C2312 C2313 1.434 . S
C2313 C2304 1.429 . S
C2313 N2310 1.350 . S
C2313 C2312 1.434 . S
C2314 C2315 1.369 . S
C2314 C2316 1.419 . S
C2314 H2318 0.930 . S
C2315 C2314 1.369 . S
C2315 C2324 1.429 . S
C2316 C2314 1.419 . S
C2316 C2317 1.363 . S
C2316 H2319 0.929 . S
C2317 C2316 1.363 . S
C2317 C2323 1.428 . S
H2318 C2314 0.930 . S
H2319 C2316 0.929 . S
S2320 N2321 1.613 . S
S2320 N2322 1.610 . S
N2321 S2320 1.613 . S
N2321 C2324 1.350 . S
N2322 S2320 1.610 . S
N2322 C2323 1.351 . S
C2323 C2317 1.428 . S
C2323 N2322 1.351 . S
C2323 C2324 1.434 . S
C2324 C2315 1.429 . S
C2324 N2321 1.350 . S
C2324 C2323 1.434 . S
C2325 C2326 1.369 . S
C2325 C2327 1.419 . S
C2325 H2329 0.930 . S
C2326 C2325 1.369 . S
C2326 C2335 1.429 . S
C2327 C2325 1.419 . S
C2327 C2328 1.363 . S
C2327 H2330 0.929 . S
C2328 C2327 1.363 . S
C2328 C2334 1.428 . S
H2329 C2325 0.930 . S
H2330 C2327 0.929 . S
S2331 N2332 1.613 . S
S2331 N2333 1.610 . S
N2332 S2331 1.613 . S
N2332 C2335 1.350 . S
N2333 S2331 1.610 . S
N2333 C2334 1.351 . S
C2334 C2328 1.428 . S
C2334 N2333 1.351 . S
C2334 C2335 1.434 . S
C2335 C2326 1.429 . S
C2335 N2332 1.350 . S
C2335 C2334 1.434 . S
C1281 C7 1.039 . S
C1283 C131 1.003 . S
C1292 C11 1.012 . S
C1294 C47 1.040 . S
C1303 C87 1.039 . S
C1305 C51 1.003 . S
C1314 C91 1.011 . S
C1316 C127 1.040 . S
C1325 C211 1.014 . S
C1327 C167 1.041 . S
C1336 C207 1.041 . S
C1338 C251 1.012 . S
C1347 C291 1.011 . S
C1349 C247 1.040 . S
C1358 C171 1.004 . S
C1360 C287 1.039 . S
C1369 C336 1.041 . S
C1371 C442 1.013 . S
C1380 C376 1.039 . S
C1382 C322 1.004 . S
C1391 C416 1.041 . S
C1393 C362 1.013 . S
C1402 C456 1.040 . S
C1404 C402 1.009 . S
C1413 C496 1.039 . S
C1415 C522 1.004 . S
C1424 C536 1.039 . S
C1426 C562 1.004 . S
C1435 C602 1.014 . S
C1437 C576 1.041 . S
C1446 C482 1.014 . S
C1448 C616 1.041 . S
C1457 C647 1.039 . S
C1459 C771 1.004 . S
C1468 C651 1.011 . S
C1470 C687 1.040 . S
C1479 C691 1.001 . S
C1481 C727 1.039 . S
C1490 C767 1.041 . S
C1492 C731 1.012 . S
C1501 C807 1.040 . S
C1503 C851 1.010 . S
C1512 C891 1.014 . S
C1514 C847 1.041 . S
C1523 C887 1.041 . S
C1525 C931 1.012 . S
C1534 C811 1.014 . S
C1536 C927 1.040 . S
C1545 C1082 1.005 . S
C1547 C976 1.040 . S
C1556 C962 1.006 . S
C1558 C1016 1.040 . S
C1567 C1056 1.039 . S
C1569 C1002 1.002 . S
C1578 C1042 1.009 . S
C1580 C1096 1.040 . S
C1589 C1162 1.002 . S
C1591 C1136 1.039 . S
C1600 C1202 1.013 . S
C1602 C1176 1.040 . S
C1611 C1242 1.004 . S
C1613 C1216 1.039 . S
C1622 C1256 1.039 . S
C1624 C1122 1.002 . S
C1633 C1087 1.597 . S
C1635 C10 1.542 . S
C1644 C50 1.542 . S
C1646 C327 1.597 . S
C1655 C90 1.539 . S
C1657 C1007 1.599 . S
C1666 C130 1.545 . S
C1668 C407 1.597 . S
C1677 C170 1.542 . S
C1679 C1167 1.597 . S
C1688 C567 1.600 . S
C1690 C210 1.539 . S
C1699 C1247 1.594 . S
C1701 C250 1.547 . S
C1710 C290 1.548 . S
C1712 C487 1.595 . S
C1721 C339 1.546 . S
C1723 C776 1.595 . S
C1732 C16 1.598 . S
C1734 C379 1.541 . S
C1743 C696 1.596 . S
C1745 C419 1.543 . S
C1754 C96 1.598 . S
C1756 C459 1.544 . S
C1765 C856 1.595 . S
C1767 C499 1.547 . S
C1776 C256 1.601 . S
C1778 C539 1.539 . S
C1787 C579 1.541 . S
C1789 C936 1.597 . S
C1798 C619 1.539 . S
C1800 C176 1.598 . S
C1809 C650 1.543 . S
C1811 C447 1.598 . S
C1820 C690 1.548 . S
C1822 C967 1.595 . S
C1831 C730 1.547 . S
C1833 C367 1.595 . S
C1842 C770 1.548 . S
C1844 C1047 1.595 . S
C1853 C810 1.546 . S
C1855 C527 1.595 . S
C1864 C850 1.544 . S
C1866 C1207 1.597 . S
C1875 C607 1.596 . S
C1877 C890 1.543 . S
C1886 C930 1.548 . S
C1888 C1127 1.595 . S
C1897 C136 1.596 . S
C1899 C979 1.546 . S
C1908 C656 1.598 . S
C1910 C1019 1.544 . S
C1919 C56 1.599 . S
C1921 C1059 1.542 . S
C1930 C736 1.599 . S
C1932 C1099 1.543 . S
C1941 C216 1.597 . S
C1943 C1139 1.542 . S
C1952 C1179 1.547 . S
C1954 C896 1.597 . S
C1963 C1219 1.542 . S
C1965 C296 1.596 . S
C1974 C816 1.598 . S
C1976 C1259 1.541 . S
C1985 C19 1.250 . S
C1987 C179 1.260 . S
C1996 C59 1.251 . S
C1998 C219 1.251 . S
C2007 C99 1.261 . S
C2009 C259 1.249 . S
C2018 C299 1.259 . S
C2020 C139 1.256 . S
C2029 C490 1.253 . S
C2031 C330 1.259 . S
C2040 C530 1.254 . S
C2042 C370 1.249 . S
C2051 C410 1.257 . S
C2053 C570 1.248 . S
C2062 C450 1.249 . S
C2064 C610 1.253 . S
C2073 C659 1.253 . S
C2075 C819 1.249 . S
C2084 C859 1.261 . S
C2086 C699 1.250 . S
C2095 C899 1.247 . S
C2097 C739 1.254 . S
C2106 C939 1.249 . S
C2108 C779 1.260 . S
C2117 C1130 1.257 . S
C2119 C970 1.248 . S
C2128 C1010 1.251 . S
C2130 C1170 1.252 . S
C2139 C1210 1.248 . S
C2141 C1050 1.260 . S
C2150 C1090 1.247 . S
C2152 C1250 1.258 . S
C2161 C282 2.714 . S
C2163 C2 2.715 . S
C2172 C42 2.715 . S
C2174 C162 2.715 . S
C2183 C82 2.716 . S
C2185 C202 2.714 . S
C2194 C242 2.716 . S
C2196 C122 2.714 . S
C2205 C331 2.715 . S
C2207 C611 2.715 . S
C2216 C491 2.716 . S
C2218 C371 2.714 . S
C2227 C531 2.713 . S
C2229 C411 2.715 . S
C2238 C451 2.716 . S
C2240 C571 2.715 . S
C2249 C642 2.714 . S
C2251 C922 2.714 . S
C2260 C802 2.715 . S
C2262 C682 2.714 . S
C2271 C842 2.715 . S
C2273 C722 2.715 . S
C2282 C882 2.715 . S
C2284 C762 2.715 . S
C2293 C971 2.715 . S
C2295 C1251 2.715 . S
C2304 C1131 2.714 . S
C2306 C1011 2.715 . S
C2315 C1051 2.715 . S
C2317 C1171 2.715 . S
C2326 C1211 2.716 . S
C2328 C1091 2.714 . S
