# Generated by pormake.
# Topology umo, (4)-cn, num edge types: 1
# Building blocks:
#     Node 0, Type 0, BuildingBlock: ESEHIV_clean_sbu_0, # of connection points: 4
#     Node 1, Type 0, BuildingBlock: ESEHIV_clean_sbu_0, # of connection points: 4
#     Node 2, Type 0, BuildingBlock: ESEHIV_clean_sbu_0, # of connection points: 4
#     Node 3, Type 0, BuildingBlock: ESEHIV_clean_sbu_0, # of connection points: 4
#     Node 4, Type 0, BuildingBlock: ESEHIV_clean_sbu_0, # of connection points: 4
#     Node 5, Type 0, BuildingBlock: ESEHIV_clean_sbu_0, # of connection points: 4
#     Node 6, Type 0, BuildingBlock: ESEHIV_clean_sbu_0, # of connection points: 4
#     Node 7, Type 0, BuildingBlock: ESEHIV_clean_sbu_0, # of connection points: 4
#     Node 8, Type 0, BuildingBlock: ESEHIV_clean_sbu_0, # of connection points: 4
#     Node 9, Type 0, BuildingBlock: ESEHIV_clean_sbu_0, # of connection points: 4
#     Node 10, Type 0, BuildingBlock: ESEHIV_clean_sbu_0, # of connection points: 4
#     Node 11, Type 0, BuildingBlock: ESEHIV_clean_sbu_0, # of connection points: 4
#     Edge 12, Type (0, 0), BuildingBlock: XUDNAN_clean_linker_2, # of connection points: 2
#     Edge 13, Type (0, 0), BuildingBlock: XUDNAN_clean_linker_2, # of connection points: 2
#     Edge 14, Type (0, 0), BuildingBlock: XUDNAN_clean_linker_2, # of connection points: 2
#     Edge 15, Type (0, 0), BuildingBlock: XUDNAN_clean_linker_2, # of connection points: 2
#     Edge 16, Type (0, 0), BuildingBlock: XUDNAN_clean_linker_2, # of connection points: 2
#     Edge 17, Type (0, 0), BuildingBlock: XUDNAN_clean_linker_2, # of connection points: 2
#     Edge 18, Type (0, 0), BuildingBlock: XUDNAN_clean_linker_2, # of connection points: 2
#     Edge 19, Type (0, 0), BuildingBlock: XUDNAN_clean_linker_2, # of connection points: 2
#     Edge 20, Type (0, 0), BuildingBlock: XUDNAN_clean_linker_2, # of connection points: 2
#     Edge 21, Type (0, 0), BuildingBlock: XUDNAN_clean_linker_2, # of connection points: 2
#     Edge 22, Type (0, 0), BuildingBlock: XUDNAN_clean_linker_2, # of connection points: 2
#     Edge 23, Type (0, 0), BuildingBlock: XUDNAN_clean_linker_2, # of connection points: 2
#     Edge 24, Type (0, 0), BuildingBlock: XUDNAN_clean_linker_2, # of connection points: 2
#     Edge 25, Type (0, 0), BuildingBlock: XUDNAN_clean_linker_2, # of connection points: 2
#     Edge 26, Type (0, 0), BuildingBlock: XUDNAN_clean_linker_2, # of connection points: 2
#     Edge 27, Type (0, 0), BuildingBlock: XUDNAN_clean_linker_2, # of connection points: 2
#     Edge 28, Type (0, 0), BuildingBlock: XUDNAN_clean_linker_2, # of connection points: 2
#     Edge 29, Type (0, 0), BuildingBlock: XUDNAN_clean_linker_2, # of connection points: 2
#     Edge 30, Type (0, 0), BuildingBlock: XUDNAN_clean_linker_2, # of connection points: 2
#     Edge 31, Type (0, 0), BuildingBlock: XUDNAN_clean_linker_2, # of connection points: 2
#     Edge 32, Type (0, 0), BuildingBlock: XUDNAN_clean_linker_2, # of connection points: 2
#     Edge 33, Type (0, 0), BuildingBlock: XUDNAN_clean_linker_2, # of connection points: 2
#     Edge 34, Type (0, 0), BuildingBlock: XUDNAN_clean_linker_2, # of connection points: 2
#     Edge 35, Type (0, 0), BuildingBlock: XUDNAN_clean_linker_2, # of connection points: 2
# Relax obj value: 0.179
# Max RMSD: 0.176
# Mean RMSD: 0.176
data_MOF--net-umo--node1-ESEHIV_clean_sbu_0--edge1-XUDNAN_clean_linker_2
_symmetry_space_group_name_H-M    P1
_symmetry_Int_Tables_number       1
_symmetry_cell_setting            triclinic
loop_
_symmetry_equiv_pos_as_xyz
'x, y, z'
_cell_length_a     57.151512
_cell_length_b     56.594027
_cell_length_c     34.516254
_cell_angle_alpha  89.860247
_cell_angle_beta   90.245724
_cell_angle_gamma 120.15185
loop_
_atom_site_label
_atom_site_type_symbol
_atom_site_fract_x
_atom_site_fract_y
_atom_site_fract_z
_atom_type_partial_charge
Cu0 Cu 0.18571 0.58561 0.37697 0.0
N1 N 0.20924 0.62033 0.35682 0.0
N2 N 0.24817 0.65654 0.33782 0.0
C3 C 0.23521 0.6297 0.34675 0.0
C4 C 0.22961 0.66439 0.34252 0.0
C5 C 0.20561 0.642 0.35422 0.0
O6 O 0.20008 0.56295 0.35826 0.0
C7 C 0.17376 0.57286 0.45864 0.0
O8 O 0.15643 0.54781 0.44773 0.0
H9 H 0.24488 0.61746 0.34828 0.0
H10 H 0.18716 0.64178 0.36185 0.0
N11 N 0.15027 0.57249 0.35776 0.0
N12 N 0.10565 0.54667 0.34626 0.0
C13 C 0.12678 0.55015 0.36838 0.0
C14 C 0.14361 0.58331 0.32786 0.0
C15 C 0.11625 0.56752 0.32071 0.0
C16 C 0.2017 0.56199 0.32152 0.0
O17 O 0.19084 0.57322 0.30006 0.0
H18 H 0.12523 0.53622 0.39098 0.0
H19 H 0.15778 0.60128 0.31186 0.0
O20 O 0.18795 0.59064 0.43327 0.0
H21 H 0.23335 0.68501 0.33894 0.0
H22 H 0.105 0.57123 0.29858 0.0
Cu23 Cu 0.62239 0.18839 0.56189 0.0
N24 N 0.59615 0.19793 0.55235 0.0
N25 N 0.57971 0.22619 0.54771 0.0
C26 C 0.6012 0.22292 0.54159 0.0
C27 C 0.56035 0.20235 0.56279 0.0
C28 C 0.57053 0.18486 0.56546 0.0
O29 O 0.65701 0.22137 0.55166 0.0
C30 C 0.62363 0.19503 0.64275 0.0
O31 O 0.63655 0.22114 0.63386 0.0
H32 H 0.62105 0.23929 0.53333 0.0
H33 H 0.56086 0.16499 0.57921 0.0
N34 N 0.6164 0.15905 0.53007 0.0
N35 N 0.60398 0.11662 0.51008 0.0
C36 C 0.60736 0.13294 0.5408 0.0
C37 C 0.61883 0.15937 0.49134 0.0
C38 C 0.61128 0.13333 0.47894 0.0
C39 C 0.67763 0.22265 0.53564 0.0
O40 O 0.67747 0.19994 0.52727 0.0
H41 H 0.60323 0.12616 0.57059 0.0
H42 H 0.62523 0.17723 0.47332 0.0
O43 O 0.61759 0.17748 0.61594 0.0
H44 H 0.54097 0.19853 0.57345 0.0
H45 H 0.6105 0.12716 0.4491 0.0
Cu46 Cu 0.46667 0.63524 0.72904 0.0
N47 N 0.43646 0.60228 0.71463 0.0
N48 N 0.39191 0.57482 0.70739 0.0
C49 C 0.4133 0.59993 0.70097 0.0
C50 C 0.40206 0.56067 0.72517 0.0
C51 C 0.42952 0.57764 0.7296 0.0
O52 O 0.46764 0.66462 0.69772 0.0
C53 C 0.44013 0.63635 0.79672 0.0
O54 O 0.42265 0.63571 0.7713 0.0
H55 H 0.41151 0.61737 0.69232 0.0
H56 H 0.44262 0.57343 0.74737 0.0
N57 N 0.49837 0.63418 0.71989 0.0
N58 N 0.52744 0.61943 0.70799 0.0
C59 C 0.50151 0.61223 0.71585 0.0
C60 C 0.52308 0.65601 0.71435 0.0
C61 C 0.54102 0.64704 0.70704 0.0
C62 C 0.47042 0.68689 0.71094 0.0
O63 O 0.47271 0.69117 0.7485 0.0
H64 H 0.48511 0.59145 0.71863 0.0
H65 H 0.52761 0.677 0.71504 0.0
O66 O 0.46213 0.63845 0.78453 0.0
H67 H 0.39005 0.54073 0.7383 0.0
H68 H 0.5623 0.65998 0.70069 0.0
Cu69 Cu 0.86715 0.488 0.92555 0.0
N70 N 0.86128 0.45249 0.92189 0.0
N71 N 0.83736 0.40686 0.92201 0.0
C72 C 0.8378 0.43011 0.91186 0.0
C73 C 0.8615 0.41481 0.9389 0.0
C74 C 0.87627 0.44299 0.93865 0.0
O75 O 0.84773 0.49478 0.8844 0.0
C76 C 0.87219 0.49439 1.0055 0.0
O77 O 0.89567 0.49675 0.99712 0.0
H78 H 0.82046 0.43082 0.90064 0.0
H79 H 0.89566 0.45563 0.95248 0.0
N80 N 0.90377 0.51429 0.91954 0.0
N81 N 0.94829 0.53627 0.9077 0.0
C82 C 0.92487 0.51194 0.90698 0.0
C83 C 0.91414 0.54087 0.92805 0.0
C84 C 0.94148 0.55444 0.92089 0.0
C85 C 0.8223 0.48484 0.88083 0.0
O86 O 0.80597 0.46844 0.9077 0.0
H87 H 0.92313 0.49281 0.89805 0.0
H88 H 0.90251 0.54973 0.93884 0.0
O89 O 0.85599 0.49123 0.97784 0.0
H90 H 0.86738 0.40127 0.95237 0.0
H91 H 0.95518 0.57613 0.9246 0.0
Cu92 Cu 0.40752 0.84674 0.08789 0.0
N93 N 0.38261 0.81912 0.12017 0.0
N94 N 0.37284 0.78216 0.15588 0.0
C95 C 0.3844 0.7964 0.12332 0.0
C96 C 0.36226 0.796 0.17342 0.0
C97 C 0.36871 0.81912 0.15157 0.0
O98 O 0.40074 0.8294 0.03676 0.0
C99 C 0.45338 0.87426 0.13809 0.0
O100 O 0.45057 0.89575 0.13442 0.0
H101 H 0.39639 0.79195 0.10367 0.0
H102 H 0.36603 0.83597 0.16018 0.0
N103 N 0.40463 0.87841 0.08392 0.0
N104 N 0.41567 0.9214 0.06927 0.0
C105 C 0.42387 0.90281 0.06987 0.0
C106 C 0.38334 0.88162 0.09181 0.0
C107 C 0.39007 0.90811 0.08269 0.0
C108 C 0.37658 0.81977 0.02408 0.0
O109 O 0.35962 0.82375 0.04481 0.0
H110 H 0.44351 0.90683 0.06008 0.0
H111 H 0.36419 0.86576 0.10308 0.0
O112 O 0.44088 0.85427 0.11469 0.0
H113 H 0.35299 0.79128 0.20178 0.0
H114 H 0.37731 0.91704 0.08614 0.0
Cu115 Cu 0.57973 0.3982 0.23628 0.0
N116 N 0.57632 0.36816 0.26403 0.0
N117 N 0.59231 0.34077 0.28158 0.0
C118 C 0.58902 0.35477 0.25254 0.0
C119 C 0.58118 0.34544 0.31292 0.0
C120 C 0.57123 0.36231 0.30197 0.0
O121 O 0.5883 0.39197 0.18381 0.0
C122 C 0.60114 0.43691 0.29471 0.0
O123 O 0.57521 0.42562 0.30226 0.0
H124 H 0.5989 0.35813 0.22476 0.0
H125 H 0.56355 0.3719 0.32116 0.0
N126 N 0.54812 0.40081 0.23504 0.0
N127 N 0.52124 0.41898 0.2291 0.0
C128 C 0.54668 0.42327 0.22585 0.0
C129 C 0.52273 0.38161 0.24436 0.0
C130 C 0.50612 0.39269 0.2406 0.0
C131 C 0.57045 0.36921 0.16925 0.0
O132 O 0.54747 0.35487 0.1878 0.0
H133 H 0.56407 0.44242 0.21716 0.0
H134 H 0.51679 0.36111 0.25376 0.0
O135 O 0.60841 0.42942 0.26439 0.0
H136 H 0.58211 0.33898 0.34215 0.0
H137 H 0.48468 0.38235 0.24683 0.0
Cu138 Cu 0.47684 0.84475 0.44492 0.0
N139 N 0.46905 0.8206 0.40364 0.0
N140 N 0.4395 0.78631 0.36611 0.0
C141 C 0.44413 0.7987 0.4008 0.0
C142 C 0.46284 0.80063 0.3463 0.0
C143 C 0.48111 0.822 0.36956 0.0
O144 O 0.47592 0.82627 0.49345 0.0
C145 C 0.43586 0.85589 0.41546 0.0
O146 O 0.41399 0.8576 0.42037 0.0
H147 H 0.42897 0.79315 0.42309 0.0
H148 H 0.50081 0.83841 0.36104 0.0
N149 N 0.5089 0.8786 0.44259 0.0
N150 N 0.53624 0.92315 0.45512 0.0
C151 C 0.51256 0.90034 0.4633 0.0
C152 C 0.53119 0.88781 0.42054 0.0
C153 C 0.54805 0.91537 0.4281 0.0
C154 C 0.48138 0.80703 0.49539 0.0
O155 O 0.48864 0.79952 0.4638 0.0
H156 H 0.4975 0.89956 0.48298 0.0
H157 H 0.53472 0.8756 0.39994 0.0
O158 O 0.44703 0.85208 0.44512 0.0
H159 H 0.46574 0.79725 0.31629 0.0
H160 H 0.56744 0.92861 0.41469 0.0
Cu161 Cu 0.66579 0.48376 0.63392 0.0
N162 N 0.6362 0.44843 0.63422 0.0
N163 N 0.61073 0.40477 0.61644 0.0
C164 C 0.63309 0.42899 0.60905 0.0
C165 C 0.59931 0.40917 0.64773 0.0
C166 C 0.61507 0.43625 0.65859 0.0
O167 O 0.6939 0.48376 0.66611 0.0
C168 C 0.65875 0.49267 0.55685 0.0
O169 O 0.6366 0.49024 0.57196 0.0
H170 H 0.64762 0.43242 0.58658 0.0
H171 H 0.61167 0.44621 0.68285 0.0
N172 N 0.65706 0.50879 0.65512 0.0
N173 N 0.63547 0.53104 0.67223 0.0
C174 C 0.63356 0.50902 0.65379 0.0
C175 C 0.67425 0.53115 0.67539 0.0
C176 C 0.66109 0.54486 0.68597 0.0
C177 C 0.71892 0.5013 0.66285 0.0
O178 O 0.72671 0.51974 0.63525 0.0
H179 H 0.61564 0.49357 0.6391 0.0
H180 H 0.695 0.53709 0.68201 0.0
O181 O 0.67608 0.49199 0.57947 0.0
H182 H 0.58104 0.39393 0.66191 0.0
H183 H 0.6698 0.56348 0.70282 0.0
Cu184 Cu 0.2141 0.64319 0.80681 0.0
N185 N 0.22452 0.61697 0.81154 0.0
N186 N 0.24247 0.59116 0.79596 0.0
C187 C 0.23613 0.60988 0.7836 0.0
C188 C 0.23431 0.58612 0.83325 0.0
C189 C 0.22313 0.60203 0.84273 0.0
O190 O 0.24374 0.67858 0.82512 0.0
C191 C 0.2169 0.64892 0.72308 0.0
O192 O 0.24331 0.66369 0.72687 0.0
H193 H 0.24099 0.61927 0.75529 0.0
H194 H 0.21503 0.60305 0.87054 0.0
N195 N 0.18425 0.63295 0.83881 0.0
N196 N 0.1417 0.61362 0.86052 0.0
C197 C 0.15786 0.61632 0.83027 0.0
C198 C 0.18487 0.64093 0.87563 0.0
C199 C 0.15871 0.6291 0.88908 0.0
C200 C 0.26865 0.68554 0.82238 0.0
O201 O 0.27523 0.67004 0.80237 0.0
H202 H 0.1507 0.60679 0.80225 0.0
H203 H 0.20314 0.65441 0.89155 0.0
O204 O 0.20211 0.64123 0.75325 0.0
H205 H 0.23658 0.57228 0.85249 0.0
H206 H 0.15276 0.63149 0.91787 0.0
Cu207 Cu 0.59197 0.19374 0.99089 0.0
N208 N 0.62935 0.20923 0.99751 0.0
N209 N 0.6733 0.23741 0.98498 0.0
C210 C 0.64761 0.22703 0.97227 0.0
C211 C 0.67105 0.22532 1.01967 0.0
C212 C 0.64392 0.20794 0.0273 0.0
O213 O 0.58288 0.2203 1.01161 0.0
C214 C 0.56623 0.17733 0.91435 0.0
O215 O 0.5423 0.16467 0.93075 0.0
H216 H 0.64192 0.23311 0.94577 0.0
H217 H 0.63553 0.19588 0.0532 0.0
N218 N 0.57305 0.15992 1.01713 0.0
N219 N 0.54505 0.11579 0.03199 0.0
C220 C 0.55399 0.13508 1.00385 0.0
C221 C 0.57602 0.15603 0.05492 0.0
C222 C 0.55899 0.12893 0.06409 0.0
C223 C 0.59311 0.24396 0.99627 0.0
O224 O 0.60725 0.24889 0.96435 0.0
H225 H 0.54689 0.13105 0.97423 0.0
H226 H 0.58934 0.17196 0.07472 0.0
O227 O 0.58745 0.18998 0.93498 0.0
H228 H 0.6877 0.22905 0.0386 0.0
H229 H 0.55641 0.11976 0.09247 0.0
Cu230 Cu 0.39215 0.56564 0.14786 0.0
N231 N 0.4119 0.59931 0.17312 0.0
N232 N 0.4172 0.6393 0.19376 0.0
C233 C 0.39972 0.61253 0.18747 0.0
C234 C 0.44162 0.64304 0.1834 0.0
C235 C 0.43828 0.61834 0.17063 0.0
O236 O 0.35679 0.54774 0.17263 0.0
C237 C 0.41034 0.58214 0.0717 0.0
O238 O 0.43259 0.58422 0.0862 0.0
H239 H 0.37801 0.60337 0.18928 0.0
H240 H 0.45355 0.6151 0.15734 0.0
N241 N 0.40619 0.54184 0.14996 0.0
N242 N 0.42717 0.51812 0.16279 0.0
C243 C 0.42563 0.54077 0.17123 0.0
C244 C 0.39553 0.51945 0.12744 0.0
C245 C 0.40828 0.50491 0.13514 0.0
C246 C 0.33833 0.55295 0.16301 0.0
O247 O 0.34209 0.56845 0.13258 0.0
H248 H 0.43794 0.55583 0.19279 0.0
H249 H 0.37932 0.51404 0.10679 0.0
O250 O 0.3897 0.57377 0.09349 0.0
H251 H 0.46026 0.66253 0.18266 0.0
H252 H 0.40412 0.48612 0.12105 0.0
Cu253 Cu 0.834 0.39767 0.31755 0.0
N254 N 0.80467 0.36782 0.29398 0.0
N255 N 0.76071 0.34125 0.27987 0.0
C256 C 0.77962 0.36398 0.298 0.0
C257 C 0.77454 0.33031 0.26345 0.0
C258 C 0.80175 0.3467 0.27248 0.0
O259 O 0.82364 0.39141 0.3719 0.0
C260 C 0.85508 0.44855 0.27749 0.0
O261 O 0.87898 0.45276 0.288 0.0
H262 H 0.77552 0.37806 0.31361 0.0
H263 H 0.81806 0.34333 0.26415 0.0
N264 N 0.86748 0.39968 0.30922 0.0
N265 N 0.91231 0.41663 0.31321 0.0
C266 C 0.88992 0.4133 0.3314 0.0
C267 C 0.87593 0.3939 0.27613 0.0
C268 C 0.9035 0.40427 0.27851 0.0
C269 C 0.82165 0.36947 0.38543 0.0
O270 O 0.83153 0.35702 0.3648 0.0
H271 H 0.89017 0.42267 0.35882 0.0
H272 H 0.86332 0.38458 0.25094 0.0
O273 O 0.83401 0.42862 0.29235 0.0
H274 H 0.76566 0.31171 0.24652 0.0
H275 H 0.91626 0.40382 0.25577 0.0
H276 H 0.28002 0.70849 0.36262 0.0
H277 H 0.28126 0.6432 0.29919 0.0
H278 H 0.33114 0.6715 0.29322 0.0
H279 H 0.33734 0.76679 0.31107 0.0
H280 H 0.34934 0.78631 0.35517 0.0
H281 H 0.31369 0.76273 0.34852 0.0
H282 H 0.31299 0.73837 0.41276 0.0
H283 H 0.34856 0.76172 0.41934 0.0
H284 H 0.3359 0.72543 0.41874 0.0
H285 H 0.38207 0.70726 0.29721 0.0
H286 H 0.428 0.74399 0.31729 0.0
H287 H 0.39173 0.78279 0.38207 0.0
C288 C 0.29067 0.70048 0.3464 0.0
C289 C 0.27676 0.67382 0.33093 0.0
C290 C 0.29157 0.66365 0.31115 0.0
C291 C 0.31986 0.67966 0.30737 0.0
C292 C 0.33304 0.70577 0.3236 0.0
C293 C 0.31881 0.716 0.34285 0.0
C294 C 0.33764 0.74325 0.36151 0.0
C295 C 0.33429 0.76611 0.34295 0.0
C296 C 0.33352 0.7421 0.40569 0.0
C297 C 0.36466 0.74628 0.35121 0.0
C298 C 0.36184 0.72506 0.32824 0.0
C299 C 0.38441 0.72392 0.31525 0.0
C300 C 0.41037 0.74478 0.32673 0.0
C301 C 0.41335 0.76594 0.35169 0.0
C302 C 0.39011 0.76665 0.36353 0.0
H303 H 0.56355 0.24727 0.60491 0.0
H304 H 0.59893 0.26353 0.49045 0.0
H305 H 0.60536 0.3102 0.49256 0.0
H306 H 0.53045 0.28973 0.59757 0.0
H307 H 0.53902 0.30139 0.64691 0.0
H308 H 0.53293 0.26797 0.6336 0.0
H309 H 0.57997 0.28017 0.66097 0.0
H310 H 0.58625 0.31358 0.67419 0.0
H311 H 0.60973 0.31018 0.64328 0.0
H312 H 0.6119 0.35597 0.50967 0.0
H313 H 0.62046 0.39854 0.54144 0.0
H314 H 0.58305 0.35335 0.64663 0.0
C315 C 0.57173 0.26041 0.57983 0.0
C316 C 0.58023 0.25182 0.5471 0.0
C317 C 0.59201 0.26982 0.51543 0.0
C318 C 0.59563 0.29622 0.5164 0.0
C319 C 0.58755 0.30432 0.54946 0.0
C320 C 0.5759 0.28698 0.58067 0.0
C321 C 0.572 0.30172 0.61445 0.0
C322 C 0.5418 0.28947 0.62366 0.0
C323 C 0.58794 0.3014 0.65032 0.0
C324 C 0.58389 0.33023 0.59772 0.0
C325 C 0.59229 0.33114 0.55997 0.0
C326 C 0.60523 0.35546 0.53911 0.0
C327 C 0.6102 0.37959 0.55753 0.0
C328 C 0.60257 0.37936 0.59663 0.0
C329 C 0.58873 0.35418 0.61659 0.0
H330 H 0.27494 0.57325 0.82596 0.0
H331 H 0.24556 0.5881 0.71772 0.0
H332 H 0.27731 0.57904 0.68167 0.0
H333 H 0.34187 0.60576 0.80303 0.0
H334 H 0.34943 0.5819 0.8266 0.0
H335 H 0.32171 0.58555 0.84332 0.0
H336 H 0.28922 0.5335 0.83388 0.0
H337 H 0.31708 0.52989 0.81697 0.0
H338 H 0.28723 0.51821 0.78733 0.0
H339 H 0.31756 0.57677 0.65854 0.0
H340 H 0.36149 0.5784 0.65037 0.0
H341 H 0.36247 0.56183 0.77255 0.0
C342 C 0.27445 0.57366 0.79466 0.0
C343 C 0.25784 0.58162 0.77479 0.0
C344 C 0.25837 0.5825 0.73372 0.0
C345 C 0.27618 0.57713 0.7129 0.0
C346 C 0.29299 0.57035 0.73348 0.0
C347 C 0.29196 0.56814 0.77343 0.0
C348 C 0.31367 0.56273 0.78882 0.0
C349 C 0.33279 0.58534 0.81707 0.0
C350 C 0.30104 0.53439 0.80787 0.0
C351 C 0.32787 0.56359 0.75149 0.0
C352 C 0.31551 0.56775 0.71979 0.0
C353 C 0.32691 0.57257 0.68289 0.0
C354 C 0.35176 0.5735 0.67843 0.0
C355 C 0.36463 0.56933 0.71056 0.0
C356 C 0.35228 0.56384 0.74731 0.0
H357 H 0.81899 0.37103 0.98175 0.0
H358 H 0.80228 0.38266 0.86298 0.0
H359 H 0.75998 0.33763 0.86428 0.0
H360 H 0.79004 0.29625 0.97873 0.0
H361 H 0.77585 0.29145 0.0266 0.0
H362 H 0.80633 0.32278 1.01461 0.0
H363 H 0.78372 0.35056 0.03549 0.0
H364 H 0.75323 0.31938 0.04751 0.0
H365 H 0.75198 0.34306 1.01373 0.0
H366 H 0.71877 0.29248 0.87969 0.0
H367 H 0.67983 0.25247 0.90893 0.0
H368 H 0.72188 0.27198 1.01966 0.0
C369 C 0.80672 0.36367 0.95578 0.0
C370 C 0.81399 0.37989 0.92194 0.0
C371 C 0.79703 0.37024 0.88891 0.0
C372 C 0.77312 0.34474 0.88942 0.0
C373 C 0.76633 0.32932 0.92341 0.0
C374 C 0.78253 0.33851 0.9561 0.0
C375 C 0.76934 0.3193 0.99002 0.0
C376 C 0.78641 0.3067 1.00326 0.0
C377 C 0.76426 0.33395 0.02366 0.0
C378 C 0.74304 0.29804 0.97146 0.0
C379 C 0.74192 0.30398 0.93288 0.0
C380 C 0.71941 0.28768 0.90991 0.0
C381 C 0.69724 0.26504 0.92697 0.0
C382 C 0.69742 0.25904 0.96691 0.0
C383 C 0.72097 0.27564 0.98908 0.0
H384 H 0.41566 0.77463 0.14413 0.0
H385 H 0.33913 0.74111 0.20455 0.0
H386 H 0.34483 0.7028 0.22808 0.0
H387 H 0.40724 0.71326 0.10958 0.0
H388 H 0.44226 0.72275 0.11513 0.0
H389 H 0.43337 0.7487 0.10751 0.0
H390 H 0.45894 0.77315 0.17043 0.0
H391 H 0.46782 0.74713 0.17842 0.0
H392 H 0.45026 0.7545 0.21547 0.0
H393 H 0.35692 0.66535 0.23824 0.0
H394 H 0.37406 0.63307 0.235 0.0
H395 H 0.44237 0.6917 0.16697 0.0
C396 C 0.39994 0.75925 0.16218 0.0
C397 C 0.37659 0.76061 0.1718 0.0
C398 C 0.35709 0.74044 0.19665 0.0
C399 C 0.36022 0.71865 0.21017 0.0
C400 C 0.38318 0.71759 0.19905 0.0
C401 C 0.40279 0.73757 0.17586 0.0
C402 C 0.42487 0.73125 0.16609 0.0
C403 C 0.42704 0.72884 0.12197 0.0
C404 C 0.45209 0.75279 0.18366 0.0
C405 C 0.41417 0.70391 0.186 0.0
C406 C 0.39029 0.69649 0.20535 0.0
C407 C 0.37579 0.67121 0.22367 0.0
C408 C 0.38563 0.65293 0.2215 0.0
C409 C 0.40967 0.65981 0.20086 0.0
C410 C 0.42433 0.68597 0.18372 0.0
H411 H 0.73077 0.34995 0.3328 0.0
H412 H 0.72586 0.31224 0.22157 0.0
H413 H 0.67844 0.30162 0.21445 0.0
H414 H 0.65937 0.30395 0.36269 0.0
H415 H 0.65725 0.33163 0.38479 0.0
H416 H 0.68913 0.33233 0.38372 0.0
H417 H 0.71144 0.37956 0.3498 0.0
H418 H 0.67974 0.37904 0.35083 0.0
H419 H 0.69693 0.38344 0.30543 0.0
H420 H 0.63417 0.30144 0.21516 0.0
H421 H 0.59698 0.31133 0.22393 0.0
H422 H 0.63071 0.34889 0.33482 0.0
C423 C 0.71966 0.33913 0.30713 0.0
C424 C 0.73213 0.33201 0.27764 0.0
C425 C 0.7167 0.31764 0.24472 0.0
C426 C 0.68975 0.31157 0.24043 0.0
C427 C 0.67839 0.31966 0.26957 0.0
C428 C 0.69282 0.33292 0.30248 0.0
C429 C 0.67691 0.34152 0.32807 0.0
C430 C 0.67027 0.32645 0.36713 0.0
C431 C 0.69216 0.37273 0.33384 0.0
C432 C 0.65164 0.33205 0.30371 0.0
C433 C 0.65271 0.31916 0.27029 0.0
C434 C 0.63287 0.31094 0.24161 0.0
C435 C 0.61184 0.31662 0.24679 0.0
C436 C 0.61073 0.33038 0.28035 0.0
C437 C 0.63055 0.33752 0.30954 0.0
H438 H 0.2412 0.66108 0.65098 0.0
H439 H 0.16489 0.6084 0.70873 0.0
H440 H 0.14578 0.58378 0.64753 0.0
H441 H 0.21091 0.66493 0.5583 0.0
H442 H 0.23725 0.6649 0.52981 0.0
H443 H 0.24464 0.67929 0.57786 0.0
H444 H 0.26285 0.64715 0.59681 0.0
H445 H 0.25523 0.63243 0.54901 0.0
H446 H 0.24138 0.61076 0.59092 0.0
H447 H 0.13615 0.56195 0.58187 0.0
H448 H 0.13484 0.54788 0.51387 0.0
H449 H 0.21616 0.61605 0.49678 0.0
C450 C 0.22033 0.64467 0.65062 0.0
C451 C 0.2046 0.63676 0.68487 0.0
C452 C 0.17739 0.61503 0.68303 0.0
C453 C 0.16634 0.60079 0.64836 0.0
C454 C 0.18256 0.60866 0.61545 0.0
C455 C 0.2088 0.6304 0.61602 0.0
C456 C 0.22183 0.63455 0.57643 0.0
C457 C 0.22908 0.66258 0.55961 0.0
C458 C 0.24679 0.63101 0.57843 0.0
C459 C 0.19896 0.61148 0.55378 0.0
C460 C 0.17658 0.59667 0.577 0.0
C461 C 0.15341 0.57361 0.56326 0.0
C462 C 0.15292 0.56567 0.52463 0.0
C463 C 0.1753 0.58092 0.49991 0.0
C464 C 0.19862 0.60414 0.51484 0.0
H465 H 0.64142 0.22418 0.71044 0.0
H466 H 0.57982 0.14624 0.6638 0.0
H467 H 0.55762 0.13358 0.72781 0.0
H468 H 0.64593 0.19752 0.80511 0.0
H469 H 0.65146 0.22771 0.83049 0.0
H470 H 0.66257 0.23024 0.78111 0.0
H471 H 0.63479 0.25328 0.76206 0.0
H472 H 0.62331 0.25046 0.81126 0.0
H473 H 0.59906 0.23604 0.7723 0.0
H474 H 0.54013 0.13102 0.79595 0.0
H475 H 0.53246 0.13601 0.86532 0.0
H476 H 0.6071 0.21417 0.86825 0.0
C477 C 0.62343 0.20432 0.71383 0.0
C478 C 0.61234 0.1862 0.68213 0.0
C479 C 0.58881 0.16037 0.68774 0.0
C480 C 0.57594 0.15307 0.72393 0.0
C481 C 0.58709 0.17164 0.75439 0.0
C482 C 0.61063 0.1965 0.74993 0.0
C483 C 0.61877 0.21252 0.78749 0.0
C484 C 0.64631 0.21726 0.8019 0.0
C485 C 0.61898 0.23968 0.78299 0.0
C486 C 0.59598 0.19292 0.81365 0.0
C487 C 0.5777 0.16962 0.79393 0.0
C488 C 0.55448 0.14905 0.81179 0.0
C489 C 0.55017 0.15213 0.85108 0.0
C490 C 0.56922 0.17539 0.87211 0.0
C491 C 0.59228 0.19606 0.85294 0.0
H492 H 0.44948 0.59601 1.01632 0.0
H493 H 0.37026 0.58694 0.03464 0.0
H494 H 0.37028 0.60181 0.96719 0.0
H495 H 0.47643 0.65592 0.95582 0.0
H496 H 0.49449 0.64509 0.92461 0.0
H497 H 0.48845 0.63412 0.97443 0.0
H498 H 0.46514 0.58353 0.95251 0.0
H499 H 0.47127 0.59435 0.90266 0.0
H500 H 0.43734 0.57081 0.91861 0.0
H501 H 0.37901 0.61769 0.89759 0.0
H502 H 0.39454 0.63102 0.83039 0.0
H503 H 0.4679 0.62913 0.85704 0.0
C504 C 0.43211 0.59717 1.00624 0.0
C505 C 0.40986 0.59035 0.03091 0.0
C506 C 0.38751 0.59201 1.01636 0.0
C507 C 0.38739 0.60053 0.9781 0.0
C508 C 0.40973 0.60725 0.95469 0.0
C509 C 0.4316 0.6055 0.96813 0.0
C510 C 0.45279 0.61324 0.93681 0.0
C511 C 0.47962 0.6386 0.94863 0.0
C512 C 0.45686 0.58904 0.92707 0.0
C513 C 0.43942 0.61961 0.90355 0.0
C514 C 0.41466 0.61616 0.91456 0.0
C515 C 0.39838 0.62048 0.88873 0.0
C516 C 0.40743 0.62809 0.85055 0.0
C517 C 0.43248 0.63119 0.83829 0.0
C518 C 0.44877 0.62716 0.86546 0.0
H519 H 0.8956 0.48224 0.22826 0.0
H520 H 0.80866 0.44262 0.24365 0.0
H521 H 0.80398 0.45606 0.17713 0.0
H522 H 0.90342 0.53873 0.16242 0.0
H523 H 0.92869 0.53646 0.13422 0.0
H524 H 0.92555 0.52873 0.18529 0.0
H525 H 0.91986 0.4813 0.17013 0.0
H526 H 0.92267 0.48869 0.11917 0.0
H527 H 0.89336 0.45856 0.13752 0.0
H528 H 0.80832 0.46779 0.10518 0.0
H529 H 0.82139 0.47655 0.03597 0.0
H530 H 0.90518 0.50729 0.06853 0.0
C531 C 0.87564 0.47724 0.2183 0.0
C532 C 0.85253 0.46156 0.24146 0.0
C533 C 0.82673 0.45487 0.2267 0.0
C534 C 0.82386 0.46241 0.18887 0.0
C535 C 0.84699 0.47679 0.16618 0.0
C536 C 0.87243 0.48437 0.18061 0.0
C537 C 0.89375 0.49686 0.14935 0.0
C538 C 0.91405 0.52699 0.15836 0.0
C539 C 0.90824 0.48036 0.14372 0.0
C540 C 0.87628 0.4942 0.11471 0.0
C541 C 0.84942 0.48306 0.12493 0.0
C542 C 0.82938 0.47699 0.09704 0.0
C543 C 0.83697 0.48203 0.05777 0.0
C544 C 0.8643 0.49267 0.04679 0.0
C545 C 0.88412 0.49931 0.0759 0.0
H546 H 0.41998 0.83501 0.18787 0.0
H547 H 0.50089 0.90433 0.17771 0.0
H548 H 0.50768 0.90251 0.24845 0.0
H549 H 0.40552 0.86062 0.26972 0.0
H550 H 0.38326 0.82758 0.2907 0.0
H551 H 0.3878 0.83109 0.23913 0.0
H552 H 0.40296 0.79427 0.23936 0.0
H553 H 0.39673 0.79093 0.29052 0.0
H554 H 0.42933 0.79846 0.27221 0.0
H555 H 0.50262 0.89811 0.32103 0.0
H556 H 0.48625 0.89196 0.38847 0.0
H557 H 0.40767 0.82705 0.35177 0.0
C558 C 0.43956 0.84885 0.20029 0.0
C559 C 0.46034 0.86906 0.17721 0.0
C560 C 0.48514 0.88809 0.19478 0.0
C561 C 0.48905 0.88725 0.23494 0.0
C562 C 0.46771 0.86764 0.25719 0.0
C563 C 0.44336 0.84887 0.2404 0.0
C564 C 0.42209 0.83303 0.27085 0.0
C565 C 0.39828 0.8384 0.26738 0.0
C566 C 0.41226 0.80235 0.26814 0.0
C567 C 0.43821 0.84565 0.30755 0.0
C568 C 0.46456 0.86546 0.29909 0.0
C569 C 0.48238 0.88196 0.32804 0.0
C570 C 0.47309 0.87811 0.36644 0.0
C571 C 0.44632 0.85789 0.37571 0.0
C572 C 0.42864 0.84173 0.34572 0.0
H573 H 0.59368 0.46672 0.34921 0.0
H574 H 0.65129 0.44328 0.31113 0.0
H575 H 0.67739 0.46196 0.37198 0.0
H576 H 0.64278 0.52985 0.40485 0.0
H577 H 0.61771 0.52282 0.44148 0.0
H578 H 0.60743 0.51305 0.39189 0.0
H579 H 0.57536 0.46317 0.41409 0.0
H580 H 0.58572 0.47263 0.46348 0.0
H581 H 0.58899 0.4456 0.44142 0.0
H582 H 0.6921 0.47569 0.44267 0.0
H583 H 0.69439 0.4841 0.51345 0.0
H584 H 0.62686 0.49841 0.50345 0.0
C585 C 0.61237 0.46644 0.35299 0.0
C586 C 0.62061 0.4538 0.32533 0.0
C587 C 0.64489 0.45336 0.33162 0.0
C588 C 0.65975 0.46381 0.36623 0.0
C589 C 0.65027 0.47499 0.39385 0.0
C590 C 0.62732 0.47677 0.38711 0.0
C591 C 0.61943 0.48685 0.4225 0.0
C592 C 0.622 0.51481 0.41471 0.0
C593 C 0.59069 0.4658 0.43616 0.0
C594 C 0.64069 0.48927 0.45096 0.0
C595 C 0.65863 0.4828 0.43399 0.0
C596 C 0.67851 0.48138 0.45593 0.0
C597 C 0.67969 0.4862 0.49615 0.0
C598 C 0.66091 0.49206 0.51403 0.0
C599 C 0.64171 0.49425 0.49072 0.0
H600 H 0.9561 0.44806 0.26799 0.0
H601 H 0.93152 0.42375 0.38685 0.0
H602 H 0.979 0.4533 0.40851 0.0
H603 H 1.02146 0.45201 0.27387 0.0
H604 H 0.03787 0.48166 0.24302 0.0
H605 H 1.00229 0.45762 0.23705 0.0
H606 H 0.99166 0.49673 0.24564 0.0
H607 H 0.02717 0.52088 0.25169 0.0
H608 H 1.00348 0.51782 0.28842 0.0
H609 H 0.02976 0.48586 0.41681 0.0
H610 H 0.07838 0.52064 0.41156 0.0
H611 H 0.06908 0.5245 0.2874 0.0
C612 C 0.96075 0.4486 0.29851 0.0
C613 C 0.94011 0.43333 0.32574 0.0
C614 C 0.94699 0.43526 0.36554 0.0
C615 C 0.97392 0.4519 0.37804 0.0
C616 C 0.99376 0.46673 0.35041 0.0
C617 C 0.98743 0.46535 0.31148 0.0
C618 C 1.01218 0.48422 0.28778 0.0
C619 C 1.01884 0.4679 0.25872 0.0
C620 C 1.00839 0.50621 0.26718 0.0
C621 C 0.03347 0.49655 0.3194 0.0
C622 C 1.02256 0.486 0.3553 0.0
C623 C 0.03846 0.49423 0.38881 0.0
C624 C 0.06609 0.5139 0.38556 0.0
C625 C 0.07757 0.52541 0.34914 0.0
C626 C 0.0609 0.51637 0.31571 0.0
H627 H 0.56948 0.97246 0.42064 0.0
H628 H 0.5247 0.93524 0.52596 0.0
H629 H 0.53843 0.98086 0.55218 0.0
H630 H 0.62586 0.03227 0.4674 0.0
H631 H 0.62921 0.05506 0.42849 0.0
H632 H 0.61688 1.01946 0.4186 0.0
H633 H 0.57381 1.01536 0.38697 0.0
H634 H 0.58593 0.05089 0.39693 0.0
H635 H 0.55319 0.02515 0.41428 0.0
H636 H 0.55529 0.03038 0.56604 0.0
H637 H 0.57423 0.08017 0.56671 0.0
H638 H 0.60929 0.08589 0.4532 0.0
C639 C 0.56292 0.97392 0.44945 0.0
C640 C 0.54587 0.95011 0.47113 0.0
C641 C 0.53742 0.95303 0.50851 0.0
C642 C 0.54526 0.97892 0.5238 0.0
C643 C 0.56169 1.00188 0.50148 0.0
C644 C 0.57054 0.99969 0.46518 0.0
C645 C 0.58743 0.02766 0.44681 0.0
C646 C 0.61658 0.03398 0.43993 0.0
C647 C 0.5743 0.02988 0.40901 0.0
C648 C 0.58637 0.04582 0.47825 0.0
C649 C 0.57153 0.03052 0.5096 0.0
C650 C 0.56718 0.04261 0.54179 0.0
C651 C 0.57821 0.07107 0.54196 0.0
C652 C 0.59347 0.08735 0.51012 0.0
C653 C 0.59762 0.0743 0.47797 0.0
H654 H 0.58046 0.63274 0.7117 0.0
H655 H 0.49942 0.56516 0.68905 0.0
H656 H 0.51813 0.53489 0.67817 0.0
H657 H 0.61346 0.61517 0.63813 0.0
H658 H 0.64358 0.6258 0.66674 0.0
H659 H 0.6236 0.64191 0.67363 0.0
H660 H 0.6191 0.62972 0.74669 0.0
H661 H 0.63899 0.61348 0.74 0.0
H662 H 0.60575 0.59462 0.76111 0.0
H663 H 0.54608 0.51177 0.66965 0.0
H664 H 0.58075 0.4982 0.66379 0.0
H665 H 0.64328 0.58167 0.68886 0.0
C666 C 0.56652 0.61168 0.70415 0.0
C667 C 0.53832 0.60154 0.70144 0.0
C668 C 0.52101 0.57357 0.69196 0.0
C669 C 0.53148 0.55616 0.68546 0.0
C670 C 0.55934 0.56693 0.68834 0.0
C671 C 0.5766 0.59408 0.69735 0.0
C672 C 0.60578 0.60075 0.69831 0.0
C673 C 0.62259 0.62217 0.66736 0.0
C674 C 0.61812 0.61019 0.73895 0.0
C675 C 0.60226 0.57308 0.68852 0.0
C676 C 0.57535 0.5538 0.68293 0.0
C677 C 0.56724 0.52676 0.67381 0.0
C678 C 0.58716 0.51927 0.67032 0.0
C679 C 0.61496 0.53876 0.67583 0.0
C680 C 0.62236 0.56603 0.68496 0.0
H681 H 0.10875 0.62322 0.90637 0.0
H682 H 0.10808 0.56834 0.81829 0.0
H683 H 0.05812 0.54153 0.82151 0.0
H684 H 0.05416 0.572 0.96388 0.0
H685 H 0.04083 0.59398 0.97556 0.0
H686 H 0.07644 0.60848 0.96634 0.0
H687 H 0.07388 0.63933 0.91282 0.0
H688 H 0.03827 0.62492 0.92186 0.0
H689 H 0.04987 0.62391 0.87375 0.0
H690 H 1.00757 0.52057 0.835 0.0
H691 H 0.96147 0.50879 0.8555 0.0
H692 H 0.99618 0.57732 0.93515 0.0
C693 C 0.09821 0.60542 0.88802 0.0
C694 C 0.11248 0.5979 0.86215 0.0
C695 C 0.09768 0.57471 0.83809 0.0
C696 C 0.06927 0.55923 0.8399 0.0
C697 C 0.0559 0.56722 0.86586 0.0
C698 C 0.06995 0.58984 0.88939 0.0
C699 C 0.05094 0.59455 0.9143 0.0
C700 C 0.05589 0.5921 0.95758 0.0
C701 C 0.05339 0.62232 0.90511 0.0
C702 C 1.02394 0.5711 0.90109 0.0
C703 C 0.02713 0.55543 0.87329 0.0
C704 C 1.00489 0.53271 0.8568 0.0
C705 C 0.97877 0.52606 0.86877 0.0
C706 C 0.97509 0.54217 0.89681 0.0
C707 C 0.99815 0.5648 0.91326 0.0
H708 H 0.54336 0.07225 0.06819 0.0
H709 H 0.49831 0.09539 0.99096 0.0
H710 H 0.46014 0.04761 0.99111 0.0
H711 H 0.52066 1.00535 0.02425 0.0
H712 H 0.51947 0.98928 0.06993 0.0
H713 H 0.5432 0.02512 0.06306 0.0
H714 H 0.52393 0.03653 0.12341 0.0
H715 H 0.50006 1.00077 0.13035 0.0
H716 H 0.48821 0.02475 0.12573 0.0
H717 H 0.42527 0.99784 1.00466 0.0
H718 H 0.39867 0.94917 0.02447 0.0
H719 H 0.4677 0.95767 0.08872 0.0
C720 C 0.5255 0.06717 0.05116 0.0
C721 C 0.52373 0.08754 0.02962 0.0
C722 C 0.50015 0.08008 1.00738 0.0
C723 C 0.47834 0.05303 1.0075 0.0
C724 C 0.48058 0.03351 0.02947 0.0
C725 C 0.50378 0.04016 0.05035 0.0
C726 C 0.50126 1.01531 0.07111 0.0
C727 C 0.52241 1.00836 0.05619 0.0
C728 C 0.5035 1.01961 0.11526 0.0
C729 C 0.47287 0.99371 0.05921 0.0
C730 C 0.46115 1.00466 0.03551 0.0
C731 C 0.43443 0.98899 0.0227 0.0
C732 C 0.41943 0.96145 0.03417 0.0
C733 C 0.43126 0.94967 0.05764 0.0
C734 C 0.45837 0.96607 0.07013 0.0
H735 H 0.41563 0.46569 0.17169 0.0
H736 H 0.4788 0.54971 0.1897 0.0
H737 H 0.51008 0.5336 0.21064 0.0
H738 H 0.43308 0.43624 0.25282 0.0
H739 H 0.42483 0.40551 0.22658 0.0
H740 H 0.40747 0.42389 0.21551 0.0
H741 H 0.4216 0.42723 0.14357 0.0
H742 H 0.43912 0.409 0.15444 0.0
H743 H 0.45693 0.44212 0.13168 0.0
H744 H 0.53527 0.50751 0.22529 0.0
H745 H 0.55096 0.47446 0.23602 0.0
H746 H 0.47076 0.40785 0.20758 0.0
C747 C 0.43602 0.48078 0.18013 0.0
C748 C 0.4448 0.50905 0.1788 0.0
C749 C 0.47155 0.528 0.19075 0.0
C750 C 0.48947 0.51899 0.20245 0.0
C751 C 0.48025 0.49095 0.20242 0.0
C752 C 0.454 0.47216 0.19193 0.0
C753 C 0.44897 0.44321 0.1936 0.0
C754 C 0.4273 0.42622 0.22394 0.0
C755 C 0.44121 0.4296 0.15343 0.0
C756 C 0.47661 0.4485 0.20617 0.0
C757 C 0.49444 0.47613 0.21113 0.0
C758 C 0.52136 0.48585 0.22166 0.0
C759 C 0.53016 0.4669 0.22742 0.0
C760 C 0.51214 0.43843 0.22275 0.0
C761 C 0.485 0.42934 0.21199 0.0
H762 H 0.21881 0.57038 0.24662 0.0
H763 H 0.22564 0.53478 0.35452 0.0
H764 H 0.25851 0.52432 0.3236 0.0
H765 H 0.22603 0.52446 0.17983 0.0
H766 H 0.24602 0.55166 0.14631 0.0
H767 H 0.22098 0.55336 0.17583 0.0
H768 H 0.25767 0.60052 0.20231 0.0
H769 H 0.28279 0.59897 0.17295 0.0
H770 H 0.28774 0.60378 0.22457 0.0
H771 H 0.29326 0.52085 0.28125 0.0
H772 H 0.32762 0.52635 0.23319 0.0
H773 H 0.29807 0.5654 0.15428 0.0
C774 C 0.22669 0.55982 0.26367 0.0
C775 C 0.21935 0.55307 0.30293 0.0
C776 C 0.23076 0.53991 0.32432 0.0
C777 C 0.24941 0.53388 0.30695 0.0
C778 C 0.2565 0.54125 0.26827 0.0
C779 C 0.24545 0.554 0.24701 0.0
C780 C 0.25787 0.56194 0.20707 0.0
C781 C 0.23644 0.54695 0.1754 0.0
C782 C 0.27238 0.59314 0.20142 0.0
C783 C 0.27782 0.55185 0.20905 0.0
C784 C 0.27665 0.53976 0.24441 0.0
C785 C 0.29413 0.53005 0.25338 0.0
C786 C 0.31357 0.53322 0.22582 0.0
C787 C 0.31551 0.54619 0.18978 0.0
C788 C 0.297 0.55514 0.18129 0.0
H789 H 0.80938 0.31954 0.41384 0.0
H790 H 0.79093 0.38451 0.42937 0.0
H791 H 0.75473 0.35534 0.47561 0.0
H792 H 0.74333 0.26705 0.40977 0.0
H793 H 0.74892 0.24226 0.43462 0.0
H794 H 0.77607 0.26966 0.4082 0.0
H795 H 0.80614 0.28452 0.46985 0.0
H796 H 0.77913 0.25695 0.49649 0.0
H797 H 0.7938 0.29158 0.51377 0.0
H798 H 0.71715 0.31682 0.51455 0.0
H799 H 0.68181 0.27301 0.542 0.0
H800 H 0.72446 0.23312 0.49879 0.0
C801 C 0.7983 0.32805 0.42772 0.0
C802 C 0.80324 0.3545 0.41816 0.0
C803 C 0.7878 0.36449 0.43653 0.0
C804 C 0.76715 0.34801 0.4628 0.0
C805 C 0.76225 0.32165 0.47048 0.0
C806 C 0.77757 0.31185 0.4536 0.0
C807 C 0.76683 0.28207 0.46361 0.0
C808 C 0.75828 0.26422 0.42687 0.0
C809 C 0.78772 0.27858 0.48735 0.0
C810 C 0.74258 0.2763 0.48799 0.0
C811 C 0.74045 0.29946 0.49211 0.0
C812 C 0.71886 0.2987 0.51187 0.0
C813 C 0.69884 0.27366 0.52737 0.0
C814 C 0.70033 0.24953 0.52274 0.0
C815 C 0.72278 0.25114 0.5032 0.0
H816 H 0.47686 0.69004 0.63167 0.0
H817 H 0.46589 0.73146 0.72956 0.0
H818 H 0.46724 0.76654 0.68537 0.0
H819 H 0.52394 0.75113 0.58052 0.0
H820 H 0.51092 0.73701 0.53329 0.0
H821 H 0.50848 0.71486 0.57253 0.0
H822 H 0.45662 0.68591 0.56213 0.0
H823 H 0.4589 0.70796 0.52284 0.0
H824 H 0.43662 0.7024 0.56296 0.0
H825 H 0.46919 0.79698 0.62995 0.0
H826 H 0.47311 0.82099 0.56823 0.0
H827 H 0.48427 0.76048 0.50695 0.0
C828 C 0.47463 0.70642 0.64384 0.0
C829 C 0.47116 0.7079 0.68417 0.0
C830 C 0.46859 0.72986 0.69884 0.0
C831 C 0.46929 0.74989 0.67393 0.0
C832 C 0.47279 0.74786 0.63437 0.0
C833 C 0.47556 0.72675 0.61943 0.0
C834 C 0.47967 0.72959 0.57592 0.0
C835 C 0.5074 0.73338 0.56493 0.0
C836 C 0.45657 0.705 0.55472 0.0
C837 C 0.4786 0.75547 0.56866 0.0
C838 C 0.47452 0.76566 0.60271 0.0
C839 C 0.47249 0.78922 0.60314 0.0
C840 C 0.47472 0.80272 0.56791 0.0
C841 C 0.47911 0.79275 0.53266 0.0
C842 C 0.48108 0.76879 0.53332 0.0
H843 H 0.76892 0.46227 0.85773 0.0
H844 H 0.85098 0.52176 0.82386 0.0
H845 H 0.8335 0.53191 0.76455 0.0
H846 H 0.74465 0.4364 0.7618 0.0
H847 H 0.71155 0.4321 0.76944 0.0
H848 H 0.73033 0.42965 0.80976 0.0
H849 H 0.72609 0.46736 0.84596 0.0
H850 H 0.70721 0.46985 0.80581 0.0
H851 H 0.73737 0.49986 0.82266 0.0
H852 H 0.80731 0.5359 0.70886 0.0
H853 H 0.77409 0.53343 0.66072 0.0
H854 H 0.70892 0.47089 0.72968 0.0
C855 C 0.78321 0.47752 0.83794 0.0
C856 C 0.81137 0.49124 0.84564 0.0
C857 C 0.82934 0.51093 0.81875 0.0
C858 C 0.81961 0.51687 0.7849 0.0
C859 C 0.79182 0.5029 0.77809 0.0
C860 C 0.77384 0.48363 0.8038 0.0
C861 C 0.74493 0.47144 0.78931 0.0
C862 C 0.73212 0.44056 0.78215 0.0
C863 C 0.7279 0.4775 0.81762 0.0
C864 C 0.7495 0.48692 0.75153 0.0
C865 C 0.7767 0.50499 0.74567 0.0
C866 C 0.78595 0.52179 0.7131 0.0
C867 C 0.7669 0.52023 0.68588 0.0
C868 C 0.73886 0.50192 0.69123 0.0
C869 C 0.73019 0.48498 0.72453 0.0
H870 H 0.32489 0.79386 0.99543 0.0
H871 H 0.40489 0.80627 0.97243 0.0
H872 H 0.38653 0.77571 0.91532 0.0
H873 H 0.28858 0.7236 0.97269 0.0
H874 H 0.26025 0.72453 0.95121 0.0
H875 H 0.28016 0.74882 0.98819 0.0
H876 H 0.28907 0.78864 0.94205 0.0
H877 H 0.26918 0.76445 0.90486 0.0
H878 H 0.30354 0.79066 0.895 0.0
H879 H 0.35845 0.7417 0.86241 0.0
H880 H 0.32353 0.70669 0.81977 0.0
H881 H 0.26184 0.71649 0.8782 0.0
C882 C 0.33874 0.7905 0.97821 0.0
C883 C 0.36647 0.80268 0.98842 0.0
C884 C 0.38366 0.79734 0.96518 0.0
C885 C 0.37338 0.78002 0.93265 0.0
C886 C 0.34587 0.7682 0.9237 0.0
C887 C 0.32882 0.77326 0.94589 0.0
C888 C 0.29983 0.75714 0.93141 0.0
C889 C 0.28111 0.73735 0.96274 0.0
C890 C 0.28982 0.77638 0.9175 0.0
C891 C 0.30304 0.74185 0.89778 0.0
C892 C 0.32978 0.74864 0.89361 0.0
C893 C 0.33753 0.73642 0.86533 0.0
C894 C 0.31747 0.71651 0.84118 0.0
C895 C 0.28984 0.70882 0.84535 0.0
C896 C 0.28274 0.72206 0.87382 0.0
H897 H 0.5498 0.31468 0.15919 0.0
H898 H 0.60671 0.39324 0.10921 0.0
H899 H 0.61747 0.36955 0.05777 0.0
H900 H 0.59087 0.28437 0.14405 0.0
H901 H 0.56253 0.2508 0.13449 0.0
H902 H 0.55845 0.27398 0.16558 0.0
H903 H 0.5191 0.26912 0.12231 0.0
H904 H 0.52302 0.24593 0.09101 0.0
H905 H 0.52461 0.2762 0.07117 0.0
H906 H 0.62114 0.33658 1.01136 0.0
H907 H 0.62064 0.29817 0.97702 0.0
H908 H 0.563 0.24137 0.06031 0.0
C909 C 0.56428 0.32697 0.13712 0.0
C910 C 0.57708 0.35583 0.13769 0.0
C911 C 0.59651 0.37113 0.10904 0.0
C912 C 0.60268 0.35782 0.07976 0.0
C913 C 0.58956 0.32927 0.08006 0.0
C914 C 0.57101 0.31409 0.10835 0.0
C915 C 0.5608 0.28381 0.10371 0.0
C916 C 0.56864 0.27259 0.13905 0.0
C917 C 0.53006 0.26783 0.09662 0.0
C918 C 0.57616 0.28411 0.06792 0.0
C919 C 0.59251 0.3105 0.05456 0.0
C920 C 0.60847 0.31589 0.0217 0.0
C921 C 0.60795 0.29384 1.0023 0.0
C922 C 0.59176 0.26664 1.01588 0.0
C923 C 0.57558 0.26185 0.04911 0.0
loop_
_geom_bond_atom_site_label_1
_geom_bond_atom_site_label_2
_geom_bond_distance
_geom_bond_site_symmetry_2
_ccdc_geom_bond_type
Cu0 N1 1.999 . S
Cu0 O6 1.974 . S
Cu0 N11 1.985 . S
Cu0 O20 1.959 . S
N1 Cu0 1.999 . S
N1 C3 1.263 . S
N1 C5 1.389 . S
N2 C3 1.358 . S
N2 C4 1.400 . S
C3 N1 1.263 . S
C3 N2 1.358 . S
C3 H9 0.930 . S
C4 N2 1.400 . S
C4 C5 1.351 . S
C4 H21 0.930 . S
C5 N1 1.389 . S
C5 C4 1.351 . S
C5 H10 0.930 . S
O6 Cu0 1.974 . S
O6 C16 1.282 . S
C7 O8 1.261 . S
C7 O20 1.251 . S
O8 C7 1.261 . S
H9 C3 0.930 . S
H10 C5 0.930 . S
N11 Cu0 1.985 . S
N11 C13 1.335 . S
N11 C14 1.390 . S
N12 C13 1.345 . S
N12 C15 1.336 . S
C13 N11 1.335 . S
C13 N12 1.345 . S
C13 H18 0.930 . S
C14 N11 1.390 . S
C14 C15 1.346 . S
C14 H19 0.930 . S
C15 N12 1.336 . S
C15 C14 1.346 . S
C15 H22 0.929 . S
C16 O6 1.282 . S
C16 O17 1.216 . S
O17 C16 1.216 . S
H18 C13 0.930 . S
H19 C14 0.930 . S
O20 Cu0 1.959 . S
O20 C7 1.251 . S
H21 C4 0.930 . S
H22 C15 0.929 . S
Cu23 N24 1.999 . S
Cu23 O29 1.974 . S
Cu23 N34 1.985 . S
Cu23 O43 1.959 . S
N24 Cu23 1.999 . S
N24 C26 1.263 . S
N24 C28 1.389 . S
N25 C26 1.358 . S
N25 C27 1.400 . S
C26 N24 1.263 . S
C26 N25 1.358 . S
C26 H32 0.930 . S
C27 N25 1.400 . S
C27 C28 1.351 . S
C27 H44 0.930 . S
C28 N24 1.389 . S
C28 C27 1.351 . S
C28 H33 0.930 . S
O29 Cu23 1.974 . S
O29 C39 1.282 . S
C30 O31 1.261 . S
C30 O43 1.251 . S
O31 C30 1.261 . S
H32 C26 0.930 . S
H33 C28 0.930 . S
N34 Cu23 1.985 . S
N34 C36 1.335 . S
N34 C37 1.390 . S
N35 C36 1.345 . S
N35 C38 1.336 . S
C36 N34 1.335 . S
C36 N35 1.345 . S
C36 H41 0.930 . S
C37 N34 1.390 . S
C37 C38 1.346 . S
C37 H42 0.930 . S
C38 N35 1.336 . S
C38 C37 1.346 . S
C38 H45 0.929 . S
C39 O29 1.282 . S
C39 O40 1.216 . S
O40 C39 1.216 . S
H41 C36 0.930 . S
H42 C37 0.930 . S
O43 Cu23 1.959 . S
O43 C30 1.251 . S
H44 C27 0.930 . S
H45 C38 0.929 . S
Cu46 N47 1.999 . S
Cu46 O52 1.974 . S
Cu46 N57 1.985 . S
Cu46 O66 1.959 . S
N47 Cu46 1.999 . S
N47 C49 1.263 . S
N47 C51 1.389 . S
N48 C49 1.358 . S
N48 C50 1.400 . S
C49 N47 1.263 . S
C49 N48 1.358 . S
C49 H55 0.930 . S
C50 N48 1.400 . S
C50 C51 1.351 . S
C50 H67 0.930 . S
C51 N47 1.389 . S
C51 C50 1.351 . S
C51 H56 0.930 . S
O52 Cu46 1.974 . S
O52 C62 1.282 . S
C53 O54 1.261 . S
C53 O66 1.251 . S
O54 C53 1.261 . S
H55 C49 0.930 . S
H56 C51 0.930 . S
N57 Cu46 1.985 . S
N57 C59 1.335 . S
N57 C60 1.390 . S
N58 C59 1.345 . S
N58 C61 1.336 . S
C59 N57 1.335 . S
C59 N58 1.345 . S
C59 H64 0.930 . S
C60 N57 1.390 . S
C60 C61 1.346 . S
C60 H65 0.930 . S
C61 N58 1.336 . S
C61 C60 1.346 . S
C61 H68 0.929 . S
C62 O52 1.282 . S
C62 O63 1.216 . S
O63 C62 1.216 . S
H64 C59 0.930 . S
H65 C60 0.930 . S
O66 Cu46 1.959 . S
O66 C53 1.251 . S
H67 C50 0.930 . S
H68 C61 0.929 . S
Cu69 N70 1.999 . S
Cu69 O75 1.974 . S
Cu69 N80 1.985 . S
Cu69 O89 1.959 . S
N70 Cu69 1.999 . S
N70 C72 1.263 . S
N70 C74 1.389 . S
N71 C72 1.358 . S
N71 C73 1.400 . S
C72 N70 1.263 . S
C72 N71 1.358 . S
C72 H78 0.930 . S
C73 N71 1.400 . S
C73 C74 1.351 . S
C73 H90 0.930 . S
C74 N70 1.389 . S
C74 C73 1.351 . S
C74 H79 0.930 . S
O75 Cu69 1.974 . S
O75 C85 1.282 . S
C76 O77 1.261 . S
C76 O89 1.251 . S
O77 C76 1.261 . S
H78 C72 0.930 . S
H79 C74 0.930 . S
N80 Cu69 1.985 . S
N80 C82 1.335 . S
N80 C83 1.390 . S
N81 C82 1.345 . S
N81 C84 1.336 . S
C82 N80 1.335 . S
C82 N81 1.345 . S
C82 H87 0.930 . S
C83 N80 1.390 . S
C83 C84 1.346 . S
C83 H88 0.930 . S
C84 N81 1.336 . S
C84 C83 1.346 . S
C84 H91 0.929 . S
C85 O75 1.282 . S
C85 O86 1.216 . S
O86 C85 1.216 . S
H87 C82 0.930 . S
H88 C83 0.930 . S
O89 Cu69 1.959 . S
O89 C76 1.251 . S
H90 C73 0.930 . S
H91 C84 0.929 . S
Cu92 N93 1.999 . S
Cu92 O98 1.974 . S
Cu92 N103 1.985 . S
Cu92 O112 1.959 . S
N93 Cu92 1.999 . S
N93 C95 1.263 . S
N93 C97 1.389 . S
N94 C95 1.358 . S
N94 C96 1.400 . S
C95 N93 1.263 . S
C95 N94 1.358 . S
C95 H101 0.930 . S
C96 N94 1.400 . S
C96 C97 1.351 . S
C96 H113 0.930 . S
C97 N93 1.389 . S
C97 C96 1.351 . S
C97 H102 0.930 . S
O98 Cu92 1.974 . S
O98 C108 1.282 . S
C99 O100 1.261 . S
C99 O112 1.251 . S
O100 C99 1.261 . S
H101 C95 0.930 . S
H102 C97 0.930 . S
N103 Cu92 1.985 . S
N103 C105 1.335 . S
N103 C106 1.390 . S
N104 C105 1.345 . S
N104 C107 1.336 . S
C105 N103 1.335 . S
C105 N104 1.345 . S
C105 H110 0.930 . S
C106 N103 1.390 . S
C106 C107 1.346 . S
C106 H111 0.930 . S
C107 N104 1.336 . S
C107 C106 1.346 . S
C107 H114 0.929 . S
C108 O98 1.282 . S
C108 O109 1.216 . S
O109 C108 1.216 . S
H110 C105 0.930 . S
H111 C106 0.930 . S
O112 Cu92 1.959 . S
O112 C99 1.251 . S
H113 C96 0.930 . S
H114 C107 0.929 . S
Cu115 N116 1.999 . S
Cu115 O121 1.974 . S
Cu115 N126 1.985 . S
Cu115 O135 1.959 . S
N116 Cu115 1.999 . S
N116 C118 1.263 . S
N116 C120 1.389 . S
N117 C118 1.358 . S
N117 C119 1.400 . S
C118 N116 1.263 . S
C118 N117 1.358 . S
C118 H124 0.930 . S
C119 N117 1.400 . S
C119 C120 1.351 . S
C119 H136 0.930 . S
C120 N116 1.389 . S
C120 C119 1.351 . S
C120 H125 0.930 . S
O121 Cu115 1.974 . S
O121 C131 1.282 . S
C122 O123 1.261 . S
C122 O135 1.251 . S
O123 C122 1.261 . S
H124 C118 0.930 . S
H125 C120 0.930 . S
N126 Cu115 1.985 . S
N126 C128 1.335 . S
N126 C129 1.390 . S
N127 C128 1.345 . S
N127 C130 1.336 . S
C128 N126 1.335 . S
C128 N127 1.345 . S
C128 H133 0.930 . S
C129 N126 1.390 . S
C129 C130 1.346 . S
C129 H134 0.930 . S
C130 N127 1.336 . S
C130 C129 1.346 . S
C130 H137 0.929 . S
C131 O121 1.282 . S
C131 O132 1.216 . S
O132 C131 1.216 . S
H133 C128 0.930 . S
H134 C129 0.930 . S
O135 Cu115 1.959 . S
O135 C122 1.251 . S
H136 C119 0.930 . S
H137 C130 0.929 . S
Cu138 N139 1.999 . S
Cu138 O144 1.974 . S
Cu138 N149 1.985 . S
Cu138 O158 1.959 . S
N139 Cu138 1.999 . S
N139 C141 1.263 . S
N139 C143 1.389 . S
N140 C141 1.358 . S
N140 C142 1.400 . S
C141 N139 1.263 . S
C141 N140 1.358 . S
C141 H147 0.930 . S
C142 N140 1.400 . S
C142 C143 1.351 . S
C142 H159 0.930 . S
C143 N139 1.389 . S
C143 C142 1.351 . S
C143 H148 0.930 . S
O144 Cu138 1.974 . S
O144 C154 1.282 . S
C145 O146 1.261 . S
C145 O158 1.251 . S
O146 C145 1.261 . S
H147 C141 0.930 . S
H148 C143 0.930 . S
N149 Cu138 1.985 . S
N149 C151 1.335 . S
N149 C152 1.390 . S
N150 C151 1.345 . S
N150 C153 1.336 . S
C151 N149 1.335 . S
C151 N150 1.345 . S
C151 H156 0.930 . S
C152 N149 1.390 . S
C152 C153 1.346 . S
C152 H157 0.930 . S
C153 N150 1.336 . S
C153 C152 1.346 . S
C153 H160 0.929 . S
C154 O144 1.282 . S
C154 O155 1.216 . S
O155 C154 1.216 . S
H156 C151 0.930 . S
H157 C152 0.930 . S
O158 Cu138 1.959 . S
O158 C145 1.251 . S
H159 C142 0.930 . S
H160 C153 0.929 . S
Cu161 N162 1.999 . S
Cu161 O167 1.974 . S
Cu161 N172 1.985 . S
Cu161 O181 1.959 . S
N162 Cu161 1.999 . S
N162 C164 1.263 . S
N162 C166 1.389 . S
N163 C164 1.358 . S
N163 C165 1.400 . S
C164 N162 1.263 . S
C164 N163 1.358 . S
C164 H170 0.930 . S
C165 N163 1.400 . S
C165 C166 1.351 . S
C165 H182 0.930 . S
C166 N162 1.389 . S
C166 C165 1.351 . S
C166 H171 0.930 . S
O167 Cu161 1.974 . S
O167 C177 1.282 . S
C168 O169 1.261 . S
C168 O181 1.251 . S
O169 C168 1.261 . S
H170 C164 0.930 . S
H171 C166 0.930 . S
N172 Cu161 1.985 . S
N172 C174 1.335 . S
N172 C175 1.390 . S
N173 C174 1.345 . S
N173 C176 1.336 . S
C174 N172 1.335 . S
C174 N173 1.345 . S
C174 H179 0.930 . S
C175 N172 1.390 . S
C175 C176 1.346 . S
C175 H180 0.930 . S
C176 N173 1.336 . S
C176 C175 1.346 . S
C176 H183 0.929 . S
C177 O167 1.282 . S
C177 O178 1.216 . S
O178 C177 1.216 . S
H179 C174 0.930 . S
H180 C175 0.930 . S
O181 Cu161 1.959 . S
O181 C168 1.251 . S
H182 C165 0.930 . S
H183 C176 0.929 . S
Cu184 N185 1.999 . S
Cu184 O190 1.974 . S
Cu184 N195 1.985 . S
Cu184 O204 1.959 . S
N185 Cu184 1.999 . S
N185 C187 1.263 . S
N185 C189 1.389 . S
N186 C187 1.358 . S
N186 C188 1.400 . S
C187 N185 1.263 . S
C187 N186 1.358 . S
C187 H193 0.930 . S
C188 N186 1.400 . S
C188 C189 1.351 . S
C188 H205 0.930 . S
C189 N185 1.389 . S
C189 C188 1.351 . S
C189 H194 0.930 . S
O190 Cu184 1.974 . S
O190 C200 1.282 . S
C191 O192 1.261 . S
C191 O204 1.251 . S
O192 C191 1.261 . S
H193 C187 0.930 . S
H194 C189 0.930 . S
N195 Cu184 1.985 . S
N195 C197 1.335 . S
N195 C198 1.390 . S
N196 C197 1.345 . S
N196 C199 1.336 . S
C197 N195 1.335 . S
C197 N196 1.345 . S
C197 H202 0.930 . S
C198 N195 1.390 . S
C198 C199 1.346 . S
C198 H203 0.930 . S
C199 N196 1.336 . S
C199 C198 1.346 . S
C199 H206 0.929 . S
C200 O190 1.282 . S
C200 O201 1.216 . S
O201 C200 1.216 . S
H202 C197 0.930 . S
H203 C198 0.930 . S
O204 Cu184 1.959 . S
O204 C191 1.251 . S
H205 C188 0.930 . S
H206 C199 0.929 . S
Cu207 N208 1.999 . S
Cu207 O213 1.974 . S
Cu207 N218 1.985 . S
Cu207 O227 1.959 . S
N208 Cu207 1.999 . S
N208 C210 1.263 . S
N208 C212 1.389 . S
N209 C210 1.358 . S
N209 C211 1.400 . S
C210 N208 1.263 . S
C210 N209 1.358 . S
C210 H216 0.930 . S
C211 N209 1.400 . S
C211 C212 1.351 . S
C211 H228 0.930 . S
C212 N208 1.389 . S
C212 C211 1.351 . S
C212 H217 0.930 . S
O213 Cu207 1.974 . S
O213 C223 1.282 . S
C214 O215 1.261 . S
C214 O227 1.251 . S
O215 C214 1.261 . S
H216 C210 0.930 . S
H217 C212 0.930 . S
N218 Cu207 1.985 . S
N218 C220 1.335 . S
N218 C221 1.390 . S
N219 C220 1.345 . S
N219 C222 1.336 . S
C220 N218 1.335 . S
C220 N219 1.345 . S
C220 H225 0.930 . S
C221 N218 1.390 . S
C221 C222 1.346 . S
C221 H226 0.930 . S
C222 N219 1.336 . S
C222 C221 1.346 . S
C222 H229 0.929 . S
C223 O213 1.282 . S
C223 O224 1.216 . S
O224 C223 1.216 . S
H225 C220 0.930 . S
H226 C221 0.930 . S
O227 Cu207 1.959 . S
O227 C214 1.251 . S
H228 C211 0.930 . S
H229 C222 0.929 . S
Cu230 N231 1.999 . S
Cu230 O236 1.974 . S
Cu230 N241 1.985 . S
Cu230 O250 1.959 . S
N231 Cu230 1.999 . S
N231 C233 1.263 . S
N231 C235 1.389 . S
N232 C233 1.358 . S
N232 C234 1.400 . S
C233 N231 1.263 . S
C233 N232 1.358 . S
C233 H239 0.930 . S
C234 N232 1.400 . S
C234 C235 1.351 . S
C234 H251 0.930 . S
C235 N231 1.389 . S
C235 C234 1.351 . S
C235 H240 0.930 . S
O236 Cu230 1.974 . S
O236 C246 1.282 . S
C237 O238 1.261 . S
C237 O250 1.251 . S
O238 C237 1.261 . S
H239 C233 0.930 . S
H240 C235 0.930 . S
N241 Cu230 1.985 . S
N241 C243 1.335 . S
N241 C244 1.390 . S
N242 C243 1.345 . S
N242 C245 1.336 . S
C243 N241 1.335 . S
C243 N242 1.345 . S
C243 H248 0.930 . S
C244 N241 1.390 . S
C244 C245 1.346 . S
C244 H249 0.930 . S
C245 N242 1.336 . S
C245 C244 1.346 . S
C245 H252 0.929 . S
C246 O236 1.282 . S
C246 O247 1.216 . S
O247 C246 1.216 . S
H248 C243 0.930 . S
H249 C244 0.930 . S
O250 Cu230 1.959 . S
O250 C237 1.251 . S
H251 C234 0.930 . S
H252 C245 0.929 . S
Cu253 N254 1.999 . S
Cu253 O259 1.974 . S
Cu253 N264 1.985 . S
Cu253 O273 1.959 . S
N254 Cu253 1.999 . S
N254 C256 1.263 . S
N254 C258 1.389 . S
N255 C256 1.358 . S
N255 C257 1.400 . S
C256 N254 1.263 . S
C256 N255 1.358 . S
C256 H262 0.930 . S
C257 N255 1.400 . S
C257 C258 1.351 . S
C257 H274 0.930 . S
C258 N254 1.389 . S
C258 C257 1.351 . S
C258 H263 0.930 . S
O259 Cu253 1.974 . S
O259 C269 1.282 . S
C260 O261 1.261 . S
C260 O273 1.251 . S
O261 C260 1.261 . S
H262 C256 0.930 . S
H263 C258 0.930 . S
N264 Cu253 1.985 . S
N264 C266 1.335 . S
N264 C267 1.390 . S
N265 C266 1.345 . S
N265 C268 1.336 . S
C266 N264 1.335 . S
C266 N265 1.345 . S
C266 H271 0.930 . S
C267 N264 1.390 . S
C267 C268 1.346 . S
C267 H272 0.930 . S
C268 N265 1.336 . S
C268 C267 1.346 . S
C268 H275 0.929 . S
C269 O259 1.282 . S
C269 O270 1.216 . S
O270 C269 1.216 . S
H271 C266 0.930 . S
H272 C267 0.930 . S
O273 Cu253 1.959 . S
O273 C260 1.251 . S
H274 C257 0.930 . S
H275 C268 0.929 . S
H276 C288 0.930 . S
H277 C290 0.930 . S
H278 C291 0.930 . S
H279 C295 0.959 . S
H280 C295 0.959 . S
H281 C295 0.961 . S
H282 C296 0.960 . S
H283 C296 0.961 . S
H284 C296 0.959 . S
H285 C299 0.929 . S
H286 C300 0.931 . S
H287 C302 0.930 . S
C288 H276 0.930 . S
C288 C289 1.399 . S
C288 C293 1.399 . S
C289 C288 1.399 . S
C289 C290 1.376 . S
C290 H277 0.930 . S
C290 C289 1.376 . S
C290 C291 1.388 . S
C291 H278 0.930 . S
C291 C290 1.388 . S
C291 C292 1.390 . S
C292 C291 1.390 . S
C292 C293 1.394 . S
C292 C298 1.465 . S
C293 C288 1.399 . S
C293 C292 1.394 . S
C293 C294 1.516 . S
C294 C293 1.516 . S
C294 C295 1.502 . S
C294 C296 1.561 . S
C294 C297 1.526 . S
C295 H279 0.959 . S
C295 H280 0.959 . S
C295 H281 0.961 . S
C295 C294 1.502 . S
C296 H282 0.960 . S
C296 H283 0.961 . S
C296 H284 0.959 . S
C296 C294 1.561 . S
C297 C294 1.526 . S
C297 C298 1.396 . S
C297 C302 1.390 . S
C298 C292 1.465 . S
C298 C297 1.396 . S
C298 C299 1.399 . S
C299 H285 0.929 . S
C299 C298 1.399 . S
C299 C300 1.385 . S
C300 H286 0.931 . S
C300 C299 1.385 . S
C300 C301 1.389 . S
C301 C300 1.389 . S
C301 C302 1.387 . S
C302 H287 0.930 . S
C302 C297 1.390 . S
C302 C301 1.387 . S
H303 C315 0.930 . S
H304 C317 0.930 . S
H305 C318 0.930 . S
H306 C322 0.959 . S
H307 C322 0.959 . S
H308 C322 0.961 . S
H309 C323 0.960 . S
H310 C323 0.961 . S
H311 C323 0.959 . S
H312 C326 0.929 . S
H313 C327 0.931 . S
H314 C329 0.930 . S
C315 H303 0.930 . S
C315 C316 1.399 . S
C315 C320 1.399 . S
C316 C315 1.399 . S
C316 C317 1.376 . S
C317 H304 0.930 . S
C317 C316 1.376 . S
C317 C318 1.388 . S
C318 H305 0.930 . S
C318 C317 1.388 . S
C318 C319 1.390 . S
C319 C318 1.390 . S
C319 C320 1.394 . S
C319 C325 1.465 . S
C320 C315 1.399 . S
C320 C319 1.394 . S
C320 C321 1.516 . S
C321 C320 1.516 . S
C321 C322 1.502 . S
C321 C323 1.561 . S
C321 C324 1.526 . S
C322 H306 0.959 . S
C322 H307 0.959 . S
C322 H308 0.961 . S
C322 C321 1.502 . S
C323 H309 0.960 . S
C323 H310 0.961 . S
C323 H311 0.959 . S
C323 C321 1.561 . S
C324 C321 1.526 . S
C324 C325 1.396 . S
C324 C329 1.390 . S
C325 C319 1.465 . S
C325 C324 1.396 . S
C325 C326 1.399 . S
C326 H312 0.929 . S
C326 C325 1.399 . S
C326 C327 1.385 . S
C327 H313 0.931 . S
C327 C326 1.385 . S
C327 C328 1.389 . S
C328 C327 1.389 . S
C328 C329 1.387 . S
C329 H314 0.930 . S
C329 C324 1.390 . S
C329 C328 1.387 . S
H330 C342 0.930 . S
H331 C344 0.930 . S
H332 C345 0.930 . S
H333 C349 0.959 . S
H334 C349 0.959 . S
H335 C349 0.961 . S
H336 C350 0.960 . S
H337 C350 0.961 . S
H338 C350 0.959 . S
H339 C353 0.929 . S
H340 C354 0.931 . S
H341 C356 0.930 . S
C342 H330 0.930 . S
C342 C343 1.399 . S
C342 C347 1.399 . S
C343 C342 1.399 . S
C343 C344 1.376 . S
C344 H331 0.930 . S
C344 C343 1.376 . S
C344 C345 1.388 . S
C345 H332 0.930 . S
C345 C344 1.388 . S
C345 C346 1.390 . S
C346 C345 1.390 . S
C346 C347 1.394 . S
C346 C352 1.465 . S
C347 C342 1.399 . S
C347 C346 1.394 . S
C347 C348 1.516 . S
C348 C347 1.516 . S
C348 C349 1.502 . S
C348 C350 1.561 . S
C348 C351 1.526 . S
C349 H333 0.959 . S
C349 H334 0.959 . S
C349 H335 0.961 . S
C349 C348 1.502 . S
C350 H336 0.960 . S
C350 H337 0.961 . S
C350 H338 0.959 . S
C350 C348 1.561 . S
C351 C348 1.526 . S
C351 C352 1.396 . S
C351 C356 1.390 . S
C352 C346 1.465 . S
C352 C351 1.396 . S
C352 C353 1.399 . S
C353 H339 0.929 . S
C353 C352 1.399 . S
C353 C354 1.385 . S
C354 H340 0.931 . S
C354 C353 1.385 . S
C354 C355 1.389 . S
C355 C354 1.389 . S
C355 C356 1.387 . S
C356 H341 0.930 . S
C356 C351 1.390 . S
C356 C355 1.387 . S
H357 C369 0.930 . S
H358 C371 0.930 . S
H359 C372 0.930 . S
H360 C376 0.959 . S
H361 C376 0.959 1_554 S
H362 C376 0.961 1_554 S
H363 C377 0.960 . S
H364 C377 0.961 . S
H365 C377 0.959 . S
H366 C380 0.929 . S
H367 C381 0.931 . S
H368 C383 0.930 . S
C369 H357 0.930 . S
C369 C370 1.399 . S
C369 C374 1.399 . S
C370 C369 1.399 . S
C370 C371 1.376 . S
C371 H358 0.930 . S
C371 C370 1.376 . S
C371 C372 1.388 . S
C372 H359 0.930 . S
C372 C371 1.388 . S
C372 C373 1.390 . S
C373 C372 1.390 . S
C373 C374 1.394 . S
C373 C379 1.465 . S
C374 C369 1.399 . S
C374 C373 1.394 . S
C374 C375 1.516 . S
C375 C374 1.516 . S
C375 C376 1.502 . S
C375 C377 1.561 . S
C375 C378 1.526 . S
C376 H360 0.959 . S
C376 H361 0.959 1_556 S
C376 H362 0.961 1_556 S
C376 C375 1.502 . S
C377 H363 0.960 . S
C377 H364 0.961 . S
C377 H365 0.959 . S
C377 C375 1.561 . S
C378 C375 1.526 . S
C378 C379 1.396 . S
C378 C383 1.390 . S
C379 C373 1.465 . S
C379 C378 1.396 . S
C379 C380 1.399 . S
C380 H366 0.929 . S
C380 C379 1.399 . S
C380 C381 1.385 . S
C381 H367 0.931 . S
C381 C380 1.385 . S
C381 C382 1.389 . S
C382 C381 1.389 . S
C382 C383 1.387 . S
C383 H368 0.930 . S
C383 C378 1.390 . S
C383 C382 1.387 . S
H384 C396 0.930 . S
H385 C398 0.930 . S
H386 C399 0.930 . S
H387 C403 0.959 . S
H388 C403 0.959 1_556 S
H389 C403 0.961 1_556 S
H390 C404 0.960 . S
H391 C404 0.961 . S
H392 C404 0.959 . S
H393 C407 0.929 . S
H394 C408 0.931 . S
H395 C410 0.930 . S
C396 H384 0.930 . S
C396 C397 1.399 . S
C396 C401 1.399 . S
C397 C396 1.399 . S
C397 C398 1.376 . S
C398 H385 0.930 . S
C398 C397 1.376 . S
C398 C399 1.388 . S
C399 H386 0.930 . S
C399 C398 1.388 . S
C399 C400 1.390 . S
C400 C399 1.390 . S
C400 C401 1.394 . S
C400 C406 1.465 . S
C401 C396 1.399 . S
C401 C400 1.394 . S
C401 C402 1.516 . S
C402 C401 1.516 . S
C402 C403 1.502 . S
C402 C404 1.561 . S
C402 C405 1.526 . S
C403 H387 0.959 . S
C403 H388 0.959 1_554 S
C403 H389 0.961 1_554 S
C403 C402 1.502 . S
C404 H390 0.960 . S
C404 H391 0.961 . S
C404 H392 0.959 . S
C404 C402 1.561 . S
C405 C402 1.526 . S
C405 C406 1.396 . S
C405 C410 1.390 . S
C406 C400 1.465 . S
C406 C405 1.396 . S
C406 C407 1.399 . S
C407 H393 0.929 . S
C407 C406 1.399 . S
C407 C408 1.385 . S
C408 H394 0.931 . S
C408 C407 1.385 . S
C408 C409 1.389 . S
C409 C408 1.389 . S
C409 C410 1.387 . S
C410 H395 0.930 . S
C410 C405 1.390 . S
C410 C409 1.387 . S
H411 C423 0.930 . S
H412 C425 0.930 . S
H413 C426 0.930 . S
H414 C430 0.959 . S
H415 C430 0.959 . S
H416 C430 0.961 . S
H417 C431 0.960 . S
H418 C431 0.961 . S
H419 C431 0.959 . S
H420 C434 0.929 . S
H421 C435 0.931 . S
H422 C437 0.930 . S
C423 H411 0.930 . S
C423 C424 1.399 . S
C423 C428 1.399 . S
C424 C423 1.399 . S
C424 C425 1.376 . S
C425 H412 0.930 . S
C425 C424 1.376 . S
C425 C426 1.388 . S
C426 H413 0.930 . S
C426 C425 1.388 . S
C426 C427 1.390 . S
C427 C426 1.390 . S
C427 C428 1.394 . S
C427 C433 1.465 . S
C428 C423 1.399 . S
C428 C427 1.394 . S
C428 C429 1.516 . S
C429 C428 1.516 . S
C429 C430 1.502 . S
C429 C431 1.561 . S
C429 C432 1.526 . S
C430 H414 0.959 . S
C430 H415 0.959 . S
C430 H416 0.961 . S
C430 C429 1.502 . S
C431 H417 0.960 . S
C431 H418 0.961 . S
C431 H419 0.959 . S
C431 C429 1.561 . S
C432 C429 1.526 . S
C432 C433 1.396 . S
C432 C437 1.390 . S
C433 C427 1.465 . S
C433 C432 1.396 . S
C433 C434 1.399 . S
C434 H420 0.929 . S
C434 C433 1.399 . S
C434 C435 1.385 . S
C435 H421 0.931 . S
C435 C434 1.385 . S
C435 C436 1.389 . S
C436 C435 1.389 . S
C436 C437 1.387 . S
C437 H422 0.930 . S
C437 C432 1.390 . S
C437 C436 1.387 . S
H438 C450 0.930 . S
H439 C452 0.930 . S
H440 C453 0.930 . S
H441 C457 0.959 . S
H442 C457 0.959 . S
H443 C457 0.961 . S
H444 C458 0.960 . S
H445 C458 0.961 . S
H446 C458 0.959 . S
H447 C461 0.929 . S
H448 C462 0.931 . S
H449 C464 0.930 . S
C450 H438 0.930 . S
C450 C451 1.399 . S
C450 C455 1.399 . S
C451 C450 1.399 . S
C451 C452 1.376 . S
C452 H439 0.930 . S
C452 C451 1.376 . S
C452 C453 1.388 . S
C453 H440 0.930 . S
C453 C452 1.388 . S
C453 C454 1.390 . S
C454 C453 1.390 . S
C454 C455 1.394 . S
C454 C460 1.465 . S
C455 C450 1.399 . S
C455 C454 1.394 . S
C455 C456 1.516 . S
C456 C455 1.516 . S
C456 C457 1.502 . S
C456 C458 1.561 . S
C456 C459 1.526 . S
C457 H441 0.959 . S
C457 H442 0.959 . S
C457 H443 0.961 . S
C457 C456 1.502 . S
C458 H444 0.960 . S
C458 H445 0.961 . S
C458 H446 0.959 . S
C458 C456 1.561 . S
C459 C456 1.526 . S
C459 C460 1.396 . S
C459 C464 1.390 . S
C460 C454 1.465 . S
C460 C459 1.396 . S
C460 C461 1.399 . S
C461 H447 0.929 . S
C461 C460 1.399 . S
C461 C462 1.385 . S
C462 H448 0.931 . S
C462 C461 1.385 . S
C462 C463 1.389 . S
C463 C462 1.389 . S
C463 C464 1.387 . S
C464 H449 0.930 . S
C464 C459 1.390 . S
C464 C463 1.387 . S
H465 C477 0.930 . S
H466 C479 0.930 . S
H467 C480 0.930 . S
H468 C484 0.959 . S
H469 C484 0.959 . S
H470 C484 0.961 . S
H471 C485 0.960 . S
H472 C485 0.961 . S
H473 C485 0.959 . S
H474 C488 0.929 . S
H475 C489 0.931 . S
H476 C491 0.930 . S
C477 H465 0.930 . S
C477 C478 1.399 . S
C477 C482 1.399 . S
C478 C477 1.399 . S
C478 C479 1.376 . S
C479 H466 0.930 . S
C479 C478 1.376 . S
C479 C480 1.388 . S
C480 H467 0.930 . S
C480 C479 1.388 . S
C480 C481 1.390 . S
C481 C480 1.390 . S
C481 C482 1.394 . S
C481 C487 1.465 . S
C482 C477 1.399 . S
C482 C481 1.394 . S
C482 C483 1.516 . S
C483 C482 1.516 . S
C483 C484 1.502 . S
C483 C485 1.561 . S
C483 C486 1.526 . S
C484 H468 0.959 . S
C484 H469 0.959 . S
C484 H470 0.961 . S
C484 C483 1.502 . S
C485 H471 0.960 . S
C485 H472 0.961 . S
C485 H473 0.959 . S
C485 C483 1.561 . S
C486 C483 1.526 . S
C486 C487 1.396 . S
C486 C491 1.390 . S
C487 C481 1.465 . S
C487 C486 1.396 . S
C487 C488 1.399 . S
C488 H474 0.929 . S
C488 C487 1.399 . S
C488 C489 1.385 . S
C489 H475 0.931 . S
C489 C488 1.385 . S
C489 C490 1.389 . S
C490 C489 1.389 . S
C490 C491 1.387 . S
C491 H476 0.930 . S
C491 C486 1.390 . S
C491 C490 1.387 . S
H492 C504 0.930 . S
H493 C506 0.930 . S
H494 C507 0.930 . S
H495 C511 0.959 . S
H496 C511 0.959 . S
H497 C511 0.961 . S
H498 C512 0.960 . S
H499 C512 0.961 . S
H500 C512 0.959 . S
H501 C515 0.929 . S
H502 C516 0.931 . S
H503 C518 0.930 . S
C504 H492 0.930 . S
C504 C505 1.399 . S
C504 C509 1.399 . S
C505 C504 1.399 . S
C505 C506 1.376 1_556 S
C506 H493 0.930 . S
C506 C505 1.376 1_554 S
C506 C507 1.388 1_554 S
C507 H494 0.930 . S
C507 C506 1.388 1_556 S
C507 C508 1.390 . S
C508 C507 1.390 . S
C508 C509 1.394 . S
C508 C514 1.465 . S
C509 C504 1.399 . S
C509 C508 1.394 . S
C509 C510 1.516 . S
C510 C509 1.516 . S
C510 C511 1.502 . S
C510 C512 1.561 . S
C510 C513 1.526 . S
C511 H495 0.959 . S
C511 H496 0.959 . S
C511 H497 0.961 . S
C511 C510 1.502 . S
C512 H498 0.960 . S
C512 H499 0.961 . S
C512 H500 0.959 . S
C512 C510 1.561 . S
C513 C510 1.526 . S
C513 C514 1.396 . S
C513 C518 1.390 . S
C514 C508 1.465 . S
C514 C513 1.396 . S
C514 C515 1.399 . S
C515 H501 0.929 . S
C515 C514 1.399 . S
C515 C516 1.385 . S
C516 H502 0.931 . S
C516 C515 1.385 . S
C516 C517 1.389 . S
C517 C516 1.389 . S
C517 C518 1.387 . S
C518 H503 0.930 . S
C518 C513 1.390 . S
C518 C517 1.387 . S
H519 C531 0.930 . S
H520 C533 0.930 . S
H521 C534 0.930 . S
H522 C538 0.959 . S
H523 C538 0.959 . S
H524 C538 0.961 . S
H525 C539 0.960 . S
H526 C539 0.961 . S
H527 C539 0.959 . S
H528 C542 0.929 . S
H529 C543 0.931 . S
H530 C545 0.930 1_556 S
C531 H519 0.930 . S
C531 C532 1.399 . S
C531 C536 1.399 . S
C532 C531 1.399 . S
C532 C533 1.376 . S
C533 H520 0.930 . S
C533 C532 1.376 . S
C533 C534 1.388 . S
C534 H521 0.930 . S
C534 C533 1.388 . S
C534 C535 1.390 . S
C535 C534 1.390 . S
C535 C536 1.394 . S
C535 C541 1.465 . S
C536 C531 1.399 . S
C536 C535 1.394 . S
C536 C537 1.516 . S
C537 C536 1.516 . S
C537 C538 1.502 . S
C537 C539 1.561 . S
C537 C540 1.526 . S
C538 H522 0.959 . S
C538 H523 0.959 . S
C538 H524 0.961 . S
C538 C537 1.502 . S
C539 H525 0.960 . S
C539 H526 0.961 . S
C539 H527 0.959 . S
C539 C537 1.561 . S
C540 C537 1.526 . S
C540 C541 1.396 . S
C540 C545 1.390 . S
C541 C535 1.465 . S
C541 C540 1.396 . S
C541 C542 1.399 . S
C542 H528 0.929 . S
C542 C541 1.399 . S
C542 C543 1.385 . S
C543 H529 0.931 . S
C543 C542 1.385 . S
C543 C544 1.389 . S
C544 C543 1.389 . S
C544 C545 1.387 . S
C545 H530 0.930 1_554 S
C545 C540 1.390 . S
C545 C544 1.387 . S
H546 C558 0.930 . S
H547 C560 0.930 . S
H548 C561 0.930 . S
H549 C565 0.959 . S
H550 C565 0.959 . S
H551 C565 0.961 . S
H552 C566 0.960 . S
H553 C566 0.961 . S
H554 C566 0.959 . S
H555 C569 0.929 . S
H556 C570 0.931 . S
H557 C572 0.930 . S
C558 H546 0.930 . S
C558 C559 1.399 . S
C558 C563 1.399 . S
C559 C558 1.399 . S
C559 C560 1.376 . S
C560 H547 0.930 . S
C560 C559 1.376 . S
C560 C561 1.388 . S
C561 H548 0.930 . S
C561 C560 1.388 . S
C561 C562 1.390 . S
C562 C561 1.390 . S
C562 C563 1.394 . S
C562 C568 1.465 . S
C563 C558 1.399 . S
C563 C562 1.394 . S
C563 C564 1.516 . S
C564 C563 1.516 . S
C564 C565 1.502 . S
C564 C566 1.561 . S
C564 C567 1.526 . S
C565 H549 0.959 . S
C565 H550 0.959 . S
C565 H551 0.961 . S
C565 C564 1.502 . S
C566 H552 0.960 . S
C566 H553 0.961 . S
C566 H554 0.959 . S
C566 C564 1.561 . S
C567 C564 1.526 . S
C567 C568 1.396 . S
C567 C572 1.390 . S
C568 C562 1.465 . S
C568 C567 1.396 . S
C568 C569 1.399 . S
C569 H555 0.929 . S
C569 C568 1.399 . S
C569 C570 1.385 . S
C570 H556 0.931 . S
C570 C569 1.385 . S
C570 C571 1.389 . S
C571 C570 1.389 . S
C571 C572 1.387 . S
C572 H557 0.930 . S
C572 C567 1.390 . S
C572 C571 1.387 . S
H573 C585 0.930 . S
H574 C587 0.930 . S
H575 C588 0.930 . S
H576 C592 0.959 . S
H577 C592 0.959 . S
H578 C592 0.961 . S
H579 C593 0.960 . S
H580 C593 0.961 . S
H581 C593 0.959 . S
H582 C596 0.929 . S
H583 C597 0.931 . S
H584 C599 0.930 . S
C585 H573 0.930 . S
C585 C586 1.399 . S
C585 C590 1.399 . S
C586 C585 1.399 . S
C586 C587 1.376 . S
C587 H574 0.930 . S
C587 C586 1.376 . S
C587 C588 1.388 . S
C588 H575 0.930 . S
C588 C587 1.388 . S
C588 C589 1.390 . S
C589 C588 1.390 . S
C589 C590 1.394 . S
C589 C595 1.465 . S
C590 C585 1.399 . S
C590 C589 1.394 . S
C590 C591 1.516 . S
C591 C590 1.516 . S
C591 C592 1.502 . S
C591 C593 1.561 . S
C591 C594 1.526 . S
C592 H576 0.959 . S
C592 H577 0.959 . S
C592 H578 0.961 . S
C592 C591 1.502 . S
C593 H579 0.960 . S
C593 H580 0.961 . S
C593 H581 0.959 . S
C593 C591 1.561 . S
C594 C591 1.526 . S
C594 C595 1.396 . S
C594 C599 1.390 . S
C595 C589 1.465 . S
C595 C594 1.396 . S
C595 C596 1.399 . S
C596 H582 0.929 . S
C596 C595 1.399 . S
C596 C597 1.385 . S
C597 H583 0.931 . S
C597 C596 1.385 . S
C597 C598 1.389 . S
C598 C597 1.389 . S
C598 C599 1.387 . S
C599 H584 0.930 . S
C599 C594 1.390 . S
C599 C598 1.387 . S
H600 C612 0.930 . S
H601 C614 0.930 . S
H602 C615 0.930 . S
H603 C619 0.959 . S
H604 C619 0.959 . S
H605 C619 0.961 . S
H606 C620 0.960 . S
H607 C620 0.961 . S
H608 C620 0.959 . S
H609 C623 0.919 1_655 S
H610 C624 0.931 . S
H611 C626 0.930 . S
C612 H600 0.930 . S
C612 C613 1.399 . S
C612 C617 1.399 . S
C613 C612 1.399 . S
C613 C614 1.376 . S
C614 H601 0.930 . S
C614 C613 1.376 . S
C614 C615 1.388 . S
C615 H602 0.930 . S
C615 C614 1.388 . S
C615 C616 1.390 . S
C616 C615 1.390 . S
C616 C617 1.394 . S
C616 C622 1.465 1_655 S
C617 C612 1.399 . S
C617 C616 1.394 . S
C617 C618 1.516 1_655 S
C618 C617 1.516 1_455 S
C618 C619 1.502 . S
C618 C620 1.561 . S
C618 C621 1.526 . S
C619 H603 0.959 . S
C619 H604 0.959 . S
C619 H605 0.961 . S
C619 C618 1.502 . S
C620 H606 0.960 . S
C620 H607 0.961 . S
C620 H608 0.959 . S
C620 C618 1.561 . S
C621 C618 1.526 . S
C621 C622 1.396 . S
C621 C626 1.390 . S
C622 C616 1.465 1_455 S
C622 C621 1.396 . S
C622 C623 1.399 . S
C623 H609 0.919 1_455 S
C623 C622 1.399 . S
C623 C624 1.385 . S
C624 H610 0.931 . S
C624 C623 1.385 . S
C624 C625 1.389 . S
C625 C624 1.389 . S
C625 C626 1.387 . S
C626 H611 0.930 . S
C626 C621 1.390 . S
C626 C625 1.387 . S
H627 C639 0.930 . S
H628 C641 0.930 . S
H629 C642 0.930 . S
H630 C646 0.959 . S
H631 C646 0.959 . S
H632 C646 0.961 . S
H633 C647 0.960 . S
H634 C647 0.961 . S
H635 C647 0.959 . S
H636 C650 0.935 . S
H637 C651 0.931 . S
H638 C653 0.930 . S
C639 H627 0.930 . S
C639 C640 1.399 . S
C639 C644 1.399 . S
C640 C639 1.399 . S
C640 C641 1.376 . S
C641 H628 0.930 . S
C641 C640 1.376 . S
C641 C642 1.388 . S
C642 H629 0.930 . S
C642 C641 1.388 . S
C642 C643 1.390 . S
C643 C642 1.390 . S
C643 C644 1.394 . S
C643 C649 1.465 1_565 S
C644 C639 1.399 . S
C644 C643 1.394 . S
C644 C645 1.516 1_565 S
C645 C644 1.516 1_545 S
C645 C646 1.502 . S
C645 C647 1.561 . S
C645 C648 1.526 . S
C646 H630 0.959 . S
C646 H631 0.959 . S
C646 H632 0.961 . S
C646 C645 1.502 . S
C647 H633 0.960 . S
C647 H634 0.961 . S
C647 H635 0.959 . S
C647 C645 1.561 . S
C648 C645 1.526 . S
C648 C649 1.396 . S
C648 C653 1.390 . S
C649 C643 1.465 1_545 S
C649 C648 1.396 . S
C649 C650 1.399 . S
C650 H636 0.935 . S
C650 C649 1.399 . S
C650 C651 1.385 . S
C651 H637 0.931 . S
C651 C650 1.385 . S
C651 C652 1.389 . S
C652 C651 1.389 . S
C652 C653 1.387 . S
C653 H638 0.930 . S
C653 C648 1.390 . S
C653 C652 1.387 . S
H654 C666 0.930 . S
H655 C668 0.930 . S
H656 C669 0.930 . S
H657 C673 0.959 . S
H658 C673 0.959 . S
H659 C673 0.961 . S
H660 C674 0.960 . S
H661 C674 0.961 . S
H662 C674 0.959 . S
H663 C677 0.929 . S
H664 C678 0.931 . S
H665 C680 0.930 . S
C666 H654 0.930 . S
C666 C667 1.399 . S
C666 C671 1.399 . S
C667 C666 1.399 . S
C667 C668 1.376 . S
C668 H655 0.930 . S
C668 C667 1.376 . S
C668 C669 1.388 . S
C669 H656 0.930 . S
C669 C668 1.388 . S
C669 C670 1.390 . S
C670 C669 1.390 . S
C670 C671 1.394 . S
C670 C676 1.465 . S
C671 C666 1.399 . S
C671 C670 1.394 . S
C671 C672 1.516 . S
C672 C671 1.516 . S
C672 C673 1.502 . S
C672 C674 1.561 . S
C672 C675 1.526 . S
C673 H657 0.959 . S
C673 H658 0.959 . S
C673 H659 0.961 . S
C673 C672 1.502 . S
C674 H660 0.960 . S
C674 H661 0.961 . S
C674 H662 0.959 . S
C674 C672 1.561 . S
C675 C672 1.526 . S
C675 C676 1.396 . S
C675 C680 1.390 . S
C676 C670 1.465 . S
C676 C675 1.396 . S
C676 C677 1.399 . S
C677 H663 0.929 . S
C677 C676 1.399 . S
C677 C678 1.385 . S
C678 H664 0.931 . S
C678 C677 1.385 . S
C678 C679 1.389 . S
C679 C678 1.389 . S
C679 C680 1.387 . S
C680 H665 0.930 . S
C680 C675 1.390 . S
C680 C679 1.387 . S
H681 C693 0.930 . S
H682 C695 0.930 . S
H683 C696 0.930 . S
H684 C700 0.959 . S
H685 C700 0.959 . S
H686 C700 0.961 . S
H687 C701 0.960 1_455 S
H688 C701 0.961 . S
H689 C701 0.959 . S
H690 C704 0.929 . S
H691 C705 0.931 . S
H692 C707 0.930 . S
C693 H681 0.930 . S
C693 C694 1.399 . S
C693 C698 1.399 . S
C694 C693 1.399 . S
C694 C695 1.376 . S
C695 H682 0.930 . S
C695 C694 1.376 . S
C695 C696 1.388 . S
C696 H683 0.930 . S
C696 C695 1.388 . S
C696 C697 1.390 . S
C697 C696 1.390 . S
C697 C698 1.394 . S
C697 C703 1.465 1_455 S
C698 C693 1.399 . S
C698 C697 1.394 . S
C698 C699 1.516 . S
C699 C698 1.516 . S
C699 C700 1.502 . S
C699 C701 1.561 1_455 S
C699 C702 1.526 1_455 S
C700 H684 0.959 . S
C700 H685 0.959 . S
C700 H686 0.961 . S
C700 C699 1.502 . S
C701 H687 0.960 1_655 S
C701 H688 0.961 . S
C701 H689 0.959 . S
C701 C699 1.561 1_655 S
C702 C699 1.526 1_655 S
C702 C703 1.396 . S
C702 C707 1.390 . S
C703 C697 1.465 1_655 S
C703 C702 1.396 . S
C703 C704 1.399 . S
C704 H690 0.929 . S
C704 C703 1.399 . S
C704 C705 1.385 . S
C705 H691 0.931 . S
C705 C704 1.385 . S
C705 C706 1.389 . S
C706 C705 1.389 . S
C706 C707 1.387 . S
C707 H692 0.930 . S
C707 C702 1.390 . S
C707 C706 1.387 . S
H708 C720 0.930 1_554 S
H709 C722 0.930 . S
H710 C723 0.930 . S
H711 C727 0.959 . S
H712 C727 0.959 . S
H713 C727 0.961 . S
H714 C728 0.960 . S
H715 C728 0.961 . S
H716 C728 0.959 . S
H717 C731 0.929 . S
H718 C732 0.939 . S
H719 C734 0.930 . S
C720 H708 0.930 1_556 S
C720 C721 1.399 . S
C720 C725 1.398 . S
C721 C720 1.399 . S
C721 C722 1.376 . S
C722 H709 0.930 . S
C722 C721 1.376 . S
C722 C723 1.388 . S
C723 H710 0.930 . S
C723 C722 1.388 . S
C723 C724 1.390 . S
C724 C723 1.390 . S
C724 C725 1.392 . S
C724 C730 1.465 1_545 S
C725 C720 1.398 . S
C725 C724 1.392 . S
C725 C726 1.518 1_556 S
C726 C725 1.518 1_554 S
C726 C727 1.502 . S
C726 C728 1.561 . S
C726 C729 1.526 1_545 S
C727 H711 0.959 . S
C727 H712 0.959 . S
C727 H713 0.961 . S
C727 C726 1.502 . S
C728 H714 0.960 . S
C728 H715 0.961 . S
C728 H716 0.959 . S
C728 C726 1.561 . S
C729 C726 1.526 1_565 S
C729 C730 1.396 1_554 S
C729 C734 1.390 . S
C730 C724 1.465 1_565 S
C730 C729 1.396 1_556 S
C730 C731 1.399 . S
C731 H717 0.929 . S
C731 C730 1.399 . S
C731 C732 1.385 1_556 S
C732 H718 0.939 . S
C732 C731 1.385 1_554 S
C732 C733 1.389 . S
C733 C732 1.389 . S
C733 C734 1.387 . S
C734 H719 0.930 . S
C734 C729 1.390 . S
C734 C733 1.387 . S
H735 C747 0.930 . S
H736 C749 0.930 . S
H737 C750 0.930 . S
H738 C754 0.959 . S
H739 C754 0.959 . S
H740 C754 0.961 . S
H741 C755 0.960 . S
H742 C755 0.961 . S
H743 C755 0.959 . S
H744 C758 0.929 . S
H745 C759 0.931 . S
H746 C761 0.930 . S
C747 H735 0.930 . S
C747 C748 1.399 . S
C747 C752 1.399 . S
C748 C747 1.399 . S
C748 C749 1.376 . S
C749 H736 0.930 . S
C749 C748 1.376 . S
C749 C750 1.388 . S
C750 H737 0.930 . S
C750 C749 1.388 . S
C750 C751 1.390 . S
C751 C750 1.390 . S
C751 C752 1.394 . S
C751 C757 1.465 . S
C752 C747 1.399 . S
C752 C751 1.394 . S
C752 C753 1.516 . S
C753 C752 1.516 . S
C753 C754 1.502 . S
C753 C755 1.561 . S
C753 C756 1.526 . S
C754 H738 0.959 . S
C754 H739 0.959 . S
C754 H740 0.961 . S
C754 C753 1.502 . S
C755 H741 0.960 . S
C755 H742 0.961 . S
C755 H743 0.959 . S
C755 C753 1.561 . S
C756 C753 1.526 . S
C756 C757 1.396 . S
C756 C761 1.390 . S
C757 C751 1.465 . S
C757 C756 1.396 . S
C757 C758 1.399 . S
C758 H744 0.929 . S
C758 C757 1.399 . S
C758 C759 1.385 . S
C759 H745 0.931 . S
C759 C758 1.385 . S
C759 C760 1.389 . S
C760 C759 1.389 . S
C760 C761 1.387 . S
C761 H746 0.930 . S
C761 C756 1.390 . S
C761 C760 1.387 . S
H762 C774 0.930 . S
H763 C776 0.930 . S
H764 C777 0.930 . S
H765 C781 0.959 . S
H766 C781 0.959 . S
H767 C781 0.961 . S
H768 C782 0.960 . S
H769 C782 0.961 . S
H770 C782 0.959 . S
H771 C785 0.929 . S
H772 C786 0.931 . S
H773 C788 0.930 . S
C774 H762 0.930 . S
C774 C775 1.399 . S
C774 C779 1.399 . S
C775 C774 1.399 . S
C775 C776 1.376 . S
C776 H763 0.930 . S
C776 C775 1.376 . S
C776 C777 1.388 . S
C777 H764 0.930 . S
C777 C776 1.388 . S
C777 C778 1.390 . S
C778 C777 1.390 . S
C778 C779 1.394 . S
C778 C784 1.465 . S
C779 C774 1.399 . S
C779 C778 1.394 . S
C779 C780 1.516 . S
C780 C779 1.516 . S
C780 C781 1.502 . S
C780 C782 1.561 . S
C780 C783 1.526 . S
C781 H765 0.959 . S
C781 H766 0.959 . S
C781 H767 0.961 . S
C781 C780 1.502 . S
C782 H768 0.960 . S
C782 H769 0.961 . S
C782 H770 0.959 . S
C782 C780 1.561 . S
C783 C780 1.526 . S
C783 C784 1.396 . S
C783 C788 1.390 . S
C784 C778 1.465 . S
C784 C783 1.396 . S
C784 C785 1.399 . S
C785 H771 0.929 . S
C785 C784 1.399 . S
C785 C786 1.385 . S
C786 H772 0.931 . S
C786 C785 1.385 . S
C786 C787 1.389 . S
C787 C786 1.389 . S
C787 C788 1.387 . S
C788 H773 0.930 . S
C788 C783 1.390 . S
C788 C787 1.387 . S
H789 C801 0.930 . S
H790 C803 0.930 . S
H791 C804 0.930 . S
H792 C808 0.959 . S
H793 C808 0.959 . S
H794 C808 0.961 . S
H795 C809 0.960 . S
H796 C809 0.961 . S
H797 C809 0.959 . S
H798 C812 0.929 . S
H799 C813 0.931 . S
H800 C815 0.930 . S
C801 H789 0.930 . S
C801 C802 1.399 . S
C801 C806 1.399 . S
C802 C801 1.399 . S
C802 C803 1.376 . S
C803 H790 0.930 . S
C803 C802 1.376 . S
C803 C804 1.388 . S
C804 H791 0.930 . S
C804 C803 1.388 . S
C804 C805 1.390 . S
C805 C804 1.390 . S
C805 C806 1.394 . S
C805 C811 1.465 . S
C806 C801 1.399 . S
C806 C805 1.394 . S
C806 C807 1.516 . S
C807 C806 1.516 . S
C807 C808 1.502 . S
C807 C809 1.561 . S
C807 C810 1.526 . S
C808 H792 0.959 . S
C808 H793 0.959 . S
C808 H794 0.961 . S
C808 C807 1.502 . S
C809 H795 0.960 . S
C809 H796 0.961 . S
C809 H797 0.959 . S
C809 C807 1.561 . S
C810 C807 1.526 . S
C810 C811 1.396 . S
C810 C815 1.390 . S
C811 C805 1.465 . S
C811 C810 1.396 . S
C811 C812 1.399 . S
C812 H798 0.929 . S
C812 C811 1.399 . S
C812 C813 1.385 . S
C813 H799 0.931 . S
C813 C812 1.385 . S
C813 C814 1.389 . S
C814 C813 1.389 . S
C814 C815 1.387 . S
C815 H800 0.930 . S
C815 C810 1.390 . S
C815 C814 1.387 . S
H816 C828 0.930 . S
H817 C830 0.930 . S
H818 C831 0.930 . S
H819 C835 0.959 . S
H820 C835 0.959 . S
H821 C835 0.961 . S
H822 C836 0.960 . S
H823 C836 0.961 . S
H824 C836 0.959 . S
H825 C839 0.929 . S
H826 C840 0.931 . S
H827 C842 0.930 . S
C828 H816 0.930 . S
C828 C829 1.399 . S
C828 C833 1.399 . S
C829 C828 1.399 . S
C829 C830 1.376 . S
C830 H817 0.930 . S
C830 C829 1.376 . S
C830 C831 1.388 . S
C831 H818 0.930 . S
C831 C830 1.388 . S
C831 C832 1.390 . S
C832 C831 1.390 . S
C832 C833 1.394 . S
C832 C838 1.465 . S
C833 C828 1.399 . S
C833 C832 1.394 . S
C833 C834 1.516 . S
C834 C833 1.516 . S
C834 C835 1.502 . S
C834 C836 1.561 . S
C834 C837 1.526 . S
C835 H819 0.959 . S
C835 H820 0.959 . S
C835 H821 0.961 . S
C835 C834 1.502 . S
C836 H822 0.960 . S
C836 H823 0.961 . S
C836 H824 0.959 . S
C836 C834 1.561 . S
C837 C834 1.526 . S
C837 C838 1.396 . S
C837 C842 1.390 . S
C838 C832 1.465 . S
C838 C837 1.396 . S
C838 C839 1.399 . S
C839 H825 0.929 . S
C839 C838 1.399 . S
C839 C840 1.385 . S
C840 H826 0.931 . S
C840 C839 1.385 . S
C840 C841 1.389 . S
C841 C840 1.389 . S
C841 C842 1.387 . S
C842 H827 0.930 . S
C842 C837 1.390 . S
C842 C841 1.387 . S
H843 C855 0.930 . S
H844 C857 0.930 . S
H845 C858 0.930 . S
H846 C862 0.959 . S
H847 C862 0.959 . S
H848 C862 0.961 . S
H849 C863 0.960 . S
H850 C863 0.961 . S
H851 C863 0.959 . S
H852 C866 0.929 . S
H853 C867 0.931 . S
H854 C869 0.930 . S
C855 H843 0.930 . S
C855 C856 1.399 . S
C855 C860 1.399 . S
C856 C855 1.399 . S
C856 C857 1.376 . S
C857 H844 0.930 . S
C857 C856 1.376 . S
C857 C858 1.388 . S
C858 H845 0.930 . S
C858 C857 1.388 . S
C858 C859 1.390 . S
C859 C858 1.390 . S
C859 C860 1.394 . S
C859 C865 1.465 . S
C860 C855 1.399 . S
C860 C859 1.394 . S
C860 C861 1.516 . S
C861 C860 1.516 . S
C861 C862 1.502 . S
C861 C863 1.561 . S
C861 C864 1.526 . S
C862 H846 0.959 . S
C862 H847 0.959 . S
C862 H848 0.961 . S
C862 C861 1.502 . S
C863 H849 0.960 . S
C863 H850 0.961 . S
C863 H851 0.959 . S
C863 C861 1.561 . S
C864 C861 1.526 . S
C864 C865 1.396 . S
C864 C869 1.390 . S
C865 C859 1.465 . S
C865 C864 1.396 . S
C865 C866 1.399 . S
C866 H852 0.929 . S
C866 C865 1.399 . S
C866 C867 1.385 . S
C867 H853 0.931 . S
C867 C866 1.385 . S
C867 C868 1.389 . S
C868 C867 1.389 . S
C868 C869 1.387 . S
C869 H854 0.930 . S
C869 C864 1.390 . S
C869 C868 1.387 . S
H870 C882 0.930 . S
H871 C884 0.930 . S
H872 C885 0.930 . S
H873 C889 0.959 . S
H874 C889 0.959 . S
H875 C889 0.961 . S
H876 C890 0.960 . S
H877 C890 0.961 . S
H878 C890 0.959 . S
H879 C893 0.929 . S
H880 C894 0.931 . S
H881 C896 0.930 . S
C882 H870 0.930 . S
C882 C883 1.399 . S
C882 C887 1.399 . S
C883 C882 1.399 . S
C883 C884 1.376 . S
C884 H871 0.930 . S
C884 C883 1.376 . S
C884 C885 1.388 . S
C885 H872 0.930 . S
C885 C884 1.388 . S
C885 C886 1.390 . S
C886 C885 1.390 . S
C886 C887 1.394 . S
C886 C892 1.465 . S
C887 C882 1.399 . S
C887 C886 1.394 . S
C887 C888 1.516 . S
C888 C887 1.516 . S
C888 C889 1.502 . S
C888 C890 1.561 . S
C888 C891 1.526 . S
C889 H873 0.959 . S
C889 H874 0.959 . S
C889 H875 0.961 . S
C889 C888 1.502 . S
C890 H876 0.960 . S
C890 H877 0.961 . S
C890 H878 0.959 . S
C890 C888 1.561 . S
C891 C888 1.526 . S
C891 C892 1.396 . S
C891 C896 1.390 . S
C892 C886 1.465 . S
C892 C891 1.396 . S
C892 C893 1.399 . S
C893 H879 0.929 . S
C893 C892 1.399 . S
C893 C894 1.385 . S
C894 H880 0.931 . S
C894 C893 1.385 . S
C894 C895 1.389 . S
C895 C894 1.389 . S
C895 C896 1.387 . S
C896 H881 0.930 . S
C896 C891 1.390 . S
C896 C895 1.387 . S
H897 C909 0.930 . S
H898 C911 0.930 . S
H899 C912 0.930 . S
H900 C916 0.959 . S
H901 C916 0.959 . S
H902 C916 0.961 . S
H903 C917 0.960 . S
H904 C917 0.961 . S
H905 C917 0.959 . S
H906 C920 0.929 . S
H907 C921 0.931 . S
H908 C923 0.930 . S
C909 H897 0.930 . S
C909 C910 1.399 . S
C909 C914 1.399 . S
C910 C909 1.399 . S
C910 C911 1.376 . S
C911 H898 0.930 . S
C911 C910 1.376 . S
C911 C912 1.388 . S
C912 H899 0.930 . S
C912 C911 1.388 . S
C912 C913 1.390 . S
C913 C912 1.390 . S
C913 C914 1.394 . S
C913 C919 1.465 . S
C914 C909 1.399 . S
C914 C913 1.394 . S
C914 C915 1.516 . S
C915 C914 1.516 . S
C915 C916 1.502 . S
C915 C917 1.561 . S
C915 C918 1.526 . S
C916 H900 0.959 . S
C916 H901 0.959 . S
C916 H902 0.961 . S
C916 C915 1.502 . S
C917 H903 0.960 . S
C917 H904 0.961 . S
C917 H905 0.959 . S
C917 C915 1.561 . S
C918 C915 1.526 . S
C918 C919 1.396 . S
C918 C923 1.390 . S
C919 C913 1.465 . S
C919 C918 1.396 . S
C919 C920 1.399 . S
C920 H906 0.929 . S
C920 C919 1.399 . S
C920 C921 1.385 1_554 S
C921 H907 0.931 . S
C921 C920 1.385 1_556 S
C921 C922 1.389 1_556 S
C922 C921 1.389 1_554 S
C922 C923 1.387 . S
C923 H908 0.930 . S
C923 C918 1.390 . S
C923 C922 1.387 . S
C289 N2 1.368 . S
C301 N140 1.366 . S
C316 N25 1.358 . S
C328 N163 1.334 . S
C343 N186 1.344 . S
C355 N48 1.363 . S
C370 N71 1.342 . S
C382 N209 1.314 . S
C397 N94 1.301 . S
C409 N232 1.330 . S
C424 N255 1.268 . S
C436 N117 1.261 . S
C451 C191 1.400 . S
C463 C7 1.436 . S
C478 C30 1.441 . S
C490 C214 1.464 . S
C505 C237 1.386 1_556 S
C517 C53 1.408 . S
C532 C260 1.408 . S
C544 C76 1.445 1_554 S
C559 C99 1.451 . S
C571 C145 1.464 . S
C586 C122 1.399 . S
C598 C168 1.435 . S
C613 N265 1.784 . S
C625 N12 1.851 . S
C640 N150 1.787 . S
C652 N35 1.851 . S
C667 N58 1.849 . S
C679 N173 1.775 . S
C694 N196 1.846 . S
C706 N81 1.797 . S
C721 N219 1.833 . S
C733 N104 1.779 . S
C748 N242 1.804 . S
C760 N127 1.841 . S
C775 C16 1.692 . S
C787 C246 1.712 . S
C802 C269 1.702 . S
C814 C39 1.725 . S
C829 C62 1.693 . S
C841 C154 1.710 . S
C856 C85 1.703 . S
C868 C177 1.699 . S
C883 C108 1.696 1_556 S
C895 C200 1.707 . S
C910 C131 1.722 . S
C922 C223 1.690 1_554 S
