# Generated by pormake.
# Topology und, (4)-cn, num edge types: 1
# Building blocks:
#     Node 0, Type 0, BuildingBlock: CEKHIL_clean_sbu_0, # of connection points: 4
#     Node 1, Type 0, BuildingBlock: CEKHIL_clean_sbu_0, # of connection points: 4
#     Node 2, Type 0, BuildingBlock: CEKHIL_clean_sbu_0, # of connection points: 4
#     Node 3, Type 0, BuildingBlock: CEKHIL_clean_sbu_0, # of connection points: 4
#     Node 4, Type 0, BuildingBlock: CEKHIL_clean_sbu_0, # of connection points: 4
#     Node 5, Type 0, BuildingBlock: CEKHIL_clean_sbu_0, # of connection points: 4
#     Node 6, Type 0, BuildingBlock: CEKHIL_clean_sbu_0, # of connection points: 4
#     Node 7, Type 0, BuildingBlock: CEKHIL_clean_sbu_0, # of connection points: 4
#     Node 8, Type 0, BuildingBlock: CEKHIL_clean_sbu_0, # of connection points: 4
#     Node 9, Type 0, BuildingBlock: CEKHIL_clean_sbu_0, # of connection points: 4
#     Node 10, Type 0, BuildingBlock: CEKHIL_clean_sbu_0, # of connection points: 4
#     Node 11, Type 0, BuildingBlock: CEKHIL_clean_sbu_0, # of connection points: 4
#     Node 12, Type 0, BuildingBlock: CEKHIL_clean_sbu_0, # of connection points: 4
#     Node 13, Type 0, BuildingBlock: CEKHIL_clean_sbu_0, # of connection points: 4
#     Node 14, Type 0, BuildingBlock: CEKHIL_clean_sbu_0, # of connection points: 4
#     Node 15, Type 0, BuildingBlock: CEKHIL_clean_sbu_0, # of connection points: 4
#     Edge 16, Type (0, 0), BuildingBlock: EZIPEK_clean_linker_0, # of connection points: 2
#     Edge 17, Type (0, 0), BuildingBlock: EZIPEK_clean_linker_0, # of connection points: 2
#     Edge 18, Type (0, 0), BuildingBlock: EZIPEK_clean_linker_0, # of connection points: 2
#     Edge 19, Type (0, 0), BuildingBlock: EZIPEK_clean_linker_0, # of connection points: 2
#     Edge 20, Type (0, 0), BuildingBlock: EZIPEK_clean_linker_0, # of connection points: 2
#     Edge 21, Type (0, 0), BuildingBlock: EZIPEK_clean_linker_0, # of connection points: 2
#     Edge 22, Type (0, 0), BuildingBlock: EZIPEK_clean_linker_0, # of connection points: 2
#     Edge 23, Type (0, 0), BuildingBlock: EZIPEK_clean_linker_0, # of connection points: 2
#     Edge 24, Type (0, 0), BuildingBlock: EZIPEK_clean_linker_0, # of connection points: 2
#     Edge 25, Type (0, 0), BuildingBlock: EZIPEK_clean_linker_0, # of connection points: 2
#     Edge 26, Type (0, 0), BuildingBlock: EZIPEK_clean_linker_0, # of connection points: 2
#     Edge 27, Type (0, 0), BuildingBlock: EZIPEK_clean_linker_0, # of connection points: 2
#     Edge 28, Type (0, 0), BuildingBlock: EZIPEK_clean_linker_0, # of connection points: 2
#     Edge 29, Type (0, 0), BuildingBlock: EZIPEK_clean_linker_0, # of connection points: 2
#     Edge 30, Type (0, 0), BuildingBlock: EZIPEK_clean_linker_0, # of connection points: 2
#     Edge 31, Type (0, 0), BuildingBlock: EZIPEK_clean_linker_0, # of connection points: 2
#     Edge 32, Type (0, 0), BuildingBlock: EZIPEK_clean_linker_0, # of connection points: 2
#     Edge 33, Type (0, 0), BuildingBlock: EZIPEK_clean_linker_0, # of connection points: 2
#     Edge 34, Type (0, 0), BuildingBlock: EZIPEK_clean_linker_0, # of connection points: 2
#     Edge 35, Type (0, 0), BuildingBlock: EZIPEK_clean_linker_0, # of connection points: 2
#     Edge 36, Type (0, 0), BuildingBlock: EZIPEK_clean_linker_0, # of connection points: 2
#     Edge 37, Type (0, 0), BuildingBlock: EZIPEK_clean_linker_0, # of connection points: 2
#     Edge 38, Type (0, 0), BuildingBlock: EZIPEK_clean_linker_0, # of connection points: 2
#     Edge 39, Type (0, 0), BuildingBlock: EZIPEK_clean_linker_0, # of connection points: 2
#     Edge 40, Type (0, 0), BuildingBlock: EZIPEK_clean_linker_0, # of connection points: 2
#     Edge 41, Type (0, 0), BuildingBlock: EZIPEK_clean_linker_0, # of connection points: 2
#     Edge 42, Type (0, 0), BuildingBlock: EZIPEK_clean_linker_0, # of connection points: 2
#     Edge 43, Type (0, 0), BuildingBlock: EZIPEK_clean_linker_0, # of connection points: 2
#     Edge 44, Type (0, 0), BuildingBlock: EZIPEK_clean_linker_0, # of connection points: 2
#     Edge 45, Type (0, 0), BuildingBlock: EZIPEK_clean_linker_0, # of connection points: 2
#     Edge 46, Type (0, 0), BuildingBlock: EZIPEK_clean_linker_0, # of connection points: 2
#     Edge 47, Type (0, 0), BuildingBlock: EZIPEK_clean_linker_0, # of connection points: 2
# Relax obj value: 0.006
# Max RMSD: 0.041
# Mean RMSD: 0.041
data_MOF--net-und--node1-CEKHIL_clean_sbu_0--edge1-EZIPEK_clean_linker_0
_symmetry_space_group_name_H-M    P1
_symmetry_Int_Tables_number       1
_symmetry_cell_setting            triclinic
loop_
_symmetry_equiv_pos_as_xyz
'x, y, z'
_cell_length_a     43.414522
_cell_length_b     43.432718
_cell_length_c     16.132501
_cell_angle_alpha  90.008367
_cell_angle_beta   90.023648
_cell_angle_gamma 94.121535
loop_
_atom_site_label
_atom_site_type_symbol
_atom_site_fract_x
_atom_site_fract_y
_atom_site_fract_z
_atom_type_partial_charge
Co0 Co 0.24356 0.35938 0.05562 0.0
O1 O 0.23601 0.39139 0.13478 0.0
O2 O 0.2074 0.38059 0.02423 0.0
C3 C 0.24999 0.3223 0.15147 0.0
O4 O 0.24382 0.32758 0.96101 0.0
Co5 Co 0.3068 0.33057 0.05219 0.0
O6 O 0.28954 0.30618 0.9571 0.0
C7 C 0.3016 0.39282 0.98437 0.0
C8 C 0.21183 0.39688 0.09155 0.0
C9 C 0.26266 0.30933 0.92806 0.0
O10 O 0.27197 0.3895 0.99055 0.0
O11 O 0.31968 0.37334 0.01262 0.0
O12 O 0.22257 0.32846 0.12761 0.0
O13 O 0.27244 0.34015 0.12177 0.0
Co14 Co 0.92152 0.0392 0.25792 0.0
O15 O 0.89037 0.04528 0.17476 0.0
O16 O 0.89759 0.07357 0.28745 0.0
C17 C 0.96121 0.03556 0.16762 0.0
O18 O 0.95126 0.04105 0.35694 0.0
Co19 Co 0.95443 0.97873 0.2662 0.0
O20 O 0.97612 0.99736 0.36423 0.0
C21 C 0.89051 0.97904 0.32449 0.0
C22 C 0.88271 0.0687 0.21811 0.0
C23 C 0.97061 0.0239 0.39155 0.0
O24 O 0.89198 0.00871 0.31886 0.0
O25 O 0.91173 0.96256 0.29824 0.0
O26 O 0.95273 0.06224 0.19089 0.0
O27 O 0.94402 0.01194 0.19341 0.0
Co28 Co 0.26584 0.69187 0.55154 0.0
O29 O 0.27609 0.66281 0.63598 0.0
O30 O 0.30124 0.66994 0.51747 0.0
C31 C 0.26113 0.7315 0.64102 0.0
O32 O 0.2626 0.72026 0.45031 0.0
Co33 Co 0.20278 0.72046 0.55198 0.0
O34 O 0.21931 0.74576 0.45802 0.0
C35 C 0.20691 0.6569 0.49029 0.0
C36 C 0.29857 0.65579 0.58851 0.0
C37 C 0.24446 0.74018 0.42242 0.0
O38 O 0.23648 0.65944 0.49818 0.0
O39 O 0.18933 0.67759 0.51421 0.0
O40 O 0.28798 0.72544 0.61263 0.0
O41 O 0.23828 0.7125 0.61933 0.0
Co42 Co 0.58979 0.00763 0.74774 0.0
O43 O 0.6196 0.99628 0.66688 0.0
O44 O 0.6113 0.97262 0.78716 0.0
C45 C 0.55137 0.01109 0.65434 0.0
O46 O 0.55989 0.01285 0.84583 0.0
Co47 Co 0.56234 0.07111 0.73706 0.0
O48 O 0.53572 0.05673 0.83049 0.0
C49 C 0.6248 0.06688 0.80737 0.0
C50 C 0.62616 0.97444 0.71697 0.0
C51 C 0.54007 0.03198 0.86963 0.0
O52 O 0.62201 0.03735 0.80021 0.0
O53 O 0.60448 0.08444 0.78078 0.0
O54 O 0.55705 0.98466 0.68615 0.0
O55 O 0.5702 0.03422 0.67534 0.0
Co56 Co 0.7633 0.68775 0.99637 0.0
O57 O 0.77226 0.6574 0.9139 0.0
O58 O 0.79938 0.66661 0.02857 0.0
C59 C 0.7573 0.72648 0.90461 0.0
O60 O 0.76233 0.71804 0.09368 0.0
Co61 Co 0.70018 0.71474 1.0024 0.0
O62 O 0.71654 0.73908 0.09874 0.0
C63 C 0.70537 0.65207 0.06301 0.0
C64 C 0.7958 0.65154 0.95911 0.0
C65 C 0.74356 0.73621 0.12669 0.0
O66 O 0.73496 0.65606 0.05693 0.0
O67 O 0.68702 0.67167 0.03726 0.0
O68 O 0.78443 0.72022 0.93054 0.0
O69 O 0.7346 0.70768 0.92926 0.0
Co70 Co 0.08967 0.02007 0.81378 0.0
O71 O 0.11902 0.00796 0.89522 0.0
O72 O 0.10802 0.98251 0.77959 0.0
C73 C 0.05147 0.02788 0.9056 0.0
O74 O 0.06041 0.02544 0.71558 0.0
Co75 Co 0.06751 0.08597 0.81686 0.0
O76 O 0.04137 0.07236 0.72156 0.0
C77 C 0.12818 0.07574 0.74468 0.0
C78 C 0.12345 0.98433 0.8489 0.0
C79 C 0.04327 0.04616 0.68735 0.0
O80 O 0.12332 0.04648 0.75585 0.0
O81 O 0.10989 0.09553 0.77001 0.0
O82 O 0.05559 1.00052 0.87769 0.0
O83 O 0.07201 0.0494 0.88344 0.0
Co84 Co 0.7389 0.35685 0.50856 0.0
O85 O 0.7299 0.38661 0.42467 0.0
O86 O 0.70342 0.37894 0.54094 0.0
C87 C 0.74355 0.31718 0.41889 0.0
O88 O 0.74048 0.32747 0.60786 0.0
Co89 Co 0.80193 0.32911 0.51123 0.0
O90 O 0.78645 0.30663 0.61136 0.0
C91 C 0.79764 0.39192 0.5727 0.0
C92 C 0.70682 0.39333 0.47041 0.0
C93 C 0.75979 0.30994 0.64125 0.0
O94 O 0.76805 0.38857 0.56612 0.0
O95 O 0.81565 0.37189 0.54758 0.0
O96 O 0.71676 0.3241 0.44565 0.0
O97 O 0.76666 0.3359 0.44107 0.0
Co98 Co 0.42174 0.03363 0.3061 0.0
O99 O 0.39107 0.0427 0.38761 0.0
O100 O 0.4014 0.07028 0.27436 0.0
C101 C 0.45916 0.02623 0.40001 0.0
O102 O 0.45268 0.03209 0.20984 0.0
Co103 Co 0.44862 0.96946 0.30168 0.0
O104 O 0.47342 0.98606 0.20658 0.0
C105 C 0.38606 0.97625 0.23744 0.0
C106 C 0.38595 0.06666 0.34324 0.0
C107 C 0.47062 0.01292 0.17711 0.0
O108 O 0.39019 0.00585 0.24346 0.0
O109 O 0.4053 0.95768 0.26445 0.0
O110 O 0.45386 0.05384 0.37578 0.0
O111 O 0.44046 0.00424 0.37141 0.0
Co112 Co 0.74812 0.8571 0.55249 0.0
O113 O 0.73757 0.88526 0.63887 0.0
O114 O 0.71245 0.87891 0.52003 0.0
C115 C 0.75258 0.81646 0.63945 0.0
O116 O 0.75116 0.82928 0.45003 0.0
Co117 Co 0.81103 0.8296 0.54967 0.0
O118 O 0.79588 0.80609 0.45141 0.0
C119 C 0.80673 0.89337 0.49215 0.0
C120 C 0.71482 0.89223 0.59225 0.0
C121 C 0.76988 0.81052 0.41926 0.0
O122 O 0.77724 0.89054 0.50169 0.0
O123 O 0.82441 0.87239 0.51313 0.0
O124 O 0.726 0.823 0.61025 0.0
O125 O 0.77565 0.83571 0.62005 0.0
Co126 Co 0.41856 0.5348 0.74415 0.0
O127 O 0.38899 0.54576 0.66177 0.0
O128 O 0.39735 0.57031 0.78079 0.0
C129 C 0.45715 0.53012 0.65187 0.0
O130 O 0.44764 0.53068 0.84352 0.0
Co131 Co 0.44714 0.47158 0.73935 0.0
O132 O 0.47499 0.48897 0.82742 0.0
C133 C 0.38408 0.47584 0.80577 0.0
C134 C 0.38277 0.56824 0.71024 0.0
C135 C 0.46886 0.51318 0.86682 0.0
O136 O 0.3865 0.50543 0.79849 0.0
O137 O 0.40456 0.45829 0.78024 0.0
O138 O 0.4517 0.55694 0.68167 0.0
O139 O 0.43828 0.50732 0.6745 0.0
Co140 Co 0.75852 0.1883 0.06579 0.0
O141 O 0.76806 0.15726 0.14604 0.0
O142 O 0.79599 0.16916 0.035 0.0
C143 C 0.74972 0.22584 0.15914 0.0
O144 O 0.75697 0.21932 0.97028 0.0
Co145 Co 0.69374 0.21269 0.05833 0.0
O146 O 0.70971 0.23733 0.96224 0.0
C147 C 0.70286 0.15163 0.98999 0.0
C148 C 0.79244 0.15283 0.10239 0.0
C149 C 0.73718 0.23606 0.93586 0.0
O150 O 0.73221 0.15641 1.0004 0.0
O151 O 0.68327 0.17006 0.01544 0.0
O152 O 0.77751 0.22074 0.13617 0.0
O153 O 0.72815 0.20631 0.13178 0.0
Co154 Co 0.08802 0.51715 0.24329 0.0
O155 O 0.11935 0.509 0.16206 0.0
O156 O 0.10872 0.48051 0.27287 0.0
C157 C 0.04998 0.52496 0.1501 0.0
O158 O 0.05709 0.51668 0.33975 0.0
Co159 Co 0.06014 0.58007 0.25526 0.0
O160 O 0.03621 0.56242 0.35075 0.0
C161 C 0.12287 0.57418 0.31696 0.0
C162 C 0.12476 0.48475 0.20525 0.0
C163 C 0.03906 0.53497 0.37536 0.0
O164 O 0.11921 0.54465 0.30827 0.0
O165 O 0.10316 0.59266 0.29239 0.0
O166 O 0.05609 0.49735 0.17236 0.0
O167 O 0.06854 0.54706 0.17897 0.0
Co168 Co 0.26919 0.19102 0.49801 0.0
O169 O 0.28087 0.16143 0.41684 0.0
O170 O 0.30494 0.17031 0.53628 0.0
C171 C 0.26442 0.22938 0.40497 0.0
O172 O 0.26355 0.2208 0.59623 0.0
Co173 Co 0.20467 0.21616 0.48923 0.0
O174 O 0.21876 0.24351 0.58164 0.0
C175 C 0.21114 0.15443 0.56077 0.0
C176 C 0.30306 0.1553 0.4663 0.0
C177 C 0.24385 0.24005 0.62021 0.0
O178 O 0.24056 0.15822 0.55193 0.0
O179 O 0.19259 0.17391 0.53466 0.0
O180 O 0.29114 0.22419 0.43585 0.0
O181 O 0.24177 0.20996 0.42626 0.0
Co182 Co 0.58628 0.5115 0.30142 0.0
O183 O 0.61524 0.50115 0.38594 0.0
O184 O 0.60746 0.47546 0.26845 0.0
C185 C 0.547 0.51739 0.39112 0.0
O186 O 0.55776 0.51491 0.20044 0.0
Co187 Co 0.55911 0.57529 0.30071 0.0
O188 O 0.5335 0.559 0.20698 0.0
C189 C 0.62229 0.56945 0.23816 0.0
C190 C 0.62173 0.47823 0.33937 0.0
C191 C 0.53834 0.53351 0.1721 0.0
O192 O 0.61911 0.53994 0.24668 0.0
O193 O 0.60215 0.58762 0.26216 0.0
O194 O 0.55248 0.49027 0.36351 0.0
O195 O 0.5664 0.53979 0.36863 0.0
Co196 Co 0.24384 0.86001 0.9948 0.0
O197 O 0.2334 0.89024 0.9137 0.0
O198 O 0.20768 0.88056 0.02959 0.0
C199 C 0.24924 0.82204 0.90089 0.0
O200 O 0.24746 0.83037 0.09316 0.0
Co201 Co 0.3072 0.83166 0.99141 0.0
O202 O 0.28943 0.80332 0.07781 0.0
C203 C 0.30231 0.89442 0.05976 0.0
C204 C 0.21009 0.8958 0.96009 0.0
C205 C 0.26498 0.80919 0.11657 0.0
O206 O 0.27272 0.89187 0.05192 0.0
O207 O 0.32004 0.87416 0.03377 0.0
O208 O 0.22224 0.82724 0.92981 0.0
O209 O 0.27186 0.84082 0.92533 0.0
Co210 Co 0.91864 0.53399 0.79947 0.0
O211 O 0.89017 0.54527 0.8842 0.0
O212 O 0.89688 0.56934 0.76397 0.0
C213 C 0.95897 0.52996 0.88781 0.0
O214 O 0.94678 0.52968 0.698 0.0
Co215 Co 0.94492 0.47058 0.80176 0.0
O216 O 0.96893 0.48441 0.70294 0.0
C217 C 0.88164 0.4754 0.74188 0.0
C218 C 0.88301 0.56734 0.83552 0.0
C219 C 0.96522 0.51025 0.66902 0.0
O220 O 0.88521 0.5049 0.74927 0.0
O221 O 0.90192 0.45735 0.76549 0.0
O222 O 0.95274 0.55635 0.85676 0.0
O223 O 0.93954 0.50689 0.86946 0.0
C224 C 0.24359 0.26731 0.20097 0.0
C225 C 0.25466 0.29843 0.21547 0.0
C226 C 0.27153 0.28447 0.35553 0.0
C227 C 0.26133 0.25319 0.33971 0.0
N228 N 0.24496 0.21365 0.24076 0.0
N229 N 0.28062 0.33689 0.30425 0.0
C230 C 0.24915 0.24429 0.26082 0.0
C231 C 0.26931 0.30701 0.29186 0.0
N232 N 0.22778 0.25962 0.1297 0.0
N233 N 0.28211 0.29286 0.43278 0.0
H234 H 0.2762 0.35496 0.26455 0.0
H235 H 0.29537 0.34392 0.35254 0.0
H236 H 0.28461 0.27712 0.48058 0.0
H237 H 0.28664 0.31557 0.4522 0.0
H238 H 0.21546 0.23842 0.12066 0.0
H239 H 0.22544 0.27495 0.08081 0.0
H240 H 0.2395 0.20564 0.18135 0.0
H241 H 0.25006 0.19597 0.28104 0.0
C242 C 0.97629 0.02228 0.54504 0.0
C243 C 0.98701 0.03452 0.46827 0.0
C244 C 0.03402 0.05669 0.53652 0.0
C245 C 0.02518 0.04029 0.61021 0.0
N246 N 0.9897 0.00394 0.68105 0.0
N247 N 0.02558 0.06405 0.38905 0.0
C248 C 0.99687 0.02195 0.61337 0.0
C249 C 0.01575 0.05205 0.4635 0.0
N250 N 0.9459 0.01249 0.55352 0.0
N251 N 0.05956 0.07705 0.53682 0.0
H252 H 0.01128 0.06379 0.33706 0.0
H253 H 0.04793 0.07349 0.37817 0.0
H254 H 0.07403 0.08033 0.58811 0.0
H255 H 0.06549 0.09205 0.48818 0.0
H256 H 0.93592 0.00546 0.60975 0.0
H257 H 0.92999 0.01532 0.50611 0.0
H258 H 0.97058 0.98804 0.6833 0.0
H259 H 0.00445 1.00269 0.73175 0.0
C260 C 0.25901 0.78661 0.68721 0.0
C261 C 0.25797 0.75476 0.70729 0.0
C262 C 0.2498 0.76691 0.85399 0.0
C263 C 0.25299 0.79885 0.83478 0.0
N264 N 0.26339 0.83971 0.73502 0.0
N265 N 0.25704 0.71449 0.81037 0.0
C266 C 0.25858 0.80888 0.75194 0.0
C267 C 0.25454 0.74486 0.79087 0.0
N268 N 0.25902 0.79545 0.60595 0.0
N269 N 0.24193 0.75761 0.93256 0.0
H270 H 0.26017 0.69755 0.766 0.0
H271 H 0.25841 0.70632 0.87081 0.0
H272 H 0.23995 0.77306 0.98121 0.0
H273 H 0.23548 0.73484 0.94859 0.0
H274 H 0.25637 0.8179 0.58614 0.0
H275 H 0.25918 0.77968 0.55748 0.0
H276 H 0.27131 0.8484 0.67818 0.0
H277 H 0.2612 0.85689 0.77931 0.0
C278 C 0.47346 0.02818 0.02552 0.0
C279 C 0.48884 0.02151 0.10063 0.0
C280 C 0.53843 0.0244 0.02526 0.0
C281 C 0.52248 0.0267 0.94882 0.0
N282 N 0.47406 0.02717 0.87549 0.0
N283 N 0.53625 0.01195 0.1716 0.0
C284 C 0.4898 0.02775 0.94894 0.0
C285 C 0.5214 0.01907 0.10013 0.0
N286 N 0.44331 0.03535 0.02662 0.0
N287 N 0.56986 0.0294 0.02735 0.0
H288 H 0.52552 0.011 0.2294 0.0
H289 H 0.55892 0.00558 0.17303 0.0
H290 H 0.58304 0.0346 0.97466 0.0
H291 H 0.58265 0.03152 0.08193 0.0
H292 H 0.43216 0.04395 0.97534 0.0
H293 H 0.42998 0.03561 0.08005 0.0
H294 H 0.45013 0.02366 0.87119 0.0
H295 H 0.48496 0.02753 0.81807 0.0
C296 C 0.23256 0.77161 0.20562 0.0
C297 C 0.25883 0.79274 0.19671 0.0
C298 C 0.27688 0.77869 0.33596 0.0
C299 C 0.25152 0.75631 0.3424 0.0
N300 N 0.20888 0.72693 0.27764 0.0
N301 N 0.30641 0.81669 0.25189 0.0
C302 C 0.23035 0.75158 0.27561 0.0
C303 C 0.28116 0.79626 0.26151 0.0
N304 N 0.20944 0.77097 0.14798 0.0
N305 N 0.29621 0.78393 0.40224 0.0
H306 H 0.30871 0.83247 0.20314 0.0
H307 H 0.32561 0.81766 0.29063 0.0
H308 H 0.29505 0.77026 0.45534 0.0
H309 H 0.31269 0.80244 0.40667 0.0
H310 H 0.18823 0.75851 0.1555 0.0
H311 H 0.21021 0.78504 0.09569 0.0
H312 H 0.19496 0.72006 0.22743 0.0
H313 H 0.207 0.71136 0.32693 0.0
C314 C 0.51418 0.03135 0.44939 0.0
C315 C 0.48288 0.02094 0.4639 0.0
C316 C 0.49643 0.00367 0.60386 0.0
C317 C 0.52779 0.01355 0.58832 0.0
N318 N 0.56771 0.02923 0.48992 0.0
N319 N 0.44389 0.99573 0.5526 0.0
C320 C 0.537 0.02548 0.50948 0.0
C321 C 0.47398 0.00638 0.54019 0.0
N322 N 0.52222 0.0469 0.37798 0.0
N323 N 0.4879 0.993 0.68091 0.0
H324 H 0.42589 1.00074 0.51333 0.0
H325 H 0.43656 0.98103 0.60067 0.0
H326 H 0.50361 0.99008 0.72859 0.0
H327 H 0.46517 0.98864 0.70023 0.0
H328 H 0.54364 0.05879 0.3689 0.0
H329 H 0.507 0.04942 0.3289 0.0
H330 H 0.57594 0.03453 0.43065 0.0
H331 H 0.58522 0.0239 0.5306 0.0
C332 C 0.25078 0.2417 0.77595 0.0
C333 C 0.24872 0.25769 0.69954 0.0
C334 C 0.24732 0.3067 0.77644 0.0
C335 C 0.25377 0.29122 0.85157 0.0
N336 N 0.26261 0.24372 0.92272 0.0
N337 N 0.2477 0.30602 0.62627 0.0
C338 C 0.25591 0.25865 0.85104 0.0
C339 C 0.24752 0.29034 0.69976 0.0
N340 N 0.24573 0.21029 0.77766 0.0
N341 N 0.24063 0.33698 0.77769 0.0
H342 H 0.2468 0.29506 0.5689 0.0
H343 H 0.25121 0.32992 0.62168 0.0
H344 H 0.24082 0.35037 0.8311 0.0
H345 H 0.23212 0.34832 0.72661 0.0
H346 H 0.24346 0.19742 0.83204 0.0
H347 H 0.24065 0.19723 0.72468 0.0
H348 H 0.26881 0.221 0.92439 0.0
H349 H 0.26332 0.25443 0.98057 0.0
C350 C 0.99771 0.03677 0.95306 0.0
C351 C 0.02887 0.03217 0.97291 0.0
C352 C 0.01566 0.02862 0.12086 0.0
C353 C 0.98443 0.03301 0.10082 0.0
N354 N 0.94435 0.03583 0.99839 0.0
N355 N 0.06889 0.02745 0.07461 0.0
C356 C 0.9751 0.03573 0.01699 0.0
C357 C 0.03824 0.02913 0.05665 0.0
N358 N 0.99003 0.0433 0.87323 0.0
N359 N 0.02332 0.02254 0.20099 0.0
H360 H 0.08594 0.02736 0.02916 0.0
H361 H 0.07804 0.02812 0.13419 0.0
H362 H 0.00711 0.02156 0.24835 0.0
H363 H 0.04486 0.01635 0.22037 0.0
H364 H 0.96859 0.05013 0.85485 0.0
H365 H 0.00617 0.04438 0.82567 0.0
H366 H 0.93546 0.0345 0.93851 0.0
H367 H 0.92713 0.0346 0.04347 0.0
C368 C 0.73638 0.77455 0.84427 0.0
C369 C 0.75421 0.74862 0.83514 0.0
C370 C 0.772 0.76751 0.69848 0.0
C371 C 0.75439 0.7936 0.70779 0.0
N372 N 0.72501 0.82537 0.79629 0.0
N373 N 0.78262 0.71638 0.74569 0.0
C374 C 0.7377 0.79789 0.78221 0.0
C375 C 0.77047 0.7441 0.76025 0.0
N376 N 0.71756 0.77655 0.91144 0.0
N377 N 0.79092 0.76548 0.63156 0.0
H378 H 0.78078 0.69807 0.78755 0.0
H379 H 0.79171 0.71011 0.68898 0.0
H380 H 0.79192 0.78165 0.58434 0.0
H381 H 0.80737 0.74932 0.62576 0.0
H382 H 0.70093 0.79251 0.91725 0.0
H383 H 0.71689 0.76058 0.95916 0.0
H384 H 0.71569 0.83158 0.85275 0.0
H385 H 0.72637 0.84356 0.75413 0.0
C386 C 0.73069 0.29885 0.27463 0.0
C387 C 0.74582 0.29415 0.35133 0.0
C388 C 0.75832 0.24269 0.30561 0.0
C389 C 0.74472 0.2479 0.22761 0.0
N390 N 0.71201 0.27749 0.14347 0.0
N391 N 0.77935 0.26434 0.4331 0.0
C392 C 0.72914 0.27503 0.21368 0.0
C393 C 0.76118 0.26686 0.36487 0.0
N394 N 0.71961 0.32693 0.2581 0.0
N395 N 0.76645 0.21376 0.32516 0.0
H396 H 0.78207 0.28164 0.47726 0.0
H397 H 0.79388 0.24657 0.44199 0.0
H398 H 0.76198 0.19502 0.28549 0.0
H399 H 0.77385 0.20744 0.38375 0.0
H400 H 0.71113 0.33326 0.20075 0.0
H401 H 0.72132 0.34529 0.29981 0.0
H402 H 0.69747 0.29503 0.1321 0.0
H403 H 0.7103 0.26024 0.099 0.0
C404 C 0.74542 0.2878 0.86748 0.0
C405 C 0.74599 0.25518 0.86205 0.0
C406 C 0.75094 0.25871 0.71092 0.0
C407 C 0.75101 0.29135 0.71613 0.0
N408 N 0.74354 0.33702 0.7964 0.0
N409 N 0.75543 0.21 0.7816 0.0
C410 C 0.74682 0.30596 0.79367 0.0
C411 C 0.75062 0.24075 0.78463 0.0
N412 N 0.74535 0.30136 0.94403 0.0
N413 N 0.74913 0.24483 0.63481 0.0
H414 H 0.75542 0.19602 0.83401 0.0
H415 H 0.76222 0.1988 0.72833 0.0
H416 H 0.74729 0.2573 0.58006 0.0
H417 H 0.74595 0.22108 0.62598 0.0
H418 H 0.74737 0.32505 0.95427 0.0
H419 H 0.74606 0.28869 0.9988 0.0
H420 H 0.73772 0.34892 0.84939 0.0
H421 H 0.74437 0.35096 0.74385 0.0
C422 C 0.75495 0.78817 0.19319 0.0
C423 C 0.75339 0.75541 0.19972 0.0
C424 C 0.75757 0.75959 0.35086 0.0
C425 C 0.76116 0.79221 0.34414 0.0
N426 N 0.76797 0.83773 0.25899 0.0
N427 N 0.76053 0.71024 0.28282 0.0
C428 C 0.76097 0.80662 0.26528 0.0
C429 C 0.75702 0.7412 0.27796 0.0
N430 N 0.75097 0.80163 0.11773 0.0
N431 N 0.75355 0.74622 0.4272 0.0
H432 H 0.76104 0.69606 0.23093 0.0
H433 H 0.76619 0.69918 0.33743 0.0
H434 H 0.75286 0.75909 0.4817 0.0
H435 H 0.74768 0.72277 0.43587 0.0
H436 H 0.74768 0.82496 0.10997 0.0
H437 H 0.74992 0.78913 0.06251 0.0
H438 H 0.7717 0.84926 0.20294 0.0
H439 H 0.77216 0.8519 0.31049 0.0
C440 C 0.52684 0.54749 0.02527 0.0
C441 C 0.52191 0.52654 0.09245 0.0
C442 C 0.48162 0.49714 0.01201 0.0
C443 C 0.4853 0.51931 0.94697 0.0
N444 N 0.50741 0.56848 0.89785 0.0
N445 N 0.49331 0.4827 0.1536 0.0
C446 C 0.50667 0.5454 0.95555 0.0
C447 C 0.4991 0.50153 0.08662 0.0
N448 N 0.55178 0.56861 0.02665 0.0
N449 N 0.46119 0.47189 1.00244 0.0
H450 H 0.5067 0.48407 0.20726 0.0
H451 H 0.47447 0.46659 0.15814 0.0
H452 H 0.44564 0.46941 0.95319 0.0
H453 H 0.46017 0.45281 0.04159 0.0
H454 H 0.55876 0.58226 0.97606 0.0
H455 H 0.56745 0.57044 0.07578 0.0
H456 H 0.5201 0.58957 0.90518 0.0
H457 H 0.49318 0.56784 0.84584 0.0
C458 C 0.98765 0.52029 0.44134 0.0
C459 C 0.02032 0.52428 0.4484 0.0
C460 C 0.01606 0.52294 0.59987 0.0
C461 C 0.98353 0.51766 0.59303 0.0
N462 N 0.93863 0.50573 0.50808 0.0
N463 N 0.06581 0.5212 0.53263 0.0
C464 C 0.96933 0.5149 0.51388 0.0
C465 C 0.0346 0.52303 0.52721 0.0
N466 N 0.97421 0.52144 0.36494 0.0
N467 N 0.02915 0.5289 0.67582 0.0
H468 H 0.07986 0.51998 0.48055 0.0
H469 H 0.0773 0.51753 0.58804 0.0
H470 H 0.01613 0.52981 0.72999 0.0
H471 H 0.05238 0.53595 0.68414 0.0
H472 H 0.95062 0.52288 0.35572 0.0
H473 H 0.98702 0.52176 0.3103 0.0
H474 H 0.92742 0.50004 0.45253 0.0
H475 H 0.92467 0.50165 0.55999 0.0
C476 C 1.00024 0.54453 0.09518 0.0
C477 C 0.02785 0.52968 0.08138 0.0
C478 C 0.00901 0.51256 0.94463 0.0
C479 C 0.98192 0.52847 0.95615 0.0
N480 N 0.95231 0.56167 0.04031 0.0
N481 N 0.06239 0.50863 0.98362 0.0
C482 C 0.97781 0.54524 0.03072 0.0
C483 C 0.03331 0.51624 1.00338 0.0
N484 N 0.99507 0.55715 0.17081 0.0
N485 N 0.01149 0.4935 0.87825 0.0
H486 H 0.08113 0.51356 0.02301 0.0
H487 H 0.06864 0.50126 0.92492 0.0
H488 H 0.99412 0.49016 0.83446 0.0
H489 H 0.0293 0.47887 0.87114 0.0
H490 H 0.97398 0.56468 0.18983 0.0
H491 H 0.01192 0.55888 0.21642 0.0
H492 H 0.94988 0.57771 0.08733 0.0
H493 H 0.93371 0.56016 0.99937 0.0
C494 C 0.47004 0.52224 0.50222 0.0
C495 C 0.48021 0.52682 0.58533 0.0
C496 C 0.53401 0.52386 0.54121 0.0
C497 C 0.524 0.52125 0.45753 0.0
N498 N 0.4834 0.52228 0.35623 0.0
N499 N 0.52165 0.53583 0.68366 0.0
C500 C 0.49222 0.5215 0.43745 0.0
C501 C 0.51217 0.52886 0.60467 0.0
N502 N 0.43912 0.51852 0.48515 0.0
N503 N 0.56425 0.52034 0.56042 0.0
H504 H 0.50626 0.53807 0.73233 0.0
H505 H 0.54457 0.54133 0.70014 0.0
H506 H 0.58106 0.5171 0.51578 0.0
H507 H 0.57238 0.5183 0.62072 0.0
H508 H 0.4302 0.51131 0.4279 0.0
H509 H 0.42205 0.5209 0.52962 0.0
H510 H 0.46113 0.52596 0.33662 0.0
H511 H 0.49909 0.52166 0.3077 0.0
C512 C 0.16641 0.44792 0.23383 0.0
C513 C 0.14721 0.4623 0.17648 0.0
C514 C 0.17408 0.43766 0.06292 0.0
C515 C 0.18966 0.41956 0.12055 0.0
N516 N 0.19219 0.40177 0.26292 0.0
N517 N 0.12682 0.46192 0.03682 0.0
C518 C 0.1835 0.42303 0.20676 0.0
C519 C 0.14935 0.45472 0.09096 0.0
N520 N 0.16935 0.45843 0.31341 0.0
N521 N 0.18328 0.43966 0.98207 0.0
H522 H 0.10646 0.47086 0.05642 0.0
H523 H 0.12642 0.45482 0.97505 0.0
H524 H 0.20268 0.42952 0.95979 0.0
H525 H 0.17387 0.4546 0.93995 0.0
H526 H 0.18517 0.45012 0.355 0.0
H527 H 0.15891 0.4778 0.33472 0.0
H528 H 0.1859 0.40235 0.32524 0.0
H529 H 0.20185 0.38141 0.24603 0.0
C530 C 0.84878 0.93494 0.4993 0.0
C531 C 0.8222 0.92226 0.45739 0.0
C532 C 0.83585 0.9559 0.33826 0.0
C533 C 0.86543 0.96288 0.37366 0.0
N534 N 0.90148 0.95566 0.48511 0.0
N535 N 0.78998 0.9206 0.33484 0.0
C536 C 0.87221 0.95177 0.45387 0.0
C537 C 0.81514 0.93319 0.37682 0.0
N538 N 0.85162 0.93065 0.58277 0.0
N539 N 0.82788 0.97042 0.26712 0.0
H540 H 0.77376 0.9047 0.36106 0.0
H541 H 0.78599 0.92471 0.2723 0.0
H542 H 0.84292 0.98646 0.23662 0.0
H543 H 0.80566 0.96853 0.24241 0.0
H544 H 0.86935 0.94156 0.61796 0.0
H545 H 0.83428 0.91894 0.61784 0.0
H546 H 0.90826 0.94516 0.53957 0.0
H547 H 0.91973 0.96702 0.45297 0.0
C548 C 0.30985 0.60201 0.62989 0.0
C549 C 0.32058 0.63327 0.61669 0.0
C550 C 0.37239 0.62184 0.66377 0.0
C551 C 0.36104 0.59119 0.68305 0.0
N552 N 0.31819 0.55309 0.69623 0.0
N553 N 0.36049 0.67438 0.63336 0.0
C554 C 0.32953 0.58154 0.66925 0.0
C555 C 0.35146 0.64359 0.63684 0.0
N556 N 0.28117 0.59165 0.60224 0.0
N557 N 0.40339 0.62988 0.66787 0.0
H558 H 0.34602 0.69101 0.61317 0.0
H559 H 0.38148 0.68379 0.65661 0.0
H560 H 0.41948 0.61482 0.68802 0.0
H561 H 0.41351 0.65066 0.64519 0.0
H562 H 0.27314 0.56849 0.60191 0.0
H563 H 0.26624 0.60594 0.57278 0.0
H564 H 0.29482 0.54581 0.69605 0.0
H565 H 0.3319 0.53762 0.72568 0.0
C566 C 0.68242 0.09664 0.97285 0.0
C567 C 0.69076 0.12576 0.937 0.0
C568 C 0.66732 0.10829 0.8058 0.0
C569 C 0.65285 0.08232 0.84686 0.0
N570 N 0.64847 0.04989 0.96905 0.0
N571 N 0.69112 0.1601 0.81942 0.0
C572 C 0.66148 0.07546 0.92975 0.0
C573 C 0.68369 0.13163 0.85294 0.0
N574 N 0.69431 0.08948 0.0483 0.0
N575 N 0.66535 0.11042 0.72149 0.0
H576 H 0.70325 0.17777 0.85207 0.0
H577 H 0.68345 0.16686 0.76147 0.0
H578 H 0.65408 0.09304 0.68559 0.0
H579 H 0.67754 0.12749 0.68693 0.0
H580 H 0.69152 0.06763 0.07493 0.0
H581 H 0.70938 0.10485 0.08106 0.0
H582 H 0.6503 0.04615 0.03253 0.0
H583 H 0.63498 0.0326 0.93897 0.0
C584 C 0.1453 0.5935 0.45167 0.0
C585 C 0.14925 0.588 0.36577 0.0
C586 C 0.19598 0.62319 0.36461 0.0
C587 C 0.19163 0.62904 0.45041 0.0
N588 N 0.16846 0.61284 0.58005 0.0
N589 N 0.18193 0.59079 0.24548 0.0
C590 C 0.1684 0.61169 0.49541 0.0
C591 C 0.17601 0.60044 0.3241 0.0
N592 N 0.1186 0.58296 0.49029 0.0
N593 N 0.2176 0.64078 0.32055 0.0
H594 H 0.1674 0.57434 0.2147 0.0
H595 H 0.20242 0.59686 0.21406 0.0
H596 H 0.2328 0.65751 0.34767 0.0
H597 H 0.21925 0.64019 0.2562 0.0
H598 H 0.11283 0.58916 0.55039 0.0
H599 H 0.10106 0.5698 0.45985 0.0
H600 H 0.15372 0.59867 0.61689 0.0
H601 H 0.18545 0.62579 0.6134 0.0
C602 C 0.68035 0.9637 0.67944 0.0
C603 C 0.64921 0.95247 0.69232 0.0
C604 C 0.6615 0.90115 0.64369 0.0
C605 C 0.69182 0.91321 0.62324 0.0
N606 N 0.72932 0.95665 0.61181 0.0
N607 N 0.60879 0.9118 0.67658 0.0
C608 C 0.70108 0.94469 0.63871 0.0
C609 C 0.63942 0.92148 0.67209 0.0
N610 N 0.6903 0.99231 0.70839 0.0
N611 N 0.65408 0.87006 0.63889 0.0
H612 H 0.59197 0.92576 0.69834 0.0
H613 H 0.59968 0.89074 0.65313 0.0
H614 H 0.66943 0.85443 0.61768 0.0
H615 H 0.63361 0.85943 0.6621 0.0
H616 H 0.71335 1.00074 0.70868 0.0
H617 H 0.6758 0.00667 0.7392 0.0
H618 H 0.73624 0.9801 0.61311 0.0
H619 H 0.74501 0.94343 0.58152 0.0
C620 C 0.33713 0.43932 0.8047 0.0
C621 C 0.35701 0.46068 0.84916 0.0
C622 C 0.33166 0.44402 0.97917 0.0
C623 C 0.3161 0.41904 0.93635 0.0
N624 N 0.30471 0.39158 0.80883 0.0
N625 N 0.3743 0.48328 0.97938 0.0
C626 C 0.31856 0.41661 0.84892 0.0
C627 C 0.35418 0.46351 0.93654 0.0
N628 N 0.33617 0.44084 0.72014 0.0
N629 N 0.32496 0.44886 0.06068 0.0
H630 H 0.39086 0.49819 0.95056 0.0
H631 H 0.3759 0.4836 0.04377 0.0
H632 H 0.30859 0.43476 0.09302 0.0
H633 H 0.33339 0.46825 0.09381 0.0
H634 H 0.32021 0.42773 0.68414 0.0
H635 H 0.34947 0.4575 0.68657 0.0
H636 H 0.3085 0.3866 0.74668 0.0
H637 H 0.29099 0.3745 0.8394 0.0
C638 C 0.82245 0.12852 0.21683 0.0
C639 C 0.81568 0.13118 0.13094 0.0
C640 C 0.85654 0.09659 0.10174 0.0
C641 C 0.85919 0.08972 0.18779 0.0
N642 N 0.83689 0.09387 0.32457 0.0
N643 N 0.82176 0.11039 0.99316 0.0
C644 C 0.83978 0.10403 0.24467 0.0
C645 C 0.83131 0.113 0.07364 0.0
N646 N 0.81429 0.15041 0.27166 0.0
N647 N 0.8789 0.08939 0.04702 0.0
H648 H 0.80219 0.12025 0.97093 0.0
H649 H 0.83115 0.0953 0.95142 0.0
H650 H 0.89957 0.08071 0.06545 0.0
H651 H 0.87878 0.09613 0.985 0.0
H652 H 0.8207 0.15032 0.33397 0.0
H653 H 0.80538 0.17084 0.25248 0.0
H654 H 0.82112 0.10245 0.36585 0.0
H655 H 0.84714 0.07444 0.34625 0.0
C656 C 0.84884 0.64142 0.90756 0.0
C657 C 0.81844 0.62993 0.92927 0.0
C658 C 0.82927 0.57862 0.87731 0.0
C659 C 0.86044 0.58945 0.86266 0.0
N660 N 0.90134 0.62975 0.87581 0.0
N661 N 0.78072 0.5869 0.94571 0.0
C662 C 0.87062 0.6205 0.88083 0.0
C663 C 0.80889 0.59832 0.91692 0.0
N664 N 0.85658 0.67249 0.90917 0.0
N665 N 0.81893 0.54978 0.85097 0.0
H666 H 0.76533 0.60061 0.97546 0.0
H667 H 0.77363 0.5635 0.94664 0.0
H668 H 0.83314 0.53484 0.82129 0.0
H669 H 0.79579 0.54161 0.85182 0.0
H670 H 0.87712 0.68255 0.88488 0.0
H671 H 0.84141 0.68861 0.92844 0.0
H672 H 0.91069 0.65096 0.89771 0.0
H673 H 0.918 0.61528 0.85575 0.0
C674 C 0.2027 0.12207 0.68949 0.0
C675 C 0.19729 0.1264 0.60356 0.0
C676 C 0.15459 0.0862 0.60877 0.0
C677 C 0.15551 0.0877 0.69656 0.0
N678 N 0.18103 0.10528 0.82205 0.0
N679 N 0.17095 0.10997 0.47818 0.0
C680 C 0.18004 0.10479 0.73738 0.0
C681 C 0.17432 0.10726 0.56205 0.0
N682 N 0.22943 0.13413 0.72514 0.0
N683 N 0.13474 0.06487 0.57049 0.0
H684 H 0.18664 0.12337 0.44183 0.0
H685 H 0.15236 0.09979 0.44493 0.0
H686 H 0.12003 0.04923 0.60324 0.0
H687 H 0.13451 0.06086 0.5069 0.0
H688 H 0.23565 0.12973 0.7861 0.0
H689 H 0.24713 0.14565 0.6915 0.0
H690 H 0.19586 0.12039 0.85601 0.0
H691 H 0.16584 0.09136 0.85855 0.0
C692 C 0.69454 0.44665 0.4274 0.0
C693 C 0.68453 0.41517 0.43991 0.0
C694 C 0.63301 0.42502 0.3873 0.0
C695 C 0.64375 0.4559 0.36867 0.0
N696 N 0.68586 0.495 0.35865 0.0
N697 N 0.64608 0.37296 0.41897 0.0
C698 C 0.67486 0.46642 0.3854 0.0
C699 C 0.65424 0.40395 0.41647 0.0
N700 N 0.72248 0.45786 0.45815 0.0
N701 N 0.60225 0.41611 0.3806 0.0
H702 H 0.66076 0.35678 0.44067 0.0
H703 H 0.6257 0.363 0.39343 0.0
H704 H 0.58594 0.4307 0.35909 0.0
H705 H 0.59247 0.39509 0.40261 0.0
H706 H 0.72987 0.4812 0.45876 0.0
H707 H 0.73727 0.44408 0.48994 0.0
H708 H 0.70906 0.50288 0.36115 0.0
H709 H 0.67221 0.50993 0.32694 0.0
C710 C 0.33437 0.94698 0.23284 0.0
C711 C 0.3594 0.96234 0.18978 0.0
C712 C 0.3387 0.94142 0.05837 0.0
C713 C 0.31737 0.9216 0.10304 0.0
N714 N 0.2948 0.9046 0.23342 0.0
N715 N 0.38666 0.97349 0.06187 0.0
C716 C 0.31466 0.92455 0.19042 0.0
C717 C 0.36161 0.95986 0.1023 0.0
N718 N 0.32972 0.95379 0.31436 0.0
N719 N 0.33701 0.9424 0.97383 0.0
H720 H 0.4039 0.98708 0.09222 0.0
H721 H 0.39149 0.96963 0.99967 0.0
H722 H 0.32022 0.92918 0.94046 0.0
H723 H 0.3501 0.95832 0.93772 0.0
H724 H 0.31036 0.94548 0.34776 0.0
H725 H 0.34396 0.97015 0.34636 0.0
H726 H 0.29449 0.90308 0.29782 0.0
H727 H 0.27973 0.88814 0.20465 0.0
C728 C 0.81881 0.4133 0.70636 0.0
C729 C 0.8119 0.41799 0.62155 0.0
C730 C 0.84448 0.46647 0.62144 0.0
C731 C 0.85278 0.46071 0.70513 0.0
N732 N 0.83963 0.43553 0.83429 0.0
N733 N 0.81097 0.45208 0.5045 0.0
C734 C 0.83705 0.43637 0.74991 0.0
C735 C 0.82223 0.44578 0.58129 0.0
N736 N 0.80937 0.38605 0.74402 0.0
N737 N 0.85907 0.49046 0.57881 0.0
H738 H 0.79512 0.43692 0.47363 0.0
H739 H 0.81521 0.47317 0.47449 0.0
H740 H 0.874 0.50717 0.60668 0.0
H741 H 0.85725 0.49332 0.51499 0.0
H742 H 0.81668 0.37979 0.80273 0.0
H743 H 0.79575 0.36868 0.71417 0.0
H744 H 0.82667 0.4199 0.87157 0.0
H745 H 0.85244 0.45268 0.86747 0.0
C746 C 0.35621 0.14211 0.42215 0.0
C747 C 0.32516 0.13231 0.44158 0.0
C748 C 0.33319 0.0805 0.38782 0.0
C749 C 0.36479 0.08969 0.37368 0.0
N750 N 0.40786 0.12743 0.39191 0.0
N751 N 0.28535 0.09112 0.45657 0.0
C752 C 0.37673 0.12002 0.39474 0.0
C753 C 0.31402 0.10116 0.42827 0.0
N754 N 0.36583 0.17274 0.42654 0.0
N755 N 0.32123 0.05242 0.35975 0.0
H756 H 0.27086 0.10553 0.48723 0.0
H757 H 0.27701 0.06804 0.4566 0.0
H758 H 0.33448 0.03684 0.32915 0.0
H759 H 0.29775 0.04561 0.36015 0.0
H760 H 0.38698 0.18182 0.40359 0.0
H761 H 0.35172 0.18957 0.44742 0.0
H762 H 0.41827 0.14792 0.4156 0.0
H763 H 0.42371 0.11204 0.3723 0.0
C764 C 0.66887 0.60617 0.24193 0.0
C765 C 0.65023 0.58391 0.19705 0.0
C766 C 0.67756 0.59969 0.06906 0.0
C767 C 0.69138 0.6257 0.11131 0.0
N768 N 0.69939 0.65498 0.23747 0.0
N769 N 0.63624 0.55902 0.06712 0.0
C770 C 0.68732 0.62901 0.19804 0.0
C771 C 0.65487 0.57999 0.11055 0.0
N772 N 0.66868 0.60545 0.32661 0.0
N773 N 0.68595 0.59416 0.98913 0.0
H774 H 0.61971 0.54388 0.09521 0.0
H775 H 0.63592 0.55777 1.00268 0.0
H776 H 0.70243 0.60847 0.95778 0.0
H777 H 0.67883 0.57414 0.95683 0.0
H778 H 0.68375 0.61938 0.36318 0.0
H779 H 0.65549 0.58864 0.35993 0.0
H780 H 0.69431 0.66042 0.29859 0.0
H781 H 0.71278 0.67231 0.20697 0.0
C782 C 0.17956 0.92003 0.8464 0.0
C783 C 0.18682 0.91752 0.9322 0.0
C784 C 0.14704 0.95322 0.96218 0.0
C785 C 0.14449 0.96038 0.87638 0.0
N786 N 0.16558 0.95487 0.73852 0.0
N787 N 0.18182 0.93892 0.06989 0.0
C788 C 0.1628 0.94503 0.81873 0.0
C789 C 0.17182 0.93615 0.9898 0.0
N790 N 0.18717 0.89792 0.79133 0.0
N791 N 0.12515 0.9613 0.01733 0.0
H792 H 0.2014 0.92901 0.09173 0.0
H793 H 0.17286 0.95432 0.11157 0.0
H794 H 0.10492 0.97099 0.99924 0.0
H795 H 0.12513 0.95445 0.07928 0.0
H796 H 0.18017 0.89793 0.72948 0.0
H797 H 0.19657 0.87754 0.80929 0.0
H798 H 0.18081 0.94566 0.69684 0.0
H799 H 0.15587 0.97452 0.71648 0.0
loop_
_geom_bond_atom_site_label_1
_geom_bond_atom_site_label_2
_geom_bond_distance
_geom_bond_site_symmetry_2
_ccdc_geom_bond_type
Co0 O1 2.216 . S
Co0 O2 2.091 . S
Co0 O4 2.004 1_554 S
Co0 O10 2.021 1_554 S
Co0 O12 2.137 . S
Co0 O13 2.244 . S
O1 Co0 2.216 . S
O1 C8 1.247 . S
O2 Co0 2.091 . S
O2 C8 1.261 . S
C3 O12 1.247 . S
C3 O13 1.272 . S
O4 Co0 2.004 1_556 S
O4 C9 1.259 . S
Co5 O6 2.061 1_554 S
Co5 O11 2.053 . S
Co5 O13 2.135 . S
O6 Co5 2.061 1_556 S
O6 C9 1.235 . S
C7 O10 1.238 . S
C7 O11 1.240 1_556 S
C8 O1 1.247 . S
C8 O2 1.261 . S
C9 O4 1.259 . S
C9 O6 1.235 . S
O10 Co0 2.021 1_556 S
O10 C7 1.238 . S
O11 Co5 2.053 . S
O11 C7 1.240 1_554 S
O12 Co0 2.137 . S
O12 C3 1.247 . S
O13 Co0 2.244 . S
O13 C3 1.272 . S
O13 Co5 2.135 . S
Co14 O15 2.216 . S
Co14 O16 2.091 . S
Co14 O18 2.004 . S
Co14 O24 2.021 . S
Co14 O26 2.137 . S
Co14 O27 2.244 1_545 S
O15 Co14 2.216 . S
O15 C22 1.247 . S
O16 Co14 2.091 . S
O16 C22 1.261 . S
C17 O26 1.247 . S
C17 O27 1.272 1_545 S
O18 Co14 2.004 . S
O18 C23 1.259 . S
Co19 O20 2.061 . S
Co19 O25 2.052 . S
Co19 O27 2.135 . S
O20 Co19 2.061 . S
O20 C23 1.235 1_565 S
C21 O24 1.238 1_565 S
C21 O25 1.241 . S
C22 O15 1.247 . S
C22 O16 1.261 . S
C23 O18 1.259 . S
C23 O20 1.235 1_545 S
O24 Co14 2.021 . S
O24 C21 1.238 1_545 S
O25 Co19 2.052 . S
O25 C21 1.241 . S
O26 Co14 2.137 . S
O26 C17 1.247 . S
O27 Co14 2.244 1_565 S
O27 C17 1.272 1_565 S
O27 Co19 2.135 . S
Co28 O29 2.216 . S
Co28 O30 2.091 . S
Co28 O32 2.004 . S
Co28 O38 2.021 . S
Co28 O40 2.137 . S
Co28 O41 2.244 . S
O29 Co28 2.216 . S
O29 C36 1.247 . S
O30 Co28 2.091 . S
O30 C36 1.261 . S
C31 O40 1.247 . S
C31 O41 1.272 . S
O32 Co28 2.004 . S
O32 C37 1.259 . S
Co33 O34 2.061 . S
Co33 O39 2.052 . S
Co33 O41 2.135 . S
O34 Co33 2.061 . S
O34 C37 1.235 . S
C35 O38 1.238 . S
C35 O39 1.241 . S
C36 O29 1.247 . S
C36 O30 1.261 . S
C37 O32 1.259 . S
C37 O34 1.235 . S
O38 Co28 2.021 . S
O38 C35 1.238 . S
O39 Co33 2.052 . S
O39 C35 1.241 . S
O40 Co28 2.137 . S
O40 C31 1.247 . S
O41 Co28 2.244 . S
O41 C31 1.272 . S
O41 Co33 2.135 . S
Co42 O43 2.216 . S
Co42 O44 2.091 1_545 S
Co42 O46 2.004 . S
Co42 O52 2.021 . S
Co42 O54 2.137 1_545 S
Co42 O55 2.244 . S
O43 Co42 2.216 . S
O43 C50 1.247 1_545 S
O44 Co42 2.091 1_565 S
O44 C50 1.261 . S
C45 O54 1.247 1_545 S
C45 O55 1.272 . S
O46 Co42 2.004 . S
O46 C51 1.259 . S
Co47 O48 2.061 . S
Co47 O53 2.052 . S
Co47 O55 2.135 . S
O48 Co47 2.061 . S
O48 C51 1.235 . S
C49 O52 1.238 . S
C49 O53 1.241 . S
C50 O43 1.247 1_565 S
C50 O44 1.261 . S
C51 O46 1.259 . S
C51 O48 1.235 . S
O52 Co42 2.021 . S
O52 C49 1.238 . S
O53 Co47 2.052 . S
O53 C49 1.241 . S
O54 Co42 2.137 1_565 S
O54 C45 1.247 1_565 S
O55 Co42 2.244 . S
O55 C45 1.272 . S
O55 Co47 2.135 . S
Co56 O57 2.216 1_554 S
Co56 O58 2.091 . S
Co56 O60 2.004 . S
Co56 O66 2.021 . S
Co56 O68 2.137 1_554 S
Co56 O69 2.244 1_554 S
O57 Co56 2.216 1_556 S
O57 C64 1.247 . S
O58 Co56 2.091 . S
O58 C64 1.261 1_554 S
C59 O68 1.247 . S
C59 O69 1.272 . S
O60 Co56 2.004 . S
O60 C65 1.259 . S
Co61 O62 2.061 . S
Co61 O67 2.052 . S
Co61 O69 2.135 1_554 S
O62 Co61 2.061 . S
O62 C65 1.235 . S
C63 O66 1.238 . S
C63 O67 1.241 . S
C64 O57 1.247 . S
C64 O58 1.261 1_556 S
C65 O60 1.259 . S
C65 O62 1.235 . S
O66 Co56 2.021 . S
O66 C63 1.238 . S
O67 Co61 2.052 . S
O67 C63 1.241 . S
O68 Co56 2.137 1_556 S
O68 C59 1.247 . S
O69 Co56 2.244 1_556 S
O69 C59 1.272 . S
O69 Co61 2.135 1_556 S
Co70 O71 2.216 . S
Co70 O72 2.091 1_545 S
Co70 O74 2.004 . S
Co70 O80 2.021 . S
Co70 O82 2.137 1_545 S
Co70 O83 2.244 . S
O71 Co70 2.216 . S
O71 C78 1.247 1_545 S
O72 Co70 2.091 1_565 S
O72 C78 1.261 . S
C73 O82 1.247 1_545 S
C73 O83 1.272 . S
O74 Co70 2.004 . S
O74 C79 1.259 . S
Co75 O76 2.061 . S
Co75 O81 2.052 . S
Co75 O83 2.135 . S
O76 Co75 2.061 . S
O76 C79 1.235 . S
C77 O80 1.238 . S
C77 O81 1.241 . S
C78 O71 1.247 1_565 S
C78 O72 1.261 . S
C79 O74 1.259 . S
C79 O76 1.235 . S
O80 Co70 2.021 . S
O80 C77 1.238 . S
O81 Co75 2.052 . S
O81 C77 1.241 . S
O82 Co70 2.137 1_565 S
O82 C73 1.247 1_565 S
O83 Co70 2.244 . S
O83 C73 1.272 . S
O83 Co75 2.135 . S
Co84 O85 2.216 . S
Co84 O86 2.091 . S
Co84 O88 2.004 . S
Co84 O94 2.021 . S
Co84 O96 2.137 . S
Co84 O97 2.244 . S
O85 Co84 2.216 . S
O85 C92 1.247 . S
O86 Co84 2.091 . S
O86 C92 1.261 . S
C87 O96 1.247 . S
C87 O97 1.272 . S
O88 Co84 2.004 . S
O88 C93 1.259 . S
Co89 O90 2.061 . S
Co89 O95 2.052 . S
Co89 O97 2.135 . S
O90 Co89 2.061 . S
O90 C93 1.235 . S
C91 O94 1.238 . S
C91 O95 1.241 . S
C92 O85 1.247 . S
C92 O86 1.261 . S
C93 O88 1.259 . S
C93 O90 1.235 . S
O94 Co84 2.021 . S
O94 C91 1.238 . S
O95 Co89 2.052 . S
O95 C91 1.241 . S
O96 Co84 2.137 . S
O96 C87 1.247 . S
O97 Co84 2.244 . S
O97 C87 1.272 . S
O97 Co89 2.135 . S
Co98 O99 2.216 . S
Co98 O100 2.091 . S
Co98 O102 2.004 . S
Co98 O108 2.021 . S
Co98 O110 2.137 . S
Co98 O111 2.244 1_545 S
O99 Co98 2.216 . S
O99 C106 1.247 . S
O100 Co98 2.091 . S
O100 C106 1.261 . S
C101 O110 1.247 . S
C101 O111 1.272 1_545 S
O102 Co98 2.004 . S
O102 C107 1.259 . S
Co103 O104 2.061 . S
Co103 O109 2.052 . S
Co103 O111 2.135 . S
O104 Co103 2.061 . S
O104 C107 1.235 1_565 S
C105 O108 1.238 1_565 S
C105 O109 1.241 . S
C106 O99 1.247 . S
C106 O100 1.261 . S
C107 O102 1.259 . S
C107 O104 1.235 1_545 S
O108 Co98 2.021 . S
O108 C105 1.238 1_545 S
O109 Co103 2.052 . S
O109 C105 1.241 . S
O110 Co98 2.137 . S
O110 C101 1.247 . S
O111 Co98 2.244 1_565 S
O111 C101 1.272 1_565 S
O111 Co103 2.135 . S
Co112 O113 2.216 . S
Co112 O114 2.091 . S
Co112 O116 2.004 . S
Co112 O122 2.021 . S
Co112 O124 2.137 . S
Co112 O125 2.244 . S
O113 Co112 2.216 . S
O113 C120 1.247 . S
O114 Co112 2.091 . S
O114 C120 1.261 . S
C115 O124 1.247 . S
C115 O125 1.272 . S
O116 Co112 2.004 . S
O116 C121 1.259 . S
Co117 O118 2.061 . S
Co117 O123 2.052 . S
Co117 O125 2.135 . S
O118 Co117 2.061 . S
O118 C121 1.235 . S
C119 O122 1.238 . S
C119 O123 1.241 . S
C120 O113 1.247 . S
C120 O114 1.261 . S
C121 O116 1.259 . S
C121 O118 1.235 . S
O122 Co112 2.021 . S
O122 C119 1.238 . S
O123 Co117 2.052 . S
O123 C119 1.241 . S
O124 Co112 2.137 . S
O124 C115 1.247 . S
O125 Co112 2.244 . S
O125 C115 1.272 . S
O125 Co117 2.135 . S
Co126 O127 2.216 . S
Co126 O128 2.091 . S
Co126 O130 2.004 . S
Co126 O136 2.021 . S
Co126 O138 2.137 . S
Co126 O139 2.244 . S
O127 Co126 2.216 . S
O127 C134 1.247 . S
O128 Co126 2.091 . S
O128 C134 1.261 . S
C129 O138 1.247 . S
C129 O139 1.272 . S
O130 Co126 2.004 . S
O130 C135 1.259 . S
Co131 O132 2.061 . S
Co131 O137 2.052 . S
Co131 O139 2.135 . S
O132 Co131 2.061 . S
O132 C135 1.235 . S
C133 O136 1.238 . S
C133 O137 1.241 . S
C134 O127 1.247 . S
C134 O128 1.261 . S
C135 O130 1.259 . S
C135 O132 1.235 . S
O136 Co126 2.021 . S
O136 C133 1.238 . S
O137 Co131 2.052 . S
O137 C133 1.241 . S
O138 Co126 2.137 . S
O138 C129 1.247 . S
O139 Co126 2.244 . S
O139 C129 1.272 . S
O139 Co131 2.135 . S
Co140 O141 2.216 . S
Co140 O142 2.091 . S
Co140 O144 2.004 1_554 S
Co140 O150 2.021 1_554 S
Co140 O152 2.137 . S
Co140 O153 2.244 . S
O141 Co140 2.216 . S
O141 C148 1.247 . S
O142 Co140 2.091 . S
O142 C148 1.261 . S
C143 O152 1.247 . S
C143 O153 1.272 . S
O144 Co140 2.004 1_556 S
O144 C149 1.259 . S
Co145 O146 2.061 1_554 S
Co145 O151 2.053 . S
Co145 O153 2.135 . S
O146 Co145 2.061 1_556 S
O146 C149 1.235 . S
C147 O150 1.238 . S
C147 O151 1.240 1_556 S
C148 O141 1.247 . S
C148 O142 1.261 . S
C149 O144 1.259 . S
C149 O146 1.235 . S
O150 Co140 2.021 1_556 S
O150 C147 1.238 . S
O151 Co145 2.053 . S
O151 C147 1.240 1_554 S
O152 Co140 2.137 . S
O152 C143 1.247 . S
O153 Co140 2.244 . S
O153 C143 1.272 . S
O153 Co145 2.135 . S
Co154 O155 2.216 . S
Co154 O156 2.091 . S
Co154 O158 2.004 . S
Co154 O164 2.021 . S
Co154 O166 2.137 . S
Co154 O167 2.244 . S
O155 Co154 2.216 . S
O155 C162 1.247 . S
O156 Co154 2.091 . S
O156 C162 1.261 . S
C157 O166 1.247 . S
C157 O167 1.272 . S
O158 Co154 2.004 . S
O158 C163 1.259 . S
Co159 O160 2.061 . S
Co159 O165 2.052 . S
Co159 O167 2.135 . S
O160 Co159 2.061 . S
O160 C163 1.235 . S
C161 O164 1.238 . S
C161 O165 1.241 . S
C162 O155 1.247 . S
C162 O156 1.261 . S
C163 O158 1.259 . S
C163 O160 1.235 . S
O164 Co154 2.021 . S
O164 C161 1.238 . S
O165 Co159 2.052 . S
O165 C161 1.241 . S
O166 Co154 2.137 . S
O166 C157 1.247 . S
O167 Co154 2.244 . S
O167 C157 1.272 . S
O167 Co159 2.135 . S
Co168 O169 2.216 . S
Co168 O170 2.091 . S
Co168 O172 2.004 . S
Co168 O178 2.021 . S
Co168 O180 2.137 . S
Co168 O181 2.244 . S
O169 Co168 2.216 . S
O169 C176 1.247 . S
O170 Co168 2.091 . S
O170 C176 1.261 . S
C171 O180 1.247 . S
C171 O181 1.272 . S
O172 Co168 2.004 . S
O172 C177 1.259 . S
Co173 O174 2.061 . S
Co173 O179 2.052 . S
Co173 O181 2.135 . S
O174 Co173 2.061 . S
O174 C177 1.235 . S
C175 O178 1.238 . S
C175 O179 1.241 . S
C176 O169 1.247 . S
C176 O170 1.261 . S
C177 O172 1.259 . S
C177 O174 1.235 . S
O178 Co168 2.021 . S
O178 C175 1.238 . S
O179 Co173 2.052 . S
O179 C175 1.241 . S
O180 Co168 2.137 . S
O180 C171 1.247 . S
O181 Co168 2.244 . S
O181 C171 1.272 . S
O181 Co173 2.135 . S
Co182 O183 2.216 . S
Co182 O184 2.091 . S
Co182 O186 2.004 . S
Co182 O192 2.021 . S
Co182 O194 2.137 . S
Co182 O195 2.244 . S
O183 Co182 2.216 . S
O183 C190 1.247 . S
O184 Co182 2.091 . S
O184 C190 1.261 . S
C185 O194 1.247 . S
C185 O195 1.272 . S
O186 Co182 2.004 . S
O186 C191 1.259 . S
Co187 O188 2.061 . S
Co187 O193 2.052 . S
Co187 O195 2.135 . S
O188 Co187 2.061 . S
O188 C191 1.235 . S
C189 O192 1.238 . S
C189 O193 1.241 . S
C190 O183 1.247 . S
C190 O184 1.261 . S
C191 O186 1.259 . S
C191 O188 1.235 . S
O192 Co182 2.021 . S
O192 C189 1.238 . S
O193 Co187 2.052 . S
O193 C189 1.241 . S
O194 Co182 2.137 . S
O194 C185 1.247 . S
O195 Co182 2.244 . S
O195 C185 1.272 . S
O195 Co187 2.135 . S
Co196 O197 2.216 1_554 S
Co196 O198 2.091 . S
Co196 O200 2.004 . S
Co196 O206 2.021 . S
Co196 O208 2.137 1_554 S
Co196 O209 2.244 1_554 S
O197 Co196 2.216 1_556 S
O197 C204 1.247 . S
O198 Co196 2.091 . S
O198 C204 1.261 1_554 S
C199 O208 1.247 . S
C199 O209 1.272 . S
O200 Co196 2.004 . S
O200 C205 1.259 . S
Co201 O202 2.061 . S
Co201 O207 2.052 . S
Co201 O209 2.135 1_554 S
O202 Co201 2.061 . S
O202 C205 1.235 . S
C203 O206 1.238 . S
C203 O207 1.241 . S
C204 O197 1.247 . S
C204 O198 1.261 1_556 S
C205 O200 1.259 . S
C205 O202 1.235 . S
O206 Co196 2.021 . S
O206 C203 1.238 . S
O207 Co201 2.052 . S
O207 C203 1.241 . S
O208 Co196 2.137 1_556 S
O208 C199 1.247 . S
O209 Co196 2.244 1_556 S
O209 C199 1.272 . S
O209 Co201 2.135 1_556 S
Co210 O211 2.216 . S
Co210 O212 2.091 . S
Co210 O214 2.004 . S
Co210 O220 2.021 . S
Co210 O222 2.137 . S
Co210 O223 2.244 . S
O211 Co210 2.216 . S
O211 C218 1.247 . S
O212 Co210 2.091 . S
O212 C218 1.261 . S
C213 O222 1.247 . S
C213 O223 1.272 . S
O214 Co210 2.004 . S
O214 C219 1.259 . S
Co215 O216 2.061 . S
Co215 O221 2.052 . S
Co215 O223 2.135 . S
O216 Co215 2.061 . S
O216 C219 1.235 . S
C217 O220 1.238 . S
C217 O221 1.241 . S
C218 O211 1.247 . S
C218 O212 1.261 . S
C219 O214 1.259 . S
C219 O216 1.235 . S
O220 Co210 2.021 . S
O220 C217 1.238 . S
O221 Co215 2.052 . S
O221 C217 1.241 . S
O222 Co210 2.137 . S
O222 C213 1.247 . S
O223 Co210 2.244 . S
O223 C213 1.272 . S
O223 Co215 2.135 . S
C224 C225 1.363 . S
C224 C230 1.379 . S
C224 N232 1.356 . S
C225 C224 1.363 . S
C225 C231 1.363 . S
C226 C227 1.363 . S
C226 C231 1.379 . S
C226 N233 1.356 . S
C227 C226 1.363 . S
C227 C230 1.363 . S
N228 C230 1.356 . S
N228 H240 0.984 . S
N228 H241 0.985 . S
N229 C231 1.356 . S
N229 H234 0.984 . S
N229 H235 0.985 . S
C230 C224 1.379 . S
C230 C227 1.363 . S
C230 N228 1.356 . S
C231 C225 1.363 . S
C231 C226 1.379 . S
C231 N229 1.356 . S
N232 C224 1.356 . S
N232 H238 0.984 . S
N232 H239 0.984 . S
N233 C226 1.356 . S
N233 H236 0.984 . S
N233 H237 0.985 . S
H234 N229 0.984 . S
H235 N229 0.985 . S
H236 N233 0.984 . S
H237 N233 0.985 . S
H238 N232 0.984 . S
H239 N232 0.984 . S
H240 N228 0.984 . S
H241 N228 0.985 . S
C242 C243 1.363 1_565 S
C242 C248 1.361 1_655 S
C242 N250 1.356 . S
C243 C242 1.363 1_545 S
C243 C249 1.379 . S
C244 C245 1.363 . S
C244 C249 1.361 1_455 S
C244 N251 1.356 . S
C245 C244 1.363 . S
C245 C248 1.379 1_545 S
N246 C248 1.364 . S
N246 H258 0.984 1_455 S
N246 H259 0.985 . S
N247 C249 1.364 . S
N247 H252 0.984 . S
N247 H253 0.985 1_655 S
C248 C242 1.361 1_455 S
C248 C245 1.379 1_565 S
C248 N246 1.364 . S
C249 C243 1.379 . S
C249 C244 1.361 1_655 S
C249 N247 1.364 . S
N250 C242 1.356 . S
N250 H256 0.984 . S
N250 H257 0.984 . S
N251 C244 1.356 . S
N251 H254 0.984 . S
N251 H255 0.985 . S
H252 N247 0.984 . S
H253 N247 0.985 1_455 S
H254 N251 0.984 . S
H255 N251 0.985 . S
H256 N250 0.984 . S
H257 N250 0.984 . S
H258 N246 0.984 1_655 S
H259 N246 0.985 . S
C260 C261 1.363 . S
C260 C266 1.379 . S
C260 N268 1.356 . S
C261 C260 1.363 . S
C261 C267 1.363 . S
C262 C263 1.363 . S
C262 C267 1.379 . S
C262 N269 1.356 . S
C263 C262 1.363 . S
C263 C266 1.363 . S
N264 C266 1.356 . S
N264 H276 0.984 . S
N264 H277 0.985 . S
N265 C267 1.356 . S
N265 H270 0.984 . S
N265 H271 0.985 . S
C266 C260 1.379 . S
C266 C263 1.363 . S
C266 N264 1.356 . S
C267 C261 1.363 . S
C267 C262 1.379 . S
C267 N265 1.356 . S
N268 C260 1.356 . S
N268 H274 0.984 . S
N268 H275 0.984 . S
N269 C262 1.356 . S
N269 H272 0.984 . S
N269 H273 0.985 . S
H270 N265 0.984 . S
H271 N265 0.985 . S
H272 N269 0.984 . S
H273 N269 0.985 . S
H274 N268 0.984 . S
H275 N268 0.984 . S
H276 N264 0.984 . S
H277 N264 0.985 . S
C278 C279 1.363 . S
C278 C284 1.379 1_554 S
C278 N286 1.356 . S
C279 C278 1.363 . S
C279 C285 1.363 . S
C280 C281 1.363 1_554 S
C280 C285 1.379 . S
C280 N287 1.356 1_545 S
C281 C280 1.363 1_556 S
C281 C284 1.363 . S
N282 C284 1.356 . S
N282 H294 0.984 . S
N282 H295 0.985 . S
N283 C285 1.356 1_565 S
N283 H288 0.984 . S
N283 H289 0.985 . S
C284 C278 1.379 1_556 S
C284 C281 1.363 . S
C284 N282 1.356 . S
C285 C279 1.363 . S
C285 C280 1.379 . S
C285 N283 1.356 1_545 S
N286 C278 1.356 . S
N286 H292 0.984 . S
N286 H293 0.984 . S
N287 C280 1.356 1_565 S
N287 H290 0.984 1_554 S
N287 H291 0.985 . S
H288 N283 0.984 . S
H289 N283 0.985 . S
H290 N287 0.984 1_556 S
H291 N287 0.985 . S
H292 N286 0.984 . S
H293 N286 0.984 . S
H294 N282 0.984 . S
H295 N282 0.985 . S
C296 C297 1.363 . S
C296 C302 1.379 . S
C296 N304 1.356 . S
C297 C296 1.363 . S
C297 C303 1.363 . S
C298 C299 1.363 . S
C298 C303 1.379 . S
C298 N305 1.356 . S
C299 C298 1.363 . S
C299 C302 1.363 . S
N300 C302 1.356 . S
N300 H312 0.984 . S
N300 H313 0.985 . S
N301 C303 1.356 . S
N301 H306 0.984 . S
N301 H307 0.985 . S
C302 C296 1.379 . S
C302 C299 1.363 . S
C302 N300 1.356 . S
C303 C297 1.363 . S
C303 C298 1.379 . S
C303 N301 1.356 . S
N304 C296 1.356 . S
N304 H310 0.984 . S
N304 H311 0.984 . S
N305 C298 1.356 . S
N305 H308 0.984 . S
N305 H309 0.985 . S
H306 N301 0.984 . S
H307 N301 0.985 . S
H308 N305 0.984 . S
H309 N305 0.985 . S
H310 N304 0.984 . S
H311 N304 0.984 . S
H312 N300 0.984 . S
H313 N300 0.985 . S
C314 C315 1.363 . S
C314 C320 1.379 . S
C314 N322 1.356 . S
C315 C314 1.363 . S
C315 C321 1.363 1_545 S
C316 C317 1.343 1_565 S
C316 C321 1.379 . S
C316 N323 1.372 . S
C317 C316 1.343 1_545 S
C317 C320 1.363 . S
N318 C320 1.356 . S
N318 H330 0.984 . S
N318 H331 0.985 . S
N319 C321 1.356 . S
N319 H324 0.984 . S
N319 H325 0.985 . S
C320 C314 1.379 . S
C320 C317 1.363 . S
C320 N318 1.356 . S
C321 C315 1.363 1_565 S
C321 C316 1.379 . S
C321 N319 1.356 . S
N322 C314 1.356 . S
N322 H328 0.984 . S
N322 H329 0.984 . S
N323 C316 1.372 . S
N323 H326 0.984 . S
N323 H327 0.985 . S
H324 N319 0.984 . S
H325 N319 0.985 . S
H326 N323 0.984 . S
H327 N323 0.985 . S
H328 N322 0.984 . S
H329 N322 0.984 . S
H330 N318 0.984 . S
H331 N318 0.985 . S
C332 C333 1.363 . S
C332 C338 1.379 . S
C332 N340 1.356 . S
C333 C332 1.363 . S
C333 C339 1.363 . S
C334 C335 1.363 . S
C334 C339 1.379 . S
C334 N341 1.356 . S
C335 C334 1.363 . S
C335 C338 1.363 . S
N336 C338 1.356 . S
N336 H348 0.984 . S
N336 H349 0.985 . S
N337 C339 1.356 . S
N337 H342 0.984 . S
N337 H343 0.985 . S
C338 C332 1.379 . S
C338 C335 1.363 . S
C338 N336 1.356 . S
C339 C333 1.363 . S
C339 C334 1.379 . S
C339 N337 1.356 . S
N340 C332 1.356 . S
N340 H346 0.984 . S
N340 H347 0.984 . S
N341 C334 1.356 . S
N341 H344 0.984 . S
N341 H345 0.985 . S
H342 N337 0.984 . S
H343 N337 0.985 . S
H344 N341 0.984 . S
H345 N341 0.985 . S
H346 N340 0.984 . S
H347 N340 0.984 . S
H348 N336 0.984 . S
H349 N336 0.985 . S
C350 C351 1.347 1_655 S
C350 C356 1.406 1_546 S
C350 N358 1.339 1_645 S
C351 C350 1.347 1_455 S
C351 C357 1.363 1_556 S
C352 C353 1.336 1_455 S
C352 C357 1.406 . S
C352 N359 1.347 1_455 S
C353 C352 1.336 1_655 S
C353 C356 1.363 1_545 S
N354 C356 1.356 . S
N354 H366 0.984 . S
N354 H367 0.985 . S
N355 C357 1.356 . S
N355 H360 0.984 1_554 S
N355 H361 0.985 . S
C356 C350 1.406 1_564 S
C356 C353 1.363 1_565 S
C356 N354 1.356 . S
C357 C351 1.363 1_554 S
C357 C352 1.406 . S
C357 N355 1.356 . S
N358 C350 1.339 1_465 S
N358 H364 0.984 1_455 S
N358 H365 0.984 . S
N359 C352 1.347 1_655 S
N359 H362 0.984 . S
N359 H363 0.985 1_655 S
H360 N355 0.984 1_556 S
H361 N355 0.985 . S
H362 N359 0.984 . S
H363 N359 0.985 1_455 S
H364 N358 0.984 1_655 S
H365 N358 0.984 . S
H366 N354 0.984 . S
H367 N354 0.985 . S
C368 C369 1.363 . S
C368 C374 1.379 . S
C368 N376 1.356 . S
C369 C368 1.363 . S
C369 C375 1.363 . S
C370 C371 1.363 . S
C370 C375 1.379 . S
C370 N377 1.356 . S
C371 C370 1.363 . S
C371 C374 1.363 . S
N372 C374 1.356 . S
N372 H384 0.984 . S
N372 H385 0.985 . S
N373 C375 1.356 . S
N373 H378 0.984 . S
N373 H379 0.985 . S
C374 C368 1.379 . S
C374 C371 1.363 . S
C374 N372 1.356 . S
C375 C369 1.363 . S
C375 C370 1.379 . S
C375 N373 1.356 . S
N376 C368 1.356 . S
N376 H382 0.984 . S
N376 H383 0.984 . S
N377 C370 1.356 . S
N377 H380 0.984 . S
N377 H381 0.985 . S
H378 N373 0.984 . S
H379 N373 0.985 . S
H380 N377 0.984 . S
H381 N377 0.985 . S
H382 N376 0.984 . S
H383 N376 0.984 . S
H384 N372 0.984 . S
H385 N372 0.985 . S
C386 C387 1.363 . S
C386 C392 1.379 . S
C386 N394 1.356 . S
C387 C386 1.363 . S
C387 C393 1.363 . S
C388 C389 1.363 . S
C388 C393 1.379 . S
C388 N395 1.356 . S
C389 C388 1.363 . S
C389 C392 1.363 . S
N390 C392 1.356 . S
N390 H402 0.984 . S
N390 H403 0.985 . S
N391 C393 1.356 . S
N391 H396 0.984 . S
N391 H397 0.985 . S
C392 C386 1.379 . S
C392 C389 1.363 . S
C392 N390 1.356 . S
C393 C387 1.363 . S
C393 C388 1.379 . S
C393 N391 1.356 . S
N394 C386 1.356 . S
N394 H400 0.984 . S
N394 H401 0.984 . S
N395 C388 1.356 . S
N395 H398 0.984 . S
N395 H399 0.985 . S
H396 N391 0.984 . S
H397 N391 0.985 . S
H398 N395 0.984 . S
H399 N395 0.985 . S
H400 N394 0.984 . S
H401 N394 0.984 . S
H402 N390 0.984 . S
H403 N390 0.985 . S
C404 C405 1.363 . S
C404 C410 1.379 . S
C404 N412 1.356 . S
C405 C404 1.363 . S
C405 C411 1.363 . S
C406 C407 1.363 . S
C406 C411 1.379 . S
C406 N413 1.356 . S
C407 C406 1.363 . S
C407 C410 1.363 . S
N408 C410 1.356 . S
N408 H420 0.984 . S
N408 H421 0.985 . S
N409 C411 1.356 . S
N409 H414 0.984 . S
N409 H415 0.985 . S
C410 C404 1.379 . S
C410 C407 1.363 . S
C410 N408 1.356 . S
C411 C405 1.363 . S
C411 C406 1.379 . S
C411 N409 1.356 . S
N412 C404 1.356 . S
N412 H418 0.984 . S
N412 H419 0.984 . S
N413 C406 1.356 . S
N413 H416 0.984 . S
N413 H417 0.985 . S
H414 N409 0.984 . S
H415 N409 0.985 . S
H416 N413 0.984 . S
H417 N413 0.985 . S
H418 N412 0.984 . S
H419 N412 0.984 . S
H420 N408 0.984 . S
H421 N408 0.985 . S
C422 C423 1.363 . S
C422 C428 1.379 . S
C422 N430 1.356 . S
C423 C422 1.363 . S
C423 C429 1.363 . S
C424 C425 1.363 . S
C424 C429 1.379 . S
C424 N431 1.356 . S
C425 C424 1.363 . S
C425 C428 1.363 . S
N426 C428 1.356 . S
N426 H438 0.984 . S
N426 H439 0.985 . S
N427 C429 1.356 . S
N427 H432 0.984 . S
N427 H433 0.985 . S
C428 C422 1.379 . S
C428 C425 1.363 . S
C428 N426 1.356 . S
C429 C423 1.363 . S
C429 C424 1.379 . S
C429 N427 1.356 . S
N430 C422 1.356 . S
N430 H436 0.984 . S
N430 H437 0.984 . S
N431 C424 1.356 . S
N431 H434 0.984 . S
N431 H435 0.985 . S
H432 N427 0.984 . S
H433 N427 0.985 . S
H434 N431 0.984 . S
H435 N431 0.985 . S
H436 N430 0.984 . S
H437 N430 0.984 . S
H438 N426 0.984 . S
H439 N426 0.985 . S
C440 C441 1.363 . S
C440 C446 1.379 1_554 S
C440 N448 1.356 . S
C441 C440 1.363 . S
C441 C447 1.363 . S
C442 C443 1.363 1_554 S
C442 C447 1.379 . S
C442 N449 1.356 . S
C443 C442 1.363 1_556 S
C443 C446 1.363 . S
N444 C446 1.356 . S
N444 H456 0.984 . S
N444 H457 0.985 . S
N445 C447 1.356 . S
N445 H450 0.984 . S
N445 H451 0.985 . S
C446 C440 1.379 1_556 S
C446 C443 1.363 . S
C446 N444 1.356 . S
C447 C441 1.363 . S
C447 C442 1.379 . S
C447 N445 1.356 . S
N448 C440 1.356 . S
N448 H454 0.984 . S
N448 H455 0.984 . S
N449 C442 1.356 . S
N449 H452 0.984 1_554 S
N449 H453 0.985 . S
H450 N445 0.984 . S
H451 N445 0.985 . S
H452 N449 0.984 1_556 S
H453 N449 0.985 . S
H454 N448 0.984 . S
H455 N448 0.984 . S
H456 N444 0.984 . S
H457 N444 0.985 . S
C458 C459 1.363 1_655 S
C458 C464 1.379 . S
C458 N466 1.356 1_655 S
C459 C458 1.363 1_455 S
C459 C465 1.363 . S
C460 C461 1.363 1_455 S
C460 C465 1.379 . S
C460 N467 1.356 1_455 S
C461 C460 1.363 1_655 S
C461 C464 1.363 . S
N462 C464 1.356 . S
N462 H474 0.984 . S
N462 H475 0.985 . S
N463 C465 1.356 . S
N463 H468 0.984 . S
N463 H469 0.985 . S
C464 C458 1.379 . S
C464 C461 1.363 . S
C464 N462 1.356 . S
C465 C459 1.363 . S
C465 C460 1.379 . S
C465 N463 1.356 . S
N466 C458 1.356 1_455 S
N466 H472 0.984 1_455 S
N466 H473 0.984 . S
N467 C460 1.356 1_655 S
N467 H470 0.984 . S
N467 H471 0.985 1_655 S
H468 N463 0.984 . S
H469 N463 0.985 . S
H470 N467 0.984 . S
H471 N467 0.985 1_455 S
H472 N466 0.984 1_655 S
H473 N466 0.984 . S
H474 N462 0.984 . S
H475 N462 0.985 . S
C476 C477 1.363 . S
C476 C482 1.379 1_455 S
C476 N484 1.356 . S
C477 C476 1.363 . S
C477 C483 1.363 . S
C478 C479 1.363 . S
C478 C483 1.379 1_656 S
C478 N485 1.356 . S
C479 C478 1.363 . S
C479 C482 1.363 1_556 S
N480 C482 1.356 1_556 S
N480 H492 0.984 1_556 S
N480 H493 0.985 . S
N481 C483 1.356 . S
N481 H486 0.984 . S
N481 H487 0.985 . S
C482 C476 1.379 1_655 S
C482 C479 1.363 1_554 S
C482 N480 1.356 1_554 S
C483 C477 1.363 . S
C483 C478 1.379 1_454 S
C483 N481 1.356 . S
N484 C476 1.356 . S
N484 H490 0.984 1_455 S
N484 H491 0.984 . S
N485 C478 1.356 . S
N485 H488 0.984 . S
N485 H489 0.985 1_655 S
H486 N481 0.984 . S
H487 N481 0.985 . S
H488 N485 0.984 . S
H489 N485 0.985 1_455 S
H490 N484 0.984 1_655 S
H491 N484 0.984 . S
H492 N480 0.984 1_554 S
H493 N480 0.985 . S
C494 C495 1.363 . S
C494 C500 1.379 . S
C494 N502 1.356 . S
C495 C494 1.363 . S
C495 C501 1.363 . S
C496 C497 1.363 . S
C496 C501 1.379 . S
C496 N503 1.356 . S
C497 C496 1.363 . S
C497 C500 1.363 . S
N498 C500 1.356 . S
N498 H510 0.984 . S
N498 H511 0.985 . S
N499 C501 1.356 . S
N499 H504 0.984 . S
N499 H505 0.985 . S
C500 C494 1.379 . S
C500 C497 1.363 . S
C500 N498 1.356 . S
C501 C495 1.363 . S
C501 C496 1.379 . S
C501 N499 1.356 . S
N502 C494 1.356 . S
N502 H508 0.984 . S
N502 H509 0.984 . S
N503 C496 1.356 . S
N503 H506 0.984 . S
N503 H507 0.985 . S
H504 N499 0.984 . S
H505 N499 0.985 . S
H506 N503 0.984 . S
H507 N503 0.985 . S
H508 N502 0.984 . S
H509 N502 0.984 . S
H510 N498 0.984 . S
H511 N498 0.985 . S
C512 C513 1.363 . S
C512 C518 1.379 . S
C512 N520 1.356 . S
C513 C512 1.363 . S
C513 C519 1.363 . S
C514 C515 1.363 . S
C514 C519 1.379 . S
C514 N521 1.356 1_554 S
C515 C514 1.363 . S
C515 C518 1.363 . S
N516 C518 1.356 . S
N516 H528 0.984 . S
N516 H529 0.985 . S
N517 C519 1.356 . S
N517 H522 0.984 . S
N517 H523 0.985 . S
C518 C512 1.379 . S
C518 C515 1.363 . S
C518 N516 1.356 . S
C519 C513 1.363 . S
C519 C514 1.379 . S
C519 N517 1.356 . S
N520 C512 1.356 . S
N520 H526 0.984 . S
N520 H527 0.984 . S
N521 C514 1.356 1_556 S
N521 H524 0.984 . S
N521 H525 0.985 . S
H522 N517 0.984 . S
H523 N517 0.985 . S
H524 N521 0.984 . S
H525 N521 0.985 . S
H526 N520 0.984 . S
H527 N520 0.984 . S
H528 N516 0.984 . S
H529 N516 0.985 . S
C530 C531 1.363 . S
C530 C536 1.379 . S
C530 N538 1.356 . S
C531 C530 1.363 . S
C531 C537 1.363 . S
C532 C533 1.363 . S
C532 C537 1.379 . S
C532 N539 1.356 . S
C533 C532 1.363 . S
C533 C536 1.363 . S
N534 C536 1.356 . S
N534 H546 0.984 . S
N534 H547 0.985 . S
N535 C537 1.356 . S
N535 H540 0.984 . S
N535 H541 0.985 . S
C536 C530 1.379 . S
C536 C533 1.363 . S
C536 N534 1.356 . S
C537 C531 1.363 . S
C537 C532 1.379 . S
C537 N535 1.356 . S
N538 C530 1.356 . S
N538 H544 0.984 . S
N538 H545 0.984 . S
N539 C532 1.356 . S
N539 H542 0.984 . S
N539 H543 0.985 . S
H540 N535 0.984 . S
H541 N535 0.985 . S
H542 N539 0.984 . S
H543 N539 0.985 . S
H544 N538 0.984 . S
H545 N538 0.984 . S
H546 N534 0.984 . S
H547 N534 0.985 . S
C548 C549 1.363 . S
C548 C554 1.379 . S
C548 N556 1.356 . S
C549 C548 1.363 . S
C549 C555 1.363 . S
C550 C551 1.363 . S
C550 C555 1.379 . S
C550 N557 1.356 . S
C551 C550 1.363 . S
C551 C554 1.363 . S
N552 C554 1.356 . S
N552 H564 0.984 . S
N552 H565 0.985 . S
N553 C555 1.356 . S
N553 H558 0.984 . S
N553 H559 0.985 . S
C554 C548 1.379 . S
C554 C551 1.363 . S
C554 N552 1.356 . S
C555 C549 1.363 . S
C555 C550 1.379 . S
C555 N553 1.356 . S
N556 C548 1.356 . S
N556 H562 0.984 . S
N556 H563 0.984 . S
N557 C550 1.356 . S
N557 H560 0.984 . S
N557 H561 0.985 . S
H558 N553 0.984 . S
H559 N553 0.985 . S
H560 N557 0.984 . S
H561 N557 0.985 . S
H562 N556 0.984 . S
H563 N556 0.984 . S
H564 N552 0.984 . S
H565 N552 0.985 . S
C566 C567 1.363 . S
C566 C572 1.379 . S
C566 N574 1.356 1_556 S
C567 C566 1.363 . S
C567 C573 1.363 . S
C568 C569 1.363 . S
C568 C573 1.379 . S
C568 N575 1.356 . S
C569 C568 1.363 . S
C569 C572 1.363 . S
N570 C572 1.356 . S
N570 H582 0.984 . S
N570 H583 0.985 . S
N571 C573 1.356 . S
N571 H576 0.984 . S
N571 H577 0.985 . S
C572 C566 1.379 . S
C572 C569 1.363 . S
C572 N570 1.356 . S
C573 C567 1.363 . S
C573 C568 1.379 . S
C573 N571 1.356 . S
N574 C566 1.356 1_554 S
N574 H580 0.984 . S
N574 H581 0.984 . S
N575 C568 1.356 . S
N575 H578 0.984 . S
N575 H579 0.985 . S
H576 N571 0.984 . S
H577 N571 0.985 . S
H578 N575 0.984 . S
H579 N575 0.985 . S
H580 N574 0.984 . S
H581 N574 0.984 . S
H582 N570 0.984 . S
H583 N570 0.985 . S
C584 C585 1.363 . S
C584 C590 1.379 . S
C584 N592 1.356 . S
C585 C584 1.363 . S
C585 C591 1.363 . S
C586 C587 1.363 . S
C586 C591 1.379 . S
C586 N593 1.356 . S
C587 C586 1.363 . S
C587 C590 1.363 . S
N588 C590 1.356 . S
N588 H600 0.984 . S
N588 H601 0.985 . S
N589 C591 1.356 . S
N589 H594 0.984 . S
N589 H595 0.985 . S
C590 C584 1.379 . S
C590 C587 1.363 . S
C590 N588 1.356 . S
C591 C585 1.363 . S
C591 C586 1.379 . S
C591 N589 1.356 . S
N592 C584 1.356 . S
N592 H598 0.984 . S
N592 H599 0.984 . S
N593 C586 1.356 . S
N593 H596 0.984 . S
N593 H597 0.985 . S
H594 N589 0.984 . S
H595 N589 0.985 . S
H596 N593 0.984 . S
H597 N593 0.985 . S
H598 N592 0.984 . S
H599 N592 0.984 . S
H600 N588 0.984 . S
H601 N588 0.985 . S
C602 C603 1.363 . S
C602 C608 1.379 . S
C602 N610 1.356 . S
C603 C602 1.363 . S
C603 C609 1.363 . S
C604 C605 1.363 . S
C604 C609 1.379 . S
C604 N611 1.356 . S
C605 C604 1.363 . S
C605 C608 1.363 . S
N606 C608 1.356 . S
N606 H618 0.984 . S
N606 H619 0.985 . S
N607 C609 1.356 . S
N607 H612 0.984 . S
N607 H613 0.985 . S
C608 C602 1.379 . S
C608 C605 1.363 . S
C608 N606 1.356 . S
C609 C603 1.363 . S
C609 C604 1.379 . S
C609 N607 1.356 . S
N610 C602 1.356 . S
N610 H616 0.996 . S
N610 H617 0.984 . S
N611 C604 1.356 . S
N611 H614 0.984 . S
N611 H615 0.985 . S
H612 N607 0.984 . S
H613 N607 0.985 . S
H614 N611 0.984 . S
H615 N611 0.985 . S
H616 N610 0.996 . S
H617 N610 0.984 . S
H618 N606 0.984 . S
H619 N606 0.985 . S
C620 C621 1.363 . S
C620 C626 1.379 . S
C620 N628 1.356 . S
C621 C620 1.363 . S
C621 C627 1.363 . S
C622 C623 1.363 . S
C622 C627 1.379 . S
C622 N629 1.356 1_556 S
C623 C622 1.363 . S
C623 C626 1.363 . S
N624 C626 1.356 . S
N624 H636 0.984 . S
N624 H637 0.985 . S
N625 C627 1.356 . S
N625 H630 0.984 . S
N625 H631 0.985 1_556 S
C626 C620 1.379 . S
C626 C623 1.363 . S
C626 N624 1.356 . S
C627 C621 1.363 . S
C627 C622 1.379 . S
C627 N625 1.356 . S
N628 C620 1.356 . S
N628 H634 0.984 . S
N628 H635 0.984 . S
N629 C622 1.356 1_554 S
N629 H632 0.984 . S
N629 H633 0.985 . S
H630 N625 0.984 . S
H631 N625 0.985 1_554 S
H632 N629 0.984 . S
H633 N629 0.985 . S
H634 N628 0.984 . S
H635 N628 0.984 . S
H636 N624 0.984 . S
H637 N624 0.985 . S
C638 C639 1.363 . S
C638 C644 1.379 . S
C638 N646 1.356 . S
C639 C638 1.363 . S
C639 C645 1.363 . S
C640 C641 1.363 . S
C640 C645 1.379 . S
C640 N647 1.356 . S
C641 C640 1.363 . S
C641 C644 1.363 . S
N642 C644 1.356 . S
N642 H654 0.984 . S
N642 H655 0.985 . S
N643 C645 1.356 . S
N643 H648 0.984 1_554 S
N643 H649 0.985 1_554 S
C644 C638 1.379 . S
C644 C641 1.363 . S
C644 N642 1.356 . S
C645 C639 1.363 . S
C645 C640 1.379 . S
C645 N643 1.356 . S
N646 C638 1.356 . S
N646 H652 0.984 . S
N646 H653 0.984 . S
N647 C640 1.356 . S
N647 H650 0.984 . S
N647 H651 0.985 . S
H648 N643 0.984 1_556 S
H649 N643 0.985 1_556 S
H650 N647 0.984 . S
H651 N647 0.985 . S
H652 N646 0.984 . S
H653 N646 0.984 . S
H654 N642 0.984 . S
H655 N642 0.985 . S
C656 C657 1.363 . S
C656 C662 1.379 . S
C656 N664 1.356 . S
C657 C656 1.363 . S
C657 C663 1.363 . S
C658 C659 1.363 . S
C658 C663 1.379 . S
C658 N665 1.356 . S
C659 C658 1.363 . S
C659 C662 1.363 . S
N660 C662 1.356 . S
N660 H672 0.984 . S
N660 H673 0.985 . S
N661 C663 1.356 . S
N661 H666 0.984 1_556 S
N661 H667 0.985 1_556 S
C662 C656 1.379 . S
C662 C659 1.363 . S
C662 N660 1.356 . S
C663 C657 1.363 . S
C663 C658 1.379 . S
C663 N661 1.356 . S
N664 C656 1.356 . S
N664 H670 0.984 . S
N664 H671 0.984 . S
N665 C658 1.356 . S
N665 H668 0.984 . S
N665 H669 0.985 . S
H666 N661 0.984 1_554 S
H667 N661 0.985 1_554 S
H668 N665 0.984 . S
H669 N665 0.985 . S
H670 N664 0.984 . S
H671 N664 0.984 . S
H672 N660 0.984 . S
H673 N660 0.985 . S
C674 C675 1.363 . S
C674 C680 1.379 . S
C674 N682 1.356 . S
C675 C674 1.363 . S
C675 C681 1.363 . S
C676 C677 1.363 . S
C676 C681 1.379 . S
C676 N683 1.356 . S
C677 C676 1.363 . S
C677 C680 1.363 . S
N678 C680 1.356 . S
N678 H690 0.984 . S
N678 H691 0.985 . S
N679 C681 1.356 . S
N679 H684 0.984 . S
N679 H685 0.985 . S
C680 C674 1.379 . S
C680 C677 1.363 . S
C680 N678 1.356 . S
C681 C675 1.363 . S
C681 C676 1.379 . S
C681 N679 1.356 . S
N682 C674 1.356 . S
N682 H688 0.984 . S
N682 H689 0.984 . S
N683 C676 1.356 . S
N683 H686 0.984 . S
N683 H687 0.985 . S
H684 N679 0.984 . S
H685 N679 0.985 . S
H686 N683 0.984 . S
H687 N683 0.985 . S
H688 N682 0.984 . S
H689 N682 0.984 . S
H690 N678 0.984 . S
H691 N678 0.985 . S
C692 C693 1.363 . S
C692 C698 1.379 . S
C692 N700 1.356 . S
C693 C692 1.363 . S
C693 C699 1.363 . S
C694 C695 1.363 . S
C694 C699 1.379 . S
C694 N701 1.356 . S
C695 C694 1.363 . S
C695 C698 1.363 . S
N696 C698 1.356 . S
N696 H708 0.984 . S
N696 H709 0.985 . S
N697 C699 1.356 . S
N697 H702 0.984 . S
N697 H703 0.985 . S
C698 C692 1.379 . S
C698 C695 1.363 . S
C698 N696 1.356 . S
C699 C693 1.363 . S
C699 C694 1.379 . S
C699 N697 1.356 . S
N700 C692 1.356 . S
N700 H706 0.984 . S
N700 H707 0.984 . S
N701 C694 1.356 . S
N701 H704 0.984 . S
N701 H705 0.985 . S
H702 N697 0.984 . S
H703 N697 0.985 . S
H704 N701 0.984 . S
H705 N701 0.985 . S
H706 N700 0.984 . S
H707 N700 0.984 . S
H708 N696 0.984 . S
H709 N696 0.985 . S
C710 C711 1.363 . S
C710 C716 1.379 . S
C710 N718 1.356 . S
C711 C710 1.363 . S
C711 C717 1.363 . S
C712 C713 1.363 . S
C712 C717 1.379 . S
C712 N719 1.356 . S
C713 C712 1.363 . S
C713 C716 1.363 . S
N714 C716 1.356 . S
N714 H726 0.984 . S
N714 H727 0.985 . S
N715 C717 1.356 . S
N715 H720 0.984 . S
N715 H721 0.985 . S
C716 C710 1.379 . S
C716 C713 1.363 . S
C716 N714 1.356 . S
C717 C711 1.363 . S
C717 C712 1.379 . S
C717 N715 1.356 . S
N718 C710 1.356 . S
N718 H724 0.984 . S
N718 H725 0.984 . S
N719 C712 1.356 . S
N719 H722 0.984 1_554 S
N719 H723 0.985 1_554 S
H720 N715 0.984 . S
H721 N715 0.985 . S
H722 N719 0.984 1_556 S
H723 N719 0.985 1_556 S
H724 N718 0.984 . S
H725 N718 0.984 . S
H726 N714 0.984 . S
H727 N714 0.985 . S
C728 C729 1.363 . S
C728 C734 1.379 . S
C728 N736 1.356 . S
C729 C728 1.363 . S
C729 C735 1.363 . S
C730 C731 1.363 . S
C730 C735 1.379 . S
C730 N737 1.356 . S
C731 C730 1.363 . S
C731 C734 1.363 . S
N732 C734 1.356 . S
N732 H744 0.984 . S
N732 H745 0.985 . S
N733 C735 1.356 . S
N733 H738 0.984 . S
N733 H739 0.985 . S
C734 C728 1.379 . S
C734 C731 1.363 . S
C734 N732 1.356 . S
C735 C729 1.363 . S
C735 C730 1.379 . S
C735 N733 1.356 . S
N736 C728 1.356 . S
N736 H742 0.984 . S
N736 H743 0.984 . S
N737 C730 1.356 . S
N737 H740 0.984 . S
N737 H741 0.985 . S
H738 N733 0.984 . S
H739 N733 0.985 . S
H740 N737 0.984 . S
H741 N737 0.985 . S
H742 N736 0.984 . S
H743 N736 0.984 . S
H744 N732 0.984 . S
H745 N732 0.985 . S
C746 C747 1.363 . S
C746 C752 1.379 . S
C746 N754 1.356 . S
C747 C746 1.363 . S
C747 C753 1.363 . S
C748 C749 1.363 . S
C748 C753 1.379 . S
C748 N755 1.356 . S
C749 C748 1.363 . S
C749 C752 1.363 . S
N750 C752 1.356 . S
N750 H762 0.984 . S
N750 H763 0.985 . S
N751 C753 1.356 . S
N751 H756 0.984 . S
N751 H757 0.985 . S
C752 C746 1.379 . S
C752 C749 1.363 . S
C752 N750 1.356 . S
C753 C747 1.363 . S
C753 C748 1.379 . S
C753 N751 1.356 . S
N754 C746 1.356 . S
N754 H760 0.984 . S
N754 H761 0.984 . S
N755 C748 1.356 . S
N755 H758 0.984 . S
N755 H759 0.985 . S
H756 N751 0.984 . S
H757 N751 0.985 . S
H758 N755 0.984 . S
H759 N755 0.985 . S
H760 N754 0.984 . S
H761 N754 0.984 . S
H762 N750 0.984 . S
H763 N750 0.985 . S
C764 C765 1.363 . S
C764 C770 1.379 . S
C764 N772 1.356 . S
C765 C764 1.363 . S
C765 C771 1.363 . S
C766 C767 1.363 . S
C766 C771 1.379 . S
C766 N773 1.356 . S
C767 C766 1.363 . S
C767 C770 1.363 . S
N768 C770 1.356 . S
N768 H780 0.984 . S
N768 H781 0.985 . S
N769 C771 1.356 . S
N769 H774 0.984 . S
N769 H775 0.985 . S
C770 C764 1.379 . S
C770 C767 1.363 . S
C770 N768 1.356 . S
C771 C765 1.363 . S
C771 C766 1.379 . S
C771 N769 1.356 . S
N772 C764 1.356 . S
N772 H778 0.984 . S
N772 H779 0.984 . S
N773 C766 1.356 . S
N773 H776 0.984 . S
N773 H777 0.985 1_554 S
H774 N769 0.984 . S
H775 N769 0.985 . S
H776 N773 0.984 . S
H777 N773 0.985 1_556 S
H778 N772 0.984 . S
H779 N772 0.984 . S
H780 N768 0.984 . S
H781 N768 0.985 . S
C782 C783 1.363 . S
C782 C788 1.379 . S
C782 N790 1.356 . S
C783 C782 1.363 . S
C783 C789 1.363 . S
C784 C785 1.363 . S
C784 C789 1.379 . S
C784 N791 1.356 . S
C785 C784 1.363 . S
C785 C788 1.363 . S
N786 C788 1.356 . S
N786 H798 0.984 . S
N786 H799 0.985 . S
N787 C789 1.356 1_554 S
N787 H792 0.984 . S
N787 H793 0.985 . S
C788 C782 1.379 . S
C788 C785 1.363 . S
C788 N786 1.356 . S
C789 C783 1.363 . S
C789 C784 1.379 . S
C789 N787 1.356 1_556 S
N790 C782 1.356 . S
N790 H796 0.984 . S
N790 H797 0.984 . S
N791 C784 1.356 . S
N791 H794 0.984 . S
N791 H795 0.985 1_556 S
H792 N787 0.984 . S
H793 N787 0.985 . S
H794 N791 0.984 . S
H795 N791 0.985 1_554 S
H796 N790 0.984 . S
H797 N790 0.984 . S
H798 N786 0.984 . S
H799 N786 0.985 . S
C225 C3 1.520 . S
C227 C171 1.520 . S
C243 C23 1.349 . S
C245 C79 1.349 . S
C261 C31 1.520 . S
C263 C199 1.520 . S
C279 C107 1.349 . S
C281 C51 1.349 . S
C297 C205 1.349 . S
C299 C37 1.349 . S
C315 C101 1.520 . S
C317 C45 1.520 . S
C333 C177 1.349 . S
C335 C9 1.349 . S
C351 C73 1.520 . S
C353 C17 1.520 . S
C369 C59 1.520 . S
C371 C115 1.520 . S
C387 C87 1.520 . S
C389 C143 1.520 . S
C405 C149 1.349 . S
C407 C93 1.349 . S
C423 C65 1.349 . S
C425 C121 1.349 . S
C441 C191 1.349 . S
C443 C135 1.349 . S
C459 C163 1.349 . S
C461 C219 1.349 . S
C477 C157 1.520 . S
C479 C213 1.520 . S
C495 C129 1.520 . S
C497 C185 1.520 . S
C513 C162 1.491 . S
C515 C8 1.491 . S
C531 C119 1.474 . S
C533 C21 1.474 . S
C549 C36 1.491 . S
C551 C134 1.491 . S
C567 C147 1.474 . S
C569 C49 1.474 . S
C585 C161 1.474 . S
C587 C35 1.474 . S
C603 C50 1.491 . S
C605 C120 1.491 . S
C621 C133 1.474 . S
C623 C7 1.474 . S
C639 C148 1.491 . S
C641 C22 1.491 . S
C657 C64 1.491 . S
C659 C218 1.491 . S
C675 C175 1.474 . S
C677 C77 1.474 . S
C693 C92 1.491 . S
C695 C190 1.491 . S
C711 C105 1.474 . S
C713 C203 1.474 . S
C729 C91 1.474 . S
C731 C217 1.474 . S
C747 C176 1.491 . S
C749 C106 1.491 . S
C765 C189 1.474 . S
C767 C63 1.474 . S
C783 C204 1.491 . S
C785 C78 1.491 . S
