# Generated by pormake.
# Topology vmf, (6)-cn, num edge types: 1
# Building blocks:
#     Node 0, Type 0, BuildingBlock: IZENUY_clean_sbu_0, # of connection points: 6
#     Node 1, Type 0, BuildingBlock: IZENUY_clean_sbu_0, # of connection points: 6
#     Node 2, Type 0, BuildingBlock: IZENUY_clean_sbu_0, # of connection points: 6
#     Node 3, Type 0, BuildingBlock: IZENUY_clean_sbu_0, # of connection points: 6
#     Node 4, Type 0, BuildingBlock: IZENUY_clean_sbu_0, # of connection points: 6
#     Node 5, Type 0, BuildingBlock: IZENUY_clean_sbu_0, # of connection points: 6
#     Node 6, Type 0, BuildingBlock: IZENUY_clean_sbu_0, # of connection points: 6
#     Node 7, Type 0, BuildingBlock: IZENUY_clean_sbu_0, # of connection points: 6
#     Edge 8, Type (0, 0), BuildingBlock: KIFKEQ_clean_linker_1, # of connection points: 2
#     Edge 9, Type (0, 0), BuildingBlock: KIFKEQ_clean_linker_1, # of connection points: 2
#     Edge 10, Type (0, 0), BuildingBlock: KIFKEQ_clean_linker_1, # of connection points: 2
#     Edge 11, Type (0, 0), BuildingBlock: KIFKEQ_clean_linker_1, # of connection points: 2
#     Edge 12, Type (0, 0), BuildingBlock: KIFKEQ_clean_linker_1, # of connection points: 2
#     Edge 13, Type (0, 0), BuildingBlock: KIFKEQ_clean_linker_1, # of connection points: 2
#     Edge 14, Type (0, 0), BuildingBlock: KIFKEQ_clean_linker_1, # of connection points: 2
#     Edge 15, Type (0, 0), BuildingBlock: KIFKEQ_clean_linker_1, # of connection points: 2
#     Edge 16, Type (0, 0), BuildingBlock: KIFKEQ_clean_linker_1, # of connection points: 2
#     Edge 17, Type (0, 0), BuildingBlock: KIFKEQ_clean_linker_1, # of connection points: 2
#     Edge 18, Type (0, 0), BuildingBlock: KIFKEQ_clean_linker_1, # of connection points: 2
#     Edge 19, Type (0, 0), BuildingBlock: KIFKEQ_clean_linker_1, # of connection points: 2
#     Edge 20, Type (0, 0), BuildingBlock: KIFKEQ_clean_linker_1, # of connection points: 2
#     Edge 21, Type (0, 0), BuildingBlock: KIFKEQ_clean_linker_1, # of connection points: 2
#     Edge 22, Type (0, 0), BuildingBlock: KIFKEQ_clean_linker_1, # of connection points: 2
#     Edge 23, Type (0, 0), BuildingBlock: KIFKEQ_clean_linker_1, # of connection points: 2
#     Edge 24, Type (0, 0), BuildingBlock: KIFKEQ_clean_linker_1, # of connection points: 2
#     Edge 25, Type (0, 0), BuildingBlock: KIFKEQ_clean_linker_1, # of connection points: 2
#     Edge 26, Type (0, 0), BuildingBlock: KIFKEQ_clean_linker_1, # of connection points: 2
#     Edge 27, Type (0, 0), BuildingBlock: KIFKEQ_clean_linker_1, # of connection points: 2
#     Edge 28, Type (0, 0), BuildingBlock: KIFKEQ_clean_linker_1, # of connection points: 2
#     Edge 29, Type (0, 0), BuildingBlock: KIFKEQ_clean_linker_1, # of connection points: 2
#     Edge 30, Type (0, 0), BuildingBlock: KIFKEQ_clean_linker_1, # of connection points: 2
#     Edge 31, Type (0, 0), BuildingBlock: KIFKEQ_clean_linker_1, # of connection points: 2
# Relax obj value: 0.282
# Max RMSD: 0.266
# Mean RMSD: 0.266
data_MOF--net-vmf--node1-IZENUY_clean_sbu_0--edge1-KIFKEQ_clean_linker_1
_symmetry_space_group_name_H-M    P1
_symmetry_Int_Tables_number       1
_symmetry_cell_setting            triclinic
loop_
_symmetry_equiv_pos_as_xyz
'x, y, z'
_cell_length_a     29.03987
_cell_length_b     43.51057
_cell_length_c     28.603093
_cell_angle_alpha  90.146873
_cell_angle_beta   106.7035
_cell_angle_gamma 89.94003
loop_
_atom_site_label
_atom_site_type_symbol
_atom_site_fract_x
_atom_site_fract_y
_atom_site_fract_z
_atom_type_partial_charge
Fe0 Fe 0.23777 0.35949 0.2101 0.0
Fe1 Fe 0.22525 0.2993 0.25989 0.0
O2 O 0.20951 0.33849 0.24731 0.0
Fe3 Fe 0.16564 0.35611 0.27092 0.0
O4 O 0.13768 0.37848 0.21413 0.0
O5 O 0.18114 0.36587 0.16514 0.0
O6 O 0.24461 0.32644 0.17369 0.0
C7 C 0.22043 0.30197 0.16411 0.0
C8 C 0.22707 0.40504 0.27767 0.0
O9 O 0.2044 0.28911 0.19569 0.0
C10 C 0.22378 0.3193 0.34991 0.0
O11 O 0.29736 0.35374 0.25255 0.0
O12 O 0.28724 0.30399 0.25762 0.0
O13 O 0.20534 0.38754 0.29928 0.0
O14 O 0.23496 0.39673 0.23841 0.0
C15 C 0.12555 0.29869 0.25233 0.0
O16 O 0.24724 0.30727 0.32384 0.0
O17 O 0.18642 0.33563 0.3309 0.0
C18 C 0.3147 0.32717 0.26355 0.0
O19 O 0.16677 0.28659 0.26594 0.0
O20 O 0.12117 0.32709 0.24476 0.0
C21 C 0.1427 0.376 0.17133 0.0
Fe22 Fe 0.77669 0.36006 0.81526 0.0
Fe23 Fe 0.79191 0.29859 0.77009 0.0
O24 O 0.80706 0.33805 0.78102 0.0
Fe25 Fe 0.85267 0.35477 0.75927 0.0
O26 O 0.87843 0.37821 0.81534 0.0
O27 O 0.83205 0.36732 0.86209 0.0
O28 O 0.76832 0.32792 0.85208 0.0
C29 C 0.79447 0.30455 0.8653 0.0
C30 C 0.79084 0.40404 0.74742 0.0
O31 O 0.81135 0.29024 0.83537 0.0
C32 C 0.79707 0.31664 0.68055 0.0
O33 O 0.71831 0.35345 0.77093 0.0
O34 O 0.72918 0.30354 0.77001 0.0
O35 O 0.81407 0.38601 0.72803 0.0
O36 O 0.78065 0.39653 0.78579 0.0
C37 C 0.89227 0.29753 0.78076 0.0
O38 O 0.77187 0.30506 0.70529 0.0
O39 O 0.83418 0.33296 0.70051 0.0
C40 C 0.70133 0.32661 0.7617 0.0
O41 O 0.85109 0.28546 0.76643 0.0
O42 O 0.89642 0.32595 0.78844 0.0
C43 C 0.87148 0.3767 0.85737 0.0
Fe44 Fe 0.79723 0.73513 0.76927 0.0
Fe45 Fe 0.78467 0.67328 0.81552 0.0
O46 O 0.81397 0.69592 0.78094 0.0
Fe47 Fe 0.86031 0.68016 0.75894 0.0
O48 O 0.90263 0.70938 0.78901 0.0
O49 O 0.85603 0.74908 0.76549 0.0
O50 O 0.81581 0.74428 0.8339 0.0
C51 C 0.79939 0.73039 0.86441 0.0
C52 C 0.80303 0.71703 0.68003 0.0
O53 O 0.77726 0.70514 0.85406 0.0
C54 C 0.79879 0.6306 0.74519 0.0
O55 O 0.735 0.72966 0.76975 0.0
O56 O 0.72537 0.67981 0.77276 0.0
O57 O 0.8413 0.70194 0.70035 0.0
O58 O 0.77721 0.72792 0.7047 0.0
C59 C 0.88013 0.65703 0.85604 0.0
O60 O 0.78784 0.63726 0.78366 0.0
O61 O 0.8231 0.64866 0.72734 0.0
C62 C 0.7078 0.70642 0.76308 0.0
O63 O 0.8406 0.6656 0.86154 0.0
O64 O 0.88703 0.65668 0.81408 0.0
C65 C 0.89759 0.73773 0.78153 0.0
Fe66 Fe 0.23898 0.67502 0.21573 0.0
Fe67 Fe 0.16391 0.68153 0.27301 0.0
O68 O 0.21009 0.69745 0.25109 0.0
Fe69 Fe 0.22713 0.73655 0.26369 0.0
O70 O 0.20857 0.7462 0.19926 0.0
O71 O 0.24664 0.7071 0.17802 0.0
O72 O 0.18286 0.66779 0.16971 0.0
C73 C 0.14358 0.65889 0.17536 0.0
C74 C 0.31627 0.70759 0.26872 0.0
O75 O 0.13701 0.65825 0.21747 0.0
C76 C 0.22117 0.71817 0.3526 0.0
O77 O 0.23556 0.63881 0.24659 0.0
O78 O 0.20132 0.64993 0.3039 0.0
O79 O 0.28931 0.73095 0.26298 0.0
O80 O 0.29837 0.6811 0.2585 0.0
C81 C 0.12676 0.7392 0.25173 0.0
O82 O 0.18296 0.70309 0.332 0.0
O83 O 0.24719 0.72896 0.32815 0.0
C84 C 0.22522 0.63194 0.28524 0.0
O85 O 0.12159 0.71089 0.24364 0.0
O86 O 0.16838 0.75049 0.26781 0.0
C87 C 0.22476 0.73245 0.16835 0.0
Fe88 Fe 0.73903 0.86447 0.21509 0.0
Fe89 Fe 0.72261 0.80018 0.25023 0.0
O90 O 0.70846 0.84008 0.24615 0.0
Fe91 Fe 0.66378 0.85485 0.2715 0.0
O92 O 0.63685 0.88043 0.21879 0.0
O93 O 0.68353 0.87462 0.17039 0.0
O94 O 0.74564 0.83496 0.17251 0.0
C95 C 0.71992 0.81173 0.15631 0.0
C96 C 0.72676 0.90387 0.28984 0.0
O97 O 0.70227 0.79598 0.18405 0.0
C98 C 0.72047 0.81277 0.34343 0.0
O99 O 0.79752 0.85536 0.25744 0.0
O100 O 0.78515 0.80562 0.25029 0.0
O101 O 0.70231 0.885 0.30598 0.0
O102 O 0.73721 0.89881 0.25077 0.0
C103 C 0.62295 0.79855 0.24242 0.0
O104 O 0.74353 0.80245 0.31553 0.0
O105 O 0.68414 0.83051 0.32748 0.0
C106 C 0.81357 0.82819 0.26282 0.0
O107 O 0.66378 0.78607 0.25293 0.0
O108 O 0.6193 0.82722 0.23971 0.0
C109 C 0.64397 0.88233 0.1769 0.0
Fe110 Fe 0.30212 0.80022 0.78268 0.0
Fe111 Fe 0.35892 0.8562 0.76247 0.0
O112 O 0.3159 0.84014 0.78875 0.0
Fe113 Fe 0.28644 0.86339 0.82261 0.0
O114 O 0.2809 0.83277 0.86352 0.0
O115 O 0.32402 0.79461 0.84856 0.0
O116 O 0.36066 0.78692 0.77792 0.0
C117 C 0.40123 0.79971 0.78762 0.0
C118 C 0.21136 0.82773 0.774 0.0
O119 O 0.40457 0.82841 0.79116 0.0
C120 C 0.29602 0.90515 0.74984 0.0
O121 O 0.27969 0.80365 0.71757 0.0
O122 O 0.33752 0.83293 0.70529 0.0
O123 O 0.22733 0.85491 0.78087 0.0
O124 O 0.23995 0.8051 0.78442 0.0
C125 C 0.38127 0.88154 0.85911 0.0
O126 O 0.31878 0.88664 0.73078 0.0
O127 O 0.28753 0.89876 0.78943 0.0
C128 C 0.30162 0.81486 0.68936 0.0
O129 O 0.38693 0.88085 0.81645 0.0
O130 O 0.34267 0.87278 0.86665 0.0
C131 C 0.30747 0.8097 0.87794 0.0
Fe132 Fe 0.29218 0.23477 0.77275 0.0
Fe133 Fe 0.2761 0.17149 0.81162 0.0
O134 O 0.30766 0.19518 0.7808 0.0
Fe135 Fe 0.3551 0.18022 0.75982 0.0
O136 O 0.39728 0.2088 0.79278 0.0
O137 O 0.3515 0.24898 0.77139 0.0
O138 O 0.30997 0.24108 0.8386 0.0
C139 C 0.29228 0.22561 0.86666 0.0
C140 C 0.30005 0.21965 0.68291 0.0
O141 O 0.267 0.20208 0.85124 0.0
C142 C 0.29338 0.13064 0.74065 0.0
O143 O 0.22921 0.22917 0.77082 0.0
O144 O 0.21825 0.17926 0.76694 0.0
O145 O 0.33757 0.20363 0.70271 0.0
O146 O 0.27371 0.23005 0.70751 0.0
C147 C 0.37122 0.15512 0.85531 0.0
O148 O 0.28055 0.13636 0.77832 0.0
O149 O 0.31861 0.14934 0.72512 0.0
C150 C 0.20142 0.20622 0.75968 0.0
O151 O 0.33064 0.16291 0.85904 0.0
O152 O 0.37988 0.15539 0.81407 0.0
C153 C 0.39284 0.23725 0.78634 0.0
Fe154 Fe 0.72481 0.23421 0.25665 0.0
Fe155 Fe 0.7377 0.17285 0.20963 0.0
O156 O 0.70906 0.19489 0.24556 0.0
Fe157 Fe 0.66467 0.17818 0.26926 0.0
O158 O 0.62053 0.20697 0.24145 0.0
O159 O 0.66618 0.24751 0.2616 0.0
O160 O 0.70464 0.24314 0.19202 0.0
C161 C 0.72114 0.22952 0.16131 0.0
C162 C 0.72221 0.21627 0.34714 0.0
O163 O 0.74506 0.20502 0.17208 0.0
C164 C 0.72619 0.12898 0.27893 0.0
O165 O 0.78697 0.229 0.2553 0.0
O166 O 0.79717 0.17909 0.25228 0.0
O167 O 0.68496 0.19977 0.32845 0.0
O168 O 0.74614 0.22747 0.32095 0.0
C169 C 0.64238 0.15661 0.17052 0.0
O170 O 0.7345 0.13627 0.23947 0.0
O171 O 0.70401 0.14708 0.29929 0.0
C172 C 0.81442 0.20578 0.26255 0.0
O173 O 0.68125 0.16598 0.16443 0.0
O174 O 0.63706 0.15488 0.21326 0.0
C175 C 0.62495 0.23546 0.24812 0.0
H176 H 0.61922 0.29634 0.27332 0.0
H177 H 0.53195 0.21587 0.22172 0.0
H178 H 0.54792 0.32354 0.28202 0.0
H179 H 0.46182 0.24284 0.23077 0.0
H180 H 0.3653 0.27943 0.31293 0.0
H181 H 0.4434 0.26109 0.30946 0.0
H182 H 0.45975 0.34174 0.22821 0.0
H183 H 0.38073 0.36033 0.23158 0.0
C184 C 0.5849 0.28459 0.26324 0.0
C185 C 0.58151 0.25376 0.24738 0.0
C186 C 0.5442 0.30018 0.26828 0.0
C187 C 0.49967 0.28506 0.25801 0.0
C188 C 0.49595 0.25484 0.23996 0.0
C189 C 0.53621 0.23944 0.23456 0.0
C190 C 0.38595 0.29367 0.29528 0.0
C191 C 0.36661 0.32112 0.27199 0.0
C192 C 0.43055 0.28307 0.29307 0.0
C193 C 0.45703 0.29965 0.26758 0.0
C194 C 0.43987 0.32847 0.24791 0.0
C195 C 0.39483 0.33916 0.25005 0.0
H196 H 0.63486 0.36163 0.79044 0.0
H197 H 0.65139 0.2769 0.71795 0.0
H198 H 0.55665 0.34364 0.79686 0.0
H199 H 0.57411 0.25913 0.72453 0.0
H200 H 0.39794 0.29721 0.75704 0.0
H201 H 0.46886 0.32358 0.7461 0.0
H202 H 0.55618 0.24466 0.80494 0.0
H203 H 0.48631 0.21851 0.81625 0.0
C204 C 0.62116 0.33968 0.77449 0.0
C205 C 0.64951 0.32051 0.75418 0.0
C206 C 0.57658 0.32933 0.77844 0.0
C207 C 0.56 0.29969 0.76228 0.0
C208 C 0.58654 0.28179 0.73831 0.0
C209 C 0.63065 0.29207 0.73424 0.0
C210 C 0.43247 0.28574 0.7685 0.0
C211 C 0.43624 0.25556 0.78704 0.0
C212 C 0.47297 0.30084 0.7621 0.0
C213 C 0.51772 0.28589 0.7737 0.0
C214 C 0.52188 0.25648 0.79467 0.0
C215 C 0.48179 0.24157 0.80141 0.0
H216 H 0.40791 0.73792 0.76857 0.0
H217 H 0.49325 0.82058 0.80581 0.0
H218 H 0.47807 0.71053 0.75766 0.0
H219 H 0.56243 0.79335 0.79476 0.0
H220 H 0.65569 0.75315 0.71231 0.0
H221 H 0.57887 0.77227 0.71842 0.0
H222 H 0.56622 0.69365 0.80559 0.0
H223 H 0.64382 0.67426 0.79933 0.0
C224 C 0.44164 0.75014 0.77508 0.0
C225 C 0.44469 0.7816 0.78756 0.0
C226 C 0.48173 0.73443 0.76875 0.0
C227 C 0.52539 0.74997 0.77434 0.0
C228 C 0.52893 0.78094 0.78906 0.0
C229 C 0.48925 0.7965 0.79571 0.0
C230 C 0.63598 0.73947 0.73171 0.0
C231 C 0.65598 0.71235 0.75566 0.0
C232 C 0.59218 0.75057 0.73557 0.0
C233 C 0.56718 0.73486 0.76355 0.0
C234 C 0.58489 0.70629 0.78399 0.0
C235 C 0.6291 0.6951 0.78012 0.0
H236 H 0.37976 0.67406 0.23334 0.0
H237 H 0.3689 0.75502 0.31714 0.0
H238 H 0.4574 0.6925 0.22595 0.0
H239 H 0.44565 0.77323 0.30971 0.0
H240 H 0.5302 0.81858 0.21908 0.0
H241 H 0.46082 0.79175 0.2302 0.0
H242 H 0.54656 0.7102 0.27526 0.0
H243 H 0.61701 0.73722 0.26441 0.0
C244 C 0.39467 0.69518 0.25157 0.0
C245 C 0.36805 0.71327 0.27542 0.0
C246 C 0.43889 0.70582 0.24705 0.0
C247 C 0.45684 0.73465 0.26621 0.0
C248 C 0.43212 0.75127 0.2936 0.0
C249 C 0.38834 0.74071 0.29817 0.0
C250 C 0.53445 0.79483 0.23086 0.0
C251 C 0.57949 0.78023 0.24144 0.0
C252 C 0.49466 0.77951 0.2375 0.0
C253 C 0.49858 0.74911 0.25461 0.0
C254 C 0.54267 0.7337 0.2623 0.0
C255 C 0.58289 0.74918 0.25598 0.0
H256 H 0.12173 0.79785 0.28711 0.0
H257 H 0.03328 0.72233 0.21358 0.0
H258 H 0.04945 0.82423 0.29512 0.0
H259 H 0.96216 0.74843 0.22197 0.0
H260 H 0.88356 0.86415 0.24222 0.0
H261 H 0.96349 0.84651 0.24003 0.0
H262 H 0.93933 0.75964 0.30151 0.0
H263 H 0.86038 0.77701 0.30378 0.0
C264 C 0.08698 0.78711 0.27198 0.0
C265 C 0.08342 0.75775 0.25029 0.0
C266 C 0.04572 0.80221 0.27667 0.0
C267 C 1.00046 0.78804 0.26008 0.0
C268 C 0.99676 0.75957 0.23605 0.0
C269 C 0.03759 0.74468 0.23109 0.0
C270 C 0.89608 0.8417 0.25667 0.0
C271 C 0.86553 0.82178 0.27258 0.0
C272 C 0.94165 0.83157 0.25519 0.0
C273 C 0.95696 0.80146 0.26952 0.0
C274 C 0.92796 0.78271 0.28923 0.0
C275 C 0.88287 0.79274 0.29076 0.0
H276 H 0.99096 0.72058 0.8196 0.0
H277 H 0.90304 0.79676 0.74822 0.0
H278 H 0.06236 0.74691 0.81271 0.0
H279 H 0.97561 0.82337 0.74173 0.0
H280 H 0.14141 0.86311 0.79636 0.0
H281 H 0.06151 0.84519 0.79805 0.0
H282 H 0.08571 0.75905 0.73383 0.0
H283 H 0.16458 0.77669 0.73198 0.0
C284 C 0.98682 0.74312 0.80288 0.0
C285 C 0.94106 0.75632 0.78382 0.0
C286 C 0.02782 0.75815 0.7988 0.0
C287 C 0.02437 0.78689 0.77582 0.0
C288 C 0.97916 0.80115 0.7594 0.0
C289 C 0.93773 0.78592 0.7632 0.0
C290 C 0.12894 0.84074 0.78128 0.0
C291 C 0.15948 0.82111 0.76464 0.0
C292 C 0.08338 0.83047 0.78246 0.0
C293 C 0.06805 0.80048 0.76712 0.0
C294 C 0.09709 0.78201 0.74687 0.0
C295 C 0.14215 0.79219 0.74561 0.0
H296 H 0.89807 0.23697 0.75405 0.0
H297 H 0.9853 0.31736 0.80611 0.0
H298 H 0.96887 0.21025 0.74331 0.0
H299 H 0.05509 0.29083 0.79514 0.0
H300 H 0.15213 0.25517 0.71307 0.0
H301 H 0.07455 0.27377 0.7178 0.0
H302 H 0.05571 0.19103 0.79314 0.0
H303 H 0.13414 0.17219 0.78834 0.0
C304 C 0.93231 0.2488 0.76383 0.0
C305 C 0.93577 0.27948 0.7805 0.0
C306 C 0.97277 0.23348 0.7576 0.0
C307 C 0.01723 0.24867 0.76743 0.0
C308 C 0.02104 0.27875 0.78619 0.0
C309 C 0.98099 0.2939 0.79278 0.0
C310 C 0.13093 0.24052 0.72951 0.0
C311 C 0.14941 0.21234 0.75067 0.0
C312 C 0.08668 0.2513 0.73259 0.0
C313 C 0.05967 0.23421 0.75694 0.0
C314 C 0.07594 0.20475 0.77437 0.0
C315 C 0.12063 0.19387 0.77131 0.0
H316 H 0.11944 0.2375 0.2753 0.0
H317 H 0.0328 0.31878 0.22858 0.0
H318 H 0.04807 0.21005 0.28299 0.0
H319 H 0.96258 0.29155 0.23657 0.0
H320 H 0.86442 0.2529 0.31448 0.0
H321 H 0.9428 0.2717 0.31286 0.0
H322 H 0.96053 0.19238 0.22881 0.0
H323 H 0.88124 0.17331 0.23041 0.0
C324 C 0.08526 0.24941 0.26618 0.0
C325 C 0.08207 0.2805 0.25183 0.0
C326 C 0.0445 0.23367 0.27061 0.0
C327 C 1.00006 0.24886 0.26128 0.0
C328 C 0.9966 0.27944 0.24502 0.0
C329 C 0.03692 0.29501 0.2402 0.0
C330 C 0.88547 0.23902 0.29665 0.0
C331 C 0.86647 0.21181 0.27214 0.0
C332 C 0.93022 0.24991 0.29546 0.0
C333 C 0.95719 0.23387 0.26972 0.0
C334 C 0.94031 0.20524 0.24875 0.0
C335 C 0.89512 0.19426 0.24991 0.0
H336 H 0.868 0.37119 0.95127 0.0
H337 H 0.96332 0.39918 0.86793 0.0
H338 H 0.93221 0.37629 0.02604 0.0
H339 H 0.02778 0.40623 0.94387 0.0
H340 H 0.14545 0.37251 0.07706 0.0
H341 H 0.08076 0.37783 1.00298 0.0
H342 H 0.98482 0.40409 0.08715 0.0
H343 H 0.05002 0.39679 0.16258 0.0
C344 C 0.90253 0.37909 0.9488 0.0
C345 C 0.91029 0.38442 0.90302 0.0
C346 C 0.93962 0.38235 0.99225 0.0
C347 C 0.9859 0.39151 0.99181 0.0
C348 C 0.99312 0.3984 0.94609 0.0
C349 C 0.95595 0.39467 0.9023 0.0
C350 C 0.11071 0.37961 0.08021 0.0
C351 C 0.10316 0.38386 0.12637 0.0
C352 C 0.07333 0.38304 0.03712 0.0
C353 C 0.02687 0.39132 0.03824 0.0
C354 C 0.01969 0.39704 0.08439 0.0
C355 C 0.05726 0.39318 0.12788 0.0
H356 H 0.15222 0.63693 0.08884 0.0
H357 H 0.04604 0.6638 0.15998 0.0
H358 H 0.08958 0.63077 1.01198 0.0
H359 H 0.98325 0.65925 0.08253 0.0
H360 H 0.87185 0.63543 0.9428 0.0
H361 H 0.93458 0.63025 0.01981 0.0
H362 H 0.04033 0.659 0.94894 0.0
H363 H 0.97753 0.66258 0.87143 0.0
C364 C 0.11529 0.64128 0.08812 0.0
C365 C 0.1042 0.65074 0.13074 0.0
C366 C 0.07923 0.63811 0.04371 0.0
C367 C 0.0309 0.64487 0.04016 0.0
C368 C 0.01968 0.65333 0.08338 0.0
C369 C 0.05578 0.656 0.12809 0.0
C370 C 0.9087 0.64003 0.94348 0.0
C371 C 0.91962 0.64929 0.90076 0.0
C372 C 0.94479 0.63744 0.98798 0.0
C373 C 0.99297 0.64457 0.99147 0.0
C374 C 1.00403 0.65281 0.94815 0.0
C375 C 0.96793 0.65491 0.90339 0.0
H376 H 0.6526 0.90606 0.09157 0.0
H377 H 0.54631 0.87736 0.16125 0.0
H378 H 0.59024 0.91194 1.01444 0.0
H379 H 0.48382 0.88212 0.08359 0.0
H380 H 0.37324 0.9062 0.94404 0.0
H381 H 0.43586 0.9125 0.02087 0.0
H382 H 0.54175 0.88155 0.95155 0.0
H383 H 0.47888 0.87641 0.87404 0.0
C384 C 0.6157 0.90139 0.09059 0.0
C385 C 0.60454 0.89132 0.13283 0.0
C386 C 0.57987 0.90442 0.04602 0.0
C387 C 0.53169 0.89714 0.04203 0.0
C388 C 0.52024 0.88836 0.08491 0.0
C389 C 0.55614 0.88564 0.12973 0.0
C390 C 0.4101 0.90138 0.94492 0.0
C391 C 0.421 0.89086 0.9027 0.0
C392 C 0.44607 0.90464 0.98931 0.0
C393 C 0.49415 0.8971 0.9932 0.0
C394 C 0.50539 0.88795 0.95029 0.0
C395 C 0.46931 0.88502 0.90558 0.0
H396 H 0.64518 0.15936 0.0762 0.0
H397 H 0.54896 0.13724 0.16165 0.0
H398 H 0.58038 0.15434 1.00208 0.0
H399 H 0.48357 0.13029 0.08619 0.0
H400 H 0.36724 0.16219 0.94894 0.0
H401 H 0.43125 0.15761 0.02419 0.0
H402 H 0.52716 0.12594 0.94327 0.0
H403 H 0.46304 0.13234 0.86702 0.0
C404 C 0.61025 0.15276 0.07933 0.0
C405 C 0.6026 0.14896 0.12551 0.0
C406 C 0.57276 0.14954 0.03621 0.0
C407 C 0.52603 0.14192 0.03726 0.0
C408 C 0.51865 0.13678 0.08344 0.0
C409 C 0.55634 0.14043 0.12696 0.0
C410 C 0.40179 0.1539 0.94692 0.0
C411 C 0.40974 0.14781 0.90139 0.0
C412 C 0.43878 0.15104 0.99062 0.0
C413 C 0.48513 0.14157 0.99066 0.0
C414 C 0.4925 0.13403 0.94518 0.0
C415 C 0.4555 0.13737 0.90119 0.0
H416 H 0.16692 0.59398 0.31874 0.0
H417 H 0.30529 0.59816 0.29145 0.0
H418 H 0.17508 0.53837 0.32898 0.0
H419 H 0.31523 0.54299 0.30475 0.0
H420 H 0.27604 0.44715 0.24061 0.0
H421 H 0.28222 0.50172 0.25546 0.0
H422 H 0.20932 0.49199 0.36687 0.0
H423 H 0.20119 0.43673 0.35015 0.0
C424 C 0.19992 0.5831 0.31684 0.0
C425 C 0.23523 0.60023 0.30372 0.0
C426 C 0.20474 0.55117 0.32281 0.0
C427 C 0.24538 0.53586 0.31658 0.0
C428 C 0.28268 0.55369 0.30818 0.0
C429 C 0.27731 0.58539 0.30106 0.0
C430 C 0.26178 0.45641 0.26879 0.0
C431 C 0.23757 0.43745 0.29373 0.0
C432 C 0.26579 0.48793 0.27777 0.0
C433 C 0.24624 0.5016 0.31244 0.0
C434 C 0.22422 0.48241 0.33939 0.0
C435 C 0.21991 0.45067 0.33012 0.0
H436 H 0.71667 0.59781 0.73272 0.0
H437 H 0.85918 0.59208 0.7157 0.0
H438 H 0.70545 0.54293 0.71655 0.0
H439 H 0.84984 0.5367 0.70316 0.0
H440 H 0.73635 0.44606 0.77762 0.0
H441 H 0.73227 0.50062 0.76385 0.0
H442 H 0.81798 0.49085 0.66349 0.0
H443 H 0.82418 0.43553 0.67968 0.0
C444 C 0.74537 0.58474 0.72487 0.0
C445 C 0.78884 0.59905 0.72575 0.0
C446 C 0.73928 0.55318 0.71614 0.0
C447 C 0.77723 0.53491 0.70994 0.0
C448 C 0.81959 0.54977 0.70748 0.0
C449 C 0.82512 0.58159 0.71484 0.0
C450 C 0.75391 0.45532 0.75204 0.0
C451 C 0.78122 0.43631 0.73036 0.0
C452 C 0.75111 0.48688 0.74362 0.0
C453 C 0.77494 0.50059 0.71258 0.0
C454 C 0.79983 0.48131 0.68832 0.0
C455 C 0.803 0.4495 0.69717 0.0
H456 H 0.80879 0.93686 0.30426 0.0
H457 H 0.66601 0.94126 0.32091 0.0
H458 H 0.81801 0.99207 0.31816 0.0
H459 H 0.67369 0.99687 0.33183 0.0
H460 H 0.69728 0.09879 0.35056 0.0
H461 H 0.70607 0.04396 0.37022 0.0
H462 H 0.78612 0.03221 0.26518 0.0
H463 H 0.77898 0.08642 0.24726 0.0
C464 C 0.77979 0.94965 0.31205 0.0
C465 C 0.73665 0.93491 0.31129 0.0
C466 C 0.78475 0.98136 0.31943 0.0
C467 C 0.74606 0.99925 0.32463 0.0
C468 C 0.70436 0.984 0.3281 0.0
C469 C 0.69986 0.95206 0.32184 0.0
C470 C 0.71769 0.08453 0.33259 0.0
C471 C 0.73701 0.09702 0.29696 0.0
C472 C 0.72242 0.05303 0.34358 0.0
C473 C 0.74665 0.0334 0.31924 0.0
C474 C 0.76793 0.0464 0.28549 0.0
C475 C 0.76337 0.07767 0.27472 0.0
H476 H 0.23725 0.94642 0.77511 0.0
H477 H 0.32977 0.93598 0.68184 0.0
H478 H 0.23054 1.00068 0.7583 0.0
H479 H 0.3212 0.99093 0.66275 0.0
H480 H 0.35706 0.09325 0.71412 0.0
H481 H 0.3502 0.03772 0.70219 0.0
H482 H 0.20306 0.04187 0.70786 0.0
H483 H 0.21156 0.09697 0.72325 0.0
C484 C 0.25528 0.95561 0.74988 0.0
C485 C 0.28463 0.93679 0.73042 0.0
C486 C 0.25099 0.98696 0.7397 0.0
C487 C 0.27547 1.00061 0.70919 0.0
C488 C 0.30242 0.98142 0.68705 0.0
C489 C 0.30696 0.94982 0.69756 0.0
C490 C 0.32291 0.0823 0.71148 0.0
C491 C 0.28499 0.09926 0.72011 0.0
C492 C 0.31883 0.05038 0.70453 0.0
C493 C 0.27639 0.03491 0.70523 0.0
C494 C 0.2369 0.05265 0.70883 0.0
C495 C 0.24146 0.08433 0.71707 0.0
H496 H 0.21307 0.22921 0.61708 0.0
H497 H 0.36521 0.23887 0.63673 0.0
H498 H 0.19582 0.25566 0.53901 0.0
H499 H 0.34848 0.26708 0.56017 0.0
H500 H 0.30513 0.28912 0.39901 0.0
H501 H 0.32316 0.26438 0.47722 0.0
H502 H 0.19375 0.30267 0.49996 0.0
H503 H 0.17379 0.32606 0.41878 0.0
C504 C 0.24287 0.23684 0.60433 0.0
C505 C 0.2905 0.23151 0.63254 0.0
C506 C 0.23301 0.25254 0.5599 0.0
C507 C 0.27056 0.26401 0.5429 0.0
C508 C 0.31836 0.25825 0.57116 0.0
C509 C 0.32818 0.24192 0.61514 0.0
C510 C 0.28035 0.29255 0.42056 0.0
C511 C 0.23751 0.30942 0.40198 0.0
C512 C 0.2911 0.27842 0.4661 0.0
C513 C 0.25996 0.28109 0.49545 0.0
C514 C 0.21821 0.29936 0.4781 0.0
C515 C 0.207 0.31324 0.43178 0.0
H516 H 0.7098 0.30613 0.61558 0.0
H517 H 0.86186 0.29996 0.63228 0.0
H518 H 0.69257 0.28009 0.53693 0.0
H519 H 0.84529 0.27222 0.55514 0.0
H520 H 0.80114 0.24944 0.3945 0.0
H521 H 0.81833 0.27486 0.47224 0.0
H522 H 0.69252 0.23316 0.49756 0.0
H523 H 0.67325 0.20898 0.41678 0.0
C524 C 0.73956 0.29942 0.60202 0.0
C525 C 0.78716 0.30555 0.62963 0.0
C526 C 0.72976 0.28395 0.55727 0.0
C527 C 0.76736 0.27355 0.53931 0.0
C528 C 0.81509 0.28022 0.56687 0.0
C529 C 0.82481 0.2963 0.61118 0.0
C530 C 0.77693 0.2454 0.41646 0.0
C531 C 0.73533 0.22724 0.39876 0.0
C532 C 0.78723 0.25995 0.46175 0.0
C533 C 0.75692 0.25643 0.49177 0.0
C534 C 0.71631 0.2371 0.47518 0.0
C535 C 0.7055 0.22279 0.42909 0.0
H536 H 0.6794 0.82444 0.41796 0.0
H537 H 0.79262 0.77242 0.38398 0.0
H538 H 0.70048 0.80075 0.49891 0.0
H539 H 0.81185 0.74801 0.4628 0.0
H540 H 0.86531 0.72847 0.62592 0.0
H541 H 0.84665 0.75364 0.54646 0.0
H542 H 0.6957 0.75389 0.53862 0.0
H543 H 0.71486 0.72999 0.61872 0.0
C544 C 0.70871 0.80807 0.42764 0.0
C545 C 0.73407 0.80044 0.39416 0.0
C546 C 0.72058 0.79419 0.47392 0.0
C547 C 0.75785 0.77219 0.48764 0.0
C548 C 0.78351 0.76508 0.45427 0.0
C549 C 0.77206 0.77906 0.40854 0.0
C550 C 0.82812 0.73341 0.60672 0.0
C551 C 0.7916 0.72713 0.62849 0.0
C552 C 0.81728 0.74798 0.56115 0.0
C553 C 0.76954 0.75623 0.53596 0.0
C554 C 0.73294 0.74874 0.55719 0.0
C555 C 0.74387 0.73459 0.60289 0.0
H556 H 0.34298 0.82648 0.61512 0.0
H557 H 0.22817 0.77559 0.64755 0.0
H558 H 0.32222 0.80274 0.53406 0.0
H559 H 0.20927 0.75106 0.56863 0.0
H560 H 0.15806 0.73009 0.40572 0.0
H561 H 0.17576 0.75581 0.48487 0.0
H562 H 0.32715 0.75582 0.49459 0.0
H563 H 0.30892 0.7314 0.41475 0.0
C564 C 0.31331 0.81039 0.60504 0.0
C565 C 0.28753 0.80302 0.63821 0.0
C566 C 0.30166 0.79644 0.5587 0.0
C567 C 0.26416 0.77463 0.54455 0.0
C568 C 0.23785 0.76793 0.57748 0.0
C569 C 0.24911 0.78199 0.62328 0.0
C570 C 0.19515 0.73509 0.42527 0.0
C571 C 0.23206 0.72856 0.40408 0.0
C572 C 0.20544 0.75 0.47068 0.0
C573 C 0.25301 0.75834 0.49633 0.0
C574 C 0.29 0.75062 0.47568 0.0
C575 C 0.27963 0.73615 0.43012 0.0
H576 H 0.26678 0.24866 0.161 0.0
H577 H 0.1844 0.32063 0.07154 0.0
H578 H 0.29336 0.23071 0.09205 0.0
H579 H 0.20874 0.30206 1.00165 0.0
H580 H 0.29767 0.2851 0.90045 0.0
H581 H 0.2804 0.30192 0.97551 0.0
H582 H 0.2679 0.20698 1.0148 0.0
H583 H 0.28711 0.19052 0.94186 0.0
C584 C 0.25266 0.25963 0.12579 0.0
C585 C 0.22292 0.28546 0.12073 0.0
C586 C 0.26827 0.24971 0.08653 0.0
C587 C 0.25385 0.26537 0.04166 0.0
C588 C 0.22159 0.29009 0.03611 0.0
C589 C 0.20668 0.30025 0.07556 0.0
C590 C 0.29267 0.26802 0.92604 0.0
C591 C 0.29299 0.23663 0.91528 0.0
C592 C 0.28204 0.27753 0.9685 0.0
C593 C 0.27164 0.25572 1.00042 0.0
C594 C 0.27572 0.22437 0.99115 0.0
C595 C 0.28654 0.21495 0.94918 0.0
H596 H 0.68388 0.21183 0.06812 0.0
H597 H 0.77332 0.28027 0.16005 0.0
H598 H 0.71052 0.22907 0.99899 0.0
H599 H 0.80241 0.29662 0.09213 0.0
H600 H 0.79721 0.33843 0.94396 0.0
H601 H 0.77926 0.32174 0.01708 0.0
H602 H 0.78043 0.22708 0.97057 0.0
H603 H 0.7965 0.24437 0.89519 0.0
C604 C 0.70827 0.23118 0.07286 0.0
C605 C 0.7256 0.24551 0.1184 0.0
C606 C 0.72455 0.2405 0.03387 0.0
C607 C 0.75931 0.26379 0.04032 0.0
C608 C 0.7753 0.27879 0.08579 0.0
C609 C 0.75827 0.26982 0.12448 0.0
C610 C 0.79482 0.31397 0.94988 0.0
C611 C 0.79757 0.29264 0.91387 0.0
C612 C 0.78462 0.30438 0.99195 0.0
C613 C 0.77745 0.27314 0.99923 0.0
C614 C 0.78452 0.25144 0.9652 0.0
C615 C 0.79452 0.26117 0.92256 0.0
H616 H 0.76052 0.7865 0.86806 0.0
H617 H 0.8229 0.7082 0.95575 0.0
H618 H 0.73161 0.80605 0.93454 0.0
H619 H 0.79666 0.72834 0.02351 0.0
H620 H 0.7066 0.75276 0.12002 0.0
H621 H 0.72466 0.73445 0.04626 0.0
H622 H 0.75512 0.82776 1.01239 0.0
H623 H 0.73446 0.84591 0.08363 0.0
C624 C 0.76971 0.77425 0.90245 0.0
C625 C 0.79444 0.74627 0.90756 0.0
C626 C 0.7528 0.78518 0.94034 0.0
C627 C 0.76112 0.76846 0.98409 0.0
C628 C 0.78835 0.74129 0.98982 0.0
C629 C 0.80436 0.73011 0.95162 0.0
C630 C 0.71576 0.76929 0.09589 0.0
C631 C 0.72006 0.8006 0.10787 0.0
C632 C 0.72685 0.75885 0.05414 0.0
C633 C 0.74258 0.7796 0.02416 0.0
C634 C 0.74316 0.81112 0.03446 0.0
C635 C 0.73163 0.8215 0.0756 0.0
H636 H 0.19279 0.71418 0.07485 0.0
H637 H 0.27462 0.7847 0.16882 0.0
H638 H 0.22137 0.7326 1.00766 0.0
H639 H 0.3058 0.80225 0.10288 0.0
H640 H 0.30701 0.84387 0.95585 0.0
H641 H 0.28616 0.82689 0.02756 0.0
H642 H 0.29271 0.73229 0.98279 0.0
H643 H 0.31107 0.74977 0.90882 0.0
C644 C 0.21599 0.73419 0.08046 0.0
C645 C 0.23063 0.7487 0.12608 0.0
C646 C 0.23338 0.74424 0.04258 0.0
C647 C 0.26672 0.76847 0.05018 0.0
C648 C 0.27988 0.78369 0.09561 0.0
C649 C 0.26165 0.77398 0.13319 0.0
C650 C 0.30489 0.81938 0.96184 0.0
C651 C 0.30966 0.79808 0.92655 0.0
C652 C 0.29313 0.80963 1.00312 0.0
C653 C 0.28657 0.77827 1.01036 0.0
C654 C 0.29604 0.75671 0.97736 0.0
C655 C 0.30743 0.76658 0.93553 0.0
loop_
_geom_bond_atom_site_label_1
_geom_bond_atom_site_label_2
_geom_bond_distance
_geom_bond_site_symmetry_2
_ccdc_geom_bond_type
Fe0 O2 1.918 . S
Fe0 O5 1.997 . S
Fe0 O6 2.002 . S
Fe0 O11 1.976 . S
Fe0 O14 1.996 . S
Fe1 O2 1.918 . S
Fe1 O9 1.997 . S
Fe1 O12 1.996 . S
Fe1 O16 1.976 . S
Fe1 O19 2.002 . S
O2 Fe0 1.918 . S
O2 Fe1 1.918 . S
O2 Fe3 1.918 . S
Fe3 O2 1.918 . S
Fe3 O4 2.002 . S
Fe3 O13 1.976 . S
Fe3 O17 1.996 . S
Fe3 O20 1.997 . S
O4 Fe3 2.002 . S
O4 C21 1.295 . S
O5 Fe0 1.997 . S
O5 C21 1.235 . S
O6 Fe0 2.002 . S
O6 C7 1.295 . S
C7 O6 1.295 . S
C7 O9 1.235 . S
C8 O13 1.287 . S
C8 O14 1.255 . S
O9 Fe1 1.997 . S
O9 C7 1.235 . S
C10 O16 1.287 . S
C10 O17 1.255 . S
O11 Fe0 1.976 . S
O11 C18 1.287 . S
O12 Fe1 1.996 . S
O12 C18 1.255 . S
O13 Fe3 1.976 . S
O13 C8 1.287 . S
O14 Fe0 1.996 . S
O14 C8 1.255 . S
C15 O19 1.295 . S
C15 O20 1.235 . S
O16 Fe1 1.976 . S
O16 C10 1.287 . S
O17 Fe3 1.996 . S
O17 C10 1.255 . S
C18 O11 1.287 . S
C18 O12 1.255 . S
O19 Fe1 2.002 . S
O19 C15 1.295 . S
O20 Fe3 1.997 . S
O20 C15 1.235 . S
C21 O4 1.295 . S
C21 O5 1.235 . S
Fe22 O24 1.918 . S
Fe22 O27 1.997 . S
Fe22 O28 2.002 . S
Fe22 O33 1.976 . S
Fe22 O36 1.996 . S
Fe23 O24 1.918 . S
Fe23 O31 1.997 . S
Fe23 O34 1.996 . S
Fe23 O38 1.976 . S
Fe23 O41 2.002 . S
O24 Fe22 1.918 . S
O24 Fe23 1.918 . S
O24 Fe25 1.918 . S
Fe25 O24 1.918 . S
Fe25 O26 2.002 . S
Fe25 O35 1.976 . S
Fe25 O39 1.996 . S
Fe25 O42 1.997 . S
O26 Fe25 2.002 . S
O26 C43 1.295 . S
O27 Fe22 1.997 . S
O27 C43 1.235 . S
O28 Fe22 2.002 . S
O28 C29 1.295 . S
C29 O28 1.295 . S
C29 O31 1.235 . S
C30 O35 1.287 . S
C30 O36 1.255 . S
O31 Fe23 1.997 . S
O31 C29 1.235 . S
C32 O38 1.287 . S
C32 O39 1.255 . S
O33 Fe22 1.976 . S
O33 C40 1.287 . S
O34 Fe23 1.996 . S
O34 C40 1.255 . S
O35 Fe25 1.976 . S
O35 C30 1.287 . S
O36 Fe22 1.996 . S
O36 C30 1.255 . S
C37 O41 1.295 . S
C37 O42 1.235 . S
O38 Fe23 1.976 . S
O38 C32 1.287 . S
O39 Fe25 1.996 . S
O39 C32 1.255 . S
C40 O33 1.287 . S
C40 O34 1.255 . S
O41 Fe23 2.002 . S
O41 C37 1.295 . S
O42 Fe25 1.997 . S
O42 C37 1.235 . S
C43 O26 1.295 . S
C43 O27 1.235 . S
Fe44 O46 1.918 . S
Fe44 O49 1.997 . S
Fe44 O50 2.002 . S
Fe44 O55 1.976 . S
Fe44 O58 1.996 . S
Fe45 O46 1.918 . S
Fe45 O53 1.997 . S
Fe45 O56 1.996 . S
Fe45 O60 1.976 . S
Fe45 O63 2.002 . S
O46 Fe44 1.918 . S
O46 Fe45 1.918 . S
O46 Fe47 1.918 . S
Fe47 O46 1.918 . S
Fe47 O48 2.002 . S
Fe47 O57 1.976 . S
Fe47 O61 1.996 . S
Fe47 O64 1.997 . S
O48 Fe47 2.002 . S
O48 C65 1.295 . S
O49 Fe44 1.997 . S
O49 C65 1.235 . S
O50 Fe44 2.002 . S
O50 C51 1.295 . S
C51 O50 1.295 . S
C51 O53 1.235 . S
C52 O57 1.287 . S
C52 O58 1.255 . S
O53 Fe45 1.997 . S
O53 C51 1.235 . S
C54 O60 1.287 . S
C54 O61 1.255 . S
O55 Fe44 1.976 . S
O55 C62 1.287 . S
O56 Fe45 1.996 . S
O56 C62 1.255 . S
O57 Fe47 1.976 . S
O57 C52 1.287 . S
O58 Fe44 1.996 . S
O58 C52 1.255 . S
C59 O63 1.295 . S
C59 O64 1.235 . S
O60 Fe45 1.976 . S
O60 C54 1.287 . S
O61 Fe47 1.996 . S
O61 C54 1.255 . S
C62 O55 1.287 . S
C62 O56 1.255 . S
O63 Fe45 2.002 . S
O63 C59 1.295 . S
O64 Fe47 1.997 . S
O64 C59 1.235 . S
C65 O48 1.295 . S
C65 O49 1.235 . S
Fe66 O68 1.918 . S
Fe66 O71 1.997 . S
Fe66 O72 2.002 . S
Fe66 O77 1.976 . S
Fe66 O80 1.996 . S
Fe67 O68 1.918 . S
Fe67 O75 1.997 . S
Fe67 O78 1.996 . S
Fe67 O82 1.976 . S
Fe67 O85 2.002 . S
O68 Fe66 1.918 . S
O68 Fe67 1.918 . S
O68 Fe69 1.918 . S
Fe69 O68 1.918 . S
Fe69 O70 2.002 . S
Fe69 O79 1.976 . S
Fe69 O83 1.996 . S
Fe69 O86 1.997 . S
O70 Fe69 2.002 . S
O70 C87 1.295 . S
O71 Fe66 1.997 . S
O71 C87 1.235 . S
O72 Fe66 2.002 . S
O72 C73 1.295 . S
C73 O72 1.295 . S
C73 O75 1.235 . S
C74 O79 1.287 . S
C74 O80 1.255 . S
O75 Fe67 1.997 . S
O75 C73 1.235 . S
C76 O82 1.287 . S
C76 O83 1.255 . S
O77 Fe66 1.976 . S
O77 C84 1.287 . S
O78 Fe67 1.996 . S
O78 C84 1.255 . S
O79 Fe69 1.976 . S
O79 C74 1.287 . S
O80 Fe66 1.996 . S
O80 C74 1.255 . S
C81 O85 1.295 . S
C81 O86 1.235 . S
O82 Fe67 1.976 . S
O82 C76 1.287 . S
O83 Fe69 1.996 . S
O83 C76 1.255 . S
C84 O77 1.287 . S
C84 O78 1.255 . S
O85 Fe67 2.002 . S
O85 C81 1.295 . S
O86 Fe69 1.997 . S
O86 C81 1.235 . S
C87 O70 1.295 . S
C87 O71 1.235 . S
Fe88 O90 1.918 . S
Fe88 O93 1.997 . S
Fe88 O94 2.002 . S
Fe88 O99 1.976 . S
Fe88 O102 1.996 . S
Fe89 O90 1.918 . S
Fe89 O97 1.997 . S
Fe89 O100 1.996 . S
Fe89 O104 1.976 . S
Fe89 O107 2.002 . S
O90 Fe88 1.918 . S
O90 Fe89 1.918 . S
O90 Fe91 1.918 . S
Fe91 O90 1.918 . S
Fe91 O92 2.002 . S
Fe91 O101 1.976 . S
Fe91 O105 1.996 . S
Fe91 O108 1.997 . S
O92 Fe91 2.002 . S
O92 C109 1.295 . S
O93 Fe88 1.997 . S
O93 C109 1.235 . S
O94 Fe88 2.002 . S
O94 C95 1.295 . S
C95 O94 1.295 . S
C95 O97 1.235 . S
C96 O101 1.287 . S
C96 O102 1.255 . S
O97 Fe89 1.997 . S
O97 C95 1.235 . S
C98 O104 1.287 . S
C98 O105 1.255 . S
O99 Fe88 1.976 . S
O99 C106 1.287 . S
O100 Fe89 1.996 . S
O100 C106 1.255 . S
O101 Fe91 1.976 . S
O101 C96 1.287 . S
O102 Fe88 1.996 . S
O102 C96 1.255 . S
C103 O107 1.295 . S
C103 O108 1.235 . S
O104 Fe89 1.976 . S
O104 C98 1.287 . S
O105 Fe91 1.996 . S
O105 C98 1.255 . S
C106 O99 1.287 . S
C106 O100 1.255 . S
O107 Fe89 2.002 . S
O107 C103 1.295 . S
O108 Fe91 1.997 . S
O108 C103 1.235 . S
C109 O92 1.295 . S
C109 O93 1.235 . S
Fe110 O112 1.918 . S
Fe110 O115 1.997 . S
Fe110 O116 2.002 . S
Fe110 O121 1.976 . S
Fe110 O124 1.996 . S
Fe111 O112 1.918 . S
Fe111 O119 1.997 . S
Fe111 O122 1.996 . S
Fe111 O126 1.976 . S
Fe111 O129 2.002 . S
O112 Fe110 1.918 . S
O112 Fe111 1.918 . S
O112 Fe113 1.918 . S
Fe113 O112 1.918 . S
Fe113 O114 2.002 . S
Fe113 O123 1.976 . S
Fe113 O127 1.996 . S
Fe113 O130 1.997 . S
O114 Fe113 2.002 . S
O114 C131 1.295 . S
O115 Fe110 1.997 . S
O115 C131 1.235 . S
O116 Fe110 2.002 . S
O116 C117 1.295 . S
C117 O116 1.295 . S
C117 O119 1.235 . S
C118 O123 1.287 . S
C118 O124 1.255 . S
O119 Fe111 1.997 . S
O119 C117 1.235 . S
C120 O126 1.287 . S
C120 O127 1.255 . S
O121 Fe110 1.976 . S
O121 C128 1.287 . S
O122 Fe111 1.996 . S
O122 C128 1.255 . S
O123 Fe113 1.976 . S
O123 C118 1.287 . S
O124 Fe110 1.996 . S
O124 C118 1.255 . S
C125 O129 1.295 . S
C125 O130 1.235 . S
O126 Fe111 1.976 . S
O126 C120 1.287 . S
O127 Fe113 1.996 . S
O127 C120 1.255 . S
C128 O121 1.287 . S
C128 O122 1.255 . S
O129 Fe111 2.002 . S
O129 C125 1.295 . S
O130 Fe113 1.997 . S
O130 C125 1.235 . S
C131 O114 1.295 . S
C131 O115 1.235 . S
Fe132 O134 1.918 . S
Fe132 O137 1.997 . S
Fe132 O138 2.002 . S
Fe132 O143 1.976 . S
Fe132 O146 1.996 . S
Fe133 O134 1.918 . S
Fe133 O141 1.997 . S
Fe133 O144 1.996 . S
Fe133 O148 1.976 . S
Fe133 O151 2.002 . S
O134 Fe132 1.918 . S
O134 Fe133 1.918 . S
O134 Fe135 1.918 . S
Fe135 O134 1.918 . S
Fe135 O136 2.002 . S
Fe135 O145 1.976 . S
Fe135 O149 1.996 . S
Fe135 O152 1.997 . S
O136 Fe135 2.002 . S
O136 C153 1.295 . S
O137 Fe132 1.997 . S
O137 C153 1.235 . S
O138 Fe132 2.002 . S
O138 C139 1.295 . S
C139 O138 1.295 . S
C139 O141 1.235 . S
C140 O145 1.287 . S
C140 O146 1.255 . S
O141 Fe133 1.997 . S
O141 C139 1.235 . S
C142 O148 1.287 . S
C142 O149 1.255 . S
O143 Fe132 1.976 . S
O143 C150 1.287 . S
O144 Fe133 1.996 . S
O144 C150 1.255 . S
O145 Fe135 1.976 . S
O145 C140 1.287 . S
O146 Fe132 1.996 . S
O146 C140 1.255 . S
C147 O151 1.295 . S
C147 O152 1.235 . S
O148 Fe133 1.976 . S
O148 C142 1.287 . S
O149 Fe135 1.996 . S
O149 C142 1.255 . S
C150 O143 1.287 . S
C150 O144 1.255 . S
O151 Fe133 2.002 . S
O151 C147 1.295 . S
O152 Fe135 1.997 . S
O152 C147 1.235 . S
C153 O136 1.295 . S
C153 O137 1.235 . S
Fe154 O156 1.918 . S
Fe154 O159 1.997 . S
Fe154 O160 2.002 . S
Fe154 O165 1.976 . S
Fe154 O168 1.996 . S
Fe155 O156 1.918 . S
Fe155 O163 1.997 . S
Fe155 O166 1.996 . S
Fe155 O170 1.976 . S
Fe155 O173 2.002 . S
O156 Fe154 1.918 . S
O156 Fe155 1.918 . S
O156 Fe157 1.918 . S
Fe157 O156 1.918 . S
Fe157 O158 2.002 . S
Fe157 O167 1.976 . S
Fe157 O171 1.996 . S
Fe157 O174 1.997 . S
O158 Fe157 2.002 . S
O158 C175 1.295 . S
O159 Fe154 1.997 . S
O159 C175 1.235 . S
O160 Fe154 2.002 . S
O160 C161 1.295 . S
C161 O160 1.295 . S
C161 O163 1.235 . S
C162 O167 1.287 . S
C162 O168 1.255 . S
O163 Fe155 1.997 . S
O163 C161 1.235 . S
C164 O170 1.287 . S
C164 O171 1.255 . S
O165 Fe154 1.976 . S
O165 C172 1.287 . S
O166 Fe155 1.996 . S
O166 C172 1.255 . S
O167 Fe157 1.976 . S
O167 C162 1.287 . S
O168 Fe154 1.996 . S
O168 C162 1.255 . S
C169 O173 1.295 . S
C169 O174 1.235 . S
O170 Fe155 1.976 . S
O170 C164 1.287 . S
O171 Fe157 1.996 . S
O171 C164 1.255 . S
C172 O165 1.287 . S
C172 O166 1.255 . S
O173 Fe155 2.002 . S
O173 C169 1.295 . S
O174 Fe157 1.997 . S
O174 C169 1.235 . S
C175 O158 1.295 . S
C175 O159 1.235 . S
H176 C184 0.950 . S
H177 C189 0.950 . S
H178 C186 0.950 . S
H179 C188 0.950 . S
H180 C190 0.950 . S
H181 C192 0.950 . S
H182 C194 0.950 . S
H183 C195 0.950 . S
C184 H176 0.950 . S
C184 C185 1.386 . S
C184 C186 1.391 . S
C185 C184 1.386 . S
C185 C189 1.393 . S
C186 H178 0.950 . S
C186 C184 1.391 . S
C186 C187 1.400 . S
C187 C186 1.400 . S
C187 C188 1.398 . S
C187 C193 1.491 . S
C188 H179 0.950 . S
C188 C187 1.398 . S
C188 C189 1.391 . S
C189 H177 0.950 . S
C189 C185 1.393 . S
C189 C188 1.391 . S
C190 H180 0.950 . S
C190 C191 1.386 . S
C190 C192 1.391 . S
C191 C190 1.386 . S
C191 C195 1.393 . S
C192 H181 0.950 . S
C192 C190 1.391 . S
C192 C193 1.400 . S
C193 C187 1.491 . S
C193 C192 1.400 . S
C193 C194 1.398 . S
C194 H182 0.950 . S
C194 C193 1.398 . S
C194 C195 1.391 . S
C195 H183 0.950 . S
C195 C191 1.393 . S
C195 C194 1.391 . S
H196 C204 0.950 . S
H197 C209 0.950 . S
H198 C206 0.950 . S
H199 C208 0.950 . S
H200 C210 0.950 . S
H201 C212 0.950 . S
H202 C214 0.950 . S
H203 C215 0.950 . S
C204 H196 0.950 . S
C204 C205 1.386 . S
C204 C206 1.391 . S
C205 C204 1.386 . S
C205 C209 1.393 . S
C206 H198 0.950 . S
C206 C204 1.391 . S
C206 C207 1.400 . S
C207 C206 1.400 . S
C207 C208 1.398 . S
C207 C213 1.491 . S
C208 H199 0.950 . S
C208 C207 1.398 . S
C208 C209 1.391 . S
C209 H197 0.950 . S
C209 C205 1.393 . S
C209 C208 1.391 . S
C210 H200 0.950 . S
C210 C211 1.386 . S
C210 C212 1.391 . S
C211 C210 1.386 . S
C211 C215 1.393 . S
C212 H201 0.950 . S
C212 C210 1.391 . S
C212 C213 1.400 . S
C213 C207 1.491 . S
C213 C212 1.400 . S
C213 C214 1.398 . S
C214 H202 0.950 . S
C214 C213 1.398 . S
C214 C215 1.391 . S
C215 H203 0.950 . S
C215 C211 1.393 . S
C215 C214 1.391 . S
H216 C224 0.950 . S
H217 C229 0.950 . S
H218 C226 0.950 . S
H219 C228 0.950 . S
H220 C230 0.950 . S
H221 C232 0.950 . S
H222 C234 0.950 . S
H223 C235 0.950 . S
C224 H216 0.950 . S
C224 C225 1.386 . S
C224 C226 1.391 . S
C225 C224 1.386 . S
C225 C229 1.393 . S
C226 H218 0.950 . S
C226 C224 1.391 . S
C226 C227 1.400 . S
C227 C226 1.400 . S
C227 C228 1.398 . S
C227 C233 1.491 . S
C228 H219 0.950 . S
C228 C227 1.398 . S
C228 C229 1.391 . S
C229 H217 0.950 . S
C229 C225 1.393 . S
C229 C228 1.391 . S
C230 H220 0.950 . S
C230 C231 1.386 . S
C230 C232 1.391 . S
C231 C230 1.386 . S
C231 C235 1.393 . S
C232 H221 0.950 . S
C232 C230 1.391 . S
C232 C233 1.400 . S
C233 C227 1.491 . S
C233 C232 1.400 . S
C233 C234 1.398 . S
C234 H222 0.950 . S
C234 C233 1.398 . S
C234 C235 1.391 . S
C235 H223 0.950 . S
C235 C231 1.393 . S
C235 C234 1.391 . S
H236 C244 0.950 . S
H237 C249 0.950 . S
H238 C246 0.950 . S
H239 C248 0.950 . S
H240 C250 0.950 . S
H241 C252 0.950 . S
H242 C254 0.950 . S
H243 C255 0.950 . S
C244 H236 0.950 . S
C244 C245 1.386 . S
C244 C246 1.391 . S
C245 C244 1.386 . S
C245 C249 1.393 . S
C246 H238 0.950 . S
C246 C244 1.391 . S
C246 C247 1.400 . S
C247 C246 1.400 . S
C247 C248 1.398 . S
C247 C253 1.491 . S
C248 H239 0.950 . S
C248 C247 1.398 . S
C248 C249 1.391 . S
C249 H237 0.950 . S
C249 C245 1.393 . S
C249 C248 1.391 . S
C250 H240 0.950 . S
C250 C251 1.386 . S
C250 C252 1.391 . S
C251 C250 1.386 . S
C251 C255 1.393 . S
C252 H241 0.950 . S
C252 C250 1.391 . S
C252 C253 1.400 . S
C253 C247 1.491 . S
C253 C252 1.400 . S
C253 C254 1.398 . S
C254 H242 0.950 . S
C254 C253 1.398 . S
C254 C255 1.391 . S
C255 H243 0.950 . S
C255 C251 1.393 . S
C255 C254 1.391 . S
H256 C264 0.950 . S
H257 C269 0.950 . S
H258 C266 0.950 . S
H259 C268 0.950 . S
H260 C270 0.950 . S
H261 C272 0.950 . S
H262 C274 0.950 . S
H263 C275 0.950 . S
C264 H256 0.950 . S
C264 C265 1.386 . S
C264 C266 1.391 . S
C265 C264 1.386 . S
C265 C269 1.393 . S
C266 H258 0.950 . S
C266 C264 1.391 . S
C266 C267 1.400 . S
C267 C266 1.400 . S
C267 C268 1.398 . S
C267 C273 1.491 1_455 S
C268 H259 0.950 . S
C268 C267 1.398 . S
C268 C269 1.391 . S
C269 H257 0.950 . S
C269 C265 1.393 . S
C269 C268 1.391 . S
C270 H260 0.950 . S
C270 C271 1.386 . S
C270 C272 1.391 . S
C271 C270 1.386 . S
C271 C275 1.393 . S
C272 H261 0.950 . S
C272 C270 1.391 . S
C272 C273 1.400 . S
C273 C267 1.491 1_655 S
C273 C272 1.400 . S
C273 C274 1.398 . S
C274 H262 0.950 . S
C274 C273 1.398 . S
C274 C275 1.391 . S
C275 H263 0.950 . S
C275 C271 1.393 . S
C275 C274 1.391 . S
H276 C284 0.950 . S
H277 C289 0.950 . S
H278 C286 0.950 1_455 S
H279 C288 0.950 . S
H280 C290 0.950 . S
H281 C292 0.950 . S
H282 C294 0.950 . S
H283 C295 0.950 . S
C284 H276 0.950 . S
C284 C285 1.386 . S
C284 C286 1.391 . S
C285 C284 1.386 . S
C285 C289 1.393 . S
C286 H278 0.950 1_655 S
C286 C284 1.391 . S
C286 C287 1.400 . S
C287 C286 1.400 . S
C287 C288 1.398 . S
C287 C293 1.491 1_655 S
C288 H279 0.950 . S
C288 C287 1.398 . S
C288 C289 1.391 . S
C289 H277 0.950 . S
C289 C285 1.393 . S
C289 C288 1.391 . S
C290 H280 0.950 . S
C290 C291 1.386 . S
C290 C292 1.391 . S
C291 C290 1.386 . S
C291 C295 1.393 . S
C292 H281 0.950 . S
C292 C290 1.391 . S
C292 C293 1.400 . S
C293 C287 1.491 1_455 S
C293 C292 1.400 . S
C293 C294 1.398 . S
C294 H282 0.950 . S
C294 C293 1.398 . S
C294 C295 1.391 . S
C295 H283 0.950 . S
C295 C291 1.393 . S
C295 C294 1.391 . S
H296 C304 0.950 . S
H297 C309 0.950 . S
H298 C306 0.950 . S
H299 C308 0.950 1_455 S
H300 C310 0.950 . S
H301 C312 0.950 . S
H302 C314 0.950 . S
H303 C315 0.950 . S
C304 H296 0.950 . S
C304 C305 1.386 . S
C304 C306 1.391 . S
C305 C304 1.386 . S
C305 C309 1.393 . S
C306 H298 0.950 . S
C306 C304 1.391 . S
C306 C307 1.400 . S
C307 C306 1.400 . S
C307 C308 1.398 . S
C307 C313 1.491 1_655 S
C308 H299 0.950 1_655 S
C308 C307 1.398 . S
C308 C309 1.391 . S
C309 H297 0.950 . S
C309 C305 1.393 . S
C309 C308 1.391 . S
C310 H300 0.950 . S
C310 C311 1.386 . S
C310 C312 1.391 . S
C311 C310 1.386 . S
C311 C315 1.393 . S
C312 H301 0.950 . S
C312 C310 1.391 . S
C312 C313 1.400 . S
C313 C307 1.491 1_455 S
C313 C312 1.400 . S
C313 C314 1.398 . S
C314 H302 0.950 . S
C314 C313 1.398 . S
C314 C315 1.391 . S
C315 H303 0.950 . S
C315 C311 1.393 . S
C315 C314 1.391 . S
H316 C324 0.950 . S
H317 C329 0.950 . S
H318 C326 0.950 . S
H319 C328 0.950 1_655 S
H320 C330 0.950 . S
H321 C332 0.950 . S
H322 C334 0.950 . S
H323 C335 0.950 . S
C324 H316 0.950 . S
C324 C325 1.386 . S
C324 C326 1.391 . S
C325 C324 1.386 . S
C325 C329 1.393 . S
C326 H318 0.950 . S
C326 C324 1.391 . S
C326 C327 1.400 . S
C327 C326 1.400 . S
C327 C328 1.398 . S
C327 C333 1.491 1_455 S
C328 H319 0.950 1_455 S
C328 C327 1.398 . S
C328 C329 1.391 . S
C329 H317 0.950 . S
C329 C325 1.393 . S
C329 C328 1.391 . S
C330 H320 0.950 . S
C330 C331 1.386 . S
C330 C332 1.391 . S
C331 C330 1.386 . S
C331 C335 1.393 . S
C332 H321 0.950 . S
C332 C330 1.391 . S
C332 C333 1.400 . S
C333 C327 1.491 1_655 S
C333 C332 1.400 . S
C333 C334 1.398 . S
C334 H322 0.950 . S
C334 C333 1.398 . S
C334 C335 1.391 . S
C335 H323 0.950 . S
C335 C331 1.393 . S
C335 C334 1.391 . S
H336 C344 0.950 . S
H337 C349 0.950 . S
H338 C346 0.950 . S
H339 C348 0.950 . S
H340 C350 0.950 . S
H341 C352 0.950 . S
H342 C354 0.950 . S
H343 C355 0.950 . S
C344 H336 0.950 . S
C344 C345 1.386 . S
C344 C346 1.391 . S
C345 C344 1.386 . S
C345 C349 1.393 . S
C346 H338 0.950 . S
C346 C344 1.391 . S
C346 C347 1.400 . S
C347 C346 1.400 . S
C347 C348 1.398 . S
C347 C353 1.491 1_656 S
C348 H339 0.950 . S
C348 C347 1.398 . S
C348 C349 1.391 . S
C349 H337 0.950 . S
C349 C345 1.393 . S
C349 C348 1.391 . S
C350 H340 0.950 . S
C350 C351 1.386 . S
C350 C352 1.391 . S
C351 C350 1.386 . S
C351 C355 1.393 . S
C352 H341 0.950 . S
C352 C350 1.391 . S
C352 C353 1.400 . S
C353 C347 1.491 1_454 S
C353 C352 1.400 . S
C353 C354 1.398 . S
C354 H342 0.950 . S
C354 C353 1.398 . S
C354 C355 1.391 . S
C355 H343 0.950 . S
C355 C351 1.393 . S
C355 C354 1.391 . S
H356 C364 0.950 . S
H357 C369 0.950 . S
H358 C366 0.950 . S
H359 C368 0.950 . S
H360 C370 0.950 . S
H361 C372 0.950 . S
H362 C374 0.950 . S
H363 C375 0.950 . S
C364 H356 0.950 . S
C364 C365 1.386 . S
C364 C366 1.391 . S
C365 C364 1.386 . S
C365 C369 1.393 . S
C366 H358 0.950 . S
C366 C364 1.391 . S
C366 C367 1.400 . S
C367 C366 1.400 . S
C367 C368 1.398 . S
C367 C373 1.491 1_454 S
C368 H359 0.950 . S
C368 C367 1.398 . S
C368 C369 1.391 . S
C369 H357 0.950 . S
C369 C365 1.393 . S
C369 C368 1.391 . S
C370 H360 0.950 . S
C370 C371 1.386 . S
C370 C372 1.391 . S
C371 C370 1.386 . S
C371 C375 1.393 . S
C372 H361 0.950 . S
C372 C370 1.391 . S
C372 C373 1.400 . S
C373 C367 1.491 1_656 S
C373 C372 1.400 . S
C373 C374 1.398 . S
C374 H362 0.950 . S
C374 C373 1.398 . S
C374 C375 1.391 . S
C375 H363 0.950 . S
C375 C371 1.393 . S
C375 C374 1.391 . S
H376 C384 0.950 . S
H377 C389 0.950 . S
H378 C386 0.950 . S
H379 C388 0.950 . S
H380 C390 0.950 . S
H381 C392 0.950 . S
H382 C394 0.950 . S
H383 C395 0.950 . S
C384 H376 0.950 . S
C384 C385 1.386 . S
C384 C386 1.391 . S
C385 C384 1.386 . S
C385 C389 1.393 . S
C386 H378 0.950 . S
C386 C384 1.391 . S
C386 C387 1.400 . S
C387 C386 1.400 . S
C387 C388 1.398 . S
C387 C393 1.491 1_554 S
C388 H379 0.950 . S
C388 C387 1.398 . S
C388 C389 1.391 . S
C389 H377 0.950 . S
C389 C385 1.393 . S
C389 C388 1.391 . S
C390 H380 0.950 . S
C390 C391 1.386 . S
C390 C392 1.391 . S
C391 C390 1.386 . S
C391 C395 1.393 . S
C392 H381 0.950 . S
C392 C390 1.391 . S
C392 C393 1.400 . S
C393 C387 1.491 1_556 S
C393 C392 1.400 . S
C393 C394 1.398 . S
C394 H382 0.950 . S
C394 C393 1.398 . S
C394 C395 1.391 . S
C395 H383 0.950 . S
C395 C391 1.393 . S
C395 C394 1.391 . S
H396 C404 0.950 . S
H397 C409 0.950 . S
H398 C406 0.950 . S
H399 C408 0.950 . S
H400 C410 0.950 . S
H401 C412 0.950 . S
H402 C414 0.950 . S
H403 C415 0.950 . S
C404 H396 0.950 . S
C404 C405 1.386 . S
C404 C406 1.391 . S
C405 C404 1.386 . S
C405 C409 1.393 . S
C406 H398 0.950 . S
C406 C404 1.391 . S
C406 C407 1.400 . S
C407 C406 1.400 . S
C407 C408 1.398 . S
C407 C413 1.491 1_554 S
C408 H399 0.950 . S
C408 C407 1.398 . S
C408 C409 1.391 . S
C409 H397 0.950 . S
C409 C405 1.393 . S
C409 C408 1.391 . S
C410 H400 0.950 . S
C410 C411 1.386 . S
C410 C412 1.391 . S
C411 C410 1.386 . S
C411 C415 1.393 . S
C412 H401 0.950 . S
C412 C410 1.391 . S
C412 C413 1.400 . S
C413 C407 1.491 1_556 S
C413 C412 1.400 . S
C413 C414 1.398 . S
C414 H402 0.950 . S
C414 C413 1.398 . S
C414 C415 1.391 . S
C415 H403 0.950 . S
C415 C411 1.393 . S
C415 C414 1.391 . S
H416 C424 0.950 . S
H417 C429 0.950 . S
H418 C426 0.950 . S
H419 C428 0.950 . S
H420 C430 0.950 . S
H421 C432 0.950 . S
H422 C434 0.950 . S
H423 C435 0.950 . S
C424 H416 0.950 . S
C424 C425 1.386 . S
C424 C426 1.391 . S
C425 C424 1.386 . S
C425 C429 1.393 . S
C426 H418 0.950 . S
C426 C424 1.391 . S
C426 C427 1.400 . S
C427 C426 1.400 . S
C427 C428 1.398 . S
C427 C433 1.491 . S
C428 H419 0.950 . S
C428 C427 1.398 . S
C428 C429 1.391 . S
C429 H417 0.950 . S
C429 C425 1.393 . S
C429 C428 1.391 . S
C430 H420 0.950 . S
C430 C431 1.386 . S
C430 C432 1.391 . S
C431 C430 1.386 . S
C431 C435 1.393 . S
C432 H421 0.950 . S
C432 C430 1.391 . S
C432 C433 1.400 . S
C433 C427 1.491 . S
C433 C432 1.400 . S
C433 C434 1.398 . S
C434 H422 0.950 . S
C434 C433 1.398 . S
C434 C435 1.391 . S
C435 H423 0.950 . S
C435 C431 1.393 . S
C435 C434 1.391 . S
H436 C444 0.950 . S
H437 C449 0.950 . S
H438 C446 0.950 . S
H439 C448 0.950 . S
H440 C450 0.950 . S
H441 C452 0.950 . S
H442 C454 0.950 . S
H443 C455 0.950 . S
C444 H436 0.950 . S
C444 C445 1.386 . S
C444 C446 1.391 . S
C445 C444 1.386 . S
C445 C449 1.393 . S
C446 H438 0.950 . S
C446 C444 1.391 . S
C446 C447 1.400 . S
C447 C446 1.400 . S
C447 C448 1.398 . S
C447 C453 1.491 . S
C448 H439 0.950 . S
C448 C447 1.398 . S
C448 C449 1.391 . S
C449 H437 0.950 . S
C449 C445 1.393 . S
C449 C448 1.391 . S
C450 H440 0.950 . S
C450 C451 1.386 . S
C450 C452 1.391 . S
C451 C450 1.386 . S
C451 C455 1.393 . S
C452 H441 0.950 . S
C452 C450 1.391 . S
C452 C453 1.400 . S
C453 C447 1.491 . S
C453 C452 1.400 . S
C453 C454 1.398 . S
C454 H442 0.950 . S
C454 C453 1.398 . S
C454 C455 1.391 . S
C455 H443 0.950 . S
C455 C451 1.393 . S
C455 C454 1.391 . S
H456 C464 0.950 . S
H457 C469 0.950 . S
H458 C466 0.950 . S
H459 C468 0.950 . S
H460 C470 0.950 . S
H461 C472 0.950 . S
H462 C474 0.950 . S
H463 C475 0.950 . S
C464 H456 0.950 . S
C464 C465 1.386 . S
C464 C466 1.391 . S
C465 C464 1.386 . S
C465 C469 1.393 . S
C466 H458 0.950 . S
C466 C464 1.391 . S
C466 C467 1.400 . S
C467 C466 1.400 . S
C467 C468 1.398 . S
C467 C473 1.491 1_565 S
C468 H459 0.950 . S
C468 C467 1.398 . S
C468 C469 1.391 . S
C469 H457 0.950 . S
C469 C465 1.393 . S
C469 C468 1.391 . S
C470 H460 0.950 . S
C470 C471 1.386 . S
C470 C472 1.391 . S
C471 C470 1.386 . S
C471 C475 1.393 . S
C472 H461 0.950 . S
C472 C470 1.391 . S
C472 C473 1.400 . S
C473 C467 1.491 1_545 S
C473 C472 1.400 . S
C473 C474 1.398 . S
C474 H462 0.950 . S
C474 C473 1.398 . S
C474 C475 1.391 . S
C475 H463 0.950 . S
C475 C471 1.393 . S
C475 C474 1.391 . S
H476 C484 0.950 . S
H477 C489 0.950 . S
H478 C486 0.950 . S
H479 C488 0.950 . S
H480 C490 0.950 . S
H481 C492 0.950 . S
H482 C494 0.950 . S
H483 C495 0.950 . S
C484 H476 0.950 . S
C484 C485 1.386 . S
C484 C486 1.391 . S
C485 C484 1.386 . S
C485 C489 1.393 . S
C486 H478 0.950 . S
C486 C484 1.391 . S
C486 C487 1.400 . S
C487 C486 1.400 . S
C487 C488 1.398 . S
C487 C493 1.491 1_565 S
C488 H479 0.950 . S
C488 C487 1.398 . S
C488 C489 1.391 . S
C489 H477 0.950 . S
C489 C485 1.393 . S
C489 C488 1.391 . S
C490 H480 0.950 . S
C490 C491 1.386 . S
C490 C492 1.391 . S
C491 C490 1.386 . S
C491 C495 1.393 . S
C492 H481 0.950 . S
C492 C490 1.391 . S
C492 C493 1.400 . S
C493 C487 1.491 1_545 S
C493 C492 1.400 . S
C493 C494 1.398 . S
C494 H482 0.950 . S
C494 C493 1.398 . S
C494 C495 1.391 . S
C495 H483 0.950 . S
C495 C491 1.393 . S
C495 C494 1.391 . S
H496 C504 0.950 . S
H497 C509 0.950 . S
H498 C506 0.950 . S
H499 C508 0.950 . S
H500 C510 0.950 . S
H501 C512 0.950 . S
H502 C514 0.950 . S
H503 C515 0.950 . S
C504 H496 0.950 . S
C504 C505 1.386 . S
C504 C506 1.391 . S
C505 C504 1.386 . S
C505 C509 1.393 . S
C506 H498 0.950 . S
C506 C504 1.391 . S
C506 C507 1.400 . S
C507 C506 1.400 . S
C507 C508 1.398 . S
C507 C513 1.491 . S
C508 H499 0.950 . S
C508 C507 1.398 . S
C508 C509 1.391 . S
C509 H497 0.950 . S
C509 C505 1.393 . S
C509 C508 1.391 . S
C510 H500 0.950 . S
C510 C511 1.386 . S
C510 C512 1.391 . S
C511 C510 1.386 . S
C511 C515 1.393 . S
C512 H501 0.950 . S
C512 C510 1.391 . S
C512 C513 1.400 . S
C513 C507 1.491 . S
C513 C512 1.400 . S
C513 C514 1.398 . S
C514 H502 0.950 . S
C514 C513 1.398 . S
C514 C515 1.391 . S
C515 H503 0.950 . S
C515 C511 1.393 . S
C515 C514 1.391 . S
H516 C524 0.950 . S
H517 C529 0.950 . S
H518 C526 0.950 . S
H519 C528 0.950 . S
H520 C530 0.950 . S
H521 C532 0.950 . S
H522 C534 0.950 . S
H523 C535 0.950 . S
C524 H516 0.950 . S
C524 C525 1.386 . S
C524 C526 1.391 . S
C525 C524 1.386 . S
C525 C529 1.393 . S
C526 H518 0.950 . S
C526 C524 1.391 . S
C526 C527 1.400 . S
C527 C526 1.400 . S
C527 C528 1.398 . S
C527 C533 1.491 . S
C528 H519 0.950 . S
C528 C527 1.398 . S
C528 C529 1.391 . S
C529 H517 0.950 . S
C529 C525 1.393 . S
C529 C528 1.391 . S
C530 H520 0.950 . S
C530 C531 1.386 . S
C530 C532 1.391 . S
C531 C530 1.386 . S
C531 C535 1.393 . S
C532 H521 0.950 . S
C532 C530 1.391 . S
C532 C533 1.400 . S
C533 C527 1.491 . S
C533 C532 1.400 . S
C533 C534 1.398 . S
C534 H522 0.950 . S
C534 C533 1.398 . S
C534 C535 1.391 . S
C535 H523 0.950 . S
C535 C531 1.393 . S
C535 C534 1.391 . S
H536 C544 0.950 . S
H537 C549 0.950 . S
H538 C546 0.950 . S
H539 C548 0.950 . S
H540 C550 0.950 . S
H541 C552 0.950 . S
H542 C554 0.950 . S
H543 C555 0.950 . S
C544 H536 0.950 . S
C544 C545 1.386 . S
C544 C546 1.391 . S
C545 C544 1.386 . S
C545 C549 1.393 . S
C546 H538 0.950 . S
C546 C544 1.391 . S
C546 C547 1.400 . S
C547 C546 1.400 . S
C547 C548 1.398 . S
C547 C553 1.491 . S
C548 H539 0.950 . S
C548 C547 1.398 . S
C548 C549 1.391 . S
C549 H537 0.950 . S
C549 C545 1.393 . S
C549 C548 1.391 . S
C550 H540 0.950 . S
C550 C551 1.386 . S
C550 C552 1.391 . S
C551 C550 1.386 . S
C551 C555 1.393 . S
C552 H541 0.950 . S
C552 C550 1.391 . S
C552 C553 1.400 . S
C553 C547 1.491 . S
C553 C552 1.400 . S
C553 C554 1.398 . S
C554 H542 0.950 . S
C554 C553 1.398 . S
C554 C555 1.391 . S
C555 H543 0.950 . S
C555 C551 1.393 . S
C555 C554 1.391 . S
H556 C564 0.950 . S
H557 C569 0.950 . S
H558 C566 0.950 . S
H559 C568 0.950 . S
H560 C570 0.950 . S
H561 C572 0.950 . S
H562 C574 0.950 . S
H563 C575 0.950 . S
C564 H556 0.950 . S
C564 C565 1.386 . S
C564 C566 1.391 . S
C565 C564 1.386 . S
C565 C569 1.393 . S
C566 H558 0.950 . S
C566 C564 1.391 . S
C566 C567 1.400 . S
C567 C566 1.400 . S
C567 C568 1.398 . S
C567 C573 1.491 . S
C568 H559 0.950 . S
C568 C567 1.398 . S
C568 C569 1.391 . S
C569 H557 0.950 . S
C569 C565 1.393 . S
C569 C568 1.391 . S
C570 H560 0.950 . S
C570 C571 1.386 . S
C570 C572 1.391 . S
C571 C570 1.386 . S
C571 C575 1.393 . S
C572 H561 0.950 . S
C572 C570 1.391 . S
C572 C573 1.400 . S
C573 C567 1.491 . S
C573 C572 1.400 . S
C573 C574 1.398 . S
C574 H562 0.950 . S
C574 C573 1.398 . S
C574 C575 1.391 . S
C575 H563 0.950 . S
C575 C571 1.393 . S
C575 C574 1.391 . S
H576 C584 0.950 . S
H577 C589 0.950 . S
H578 C586 0.950 . S
H579 C588 0.950 . S
H580 C590 0.950 . S
H581 C592 0.950 . S
H582 C594 0.950 . S
H583 C595 0.950 . S
C584 H576 0.950 . S
C584 C585 1.386 . S
C584 C586 1.391 . S
C585 C584 1.386 . S
C585 C589 1.393 . S
C586 H578 0.950 . S
C586 C584 1.391 . S
C586 C587 1.400 . S
C587 C586 1.400 . S
C587 C588 1.398 . S
C587 C593 1.491 1_554 S
C588 H579 0.950 . S
C588 C587 1.398 . S
C588 C589 1.391 . S
C589 H577 0.950 . S
C589 C585 1.393 . S
C589 C588 1.391 . S
C590 H580 0.950 . S
C590 C591 1.386 . S
C590 C592 1.391 . S
C591 C590 1.386 . S
C591 C595 1.393 . S
C592 H581 0.950 . S
C592 C590 1.391 . S
C592 C593 1.400 . S
C593 C587 1.491 1_556 S
C593 C592 1.400 . S
C593 C594 1.398 . S
C594 H582 0.950 . S
C594 C593 1.398 . S
C594 C595 1.391 . S
C595 H583 0.950 . S
C595 C591 1.393 . S
C595 C594 1.391 . S
H596 C604 0.950 . S
H597 C609 0.950 . S
H598 C606 0.950 . S
H599 C608 0.950 . S
H600 C610 0.950 . S
H601 C612 0.950 . S
H602 C614 0.950 . S
H603 C615 0.950 . S
C604 H596 0.950 . S
C604 C605 1.386 . S
C604 C606 1.391 . S
C605 C604 1.386 . S
C605 C609 1.393 . S
C606 H598 0.950 . S
C606 C604 1.391 . S
C606 C607 1.400 . S
C607 C606 1.400 . S
C607 C608 1.398 . S
C607 C613 1.491 1_554 S
C608 H599 0.950 . S
C608 C607 1.398 . S
C608 C609 1.391 . S
C609 H597 0.950 . S
C609 C605 1.393 . S
C609 C608 1.391 . S
C610 H600 0.950 . S
C610 C611 1.386 . S
C610 C612 1.391 . S
C611 C610 1.386 . S
C611 C615 1.393 . S
C612 H601 0.950 . S
C612 C610 1.391 . S
C612 C613 1.400 . S
C613 C607 1.491 1_556 S
C613 C612 1.400 . S
C613 C614 1.398 . S
C614 H602 0.950 . S
C614 C613 1.398 . S
C614 C615 1.391 . S
C615 H603 0.950 . S
C615 C611 1.393 . S
C615 C614 1.391 . S
H616 C624 0.950 . S
H617 C629 0.950 . S
H618 C626 0.950 . S
H619 C628 0.950 . S
H620 C630 0.950 . S
H621 C632 0.950 . S
H622 C634 0.950 . S
H623 C635 0.950 . S
C624 H616 0.950 . S
C624 C625 1.386 . S
C624 C626 1.391 . S
C625 C624 1.386 . S
C625 C629 1.393 . S
C626 H618 0.950 . S
C626 C624 1.391 . S
C626 C627 1.400 . S
C627 C626 1.400 . S
C627 C628 1.398 . S
C627 C633 1.491 1_556 S
C628 H619 0.950 . S
C628 C627 1.398 . S
C628 C629 1.391 . S
C629 H617 0.950 . S
C629 C625 1.393 . S
C629 C628 1.391 . S
C630 H620 0.950 . S
C630 C631 1.386 . S
C630 C632 1.391 . S
C631 C630 1.386 . S
C631 C635 1.393 . S
C632 H621 0.950 . S
C632 C630 1.391 . S
C632 C633 1.400 . S
C633 C627 1.491 1_554 S
C633 C632 1.400 . S
C633 C634 1.398 . S
C634 H622 0.950 . S
C634 C633 1.398 . S
C634 C635 1.391 . S
C635 H623 0.950 . S
C635 C631 1.393 . S
C635 C634 1.391 . S
H636 C644 0.950 . S
H637 C649 0.950 . S
H638 C646 0.950 . S
H639 C648 0.950 . S
H640 C650 0.950 . S
H641 C652 0.950 . S
H642 C654 0.950 . S
H643 C655 0.950 . S
C644 H636 0.950 . S
C644 C645 1.386 . S
C644 C646 1.391 . S
C645 C644 1.386 . S
C645 C649 1.393 . S
C646 H638 0.950 . S
C646 C644 1.391 . S
C646 C647 1.400 . S
C647 C646 1.400 . S
C647 C648 1.398 . S
C647 C653 1.491 1_554 S
C648 H639 0.950 . S
C648 C647 1.398 . S
C648 C649 1.391 . S
C649 H637 0.950 . S
C649 C645 1.393 . S
C649 C648 1.391 . S
C650 H640 0.950 . S
C650 C651 1.386 . S
C650 C652 1.391 . S
C651 C650 1.386 . S
C651 C655 1.393 . S
C652 H641 0.950 . S
C652 C650 1.391 . S
C652 C653 1.400 . S
C653 C647 1.491 1_556 S
C653 C652 1.400 . S
C653 C654 1.398 . S
C654 H642 0.950 . S
C654 C653 1.398 . S
C654 C655 1.391 . S
C655 H643 0.950 . S
C655 C651 1.393 . S
C655 C654 1.391 . S
C185 C175 1.366 . S
C191 C18 1.353 . S
C205 C40 1.357 . S
C211 C153 1.355 . S
C225 C117 1.361 . S
C231 C62 1.351 . S
C245 C74 1.345 . S
C251 C103 1.364 . S
C265 C81 1.369 . S
C271 C106 1.336 . S
C285 C65 1.355 . S
C291 C118 1.345 . S
C305 C37 1.361 . S
C311 C150 1.352 . S
C325 C15 1.366 . S
C331 C172 1.342 . S
C345 C43 1.567 . S
C351 C21 1.569 . S
C365 C73 1.575 . S
C371 C59 1.572 . S
C385 C109 1.566 . S
C391 C125 1.569 . S
C405 C169 1.578 . S
C411 C147 1.573 . S
C425 C84 1.430 . S
C431 C8 1.438 . S
C445 C54 1.433 . S
C451 C30 1.432 . S
C465 C96 1.426 . S
C471 C164 1.441 . S
C485 C120 1.426 . S
C491 C142 1.441 . S
C505 C140 1.816 . S
C511 C10 1.828 . S
C525 C32 1.846 . S
C531 C162 1.835 . S
C545 C98 1.828 . S
C551 C52 1.816 . S
C565 C128 1.835 . S
C571 C76 1.823 . S
C585 C7 0.948 . S
C591 C139 0.951 . S
C605 C161 0.953 . S
C611 C29 0.950 . S
C625 C51 0.922 . S
C631 C95 0.917 . S
C645 C87 0.952 . S
C651 C131 0.950 . S
