# Generated by pormake.
# Topology vcn, (7)-cn, num edge types: 1
# Building blocks:
#     Node 0, Type 0, BuildingBlock: HICVOG_clean_sbu_0, # of connection points: 7
#     Node 1, Type 0, BuildingBlock: HICVOG_clean_sbu_0, # of connection points: 7
#     Node 2, Type 0, BuildingBlock: HICVOG_clean_sbu_0, # of connection points: 7
#     Node 3, Type 0, BuildingBlock: HICVOG_clean_sbu_0, # of connection points: 7
#     Node 4, Type 0, BuildingBlock: HICVOG_clean_sbu_0, # of connection points: 7
#     Node 5, Type 0, BuildingBlock: HICVOG_clean_sbu_0, # of connection points: 7
#     Node 6, Type 0, BuildingBlock: HICVOG_clean_sbu_0, # of connection points: 7
#     Node 7, Type 0, BuildingBlock: HICVOG_clean_sbu_0, # of connection points: 7
#     Edge 8, Type (0, 0), BuildingBlock: UVAHIK_clean_linker_0, # of connection points: 2
#     Edge 9, Type (0, 0), BuildingBlock: UVAHIK_clean_linker_0, # of connection points: 2
#     Edge 10, Type (0, 0), BuildingBlock: UVAHIK_clean_linker_0, # of connection points: 2
#     Edge 11, Type (0, 0), BuildingBlock: UVAHIK_clean_linker_0, # of connection points: 2
#     Edge 12, Type (0, 0), BuildingBlock: UVAHIK_clean_linker_0, # of connection points: 2
#     Edge 13, Type (0, 0), BuildingBlock: UVAHIK_clean_linker_0, # of connection points: 2
#     Edge 14, Type (0, 0), BuildingBlock: UVAHIK_clean_linker_0, # of connection points: 2
#     Edge 15, Type (0, 0), BuildingBlock: UVAHIK_clean_linker_0, # of connection points: 2
#     Edge 16, Type (0, 0), BuildingBlock: UVAHIK_clean_linker_0, # of connection points: 2
#     Edge 17, Type (0, 0), BuildingBlock: UVAHIK_clean_linker_0, # of connection points: 2
#     Edge 18, Type (0, 0), BuildingBlock: UVAHIK_clean_linker_0, # of connection points: 2
#     Edge 19, Type (0, 0), BuildingBlock: UVAHIK_clean_linker_0, # of connection points: 2
#     Edge 20, Type (0, 0), BuildingBlock: UVAHIK_clean_linker_0, # of connection points: 2
#     Edge 21, Type (0, 0), BuildingBlock: UVAHIK_clean_linker_0, # of connection points: 2
#     Edge 22, Type (0, 0), BuildingBlock: UVAHIK_clean_linker_0, # of connection points: 2
#     Edge 23, Type (0, 0), BuildingBlock: UVAHIK_clean_linker_0, # of connection points: 2
#     Edge 24, Type (0, 0), BuildingBlock: UVAHIK_clean_linker_0, # of connection points: 2
#     Edge 25, Type (0, 0), BuildingBlock: UVAHIK_clean_linker_0, # of connection points: 2
#     Edge 26, Type (0, 0), BuildingBlock: UVAHIK_clean_linker_0, # of connection points: 2
#     Edge 27, Type (0, 0), BuildingBlock: UVAHIK_clean_linker_0, # of connection points: 2
#     Edge 28, Type (0, 0), BuildingBlock: UVAHIK_clean_linker_0, # of connection points: 2
#     Edge 29, Type (0, 0), BuildingBlock: UVAHIK_clean_linker_0, # of connection points: 2
#     Edge 30, Type (0, 0), BuildingBlock: UVAHIK_clean_linker_0, # of connection points: 2
#     Edge 31, Type (0, 0), BuildingBlock: UVAHIK_clean_linker_0, # of connection points: 2
#     Edge 32, Type (0, 0), BuildingBlock: UVAHIK_clean_linker_0, # of connection points: 2
#     Edge 33, Type (0, 0), BuildingBlock: UVAHIK_clean_linker_0, # of connection points: 2
#     Edge 34, Type (0, 0), BuildingBlock: UVAHIK_clean_linker_0, # of connection points: 2
#     Edge 35, Type (0, 0), BuildingBlock: UVAHIK_clean_linker_0, # of connection points: 2
# Relax obj value: 0.235
# Max RMSD: 0.223
# Mean RMSD: 0.223
data_MOF--net-vcn--node1-HICVOG_clean_sbu_0--edge1-UVAHIK_clean_linker_0
_symmetry_space_group_name_H-M    P1
_symmetry_Int_Tables_number       1
_symmetry_cell_setting            triclinic
loop_
_symmetry_equiv_pos_as_xyz
'x, y, z'
_cell_length_a     49.142292
_cell_length_b     78.795698
_cell_length_c     18.759705
_cell_angle_alpha  89.997684
_cell_angle_beta   89.944285
_cell_angle_gamma 89.981109
loop_
_atom_site_label
_atom_site_type_symbol
_atom_site_fract_x
_atom_site_fract_y
_atom_site_fract_z
_atom_type_partial_charge
Zn0 Zn 0.10094 0.37895 0.14898 0.0
C1 C 0.05295 0.34379 0.05867 0.0
N2 N 0.05853 0.35233 0.9985 0.0
C3 C 0.07167 0.36613 0.02263 0.0
N4 N 0.07466 0.3659 0.09423 0.0
N5 N 0.06231 0.35196 0.11676 0.0
C6 C 0.0709 0.31967 0.2593 0.0
O7 O 0.09158 0.32998 0.24955 0.0
O8 O 0.10259 0.40278 0.11053 0.0
Zn9 Zn 0.0449 0.34886 0.20811 0.0
N10 N 0.1362 0.36821 0.13592 0.0
C11 C 0.16172 0.34484 0.09109 0.0
C12 C 0.13684 0.35266 0.10449 0.0
C13 C 0.15958 0.37599 0.15723 0.0
N14 N 0.18503 0.35269 0.11118 0.0
C15 C 0.18478 0.36803 0.14456 0.0
O16 O 0.06148 0.36256 0.28715 0.0
C17 C 0.07898 0.3738 0.30323 0.0
O18 O 0.09409 0.38065 0.25607 0.0
H19 H 0.11822 0.34643 0.0888 0.0
H20 H 0.15853 0.38829 0.18282 0.0
C21 C 0.98438 0.34739 0.20722 0.0
C22 C 0.95906 0.35431 0.18677 0.0
C23 C 0.98154 0.37894 0.14406 0.0
C24 C 0.00646 0.3721 0.16403 0.0
N25 N 0.00757 0.35646 0.19441 0.0
N26 N 0.95853 0.36987 0.15543 0.0
H27 H 0.98566 0.33488 0.23083 0.0
C28 C 0.08112 0.41176 0.11246 0.0
O29 O 0.05866 0.40504 0.13779 0.0
O30 O 0.04717 0.32461 0.24186 0.0
H31 H 0.02502 0.37904 0.15408 0.0
H32 H 0.16253 0.3326 0.0651 0.0
H33 H 0.98048 0.3913 0.11909 0.0
Zn34 Zn 0.53663 0.61996 0.64948 0.0
C35 C 0.58477 0.65482 0.55666 0.0
N36 N 0.57845 0.64631 0.49698 0.0
C37 C 0.56497 0.63274 0.52206 0.0
N38 N 0.56259 0.63305 0.59383 0.0
N39 N 0.57558 0.64684 0.61561 0.0
C40 C 0.5679 0.67843 0.76467 0.0
O41 O 0.5472 0.66806 0.75641 0.0
O42 O 0.53506 0.59613 0.61103 0.0
Zn43 Zn 0.59349 0.64969 0.70684 0.0
N44 N 0.50128 0.6306 0.63733 0.0
C45 C 0.47546 0.6538 0.59218 0.0
C46 C 0.50044 0.64609 0.6053 0.0
C47 C 0.47801 0.62281 0.65956 0.0
N48 N 0.45227 0.64593 0.61316 0.0
C49 C 0.45274 0.63068 0.64717 0.0
O50 O 0.57743 0.63572 0.786 0.0
C51 C 0.55968 0.62466 0.80267 0.0
O52 O 0.54393 0.61818 0.75616 0.0
H53 H 0.51897 0.65234 0.58896 0.0
H54 H 0.47922 0.61058 0.68562 0.0
C55 C 0.65389 0.65124 0.7069 0.0
C56 C 0.67932 0.64475 0.68499 0.0
C57 C 0.65722 0.6208 0.63494 0.0
C58 C 0.63217 0.62722 0.65638 0.0
N59 N 0.63083 0.64233 0.69112 0.0
N60 N 0.68012 0.62973 0.6493 0.0
H61 H 0.65243 0.66333 0.73405 0.0
C62 C 0.55673 0.58733 0.61129 0.0
O63 O 0.5793 0.59423 0.63496 0.0
O64 O 0.59134 0.67376 0.74342 0.0
H65 H 0.61372 0.62038 0.64415 0.0
H66 H 0.4745 0.66598 0.56572 0.0
H67 H 0.65847 0.60888 0.60655 0.0
Zn68 Zn 0.04327 0.65067 0.80829 0.0
C69 C 0.06976 0.63376 0.9954 0.0
N70 N 0.05586 0.64734 0.019 0.0
C71 C 0.04982 0.65559 0.95847 0.0
N72 N 0.05964 0.64748 0.90073 0.0
N73 N 0.0727 0.63384 0.92372 0.0
C74 C 0.07983 0.58882 0.92131 0.0
O75 O 0.0562 0.59618 0.9107 0.0
O76 O 0.04533 0.67501 0.7756 0.0
Zn77 Zn 0.0994 0.6209 0.86947 0.0
N78 N 0.00609 0.64258 0.81853 0.0
C79 C 0.98045 0.61929 0.86332 0.0
C80 C 1.00529 0.62667 0.84624 0.0
C81 C 0.9827 0.65143 0.80546 0.0
N82 N 0.95721 0.6281 0.85155 0.0
C83 C 0.95741 0.64396 0.82275 0.0
O84 O 0.09334 0.61917 0.76204 0.0
C85 C 0.07863 0.62613 0.71439 0.0
O86 O 0.06097 0.63731 0.73005 0.0
H87 H 0.02401 0.61989 0.85612 0.0
H88 H 0.9838 0.66416 0.78392 0.0
C89 C 0.15811 0.62391 0.86713 0.0
C90 C 0.18296 0.632 0.882 0.0
C91 C 0.15893 0.65575 0.92744 0.0
C92 C 0.13434 0.64779 0.91209 0.0
N93 N 0.13433 0.63189 0.88378 0.0
N94 N 0.18261 0.64767 0.91239 0.0
H95 H 0.15764 0.61136 0.84373 0.0
C96 C 0.0692 0.68024 0.76119 0.0
O97 O 0.08998 0.67016 0.77357 0.0
O98 O 0.10149 0.59706 0.90814 0.0
H99 H 0.11542 0.65416 0.92405 0.0
H100 H 0.97961 0.6067 0.88616 0.0
H101 H 0.15921 0.66827 0.95113 0.0
Zn102 Zn 0.59502 0.34811 0.3126 0.0
C103 C 0.56625 0.36465 0.49811 0.0
N104 N 0.57957 0.35088 0.52201 0.0
C105 C 0.58631 0.34286 0.46142 0.0
N106 N 0.57748 0.35127 0.40344 0.0
N107 N 0.56437 0.36491 0.42623 0.0
C108 C 0.55842 0.41018 0.42084 0.0
O109 O 0.58193 0.40286 0.40793 0.0
O110 O 0.59159 0.32375 0.27972 0.0
Zn111 Zn 0.53847 0.3781 0.3709 0.0
N112 N 0.63262 0.35512 0.3276 0.0
C113 C 0.65915 0.37646 0.38432 0.0
C114 C 0.63406 0.37007 0.36345 0.0
C115 C 0.65567 0.34636 0.30991 0.0
N116 N 0.68203 0.3677 0.36795 0.0
C117 C 0.68124 0.35285 0.33099 0.0
O118 O 0.54591 0.37988 0.26413 0.0
C119 C 0.56165 0.37344 0.21736 0.0
O120 O 0.57933 0.3623 0.23356 0.0
H121 H 0.61565 0.37686 0.37679 0.0
H122 H 0.65411 0.33442 0.28167 0.0
C123 C 0.47963 0.3755 0.36507 0.0
C124 C 0.45453 0.36763 0.37938 0.0
C125 C 0.47779 0.3439 0.42752 0.0
C126 C 0.50262 0.35164 0.41285 0.0
N127 N 0.50314 0.36742 0.38337 0.0
N128 N 0.45437 0.35208 0.41082 0.0
H129 H 0.48048 0.38797 0.34094 0.0
C130 C 0.56911 0.32026 0.24935 0.0
O131 O 0.55029 0.33206 0.24541 0.0
O132 O 0.53664 0.40191 0.4098 0.0
H133 H 0.52131 0.34518 0.42615 0.0
H134 H 0.66047 0.38826 0.41359 0.0
H135 H 0.4771 0.33148 0.45204 0.0
Zn136 Zn 0.6022 0.87836 0.14353 0.0
C137 C 0.55378 0.84346 0.05287 0.0
N138 N 0.56036 0.85158 0.9924 0.0
C139 C 0.57391 0.86525 0.01646 0.0
N140 N 0.57613 0.86532 0.08826 0.0
N141 N 0.56297 0.85168 0.11091 0.0
C142 C 0.57118 0.82012 0.26192 0.0
O143 O 0.59074 0.83149 0.26328 0.0
O144 O 0.60379 0.9022 0.10524 0.0
Zn145 Zn 0.54552 0.84849 0.20178 0.0
N146 N 0.63748 0.86765 0.13035 0.0
C147 C 0.66271 0.84414 0.08556 0.0
C148 C 0.63792 0.85191 0.10054 0.0
C149 C 0.66104 0.87566 0.1488 0.0
N150 N 0.68617 0.85225 0.1024 0.0
C151 C 0.6861 0.86776 0.13424 0.0
O152 O 0.56156 0.86242 0.28108 0.0
C153 C 0.57934 0.87349 0.29728 0.0
O154 O 0.59498 0.87999 0.25042 0.0
H155 H 0.61919 0.84551 0.08718 0.0
H156 H 0.66025 0.88808 0.17331 0.0
C157 C 0.48503 0.84662 0.20309 0.0
C158 C 0.45949 0.8531 0.18215 0.0
C159 C 0.48128 0.87727 0.13286 0.0
C160 C 0.50643 0.87086 0.1534 0.0
N161 N 0.50799 0.85565 0.18727 0.0
N162 N 0.45849 0.86823 0.14729 0.0
H163 H 0.48666 0.83446 0.2296 0.0
C164 C 0.58201 0.91087 0.103 0.0
O165 O 0.55916 0.90385 0.12425 0.0
O166 O 0.54843 0.82413 0.23424 0.0
H167 H 0.52479 0.87781 0.1412 0.0
H168 H 0.66333 0.83176 0.06073 0.0
H169 H 0.47986 0.88927 0.10515 0.0
Zn170 Zn 0.03764 0.1206 0.64228 0.0
C171 C 0.08689 0.15522 0.55241 0.0
N172 N 0.08051 0.14705 0.49193 0.0
C173 C 0.06672 0.13346 0.51581 0.0
N174 N 0.06412 0.13349 0.58753 0.0
N175 N 0.0773 0.14709 0.61035 0.0
C176 C 0.07085 0.1801 0.7505 0.0
O177 O 0.04917 0.17071 0.73936 0.0
O178 O 0.03604 0.0967 0.60457 0.0
Zn179 Zn 0.09482 0.14984 0.70144 0.0
N180 N 1.00257 0.13141 0.62789 0.0
C181 C 0.97771 0.15512 0.58367 0.0
C182 C 1.00239 0.14726 0.59914 0.0
C183 C 0.97889 0.12338 0.64494 0.0
N184 N 0.95412 0.14699 0.59914 0.0
C185 C 0.95395 0.13137 0.63 0.0
O186 O 0.07745 0.13661 0.78071 0.0
C187 C 0.05935 0.12573 0.79676 0.0
O188 O 0.04406 0.11911 0.74954 0.0
H189 H 0.02123 0.15368 0.58694 0.0
H190 H 0.97949 0.11087 0.66874 0.0
C191 C 0.15521 0.15026 0.70057 0.0
C192 C 0.18028 0.14308 0.67966 0.0
C193 C 0.15698 0.11886 0.63594 0.0
C194 C 0.13229 0.12598 0.65629 0.0
N195 N 0.13172 0.14154 0.68746 0.0
N196 N 0.1803 0.12759 0.64761 0.0
H197 H 0.15433 0.16273 0.72465 0.0
C198 C 0.05703 0.08742 0.61119 0.0
O199 O 0.07889 0.09389 0.64084 0.0
O200 O 0.09414 0.17414 0.73466 0.0
H201 H 0.11349 0.11934 0.64587 0.0
H202 H 0.97729 0.16759 0.55962 0.0
H203 H 0.15762 0.10656 0.61036 0.0
Zn204 Zn 0.54395 0.15005 0.81278 0.0
C205 C 0.57336 0.13336 0.99754 0.0
N206 N 0.55952 0.14677 0.02279 0.0
C207 C 0.55265 0.15512 0.96316 0.0
N208 N 0.56184 0.14721 0.90407 0.0
N209 N 0.57538 0.1336 0.92569 0.0
C210 C 0.5812 0.08829 0.91665 0.0
O211 O 0.55787 0.0956 0.90175 0.0
O212 O 0.54614 0.17413 0.7764 0.0
Zn213 Zn 0.6012 0.12049 0.86964 0.0
N214 N 0.5066 0.14264 0.82833 0.0
C215 C 0.48031 0.12149 0.8872 0.0
C216 C 0.50535 0.12793 0.866 0.0
C217 C 0.48344 0.15109 0.80927 0.0
N218 N 0.45732 0.12996 0.86945 0.0
C219 C 0.45795 0.14457 0.83075 0.0
O220 O 0.59372 0.1187 0.76315 0.0
C221 C 0.57788 0.12513 0.71671 0.0
O222 O 0.56006 0.13614 0.73346 0.0
H223 H 0.52385 0.12141 0.88056 0.0
H224 H 0.48488 0.16285 0.7797 0.0
C225 C 0.65972 0.12331 0.85848 0.0
C226 C 0.68504 0.13115 0.8703 0.0
C227 C 0.66253 0.15431 0.92567 0.0
C228 C 0.6375 0.14662 0.91311 0.0
N229 N 0.63654 0.13114 0.88114 0.0
N230 N 0.68564 0.14641 0.90423 0.0
H231 H 0.6584 0.11107 0.83253 0.0
C232 C 0.56977 0.17886 0.75687 0.0
O233 O 0.59045 0.16856 0.76695 0.0
O234 O 0.60307 0.09664 0.90809 0.0
H235 H 0.61902 0.15289 0.9298 0.0
H236 H 0.47913 0.10989 0.91788 0.0
H237 H 0.6636 0.1665 0.95206 0.0
Zn238 Zn 0.09559 0.8484 0.30735 0.0
C239 C 0.06843 0.8653 0.49395 0.0
N240 N 0.08212 0.85166 0.51775 0.0
C241 C 0.08833 0.84342 0.45728 0.0
N242 N 0.0788 0.85159 0.39939 0.0
N243 N 0.06576 0.86526 0.42222 0.0
C244 C 0.05887 0.91036 0.42009 0.0
O245 O 0.08254 0.903 0.41004 0.0
O246 O 0.09332 0.82409 0.27451 0.0
Zn247 Zn 0.03942 0.87833 0.36743 0.0
N248 N 0.13287 0.85626 0.31876 0.0
C249 C 0.15868 0.87921 0.36586 0.0
C250 C 0.13379 0.87203 0.34798 0.0
C251 C 0.15619 0.8474 0.30497 0.0
N252 N 0.18184 0.87037 0.35335 0.0
C253 C 0.18153 0.85467 0.32306 0.0
O254 O 0.0461 0.88013 0.26035 0.0
C255 C 0.06094 0.87318 0.21289 0.0
O256 O 0.07843 0.8619 0.22871 0.0
H257 H 0.11513 0.87883 0.3584 0.0
H258 H 0.155 0.8348 0.28222 0.0
C259 C 0.98088 0.87522 0.35883 0.0
C260 C 0.95573 0.86716 0.37089 0.0
C261 C 0.97889 0.8439 0.42357 0.0
C262 C 1.00373 0.8518 0.41073 0.0
N263 N 1.00429 0.86744 0.38001 0.0
N264 N 0.95555 0.85174 0.40361 0.0
H265 H 0.98188 0.88757 0.33377 0.0
C266 C 0.06941 0.81893 0.26028 0.0
O267 O 0.04871 0.82907 0.27279 0.0
O268 O 0.03726 0.90214 0.4063 0.0
H269 H 0.02238 0.84558 0.42624 0.0
H270 H 0.15962 0.89167 0.38987 0.0
H271 H 0.97814 0.83158 0.44901 0.0
C272 C 0.4221 0.3791 0.28883 0.0
C273 C 0.42826 0.37544 0.36014 0.0
C274 C 0.39543 0.3832 0.26899 0.0
C275 C 0.32466 0.37738 0.33636 0.0
H276 H 0.30622 0.40186 0.16379 0.0
C277 C 0.214 0.38221 0.23683 0.0
C278 C 0.21098 0.37541 0.16804 0.0
C279 C 0.23987 0.38645 0.26259 0.0
C280 C 0.3111 0.3951 0.21242 0.0
H281 H 0.41223 0.37428 0.46737 0.0
H282 H 0.3662 0.38258 0.4341 0.0
H283 H 0.35312 0.40212 0.20698 0.0
H284 H 0.23227 0.36861 0.07099 0.0
H285 H 0.27729 0.37642 0.1153 0.0
H286 H 0.28259 0.37045 0.3416 0.0
C287 C 0.38139 0.38155 0.39252 0.0
C288 C 0.33802 0.39511 0.23698 0.0
C289 C 0.40785 0.37702 0.41193 0.0
C290 C 0.23404 0.37385 0.1242 0.0
C291 C 0.25977 0.37839 0.14939 0.0
C292 C 0.29775 0.37766 0.31257 0.0
C293 C 0.37448 0.38403 0.32038 0.0
C294 C 0.34535 0.38589 0.29844 0.0
C295 C 0.26305 0.38426 0.21952 0.0
C296 C 0.2908 0.38619 0.24954 0.0
H297 H 0.4375 0.37771 0.24786 0.0
H298 H 0.39107 0.38479 0.21285 0.0
H299 H 0.3293 0.36979 0.38285 0.0
H300 H 0.19663 0.38336 0.2721 0.0
H301 H 0.24188 0.39095 0.31689 0.0
C302 C 0.21572 0.61989 0.79359 0.0
C303 C 0.20947 0.62431 0.86412 0.0
C304 C 0.24245 0.6157 0.77452 0.0
C305 C 0.31315 0.62247 0.84057 0.0
H306 H 0.33179 0.59626 0.67257 0.0
C307 C 0.4238 0.61692 0.7412 0.0
C308 C 0.42668 0.62328 0.67162 0.0
C309 C 0.39799 0.61277 0.76776 0.0
C310 C 0.32685 0.60349 0.71997 0.0
H311 H 0.22543 0.62675 0.97096 0.0
H312 H 0.27159 0.61833 0.93925 0.0
H313 H 0.2849 0.5963 0.71607 0.0
H314 H 0.40526 0.62936 0.57404 0.0
H315 H 0.36035 0.62166 0.61975 0.0
H316 H 0.35517 0.62956 0.8443 0.0
C317 C 0.25641 0.61882 0.89755 0.0
C318 C 0.29993 0.60366 0.74466 0.0
C319 C 0.22988 0.62344 0.9161 0.0
C320 C 0.40358 0.62446 0.62784 0.0
C321 C 0.37792 0.61998 0.65384 0.0
C322 C 0.34007 0.622 0.81673 0.0
C323 C 0.26338 0.61554 0.82597 0.0
C324 C 0.29253 0.61351 0.80435 0.0
C325 C 0.37476 0.61459 0.7247 0.0
C326 C 0.34707 0.61284 0.7553 0.0
H327 H 0.20032 0.6207 0.75244 0.0
H328 H 0.24684 0.6135 0.71875 0.0
H329 H 0.30845 0.63053 0.8856 0.0
H330 H 0.44122 0.61609 0.77638 0.0
H331 H 0.39606 0.60865 0.82262 0.0
C332 C 0.71532 0.65527 0.76829 0.0
C333 C 0.70539 0.65349 0.69864 0.0
C334 C 0.74266 0.65956 0.78002 0.0
C335 C 0.80915 0.65693 0.68513 0.0
H336 H 0.83639 0.6778 0.85793 0.0
C337 C 0.92431 0.6597 0.74457 0.0
C338 C 0.93087 0.65243 0.81074 0.0
C339 C 0.89734 0.66435 0.72933 0.0
C340 C 0.82907 0.67204 0.80918 0.0
H341 H 0.71541 0.65582 0.58684 0.0
H342 H 0.76248 0.66431 0.60678 0.0
H343 H 0.78756 0.67806 0.83338 0.0
H344 H 0.91492 0.64533 0.91417 0.0
H345 H 0.86824 0.65377 0.88836 0.0
H346 H 0.85062 0.65077 0.66144 0.0
C347 C 0.74974 0.66179 0.65269 0.0
C348 C 0.80103 0.67207 0.79525 0.0
C349 C 0.72264 0.65717 0.6411 0.0
C350 C 0.91043 0.65094 0.86278 0.0
C351 C 0.88369 0.65584 0.84807 0.0
C352 C 0.83713 0.6571 0.69863 0.0
C353 C 0.76053 0.66234 0.7222 0.0
C354 C 0.79057 0.66417 0.73373 0.0
C355 C 0.87662 0.66207 0.78042 0.0
C356 C 0.84739 0.66431 0.76154 0.0
H357 H 0.70249 0.65218 0.81346 0.0
H358 H 0.75008 0.65966 0.83431 0.0
H359 H 0.80211 0.65038 0.63793 0.0
H360 H 0.93959 0.6608 0.7032 0.0
H361 H 0.89252 0.66919 0.67681 0.0
C362 C 0.91535 0.34337 0.13895 0.0
C363 C 0.93284 0.34546 0.19732 0.0
C364 C 0.88821 0.33863 0.14913 0.0
C365 C 0.83716 0.32491 0.28722 0.0
H366 H 0.78755 0.34986 0.16539 0.0
C367 C 0.72799 0.34417 0.36658 0.0
C368 C 0.7075 0.34445 0.31437 0.0
C369 C 0.75463 0.33959 0.34908 0.0
C370 C 0.80103 0.34251 0.19905 0.0
H371 H 0.9361 0.34378 0.31199 0.0
H372 H 0.88843 0.33606 0.33063 0.0
H373 H 0.83601 0.35072 0.14129 0.0
H374 H 0.69861 0.3395 0.20331 0.0
H375 H 0.7455 0.33163 0.17216 0.0
H376 H 0.80186 0.31759 0.34732 0.0
C377 C 0.8957 0.33753 0.27651 0.0
C378 C 0.82898 0.34296 0.1852 0.0
C379 C 0.92309 0.34195 0.26605 0.0
C380 C 0.71391 0.3392 0.2448 0.0
C381 C 0.74079 0.33486 0.22691 0.0
C382 C 0.80914 0.32464 0.30155 0.0
C383 C 0.87762 0.33636 0.21826 0.0
C384 C 0.84759 0.33438 0.22964 0.0
C385 C 0.76159 0.33544 0.27855 0.0
C386 C 0.79079 0.33366 0.25824 0.0
H387 H 0.92244 0.34604 0.0854 0.0
H388 H 0.87531 0.33738 0.1027 0.0
H389 H 0.85066 0.31789 0.32198 0.0
H390 H 0.72362 0.34821 0.42061 0.0
H391 H 0.77013 0.34033 0.38999 0.0
C392 C 0.73288 0.87702 0.10221 0.0
C393 C 0.7124 0.87545 0.15382 0.0
C394 C 0.75935 0.88144 0.12191 0.0
C395 C 0.80265 0.89464 0.27814 0.0
H396 H 0.85803 0.86997 0.17326 0.0
C397 C 0.90641 0.87286 0.39095 0.0
C398 C 0.92953 0.87454 0.34742 0.0
C399 C 0.88071 0.87747 0.36573 0.0
C400 C 0.84288 0.87718 0.20238 0.0
H401 H 0.70306 0.87762 0.26608 0.0
H402 H 0.7495 0.88448 0.30158 0.0
H403 H 0.81136 0.86952 0.13163 0.0
H404 H 0.94401 0.88276 0.24385 0.0
H405 H 0.89881 0.89046 0.19897 0.0
H406 H 0.83442 0.90116 0.35179 0.0
C407 C 0.7452 0.88299 0.24538 0.0
C408 C 0.816 0.87702 0.17837 0.0
C409 C 0.71851 0.879 0.22525 0.0
C410 C 0.92659 0.88152 0.2789 0.0
C411 C 0.90075 0.88582 0.25308 0.0
C412 C 0.82954 0.8945 0.30292 0.0
C413 C 0.76621 0.88381 0.19416 0.0
C414 C 0.79533 0.88554 0.21636 0.0
C415 C 0.87752 0.88353 0.29585 0.0
C416 C 0.84982 0.88559 0.2657 0.0
H417 H 0.72854 0.87437 0.04668 0.0
H418 H 0.7746 0.88247 0.08046 0.0
H419 H 0.78757 0.90165 0.30821 0.0
H420 H 0.90811 0.86749 0.44394 0.0
H421 H 0.86313 0.87542 0.39956 0.0
C422 C 0.907 0.12268 0.59686 0.0
C423 C 0.92753 0.12366 0.6485 0.0
C424 C 0.88052 0.11811 0.61601 0.0
C425 C 0.8373 0.10342 0.77023 0.0
H426 H 0.78199 0.12931 0.67073 0.0
C427 C 0.73425 0.12489 0.88853 0.0
C428 C 0.711 0.1237 0.84536 0.0
C429 C 0.75979 0.12027 0.86209 0.0
C430 C 0.79711 0.12176 0.69827 0.0
H431 H 0.93693 0.12029 0.76018 0.0
H432 H 0.89048 0.11319 0.79486 0.0
H433 H 0.82859 0.13001 0.6284 0.0
H434 H 0.69604 0.11633 0.74121 0.0
H435 H 0.74098 0.10865 0.69419 0.0
H436 H 0.8056 0.09631 0.84328 0.0
C437 C 0.89475 0.11525 0.73893 0.0
C438 C 0.82396 0.12206 0.67385 0.0
C439 C 0.92144 0.11938 0.71929 0.0
C440 C 0.71359 0.11719 0.77594 0.0
C441 C 0.73927 0.11289 0.74893 0.0
C442 C 0.81046 0.10341 0.79549 0.0
C443 C 0.87371 0.11501 0.68782 0.0
C444 C 0.8446 0.11311 0.71001 0.0
C445 C 0.76265 0.11472 0.79138 0.0
C446 C 0.79022 0.11277 0.76023 0.0
H447 H 0.91132 0.12587 0.54182 0.0
H448 H 0.86524 0.11755 0.57457 0.0
H449 H 0.85236 0.09607 0.7988 0.0
H450 H 0.7328 0.1299 0.9422 0.0
H451 H 0.7775 0.12196 0.8957 0.0
C452 C 0.21619 0.15544 0.759 0.0
C453 C 0.20675 0.15161 0.69033 0.0
C454 C 0.24359 0.15976 0.76987 0.0
C455 C 0.31069 0.15363 0.68095 0.0
H456 H 0.33723 0.17977 0.84143 0.0
C457 C 0.4255 0.15772 0.74283 0.0
C458 C 0.43162 0.1527 0.81286 0.0
C459 C 0.3987 0.16196 0.72403 0.0
C460 C 0.33011 0.17251 0.79612 0.0
H461 H 0.21771 0.15038 0.5788 0.0
H462 H 0.26486 0.15888 0.5967 0.0
H463 H 0.28856 0.17946 0.81484 0.0
H464 H 0.41505 0.14926 0.9189 0.0
H465 H 0.36865 0.15698 0.88665 0.0
H466 H 0.35218 0.14656 0.6628 0.0
C467 C 0.25171 0.15792 0.64286 0.0
C468 C 0.30216 0.17223 0.78108 0.0
C469 C 0.22457 0.15328 0.63231 0.0
C470 C 0.4109 0.1531 0.86453 0.0
C471 C 0.38433 0.1576 0.8461 0.0
C472 C 0.33859 0.1541 0.69545 0.0
C473 C 0.26197 0.16053 0.71206 0.0
C474 C 0.29195 0.16248 0.72411 0.0
C475 C 0.37769 0.16152 0.77519 0.0
C476 C 0.34859 0.16324 0.75407 0.0
H477 H 0.20291 0.15397 0.8047 0.0
H478 H 0.2506 0.1615 0.82405 0.0
H479 H 0.30383 0.14566 0.63758 0.0
H480 H 0.44099 0.15733 0.70175 0.0
H481 H 0.39421 0.16502 0.66899 0.0
C482 C 0.41621 0.84058 0.13874 0.0
C483 C 0.4335 0.84429 0.1961 0.0
C484 C 0.38908 0.83605 0.15057 0.0
C485 C 0.33771 0.82607 0.29355 0.0
H486 H 0.28832 0.84757 0.16004 0.0
C487 C 0.22852 0.84748 0.3623 0.0
C488 C 0.20803 0.84617 0.31039 0.0
C489 C 0.25521 0.84252 0.3472 0.0
C490 C 0.30174 0.84118 0.19715 0.0
H491 H 0.43641 0.84574 0.31087 0.0
H492 H 0.38877 0.83837 0.33215 0.0
H493 H 0.33682 0.84772 0.13612 0.0
H494 H 0.1992 0.83805 0.20262 0.0
H495 H 0.24618 0.82954 0.17558 0.0
H496 H 0.30232 0.8205 0.35651 0.0
C497 C 0.39619 0.83839 0.27781 0.0
C498 C 0.32972 0.84122 0.18342 0.0
C499 C 0.42356 0.84261 0.26584 0.0
C500 C 0.21451 0.83902 0.24391 0.0
C501 C 0.24143 0.8343 0.2283 0.0
C502 C 0.30968 0.82623 0.30769 0.0
C503 C 0.3783 0.83561 0.22015 0.0
C504 C 0.34824 0.83391 0.23191 0.0
C505 C 0.2622 0.8364 0.2793 0.0
C506 C 0.29141 0.83404 0.26018 0.0
H507 H 0.42343 0.84189 0.08441 0.0
H508 H 0.37631 0.83353 0.10479 0.0
H509 H 0.35113 0.82004 0.33161 0.0
H510 H 0.2241 0.85299 0.41396 0.0
H511 H 0.27069 0.84446 0.38746 0.0
C512 C 0.10604 0.56225 0.94806 0.0
C513 C 0.0811 0.57098 0.94573 0.0
C514 C 0.10693 0.54514 0.96786 0.0
C515 C 0.06803 0.51192 0.06217 0.0
H516 H 0.11123 0.48083 0.94854 0.0
C517 C 0.0577 0.43952 0.09172 0.0
C518 C 0.08165 0.42978 0.09016 0.0
C519 C 0.05827 0.45673 0.07405 0.0
C520 C 0.09934 0.48936 0.98138 0.0
H521 H 0.03765 0.56872 0.96399 0.0
H522 H 0.03924 0.53892 0.99844 0.0
H523 H 0.11146 0.51106 0.92035 0.0
H524 H 0.12494 0.43042 0.06757 0.0
H525 H 0.12599 0.46054 0.03749 0.0
H526 H 0.05592 0.4903 0.12329 0.0
C527 C 0.05811 0.5453 0.98523 0.0
C528 C 0.09947 0.50669 0.96522 0.0
C529 C 0.05719 0.56235 0.96507 0.0
C530 C 0.10612 0.43757 0.06926 0.0
C531 C 0.1067 0.45482 0.05171 0.0
C532 C 0.06796 0.49462 0.07846 0.0
C533 C 0.08295 0.53645 0.98626 0.0
C534 C 0.08367 0.51815 1.00514 0.0
C535 C 0.08281 0.46464 0.05452 0.0
C536 C 0.08344 0.48311 0.03794 0.0
H537 H 0.12484 0.56854 0.93365 0.0
H538 H 0.12642 0.53873 0.96898 0.0
H539 H 0.05597 0.52046 0.09462 0.0
H540 H 0.03846 0.43389 0.1071 0.0
H541 H 0.0394 0.46383 0.07545 0.0
C542 C 0.5324 0.43669 0.44996 0.0
C543 C 0.55737 0.42804 0.44509 0.0
C544 C 0.53162 0.45381 0.46952 0.0
C545 C 0.57147 0.48729 0.55901 0.0
H546 H 0.52608 0.51804 0.44984 0.0
C547 C 0.58055 0.5598 0.58807 0.0
C548 C 0.55636 0.56932 0.58885 0.0
C549 C 0.58017 0.54259 0.57027 0.0
C550 C 0.53861 0.5096 0.48145 0.0
H551 H 0.60103 0.4305 0.45858 0.0
H552 H 0.59965 0.46033 0.49265 0.0
H553 H 0.526 0.4878 0.42187 0.0
H554 H 0.51283 0.56827 0.57032 0.0
H555 H 0.51211 0.53817 0.54008 0.0
H556 H 0.58404 0.50903 0.61877 0.0
C557 C 0.58067 0.45387 0.48159 0.0
C558 C 0.53856 0.49227 0.46541 0.0
C559 C 0.58146 0.43679 0.46166 0.0
C560 C 0.53183 0.56131 0.57017 0.0
C561 C 0.53144 0.54406 0.55251 0.0
C562 C 0.57146 0.5046 0.57522 0.0
C563 C 0.55577 0.46261 0.48513 0.0
C564 C 0.55511 0.48094 0.50374 0.0
C565 C 0.55558 0.53446 0.55298 0.0
C566 C 0.55517 0.51599 0.53634 0.0
H567 H 0.51345 0.4303 0.43774 0.0
H568 H 0.51209 0.46014 0.47264 0.0
H569 H 0.58414 0.47885 0.59024 0.0
H570 H 0.59983 0.56561 0.60169 0.0
H571 H 0.59921 0.53567 0.56984 0.0
C572 C 0.55765 0.0615 0.953 0.0
C573 C 0.58196 0.07033 0.93971 0.0
C574 C 0.55817 0.0443 0.97111 0.0
C575 C 0.60325 0.0101 0.03786 0.0
H576 H 0.5487 0.98075 0.95362 0.0
C577 C 0.60716 0.93695 0.06353 0.0
C578 C 0.58246 0.92884 0.07995 0.0
C579 C 0.60757 0.95414 0.04491 0.0
C580 C 0.56393 0.9888 0.97804 0.0
H581 H 0.62595 0.06812 0.93641 0.0
H582 H 0.62683 0.03805 0.96704 0.0
H583 H 0.54857 0.01097 0.92607 0.0
H584 H 0.53878 0.93234 0.08844 0.0
H585 H 0.53953 0.96227 0.05613 0.0
H586 H 0.61865 0.98785 0.08958 0.0
C587 C 0.60736 0.04445 0.96427 0.0
C588 C 0.56383 0.00613 0.96241 0.0
C589 C 0.60685 0.06168 0.94638 0.0
C590 C 0.55816 0.9382 0.07612 0.0
C591 C 0.55856 0.95534 0.05723 0.0
C592 C 0.6034 0.99274 0.05331 0.0
C593 C 0.583 0.03551 0.97613 0.0
C594 C 0.58338 0.01703 0.99242 0.0
C595 C 0.58328 0.96355 0.04191 0.0
C596 C 0.58366 0.98191 0.02385 0.0
H597 H 0.53814 0.06782 0.94894 0.0
H598 H 0.53906 0.0379 0.98128 0.0
H599 H 0.6184 0.01815 0.0626 0.0
H600 H 0.62624 0.93008 0.06579 0.0
H601 H 0.6269 0.96005 0.03254 0.0
C602 C 0.03263 0.93703 0.44488 0.0
C603 C 0.05749 0.92819 0.44458 0.0
C604 C 0.03167 0.95413 0.46469 0.0
C605 C 0.06945 0.98713 0.56283 0.0
H606 H 0.02868 0.01848 0.44461 0.0
C607 C 0.08026 0.05946 0.59426 0.0
C608 C 0.05658 0.06938 0.58924 0.0
C609 C 0.07973 0.04224 0.57664 0.0
C610 C 0.03987 0.00987 0.47875 0.0
H611 H 0.1007 0.93025 0.46655 0.0
H612 H 0.09897 0.96005 0.50118 0.0
H613 H 0.02849 0.98825 0.41634 0.0
H614 H 0.01382 0.06906 0.56072 0.0
H615 H 0.01279 0.03893 0.53088 0.0
H616 H 0.08078 0.00866 0.62545 0.0
C617 C 0.08023 0.95376 0.48626 0.0
C618 C 0.03976 0.99255 0.46251 0.0
C619 C 0.08123 0.93671 0.46601 0.0
C620 C 0.03243 0.06176 0.56508 0.0
C621 C 0.03187 0.0445 0.54766 0.0
C622 C 0.06947 0.00442 0.57926 0.0
C623 C 0.05549 0.96271 0.48519 0.0
C624 C 0.05471 0.98101 0.50408 0.0
C625 C 0.05547 0.0345 0.5538 0.0
C626 C 0.05486 0.01604 0.53711 0.0
H627 H 0.01396 0.93082 0.42881 0.0
H628 H 0.01225 0.96064 0.46415 0.0
H629 H 0.08084 0.97851 0.5965 0.0
H630 H 0.09926 0.06495 0.61219 0.0
H631 H 0.09841 0.03501 0.58064 0.0
C632 C 0.06699 0.31422 0.08196 0.0
C633 C 0.04721 0.32549 0.0562 0.0
C634 C 0.06701 0.29726 0.06048 0.0
C635 C 0.02923 0.26309 0.97134 0.0
H636 H 0.09871 0.25304 0.88259 0.0
C637 C 0.04295 0.20532 0.7851 0.0
C638 C 0.06807 0.19683 0.78537 0.0
C639 C 0.03969 0.22061 0.82198 0.0
C640 C 0.07932 0.25539 0.90818 0.0
H641 H 0.0114 0.3279 0.99009 0.0
H642 H 0.01097 0.29801 0.95349 0.0
H643 H 0.09289 0.27934 0.94838 0.0
H644 H 0.1095 0.19763 0.82449 0.0
H645 H 0.10369 0.2239 0.89101 0.0
H646 H 0.01571 0.23902 0.93235 0.0
C647 C 0.02627 0.30226 0.991 0.0
C648 C 0.07599 0.27053 0.94582 0.0
C649 C 0.02642 0.3193 0.01208 0.0
C650 C 0.08997 0.20399 0.82271 0.0
C651 C 0.0866 0.21912 0.86069 0.0
C652 C 0.03268 0.24776 0.93466 0.0
C653 C 0.0473 0.29129 0.01248 0.0
C654 C 0.05089 0.27459 0.97738 0.0
C655 C 0.06137 0.22763 0.86112 0.0
C656 C 0.05774 0.24375 0.90196 0.0
H657 H 0.08398 0.31885 0.11305 0.0
H658 H 0.08344 0.28907 0.07782 0.0
H659 H 0.00968 0.26593 0.99528 0.0
H660 H 0.02574 0.20015 0.75629 0.0
H661 H 0.02016 0.22693 0.81941 0.0
C662 C 0.57616 0.68497 0.58639 0.0
C663 C 0.59267 0.6728 0.5532 0.0
C664 C 0.57767 0.70202 0.56642 0.0
C665 C 0.61525 0.73303 0.4515 0.0
H666 H 0.54326 0.75251 0.42948 0.0
C667 C 0.59821 0.80062 0.33946 0.0
C668 C 0.57538 0.80337 0.29587 0.0
C669 C 0.60177 0.78517 0.37473 0.0
C670 C 0.5635 0.74722 0.43458 0.0
H671 H 0.6241 0.66884 0.47422 0.0
H672 H 0.62648 0.69851 0.43782 0.0
H673 H 0.54845 0.72538 0.48899 0.0
H674 H 0.53877 0.79188 0.25334 0.0
H675 H 0.5453 0.7647 0.31346 0.0
H676 H 0.63009 0.75456 0.39379 0.0
C677 C 0.61296 0.69511 0.48112 0.0
C678 C 0.56658 0.73176 0.47009 0.0
C679 C 0.61166 0.67809 0.50195 0.0
C680 C 0.55645 0.7902 0.28708 0.0
C681 C 0.56013 0.77466 0.32195 0.0
C682 C 0.61215 0.74847 0.41549 0.0
C683 C 0.59515 0.70718 0.51102 0.0
C684 C 0.59246 0.72439 0.4787 0.0
C685 C 0.58271 0.77201 0.36684 0.0
C686 C 0.58619 0.7557 0.40605 0.0
H687 H 0.5602 0.68111 0.6226 0.0
H688 H 0.56391 0.71097 0.59138 0.0
H689 H 0.6355 0.72781 0.45747 0.0
H690 H 0.61313 0.81054 0.34769 0.0
H691 H 0.61919 0.7837 0.4095 0.0
C692 C 0.0387 0.7949 0.22749 0.0
C693 C 0.06474 0.80227 0.22619 0.0
C694 C 0.03362 0.77972 0.19133 0.0
C695 C 0.05683 0.75412 0.04098 0.0
H696 H 0.02307 0.71638 0.13962 0.0
C697 C 0.0624 0.6855 0.93835 0.0
C698 C 0.04275 0.67369 0.96005 0.0
C699 C 0.06065 0.70242 0.95992 0.0
C700 C 0.03185 0.72688 0.11034 0.0
H701 H 0.10593 0.79949 0.18642 0.0
H702 H 0.0969 0.77302 0.12215 0.0
H703 H 0.02957 0.74319 0.20159 0.0
H704 H 1.00521 0.67026 0.0183 0.0
H705 H 1.00115 0.70007 0.05326 0.0
H706 H 0.05893 0.73799 0.94942 0.0
C707 C 0.08048 0.77903 0.15135 0.0
C708 C 0.0358 0.74221 0.14633 0.0
C709 C 0.08569 0.79406 0.1886 0.0
C710 C 0.02033 0.67926 0.99986 0.0
C711 C 0.01833 0.69627 0.02079 0.0
C712 C 0.05248 0.73887 1.0045 0.0
C713 C 0.05436 0.77176 0.15211 0.0
C714 C 0.0488 0.75586 0.11246 0.0
C715 C 0.03917 0.7079 1.00402 0.0
C716 C 0.04043 0.7249 0.03912 0.0
H717 H 0.02216 0.80091 0.25615 0.0
H718 H 0.01331 0.77439 0.19274 0.0
H719 H 0.06652 0.76457 0.0133 0.0
H720 H 0.08054 0.68134 0.91058 0.0
H721 H 0.07736 0.71079 0.94669 0.0
C722 C 0.55288 0.2036 0.68533 0.0
C723 C 0.57415 0.19542 0.72172 0.0
C724 C 0.55775 0.21867 0.64791 0.0
C725 C 0.60092 0.25586 0.64463 0.0
H726 H 0.58002 0.26029 0.44623 0.0
C727 C 0.61587 0.3195 0.50479 0.0
C728 C 0.59419 0.32488 0.46202 0.0
C729 C 0.61821 0.30244 0.52439 0.0
C730 C 0.58578 0.25937 0.50177 0.0
H731 H 0.61696 0.1968 0.74907 0.0
H732 H 0.62516 0.22345 0.6858 0.0
H733 H 0.5726 0.23344 0.50842 0.0
H734 H 0.55842 0.31681 0.40425 0.0
H735 H 0.56188 0.28725 0.43929 0.0
H736 H 0.61262 0.28186 0.64043 0.0
C737 C 0.6049 0.21804 0.68527 0.0
C738 C 0.58157 0.24395 0.53722 0.0
C739 C 0.60019 0.2028 0.72137 0.0
C740 C 0.57583 0.31284 0.43545 0.0
C741 C 0.5778 0.29584 0.45613 0.0
C742 C 0.60464 0.27135 0.6098 0.0
C743 C 0.58381 0.22601 0.64758 0.0
C744 C 0.58893 0.24212 0.6091 0.0
C745 C 0.59831 0.29054 0.50363 0.0
C746 C 0.59693 0.27342 0.53793 0.0
H747 H 0.53265 0.19814 0.68439 0.0
H748 H 0.5411 0.22469 0.61977 0.0
H749 H 0.60659 0.25479 0.70026 0.0
H750 H 0.63007 0.32866 0.52648 0.0
H751 H 0.63482 0.2988 0.55904 0.0
C752 C 0.58521 0.70343 0.83371 0.0
C753 C 0.5637 0.69511 0.79897 0.0
C754 C 0.58059 0.71866 0.87018 0.0
C755 C 0.53769 0.75593 0.87258 0.0
H756 H 0.55937 0.76095 0.07015 0.0
C757 C 0.52407 0.82013 0.00968 0.0
C758 C 0.54592 0.82548 0.0519 0.0
C759 C 0.5215 0.80305 0.99056 0.0
C760 C 0.5534 0.75987 0.01481 0.0
H761 H 0.52072 0.69638 0.77345 0.0
H762 H 0.51293 0.72331 0.83502 0.0
H763 H 0.56626 0.73385 0.00947 0.0
H764 H 0.58189 0.81736 0.1087 0.0
H765 H 0.57802 0.78777 0.07462 0.0
H766 H 0.52632 0.78202 0.87545 0.0
C767 C 0.53319 0.71789 0.83504 0.0
C768 C 0.5573 0.74431 0.98025 0.0
C769 C 0.53767 0.70249 0.79995 0.0
C770 C 0.56432 0.81341 0.0781 0.0
C771 C 0.56211 0.79639 0.05796 0.0
C772 C 0.53429 0.77157 0.90652 0.0
C773 C 0.55453 0.72601 0.87113 0.0
C774 C 0.54967 0.74227 0.90868 0.0
C775 C 0.54133 0.79109 0.01131 0.0
C776 C 0.54231 0.77385 0.97803 0.0
H777 H 0.60545 0.69798 0.83409 0.0
H778 H 0.59742 0.7248 0.8971 0.0
H779 H 0.5318 0.75469 0.81718 0.0
H780 H 0.50985 0.82932 0.98822 0.0
H781 H 0.50473 0.79942 0.95645 0.0
C782 C 0.10143 0.29562 0.2931 0.0
C783 C 0.07534 0.30295 0.29302 0.0
C784 C 0.10619 0.2803 0.32849 0.0
C785 C 0.08197 0.2541 0.47537 0.0
H786 H 0.11535 0.21654 0.37458 0.0
C787 C 0.07483 0.18518 0.57342 0.0
C788 C 0.09423 0.17327 0.55108 0.0
C789 C 0.07697 0.20215 0.55284 0.0
C790 C 0.10667 0.22697 0.40449 0.0
H791 H 0.03377 0.29997 0.32968 0.0
H792 H 0.04227 0.27327 0.39283 0.0
H793 H 0.1096 0.24367 0.3146 0.0
H794 H 0.13171 0.16968 0.49272 0.0
H795 H 0.13648 0.19956 0.45958 0.0
H796 H 0.0793 0.23761 0.56566 0.0
C797 C 0.05895 0.27941 0.36519 0.0
C798 C 0.10315 0.24249 0.36962 0.0
C799 C 0.05405 0.29458 0.32861 0.0
C800 C 0.11677 0.17876 0.51156 0.0
C801 C 0.11918 0.19581 0.49169 0.0
C802 C 0.08593 0.23867 0.51078 0.0
C803 C 0.08509 0.27217 0.36563 0.0
C804 C 0.09028 0.25608 0.40423 0.0
C805 C 0.09861 0.20759 0.50917 0.0
C806 C 0.09781 0.22475 0.47535 0.0
H807 H 0.11821 0.30176 0.26596 0.0
H808 H 0.12652 0.27497 0.32805 0.0
H809 H 0.07236 0.2645 0.50357 0.0
H810 H 0.05663 0.1811 0.60111 0.0
H811 H 0.06045 0.21063 0.56659 0.0
C812 C 0.54366 0.30175 0.1646 0.0
C813 C 0.56428 0.30353 0.21597 0.0
C814 C 0.53912 0.28615 0.13136 0.0
C815 C 0.54766 0.24047 0.1548 0.0
H816 H 0.54166 0.23817 0.9487 0.0
C817 C 0.52388 0.17752 0.01724 0.0
C818 C 0.54359 0.17289 0.9667 0.0
C819 C 0.52163 0.19437 0.03979 0.0
C820 C 0.5431 0.23866 1.00629 0.0
H821 H 0.59605 0.29031 0.27369 0.0
H822 H 0.58775 0.26285 0.21624 0.0
H823 H 0.54888 0.26564 1.00699 0.0
H824 H 0.57627 0.18217 0.90018 0.0
H825 H 0.57141 0.21173 0.93611 0.0
H826 H 0.54222 0.21353 0.15431 0.0
C827 C 0.57525 0.27362 0.20152 0.0
C828 C 0.54717 0.25435 0.03963 0.0
C829 C 0.58009 0.28932 0.23409 0.0
C830 C 0.55977 0.18555 0.93561 0.0
C831 C 0.55734 0.20244 0.95748 0.0
C832 C 0.54321 0.22484 0.12161 0.0
C833 C 0.55482 0.27192 0.1495 0.0
C834 C 0.5498 0.25537 0.11418 0.0
C835 C 0.53914 0.20687 0.01224 0.0
C836 C 0.54112 0.22374 0.04697 0.0
H837 H 0.53117 0.31247 0.14931 0.0
H838 H 0.52309 0.28517 0.09196 0.0
H839 H 0.54938 0.24091 0.21234 0.0
H840 H 0.51162 0.1679 0.04316 0.0
H841 H 0.50728 0.19746 0.0817 0.0
C842 C 0.05271 0.70504 0.68949 0.0
C843 C 0.07374 0.6969 0.72696 0.0
C844 C 0.05781 0.72007 0.65203 0.0
C845 C 0.10236 0.75696 0.64609 0.0
H846 H 0.07907 0.76101 0.44937 0.0
C847 C 0.11781 0.81977 0.49855 0.0
C848 C 0.09538 0.82532 0.45888 0.0
C849 C 0.1198 0.80277 0.51969 0.0
C850 C 0.08556 0.76018 0.5044 0.0
H851 H 0.11633 0.69837 0.75651 0.0
H852 H 0.12498 0.72488 0.69273 0.0
H853 H 0.07155 0.73448 0.51371 0.0
H854 H 0.05756 0.81767 0.40978 0.0
H855 H 0.0607 0.78823 0.44628 0.0
H856 H 0.11508 0.78278 0.63887 0.0
C857 C 0.1047 0.7195 0.69158 0.0
C858 C 0.08125 0.74496 0.54114 0.0
C859 C 0.09973 0.70433 0.72795 0.0
C860 C 0.0757 0.81351 0.43747 0.0
C861 C 0.07744 0.7966 0.45925 0.0
C862 C 0.10627 0.77226 0.60984 0.0
C863 C 0.08389 0.72739 0.65246 0.0
C864 C 0.08935 0.74328 0.61256 0.0
C865 C 0.09892 0.79115 0.50327 0.0
C866 C 0.09765 0.77418 0.53867 0.0
H867 H 0.0325 0.69957 0.68755 0.0
H868 H 0.04134 0.72602 0.62292 0.0
H869 H 0.10865 0.75603 0.7013 0.0
H870 H 0.13296 0.82877 0.51676 0.0
H871 H 0.13699 0.79899 0.55205 0.0
C872 C 0.06665 0.38877 0.93329 0.0
C873 C 0.08407 0.37814 0.97221 0.0
C874 C 0.07366 0.39401 0.86437 0.0
C875 C 0.09262 0.40289 0.71305 0.0
H876 H 0.11376 0.36113 0.61854 0.0
C877 C 0.0981 0.3922 0.40177 0.0
C878 C 0.08301 0.37793 0.37984 0.0
C879 C 0.10259 0.39535 0.47456 0.0
C880 C 0.10813 0.37296 0.6441 0.0
H881 H 0.12349 0.36598 0.97259 0.0
H882 H 0.13628 0.37558 0.85371 0.0
H883 H 0.11627 0.36301 0.74762 0.0
H884 H 0.06077 0.35587 0.41768 0.0
H885 H 0.06902 0.36122 0.54332 0.0
H886 H 0.08337 0.41243 0.60834 0.0
C887 C 0.11703 0.37975 0.87578 0.0
C888 C 0.10985 0.37414 0.71818 0.0
C889 C 0.10995 0.37449 0.94462 0.0
C890 C 0.0724 0.36701 0.43229 0.0
C891 C 0.07726 0.37 0.50445 0.0
C892 C 0.09121 0.40176 0.63841 0.0
C893 C 0.09818 0.38855 0.83305 0.0
C894 C 0.10137 0.38892 0.75395 0.0
C895 C 0.09256 0.38409 0.52644 0.0
C896 C 0.0981 0.38656 0.60357 0.0
H897 H 0.04635 0.39144 0.95291 0.0
H898 H 0.05859 0.40074 0.83318 0.0
H899 H 0.08601 0.41447 0.73889 0.0
H900 H 0.10652 0.40087 0.36276 0.0
H901 H 0.11444 0.40632 0.49022 0.0
C902 C 0.52671 0.62512 0.44326 0.0
C903 C 0.55202 0.62078 0.47249 0.0
C904 C 0.51987 0.61994 0.37422 0.0
C905 C 0.52908 0.62524 0.21727 0.0
H906 H 0.55299 0.58604 0.10898 0.0
C907 C 0.56772 0.63095 0.93165 0.0
C908 C 0.55596 0.62047 0.87937 0.0
C909 C 0.56284 0.62808 1.00392 0.0
C910 C 0.5459 0.59698 0.13863 0.0
H911 H 0.58882 0.60629 0.45593 0.0
H912 H 0.57698 0.59714 0.33574 0.0
H913 H 0.54936 0.5842 0.2395 0.0
H914 H 0.53048 0.59834 0.86276 0.0
H915 H 0.5225 0.59308 0.99033 0.0
H916 H 0.52689 0.63826 0.11734 0.0
C917 C 0.56216 0.60436 0.36585 0.0
C918 C 0.54391 0.59596 0.21323 0.0
C919 C 0.56892 0.60951 0.43506 0.0
C920 C 0.53981 0.60667 0.9016 0.0
C921 C 0.53528 0.60363 0.97447 0.0
C922 C 0.53138 0.6263 0.14327 0.0
C923 C 0.53843 0.61053 0.33286 0.0
C924 C 0.536 0.61022 0.25358 0.0
C925 C 0.54636 0.61452 0.02617 0.0
C926 C 0.54047 0.61234 0.10331 0.0
H927 H 0.51362 0.63413 0.47004 0.0
H928 H 0.50119 0.62465 0.35086 0.0
H929 H 0.52338 0.63658 0.2463 0.0
H930 H 0.58021 0.64172 0.91684 0.0
H931 H 0.57189 0.63656 0.04267 0.0
C932 C 0.10853 0.62581 0.07261 0.0
C933 C 0.08255 0.62202 0.04626 0.0
C934 C 0.11611 0.6206 0.14111 0.0
C935 C 0.11007 0.62603 0.29922 0.0
H936 H 0.08394 0.58775 0.40973 0.0
C937 C 0.07297 0.63321 0.58538 0.0
C938 C 0.08318 0.62215 0.63782 0.0
C939 C 0.07805 0.63028 0.51329 0.0
C940 C 0.09171 0.59841 0.37948 0.0
H941 H 0.0451 0.60857 0.06749 0.0
H942 H 0.05821 0.59935 0.18656 0.0
H943 H 0.08613 0.58571 0.27916 0.0
H944 H 0.1063 0.59906 0.65495 0.0
H945 H 0.11463 0.5937 0.52753 0.0
H946 H 0.11437 0.63901 0.39876 0.0
C947 C 0.073 0.60614 0.15466 0.0
C948 C 0.09286 0.59728 0.30482 0.0
C949 C 0.06548 0.61136 0.08614 0.0
C950 C 0.09819 0.60783 0.61594 0.0
C951 C 0.10291 0.60474 0.54318 0.0
C952 C 0.10865 0.62719 0.37336 0.0
C953 C 0.09766 0.61169 0.18474 0.0
C954 C 0.1014 0.61126 0.26367 0.0
C955 C 0.09319 0.6161 0.49131 0.0
C956 C 0.09871 0.6136 0.41414 0.0
H957 H 0.12179 0.63436 0.04391 0.0
H958 H 0.13546 0.62484 0.1622 0.0
H959 H 0.11636 0.63716 0.26963 0.0
H960 H 0.0614 0.64439 0.59997 0.0
H961 H 0.07002 0.63913 0.47444 0.0
C962 C 0.57009 0.38777 0.58566 0.0
C963 C 0.5533 0.37642 0.5485 0.0
C964 C 0.5632 0.39303 0.65465 0.0
C965 C 0.54481 0.40171 0.80673 0.0
H966 H 0.52805 0.35958 0.90427 0.0
C967 C 0.54147 0.39139 0.11878 0.0
C968 C 0.55781 0.37765 0.14075 0.0
C969 C 0.53671 0.39437 0.04599 0.0
C970 C 0.53246 0.3715 0.87787 0.0
H971 H 0.51503 0.36293 0.55115 0.0
H972 H 0.50239 0.37256 0.67015 0.0
H973 H 0.5244 0.361 0.77532 0.0
H974 H 0.58219 0.35647 0.10291 0.0
H975 H 0.57349 0.36153 0.97728 0.0
H976 H 0.55401 0.41184 0.91051 0.0
C977 C 0.52106 0.37729 0.64669 0.0
C978 C 0.53007 0.37241 0.80388 0.0
C979 C 0.52803 0.372 0.57784 0.0
C980 C 0.56956 0.36719 0.0883 0.0
C981 C 0.56446 0.37 0.01615 0.0
C982 C 0.5469 0.40084 0.88132 0.0
C983 C 0.53947 0.38686 0.68774 0.0
C984 C 0.53695 0.38736 0.76698 0.0
C985 C 0.54776 0.38347 0.99418 0.0
C986 C 0.54158 0.38553 0.9172 0.0
H987 H 0.58996 0.39104 0.56469 0.0
H988 H 0.57792 0.40037 0.68453 0.0
H989 H 0.5502 0.41342 0.77999 0.0
H990 H 0.53215 0.3997 0.15776 0.0
H991 H 0.52377 0.40485 0.03031 0.0
C992 C 0.61228 0.87252 0.93716 0.0
C993 C 0.58698 0.87699 0.96618 0.0
C994 C 0.61937 0.87774 0.86832 0.0
C995 C 0.61062 0.8727 0.7112 0.0
H996 H 0.58683 0.912 0.60347 0.0
C997 C 0.57165 0.86715 0.42635 0.0
C998 C 0.58328 0.87766 0.37389 0.0
C999 C 0.57671 0.87 0.4985 0.0
C1000 C 0.5939 0.90104 0.63296 0.0
H1001 H 0.55041 0.89168 0.94951 0.0
H1002 H 0.56263 0.90087 0.82957 0.0
H1003 H 0.59043 0.91374 0.73398 0.0
H1004 H 0.60872 0.89979 0.35682 0.0
H1005 H 0.61703 0.905 0.48425 0.0
H1006 H 0.61283 0.85975 0.61111 0.0
C1007 C 0.57729 0.89354 0.85971 0.0
C1008 C 0.59587 0.902 0.70755 0.0
C1009 C 0.5703 0.88836 0.92874 0.0
C1010 C 0.59949 0.89144 0.39582 0.0
C1011 C 0.60421 0.89446 0.4686 0.0
C1012 C 0.60836 0.87171 0.6372 0.0
C1013 C 0.60104 0.8873 0.82693 0.0
C1014 C 0.60368 0.8877 0.7477 0.0
C1015 C 0.59325 0.88354 0.52045 0.0
C1016 C 0.59929 0.88569 0.59747 0.0
H1017 H 0.62521 0.86344 0.96403 0.0
H1018 H 0.63807 0.87297 0.84513 0.0
H1019 H 0.61626 0.86133 0.74005 0.0
H1020 H 0.55912 0.8564 0.41176 0.0
H1021 H 0.56774 0.8615 0.53739 0.0
C1022 C 0.07037 0.11069 0.42655 0.0
C1023 C 0.05362 0.12178 0.46535 0.0
C1024 C 0.06304 0.10557 0.35774 0.0
C1025 C 0.04366 0.09709 0.20656 0.0
H1026 H 0.02481 0.13924 0.11185 0.0
C1027 C 0.03914 0.10778 0.8953 0.0
C1028 C 0.05494 0.12176 0.87337 0.0
C1029 C 0.03439 0.10475 0.96808 0.0
C1030 C 0.02979 0.12731 0.13747 0.0
H1031 H 0.01504 0.13493 0.46561 0.0
H1032 H 1.00161 0.1255 0.34711 0.0
H1033 H 0.02218 0.13747 0.24091 0.0
H1034 H 0.07817 0.14341 0.91114 0.0
H1035 H 0.06947 0.13828 0.03677 0.0
H1036 H 0.05245 0.08734 0.1019 0.0
C1037 C 0.02059 0.12089 0.36913 0.0
C1038 C 0.028 0.1262 0.21154 0.0
C1039 C 0.02802 0.12605 0.43778 0.0
C1040 C 0.06597 0.1325 0.92578 0.0
C1041 C 0.06086 0.12964 0.99791 0.0
C1042 C 0.04517 0.09817 0.13192 0.0
C1043 C 0.03888 0.1116 0.32646 0.0
C1044 C 0.03566 0.11125 0.24739 0.0
C1045 C 0.04487 0.11584 0.01991 0.0
C1046 C 0.03912 0.1135 0.09702 0.0
H1047 H 0.09048 0.10753 0.44615 0.0
H1048 H 0.07768 0.09846 0.32658 0.0
H1049 H 0.04962 0.08539 0.23245 0.0
H1050 H 0.0304 0.09924 0.85632 0.0
H1051 H 0.022 0.094 0.98376 0.0
C1052 C 0.56994 0.11002 0.08405 0.0
C1053 C 0.58659 0.12148 0.04696 0.0
C1054 C 0.57671 0.10489 0.15328 0.0
C1055 C 0.59484 0.09664 0.30612 0.0
H1056 H 0.61036 0.1391 0.40243 0.0
C1057 C 0.59813 0.1073 0.61779 0.0
C1058 C 0.58164 0.12095 0.64 0.0
C1059 C 0.60277 0.10431 0.54494 0.0
C1060 C 0.60628 0.1271 0.37638 0.0
H1061 H 0.6246 0.13524 0.05006 0.0
H1062 H 0.63706 0.12582 0.16932 0.0
H1063 H 0.61423 0.13749 0.27353 0.0
H1064 H 0.55685 0.14197 0.60253 0.0
H1065 H 0.56536 0.13691 0.47669 0.0
H1066 H 0.58582 0.08659 0.41019 0.0
C1067 C 0.61857 0.12092 0.14564 0.0
C1068 C 0.6088 0.12608 0.30243 0.0
C1069 C 0.61172 0.12607 0.07656 0.0
C1070 C 0.56962 0.13132 0.58772 0.0
C1071 C 0.57461 0.1285 0.51546 0.0
C1072 C 0.59263 0.09762 0.38069 0.0
C1073 C 0.60019 0.11129 0.18665 0.0
C1074 C 0.60243 0.11099 0.26596 0.0
C1075 C 0.59145 0.11512 0.49324 0.0
C1076 C 0.59752 0.11304 0.41614 0.0
H1077 H 0.55017 0.1066 0.06292 0.0
H1078 H 0.56203 0.09749 0.18311 0.0
H1079 H 0.58982 0.08483 0.27972 0.0
H1080 H 0.60766 0.09906 0.65663 0.0
H1081 H 0.61583 0.0939 0.5291 0.0
C1082 C 0.07283 0.88789 0.58372 0.0
C1083 C 0.05571 0.87712 0.54462 0.0
C1084 C 0.06554 0.89315 0.65239 0.0
C1085 C 0.04619 0.90201 0.80319 0.0
H1086 H 0.02563 0.8602 0.89809 0.0
C1087 C 0.04138 0.89145 0.11453 0.0
C1088 C 0.05665 0.87724 0.13632 0.0
C1089 C 0.03666 0.89455 0.04179 0.0
C1090 C 0.03109 0.87204 0.87242 0.0
H1091 H 0.01657 0.86463 0.54379 0.0
H1092 H 1.00329 0.87423 0.66233 0.0
H1093 H 0.02314 0.86199 0.76901 0.0
H1094 H 0.07899 0.85522 0.09831 0.0
H1095 H 0.07037 0.86048 0.97279 0.0
H1096 H 0.05532 0.91165 0.90778 0.0
C1097 C 0.02251 0.87853 0.64051 0.0
C1098 C 0.02937 0.87316 0.79833 0.0
C1099 C 0.02986 0.87327 0.57187 0.0
C1100 C 0.0672 0.86632 0.0838 0.0
C1101 C 0.06213 0.86925 0.01172 0.0
C1102 C 0.04762 0.90093 0.87782 0.0
C1103 C 0.04106 0.88753 0.68338 0.0
C1104 C 0.03768 0.88797 0.76242 0.0
C1105 C 0.04666 0.88329 0.98986 0.0
C1106 C 0.04095 0.88571 0.91279 0.0
H1107 H 0.09312 0.89072 0.56438 0.0
H1108 H 0.0804 0.90002 0.6837 0.0
H1109 H 0.05265 0.91361 0.77723 0.0
H1110 H 0.03299 0.90012 0.15359 0.0
H1111 H 0.02469 0.90547 0.02623 0.0
loop_
_geom_bond_atom_site_label_1
_geom_bond_atom_site_label_2
_geom_bond_distance
_geom_bond_site_symmetry_2
_ccdc_geom_bond_type
Zn0 N4 2.020 . S
Zn0 O8 2.019 . S
Zn0 N10 2.119 . S
Zn0 O18 1.975 . S
C1 N2 1.334 1_554 S
C1 N5 1.336 . S
N2 C1 1.334 1_556 S
N2 C3 1.334 1_556 S
C3 N2 1.334 1_554 S
C3 N4 1.336 . S
N4 Zn0 2.020 . S
N4 C3 1.336 . S
N4 N5 1.354 . S
N5 C1 1.336 . S
N5 N4 1.354 . S
N5 Zn9 2.020 . S
C6 O7 1.244 . S
C6 O30 1.257 . S
O7 C6 1.244 . S
O8 Zn0 2.019 . S
O8 C28 1.257 . S
Zn9 N5 2.020 . S
Zn9 O16 1.975 . S
Zn9 N25 2.119 . S
Zn9 O30 2.019 . S
N10 Zn0 2.119 . S
N10 C12 1.334 . S
N10 C13 1.328 . S
C11 C12 1.391 . S
C11 N14 1.329 . S
C11 H32 0.930 . S
C12 N10 1.334 . S
C12 C11 1.391 . S
C12 H19 0.930 . S
C13 N10 1.328 . S
C13 C15 1.392 . S
C13 H20 0.930 . S
N14 C11 1.329 . S
N14 C15 1.331 . S
C15 C13 1.392 . S
C15 N14 1.331 . S
O16 Zn9 1.975 . S
O16 C17 1.252 . S
C17 O16 1.252 . S
C17 O18 1.252 . S
O18 Zn0 1.975 . S
O18 C17 1.252 . S
H19 C12 0.930 . S
H20 C13 0.930 . S
C21 C22 1.392 1_455 S
C21 N25 1.328 . S
C21 H27 0.930 . S
C22 C21 1.392 1_655 S
C22 N26 1.331 . S
C23 C24 1.395 . S
C23 N26 1.325 1_455 S
C23 H33 0.930 1_455 S
C24 C23 1.395 . S
C24 N25 1.334 . S
C24 H31 0.930 . S
N25 Zn9 2.119 . S
N25 C21 1.328 . S
N25 C24 1.334 . S
N26 C22 1.331 . S
N26 C23 1.325 1_655 S
H27 C21 0.930 . S
C28 O8 1.257 . S
C28 O29 1.244 . S
O29 C28 1.244 . S
O30 C6 1.257 . S
O30 Zn9 2.019 . S
H31 C24 0.930 . S
H32 C11 0.930 . S
H33 C23 0.930 1_655 S
Zn34 N38 2.020 . S
Zn34 O42 2.019 . S
Zn34 N44 2.119 . S
Zn34 O52 1.975 . S
C35 N36 1.334 . S
C35 N39 1.336 . S
N36 C35 1.334 . S
N36 C37 1.334 . S
C37 N36 1.334 . S
C37 N38 1.336 . S
N38 Zn34 2.020 . S
N38 C37 1.336 . S
N38 N39 1.354 . S
N39 C35 1.336 . S
N39 N38 1.354 . S
N39 Zn43 2.020 . S
C40 O41 1.244 . S
C40 O64 1.257 . S
O41 C40 1.244 . S
O42 Zn34 2.019 . S
O42 C62 1.257 . S
Zn43 N39 2.020 . S
Zn43 O50 1.975 . S
Zn43 N59 2.119 . S
Zn43 O64 2.019 . S
N44 Zn34 2.119 . S
N44 C46 1.334 . S
N44 C47 1.328 . S
C45 C46 1.391 . S
C45 N48 1.329 . S
C45 H66 0.930 . S
C46 N44 1.334 . S
C46 C45 1.391 . S
C46 H53 0.930 . S
C47 N44 1.328 . S
C47 C49 1.392 . S
C47 H54 0.930 . S
N48 C45 1.329 . S
N48 C49 1.331 . S
C49 C47 1.392 . S
C49 N48 1.331 . S
O50 Zn43 1.975 . S
O50 C51 1.252 . S
C51 O50 1.252 . S
C51 O52 1.252 . S
O52 Zn34 1.975 . S
O52 C51 1.252 . S
H53 C46 0.930 . S
H54 C47 0.930 . S
C55 C56 1.392 . S
C55 N59 1.328 . S
C55 H61 0.930 . S
C56 C55 1.392 . S
C56 N60 1.331 . S
C57 C58 1.391 . S
C57 N60 1.329 . S
C57 H67 0.930 . S
C58 C57 1.391 . S
C58 N59 1.334 . S
C58 H65 0.930 . S
N59 Zn43 2.119 . S
N59 C55 1.328 . S
N59 C58 1.334 . S
N60 C56 1.331 . S
N60 C57 1.329 . S
H61 C55 0.930 . S
C62 O42 1.257 . S
C62 O63 1.244 . S
O63 C62 1.244 . S
O64 C40 1.257 . S
O64 Zn43 2.019 . S
H65 C58 0.930 . S
H66 C45 0.930 . S
H67 C57 0.930 . S
Zn68 N72 2.020 . S
Zn68 O76 2.019 . S
Zn68 N78 2.119 . S
Zn68 O86 1.975 . S
C69 N70 1.334 1_556 S
C69 N73 1.336 . S
N70 C69 1.334 1_554 S
N70 C71 1.334 1_554 S
C71 N70 1.334 1_556 S
C71 N72 1.336 . S
N72 Zn68 2.020 . S
N72 C71 1.336 . S
N72 N73 1.354 . S
N73 C69 1.336 . S
N73 N72 1.354 . S
N73 Zn77 2.020 . S
C74 O75 1.244 . S
C74 O98 1.257 . S
O75 C74 1.244 . S
O76 Zn68 2.019 . S
O76 C96 1.257 . S
Zn77 N73 2.020 . S
Zn77 O84 1.975 . S
Zn77 N93 2.119 . S
Zn77 O98 2.019 . S
N78 Zn68 2.119 . S
N78 C80 1.334 . S
N78 C81 1.328 . S
C79 C80 1.395 . S
C79 N82 1.325 1_455 S
C79 H100 0.930 1_455 S
C80 N78 1.334 . S
C80 C79 1.395 . S
C80 H87 0.930 . S
C81 N78 1.328 . S
C81 C83 1.392 1_455 S
C81 H88 0.930 . S
N82 C79 1.325 1_655 S
N82 C83 1.331 . S
C83 C81 1.392 1_655 S
C83 N82 1.331 . S
O84 Zn77 1.975 . S
O84 C85 1.252 . S
C85 O84 1.252 . S
C85 O86 1.252 . S
O86 Zn68 1.975 . S
O86 C85 1.252 . S
H87 C80 0.930 . S
H88 C81 0.930 . S
C89 C90 1.392 . S
C89 N93 1.328 . S
C89 H95 0.930 . S
C90 C89 1.392 . S
C90 N94 1.331 . S
C91 C92 1.391 . S
C91 N94 1.329 . S
C91 H101 0.930 . S
C92 C91 1.391 . S
C92 N93 1.334 . S
C92 H99 0.930 . S
N93 Zn77 2.119 . S
N93 C89 1.328 . S
N93 C92 1.334 . S
N94 C90 1.331 . S
N94 C91 1.329 . S
H95 C89 0.930 . S
C96 O76 1.257 . S
C96 O97 1.244 . S
O97 C96 1.244 . S
O98 C74 1.257 . S
O98 Zn77 2.019 . S
H99 C92 0.930 . S
H100 C79 0.930 1_655 S
H101 C91 0.930 . S
Zn102 N106 2.020 . S
Zn102 O110 2.019 . S
Zn102 N112 2.119 . S
Zn102 O120 1.975 . S
C103 N104 1.334 . S
C103 N107 1.336 . S
N104 C103 1.334 . S
N104 C105 1.334 . S
C105 N104 1.334 . S
C105 N106 1.336 . S
N106 Zn102 2.020 . S
N106 C105 1.336 . S
N106 N107 1.354 . S
N107 C103 1.336 . S
N107 N106 1.354 . S
N107 Zn111 2.020 . S
C108 O109 1.244 . S
C108 O132 1.257 . S
O109 C108 1.244 . S
O110 Zn102 2.019 . S
O110 C130 1.257 . S
Zn111 N107 2.020 . S
Zn111 O118 1.975 . S
Zn111 N127 2.119 . S
Zn111 O132 2.019 . S
N112 Zn102 2.119 . S
N112 C114 1.334 . S
N112 C115 1.328 . S
C113 C114 1.391 . S
C113 N116 1.329 . S
C113 H134 0.930 . S
C114 N112 1.334 . S
C114 C113 1.391 . S
C114 H121 0.930 . S
C115 N112 1.328 . S
C115 C117 1.392 . S
C115 H122 0.930 . S
N116 C113 1.329 . S
N116 C117 1.331 . S
C117 C115 1.392 . S
C117 N116 1.331 . S
O118 Zn111 1.975 . S
O118 C119 1.252 . S
C119 O118 1.252 . S
C119 O120 1.252 . S
O120 Zn102 1.975 . S
O120 C119 1.252 . S
H121 C114 0.930 . S
H122 C115 0.930 . S
C123 C124 1.392 . S
C123 N127 1.328 . S
C123 H129 0.930 . S
C124 C123 1.392 . S
C124 N128 1.331 . S
C125 C126 1.391 . S
C125 N128 1.329 . S
C125 H135 0.930 . S
C126 C125 1.391 . S
C126 N127 1.334 . S
C126 H133 0.930 . S
N127 Zn111 2.119 . S
N127 C123 1.328 . S
N127 C126 1.334 . S
N128 C124 1.331 . S
N128 C125 1.329 . S
H129 C123 0.930 . S
C130 O110 1.257 . S
C130 O131 1.244 . S
O131 C130 1.244 . S
O132 C108 1.257 . S
O132 Zn111 2.019 . S
H133 C126 0.930 . S
H134 C113 0.930 . S
H135 C125 0.930 . S
Zn136 N140 2.020 . S
Zn136 O144 2.019 . S
Zn136 N146 2.119 . S
Zn136 O154 1.975 . S
C137 N138 1.334 1_554 S
C137 N141 1.336 . S
N138 C137 1.334 1_556 S
N138 C139 1.334 1_556 S
C139 N138 1.334 1_554 S
C139 N140 1.336 . S
N140 Zn136 2.020 . S
N140 C139 1.336 . S
N140 N141 1.354 . S
N141 C137 1.336 . S
N141 N140 1.354 . S
N141 Zn145 2.020 . S
C142 O143 1.244 . S
C142 O166 1.257 . S
O143 C142 1.244 . S
O144 Zn136 2.019 . S
O144 C164 1.257 . S
Zn145 N141 2.020 . S
Zn145 O152 1.975 . S
Zn145 N161 2.119 . S
Zn145 O166 2.019 . S
N146 Zn136 2.119 . S
N146 C148 1.334 . S
N146 C149 1.328 . S
C147 C148 1.391 . S
C147 N150 1.329 . S
C147 H168 0.930 . S
C148 N146 1.334 . S
C148 C147 1.391 . S
C148 H155 0.930 . S
C149 N146 1.328 . S
C149 C151 1.392 . S
C149 H156 0.930 . S
N150 C147 1.329 . S
N150 C151 1.331 . S
C151 C149 1.392 . S
C151 N150 1.331 . S
O152 Zn145 1.975 . S
O152 C153 1.252 . S
C153 O152 1.252 . S
C153 O154 1.252 . S
O154 Zn136 1.975 . S
O154 C153 1.252 . S
H155 C148 0.930 . S
H156 C149 0.930 . S
C157 C158 1.392 . S
C157 N161 1.328 . S
C157 H163 0.930 . S
C158 C157 1.392 . S
C158 N162 1.331 . S
C159 C160 1.391 . S
C159 N162 1.329 . S
C159 H169 0.930 . S
C160 C159 1.391 . S
C160 N161 1.334 . S
C160 H167 0.930 . S
N161 Zn145 2.119 . S
N161 C157 1.328 . S
N161 C160 1.334 . S
N162 C158 1.331 . S
N162 C159 1.329 . S
H163 C157 0.930 . S
C164 O144 1.257 . S
C164 O165 1.244 . S
O165 C164 1.244 . S
O166 C142 1.257 . S
O166 Zn145 2.019 . S
H167 C160 0.930 . S
H168 C147 0.930 . S
H169 C159 0.930 . S
Zn170 N174 2.020 . S
Zn170 O178 2.020 1_455 S
Zn170 N180 2.119 1_455 S
Zn170 O188 1.975 . S
C171 N172 1.334 . S
C171 N175 1.336 . S
N172 C171 1.334 . S
N172 C173 1.334 . S
C173 N172 1.334 . S
C173 N174 1.336 . S
N174 Zn170 2.020 . S
N174 C173 1.336 . S
N174 N175 1.354 . S
N175 C171 1.336 . S
N175 N174 1.354 . S
N175 Zn179 2.020 . S
C176 O177 1.244 . S
C176 O200 1.257 . S
O177 C176 1.244 . S
O178 Zn170 2.020 1_655 S
O178 C198 1.260 1_655 S
Zn179 N175 2.020 . S
Zn179 O186 1.975 . S
Zn179 N195 2.119 . S
Zn179 O200 2.019 . S
N180 Zn170 2.119 1_655 S
N180 C182 1.334 . S
N180 C183 1.328 . S
C181 C182 1.391 . S
C181 N184 1.329 . S
C181 H202 0.930 . S
C182 N180 1.334 . S
C182 C181 1.391 . S
C182 H189 0.930 . S
C183 N180 1.328 . S
C183 C185 1.392 . S
C183 H190 0.930 . S
N184 C181 1.329 . S
N184 C185 1.331 . S
C185 C183 1.392 . S
C185 N184 1.331 . S
O186 Zn179 1.975 . S
O186 C187 1.252 . S
C187 O186 1.252 . S
C187 O188 1.252 . S
O188 Zn170 1.975 . S
O188 C187 1.252 . S
H189 C182 0.930 . S
H190 C183 0.930 . S
C191 C192 1.392 . S
C191 N195 1.328 . S
C191 H197 0.930 . S
C192 C191 1.392 . S
C192 N196 1.331 . S
C193 C194 1.391 . S
C193 N196 1.329 . S
C193 H203 0.930 . S
C194 C193 1.391 . S
C194 N195 1.334 . S
C194 H201 0.930 . S
N195 Zn179 2.119 . S
N195 C191 1.328 . S
N195 C194 1.334 . S
N196 C192 1.331 . S
N196 C193 1.329 . S
H197 C191 0.930 . S
C198 O178 1.260 1_455 S
C198 O199 1.244 . S
O199 C198 1.244 . S
O200 C176 1.257 . S
O200 Zn179 2.019 . S
H201 C194 0.930 . S
H202 C181 0.930 . S
H203 C193 0.930 . S
Zn204 N208 2.020 . S
Zn204 O212 2.019 . S
Zn204 N214 2.119 . S
Zn204 O222 1.975 . S
C205 N206 1.334 1_556 S
C205 N209 1.336 . S
N206 C205 1.334 1_554 S
N206 C207 1.334 1_554 S
C207 N206 1.334 1_556 S
C207 N208 1.336 . S
N208 Zn204 2.020 . S
N208 C207 1.336 . S
N208 N209 1.354 . S
N209 C205 1.336 . S
N209 N208 1.354 . S
N209 Zn213 2.020 . S
C210 O211 1.244 . S
C210 O234 1.257 . S
O211 C210 1.244 . S
O212 Zn204 2.019 . S
O212 C232 1.257 . S
Zn213 N209 2.020 . S
Zn213 O220 1.975 . S
Zn213 N229 2.119 . S
Zn213 O234 2.019 . S
N214 Zn204 2.119 . S
N214 C216 1.334 . S
N214 C217 1.328 . S
C215 C216 1.391 . S
C215 N218 1.329 . S
C215 H236 0.930 . S
C216 N214 1.334 . S
C216 C215 1.391 . S
C216 H223 0.930 . S
C217 N214 1.328 . S
C217 C219 1.392 . S
C217 H224 0.930 . S
N218 C215 1.329 . S
N218 C219 1.331 . S
C219 C217 1.392 . S
C219 N218 1.331 . S
O220 Zn213 1.975 . S
O220 C221 1.252 . S
C221 O220 1.252 . S
C221 O222 1.252 . S
O222 Zn204 1.975 . S
O222 C221 1.252 . S
H223 C216 0.930 . S
H224 C217 0.930 . S
C225 C226 1.392 . S
C225 N229 1.328 . S
C225 H231 0.930 . S
C226 C225 1.392 . S
C226 N230 1.331 . S
C227 C228 1.391 . S
C227 N230 1.329 . S
C227 H237 0.930 . S
C228 C227 1.391 . S
C228 N229 1.334 . S
C228 H235 0.930 . S
N229 Zn213 2.119 . S
N229 C225 1.328 . S
N229 C228 1.334 . S
N230 C226 1.331 . S
N230 C227 1.329 . S
H231 C225 0.930 . S
C232 O212 1.257 . S
C232 O233 1.244 . S
O233 C232 1.244 . S
O234 C210 1.257 . S
O234 Zn213 2.019 . S
H235 C228 0.930 . S
H236 C215 0.930 . S
H237 C227 0.930 . S
Zn238 N242 2.020 . S
Zn238 O246 2.019 . S
Zn238 N248 2.119 . S
Zn238 O256 1.975 . S
C239 N240 1.334 . S
C239 N243 1.336 . S
N240 C239 1.334 . S
N240 C241 1.334 . S
C241 N240 1.334 . S
C241 N242 1.336 . S
N242 Zn238 2.020 . S
N242 C241 1.336 . S
N242 N243 1.354 . S
N243 C239 1.336 . S
N243 N242 1.354 . S
N243 Zn247 2.020 . S
C244 O245 1.244 . S
C244 O268 1.260 1_455 S
O245 C244 1.244 . S
O246 Zn238 2.019 . S
O246 C266 1.257 . S
Zn247 N243 2.020 . S
Zn247 O254 1.975 . S
Zn247 N263 2.119 1_455 S
Zn247 O268 2.020 1_455 S
N248 Zn238 2.119 . S
N248 C250 1.334 . S
N248 C251 1.328 . S
C249 C250 1.391 . S
C249 N252 1.329 . S
C249 H270 0.930 . S
C250 N248 1.334 . S
C250 C249 1.391 . S
C250 H257 0.930 . S
C251 N248 1.328 . S
C251 C253 1.392 . S
C251 H258 0.930 . S
N252 C249 1.329 . S
N252 C253 1.331 . S
C253 C251 1.392 . S
C253 N252 1.331 . S
O254 Zn247 1.975 . S
O254 C255 1.252 . S
C255 O254 1.252 . S
C255 O256 1.252 . S
O256 Zn238 1.975 . S
O256 C255 1.252 . S
H257 C250 0.930 . S
H258 C251 0.930 . S
C259 C260 1.392 . S
C259 N263 1.328 . S
C259 H265 0.930 . S
C260 C259 1.392 . S
C260 N264 1.331 . S
C261 C262 1.391 . S
C261 N264 1.329 . S
C261 H271 0.930 . S
C262 C261 1.391 . S
C262 N263 1.334 . S
C262 H269 0.930 . S
N263 Zn247 2.119 1_655 S
N263 C259 1.328 . S
N263 C262 1.334 . S
N264 C260 1.331 . S
N264 C261 1.329 . S
H265 C259 0.930 . S
C266 O246 1.257 . S
C266 O267 1.244 . S
O267 C266 1.244 . S
O268 C244 1.260 1_655 S
O268 Zn247 2.020 1_655 S
H269 C262 0.930 . S
H270 C249 0.930 . S
H271 C261 0.930 . S
C272 C273 1.349 . S
C272 C274 1.327 . S
C272 H297 0.950 . S
C273 C272 1.349 . S
C273 C289 1.349 . S
C274 C272 1.327 . S
C274 C293 1.429 . S
C274 H298 0.950 . S
C275 C292 1.574 . S
C275 C294 1.368 . S
C275 H299 0.949 . S
H276 C280 0.949 . S
C277 C278 1.349 . S
C277 C279 1.327 . S
C277 H300 0.950 . S
C278 C277 1.349 . S
C278 C290 1.349 . S
C279 C277 1.327 . S
C279 C295 1.429 . S
C279 H301 0.950 . S
C280 H276 0.949 . S
C280 C288 1.574 . S
C280 C296 1.368 . S
H281 C289 0.950 . S
H282 C287 0.950 . S
H283 C288 0.949 . S
H284 C290 0.950 . S
H285 C291 0.950 . S
H286 C292 0.949 . S
C287 H282 0.950 . S
C287 C289 1.327 . S
C287 C293 1.429 . S
C288 C280 1.574 . S
C288 H283 0.949 . S
C288 C294 1.368 . S
C289 C273 1.349 . S
C289 H281 0.950 . S
C289 C287 1.327 . S
C290 C278 1.349 . S
C290 H284 0.950 . S
C290 C291 1.327 . S
C291 H285 0.950 . S
C291 C290 1.327 . S
C291 C295 1.429 . S
C292 C275 1.574 . S
C292 H286 0.949 . S
C292 C296 1.368 . S
C293 C274 1.429 . S
C293 C287 1.429 . S
C293 C294 1.523 . S
C294 C275 1.368 . S
C294 C288 1.368 . S
C294 C293 1.523 . S
C295 C279 1.429 . S
C295 C291 1.429 . S
C295 C296 1.523 . S
C296 C280 1.368 . S
C296 C292 1.368 . S
C296 C295 1.523 . S
H297 C272 0.950 . S
H298 C274 0.950 . S
H299 C275 0.949 . S
H300 C277 0.950 . S
H301 C279 0.950 . S
C302 C303 1.349 . S
C302 C304 1.327 . S
C302 H327 0.950 . S
C303 C302 1.349 . S
C303 C319 1.349 . S
C304 C302 1.327 . S
C304 C323 1.429 . S
C304 H328 0.950 . S
C305 C322 1.574 . S
C305 C324 1.368 . S
C305 H329 0.949 . S
H306 C310 0.949 . S
C307 C308 1.349 . S
C307 C309 1.327 . S
C307 H330 0.950 . S
C308 C307 1.349 . S
C308 C320 1.349 . S
C309 C307 1.327 . S
C309 C325 1.429 . S
C309 H331 0.950 . S
C310 H306 0.949 . S
C310 C318 1.574 . S
C310 C326 1.368 . S
H311 C319 0.950 . S
H312 C317 0.950 . S
H313 C318 0.949 . S
H314 C320 0.950 . S
H315 C321 0.950 . S
H316 C322 0.949 . S
C317 H312 0.950 . S
C317 C319 1.327 . S
C317 C323 1.429 . S
C318 C310 1.574 . S
C318 H313 0.949 . S
C318 C324 1.368 . S
C319 C303 1.349 . S
C319 H311 0.950 . S
C319 C317 1.327 . S
C320 C308 1.349 . S
C320 H314 0.950 . S
C320 C321 1.327 . S
C321 H315 0.950 . S
C321 C320 1.327 . S
C321 C325 1.429 . S
C322 C305 1.574 . S
C322 H316 0.949 . S
C322 C326 1.368 . S
C323 C304 1.429 . S
C323 C317 1.429 . S
C323 C324 1.523 . S
C324 C305 1.368 . S
C324 C318 1.368 . S
C324 C323 1.523 . S
C325 C309 1.429 . S
C325 C321 1.429 . S
C325 C326 1.523 . S
C326 C310 1.368 . S
C326 C322 1.368 . S
C326 C325 1.523 . S
H327 C302 0.950 . S
H328 C304 0.950 . S
H329 C305 0.949 . S
H330 C307 0.950 . S
H331 C309 0.950 . S
C332 C333 1.349 . S
C332 C334 1.327 . S
C332 H357 0.950 . S
C333 C332 1.349 . S
C333 C349 1.349 . S
C334 C332 1.327 . S
C334 C353 1.429 . S
C334 H358 0.950 . S
C335 C352 1.574 . S
C335 C354 1.368 . S
C335 H359 0.949 . S
H336 C340 0.949 . S
C337 C338 1.349 . S
C337 C339 1.327 . S
C337 H360 0.950 . S
C338 C337 1.349 . S
C338 C350 1.349 . S
C339 C337 1.327 . S
C339 C355 1.429 . S
C339 H361 0.950 . S
C340 H336 0.949 . S
C340 C348 1.574 . S
C340 C356 1.368 . S
H341 C349 0.950 . S
H342 C347 0.950 . S
H343 C348 0.949 . S
H344 C350 0.950 . S
H345 C351 0.950 . S
H346 C352 0.949 . S
C347 H342 0.950 . S
C347 C349 1.327 . S
C347 C353 1.429 . S
C348 C340 1.574 . S
C348 H343 0.949 . S
C348 C354 1.368 . S
C349 C333 1.349 . S
C349 H341 0.950 . S
C349 C347 1.327 . S
C350 C338 1.349 . S
C350 H344 0.950 . S
C350 C351 1.327 . S
C351 H345 0.950 . S
C351 C350 1.327 . S
C351 C355 1.429 . S
C352 C335 1.574 . S
C352 H346 0.949 . S
C352 C356 1.368 . S
C353 C334 1.429 . S
C353 C347 1.429 . S
C353 C354 1.523 . S
C354 C335 1.368 . S
C354 C348 1.368 . S
C354 C353 1.523 . S
C355 C339 1.429 . S
C355 C351 1.429 . S
C355 C356 1.523 . S
C356 C340 1.368 . S
C356 C352 1.368 . S
C356 C355 1.523 . S
H357 C332 0.950 . S
H358 C334 0.950 . S
H359 C335 0.949 . S
H360 C337 0.950 . S
H361 C339 0.950 . S
C362 C363 1.349 . S
C362 C364 1.327 . S
C362 H387 0.950 . S
C363 C362 1.349 . S
C363 C379 1.349 . S
C364 C362 1.327 . S
C364 C383 1.429 . S
C364 H388 0.950 . S
C365 C382 1.574 . S
C365 C384 1.368 . S
C365 H389 0.949 . S
H366 C370 0.949 . S
C367 C368 1.349 . S
C367 C369 1.327 . S
C367 H390 0.950 . S
C368 C367 1.349 . S
C368 C380 1.349 . S
C369 C367 1.327 . S
C369 C385 1.429 . S
C369 H391 0.950 . S
C370 H366 0.949 . S
C370 C378 1.574 . S
C370 C386 1.368 . S
H371 C379 0.950 . S
H372 C377 0.950 . S
H373 C378 0.949 . S
H374 C380 0.950 . S
H375 C381 0.950 . S
H376 C382 0.949 . S
C377 H372 0.950 . S
C377 C379 1.327 . S
C377 C383 1.429 . S
C378 C370 1.574 . S
C378 H373 0.949 . S
C378 C384 1.368 . S
C379 C363 1.349 . S
C379 H371 0.950 . S
C379 C377 1.327 . S
C380 C368 1.349 . S
C380 H374 0.950 . S
C380 C381 1.327 . S
C381 H375 0.950 . S
C381 C380 1.327 . S
C381 C385 1.429 . S
C382 C365 1.574 . S
C382 H376 0.949 . S
C382 C386 1.368 . S
C383 C364 1.429 . S
C383 C377 1.429 . S
C383 C384 1.523 . S
C384 C365 1.368 . S
C384 C378 1.368 . S
C384 C383 1.523 . S
C385 C369 1.429 . S
C385 C381 1.429 . S
C385 C386 1.523 . S
C386 C370 1.368 . S
C386 C382 1.368 . S
C386 C385 1.523 . S
H387 C362 0.950 . S
H388 C364 0.950 . S
H389 C365 0.949 . S
H390 C367 0.950 . S
H391 C369 0.950 . S
C392 C393 1.349 . S
C392 C394 1.327 . S
C392 H417 0.950 . S
C393 C392 1.349 . S
C393 C409 1.349 . S
C394 C392 1.327 . S
C394 C413 1.429 . S
C394 H418 0.950 . S
C395 C412 1.574 . S
C395 C414 1.368 . S
C395 H419 0.949 . S
H396 C400 0.949 . S
C397 C398 1.349 . S
C397 C399 1.327 . S
C397 H420 0.950 . S
C398 C397 1.349 . S
C398 C410 1.349 . S
C399 C397 1.327 . S
C399 C415 1.429 . S
C399 H421 0.950 . S
C400 H396 0.949 . S
C400 C408 1.574 . S
C400 C416 1.368 . S
H401 C409 0.950 . S
H402 C407 0.950 . S
H403 C408 0.949 . S
H404 C410 0.950 . S
H405 C411 0.950 . S
H406 C412 0.949 . S
C407 H402 0.950 . S
C407 C409 1.327 . S
C407 C413 1.429 . S
C408 C400 1.574 . S
C408 H403 0.949 . S
C408 C414 1.368 . S
C409 C393 1.349 . S
C409 H401 0.950 . S
C409 C407 1.327 . S
C410 C398 1.349 . S
C410 H404 0.950 . S
C410 C411 1.327 . S
C411 H405 0.950 . S
C411 C410 1.327 . S
C411 C415 1.429 . S
C412 C395 1.574 . S
C412 H406 0.949 . S
C412 C416 1.368 . S
C413 C394 1.429 . S
C413 C407 1.429 . S
C413 C414 1.523 . S
C414 C395 1.368 . S
C414 C408 1.368 . S
C414 C413 1.523 . S
C415 C399 1.429 . S
C415 C411 1.429 . S
C415 C416 1.523 . S
C416 C400 1.368 . S
C416 C412 1.368 . S
C416 C415 1.523 . S
H417 C392 0.950 . S
H418 C394 0.950 . S
H419 C395 0.949 . S
H420 C397 0.950 . S
H421 C399 0.950 . S
C422 C423 1.349 . S
C422 C424 1.327 . S
C422 H447 0.950 . S
C423 C422 1.349 . S
C423 C439 1.349 . S
C424 C422 1.327 . S
C424 C443 1.429 . S
C424 H448 0.950 . S
C425 C442 1.574 . S
C425 C444 1.368 . S
C425 H449 0.949 . S
H426 C430 0.949 . S
C427 C428 1.349 . S
C427 C429 1.327 . S
C427 H450 0.950 . S
C428 C427 1.349 . S
C428 C440 1.349 . S
C429 C427 1.327 . S
C429 C445 1.429 . S
C429 H451 0.950 . S
C430 H426 0.949 . S
C430 C438 1.574 . S
C430 C446 1.368 . S
H431 C439 0.950 . S
H432 C437 0.950 . S
H433 C438 0.949 . S
H434 C440 0.950 . S
H435 C441 0.950 . S
H436 C442 0.949 . S
C437 H432 0.950 . S
C437 C439 1.327 . S
C437 C443 1.429 . S
C438 C430 1.574 . S
C438 H433 0.949 . S
C438 C444 1.368 . S
C439 C423 1.349 . S
C439 H431 0.950 . S
C439 C437 1.327 . S
C440 C428 1.349 . S
C440 H434 0.950 . S
C440 C441 1.327 . S
C441 H435 0.950 . S
C441 C440 1.327 . S
C441 C445 1.429 . S
C442 C425 1.574 . S
C442 H436 0.949 . S
C442 C446 1.368 . S
C443 C424 1.429 . S
C443 C437 1.429 . S
C443 C444 1.523 . S
C444 C425 1.368 . S
C444 C438 1.368 . S
C444 C443 1.523 . S
C445 C429 1.429 . S
C445 C441 1.429 . S
C445 C446 1.523 . S
C446 C430 1.368 . S
C446 C442 1.368 . S
C446 C445 1.523 . S
H447 C422 0.950 . S
H448 C424 0.950 . S
H449 C425 0.949 . S
H450 C427 0.950 . S
H451 C429 0.950 . S
C452 C453 1.349 . S
C452 C454 1.327 . S
C452 H477 0.950 . S
C453 C452 1.349 . S
C453 C469 1.349 . S
C454 C452 1.327 . S
C454 C473 1.429 . S
C454 H478 0.950 . S
C455 C472 1.574 . S
C455 C474 1.368 . S
C455 H479 0.949 . S
H456 C460 0.949 . S
C457 C458 1.349 . S
C457 C459 1.327 . S
C457 H480 0.950 . S
C458 C457 1.349 . S
C458 C470 1.349 . S
C459 C457 1.327 . S
C459 C475 1.429 . S
C459 H481 0.950 . S
C460 H456 0.949 . S
C460 C468 1.574 . S
C460 C476 1.368 . S
H461 C469 0.950 . S
H462 C467 0.950 . S
H463 C468 0.949 . S
H464 C470 0.950 . S
H465 C471 0.950 . S
H466 C472 0.949 . S
C467 H462 0.950 . S
C467 C469 1.327 . S
C467 C473 1.429 . S
C468 C460 1.574 . S
C468 H463 0.949 . S
C468 C474 1.368 . S
C469 C453 1.349 . S
C469 H461 0.950 . S
C469 C467 1.327 . S
C470 C458 1.349 . S
C470 H464 0.950 . S
C470 C471 1.327 . S
C471 H465 0.950 . S
C471 C470 1.327 . S
C471 C475 1.429 . S
C472 C455 1.574 . S
C472 H466 0.949 . S
C472 C476 1.368 . S
C473 C454 1.429 . S
C473 C467 1.429 . S
C473 C474 1.523 . S
C474 C455 1.368 . S
C474 C468 1.368 . S
C474 C473 1.523 . S
C475 C459 1.429 . S
C475 C471 1.429 . S
C475 C476 1.523 . S
C476 C460 1.368 . S
C476 C472 1.368 . S
C476 C475 1.523 . S
H477 C452 0.950 . S
H478 C454 0.950 . S
H479 C455 0.949 . S
H480 C457 0.950 . S
H481 C459 0.950 . S
C482 C483 1.349 . S
C482 C484 1.327 . S
C482 H507 0.950 . S
C483 C482 1.349 . S
C483 C499 1.349 . S
C484 C482 1.327 . S
C484 C503 1.429 . S
C484 H508 0.950 . S
C485 C502 1.574 . S
C485 C504 1.368 . S
C485 H509 0.949 . S
H486 C490 0.949 . S
C487 C488 1.349 . S
C487 C489 1.327 . S
C487 H510 0.950 . S
C488 C487 1.349 . S
C488 C500 1.349 . S
C489 C487 1.327 . S
C489 C505 1.429 . S
C489 H511 0.950 . S
C490 H486 0.949 . S
C490 C498 1.574 . S
C490 C506 1.368 . S
H491 C499 0.950 . S
H492 C497 0.950 . S
H493 C498 0.949 . S
H494 C500 0.950 . S
H495 C501 0.950 . S
H496 C502 0.949 . S
C497 H492 0.950 . S
C497 C499 1.327 . S
C497 C503 1.429 . S
C498 C490 1.574 . S
C498 H493 0.949 . S
C498 C504 1.368 . S
C499 C483 1.349 . S
C499 H491 0.950 . S
C499 C497 1.327 . S
C500 C488 1.349 . S
C500 H494 0.950 . S
C500 C501 1.327 . S
C501 H495 0.950 . S
C501 C500 1.327 . S
C501 C505 1.429 . S
C502 C485 1.574 . S
C502 H496 0.949 . S
C502 C506 1.368 . S
C503 C484 1.429 . S
C503 C497 1.429 . S
C503 C504 1.523 . S
C504 C485 1.368 . S
C504 C498 1.368 . S
C504 C503 1.523 . S
C505 C489 1.429 . S
C505 C501 1.429 . S
C505 C506 1.523 . S
C506 C490 1.368 . S
C506 C502 1.368 . S
C506 C505 1.523 . S
H507 C482 0.950 . S
H508 C484 0.950 . S
H509 C485 0.949 . S
H510 C487 0.950 . S
H511 C489 0.950 . S
C512 C513 1.349 . S
C512 C514 1.327 . S
C512 H537 0.950 . S
C513 C512 1.349 . S
C513 C529 1.349 . S
C514 C512 1.327 . S
C514 C533 1.429 . S
C514 H538 0.950 . S
C515 C532 1.574 . S
C515 C534 1.368 1_554 S
C515 H539 0.949 . S
H516 C520 0.949 . S
C517 C518 1.349 . S
C517 C519 1.327 . S
C517 H540 0.950 . S
C518 C517 1.349 . S
C518 C530 1.349 . S
C519 C517 1.327 . S
C519 C535 1.429 . S
C519 H541 0.950 . S
C520 H516 0.949 . S
C520 C528 1.574 . S
C520 C536 1.368 1_556 S
H521 C529 0.950 1_554 S
H522 C527 0.950 1_554 S
H523 C528 0.949 . S
H524 C530 0.950 1_556 S
H525 C531 0.950 1_556 S
H526 C532 0.949 . S
C527 H522 0.950 1_556 S
C527 C529 1.327 . S
C527 C533 1.429 . S
C528 C520 1.574 . S
C528 H523 0.949 . S
C528 C534 1.368 . S
C529 C513 1.349 . S
C529 H521 0.950 1_556 S
C529 C527 1.327 . S
C530 C518 1.349 . S
C530 H524 0.950 1_554 S
C530 C531 1.327 . S
C531 H525 0.950 1_554 S
C531 C530 1.327 . S
C531 C535 1.429 . S
C532 C515 1.574 . S
C532 H526 0.949 . S
C532 C536 1.368 . S
C533 C514 1.429 . S
C533 C527 1.429 . S
C533 C534 1.523 . S
C534 C515 1.368 1_556 S
C534 C528 1.368 . S
C534 C533 1.523 . S
C535 C519 1.429 . S
C535 C531 1.429 . S
C535 C536 1.523 . S
C536 C520 1.368 1_554 S
C536 C532 1.368 . S
C536 C535 1.523 . S
H537 C512 0.950 . S
H538 C514 0.950 . S
H539 C515 0.949 . S
H540 C517 0.950 . S
H541 C519 0.950 . S
C542 C543 1.349 . S
C542 C544 1.327 . S
C542 H567 0.950 . S
C543 C542 1.349 . S
C543 C559 1.349 . S
C544 C542 1.327 . S
C544 C563 1.429 . S
C544 H568 0.950 . S
C545 C562 1.574 . S
C545 C564 1.368 . S
C545 H569 0.949 . S
H546 C550 0.949 . S
C547 C548 1.349 . S
C547 C549 1.327 . S
C547 H570 0.950 . S
C548 C547 1.349 . S
C548 C560 1.349 . S
C549 C547 1.327 . S
C549 C565 1.429 . S
C549 H571 0.950 . S
C550 H546 0.949 . S
C550 C558 1.574 . S
C550 C566 1.368 . S
H551 C559 0.950 . S
H552 C557 0.950 . S
H553 C558 0.949 . S
H554 C560 0.950 . S
H555 C561 0.950 . S
H556 C562 0.949 . S
C557 H552 0.950 . S
C557 C559 1.327 . S
C557 C563 1.429 . S
C558 C550 1.574 . S
C558 H553 0.949 . S
C558 C564 1.368 . S
C559 C543 1.349 . S
C559 H551 0.950 . S
C559 C557 1.327 . S
C560 C548 1.349 . S
C560 H554 0.950 . S
C560 C561 1.327 . S
C561 H555 0.950 . S
C561 C560 1.327 . S
C561 C565 1.429 . S
C562 C545 1.574 . S
C562 H556 0.949 . S
C562 C566 1.368 . S
C563 C544 1.429 . S
C563 C557 1.429 . S
C563 C564 1.523 . S
C564 C545 1.368 . S
C564 C558 1.368 . S
C564 C563 1.523 . S
C565 C549 1.429 . S
C565 C561 1.429 . S
C565 C566 1.523 . S
C566 C550 1.368 . S
C566 C562 1.368 . S
C566 C565 1.523 . S
H567 C542 0.950 . S
H568 C544 0.950 . S
H569 C545 0.949 . S
H570 C547 0.950 . S
H571 C549 0.950 . S
C572 C573 1.349 . S
C572 C574 1.327 . S
C572 H597 0.950 . S
C573 C572 1.349 . S
C573 C589 1.349 . S
C574 C572 1.327 . S
C574 C593 1.429 . S
C574 H598 0.950 1_556 S
C575 C592 1.574 1_545 S
C575 C594 1.368 . S
C575 H599 0.949 . S
H576 C580 0.949 . S
C577 C578 1.349 . S
C577 C579 1.327 . S
C577 H600 0.950 . S
C578 C577 1.349 . S
C578 C590 1.349 . S
C579 C577 1.327 . S
C579 C595 1.429 . S
C579 H601 0.950 1_554 S
C580 H576 0.949 . S
C580 C588 1.574 1_565 S
C580 C596 1.368 . S
H581 C589 0.950 . S
H582 C587 0.950 . S
H583 C588 0.949 . S
H584 C590 0.950 . S
H585 C591 0.950 . S
H586 C592 0.949 . S
C587 H582 0.950 . S
C587 C589 1.327 . S
C587 C593 1.429 . S
C588 C580 1.574 1_545 S
C588 H583 0.949 . S
C588 C594 1.368 1_554 S
C589 C573 1.349 . S
C589 H581 0.950 . S
C589 C587 1.327 . S
C590 C578 1.349 . S
C590 H584 0.950 . S
C590 C591 1.327 . S
C591 H585 0.950 . S
C591 C590 1.327 . S
C591 C595 1.429 . S
C592 C575 1.574 1_565 S
C592 H586 0.949 . S
C592 C596 1.368 1_556 S
C593 C574 1.429 . S
C593 C587 1.429 . S
C593 C594 1.523 . S
C594 C575 1.368 . S
C594 C588 1.368 1_556 S
C594 C593 1.523 . S
C595 C579 1.429 . S
C595 C591 1.429 . S
C595 C596 1.523 . S
C596 C580 1.368 . S
C596 C592 1.368 1_554 S
C596 C595 1.523 . S
H597 C572 0.950 . S
H598 C574 0.950 1_554 S
H599 C575 0.949 . S
H600 C577 0.950 . S
H601 C579 0.950 1_556 S
C602 C603 1.349 . S
C602 C604 1.327 . S
C602 H627 0.950 1_455 S
C603 C602 1.349 . S
C603 C619 1.349 . S
C604 C602 1.327 . S
C604 C623 1.429 . S
C604 H628 0.950 1_455 S
C605 C622 1.574 1_565 S
C605 C624 1.368 . S
C605 H629 0.949 . S
H606 C610 0.949 1_655 S
C607 C608 1.349 . S
C607 C609 1.327 . S
C607 H630 0.950 . S
C608 C607 1.349 . S
C608 C620 1.349 . S
C609 C607 1.327 . S
C609 C625 1.429 . S
C609 H631 0.950 . S
C610 H606 0.949 1_455 S
C610 C618 1.574 1_545 S
C610 C626 1.368 . S
H611 C619 0.950 . S
H612 C617 0.950 . S
H613 C618 0.949 1_655 S
H614 C620 0.950 1_655 S
H615 C621 0.950 1_655 S
H616 C622 0.949 . S
C617 H612 0.950 . S
C617 C619 1.327 . S
C617 C623 1.429 . S
C618 C610 1.574 1_565 S
C618 H613 0.949 1_455 S
C618 C624 1.368 . S
C619 C603 1.349 . S
C619 H611 0.950 . S
C619 C617 1.327 . S
C620 C608 1.349 . S
C620 H614 0.950 1_455 S
C620 C621 1.327 . S
C621 H615 0.950 1_455 S
C621 C620 1.327 . S
C621 C625 1.429 . S
C622 C605 1.574 1_545 S
C622 H616 0.949 . S
C622 C626 1.368 . S
C623 C604 1.429 . S
C623 C617 1.429 . S
C623 C624 1.523 . S
C624 C605 1.368 . S
C624 C618 1.368 . S
C624 C623 1.523 . S
C625 C609 1.429 . S
C625 C621 1.429 . S
C625 C626 1.523 . S
C626 C610 1.368 . S
C626 C622 1.368 . S
C626 C625 1.523 . S
H627 C602 0.950 1_655 S
H628 C604 0.950 1_655 S
H629 C605 0.949 . S
H630 C607 0.950 . S
H631 C609 0.950 . S
C632 C633 1.349 1_556 S
C632 C634 1.327 . S
C632 H657 0.950 . S
C633 C632 1.349 1_554 S
C633 C649 1.349 . S
C634 C632 1.327 . S
C634 C653 1.429 . S
C634 H658 0.950 . S
C635 C652 1.574 . S
C635 C654 1.368 . S
C635 H659 0.949 1_556 S
H636 C640 0.949 . S
C637 C638 1.349 . S
C637 C639 1.327 . S
C637 H660 0.950 . S
C638 C637 1.349 . S
C638 C650 1.349 . S
C639 C637 1.327 . S
C639 C655 1.429 . S
C639 H661 0.950 . S
C640 H636 0.949 . S
C640 C648 1.574 . S
C640 C656 1.368 . S
H641 C649 0.950 . S
H642 C647 0.950 . S
H643 C648 0.949 . S
H644 C650 0.950 . S
H645 C651 0.950 . S
H646 C652 0.949 . S
C647 H642 0.950 . S
C647 C649 1.327 . S
C647 C653 1.429 1_554 S
C648 C640 1.574 . S
C648 H643 0.949 . S
C648 C654 1.368 . S
C649 C633 1.349 . S
C649 H641 0.950 . S
C649 C647 1.327 . S
C650 C638 1.349 . S
C650 H644 0.950 . S
C650 C651 1.327 . S
C651 H645 0.950 . S
C651 C650 1.327 . S
C651 C655 1.429 . S
C652 C635 1.574 . S
C652 H646 0.949 . S
C652 C656 1.368 . S
C653 C634 1.429 . S
C653 C647 1.429 1_556 S
C653 C654 1.523 . S
C654 C635 1.368 . S
C654 C648 1.368 . S
C654 C653 1.523 . S
C655 C639 1.429 . S
C655 C651 1.429 . S
C655 C656 1.523 . S
C656 C640 1.368 . S
C656 C652 1.368 . S
C656 C655 1.523 . S
H657 C632 0.950 . S
H658 C634 0.950 . S
H659 C635 0.949 1_554 S
H660 C637 0.950 . S
H661 C639 0.950 . S
C662 C663 1.349 . S
C662 C664 1.327 . S
C662 H687 0.950 . S
C663 C662 1.349 . S
C663 C679 1.349 . S
C664 C662 1.327 . S
C664 C683 1.429 . S
C664 H688 0.950 . S
C665 C682 1.574 . S
C665 C684 1.368 . S
C665 H689 0.949 . S
H666 C670 0.949 . S
C667 C668 1.349 . S
C667 C669 1.327 . S
C667 H690 0.950 . S
C668 C667 1.349 . S
C668 C680 1.349 . S
C669 C667 1.327 . S
C669 C685 1.429 . S
C669 H691 0.950 . S
C670 H666 0.949 . S
C670 C678 1.574 . S
C670 C686 1.368 . S
H671 C679 0.950 . S
H672 C677 0.950 . S
H673 C678 0.949 . S
H674 C680 0.950 . S
H675 C681 0.950 . S
H676 C682 0.949 . S
C677 H672 0.950 . S
C677 C679 1.327 . S
C677 C683 1.429 . S
C678 C670 1.574 . S
C678 H673 0.949 . S
C678 C684 1.368 . S
C679 C663 1.349 . S
C679 H671 0.950 . S
C679 C677 1.327 . S
C680 C668 1.349 . S
C680 H674 0.950 . S
C680 C681 1.327 . S
C681 H675 0.950 . S
C681 C680 1.327 . S
C681 C685 1.429 . S
C682 C665 1.574 . S
C682 H676 0.949 . S
C682 C686 1.368 . S
C683 C664 1.429 . S
C683 C677 1.429 . S
C683 C684 1.523 . S
C684 C665 1.368 . S
C684 C678 1.368 . S
C684 C683 1.523 . S
C685 C669 1.429 . S
C685 C681 1.429 . S
C685 C686 1.523 . S
C686 C670 1.368 . S
C686 C682 1.368 . S
C686 C685 1.523 . S
H687 C662 0.950 . S
H688 C664 0.950 . S
H689 C665 0.949 . S
H690 C667 0.950 . S
H691 C669 0.950 . S
C692 C693 1.349 . S
C692 C694 1.327 . S
C692 H717 0.950 . S
C693 C692 1.349 . S
C693 C709 1.349 . S
C694 C692 1.327 . S
C694 C713 1.429 . S
C694 H718 0.950 . S
C695 C712 1.574 . S
C695 C714 1.368 . S
C695 H719 0.949 . S
H696 C700 0.949 . S
C697 C698 1.349 . S
C697 C699 1.327 . S
C697 H720 0.950 . S
C698 C697 1.349 . S
C698 C710 1.349 1_556 S
C699 C697 1.327 . S
C699 C715 1.429 1_556 S
C699 H721 0.950 . S
C700 H696 0.949 . S
C700 C708 1.574 . S
C700 C716 1.368 . S
H701 C709 0.950 . S
H702 C707 0.950 . S
H703 C708 0.949 . S
H704 C710 0.950 . S
H705 C711 0.950 . S
H706 C712 0.949 1_556 S
C707 H702 0.950 . S
C707 C709 1.327 . S
C707 C713 1.429 . S
C708 C700 1.574 . S
C708 H703 0.949 . S
C708 C714 1.368 . S
C709 C693 1.349 . S
C709 H701 0.950 . S
C709 C707 1.327 . S
C710 C698 1.349 1_554 S
C710 H704 0.950 . S
C710 C711 1.327 . S
C711 H705 0.950 . S
C711 C710 1.327 . S
C711 C715 1.429 . S
C712 C695 1.574 . S
C712 H706 0.949 1_554 S
C712 C716 1.368 . S
C713 C694 1.429 . S
C713 C707 1.429 . S
C713 C714 1.523 . S
C714 C695 1.368 . S
C714 C708 1.368 . S
C714 C713 1.523 . S
C715 C699 1.429 1_554 S
C715 C711 1.429 . S
C715 C716 1.523 . S
C716 C700 1.368 . S
C716 C712 1.368 . S
C716 C715 1.523 . S
H717 C692 0.950 . S
H718 C694 0.950 . S
H719 C695 0.949 . S
H720 C697 0.950 . S
H721 C699 0.950 . S
C722 C723 1.349 . S
C722 C724 1.327 . S
C722 H747 0.950 . S
C723 C722 1.349 . S
C723 C739 1.349 . S
C724 C722 1.327 . S
C724 C743 1.429 . S
C724 H748 0.950 . S
C725 C742 1.574 . S
C725 C744 1.368 . S
C725 H749 0.949 . S
H726 C730 0.949 . S
C727 C728 1.349 . S
C727 C729 1.327 . S
C727 H750 0.950 . S
C728 C727 1.349 . S
C728 C740 1.349 . S
C729 C727 1.327 . S
C729 C745 1.429 . S
C729 H751 0.950 . S
C730 H726 0.949 . S
C730 C738 1.574 . S
C730 C746 1.368 . S
H731 C739 0.950 . S
H732 C737 0.950 . S
H733 C738 0.949 . S
H734 C740 0.950 . S
H735 C741 0.950 . S
H736 C742 0.949 . S
C737 H732 0.950 . S
C737 C739 1.327 . S
C737 C743 1.429 . S
C738 C730 1.574 . S
C738 H733 0.949 . S
C738 C744 1.368 . S
C739 C723 1.349 . S
C739 H731 0.950 . S
C739 C737 1.327 . S
C740 C728 1.349 . S
C740 H734 0.950 . S
C740 C741 1.327 . S
C741 H735 0.950 . S
C741 C740 1.327 . S
C741 C745 1.429 . S
C742 C725 1.574 . S
C742 H736 0.949 . S
C742 C746 1.368 . S
C743 C724 1.429 . S
C743 C737 1.429 . S
C743 C744 1.523 . S
C744 C725 1.368 . S
C744 C738 1.368 . S
C744 C743 1.523 . S
C745 C729 1.429 . S
C745 C741 1.429 . S
C745 C746 1.523 . S
C746 C730 1.368 . S
C746 C742 1.368 . S
C746 C745 1.523 . S
H747 C722 0.950 . S
H748 C724 0.950 . S
H749 C725 0.949 . S
H750 C727 0.950 . S
H751 C729 0.950 . S
C752 C753 1.349 . S
C752 C754 1.327 . S
C752 H777 0.950 . S
C753 C752 1.349 . S
C753 C769 1.349 . S
C754 C752 1.327 . S
C754 C773 1.429 . S
C754 H778 0.950 . S
C755 C772 1.574 . S
C755 C774 1.368 . S
C755 H779 0.949 . S
H756 C760 0.949 1_554 S
C757 C758 1.349 1_556 S
C757 C759 1.327 . S
C757 H780 0.950 . S
C758 C757 1.349 1_554 S
C758 C770 1.349 . S
C759 C757 1.327 . S
C759 C775 1.429 . S
C759 H781 0.950 . S
C760 H756 0.949 1_556 S
C760 C768 1.574 . S
C760 C776 1.368 . S
H761 C769 0.950 . S
H762 C767 0.950 . S
H763 C768 0.949 . S
H764 C770 0.950 . S
H765 C771 0.950 . S
H766 C772 0.949 . S
C767 H762 0.950 . S
C767 C769 1.327 . S
C767 C773 1.429 . S
C768 C760 1.574 . S
C768 H763 0.949 . S
C768 C774 1.368 . S
C769 C753 1.349 . S
C769 H761 0.950 . S
C769 C767 1.327 . S
C770 C758 1.349 . S
C770 H764 0.950 . S
C770 C771 1.327 . S
C771 H765 0.950 . S
C771 C770 1.327 . S
C771 C775 1.429 1_554 S
C772 C755 1.574 . S
C772 H766 0.949 . S
C772 C776 1.368 . S
C773 C754 1.429 . S
C773 C767 1.429 . S
C773 C774 1.523 . S
C774 C755 1.368 . S
C774 C768 1.368 . S
C774 C773 1.523 . S
C775 C759 1.429 . S
C775 C771 1.429 1_556 S
C775 C776 1.523 . S
C776 C760 1.368 . S
C776 C772 1.368 . S
C776 C775 1.523 . S
H777 C752 0.950 . S
H778 C754 0.950 . S
H779 C755 0.949 . S
H780 C757 0.950 . S
H781 C759 0.950 . S
C782 C783 1.349 . S
C782 C784 1.327 . S
C782 H807 0.950 . S
C783 C782 1.349 . S
C783 C799 1.349 . S
C784 C782 1.327 . S
C784 C803 1.429 . S
C784 H808 0.950 . S
C785 C802 1.574 . S
C785 C804 1.368 . S
C785 H809 0.949 . S
H786 C790 0.949 . S
C787 C788 1.349 . S
C787 C789 1.327 . S
C787 H810 0.950 . S
C788 C787 1.349 . S
C788 C800 1.349 . S
C789 C787 1.327 . S
C789 C805 1.429 . S
C789 H811 0.950 . S
C790 H786 0.949 . S
C790 C798 1.574 . S
C790 C806 1.368 . S
H791 C799 0.950 . S
H792 C797 0.950 . S
H793 C798 0.949 . S
H794 C800 0.950 . S
H795 C801 0.950 . S
H796 C802 0.949 . S
C797 H792 0.950 . S
C797 C799 1.327 . S
C797 C803 1.429 . S
C798 C790 1.574 . S
C798 H793 0.949 . S
C798 C804 1.368 . S
C799 C783 1.349 . S
C799 H791 0.950 . S
C799 C797 1.327 . S
C800 C788 1.349 . S
C800 H794 0.950 . S
C800 C801 1.327 . S
C801 H795 0.950 . S
C801 C800 1.327 . S
C801 C805 1.429 . S
C802 C785 1.574 . S
C802 H796 0.949 . S
C802 C806 1.368 . S
C803 C784 1.429 . S
C803 C797 1.429 . S
C803 C804 1.523 . S
C804 C785 1.368 . S
C804 C798 1.368 . S
C804 C803 1.523 . S
C805 C789 1.429 . S
C805 C801 1.429 . S
C805 C806 1.523 . S
C806 C790 1.368 . S
C806 C802 1.368 . S
C806 C805 1.523 . S
H807 C782 0.950 . S
H808 C784 0.950 . S
H809 C785 0.949 . S
H810 C787 0.950 . S
H811 C789 0.950 . S
C812 C813 1.349 . S
C812 C814 1.327 . S
C812 H837 0.950 . S
C813 C812 1.349 . S
C813 C829 1.349 . S
C814 C812 1.327 . S
C814 C833 1.429 . S
C814 H838 0.950 . S
C815 C832 1.574 . S
C815 C834 1.368 . S
C815 H839 0.949 . S
H816 C820 0.949 1_556 S
C817 C818 1.349 1_554 S
C817 C819 1.327 . S
C817 H840 0.950 . S
C818 C817 1.349 1_556 S
C818 C830 1.349 . S
C819 C817 1.327 . S
C819 C835 1.429 . S
C819 H841 0.950 . S
C820 H816 0.949 1_554 S
C820 C828 1.574 . S
C820 C836 1.368 . S
H821 C829 0.950 . S
H822 C827 0.950 . S
H823 C828 0.949 . S
H824 C830 0.950 . S
H825 C831 0.950 . S
H826 C832 0.949 . S
C827 H822 0.950 . S
C827 C829 1.327 . S
C827 C833 1.429 . S
C828 C820 1.574 . S
C828 H823 0.949 . S
C828 C834 1.368 . S
C829 C813 1.349 . S
C829 H821 0.950 . S
C829 C827 1.327 . S
C830 C818 1.349 . S
C830 H824 0.950 . S
C830 C831 1.327 . S
C831 H825 0.950 . S
C831 C830 1.327 . S
C831 C835 1.429 1_556 S
C832 C815 1.574 . S
C832 H826 0.949 . S
C832 C836 1.368 . S
C833 C814 1.429 . S
C833 C827 1.429 . S
C833 C834 1.523 . S
C834 C815 1.368 . S
C834 C828 1.368 . S
C834 C833 1.523 . S
C835 C819 1.429 . S
C835 C831 1.429 1_554 S
C835 C836 1.523 . S
C836 C820 1.368 . S
C836 C832 1.368 . S
C836 C835 1.523 . S
H837 C812 0.950 . S
H838 C814 0.950 . S
H839 C815 0.949 . S
H840 C817 0.950 . S
H841 C819 0.950 . S
C842 C843 1.349 . S
C842 C844 1.327 . S
C842 H867 0.950 . S
C843 C842 1.349 . S
C843 C859 1.349 . S
C844 C842 1.327 . S
C844 C863 1.429 . S
C844 H868 0.950 . S
C845 C862 1.574 . S
C845 C864 1.368 . S
C845 H869 0.949 . S
H846 C850 0.949 . S
C847 C848 1.349 . S
C847 C849 1.327 . S
C847 H870 0.950 . S
C848 C847 1.349 . S
C848 C860 1.349 . S
C849 C847 1.327 . S
C849 C865 1.429 . S
C849 H871 0.950 . S
C850 H846 0.949 . S
C850 C858 1.574 . S
C850 C866 1.368 . S
H851 C859 0.950 . S
H852 C857 0.950 . S
H853 C858 0.949 . S
H854 C860 0.950 . S
H855 C861 0.950 . S
H856 C862 0.949 . S
C857 H852 0.950 . S
C857 C859 1.327 . S
C857 C863 1.429 . S
C858 C850 1.574 . S
C858 H853 0.949 . S
C858 C864 1.368 . S
C859 C843 1.349 . S
C859 H851 0.950 . S
C859 C857 1.327 . S
C860 C848 1.349 . S
C860 H854 0.950 . S
C860 C861 1.327 . S
C861 H855 0.950 . S
C861 C860 1.327 . S
C861 C865 1.429 . S
C862 C845 1.574 . S
C862 H856 0.949 . S
C862 C866 1.368 . S
C863 C844 1.429 . S
C863 C857 1.429 . S
C863 C864 1.523 . S
C864 C845 1.368 . S
C864 C858 1.368 . S
C864 C863 1.523 . S
C865 C849 1.429 . S
C865 C861 1.429 . S
C865 C866 1.523 . S
C866 C850 1.368 . S
C866 C862 1.368 . S
C866 C865 1.523 . S
H867 C842 0.950 . S
H868 C844 0.950 . S
H869 C845 0.949 . S
H870 C847 0.950 . S
H871 C849 0.950 . S
C872 C873 1.349 . S
C872 C874 1.327 . S
C872 H897 0.950 . S
C873 C872 1.349 . S
C873 C889 1.349 . S
C874 C872 1.327 . S
C874 C893 1.429 . S
C874 H898 0.950 . S
C875 C892 1.574 . S
C875 C894 1.368 . S
C875 H899 0.949 . S
H876 C880 0.949 . S
C877 C878 1.349 . S
C877 C879 1.327 . S
C877 H900 0.950 . S
C878 C877 1.349 . S
C878 C890 1.349 . S
C879 C877 1.327 . S
C879 C895 1.429 . S
C879 H901 0.950 . S
C880 H876 0.949 . S
C880 C888 1.574 . S
C880 C896 1.368 . S
H881 C889 0.950 . S
H882 C887 0.950 . S
H883 C888 0.949 . S
H884 C890 0.950 . S
H885 C891 0.950 . S
H886 C892 0.949 . S
C887 H882 0.950 . S
C887 C889 1.327 . S
C887 C893 1.429 . S
C888 C880 1.574 . S
C888 H883 0.949 . S
C888 C894 1.368 . S
C889 C873 1.349 . S
C889 H881 0.950 . S
C889 C887 1.327 . S
C890 C878 1.349 . S
C890 H884 0.950 . S
C890 C891 1.327 . S
C891 H885 0.950 . S
C891 C890 1.327 . S
C891 C895 1.429 . S
C892 C875 1.574 . S
C892 H886 0.949 . S
C892 C896 1.368 . S
C893 C874 1.429 . S
C893 C887 1.429 . S
C893 C894 1.523 . S
C894 C875 1.368 . S
C894 C888 1.368 . S
C894 C893 1.523 . S
C895 C879 1.429 . S
C895 C891 1.429 . S
C895 C896 1.523 . S
C896 C880 1.368 . S
C896 C892 1.368 . S
C896 C895 1.523 . S
H897 C872 0.950 . S
H898 C874 0.950 . S
H899 C875 0.949 . S
H900 C877 0.950 . S
H901 C879 0.950 . S
C902 C903 1.349 . S
C902 C904 1.327 . S
C902 H927 0.950 . S
C903 C902 1.349 . S
C903 C919 1.349 . S
C904 C902 1.327 . S
C904 C923 1.429 . S
C904 H928 0.950 . S
C905 C922 1.574 . S
C905 C924 1.368 . S
C905 H929 0.949 . S
H906 C910 0.949 . S
C907 C908 1.349 . S
C907 C909 1.327 . S
C907 H930 0.950 . S
C908 C907 1.349 . S
C908 C920 1.349 . S
C909 C907 1.327 . S
C909 C925 1.429 1_556 S
C909 H931 0.950 . S
C910 H906 0.949 . S
C910 C918 1.574 . S
C910 C926 1.368 . S
H911 C919 0.950 . S
H912 C917 0.950 . S
H913 C918 0.949 . S
H914 C920 0.950 . S
H915 C921 0.950 . S
H916 C922 0.949 . S
C917 H912 0.950 . S
C917 C919 1.327 . S
C917 C923 1.429 . S
C918 C910 1.574 . S
C918 H913 0.949 . S
C918 C924 1.368 . S
C919 C903 1.349 . S
C919 H911 0.950 . S
C919 C917 1.327 . S
C920 C908 1.349 . S
C920 H914 0.950 . S
C920 C921 1.327 . S
C921 H915 0.950 . S
C921 C920 1.327 . S
C921 C925 1.429 1_556 S
C922 C905 1.574 . S
C922 H916 0.949 . S
C922 C926 1.368 . S
C923 C904 1.429 . S
C923 C917 1.429 . S
C923 C924 1.523 . S
C924 C905 1.368 . S
C924 C918 1.368 . S
C924 C923 1.523 . S
C925 C909 1.429 1_554 S
C925 C921 1.429 1_554 S
C925 C926 1.523 . S
C926 C910 1.368 . S
C926 C922 1.368 . S
C926 C925 1.523 . S
H927 C902 0.950 . S
H928 C904 0.950 . S
H929 C905 0.949 . S
H930 C907 0.950 . S
H931 C909 0.950 . S
C932 C933 1.349 . S
C932 C934 1.327 . S
C932 H957 0.950 . S
C933 C932 1.349 . S
C933 C949 1.349 . S
C934 C932 1.327 . S
C934 C953 1.429 . S
C934 H958 0.950 . S
C935 C952 1.574 . S
C935 C954 1.368 . S
C935 H959 0.949 . S
H936 C940 0.949 . S
C937 C938 1.349 . S
C937 C939 1.327 . S
C937 H960 0.950 . S
C938 C937 1.349 . S
C938 C950 1.349 . S
C939 C937 1.327 . S
C939 C955 1.429 . S
C939 H961 0.950 . S
C940 H936 0.949 . S
C940 C948 1.574 . S
C940 C956 1.368 . S
H941 C949 0.950 . S
H942 C947 0.950 . S
H943 C948 0.949 . S
H944 C950 0.950 . S
H945 C951 0.950 . S
H946 C952 0.949 . S
C947 H942 0.950 . S
C947 C949 1.327 . S
C947 C953 1.429 . S
C948 C940 1.574 . S
C948 H943 0.949 . S
C948 C954 1.368 . S
C949 C933 1.349 . S
C949 H941 0.950 . S
C949 C947 1.327 . S
C950 C938 1.349 . S
C950 H944 0.950 . S
C950 C951 1.327 . S
C951 H945 0.950 . S
C951 C950 1.327 . S
C951 C955 1.429 . S
C952 C935 1.574 . S
C952 H946 0.949 . S
C952 C956 1.368 . S
C953 C934 1.429 . S
C953 C947 1.429 . S
C953 C954 1.523 . S
C954 C935 1.368 . S
C954 C948 1.368 . S
C954 C953 1.523 . S
C955 C939 1.429 . S
C955 C951 1.429 . S
C955 C956 1.523 . S
C956 C940 1.368 . S
C956 C952 1.368 . S
C956 C955 1.523 . S
H957 C932 0.950 . S
H958 C934 0.950 . S
H959 C935 0.949 . S
H960 C937 0.950 . S
H961 C939 0.950 . S
C962 C963 1.349 . S
C962 C964 1.327 . S
C962 H987 0.950 . S
C963 C962 1.349 . S
C963 C979 1.349 . S
C964 C962 1.327 . S
C964 C983 1.429 . S
C964 H988 0.950 . S
C965 C982 1.574 . S
C965 C984 1.368 . S
C965 H989 0.949 . S
H966 C970 0.949 . S
C967 C968 1.349 . S
C967 C969 1.327 . S
C967 H990 0.950 . S
C968 C967 1.349 . S
C968 C980 1.349 . S
C969 C967 1.327 . S
C969 C985 1.429 1_554 S
C969 H991 0.950 . S
C970 H966 0.949 . S
C970 C978 1.574 . S
C970 C986 1.368 . S
H971 C979 0.950 . S
H972 C977 0.950 . S
H973 C978 0.949 . S
H974 C980 0.950 . S
H975 C981 0.950 . S
H976 C982 0.949 . S
C977 H972 0.950 . S
C977 C979 1.327 . S
C977 C983 1.429 . S
C978 C970 1.574 . S
C978 H973 0.949 . S
C978 C984 1.368 . S
C979 C963 1.349 . S
C979 H971 0.950 . S
C979 C977 1.327 . S
C980 C968 1.349 . S
C980 H974 0.950 . S
C980 C981 1.327 . S
C981 H975 0.950 . S
C981 C980 1.327 . S
C981 C985 1.429 1_554 S
C982 C965 1.574 . S
C982 H976 0.949 . S
C982 C986 1.368 . S
C983 C964 1.429 . S
C983 C977 1.429 . S
C983 C984 1.523 . S
C984 C965 1.368 . S
C984 C978 1.368 . S
C984 C983 1.523 . S
C985 C969 1.429 1_556 S
C985 C981 1.429 1_556 S
C985 C986 1.523 . S
C986 C970 1.368 . S
C986 C982 1.368 . S
C986 C985 1.523 . S
H987 C962 0.950 . S
H988 C964 0.950 . S
H989 C965 0.949 . S
H990 C967 0.950 . S
H991 C969 0.950 . S
C992 C993 1.349 . S
C992 C994 1.327 . S
C992 H1017 0.950 . S
C993 C992 1.349 . S
C993 C1009 1.349 . S
C994 C992 1.327 . S
C994 C1013 1.429 . S
C994 H1018 0.950 . S
C995 C1012 1.574 . S
C995 C1014 1.368 . S
C995 H1019 0.949 . S
H996 C1000 0.949 . S
C997 C998 1.349 . S
C997 C999 1.327 . S
C997 H1020 0.950 . S
C998 C997 1.349 . S
C998 C1010 1.349 . S
C999 C997 1.327 . S
C999 C1015 1.429 . S
C999 H1021 0.950 . S
C1000 H996 0.949 . S
C1000 C1008 1.574 . S
C1000 C1016 1.368 . S
H1001 C1009 0.950 . S
H1002 C1007 0.950 . S
H1003 C1008 0.949 . S
H1004 C1010 0.950 . S
H1005 C1011 0.950 . S
H1006 C1012 0.949 . S
C1007 H1002 0.950 . S
C1007 C1009 1.327 . S
C1007 C1013 1.429 . S
C1008 C1000 1.574 . S
C1008 H1003 0.949 . S
C1008 C1014 1.368 . S
C1009 C993 1.349 . S
C1009 H1001 0.950 . S
C1009 C1007 1.327 . S
C1010 C998 1.349 . S
C1010 H1004 0.950 . S
C1010 C1011 1.327 . S
C1011 H1005 0.950 . S
C1011 C1010 1.327 . S
C1011 C1015 1.429 . S
C1012 C995 1.574 . S
C1012 H1006 0.949 . S
C1012 C1016 1.368 . S
C1013 C994 1.429 . S
C1013 C1007 1.429 . S
C1013 C1014 1.523 . S
C1014 C995 1.368 . S
C1014 C1008 1.368 . S
C1014 C1013 1.523 . S
C1015 C999 1.429 . S
C1015 C1011 1.429 . S
C1015 C1016 1.523 . S
C1016 C1000 1.368 . S
C1016 C1012 1.368 . S
C1016 C1015 1.523 . S
H1017 C992 0.950 . S
H1018 C994 0.950 . S
H1019 C995 0.949 . S
H1020 C997 0.950 . S
H1021 C999 0.950 . S
C1022 C1023 1.349 . S
C1022 C1024 1.327 . S
C1022 H1047 0.950 . S
C1023 C1022 1.349 . S
C1023 C1039 1.349 . S
C1024 C1022 1.327 . S
C1024 C1043 1.429 . S
C1024 H1048 0.950 . S
C1025 C1042 1.574 . S
C1025 C1044 1.368 . S
C1025 H1049 0.949 . S
H1026 C1030 0.949 . S
C1027 C1028 1.349 . S
C1027 C1029 1.327 . S
C1027 H1050 0.950 . S
C1028 C1027 1.349 . S
C1028 C1040 1.349 . S
C1029 C1027 1.327 . S
C1029 C1045 1.429 1_556 S
C1029 H1051 0.950 . S
C1030 H1026 0.949 . S
C1030 C1038 1.574 . S
C1030 C1046 1.368 . S
H1031 C1039 0.950 1_655 S
H1032 C1037 0.950 1_655 S
H1033 C1038 0.949 . S
H1034 C1040 0.950 . S
H1035 C1041 0.950 . S
H1036 C1042 0.949 . S
C1037 H1032 0.950 1_455 S
C1037 C1039 1.327 . S
C1037 C1043 1.429 . S
C1038 C1030 1.574 . S
C1038 H1033 0.949 . S
C1038 C1044 1.368 . S
C1039 C1023 1.349 . S
C1039 H1031 0.950 1_455 S
C1039 C1037 1.327 . S
C1040 C1028 1.349 . S
C1040 H1034 0.950 . S
C1040 C1041 1.327 . S
C1041 H1035 0.950 . S
C1041 C1040 1.327 . S
C1041 C1045 1.429 1_556 S
C1042 C1025 1.574 . S
C1042 H1036 0.949 . S
C1042 C1046 1.368 . S
C1043 C1024 1.429 . S
C1043 C1037 1.429 . S
C1043 C1044 1.523 . S
C1044 C1025 1.368 . S
C1044 C1038 1.368 . S
C1044 C1043 1.523 . S
C1045 C1029 1.429 1_554 S
C1045 C1041 1.429 1_554 S
C1045 C1046 1.523 . S
C1046 C1030 1.368 . S
C1046 C1042 1.368 . S
C1046 C1045 1.523 . S
H1047 C1022 0.950 . S
H1048 C1024 0.950 . S
H1049 C1025 0.949 . S
H1050 C1027 0.950 . S
H1051 C1029 0.950 . S
C1052 C1053 1.349 . S
C1052 C1054 1.327 . S
C1052 H1077 0.950 . S
C1053 C1052 1.349 . S
C1053 C1069 1.349 . S
C1054 C1052 1.327 . S
C1054 C1073 1.429 . S
C1054 H1078 0.950 . S
C1055 C1072 1.574 . S
C1055 C1074 1.368 . S
C1055 H1079 0.949 . S
H1056 C1060 0.949 . S
C1057 C1058 1.349 . S
C1057 C1059 1.327 . S
C1057 H1080 0.950 . S
C1058 C1057 1.349 . S
C1058 C1070 1.349 . S
C1059 C1057 1.327 . S
C1059 C1075 1.429 . S
C1059 H1081 0.950 . S
C1060 H1056 0.949 . S
C1060 C1068 1.574 . S
C1060 C1076 1.368 . S
H1061 C1069 0.950 . S
H1062 C1067 0.950 . S
H1063 C1068 0.949 . S
H1064 C1070 0.950 . S
H1065 C1071 0.950 . S
H1066 C1072 0.949 . S
C1067 H1062 0.950 . S
C1067 C1069 1.327 . S
C1067 C1073 1.429 . S
C1068 C1060 1.574 . S
C1068 H1063 0.949 . S
C1068 C1074 1.368 . S
C1069 C1053 1.349 . S
C1069 H1061 0.950 . S
C1069 C1067 1.327 . S
C1070 C1058 1.349 . S
C1070 H1064 0.950 . S
C1070 C1071 1.327 . S
C1071 H1065 0.950 . S
C1071 C1070 1.327 . S
C1071 C1075 1.429 . S
C1072 C1055 1.574 . S
C1072 H1066 0.949 . S
C1072 C1076 1.368 . S
C1073 C1054 1.429 . S
C1073 C1067 1.429 . S
C1073 C1074 1.523 . S
C1074 C1055 1.368 . S
C1074 C1068 1.368 . S
C1074 C1073 1.523 . S
C1075 C1059 1.429 . S
C1075 C1071 1.429 . S
C1075 C1076 1.523 . S
C1076 C1060 1.368 . S
C1076 C1072 1.368 . S
C1076 C1075 1.523 . S
H1077 C1052 0.950 . S
H1078 C1054 0.950 . S
H1079 C1055 0.949 . S
H1080 C1057 0.950 . S
H1081 C1059 0.950 . S
C1082 C1083 1.349 . S
C1082 C1084 1.327 . S
C1082 H1107 0.950 . S
C1083 C1082 1.349 . S
C1083 C1099 1.349 . S
C1084 C1082 1.327 . S
C1084 C1103 1.429 . S
C1084 H1108 0.950 . S
C1085 C1102 1.574 . S
C1085 C1104 1.368 . S
C1085 H1109 0.949 . S
H1086 C1090 0.949 . S
C1087 C1088 1.349 . S
C1087 C1089 1.327 . S
C1087 H1110 0.950 . S
C1088 C1087 1.349 . S
C1088 C1100 1.349 . S
C1089 C1087 1.327 . S
C1089 C1105 1.429 1_554 S
C1089 H1111 0.950 . S
C1090 H1086 0.949 . S
C1090 C1098 1.574 . S
C1090 C1106 1.368 . S
H1091 C1099 0.950 1_655 S
H1092 C1097 0.963 . S
H1093 C1098 0.949 . S
H1094 C1100 0.950 . S
H1095 C1101 0.950 . S
H1096 C1102 0.949 . S
C1097 H1092 0.963 . S
C1097 C1099 1.327 . S
C1097 C1103 1.429 . S
C1098 C1090 1.574 . S
C1098 H1093 0.949 . S
C1098 C1104 1.368 . S
C1099 C1083 1.349 . S
C1099 H1091 0.950 1_455 S
C1099 C1097 1.327 . S
C1100 C1088 1.349 . S
C1100 H1094 0.950 . S
C1100 C1101 1.327 . S
C1101 H1095 0.950 . S
C1101 C1100 1.327 . S
C1101 C1105 1.429 1_554 S
C1102 C1085 1.574 . S
C1102 H1096 0.949 . S
C1102 C1106 1.368 . S
C1103 C1084 1.429 . S
C1103 C1097 1.429 . S
C1103 C1104 1.523 . S
C1104 C1085 1.368 . S
C1104 C1098 1.368 . S
C1104 C1103 1.523 . S
C1105 C1089 1.429 1_556 S
C1105 C1101 1.429 1_556 S
C1105 C1106 1.523 . S
C1106 C1090 1.368 . S
C1106 C1102 1.368 . S
C1106 C1105 1.523 . S
H1107 C1082 0.950 . S
H1108 C1084 0.950 . S
H1109 C1085 0.949 . S
H1110 C1087 0.950 . S
H1111 C1089 0.950 . S
C273 C124 0.610 . S
C278 C15 0.610 . S
C303 C90 0.610 . S
C308 C49 0.610 . S
C333 C56 2.862 . S
C338 C83 2.862 . S
C363 C22 2.862 . S
C368 C117 2.862 . S
C393 C151 0.610 . S
C398 C260 0.610 . S
C423 C185 0.610 . S
C428 C226 0.610 . S
C453 C192 2.862 . S
C458 C219 2.862 . S
C483 C158 2.862 . S
C488 C253 2.862 . S
C513 C74 1.484 . S
C518 C28 1.484 . S
C543 C108 1.484 . S
C548 C62 1.484 . S
C573 C210 1.484 . S
C578 C164 1.484 . S
C603 C244 1.484 . S
C608 C198 1.484 . S
C633 C1 1.108 . S
C638 C176 1.166 . S
C663 C35 1.108 . S
C668 C142 1.166 . S
C693 C266 1.166 . S
C698 C71 1.108 . S
C723 C232 1.166 . S
C728 C105 1.108 . S
C753 C40 1.166 . S
C758 C137 1.108 . S
C783 C6 1.166 . S
C788 C171 1.108 . S
C813 C130 1.166 . S
C818 C207 1.108 . S
C843 C96 1.166 . S
C848 C241 1.108 . S
C873 C3 1.428 1_556 S
C878 C17 1.579 . S
C903 C37 1.428 . S
C908 C51 1.579 . S
C933 C69 1.428 1_554 S
C938 C85 1.579 . S
C963 C103 1.428 . S
C968 C119 1.579 . S
C993 C139 1.428 1_556 S
C998 C153 1.579 . S
C1023 C173 1.428 . S
C1028 C187 1.579 . S
C1053 C205 1.428 1_554 S
C1058 C221 1.579 . S
C1083 C239 1.428 . S
C1088 C255 1.579 . S
