# Generated by pormake.
# Topology vmi, (6)-cn, num edge types: 1
# Building blocks:
#     Node 0, Type 0, BuildingBlock: OJICUG_clean_sbu_0, # of connection points: 6
#     Node 1, Type 0, BuildingBlock: OJICUG_clean_sbu_0, # of connection points: 6
#     Node 2, Type 0, BuildingBlock: OJICUG_clean_sbu_0, # of connection points: 6
#     Node 3, Type 0, BuildingBlock: OJICUG_clean_sbu_0, # of connection points: 6
#     Node 4, Type 0, BuildingBlock: OJICUG_clean_sbu_0, # of connection points: 6
#     Node 5, Type 0, BuildingBlock: OJICUG_clean_sbu_0, # of connection points: 6
#     Node 6, Type 0, BuildingBlock: OJICUG_clean_sbu_0, # of connection points: 6
#     Node 7, Type 0, BuildingBlock: OJICUG_clean_sbu_0, # of connection points: 6
#     Edge 8, Type (0, 0), BuildingBlock: EZIPEK_clean_linker_0, # of connection points: 2
#     Edge 9, Type (0, 0), BuildingBlock: EZIPEK_clean_linker_0, # of connection points: 2
#     Edge 10, Type (0, 0), BuildingBlock: EZIPEK_clean_linker_0, # of connection points: 2
#     Edge 11, Type (0, 0), BuildingBlock: EZIPEK_clean_linker_0, # of connection points: 2
#     Edge 12, Type (0, 0), BuildingBlock: EZIPEK_clean_linker_0, # of connection points: 2
#     Edge 13, Type (0, 0), BuildingBlock: EZIPEK_clean_linker_0, # of connection points: 2
#     Edge 14, Type (0, 0), BuildingBlock: EZIPEK_clean_linker_0, # of connection points: 2
#     Edge 15, Type (0, 0), BuildingBlock: EZIPEK_clean_linker_0, # of connection points: 2
#     Edge 16, Type (0, 0), BuildingBlock: EZIPEK_clean_linker_0, # of connection points: 2
#     Edge 17, Type (0, 0), BuildingBlock: EZIPEK_clean_linker_0, # of connection points: 2
#     Edge 18, Type (0, 0), BuildingBlock: EZIPEK_clean_linker_0, # of connection points: 2
#     Edge 19, Type (0, 0), BuildingBlock: EZIPEK_clean_linker_0, # of connection points: 2
#     Edge 20, Type (0, 0), BuildingBlock: EZIPEK_clean_linker_0, # of connection points: 2
#     Edge 21, Type (0, 0), BuildingBlock: EZIPEK_clean_linker_0, # of connection points: 2
#     Edge 22, Type (0, 0), BuildingBlock: EZIPEK_clean_linker_0, # of connection points: 2
#     Edge 23, Type (0, 0), BuildingBlock: EZIPEK_clean_linker_0, # of connection points: 2
#     Edge 24, Type (0, 0), BuildingBlock: EZIPEK_clean_linker_0, # of connection points: 2
#     Edge 25, Type (0, 0), BuildingBlock: EZIPEK_clean_linker_0, # of connection points: 2
#     Edge 26, Type (0, 0), BuildingBlock: EZIPEK_clean_linker_0, # of connection points: 2
#     Edge 27, Type (0, 0), BuildingBlock: EZIPEK_clean_linker_0, # of connection points: 2
#     Edge 28, Type (0, 0), BuildingBlock: EZIPEK_clean_linker_0, # of connection points: 2
#     Edge 29, Type (0, 0), BuildingBlock: EZIPEK_clean_linker_0, # of connection points: 2
#     Edge 30, Type (0, 0), BuildingBlock: EZIPEK_clean_linker_0, # of connection points: 2
#     Edge 31, Type (0, 0), BuildingBlock: EZIPEK_clean_linker_0, # of connection points: 2
# Relax obj value: 0.323
# Max RMSD: 0.296
# Mean RMSD: 0.296
data_MOF--net-vmi--node1-OJICUG_clean_sbu_0--edge1-EZIPEK_clean_linker_0
_symmetry_space_group_name_H-M    P1
_symmetry_Int_Tables_number       1
_symmetry_cell_setting            triclinic
loop_
_symmetry_equiv_pos_as_xyz
'x, y, z'
_cell_length_a     20.929963
_cell_length_b     35.501393
_cell_length_c     23.387899
_cell_angle_alpha  90.0776
_cell_angle_beta   110.93718
_cell_angle_gamma 89.918602
loop_
_atom_site_label
_atom_site_type_symbol
_atom_site_fract_x
_atom_site_fract_y
_atom_site_fract_z
_atom_type_partial_charge
Sc0 Sc 0.27147 0.07578 0.24509 0.0
Sc1 Sc 0.10736 0.09671 0.14671 0.0
Sc2 Sc 0.14391 0.01133 0.229 0.0
O3 O 0.17316 0.06127 0.20579 0.0
C4 C 0.28659 -0.0125 0.23323 0.0
C5 C 0.23798 0.08961 0.10486 0.0
C6 C 0.05361 0.01698 0.08978 0.0
C7 C 0.20609 0.15809 0.22278 0.0
C8 C 0.23005 0.04876 0.35339 0.0
C9 C 0.02001 0.06593 0.22439 0.0
O10 O 0.3102 0.01843 0.25961 0.0
O11 O 0.17868 0.1025 0.09864 0.0
O12 O 0.07705 -0.00185 0.13871 0.0
O13 O 0.25625 0.13563 0.23722 0.0
O14 O 0.21082 0.01841 0.32345 0.0
O15 O 0.03077 0.09032 0.18882 0.0
O16 O 0.25279 0.07623 0.33087 0.0
O17 O 0.14469 0.14704 0.1993 0.0
O18 O 0.05909 0.03771 0.24517 0.0
O19 O 0.27957 0.07566 0.15496 0.0
O20 O 0.22296 0.98117 0.20985 0.0
O21 O 0.06201 0.05203 0.08605 0.0
Sc22 Sc 0.32946 0.00952 0.71836 0.0
Sc23 Sc 0.38331 0.0905 0.80318 0.0
Sc24 Sc 0.20895 0.07602 0.7237 0.0
O25 O 0.30614 0.0592 0.74741 0.0
C26 C 0.2336 0.04996 0.60078 0.0
C27 C 0.45439 0.06238 0.71994 0.0
C28 C 0.27702 0.1558 0.73901 0.0
C29 C 0.42109 0.00935 0.85098 0.0
C30 C 0.18332 -0.01187 0.72175 0.0
C31 C 0.27707 0.08775 0.87081 0.0
O32 O 0.2845 0.02885 0.62763 0.0
O33 O 0.43288 0.09247 0.73679 0.0
O34 O 0.229 0.13358 0.71086 0.0
O35 O 0.37371 -0.00851 0.81072 0.0
O36 O 0.1693 0.02144 0.73254 0.0
O37 O 0.33832 0.08699 0.87195 0.0
O38 O 0.23697 0.97983 0.7113 0.0
O39 O 0.44197 0.04136 0.84149 0.0
O40 O 0.22435 0.08661 0.82087 0.0
O41 O 0.42673 0.03046 0.7197 0.0
O42 O 0.1967 0.06638 0.6272 0.0
O43 O 0.33498 0.14463 0.77516 0.0
Sc44 Sc 0.69928 0.89619 0.7132 0.0
Sc45 Sc 0.87042 0.87824 0.80115 0.0
Sc46 Sc 0.82596 0.96118 0.71406 0.0
O47 O 0.79872 0.91191 0.74264 0.0
C48 C 0.72968 0.91849 0.59421 0.0
C49 C 0.77126 0.81478 0.73352 0.0
C50 C 0.95572 0.9096 0.72426 0.0
C51 C 0.7495 0.88239 0.85531 0.0
C52 C 0.67968 0.98595 0.70988 0.0
C53 C 0.9132 0.96107 0.85318 0.0
O54 O 0.69867 0.89688 0.61972 0.0
O55 O 0.83223 0.82681 0.75294 0.0
O56 O 0.91745 0.93831 0.70745 0.0
O57 O 0.703 0.89543 0.80736 0.0
O58 O 0.7414 -0.00639 0.71881 0.0
O59 O 0.91467 0.92542 0.85662 0.0
O60 O 0.65702 0.95252 0.70338 0.0
O61 O 0.80828 0.8719 0.85686 0.0
O62 O 0.88281 0.97941 0.80459 0.0
O63 O 0.71984 0.83648 0.72016 0.0
O64 O 0.77153 0.94431 0.62192 0.0
O65 O 0.94256 0.88282 0.75427 0.0
Sc66 Sc 0.64922 0.96488 0.23035 0.0
Sc67 Sc 0.60563 0.88083 0.14882 0.0
Sc68 Sc 0.77764 0.89928 0.23745 0.0
O69 O 0.67783 0.91495 0.20564 0.0
C70 C 0.79845 -0.01158 0.23793 0.0
C71 C 0.56531 0.96262 0.09222 0.0
C72 C 0.72764 0.88318 0.09494 0.0
C73 C 0.51748 0.91482 0.21845 0.0
C74 C 0.74243 0.92484 0.35449 0.0
C75 C 0.70572 0.81819 0.22173 0.0
O76 O 0.73845 -0.00367 0.23475 0.0
O77 O 0.55748 0.92726 0.0928 0.0
O78 O 0.77532 0.89299 0.14455 0.0
O79 O 0.55214 0.94489 0.22873 0.0
O80 O 0.77929 0.90588 0.33111 0.0
O81 O 0.64498 0.83007 0.19794 0.0
O82 O 0.69441 0.94675 0.3229 0.0
O83 O 0.53575 0.8852 0.19786 0.0
O84 O 0.75718 0.8399 0.23754 0.0
O85 O 0.6029 0.98199 0.13733 0.0
O86 O 0.81953 0.9549 0.23943 0.0
O87 O 0.66705 0.87507 0.09182 0.0
Sc88 Sc 0.78116 0.57478 0.75315 0.0
Sc89 Sc 0.60921 0.59388 0.67225 0.0
Sc90 Sc 0.65627 0.51 0.75721 0.0
O91 O 0.68193 0.55945 0.72769 0.0
C92 C 0.79853 0.48525 0.75148 0.0
C93 C 0.72484 0.59166 0.61131 0.0
C94 C 0.56367 0.51172 0.61897 0.0
C95 C 0.71021 0.65624 0.73884 0.0
C96 C 0.75931 0.55058 0.87625 0.0
C97 C 0.53015 0.56135 0.75521 0.0
O98 O 0.82186 0.51851 0.75889 0.0
O99 O 0.66794 0.60298 0.61351 0.0
O100 O 0.59302 0.49323 0.66763 0.0
O101 O 0.76096 0.63448 0.74792 0.0
O102 O 0.71642 0.52519 0.84872 0.0
O103 O 0.53956 0.58715 0.72142 0.0
O104 O 0.78811 0.57269 0.8492 0.0
O105 O 0.64944 0.64413 0.72383 0.0
O106 O 0.56924 0.53301 0.77185 0.0
O107 O 0.77187 0.5767 0.65705 0.0
O108 O 0.73736 0.47767 0.74496 0.0
O109 O 0.56438 0.54735 0.61515 0.0
Sc110 Sc 0.83897 0.512 0.25173 0.0
Sc111 Sc 0.87505 0.6002 0.32222 0.0
Sc112 Sc 0.70727 0.57761 0.22947 0.0
O113 O 0.80699 0.56325 0.26772 0.0
C114 C 0.75534 0.54842 0.12155 0.0
C115 C 0.96905 0.56261 0.26036 0.0
C116 C 0.77401 0.65973 0.2422 0.0
C117 C 0.91889 0.52194 0.38996 0.0
C118 C 0.68778 0.48854 0.2364 0.0
C119 C 0.74779 0.5969 0.3705 0.0
O120 O 0.79753 0.52474 0.15615 0.0
O121 O 0.94927 0.59323 0.27729 0.0
O122 O 0.72389 0.63728 0.22836 0.0
O123 O 0.88298 0.50025 0.34737 0.0
O124 O 0.66525 0.52185 0.22556 0.0
O125 O 0.8079 0.60742 0.37476 0.0
O126 O 0.75014 0.48062 0.24893 0.0
O127 O 0.92468 0.55709 0.38462 0.0
O128 O 0.70329 0.58418 0.32082 0.0
O129 O 0.93555 0.53223 0.25317 0.0
O130 O 0.71718 0.5703 0.1397 0.0
O131 O 0.83529 0.64885 0.26675 0.0
Sc132 Sc 0.21053 0.39668 0.23358 0.0
Sc133 Sc 0.37614 0.37507 0.32211 0.0
Sc134 Sc 0.33648 0.46095 0.24265 0.0
O135 O 0.30873 0.41114 0.26697 0.0
C136 C 0.24464 0.42385 0.12092 0.0
C137 C 0.27937 0.31545 0.24558 0.0
C138 C 0.46127 0.40978 0.24429 0.0
C139 C 0.25378 0.37837 0.37236 0.0
C140 C 0.19682 0.48551 0.24682 0.0
C141 C 0.42735 0.45329 0.38235 0.0
O142 O 0.22208 0.39671 0.14445 0.0
O143 O 0.34008 0.32783 0.26153 0.0
O144 O 0.41702 0.43505 0.21871 0.0
O145 O 0.21144 0.39643 0.32709 0.0
O146 O 0.26081 0.49147 0.26719 0.0
O147 O 0.41462 0.41874 0.38641 0.0
O148 O 0.17163 0.45429 0.22226 0.0
O149 O 0.30688 0.36191 0.36969 0.0
O150 O 0.40918 0.47169 0.33258 0.0
O151 O 0.22895 0.33671 0.24056 0.0
O152 O 0.26362 0.45447 0.15005 0.0
O153 O 0.45414 0.38696 0.28353 0.0
Sc154 Sc 0.16017 0.45848 0.75886 0.0
Sc155 Sc 0.11465 0.3789 0.6639 0.0
Sc156 Sc 0.28561 0.39237 0.7587 0.0
O157 O 0.1869 0.40994 0.72723 0.0
C158 C 0.31034 0.4815 0.76954 0.0
C159 C 0.07976 0.46361 0.61956 0.0
C160 C 0.24083 0.38136 0.6152 0.0
C161 C 0.02445 0.40956 0.73554 0.0
C162 C 0.24848 0.41223 0.87687 0.0
C163 C 0.20809 0.31294 0.73247 0.0
O164 O 0.25034 0.48965 0.766 0.0
O165 O 0.07314 0.42822 0.61312 0.0
O166 O 0.28718 0.39049 0.66611 0.0
O167 O 0.06234 0.43812 0.75429 0.0
O168 O 0.28358 0.39337 0.85155 0.0
O169 O 0.1483 0.32601 0.70771 0.0
O170 O 0.20451 0.43727 0.84983 0.0
O171 O 0.04044 0.38206 0.70854 0.0
O172 O 0.26105 0.33343 0.75127 0.0
O173 O 0.11439 0.48033 0.66882 0.0
O174 O 0.33039 0.4479 0.7687 0.0
O175 O 0.17944 0.3737 0.60987 0.0
C176 C 0.4454 0.92656 0.28141 0.0
C177 C 0.44917 0.91765 0.22365 0.0
C178 C 0.3383 0.94789 0.17153 0.0
C179 C 0.33601 0.95848 0.22939 0.0
N180 N 0.37612 0.94907 0.3385 0.0
N181 N 0.39083 0.9088 0.11528 0.0
C182 C 0.38591 0.94472 0.28415 0.0
C183 C 0.39211 0.92412 0.1693 0.0
N184 N 0.50038 0.91924 0.33332 0.0
N185 N 0.29275 0.96305 0.11898 0.0
H186 H 0.42987 0.89162 0.11222 0.0
H187 H 0.34832 0.90992 0.07492 0.0
H188 H 0.25436 0.98186 0.11856 0.0
H189 H 0.29604 0.95946 0.07595 0.0
H190 H 0.50506 0.92917 0.37654 0.0
H191 H 0.54283 0.90413 0.33232 0.0
H192 H 0.4078 0.93715 0.37948 0.0
H193 H 0.33249 0.96191 0.34145 0.0
C194 C 0.08511 0.90971 0.76493 0.0
C195 C 0.0222 0.91179 0.71431 0.0
C196 C 0.07125 0.9572 0.66346 0.0
C197 C 0.13174 0.95843 0.71637 0.0
N198 N 0.20388 0.92999 0.81087 0.0
N199 N 0.96698 0.92327 0.60705 0.0
C200 C 0.14144 0.93239 0.76479 0.0
C201 C 0.02017 0.93032 0.66034 0.0
N202 N 0.08993 0.88758 0.81399 0.0
N203 N 0.06045 0.98328 0.61806 0.0
H204 H 0.92906 0.90366 0.60512 0.0
H205 H 0.96433 0.93377 0.56468 0.0
H206 H 0.09542 0.0045 0.61983 0.0
H207 H 0.01443 0.98592 0.58126 0.0
H208 H 0.12992 0.88897 0.85603 0.0
H209 H 0.05386 0.86708 0.81237 0.0
H210 H 0.21659 0.9097 0.84517 0.0
H211 H 0.24508 0.9471 0.81282 0.0
C212 C 0.63201 0.03048 0.76808 0.0
C213 C 0.63265 0.01694 0.7112 0.0
C214 C 0.52565 0.05022 0.65696 0.0
C215 C 0.5222 0.06095 0.71406 0.0
N216 N 0.58122 0.0732 0.82111 0.0
N217 N 0.59487 0.02452 0.60207 0.0
C218 C 0.57926 0.05553 0.76862 0.0
C219 C 0.58425 0.03047 0.6556 0.0
N220 N 0.67922 0.01756 0.82146 0.0
N221 N 0.4711 0.05725 0.60464 0.0
H222 H 0.63941 0.0117 0.6013 0.0
H223 H 0.56375 0.03557 0.56012 0.0
H224 H 0.42925 0.07317 0.60504 0.0
H225 H 0.4664 0.04646 0.56191 0.0
H226 H 0.67762 0.02319 0.86461 0.0
H227 H 0.71831 -0.00079 0.82223 0.0
H228 H 0.62332 0.07249 0.8618 0.0
H229 H 0.54298 0.09178 0.82203 0.0
C230 C 0.90123 0.02792 0.29421 0.0
C231 C 0.84605 0.0196 0.23913 0.0
C232 C 0.89177 0.06429 0.18359 0.0
C233 C 0.95369 0.06526 0.23472 0.0
N234 N 0.00603 0.06374 0.34352 0.0
N235 N 0.78488 0.03167 0.13184 0.0
C236 C 0.95437 0.0522 0.29193 0.0
C237 C 0.83926 0.03905 0.18418 0.0
N238 N 0.90418 0.01116 0.34768 0.0
N239 N 0.88264 0.08813 0.13558 0.0
H240 H 0.74435 0.01444 0.13112 0.0
H241 H 0.78156 0.04093 0.08865 0.0
H242 H 0.91798 0.10898 0.13663 0.0
H243 H 0.8369 0.09055 0.09846 0.0
H244 H 0.94616 0.01285 0.38832 0.0
H245 H 0.86454 -0.00548 0.35093 0.0
H246 H 0.00843 0.05791 0.38783 0.0
H247 H 0.04419 0.08195 0.34112 0.0
C248 C 0.90227 0.42571 0.68148 0.0
C249 C 0.95417 0.41311 0.73599 0.0
C250 C 0.88602 0.43479 0.79578 0.0
C251 C 0.84342 0.45489 0.74389 0.0
N252 N 0.80664 0.46834 0.63605 0.0
N253 N -0.00579 0.40229 0.84438 0.0
C254 C 0.84938 0.44938 0.68596 0.0
C255 C 0.9449 0.41602 0.79292 0.0
N256 N 0.9051 0.41611 0.62583 0.0
N257 N 0.86991 0.43381 0.84737 0.0
H258 H 0.03563 0.38669 0.84229 0.0
H259 H -0.00476 0.40725 0.88858 0.0
H260 H 0.82542 0.44626 0.84894 0.0
H261 H 0.89631 0.41776 0.88581 0.0
H262 H 0.86658 0.42215 0.58422 0.0
H263 H 0.94326 0.39889 0.62119 0.0
H264 H 0.81168 0.46852 0.59338 0.0
H265 H 0.76722 0.48563 0.63805 0.0
C266 C 0.58353 0.45033 0.17827 0.0
C267 C 0.6386 0.4578 0.234 0.0
C268 C 0.5905 0.41236 0.28667 0.0
C269 C 0.52856 0.41268 0.23543 0.0
N270 N 0.47902 0.41494 0.12656 0.0
N271 N 0.69656 0.44461 0.34171 0.0
C272 C 0.52924 0.42643 0.17909 0.0
C273 C 0.64361 0.43774 0.28808 0.0
N274 N 0.58184 0.46739 0.1254 0.0
N275 N 0.59997 0.38659 0.33222 0.0
H276 H 0.73727 0.46238 0.34491 0.0
H277 H 0.69781 0.43463 0.38396 0.0
H278 H 0.56519 0.36501 0.32894 0.0
H279 H 0.64604 0.38324 0.36873 0.0
H280 H 0.5396 0.46678 0.08481 0.0
H281 H 0.62262 0.48321 0.12265 0.0
H282 H 0.48009 0.41979 0.0831 0.0
H283 H 0.44019 0.39674 0.12747 0.0
C284 C 0.03958 0.5483 0.19687 0.0
C285 C 0.03703 0.55913 0.25435 0.0
C286 C 0.14821 0.52911 0.30696 0.0
C287 C 0.14869 0.51596 0.24961 0.0
N288 N 0.10629 0.52218 0.13987 0.0
N289 N 0.09654 0.57011 0.36173 0.0
C290 C 0.09805 0.52873 0.19442 0.0
C291 C 0.09456 0.55337 0.3085 0.0
N292 N 0.98419 0.5551 0.14504 0.0
N293 N 0.19589 0.51617 0.36009 0.0
H294 H 0.05756 0.5877 0.36395 0.0
H295 H 0.1392 0.56963 0.402 0.0
H296 H 0.23628 0.49889 0.36088 0.0
H297 H 0.1933 0.52056 0.40323 0.0
H298 H 0.9783 0.54394 0.10227 0.0
H299 H 0.94259 0.57114 0.14574 0.0
H300 H 0.07418 0.53319 0.0983 0.0
H301 H 0.14917 0.50841 0.13706 0.0
C302 C 0.40258 0.55899 0.71757 0.0
C303 C 0.46535 0.55913 0.7679 0.0
C304 C 0.41253 0.5211 0.82664 0.0
C305 C 0.35816 0.5126 0.77128 0.0
N306 N 0.29818 0.52478 0.66378 0.0
N307 N 0.52637 0.54784 0.8747 0.0
C308 C 0.35143 0.53251 0.71683 0.0
C309 C 0.46837 0.54314 0.82438 0.0
N310 N 0.39179 0.58414 0.67098 0.0
N311 N 0.41028 0.50808 0.88079 0.0
H312 H 0.56563 0.56579 0.87402 0.0
H313 H 0.53625 0.53379 0.916 0.0
H314 H 0.36868 0.49282 0.883 0.0
H315 H 0.44611 0.51487 0.92349 0.0
H316 H 0.34531 0.58681 0.63473 0.0
H317 H 0.42612 0.60573 0.67288 0.0
H318 H 0.29539 0.53485 0.62114 0.0
H319 H 0.25871 0.50632 0.66172 0.0
C320 C 0.04934 0.97481 0.00458 0.0
C321 C 0.01454 -0.00194 0.03301 0.0
C322 C 0.91662 0.00414 0.93807 0.0
C323 C 0.9515 0.98086 0.90957 0.0
N324 N 0.0559 0.95288 0.90882 0.0
N325 N 0.91159 0.0277 0.03369 0.0
C326 C 0.01938 0.96861 0.94103 0.0
C327 C 0.94706 0.01078 0.00158 0.0
N328 N 0.11058 0.95865 0.03825 0.0
N329 N 0.85601 0.02084 0.90433 0.0
H330 H 0.93257 0.03129 0.08107 0.0
H331 H 0.85994 0.03469 0.01512 0.0
H332 H 0.83291 0.01757 0.85726 0.0
H333 H 0.8313 0.04079 0.92171 0.0
H334 H 0.13528 0.93865 0.02093 0.0
H335 H 0.13445 0.9628 0.08514 0.0
H336 H 0.10775 0.94638 0.92768 0.0
H337 H 0.03569 0.95002 0.86126 0.0
C338 C 0.46021 -0.0124 0.01607 0.0
C339 C 0.531 0.98053 0.03373 0.0
C340 C 0.52666 0.98611 0.92884 0.0
C341 C 0.45571 -0.00691 0.9109 0.0
N342 N 0.35174 -0.00392 0.9332 0.0
N343 N 0.63502 0.97891 0.01214 0.0
C344 C 0.42135 -0.0074 0.9533 0.0
C345 C 0.56533 0.98152 -0.00843 0.0
N346 N 0.43135 -0.00921 0.05994 0.0
N347 N 0.55584 0.98219 0.88527 0.0
H348 H 0.66441 0.97491 0.0582 0.0
H349 H 0.66399 0.98383 0.98486 0.0
H350 H 0.52784 0.98462 0.83849 0.0
H351 H 0.60594 0.9733 0.89457 0.0
H352 H 0.38139 -0.00035 0.05132 0.0
H353 H 0.45958 -0.01244 0.10654 0.0
H354 H 0.32289 -0.00808 0.96078 0.0
H355 H 0.32166 0.00046 0.88745 0.0
C356 C 0.56296 0.46693 0.53668 0.0
C357 C 0.52712 0.49173 0.56233 0.0
C358 C 0.43439 0.49856 0.46434 0.0
C359 C 0.46715 0.47177 0.43947 0.0
N360 N 0.5611 0.42987 0.44902 0.0
N361 N 0.42235 0.52239 0.5567 0.0
C362 C 0.53113 0.45572 0.47496 0.0
C363 C 0.46075 0.50488 0.52787 0.0
N364 N 0.62816 0.45554 0.57006 0.0
N365 N 0.37847 0.51804 0.42756 0.0
H366 H 0.43978 0.52593 0.60415 0.0
H367 H 0.3711 0.5296 0.5348 0.0
H368 H 0.35706 0.51419 0.38042 0.0
H369 H 0.35684 0.54043 0.44313 0.0
H370 H 0.65986 0.44133 0.55168 0.0
H371 H 0.65305 0.46185 0.61608 0.0
H372 H 0.60276 0.41318 0.47354 0.0
H373 H 0.54259 0.42432 0.40214 0.0
C374 C 0.9804 0.50135 0.55824 0.0
C375 C 0.04472 0.48557 0.56544 0.0
C376 C 0.02341 0.49051 0.4566 0.0
C377 C 0.95895 0.50643 0.44909 0.0
N378 N 0.88091 0.5346 0.49191 0.0
N379 N 0.13556 0.47365 0.52784 0.0
C380 C 0.9389 0.51428 0.49979 0.0
C381 C 0.06877 0.48283 0.51638 0.0
N382 N 0.95821 0.50253 0.6066 0.0
N383 N 0.04092 0.48272 0.40674 0.0
H384 H 0.16976 0.46875 0.57218 0.0
H385 H 0.15839 0.47458 0.49498 0.0
H386 H 0.00949 0.48908 0.36198 0.0
H387 H 0.08454 0.46773 0.40903 0.0
H388 H 0.90881 0.51013 0.60272 0.0
H389 H 0.9886 0.49432 0.65078 0.0
H390 H 0.86777 0.54508 0.52783 0.0
H391 H 0.84792 0.54314 0.44897 0.0
C392 C 0.22594 0.06056 0.94431 0.0
C393 C 0.26808 0.08812 0.93147 0.0
C394 C 0.30199 0.11151 0.03799 0.0
C395 C 0.25408 0.08685 0.04795 0.0
N396 N 0.16823 0.03879 0.01074 0.0
N397 N 0.34357 0.142 0.96563 0.0
C398 C 0.21549 0.06175 0.00106 0.0
C399 C 0.30597 0.11397 0.97841 0.0
N400 N 0.19963 0.03147 0.90431 0.0
N401 N 0.34396 0.13251 0.08567 0.0
H402 H 0.35065 0.14468 0.92407 0.0
H403 H 0.36431 0.16455 -0.00519 0.0
H404 H 0.34032 0.13248 0.129 0.0
H405 H 0.38573 0.14771 0.084 0.0
H406 H 0.17569 0.0081 0.91456 0.0
H407 H 0.20776 0.02817 0.86321 0.0
H408 H 0.12969 0.02562 0.97518 0.0
H409 H 0.16573 0.03453 0.05395 0.0
C410 C 0.75916 0.91607 0.95189 0.0
C411 C 0.74002 0.8832 0.91511 0.0
C412 C 0.72548 0.84877 0.00047 0.0
C413 C 0.74075 0.8822 0.03635 0.0
N414 N 0.78454 0.94594 0.05084 0.0
N415 N 0.69837 0.81954 0.90044 0.0
C416 C 0.76121 0.9154 0.01343 0.0
C417 C 0.72144 0.84985 0.93838 0.0
N418 N 0.77299 0.94843 0.9269 0.0
N419 N 0.71941 0.8155 0.02744 0.0
H420 H 0.69495 0.81964 0.85481 0.0
H421 H 0.67771 0.79545 0.91227 0.0
H422 H 0.72745 0.81358 0.07398 0.0
H423 H 0.71377 0.78937 0.00604 0.0
H424 H 0.77698 0.97483 0.94715 0.0
H425 H 0.77598 0.94941 0.88339 0.0
H426 H 0.80913 0.96882 0.04012 0.0
H427 H 0.78253 0.94824 0.09447 0.0
C428 C 0.71834 0.56166 0.4522 0.0
C429 C 0.73289 0.59629 0.42869 0.0
C430 C 0.74852 0.627 0.52749 0.0
C431 C 0.73178 0.59277 0.55001 0.0
N432 N 0.68466 0.53025 0.52879 0.0
N433 N 0.7433 0.66359 0.43822 0.0
C434 C 0.71184 0.56096 0.5108 0.0
C435 C 0.74287 0.62947 0.4649 0.0
N436 N 0.71485 0.52883 0.42055 0.0
N437 N 0.77029 0.65708 0.56611 0.0
H438 H 0.73391 0.66609 0.3915 0.0
H439 H 0.74486 0.68928 0.46017 0.0
H440 H 0.77397 0.65627 0.61179 0.0
H441 H 0.78962 0.6817 0.55437 0.0
H442 H 0.71354 0.50234 0.43916 0.0
H443 H 0.72003 0.52745 0.37797 0.0
H444 H 0.6611 0.50834 0.49918 0.0
H445 H 0.68037 0.52819 0.57173 0.0
C446 C 0.27161 0.41348 0.53199 0.0
C447 C 0.25649 0.38 0.55775 0.0
C448 C 0.23456 0.34649 0.46051 0.0
C449 C 0.24827 0.37995 0.43403 0.0
N450 N 0.29254 0.44322 0.44683 0.0
N451 N 0.24735 0.31269 0.55405 0.0
C452 C 0.27034 0.41293 0.47048 0.0
C453 C 0.24465 0.34591 0.52399 0.0
N454 N 0.28671 0.44577 0.56616 0.0
N455 N 0.21087 0.3154 0.42466 0.0
H456 H 0.26046 0.31176 0.60148 0.0
H457 H 0.245 0.28633 0.53384 0.0
H458 H 0.20316 0.31493 0.37803 0.0
H459 H 0.19362 0.29124 0.43979 0.0
H460 H 0.29122 0.47224 0.54903 0.0
H461 H 0.29167 0.44676 0.61203 0.0
H462 H 0.31353 0.46726 0.47161 0.0
H463 H 0.29332 0.4437 0.40255 0.0
C464 C 0.17754 0.02914 0.43211 0.0
C465 C 0.22658 0.05108 0.41638 0.0
C466 C 0.26073 0.08093 0.51765 0.0
C467 C 0.21962 0.05516 0.53517 0.0
N468 N 0.15335 -0.00195 0.51371 0.0
N469 N 0.32965 0.0891 0.45528 0.0
C470 C 0.18214 0.02739 0.49378 0.0
C471 C 0.27192 0.07504 0.46188 0.0
N472 N 0.12502 0.01055 0.38913 0.0
N473 N 0.29206 0.10984 0.55588 0.0
H474 H 0.34639 0.08101 0.42019 0.0
H475 H 0.36649 0.10431 0.48949 0.0
H476 H 0.28695 0.11375 0.59826 0.0
H477 H 0.31772 0.1315 0.54305 0.0
H478 H 0.08569 -0.00252 0.39916 0.0
H479 H 0.1144 0.01176 0.34261 0.0
H480 H 0.13301 0.97439 0.48697 0.0
H481 H 0.15594 -0.00446 0.5588 0.0
C482 C 0.75981 0.88515 0.51292 0.0
C483 C 0.72187 0.91354 0.52952 0.0
C484 C 0.72504 0.95224 0.4454 0.0
C485 C 0.75111 0.92175 0.42088 0.0
N486 N 0.79679 0.85792 0.43527 0.0
N487 N 0.65277 0.96921 0.50166 0.0
C488 C 0.76952 0.88768 0.45558 0.0
C489 C 0.69887 0.94528 0.49195 0.0
N490 N 0.79011 0.85704 0.55347 0.0
N491 N 0.72819 -0.01175 0.4261 0.0
H492 H 0.63046 0.96314 0.534 0.0
H493 H 0.63134 -0.00807 0.47294 0.0
H494 H 0.75361 -0.0051 0.39627 0.0
H495 H 0.71357 0.01155 0.44575 0.0
H496 H 0.82581 0.83837 0.54777 0.0
H497 H 0.78274 0.85386 0.595 0.0
H498 H 0.79973 0.83092 0.45345 0.0
H499 H 0.81737 0.85988 0.40111 0.0
C500 C 0.78029 0.51917 0.97573 0.0
C501 C 0.77234 0.55343 0.94296 0.0
C502 C 0.76271 0.58612 0.03182 0.0
C503 C 0.75545 0.55098 0.05802 0.0
N504 N 0.74273 0.48342 0.04536 0.0
N505 N 0.74204 0.61953 0.93699 0.0
C506 C 0.76003 0.51724 0.02716 0.0
C507 C 0.75989 0.58712 0.97014 0.0
N508 N 0.80736 0.48844 0.95758 0.0
N509 N 0.7764 0.61815 0.06631 0.0
H510 H 0.73608 0.62106 0.89094 0.0
H511 H 0.7268 0.64374 0.954 0.0
H512 H 0.78568 0.61791 0.11314 0.0
H513 H 0.78705 0.64379 0.04994 0.0
H514 H 0.81854 0.46339 0.98246 0.0
H515 H 0.82609 0.49 0.92188 0.0
H516 H 0.7405 0.45854 0.02096 0.0
H517 H 0.72295 0.48103 0.0803 0.0
C518 C 0.30945 0.42833 0.98552 0.0
C519 C 0.25895 0.40669 0.94206 0.0
C520 C 0.19756 0.3983 0.01275 0.0
C521 C 0.24823 0.42004 0.05794 0.0
N522 N 0.34738 0.46215 0.08077 0.0
N523 N 0.1658 0.36316 0.91747 0.0
C524 C 0.30307 0.43675 0.04281 0.0
C525 C 0.20668 0.38904 0.95702 0.0
N526 N 0.36477 0.43999 0.97201 0.0
N527 N 0.13698 0.39012 0.01986 0.0
H528 H 0.17179 0.35616 0.87628 0.0
H529 H 0.13118 0.34609 0.92811 0.0
H530 H 0.12365 0.40071 0.05564 0.0
H531 H 0.09592 0.37723 0.98621 0.0
H532 H 0.40678 0.45425 0.0019 0.0
H533 H 0.37162 0.4325 0.93145 0.0
H534 H 0.37856 0.47993 0.06696 0.0
H535 H 0.35245 0.4681 0.12536 0.0
C536 C 0.21028 0.2207 0.17465 0.0
C537 C 0.22147 0.19889 0.22834 0.0
C538 C 0.28235 0.25172 0.29215 0.0
C539 C 0.26609 0.27448 0.23882 0.0
N540 N 0.20866 0.28252 0.1301 0.0
N541 N 0.25901 0.19452 0.3381 0.0
C542 C 0.22817 0.2595 0.18029 0.0
C543 C 0.25522 0.21464 0.28712 0.0
N544 N 0.18563 0.20395 0.11828 0.0
N545 N 0.3239 0.2655 0.34759 0.0
H546 H 0.23904 0.1674 0.33585 0.0
H547 H 0.27634 0.20564 0.38219 0.0
H548 H 0.34365 0.29272 0.35362 0.0
H549 H 0.34346 0.24913 0.38692 0.0
H550 H 0.18447 0.21711 0.07817 0.0
H551 H 0.17078 0.17582 0.11176 0.0
H552 H 0.17354 0.27466 0.08759 0.0
H553 H 0.2248 0.31043 0.13169 0.0
C554 C 0.23662 0.21571 0.68109 0.0
C555 C 0.25951 0.19618 0.73744 0.0
C556 C 0.24473 0.25305 0.79084 0.0
C557 C 0.21816 0.27189 0.73399 0.0
N558 N 0.17101 0.26791 0.62328 0.0
N559 N 0.26139 0.19272 0.84112 0.0
C560 C 0.2082 0.2522 0.67847 0.0
C561 C 0.25727 0.21385 0.79125 0.0
N562 N 0.2442 0.19998 0.63055 0.0
N563 N 0.25685 0.27232 0.84431 0.0
H564 H 0.26345 0.16347 0.84058 0.0
H565 H 0.25391 0.20367 0.87961 0.0
H566 H 0.24368 0.30058 0.84569 0.0
H567 H 0.28345 0.26069 0.88717 0.0
H568 H 0.23497 0.2146 0.58977 0.0
H569 H 0.26606 0.17351 0.63139 0.0
H570 H 0.15586 0.25287 0.58231 0.0
H571 H 0.15068 0.295 0.61846 0.0
C572 C 0.7665 0.71524 0.79243 0.0
C573 C 0.72277 0.69732 0.73842 0.0
C574 C 0.72027 0.75506 0.6795 0.0
C575 C 0.75895 0.77375 0.73443 0.0
N576 N 0.8097 0.77362 0.84503 0.0
N577 N 0.65287 0.70081 0.63065 0.0
C578 C 0.77993 0.75436 0.79139 0.0
C579 C 0.69778 0.7175 0.68203 0.0
N580 N 0.79598 0.6948 0.84483 0.0
N581 N 0.70764 0.77277 0.62462 0.0
H582 H 0.63821 0.67273 0.6286 0.0
H583 H 0.62641 0.71542 0.59058 0.0
H584 H 0.72372 0.8002 0.62129 0.0
H585 H 0.68675 0.75945 0.58233 0.0
H586 H 0.83535 0.70499 0.88313 0.0
H587 H 0.78439 0.66666 0.84884 0.0
H588 H 0.81728 0.76221 0.88796 0.0
H589 H 0.8221 0.80204 0.847 0.0
C590 C 0.71925 0.71584 0.17878 0.0
C591 C 0.75901 0.70065 0.2366 0.0
C592 C 0.7594 0.76207 0.28541 0.0
C593 C 0.71837 0.77703 0.22777 0.0
N594 N 0.65177 0.76739 0.12017 0.0
N595 N 0.81139 0.70761 0.3466 0.0
C596 C 0.69579 0.75366 0.1747 0.0
C597 C 0.77829 0.7234 0.29035 0.0
N598 N 0.70688 0.69454 0.12717 0.0
N599 N 0.77914 0.78498 0.33575 0.0
H600 H 0.82637 0.67953 0.35314 0.0
H601 H 0.82058 0.72137 0.38804 0.0
H602 H 0.75759 0.81148 0.33546 0.0
H603 H 0.81736 0.77841 0.37725 0.0
H604 H 0.68655 0.70509 0.08281 0.0
H605 H 0.72197 0.66655 0.12847 0.0
H606 H 0.62558 0.75045 0.08281 0.0
H607 H 0.63797 0.79557 0.11214 0.0
loop_
_geom_bond_atom_site_label_1
_geom_bond_atom_site_label_2
_geom_bond_distance
_geom_bond_site_symmetry_2
_ccdc_geom_bond_type
Sc0 O3 2.025 . S
Sc0 O10 2.105 . S
Sc0 O13 2.105 . S
Sc0 O16 2.105 . S
Sc0 O19 2.105 . S
Sc1 O3 2.025 . S
Sc1 O11 2.105 . S
Sc1 O15 2.105 . S
Sc1 O17 2.105 . S
Sc1 O21 2.105 . S
Sc2 O3 2.025 . S
Sc2 O12 2.104 . S
Sc2 O14 2.105 . S
Sc2 O18 2.105 . S
Sc2 O20 2.105 . S
O3 Sc0 2.025 . S
O3 Sc1 2.025 . S
O3 Sc2 2.025 . S
C4 O10 1.268 . S
C4 O20 1.268 . S
C5 O11 1.268 . S
C5 O19 1.268 . S
C6 O12 1.268 . S
C6 O21 1.268 . S
C7 O13 1.268 . S
C7 O17 1.268 . S
C8 O14 1.268 . S
C8 O16 1.268 . S
C9 O15 1.268 . S
C9 O18 1.268 . S
O10 Sc0 2.105 . S
O10 C4 1.268 . S
O11 Sc1 2.105 . S
O11 C5 1.268 . S
O12 Sc2 2.104 . S
O12 C6 1.268 . S
O13 Sc0 2.105 . S
O13 C7 1.268 . S
O14 Sc2 2.105 . S
O14 C8 1.268 . S
O15 Sc1 2.105 . S
O15 C9 1.268 . S
O16 Sc0 2.105 . S
O16 C8 1.268 . S
O17 Sc1 2.105 . S
O17 C7 1.268 . S
O18 Sc2 2.105 . S
O18 C9 1.268 . S
O19 Sc0 2.105 . S
O19 C5 1.268 . S
O20 Sc2 2.105 . S
O20 C4 1.268 . S
O21 Sc1 2.105 . S
O21 C6 1.268 . S
Sc22 O25 2.025 . S
Sc22 O32 2.105 . S
Sc22 O35 2.104 . S
Sc22 O38 2.105 . S
Sc22 O41 2.105 . S
Sc23 O25 2.025 . S
Sc23 O33 2.105 . S
Sc23 O37 2.105 . S
Sc23 O39 2.105 . S
Sc23 O43 2.105 . S
Sc24 O25 2.025 . S
Sc24 O34 2.105 . S
Sc24 O36 2.105 . S
Sc24 O40 2.105 . S
Sc24 O42 2.105 . S
O25 Sc22 2.025 . S
O25 Sc23 2.025 . S
O25 Sc24 2.025 . S
C26 O32 1.268 . S
C26 O42 1.268 . S
C27 O33 1.268 . S
C27 O41 1.268 . S
C28 O34 1.268 . S
C28 O43 1.268 . S
C29 O35 1.268 . S
C29 O39 1.268 . S
C30 O36 1.268 . S
C30 O38 1.268 . S
C31 O37 1.268 . S
C31 O40 1.268 . S
O32 Sc22 2.105 . S
O32 C26 1.268 . S
O33 Sc23 2.105 . S
O33 C27 1.268 . S
O34 Sc24 2.105 . S
O34 C28 1.268 . S
O35 Sc22 2.104 . S
O35 C29 1.268 . S
O36 Sc24 2.105 . S
O36 C30 1.268 . S
O37 Sc23 2.105 . S
O37 C31 1.268 . S
O38 Sc22 2.105 . S
O38 C30 1.268 . S
O39 Sc23 2.105 . S
O39 C29 1.268 . S
O40 Sc24 2.105 . S
O40 C31 1.268 . S
O41 Sc22 2.105 . S
O41 C27 1.268 . S
O42 Sc24 2.105 . S
O42 C26 1.268 . S
O43 Sc23 2.105 . S
O43 C28 1.268 . S
Sc44 O47 2.025 . S
Sc44 O54 2.105 . S
Sc44 O57 2.105 . S
Sc44 O60 2.105 . S
Sc44 O63 2.105 . S
Sc45 O47 2.025 . S
Sc45 O55 2.105 . S
Sc45 O59 2.105 . S
Sc45 O61 2.105 . S
Sc45 O65 2.105 . S
Sc46 O47 2.025 . S
Sc46 O56 2.105 . S
Sc46 O58 2.105 . S
Sc46 O62 2.104 . S
Sc46 O64 2.105 . S
O47 Sc44 2.025 . S
O47 Sc45 2.025 . S
O47 Sc46 2.025 . S
C48 O54 1.268 . S
C48 O64 1.268 . S
C49 O55 1.268 . S
C49 O63 1.268 . S
C50 O56 1.268 . S
C50 O65 1.268 . S
C51 O57 1.268 . S
C51 O61 1.268 . S
C52 O58 1.268 . S
C52 O60 1.268 . S
C53 O59 1.268 . S
C53 O62 1.268 . S
O54 Sc44 2.105 . S
O54 C48 1.268 . S
O55 Sc45 2.105 . S
O55 C49 1.268 . S
O56 Sc46 2.105 . S
O56 C50 1.268 . S
O57 Sc44 2.105 . S
O57 C51 1.268 . S
O58 Sc46 2.105 . S
O58 C52 1.268 . S
O59 Sc45 2.105 . S
O59 C53 1.268 . S
O60 Sc44 2.105 . S
O60 C52 1.268 . S
O61 Sc45 2.105 . S
O61 C51 1.268 . S
O62 Sc46 2.104 . S
O62 C53 1.268 . S
O63 Sc44 2.105 . S
O63 C49 1.268 . S
O64 Sc46 2.105 . S
O64 C48 1.268 . S
O65 Sc45 2.105 . S
O65 C50 1.268 . S
Sc66 O69 2.025 . S
Sc66 O76 2.105 . S
Sc66 O79 2.105 . S
Sc66 O82 2.105 . S
Sc66 O85 2.104 . S
Sc67 O69 2.025 . S
Sc67 O77 2.105 . S
Sc67 O81 2.105 . S
Sc67 O83 2.105 . S
Sc67 O87 2.105 . S
Sc68 O69 2.025 . S
Sc68 O78 2.105 . S
Sc68 O80 2.105 . S
Sc68 O84 2.105 . S
Sc68 O86 2.105 . S
O69 Sc66 2.025 . S
O69 Sc67 2.025 . S
O69 Sc68 2.025 . S
C70 O76 1.268 . S
C70 O86 1.268 . S
C71 O77 1.268 . S
C71 O85 1.268 . S
C72 O78 1.268 . S
C72 O87 1.268 . S
C73 O79 1.268 . S
C73 O83 1.268 . S
C74 O80 1.268 . S
C74 O82 1.268 . S
C75 O81 1.268 . S
C75 O84 1.268 . S
O76 Sc66 2.105 . S
O76 C70 1.268 . S
O77 Sc67 2.105 . S
O77 C71 1.268 . S
O78 Sc68 2.105 . S
O78 C72 1.268 . S
O79 Sc66 2.105 . S
O79 C73 1.268 . S
O80 Sc68 2.105 . S
O80 C74 1.268 . S
O81 Sc67 2.105 . S
O81 C75 1.268 . S
O82 Sc66 2.105 . S
O82 C74 1.268 . S
O83 Sc67 2.105 . S
O83 C73 1.268 . S
O84 Sc68 2.105 . S
O84 C75 1.268 . S
O85 Sc66 2.104 . S
O85 C71 1.268 . S
O86 Sc68 2.105 . S
O86 C70 1.268 . S
O87 Sc67 2.105 . S
O87 C72 1.268 . S
Sc88 O91 2.025 . S
Sc88 O98 2.105 . S
Sc88 O101 2.105 . S
Sc88 O104 2.105 . S
Sc88 O107 2.105 . S
Sc89 O91 2.025 . S
Sc89 O99 2.105 . S
Sc89 O103 2.105 . S
Sc89 O105 2.105 . S
Sc89 O109 2.105 . S
Sc90 O91 2.025 . S
Sc90 O100 2.105 . S
Sc90 O102 2.105 . S
Sc90 O106 2.105 . S
Sc90 O108 2.105 . S
O91 Sc88 2.025 . S
O91 Sc89 2.025 . S
O91 Sc90 2.025 . S
C92 O98 1.268 . S
C92 O108 1.268 . S
C93 O99 1.268 . S
C93 O107 1.268 . S
C94 O100 1.268 . S
C94 O109 1.268 . S
C95 O101 1.268 . S
C95 O105 1.268 . S
C96 O102 1.268 . S
C96 O104 1.268 . S
C97 O103 1.268 . S
C97 O106 1.268 . S
O98 Sc88 2.105 . S
O98 C92 1.268 . S
O99 Sc89 2.105 . S
O99 C93 1.268 . S
O100 Sc90 2.105 . S
O100 C94 1.268 . S
O101 Sc88 2.105 . S
O101 C95 1.268 . S
O102 Sc90 2.105 . S
O102 C96 1.268 . S
O103 Sc89 2.105 . S
O103 C97 1.268 . S
O104 Sc88 2.105 . S
O104 C96 1.268 . S
O105 Sc89 2.105 . S
O105 C95 1.268 . S
O106 Sc90 2.105 . S
O106 C97 1.268 . S
O107 Sc88 2.105 . S
O107 C93 1.268 . S
O108 Sc90 2.105 . S
O108 C92 1.268 . S
O109 Sc89 2.105 . S
O109 C94 1.268 . S
Sc110 O113 2.025 . S
Sc110 O120 2.105 . S
Sc110 O123 2.105 . S
Sc110 O126 2.105 . S
Sc110 O129 2.105 . S
Sc111 O113 2.025 . S
Sc111 O121 2.105 . S
Sc111 O125 2.105 . S
Sc111 O127 2.105 . S
Sc111 O131 2.105 . S
Sc112 O113 2.025 . S
Sc112 O122 2.105 . S
Sc112 O124 2.105 . S
Sc112 O128 2.105 . S
Sc112 O130 2.105 . S
O113 Sc110 2.025 . S
O113 Sc111 2.025 . S
O113 Sc112 2.025 . S
C114 O120 1.268 . S
C114 O130 1.268 . S
C115 O121 1.268 . S
C115 O129 1.268 . S
C116 O122 1.268 . S
C116 O131 1.268 . S
C117 O123 1.268 . S
C117 O127 1.268 . S
C118 O124 1.268 . S
C118 O126 1.268 . S
C119 O125 1.268 . S
C119 O128 1.268 . S
O120 Sc110 2.105 . S
O120 C114 1.268 . S
O121 Sc111 2.105 . S
O121 C115 1.268 . S
O122 Sc112 2.105 . S
O122 C116 1.268 . S
O123 Sc110 2.105 . S
O123 C117 1.268 . S
O124 Sc112 2.105 . S
O124 C118 1.268 . S
O125 Sc111 2.105 . S
O125 C119 1.268 . S
O126 Sc110 2.105 . S
O126 C118 1.268 . S
O127 Sc111 2.105 . S
O127 C117 1.268 . S
O128 Sc112 2.105 . S
O128 C119 1.268 . S
O129 Sc110 2.105 . S
O129 C115 1.268 . S
O130 Sc112 2.105 . S
O130 C114 1.268 . S
O131 Sc111 2.105 . S
O131 C116 1.268 . S
Sc132 O135 2.025 . S
Sc132 O142 2.105 . S
Sc132 O145 2.105 . S
Sc132 O148 2.105 . S
Sc132 O151 2.105 . S
Sc133 O135 2.025 . S
Sc133 O143 2.105 . S
Sc133 O147 2.105 . S
Sc133 O149 2.105 . S
Sc133 O153 2.105 . S
Sc134 O135 2.025 . S
Sc134 O144 2.105 . S
Sc134 O146 2.105 . S
Sc134 O150 2.105 . S
Sc134 O152 2.105 . S
O135 Sc132 2.025 . S
O135 Sc133 2.025 . S
O135 Sc134 2.025 . S
C136 O142 1.268 . S
C136 O152 1.268 . S
C137 O143 1.268 . S
C137 O151 1.268 . S
C138 O144 1.268 . S
C138 O153 1.268 . S
C139 O145 1.268 . S
C139 O149 1.268 . S
C140 O146 1.268 . S
C140 O148 1.268 . S
C141 O147 1.268 . S
C141 O150 1.268 . S
O142 Sc132 2.105 . S
O142 C136 1.268 . S
O143 Sc133 2.105 . S
O143 C137 1.268 . S
O144 Sc134 2.105 . S
O144 C138 1.268 . S
O145 Sc132 2.105 . S
O145 C139 1.268 . S
O146 Sc134 2.105 . S
O146 C140 1.268 . S
O147 Sc133 2.105 . S
O147 C141 1.268 . S
O148 Sc132 2.105 . S
O148 C140 1.268 . S
O149 Sc133 2.105 . S
O149 C139 1.268 . S
O150 Sc134 2.105 . S
O150 C141 1.268 . S
O151 Sc132 2.105 . S
O151 C137 1.268 . S
O152 Sc134 2.105 . S
O152 C136 1.268 . S
O153 Sc133 2.105 . S
O153 C138 1.268 . S
Sc154 O157 2.025 . S
Sc154 O164 2.105 . S
Sc154 O167 2.105 . S
Sc154 O170 2.105 . S
Sc154 O173 2.105 . S
Sc155 O157 2.025 . S
Sc155 O165 2.105 . S
Sc155 O169 2.105 . S
Sc155 O171 2.105 . S
Sc155 O175 2.105 . S
Sc156 O157 2.025 . S
Sc156 O166 2.105 . S
Sc156 O168 2.105 . S
Sc156 O172 2.105 . S
Sc156 O174 2.105 . S
O157 Sc154 2.025 . S
O157 Sc155 2.025 . S
O157 Sc156 2.025 . S
C158 O164 1.268 . S
C158 O174 1.268 . S
C159 O165 1.268 . S
C159 O173 1.268 . S
C160 O166 1.268 . S
C160 O175 1.268 . S
C161 O167 1.268 . S
C161 O171 1.268 . S
C162 O168 1.268 . S
C162 O170 1.268 . S
C163 O169 1.268 . S
C163 O172 1.268 . S
O164 Sc154 2.105 . S
O164 C158 1.268 . S
O165 Sc155 2.105 . S
O165 C159 1.268 . S
O166 Sc156 2.105 . S
O166 C160 1.268 . S
O167 Sc154 2.105 . S
O167 C161 1.268 . S
O168 Sc156 2.105 . S
O168 C162 1.268 . S
O169 Sc155 2.105 . S
O169 C163 1.268 . S
O170 Sc154 2.105 . S
O170 C162 1.268 . S
O171 Sc155 2.105 . S
O171 C161 1.268 . S
O172 Sc156 2.105 . S
O172 C163 1.268 . S
O173 Sc154 2.105 . S
O173 C159 1.268 . S
O174 Sc156 2.105 . S
O174 C158 1.268 . S
O175 Sc155 2.105 . S
O175 C160 1.268 . S
C176 C177 1.363 . S
C176 C182 1.379 . S
C176 N184 1.356 . S
C177 C176 1.363 . S
C177 C183 1.363 . S
C178 C179 1.356 1_545 S
C178 C183 1.362 1_545 S
C178 N185 1.381 . S
C179 C178 1.356 1_565 S
C179 C182 1.363 . S
N180 C182 1.356 . S
N180 H192 0.984 . S
N180 H193 0.985 . S
N181 C183 1.356 . S
N181 H186 0.984 . S
N181 H187 0.970 1_565 S
C182 C176 1.379 . S
C182 C179 1.363 . S
C182 N180 1.356 . S
C183 C177 1.363 . S
C183 C178 1.362 1_565 S
C183 N181 1.356 . S
N184 C176 1.356 . S
N184 H190 0.984 . S
N184 H191 0.984 . S
N185 C178 1.381 . S
N185 H188 0.984 . S
N185 H189 0.985 . S
H186 N181 0.984 . S
H187 N181 0.970 1_545 S
H188 N185 0.984 . S
H189 N185 0.985 . S
H190 N184 0.984 . S
H191 N184 0.984 . S
H192 N180 0.984 . S
H193 N180 0.985 . S
C194 C195 1.363 . S
C194 C200 1.379 . S
C194 N202 1.356 . S
C195 C194 1.363 . S
C195 C201 1.363 . S
C196 C197 1.363 1_545 S
C196 C201 1.379 1_545 S
C196 N203 1.356 . S
C197 C196 1.363 1_565 S
C197 C200 1.363 . S
N198 C200 1.356 . S
N198 H210 0.984 . S
N198 H211 0.985 . S
N199 C201 1.356 1_655 S
N199 H204 0.984 . S
N199 H205 0.985 1_565 S
C200 C194 1.379 . S
C200 C197 1.363 . S
C200 N198 1.356 . S
C201 C195 1.363 . S
C201 C196 1.379 1_565 S
C201 N199 1.356 1_455 S
N202 C194 1.356 . S
N202 H208 0.984 . S
N202 H209 0.984 . S
N203 C196 1.356 . S
N203 H206 0.984 . S
N203 H207 0.985 . S
H204 N199 0.984 . S
H205 N199 0.985 1_545 S
H206 N203 0.984 . S
H207 N203 0.985 . S
H208 N202 0.984 . S
H209 N202 0.984 . S
H210 N198 0.984 . S
H211 N198 0.985 . S
C212 C213 1.363 . S
C212 C218 1.379 . S
C212 N220 1.356 . S
C213 C212 1.363 . S
C213 C219 1.363 1_545 S
C214 C215 1.363 . S
C214 C219 1.379 1_545 S
C214 N221 1.356 . S
C215 C214 1.363 . S
C215 C218 1.363 . S
N216 C218 1.356 . S
N216 H228 0.984 . S
N216 H229 0.985 . S
N217 C219 1.356 . S
N217 H222 0.984 . S
N217 H223 0.985 . S
C218 C212 1.379 . S
C218 C215 1.363 . S
C218 N216 1.356 . S
C219 C213 1.363 1_565 S
C219 C214 1.379 1_565 S
C219 N217 1.356 . S
N220 C212 1.356 . S
N220 H226 0.984 . S
N220 H227 0.984 . S
N221 C214 1.356 . S
N221 H224 0.984 . S
N221 H225 0.985 1_545 S
H222 N217 0.984 . S
H223 N217 0.985 . S
H224 N221 0.984 . S
H225 N221 0.985 1_565 S
H226 N220 0.984 . S
H227 N220 0.984 . S
H228 N216 0.984 . S
H229 N216 0.985 . S
C230 C231 1.363 . S
C230 C236 1.379 . S
C230 N238 1.356 . S
C231 C230 1.363 . S
C231 C237 1.363 . S
C232 C233 1.363 . S
C232 C237 1.379 . S
C232 N239 1.356 . S
C233 C232 1.363 . S
C233 C236 1.363 . S
N234 C236 1.356 1_455 S
N234 H246 0.984 . S
N234 H247 0.985 . S
N235 C237 1.356 1_565 S
N235 H240 0.984 . S
N235 H241 0.985 . S
C236 C230 1.379 . S
C236 C233 1.363 . S
C236 N234 1.356 1_655 S
C237 C231 1.363 . S
C237 C232 1.379 . S
C237 N235 1.356 1_545 S
N238 C230 1.356 . S
N238 H244 0.984 . S
N238 H245 0.970 1_545 S
N239 C232 1.356 . S
N239 H242 0.984 1_655 S
N239 H243 0.985 . S
H240 N235 0.984 . S
H241 N235 0.985 . S
H242 N239 0.984 1_455 S
H243 N239 0.985 . S
H244 N238 0.984 . S
H245 N238 0.970 1_565 S
H246 N234 0.984 . S
H247 N234 0.985 . S
C248 C249 1.363 . S
C248 C254 1.379 . S
C248 N256 1.356 1_655 S
C249 C248 1.363 . S
C249 C255 1.363 . S
C250 C251 1.363 . S
C250 C255 1.379 . S
C250 N257 1.356 . S
C251 C250 1.363 . S
C251 C254 1.363 . S
N252 C254 1.356 . S
N252 H264 0.984 . S
N252 H265 0.985 . S
N253 C255 1.356 . S
N253 H258 0.984 1_655 S
N253 H259 0.985 . S
C254 C248 1.379 . S
C254 C251 1.363 . S
C254 N252 1.356 . S
C255 C249 1.363 . S
C255 C250 1.379 . S
C255 N253 1.356 . S
N256 C248 1.356 1_455 S
N256 H262 0.984 . S
N256 H263 0.984 . S
N257 C250 1.356 . S
N257 H260 0.984 . S
N257 H261 0.985 . S
H258 N253 0.984 1_455 S
H259 N253 0.985 . S
H260 N257 0.984 . S
H261 N257 0.985 . S
H262 N256 0.984 . S
H263 N256 0.984 . S
H264 N252 0.984 . S
H265 N252 0.985 . S
C266 C267 1.363 . S
C266 C272 1.379 . S
C266 N274 1.356 . S
C267 C266 1.363 . S
C267 C273 1.363 . S
C268 C269 1.363 . S
C268 C273 1.379 . S
C268 N275 1.356 . S
C269 C268 1.363 . S
C269 C272 1.363 . S
N270 C272 1.356 . S
N270 H282 0.984 . S
N270 H283 0.985 . S
N271 C273 1.356 . S
N271 H276 0.984 . S
N271 H277 0.985 . S
C272 C266 1.379 . S
C272 C269 1.363 . S
C272 N270 1.356 . S
C273 C267 1.363 . S
C273 C268 1.379 . S
C273 N271 1.356 . S
N274 C266 1.356 . S
N274 H280 0.984 . S
N274 H281 0.984 . S
N275 C268 1.356 . S
N275 H278 0.984 . S
N275 H279 0.985 . S
H276 N271 0.984 . S
H277 N271 0.985 . S
H278 N275 0.984 . S
H279 N275 0.985 . S
H280 N274 0.984 . S
H281 N274 0.984 . S
H282 N270 0.984 . S
H283 N270 0.985 . S
C284 C285 1.363 . S
C284 C290 1.379 . S
C284 N292 1.356 . S
C285 C284 1.363 . S
C285 C291 1.363 . S
C286 C287 1.363 . S
C286 C291 1.379 . S
C286 N293 1.356 . S
C287 C286 1.363 . S
C287 C290 1.363 . S
N288 C290 1.356 . S
N288 H300 0.984 . S
N288 H301 0.985 . S
N289 C291 1.356 1_655 S
N289 H294 0.984 . S
N289 H295 0.985 . S
C290 C284 1.379 . S
C290 C287 1.363 . S
C290 N288 1.356 . S
C291 C285 1.363 . S
C291 C286 1.379 . S
C291 N289 1.356 1_455 S
N292 C284 1.356 . S
N292 H298 0.984 . S
N292 H299 0.984 . S
N293 C286 1.356 . S
N293 H296 0.984 . S
N293 H297 0.985 . S
H294 N289 0.984 . S
H295 N289 0.985 . S
H296 N293 0.984 . S
H297 N293 0.985 . S
H298 N292 0.984 . S
H299 N292 0.984 . S
H300 N288 0.984 . S
H301 N288 0.985 . S
C302 C303 1.363 . S
C302 C308 1.379 . S
C302 N310 1.356 . S
C303 C302 1.363 . S
C303 C309 1.363 . S
C304 C305 1.363 . S
C304 C309 1.379 . S
C304 N311 1.356 . S
C305 C304 1.363 . S
C305 C308 1.363 . S
N306 C308 1.356 . S
N306 H318 0.984 . S
N306 H319 0.985 . S
N307 C309 1.356 . S
N307 H312 0.984 . S
N307 H313 0.985 . S
C308 C302 1.379 . S
C308 C305 1.363 . S
C308 N306 1.356 . S
C309 C303 1.363 . S
C309 C304 1.379 . S
C309 N307 1.356 . S
N310 C302 1.356 . S
N310 H316 0.984 . S
N310 H317 0.984 . S
N311 C304 1.356 . S
N311 H314 0.984 . S
N311 H315 0.985 . S
H312 N307 0.984 . S
H313 N307 0.985 . S
H314 N311 0.984 . S
H315 N311 0.985 . S
H316 N310 0.984 . S
H317 N310 0.984 . S
H318 N306 0.984 . S
H319 N306 0.985 . S
C320 C321 1.365 . S
C320 C326 1.379 1_454 S
C320 N328 1.356 . S
C321 C320 1.365 . S
C321 C327 1.361 1_565 S
C322 C323 1.365 . S
C322 C327 1.379 1_656 S
C322 N329 1.356 . S
C323 C322 1.365 . S
C323 C326 1.361 1_545 S
N324 C326 1.356 . S
N324 H336 0.984 . S
N324 H337 0.985 . S
N325 C327 1.356 . S
N325 H330 0.984 . S
N325 H331 0.985 . S
C326 C320 1.379 1_656 S
C326 C323 1.361 1_565 S
C326 N324 1.356 . S
C327 C321 1.361 1_545 S
C327 C322 1.379 1_454 S
C327 N325 1.356 . S
N328 C320 1.356 . S
N328 H334 0.984 . S
N328 H335 0.984 . S
N329 C322 1.356 . S
N329 H332 0.984 . S
N329 H333 0.985 . S
H330 N325 0.984 . S
H331 N325 0.985 . S
H332 N329 0.984 . S
H333 N329 0.985 . S
H334 N328 0.984 . S
H335 N328 0.984 . S
H336 N324 0.984 . S
H337 N324 0.985 . S
C338 C339 1.365 . S
C338 C344 1.379 1_554 S
C338 N346 1.356 . S
C339 C338 1.365 . S
C339 C345 1.361 1_545 S
C340 C341 1.365 . S
C340 C345 1.379 1_556 S
C340 N347 1.356 . S
C341 C340 1.365 . S
C341 C344 1.361 1_565 S
N342 C344 1.356 . S
N342 H354 0.984 . S
N342 H355 0.985 . S
N343 C345 1.356 . S
N343 H348 0.984 . S
N343 H349 0.985 . S
C344 C338 1.379 1_556 S
C344 C341 1.361 1_545 S
C344 N342 1.356 . S
C345 C339 1.361 1_565 S
C345 C340 1.379 1_554 S
C345 N343 1.356 . S
N346 C338 1.356 . S
N346 H352 0.984 . S
N346 H353 0.984 . S
N347 C340 1.356 . S
N347 H350 0.984 . S
N347 H351 0.985 . S
H348 N343 0.984 . S
H349 N343 0.985 . S
H350 N347 0.984 . S
H351 N347 0.985 . S
H352 N346 0.984 . S
H353 N346 0.984 . S
H354 N342 0.984 . S
H355 N342 0.985 . S
C356 C357 1.363 . S
C356 C362 1.379 . S
C356 N364 1.356 . S
C357 C356 1.363 . S
C357 C363 1.363 . S
C358 C359 1.363 . S
C358 C363 1.379 . S
C358 N365 1.356 . S
C359 C358 1.363 . S
C359 C362 1.363 . S
N360 C362 1.356 . S
N360 H372 0.984 . S
N360 H373 0.985 . S
N361 C363 1.356 . S
N361 H366 0.984 . S
N361 H367 0.985 . S
C362 C356 1.379 . S
C362 C359 1.363 . S
C362 N360 1.356 . S
C363 C357 1.363 . S
C363 C358 1.379 . S
C363 N361 1.356 . S
N364 C356 1.356 . S
N364 H370 0.984 . S
N364 H371 0.984 . S
N365 C358 1.356 . S
N365 H368 0.984 . S
N365 H369 0.985 . S
H366 N361 0.984 . S
H367 N361 0.985 . S
H368 N365 0.984 . S
H369 N365 0.985 . S
H370 N364 0.984 . S
H371 N364 0.984 . S
H372 N360 0.984 . S
H373 N360 0.985 . S
C374 C375 1.363 . S
C374 C380 1.379 1_455 S
C374 N382 1.356 . S
C375 C374 1.363 . S
C375 C381 1.363 . S
C376 C377 1.363 . S
C376 C381 1.379 1_655 S
C376 N383 1.356 . S
C377 C376 1.363 . S
C377 C380 1.363 . S
N378 C380 1.356 . S
N378 H390 0.984 . S
N378 H391 0.985 . S
N379 C381 1.356 . S
N379 H384 0.984 . S
N379 H385 0.985 . S
C380 C374 1.379 1_655 S
C380 C377 1.363 . S
C380 N378 1.356 . S
C381 C375 1.363 . S
C381 C376 1.379 1_455 S
C381 N379 1.356 . S
N382 C374 1.356 . S
N382 H388 0.984 . S
N382 H389 0.984 . S
N383 C376 1.356 . S
N383 H386 0.984 . S
N383 H387 0.985 . S
H384 N379 0.984 . S
H385 N379 0.985 . S
H386 N383 0.984 . S
H387 N383 0.985 . S
H388 N382 0.984 . S
H389 N382 0.984 . S
H390 N378 0.984 . S
H391 N378 0.985 . S
C392 C393 1.363 . S
C392 C398 1.379 1_556 S
C392 N400 1.356 . S
C393 C392 1.363 . S
C393 C399 1.363 . S
C394 C395 1.363 . S
C394 C399 1.379 1_554 S
C394 N401 1.356 . S
C395 C394 1.363 . S
C395 C398 1.363 . S
N396 C398 1.356 . S
N396 H408 0.984 . S
N396 H409 0.985 . S
N397 C399 1.356 . S
N397 H402 0.984 . S
N397 H403 0.985 . S
C398 C392 1.379 1_554 S
C398 C395 1.363 . S
C398 N396 1.356 . S
C399 C393 1.363 . S
C399 C394 1.379 1_556 S
C399 N397 1.356 . S
N400 C392 1.356 . S
N400 H406 0.984 . S
N400 H407 0.984 . S
N401 C394 1.356 . S
N401 H404 0.984 . S
N401 H405 0.985 . S
H402 N397 0.984 . S
H403 N397 0.985 . S
H404 N401 0.984 . S
H405 N401 0.985 . S
H406 N400 0.984 . S
H407 N400 0.984 . S
H408 N396 0.984 . S
H409 N396 0.985 . S
C410 C411 1.363 . S
C410 C416 1.379 1_556 S
C410 N418 1.356 . S
C411 C410 1.363 . S
C411 C417 1.363 . S
C412 C413 1.363 . S
C412 C417 1.379 1_554 S
C412 N419 1.356 . S
C413 C412 1.363 . S
C413 C416 1.363 . S
N414 C416 1.356 . S
N414 H426 0.984 . S
N414 H427 0.985 . S
N415 C417 1.356 . S
N415 H420 0.984 . S
N415 H421 0.985 . S
C416 C410 1.379 1_554 S
C416 C413 1.363 . S
C416 N414 1.356 . S
C417 C411 1.363 . S
C417 C412 1.379 1_556 S
C417 N415 1.356 . S
N418 C410 1.356 . S
N418 H424 0.984 . S
N418 H425 0.984 . S
N419 C412 1.356 . S
N419 H422 0.984 . S
N419 H423 0.985 . S
H420 N415 0.984 . S
H421 N415 0.985 . S
H422 N419 0.984 . S
H423 N419 0.985 . S
H424 N418 0.984 . S
H425 N418 0.984 . S
H426 N414 0.984 . S
H427 N414 0.985 . S
C428 C429 1.363 . S
C428 C434 1.379 . S
C428 N436 1.356 . S
C429 C428 1.363 . S
C429 C435 1.363 . S
C430 C431 1.363 . S
C430 C435 1.379 . S
C430 N437 1.356 . S
C431 C430 1.363 . S
C431 C434 1.363 . S
N432 C434 1.356 . S
N432 H444 0.984 . S
N432 H445 0.985 . S
N433 C435 1.356 . S
N433 H438 0.984 . S
N433 H439 0.985 . S
C434 C428 1.379 . S
C434 C431 1.363 . S
C434 N432 1.356 . S
C435 C429 1.363 . S
C435 C430 1.379 . S
C435 N433 1.356 . S
N436 C428 1.356 . S
N436 H442 0.984 . S
N436 H443 0.984 . S
N437 C430 1.356 . S
N437 H440 0.984 . S
N437 H441 0.985 . S
H438 N433 0.984 . S
H439 N433 0.985 . S
H440 N437 0.984 . S
H441 N437 0.985 . S
H442 N436 0.984 . S
H443 N436 0.984 . S
H444 N432 0.984 . S
H445 N432 0.985 . S
C446 C447 1.363 . S
C446 C452 1.379 . S
C446 N454 1.356 . S
C447 C446 1.363 . S
C447 C453 1.363 . S
C448 C449 1.363 . S
C448 C453 1.379 . S
C448 N455 1.356 . S
C449 C448 1.363 . S
C449 C452 1.363 . S
N450 C452 1.356 . S
N450 H462 0.984 . S
N450 H463 0.985 . S
N451 C453 1.356 . S
N451 H456 0.984 . S
N451 H457 0.985 . S
C452 C446 1.379 . S
C452 C449 1.363 . S
C452 N450 1.356 . S
C453 C447 1.363 . S
C453 C448 1.379 . S
C453 N451 1.356 . S
N454 C446 1.356 . S
N454 H460 0.984 . S
N454 H461 0.984 . S
N455 C448 1.356 . S
N455 H458 0.984 . S
N455 H459 0.985 . S
H456 N451 0.984 . S
H457 N451 0.985 . S
H458 N455 0.984 . S
H459 N455 0.985 . S
H460 N454 0.984 . S
H461 N454 0.984 . S
H462 N450 0.984 . S
H463 N450 0.985 . S
C464 C465 1.363 . S
C464 C470 1.379 . S
C464 N472 1.356 . S
C465 C464 1.363 . S
C465 C471 1.363 . S
C466 C467 1.363 . S
C466 C471 1.379 . S
C466 N473 1.356 . S
C467 C466 1.363 . S
C467 C470 1.363 . S
N468 C470 1.356 . S
N468 H480 0.984 . S
N468 H481 0.985 . S
N469 C471 1.356 . S
N469 H474 0.984 . S
N469 H475 0.985 . S
C470 C464 1.379 . S
C470 C467 1.363 . S
C470 N468 1.356 . S
C471 C465 1.363 . S
C471 C466 1.379 . S
C471 N469 1.356 . S
N472 C464 1.356 . S
N472 H478 0.984 . S
N472 H479 0.984 . S
N473 C466 1.356 . S
N473 H476 0.984 . S
N473 H477 0.985 . S
H474 N469 0.984 . S
H475 N469 0.985 . S
H476 N473 0.984 . S
H477 N473 0.985 . S
H478 N472 0.984 . S
H479 N472 0.984 . S
H480 N468 0.984 . S
H481 N468 0.985 . S
C482 C483 1.363 . S
C482 C488 1.379 . S
C482 N490 1.356 . S
C483 C482 1.363 . S
C483 C489 1.363 . S
C484 C485 1.363 . S
C484 C489 1.379 . S
C484 N491 1.356 . S
C485 C484 1.363 . S
C485 C488 1.363 . S
N486 C488 1.356 . S
N486 H498 0.984 . S
N486 H499 0.985 . S
N487 C489 1.356 . S
N487 H492 0.984 . S
N487 H493 0.985 . S
C488 C482 1.379 . S
C488 C485 1.363 . S
C488 N486 1.356 . S
C489 C483 1.363 . S
C489 C484 1.379 . S
C489 N487 1.356 . S
N490 C482 1.356 . S
N490 H496 0.984 . S
N490 H497 0.984 . S
N491 C484 1.356 . S
N491 H494 0.984 . S
N491 H495 0.985 . S
H492 N487 0.984 . S
H493 N487 0.985 . S
H494 N491 0.984 . S
H495 N491 0.985 . S
H496 N490 0.984 . S
H497 N490 0.984 . S
H498 N486 0.984 . S
H499 N486 0.985 . S
C500 C501 1.363 . S
C500 C506 1.379 1_556 S
C500 N508 1.356 . S
C501 C500 1.363 . S
C501 C507 1.363 . S
C502 C503 1.363 . S
C502 C507 1.379 1_554 S
C502 N509 1.356 . S
C503 C502 1.363 . S
C503 C506 1.363 . S
N504 C506 1.356 . S
N504 H516 0.984 . S
N504 H517 0.985 . S
N505 C507 1.356 . S
N505 H510 0.984 . S
N505 H511 0.985 . S
C506 C500 1.379 1_554 S
C506 C503 1.363 . S
C506 N504 1.356 . S
C507 C501 1.363 . S
C507 C502 1.379 1_556 S
C507 N505 1.356 . S
N508 C500 1.356 . S
N508 H514 0.984 . S
N508 H515 0.984 . S
N509 C502 1.356 . S
N509 H512 0.984 . S
N509 H513 0.985 . S
H510 N505 0.984 . S
H511 N505 0.985 . S
H512 N509 0.984 . S
H513 N509 0.985 . S
H514 N508 0.984 . S
H515 N508 0.984 . S
H516 N504 0.984 . S
H517 N504 0.985 . S
C518 C519 1.363 . S
C518 C524 1.379 1_556 S
C518 N526 1.356 . S
C519 C518 1.363 . S
C519 C525 1.363 . S
C520 C521 1.363 . S
C520 C525 1.379 1_554 S
C520 N527 1.356 . S
C521 C520 1.363 . S
C521 C524 1.363 . S
N522 C524 1.356 . S
N522 H534 0.984 . S
N522 H535 0.985 . S
N523 C525 1.356 . S
N523 H528 0.984 . S
N523 H529 0.985 . S
C524 C518 1.379 1_554 S
C524 C521 1.363 . S
C524 N522 1.356 . S
C525 C519 1.363 . S
C525 C520 1.379 1_556 S
C525 N523 1.356 . S
N526 C518 1.356 . S
N526 H532 0.984 . S
N526 H533 0.984 . S
N527 C520 1.356 . S
N527 H530 0.984 . S
N527 H531 0.985 . S
H528 N523 0.984 . S
H529 N523 0.985 . S
H530 N527 0.984 . S
H531 N527 0.985 . S
H532 N526 0.984 . S
H533 N526 0.984 . S
H534 N522 0.984 . S
H535 N522 0.985 . S
C536 C537 1.363 . S
C536 C542 1.379 . S
C536 N544 1.356 . S
C537 C536 1.363 . S
C537 C543 1.363 . S
C538 C539 1.363 . S
C538 C543 1.379 . S
C538 N545 1.356 . S
C539 C538 1.363 . S
C539 C542 1.363 . S
N540 C542 1.356 . S
N540 H552 0.984 . S
N540 H553 0.985 . S
N541 C543 1.356 . S
N541 H546 0.984 . S
N541 H547 0.985 . S
C542 C536 1.379 . S
C542 C539 1.363 . S
C542 N540 1.356 . S
C543 C537 1.363 . S
C543 C538 1.379 . S
C543 N541 1.356 . S
N544 C536 1.356 . S
N544 H550 0.984 . S
N544 H551 0.984 . S
N545 C538 1.356 . S
N545 H548 0.984 . S
N545 H549 0.985 . S
H546 N541 0.984 . S
H547 N541 0.985 . S
H548 N545 0.984 . S
H549 N545 0.985 . S
H550 N544 0.984 . S
H551 N544 0.984 . S
H552 N540 0.984 . S
H553 N540 0.985 . S
C554 C555 1.363 . S
C554 C560 1.379 . S
C554 N562 1.356 . S
C555 C554 1.363 . S
C555 C561 1.363 . S
C556 C557 1.363 . S
C556 C561 1.379 . S
C556 N563 1.356 . S
C557 C556 1.363 . S
C557 C560 1.363 . S
N558 C560 1.356 . S
N558 H570 0.984 . S
N558 H571 0.985 . S
N559 C561 1.356 . S
N559 H564 0.984 . S
N559 H565 0.985 . S
C560 C554 1.379 . S
C560 C557 1.363 . S
C560 N558 1.356 . S
C561 C555 1.363 . S
C561 C556 1.379 . S
C561 N559 1.356 . S
N562 C554 1.356 . S
N562 H568 0.984 . S
N562 H569 0.984 . S
N563 C556 1.356 . S
N563 H566 0.984 . S
N563 H567 0.985 . S
H564 N559 0.984 . S
H565 N559 0.985 . S
H566 N563 0.984 . S
H567 N563 0.985 . S
H568 N562 0.984 . S
H569 N562 0.984 . S
H570 N558 0.984 . S
H571 N558 0.985 . S
C572 C573 1.363 . S
C572 C578 1.379 . S
C572 N580 1.356 . S
C573 C572 1.363 . S
C573 C579 1.363 . S
C574 C575 1.363 . S
C574 C579 1.379 . S
C574 N581 1.356 . S
C575 C574 1.363 . S
C575 C578 1.363 . S
N576 C578 1.356 . S
N576 H588 0.984 . S
N576 H589 0.985 . S
N577 C579 1.356 . S
N577 H582 0.984 . S
N577 H583 0.985 . S
C578 C572 1.379 . S
C578 C575 1.363 . S
C578 N576 1.356 . S
C579 C573 1.363 . S
C579 C574 1.379 . S
C579 N577 1.356 . S
N580 C572 1.356 . S
N580 H586 0.984 . S
N580 H587 0.984 . S
N581 C574 1.356 . S
N581 H584 0.984 . S
N581 H585 0.985 . S
H582 N577 0.984 . S
H583 N577 0.985 . S
H584 N581 0.984 . S
H585 N581 0.985 . S
H586 N580 0.984 . S
H587 N580 0.984 . S
H588 N576 0.984 . S
H589 N576 0.985 . S
C590 C591 1.363 . S
C590 C596 1.379 . S
C590 N598 1.356 . S
C591 C590 1.363 . S
C591 C597 1.363 . S
C592 C593 1.363 . S
C592 C597 1.379 . S
C592 N599 1.356 . S
C593 C592 1.363 . S
C593 C596 1.363 . S
N594 C596 1.356 . S
N594 H606 0.984 . S
N594 H607 0.985 . S
N595 C597 1.356 . S
N595 H600 0.984 . S
N595 H601 0.985 . S
C596 C590 1.379 . S
C596 C593 1.363 . S
C596 N594 1.356 . S
C597 C591 1.363 . S
C597 C592 1.379 . S
C597 N595 1.356 . S
N598 C590 1.356 . S
N598 H604 0.984 . S
N598 H605 0.984 . S
N599 C592 1.356 . S
N599 H602 0.984 . S
N599 H603 0.985 . S
H600 N595 0.984 . S
H601 N595 0.985 . S
H602 N599 0.984 . S
H603 N599 0.985 . S
H604 N598 0.984 . S
H605 N598 0.984 . S
H606 N594 0.984 . S
H607 N594 0.985 . S
C177 C73 1.325 . S
C179 C4 1.472 1_565 S
C195 C50 1.325 1_455 S
C197 C30 1.472 1_565 S
C213 C52 1.472 1_545 S
C215 C27 1.325 . S
C231 C70 1.472 1_545 S
C233 C9 1.325 1_655 S
C249 C161 1.325 1_655 S
C251 C92 1.472 . S
C267 C118 1.472 . S
C269 C138 1.325 . S
C285 C115 1.325 1_455 S
C287 C140 1.472 . S
C303 C97 1.325 . S
C305 C158 1.472 . S
C321 C6 1.197 1_565 S
C323 C53 1.197 1_545 S
C339 C71 1.197 1_545 S
C341 C29 1.197 1_565 S
C357 C94 1.198 . S
C359 C141 1.198 . S
C375 C159 1.198 . S
C377 C117 1.198 . S
C393 C31 1.292 . S
C395 C5 1.292 . S
C411 C51 1.292 . S
C413 C72 1.292 . S
C429 C119 1.292 . S
C431 C93 1.292 . S
C447 C160 1.292 . S
C449 C139 1.292 . S
C465 C8 1.762 . S
C467 C26 1.762 . S
C483 C48 1.762 . S
C485 C74 1.762 . S
C501 C96 1.762 . S
C503 C114 1.762 . S
C519 C162 1.762 . S
C521 C136 1.762 . S
C537 C7 1.704 . S
C539 C137 1.704 . S
C555 C28 1.704 . S
C557 C163 1.704 . S
C573 C95 1.704 . S
C575 C49 1.704 . S
C591 C116 1.704 . S
C593 C75 1.704 . S
