# Generated by pormake.
# Topology sml, (6)-cn, num edge types: 1
# Building blocks:
#     Node 0, Type 0, BuildingBlock: OJICUG_clean_sbu_0, # of connection points: 6
#     Node 1, Type 0, BuildingBlock: OJICUG_clean_sbu_0, # of connection points: 6
#     Node 2, Type 0, BuildingBlock: OJICUG_clean_sbu_0, # of connection points: 6
#     Node 3, Type 0, BuildingBlock: OJICUG_clean_sbu_0, # of connection points: 6
#     Node 4, Type 0, BuildingBlock: OJICUG_clean_sbu_0, # of connection points: 6
#     Node 5, Type 0, BuildingBlock: OJICUG_clean_sbu_0, # of connection points: 6
#     Edge 6, Type (0, 0), BuildingBlock: FUNLAD_clean_linker_0, # of connection points: 2
#     Edge 7, Type (0, 0), BuildingBlock: FUNLAD_clean_linker_0, # of connection points: 2
#     Edge 8, Type (0, 0), BuildingBlock: FUNLAD_clean_linker_0, # of connection points: 2
#     Edge 9, Type (0, 0), BuildingBlock: FUNLAD_clean_linker_0, # of connection points: 2
#     Edge 10, Type (0, 0), BuildingBlock: FUNLAD_clean_linker_0, # of connection points: 2
#     Edge 11, Type (0, 0), BuildingBlock: FUNLAD_clean_linker_0, # of connection points: 2
#     Edge 12, Type (0, 0), BuildingBlock: FUNLAD_clean_linker_0, # of connection points: 2
#     Edge 13, Type (0, 0), BuildingBlock: FUNLAD_clean_linker_0, # of connection points: 2
#     Edge 14, Type (0, 0), BuildingBlock: FUNLAD_clean_linker_0, # of connection points: 2
#     Edge 15, Type (0, 0), BuildingBlock: FUNLAD_clean_linker_0, # of connection points: 2
#     Edge 16, Type (0, 0), BuildingBlock: FUNLAD_clean_linker_0, # of connection points: 2
#     Edge 17, Type (0, 0), BuildingBlock: FUNLAD_clean_linker_0, # of connection points: 2
#     Edge 18, Type (0, 0), BuildingBlock: FUNLAD_clean_linker_0, # of connection points: 2
#     Edge 19, Type (0, 0), BuildingBlock: FUNLAD_clean_linker_0, # of connection points: 2
#     Edge 20, Type (0, 0), BuildingBlock: FUNLAD_clean_linker_0, # of connection points: 2
#     Edge 21, Type (0, 0), BuildingBlock: FUNLAD_clean_linker_0, # of connection points: 2
#     Edge 22, Type (0, 0), BuildingBlock: FUNLAD_clean_linker_0, # of connection points: 2
#     Edge 23, Type (0, 0), BuildingBlock: FUNLAD_clean_linker_0, # of connection points: 2
# Relax obj value: 0.230
# Max RMSD: 0.261
# Mean RMSD: 0.261
data_MOF--net-sml--node1-OJICUG_clean_sbu_0--edge1-FUNLAD_clean_linker_0
_symmetry_space_group_name_H-M    P1
_symmetry_Int_Tables_number       1
_symmetry_cell_setting            triclinic
loop_
_symmetry_equiv_pos_as_xyz
'x, y, z'
_cell_length_a     48.097487
_cell_length_b     48.041535
_cell_length_c     17.928296
_cell_angle_alpha  89.963394
_cell_angle_beta   89.969897
_cell_angle_gamma 119.94776
loop_
_atom_site_label
_atom_site_type_symbol
_atom_site_fract_x
_atom_site_fract_y
_atom_site_fract_z
_atom_type_partial_charge
Sc0 Sc 0.20212 0.36947 0.09935 0.0
Sc1 Sc 0.26768 0.44525 0.14436 0.0
Sc2 Sc 0.20367 0.43962 0.03592 0.0
O3 O 0.22451 0.41823 0.09338 0.0
C4 C 0.19042 0.38083 0.92989 0.0
C5 C 0.27496 0.38712 0.08136 0.0
C6 C 0.2779 0.48446 -0.00616 0.0
C7 C 0.22849 0.38995 0.26489 0.0
C8 C 0.14271 0.38148 0.11375 0.0
C9 C 0.23397 0.48731 0.17367 0.0
O10 O 0.19447 0.36443 0.98006 0.0
O11 O 0.28711 0.41635 0.10075 0.0
O12 O 0.24818 0.47335 0.98033 0.0
O13 O 0.20814 0.37024 0.21861 0.0
O14 O 0.15683 0.40956 0.08574 0.0
O15 O 0.25476 0.4792 0.19004 0.0
O16 O 0.15611 0.36458 0.1195 0.0
O17 O 0.25151 0.41739 0.24586 0.0
O18 O 0.21353 0.4741 0.12182 0.0
O19 O 0.24502 0.36765 0.08087 0.0
O20 O 0.192 0.4076 0.94273 0.0
O21 O 0.28792 0.47572 0.04963 0.0
Sc22 Sc 0.73355 0.18469 0.22574 0.0
Sc23 Sc 0.79066 0.24 0.35255 0.0
Sc24 Sc 0.79701 0.17414 0.28867 0.0
O25 O 0.77373 0.19972 0.28887 0.0
C26 C 0.72354 0.11882 0.29325 0.0
C27 C 0.71485 0.20924 0.37217 0.0
C28 C 0.80106 0.193 0.45898 0.0
C29 C 0.7682 0.26082 0.20596 0.0
C30 C 0.77795 0.1706 0.1188 0.0
C31 C 0.85546 0.2462 0.28739 0.0
O32 O 0.71277 0.13569 0.26417 0.0
O33 O 0.74351 0.22752 0.39438 0.0
O34 O 0.80165 0.17564 0.40666 0.0
O35 O 0.74873 0.23243 0.1836 0.0
O36 O 0.79512 0.16944 0.17075 0.0
O37 O 0.83967 0.25822 0.31639 0.0
O38 O 0.75477 0.17571 0.12973 0.0
O39 O 0.78528 0.26676 0.2642 0.0
O40 O 0.84315 0.21634 0.27447 0.0
O41 O 0.70804 0.19215 0.31376 0.0
O42 O 0.75328 0.12944 0.30373 0.0
O43 O 0.79736 0.21711 0.44852 0.0
Sc44 Sc 0.62193 0.82752 0.67406 0.0
Sc45 Sc 0.54197 0.80677 0.71246 0.0
Sc46 Sc 0.55794 0.75619 0.60003 0.0
O47 O 0.5739 0.79681 0.66217 0.0
C48 C 0.61705 0.80798 0.50309 0.0
C49 C 0.59565 0.87629 0.65787 0.0
C50 C 0.50864 0.77941 0.55543 0.0
C51 C 0.59582 0.82661 0.83787 0.0
C52 C 0.61751 0.75915 0.68468 0.0
C53 C 0.50799 0.73063 0.73447 0.0
O54 O 0.63071 0.82805 0.55564 0.0
O55 O 0.56674 0.85621 0.67475 0.0
O56 O 0.52266 0.76348 0.54124 0.0
O57 O 0.61799 0.83029 0.79328 0.0
O58 O 0.59033 0.74352 0.65309 0.0
O59 O 0.51225 0.75801 0.7538 0.0
O60 O 0.63187 0.78939 0.69322 0.0
O61 O 0.56768 0.81878 0.81621 0.0
O62 O 0.52297 0.72686 0.68082 0.0
O63 O 0.61784 0.86935 0.65739 0.0
O64 O 0.59144 0.78124 0.51218 0.0
O65 O 0.51351 0.79581 0.61435 0.0
Sc66 Sc 0.79277 0.54593 0.96158 0.0
Sc67 Sc 0.73333 0.55041 0.06863 0.0
Sc68 Sc 0.80375 0.62106 0.0156 0.0
O69 O 0.77657 0.5724 0.01532 0.0
C70 C 0.85721 0.6012 0.03443 0.0
C71 C 0.76211 0.50477 0.10758 0.0
C72 C 0.77691 0.60614 0.18294 0.0
C73 C 0.71764 0.50694 0.92475 0.0
C74 C 0.81165 0.60337 0.84745 0.0
C75 C 0.73357 0.61061 -0.00694 0.0
O76 O 0.84099 0.57395 0.00355 0.0
O77 O 0.74175 0.51397 0.11798 0.0
O78 O 0.79729 0.62408 0.13423 0.0
O79 O 0.74634 0.51317 0.91417 0.0
O80 O 0.81292 0.62302 0.89682 0.0
O81 O 0.71892 0.58299 0.0232 0.0
O82 O 0.80443 0.57464 0.86225 0.0
O83 O 0.70964 0.51978 0.97594 0.0
O84 O 0.76387 0.62689 0.98764 0.0
O85 O 0.78279 0.51527 0.05565 0.0
O86 O 0.84664 0.62046 0.04302 0.0
O87 O 0.75268 0.57904 0.16744 0.0
Sc88 Sc 0.19751 0.82206 0.23706 0.0
Sc89 Sc 0.19983 0.75433 0.30185 0.0
Sc90 Sc 0.26568 0.81467 0.20715 0.0
O91 O 0.22094 0.79718 0.24874 0.0
C92 C 0.22834 0.82621 0.07569 0.0
C93 C 0.1395 0.75107 0.22005 0.0
C94 C 0.23393 0.73854 0.17795 0.0
C95 C 0.18454 0.79798 0.40728 0.0
C96 C 0.2681 0.8796 0.25875 0.0
C97 C 0.27331 0.78652 0.35502 0.0
O98 O 0.20929 0.82972 0.11928 0.0
O99 O 0.15239 0.73834 0.25837 0.0
O100 O 0.25789 0.76705 0.17811 0.0
O101 O 0.18461 0.81605 0.35484 0.0
O102 O 0.28158 0.86437 0.23483 0.0
O103 O 0.24471 0.76292 0.35177 0.0
O104 O 0.23804 0.86686 0.26577 0.0
O105 O 0.19067 0.77536 0.39694 0.0
O106 O 0.28355 0.81098 0.31315 0.0
O107 O 0.15365 0.78079 0.2055 0.0
O108 O 0.24933 0.81938 0.09876 0.0
O109 O 0.20751 0.73128 0.20911 0.0
Sc110 Sc 0.43265 0.24694 0.59983 0.0
Sc111 Sc 0.43466 0.18576 0.70368 0.0
Sc112 Sc 0.36043 0.17995 0.66064 0.0
O113 O 0.40928 0.20424 0.6547 0.0
C114 C 0.37713 0.25236 0.68547 0.0
C115 C 0.47847 0.26078 0.73852 0.0
C116 C 0.38056 0.17049 0.82501 0.0
C117 C 0.47373 0.21382 0.55389 0.0
C118 C 0.37322 0.20592 0.49238 0.0
C119 C 0.37542 0.12329 0.6327 0.0
O120 O 0.40359 0.26457 0.65021 0.0
O121 O 0.4705 0.23154 0.74943 0.0
O122 O 0.36024 0.17001 0.77874 0.0
O123 O 0.46591 0.23533 0.54519 0.0
O124 O 0.35504 0.18717 0.5433 0.0
O125 O 0.40319 0.13814 0.66173 0.0
O126 O 0.40176 0.22821 0.50486 0.0
O127 O 0.46322 0.19346 0.60651 0.0
O128 O 0.35724 0.13537 0.62808 0.0
O129 O 0.46575 0.26962 0.68881 0.0
O130 O 0.35906 0.22224 0.69364 0.0
O131 O 0.40837 0.17627 0.80576 0.0
C132 C 0.34238 0.26132 0.77492 0.0
C133 C 0.36838 0.27408 0.72487 0.0
C134 C 0.33612 0.28155 0.81869 0.0
C135 C 0.3557 0.31511 0.81366 0.0
C136 C 0.38069 0.32798 0.76117 0.0
C137 C 0.38719 0.30769 0.71763 0.0
C138 C 0.34963 0.33685 0.86113 0.0
C139 C 0.33838 0.32878 0.93133 0.0
C140 C 0.32625 0.34639 0.97646 0.0
C141 C 0.30237 0.32887 0.02958 0.0
C142 C 0.28699 0.34285 0.06683 0.0
C143 C 0.29568 0.37495 0.05313 0.0
H144 H 0.35536 0.39366 0.92692 0.0
C145 C 0.32127 0.39339 0.00439 0.0
C146 C 0.33637 0.37916 0.96585 0.0
H147 H 0.32835 0.41819 -0.00716 0.0
H148 H 0.3272 0.23561 0.78177 0.0
H149 H 0.3158 0.27078 0.85633 0.0
H150 H 0.39573 0.35377 0.75526 0.0
H151 H 0.40731 0.31837 0.67939 0.0
H152 H 0.35373 0.35928 0.83678 0.0
H153 H 0.33512 0.30646 0.95469 0.0
H154 H 0.29436 0.30372 0.03954 0.0
H155 H 0.26744 0.32817 0.1045 0.0
C156 C 0.09007 0.38093 0.12466 0.0
C157 C 0.10921 0.36717 0.14102 0.0
C158 C 0.05786 0.36575 0.14751 0.0
C159 C 0.04438 0.33664 0.18769 0.0
C160 C 0.06384 0.32351 0.20538 0.0
C161 C 0.09575 0.33852 0.18259 0.0
C162 C 0.00988 0.31774 0.20825 0.0
C163 C 0.98924 0.32901 0.20889 0.0
C164 C 0.95475 0.30783 0.22751 0.0
C165 C 0.93762 0.32066 0.26296 0.0
C166 C 0.90536 0.30079 0.28267 0.0
C167 C 0.88955 0.2677 0.2666 0.0
H168 H 0.95062 0.26437 0.17953 0.0
C169 C 0.90658 0.25515 0.2292 0.0
C170 C 0.93865 0.27494 0.20956 0.0
H171 H 0.89514 0.22994 0.21459 0.0
H172 H 0.09969 0.40295 0.09262 0.0
H173 H 0.04356 0.37641 0.13159 0.0
H174 H 0.0542 0.30116 0.2362 0.0
H175 H 0.10974 0.32729 0.19703 0.0
H176 H 0.00119 0.29305 0.22541 0.0
H177 H -0.00224 0.35428 0.19885 0.0
H178 H 0.94935 0.346 0.27654 0.0
H179 H 0.89291 0.31134 0.3108 0.0
C180 C 0.71211 0.07005 0.36661 0.0
C181 C 0.70057 0.08678 0.32422 0.0
C182 C 0.69099 0.04238 0.4056 0.0
C183 C 0.65778 0.03064 0.40311 0.0
C184 C 0.64592 0.04594 0.35704 0.0
C185 C 0.66716 0.07402 0.31841 0.0
C186 C 0.63569 0.00233 0.44844 0.0
C187 C 0.64353 -0.00093 0.51874 0.0
C188 C 0.62765 0.9687 0.56198 0.0
C189 C 0.64588 0.96436 0.61699 0.0
C190 C 0.63448 0.93465 0.65144 0.0
C191 C 0.60425 0.9088 0.63293 0.0
H192 H 0.58131 0.94617 0.50625 0.0
C193 C 0.5847 0.91368 0.5826 0.0
C194 C 0.5964 0.94343 0.54686 0.0
H195 H 0.56128 0.894 0.56747 0.0
H196 H 0.73759 0.07886 0.37199 0.0
H197 H 0.70076 0.03036 0.43851 0.0
H198 H 0.62034 0.0369 0.35325 0.0
H199 H 0.65744 0.08619 0.2859 0.0
H200 H 0.61398 0.98376 0.42231 0.0
H201 H 0.66516 0.01877 0.5429 0.0
H202 H 0.66986 0.98348 0.63037 0.0
H203 H 0.6499 0.9315 0.69049 0.0
C204 C 0.6162 0.70783 0.71969 0.0
C205 C 0.63272 0.74159 0.71639 0.0
C206 C 0.63022 0.69167 0.75399 0.0
C207 C 0.66102 0.70908 0.78575 0.0
C208 C 0.67767 0.74269 0.7808 0.0
C209 C 0.66372 0.75877 0.74683 0.0
C210 C 0.67738 0.69352 0.82224 0.0
C211 C 0.66246 0.66324 0.84878 0.0
C212 C 0.68054 0.64931 0.88487 0.0
C213 C 0.66543 0.62493 0.93856 0.0
C214 C 0.68249 0.61219 0.97449 0.0
C215 C 0.71495 0.62378 0.95725 0.0
H216 H 0.72478 0.67745 0.82224 0.0
C217 C 0.7297 0.64758 0.90219 0.0
C218 C 0.71266 0.6599 0.86588 0.0
H219 H 0.7544 0.65638 0.88583 0.0
H220 H 0.59231 0.69387 0.69656 0.0
H221 H 0.61698 0.6657 0.75469 0.0
H222 H 0.70156 0.75669 0.80401 0.0
H223 H 0.67727 0.78477 0.74507 0.0
H224 H 0.70306 0.7086 0.83061 0.0
H225 H 0.63648 0.64883 0.84763 0.0
H226 H 0.64056 0.61602 0.95338 0.0
H227 H 0.67039 0.59357 0.01605 0.0
C228 C 0.08719 0.69889 0.21498 0.0
C229 C 0.10648 0.73095 0.19177 0.0
C230 C 0.05529 0.68098 0.19127 0.0
C231 C 0.04232 0.69488 0.14358 0.0
C232 C 0.06193 0.7265 0.11887 0.0
C233 C 0.0936 0.7443 0.14241 0.0
C234 C 0.00799 0.67865 0.12314 0.0
C235 C 0.98772 0.64678 0.12652 0.0
C236 C 0.9534 0.63343 0.1082 0.0
C237 C 0.93686 0.60475 0.06772 0.0
C238 C 0.90529 0.59377 0.0444 0.0
C239 C 0.88984 0.61127 0.0619 0.0
H240 H 0.94906 0.67142 0.16285 0.0
C241 C 0.90601 0.63904 0.10591 0.0
C242 C 0.93732 0.64988 0.12911 0.0
H243 H 0.89462 0.65269 0.12208 0.0
H244 H 0.09642 0.68793 0.25305 0.0
H245 H 0.0407 0.65685 0.21263 0.0
H246 H 0.05252 0.73778 0.08219 0.0
H247 H 0.10781 0.76881 0.12269 0.0
H248 H -0.00102 0.69404 0.10307 0.0
H249 H 0.9964 0.63033 0.13898 0.0
H250 H 0.9487 0.59148 0.05195 0.0
H251 H 0.89331 0.57204 0.01135 0.0
C252 C 0.33785 0.07802 0.55022 0.0
C253 C 0.36523 0.09204 0.59593 0.0
C254 C 0.33039 0.0508 0.50793 0.0
C255 C 0.35016 0.03696 0.51028 0.0
C256 C 0.37651 0.04986 0.5588 0.0
C257 C 0.38418 0.0773 0.60079 0.0
C258 C 0.34313 0.00859 0.46408 0.0
C259 C 0.32962 0.00393 0.39612 0.0
C260 C 0.31745 0.97364 0.3535 0.0
C261 C 0.29069 0.96434 0.3075 0.0
C262 C 0.27569 0.93429 0.2735 0.0
C263 C 0.28763 0.91318 0.28332 0.0
H264 H 0.35183 0.96021 0.39327 0.0
C265 C 0.31587 0.92332 0.3246 0.0
C266 C 0.33062 0.95332 0.35996 0.0
H267 H 0.32549 0.90741 0.33294 0.0
H268 H 0.32257 0.08852 0.54539 0.0
H269 H 0.30907 0.04067 0.47351 0.0
H270 H 0.39174 0.03924 0.56263 0.0
H271 H 0.40534 0.08733 0.63576 0.0
H272 H 0.34873 0.9911 0.48741 0.0
H273 H 0.32459 0.02193 0.37333 0.0
H274 H 0.28031 0.9797 0.30086 0.0
H275 H 0.25405 0.92709 0.24144 0.0
C276 C 0.16753 0.37742 0.80333 0.0
C277 C 0.18558 0.36966 0.85185 0.0
C278 C 0.16629 0.3708 0.72725 0.0
C279 C 0.18378 0.35715 0.6979 0.0
C280 C 0.20066 0.34797 0.74679 0.0
C281 C 0.20131 0.35394 0.82337 0.0
C282 C 0.18539 0.35467 0.61583 0.0
C283 C 0.21287 0.36167 0.58065 0.0
C284 C 0.21682 0.36661 0.4988 0.0
C285 C 0.24659 0.39021 0.47066 0.0
C286 C 0.25049 0.39756 0.39463 0.0
C287 C 0.22482 0.38095 0.34483 0.0
H288 H 0.16835 0.33033 0.4686 0.0
C289 C 0.1954 0.35626 0.37257 0.0
C290 C 0.19138 0.34923 0.44886 0.0
H291 H 0.17519 0.34286 0.33566 0.0
H292 H 0.15498 0.38933 0.82399 0.0
H293 H 0.15291 0.37785 0.69074 0.0
H294 H 0.21383 0.33678 0.72574 0.0
H295 H 0.21541 0.34772 0.85963 0.0
H296 H 0.16497 0.35168 0.58354 0.0
H297 H 0.23425 0.3681 0.61342 0.0
H298 H 0.26662 0.40378 0.50796 0.0
H299 H 0.27357 0.41645 0.37501 0.0
C300 C 0.76366 0.15745 0.9851 0.0
C301 C 0.78656 0.16743 0.0421 0.0
C302 C 0.77258 0.15668 0.91164 0.0
C303 C 0.80464 0.1662 0.89411 0.0
C304 C 0.82736 0.17556 0.9512 0.0
C305 C 0.81833 0.17578 0.02488 0.0
C306 C 0.81547 0.17091 0.81613 0.0
C307 C 0.79621 0.15273 0.76103 0.0
C308 C 0.80179 0.16383 0.68322 0.0
C309 C 0.79098 0.14117 0.62569 0.0
C310 C 0.79197 0.15093 0.55212 0.0
C311 C 0.80298 0.18341 0.53551 0.0
H312 H 0.82149 0.2144 0.70991 0.0
C313 C 0.81429 0.20616 0.59297 0.0
C314 C 0.81388 0.19649 0.6663 0.0
H315 H 0.8229 0.23131 0.58143 0.0
H316 H 0.73904 0.15085 -0.00293 0.0
H317 H 0.75469 0.15025 0.8684 0.0
H318 H 0.85225 0.18345 0.93856 0.0
H319 H 0.83652 0.18377 0.06792 0.0
H320 H 0.83877 0.19156 0.80326 0.0
H321 H 0.7743 0.13043 0.77376 0.0
H322 H 0.78112 0.11587 0.63787 0.0
H323 H 0.78285 0.13286 0.50866 0.0
C324 C 0.61998 0.79212 0.37265 0.0
C325 C 0.62965 0.81652 0.42629 0.0
C326 C 0.62618 0.79975 0.29741 0.0
C327 C 0.64203 0.83194 0.27411 0.0
C328 C 0.65444 0.85643 0.32778 0.0
C329 C 0.6482 0.84878 0.40367 0.0
C330 C 0.64247 0.83969 0.19414 0.0
C331 C 0.61529 0.82401 0.15411 0.0
C332 C 0.61239 0.82902 0.0738 0.0
C333 C 0.58189 0.82028 0.046 0.0
C334 C 0.57688 0.82078 0.96968 0.0
C335 C 0.60226 0.82961 0.91906 0.0
H336 H 0.66193 0.8455 0.04345 0.0
C337 C 0.63314 0.83937 0.94701 0.0
C338 C 0.63821 0.83915 0.02383 0.0
H339 H 0.65323 0.84635 0.90954 0.0
H340 H 0.60629 0.76702 0.38841 0.0
H341 H 0.61719 0.78041 0.25702 0.0
H342 H 0.66702 0.88142 0.31082 0.0
H343 H 0.65615 0.86809 0.44388 0.0
H344 H 0.66405 0.85943 0.17008 0.0
H345 H 0.59335 0.80671 0.18244 0.0
H346 H 0.5616 0.8123 0.08343 0.0
H347 H 0.55279 0.81315 0.95041 0.0
C348 C 0.80892 0.63588 0.74118 0.0
C349 C 0.81728 0.6136 0.76849 0.0
C350 C 0.81074 0.64252 0.66471 0.0
C351 C 0.82147 0.62737 0.61456 0.0
C352 C 0.83156 0.6066 0.64253 0.0
C353 C 0.82909 0.59942 0.71856 0.0
C354 C 0.82106 0.63145 0.53264 0.0
C355 C 0.79704 0.63301 0.49805 0.0
C356 C 0.79252 0.62945 0.41607 0.0
C357 C 0.76128 0.61146 0.38779 0.0
C358 C 0.75618 0.60457 0.3117 0.0
C359 C 0.78224 0.61626 0.26201 0.0
H360 H 0.84293 0.65677 0.38624 0.0
C361 C 0.81345 0.63588 0.28968 0.0
C362 C 0.81859 0.64223 0.36616 0.0
H363 H 0.834 0.64527 0.25268 0.0
H364 H 0.79974 0.64716 0.77845 0.0
H365 H 0.80341 0.65917 0.64484 0.0
H366 H 0.84011 0.59481 0.60505 0.0
H367 H 0.83597 0.58238 0.73814 0.0
H368 H 0.83839 0.62852 0.49958 0.0
H369 H 0.77777 0.63236 0.53111 0.0
H370 H 0.74079 0.60155 0.42507 0.0
H371 H 0.73183 0.58965 0.29192 0.0
C372 C 0.17184 0.78082 0.53977 0.0
C373 C 0.17968 0.80464 0.48526 0.0
C374 C 0.17327 0.78822 0.61517 0.0
C375 C 0.18276 0.81968 0.6379 0.0
C376 C 0.1878 0.84287 0.58378 0.0
C377 C 0.18639 0.83544 0.50773 0.0
C378 C 0.18964 0.82873 0.71755 0.0
C379 C 0.20585 0.81796 0.75839 0.0
C380 C 0.21337 0.82443 0.83879 0.0
C381 C 0.19502 0.83174 0.88762 0.0
C382 C 0.20062 0.83354 0.96458 0.0
C383 C 0.2246 0.82805 -0.00596 0.0
H384 H 0.25246 0.81442 0.83164 0.0
C385 C 0.24369 0.82206 0.94456 0.0
C386 C 0.238 0.82013 0.86804 0.0
H387 H 0.26245 0.81781 0.96493 0.0
H388 H 0.16587 0.75665 0.52433 0.0
H389 H 0.16813 0.76956 0.65584 0.0
H390 H 0.19471 0.86717 0.60022 0.0
H391 H 0.19239 0.85426 0.46696 0.0
H392 H 0.18323 0.84563 0.74081 0.0
H393 H 0.2147 0.80372 0.73082 0.0
H394 H 0.17546 0.83466 0.86721 0.0
H395 H 0.18542 0.83817 0.00104 0.0
C396 C 0.38181 0.22129 0.35771 0.0
C397 C 0.36209 0.20015 0.4138 0.0
C398 C 0.37444 0.21372 0.28272 0.0
C399 C 0.34715 0.18485 0.26181 0.0
C400 C 0.32599 0.16485 0.31724 0.0
C401 C 0.3335 0.17232 0.39283 0.0
C402 C 0.34211 0.17477 0.18255 0.0
C403 C 0.36687 0.17747 0.14191 0.0
C404 C 0.36577 0.17018 0.0613 0.0
C405 C 0.38999 0.16513 0.03251 0.0
C406 C 0.3935 0.16333 0.95588 0.0
C407 C 0.37297 0.16683 0.9058 0.0
H408 H 0.32522 0.17613 0.03199 0.0
C409 C 0.34747 0.17005 0.93454 0.0
C410 C 0.34391 0.17177 0.01177 0.0
H411 H 0.3313 0.17292 0.89748 0.0
H412 H 0.40372 0.24322 0.37148 0.0
H413 H 0.39069 0.23003 0.2409 0.0
H414 H 0.30461 0.14265 0.30219 0.0
H415 H 0.31765 0.15561 0.43457 0.0
H416 H 0.31811 0.16386 0.15925 0.0
H417 H 0.38976 0.18559 0.16973 0.0
H418 H 0.4071 0.16374 0.06941 0.0
H419 H 0.41319 0.16048 0.93593 0.0
C420 C 0.21081 0.52248 0.19952 0.0
C421 C 0.23698 0.51722 0.20482 0.0
C422 C 0.2154 0.55345 0.20482 0.0
C423 C 0.24633 0.57989 0.21534 0.0
C424 C 0.27187 0.57431 0.22912 0.0
C425 C 0.2673 0.54318 0.22361 0.0
C426 C 0.25237 0.61329 0.20879 0.0
C427 C 0.23656 0.62111 0.15836 0.0
C428 C 0.23913 0.65317 0.15282 0.0
C429 C 0.21274 0.65475 0.12453 0.0
C430 C 0.21213 0.68347 0.12674 0.0
C431 C 0.23827 0.71143 0.15559 0.0
H432 H 0.28744 0.68157 0.19694 0.0
C433 C 0.26587 0.71062 0.17792 0.0
C434 C 0.26627 0.68166 0.17695 0.0
H435 H 0.28622 0.73178 0.20128 0.0
H436 H 0.18705 0.5029 0.18623 0.0
H437 H 0.19489 0.55677 0.19762 0.0
H438 H 0.2958 0.59426 0.23905 0.0
H439 H 0.28797 0.53994 0.22789 0.0
H440 H 0.27036 0.63148 0.2449 0.0
H441 H 0.21916 0.60247 0.12192 0.0
H442 H 0.1917 0.63328 0.1046 0.0
H443 H 0.19051 0.68343 0.10957 0.0
C444 C 0.6565 0.18529 0.39869 0.0
C445 C 0.68807 0.21053 0.4092 0.0
C446 C 0.63047 0.18881 0.41918 0.0
C447 C 0.63541 0.2179 0.44976 0.0
C448 C 0.66691 0.24221 0.46553 0.0
C449 C 0.69308 0.23861 0.44535 0.0
C450 C 0.60827 0.22351 0.46576 0.0
C451 C 0.57992 0.20792 0.42978 0.0
C452 C 0.552 0.21125 0.45098 0.0
C453 C 0.52153 0.18365 0.45201 0.0
C454 C 0.49528 0.18494 0.48098 0.0
C455 C 0.49888 0.2141 0.50693 0.0
H456 H 0.5784 0.26265 0.47088 0.0
C457 C 0.52875 0.24229 0.50014 0.0
C458 C 0.55527 0.24085 0.47291 0.0
H459 H 0.53209 0.26497 0.52067 0.0
H460 H 0.65187 0.16312 0.37216 0.0
H461 H 0.60659 0.16878 0.40987 0.0
H462 H 0.67137 0.26459 0.49058 0.0
H463 H 0.71713 0.25851 0.45409 0.0
H464 H 0.61185 0.24111 0.50828 0.0
H465 H 0.57598 0.1903 0.38716 0.0
H466 H 0.51841 0.16066 0.4346 0.0
H467 H 0.47245 0.16289 0.48621 0.0
C468 C 0.33506 0.52122 0.95929 0.0
C469 C 0.30249 0.51145 0.94882 0.0
C470 C 0.35905 0.5499 0.92893 0.0
C471 C 0.35121 0.56949 0.88574 0.0
C472 C 0.31864 0.55909 0.87252 0.0
C473 C 0.29448 0.5303 0.90352 0.0
C474 C 0.37628 0.60158 0.85783 0.0
C475 C 0.40742 0.60997 0.85109 0.0
C476 C 0.43316 0.64192 0.82529 0.0
C477 C 0.46106 0.64403 0.79524 0.0
C478 C 0.48576 0.67316 0.7686 0.0
C479 C 0.48342 0.70115 0.77217 0.0
H480 H 0.41047 0.66963 0.85678 0.0
C481 C 0.45619 0.69954 0.80544 0.0
C482 C 0.43117 0.67012 0.83166 0.0
H483 H 0.45375 0.72073 0.80892 0.0
H484 H 0.34221 0.50738 -0.00605 0.0
H485 H 0.38359 0.55706 0.94277 0.0
H486 H 0.31184 0.57369 0.83969 0.0
H487 H 0.26963 0.52364 0.89484 0.0
H488 H 0.36861 0.61843 0.84111 0.0
H489 H 0.41457 0.59216 0.86108 0.0
H490 H 0.4635 0.62285 0.79077 0.0
H491 H 0.50656 0.67363 0.74392 0.0
C492 C 0.79225 0.31964 0.18609 0.0
C493 C 0.76717 0.28829 0.17199 0.0
C494 C 0.78794 0.34589 0.17425 0.0
C495 C 0.75834 0.34129 0.14849 0.0
C496 C 0.73449 0.31039 0.12699 0.0
C497 C 0.73881 0.28399 0.13884 0.0
C498 C 0.75166 0.36823 0.14521 0.0
C499 C 0.76478 0.39289 0.19384 0.0
C500 C 0.76119 0.42155 0.18611 0.0
C501 C 0.78801 0.45183 0.19961 0.0
C502 C 0.78739 0.47964 0.18037 0.0
C503 C 0.75957 0.47752 0.14985 0.0
H504 H 0.71123 0.39638 0.15206 0.0
C505 C 0.73168 0.44742 0.14346 0.0
C506 C 0.73253 0.41949 0.161 0.0
H507 H 0.71012 0.44532 0.11896 0.0
H508 H 0.81463 0.32376 0.21036 0.0
H509 H 0.80751 0.36962 0.18752 0.0
H510 H 0.71178 0.30639 0.10522 0.0
H511 H 0.71904 0.26013 0.12732 0.0
H512 H 0.73536 0.36751 0.10232 0.0
H513 H 0.78096 0.39354 0.23693 0.0
H514 H 0.81022 0.45394 0.21975 0.0
H515 H 0.80923 0.50268 0.18485 0.0
C516 C 0.29766 0.75434 0.39886 0.0
C517 C 0.29741 0.78346 0.39893 0.0
C518 C 0.32467 0.75337 0.42406 0.0
C519 C 0.35153 0.78146 0.45057 0.0
C520 C 0.35008 0.80983 0.45623 0.0
C521 C 0.32344 0.81096 0.42965 0.0
C522 C 0.38192 0.78267 0.47034 0.0
C523 C 0.39301 0.76531 0.43531 0.0
C524 C 0.42523 0.77002 0.45207 0.0
C525 C 0.4302 0.7436 0.45287 0.0
C526 C 0.45907 0.74705 0.48003 0.0
C527 C 0.48315 0.77702 0.5062 0.0
H528 H 0.44831 0.82174 0.46692 0.0
C529 C 0.47935 0.80397 0.49803 0.0
C530 C 0.45078 0.80058 0.47062 0.0
H531 H 0.49784 0.82742 0.51689 0.0
H532 H 0.27795 0.73287 0.37475 0.0
H533 H 0.32475 0.73091 0.42108 0.0
H534 H 0.37035 0.83166 0.47739 0.0
H535 H 0.32376 0.83368 0.4301 0.0
H536 H 0.39681 0.80038 0.51176 0.0
H537 H 0.37827 0.74717 0.3946 0.0
H538 H 0.41105 0.71995 0.4372 0.0
H539 H 0.46149 0.72591 0.4861 0.0
C540 C 0.69211 0.45258 0.86692 0.0
C541 C 0.69149 0.48094 0.88215 0.0
C542 C 0.66447 0.42532 0.84146 0.0
C543 C 0.63608 0.42632 0.82983 0.0
C544 C 0.63632 0.45539 0.83949 0.0
C545 C 0.66365 0.48237 0.86648 0.0
C546 C 0.60552 0.3974 0.80998 0.0
C547 C 0.59652 0.36811 0.83827 0.0
C548 C 0.56459 0.33983 0.82293 0.0
C549 C 0.56106 0.30899 0.82221 0.0
C550 C 0.53202 0.28242 0.80006 0.0
C551 C 0.50615 0.28642 0.77856 0.0
H552 H 0.53896 0.36626 0.81192 0.0
C553 C 0.50892 0.31681 0.78541 0.0
C554 C 0.53772 0.34319 0.80791 0.0
H555 H 0.48911 0.32045 0.77061 0.0
H556 H 0.71329 0.45088 0.87897 0.0
H557 H 0.66517 0.4034 0.83237 0.0
H558 H 0.61479 0.45677 0.82989 0.0
H559 H 0.66267 0.50403 0.87767 0.0
H560 H 0.58915 0.401 0.77499 0.0
H561 H 0.61305 0.36458 0.87287 0.0
H562 H 0.58123 0.30569 0.8352 0.0
H563 H 0.53053 0.25923 0.7953 0.0
loop_
_geom_bond_atom_site_label_1
_geom_bond_atom_site_label_2
_geom_bond_distance
_geom_bond_site_symmetry_2
_ccdc_geom_bond_type
Sc0 O3 2.025 . S
Sc0 O10 2.105 1_554 S
Sc0 O13 2.105 . S
Sc0 O16 2.105 . S
Sc0 O19 2.105 1_554 S
Sc1 O3 2.025 . S
Sc1 O11 2.105 . S
Sc1 O15 2.105 . S
Sc1 O17 2.105 . S
Sc1 O21 2.105 1_554 S
Sc2 O3 2.025 1_556 S
Sc2 O12 2.105 . S
Sc2 O14 2.105 . S
Sc2 O18 2.105 1_556 S
Sc2 O20 2.105 . S
O3 Sc0 2.025 . S
O3 Sc1 2.025 . S
O3 Sc2 2.025 1_554 S
C4 O10 1.268 . S
C4 O20 1.268 . S
C5 O11 1.268 1_556 S
C5 O19 1.268 . S
C6 O12 1.268 . S
C6 O21 1.268 . S
C7 O13 1.268 . S
C7 O17 1.268 . S
C8 O14 1.268 1_554 S
C8 O16 1.268 . S
C9 O15 1.268 . S
C9 O18 1.268 . S
O10 Sc0 2.105 1_556 S
O10 C4 1.268 . S
O11 Sc1 2.105 . S
O11 C5 1.268 1_554 S
O12 Sc2 2.105 . S
O12 C6 1.268 . S
O13 Sc0 2.105 . S
O13 C7 1.268 . S
O14 Sc2 2.105 . S
O14 C8 1.268 1_556 S
O15 Sc1 2.105 . S
O15 C9 1.268 . S
O16 Sc0 2.105 . S
O16 C8 1.268 . S
O17 Sc1 2.105 . S
O17 C7 1.268 . S
O18 Sc2 2.105 1_554 S
O18 C9 1.268 . S
O19 Sc0 2.105 1_556 S
O19 C5 1.268 . S
O20 Sc2 2.105 . S
O20 C4 1.268 . S
O21 Sc1 2.105 1_556 S
O21 C6 1.268 . S
Sc22 O25 2.025 . S
Sc22 O32 2.105 . S
Sc22 O35 2.105 . S
Sc22 O38 2.105 . S
Sc22 O41 2.105 . S
Sc23 O25 2.025 . S
Sc23 O33 2.105 . S
Sc23 O37 2.105 . S
Sc23 O39 2.105 . S
Sc23 O43 2.105 . S
Sc24 O25 2.025 . S
Sc24 O34 2.105 . S
Sc24 O36 2.105 . S
Sc24 O40 2.105 . S
Sc24 O42 2.105 . S
O25 Sc22 2.025 . S
O25 Sc23 2.025 . S
O25 Sc24 2.025 . S
C26 O32 1.268 . S
C26 O42 1.268 . S
C27 O33 1.268 . S
C27 O41 1.268 . S
C28 O34 1.268 . S
C28 O43 1.268 . S
C29 O35 1.268 . S
C29 O39 1.268 . S
C30 O36 1.268 . S
C30 O38 1.268 . S
C31 O37 1.268 . S
C31 O40 1.268 . S
O32 Sc22 2.105 . S
O32 C26 1.268 . S
O33 Sc23 2.105 . S
O33 C27 1.268 . S
O34 Sc24 2.105 . S
O34 C28 1.268 . S
O35 Sc22 2.105 . S
O35 C29 1.268 . S
O36 Sc24 2.105 . S
O36 C30 1.268 . S
O37 Sc23 2.105 . S
O37 C31 1.268 . S
O38 Sc22 2.105 . S
O38 C30 1.268 . S
O39 Sc23 2.105 . S
O39 C29 1.268 . S
O40 Sc24 2.105 . S
O40 C31 1.268 . S
O41 Sc22 2.105 . S
O41 C27 1.268 . S
O42 Sc24 2.105 . S
O42 C26 1.268 . S
O43 Sc23 2.105 . S
O43 C28 1.268 . S
Sc44 O47 2.025 . S
Sc44 O54 2.105 . S
Sc44 O57 2.105 . S
Sc44 O60 2.105 . S
Sc44 O63 2.105 . S
Sc45 O47 2.025 . S
Sc45 O55 2.105 . S
Sc45 O59 2.105 . S
Sc45 O61 2.105 . S
Sc45 O65 2.105 . S
Sc46 O47 2.025 . S
Sc46 O56 2.105 . S
Sc46 O58 2.105 . S
Sc46 O62 2.105 . S
Sc46 O64 2.105 . S
O47 Sc44 2.025 . S
O47 Sc45 2.025 . S
O47 Sc46 2.025 . S
C48 O54 1.268 . S
C48 O64 1.268 . S
C49 O55 1.268 . S
C49 O63 1.268 . S
C50 O56 1.268 . S
C50 O65 1.268 . S
C51 O57 1.268 . S
C51 O61 1.268 . S
C52 O58 1.268 . S
C52 O60 1.268 . S
C53 O59 1.268 . S
C53 O62 1.268 . S
O54 Sc44 2.105 . S
O54 C48 1.268 . S
O55 Sc45 2.105 . S
O55 C49 1.268 . S
O56 Sc46 2.105 . S
O56 C50 1.268 . S
O57 Sc44 2.105 . S
O57 C51 1.268 . S
O58 Sc46 2.105 . S
O58 C52 1.268 . S
O59 Sc45 2.105 . S
O59 C53 1.268 . S
O60 Sc44 2.105 . S
O60 C52 1.268 . S
O61 Sc45 2.105 . S
O61 C51 1.268 . S
O62 Sc46 2.105 . S
O62 C53 1.268 . S
O63 Sc44 2.105 . S
O63 C49 1.268 . S
O64 Sc46 2.105 . S
O64 C48 1.268 . S
O65 Sc45 2.105 . S
O65 C50 1.268 . S
Sc66 O69 2.025 1_556 S
Sc66 O76 2.105 . S
Sc66 O79 2.105 . S
Sc66 O82 2.105 . S
Sc66 O85 2.105 1_556 S
Sc67 O69 2.025 . S
Sc67 O77 2.105 . S
Sc67 O81 2.105 . S
Sc67 O83 2.105 1_554 S
Sc67 O87 2.105 . S
Sc68 O69 2.025 . S
Sc68 O78 2.105 . S
Sc68 O80 2.105 1_554 S
Sc68 O84 2.105 1_554 S
Sc68 O86 2.105 . S
O69 Sc66 2.025 1_554 S
O69 Sc67 2.025 . S
O69 Sc68 2.025 . S
C70 O76 1.268 1_554 S
C70 O86 1.268 . S
C71 O77 1.268 . S
C71 O85 1.268 . S
C72 O78 1.268 . S
C72 O87 1.268 . S
C73 O79 1.268 . S
C73 O83 1.268 . S
C74 O80 1.268 . S
C74 O82 1.268 . S
C75 O81 1.268 1_556 S
C75 O84 1.268 . S
O76 Sc66 2.105 . S
O76 C70 1.268 1_556 S
O77 Sc67 2.105 . S
O77 C71 1.268 . S
O78 Sc68 2.105 . S
O78 C72 1.268 . S
O79 Sc66 2.105 . S
O79 C73 1.268 . S
O80 Sc68 2.105 1_556 S
O80 C74 1.268 . S
O81 Sc67 2.105 . S
O81 C75 1.268 1_554 S
O82 Sc66 2.105 . S
O82 C74 1.268 . S
O83 Sc67 2.105 1_556 S
O83 C73 1.268 . S
O84 Sc68 2.105 1_556 S
O84 C75 1.268 . S
O85 Sc66 2.105 1_554 S
O85 C71 1.268 . S
O86 Sc68 2.105 . S
O86 C70 1.268 . S
O87 Sc67 2.105 . S
O87 C72 1.268 . S
Sc88 O91 2.025 . S
Sc88 O98 2.105 . S
Sc88 O101 2.105 . S
Sc88 O104 2.105 . S
Sc88 O107 2.105 . S
Sc89 O91 2.025 . S
Sc89 O99 2.105 . S
Sc89 O103 2.105 . S
Sc89 O105 2.105 . S
Sc89 O109 2.105 . S
Sc90 O91 2.025 . S
Sc90 O100 2.105 . S
Sc90 O102 2.105 . S
Sc90 O106 2.105 . S
Sc90 O108 2.105 . S
O91 Sc88 2.025 . S
O91 Sc89 2.025 . S
O91 Sc90 2.025 . S
C92 O98 1.268 . S
C92 O108 1.268 . S
C93 O99 1.268 . S
C93 O107 1.268 . S
C94 O100 1.268 . S
C94 O109 1.268 . S
C95 O101 1.268 . S
C95 O105 1.268 . S
C96 O102 1.268 . S
C96 O104 1.268 . S
C97 O103 1.268 . S
C97 O106 1.268 . S
O98 Sc88 2.105 . S
O98 C92 1.268 . S
O99 Sc89 2.105 . S
O99 C93 1.268 . S
O100 Sc90 2.105 . S
O100 C94 1.268 . S
O101 Sc88 2.105 . S
O101 C95 1.268 . S
O102 Sc90 2.105 . S
O102 C96 1.268 . S
O103 Sc89 2.105 . S
O103 C97 1.268 . S
O104 Sc88 2.105 . S
O104 C96 1.268 . S
O105 Sc89 2.105 . S
O105 C95 1.268 . S
O106 Sc90 2.105 . S
O106 C97 1.268 . S
O107 Sc88 2.105 . S
O107 C93 1.268 . S
O108 Sc90 2.105 . S
O108 C92 1.268 . S
O109 Sc89 2.105 . S
O109 C94 1.268 . S
Sc110 O113 2.025 . S
Sc110 O120 2.105 . S
Sc110 O123 2.105 . S
Sc110 O126 2.105 . S
Sc110 O129 2.105 . S
Sc111 O113 2.025 . S
Sc111 O121 2.105 . S
Sc111 O125 2.105 . S
Sc111 O127 2.105 . S
Sc111 O131 2.105 . S
Sc112 O113 2.025 . S
Sc112 O122 2.105 . S
Sc112 O124 2.105 . S
Sc112 O128 2.105 . S
Sc112 O130 2.105 . S
O113 Sc110 2.025 . S
O113 Sc111 2.025 . S
O113 Sc112 2.025 . S
C114 O120 1.268 . S
C114 O130 1.268 . S
C115 O121 1.268 . S
C115 O129 1.268 . S
C116 O122 1.268 . S
C116 O131 1.268 . S
C117 O123 1.268 . S
C117 O127 1.268 . S
C118 O124 1.268 . S
C118 O126 1.268 . S
C119 O125 1.268 . S
C119 O128 1.268 . S
O120 Sc110 2.105 . S
O120 C114 1.268 . S
O121 Sc111 2.105 . S
O121 C115 1.268 . S
O122 Sc112 2.105 . S
O122 C116 1.268 . S
O123 Sc110 2.105 . S
O123 C117 1.268 . S
O124 Sc112 2.105 . S
O124 C118 1.268 . S
O125 Sc111 2.105 . S
O125 C119 1.268 . S
O126 Sc110 2.105 . S
O126 C118 1.268 . S
O127 Sc111 2.105 . S
O127 C117 1.268 . S
O128 Sc112 2.105 . S
O128 C119 1.268 . S
O129 Sc110 2.105 . S
O129 C115 1.268 . S
O130 Sc112 2.105 . S
O130 C114 1.268 . S
O131 Sc111 2.105 . S
O131 C116 1.268 . S
C132 C133 1.386 . S
C132 C134 1.383 . S
C132 H148 0.951 . S
C133 C132 1.386 . S
C133 C137 1.383 . S
C134 C132 1.383 . S
C134 C135 1.402 . S
C134 H149 0.951 . S
C135 C134 1.402 . S
C135 C136 1.375 . S
C135 C138 1.481 . S
C136 C135 1.375 . S
C136 C137 1.367 . S
C136 H150 0.951 . S
C137 C133 1.383 . S
C137 C136 1.367 . S
C137 H151 0.950 . S
C138 C135 1.481 . S
C138 C139 1.297 . S
C138 H152 0.950 . S
C139 C138 1.297 . S
C139 C140 1.479 . S
C139 H153 0.950 . S
C140 C139 1.479 . S
C140 C141 1.375 . S
C140 C146 1.404 . S
C141 C140 1.375 . S
C141 C142 1.369 1_556 S
C141 H154 0.950 1_556 S
C142 C141 1.369 1_554 S
C142 C143 1.392 1_554 S
C142 H155 0.951 . S
C143 C142 1.392 1_556 S
C143 C145 1.384 . S
H144 C146 0.949 . S
C145 C143 1.384 . S
C145 C146 1.385 . S
C145 H147 0.950 . S
C146 C140 1.404 . S
C146 H144 0.949 . S
C146 C145 1.385 . S
H147 C145 0.950 . S
H148 C132 0.951 . S
H149 C134 0.951 . S
H150 C136 0.951 . S
H151 C137 0.950 . S
H152 C138 0.950 . S
H153 C139 0.950 . S
H154 C141 0.950 1_554 S
H155 C142 0.951 . S
C156 C157 1.386 . S
C156 C158 1.383 . S
C156 H172 0.951 1_554 S
C157 C156 1.386 . S
C157 C161 1.383 . S
C158 C156 1.383 . S
C158 C159 1.402 . S
C158 H173 0.951 . S
C159 C158 1.402 . S
C159 C160 1.375 . S
C159 C162 1.481 . S
C160 C159 1.375 . S
C160 C161 1.367 . S
C160 H174 0.951 . S
C161 C157 1.383 . S
C161 C160 1.367 . S
C161 H175 0.950 . S
C162 C159 1.481 . S
C162 C163 1.297 1_455 S
C162 H176 0.950 . S
C163 C162 1.297 1_655 S
C163 C164 1.479 . S
C163 H177 0.950 . S
C164 C163 1.479 . S
C164 C165 1.375 . S
C164 C170 1.404 . S
C165 C164 1.375 . S
C165 C166 1.369 . S
C165 H178 0.950 . S
C166 C165 1.369 . S
C166 C167 1.392 . S
C166 H179 0.951 . S
C167 C166 1.392 . S
C167 C169 1.384 . S
H168 C170 0.949 . S
C169 C167 1.384 . S
C169 C170 1.385 . S
C169 H171 0.950 . S
C170 C164 1.404 . S
C170 H168 0.949 . S
C170 C169 1.385 . S
H171 C169 0.950 . S
H172 C156 0.951 1_556 S
H173 C158 0.951 . S
H174 C160 0.951 . S
H175 C161 0.950 . S
H176 C162 0.950 . S
H177 C163 0.950 . S
H178 C165 0.950 . S
H179 C166 0.951 . S
C180 C181 1.386 . S
C180 C182 1.383 . S
C180 H196 0.951 . S
C181 C180 1.386 . S
C181 C185 1.383 . S
C182 C180 1.383 . S
C182 C183 1.402 . S
C182 H197 0.951 . S
C183 C182 1.402 . S
C183 C184 1.375 . S
C183 C186 1.481 . S
C184 C183 1.375 . S
C184 C185 1.367 . S
C184 H198 0.951 . S
C185 C181 1.383 . S
C185 C184 1.367 . S
C185 H199 0.950 . S
C186 C183 1.481 . S
C186 C187 1.297 1_545 S
C186 H200 0.950 . S
C187 C186 1.297 1_565 S
C187 C188 1.479 . S
C187 H201 0.950 . S
C188 C187 1.479 . S
C188 C189 1.375 . S
C188 C194 1.404 . S
C189 C188 1.375 . S
C189 C190 1.369 . S
C189 H202 0.950 . S
C190 C189 1.369 . S
C190 C191 1.392 . S
C190 H203 0.951 . S
C191 C190 1.392 . S
C191 C193 1.384 . S
H192 C194 0.949 . S
C193 C191 1.384 . S
C193 C194 1.385 . S
C193 H195 0.950 . S
C194 C188 1.404 . S
C194 H192 0.949 . S
C194 C193 1.385 . S
H195 C193 0.950 . S
H196 C180 0.951 . S
H197 C182 0.951 . S
H198 C184 0.951 . S
H199 C185 0.950 . S
H200 C186 0.950 . S
H201 C187 0.950 . S
H202 C189 0.950 . S
H203 C190 0.951 . S
C204 C205 1.386 . S
C204 C206 1.383 . S
C204 H220 0.951 . S
C205 C204 1.386 . S
C205 C209 1.383 . S
C206 C204 1.383 . S
C206 C207 1.402 . S
C206 H221 0.951 . S
C207 C206 1.402 . S
C207 C208 1.375 . S
C207 C210 1.481 . S
C208 C207 1.375 . S
C208 C209 1.367 . S
C208 H222 0.951 . S
C209 C205 1.383 . S
C209 C208 1.367 . S
C209 H223 0.950 . S
C210 C207 1.481 . S
C210 C211 1.297 . S
C210 H224 0.950 . S
C211 C210 1.297 . S
C211 C212 1.479 . S
C211 H225 0.950 . S
C212 C211 1.479 . S
C212 C213 1.375 . S
C212 C218 1.404 . S
C213 C212 1.375 . S
C213 C214 1.369 . S
C213 H226 0.950 . S
C214 C213 1.369 . S
C214 C215 1.392 . S
C214 H227 0.951 . S
C215 C214 1.392 . S
C215 C217 1.384 . S
H216 C218 0.949 . S
C217 C215 1.384 . S
C217 C218 1.385 . S
C217 H219 0.950 . S
C218 C212 1.404 . S
C218 H216 0.949 . S
C218 C217 1.385 . S
H219 C217 0.950 . S
H220 C204 0.951 . S
H221 C206 0.951 . S
H222 C208 0.951 . S
H223 C209 0.950 . S
H224 C210 0.950 . S
H225 C211 0.950 . S
H226 C213 0.950 . S
H227 C214 0.951 . S
C228 C229 1.386 . S
C228 C230 1.383 . S
C228 H244 0.951 . S
C229 C228 1.386 . S
C229 C233 1.383 . S
C230 C228 1.383 . S
C230 C231 1.402 . S
C230 H245 0.951 . S
C231 C230 1.402 . S
C231 C232 1.375 . S
C231 C234 1.481 . S
C232 C231 1.375 . S
C232 C233 1.367 . S
C232 H246 0.951 . S
C233 C229 1.383 . S
C233 C232 1.367 . S
C233 H247 0.950 . S
C234 C231 1.481 . S
C234 C235 1.297 1_455 S
C234 H248 0.950 . S
C235 C234 1.297 1_655 S
C235 C236 1.479 . S
C235 H249 0.950 . S
C236 C235 1.479 . S
C236 C237 1.375 . S
C236 C242 1.404 . S
C237 C236 1.375 . S
C237 C238 1.369 . S
C237 H250 0.950 . S
C238 C237 1.369 . S
C238 C239 1.392 . S
C238 H251 0.951 . S
C239 C238 1.392 . S
C239 C241 1.384 . S
H240 C242 0.949 . S
C241 C239 1.384 . S
C241 C242 1.385 . S
C241 H243 0.950 1_554 S
C242 C236 1.404 . S
C242 H240 0.949 . S
C242 C241 1.385 . S
H243 C241 0.950 1_556 S
H244 C228 0.951 . S
H245 C230 0.951 . S
H246 C232 0.951 . S
H247 C233 0.950 . S
H248 C234 0.950 . S
H249 C235 0.950 . S
H250 C237 0.950 . S
H251 C238 0.951 . S
C252 C253 1.386 . S
C252 C254 1.383 . S
C252 H268 0.951 . S
C253 C252 1.386 . S
C253 C257 1.383 . S
C254 C252 1.383 . S
C254 C255 1.402 . S
C254 H269 0.951 . S
C255 C254 1.402 . S
C255 C256 1.375 . S
C255 C258 1.481 . S
C256 C255 1.375 . S
C256 C257 1.367 . S
C256 H270 0.951 . S
C257 C253 1.383 . S
C257 C256 1.367 . S
C257 H271 0.950 . S
C258 C255 1.481 . S
C258 C259 1.297 1_545 S
C258 H272 0.950 . S
C259 C258 1.297 1_565 S
C259 C260 1.479 . S
C259 H273 0.976 . S
C260 C259 1.479 . S
C260 C261 1.375 . S
C260 C266 1.404 . S
C261 C260 1.375 . S
C261 C262 1.369 . S
C261 H274 0.950 . S
C262 C261 1.369 . S
C262 C263 1.392 . S
C262 H275 0.951 . S
C263 C262 1.392 . S
C263 C265 1.384 . S
H264 C266 0.949 . S
C265 C263 1.384 . S
C265 C266 1.385 . S
C265 H267 0.950 . S
C266 C260 1.404 . S
C266 H264 0.949 . S
C266 C265 1.385 . S
H267 C265 0.950 . S
H268 C252 0.951 . S
H269 C254 0.951 . S
H270 C256 0.951 . S
H271 C257 0.950 . S
H272 C258 0.950 . S
H273 C259 0.976 . S
H274 C261 0.950 . S
H275 C262 0.951 . S
C276 C277 1.386 . S
C276 C278 1.383 . S
C276 H292 0.951 . S
C277 C276 1.386 . S
C277 C281 1.383 . S
C278 C276 1.383 . S
C278 C279 1.402 . S
C278 H293 0.951 . S
C279 C278 1.402 . S
C279 C280 1.375 . S
C279 C282 1.481 . S
C280 C279 1.375 . S
C280 C281 1.367 . S
C280 H294 0.951 . S
C281 C277 1.383 . S
C281 C280 1.367 . S
C281 H295 0.950 . S
C282 C279 1.481 . S
C282 C283 1.297 . S
C282 H296 0.950 . S
C283 C282 1.297 . S
C283 C284 1.479 . S
C283 H297 0.950 . S
C284 C283 1.479 . S
C284 C285 1.375 . S
C284 C290 1.404 . S
C285 C284 1.375 . S
C285 C286 1.369 . S
C285 H298 0.950 . S
C286 C285 1.369 . S
C286 C287 1.392 . S
C286 H299 0.951 . S
C287 C286 1.392 . S
C287 C289 1.384 . S
H288 C290 0.949 . S
C289 C287 1.384 . S
C289 C290 1.385 . S
C289 H291 0.950 . S
C290 C284 1.404 . S
C290 H288 0.949 . S
C290 C289 1.385 . S
H291 C289 0.950 . S
H292 C276 0.951 . S
H293 C278 0.951 . S
H294 C280 0.951 . S
H295 C281 0.950 . S
H296 C282 0.950 . S
H297 C283 0.950 . S
H298 C285 0.950 . S
H299 C286 0.951 . S
C300 C301 1.386 . S
C300 C302 1.383 1_554 S
C300 H316 0.951 . S
C301 C300 1.386 . S
C301 C305 1.383 . S
C302 C300 1.383 1_556 S
C302 C303 1.402 . S
C302 H317 0.951 . S
C303 C302 1.402 . S
C303 C304 1.375 . S
C303 C306 1.481 . S
C304 C303 1.375 . S
C304 C305 1.367 1_556 S
C304 H318 0.951 . S
C305 C301 1.383 . S
C305 C304 1.367 1_554 S
C305 H319 0.950 . S
C306 C303 1.481 . S
C306 C307 1.297 . S
C306 H320 0.950 . S
C307 C306 1.297 . S
C307 C308 1.479 . S
C307 H321 0.950 . S
C308 C307 1.479 . S
C308 C309 1.375 . S
C308 C314 1.404 . S
C309 C308 1.375 . S
C309 C310 1.369 . S
C309 H322 0.950 . S
C310 C309 1.369 . S
C310 C311 1.392 . S
C310 H323 0.951 . S
C311 C310 1.392 . S
C311 C313 1.384 . S
H312 C314 0.949 . S
C313 C311 1.384 . S
C313 C314 1.385 . S
C313 H315 0.950 . S
C314 C308 1.404 . S
C314 H312 0.949 . S
C314 C313 1.385 . S
H315 C313 0.950 . S
H316 C300 0.951 . S
H317 C302 0.951 . S
H318 C304 0.951 . S
H319 C305 0.950 . S
H320 C306 0.950 . S
H321 C307 0.950 . S
H322 C309 0.950 . S
H323 C310 0.951 . S
C324 C325 1.386 . S
C324 C326 1.383 . S
C324 H340 0.951 . S
C325 C324 1.386 . S
C325 C329 1.383 . S
C326 C324 1.383 . S
C326 C327 1.402 . S
C326 H341 0.951 . S
C327 C326 1.402 . S
C327 C328 1.375 . S
C327 C330 1.481 . S
C328 C327 1.375 . S
C328 C329 1.367 . S
C328 H342 0.951 . S
C329 C325 1.383 . S
C329 C328 1.367 . S
C329 H343 0.950 . S
C330 C327 1.481 . S
C330 C331 1.297 . S
C330 H344 0.950 . S
C331 C330 1.297 . S
C331 C332 1.479 . S
C331 H345 0.950 . S
C332 C331 1.479 . S
C332 C333 1.375 . S
C332 C338 1.404 . S
C333 C332 1.375 . S
C333 C334 1.369 1_554 S
C333 H346 0.950 . S
C334 C333 1.369 1_556 S
C334 C335 1.392 . S
C334 H347 0.951 . S
C335 C334 1.392 . S
C335 C337 1.384 . S
H336 C338 0.949 . S
C337 C335 1.384 . S
C337 C338 1.385 1_556 S
C337 H339 0.950 . S
C338 C332 1.404 . S
C338 H336 0.949 . S
C338 C337 1.385 1_554 S
H339 C337 0.950 . S
H340 C324 0.951 . S
H341 C326 0.951 . S
H342 C328 0.951 . S
H343 C329 0.950 . S
H344 C330 0.950 . S
H345 C331 0.950 . S
H346 C333 0.950 . S
H347 C334 0.951 . S
C348 C349 1.386 . S
C348 C350 1.383 . S
C348 H364 0.951 . S
C349 C348 1.386 . S
C349 C353 1.383 . S
C350 C348 1.383 . S
C350 C351 1.402 . S
C350 H365 0.951 . S
C351 C350 1.402 . S
C351 C352 1.375 . S
C351 C354 1.481 . S
C352 C351 1.375 . S
C352 C353 1.367 . S
C352 H366 0.951 . S
C353 C349 1.383 . S
C353 C352 1.367 . S
C353 H367 0.950 . S
C354 C351 1.481 . S
C354 C355 1.297 . S
C354 H368 0.950 . S
C355 C354 1.297 . S
C355 C356 1.479 . S
C355 H369 0.950 . S
C356 C355 1.479 . S
C356 C357 1.375 . S
C356 C362 1.404 . S
C357 C356 1.375 . S
C357 C358 1.369 . S
C357 H370 0.950 . S
C358 C357 1.369 . S
C358 C359 1.392 . S
C358 H371 0.951 . S
C359 C358 1.392 . S
C359 C361 1.384 . S
H360 C362 0.949 . S
C361 C359 1.384 . S
C361 C362 1.385 . S
C361 H363 0.950 . S
C362 C356 1.404 . S
C362 H360 0.949 . S
C362 C361 1.385 . S
H363 C361 0.950 . S
H364 C348 0.951 . S
H365 C350 0.951 . S
H366 C352 0.951 . S
H367 C353 0.950 . S
H368 C354 0.950 . S
H369 C355 0.950 . S
H370 C357 0.950 . S
H371 C358 0.951 . S
C372 C373 1.386 . S
C372 C374 1.383 . S
C372 H388 0.951 . S
C373 C372 1.386 . S
C373 C377 1.383 . S
C374 C372 1.383 . S
C374 C375 1.402 . S
C374 H389 0.951 . S
C375 C374 1.402 . S
C375 C376 1.375 . S
C375 C378 1.481 . S
C376 C375 1.375 . S
C376 C377 1.367 . S
C376 H390 0.951 . S
C377 C373 1.383 . S
C377 C376 1.367 . S
C377 H391 0.950 . S
C378 C375 1.481 . S
C378 C379 1.297 . S
C378 H392 0.950 . S
C379 C378 1.297 . S
C379 C380 1.479 . S
C379 H393 0.950 . S
C380 C379 1.479 . S
C380 C381 1.375 . S
C380 C386 1.404 . S
C381 C380 1.375 . S
C381 C382 1.369 1_556 S
C381 H394 0.950 . S
C382 C381 1.369 1_554 S
C382 C383 1.392 . S
C382 H395 0.951 . S
C383 C382 1.392 . S
C383 C385 1.384 . S
H384 C386 0.949 . S
C385 C383 1.384 . S
C385 C386 1.385 1_554 S
C385 H387 0.950 . S
C386 C380 1.404 . S
C386 H384 0.949 . S
C386 C385 1.385 1_556 S
H387 C385 0.950 . S
H388 C372 0.951 . S
H389 C374 0.951 . S
H390 C376 0.951 . S
H391 C377 0.950 . S
H392 C378 0.950 . S
H393 C379 0.950 . S
H394 C381 0.950 . S
H395 C382 0.951 . S
C396 C397 1.386 . S
C396 C398 1.383 . S
C396 H412 0.951 . S
C397 C396 1.386 . S
C397 C401 1.383 . S
C398 C396 1.383 . S
C398 C399 1.402 . S
C398 H413 0.951 . S
C399 C398 1.402 . S
C399 C400 1.375 . S
C399 C402 1.481 . S
C400 C399 1.375 . S
C400 C401 1.367 . S
C400 H414 0.951 . S
C401 C397 1.383 . S
C401 C400 1.367 . S
C401 H415 0.950 . S
C402 C399 1.481 . S
C402 C403 1.297 . S
C402 H416 0.950 . S
C403 C402 1.297 . S
C403 C404 1.479 . S
C403 H417 0.950 . S
C404 C403 1.479 . S
C404 C405 1.375 . S
C404 C410 1.404 . S
C405 C404 1.375 . S
C405 C406 1.369 1_554 S
C405 H418 0.950 . S
C406 C405 1.369 1_556 S
C406 C407 1.392 . S
C406 H419 0.951 . S
C407 C406 1.392 . S
C407 C409 1.384 . S
H408 C410 0.949 . S
C409 C407 1.384 . S
C409 C410 1.385 1_556 S
C409 H411 0.950 . S
C410 C404 1.404 . S
C410 H408 0.949 . S
C410 C409 1.385 1_554 S
H411 C409 0.950 . S
H412 C396 0.951 . S
H413 C398 0.951 . S
H414 C400 0.951 . S
H415 C401 0.950 . S
H416 C402 0.950 . S
H417 C403 0.950 . S
H418 C405 0.950 . S
H419 C406 0.951 . S
C420 C421 1.386 . S
C420 C422 1.383 . S
C420 H436 0.951 . S
C421 C420 1.386 . S
C421 C425 1.383 . S
C422 C420 1.383 . S
C422 C423 1.402 . S
C422 H437 0.951 . S
C423 C422 1.402 . S
C423 C424 1.375 . S
C423 C426 1.481 . S
C424 C423 1.375 . S
C424 C425 1.367 . S
C424 H438 0.951 . S
C425 C421 1.383 . S
C425 C424 1.367 . S
C425 H439 0.950 . S
C426 C423 1.481 . S
C426 C427 1.297 . S
C426 H440 0.950 . S
C427 C426 1.297 . S
C427 C428 1.479 . S
C427 H441 0.950 . S
C428 C427 1.479 . S
C428 C429 1.375 . S
C428 C434 1.404 . S
C429 C428 1.375 . S
C429 C430 1.369 . S
C429 H442 0.950 . S
C430 C429 1.369 . S
C430 C431 1.392 . S
C430 H443 0.951 . S
C431 C430 1.392 . S
C431 C433 1.384 . S
H432 C434 0.949 . S
C433 C431 1.384 . S
C433 C434 1.385 . S
C433 H435 0.950 . S
C434 C428 1.404 . S
C434 H432 0.949 . S
C434 C433 1.385 . S
H435 C433 0.950 . S
H436 C420 0.951 . S
H437 C422 0.951 . S
H438 C424 0.951 . S
H439 C425 0.950 . S
H440 C426 0.950 . S
H441 C427 0.950 . S
H442 C429 0.950 . S
H443 C430 0.951 . S
C444 C445 1.386 . S
C444 C446 1.383 . S
C444 H460 0.951 . S
C445 C444 1.386 . S
C445 C449 1.383 . S
C446 C444 1.383 . S
C446 C447 1.402 . S
C446 H461 0.951 . S
C447 C446 1.402 . S
C447 C448 1.375 . S
C447 C450 1.481 . S
C448 C447 1.375 . S
C448 C449 1.367 . S
C448 H462 0.951 . S
C449 C445 1.383 . S
C449 C448 1.367 . S
C449 H463 0.950 . S
C450 C447 1.481 . S
C450 C451 1.297 . S
C450 H464 0.950 . S
C451 C450 1.297 . S
C451 C452 1.479 . S
C451 H465 0.950 . S
C452 C451 1.479 . S
C452 C453 1.375 . S
C452 C458 1.404 . S
C453 C452 1.375 . S
C453 C454 1.369 . S
C453 H466 0.950 . S
C454 C453 1.369 . S
C454 C455 1.392 . S
C454 H467 0.951 . S
C455 C454 1.392 . S
C455 C457 1.384 . S
H456 C458 0.949 . S
C457 C455 1.384 . S
C457 C458 1.385 . S
C457 H459 0.950 . S
C458 C452 1.404 . S
C458 H456 0.949 . S
C458 C457 1.385 . S
H459 C457 0.950 . S
H460 C444 0.951 . S
H461 C446 0.951 . S
H462 C448 0.951 . S
H463 C449 0.950 . S
H464 C450 0.950 . S
H465 C451 0.950 . S
H466 C453 0.950 . S
H467 C454 0.951 . S
C468 C469 1.386 . S
C468 C470 1.383 . S
C468 H484 0.951 . S
C469 C468 1.386 . S
C469 C473 1.383 . S
C470 C468 1.383 . S
C470 C471 1.402 . S
C470 H485 0.951 . S
C471 C470 1.402 . S
C471 C472 1.375 . S
C471 C474 1.481 . S
C472 C471 1.375 . S
C472 C473 1.367 . S
C472 H486 0.951 . S
C473 C469 1.383 . S
C473 C472 1.367 . S
C473 H487 0.950 . S
C474 C471 1.481 . S
C474 C475 1.297 . S
C474 H488 0.950 . S
C475 C474 1.297 . S
C475 C476 1.479 . S
C475 H489 0.950 . S
C476 C475 1.479 . S
C476 C477 1.375 . S
C476 C482 1.404 . S
C477 C476 1.375 . S
C477 C478 1.369 . S
C477 H490 0.950 . S
C478 C477 1.369 . S
C478 C479 1.392 . S
C478 H491 0.951 . S
C479 C478 1.392 . S
C479 C481 1.384 . S
H480 C482 0.949 . S
C481 C479 1.384 . S
C481 C482 1.385 . S
C481 H483 0.950 . S
C482 C476 1.404 . S
C482 H480 0.949 . S
C482 C481 1.385 . S
H483 C481 0.950 . S
H484 C468 0.951 . S
H485 C470 0.951 . S
H486 C472 0.951 . S
H487 C473 0.950 . S
H488 C474 0.950 . S
H489 C475 0.950 . S
H490 C477 0.950 . S
H491 C478 0.951 . S
C492 C493 1.386 . S
C492 C494 1.383 . S
C492 H508 0.951 . S
C493 C492 1.386 . S
C493 C497 1.383 . S
C494 C492 1.383 . S
C494 C495 1.402 . S
C494 H509 0.951 . S
C495 C494 1.402 . S
C495 C496 1.375 . S
C495 C498 1.481 . S
C496 C495 1.375 . S
C496 C497 1.367 . S
C496 H510 0.951 . S
C497 C493 1.383 . S
C497 C496 1.367 . S
C497 H511 0.950 . S
C498 C495 1.481 . S
C498 C499 1.297 . S
C498 H512 0.950 . S
C499 C498 1.297 . S
C499 C500 1.479 . S
C499 H513 0.950 . S
C500 C499 1.479 . S
C500 C501 1.375 . S
C500 C506 1.404 . S
C501 C500 1.375 . S
C501 C502 1.369 . S
C501 H514 0.950 . S
C502 C501 1.369 . S
C502 C503 1.392 . S
C502 H515 0.951 . S
C503 C502 1.392 . S
C503 C505 1.384 . S
H504 C506 0.949 . S
C505 C503 1.384 . S
C505 C506 1.385 . S
C505 H507 0.950 . S
C506 C500 1.404 . S
C506 H504 0.949 . S
C506 C505 1.385 . S
H507 C505 0.950 . S
H508 C492 0.951 . S
H509 C494 0.951 . S
H510 C496 0.951 . S
H511 C497 0.950 . S
H512 C498 0.950 . S
H513 C499 0.950 . S
H514 C501 0.950 . S
H515 C502 0.951 . S
C516 C517 1.386 . S
C516 C518 1.383 . S
C516 H532 0.951 . S
C517 C516 1.386 . S
C517 C521 1.383 . S
C518 C516 1.383 . S
C518 C519 1.402 . S
C518 H533 0.951 . S
C519 C518 1.402 . S
C519 C520 1.375 . S
C519 C522 1.481 . S
C520 C519 1.375 . S
C520 C521 1.367 . S
C520 H534 0.951 . S
C521 C517 1.383 . S
C521 C520 1.367 . S
C521 H535 0.950 . S
C522 C519 1.481 . S
C522 C523 1.297 . S
C522 H536 0.950 . S
C523 C522 1.297 . S
C523 C524 1.479 . S
C523 H537 0.950 . S
C524 C523 1.479 . S
C524 C525 1.375 . S
C524 C530 1.404 . S
C525 C524 1.375 . S
C525 C526 1.369 . S
C525 H538 0.950 . S
C526 C525 1.369 . S
C526 C527 1.392 . S
C526 H539 0.951 . S
C527 C526 1.392 . S
C527 C529 1.384 . S
H528 C530 0.949 . S
C529 C527 1.384 . S
C529 C530 1.385 . S
C529 H531 0.950 . S
C530 C524 1.404 . S
C530 H528 0.949 . S
C530 C529 1.385 . S
H531 C529 0.950 . S
H532 C516 0.951 . S
H533 C518 0.951 . S
H534 C520 0.951 . S
H535 C521 0.950 . S
H536 C522 0.950 . S
H537 C523 0.950 . S
H538 C525 0.950 . S
H539 C526 0.951 . S
C540 C541 1.386 . S
C540 C542 1.383 . S
C540 H556 0.951 . S
C541 C540 1.386 . S
C541 C545 1.383 . S
C542 C540 1.383 . S
C542 C543 1.402 . S
C542 H557 0.951 . S
C543 C542 1.402 . S
C543 C544 1.375 . S
C543 C546 1.481 . S
C544 C543 1.375 . S
C544 C545 1.367 . S
C544 H558 0.951 . S
C545 C541 1.383 . S
C545 C544 1.367 . S
C545 H559 0.950 . S
C546 C543 1.481 . S
C546 C547 1.297 . S
C546 H560 0.950 . S
C547 C546 1.297 . S
C547 C548 1.479 . S
C547 H561 0.950 . S
C548 C547 1.479 . S
C548 C549 1.375 . S
C548 C554 1.404 . S
C549 C548 1.375 . S
C549 C550 1.369 . S
C549 H562 0.950 . S
C550 C549 1.369 . S
C550 C551 1.392 . S
C550 H563 0.951 . S
C551 C550 1.392 . S
C551 C553 1.384 . S
H552 C554 0.949 . S
C553 C551 1.384 . S
C553 C554 1.385 . S
C553 H555 0.950 . S
C554 C548 1.404 . S
C554 H552 0.949 . S
C554 C553 1.385 . S
H555 C553 0.950 . S
H556 C540 0.951 . S
H557 C542 0.951 . S
H558 C544 0.951 . S
H559 C545 0.950 . S
H560 C546 0.950 . S
H561 C547 0.950 . S
H562 C549 0.950 . S
H563 C550 0.951 . S
C133 C114 1.673 . S
C143 C5 1.672 . S
C157 C8 1.651 . S
C167 C31 1.639 . S
C181 C26 1.656 . S
C191 C49 1.636 . S
C205 C52 1.655 . S
C215 C75 1.652 . S
C229 C93 1.651 . S
C239 C70 1.635 . S
C253 C119 1.665 . S
C263 C96 1.647 . S
C277 C4 1.180 . S
C287 C7 1.159 . S
C301 C30 1.175 . S
C311 C28 1.122 . S
C325 C48 1.174 . S
C335 C51 1.121 . S
C349 C74 1.144 . S
C359 C72 1.188 . S
C373 C95 1.142 . S
C383 C92 1.180 . S
C397 C118 1.179 . S
C407 C116 1.160 . S
C421 C9 1.150 . S
C431 C94 1.076 . S
C445 C27 1.152 . S
C455 C117 1.081 . S
C469 C6 1.083 . S
C479 C53 1.063 . S
C493 C29 1.162 . S
C503 C71 1.121 . S
C517 C97 1.101 . S
C527 C50 1.172 . S
C541 C73 1.078 . S
C551 C115 1.118 . S
