# Generated by pormake.
# Topology whk, (6)-cn, num edge types: 1
# Building blocks:
#     Node 0, Type 0, BuildingBlock: VOLQOD_clean_sbu_1, # of connection points: 6
#     Node 1, Type 0, BuildingBlock: VOLQOD_clean_sbu_1, # of connection points: 6
#     Node 2, Type 0, BuildingBlock: VOLQOD_clean_sbu_1, # of connection points: 6
#     Node 3, Type 0, BuildingBlock: VOLQOD_clean_sbu_1, # of connection points: 6
#     Node 4, Type 0, BuildingBlock: VOLQOD_clean_sbu_1, # of connection points: 6
#     Node 5, Type 0, BuildingBlock: VOLQOD_clean_sbu_1, # of connection points: 6
#     Node 6, Type 0, BuildingBlock: VOLQOD_clean_sbu_1, # of connection points: 6
#     Node 7, Type 0, BuildingBlock: VOLQOD_clean_sbu_1, # of connection points: 6
#     Node 8, Type 0, BuildingBlock: VOLQOD_clean_sbu_1, # of connection points: 6
#     Node 9, Type 0, BuildingBlock: VOLQOD_clean_sbu_1, # of connection points: 6
#     Node 10, Type 0, BuildingBlock: VOLQOD_clean_sbu_1, # of connection points: 6
#     Node 11, Type 0, BuildingBlock: VOLQOD_clean_sbu_1, # of connection points: 6
#     Node 12, Type 0, BuildingBlock: VOLQOD_clean_sbu_1, # of connection points: 6
#     Node 13, Type 0, BuildingBlock: VOLQOD_clean_sbu_1, # of connection points: 6
#     Node 14, Type 0, BuildingBlock: VOLQOD_clean_sbu_1, # of connection points: 6
#     Node 15, Type 0, BuildingBlock: VOLQOD_clean_sbu_1, # of connection points: 6
#     Edge 16, Type (0, 0), BuildingBlock: OJICUG_clean_linker_0, # of connection points: 2
#     Edge 17, Type (0, 0), BuildingBlock: OJICUG_clean_linker_0, # of connection points: 2
#     Edge 18, Type (0, 0), BuildingBlock: OJICUG_clean_linker_0, # of connection points: 2
#     Edge 19, Type (0, 0), BuildingBlock: OJICUG_clean_linker_0, # of connection points: 2
#     Edge 20, Type (0, 0), BuildingBlock: OJICUG_clean_linker_0, # of connection points: 2
#     Edge 21, Type (0, 0), BuildingBlock: OJICUG_clean_linker_0, # of connection points: 2
#     Edge 22, Type (0, 0), BuildingBlock: OJICUG_clean_linker_0, # of connection points: 2
#     Edge 23, Type (0, 0), BuildingBlock: OJICUG_clean_linker_0, # of connection points: 2
#     Edge 24, Type (0, 0), BuildingBlock: OJICUG_clean_linker_0, # of connection points: 2
#     Edge 25, Type (0, 0), BuildingBlock: OJICUG_clean_linker_0, # of connection points: 2
#     Edge 26, Type (0, 0), BuildingBlock: OJICUG_clean_linker_0, # of connection points: 2
#     Edge 27, Type (0, 0), BuildingBlock: OJICUG_clean_linker_0, # of connection points: 2
#     Edge 28, Type (0, 0), BuildingBlock: OJICUG_clean_linker_0, # of connection points: 2
#     Edge 29, Type (0, 0), BuildingBlock: OJICUG_clean_linker_0, # of connection points: 2
#     Edge 30, Type (0, 0), BuildingBlock: OJICUG_clean_linker_0, # of connection points: 2
#     Edge 31, Type (0, 0), BuildingBlock: OJICUG_clean_linker_0, # of connection points: 2
#     Edge 32, Type (0, 0), BuildingBlock: OJICUG_clean_linker_0, # of connection points: 2
#     Edge 33, Type (0, 0), BuildingBlock: OJICUG_clean_linker_0, # of connection points: 2
#     Edge 34, Type (0, 0), BuildingBlock: OJICUG_clean_linker_0, # of connection points: 2
#     Edge 35, Type (0, 0), BuildingBlock: OJICUG_clean_linker_0, # of connection points: 2
#     Edge 36, Type (0, 0), BuildingBlock: OJICUG_clean_linker_0, # of connection points: 2
#     Edge 37, Type (0, 0), BuildingBlock: OJICUG_clean_linker_0, # of connection points: 2
#     Edge 38, Type (0, 0), BuildingBlock: OJICUG_clean_linker_0, # of connection points: 2
#     Edge 39, Type (0, 0), BuildingBlock: OJICUG_clean_linker_0, # of connection points: 2
#     Edge 40, Type (0, 0), BuildingBlock: OJICUG_clean_linker_0, # of connection points: 2
#     Edge 41, Type (0, 0), BuildingBlock: OJICUG_clean_linker_0, # of connection points: 2
#     Edge 42, Type (0, 0), BuildingBlock: OJICUG_clean_linker_0, # of connection points: 2
#     Edge 43, Type (0, 0), BuildingBlock: OJICUG_clean_linker_0, # of connection points: 2
#     Edge 44, Type (0, 0), BuildingBlock: OJICUG_clean_linker_0, # of connection points: 2
#     Edge 45, Type (0, 0), BuildingBlock: OJICUG_clean_linker_0, # of connection points: 2
#     Edge 46, Type (0, 0), BuildingBlock: OJICUG_clean_linker_0, # of connection points: 2
#     Edge 47, Type (0, 0), BuildingBlock: OJICUG_clean_linker_0, # of connection points: 2
#     Edge 48, Type (0, 0), BuildingBlock: OJICUG_clean_linker_0, # of connection points: 2
#     Edge 49, Type (0, 0), BuildingBlock: OJICUG_clean_linker_0, # of connection points: 2
#     Edge 50, Type (0, 0), BuildingBlock: OJICUG_clean_linker_0, # of connection points: 2
#     Edge 51, Type (0, 0), BuildingBlock: OJICUG_clean_linker_0, # of connection points: 2
#     Edge 52, Type (0, 0), BuildingBlock: OJICUG_clean_linker_0, # of connection points: 2
#     Edge 53, Type (0, 0), BuildingBlock: OJICUG_clean_linker_0, # of connection points: 2
#     Edge 54, Type (0, 0), BuildingBlock: OJICUG_clean_linker_0, # of connection points: 2
#     Edge 55, Type (0, 0), BuildingBlock: OJICUG_clean_linker_0, # of connection points: 2
#     Edge 56, Type (0, 0), BuildingBlock: OJICUG_clean_linker_0, # of connection points: 2
#     Edge 57, Type (0, 0), BuildingBlock: OJICUG_clean_linker_0, # of connection points: 2
#     Edge 58, Type (0, 0), BuildingBlock: OJICUG_clean_linker_0, # of connection points: 2
#     Edge 59, Type (0, 0), BuildingBlock: OJICUG_clean_linker_0, # of connection points: 2
#     Edge 60, Type (0, 0), BuildingBlock: OJICUG_clean_linker_0, # of connection points: 2
#     Edge 61, Type (0, 0), BuildingBlock: OJICUG_clean_linker_0, # of connection points: 2
#     Edge 62, Type (0, 0), BuildingBlock: OJICUG_clean_linker_0, # of connection points: 2
#     Edge 63, Type (0, 0), BuildingBlock: OJICUG_clean_linker_0, # of connection points: 2
# Relax obj value: 0.404
# Max RMSD: 0.246
# Mean RMSD: 0.242
data_MOF--net-whk--node1-VOLQOD_clean_sbu_1--edge1-OJICUG_clean_linker_0
_symmetry_space_group_name_H-M    P1
_symmetry_Int_Tables_number       1
_symmetry_cell_setting            triclinic
loop_
_symmetry_equiv_pos_as_xyz
'x, y, z'
_cell_length_a     28.671659
_cell_length_b     28.592924
_cell_length_c     41.623552
_cell_angle_alpha  90.256377
_cell_angle_beta   90.124675
_cell_angle_gamma 89.933158
loop_
_atom_site_label
_atom_site_type_symbol
_atom_site_fract_x
_atom_site_fract_y
_atom_site_fract_z
_atom_type_partial_charge
O0 O 0.57897 0.2316 0.44919 0.0
Zn1 Zn 0.56604 0.22376 0.4029 0.0
O2 O 0.54182 0.16413 0.39415 0.0
Zn3 Zn 0.59005 0.12501 0.37802 0.0
Zn4 Zn 0.51767 0.14264 0.43434 0.0
Zn5 Zn 0.49689 0.17096 0.36069 0.0
O6 O 0.56795 0.08916 0.33953 0.0
O7 O 0.52376 0.14539 0.31845 0.0
O8 O 0.62092 0.23695 0.37609 0.0
O9 O 0.64062 0.16526 0.36067 0.0
O10 O 0.61805 0.08685 0.41397 0.0
O11 O 0.56734 0.09957 0.45351 0.0
O12 O 0.45512 0.1102 0.4239 0.0
O13 O 0.51796 0.27073 0.39539 0.0
O14 O 0.44582 0.12843 0.37211 0.0
O15 O 0.46845 0.23729 0.36144 0.0
C16 C 0.5457 0.22915 0.46929 0.0
C17 C 0.54784 0.1078 0.31535 0.0
C18 C 0.60543 0.08165 0.44311 0.0
C19 C 0.64748 0.20918 0.36075 0.0
C20 C 0.43247 0.10737 0.3973 0.0
C21 C 0.48084 0.27208 0.37891 0.0
O22 O 0.51284 0.19929 0.4655 0.0
O23 O 0.24397 0.58537 0.44961 0.0
Zn24 Zn 0.25366 0.57666 0.40279 0.0
O25 O 0.31214 0.54775 0.39573 0.0
Zn26 Zn 0.35609 0.59271 0.38104 0.0
Zn27 Zn 0.33178 0.52107 0.43563 0.0
Zn28 Zn 0.30389 0.50281 0.36241 0.0
O29 O 0.39078 0.5681 0.34296 0.0
O30 O 0.33178 0.52836 0.32105 0.0
O31 O 0.24808 0.63589 0.37746 0.0
O32 O 0.32193 0.64758 0.36366 0.0
O33 O 0.39489 0.61742 0.41788 0.0
O34 O 0.37509 0.56849 0.45693 0.0
O35 O 0.36358 0.45793 0.42495 0.0
O36 O 0.20289 0.53229 0.39249 0.0
O37 O 0.34246 0.44848 0.37371 0.0
O38 O 0.23693 0.47852 0.36204 0.0
C39 C 0.24466 0.55056 0.46865 0.0
C40 C 0.37091 0.54969 0.31851 0.0
C41 C 0.39656 0.60501 0.44725 0.0
C42 C 0.27933 0.65978 0.36327 0.0
C43 C 0.36388 0.43439 0.3986 0.0
C44 C 0.20132 0.49387 0.37719 0.0
O45 O 0.27383 0.51703 0.46477 0.0
O46 O 0.89947 0.24653 0.45309 0.0
Zn47 Zn 0.90724 0.25607 0.40647 0.0
O48 O 0.93521 0.31449 0.39885 0.0
Zn49 Zn 0.88921 0.35698 0.383 0.0
Zn50 Zn 0.96017 0.33654 0.4388 0.0
Zn51 Zn 0.98057 0.30558 0.36609 0.0
O52 O 0.91438 0.39218 0.34556 0.0
O53 O 0.95405 0.3325 0.32432 0.0
O54 O 0.84937 0.24888 0.38146 0.0
O55 O 0.83671 0.3209 0.36382 0.0
O56 O 0.86119 0.39495 0.41935 0.0
O57 O 0.91001 0.37788 0.45921 0.0
O58 O 0.02132 0.37184 0.42762 0.0
O59 O 0.94883 0.20458 0.39437 0.0
O60 O 0.03335 0.3462 0.37755 0.0
O61 O 0.00492 0.2377 0.36588 0.0
C62 C 0.93368 0.24903 0.47258 0.0
C63 C 0.9323 0.3715 0.32128 0.0
C64 C 0.87268 0.39741 0.44895 0.0
C65 C 0.82598 0.27787 0.36492 0.0
C66 C 0.04544 0.37088 0.40163 0.0
C67 C -0.01309 0.20178 0.37916 0.0
O68 O 0.9663 0.27917 0.46878 0.0
O69 O 0.14209 0.95153 0.32297 0.0
Zn70 Zn 0.19072 0.94082 0.35776 0.0
O71 O 0.15987 0.93341 0.39915 0.0
Zn72 Zn 0.17331 0.98428 0.42786 0.0
Zn73 Zn 0.09394 0.92716 0.39273 0.0
Zn74 Zn 0.18436 0.88136 0.42033 0.0
O75 O 0.1966 0.96503 0.47263 0.0
O76 O 0.23081 0.90128 0.45321 0.0
O77 O 0.24402 0.98831 0.36211 0.0
O78 O 0.23044 0.01319 0.41186 0.0
O79 O 0.12262 0.03254 0.4233 0.0
O80 O 0.06626 -0.00812 0.39886 0.0
O81 O 0.06667 0.8754 0.42207 0.0
O82 O 0.21925 0.87943 0.34377 0.0
O83 O 0.13342 0.84482 0.43974 0.0
O84 O 0.21362 0.83931 0.3892 0.0
C85 C 0.10374 0.92882 0.32069 0.0
C86 C 0.22834 0.93362 0.47422 0.0
C87 C 0.08259 0.03036 0.40984 0.0
C88 C 0.25552 0.01244 0.38684 0.0
C89 C 0.08911 0.84486 0.43842 0.0
C90 C 0.22499 0.84225 0.35988 0.0
O91 O 0.08395 0.9117 0.34552 0.0
O92 O 0.02722 0.82856 0.19092 0.0
Zn93 Zn 0.03748 0.78149 0.15469 0.0
O94 O 0.04406 0.81508 0.11418 0.0
Zn95 Zn -0.00475 0.80016 0.08431 0.0
Zn96 Zn 0.04584 0.8813 0.12179 0.0
Zn97 Zn 0.09794 0.79508 0.09281 0.0
O98 O 0.01672 0.7785 0.03993 0.0
O99 O 0.08135 0.74722 0.05975 0.0
O100 O -0.01034 0.72834 0.14949 0.0
O101 O 0.9665 0.74209 0.09944 0.0
O102 O 0.94561 0.84923 0.08731 0.0
O103 O 0.97935 0.90507 0.11674 0.0
O104 O 0.09486 0.91266 0.09207 0.0
O105 O 0.0991 0.7519 0.16724 0.0
O106 O 0.1307 0.84879 0.07349 0.0
O107 O 0.1411 0.7679 0.12382 0.0
C108 C 0.04675 0.8687 0.19357 0.0
C109 C 0.0493 0.74807 0.03858 0.0
C110 C 0.94342 0.88766 0.10298 0.0
C111 C 0.96632 0.71689 0.12442 0.0
C112 C 0.12679 0.89301 0.07522 0.0
C113 C 0.13748 0.75186 0.15203 0.0
O114 O 0.06141 0.89075 0.1689 0.0
O115 O 0.64396 0.0234 0.18741 0.0
Zn116 Zn 0.69305 0.03492 0.15336 0.0
O117 O 0.66259 0.03932 0.11165 0.0
Zn118 Zn 0.67645 0.98581 0.08533 0.0
Zn119 Zn 0.59645 0.04664 0.11713 0.0
Zn120 Zn 0.68777 0.09031 0.08962 0.0
O121 O 0.7013 0.00242 0.04034 0.0
O122 O 0.73395 0.06847 0.05748 0.0
O123 O 0.74919 -0.00956 0.1503 0.0
O124 O 0.73302 0.95698 0.10332 0.0
O125 O 0.62433 0.93886 0.09032 0.0
O126 O 0.5674 0.9823 0.11161 0.0
O127 O 0.57012 0.09857 0.08718 0.0
O128 O 0.71832 0.09761 0.16677 0.0
O129 O 0.63746 0.12671 0.06908 0.0
O130 O 0.71695 0.13422 0.11985 0.0
C131 C 0.60547 0.04609 0.18914 0.0
C132 C 0.73212 0.03454 0.03767 0.0
C133 C 0.58352 0.94276 0.10235 0.0
C134 C 0.75948 0.96206 0.12756 0.0
C135 C 0.59318 0.12792 0.07033 0.0
C136 C 0.72584 0.13341 0.14968 0.0
O137 O 0.58606 0.06304 0.16404 0.0
O138 O 0.39725 0.73228 0.06172 0.0
Zn139 Zn 0.40218 0.72064 0.10853 0.0
O140 O 0.43178 0.66212 0.11506 0.0
Zn141 Zn 0.3868 0.61772 0.12974 0.0
Zn142 Zn 0.45842 0.64112 0.07535 0.0
Zn143 Zn 0.47746 0.67091 0.14777 0.0
O144 O 0.41225 0.58368 0.16775 0.0
O145 O 0.45127 0.64373 0.18923 0.0
O146 O 0.34166 0.72448 0.13202 0.0
O147 O 0.33147 0.65105 0.14756 0.0
O148 O 0.36153 0.57885 0.09273 0.0
O149 O 0.41001 0.59924 0.05364 0.0
O150 O 0.52034 0.60671 0.08647 0.0
O151 O 0.44263 0.77313 0.12209 0.0
O152 O 0.53134 0.63106 0.13689 0.0
O153 O 0.50117 0.73875 0.14761 0.0
C154 C 0.43177 0.7296 0.04252 0.0
C155 C 0.43007 0.60446 0.19209 0.0
C156 C 0.37343 0.57789 0.06322 0.0
C157 C 0.31841 0.69348 0.1469 0.0
C158 C 0.54425 0.60731 0.11262 0.0
C159 C 0.48217 0.77525 0.1357 0.0
O160 O 0.46405 0.69902 0.04625 0.0
O161 O 0.74216 0.3936 0.06354 0.0
Zn162 Zn 0.75339 0.40209 0.11024 0.0
O163 O 0.81262 0.42964 0.117 0.0
Zn164 Zn 0.85587 0.38378 0.13174 0.0
Zn165 Zn 0.83203 0.45576 0.07684 0.0
Zn166 Zn 0.80609 0.47493 0.15033 0.0
O167 O 0.8908 0.40703 0.17026 0.0
O168 O 0.83284 0.44839 0.19198 0.0
O169 O 0.74699 0.34261 0.13503 0.0
O170 O 0.8208 0.3292 0.14838 0.0
O171 O 0.8946 0.35886 0.09504 0.0
O172 O 0.87504 0.40773 0.0558 0.0
O173 O 0.86419 0.5188 0.08699 0.0
O174 O 0.70379 0.44746 0.12104 0.0
O175 O 0.84749 0.52718 0.13904 0.0
O176 O 0.73948 0.50177 0.15018 0.0
C177 C 0.74404 0.42766 0.04393 0.0
C178 C 0.8714 0.42592 0.19467 0.0
C179 C 0.89634 0.37111 0.06564 0.0
C180 C 0.77802 0.31772 0.14874 0.0
C181 C 0.86764 0.54121 0.11369 0.0
C182 C 0.70318 0.48649 0.13564 0.0
O183 O 0.7742 0.46032 0.04741 0.0
O184 O 0.39257 0.74781 0.56161 0.0
Zn185 Zn 0.40523 0.75585 0.60794 0.0
O186 O 0.43131 0.81487 0.61645 0.0
Zn187 Zn 0.38431 0.85599 0.63241 0.0
Zn188 Zn 0.45601 0.83515 0.57611 0.0
Zn189 Zn 0.4764 0.80669 0.64968 0.0
O190 O 0.40629 0.89004 0.67168 0.0
O191 O 0.45055 0.83324 0.69199 0.0
O192 O 0.34922 0.74536 0.63417 0.0
O193 O 0.33101 0.81808 0.64823 0.0
O194 O 0.35894 0.89612 0.59674 0.0
O195 O 0.40782 0.87949 0.55679 0.0
O196 O 0.51878 0.86683 0.5864 0.0
O197 O 0.45152 0.70702 0.61586 0.0
O198 O 0.52934 0.84658 0.63771 0.0
O199 O 0.5023 0.73973 0.64921 0.0
C200 C 0.42619 0.7487 0.54172 0.0
C201 C 0.42651 0.87078 0.69557 0.0
C202 C 0.3712 0.89996 0.56744 0.0
C203 C 0.32272 0.77443 0.64839 0.0
C204 C 0.5426 0.86778 0.61255 0.0
C205 C 0.48876 0.70497 0.63218 0.0
O206 O 0.45975 0.77783 0.54535 0.0
O207 O 0.72523 0.3913 0.56058 0.0
Zn208 Zn 0.71613 0.40387 0.60691 0.0
O209 O 0.65781 0.43116 0.61491 0.0
Zn210 Zn 0.61621 0.38467 0.63068 0.0
Zn211 Zn 0.63863 0.45664 0.57456 0.0
Zn212 Zn 0.66622 0.47598 0.6483 0.0
O213 O 0.58103 0.40838 0.66902 0.0
O214 O 0.63909 0.45049 0.68991 0.0
O215 O 0.72587 0.34877 0.63411 0.0
O216 O 0.6535 0.33214 0.6489 0.0
O217 O 0.57801 0.35842 0.59397 0.0
O218 O 0.59492 0.40832 0.55471 0.0
O219 O 0.60664 0.51988 0.58505 0.0
O220 O 0.76494 0.44922 0.61591 0.0
O221 O 0.62742 0.52966 0.63642 0.0
O222 O 0.73307 0.50045 0.64932 0.0
C223 C 0.72531 0.42529 0.54093 0.0
C224 C 0.60086 0.42783 0.69312 0.0
C225 C 0.57483 0.37115 0.56468 0.0
C226 C 0.69703 0.32376 0.64949 0.0
C227 C 0.60608 0.54347 0.61141 0.0
C228 C 0.76765 0.48608 0.63271 0.0
O229 O 0.69675 0.45951 0.5445 0.0
O230 O 0.07302 0.71589 0.54951 0.0
Zn231 Zn 0.06351 0.71451 0.59675 0.0
O232 O 0.03808 0.65724 0.60957 0.0
Zn233 Zn 0.08595 0.6183 0.62609 0.0
Zn234 Zn 0.01154 0.63233 0.57125 0.0
Zn235 Zn -0.00469 0.66809 0.64356 0.0
O236 O 0.06418 0.58412 0.665 0.0
O237 O 0.02286 0.64299 0.68566 0.0
O238 O 0.12011 0.7286 0.6221 0.0
O239 O 0.13647 0.65907 0.64289 0.0
O240 O 0.11336 0.57908 0.59054 0.0
O241 O 0.06049 0.58912 0.55194 0.0
O242 O 0.95114 0.59985 0.5844 0.0
O243 O 0.01745 0.76382 0.6042 0.0
O244 O 0.94125 0.62791 0.63413 0.0
O245 O 0.97144 0.73561 0.64226 0.0
C246 C 0.03842 0.71108 0.53057 0.0
C247 C 0.04558 0.60463 0.68908 0.0
C248 C 0.09944 0.57255 0.56174 0.0
C249 C 0.1449 0.70245 0.63994 0.0
C250 C 0.92794 0.60262 0.61065 0.0
C251 C 0.98291 0.76824 0.6229 0.0
O252 O 0.00385 0.68505 0.53797 0.0
O253 O 0.74653 0.08265 0.55785 0.0
Zn254 Zn 0.75469 0.06802 0.60379 0.0
O255 O 0.81405 0.04319 0.61194 0.0
Zn256 Zn 0.85335 0.09078 0.629 0.0
Zn257 Zn 0.83552 0.0198 0.57135 0.0
Zn258 Zn 0.80663 -0.00208 0.64497 0.0
O259 O 0.88988 0.06746 0.66654 0.0
O260 O 0.83368 0.02328 0.6872 0.0
O261 O 0.74206 0.1217 0.63217 0.0
O262 O 0.81351 0.14092 0.64793 0.0
O263 O 0.89187 0.11903 0.59376 0.0
O264 O 0.88006 0.06895 0.55342 0.0
O265 O 0.86744 0.95657 0.58101 0.0
O266 O 0.7075 0.02014 0.61088 0.0
O267 O 0.84654 0.94547 0.63211 0.0
O268 O 0.74018 0.97157 0.64559 0.0
C269 C 0.74896 0.05009 0.53698 0.0
C270 C 0.87131 0.04702 0.69049 0.0
C271 C 0.8982 0.10657 0.56463 0.0
C272 C 0.76964 0.14747 0.6483 0.0
C273 C 0.86811 0.93244 0.60697 0.0
C274 C 0.70567 0.98377 0.62804 0.0
O275 O 0.77887 0.01699 0.53993 0.0
O276 O 0.89306 0.22856 0.95103 0.0
Zn277 Zn 0.90668 0.22028 0.90492 0.0
O278 O 0.93214 0.16095 0.89669 0.0
Zn279 Zn 0.885 0.12036 0.88039 0.0
Zn280 Zn 0.95643 0.14033 0.93716 0.0
Zn281 Zn 0.9771 0.16892 0.86343 0.0
O282 O 0.90736 0.08545 0.84171 0.0
O283 O 0.95175 0.14175 0.82124 0.0
O284 O 0.85162 0.23144 0.87779 0.0
O285 O 0.8325 0.15899 0.8637 0.0
O286 O 0.85942 0.08003 0.9157 0.0
O287 O 0.9088 0.09481 0.95582 0.0
O288 O 0.01955 0.10934 0.92705 0.0
O289 O 0.95357 0.26851 0.89736 0.0
O290 O 0.03029 0.12969 0.87578 0.0
O291 O 0.00281 0.2357 0.8631 0.0
C292 C 0.92615 0.22709 0.97141 0.0
C293 C 0.92787 0.10415 0.81784 0.0
C294 C 0.87214 0.07475 0.94483 0.0
C295 C 0.82505 0.20282 0.86319 0.0
C296 C 0.04355 0.10868 0.90105 0.0
C297 C -0.00985 0.2704 0.88046 0.0
O298 O 0.95943 0.19746 0.96823 0.0
O299 O 0.24992 0.9052 0.96142 0.0
Zn300 Zn 0.25753 0.91215 0.91424 0.0
O301 O 0.31651 0.93594 0.90303 0.0
Zn302 Zn 0.35444 0.88722 0.88587 0.0
Zn303 Zn 0.34229 0.96077 0.94191 0.0
Zn304 Zn 0.30834 0.97974 0.86891 0.0
O305 O 0.38998 0.9082 0.84731 0.0
O306 O 0.33348 0.95226 0.82671 0.0
O307 O 0.24342 0.85535 0.88906 0.0
O308 O 0.31269 0.83788 0.86845 0.0
O309 O 0.39357 0.85863 0.92076 0.0
O310 O 0.38588 0.91106 0.96006 0.0
O311 O 0.37534 0.02157 0.92976 0.0
O312 O 0.21014 0.95858 0.90426 0.0
O313 O 0.34956 0.03245 0.87964 0.0
O314 O 0.24181 0.0061 0.86856 0.0
C315 C 0.25844 0.93817 0.98123 0.0
C316 C 0.37079 0.928 0.82327 0.0
C317 C 0.4018 0.87215 0.94944 0.0
C318 C 0.26922 0.83027 0.87113 0.0
C319 C 0.37398 0.0452 0.90365 0.0
C320 C 0.20751 -0.00605 0.8862 0.0
O321 O 0.28993 0.96872 0.97557 0.0
O322 O 0.57786 0.26125 0.96012 0.0
Zn323 Zn 0.56785 0.26324 0.9129 0.0
O324 O 0.54132 0.3201 0.90035 0.0
Zn325 Zn 0.58852 0.35991 0.88402 0.0
Zn326 Zn 0.51424 0.34358 0.93883 0.0
Zn327 Zn 0.49857 0.30882 0.86634 0.0
O328 O 0.56591 0.39391 0.84504 0.0
O329 O 0.52517 0.33452 0.82452 0.0
O330 O 0.6241 0.25016 0.88734 0.0
O331 O 0.63977 0.32004 0.86699 0.0
O332 O 0.61514 0.39905 0.92004 0.0
O333 O 0.56247 0.38735 0.95842 0.0
O334 O 0.45315 0.37535 0.92574 0.0
O335 O 0.5228 0.21342 0.905 0.0
O336 O 0.44371 0.34775 0.87584 0.0
O337 O 0.47627 0.24109 0.8669 0.0
C338 C 0.5431 0.26459 0.97897 0.0
C339 C 0.54719 0.37316 0.82104 0.0
C340 C 0.60108 0.40481 0.94886 0.0
C341 C 0.64849 0.27665 0.86962 0.0
C342 C 0.42995 0.37251 0.89942 0.0
C343 C 0.4885 0.20849 0.88607 0.0
O344 O 0.5078 0.28986 0.97166 0.0
O345 O 0.22969 0.58224 0.94871 0.0
Zn346 Zn 0.2186 0.57108 0.90233 0.0
O347 O 0.16019 0.54363 0.89471 0.0
Zn348 Zn 0.11767 0.58992 0.87946 0.0
Zn349 Zn 0.14212 0.51791 0.9352 0.0
Zn350 Zn 0.16768 0.49889 0.8611 0.0
O351 O 0.08261 0.56738 0.84073 0.0
O352 O 0.14011 0.52497 0.81949 0.0
O353 O 0.22677 0.62755 0.87637 0.0
O354 O 0.15375 0.644 0.8627 0.0
O355 O 0.07918 0.61473 0.91615 0.0
O356 O 0.0988 0.56594 0.95551 0.0
O357 O 0.10993 0.45501 0.92493 0.0
O358 O 0.26742 0.52637 0.8921 0.0
O359 O 0.12867 0.44547 0.87321 0.0
O360 O 0.23447 0.47393 0.86005 0.0
C361 C 0.22938 0.54849 0.96856 0.0
C362 C 0.10206 0.54815 0.81647 0.0
C363 C 0.07746 0.60246 0.94555 0.0
C364 C 0.19709 0.65317 0.86213 0.0
C365 C 0.10823 0.43166 0.89852 0.0
C366 C 0.26964 0.48893 0.87588 0.0
O367 O 0.20044 0.51464 0.96516 0.0
C368 C 0.53767 0.10772 0.25522 0.0
C369 C 0.5573 0.08788 0.28297 0.0
H370 H 0.53696 0.10967 0.20381 0.0
C371 C 0.5894 0.0509 0.27941 0.0
H372 H 0.51273 0.13608 0.25705 0.0
C373 C 0.60355 0.03597 0.24894 0.0
C374 C 0.58567 0.05731 0.2212 0.0
H375 H 0.60514 0.03451 0.30019 0.0
H376 H 0.6296 0.00861 0.2472 0.0
C377 C 0.55155 0.09246 0.22467 0.0
C378 C 0.44088 0.60545 0.25188 0.0
C379 C 0.42045 0.5854 0.22443 0.0
H380 H 0.44182 0.60936 0.30313 0.0
C381 C 0.38714 0.54971 0.22832 0.0
H382 H 0.46681 0.63278 0.24975 0.0
C383 C 0.37242 0.53653 0.25894 0.0
C384 C 0.39106 0.55836 0.28636 0.0
H385 H 0.37072 0.53334 0.20769 0.0
H386 H 0.34532 0.51036 0.26105 0.0
C387 C 0.42654 0.59189 0.28252 0.0
C388 C 0.94182 0.36975 0.26135 0.0
C389 C 0.922 0.39019 0.28884 0.0
H390 H 0.94192 0.36546 0.2101 0.0
C391 C 0.88866 0.42598 0.28494 0.0
H392 H 0.9677 0.3423 0.26346 0.0
C393 C 0.87347 0.43902 0.25432 0.0
C394 C 0.89162 0.41694 0.22688 0.0
H395 H 0.87267 0.44264 0.30558 0.0
H396 H 0.84647 0.46536 0.25224 0.0
C397 C 0.92699 0.38314 0.23072 0.0
C398 C 0.10231 0.93973 0.26077 0.0
C399 C 0.08452 0.91784 0.28831 0.0
H400 H 0.10387 0.942 0.20941 0.0
C401 C 0.05093 0.88237 0.28438 0.0
H402 H 0.12806 0.96728 0.26287 0.0
C403 C 0.03735 0.8675 0.25366 0.0
C404 C 0.05659 0.88809 0.2261 0.0
H405 H 0.03645 0.86467 0.30503 0.0
H406 H 0.01268 0.83898 0.25155 0.0
C407 C 0.08831 0.92524 0.23006 0.0
C408 C 0.37021 0.93949 0.76344 0.0
C409 C 0.38951 0.91806 0.79069 0.0
H410 H 0.36722 0.94199 0.71219 0.0
C411 C 0.42455 0.884 0.78633 0.0
H412 H 0.34339 0.96597 0.76586 0.0
C413 C 0.43808 0.8699 0.75548 0.0
C414 C 0.41718 0.88978 0.72822 0.0
H415 H 0.44037 0.86677 0.80676 0.0
H416 H 0.46384 0.84238 0.75306 0.0
C417 C 0.38402 0.92567 0.7326 0.0
C418 C 0.5346 0.37119 0.76133 0.0
C419 C 0.55578 0.39175 0.78837 0.0
H420 H 0.53162 0.36694 0.71009 0.0
C421 C 0.58837 0.42789 0.78371 0.0
H422 H 0.50917 0.34351 0.76403 0.0
C423 C 0.60153 0.44116 0.75275 0.0
C424 C 0.58211 0.41893 0.72571 0.0
H425 H 0.6053 0.44469 0.80397 0.0
H426 H 0.62808 0.46777 0.75005 0.0
C427 C 0.54745 0.38477 0.73036 0.0
C428 C 0.08787 0.54969 0.72591 0.0
C429 C 0.05513 0.58596 0.72167 0.0
H430 H 0.12828 0.5092 0.75901 0.0
C431 C 0.03469 0.60632 0.74899 0.0
H432 H 0.10429 0.53302 0.70543 0.0
C433 C 0.04825 0.59227 0.77979 0.0
C434 C 0.08291 0.55783 0.784 0.0
H435 H 0.00923 0.63412 0.74664 0.0
H436 H 0.03287 0.60988 0.80028 0.0
C437 C 0.10174 0.53596 0.75668 0.0
C438 C 0.92619 0.0899 0.72725 0.0
C439 C 0.89082 0.05624 0.72296 0.0
H440 H 0.96577 0.13142 0.76046 0.0
C441 C 0.87159 0.03497 0.75021 0.0
H442 H 0.942 0.10695 0.70681 0.0
C443 C 0.88556 0.04884 0.78102 0.0
C444 C 0.91882 0.08461 0.78532 0.0
H445 H 0.84454 0.00877 0.74782 0.0
H446 H 0.8687 0.03283 0.80145 0.0
C447 C 0.93988 0.10406 0.75806 0.0
C448 C 0.37075 0.06792 0.36444 0.0
C449 C 0.38858 0.08061 0.39489 0.0
H450 H 0.31472 0.03639 0.33782 0.0
C451 C 0.36274 0.06997 0.42235 0.0
H452 H 0.3901 0.07539 0.34273 0.0
C453 C 0.31939 0.0483 0.4194 0.0
C454 C 0.30112 0.03628 0.38893 0.0
H455 H 0.37544 0.07933 0.44605 0.0
H456 H 0.30029 0.04073 0.4412 0.0
C457 C 0.32758 0.04567 0.3615 0.0
C458 C 0.42948 0.38218 0.41552 0.0
C459 C 0.3916 0.39102 0.39521 0.0
H460 H 0.48767 0.33839 0.42585 0.0
C461 C 0.38259 0.35994 0.36948 0.0
H462 H 0.4375 0.40553 0.43534 0.0
C463 C 0.41137 0.32124 0.36389 0.0
C464 C 0.4501 0.31319 0.38366 0.0
H465 H 0.35342 0.36575 0.3534 0.0
H466 H 0.40359 0.29803 0.34395 0.0
C467 C 0.45854 0.34391 0.4097 0.0
C468 C 0.11969 0.38991 0.37334 0.0
C469 C 0.08663 0.40129 0.39717 0.0
H470 H 0.18127 0.41021 0.34793 0.0
C471 C 0.09082 0.44396 0.41357 0.0
H472 H 0.11733 0.35725 0.36014 0.0
C473 C 0.12695 0.47483 0.40597 0.0
C474 C 0.16011 0.46342 0.38213 0.0
H475 H 0.06555 0.45403 0.43165 0.0
H476 H 0.12921 0.5074 0.41923 0.0
C477 C 0.15611 0.42045 0.36603 0.0
C478 C 0.08307 0.11647 0.39878 0.0
C479 C 0.05795 0.07442 0.40202 0.0
H480 H 0.08057 0.18962 0.38745 0.0
C481 C 0.01024 0.07409 0.39442 0.0
H482 H 0.12014 0.11765 0.40377 0.0
C483 C -0.01221 0.1152 0.38496 0.0
C484 C 0.01273 0.15734 0.38216 0.0
H485 H -0.00992 0.04219 0.39621 0.0
H486 H 0.95054 0.11431 0.38055 0.0
C487 C 0.06074 0.15745 0.38867 0.0
C488 C 0.85696 0.88685 0.09587 0.0
C489 C 0.89667 0.90799 0.10937 0.0
H490 H 0.78281 0.88589 0.09228 0.0
C491 C 0.8905 0.94486 0.13156 0.0
H492 H 0.86008 0.85792 0.07912 0.0
C493 C 0.84558 0.96074 0.13947 0.0
C494 C 0.8061 0.94002 0.12531 0.0
H495 H 0.9203 0.96142 0.14287 0.0
H496 H 0.84189 -0.00971 0.15565 0.0
C497 C 0.81244 0.90251 0.10379 0.0
C498 C 0.48525 0.86164 0.12685 0.0
C499 C 0.50897 0.81906 0.13151 0.0
H500 H 0.48993 0.93391 0.11373 0.0
C501 C 0.55729 0.81748 0.12617 0.0
H502 H 0.44787 0.8638 0.13033 0.0
C503 C 0.58109 0.85726 0.11555 0.0
C504 C 0.55727 0.89975 0.11058 0.0
H505 H 0.57638 0.785 0.12884 0.0
H506 H 0.61834 0.85482 0.11159 0.0
C507 C 0.50919 0.90163 0.11688 0.0
C508 C 0.61929 0.58913 0.14083 0.0
C509 C 0.58634 0.57777 0.1168 0.0
H510 H 0.68172 0.56939 0.16589 0.0
C511 C 0.59177 0.53592 0.09961 0.0
H512 H 0.61602 0.62119 0.15461 0.0
C513 C 0.6288 0.50573 0.10669 0.0
C514 C 0.66178 0.51699 0.13078 0.0
H515 H 0.56675 0.52588 0.0813 0.0
H516 H 0.63183 0.47374 0.09285 0.0
C517 C 0.65676 0.5593 0.14756 0.0
C518 C 0.92899 0.65363 0.09172 0.0
C519 C 0.94146 0.67165 0.1222 0.0
H520 H 0.89666 0.59818 0.06501 0.0
C521 C 0.93109 0.64545 0.1496 0.0
H522 H 0.93714 0.67256 0.06996 0.0
C523 C 0.90768 0.60278 0.14662 0.0
C524 C 0.89472 0.58511 0.11615 0.0
H525 H 0.94054 0.65811 0.1733 0.0
H526 H 0.89967 0.58363 0.16831 0.0
C527 C 0.90614 0.61075 0.08873 0.0
C528 C 0.65623 0.91596 0.64508 0.0
C529 C 0.66415 0.95364 0.62444 0.0
H530 H 0.61166 0.85897 0.65725 0.0
C531 C 0.63289 0.96145 0.59876 0.0
H532 H 0.67985 0.90876 0.66479 0.0
C533 C 0.59427 0.93261 0.59406 0.0
C534 C 0.58573 0.89566 0.61516 0.0
H535 H 0.6383 -0.01018 0.58202 0.0
H536 H 0.57056 0.93998 0.57442 0.0
C537 C 0.61725 0.88742 0.64059 0.0
C538 C 0.58816 0.61838 0.63987 0.0
C539 C 0.57803 0.58654 0.61482 0.0
H540 H 0.56791 0.68053 0.66528 0.0
C541 C 0.53857 0.59404 0.5957 0.0
H542 H 0.61851 0.61352 0.65505 0.0
C543 C 0.50917 0.63192 0.60203 0.0
C544 C 0.51892 0.6635 0.62736 0.0
H545 H 0.52964 0.56994 0.5765 0.0
H546 H 0.47887 0.63654 0.58679 0.0
C547 C 0.55907 0.65661 0.64596 0.0
C548 C 0.85446 0.58499 0.64031 0.0
C549 C 0.88607 0.57381 0.61554 0.0
H550 H 0.7922 0.5659 0.66547 0.0
C551 C 0.87911 0.53318 0.59734 0.0
H552 H 0.85906 0.61621 0.65481 0.0
C553 C 0.84153 0.50402 0.60394 0.0
C554 C 0.80962 0.51522 0.62857 0.0
H555 H 0.90314 0.5234 0.57841 0.0
H556 H 0.83719 0.473 0.58922 0.0
C557 C 0.81637 0.5561 0.64664 0.0
C558 C 0.88775 0.85816 0.6352 0.0
C559 C 0.89596 0.88917 0.60956 0.0
H560 H 0.90881 0.79596 0.65978 0.0
C561 C 0.93283 0.88001 0.58847 0.0
H562 H 0.85938 0.86415 0.65188 0.0
C563 C 0.9615 0.84118 0.59333 0.0
C564 C 0.95361 0.81044 0.61922 0.0
H565 H 0.9402 0.90335 0.56869 0.0
H566 H -0.01023 0.83519 0.57658 0.0
C567 C 0.91615 0.81915 0.63992 0.0
C568 C 0.11984 0.09157 0.87473 0.0
C569 C 0.08676 0.08104 0.89864 0.0
H570 H 0.18402 0.07234 0.85182 0.0
C571 C 0.09349 0.04174 0.91796 0.0
H572 H 0.11544 0.12181 0.85942 0.0
C573 C 0.13209 0.01297 0.91307 0.0
C574 C 0.16531 0.02334 0.88915 0.0
H575 H 0.06831 0.03246 0.93622 0.0
H576 H 0.13589 0.98262 0.92831 0.0
C577 C 0.15894 0.06316 0.87016 0.0
C578 C 0.39425 0.11791 0.87382 0.0
C579 C 0.40263 0.08755 0.89981 0.0
H580 H 0.41495 0.1798 0.84885 0.0
C581 C 0.43987 0.0968 0.92066 0.0
H582 H 0.36566 0.11173 0.85729 0.0
C583 C 0.46842 0.13543 0.91548 0.0
C584 C 0.46002 0.1659 0.88953 0.0
H585 H 0.44739 0.07392 0.94069 0.0
H586 H 0.49676 0.14166 0.93222 0.0
C587 C 0.42255 0.15682 0.86881 0.0
C588 C 0.35601 0.38921 0.86979 0.0
C589 C 0.38783 0.40102 0.89439 0.0
H590 H 0.29366 0.40788 0.84431 0.0
C591 C 0.38113 0.44225 0.91196 0.0
H592 H 0.36046 0.35752 0.85576 0.0
C593 C 0.34368 0.47146 0.90485 0.0
C594 C 0.31159 0.45971 0.88035 0.0
H595 H 0.40535 0.45252 0.93071 0.0
H596 H 0.33957 0.50298 0.91909 0.0
C597 C 0.31801 0.41815 0.86298 0.0
C598 C 0.0885 0.35716 0.87013 0.0
C599 C 0.07994 0.38877 0.89557 0.0
H600 H 0.06682 0.29514 0.84517 0.0
C601 C 0.04191 0.38102 0.91585 0.0
H602 H 0.11773 0.3622 0.85407 0.0
C603 C 0.01233 0.34309 0.91032 0.0
C604 C 0.02051 0.31174 0.88463 0.0
H605 H 0.03423 0.40492 0.93541 0.0
H606 H 0.98315 0.33823 0.92645 0.0
C607 C 0.05925 0.31888 0.86483 0.0
C608 C 0.69908 0.27592 0.34768 0.0
C609 C 0.69157 0.2274 0.34833 0.0
H610 H 0.74931 0.33061 0.35195 0.0
C611 C 0.72944 0.19682 0.34428 0.0
H612 H 0.67024 0.30026 0.34979 0.0
C613 C 0.77461 0.21417 0.34581 0.0
C614 C 0.78196 0.26213 0.35088 0.0
H615 H 0.72456 0.15926 0.34383 0.0
H616 H 0.80347 0.18967 0.34631 0.0
C617 C 0.74432 0.29331 0.34883 0.0
C618 C 0.22016 0.717 0.34423 0.0
C619 C 0.26703 0.70569 0.34995 0.0
H620 H 0.17002 0.77207 0.34089 0.0
C621 C 0.30113 0.74094 0.34803 0.0
H622 H 0.19334 0.69035 0.34493 0.0
C623 C 0.28767 0.78769 0.34571 0.0
C624 C 0.24026 0.79912 0.34464 0.0
H625 H 0.33766 0.73309 0.35197 0.0
H626 H 0.31373 0.81479 0.34874 0.0
C627 C 0.20689 0.76362 0.34138 0.0
C628 C 0.26266 0.75315 0.16702 0.0
C629 C 0.27282 0.70612 0.16039 0.0
H630 H 0.20901 0.80458 0.17154 0.0
C631 C 0.23695 0.67267 0.16179 0.0
H632 H 0.28986 0.77943 0.16675 0.0
C633 C 0.19063 0.68718 0.16467 0.0
C634 C 0.18035 0.73496 0.16662 0.0
H635 H 0.24402 0.63605 0.15709 0.0
H636 H 0.16298 0.6618 0.1613 0.0
C637 C 0.21655 0.76745 0.1703 0.0
C638 C 0.71819 0.25935 0.1646 0.0
C639 C 0.76531 0.27135 0.16104 0.0
H640 H 0.66864 0.2036 0.16528 0.0
C641 C 0.79968 0.23638 0.16388 0.0
H642 H 0.69108 0.28568 0.16311 0.0
C643 C 0.78671 0.18945 0.16513 0.0
C644 C 0.73948 0.17751 0.16427 0.0
H645 H 0.83637 0.24469 0.1616 0.0
H646 H 0.81335 0.16268 0.1631 0.0
C647 C 0.70536 0.21252 0.16629 0.0
C648 C 0.19416 0.77023 0.65508 0.0
C649 C 0.18766 0.72163 0.6539 0.0
H650 H 0.24361 0.8258 0.65552 0.0
C651 C 0.22511 0.6917 0.66087 0.0
H652 H 0.1654 0.79402 0.65076 0.0
C653 C 0.26991 0.70984 0.66342 0.0
C654 C 0.27724 0.75795 0.65932 0.0
H655 H 0.22075 0.65406 0.66088 0.0
H656 H 0.29906 0.68584 0.66525 0.0
C657 C 0.23889 0.78841 0.65807 0.0
C658 C 0.70243 0.19655 0.66457 0.0
C659 C 0.75094 0.1903 0.66271 0.0
H660 H 0.64649 0.24564 0.66252 0.0
C661 C 0.78058 0.22867 0.66763 0.0
H662 H 0.67885 0.16717 0.66199 0.0
C663 C 0.76205 0.27358 0.66779 0.0
C664 C 0.71394 0.28002 0.66335 0.0
H665 H 0.81815 0.22465 0.66728 0.0
H666 H 0.78575 0.30308 0.66771 0.0
C667 C 0.68389 0.24147 0.66501 0.0
C668 C 0.74165 0.19029 0.85098 0.0
C669 C 0.78035 0.22025 0.85125 0.0
H670 H 0.66789 0.18547 0.85669 0.0
C671 C 0.77372 0.26861 0.84774 0.0
H672 H 0.74585 0.15275 0.85293 0.0
C673 C 0.72906 0.28731 0.84974 0.0
C674 C 0.69112 0.25763 0.8555 0.0
H675 H 0.80318 0.29228 0.84696 0.0
H676 H 0.72512 0.32499 0.85046 0.0
C677 C 0.69707 0.20901 0.85336 0.0
C678 C 0.20082 0.78181 0.85628 0.0
C679 C 0.24936 0.78812 0.85659 0.0
H680 H 0.1453 0.73231 0.85656 0.0
C681 C 0.27873 0.7508 0.84814 0.0
H682 H 0.17737 0.81054 0.86163 0.0
C683 C 0.26038 0.70604 0.84529 0.0
C684 C 0.21267 0.69869 0.85064 0.0
H685 H 0.31625 0.75506 0.84729 0.0
H686 H 0.28413 0.6768 0.84248 0.0
C687 C 0.18242 0.7371 0.85307 0.0
C688 C 0.63021 0.06585 0.49972 0.0
C689 C 0.63965 0.06253 0.46668 0.0
H690 H 0.65764 0.06466 0.54747 0.0
C691 C 0.68471 0.0482 0.45702 0.0
H692 H 0.59612 0.07649 0.50823 0.0
C693 C 0.72022 0.04085 0.47985 0.0
C694 C 0.71133 0.04839 0.51259 0.0
H695 H 0.69329 0.04519 0.43177 0.0
H696 H 0.75511 0.0323 0.47179 0.0
C697 C 0.66563 0.0593 0.52228 0.0
C698 C 0.43955 0.71832 0.48538 0.0
C699 C 0.42813 0.71048 0.51765 0.0
H700 H 0.43884 0.69061 0.43735 0.0
C701 C 0.41408 0.66548 0.52701 0.0
H702 H 0.45067 0.75264 0.47761 0.0
C703 C 0.4082 0.62987 0.50437 0.0
C704 C 0.41534 0.63851 0.47155 0.0
H705 H 0.40579 0.65824 0.55188 0.0
H706 H 0.39506 0.59646 0.51248 0.0
C707 C 0.43286 0.68267 0.46242 0.0
C708 C 0.79399 0.43259 0.46287 0.0
C709 C 0.83777 0.41489 0.47272 0.0
H710 H 0.72373 0.45056 0.47679 0.0
C711 C 0.84503 0.40675 0.50563 0.0
H712 H 0.78706 0.43928 0.43772 0.0
C713 C 0.80868 0.41222 0.52757 0.0
C714 C 0.7642 0.42695 0.51751 0.0
H715 H 0.87803 0.39328 0.51432 0.0
H716 H 0.815 0.40329 0.55248 0.0
C717 C 0.7576 0.43899 0.48516 0.0
C718 C 0.0145 0.78104 0.4989 0.0
C719 C 0.03905 0.73847 0.50079 0.0
H720 H 0.01075 0.84902 0.47685 0.0
C721 C 0.07383 0.72869 0.47824 0.0
H722 H -0.01174 0.78964 0.51667 0.0
C723 C 0.08667 0.76232 0.45582 0.0
C724 C 0.06532 0.80665 0.45569 0.0
H725 H 0.09366 0.69645 0.47961 0.0
H726 H 0.11581 0.75483 0.44005 0.0
C727 C 0.02745 0.81503 0.47627 0.0
C728 C 0.24216 0.92214 0.03877 0.0
C729 C 0.228 0.94178 0.00959 0.0
H730 H 0.22011 0.89216 0.08333 0.0
C731 C 0.1809 0.95425 1.00536 0.0
H732 H 0.27805 0.91136 0.04226 0.0
C733 C 0.14775 0.94383 0.02898 0.0
C734 C 0.1613 0.92017 0.05691 0.0
H735 H 0.16919 0.96865 0.98271 0.0
H736 H 0.11116 0.94997 0.02396 0.0
C737 C 0.209 0.91124 0.06221 0.0
C738 C 0.59329 0.21031 0.05242 0.0
C739 C 0.57036 0.16683 0.05293 0.0
H740 H 0.60151 0.27605 0.02874 0.0
C741 C 0.53133 0.16004 0.03298 0.0
H742 H 0.62326 0.21669 0.06774 0.0
C743 C 0.51856 0.19469 0.01068 0.0
C744 C 0.54448 0.23636 0.00844 0.0
H745 H 0.51333 0.12676 0.03272 0.0
H746 H 0.49116 0.18727 0.99343 0.0
C747 C 0.58067 0.24454 0.03033 0.0
C748 C 0.2602 0.53489 0.02486 0.0
C749 C 0.26761 0.54717 0.99266 0.0
H750 H 0.28816 0.53475 0.07281 0.0
C751 C 0.31218 0.56246 0.98342 0.0
H752 H 0.22624 0.52288 0.03261 0.0
C753 C 0.34775 0.56832 0.00602 0.0
C754 C 0.33959 0.55996 0.03878 0.0
H755 H 0.31917 0.57152 0.95864 0.0
H756 H 0.38081 0.58223 0.99795 0.0
C757 C 0.29579 0.54162 0.04781 0.0
C758 C 0.93203 0.29299 0.05082 0.0
C759 C 0.91508 0.33737 0.04151 0.0
H760 H 0.94942 0.22282 0.03581 0.0
C761 C 0.90859 0.34611 0.00863 0.0
H762 H 0.93753 0.28497 0.07594 0.0
C763 C 0.91456 0.31045 0.98604 0.0
C764 C 0.92799 0.26526 0.99553 0.0
H765 H 0.89592 0.37969 1.00039 0.0
H766 H 0.90686 0.31783 0.96106 0.0
C767 C 0.93876 0.25727 0.02793 0.0
C768 C 0.34715 0.91793 0.51105 0.0
C769 C 0.33761 0.92048 0.54409 0.0
H770 H 0.31973 0.92027 0.46332 0.0
C771 C 0.29272 0.93509 0.5539 0.0
H772 H 0.3812 0.90727 0.50247 0.0
C773 C 0.25725 0.94292 0.53117 0.0
C774 C 0.26611 0.93576 0.49841 0.0
H775 H 0.2841 0.9376 0.57917 0.0
H776 H 0.22236 0.9513 0.53933 0.0
C777 C 0.31178 0.92514 0.48856 0.0
C778 C 0.54077 0.2925 0.54955 0.0
C779 C 0.5558 0.33762 0.54054 0.0
H780 H 0.52513 0.22225 0.53388 0.0
C781 C 0.56028 0.34756 0.50767 0.0
H782 H 0.53685 0.28358 0.57466 0.0
C783 C 0.55448 0.3124 0.48472 0.0
C784 C 0.54308 0.26658 0.49384 0.0
H785 H 0.57141 0.38176 0.49965 0.0
H786 H 0.56092 0.32067 0.45973 0.0
C787 C 0.53413 0.25728 0.5263 0.0
C788 C 0.21393 0.53406 0.5242 0.0
C789 C 0.20632 0.54715 0.49217 0.0
H790 H 0.1855 0.53153 0.57184 0.0
C791 C 0.16132 0.56067 0.48258 0.0
H792 H 0.2483 0.52325 0.53208 0.0
C793 C 0.12524 0.5641 0.50483 0.0
C794 C 0.13352 0.55534 0.53755 0.0
H795 H 0.15437 0.57036 0.45789 0.0
H796 H 0.09175 0.57701 0.49662 0.0
C797 C 0.17788 0.53861 0.54684 0.0
C798 C 0.9314 0.18617 0.55222 0.0
C799 C 0.9196 0.14047 0.54202 0.0
H800 H 0.94583 0.25705 0.53797 0.0
C801 C 0.92113 0.13005 0.50904 0.0
H802 H 0.93078 0.19546 0.57746 0.0
C803 C 0.92941 0.1653 0.48671 0.0
C804 C 0.93701 0.21165 0.49677 0.0
H805 H 0.91272 0.09537 0.50022 0.0
H806 H 0.92729 0.15679 0.46134 0.0
C807 C 0.94016 0.22153 0.5297 0.0
C808 C 0.84997 0.05145 1.00061 0.0
C809 C 0.83937 0.05211 0.96766 0.0
H810 H 0.82387 0.04478 0.04843 0.0
C811 C 0.79431 0.03815 0.95772 0.0
H812 H 0.88421 0.06148 0.00925 0.0
C813 C 0.75955 0.02814 0.98042 0.0
C814 C 0.7694 0.03222 0.01331 0.0
H815 H 0.78491 0.03805 0.9325 0.0
H816 H 0.72437 0.02084 0.97231 0.0
C817 C 0.81533 0.04192 0.02312 0.0
C818 C 0.43348 0.79219 0.96275 0.0
C819 C 0.42195 0.83812 0.97256 0.0
H820 H 0.4463 0.72118 0.97748 0.0
C821 C 0.42193 0.84864 1.00556 0.0
H822 H 0.43402 0.78284 0.93751 0.0
C823 C 0.42834 0.81333 0.02815 0.0
C824 C 0.43576 0.76686 0.01834 0.0
H825 H 0.41359 0.88349 0.01411 0.0
H826 H 0.42512 0.82197 0.05344 0.0
C827 C 0.44055 0.7568 0.98553 0.0
C828 C 0.66092 0.41848 0.02885 0.0
C829 C 0.70634 0.43106 0.01978 0.0
H830 H 0.59157 0.40262 0.01394 0.0
C831 C 0.71496 0.44304 0.9877 0.0
H832 H 0.65317 0.40971 0.05357 0.0
C833 C 0.67947 0.43826 0.96455 0.0
C834 C 0.6347 0.42235 0.97336 0.0
H835 H 0.74966 0.4531 0.98019 0.0
H836 H 0.68786 0.44446 0.93957 0.0
C837 C 0.62543 0.41478 0.00607 0.0
C838 C 0.06238 0.66473 0.02467 0.0
C839 C 0.04805 0.70947 0.01488 0.0
H840 H 0.08088 0.59531 0.01079 0.0
C841 C 0.0355 0.71649 0.98267 0.0
H842 H 0.07118 0.65804 0.04957 0.0
C843 C 0.04142 0.68028 0.96011 0.0
C844 C 0.05924 0.63638 0.96961 0.0
H845 H 0.02388 0.75055 0.97463 0.0
H846 H 0.03456 0.68755 0.93503 0.0
C847 C 0.06748 0.62855 1.00242 0.0
loop_
_geom_bond_atom_site_label_1
_geom_bond_atom_site_label_2
_geom_bond_distance
_geom_bond_site_symmetry_2
_ccdc_geom_bond_type
O0 Zn1 1.953 . S
O0 C16 1.225 . S
Zn1 O0 1.953 . S
Zn1 O2 1.949 . S
Zn1 O8 1.919 . S
Zn1 O13 1.924 . S
O2 Zn1 1.949 . S
O2 Zn3 1.923 . S
O2 Zn4 1.950 . S
O2 Zn5 1.945 . S
Zn3 O2 1.923 . S
Zn3 O6 1.933 . S
Zn3 O9 1.941 . S
Zn3 O10 1.965 . S
Zn4 O2 1.950 . S
Zn4 O11 1.938 . S
Zn4 O12 1.906 . S
Zn4 O22 1.953 . S
Zn5 O2 1.945 . S
Zn5 O7 1.932 . S
Zn5 O14 1.977 . S
Zn5 O15 1.910 . S
O6 Zn3 1.933 . S
O6 C17 1.226 . S
O7 Zn5 1.932 . S
O7 C17 1.307 . S
O8 Zn1 1.919 . S
O8 C19 1.253 . S
O9 Zn3 1.941 . S
O9 C19 1.283 . S
O10 Zn3 1.965 . S
O10 C18 1.303 . S
O11 Zn4 1.938 . S
O11 C18 1.247 . S
O12 Zn4 1.906 . S
O12 C20 1.304 . S
O13 Zn1 1.924 . S
O13 C21 1.311 . S
O14 Zn5 1.977 . S
O14 C20 1.272 . S
O15 Zn5 1.910 . S
O15 C21 1.231 . S
C16 O0 1.225 . S
C16 O22 1.298 . S
C17 O6 1.226 . S
C17 O7 1.307 . S
C18 O10 1.303 . S
C18 O11 1.247 . S
C19 O8 1.253 . S
C19 O9 1.283 . S
C20 O12 1.304 . S
C20 O14 1.272 . S
C21 O13 1.311 . S
C21 O15 1.231 . S
O22 Zn4 1.953 . S
O22 C16 1.298 . S
O23 Zn24 1.953 . S
O23 C39 1.225 . S
Zn24 O23 1.953 . S
Zn24 O25 1.949 . S
Zn24 O31 1.919 . S
Zn24 O36 1.924 . S
O25 Zn24 1.949 . S
O25 Zn26 1.923 . S
O25 Zn27 1.950 . S
O25 Zn28 1.945 . S
Zn26 O25 1.923 . S
Zn26 O29 1.933 . S
Zn26 O32 1.941 . S
Zn26 O33 1.965 . S
Zn27 O25 1.950 . S
Zn27 O34 1.938 . S
Zn27 O35 1.906 . S
Zn27 O45 1.953 . S
Zn28 O25 1.945 . S
Zn28 O30 1.932 . S
Zn28 O37 1.977 . S
Zn28 O38 1.910 . S
O29 Zn26 1.933 . S
O29 C40 1.226 . S
O30 Zn28 1.932 . S
O30 C40 1.307 . S
O31 Zn24 1.919 . S
O31 C42 1.253 . S
O32 Zn26 1.941 . S
O32 C42 1.283 . S
O33 Zn26 1.965 . S
O33 C41 1.303 . S
O34 Zn27 1.938 . S
O34 C41 1.247 . S
O35 Zn27 1.906 . S
O35 C43 1.304 . S
O36 Zn24 1.924 . S
O36 C44 1.311 . S
O37 Zn28 1.977 . S
O37 C43 1.272 . S
O38 Zn28 1.910 . S
O38 C44 1.231 . S
C39 O23 1.225 . S
C39 O45 1.298 . S
C40 O29 1.226 . S
C40 O30 1.307 . S
C41 O33 1.303 . S
C41 O34 1.247 . S
C42 O31 1.253 . S
C42 O32 1.283 . S
C43 O35 1.304 . S
C43 O37 1.272 . S
C44 O36 1.311 . S
C44 O38 1.231 . S
O45 Zn27 1.953 . S
O45 C39 1.298 . S
O46 Zn47 1.953 . S
O46 C62 1.225 . S
Zn47 O46 1.953 . S
Zn47 O48 1.949 . S
Zn47 O54 1.919 . S
Zn47 O59 1.924 . S
O48 Zn47 1.949 . S
O48 Zn49 1.923 . S
O48 Zn50 1.950 . S
O48 Zn51 1.945 . S
Zn49 O48 1.923 . S
Zn49 O52 1.933 . S
Zn49 O55 1.941 . S
Zn49 O56 1.965 . S
Zn50 O48 1.950 . S
Zn50 O57 1.938 . S
Zn50 O58 1.906 1_655 S
Zn50 O68 1.953 . S
Zn51 O48 1.945 . S
Zn51 O53 1.932 . S
Zn51 O60 1.977 1_655 S
Zn51 O61 1.910 1_655 S
O52 Zn49 1.933 . S
O52 C63 1.226 . S
O53 Zn51 1.932 . S
O53 C63 1.307 . S
O54 Zn47 1.919 . S
O54 C65 1.253 . S
O55 Zn49 1.941 . S
O55 C65 1.283 . S
O56 Zn49 1.965 . S
O56 C64 1.303 . S
O57 Zn50 1.938 . S
O57 C64 1.247 . S
O58 Zn50 1.906 1_455 S
O58 C66 1.304 . S
O59 Zn47 1.924 . S
O59 C67 1.329 . S
O60 Zn51 1.977 1_455 S
O60 C66 1.272 . S
O61 Zn51 1.910 1_455 S
O61 C67 1.225 1_455 S
C62 O46 1.225 . S
C62 O68 1.298 . S
C63 O52 1.226 . S
C63 O53 1.307 . S
C64 O56 1.303 . S
C64 O57 1.247 . S
C65 O54 1.253 . S
C65 O55 1.283 . S
C66 O58 1.304 . S
C66 O60 1.272 . S
C67 O59 1.329 . S
C67 O61 1.225 1_655 S
O68 Zn50 1.953 . S
O68 C62 1.298 . S
O69 Zn70 1.953 . S
O69 C85 1.225 . S
Zn70 O69 1.953 . S
Zn70 O71 1.949 . S
Zn70 O77 1.919 . S
Zn70 O82 1.924 . S
O71 Zn70 1.949 . S
O71 Zn72 1.923 . S
O71 Zn73 1.950 . S
O71 Zn74 1.945 . S
Zn72 O71 1.923 . S
Zn72 O75 1.933 . S
Zn72 O78 1.941 1_565 S
Zn72 O79 1.965 1_565 S
Zn73 O71 1.950 . S
Zn73 O80 1.938 . S
Zn73 O81 1.906 . S
Zn73 O91 1.953 . S
Zn74 O71 1.945 . S
Zn74 O76 1.932 . S
Zn74 O83 1.977 . S
Zn74 O84 1.910 . S
O75 Zn72 1.933 . S
O75 C86 1.226 . S
O76 Zn74 1.932 . S
O76 C86 1.307 . S
O77 Zn70 1.919 . S
O77 C88 1.253 1_565 S
O78 Zn72 1.941 1_545 S
O78 C88 1.283 . S
O79 Zn72 1.965 1_545 S
O79 C87 1.303 . S
O80 Zn73 1.938 . S
O80 C87 1.247 1_565 S
O81 Zn73 1.906 . S
O81 C89 1.304 . S
O82 Zn70 1.924 . S
O82 C90 1.311 . S
O83 Zn74 1.977 . S
O83 C89 1.272 . S
O84 Zn74 1.910 . S
O84 C90 1.231 . S
C85 O69 1.225 . S
C85 O91 1.298 . S
C86 O75 1.226 . S
C86 O76 1.307 . S
C87 O79 1.303 . S
C87 O80 1.247 1_545 S
C88 O77 1.253 1_545 S
C88 O78 1.283 . S
C89 O81 1.304 . S
C89 O83 1.272 . S
C90 O82 1.311 . S
C90 O84 1.231 . S
O91 Zn73 1.953 . S
O91 C85 1.298 . S
O92 Zn93 1.953 . S
O92 C108 1.225 . S
Zn93 O92 1.953 . S
Zn93 O94 1.949 . S
Zn93 O100 1.919 . S
Zn93 O105 1.924 . S
O94 Zn93 1.949 . S
O94 Zn95 1.923 . S
O94 Zn96 1.950 . S
O94 Zn97 1.945 . S
Zn95 O94 1.923 . S
Zn95 O98 1.933 . S
Zn95 O101 1.941 1_455 S
Zn95 O102 1.965 1_455 S
Zn96 O94 1.950 . S
Zn96 O103 1.938 . S
Zn96 O104 1.906 . S
Zn96 O114 1.953 . S
Zn97 O94 1.945 . S
Zn97 O99 1.932 . S
Zn97 O106 1.977 . S
Zn97 O107 1.910 . S
O98 Zn95 1.933 . S
O98 C109 1.226 . S
O99 Zn97 1.932 . S
O99 C109 1.307 . S
O100 Zn93 1.919 . S
O100 C111 1.253 1_455 S
O101 Zn95 1.941 1_655 S
O101 C111 1.283 . S
O102 Zn95 1.965 1_655 S
O102 C110 1.303 . S
O103 Zn96 1.938 . S
O103 C110 1.247 1_455 S
O104 Zn96 1.906 . S
O104 C112 1.304 . S
O105 Zn93 1.924 . S
O105 C113 1.311 . S
O106 Zn97 1.977 . S
O106 C112 1.272 . S
O107 Zn97 1.910 . S
O107 C113 1.231 . S
C108 O92 1.225 . S
C108 O114 1.298 . S
C109 O98 1.226 . S
C109 O99 1.307 . S
C110 O102 1.303 . S
C110 O103 1.247 1_655 S
C111 O100 1.253 1_655 S
C111 O101 1.283 . S
C112 O104 1.304 . S
C112 O106 1.272 . S
C113 O105 1.311 . S
C113 O107 1.231 . S
O114 Zn96 1.953 . S
O114 C108 1.298 . S
O115 Zn116 1.953 . S
O115 C131 1.225 . S
Zn116 O115 1.953 . S
Zn116 O117 1.949 . S
Zn116 O123 1.919 . S
Zn116 O128 1.924 . S
O117 Zn116 1.949 . S
O117 Zn118 1.923 . S
O117 Zn119 1.950 . S
O117 Zn120 1.945 . S
Zn118 O117 1.923 . S
Zn118 O121 1.933 . S
Zn118 O124 1.941 1_545 S
Zn118 O125 1.965 1_545 S
Zn119 O117 1.950 . S
Zn119 O126 1.938 . S
Zn119 O127 1.906 . S
Zn119 O137 1.953 . S
Zn120 O117 1.945 . S
Zn120 O122 1.932 . S
Zn120 O129 1.977 . S
Zn120 O130 1.910 . S
O121 Zn118 1.933 . S
O121 C132 1.226 . S
O122 Zn120 1.932 . S
O122 C132 1.307 . S
O123 Zn116 1.919 . S
O123 C134 1.253 1_545 S
O124 Zn118 1.941 1_565 S
O124 C134 1.283 . S
O125 Zn118 1.965 1_565 S
O125 C133 1.303 . S
O126 Zn119 1.938 . S
O126 C133 1.247 1_545 S
O127 Zn119 1.906 . S
O127 C135 1.304 . S
O128 Zn116 1.924 . S
O128 C136 1.311 . S
O129 Zn120 1.977 . S
O129 C135 1.272 . S
O130 Zn120 1.910 . S
O130 C136 1.231 . S
C131 O115 1.225 . S
C131 O137 1.298 . S
C132 O121 1.226 . S
C132 O122 1.307 . S
C133 O125 1.303 . S
C133 O126 1.247 1_565 S
C134 O123 1.253 1_565 S
C134 O124 1.283 . S
C135 O127 1.304 . S
C135 O129 1.272 . S
C136 O128 1.311 . S
C136 O130 1.231 . S
O137 Zn119 1.953 . S
O137 C131 1.298 . S
O138 Zn139 1.953 . S
O138 C154 1.225 . S
Zn139 O138 1.953 . S
Zn139 O140 1.949 . S
Zn139 O146 1.919 . S
Zn139 O151 1.924 . S
O140 Zn139 1.949 . S
O140 Zn141 1.923 . S
O140 Zn142 1.950 . S
O140 Zn143 1.945 . S
Zn141 O140 1.923 . S
Zn141 O144 1.933 . S
Zn141 O147 1.941 . S
Zn141 O148 1.965 . S
Zn142 O140 1.950 . S
Zn142 O149 1.938 . S
Zn142 O150 1.906 . S
Zn142 O160 1.953 . S
Zn143 O140 1.945 . S
Zn143 O145 1.932 . S
Zn143 O152 1.977 . S
Zn143 O153 1.910 . S
O144 Zn141 1.933 . S
O144 C155 1.226 . S
O145 Zn143 1.932 . S
O145 C155 1.307 . S
O146 Zn139 1.919 . S
O146 C157 1.253 . S
O147 Zn141 1.941 . S
O147 C157 1.283 . S
O148 Zn141 1.965 . S
O148 C156 1.303 . S
O149 Zn142 1.938 . S
O149 C156 1.247 . S
O150 Zn142 1.906 . S
O150 C158 1.304 . S
O151 Zn139 1.924 . S
O151 C159 1.311 . S
O152 Zn143 1.977 . S
O152 C158 1.272 . S
O153 Zn143 1.910 . S
O153 C159 1.231 . S
C154 O138 1.225 . S
C154 O160 1.298 . S
C155 O144 1.226 . S
C155 O145 1.307 . S
C156 O148 1.303 . S
C156 O149 1.247 . S
C157 O146 1.253 . S
C157 O147 1.283 . S
C158 O150 1.304 . S
C158 O152 1.272 . S
C159 O151 1.311 . S
C159 O153 1.231 . S
O160 Zn142 1.953 . S
O160 C154 1.298 . S
O161 Zn162 1.953 . S
O161 C177 1.225 . S
Zn162 O161 1.953 . S
Zn162 O163 1.949 . S
Zn162 O169 1.919 . S
Zn162 O174 1.924 . S
O163 Zn162 1.949 . S
O163 Zn164 1.923 . S
O163 Zn165 1.950 . S
O163 Zn166 1.945 . S
Zn164 O163 1.923 . S
Zn164 O167 1.933 . S
Zn164 O170 1.941 . S
Zn164 O171 1.965 . S
Zn165 O163 1.950 . S
Zn165 O172 1.938 . S
Zn165 O173 1.906 . S
Zn165 O183 1.953 . S
Zn166 O163 1.945 . S
Zn166 O168 1.932 . S
Zn166 O175 1.977 . S
Zn166 O176 1.910 . S
O167 Zn164 1.933 . S
O167 C178 1.226 . S
O168 Zn166 1.932 . S
O168 C178 1.307 . S
O169 Zn162 1.919 . S
O169 C180 1.253 . S
O170 Zn164 1.941 . S
O170 C180 1.283 . S
O171 Zn164 1.965 . S
O171 C179 1.303 . S
O172 Zn165 1.938 . S
O172 C179 1.247 . S
O173 Zn165 1.906 . S
O173 C181 1.304 . S
O174 Zn162 1.924 . S
O174 C182 1.311 . S
O175 Zn166 1.977 . S
O175 C181 1.272 . S
O176 Zn166 1.910 . S
O176 C182 1.231 . S
C177 O161 1.225 . S
C177 O183 1.298 . S
C178 O167 1.226 . S
C178 O168 1.307 . S
C179 O171 1.303 . S
C179 O172 1.247 . S
C180 O169 1.253 . S
C180 O170 1.283 . S
C181 O173 1.304 . S
C181 O175 1.272 . S
C182 O174 1.311 . S
C182 O176 1.231 . S
O183 Zn165 1.953 . S
O183 C177 1.298 . S
O184 Zn185 1.953 . S
O184 C200 1.225 . S
Zn185 O184 1.953 . S
Zn185 O186 1.949 . S
Zn185 O192 1.919 . S
Zn185 O197 1.924 . S
O186 Zn185 1.949 . S
O186 Zn187 1.923 . S
O186 Zn188 1.950 . S
O186 Zn189 1.945 . S
Zn187 O186 1.923 . S
Zn187 O190 1.933 . S
Zn187 O193 1.941 . S
Zn187 O194 1.965 . S
Zn188 O186 1.950 . S
Zn188 O195 1.938 . S
Zn188 O196 1.906 . S
Zn188 O206 1.953 . S
Zn189 O186 1.945 . S
Zn189 O191 1.932 . S
Zn189 O198 1.977 . S
Zn189 O199 1.910 . S
O190 Zn187 1.933 . S
O190 C201 1.226 . S
O191 Zn189 1.932 . S
O191 C201 1.307 . S
O192 Zn185 1.919 . S
O192 C203 1.253 . S
O193 Zn187 1.941 . S
O193 C203 1.283 . S
O194 Zn187 1.965 . S
O194 C202 1.303 . S
O195 Zn188 1.938 . S
O195 C202 1.247 . S
O196 Zn188 1.906 . S
O196 C204 1.304 . S
O197 Zn185 1.924 . S
O197 C205 1.311 . S
O198 Zn189 1.977 . S
O198 C204 1.272 . S
O199 Zn189 1.910 . S
O199 C205 1.231 . S
C200 O184 1.225 . S
C200 O206 1.298 . S
C201 O190 1.226 . S
C201 O191 1.307 . S
C202 O194 1.303 . S
C202 O195 1.247 . S
C203 O192 1.253 . S
C203 O193 1.283 . S
C204 O196 1.304 . S
C204 O198 1.272 . S
C205 O197 1.311 . S
C205 O199 1.231 . S
O206 Zn188 1.953 . S
O206 C200 1.298 . S
O207 Zn208 1.953 . S
O207 C223 1.225 . S
Zn208 O207 1.953 . S
Zn208 O209 1.949 . S
Zn208 O215 1.919 . S
Zn208 O220 1.924 . S
O209 Zn208 1.949 . S
O209 Zn210 1.923 . S
O209 Zn211 1.950 . S
O209 Zn212 1.945 . S
Zn210 O209 1.923 . S
Zn210 O213 1.933 . S
Zn210 O216 1.941 . S
Zn210 O217 1.965 . S
Zn211 O209 1.950 . S
Zn211 O218 1.938 . S
Zn211 O219 1.906 . S
Zn211 O229 1.953 . S
Zn212 O209 1.945 . S
Zn212 O214 1.932 . S
Zn212 O221 1.977 . S
Zn212 O222 1.910 . S
O213 Zn210 1.933 . S
O213 C224 1.226 . S
O214 Zn212 1.932 . S
O214 C224 1.307 . S
O215 Zn208 1.919 . S
O215 C226 1.253 . S
O216 Zn210 1.941 . S
O216 C226 1.283 . S
O217 Zn210 1.965 . S
O217 C225 1.303 . S
O218 Zn211 1.938 . S
O218 C225 1.247 . S
O219 Zn211 1.906 . S
O219 C227 1.304 . S
O220 Zn208 1.924 . S
O220 C228 1.311 . S
O221 Zn212 1.977 . S
O221 C227 1.272 . S
O222 Zn212 1.910 . S
O222 C228 1.231 . S
C223 O207 1.225 . S
C223 O229 1.298 . S
C224 O213 1.226 . S
C224 O214 1.307 . S
C225 O217 1.303 . S
C225 O218 1.247 . S
C226 O215 1.253 . S
C226 O216 1.283 . S
C227 O219 1.304 . S
C227 O221 1.272 . S
C228 O220 1.311 . S
C228 O222 1.231 . S
O229 Zn211 1.953 . S
O229 C223 1.298 . S
O230 Zn231 1.953 . S
O230 C246 1.225 . S
Zn231 O230 1.953 . S
Zn231 O232 1.949 . S
Zn231 O238 1.919 . S
Zn231 O243 1.924 . S
O232 Zn231 1.949 . S
O232 Zn233 1.923 . S
O232 Zn234 1.950 . S
O232 Zn235 1.945 . S
Zn233 O232 1.923 . S
Zn233 O236 1.933 . S
Zn233 O239 1.941 . S
Zn233 O240 1.965 . S
Zn234 O232 1.950 . S
Zn234 O241 1.938 . S
Zn234 O242 1.906 1_455 S
Zn234 O252 1.953 . S
Zn235 O232 1.945 . S
Zn235 O237 1.932 . S
Zn235 O244 1.977 1_455 S
Zn235 O245 1.910 1_455 S
O236 Zn233 1.933 . S
O236 C247 1.226 . S
O237 Zn235 1.932 . S
O237 C247 1.307 . S
O238 Zn231 1.919 . S
O238 C249 1.253 . S
O239 Zn233 1.941 . S
O239 C249 1.283 . S
O240 Zn233 1.965 . S
O240 C248 1.303 . S
O241 Zn234 1.938 . S
O241 C248 1.247 . S
O242 Zn234 1.906 1_655 S
O242 C250 1.304 . S
O243 Zn231 1.924 . S
O243 C251 1.311 . S
O244 Zn235 1.977 1_655 S
O244 C250 1.272 . S
O245 Zn235 1.910 1_655 S
O245 C251 1.231 1_655 S
C246 O230 1.225 . S
C246 O252 1.298 . S
C247 O236 1.226 . S
C247 O237 1.307 . S
C248 O240 1.303 . S
C248 O241 1.247 . S
C249 O238 1.253 . S
C249 O239 1.283 . S
C250 O242 1.304 . S
C250 O244 1.272 . S
C251 O243 1.311 . S
C251 O245 1.231 1_455 S
O252 Zn234 1.953 . S
O252 C246 1.298 . S
O253 Zn254 1.953 . S
O253 C269 1.225 . S
Zn254 O253 1.953 . S
Zn254 O255 1.949 . S
Zn254 O261 1.919 . S
Zn254 O266 1.924 . S
O255 Zn254 1.949 . S
O255 Zn256 1.923 . S
O255 Zn257 1.950 . S
O255 Zn258 1.945 . S
Zn256 O255 1.923 . S
Zn256 O259 1.933 . S
Zn256 O262 1.941 . S
Zn256 O263 1.965 . S
Zn257 O255 1.950 . S
Zn257 O264 1.938 . S
Zn257 O265 1.906 1_545 S
Zn257 O275 1.953 . S
Zn258 O255 1.945 . S
Zn258 O260 1.932 . S
Zn258 O267 1.977 1_545 S
Zn258 O268 1.910 1_545 S
O259 Zn256 1.933 . S
O259 C270 1.226 . S
O260 Zn258 1.932 . S
O260 C270 1.307 . S
O261 Zn254 1.919 . S
O261 C272 1.253 . S
O262 Zn256 1.941 . S
O262 C272 1.283 . S
O263 Zn256 1.965 . S
O263 C271 1.303 . S
O264 Zn257 1.938 . S
O264 C271 1.247 . S
O265 Zn257 1.906 1_565 S
O265 C273 1.304 . S
O266 Zn254 1.924 . S
O266 C274 1.311 . S
O267 Zn258 1.977 1_565 S
O267 C273 1.272 . S
O268 Zn258 1.910 1_565 S
O268 C274 1.231 1_565 S
C269 O253 1.225 . S
C269 O275 1.298 . S
C270 O259 1.226 . S
C270 O260 1.307 . S
C271 O263 1.303 . S
C271 O264 1.247 . S
C272 O261 1.253 . S
C272 O262 1.283 . S
C273 O265 1.304 . S
C273 O267 1.272 . S
C274 O266 1.311 . S
C274 O268 1.231 1_545 S
O275 Zn257 1.953 . S
O275 C269 1.298 . S
O276 Zn277 1.953 . S
O276 C292 1.225 . S
Zn277 O276 1.953 . S
Zn277 O278 1.949 . S
Zn277 O284 1.919 . S
Zn277 O289 1.924 . S
O278 Zn277 1.949 . S
O278 Zn279 1.923 . S
O278 Zn280 1.950 . S
O278 Zn281 1.945 . S
Zn279 O278 1.923 . S
Zn279 O282 1.933 . S
Zn279 O285 1.941 . S
Zn279 O286 1.965 . S
Zn280 O278 1.950 . S
Zn280 O287 1.938 . S
Zn280 O288 1.906 1_655 S
Zn280 O298 1.953 . S
Zn281 O278 1.945 . S
Zn281 O283 1.932 . S
Zn281 O290 1.977 1_655 S
Zn281 O291 1.910 1_655 S
O282 Zn279 1.933 . S
O282 C293 1.226 . S
O283 Zn281 1.932 . S
O283 C293 1.307 . S
O284 Zn277 1.919 . S
O284 C295 1.253 . S
O285 Zn279 1.941 . S
O285 C295 1.283 . S
O286 Zn279 1.965 . S
O286 C294 1.303 . S
O287 Zn280 1.938 . S
O287 C294 1.247 . S
O288 Zn280 1.906 1_455 S
O288 C296 1.304 . S
O289 Zn277 1.924 . S
O289 C297 1.332 . S
O290 Zn281 1.977 1_455 S
O290 C296 1.272 . S
O291 Zn281 1.910 1_455 S
O291 C297 1.224 1_455 S
C292 O276 1.225 . S
C292 O298 1.298 . S
C293 O282 1.226 . S
C293 O283 1.307 . S
C294 O286 1.303 . S
C294 O287 1.247 . S
C295 O284 1.253 . S
C295 O285 1.283 . S
C296 O288 1.304 . S
C296 O290 1.272 . S
C297 O289 1.332 . S
C297 O291 1.224 1_655 S
O298 Zn280 1.953 . S
O298 C292 1.298 . S
O299 Zn300 1.953 . S
O299 C315 1.225 . S
Zn300 O299 1.953 . S
Zn300 O301 1.949 . S
Zn300 O307 1.919 . S
Zn300 O312 1.924 . S
O301 Zn300 1.949 . S
O301 Zn302 1.923 . S
O301 Zn303 1.950 . S
O301 Zn304 1.945 . S
Zn302 O301 1.923 . S
Zn302 O305 1.933 . S
Zn302 O308 1.941 . S
Zn302 O309 1.965 . S
Zn303 O301 1.950 . S
Zn303 O310 1.938 . S
Zn303 O311 1.906 1_565 S
Zn303 O321 1.953 . S
Zn304 O301 1.945 . S
Zn304 O306 1.932 . S
Zn304 O313 1.977 1_565 S
Zn304 O314 1.910 1_565 S
O305 Zn302 1.933 . S
O305 C316 1.226 . S
O306 Zn304 1.932 . S
O306 C316 1.307 . S
O307 Zn300 1.919 . S
O307 C318 1.253 . S
O308 Zn302 1.941 . S
O308 C318 1.283 . S
O309 Zn302 1.965 . S
O309 C317 1.303 . S
O310 Zn303 1.938 . S
O310 C317 1.247 . S
O311 Zn303 1.906 1_545 S
O311 C319 1.304 . S
O312 Zn300 1.924 . S
O312 C320 1.311 . S
O313 Zn304 1.977 1_545 S
O313 C319 1.272 . S
O314 Zn304 1.910 1_545 S
O314 C320 1.231 1_545 S
C315 O299 1.225 . S
C315 O321 1.298 . S
C316 O305 1.226 . S
C316 O306 1.307 . S
C317 O309 1.303 . S
C317 O310 1.247 . S
C318 O307 1.253 . S
C318 O308 1.283 . S
C319 O311 1.304 . S
C319 O313 1.272 . S
C320 O312 1.311 . S
C320 O314 1.231 1_565 S
O321 Zn303 1.953 . S
O321 C315 1.298 . S
O322 Zn323 1.953 . S
O322 C338 1.225 . S
Zn323 O322 1.953 . S
Zn323 O324 1.949 . S
Zn323 O330 1.919 . S
Zn323 O335 1.924 . S
O324 Zn323 1.949 . S
O324 Zn325 1.923 . S
O324 Zn326 1.950 . S
O324 Zn327 1.945 . S
Zn325 O324 1.923 . S
Zn325 O328 1.933 . S
Zn325 O331 1.941 . S
Zn325 O332 1.965 . S
Zn326 O324 1.950 . S
Zn326 O333 1.938 . S
Zn326 O334 1.906 . S
Zn326 O344 1.953 . S
Zn327 O324 1.945 . S
Zn327 O329 1.932 . S
Zn327 O336 1.977 . S
Zn327 O337 1.910 . S
O328 Zn325 1.933 . S
O328 C339 1.226 . S
O329 Zn327 1.932 . S
O329 C339 1.307 . S
O330 Zn323 1.919 . S
O330 C341 1.253 . S
O331 Zn325 1.941 . S
O331 C341 1.283 . S
O332 Zn325 1.965 . S
O332 C340 1.303 . S
O333 Zn326 1.938 . S
O333 C340 1.247 . S
O334 Zn326 1.906 . S
O334 C342 1.304 . S
O335 Zn323 1.924 . S
O335 C343 1.311 . S
O336 Zn327 1.977 . S
O336 C342 1.272 . S
O337 Zn327 1.910 . S
O337 C343 1.231 . S
C338 O322 1.225 . S
C338 O344 1.298 . S
C339 O328 1.226 . S
C339 O329 1.307 . S
C340 O332 1.303 . S
C340 O333 1.247 . S
C341 O330 1.253 . S
C341 O331 1.283 . S
C342 O334 1.304 . S
C342 O336 1.272 . S
C343 O335 1.311 . S
C343 O337 1.231 . S
O344 Zn326 1.953 . S
O344 C338 1.298 . S
O345 Zn346 1.953 . S
O345 C361 1.225 . S
Zn346 O345 1.953 . S
Zn346 O347 1.949 . S
Zn346 O353 1.919 . S
Zn346 O358 1.924 . S
O347 Zn346 1.949 . S
O347 Zn348 1.923 . S
O347 Zn349 1.950 . S
O347 Zn350 1.945 . S
Zn348 O347 1.923 . S
Zn348 O351 1.933 . S
Zn348 O354 1.941 . S
Zn348 O355 1.965 . S
Zn349 O347 1.950 . S
Zn349 O356 1.938 . S
Zn349 O357 1.906 . S
Zn349 O367 1.953 . S
Zn350 O347 1.945 . S
Zn350 O352 1.932 . S
Zn350 O359 1.977 . S
Zn350 O360 1.910 . S
O351 Zn348 1.933 . S
O351 C362 1.226 . S
O352 Zn350 1.932 . S
O352 C362 1.307 . S
O353 Zn346 1.919 . S
O353 C364 1.253 . S
O354 Zn348 1.941 . S
O354 C364 1.283 . S
O355 Zn348 1.965 . S
O355 C363 1.303 . S
O356 Zn349 1.938 . S
O356 C363 1.247 . S
O357 Zn349 1.906 . S
O357 C365 1.304 . S
O358 Zn346 1.924 . S
O358 C366 1.311 . S
O359 Zn350 1.977 . S
O359 C365 1.272 . S
O360 Zn350 1.910 . S
O360 C366 1.231 . S
C361 O345 1.225 . S
C361 O367 1.298 . S
C362 O351 1.226 . S
C362 O352 1.307 . S
C363 O355 1.303 . S
C363 O356 1.247 . S
C364 O353 1.253 . S
C364 O354 1.283 . S
C365 O357 1.304 . S
C365 O359 1.272 . S
C366 O358 1.311 . S
C366 O360 1.231 . S
O367 Zn349 1.953 . S
O367 C361 1.298 . S
C368 C369 1.387 . S
C368 H372 0.950 . S
C368 C377 1.390 . S
C369 C368 1.387 . S
C369 C371 1.387 . S
H370 C377 0.950 . S
C371 C369 1.387 . S
C371 C373 1.390 . S
C371 H375 0.950 . S
H372 C368 0.950 . S
C373 C371 1.390 . S
C373 C374 1.387 . S
C373 H376 0.950 . S
C374 C373 1.387 . S
C374 C377 1.387 . S
H375 C371 0.950 . S
H376 C373 0.950 . S
C377 C368 1.390 . S
C377 H370 0.950 . S
C377 C374 1.387 . S
C378 C379 1.387 . S
C378 H382 0.950 . S
C378 C387 1.390 . S
C379 C378 1.387 . S
C379 C381 1.387 . S
H380 C387 0.950 . S
C381 C379 1.387 . S
C381 C383 1.390 . S
C381 H385 0.950 . S
H382 C378 0.950 . S
C383 C381 1.390 . S
C383 C384 1.387 . S
C383 H386 0.950 . S
C384 C383 1.387 . S
C384 C387 1.387 . S
H385 C381 0.950 . S
H386 C383 0.950 . S
C387 C378 1.390 . S
C387 H380 0.950 . S
C387 C384 1.387 . S
C388 C389 1.387 . S
C388 H392 0.950 . S
C388 C397 1.390 . S
C389 C388 1.387 . S
C389 C391 1.387 . S
H390 C397 0.950 . S
C391 C389 1.387 . S
C391 C393 1.390 . S
C391 H395 0.950 . S
H392 C388 0.950 . S
C393 C391 1.390 . S
C393 C394 1.387 . S
C393 H396 0.950 . S
C394 C393 1.387 . S
C394 C397 1.387 . S
H395 C391 0.950 . S
H396 C393 0.950 . S
C397 C388 1.390 . S
C397 H390 0.950 . S
C397 C394 1.387 . S
C398 C399 1.387 . S
C398 H402 0.950 . S
C398 C407 1.390 . S
C399 C398 1.387 . S
C399 C401 1.387 . S
H400 C407 0.950 . S
C401 C399 1.387 . S
C401 C403 1.390 . S
C401 H405 0.950 . S
H402 C398 0.950 . S
C403 C401 1.390 . S
C403 C404 1.387 . S
C403 H406 0.950 . S
C404 C403 1.387 . S
C404 C407 1.387 . S
H405 C401 0.950 . S
H406 C403 0.950 . S
C407 C398 1.390 . S
C407 H400 0.950 . S
C407 C404 1.387 . S
C408 C409 1.387 . S
C408 H412 0.950 . S
C408 C417 1.390 . S
C409 C408 1.387 . S
C409 C411 1.387 . S
H410 C417 0.950 . S
C411 C409 1.387 . S
C411 C413 1.390 . S
C411 H415 0.950 . S
H412 C408 0.950 . S
C413 C411 1.390 . S
C413 C414 1.387 . S
C413 H416 0.950 . S
C414 C413 1.387 . S
C414 C417 1.387 . S
H415 C411 0.950 . S
H416 C413 0.950 . S
C417 C408 1.390 . S
C417 H410 0.950 . S
C417 C414 1.387 . S
C418 C419 1.387 . S
C418 H422 0.950 . S
C418 C427 1.390 . S
C419 C418 1.387 . S
C419 C421 1.387 . S
H420 C427 0.950 . S
C421 C419 1.387 . S
C421 C423 1.390 . S
C421 H425 0.950 . S
H422 C418 0.950 . S
C423 C421 1.390 . S
C423 C424 1.387 . S
C423 H426 0.950 . S
C424 C423 1.387 . S
C424 C427 1.387 . S
H425 C421 0.950 . S
H426 C423 0.950 . S
C427 C418 1.390 . S
C427 H420 0.950 . S
C427 C424 1.387 . S
C428 C429 1.387 . S
C428 H432 0.950 . S
C428 C437 1.390 . S
C429 C428 1.387 . S
C429 C431 1.387 . S
H430 C437 0.950 . S
C431 C429 1.387 . S
C431 C433 1.390 . S
C431 H435 0.950 . S
H432 C428 0.950 . S
C433 C431 1.390 . S
C433 C434 1.387 . S
C433 H436 0.950 . S
C434 C433 1.387 . S
C434 C437 1.387 . S
H435 C431 0.950 . S
H436 C433 0.950 . S
C437 C428 1.390 . S
C437 H430 0.950 . S
C437 C434 1.387 . S
C438 C439 1.387 . S
C438 H442 0.950 . S
C438 C447 1.390 . S
C439 C438 1.387 . S
C439 C441 1.387 . S
H440 C447 0.950 . S
C441 C439 1.387 . S
C441 C443 1.390 . S
C441 H445 0.950 . S
H442 C438 0.950 . S
C443 C441 1.390 . S
C443 C444 1.387 . S
C443 H446 0.950 . S
C444 C443 1.387 . S
C444 C447 1.387 . S
H445 C441 0.950 . S
H446 C443 0.950 . S
C447 C438 1.390 . S
C447 H440 0.950 . S
C447 C444 1.387 . S
C448 C449 1.387 . S
C448 H452 0.950 . S
C448 C457 1.390 . S
C449 C448 1.387 . S
C449 C451 1.387 . S
H450 C457 0.950 . S
C451 C449 1.387 . S
C451 C453 1.390 . S
C451 H455 0.950 . S
H452 C448 0.950 . S
C453 C451 1.390 . S
C453 C454 1.387 . S
C453 H456 0.950 . S
C454 C453 1.387 . S
C454 C457 1.387 . S
H455 C451 0.950 . S
H456 C453 0.950 . S
C457 C448 1.390 . S
C457 H450 0.950 . S
C457 C454 1.387 . S
C458 C459 1.387 . S
C458 H462 0.950 . S
C458 C467 1.390 . S
C459 C458 1.387 . S
C459 C461 1.387 . S
H460 C467 0.950 . S
C461 C459 1.387 . S
C461 C463 1.390 . S
C461 H465 0.950 . S
H462 C458 0.950 . S
C463 C461 1.390 . S
C463 C464 1.387 . S
C463 H466 0.950 . S
C464 C463 1.387 . S
C464 C467 1.387 . S
H465 C461 0.950 . S
H466 C463 0.950 . S
C467 C458 1.390 . S
C467 H460 0.950 . S
C467 C464 1.387 . S
C468 C469 1.387 . S
C468 H472 0.950 . S
C468 C477 1.390 . S
C469 C468 1.387 . S
C469 C471 1.387 . S
H470 C477 0.950 . S
C471 C469 1.387 . S
C471 C473 1.390 . S
C471 H475 0.950 . S
H472 C468 0.950 . S
C473 C471 1.390 . S
C473 C474 1.387 . S
C473 H476 0.950 . S
C474 C473 1.387 . S
C474 C477 1.387 . S
H475 C471 0.950 . S
H476 C473 0.950 . S
C477 C468 1.390 . S
C477 H470 0.950 . S
C477 C474 1.387 . S
C478 C479 1.387 . S
C478 H482 0.950 . S
C478 C487 1.390 . S
C479 C478 1.387 . S
C479 C481 1.387 . S
H480 C487 0.950 . S
C481 C479 1.387 . S
C481 C483 1.390 . S
C481 H485 0.950 . S
H482 C478 0.950 . S
C483 C481 1.390 . S
C483 C484 1.387 . S
C483 H486 0.950 . S
C484 C483 1.387 . S
C484 C487 1.387 . S
H485 C481 0.950 . S
H486 C483 0.950 . S
C487 C478 1.390 . S
C487 H480 0.950 . S
C487 C484 1.387 . S
C488 C489 1.387 . S
C488 H492 0.950 . S
C488 C497 1.390 . S
C489 C488 1.387 . S
C489 C491 1.387 . S
H490 C497 0.950 . S
C491 C489 1.387 . S
C491 C493 1.390 . S
C491 H495 0.950 . S
H492 C488 0.950 . S
C493 C491 1.390 . S
C493 C494 1.387 . S
C493 H496 0.950 . S
C494 C493 1.387 . S
C494 C497 1.387 . S
H495 C491 0.950 . S
H496 C493 0.950 . S
C497 C488 1.390 . S
C497 H490 0.950 . S
C497 C494 1.387 . S
C498 C499 1.387 . S
C498 H502 0.950 . S
C498 C507 1.390 . S
C499 C498 1.387 . S
C499 C501 1.387 . S
H500 C507 0.950 . S
C501 C499 1.387 . S
C501 C503 1.390 . S
C501 H505 0.950 . S
H502 C498 0.950 . S
C503 C501 1.390 . S
C503 C504 1.387 . S
C503 H506 0.950 . S
C504 C503 1.387 . S
C504 C507 1.387 . S
H505 C501 0.950 . S
H506 C503 0.950 . S
C507 C498 1.390 . S
C507 H500 0.950 . S
C507 C504 1.387 . S
C508 C509 1.387 . S
C508 H512 0.950 . S
C508 C517 1.390 . S
C509 C508 1.387 . S
C509 C511 1.387 . S
H510 C517 0.950 . S
C511 C509 1.387 . S
C511 C513 1.390 . S
C511 H515 0.950 . S
H512 C508 0.950 . S
C513 C511 1.390 . S
C513 C514 1.387 . S
C513 H516 0.950 . S
C514 C513 1.387 . S
C514 C517 1.387 . S
H515 C511 0.950 . S
H516 C513 0.950 . S
C517 C508 1.390 . S
C517 H510 0.950 . S
C517 C514 1.387 . S
C518 C519 1.387 . S
C518 H522 0.950 . S
C518 C527 1.390 . S
C519 C518 1.387 . S
C519 C521 1.387 . S
H520 C527 0.950 . S
C521 C519 1.387 . S
C521 C523 1.390 . S
C521 H525 0.950 . S
H522 C518 0.950 . S
C523 C521 1.390 . S
C523 C524 1.387 . S
C523 H526 0.950 . S
C524 C523 1.387 . S
C524 C527 1.387 . S
H525 C521 0.950 . S
H526 C523 0.950 . S
C527 C518 1.390 . S
C527 H520 0.950 . S
C527 C524 1.387 . S
C528 C529 1.387 . S
C528 H532 0.950 . S
C528 C537 1.390 . S
C529 C528 1.387 . S
C529 C531 1.387 . S
H530 C537 0.950 . S
C531 C529 1.387 . S
C531 C533 1.390 . S
C531 H535 0.950 . S
H532 C528 0.950 . S
C533 C531 1.390 . S
C533 C534 1.387 . S
C533 H536 0.950 . S
C534 C533 1.387 . S
C534 C537 1.387 . S
H535 C531 0.950 . S
H536 C533 0.950 . S
C537 C528 1.390 . S
C537 H530 0.950 . S
C537 C534 1.387 . S
C538 C539 1.387 . S
C538 H542 0.950 . S
C538 C547 1.390 . S
C539 C538 1.387 . S
C539 C541 1.387 . S
H540 C547 0.950 . S
C541 C539 1.387 . S
C541 C543 1.390 . S
C541 H545 0.950 . S
H542 C538 0.950 . S
C543 C541 1.390 . S
C543 C544 1.387 . S
C543 H546 0.950 . S
C544 C543 1.387 . S
C544 C547 1.387 . S
H545 C541 0.950 . S
H546 C543 0.950 . S
C547 C538 1.390 . S
C547 H540 0.950 . S
C547 C544 1.387 . S
C548 C549 1.387 . S
C548 H552 0.950 . S
C548 C557 1.390 . S
C549 C548 1.387 . S
C549 C551 1.387 . S
H550 C557 0.950 . S
C551 C549 1.387 . S
C551 C553 1.390 . S
C551 H555 0.950 . S
H552 C548 0.950 . S
C553 C551 1.390 . S
C553 C554 1.387 . S
C553 H556 0.950 . S
C554 C553 1.387 . S
C554 C557 1.387 . S
H555 C551 0.950 . S
H556 C553 0.950 . S
C557 C548 1.390 . S
C557 H550 0.950 . S
C557 C554 1.387 . S
C558 C559 1.387 . S
C558 H562 0.950 . S
C558 C567 1.390 . S
C559 C558 1.387 . S
C559 C561 1.387 . S
H560 C567 0.950 . S
C561 C559 1.387 . S
C561 C563 1.390 . S
C561 H565 0.950 . S
H562 C558 0.950 . S
C563 C561 1.390 . S
C563 C564 1.387 . S
C563 H566 0.950 . S
C564 C563 1.387 . S
C564 C567 1.387 . S
H565 C561 0.950 . S
H566 C563 0.950 . S
C567 C558 1.390 . S
C567 H560 0.950 . S
C567 C564 1.387 . S
C568 C569 1.387 . S
C568 H572 0.950 . S
C568 C577 1.390 . S
C569 C568 1.387 . S
C569 C571 1.387 . S
H570 C577 0.950 . S
C571 C569 1.387 . S
C571 C573 1.390 . S
C571 H575 0.950 . S
H572 C568 0.950 . S
C573 C571 1.390 . S
C573 C574 1.387 . S
C573 H576 0.950 . S
C574 C573 1.387 . S
C574 C577 1.387 . S
H575 C571 0.950 . S
H576 C573 0.950 . S
C577 C568 1.390 . S
C577 H570 0.950 . S
C577 C574 1.387 . S
C578 C579 1.387 . S
C578 H582 0.950 . S
C578 C587 1.390 . S
C579 C578 1.387 . S
C579 C581 1.387 . S
H580 C587 0.950 . S
C581 C579 1.387 . S
C581 C583 1.390 . S
C581 H585 0.950 . S
H582 C578 0.950 . S
C583 C581 1.390 . S
C583 C584 1.387 . S
C583 H586 0.950 . S
C584 C583 1.387 . S
C584 C587 1.387 . S
H585 C581 0.950 . S
H586 C583 0.950 . S
C587 C578 1.390 . S
C587 H580 0.950 . S
C587 C584 1.387 . S
C588 C589 1.387 . S
C588 H592 0.950 . S
C588 C597 1.390 . S
C589 C588 1.387 . S
C589 C591 1.387 . S
H590 C597 0.950 . S
C591 C589 1.387 . S
C591 C593 1.390 . S
C591 H595 0.950 . S
H592 C588 0.950 . S
C593 C591 1.390 . S
C593 C594 1.387 . S
C593 H596 0.950 . S
C594 C593 1.387 . S
C594 C597 1.387 . S
H595 C591 0.950 . S
H596 C593 0.950 . S
C597 C588 1.390 . S
C597 H590 0.950 . S
C597 C594 1.387 . S
C598 C599 1.387 . S
C598 H602 0.950 . S
C598 C607 1.390 . S
C599 C598 1.387 . S
C599 C601 1.387 . S
H600 C607 0.950 . S
C601 C599 1.387 . S
C601 C603 1.390 . S
C601 H605 0.950 . S
H602 C598 0.950 . S
C603 C601 1.390 . S
C603 C604 1.387 . S
C603 H606 0.950 . S
C604 C603 1.387 . S
C604 C607 1.387 . S
H605 C601 0.950 . S
H606 C603 0.950 . S
C607 C598 1.390 . S
C607 H600 0.950 . S
C607 C604 1.387 . S
C608 C609 1.387 . S
C608 H612 0.950 . S
C608 C617 1.390 . S
C609 C608 1.387 . S
C609 C611 1.387 . S
H610 C617 0.950 . S
C611 C609 1.387 . S
C611 C613 1.390 . S
C611 H615 0.950 . S
H612 C608 0.950 . S
C613 C611 1.390 . S
C613 C614 1.387 . S
C613 H616 0.950 . S
C614 C613 1.387 . S
C614 C617 1.387 . S
H615 C611 0.950 . S
H616 C613 0.950 . S
C617 C608 1.390 . S
C617 H610 0.950 . S
C617 C614 1.387 . S
C618 C619 1.387 . S
C618 H622 0.950 . S
C618 C627 1.390 . S
C619 C618 1.387 . S
C619 C621 1.387 . S
H620 C627 0.950 . S
C621 C619 1.387 . S
C621 C623 1.390 . S
C621 H625 0.950 . S
H622 C618 0.950 . S
C623 C621 1.390 . S
C623 C624 1.387 . S
C623 H626 0.950 . S
C624 C623 1.387 . S
C624 C627 1.387 . S
H625 C621 0.950 . S
H626 C623 0.950 . S
C627 C618 1.390 . S
C627 H620 0.950 . S
C627 C624 1.387 . S
C628 C629 1.387 . S
C628 H632 0.950 . S
C628 C637 1.390 . S
C629 C628 1.387 . S
C629 C631 1.387 . S
H630 C637 0.950 . S
C631 C629 1.387 . S
C631 C633 1.390 . S
C631 H635 0.950 . S
H632 C628 0.950 . S
C633 C631 1.390 . S
C633 C634 1.387 . S
C633 H636 0.950 . S
C634 C633 1.387 . S
C634 C637 1.387 . S
H635 C631 0.950 . S
H636 C633 0.950 . S
C637 C628 1.390 . S
C637 H630 0.950 . S
C637 C634 1.387 . S
C638 C639 1.387 . S
C638 H642 0.950 . S
C638 C647 1.390 . S
C639 C638 1.387 . S
C639 C641 1.387 . S
H640 C647 0.950 . S
C641 C639 1.387 . S
C641 C643 1.390 . S
C641 H645 0.950 . S
H642 C638 0.950 . S
C643 C641 1.390 . S
C643 C644 1.387 . S
C643 H646 0.950 . S
C644 C643 1.387 . S
C644 C647 1.387 . S
H645 C641 0.950 . S
H646 C643 0.950 . S
C647 C638 1.390 . S
C647 H640 0.950 . S
C647 C644 1.387 . S
C648 C649 1.387 . S
C648 H652 0.950 . S
C648 C657 1.390 . S
C649 C648 1.387 . S
C649 C651 1.387 . S
H650 C657 0.950 . S
C651 C649 1.387 . S
C651 C653 1.390 . S
C651 H655 0.950 . S
H652 C648 0.950 . S
C653 C651 1.390 . S
C653 C654 1.387 . S
C653 H656 0.950 . S
C654 C653 1.387 . S
C654 C657 1.387 . S
H655 C651 0.950 . S
H656 C653 0.950 . S
C657 C648 1.390 . S
C657 H650 0.950 . S
C657 C654 1.387 . S
C658 C659 1.387 . S
C658 H662 0.950 . S
C658 C667 1.390 . S
C659 C658 1.387 . S
C659 C661 1.387 . S
H660 C667 0.950 . S
C661 C659 1.387 . S
C661 C663 1.390 . S
C661 H665 0.950 . S
H662 C658 0.950 . S
C663 C661 1.390 . S
C663 C664 1.387 . S
C663 H666 0.950 . S
C664 C663 1.387 . S
C664 C667 1.387 . S
H665 C661 0.950 . S
H666 C663 0.950 . S
C667 C658 1.390 . S
C667 H660 0.950 . S
C667 C664 1.387 . S
C668 C669 1.387 . S
C668 H672 0.950 . S
C668 C677 1.390 . S
C669 C668 1.387 . S
C669 C671 1.387 . S
H670 C677 0.950 . S
C671 C669 1.387 . S
C671 C673 1.390 . S
C671 H675 0.950 . S
H672 C668 0.950 . S
C673 C671 1.390 . S
C673 C674 1.387 . S
C673 H676 0.950 . S
C674 C673 1.387 . S
C674 C677 1.387 . S
H675 C671 0.950 . S
H676 C673 0.950 . S
C677 C668 1.390 . S
C677 H670 0.950 . S
C677 C674 1.387 . S
C678 C679 1.387 . S
C678 H682 0.950 . S
C678 C687 1.390 . S
C679 C678 1.387 . S
C679 C681 1.387 . S
H680 C687 0.950 . S
C681 C679 1.387 . S
C681 C683 1.390 . S
C681 H685 0.950 . S
H682 C678 0.950 . S
C683 C681 1.390 . S
C683 C684 1.387 . S
C683 H686 0.950 . S
C684 C683 1.387 . S
C684 C687 1.387 . S
H685 C681 0.950 . S
H686 C683 0.950 . S
C687 C678 1.390 . S
C687 H680 0.950 . S
C687 C684 1.387 . S
C688 C689 1.387 . S
C688 H692 0.950 . S
C688 C697 1.390 . S
C689 C688 1.387 . S
C689 C691 1.387 . S
H690 C697 0.950 . S
C691 C689 1.387 . S
C691 C693 1.390 . S
C691 H695 0.950 . S
H692 C688 0.950 . S
C693 C691 1.390 . S
C693 C694 1.387 . S
C693 H696 0.950 1_545 S
C694 C693 1.387 . S
C694 C697 1.387 . S
H695 C691 0.950 . S
H696 C693 0.950 1_565 S
C697 C688 1.390 . S
C697 H690 0.950 . S
C697 C694 1.387 . S
C698 C699 1.387 . S
C698 H702 0.950 . S
C698 C707 1.390 . S
C699 C698 1.387 . S
C699 C701 1.387 . S
H700 C707 0.950 . S
C701 C699 1.387 . S
C701 C703 1.390 . S
C701 H705 0.950 . S
H702 C698 0.950 . S
C703 C701 1.390 . S
C703 C704 1.387 . S
C703 H706 0.950 . S
C704 C703 1.387 . S
C704 C707 1.387 . S
H705 C701 0.950 . S
H706 C703 0.950 . S
C707 C698 1.390 . S
C707 H700 0.950 . S
C707 C704 1.387 . S
C708 C709 1.387 . S
C708 H712 0.950 . S
C708 C717 1.390 . S
C709 C708 1.387 . S
C709 C711 1.387 . S
H710 C717 0.950 . S
C711 C709 1.387 . S
C711 C713 1.390 . S
C711 H715 0.950 . S
H712 C708 0.950 . S
C713 C711 1.390 . S
C713 C714 1.387 . S
C713 H716 0.950 . S
C714 C713 1.387 . S
C714 C717 1.387 . S
H715 C711 0.950 . S
H716 C713 0.950 . S
C717 C708 1.390 . S
C717 H710 0.950 . S
C717 C714 1.387 . S
C718 C719 1.387 . S
C718 H722 0.950 . S
C718 C727 1.390 . S
C719 C718 1.387 . S
C719 C721 1.387 . S
H720 C727 0.950 . S
C721 C719 1.387 . S
C721 C723 1.390 . S
C721 H725 0.950 . S
H722 C718 0.950 . S
C723 C721 1.390 . S
C723 C724 1.387 . S
C723 H726 0.950 . S
C724 C723 1.387 . S
C724 C727 1.387 . S
H725 C721 0.950 . S
H726 C723 0.950 . S
C727 C718 1.390 . S
C727 H720 0.950 . S
C727 C724 1.387 . S
C728 C729 1.387 1_554 S
C728 H732 0.950 . S
C728 C737 1.390 . S
C729 C728 1.387 1_556 S
C729 C731 1.387 . S
H730 C737 0.950 . S
C731 C729 1.387 . S
C731 C733 1.390 1_556 S
C731 H735 0.950 . S
H732 C728 0.950 . S
C733 C731 1.390 1_554 S
C733 C734 1.387 . S
C733 H736 0.945 1_554 S
C734 C733 1.387 . S
C734 C737 1.387 . S
H735 C731 0.950 . S
H736 C733 0.945 1_556 S
C737 C728 1.390 . S
C737 H730 0.950 . S
C737 C734 1.387 . S
C738 C739 1.387 . S
C738 H742 0.950 . S
C738 C747 1.390 . S
C739 C738 1.387 . S
C739 C741 1.387 . S
H740 C747 0.950 1_556 S
C741 C739 1.387 . S
C741 C743 1.390 . S
C741 H745 0.950 . S
H742 C738 0.950 . S
C743 C741 1.390 . S
C743 C744 1.387 1_554 S
C743 H746 0.957 . S
C744 C743 1.387 1_556 S
C744 C747 1.387 1_556 S
H745 C741 0.950 . S
H746 C743 0.957 . S
C747 C738 1.390 . S
C747 H740 0.950 1_554 S
C747 C744 1.387 1_554 S
C748 C749 1.387 1_554 S
C748 H752 0.950 . S
C748 C757 1.390 . S
C749 C748 1.387 1_556 S
C749 C751 1.387 . S
H750 C757 0.950 . S
C751 C749 1.387 . S
C751 C753 1.390 1_556 S
C751 H755 0.950 . S
H752 C748 0.950 . S
C753 C751 1.390 1_554 S
C753 C754 1.387 . S
C753 H756 0.950 . S
C754 C753 1.387 . S
C754 C757 1.387 . S
H755 C751 0.950 . S
H756 C753 0.950 . S
C757 C748 1.390 . S
C757 H750 0.950 . S
C757 C754 1.387 . S
C758 C759 1.387 . S
C758 H762 0.950 . S
C758 C767 1.390 . S
C759 C758 1.387 . S
C759 C761 1.387 . S
H760 C767 0.950 . S
C761 C759 1.387 . S
C761 C763 1.380 1_554 S
C761 H765 0.950 . S
H762 C758 0.950 . S
C763 C761 1.380 1_556 S
C763 C764 1.390 . S
C763 H766 0.957 . S
C764 C763 1.390 . S
C764 C767 1.387 1_556 S
H765 C761 0.950 . S
H766 C763 0.957 . S
C767 C758 1.390 . S
C767 H760 0.950 . S
C767 C764 1.387 1_554 S
C768 C769 1.387 . S
C768 H772 0.950 . S
C768 C777 1.390 . S
C769 C768 1.387 . S
C769 C771 1.387 . S
H770 C777 0.950 . S
C771 C769 1.387 . S
C771 C773 1.390 . S
C771 H775 0.950 . S
H772 C768 0.950 . S
C773 C771 1.390 . S
C773 C774 1.387 . S
C773 H776 0.936 1_565 S
C774 C773 1.387 . S
C774 C777 1.387 . S
H775 C771 0.950 . S
H776 C773 0.936 1_545 S
C777 C768 1.390 . S
C777 H770 0.950 . S
C777 C774 1.387 . S
C778 C779 1.387 . S
C778 H782 0.950 . S
C778 C787 1.390 . S
C779 C778 1.387 . S
C779 C781 1.387 . S
H780 C787 0.950 . S
C781 C779 1.387 . S
C781 C783 1.390 . S
C781 H785 0.950 . S
H782 C778 0.950 . S
C783 C781 1.390 . S
C783 C784 1.387 . S
C783 H786 0.950 . S
C784 C783 1.387 . S
C784 C787 1.387 . S
H785 C781 0.950 . S
H786 C783 0.950 . S
C787 C778 1.390 . S
C787 H780 0.950 . S
C787 C784 1.387 . S
C788 C789 1.387 . S
C788 H792 0.950 . S
C788 C797 1.390 . S
C789 C788 1.387 . S
C789 C791 1.387 . S
H790 C797 0.950 . S
C791 C789 1.387 . S
C791 C793 1.390 . S
C791 H795 0.950 . S
H792 C788 0.950 . S
C793 C791 1.390 . S
C793 C794 1.387 . S
C793 H796 0.950 . S
C794 C793 1.387 . S
C794 C797 1.387 . S
H795 C791 0.950 . S
H796 C793 0.950 . S
C797 C788 1.390 . S
C797 H790 0.950 . S
C797 C794 1.387 . S
C798 C799 1.387 . S
C798 H802 0.950 . S
C798 C807 1.390 . S
C799 C798 1.387 . S
C799 C801 1.387 . S
H800 C807 0.950 . S
C801 C799 1.387 . S
C801 C803 1.390 . S
C801 H805 0.950 . S
H802 C798 0.950 . S
C803 C801 1.390 . S
C803 C804 1.387 . S
C803 H806 0.950 . S
C804 C803 1.387 . S
C804 C807 1.387 . S
H805 C801 0.950 . S
H806 C803 0.950 . S
C807 C798 1.390 . S
C807 H800 0.950 . S
C807 C804 1.387 . S
C808 C809 1.387 . S
C808 H812 0.950 . S
C808 C817 1.390 1_556 S
C809 C808 1.387 . S
C809 C811 1.387 . S
H810 C817 0.950 . S
C811 C809 1.387 . S
C811 C813 1.390 . S
C811 H815 0.950 . S
H812 C808 0.950 . S
C813 C811 1.390 . S
C813 C814 1.387 1_556 S
C813 H816 0.950 1_545 S
C814 C813 1.387 1_554 S
C814 C817 1.387 . S
H815 C811 0.950 . S
H816 C813 0.950 1_565 S
C817 C808 1.390 1_554 S
C817 H810 0.950 . S
C817 C814 1.387 . S
C818 C819 1.387 . S
C818 H822 0.950 . S
C818 C827 1.390 . S
C819 C818 1.387 . S
C819 C821 1.387 . S
H820 C827 0.950 1_554 S
C821 C819 1.387 . S
C821 C823 1.390 . S
C821 H825 0.950 . S
H822 C818 0.950 . S
C823 C821 1.390 . S
C823 C824 1.387 1_556 S
C823 H826 0.950 1_556 S
C824 C823 1.387 1_554 S
C824 C827 1.387 1_554 S
H825 C821 0.950 . S
H826 C823 0.950 1_554 S
C827 C818 1.390 . S
C827 H820 0.950 1_556 S
C827 C824 1.387 1_556 S
C828 C829 1.387 . S
C828 H832 0.950 . S
C828 C837 1.390 1_554 S
C829 C828 1.387 . S
C829 C831 1.387 1_554 S
H830 C837 0.950 . S
C831 C829 1.387 1_556 S
C831 C833 1.390 . S
C831 H835 0.950 . S
H832 C828 0.950 . S
C833 C831 1.390 . S
C833 C834 1.387 . S
C833 H836 0.950 . S
C834 C833 1.387 . S
C834 C837 1.387 . S
H835 C831 0.950 . S
H836 C833 0.950 . S
C837 C828 1.390 1_556 S
C837 H830 0.950 . S
C837 C834 1.387 . S
C838 C839 1.387 . S
C838 H842 0.950 . S
C838 C847 1.390 1_554 S
C839 C838 1.387 . S
C839 C841 1.387 1_554 S
H840 C847 0.953 . S
C841 C839 1.387 1_556 S
C841 C843 1.390 . S
C841 H845 0.950 . S
H842 C838 0.950 . S
C843 C841 1.390 . S
C843 C844 1.387 . S
C843 H846 0.950 . S
C844 C843 1.387 . S
C844 C847 1.387 . S
H845 C841 0.950 . S
H846 C843 0.950 . S
C847 C838 1.390 1_556 S
C847 H840 0.953 . S
C847 C844 1.387 . S
C369 C17 1.686 . S
C374 C131 1.674 . S
C379 C155 1.654 . S
C384 C40 1.653 . S
C389 C63 1.658 . S
C394 C178 1.656 . S
C399 C85 1.700 . S
C404 C108 1.698 . S
C409 C316 1.677 . S
C414 C201 1.678 . S
C419 C339 1.677 . S
C424 C224 1.678 . S
C429 C247 1.679 . S
C434 C362 1.678 . S
C439 C270 1.674 . S
C444 C293 1.673 . S
C449 C20 1.602 . S
C454 C88 1.596 . S
C459 C43 1.580 . S
C464 C21 1.582 . S
C469 C66 1.590 . S
C474 C44 1.591 . S
C479 C87 1.614 . S
C484 C67 1.598 1_455 S
C489 C110 1.634 . S
C494 C134 1.617 . S
C499 C159 1.618 . S
C504 C133 1.623 . S
C509 C158 1.580 . S
C514 C182 1.581 . S
C519 C111 1.591 . S
C524 C181 1.598 . S
C529 C274 1.582 1_565 S
C534 C204 1.582 . S
C539 C227 1.583 . S
C544 C205 1.585 . S
C549 C250 1.583 . S
C554 C228 1.583 . S
C559 C273 1.583 . S
C564 C251 1.584 1_655 S
C569 C296 1.578 . S
C574 C320 1.579 1_545 S
C579 C319 1.579 . S
C584 C343 1.580 . S
C589 C342 1.579 . S
C594 C366 1.579 . S
C599 C365 1.580 . S
C604 C297 1.567 1_455 S
C609 C19 0.858 . S
C614 C65 0.857 . S
C619 C42 0.848 . S
C624 C90 0.857 . S
C629 C157 0.863 . S
C634 C113 0.874 . S
C639 C180 0.861 . S
C644 C136 0.870 . S
C649 C249 0.853 . S
C654 C203 0.853 . S
C659 C272 0.839 . S
C664 C226 0.839 . S
C669 C295 0.850 . S
C674 C341 0.850 . S
C679 C318 0.853 . S
C684 C364 0.854 . S
C689 C18 1.382 . S
C694 C269 1.332 . S
C699 C200 1.318 . S
C704 C41 1.364 . S
C709 C64 1.378 . S
C714 C223 1.332 . S
C719 C246 1.314 . S
C724 C89 1.308 . S
C729 C315 1.320 . S
C734 C112 1.319 . S
C739 C135 1.312 . S
C744 C338 1.315 . S
C749 C361 1.330 . S
C754 C156 1.377 . S
C759 C179 1.373 . S
C764 C292 1.324 . S
C769 C202 1.351 . S
C774 C86 1.322 . S
C779 C225 1.370 . S
C784 C16 1.322 . S
C789 C39 1.330 . S
C794 C248 1.379 . S
C799 C271 1.373 . S
C804 C62 1.327 . S
C809 C294 1.351 . S
C814 C132 1.322 . S
C819 C317 1.381 . S
C824 C154 1.335 . S
C829 C177 1.328 . S
C834 C340 1.376 . S
C839 C109 1.316 . S
C844 C363 1.346 . S
