# Generated by pormake.
# Topology zfd, (5)-cn, num edge types: 1
# Building blocks:
#     Node 0, Type 0, BuildingBlock: XOMCOT_clean_sbu_1, # of connection points: 5
#     Node 1, Type 0, BuildingBlock: XOMCOT_clean_sbu_1, # of connection points: 5
#     Node 2, Type 0, BuildingBlock: XOMCOT_clean_sbu_1, # of connection points: 5
#     Node 3, Type 0, BuildingBlock: XOMCOT_clean_sbu_1, # of connection points: 5
#     Node 4, Type 0, BuildingBlock: XOMCOT_clean_sbu_1, # of connection points: 5
#     Node 5, Type 0, BuildingBlock: XOMCOT_clean_sbu_1, # of connection points: 5
#     Node 6, Type 0, BuildingBlock: XOMCOT_clean_sbu_1, # of connection points: 5
#     Node 7, Type 0, BuildingBlock: XOMCOT_clean_sbu_1, # of connection points: 5
#     Node 8, Type 0, BuildingBlock: XOMCOT_clean_sbu_1, # of connection points: 5
#     Node 9, Type 0, BuildingBlock: XOMCOT_clean_sbu_1, # of connection points: 5
#     Node 10, Type 0, BuildingBlock: XOMCOT_clean_sbu_1, # of connection points: 5
#     Node 11, Type 0, BuildingBlock: XOMCOT_clean_sbu_1, # of connection points: 5
#     Node 12, Type 0, BuildingBlock: XOMCOT_clean_sbu_1, # of connection points: 5
#     Node 13, Type 0, BuildingBlock: XOMCOT_clean_sbu_1, # of connection points: 5
#     Node 14, Type 0, BuildingBlock: XOMCOT_clean_sbu_1, # of connection points: 5
#     Node 15, Type 0, BuildingBlock: XOMCOT_clean_sbu_1, # of connection points: 5
#     Edge 16, Type (0, 0), None
#     Edge 17, Type (0, 0), None
#     Edge 18, Type (0, 0), None
#     Edge 19, Type (0, 0), None
#     Edge 20, Type (0, 0), None
#     Edge 21, Type (0, 0), None
#     Edge 22, Type (0, 0), None
#     Edge 23, Type (0, 0), None
#     Edge 24, Type (0, 0), None
#     Edge 25, Type (0, 0), None
#     Edge 26, Type (0, 0), None
#     Edge 27, Type (0, 0), None
#     Edge 28, Type (0, 0), None
#     Edge 29, Type (0, 0), None
#     Edge 30, Type (0, 0), None
#     Edge 31, Type (0, 0), None
#     Edge 32, Type (0, 0), None
#     Edge 33, Type (0, 0), None
#     Edge 34, Type (0, 0), None
#     Edge 35, Type (0, 0), None
#     Edge 36, Type (0, 0), None
#     Edge 37, Type (0, 0), None
#     Edge 38, Type (0, 0), None
#     Edge 39, Type (0, 0), None
#     Edge 40, Type (0, 0), None
#     Edge 41, Type (0, 0), None
#     Edge 42, Type (0, 0), None
#     Edge 43, Type (0, 0), None
#     Edge 44, Type (0, 0), None
#     Edge 45, Type (0, 0), None
#     Edge 46, Type (0, 0), None
#     Edge 47, Type (0, 0), None
#     Edge 48, Type (0, 0), None
#     Edge 49, Type (0, 0), None
#     Edge 50, Type (0, 0), None
#     Edge 51, Type (0, 0), None
#     Edge 52, Type (0, 0), None
#     Edge 53, Type (0, 0), None
#     Edge 54, Type (0, 0), None
#     Edge 55, Type (0, 0), None
# Relax obj value: 0.343
# Max RMSD: 0.190
# Mean RMSD: 0.190
data_MOF--net-zfd--node1-XOMCOT_clean_sbu_1--edge1-none
_symmetry_space_group_name_H-M    P1
_symmetry_Int_Tables_number       1
_symmetry_cell_setting            triclinic
loop_
_symmetry_equiv_pos_as_xyz
'x, y, z'
_cell_length_a     34.464606
_cell_length_b     34.4643
_cell_length_c     10.086002
_cell_angle_alpha  90.002119
_cell_angle_beta   89.995234
_cell_angle_gamma 89.999898
loop_
_atom_site_label
_atom_site_type_symbol
_atom_site_fract_x
_atom_site_fract_y
_atom_site_fract_z
_atom_type_partial_charge
C0 C 0.1429 0.21607 0.30057 0.0
C1 C 0.13563 0.18527 0.3817 0.0
N2 N 0.12243 0.15514 0.30746 0.0
N3 N 0.1334 0.20561 0.1767 0.0
C4 C 0.11814 0.17023 0.18572 0.0
H5 H 0.15275 0.24455 0.33047 0.0
Co6 Co 0.12063 0.23487 1.04399 0.0
C7 C 0.15834 0.17161 0.84208 0.0
O8 O 0.12651 0.15082 0.83478 0.0
N9 N 0.10467 0.26645 0.91208 0.0
C10 C 0.09366 0.30866 0.7522 0.0
C11 C 0.12149 0.28551 0.81084 0.0
C12 C 0.06799 0.27888 0.91512 0.0
N13 N 0.06007 0.3046 0.82 0.0
O14 O 0.08265 0.26135 0.17488 0.0
H15 H 0.15134 0.28195 0.77997 0.0
H16 H 0.04565 0.26516 0.97417 0.0
O17 O 0.15808 0.20342 0.9133 0.0
C18 C 0.05726 0.27144 0.26395 0.0
O19 O 0.0495 0.30853 0.27705 0.0
N20 N 0.16158 0.27149 0.08012 0.0
C21 C 0.21814 0.33004 0.04631 0.0
C22 C 0.22777 0.29042 1.03587 0.0
C23 C 0.1994 0.26176 0.05608 0.0
C24 C 0.15238 0.30948 0.10291 0.0
C25 C 0.18011 0.33887 0.0882 0.0
H26 H 0.20773 0.23175 1.04485 0.0
H27 H 0.12277 0.31784 0.1228 0.0
H28 H 0.10769 0.15414 0.1008 0.0
H29 H 0.14368 0.18381 0.48529 0.0
H30 H 0.09662 0.32384 0.65879 0.0
H31 H 0.25648 0.28111 1.00693 0.0
H32 H 0.171 0.36842 0.10618 0.0
C33 C 0.84194 0.14291 0.30061 0.0
C34 C 0.87275 0.13563 0.38173 0.0
N35 N 0.90287 0.12243 0.30748 0.0
N36 N 0.85241 0.13341 0.17673 0.0
C37 C 0.88778 0.11815 0.18574 0.0
H38 H 0.81346 0.15276 0.33051 0.0
Co39 Co 0.82315 0.12064 1.04403 0.0
C40 C 0.8864 0.15834 0.84211 0.0
O41 O 0.9072 0.12651 0.83481 0.0
N42 N 0.79156 0.10468 0.91212 0.0
C43 C 0.74935 0.09367 0.75225 0.0
C44 C 0.77251 0.12149 0.81089 0.0
C45 C 0.77913 0.06799 0.91516 0.0
N46 N 0.75342 0.06007 0.82004 0.0
O47 O 0.79667 0.08265 0.17492 0.0
H48 H 0.77607 0.15134 0.78003 0.0
H49 H 0.79285 0.04565 0.9742 0.0
O50 O 0.8546 0.15809 0.91333 0.0
C51 C 0.78658 0.05726 0.26398 0.0
O52 O 0.74949 0.04951 0.27709 0.0
N53 N 0.78652 0.16158 0.08017 0.0
C54 C 0.72798 0.21815 0.04632 0.0
C55 C 0.7676 0.22777 1.03589 0.0
C56 C 0.79626 0.19941 0.05612 0.0
C57 C 0.74854 0.15239 0.10296 0.0
C58 C 0.71915 0.18012 0.08823 0.0
H59 H 0.82627 0.20773 1.04489 0.0
H60 H 0.74018 0.12278 0.12286 0.0
H61 H 0.90387 0.10769 0.10081 0.0
H62 H 0.87421 0.14369 0.48532 0.0
H63 H 0.73418 0.09662 0.65885 0.0
H64 H 0.77691 0.25648 1.00695 0.0
H65 H 0.6896 0.17101 0.1062 0.0
C66 C 0.91512 0.84196 0.30057 0.0
C67 C 0.92239 0.87277 0.3817 0.0
N68 N 0.93559 0.90289 0.30745 0.0
N69 N 0.92461 0.85242 0.17669 0.0
C70 C 0.93988 0.8878 0.18572 0.0
H71 H 0.90526 0.81348 0.33047 0.0
Co72 Co 0.93738 0.82316 1.04398 0.0
C73 C 0.89968 0.88641 0.84209 0.0
O74 O 0.93151 0.90721 0.83478 0.0
N75 N 0.95334 0.79157 0.91206 0.0
C76 C 0.96435 0.74936 0.75219 0.0
C77 C 0.93653 0.77251 0.81083 0.0
C78 C 0.99002 0.77914 0.9151 0.0
N79 N 0.99794 0.75342 0.81997 0.0
O80 O 0.97537 0.79668 0.17486 0.0
H81 H 0.90668 0.77607 0.77998 0.0
H82 H 1.01237 0.79285 0.97414 0.0
O83 O 0.89993 0.85461 0.9133 0.0
C84 C 1.00076 0.78659 0.26391 0.0
O85 O 1.00851 0.74949 0.27697 0.0
N86 N 0.89644 0.78653 0.08013 0.0
C87 C 0.83987 0.72799 0.04631 0.0
C88 C 0.83025 0.76761 1.03588 0.0
C89 C 0.85861 0.79627 0.0561 0.0
C90 C 0.90563 0.74855 0.10292 0.0
C91 C 0.8779 0.71916 0.08821 0.0
H92 H 0.85029 0.82628 1.04487 0.0
H93 H 0.93524 0.74019 0.12281 0.0
H94 H 0.95033 0.90389 0.10079 0.0
H95 H 0.91434 0.87423 0.4853 0.0
H96 H 0.96139 0.73418 0.65878 0.0
H97 H 0.80154 0.77692 1.00695 0.0
H98 H 0.88701 0.68961 0.10618 0.0
C99 C 0.21606 0.91512 0.30054 0.0
C100 C 0.18525 0.9224 0.38168 0.0
N101 N 0.15513 0.93559 0.30744 0.0
N102 N 0.20559 0.92462 0.17667 0.0
C103 C 0.17022 0.93988 0.1857 0.0
H104 H 0.24454 0.90527 0.33043 0.0
Co105 Co 0.23486 0.93738 1.04395 0.0
C106 C 0.1716 0.89968 0.84206 0.0
O107 O 0.15081 0.93151 0.83476 0.0
N108 N 0.26644 0.95334 0.91203 0.0
C109 C 0.30865 0.96435 0.75215 0.0
C110 C 0.2855 0.93653 0.81079 0.0
C111 C 0.27887 0.99003 0.91506 0.0
N112 N 0.30459 0.99795 0.81993 0.0
O113 O 0.26133 0.97537 0.17483 0.0
H114 H 0.28194 0.90668 0.77993 0.0
H115 H 0.26515 1.01237 0.97411 0.0
O116 O 0.20341 0.89993 0.91327 0.0
C117 C 0.27143 1.00076 0.26388 0.0
O118 O 0.30852 1.00852 0.27694 0.0
N119 N 0.27148 0.89644 0.08009 0.0
C120 C 0.33003 0.83987 0.0463 0.0
C121 C 0.29041 0.83025 1.03585 0.0
C122 C 0.26175 0.85861 0.05605 0.0
C123 C 0.30947 0.90564 0.10288 0.0
C124 C 0.33886 0.87791 0.08818 0.0
H125 H 0.23174 0.85029 1.04482 0.0
H126 H 0.31782 0.93525 0.12276 0.0
H127 H 0.15413 0.95033 0.10078 0.0
H128 H 0.18379 0.91434 0.48527 0.0
H129 H 0.32383 0.96139 0.65874 0.0
H130 H 0.2811 0.80153 1.00692 0.0
H131 H 0.3684 0.88702 0.10616 0.0
C132 C 0.0974 0.86026 0.29349 0.0
C133 C 0.10546 0.89408 0.23095 0.0
N134 N 0.11783 0.91997 0.32271 0.0
N135 N 0.09966 0.86616 0.42485 0.0
C136 C 0.10827 0.90371 0.43934 0.0
H137 H 0.09319 0.83259 0.2452 0.0
Co138 Co 0.09061 0.8312 0.55197 0.0
C139 C 0.15684 0.86311 0.77022 0.0
O140 O 0.17579 0.83059 0.7897 0.0
N141 N 0.07852 0.79544 0.67679 0.0
C142 C 0.06829 0.74794 0.81998 0.0
C143 C 0.09606 0.77228 0.76629 0.0
C144 C 0.04143 0.78448 0.67639 0.0
N145 N 0.03418 0.75525 0.75918 0.0
O146 O 0.05307 0.80323 0.41871 0.0
H147 H 0.1265 0.77321 0.79157 0.0
H148 H 1.01875 0.80084 0.62759 0.0
O149 O 0.12687 0.86318 0.68963 0.0
C150 C 1.02301 0.81456 0.35052 0.0
O151 O 1.01178 0.85087 0.35779 0.0
N152 N 0.13362 0.79947 0.49779 0.0
C153 C 0.19609 0.74695 0.51486 0.0
C154 C 0.20222 0.78742 0.51787 0.0
C155 C 0.17074 0.81307 0.50531 0.0
C156 C 0.12763 0.76079 0.47617 0.0
C157 C 0.15831 0.73426 0.48352 0.0
H158 H 0.176 0.84384 0.51348 0.0
H159 H 0.09854 0.74958 0.46529 0.0
H160 H 0.11496 0.9168 0.53404 0.0
H161 H 0.1108 0.89597 0.12533 0.0
H162 H 0.07204 0.72879 0.90405 0.0
H163 H 0.23051 0.79966 0.5373 0.0
H164 H 0.1517 0.70386 0.46988 0.0
C165 C 0.19776 0.09741 0.29349 0.0
C166 C 0.16395 0.10548 0.23094 0.0
N167 N 0.13805 0.11784 0.32271 0.0
N168 N 0.19186 0.09967 0.42485 0.0
C169 C 0.15431 0.10828 0.43933 0.0
H170 H 0.22543 0.0932 0.2452 0.0
Co171 Co 0.22681 0.09062 0.55197 0.0
C172 C 0.1949 0.15685 0.77024 0.0
O173 O 0.22743 0.1758 0.78972 0.0
N174 N 0.26257 0.07852 0.67679 0.0
C175 C 0.31007 0.06829 0.81998 0.0
C176 C 0.28573 0.09606 0.76629 0.0
C177 C 0.27353 0.04143 0.67638 0.0
N178 N 0.30276 0.03418 0.75916 0.0
O179 O 0.25479 0.05308 0.4187 0.0
H180 H 0.28481 0.1265 0.79159 0.0
H181 H 0.25717 1.01876 0.62756 0.0
O182 O 0.19484 0.12688 0.68964 0.0
C183 C 0.24346 1.02302 0.35051 0.0
O184 O 0.20715 1.01178 0.35777 0.0
N185 N 0.25855 0.13363 0.49781 0.0
C186 C 0.31107 0.1961 0.51486 0.0
C187 C 0.27061 0.20222 0.51788 0.0
C188 C 0.24495 0.17075 0.50533 0.0
C189 C 0.29723 0.12764 0.47618 0.0
C190 C 0.32376 0.15831 0.48353 0.0
H191 H 0.21419 0.17601 0.5135 0.0
H192 H 0.30844 0.09854 0.4653 0.0
H193 H 0.14122 0.11497 0.53404 0.0
H194 H 0.16207 0.11082 0.12533 0.0
H195 H 0.32922 0.07204 0.90405 0.0
H196 H 0.25837 0.23052 0.53732 0.0
H197 H 0.35416 0.15171 0.46988 0.0
C198 C 0.96061 0.19775 0.29353 0.0
C199 C 0.95255 0.16394 0.23097 0.0
N200 N 0.94018 0.13805 0.32274 0.0
N201 N 0.95835 0.19186 0.42489 0.0
C202 C 0.94974 0.15431 0.43936 0.0
H203 H 0.96483 0.22542 0.24524 0.0
Co204 Co 0.9674 0.22681 0.55202 0.0
C205 C 0.90117 0.1949 0.77028 0.0
O206 O 0.88221 0.22743 0.78975 0.0
N207 N 0.97949 0.26257 0.67685 0.0
C208 C 0.98972 0.31008 0.82004 0.0
C209 C 0.96195 0.28573 0.76635 0.0
C210 C 1.01659 0.27353 0.67644 0.0
N211 N 1.02383 0.30276 0.75922 0.0
O212 O 1.00494 0.25479 0.41875 0.0
H213 H 0.93151 0.28481 0.79164 0.0
H214 H 0.03926 0.25717 0.62762 0.0
O215 O 0.93114 0.19484 0.68968 0.0
C216 C 0.035 0.24347 0.35055 0.0
O217 O 0.04624 0.20716 0.35777 0.0
N218 N 0.92439 0.25855 0.49785 0.0
C219 C 0.86192 0.31107 0.51487 0.0
C220 C 0.85579 0.2706 0.5179 0.0
C221 C 0.88727 0.24494 0.50537 0.0
C222 C 0.93038 0.29723 0.47623 0.0
C223 C 0.89971 0.32376 0.48356 0.0
H224 H 0.88201 0.21418 0.51355 0.0
H225 H 0.95948 0.30844 0.46536 0.0
H226 H 0.94304 0.14122 0.53407 0.0
H227 H 0.94721 0.16206 0.12536 0.0
H228 H 0.98597 0.32923 0.90411 0.0
H229 H 0.8275 0.25837 0.53733 0.0
H230 H 0.90631 0.35416 0.4699 0.0
C231 C 0.86026 0.96062 0.29353 0.0
C232 C 0.89408 0.95256 0.23097 0.0
N233 N 0.91997 0.94019 0.32273 0.0
N234 N 0.86616 0.95836 0.42488 0.0
C235 C 0.90371 0.94975 0.43936 0.0
H236 H 0.8326 0.96484 0.24524 0.0
Co237 Co 0.8312 0.96741 0.55202 0.0
C238 C 0.86311 0.90117 0.77026 0.0
O239 O 0.83059 0.88222 0.78974 0.0
N240 N 0.79544 0.9795 0.67685 0.0
C241 C 0.74794 0.98973 0.82006 0.0
C242 C 0.77228 0.96196 0.76635 0.0
C243 C 0.78448 1.01659 0.67646 0.0
N244 N 0.75525 1.02384 0.75925 0.0
O245 O 0.80323 1.00495 0.41876 0.0
H246 H 0.77321 0.93152 0.79163 0.0
H247 H 0.80085 0.03926 0.62765 0.0
O248 O 0.86318 0.93115 0.68967 0.0
C249 C 0.81455 0.03501 0.35057 0.0
O250 O 0.85086 0.04625 0.35779 0.0
N251 N 0.79947 0.9244 0.49784 0.0
C252 C 0.74695 0.86193 0.51487 0.0
C253 C 0.78741 0.8558 0.51789 0.0
C254 C 0.81307 0.88728 0.50535 0.0
C255 C 0.76079 0.93039 0.47622 0.0
C256 C 0.73426 0.89971 0.48355 0.0
H257 H 0.84383 0.88201 0.51352 0.0
H258 H 0.74958 0.95948 0.46535 0.0
H259 H 0.9168 0.94306 0.53406 0.0
H260 H 0.89597 0.94722 0.12535 0.0
H261 H 0.72879 0.98598 0.90413 0.0
H262 H 0.79965 0.82751 0.53732 0.0
H263 H 0.70386 0.90632 0.4699 0.0
C264 C 0.6429 0.71608 0.80058 0.0
C265 C 0.63563 0.68527 0.88171 0.0
N266 N 0.62243 0.65514 0.80746 0.0
N267 N 0.6334 0.70561 0.67671 0.0
C268 C 0.61814 0.67023 0.68573 0.0
H269 H 0.65275 0.74456 0.83048 0.0
Co270 Co 0.62063 0.73487 0.544 0.0
C271 C 0.65833 0.67161 0.34209 0.0
O272 O 0.62651 0.65082 0.33479 0.0
N273 N 0.60467 0.76645 0.41208 0.0
C274 C 0.59366 0.80866 0.25221 0.0
C275 C 0.62148 0.78551 0.31085 0.0
C276 C 0.56799 0.77888 0.41513 0.0
N277 N 0.56006 0.8046 0.32 0.0
O278 O 0.58265 0.76135 0.67489 0.0
H279 H 0.65133 0.78195 0.27998 0.0
H280 H 0.54564 0.76516 0.47418 0.0
O281 O 0.65808 0.70342 0.4133 0.0
C282 C 0.55726 0.77144 0.76396 0.0
O283 O 0.5495 0.80853 0.77706 0.0
N284 N 0.66158 0.77149 0.58013 0.0
C285 C 0.71814 0.83004 0.54631 0.0
C286 C 0.72777 0.79042 0.53587 0.0
C287 C 0.6994 0.76176 0.55608 0.0
C288 C 0.65238 0.80948 0.60292 0.0
C289 C 0.68011 0.83887 0.58821 0.0
H290 H 0.70772 0.73175 0.54485 0.0
H291 H 0.62277 0.81784 0.62281 0.0
H292 H 0.60769 0.65414 0.60081 0.0
H293 H 0.64368 0.68381 0.9853 0.0
H294 H 0.59662 0.82384 0.1588 0.0
H295 H 0.75648 0.78111 0.50693 0.0
H296 H 0.671 0.86842 0.60618 0.0
C297 C 0.34194 0.64291 0.80062 0.0
C298 C 0.37275 0.63563 0.88174 0.0
N299 N 0.40287 0.62243 0.80749 0.0
N300 N 0.35241 0.63341 0.67674 0.0
C301 C 0.38778 0.61815 0.68576 0.0
H302 H 0.31346 0.65276 0.83052 0.0
Co303 Co 0.32315 0.62064 0.54404 0.0
C304 C 0.3864 0.65834 0.34212 0.0
O305 O 0.4072 0.62651 0.33482 0.0
N306 N 0.29156 0.60468 0.41213 0.0
C307 C 0.24935 0.59366 0.25226 0.0
C308 C 0.27251 0.62149 0.31089 0.0
C309 C 0.27913 0.56799 0.41517 0.0
N310 N 0.25342 0.56007 0.32004 0.0
O311 O 0.29667 0.58265 0.67493 0.0
H312 H 0.27607 0.65134 0.28004 0.0
H313 H 0.29285 0.54565 0.47421 0.0
O314 O 0.3546 0.65809 0.41334 0.0
C315 C 0.28658 0.55726 0.76399 0.0
O316 O 0.24949 0.54951 0.7771 0.0
N317 N 0.28652 0.66158 0.58018 0.0
C318 C 0.22798 0.71815 0.54632 0.0
C319 C 0.2676 0.72777 0.53589 0.0
C320 C 0.29626 0.69941 0.55613 0.0
C321 C 0.24854 0.65239 0.60297 0.0
C322 C 0.21915 0.68012 0.58823 0.0
H323 H 0.32627 0.70773 0.5449 0.0
H324 H 0.24018 0.62278 0.62286 0.0
H325 H 0.40387 0.60769 0.60083 0.0
H326 H 0.37421 0.64369 0.98534 0.0
H327 H 0.23418 0.59662 0.15885 0.0
H328 H 0.27691 0.75648 0.50695 0.0
H329 H 0.1896 0.67101 0.6062 0.0
C330 C 0.41512 0.34196 0.80058 0.0
C331 C 0.42239 0.37277 0.88171 0.0
N332 N 0.43559 0.40289 0.80746 0.0
N333 N 0.42461 0.35242 0.6767 0.0
C334 C 0.43988 0.3878 0.68572 0.0
H335 H 0.40526 0.31348 0.83048 0.0
Co336 Co 0.43738 0.32316 0.54399 0.0
C337 C 0.39968 0.38641 0.34209 0.0
O338 O 0.43151 0.4072 0.33479 0.0
N339 N 0.45334 0.29157 0.41207 0.0
C340 C 0.46435 0.24936 0.2522 0.0
C341 C 0.43653 0.27251 0.31084 0.0
C342 C 0.49003 0.27913 0.4151 0.0
N343 N 0.49795 0.25342 0.31997 0.0
O344 O 0.47537 0.29668 0.67487 0.0
H345 H 0.40668 0.27607 0.27999 0.0
H346 H 0.51237 0.29285 0.47414 0.0
O347 O 0.39993 0.3546 0.41331 0.0
C348 C 0.50076 0.28659 0.76392 0.0
O349 O 0.50851 0.24949 0.77699 0.0
N350 N 0.39644 0.28653 0.58014 0.0
C351 C 0.33988 0.22799 0.54631 0.0
C352 C 0.33025 0.26761 0.53588 0.0
C353 C 0.35861 0.29627 0.5561 0.0
C354 C 0.40563 0.24855 0.60293 0.0
C355 C 0.3779 0.21916 0.58821 0.0
H356 H 0.35029 0.32628 0.54488 0.0
H357 H 0.43524 0.24019 0.62281 0.0
H358 H 0.45033 0.40388 0.60079 0.0
H359 H 0.41434 0.37423 0.98531 0.0
H360 H 0.46139 0.23418 0.15879 0.0
H361 H 0.30154 0.27692 0.50695 0.0
H362 H 0.38701 0.18961 0.60618 0.0
C363 C 0.71606 0.41512 0.80054 0.0
C364 C 0.68525 0.4224 0.88168 0.0
N365 N 0.65513 0.43559 0.80744 0.0
N366 N 0.7056 0.42462 0.67667 0.0
C367 C 0.67022 0.43988 0.68571 0.0
H368 H 0.74454 0.40527 0.83044 0.0
Co369 Co 0.73486 0.43738 0.54396 0.0
C370 C 0.6716 0.39968 0.34206 0.0
O371 O 0.65081 0.43151 0.33477 0.0
N372 N 0.76644 0.45334 0.41203 0.0
C373 C 0.80866 0.46435 0.25215 0.0
C374 C 0.7855 0.43653 0.31079 0.0
C375 C 0.77888 0.49003 0.41507 0.0
N376 N 0.80459 0.49795 0.31994 0.0
O377 O 0.76133 0.47537 0.67484 0.0
H378 H 0.78195 0.40668 0.27994 0.0
H379 H 0.76515 0.51237 0.47412 0.0
O380 O 0.70341 0.39993 0.41327 0.0
C381 C 0.77143 0.50076 0.76389 0.0
O382 O 0.80852 0.50852 0.77695 0.0
N383 N 0.77148 0.39644 0.58009 0.0
C384 C 0.83003 0.33988 0.54629 0.0
C385 C 0.79041 0.33025 0.53585 0.0
C386 C 0.76175 0.35861 0.55605 0.0
C387 C 0.80947 0.40564 0.60288 0.0
C388 C 0.83886 0.37791 0.58818 0.0
H389 H 0.73174 0.35029 0.54482 0.0
H390 H 0.81783 0.43525 0.62277 0.0
H391 H 0.65413 0.45033 0.60078 0.0
H392 H 0.68379 0.41434 0.98528 0.0
H393 H 0.82384 0.46139 0.15874 0.0
H394 H 0.7811 0.30154 0.50692 0.0
H395 H 0.8684 0.38702 0.60616 0.0
C396 C 0.5974 0.36026 0.7935 0.0
C397 C 0.60546 0.39408 0.73095 0.0
N398 N 0.61783 0.41998 0.82272 0.0
N399 N 0.59966 0.36616 0.92486 0.0
C400 C 0.60827 0.40371 0.93934 0.0
H401 H 0.59319 0.33259 0.7452 0.0
Co402 Co 0.59061 0.33121 0.05198 0.0
C403 C 0.65684 0.36311 0.27023 0.0
O404 O 0.6758 0.33059 0.2897 0.0
N405 N 0.57852 0.29544 0.1768 0.0
C406 C 0.56829 0.24794 0.31999 0.0
C407 C 0.59606 0.27228 0.26629 0.0
C408 C 0.54143 0.28448 0.1764 0.0
N409 N 0.53418 0.25525 0.25918 0.0
O410 O 0.55307 0.30323 0.91871 0.0
H411 H 0.6265 0.27321 0.29158 0.0
H412 H 0.51875 0.30084 0.1276 0.0
O413 O 0.62687 0.36318 0.18964 0.0
C414 C 0.52301 0.31456 0.85053 0.0
O415 O 0.51178 0.35087 0.85779 0.0
N416 N 0.63362 0.29947 0.99779 0.0
C417 C 0.69609 0.24695 1.01486 0.0
C418 C 0.70222 0.28742 1.01787 0.0
C419 C 0.67074 0.31308 1.00531 0.0
C420 C 0.62764 0.26079 0.97617 0.0
C421 C 0.65831 0.23426 0.98353 0.0
H422 H 0.67601 0.34384 1.01348 0.0
H423 H 0.59854 0.24958 0.96529 0.0
H424 H 0.61496 0.4168 1.03405 0.0
H425 H 0.6108 0.39597 0.62533 0.0
H426 H 0.57204 0.22879 0.40406 0.0
H427 H 0.73051 0.29966 1.03731 0.0
H428 H 0.6517 0.20386 0.96988 0.0
C429 C 0.69776 0.59741 0.7935 0.0
C430 C 0.66394 0.60548 0.73095 0.0
N431 N 0.63805 0.61784 0.82272 0.0
N432 N 0.69186 0.59967 0.92485 0.0
C433 C 0.65431 0.60828 0.93934 0.0
H434 H 0.72543 0.5932 0.7452 0.0
Co435 Co 0.72681 0.59062 0.05198 0.0
C436 C 0.6949 0.65685 0.27025 0.0
O437 O 0.72742 0.6758 0.28972 0.0
N438 N 0.76257 0.57852 0.1768 0.0
C439 C 0.81007 0.56829 0.31998 0.0
C440 C 0.78573 0.59606 0.26629 0.0
C441 C 0.77353 0.54143 0.17639 0.0
N442 N 0.80276 0.53418 0.25916 0.0
O443 O 0.75479 0.55308 0.9187 0.0
H444 H 0.7848 0.6265 0.29159 0.0
H445 H 0.75717 0.51876 0.12757 0.0
O446 O 0.69484 0.62688 0.18965 0.0
C447 C 0.74346 0.52302 0.85051 0.0
O448 O 0.70715 0.51178 0.85777 0.0
N449 N 0.75855 0.63363 0.99781 0.0
C450 C 0.81107 0.6961 1.01487 0.0
C451 C 0.7706 0.70223 1.01789 0.0
C452 C 0.74494 0.67075 1.00533 0.0
C453 C 0.79723 0.62764 0.97619 0.0
C454 C 0.82376 0.65831 0.98354 0.0
H455 H 0.71418 0.67601 1.01351 0.0
H456 H 0.80844 0.59855 0.96531 0.0
H457 H 0.64122 0.61497 1.03405 0.0
H458 H 0.66206 0.61082 0.62533 0.0
H459 H 0.82922 0.57204 0.40405 0.0
H460 H 0.75837 0.73052 1.03732 0.0
H461 H 0.85416 0.65171 0.96988 0.0
C462 C 0.46061 0.69775 0.79354 0.0
C463 C 0.45255 0.66393 0.73098 0.0
N464 N 0.44017 0.63805 0.82275 0.0
N465 N 0.45835 0.69186 0.9249 0.0
C466 C 0.44974 0.65431 0.93938 0.0
H467 H 0.46483 0.72542 0.74525 0.0
Co468 Co 0.4674 0.72681 0.05203 0.0
C469 C 0.40117 0.6949 0.27029 0.0
O470 O 0.38221 0.72742 0.28976 0.0
N471 N 0.47949 0.76257 0.17685 0.0
C472 C 0.48972 0.81008 0.32005 0.0
C473 C 0.46195 0.78573 0.26635 0.0
C474 C 0.51658 0.77353 0.17645 0.0
N475 N 0.52383 0.80276 0.25923 0.0
O476 O 0.50494 0.75479 0.91876 0.0
H477 H 0.43151 0.78481 0.29165 0.0
H478 H 0.53926 0.75717 0.12763 0.0
O479 O 0.43114 0.69484 0.18969 0.0
C480 C 0.535 0.74346 0.85055 0.0
O481 O 0.54624 0.70715 0.85778 0.0
N482 N 0.42439 0.75855 0.99786 0.0
C483 C 0.36192 0.81107 1.01488 0.0
C484 C 0.35579 0.7706 1.01791 0.0
C485 C 0.38727 0.74494 1.00538 0.0
C486 C 0.43038 0.79722 0.97623 0.0
C487 C 0.39971 0.82376 0.98356 0.0
H488 H 0.38201 0.71418 1.01355 0.0
H489 H 0.45947 0.80843 0.96536 0.0
H490 H 0.44304 0.64122 1.03408 0.0
H491 H 0.44721 0.66205 0.62537 0.0
H492 H 0.48597 0.82923 0.40412 0.0
H493 H 0.3275 0.75836 1.03734 0.0
H494 H 0.40631 0.85415 0.9699 0.0
C495 C 0.36027 0.46062 0.79354 0.0
C496 C 0.39409 0.45256 0.73098 0.0
N497 N 0.41998 0.44019 0.82274 0.0
N498 N 0.36616 0.45836 0.92489 0.0
C499 C 0.40371 0.44975 0.93937 0.0
H500 H 0.3326 0.46484 0.74525 0.0
Co501 Co 0.33121 0.46741 0.05203 0.0
C502 C 0.36311 0.40117 0.27026 0.0
O503 O 0.33059 0.38222 0.28974 0.0
N504 N 0.29544 0.4795 0.17686 0.0
C505 C 0.24794 0.48973 0.32006 0.0
C506 C 0.27228 0.46195 0.26636 0.0
C507 C 0.28448 0.51659 0.17647 0.0
N508 N 0.25526 0.52383 0.25926 0.0
O509 O 0.30323 0.50495 0.91877 0.0
H510 H 0.27321 0.43151 0.29164 0.0
H511 H 0.30085 0.53926 0.12766 0.0
O512 O 0.36318 0.43115 0.18968 0.0
C513 C 0.31455 0.53501 0.85057 0.0
O514 O 0.35086 0.54625 0.8578 0.0
N515 N 0.29947 0.4244 0.99784 0.0
C516 C 0.24695 0.36193 1.01488 0.0
C517 C 0.28742 0.3558 1.0179 0.0
C518 C 0.31308 0.38728 1.00536 0.0
C519 C 0.2608 0.43039 0.97622 0.0
C520 C 0.23426 0.39971 0.98356 0.0
H521 H 0.34384 0.38201 1.01353 0.0
H522 H 0.24959 0.45948 0.96535 0.0
H523 H 0.4168 0.44305 1.03407 0.0
H524 H 0.39597 0.44722 0.62536 0.0
H525 H 0.22879 0.48597 0.40414 0.0
H526 H 0.29965 0.32751 1.03732 0.0
H527 H 0.20387 0.40632 0.9699 0.0
loop_
_geom_bond_atom_site_label_1
_geom_bond_atom_site_label_2
_geom_bond_distance
_geom_bond_site_symmetry_2
_ccdc_geom_bond_type
C0 C1 1.351 . S
C0 N3 1.368 . S
C0 H5 0.931 . S
C1 C0 1.351 . S
C1 N2 1.373 . S
C1 H29 0.930 . S
N2 C1 1.373 . S
N2 C4 1.340 . S
N3 C0 1.368 . S
N3 C4 1.321 . S
N3 Co6 2.135 . S
C4 N2 1.340 . S
C4 N3 1.321 . S
C4 H28 0.930 . S
H5 C0 0.931 . S
Co6 N3 2.135 . S
Co6 N9 2.121 1_554 S
Co6 O14 2.055 . S
Co6 O17 2.039 1_554 S
Co6 N20 2.140 . S
C7 O8 1.227 . S
C7 O17 1.265 . S
O8 C7 1.227 . S
N9 Co6 2.121 1_556 S
N9 C11 1.375 . S
N9 C12 1.313 . S
C10 C11 1.338 . S
C10 N13 1.377 . S
C10 H30 0.930 . S
C11 N9 1.375 . S
C11 C10 1.338 . S
C11 H15 0.931 . S
C12 N9 1.313 . S
C12 N13 1.344 . S
C12 H16 0.930 1_455 S
N13 C10 1.377 . S
N13 C12 1.344 . S
O14 Co6 2.055 . S
O14 C18 1.253 . S
H15 C11 0.931 . S
H16 C12 0.930 1_655 S
O17 Co6 2.039 1_556 S
O17 C7 1.265 . S
C18 O14 1.253 . S
C18 O19 1.227 . S
O19 C18 1.227 . S
N20 Co6 2.140 . S
N20 C23 1.346 . S
N20 C24 1.345 1_554 S
C21 C22 1.386 1_556 S
C21 C25 1.392 . S
C22 C21 1.386 1_554 S
C22 C23 1.369 . S
C22 H31 0.929 . S
C23 N20 1.346 . S
C23 C22 1.369 . S
C23 H26 0.928 . S
C24 N20 1.345 1_556 S
C24 C25 1.371 . S
C24 H27 0.931 . S
C25 C21 1.392 . S
C25 C24 1.371 . S
C25 H32 0.930 . S
H26 C23 0.928 . S
H27 C24 0.931 . S
H28 C4 0.930 . S
H29 C1 0.930 . S
H30 C10 0.930 . S
H31 C22 0.929 . S
H32 C25 0.930 . S
C33 C34 1.351 . S
C33 N36 1.368 . S
C33 H38 0.931 . S
C34 C33 1.351 . S
C34 N35 1.373 . S
C34 H62 0.930 . S
N35 C34 1.373 . S
N35 C37 1.340 . S
N36 C33 1.368 . S
N36 C37 1.321 . S
N36 Co39 2.135 . S
C37 N35 1.340 . S
C37 N36 1.321 . S
C37 H61 0.930 . S
H38 C33 0.931 . S
Co39 N36 2.135 . S
Co39 N42 2.121 1_554 S
Co39 O47 2.055 . S
Co39 O50 2.039 1_554 S
Co39 N53 2.140 . S
C40 O41 1.227 . S
C40 O50 1.265 . S
O41 C40 1.227 . S
N42 Co39 2.121 1_556 S
N42 C44 1.375 . S
N42 C45 1.313 . S
C43 C44 1.338 . S
C43 N46 1.377 . S
C43 H63 0.930 . S
C44 N42 1.375 . S
C44 C43 1.338 . S
C44 H48 0.931 . S
C45 N42 1.313 . S
C45 N46 1.344 . S
C45 H49 0.930 1_545 S
N46 C43 1.377 . S
N46 C45 1.344 . S
O47 Co39 2.055 . S
O47 C51 1.253 . S
H48 C44 0.931 . S
H49 C45 0.930 1_565 S
O50 Co39 2.039 1_556 S
O50 C40 1.265 . S
C51 O47 1.253 . S
C51 O52 1.227 . S
O52 C51 1.227 . S
N53 Co39 2.140 . S
N53 C56 1.346 . S
N53 C57 1.345 1_554 S
C54 C55 1.386 1_556 S
C54 C58 1.392 . S
C55 C54 1.386 1_554 S
C55 C56 1.369 . S
C55 H64 0.929 . S
C56 N53 1.346 . S
C56 C55 1.369 . S
C56 H59 0.928 . S
C57 N53 1.345 1_556 S
C57 C58 1.371 . S
C57 H60 0.931 . S
C58 C54 1.392 . S
C58 C57 1.371 . S
C58 H65 0.930 . S
H59 C56 0.928 . S
H60 C57 0.931 . S
H61 C37 0.930 . S
H62 C34 0.930 . S
H63 C43 0.930 . S
H64 C55 0.929 . S
H65 C58 0.930 . S
C66 C67 1.351 . S
C66 N69 1.368 . S
C66 H71 0.931 . S
C67 C66 1.351 . S
C67 N68 1.373 . S
C67 H95 0.930 . S
N68 C67 1.373 . S
N68 C70 1.340 . S
N69 C66 1.368 . S
N69 C70 1.321 . S
N69 Co72 2.135 . S
C70 N68 1.340 . S
C70 N69 1.321 . S
C70 H94 0.930 . S
H71 C66 0.931 . S
Co72 N69 2.135 . S
Co72 N75 2.121 1_554 S
Co72 O80 2.055 . S
Co72 O83 2.039 1_554 S
Co72 N86 2.140 . S
C73 O74 1.227 . S
C73 O83 1.265 . S
O74 C73 1.227 . S
N75 Co72 2.121 1_556 S
N75 C77 1.375 . S
N75 C78 1.313 . S
C76 C77 1.338 . S
C76 N79 1.377 . S
C76 H96 0.930 . S
C77 N75 1.375 . S
C77 C76 1.338 . S
C77 H81 0.931 . S
C78 N75 1.313 . S
C78 N79 1.344 . S
C78 H82 0.930 1_655 S
N79 C76 1.377 . S
N79 C78 1.344 . S
O80 Co72 2.055 . S
O80 C84 1.253 . S
H81 C77 0.931 . S
H82 C78 0.930 1_455 S
O83 Co72 2.039 1_556 S
O83 C73 1.265 . S
C84 O80 1.253 . S
C84 O85 1.227 . S
O85 C84 1.227 . S
N86 Co72 2.140 . S
N86 C89 1.346 . S
N86 C90 1.345 1_554 S
C87 C88 1.386 1_556 S
C87 C91 1.392 . S
C88 C87 1.386 1_554 S
C88 C89 1.369 . S
C88 H97 0.929 . S
C89 N86 1.346 . S
C89 C88 1.369 . S
C89 H92 0.928 . S
C90 N86 1.345 1_556 S
C90 C91 1.371 . S
C90 H93 0.931 . S
C91 C87 1.392 . S
C91 C90 1.371 . S
C91 H98 0.930 . S
H92 C89 0.928 . S
H93 C90 0.931 . S
H94 C70 0.930 . S
H95 C67 0.930 . S
H96 C76 0.930 . S
H97 C88 0.929 . S
H98 C91 0.930 . S
C99 C100 1.351 . S
C99 N102 1.368 . S
C99 H104 0.931 . S
C100 C99 1.351 . S
C100 N101 1.373 . S
C100 H128 0.930 . S
N101 C100 1.373 . S
N101 C103 1.340 . S
N102 C99 1.368 . S
N102 C103 1.321 . S
N102 Co105 2.135 . S
C103 N101 1.340 . S
C103 N102 1.321 . S
C103 H127 0.930 . S
H104 C99 0.931 . S
Co105 N102 2.135 . S
Co105 N108 2.121 1_554 S
Co105 O113 2.055 . S
Co105 O116 2.039 1_554 S
Co105 N119 2.140 . S
C106 O107 1.227 . S
C106 O116 1.265 . S
O107 C106 1.227 . S
N108 Co105 2.121 1_556 S
N108 C110 1.375 . S
N108 C111 1.313 . S
C109 C110 1.338 . S
C109 N112 1.377 . S
C109 H129 0.930 . S
C110 N108 1.375 . S
C110 C109 1.338 . S
C110 H114 0.931 . S
C111 N108 1.313 . S
C111 N112 1.344 . S
C111 H115 0.930 1_565 S
N112 C109 1.377 . S
N112 C111 1.344 . S
O113 Co105 2.055 . S
O113 C117 1.253 . S
H114 C110 0.931 . S
H115 C111 0.930 1_545 S
O116 Co105 2.039 1_556 S
O116 C106 1.265 . S
C117 O113 1.253 . S
C117 O118 1.227 . S
O118 C117 1.227 . S
N119 Co105 2.140 . S
N119 C122 1.346 . S
N119 C123 1.345 1_554 S
C120 C121 1.386 1_556 S
C120 C124 1.392 . S
C121 C120 1.386 1_554 S
C121 C122 1.369 . S
C121 H130 0.929 . S
C122 N119 1.346 . S
C122 C121 1.369 . S
C122 H125 0.928 . S
C123 N119 1.345 1_556 S
C123 C124 1.371 . S
C123 H126 0.931 . S
C124 C120 1.392 . S
C124 C123 1.371 . S
C124 H131 0.930 . S
H125 C122 0.928 . S
H126 C123 0.931 . S
H127 C103 0.930 . S
H128 C100 0.930 . S
H129 C109 0.930 . S
H130 C121 0.929 . S
H131 C124 0.930 . S
C132 C133 1.351 . S
C132 N135 1.368 . S
C132 H137 0.931 . S
C133 C132 1.351 . S
C133 N134 1.373 . S
C133 H161 0.930 . S
N134 C133 1.373 . S
N134 C136 1.340 . S
N135 C132 1.368 . S
N135 C136 1.321 . S
N135 Co138 2.135 . S
C136 N134 1.340 . S
C136 N135 1.321 . S
C136 H160 0.930 . S
H137 C132 0.931 . S
Co138 N135 2.135 . S
Co138 N141 2.121 . S
Co138 O146 2.055 . S
Co138 O149 2.039 . S
Co138 N152 2.140 . S
C139 O140 1.227 . S
C139 O149 1.265 . S
O140 C139 1.227 . S
N141 Co138 2.121 . S
N141 C143 1.375 . S
N141 C144 1.313 . S
C142 C143 1.338 . S
C142 N145 1.377 . S
C142 H162 0.930 . S
C143 N141 1.375 . S
C143 C142 1.338 . S
C143 H147 0.931 . S
C144 N141 1.313 . S
C144 N145 1.344 . S
C144 H148 0.930 1_455 S
N145 C142 1.377 . S
N145 C144 1.344 . S
O146 Co138 2.055 . S
O146 C150 1.253 . S
H147 C143 0.931 . S
H148 C144 0.930 1_655 S
O149 Co138 2.039 . S
O149 C139 1.265 . S
C150 O146 1.253 . S
C150 O151 1.227 . S
O151 C150 1.227 . S
N152 Co138 2.140 . S
N152 C155 1.346 . S
N152 C156 1.345 . S
C153 C154 1.387 . S
C153 C157 1.391 . S
C154 C153 1.387 . S
C154 C155 1.369 . S
C154 H163 0.929 . S
C155 N152 1.346 . S
C155 C154 1.369 . S
C155 H158 0.928 . S
C156 N152 1.345 . S
C156 C157 1.371 . S
C156 H159 0.931 . S
C157 C153 1.391 . S
C157 C156 1.371 . S
C157 H164 0.930 . S
H158 C155 0.928 . S
H159 C156 0.931 . S
H160 C136 0.930 . S
H161 C133 0.930 . S
H162 C142 0.930 . S
H163 C154 0.929 . S
H164 C157 0.930 . S
C165 C166 1.351 . S
C165 N168 1.368 . S
C165 H170 0.931 . S
C166 C165 1.351 . S
C166 N167 1.373 . S
C166 H194 0.930 . S
N167 C166 1.373 . S
N167 C169 1.340 . S
N168 C165 1.368 . S
N168 C169 1.321 . S
N168 Co171 2.135 . S
C169 N167 1.340 . S
C169 N168 1.321 . S
C169 H193 0.930 . S
H170 C165 0.931 . S
Co171 N168 2.135 . S
Co171 N174 2.121 . S
Co171 O179 2.055 . S
Co171 O182 2.039 . S
Co171 N185 2.140 . S
C172 O173 1.227 . S
C172 O182 1.265 . S
O173 C172 1.227 . S
N174 Co171 2.121 . S
N174 C176 1.375 . S
N174 C177 1.313 . S
C175 C176 1.338 . S
C175 N178 1.377 . S
C175 H195 0.930 . S
C176 N174 1.375 . S
C176 C175 1.338 . S
C176 H180 0.931 . S
C177 N174 1.313 . S
C177 N178 1.344 . S
C177 H181 0.930 1_545 S
N178 C175 1.377 . S
N178 C177 1.344 . S
O179 Co171 2.055 . S
O179 C183 1.253 . S
H180 C176 0.931 . S
H181 C177 0.930 1_565 S
O182 Co171 2.039 . S
O182 C172 1.265 . S
C183 O179 1.253 . S
C183 O184 1.227 . S
O184 C183 1.227 . S
N185 Co171 2.140 . S
N185 C188 1.346 . S
N185 C189 1.345 . S
C186 C187 1.387 . S
C186 C190 1.391 . S
C187 C186 1.387 . S
C187 C188 1.369 . S
C187 H196 0.929 . S
C188 N185 1.346 . S
C188 C187 1.369 . S
C188 H191 0.928 . S
C189 N185 1.345 . S
C189 C190 1.371 . S
C189 H192 0.931 . S
C190 C186 1.391 . S
C190 C189 1.371 . S
C190 H197 0.930 . S
H191 C188 0.928 . S
H192 C189 0.931 . S
H193 C169 0.930 . S
H194 C166 0.930 . S
H195 C175 0.930 . S
H196 C187 0.929 . S
H197 C190 0.930 . S
C198 C199 1.351 . S
C198 N201 1.368 . S
C198 H203 0.931 . S
C199 C198 1.351 . S
C199 N200 1.373 . S
C199 H227 0.930 . S
N200 C199 1.373 . S
N200 C202 1.340 . S
N201 C198 1.368 . S
N201 C202 1.321 . S
N201 Co204 2.135 . S
C202 N200 1.340 . S
C202 N201 1.321 . S
C202 H226 0.930 . S
H203 C198 0.931 . S
Co204 N201 2.135 . S
Co204 N207 2.121 . S
Co204 O212 2.055 . S
Co204 O215 2.039 . S
Co204 N218 2.140 . S
C205 O206 1.227 . S
C205 O215 1.265 . S
O206 C205 1.227 . S
N207 Co204 2.121 . S
N207 C209 1.375 . S
N207 C210 1.313 . S
C208 C209 1.338 . S
C208 N211 1.377 . S
C208 H228 0.930 . S
C209 N207 1.375 . S
C209 C208 1.338 . S
C209 H213 0.931 . S
C210 N207 1.313 . S
C210 N211 1.344 . S
C210 H214 0.930 1_655 S
N211 C208 1.377 . S
N211 C210 1.344 . S
O212 Co204 2.055 . S
O212 C216 1.253 . S
H213 C209 0.931 . S
H214 C210 0.930 1_455 S
O215 Co204 2.039 . S
O215 C205 1.265 . S
C216 O212 1.253 . S
C216 O217 1.227 . S
O217 C216 1.227 . S
N218 Co204 2.140 . S
N218 C221 1.346 . S
N218 C222 1.345 . S
C219 C220 1.387 . S
C219 C223 1.391 . S
C220 C219 1.387 . S
C220 C221 1.369 . S
C220 H229 0.929 . S
C221 N218 1.346 . S
C221 C220 1.369 . S
C221 H224 0.928 . S
C222 N218 1.345 . S
C222 C223 1.371 . S
C222 H225 0.931 . S
C223 C219 1.391 . S
C223 C222 1.371 . S
C223 H230 0.930 . S
H224 C221 0.928 . S
H225 C222 0.931 . S
H226 C202 0.930 . S
H227 C199 0.930 . S
H228 C208 0.930 . S
H229 C220 0.929 . S
H230 C223 0.930 . S
C231 C232 1.351 . S
C231 N234 1.368 . S
C231 H236 0.931 . S
C232 C231 1.351 . S
C232 N233 1.373 . S
C232 H260 0.930 . S
N233 C232 1.373 . S
N233 C235 1.340 . S
N234 C231 1.368 . S
N234 C235 1.321 . S
N234 Co237 2.135 . S
C235 N233 1.340 . S
C235 N234 1.321 . S
C235 H259 0.930 . S
H236 C231 0.931 . S
Co237 N234 2.135 . S
Co237 N240 2.121 . S
Co237 O245 2.055 . S
Co237 O248 2.039 . S
Co237 N251 2.140 . S
C238 O239 1.227 . S
C238 O248 1.265 . S
O239 C238 1.227 . S
N240 Co237 2.121 . S
N240 C242 1.375 . S
N240 C243 1.313 . S
C241 C242 1.338 . S
C241 N244 1.377 . S
C241 H261 0.930 . S
C242 N240 1.375 . S
C242 C241 1.338 . S
C242 H246 0.931 . S
C243 N240 1.313 . S
C243 N244 1.344 . S
C243 H247 0.930 1_565 S
N244 C241 1.377 . S
N244 C243 1.344 . S
O245 Co237 2.055 . S
O245 C249 1.253 . S
H246 C242 0.931 . S
H247 C243 0.930 1_545 S
O248 Co237 2.039 . S
O248 C238 1.265 . S
C249 O245 1.253 . S
C249 O250 1.227 . S
O250 C249 1.227 . S
N251 Co237 2.140 . S
N251 C254 1.346 . S
N251 C255 1.345 . S
C252 C253 1.387 . S
C252 C256 1.391 . S
C253 C252 1.387 . S
C253 C254 1.369 . S
C253 H262 0.929 . S
C254 N251 1.346 . S
C254 C253 1.369 . S
C254 H257 0.928 . S
C255 N251 1.345 . S
C255 C256 1.371 . S
C255 H258 0.931 . S
C256 C252 1.391 . S
C256 C255 1.371 . S
C256 H263 0.930 . S
H257 C254 0.928 . S
H258 C255 0.931 . S
H259 C235 0.930 . S
H260 C232 0.930 . S
H261 C241 0.930 . S
H262 C253 0.929 . S
H263 C256 0.930 . S
C264 C265 1.351 . S
C264 N267 1.368 . S
C264 H269 0.931 . S
C265 C264 1.351 . S
C265 N266 1.373 . S
C265 H293 0.930 . S
N266 C265 1.373 . S
N266 C268 1.340 . S
N267 C264 1.368 . S
N267 C268 1.321 . S
N267 Co270 2.135 . S
C268 N266 1.340 . S
C268 N267 1.321 . S
C268 H292 0.930 . S
H269 C264 0.931 . S
Co270 N267 2.135 . S
Co270 N273 2.121 . S
Co270 O278 2.055 . S
Co270 O281 2.039 . S
Co270 N284 2.140 . S
C271 O272 1.227 . S
C271 O281 1.265 . S
O272 C271 1.227 . S
N273 Co270 2.121 . S
N273 C275 1.375 . S
N273 C276 1.313 . S
C274 C275 1.338 . S
C274 N277 1.377 . S
C274 H294 0.930 . S
C275 N273 1.375 . S
C275 C274 1.338 . S
C275 H279 0.931 . S
C276 N273 1.313 . S
C276 N277 1.344 . S
C276 H280 0.930 . S
N277 C274 1.377 . S
N277 C276 1.344 . S
O278 Co270 2.055 . S
O278 C282 1.253 . S
H279 C275 0.931 . S
H280 C276 0.930 . S
O281 Co270 2.039 . S
O281 C271 1.265 . S
C282 O278 1.253 . S
C282 O283 1.227 . S
O283 C282 1.227 . S
N284 Co270 2.140 . S
N284 C287 1.346 . S
N284 C288 1.345 . S
C285 C286 1.387 . S
C285 C289 1.391 . S
C286 C285 1.387 . S
C286 C287 1.369 . S
C286 H295 0.929 . S
C287 N284 1.346 . S
C287 C286 1.369 . S
C287 H290 0.928 . S
C288 N284 1.345 . S
C288 C289 1.371 . S
C288 H291 0.931 . S
C289 C285 1.391 . S
C289 C288 1.371 . S
C289 H296 0.930 . S
H290 C287 0.928 . S
H291 C288 0.931 . S
H292 C268 0.930 . S
H293 C265 0.930 . S
H294 C274 0.930 . S
H295 C286 0.929 . S
H296 C289 0.930 . S
C297 C298 1.351 . S
C297 N300 1.368 . S
C297 H302 0.931 . S
C298 C297 1.351 . S
C298 N299 1.373 . S
C298 H326 0.930 . S
N299 C298 1.373 . S
N299 C301 1.340 . S
N300 C297 1.368 . S
N300 C301 1.321 . S
N300 Co303 2.135 . S
C301 N299 1.340 . S
C301 N300 1.321 . S
C301 H325 0.930 . S
H302 C297 0.931 . S
Co303 N300 2.135 . S
Co303 N306 2.121 . S
Co303 O311 2.055 . S
Co303 O314 2.039 . S
Co303 N317 2.140 . S
C304 O305 1.227 . S
C304 O314 1.265 . S
O305 C304 1.227 . S
N306 Co303 2.121 . S
N306 C308 1.375 . S
N306 C309 1.313 . S
C307 C308 1.338 . S
C307 N310 1.377 . S
C307 H327 0.930 . S
C308 N306 1.375 . S
C308 C307 1.338 . S
C308 H312 0.931 . S
C309 N306 1.313 . S
C309 N310 1.344 . S
C309 H313 0.930 . S
N310 C307 1.377 . S
N310 C309 1.344 . S
O311 Co303 2.055 . S
O311 C315 1.253 . S
H312 C308 0.931 . S
H313 C309 0.930 . S
O314 Co303 2.039 . S
O314 C304 1.265 . S
C315 O311 1.253 . S
C315 O316 1.227 . S
O316 C315 1.227 . S
N317 Co303 2.140 . S
N317 C320 1.346 . S
N317 C321 1.345 . S
C318 C319 1.387 . S
C318 C322 1.391 . S
C319 C318 1.387 . S
C319 C320 1.369 . S
C319 H328 0.929 . S
C320 N317 1.346 . S
C320 C319 1.369 . S
C320 H323 0.928 . S
C321 N317 1.345 . S
C321 C322 1.371 . S
C321 H324 0.931 . S
C322 C318 1.391 . S
C322 C321 1.371 . S
C322 H329 0.930 . S
H323 C320 0.928 . S
H324 C321 0.931 . S
H325 C301 0.930 . S
H326 C298 0.930 . S
H327 C307 0.930 . S
H328 C319 0.929 . S
H329 C322 0.930 . S
C330 C331 1.351 . S
C330 N333 1.368 . S
C330 H335 0.931 . S
C331 C330 1.351 . S
C331 N332 1.373 . S
C331 H359 0.930 . S
N332 C331 1.373 . S
N332 C334 1.340 . S
N333 C330 1.368 . S
N333 C334 1.321 . S
N333 Co336 2.135 . S
C334 N332 1.340 . S
C334 N333 1.321 . S
C334 H358 0.930 . S
H335 C330 0.931 . S
Co336 N333 2.135 . S
Co336 N339 2.121 . S
Co336 O344 2.055 . S
Co336 O347 2.039 . S
Co336 N350 2.140 . S
C337 O338 1.227 . S
C337 O347 1.265 . S
O338 C337 1.227 . S
N339 Co336 2.121 . S
N339 C341 1.375 . S
N339 C342 1.313 . S
C340 C341 1.338 . S
C340 N343 1.377 . S
C340 H360 0.930 . S
C341 N339 1.375 . S
C341 C340 1.338 . S
C341 H345 0.931 . S
C342 N339 1.313 . S
C342 N343 1.344 . S
C342 H346 0.930 . S
N343 C340 1.377 . S
N343 C342 1.344 . S
O344 Co336 2.055 . S
O344 C348 1.253 . S
H345 C341 0.931 . S
H346 C342 0.930 . S
O347 Co336 2.039 . S
O347 C337 1.265 . S
C348 O344 1.253 . S
C348 O349 1.227 . S
O349 C348 1.227 . S
N350 Co336 2.140 . S
N350 C353 1.346 . S
N350 C354 1.345 . S
C351 C352 1.387 . S
C351 C355 1.391 . S
C352 C351 1.387 . S
C352 C353 1.369 . S
C352 H361 0.929 . S
C353 N350 1.346 . S
C353 C352 1.369 . S
C353 H356 0.928 . S
C354 N350 1.345 . S
C354 C355 1.371 . S
C354 H357 0.931 . S
C355 C351 1.391 . S
C355 C354 1.371 . S
C355 H362 0.930 . S
H356 C353 0.928 . S
H357 C354 0.931 . S
H358 C334 0.930 . S
H359 C331 0.930 . S
H360 C340 0.930 . S
H361 C352 0.929 . S
H362 C355 0.930 . S
C363 C364 1.351 . S
C363 N366 1.368 . S
C363 H368 0.931 . S
C364 C363 1.351 . S
C364 N365 1.373 . S
C364 H392 0.930 . S
N365 C364 1.373 . S
N365 C367 1.340 . S
N366 C363 1.368 . S
N366 C367 1.321 . S
N366 Co369 2.135 . S
C367 N365 1.340 . S
C367 N366 1.321 . S
C367 H391 0.930 . S
H368 C363 0.931 . S
Co369 N366 2.135 . S
Co369 N372 2.121 . S
Co369 O377 2.055 . S
Co369 O380 2.039 . S
Co369 N383 2.140 . S
C370 O371 1.227 . S
C370 O380 1.265 . S
O371 C370 1.227 . S
N372 Co369 2.121 . S
N372 C374 1.375 . S
N372 C375 1.313 . S
C373 C374 1.338 . S
C373 N376 1.377 . S
C373 H393 0.930 . S
C374 N372 1.375 . S
C374 C373 1.338 . S
C374 H378 0.931 . S
C375 N372 1.313 . S
C375 N376 1.344 . S
C375 H379 0.930 . S
N376 C373 1.377 . S
N376 C375 1.344 . S
O377 Co369 2.055 . S
O377 C381 1.253 . S
H378 C374 0.931 . S
H379 C375 0.930 . S
O380 Co369 2.039 . S
O380 C370 1.265 . S
C381 O377 1.253 . S
C381 O382 1.227 . S
O382 C381 1.227 . S
N383 Co369 2.140 . S
N383 C386 1.346 . S
N383 C387 1.345 . S
C384 C385 1.387 . S
C384 C388 1.391 . S
C385 C384 1.387 . S
C385 C386 1.369 . S
C385 H394 0.929 . S
C386 N383 1.346 . S
C386 C385 1.369 . S
C386 H389 0.928 . S
C387 N383 1.345 . S
C387 C388 1.371 . S
C387 H390 0.931 . S
C388 C384 1.391 . S
C388 C387 1.371 . S
C388 H395 0.930 . S
H389 C386 0.928 . S
H390 C387 0.931 . S
H391 C367 0.930 . S
H392 C364 0.930 . S
H393 C373 0.930 . S
H394 C385 0.929 . S
H395 C388 0.930 . S
C396 C397 1.351 . S
C396 N399 1.368 . S
C396 H401 0.931 . S
C397 C396 1.351 . S
C397 N398 1.373 . S
C397 H425 0.930 . S
N398 C397 1.373 . S
N398 C400 1.340 . S
N399 C396 1.368 . S
N399 C400 1.321 . S
N399 Co402 2.135 . S
C400 N398 1.340 . S
C400 N399 1.321 . S
C400 H424 0.930 . S
H401 C396 0.931 . S
Co402 N399 2.135 . S
Co402 N405 2.121 1_556 S
Co402 O410 2.055 . S
Co402 O413 2.039 1_556 S
Co402 N416 2.140 . S
C403 O404 1.227 . S
C403 O413 1.265 . S
O404 C403 1.227 . S
N405 Co402 2.121 1_554 S
N405 C407 1.375 . S
N405 C408 1.313 . S
C406 C407 1.338 . S
C406 N409 1.377 . S
C406 H426 0.930 . S
C407 N405 1.375 . S
C407 C406 1.338 . S
C407 H411 0.931 . S
C408 N405 1.313 . S
C408 N409 1.344 . S
C408 H412 0.930 . S
N409 C406 1.377 . S
N409 C408 1.344 . S
O410 Co402 2.055 . S
O410 C414 1.253 . S
H411 C407 0.931 . S
H412 C408 0.930 . S
O413 Co402 2.039 1_554 S
O413 C403 1.265 . S
C414 O410 1.253 . S
C414 O415 1.227 . S
O415 C414 1.227 . S
N416 Co402 2.140 . S
N416 C419 1.346 . S
N416 C420 1.345 1_556 S
C417 C418 1.387 1_554 S
C417 C421 1.391 . S
C418 C417 1.387 1_556 S
C418 C419 1.369 . S
C418 H427 0.929 . S
C419 N416 1.346 . S
C419 C418 1.369 . S
C419 H422 0.928 . S
C420 N416 1.345 1_554 S
C420 C421 1.371 . S
C420 H423 0.931 . S
C421 C417 1.391 . S
C421 C420 1.371 . S
C421 H428 0.930 . S
H422 C419 0.928 . S
H423 C420 0.931 . S
H424 C400 0.930 . S
H425 C397 0.930 . S
H426 C406 0.930 . S
H427 C418 0.929 . S
H428 C421 0.930 . S
C429 C430 1.351 . S
C429 N432 1.368 . S
C429 H434 0.931 . S
C430 C429 1.351 . S
C430 N431 1.373 . S
C430 H458 0.930 . S
N431 C430 1.373 . S
N431 C433 1.340 . S
N432 C429 1.368 . S
N432 C433 1.321 . S
N432 Co435 2.135 . S
C433 N431 1.340 . S
C433 N432 1.321 . S
C433 H457 0.930 . S
H434 C429 0.931 . S
Co435 N432 2.135 . S
Co435 N438 2.121 1_556 S
Co435 O443 2.055 . S
Co435 O446 2.039 1_556 S
Co435 N449 2.140 . S
C436 O437 1.227 . S
C436 O446 1.265 . S
O437 C436 1.227 . S
N438 Co435 2.121 1_554 S
N438 C440 1.375 . S
N438 C441 1.313 . S
C439 C440 1.338 . S
C439 N442 1.377 . S
C439 H459 0.930 . S
C440 N438 1.375 . S
C440 C439 1.338 . S
C440 H444 0.931 . S
C441 N438 1.313 . S
C441 N442 1.344 . S
C441 H445 0.930 . S
N442 C439 1.377 . S
N442 C441 1.344 . S
O443 Co435 2.055 . S
O443 C447 1.253 . S
H444 C440 0.931 . S
H445 C441 0.930 . S
O446 Co435 2.039 1_554 S
O446 C436 1.265 . S
C447 O443 1.253 . S
C447 O448 1.227 . S
O448 C447 1.227 . S
N449 Co435 2.140 . S
N449 C452 1.346 . S
N449 C453 1.345 1_556 S
C450 C451 1.387 1_554 S
C450 C454 1.391 . S
C451 C450 1.387 1_556 S
C451 C452 1.369 . S
C451 H460 0.929 . S
C452 N449 1.346 . S
C452 C451 1.369 . S
C452 H455 0.928 . S
C453 N449 1.345 1_554 S
C453 C454 1.371 . S
C453 H456 0.931 . S
C454 C450 1.391 . S
C454 C453 1.371 . S
C454 H461 0.930 . S
H455 C452 0.928 . S
H456 C453 0.931 . S
H457 C433 0.930 . S
H458 C430 0.930 . S
H459 C439 0.930 . S
H460 C451 0.929 . S
H461 C454 0.930 . S
C462 C463 1.351 . S
C462 N465 1.368 . S
C462 H467 0.931 . S
C463 C462 1.351 . S
C463 N464 1.373 . S
C463 H491 0.930 . S
N464 C463 1.373 . S
N464 C466 1.340 . S
N465 C462 1.368 . S
N465 C466 1.321 . S
N465 Co468 2.135 . S
C466 N464 1.340 . S
C466 N465 1.321 . S
C466 H490 0.930 . S
H467 C462 0.931 . S
Co468 N465 2.135 . S
Co468 N471 2.121 1_556 S
Co468 O476 2.055 . S
Co468 O479 2.039 1_556 S
Co468 N482 2.140 . S
C469 O470 1.227 . S
C469 O479 1.265 . S
O470 C469 1.227 . S
N471 Co468 2.121 1_554 S
N471 C473 1.375 . S
N471 C474 1.313 . S
C472 C473 1.338 . S
C472 N475 1.377 . S
C472 H492 0.930 . S
C473 N471 1.375 . S
C473 C472 1.338 . S
C473 H477 0.931 . S
C474 N471 1.313 . S
C474 N475 1.344 . S
C474 H478 0.930 . S
N475 C472 1.377 . S
N475 C474 1.344 . S
O476 Co468 2.055 . S
O476 C480 1.253 . S
H477 C473 0.931 . S
H478 C474 0.930 . S
O479 Co468 2.039 1_554 S
O479 C469 1.265 . S
C480 O476 1.253 . S
C480 O481 1.227 . S
O481 C480 1.227 . S
N482 Co468 2.140 . S
N482 C485 1.346 . S
N482 C486 1.345 1_556 S
C483 C484 1.387 1_554 S
C483 C487 1.391 . S
C484 C483 1.387 1_556 S
C484 C485 1.369 . S
C484 H493 0.929 . S
C485 N482 1.346 . S
C485 C484 1.369 . S
C485 H488 0.928 . S
C486 N482 1.345 1_554 S
C486 C487 1.371 . S
C486 H489 0.931 . S
C487 C483 1.391 . S
C487 C486 1.371 . S
C487 H494 0.930 . S
H488 C485 0.928 . S
H489 C486 0.931 . S
H490 C466 0.930 . S
H491 C463 0.930 . S
H492 C472 0.930 . S
H493 C484 0.929 . S
H494 C487 0.930 . S
C495 C496 1.351 . S
C495 N498 1.368 . S
C495 H500 0.931 . S
C496 C495 1.351 . S
C496 N497 1.373 . S
C496 H524 0.930 . S
N497 C496 1.373 . S
N497 C499 1.340 . S
N498 C495 1.368 . S
N498 C499 1.321 . S
N498 Co501 2.135 . S
C499 N497 1.340 . S
C499 N498 1.321 . S
C499 H523 0.930 . S
H500 C495 0.931 . S
Co501 N498 2.135 . S
Co501 N504 2.121 1_556 S
Co501 O509 2.055 . S
Co501 O512 2.039 1_556 S
Co501 N515 2.140 . S
C502 O503 1.227 . S
C502 O512 1.265 . S
O503 C502 1.227 . S
N504 Co501 2.121 1_554 S
N504 C506 1.375 . S
N504 C507 1.313 . S
C505 C506 1.338 . S
C505 N508 1.377 . S
C505 H525 0.930 . S
C506 N504 1.375 . S
C506 C505 1.338 . S
C506 H510 0.931 . S
C507 N504 1.313 . S
C507 N508 1.344 . S
C507 H511 0.930 . S
N508 C505 1.377 . S
N508 C507 1.344 . S
O509 Co501 2.055 . S
O509 C513 1.253 . S
H510 C506 0.931 . S
H511 C507 0.930 . S
O512 Co501 2.039 1_554 S
O512 C502 1.265 . S
C513 O509 1.253 . S
C513 O514 1.227 . S
O514 C513 1.227 . S
N515 Co501 2.140 . S
N515 C518 1.346 . S
N515 C519 1.345 1_556 S
C516 C517 1.387 1_554 S
C516 C520 1.391 . S
C517 C516 1.387 1_556 S
C517 C518 1.369 . S
C517 H526 0.929 . S
C518 N515 1.346 . S
C518 C517 1.369 . S
C518 H521 0.928 . S
C519 N515 1.345 1_554 S
C519 C520 1.371 . S
C519 H522 0.931 . S
C520 C516 1.391 . S
C520 C519 1.371 . S
C520 H527 0.930 . S
H521 C518 0.928 . S
H522 C519 0.931 . S
H523 C499 0.930 . S
H524 C496 0.930 . S
H525 C505 0.930 . S
H526 C517 0.929 . S
H527 C520 0.930 . S
C21 C516 1.300 1_556 S
C417 C54 1.300 1_554 S
C450 C87 1.300 1_554 S
C483 C120 1.300 1_554 S
C153 C318 1.300 . S
C351 C186 1.300 . S
C384 C219 1.300 . S
C252 C285 1.300 . S
C216 C18 2.742 1_655 S
C249 C51 2.742 1_565 S
C150 C84 2.742 1_455 S
C183 C117 2.742 1_545 S
N145 N79 0.695 1_455 S
N112 N178 0.695 1_565 S
N211 N13 0.695 1_655 S
N46 N244 0.695 1_545 S
C282 C480 2.742 . S
C513 C315 2.742 . S
C414 C348 2.742 . S
C447 C381 2.742 . S
N409 N343 0.695 . S
N442 N376 0.695 . S
N277 N475 0.695 . S
N310 N508 0.695 . S
N167 N2 0.901 . S
N35 N200 0.901 . S
N233 N68 0.901 . S
N101 N134 0.901 . S
C73 C238 3.044 . S
C139 C106 3.044 . S
C172 C7 3.044 . S
C40 C205 3.044 . S
N431 N266 0.901 . S
N299 N464 0.901 . S
N497 N332 0.901 . S
N365 N398 0.901 . S
C502 C337 3.044 . S
C370 C403 3.044 . S
C436 C271 3.044 . S
C304 C469 3.044 . S
