# Generated by pormake.
# Topology wkj, (6)-cn, num edge types: 1
# Building blocks:
#     Node 0, Type 0, BuildingBlock: PAMTOO_clean_sbu_0, # of connection points: 6
#     Node 1, Type 0, BuildingBlock: PAMTOO_clean_sbu_0, # of connection points: 6
#     Node 2, Type 0, BuildingBlock: PAMTOO_clean_sbu_0, # of connection points: 6
#     Node 3, Type 0, BuildingBlock: PAMTOO_clean_sbu_0, # of connection points: 6
#     Node 4, Type 0, BuildingBlock: PAMTOO_clean_sbu_0, # of connection points: 6
#     Node 5, Type 0, BuildingBlock: PAMTOO_clean_sbu_0, # of connection points: 6
#     Node 6, Type 0, BuildingBlock: PAMTOO_clean_sbu_0, # of connection points: 6
#     Node 7, Type 0, BuildingBlock: PAMTOO_clean_sbu_0, # of connection points: 6
#     Node 8, Type 0, BuildingBlock: PAMTOO_clean_sbu_0, # of connection points: 6
#     Node 9, Type 0, BuildingBlock: PAMTOO_clean_sbu_0, # of connection points: 6
#     Node 10, Type 0, BuildingBlock: PAMTOO_clean_sbu_0, # of connection points: 6
#     Node 11, Type 0, BuildingBlock: PAMTOO_clean_sbu_0, # of connection points: 6
#     Edge 12, Type (0, 0), BuildingBlock: XIVTED_clean_linker_0, # of connection points: 2
#     Edge 13, Type (0, 0), BuildingBlock: XIVTED_clean_linker_0, # of connection points: 2
#     Edge 14, Type (0, 0), BuildingBlock: XIVTED_clean_linker_0, # of connection points: 2
#     Edge 15, Type (0, 0), BuildingBlock: XIVTED_clean_linker_0, # of connection points: 2
#     Edge 16, Type (0, 0), BuildingBlock: XIVTED_clean_linker_0, # of connection points: 2
#     Edge 17, Type (0, 0), BuildingBlock: XIVTED_clean_linker_0, # of connection points: 2
#     Edge 18, Type (0, 0), BuildingBlock: XIVTED_clean_linker_0, # of connection points: 2
#     Edge 19, Type (0, 0), BuildingBlock: XIVTED_clean_linker_0, # of connection points: 2
#     Edge 20, Type (0, 0), BuildingBlock: XIVTED_clean_linker_0, # of connection points: 2
#     Edge 21, Type (0, 0), BuildingBlock: XIVTED_clean_linker_0, # of connection points: 2
#     Edge 22, Type (0, 0), BuildingBlock: XIVTED_clean_linker_0, # of connection points: 2
#     Edge 23, Type (0, 0), BuildingBlock: XIVTED_clean_linker_0, # of connection points: 2
#     Edge 24, Type (0, 0), BuildingBlock: XIVTED_clean_linker_0, # of connection points: 2
#     Edge 25, Type (0, 0), BuildingBlock: XIVTED_clean_linker_0, # of connection points: 2
#     Edge 26, Type (0, 0), BuildingBlock: XIVTED_clean_linker_0, # of connection points: 2
#     Edge 27, Type (0, 0), BuildingBlock: XIVTED_clean_linker_0, # of connection points: 2
#     Edge 28, Type (0, 0), BuildingBlock: XIVTED_clean_linker_0, # of connection points: 2
#     Edge 29, Type (0, 0), BuildingBlock: XIVTED_clean_linker_0, # of connection points: 2
#     Edge 30, Type (0, 0), BuildingBlock: XIVTED_clean_linker_0, # of connection points: 2
#     Edge 31, Type (0, 0), BuildingBlock: XIVTED_clean_linker_0, # of connection points: 2
#     Edge 32, Type (0, 0), BuildingBlock: XIVTED_clean_linker_0, # of connection points: 2
#     Edge 33, Type (0, 0), BuildingBlock: XIVTED_clean_linker_0, # of connection points: 2
#     Edge 34, Type (0, 0), BuildingBlock: XIVTED_clean_linker_0, # of connection points: 2
#     Edge 35, Type (0, 0), BuildingBlock: XIVTED_clean_linker_0, # of connection points: 2
#     Edge 36, Type (0, 0), BuildingBlock: XIVTED_clean_linker_0, # of connection points: 2
#     Edge 37, Type (0, 0), BuildingBlock: XIVTED_clean_linker_0, # of connection points: 2
#     Edge 38, Type (0, 0), BuildingBlock: XIVTED_clean_linker_0, # of connection points: 2
#     Edge 39, Type (0, 0), BuildingBlock: XIVTED_clean_linker_0, # of connection points: 2
#     Edge 40, Type (0, 0), BuildingBlock: XIVTED_clean_linker_0, # of connection points: 2
#     Edge 41, Type (0, 0), BuildingBlock: XIVTED_clean_linker_0, # of connection points: 2
#     Edge 42, Type (0, 0), BuildingBlock: XIVTED_clean_linker_0, # of connection points: 2
#     Edge 43, Type (0, 0), BuildingBlock: XIVTED_clean_linker_0, # of connection points: 2
#     Edge 44, Type (0, 0), BuildingBlock: XIVTED_clean_linker_0, # of connection points: 2
#     Edge 45, Type (0, 0), BuildingBlock: XIVTED_clean_linker_0, # of connection points: 2
#     Edge 46, Type (0, 0), BuildingBlock: XIVTED_clean_linker_0, # of connection points: 2
#     Edge 47, Type (0, 0), BuildingBlock: XIVTED_clean_linker_0, # of connection points: 2
# Relax obj value: 0.816
# Max RMSD: 0.190
# Mean RMSD: 0.190
data_MOF--net-wkj--node1-PAMTOO_clean_sbu_0--edge1-XIVTED_clean_linker_0
_symmetry_space_group_name_H-M    P1
_symmetry_Int_Tables_number       1
_symmetry_cell_setting            triclinic
loop_
_symmetry_equiv_pos_as_xyz
'x, y, z'
_cell_length_a     48.821799
_cell_length_b     48.872257
_cell_length_c     29.943596
_cell_angle_alpha  89.895376
_cell_angle_beta   90.271944
_cell_angle_gamma 120.02755
loop_
_atom_site_label
_atom_site_type_symbol
_atom_site_fract_x
_atom_site_fract_y
_atom_site_fract_z
_atom_type_partial_charge
Dy0 Dy 0.53181 0.1046 0.35383 0.0
Dy1 Dy 0.46592 0.09617 0.37276 0.0
C2 C 0.51566 0.15827 0.32786 0.0
O3 O 0.53578 0.10234 0.42788 0.0
O4 O 0.4933 0.10821 0.44329 0.0
O5 O 0.58104 0.12451 0.3717 0.0
O6 O 0.56437 0.10142 0.308 0.0
O7 O 0.45503 0.05136 0.40232 0.0
O8 O 0.50338 0.05589 0.38668 0.0
O9 O 0.45552 0.06738 0.3065 0.0
O10 O 0.50607 0.08008 0.28922 0.0
O11 O 0.41533 0.07635 0.37137 0.0
O12 O 0.44588 0.12414 0.39588 0.0
C13 C 0.51882 0.10669 0.4577 0.0
O14 O 0.53609 0.15361 0.35041 0.0
O15 O 0.48814 0.13358 0.32071 0.0
C16 C 0.61274 0.14946 0.30886 0.0
C17 C 0.64414 0.20274 0.25303 0.0
C18 C 0.635 0.20586 0.29624 0.0
C19 C 0.61932 0.17946 0.32384 0.0
C20 C 0.62493 0.14698 0.26778 0.0
C21 C 0.6405 0.17338 0.24006 0.0
C22 C 0.589 0.12055 0.33187 0.0
C23 C 0.47453 0.04065 0.40447 0.0
C24 C 0.47574 0.06579 0.2782 0.0
C25 C 0.39514 0.09425 0.42783 0.0
C26 C 0.35136 0.07374 0.49812 0.0
C27 C 0.3837 0.08545 0.50686 0.0
C28 C 0.4054 0.09545 0.47195 0.0
C29 C 0.36321 0.08401 0.41913 0.0
C30 C 0.34141 0.07371 0.45403 0.0
C31 C 0.4168 0.10106 0.39036 0.0
H32 H 0.63786 0.22821 0.30745 0.0
H33 H 0.6104 0.18227 0.35553 0.0
H34 H 0.6202 0.12415 0.25557 0.0
H35 H 0.64696 0.16995 0.20686 0.0
H36 H 0.39197 0.08517 0.5404 0.0
H37 H 0.42993 0.10298 0.47926 0.0
H38 H 0.35495 0.08289 0.38516 0.0
H39 H 0.31665 0.06481 0.44643 0.0
Dy40 Dy 0.42914 0.52843 0.68665 0.0
Dy41 Dy 0.37318 0.46077 0.70652 0.0
C42 C 0.35725 0.50942 0.66254 0.0
O43 O 0.43474 0.53274 0.76093 0.0
O44 O 0.38832 0.48779 0.77714 0.0
O45 O 0.45783 0.57765 0.70463 0.0
O46 O 0.46337 0.56183 0.63994 0.0
O47 O 0.40954 0.45204 0.73265 0.0
O48 O 0.45147 0.50232 0.72074 0.0
O49 O 0.39201 0.45232 0.63943 0.0
O50 O 0.4305 0.5029 0.62343 0.0
O51 O 0.34507 0.41018 0.70014 0.0
O52 O 0.3265 0.43601 0.73574 0.0
C53 C 0.41437 0.51453 0.79109 0.0
O54 O 0.38345 0.53108 0.68181 0.0
O55 O 0.35352 0.4813 0.65813 0.0
C56 C 0.46163 0.60901 0.64244 0.0
C57 C 0.43465 0.63662 0.58829 0.0
C58 C 0.42473 0.62836 0.63266 0.0
C59 C 0.43797 0.61452 0.65945 0.0
C60 C 0.47422 0.6208 0.6002 0.0
C61 C 0.46086 0.63447 0.5733 0.0
C62 C 0.46861 0.58607 0.66431 0.0
C63 C 0.43925 0.47304 0.73657 0.0
C64 C 0.41448 0.47271 0.61203 0.0
C65 C 0.31061 0.38357 0.7592 0.0
C66 C 0.29374 0.33562 0.82326 0.0
C67 C 0.30658 0.36732 0.83659 0.0
C68 C 0.31513 0.39115 0.8048 0.0
C69 C 0.29664 0.35183 0.74595 0.0
C70 C 0.28843 0.32803 0.77769 0.0
C71 C 0.32221 0.40824 0.72469 0.0
H72 H 0.40505 0.63025 0.64554 0.0
H73 H 0.42786 0.60595 0.69213 0.0
H74 H 0.49248 0.61691 0.58644 0.0
H75 H 0.46913 0.64037 0.53925 0.0
H76 H 0.31141 0.37388 0.87149 0.0
H77 H 0.32615 0.4155 0.81584 0.0
H78 H 0.293 0.34555 0.71086 0.0
H79 H 0.27856 0.3038 0.7666 0.0
Dy80 Dy 0.9064 0.42786 1.02079 0.0
Dy81 Dy 0.92101 0.37367 1.04648 0.0
C82 C 0.85196 0.35308 1.00862 0.0
O83 O 0.89625 0.42492 1.09479 0.0
O84 O 0.91417 0.39171 1.11664 0.0
O85 O 0.88383 0.45478 1.03784 0.0
O86 O 0.90745 0.46256 0.97458 0.0
O87 O 0.96521 0.41293 1.07192 0.0
O88 O 0.95302 0.4522 1.05944 0.0
O89 O 0.9372 0.38698 0.97173 0.0
O90 O 0.94151 0.43543 0.96639 0.0
O91 O 0.94404 0.3475 1.02817 0.0
O92 O 0.91133 0.33163 1.08332 0.0
C93 C 0.90362 0.41155 0.12728 0.0
O94 O 0.86345 0.38235 0.99423 0.0
O95 O 0.86908 0.3463 1.03498 0.0
C96 C 0.85776 0.45943 0.97424 0.0
C97 C 0.80422 0.43365 0.91779 0.0
C98 C 0.80163 0.42291 0.96195 0.0
C99 C 0.82818 0.43556 0.98985 0.0
C100 C 0.85954 0.4726 0.93204 0.0
C101 C 0.83305 0.45982 0.90402 0.0
C102 C 0.8872 0.4665 0.99789 0.0
C103 C 0.9717 0.44203 1.07579 0.0
C104 C 0.94722 0.41402 0.94928 0.0
C105 C 0.95428 0.32264 1.08758 0.0
C106 C 0.99652 0.31275 0.14001 0.0
C107 C 1.00121 0.34339 0.13407 0.0
C108 C 0.98024 0.34827 1.10814 0.0
C109 C 0.94974 0.29213 1.09258 0.0
C110 C 0.97068 0.28718 1.11872 0.0
C111 C 0.93185 0.32756 1.06102 0.0
H112 H 0.77969 0.40323 0.97392 0.0
H113 H 0.82588 0.42499 1.02244 0.0
H114 H 0.88202 0.49102 0.91931 0.0
H115 H 0.83615 0.46867 0.87015 0.0
H116 H 0.02045 0.36351 0.1508 0.0
H117 H 0.98403 0.37198 1.10469 0.0
H118 H 0.92981 0.27213 1.07669 0.0
H119 H 0.96649 0.26335 0.12265 0.0
Dy120 Dy 0.47378 0.90055 0.35062 0.0
Dy121 Dy 0.54221 0.91439 0.37567 0.0
C122 C 0.49306 0.8454 0.34434 0.0
O123 O 0.46804 0.89643 0.42601 0.0
O124 O 0.51767 0.90722 0.44637 0.0
O125 O 0.4243 0.87319 0.3661 0.0
O126 O 0.43945 0.90564 0.31042 0.0
O127 O 0.5484 0.96159 0.36646 0.0
O128 O 0.49923 0.94646 0.39005 0.0
O129 O 0.54473 0.92709 0.29914 0.0
O130 O 0.50089 0.93228 0.29238 0.0
O131 O 0.58687 0.94237 0.40853 0.0
O132 O 0.57961 0.90324 0.36615 0.0
C133 C 0.48855 0.90108 0.45805 0.0
O134 O 0.47745 0.85797 0.32536 0.0
O135 O 0.51462 0.86187 0.37418 0.0
C136 C 0.39303 0.85545 0.301 0.0
C137 C 0.36198 0.80535 0.23968 0.0
C138 C 0.36489 0.79905 0.2846 0.0
C139 C 0.38009 0.82382 0.31506 0.0
C140 C 0.38728 0.86149 0.25716 0.0
C141 C 0.37189 0.83666 0.22675 0.0
C142 C 0.41556 0.88171 0.33 0.0
C143 C 0.52952 0.96806 0.38796 0.0
C144 C 0.52782 0.93691 0.27548 0.0
C145 C 0.61565 0.9174 0.42684 0.0
C146 C 0.65479 0.91968 0.49749 0.0
C147 C 0.62228 0.90802 0.50453 0.0
C148 C 0.60285 0.9069 0.46941 0.0
C149 C 0.64705 0.9256 0.41856 0.0
C150 C 0.66649 0.92655 0.45361 0.0
C151 C 0.59869 0.92541 0.3936 0.0
H152 H 0.35717 0.77514 0.29556 0.0
H153 H 0.38345 0.81818 0.3489 0.0
H154 H 0.39656 0.88553 0.24555 0.0
H155 H 0.37021 0.84235 0.19224 0.0
H156 H 0.61241 0.90271 0.53783 0.0
H157 H 0.57856 0.9004 0.4763 0.0
H158 H 0.65721 0.93359 0.38572 0.0
H159 H 0.69126 0.93506 0.44697 0.0
Dy160 Dy 0.57953 0.48247 0.68647 0.0
Dy161 Dy 0.63982 0.54557 0.70718 0.0
C162 C 0.64993 0.49134 0.67421 0.0
O163 O 0.58304 0.47509 0.76066 0.0
O164 O 0.62172 0.5249 0.77982 0.0
O165 O 0.54661 0.43465 0.70701 0.0
O166 O 0.54354 0.44991 0.64056 0.0
O167 O 0.60753 0.558 0.7386 0.0
O168 O 0.56163 0.51145 0.72312 0.0
O169 O 0.62593 0.54699 0.63143 0.0
O170 O 0.57336 0.51222 0.63423 0.0
O171 O 0.66756 0.59581 0.69492 0.0
O172 O 0.68897 0.57143 0.72707 0.0
C173 C 0.599 0.49581 0.79229 0.0
O174 O 0.62203 0.48094 0.65504 0.0
O175 O 0.65788 0.51201 0.7059 0.0
C176 C 0.53877 0.3998 0.64757 0.0
C177 C 0.56061 0.36587 0.59756 0.0
C178 C 0.57051 0.37429 0.64201 0.0
C179 C 0.55983 0.39127 0.66675 0.0
C180 C 0.5257 0.38777 0.60547 0.0
C181 C 0.53652 0.37093 0.58062 0.0
C182 C 0.53545 0.42578 0.66682 0.0
C183 C 0.57705 0.54018 0.74109 0.0
C184 C 0.5972 0.53499 0.61255 0.0
C185 C 0.70638 0.62415 0.74928 0.0
C186 C 0.72677 0.67267 0.81322 0.0
C187 C 0.72795 0.67964 0.76751 0.0
C188 C 0.71797 0.65555 0.73577 0.0
C189 C 0.7064 0.61735 0.79483 0.0
C190 C 0.71667 0.64143 0.82647 0.0
C191 C 0.69232 0.59872 0.71586 0.0
H192 H 0.58862 0.37025 0.65627 0.0
H193 H 0.57016 0.39991 0.69941 0.0
H194 H 0.50935 0.3939 0.5901 0.0
H195 H 0.52837 0.36496 0.54643 0.0
H196 H 0.73563 0.70351 0.75644 0.0
H197 H 0.71817 0.66124 0.70073 0.0
H198 H 0.69738 0.5933 0.80621 0.0
H199 H 0.71493 0.63524 0.86151 0.0
Dy200 Dy 0.10046 0.57578 1.01723 0.0
Dy201 Dy 0.08825 0.63187 1.04027 0.0
C202 C 0.15746 0.64961 1.01083 0.0
O203 O 0.10376 0.57446 1.09291 0.0
O204 O 0.0933 0.61365 1.11166 0.0
O205 O 0.12514 0.5514 1.03597 0.0
O206 O 0.09493 0.53611 0.97763 0.0
O207 O 0.04061 0.59196 1.02855 0.0
O208 O 0.05352 0.55647 1.05345 0.0
O209 O 0.0752 0.62142 0.96388 0.0
O210 O 0.07078 0.5727 0.9568 0.0
O211 O 0.06108 0.64989 1.07159 0.0
O212 O 0.10139 0.68095 1.03061 0.0
C213 C 0.09894 0.59049 0.12424 0.0
O214 O 0.14462 0.62111 0.99297 0.0
O215 O 0.14087 0.65575 1.03891 0.0
C216 C 0.14425 0.53744 0.97319 0.0
C217 C 0.19661 0.55664 0.91653 0.0
C218 C 0.20126 0.56402 0.96215 0.0
C219 C 0.17534 0.55433 0.99032 0.0
C220 C 0.1397 0.52706 0.92872 0.0
C221 C 0.16566 0.53656 0.90061 0.0
C222 C 0.11736 0.53459 0.99956 0.0
C223 C 0.03266 0.56606 1.04975 0.0
C224 C 0.06607 0.59501 0.93991 0.0
C225 C 0.0887 0.70318 1.0918 0.0
C226 C 0.09031 0.74003 0.1648 0.0
C227 C 0.10082 0.71806 0.16957 0.0
C228 C 0.10004 0.6998 0.13331 0.0
C229 C 0.08138 0.72721 1.08566 0.0
C230 C 0.0824 0.74571 1.12186 0.0
C231 C 0.07942 0.67871 1.05755 0.0
H232 H 0.22485 0.57917 0.97535 0.0
H233 H 0.17979 0.56212 1.02478 0.0
H234 H 0.11608 0.51361 0.91478 0.0
H235 H 0.16125 0.53059 0.8655 0.0
H236 H 0.10682 0.71274 0.20205 0.0
H237 H 0.10585 0.68133 0.13854 0.0
H238 H 0.07276 0.73021 1.05365 0.0
H239 H 0.07477 0.76284 1.11686 0.0
Dy240 Dy 0.90921 0.48273 0.55846 0.0
Dy241 Dy 0.91697 0.54821 0.53372 0.0
C242 C 0.85035 0.49644 0.56967 0.0
O243 O 0.89623 0.47418 0.48504 0.0
O244 O 0.91178 0.52468 0.46294 0.0
O245 O 0.89399 0.43445 0.53981 0.0
O246 O 0.90926 0.45008 0.60731 0.0
O247 O 0.95971 0.55516 0.50051 0.0
O248 O 0.95662 0.50852 0.52258 0.0
O249 O 0.93317 0.55115 0.6089 0.0
O250 O 0.94597 0.51252 0.60999 0.0
O251 O 0.94269 0.59855 0.54578 0.0
O252 O 0.89877 0.57744 0.5084 0.0
C253 C 0.90248 0.49455 0.45236 0.0
O254 O 0.86569 0.48316 0.5874 0.0
O255 O 0.86468 0.51866 0.54013 0.0
C256 C 0.86366 0.40074 0.59843 0.0
C257 C 0.80742 0.36806 0.64793 0.0
C258 C 0.80712 0.38047 0.60569 0.0
C259 C 0.83505 0.39691 0.58131 0.0
C260 C 0.86323 0.38512 0.63787 0.0
C261 C 0.83534 0.36887 0.66245 0.0
C262 C 0.8941 0.42584 0.58093 0.0
C263 C 0.97098 0.53606 0.50132 0.0
C264 C 0.94771 0.53745 0.62926 0.0
C265 C 0.93852 0.62923 0.48874 0.0
C266 C 0.97189 0.67844 0.42726 0.0
C267 C 0.95332 0.64703 0.41247 0.0
C268 C 0.93692 0.62262 0.44294 0.0
C269 C 0.95631 0.66061 0.50355 0.0
C270 C 0.97302 0.68506 0.47306 0.0
C271 C 0.92343 0.60364 0.52164 0.0
H272 H 0.78594 0.37982 0.59322 0.0
H273 H 0.83466 0.40874 0.55088 0.0
H274 H 0.88501 0.38788 0.65173 0.0
H275 H 0.83665 0.35984 0.69495 0.0
H276 H 0.95251 0.64112 0.37746 0.0
H277 H 0.92368 0.59854 0.43076 0.0
H278 H 0.95787 0.6661 0.53884 0.0
H279 H 0.98715 0.70904 0.4853 0.0
Dy280 Dy 0.42969 0.9059 0.89421 0.0
Dy281 Dy 0.3714 0.91302 0.87592 0.0
C282 C 0.3599 0.85126 0.92146 0.0
O283 O 0.43521 0.90736 0.82011 0.0
O284 O 0.38731 0.90277 0.80458 0.0
O285 O 0.46209 0.89005 0.87504 0.0
O286 O 0.46361 0.90684 0.94199 0.0
O287 O 0.40507 0.96046 0.85448 0.0
O288 O 0.44829 0.95348 0.85875 0.0
O289 O 0.38818 0.93898 0.94458 0.0
O290 O 0.43213 0.93455 0.95598 0.0
O291 O 0.34016 0.93212 0.87899 0.0
O292 O 0.32385 0.88583 0.84972 0.0
C293 C 0.41414 0.90396 0.7901 0.0
O294 O 0.38522 0.85635 0.89929 0.0
O295 O 0.35611 0.87541 0.92748 0.0
C296 C 0.4663 0.86042 0.93422 0.0
C297 C 0.4391 0.80323 0.98214 0.0
C298 C 0.43178 0.80335 0.93675 0.0
C299 C 0.44512 0.83172 0.91303 0.0
C300 C 0.47699 0.85964 0.97743 0.0
C301 C 0.46351 0.8313 1.00124 0.0
C302 C 0.47168 0.89076 0.91584 0.0
C303 C 0.43453 0.96994 0.8464 0.0
C304 C 0.41315 0.94477 0.96983 0.0
C305 C 0.30351 0.91732 0.82063 0.0
C306 C 0.28339 0.94285 0.75238 0.0
C307 C 0.27481 0.94352 0.79687 0.0
C308 C 0.2847 0.9307 0.83073 0.0
C309 C 0.31108 0.91548 0.77604 0.0
C310 C 0.3009 0.92797 0.74214 0.0
C311 C 0.3175 0.90843 0.85732 0.0
H312 H 0.41362 0.78205 0.92076 0.0
H313 H 0.43664 0.8314 0.87944 0.0
H314 H 0.49341 0.88139 0.99435 0.0
H315 H 0.46985 0.8323 1.03614 0.0
H316 H 0.26137 0.95488 0.80559 0.0
H317 H 0.27877 0.93241 0.86506 0.0
H318 H 0.32592 0.90561 0.76757 0.0
H319 H 0.30835 0.92764 0.70822 0.0
Dy320 Dy 0.53406 0.43412 0.23048 0.0
Dy321 Dy 0.46603 0.37919 0.20558 0.0
C322 C 0.5159 0.36015 0.23614 0.0
O323 O 0.54005 0.43549 0.15518 0.0
O324 O 0.49044 0.39669 0.13477 0.0
O325 O 0.58358 0.45752 0.21452 0.0
O326 O 0.56806 0.47285 0.2718 0.0
O327 O 0.45917 0.4198 0.21421 0.0
O328 O 0.5083 0.45427 0.1909 0.0
O329 O 0.46361 0.38936 0.28212 0.0
O330 O 0.50653 0.439 0.28776 0.0
O331 O 0.42103 0.36197 0.17352 0.0
O332 O 0.42934 0.33028 0.21494 0.0
C333 C 0.5196 0.41958 0.12312 0.0
O334 O 0.53086 0.38804 0.25585 0.0
O335 O 0.49451 0.35519 0.20606 0.0
C336 C 0.61414 0.46844 0.27998 0.0
C337 C 0.6413 0.44417 0.33996 0.0
C338 C 0.63996 0.4376 0.29418 0.0
C339 C 0.62668 0.44977 0.2644 0.0
C340 C 0.61885 0.47794 0.32486 0.0
C341 C 0.63231 0.46592 0.3546 0.0
C342 C 0.59209 0.47349 0.2517 0.0
C343 C 0.47791 0.44526 0.19275 0.0
C344 C 0.47996 0.41643 0.30513 0.0
C345 C 0.39311 0.30842 0.1544 0.0
C346 C 0.35387 0.27221 1.08349 0.0
C347 C 0.38622 0.29368 1.07626 0.0
C348 C 0.4057 0.31164 1.1115 0.0
C349 C 0.36197 0.2846 0.16277 0.0
C350 C 0.34249 0.26642 0.12758 0.0
C351 C 0.40982 0.33313 0.18798 0.0
H352 H 0.64713 0.42131 0.28188 0.0
H353 H 0.62414 0.44251 0.22976 0.0
H354 H 0.60986 0.49263 0.3377 0.0
H355 H 0.63289 0.4714 0.38974 0.0
H356 H 0.39589 0.29899 1.04284 0.0
H357 H 0.42979 0.32992 1.10452 0.0
H358 H 0.35197 0.28171 0.19585 0.0
H359 H 0.31789 0.24962 0.13441 0.0
Dy360 Dy 0.0992 0.52756 0.56268 0.0
Dy361 Dy 0.08654 0.45952 0.53884 0.0
C362 C 0.15559 0.51014 0.56831 0.0
O363 O 0.10294 0.53267 0.48702 0.0
O364 O 0.09176 0.48288 0.46764 0.0
O365 O 0.12419 0.5767 0.54451 0.0
O366 O 0.09492 0.56196 0.60339 0.0
O367 O 0.03872 0.45179 0.54801 0.0
O368 O 0.05237 0.50096 0.5254 0.0
O369 O 0.07404 0.45722 0.61522 0.0
O370 O 0.06806 0.50056 0.62146 0.0
O371 O 0.06031 0.41452 0.50624 0.0
O372 O 0.09937 0.42357 0.55038 0.0
C373 C 0.09787 0.51187 0.45541 0.0
O374 O 0.14264 0.52509 0.58786 0.0
O375 O 0.13907 0.48878 0.53833 0.0
C376 C 0.14501 0.60903 0.60795 0.0
C377 C 0.19851 0.63868 0.66407 0.0
C378 C 0.20223 0.63727 0.61788 0.0
C379 C 0.17574 0.62277 0.58999 0.0
C380 C 0.14154 0.61393 0.65321 0.0
C381 C 0.16807 0.62865 0.68104 0.0
C382 C 0.11737 0.58578 0.58159 0.0
C383 C 0.03132 0.4705 0.52763 0.0
C384 C 0.06397 0.47387 0.63865 0.0
C385 C 0.08915 0.38971 0.48859 0.0
C386 C 0.09595 0.3573 0.41591 0.0
C387 C 0.0846 0.34193 0.45714 0.0
C388 C 0.08102 0.35801 0.49315 0.0
C389 C 0.10355 0.40603 0.44926 0.0
C390 C 0.1069 0.38996 0.41316 0.0
C391 C 0.07834 0.40406 0.52191 0.0
H392 H 0.22542 0.64521 0.60383 0.0
H393 H 0.17937 0.62018 0.55496 0.0
H394 H 0.11824 0.60412 0.66785 0.0
H395 H 0.16431 0.62926 0.71656 0.0
H396 H 0.07651 0.31697 0.46066 0.0
H397 H 0.07006 0.34517 0.52353 0.0
H398 H 0.11002 0.43059 0.44532 0.0
H399 H 0.11547 0.40262 0.38198 0.0
Dy400 Dy 0.57785 0.09885 0.89247 0.0
Dy401 Dy 0.63395 0.08699 0.87283 0.0
C402 C 0.64955 0.15136 0.91694 0.0
O403 O 0.57351 0.099 0.81809 0.0
O404 O 0.61993 0.1003 0.80241 0.0
O405 O 0.54812 0.11818 0.87392 0.0
O406 O 0.54428 0.0987 0.9397 0.0
O407 O 0.59764 0.04319 0.84343 0.0
O408 O 0.55536 0.05037 0.85883 0.0
O409 O 0.61453 0.05918 0.93948 0.0
O410 O 0.57649 0.07182 0.95573 0.0
O411 O 0.66143 0.06388 0.87967 0.0
O412 O 0.68108 0.10884 0.84504 0.0
C413 C 0.59418 0.10148 0.78825 0.0
O414 O 0.62351 0.14714 0.89753 0.0
O415 O 0.65305 0.12683 0.92147 0.0
C416 C 0.5449 0.14698 0.93481 0.0
C417 C 0.57221 0.20269 0.98634 0.0
C418 C 0.5814 0.20352 0.94176 0.0
C419 C 0.56801 0.17588 0.91628 0.0
C420 C 0.53292 0.14696 0.97721 0.0
C421 C 0.54645 0.17454 1.00281 0.0
C422 C 0.53808 0.11671 0.91448 0.0
C423 C 0.56775 0.03408 0.84097 0.0
C424 C 0.59227 0.05736 0.96703 0.0
C425 C 0.69712 0.07227 0.82209 0.0
C426 C 0.71521 0.04203 0.75854 0.0
C427 C 0.70477 0.06286 0.74485 0.0
C428 C 0.69561 0.07774 0.77637 0.0
C429 C 0.70886 0.05259 0.83582 0.0
C430 C 0.71765 0.03742 0.80432 0.0
C431 C 0.68486 0.08502 0.85607 0.0
H432 H 0.6007 0.22491 0.92774 0.0
H433 H 0.57763 0.1768 0.88343 0.0
H434 H 0.51509 0.12502 0.99213 0.0
H435 H 0.53873 0.17281 1.03706 0.0
H436 H 0.70219 0.06644 0.70972 0.0
H437 H 0.68645 0.09266 0.7649 0.0
H438 H 0.71026 0.04815 0.87099 0.0
H439 H 0.72567 0.02153 0.81568 0.0
Dy440 Dy 0.48187 0.5767 0.22559 0.0
Dy441 Dy 0.54787 0.63409 0.20536 0.0
C442 C 0.49843 0.64659 0.25163 0.0
O443 O 0.4767 0.5716 0.15133 0.0
O444 O 0.51989 0.61938 0.13537 0.0
O445 O 0.43287 0.54565 0.20783 0.0
O446 O 0.44956 0.54249 0.27331 0.0
O447 O 0.55733 0.5998 0.17376 0.0
O448 O 0.50981 0.55602 0.19268 0.0
O449 O 0.55875 0.61553 0.27131 0.0
O450 O 0.50833 0.57783 0.28961 0.0
O451 O 0.59863 0.66412 0.2045 0.0
O452 O 0.56814 0.6824 0.1835 0.0
C453 C 0.4938 0.59278 1.12131 0.0
O454 O 0.47758 0.62139 0.22979 0.0
O455 O 0.52614 0.64955 0.25771 0.0
C456 C 0.40061 0.54069 0.26913 0.0
C457 C 0.36802 0.56308 0.32125 0.0
C458 C 0.37844 0.57519 0.27822 0.0
C459 C 0.39474 0.56424 0.25248 0.0
C460 C 0.38724 0.5262 0.30991 0.0
C461 C 0.37107 0.53727 0.33579 0.0
C462 C 0.42489 0.53533 0.24844 0.0
C463 C 0.53797 0.56953 0.17289 0.0
C464 C 0.53878 0.59384 0.30006 0.0
C465 C 0.6177 0.7027 0.14827 0.0
C466 C 0.65886 0.72744 1.07508 0.0
C467 C 0.62627 0.70689 1.06832 0.0
C468 C 0.60588 0.69447 1.10463 0.0
C469 C 0.64996 0.72407 0.15517 0.0
C470 C 0.67045 0.7363 1.11883 0.0
C471 C 0.59715 0.68779 0.18684 0.0
H472 H 0.37608 0.59475 0.2658 0.0
H473 H 0.40466 0.57586 0.221 0.0
H474 H 0.3915 0.50806 0.32341 0.0
H475 H 0.36366 0.5275 0.36893 0.0
H476 H 0.61675 0.69911 1.03504 0.0
H477 H 0.58108 0.67773 1.09865 0.0
H478 H 0.65943 0.73059 0.18873 0.0
H479 H 0.69545 0.75207 0.12493 0.0
H480 H 0.56125 0.21955 0.35582 0.0
H481 H 0.48783 0.30145 0.19814 0.0
H482 H 0.48197 0.17061 0.26617 0.0
H483 H 0.55415 0.35472 0.30293 0.0
H484 H 0.49113 0.25528 0.21917 0.0
H485 H 0.56449 0.27013 0.3341 0.0
C486 C 0.54477 0.21933 0.33129 0.0
C487 C 0.52123 0.19035 0.31299 0.0
C488 C 0.50513 0.27694 0.23778 0.0
C489 C 0.52482 0.24847 0.28787 0.0
C490 C 0.50334 0.30371 0.22561 0.0
C491 C 0.5206 0.33259 0.24868 0.0
C492 C 0.52445 0.27821 0.27361 0.0
C493 C 0.54028 0.33322 0.28398 0.0
C494 C 0.54652 0.24828 0.31909 0.0
C495 C 0.50049 0.19195 0.28156 0.0
N496 N 0.5416 0.30655 0.29539 0.0
N497 N 0.50282 0.2201 0.27023 0.0
H498 H 0.3437 0.55752 0.68464 0.0
H499 H 0.18529 0.48048 0.53261 0.0
H500 H 0.30887 0.47304 0.6052 0.0
H501 H 0.20031 0.54972 0.63325 0.0
H502 H 0.23473 0.48362 0.55406 0.0
H503 H 0.29644 0.5609 0.66224 0.0
C504 C 0.32646 0.53987 0.66224 0.0
C505 C 0.33064 0.51485 0.64708 0.0
C506 C 0.22751 0.4983 0.57164 0.0
C507 C 0.2762 0.51866 0.62107 0.0
C508 C 0.19897 0.49661 0.55922 0.0
C509 C 0.18788 0.51473 0.58101 0.0
C510 C 0.24613 0.51843 0.60641 0.0
C511 C 0.20749 0.53516 0.61528 0.0
C512 C 0.2993 0.54173 0.64966 0.0
C513 C 0.30707 0.49272 0.61821 0.0
N514 N 0.23548 0.53641 0.62691 0.0
N515 N 0.28136 0.49521 0.60636 0.0
H516 H 0.80637 0.35091 0.94764 0.0
H517 H 0.69598 0.16197 0.97671 0.0
H518 H 0.82295 0.29216 1.03865 0.0
H519 H 0.66521 0.21364 0.89353 0.0
H520 H 0.74225 0.21123 0.99848 0.0
H521 H 0.75531 0.30384 0.92613 0.0
C522 C 0.79942 0.32839 0.9633 0.0
C523 C 0.81962 0.32597 0.99508 0.0
C524 C 0.72553 0.21221 0.97558 0.0
C525 C 0.7609 0.27165 0.97036 0.0
C526 C 0.69876 0.18375 0.96301 0.0
C527 C 0.67621 0.1831 0.93292 0.0
C528 C 0.73083 0.24116 0.95793 0.0
C529 C 0.68169 0.21267 0.91688 0.0
C530 C 0.77016 0.30143 0.95094 0.0
C531 C 0.80886 0.29581 1.01393 0.0
N532 N 0.70846 0.24036 0.92922 0.0
N533 N 0.7808 0.27036 1.00129 0.0
H534 H 0.53287 0.69225 0.31312 0.0
H535 H 0.45346 0.80146 0.27918 0.0
H536 H 0.45222 0.66228 0.22619 0.0
H537 H 0.52368 0.81594 0.37861 0.0
H538 H 0.45134 0.75149 0.25738 0.0
H539 H 0.52869 0.73782 0.33529 0.0
C540 C 0.51402 0.69505 0.2987 0.0
C541 C 0.49292 0.67292 0.26752 0.0
C542 C 0.46705 0.7656 0.28412 0.0
C543 C 0.48813 0.72662 0.29293 0.0
C544 C 0.46827 0.79424 0.29668 0.0
C545 C 0.48886 0.8135 0.33097 0.0
C546 C 0.48669 0.75603 0.30572 0.0
C547 C 0.50741 0.80245 0.35203 0.0
C548 C 0.51166 0.72138 0.3115 0.0
C549 C 0.46903 0.67841 0.25045 0.0
N550 N 0.50596 0.775 0.33904 0.0
N551 N 0.46745 0.70471 0.26303 0.0
H552 H 0.69504 0.48775 0.72433 0.0
H553 H 0.806 0.50229 0.52059 0.0
H554 H 0.66318 0.47908 0.58804 0.0
H555 H 0.81908 0.47342 0.65121 0.0
H556 H 0.75506 0.49558 0.54453 0.0
H557 H 0.74071 0.4839 0.69907 0.0
C558 C 0.69731 0.48455 0.68902 0.0
C559 C 0.67473 0.48356 0.65848 0.0
C560 C 0.76882 0.49039 0.56796 0.0
C561 C 0.72838 0.48011 0.62882 0.0
C562 C 0.79812 0.49425 0.55432 0.0
C563 C 0.81734 0.48847 0.58375 0.0
C564 C 0.75836 0.48135 0.61204 0.0
C565 C 0.80535 0.47808 0.62707 0.0
C566 C 0.72361 0.48241 0.67461 0.0
C567 C 0.67951 0.47963 0.61308 0.0
N568 N 0.77708 0.47535 0.63997 0.0
N569 N 0.70588 0.47857 0.59969 0.0
H570 H 0.31815 0.83953 0.9886 0.0
H571 H 0.20074 0.65295 0.94564 0.0
H572 H 0.34115 0.78949 0.89117 0.0
H573 H 0.18959 0.70887 1.04745 0.0
H574 H 0.25198 0.69979 0.92509 0.0
H575 H 0.27204 0.79012 1.01053 0.0
C576 C 0.31373 0.81805 0.97186 0.0
C577 C 0.33402 0.81922 0.93772 0.0
C578 C 0.23833 0.70165 0.95209 0.0
C579 C 0.27953 0.76109 0.96274 0.0
C580 C 0.20896 0.67479 0.96396 0.0
C581 C 0.1902 0.6765 0.99847 0.0
C582 C 0.24925 0.73067 0.97475 0.0
C583 C 0.20259 0.70584 1.02058 0.0
C584 C 0.28705 0.78954 0.98448 0.0
C585 C 0.32651 0.79005 0.91777 0.0
N586 N 0.23077 0.73128 1.00834 0.0
N587 N 0.29983 0.76237 0.9302 0.0
H588 H 0.63718 0.23664 0.98724 0.0
H589 H 0.68712 0.22267 0.18421 0.0
H590 H 0.55601 0.22613 1.05909 0.0
H591 H 0.61506 0.2378 0.24228 0.0
H592 H 0.682 0.2453 1.11485 0.0
H593 H 0.66977 0.26074 1.05264 0.0
C594 C 0.62622 0.24014 1.01637 0.0
C595 C 0.59331 0.22777 1.01831 0.0
C596 C 0.66804 0.24498 0.14295 0.0
C597 C 0.63033 0.25334 1.09471 0.0
C598 C 0.67095 0.23177 0.18279 0.0
C599 C 0.65059 0.22708 0.21851 0.0
C600 C 0.64424 0.25313 0.13878 0.0
C601 C 0.63084 0.24026 0.21535 0.0
C602 C 0.64491 0.2534 1.05432 0.0
C603 C 0.58096 0.23382 1.05681 0.0
N604 N 0.62746 0.25177 0.17572 0.0
N605 N 0.59927 0.24524 1.09397 0.0
H606 H 0.32333 0.5405 0.38794 0.0
H607 H 0.36969 0.60504 0.58498 0.0
H608 H 0.39699 0.6273 0.33084 0.0
H609 H 0.45183 0.67609 0.51508 0.0
H610 H 0.33825 0.59611 0.51817 0.0
H611 H 0.32687 0.56861 0.45618 0.0
C612 C 0.33954 0.56576 0.38928 0.0
C613 C 0.3608 0.58119 0.35431 0.0
C614 C 0.36306 0.61381 0.51719 0.0
C615 C 0.36535 0.61401 0.43279 0.0
C616 C 0.38108 0.61949 0.55595 0.0
C617 C 0.41398 0.64027 0.55506 0.0
C618 C 0.37831 0.62832 0.47709 0.0
C619 C 0.4269 0.65865 0.51662 0.0
C620 C 0.34155 0.58208 0.42848 0.0
C621 C 0.38054 0.61413 0.35725 0.0
N622 N 0.40926 0.65152 0.47873 0.0
N623 N 0.38302 0.62921 0.39633 0.0
H624 H 0.76903 0.36887 0.9125 0.0
H625 H 0.78259 0.32199 0.71297 0.0
H626 H 0.78388 0.45321 0.84471 0.0
H627 H 0.7751 0.39994 0.65906 0.0
H628 H 0.75936 0.32633 0.78194 0.0
H629 H 0.74576 0.33872 0.84507 0.0
C630 C 0.76673 0.38105 0.88377 0.0
C631 C 0.78004 0.41408 0.8837 0.0
C632 C 0.76155 0.34187 0.75479 0.0
C633 C 0.75521 0.37981 0.80501 0.0
C634 C 0.77505 0.33936 0.71513 0.0
C635 C 0.78217 0.3615 0.68086 0.0
C636 C 0.7555 0.367 0.76023 0.0
C637 C 0.77082 0.38274 0.68486 0.0
C638 C 0.75389 0.36375 0.84466 0.0
C639 C 0.77546 0.42809 0.84563 0.0
N640 N 0.75897 0.38559 0.72435 0.0
N641 N 0.76432 0.41107 0.80742 0.0
H642 H 0.37428 0.76907 0.97635 0.0
H643 H 0.3242 0.79165 0.16536 0.0
H644 H 0.45213 0.77845 1.05685 0.0
H645 H 0.38499 0.76484 0.23413 0.0
H646 H 0.32955 0.76762 1.09769 0.0
H647 H 0.33917 0.7454 1.03932 0.0
C648 C 0.38397 0.76529 1.00681 0.0
C649 C 0.41672 0.77742 1.01199 0.0
C650 C 0.3407 0.76555 0.12778 0.0
C651 C 0.37681 0.75233 1.08524 0.0
C652 C 0.33772 0.7796 0.16655 0.0
C653 C 0.35499 0.78117 0.20491 0.0
C654 C 0.36166 0.7536 0.12731 0.0
C655 C 0.37165 0.76464 0.20502 0.0
C656 C 0.36384 0.75228 1.04326 0.0
C657 C 0.42737 0.77098 1.05207 0.0
N658 N 0.37542 0.75245 0.16638 0.0
N659 N 0.40768 0.75986 1.0877 0.0
H660 H 0.61599 0.38 0.33746 0.0
H661 H 0.54132 0.3247 0.52622 0.0
H662 H 0.675 0.46171 0.41866 0.0
H663 H 0.62512 0.39414 0.59558 0.0
H664 H 0.57284 0.33278 0.45996 0.0
H665 H 0.60619 0.34628 0.40224 0.0
C666 C 0.62775 0.39085 0.36862 0.0
C667 C 0.6453 0.4239 0.37318 0.0
C668 C 0.58487 0.34531 0.49005 0.0
C669 C 0.63263 0.38552 0.44801 0.0
C670 C 0.56662 0.34074 0.52804 0.0
C671 C 0.58025 0.35973 0.56588 0.0
C672 C 0.61687 0.36937 0.48997 0.0
C673 C 0.6133 0.37943 0.56687 0.0
C674 C 0.62164 0.37151 0.40592 0.0
C675 C 0.66027 0.43643 0.41417 0.0
N676 N 0.63028 0.38453 0.52896 0.0
N677 N 0.65291 0.41728 0.45033 0.0
H678 H 0.21297 0.53554 0.84194 0.0
H679 H 0.23792 0.61422 0.6576 0.0
H680 H 0.23736 0.62021 0.91644 0.0
H681 H 0.21696 0.67262 0.74239 0.0
H682 H 0.26251 0.60335 0.72084 0.0
H683 H 0.23777 0.5676 0.77636 0.0
C684 C 0.22478 0.56104 0.84492 0.0
C685 C 0.22213 0.57513 0.88411 0.0
C686 C 0.25313 0.61906 0.7255 0.0
C687 C 0.25036 0.61228 0.80906 0.0
C688 C 0.23949 0.62575 0.68914 0.0
C689 C 0.22408 0.64324 0.69533 0.0
C690 C 0.2506 0.62942 0.76819 0.0
C691 C 0.22741 0.65792 0.73672 0.0
C692 C 0.23923 0.57956 0.80739 0.0
C693 C 0.23832 0.60828 0.88656 0.0
N694 N 0.2395 0.64993 0.772 0.0
N695 N 0.25075 0.62568 0.84903 0.0
H696 H 0.3768 0.96332 1.02275 0.0
H697 H 0.51137 0.05445 0.216 0.0
H698 H 0.46763 0.96898 1.02339 0.0
H699 H 0.41579 0.03493 0.23324 0.0
H700 H 0.49613 0.02674 0.14401 0.0
H701 H 0.39029 0.99138 1.09547 0.0
C702 C 0.39964 0.9704 1.03764 0.0
C703 C 0.42081 0.96312 1.01527 0.0
C704 C 0.47823 0.02816 0.16337 0.0
C705 C 0.43695 0.99647 1.10098 0.0
C706 C 0.48703 0.04437 0.20514 0.0
C707 C 0.46517 0.04766 0.23254 0.0
C708 C 0.44692 0.01445 0.14681 0.0
C709 C 0.43395 0.03348 0.21459 0.0
C710 C 0.40738 0.98657 1.07981 0.0
C711 C 0.45004 0.97347 1.03805 0.0
N712 N 0.42601 0.01791 0.17366 0.0
N713 N 0.45703 0.98931 1.07848 0.0
H714 H 0.50759 0.4715 0.35622 0.0
H715 H 0.38552 0.41312 0.56759 0.0
H716 H 0.42715 0.37741 0.36163 0.0
H717 H 0.46293 0.50804 0.55095 0.0
H718 H 0.39984 0.39857 0.49566 0.0
H719 H 0.4917 0.48361 0.4276 0.0
C720 C 0.48651 0.45305 0.37208 0.0
C721 C 0.46909 0.42304 0.35111 0.0
C722 C 0.41377 0.42263 0.5076 0.0
C723 C 0.45008 0.43744 0.43641 0.0
C724 C 0.40554 0.43109 0.54927 0.0
C725 C 0.42268 0.46222 0.56695 0.0
C726 C 0.43978 0.44514 0.48208 0.0
C727 C 0.44848 0.4838 0.54001 0.0
C728 C 0.47732 0.46021 0.41358 0.0
C729 C 0.44183 0.40087 0.37521 0.0
N730 N 0.45599 0.47498 0.50006 0.0
N731 N 0.43343 0.40841 0.41577 0.0
H732 H 0.04728 0.4189 0.69132 0.0
H733 H 0.96666 0.46628 0.89384 0.0
H734 H 0.04107 0.50367 0.69444 0.0
H735 H 0.96856 0.3792 0.8968 0.0
H736 H 0.9937 0.47902 0.82174 0.0
H737 H 0.01983 0.40349 0.76439 0.0
C738 C 0.04039 0.43449 0.70694 0.0
C739 C 0.0472 0.46303 0.68507 0.0
C740 C 0.98848 0.45713 0.83786 0.0
C741 C 0.01474 0.44494 0.7712 0.0
C742 C 0.97269 0.44959 0.87978 0.0
C743 C 0.96463 0.42128 0.90322 0.0
C744 C 0.99723 0.43663 0.81728 0.0
C745 C 0.97377 0.40127 0.88124 0.0
C746 C 0.02446 0.42551 0.74921 0.0
C747 C 0.03695 0.48155 0.70863 0.0
N748 N 0.98931 0.40925 0.84036 0.0
N749 N 0.02167 0.47235 0.7493 0.0
H750 H 0.4979 0.96052 0.22122 0.0
H751 H 0.62227 0.02817 1.01278 0.0
H752 H 0.58235 0.95355 0.22125 0.0
H753 H 0.54297 0.04295 1.02712 0.0
H754 H 0.60823 0.99959 1.08506 0.0
H755 H 0.51341 0.98786 0.14922 0.0
C756 C 0.51983 0.96458 0.2065 0.0
C757 C 0.53847 0.95401 0.22915 0.0
C758 C 0.5938 0.00903 1.07253 0.0
C759 C 0.55714 0.98691 0.14331 0.0
C760 C 0.60187 0.02555 1.03064 0.0
C761 C 0.58412 0.0387 1.01222 0.0
C762 C 0.56732 0.00481 1.09746 0.0
C763 C 0.55788 0.03382 1.03863 0.0
C764 C 0.52882 0.98061 0.16469 0.0
C765 C 0.56672 0.96075 0.20636 0.0
N766 N 0.5505 0.01761 1.07875 0.0
N767 N 0.57495 0.97644 0.16552 0.0
H768 H 0.53992 0.512 0.5671 0.0
H769 H 0.59982 0.62089 0.34116 0.0
H770 H 0.63805 0.58132 0.54834 0.0
H771 H 0.50326 0.54955 0.36612 0.0
H772 H 0.61501 0.60809 0.41413 0.0
H773 H 0.5275 0.52623 0.49439 0.0
C774 C 0.55919 0.53034 0.54807 0.0
C775 C 0.59043 0.54514 0.5658 0.0
C776 C 0.59045 0.59516 0.4038 0.0
C777 C 0.57561 0.56222 0.47875 0.0
C778 C 0.58161 0.60254 0.36151 0.0
C779 C 0.54983 0.58661 0.34575 0.0
C780 C 0.56764 0.5714 0.43206 0.0
C781 C 0.52801 0.56297 0.37536 0.0
C782 C 0.55185 0.53854 0.50574 0.0
C783 C 0.6136 0.56883 0.53752 0.0
N784 N 0.53717 0.55636 0.41592 0.0
N785 N 0.60581 0.57643 0.4963 0.0
H786 H 0.05275 0.5471 0.87865 0.0
H787 H 0.95881 0.58857 0.68719 0.0
H788 H 0.04024 0.62785 0.8918 0.0
H789 H 0.97804 0.51187 0.67887 0.0
H790 H 0.98711 0.6038 0.76004 0.0
H791 H 0.02576 0.53531 0.80616 0.0
C792 C 0.04441 0.56259 0.86674 0.0
C793 C 0.04953 0.58887 0.89309 0.0
C794 C 0.9852 0.58363 0.74234 0.0
C795 C 0.01667 0.5744 0.80701 0.0
C796 C 0.96883 0.57478 0.70017 0.0
C797 C 0.96539 0.54854 0.6752 0.0
C798 C 0.99872 0.56634 0.76108 0.0
C799 C 0.97948 0.53218 0.69552 0.0
C800 C 0.02861 0.55557 0.82465 0.0
C801 C 0.03749 0.60743 0.87382 0.0
N802 N 0.99503 0.54116 0.73617 0.0
N803 N 0.02182 0.59986 0.83285 0.0
H804 H 0.47084 0.05149 0.492 0.0
H805 H 0.54631 0.03132 0.394 0.0
H806 H 0.46102 0.97774 0.4042 0.0
H807 H 0.55093 0.95918 0.46982 0.0
H808 H 0.54178 0.05376 0.46434 0.0
H809 H 0.49758 0.03571 0.54674 0.0
C810 C 0.4733 0.03114 0.48503 0.0
C811 C 0.46881 0.01884 0.44153 0.0
C812 C 0.54383 0.03277 0.46586 0.0
C813 C 0.49619 0.99943 0.50395 0.0
C814 C 0.54614 0.01995 0.42516 0.0
C815 C 0.54341 0.99011 0.42568 0.0
C816 C 0.5306 0.01144 0.5021 0.0
C817 C 0.54616 0.97834 0.46735 0.0
C818 C 0.48742 0.02141 0.51709 0.0
C819 C 0.46795 0.99016 0.4358 0.0
N820 N 0.53853 0.98853 0.50495 0.0
N821 N 0.48059 0.98033 0.46831 0.0
H822 H 0.42142 0.46537 0.82277 0.0
H823 H 0.52699 0.55228 0.7416 0.0
H824 H 0.49148 0.46407 0.73789 0.0
H825 H 0.596 0.54907 0.82806 0.0
H826 H 0.49233 0.53933 0.80593 0.0
H827 H 0.46071 0.48905 0.88233 0.0
C828 C 0.44489 0.46902 0.81732 0.0
C829 C 0.45519 0.46758 0.7741 0.0
C830 C 0.51548 0.54204 0.81138 0.0
C831 C 0.49845 0.49156 0.84186 0.0
C832 C 0.53496 0.54905 0.77398 0.0
C833 C 0.56267 0.54763 0.77847 0.0
C834 C 0.52048 0.52572 0.84678 0.0
C835 C 0.57266 0.54562 0.82191 0.0
C836 C 0.46687 0.48135 0.85201 0.0
C837 C 0.484 0.46848 0.76972 0.0
N838 N 0.55088 0.53339 0.85502 0.0
N839 N 0.50468 0.47948 0.80455 0.0
H840 H 0.96249 0.42917 0.16449 0.0
H841 H 0.97084 0.51646 1.05861 0.0
H842 H 0.03283 0.49446 1.07426 0.0
H843 H 0.04005 0.59998 0.12699 0.0
H844 H 0.95131 0.49201 0.13128 0.0
H845 H 0.97387 0.47266 0.21543 0.0
C846 C 0.98111 0.45265 0.15614 0.0
C847 C 0.99319 0.45989 1.11257 0.0
C848 C 0.97088 0.51605 0.13069 0.0
C849 C 0.0081 0.50811 0.17099 0.0
C850 C 0.98198 0.52976 1.08869 0.0
C851 C 0.01032 0.55856 1.08675 0.0
C852 C 0.99303 0.52773 0.16635 0.0
C853 C 0.02186 0.57546 0.12694 0.0
C854 C 0.98849 0.47721 0.18615 0.0
C855 C 0.02029 0.48902 1.10566 0.0
N856 N 0.01383 0.55934 0.1662 0.0
N857 N 0.02784 0.51236 0.13608 0.0
H858 H 0.97004 0.45974 0.51895 0.0
H859 H 0.96164 0.53974 0.41279 0.0
H860 H 0.03824 0.44498 0.4493 0.0
H861 H 0.03212 0.54464 0.50384 0.0
H862 H 0.97299 0.50768 0.36207 0.0
H863 H 0.95087 0.46644 0.44695 0.0
C864 C 0.98096 0.45778 0.48865 0.0
C865 C 0.00894 0.45662 0.49023 0.0
C866 C 0.98773 0.51782 0.3914 0.0
C867 C 0.9919 0.47164 0.41129 0.0
C868 C 0.98057 0.53524 0.42119 0.0
C869 C 0.99271 0.54012 0.46491 0.0
C870 C 0.00716 0.50632 0.40686 0.0
C871 C 0.01964 0.53774 0.47222 0.0
C872 C 0.96997 0.46127 0.44695 0.0
C873 C 0.02028 0.45164 0.44974 0.0
N874 N 0.02694 0.52169 0.44201 0.0
N875 N 0.01248 0.46057 0.4109 0.0
H876 H 0.48511 0.03168 0.84008 0.0
H877 H 0.5844 0.04455 0.75427 0.0
H878 H 0.41086 0.95752 0.76208 0.0
H879 H 0.51492 0.97334 0.84012 0.0
H880 H 0.54417 0.03039 0.69641 0.0
H881 H 0.51608 0.05112 0.77191 0.0
C882 C 0.47524 0.01963 0.80875 0.0
C883 C 0.44712 0.99065 0.80749 0.0
C884 C 0.53825 0.01618 0.72644 0.0
C885 C 0.48522 0.00842 0.73454 0.0
C886 C 0.56085 0.02498 0.7602 0.0
C887 C 0.55118 0.01295 0.80351 0.0
C888 C 0.50668 0.99545 0.73764 0.0
C889 C 0.52207 0.98547 0.80837 0.0
C890 C 0.49258 0.03078 0.76922 0.0
C891 C 0.43455 0.97748 0.76537 0.0
N892 N 0.50072 0.97672 0.77449 0.0
N893 N 0.45428 0.98598 0.72975 0.0
H894 H 0.54148 0.58428 1.08536 0.0
H895 H 0.46371 0.49339 0.18345 0.0
H896 H 0.54889 0.51844 0.1726 0.0
H897 H 0.4543 0.41274 1.11308 0.0
H898 H 0.46959 0.51904 1.11154 0.0
H899 H 0.51326 0.54216 1.03079 0.0
C900 C 0.53828 0.56113 1.09221 0.0
C901 C 0.54268 0.55294 0.1356 0.0
C902 C 0.4661 0.49542 1.11148 0.0
C903 C 0.51292 0.50629 1.07359 0.0
C904 C 0.46305 0.48105 0.1531 0.0
C905 C 0.46397 0.45299 0.15458 0.0
C906 C 0.47825 0.48535 1.07621 0.0
C907 C 0.4602 0.4371 1.1139 0.0
C908 C 0.52317 0.53739 1.06025 0.0
C909 C 0.54208 0.52435 0.14118 0.0
N910 N 0.46866 0.45402 1.07531 0.0
N911 N 0.52816 0.5019 1.10896 0.0
H912 H 0.29452 1.00325 0.75807 0.0
H913 H 0.29706 0.01653 0.49433 0.0
H914 H 0.26114 0.92444 0.6672 0.0
H915 H 0.35311 0.09397 0.58395 0.0
H916 H 0.26675 0.98459 0.55796 0.0
H917 H 0.29845 0.03725 0.6956 0.0
C918 C 0.28705 0.99288 0.72518 0.0
C919 C 0.27808 0.96115 0.7175 0.0
C920 C 0.28515 0.00884 0.56356 0.0
C921 C 0.28294 0.99994 0.64606 0.0
C922 C 0.30233 0.02717 0.52724 0.0
C923 C 0.32806 0.0577 0.53412 0.0
C924 C 0.29387 0.02115 0.60691 0.0
C925 C 0.33391 0.07024 0.57746 0.0
C926 C 0.28949 0.01234 0.68953 0.0
C927 C 0.26882 0.94896 0.67425 0.0
N928 N 0.31731 0.0517 0.6124 0.0
N929 N 0.27199 0.96852 0.63994 0.0
H930 H 0.29612 0.26851 1.07937 0.0
H931 H 0.31287 0.29191 0.81812 0.0
H932 H 0.36085 0.25358 0.99927 0.0
H933 H 0.26471 0.32459 0.90451 0.0
H934 H 0.31525 0.26009 0.87957 0.0
H935 H 0.26884 0.26926 1.01186 0.0
C936 C 0.30402 0.26423 1.04778 0.0
C937 C 0.33153 0.26192 1.04503 0.0
C938 C 0.30349 0.27362 0.88475 0.0
C939 C 0.30082 0.2639 0.96731 0.0
C940 C 0.302 0.29168 0.84968 0.0
C941 C 0.28913 0.31135 0.85666 0.0
C942 C 0.29201 0.27532 0.92695 0.0
C943 C 0.27547 0.31026 0.89815 0.0
C944 C 0.28854 0.26504 1.00906 0.0
C945 C 0.34042 0.25652 1.00287 0.0
N946 N 0.27769 0.29293 0.93196 0.0
N947 N 0.3256 0.25851 0.9655 0.0
H948 H 0.97818 0.26605 0.20272 0.0
H949 H 0.13327 0.37299 0.3406 0.0
H950 H 0.06097 0.34784 0.15054 0.0
H951 H 0.04518 0.29949 0.39513 0.0
H952 H 0.11438 0.3515 0.26592 0.0
H953 H 0.0095 0.26558 0.26606 0.0
C954 C 1.00317 0.28339 0.20388 0.0
C955 C 0.01679 0.3076 0.17198 0.0
C956 C 0.09959 0.33958 0.29444 0.0
C957 C 0.05259 0.30761 0.24493 0.0
C958 C 0.11033 0.35187 0.33709 0.0
C959 C 0.09036 0.33879 0.37413 0.0
C960 C 0.06865 0.31414 0.28891 0.0
C961 C 0.06134 0.31078 0.36771 0.0
C962 C 0.02103 0.28322 0.24024 0.0
C963 C 0.0493 0.32939 0.17524 0.0
N964 N 0.05105 0.29988 0.32581 0.0
N965 N 0.06596 0.32931 0.21163 0.0
H966 H 0.74876 0.06164 0.68073 0.0
H967 H 0.64812 0.89186 0.58004 0.0
H968 H 0.69203 0.97835 0.75984 0.0
H969 H 0.7114 0.97469 0.50394 0.0
H970 H 0.67496 0.91981 0.64843 0.0
H971 H 0.74651 0.02798 0.61899 0.0
C972 C 0.73633 0.03625 0.68529 0.0
C973 C 0.72002 0.02269 0.72497 0.0
C974 C 0.68354 0.93156 0.61664 0.0
C975 C 0.7168 0.98395 0.65442 0.0
C976 C 0.66819 0.91558 0.57757 0.0
C977 C 0.67683 0.93123 0.53626 0.0
C978 C 0.70739 0.96347 0.61428 0.0
C979 C 0.70356 0.96167 0.53494 0.0
C980 C 0.7351 0.01699 0.65015 0.0
C981 C 0.70474 0.98972 0.72961 0.0
N982 N 0.71735 0.97705 0.57346 0.0
N983 N 0.70287 0.97142 0.69435 0.0
H984 H 0.65328 0.74807 0.99221 0.0
H985 H 0.75988 0.68563 0.89194 0.0
H986 H 0.71386 0.72584 1.07082 0.0
H987 H 0.70359 0.71316 0.81279 0.0
H988 H 0.75484 0.71393 0.95564 0.0
H989 H 0.68229 0.74928 0.92528 0.0
C990 C 0.67314 0.7441 0.99544 0.0
C991 C 0.68075 0.73613 1.03685 0.0
C992 C 0.74422 0.71447 0.92406 0.0
C993 C 0.71374 0.73701 0.96055 0.0
C994 C 0.74709 0.69829 0.88774 0.0
C995 C 0.73151 0.69647 0.84744 0.0
C996 C 0.72515 0.72839 0.92017 0.0
C997 C 0.71577 0.71375 0.84339 0.0
C998 C 0.68976 0.74486 0.95728 0.0
C999 C 0.70705 0.73184 1.03946 0.0
N1000 N 0.71235 0.72838 0.87965 0.0
N1001 N 0.72216 0.73162 1.00164 0.0
H1002 H 0.12107 0.75854 0.24613 0.0
H1003 H 0.03428 0.72392 0.43627 0.0
H1004 H 0.03799 0.74599 0.17632 0.0
H1005 H 0.95542 0.68967 0.34478 0.0
H1006 H 0.06952 0.75664 0.37682 0.0
H1007 H 0.09632 0.75795 0.31653 0.0
C1008 C 0.098 0.75666 0.24553 0.0
C1009 C 0.08124 0.75125 0.20522 0.0
C1010 C 0.04456 0.74211 0.36957 0.0
C1011 C 0.05259 0.75091 0.28596 0.0
C1012 C 0.02431 0.72374 0.40381 0.0
C1013 C 0.99205 0.70336 0.39498 0.0
C1014 C 0.03235 0.73966 0.32619 0.0
C1015 C 0.98033 0.70431 0.35256 0.0
C1016 C 0.08382 0.75654 0.28597 0.0
C1017 C 0.05182 0.74987 0.2064 0.0
N1018 N 1.00055 0.7217 0.31959 0.0
N1019 N 0.03814 0.74885 0.24614 0.0
H1020 H 0.49003 0.10756 0.5413 0.0
H1021 H 0.62237 0.09965 0.70463 0.0
H1022 H 0.57321 0.10889 0.49137 0.0
H1023 H 0.54524 0.10943 0.75476 0.0
H1024 H 0.60446 0.10159 0.6275 0.0
H1025 H 0.50864 0.10695 0.61846 0.0
C1026 C 0.51221 0.10792 0.54592 0.0
C1027 C 0.52956 0.10826 0.5078 0.0
C1028 C 0.59138 0.10337 0.65535 0.0
C1029 C 0.55156 0.10714 0.59894 0.0
C1030 C 0.60187 0.10239 0.70006 0.0
C1031 C 0.58577 0.10432 0.73821 0.0
C1032 C 0.56418 0.10626 0.6471 0.0
C1033 C 0.55896 0.10763 0.72785 0.0
C1034 C 0.52294 0.10741 0.59065 0.0
C1035 C 0.55825 0.10843 0.51823 0.0
N1036 N 0.54927 0.10832 0.68454 0.0
N1037 N 0.56792 0.10775 0.56154 0.0
H1038 H 0.38602 0.4849 0.87505 0.0
H1039 H 0.5231 0.62135 1.03739 0.0
H1040 H 0.46514 0.5702 0.82437 0.0
H1041 H 0.43746 0.54273 1.08813 0.0
H1042 H 0.5036 0.60266 0.96041 0.0
H1043 H 0.40484 0.50423 0.95206 0.0
C1044 C 0.40717 0.50768 0.87946 0.0
C1045 C 0.42351 0.52543 0.84116 0.0
C1046 C 0.48895 0.58941 0.98835 0.0
C1047 C 0.44618 0.54832 0.93219 0.0
C1048 C 0.5002 0.60036 1.03299 0.0
C1049 C 0.48246 0.58404 1.0713 0.0
C1050 C 0.45937 0.5615 0.98029 0.0
C1051 C 0.45278 0.55659 1.0611 0.0
C1052 C 0.41816 0.51885 0.92411 0.0
C1053 C 0.45116 0.55493 0.85137 0.0
N1054 N 0.44263 0.54646 1.01787 0.0
N1055 N 0.46133 0.565 0.89461 0.0
H1056 H 0.89482 0.46087 0.15544 0.0
H1057 H 0.89391 0.43649 0.42401 0.0
H1058 H 0.90947 0.38854 0.2134 0.0
H1059 H 0.90816 0.52337 0.36638 0.0
H1060 H 0.89489 0.41688 0.34907 0.0
H1061 H 0.89509 0.48111 0.23039 0.0
C1062 C 0.89795 0.44881 0.18365 0.0
C1063 C 0.9022 0.42243 0.17614 0.0
C1064 C 0.89775 0.44022 0.35238 0.0
C1065 C 0.90193 0.44627 0.26568 0.0
C1066 C 0.8971 0.45173 0.39587 0.0
C1067 C 0.90111 0.48226 0.40349 0.0
C1068 C 0.90166 0.45856 0.31396 0.0
C1069 C 0.90496 0.49987 0.36381 0.0
C1070 C 0.89818 0.46076 0.22715 0.0
C1071 C 0.90604 0.4087 0.2159 0.0
N1072 N 0.90495 0.48787 0.32171 0.0
N1073 N 0.9056 0.42047 0.25801 0.0
H1074 H 0.43135 0.89368 0.48938 0.0
H1075 H 0.469 0.90767 0.75699 0.0
H1076 H 0.51989 0.90916 0.54299 0.0
H1077 H 0.38234 0.89836 0.70522 0.0
H1078 H 0.48663 0.90746 0.68081 0.0
H1079 H 0.41314 0.89446 0.56548 0.0
C1080 C 0.44725 0.89708 0.51683 0.0
C1081 C 0.47765 0.90102 0.50764 0.0
C1082 C 0.46369 0.90536 0.68555 0.0
C1083 C 0.45586 0.90206 0.5988 0.0
C1084 C 0.45321 0.90543 0.72996 0.0
C1085 C 0.42348 0.9029 0.73989 0.0
C1086 C 0.44474 0.9025 0.64815 0.0
C1087 C 0.40522 0.90023 0.70114 0.0
C1088 C 0.43654 0.8976 0.56108 0.0
C1089 C 0.49632 0.90568 0.54662 0.0
N1090 N 0.41596 0.90003 0.65806 0.0
N1091 N 0.48526 0.90595 0.58936 0.0
H1092 H 0.54508 0.44218 0.82344 0.0
H1093 H 0.57588 0.47072 1.09213 0.0
H1094 H 0.62636 0.52425 0.87766 0.0
H1095 H 0.48972 0.39439 1.03783 0.0
H1096 H 0.59467 0.48922 1.01608 0.0
H1097 H 0.52584 0.42426 0.89948 0.0
C1098 C 0.55936 0.45666 0.85102 0.0
C1099 C 0.58812 0.48518 0.84198 0.0
C1100 C 0.57167 0.46835 1.02031 0.0
C1101 C 0.56504 0.46367 0.93315 0.0
C1102 C 0.56063 0.4574 1.06453 0.0
C1103 C 0.53072 0.43022 1.07353 0.0
C1104 C 0.55326 0.4524 0.98238 0.0
C1105 C 0.51288 0.41514 1.03435 0.0
C1106 C 0.54796 0.44615 0.89524 0.0
C1107 C 0.60435 0.50218 0.88116 0.0
N1108 N 0.5243 0.42616 0.99158 0.0
N1109 N 0.59285 0.49126 0.92393 0.0
H1110 H 0.09312 0.4809 0.37196 0.0
H1111 H 0.09412 0.61685 0.20755 0.0
H1112 H 0.10182 0.56737 0.42197 0.0
H1113 H 0.10228 0.5387 0.15795 0.0
H1114 H 0.09363 0.59802 0.28474 0.0
H1115 H 0.09315 0.49957 0.29482 0.0
C1116 C 0.09512 0.5038 0.36733 0.0
C1117 C 0.09781 0.52224 0.40548 0.0
C1118 C 0.09559 0.58489 0.25707 0.0
C1119 C 0.09738 0.54436 0.31411 0.0
C1120 C 0.0959 0.59583 0.21227 0.0
C1121 C 0.09859 0.58002 0.17423 0.0
C1122 C 0.09755 0.55725 0.26564 0.0
C1123 C 0.10047 0.55248 0.18481 0.0
C1124 C 0.09511 0.51462 0.32257 0.0
C1125 C 0.09999 0.55181 0.39502 0.0
N1126 N 0.09983 0.54229 0.22826 0.0
N1127 N 0.09963 0.56155 0.35157 0.0
loop_
_geom_bond_atom_site_label_1
_geom_bond_atom_site_label_2
_geom_bond_distance
_geom_bond_site_symmetry_2
_ccdc_geom_bond_type
Dy0 O3 2.307 . S
Dy0 O5 2.395 . S
Dy0 O6 2.379 . S
Dy0 O8 2.339 . S
Dy0 O10 2.298 . S
Dy0 O14 2.275 . S
Dy0 C22 2.738 . S
Dy1 O4 2.298 . S
Dy1 O7 2.275 . S
Dy1 O9 2.307 . S
Dy1 O11 2.395 . S
Dy1 O12 2.379 . S
Dy1 O15 2.339 . S
Dy1 C31 2.738 . S
C2 O14 1.254 . S
C2 O15 1.257 . S
O3 Dy0 2.307 . S
O3 C13 1.266 . S
O4 Dy1 2.298 . S
O4 C13 1.236 . S
O5 Dy0 2.395 . S
O5 C22 1.255 . S
O6 Dy0 2.379 . S
O6 C22 1.249 . S
O7 Dy1 2.275 . S
O7 C23 1.254 . S
O8 Dy0 2.339 . S
O8 C23 1.257 . S
O9 Dy1 2.307 . S
O9 C24 1.266 . S
O10 Dy0 2.298 . S
O10 C24 1.236 . S
O11 Dy1 2.395 . S
O11 C31 1.255 . S
O12 Dy1 2.379 . S
O12 C31 1.249 . S
C13 O3 1.266 . S
C13 O4 1.236 . S
O14 Dy0 2.275 . S
O14 C2 1.254 . S
O15 Dy1 2.339 . S
O15 C2 1.257 . S
C16 C19 1.344 . S
C16 C20 1.328 . S
C16 C22 1.516 . S
C17 C18 1.304 . S
C17 C21 1.323 . S
C18 C17 1.304 . S
C18 C19 1.371 . S
C18 H32 0.930 . S
C19 C16 1.344 . S
C19 C18 1.371 . S
C19 H33 0.931 . S
C20 C16 1.328 . S
C20 C21 1.433 . S
C20 H34 0.931 . S
C21 C17 1.323 . S
C21 C20 1.433 . S
C21 H35 0.933 . S
C22 Dy0 2.738 . S
C22 O5 1.255 . S
C22 O6 1.249 . S
C22 C16 1.516 . S
C23 O7 1.254 . S
C23 O8 1.257 . S
C24 O9 1.266 . S
C24 O10 1.236 . S
C25 C28 1.344 . S
C25 C29 1.328 . S
C25 C31 1.516 . S
C26 C27 1.304 . S
C26 C30 1.323 . S
C27 C26 1.304 . S
C27 C28 1.371 . S
C27 H36 0.930 . S
C28 C25 1.344 . S
C28 C27 1.371 . S
C28 H37 0.931 . S
C29 C25 1.328 . S
C29 C30 1.433 . S
C29 H38 0.931 . S
C30 C26 1.323 . S
C30 C29 1.433 . S
C30 H39 0.933 . S
C31 Dy1 2.738 . S
C31 O11 1.255 . S
C31 O12 1.249 . S
C31 C25 1.516 . S
H32 C18 0.930 . S
H33 C19 0.931 . S
H34 C20 0.931 . S
H35 C21 0.933 . S
H36 C27 0.930 . S
H37 C28 0.931 . S
H38 C29 0.931 . S
H39 C30 0.933 . S
Dy40 O43 2.307 . S
Dy40 O45 2.395 . S
Dy40 O46 2.379 . S
Dy40 O48 2.339 . S
Dy40 O50 2.298 . S
Dy40 O54 2.275 . S
Dy40 C62 2.738 . S
Dy41 O44 2.298 . S
Dy41 O47 2.275 . S
Dy41 O49 2.307 . S
Dy41 O51 2.395 . S
Dy41 O52 2.379 . S
Dy41 O55 2.339 . S
Dy41 C71 2.738 . S
C42 O54 1.254 . S
C42 O55 1.257 . S
O43 Dy40 2.307 . S
O43 C53 1.266 . S
O44 Dy41 2.298 . S
O44 C53 1.236 . S
O45 Dy40 2.395 . S
O45 C62 1.255 . S
O46 Dy40 2.379 . S
O46 C62 1.249 . S
O47 Dy41 2.275 . S
O47 C63 1.254 . S
O48 Dy40 2.339 . S
O48 C63 1.257 . S
O49 Dy41 2.307 . S
O49 C64 1.266 . S
O50 Dy40 2.298 . S
O50 C64 1.236 . S
O51 Dy41 2.395 . S
O51 C71 1.255 . S
O52 Dy41 2.379 . S
O52 C71 1.249 . S
C53 O43 1.266 . S
C53 O44 1.236 . S
O54 Dy40 2.275 . S
O54 C42 1.254 . S
O55 Dy41 2.339 . S
O55 C42 1.257 . S
C56 C59 1.344 . S
C56 C60 1.328 . S
C56 C62 1.516 . S
C57 C58 1.304 . S
C57 C61 1.323 . S
C58 C57 1.304 . S
C58 C59 1.371 . S
C58 H72 0.930 . S
C59 C56 1.344 . S
C59 C58 1.371 . S
C59 H73 0.931 . S
C60 C56 1.328 . S
C60 C61 1.433 . S
C60 H74 0.931 . S
C61 C57 1.323 . S
C61 C60 1.433 . S
C61 H75 0.933 . S
C62 Dy40 2.738 . S
C62 O45 1.255 . S
C62 O46 1.249 . S
C62 C56 1.516 . S
C63 O47 1.254 . S
C63 O48 1.257 . S
C64 O49 1.266 . S
C64 O50 1.236 . S
C65 C68 1.344 . S
C65 C69 1.328 . S
C65 C71 1.516 . S
C66 C67 1.304 . S
C66 C70 1.323 . S
C67 C66 1.304 . S
C67 C68 1.371 . S
C67 H76 0.930 . S
C68 C65 1.344 . S
C68 C67 1.371 . S
C68 H77 0.931 . S
C69 C65 1.328 . S
C69 C70 1.433 . S
C69 H78 0.931 . S
C70 C66 1.323 . S
C70 C69 1.433 . S
C70 H79 0.933 . S
C71 Dy41 2.738 . S
C71 O51 1.255 . S
C71 O52 1.249 . S
C71 C65 1.516 . S
H72 C58 0.930 . S
H73 C59 0.931 . S
H74 C60 0.931 . S
H75 C61 0.933 . S
H76 C67 0.930 . S
H77 C68 0.931 . S
H78 C69 0.931 . S
H79 C70 0.933 . S
Dy80 O83 2.307 . S
Dy80 O85 2.395 . S
Dy80 O86 2.379 . S
Dy80 O88 2.339 . S
Dy80 O90 2.298 . S
Dy80 O94 2.275 . S
Dy80 C102 2.738 . S
Dy81 O84 2.298 . S
Dy81 O87 2.275 . S
Dy81 O89 2.307 . S
Dy81 O91 2.395 . S
Dy81 O92 2.379 . S
Dy81 O95 2.339 . S
Dy81 C111 2.738 1_556 S
C82 O94 1.254 . S
C82 O95 1.257 . S
O83 Dy80 2.307 . S
O83 C93 1.266 . S
O84 Dy81 2.298 . S
O84 C93 1.236 . S
O85 Dy80 2.395 . S
O85 C102 1.255 . S
O86 Dy80 2.379 . S
O86 C102 1.249 . S
O87 Dy81 2.275 . S
O87 C103 1.254 . S
O88 Dy80 2.339 . S
O88 C103 1.257 . S
O89 Dy81 2.307 . S
O89 C104 1.266 . S
O90 Dy80 2.298 . S
O90 C104 1.236 . S
O91 Dy81 2.395 . S
O91 C111 1.255 1_556 S
O92 Dy81 2.379 . S
O92 C111 1.249 1_556 S
C93 O83 1.266 . S
C93 O84 1.236 . S
O94 Dy80 2.275 . S
O94 C82 1.254 . S
O95 Dy81 2.339 . S
O95 C82 1.257 . S
C96 C99 1.344 . S
C96 C100 1.328 . S
C96 C102 1.516 . S
C97 C98 1.304 . S
C97 C101 1.323 . S
C98 C97 1.304 . S
C98 C99 1.371 . S
C98 H112 0.930 . S
C99 C96 1.344 . S
C99 C98 1.371 . S
C99 H113 0.931 . S
C100 C96 1.328 . S
C100 C101 1.433 . S
C100 H114 0.931 . S
C101 C97 1.323 . S
C101 C100 1.433 . S
C101 H115 0.933 . S
C102 Dy80 2.738 . S
C102 O85 1.255 . S
C102 O86 1.249 . S
C102 C96 1.516 . S
C103 O87 1.254 . S
C103 O88 1.257 . S
C104 O89 1.266 . S
C104 O90 1.236 . S
C105 C108 1.344 . S
C105 C109 1.328 . S
C105 C111 1.516 . S
C106 C107 1.304 . S
C106 C110 1.323 . S
C107 C106 1.304 . S
C107 C108 1.371 . S
C107 H116 0.930 . S
C108 C105 1.344 . S
C108 C107 1.371 . S
C108 H117 0.931 . S
C109 C105 1.328 . S
C109 C110 1.433 . S
C109 H118 0.931 . S
C110 C106 1.323 . S
C110 C109 1.433 . S
C110 H119 0.933 . S
C111 Dy81 2.738 1_554 S
C111 O91 1.255 1_554 S
C111 O92 1.249 1_554 S
C111 C105 1.516 . S
H112 C98 0.930 . S
H113 C99 0.931 . S
H114 C100 0.931 . S
H115 C101 0.933 . S
H116 C107 0.930 . S
H117 C108 0.931 . S
H118 C109 0.931 . S
H119 C110 0.933 . S
Dy120 O123 2.307 . S
Dy120 O125 2.395 . S
Dy120 O126 2.379 . S
Dy120 O128 2.339 . S
Dy120 O130 2.298 . S
Dy120 O134 2.275 . S
Dy120 C142 2.738 . S
Dy121 O124 2.298 . S
Dy121 O127 2.275 . S
Dy121 O129 2.307 . S
Dy121 O131 2.395 . S
Dy121 O132 2.379 . S
Dy121 O135 2.339 . S
Dy121 C151 2.738 . S
C122 O134 1.254 . S
C122 O135 1.257 . S
O123 Dy120 2.307 . S
O123 C133 1.266 . S
O124 Dy121 2.298 . S
O124 C133 1.236 . S
O125 Dy120 2.395 . S
O125 C142 1.255 . S
O126 Dy120 2.379 . S
O126 C142 1.249 . S
O127 Dy121 2.275 . S
O127 C143 1.254 . S
O128 Dy120 2.339 . S
O128 C143 1.257 . S
O129 Dy121 2.307 . S
O129 C144 1.266 . S
O130 Dy120 2.298 . S
O130 C144 1.236 . S
O131 Dy121 2.395 . S
O131 C151 1.255 . S
O132 Dy121 2.379 . S
O132 C151 1.249 . S
C133 O123 1.266 . S
C133 O124 1.236 . S
O134 Dy120 2.275 . S
O134 C122 1.254 . S
O135 Dy121 2.339 . S
O135 C122 1.257 . S
C136 C139 1.344 . S
C136 C140 1.328 . S
C136 C142 1.516 . S
C137 C138 1.304 . S
C137 C141 1.323 . S
C138 C137 1.304 . S
C138 C139 1.371 . S
C138 H152 0.930 . S
C139 C136 1.344 . S
C139 C138 1.371 . S
C139 H153 0.931 . S
C140 C136 1.328 . S
C140 C141 1.433 . S
C140 H154 0.931 . S
C141 C137 1.323 . S
C141 C140 1.433 . S
C141 H155 0.933 . S
C142 Dy120 2.738 . S
C142 O125 1.255 . S
C142 O126 1.249 . S
C142 C136 1.516 . S
C143 O127 1.254 . S
C143 O128 1.257 . S
C144 O129 1.266 . S
C144 O130 1.236 . S
C145 C148 1.344 . S
C145 C149 1.328 . S
C145 C151 1.516 . S
C146 C147 1.304 . S
C146 C150 1.323 . S
C147 C146 1.304 . S
C147 C148 1.371 . S
C147 H156 0.930 . S
C148 C145 1.344 . S
C148 C147 1.371 . S
C148 H157 0.931 . S
C149 C145 1.328 . S
C149 C150 1.433 . S
C149 H158 0.931 . S
C150 C146 1.323 . S
C150 C149 1.433 . S
C150 H159 0.933 . S
C151 Dy121 2.738 . S
C151 O131 1.255 . S
C151 O132 1.249 . S
C151 C145 1.516 . S
H152 C138 0.930 . S
H153 C139 0.931 . S
H154 C140 0.931 . S
H155 C141 0.933 . S
H156 C147 0.930 . S
H157 C148 0.931 . S
H158 C149 0.931 . S
H159 C150 0.933 . S
Dy160 O163 2.307 . S
Dy160 O165 2.395 . S
Dy160 O166 2.379 . S
Dy160 O168 2.339 . S
Dy160 O170 2.298 . S
Dy160 O174 2.275 . S
Dy160 C182 2.738 . S
Dy161 O164 2.298 . S
Dy161 O167 2.275 . S
Dy161 O169 2.307 . S
Dy161 O171 2.395 . S
Dy161 O172 2.379 . S
Dy161 O175 2.339 . S
Dy161 C191 2.738 . S
C162 O174 1.254 . S
C162 O175 1.257 . S
O163 Dy160 2.307 . S
O163 C173 1.266 . S
O164 Dy161 2.298 . S
O164 C173 1.236 . S
O165 Dy160 2.395 . S
O165 C182 1.255 . S
O166 Dy160 2.379 . S
O166 C182 1.249 . S
O167 Dy161 2.275 . S
O167 C183 1.254 . S
O168 Dy160 2.339 . S
O168 C183 1.257 . S
O169 Dy161 2.307 . S
O169 C184 1.266 . S
O170 Dy160 2.298 . S
O170 C184 1.236 . S
O171 Dy161 2.395 . S
O171 C191 1.255 . S
O172 Dy161 2.379 . S
O172 C191 1.249 . S
C173 O163 1.266 . S
C173 O164 1.236 . S
O174 Dy160 2.275 . S
O174 C162 1.254 . S
O175 Dy161 2.339 . S
O175 C162 1.257 . S
C176 C179 1.344 . S
C176 C180 1.328 . S
C176 C182 1.516 . S
C177 C178 1.304 . S
C177 C181 1.323 . S
C178 C177 1.304 . S
C178 C179 1.371 . S
C178 H192 0.930 . S
C179 C176 1.344 . S
C179 C178 1.371 . S
C179 H193 0.931 . S
C180 C176 1.328 . S
C180 C181 1.433 . S
C180 H194 0.931 . S
C181 C177 1.323 . S
C181 C180 1.433 . S
C181 H195 0.933 . S
C182 Dy160 2.738 . S
C182 O165 1.255 . S
C182 O166 1.249 . S
C182 C176 1.516 . S
C183 O167 1.254 . S
C183 O168 1.257 . S
C184 O169 1.266 . S
C184 O170 1.236 . S
C185 C188 1.344 . S
C185 C189 1.328 . S
C185 C191 1.516 . S
C186 C187 1.304 . S
C186 C190 1.323 . S
C187 C186 1.304 . S
C187 C188 1.371 . S
C187 H196 0.930 . S
C188 C185 1.344 . S
C188 C187 1.371 . S
C188 H197 0.931 . S
C189 C185 1.328 . S
C189 C190 1.433 . S
C189 H198 0.931 . S
C190 C186 1.323 . S
C190 C189 1.433 . S
C190 H199 0.933 . S
C191 Dy161 2.738 . S
C191 O171 1.255 . S
C191 O172 1.249 . S
C191 C185 1.516 . S
H192 C178 0.930 . S
H193 C179 0.931 . S
H194 C180 0.931 . S
H195 C181 0.933 . S
H196 C187 0.930 . S
H197 C188 0.931 . S
H198 C189 0.931 . S
H199 C190 0.933 . S
Dy200 O203 2.307 . S
Dy200 O205 2.395 . S
Dy200 O206 2.379 . S
Dy200 O208 2.339 . S
Dy200 O210 2.298 . S
Dy200 O214 2.275 . S
Dy200 C222 2.738 . S
Dy201 O204 2.298 . S
Dy201 O207 2.275 . S
Dy201 O209 2.307 . S
Dy201 O211 2.395 . S
Dy201 O212 2.379 . S
Dy201 O215 2.339 . S
Dy201 C231 2.738 1_556 S
C202 O214 1.254 . S
C202 O215 1.257 . S
O203 Dy200 2.307 . S
O203 C213 1.266 . S
O204 Dy201 2.298 . S
O204 C213 1.236 . S
O205 Dy200 2.395 . S
O205 C222 1.255 . S
O206 Dy200 2.379 . S
O206 C222 1.249 . S
O207 Dy201 2.275 . S
O207 C223 1.254 . S
O208 Dy200 2.339 . S
O208 C223 1.257 . S
O209 Dy201 2.307 . S
O209 C224 1.266 . S
O210 Dy200 2.298 . S
O210 C224 1.236 . S
O211 Dy201 2.395 . S
O211 C231 1.255 1_556 S
O212 Dy201 2.379 . S
O212 C231 1.249 1_556 S
C213 O203 1.266 . S
C213 O204 1.236 . S
O214 Dy200 2.275 . S
O214 C202 1.254 . S
O215 Dy201 2.339 . S
O215 C202 1.257 . S
C216 C219 1.344 . S
C216 C220 1.328 . S
C216 C222 1.516 . S
C217 C218 1.304 . S
C217 C221 1.323 . S
C218 C217 1.304 . S
C218 C219 1.371 . S
C218 H232 0.930 . S
C219 C216 1.344 . S
C219 C218 1.371 . S
C219 H233 0.931 . S
C220 C216 1.328 . S
C220 C221 1.433 . S
C220 H234 0.931 . S
C221 C217 1.323 . S
C221 C220 1.433 . S
C221 H235 0.933 . S
C222 Dy200 2.738 . S
C222 O205 1.255 . S
C222 O206 1.249 . S
C222 C216 1.516 . S
C223 O207 1.254 . S
C223 O208 1.257 . S
C224 O209 1.266 . S
C224 O210 1.236 . S
C225 C228 1.344 . S
C225 C229 1.328 . S
C225 C231 1.516 . S
C226 C227 1.304 . S
C226 C230 1.323 . S
C227 C226 1.304 . S
C227 C228 1.371 . S
C227 H236 0.930 . S
C228 C225 1.344 . S
C228 C227 1.371 . S
C228 H237 0.931 . S
C229 C225 1.328 . S
C229 C230 1.433 . S
C229 H238 0.931 . S
C230 C226 1.323 . S
C230 C229 1.433 . S
C230 H239 0.933 . S
C231 Dy201 2.738 1_554 S
C231 O211 1.255 1_554 S
C231 O212 1.249 1_554 S
C231 C225 1.516 . S
H232 C218 0.930 . S
H233 C219 0.931 . S
H234 C220 0.931 . S
H235 C221 0.933 . S
H236 C227 0.930 . S
H237 C228 0.931 . S
H238 C229 0.931 . S
H239 C230 0.933 . S
Dy240 O243 2.307 . S
Dy240 O245 2.395 . S
Dy240 O246 2.379 . S
Dy240 O248 2.339 . S
Dy240 O250 2.298 . S
Dy240 O254 2.275 . S
Dy240 C262 2.738 . S
Dy241 O244 2.298 . S
Dy241 O247 2.275 . S
Dy241 O249 2.307 . S
Dy241 O251 2.395 . S
Dy241 O252 2.379 . S
Dy241 O255 2.339 . S
Dy241 C271 2.738 . S
C242 O254 1.254 . S
C242 O255 1.257 . S
O243 Dy240 2.307 . S
O243 C253 1.266 . S
O244 Dy241 2.298 . S
O244 C253 1.236 . S
O245 Dy240 2.395 . S
O245 C262 1.255 . S
O246 Dy240 2.379 . S
O246 C262 1.249 . S
O247 Dy241 2.275 . S
O247 C263 1.254 . S
O248 Dy240 2.339 . S
O248 C263 1.257 . S
O249 Dy241 2.307 . S
O249 C264 1.266 . S
O250 Dy240 2.298 . S
O250 C264 1.236 . S
O251 Dy241 2.395 . S
O251 C271 1.255 . S
O252 Dy241 2.379 . S
O252 C271 1.249 . S
C253 O243 1.266 . S
C253 O244 1.236 . S
O254 Dy240 2.275 . S
O254 C242 1.254 . S
O255 Dy241 2.339 . S
O255 C242 1.257 . S
C256 C259 1.344 . S
C256 C260 1.328 . S
C256 C262 1.516 . S
C257 C258 1.304 . S
C257 C261 1.323 . S
C258 C257 1.304 . S
C258 C259 1.371 . S
C258 H272 0.930 . S
C259 C256 1.344 . S
C259 C258 1.371 . S
C259 H273 0.931 . S
C260 C256 1.328 . S
C260 C261 1.433 . S
C260 H274 0.931 . S
C261 C257 1.323 . S
C261 C260 1.433 . S
C261 H275 0.933 . S
C262 Dy240 2.738 . S
C262 O245 1.255 . S
C262 O246 1.249 . S
C262 C256 1.516 . S
C263 O247 1.254 . S
C263 O248 1.257 . S
C264 O249 1.266 . S
C264 O250 1.236 . S
C265 C268 1.344 . S
C265 C269 1.328 . S
C265 C271 1.516 . S
C266 C267 1.304 . S
C266 C270 1.323 . S
C267 C266 1.304 . S
C267 C268 1.371 . S
C267 H276 0.930 . S
C268 C265 1.344 . S
C268 C267 1.371 . S
C268 H277 0.931 . S
C269 C265 1.328 . S
C269 C270 1.433 . S
C269 H278 0.931 . S
C270 C266 1.323 . S
C270 C269 1.433 . S
C270 H279 0.933 . S
C271 Dy241 2.738 . S
C271 O251 1.255 . S
C271 O252 1.249 . S
C271 C265 1.516 . S
H272 C258 0.930 . S
H273 C259 0.931 . S
H274 C260 0.931 . S
H275 C261 0.933 . S
H276 C267 0.930 . S
H277 C268 0.931 . S
H278 C269 0.931 . S
H279 C270 0.933 . S
Dy280 O283 2.307 . S
Dy280 O285 2.395 . S
Dy280 O286 2.379 . S
Dy280 O288 2.339 . S
Dy280 O290 2.298 . S
Dy280 O294 2.275 . S
Dy280 C302 2.738 . S
Dy281 O284 2.298 . S
Dy281 O287 2.275 . S
Dy281 O289 2.307 . S
Dy281 O291 2.395 . S
Dy281 O292 2.379 . S
Dy281 O295 2.339 . S
Dy281 C311 2.738 . S
C282 O294 1.254 . S
C282 O295 1.257 . S
O283 Dy280 2.307 . S
O283 C293 1.266 . S
O284 Dy281 2.298 . S
O284 C293 1.236 . S
O285 Dy280 2.395 . S
O285 C302 1.255 . S
O286 Dy280 2.379 . S
O286 C302 1.249 . S
O287 Dy281 2.275 . S
O287 C303 1.254 . S
O288 Dy280 2.339 . S
O288 C303 1.257 . S
O289 Dy281 2.307 . S
O289 C304 1.266 . S
O290 Dy280 2.298 . S
O290 C304 1.236 . S
O291 Dy281 2.395 . S
O291 C311 1.255 . S
O292 Dy281 2.379 . S
O292 C311 1.249 . S
C293 O283 1.266 . S
C293 O284 1.236 . S
O294 Dy280 2.275 . S
O294 C282 1.254 . S
O295 Dy281 2.339 . S
O295 C282 1.257 . S
C296 C299 1.344 . S
C296 C300 1.328 . S
C296 C302 1.516 . S
C297 C298 1.304 . S
C297 C301 1.323 . S
C298 C297 1.304 . S
C298 C299 1.371 . S
C298 H312 0.930 . S
C299 C296 1.344 . S
C299 C298 1.371 . S
C299 H313 0.931 . S
C300 C296 1.328 . S
C300 C301 1.433 . S
C300 H314 0.931 . S
C301 C297 1.323 . S
C301 C300 1.433 . S
C301 H315 0.933 . S
C302 Dy280 2.738 . S
C302 O285 1.255 . S
C302 O286 1.249 . S
C302 C296 1.516 . S
C303 O287 1.254 . S
C303 O288 1.257 . S
C304 O289 1.266 . S
C304 O290 1.236 . S
C305 C308 1.344 . S
C305 C309 1.328 . S
C305 C311 1.516 . S
C306 C307 1.304 . S
C306 C310 1.323 . S
C307 C306 1.304 . S
C307 C308 1.371 . S
C307 H316 0.930 . S
C308 C305 1.344 . S
C308 C307 1.371 . S
C308 H317 0.931 . S
C309 C305 1.328 . S
C309 C310 1.433 . S
C309 H318 0.931 . S
C310 C306 1.323 . S
C310 C309 1.433 . S
C310 H319 0.933 . S
C311 Dy281 2.738 . S
C311 O291 1.255 . S
C311 O292 1.249 . S
C311 C305 1.516 . S
H312 C298 0.930 . S
H313 C299 0.931 . S
H314 C300 0.931 . S
H315 C301 0.933 . S
H316 C307 0.930 . S
H317 C308 0.931 . S
H318 C309 0.931 . S
H319 C310 0.933 . S
Dy320 O323 2.307 . S
Dy320 O325 2.395 . S
Dy320 O326 2.379 . S
Dy320 O328 2.339 . S
Dy320 O330 2.298 . S
Dy320 O334 2.275 . S
Dy320 C342 2.738 . S
Dy321 O324 2.298 . S
Dy321 O327 2.275 . S
Dy321 O329 2.307 . S
Dy321 O331 2.395 . S
Dy321 O332 2.379 . S
Dy321 O335 2.339 . S
Dy321 C351 2.738 1_554 S
C322 O334 1.254 . S
C322 O335 1.257 . S
O323 Dy320 2.307 . S
O323 C333 1.266 . S
O324 Dy321 2.298 . S
O324 C333 1.236 . S
O325 Dy320 2.395 . S
O325 C342 1.255 . S
O326 Dy320 2.379 . S
O326 C342 1.249 . S
O327 Dy321 2.275 . S
O327 C343 1.254 . S
O328 Dy320 2.339 . S
O328 C343 1.257 . S
O329 Dy321 2.307 . S
O329 C344 1.266 . S
O330 Dy320 2.298 . S
O330 C344 1.236 . S
O331 Dy321 2.395 . S
O331 C351 1.255 1_554 S
O332 Dy321 2.379 . S
O332 C351 1.249 1_554 S
C333 O323 1.266 . S
C333 O324 1.236 . S
O334 Dy320 2.275 . S
O334 C322 1.254 . S
O335 Dy321 2.339 . S
O335 C322 1.257 . S
C336 C339 1.344 . S
C336 C340 1.328 . S
C336 C342 1.516 . S
C337 C338 1.304 . S
C337 C341 1.323 . S
C338 C337 1.304 . S
C338 C339 1.371 . S
C338 H352 0.930 . S
C339 C336 1.344 . S
C339 C338 1.371 . S
C339 H353 0.931 . S
C340 C336 1.328 . S
C340 C341 1.433 . S
C340 H354 0.931 . S
C341 C337 1.323 . S
C341 C340 1.433 . S
C341 H355 0.933 . S
C342 Dy320 2.738 . S
C342 O325 1.255 . S
C342 O326 1.249 . S
C342 C336 1.516 . S
C343 O327 1.254 . S
C343 O328 1.257 . S
C344 O329 1.266 . S
C344 O330 1.236 . S
C345 C348 1.344 . S
C345 C349 1.328 . S
C345 C351 1.516 . S
C346 C347 1.304 . S
C346 C350 1.323 . S
C347 C346 1.304 . S
C347 C348 1.371 . S
C347 H356 0.930 . S
C348 C345 1.344 . S
C348 C347 1.371 . S
C348 H357 0.931 . S
C349 C345 1.328 . S
C349 C350 1.433 . S
C349 H358 0.931 . S
C350 C346 1.323 . S
C350 C349 1.433 . S
C350 H359 0.933 . S
C351 Dy321 2.738 1_556 S
C351 O331 1.255 1_556 S
C351 O332 1.249 1_556 S
C351 C345 1.516 . S
H352 C338 0.930 . S
H353 C339 0.931 . S
H354 C340 0.931 . S
H355 C341 0.933 . S
H356 C347 0.930 . S
H357 C348 0.931 . S
H358 C349 0.931 . S
H359 C350 0.933 . S
Dy360 O363 2.307 . S
Dy360 O365 2.395 . S
Dy360 O366 2.379 . S
Dy360 O368 2.339 . S
Dy360 O370 2.298 . S
Dy360 O374 2.275 . S
Dy360 C382 2.738 . S
Dy361 O364 2.298 . S
Dy361 O367 2.275 . S
Dy361 O369 2.307 . S
Dy361 O371 2.395 . S
Dy361 O372 2.379 . S
Dy361 O375 2.339 . S
Dy361 C391 2.738 . S
C362 O374 1.254 . S
C362 O375 1.257 . S
O363 Dy360 2.307 . S
O363 C373 1.266 . S
O364 Dy361 2.298 . S
O364 C373 1.236 . S
O365 Dy360 2.395 . S
O365 C382 1.255 . S
O366 Dy360 2.379 . S
O366 C382 1.249 . S
O367 Dy361 2.275 . S
O367 C383 1.254 . S
O368 Dy360 2.339 . S
O368 C383 1.257 . S
O369 Dy361 2.307 . S
O369 C384 1.266 . S
O370 Dy360 2.298 . S
O370 C384 1.236 . S
O371 Dy361 2.395 . S
O371 C391 1.255 . S
O372 Dy361 2.379 . S
O372 C391 1.249 . S
C373 O363 1.266 . S
C373 O364 1.236 . S
O374 Dy360 2.275 . S
O374 C362 1.254 . S
O375 Dy361 2.339 . S
O375 C362 1.257 . S
C376 C379 1.344 . S
C376 C380 1.328 . S
C376 C382 1.516 . S
C377 C378 1.304 . S
C377 C381 1.323 . S
C378 C377 1.304 . S
C378 C379 1.371 . S
C378 H392 0.930 . S
C379 C376 1.344 . S
C379 C378 1.371 . S
C379 H393 0.931 . S
C380 C376 1.328 . S
C380 C381 1.433 . S
C380 H394 0.931 . S
C381 C377 1.323 . S
C381 C380 1.433 . S
C381 H395 0.933 . S
C382 Dy360 2.738 . S
C382 O365 1.255 . S
C382 O366 1.249 . S
C382 C376 1.516 . S
C383 O367 1.254 . S
C383 O368 1.257 . S
C384 O369 1.266 . S
C384 O370 1.236 . S
C385 C388 1.344 . S
C385 C389 1.328 . S
C385 C391 1.516 . S
C386 C387 1.304 . S
C386 C390 1.323 . S
C387 C386 1.304 . S
C387 C388 1.371 . S
C387 H396 0.930 . S
C388 C385 1.344 . S
C388 C387 1.371 . S
C388 H397 0.931 . S
C389 C385 1.328 . S
C389 C390 1.433 . S
C389 H398 0.931 . S
C390 C386 1.323 . S
C390 C389 1.433 . S
C390 H399 0.933 . S
C391 Dy361 2.738 . S
C391 O371 1.255 . S
C391 O372 1.249 . S
C391 C385 1.516 . S
H392 C378 0.930 . S
H393 C379 0.931 . S
H394 C380 0.931 . S
H395 C381 0.933 . S
H396 C387 0.930 . S
H397 C388 0.931 . S
H398 C389 0.931 . S
H399 C390 0.933 . S
Dy400 O403 2.307 . S
Dy400 O405 2.395 . S
Dy400 O406 2.379 . S
Dy400 O408 2.339 . S
Dy400 O410 2.298 . S
Dy400 O414 2.275 . S
Dy400 C422 2.738 . S
Dy401 O404 2.298 . S
Dy401 O407 2.275 . S
Dy401 O409 2.307 . S
Dy401 O411 2.395 . S
Dy401 O412 2.379 . S
Dy401 O415 2.339 . S
Dy401 C431 2.738 . S
C402 O414 1.254 . S
C402 O415 1.257 . S
O403 Dy400 2.307 . S
O403 C413 1.266 . S
O404 Dy401 2.298 . S
O404 C413 1.236 . S
O405 Dy400 2.395 . S
O405 C422 1.255 . S
O406 Dy400 2.379 . S
O406 C422 1.249 . S
O407 Dy401 2.275 . S
O407 C423 1.254 . S
O408 Dy400 2.339 . S
O408 C423 1.257 . S
O409 Dy401 2.307 . S
O409 C424 1.266 . S
O410 Dy400 2.298 . S
O410 C424 1.236 . S
O411 Dy401 2.395 . S
O411 C431 1.255 . S
O412 Dy401 2.379 . S
O412 C431 1.249 . S
C413 O403 1.266 . S
C413 O404 1.236 . S
O414 Dy400 2.275 . S
O414 C402 1.254 . S
O415 Dy401 2.339 . S
O415 C402 1.257 . S
C416 C419 1.344 . S
C416 C420 1.328 . S
C416 C422 1.516 . S
C417 C418 1.304 . S
C417 C421 1.323 . S
C418 C417 1.304 . S
C418 C419 1.371 . S
C418 H432 0.930 . S
C419 C416 1.344 . S
C419 C418 1.371 . S
C419 H433 0.931 . S
C420 C416 1.328 . S
C420 C421 1.433 . S
C420 H434 0.931 . S
C421 C417 1.323 . S
C421 C420 1.433 . S
C421 H435 0.933 . S
C422 Dy400 2.738 . S
C422 O405 1.255 . S
C422 O406 1.249 . S
C422 C416 1.516 . S
C423 O407 1.254 . S
C423 O408 1.257 . S
C424 O409 1.266 . S
C424 O410 1.236 . S
C425 C428 1.344 . S
C425 C429 1.328 . S
C425 C431 1.516 . S
C426 C427 1.304 . S
C426 C430 1.323 . S
C427 C426 1.304 . S
C427 C428 1.371 . S
C427 H436 0.930 . S
C428 C425 1.344 . S
C428 C427 1.371 . S
C428 H437 0.931 . S
C429 C425 1.328 . S
C429 C430 1.433 . S
C429 H438 0.931 . S
C430 C426 1.323 . S
C430 C429 1.433 . S
C430 H439 0.933 . S
C431 Dy401 2.738 . S
C431 O411 1.255 . S
C431 O412 1.249 . S
C431 C425 1.516 . S
H432 C418 0.930 . S
H433 C419 0.931 . S
H434 C420 0.931 . S
H435 C421 0.933 . S
H436 C427 0.930 . S
H437 C428 0.931 . S
H438 C429 0.931 . S
H439 C430 0.933 . S
Dy440 O443 2.307 . S
Dy440 O445 2.395 . S
Dy440 O446 2.379 . S
Dy440 O448 2.339 . S
Dy440 O450 2.298 . S
Dy440 O454 2.275 . S
Dy440 C462 2.738 . S
Dy441 O444 2.298 . S
Dy441 O447 2.275 . S
Dy441 O449 2.307 . S
Dy441 O451 2.395 . S
Dy441 O452 2.379 . S
Dy441 O455 2.339 . S
Dy441 C471 2.738 1_554 S
C442 O454 1.254 . S
C442 O455 1.257 . S
O443 Dy440 2.307 . S
O443 C453 1.266 . S
O444 Dy441 2.298 . S
O444 C453 1.236 . S
O445 Dy440 2.395 . S
O445 C462 1.255 . S
O446 Dy440 2.379 . S
O446 C462 1.249 . S
O447 Dy441 2.275 . S
O447 C463 1.254 . S
O448 Dy440 2.339 . S
O448 C463 1.257 . S
O449 Dy441 2.307 . S
O449 C464 1.266 . S
O450 Dy440 2.298 . S
O450 C464 1.236 . S
O451 Dy441 2.395 . S
O451 C471 1.255 1_554 S
O452 Dy441 2.379 . S
O452 C471 1.249 1_554 S
C453 O443 1.266 . S
C453 O444 1.236 . S
O454 Dy440 2.275 . S
O454 C442 1.254 . S
O455 Dy441 2.339 . S
O455 C442 1.257 . S
C456 C459 1.344 . S
C456 C460 1.328 . S
C456 C462 1.516 . S
C457 C458 1.304 . S
C457 C461 1.323 . S
C458 C457 1.304 . S
C458 C459 1.371 . S
C458 H472 0.930 . S
C459 C456 1.344 . S
C459 C458 1.371 . S
C459 H473 0.931 . S
C460 C456 1.328 . S
C460 C461 1.433 . S
C460 H474 0.931 . S
C461 C457 1.323 . S
C461 C460 1.433 . S
C461 H475 0.933 . S
C462 Dy440 2.738 . S
C462 O445 1.255 . S
C462 O446 1.249 . S
C462 C456 1.516 . S
C463 O447 1.254 . S
C463 O448 1.257 . S
C464 O449 1.266 . S
C464 O450 1.236 . S
C465 C468 1.344 . S
C465 C469 1.328 . S
C465 C471 1.516 . S
C466 C467 1.304 . S
C466 C470 1.323 . S
C467 C466 1.304 . S
C467 C468 1.371 . S
C467 H476 0.930 . S
C468 C465 1.344 . S
C468 C467 1.371 . S
C468 H477 0.931 . S
C469 C465 1.328 . S
C469 C470 1.433 . S
C469 H478 0.931 . S
C470 C466 1.323 . S
C470 C469 1.433 . S
C470 H479 0.933 . S
C471 Dy441 2.738 1_556 S
C471 O451 1.255 1_556 S
C471 O452 1.249 1_556 S
C471 C465 1.516 . S
H472 C458 0.930 . S
H473 C459 0.931 . S
H474 C460 0.931 . S
H475 C461 0.933 . S
H476 C467 0.930 . S
H477 C468 0.931 . S
H478 C469 0.931 . S
H479 C470 0.933 . S
H480 C486 0.930 . S
H481 C490 0.930 . S
H482 C495 0.929 . S
H483 C493 0.929 . S
H484 C488 0.929 . S
H485 C494 0.929 . S
C486 H480 0.930 . S
C486 C487 1.367 . S
C486 C494 1.378 . S
C487 C486 1.367 . S
C487 C495 1.433 . S
C488 H484 0.929 . S
C488 C490 1.378 . S
C488 C492 1.350 . S
C489 C492 1.463 . S
C489 C494 1.350 . S
C489 N497 1.427 . S
C490 H481 0.930 . S
C490 C488 1.378 . S
C490 C491 1.367 . S
C491 C490 1.367 . S
C491 C493 1.433 . S
C492 C488 1.350 . S
C492 C489 1.463 . S
C492 N496 1.427 . S
C493 H483 0.929 . S
C493 C491 1.433 . S
C493 N496 1.384 . S
C494 H485 0.929 . S
C494 C486 1.378 . S
C494 C489 1.350 . S
C495 H482 0.929 . S
C495 C487 1.433 . S
C495 N497 1.384 . S
N496 C492 1.427 . S
N496 C493 1.384 . S
N497 C489 1.427 . S
N497 C495 1.384 . S
H498 C504 0.930 . S
H499 C508 0.930 . S
H500 C513 0.929 . S
H501 C511 0.929 . S
H502 C506 0.929 . S
H503 C512 0.929 . S
C504 H498 0.930 . S
C504 C505 1.367 . S
C504 C512 1.378 . S
C505 C504 1.367 . S
C505 C513 1.433 . S
C506 H502 0.929 . S
C506 C508 1.378 . S
C506 C510 1.350 . S
C507 C510 1.463 . S
C507 C512 1.350 . S
C507 N515 1.427 . S
C508 H499 0.930 . S
C508 C506 1.378 . S
C508 C509 1.367 . S
C509 C508 1.367 . S
C509 C511 1.433 . S
C510 C506 1.350 . S
C510 C507 1.463 . S
C510 N514 1.427 . S
C511 H501 0.929 . S
C511 C509 1.433 . S
C511 N514 1.384 . S
C512 H503 0.929 . S
C512 C504 1.378 . S
C512 C507 1.350 . S
C513 H500 0.929 . S
C513 C505 1.433 . S
C513 N515 1.384 . S
N514 C510 1.427 . S
N514 C511 1.384 . S
N515 C507 1.427 . S
N515 C513 1.384 . S
H516 C522 0.930 . S
H517 C526 0.930 . S
H518 C531 0.929 . S
H519 C529 0.929 . S
H520 C524 0.929 . S
H521 C530 0.929 . S
C522 H516 0.930 . S
C522 C523 1.367 . S
C522 C530 1.378 . S
C523 C522 1.367 . S
C523 C531 1.433 . S
C524 H520 0.929 . S
C524 C526 1.378 . S
C524 C528 1.350 . S
C525 C528 1.463 . S
C525 C530 1.350 . S
C525 N533 1.427 . S
C526 H517 0.930 . S
C526 C524 1.378 . S
C526 C527 1.367 . S
C527 C526 1.367 . S
C527 C529 1.433 . S
C528 C524 1.350 . S
C528 C525 1.463 . S
C528 N532 1.427 . S
C529 H519 0.929 . S
C529 C527 1.433 . S
C529 N532 1.384 . S
C530 H521 0.929 . S
C530 C522 1.378 . S
C530 C525 1.350 . S
C531 H518 0.929 . S
C531 C523 1.433 . S
C531 N533 1.384 . S
N532 C528 1.427 . S
N532 C529 1.384 . S
N533 C525 1.427 . S
N533 C531 1.384 . S
H534 C540 0.930 . S
H535 C544 0.930 . S
H536 C549 0.929 . S
H537 C547 0.929 . S
H538 C542 0.929 . S
H539 C548 0.929 . S
C540 H534 0.930 . S
C540 C541 1.367 . S
C540 C548 1.378 . S
C541 C540 1.367 . S
C541 C549 1.433 . S
C542 H538 0.929 . S
C542 C544 1.378 . S
C542 C546 1.350 . S
C543 C546 1.463 . S
C543 C548 1.350 . S
C543 N551 1.427 . S
C544 H535 0.930 . S
C544 C542 1.378 . S
C544 C545 1.367 . S
C545 C544 1.367 . S
C545 C547 1.433 . S
C546 C542 1.350 . S
C546 C543 1.463 . S
C546 N550 1.427 . S
C547 H537 0.929 . S
C547 C545 1.433 . S
C547 N550 1.384 . S
C548 H539 0.929 . S
C548 C540 1.378 . S
C548 C543 1.350 . S
C549 H536 0.929 . S
C549 C541 1.433 . S
C549 N551 1.384 . S
N550 C546 1.427 . S
N550 C547 1.384 . S
N551 C543 1.427 . S
N551 C549 1.384 . S
H552 C558 0.930 . S
H553 C562 0.930 . S
H554 C567 0.929 . S
H555 C565 0.929 . S
H556 C560 0.929 . S
H557 C566 0.929 . S
C558 H552 0.930 . S
C558 C559 1.367 . S
C558 C566 1.378 . S
C559 C558 1.367 . S
C559 C567 1.433 . S
C560 H556 0.929 . S
C560 C562 1.378 . S
C560 C564 1.350 . S
C561 C564 1.463 . S
C561 C566 1.350 . S
C561 N569 1.427 . S
C562 H553 0.930 . S
C562 C560 1.378 . S
C562 C563 1.367 . S
C563 C562 1.367 . S
C563 C565 1.433 . S
C564 C560 1.350 . S
C564 C561 1.463 . S
C564 N568 1.427 . S
C565 H555 0.929 . S
C565 C563 1.433 . S
C565 N568 1.384 . S
C566 H557 0.929 . S
C566 C558 1.378 . S
C566 C561 1.350 . S
C567 H554 0.929 . S
C567 C559 1.433 . S
C567 N569 1.384 . S
N568 C564 1.427 . S
N568 C565 1.384 . S
N569 C561 1.427 . S
N569 C567 1.384 . S
H570 C576 0.930 . S
H571 C580 0.930 . S
H572 C585 0.929 . S
H573 C583 0.929 . S
H574 C578 0.929 . S
H575 C584 0.929 . S
C576 H570 0.930 . S
C576 C577 1.367 . S
C576 C584 1.378 . S
C577 C576 1.367 . S
C577 C585 1.433 . S
C578 H574 0.929 . S
C578 C580 1.378 . S
C578 C582 1.350 . S
C579 C582 1.463 . S
C579 C584 1.350 . S
C579 N587 1.427 . S
C580 H571 0.930 . S
C580 C578 1.378 . S
C580 C581 1.367 . S
C581 C580 1.367 . S
C581 C583 1.433 . S
C582 C578 1.350 . S
C582 C579 1.463 . S
C582 N586 1.427 . S
C583 H573 0.929 . S
C583 C581 1.433 . S
C583 N586 1.384 . S
C584 H575 0.929 . S
C584 C576 1.378 . S
C584 C579 1.350 . S
C585 H572 0.929 . S
C585 C577 1.433 . S
C585 N587 1.384 . S
N586 C582 1.427 . S
N586 C583 1.384 . S
N587 C579 1.427 . S
N587 C585 1.384 . S
H588 C594 0.930 . S
H589 C598 0.930 . S
H590 C603 0.929 . S
H591 C601 0.929 . S
H592 C596 0.929 1_556 S
H593 C602 0.929 1_554 S
C594 H588 0.930 . S
C594 C595 1.367 . S
C594 C602 1.378 . S
C595 C594 1.367 . S
C595 C603 1.433 . S
C596 H592 0.929 1_554 S
C596 C598 1.378 . S
C596 C600 1.350 . S
C597 C600 1.463 1_556 S
C597 C602 1.350 . S
C597 N605 1.427 . S
C598 H589 0.930 . S
C598 C596 1.378 . S
C598 C599 1.367 . S
C599 C598 1.367 . S
C599 C601 1.433 . S
C600 C596 1.350 . S
C600 C597 1.463 1_554 S
C600 N604 1.427 . S
C601 H591 0.929 . S
C601 C599 1.433 . S
C601 N604 1.384 . S
C602 H593 0.929 1_556 S
C602 C594 1.378 . S
C602 C597 1.350 . S
C603 H590 0.929 . S
C603 C595 1.433 . S
C603 N605 1.384 . S
N604 C600 1.427 . S
N604 C601 1.384 . S
N605 C597 1.427 . S
N605 C603 1.384 . S
H606 C612 0.930 . S
H607 C616 0.930 . S
H608 C621 0.929 . S
H609 C619 0.929 . S
H610 C614 0.929 . S
H611 C620 0.929 . S
C612 H606 0.930 . S
C612 C613 1.367 . S
C612 C620 1.378 . S
C613 C612 1.367 . S
C613 C621 1.433 . S
C614 H610 0.929 . S
C614 C616 1.378 . S
C614 C618 1.350 . S
C615 C618 1.463 . S
C615 C620 1.350 . S
C615 N623 1.427 . S
C616 H607 0.930 . S
C616 C614 1.378 . S
C616 C617 1.367 . S
C617 C616 1.367 . S
C617 C619 1.433 . S
C618 C614 1.350 . S
C618 C615 1.463 . S
C618 N622 1.427 . S
C619 H609 0.929 . S
C619 C617 1.433 . S
C619 N622 1.384 . S
C620 H611 0.929 . S
C620 C612 1.378 . S
C620 C615 1.350 . S
C621 H608 0.929 . S
C621 C613 1.433 . S
C621 N623 1.384 . S
N622 C618 1.427 . S
N622 C619 1.384 . S
N623 C615 1.427 . S
N623 C621 1.384 . S
H624 C630 0.930 . S
H625 C634 0.930 . S
H626 C639 0.929 . S
H627 C637 0.929 . S
H628 C632 0.929 . S
H629 C638 0.929 . S
C630 H624 0.930 . S
C630 C631 1.367 . S
C630 C638 1.378 . S
C631 C630 1.367 . S
C631 C639 1.433 . S
C632 H628 0.929 . S
C632 C634 1.378 . S
C632 C636 1.350 . S
C633 C636 1.463 . S
C633 C638 1.350 . S
C633 N641 1.427 . S
C634 H625 0.930 . S
C634 C632 1.378 . S
C634 C635 1.367 . S
C635 C634 1.367 . S
C635 C637 1.433 . S
C636 C632 1.350 . S
C636 C633 1.463 . S
C636 N640 1.427 . S
C637 H627 0.929 . S
C637 C635 1.433 . S
C637 N640 1.384 . S
C638 H629 0.929 . S
C638 C630 1.378 . S
C638 C633 1.350 . S
C639 H626 0.929 . S
C639 C631 1.433 . S
C639 N641 1.384 . S
N640 C636 1.427 . S
N640 C637 1.384 . S
N641 C633 1.427 . S
N641 C639 1.384 . S
H642 C648 0.930 . S
H643 C652 0.930 . S
H644 C657 0.929 . S
H645 C655 0.929 . S
H646 C650 0.929 . S
H647 C656 0.929 . S
C648 H642 0.930 . S
C648 C649 1.367 . S
C648 C656 1.378 . S
C649 C648 1.367 . S
C649 C657 1.433 . S
C650 H646 0.929 . S
C650 C652 1.378 . S
C650 C654 1.350 . S
C651 C654 1.463 1_556 S
C651 C656 1.350 . S
C651 N659 1.427 . S
C652 H643 0.930 . S
C652 C650 1.378 . S
C652 C653 1.367 . S
C653 C652 1.367 . S
C653 C655 1.433 . S
C654 C650 1.350 . S
C654 C651 1.463 1_554 S
C654 N658 1.427 . S
C655 H645 0.929 . S
C655 C653 1.433 . S
C655 N658 1.384 . S
C656 H647 0.929 . S
C656 C648 1.378 . S
C656 C651 1.350 . S
C657 H644 0.929 . S
C657 C649 1.433 . S
C657 N659 1.384 . S
N658 C654 1.427 . S
N658 C655 1.384 . S
N659 C651 1.427 . S
N659 C657 1.384 . S
H660 C666 0.930 . S
H661 C670 0.930 . S
H662 C675 0.929 . S
H663 C673 0.929 . S
H664 C668 0.929 . S
H665 C674 0.929 . S
C666 H660 0.930 . S
C666 C667 1.367 . S
C666 C674 1.378 . S
C667 C666 1.367 . S
C667 C675 1.433 . S
C668 H664 0.929 . S
C668 C670 1.378 . S
C668 C672 1.350 . S
C669 C672 1.463 . S
C669 C674 1.350 . S
C669 N677 1.427 . S
C670 H661 0.930 . S
C670 C668 1.378 . S
C670 C671 1.367 . S
C671 C670 1.367 . S
C671 C673 1.433 . S
C672 C668 1.350 . S
C672 C669 1.463 . S
C672 N676 1.427 . S
C673 H663 0.929 . S
C673 C671 1.433 . S
C673 N676 1.384 . S
C674 H665 0.929 . S
C674 C666 1.378 . S
C674 C669 1.350 . S
C675 H662 0.929 . S
C675 C667 1.433 . S
C675 N677 1.384 . S
N676 C672 1.427 . S
N676 C673 1.384 . S
N677 C669 1.427 . S
N677 C675 1.384 . S
H678 C684 0.930 . S
H679 C688 0.930 . S
H680 C693 0.929 . S
H681 C691 0.929 . S
H682 C686 0.929 . S
H683 C692 0.929 . S
C684 H678 0.930 . S
C684 C685 1.367 . S
C684 C692 1.378 . S
C685 C684 1.367 . S
C685 C693 1.433 . S
C686 H682 0.929 . S
C686 C688 1.378 . S
C686 C690 1.350 . S
C687 C690 1.463 . S
C687 C692 1.350 . S
C687 N695 1.427 . S
C688 H679 0.930 . S
C688 C686 1.378 . S
C688 C689 1.367 . S
C689 C688 1.367 . S
C689 C691 1.433 . S
C690 C686 1.350 . S
C690 C687 1.463 . S
C690 N694 1.427 . S
C691 H681 0.929 . S
C691 C689 1.433 . S
C691 N694 1.384 . S
C692 H683 0.929 . S
C692 C684 1.378 . S
C692 C687 1.350 . S
C693 H680 0.929 . S
C693 C685 1.433 . S
C693 N695 1.384 . S
N694 C690 1.427 . S
N694 C691 1.384 . S
N695 C687 1.427 . S
N695 C693 1.384 . S
H696 C702 0.930 . S
H697 C706 0.930 . S
H698 C711 0.929 . S
H699 C709 0.929 . S
H700 C704 0.929 . S
H701 C710 0.929 . S
C702 H696 0.930 . S
C702 C703 1.367 . S
C702 C710 1.378 . S
C703 C702 1.367 . S
C703 C711 1.433 . S
C704 H700 0.929 . S
C704 C706 1.378 . S
C704 C708 1.350 . S
C705 C708 1.463 1_566 S
C705 C710 1.350 . S
C705 N713 1.427 . S
C706 H697 0.930 . S
C706 C704 1.378 . S
C706 C707 1.367 . S
C707 C706 1.367 . S
C707 C709 1.433 . S
C708 C704 1.350 . S
C708 C705 1.463 1_544 S
C708 N712 1.427 . S
C709 H699 0.929 . S
C709 C707 1.433 . S
C709 N712 1.384 . S
C710 H701 0.929 . S
C710 C702 1.378 . S
C710 C705 1.350 . S
C711 H698 0.929 . S
C711 C703 1.433 . S
C711 N713 1.384 . S
N712 C708 1.427 . S
N712 C709 1.384 . S
N713 C705 1.427 . S
N713 C711 1.384 . S
H714 C720 0.930 . S
H715 C724 0.930 . S
H716 C729 0.929 . S
H717 C727 0.929 . S
H718 C722 0.929 . S
H719 C728 0.929 . S
C720 H714 0.930 . S
C720 C721 1.367 . S
C720 C728 1.378 . S
C721 C720 1.367 . S
C721 C729 1.433 . S
C722 H718 0.929 . S
C722 C724 1.378 . S
C722 C726 1.350 . S
C723 C726 1.463 . S
C723 C728 1.350 . S
C723 N731 1.427 . S
C724 H715 0.930 . S
C724 C722 1.378 . S
C724 C725 1.367 . S
C725 C724 1.367 . S
C725 C727 1.433 . S
C726 C722 1.350 . S
C726 C723 1.463 . S
C726 N730 1.427 . S
C727 H717 0.929 . S
C727 C725 1.433 . S
C727 N730 1.384 . S
C728 H719 0.929 . S
C728 C720 1.378 . S
C728 C723 1.350 . S
C729 H716 0.929 . S
C729 C721 1.433 . S
C729 N731 1.384 . S
N730 C726 1.427 . S
N730 C727 1.384 . S
N731 C723 1.427 . S
N731 C729 1.384 . S
H732 C738 0.930 . S
H733 C742 0.930 . S
H734 C747 0.929 . S
H735 C745 0.929 . S
H736 C740 0.929 . S
H737 C746 0.929 . S
C738 H732 0.930 . S
C738 C739 1.367 . S
C738 C746 1.378 1_455 S
C739 C738 1.367 . S
C739 C747 1.433 . S
C740 H736 0.929 . S
C740 C742 1.378 1_455 S
C740 C744 1.350 1_455 S
C741 C744 1.463 1_455 S
C741 C746 1.350 1_455 S
C741 N749 1.427 . S
C742 H733 0.930 . S
C742 C740 1.378 1_655 S
C742 C743 1.367 . S
C743 C742 1.367 . S
C743 C745 1.433 . S
C744 C740 1.350 1_655 S
C744 C741 1.463 1_655 S
C744 N748 1.427 . S
C745 H735 0.929 . S
C745 C743 1.433 . S
C745 N748 1.384 . S
C746 H737 0.929 . S
C746 C738 1.378 1_655 S
C746 C741 1.350 1_655 S
C747 H734 0.929 . S
C747 C739 1.433 . S
C747 N749 1.384 . S
N748 C744 1.427 . S
N748 C745 1.384 . S
N749 C741 1.427 . S
N749 C747 1.384 . S
H750 C756 0.930 . S
H751 C760 0.930 . S
H752 C765 0.929 . S
H753 C763 0.929 . S
H754 C758 0.929 . S
H755 C764 0.929 . S
C756 H750 0.930 . S
C756 C757 1.367 . S
C756 C764 1.378 . S
C757 C756 1.367 . S
C757 C765 1.433 . S
C758 H754 0.929 . S
C758 C760 1.378 . S
C758 C762 1.350 . S
C759 C762 1.463 1_564 S
C759 C764 1.350 . S
C759 N767 1.427 . S
C760 H751 0.930 . S
C760 C758 1.378 . S
C760 C761 1.367 . S
C761 C760 1.367 . S
C761 C763 1.433 . S
C762 C758 1.350 . S
C762 C759 1.463 1_546 S
C762 N766 1.427 . S
C763 H753 0.929 . S
C763 C761 1.433 . S
C763 N766 1.384 . S
C764 H755 0.929 . S
C764 C756 1.378 . S
C764 C759 1.350 . S
C765 H752 0.929 . S
C765 C757 1.433 . S
C765 N767 1.384 . S
N766 C762 1.427 . S
N766 C763 1.384 . S
N767 C759 1.427 . S
N767 C765 1.384 . S
H768 C774 0.930 . S
H769 C778 0.930 . S
H770 C783 0.929 . S
H771 C781 0.929 . S
H772 C776 0.929 . S
H773 C782 0.929 . S
C774 H768 0.930 . S
C774 C775 1.367 . S
C774 C782 1.378 . S
C775 C774 1.367 . S
C775 C783 1.433 . S
C776 H772 0.929 . S
C776 C778 1.378 . S
C776 C780 1.350 . S
C777 C780 1.463 . S
C777 C782 1.350 . S
C777 N785 1.427 . S
C778 H769 0.930 . S
C778 C776 1.378 . S
C778 C779 1.367 . S
C779 C778 1.367 . S
C779 C781 1.433 . S
C780 C776 1.350 . S
C780 C777 1.463 . S
C780 N784 1.427 . S
C781 H771 0.929 . S
C781 C779 1.433 . S
C781 N784 1.384 . S
C782 H773 0.929 . S
C782 C774 1.378 . S
C782 C777 1.350 . S
C783 H770 0.929 . S
C783 C775 1.433 . S
C783 N785 1.384 . S
N784 C780 1.427 . S
N784 C781 1.384 . S
N785 C777 1.427 . S
N785 C783 1.384 . S
H786 C792 0.930 . S
H787 C796 0.930 . S
H788 C801 0.929 1_655 S
H789 C799 0.929 1_455 S
H790 C794 0.929 . S
H791 C800 0.929 . S
C792 H786 0.930 . S
C792 C793 1.367 . S
C792 C800 1.378 . S
C793 C792 1.367 . S
C793 C801 1.433 . S
C794 H790 0.929 . S
C794 C796 1.378 . S
C794 C798 1.350 . S
C795 C798 1.463 1_455 S
C795 C800 1.350 . S
C795 N803 1.427 1_455 S
C796 H787 0.930 . S
C796 C794 1.378 . S
C796 C797 1.367 . S
C797 C796 1.367 . S
C797 C799 1.433 . S
C798 C794 1.350 . S
C798 C795 1.463 1_655 S
C798 N802 1.427 1_655 S
C799 H789 0.929 1_655 S
C799 C797 1.433 . S
C799 N802 1.384 1_655 S
C800 H791 0.929 . S
C800 C792 1.378 . S
C800 C795 1.350 . S
C801 H788 0.929 1_455 S
C801 C793 1.433 . S
C801 N803 1.384 1_455 S
N802 C798 1.427 1_455 S
N802 C799 1.384 1_455 S
N803 C795 1.427 1_655 S
N803 C801 1.384 1_655 S
H804 C810 0.930 . S
H805 C814 0.930 . S
H806 C819 0.929 . S
H807 C817 0.929 . S
H808 C812 0.929 . S
H809 C818 0.929 . S
C810 H804 0.930 . S
C810 C811 1.367 . S
C810 C818 1.378 . S
C811 C810 1.367 . S
C811 C819 1.433 . S
C812 H808 0.929 . S
C812 C814 1.378 . S
C812 C816 1.350 . S
C813 C816 1.463 1_545 S
C813 C818 1.350 . S
C813 N821 1.427 . S
C814 H805 0.930 . S
C814 C812 1.378 . S
C814 C815 1.367 . S
C815 C814 1.367 . S
C815 C817 1.433 . S
C816 C812 1.350 . S
C816 C813 1.463 1_565 S
C816 N820 1.427 . S
C817 H807 0.929 . S
C817 C815 1.433 . S
C817 N820 1.384 . S
C818 H809 0.929 . S
C818 C810 1.378 . S
C818 C813 1.350 . S
C819 H806 0.929 . S
C819 C811 1.433 . S
C819 N821 1.384 . S
N820 C816 1.427 . S
N820 C817 1.384 . S
N821 C813 1.427 . S
N821 C819 1.384 . S
H822 C828 0.930 . S
H823 C832 0.930 . S
H824 C837 0.929 . S
H825 C835 0.929 . S
H826 C830 0.929 . S
H827 C836 0.929 . S
C828 H822 0.930 . S
C828 C829 1.367 . S
C828 C836 1.378 . S
C829 C828 1.367 . S
C829 C837 1.433 . S
C830 H826 0.929 . S
C830 C832 1.378 . S
C830 C834 1.350 . S
C831 C834 1.463 . S
C831 C836 1.350 . S
C831 N839 1.427 . S
C832 H823 0.930 . S
C832 C830 1.378 . S
C832 C833 1.367 . S
C833 C832 1.367 . S
C833 C835 1.433 . S
C834 C830 1.350 . S
C834 C831 1.463 . S
C834 N838 1.427 . S
C835 H825 0.929 . S
C835 C833 1.433 . S
C835 N838 1.384 . S
C836 H827 0.929 . S
C836 C828 1.378 . S
C836 C831 1.350 . S
C837 H824 0.929 . S
C837 C829 1.433 . S
C837 N839 1.384 . S
N838 C834 1.427 . S
N838 C835 1.384 . S
N839 C831 1.427 . S
N839 C837 1.384 . S
H840 C846 0.930 . S
H841 C850 0.930 . S
H842 C855 0.929 . S
H843 C853 0.929 . S
H844 C848 0.929 . S
H845 C854 0.929 . S
C846 H840 0.930 . S
C846 C847 1.367 . S
C846 C854 1.378 . S
C847 C846 1.367 . S
C847 C855 1.433 . S
C848 H844 0.929 . S
C848 C850 1.378 . S
C848 C852 1.350 . S
C849 C852 1.463 1_655 S
C849 C854 1.350 . S
C849 N857 1.427 . S
C850 H841 0.930 . S
C850 C848 1.378 . S
C850 C851 1.367 . S
C851 C850 1.367 . S
C851 C853 1.433 . S
C852 C848 1.350 . S
C852 C849 1.463 1_455 S
C852 N856 1.427 . S
C853 H843 0.929 . S
C853 C851 1.433 . S
C853 N856 1.384 . S
C854 H845 0.929 . S
C854 C846 1.378 . S
C854 C849 1.350 . S
C855 H842 0.929 . S
C855 C847 1.433 . S
C855 N857 1.384 . S
N856 C852 1.427 . S
N856 C853 1.384 . S
N857 C849 1.427 . S
N857 C855 1.384 . S
H858 C864 0.930 . S
H859 C868 0.930 . S
H860 C873 0.929 . S
H861 C871 0.929 . S
H862 C866 0.929 . S
H863 C872 0.929 . S
C864 H858 0.930 . S
C864 C865 1.367 . S
C864 C872 1.378 . S
C865 C864 1.367 . S
C865 C873 1.433 . S
C866 H862 0.929 . S
C866 C868 1.378 . S
C866 C870 1.350 . S
C867 C870 1.463 1_455 S
C867 C872 1.350 . S
C867 N875 1.427 . S
C868 H859 0.930 . S
C868 C866 1.378 . S
C868 C869 1.367 . S
C869 C868 1.367 . S
C869 C871 1.433 . S
C870 C866 1.350 . S
C870 C867 1.463 1_655 S
C870 N874 1.427 . S
C871 H861 0.929 . S
C871 C869 1.433 . S
C871 N874 1.384 . S
C872 H863 0.929 . S
C872 C864 1.378 . S
C872 C867 1.350 . S
C873 H860 0.929 . S
C873 C865 1.433 . S
C873 N875 1.384 . S
N874 C870 1.427 . S
N874 C871 1.384 . S
N875 C867 1.427 . S
N875 C873 1.384 . S
H876 C882 0.930 . S
H877 C886 0.930 . S
H878 C891 0.929 . S
H879 C889 0.929 . S
H880 C884 0.929 . S
H881 C890 0.929 . S
C882 H876 0.930 . S
C882 C883 1.367 . S
C882 C890 1.378 . S
C883 C882 1.367 . S
C883 C891 1.433 . S
C884 H880 0.929 . S
C884 C886 1.378 . S
C884 C888 1.350 . S
C885 C888 1.463 1_565 S
C885 C890 1.350 . S
C885 N893 1.427 . S
C886 H877 0.930 . S
C886 C884 1.378 . S
C886 C887 1.367 . S
C887 C886 1.367 . S
C887 C889 1.433 . S
C888 C884 1.350 . S
C888 C885 1.463 1_545 S
C888 N892 1.427 . S
C889 H879 0.929 . S
C889 C887 1.433 . S
C889 N892 1.384 . S
C890 H881 0.929 . S
C890 C882 1.378 . S
C890 C885 1.350 . S
C891 H878 0.929 . S
C891 C883 1.433 . S
C891 N893 1.384 . S
N892 C888 1.427 . S
N892 C889 1.384 . S
N893 C885 1.427 . S
N893 C891 1.384 . S
H894 C900 0.930 . S
H895 C904 0.930 . S
H896 C909 0.929 . S
H897 C907 0.929 . S
H898 C902 0.929 . S
H899 C908 0.929 . S
C900 H894 0.930 . S
C900 C901 1.367 . S
C900 C908 1.378 . S
C901 C900 1.367 . S
C901 C909 1.433 . S
C902 H898 0.929 . S
C902 C904 1.378 . S
C902 C906 1.350 . S
C903 C906 1.463 . S
C903 C908 1.350 . S
C903 N911 1.427 . S
C904 H895 0.930 . S
C904 C902 1.378 . S
C904 C905 1.367 . S
C905 C904 1.367 . S
C905 C907 1.433 . S
C906 C902 1.350 . S
C906 C903 1.463 . S
C906 N910 1.427 . S
C907 H897 0.929 . S
C907 C905 1.433 . S
C907 N910 1.384 . S
C908 H899 0.929 . S
C908 C900 1.378 . S
C908 C903 1.350 . S
C909 H896 0.929 . S
C909 C901 1.433 . S
C909 N911 1.384 . S
N910 C906 1.427 . S
N910 C907 1.384 . S
N911 C903 1.427 . S
N911 C909 1.384 . S
H912 C918 0.930 . S
H913 C922 0.930 . S
H914 C927 0.929 . S
H915 C925 0.929 . S
H916 C920 0.929 . S
H917 C926 0.929 . S
C918 H912 0.930 . S
C918 C919 1.367 . S
C918 C926 1.378 . S
C919 C918 1.367 . S
C919 C927 1.433 . S
C920 H916 0.929 . S
C920 C922 1.378 . S
C920 C924 1.350 . S
C921 C924 1.463 1_565 S
C921 C926 1.350 . S
C921 N929 1.427 . S
C922 H913 0.930 . S
C922 C920 1.378 . S
C922 C923 1.367 . S
C923 C922 1.367 . S
C923 C925 1.433 . S
C924 C920 1.350 . S
C924 C921 1.463 1_545 S
C924 N928 1.427 . S
C925 H915 0.929 . S
C925 C923 1.433 . S
C925 N928 1.384 . S
C926 H917 0.929 . S
C926 C918 1.378 . S
C926 C921 1.350 . S
C927 H914 0.929 . S
C927 C919 1.433 . S
C927 N929 1.384 . S
N928 C924 1.427 . S
N928 C925 1.384 . S
N929 C921 1.427 . S
N929 C927 1.384 . S
H930 C936 0.930 . S
H931 C940 0.930 . S
H932 C945 0.929 . S
H933 C943 0.929 . S
H934 C938 0.929 . S
H935 C944 0.929 . S
C936 H930 0.930 . S
C936 C937 1.367 . S
C936 C944 1.378 . S
C937 C936 1.367 . S
C937 C945 1.433 . S
C938 H934 0.929 . S
C938 C940 1.378 . S
C938 C942 1.350 . S
C939 C942 1.463 . S
C939 C944 1.350 . S
C939 N947 1.427 . S
C940 H931 0.930 . S
C940 C938 1.378 . S
C940 C941 1.367 . S
C941 C940 1.367 . S
C941 C943 1.433 . S
C942 C938 1.350 . S
C942 C939 1.463 . S
C942 N946 1.427 . S
C943 H933 0.929 . S
C943 C941 1.433 . S
C943 N946 1.384 . S
C944 H935 0.929 . S
C944 C936 1.378 . S
C944 C939 1.350 . S
C945 H932 0.929 . S
C945 C937 1.433 . S
C945 N947 1.384 . S
N946 C942 1.427 . S
N946 C943 1.384 . S
N947 C939 1.427 . S
N947 C945 1.384 . S
H948 C954 0.930 . S
H949 C958 0.930 . S
H950 C963 0.929 . S
H951 C961 0.929 . S
H952 C956 0.929 . S
H953 C962 0.929 . S
C954 H948 0.930 . S
C954 C955 1.367 . S
C954 C962 1.378 . S
C955 C954 1.367 . S
C955 C963 1.433 . S
C956 H952 0.929 . S
C956 C958 1.378 . S
C956 C960 1.350 . S
C957 C960 1.463 1_655 S
C957 C962 1.350 . S
C957 N965 1.427 . S
C958 H949 0.930 . S
C958 C956 1.378 . S
C958 C959 1.367 . S
C959 C958 1.367 . S
C959 C961 1.433 . S
C960 C956 1.350 . S
C960 C957 1.463 1_455 S
C960 N964 1.427 . S
C961 H951 0.929 . S
C961 C959 1.433 . S
C961 N964 1.384 . S
C962 H953 0.929 . S
C962 C954 1.378 . S
C962 C957 1.350 . S
C963 H950 0.929 . S
C963 C955 1.433 . S
C963 N965 1.384 . S
N964 C960 1.427 . S
N964 C961 1.384 . S
N965 C957 1.427 . S
N965 C963 1.384 . S
H966 C972 0.930 . S
H967 C976 0.930 . S
H968 C981 0.929 . S
H969 C979 0.929 . S
H970 C974 0.929 . S
H971 C980 0.929 . S
C972 H966 0.930 . S
C972 C973 1.367 . S
C972 C980 1.378 . S
C973 C972 1.367 . S
C973 C981 1.433 . S
C974 H970 0.929 . S
C974 C976 1.378 . S
C974 C978 1.350 . S
C975 C978 1.463 1_545 S
C975 C980 1.350 . S
C975 N983 1.427 . S
C976 H967 0.930 . S
C976 C974 1.378 . S
C976 C977 1.367 . S
C977 C976 1.367 . S
C977 C979 1.433 . S
C978 C974 1.350 . S
C978 C975 1.463 1_565 S
C978 N982 1.427 . S
C979 H969 0.929 . S
C979 C977 1.433 . S
C979 N982 1.384 . S
C980 H971 0.929 . S
C980 C972 1.378 . S
C980 C975 1.350 . S
C981 H968 0.929 . S
C981 C973 1.433 . S
C981 N983 1.384 . S
N982 C978 1.427 . S
N982 C979 1.384 . S
N983 C975 1.427 . S
N983 C981 1.384 . S
H984 C990 0.930 . S
H985 C994 0.930 . S
H986 C999 0.929 . S
H987 C997 0.929 . S
H988 C992 0.929 . S
H989 C998 0.929 . S
C990 H984 0.930 . S
C990 C991 1.367 . S
C990 C998 1.378 . S
C991 C990 1.367 . S
C991 C999 1.433 . S
C992 H988 0.929 . S
C992 C994 1.378 . S
C992 C996 1.350 . S
C993 C996 1.463 . S
C993 C998 1.350 . S
C993 N1001 1.427 . S
C994 H985 0.930 . S
C994 C992 1.378 . S
C994 C995 1.367 . S
C995 C994 1.367 . S
C995 C997 1.433 . S
C996 C992 1.350 . S
C996 C993 1.463 . S
C996 N1000 1.427 . S
C997 H987 0.929 . S
C997 C995 1.433 . S
C997 N1000 1.384 . S
C998 H989 0.929 . S
C998 C990 1.378 . S
C998 C993 1.350 . S
C999 H986 0.929 . S
C999 C991 1.433 . S
C999 N1001 1.384 . S
N1000 C996 1.427 . S
N1000 C997 1.384 . S
N1001 C993 1.427 . S
N1001 C999 1.384 . S
H1002 C1008 0.930 . S
H1003 C1012 0.930 . S
H1004 C1017 0.929 . S
H1005 C1015 0.929 . S
H1006 C1010 0.929 . S
H1007 C1016 0.929 . S
C1008 H1002 0.930 . S
C1008 C1009 1.367 . S
C1008 C1016 1.378 . S
C1009 C1008 1.367 . S
C1009 C1017 1.433 . S
C1010 H1006 0.929 . S
C1010 C1012 1.378 . S
C1010 C1014 1.350 . S
C1011 C1014 1.463 1_455 S
C1011 C1016 1.350 . S
C1011 N1019 1.427 . S
C1012 H1003 0.930 . S
C1012 C1010 1.378 . S
C1012 C1013 1.367 . S
C1013 C1012 1.367 . S
C1013 C1015 1.433 . S
C1014 C1010 1.350 . S
C1014 C1011 1.463 1_655 S
C1014 N1018 1.427 . S
C1015 H1005 0.929 . S
C1015 C1013 1.433 . S
C1015 N1018 1.384 . S
C1016 H1007 0.929 . S
C1016 C1008 1.378 . S
C1016 C1011 1.350 . S
C1017 H1004 0.929 . S
C1017 C1009 1.433 . S
C1017 N1019 1.384 . S
N1018 C1014 1.427 . S
N1018 C1015 1.384 . S
N1019 C1011 1.427 . S
N1019 C1017 1.384 . S
H1020 C1026 0.930 . S
H1021 C1030 0.930 . S
H1022 C1035 0.929 . S
H1023 C1033 0.929 . S
H1024 C1028 0.929 . S
H1025 C1034 0.929 . S
C1026 H1020 0.930 . S
C1026 C1027 1.367 . S
C1026 C1034 1.378 . S
C1027 C1026 1.367 . S
C1027 C1035 1.433 . S
C1028 H1024 0.929 . S
C1028 C1030 1.378 . S
C1028 C1032 1.350 . S
C1029 C1032 1.463 . S
C1029 C1034 1.350 . S
C1029 N1037 1.427 . S
C1030 H1021 0.930 . S
C1030 C1028 1.378 . S
C1030 C1031 1.367 . S
C1031 C1030 1.367 . S
C1031 C1033 1.433 . S
C1032 C1028 1.350 . S
C1032 C1029 1.463 . S
C1032 N1036 1.427 . S
C1033 H1023 0.929 . S
C1033 C1031 1.433 . S
C1033 N1036 1.384 . S
C1034 H1025 0.929 . S
C1034 C1026 1.378 . S
C1034 C1029 1.350 . S
C1035 H1022 0.929 . S
C1035 C1027 1.433 . S
C1035 N1037 1.384 . S
N1036 C1032 1.427 . S
N1036 C1033 1.384 . S
N1037 C1029 1.427 . S
N1037 C1035 1.384 . S
H1038 C1044 0.930 . S
H1039 C1048 0.930 . S
H1040 C1053 0.929 . S
H1041 C1051 0.929 . S
H1042 C1046 0.929 . S
H1043 C1052 0.929 . S
C1044 H1038 0.930 . S
C1044 C1045 1.367 . S
C1044 C1052 1.378 . S
C1045 C1044 1.367 . S
C1045 C1053 1.433 . S
C1046 H1042 0.929 . S
C1046 C1048 1.378 . S
C1046 C1050 1.350 . S
C1047 C1050 1.463 . S
C1047 C1052 1.350 . S
C1047 N1055 1.427 . S
C1048 H1039 0.930 . S
C1048 C1046 1.378 . S
C1048 C1049 1.367 . S
C1049 C1048 1.367 . S
C1049 C1051 1.433 . S
C1050 C1046 1.350 . S
C1050 C1047 1.463 . S
C1050 N1054 1.427 . S
C1051 H1041 0.929 . S
C1051 C1049 1.433 . S
C1051 N1054 1.384 . S
C1052 H1043 0.929 . S
C1052 C1044 1.378 . S
C1052 C1047 1.350 . S
C1053 H1040 0.929 . S
C1053 C1045 1.433 . S
C1053 N1055 1.384 . S
N1054 C1050 1.427 . S
N1054 C1051 1.384 . S
N1055 C1047 1.427 . S
N1055 C1053 1.384 . S
H1056 C1062 0.930 . S
H1057 C1066 0.930 . S
H1058 C1071 0.929 . S
H1059 C1069 0.929 . S
H1060 C1064 0.929 . S
H1061 C1070 0.929 . S
C1062 H1056 0.930 . S
C1062 C1063 1.367 . S
C1062 C1070 1.378 . S
C1063 C1062 1.367 . S
C1063 C1071 1.433 . S
C1064 H1060 0.929 . S
C1064 C1066 1.378 . S
C1064 C1068 1.350 . S
C1065 C1068 1.463 . S
C1065 C1070 1.350 . S
C1065 N1073 1.427 . S
C1066 H1057 0.930 . S
C1066 C1064 1.378 . S
C1066 C1067 1.367 . S
C1067 C1066 1.367 . S
C1067 C1069 1.433 . S
C1068 C1064 1.350 . S
C1068 C1065 1.463 . S
C1068 N1072 1.427 . S
C1069 H1059 0.929 . S
C1069 C1067 1.433 . S
C1069 N1072 1.384 . S
C1070 H1061 0.929 . S
C1070 C1062 1.378 . S
C1070 C1065 1.350 . S
C1071 H1058 0.929 . S
C1071 C1063 1.433 . S
C1071 N1073 1.384 . S
N1072 C1068 1.427 . S
N1072 C1069 1.384 . S
N1073 C1065 1.427 . S
N1073 C1071 1.384 . S
H1074 C1080 0.930 . S
H1075 C1084 0.930 . S
H1076 C1089 0.929 . S
H1077 C1087 0.929 . S
H1078 C1082 0.929 . S
H1079 C1088 0.929 . S
C1080 H1074 0.930 . S
C1080 C1081 1.367 . S
C1080 C1088 1.378 . S
C1081 C1080 1.367 . S
C1081 C1089 1.433 . S
C1082 H1078 0.929 . S
C1082 C1084 1.378 . S
C1082 C1086 1.350 . S
C1083 C1086 1.463 . S
C1083 C1088 1.350 . S
C1083 N1091 1.427 . S
C1084 H1075 0.930 . S
C1084 C1082 1.378 . S
C1084 C1085 1.367 . S
C1085 C1084 1.367 . S
C1085 C1087 1.433 . S
C1086 C1082 1.350 . S
C1086 C1083 1.463 . S
C1086 N1090 1.427 . S
C1087 H1077 0.929 . S
C1087 C1085 1.433 . S
C1087 N1090 1.384 . S
C1088 H1079 0.929 . S
C1088 C1080 1.378 . S
C1088 C1083 1.350 . S
C1089 H1076 0.929 . S
C1089 C1081 1.433 . S
C1089 N1091 1.384 . S
N1090 C1086 1.427 . S
N1090 C1087 1.384 . S
N1091 C1083 1.427 . S
N1091 C1089 1.384 . S
H1092 C1098 0.930 . S
H1093 C1102 0.930 . S
H1094 C1107 0.929 . S
H1095 C1105 0.929 . S
H1096 C1100 0.929 . S
H1097 C1106 0.929 . S
C1098 H1092 0.930 . S
C1098 C1099 1.367 . S
C1098 C1106 1.378 . S
C1099 C1098 1.367 . S
C1099 C1107 1.433 . S
C1100 H1096 0.929 . S
C1100 C1102 1.378 . S
C1100 C1104 1.350 . S
C1101 C1104 1.463 . S
C1101 C1106 1.350 . S
C1101 N1109 1.427 . S
C1102 H1093 0.930 . S
C1102 C1100 1.378 . S
C1102 C1103 1.367 . S
C1103 C1102 1.367 . S
C1103 C1105 1.433 . S
C1104 C1100 1.350 . S
C1104 C1101 1.463 . S
C1104 N1108 1.427 . S
C1105 H1095 0.929 . S
C1105 C1103 1.433 . S
C1105 N1108 1.384 . S
C1106 H1097 0.929 . S
C1106 C1098 1.378 . S
C1106 C1101 1.350 . S
C1107 H1094 0.929 . S
C1107 C1099 1.433 . S
C1107 N1109 1.384 . S
N1108 C1104 1.427 . S
N1108 C1105 1.384 . S
N1109 C1101 1.427 . S
N1109 C1107 1.384 . S
H1110 C1116 0.930 . S
H1111 C1120 0.930 . S
H1112 C1125 0.929 . S
H1113 C1123 0.929 . S
H1114 C1118 0.929 . S
H1115 C1124 0.929 . S
C1116 H1110 0.930 . S
C1116 C1117 1.367 . S
C1116 C1124 1.378 . S
C1117 C1116 1.367 . S
C1117 C1125 1.433 . S
C1118 H1114 0.929 . S
C1118 C1120 1.378 . S
C1118 C1122 1.350 . S
C1119 C1122 1.463 . S
C1119 C1124 1.350 . S
C1119 N1127 1.427 . S
C1120 H1111 0.930 . S
C1120 C1118 1.378 . S
C1120 C1121 1.367 . S
C1121 C1120 1.367 . S
C1121 C1123 1.433 . S
C1122 C1118 1.350 . S
C1122 C1119 1.463 . S
C1122 N1126 1.427 . S
C1123 H1113 0.929 . S
C1123 C1121 1.433 . S
C1123 N1126 1.384 . S
C1124 H1115 0.929 . S
C1124 C1116 1.378 . S
C1124 C1119 1.350 . S
C1125 H1112 0.929 . S
C1125 C1117 1.433 . S
C1125 N1127 1.384 . S
N1126 C1122 1.427 . S
N1126 C1123 1.384 . S
N1127 C1119 1.427 . S
N1127 C1125 1.384 . S
C487 C2 0.938 . S
C491 C322 0.934 . S
C505 C42 0.935 . S
C509 C362 0.929 . S
C523 C82 0.928 . S
C527 C402 0.929 . S
C541 C442 0.926 . S
C545 C122 0.930 . S
C559 C162 0.938 . S
C563 C242 0.938 . S
C577 C282 0.937 . S
C581 C202 0.940 . S
C595 C417 1.383 . S
C599 C17 1.390 . S
C613 C457 1.390 . S
C617 C57 1.383 . S
C631 C97 1.380 . S
C635 C257 1.388 . S
C649 C297 1.380 . S
C653 C137 1.386 . S
C667 C337 1.380 . S
C671 C177 1.389 . S
C685 C217 1.390 . S
C689 C377 1.382 . S
C703 C304 4.437 . S
C707 C24 4.433 . S
C721 C344 4.434 . S
C725 C64 4.436 . S
C739 C384 4.436 . S
C743 C104 4.434 . S
C757 C144 4.434 . S
C761 C424 4.438 . S
C775 C184 4.433 . S
C779 C464 4.436 . S
C793 C224 4.437 . S
C797 C264 4.437 . S
C811 C23 0.741 . S
C815 C143 0.715 . S
C829 C63 0.742 . S
C833 C183 0.716 . S
C847 C103 0.739 . S
C851 C223 0.713 . S
C865 C383 0.715 . S
C869 C263 0.742 . S
C883 C303 0.717 . S
C887 C423 0.743 . S
C901 C463 0.744 . S
C905 C343 0.722 . S
C919 C306 0.868 . S
C923 C26 0.890 . S
C937 C346 0.865 . S
C941 C66 0.879 . S
C955 C106 0.875 . S
C959 C386 0.895 . S
C973 C426 0.896 . S
C977 C146 0.886 . S
C991 C466 0.871 . S
C995 C186 0.893 . S
C1009 C226 0.870 . S
C1013 C266 0.893 . S
C1027 C13 4.575 . S
C1031 C413 4.573 . S
C1045 C53 4.573 . S
C1049 C453 4.574 1_556 S
C1063 C93 4.572 1_554 S
C1067 C253 4.575 . S
C1081 C133 4.573 . S
C1085 C293 4.574 . S
C1099 C173 4.574 . S
C1103 C333 4.572 1_556 S
C1117 C373 4.572 . S
C1121 C213 4.575 1_554 S
