# Generated by pormake.
# Topology uot, (4)-cn, num edge types: 1
# Building blocks:
#     Node 0, Type 0, BuildingBlock: KUFVIS_clean_sbu_0, # of connection points: 4
#     Node 1, Type 0, BuildingBlock: KUFVIS_clean_sbu_0, # of connection points: 4
#     Node 2, Type 0, BuildingBlock: KUFVIS_clean_sbu_0, # of connection points: 4
#     Node 3, Type 0, BuildingBlock: KUFVIS_clean_sbu_0, # of connection points: 4
#     Node 4, Type 0, BuildingBlock: KUFVIS_clean_sbu_0, # of connection points: 4
#     Node 5, Type 0, BuildingBlock: KUFVIS_clean_sbu_0, # of connection points: 4
#     Node 6, Type 0, BuildingBlock: KUFVIS_clean_sbu_0, # of connection points: 4
#     Node 7, Type 0, BuildingBlock: KUFVIS_clean_sbu_0, # of connection points: 4
#     Node 8, Type 0, BuildingBlock: KUFVIS_clean_sbu_0, # of connection points: 4
#     Node 9, Type 0, BuildingBlock: KUFVIS_clean_sbu_0, # of connection points: 4
#     Node 10, Type 0, BuildingBlock: KUFVIS_clean_sbu_0, # of connection points: 4
#     Node 11, Type 0, BuildingBlock: KUFVIS_clean_sbu_0, # of connection points: 4
#     Node 12, Type 0, BuildingBlock: KUFVIS_clean_sbu_0, # of connection points: 4
#     Node 13, Type 0, BuildingBlock: KUFVIS_clean_sbu_0, # of connection points: 4
#     Node 14, Type 0, BuildingBlock: KUFVIS_clean_sbu_0, # of connection points: 4
#     Node 15, Type 0, BuildingBlock: KUFVIS_clean_sbu_0, # of connection points: 4
#     Edge 16, Type (0, 0), BuildingBlock: ZUJKAS_clean_linker_0, # of connection points: 2
#     Edge 17, Type (0, 0), BuildingBlock: ZUJKAS_clean_linker_0, # of connection points: 2
#     Edge 18, Type (0, 0), BuildingBlock: ZUJKAS_clean_linker_0, # of connection points: 2
#     Edge 19, Type (0, 0), BuildingBlock: ZUJKAS_clean_linker_0, # of connection points: 2
#     Edge 20, Type (0, 0), BuildingBlock: ZUJKAS_clean_linker_0, # of connection points: 2
#     Edge 21, Type (0, 0), BuildingBlock: ZUJKAS_clean_linker_0, # of connection points: 2
#     Edge 22, Type (0, 0), BuildingBlock: ZUJKAS_clean_linker_0, # of connection points: 2
#     Edge 23, Type (0, 0), BuildingBlock: ZUJKAS_clean_linker_0, # of connection points: 2
#     Edge 24, Type (0, 0), BuildingBlock: ZUJKAS_clean_linker_0, # of connection points: 2
#     Edge 25, Type (0, 0), BuildingBlock: ZUJKAS_clean_linker_0, # of connection points: 2
#     Edge 26, Type (0, 0), BuildingBlock: ZUJKAS_clean_linker_0, # of connection points: 2
#     Edge 27, Type (0, 0), BuildingBlock: ZUJKAS_clean_linker_0, # of connection points: 2
#     Edge 28, Type (0, 0), BuildingBlock: ZUJKAS_clean_linker_0, # of connection points: 2
#     Edge 29, Type (0, 0), BuildingBlock: ZUJKAS_clean_linker_0, # of connection points: 2
#     Edge 30, Type (0, 0), BuildingBlock: ZUJKAS_clean_linker_0, # of connection points: 2
#     Edge 31, Type (0, 0), BuildingBlock: ZUJKAS_clean_linker_0, # of connection points: 2
#     Edge 32, Type (0, 0), BuildingBlock: ZUJKAS_clean_linker_0, # of connection points: 2
#     Edge 33, Type (0, 0), BuildingBlock: ZUJKAS_clean_linker_0, # of connection points: 2
#     Edge 34, Type (0, 0), BuildingBlock: ZUJKAS_clean_linker_0, # of connection points: 2
#     Edge 35, Type (0, 0), BuildingBlock: ZUJKAS_clean_linker_0, # of connection points: 2
#     Edge 36, Type (0, 0), BuildingBlock: ZUJKAS_clean_linker_0, # of connection points: 2
#     Edge 37, Type (0, 0), BuildingBlock: ZUJKAS_clean_linker_0, # of connection points: 2
#     Edge 38, Type (0, 0), BuildingBlock: ZUJKAS_clean_linker_0, # of connection points: 2
#     Edge 39, Type (0, 0), BuildingBlock: ZUJKAS_clean_linker_0, # of connection points: 2
#     Edge 40, Type (0, 0), BuildingBlock: ZUJKAS_clean_linker_0, # of connection points: 2
#     Edge 41, Type (0, 0), BuildingBlock: ZUJKAS_clean_linker_0, # of connection points: 2
#     Edge 42, Type (0, 0), BuildingBlock: ZUJKAS_clean_linker_0, # of connection points: 2
#     Edge 43, Type (0, 0), BuildingBlock: ZUJKAS_clean_linker_0, # of connection points: 2
#     Edge 44, Type (0, 0), BuildingBlock: ZUJKAS_clean_linker_0, # of connection points: 2
#     Edge 45, Type (0, 0), BuildingBlock: ZUJKAS_clean_linker_0, # of connection points: 2
#     Edge 46, Type (0, 0), BuildingBlock: ZUJKAS_clean_linker_0, # of connection points: 2
#     Edge 47, Type (0, 0), BuildingBlock: ZUJKAS_clean_linker_0, # of connection points: 2
# Relax obj value: 0.078
# Max RMSD: 0.115
# Mean RMSD: 0.115
data_MOF--net-uot--node1-KUFVIS_clean_sbu_0--edge1-ZUJKAS_clean_linker_0
_symmetry_space_group_name_H-M    P1
_symmetry_Int_Tables_number       1
_symmetry_cell_setting            triclinic
loop_
_symmetry_equiv_pos_as_xyz
'x, y, z'
_cell_length_a     56.926208
_cell_length_b     56.918541
_cell_length_c     52.581839
_cell_angle_alpha  90.000106
_cell_angle_beta   89.984517
_cell_angle_gamma 90.0139
loop_
_atom_site_label
_atom_site_type_symbol
_atom_site_fract_x
_atom_site_fract_y
_atom_site_fract_z
_atom_type_partial_charge
Mn0 Mn 0.20349 0.44235 0.32684 0.0
Mn1 Mn 0.19257 0.39282 0.35991 0.0
C2 C 0.18361 0.41178 0.30765 0.0
C3 C 0.19291 0.48042 0.31571 0.0
C4 C 0.2405 0.40548 0.33854 0.0
O5 O 0.20889 0.45202 0.36355 0.0
O6 O 0.19735 0.41923 0.38413 0.0
C7 C 0.1466 0.40489 0.38271 0.0
N8 N 0.15997 0.39037 0.3681 0.0
C9 C 0.12725 0.36445 0.36084 0.0
C10 C 0.11314 0.37906 0.37593 0.0
C11 C 0.12285 0.3994 0.38686 0.0
C12 C 0.15082 0.37076 0.35749 0.0
H13 H 0.154 0.42056 0.3911 0.0
C14 C 0.20441 0.44062 0.38388 0.0
O15 O 0.21461 0.47345 0.3145 0.0
O16 O 0.17747 0.46534 0.32364 0.0
N17 N 0.18751 0.36601 0.33867 0.0
C18 C 0.20309 0.35466 0.32332 0.0
C19 C 0.19606 0.3342 0.31052 0.0
C20 C 0.17313 0.32559 0.3137 0.0
C21 C 0.15733 0.33768 0.32944 0.0
C22 C 0.16544 0.35781 0.34198 0.0
H23 H 0.22078 0.36112 0.32089 0.0
O24 O 0.19402 0.42763 0.29392 0.0
O25 O 0.18497 0.41451 0.33215 0.0
O26 O 0.23431 0.42399 0.32671 0.0
O27 O 0.22644 0.39327 0.35208 0.0
C28 C 0.13379 0.33073 0.33293 0.0
C29 C 0.11874 0.34414 0.34857 0.0
H30 H 0.09478 0.37497 0.37906 0.0
H31 H 0.11204 0.41082 0.39843 0.0
H32 H 0.2083 0.32503 0.2983 0.0
H33 H 0.16783 0.30972 0.30389 0.0
H34 H 0.12699 0.31529 0.3234 0.0
H35 H 0.10059 0.33882 0.3508 0.0
Mn36 Mn 0.44278 0.79667 0.67511 0.0
Mn37 Mn 0.39305 0.80748 0.64247 0.0
C38 C 0.413 0.81791 0.69404 0.0
C39 C 0.48125 0.80677 0.68505 0.0
C40 C 0.40516 0.75999 0.66534 0.0
O41 O 0.45168 0.7898 0.63846 0.0
O42 O 0.41903 0.80176 0.61792 0.0
C43 C 0.40531 0.85266 0.61797 0.0
N44 N 0.39088 0.83989 0.63332 0.0
C45 C 0.36558 0.87317 0.64013 0.0
C46 C 0.38011 0.88666 0.62429 0.0
C47 C 0.40008 0.87637 0.61321 0.0
C48 C 0.37161 0.8496 0.64406 0.0
H49 H 0.42071 0.84482 0.60948 0.0
C50 C 0.44024 0.79415 0.61812 0.0
O51 O 0.47382 0.78529 0.68728 0.0
O52 O 0.46639 0.82227 0.67679 0.0
N53 N 0.36669 0.81348 0.66409 0.0
C54 C 0.35546 0.7985 0.68025 0.0
C55 C 0.3354 0.8062 0.69334 0.0
C56 C 0.32707 0.82917 0.68965 0.0
C57 C 0.33904 0.84434 0.6731 0.0
C58 C 0.35876 0.83559 0.66032 0.0
H59 H 0.36171 0.7808 0.68308 0.0
O60 O 0.42884 0.80763 0.70789 0.0
O61 O 0.41528 0.81558 0.66957 0.0
O62 O 0.42377 0.7663 0.67689 0.0
O63 O 0.39313 0.77377 0.65128 0.0
C64 C 0.33237 0.86788 0.66904 0.0
C65 C 0.34567 0.8823 0.65262 0.0
H66 H 0.37622 0.90499 0.6207 0.0
H67 H 0.41144 0.88671 0.60107 0.0
H68 H 0.32633 0.79444 0.7062 0.0
H69 H 0.31153 0.83499 0.69972 0.0
H70 H 0.31725 0.87517 0.67874 0.0
H71 H 0.34058 0.90047 0.64996 0.0
Mn72 Mn 0.79664 0.55766 0.31785 0.0
Mn73 Mn 0.80686 0.60689 0.35156 0.0
C74 C 0.81898 0.58737 0.30026 0.0
C75 C 0.807 0.51928 0.30815 0.0
C76 C 0.75998 0.59524 0.32688 0.0
O77 O 0.78814 0.54855 0.3541 0.0
O78 O 0.80051 0.58062 0.37549 0.0
C79 C 0.85133 0.59443 0.37738 0.0
N80 N 0.839 0.60897 0.36174 0.0
C81 C 0.87248 0.63427 0.35619 0.0
C82 C 0.88552 0.61963 0.37233 0.0
C83 C 0.8749 0.5996 0.38293 0.0
C84 C 0.84902 0.62831 0.35148 0.0
H85 H 0.84323 0.57899 0.3855 0.0
C86 C 0.79241 0.55959 0.37474 0.0
O87 O 0.78575 0.52681 0.30441 0.0
O88 O 0.82207 0.53393 0.31766 0.0
N89 N 0.81346 0.63343 0.33039 0.0
C90 C 0.79898 0.64472 0.31378 0.0
C91 C 0.80712 0.66476 0.30094 0.0
C92 C 0.83001 0.67299 0.30536 0.0
C93 C 0.84465 0.661 0.32243 0.0
C94 C 0.83548 0.64128 0.33489 0.0
H95 H 0.78134 0.63851 0.31035 0.0
O96 O 0.80916 0.57173 0.28578 0.0
O97 O 0.81561 0.5849 0.32457 0.0
O98 O 0.76656 0.57701 0.31479 0.0
O99 O 0.77341 0.60682 0.34177 0.0
C100 C 0.86808 0.6676 0.32727 0.0
C101 C 0.882 0.65422 0.3441 0.0
H102 H 0.90375 0.62346 0.37652 0.0
H103 H 0.88488 0.58816 0.39531 0.0
H104 H 0.79577 0.67385 0.2877 0.0
H105 H 0.8362 0.68847 0.29543 0.0
H106 H 0.87568 0.68274 0.31788 0.0
H107 H 0.9001 0.65926 0.34736 0.0
Mn108 Mn 0.55926 0.20084 0.67873 0.0
Mn109 Mn 0.60807 0.188 0.64534 0.0
C110 C 0.58882 0.1792 0.69739 0.0
C111 C 0.52081 0.19152 0.68937 0.0
C112 C 0.59778 0.23621 0.66756 0.0
O113 O 0.54996 0.20767 0.64218 0.0
O114 O 0.58191 0.19438 0.62129 0.0
C115 C 0.5934 0.14296 0.62214 0.0
N116 N 0.60866 0.15536 0.63688 0.0
C117 C 0.63238 0.12104 0.64421 0.0
C118 C 0.61699 0.10792 0.62897 0.0
C119 C 0.59739 0.11893 0.61795 0.0
C120 C 0.62752 0.14494 0.64767 0.0
H121 H 0.57829 0.15136 0.61368 0.0
C122 C 0.56099 0.20274 0.62173 0.0
O123 O 0.52865 0.21285 0.6917 0.0
O124 O 0.53521 0.17579 0.6807 0.0
N125 N 0.63462 0.18127 0.66645 0.0
C126 C 0.64701 0.19611 0.68174 0.0
C127 C 0.6668 0.18768 0.6948 0.0
C128 C 0.67375 0.16416 0.69184 0.0
C129 C 0.66086 0.14929 0.67581 0.0
C130 C 0.64134 0.15869 0.66322 0.0
H131 H 0.64177 0.21422 0.68404 0.0
O132 O 0.57339 0.18986 0.71142 0.0
O133 O 0.58613 0.18121 0.67296 0.0
O134 O 0.57916 0.23068 0.67964 0.0
O135 O 0.60925 0.22181 0.65364 0.0
C136 C 0.66643 0.12542 0.67209 0.0
C137 C 0.65213 0.11127 0.65641 0.0
H138 H 0.61996 0.08936 0.62576 0.0
H139 H 0.58538 0.10889 0.60626 0.0
H140 H 0.67665 0.19926 0.70714 0.0
H141 H 0.68894 0.15768 0.70207 0.0
H142 H 0.68149 0.11769 0.68149 0.0
H143 H 0.65637 0.09285 0.65406 0.0
Mn144 Mn 0.20273 0.55171 0.6824 0.0
Mn145 Mn 0.188 0.6016 0.6518 0.0
C146 C 0.17914 0.57896 0.70235 0.0
C147 C 0.19502 0.51232 0.69017 0.0
C148 C 0.23626 0.59254 0.67464 0.0
O149 O 0.21071 0.54482 0.64554 0.0
O150 O 0.19608 0.57706 0.62628 0.0
C151 C 0.14424 0.58633 0.62633 0.0
N152 N 0.15558 0.60125 0.64242 0.0
C153 C 0.12003 0.62293 0.65033 0.0
C154 C 0.108 0.60789 0.63371 0.0
C155 C 0.12015 0.58949 0.6217 0.0
C156 C 0.14408 0.61905 0.65404 0.0
H157 H 0.1535 0.5721 0.61716 0.0
C158 C 0.20544 0.55656 0.62566 0.0
O159 O 0.21589 0.52095 0.69376 0.0
O160 O 0.17886 0.52646 0.682 0.0
N161 N 0.17958 0.62659 0.67441 0.0
C162 C 0.19339 0.63849 0.6912 0.0
C163 C 0.18367 0.65689 0.70557 0.0
C164 C 0.15992 0.66292 0.70244 0.0
C165 C 0.14611 0.65054 0.6849 0.0
C166 C 0.1568 0.6325 0.67095 0.0
H167 H 0.21163 0.6339 0.69375 0.0
O168 O 0.19036 0.56337 0.71562 0.0
O169 O 0.1818 0.57783 0.67783 0.0
O170 O 0.23153 0.57301 0.68539 0.0
O171 O 0.22149 0.60391 0.66109 0.0
C172 C 0.12202 0.65503 0.68113 0.0
C173 C 0.10899 0.64125 0.66385 0.0
H174 H 0.08938 0.61014 0.63025 0.0
H175 H 0.11095 0.57773 0.60896 0.0
H176 H 0.19443 0.66632 0.71911 0.0
H177 H 0.15243 0.67694 0.71376 0.0
H178 H 0.11325 0.6688 0.69173 0.0
H179 H 0.09041 0.64463 0.66141 0.0
Mn180 Mn 0.55543 0.79971 0.3204 0.0
Mn181 Mn 0.60476 0.811 0.35364 0.0
C182 C 0.58511 0.82154 0.30215 0.0
C183 C 0.51702 0.80964 0.31029 0.0
C184 C 0.59406 0.76377 0.32931 0.0
O185 O 0.54626 0.79188 0.35676 0.0
O186 O 0.5788 0.8036 0.37765 0.0
C187 C 0.59021 0.85501 0.37913 0.0
N188 N 0.60539 0.84325 0.36369 0.0
C189 C 0.62905 0.87787 0.35787 0.0
C190 C 0.61376 0.89032 0.37384 0.0
C191 C 0.59421 0.87886 0.38446 0.0
C192 C 0.62417 0.85414 0.35327 0.0
H193 H 0.57514 0.84626 0.38728 0.0
C194 C 0.5577 0.79572 0.37722 0.0
O195 O 0.52467 0.78832 0.30725 0.0
O196 O 0.53157 0.825 0.31944 0.0
N197 N 0.6312 0.81862 0.33272 0.0
C198 C 0.64363 0.80439 0.31679 0.0
C199 C 0.66341 0.81334 0.30412 0.0
C200 C 0.67035 0.83674 0.30813 0.0
C201 C 0.65745 0.85095 0.32484 0.0
C202 C 0.63794 0.84105 0.337 0.0
H203 H 0.63843 0.78637 0.31369 0.0
O204 O 0.56941 0.81147 0.28797 0.0
O205 O 0.58261 0.81894 0.32655 0.0
O206 O 0.57508 0.76975 0.3182 0.0
O207 O 0.60589 0.7776 0.34355 0.0
C208 C 0.66304 0.87464 0.32969 0.0
C209 C 0.64878 0.88813 0.34607 0.0
H210 H 0.61675 0.90873 0.37794 0.0
H211 H 0.58227 0.88838 0.39671 0.0
H212 H 0.67328 0.80225 0.29126 0.0
H213 H 0.68553 0.84363 0.2982 0.0
H214 H 0.67812 0.88274 0.32068 0.0
H215 H 0.65304 0.90644 0.34932 0.0
Mn216 Mn 0.79845 0.44616 0.67314 0.0
Mn217 Mn 0.81175 0.39669 0.64091 0.0
C218 C 0.81876 0.41638 0.69311 0.0
C219 C 0.80767 0.48461 0.68415 0.0
C220 C 0.76323 0.4072 0.66192 0.0
O221 O 0.79319 0.45541 0.63631 0.0
O222 O 0.80511 0.42246 0.61642 0.0
C223 C 0.85671 0.41195 0.61796 0.0
N224 N 0.84442 0.39653 0.63263 0.0
C225 C 0.87883 0.37285 0.63955 0.0
C226 C 0.89185 0.3884 0.6244 0.0
C227 C 0.88075 0.40808 0.61364 0.0
C228 C 0.85496 0.37766 0.64326 0.0
H229 H 0.84823 0.42707 0.60963 0.0
C230 C 0.79756 0.44366 0.61621 0.0
O231 O 0.78617 0.47701 0.68503 0.0
O232 O 0.82365 0.46996 0.67657 0.0
N233 N 0.81871 0.37026 0.66209 0.0
C234 C 0.8039 0.35755 0.67711 0.0
C235 C 0.81241 0.33759 0.68982 0.0
C236 C 0.83593 0.33072 0.68667 0.0
C237 C 0.85074 0.34389 0.67083 0.0
C238 C 0.8413 0.36365 0.65871 0.0
H239 H 0.78576 0.36265 0.67945 0.0
O240 O 0.80774 0.4321 0.70642 0.0
O241 O 0.81799 0.41889 0.66855 0.0
O242 O 0.76834 0.42657 0.67278 0.0
O243 O 0.77799 0.39509 0.64914 0.0
C244 C 0.87453 0.33828 0.66671 0.0
C245 C 0.88863 0.35286 0.65127 0.0
H246 H 0.91038 0.38546 0.621 0.0
H247 H 0.8907 0.42021 0.602 0.0
H248 H 0.80085 0.3275 0.70199 0.0
H249 H 0.84245 0.31536 0.69657 0.0
H250 H 0.88225 0.32293 0.67557 0.0
H251 H 0.90701 0.34858 0.64863 0.0
Mn252 Mn 0.44002 0.19812 0.32614 0.0
Mn253 Mn 0.39134 0.18844 0.36118 0.0
C254 C 0.4083 0.17901 0.30821 0.0
C255 C 0.47762 0.18725 0.31361 0.0
C256 C 0.40348 0.23569 0.33807 0.0
O257 O 0.45125 0.20362 0.36228 0.0
O258 O 0.4184 0.19465 0.384 0.0
C259 C 0.40538 0.14375 0.38558 0.0
N260 N 0.3899 0.15624 0.3712 0.0
C261 C 0.36319 0.12357 0.36925 0.0
C262 C 0.37878 0.11035 0.38413 0.0
C263 C 0.40004 0.12045 0.39219 0.0
C264 C 0.36959 0.14659 0.36301 0.0
H265 H 0.42162 0.15155 0.39202 0.0
C266 C 0.44003 0.20074 0.38302 0.0
O267 O 0.47072 0.20896 0.31258 0.0
O268 O 0.46267 0.17184 0.32196 0.0
N269 N 0.36362 0.18201 0.34187 0.0
C270 C 0.35117 0.1967 0.32649 0.0
C271 C 0.32977 0.18903 0.31614 0.0
C272 C 0.32118 0.16656 0.32214 0.0
C273 C 0.33423 0.15183 0.33818 0.0
C274 C 0.35558 0.16031 0.34763 0.0
H275 H 0.35752 0.21414 0.3222 0.0
O276 O 0.42403 0.18897 0.29394 0.0
O277 O 0.41191 0.18 0.33263 0.0
O278 O 0.42214 0.22923 0.32668 0.0
O279 O 0.39093 0.22193 0.35161 0.0
C280 C 0.32693 0.12907 0.34516 0.0
C281 C 0.34153 0.11483 0.3604 0.0
H282 H 0.37465 0.09242 0.38941 0.0
H283 H 0.4122 0.11035 0.40363 0.0
H284 H 0.3198 0.20049 0.30377 0.0
H285 H 0.30457 0.16077 0.31426 0.0
H286 H 0.31024 0.12221 0.33864 0.0
H287 H 0.33593 0.09718 0.36518 0.0
Mn288 Mn 0.69748 0.93817 0.82504 0.0
Mn289 Mn 0.6855 0.89061 0.86095 0.0
C290 C 0.67691 0.90707 0.80759 0.0
C291 C 0.68775 0.97596 0.81208 0.0
C292 C 0.73341 0.90054 0.83778 0.0
O293 O 0.70419 0.94938 0.86102 0.0
O294 O 0.69173 0.91798 0.88335 0.0
C295 C 0.64054 0.90618 0.88366 0.0
N296 N 0.65308 0.89004 0.8702 0.0
C297 C 0.62001 0.86382 0.86835 0.0
C298 C 0.60676 0.88004 0.8824 0.0
C299 C 0.61703 0.9014 0.88991 0.0
C300 C 0.64325 0.86968 0.86242 0.0
H301 H 0.64844 0.92253 0.88958 0.0
C302 C 0.69965 0.93899 0.88193 0.0
O303 O 0.70923 0.96836 0.8108 0.0
O304 O 0.67207 0.96169 0.82115 0.0
N305 N 0.67887 0.86269 0.84206 0.0
C306 C 0.69355 0.84969 0.82721 0.0
C307 C 0.68568 0.82819 0.81726 0.0
C308 C 0.66301 0.82006 0.82314 0.0
C309 C 0.64829 0.83368 0.83863 0.0
C310 C 0.65697 0.8551 0.84767 0.0
H311 H 0.71114 0.85565 0.82304 0.0
O312 O 0.68727 0.92233 0.79308 0.0
O313 O 0.67821 0.91092 0.83194 0.0
O314 O 0.72766 0.91888 0.82539 0.0
O315 O 0.7192 0.88926 0.85211 0.0
C316 C 0.62532 0.82688 0.84543 0.0
C317 C 0.61108 0.84207 0.85998 0.0
H318 H 0.58867 0.87635 0.88739 0.0
H319 H 0.6069 0.91407 0.90064 0.0
H320 H 0.69714 0.81778 0.80532 0.0
H321 H 0.65706 0.80339 0.81558 0.0
H322 H 0.6183 0.81015 0.83924 0.0
H323 H 0.59327 0.83688 0.86456 0.0
Mn324 Mn 0.94773 0.29833 0.17713 0.0
Mn325 Mn 0.89868 0.31372 0.14537 0.0
C326 C 0.91976 0.32111 0.19695 0.0
C327 C 0.98675 0.306 0.18683 0.0
C328 C 0.90716 0.26494 0.16708 0.0
O329 O 0.9558 0.29145 0.1403 0.0
O330 O 0.92392 0.30616 0.12046 0.0
C331 C 0.9148 0.35804 0.12167 0.0
N332 N 0.89937 0.34635 0.1369 0.0
C333 C 0.87759 0.38179 0.1451 0.0
C334 C 0.89315 0.39418 0.12936 0.0
C335 C 0.91185 0.38225 0.11763 0.0
C336 C 0.88128 0.35764 0.14824 0.0
H337 H 0.92926 0.34895 0.11273 0.0
C338 C 0.9445 0.29697 0.12022 0.0
O339 O 0.97814 0.28496 0.18917 0.0
O340 O 0.97283 0.32232 0.17858 0.0
N341 N 0.87303 0.32167 0.1673 0.0
C342 C 0.86056 0.30749 0.18324 0.0
C343 C 0.84176 0.31691 0.19721 0.0
C344 C 0.83591 0.34075 0.19457 0.0
C345 C 0.84886 0.35496 0.17789 0.0
C346 C 0.86728 0.34455 0.16429 0.0
H347 H 0.86502 0.28916 0.18541 0.0
O348 O 0.93502 0.30955 0.21033 0.0
O349 O 0.92164 0.31928 0.17239 0.0
O350 O 0.92647 0.26937 0.17838 0.0
O351 O 0.89605 0.28003 0.1537 0.0
C352 C 0.84456 0.37915 0.17467 0.0
C353 C 0.85891 0.39256 0.15829 0.0
H354 H 0.89106 0.41289 0.12637 0.0
H355 H 0.92402 0.39172 0.10558 0.0
H356 H 0.83188 0.30584 0.21008 0.0
H357 H 0.82157 0.34801 0.2056 0.0
H358 H 0.83051 0.38771 0.18503 0.0
H359 H 0.85566 0.41121 0.15627 0.0
Mn360 Mn 0.2958 0.05757 0.81858 0.0
Mn361 Mn 0.30518 0.10734 0.85176 0.0
C362 C 0.31721 0.08776 0.80057 0.0
C363 C 0.3069 0.01942 0.80849 0.0
C364 C 0.25844 0.09471 0.82742 0.0
O365 O 0.28803 0.04832 0.85497 0.0
O366 O 0.29901 0.08117 0.87586 0.0
C367 C 0.34974 0.09544 0.87773 0.0
N368 N 0.33726 0.10981 0.86204 0.0
C369 C 0.37043 0.13555 0.85658 0.0
C370 C 0.38361 0.12109 0.87278 0.0
C371 C 0.37322 0.10093 0.88336 0.0
C372 C 0.34707 0.12927 0.85178 0.0
H373 H 0.34181 0.07991 0.88584 0.0
C374 C 0.29168 0.05987 0.87543 0.0
O375 O 0.2854 0.02649 0.80536 0.0
O376 O 0.32178 0.03437 0.81782 0.0
N377 N 0.31153 0.13388 0.83052 0.0
C378 C 0.2969 0.14504 0.81395 0.0
C379 C 0.30476 0.16527 0.80126 0.0
C380 C 0.32751 0.17383 0.80579 0.0
C381 C 0.34231 0.16195 0.82279 0.0
C382 C 0.33341 0.14205 0.83513 0.0
H383 H 0.27936 0.1386 0.81047 0.0
O384 O 0.30753 0.07188 0.78629 0.0
O385 O 0.31423 0.08529 0.82493 0.0
O386 O 0.2652 0.07618 0.81598 0.0
O387 O 0.27181 0.10688 0.8418 0.0
C388 C 0.36563 0.16888 0.82773 0.0
C389 C 0.3797 0.15565 0.84456 0.0
H390 H 0.40177 0.12517 0.87704 0.0
H391 H 0.38331 0.08963 0.89578 0.0
H392 H 0.29329 0.17427 0.78806 0.0
H393 H 0.33345 0.18949 0.79602 0.0
H394 H 0.37303 0.18415 0.8184 0.0
H395 H 0.39772 0.16094 0.84789 0.0
Mn396 Mn 0.06211 0.69829 0.17608 0.0
Mn397 Mn 0.11008 0.68723 0.14052 0.0
C398 C 0.09279 0.6769 0.19321 0.0
C399 C 0.0241 0.68825 0.1879 0.0
C400 C 0.09999 0.73446 0.16528 0.0
O401 O 0.05152 0.70642 0.1402 0.0
O402 O 0.08302 0.69408 0.11795 0.0
C403 C 0.09481 0.64293 0.11612 0.0
N404 N 0.11076 0.65507 0.13023 0.0
C405 C 0.13685 0.62188 0.13157 0.0
C406 C 0.12082 0.60906 0.11683 0.0
C407 C 0.09962 0.61958 0.10924 0.0
C408 C 0.13097 0.64498 0.13808 0.0
H409 H 0.07856 0.65101 0.11016 0.0
C410 C 0.0621 0.70222 0.1193 0.0
O411 O 0.03183 0.70958 0.19055 0.0
O412 O 0.03834 0.6729 0.17815 0.0
N413 N 0.13773 0.68004 0.15965 0.0
C414 C 0.15053 0.6943 0.17517 0.0
C415 C 0.17184 0.6861 0.18528 0.0
C416 C 0.17998 0.66356 0.17888 0.0
C417 C 0.16657 0.64929 0.1627 0.0
C418 C 0.14534 0.65827 0.15352 0.0
H419 H 0.14456 0.7118 0.17976 0.0
O420 O 0.07733 0.68676 0.20786 0.0
O421 O 0.08934 0.67911 0.16887 0.0
O422 O 0.0816 0.72834 0.1774 0.0
O423 O 0.1113 0.72068 0.15049 0.0
C424 C 0.17341 0.62648 0.15535 0.0
C425 C 0.15842 0.61267 0.14009 0.0
H426 H 0.12453 0.59109 0.11136 0.0
H427 H 0.08709 0.60976 0.09799 0.0
H428 H 0.18209 0.69722 0.19775 0.0
H429 H 0.19651 0.65737 0.18658 0.0
H430 H 0.19001 0.61925 0.16164 0.0
H431 H 0.16363 0.59496 0.13508 0.0
Mn432 Mn 0.69894 0.06085 0.17577 0.0
Mn433 Mn 0.68721 0.10854 0.14004 0.0
C434 C 0.678 0.09177 0.19311 0.0
C435 C 0.68887 0.02303 0.18849 0.0
C436 C 0.735 0.09849 0.16346 0.0
O437 O 0.70592 0.04981 0.13976 0.0
O438 O 0.6935 0.08128 0.11751 0.0
C439 C 0.64236 0.09328 0.11683 0.0
N440 N 0.65486 0.10927 0.13055 0.0
C441 C 0.62182 0.13552 0.13248 0.0
C442 C 0.60864 0.11946 0.11815 0.0
C443 C 0.61891 0.09816 0.11046 0.0
C444 C 0.64501 0.12958 0.13848 0.0
H445 H 0.65026 0.07696 0.1108 0.0
C446 C 0.70142 0.06027 0.11887 0.0
O447 O 0.71039 0.03051 0.19005 0.0
O448 O 0.67341 0.03741 0.17922 0.0
N449 N 0.6805 0.13629 0.15921 0.0
C450 C 0.69503 0.14901 0.17451 0.0
C451 C 0.68707 0.17033 0.18482 0.0
C452 C 0.66445 0.17855 0.17888 0.0
C453 C 0.64989 0.16521 0.16294 0.0
C454 C 0.65864 0.14396 0.15355 0.0
H455 H 0.71257 0.14295 0.17877 0.0
O456 O 0.68835 0.07656 0.20769 0.0
O457 O 0.6797 0.08804 0.16878 0.0
O458 O 0.72916 0.08016 0.17585 0.0
O459 O 0.72087 0.10977 0.14906 0.0
C460 C 0.62699 0.17212 0.15606 0.0
C461 C 0.61285 0.15716 0.14112 0.0
H462 H 0.59058 0.12322 0.11309 0.0
H463 H 0.60882 0.08561 0.09952 0.0
H464 H 0.69841 0.18051 0.19712 0.0
H465 H 0.65842 0.19507 0.18675 0.0
H466 H 0.61992 0.18875 0.16251 0.0
H467 H 0.59507 0.16241 0.1365 0.0
Mn468 Mn 0.05188 0.29491 0.81933 0.0
Mn469 Mn 0.10284 0.30585 0.84976 0.0
C470 C 0.08138 0.31509 0.79878 0.0
C471 C 0.01343 0.30578 0.81029 0.0
C472 C 0.08954 0.25805 0.82845 0.0
O473 O 0.04395 0.28906 0.85643 0.0
O474 O 0.07768 0.30031 0.87536 0.0
C475 C 0.09107 0.35127 0.87399 0.0
N476 N 0.10507 0.33841 0.85827 0.0
C477 C 0.12937 0.37201 0.84929 0.0
C478 C 0.1153 0.38558 0.86552 0.0
C479 C 0.09605 0.37516 0.87789 0.0
C480 C 0.12367 0.34823 0.84632 0.0
H481 H 0.07618 0.34336 0.88342 0.0
C482 C 0.05629 0.29322 0.87618 0.0
O483 O 0.02019 0.28404 0.80839 0.0
O484 O 0.0289 0.32098 0.81784 0.0
N485 N 0.12849 0.31173 0.82707 0.0
C486 C 0.13934 0.2966 0.81077 0.0
C487 C 0.15844 0.30451 0.79618 0.0
C488 C 0.16624 0.32782 0.79857 0.0
C489 C 0.15493 0.343 0.81562 0.0
C490 C 0.13612 0.33408 0.82984 0.0
H491 H 0.13336 0.2787 0.80878 0.0
O492 O 0.06497 0.3048 0.78576 0.0
O493 O 0.0798 0.31345 0.82338 0.0
O494 O 0.07038 0.2642 0.81785 0.0
O495 O 0.10243 0.27205 0.84135 0.0
C496 C 0.16122 0.36678 0.81864 0.0
C497 C 0.14846 0.38127 0.83547 0.0
H498 H 0.11897 0.40406 0.86842 0.0
H499 H 0.08504 0.38556 0.89033 0.0
H500 H 0.16705 0.2927 0.78302 0.0
H501 H 0.1808 0.33393 0.78707 0.0
H502 H 0.17561 0.3742 0.80781 0.0
H503 H 0.15324 0.39961 0.83734 0.0
Mn504 Mn 0.29714 0.94596 0.17398 0.0
Mn505 Mn 0.30857 0.89637 0.14127 0.0
C506 C 0.31772 0.91594 0.19328 0.0
C507 C 0.30729 0.98432 0.18445 0.0
C508 C 0.26058 0.90862 0.16277 0.0
O509 O 0.29114 0.95507 0.13721 0.0
O510 O 0.30358 0.92252 0.11679 0.0
C511 C 0.35442 0.90856 0.11825 0.0
N512 N 0.34117 0.89409 0.13307 0.0
C513 C 0.37408 0.86848 0.14056 0.0
C514 C 0.38807 0.88305 0.12527 0.0
C515 C 0.3782 0.90319 0.11411 0.0
C516 C 0.35048 0.87465 0.14388 0.0
H517 H 0.34689 0.92408 0.10969 0.0
C518 C 0.29592 0.94371 0.11692 0.0
O519 O 0.28571 0.97705 0.18606 0.0
O520 O 0.32285 0.96938 0.17648 0.0
N521 N 0.31385 0.86982 0.16283 0.0
C522 C 0.29839 0.85855 0.1784 0.0
C523 C 0.30561 0.83829 0.19146 0.0
C524 C 0.32859 0.82983 0.18834 0.0
C525 C 0.34426 0.84184 0.17238 0.0
C526 C 0.33598 0.86176 0.15959 0.0
H527 H 0.28066 0.8649 0.18078 0.0
O528 O 0.30724 0.93178 0.20695 0.0
O529 O 0.31602 0.91839 0.16876 0.0
O530 O 0.26664 0.92708 0.17477 0.0
O531 O 0.27468 0.89662 0.14905 0.0
C532 C 0.36784 0.83503 0.16892 0.0
C533 C 0.38276 0.84837 0.15307 0.0
H534 H 0.40645 0.87905 0.12215 0.0
H535 H 0.38891 0.91458 0.10239 0.0
H536 H 0.29346 0.82919 0.20386 0.0
H537 H 0.33403 0.81413 0.19837 0.0
H538 H 0.37477 0.81975 0.17863 0.0
H539 H 0.40095 0.84317 0.15087 0.0
Mn540 Mn 0.9403 0.69827 0.82594 0.0
Mn541 Mn 0.8928 0.68738 0.86225 0.0
C542 C 0.90908 0.67756 0.80899 0.0
C543 C 0.97808 0.68764 0.81396 0.0
C544 C 0.90338 0.73484 0.83816 0.0
O545 O 0.95133 0.7061 0.86176 0.0
O546 O 0.92039 0.69306 0.88446 0.0
C547 C 0.90734 0.64218 0.88517 0.0
N548 N 0.89148 0.65503 0.87167 0.0
C549 C 0.86461 0.62248 0.86984 0.0
C550 C 0.88054 0.60893 0.88393 0.0
C551 C 0.90208 0.61879 0.89146 0.0
C552 C 0.87094 0.6456 0.86389 0.0
H553 H 0.92385 0.64976 0.89109 0.0
C554 C 0.94123 0.70136 0.88279 0.0
O555 O 0.97071 0.70909 0.81124 0.0
O556 O 0.96359 0.67252 0.82367 0.0
N557 N 0.86469 0.68133 0.84347 0.0
C558 C 0.85198 0.69626 0.82862 0.0
C559 C 0.83034 0.6888 0.81865 0.0
C560 C 0.82179 0.66628 0.8245 0.0
C561 C 0.83509 0.65131 0.84003 0.0
C562 C 0.85666 0.65959 0.84911 0.0
H563 H 0.85829 0.71373 0.82444 0.0
O564 O 0.92463 0.68715 0.79424 0.0
O565 O 0.91286 0.67948 0.8333 0.0
O566 O 0.92116 0.72856 0.82508 0.0
O567 O 0.89234 0.72107 0.85322 0.0
C568 C 0.82784 0.62848 0.84682 0.0
C569 C 0.84271 0.61396 0.86142 0.0
H570 H 0.87648 0.59092 0.88894 0.0
H571 H 0.91453 0.60841 0.90222 0.0
H572 H 0.82018 0.70045 0.80669 0.0
H573 H 0.80502 0.66065 0.81691 0.0
H574 H 0.81098 0.62179 0.84062 0.0
H575 H 0.83717 0.59626 0.866 0.0
H576 H 0.27386 0.41881 0.30348 0.0
H577 H 0.31291 0.40134 0.29726 0.0
H578 H 0.30098 0.35546 0.36124 0.0
H579 H 0.26239 0.37268 0.36771 0.0
H580 H 0.34789 0.37682 0.35807 0.0
H581 H 0.31812 0.3326 0.26892 0.0
H582 H 0.31498 0.36394 0.27224 0.0
H583 H 0.29711 0.34468 0.29106 0.0
C584 C 0.27973 0.40523 0.31642 0.0
C585 C 0.26491 0.39695 0.33592 0.0
C586 C 0.30198 0.39527 0.31279 0.0
C587 C 0.30967 0.37705 0.32871 0.0
C588 C 0.29534 0.36956 0.3488 0.0
H589 H 0.37363 0.25948 0.36911 0.0
H590 H 0.35826 0.29901 0.36348 0.0
C591 C 0.2732 0.37934 0.35236 0.0
C592 C 0.33161 0.36402 0.32379 0.0
H593 H 0.35055 0.31656 0.29 0.0
C594 C 0.34898 0.36415 0.34271 0.0
C595 C 0.33308 0.34771 0.30357 0.0
C596 C 0.31489 0.34703 0.28272 0.0
C597 C 0.36643 0.3468 0.34334 0.0
C598 C 0.36618 0.32884 0.32481 0.0
C599 C 0.35053 0.33032 0.30428 0.0
C600 C 0.37816 0.30621 0.32926 0.0
C601 C 0.38393 0.34684 0.36485 0.0
C602 C 0.39428 0.29706 0.31169 0.0
C603 C 0.40317 0.27431 0.31488 0.0
C604 C 0.39562 0.2603 0.33538 0.0
C605 C 0.37973 0.26975 0.35306 0.0
C606 C 0.37112 0.29246 0.35004 0.0
H607 H 0.38736 0.365 0.37165 0.0
H608 H 0.37667 0.33664 0.38103 0.0
H609 H 0.40081 0.33869 0.35899 0.0
H610 H 0.3996 0.30732 0.29533 0.0
H611 H 0.41533 0.26746 0.30088 0.0
H612 H 0.41605 0.72876 0.70341 0.0
H613 H 0.39824 0.69005 0.71082 0.0
H614 H 0.35656 0.69823 0.64292 0.0
H615 H 0.37407 0.73656 0.63538 0.0
H616 H 0.34957 0.68345 0.71787 0.0
H617 H 0.38079 0.6307 0.63665 0.0
H618 H 0.39587 0.65684 0.64741 0.0
H619 H 0.37099 0.65909 0.62637 0.0
C620 C 0.40341 0.72207 0.68982 0.0
C621 C 0.39639 0.73576 0.66885 0.0
C622 C 0.39329 0.69999 0.69409 0.0
C623 C 0.37643 0.69113 0.67717 0.0
C624 C 0.36997 0.70449 0.65588 0.0
H625 H 0.25468 0.6297 0.64891 0.0
H626 H 0.2931 0.64762 0.65418 0.0
C627 C 0.37982 0.72654 0.65175 0.0
C628 C 0.36321 0.6694 0.68282 0.0
H629 H 0.34117 0.62145 0.65221 0.0
C630 C 0.34832 0.66932 0.7041 0.0
C631 C 0.36179 0.65091 0.66494 0.0
C632 C 0.37843 0.64925 0.64271 0.0
C633 C 0.33017 0.65275 0.7063 0.0
C634 C 0.32709 0.63597 0.68681 0.0
C635 C 0.34354 0.6345 0.66703 0.0
C636 C 0.30448 0.62369 0.68363 0.0
C637 C 0.31297 0.6547 0.72802 0.0
C638 C 0.29828 0.60419 0.69848 0.0
C639 C 0.27615 0.59375 0.6955 0.0
C640 C 0.25997 0.60284 0.67776 0.0
C641 C 0.26655 0.62227 0.66285 0.0
C642 C 0.28857 0.63251 0.66573 0.0
H643 H 0.31838 0.66812 0.74219 0.0
H644 H 0.29536 0.65945 0.72053 0.0
H645 H 0.31132 0.63747 0.73775 0.0
H646 H 0.31044 0.59722 0.7124 0.0
H647 H 0.27162 0.57881 0.70728 0.0
H648 H 0.62871 0.74195 0.35603 0.0
H649 H 0.64587 0.7035 0.34814 0.0
H650 H 0.59806 0.69246 0.2857 0.0
H651 H 0.58052 0.73125 0.29344 0.0
H652 H 0.62083 0.6561 0.34407 0.0
H653 H 0.66849 0.6866 0.25735 0.0
H654 H 0.6584 0.70757 0.28068 0.0
H655 H 0.63753 0.69233 0.26121 0.0
C656 C 0.62166 0.73139 0.34068 0.0
C657 C 0.60333 0.73978 0.32525 0.0
C658 C 0.63143 0.70936 0.3363 0.0
C659 C 0.62322 0.69528 0.31635 0.0
C660 C 0.60459 0.70319 0.30118 0.0
H661 H 0.72954 0.58664 0.28735 0.0
H662 H 0.69051 0.60419 0.28093 0.0
C663 C 0.59462 0.7253 0.30566 0.0
C664 C 0.63553 0.67302 0.31107 0.0
H665 H 0.68309 0.65314 0.27813 0.0
C666 C 0.63394 0.65497 0.32914 0.0
C667 C 0.65237 0.67153 0.2914 0.0
C668 C 0.65447 0.69046 0.27145 0.0
C669 C 0.65032 0.63661 0.32949 0.0
C670 C 0.66889 0.63669 0.31165 0.0
C671 C 0.66889 0.65324 0.29189 0.0
C672 C 0.69078 0.62344 0.3164 0.0
C673 C 0.64858 0.6182 0.35002 0.0
C674 C 0.70377 0.6286 0.33834 0.0
C675 C 0.72597 0.61895 0.34189 0.0
C676 C 0.73571 0.60388 0.32356 0.0
C677 C 0.72242 0.59813 0.30186 0.0
C678 C 0.70017 0.60808 0.29817 0.0
H679 H 0.62998 0.61519 0.35556 0.0
H680 H 0.6564 0.60128 0.34378 0.0
H681 H 0.65814 0.62438 0.36715 0.0
H682 H 0.69711 0.64088 0.35234 0.0
H683 H 0.73567 0.62366 0.35887 0.0
H684 H 0.58728 0.26947 0.70376 0.0
H685 H 0.6044 0.30892 0.70783 0.0
H686 H 0.64565 0.29689 0.64027 0.0
H687 H 0.62888 0.25781 0.63606 0.0
H688 H 0.6536 0.31741 0.71291 0.0
H689 H 0.61798 0.36294 0.62869 0.0
H690 H 0.60407 0.33735 0.64248 0.0
H691 H 0.62834 0.33408 0.62077 0.0
C692 C 0.59976 0.2754 0.68959 0.0
C693 C 0.60679 0.26049 0.66963 0.0
C694 C 0.60945 0.29791 0.69194 0.0
C695 C 0.6259 0.30593 0.67406 0.0
C696 C 0.63255 0.29123 0.65392 0.0
H697 H 0.74332 0.37166 0.63483 0.0
H698 H 0.70517 0.35346 0.6415 0.0
C699 C 0.62313 0.26877 0.65171 0.0
C700 C 0.63835 0.32847 0.67743 0.0
H701 H 0.65737 0.37495 0.64216 0.0
C702 C 0.65388 0.33058 0.698 0.0
C703 C 0.63846 0.34565 0.65804 0.0
C704 C 0.62111 0.34503 0.63639 0.0
C705 C 0.67144 0.34789 0.6981 0.0
C706 C 0.67317 0.36342 0.67721 0.0
C707 C 0.65605 0.36286 0.65805 0.0
C708 C 0.69503 0.37657 0.67226 0.0
C709 C 0.6894 0.34799 0.71919 0.0
C710 C 0.70174 0.39587 0.68714 0.0
C711 C 0.7237 0.40642 0.68337 0.0
C712 C 0.73921 0.39765 0.66477 0.0
C713 C 0.73195 0.37876 0.64945 0.0
C714 C 0.71008 0.3684 0.65313 0.0
H715 H 0.6859 0.33422 0.73368 0.0
H716 H 0.70723 0.34513 0.71118 0.0
H717 H 0.68938 0.36536 0.72876 0.0
H718 H 0.69024 0.40244 0.70193 0.0
H719 H 0.72876 0.42096 0.69547 0.0
H720 H 0.76729 0.91386 0.80337 0.0
H721 H 0.80634 0.89638 0.7976 0.0
H722 H 0.79306 0.84914 0.86006 0.0
H723 H 0.7543 0.8663 0.86605 0.0
H724 H 0.84035 0.87303 0.85811 0.0
H725 H 0.81298 0.82678 0.76927 0.0
H726 H 0.80795 0.85788 0.7727 0.0
H727 H 0.79132 0.83753 0.79149 0.0
C728 C 0.77278 0.8999 0.81603 0.0
C729 C 0.75758 0.89134 0.83506 0.0
C730 C 0.79506 0.88997 0.81267 0.0
C731 C 0.80242 0.87149 0.82837 0.0
C732 C 0.78763 0.86347 0.84782 0.0
H733 H 0.87426 0.75798 0.87057 0.0
H734 H 0.85674 0.79654 0.865 0.0
C735 C 0.76543 0.87323 0.85111 0.0
C736 C 0.82476 0.85906 0.82399 0.0
H737 H 0.84614 0.81243 0.79059 0.0
C738 C 0.84207 0.86025 0.8429 0.0
C739 C 0.82704 0.84268 0.80395 0.0
C740 C 0.80891 0.84096 0.78311 0.0
C741 C 0.86051 0.84397 0.84359 0.0
C742 C 0.86124 0.82588 0.8252 0.0
C743 C 0.8454 0.82627 0.80476 0.0
C744 C 0.8747 0.80408 0.82963 0.0
C745 C 0.87817 0.84535 0.8649 0.0
C746 C 0.89046 0.79538 0.8114 0.0
C747 C 0.90054 0.77313 0.8145 0.0
C748 C 0.89458 0.75914 0.83563 0.0
C749 C 0.87916 0.76822 0.85403 0.0
C750 C 0.86934 0.79042 0.85104 0.0
H751 H 0.88085 0.86384 0.87104 0.0
H752 H 0.87146 0.83537 0.88151 0.0
H753 H 0.89535 0.83779 0.85916 0.0
H754 H 0.89452 0.80556 0.79456 0.0
H755 H 0.9123 0.76657 0.79995 0.0
H756 H 0.75715 0.12989 0.13266 0.0
H757 H 0.79577 0.14736 0.13841 0.0
H758 H 0.80645 0.10587 0.20604 0.0
H759 H 0.76749 0.08809 0.20045 0.0
H760 H 0.81387 0.15476 0.21223 0.0
H761 H 0.86263 0.12162 0.12893 0.0
H762 H 0.83398 0.13188 0.12012 0.0
H763 H 0.83675 0.10713 0.14126 0.0
C764 C 0.76775 0.1242 0.14862 0.0
C765 C 0.75919 0.10764 0.16614 0.0
C766 C 0.78995 0.13405 0.15172 0.0
C767 C 0.80411 0.12757 0.17237 0.0
C768 C 0.79587 0.11082 0.18978 0.0
H769 H 0.91903 0.22968 0.20061 0.0
H770 H 0.89949 0.19143 0.20567 0.0
C771 C 0.77363 0.10073 0.18656 0.0
C772 C 0.82627 0.14047 0.17679 0.0
H773 H 0.87384 0.16068 0.14407 0.0
C774 C 0.82752 0.15552 0.19787 0.0
C775 C 0.8441 0.14122 0.15811 0.0
C776 C 0.84444 0.12438 0.13597 0.0
C777 C 0.84471 0.17315 0.19924 0.0
C778 C 0.861 0.17549 0.17911 0.0
C779 C 0.86119 0.1589 0.15939 0.0
C780 C 0.87438 0.19744 0.1755 0.0
C781 C 0.84401 0.19055 0.22087 0.0
C782 C 0.86687 0.21313 0.15668 0.0
C783 C 0.87779 0.23483 0.15381 0.0
C784 C 0.8966 0.24129 0.16965 0.0
C785 C 0.90457 0.22523 0.18812 0.0
C786 C 0.89345 0.20344 0.19108 0.0
H787 H 0.82988 0.18651 0.23478 0.0
H788 H 0.86111 0.19047 0.231 0.0
H789 H 0.84117 0.20855 0.21332 0.0
H790 H 0.85211 0.20878 0.14453 0.0
H791 H 0.87127 0.24662 0.13927 0.0
H792 H 0.07838 0.22662 0.79071 0.0
H793 H 0.09544 0.1874 0.78414 0.0
H794 H 0.1363 0.19554 0.85264 0.0
H795 H 0.11963 0.23441 0.85923 0.0
H796 H 0.14475 0.1803 0.77855 0.0
H797 H 0.11026 0.12823 0.85874 0.0
H798 H 0.09564 0.15425 0.84693 0.0
H799 H 0.11966 0.15676 0.86906 0.0
C800 C 0.09068 0.21981 0.80458 0.0
C801 C 0.09778 0.23361 0.82543 0.0
C802 C 0.10034 0.19745 0.80081 0.0
C803 C 0.11676 0.18846 0.81815 0.0
C804 C 0.12323 0.20194 0.83935 0.0
H805 H 0.23554 0.12783 0.85521 0.0
H806 H 0.19648 0.14369 0.84818 0.0
C807 C 0.11388 0.22427 0.84294 0.0
C808 C 0.12971 0.16648 0.81301 0.0
H809 H 0.15044 0.11883 0.84511 0.0
C810 C 0.14544 0.16625 0.79246 0.0
C811 C 0.13036 0.14812 0.83106 0.0
C812 C 0.11286 0.14671 0.85254 0.0
C813 C 0.16375 0.14978 0.79136 0.0
C814 C 0.16607 0.13319 0.81119 0.0
C815 C 0.14869 0.13173 0.83004 0.0
C816 C 0.18872 0.12139 0.81595 0.0
C817 C 0.18192 0.1518 0.77058 0.0
C818 C 0.19716 0.10334 0.80026 0.0
C819 C 0.2197 0.09414 0.80422 0.0
C820 C 0.23405 0.10303 0.82381 0.0
C821 C 0.22512 0.12069 0.83981 0.0
C822 C 0.2027 0.1297 0.83594 0.0
H823 H 0.17763 0.16589 0.75671 0.0
H824 H 0.1994 0.15556 0.77901 0.0
H825 H 0.18323 0.13488 0.76018 0.0
H826 H 0.18652 0.0967 0.78478 0.0
H827 H 0.22606 0.08051 0.7916 0.0
H828 H 0.23749 0.87937 0.13056 0.0
H829 H 0.19937 0.86106 0.13679 0.0
H830 H 0.19035 0.89913 0.20704 0.0
H831 H 0.2289 0.91772 0.20094 0.0
H832 H 0.1852 0.85061 0.21168 0.0
H833 H 0.13119 0.88251 0.13192 0.0
H834 H 0.15979 0.87412 0.1209 0.0
H835 H 0.15689 0.89812 0.14306 0.0
C836 C 0.22729 0.88421 0.14715 0.0
C837 C 0.23627 0.89989 0.16534 0.0
C838 C 0.20534 0.87393 0.15053 0.0
C839 C 0.19185 0.87907 0.17214 0.0
C840 C 0.20038 0.89523 0.19006 0.0
H841 H 0.08582 0.76793 0.19981 0.0
H842 H 0.10226 0.80745 0.20566 0.0
C843 C 0.22237 0.90578 0.18655 0.0
C844 C 0.17063 0.86485 0.17718 0.0
H845 H 0.12397 0.84166 0.14529 0.0
C846 C 0.1712 0.84919 0.19777 0.0
C847 C 0.15232 0.8632 0.15913 0.0
C848 C 0.14988 0.8806 0.13767 0.0
C849 C 0.1556 0.83015 0.19904 0.0
C850 C 0.13908 0.82698 0.1793 0.0
C851 C 0.13686 0.84407 0.16026 0.0
C852 C 0.12764 0.80404 0.17528 0.0
C853 C 0.15835 0.81227 0.22001 0.0
C854 C 0.13638 0.78933 0.15614 0.0
C855 C 0.12723 0.76687 0.15283 0.0
C856 C 0.109 0.75867 0.16853 0.0
C857 C 0.09987 0.7737 0.1874 0.0
C858 C 0.1092 0.79624 0.1908 0.0
H859 H 0.17215 0.81733 0.23391 0.0
H860 H 0.14145 0.81023 0.23031 0.0
H861 H 0.16296 0.79492 0.21174 0.0
H862 H 0.1507 0.79509 0.14406 0.0
H863 H 0.13462 0.75589 0.13802 0.0
H864 H 0.22142 0.51724 0.30291 0.0
H865 H 0.20947 0.55557 0.28621 0.0
H866 H 0.1367 0.53499 0.29193 0.0
H867 H 0.14846 0.49706 0.3093 0.0
H868 H 0.18724 0.56335 0.24309 0.0
H869 H 0.13347 0.59999 0.32095 0.0
H870 H 0.15247 0.57494 0.32542 0.0
H871 H 0.12345 0.57122 0.31232 0.0
C872 C 0.20287 0.52106 0.30099 0.0
C873 C 0.18587 0.50416 0.30741 0.0
C874 C 0.19607 0.54296 0.29148 0.0
C875 C 0.17218 0.54831 0.28821 0.0
C876 C 0.1552 0.53156 0.29498 0.0
H877 H 0.10057 0.63168 0.17953 0.0
H878 H 0.12414 0.60255 0.20234 0.0
C879 C 0.16196 0.50977 0.3047 0.0
C880 C 0.165 0.57036 0.27539 0.0
H881 H 0.12629 0.61602 0.27902 0.0
C882 C 0.17418 0.57507 0.25115 0.0
C883 C 0.14829 0.58592 0.28604 0.0
C884 C 0.13906 0.58289 0.31274 0.0
C885 C 0.1662 0.59418 0.23676 0.0
C886 C 0.14818 0.60863 0.24655 0.0
C887 C 0.13988 0.60471 0.27133 0.0
C888 C 0.13665 0.62696 0.2309 0.0
C889 C 0.17715 0.59879 0.21121 0.0
C890 C 0.13583 0.65034 0.23934 0.0
C891 C 0.12246 0.66699 0.2262 0.0
C892 C 0.1099 0.66053 0.20433 0.0
C893 C 0.11096 0.63725 0.1957 0.0
C894 C 0.12434 0.62062 0.20879 0.0
H895 H 0.19449 0.59003 0.20923 0.0
H896 H 0.16543 0.59194 0.19608 0.0
H897 H 0.17952 0.61795 0.20836 0.0
H898 H 0.14498 0.65554 0.2565 0.0
H899 H 0.12143 0.68477 0.23347 0.0
H900 H 0.49879 0.85106 0.68999 0.0
H901 H 0.53701 0.86251 0.70681 0.0
H902 H 0.55637 0.78952 0.71404 0.0
H903 H 0.51772 0.7779 0.69794 0.0
H904 H 0.56439 0.81209 0.75661 0.0
H905 H 0.60217 0.86457 0.67842 0.0
H906 H 0.57352 0.87518 0.68666 0.0
H907 H 0.57682 0.84593 0.674 0.0
C908 C 0.5113 0.83743 0.69478 0.0
C909 C 0.50524 0.81357 0.69273 0.0
C910 C 0.53326 0.84401 0.70417 0.0
C911 C 0.54975 0.82689 0.71126 0.0
C912 C 0.54397 0.80303 0.70853 0.0
H913 H 0.68566 0.87813 0.76772 0.0
H914 H 0.65696 0.85429 0.74423 0.0
C915 C 0.52189 0.79642 0.69936 0.0
C916 C 0.57184 0.83394 0.7241 0.0
H917 H 0.61771 0.87243 0.72053 0.0
C918 C 0.57627 0.82498 0.7485 0.0
C919 C 0.58761 0.85043 0.71341 0.0
C920 C 0.58492 0.85936 0.68656 0.0
C921 C 0.59525 0.83305 0.76302 0.0
C922 C 0.60986 0.85095 0.7532 0.0
C923 C 0.60627 0.85895 0.72824 0.0
C924 C 0.62785 0.86277 0.76906 0.0
C925 C 0.5995 0.8224 0.78877 0.0
C926 C 0.62102 0.87529 0.79086 0.0
C927 C 0.63734 0.88885 0.8042 0.0
C928 C 0.6608 0.88987 0.79615 0.0
C929 C 0.66773 0.87713 0.77456 0.0
C930 C 0.65139 0.8636 0.76116 0.0
H931 H 0.59089 0.80497 0.79073 0.0
H932 H 0.61862 0.82028 0.7921 0.0
H933 H 0.5922 0.83417 0.80361 0.0
H934 H 0.60283 0.87549 0.79688 0.0
H935 H 0.6314 0.89939 0.8201 0.0
H936 H 0.91834 0.36706 0.1846 0.0
H937 H 0.89617 0.39822 0.20578 0.0
H938 H 0.86968 0.34788 0.26011 0.0
H939 H 0.89104 0.3164 0.23795 0.0
H940 H 0.83562 0.37763 0.24547 0.0
H941 H 0.91503 0.42827 0.27125 0.0
H942 H 0.91313 0.42386 0.23757 0.0
H943 H 0.91661 0.39895 0.2584 0.0
C944 C 0.90736 0.36265 0.20075 0.0
C945 C 0.9056 0.33938 0.20921 0.0
C946 C 0.89505 0.38047 0.2131 0.0
C947 C 0.88153 0.37543 0.23475 0.0
C948 C 0.87997 0.35213 0.2434 0.0
H949 H 0.84047 0.49247 0.33052 0.0
H950 H 0.85593 0.45486 0.31562 0.0
C951 C 0.89215 0.33423 0.23084 0.0
C952 C 0.86934 0.39459 0.24847 0.0
H953 H 0.87844 0.44848 0.27486 0.0
C954 C 0.84497 0.39304 0.25221 0.0
C955 C 0.88164 0.41444 0.25768 0.0
C956 C 0.90807 0.41638 0.25627 0.0
C957 C 0.83246 0.41112 0.26433 0.0
C958 C 0.84457 0.43165 0.27209 0.0
C959 C 0.86903 0.43287 0.26881 0.0
C960 C 0.83252 0.45239 0.28323 0.0
C961 C 0.80652 0.40778 0.26901 0.0
C962 C 0.81376 0.46329 0.27044 0.0
C963 C 0.80446 0.48446 0.27942 0.0
C964 C 0.81432 0.49545 0.3008 0.0
C965 C 0.83267 0.48435 0.31391 0.0
C966 C 0.8415 0.46289 0.30538 0.0
H967 H 0.80199 0.38885 0.2706 0.0
H968 H 0.80073 0.41684 0.28663 0.0
H969 H 0.79654 0.41505 0.25268 0.0
H970 H 0.80696 0.45601 0.25291 0.0
H971 H 0.79047 0.49288 0.26884 0.0
H972 H 0.49335 0.21283 0.72511 0.0
H973 H 0.45631 0.19802 0.74271 0.0
H974 H 0.4571 0.1411 0.68849 0.0
H975 H 0.49465 0.15512 0.6718 0.0
H976 H 0.413 0.18915 0.72595 0.0
H977 H 0.45525 0.1054 0.75384 0.0
H978 H 0.47184 0.13003 0.74199 0.0
H979 H 0.45705 0.11051 0.72027 0.0
C980 C 0.48546 0.19729 0.71684 0.0
C981 C 0.49697 0.18485 0.69744 0.0
C982 C 0.46433 0.18885 0.72688 0.0
C983 C 0.45431 0.16806 0.7174 0.0
C984 C 0.46494 0.1567 0.69669 0.0
H985 H 0.31504 0.11433 0.75754 0.0
H986 H 0.3476 0.13544 0.73717 0.0
C987 C 0.48629 0.1648 0.68707 0.0
C988 C 0.43349 0.15758 0.72998 0.0
H989 H 0.41383 0.10711 0.75764 0.0
C990 C 0.41317 0.17125 0.73303 0.0
C991 C 0.43391 0.13437 0.73966 0.0
C992 C 0.45576 0.11932 0.73904 0.0
C993 C 0.39315 0.16227 0.74528 0.0
C994 C 0.39325 0.13872 0.75398 0.0
C995 C 0.41364 0.12513 0.75092 0.0
C996 C 0.37281 0.12769 0.7669 0.0
C997 C 0.37247 0.17836 0.74939 0.0
C998 C 0.37623 0.11568 0.78995 0.0
C999 C 0.35793 0.10304 0.801 0.0
C1000 C 0.33558 0.10294 0.78987 0.0
C1001 C 0.332 0.11488 0.76687 0.0
C1002 C 0.35052 0.12713 0.7554 0.0
H1003 H 0.37786 0.19712 0.74929 0.0
H1004 H 0.3596 0.17579 0.7338 0.0
H1005 H 0.36367 0.17452 0.76771 0.0
H1006 H 0.39328 0.11557 0.7991 0.0
H1007 H 0.36139 0.09292 0.81804 0.0
H1008 H 0.21237 0.48555 0.72882 0.0
H1009 H 0.19683 0.44781 0.74358 0.0
H1010 H 0.14938 0.44605 0.67953 0.0
H1011 H 0.16388 0.48439 0.66577 0.0
H1012 H 0.12605 0.44017 0.72011 0.0
H1013 H 0.20226 0.38033 0.72614 0.0
H1014 H 0.20735 0.40667 0.74396 0.0
H1015 H 0.20381 0.40823 0.70993 0.0
C1016 C 0.19903 0.47676 0.71763 0.0
C1017 C 0.18917 0.48781 0.6963 0.0
C1018 C 0.19026 0.4551 0.72595 0.0
C1019 C 0.17204 0.44389 0.71256 0.0
C1020 C 0.16337 0.45434 0.69025 0.0
H1021 H 0.10922 0.30919 0.75712 0.0
H1022 H 0.13196 0.33976 0.73492 0.0
C1023 C 0.17166 0.47621 0.68237 0.0
C1024 C 0.15978 0.42316 0.72347 0.0
H1025 H 0.16801 0.36917 0.75047 0.0
C1026 C 0.13529 0.42452 0.72634 0.0
C1027 C 0.17168 0.40262 0.73153 0.0
C1028 C 0.19769 0.39927 0.72747 0.0
C1029 C 0.12244 0.40625 0.73743 0.0
C1030 C 0.13448 0.38637 0.74689 0.0
C1031 C 0.15888 0.3846 0.74349 0.0
C1032 C 0.12194 0.36759 0.76082 0.0
C1033 C 0.09602 0.40843 0.73874 0.0
C1034 C 0.10907 0.37312 0.78277 0.0
C1035 C 0.09605 0.35585 0.79517 0.0
C1036 C 0.09636 0.33262 0.78637 0.0
C1037 C 0.10921 0.32697 0.76445 0.0
C1038 C 0.12218 0.34434 0.75188 0.0
H1039 H 0.08922 0.42054 0.72389 0.0
H1040 H 0.08734 0.39109 0.73639 0.0
H1041 H 0.09097 0.41573 0.75753 0.0
H1042 H 0.10892 0.39087 0.7902 0.0
H1043 H 0.08562 0.36068 0.81159 0.0
H1044 H 0.36276 0.91092 0.17854 0.0
H1045 H 0.39363 0.88827 0.1993 0.0
H1046 H 0.34488 0.86832 0.25844 0.0
H1047 H 0.31339 0.88941 0.23616 0.0
H1048 H 0.41222 0.89641 0.24186 0.0
H1049 H 0.37526 0.80657 0.24774 0.0
H1050 H 0.362 0.82939 0.22887 0.0
H1051 H 0.35663 0.82799 0.26256 0.0
C1052 C 0.35843 0.90078 0.19534 0.0
C1053 C 0.33554 0.90082 0.2051 0.0
C1054 C 0.37615 0.88816 0.20745 0.0
C1055 C 0.37157 0.87611 0.23024 0.0
C1056 C 0.34872 0.87667 0.24042 0.0
H1057 H 0.49107 0.84595 0.32854 0.0
H1058 H 0.45386 0.86075 0.31175 0.0
C1059 C 0.33081 0.88888 0.22787 0.0
C1060 C 0.39131 0.8649 0.2442 0.0
H1061 H 0.40971 0.81399 0.27228 0.0
C1062 C 0.41166 0.87832 0.24834 0.0
C1063 C 0.39071 0.84127 0.25263 0.0
C1064 C 0.37006 0.82539 0.24753 0.0
C1065 C 0.43148 0.86878 0.26022 0.0
C1066 C 0.4306 0.84543 0.26944 0.0
C1067 C 0.41024 0.83199 0.26551 0.0
C1068 C 0.45107 0.83443 0.28216 0.0
C1069 C 0.45342 0.88364 0.26185 0.0
C1070 C 0.46094 0.81371 0.27233 0.0
C1071 C 0.48184 0.80482 0.28242 0.0
C1072 C 0.4933 0.81672 0.30224 0.0
C1073 C 0.48275 0.83668 0.31297 0.0
C1074 C 0.4616 0.84523 0.30328 0.0
H1075 H 0.45338 0.89792 0.24743 0.0
H1076 H 0.45434 0.89199 0.28089 0.0
H1077 H 0.46948 0.87288 0.25902 0.0
H1078 H 0.45301 0.80497 0.25616 0.0
H1079 H 0.48963 0.78936 0.27385 0.0
H1080 H 0.77816 0.52045 0.69776 0.0
H1081 H 0.7892 0.55898 0.7148 0.0
H1082 H 0.86245 0.54063 0.70767 0.0
H1083 H 0.85161 0.5026 0.69002 0.0
H1084 H 0.81175 0.56703 0.75765 0.0
H1085 H 0.86362 0.60599 0.67974 0.0
H1086 H 0.84518 0.58054 0.67508 0.0
H1087 H 0.87455 0.57734 0.68743 0.0
C1088 C 0.79661 0.52483 0.69943 0.0
C1089 C 0.81402 0.50853 0.69255 0.0
C1090 C 0.80289 0.54683 0.70913 0.0
C1091 C 0.82666 0.55287 0.7121 0.0
C1092 C 0.84402 0.5367 0.70485 0.0
H1093 H 0.90026 0.63222 0.82143 0.0
H1094 H 0.87537 0.60444 0.79828 0.0
C1095 C 0.83778 0.51484 0.69497 0.0
C1096 C 0.83347 0.57492 0.72517 0.0
H1097 H 0.87201 0.62076 0.72212 0.0
C1098 C 0.82461 0.57902 0.74968 0.0
C1099 C 0.84988 0.59086 0.71462 0.0
C1100 C 0.85862 0.58858 0.68765 0.0
C1101 C 0.83282 0.59777 0.76449 0.0
C1102 C 0.85074 0.61244 0.75483 0.0
C1103 C 0.85853 0.60925 0.72973 0.0
C1104 C 0.86288 0.63002 0.77094 0.0
C1105 C 0.82228 0.60173 0.79036 0.0
C1106 C 0.86416 0.65362 0.7633 0.0
C1107 C 0.87831 0.66948 0.77662 0.0
C1108 C 0.8912 0.66203 0.79789 0.0
C1109 C 0.88966 0.63855 0.80576 0.0
C1110 C 0.8755 0.62269 0.79249 0.0
H1111 H 0.80487 0.5931 0.7923 0.0
H1112 H 0.83411 0.59429 0.80506 0.0
H1113 H 0.82019 0.62082 0.79393 0.0
H1114 H 0.8548 0.65957 0.74657 0.0
H1115 H 0.8797 0.68743 0.76992 0.0
H1116 H 0.63274 0.09833 0.1791 0.0
H1117 H 0.60274 0.12093 0.20167 0.0
H1118 H 0.65441 0.14262 0.2569 0.0
H1119 H 0.68462 0.1202 0.23393 0.0
H1120 H 0.61436 0.1222 0.27823 0.0
H1121 H 0.58928 0.19143 0.20926 0.0
H1122 H 0.59196 0.16264 0.19557 0.0
H1123 H 0.61744 0.17687 0.20891 0.0
C1124 C 0.63787 0.10875 0.19541 0.0
C1125 C 0.66108 0.1083 0.20431 0.0
C1126 C 0.62072 0.12153 0.2084 0.0
C1127 C 0.62643 0.13377 0.23074 0.0
C1128 C 0.64971 0.13352 0.23954 0.0
H1129 H 0.51444 0.21595 0.30171 0.0
H1130 H 0.55301 0.20442 0.28545 0.0
C1131 C 0.66691 0.1208 0.22643 0.0
C1132 C 0.60757 0.14471 0.24612 0.0
H1133 H 0.56178 0.1831 0.24207 0.0
C1134 C 0.60305 0.13578 0.27053 0.0
C1135 C 0.5931 0.16269 0.23628 0.0
C1136 C 0.59824 0.17418 0.21114 0.0
C1137 C 0.58369 0.14356 0.28477 0.0
C1138 C 0.56819 0.16027 0.27402 0.0
C1139 C 0.57345 0.17004 0.25019 0.0
C1140 C 0.5458 0.16708 0.2864 0.0
C1141 C 0.58001 0.1337 0.31111 0.0
C1142 C 0.52896 0.14993 0.2924 0.0
C1143 C 0.507 0.15646 0.30189 0.0
C1144 C 0.50133 0.1803 0.30511 0.0
C1145 C 0.51828 0.19744 0.29935 0.0
C1146 C 0.54033 0.19088 0.29011 0.0
H1147 H 0.5969 0.12797 0.31969 0.0
H1148 H 0.57166 0.14678 0.3239 0.0
H1149 H 0.56841 0.11807 0.30991 0.0
H1150 H 0.5325 0.1315 0.289 0.0
H1151 H 0.49423 0.14286 0.30599 0.0
H1152 H 0.64376 0.99444 0.80891 0.0
H1153 H 0.63229 0.03227 0.791 0.0
H1154 H 0.70506 0.04892 0.77685 0.0
H1155 H 0.71671 0.01072 0.79427 0.0
H1156 H 0.64341 0.07755 0.80437 0.0
H1157 H 0.67526 0.05683 0.7069 0.0
H1158 H 0.67266 0.03475 0.73135 0.0
H1159 H 0.69697 0.05489 0.73159 0.0
C1160 C 0.65736 0.00616 0.80208 0.0
C1161 C 0.68112 -0.00048 0.80278 0.0
C1162 C 0.65078 0.0278 0.7919 0.0
C1163 C 0.6678 0.04324 0.78227 0.0
C1164 C 0.69163 0.03704 0.78372 0.0
H1165 H 0.62043 0.18446 0.73582 0.0
H1166 H 0.64311 0.15319 0.75677 0.0
C1167 C 0.69824 0.01528 0.79378 0.0
C1168 C 0.66025 0.06546 0.77014 0.0
H1169 H 0.65757 0.09361 0.713 0.0
C1170 C 0.64671 0.08127 0.78445 0.0
C1171 C 0.6644 0.07004 0.74409 0.0
C1172 C 0.67794 0.05319 0.72746 0.0
C1173 C 0.63663 0.10124 0.77325 0.0
C1174 C 0.64072 0.10579 0.74716 0.0
C1175 C 0.65476 0.09028 0.73304 0.0
C1176 C 0.62877 0.1252 0.73355 0.0
C1177 C 0.6207 0.11653 0.78917 0.0
C1178 C 0.61394 0.11995 0.713 0.0
C1179 C 0.60147 0.13776 0.70082 0.0
C1180 C 0.60383 0.16113 0.70878 0.0
C1181 C 0.61867 0.16651 0.72925 0.0
C1182 C 0.63142 0.14869 0.74128 0.0
H1183 H 0.61505 0.10755 0.80691 0.0
H1184 H 0.63024 0.13276 0.79464 0.0
H1185 H 0.60478 0.12169 0.77832 0.0
H1186 H 0.61156 0.10197 0.70676 0.0
H1187 H 0.58959 0.13322 0.68549 0.0
H1188 H 0.13848 0.40607 0.3218 0.0
H1189 H 0.10824 0.38277 0.30077 0.0
H1190 H 0.1581 0.36304 0.24266 0.0
H1191 H 0.18894 0.38485 0.26518 0.0
H1192 H 0.09041 0.39067 0.25765 0.0
H1193 H 0.12789 0.301 0.25318 0.0
H1194 H 0.14051 0.32395 0.2724 0.0
H1195 H 0.1468 0.3225 0.23891 0.0
C1196 C 0.14319 0.39585 0.30519 0.0
C1197 C 0.1662 0.39621 0.29576 0.0
C1198 C 0.12584 0.38284 0.29293 0.0
C1199 C 0.13091 0.37068 0.27033 0.0
C1200 C 0.15389 0.37148 0.26053 0.0
H1201 H 0.01447 0.34083 0.16844 0.0
H1202 H 0.05163 0.35476 0.18619 0.0
C1203 C 0.17143 0.38411 0.27322 0.0
C1204 C 0.1115 0.35926 0.25602 0.0
H1205 H 0.09399 0.30817 0.22759 0.0
C1206 C 0.09121 0.37256 0.25126 0.0
C1207 C 0.11239 0.3356 0.24772 0.0
C1208 C 0.13298 0.31985 0.25351 0.0
C1209 C 0.07176 0.36292 0.23878 0.0
C1210 C 0.07298 0.33956 0.22961 0.0
C1211 C 0.09324 0.32618 0.23428 0.0
C1212 C 0.05295 0.32861 0.21606 0.0
C1213 C 0.04983 0.3777 0.23636 0.0
C1214 C 0.04236 0.30816 0.2257 0.0
C1215 C 0.02146 0.29975 0.21507 0.0
C1216 C 0.01078 0.31189 0.19491 0.0
C1217 C 0.02221 0.33139 0.18425 0.0
C1218 C 0.04333 0.33945 0.19447 0.0
H1219 H 0.04941 0.39202 0.25072 0.0
H1220 H 0.04942 0.38599 0.21727 0.0
H1221 H 0.03374 0.36688 0.23868 0.0
H1222 H 0.04962 0.2994 0.24221 0.0
H1223 H 0.01296 0.28465 0.2236 0.0
H1224 H 0.34453 0.99471 0.8258 0.0
H1225 H 0.35979 0.9576 0.80917 0.0
H1226 H 0.30278 0.95473 0.75517 0.0
H1227 H 0.28676 0.99121 0.77272 0.0
H1228 H 0.31241 0.91216 0.7719 0.0
H1229 H 0.39579 0.9554 0.74431 0.0
H1230 H 0.39053 0.95702 0.77786 0.0
H1231 H 0.37096 0.9717 0.75611 0.0
C1232 C 0.33513 0.98598 0.81058 0.0
C1233 C 0.31464 0.9959 0.80032 0.0
C1234 C 0.34395 0.96489 0.80096 0.0
C1235 C 0.33286 0.95377 0.78037 0.0
C1236 C 0.31175 0.96309 0.77092 0.0
H1237 H 0.40809 0.86263 0.67803 0.0
H1238 H 0.3859 0.8942 0.69819 0.0
C1239 C 0.30261 0.98393 0.78094 0.0
C1240 C 0.34375 0.93304 0.76795 0.0
H1241 H 0.39434 0.91405 0.73997 0.0
C1242 C 0.3303 0.91256 0.76479 0.0
C1243 C 0.36695 0.93373 0.75828 0.0
C1244 C 0.3818 0.95572 0.75905 0.0
C1245 C 0.33941 0.89276 0.75227 0.0
C1246 C 0.36292 0.89315 0.74343 0.0
C1247 C 0.37635 0.91363 0.74677 0.0
C1248 C 0.37396 0.87302 0.72994 0.0
C1249 C 0.32344 0.87201 0.74794 0.0
C1250 C 0.37451 0.85043 0.74078 0.0
C1251 C 0.38644 0.83211 0.72858 0.0
C1252 C 0.39812 0.83616 0.70551 0.0
C1253 C 0.39813 0.85881 0.69508 0.0
C1254 C 0.38578 0.87693 0.70686 0.0
H1255 H 0.30464 0.87727 0.7482 0.0
H1256 H 0.32725 0.86346 0.72949 0.0
H1257 H 0.32613 0.85897 0.76335 0.0
H1258 H 0.36636 0.8471 0.75902 0.0
H1259 H 0.38694 0.81491 0.73739 0.0
H1260 H 0.86317 0.59147 0.31812 0.0
H1261 H 0.89572 0.61336 0.29944 0.0
H1262 H 0.85086 0.63454 0.23731 0.0
H1263 H 0.81769 0.6142 0.25742 0.0
H1264 H 0.9164 0.60465 0.25815 0.0
H1265 H 0.88245 0.69539 0.24978 0.0
H1266 H 0.86758 0.67308 0.26797 0.0
H1267 H 0.86375 0.67462 0.23403 0.0
C1268 C 0.86005 0.60173 0.3011 0.0
C1269 C 0.83776 0.60222 0.28984 0.0
C1270 C 0.87872 0.61393 0.29019 0.0
C1271 C 0.87573 0.62609 0.26716 0.0
C1272 C 0.85348 0.62611 0.25554 0.0
H1273 H 0.99801 0.65118 0.17165 0.0
H1274 H 0.96067 0.63732 0.18905 0.0
C1275 C 0.8346 0.61432 0.26686 0.0
C1276 C 0.89648 0.63667 0.25438 0.0
H1277 H 0.91729 0.68659 0.22617 0.0
C1278 C 0.91659 0.62265 0.25138 0.0
C1279 C 0.8969 0.66021 0.24563 0.0
C1280 C 0.87659 0.67677 0.24973 0.0
C1281 C 0.93706 0.63143 0.24007 0.0
C1282 C 0.93713 0.6546 0.23029 0.0
C1283 C 0.91709 0.66871 0.23332 0.0
C1284 C 0.95814 0.66464 0.21759 0.0
C1285 C 0.95859 0.61593 0.23952 0.0
C1286 C 0.9683 0.68551 0.22668 0.0
C1287 C 0.9893 0.69384 0.21624 0.0
C1288 C 0.00058 0.68125 0.19678 0.0
C1289 C 0.98985 0.66099 0.18693 0.0
C1290 C 0.96861 0.65298 0.19698 0.0
H1291 H 0.95783 0.60215 0.25448 0.0
H1292 H 0.95961 0.6069 0.22085 0.0
H1293 H 0.9749 0.62631 0.24229 0.0
H1294 H 0.96043 0.69491 0.24244 0.0
H1295 H 0.99721 0.70954 0.22414 0.0
H1296 H 0.64463 0.00521 0.19139 0.0
H1297 H 0.63243 0.96765 0.20932 0.0
H1298 H 0.70482 0.94984 0.22403 0.0
H1299 H 0.71721 0.98786 0.20662 0.0
H1300 H 0.64247 0.9225 0.19608 0.0
H1301 H 0.67478 0.94192 0.29367 0.0
H1302 H 0.67287 0.96415 0.26931 0.0
H1303 H 0.6966 0.94333 0.26904 0.0
C1304 C 0.65801 0.9933 0.19836 0.0
C1305 C 0.68188 -0.00043 0.1978 0.0
C1306 C 0.651 0.97181 0.20855 0.0
C1307 C 0.66768 0.9561 0.21835 0.0
C1308 C 0.69162 0.96193 0.21706 0.0
H1309 H 0.61629 0.81594 0.26343 0.0
H1310 H 0.63983 0.84678 0.24286 0.0
C1311 C 0.69867 0.98358 0.20699 0.0
C1312 C 0.65962 0.93398 0.23036 0.0
H1313 H 0.65616 0.90561 0.28735 0.0
C1314 C 0.64566 0.91861 0.21598 0.0
C1315 C 0.66363 0.92916 0.25639 0.0
C1316 C 0.67761 0.94556 0.27313 0.0
C1317 C 0.63498 0.89889 0.22708 0.0
C1318 C 0.63893 0.89409 0.25315 0.0
C1319 C 0.65343 0.90913 0.26733 0.0
C1320 C 0.62651 0.87487 0.26662 0.0
C1321 C 0.61857 0.88419 0.21108 0.0
C1322 C 0.61198 0.88027 0.2874 0.0
C1323 C 0.59905 0.86267 0.29941 0.0
C1324 C 0.60061 0.83936 0.29102 0.0
C1325 C 0.61514 0.83384 0.27033 0.0
C1326 C 0.62838 0.85143 0.25851 0.0
H1327 H 0.61304 0.89354 0.19352 0.0
H1328 H 0.62768 0.86782 0.20527 0.0
H1329 H 0.60259 0.87928 0.22196 0.0
H1330 H 0.6102 0.89823 0.29396 0.0
H1331 H 0.58742 0.86734 0.31493 0.0
H1332 H 0.81002 0.38581 0.73173 0.0
H1333 H 0.83884 0.36138 0.75438 0.0
H1334 H 0.89402 0.38913 0.70671 0.0
H1335 H 0.86517 0.41288 0.68373 0.0
H1336 H 0.89857 0.34275 0.7129 0.0
H1337 H 0.88463 0.38532 0.80673 0.0
H1338 H 0.85883 0.37213 0.79326 0.0
H1339 H 0.87226 0.39687 0.77774 0.0
C1340 C 0.82831 0.38641 0.72607 0.0
C1341 C 0.83546 0.40062 0.70571 0.0
C1342 C 0.84474 0.37266 0.73909 0.0
C1343 C 0.86863 0.37367 0.73246 0.0
C1344 C 0.87569 0.38802 0.71211 0.0
H1345 H 0.99638 0.35039 0.80936 0.0
H1346 H 0.95879 0.36369 0.79253 0.0
C1347 C 0.85925 0.40148 0.69894 0.0
C1348 C 0.88657 0.36019 0.74673 0.0
H1349 H 0.9127 0.35498 0.80491 0.0
C1350 C 0.90143 0.34513 0.73306 0.0
C1351 C 0.89051 0.36367 0.77305 0.0
C1352 C 0.87588 0.38052 0.78857 0.0
C1353 C 0.92054 0.33396 0.7447 0.0
C1354 C 0.92461 0.33758 0.77094 0.0
C1355 C 0.90934 0.35207 0.78485 0.0
C1356 C 0.94615 0.32881 0.78351 0.0
C1357 C 0.93693 0.31946 0.72846 0.0
C1358 C 0.95126 0.3047 0.78466 0.0
C1359 C 0.97292 0.29702 0.79408 0.0
C1360 C 0.98964 0.31335 0.80272 0.0
C1361 C 0.98393 0.33737 0.80273 0.0
C1362 C 0.96241 0.34501 0.79319 0.0
H1363 H 0.93391 0.32234 0.70781 0.0
H1364 H 0.95555 0.32368 0.73281 0.0
H1365 H 0.93405 0.30055 0.73252 0.0
H1366 H 0.93873 0.29189 0.77774 0.0
H1367 H 0.97676 0.27838 0.79405 0.0
H1368 H 0.3804 0.18806 0.26751 0.0
H1369 H 0.35632 0.15971 0.24379 0.0
H1370 H 0.37522 0.10559 0.29747 0.0
H1371 H 0.39928 0.13381 0.32094 0.0
H1372 H 0.37368 0.12016 0.22076 0.0
H1373 H 0.30487 0.09474 0.28996 0.0
H1374 H 0.32077 0.12212 0.29162 0.0
H1375 H 0.33386 0.0954 0.3034 0.0
C1376 C 0.37884 0.17023 0.27451 0.0
C1377 C 0.39098 0.16321 0.29646 0.0
C1378 C 0.36516 0.15408 0.26098 0.0
C1379 C 0.36361 0.13064 0.26911 0.0
C1380 C 0.37555 0.12373 0.29126 0.0
H1381 H 0.3516 0.00148 0.19035 0.0
H1382 H 0.3631 0.03959 0.2074 0.0
C1383 C 0.38922 0.13985 0.30473 0.0
C1384 C 0.3517 0.11275 0.25316 0.0
H1385 H 0.31225 0.06776 0.25625 0.0
C1386 C 0.35996 0.10893 0.22834 0.0
C1387 C 0.33348 0.09842 0.26278 0.0
C1388 C 0.32251 0.10296 0.28834 0.0
C1389 C 0.35141 0.09029 0.21349 0.0
C1390 C 0.33461 0.07475 0.22404 0.0
C1391 C 0.32538 0.07944 0.24826 0.0
C1392 C 0.32754 0.05264 0.21124 0.0
C1393 C 0.36064 0.08736 0.18679 0.0
C1394 C 0.30368 0.04704 0.20813 0.0
C1395 C 0.29702 0.02501 0.19883 0.0
C1396 C 0.31414 0.00823 0.19243 0.0
C1397 C 0.338 0.0141 0.19493 0.0
C1398 C 0.34462 0.036 0.20446 0.0
H1399 H 0.36608 0.10452 0.17861 0.0
H1400 H 0.37636 0.07584 0.18718 0.0
H1401 H 0.3473 0.07931 0.17409 0.0
H1402 H 0.29019 0.05954 0.21342 0.0
H1403 H 0.2785 0.02098 0.19707 0.0
H1404 H 0.18207 0.60661 0.74441 0.0
H1405 H 0.1496 0.62716 0.76582 0.0
H1406 H 0.10155 0.60166 0.70861 0.0
H1407 H 0.13366 0.58028 0.68816 0.0
H1408 H 0.12007 0.66135 0.75085 0.0
H1409 H 0.06929 0.58084 0.7721 0.0
H1410 H 0.09905 0.57985 0.76044 0.0
H1411 H 0.07489 0.58379 0.73872 0.0
C1412 C 0.16452 0.60553 0.73653 0.0
C1413 C 0.16029 0.59258 0.71432 0.0
C1414 C 0.14606 0.61726 0.74865 0.0
C1415 C 0.12311 0.61574 0.73895 0.0
C1416 C 0.119 0.60273 0.71672 0.0
H1417 H 0.00406 0.70527 0.77477 0.0
H1418 H 0.04083 0.68931 0.75786 0.0
C1419 C 0.13737 0.59086 0.70481 0.0
C1420 C 0.10336 0.62742 0.75221 0.0
H1421 H 0.04886 0.61716 0.77657 0.0
C1422 C 0.10457 0.6517 0.75676 0.0
C1423 C 0.08334 0.61472 0.76028 0.0
C1424 C 0.08165 0.58833 0.75789 0.0
C1425 C 0.08607 0.66371 0.76877 0.0
C1426 C 0.06549 0.6512 0.77555 0.0
C1427 C 0.06452 0.62685 0.77129 0.0
C1428 C 0.04457 0.66266 0.78704 0.0
C1429 C 0.08906 0.68952 0.77444 0.0
C1430 C 0.03416 0.65285 0.80882 0.0
C1431 C 0.01279 0.6614 0.81789 0.0
C1432 C 0.00165 0.68028 0.80571 0.0
C1433 C 0.01249 0.69085 0.78464 0.0
C1434 C 0.0336 0.68185 0.77511 0.0
H1435 H 0.10792 0.69426 0.77632 0.0
H1436 H 0.08173 0.69994 0.75847 0.0
H1437 H 0.07984 0.6946 0.79221 0.0
H1438 H 0.04225 0.63808 0.81842 0.0
H1439 H 0.00481 0.65304 0.83427 0.0
H1440 H 0.21621 0.51061 0.61567 0.0
H1441 H 0.21916 0.49167 0.57407 0.0
H1442 H 0.20592 0.55799 0.53721 0.0
H1443 H 0.20281 0.5772 0.57869 0.0
H1444 H 0.17939 0.49516 0.53588 0.0
H1445 H 0.26605 0.52746 0.50125 0.0
H1446 H 0.25897 0.52558 0.53471 0.0
H1447 H 0.24646 0.54848 0.51562 0.0
C1448 C 0.21424 0.52129 0.59875 0.0
C1449 C 0.20922 0.54544 0.60054 0.0
C1450 C 0.21591 0.5104 0.57503 0.0
C1451 C 0.21292 0.52351 0.55272 0.0
C1452 C 0.20852 0.54768 0.55431 0.0
H1453 H 0.20945 0.48787 0.3924 0.0
H1454 H 0.21173 0.50795 0.43344 0.0
C1455 C 0.20665 0.55858 0.57802 0.0
C1456 C 0.21262 0.51157 0.52783 0.0
H1457 H 0.24335 0.50493 0.47261 0.0
C1458 C 0.19339 0.49717 0.52203 0.0
C1459 C 0.2308 0.51457 0.50987 0.0
C1460 C 0.25187 0.52975 0.51556 0.0
C1461 C 0.1917 0.48578 0.49848 0.0
C1462 C 0.21012 0.48837 0.4806 0.0
C1463 C 0.22933 0.50291 0.4864 0.0
C1464 C 0.2097 0.4761 0.45579 0.0
C1465 C 0.16993 0.47158 0.49276 0.0
C1466 C 0.20833 0.45151 0.45479 0.0
C1467 C 0.20679 0.44 0.43142 0.0
C1468 C 0.20699 0.45284 0.40857 0.0
C1469 C 0.20921 0.47744 0.40963 0.0
C1470 C 0.21053 0.48896 0.43305 0.0
H1471 H 0.15493 0.47695 0.50498 0.0
H1472 H 0.16464 0.47346 0.47254 0.0
H1473 H 0.17354 0.45275 0.49654 0.0
H1474 H 0.20831 0.44121 0.47211 0.0
H1475 H 0.20542 0.42101 0.43131 0.0
H1476 H 0.57765 0.79409 0.42446 0.0
H1477 H 0.55782 0.78978 0.46532 0.0
H1478 H 0.49102 0.78489 0.42699 0.0
H1479 H 0.51074 0.78862 0.38591 0.0
H1480 H 0.52588 0.81938 0.4852 0.0
H1481 H 0.48666 0.73058 0.47625 0.0
H1482 H 0.50904 0.74122 0.45482 0.0
H1483 H 0.47889 0.74986 0.45059 0.0
C1484 C 0.55876 0.79182 0.42464 0.0
C1485 C 0.54579 0.79168 0.40187 0.0
C1486 C 0.54747 0.78935 0.44804 0.0
C1487 C 0.52299 0.78671 0.4492 0.0
C1488 C 0.50999 0.78632 0.42652 0.0
H1489 H 0.42116 0.79677 0.57038 0.0
H1490 H 0.44165 0.79373 0.52964 0.0
C1491 C 0.52129 0.78859 0.40305 0.0
C1492 C 0.51102 0.78608 0.4742 0.0
H1493 H 0.47314 0.75414 0.51089 0.0
C1494 C 0.51452 0.80501 0.4909 0.0
C1495 C 0.49616 0.76732 0.48156 0.0
C1496 C 0.49261 0.74599 0.46497 0.0
C1497 C 0.50326 0.8059 0.51457 0.0
C1498 C 0.48823 0.78732 0.52176 0.0
C1499 C 0.48471 0.76835 0.50519 0.0
C1500 C 0.47577 0.78759 0.54637 0.0
C1501 C 0.50713 0.8269 0.53159 0.0
C1502 C 0.48823 0.78474 0.56915 0.0
C1503 C 0.47662 0.78639 0.59248 0.0
C1504 C 0.45234 0.79101 0.5934 0.0
C1505 C 0.43987 0.79332 0.57041 0.0
C1506 C 0.4515 0.79152 0.5471 0.0
H1507 H 0.51615 0.84149 0.5215 0.0
H1508 H 0.49011 0.83345 0.53911 0.0
H1509 H 0.51813 0.82163 0.54805 0.0
H1510 H 0.50698 0.78154 0.56885 0.0
H1511 H 0.48678 0.78449 0.60977 0.0
H1512 H 0.79353 0.57826 0.42266 0.0
H1513 H 0.79084 0.55727 0.46308 0.0
H1514 H 0.78089 0.492 0.42296 0.0
H1515 H 0.78352 0.51275 0.38229 0.0
H1516 H 0.75254 0.52418 0.48156 0.0
H1517 H 0.84143 0.48467 0.4699 0.0
H1518 H 0.83233 0.51053 0.4526 0.0
H1519 H 0.82136 0.48219 0.44358 0.0
C1520 C 0.79059 0.55947 0.42235 0.0
C1521 C 0.7889 0.54717 0.39919 0.0
C1522 C 0.78899 0.54755 0.44548 0.0
C1523 C 0.78586 0.52315 0.44587 0.0
C1524 C 0.78346 0.51086 0.42292 0.0
H1525 H 0.79759 0.42293 0.56931 0.0
H1526 H 0.79263 0.44182 0.52803 0.0
C1527 C 0.78491 0.52277 0.39973 0.0
C1528 C 0.7862 0.51048 0.47033 0.0
H1529 H 0.82039 0.4747 0.50682 0.0
C1530 C 0.76729 0.51328 0.48714 0.0
C1531 C 0.8055 0.49632 0.47736 0.0
C1532 C 0.82644 0.49325 0.46007 0.0
C1533 C 0.7671 0.50206 0.51092 0.0
C1534 C 0.78664 0.48823 0.51819 0.0
C1535 C 0.80544 0.48531 0.5012 0.0
C1536 C 0.78821 0.4768 0.54342 0.0
C1537 C 0.74584 0.50483 0.5278 0.0
C1538 C 0.78745 0.49023 0.5658 0.0
C1539 C 0.79013 0.47946 0.5895 0.0
C1540 C 0.79397 0.45509 0.59122 0.0
C1541 C 0.79473 0.44173 0.56872 0.0
C1542 C 0.79186 0.45249 0.54508 0.0
H1543 H 0.73002 0.50981 0.51667 0.0
H1544 H 0.74203 0.48836 0.53834 0.0
H1545 H 0.74922 0.51898 0.54184 0.0
H1546 H 0.78527 0.50911 0.56492 0.0
H1547 H 0.78965 0.49031 0.60642 0.0
H1548 H 0.48756 0.20426 0.39073 0.0
H1549 H 0.50813 0.20711 0.4315 0.0
H1550 H 0.44169 0.20808 0.47091 0.0
H1551 H 0.421 0.20472 0.43048 0.0
H1552 H 0.50645 0.24026 0.47009 0.0
H1553 H 0.47544 0.15347 0.50454 0.0
H1554 H 0.47235 0.16263 0.47187 0.0
H1555 H 0.45203 0.17289 0.49561 0.0
C1556 C 0.47732 0.20515 0.40807 0.0
C1557 C 0.45264 0.20397 0.40736 0.0
C1558 C 0.4891 0.20679 0.43132 0.0
C1559 C 0.47642 0.20731 0.4542 0.0
C1560 C 0.4518 0.20708 0.45349 0.0
H1561 H 0.51436 0.21211 0.61373 0.0
H1562 H 0.49401 0.21525 0.5729 0.0
C1563 C 0.44002 0.20525 0.43033 0.0
C1564 C 0.48887 0.20774 0.47887 0.0
H1565 H 0.4952 0.17756 0.53454 0.0
C1566 C 0.50409 0.22653 0.48416 0.0
C1567 C 0.48578 0.18972 0.49711 0.0
C1568 C 0.4707 0.16842 0.49196 0.0
C1569 C 0.51601 0.22796 0.50747 0.0
C1570 C 0.51266 0.21009 0.52574 0.0
C1571 C 0.4975 0.19132 0.52047 0.0
C1572 C 0.52528 0.21004 0.55024 0.0
C1573 C 0.53186 0.24866 0.51257 0.0
C1574 C 0.54956 0.20607 0.55086 0.0
C1575 C 0.56123 0.2041 0.5741 0.0
C1576 C 0.5488 0.20612 0.59715 0.0
C1577 C 0.52449 0.21056 0.59638 0.0
C1578 C 0.51282 0.21235 0.5731 0.0
H1579 H 0.52891 0.26317 0.4988 0.0
H1580 H 0.52909 0.25545 0.53215 0.0
H1581 H 0.55045 0.24297 0.51099 0.0
H1582 H 0.55937 0.20391 0.53336 0.0
H1583 H 0.57995 0.20071 0.57396 0.0
H1584 H 0.73386 0.02605 0.10865 0.0
H1585 H 0.74066 0.00626 0.06788 0.0
H1586 H 0.68316 0.04509 0.03474 0.0
H1587 H 0.67733 0.0658 0.07472 0.0
H1588 H 0.71609 0.97812 0.04147 0.0
H1589 H 0.73027 0.05583 0.98121 0.0
H1590 H 0.72922 0.05788 0.01541 0.0
H1591 H 0.70252 0.0587 0.99689 0.0
C1592 C 0.72283 0.03044 0.09255 0.0
C1593 C 0.70521 0.0476 0.09475 0.0
C1594 C 0.72675 0.01918 0.06927 0.0
C1595 C 0.71287 0.02466 0.04796 0.0
C1596 C 0.69478 0.04125 0.0505 0.0
H1597 H 0.67536 0.93411 0.92607 0.0
H1598 H 0.68176 0.95469 0.96606 0.0
C1599 C 0.69127 0.0529 0.07349 0.0
C1600 C 0.71622 0.01215 0.02344 0.0
H1601 H 0.71648 0.02083 0.95926 0.0
C1602 C 0.71662 0.9875 0.02352 0.0
C1603 C 0.71769 0.02425 -5e-05 0.0
C1604 C 0.7202 0.05062 0.99842 0.0
C1605 C 0.71696 0.97466 0.00076 0.0
C1606 C 0.7157 0.9868 0.97727 0.0
C1607 C 0.71683 0.01143 0.9772 0.0
C1608 C 0.71194 0.9744 0.95276 0.0
C1609 C 0.7187 0.94823 0.00227 0.0
C1610 C 0.7259 0.97956 0.93141 0.0
C1611 C 0.72166 0.96841 0.90815 0.0
C1612 C 0.70364 0.95167 0.90599 0.0
C1613 C 0.68959 0.9467 0.92727 0.0
C1614 C 0.69343 0.95826 0.95027 0.0
H1615 H 0.72867 0.94273 0.01943 0.0
H1616 H 0.7008 0.94066 0.00388 0.0
H1617 H 0.72744 0.94073 0.98524 0.0
H1618 H 0.74014 0.99212 0.93276 0.0
H1619 H 0.73278 0.97251 0.89202 0.0
H1620 H 0.07778 0.29304 0.92272 0.0
H1621 H 0.05925 0.28983 0.96445 0.0
H1622 H 0.99122 0.2846 0.9288 0.0
H1623 H 0.0096 0.2872 0.88695 0.0
H1624 H 0.02805 0.3196 0.98529 0.0
H1625 H 0.98834 0.23088 0.97876 0.0
H1626 H 0.01004 0.24126 0.95638 0.0
H1627 H 0.97975 0.24979 0.95311 0.0
C1628 C 0.05889 0.29096 0.9237 0.0
C1629 C 0.04519 0.29031 0.90145 0.0
C1630 C 0.04834 0.28911 0.94758 0.0
C1631 C 0.0239 0.28661 0.94972 0.0
C1632 C 0.01016 0.28589 0.92758 0.0
H1633 H 0.92501 0.30101 0.0728 0.0
H1634 H 0.94482 0.2972 0.03173 0.0
C1635 C 0.02071 0.28754 0.90366 0.0
C1636 C 0.0127 0.28628 0.97514 0.0
H1637 H 0.97535 0.2551 0.0132 0.0
C1638 C 0.01673 0.30538 0.99148 0.0
C1639 C 0.99792 0.2677 0.98317 0.0
C1640 C 0.99392 0.24614 0.96704 0.0
C1641 C 0.00596 0.30664 0.01541 0.0
C1642 C 0.99087 0.28831 0.02317 0.0
C1643 C 0.98692 0.26913 0.00702 0.0
C1644 C 0.97876 0.2891 0.04794 0.0
C1645 C 0.01036 0.32775 0.0321 0.0
C1646 C 0.99132 0.28542 0.07049 0.0
C1647 C 0.98009 0.28748 0.094 0.0
C1648 C 0.9561 0.29338 0.09531 0.0
C1649 C 0.9435 0.29656 0.07253 0.0
C1650 C 0.95474 0.29433 0.04904 0.0
H1651 H 0.02002 0.34187 0.02191 0.0
H1652 H 0.99347 0.33497 0.03922 0.0
H1653 H 0.02091 0.32235 0.04886 0.0
H1654 H 0.00989 0.28127 0.06989 0.0
H1655 H 0.99034 0.28492 0.11113 0.0
H1656 H 0.28646 0.01268 0.8843 0.0
H1657 H 0.28391 0.99298 0.92551 0.0
H1658 H 0.28625 0.06011 0.96351 0.0
H1659 H 0.28935 0.07993 0.92253 0.0
H1660 H 0.31768 0.02947 0.98285 0.0
H1661 H 0.23038 0.98667 0.97573 0.0
H1662 H 0.24961 0.97969 0.94976 0.0
H1663 H 0.23975 0.00945 0.95409 0.0
C1664 C 0.28611 0.02329 0.9014 0.0
C1665 C 0.28816 0.04789 0.90011 0.0
C1666 C 0.28451 0.01199 0.92494 0.0
C1667 C 0.28457 0.02511 0.94754 0.0
C1668 C 0.2861 0.04967 0.94627 0.0
H1669 H 0.28589 0.99015 0.10838 0.0
H1670 H 0.28222 0.01004 0.06735 0.0
C1671 C 0.28789 0.06096 0.92281 0.0
C1672 C 0.28481 0.01326 0.97259 0.0
H1673 H 0.25485 0.97455 0.01018 0.0
C1674 C 0.30384 0.01762 0.98891 0.0
C1675 C 0.26675 0.99777 0.9804 0.0
C1676 C 0.24535 0.99326 0.96419 0.0
C1677 C 0.3055 0.00662 0.01267 0.0
C1678 C 0.28759 0.99098 0.02032 0.0
C1679 C 0.26853 0.98659 0.00411 0.0
C1680 C 0.28864 0.97878 0.04503 0.0
C1681 C 0.3266 0.01139 0.02925 0.0
C1682 C 0.29307 0.95459 0.04589 0.0
C1683 C 0.29528 0.94316 0.06925 0.0
C1684 C 0.29287 0.95572 0.09217 0.0
C1685 C 0.28788 0.97993 0.09114 0.0
C1686 C 0.28582 0.99135 0.06775 0.0
H1687 H 0.34075 0.02071 0.01877 0.0
H1688 H 0.3212 0.02249 0.0456 0.0
H1689 H 0.33378 0.99471 0.03696 0.0
H1690 H 0.29526 0.94466 0.02847 0.0
H1691 H 0.299 0.9245 0.0693 0.0
H1692 H 0.93715 0.67695 0.9269 0.0
H1693 H 0.95775 0.6838 0.96678 0.0
H1694 H 0.99396 0.74282 0.93322 0.0
H1695 H 0.97429 0.73506 0.89259 0.0
H1696 H 0.02318 0.71964 0.95979 0.0
H1697 H 0.94496 0.73079 0.01997 0.0
H1698 H 0.94321 0.70288 0.00443 0.0
H1699 H 0.94297 0.72952 0.98577 0.0
C1700 C 0.94947 0.69142 0.92802 0.0
C1701 C 0.95406 0.70555 0.90671 0.0
C1702 C 0.96104 0.69551 0.95094 0.0
C1703 C 0.97683 0.71433 0.95334 0.0
C1704 C 0.98166 0.72834 0.93194 0.0
H1705 H 0.02802 0.73496 0.10961 0.0
H1706 H 0.00846 0.74257 0.06888 0.0
C1707 C 0.97048 0.72388 0.90874 0.0
C1708 C 0.98917 0.71837 0.97781 0.0
H1709 H 0.98046 0.71834 0.04199 0.0
C1710 C 0.01379 0.71981 0.97774 0.0
C1711 C 0.97701 0.71943 0.0013 0.0
C1712 C 0.95057 0.72087 0.00281 0.0
C1713 C 0.02658 0.72066 0.0005 0.0
C1714 C 0.0145 0.71888 0.02397 0.0
C1715 C 0.98984 0.71909 0.02405 0.0
C1716 C 0.027 0.71521 0.04842 0.0
C1717 C 0.05292 0.72341 0.99899 0.0
C1718 C 0.04362 0.6971 0.05062 0.0
C1719 C 0.05512 0.69312 0.0736 0.0
C1720 C 0.04965 0.70661 0.09517 0.0
C1721 C 0.03252 0.72428 0.09327 0.0
C1722 C 0.0214 0.72866 0.07001 0.0
H1723 H 0.05803 0.73378 0.98196 0.0
H1724 H 0.06011 0.73223 0.01614 0.0
H1725 H 0.06115 0.70582 0.99714 0.0
H1726 H 0.04754 0.6858 0.03462 0.0
H1727 H 0.068 0.67915 0.07458 0.0
loop_
_geom_bond_atom_site_label_1
_geom_bond_atom_site_label_2
_geom_bond_distance
_geom_bond_site_symmetry_2
_ccdc_geom_bond_type
Mn0 O5 2.095 . S
Mn0 O15 2.162 . S
Mn0 O16 2.297 . S
Mn0 O24 2.385 . S
Mn0 O25 2.209 . S
Mn0 O26 2.094 . S
Mn1 O6 2.121 . S
Mn1 N8 2.257 . S
Mn1 N17 2.282 . S
Mn1 O25 2.215 . S
Mn1 O27 2.117 . S
C2 O24 1.234 . S
C2 O25 1.283 . S
C3 O15 1.281 . S
C3 O16 1.236 . S
C4 O26 1.240 . S
C4 O27 1.264 . S
O5 Mn0 2.095 . S
O5 C14 1.250 . S
O6 Mn1 2.121 . S
O6 C14 1.258 . S
C7 N8 1.326 . S
C7 C11 1.460 . S
C7 H13 0.929 . S
N8 Mn1 2.257 . S
N8 C7 1.326 . S
N8 C12 1.362 . S
C9 C10 1.258 . S
C9 C12 1.431 . S
C9 C29 1.449 . S
C10 C9 1.258 . S
C10 C11 1.477 . S
C10 H30 0.931 . S
C11 C7 1.460 . S
C11 C10 1.477 . S
C11 H31 0.930 . S
C12 N8 1.362 . S
C12 C9 1.431 . S
C12 C22 1.476 . S
H13 C7 0.929 . S
C14 O5 1.250 . S
C14 O6 1.258 . S
O15 Mn0 2.162 . S
O15 C3 1.281 . S
O16 Mn0 2.297 . S
O16 C3 1.236 . S
N17 Mn1 2.282 . S
N17 C18 1.328 . S
N17 C22 1.318 . S
C18 N17 1.328 . S
C18 C19 1.457 . S
C18 H23 0.929 . S
C19 C18 1.457 . S
C19 C20 1.291 . S
C19 H32 0.931 . S
C20 C19 1.291 . S
C20 C21 1.373 . S
C20 H33 0.929 . S
C21 C20 1.373 . S
C21 C22 1.396 . S
C21 C28 1.403 . S
C22 C12 1.476 . S
C22 N17 1.318 . S
C22 C21 1.396 . S
H23 C18 0.929 . S
O24 Mn0 2.385 . S
O24 C2 1.234 . S
O25 Mn0 2.209 . S
O25 Mn1 2.215 . S
O25 C2 1.283 . S
O26 Mn0 2.094 . S
O26 C4 1.240 . S
O27 Mn1 2.117 . S
O27 C4 1.264 . S
C28 C21 1.403 . S
C28 C29 1.399 . S
C28 H34 0.929 . S
C29 C9 1.449 . S
C29 C28 1.399 . S
C29 H35 0.930 . S
H30 C10 0.931 . S
H31 C11 0.930 . S
H32 C19 0.931 . S
H33 C20 0.929 . S
H34 C28 0.929 . S
H35 C29 0.930 . S
Mn36 O41 2.095 . S
Mn36 O51 2.162 . S
Mn36 O52 2.297 . S
Mn36 O60 2.385 . S
Mn36 O61 2.209 . S
Mn36 O62 2.094 . S
Mn37 O42 2.121 . S
Mn37 N44 2.257 . S
Mn37 N53 2.282 . S
Mn37 O61 2.215 . S
Mn37 O63 2.117 . S
C38 O60 1.234 . S
C38 O61 1.283 . S
C39 O51 1.281 . S
C39 O52 1.236 . S
C40 O62 1.240 . S
C40 O63 1.264 . S
O41 Mn36 2.095 . S
O41 C50 1.250 . S
O42 Mn37 2.121 . S
O42 C50 1.258 . S
C43 N44 1.326 . S
C43 C47 1.460 . S
C43 H49 0.929 . S
N44 Mn37 2.257 . S
N44 C43 1.326 . S
N44 C48 1.362 . S
C45 C46 1.258 . S
C45 C48 1.431 . S
C45 C65 1.449 . S
C46 C45 1.258 . S
C46 C47 1.477 . S
C46 H66 0.931 . S
C47 C43 1.460 . S
C47 C46 1.477 . S
C47 H67 0.930 . S
C48 N44 1.362 . S
C48 C45 1.431 . S
C48 C58 1.476 . S
H49 C43 0.929 . S
C50 O41 1.250 . S
C50 O42 1.258 . S
O51 Mn36 2.162 . S
O51 C39 1.281 . S
O52 Mn36 2.297 . S
O52 C39 1.236 . S
N53 Mn37 2.282 . S
N53 C54 1.328 . S
N53 C58 1.318 . S
C54 N53 1.328 . S
C54 C55 1.457 . S
C54 H59 0.929 . S
C55 C54 1.457 . S
C55 C56 1.291 . S
C55 H68 0.931 . S
C56 C55 1.291 . S
C56 C57 1.373 . S
C56 H69 0.929 . S
C57 C56 1.373 . S
C57 C58 1.396 . S
C57 C64 1.403 . S
C58 C48 1.476 . S
C58 N53 1.318 . S
C58 C57 1.396 . S
H59 C54 0.929 . S
O60 Mn36 2.385 . S
O60 C38 1.234 . S
O61 Mn36 2.209 . S
O61 Mn37 2.215 . S
O61 C38 1.283 . S
O62 Mn36 2.094 . S
O62 C40 1.240 . S
O63 Mn37 2.117 . S
O63 C40 1.264 . S
C64 C57 1.403 . S
C64 C65 1.399 . S
C64 H70 0.929 . S
C65 C45 1.449 . S
C65 C64 1.399 . S
C65 H71 0.930 . S
H66 C46 0.931 . S
H67 C47 0.930 . S
H68 C55 0.931 . S
H69 C56 0.929 . S
H70 C64 0.929 . S
H71 C65 0.930 . S
Mn72 O77 2.095 . S
Mn72 O87 2.162 . S
Mn72 O88 2.297 . S
Mn72 O96 2.385 . S
Mn72 O97 2.209 . S
Mn72 O98 2.094 . S
Mn73 O78 2.121 . S
Mn73 N80 2.257 . S
Mn73 N89 2.282 . S
Mn73 O97 2.215 . S
Mn73 O99 2.117 . S
C74 O96 1.234 . S
C74 O97 1.283 . S
C75 O87 1.281 . S
C75 O88 1.236 . S
C76 O98 1.240 . S
C76 O99 1.264 . S
O77 Mn72 2.095 . S
O77 C86 1.250 . S
O78 Mn73 2.121 . S
O78 C86 1.258 . S
C79 N80 1.326 . S
C79 C83 1.460 . S
C79 H85 0.929 . S
N80 Mn73 2.257 . S
N80 C79 1.326 . S
N80 C84 1.362 . S
C81 C82 1.258 . S
C81 C84 1.431 . S
C81 C101 1.449 . S
C82 C81 1.258 . S
C82 C83 1.477 . S
C82 H102 0.931 . S
C83 C79 1.460 . S
C83 C82 1.477 . S
C83 H103 0.930 . S
C84 N80 1.362 . S
C84 C81 1.431 . S
C84 C94 1.476 . S
H85 C79 0.929 . S
C86 O77 1.250 . S
C86 O78 1.258 . S
O87 Mn72 2.162 . S
O87 C75 1.281 . S
O88 Mn72 2.297 . S
O88 C75 1.236 . S
N89 Mn73 2.282 . S
N89 C90 1.328 . S
N89 C94 1.318 . S
C90 N89 1.328 . S
C90 C91 1.457 . S
C90 H95 0.929 . S
C91 C90 1.457 . S
C91 C92 1.291 . S
C91 H104 0.931 . S
C92 C91 1.291 . S
C92 C93 1.373 . S
C92 H105 0.929 . S
C93 C92 1.373 . S
C93 C94 1.396 . S
C93 C100 1.403 . S
C94 C84 1.476 . S
C94 N89 1.318 . S
C94 C93 1.396 . S
H95 C90 0.929 . S
O96 Mn72 2.385 . S
O96 C74 1.234 . S
O97 Mn72 2.209 . S
O97 Mn73 2.215 . S
O97 C74 1.283 . S
O98 Mn72 2.094 . S
O98 C76 1.240 . S
O99 Mn73 2.117 . S
O99 C76 1.264 . S
C100 C93 1.403 . S
C100 C101 1.399 . S
C100 H106 0.929 . S
C101 C81 1.449 . S
C101 C100 1.399 . S
C101 H107 0.930 . S
H102 C82 0.931 . S
H103 C83 0.930 . S
H104 C91 0.931 . S
H105 C92 0.929 . S
H106 C100 0.929 . S
H107 C101 0.930 . S
Mn108 O113 2.095 . S
Mn108 O123 2.162 . S
Mn108 O124 2.297 . S
Mn108 O132 2.385 . S
Mn108 O133 2.209 . S
Mn108 O134 2.094 . S
Mn109 O114 2.121 . S
Mn109 N116 2.257 . S
Mn109 N125 2.282 . S
Mn109 O133 2.215 . S
Mn109 O135 2.117 . S
C110 O132 1.234 . S
C110 O133 1.283 . S
C111 O123 1.281 . S
C111 O124 1.236 . S
C112 O134 1.240 . S
C112 O135 1.264 . S
O113 Mn108 2.095 . S
O113 C122 1.250 . S
O114 Mn109 2.121 . S
O114 C122 1.258 . S
C115 N116 1.326 . S
C115 C119 1.460 . S
C115 H121 0.929 . S
N116 Mn109 2.257 . S
N116 C115 1.326 . S
N116 C120 1.362 . S
C117 C118 1.258 . S
C117 C120 1.431 . S
C117 C137 1.449 . S
C118 C117 1.258 . S
C118 C119 1.477 . S
C118 H138 0.931 . S
C119 C115 1.460 . S
C119 C118 1.477 . S
C119 H139 0.930 . S
C120 N116 1.362 . S
C120 C117 1.431 . S
C120 C130 1.476 . S
H121 C115 0.929 . S
C122 O113 1.250 . S
C122 O114 1.258 . S
O123 Mn108 2.162 . S
O123 C111 1.281 . S
O124 Mn108 2.297 . S
O124 C111 1.236 . S
N125 Mn109 2.282 . S
N125 C126 1.328 . S
N125 C130 1.318 . S
C126 N125 1.328 . S
C126 C127 1.457 . S
C126 H131 0.929 . S
C127 C126 1.457 . S
C127 C128 1.291 . S
C127 H140 0.931 . S
C128 C127 1.291 . S
C128 C129 1.373 . S
C128 H141 0.929 . S
C129 C128 1.373 . S
C129 C130 1.396 . S
C129 C136 1.403 . S
C130 C120 1.476 . S
C130 N125 1.318 . S
C130 C129 1.396 . S
H131 C126 0.929 . S
O132 Mn108 2.385 . S
O132 C110 1.234 . S
O133 Mn108 2.209 . S
O133 Mn109 2.215 . S
O133 C110 1.283 . S
O134 Mn108 2.094 . S
O134 C112 1.240 . S
O135 Mn109 2.117 . S
O135 C112 1.264 . S
C136 C129 1.403 . S
C136 C137 1.399 . S
C136 H142 0.929 . S
C137 C117 1.449 . S
C137 C136 1.399 . S
C137 H143 0.930 . S
H138 C118 0.931 . S
H139 C119 0.930 . S
H140 C127 0.931 . S
H141 C128 0.929 . S
H142 C136 0.929 . S
H143 C137 0.930 . S
Mn144 O149 2.095 . S
Mn144 O159 2.162 . S
Mn144 O160 2.297 . S
Mn144 O168 2.385 . S
Mn144 O169 2.209 . S
Mn144 O170 2.094 . S
Mn145 O150 2.121 . S
Mn145 N152 2.257 . S
Mn145 N161 2.282 . S
Mn145 O169 2.215 . S
Mn145 O171 2.117 . S
C146 O168 1.234 . S
C146 O169 1.283 . S
C147 O159 1.281 . S
C147 O160 1.236 . S
C148 O170 1.240 . S
C148 O171 1.264 . S
O149 Mn144 2.095 . S
O149 C158 1.250 . S
O150 Mn145 2.121 . S
O150 C158 1.258 . S
C151 N152 1.326 . S
C151 C155 1.460 . S
C151 H157 0.929 . S
N152 Mn145 2.257 . S
N152 C151 1.326 . S
N152 C156 1.362 . S
C153 C154 1.258 . S
C153 C156 1.431 . S
C153 C173 1.449 . S
C154 C153 1.258 . S
C154 C155 1.477 . S
C154 H174 0.931 . S
C155 C151 1.460 . S
C155 C154 1.477 . S
C155 H175 0.930 . S
C156 N152 1.362 . S
C156 C153 1.431 . S
C156 C166 1.476 . S
H157 C151 0.929 . S
C158 O149 1.250 . S
C158 O150 1.258 . S
O159 Mn144 2.162 . S
O159 C147 1.281 . S
O160 Mn144 2.297 . S
O160 C147 1.236 . S
N161 Mn145 2.282 . S
N161 C162 1.328 . S
N161 C166 1.318 . S
C162 N161 1.328 . S
C162 C163 1.457 . S
C162 H167 0.929 . S
C163 C162 1.457 . S
C163 C164 1.291 . S
C163 H176 0.931 . S
C164 C163 1.291 . S
C164 C165 1.373 . S
C164 H177 0.929 . S
C165 C164 1.373 . S
C165 C166 1.396 . S
C165 C172 1.403 . S
C166 C156 1.476 . S
C166 N161 1.318 . S
C166 C165 1.396 . S
H167 C162 0.929 . S
O168 Mn144 2.385 . S
O168 C146 1.234 . S
O169 Mn144 2.209 . S
O169 Mn145 2.215 . S
O169 C146 1.283 . S
O170 Mn144 2.094 . S
O170 C148 1.240 . S
O171 Mn145 2.117 . S
O171 C148 1.264 . S
C172 C165 1.403 . S
C172 C173 1.399 . S
C172 H178 0.929 . S
C173 C153 1.449 . S
C173 C172 1.399 . S
C173 H179 0.930 . S
H174 C154 0.931 . S
H175 C155 0.930 . S
H176 C163 0.931 . S
H177 C164 0.929 . S
H178 C172 0.929 . S
H179 C173 0.930 . S
Mn180 O185 2.095 . S
Mn180 O195 2.162 . S
Mn180 O196 2.297 . S
Mn180 O204 2.385 . S
Mn180 O205 2.209 . S
Mn180 O206 2.094 . S
Mn181 O186 2.121 . S
Mn181 N188 2.257 . S
Mn181 N197 2.282 . S
Mn181 O205 2.215 . S
Mn181 O207 2.117 . S
C182 O204 1.234 . S
C182 O205 1.283 . S
C183 O195 1.281 . S
C183 O196 1.236 . S
C184 O206 1.240 . S
C184 O207 1.264 . S
O185 Mn180 2.095 . S
O185 C194 1.250 . S
O186 Mn181 2.121 . S
O186 C194 1.258 . S
C187 N188 1.326 . S
C187 C191 1.460 . S
C187 H193 0.929 . S
N188 Mn181 2.257 . S
N188 C187 1.326 . S
N188 C192 1.362 . S
C189 C190 1.258 . S
C189 C192 1.431 . S
C189 C209 1.449 . S
C190 C189 1.258 . S
C190 C191 1.477 . S
C190 H210 0.931 . S
C191 C187 1.460 . S
C191 C190 1.477 . S
C191 H211 0.930 . S
C192 N188 1.362 . S
C192 C189 1.431 . S
C192 C202 1.476 . S
H193 C187 0.929 . S
C194 O185 1.250 . S
C194 O186 1.258 . S
O195 Mn180 2.162 . S
O195 C183 1.281 . S
O196 Mn180 2.297 . S
O196 C183 1.236 . S
N197 Mn181 2.282 . S
N197 C198 1.328 . S
N197 C202 1.318 . S
C198 N197 1.328 . S
C198 C199 1.457 . S
C198 H203 0.929 . S
C199 C198 1.457 . S
C199 C200 1.291 . S
C199 H212 0.931 . S
C200 C199 1.291 . S
C200 C201 1.373 . S
C200 H213 0.929 . S
C201 C200 1.373 . S
C201 C202 1.396 . S
C201 C208 1.403 . S
C202 C192 1.476 . S
C202 N197 1.318 . S
C202 C201 1.396 . S
H203 C198 0.929 . S
O204 Mn180 2.385 . S
O204 C182 1.234 . S
O205 Mn180 2.209 . S
O205 Mn181 2.215 . S
O205 C182 1.283 . S
O206 Mn180 2.094 . S
O206 C184 1.240 . S
O207 Mn181 2.117 . S
O207 C184 1.264 . S
C208 C201 1.403 . S
C208 C209 1.399 . S
C208 H214 0.929 . S
C209 C189 1.449 . S
C209 C208 1.399 . S
C209 H215 0.930 . S
H210 C190 0.931 . S
H211 C191 0.930 . S
H212 C199 0.931 . S
H213 C200 0.929 . S
H214 C208 0.929 . S
H215 C209 0.930 . S
Mn216 O221 2.095 . S
Mn216 O231 2.162 . S
Mn216 O232 2.297 . S
Mn216 O240 2.385 . S
Mn216 O241 2.209 . S
Mn216 O242 2.094 . S
Mn217 O222 2.121 . S
Mn217 N224 2.257 . S
Mn217 N233 2.282 . S
Mn217 O241 2.215 . S
Mn217 O243 2.117 . S
C218 O240 1.234 . S
C218 O241 1.283 . S
C219 O231 1.281 . S
C219 O232 1.236 . S
C220 O242 1.240 . S
C220 O243 1.264 . S
O221 Mn216 2.095 . S
O221 C230 1.250 . S
O222 Mn217 2.121 . S
O222 C230 1.258 . S
C223 N224 1.326 . S
C223 C227 1.460 . S
C223 H229 0.929 . S
N224 Mn217 2.257 . S
N224 C223 1.326 . S
N224 C228 1.362 . S
C225 C226 1.258 . S
C225 C228 1.431 . S
C225 C245 1.449 . S
C226 C225 1.258 . S
C226 C227 1.477 . S
C226 H246 0.931 . S
C227 C223 1.460 . S
C227 C226 1.477 . S
C227 H247 0.930 . S
C228 N224 1.362 . S
C228 C225 1.431 . S
C228 C238 1.476 . S
H229 C223 0.929 . S
C230 O221 1.250 . S
C230 O222 1.258 . S
O231 Mn216 2.162 . S
O231 C219 1.281 . S
O232 Mn216 2.297 . S
O232 C219 1.236 . S
N233 Mn217 2.282 . S
N233 C234 1.328 . S
N233 C238 1.318 . S
C234 N233 1.328 . S
C234 C235 1.457 . S
C234 H239 0.929 . S
C235 C234 1.457 . S
C235 C236 1.291 . S
C235 H248 0.931 . S
C236 C235 1.291 . S
C236 C237 1.373 . S
C236 H249 0.929 . S
C237 C236 1.373 . S
C237 C238 1.396 . S
C237 C244 1.403 . S
C238 C228 1.476 . S
C238 N233 1.318 . S
C238 C237 1.396 . S
H239 C234 0.929 . S
O240 Mn216 2.385 . S
O240 C218 1.234 . S
O241 Mn216 2.209 . S
O241 Mn217 2.215 . S
O241 C218 1.283 . S
O242 Mn216 2.094 . S
O242 C220 1.240 . S
O243 Mn217 2.117 . S
O243 C220 1.264 . S
C244 C237 1.403 . S
C244 C245 1.399 . S
C244 H250 0.929 . S
C245 C225 1.449 . S
C245 C244 1.399 . S
C245 H251 0.930 . S
H246 C226 0.931 . S
H247 C227 0.930 . S
H248 C235 0.931 . S
H249 C236 0.929 . S
H250 C244 0.929 . S
H251 C245 0.930 . S
Mn252 O257 2.095 . S
Mn252 O267 2.162 . S
Mn252 O268 2.297 . S
Mn252 O276 2.385 . S
Mn252 O277 2.209 . S
Mn252 O278 2.094 . S
Mn253 O258 2.121 . S
Mn253 N260 2.257 . S
Mn253 N269 2.282 . S
Mn253 O277 2.215 . S
Mn253 O279 2.117 . S
C254 O276 1.234 . S
C254 O277 1.283 . S
C255 O267 1.281 . S
C255 O268 1.236 . S
C256 O278 1.240 . S
C256 O279 1.264 . S
O257 Mn252 2.095 . S
O257 C266 1.250 . S
O258 Mn253 2.121 . S
O258 C266 1.258 . S
C259 N260 1.326 . S
C259 C263 1.460 . S
C259 H265 0.929 . S
N260 Mn253 2.257 . S
N260 C259 1.326 . S
N260 C264 1.362 . S
C261 C262 1.258 . S
C261 C264 1.431 . S
C261 C281 1.449 . S
C262 C261 1.258 . S
C262 C263 1.477 . S
C262 H282 0.931 . S
C263 C259 1.460 . S
C263 C262 1.477 . S
C263 H283 0.930 . S
C264 N260 1.362 . S
C264 C261 1.431 . S
C264 C274 1.476 . S
H265 C259 0.929 . S
C266 O257 1.250 . S
C266 O258 1.258 . S
O267 Mn252 2.162 . S
O267 C255 1.281 . S
O268 Mn252 2.297 . S
O268 C255 1.236 . S
N269 Mn253 2.282 . S
N269 C270 1.328 . S
N269 C274 1.318 . S
C270 N269 1.328 . S
C270 C271 1.457 . S
C270 H275 0.929 . S
C271 C270 1.457 . S
C271 C272 1.291 . S
C271 H284 0.931 . S
C272 C271 1.291 . S
C272 C273 1.373 . S
C272 H285 0.929 . S
C273 C272 1.373 . S
C273 C274 1.396 . S
C273 C280 1.403 . S
C274 C264 1.476 . S
C274 N269 1.318 . S
C274 C273 1.396 . S
H275 C270 0.929 . S
O276 Mn252 2.385 . S
O276 C254 1.234 . S
O277 Mn252 2.209 . S
O277 Mn253 2.215 . S
O277 C254 1.283 . S
O278 Mn252 2.094 . S
O278 C256 1.240 . S
O279 Mn253 2.117 . S
O279 C256 1.264 . S
C280 C273 1.403 . S
C280 C281 1.399 . S
C280 H286 0.929 . S
C281 C261 1.449 . S
C281 C280 1.399 . S
C281 H287 0.930 . S
H282 C262 0.931 . S
H283 C263 0.930 . S
H284 C271 0.931 . S
H285 C272 0.929 . S
H286 C280 0.929 . S
H287 C281 0.930 . S
Mn288 O293 2.095 . S
Mn288 O303 2.162 . S
Mn288 O304 2.297 . S
Mn288 O312 2.385 . S
Mn288 O313 2.209 . S
Mn288 O314 2.094 . S
Mn289 O294 2.121 . S
Mn289 N296 2.257 . S
Mn289 N305 2.282 . S
Mn289 O313 2.215 . S
Mn289 O315 2.117 . S
C290 O312 1.234 . S
C290 O313 1.283 . S
C291 O303 1.281 . S
C291 O304 1.236 . S
C292 O314 1.240 . S
C292 O315 1.264 . S
O293 Mn288 2.095 . S
O293 C302 1.250 . S
O294 Mn289 2.121 . S
O294 C302 1.258 . S
C295 N296 1.326 . S
C295 C299 1.460 . S
C295 H301 0.929 . S
N296 Mn289 2.257 . S
N296 C295 1.326 . S
N296 C300 1.362 . S
C297 C298 1.258 . S
C297 C300 1.431 . S
C297 C317 1.449 . S
C298 C297 1.258 . S
C298 C299 1.477 . S
C298 H318 0.931 . S
C299 C295 1.460 . S
C299 C298 1.477 . S
C299 H319 0.930 . S
C300 N296 1.362 . S
C300 C297 1.431 . S
C300 C310 1.476 . S
H301 C295 0.929 . S
C302 O293 1.250 . S
C302 O294 1.258 . S
O303 Mn288 2.162 . S
O303 C291 1.281 . S
O304 Mn288 2.297 . S
O304 C291 1.236 . S
N305 Mn289 2.282 . S
N305 C306 1.328 . S
N305 C310 1.318 . S
C306 N305 1.328 . S
C306 C307 1.457 . S
C306 H311 0.929 . S
C307 C306 1.457 . S
C307 C308 1.291 . S
C307 H320 0.931 . S
C308 C307 1.291 . S
C308 C309 1.373 . S
C308 H321 0.929 . S
C309 C308 1.373 . S
C309 C310 1.396 . S
C309 C316 1.403 . S
C310 C300 1.476 . S
C310 N305 1.318 . S
C310 C309 1.396 . S
H311 C306 0.929 . S
O312 Mn288 2.385 . S
O312 C290 1.234 . S
O313 Mn288 2.209 . S
O313 Mn289 2.215 . S
O313 C290 1.283 . S
O314 Mn288 2.094 . S
O314 C292 1.240 . S
O315 Mn289 2.117 . S
O315 C292 1.264 . S
C316 C309 1.403 . S
C316 C317 1.399 . S
C316 H322 0.929 . S
C317 C297 1.449 . S
C317 C316 1.399 . S
C317 H323 0.930 . S
H318 C298 0.931 . S
H319 C299 0.930 . S
H320 C307 0.931 . S
H321 C308 0.929 . S
H322 C316 0.929 . S
H323 C317 0.930 . S
Mn324 O329 2.095 . S
Mn324 O339 2.162 . S
Mn324 O340 2.297 . S
Mn324 O348 2.385 . S
Mn324 O349 2.209 . S
Mn324 O350 2.094 . S
Mn325 O330 2.121 . S
Mn325 N332 2.257 . S
Mn325 N341 2.282 . S
Mn325 O349 2.215 . S
Mn325 O351 2.117 . S
C326 O348 1.234 . S
C326 O349 1.283 . S
C327 O339 1.281 . S
C327 O340 1.236 . S
C328 O350 1.240 . S
C328 O351 1.264 . S
O329 Mn324 2.095 . S
O329 C338 1.250 . S
O330 Mn325 2.121 . S
O330 C338 1.258 . S
C331 N332 1.326 . S
C331 C335 1.460 . S
C331 H337 0.929 . S
N332 Mn325 2.257 . S
N332 C331 1.326 . S
N332 C336 1.362 . S
C333 C334 1.258 . S
C333 C336 1.431 . S
C333 C353 1.449 . S
C334 C333 1.258 . S
C334 C335 1.477 . S
C334 H354 0.931 . S
C335 C331 1.460 . S
C335 C334 1.477 . S
C335 H355 0.930 . S
C336 N332 1.362 . S
C336 C333 1.431 . S
C336 C346 1.476 . S
H337 C331 0.929 . S
C338 O329 1.250 . S
C338 O330 1.258 . S
O339 Mn324 2.162 . S
O339 C327 1.281 . S
O340 Mn324 2.297 . S
O340 C327 1.236 . S
N341 Mn325 2.282 . S
N341 C342 1.328 . S
N341 C346 1.318 . S
C342 N341 1.328 . S
C342 C343 1.457 . S
C342 H347 0.929 . S
C343 C342 1.457 . S
C343 C344 1.291 . S
C343 H356 0.931 . S
C344 C343 1.291 . S
C344 C345 1.373 . S
C344 H357 0.929 . S
C345 C344 1.373 . S
C345 C346 1.396 . S
C345 C352 1.403 . S
C346 C336 1.476 . S
C346 N341 1.318 . S
C346 C345 1.396 . S
H347 C342 0.929 . S
O348 Mn324 2.385 . S
O348 C326 1.234 . S
O349 Mn324 2.209 . S
O349 Mn325 2.215 . S
O349 C326 1.283 . S
O350 Mn324 2.094 . S
O350 C328 1.240 . S
O351 Mn325 2.117 . S
O351 C328 1.264 . S
C352 C345 1.403 . S
C352 C353 1.399 . S
C352 H358 0.929 . S
C353 C333 1.449 . S
C353 C352 1.399 . S
C353 H359 0.930 . S
H354 C334 0.931 . S
H355 C335 0.930 . S
H356 C343 0.931 . S
H357 C344 0.929 . S
H358 C352 0.929 . S
H359 C353 0.930 . S
Mn360 O365 2.095 . S
Mn360 O375 2.162 . S
Mn360 O376 2.297 . S
Mn360 O384 2.385 . S
Mn360 O385 2.209 . S
Mn360 O386 2.094 . S
Mn361 O366 2.121 . S
Mn361 N368 2.257 . S
Mn361 N377 2.282 . S
Mn361 O385 2.215 . S
Mn361 O387 2.117 . S
C362 O384 1.234 . S
C362 O385 1.283 . S
C363 O375 1.281 . S
C363 O376 1.236 . S
C364 O386 1.240 . S
C364 O387 1.264 . S
O365 Mn360 2.095 . S
O365 C374 1.250 . S
O366 Mn361 2.121 . S
O366 C374 1.258 . S
C367 N368 1.326 . S
C367 C371 1.460 . S
C367 H373 0.929 . S
N368 Mn361 2.257 . S
N368 C367 1.326 . S
N368 C372 1.362 . S
C369 C370 1.258 . S
C369 C372 1.431 . S
C369 C389 1.449 . S
C370 C369 1.258 . S
C370 C371 1.477 . S
C370 H390 0.931 . S
C371 C367 1.460 . S
C371 C370 1.477 . S
C371 H391 0.930 . S
C372 N368 1.362 . S
C372 C369 1.431 . S
C372 C382 1.476 . S
H373 C367 0.929 . S
C374 O365 1.250 . S
C374 O366 1.258 . S
O375 Mn360 2.162 . S
O375 C363 1.281 . S
O376 Mn360 2.297 . S
O376 C363 1.236 . S
N377 Mn361 2.282 . S
N377 C378 1.328 . S
N377 C382 1.318 . S
C378 N377 1.328 . S
C378 C379 1.457 . S
C378 H383 0.929 . S
C379 C378 1.457 . S
C379 C380 1.291 . S
C379 H392 0.931 . S
C380 C379 1.291 . S
C380 C381 1.373 . S
C380 H393 0.929 . S
C381 C380 1.373 . S
C381 C382 1.396 . S
C381 C388 1.403 . S
C382 C372 1.476 . S
C382 N377 1.318 . S
C382 C381 1.396 . S
H383 C378 0.929 . S
O384 Mn360 2.385 . S
O384 C362 1.234 . S
O385 Mn360 2.209 . S
O385 Mn361 2.215 . S
O385 C362 1.283 . S
O386 Mn360 2.094 . S
O386 C364 1.240 . S
O387 Mn361 2.117 . S
O387 C364 1.264 . S
C388 C381 1.403 . S
C388 C389 1.399 . S
C388 H394 0.929 . S
C389 C369 1.449 . S
C389 C388 1.399 . S
C389 H395 0.930 . S
H390 C370 0.931 . S
H391 C371 0.930 . S
H392 C379 0.931 . S
H393 C380 0.929 . S
H394 C388 0.929 . S
H395 C389 0.930 . S
Mn396 O401 2.095 . S
Mn396 O411 2.162 . S
Mn396 O412 2.297 . S
Mn396 O420 2.385 . S
Mn396 O421 2.209 . S
Mn396 O422 2.094 . S
Mn397 O402 2.121 . S
Mn397 N404 2.257 . S
Mn397 N413 2.282 . S
Mn397 O421 2.215 . S
Mn397 O423 2.117 . S
C398 O420 1.234 . S
C398 O421 1.283 . S
C399 O411 1.281 . S
C399 O412 1.236 . S
C400 O422 1.240 . S
C400 O423 1.264 . S
O401 Mn396 2.095 . S
O401 C410 1.250 . S
O402 Mn397 2.121 . S
O402 C410 1.258 . S
C403 N404 1.326 . S
C403 C407 1.460 . S
C403 H409 0.929 . S
N404 Mn397 2.257 . S
N404 C403 1.326 . S
N404 C408 1.362 . S
C405 C406 1.258 . S
C405 C408 1.431 . S
C405 C425 1.449 . S
C406 C405 1.258 . S
C406 C407 1.477 . S
C406 H426 0.931 . S
C407 C403 1.460 . S
C407 C406 1.477 . S
C407 H427 0.930 . S
C408 N404 1.362 . S
C408 C405 1.431 . S
C408 C418 1.476 . S
H409 C403 0.929 . S
C410 O401 1.250 . S
C410 O402 1.258 . S
O411 Mn396 2.162 . S
O411 C399 1.281 . S
O412 Mn396 2.297 . S
O412 C399 1.236 . S
N413 Mn397 2.282 . S
N413 C414 1.328 . S
N413 C418 1.318 . S
C414 N413 1.328 . S
C414 C415 1.457 . S
C414 H419 0.929 . S
C415 C414 1.457 . S
C415 C416 1.291 . S
C415 H428 0.931 . S
C416 C415 1.291 . S
C416 C417 1.373 . S
C416 H429 0.929 . S
C417 C416 1.373 . S
C417 C418 1.396 . S
C417 C424 1.403 . S
C418 C408 1.476 . S
C418 N413 1.318 . S
C418 C417 1.396 . S
H419 C414 0.929 . S
O420 Mn396 2.385 . S
O420 C398 1.234 . S
O421 Mn396 2.209 . S
O421 Mn397 2.215 . S
O421 C398 1.283 . S
O422 Mn396 2.094 . S
O422 C400 1.240 . S
O423 Mn397 2.117 . S
O423 C400 1.264 . S
C424 C417 1.403 . S
C424 C425 1.399 . S
C424 H430 0.929 . S
C425 C405 1.449 . S
C425 C424 1.399 . S
C425 H431 0.930 . S
H426 C406 0.931 . S
H427 C407 0.930 . S
H428 C415 0.931 . S
H429 C416 0.929 . S
H430 C424 0.929 . S
H431 C425 0.930 . S
Mn432 O437 2.095 . S
Mn432 O447 2.162 . S
Mn432 O448 2.297 . S
Mn432 O456 2.385 . S
Mn432 O457 2.209 . S
Mn432 O458 2.094 . S
Mn433 O438 2.121 . S
Mn433 N440 2.257 . S
Mn433 N449 2.282 . S
Mn433 O457 2.215 . S
Mn433 O459 2.117 . S
C434 O456 1.234 . S
C434 O457 1.283 . S
C435 O447 1.281 . S
C435 O448 1.236 . S
C436 O458 1.240 . S
C436 O459 1.264 . S
O437 Mn432 2.095 . S
O437 C446 1.250 . S
O438 Mn433 2.121 . S
O438 C446 1.258 . S
C439 N440 1.326 . S
C439 C443 1.460 . S
C439 H445 0.929 . S
N440 Mn433 2.257 . S
N440 C439 1.326 . S
N440 C444 1.362 . S
C441 C442 1.258 . S
C441 C444 1.431 . S
C441 C461 1.449 . S
C442 C441 1.258 . S
C442 C443 1.477 . S
C442 H462 0.931 . S
C443 C439 1.460 . S
C443 C442 1.477 . S
C443 H463 0.930 . S
C444 N440 1.362 . S
C444 C441 1.431 . S
C444 C454 1.476 . S
H445 C439 0.929 . S
C446 O437 1.250 . S
C446 O438 1.258 . S
O447 Mn432 2.162 . S
O447 C435 1.281 . S
O448 Mn432 2.297 . S
O448 C435 1.236 . S
N449 Mn433 2.282 . S
N449 C450 1.328 . S
N449 C454 1.318 . S
C450 N449 1.328 . S
C450 C451 1.457 . S
C450 H455 0.929 . S
C451 C450 1.457 . S
C451 C452 1.291 . S
C451 H464 0.931 . S
C452 C451 1.291 . S
C452 C453 1.373 . S
C452 H465 0.929 . S
C453 C452 1.373 . S
C453 C454 1.396 . S
C453 C460 1.403 . S
C454 C444 1.476 . S
C454 N449 1.318 . S
C454 C453 1.396 . S
H455 C450 0.929 . S
O456 Mn432 2.385 . S
O456 C434 1.234 . S
O457 Mn432 2.209 . S
O457 Mn433 2.215 . S
O457 C434 1.283 . S
O458 Mn432 2.094 . S
O458 C436 1.240 . S
O459 Mn433 2.117 . S
O459 C436 1.264 . S
C460 C453 1.403 . S
C460 C461 1.399 . S
C460 H466 0.929 . S
C461 C441 1.449 . S
C461 C460 1.399 . S
C461 H467 0.930 . S
H462 C442 0.931 . S
H463 C443 0.930 . S
H464 C451 0.931 . S
H465 C452 0.929 . S
H466 C460 0.929 . S
H467 C461 0.930 . S
Mn468 O473 2.095 . S
Mn468 O483 2.162 . S
Mn468 O484 2.297 . S
Mn468 O492 2.385 . S
Mn468 O493 2.209 . S
Mn468 O494 2.094 . S
Mn469 O474 2.121 . S
Mn469 N476 2.257 . S
Mn469 N485 2.282 . S
Mn469 O493 2.215 . S
Mn469 O495 2.117 . S
C470 O492 1.234 . S
C470 O493 1.283 . S
C471 O483 1.281 . S
C471 O484 1.236 . S
C472 O494 1.240 . S
C472 O495 1.264 . S
O473 Mn468 2.095 . S
O473 C482 1.250 . S
O474 Mn469 2.121 . S
O474 C482 1.258 . S
C475 N476 1.326 . S
C475 C479 1.460 . S
C475 H481 0.929 . S
N476 Mn469 2.257 . S
N476 C475 1.326 . S
N476 C480 1.362 . S
C477 C478 1.258 . S
C477 C480 1.431 . S
C477 C497 1.449 . S
C478 C477 1.258 . S
C478 C479 1.477 . S
C478 H498 0.931 . S
C479 C475 1.460 . S
C479 C478 1.477 . S
C479 H499 0.930 . S
C480 N476 1.362 . S
C480 C477 1.431 . S
C480 C490 1.476 . S
H481 C475 0.929 . S
C482 O473 1.250 . S
C482 O474 1.258 . S
O483 Mn468 2.162 . S
O483 C471 1.281 . S
O484 Mn468 2.297 . S
O484 C471 1.236 . S
N485 Mn469 2.282 . S
N485 C486 1.328 . S
N485 C490 1.318 . S
C486 N485 1.328 . S
C486 C487 1.457 . S
C486 H491 0.929 . S
C487 C486 1.457 . S
C487 C488 1.291 . S
C487 H500 0.931 . S
C488 C487 1.291 . S
C488 C489 1.373 . S
C488 H501 0.929 . S
C489 C488 1.373 . S
C489 C490 1.396 . S
C489 C496 1.403 . S
C490 C480 1.476 . S
C490 N485 1.318 . S
C490 C489 1.396 . S
H491 C486 0.929 . S
O492 Mn468 2.385 . S
O492 C470 1.234 . S
O493 Mn468 2.209 . S
O493 Mn469 2.215 . S
O493 C470 1.283 . S
O494 Mn468 2.094 . S
O494 C472 1.240 . S
O495 Mn469 2.117 . S
O495 C472 1.264 . S
C496 C489 1.403 . S
C496 C497 1.399 . S
C496 H502 0.929 . S
C497 C477 1.449 . S
C497 C496 1.399 . S
C497 H503 0.930 . S
H498 C478 0.931 . S
H499 C479 0.930 . S
H500 C487 0.931 . S
H501 C488 0.929 . S
H502 C496 0.929 . S
H503 C497 0.930 . S
Mn504 O509 2.095 . S
Mn504 O519 2.162 . S
Mn504 O520 2.297 . S
Mn504 O528 2.385 . S
Mn504 O529 2.209 . S
Mn504 O530 2.094 . S
Mn505 O510 2.121 . S
Mn505 N512 2.257 . S
Mn505 N521 2.282 . S
Mn505 O529 2.215 . S
Mn505 O531 2.117 . S
C506 O528 1.234 . S
C506 O529 1.283 . S
C507 O519 1.281 . S
C507 O520 1.236 . S
C508 O530 1.240 . S
C508 O531 1.264 . S
O509 Mn504 2.095 . S
O509 C518 1.250 . S
O510 Mn505 2.121 . S
O510 C518 1.258 . S
C511 N512 1.326 . S
C511 C515 1.460 . S
C511 H517 0.929 . S
N512 Mn505 2.257 . S
N512 C511 1.326 . S
N512 C516 1.362 . S
C513 C514 1.258 . S
C513 C516 1.431 . S
C513 C533 1.449 . S
C514 C513 1.258 . S
C514 C515 1.477 . S
C514 H534 0.931 . S
C515 C511 1.460 . S
C515 C514 1.477 . S
C515 H535 0.930 . S
C516 N512 1.362 . S
C516 C513 1.431 . S
C516 C526 1.476 . S
H517 C511 0.929 . S
C518 O509 1.250 . S
C518 O510 1.258 . S
O519 Mn504 2.162 . S
O519 C507 1.281 . S
O520 Mn504 2.297 . S
O520 C507 1.236 . S
N521 Mn505 2.282 . S
N521 C522 1.328 . S
N521 C526 1.318 . S
C522 N521 1.328 . S
C522 C523 1.457 . S
C522 H527 0.929 . S
C523 C522 1.457 . S
C523 C524 1.291 . S
C523 H536 0.931 . S
C524 C523 1.291 . S
C524 C525 1.373 . S
C524 H537 0.929 . S
C525 C524 1.373 . S
C525 C526 1.396 . S
C525 C532 1.403 . S
C526 C516 1.476 . S
C526 N521 1.318 . S
C526 C525 1.396 . S
H527 C522 0.929 . S
O528 Mn504 2.385 . S
O528 C506 1.234 . S
O529 Mn504 2.209 . S
O529 Mn505 2.215 . S
O529 C506 1.283 . S
O530 Mn504 2.094 . S
O530 C508 1.240 . S
O531 Mn505 2.117 . S
O531 C508 1.264 . S
C532 C525 1.403 . S
C532 C533 1.399 . S
C532 H538 0.929 . S
C533 C513 1.449 . S
C533 C532 1.399 . S
C533 H539 0.930 . S
H534 C514 0.931 . S
H535 C515 0.930 . S
H536 C523 0.931 . S
H537 C524 0.929 . S
H538 C532 0.929 . S
H539 C533 0.930 . S
Mn540 O545 2.095 . S
Mn540 O555 2.162 . S
Mn540 O556 2.297 . S
Mn540 O564 2.385 . S
Mn540 O565 2.209 . S
Mn540 O566 2.094 . S
Mn541 O546 2.121 . S
Mn541 N548 2.257 . S
Mn541 N557 2.282 . S
Mn541 O565 2.215 . S
Mn541 O567 2.117 . S
C542 O564 1.234 . S
C542 O565 1.283 . S
C543 O555 1.281 . S
C543 O556 1.236 . S
C544 O566 1.240 . S
C544 O567 1.264 . S
O545 Mn540 2.095 . S
O545 C554 1.250 . S
O546 Mn541 2.121 . S
O546 C554 1.258 . S
C547 N548 1.326 . S
C547 C551 1.460 . S
C547 H553 0.929 . S
N548 Mn541 2.257 . S
N548 C547 1.326 . S
N548 C552 1.362 . S
C549 C550 1.258 . S
C549 C552 1.431 . S
C549 C569 1.449 . S
C550 C549 1.258 . S
C550 C551 1.477 . S
C550 H570 0.931 . S
C551 C547 1.460 . S
C551 C550 1.477 . S
C551 H571 0.930 . S
C552 N548 1.362 . S
C552 C549 1.431 . S
C552 C562 1.476 . S
H553 C547 0.929 . S
C554 O545 1.250 . S
C554 O546 1.258 . S
O555 Mn540 2.162 . S
O555 C543 1.281 . S
O556 Mn540 2.297 . S
O556 C543 1.236 . S
N557 Mn541 2.282 . S
N557 C558 1.328 . S
N557 C562 1.318 . S
C558 N557 1.328 . S
C558 C559 1.457 . S
C558 H563 0.929 . S
C559 C558 1.457 . S
C559 C560 1.291 . S
C559 H572 0.931 . S
C560 C559 1.291 . S
C560 C561 1.373 . S
C560 H573 0.929 . S
C561 C560 1.373 . S
C561 C562 1.396 . S
C561 C568 1.403 . S
C562 C552 1.476 . S
C562 N557 1.318 . S
C562 C561 1.396 . S
H563 C558 0.929 . S
O564 Mn540 2.385 . S
O564 C542 1.234 . S
O565 Mn540 2.209 . S
O565 Mn541 2.215 . S
O565 C542 1.283 . S
O566 Mn540 2.094 . S
O566 C544 1.240 . S
O567 Mn541 2.117 . S
O567 C544 1.264 . S
C568 C561 1.403 . S
C568 C569 1.399 . S
C568 H574 0.929 . S
C569 C549 1.449 . S
C569 C568 1.399 . S
C569 H575 0.930 . S
H570 C550 0.931 . S
H571 C551 0.930 . S
H572 C559 0.931 . S
H573 C560 0.929 . S
H574 C568 0.929 . S
H575 C569 0.930 . S
H576 C584 0.929 . S
H577 C586 0.930 . S
H578 C588 0.930 . S
H579 C591 0.929 . S
H580 C594 0.930 . S
H581 C596 0.960 . S
H582 C596 0.960 . S
H583 C596 0.960 . S
C584 H576 0.929 . S
C584 C585 1.377 . S
C584 C586 1.384 . S
C585 C584 1.377 . S
C585 C591 1.390 . S
C586 H577 0.930 . S
C586 C584 1.384 . S
C586 C587 1.372 . S
C587 C586 1.372 . S
C587 C588 1.400 . S
C587 C592 1.490 . S
C588 H578 0.930 . S
C588 C587 1.400 . S
C588 C591 1.386 . S
H589 C605 0.930 . S
H590 C606 0.931 . S
C591 H579 0.929 . S
C591 C585 1.390 . S
C591 C588 1.386 . S
C592 C587 1.490 . S
C592 C594 1.395 . S
C592 C595 1.403 . S
H593 C599 0.930 . S
C594 H580 0.930 . S
C594 C592 1.395 . S
C594 C597 1.403 . S
C595 C592 1.403 . S
C595 C596 1.524 . S
C595 C599 1.400 . S
C596 H581 0.960 . S
C596 H582 0.960 . S
C596 H583 0.960 . S
C596 C595 1.524 . S
C597 C594 1.403 . S
C597 C598 1.392 . S
C597 C601 1.495 . S
C598 C597 1.392 . S
C598 C599 1.385 . S
C598 C600 1.478 . S
C599 H593 0.930 . S
C599 C595 1.400 . S
C599 C598 1.385 . S
C600 C598 1.478 . S
C600 C602 1.381 . S
C600 C606 1.383 . S
C601 C597 1.495 . S
C601 H607 0.959 . S
C601 H608 0.961 . S
C601 H609 0.960 . S
C602 C600 1.381 . S
C602 C603 1.394 . S
C602 H610 0.930 . S
C603 C602 1.394 . S
C603 C604 1.383 . S
C603 H611 0.929 . S
C604 C603 1.383 . S
C604 C605 1.377 . S
C605 H589 0.930 . S
C605 C604 1.377 . S
C605 C606 1.379 . S
C606 H590 0.931 . S
C606 C600 1.383 . S
C606 C605 1.379 . S
H607 C601 0.959 . S
H608 C601 0.961 . S
H609 C601 0.960 . S
H610 C602 0.930 . S
H611 C603 0.929 . S
H612 C620 0.929 . S
H613 C622 0.930 . S
H614 C624 0.930 . S
H615 C627 0.929 . S
H616 C630 0.930 . S
H617 C632 0.960 . S
H618 C632 0.960 . S
H619 C632 0.960 . S
C620 H612 0.929 . S
C620 C621 1.377 . S
C620 C622 1.384 . S
C621 C620 1.377 . S
C621 C627 1.390 . S
C622 H613 0.930 . S
C622 C620 1.384 . S
C622 C623 1.372 . S
C623 C622 1.372 . S
C623 C624 1.400 . S
C623 C628 1.490 . S
C624 H614 0.930 . S
C624 C623 1.400 . S
C624 C627 1.386 . S
H625 C641 0.930 . S
H626 C642 0.931 . S
C627 H615 0.929 . S
C627 C621 1.390 . S
C627 C624 1.386 . S
C628 C623 1.490 . S
C628 C630 1.395 . S
C628 C631 1.403 . S
H629 C635 0.930 . S
C630 H616 0.930 . S
C630 C628 1.395 . S
C630 C633 1.403 . S
C631 C628 1.403 . S
C631 C632 1.524 . S
C631 C635 1.400 . S
C632 H617 0.960 . S
C632 H618 0.960 . S
C632 H619 0.960 . S
C632 C631 1.524 . S
C633 C630 1.403 . S
C633 C634 1.392 . S
C633 C637 1.495 . S
C634 C633 1.392 . S
C634 C635 1.385 . S
C634 C636 1.478 . S
C635 H629 0.930 . S
C635 C631 1.400 . S
C635 C634 1.385 . S
C636 C634 1.478 . S
C636 C638 1.381 . S
C636 C642 1.383 . S
C637 C633 1.495 . S
C637 H643 0.959 . S
C637 H644 0.961 . S
C637 H645 0.960 . S
C638 C636 1.381 . S
C638 C639 1.394 . S
C638 H646 0.930 . S
C639 C638 1.394 . S
C639 C640 1.383 . S
C639 H647 0.929 . S
C640 C639 1.383 . S
C640 C641 1.377 . S
C641 H625 0.930 . S
C641 C640 1.377 . S
C641 C642 1.379 . S
C642 H626 0.931 . S
C642 C636 1.383 . S
C642 C641 1.379 . S
H643 C637 0.959 . S
H644 C637 0.961 . S
H645 C637 0.960 . S
H646 C638 0.930 . S
H647 C639 0.929 . S
H648 C656 0.929 . S
H649 C658 0.930 . S
H650 C660 0.930 . S
H651 C663 0.929 . S
H652 C666 0.930 . S
H653 C668 0.960 . S
H654 C668 0.960 . S
H655 C668 0.960 . S
C656 H648 0.929 . S
C656 C657 1.377 . S
C656 C658 1.384 . S
C657 C656 1.377 . S
C657 C663 1.390 . S
C658 H649 0.930 . S
C658 C656 1.384 . S
C658 C659 1.372 . S
C659 C658 1.372 . S
C659 C660 1.400 . S
C659 C664 1.490 . S
C660 H650 0.930 . S
C660 C659 1.400 . S
C660 C663 1.386 . S
H661 C677 0.930 . S
H662 C678 0.931 . S
C663 H651 0.929 . S
C663 C657 1.390 . S
C663 C660 1.386 . S
C664 C659 1.490 . S
C664 C666 1.395 . S
C664 C667 1.403 . S
H665 C671 0.930 . S
C666 H652 0.930 . S
C666 C664 1.395 . S
C666 C669 1.403 . S
C667 C664 1.403 . S
C667 C668 1.524 . S
C667 C671 1.400 . S
C668 H653 0.960 . S
C668 H654 0.960 . S
C668 H655 0.960 . S
C668 C667 1.524 . S
C669 C666 1.403 . S
C669 C670 1.392 . S
C669 C673 1.495 . S
C670 C669 1.392 . S
C670 C671 1.385 . S
C670 C672 1.478 . S
C671 H665 0.930 . S
C671 C667 1.400 . S
C671 C670 1.385 . S
C672 C670 1.478 . S
C672 C674 1.381 . S
C672 C678 1.383 . S
C673 C669 1.495 . S
C673 H679 0.959 . S
C673 H680 0.961 . S
C673 H681 0.960 . S
C674 C672 1.381 . S
C674 C675 1.394 . S
C674 H682 0.930 . S
C675 C674 1.394 . S
C675 C676 1.383 . S
C675 H683 0.929 . S
C676 C675 1.383 . S
C676 C677 1.377 . S
C677 H661 0.930 . S
C677 C676 1.377 . S
C677 C678 1.379 . S
C678 H662 0.931 . S
C678 C672 1.383 . S
C678 C677 1.379 . S
H679 C673 0.959 . S
H680 C673 0.961 . S
H681 C673 0.960 . S
H682 C674 0.930 . S
H683 C675 0.929 . S
H684 C692 0.929 . S
H685 C694 0.930 . S
H686 C696 0.930 . S
H687 C699 0.929 . S
H688 C702 0.930 . S
H689 C704 0.960 . S
H690 C704 0.960 . S
H691 C704 0.960 . S
C692 H684 0.929 . S
C692 C693 1.377 . S
C692 C694 1.384 . S
C693 C692 1.377 . S
C693 C699 1.390 . S
C694 H685 0.930 . S
C694 C692 1.384 . S
C694 C695 1.372 . S
C695 C694 1.372 . S
C695 C696 1.400 . S
C695 C700 1.490 . S
C696 H686 0.930 . S
C696 C695 1.400 . S
C696 C699 1.386 . S
H697 C713 0.930 . S
H698 C714 0.931 . S
C699 H687 0.929 . S
C699 C693 1.390 . S
C699 C696 1.386 . S
C700 C695 1.490 . S
C700 C702 1.395 . S
C700 C703 1.403 . S
H701 C707 0.930 . S
C702 H688 0.930 . S
C702 C700 1.395 . S
C702 C705 1.403 . S
C703 C700 1.403 . S
C703 C704 1.524 . S
C703 C707 1.400 . S
C704 H689 0.960 . S
C704 H690 0.960 . S
C704 H691 0.960 . S
C704 C703 1.524 . S
C705 C702 1.403 . S
C705 C706 1.392 . S
C705 C709 1.495 . S
C706 C705 1.392 . S
C706 C707 1.385 . S
C706 C708 1.478 . S
C707 H701 0.930 . S
C707 C703 1.400 . S
C707 C706 1.385 . S
C708 C706 1.478 . S
C708 C710 1.381 . S
C708 C714 1.383 . S
C709 C705 1.495 . S
C709 H715 0.959 . S
C709 H716 0.961 . S
C709 H717 0.960 . S
C710 C708 1.381 . S
C710 C711 1.394 . S
C710 H718 0.930 . S
C711 C710 1.394 . S
C711 C712 1.383 . S
C711 H719 0.929 . S
C712 C711 1.383 . S
C712 C713 1.377 . S
C713 H697 0.930 . S
C713 C712 1.377 . S
C713 C714 1.379 . S
C714 H698 0.931 . S
C714 C708 1.383 . S
C714 C713 1.379 . S
H715 C709 0.959 . S
H716 C709 0.961 . S
H717 C709 0.960 . S
H718 C710 0.930 . S
H719 C711 0.929 . S
H720 C728 0.929 . S
H721 C730 0.930 . S
H722 C732 0.930 . S
H723 C735 0.929 . S
H724 C738 0.930 . S
H725 C740 0.960 . S
H726 C740 0.960 . S
H727 C740 0.960 . S
C728 H720 0.929 . S
C728 C729 1.377 . S
C728 C730 1.384 . S
C729 C728 1.377 . S
C729 C735 1.390 . S
C730 H721 0.930 . S
C730 C728 1.384 . S
C730 C731 1.372 . S
C731 C730 1.372 . S
C731 C732 1.400 . S
C731 C736 1.490 . S
C732 H722 0.930 . S
C732 C731 1.400 . S
C732 C735 1.386 . S
H733 C749 0.930 . S
H734 C750 0.931 . S
C735 H723 0.929 . S
C735 C729 1.390 . S
C735 C732 1.386 . S
C736 C731 1.490 . S
C736 C738 1.395 . S
C736 C739 1.403 . S
H737 C743 0.930 . S
C738 H724 0.930 . S
C738 C736 1.395 . S
C738 C741 1.403 . S
C739 C736 1.403 . S
C739 C740 1.524 . S
C739 C743 1.400 . S
C740 H725 0.960 . S
C740 H726 0.960 . S
C740 H727 0.960 . S
C740 C739 1.524 . S
C741 C738 1.403 . S
C741 C742 1.392 . S
C741 C745 1.495 . S
C742 C741 1.392 . S
C742 C743 1.385 . S
C742 C744 1.478 . S
C743 H737 0.930 . S
C743 C739 1.400 . S
C743 C742 1.385 . S
C744 C742 1.478 . S
C744 C746 1.381 . S
C744 C750 1.383 . S
C745 C741 1.495 . S
C745 H751 0.959 . S
C745 H752 0.961 . S
C745 H753 0.960 . S
C746 C744 1.381 . S
C746 C747 1.394 . S
C746 H754 0.930 . S
C747 C746 1.394 . S
C747 C748 1.383 . S
C747 H755 0.929 . S
C748 C747 1.383 . S
C748 C749 1.377 . S
C749 H733 0.930 . S
C749 C748 1.377 . S
C749 C750 1.379 . S
C750 H734 0.931 . S
C750 C744 1.383 . S
C750 C749 1.379 . S
H751 C745 0.959 . S
H752 C745 0.961 . S
H753 C745 0.960 . S
H754 C746 0.930 . S
H755 C747 0.929 . S
H756 C764 0.929 . S
H757 C766 0.930 . S
H758 C768 0.930 . S
H759 C771 0.929 . S
H760 C774 0.930 . S
H761 C776 0.960 . S
H762 C776 0.960 . S
H763 C776 0.960 . S
C764 H756 0.929 . S
C764 C765 1.377 . S
C764 C766 1.384 . S
C765 C764 1.377 . S
C765 C771 1.390 . S
C766 H757 0.930 . S
C766 C764 1.384 . S
C766 C767 1.372 . S
C767 C766 1.372 . S
C767 C768 1.400 . S
C767 C772 1.490 . S
C768 H758 0.930 . S
C768 C767 1.400 . S
C768 C771 1.386 . S
H769 C785 0.930 . S
H770 C786 0.931 . S
C771 H759 0.929 . S
C771 C765 1.390 . S
C771 C768 1.386 . S
C772 C767 1.490 . S
C772 C774 1.395 . S
C772 C775 1.403 . S
H773 C779 0.930 . S
C774 H760 0.930 . S
C774 C772 1.395 . S
C774 C777 1.403 . S
C775 C772 1.403 . S
C775 C776 1.524 . S
C775 C779 1.400 . S
C776 H761 0.960 . S
C776 H762 0.960 . S
C776 H763 0.960 . S
C776 C775 1.524 . S
C777 C774 1.403 . S
C777 C778 1.392 . S
C777 C781 1.495 . S
C778 C777 1.392 . S
C778 C779 1.385 . S
C778 C780 1.478 . S
C779 H773 0.930 . S
C779 C775 1.400 . S
C779 C778 1.385 . S
C780 C778 1.478 . S
C780 C782 1.381 . S
C780 C786 1.383 . S
C781 C777 1.495 . S
C781 H787 0.959 . S
C781 H788 0.961 . S
C781 H789 0.960 . S
C782 C780 1.381 . S
C782 C783 1.394 . S
C782 H790 0.930 . S
C783 C782 1.394 . S
C783 C784 1.383 . S
C783 H791 0.929 . S
C784 C783 1.383 . S
C784 C785 1.377 . S
C785 H769 0.930 . S
C785 C784 1.377 . S
C785 C786 1.379 . S
C786 H770 0.931 . S
C786 C780 1.383 . S
C786 C785 1.379 . S
H787 C781 0.959 . S
H788 C781 0.961 . S
H789 C781 0.960 . S
H790 C782 0.930 . S
H791 C783 0.929 . S
H792 C800 0.929 . S
H793 C802 0.930 . S
H794 C804 0.930 . S
H795 C807 0.929 . S
H796 C810 0.930 . S
H797 C812 0.960 . S
H798 C812 0.960 . S
H799 C812 0.960 . S
C800 H792 0.929 . S
C800 C801 1.377 . S
C800 C802 1.384 . S
C801 C800 1.377 . S
C801 C807 1.390 . S
C802 H793 0.930 . S
C802 C800 1.384 . S
C802 C803 1.372 . S
C803 C802 1.372 . S
C803 C804 1.400 . S
C803 C808 1.490 . S
C804 H794 0.930 . S
C804 C803 1.400 . S
C804 C807 1.386 . S
H805 C821 0.930 . S
H806 C822 0.931 . S
C807 H795 0.929 . S
C807 C801 1.390 . S
C807 C804 1.386 . S
C808 C803 1.490 . S
C808 C810 1.395 . S
C808 C811 1.403 . S
H809 C815 0.930 . S
C810 H796 0.930 . S
C810 C808 1.395 . S
C810 C813 1.403 . S
C811 C808 1.403 . S
C811 C812 1.524 . S
C811 C815 1.400 . S
C812 H797 0.960 . S
C812 H798 0.960 . S
C812 H799 0.960 . S
C812 C811 1.524 . S
C813 C810 1.403 . S
C813 C814 1.392 . S
C813 C817 1.495 . S
C814 C813 1.392 . S
C814 C815 1.385 . S
C814 C816 1.478 . S
C815 H809 0.930 . S
C815 C811 1.400 . S
C815 C814 1.385 . S
C816 C814 1.478 . S
C816 C818 1.381 . S
C816 C822 1.383 . S
C817 C813 1.495 . S
C817 H823 0.959 . S
C817 H824 0.961 . S
C817 H825 0.960 . S
C818 C816 1.381 . S
C818 C819 1.394 . S
C818 H826 0.930 . S
C819 C818 1.394 . S
C819 C820 1.383 . S
C819 H827 0.929 . S
C820 C819 1.383 . S
C820 C821 1.377 . S
C821 H805 0.930 . S
C821 C820 1.377 . S
C821 C822 1.379 . S
C822 H806 0.931 . S
C822 C816 1.383 . S
C822 C821 1.379 . S
H823 C817 0.959 . S
H824 C817 0.961 . S
H825 C817 0.960 . S
H826 C818 0.930 . S
H827 C819 0.929 . S
H828 C836 0.929 . S
H829 C838 0.930 . S
H830 C840 0.930 . S
H831 C843 0.929 . S
H832 C846 0.930 . S
H833 C848 0.960 . S
H834 C848 0.960 . S
H835 C848 0.960 . S
C836 H828 0.929 . S
C836 C837 1.377 . S
C836 C838 1.384 . S
C837 C836 1.377 . S
C837 C843 1.390 . S
C838 H829 0.930 . S
C838 C836 1.384 . S
C838 C839 1.372 . S
C839 C838 1.372 . S
C839 C840 1.400 . S
C839 C844 1.490 . S
C840 H830 0.930 . S
C840 C839 1.400 . S
C840 C843 1.386 . S
H841 C857 0.930 . S
H842 C858 0.931 . S
C843 H831 0.929 . S
C843 C837 1.390 . S
C843 C840 1.386 . S
C844 C839 1.490 . S
C844 C846 1.395 . S
C844 C847 1.403 . S
H845 C851 0.930 . S
C846 H832 0.930 . S
C846 C844 1.395 . S
C846 C849 1.403 . S
C847 C844 1.403 . S
C847 C848 1.524 . S
C847 C851 1.400 . S
C848 H833 0.960 . S
C848 H834 0.960 . S
C848 H835 0.960 . S
C848 C847 1.524 . S
C849 C846 1.403 . S
C849 C850 1.392 . S
C849 C853 1.495 . S
C850 C849 1.392 . S
C850 C851 1.385 . S
C850 C852 1.478 . S
C851 H845 0.930 . S
C851 C847 1.400 . S
C851 C850 1.385 . S
C852 C850 1.478 . S
C852 C854 1.381 . S
C852 C858 1.383 . S
C853 C849 1.495 . S
C853 H859 0.959 . S
C853 H860 0.961 . S
C853 H861 0.960 . S
C854 C852 1.381 . S
C854 C855 1.394 . S
C854 H862 0.930 . S
C855 C854 1.394 . S
C855 C856 1.383 . S
C855 H863 0.929 . S
C856 C855 1.383 . S
C856 C857 1.377 . S
C857 H841 0.930 . S
C857 C856 1.377 . S
C857 C858 1.379 . S
C858 H842 0.931 . S
C858 C852 1.383 . S
C858 C857 1.379 . S
H859 C853 0.959 . S
H860 C853 0.961 . S
H861 C853 0.960 . S
H862 C854 0.930 . S
H863 C855 0.929 . S
H864 C872 0.929 . S
H865 C874 0.930 . S
H866 C876 0.930 . S
H867 C879 0.929 . S
H868 C882 0.930 . S
H869 C884 0.960 . S
H870 C884 0.960 . S
H871 C884 0.960 . S
C872 H864 0.929 . S
C872 C873 1.377 . S
C872 C874 1.384 . S
C873 C872 1.377 . S
C873 C879 1.390 . S
C874 H865 0.930 . S
C874 C872 1.384 . S
C874 C875 1.372 . S
C875 C874 1.372 . S
C875 C876 1.400 . S
C875 C880 1.490 . S
C876 H866 0.930 . S
C876 C875 1.400 . S
C876 C879 1.386 . S
H877 C893 0.930 . S
H878 C894 0.931 . S
C879 H867 0.929 . S
C879 C873 1.390 . S
C879 C876 1.386 . S
C880 C875 1.490 . S
C880 C882 1.395 . S
C880 C883 1.403 . S
H881 C887 0.930 . S
C882 H868 0.930 . S
C882 C880 1.395 . S
C882 C885 1.403 . S
C883 C880 1.403 . S
C883 C884 1.524 . S
C883 C887 1.400 . S
C884 H869 0.960 . S
C884 H870 0.960 . S
C884 H871 0.960 . S
C884 C883 1.524 . S
C885 C882 1.403 . S
C885 C886 1.392 . S
C885 C889 1.495 . S
C886 C885 1.392 . S
C886 C887 1.385 . S
C886 C888 1.478 . S
C887 H881 0.930 . S
C887 C883 1.400 . S
C887 C886 1.385 . S
C888 C886 1.478 . S
C888 C890 1.381 . S
C888 C894 1.383 . S
C889 C885 1.495 . S
C889 H895 0.959 . S
C889 H896 0.961 . S
C889 H897 0.960 . S
C890 C888 1.381 . S
C890 C891 1.394 . S
C890 H898 0.930 . S
C891 C890 1.394 . S
C891 C892 1.383 . S
C891 H899 0.929 . S
C892 C891 1.383 . S
C892 C893 1.377 . S
C893 H877 0.930 . S
C893 C892 1.377 . S
C893 C894 1.379 . S
C894 H878 0.931 . S
C894 C888 1.383 . S
C894 C893 1.379 . S
H895 C889 0.959 . S
H896 C889 0.961 . S
H897 C889 0.960 . S
H898 C890 0.930 . S
H899 C891 0.929 . S
H900 C908 0.929 . S
H901 C910 0.930 . S
H902 C912 0.930 . S
H903 C915 0.929 . S
H904 C918 0.930 . S
H905 C920 0.960 . S
H906 C920 0.960 . S
H907 C920 0.960 . S
C908 H900 0.929 . S
C908 C909 1.377 . S
C908 C910 1.384 . S
C909 C908 1.377 . S
C909 C915 1.390 . S
C910 H901 0.930 . S
C910 C908 1.384 . S
C910 C911 1.372 . S
C911 C910 1.372 . S
C911 C912 1.400 . S
C911 C916 1.490 . S
C912 H902 0.930 . S
C912 C911 1.400 . S
C912 C915 1.386 . S
H913 C929 0.930 . S
H914 C930 0.931 . S
C915 H903 0.929 . S
C915 C909 1.390 . S
C915 C912 1.386 . S
C916 C911 1.490 . S
C916 C918 1.395 . S
C916 C919 1.403 . S
H917 C923 0.930 . S
C918 H904 0.930 . S
C918 C916 1.395 . S
C918 C921 1.403 . S
C919 C916 1.403 . S
C919 C920 1.524 . S
C919 C923 1.400 . S
C920 H905 0.960 . S
C920 H906 0.960 . S
C920 H907 0.960 . S
C920 C919 1.524 . S
C921 C918 1.403 . S
C921 C922 1.392 . S
C921 C925 1.495 . S
C922 C921 1.392 . S
C922 C923 1.385 . S
C922 C924 1.478 . S
C923 H917 0.930 . S
C923 C919 1.400 . S
C923 C922 1.385 . S
C924 C922 1.478 . S
C924 C926 1.381 . S
C924 C930 1.383 . S
C925 C921 1.495 . S
C925 H931 0.959 . S
C925 H932 0.961 . S
C925 H933 0.960 . S
C926 C924 1.381 . S
C926 C927 1.394 . S
C926 H934 0.930 . S
C927 C926 1.394 . S
C927 C928 1.383 . S
C927 H935 0.929 . S
C928 C927 1.383 . S
C928 C929 1.377 . S
C929 H913 0.930 . S
C929 C928 1.377 . S
C929 C930 1.379 . S
C930 H914 0.931 . S
C930 C924 1.383 . S
C930 C929 1.379 . S
H931 C925 0.959 . S
H932 C925 0.961 . S
H933 C925 0.960 . S
H934 C926 0.930 . S
H935 C927 0.929 . S
H936 C944 0.929 . S
H937 C946 0.930 . S
H938 C948 0.930 . S
H939 C951 0.929 . S
H940 C954 0.930 . S
H941 C956 0.960 . S
H942 C956 0.960 . S
H943 C956 0.960 . S
C944 H936 0.929 . S
C944 C945 1.377 . S
C944 C946 1.384 . S
C945 C944 1.377 . S
C945 C951 1.390 . S
C946 H937 0.930 . S
C946 C944 1.384 . S
C946 C947 1.372 . S
C947 C946 1.372 . S
C947 C948 1.400 . S
C947 C952 1.490 . S
C948 H938 0.930 . S
C948 C947 1.400 . S
C948 C951 1.386 . S
H949 C965 0.930 . S
H950 C966 0.931 . S
C951 H939 0.929 . S
C951 C945 1.390 . S
C951 C948 1.386 . S
C952 C947 1.490 . S
C952 C954 1.395 . S
C952 C955 1.403 . S
H953 C959 0.930 . S
C954 H940 0.930 . S
C954 C952 1.395 . S
C954 C957 1.403 . S
C955 C952 1.403 . S
C955 C956 1.524 . S
C955 C959 1.400 . S
C956 H941 0.960 . S
C956 H942 0.960 . S
C956 H943 0.960 . S
C956 C955 1.524 . S
C957 C954 1.403 . S
C957 C958 1.392 . S
C957 C961 1.495 . S
C958 C957 1.392 . S
C958 C959 1.385 . S
C958 C960 1.478 . S
C959 H953 0.930 . S
C959 C955 1.400 . S
C959 C958 1.385 . S
C960 C958 1.478 . S
C960 C962 1.381 . S
C960 C966 1.383 . S
C961 C957 1.495 . S
C961 H967 0.959 . S
C961 H968 0.961 . S
C961 H969 0.960 . S
C962 C960 1.381 . S
C962 C963 1.394 . S
C962 H970 0.930 . S
C963 C962 1.394 . S
C963 C964 1.383 . S
C963 H971 0.929 . S
C964 C963 1.383 . S
C964 C965 1.377 . S
C965 H949 0.930 . S
C965 C964 1.377 . S
C965 C966 1.379 . S
C966 H950 0.931 . S
C966 C960 1.383 . S
C966 C965 1.379 . S
H967 C961 0.959 . S
H968 C961 0.961 . S
H969 C961 0.960 . S
H970 C962 0.930 . S
H971 C963 0.929 . S
H972 C980 0.929 . S
H973 C982 0.930 . S
H974 C984 0.930 . S
H975 C987 0.929 . S
H976 C990 0.930 . S
H977 C992 0.960 . S
H978 C992 0.960 . S
H979 C992 0.960 . S
C980 H972 0.929 . S
C980 C981 1.377 . S
C980 C982 1.384 . S
C981 C980 1.377 . S
C981 C987 1.390 . S
C982 H973 0.930 . S
C982 C980 1.384 . S
C982 C983 1.372 . S
C983 C982 1.372 . S
C983 C984 1.400 . S
C983 C988 1.490 . S
C984 H974 0.930 . S
C984 C983 1.400 . S
C984 C987 1.386 . S
H985 C1001 0.930 . S
H986 C1002 0.931 . S
C987 H975 0.929 . S
C987 C981 1.390 . S
C987 C984 1.386 . S
C988 C983 1.490 . S
C988 C990 1.395 . S
C988 C991 1.403 . S
H989 C995 0.930 . S
C990 H976 0.930 . S
C990 C988 1.395 . S
C990 C993 1.403 . S
C991 C988 1.403 . S
C991 C992 1.524 . S
C991 C995 1.400 . S
C992 H977 0.960 . S
C992 H978 0.960 . S
C992 H979 0.960 . S
C992 C991 1.524 . S
C993 C990 1.403 . S
C993 C994 1.392 . S
C993 C997 1.495 . S
C994 C993 1.392 . S
C994 C995 1.385 . S
C994 C996 1.478 . S
C995 H989 0.930 . S
C995 C991 1.400 . S
C995 C994 1.385 . S
C996 C994 1.478 . S
C996 C998 1.381 . S
C996 C1002 1.383 . S
C997 C993 1.495 . S
C997 H1003 0.959 . S
C997 H1004 0.961 . S
C997 H1005 0.960 . S
C998 C996 1.381 . S
C998 C999 1.394 . S
C998 H1006 0.930 . S
C999 C998 1.394 . S
C999 C1000 1.383 . S
C999 H1007 0.929 . S
C1000 C999 1.383 . S
C1000 C1001 1.377 . S
C1001 H985 0.930 . S
C1001 C1000 1.377 . S
C1001 C1002 1.379 . S
C1002 H986 0.931 . S
C1002 C996 1.383 . S
C1002 C1001 1.379 . S
H1003 C997 0.959 . S
H1004 C997 0.961 . S
H1005 C997 0.960 . S
H1006 C998 0.930 . S
H1007 C999 0.929 . S
H1008 C1016 0.929 . S
H1009 C1018 0.930 . S
H1010 C1020 0.930 . S
H1011 C1023 0.929 . S
H1012 C1026 0.930 . S
H1013 C1028 0.960 . S
H1014 C1028 0.960 . S
H1015 C1028 0.960 . S
C1016 H1008 0.929 . S
C1016 C1017 1.377 . S
C1016 C1018 1.384 . S
C1017 C1016 1.377 . S
C1017 C1023 1.390 . S
C1018 H1009 0.930 . S
C1018 C1016 1.384 . S
C1018 C1019 1.372 . S
C1019 C1018 1.372 . S
C1019 C1020 1.400 . S
C1019 C1024 1.490 . S
C1020 H1010 0.930 . S
C1020 C1019 1.400 . S
C1020 C1023 1.386 . S
H1021 C1037 0.930 . S
H1022 C1038 0.931 . S
C1023 H1011 0.929 . S
C1023 C1017 1.390 . S
C1023 C1020 1.386 . S
C1024 C1019 1.490 . S
C1024 C1026 1.395 . S
C1024 C1027 1.403 . S
H1025 C1031 0.930 . S
C1026 H1012 0.930 . S
C1026 C1024 1.395 . S
C1026 C1029 1.403 . S
C1027 C1024 1.403 . S
C1027 C1028 1.524 . S
C1027 C1031 1.400 . S
C1028 H1013 0.960 . S
C1028 H1014 0.960 . S
C1028 H1015 0.960 . S
C1028 C1027 1.524 . S
C1029 C1026 1.403 . S
C1029 C1030 1.392 . S
C1029 C1033 1.495 . S
C1030 C1029 1.392 . S
C1030 C1031 1.385 . S
C1030 C1032 1.478 . S
C1031 H1025 0.930 . S
C1031 C1027 1.400 . S
C1031 C1030 1.385 . S
C1032 C1030 1.478 . S
C1032 C1034 1.381 . S
C1032 C1038 1.383 . S
C1033 C1029 1.495 . S
C1033 H1039 0.959 . S
C1033 H1040 0.961 . S
C1033 H1041 0.960 . S
C1034 C1032 1.381 . S
C1034 C1035 1.394 . S
C1034 H1042 0.930 . S
C1035 C1034 1.394 . S
C1035 C1036 1.383 . S
C1035 H1043 0.929 . S
C1036 C1035 1.383 . S
C1036 C1037 1.377 . S
C1037 H1021 0.930 . S
C1037 C1036 1.377 . S
C1037 C1038 1.379 . S
C1038 H1022 0.931 . S
C1038 C1032 1.383 . S
C1038 C1037 1.379 . S
H1039 C1033 0.959 . S
H1040 C1033 0.961 . S
H1041 C1033 0.960 . S
H1042 C1034 0.930 . S
H1043 C1035 0.929 . S
H1044 C1052 0.929 . S
H1045 C1054 0.930 . S
H1046 C1056 0.930 . S
H1047 C1059 0.929 . S
H1048 C1062 0.930 . S
H1049 C1064 0.960 . S
H1050 C1064 0.960 . S
H1051 C1064 0.960 . S
C1052 H1044 0.929 . S
C1052 C1053 1.377 . S
C1052 C1054 1.384 . S
C1053 C1052 1.377 . S
C1053 C1059 1.390 . S
C1054 H1045 0.930 . S
C1054 C1052 1.384 . S
C1054 C1055 1.372 . S
C1055 C1054 1.372 . S
C1055 C1056 1.400 . S
C1055 C1060 1.490 . S
C1056 H1046 0.930 . S
C1056 C1055 1.400 . S
C1056 C1059 1.386 . S
H1057 C1073 0.930 . S
H1058 C1074 0.931 . S
C1059 H1047 0.929 . S
C1059 C1053 1.390 . S
C1059 C1056 1.386 . S
C1060 C1055 1.490 . S
C1060 C1062 1.395 . S
C1060 C1063 1.403 . S
H1061 C1067 0.930 . S
C1062 H1048 0.930 . S
C1062 C1060 1.395 . S
C1062 C1065 1.403 . S
C1063 C1060 1.403 . S
C1063 C1064 1.524 . S
C1063 C1067 1.400 . S
C1064 H1049 0.960 . S
C1064 H1050 0.960 . S
C1064 H1051 0.960 . S
C1064 C1063 1.524 . S
C1065 C1062 1.403 . S
C1065 C1066 1.392 . S
C1065 C1069 1.495 . S
C1066 C1065 1.392 . S
C1066 C1067 1.385 . S
C1066 C1068 1.478 . S
C1067 H1061 0.930 . S
C1067 C1063 1.400 . S
C1067 C1066 1.385 . S
C1068 C1066 1.478 . S
C1068 C1070 1.381 . S
C1068 C1074 1.383 . S
C1069 C1065 1.495 . S
C1069 H1075 0.959 . S
C1069 H1076 0.961 . S
C1069 H1077 0.960 . S
C1070 C1068 1.381 . S
C1070 C1071 1.394 . S
C1070 H1078 0.930 . S
C1071 C1070 1.394 . S
C1071 C1072 1.383 . S
C1071 H1079 0.929 . S
C1072 C1071 1.383 . S
C1072 C1073 1.377 . S
C1073 H1057 0.930 . S
C1073 C1072 1.377 . S
C1073 C1074 1.379 . S
C1074 H1058 0.931 . S
C1074 C1068 1.383 . S
C1074 C1073 1.379 . S
H1075 C1069 0.959 . S
H1076 C1069 0.961 . S
H1077 C1069 0.960 . S
H1078 C1070 0.930 . S
H1079 C1071 0.929 . S
H1080 C1088 0.929 . S
H1081 C1090 0.930 . S
H1082 C1092 0.930 . S
H1083 C1095 0.929 . S
H1084 C1098 0.930 . S
H1085 C1100 0.960 . S
H1086 C1100 0.960 . S
H1087 C1100 0.960 . S
C1088 H1080 0.929 . S
C1088 C1089 1.377 . S
C1088 C1090 1.384 . S
C1089 C1088 1.377 . S
C1089 C1095 1.390 . S
C1090 H1081 0.930 . S
C1090 C1088 1.384 . S
C1090 C1091 1.372 . S
C1091 C1090 1.372 . S
C1091 C1092 1.400 . S
C1091 C1096 1.490 . S
C1092 H1082 0.930 . S
C1092 C1091 1.400 . S
C1092 C1095 1.386 . S
H1093 C1109 0.930 . S
H1094 C1110 0.931 . S
C1095 H1083 0.929 . S
C1095 C1089 1.390 . S
C1095 C1092 1.386 . S
C1096 C1091 1.490 . S
C1096 C1098 1.395 . S
C1096 C1099 1.403 . S
H1097 C1103 0.930 . S
C1098 H1084 0.930 . S
C1098 C1096 1.395 . S
C1098 C1101 1.403 . S
C1099 C1096 1.403 . S
C1099 C1100 1.524 . S
C1099 C1103 1.400 . S
C1100 H1085 0.960 . S
C1100 H1086 0.960 . S
C1100 H1087 0.960 . S
C1100 C1099 1.524 . S
C1101 C1098 1.403 . S
C1101 C1102 1.392 . S
C1101 C1105 1.495 . S
C1102 C1101 1.392 . S
C1102 C1103 1.385 . S
C1102 C1104 1.478 . S
C1103 H1097 0.930 . S
C1103 C1099 1.400 . S
C1103 C1102 1.385 . S
C1104 C1102 1.478 . S
C1104 C1106 1.381 . S
C1104 C1110 1.383 . S
C1105 C1101 1.495 . S
C1105 H1111 0.959 . S
C1105 H1112 0.961 . S
C1105 H1113 0.960 . S
C1106 C1104 1.381 . S
C1106 C1107 1.394 . S
C1106 H1114 0.930 . S
C1107 C1106 1.394 . S
C1107 C1108 1.383 . S
C1107 H1115 0.929 . S
C1108 C1107 1.383 . S
C1108 C1109 1.377 . S
C1109 H1093 0.930 . S
C1109 C1108 1.377 . S
C1109 C1110 1.379 . S
C1110 H1094 0.931 . S
C1110 C1104 1.383 . S
C1110 C1109 1.379 . S
H1111 C1105 0.959 . S
H1112 C1105 0.961 . S
H1113 C1105 0.960 . S
H1114 C1106 0.930 . S
H1115 C1107 0.929 . S
H1116 C1124 0.929 . S
H1117 C1126 0.930 . S
H1118 C1128 0.930 . S
H1119 C1131 0.929 . S
H1120 C1134 0.930 . S
H1121 C1136 0.960 . S
H1122 C1136 0.960 . S
H1123 C1136 0.960 . S
C1124 H1116 0.929 . S
C1124 C1125 1.377 . S
C1124 C1126 1.384 . S
C1125 C1124 1.377 . S
C1125 C1131 1.390 . S
C1126 H1117 0.930 . S
C1126 C1124 1.384 . S
C1126 C1127 1.372 . S
C1127 C1126 1.372 . S
C1127 C1128 1.400 . S
C1127 C1132 1.490 . S
C1128 H1118 0.930 . S
C1128 C1127 1.400 . S
C1128 C1131 1.386 . S
H1129 C1145 0.930 . S
H1130 C1146 0.931 . S
C1131 H1119 0.929 . S
C1131 C1125 1.390 . S
C1131 C1128 1.386 . S
C1132 C1127 1.490 . S
C1132 C1134 1.395 . S
C1132 C1135 1.403 . S
H1133 C1139 0.930 . S
C1134 H1120 0.930 . S
C1134 C1132 1.395 . S
C1134 C1137 1.403 . S
C1135 C1132 1.403 . S
C1135 C1136 1.524 . S
C1135 C1139 1.400 . S
C1136 H1121 0.960 . S
C1136 H1122 0.960 . S
C1136 H1123 0.960 . S
C1136 C1135 1.524 . S
C1137 C1134 1.403 . S
C1137 C1138 1.392 . S
C1137 C1141 1.495 . S
C1138 C1137 1.392 . S
C1138 C1139 1.385 . S
C1138 C1140 1.478 . S
C1139 H1133 0.930 . S
C1139 C1135 1.400 . S
C1139 C1138 1.385 . S
C1140 C1138 1.478 . S
C1140 C1142 1.381 . S
C1140 C1146 1.383 . S
C1141 C1137 1.495 . S
C1141 H1147 0.959 . S
C1141 H1148 0.961 . S
C1141 H1149 0.960 . S
C1142 C1140 1.381 . S
C1142 C1143 1.394 . S
C1142 H1150 0.930 . S
C1143 C1142 1.394 . S
C1143 C1144 1.383 . S
C1143 H1151 0.929 . S
C1144 C1143 1.383 . S
C1144 C1145 1.377 . S
C1145 H1129 0.930 . S
C1145 C1144 1.377 . S
C1145 C1146 1.379 . S
C1146 H1130 0.931 . S
C1146 C1140 1.383 . S
C1146 C1145 1.379 . S
H1147 C1141 0.959 . S
H1148 C1141 0.961 . S
H1149 C1141 0.960 . S
H1150 C1142 0.930 . S
H1151 C1143 0.929 . S
H1152 C1160 0.929 1_565 S
H1153 C1162 0.930 . S
H1154 C1164 0.930 . S
H1155 C1167 0.929 . S
H1156 C1170 0.930 . S
H1157 C1172 0.960 . S
H1158 C1172 0.960 . S
H1159 C1172 0.960 . S
C1160 H1152 0.929 1_545 S
C1160 C1161 1.377 . S
C1160 C1162 1.384 . S
C1161 C1160 1.377 . S
C1161 C1167 1.390 . S
C1162 H1153 0.930 . S
C1162 C1160 1.384 . S
C1162 C1163 1.372 . S
C1163 C1162 1.372 . S
C1163 C1164 1.400 . S
C1163 C1168 1.490 . S
C1164 H1154 0.930 . S
C1164 C1163 1.400 . S
C1164 C1167 1.386 . S
H1165 C1181 0.930 . S
H1166 C1182 0.931 . S
C1167 H1155 0.929 . S
C1167 C1161 1.390 . S
C1167 C1164 1.386 . S
C1168 C1163 1.490 . S
C1168 C1170 1.395 . S
C1168 C1171 1.403 . S
H1169 C1175 0.930 . S
C1170 H1156 0.930 . S
C1170 C1168 1.395 . S
C1170 C1173 1.403 . S
C1171 C1168 1.403 . S
C1171 C1172 1.524 . S
C1171 C1175 1.400 . S
C1172 H1157 0.960 . S
C1172 H1158 0.960 . S
C1172 H1159 0.960 . S
C1172 C1171 1.524 . S
C1173 C1170 1.403 . S
C1173 C1174 1.392 . S
C1173 C1177 1.495 . S
C1174 C1173 1.392 . S
C1174 C1175 1.385 . S
C1174 C1176 1.478 . S
C1175 H1169 0.930 . S
C1175 C1171 1.400 . S
C1175 C1174 1.385 . S
C1176 C1174 1.478 . S
C1176 C1178 1.381 . S
C1176 C1182 1.383 . S
C1177 C1173 1.495 . S
C1177 H1183 0.959 . S
C1177 H1184 0.961 . S
C1177 H1185 0.960 . S
C1178 C1176 1.381 . S
C1178 C1179 1.394 . S
C1178 H1186 0.930 . S
C1179 C1178 1.394 . S
C1179 C1180 1.383 . S
C1179 H1187 0.929 . S
C1180 C1179 1.383 . S
C1180 C1181 1.377 . S
C1181 H1165 0.930 . S
C1181 C1180 1.377 . S
C1181 C1182 1.379 . S
C1182 H1166 0.931 . S
C1182 C1176 1.383 . S
C1182 C1181 1.379 . S
H1183 C1177 0.959 . S
H1184 C1177 0.961 . S
H1185 C1177 0.960 . S
H1186 C1178 0.930 . S
H1187 C1179 0.929 . S
H1188 C1196 0.929 . S
H1189 C1198 0.930 . S
H1190 C1200 0.930 . S
H1191 C1203 0.929 . S
H1192 C1206 0.930 . S
H1193 C1208 0.960 . S
H1194 C1208 0.960 . S
H1195 C1208 0.960 . S
C1196 H1188 0.929 . S
C1196 C1197 1.377 . S
C1196 C1198 1.384 . S
C1197 C1196 1.377 . S
C1197 C1203 1.390 . S
C1198 H1189 0.930 . S
C1198 C1196 1.384 . S
C1198 C1199 1.372 . S
C1199 C1198 1.372 . S
C1199 C1200 1.400 . S
C1199 C1204 1.490 . S
C1200 H1190 0.930 . S
C1200 C1199 1.400 . S
C1200 C1203 1.386 . S
H1201 C1217 0.930 . S
H1202 C1218 0.931 . S
C1203 H1191 0.929 . S
C1203 C1197 1.390 . S
C1203 C1200 1.386 . S
C1204 C1199 1.490 . S
C1204 C1206 1.395 . S
C1204 C1207 1.403 . S
H1205 C1211 0.930 . S
C1206 H1192 0.930 . S
C1206 C1204 1.395 . S
C1206 C1209 1.403 . S
C1207 C1204 1.403 . S
C1207 C1208 1.524 . S
C1207 C1211 1.400 . S
C1208 H1193 0.960 . S
C1208 H1194 0.960 . S
C1208 H1195 0.960 . S
C1208 C1207 1.524 . S
C1209 C1206 1.403 . S
C1209 C1210 1.392 . S
C1209 C1213 1.495 . S
C1210 C1209 1.392 . S
C1210 C1211 1.385 . S
C1210 C1212 1.478 . S
C1211 H1205 0.930 . S
C1211 C1207 1.400 . S
C1211 C1210 1.385 . S
C1212 C1210 1.478 . S
C1212 C1214 1.381 . S
C1212 C1218 1.383 . S
C1213 C1209 1.495 . S
C1213 H1219 0.959 . S
C1213 H1220 0.961 . S
C1213 H1221 0.960 . S
C1214 C1212 1.381 . S
C1214 C1215 1.394 . S
C1214 H1222 0.930 . S
C1215 C1214 1.394 . S
C1215 C1216 1.383 . S
C1215 H1223 0.929 . S
C1216 C1215 1.383 . S
C1216 C1217 1.377 . S
C1217 H1201 0.930 . S
C1217 C1216 1.377 . S
C1217 C1218 1.379 . S
C1218 H1202 0.931 . S
C1218 C1212 1.383 . S
C1218 C1217 1.379 . S
H1219 C1213 0.959 . S
H1220 C1213 0.961 . S
H1221 C1213 0.960 . S
H1222 C1214 0.930 . S
H1223 C1215 0.929 . S
H1224 C1232 0.929 . S
H1225 C1234 0.930 . S
H1226 C1236 0.930 . S
H1227 C1239 0.929 . S
H1228 C1242 0.930 . S
H1229 C1244 0.960 . S
H1230 C1244 0.960 . S
H1231 C1244 0.960 . S
C1232 H1224 0.929 . S
C1232 C1233 1.377 . S
C1232 C1234 1.384 . S
C1233 C1232 1.377 . S
C1233 C1239 1.390 . S
C1234 H1225 0.930 . S
C1234 C1232 1.384 . S
C1234 C1235 1.372 . S
C1235 C1234 1.372 . S
C1235 C1236 1.400 . S
C1235 C1240 1.490 . S
C1236 H1226 0.930 . S
C1236 C1235 1.400 . S
C1236 C1239 1.386 . S
H1237 C1253 0.930 . S
H1238 C1254 0.931 . S
C1239 H1227 0.929 . S
C1239 C1233 1.390 . S
C1239 C1236 1.386 . S
C1240 C1235 1.490 . S
C1240 C1242 1.395 . S
C1240 C1243 1.403 . S
H1241 C1247 0.930 . S
C1242 H1228 0.930 . S
C1242 C1240 1.395 . S
C1242 C1245 1.403 . S
C1243 C1240 1.403 . S
C1243 C1244 1.524 . S
C1243 C1247 1.400 . S
C1244 H1229 0.960 . S
C1244 H1230 0.960 . S
C1244 H1231 0.960 . S
C1244 C1243 1.524 . S
C1245 C1242 1.403 . S
C1245 C1246 1.392 . S
C1245 C1249 1.495 . S
C1246 C1245 1.392 . S
C1246 C1247 1.385 . S
C1246 C1248 1.478 . S
C1247 H1241 0.930 . S
C1247 C1243 1.400 . S
C1247 C1246 1.385 . S
C1248 C1246 1.478 . S
C1248 C1250 1.381 . S
C1248 C1254 1.383 . S
C1249 C1245 1.495 . S
C1249 H1255 0.959 . S
C1249 H1256 0.961 . S
C1249 H1257 0.960 . S
C1250 C1248 1.381 . S
C1250 C1251 1.394 . S
C1250 H1258 0.930 . S
C1251 C1250 1.394 . S
C1251 C1252 1.383 . S
C1251 H1259 0.929 . S
C1252 C1251 1.383 . S
C1252 C1253 1.377 . S
C1253 H1237 0.930 . S
C1253 C1252 1.377 . S
C1253 C1254 1.379 . S
C1254 H1238 0.931 . S
C1254 C1248 1.383 . S
C1254 C1253 1.379 . S
H1255 C1249 0.959 . S
H1256 C1249 0.961 . S
H1257 C1249 0.960 . S
H1258 C1250 0.930 . S
H1259 C1251 0.929 . S
H1260 C1268 0.929 . S
H1261 C1270 0.930 . S
H1262 C1272 0.930 . S
H1263 C1275 0.929 . S
H1264 C1278 0.930 . S
H1265 C1280 0.960 . S
H1266 C1280 0.960 . S
H1267 C1280 0.960 . S
C1268 H1260 0.929 . S
C1268 C1269 1.377 . S
C1268 C1270 1.384 . S
C1269 C1268 1.377 . S
C1269 C1275 1.390 . S
C1270 H1261 0.930 . S
C1270 C1268 1.384 . S
C1270 C1271 1.372 . S
C1271 C1270 1.372 . S
C1271 C1272 1.400 . S
C1271 C1276 1.490 . S
C1272 H1262 0.930 . S
C1272 C1271 1.400 . S
C1272 C1275 1.386 . S
H1273 C1289 0.930 . S
H1274 C1290 0.931 . S
C1275 H1263 0.929 . S
C1275 C1269 1.390 . S
C1275 C1272 1.386 . S
C1276 C1271 1.490 . S
C1276 C1278 1.395 . S
C1276 C1279 1.403 . S
H1277 C1283 0.930 . S
C1278 H1264 0.930 . S
C1278 C1276 1.395 . S
C1278 C1281 1.403 . S
C1279 C1276 1.403 . S
C1279 C1280 1.524 . S
C1279 C1283 1.400 . S
C1280 H1265 0.960 . S
C1280 H1266 0.960 . S
C1280 H1267 0.960 . S
C1280 C1279 1.524 . S
C1281 C1278 1.403 . S
C1281 C1282 1.392 . S
C1281 C1285 1.495 . S
C1282 C1281 1.392 . S
C1282 C1283 1.385 . S
C1282 C1284 1.478 . S
C1283 H1277 0.930 . S
C1283 C1279 1.400 . S
C1283 C1282 1.385 . S
C1284 C1282 1.478 . S
C1284 C1286 1.381 . S
C1284 C1290 1.383 . S
C1285 C1281 1.495 . S
C1285 H1291 0.959 . S
C1285 H1292 0.961 . S
C1285 H1293 0.960 . S
C1286 C1284 1.381 . S
C1286 C1287 1.394 . S
C1286 H1294 0.930 . S
C1287 C1286 1.394 . S
C1287 C1288 1.383 . S
C1287 H1295 0.929 . S
C1288 C1287 1.383 . S
C1288 C1289 1.377 . S
C1289 H1273 0.930 . S
C1289 C1288 1.377 . S
C1289 C1290 1.379 . S
C1290 H1274 0.931 . S
C1290 C1284 1.383 . S
C1290 C1289 1.379 . S
H1291 C1285 0.959 . S
H1292 C1285 0.961 . S
H1293 C1285 0.960 . S
H1294 C1286 0.930 . S
H1295 C1287 0.929 . S
H1296 C1304 0.929 1_545 S
H1297 C1306 0.930 . S
H1298 C1308 0.930 . S
H1299 C1311 0.929 . S
H1300 C1314 0.930 . S
H1301 C1316 0.960 . S
H1302 C1316 0.960 . S
H1303 C1316 0.960 . S
C1304 H1296 0.929 1_565 S
C1304 C1305 1.377 . S
C1304 C1306 1.384 . S
C1305 C1304 1.377 . S
C1305 C1311 1.390 . S
C1306 H1297 0.930 . S
C1306 C1304 1.384 . S
C1306 C1307 1.372 . S
C1307 C1306 1.372 . S
C1307 C1308 1.400 . S
C1307 C1312 1.490 . S
C1308 H1298 0.930 . S
C1308 C1307 1.400 . S
C1308 C1311 1.386 . S
H1309 C1325 0.930 . S
H1310 C1326 0.931 . S
C1311 H1299 0.929 . S
C1311 C1305 1.390 . S
C1311 C1308 1.386 . S
C1312 C1307 1.490 . S
C1312 C1314 1.395 . S
C1312 C1315 1.403 . S
H1313 C1319 0.930 . S
C1314 H1300 0.930 . S
C1314 C1312 1.395 . S
C1314 C1317 1.403 . S
C1315 C1312 1.403 . S
C1315 C1316 1.524 . S
C1315 C1319 1.400 . S
C1316 H1301 0.960 . S
C1316 H1302 0.960 . S
C1316 H1303 0.960 . S
C1316 C1315 1.524 . S
C1317 C1314 1.403 . S
C1317 C1318 1.392 . S
C1317 C1321 1.495 . S
C1318 C1317 1.392 . S
C1318 C1319 1.385 . S
C1318 C1320 1.478 . S
C1319 H1313 0.930 . S
C1319 C1315 1.400 . S
C1319 C1318 1.385 . S
C1320 C1318 1.478 . S
C1320 C1322 1.381 . S
C1320 C1326 1.383 . S
C1321 C1317 1.495 . S
C1321 H1327 0.959 . S
C1321 H1328 0.961 . S
C1321 H1329 0.960 . S
C1322 C1320 1.381 . S
C1322 C1323 1.394 . S
C1322 H1330 0.930 . S
C1323 C1322 1.394 . S
C1323 C1324 1.383 . S
C1323 H1331 0.929 . S
C1324 C1323 1.383 . S
C1324 C1325 1.377 . S
C1325 H1309 0.930 . S
C1325 C1324 1.377 . S
C1325 C1326 1.379 . S
C1326 H1310 0.931 . S
C1326 C1320 1.383 . S
C1326 C1325 1.379 . S
H1327 C1321 0.959 . S
H1328 C1321 0.961 . S
H1329 C1321 0.960 . S
H1330 C1322 0.930 . S
H1331 C1323 0.929 . S
H1332 C1340 0.929 . S
H1333 C1342 0.930 . S
H1334 C1344 0.930 . S
H1335 C1347 0.929 . S
H1336 C1350 0.930 . S
H1337 C1352 0.960 . S
H1338 C1352 0.960 . S
H1339 C1352 0.960 . S
C1340 H1332 0.929 . S
C1340 C1341 1.377 . S
C1340 C1342 1.384 . S
C1341 C1340 1.377 . S
C1341 C1347 1.390 . S
C1342 H1333 0.930 . S
C1342 C1340 1.384 . S
C1342 C1343 1.372 . S
C1343 C1342 1.372 . S
C1343 C1344 1.400 . S
C1343 C1348 1.490 . S
C1344 H1334 0.930 . S
C1344 C1343 1.400 . S
C1344 C1347 1.386 . S
H1345 C1361 0.937 . S
H1346 C1362 0.931 . S
C1347 H1335 0.929 . S
C1347 C1341 1.390 . S
C1347 C1344 1.386 . S
C1348 C1343 1.490 . S
C1348 C1350 1.395 . S
C1348 C1351 1.403 . S
H1349 C1355 0.930 . S
C1350 H1336 0.930 . S
C1350 C1348 1.395 . S
C1350 C1353 1.403 . S
C1351 C1348 1.403 . S
C1351 C1352 1.524 . S
C1351 C1355 1.400 . S
C1352 H1337 0.960 . S
C1352 H1338 0.960 . S
C1352 H1339 0.960 . S
C1352 C1351 1.524 . S
C1353 C1350 1.403 . S
C1353 C1354 1.392 . S
C1353 C1357 1.495 . S
C1354 C1353 1.392 . S
C1354 C1355 1.385 . S
C1354 C1356 1.478 . S
C1355 H1349 0.930 . S
C1355 C1351 1.400 . S
C1355 C1354 1.385 . S
C1356 C1354 1.478 . S
C1356 C1358 1.381 . S
C1356 C1362 1.383 . S
C1357 C1353 1.495 . S
C1357 H1363 0.959 . S
C1357 H1364 0.961 . S
C1357 H1365 0.960 . S
C1358 C1356 1.381 . S
C1358 C1359 1.394 . S
C1358 H1366 0.930 . S
C1359 C1358 1.394 . S
C1359 C1360 1.383 . S
C1359 H1367 0.929 . S
C1360 C1359 1.383 . S
C1360 C1361 1.377 . S
C1361 H1345 0.937 . S
C1361 C1360 1.377 . S
C1361 C1362 1.379 . S
C1362 H1346 0.931 . S
C1362 C1356 1.383 . S
C1362 C1361 1.379 . S
H1363 C1357 0.959 . S
H1364 C1357 0.961 . S
H1365 C1357 0.960 . S
H1366 C1358 0.930 . S
H1367 C1359 0.929 . S
H1368 C1376 0.929 . S
H1369 C1378 0.930 . S
H1370 C1380 0.930 . S
H1371 C1383 0.929 . S
H1372 C1386 0.930 . S
H1373 C1388 0.960 . S
H1374 C1388 0.960 . S
H1375 C1388 0.960 . S
C1376 H1368 0.929 . S
C1376 C1377 1.377 . S
C1376 C1378 1.384 . S
C1377 C1376 1.377 . S
C1377 C1383 1.390 . S
C1378 H1369 0.930 . S
C1378 C1376 1.384 . S
C1378 C1379 1.372 . S
C1379 C1378 1.372 . S
C1379 C1380 1.400 . S
C1379 C1384 1.490 . S
C1380 H1370 0.930 . S
C1380 C1379 1.400 . S
C1380 C1383 1.386 . S
H1381 C1397 0.883 1_565 S
H1382 C1398 0.931 . S
C1383 H1371 0.929 . S
C1383 C1377 1.390 . S
C1383 C1380 1.386 . S
C1384 C1379 1.490 . S
C1384 C1386 1.395 . S
C1384 C1387 1.403 . S
H1385 C1391 0.930 . S
C1386 H1372 0.930 . S
C1386 C1384 1.395 . S
C1386 C1389 1.403 . S
C1387 C1384 1.403 . S
C1387 C1388 1.524 . S
C1387 C1391 1.400 . S
C1388 H1373 0.960 . S
C1388 H1374 0.960 . S
C1388 H1375 0.960 . S
C1388 C1387 1.524 . S
C1389 C1386 1.403 . S
C1389 C1390 1.392 . S
C1389 C1393 1.495 . S
C1390 C1389 1.392 . S
C1390 C1391 1.385 . S
C1390 C1392 1.478 . S
C1391 H1385 0.930 . S
C1391 C1387 1.400 . S
C1391 C1390 1.385 . S
C1392 C1390 1.478 . S
C1392 C1394 1.381 . S
C1392 C1398 1.383 . S
C1393 C1389 1.495 . S
C1393 H1399 0.959 . S
C1393 H1400 0.961 . S
C1393 H1401 0.960 . S
C1394 C1392 1.381 . S
C1394 C1395 1.394 . S
C1394 H1402 0.930 . S
C1395 C1394 1.394 . S
C1395 C1396 1.383 . S
C1395 H1403 0.929 . S
C1396 C1395 1.383 . S
C1396 C1397 1.377 . S
C1397 H1381 0.883 1_545 S
C1397 C1396 1.377 . S
C1397 C1398 1.379 . S
C1398 H1382 0.931 . S
C1398 C1392 1.383 . S
C1398 C1397 1.379 . S
H1399 C1393 0.959 . S
H1400 C1393 0.961 . S
H1401 C1393 0.960 . S
H1402 C1394 0.930 . S
H1403 C1395 0.929 . S
H1404 C1412 0.929 . S
H1405 C1414 0.930 . S
H1406 C1416 0.930 . S
H1407 C1419 0.929 . S
H1408 C1422 0.930 . S
H1409 C1424 0.960 . S
H1410 C1424 0.960 . S
H1411 C1424 0.960 . S
C1412 H1404 0.929 . S
C1412 C1413 1.377 . S
C1412 C1414 1.384 . S
C1413 C1412 1.377 . S
C1413 C1419 1.390 . S
C1414 H1405 0.930 . S
C1414 C1412 1.384 . S
C1414 C1415 1.372 . S
C1415 C1414 1.372 . S
C1415 C1416 1.400 . S
C1415 C1420 1.490 . S
C1416 H1406 0.930 . S
C1416 C1415 1.400 . S
C1416 C1419 1.386 . S
H1417 C1433 0.930 . S
H1418 C1434 0.931 . S
C1419 H1407 0.929 . S
C1419 C1413 1.390 . S
C1419 C1416 1.386 . S
C1420 C1415 1.490 . S
C1420 C1422 1.395 . S
C1420 C1423 1.403 . S
H1421 C1427 0.930 . S
C1422 H1408 0.930 . S
C1422 C1420 1.395 . S
C1422 C1425 1.403 . S
C1423 C1420 1.403 . S
C1423 C1424 1.524 . S
C1423 C1427 1.400 . S
C1424 H1409 0.960 . S
C1424 H1410 0.960 . S
C1424 H1411 0.960 . S
C1424 C1423 1.524 . S
C1425 C1422 1.403 . S
C1425 C1426 1.392 . S
C1425 C1429 1.495 . S
C1426 C1425 1.392 . S
C1426 C1427 1.385 . S
C1426 C1428 1.478 . S
C1427 H1421 0.930 . S
C1427 C1423 1.400 . S
C1427 C1426 1.385 . S
C1428 C1426 1.478 . S
C1428 C1430 1.381 . S
C1428 C1434 1.383 . S
C1429 C1425 1.495 . S
C1429 H1435 0.959 . S
C1429 H1436 0.961 . S
C1429 H1437 0.960 . S
C1430 C1428 1.381 . S
C1430 C1431 1.394 . S
C1430 H1438 0.930 . S
C1431 C1430 1.394 . S
C1431 C1432 1.383 . S
C1431 H1439 0.929 . S
C1432 C1431 1.383 . S
C1432 C1433 1.377 . S
C1433 H1417 0.930 . S
C1433 C1432 1.377 . S
C1433 C1434 1.379 . S
C1434 H1418 0.931 . S
C1434 C1428 1.383 . S
C1434 C1433 1.379 . S
H1435 C1429 0.959 . S
H1436 C1429 0.961 . S
H1437 C1429 0.960 . S
H1438 C1430 0.930 . S
H1439 C1431 0.929 . S
H1440 C1448 0.929 . S
H1441 C1450 0.930 . S
H1442 C1452 0.930 . S
H1443 C1455 0.929 . S
H1444 C1458 0.930 . S
H1445 C1460 0.960 . S
H1446 C1460 0.960 . S
H1447 C1460 0.960 . S
C1448 H1440 0.929 . S
C1448 C1449 1.377 . S
C1448 C1450 1.384 . S
C1449 C1448 1.377 . S
C1449 C1455 1.390 . S
C1450 H1441 0.930 . S
C1450 C1448 1.384 . S
C1450 C1451 1.372 . S
C1451 C1450 1.372 . S
C1451 C1452 1.400 . S
C1451 C1456 1.490 . S
C1452 H1442 0.930 . S
C1452 C1451 1.400 . S
C1452 C1455 1.386 . S
H1453 C1469 0.930 . S
H1454 C1470 0.931 . S
C1455 H1443 0.929 . S
C1455 C1449 1.390 . S
C1455 C1452 1.386 . S
C1456 C1451 1.490 . S
C1456 C1458 1.395 . S
C1456 C1459 1.403 . S
H1457 C1463 0.930 . S
C1458 H1444 0.930 . S
C1458 C1456 1.395 . S
C1458 C1461 1.403 . S
C1459 C1456 1.403 . S
C1459 C1460 1.524 . S
C1459 C1463 1.400 . S
C1460 H1445 0.960 . S
C1460 H1446 0.960 . S
C1460 H1447 0.960 . S
C1460 C1459 1.524 . S
C1461 C1458 1.403 . S
C1461 C1462 1.392 . S
C1461 C1465 1.495 . S
C1462 C1461 1.392 . S
C1462 C1463 1.385 . S
C1462 C1464 1.478 . S
C1463 H1457 0.930 . S
C1463 C1459 1.400 . S
C1463 C1462 1.385 . S
C1464 C1462 1.478 . S
C1464 C1466 1.381 . S
C1464 C1470 1.383 . S
C1465 C1461 1.495 . S
C1465 H1471 0.959 . S
C1465 H1472 0.961 . S
C1465 H1473 0.960 . S
C1466 C1464 1.381 . S
C1466 C1467 1.394 . S
C1466 H1474 0.930 . S
C1467 C1466 1.394 . S
C1467 C1468 1.383 . S
C1467 H1475 0.929 . S
C1468 C1467 1.383 . S
C1468 C1469 1.377 . S
C1469 H1453 0.930 . S
C1469 C1468 1.377 . S
C1469 C1470 1.379 . S
C1470 H1454 0.931 . S
C1470 C1464 1.383 . S
C1470 C1469 1.379 . S
H1471 C1465 0.959 . S
H1472 C1465 0.961 . S
H1473 C1465 0.960 . S
H1474 C1466 0.930 . S
H1475 C1467 0.929 . S
H1476 C1484 0.929 . S
H1477 C1486 0.930 . S
H1478 C1488 0.930 . S
H1479 C1491 0.929 . S
H1480 C1494 0.930 . S
H1481 C1496 0.960 . S
H1482 C1496 0.960 . S
H1483 C1496 0.960 . S
C1484 H1476 0.929 . S
C1484 C1485 1.377 . S
C1484 C1486 1.384 . S
C1485 C1484 1.377 . S
C1485 C1491 1.390 . S
C1486 H1477 0.930 . S
C1486 C1484 1.384 . S
C1486 C1487 1.372 . S
C1487 C1486 1.372 . S
C1487 C1488 1.400 . S
C1487 C1492 1.490 . S
C1488 H1478 0.930 . S
C1488 C1487 1.400 . S
C1488 C1491 1.386 . S
H1489 C1505 0.930 . S
H1490 C1506 0.931 . S
C1491 H1479 0.929 . S
C1491 C1485 1.390 . S
C1491 C1488 1.386 . S
C1492 C1487 1.490 . S
C1492 C1494 1.395 . S
C1492 C1495 1.403 . S
H1493 C1499 0.930 . S
C1494 H1480 0.930 . S
C1494 C1492 1.395 . S
C1494 C1497 1.403 . S
C1495 C1492 1.403 . S
C1495 C1496 1.524 . S
C1495 C1499 1.400 . S
C1496 H1481 0.960 . S
C1496 H1482 0.960 . S
C1496 H1483 0.960 . S
C1496 C1495 1.524 . S
C1497 C1494 1.403 . S
C1497 C1498 1.392 . S
C1497 C1501 1.495 . S
C1498 C1497 1.392 . S
C1498 C1499 1.385 . S
C1498 C1500 1.478 . S
C1499 H1493 0.930 . S
C1499 C1495 1.400 . S
C1499 C1498 1.385 . S
C1500 C1498 1.478 . S
C1500 C1502 1.381 . S
C1500 C1506 1.383 . S
C1501 C1497 1.495 . S
C1501 H1507 0.959 . S
C1501 H1508 0.961 . S
C1501 H1509 0.960 . S
C1502 C1500 1.381 . S
C1502 C1503 1.394 . S
C1502 H1510 0.930 . S
C1503 C1502 1.394 . S
C1503 C1504 1.383 . S
C1503 H1511 0.929 . S
C1504 C1503 1.383 . S
C1504 C1505 1.377 . S
C1505 H1489 0.930 . S
C1505 C1504 1.377 . S
C1505 C1506 1.379 . S
C1506 H1490 0.931 . S
C1506 C1500 1.383 . S
C1506 C1505 1.379 . S
H1507 C1501 0.959 . S
H1508 C1501 0.961 . S
H1509 C1501 0.960 . S
H1510 C1502 0.930 . S
H1511 C1503 0.929 . S
H1512 C1520 0.929 . S
H1513 C1522 0.930 . S
H1514 C1524 0.930 . S
H1515 C1527 0.929 . S
H1516 C1530 0.930 . S
H1517 C1532 0.960 . S
H1518 C1532 0.960 . S
H1519 C1532 0.960 . S
C1520 H1512 0.929 . S
C1520 C1521 1.377 . S
C1520 C1522 1.384 . S
C1521 C1520 1.377 . S
C1521 C1527 1.390 . S
C1522 H1513 0.930 . S
C1522 C1520 1.384 . S
C1522 C1523 1.372 . S
C1523 C1522 1.372 . S
C1523 C1524 1.400 . S
C1523 C1528 1.490 . S
C1524 H1514 0.930 . S
C1524 C1523 1.400 . S
C1524 C1527 1.386 . S
H1525 C1541 0.930 . S
H1526 C1542 0.931 . S
C1527 H1515 0.929 . S
C1527 C1521 1.390 . S
C1527 C1524 1.386 . S
C1528 C1523 1.490 . S
C1528 C1530 1.395 . S
C1528 C1531 1.403 . S
H1529 C1535 0.930 . S
C1530 H1516 0.930 . S
C1530 C1528 1.395 . S
C1530 C1533 1.403 . S
C1531 C1528 1.403 . S
C1531 C1532 1.524 . S
C1531 C1535 1.400 . S
C1532 H1517 0.960 . S
C1532 H1518 0.960 . S
C1532 H1519 0.960 . S
C1532 C1531 1.524 . S
C1533 C1530 1.403 . S
C1533 C1534 1.392 . S
C1533 C1537 1.495 . S
C1534 C1533 1.392 . S
C1534 C1535 1.385 . S
C1534 C1536 1.478 . S
C1535 H1529 0.930 . S
C1535 C1531 1.400 . S
C1535 C1534 1.385 . S
C1536 C1534 1.478 . S
C1536 C1538 1.381 . S
C1536 C1542 1.383 . S
C1537 C1533 1.495 . S
C1537 H1543 0.959 . S
C1537 H1544 0.961 . S
C1537 H1545 0.960 . S
C1538 C1536 1.381 . S
C1538 C1539 1.394 . S
C1538 H1546 0.930 . S
C1539 C1538 1.394 . S
C1539 C1540 1.383 . S
C1539 H1547 0.929 . S
C1540 C1539 1.383 . S
C1540 C1541 1.377 . S
C1541 H1525 0.930 . S
C1541 C1540 1.377 . S
C1541 C1542 1.379 . S
C1542 H1526 0.931 . S
C1542 C1536 1.383 . S
C1542 C1541 1.379 . S
H1543 C1537 0.959 . S
H1544 C1537 0.961 . S
H1545 C1537 0.960 . S
H1546 C1538 0.930 . S
H1547 C1539 0.929 . S
H1548 C1556 0.929 . S
H1549 C1558 0.930 . S
H1550 C1560 0.930 . S
H1551 C1563 0.929 . S
H1552 C1566 0.930 . S
H1553 C1568 0.960 . S
H1554 C1568 0.960 . S
H1555 C1568 0.960 . S
C1556 H1548 0.929 . S
C1556 C1557 1.377 . S
C1556 C1558 1.384 . S
C1557 C1556 1.377 . S
C1557 C1563 1.390 . S
C1558 H1549 0.930 . S
C1558 C1556 1.384 . S
C1558 C1559 1.372 . S
C1559 C1558 1.372 . S
C1559 C1560 1.400 . S
C1559 C1564 1.490 . S
C1560 H1550 0.930 . S
C1560 C1559 1.400 . S
C1560 C1563 1.386 . S
H1561 C1577 0.930 . S
H1562 C1578 0.931 . S
C1563 H1551 0.929 . S
C1563 C1557 1.390 . S
C1563 C1560 1.386 . S
C1564 C1559 1.490 . S
C1564 C1566 1.395 . S
C1564 C1567 1.403 . S
H1565 C1571 0.930 . S
C1566 H1552 0.930 . S
C1566 C1564 1.395 . S
C1566 C1569 1.403 . S
C1567 C1564 1.403 . S
C1567 C1568 1.524 . S
C1567 C1571 1.400 . S
C1568 H1553 0.960 . S
C1568 H1554 0.960 . S
C1568 H1555 0.960 . S
C1568 C1567 1.524 . S
C1569 C1566 1.403 . S
C1569 C1570 1.392 . S
C1569 C1573 1.495 . S
C1570 C1569 1.392 . S
C1570 C1571 1.385 . S
C1570 C1572 1.478 . S
C1571 H1565 0.930 . S
C1571 C1567 1.400 . S
C1571 C1570 1.385 . S
C1572 C1570 1.478 . S
C1572 C1574 1.381 . S
C1572 C1578 1.383 . S
C1573 C1569 1.495 . S
C1573 H1579 0.959 . S
C1573 H1580 0.961 . S
C1573 H1581 0.960 . S
C1574 C1572 1.381 . S
C1574 C1575 1.394 . S
C1574 H1582 0.930 . S
C1575 C1574 1.394 . S
C1575 C1576 1.383 . S
C1575 H1583 0.929 . S
C1576 C1575 1.383 . S
C1576 C1577 1.377 . S
C1577 H1561 0.930 . S
C1577 C1576 1.377 . S
C1577 C1578 1.379 . S
C1578 H1562 0.931 . S
C1578 C1572 1.383 . S
C1578 C1577 1.379 . S
H1579 C1573 0.959 . S
H1580 C1573 0.961 . S
H1581 C1573 0.960 . S
H1582 C1574 0.930 . S
H1583 C1575 0.929 . S
H1584 C1592 0.929 . S
H1585 C1594 0.930 . S
H1586 C1596 0.930 . S
H1587 C1599 0.929 . S
H1588 C1602 0.930 . S
H1589 C1604 0.960 1_556 S
H1590 C1604 0.960 . S
H1591 C1604 0.960 . S
C1592 H1584 0.929 . S
C1592 C1593 1.377 . S
C1592 C1594 1.384 . S
C1593 C1592 1.377 . S
C1593 C1599 1.390 . S
C1594 H1585 0.930 . S
C1594 C1592 1.384 . S
C1594 C1595 1.372 . S
C1595 C1594 1.372 . S
C1595 C1596 1.400 . S
C1595 C1600 1.490 . S
C1596 H1586 0.930 . S
C1596 C1595 1.400 . S
C1596 C1599 1.386 . S
H1597 C1613 0.930 . S
H1598 C1614 0.931 . S
C1599 H1587 0.929 . S
C1599 C1593 1.390 . S
C1599 C1596 1.386 . S
C1600 C1595 1.490 . S
C1600 C1602 1.395 1_545 S
C1600 C1603 1.403 . S
H1601 C1607 0.930 . S
C1602 H1588 0.930 . S
C1602 C1600 1.395 1_565 S
C1602 C1605 1.403 1_554 S
C1603 C1600 1.403 . S
C1603 C1604 1.524 . S
C1603 C1607 1.400 1_554 S
C1604 H1589 0.960 1_554 S
C1604 H1590 0.960 . S
C1604 H1591 0.960 . S
C1604 C1603 1.524 . S
C1605 C1602 1.403 1_556 S
C1605 C1606 1.392 . S
C1605 C1609 1.495 . S
C1606 C1605 1.392 . S
C1606 C1607 1.385 1_565 S
C1606 C1608 1.478 . S
C1607 H1601 0.930 . S
C1607 C1603 1.400 1_556 S
C1607 C1606 1.385 1_545 S
C1608 C1606 1.478 . S
C1608 C1610 1.381 . S
C1608 C1614 1.383 . S
C1609 C1605 1.495 . S
C1609 H1615 0.959 1_556 S
C1609 H1616 0.961 . S
C1609 H1617 0.960 . S
C1610 C1608 1.381 . S
C1610 C1611 1.394 . S
C1610 H1618 0.930 . S
C1611 C1610 1.394 . S
C1611 C1612 1.383 . S
C1611 H1619 0.929 . S
C1612 C1611 1.383 . S
C1612 C1613 1.377 . S
C1613 H1597 0.930 . S
C1613 C1612 1.377 . S
C1613 C1614 1.379 . S
C1614 H1598 0.931 . S
C1614 C1608 1.383 . S
C1614 C1613 1.379 . S
H1615 C1609 0.959 1_554 S
H1616 C1609 0.961 . S
H1617 C1609 0.960 . S
H1618 C1610 0.930 . S
H1619 C1611 0.929 . S
H1620 C1628 0.929 . S
H1621 C1630 0.930 . S
H1622 C1632 0.930 1_655 S
H1623 C1635 0.929 . S
H1624 C1638 0.930 . S
H1625 C1640 0.960 . S
H1626 C1640 0.960 . S
H1627 C1640 0.960 . S
C1628 H1620 0.929 . S
C1628 C1629 1.377 . S
C1628 C1630 1.384 . S
C1629 C1628 1.377 . S
C1629 C1635 1.390 . S
C1630 H1621 0.930 . S
C1630 C1628 1.384 . S
C1630 C1631 1.372 . S
C1631 C1630 1.372 . S
C1631 C1632 1.400 . S
C1631 C1636 1.490 . S
C1632 H1622 0.930 1_455 S
C1632 C1631 1.400 . S
C1632 C1635 1.386 . S
H1633 C1649 0.930 . S
H1634 C1650 0.931 . S
C1635 H1623 0.929 . S
C1635 C1629 1.390 . S
C1635 C1632 1.386 . S
C1636 C1631 1.490 . S
C1636 C1638 1.395 . S
C1636 C1639 1.403 1_455 S
H1637 C1643 0.930 . S
C1638 H1624 0.930 . S
C1638 C1636 1.395 . S
C1638 C1641 1.403 1_556 S
C1639 C1636 1.403 1_655 S
C1639 C1640 1.524 . S
C1639 C1643 1.400 1_556 S
C1640 H1625 0.960 . S
C1640 H1626 0.960 . S
C1640 H1627 0.960 . S
C1640 C1639 1.524 . S
C1641 C1638 1.403 1_554 S
C1641 C1642 1.392 1_455 S
C1641 C1645 1.495 . S
C1642 C1641 1.392 1_655 S
C1642 C1643 1.385 . S
C1642 C1644 1.478 . S
C1643 H1637 0.930 . S
C1643 C1639 1.400 1_554 S
C1643 C1642 1.385 . S
C1644 C1642 1.478 . S
C1644 C1646 1.381 . S
C1644 C1650 1.383 . S
C1645 C1641 1.495 . S
C1645 H1651 0.959 . S
C1645 H1652 0.961 . S
C1645 H1653 0.960 . S
C1646 C1644 1.381 . S
C1646 C1647 1.394 . S
C1646 H1654 0.930 1_655 S
C1647 C1646 1.394 . S
C1647 C1648 1.383 . S
C1647 H1655 0.929 . S
C1648 C1647 1.383 . S
C1648 C1649 1.377 . S
C1649 H1633 0.930 . S
C1649 C1648 1.377 . S
C1649 C1650 1.379 . S
C1650 H1634 0.931 . S
C1650 C1644 1.383 . S
C1650 C1649 1.379 . S
H1651 C1645 0.959 . S
H1652 C1645 0.961 . S
H1653 C1645 0.960 . S
H1654 C1646 0.930 1_455 S
H1655 C1647 0.929 . S
H1656 C1664 0.929 . S
H1657 C1666 0.930 1_565 S
H1658 C1668 0.930 . S
H1659 C1671 0.929 . S
H1660 C1674 0.930 . S
H1661 C1676 0.960 . S
H1662 C1676 0.960 . S
H1663 C1676 0.960 1_545 S
C1664 H1656 0.929 . S
C1664 C1665 1.377 . S
C1664 C1666 1.384 . S
C1665 C1664 1.377 . S
C1665 C1671 1.390 . S
C1666 H1657 0.930 1_545 S
C1666 C1664 1.384 . S
C1666 C1667 1.372 . S
C1667 C1666 1.372 . S
C1667 C1668 1.400 . S
C1667 C1672 1.490 . S
C1668 H1658 0.930 . S
C1668 C1667 1.400 . S
C1668 C1671 1.386 . S
H1669 C1685 0.914 1_545 S
H1670 C1686 0.916 1_545 S
C1671 H1659 0.929 . S
C1671 C1665 1.390 . S
C1671 C1668 1.386 . S
C1672 C1667 1.490 . S
C1672 C1674 1.395 . S
C1672 C1675 1.403 1_545 S
H1673 C1679 0.930 . S
C1674 H1660 0.930 . S
C1674 C1672 1.395 . S
C1674 C1677 1.403 1_556 S
C1675 C1672 1.403 1_565 S
C1675 C1676 1.524 . S
C1675 C1679 1.400 1_556 S
C1676 H1661 0.960 . S
C1676 H1662 0.960 . S
C1676 H1663 0.960 1_565 S
C1676 C1675 1.524 . S
C1677 C1674 1.403 1_554 S
C1677 C1678 1.392 1_545 S
C1677 C1681 1.495 . S
C1678 C1677 1.392 1_565 S
C1678 C1679 1.385 . S
C1678 C1680 1.478 . S
C1679 H1673 0.930 . S
C1679 C1675 1.400 1_554 S
C1679 C1678 1.385 . S
C1680 C1678 1.478 . S
C1680 C1682 1.381 . S
C1680 C1686 1.392 . S
C1681 C1677 1.495 . S
C1681 H1687 0.959 . S
C1681 H1688 0.961 . S
C1681 H1689 0.960 1_545 S
C1682 C1680 1.381 . S
C1682 C1683 1.394 . S
C1682 H1690 0.930 . S
C1683 C1682 1.394 . S
C1683 C1684 1.383 . S
C1683 H1691 0.929 . S
C1684 C1683 1.383 . S
C1684 C1685 1.377 . S
C1685 H1669 0.914 1_565 S
C1685 C1684 1.377 . S
C1685 C1686 1.385 . S
C1686 H1670 0.916 1_565 S
C1686 C1680 1.392 . S
C1686 C1685 1.385 . S
H1687 C1681 0.959 . S
H1688 C1681 0.961 . S
H1689 C1681 0.960 1_565 S
H1690 C1682 0.930 . S
H1691 C1683 0.929 . S
H1692 C1700 0.929 . S
H1693 C1702 0.930 . S
H1694 C1704 0.930 . S
H1695 C1707 0.929 . S
H1696 C1710 0.930 . S
H1697 C1712 0.960 1_554 S
H1698 C1712 0.960 . S
H1699 C1712 0.960 . S
C1700 H1692 0.929 . S
C1700 C1701 1.377 . S
C1700 C1702 1.384 . S
C1701 C1700 1.377 . S
C1701 C1707 1.390 . S
C1702 H1693 0.930 . S
C1702 C1700 1.384 . S
C1702 C1703 1.372 . S
C1703 C1702 1.372 . S
C1703 C1704 1.400 . S
C1703 C1708 1.490 . S
C1704 H1694 0.930 . S
C1704 C1703 1.400 . S
C1704 C1707 1.386 . S
H1705 C1721 0.930 . S
H1706 C1722 0.931 . S
C1707 H1695 0.929 . S
C1707 C1701 1.390 . S
C1707 C1704 1.386 . S
C1708 C1703 1.490 . S
C1708 C1710 1.395 1_655 S
C1708 C1711 1.403 . S
H1709 C1715 0.930 . S
C1710 H1696 0.930 . S
C1710 C1708 1.395 1_455 S
C1710 C1713 1.403 1_556 S
C1711 C1708 1.403 . S
C1711 C1712 1.524 . S
C1711 C1715 1.400 1_556 S
C1712 H1697 0.960 1_556 S
C1712 H1698 0.960 . S
C1712 H1699 0.960 . S
C1712 C1711 1.524 . S
C1713 C1710 1.403 1_554 S
C1713 C1714 1.392 . S
C1713 C1717 1.495 . S
C1714 C1713 1.392 . S
C1714 C1715 1.385 1_455 S
C1714 C1716 1.478 . S
C1715 H1709 0.930 . S
C1715 C1711 1.400 1_554 S
C1715 C1714 1.385 1_655 S
C1716 C1714 1.478 . S
C1716 C1718 1.381 . S
C1716 C1722 1.383 . S
C1717 C1713 1.495 . S
C1717 H1723 0.959 1_554 S
C1717 H1724 0.961 . S
C1717 H1725 0.960 . S
C1718 C1716 1.381 . S
C1718 C1719 1.394 . S
C1718 H1726 0.930 . S
C1719 C1718 1.394 . S
C1719 C1720 1.383 . S
C1719 H1727 0.929 . S
C1720 C1719 1.383 . S
C1720 C1721 1.377 . S
C1721 H1705 0.930 . S
C1721 C1720 1.377 . S
C1721 C1722 1.379 . S
C1722 H1706 0.931 . S
C1722 C1716 1.383 . S
C1722 C1721 1.379 . S
H1723 C1717 0.959 1_556 S
H1724 C1717 0.961 . S
H1725 C1717 0.960 . S
H1726 C1718 0.930 . S
H1727 C1719 0.929 . S
C585 C4 1.120 . S
C604 C256 1.147 . S
C621 C40 1.127 . S
C640 C148 1.096 . S
C657 C184 1.120 . S
C676 C76 1.146 . S
C693 C112 1.124 . S
C712 C220 1.096 . S
C729 C292 1.122 . S
C748 C544 1.145 . S
C765 C436 1.125 . S
C784 C328 1.094 . S
C801 C472 1.127 . S
C820 C364 1.097 . S
C837 C508 1.121 . S
C856 C400 1.102 . S
C873 C3 1.285 . S
C892 C398 1.296 . S
C909 C39 1.284 . S
C928 C290 1.301 . S
C945 C326 1.294 . S
C964 C75 1.301 . S
C981 C111 1.288 . S
C1000 C362 1.286 . S
C1017 C147 1.290 . S
C1036 C470 1.291 . S
C1053 C506 1.293 . S
C1072 C183 1.285 . S
C1089 C219 1.288 . S
C1108 C542 1.302 . S
C1125 C434 1.295 . S
C1144 C255 1.271 . S
C1161 C291 1.289 1_545 S
C1180 C110 1.287 . S
C1197 C2 1.294 . S
C1216 C327 1.278 1_455 S
C1233 C363 1.284 1_565 S
C1252 C38 1.281 . S
C1269 C74 1.295 . S
C1288 C399 1.271 1_655 S
C1305 C435 1.288 1_565 S
C1324 C182 1.281 . S
C1341 C218 1.290 . S
C1360 C471 1.301 1_655 S
C1377 C254 1.294 . S
C1396 C507 1.278 1_545 S
C1413 C146 1.292 . S
C1432 C543 1.291 1_455 S
C1449 C158 1.584 . S
C1468 C14 1.560 . S
C1485 C194 1.586 . S
C1504 C50 1.602 . S
C1521 C86 1.582 . S
C1540 C230 1.579 . S
C1557 C266 1.587 . S
C1576 C122 1.564 . S
C1593 C446 1.583 . S
C1612 C302 1.561 . S
C1629 C482 1.588 . S
C1648 C338 1.606 . S
C1665 C374 1.591 . S
C1684 C518 1.593 . S
C1701 C554 1.584 . S
C1720 C410 1.561 . S
