# Generated by pormake.
# Topology smm, (6)-cn, num edge types: 1
# Building blocks:
#     Node 0, Type 0, BuildingBlock: BETFAJ_clean_sbu_0, # of connection points: 6
#     Node 1, Type 0, BuildingBlock: BETFAJ_clean_sbu_0, # of connection points: 6
#     Node 2, Type 0, BuildingBlock: BETFAJ_clean_sbu_0, # of connection points: 6
#     Node 3, Type 0, BuildingBlock: BETFAJ_clean_sbu_0, # of connection points: 6
#     Node 4, Type 0, BuildingBlock: BETFAJ_clean_sbu_0, # of connection points: 6
#     Node 5, Type 0, BuildingBlock: BETFAJ_clean_sbu_0, # of connection points: 6
#     Node 6, Type 0, BuildingBlock: BETFAJ_clean_sbu_0, # of connection points: 6
#     Node 7, Type 0, BuildingBlock: BETFAJ_clean_sbu_0, # of connection points: 6
#     Node 8, Type 0, BuildingBlock: BETFAJ_clean_sbu_0, # of connection points: 6
#     Edge 9, Type (0, 0), BuildingBlock: XUDNAN_clean_linker_2, # of connection points: 2
#     Edge 10, Type (0, 0), BuildingBlock: XUDNAN_clean_linker_2, # of connection points: 2
#     Edge 11, Type (0, 0), BuildingBlock: XUDNAN_clean_linker_2, # of connection points: 2
#     Edge 12, Type (0, 0), BuildingBlock: XUDNAN_clean_linker_2, # of connection points: 2
#     Edge 13, Type (0, 0), BuildingBlock: XUDNAN_clean_linker_2, # of connection points: 2
#     Edge 14, Type (0, 0), BuildingBlock: XUDNAN_clean_linker_2, # of connection points: 2
#     Edge 15, Type (0, 0), BuildingBlock: XUDNAN_clean_linker_2, # of connection points: 2
#     Edge 16, Type (0, 0), BuildingBlock: XUDNAN_clean_linker_2, # of connection points: 2
#     Edge 17, Type (0, 0), BuildingBlock: XUDNAN_clean_linker_2, # of connection points: 2
#     Edge 18, Type (0, 0), BuildingBlock: XUDNAN_clean_linker_2, # of connection points: 2
#     Edge 19, Type (0, 0), BuildingBlock: XUDNAN_clean_linker_2, # of connection points: 2
#     Edge 20, Type (0, 0), BuildingBlock: XUDNAN_clean_linker_2, # of connection points: 2
#     Edge 21, Type (0, 0), BuildingBlock: XUDNAN_clean_linker_2, # of connection points: 2
#     Edge 22, Type (0, 0), BuildingBlock: XUDNAN_clean_linker_2, # of connection points: 2
#     Edge 23, Type (0, 0), BuildingBlock: XUDNAN_clean_linker_2, # of connection points: 2
#     Edge 24, Type (0, 0), BuildingBlock: XUDNAN_clean_linker_2, # of connection points: 2
#     Edge 25, Type (0, 0), BuildingBlock: XUDNAN_clean_linker_2, # of connection points: 2
#     Edge 26, Type (0, 0), BuildingBlock: XUDNAN_clean_linker_2, # of connection points: 2
#     Edge 27, Type (0, 0), BuildingBlock: XUDNAN_clean_linker_2, # of connection points: 2
#     Edge 28, Type (0, 0), BuildingBlock: XUDNAN_clean_linker_2, # of connection points: 2
#     Edge 29, Type (0, 0), BuildingBlock: XUDNAN_clean_linker_2, # of connection points: 2
#     Edge 30, Type (0, 0), BuildingBlock: XUDNAN_clean_linker_2, # of connection points: 2
#     Edge 31, Type (0, 0), BuildingBlock: XUDNAN_clean_linker_2, # of connection points: 2
#     Edge 32, Type (0, 0), BuildingBlock: XUDNAN_clean_linker_2, # of connection points: 2
#     Edge 33, Type (0, 0), BuildingBlock: XUDNAN_clean_linker_2, # of connection points: 2
#     Edge 34, Type (0, 0), BuildingBlock: XUDNAN_clean_linker_2, # of connection points: 2
#     Edge 35, Type (0, 0), BuildingBlock: XUDNAN_clean_linker_2, # of connection points: 2
# Relax obj value: 0.045
# Max RMSD: 0.122
# Mean RMSD: 0.122
data_MOF--net-smm--node1-BETFAJ_clean_sbu_0--edge1-XUDNAN_clean_linker_2
_symmetry_space_group_name_H-M    P1
_symmetry_Int_Tables_number       1
_symmetry_cell_setting            triclinic
loop_
_symmetry_equiv_pos_as_xyz
'x, y, z'
_cell_length_a     71.437392
_cell_length_b     71.598852
_cell_length_c     14.240902
_cell_angle_alpha  89.967972
_cell_angle_beta   90.041683
_cell_angle_gamma 120.07919
loop_
_atom_site_label
_atom_site_type_symbol
_atom_site_fract_x
_atom_site_fract_y
_atom_site_fract_z
_atom_type_partial_charge
Sm0 Sm 0.0612 0.22167 0.97985 0.0
Sm1 Sm 1.02092 0.1768 0.02987 0.0
C2 C 0.08976 0.2596 0.90481 0.0
C3 C 0.09658 0.28279 0.89118 0.0
C4 C 0.08183 0.28944 0.86522 0.0
C5 C 0.08915 0.31108 0.84142 0.0
C6 C 0.11141 0.32667 0.84255 0.0
C7 C 0.12601 0.32007 0.87238 0.0
C8 C 0.11867 0.29843 0.89611 0.0
C9 C 0.05405 0.21118 0.16785 0.0
C10 C 1.01407 0.21857 0.02233 0.0
C11 C 0.9924 0.138 0.09803 0.0
C12 C 0.98153 0.11432 0.07851 0.0
C13 C 0.95888 0.10252 0.07206 0.0
C14 C 0.94787 0.08025 0.05517 0.0
C15 C 0.95912 0.06889 0.04422 0.0
C16 C 0.98185 0.08059 0.05277 0.0
C17 C 0.99295 0.10305 0.0695 0.0
C18 C 1.02591 0.18619 0.84181 0.0
C19 C 0.06909 0.18102 -0.00578 0.0
O20 O 0.07231 0.24506 0.86146 0.0
O21 O 0.09226 0.25322 -0.01235 0.0
O22 O 0.04021 0.20766 0.10634 0.0
O23 O 0.07343 0.22247 0.13356 0.0
O24 O 0.03249 0.22817 0.9747 0.0
O25 O 1.00761 0.19984 0.06556 0.0
O26 O 1.0129 0.14837 0.12153 0.0
O27 O 0.98712 0.14953 0.04473 0.0
O28 O 0.04131 0.19058 0.89768 0.0
O29 O 1.00744 0.17506 0.88352 0.0
O30 O 0.05003 0.1705 0.03688 0.0
O31 O 0.07578 0.19998 0.9539 0.0
H32 H 0.06469 0.27783 0.86107 0.0
H33 H 0.07732 0.31552 0.82065 0.0
H34 H 0.14323 0.33142 0.87355 0.0
H35 H 0.13042 0.29374 0.91534 0.0
H36 H 0.94957 0.11058 0.08026 0.0
H37 H 0.93038 0.07186 0.05105 0.0
H38 H 0.9911 0.07248 0.04443 0.0
H39 H 1.01042 0.11158 0.07482 0.0
Sm40 Sm 0.84401 0.86017 0.9724 0.0
Sm41 Sm 0.88881 0.86456 0.02109 0.0
C42 C 0.80642 0.85152 0.89517 0.0
C43 C 0.78307 0.83556 0.88321 0.0
C44 C 0.7695 0.84214 0.84137 0.0
C45 C 0.74762 0.82727 0.82361 0.0
C46 C 0.73871 0.80533 0.84707 0.0
C47 C 0.75232 0.79892 0.89144 0.0
C48 C 0.77424 0.81384 0.9091 0.0
C49 C 0.85344 0.86169 0.16152 0.0
C50 C 0.8468 0.81575 0.00907 0.0
C51 C 0.9276 0.87402 0.08694 0.0
C52 C 0.95132 0.88794 0.06894 0.0
C53 C 0.96557 0.89872 0.14379 0.0
C54 C 0.98814 0.90972 0.1304 0.0
C55 C 0.99708 0.91006 0.04179 0.0
C56 C 0.98272 0.89993 0.96624 0.0
C57 C 0.96021 0.88906 0.97953 0.0
C58 C 0.87871 0.86022 0.83418 0.0
C59 C 0.8851 0.90889 -0.01207 0.0
O60 O 0.82042 0.84747 0.85425 0.0
O61 O 0.81303 0.86073 0.97728 0.0
O62 O 0.85759 0.85209 0.09867 0.0
O63 O 0.84255 0.87017 0.12692 0.0
O64 O 0.83709 0.82484 0.96441 0.0
O65 O 0.86574 0.82781 0.05174 0.0
O66 O 0.9168 0.88299 0.1193 0.0
O67 O 0.91642 0.85862 0.02652 0.0
O68 O 0.87492 0.87142 0.89092 0.0
O69 O 0.88992 0.8527 0.87341 0.0
O70 O 0.89582 0.90031 0.02841 0.0
O71 O 0.86591 0.89657 0.94908 0.0
H72 H 0.77597 0.85882 0.82047 0.0
H73 H 0.7379 0.83287 0.78847 0.0
H74 H 0.74607 0.78228 0.91211 0.0
H75 H 0.78434 0.80836 0.94178 0.0
H76 H 0.95925 0.89806 0.2136 0.0
H77 H 0.99858 0.91719 0.19042 0.0
H78 H 0.9889 0.90013 0.8966 0.0
H79 H 0.94977 0.88106 0.92004 0.0
Sm80 Sm 0.20896 1.00614 0.01422 0.0
Sm81 Sm 0.19844 0.04289 0.05981 0.0
C82 C 0.22181 0.98062 0.93546 0.0
C83 C 0.23911 0.97515 0.91651 0.0
C84 C 0.25072 0.98154 0.83166 0.0
C85 C 0.26515 0.97442 0.8074 0.0
C86 C 0.26843 0.96057 0.86693 0.0
C87 C 0.25684 0.95419 0.95209 0.0
C88 C 0.24236 0.96134 0.97643 0.0
C89 C 0.20179 1.01101 0.20005 0.0
C90 C 0.24914 0.05487 0.07446 0.0
C91 C 0.18499 0.06926 0.1228 0.0
C92 C 0.17313 0.08069 0.09595 0.0
C93 C 0.15042 0.06995 0.0877 0.0
C94 C 0.13977 0.08151 0.06652 0.0
C95 C 0.15158 0.10404 0.05294 0.0
C96 C 0.17424 0.11466 0.06253 0.0
C97 C 0.18481 0.10319 0.08385 0.0
C98 C 0.20525 0.03892 0.87283 0.0
C99 C 0.158 0.99301 0.02723 0.0
O100 O 0.2229 0.99745 0.89351 0.0
O101 O 0.21312 0.97724 0.01924 0.0
O102 O 0.21161 0.02559 0.14078 0.0
O103 O 0.19693 0.9923 0.1654 0.0
O104 O 0.24367 0.03691 0.02639 0.0
O105 O 0.23405 0.05869 0.10811 0.0
O106 O 0.17411 0.04831 0.13509 0.0
O107 O 0.20387 0.0759 0.08377 0.0
O108 O 0.19523 0.02334 0.92868 0.0
O109 O 0.21042 0.05698 0.91407 0.0
O110 O 0.1647 1.01188 0.06866 0.0
O111 O 0.17189 0.98802 -0.01096 0.0
H112 H 0.24826 0.99165 0.78242 0.0
H113 H 0.27333 0.9794 0.74034 0.0
H114 H 0.25898 0.94371 0.00024 0.0
H115 H 0.23342 0.95572 0.04155 0.0
H116 H 0.14085 0.05265 0.09772 0.0
H117 H 0.12233 0.07277 0.0594 0.0
H118 H 0.18391 0.13201 0.05469 0.0
H119 H 0.20224 0.11204 0.0917 0.0
Sm120 Sm 0.72337 0.55251 0.28366 0.0
Sm121 Sm 0.68299 0.50717 0.33283 0.0
C122 C 0.75181 0.5907 0.20958 0.0
C123 C 0.75916 0.61414 0.19842 0.0
C124 C 0.74479 0.62142 0.17477 0.0
C125 C 0.75257 0.64329 0.15339 0.0
C126 C 0.77496 0.65853 0.15449 0.0
C127 C 0.78919 0.65128 0.18192 0.0
C128 C 0.78139 0.62941 0.20332 0.0
C129 C 0.71564 0.54202 0.47128 0.0
C130 C 0.6756 0.54862 0.3238 0.0
C131 C 0.65434 0.46803 0.398 0.0
C132 C 0.64684 0.44439 0.38951 0.0
C133 C 0.6536 0.43426 0.45489 0.0
C134 C 0.64558 0.41189 0.4515 0.0
C135 C 0.63043 0.39878 0.3827 0.0
C136 C 0.62344 0.40888 0.31784 0.0
C137 C 0.6315 0.43132 0.32124 0.0
C138 C 0.68813 0.51737 0.14613 0.0
C139 C 0.73138 0.51176 0.2979 0.0
O140 O 0.73395 0.57652 0.16752 0.0
O141 O 0.75474 0.58383 0.29045 0.0
O142 O 0.70197 0.53824 0.40861 0.0
O143 O 0.73513 0.55362 0.43837 0.0
O144 O 0.69439 0.55869 0.27875 0.0
O145 O 0.66893 0.52966 0.36535 0.0
O146 O 0.67299 0.48071 0.43863 0.0
O147 O 0.6505 0.47748 0.32797 0.0
O148 O 0.70358 0.52145 0.20137 0.0
O149 O 0.66962 0.50645 0.18783 0.0
O150 O 0.71209 0.50091 0.33841 0.0
O151 O 0.7382 0.53091 0.25896 0.0
H152 H 0.72757 0.61015 0.17064 0.0
H153 H 0.74097 0.64819 0.13458 0.0
H154 H 0.80648 0.6623 0.18304 0.0
H155 H 0.79289 0.62427 0.22074 0.0
H156 H 0.66496 0.44359 0.50984 0.0
H157 H 0.65111 0.40484 0.50418 0.0
H158 H 0.61194 0.3995 0.26344 0.0
H159 H 0.62557 0.43839 0.2705 0.0
Sm160 Sm 0.51286 0.19128 0.32539 0.0
Sm161 Sm 0.55502 0.19051 0.37563 0.0
C162 C 0.47641 0.18376 0.24067 0.0
C163 C 0.45273 0.16784 0.23271 0.0
C164 C 0.4434 0.15965 0.1442 0.0
C165 C 0.42081 0.14683 0.13359 0.0
C166 C 0.40693 0.14207 0.2112 0.0
C167 C 0.4164 0.14953 0.30029 0.0
C168 C 0.43892 0.1622 0.31094 0.0
C169 C 0.52194 0.19519 0.51212 0.0
C170 C 0.51076 0.14428 0.37426 0.0
C171 C 0.59279 0.19681 0.4399 0.0
C172 C 0.61652 0.20933 0.42279 0.0
C173 C 0.62773 0.23175 0.40643 0.0
C174 C 0.65025 0.24294 0.39137 0.0
C175 C 0.662 0.23194 0.39177 0.0
C176 C 0.65065 0.20956 0.40922 0.0
C177 C 0.62827 0.19846 0.42446 0.0
C178 C 0.54633 0.19115 0.1869 0.0
C179 C 0.55673 0.23797 0.35471 0.0
O180 O 0.49014 0.17889 0.20284 0.0
O181 O 0.48352 0.19448 0.31952 0.0
O182 O 0.52486 0.18286 0.45791 0.0
O183 O 0.51185 0.20375 0.47056 0.0
O184 O 0.50209 0.15452 0.33039 0.0
O185 O 0.53036 0.15508 0.41123 0.0
O186 O 0.58321 0.20698 0.47259 0.0
O187 O 0.581 0.18194 0.37836 0.0
O188 O 0.54392 0.2015 0.25151 0.0
O189 O 0.55504 0.18033 0.21921 0.0
O190 O 0.56501 0.22662 0.39135 0.0
O191 O 0.53749 0.22823 0.31273 0.0
H192 H 0.45356 0.16378 0.08243 0.0
H193 H 0.41417 0.14153 0.06392 0.0
H194 H 0.40631 0.14594 0.36201 0.0
H195 H 0.44543 0.16807 0.3803 0.0
H196 H 0.61912 0.24059 0.40478 0.0
H197 H 0.65836 0.26012 0.37756 0.0
H198 H 0.6591 0.20054 0.4119 0.0
H199 H 0.6201 0.18125 0.43779 0.0
Sm200 Sm 0.87271 0.33799 0.33676 0.0
Sm201 Sm 0.86103 0.37399 0.38072 0.0
C202 C 0.88553 0.31245 0.25875 0.0
C203 C 0.90176 0.3054 0.24587 0.0
C204 C 0.92334 0.31995 0.22127 0.0
C205 C 0.93742 0.31238 0.19651 0.0
C206 C 0.93028 0.29007 0.19502 0.0
C207 C 0.90892 0.27566 0.22364 0.0
C208 C 0.89487 0.28324 0.2485 0.0
C209 C 0.86768 0.34389 0.52499 0.0
C210 C 0.91229 0.38748 0.38931 0.0
C211 C 0.84724 0.40026 0.44194 0.0
C212 C 0.83543 0.41169 0.41406 0.0
C213 C 0.84714 0.43422 0.40292 0.0
C214 C 0.83666 0.44573 0.3804 0.0
C215 C 0.81406 0.43512 0.36854 0.0
C216 C 0.8022 0.41256 0.38124 0.0
C217 C 0.81276 0.40097 0.40366 0.0
C218 C 0.868 0.3695 0.19546 0.0
C219 C 0.82167 0.32371 0.35193 0.0
O220 O 0.88938 0.33087 0.22232 0.0
O221 O 0.87445 0.30765 0.33703 0.0
O222 O 0.876 0.35819 0.46311 0.0
O223 O 0.86291 0.32526 0.48982 0.0
O224 O 0.90706 0.36916 0.34478 0.0
O225 O 0.89708 0.39119 0.42242 0.0
O226 O 0.83643 0.37932 0.45445 0.0
O227 O 0.86619 0.40693 0.40372 0.0
O228 O 0.85814 0.35419 0.2522 0.0
O229 O 0.87251 0.38773 0.23304 0.0
O230 O 0.82794 0.34236 0.39453 0.0
O231 O 0.83582 0.31951 0.31113 0.0
H232 H 0.92919 0.33713 0.21867 0.0
H233 H 0.95385 0.32407 0.1768 0.0
H234 H 0.90268 0.25842 0.22276 0.0
H235 H 0.87827 0.27164 0.26638 0.0
H236 H 0.86453 0.44308 0.41242 0.0
H237 H 0.84636 0.4631 0.37337 0.0
H238 H 0.7848 0.40382 0.37242 0.0
H239 H 0.80317 0.38365 0.41288 0.0
Sm240 Sm 0.39634 0.88487 0.66319 0.0
Sm241 Sm 0.35264 0.84244 0.70934 0.0
C242 C 0.42641 0.92143 0.5833 0.0
C243 C 0.43237 0.94418 0.56336 0.0
C244 C 0.41671 0.95045 0.55494 0.0
C245 C 0.42276 0.97188 0.53236 0.0
C246 C 0.44466 0.98763 0.51679 0.0
C247 C 0.46028 0.98123 0.52678 0.0
C248 C 0.4542 0.95983 0.54981 0.0
C249 C 0.39062 0.87378 0.84767 0.0
C250 C 0.35161 0.88721 0.71237 0.0
C251 C 0.32138 0.80426 0.77095 0.0
C252 C 0.31059 0.78058 0.75216 0.0
C253 C 0.32201 0.76928 0.7471 0.0
C254 C 0.31103 0.74683 0.73036 0.0
C255 C 0.2884 0.7352 0.71788 0.0
C256 C 0.27711 0.7466 0.72474 0.0
C257 C 0.28802 0.76888 0.74157 0.0
C258 C 0.36227 0.85232 0.5219 0.0
C259 C 0.39861 0.84075 0.68481 0.0
O260 O 0.40987 0.9061 0.5378 0.0
O261 O 0.42739 0.91628 0.67064 0.0
O262 O 0.37559 0.87187 0.79415 0.0
O263 O 0.40941 0.88358 0.80674 0.0
O264 O 0.37051 0.8957 0.66828 0.0
O265 O 0.3423 0.8674 0.74724 0.0
O266 O 0.34107 0.8141 0.80513 0.0
O267 O 0.31815 0.81609 0.7102 0.0
O268 O 0.37497 0.85436 0.58647 0.0
O269 O 0.34262 0.84328 0.55356 0.0
O270 O 0.37853 0.83186 0.71747 0.0
O271 O 0.40879 0.86061 0.64962 0.0
H272 H 0.39977 0.93873 0.56493 0.0
H273 H 0.41019 0.97607 0.52718 0.0
H274 H 0.47722 0.9926 0.51433 0.0
H275 H 0.46661 0.95541 0.55552 0.0
H276 H 0.33942 0.77776 0.75554 0.0
H277 H 0.32031 0.73869 0.72515 0.0
H278 H 0.25967 0.73827 0.71752 0.0
H279 H 0.27872 0.77702 0.74642 0.0
Sm280 Sm 0.17614 0.52621 0.64787 0.0
Sm281 Sm 0.2211 0.53191 0.69965 0.0
C282 C 0.13835 0.51553 0.56755 0.0
C283 C 0.11475 0.49951 0.56157 0.0
C284 C 0.10563 0.48955 0.47512 0.0
C285 C 0.08308 0.47689 0.46401 0.0
C286 C 0.06906 0.47406 0.53894 0.0
C287 C 0.07829 0.48322 0.62659 0.0
C288 C 0.10079 0.49578 0.63777 0.0
C289 C 0.18472 0.52751 0.83823 0.0
C290 C 0.18028 0.48269 0.68553 0.0
C291 C 0.25951 0.54175 0.77093 0.0
C292 C 0.28333 0.5547 0.75492 0.0
C293 C 0.29483 0.57744 0.75136 0.0
C294 C 0.31741 0.58884 0.73666 0.0
C295 C 0.32888 0.57773 0.72468 0.0
C296 C 0.31729 0.55504 0.73049 0.0
C297 C 0.29493 0.54376 0.74548 0.0
C298 C 0.21189 0.52772 0.51143 0.0
C299 C 0.21623 0.57536 0.66473 0.0
O300 O 0.15207 0.51037 0.5322 0.0
O301 O 0.14573 0.52754 0.64298 0.0
O302 O 0.18959 0.51848 0.77546 0.0
O303 O 0.17328 0.5353 0.80291 0.0
O304 O 0.17038 0.49133 0.63918 0.0
O305 O 0.1988 0.49515 0.73019 0.0
O306 O 0.24894 0.55154 0.79592 0.0
O307 O 0.24842 0.5256 0.71372 0.0
O308 O 0.20738 0.53843 0.56788 0.0
O309 O 0.22345 0.52073 0.55174 0.0
O310 O 0.22699 0.56719 0.70812 0.0
O311 O 0.19747 0.56267 0.62312 0.0
H312 H 0.11593 0.49226 0.41483 0.0
H313 H 0.07662 0.47025 0.39543 0.0
H314 H 0.06805 0.48112 0.68637 0.0
H315 H 0.10718 0.50313 0.70543 0.0
H316 H 0.28642 0.58641 0.75914 0.0
H317 H 0.32578 0.60629 0.73233 0.0
H318 H 0.32555 0.54591 0.72347 0.0
H319 H 0.28664 0.5263 0.74948 0.0
Sm320 Sm 0.53747 0.6675 0.6647 0.0
Sm321 Sm 0.53288 0.70865 0.70262 0.0
C322 C 0.54496 0.63629 0.60937 0.0
C323 C 0.56007 0.62994 0.56892 0.0
C324 C 0.58126 0.64517 0.54236 0.0
C325 C 0.5953 0.63837 0.50751 0.0
C326 C 0.58848 0.61619 0.49894 0.0
C327 C 0.56721 0.60109 0.52612 0.0
C328 C 0.55323 0.6079 0.56051 0.0
C329 C 0.53085 0.6751 0.84693 0.0
C330 C 0.58222 0.71456 0.69263 0.0
C331 C 0.52959 0.74257 0.75451 0.0
C332 C 0.51425 0.75093 0.74336 0.0
C333 C 0.49386 0.74064 0.78723 0.0
C334 C 0.47969 0.74875 0.77792 0.0
C335 C 0.48533 0.76738 0.72409 0.0
C336 C 0.50589 0.77789 0.68136 0.0
C337 C 0.52014 0.76978 0.69095 0.0
C338 C 0.52572 0.69361 0.52124 0.0
C339 C 0.4892 0.6612 0.6826 0.0
O340 O 0.53662 0.64491 0.55418 0.0
O341 O 0.54917 0.64458 0.69384 0.0
O342 O 0.5426 0.68887 0.78769 0.0
O343 O 0.52229 0.65571 0.81284 0.0
O344 O 0.57312 0.69429 0.6636 0.0
O345 O 0.5705 0.72363 0.71579 0.0
O346 O 0.52328 0.72533 0.80693 0.0
O347 O 0.5405 0.74265 0.68018 0.0
O348 O 0.54034 0.69474 0.57431 0.0
O349 O 0.51548 0.70203 0.56149 0.0
O350 O 0.49805 0.67981 0.72895 0.0
O351 O 0.50129 0.65469 0.63872 0.0
H352 H 0.58697 0.66227 0.5491 0.0
H353 H 0.61161 0.65051 0.48843 0.0
H354 H 0.56121 0.58394 0.51948 0.0
H355 H 0.53697 0.59585 0.58099 0.0
H356 H 0.48875 0.72627 0.8292 0.0
H357 H 0.46428 0.74039 0.81386 0.0
H358 H 0.51084 0.79216 0.63891 0.0
H359 H 0.5358 0.77824 0.65699 0.0
H360 H 0.14524 0.36582 0.90957 0.0
H361 H 0.09607 0.33878 0.6919 0.0
H362 H 0.10899 0.37519 0.62853 0.0
H363 H 0.14265 0.41455 0.94625 0.0
H364 H 0.17135 0.43162 0.964 0.0
H365 H 0.15836 0.40338 -0.00639 0.0
H366 H 0.18501 0.39896 0.88555 0.0
H367 H 0.19804 0.42718 0.85538 0.0
H368 H 0.18748 0.40703 0.76415 0.0
H369 H 0.12686 0.41422 0.58728 0.0
H370 H 0.14795 0.45374 0.57306 0.0
H371 H 0.18653 0.45689 0.81479 0.0
C372 C 0.13723 0.36753 0.84836 0.0
C373 C 0.11939 0.34919 0.80657 0.0
C374 C 0.10939 0.35238 0.72684 0.0
C375 C 0.11676 0.37307 0.68959 0.0
C376 C 0.13426 0.39067 0.73228 0.0
C377 C 0.14438 0.38822 0.81007 0.0
C378 C 0.16276 0.41007 0.84261 0.0
C379 C 0.15852 0.4152 0.94255 0.0
C380 C 0.18462 0.41085 0.83655 0.0
C381 C 0.16136 0.42511 0.7708 0.0
C382 C 0.14477 0.41345 0.70793 0.0
C383 C 0.13989 0.42351 0.63607 0.0
C384 C 0.15203 0.44607 0.62866 0.0
C385 C 0.16902 0.45861 0.6925 0.0
C386 C 0.17384 0.44785 0.76414 0.0
H387 H 0.70169 0.80929 0.85006 0.0
H388 H 0.72367 0.76432 0.7808 0.0
H389 H 0.68674 0.73747 0.73257 0.0
H390 H 0.64937 0.76975 0.9418 0.0
H391 H 0.63523 0.78244 0.89294 0.0
H392 H 0.66348 0.79851 0.92251 0.0
H393 H 0.67198 0.81329 0.75263 0.0
H394 H 0.64375 0.7972 0.72243 0.0
H395 H 0.66377 0.79466 0.6556 0.0
H396 H 0.64811 0.71563 0.68818 0.0
H397 H 0.60928 0.69882 0.65863 0.0
H398 H 0.6103 0.75683 0.75683 0.0
C399 C 0.69878 0.79383 0.82445 0.0
C400 C 0.71584 0.78902 0.82024 0.0
C401 C 0.71106 0.76843 0.78681 0.0
C402 C 0.69008 0.75306 0.75825 0.0
C403 C 0.67378 0.75833 0.76309 0.0
C404 C 0.67775 0.77813 0.79572 0.0
C405 C 0.657 0.77933 0.7943 0.0
C406 C 0.65091 0.7827 0.89383 0.0
C407 C 0.65926 0.79718 0.72726 0.0
C408 C 0.64078 0.75704 0.75653 0.0
C409 C 0.65104 0.7454 0.73832 0.0
C410 C 0.6399 0.72456 0.70241 0.0
C411 C 0.61767 0.71515 0.68565 0.0
C412 C 0.60635 0.72634 0.70524 0.0
C413 C 0.61828 0.74775 0.74077 0.0
H414 H 0.26481 0.92025 0.89437 0.0
H415 H 0.30753 0.98383 0.77766 0.0
H416 H 0.33246 0.97166 0.72496 0.0
H417 H 0.3078 0.91097 0.97878 0.0
H418 H 0.29338 0.88261 0.95065 0.0
H419 H 0.27864 0.89615 0.97989 0.0
H420 H 0.25774 0.88345 0.82271 0.0
H421 H 0.2725 0.86997 0.79279 0.0
H422 H 0.27261 0.88973 0.71397 0.0
H423 H 0.35269 0.95284 0.68186 0.0
H424 H 0.36766 0.929 0.6559 0.0
H425 H 0.31296 0.87723 0.80275 0.0
C426 C 0.27951 0.93171 0.85864 0.0
C427 C 0.28393 0.95305 0.83958 0.0
C428 C 0.30336 0.96732 0.79169 0.0
C429 C 0.31777 0.96059 0.76184 0.0
C430 C 0.31278 0.93948 0.78052 0.0
C431 C 0.29421 0.92524 0.82831 0.0
C432 C 0.29288 0.90341 0.83907 0.0
C433 C 0.29319 0.89797 0.9433 0.0
C434 C 0.27273 0.88559 0.78915 0.0
C435 C 0.31355 0.90765 0.78957 0.0
C436 C 0.32469 0.92859 0.75636 0.0
C437 C 0.34412 0.93643 0.70781 0.0
C438 C 0.3525 0.92264 0.69321 0.0
C439 C 0.34162 0.90108 0.72693 0.0
C440 C 0.32176 0.89355 0.77576 0.0
H441 H 0.37942 0.106 0.10233 0.0
H442 H 0.3796 0.1536 0.29168 0.0
H443 H 0.34014 0.13668 0.27462 0.0
H444 H 0.33736 0.10226 0.94574 0.0
H445 H 0.32487 0.07352 0.92846 0.0
H446 H 0.35338 0.08929 0.95391 0.0
H447 H 0.34833 0.06473 0.09629 0.0
H448 H 0.31981 0.04887 0.07118 0.0
H449 H 0.32882 0.06084 0.18557 0.0
H450 H 0.30105 0.11547 0.23738 0.0
H451 H 0.26395 0.09022 0.1872 0.0
H452 H 0.28703 0.05472 0.02246 0.0
C453 C 0.37113 0.11287 0.13993 0.0
C454 C 0.38279 0.13114 0.19922 0.0
C455 C 0.37119 0.13948 0.24733 0.0
C456 C 0.34871 0.13005 0.23755 0.0
C457 C 0.33774 0.1121 0.17945 0.0
C458 C 0.34844 0.10345 0.13164 0.0
C459 C 0.33236 0.08374 0.07514 0.0
C460 C 0.33729 0.08743 0.96953 0.0
C461 C 0.33233 0.06333 0.10909 0.0
C462 C 0.31106 0.08278 0.09875 0.0
C463 C 0.31475 0.09945 0.15871 0.0
C464 C 0.29796 0.10232 0.1906 0.0
C465 C 0.27681 0.08778 0.16128 0.0
C466 C 0.27225 0.07026 0.1006 0.0
C467 C 0.2898 0.06784 0.06881 0.0
H468 H 0.9343 0.25514 0.25611 0.0
H469 H 0.95828 0.306 0.04623 0.0
H470 H 0.98115 0.29264 0.97979 0.0
H471 H 0.98471 0.25557 0.29116 0.0
H472 H 0.97216 0.22671 0.30408 0.0
H473 H 0.95757 0.24021 0.33661 0.0
H474 H 0.92636 0.21524 0.22493 0.0
H475 H 0.9409 0.20172 0.19178 0.0
H476 H 0.9321 0.21358 0.10294 0.0
H477 H 1.00145 0.27415 0.93459 0.0
H478 H 1.01884 0.25223 0.91573 0.0
H479 H 0.98197 0.21226 0.15174 0.0
C480 C 0.94429 0.26344 0.19596 0.0
C481 C 0.94451 0.28188 0.15734 0.0
C482 C 0.95804 0.29222 0.0789 0.0
C483 C 0.97099 0.28461 0.03986 0.0
C484 C 0.97037 0.2665 0.07941 0.0
C485 C 0.95744 0.25602 0.15584 0.0
C486 C 0.9601 0.23697 0.18484 0.0
C487 C 0.96917 0.24006 0.28513 0.0
C488 C 0.93858 0.21561 0.17555 0.0
C489 C 0.97651 0.23842 0.11269 0.0
C490 C 0.98211 0.25561 0.05267 0.0
C491 C 0.99717 0.26064 0.98112 0.0
C492 C 1.00699 0.24802 0.97106 0.0
C493 C 1.00185 0.23039 0.03197 0.0
C494 C 0.98616 0.22545 0.10333 0.0
H495 H 0.85284 0.78887 0.1339 0.0
H496 H 0.81325 0.78757 0.89961 0.0
H497 H 0.79139 0.7481 0.91185 0.0
H498 H 0.852 0.73855 0.07505 0.0
H499 H 0.85012 0.73002 0.19547 0.0
H500 H 0.86345 0.75837 0.16745 0.0
H501 H 0.83801 0.76318 0.28159 0.0
H502 H 0.82456 0.73484 0.30972 0.0
H503 H 0.80913 0.74674 0.26705 0.0
H504 H 0.77297 0.70886 0.94957 0.0
H505 H 0.75956 0.67205 0.00876 0.0
H506 H 0.8099 0.69712 0.22171 0.0
C507 C 0.83975 0.78023 0.08448 0.0
C508 C 0.83493 0.79157 0.01544 0.0
C509 C 0.8174 0.77952 0.95322 0.0
C510 C 0.8048 0.75696 0.95949 0.0
C511 C 0.80973 0.74634 0.02864 0.0
C512 C 0.82679 0.75748 0.09005 0.0
C513 C 0.8281 0.74184 0.15899 0.0
C514 C 0.8497 0.74222 0.14859 0.0
C515 C 0.82475 0.74696 0.26035 0.0
C516 C 0.80917 0.72031 0.12639 0.0
C517 C 0.79885 0.72342 0.05112 0.0
C518 C 0.78088 0.70623 0.00874 0.0
C519 C 0.77323 0.68529 0.04368 0.0
C520 C 0.78337 0.68138 0.12091 0.0
C521 C 0.80172 0.69933 0.16241 0.0
H522 H 0.0416 0.43646 0.43943 0.0
H523 H 0.04208 0.48778 0.60364 0.0
H524 H 1.00286 0.47149 0.57979 0.0
H525 H 1.00144 0.43138 0.26893 0.0
H526 H 0.98832 0.40239 0.26112 0.0
H527 H 1.01667 0.41792 0.28999 0.0
H528 H 1.00982 0.39556 0.44196 0.0
H529 H 0.98148 0.37992 0.41334 0.0
H530 H 0.98984 0.39363 0.52473 0.0
H531 H 0.96404 0.45051 0.53798 0.0
H532 H 0.92708 0.42498 0.48692 0.0
H533 H 0.9499 0.38587 0.34987 0.0
C534 C 0.03344 0.44427 0.47015 0.0
C535 C 0.04507 0.4634 0.52433 0.0
C536 C 0.03364 0.47298 0.56351 0.0
C537 C 1.01132 0.46392 0.54969 0.0
C538 C 1.00039 0.44514 0.49651 0.0
C539 C 1.01093 0.43528 0.45763 0.0
C540 C 0.99494 0.41489 0.40487 0.0
C541 C 1.00069 0.41676 0.29999 0.0
C542 C 0.99397 0.39481 0.44887 0.0
C543 C 0.97386 0.41495 0.42026 0.0
C544 C 0.97757 0.43268 0.47296 0.0
C545 C 0.96092 0.43653 0.49682 0.0
C546 C 0.93987 0.42184 0.4671 0.0
C547 C 0.93531 0.40324 0.41408 0.0
C548 C 0.95271 0.39988 0.38999 0.0
H549 H 0.59313 0.58152 0.55521 0.0
H550 H 0.61716 0.63386 0.35269 0.0
H551 H 0.64104 0.6217 0.28547 0.0
H552 H 0.6439 0.58313 0.5929 0.0
H553 H 0.63187 0.55426 0.60273 0.0
H554 H 0.61659 0.56702 0.6356 0.0
H555 H 0.58618 0.54226 0.52017 0.0
H556 H 0.6014 0.52947 0.48672 0.0
H557 H 0.59264 0.54148 0.3984 0.0
H558 H 0.66242 0.60409 0.2396 0.0
H559 H 0.68058 0.58285 0.22026 0.0
H560 H 0.64269 0.54105 0.44991 0.0
C561 C 0.60329 0.59036 0.49629 0.0
C562 C 0.6032 0.6088 0.45969 0.0
C563 C 0.61707 0.61997 0.38329 0.0
C564 C 0.63061 0.61306 0.344 0.0
C565 C 0.63023 0.59487 0.38153 0.0
C566 C 0.61699 0.58368 0.45613 0.0
C567 C 0.61998 0.56478 0.48372 0.0
C568 C 0.6286 0.56747 0.58473 0.0
C569 C 0.59879 0.54322 0.4715 0.0
C570 C 0.63691 0.56706 0.4127 0.0
C571 C 0.64254 0.58457 0.35458 0.0
C572 C 0.65809 0.59033 0.28462 0.0
C573 C 0.66835 0.5781 0.27424 0.0
C574 C 0.6631 0.56015 0.3332 0.0
C575 C 0.64695 0.55449 0.40291 0.0
H576 H 0.52059 0.11721 0.47656 0.0
H577 H 0.4711 0.1166 0.29721 0.0
H578 H 0.44913 0.07708 0.31492 0.0
H579 H 0.51557 0.06726 0.39266 0.0
H580 H 0.51961 0.05884 0.50653 0.0
H581 H 0.53162 0.08716 0.47994 0.0
H582 H 0.51276 0.09223 0.62492 0.0
H583 H 0.50071 0.06393 0.652 0.0
H584 H 0.48382 0.07579 0.63693 0.0
H585 H 0.43242 0.03731 0.35056 0.0
H586 H 0.42225 1.00056 0.40155 0.0
H587 H 0.48183 0.02645 0.56229 0.0
C588 C 0.50516 0.10879 0.44074 0.0
C589 C 0.4977 0.12023 0.38514 0.0
C590 C 0.4773 0.10841 0.34014 0.0
C591 C 0.46464 0.08587 0.34977 0.0
C592 C 0.47244 0.07514 0.405 0.0
C593 C 0.49221 0.08619 0.44992 0.0
C594 C 0.49669 0.0707 0.5057 0.0
C595 C 0.51708 0.07101 0.46899 0.0
C596 C 0.49861 0.07598 0.61114 0.0
C597 C 0.47643 0.04924 0.4847 0.0
C598 C 0.46266 0.05221 0.42649 0.0
C599 C 0.44304 0.03484 0.39671 0.0
C600 C 0.4373 1.01393 0.42692 0.0
C601 C 0.45102 1.01028 0.487 0.0
C602 C 0.47091 0.0284 0.51594 0.0
H603 H 0.11329 0.10008 0.12248 0.0
H604 H 0.16526 0.13668 0.92444 0.0
H605 H 0.1494 0.1594 0.88735 0.0
H606 H 0.07053 0.10148 0.98375 0.0
H607 H 0.05708 0.1043 0.08523 0.0
H608 H 0.072 0.09021 0.09488 0.0
H609 H 0.09485 0.11576 0.22969 0.0
H610 H 0.08006 0.12997 0.22021 0.0
H611 H 0.10914 0.14453 0.21059 0.0
H612 H 0.12924 0.17933 0.87577 0.0
H613 H 0.10524 0.19463 0.88644 0.0
H614 H 0.06516 0.14517 0.08874 0.0
C615 C 0.12116 0.11268 0.07036 0.0
C616 C 0.14073 0.11664 0.02712 0.0
C617 C 0.15055 0.13349 0.95998 0.0
C618 C 0.14157 0.14644 0.93788 0.0
C619 C 0.1226 0.1424 0.98284 0.0
C620 C 0.11236 0.12586 0.0472 0.0
C621 C 0.09227 0.12538 0.08629 0.0
C622 C 0.07176 0.10407 0.06101 0.0
C623 C 0.09421 0.12914 0.19303 0.0
C624 C 0.09302 0.14435 0.03449 0.0
C625 C 0.11068 0.15386 0.97519 0.0
C626 C 0.11528 0.17194 0.92154 0.0
C627 C 0.10152 0.18057 0.9284 0.0
C628 C 0.0832 0.17118 -0.01165 0.0
C629 C 0.07892 0.1527 0.04181 0.0
H630 H 0.92143 0.94166 0.08038 0.0
H631 H 0.87057 0.93089 0.88296 0.0
H632 H 0.88486 0.96995 0.87314 0.0
H633 H 0.92136 0.98551 0.20449 0.0
H634 H 0.95025 1.00083 0.22112 0.0
H635 H 0.93677 0.97187 0.21105 0.0
H636 H 0.962 0.97547 0.07342 0.0
H637 H 0.97555 1.00446 0.08301 0.0
H638 H 0.96387 0.99155 0.9726 0.0
H639 H 0.90368 1.00987 0.88483 0.0
H640 H 0.92566 0.04859 0.92034 0.0
H641 H 0.96479 0.03534 0.11266 0.0
C642 C 0.9134 0.94754 0.03462 0.0
C643 C 0.89476 0.93292 0.98241 0.0
C644 C 0.88475 0.94147 0.92405 0.0
C645 C 0.8928 0.96376 0.91765 0.0
C646 C 0.91099 0.97764 0.97007 0.0
C647 C 0.92123 0.96998 0.02762 0.0
C648 C 0.94023 0.9887 0.07804 0.0
C649 C 0.93695 0.9866 0.18503 0.0
C650 C 0.96169 0.99012 0.05009 0.0
C651 C 0.93888 1.00794 0.04019 0.0
C652 C 0.92189 1.00104 0.97766 0.0
C653 C 0.91699 1.01547 0.93392 0.0
C654 C 0.92955 0.03751 0.95513 0.0
C655 C 0.94692 0.04523 0.02016 0.0
C656 C 0.95175 0.03011 0.06228 0.0
H657 H 0.03084 0.94821 0.11578 0.0
H658 H 1.01802 0.89364 0.9394 0.0
H659 H 0.05721 0.90863 0.91766 0.0
H660 H 0.07675 0.9883 0.98309 0.0
H661 H 0.09164 1.00324 0.08519 0.0
H662 H 0.0625 0.98826 0.08759 0.0
H663 H 0.06348 0.96751 0.23474 0.0
H664 H 0.09262 0.98242 0.2327 0.0
H665 H 0.07839 0.95333 0.23092 0.0
H666 H 0.09812 0.92923 0.91642 0.0
H667 H 0.13738 0.95448 0.93158 0.0
H668 H 0.12429 0.9962 0.10707 0.0
C669 C 0.03626 0.93936 0.07286 0.0
C670 C 1.0211 0.9197 0.02887 0.0
C671 C 0.02909 0.90884 0.97269 0.0
C672 C 0.05142 0.91718 0.96038 0.0
C673 C 0.06585 0.93654 0.00433 0.0
C674 C 0.05862 0.94758 0.05914 0.0
C675 C 0.07765 0.96824 0.09745 0.0
C676 C 0.0771 0.98819 0.06115 0.0
C677 C 0.07805 0.96784 0.20536 0.0
C678 C 0.09665 0.96701 0.05598 0.0
C679 C 0.08945 0.94854 0.00276 0.0
C680 C 0.10391 0.94376 0.95785 0.0
C681 C 0.12627 0.95824 0.96706 0.0
C682 C 0.13416 0.97744 0.02049 0.0
C683 C 0.11896 0.98174 0.06556 0.0
H684 H 0.72713 0.47581 0.39235 0.0
H685 H 0.76826 0.52583 0.19429 0.0
H686 H 0.79252 0.51075 0.18719 0.0
H687 H 0.77036 0.47533 0.51982 0.0
H688 H 0.75607 0.44654 0.53835 0.0
H689 H 0.74122 0.46062 0.52567 0.0
H690 H 0.71924 0.43523 0.38898 0.0
H691 H 0.73406 0.42109 0.40106 0.0
H692 H 0.73331 0.43257 0.28942 0.0
H693 H 0.81278 0.49088 0.20191 0.0
H694 H 0.82847 0.46812 0.24137 0.0
H695 H 0.7753 0.43096 0.43333 0.0
C696 C 0.74116 0.48351 0.34699 0.0
C697 C 0.74566 0.50207 0.29366 0.0
C698 C 0.76436 0.51169 0.23599 0.0
C699 C 0.77827 0.50318 0.23122 0.0
C700 C 0.77344 0.48501 0.28469 0.0
C701 C 0.7554 0.47527 0.34177 0.0
C702 C 0.75444 0.45625 0.39406 0.0
C703 C 0.7556 0.45991 0.50081 0.0
C704 C 0.73405 0.43503 0.36673 0.0
C705 C 0.77481 0.45692 0.35766 0.0
C706 C 0.7854 0.47362 0.29429 0.0
C707 C 0.80467 0.4778 0.2517 0.0
C708 C 0.81354 0.46482 0.27513 0.0
C709 C 0.80334 0.44778 0.34125 0.0
C710 C 0.78349 0.44369 0.38207 0.0
H711 H 0.58914 0.36427 0.33875 0.0
H712 H 0.654 0.37877 0.41445 0.0
H713 H 0.64189 0.34005 0.41359 0.0
H714 H 0.56042 0.31566 0.4762 0.0
H715 H 0.53945 0.30118 0.39056 0.0
H716 H 0.5529 0.33022 0.39561 0.0
H717 H 0.56324 0.33245 0.22023 0.0
H718 H 0.54978 0.30341 0.21458 0.0
H719 H 0.57777 0.31936 0.18061 0.0
H720 H 0.62329 0.30014 0.40929 0.0
H721 H 0.59948 0.26103 0.39837 0.0
H722 H 0.5458 0.27018 0.32004 0.0
C723 C 0.60086 0.35934 0.35431 0.0
C724 C 0.62261 0.3749 0.37797 0.0
C725 C 0.63722 0.36746 0.39834 0.0
C726 C 0.63052 0.34538 0.39731 0.0
C727 C 0.60908 0.33059 0.3751 0.0
C728 C 0.59441 0.33714 0.35344 0.0
C729 C 0.57224 0.31753 0.33255 0.0
C730 C 0.55525 0.31607 0.40293 0.0
C731 C 0.56535 0.31823 0.23094 0.0
C732 C 0.5768 0.29903 0.34645 0.0
C733 C 0.59822 0.30714 0.37106 0.0
C734 C 0.60651 0.29362 0.3897 0.0
C735 C 0.59269 0.27125 0.38341 0.0
C736 C 0.57057 0.26216 0.35821 0.0
C737 C 0.56259 0.27643 0.33893 0.0
H738 H 0.69415 0.27235 0.45326 0.0
H739 H 0.68408 0.21751 0.28503 0.0
H740 H 0.72331 0.23493 0.25727 0.0
H741 H 0.73772 0.31349 0.30982 0.0
H742 H 0.75259 0.32983 0.40908 0.0
H743 H 0.72357 0.31327 0.41498 0.0
H744 H 0.7271 0.29478 0.56489 0.0
H745 H 0.75613 0.31122 0.5592 0.0
H746 H 0.74356 0.28222 0.56212 0.0
H747 H 0.76375 0.25773 0.24988 0.0
H748 H 0.80255 0.28476 0.26063 0.0
H749 H 0.78715 0.3255 0.43148 0.0
C750 C 0.70016 0.2641 0.40973 0.0
C751 C 0.68585 0.24337 0.3721 0.0
C752 C 0.69457 0.23315 0.31625 0.0
C753 C 0.7169 0.243 0.29951 0.0
C754 C 0.73052 0.26321 0.33863 0.0
C755 C 0.72253 0.27374 0.39225 0.0
C756 C 0.74087 0.29532 0.42677 0.0
C757 C 0.73854 0.31409 0.38782 0.0
C758 C 0.74197 0.29591 0.53465 0.0
C759 C 0.76035 0.29518 0.38443 0.0
C760 C 0.75396 0.27648 0.33387 0.0
C761 C 0.76894 0.27247 0.28909 0.0
C762 C 0.79102 0.28796 0.29579 0.0
C763 C 0.7981 0.30737 0.34687 0.0
C764 C 0.7824 0.31091 0.39172 0.0
H765 H 0.49297 0.80971 0.71467 0.0
H766 H 0.44138 0.74277 0.70227 0.0
H767 H 0.41462 0.7546 0.68833 0.0
H768 H 0.46425 0.82961 0.84918 0.0
H769 H 0.47489 0.85482 0.78675 0.0
H770 H 0.49049 0.84142 0.79434 0.0
H771 H 0.49313 0.84152 0.61308 0.0
H772 H 0.47757 0.85496 0.60494 0.0
H773 H 0.46872 0.82986 0.5438 0.0
H774 H 0.39302 0.77299 0.68258 0.0
H775 H 0.37775 0.79701 0.67933 0.0
H776 H 0.44248 0.85287 0.68756 0.0
C777 C 0.47608 0.79753 0.70796 0.0
C778 C 0.46944 0.77518 0.71107 0.0
C779 C 0.44705 0.75991 0.70262 0.0
C780 C 0.43164 0.76648 0.6938 0.0
C781 C 0.43867 0.78847 0.69246 0.0
C782 C 0.46033 0.80384 0.69855 0.0
C783 C 0.46329 0.82647 0.69587 0.0
C784 C 0.47386 0.8388 0.78696 0.0
C785 C 0.47646 0.83894 0.60926 0.0
C786 C 0.43989 0.82134 0.6882 0.0
C787 C 0.42606 0.79926 0.68659 0.0
C788 C 0.4037 0.7903 0.68316 0.0
C789 C 0.39517 0.80417 0.68173 0.0
C790 C 0.40882 0.82692 0.68305 0.0
C791 C 0.43158 0.83559 0.68545 0.0
H792 H 0.25159 0.60839 0.76019 0.0
H793 H 0.20174 0.59685 0.55578 0.0
H794 H 0.21565 0.63586 0.54465 0.0
H795 H 0.25009 0.65199 0.88022 0.0
H796 H 0.27886 0.66754 0.90028 0.0
H797 H 0.26568 0.63859 0.89076 0.0
H798 H 0.29189 0.64236 0.75717 0.0
H799 H 0.30514 0.67134 0.76621 0.0
H800 H 0.29426 0.65832 0.65514 0.0
H801 H 0.23414 0.67584 0.55535 0.0
H802 H 0.25569 0.71461 0.59048 0.0
H803 H 0.29382 0.70189 0.79082 0.0
C804 C 0.24369 0.61409 0.71272 0.0
C805 C 0.22547 0.5993 0.65883 0.0
C806 C 0.2156 0.60759 0.59816 0.0
C807 C 0.22344 0.62984 0.59102 0.0
C808 C 0.24124 0.6439 0.64507 0.0
C809 C 0.25128 0.63645 0.70499 0.0
C810 C 0.26984 0.65529 0.75676 0.0
C811 C 0.26587 0.65322 0.86333 0.0
C812 C 0.29157 0.65692 0.73235 0.0
C813 C 0.26851 0.67436 0.71679 0.0
C814 C 0.2519 0.66728 0.65217 0.0
C815 C 0.24714 0.68157 0.60612 0.0
C816 C 0.25944 0.70364 0.62715 0.0
C817 C 0.2764 0.71152 0.69431 0.0
C818 C 0.2811 0.69654 0.7388 0.0
H819 H 0.45676 0.66388 0.78154 0.0
H820 H 0.46687 0.62669 0.56698 0.0
H821 H 0.42764 0.60302 0.55181 0.0
H822 H 0.41139 0.61833 0.89238 0.0
H823 H 0.39677 0.63225 0.91655 0.0
H824 H 0.42586 0.64716 0.90956 0.0
H825 H 0.42386 0.67188 0.78209 0.0
H826 H 0.39474 0.65701 0.78852 0.0
H827 H 0.40807 0.65999 0.67754 0.0
H828 H 0.38771 0.58282 0.5591 0.0
H829 H 0.34885 0.5663 0.59263 0.0
H830 H 0.36271 0.61517 0.80444 0.0
C831 C 0.4507 0.65081 0.73115 0.0
C832 C 0.46515 0.64726 0.67561 0.0
C833 C 0.4564 0.62985 0.6109 0.0
C834 C 0.43402 0.61627 0.60132 0.0
C835 C 0.42029 0.6201 0.65693 0.0
C836 C 0.42816 0.63686 0.72087 0.0
C837 C 0.40953 0.63679 0.77344 0.0
C838 C 0.41098 0.63343 0.87927 0.0
C839 C 0.40903 0.65766 0.75423 0.0
C840 C 0.39009 0.61731 0.72927 0.0
C841 C 0.39684 0.6081 0.6619 0.0
C842 C 0.38222 0.58985 0.6119 0.0
C843 C 0.36012 0.58049 0.6319 0.0
C844 C 0.35257 0.58921 0.70183 0.0
C845 C 0.36786 0.60814 0.75022 0.0
H846 H 0.06228 0.20933 0.7304 0.0
H847 H 0.99299 0.16449 0.72099 0.0
H848 H 0.99419 0.1643 0.54937 0.0
H849 H 0.063 0.24077 0.53318 0.0
H850 H 0.08857 0.2456 0.48749 0.0
H851 H 0.08307 0.24121 0.61141 0.0
H852 H 0.09119 0.20979 0.60654 0.0
H853 H 0.09663 0.21403 0.4824 0.0
H854 H 0.07662 0.18783 0.5254 0.0
H855 H 1.00147 0.16936 0.38393 0.0
H856 H 1.01437 0.18132 0.22433 0.0
H857 H 0.07933 0.22376 0.32984 0.0
C858 C 0.04748 0.19941 0.69174 0.0
C859 C 1.02757 0.18682 0.73885 0.0
C860 C 1.00843 0.17422 0.68647 0.0
C861 C 1.00893 0.1739 0.58884 0.0
C862 C 1.02866 0.18638 0.54433 0.0
C863 C 0.04761 0.19908 0.59312 0.0
C864 C 0.06624 0.21193 0.52569 0.0
C865 C 0.07578 0.23632 0.54032 0.0
C866 C 0.0837 0.2055 0.53562 0.0
C867 C 0.05458 0.20458 0.43196 0.0
C868 C 0.03296 0.18965 0.44555 0.0
C869 C 1.01838 0.1809 0.3719 0.0
C870 C 1.02592 0.18784 0.28136 0.0
C871 C 0.04787 0.20335 0.26468 0.0
C872 C 0.06254 0.21166 0.34078 0.0
H873 H 0.86655 0.88308 0.71678 0.0
H874 H 0.87513 0.82725 0.73085 0.0
H875 H 0.8663 0.82023 0.56324 0.0
H876 H 0.82203 0.86039 0.53882 0.0
H877 H 0.83216 0.88588 0.47925 0.0
H878 H 0.83646 0.88526 0.60374 0.0
H879 H 0.87772 0.90977 0.57895 0.0
H880 H 0.87359 0.91034 0.45451 0.0
H881 H 0.89157 0.90149 0.49793 0.0
H882 H 0.86068 0.821 0.39617 0.0
H883 H 0.85743 0.82889 0.23189 0.0
H884 H 0.85217 0.88435 0.31684 0.0
C885 C 0.86608 0.86916 0.68448 0.0
C886 C 0.87147 0.85565 0.73617 0.0
C887 C 0.87111 0.8378 0.69207 0.0
C888 C 0.86602 0.83361 0.59711 0.0
C889 C 0.86133 0.84745 0.5472 0.0
C890 C 0.86118 0.86482 0.58869 0.0
C891 C 0.8571 0.87792 0.51595 0.0
C892 C 0.83566 0.87732 0.53562 0.0
C893 C 0.87613 0.90126 0.51161 0.0
C894 C 0.85569 0.86551 0.4272 0.0
C895 C 0.85798 0.8479 0.44793 0.0
C896 C 0.85858 0.83455 0.37883 0.0
C897 C 0.85689 0.83931 0.28549 0.0
C898 C 0.85455 0.85724 0.26166 0.0
C899 C 0.8537 0.87041 0.33347 0.0
H900 H 0.19709 1.00382 0.76233 0.0
H901 H 0.20979 0.06984 0.75149 0.0
H902 H 0.20619 0.06752 0.58028 0.0
H903 H 0.22843 1.00861 0.5582 0.0
H904 H 0.21064 0.98159 0.51636 0.0
H905 H 0.21218 0.98738 0.64009 0.0
H906 H 0.17073 0.9719 0.64406 0.0
H907 H 0.1691 0.96624 0.52002 0.0
H908 H 0.15866 0.9827 0.56571 0.0
H909 H 0.20272 0.05954 0.41495 0.0
H910 H 0.20319 0.0474 0.25514 0.0
H911 H 0.19389 0.98653 0.36249 0.0
C912 C 0.19898 1.01767 0.72351 0.0
C913 C 0.20358 0.03696 0.77003 0.0
C914 C 0.20623 0.05489 0.71737 0.0
C915 C 0.20406 0.05371 0.62005 0.0
C916 C 0.19947 0.03456 0.57616 0.0
C917 C 0.19724 1.01691 0.62522 0.0
C918 C 0.19405 0.99901 0.55827 0.0
C919 C 0.21242 0.99385 0.56886 0.0
C920 C 0.17181 0.97876 0.57291 0.0
C921 C 0.1952 1.00963 0.46431 0.0
C922 C 0.19796 0.02999 0.47749 0.0
C923 C 0.2004 0.04359 0.40331 0.0
C924 C 0.20061 0.03649 0.31269 0.0
C925 C 0.19844 1.01599 0.29654 0.0
C926 C 0.19524 1.00213 0.37311 0.0
H927 H 0.74119 0.5534 0.63237 0.0
H928 H 0.67522 0.51502 0.53003 0.0
H929 H 0.66224 0.50413 0.6901 0.0
H930 H 0.73573 0.51628 0.82541 0.0
H931 H 0.75194 0.53773 0.90646 0.0
H932 H 0.75701 0.54182 0.78204 0.0
H933 H 0.75239 0.57543 0.78992 0.0
H934 H 0.74714 0.57135 0.91414 0.0
H935 H 0.72781 0.57281 0.83762 0.0
H936 H 0.65528 0.49932 0.85511 0.0
H937 H 0.6546 0.4987 0.02658 0.0
H938 H 0.72465 0.53918 0.03377 0.0
C939 C 0.72411 0.54247 0.64417 0.0
C940 C 0.70922 0.53498 0.56872 0.0
C941 C 0.68695 0.52092 0.58645 0.0
C942 C 0.67935 0.5146 0.67731 0.0
C943 C 0.6942 0.52247 0.75018 0.0
C944 C 0.71611 0.53595 0.73569 0.0
C945 C 0.72812 0.54238 0.82894 0.0
C946 C 0.74415 0.53405 0.83612 0.0
C947 C 0.73954 0.56695 0.84348 0.0
C948 C 0.70938 0.53061 0.89699 0.0
C949 C 0.69007 0.51931 0.84892 0.0
C950 C 0.67027 0.50784 0.89403 0.0
C951 C 0.67009 0.50768 -0.0084 0.0
C952 C 0.68959 0.51876 0.0433 0.0
C953 C 0.70956 0.53043 -0.00441 0.0
H954 H 0.53474 0.17252 0.62829 0.0
H955 H 0.52054 0.22485 0.62248 0.0
H956 H 0.52661 0.22974 0.79235 0.0
H957 H 0.50836 0.14984 0.84535 0.0
H958 H 0.52804 0.1431 0.8874 0.0
H959 H 0.52406 0.1442 0.76306 0.0
H960 H 0.56481 0.17186 0.74214 0.0
H961 H 0.56897 0.17074 0.86642 0.0
H962 H 0.57705 0.1963 0.8108 0.0
H963 H 0.53137 0.22786 0.95921 0.0
H964 H 0.53664 0.22056 0.12189 0.0
H965 H 0.54874 0.16977 0.02862 0.0
C966 C 0.53319 0.18513 0.66308 0.0
C967 C 0.52709 0.19827 0.61272 0.0
C968 C 0.52506 0.21453 0.66 0.0
C969 C 0.52852 0.21749 0.75641 0.0
C970 C 0.53408 0.2041 0.80456 0.0
C971 C 0.53658 0.18832 0.76025 0.0
C972 C 0.54205 0.17586 0.83095 0.0
C973 C 0.52458 0.15183 0.83171 0.0
C974 C 0.56456 0.17888 0.8114 0.0
C975 C 0.54186 0.18697 0.92154 0.0
C976 C 0.53722 0.2032 0.90361 0.0
C977 C 0.53525 0.21538 0.97448 0.0
C978 C 0.53822 0.21103 0.06678 0.0
C979 C 0.54323 0.19469 0.08775 0.0
C980 C 0.54511 0.18247 0.01421 0.0
H981 H 0.84685 0.31891 0.6807 0.0
H982 H 0.89921 0.38176 0.5946 0.0
H983 H 0.90707 0.39299 0.75836 0.0
H984 H 0.82766 0.33824 0.86141 0.0
H985 H 0.82112 0.31653 0.94282 0.0
H986 H 0.82087 0.31189 0.81852 0.0
H987 H 0.84801 0.29828 0.84225 0.0
H988 H 0.84835 0.30292 0.96685 0.0
H989 H 0.8733 0.31528 0.90144 0.0
H990 H 0.90741 0.39939 0.92486 0.0
H991 H 0.89976 0.40068 0.09232 0.0
H992 H 0.84777 0.33401 0.07992 0.0
C993 C 0.86014 0.33486 0.697 0.0
C994 C 0.87232 0.34948 0.62491 0.0
C995 C 0.88944 0.37035 0.64828 0.0
C996 C 0.89424 0.37686 0.74141 0.0
C997 C 0.8818 0.36234 0.81084 0.0
C998 C 0.86511 0.34177 0.79064 0.0
C999 C 0.85333 0.33023 0.87976 0.0
C1000 C 0.82932 0.32385 0.87533 0.0
C1001 C 0.85591 0.31051 0.89867 0.0
C1002 C 0.86559 0.34787 0.95181 0.0
C1003 C 0.88212 0.3661 0.90996 0.0
C1004 C 0.89478 0.38514 0.95917 0.0
C1005 C 0.89025 0.38576 0.05392 0.0
C1006 C 0.8733 0.36744 0.09823 0.0
C1007 C 0.86106 0.34809 0.04736 0.0
H1008 H 0.33884 0.85056 0.36343 0.0
H1009 H 0.40072 0.85953 0.45736 0.0
H1010 H 0.41286 0.86307 0.29448 0.0
H1011 H 0.3348 0.82043 0.14856 0.0
H1012 H 0.32362 0.83352 0.07893 0.0
H1013 H 0.31859 0.83016 0.20355 0.0
H1014 H 0.33412 0.87135 0.2217 0.0
H1015 H 0.33907 0.87479 0.09719 0.0
H1016 H 0.36091 0.88977 0.17858 0.0
H1017 H 0.41926 0.8666 0.12717 0.0
H1018 H 0.4207 0.87268 0.9571 0.0
H1019 H 0.35546 0.86259 0.9633 0.0
C1020 C 0.35484 0.85312 0.34911 0.0
C1021 C 0.36878 0.85463 0.42282 0.0
C1022 C 0.38974 0.85827 0.40205 0.0
C1023 C 0.39679 0.8602 0.30966 0.0
C1024 C 0.38278 0.8586 0.23858 0.0
C1025 C 0.36234 0.85535 0.25637 0.0
C1026 C 0.35127 0.85558 0.1656 0.0
C1027 C 0.33086 0.83361 0.14816 0.0
C1028 C 0.34604 0.87397 0.16581 0.0
C1029 C 0.36888 0.85976 0.09506 0.0
C1030 C 0.38674 0.86115 0.13939 0.0
C1031 C 0.4054 0.86551 0.09118 0.0
C1032 C 0.40607 0.86898 -0.00528 0.0
C1033 C 0.38824 0.86818 0.94765 0.0
C1034 C 0.36924 0.86315 -0.00205 0.0
H1035 H 0.18244 0.54958 -0.00577 0.0
H1036 H 0.19041 0.49575 0.90861 0.0
H1037 H 0.19493 0.48862 0.07242 0.0
H1038 H 0.22247 0.5687 0.17138 0.0
H1039 H 0.2082 0.57612 0.25398 0.0
H1040 H 0.20319 0.57608 0.13004 0.0
H1041 H 0.16228 0.54999 0.15783 0.0
H1042 H 0.1672 0.54999 0.28205 0.0
H1043 H 0.15361 0.52486 0.21853 0.0
H1044 H 0.20167 0.48861 0.23901 0.0
H1045 H 0.21054 0.49591 0.40652 0.0
H1046 H 0.19825 0.54941 0.394 0.0
C1047 C 0.18479 0.53613 0.01065 0.0
C1048 C 0.18611 0.52325 0.93859 0.0
C1049 C 0.18952 0.50596 0.96224 0.0
C1050 C 0.19195 0.50164 0.05539 0.0
C1051 C 0.19096 0.51473 0.12467 0.0
C1052 C 0.18744 0.53161 0.10433 0.0
C1053 C 0.18856 0.54387 0.19331 0.0
C1054 C 0.20669 0.5676 0.18675 0.0
C1055 C 0.1666 0.54206 0.21414 0.0
C1056 C 0.19386 0.53155 0.26548 0.0
C1057 C 0.1949 0.51468 0.22368 0.0
C1058 C 0.20066 0.50158 0.27313 0.0
C1059 C 0.20577 0.50592 0.36808 0.0
C1060 C 0.20504 0.52316 0.41275 0.0
C1061 C 0.19868 0.53598 0.36135 0.0
H1062 H 0.51385 0.65974 0.40174 0.0
H1063 H 0.5419 0.72921 0.41548 0.0
H1064 H 0.54472 0.73143 0.24265 0.0
H1065 H 0.54578 0.65875 0.20874 0.0
H1066 H 0.52395 0.63502 0.15495 0.0
H1067 H 0.52414 0.63879 0.28006 0.0
H1068 H 0.48608 0.63483 0.2697 0.0
H1069 H 0.48585 0.6312 0.14439 0.0
H1070 H 0.48176 0.65221 0.19201 0.0
H1071 H 0.54642 0.72674 0.07473 0.0
H1072 H 0.54609 0.71537 0.91234 0.0
H1073 H 0.51421 0.6483 0.00063 0.0
C1074 C 0.52063 0.67532 0.36755 0.0
C1075 C 0.52782 0.69436 0.41995 0.0
C1076 C 0.53643 0.71456 0.37493 0.0
C1077 C 0.53803 0.71595 0.27742 0.0
C1078 C 0.53067 0.69692 0.22696 0.0
C1079 C 0.52206 0.67696 0.26976 0.0
C1080 C 0.51533 0.65913 0.19781 0.0
C1081 C 0.52806 0.64723 0.21119 0.0
C1082 C 0.49079 0.64342 0.2012 0.0
C1083 C 0.52184 0.67232 0.10825 0.0
C1084 C 0.53068 0.69406 0.1275 0.0
C1085 C 0.53914 0.70975 0.05813 0.0
C1086 C 0.53872 0.7031 0.96607 0.0
C1087 C 0.52954 0.68094 0.94403 0.0
C1088 C 0.52084 0.66529 0.01576 0.0
loop_
_geom_bond_atom_site_label_1
_geom_bond_atom_site_label_2
_geom_bond_distance
_geom_bond_site_symmetry_2
_ccdc_geom_bond_type
Sm0 C2 2.846 1_554 S
Sm0 O20 2.543 1_554 S
Sm0 O21 2.450 . S
Sm0 O22 2.681 . S
Sm0 O23 2.464 . S
Sm0 O24 2.396 . S
Sm0 O28 2.386 1_554 S
Sm0 O31 2.408 . S
Sm1 C11 2.845 1_556 S
Sm1 O22 2.381 1_656 S
Sm1 O25 2.408 1_556 S
Sm1 O26 2.539 1_556 S
Sm1 O27 2.452 . S
Sm1 O28 2.685 1_655 S
Sm1 O29 2.471 . S
Sm1 O30 2.397 1_655 S
C2 Sm0 2.846 1_556 S
C2 C3 1.506 . S
C2 O20 1.261 . S
C2 O21 1.242 1_556 S
C3 C2 1.506 . S
C3 C4 1.358 . S
C3 C8 1.382 1_556 S
C4 C3 1.358 . S
C4 C5 1.385 . S
C4 H32 0.930 . S
C5 C4 1.385 . S
C5 C6 1.395 . S
C5 H33 0.929 . S
C6 C5 1.395 . S
C6 C7 1.335 1_556 S
C7 C6 1.335 1_554 S
C7 C8 1.398 . S
C7 H34 0.930 . S
C8 C3 1.382 1_554 S
C8 C7 1.398 . S
C8 H35 0.929 . S
C9 O22 1.271 . S
C9 O23 1.251 . S
C10 O24 1.252 1_655 S
C10 O25 1.272 . S
C11 Sm1 2.845 1_554 S
C11 C12 1.506 . S
C11 O26 1.261 . S
C11 O27 1.242 1_554 S
C12 C11 1.506 . S
C12 C13 1.358 . S
C12 C17 1.382 1_554 S
C13 C12 1.358 . S
C13 C14 1.385 . S
C13 H36 0.930 . S
C14 C13 1.385 . S
C14 C15 1.395 . S
C14 H37 0.929 . S
C15 C14 1.395 . S
C15 C16 1.335 1_554 S
C16 C15 1.335 1_556 S
C16 C17 1.398 . S
C16 H38 0.930 . S
C17 C12 1.382 1_556 S
C17 C16 1.398 . S
C17 H39 0.929 . S
C18 O28 1.266 1_655 S
C18 O29 1.264 . S
C19 O30 1.252 . S
C19 O31 1.272 1_556 S
O20 Sm0 2.543 1_556 S
O20 C2 1.261 . S
O21 Sm0 2.450 . S
O21 C2 1.242 1_554 S
O22 Sm0 2.681 . S
O22 Sm1 2.381 1_454 S
O22 C9 1.271 . S
O23 Sm0 2.464 . S
O23 C9 1.251 . S
O24 Sm0 2.396 . S
O24 C10 1.252 1_455 S
O25 Sm1 2.408 1_554 S
O25 C10 1.272 . S
O26 Sm1 2.539 1_554 S
O26 C11 1.261 . S
O27 Sm1 2.452 . S
O27 C11 1.242 1_556 S
O28 Sm0 2.386 1_556 S
O28 Sm1 2.685 1_455 S
O28 C18 1.266 1_455 S
O29 Sm1 2.471 . S
O29 C18 1.264 . S
O30 Sm1 2.397 1_455 S
O30 C19 1.252 . S
O31 Sm0 2.408 . S
O31 C19 1.272 1_554 S
H32 C4 0.930 . S
H33 C5 0.929 . S
H34 C7 0.930 . S
H35 C8 0.929 . S
H36 C13 0.930 . S
H37 C14 0.929 . S
H38 C16 0.930 . S
H39 C17 0.929 . S
Sm40 C42 2.846 1_554 S
Sm40 O60 2.543 1_554 S
Sm40 O61 2.450 . S
Sm40 O62 2.681 . S
Sm40 O63 2.464 . S
Sm40 O64 2.396 . S
Sm40 O68 2.386 1_554 S
Sm40 O71 2.408 . S
Sm41 C51 2.845 1_556 S
Sm41 O62 2.379 1_556 S
Sm41 O65 2.407 1_556 S
Sm41 O66 2.537 1_556 S
Sm41 O67 2.453 . S
Sm41 O68 2.687 . S
Sm41 O69 2.474 . S
Sm41 O70 2.398 . S
C42 Sm40 2.846 1_556 S
C42 C43 1.506 . S
C42 O60 1.261 . S
C42 O61 1.242 1_556 S
C43 C42 1.506 . S
C43 C44 1.358 . S
C43 C48 1.382 1_556 S
C44 C43 1.358 . S
C44 C45 1.385 . S
C44 H72 0.930 . S
C45 C44 1.385 . S
C45 C46 1.395 . S
C45 H73 0.929 . S
C46 C45 1.395 . S
C46 C47 1.335 1_556 S
C47 C46 1.335 1_554 S
C47 C48 1.398 . S
C47 H74 0.930 . S
C48 C43 1.382 1_554 S
C48 C47 1.398 . S
C48 H75 0.929 . S
C49 O62 1.271 . S
C49 O63 1.251 . S
C50 O64 1.252 . S
C50 O65 1.272 . S
C51 Sm41 2.845 1_554 S
C51 C52 1.506 . S
C51 O66 1.261 . S
C51 O67 1.242 1_554 S
C52 C51 1.506 . S
C52 C53 1.358 . S
C52 C57 1.382 1_554 S
C53 C52 1.358 . S
C53 C54 1.385 . S
C53 H76 0.930 . S
C54 C53 1.385 . S
C54 C55 1.395 . S
C54 H77 0.929 . S
C55 C54 1.395 . S
C55 C56 1.335 1_554 S
C56 C55 1.335 1_556 S
C56 C57 1.398 . S
C56 H78 0.930 . S
C57 C52 1.382 1_556 S
C57 C56 1.398 . S
C57 H79 0.929 . S
C58 O68 1.271 . S
C58 O69 1.251 . S
C59 O70 1.252 . S
C59 O71 1.272 1_556 S
O60 Sm40 2.543 1_556 S
O60 C42 1.261 . S
O61 Sm40 2.450 . S
O61 C42 1.242 1_554 S
O62 Sm40 2.681 . S
O62 Sm41 2.379 1_554 S
O62 C49 1.271 . S
O63 Sm40 2.464 . S
O63 C49 1.251 . S
O64 Sm40 2.396 . S
O64 C50 1.252 . S
O65 Sm41 2.407 1_554 S
O65 C50 1.272 . S
O66 Sm41 2.537 1_554 S
O66 C51 1.261 . S
O67 Sm41 2.453 . S
O67 C51 1.242 1_556 S
O68 Sm40 2.386 1_556 S
O68 Sm41 2.687 . S
O68 C58 1.271 . S
O69 Sm41 2.474 . S
O69 C58 1.251 . S
O70 Sm41 2.398 . S
O70 C59 1.252 . S
O71 Sm40 2.408 . S
O71 C59 1.272 1_554 S
H72 C44 0.930 . S
H73 C45 0.929 . S
H74 C47 0.930 . S
H75 C48 0.929 . S
H76 C53 0.930 . S
H77 C54 0.929 . S
H78 C56 0.930 . S
H79 C57 0.929 . S
Sm80 C82 2.846 1_554 S
Sm80 O100 2.543 1_554 S
Sm80 O101 2.450 . S
Sm80 O102 2.681 1_565 S
Sm80 O103 2.464 . S
Sm80 O104 2.396 1_565 S
Sm80 O108 2.386 1_564 S
Sm80 O111 2.408 . S
Sm81 C91 2.845 1_556 S
Sm81 O102 2.379 1_556 S
Sm81 O105 2.407 1_556 S
Sm81 O106 2.537 1_556 S
Sm81 O107 2.453 . S
Sm81 O108 2.687 . S
Sm81 O109 2.474 . S
Sm81 O110 2.398 . S
C82 Sm80 2.846 1_556 S
C82 C83 1.506 . S
C82 O100 1.261 . S
C82 O101 1.242 1_556 S
C83 C82 1.506 . S
C83 C84 1.358 . S
C83 C88 1.382 1_556 S
C84 C83 1.358 . S
C84 C85 1.385 . S
C84 H112 0.930 . S
C85 C84 1.385 . S
C85 C86 1.395 . S
C85 H113 0.929 . S
C86 C85 1.395 . S
C86 C87 1.335 1_556 S
C87 C86 1.335 1_554 S
C87 C88 1.398 . S
C87 H114 0.930 . S
C88 C83 1.382 1_554 S
C88 C87 1.398 . S
C88 H115 0.929 . S
C89 O102 1.287 . S
C89 O103 1.223 1_545 S
C90 O104 1.252 . S
C90 O105 1.272 . S
C91 Sm81 2.845 1_554 S
C91 C92 1.506 . S
C91 O106 1.261 . S
C91 O107 1.242 1_554 S
C92 C91 1.506 . S
C92 C93 1.358 . S
C92 C97 1.382 1_554 S
C93 C92 1.358 . S
C93 C94 1.385 . S
C93 H116 0.930 . S
C94 C93 1.385 . S
C94 C95 1.395 . S
C94 H117 0.929 . S
C95 C94 1.395 . S
C95 C96 1.335 1_554 S
C96 C95 1.335 1_556 S
C96 C97 1.398 . S
C96 H118 0.930 . S
C97 C92 1.382 1_556 S
C97 C96 1.398 . S
C97 H119 0.929 . S
C98 O108 1.271 . S
C98 O109 1.251 . S
C99 O110 1.252 1_565 S
C99 O111 1.272 1_556 S
O100 Sm80 2.543 1_556 S
O100 C82 1.261 . S
O101 Sm80 2.450 . S
O101 C82 1.242 1_554 S
O102 Sm80 2.681 1_545 S
O102 Sm81 2.379 1_554 S
O102 C89 1.287 . S
O103 Sm80 2.464 . S
O103 C89 1.223 1_565 S
O104 Sm80 2.396 1_545 S
O104 C90 1.252 . S
O105 Sm81 2.407 1_554 S
O105 C90 1.272 . S
O106 Sm81 2.537 1_554 S
O106 C91 1.261 . S
O107 Sm81 2.453 . S
O107 C91 1.242 1_556 S
O108 Sm80 2.386 1_546 S
O108 Sm81 2.687 . S
O108 C98 1.271 . S
O109 Sm81 2.474 . S
O109 C98 1.251 . S
O110 Sm81 2.398 . S
O110 C99 1.252 1_545 S
O111 Sm80 2.408 . S
O111 C99 1.272 1_554 S
H112 C84 0.930 . S
H113 C85 0.929 . S
H114 C87 0.930 . S
H115 C88 0.929 . S
H116 C93 0.930 . S
H117 C94 0.929 . S
H118 C96 0.930 . S
H119 C97 0.929 . S
Sm120 C122 2.846 . S
Sm120 O140 2.543 . S
Sm120 O141 2.450 . S
Sm120 O142 2.681 . S
Sm120 O143 2.464 . S
Sm120 O144 2.396 . S
Sm120 O148 2.386 . S
Sm120 O151 2.408 . S
Sm121 C131 2.846 . S
Sm121 O142 2.386 . S
Sm121 O145 2.408 . S
Sm121 O146 2.543 . S
Sm121 O147 2.450 . S
Sm121 O148 2.681 . S
Sm121 O149 2.464 . S
Sm121 O150 2.396 . S
C122 Sm120 2.846 . S
C122 C123 1.506 . S
C122 O140 1.261 . S
C122 O141 1.242 . S
C123 C122 1.506 . S
C123 C124 1.358 . S
C123 C128 1.382 . S
C124 C123 1.358 . S
C124 C125 1.385 . S
C124 H152 0.930 . S
C125 C124 1.385 . S
C125 C126 1.395 . S
C125 H153 0.929 . S
C126 C125 1.395 . S
C126 C127 1.335 . S
C127 C126 1.335 . S
C127 C128 1.398 . S
C127 H154 0.930 . S
C128 C123 1.382 . S
C128 C127 1.398 . S
C128 H155 0.929 . S
C129 O142 1.271 . S
C129 O143 1.251 . S
C130 O144 1.252 . S
C130 O145 1.272 . S
C131 Sm121 2.846 . S
C131 C132 1.506 . S
C131 O146 1.261 . S
C131 O147 1.242 . S
C132 C131 1.506 . S
C132 C133 1.358 . S
C132 C137 1.382 . S
C133 C132 1.358 . S
C133 C134 1.385 . S
C133 H156 0.930 . S
C134 C133 1.385 . S
C134 C135 1.395 . S
C134 H157 0.929 . S
C135 C134 1.395 . S
C135 C136 1.335 . S
C136 C135 1.335 . S
C136 C137 1.398 . S
C136 H158 0.930 . S
C137 C132 1.382 . S
C137 C136 1.398 . S
C137 H159 0.929 . S
C138 O148 1.271 . S
C138 O149 1.251 . S
C139 O150 1.252 . S
C139 O151 1.272 . S
O140 Sm120 2.543 . S
O140 C122 1.261 . S
O141 Sm120 2.450 . S
O141 C122 1.242 . S
O142 Sm120 2.681 . S
O142 Sm121 2.386 . S
O142 C129 1.271 . S
O143 Sm120 2.464 . S
O143 C129 1.251 . S
O144 Sm120 2.396 . S
O144 C130 1.252 . S
O145 Sm121 2.408 . S
O145 C130 1.272 . S
O146 Sm121 2.543 . S
O146 C131 1.261 . S
O147 Sm121 2.450 . S
O147 C131 1.242 . S
O148 Sm120 2.386 . S
O148 Sm121 2.681 . S
O148 C138 1.271 . S
O149 Sm121 2.464 . S
O149 C138 1.251 . S
O150 Sm121 2.396 . S
O150 C139 1.252 . S
O151 Sm120 2.408 . S
O151 C139 1.272 . S
H152 C124 0.930 . S
H153 C125 0.929 . S
H154 C127 0.930 . S
H155 C128 0.929 . S
H156 C133 0.930 . S
H157 C134 0.929 . S
H158 C136 0.930 . S
H159 C137 0.929 . S
Sm160 C162 2.846 . S
Sm160 O180 2.543 . S
Sm160 O181 2.450 . S
Sm160 O182 2.681 . S
Sm160 O183 2.464 . S
Sm160 O184 2.396 . S
Sm160 O188 2.386 . S
Sm160 O191 2.408 . S
Sm161 C171 2.846 . S
Sm161 O182 2.386 . S
Sm161 O185 2.408 . S
Sm161 O186 2.543 . S
Sm161 O187 2.450 . S
Sm161 O188 2.681 . S
Sm161 O189 2.464 . S
Sm161 O190 2.396 . S
C162 Sm160 2.846 . S
C162 C163 1.506 . S
C162 O180 1.261 . S
C162 O181 1.242 . S
C163 C162 1.506 . S
C163 C164 1.358 . S
C163 C168 1.382 . S
C164 C163 1.358 . S
C164 C165 1.385 . S
C164 H192 0.930 . S
C165 C164 1.385 . S
C165 C166 1.395 . S
C165 H193 0.929 . S
C166 C165 1.395 . S
C166 C167 1.335 . S
C167 C166 1.335 . S
C167 C168 1.398 . S
C167 H194 0.930 . S
C168 C163 1.382 . S
C168 C167 1.398 . S
C168 H195 0.929 . S
C169 O182 1.271 . S
C169 O183 1.251 . S
C170 O184 1.252 . S
C170 O185 1.272 . S
C171 Sm161 2.846 . S
C171 C172 1.506 . S
C171 O186 1.261 . S
C171 O187 1.242 . S
C172 C171 1.506 . S
C172 C173 1.358 . S
C172 C177 1.382 . S
C173 C172 1.358 . S
C173 C174 1.385 . S
C173 H196 0.930 . S
C174 C173 1.385 . S
C174 C175 1.395 . S
C174 H197 0.929 . S
C175 C174 1.395 . S
C175 C176 1.335 . S
C176 C175 1.335 . S
C176 C177 1.398 . S
C176 H198 0.930 . S
C177 C172 1.382 . S
C177 C176 1.398 . S
C177 H199 0.929 . S
C178 O188 1.271 . S
C178 O189 1.251 . S
C179 O190 1.252 . S
C179 O191 1.272 . S
O180 Sm160 2.543 . S
O180 C162 1.261 . S
O181 Sm160 2.450 . S
O181 C162 1.242 . S
O182 Sm160 2.681 . S
O182 Sm161 2.386 . S
O182 C169 1.271 . S
O183 Sm160 2.464 . S
O183 C169 1.251 . S
O184 Sm160 2.396 . S
O184 C170 1.252 . S
O185 Sm161 2.408 . S
O185 C170 1.272 . S
O186 Sm161 2.543 . S
O186 C171 1.261 . S
O187 Sm161 2.450 . S
O187 C171 1.242 . S
O188 Sm160 2.386 . S
O188 Sm161 2.681 . S
O188 C178 1.271 . S
O189 Sm161 2.464 . S
O189 C178 1.251 . S
O190 Sm161 2.396 . S
O190 C179 1.252 . S
O191 Sm160 2.408 . S
O191 C179 1.272 . S
H192 C164 0.930 . S
H193 C165 0.929 . S
H194 C167 0.930 . S
H195 C168 0.929 . S
H196 C173 0.930 . S
H197 C174 0.929 . S
H198 C176 0.930 . S
H199 C177 0.929 . S
Sm200 C202 2.846 . S
Sm200 O220 2.543 . S
Sm200 O221 2.450 . S
Sm200 O222 2.681 . S
Sm200 O223 2.464 . S
Sm200 O224 2.396 . S
Sm200 O228 2.386 . S
Sm200 O231 2.408 . S
Sm201 C211 2.846 . S
Sm201 O222 2.386 . S
Sm201 O225 2.408 . S
Sm201 O226 2.543 . S
Sm201 O227 2.450 . S
Sm201 O228 2.681 . S
Sm201 O229 2.464 . S
Sm201 O230 2.396 . S
C202 Sm200 2.846 . S
C202 C203 1.506 . S
C202 O220 1.261 . S
C202 O221 1.242 . S
C203 C202 1.506 . S
C203 C204 1.358 . S
C203 C208 1.382 . S
C204 C203 1.358 . S
C204 C205 1.385 . S
C204 H232 0.930 . S
C205 C204 1.385 . S
C205 C206 1.395 . S
C205 H233 0.929 . S
C206 C205 1.395 . S
C206 C207 1.335 . S
C207 C206 1.335 . S
C207 C208 1.398 . S
C207 H234 0.930 . S
C208 C203 1.382 . S
C208 C207 1.398 . S
C208 H235 0.929 . S
C209 O222 1.271 . S
C209 O223 1.251 . S
C210 O224 1.252 . S
C210 O225 1.272 . S
C211 Sm201 2.846 . S
C211 C212 1.506 . S
C211 O226 1.261 . S
C211 O227 1.242 . S
C212 C211 1.506 . S
C212 C213 1.358 . S
C212 C217 1.382 . S
C213 C212 1.358 . S
C213 C214 1.385 . S
C213 H236 0.930 . S
C214 C213 1.385 . S
C214 C215 1.395 . S
C214 H237 0.929 . S
C215 C214 1.395 . S
C215 C216 1.335 . S
C216 C215 1.335 . S
C216 C217 1.398 . S
C216 H238 0.930 . S
C217 C212 1.382 . S
C217 C216 1.398 . S
C217 H239 0.929 . S
C218 O228 1.271 . S
C218 O229 1.251 . S
C219 O230 1.252 . S
C219 O231 1.272 . S
O220 Sm200 2.543 . S
O220 C202 1.261 . S
O221 Sm200 2.450 . S
O221 C202 1.242 . S
O222 Sm200 2.681 . S
O222 Sm201 2.386 . S
O222 C209 1.271 . S
O223 Sm200 2.464 . S
O223 C209 1.251 . S
O224 Sm200 2.396 . S
O224 C210 1.252 . S
O225 Sm201 2.408 . S
O225 C210 1.272 . S
O226 Sm201 2.543 . S
O226 C211 1.261 . S
O227 Sm201 2.450 . S
O227 C211 1.242 . S
O228 Sm200 2.386 . S
O228 Sm201 2.681 . S
O228 C218 1.271 . S
O229 Sm201 2.464 . S
O229 C218 1.251 . S
O230 Sm201 2.396 . S
O230 C219 1.252 . S
O231 Sm200 2.408 . S
O231 C219 1.272 . S
H232 C204 0.930 . S
H233 C205 0.929 . S
H234 C207 0.930 . S
H235 C208 0.929 . S
H236 C213 0.930 . S
H237 C214 0.929 . S
H238 C216 0.930 . S
H239 C217 0.929 . S
Sm240 C242 2.846 . S
Sm240 O260 2.543 . S
Sm240 O261 2.450 . S
Sm240 O262 2.681 . S
Sm240 O263 2.464 . S
Sm240 O264 2.396 . S
Sm240 O268 2.386 . S
Sm240 O271 2.408 . S
Sm241 C251 2.846 . S
Sm241 O262 2.386 . S
Sm241 O265 2.408 . S
Sm241 O266 2.543 . S
Sm241 O267 2.450 . S
Sm241 O268 2.681 . S
Sm241 O269 2.464 . S
Sm241 O270 2.396 . S
C242 Sm240 2.846 . S
C242 C243 1.506 . S
C242 O260 1.261 . S
C242 O261 1.242 . S
C243 C242 1.506 . S
C243 C244 1.358 . S
C243 C248 1.382 . S
C244 C243 1.358 . S
C244 C245 1.385 . S
C244 H272 0.930 . S
C245 C244 1.385 . S
C245 C246 1.395 . S
C245 H273 0.929 . S
C246 C245 1.395 . S
C246 C247 1.335 . S
C247 C246 1.335 . S
C247 C248 1.398 . S
C247 H274 0.930 . S
C248 C243 1.382 . S
C248 C247 1.398 . S
C248 H275 0.929 . S
C249 O262 1.271 . S
C249 O263 1.251 . S
C250 O264 1.252 . S
C250 O265 1.272 . S
C251 Sm241 2.846 . S
C251 C252 1.506 . S
C251 O266 1.261 . S
C251 O267 1.242 . S
C252 C251 1.506 . S
C252 C253 1.358 . S
C252 C257 1.382 . S
C253 C252 1.358 . S
C253 C254 1.385 . S
C253 H276 0.930 . S
C254 C253 1.385 . S
C254 C255 1.395 . S
C254 H277 0.929 . S
C255 C254 1.395 . S
C255 C256 1.335 . S
C256 C255 1.335 . S
C256 C257 1.398 . S
C256 H278 0.930 . S
C257 C252 1.382 . S
C257 C256 1.398 . S
C257 H279 0.929 . S
C258 O268 1.271 . S
C258 O269 1.251 . S
C259 O270 1.252 . S
C259 O271 1.272 . S
O260 Sm240 2.543 . S
O260 C242 1.261 . S
O261 Sm240 2.450 . S
O261 C242 1.242 . S
O262 Sm240 2.681 . S
O262 Sm241 2.386 . S
O262 C249 1.271 . S
O263 Sm240 2.464 . S
O263 C249 1.251 . S
O264 Sm240 2.396 . S
O264 C250 1.252 . S
O265 Sm241 2.408 . S
O265 C250 1.272 . S
O266 Sm241 2.543 . S
O266 C251 1.261 . S
O267 Sm241 2.450 . S
O267 C251 1.242 . S
O268 Sm240 2.386 . S
O268 Sm241 2.681 . S
O268 C258 1.271 . S
O269 Sm241 2.464 . S
O269 C258 1.251 . S
O270 Sm241 2.396 . S
O270 C259 1.252 . S
O271 Sm240 2.408 . S
O271 C259 1.272 . S
H272 C244 0.930 . S
H273 C245 0.929 . S
H274 C247 0.930 . S
H275 C248 0.929 . S
H276 C253 0.930 . S
H277 C254 0.929 . S
H278 C256 0.930 . S
H279 C257 0.929 . S
Sm280 C282 2.846 . S
Sm280 O300 2.543 . S
Sm280 O301 2.450 . S
Sm280 O302 2.681 . S
Sm280 O303 2.464 . S
Sm280 O304 2.396 . S
Sm280 O308 2.386 . S
Sm280 O311 2.408 . S
Sm281 C291 2.846 . S
Sm281 O302 2.386 . S
Sm281 O305 2.408 . S
Sm281 O306 2.543 . S
Sm281 O307 2.450 . S
Sm281 O308 2.681 . S
Sm281 O309 2.464 . S
Sm281 O310 2.396 . S
C282 Sm280 2.846 . S
C282 C283 1.506 . S
C282 O300 1.261 . S
C282 O301 1.242 . S
C283 C282 1.506 . S
C283 C284 1.358 . S
C283 C288 1.382 . S
C284 C283 1.358 . S
C284 C285 1.385 . S
C284 H312 0.930 . S
C285 C284 1.385 . S
C285 C286 1.395 . S
C285 H313 0.929 . S
C286 C285 1.395 . S
C286 C287 1.335 . S
C287 C286 1.335 . S
C287 C288 1.398 . S
C287 H314 0.930 . S
C288 C283 1.382 . S
C288 C287 1.398 . S
C288 H315 0.929 . S
C289 O302 1.271 . S
C289 O303 1.251 . S
C290 O304 1.252 . S
C290 O305 1.272 . S
C291 Sm281 2.846 . S
C291 C292 1.506 . S
C291 O306 1.261 . S
C291 O307 1.242 . S
C292 C291 1.506 . S
C292 C293 1.358 . S
C292 C297 1.382 . S
C293 C292 1.358 . S
C293 C294 1.385 . S
C293 H316 0.930 . S
C294 C293 1.385 . S
C294 C295 1.395 . S
C294 H317 0.929 . S
C295 C294 1.395 . S
C295 C296 1.335 . S
C296 C295 1.335 . S
C296 C297 1.398 . S
C296 H318 0.930 . S
C297 C292 1.382 . S
C297 C296 1.398 . S
C297 H319 0.929 . S
C298 O308 1.271 . S
C298 O309 1.251 . S
C299 O310 1.252 . S
C299 O311 1.272 . S
O300 Sm280 2.543 . S
O300 C282 1.261 . S
O301 Sm280 2.450 . S
O301 C282 1.242 . S
O302 Sm280 2.681 . S
O302 Sm281 2.386 . S
O302 C289 1.271 . S
O303 Sm280 2.464 . S
O303 C289 1.251 . S
O304 Sm280 2.396 . S
O304 C290 1.252 . S
O305 Sm281 2.408 . S
O305 C290 1.272 . S
O306 Sm281 2.543 . S
O306 C291 1.261 . S
O307 Sm281 2.450 . S
O307 C291 1.242 . S
O308 Sm280 2.386 . S
O308 Sm281 2.681 . S
O308 C298 1.271 . S
O309 Sm281 2.464 . S
O309 C298 1.251 . S
O310 Sm281 2.396 . S
O310 C299 1.252 . S
O311 Sm280 2.408 . S
O311 C299 1.272 . S
H312 C284 0.930 . S
H313 C285 0.929 . S
H314 C287 0.930 . S
H315 C288 0.929 . S
H316 C293 0.930 . S
H317 C294 0.929 . S
H318 C296 0.930 . S
H319 C297 0.929 . S
Sm320 C322 2.846 . S
Sm320 O340 2.543 . S
Sm320 O341 2.450 . S
Sm320 O342 2.681 . S
Sm320 O343 2.464 . S
Sm320 O344 2.396 . S
Sm320 O348 2.386 . S
Sm320 O351 2.408 . S
Sm321 C331 2.846 . S
Sm321 O342 2.386 . S
Sm321 O345 2.408 . S
Sm321 O346 2.543 . S
Sm321 O347 2.450 . S
Sm321 O348 2.681 . S
Sm321 O349 2.464 . S
Sm321 O350 2.396 . S
C322 Sm320 2.846 . S
C322 C323 1.506 . S
C322 O340 1.261 . S
C322 O341 1.242 . S
C323 C322 1.506 . S
C323 C324 1.358 . S
C323 C328 1.382 . S
C324 C323 1.358 . S
C324 C325 1.385 . S
C324 H352 0.930 . S
C325 C324 1.385 . S
C325 C326 1.395 . S
C325 H353 0.929 . S
C326 C325 1.395 . S
C326 C327 1.335 . S
C327 C326 1.335 . S
C327 C328 1.398 . S
C327 H354 0.930 . S
C328 C323 1.382 . S
C328 C327 1.398 . S
C328 H355 0.929 . S
C329 O342 1.271 . S
C329 O343 1.251 . S
C330 O344 1.252 . S
C330 O345 1.272 . S
C331 Sm321 2.846 . S
C331 C332 1.506 . S
C331 O346 1.261 . S
C331 O347 1.242 . S
C332 C331 1.506 . S
C332 C333 1.358 . S
C332 C337 1.382 . S
C333 C332 1.358 . S
C333 C334 1.385 . S
C333 H356 0.930 . S
C334 C333 1.385 . S
C334 C335 1.395 . S
C334 H357 0.929 . S
C335 C334 1.395 . S
C335 C336 1.335 . S
C336 C335 1.335 . S
C336 C337 1.398 . S
C336 H358 0.930 . S
C337 C332 1.382 . S
C337 C336 1.398 . S
C337 H359 0.929 . S
C338 O348 1.271 . S
C338 O349 1.251 . S
C339 O350 1.252 . S
C339 O351 1.272 . S
O340 Sm320 2.543 . S
O340 C322 1.261 . S
O341 Sm320 2.450 . S
O341 C322 1.242 . S
O342 Sm320 2.681 . S
O342 Sm321 2.386 . S
O342 C329 1.271 . S
O343 Sm320 2.464 . S
O343 C329 1.251 . S
O344 Sm320 2.396 . S
O344 C330 1.252 . S
O345 Sm321 2.408 . S
O345 C330 1.272 . S
O346 Sm321 2.543 . S
O346 C331 1.261 . S
O347 Sm321 2.450 . S
O347 C331 1.242 . S
O348 Sm320 2.386 . S
O348 Sm321 2.681 . S
O348 C338 1.271 . S
O349 Sm321 2.464 . S
O349 C338 1.251 . S
O350 Sm321 2.396 . S
O350 C339 1.252 . S
O351 Sm320 2.408 . S
O351 C339 1.272 . S
H352 C324 0.930 . S
H353 C325 0.929 . S
H354 C327 0.930 . S
H355 C328 0.929 . S
H356 C333 0.930 . S
H357 C334 0.929 . S
H358 C336 0.930 . S
H359 C337 0.929 . S
H360 C372 0.930 1_554 S
H361 C374 0.930 . S
H362 C375 0.930 . S
H363 C379 0.959 . S
H364 C379 0.959 . S
H365 C379 0.961 1_554 S
H366 C380 0.960 1_554 S
H367 C380 0.961 1_554 S
H368 C380 0.959 . S
H369 C383 0.929 . S
H370 C384 0.931 . S
H371 C386 0.930 . S
C372 H360 0.930 1_556 S
C372 C373 1.399 . S
C372 C377 1.399 . S
C373 C372 1.399 . S
C373 C374 1.376 . S
C374 H361 0.930 . S
C374 C373 1.376 . S
C374 C375 1.388 . S
C375 H362 0.930 . S
C375 C374 1.388 . S
C375 C376 1.390 . S
C376 C375 1.390 . S
C376 C377 1.394 . S
C376 C382 1.465 . S
C377 C372 1.399 . S
C377 C376 1.394 . S
C377 C378 1.516 . S
C378 C377 1.516 . S
C378 C379 1.502 . S
C378 C380 1.561 . S
C378 C381 1.526 . S
C379 H363 0.959 . S
C379 H364 0.959 . S
C379 H365 0.961 1_556 S
C379 C378 1.502 . S
C380 H366 0.960 1_556 S
C380 H367 0.961 1_556 S
C380 H368 0.959 . S
C380 C378 1.561 . S
C381 C378 1.526 . S
C381 C382 1.396 . S
C381 C386 1.390 . S
C382 C376 1.465 . S
C382 C381 1.396 . S
C382 C383 1.399 . S
C383 H369 0.929 . S
C383 C382 1.399 . S
C383 C384 1.385 . S
C384 H370 0.931 . S
C384 C383 1.385 . S
C384 C385 1.389 . S
C385 C384 1.389 . S
C385 C386 1.387 . S
C386 H371 0.930 . S
C386 C381 1.390 . S
C386 C385 1.387 . S
H387 C399 0.930 . S
H388 C401 0.930 . S
H389 C402 0.930 . S
H390 C406 0.959 . S
H391 C406 0.959 . S
H392 C406 0.961 . S
H393 C407 0.960 . S
H394 C407 0.961 . S
H395 C407 0.959 . S
H396 C410 0.929 . S
H397 C411 0.931 . S
H398 C413 0.930 . S
C399 H387 0.930 . S
C399 C400 1.399 . S
C399 C404 1.399 . S
C400 C399 1.399 . S
C400 C401 1.376 . S
C401 H388 0.930 . S
C401 C400 1.376 . S
C401 C402 1.388 . S
C402 H389 0.930 . S
C402 C401 1.388 . S
C402 C403 1.390 . S
C403 C402 1.390 . S
C403 C404 1.394 . S
C403 C409 1.465 . S
C404 C399 1.399 . S
C404 C403 1.394 . S
C404 C405 1.516 . S
C405 C404 1.516 . S
C405 C406 1.502 . S
C405 C407 1.561 . S
C405 C408 1.526 . S
C406 H390 0.959 . S
C406 H391 0.959 . S
C406 H392 0.961 . S
C406 C405 1.502 . S
C407 H393 0.960 . S
C407 H394 0.961 . S
C407 H395 0.959 . S
C407 C405 1.561 . S
C408 C405 1.526 . S
C408 C409 1.396 . S
C408 C413 1.390 . S
C409 C403 1.465 . S
C409 C408 1.396 . S
C409 C410 1.399 . S
C410 H396 0.929 . S
C410 C409 1.399 . S
C410 C411 1.385 . S
C411 H397 0.931 . S
C411 C410 1.385 . S
C411 C412 1.389 . S
C412 C411 1.389 . S
C412 C413 1.387 . S
C413 H398 0.930 . S
C413 C408 1.390 . S
C413 C412 1.387 . S
H414 C426 0.930 1_554 S
H415 C428 0.930 . S
H416 C429 0.930 . S
H417 C433 0.959 . S
H418 C433 0.959 1_554 S
H419 C433 0.961 1_554 S
H420 C434 0.960 . S
H421 C434 0.961 . S
H422 C434 0.959 . S
H423 C437 0.929 . S
H424 C438 0.931 . S
H425 C440 0.930 . S
C426 H414 0.930 1_556 S
C426 C427 1.399 . S
C426 C431 1.399 . S
C427 C426 1.399 . S
C427 C428 1.376 . S
C428 H415 0.930 . S
C428 C427 1.376 . S
C428 C429 1.388 . S
C429 H416 0.930 . S
C429 C428 1.388 . S
C429 C430 1.390 . S
C430 C429 1.390 . S
C430 C431 1.394 . S
C430 C436 1.465 . S
C431 C426 1.399 . S
C431 C430 1.394 . S
C431 C432 1.516 . S
C432 C431 1.516 . S
C432 C433 1.502 . S
C432 C434 1.561 . S
C432 C435 1.526 . S
C433 H417 0.959 . S
C433 H418 0.959 1_556 S
C433 H419 0.961 1_556 S
C433 C432 1.502 . S
C434 H420 0.960 . S
C434 H421 0.961 . S
C434 H422 0.959 . S
C434 C432 1.561 . S
C435 C432 1.526 . S
C435 C436 1.396 . S
C435 C440 1.390 . S
C436 C430 1.465 . S
C436 C435 1.396 . S
C436 C437 1.399 . S
C437 H423 0.929 . S
C437 C436 1.399 . S
C437 C438 1.385 . S
C438 H424 0.931 . S
C438 C437 1.385 . S
C438 C439 1.389 . S
C439 C438 1.389 . S
C439 C440 1.387 . S
C440 H425 0.930 . S
C440 C435 1.390 . S
C440 C439 1.387 . S
H441 C453 0.930 . S
H442 C455 0.930 . S
H443 C456 0.930 . S
H444 C460 0.959 . S
H445 C460 0.959 . S
H446 C460 0.961 . S
H447 C461 0.960 . S
H448 C461 0.961 . S
H449 C461 0.959 . S
H450 C464 0.929 . S
H451 C465 0.931 . S
H452 C467 0.930 . S
C453 H441 0.930 . S
C453 C454 1.399 . S
C453 C458 1.399 . S
C454 C453 1.399 . S
C454 C455 1.376 . S
C455 H442 0.930 . S
C455 C454 1.376 . S
C455 C456 1.388 . S
C456 H443 0.930 . S
C456 C455 1.388 . S
C456 C457 1.390 . S
C457 C456 1.390 . S
C457 C458 1.394 . S
C457 C463 1.465 . S
C458 C453 1.399 . S
C458 C457 1.394 . S
C458 C459 1.516 . S
C459 C458 1.516 . S
C459 C460 1.502 . S
C459 C461 1.561 . S
C459 C462 1.526 . S
C460 H444 0.959 . S
C460 H445 0.959 . S
C460 H446 0.961 . S
C460 C459 1.502 . S
C461 H447 0.960 . S
C461 H448 0.961 . S
C461 H449 0.959 . S
C461 C459 1.561 . S
C462 C459 1.526 . S
C462 C463 1.396 . S
C462 C467 1.390 . S
C463 C457 1.465 . S
C463 C462 1.396 . S
C463 C464 1.399 . S
C464 H450 0.929 . S
C464 C463 1.399 . S
C464 C465 1.385 . S
C465 H451 0.931 . S
C465 C464 1.385 . S
C465 C466 1.389 . S
C466 C465 1.389 . S
C466 C467 1.387 . S
C467 H452 0.930 . S
C467 C462 1.390 . S
C467 C466 1.387 . S
H468 C480 0.930 . S
H469 C482 0.930 . S
H470 C483 0.930 . S
H471 C487 0.959 . S
H472 C487 0.959 . S
H473 C487 0.961 . S
H474 C488 0.960 . S
H475 C488 0.961 . S
H476 C488 0.959 . S
H477 C491 0.929 . S
H478 C492 0.931 . S
H479 C494 0.930 . S
C480 H468 0.930 . S
C480 C481 1.399 . S
C480 C485 1.399 . S
C481 C480 1.399 . S
C481 C482 1.376 . S
C482 H469 0.930 . S
C482 C481 1.376 . S
C482 C483 1.388 . S
C483 H470 0.930 . S
C483 C482 1.388 . S
C483 C484 1.390 . S
C484 C483 1.390 . S
C484 C485 1.394 . S
C484 C490 1.465 . S
C485 C480 1.399 . S
C485 C484 1.394 . S
C485 C486 1.516 . S
C486 C485 1.516 . S
C486 C487 1.502 . S
C486 C488 1.561 . S
C486 C489 1.526 . S
C487 H471 0.959 . S
C487 H472 0.959 . S
C487 H473 0.961 . S
C487 C486 1.502 . S
C488 H474 0.960 . S
C488 H475 0.961 . S
C488 H476 0.959 . S
C488 C486 1.561 . S
C489 C486 1.526 . S
C489 C490 1.396 . S
C489 C494 1.390 . S
C490 C484 1.465 . S
C490 C489 1.396 . S
C490 C491 1.399 1_554 S
C491 H477 0.929 . S
C491 C490 1.399 1_556 S
C491 C492 1.385 . S
C492 H478 0.931 . S
C492 C491 1.385 . S
C492 C493 1.389 1_556 S
C493 C492 1.389 1_554 S
C493 C494 1.387 . S
C494 H479 0.930 . S
C494 C489 1.390 . S
C494 C493 1.387 . S
H495 C507 0.930 . S
H496 C509 0.930 . S
H497 C510 0.930 . S
H498 C514 0.959 . S
H499 C514 0.959 . S
H500 C514 0.961 . S
H501 C515 0.960 . S
H502 C515 0.961 . S
H503 C515 0.959 . S
H504 C518 0.929 . S
H505 C519 0.931 . S
H506 C521 0.930 . S
C507 H495 0.930 . S
C507 C508 1.399 . S
C507 C512 1.399 . S
C508 C507 1.399 . S
C508 C509 1.376 1_554 S
C509 H496 0.930 . S
C509 C508 1.376 1_556 S
C509 C510 1.388 . S
C510 H497 0.930 . S
C510 C509 1.388 . S
C510 C511 1.390 1_556 S
C511 C510 1.390 1_554 S
C511 C512 1.394 . S
C511 C517 1.465 . S
C512 C507 1.399 . S
C512 C511 1.394 . S
C512 C513 1.516 . S
C513 C512 1.516 . S
C513 C514 1.502 . S
C513 C515 1.561 . S
C513 C516 1.526 . S
C514 H498 0.959 . S
C514 H499 0.959 . S
C514 H500 0.961 . S
C514 C513 1.502 . S
C515 H501 0.960 . S
C515 H502 0.961 . S
C515 H503 0.959 . S
C515 C513 1.561 . S
C516 C513 1.526 . S
C516 C517 1.396 . S
C516 C521 1.390 . S
C517 C511 1.465 . S
C517 C516 1.396 . S
C517 C518 1.399 . S
C518 H504 0.929 . S
C518 C517 1.399 . S
C518 C519 1.385 . S
C519 H505 0.931 . S
C519 C518 1.385 . S
C519 C520 1.389 . S
C520 C519 1.389 . S
C520 C521 1.387 . S
C521 H506 0.930 . S
C521 C516 1.390 . S
C521 C520 1.387 . S
H522 C534 0.930 . S
H523 C536 0.938 . S
H524 C537 0.930 . S
H525 C541 0.959 . S
H526 C541 0.959 . S
H527 C541 0.961 . S
H528 C542 0.960 . S
H529 C542 0.961 . S
H530 C542 0.959 . S
H531 C545 0.929 . S
H532 C546 0.931 . S
H533 C548 0.930 . S
C534 H522 0.930 . S
C534 C535 1.399 . S
C534 C539 1.399 1_455 S
C535 C534 1.399 . S
C535 C536 1.376 1_455 S
C536 H523 0.938 . S
C536 C535 1.376 1_655 S
C536 C537 1.388 . S
C537 H524 0.930 . S
C537 C536 1.388 . S
C537 C538 1.390 . S
C538 C537 1.390 . S
C538 C539 1.394 . S
C538 C544 1.465 . S
C539 C534 1.399 1_655 S
C539 C538 1.394 . S
C539 C540 1.516 . S
C540 C539 1.516 . S
C540 C541 1.502 . S
C540 C542 1.561 . S
C540 C543 1.526 . S
C541 H525 0.959 . S
C541 H526 0.959 . S
C541 H527 0.961 . S
C541 C540 1.502 . S
C542 H528 0.960 . S
C542 H529 0.961 . S
C542 H530 0.959 . S
C542 C540 1.561 . S
C543 C540 1.526 . S
C543 C544 1.396 . S
C543 C548 1.390 . S
C544 C538 1.465 . S
C544 C543 1.396 . S
C544 C545 1.399 . S
C545 H531 0.929 . S
C545 C544 1.399 . S
C545 C546 1.385 . S
C546 H532 0.931 . S
C546 C545 1.385 . S
C546 C547 1.389 . S
C547 C546 1.389 . S
C547 C548 1.387 . S
C548 H533 0.930 . S
C548 C543 1.390 . S
C548 C547 1.387 . S
H549 C561 0.930 . S
H550 C563 0.930 . S
H551 C564 0.930 . S
H552 C568 0.959 . S
H553 C568 0.959 . S
H554 C568 0.961 . S
H555 C569 0.960 . S
H556 C569 0.961 . S
H557 C569 0.959 . S
H558 C572 0.929 . S
H559 C573 0.931 . S
H560 C575 0.930 . S
C561 H549 0.930 . S
C561 C562 1.399 . S
C561 C566 1.399 . S
C562 C561 1.399 . S
C562 C563 1.376 . S
C563 H550 0.930 . S
C563 C562 1.376 . S
C563 C564 1.388 . S
C564 H551 0.930 . S
C564 C563 1.388 . S
C564 C565 1.390 . S
C565 C564 1.390 . S
C565 C566 1.394 . S
C565 C571 1.465 . S
C566 C561 1.399 . S
C566 C565 1.394 . S
C566 C567 1.516 . S
C567 C566 1.516 . S
C567 C568 1.502 . S
C567 C569 1.561 . S
C567 C570 1.526 . S
C568 H552 0.959 . S
C568 H553 0.959 . S
C568 H554 0.961 . S
C568 C567 1.502 . S
C569 H555 0.960 . S
C569 H556 0.961 . S
C569 H557 0.959 . S
C569 C567 1.561 . S
C570 C567 1.526 . S
C570 C571 1.396 . S
C570 C575 1.390 . S
C571 C565 1.465 . S
C571 C570 1.396 . S
C571 C572 1.399 . S
C572 H558 0.929 . S
C572 C571 1.399 . S
C572 C573 1.385 . S
C573 H559 0.931 . S
C573 C572 1.385 . S
C573 C574 1.389 . S
C574 C573 1.389 . S
C574 C575 1.387 . S
C575 H560 0.930 . S
C575 C570 1.390 . S
C575 C574 1.387 . S
H576 C588 0.930 . S
H577 C590 0.930 . S
H578 C591 0.930 . S
H579 C595 0.959 . S
H580 C595 0.959 . S
H581 C595 0.961 . S
H582 C596 0.960 . S
H583 C596 0.961 . S
H584 C596 0.959 . S
H585 C599 0.929 . S
H586 C600 0.931 1_565 S
H587 C602 0.930 . S
C588 H576 0.930 . S
C588 C589 1.399 . S
C588 C593 1.399 . S
C589 C588 1.399 . S
C589 C590 1.376 . S
C590 H577 0.930 . S
C590 C589 1.376 . S
C590 C591 1.388 . S
C591 H578 0.930 . S
C591 C590 1.388 . S
C591 C592 1.390 . S
C592 C591 1.390 . S
C592 C593 1.394 . S
C592 C598 1.465 . S
C593 C588 1.399 . S
C593 C592 1.394 . S
C593 C594 1.516 . S
C594 C593 1.516 . S
C594 C595 1.502 . S
C594 C596 1.561 . S
C594 C597 1.526 . S
C595 H579 0.959 . S
C595 H580 0.959 . S
C595 H581 0.961 . S
C595 C594 1.502 . S
C596 H582 0.960 . S
C596 H583 0.961 . S
C596 H584 0.959 . S
C596 C594 1.561 . S
C597 C594 1.526 . S
C597 C598 1.396 . S
C597 C602 1.390 . S
C598 C592 1.465 . S
C598 C597 1.396 . S
C598 C599 1.399 . S
C599 H585 0.929 . S
C599 C598 1.399 . S
C599 C600 1.385 . S
C600 H586 0.931 1_545 S
C600 C599 1.385 . S
C600 C601 1.389 . S
C601 C600 1.389 . S
C601 C602 1.387 . S
C602 H587 0.930 . S
C602 C597 1.390 . S
C602 C601 1.387 . S
H603 C615 0.930 . S
H604 C617 0.930 . S
H605 C618 0.930 . S
H606 C622 0.959 . S
H607 C622 0.959 . S
H608 C622 0.961 . S
H609 C623 0.960 . S
H610 C623 0.961 . S
H611 C623 0.959 . S
H612 C626 0.929 . S
H613 C627 0.931 . S
H614 C629 0.930 . S
C615 H603 0.930 . S
C615 C616 1.399 . S
C615 C620 1.399 . S
C616 C615 1.399 . S
C616 C617 1.376 1_554 S
C617 H604 0.930 . S
C617 C616 1.376 1_556 S
C617 C618 1.388 . S
C618 H605 0.930 . S
C618 C617 1.388 . S
C618 C619 1.390 . S
C619 C618 1.390 . S
C619 C620 1.394 1_556 S
C619 C625 1.465 . S
C620 C615 1.399 . S
C620 C619 1.394 1_554 S
C620 C621 1.516 . S
C621 C620 1.516 . S
C621 C622 1.502 . S
C621 C623 1.561 . S
C621 C624 1.526 . S
C622 H606 0.959 . S
C622 H607 0.959 . S
C622 H608 0.961 . S
C622 C621 1.502 . S
C623 H609 0.960 . S
C623 H610 0.961 . S
C623 H611 0.959 . S
C623 C621 1.561 . S
C624 C621 1.526 . S
C624 C625 1.396 1_554 S
C624 C629 1.390 . S
C625 C619 1.465 . S
C625 C624 1.396 1_556 S
C625 C626 1.399 . S
C626 H612 0.929 . S
C626 C625 1.399 . S
C626 C627 1.385 . S
C627 H613 0.931 . S
C627 C626 1.385 . S
C627 C628 1.390 . S
C628 C627 1.390 . S
C628 C629 1.386 1_556 S
C629 H614 0.930 . S
C629 C624 1.390 . S
C629 C628 1.386 1_554 S
H630 C642 0.930 . S
H631 C644 0.930 . S
H632 C645 0.930 . S
H633 C649 0.959 . S
H634 C649 0.959 . S
H635 C649 0.961 . S
H636 C650 0.960 . S
H637 C650 0.961 . S
H638 C650 0.959 . S
H639 C653 0.929 . S
H640 C654 0.931 . S
H641 C656 0.930 . S
C642 H630 0.930 . S
C642 C643 1.399 1_556 S
C642 C647 1.399 . S
C643 C642 1.399 1_554 S
C643 C644 1.376 . S
C644 H631 0.930 . S
C644 C643 1.376 . S
C644 C645 1.388 . S
C645 H632 0.930 . S
C645 C644 1.388 . S
C645 C646 1.390 . S
C646 C645 1.390 . S
C646 C647 1.394 1_554 S
C646 C652 1.465 . S
C647 C642 1.399 . S
C647 C646 1.394 1_556 S
C647 C648 1.516 . S
C648 C647 1.516 . S
C648 C649 1.502 . S
C648 C650 1.561 . S
C648 C651 1.526 . S
C649 H633 0.959 . S
C649 H634 0.959 . S
C649 H635 0.961 . S
C649 C648 1.502 . S
C650 H636 0.960 . S
C650 H637 0.961 . S
C650 H638 0.959 . S
C650 C648 1.561 . S
C651 C648 1.526 . S
C651 C652 1.396 1_556 S
C651 C656 1.390 1_565 S
C652 C646 1.465 . S
C652 C651 1.396 1_554 S
C652 C653 1.399 . S
C653 H639 0.929 . S
C653 C652 1.399 . S
C653 C654 1.385 1_565 S
C654 H640 0.931 . S
C654 C653 1.385 1_545 S
C654 C655 1.389 . S
C655 C654 1.389 . S
C655 C656 1.387 1_554 S
C656 H641 0.930 . S
C656 C651 1.390 1_545 S
C656 C655 1.387 1_556 S
H657 C669 0.930 . S
H658 C671 0.930 1_655 S
H659 C672 0.930 . S
H660 C676 0.959 . S
H661 C676 0.959 . S
H662 C676 0.961 . S
H663 C677 0.960 . S
H664 C677 0.961 . S
H665 C677 0.959 . S
H666 C680 0.929 . S
H667 C681 0.931 . S
H668 C683 0.930 . S
C669 H657 0.930 . S
C669 C670 1.399 1_455 S
C669 C674 1.399 . S
C670 C669 1.399 1_655 S
C670 C671 1.376 1_654 S
C671 H658 0.930 1_455 S
C671 C670 1.376 1_456 S
C671 C672 1.388 . S
C672 H659 0.930 . S
C672 C671 1.388 . S
C672 C673 1.390 . S
C673 C672 1.390 . S
C673 C674 1.394 1_556 S
C673 C679 1.465 . S
C674 C669 1.399 . S
C674 C673 1.394 1_554 S
C674 C675 1.516 . S
C675 C674 1.516 . S
C675 C676 1.502 . S
C675 C677 1.561 . S
C675 C678 1.526 . S
C676 H660 0.959 . S
C676 H661 0.959 . S
C676 H662 0.961 . S
C676 C675 1.502 . S
C677 H663 0.960 . S
C677 H664 0.961 . S
C677 H665 0.959 . S
C677 C675 1.561 . S
C678 C675 1.526 . S
C678 C679 1.396 1_554 S
C678 C683 1.390 . S
C679 C673 1.465 . S
C679 C678 1.396 1_556 S
C679 C680 1.399 . S
C680 H666 0.929 . S
C680 C679 1.399 . S
C680 C681 1.385 . S
C681 H667 0.931 . S
C681 C680 1.385 . S
C681 C682 1.387 1_556 S
C682 C681 1.387 1_554 S
C682 C683 1.389 . S
C683 H668 0.930 . S
C683 C678 1.390 . S
C683 C682 1.389 . S
H684 C696 0.930 . S
H685 C698 0.930 . S
H686 C699 0.930 . S
H687 C703 0.959 . S
H688 C703 0.959 . S
H689 C703 0.961 . S
H690 C704 0.960 . S
H691 C704 0.961 . S
H692 C704 0.959 . S
H693 C707 0.929 . S
H694 C708 0.931 . S
H695 C710 0.930 . S
C696 H684 0.930 . S
C696 C697 1.399 . S
C696 C701 1.399 . S
C697 C696 1.399 . S
C697 C698 1.376 . S
C698 H685 0.930 . S
C698 C697 1.376 . S
C698 C699 1.388 . S
C699 H686 0.930 . S
C699 C698 1.388 . S
C699 C700 1.390 . S
C700 C699 1.390 . S
C700 C701 1.394 . S
C700 C706 1.465 . S
C701 C696 1.399 . S
C701 C700 1.394 . S
C701 C702 1.516 . S
C702 C701 1.516 . S
C702 C703 1.502 . S
C702 C704 1.561 . S
C702 C705 1.526 . S
C703 H687 0.959 . S
C703 H688 0.959 . S
C703 H689 0.961 . S
C703 C702 1.502 . S
C704 H690 0.960 . S
C704 H691 0.961 . S
C704 H692 0.959 . S
C704 C702 1.561 . S
C705 C702 1.526 . S
C705 C706 1.396 . S
C705 C710 1.390 . S
C706 C700 1.465 . S
C706 C705 1.396 . S
C706 C707 1.399 . S
C707 H693 0.929 . S
C707 C706 1.399 . S
C707 C708 1.385 . S
C708 H694 0.931 . S
C708 C707 1.385 . S
C708 C709 1.389 . S
C709 C708 1.389 . S
C709 C710 1.387 . S
C710 H695 0.930 . S
C710 C705 1.390 . S
C710 C709 1.387 . S
H711 C723 0.930 . S
H712 C725 0.930 . S
H713 C726 0.930 . S
H714 C730 0.959 . S
H715 C730 0.959 . S
H716 C730 0.961 . S
H717 C731 0.960 . S
H718 C731 0.961 . S
H719 C731 0.959 . S
H720 C734 0.929 . S
H721 C735 0.931 . S
H722 C737 0.930 . S
C723 H711 0.930 . S
C723 C724 1.399 . S
C723 C728 1.399 . S
C724 C723 1.399 . S
C724 C725 1.376 . S
C725 H712 0.930 . S
C725 C724 1.376 . S
C725 C726 1.388 . S
C726 H713 0.930 . S
C726 C725 1.388 . S
C726 C727 1.390 . S
C727 C726 1.390 . S
C727 C728 1.394 . S
C727 C733 1.465 . S
C728 C723 1.399 . S
C728 C727 1.394 . S
C728 C729 1.516 . S
C729 C728 1.516 . S
C729 C730 1.502 . S
C729 C731 1.561 . S
C729 C732 1.526 . S
C730 H714 0.959 . S
C730 H715 0.959 . S
C730 H716 0.961 . S
C730 C729 1.502 . S
C731 H717 0.960 . S
C731 H718 0.961 . S
C731 H719 0.959 . S
C731 C729 1.561 . S
C732 C729 1.526 . S
C732 C733 1.396 . S
C732 C737 1.390 . S
C733 C727 1.465 . S
C733 C732 1.396 . S
C733 C734 1.399 . S
C734 H720 0.929 . S
C734 C733 1.399 . S
C734 C735 1.385 . S
C735 H721 0.931 . S
C735 C734 1.385 . S
C735 C736 1.389 . S
C736 C735 1.389 . S
C736 C737 1.387 . S
C737 H722 0.930 . S
C737 C732 1.390 . S
C737 C736 1.387 . S
H738 C750 0.930 . S
H739 C752 0.930 . S
H740 C753 0.930 . S
H741 C757 0.959 . S
H742 C757 0.959 . S
H743 C757 0.961 . S
H744 C758 0.960 . S
H745 C758 0.961 . S
H746 C758 0.959 . S
H747 C761 0.929 . S
H748 C762 0.931 . S
H749 C764 0.930 . S
C750 H738 0.930 . S
C750 C751 1.399 . S
C750 C755 1.399 . S
C751 C750 1.399 . S
C751 C752 1.376 . S
C752 H739 0.930 . S
C752 C751 1.376 . S
C752 C753 1.388 . S
C753 H740 0.930 . S
C753 C752 1.388 . S
C753 C754 1.390 . S
C754 C753 1.390 . S
C754 C755 1.394 . S
C754 C760 1.465 . S
C755 C750 1.399 . S
C755 C754 1.394 . S
C755 C756 1.516 . S
C756 C755 1.516 . S
C756 C757 1.502 . S
C756 C758 1.561 . S
C756 C759 1.526 . S
C757 H741 0.959 . S
C757 H742 0.959 . S
C757 H743 0.961 . S
C757 C756 1.502 . S
C758 H744 0.960 . S
C758 H745 0.961 . S
C758 H746 0.959 . S
C758 C756 1.561 . S
C759 C756 1.526 . S
C759 C760 1.396 . S
C759 C764 1.390 . S
C760 C754 1.465 . S
C760 C759 1.396 . S
C760 C761 1.399 . S
C761 H747 0.929 . S
C761 C760 1.399 . S
C761 C762 1.385 . S
C762 H748 0.931 . S
C762 C761 1.385 . S
C762 C763 1.389 . S
C763 C762 1.389 . S
C763 C764 1.387 . S
C764 H749 0.930 . S
C764 C759 1.390 . S
C764 C763 1.387 . S
H765 C777 0.930 . S
H766 C779 0.930 . S
H767 C780 0.930 . S
H768 C784 0.959 . S
H769 C784 0.959 . S
H770 C784 0.961 . S
H771 C785 0.960 . S
H772 C785 0.961 . S
H773 C785 0.959 . S
H774 C788 0.929 . S
H775 C789 0.931 . S
H776 C791 0.930 . S
C777 H765 0.930 . S
C777 C778 1.399 . S
C777 C782 1.399 . S
C778 C777 1.399 . S
C778 C779 1.376 . S
C779 H766 0.930 . S
C779 C778 1.376 . S
C779 C780 1.388 . S
C780 H767 0.930 . S
C780 C779 1.388 . S
C780 C781 1.390 . S
C781 C780 1.390 . S
C781 C782 1.394 . S
C781 C787 1.465 . S
C782 C777 1.399 . S
C782 C781 1.394 . S
C782 C783 1.516 . S
C783 C782 1.516 . S
C783 C784 1.502 . S
C783 C785 1.561 . S
C783 C786 1.526 . S
C784 H768 0.959 . S
C784 H769 0.959 . S
C784 H770 0.961 . S
C784 C783 1.502 . S
C785 H771 0.960 . S
C785 H772 0.961 . S
C785 H773 0.959 . S
C785 C783 1.561 . S
C786 C783 1.526 . S
C786 C787 1.396 . S
C786 C791 1.390 . S
C787 C781 1.465 . S
C787 C786 1.396 . S
C787 C788 1.399 . S
C788 H774 0.929 . S
C788 C787 1.399 . S
C788 C789 1.385 . S
C789 H775 0.931 . S
C789 C788 1.385 . S
C789 C790 1.389 . S
C790 C789 1.389 . S
C790 C791 1.387 . S
C791 H776 0.930 . S
C791 C786 1.390 . S
C791 C790 1.387 . S
H792 C804 0.930 . S
H793 C806 0.930 . S
H794 C807 0.930 . S
H795 C811 0.959 . S
H796 C811 0.959 . S
H797 C811 0.961 . S
H798 C812 0.960 . S
H799 C812 0.961 . S
H800 C812 0.959 . S
H801 C815 0.929 . S
H802 C816 0.931 . S
H803 C818 0.930 . S
C804 H792 0.930 . S
C804 C805 1.399 . S
C804 C809 1.399 . S
C805 C804 1.399 . S
C805 C806 1.376 . S
C806 H793 0.930 . S
C806 C805 1.376 . S
C806 C807 1.388 . S
C807 H794 0.930 . S
C807 C806 1.388 . S
C807 C808 1.390 . S
C808 C807 1.390 . S
C808 C809 1.394 . S
C808 C814 1.465 . S
C809 C804 1.399 . S
C809 C808 1.394 . S
C809 C810 1.516 . S
C810 C809 1.516 . S
C810 C811 1.502 . S
C810 C812 1.561 . S
C810 C813 1.526 . S
C811 H795 0.959 . S
C811 H796 0.959 . S
C811 H797 0.961 . S
C811 C810 1.502 . S
C812 H798 0.960 . S
C812 H799 0.961 . S
C812 H800 0.959 . S
C812 C810 1.561 . S
C813 C810 1.526 . S
C813 C814 1.396 . S
C813 C818 1.390 . S
C814 C808 1.465 . S
C814 C813 1.396 . S
C814 C815 1.399 . S
C815 H801 0.929 . S
C815 C814 1.399 . S
C815 C816 1.385 . S
C816 H802 0.931 . S
C816 C815 1.385 . S
C816 C817 1.389 . S
C817 C816 1.389 . S
C817 C818 1.387 . S
C818 H803 0.930 . S
C818 C813 1.390 . S
C818 C817 1.387 . S
H819 C831 0.930 . S
H820 C833 0.930 . S
H821 C834 0.930 . S
H822 C838 0.959 . S
H823 C838 0.959 . S
H824 C838 0.961 . S
H825 C839 0.960 . S
H826 C839 0.961 . S
H827 C839 0.959 . S
H828 C842 0.929 . S
H829 C843 0.931 . S
H830 C845 0.930 . S
C831 H819 0.930 . S
C831 C832 1.399 . S
C831 C836 1.399 . S
C832 C831 1.399 . S
C832 C833 1.376 . S
C833 H820 0.930 . S
C833 C832 1.376 . S
C833 C834 1.388 . S
C834 H821 0.930 . S
C834 C833 1.388 . S
C834 C835 1.390 . S
C835 C834 1.390 . S
C835 C836 1.394 . S
C835 C841 1.465 . S
C836 C831 1.399 . S
C836 C835 1.394 . S
C836 C837 1.516 . S
C837 C836 1.516 . S
C837 C838 1.502 . S
C837 C839 1.561 . S
C837 C840 1.526 . S
C838 H822 0.959 . S
C838 H823 0.959 . S
C838 H824 0.961 . S
C838 C837 1.502 . S
C839 H825 0.960 . S
C839 H826 0.961 . S
C839 H827 0.959 . S
C839 C837 1.561 . S
C840 C837 1.526 . S
C840 C841 1.396 . S
C840 C845 1.390 . S
C841 C835 1.465 . S
C841 C840 1.396 . S
C841 C842 1.399 . S
C842 H828 0.929 . S
C842 C841 1.399 . S
C842 C843 1.385 . S
C843 H829 0.931 . S
C843 C842 1.385 . S
C843 C844 1.389 . S
C844 C843 1.389 . S
C844 C845 1.387 . S
C845 H830 0.930 . S
C845 C840 1.390 . S
C845 C844 1.387 . S
H846 C858 0.930 . S
H847 C860 0.930 . S
H848 C861 0.930 . S
H849 C865 0.959 . S
H850 C865 0.965 1_455 S
H851 C865 0.961 . S
H852 C866 0.960 . S
H853 C866 0.961 . S
H854 C866 0.959 . S
H855 C869 0.929 . S
H856 C870 0.931 . S
H857 C872 0.930 . S
C858 H846 0.930 . S
C858 C859 1.399 . S
C858 C863 1.399 . S
C859 C858 1.399 . S
C859 C860 1.376 . S
C860 H847 0.930 . S
C860 C859 1.376 . S
C860 C861 1.388 . S
C861 H848 0.930 . S
C861 C860 1.388 . S
C861 C862 1.390 . S
C862 C861 1.390 . S
C862 C863 1.394 . S
C862 C868 1.465 . S
C863 C858 1.399 . S
C863 C862 1.394 . S
C863 C864 1.516 . S
C864 C863 1.516 . S
C864 C865 1.502 1_455 S
C864 C866 1.561 . S
C864 C867 1.526 . S
C865 H849 0.959 . S
C865 H850 0.965 1_655 S
C865 H851 0.961 . S
C865 C864 1.502 1_655 S
C866 H852 0.960 . S
C866 H853 0.961 . S
C866 H854 0.959 . S
C866 C864 1.561 . S
C867 C864 1.526 . S
C867 C868 1.396 . S
C867 C872 1.390 . S
C868 C862 1.465 . S
C868 C867 1.396 . S
C868 C869 1.399 . S
C869 H855 0.929 . S
C869 C868 1.399 . S
C869 C870 1.385 . S
C870 H856 0.931 . S
C870 C869 1.385 . S
C870 C871 1.389 . S
C871 C870 1.389 . S
C871 C872 1.387 . S
C872 H857 0.930 . S
C872 C867 1.390 . S
C872 C871 1.387 . S
H873 C885 0.930 . S
H874 C887 0.930 . S
H875 C888 0.930 . S
H876 C892 0.959 . S
H877 C892 0.959 . S
H878 C892 0.961 . S
H879 C893 0.960 . S
H880 C893 0.961 . S
H881 C893 0.959 . S
H882 C896 0.929 . S
H883 C897 0.931 . S
H884 C899 0.930 . S
C885 H873 0.930 . S
C885 C886 1.399 . S
C885 C890 1.399 . S
C886 C885 1.399 . S
C886 C887 1.376 . S
C887 H874 0.930 . S
C887 C886 1.376 . S
C887 C888 1.388 . S
C888 H875 0.930 . S
C888 C887 1.388 . S
C888 C889 1.390 . S
C889 C888 1.390 . S
C889 C890 1.394 . S
C889 C895 1.465 . S
C890 C885 1.399 . S
C890 C889 1.394 . S
C890 C891 1.516 . S
C891 C890 1.516 . S
C891 C892 1.502 . S
C891 C893 1.561 . S
C891 C894 1.526 . S
C892 H876 0.959 . S
C892 H877 0.959 . S
C892 H878 0.961 . S
C892 C891 1.502 . S
C893 H879 0.960 . S
C893 H880 0.961 . S
C893 H881 0.959 . S
C893 C891 1.561 . S
C894 C891 1.526 . S
C894 C895 1.396 . S
C894 C899 1.390 . S
C895 C889 1.465 . S
C895 C894 1.396 . S
C895 C896 1.399 . S
C896 H882 0.929 . S
C896 C895 1.399 . S
C896 C897 1.385 . S
C897 H883 0.931 . S
C897 C896 1.385 . S
C897 C898 1.389 . S
C898 C897 1.389 . S
C898 C899 1.387 . S
C899 H884 0.930 . S
C899 C894 1.390 . S
C899 C898 1.387 . S
H900 C912 0.930 . S
H901 C914 0.930 . S
H902 C915 0.930 . S
H903 C919 0.959 . S
H904 C919 0.959 . S
H905 C919 0.961 . S
H906 C920 0.960 . S
H907 C920 0.961 . S
H908 C920 0.959 . S
H909 C923 0.929 . S
H910 C924 0.931 . S
H911 C926 0.930 . S
C912 H900 0.930 . S
C912 C913 1.399 1_565 S
C912 C917 1.399 . S
C913 C912 1.399 1_545 S
C913 C914 1.376 . S
C914 H901 0.930 . S
C914 C913 1.376 . S
C914 C915 1.388 . S
C915 H902 0.930 . S
C915 C914 1.388 . S
C915 C916 1.390 . S
C916 C915 1.390 . S
C916 C917 1.394 1_545 S
C916 C922 1.465 . S
C917 C912 1.399 . S
C917 C916 1.394 1_565 S
C917 C918 1.516 . S
C918 C917 1.516 . S
C918 C919 1.502 . S
C918 C920 1.561 . S
C918 C921 1.526 . S
C919 H903 0.959 . S
C919 H904 0.959 . S
C919 H905 0.961 . S
C919 C918 1.502 . S
C920 H906 0.960 . S
C920 H907 0.961 . S
C920 H908 0.959 . S
C920 C918 1.561 . S
C921 C918 1.526 . S
C921 C922 1.396 1_565 S
C921 C926 1.390 . S
C922 C916 1.465 . S
C922 C921 1.396 1_545 S
C922 C923 1.399 . S
C923 H909 0.929 . S
C923 C922 1.399 . S
C923 C924 1.385 . S
C924 H910 0.931 . S
C924 C923 1.385 . S
C924 C925 1.389 . S
C925 C924 1.389 . S
C925 C926 1.387 1_545 S
C926 H911 0.930 . S
C926 C921 1.390 . S
C926 C925 1.387 1_565 S
H927 C939 0.930 . S
H928 C941 0.930 . S
H929 C942 0.930 . S
H930 C946 0.959 . S
H931 C946 0.959 . S
H932 C946 0.961 . S
H933 C947 0.960 . S
H934 C947 0.961 . S
H935 C947 0.959 . S
H936 C950 0.929 . S
H937 C951 0.931 . S
H938 C953 0.930 . S
C939 H927 0.930 . S
C939 C940 1.399 . S
C939 C944 1.399 . S
C940 C939 1.399 . S
C940 C941 1.376 . S
C941 H928 0.930 . S
C941 C940 1.376 . S
C941 C942 1.388 . S
C942 H929 0.930 . S
C942 C941 1.388 . S
C942 C943 1.390 . S
C943 C942 1.390 . S
C943 C944 1.394 . S
C943 C949 1.465 . S
C944 C939 1.399 . S
C944 C943 1.394 . S
C944 C945 1.516 . S
C945 C944 1.516 . S
C945 C946 1.502 . S
C945 C947 1.561 . S
C945 C948 1.526 . S
C946 H930 0.959 . S
C946 H931 0.959 . S
C946 H932 0.961 . S
C946 C945 1.502 . S
C947 H933 0.960 . S
C947 H934 0.961 . S
C947 H935 0.959 . S
C947 C945 1.561 . S
C948 C945 1.526 . S
C948 C949 1.396 . S
C948 C953 1.390 1_556 S
C949 C943 1.465 . S
C949 C948 1.396 . S
C949 C950 1.399 . S
C950 H936 0.929 . S
C950 C949 1.399 . S
C950 C951 1.385 1_556 S
C951 H937 0.931 . S
C951 C950 1.385 1_554 S
C951 C952 1.389 . S
C952 C951 1.389 . S
C952 C953 1.387 . S
C953 H938 0.930 . S
C953 C948 1.390 1_554 S
C953 C952 1.387 . S
H954 C966 0.930 . S
H955 C968 0.930 . S
H956 C969 0.930 . S
H957 C973 0.959 . S
H958 C973 0.959 . S
H959 C973 0.961 . S
H960 C974 0.960 . S
H961 C974 0.961 . S
H962 C974 0.959 . S
H963 C977 0.929 . S
H964 C978 0.931 . S
H965 C980 0.930 . S
C966 H954 0.930 . S
C966 C967 1.399 . S
C966 C971 1.399 . S
C967 C966 1.399 . S
C967 C968 1.376 . S
C968 H955 0.930 . S
C968 C967 1.376 . S
C968 C969 1.388 . S
C969 H956 0.930 . S
C969 C968 1.388 . S
C969 C970 1.390 . S
C970 C969 1.390 . S
C970 C971 1.394 . S
C970 C976 1.465 . S
C971 C966 1.399 . S
C971 C970 1.394 . S
C971 C972 1.516 . S
C972 C971 1.516 . S
C972 C973 1.502 . S
C972 C974 1.561 . S
C972 C975 1.526 . S
C973 H957 0.959 . S
C973 H958 0.959 . S
C973 H959 0.961 . S
C973 C972 1.502 . S
C974 H960 0.960 . S
C974 H961 0.961 . S
C974 H962 0.959 . S
C974 C972 1.561 . S
C975 C972 1.526 . S
C975 C976 1.396 . S
C975 C980 1.390 1_556 S
C976 C970 1.465 . S
C976 C975 1.396 . S
C976 C977 1.399 . S
C977 H963 0.929 . S
C977 C976 1.399 . S
C977 C978 1.385 1_556 S
C978 H964 0.931 . S
C978 C977 1.385 1_554 S
C978 C979 1.389 . S
C979 C978 1.389 . S
C979 C980 1.387 . S
C980 H965 0.930 . S
C980 C975 1.390 1_554 S
C980 C979 1.387 . S
H981 C993 0.930 . S
H982 C995 0.930 . S
H983 C996 0.930 . S
H984 C1000 0.959 . S
H985 C1000 0.959 . S
H986 C1000 0.961 . S
H987 C1001 0.960 . S
H988 C1001 0.961 . S
H989 C1001 0.959 . S
H990 C1004 0.929 . S
H991 C1005 0.931 . S
H992 C1007 0.930 . S
C993 H981 0.930 . S
C993 C994 1.399 . S
C993 C998 1.399 . S
C994 C993 1.399 . S
C994 C995 1.376 . S
C995 H982 0.930 . S
C995 C994 1.376 . S
C995 C996 1.388 . S
C996 H983 0.930 . S
C996 C995 1.388 . S
C996 C997 1.390 . S
C997 C996 1.390 . S
C997 C998 1.394 . S
C997 C1003 1.465 . S
C998 C993 1.399 . S
C998 C997 1.394 . S
C998 C999 1.516 . S
C999 C998 1.516 . S
C999 C1000 1.502 . S
C999 C1001 1.561 . S
C999 C1002 1.526 . S
C1000 H984 0.959 . S
C1000 H985 0.959 . S
C1000 H986 0.961 . S
C1000 C999 1.502 . S
C1001 H987 0.960 . S
C1001 H988 0.961 . S
C1001 H989 0.959 . S
C1001 C999 1.561 . S
C1002 C999 1.526 . S
C1002 C1003 1.396 . S
C1002 C1007 1.390 1_556 S
C1003 C997 1.465 . S
C1003 C1002 1.396 . S
C1003 C1004 1.399 . S
C1004 H990 0.929 . S
C1004 C1003 1.399 . S
C1004 C1005 1.385 1_556 S
C1005 H991 0.931 . S
C1005 C1004 1.385 1_554 S
C1005 C1006 1.389 . S
C1006 C1005 1.389 . S
C1006 C1007 1.387 . S
C1007 H992 0.930 . S
C1007 C1002 1.390 1_554 S
C1007 C1006 1.387 . S
H1008 C1020 0.930 . S
H1009 C1022 0.930 . S
H1010 C1023 0.930 . S
H1011 C1027 0.959 . S
H1012 C1027 0.959 . S
H1013 C1027 0.961 . S
H1014 C1028 0.960 . S
H1015 C1028 0.961 . S
H1016 C1028 0.959 . S
H1017 C1031 0.929 . S
H1018 C1032 0.931 . S
H1019 C1034 0.930 . S
C1020 H1008 0.930 . S
C1020 C1021 1.399 . S
C1020 C1025 1.399 . S
C1021 C1020 1.399 . S
C1021 C1022 1.376 . S
C1022 H1009 0.930 . S
C1022 C1021 1.376 . S
C1022 C1023 1.388 . S
C1023 H1010 0.930 . S
C1023 C1022 1.388 . S
C1023 C1024 1.390 . S
C1024 C1023 1.390 . S
C1024 C1025 1.394 . S
C1024 C1030 1.465 . S
C1025 C1020 1.399 . S
C1025 C1024 1.394 . S
C1025 C1026 1.516 . S
C1026 C1025 1.516 . S
C1026 C1027 1.502 . S
C1026 C1028 1.561 . S
C1026 C1029 1.526 . S
C1027 H1011 0.959 . S
C1027 H1012 0.959 . S
C1027 H1013 0.961 . S
C1027 C1026 1.502 . S
C1028 H1014 0.960 . S
C1028 H1015 0.961 . S
C1028 H1016 0.959 . S
C1028 C1026 1.561 . S
C1029 C1026 1.526 . S
C1029 C1030 1.396 . S
C1029 C1034 1.390 1_554 S
C1030 C1024 1.465 . S
C1030 C1029 1.396 . S
C1030 C1031 1.399 . S
C1031 H1017 0.929 . S
C1031 C1030 1.399 . S
C1031 C1032 1.385 1_554 S
C1032 H1018 0.931 . S
C1032 C1031 1.385 1_556 S
C1032 C1033 1.389 . S
C1033 C1032 1.389 . S
C1033 C1034 1.387 . S
C1034 H1019 0.930 . S
C1034 C1029 1.390 1_556 S
C1034 C1033 1.387 . S
H1035 C1047 0.930 . S
H1036 C1049 0.930 . S
H1037 C1050 0.930 . S
H1038 C1054 0.959 . S
H1039 C1054 0.959 . S
H1040 C1054 0.961 . S
H1041 C1055 0.960 . S
H1042 C1055 0.961 . S
H1043 C1055 0.959 . S
H1044 C1058 0.929 . S
H1045 C1059 0.931 . S
H1046 C1061 0.930 . S
C1047 H1035 0.930 . S
C1047 C1048 1.399 . S
C1047 C1052 1.399 1_556 S
C1048 C1047 1.399 . S
C1048 C1049 1.376 . S
C1049 H1036 0.930 . S
C1049 C1048 1.376 . S
C1049 C1050 1.388 1_556 S
C1050 H1037 0.930 . S
C1050 C1049 1.388 1_554 S
C1050 C1051 1.390 . S
C1051 C1050 1.390 . S
C1051 C1052 1.394 . S
C1051 C1057 1.465 . S
C1052 C1047 1.399 1_554 S
C1052 C1051 1.394 . S
C1052 C1053 1.516 . S
C1053 C1052 1.516 . S
C1053 C1054 1.502 . S
C1053 C1055 1.561 . S
C1053 C1056 1.526 . S
C1054 H1038 0.959 . S
C1054 H1039 0.959 . S
C1054 H1040 0.961 . S
C1054 C1053 1.502 . S
C1055 H1041 0.960 . S
C1055 H1042 0.961 . S
C1055 H1043 0.959 . S
C1055 C1053 1.561 . S
C1056 C1053 1.526 . S
C1056 C1057 1.396 . S
C1056 C1061 1.390 . S
C1057 C1051 1.465 . S
C1057 C1056 1.396 . S
C1057 C1058 1.399 . S
C1058 H1044 0.929 . S
C1058 C1057 1.399 . S
C1058 C1059 1.385 . S
C1059 H1045 0.931 . S
C1059 C1058 1.385 . S
C1059 C1060 1.389 . S
C1060 C1059 1.389 . S
C1060 C1061 1.387 . S
C1061 H1046 0.930 . S
C1061 C1056 1.390 . S
C1061 C1060 1.387 . S
H1062 C1074 0.930 . S
H1063 C1076 0.930 . S
H1064 C1077 0.930 . S
H1065 C1081 0.959 . S
H1066 C1081 0.959 . S
H1067 C1081 0.961 . S
H1068 C1082 0.960 . S
H1069 C1082 0.961 . S
H1070 C1082 0.959 . S
H1071 C1085 0.929 . S
H1072 C1086 0.931 . S
H1073 C1088 0.930 . S
C1074 H1062 0.930 . S
C1074 C1075 1.399 . S
C1074 C1079 1.399 . S
C1075 C1074 1.399 . S
C1075 C1076 1.376 . S
C1076 H1063 0.930 . S
C1076 C1075 1.376 . S
C1076 C1077 1.388 . S
C1077 H1064 0.930 . S
C1077 C1076 1.388 . S
C1077 C1078 1.390 . S
C1078 C1077 1.390 . S
C1078 C1079 1.394 . S
C1078 C1084 1.465 . S
C1079 C1074 1.399 . S
C1079 C1078 1.394 . S
C1079 C1080 1.516 . S
C1080 C1079 1.516 . S
C1080 C1081 1.502 . S
C1080 C1082 1.561 . S
C1080 C1083 1.526 . S
C1081 H1065 0.959 . S
C1081 H1066 0.959 . S
C1081 H1067 0.961 . S
C1081 C1080 1.502 . S
C1082 H1068 0.960 . S
C1082 H1069 0.961 . S
C1082 H1070 0.959 . S
C1082 C1080 1.561 . S
C1083 C1080 1.526 . S
C1083 C1084 1.396 . S
C1083 C1088 1.390 1_554 S
C1084 C1078 1.465 . S
C1084 C1083 1.396 . S
C1084 C1085 1.399 . S
C1085 H1071 0.929 . S
C1085 C1084 1.399 . S
C1085 C1086 1.385 1_554 S
C1086 H1072 0.931 . S
C1086 C1085 1.385 1_556 S
C1086 C1087 1.389 . S
C1087 C1086 1.389 . S
C1087 C1088 1.387 . S
C1088 H1073 0.930 . S
C1088 C1083 1.390 1_556 S
C1088 C1087 1.387 . S
C373 C6 1.896 . S
C385 C290 1.880 . S
C400 C46 1.926 . S
C412 C330 1.842 . S
C427 C86 1.898 . S
C439 C250 1.885 . S
C454 C166 1.918 . S
C466 C90 1.836 . S
C481 C206 1.896 . S
C493 C10 1.884 . S
C508 C50 1.881 . S
C520 C126 1.902 . S
C535 C286 1.934 . S
C547 C210 1.815 . S
C562 C326 1.896 . S
C574 C130 1.886 . S
C589 C170 1.878 . S
C601 C246 1.904 1_545 S
C616 C95 1.667 . S
C628 C19 1.679 . S
C643 C59 1.690 1_554 S
C655 C15 1.687 . S
C670 C55 1.667 . S
C682 C99 1.679 1_554 S
C697 C139 1.691 . S
C709 C215 1.689 . S
C724 C135 1.696 . S
C736 C179 1.699 . S
C751 C175 1.667 . S
C763 C219 1.679 . S
C778 C335 1.689 . S
C790 C259 1.696 . S
C805 C299 1.690 . S
C817 C255 1.680 . S
C832 C339 1.690 . S
C844 C295 1.682 . S
C859 C18 0.942 1_455 S
C871 C9 1.006 . S
C886 C58 0.938 . S
C898 C49 0.991 . S
C913 C98 0.920 . S
C925 C89 1.035 . S
C940 C129 1.014 . S
C952 C138 0.922 . S
C967 C169 1.017 . S
C979 C178 0.934 . S
C994 C209 0.966 . S
C1006 C218 0.962 . S
C1021 C258 0.956 . S
C1033 C249 1.001 . S
C1048 C289 0.927 . S
C1060 C298 1.004 . S
C1075 C338 0.919 . S
C1087 C329 1.020 . S
