# Generated by pormake.
# Topology rac, (4)-cn, num edge types: 1
# Building blocks:
#     Node 0, Type 0, BuildingBlock: GALJAG_clean_sbu_0, # of connection points: 4
#     Node 1, Type 0, BuildingBlock: GALJAG_clean_sbu_0, # of connection points: 4
#     Node 2, Type 0, BuildingBlock: GALJAG_clean_sbu_0, # of connection points: 4
#     Node 3, Type 0, BuildingBlock: GALJAG_clean_sbu_0, # of connection points: 4
#     Node 4, Type 0, BuildingBlock: GALJAG_clean_sbu_0, # of connection points: 4
#     Node 5, Type 0, BuildingBlock: GALJAG_clean_sbu_0, # of connection points: 4
#     Node 6, Type 0, BuildingBlock: GALJAG_clean_sbu_0, # of connection points: 4
#     Node 7, Type 0, BuildingBlock: GALJAG_clean_sbu_0, # of connection points: 4
#     Edge 8, Type (0, 0), BuildingBlock: ZUJKAS_clean_linker_0, # of connection points: 2
#     Edge 9, Type (0, 0), BuildingBlock: ZUJKAS_clean_linker_0, # of connection points: 2
#     Edge 10, Type (0, 0), BuildingBlock: ZUJKAS_clean_linker_0, # of connection points: 2
#     Edge 11, Type (0, 0), BuildingBlock: ZUJKAS_clean_linker_0, # of connection points: 2
#     Edge 12, Type (0, 0), BuildingBlock: ZUJKAS_clean_linker_0, # of connection points: 2
#     Edge 13, Type (0, 0), BuildingBlock: ZUJKAS_clean_linker_0, # of connection points: 2
#     Edge 14, Type (0, 0), BuildingBlock: ZUJKAS_clean_linker_0, # of connection points: 2
#     Edge 15, Type (0, 0), BuildingBlock: ZUJKAS_clean_linker_0, # of connection points: 2
#     Edge 16, Type (0, 0), BuildingBlock: ZUJKAS_clean_linker_0, # of connection points: 2
#     Edge 17, Type (0, 0), BuildingBlock: ZUJKAS_clean_linker_0, # of connection points: 2
#     Edge 18, Type (0, 0), BuildingBlock: ZUJKAS_clean_linker_0, # of connection points: 2
#     Edge 19, Type (0, 0), BuildingBlock: ZUJKAS_clean_linker_0, # of connection points: 2
#     Edge 20, Type (0, 0), BuildingBlock: ZUJKAS_clean_linker_0, # of connection points: 2
#     Edge 21, Type (0, 0), BuildingBlock: ZUJKAS_clean_linker_0, # of connection points: 2
#     Edge 22, Type (0, 0), BuildingBlock: ZUJKAS_clean_linker_0, # of connection points: 2
#     Edge 23, Type (0, 0), BuildingBlock: ZUJKAS_clean_linker_0, # of connection points: 2
# Relax obj value: 0.254
# Max RMSD: 0.115
# Mean RMSD: 0.115
data_MOF--net-rac--node1-GALJAG_clean_sbu_0--edge1-ZUJKAS_clean_linker_0
_symmetry_space_group_name_H-M    P1
_symmetry_Int_Tables_number       1
_symmetry_cell_setting            triclinic
loop_
_symmetry_equiv_pos_as_xyz
'x, y, z'
_cell_length_a     46.612504
_cell_length_b     29.964873
_cell_length_c     50.966699
_cell_angle_alpha  89.990176
_cell_angle_beta   89.953127
_cell_angle_gamma 90.104158
loop_
_atom_site_label
_atom_site_type_symbol
_atom_site_fract_x
_atom_site_fract_y
_atom_site_fract_z
_atom_type_partial_charge
In0 In 0.3641 0.27475 0.05989 0.0
O1 O 0.35209 0.2922 0.10162 0.0
O2 O 0.38627 0.24576 0.09594 0.0
C3 C 0.32816 0.32525 0.03202 0.0
C4 C 0.33823 0.19609 0.04958 0.0
C5 C 0.41051 0.32449 0.04759 0.0
O6 O 0.32708 0.32306 0.0568 0.0
O7 O 0.34755 0.30213 0.02135 0.0
O8 O 0.40526 0.28814 0.03568 0.0
O9 O 0.39333 0.33368 0.06591 0.0
C10 C 0.37084 0.26736 0.11198 0.0
O11 O 0.36481 0.20149 0.04491 0.0
O12 O 0.32593 0.22947 0.05946 0.0
In13 In 0.13331 0.7292 0.05402 0.0
O14 O 0.13346 0.80391 0.04162 0.0
O15 O 0.17304 0.76987 0.04706 0.0
C16 C 0.08368 0.68661 0.04256 0.0
C17 C 0.13098 0.73654 0.10649 0.0
C18 C 0.16592 0.67166 0.02738 0.0
O19 O 0.09287 0.71846 0.02846 0.0
O20 O 0.09831 0.67922 0.06285 0.0
O21 O 0.16865 0.67772 0.05182 0.0
O22 O 0.14668 0.69465 0.01642 0.0
C23 C 0.16068 0.80582 0.04128 0.0
O24 O 0.14598 0.70743 0.09494 0.0
O25 O 0.11717 0.76242 0.09148 0.0
In26 In 0.36872 0.23562 0.44482 0.0
O27 O 0.36936 0.30973 0.45849 0.0
O28 O 0.32956 0.2779 0.45008 0.0
C29 C 0.41663 0.18958 0.45702 0.0
C30 C 0.37357 0.24431 0.39253 0.0
C31 C 0.33421 0.18005 0.47103 0.0
O32 O 0.40952 0.22425 0.46975 0.0
O33 O 0.40057 0.18044 0.43788 0.0
O34 O 0.33276 0.18504 0.44641 0.0
O35 O 0.35324 0.20301 0.48241 0.0
C36 C 0.34222 0.31285 0.45737 0.0
O37 O 0.3555 0.21863 0.40326 0.0
O38 O 0.38919 0.26616 0.40828 0.0
In39 In 0.13549 0.77738 0.44014 0.0
O40 O 0.13617 0.70388 0.45456 0.0
O41 O 0.17504 0.73522 0.44247 0.0
C42 C 0.0867 0.8211 0.45255 0.0
C43 C 0.1309 0.76983 0.38781 0.0
C44 C 0.16963 0.83194 0.46747 0.0
O45 O 0.09421 0.78619 0.46485 0.0
O46 O 0.10275 0.83144 0.43359 0.0
O47 O 0.17135 0.82806 0.44281 0.0
O48 O 0.15056 0.80834 0.47833 0.0
C49 C 0.1631 0.70056 0.45122 0.0
O50 O 0.14649 0.79888 0.39879 0.0
O51 O 0.11742 0.74427 0.40332 0.0
In52 In 0.62408 0.74049 0.94339 0.0
O53 O 0.63358 0.71918 0.90179 0.0
O54 O 0.60703 0.77643 0.90695 0.0
C55 C 0.65922 0.68017 0.9648 0.0
C56 C 0.65279 0.81615 0.95605 0.0
C57 C 0.57485 0.69922 0.95817 0.0
O58 O 0.65815 0.68727 0.94038 0.0
O59 O 0.64237 0.7035 0.97851 0.0
O60 O 0.58631 0.72912 0.97229 0.0
O61 O 0.58695 0.6934 0.93637 0.0
C62 C 0.61913 0.74983 0.89114 0.0
O63 O 0.62558 0.8148 0.95673 0.0
O64 O 0.6645 0.78014 0.94933 0.0
In65 In 0.87233 0.26925 0.94485 0.0
O66 O 0.8683 0.19547 0.95829 0.0
O67 O 0.83052 0.2323 0.94968 0.0
C68 C 0.92327 0.30397 0.96057 0.0
C69 C 0.87557 0.25958 0.89256 0.0
C70 C 0.84206 0.33607 0.96589 0.0
O71 O 0.90847 0.27913 0.97542 0.0
O72 O 0.91379 0.30695 0.93754 0.0
O73 O 0.84621 0.33251 0.94148 0.0
O74 O 0.85267 0.30528 0.97968 0.0
C75 C 0.84113 0.19564 0.95677 0.0
O76 O 0.86068 0.28947 0.90351 0.0
O77 O 0.88891 0.23398 0.9081 0.0
In78 In 0.64113 0.77569 0.55863 0.0
O79 O 0.6392 0.70579 0.53925 0.0
O80 O 0.66993 0.71868 0.5693 0.0
C81 C 0.59958 0.83304 0.54392 0.0
C82 C 0.63055 0.77721 0.61034 0.0
C83 C 0.68316 0.81318 0.53041 0.0
O84 O 0.59743 0.7916 0.53886 0.0
O85 O 0.62185 0.8439 0.55639 0.0
O86 O 0.6828 0.81402 0.55522 0.0
O87 O 0.66246 0.79272 0.51987 0.0
C88 C 0.66005 0.69133 0.55284 0.0
O89 O 0.6511 0.79838 0.59989 0.0
O90 O 0.61513 0.75495 0.59458 0.0
In91 In 0.86491 0.22625 0.55901 0.0
O92 O 0.85428 0.20355 0.60013 0.0
O93 O 0.88489 0.25627 0.59594 0.0
C94 C 0.83122 0.17244 0.53055 0.0
C95 C 0.83771 0.30435 0.55046 0.0
C96 C 0.91348 0.18205 0.54663 0.0
O97 O 0.82952 0.17485 0.55526 0.0
O98 O 0.84958 0.1979 0.52016 0.0
O99 O 0.90671 0.21793 0.53492 0.0
O100 O 0.89681 0.17097 0.56498 0.0
C101 C 0.87108 0.23076 0.61127 0.0
O102 O 0.8636 0.29895 0.54336 0.0
O103 O 0.82652 0.27102 0.56156 0.0
H104 H 0.35814 0.11251 0.03538 0.0
H105 H 0.32905 0.04468 0.02837 0.0
H106 H 0.25214 0.11948 0.04461 0.0
H107 H 0.28059 0.18646 0.05149 0.0
H108 H 0.29086 0.00515 0.06605 0.0
H109 H 0.23226 0.05443 0.97606 0.0
H110 H 0.26487 0.0818 0.98653 0.0
H111 H 0.23113 0.09573 0.00156 0.0
C112 C 0.33502 0.11441 0.03716 0.0
C113 C 0.32171 0.15483 0.04399 0.0
C114 C 0.31844 0.07575 0.03317 0.0
C115 C 0.28836 0.07725 0.03553 0.0
C116 C 0.27519 0.11768 0.04211 0.0
H117 H 0.14347 0.89393 0.04286 0.0
H118 H 0.17475 0.96017 0.03987 0.0
C119 C 0.29161 0.15594 0.04625 0.0
C120 C 0.27048 0.03638 0.03297 0.0
H121 H 0.21278 0.99298 0.00024 0.0
C122 C 0.27406 1.00214 0.05143 0.0
C123 C 0.24829 0.03286 0.01411 0.0
C124 C 0.24401 0.06797 0.99328 0.0
C125 C 0.25554 0.96511 0.05206 0.0
C126 C 0.23318 0.96172 0.03333 0.0
C127 C 0.22981 0.9957 0.01465 0.0
C128 C 0.21358 0.92254 0.03265 0.0
C129 C 0.25952 0.93065 0.07335 0.0
C130 C 0.22481 0.87977 0.02857 0.0
C131 C 0.20716 0.84227 0.03038 0.0
C132 C 0.17773 0.84662 0.03597 0.0
C133 C 0.16605 0.8896 0.03853 0.0
C134 C 0.1839 0.92735 0.0369 0.0
H135 H 0.27216 0.94404 0.09008 0.0
H136 H 0.23852 0.91864 0.08087 0.0
H137 H 0.27132 0.90165 0.06522 0.0
H138 H 0.24746 0.87528 0.02459 0.0
H139 H 0.21678 0.80964 0.02796 0.0
H140 H 0.22095 0.69316 0.44972 0.0
H141 H 0.25012 0.62668 0.45559 0.0
H142 H 0.17393 0.54903 0.47085 0.0
H143 H 0.1442 0.6161 0.46467 0.0
H144 H 0.25617 0.56835 0.4982 0.0
H145 H 0.21313 0.48262 0.40976 0.0
H146 H 0.2072 0.54116 0.41599 0.0
H147 H 0.18688 0.49981 0.43353 0.0
C148 C 0.21025 0.66203 0.45439 0.0
C149 C 0.18016 0.65984 0.45651 0.0
C150 C 0.22706 0.62404 0.45784 0.0
C151 C 0.21425 0.5828 0.46336 0.0
C152 C 0.18424 0.58048 0.46621 0.0
H153 H 0.28576 0.31727 0.4688 0.0
H154 H 0.25582 0.38331 0.47301 0.0
C155 C 0.16728 0.61877 0.46281 0.0
C156 C 0.23261 0.54242 0.4652 0.0
H157 H 0.24779 0.44409 0.43443 0.0
C158 C 0.25428 0.54101 0.48436 0.0
C159 C 0.2303 0.50708 0.44695 0.0
C160 C 0.20831 0.50764 0.42523 0.0
C161 C 0.27348 0.50493 0.48593 0.0
C162 C 0.27127 0.46972 0.46756 0.0
C163 C 0.2495 0.47111 0.44851 0.0
C164 C 0.29064 0.43032 0.46795 0.0
C165 C 0.29564 0.50447 0.50748 0.0
C166 C 0.32047 0.43461 0.46423 0.0
C167 C 0.33788 0.39653 0.46202 0.0
C168 C 0.32557 0.35374 0.46313 0.0
C169 C 0.2959 0.34977 0.46768 0.0
C170 C 0.2787 0.38753 0.47009 0.0
H171 H 0.28992 0.52763 0.52367 0.0
H172 H 0.29823 0.47038 0.51568 0.0
H173 H 0.31662 0.51524 0.49932 0.0
H174 H 0.33013 0.46729 0.46205 0.0
H175 H 0.36062 0.40055 0.45831 0.0
H176 H 0.63606 0.90454 0.95864 0.0
H177 H 0.66784 0.97013 0.96237 0.0
H178 H 0.74103 0.88321 0.96945 0.0
H179 H 0.70986 0.81832 0.96542 0.0
H180 H 0.70923 0.99702 0.00139 0.0
H181 H 0.76108 0.96087 0.90574 0.0
H182 H 0.72787 0.93489 0.91577 0.0
H183 H 0.76155 0.91469 0.92816 0.0
C184 C 0.65888 0.89958 0.96128 0.0
C185 C 0.67048 0.85631 0.96141 0.0
C186 C 0.67702 0.93699 0.96335 0.0
C187 C 0.7069 0.93152 0.96558 0.0
C188 C 0.71818 0.88829 0.9671 0.0
H189 H 0.85685 0.1079 0.96443 0.0
H190 H 0.82463 0.04317 0.96908 0.0
C191 C 0.70024 0.85119 0.96489 0.0
C192 C 0.72669 0.97051 0.96556 0.0
H193 H 0.78313 0.01638 0.93212 0.0
C194 C 0.72528 1.00145 0.98619 0.0
C195 C 0.74775 0.97613 0.94576 0.0
C196 C 0.74957 0.94515 0.92246 0.0
C197 C 0.74469 0.0374 0.98778 0.0
C198 C 0.76581 0.04286 0.96802 0.0
C199 C 0.76717 0.01191 0.94741 0.0
C200 C 0.78552 0.08195 0.96736 0.0
C201 C 0.74275 0.06878 0.01085 0.0
C202 C 0.77429 0.12507 0.96481 0.0
C203 C 0.79253 0.16178 0.96209 0.0
C204 C 0.82252 0.15631 0.96176 0.0
C205 C 0.83388 0.11319 0.96476 0.0
C206 C 0.81549 0.07625 0.96736 0.0
H207 H 0.7315 0.05309 0.02773 0.0
H208 H 0.76439 0.07971 0.01732 0.0
H209 H 0.73043 0.09883 0.005 0.0
H210 H 0.75131 0.13028 0.96416 0.0
H211 H 0.78303 0.1945 0.95975 0.0
H212 H 0.69282 0.6469 0.58784 0.0
H213 H 0.72288 0.58181 0.58013 0.0
H214 H 0.69111 0.57274 0.50086 0.0
H215 H 0.66016 0.63798 0.50876 0.0
H216 H 0.69691 0.49044 0.5236 0.0
H217 H 0.79666 0.58659 0.53848 0.0
H218 H 0.77317 0.59223 0.56614 0.0
H219 H 0.76219 0.61312 0.53455 0.0
C220 C 0.69193 0.6308 0.56882 0.0
C221 C 0.67427 0.64772 0.54883 0.0
C222 C 0.70939 0.59384 0.56436 0.0
C223 C 0.71005 0.5733 0.53964 0.0
C224 C 0.69127 0.5885 0.51998 0.0
H225 H 0.85029 0.37695 0.51896 0.0
H226 H 0.81973 0.44269 0.51119 0.0
C227 C 0.67346 0.62552 0.52454 0.0
C228 C 0.73047 0.53604 0.53481 0.0
H229 H 0.80065 0.5066 0.54341 0.0
C230 C 0.71966 0.49413 0.5275 0.0
C231 C 0.76035 0.54096 0.53913 0.0
C232 C 0.77381 0.5858 0.54471 0.0
C233 C 0.73757 0.45648 0.52625 0.0
C234 C 0.76693 0.4606 0.53315 0.0
C235 C 0.7781 0.50311 0.53859 0.0
C236 C 0.78564 0.42092 0.53714 0.0
C237 C 0.72469 0.41253 0.51784 0.0
C238 C 0.7771 0.38757 0.55481 0.0
C239 C 0.79431 0.35029 0.55912 0.0
C240 C 0.82083 0.34562 0.54623 0.0
C241 C 0.82995 0.37961 0.52912 0.0
C242 C 0.81247 0.41703 0.52462 0.0
H243 H 0.70635 0.41775 0.50428 0.0
H244 H 0.74078 0.391 0.50797 0.0
H245 H 0.71639 0.3947 0.53537 0.0
H246 H 0.7571 0.39046 0.5655 0.0
H247 H 0.78676 0.32505 0.5727 0.0
H248 H 0.33675 0.30396 0.14956 0.0
H249 H 0.34279 0.30038 0.19706 0.0
H250 H 0.41962 0.22215 0.18704 0.0
H251 H 0.41326 0.22463 0.13928 0.0
H252 H 0.38563 0.1879 0.22462 0.0
H253 H 0.3987 0.36884 0.24195 0.0
H254 H 0.36625 0.357 0.2244 0.0
H255 H 0.40041 0.34464 0.20956 0.0
C256 C 0.355 0.2861 0.15744 0.0
C257 C 0.37461 0.26472 0.14071 0.0
C258 C 0.35856 0.28441 0.1846 0.0
C259 C 0.38203 0.26193 0.1956 0.0
C260 C 0.4015 0.24006 0.17895 0.0
H261 H 0.41524 0.2877 0.36449 0.0
H262 H 0.42063 0.2904 0.31664 0.0
C263 C 0.39783 0.24146 0.15171 0.0
C264 C 0.3854 0.25979 0.22451 0.0
H265 H 0.38623 0.32447 0.27964 0.0
C266 C 0.38613 0.21776 0.23664 0.0
C267 C 0.38669 0.29873 0.24019 0.0
C268 C 0.3883 0.34481 0.22833 0.0
C269 C 0.3867 0.21363 0.26406 0.0
C270 C 0.38575 0.25257 0.27976 0.0
C271 C 0.38646 0.2946 0.26762 0.0
C272 C 0.38287 0.25045 0.30872 0.0
C273 C 0.38834 0.16753 0.27589 0.0
C274 C 0.3596 0.22783 0.32012 0.0
C275 C 0.3566 0.22599 0.34735 0.0
C276 C 0.37657 0.24738 0.36374 0.0
C277 C 0.39954 0.27088 0.35233 0.0
C278 C 0.40265 0.27239 0.32503 0.0
H279 H 0.39847 0.14349 0.26214 0.0
H280 H 0.40071 0.16767 0.2945 0.0
H281 H 0.3663 0.15539 0.2801 0.0
H282 H 0.34358 0.21181 0.30794 0.0
H283 H 0.33854 0.20796 0.35556 0.0
H284 H 0.10394 0.705 0.35905 0.0
H285 H 0.10268 0.69789 0.31111 0.0
H286 H 0.15141 0.81976 0.30371 0.0
H287 H 0.15333 0.8265 0.35143 0.0
H288 H 0.08136 0.7535 0.27274 0.0
H289 H 0.19878 0.73255 0.26098 0.0
H290 H 0.1812 0.7289 0.29246 0.0
H291 H 0.18936 0.7825 0.27835 0.0
C292 C 0.11439 0.73021 0.34717 0.0
C293 C 0.12898 0.76606 0.35896 0.0
C294 C 0.11362 0.72616 0.31982 0.0
C295 C 0.12742 0.75785 0.30388 0.0
C296 C 0.14124 0.79433 0.31565 0.0
H297 H 0.10474 0.80059 0.13626 0.0
H298 H 0.10285 0.80501 0.18423 0.0
C299 C 0.14219 0.79825 0.34292 0.0
C300 C 0.12749 0.75285 0.27495 0.0
H301 H 0.17206 0.7455 0.22198 0.0
C302 C 0.10116 0.7515 0.26161 0.0
C303 C 0.15335 0.74958 0.26052 0.0
C304 C 0.18227 0.74799 0.27381 0.0
C305 C 0.10002 0.7479 0.23415 0.0
C306 C 0.12593 0.74655 0.21966 0.0
C307 C 0.15221 0.74705 0.23307 0.0
C308 C 0.12642 0.74376 0.19061 0.0
C309 C 0.0711 0.74477 0.22099 0.0
C310 C 0.14096 0.70857 0.17826 0.0
C311 C 0.14245 0.70636 0.15093 0.0
C312 C 0.12939 0.73931 0.13539 0.0
C313 C 0.11485 0.77459 0.14774 0.0
C314 C 0.11356 0.77696 0.17514 0.0
H315 H 0.05419 0.73351 0.23489 0.0
H316 H 0.06493 0.77823 0.21359 0.0
H317 H 0.07169 0.72137 0.20411 0.0
H318 H 0.15115 0.68271 0.1898 0.0
H319 H 0.15377 0.67873 0.14198 0.0
H320 H 0.59746 0.81944 0.86244 0.0
H321 H 0.59599 0.82615 0.81448 0.0
H322 H 0.63336 0.6951 0.80716 0.0
H323 H 0.63568 0.68882 0.85482 0.0
H324 H 0.66046 0.75387 0.77698 0.0
H325 H 0.54317 0.76927 0.76119 0.0
H326 H 0.55752 0.81019 0.78333 0.0
H327 H 0.55832 0.75209 0.79216 0.0
C328 C 0.60514 0.79199 0.85054 0.0
C329 C 0.61674 0.75367 0.86234 0.0
C330 C 0.6041 0.79571 0.82317 0.0
C331 C 0.6142 0.76085 0.80721 0.0
C332 C 0.6254 0.72237 0.81906 0.0
H333 H 0.59486 0.72336 0.639 0.0
H334 H 0.59002 0.72079 0.68691 0.0
C335 C 0.62672 0.71885 0.84631 0.0
C336 C 0.61485 0.76512 0.77821 0.0
H337 H 0.5731 0.78218 0.72407 0.0
C338 C 0.64133 0.75996 0.76543 0.0
C339 C 0.58983 0.77253 0.76312 0.0
C340 C 0.56055 0.77591 0.77559 0.0
C341 C 0.64354 0.7621 0.73804 0.0
C342 C 0.61871 0.77102 0.72298 0.0
C343 C 0.59215 0.77585 0.73569 0.0
C344 C 0.61998 0.77473 0.694 0.0
C345 C 0.67239 0.75367 0.72549 0.0
C346 C 0.63781 0.80664 0.68212 0.0
C347 C 0.64086 0.8078 0.65488 0.0
C348 C 0.62573 0.77756 0.63897 0.0
C349 C 0.60685 0.74694 0.65079 0.0
C350 C 0.60404 0.7455 0.67812 0.0
H351 H 0.68693 0.73507 0.73883 0.0
H352 H 0.67011 0.73444 0.70699 0.0
H353 H 0.68274 0.7861 0.72085 0.0
H354 H 0.64974 0.83025 0.69395 0.0
H355 H 0.65529 0.83215 0.6463 0.0
H356 H 0.9 0.29238 0.64093 0.0
H357 H 0.90333 0.29529 0.68891 0.0
H358 H 0.85306 0.1746 0.69444 0.0
H359 H 0.84901 0.17221 0.64672 0.0
H360 H 0.83344 0.23728 0.72693 0.0
H361 H 0.95119 0.22196 0.73905 0.0
H362 H 0.94092 0.26733 0.7181 0.0
H363 H 0.93338 0.21084 0.7083 0.0
C364 C 0.88984 0.26635 0.65242 0.0
C365 C 0.87422 0.23211 0.6401 0.0
C366 C 0.89194 0.26784 0.6798 0.0
C367 C 0.87882 0.23476 0.69527 0.0
C368 C 0.86344 0.20038 0.68292 0.0
H369 H 0.90128 0.19363 0.86371 0.0
H370 H 0.90238 0.18658 0.81573 0.0
C371 C 0.86114 0.19909 0.65564 0.0
C372 C 0.87957 0.23711 0.72434 0.0
H373 H 0.92447 0.24198 0.77722 0.0
C374 C 0.85336 0.23808 0.73791 0.0
C375 C 0.90556 0.23751 0.73868 0.0
C376 C 0.93436 0.2339 0.72533 0.0
C377 C 0.85239 0.24015 0.76538 0.0
C378 C 0.87835 0.2425 0.77967 0.0
C379 C 0.9046 0.24067 0.76618 0.0
C380 C 0.87857 0.24733 0.80862 0.0
C381 C 0.82351 0.23913 0.77881 0.0
C382 C 0.86531 0.2842 0.82044 0.0
C383 C 0.86444 0.28806 0.84771 0.0
C384 C 0.87717 0.25544 0.86371 0.0
C385 C 0.89118 0.21916 0.85186 0.0
C386 C 0.89187 0.21515 0.8245 0.0
H387 H 0.80676 0.22419 0.76601 0.0
H388 H 0.82442 0.21984 0.7974 0.0
H389 H 0.81685 0.27376 0.78348 0.0
H390 H 0.85553 0.30998 0.80856 0.0
H391 H 0.85377 0.31669 0.85625 0.0
H392 H 0.43567 0.33413 0.99912 0.0
H393 H 0.46461 0.39793 0.98397 0.0
H394 H 0.46236 0.45396 0.06184 0.0
H395 H 0.43356 0.39086 0.07696 0.0
H396 H 0.44423 0.48989 0.98813 0.0
H397 H 0.54784 0.46501 0.03976 0.0
H398 H 0.52267 0.42007 0.03418 0.0
H399 H 0.51641 0.45971 0.05998 0.0
C400 C 0.44206 0.35944 0.01312 0.0
C401 C 0.43246 0.35742 0.03924 0.0
C402 C 0.45839 0.39602 0.00442 0.0
C403 C 0.46577 0.4306 0.02182 0.0
C404 C 0.45727 0.42746 0.04815 0.0
H405 H 0.55531 0.68631 0.00856 0.0
H406 H 0.52605 0.62351 0.02439 0.0
C407 C 0.44076 0.39135 0.05674 0.0
C408 C 0.48023 0.4718 0.01227 0.0
H409 H 0.54052 0.53555 0.01975 0.0
C410 C 0.46538 0.49975 0.99486 0.0
C411 C 0.5076 0.48496 0.02142 0.0
C412 C 0.52474 0.45578 0.03971 0.0
C413 C 0.47699 0.54079 0.98661 0.0
C414 C 0.50454 0.55382 0.99555 0.0
C415 C 0.51935 0.52582 0.01302 0.0
C416 C 0.51913 0.59497 0.98588 0.0
C417 C 0.4593 0.57023 0.9689 0.0
C418 C 0.5245 0.60041 0.95898 0.0
C419 C 0.54091 0.63632 0.94994 0.0
C420 C 0.55263 0.66751 0.96759 0.0
C421 C 0.54631 0.66319 0.99444 0.0
C422 C 0.5298 0.62709 0.00352 0.0
H423 H 0.43601 0.56305 0.97096 0.0
H424 H 0.46302 0.60611 0.97316 0.0
H425 H 0.46535 0.56377 0.94819 0.0
H426 H 0.51711 0.57574 0.945 0.0
H427 H 0.54555 0.63842 0.92914 0.0
H428 H 0.05401 0.62873 0.07336 0.0
H429 H 0.02608 0.56402 0.05909 0.0
H430 H 0.03612 0.60483 0.97849 0.0
H431 H 0.06419 0.67001 0.99271 0.0
H432 H 0.97528 0.55347 0.02627 0.0
H433 H 0.07372 0.47804 0.98347 0.0
H434 H 0.07499 0.52426 0.00617 0.0
H435 H 0.065 0.53349 0.97261 0.0
C436 C 0.04968 0.62458 0.05262 0.0
C437 C 0.06133 0.65444 0.03414 0.0
C438 C 0.03379 0.58747 0.0445 0.0
C439 C 0.0295 0.57914 0.01773 0.0
C440 C 0.03954 0.61035 0.99926 0.0
H441 H 0.95834 0.35695 0.93132 0.0
H442 H 0.98538 0.4219 0.94633 0.0
C443 C 0.05528 0.64784 0.00741 0.0
C444 C 0.01607 0.53642 0.00932 0.0
H445 H 0.03069 0.43719 0.97907 0.0
C446 C 0.98734 0.52801 0.01594 0.0
C447 C 0.03194 0.50317 0.996 0.0
C448 C 0.06319 0.50979 0.98926 0.0
C449 C 0.97386 0.48761 0.0091 0.0
C450 C 0.98979 0.45414 0.99592 0.0
C451 C 0.01855 0.46263 0.98934 0.0
C452 C 0.9765 0.41119 0.98752 0.0
C453 C 0.94243 0.48171 0.0154 0.0
C454 C 0.96374 0.38202 0.00576 0.0
C455 C 0.94824 0.34457 0.9972 0.0
C456 C 0.9454 0.33557 0.97025 0.0
C457 C 0.96007 0.36293 0.95222 0.0
C458 C 0.97547 0.40026 0.96077 0.0
H459 H 0.93178 0.51414 0.01945 0.0
H460 H 0.93099 0.46502 0.999 0.0
H461 H 0.9402 0.46054 0.03315 0.0
H462 H 0.96488 0.3891 0.02657 0.0
H463 H 0.93714 0.32426 0.01158 0.0
H464 H 0.54951 0.82327 0.51523 0.0
H465 H 0.51781 0.88353 0.49957 0.0
H466 H 0.57189 0.98099 0.53734 0.0
H467 H 0.60321 0.92189 0.553 0.0
H468 H 0.48937 0.95754 0.53217 0.0
H469 H 0.56695 0.01742 0.4571 0.0
H470 H 0.56801 0.96159 0.47047 0.0
H471 H 0.58152 0.00772 0.48926 0.0
C472 C 0.55446 0.85752 0.52029 0.0
C473 C 0.57895 0.86773 0.53525 0.0
C474 C 0.53639 0.89186 0.51135 0.0
C475 C 0.54275 0.93672 0.51708 0.0
C476 C 0.56678 0.94669 0.53246 0.0
H477 H 0.44273 0.18235 0.50521 0.0
H478 H 0.47408 0.12143 0.5201 0.0
C479 C 0.58462 0.91269 0.54144 0.0
C480 C 0.52485 0.97378 0.50689 0.0
H481 H 0.5272 0.0643 0.46613 0.0
C482 C 0.49749 0.98074 0.51761 0.0
C483 C 0.53555 0.00395 0.48789 0.0
C484 C 0.56453 0.99731 0.47529 0.0
C485 C 0.48075 0.01767 0.51014 0.0
C486 C 0.49182 0.04858 0.49169 0.0
C487 C 0.51892 0.04098 0.48056 0.0
C488 C 0.47491 0.08764 0.48257 0.0
C489 C 0.45121 0.02308 0.52181 0.0
C490 C 0.46605 0.08986 0.45633 0.0
C491 C 0.44835 0.12452 0.44782 0.0
C492 C 0.43934 0.15804 0.4653 0.0
C493 C 0.44945 0.15716 0.49127 0.0
C494 C 0.46706 0.12212 0.49986 0.0
H495 H 0.44362 0.99199 0.5315 0.0
H496 H 0.45173 0.05001 0.53675 0.0
H497 H 0.43549 0.03272 0.50647 0.0
H498 H 0.472 0.06386 0.44261 0.0
H499 H 0.44095 0.12426 0.42768 0.0
H500 H 0.94004 0.17821 0.49847 0.0
H501 H 0.9701 0.11699 0.48187 0.0
H502 H 0.96683 0.05355 0.55775 0.0
H503 H 0.9372 0.11437 0.5744 0.0
H504 H 0.02118 0.04948 0.53409 0.0
H505 H 0.9349 0.9931 0.46649 0.0
H506 H 0.94599 0.05021 0.46262 0.0
H507 H 0.92863 0.03292 0.49243 0.0
C508 C 0.94635 0.15175 0.51173 0.0
C509 C 0.93619 0.15102 0.5377 0.0
C510 C 0.9632 0.11652 0.50216 0.0
C511 C 0.97017 0.08019 0.51843 0.0
C512 C 0.96154 0.08098 0.54478 0.0
H513 H 0.06033 0.8251 0.50079 0.0
H514 H 0.03004 0.88603 0.51733 0.0
C515 C 0.94465 0.11588 0.55427 0.0
C516 C 0.98536 0.0403 0.50804 0.0
H517 H 0.9786 0.95329 0.46506 0.0
C518 C 0.01189 0.02842 0.519 0.0
C519 C 0.97306 0.01261 0.48853 0.0
C520 C 0.94397 0.02246 0.47693 0.0
C521 C 0.02674 0.99017 0.51062 0.0
C522 C 0.01445 0.96248 0.4911 0.0
C523 C 0.9879 0.97435 0.48014 0.0
C524 C 0.02967 0.92262 0.48069 0.0
C525 C 0.05581 0.98033 0.52226 0.0
C526 C 0.03819 0.92174 0.45431 0.0
C527 C 0.05522 0.88697 0.44484 0.0
C528 C 0.06394 0.85207 0.46148 0.0
C529 C 0.05387 0.8514 0.48748 0.0
C530 C 0.03686 0.88647 0.49702 0.0
H531 H 0.06491 0.00977 0.5326 0.0
H532 H 0.05374 0.95275 0.53667 0.0
H533 H 0.07114 0.96967 0.5068 0.0
H534 H 0.03273 0.94902 0.4413 0.0
H535 H 0.06256 0.88842 0.42468 0.0
H536 H 0.21496 0.63235 0.04392 0.0
H537 H 0.24227 0.57441 0.02165 0.0
H538 H 0.18403 0.57964 0.95596 0.0
H539 H 0.15649 0.63834 0.97824 0.0
H540 H 0.19078 0.49457 0.9779 0.0
H541 H 0.29669 0.56905 0.95845 0.0
H542 H 0.28464 0.58441 0.99061 0.0
H543 H 0.26461 0.60237 0.96227 0.0
C544 C 0.20824 0.62175 0.02455 0.0
C545 C 0.18361 0.63955 0.01283 0.0
C546 C 0.22405 0.58906 0.01169 0.0
C547 C 0.21548 0.57349 0.98692 0.0
C548 C 0.19121 0.59186 0.97485 0.0
H549 H 0.33304 0.34982 0.98058 0.0
H550 H 0.30278 0.40331 0.95685 0.0
C551 C 0.17551 0.62512 0.98763 0.0
C552 C 0.22968 0.53357 0.9762 0.0
H553 H 0.29705 0.4905 0.97376 0.0
C554 C 0.21394 0.49364 0.97582 0.0
C555 C 0.25972 0.53241 0.9727 0.0
C556 C 0.27731 0.57454 0.97072 0.0
C557 C 0.22799 0.45239 0.97629 0.0
C558 C 0.25826 0.45161 0.97744 0.0
C559 C 0.27378 0.49119 0.97348 0.0
C560 C 0.27357 0.41363 0.98929 0.0
C561 C 0.21038 0.41026 0.97809 0.0
C562 C 0.26712 0.40196 0.01531 0.0
C563 C 0.28448 0.37223 0.02894 0.0
C564 C 0.30861 0.35357 0.01677 0.0
C565 C 0.31449 0.3638 0.99037 0.0
C566 C 0.29721 0.39407 0.97677 0.0
H567 H 0.19008 0.41371 0.96686 0.0
H568 H 0.22241 0.38097 0.97058 0.0
H569 H 0.2046 0.40406 0.99891 0.0
H570 H 0.24946 0.41766 0.02558 0.0
H571 H 0.27943 0.36481 0.04923 0.0
H572 H 0.28557 0.1413 0.45292 0.0
H573 H 0.25629 0.08515 0.4748 0.0
H574 H 0.31087 0.09209 0.54303 0.0
H575 H 0.34041 0.14898 0.52112 0.0
H576 H 0.30449 0.00646 0.52225 0.0
H577 H 0.19826 0.0833 0.53517 0.0
H578 H 0.21223 0.09664 0.50333 0.0
H579 H 0.23079 0.11601 0.53221 0.0
C580 C 0.29107 0.13148 0.47275 0.0
C581 C 0.31529 0.14918 0.4853 0.0
C582 C 0.27412 0.09983 0.48538 0.0
C583 C 0.2811 0.08522 0.51074 0.0
C584 C 0.30491 0.10359 0.52364 0.0
H585 H 0.16264 0.86073 0.51795 0.0
H586 H 0.19162 0.91698 0.54097 0.0
C587 C 0.32176 0.13581 0.51107 0.0
C588 C 0.26589 0.04602 0.52137 0.0
H589 H 0.19811 0.00387 0.52151 0.0
C590 C 0.28124 0.00594 0.52326 0.0
C591 C 0.23568 0.04542 0.52342 0.0
C592 C 0.21836 0.08784 0.52372 0.0
C593 C 0.26689 0.96486 0.52296 0.0
C594 C 0.23672 0.96437 0.52049 0.0
C595 C 0.22133 0.00435 0.52283 0.0
C596 C 0.22173 0.92565 0.50906 0.0
C597 C 0.28422 0.92243 0.52277 0.0
C598 C 0.22909 0.9123 0.48354 0.0
C599 C 0.21247 0.88101 0.47029 0.0
C600 C 0.18821 0.86242 0.48236 0.0
C601 C 0.18134 0.87458 0.50826 0.0
C602 C 0.19786 0.90645 0.52146 0.0
H603 H 0.30416 0.92644 0.53447 0.0
H604 H 0.27168 0.8939 0.5307 0.0
H605 H 0.2906 0.91456 0.5023 0.0
H606 H 0.24698 0.92765 0.47336 0.0
H607 H 0.21825 0.87215 0.45037 0.0
H608 H 0.6995 0.63178 0.93922 0.0
H609 H 0.73282 0.57786 0.95788 0.0
H610 H 0.69787 0.60127 0.03502 0.0
H611 H 0.66415 0.65581 0.0164 0.0
H612 H 0.77397 0.59568 0.00449 0.0
H613 H 0.69285 0.4602 0.01721 0.0
H614 H 0.68645 0.50403 0.99364 0.0
H615 H 0.6858 0.5165 0.02803 0.0
C616 C 0.69887 0.62559 0.96015 0.0
C617 C 0.67922 0.64781 0.97637 0.0
C618 C 0.71798 0.59497 0.97078 0.0
C619 C 0.71771 0.5859 0.99775 0.0
C620 C 0.69827 0.60806 0.01415 0.0
H621 H 0.82251 0.34486 0.01624 0.0
H622 H 0.79525 0.4078 0.03453 0.0
C623 C 0.6791 0.639 0.00349 0.0
C624 C 0.73749 0.55182 0.00779 0.0
H625 H 0.74122 0.43866 0.01248 0.0
C626 C 0.76691 0.56149 0.00731 0.0
C627 C 0.72808 0.50752 0.01175 0.0
C628 C 0.69658 0.49606 0.01279 0.0
C629 C 0.7872 0.52714 0.00766 0.0
C630 C 0.77759 0.48244 0.00811 0.0
C631 C 0.7484 0.47311 0.01194 0.0
C632 C 0.79607 0.44611 0.99858 0.0
C633 C 0.81858 0.53871 0.00525 0.0
C634 C 0.805 0.44687 0.97231 0.0
C635 C 0.82002 0.41105 0.96177 0.0
C636 C 0.82644 0.37386 0.97737 0.0
C637 C 0.81782 0.37327 0.00383 0.0
C638 C 0.80242 0.40909 0.01432 0.0
H639 H 0.8232 0.57188 0.01404 0.0
H640 H 0.83222 0.51318 0.01491 0.0
H641 H 0.8245 0.54024 0.98417 0.0
H642 H 0.79968 0.4748 0.95971 0.0
H643 H 0.82646 0.41241 0.94135 0.0
H644 H 0.73018 0.85646 0.54873 0.0
H645 H 0.75879 0.91174 0.52546 0.0
H646 H 0.71244 0.88395 0.45404 0.0
H647 H 0.68321 0.8286 0.47748 0.0
H648 H 0.793 0.91635 0.4789 0.0
H649 H 0.69137 0.01403 0.47179 0.0
H650 H 0.69313 0.96458 0.49186 0.0
H651 H 0.69363 0.95983 0.45675 0.0
C652 C 0.72647 0.86132 0.52794 0.0
C653 C 0.70414 0.83897 0.51503 0.0
C654 C 0.74296 0.89272 0.5146 0.0
C655 C 0.73739 0.90233 0.48814 0.0
C656 C 0.71677 0.87731 0.47454 0.0
H657 H 0.83838 0.14933 0.47902 0.0
H658 H 0.81503 0.08717 0.45589 0.0
C659 C 0.70018 0.84573 0.48794 0.0
C660 C 0.75028 0.9431 0.4769 0.0
H661 H 0.7343 0.0539 0.47392 0.0
C662 C 0.78029 0.94639 0.47659 0.0
C663 C 0.73349 0.98203 0.47369 0.0
C664 C 0.70111 0.98035 0.47353 0.0
C665 C 0.79389 0.98815 0.47693 0.0
C666 C 0.77685 0.02711 0.47732 0.0
C667 C 0.74713 0.02373 0.47379 0.0
C668 C 0.78812 0.06876 0.48875 0.0
C669 C 0.82604 0.9903 0.48017 0.0
C670 C 0.77995 0.07957 0.51447 0.0
C671 C 0.79316 0.11463 0.52766 0.0
C672 C 0.81472 0.13962 0.51529 0.0
C673 C 0.82182 0.13042 0.489 0.0
C674 C 0.80861 0.095 0.47578 0.0
H675 H 0.83613 0.95676 0.47935 0.0
H676 H 0.83549 0.01129 0.46444 0.0
H677 H 0.83144 0.00595 0.49929 0.0
H678 H 0.76421 0.0595 0.5248 0.0
H679 H 0.78717 0.12114 0.54784 0.0
loop_
_geom_bond_atom_site_label_1
_geom_bond_atom_site_label_2
_geom_bond_distance
_geom_bond_site_symmetry_2
_ccdc_geom_bond_type
In0 O1 2.294 . S
In0 O2 2.326 . S
In0 O6 2.266 . S
In0 O7 2.326 . S
In0 O8 2.266 . S
In0 O9 2.326 . S
In0 O11 2.294 . S
In0 O12 2.326 . S
O1 In0 2.294 . S
O1 C10 1.240 . S
O2 In0 2.326 . S
O2 C10 1.252 . S
C3 O6 1.252 . S
C3 O7 1.260 . S
C4 O11 1.240 . S
C4 O12 1.252 . S
C5 O8 1.252 . S
C5 O9 1.260 . S
O6 In0 2.266 . S
O6 C3 1.252 . S
O7 In0 2.326 . S
O7 C3 1.260 . S
O8 In0 2.266 . S
O8 C5 1.252 . S
O9 In0 2.326 . S
O9 C5 1.260 . S
C10 O1 1.240 . S
C10 O2 1.252 . S
O11 In0 2.294 . S
O11 C4 1.240 . S
O12 In0 2.326 . S
O12 C4 1.252 . S
In13 O14 2.294 . S
In13 O15 2.326 . S
In13 O19 2.266 . S
In13 O20 2.326 . S
In13 O21 2.266 . S
In13 O22 2.326 . S
In13 O24 2.294 . S
In13 O25 2.326 . S
O14 In13 2.294 . S
O14 C23 1.240 . S
O15 In13 2.326 . S
O15 C23 1.252 . S
C16 O19 1.252 . S
C16 O20 1.260 . S
C17 O24 1.240 . S
C17 O25 1.252 . S
C18 O21 1.252 . S
C18 O22 1.260 . S
O19 In13 2.266 . S
O19 C16 1.252 . S
O20 In13 2.326 . S
O20 C16 1.260 . S
O21 In13 2.266 . S
O21 C18 1.252 . S
O22 In13 2.326 . S
O22 C18 1.260 . S
C23 O14 1.240 . S
C23 O15 1.252 . S
O24 In13 2.294 . S
O24 C17 1.240 . S
O25 In13 2.326 . S
O25 C17 1.252 . S
In26 O27 2.294 . S
In26 O28 2.326 . S
In26 O32 2.266 . S
In26 O33 2.326 . S
In26 O34 2.266 . S
In26 O35 2.326 . S
In26 O37 2.294 . S
In26 O38 2.326 . S
O27 In26 2.294 . S
O27 C36 1.240 . S
O28 In26 2.326 . S
O28 C36 1.252 . S
C29 O32 1.252 . S
C29 O33 1.260 . S
C30 O37 1.240 . S
C30 O38 1.252 . S
C31 O34 1.252 . S
C31 O35 1.260 . S
O32 In26 2.266 . S
O32 C29 1.252 . S
O33 In26 2.326 . S
O33 C29 1.260 . S
O34 In26 2.266 . S
O34 C31 1.252 . S
O35 In26 2.326 . S
O35 C31 1.260 . S
C36 O27 1.240 . S
C36 O28 1.252 . S
O37 In26 2.294 . S
O37 C30 1.240 . S
O38 In26 2.326 . S
O38 C30 1.252 . S
In39 O40 2.294 . S
In39 O41 2.326 . S
In39 O45 2.266 . S
In39 O46 2.326 . S
In39 O47 2.266 . S
In39 O48 2.326 . S
In39 O50 2.294 . S
In39 O51 2.326 . S
O40 In39 2.294 . S
O40 C49 1.240 . S
O41 In39 2.326 . S
O41 C49 1.252 . S
C42 O45 1.252 . S
C42 O46 1.260 . S
C43 O50 1.240 . S
C43 O51 1.252 . S
C44 O47 1.252 . S
C44 O48 1.260 . S
O45 In39 2.266 . S
O45 C42 1.252 . S
O46 In39 2.326 . S
O46 C42 1.260 . S
O47 In39 2.266 . S
O47 C44 1.252 . S
O48 In39 2.326 . S
O48 C44 1.260 . S
C49 O40 1.240 . S
C49 O41 1.252 . S
O50 In39 2.294 . S
O50 C43 1.240 . S
O51 In39 2.326 . S
O51 C43 1.252 . S
In52 O53 2.294 . S
In52 O54 2.326 . S
In52 O58 2.266 . S
In52 O59 2.326 . S
In52 O60 2.266 . S
In52 O61 2.326 . S
In52 O63 2.294 . S
In52 O64 2.326 . S
O53 In52 2.294 . S
O53 C62 1.240 . S
O54 In52 2.326 . S
O54 C62 1.252 . S
C55 O58 1.252 . S
C55 O59 1.260 . S
C56 O63 1.240 . S
C56 O64 1.252 . S
C57 O60 1.252 . S
C57 O61 1.260 . S
O58 In52 2.266 . S
O58 C55 1.252 . S
O59 In52 2.326 . S
O59 C55 1.260 . S
O60 In52 2.266 . S
O60 C57 1.252 . S
O61 In52 2.326 . S
O61 C57 1.260 . S
C62 O53 1.240 . S
C62 O54 1.252 . S
O63 In52 2.294 . S
O63 C56 1.240 . S
O64 In52 2.326 . S
O64 C56 1.252 . S
In65 O66 2.294 . S
In65 O67 2.326 . S
In65 O71 2.266 . S
In65 O72 2.326 . S
In65 O73 2.266 . S
In65 O74 2.326 . S
In65 O76 2.294 . S
In65 O77 2.326 . S
O66 In65 2.294 . S
O66 C75 1.240 . S
O67 In65 2.326 . S
O67 C75 1.252 . S
C68 O71 1.252 . S
C68 O72 1.260 . S
C69 O76 1.240 . S
C69 O77 1.252 . S
C70 O73 1.252 . S
C70 O74 1.260 . S
O71 In65 2.266 . S
O71 C68 1.252 . S
O72 In65 2.326 . S
O72 C68 1.260 . S
O73 In65 2.266 . S
O73 C70 1.252 . S
O74 In65 2.326 . S
O74 C70 1.260 . S
C75 O66 1.240 . S
C75 O67 1.252 . S
O76 In65 2.294 . S
O76 C69 1.240 . S
O77 In65 2.326 . S
O77 C69 1.252 . S
In78 O79 2.294 . S
In78 O80 2.326 . S
In78 O84 2.266 . S
In78 O85 2.326 . S
In78 O86 2.266 . S
In78 O87 2.326 . S
In78 O89 2.294 . S
In78 O90 2.326 . S
O79 In78 2.294 . S
O79 C88 1.240 . S
O80 In78 2.326 . S
O80 C88 1.252 . S
C81 O84 1.252 . S
C81 O85 1.260 . S
C82 O89 1.240 . S
C82 O90 1.252 . S
C83 O86 1.252 . S
C83 O87 1.260 . S
O84 In78 2.266 . S
O84 C81 1.252 . S
O85 In78 2.326 . S
O85 C81 1.260 . S
O86 In78 2.266 . S
O86 C83 1.252 . S
O87 In78 2.326 . S
O87 C83 1.260 . S
C88 O79 1.240 . S
C88 O80 1.252 . S
O89 In78 2.294 . S
O89 C82 1.240 . S
O90 In78 2.326 . S
O90 C82 1.252 . S
In91 O92 2.294 . S
In91 O93 2.326 . S
In91 O97 2.266 . S
In91 O98 2.326 . S
In91 O99 2.266 . S
In91 O100 2.326 . S
In91 O102 2.294 . S
In91 O103 2.326 . S
O92 In91 2.294 . S
O92 C101 1.240 . S
O93 In91 2.326 . S
O93 C101 1.252 . S
C94 O97 1.252 . S
C94 O98 1.260 . S
C95 O102 1.240 . S
C95 O103 1.252 . S
C96 O99 1.252 . S
C96 O100 1.260 . S
O97 In91 2.266 . S
O97 C94 1.252 . S
O98 In91 2.326 . S
O98 C94 1.260 . S
O99 In91 2.266 . S
O99 C96 1.252 . S
O100 In91 2.326 . S
O100 C96 1.260 . S
C101 O92 1.240 . S
C101 O93 1.252 . S
O102 In91 2.294 . S
O102 C95 1.240 . S
O103 In91 2.326 . S
O103 C95 1.252 . S
H104 C112 0.929 . S
H105 C114 0.930 . S
H106 C116 0.930 . S
H107 C119 0.929 . S
H108 C122 0.930 . S
H109 C124 0.960 . S
H110 C124 0.960 . S
H111 C124 0.960 . S
C112 H104 0.929 . S
C112 C113 1.377 . S
C112 C114 1.384 . S
C113 C112 1.377 . S
C113 C119 1.390 . S
C114 H105 0.930 . S
C114 C112 1.384 . S
C114 C115 1.372 . S
C115 C114 1.372 . S
C115 C116 1.400 . S
C115 C120 1.490 . S
C116 H106 0.930 . S
C116 C115 1.400 . S
C116 C119 1.386 . S
H117 C133 0.930 . S
H118 C134 0.931 . S
C119 H107 0.929 . S
C119 C113 1.390 . S
C119 C116 1.386 . S
C120 C115 1.490 . S
C120 C122 1.395 1_545 S
C120 C123 1.403 . S
H121 C127 0.930 . S
C122 H108 0.930 . S
C122 C120 1.395 1_565 S
C122 C125 1.403 . S
C123 C120 1.403 . S
C123 C124 1.524 . S
C123 C127 1.400 1_545 S
C124 H109 0.960 . S
C124 H110 0.960 . S
C124 H111 0.960 . S
C124 C123 1.524 . S
C125 C122 1.403 . S
C125 C126 1.392 . S
C125 C129 1.495 . S
C126 C125 1.392 . S
C126 C127 1.385 . S
C126 C128 1.478 . S
C127 H121 0.930 . S
C127 C123 1.400 1_565 S
C127 C126 1.385 . S
C128 C126 1.478 . S
C128 C130 1.381 . S
C128 C134 1.383 . S
C129 C125 1.495 . S
C129 H135 0.959 . S
C129 H136 0.961 . S
C129 H137 0.960 . S
C130 C128 1.381 . S
C130 C131 1.394 . S
C130 H138 0.930 . S
C131 C130 1.394 . S
C131 C132 1.383 . S
C131 H139 0.929 . S
C132 C131 1.383 . S
C132 C133 1.377 . S
C133 H117 0.930 . S
C133 C132 1.377 . S
C133 C134 1.379 . S
C134 H118 0.931 . S
C134 C128 1.383 . S
C134 C133 1.379 . S
H135 C129 0.959 . S
H136 C129 0.961 . S
H137 C129 0.960 . S
H138 C130 0.930 . S
H139 C131 0.929 . S
H140 C148 0.929 . S
H141 C150 0.930 . S
H142 C152 0.930 . S
H143 C155 0.929 . S
H144 C158 0.930 . S
H145 C160 0.960 . S
H146 C160 0.960 . S
H147 C160 0.960 . S
C148 H140 0.929 . S
C148 C149 1.377 . S
C148 C150 1.384 . S
C149 C148 1.377 . S
C149 C155 1.390 . S
C150 H141 0.930 . S
C150 C148 1.384 . S
C150 C151 1.372 . S
C151 C150 1.372 . S
C151 C152 1.400 . S
C151 C156 1.490 . S
C152 H142 0.930 . S
C152 C151 1.400 . S
C152 C155 1.386 . S
H153 C169 0.930 . S
H154 C170 0.931 . S
C155 H143 0.929 . S
C155 C149 1.390 . S
C155 C152 1.386 . S
C156 C151 1.490 . S
C156 C158 1.395 . S
C156 C159 1.403 . S
H157 C163 0.930 . S
C158 H144 0.930 . S
C158 C156 1.395 . S
C158 C161 1.403 . S
C159 C156 1.403 . S
C159 C160 1.524 . S
C159 C163 1.400 . S
C160 H145 0.960 . S
C160 H146 0.960 . S
C160 H147 0.960 . S
C160 C159 1.524 . S
C161 C158 1.403 . S
C161 C162 1.392 . S
C161 C165 1.495 . S
C162 C161 1.392 . S
C162 C163 1.385 . S
C162 C164 1.478 . S
C163 H157 0.930 . S
C163 C159 1.400 . S
C163 C162 1.385 . S
C164 C162 1.478 . S
C164 C166 1.381 . S
C164 C170 1.383 . S
C165 C161 1.495 . S
C165 H171 0.959 . S
C165 H172 0.961 . S
C165 H173 0.960 . S
C166 C164 1.381 . S
C166 C167 1.394 . S
C166 H174 0.930 . S
C167 C166 1.394 . S
C167 C168 1.383 . S
C167 H175 0.929 . S
C168 C167 1.383 . S
C168 C169 1.377 . S
C169 H153 0.930 . S
C169 C168 1.377 . S
C169 C170 1.379 . S
C170 H154 0.931 . S
C170 C164 1.383 . S
C170 C169 1.379 . S
H171 C165 0.959 . S
H172 C165 0.961 . S
H173 C165 0.960 . S
H174 C166 0.930 . S
H175 C167 0.929 . S
H176 C184 0.929 . S
H177 C186 0.930 . S
H178 C188 0.930 . S
H179 C191 0.929 . S
H180 C194 0.930 . S
H181 C196 0.960 . S
H182 C196 0.960 . S
H183 C196 0.960 . S
C184 H176 0.929 . S
C184 C185 1.377 . S
C184 C186 1.384 . S
C185 C184 1.377 . S
C185 C191 1.390 . S
C186 H177 0.930 . S
C186 C184 1.384 . S
C186 C187 1.372 . S
C187 C186 1.372 . S
C187 C188 1.400 . S
C187 C192 1.490 . S
C188 H178 0.930 . S
C188 C187 1.400 . S
C188 C191 1.386 . S
H189 C205 0.930 . S
H190 C206 0.931 . S
C191 H179 0.929 . S
C191 C185 1.390 . S
C191 C188 1.386 . S
C192 C187 1.490 . S
C192 C194 1.395 1_565 S
C192 C195 1.403 . S
H193 C199 0.930 . S
C194 H180 0.930 . S
C194 C192 1.395 1_545 S
C194 C197 1.403 . S
C195 C192 1.403 . S
C195 C196 1.524 . S
C195 C199 1.400 1_565 S
C196 H181 0.960 . S
C196 H182 0.960 . S
C196 H183 0.960 . S
C196 C195 1.524 . S
C197 C194 1.403 . S
C197 C198 1.392 . S
C197 C201 1.495 . S
C198 C197 1.392 . S
C198 C199 1.385 . S
C198 C200 1.478 . S
C199 H193 0.930 . S
C199 C195 1.400 1_545 S
C199 C198 1.385 . S
C200 C198 1.478 . S
C200 C202 1.381 . S
C200 C206 1.383 . S
C201 C197 1.495 . S
C201 H207 0.959 . S
C201 H208 0.961 . S
C201 H209 0.960 . S
C202 C200 1.381 . S
C202 C203 1.394 . S
C202 H210 0.930 . S
C203 C202 1.394 . S
C203 C204 1.383 . S
C203 H211 0.929 . S
C204 C203 1.383 . S
C204 C205 1.377 . S
C205 H189 0.930 . S
C205 C204 1.377 . S
C205 C206 1.379 . S
C206 H190 0.931 . S
C206 C200 1.383 . S
C206 C205 1.379 . S
H207 C201 0.959 . S
H208 C201 0.961 . S
H209 C201 0.960 . S
H210 C202 0.930 . S
H211 C203 0.929 . S
H212 C220 0.929 . S
H213 C222 0.930 . S
H214 C224 0.930 . S
H215 C227 0.929 . S
H216 C230 0.930 . S
H217 C232 0.960 . S
H218 C232 0.960 . S
H219 C232 0.960 . S
C220 H212 0.929 . S
C220 C221 1.377 . S
C220 C222 1.384 . S
C221 C220 1.377 . S
C221 C227 1.390 . S
C222 H213 0.930 . S
C222 C220 1.384 . S
C222 C223 1.372 . S
C223 C222 1.372 . S
C223 C224 1.400 . S
C223 C228 1.490 . S
C224 H214 0.930 . S
C224 C223 1.400 . S
C224 C227 1.386 . S
H225 C241 0.930 . S
H226 C242 0.931 . S
C227 H215 0.929 . S
C227 C221 1.390 . S
C227 C224 1.386 . S
C228 C223 1.490 . S
C228 C230 1.395 . S
C228 C231 1.403 . S
H229 C235 0.930 . S
C230 H216 0.930 . S
C230 C228 1.395 . S
C230 C233 1.403 . S
C231 C228 1.403 . S
C231 C232 1.524 . S
C231 C235 1.400 . S
C232 H217 0.960 . S
C232 H218 0.960 . S
C232 H219 0.960 . S
C232 C231 1.524 . S
C233 C230 1.403 . S
C233 C234 1.392 . S
C233 C237 1.495 . S
C234 C233 1.392 . S
C234 C235 1.385 . S
C234 C236 1.478 . S
C235 H229 0.930 . S
C235 C231 1.400 . S
C235 C234 1.385 . S
C236 C234 1.478 . S
C236 C238 1.381 . S
C236 C242 1.383 . S
C237 C233 1.495 . S
C237 H243 0.959 . S
C237 H244 0.961 . S
C237 H245 0.960 . S
C238 C236 1.381 . S
C238 C239 1.394 . S
C238 H246 0.930 . S
C239 C238 1.394 . S
C239 C240 1.383 . S
C239 H247 0.929 . S
C240 C239 1.383 . S
C240 C241 1.377 . S
C241 H225 0.930 . S
C241 C240 1.377 . S
C241 C242 1.379 . S
C242 H226 0.931 . S
C242 C236 1.383 . S
C242 C241 1.379 . S
H243 C237 0.959 . S
H244 C237 0.961 . S
H245 C237 0.960 . S
H246 C238 0.930 . S
H247 C239 0.929 . S
H248 C256 0.929 . S
H249 C258 0.930 . S
H250 C260 0.930 . S
H251 C263 0.929 . S
H252 C266 0.930 . S
H253 C268 0.960 . S
H254 C268 0.960 . S
H255 C268 0.960 . S
C256 H248 0.929 . S
C256 C257 1.377 . S
C256 C258 1.384 . S
C257 C256 1.377 . S
C257 C263 1.390 . S
C258 H249 0.930 . S
C258 C256 1.384 . S
C258 C259 1.372 . S
C259 C258 1.372 . S
C259 C260 1.400 . S
C259 C264 1.490 . S
C260 H250 0.930 . S
C260 C259 1.400 . S
C260 C263 1.386 . S
H261 C277 0.930 . S
H262 C278 0.931 . S
C263 H251 0.929 . S
C263 C257 1.390 . S
C263 C260 1.386 . S
C264 C259 1.490 . S
C264 C266 1.395 . S
C264 C267 1.403 . S
H265 C271 0.930 . S
C266 H252 0.930 . S
C266 C264 1.395 . S
C266 C269 1.403 . S
C267 C264 1.403 . S
C267 C268 1.524 . S
C267 C271 1.400 . S
C268 H253 0.960 . S
C268 H254 0.960 . S
C268 H255 0.960 . S
C268 C267 1.524 . S
C269 C266 1.403 . S
C269 C270 1.392 . S
C269 C273 1.495 . S
C270 C269 1.392 . S
C270 C271 1.385 . S
C270 C272 1.478 . S
C271 H265 0.930 . S
C271 C267 1.400 . S
C271 C270 1.385 . S
C272 C270 1.478 . S
C272 C274 1.381 . S
C272 C278 1.383 . S
C273 C269 1.495 . S
C273 H279 0.959 . S
C273 H280 0.961 . S
C273 H281 0.960 . S
C274 C272 1.381 . S
C274 C275 1.394 . S
C274 H282 0.930 . S
C275 C274 1.394 . S
C275 C276 1.383 . S
C275 H283 0.929 . S
C276 C275 1.383 . S
C276 C277 1.377 . S
C277 H261 0.930 . S
C277 C276 1.377 . S
C277 C278 1.379 . S
C278 H262 0.931 . S
C278 C272 1.383 . S
C278 C277 1.379 . S
H279 C273 0.959 . S
H280 C273 0.961 . S
H281 C273 0.960 . S
H282 C274 0.930 . S
H283 C275 0.929 . S
H284 C292 0.929 . S
H285 C294 0.930 . S
H286 C296 0.930 . S
H287 C299 0.929 . S
H288 C302 0.930 . S
H289 C304 0.960 . S
H290 C304 0.960 . S
H291 C304 0.960 . S
C292 H284 0.929 . S
C292 C293 1.377 . S
C292 C294 1.384 . S
C293 C292 1.377 . S
C293 C299 1.390 . S
C294 H285 0.930 . S
C294 C292 1.384 . S
C294 C295 1.372 . S
C295 C294 1.372 . S
C295 C296 1.400 . S
C295 C300 1.490 . S
C296 H286 0.930 . S
C296 C295 1.400 . S
C296 C299 1.386 . S
H297 C313 0.930 . S
H298 C314 0.931 . S
C299 H287 0.929 . S
C299 C293 1.390 . S
C299 C296 1.386 . S
C300 C295 1.490 . S
C300 C302 1.395 . S
C300 C303 1.403 . S
H301 C307 0.930 . S
C302 H288 0.930 . S
C302 C300 1.395 . S
C302 C305 1.403 . S
C303 C300 1.403 . S
C303 C304 1.524 . S
C303 C307 1.400 . S
C304 H289 0.960 . S
C304 H290 0.960 . S
C304 H291 0.960 . S
C304 C303 1.524 . S
C305 C302 1.403 . S
C305 C306 1.392 . S
C305 C309 1.495 . S
C306 C305 1.392 . S
C306 C307 1.385 . S
C306 C308 1.478 . S
C307 H301 0.930 . S
C307 C303 1.400 . S
C307 C306 1.385 . S
C308 C306 1.478 . S
C308 C310 1.381 . S
C308 C314 1.383 . S
C309 C305 1.495 . S
C309 H315 0.959 . S
C309 H316 0.961 . S
C309 H317 0.960 . S
C310 C308 1.381 . S
C310 C311 1.394 . S
C310 H318 0.930 . S
C311 C310 1.394 . S
C311 C312 1.383 . S
C311 H319 0.929 . S
C312 C311 1.383 . S
C312 C313 1.377 . S
C313 H297 0.930 . S
C313 C312 1.377 . S
C313 C314 1.379 . S
C314 H298 0.931 . S
C314 C308 1.383 . S
C314 C313 1.379 . S
H315 C309 0.959 . S
H316 C309 0.961 . S
H317 C309 0.960 . S
H318 C310 0.930 . S
H319 C311 0.929 . S
H320 C328 0.929 . S
H321 C330 0.930 . S
H322 C332 0.930 . S
H323 C335 0.929 . S
H324 C338 0.930 . S
H325 C340 0.960 . S
H326 C340 0.960 . S
H327 C340 0.960 . S
C328 H320 0.929 . S
C328 C329 1.377 . S
C328 C330 1.384 . S
C329 C328 1.377 . S
C329 C335 1.390 . S
C330 H321 0.930 . S
C330 C328 1.384 . S
C330 C331 1.372 . S
C331 C330 1.372 . S
C331 C332 1.400 . S
C331 C336 1.490 . S
C332 H322 0.930 . S
C332 C331 1.400 . S
C332 C335 1.386 . S
H333 C349 0.930 . S
H334 C350 0.931 . S
C335 H323 0.929 . S
C335 C329 1.390 . S
C335 C332 1.386 . S
C336 C331 1.490 . S
C336 C338 1.395 . S
C336 C339 1.403 . S
H337 C343 0.930 . S
C338 H324 0.930 . S
C338 C336 1.395 . S
C338 C341 1.403 . S
C339 C336 1.403 . S
C339 C340 1.524 . S
C339 C343 1.400 . S
C340 H325 0.960 . S
C340 H326 0.960 . S
C340 H327 0.960 . S
C340 C339 1.524 . S
C341 C338 1.403 . S
C341 C342 1.392 . S
C341 C345 1.495 . S
C342 C341 1.392 . S
C342 C343 1.385 . S
C342 C344 1.478 . S
C343 H337 0.930 . S
C343 C339 1.400 . S
C343 C342 1.385 . S
C344 C342 1.478 . S
C344 C346 1.381 . S
C344 C350 1.383 . S
C345 C341 1.495 . S
C345 H351 0.959 . S
C345 H352 0.961 . S
C345 H353 0.960 . S
C346 C344 1.381 . S
C346 C347 1.394 . S
C346 H354 0.930 . S
C347 C346 1.394 . S
C347 C348 1.383 . S
C347 H355 0.929 . S
C348 C347 1.383 . S
C348 C349 1.377 . S
C349 H333 0.930 . S
C349 C348 1.377 . S
C349 C350 1.379 . S
C350 H334 0.931 . S
C350 C344 1.383 . S
C350 C349 1.379 . S
H351 C345 0.959 . S
H352 C345 0.961 . S
H353 C345 0.960 . S
H354 C346 0.930 . S
H355 C347 0.929 . S
H356 C364 0.929 . S
H357 C366 0.930 . S
H358 C368 0.930 . S
H359 C371 0.929 . S
H360 C374 0.930 . S
H361 C376 0.960 . S
H362 C376 0.960 . S
H363 C376 0.960 . S
C364 H356 0.929 . S
C364 C365 1.377 . S
C364 C366 1.384 . S
C365 C364 1.377 . S
C365 C371 1.390 . S
C366 H357 0.930 . S
C366 C364 1.384 . S
C366 C367 1.372 . S
C367 C366 1.372 . S
C367 C368 1.400 . S
C367 C372 1.490 . S
C368 H358 0.930 . S
C368 C367 1.400 . S
C368 C371 1.386 . S
H369 C385 0.930 . S
H370 C386 0.931 . S
C371 H359 0.929 . S
C371 C365 1.390 . S
C371 C368 1.386 . S
C372 C367 1.490 . S
C372 C374 1.395 . S
C372 C375 1.403 . S
H373 C379 0.930 . S
C374 H360 0.930 . S
C374 C372 1.395 . S
C374 C377 1.403 . S
C375 C372 1.403 . S
C375 C376 1.524 . S
C375 C379 1.400 . S
C376 H361 0.960 . S
C376 H362 0.960 . S
C376 H363 0.960 . S
C376 C375 1.524 . S
C377 C374 1.403 . S
C377 C378 1.392 . S
C377 C381 1.495 . S
C378 C377 1.392 . S
C378 C379 1.385 . S
C378 C380 1.478 . S
C379 H373 0.930 . S
C379 C375 1.400 . S
C379 C378 1.385 . S
C380 C378 1.478 . S
C380 C382 1.381 . S
C380 C386 1.383 . S
C381 C377 1.495 . S
C381 H387 0.959 . S
C381 H388 0.961 . S
C381 H389 0.960 . S
C382 C380 1.381 . S
C382 C383 1.394 . S
C382 H390 0.930 . S
C383 C382 1.394 . S
C383 C384 1.383 . S
C383 H391 0.929 . S
C384 C383 1.383 . S
C384 C385 1.377 . S
C385 H369 0.930 . S
C385 C384 1.377 . S
C385 C386 1.379 . S
C386 H370 0.931 . S
C386 C380 1.383 . S
C386 C385 1.379 . S
H387 C381 0.959 . S
H388 C381 0.961 . S
H389 C381 0.960 . S
H390 C382 0.930 . S
H391 C383 0.929 . S
H392 C400 0.929 1_556 S
H393 C402 0.930 . S
H394 C404 0.930 . S
H395 C407 0.929 . S
H396 C410 0.930 . S
H397 C412 0.960 . S
H398 C412 0.960 . S
H399 C412 0.960 . S
C400 H392 0.929 1_554 S
C400 C401 1.377 . S
C400 C402 1.384 1_554 S
C401 C400 1.377 . S
C401 C407 1.390 . S
C402 H393 0.930 . S
C402 C400 1.384 1_556 S
C402 C403 1.372 1_556 S
C403 C402 1.372 1_554 S
C403 C404 1.400 . S
C403 C408 1.490 . S
C404 H394 0.930 . S
C404 C403 1.400 . S
C404 C407 1.386 . S
H405 C421 0.930 1_554 S
H406 C422 0.931 . S
C407 H395 0.929 . S
C407 C401 1.390 . S
C407 C404 1.386 . S
C408 C403 1.490 . S
C408 C410 1.395 1_554 S
C408 C411 1.403 . S
H409 C415 0.930 . S
C410 H396 0.930 . S
C410 C408 1.395 1_556 S
C410 C413 1.403 . S
C411 C408 1.403 . S
C411 C412 1.524 . S
C411 C415 1.400 . S
C412 H397 0.960 . S
C412 H398 0.960 . S
C412 H399 0.960 . S
C412 C411 1.524 . S
C413 C410 1.403 . S
C413 C414 1.392 . S
C413 C417 1.495 . S
C414 C413 1.392 . S
C414 C415 1.385 1_556 S
C414 C416 1.478 . S
C415 H409 0.930 . S
C415 C411 1.400 . S
C415 C414 1.385 1_554 S
C416 C414 1.478 . S
C416 C418 1.381 . S
C416 C422 1.383 1_556 S
C417 C413 1.495 . S
C417 H423 0.959 . S
C417 H424 0.961 . S
C417 H425 0.960 . S
C418 C416 1.381 . S
C418 C419 1.394 . S
C418 H426 0.930 . S
C419 C418 1.394 . S
C419 C420 1.383 . S
C419 H427 0.929 . S
C420 C419 1.383 . S
C420 C421 1.377 . S
C421 H405 0.930 1_556 S
C421 C420 1.377 . S
C421 C422 1.379 1_556 S
C422 H406 0.931 . S
C422 C416 1.383 1_554 S
C422 C421 1.379 1_554 S
H423 C417 0.959 . S
H424 C417 0.961 . S
H425 C417 0.960 . S
H426 C418 0.930 . S
H427 C419 0.929 . S
H428 C436 0.929 . S
H429 C438 0.930 . S
H430 C440 0.930 . S
H431 C443 0.929 1_556 S
H432 C446 0.930 . S
H433 C448 0.960 . S
H434 C448 0.960 1_554 S
H435 C448 0.960 . S
C436 H428 0.929 . S
C436 C437 1.377 . S
C436 C438 1.384 . S
C437 C436 1.377 . S
C437 C443 1.390 . S
C438 H429 0.930 . S
C438 C436 1.384 . S
C438 C439 1.372 . S
C439 C438 1.372 . S
C439 C440 1.400 1_554 S
C439 C444 1.490 . S
C440 H430 0.930 . S
C440 C439 1.400 1_556 S
C440 C443 1.386 1_556 S
H441 C457 0.930 . S
H442 C458 0.931 . S
C443 H431 0.929 1_554 S
C443 C437 1.390 . S
C443 C440 1.386 1_554 S
C444 C439 1.490 . S
C444 C446 1.395 1_455 S
C444 C447 1.403 1_554 S
H445 C451 0.930 . S
C446 H432 0.930 . S
C446 C444 1.395 1_655 S
C446 C449 1.403 . S
C447 C444 1.403 1_556 S
C447 C448 1.524 . S
C447 C451 1.400 . S
C448 H433 0.960 . S
C448 H434 0.960 1_556 S
C448 H435 0.960 . S
C448 C447 1.524 . S
C449 C446 1.403 . S
C449 C450 1.392 1_554 S
C449 C453 1.495 . S
C450 C449 1.392 1_556 S
C450 C451 1.385 1_655 S
C450 C452 1.478 . S
C451 H445 0.930 . S
C451 C447 1.400 . S
C451 C450 1.385 1_455 S
C452 C450 1.478 . S
C452 C454 1.381 1_556 S
C452 C458 1.383 . S
C453 C449 1.495 . S
C453 H459 0.959 . S
C453 H460 0.961 . S
C453 H461 0.960 . S
C454 C452 1.381 1_554 S
C454 C455 1.394 1_554 S
C454 H462 0.930 . S
C455 C454 1.394 1_556 S
C455 C456 1.383 . S
C455 H463 0.929 1_556 S
C456 C455 1.383 . S
C456 C457 1.377 . S
C457 H441 0.930 . S
C457 C456 1.377 . S
C457 C458 1.379 . S
C458 H442 0.931 . S
C458 C452 1.383 . S
C458 C457 1.379 . S
H459 C453 0.959 . S
H460 C453 0.961 . S
H461 C453 0.960 . S
H462 C454 0.930 . S
H463 C455 0.929 1_554 S
H464 C472 0.929 . S
H465 C474 0.930 . S
H466 C476 0.930 . S
H467 C479 0.929 . S
H468 C482 0.930 . S
H469 C484 0.960 . S
H470 C484 0.960 . S
H471 C484 0.960 . S
C472 H464 0.929 . S
C472 C473 1.377 . S
C472 C474 1.384 . S
C473 C472 1.377 . S
C473 C479 1.390 . S
C474 H465 0.930 . S
C474 C472 1.384 . S
C474 C475 1.372 . S
C475 C474 1.372 . S
C475 C476 1.400 . S
C475 C480 1.490 . S
C476 H466 0.930 . S
C476 C475 1.400 . S
C476 C479 1.386 . S
H477 C493 0.930 . S
H478 C494 0.931 . S
C479 H467 0.929 . S
C479 C473 1.390 . S
C479 C476 1.386 . S
C480 C475 1.490 . S
C480 C482 1.395 . S
C480 C483 1.403 . S
H481 C487 0.930 . S
C482 H468 0.930 . S
C482 C480 1.395 . S
C482 C485 1.403 1_565 S
C483 C480 1.403 . S
C483 C484 1.524 . S
C483 C487 1.400 1_565 S
C484 H469 0.960 . S
C484 H470 0.960 . S
C484 H471 0.960 . S
C484 C483 1.524 . S
C485 C482 1.403 1_545 S
C485 C486 1.392 . S
C485 C489 1.495 . S
C486 C485 1.392 . S
C486 C487 1.385 . S
C486 C488 1.478 . S
C487 H481 0.930 . S
C487 C483 1.400 1_545 S
C487 C486 1.385 . S
C488 C486 1.478 . S
C488 C490 1.381 . S
C488 C494 1.383 . S
C489 C485 1.495 . S
C489 H495 0.959 . S
C489 H496 0.961 . S
C489 H497 0.960 . S
C490 C488 1.381 . S
C490 C491 1.394 . S
C490 H498 0.930 . S
C491 C490 1.394 . S
C491 C492 1.383 . S
C491 H499 0.929 . S
C492 C491 1.383 . S
C492 C493 1.377 . S
C493 H477 0.930 . S
C493 C492 1.377 . S
C493 C494 1.379 . S
C494 H478 0.931 . S
C494 C488 1.383 . S
C494 C493 1.379 . S
H495 C489 0.959 . S
H496 C489 0.961 . S
H497 C489 0.960 . S
H498 C490 0.930 . S
H499 C491 0.929 . S
H500 C508 0.929 . S
H501 C510 0.930 . S
H502 C512 0.930 . S
H503 C515 0.929 . S
H504 C518 0.930 . S
H505 C520 0.960 1_565 S
H506 C520 0.960 . S
H507 C520 0.960 . S
C508 H500 0.929 . S
C508 C509 1.377 . S
C508 C510 1.384 . S
C509 C508 1.377 . S
C509 C515 1.390 . S
C510 H501 0.930 . S
C510 C508 1.384 . S
C510 C511 1.372 . S
C511 C510 1.372 . S
C511 C512 1.400 . S
C511 C516 1.490 . S
C512 H502 0.930 . S
C512 C511 1.400 . S
C512 C515 1.386 . S
H513 C529 0.930 . S
H514 C530 0.931 . S
C515 H503 0.929 . S
C515 C509 1.390 . S
C515 C512 1.386 . S
C516 C511 1.490 . S
C516 C518 1.395 1_655 S
C516 C519 1.403 . S
H517 C523 0.930 . S
C518 H504 0.930 . S
C518 C516 1.395 1_455 S
C518 C521 1.403 1_545 S
C519 C516 1.403 . S
C519 C520 1.524 . S
C519 C523 1.400 1_545 S
C520 H505 0.960 1_545 S
C520 H506 0.960 . S
C520 H507 0.960 . S
C520 C519 1.524 . S
C521 C518 1.403 1_565 S
C521 C522 1.392 . S
C521 C525 1.495 . S
C522 C521 1.392 . S
C522 C523 1.385 1_455 S
C522 C524 1.478 . S
C523 H517 0.930 . S
C523 C519 1.400 1_565 S
C523 C522 1.385 1_655 S
C524 C522 1.478 . S
C524 C526 1.381 . S
C524 C530 1.383 . S
C525 C521 1.495 . S
C525 H531 0.959 1_565 S
C525 H532 0.961 . S
C525 H533 0.960 . S
C526 C524 1.381 . S
C526 C527 1.394 . S
C526 H534 0.930 . S
C527 C526 1.394 . S
C527 C528 1.383 . S
C527 H535 0.929 . S
C528 C527 1.383 . S
C528 C529 1.377 . S
C529 H513 0.930 . S
C529 C528 1.377 . S
C529 C530 1.379 . S
C530 H514 0.931 . S
C530 C524 1.383 . S
C530 C529 1.379 . S
H531 C525 0.959 1_545 S
H532 C525 0.961 . S
H533 C525 0.960 . S
H534 C526 0.930 . S
H535 C527 0.929 . S
H536 C544 0.929 . S
H537 C546 0.930 . S
H538 C548 0.930 . S
H539 C551 0.929 . S
H540 C554 0.930 . S
H541 C556 0.960 . S
H542 C556 0.960 . S
H543 C556 0.960 . S
C544 H536 0.929 . S
C544 C545 1.377 . S
C544 C546 1.384 . S
C545 C544 1.377 . S
C545 C551 1.390 . S
C546 H537 0.930 . S
C546 C544 1.384 . S
C546 C547 1.372 . S
C547 C546 1.372 . S
C547 C548 1.400 . S
C547 C552 1.490 . S
C548 H538 0.930 . S
C548 C547 1.400 . S
C548 C551 1.386 . S
H549 C565 0.898 1_556 S
H550 C566 0.931 1_556 S
C551 H539 0.929 . S
C551 C545 1.390 . S
C551 C548 1.386 . S
C552 C547 1.490 . S
C552 C554 1.395 . S
C552 C555 1.403 . S
H553 C559 0.930 . S
C554 H540 0.930 . S
C554 C552 1.395 . S
C554 C557 1.403 . S
C555 C552 1.403 . S
C555 C556 1.524 . S
C555 C559 1.400 . S
C556 H541 0.960 . S
C556 H542 0.960 . S
C556 H543 0.960 . S
C556 C555 1.524 . S
C557 C554 1.403 . S
C557 C558 1.392 . S
C557 C561 1.495 . S
C558 C557 1.392 . S
C558 C559 1.385 . S
C558 C560 1.478 . S
C559 H553 0.930 . S
C559 C555 1.400 . S
C559 C558 1.385 . S
C560 C558 1.478 . S
C560 C562 1.381 . S
C560 C566 1.383 . S
C561 C557 1.495 . S
C561 H567 0.959 . S
C561 H568 0.961 . S
C561 H569 0.960 . S
C562 C560 1.381 . S
C562 C563 1.394 . S
C562 H570 0.930 . S
C563 C562 1.394 . S
C563 C564 1.383 . S
C563 H571 0.929 . S
C564 C563 1.383 . S
C564 C565 1.377 . S
C565 H549 0.898 1_554 S
C565 C564 1.377 . S
C565 C566 1.379 . S
C566 H550 0.931 1_554 S
C566 C560 1.383 . S
C566 C565 1.379 . S
H567 C561 0.959 . S
H568 C561 0.961 . S
H569 C561 0.960 . S
H570 C562 0.930 . S
H571 C563 0.929 . S
H572 C580 0.929 . S
H573 C582 0.930 . S
H574 C584 0.930 . S
H575 C587 0.929 . S
H576 C590 0.932 . S
H577 C592 0.960 . S
H578 C592 0.960 . S
H579 C592 0.960 . S
C580 H572 0.929 . S
C580 C581 1.377 . S
C580 C582 1.384 . S
C581 C580 1.377 . S
C581 C587 1.390 . S
C582 H573 0.930 . S
C582 C580 1.384 . S
C582 C583 1.372 . S
C583 C582 1.372 . S
C583 C584 1.400 . S
C583 C588 1.490 . S
C584 H574 0.930 . S
C584 C583 1.400 . S
C584 C587 1.386 . S
H585 C601 0.930 . S
H586 C602 0.931 . S
C587 H575 0.929 . S
C587 C581 1.390 . S
C587 C584 1.386 . S
C588 C583 1.490 . S
C588 C590 1.412 . S
C588 C591 1.403 . S
H589 C595 0.930 . S
C590 H576 0.932 . S
C590 C588 1.412 . S
C590 C593 1.385 1_545 S
C591 C588 1.403 . S
C591 C592 1.524 . S
C591 C595 1.400 1_545 S
C592 H577 0.960 . S
C592 H578 0.960 . S
C592 H579 0.960 . S
C592 C591 1.524 . S
C593 C590 1.385 1_565 S
C593 C594 1.392 . S
C593 C597 1.495 . S
C594 C593 1.392 . S
C594 C595 1.385 . S
C594 C596 1.478 . S
C595 H589 0.930 . S
C595 C591 1.400 1_565 S
C595 C594 1.385 . S
C596 C594 1.478 . S
C596 C598 1.381 . S
C596 C602 1.383 . S
C597 C593 1.495 . S
C597 H603 0.959 . S
C597 H604 0.961 . S
C597 H605 0.960 . S
C598 C596 1.381 . S
C598 C599 1.394 . S
C598 H606 0.930 . S
C599 C598 1.394 . S
C599 C600 1.383 . S
C599 H607 0.929 . S
C600 C599 1.383 . S
C600 C601 1.377 . S
C601 H585 0.930 . S
C601 C600 1.377 . S
C601 C602 1.379 . S
C602 H586 0.931 . S
C602 C596 1.383 . S
C602 C601 1.379 . S
H603 C597 0.959 . S
H604 C597 0.961 . S
H605 C597 0.960 . S
H606 C598 0.930 . S
H607 C599 0.929 . S
H608 C616 0.929 . S
H609 C618 0.930 . S
H610 C620 0.930 . S
H611 C623 0.942 . S
H612 C626 0.930 . S
H613 C628 0.960 . S
H614 C628 0.960 . S
H615 C628 0.960 . S
C616 H608 0.929 . S
C616 C617 1.377 . S
C616 C618 1.384 . S
C617 C616 1.377 . S
C617 C623 1.390 . S
C618 H609 0.930 . S
C618 C616 1.384 . S
C618 C619 1.372 . S
C619 C618 1.372 . S
C619 C620 1.400 . S
C619 C624 1.490 . S
C620 H610 0.930 . S
C620 C619 1.400 . S
C620 C623 1.386 . S
H621 C637 0.930 1_554 S
H622 C638 0.931 1_554 S
C623 H611 0.942 . S
C623 C617 1.390 . S
C623 C620 1.386 . S
C624 C619 1.490 . S
C624 C626 1.395 . S
C624 C627 1.403 . S
H625 C631 0.930 . S
C626 H612 0.930 . S
C626 C624 1.395 . S
C626 C629 1.403 . S
C627 C624 1.403 . S
C627 C628 1.524 . S
C627 C631 1.400 . S
C628 H613 0.960 . S
C628 H614 0.960 . S
C628 H615 0.960 . S
C628 C627 1.524 . S
C629 C626 1.403 . S
C629 C630 1.392 . S
C629 C633 1.495 . S
C630 C629 1.392 . S
C630 C631 1.385 . S
C630 C632 1.478 . S
C631 H625 0.930 . S
C631 C627 1.400 . S
C631 C630 1.385 . S
C632 C630 1.478 . S
C632 C634 1.381 . S
C632 C638 1.383 . S
C633 C629 1.495 . S
C633 H639 0.959 . S
C633 H640 0.961 . S
C633 H641 0.960 . S
C634 C632 1.381 . S
C634 C635 1.394 . S
C634 H642 0.930 . S
C635 C634 1.394 . S
C635 C636 1.383 . S
C635 H643 0.929 . S
C636 C635 1.383 . S
C636 C637 1.377 . S
C637 H621 0.930 1_556 S
C637 C636 1.377 . S
C637 C638 1.379 . S
C638 H622 0.931 1_556 S
C638 C632 1.383 . S
C638 C637 1.379 . S
H639 C633 0.959 . S
H640 C633 0.961 . S
H641 C633 0.960 . S
H642 C634 0.930 . S
H643 C635 0.929 . S
H644 C652 0.929 . S
H645 C654 0.930 . S
H646 C656 0.930 . S
H647 C659 0.929 . S
H648 C662 0.930 . S
H649 C664 0.960 . S
H650 C664 0.960 . S
H651 C664 0.960 1_565 S
C652 H644 0.929 . S
C652 C653 1.377 . S
C652 C654 1.384 . S
C653 C652 1.377 . S
C653 C659 1.390 . S
C654 H645 0.930 . S
C654 C652 1.384 . S
C654 C655 1.372 . S
C655 C654 1.372 . S
C655 C656 1.400 . S
C655 C660 1.490 . S
C656 H646 0.930 . S
C656 C655 1.400 . S
C656 C659 1.386 . S
H657 C673 0.930 . S
H658 C674 0.931 . S
C659 H647 0.929 . S
C659 C653 1.390 . S
C659 C656 1.386 . S
C660 C655 1.490 . S
C660 C662 1.395 . S
C660 C663 1.403 1_565 S
H661 C667 0.930 . S
C662 H648 0.930 . S
C662 C660 1.395 . S
C662 C665 1.403 . S
C663 C660 1.403 1_545 S
C663 C664 1.524 . S
C663 C667 1.400 . S
C664 H649 0.960 . S
C664 H650 0.960 . S
C664 H651 0.960 1_545 S
C664 C663 1.524 . S
C665 C662 1.403 . S
C665 C666 1.392 1_565 S
C665 C669 1.495 . S
C666 C665 1.392 1_545 S
C666 C667 1.385 . S
C666 C668 1.478 . S
C667 H661 0.930 . S
C667 C663 1.400 . S
C667 C666 1.385 . S
C668 C666 1.478 . S
C668 C670 1.381 . S
C668 C674 1.383 . S
C669 C665 1.495 . S
C669 H675 0.959 . S
C669 H676 0.961 . S
C669 H677 0.960 1_565 S
C670 C668 1.381 . S
C670 C671 1.394 . S
C670 H678 0.930 . S
C671 C670 1.394 . S
C671 C672 1.383 . S
C671 H679 0.929 . S
C672 C671 1.383 . S
C672 C673 1.377 . S
C673 H657 0.930 . S
C673 C672 1.377 . S
C673 C674 1.379 . S
C674 H658 0.931 . S
C674 C668 1.383 . S
C674 C673 1.379 . S
H675 C669 0.959 . S
H676 C669 0.961 . S
H677 C669 0.960 1_545 S
H678 C670 0.930 . S
H679 C671 0.929 . S
C113 C4 1.846 . S
C132 C23 1.829 . S
C149 C49 1.842 . S
C168 C36 1.852 . S
C185 C56 1.843 . S
C204 C75 1.840 . S
C221 C88 1.842 . S
C240 C95 1.831 . S
C257 C10 1.717 . S
C276 C30 1.701 . S
C293 C43 1.720 . S
C312 C17 1.724 . S
C329 C62 1.724 . S
C348 C82 1.698 . S
C365 C101 1.725 . S
C384 C69 1.701 . S
C401 C5 1.298 . S
C420 C57 1.305 . S
C437 C16 1.288 . S
C456 C68 1.276 . S
C473 C81 1.298 . S
C492 C29 1.297 . S
C509 C96 1.297 . S
C528 C42 1.282 . S
C545 C18 0.691 . S
C564 C3 0.708 . S
C581 C31 0.696 . S
C600 C44 0.678 . S
C617 C55 0.691 . S
C636 C70 0.699 . S
C653 C83 0.693 . S
C672 C94 0.677 . S
