# Generated by pormake.
# Topology sxb, (6)-cn, num edge types: 1
# Building blocks:
#     Node 0, Type 0, BuildingBlock: PAMTOO_clean_sbu_0, # of connection points: 6
#     Node 1, Type 0, BuildingBlock: PAMTOO_clean_sbu_0, # of connection points: 6
#     Node 2, Type 0, BuildingBlock: PAMTOO_clean_sbu_0, # of connection points: 6
#     Node 3, Type 0, BuildingBlock: PAMTOO_clean_sbu_0, # of connection points: 6
#     Edge 4, Type (0, 0), BuildingBlock: ZUJKAS_clean_linker_0, # of connection points: 2
#     Edge 5, Type (0, 0), BuildingBlock: ZUJKAS_clean_linker_0, # of connection points: 2
#     Edge 6, Type (0, 0), BuildingBlock: ZUJKAS_clean_linker_0, # of connection points: 2
#     Edge 7, Type (0, 0), BuildingBlock: ZUJKAS_clean_linker_0, # of connection points: 2
#     Edge 8, Type (0, 0), BuildingBlock: ZUJKAS_clean_linker_0, # of connection points: 2
#     Edge 9, Type (0, 0), BuildingBlock: ZUJKAS_clean_linker_0, # of connection points: 2
#     Edge 10, Type (0, 0), BuildingBlock: ZUJKAS_clean_linker_0, # of connection points: 2
#     Edge 11, Type (0, 0), BuildingBlock: ZUJKAS_clean_linker_0, # of connection points: 2
#     Edge 12, Type (0, 0), BuildingBlock: ZUJKAS_clean_linker_0, # of connection points: 2
#     Edge 13, Type (0, 0), BuildingBlock: ZUJKAS_clean_linker_0, # of connection points: 2
#     Edge 14, Type (0, 0), BuildingBlock: ZUJKAS_clean_linker_0, # of connection points: 2
#     Edge 15, Type (0, 0), BuildingBlock: ZUJKAS_clean_linker_0, # of connection points: 2
# Relax obj value: 0.292
# Max RMSD: 0.078
# Mean RMSD: 0.077
data_MOF--net-sxb--node1-PAMTOO_clean_sbu_0--edge1-ZUJKAS_clean_linker_0
_symmetry_space_group_name_H-M    P1
_symmetry_Int_Tables_number       1
_symmetry_cell_setting            triclinic
loop_
_symmetry_equiv_pos_as_xyz
'x, y, z'
_cell_length_a     20.204838
_cell_length_b     43.253994
_cell_length_c     39.552497
_cell_angle_alpha  96.818514
_cell_angle_beta   98.864005
_cell_angle_gamma 66.766198
loop_
_atom_site_label
_atom_site_type_symbol
_atom_site_fract_x
_atom_site_fract_y
_atom_site_fract_z
_atom_type_partial_charge
Dy0 Dy 0.16821 0.06346 0.96128 0.0
Dy1 Dy 1.01747 1.05158 0.94178 0.0
C2 C 0.10556 1.05484 0.8826 0.0
O3 O 1.07614 0.11297 0.96951 0.0
O4 O 0.99331 0.10402 0.92815 0.0
O5 O 0.28509 1.04637 0.96808 0.0
O6 O 0.21942 0.09864 0.98008 0.0
O7 O 1.02446 0.06666 -0.00218 0.0
O8 O 0.14752 1.0491 0.00961 0.0
O9 O 0.10095 1.00225 0.95911 0.0
O10 O 0.20182 1.00817 0.94661 0.0
O11 O 0.95737 1.01899 0.92985 0.0
O12 O 0.90052 0.073 0.93528 0.0
C13 C 1.01713 0.12484 0.94797 0.0
O14 O 0.14093 0.06979 0.90483 0.0
O15 O 1.06461 1.04092 0.89221 0.0
C16 C 0.32097 0.07283 0.01943 0.0
C17 C 0.38696 0.07093 0.08774 0.0
C18 C 0.37259 1.04314 0.07172 0.0
C19 C 0.33929 1.04417 0.03797 0.0
C20 C 0.33373 0.10089 0.03573 0.0
C21 C 0.3662 0.10002 0.06964 0.0
C22 C 0.28351 0.0747 0.9842 0.0
C23 C 1.08353 1.05772 0.01964 0.0
C24 C 0.16908 0.98904 0.95316 0.0
C25 C 0.86371 1.04079 0.96618 0.0
C26 C 0.83319 1.04391 0.03391 0.0
C27 C 0.79577 0.07139 0.01347 0.0
C28 C 0.81023 0.06972 0.97979 0.0
C29 C 0.89633 1.0122 0.9857 0.0
C30 C 0.88073 1.0137 0.01924 0.0
C31 C 0.8969 1.04372 0.93646 0.0
H32 H 0.38849 1.02038 0.0851 0.0
H33 H 0.32845 1.02241 0.02636 0.0
H34 H 0.31898 0.12343 0.02213 0.0
H35 H 0.37801 0.12155 0.08121 0.0
H36 H 0.75717 0.09465 0.02395 0.0
H37 H 0.78375 0.09205 0.96536 0.0
H38 H 0.9377 0.98944 0.97606 0.0
H39 H 0.9095 0.99204 0.03444 0.0
Dy40 Dy 1.04138 0.09188 0.451 0.0
Dy41 Dy 0.10988 1.01 0.44788 0.0
C42 C 1.06046 1.04897 0.37981 0.0
O43 O 0.948 0.07835 0.45828 0.0
O44 O 0.98932 1.02316 0.43698 0.0
O45 O 1.01999 0.13924 0.43007 0.0
O46 O 0.98197 0.13864 0.47818 0.0
O47 O 1.07311 1.02921 0.4993 0.0
O48 O 0.10044 0.07547 0.50246 0.0
O49 O 0.20733 1.02433 0.45831 0.0
O50 O 0.15643 0.07846 0.44109 0.0
O51 O 0.18771 0.965 0.47075 0.0
O52 O 0.11515 0.96111 0.42545 0.0
C53 C 0.93675 1.05068 0.44735 0.0
O54 O 1.01567 0.07469 0.39686 0.0
O55 O 0.11179 1.02384 0.39567 0.0
C56 C 1.03032 0.17888 0.47378 0.0
C57 C 0.11232 0.218 0.49865 0.0
C58 C 0.13447 0.18504 0.50883 0.0
C59 C 0.09398 0.1656 0.49638 0.0
C60 C 1.00622 0.21217 0.46463 0.0
C61 C 1.0469 0.2317 0.47705 0.0
C62 C 0.99363 0.15681 0.45749 0.0
C63 C 0.09001 1.0528 0.51771 0.0
C64 C 0.21377 1.05141 0.4497 0.0
C65 C 0.13503 0.92502 0.46896 0.0
C66 C 1.06428 0.89193 0.49793 0.0
C67 C 1.07386 0.92041 0.51525 0.0
C68 C 0.10857 0.9369 0.50083 0.0
C69 C 0.1291 0.89559 0.45247 0.0
C70 C 0.09402 0.87911 0.46685 0.0
C71 C 0.1601 0.94556 0.45112 0.0
H72 H 0.18418 0.17397 0.52571 0.0
H73 H 0.11364 0.13979 0.50355 0.0
H74 H 0.9575 0.22263 0.44695 0.0
H75 H 1.02897 0.25689 0.46845 0.0
H76 H 1.05236 0.93062 0.53941 0.0
H77 H 0.11203 0.95974 0.514 0.0
H78 H 0.14853 0.88626 0.42773 0.0
H79 H 0.08671 0.85745 0.45268 0.0
Dy80 Dy 0.66654 0.55636 0.95935 0.0
Dy81 Dy 0.5049 0.55609 0.9409 0.0
C82 C 0.59535 0.55437 0.88096 0.0
O83 O 0.59206 0.60993 0.97105 0.0
O84 O 0.49225 0.60904 0.93544 0.0
O85 O 0.77892 0.52767 0.97608 0.0
O86 O 0.74378 0.5805 0.96695 0.0
O87 O 0.51417 0.57448 -0.00422 0.0
O88 O 0.63554 0.54591 0.00735 0.0
O89 O 0.5799 0.50284 0.95131 0.0
O90 O 0.68124 0.50503 0.93521 0.0
O91 O 0.42944 0.53459 0.94949 0.0
O92 O 0.39391 0.57631 0.91687 0.0
C93 C 0.52821 0.62581 0.95409 0.0
O94 O 0.63736 0.56565 0.90342 0.0
O95 O 0.54938 0.54331 0.89051 0.0
C96 C 0.8319 0.55916 0.01473 0.0
C97 C 0.90359 0.56702 0.08032 0.0
C98 C 0.92927 0.53644 0.06037 0.0
C99 C 0.89407 0.53266 0.02786 0.0
C100 C 0.80396 0.58922 0.03523 0.0
C101 C 0.83966 0.59314 0.06768 0.0
C102 C 0.79545 0.55418 0.98045 0.0
C103 C 0.57135 0.56121 0.01778 0.0
C104 C 0.64527 0.48748 0.94192 0.0
C105 C 0.32305 0.57961 0.96037 0.0
C106 C 0.2579 0.60846 0.02065 0.0
C107 C 0.29644 0.62362 0.0066 0.0
C108 C 0.32878 0.60931 0.97678 0.0
C109 C 0.28113 0.56553 0.9732 0.0
C110 C 0.24868 0.57986 0.00306 0.0
C111 C 0.37426 0.55951 0.93593 0.0
H112 H 0.97784 0.51567 0.06953 0.0
H113 H 0.91581 0.50903 0.01279 0.0
H114 H 0.75526 0.6099 0.02603 0.0
H115 H 0.81895 0.61717 0.08217 0.0
H116 H 0.30378 0.64584 0.01932 0.0
H117 H 0.36211 0.62035 0.96783 0.0
H118 H 0.27753 0.54221 0.96146 0.0
H119 H 0.22 0.56731 0.01345 0.0
Dy120 Dy 0.53421 0.60142 0.45242 0.0
Dy121 Dy 0.60325 0.51906 0.44464 0.0
C122 C 0.55079 0.56215 0.37905 0.0
O123 O 0.44031 0.58719 0.45673 0.0
O124 O 0.48293 0.53164 0.43631 0.0
O125 O 0.50967 0.65018 0.43409 0.0
O126 O 0.47552 0.64647 0.48226 0.0
O127 O 0.5703 0.53505 0.49722 0.0
O128 O 0.59359 0.58265 0.50313 0.0
O129 O 0.70106 0.53295 0.45416 0.0
O130 O 0.64979 0.58939 0.44424 0.0
O131 O 0.67871 0.47262 0.46573 0.0
O132 O 0.61102 0.47154 0.41775 0.0
C133 C 0.42985 0.55926 0.44612 0.0
O134 O 0.50722 0.58704 0.39741 0.0
O135 O 0.60241 0.53622 0.39357 0.0
C136 C 0.5156 0.68974 0.479 0.0
C137 C 0.58023 0.73494 0.5087 0.0
C138 C 0.62267 0.70041 0.5034 0.0
C139 C 0.59057 0.67802 0.48882 0.0
C140 C 0.47251 0.72385 0.48507 0.0
C141 C 0.50458 0.74634 0.4999 0.0
C142 C 0.48307 0.66629 0.46207 0.0
C143 C 0.58578 0.5584 0.51687 0.0
C144 C 0.70716 0.56127 0.44925 0.0
C145 C 0.62782 0.43194 0.45683 0.0
C146 C 0.56903 0.39079 0.48076 0.0
C147 C 0.54195 0.42567 0.48926 0.0
C148 C 0.57102 0.44605 0.47735 0.0
C149 C 0.65635 0.39712 0.44884 0.0
C150 C 0.62709 0.37661 0.46073 0.0
C151 C 0.65423 0.45417 0.44284 0.0
H152 H 0.68114 0.6908 0.50921 0.0
H153 H 0.62451 0.65164 0.48446 0.0
H154 H 0.41437 0.73314 0.47788 0.0
H155 H 0.47037 0.77271 0.50397 0.0
H156 H 0.49639 0.43746 0.50404 0.0
H157 H 0.54803 0.47301 0.48352 0.0
H158 H 0.7002 0.38594 0.43298 0.0
H159 H 0.64919 0.34977 0.45394 0.0
H160 H 0.59146 0.67083 0.98092 0.0
H161 H 0.53547 0.73275 0.98255 0.0
H162 H 0.33395 0.72783 0.9334 0.0
H163 H 0.38903 0.66624 0.93137 0.0
H164 H 0.43876 0.77401 0.91267 0.0
H165 H 0.30955 0.79325 0.03223 0.0
H166 H 0.39386 0.75825 0.02565 0.0
H167 H 0.31067 0.75836 0.00205 0.0
C168 C 0.5352 0.6829 0.97051 0.0
C169 C 0.49497 0.66341 0.95592 0.0
C170 C 0.50336 0.71829 0.97142 0.0
C171 C 0.43056 0.73485 0.95811 0.0
C172 C 0.39018 0.71555 0.94381 0.0
H173 H 0.11472 0.94062 0.95614 0.0
H174 H 0.18069 0.87962 0.95711 0.0
C175 C 0.42197 0.68028 0.94264 0.0
C176 C 0.39633 0.77231 0.9587 0.0
H177 H 0.28358 0.84132 0.00218 0.0
C178 C 0.40528 0.78885 0.93235 0.0
C179 C 0.35196 0.79147 0.98413 0.0
C180 C 0.34065 0.77468 0.0128 0.0
C181 C 0.36996 0.82406 0.93041 0.0
C182 C 0.3258 0.84344 0.95606 0.0
C183 C 0.31744 0.82671 0.98256 0.0
C184 C 0.28617 0.88086 0.95543 0.0
C185 C 0.37821 0.83988 0.90013 0.0
C186 C 0.32317 0.90227 0.95456 0.0
C187 C 0.28533 0.93729 0.95363 0.0
C188 C 0.20963 0.95184 0.95413 0.0
C189 C 0.17293 0.93041 0.95568 0.0
C190 C 0.21069 0.89541 0.95628 0.0
H191 H 0.39554 0.82105 0.87827 0.0
H192 H 0.32666 0.86051 0.89126 0.0
H193 H 0.42039 0.8506 0.90774 0.0
H194 H 0.38154 0.89196 0.95487 0.0
H195 H 0.3156 0.95297 0.95285 0.0
H196 H 0.58978 0.44231 0.95591 0.0
H197 H 0.64995 0.38083 0.95565 0.0
H198 H 0.8405 0.38591 0.92452 0.0
H199 H 0.78057 0.4473 0.9243 0.0
H200 H 0.80399 0.33484 0.88835 0.0
H201 H 0.80994 0.32877 0.02817 0.0
H202 H 0.7211 0.35031 0.00643 0.0
H203 H 0.7892 0.36773 0.00873 0.0
C204 C 0.64442 0.4304 0.94891 0.0
C205 C 0.68031 0.44993 0.94029 0.0
C206 C 0.67898 0.39518 0.94899 0.0
C207 C 0.75034 0.37867 0.94064 0.0
C208 C 0.78562 0.39801 0.93123 0.0
H209 H 1.05172 0.17521 0.98515 0.0
H210 H 0.98671 0.23615 0.98231 0.0
C211 C 0.75117 0.4332 0.93115 0.0
C212 C 0.7884 0.3413 0.94173 0.0
H213 H 0.84783 0.27665 -0.00478 0.0
C214 C 0.81352 0.32212 0.91171 0.0
C215 C 0.80189 0.32465 0.97233 0.0
C216 C 0.7798 0.34388 0.00585 0.0
C217 C 0.85088 0.28687 0.91135 0.0
C218 C 0.86268 0.27012 0.94173 0.0
C219 C 0.83825 0.28935 0.97183 0.0
C220 C 0.90194 0.23282 0.94312 0.0
C221 C 0.8789 0.26798 0.87859 0.0
C222 C 0.87574 0.21043 0.92232 0.0
C223 C 0.91296 0.17544 0.92384 0.0
C224 C 0.97707 0.16201 0.94638 0.0
C225 C 1.00269 0.18453 0.96744 0.0
C226 C 0.96547 0.21948 0.96588 0.0
H227 H 0.88222 0.28504 0.86058 0.0
H228 H 0.93345 0.24783 0.88392 0.0
H229 H 0.84142 0.25601 0.86565 0.0
H230 H 0.82608 0.22 0.90506 0.0
H231 H 0.89131 0.15893 0.90739 0.0
H232 H 0.25832 0.1936 0.49736 0.0
H233 H 0.33683 0.22515 0.50645 0.0
H234 H 0.15477 0.31643 0.52878 0.0
H235 H 1.07527 0.28483 0.51959 0.0
H236 H 0.22568 0.32316 0.47957 0.0
H237 H 0.42508 0.26581 0.58946 0.0
H238 H 0.41681 0.23443 0.55701 0.0
H239 H 0.34011 0.26016 0.57929 0.0
C240 C 0.23526 0.22021 0.50517 0.0
C241 C 0.16065 0.23676 0.50789 0.0
C242 C 0.28034 0.23819 0.51048 0.0
C243 C 0.2519 0.27299 0.51892 0.0
C244 C 0.1778 0.28949 0.52258 0.0
H245 H 0.52113 0.39274 0.54238 0.0
H246 H 0.44393 0.36484 0.55504 0.0
C247 C 0.13247 0.2715 0.51714 0.0
C248 C 0.29787 0.2925 0.51954 0.0
H249 H 0.46308 0.29437 0.55182 0.0
C250 C 0.27698 0.31728 0.49581 0.0
C251 C 0.36445 0.285 0.54094 0.0
C252 C 0.38756 0.26014 0.56835 0.0
C253 C 0.32263 0.33352 0.49165 0.0
C254 C 0.39139 0.32424 0.51129 0.0
C255 C 0.41079 0.30086 0.53636 0.0
C256 C 0.44425 0.33807 0.50525 0.0
C257 C 0.29737 0.36012 0.46586 0.0
C258 C 0.47182 0.33115 0.47355 0.0
C259 C 0.51546 0.34708 0.46619 0.0
C260 C 0.5324 0.3701 0.49051 0.0
C261 C 0.50802 0.37548 0.52299 0.0
C262 C 0.46432 0.3595 0.53032 0.0
H263 H 0.23742 0.37043 0.45967 0.0
H264 H 0.31481 0.38123 0.47552 0.0
H265 H 0.32158 0.34877 0.44177 0.0
H266 H 0.45753 0.31425 0.45409 0.0
H267 H 0.53292 0.3426 0.44088 0.0
H268 H 0.08596 0.82547 0.49968 0.0
H269 H 0.99876 0.80309 0.51206 0.0
H270 H 0.84906 0.90399 0.5361 0.0
H271 H 0.93504 0.92664 0.52335 0.0
H272 H 0.86092 0.85009 0.58104 0.0
H273 H 0.81034 0.82305 0.44051 0.0
H274 H 0.90374 0.80637 0.45879 0.0
H275 H 0.85491 0.85119 0.45843 0.0
C276 C 1.03482 0.84283 0.50798 0.0
C277 C 1.01714 0.8778 0.51028 0.0
C278 C 0.98538 0.83003 0.5152 0.0
C279 C 0.91762 0.852 0.52473 0.0
C280 C 0.90138 0.88671 0.52896 0.0
H281 H 0.54577 0.79697 0.48524 0.0
H282 H 0.61882 0.83122 0.49547 0.0
C283 C 0.9507 0.89955 0.52173 0.0
C284 C 0.86079 0.83916 0.52649 0.0
H285 H 0.75297 0.80395 0.47619 0.0
C286 C 0.83694 0.84006 0.55821 0.0
C287 C 0.82886 0.82688 0.49646 0.0
C288 C 0.85012 0.82699 0.46152 0.0
C289 C 0.78296 0.82792 0.56077 0.0
C290 C 0.75306 0.81442 0.53086 0.0
C291 C 0.77591 0.81437 0.4991 0.0
C292 C 0.70072 0.79847 0.53153 0.0
C293 C 0.75819 0.82983 0.5953 0.0
C294 C 0.72108 0.76945 0.54952 0.0
C295 C 0.67882 0.75002 0.5441 0.0
C296 C 0.61615 0.75902 0.52017 0.0
C297 C 0.5933 0.7894 0.50404 0.0
C298 C 0.63525 0.80895 0.50971 0.0
H299 H 0.769 0.84974 0.61293 0.0
H300 H 0.69936 0.83495 0.59285 0.0
H301 H 0.78843 0.80536 0.60711 0.0
H302 H 0.77195 0.7606 0.56606 0.0
H303 H 0.6972 0.72705 0.55736 0.0
H304 H 0.36412 0.11401 0.14571 0.0
H305 H 0.45839 0.11676 0.19176 0.0
H306 H 0.61116 1.02518 0.14729 0.0
H307 H 0.5167 1.02118 0.10375 0.0
H308 H 0.66533 1.03435 0.21182 0.0
H309 H 0.56972 0.16092 0.1611 0.0
H310 H 0.51885 0.15054 0.18817 0.0
H311 H 0.51653 0.13681 0.14316 0.0
C312 C 0.41734 0.09385 0.14687 0.0
C313 C 0.43402 0.0679 0.12073 0.0
C314 C 0.47139 0.09554 0.17302 0.0
C315 C 0.5433 0.07232 0.17209 0.0
C316 C 0.5567 1.04386 0.14873 0.0
H317 H 0.80285 1.00207 0.06972 0.0
H318 H 0.76543 1.0135 0.12689 0.0
C319 C 0.50249 1.04161 0.12343 0.0
C320 C 0.60658 0.08101 0.18711 0.0
H321 H 0.68405 0.12211 0.14869 0.0
C322 C 0.66998 1.0544 0.19951 0.0
C323 C 0.61465 0.1085 0.17441 0.0
C324 C 0.55148 0.14102 0.1663 0.0
C325 C 0.73708 1.04953 0.18919 0.0
C326 C 0.73934 0.072 0.16662 0.0
C327 C 0.68138 0.10339 0.16381 0.0
C328 C 0.78485 1.05988 0.13788 0.0
C329 C 0.8025 1.0185 0.19905 0.0
C330 C 0.80946 0.08162 0.12459 0.0
C331 C 0.82808 0.07566 0.09118 0.0
C332 C 0.82395 1.04746 0.07071 0.0
C333 C 0.80638 1.02399 0.08502 0.0
C334 C 0.78628 1.0303 0.11814 0.0
H335 H 0.80737 1.01554 0.22695 0.0
H336 H 0.79555 0.99584 0.18538 0.0
H337 H 0.85329 1.0197 0.19296 0.0
H338 H 0.80904 0.10457 0.13909 0.0
H339 H 0.84325 0.09373 0.08089 0.0
H340 H 0.34065 1.01468 0.48796 0.0
H341 H 0.46122 1.01568 0.48885 0.0
H342 H 0.37662 0.08724 0.41035 0.0
H343 H 0.25527 0.08799 0.41123 0.0
H344 H 0.55472 0.99797 0.44846 0.0
H345 H 0.48105 0.13517 0.47065 0.0
H346 H 0.41731 0.11604 0.47276 0.0
H347 H 0.43104 0.12611 0.43204 0.0
C348 C 0.34763 1.03089 0.47111 0.0
C349 C 0.28783 1.05152 0.44979 0.0
C350 C 0.41694 1.03142 0.47156 0.0
C351 C 0.42898 1.05217 0.45026 0.0
C352 C 0.36939 0.07201 0.42816 0.0
H353 H 0.83268 0.08932 0.48863 0.0
H354 H 0.71322 0.0881 0.49018 0.0
C355 C 0.2997 0.07216 0.4284 0.0
C356 C 0.50388 1.05219 0.45055 0.0
H357 H 0.59713 0.10359 0.45159 0.0
C358 C 0.56373 1.02119 0.44946 0.0
C359 C 0.51735 0.08227 0.45257 0.0
C360 C 0.45836 0.11671 0.45747 0.0
C361 C 0.63528 1.01936 0.44995 0.0
C362 C 0.64806 1.04937 0.44971 0.0
C363 C 0.58832 0.08038 0.4512 0.0
C364 C 0.72259 1.04943 0.44889 0.0
C365 C 0.69637 0.98512 0.45202 0.0
C366 C 0.76901 1.02838 0.42508 0.0
C367 C 0.8386 1.02841 0.42485 0.0
C368 C 0.86292 1.05038 0.44756 0.0
C369 C 0.81586 0.07212 0.47067 0.0
C370 C 0.74712 0.07145 0.47151 0.0
H371 H 0.68117 0.9673 0.46407 0.0
H372 H 0.70859 0.9744 0.42574 0.0
H373 H 0.74626 0.98664 0.46706 0.0
H374 H 0.75136 1.01205 0.40631 0.0
H375 H 0.87287 1.01164 0.40637 0.0
H376 H 0.86061 0.6007 0.14212 0.0
H377 H 0.93431 0.62096 0.18733 0.0
H378 H 0.12096 0.56889 0.13224 0.0
H379 H 1.04936 0.54833 0.08875 0.0
H380 H 0.16877 0.57564 0.19909 0.0
H381 H 0.96347 0.70219 0.17355 0.0
H382 H 0.94694 0.67235 0.19579 0.0
H383 H 0.93901 0.66956 0.14951 0.0
C384 C 0.91793 0.59305 0.14036 0.0
C385 C 0.94885 0.57341 0.11151 0.0
C386 C 0.96007 0.60468 0.16622 0.0
C387 C 1.03317 0.59748 0.16312 0.0
C388 C 1.06503 0.57503 0.13592 0.0
H389 H 0.12866 0.61543 0.03958 0.0
H390 H 0.0916 0.62806 0.0968 0.0
C391 C 1.02359 0.56318 0.11059 0.0
C392 C 1.07328 0.61797 0.18212 0.0
H393 H 1.07454 0.68591 0.14794 0.0
C394 C 0.14864 0.60068 0.18974 0.0
C395 C 1.04865 0.65209 0.17422 0.0
C396 C 0.9701 0.67542 0.17333 0.0
C397 C 0.19618 0.61047 0.17524 0.0
C398 C 0.16623 0.6392 0.15569 0.0
C399 C 0.09619 0.66243 0.16061 0.0
C400 C 0.18775 0.63635 0.12096 0.0
C401 C 0.27429 0.58673 0.17489 0.0
C402 C 0.25379 0.63716 0.11528 0.0
C403 C 0.27534 0.62963 0.08223 0.0
C404 C 0.23148 0.62083 0.05463 0.0
C405 C 0.16414 0.62155 0.06031 0.0
C406 C 0.14266 0.62914 0.09304 0.0
H407 H 0.29169 0.56884 0.1955 0.0
H408 H 0.28127 0.57195 0.14982 0.0
H409 H 0.3101 0.60109 0.17821 0.0
H410 H 0.28933 0.64268 0.13638 0.0
H411 H 0.32759 0.62932 0.07857 0.0
H412 H 0.3015 0.6132 0.45388 0.0
H413 H 0.1806 0.61292 0.45345 0.0
H414 H 0.26854 0.5045 0.43867 0.0
H415 H 0.38936 0.50468 0.43804 0.0
H416 H 0.12533 0.58778 0.49413 0.0
H417 H 0.10186 0.52545 0.36484 0.0
H418 H 0.17978 0.50044 0.392 0.0
H419 H 0.17375 0.54031 0.37965 0.0
C420 C 0.29527 0.58924 0.45028 0.0
C421 C 0.35567 0.55898 0.44567 0.0
C422 C 0.22574 0.58912 0.45009 0.0
C423 C 0.21425 0.55877 0.44535 0.0
C424 C 0.27476 0.52844 0.44131 0.0
H425 H 0.8378 0.50702 0.45 0.0
H426 H 0.95887 0.50699 0.44952 0.0
C427 C 0.34429 0.52855 0.44118 0.0
C428 C 0.13955 0.55898 0.44561 0.0
H429 H 1.01139 0.53186 0.40017 0.0
C430 C 0.10046 0.5757 0.47341 0.0
C431 C 0.10615 0.5433 0.41868 0.0
C432 C 0.1422 0.52666 0.38695 0.0
C433 C 1.03041 0.57667 0.47531 0.0
C434 C 0.99746 0.56076 0.44855 0.0
C435 C 1.03639 0.54399 0.42079 0.0
C436 C 0.92291 0.56111 0.44896 0.0
C437 C 0.99277 0.59416 0.50639 0.0
C438 C 0.86148 0.59152 0.44846 0.0
C439 C 0.79175 0.59164 0.44857 0.0
C440 C 0.78145 0.56133 0.44924 0.0
C441 C 0.84315 0.53092 0.44964 0.0
C442 C 0.91272 0.53082 0.44928 0.0
H443 H 1.0313 0.59805 0.5281 0.0
H444 H 0.95134 0.61925 0.4997 0.0
H445 H 0.96478 0.57946 0.51496 0.0
H446 H 0.86733 0.61524 0.44765 0.0
H447 H 0.7459 0.61558 0.44817 0.0
H448 H 1.00192 0.10303 0.34008 0.0
H449 H 1.0009 0.10285 0.2782 0.0
H450 H 0.10299 0.99421 0.27226 0.0
H451 H 0.10747 0.99444 0.33441 0.0
H452 H 0.16738 1.01744 0.23714 0.0
H453 H 0.87356 0.08294 0.19971 0.0
H454 H 0.90701 0.10808 0.23135 0.0
H455 H 0.90975 0.06813 0.24193 0.0
C456 C 1.02337 0.07909 0.3255 0.0
C457 C 1.05468 1.04874 0.34206 0.0
C458 C 1.02225 0.07899 0.29004 0.0
C459 C 1.0505 1.04847 0.27029 0.0
C460 C 1.08065 1.01809 0.28683 0.0
H461 H 0.98545 1.04213 0.04647 0.0
H462 H 0.98015 1.03705 0.10693 0.0
C463 C 1.08315 1.01824 0.32236 0.0
C464 C 1.05306 1.0483 0.23285 0.0
H465 H 0.95162 0.08025 0.15841 0.0
C466 C 0.1199 1.03086 0.21987 0.0
C467 C 0.99102 0.06522 0.21004 0.0
C468 C 0.91623 0.0818 0.22142 0.0
C469 C 0.12682 1.03047 0.18504 0.0
C470 C 1.06589 1.04938 0.1627 0.0
C471 C 0.99865 0.06616 0.17551 0.0
C472 C 1.07039 1.05186 0.12596 0.0
C473 C 0.19913 1.00911 0.17259 0.0
C474 C 0.12292 1.06181 0.11638 0.0
C475 C 0.12766 0.06345 0.08178 0.0
C476 C 1.07804 1.05653 0.05619 0.0
C477 C 1.024 1.04774 0.06576 0.0
C478 C 1.02081 1.04498 0.10027 0.0
H479 H 0.23063 0.98792 0.18928 0.0
H480 H 0.19245 0.99849 0.14591 0.0
H481 H 0.23157 1.02481 0.1734 0.0
H482 H 0.16027 0.06839 0.13564 0.0
H483 H 0.16939 0.07065 0.07506 0.0
H484 H 1.05315 1.02085 0.82965 0.0
H485 H 1.05619 1.02201 0.76838 0.0
H486 H 0.16774 0.09032 0.78977 0.0
H487 H 0.16636 0.08879 0.85126 0.0
H488 H 0.99502 0.07608 0.72891 0.0
H489 H 0.29297 1.0194 0.7247 0.0
H490 H 0.25191 1.01781 0.76154 0.0
H491 H 0.26304 1.05564 0.75425 0.0
C492 C 1.0789 1.03593 0.82143 0.0
C493 C 0.10975 1.05464 0.84546 0.0
C494 C 1.08052 1.03658 0.78634 0.0
C495 C 0.113 1.05589 0.77447 0.0
C496 C 0.14385 0.07462 0.79834 0.0
H497 H 0.13386 0.09498 0.56471 0.0
H498 H 0.13965 0.0974 0.62737 0.0
C499 C 0.14265 0.07384 0.83351 0.0
C500 C 0.11172 1.05736 0.73705 0.0
H501 H 0.21979 1.04071 0.67322 0.0
C502 C 1.04421 0.06831 0.71676 0.0
C503 C 0.17595 1.04736 0.72123 0.0
C504 C 0.25014 1.0341 0.74145 0.0
C505 C 1.03915 0.06941 0.68111 0.0
C506 C 0.10329 1.05904 0.6653 0.0
C507 C 0.17077 1.0487 0.68554 0.0
C508 C 0.10121 1.05731 0.62757 0.0
C509 C 0.96522 0.08171 0.66056 0.0
C510 C 1.07868 1.03366 0.60713 0.0
C511 C 1.07564 1.03208 0.57149 0.0
C512 C 0.09502 1.0542 0.55557 0.0
C513 C 0.11836 0.07767 0.57617 0.0
C514 C 0.12181 0.07907 0.61193 0.0
H515 H 0.92153 0.09577 0.67706 0.0
H516 H 0.96282 0.0983 0.64062 0.0
H517 H 0.95444 1.05975 0.64741 0.0
H518 H 1.0634 1.01639 0.61879 0.0
H519 H 1.05751 1.01367 0.55645 0.0
H520 H 0.46728 0.61577 0.34037 0.0
H521 H 0.45881 0.61837 0.2782 0.0
H522 H 0.60776 0.51469 0.27021 0.0
H523 H 0.61686 0.51179 0.33217 0.0
H524 H 0.58163 0.60438 0.24034 0.0
H525 H 0.43148 0.52083 0.19597 0.0
H526 H 0.43003 0.54148 0.2385 0.0
H527 H 0.50719 0.50448 0.22832 0.0
C528 C 0.49776 0.59342 0.32537 0.0
C529 C 0.54277 0.56356 0.34129 0.0
C530 C 0.49289 0.59499 0.28987 0.0
C531 C 0.53204 0.56662 0.26962 0.0
C532 C 0.57628 0.53671 0.28534 0.0
H533 H 0.67867 0.54519 0.07182 0.0
H534 H 0.66494 0.54855 0.13266 0.0
C535 C 0.5817 0.53518 0.32081 0.0
C536 C 0.53002 0.56863 0.23231 0.0
H537 H 0.48606 0.53462 0.15395 0.0
C538 C 0.56026 0.58935 0.22139 0.0
C539 C 0.50118 0.54935 0.2077 0.0
C540 C 0.465 0.52796 0.21804 0.0
C541 C 0.56489 0.59034 0.1865 0.0
C542 C 0.53944 0.56971 0.16199 0.0
C543 C 0.5065 0.55004 0.17282 0.0
C544 C 0.54762 0.5678 0.12506 0.0
C545 C 0.59683 0.61352 0.17618 0.0
C546 C 0.48633 0.57671 0.1005 0.0
C547 C 0.49393 0.57483 0.06566 0.0
C548 C 0.5632 0.5635 0.0547 0.0
C549 C 0.62456 0.55412 0.07937 0.0
C550 C 0.61681 0.55624 0.11419 0.0
H551 H 0.59476 0.63407 0.19624 0.0
H552 H 0.65454 0.59884 0.17246 0.0
H553 H 0.56778 0.62494 0.15173 0.0
H554 H 0.4326 0.58526 0.10838 0.0
H555 H 0.44554 0.58198 0.04734 0.0
H556 H 0.62908 0.5991 0.56608 0.0
H557 H 0.63898 0.59774 0.62845 0.0
H558 H 0.56499 0.51571 0.61538 0.0
H559 H 0.55683 0.51626 0.55327 0.0
H560 H 0.53585 0.6081 0.66919 0.0
H561 H 0.74296 0.47882 0.68306 0.0
H562 H 0.72243 0.50006 0.64389 0.0
H563 H 0.66586 0.47956 0.65334 0.0
C564 C 0.61548 0.58059 0.5765 0.0
C565 C 0.59263 0.55764 0.55467 0.0
C566 C 0.62112 0.57986 0.61216 0.0
C567 C 0.6041 0.55619 0.62667 0.0
C568 C 0.58043 0.53356 0.60488 0.0
H569 H 0.53467 0.52432 0.82726 0.0
H570 H 0.53954 0.52546 0.76598 0.0
C571 C 0.57529 0.53409 0.5693 0.0
C572 C 0.6082 0.55596 0.66451 0.0
H573 H 0.67833 0.50474 0.73149 0.0
C574 C 0.56766 0.5856 0.68285 0.0
C575 C 0.64993 0.52661 0.68241 0.0
C576 C 0.69834 0.49458 0.66471 0.0
C577 C 0.56596 0.58637 0.71833 0.0
C578 C 0.60592 0.55678 0.7359 0.0
C579 C 0.64735 0.5273 0.7178 0.0
C580 C 0.60427 0.55585 0.77307 0.0
C581 C 0.52007 0.61852 0.73675 0.0
C582 C 0.63981 0.57227 0.79728 0.0
C583 C 0.63761 0.5715 0.83236 0.0
C584 C 0.59943 0.55443 0.84382 0.0
C585 C 0.5643 0.53782 0.81938 0.0
C586 C 0.56709 0.53837 0.78434 0.0
H587 H 0.48476 0.63791 0.71871 0.0
H588 H 0.48549 0.61334 0.75278 0.0
H589 H 0.55592 0.62898 0.7541 0.0
H590 H 0.66924 0.58568 0.78903 0.0
H591 H 0.6652 0.5846 0.85043 0.0
loop_
_geom_bond_atom_site_label_1
_geom_bond_atom_site_label_2
_geom_bond_distance
_geom_bond_site_symmetry_2
_ccdc_geom_bond_type
Dy0 O3 2.307 1_455 S
Dy0 O5 2.395 1_554 S
Dy0 O6 2.379 . S
Dy0 O8 2.339 . S
Dy0 O10 2.298 1_545 S
Dy0 O14 2.275 1_554 S
Dy0 C22 2.738 . S
Dy1 O4 2.298 1_565 S
Dy1 O7 2.275 1_556 S
Dy1 O9 2.307 1_655 S
Dy1 O11 2.395 1_556 S
Dy1 O12 2.379 . S
Dy1 O15 2.339 . S
Dy1 C31 2.738 . S
C2 O14 1.254 1_665 S
C2 O15 1.257 . S
O3 Dy0 2.307 1_655 S
O3 C13 1.269 . S
O4 Dy1 2.298 1_545 S
O4 C13 1.229 1_556 S
O5 Dy0 2.395 1_556 S
O5 C22 1.255 1_556 S
O6 Dy0 2.379 . S
O6 C22 1.249 . S
O7 Dy1 2.275 1_554 S
O7 C23 1.254 1_665 S
O8 Dy0 2.339 . S
O8 C23 1.257 . S
O9 Dy1 2.307 1_455 S
O9 C24 1.268 . S
O10 Dy0 2.298 1_565 S
O10 C24 1.231 1_554 S
O11 Dy1 2.395 1_554 S
O11 C31 1.255 1_554 S
O12 Dy1 2.379 . S
O12 C31 1.249 . S
C13 O3 1.269 . S
C13 O4 1.229 1_554 S
O14 Dy0 2.275 1_556 S
O14 C2 1.254 1_445 S
O15 Dy1 2.339 . S
O15 C2 1.257 . S
C16 C19 1.344 1_554 S
C16 C20 1.332 . S
C16 C22 1.516 1_565 S
C17 C18 1.304 1_554 S
C17 C21 1.323 . S
C18 C17 1.304 1_556 S
C18 C19 1.371 . S
C18 H32 0.930 . S
C19 C16 1.344 1_556 S
C19 C18 1.371 . S
C19 H33 0.931 . S
C20 C16 1.332 . S
C20 C21 1.432 . S
C20 H34 0.928 1_565 S
C21 C17 1.323 . S
C21 C20 1.432 . S
C21 H35 0.939 . S
C22 Dy0 2.738 . S
C22 O5 1.255 1_554 S
C22 O6 1.249 . S
C22 C16 1.516 1_545 S
C23 O7 1.254 1_445 S
C23 O8 1.257 . S
C24 O9 1.268 . S
C24 O10 1.231 1_556 S
C25 C28 1.344 1_556 S
C25 C29 1.328 . S
C25 C31 1.516 1_545 S
C26 C27 1.304 1_556 S
C26 C30 1.323 . S
C27 C26 1.304 1_554 S
C27 C28 1.371 . S
C27 H36 0.930 . S
C28 C25 1.344 1_554 S
C28 C27 1.371 . S
C28 H37 0.931 . S
C29 C25 1.328 . S
C29 C30 1.433 . S
C29 H38 0.931 1_545 S
C30 C26 1.323 . S
C30 C29 1.433 . S
C30 H39 0.933 . S
C31 Dy1 2.738 . S
C31 O11 1.255 1_556 S
C31 O12 1.249 . S
C31 C25 1.516 1_565 S
H32 C18 0.930 . S
H33 C19 0.931 . S
H34 C20 0.928 1_545 S
H35 C21 0.939 . S
H36 C27 0.930 . S
H37 C28 0.931 . S
H38 C29 0.931 1_565 S
H39 C30 0.933 . S
Dy40 O43 2.307 . S
Dy40 O45 2.395 1_655 S
Dy40 O46 2.379 1_655 S
Dy40 O48 2.341 1_655 S
Dy40 O50 2.298 1_655 S
Dy40 O54 2.275 . S
Dy40 C62 2.738 1_655 S
Dy41 O44 2.298 1_455 S
Dy41 O47 2.275 . S
Dy41 O49 2.307 . S
Dy41 O51 2.395 1_455 S
Dy41 O52 2.379 1_455 S
Dy41 O55 2.340 1_455 S
Dy41 C71 2.738 1_455 S
C42 O54 1.254 1_565 S
C42 O55 1.256 . S
O43 Dy40 2.307 . S
O43 C53 1.266 . S
O44 Dy41 2.298 1_655 S
O44 C53 1.236 1_565 S
O45 Dy40 2.395 1_455 S
O45 C62 1.255 . S
O46 Dy40 2.379 1_455 S
O46 C62 1.249 . S
O47 Dy41 2.275 . S
O47 C63 1.254 1_565 S
O48 Dy40 2.341 1_455 S
O48 C63 1.254 . S
O49 Dy41 2.307 . S
O49 C64 1.266 . S
O50 Dy40 2.298 1_455 S
O50 C64 1.236 1_545 S
O51 Dy41 2.395 1_655 S
O51 C71 1.255 . S
O52 Dy41 2.379 1_655 S
O52 C71 1.249 . S
C53 O43 1.266 . S
C53 O44 1.236 1_545 S
O54 Dy40 2.275 . S
O54 C42 1.254 1_545 S
O55 Dy41 2.340 1_655 S
O55 C42 1.256 . S
C56 C59 1.344 . S
C56 C60 1.328 . S
C56 C62 1.516 . S
C57 C58 1.304 . S
C57 C61 1.323 . S
C58 C57 1.304 . S
C58 C59 1.371 . S
C58 H72 0.930 . S
C59 C56 1.344 . S
C59 C58 1.371 . S
C59 H73 0.931 . S
C60 C56 1.328 . S
C60 C61 1.433 . S
C60 H74 0.931 . S
C61 C57 1.323 . S
C61 C60 1.433 . S
C61 H75 0.933 . S
C62 Dy40 2.738 1_455 S
C62 O45 1.255 . S
C62 O46 1.249 . S
C62 C56 1.516 . S
C63 O47 1.254 1_545 S
C63 O48 1.254 . S
C64 O49 1.266 . S
C64 O50 1.236 1_565 S
C65 C68 1.344 . S
C65 C69 1.328 . S
C65 C71 1.516 . S
C66 C67 1.304 . S
C66 C70 1.323 . S
C67 C66 1.304 . S
C67 C68 1.371 . S
C67 H76 0.930 . S
C68 C65 1.344 . S
C68 C67 1.371 . S
C68 H77 0.931 . S
C69 C65 1.328 . S
C69 C70 1.433 . S
C69 H78 0.931 . S
C70 C66 1.323 . S
C70 C69 1.433 . S
C70 H79 0.933 . S
C71 Dy41 2.738 1_655 S
C71 O51 1.255 . S
C71 O52 1.249 . S
C71 C65 1.516 . S
H72 C58 0.930 . S
H73 C59 0.931 . S
H74 C60 0.931 . S
H75 C61 0.933 . S
H76 C67 0.930 . S
H77 C68 0.931 . S
H78 C69 0.931 . S
H79 C70 0.933 . S
Dy80 O83 2.307 . S
Dy80 O85 2.395 1_554 S
Dy80 O86 2.379 . S
Dy80 O88 2.339 . S
Dy80 O90 2.298 . S
Dy80 O94 2.275 1_554 S
Dy80 C102 2.738 . S
Dy81 O84 2.298 . S
Dy81 O87 2.275 1_556 S
Dy81 O89 2.307 . S
Dy81 O91 2.395 1_556 S
Dy81 O92 2.379 . S
Dy81 O95 2.339 . S
Dy81 C111 2.738 . S
C82 O94 1.254 . S
C82 O95 1.257 . S
O83 Dy80 2.307 . S
O83 C93 1.269 . S
O84 Dy81 2.298 . S
O84 C93 1.229 1_556 S
O85 Dy80 2.395 1_556 S
O85 C102 1.255 1_556 S
O86 Dy80 2.379 . S
O86 C102 1.249 . S
O87 Dy81 2.275 1_554 S
O87 C103 1.254 . S
O88 Dy80 2.339 . S
O88 C103 1.257 . S
O89 Dy81 2.307 . S
O89 C104 1.268 . S
O90 Dy80 2.298 . S
O90 C104 1.231 1_554 S
O91 Dy81 2.395 1_554 S
O91 C111 1.255 1_554 S
O92 Dy81 2.379 . S
O92 C111 1.249 . S
C93 O83 1.269 . S
C93 O84 1.229 1_554 S
O94 Dy80 2.275 1_556 S
O94 C82 1.254 . S
O95 Dy81 2.339 . S
O95 C82 1.257 . S
C96 C99 1.344 1_554 S
C96 C100 1.328 . S
C96 C102 1.516 . S
C97 C98 1.304 1_554 S
C97 C101 1.323 . S
C98 C97 1.304 1_556 S
C98 C99 1.371 . S
C98 H112 0.930 . S
C99 C96 1.344 1_556 S
C99 C98 1.371 . S
C99 H113 0.931 . S
C100 C96 1.328 . S
C100 C101 1.433 . S
C100 H114 0.931 . S
C101 C97 1.323 . S
C101 C100 1.433 . S
C101 H115 0.933 . S
C102 Dy80 2.738 . S
C102 O85 1.255 1_554 S
C102 O86 1.249 . S
C102 C96 1.516 . S
C103 O87 1.254 . S
C103 O88 1.257 . S
C104 O89 1.268 . S
C104 O90 1.231 1_556 S
C105 C108 1.344 1_556 S
C105 C109 1.328 . S
C105 C111 1.516 . S
C106 C107 1.304 1_556 S
C106 C110 1.323 . S
C107 C106 1.304 1_554 S
C107 C108 1.371 . S
C107 H116 0.930 . S
C108 C105 1.344 1_554 S
C108 C107 1.371 . S
C108 H117 0.931 . S
C109 C105 1.328 . S
C109 C110 1.433 . S
C109 H118 0.931 . S
C110 C106 1.323 . S
C110 C109 1.433 . S
C110 H119 0.933 . S
C111 Dy81 2.738 . S
C111 O91 1.255 1_556 S
C111 O92 1.249 . S
C111 C105 1.516 . S
H112 C98 0.930 . S
H113 C99 0.931 . S
H114 C100 0.931 . S
H115 C101 0.933 . S
H116 C107 0.930 . S
H117 C108 0.931 . S
H118 C109 0.931 . S
H119 C110 0.933 . S
Dy120 O123 2.307 . S
Dy120 O125 2.395 . S
Dy120 O126 2.379 . S
Dy120 O128 2.339 . S
Dy120 O130 2.298 . S
Dy120 O134 2.275 . S
Dy120 C142 2.738 . S
Dy121 O124 2.298 . S
Dy121 O127 2.275 . S
Dy121 O129 2.307 . S
Dy121 O131 2.395 . S
Dy121 O132 2.379 . S
Dy121 O135 2.339 . S
Dy121 C151 2.738 . S
C122 O134 1.254 . S
C122 O135 1.257 . S
O123 Dy120 2.307 . S
O123 C133 1.266 . S
O124 Dy121 2.298 . S
O124 C133 1.236 . S
O125 Dy120 2.395 . S
O125 C142 1.255 . S
O126 Dy120 2.379 . S
O126 C142 1.249 . S
O127 Dy121 2.275 . S
O127 C143 1.254 . S
O128 Dy120 2.339 . S
O128 C143 1.257 . S
O129 Dy121 2.307 . S
O129 C144 1.266 . S
O130 Dy120 2.298 . S
O130 C144 1.236 . S
O131 Dy121 2.395 . S
O131 C151 1.255 . S
O132 Dy121 2.379 . S
O132 C151 1.249 . S
C133 O123 1.266 . S
C133 O124 1.236 . S
O134 Dy120 2.275 . S
O134 C122 1.254 . S
O135 Dy121 2.339 . S
O135 C122 1.257 . S
C136 C139 1.344 . S
C136 C140 1.328 . S
C136 C142 1.516 . S
C137 C138 1.304 . S
C137 C141 1.323 . S
C138 C137 1.304 . S
C138 C139 1.371 . S
C138 H152 0.930 . S
C139 C136 1.344 . S
C139 C138 1.371 . S
C139 H153 0.931 . S
C140 C136 1.328 . S
C140 C141 1.433 . S
C140 H154 0.931 . S
C141 C137 1.323 . S
C141 C140 1.433 . S
C141 H155 0.933 . S
C142 Dy120 2.738 . S
C142 O125 1.255 . S
C142 O126 1.249 . S
C142 C136 1.516 . S
C143 O127 1.254 . S
C143 O128 1.257 . S
C144 O129 1.266 . S
C144 O130 1.236 . S
C145 C148 1.344 . S
C145 C149 1.328 . S
C145 C151 1.516 . S
C146 C147 1.304 . S
C146 C150 1.323 . S
C147 C146 1.304 . S
C147 C148 1.371 . S
C147 H156 0.930 . S
C148 C145 1.344 . S
C148 C147 1.371 . S
C148 H157 0.931 . S
C149 C145 1.328 . S
C149 C150 1.433 . S
C149 H158 0.931 . S
C150 C146 1.323 . S
C150 C149 1.433 . S
C150 H159 0.933 . S
C151 Dy121 2.738 . S
C151 O131 1.255 . S
C151 O132 1.249 . S
C151 C145 1.516 . S
H152 C138 0.930 . S
H153 C139 0.931 . S
H154 C140 0.931 . S
H155 C141 0.933 . S
H156 C147 0.930 . S
H157 C148 0.931 . S
H158 C149 0.931 . S
H159 C150 0.933 . S
H160 C168 0.929 . S
H161 C170 0.930 . S
H162 C172 0.930 . S
H163 C175 0.929 . S
H164 C178 0.930 . S
H165 C180 0.960 . S
H166 C180 0.960 . S
H167 C180 0.960 1_556 S
C168 H160 0.929 . S
C168 C169 1.377 . S
C168 C170 1.384 . S
C169 C168 1.377 . S
C169 C175 1.390 1_554 S
C170 H161 0.930 . S
C170 C168 1.384 . S
C170 C171 1.372 . S
C171 C170 1.372 . S
C171 C172 1.400 1_554 S
C171 C176 1.490 . S
C172 H162 0.930 . S
C172 C171 1.400 1_556 S
C172 C175 1.386 . S
H173 C189 0.930 . S
H174 C190 0.931 . S
C175 H163 0.929 . S
C175 C169 1.390 1_556 S
C175 C172 1.386 . S
C176 C171 1.490 . S
C176 C178 1.395 1_554 S
C176 C179 1.403 . S
H177 C183 0.930 . S
C178 H164 0.930 . S
C178 C176 1.395 1_556 S
C178 C181 1.403 . S
C179 C176 1.403 . S
C179 C180 1.524 . S
C179 C183 1.400 . S
C180 H165 0.960 . S
C180 H166 0.960 . S
C180 H167 0.960 1_554 S
C180 C179 1.524 . S
C181 C178 1.403 . S
C181 C182 1.400 . S
C181 C185 1.495 . S
C182 C181 1.400 . S
C182 C183 1.377 1_556 S
C182 C184 1.478 . S
C183 H177 0.930 . S
C183 C179 1.400 . S
C183 C182 1.377 1_554 S
C184 C182 1.478 . S
C184 C186 1.381 1_556 S
C184 C190 1.383 . S
C185 C181 1.495 . S
C185 H191 0.959 . S
C185 H192 0.961 . S
C185 H193 0.960 1_556 S
C186 C184 1.381 1_554 S
C186 C187 1.394 . S
C186 H194 0.930 . S
C187 C186 1.394 . S
C187 C188 1.383 1_554 S
C187 H195 0.929 . S
C188 C187 1.383 1_556 S
C188 C189 1.377 . S
C189 H173 0.930 . S
C189 C188 1.377 . S
C189 C190 1.379 . S
C190 H174 0.931 . S
C190 C184 1.383 . S
C190 C189 1.379 . S
H191 C185 0.959 . S
H192 C185 0.961 . S
H193 C185 0.960 1_554 S
H194 C186 0.930 . S
H195 C187 0.929 . S
H196 C204 0.929 . S
H197 C206 0.930 . S
H198 C208 0.930 . S
H199 C211 0.929 . S
H200 C214 0.930 . S
H201 C216 0.960 . S
H202 C216 0.960 . S
H203 C216 0.960 . S
C204 H196 0.929 . S
C204 C205 1.377 . S
C204 C206 1.384 . S
C205 C204 1.377 . S
C205 C211 1.390 1_556 S
C206 H197 0.930 . S
C206 C204 1.384 . S
C206 C207 1.372 . S
C207 C206 1.372 . S
C207 C208 1.400 1_556 S
C207 C212 1.490 . S
C208 H198 0.930 . S
C208 C207 1.400 1_554 S
C208 C211 1.386 . S
H209 C225 0.930 . S
H210 C226 0.931 . S
C211 H199 0.929 . S
C211 C205 1.390 1_554 S
C211 C208 1.386 . S
C212 C207 1.490 . S
C212 C214 1.395 . S
C212 C215 1.403 1_556 S
H213 C219 0.930 . S
C214 H200 0.930 . S
C214 C212 1.395 . S
C214 C217 1.403 . S
C215 C212 1.403 1_554 S
C215 C216 1.524 . S
C215 C219 1.400 . S
C216 H201 0.960 . S
C216 H202 0.960 . S
C216 H203 0.960 . S
C216 C215 1.524 . S
C217 C214 1.403 . S
C217 C218 1.392 . S
C217 C221 1.495 . S
C218 C217 1.392 . S
C218 C219 1.385 1_556 S
C218 C220 1.478 . S
C219 H213 0.930 . S
C219 C215 1.400 . S
C219 C218 1.385 1_554 S
C220 C218 1.478 . S
C220 C222 1.381 . S
C220 C226 1.383 1_556 S
C221 C217 1.495 . S
C221 H227 0.959 . S
C221 H228 0.961 . S
C221 H229 0.960 . S
C222 C220 1.381 . S
C222 C223 1.394 . S
C222 H230 0.930 . S
C223 C222 1.394 . S
C223 C224 1.384 1_556 S
C223 H231 0.929 . S
C224 C223 1.384 1_554 S
C224 C225 1.377 . S
C225 H209 0.930 . S
C225 C224 1.377 . S
C225 C226 1.379 . S
C226 H210 0.931 . S
C226 C220 1.383 1_554 S
C226 C225 1.379 . S
H227 C221 0.959 . S
H228 C221 0.961 . S
H229 C221 0.960 . S
H230 C222 0.930 . S
H231 C223 0.929 . S
H232 C240 0.929 . S
H233 C242 0.930 . S
H234 C244 0.930 . S
H235 C247 0.929 . S
H236 C250 0.930 . S
H237 C252 0.960 . S
H238 C252 0.960 . S
H239 C252 0.960 . S
C240 H232 0.929 . S
C240 C241 1.377 . S
C240 C242 1.384 . S
C241 C240 1.377 . S
C241 C247 1.390 . S
C242 H233 0.930 . S
C242 C240 1.384 . S
C242 C243 1.372 . S
C243 C242 1.372 . S
C243 C244 1.400 . S
C243 C248 1.490 . S
C244 H234 0.930 . S
C244 C243 1.400 . S
C244 C247 1.386 . S
H245 C261 0.930 . S
H246 C262 0.931 . S
C247 H235 0.929 . S
C247 C241 1.390 . S
C247 C244 1.386 . S
C248 C243 1.490 . S
C248 C250 1.395 . S
C248 C251 1.403 . S
H249 C255 0.930 . S
C250 H236 0.930 . S
C250 C248 1.395 . S
C250 C253 1.403 . S
C251 C248 1.403 . S
C251 C252 1.524 . S
C251 C255 1.400 . S
C252 H237 0.960 . S
C252 H238 0.960 . S
C252 H239 0.960 . S
C252 C251 1.524 . S
C253 C250 1.403 . S
C253 C254 1.392 . S
C253 C257 1.495 . S
C254 C253 1.392 . S
C254 C255 1.385 . S
C254 C256 1.478 . S
C255 H249 0.930 . S
C255 C251 1.400 . S
C255 C254 1.385 . S
C256 C254 1.478 . S
C256 C258 1.381 . S
C256 C262 1.383 . S
C257 C253 1.495 . S
C257 H263 0.959 . S
C257 H264 0.961 . S
C257 H265 0.960 . S
C258 C256 1.381 . S
C258 C259 1.394 . S
C258 H266 0.930 . S
C259 C258 1.394 . S
C259 C260 1.383 . S
C259 H267 0.929 . S
C260 C259 1.383 . S
C260 C261 1.377 . S
C261 H245 0.930 . S
C261 C260 1.377 . S
C261 C262 1.379 . S
C262 H246 0.931 . S
C262 C256 1.383 . S
C262 C261 1.379 . S
H263 C257 0.959 . S
H264 C257 0.961 . S
H265 C257 0.960 . S
H266 C258 0.930 . S
H267 C259 0.929 . S
H268 C276 0.929 . S
H269 C278 0.930 . S
H270 C280 0.930 . S
H271 C283 0.929 . S
H272 C286 0.930 . S
H273 C288 0.960 . S
H274 C288 0.960 . S
H275 C288 0.960 . S
C276 H268 0.929 . S
C276 C277 1.377 . S
C276 C278 1.384 . S
C277 C276 1.377 . S
C277 C283 1.390 . S
C278 H269 0.930 . S
C278 C276 1.384 . S
C278 C279 1.372 . S
C279 C278 1.372 . S
C279 C280 1.400 . S
C279 C284 1.490 . S
C280 H270 0.930 . S
C280 C279 1.400 . S
C280 C283 1.386 . S
H281 C297 0.930 . S
H282 C298 0.931 . S
C283 H271 0.929 . S
C283 C277 1.390 . S
C283 C280 1.386 . S
C284 C279 1.490 . S
C284 C286 1.395 . S
C284 C287 1.403 . S
H285 C291 0.930 . S
C286 H272 0.930 . S
C286 C284 1.395 . S
C286 C289 1.403 . S
C287 C284 1.403 . S
C287 C288 1.524 . S
C287 C291 1.400 . S
C288 H273 0.960 . S
C288 H274 0.960 . S
C288 H275 0.960 . S
C288 C287 1.524 . S
C289 C286 1.403 . S
C289 C290 1.392 . S
C289 C293 1.495 . S
C290 C289 1.392 . S
C290 C291 1.385 . S
C290 C292 1.478 . S
C291 H285 0.930 . S
C291 C287 1.400 . S
C291 C290 1.385 . S
C292 C290 1.478 . S
C292 C294 1.381 . S
C292 C298 1.383 . S
C293 C289 1.495 . S
C293 H299 0.959 . S
C293 H300 0.961 . S
C293 H301 0.960 . S
C294 C292 1.381 . S
C294 C295 1.394 . S
C294 H302 0.930 . S
C295 C294 1.394 . S
C295 C296 1.383 . S
C295 H303 0.929 . S
C296 C295 1.383 . S
C296 C297 1.377 . S
C297 H281 0.930 . S
C297 C296 1.377 . S
C297 C298 1.379 . S
C298 H282 0.931 . S
C298 C292 1.383 . S
C298 C297 1.379 . S
H299 C293 0.959 . S
H300 C293 0.961 . S
H301 C293 0.960 . S
H302 C294 0.930 . S
H303 C295 0.929 . S
H304 C312 0.929 . S
H305 C314 0.930 . S
H306 C316 0.930 . S
H307 C319 0.929 1_545 S
H308 C322 0.930 . S
H309 C324 0.960 . S
H310 C324 0.960 . S
H311 C324 0.960 . S
C312 H304 0.929 . S
C312 C313 1.377 . S
C312 C314 1.384 . S
C313 C312 1.377 . S
C313 C319 1.390 1_554 S
C314 H305 0.930 . S
C314 C312 1.384 . S
C314 C315 1.372 . S
C315 C314 1.372 . S
C315 C316 1.400 1_564 S
C315 C320 1.490 . S
C316 H306 0.930 . S
C316 C315 1.400 1_546 S
C316 C319 1.386 1_545 S
H317 C333 0.930 . S
H318 C334 0.931 . S
C319 H307 0.929 1_565 S
C319 C313 1.390 1_556 S
C319 C316 1.386 1_565 S
C320 C315 1.490 . S
C320 C322 1.395 1_554 S
C320 C323 1.403 1_565 S
H321 C327 0.930 . S
C322 H308 0.930 . S
C322 C320 1.395 1_556 S
C322 C325 1.403 . S
C323 C320 1.403 1_545 S
C323 C324 1.524 . S
C323 C327 1.400 . S
C324 H309 0.960 . S
C324 H310 0.960 . S
C324 H311 0.960 . S
C324 C323 1.524 . S
C325 C322 1.403 . S
C325 C326 1.392 1_565 S
C325 C329 1.495 . S
C326 C325 1.392 1_545 S
C326 C327 1.385 1_556 S
C326 C328 1.478 . S
C327 H321 0.930 . S
C327 C323 1.400 . S
C327 C326 1.385 1_554 S
C328 C326 1.478 . S
C328 C330 1.381 1_546 S
C328 C334 1.383 . S
C329 C325 1.495 . S
C329 H335 0.959 . S
C329 H336 0.961 . S
C329 H337 0.960 . S
C330 C328 1.381 1_564 S
C330 C331 1.394 1_565 S
C330 H338 0.930 . S
C331 C330 1.394 1_545 S
C331 C332 1.383 1_554 S
C331 H339 0.929 1_545 S
C332 C331 1.383 1_556 S
C332 C333 1.377 . S
C333 H317 0.930 . S
C333 C332 1.377 . S
C333 C334 1.379 . S
C334 H318 0.931 . S
C334 C328 1.383 . S
C334 C333 1.379 . S
H335 C329 0.959 . S
H336 C329 0.961 . S
H337 C329 0.960 . S
H338 C330 0.930 . S
H339 C331 0.929 1_565 S
H340 C348 0.929 . S
H341 C350 0.930 . S
H342 C352 0.930 . S
H343 C355 0.929 . S
H344 C358 0.930 . S
H345 C360 0.960 . S
H346 C360 0.960 . S
H347 C360 0.960 . S
C348 H340 0.929 . S
C348 C349 1.377 . S
C348 C350 1.384 . S
C349 C348 1.377 . S
C349 C355 1.390 1_565 S
C350 H341 0.930 . S
C350 C348 1.384 . S
C350 C351 1.372 . S
C351 C350 1.372 . S
C351 C352 1.400 1_565 S
C351 C356 1.490 . S
C352 H342 0.930 . S
C352 C351 1.400 1_545 S
C352 C355 1.386 . S
H353 C369 0.930 . S
H354 C370 0.931 . S
C355 H343 0.929 . S
C355 C349 1.390 1_545 S
C355 C352 1.386 . S
C356 C351 1.490 . S
C356 C358 1.395 . S
C356 C359 1.403 1_565 S
H357 C363 0.930 . S
C358 H344 0.930 . S
C358 C356 1.395 . S
C358 C361 1.403 . S
C359 C356 1.403 1_545 S
C359 C360 1.524 . S
C359 C363 1.400 . S
C360 H345 0.960 . S
C360 H346 0.960 . S
C360 H347 0.960 . S
C360 C359 1.524 . S
C361 C358 1.403 . S
C361 C362 1.392 . S
C361 C365 1.495 . S
C362 C361 1.392 . S
C362 C363 1.385 1_565 S
C362 C364 1.478 . S
C363 H357 0.930 . S
C363 C359 1.400 . S
C363 C362 1.385 1_545 S
C364 C362 1.478 . S
C364 C366 1.381 . S
C364 C370 1.383 1_565 S
C365 C361 1.495 . S
C365 H371 0.959 . S
C365 H372 0.961 . S
C365 H373 0.960 . S
C366 C364 1.381 . S
C366 C367 1.394 . S
C366 H374 0.930 . S
C367 C366 1.394 . S
C367 C368 1.383 1_565 S
C367 H375 0.929 . S
C368 C367 1.383 1_545 S
C368 C369 1.377 . S
C369 H353 0.930 . S
C369 C368 1.377 . S
C369 C370 1.379 . S
C370 H354 0.931 . S
C370 C364 1.383 1_545 S
C370 C369 1.379 . S
H371 C365 0.959 . S
H372 C365 0.961 . S
H373 C365 0.960 . S
H374 C366 0.930 . S
H375 C367 0.929 . S
H376 C384 0.929 . S
H377 C386 0.930 . S
H378 C388 0.930 . S
H379 C391 0.929 . S
H380 C394 0.930 . S
H381 C396 0.960 . S
H382 C396 0.960 . S
H383 C396 0.960 . S
C384 H376 0.929 . S
C384 C385 1.377 . S
C384 C386 1.384 . S
C385 C384 1.377 . S
C385 C391 1.390 1_554 S
C386 H377 0.930 . S
C386 C384 1.384 . S
C386 C387 1.372 . S
C387 C386 1.372 . S
C387 C388 1.400 1_554 S
C387 C392 1.490 . S
C388 H378 0.930 . S
C388 C387 1.400 1_556 S
C388 C391 1.386 . S
H389 C405 0.930 . S
H390 C406 0.931 . S
C391 H379 0.929 . S
C391 C385 1.390 1_556 S
C391 C388 1.386 . S
C392 C387 1.490 . S
C392 C394 1.395 1_554 S
C392 C395 1.403 . S
H393 C399 0.930 . S
C394 H380 0.930 . S
C394 C392 1.395 1_556 S
C394 C397 1.403 1_655 S
C395 C392 1.403 . S
C395 C396 1.524 . S
C395 C399 1.400 1_655 S
C396 H381 0.960 . S
C396 H382 0.960 . S
C396 H383 0.960 . S
C396 C395 1.524 . S
C397 C394 1.403 1_455 S
C397 C398 1.392 . S
C397 C401 1.495 . S
C398 C397 1.392 . S
C398 C399 1.385 1_556 S
C398 C400 1.478 . S
C399 H393 0.930 . S
C399 C395 1.400 1_455 S
C399 C398 1.385 1_554 S
C400 C398 1.478 . S
C400 C402 1.381 1_556 S
C400 C406 1.383 . S
C401 C397 1.495 . S
C401 H407 0.959 . S
C401 H408 0.961 . S
C401 H409 0.960 . S
C402 C400 1.381 1_554 S
C402 C403 1.394 . S
C402 H410 0.930 . S
C403 C402 1.394 . S
C403 C404 1.383 1_554 S
C403 H411 0.929 . S
C404 C403 1.383 1_556 S
C404 C405 1.377 . S
C405 H389 0.930 . S
C405 C404 1.377 . S
C405 C406 1.379 . S
C406 H390 0.931 . S
C406 C400 1.383 . S
C406 C405 1.379 . S
H407 C401 0.959 . S
H408 C401 0.961 . S
H409 C401 0.960 . S
H410 C402 0.930 . S
H411 C403 0.929 . S
H412 C420 0.929 . S
H413 C422 0.930 . S
H414 C424 0.930 . S
H415 C427 0.929 . S
H416 C430 0.930 . S
H417 C432 0.960 . S
H418 C432 0.960 . S
H419 C432 0.960 . S
C420 H412 0.929 . S
C420 C421 1.377 . S
C420 C422 1.384 . S
C421 C420 1.377 . S
C421 C427 1.390 . S
C422 H413 0.930 . S
C422 C420 1.384 . S
C422 C423 1.372 . S
C423 C422 1.372 . S
C423 C424 1.400 . S
C423 C428 1.490 . S
C424 H414 0.930 . S
C424 C423 1.400 . S
C424 C427 1.386 . S
H425 C441 0.930 . S
H426 C442 0.931 . S
C427 H415 0.929 . S
C427 C421 1.390 . S
C427 C424 1.386 . S
C428 C423 1.490 . S
C428 C430 1.395 . S
C428 C431 1.403 . S
H429 C435 0.930 . S
C430 H416 0.930 . S
C430 C428 1.395 . S
C430 C433 1.403 1_455 S
C431 C428 1.403 . S
C431 C432 1.524 . S
C431 C435 1.400 1_455 S
C432 H417 0.960 . S
C432 H418 0.960 . S
C432 H419 0.960 . S
C432 C431 1.524 . S
C433 C430 1.403 1_655 S
C433 C434 1.392 . S
C433 C437 1.495 . S
C434 C433 1.392 . S
C434 C435 1.385 . S
C434 C436 1.478 . S
C435 H429 0.930 . S
C435 C431 1.400 1_655 S
C435 C434 1.385 . S
C436 C434 1.478 . S
C436 C438 1.381 . S
C436 C442 1.383 . S
C437 C433 1.495 . S
C437 H443 0.959 . S
C437 H444 0.961 . S
C437 H445 0.960 . S
C438 C436 1.381 . S
C438 C439 1.394 . S
C438 H446 0.930 . S
C439 C438 1.394 . S
C439 C440 1.383 . S
C439 H447 0.929 . S
C440 C439 1.383 . S
C440 C441 1.377 . S
C441 H425 0.930 . S
C441 C440 1.377 . S
C441 C442 1.379 . S
C442 H426 0.931 . S
C442 C436 1.383 . S
C442 C441 1.379 . S
H443 C437 0.959 . S
H444 C437 0.961 . S
H445 C437 0.960 . S
H446 C438 0.930 . S
H447 C439 0.929 . S
H448 C456 0.929 . S
H449 C458 0.930 . S
H450 C460 0.930 . S
H451 C463 0.929 . S
H452 C466 0.930 . S
H453 C468 0.960 . S
H454 C468 0.960 1_545 S
H455 C468 0.960 . S
C456 H448 0.929 . S
C456 C457 1.377 1_455 S
C456 C458 1.384 . S
C457 C456 1.377 1_655 S
C457 C463 1.390 1_545 S
C458 H449 0.930 . S
C458 C456 1.384 . S
C458 C459 1.372 1_455 S
C459 C458 1.372 1_655 S
C459 C460 1.400 1_545 S
C459 C464 1.489 1_655 S
C460 H450 0.930 . S
C460 C459 1.400 1_565 S
C460 C463 1.386 . S
H461 C477 0.933 . S
H462 C478 0.931 . S
C463 H451 0.929 . S
C463 C457 1.390 1_565 S
C463 C460 1.386 . S
C464 C459 1.489 1_455 S
C464 C466 1.400 . S
C464 C467 1.405 1_455 S
H465 C471 0.925 1_565 S
C466 H452 0.930 . S
C466 C464 1.400 . S
C466 C469 1.403 . S
C467 C464 1.405 1_655 S
C467 C468 1.516 1_545 S
C467 C471 1.400 . S
C468 H453 0.960 . S
C468 H454 0.960 1_565 S
C468 H455 0.960 . S
C468 C467 1.516 1_565 S
C469 C466 1.403 . S
C469 C470 1.392 . S
C469 C473 1.495 . S
C470 C469 1.392 . S
C470 C471 1.392 1_455 S
C470 C472 1.478 . S
C471 H465 0.925 1_545 S
C471 C467 1.400 . S
C471 C470 1.392 1_655 S
C472 C470 1.478 . S
C472 C474 1.381 . S
C472 C478 1.383 1_545 S
C473 C469 1.495 . S
C473 H479 0.959 . S
C473 H480 0.961 1_545 S
C473 H481 0.960 . S
C474 C472 1.381 . S
C474 C475 1.394 . S
C474 H482 0.930 . S
C475 C474 1.394 . S
C475 C476 1.383 . S
C475 H483 0.929 . S
C476 C475 1.383 . S
C476 C477 1.377 1_545 S
C477 H461 0.933 . S
C477 C476 1.377 1_565 S
C477 C478 1.379 . S
C478 H462 0.931 . S
C478 C472 1.383 1_565 S
C478 C477 1.379 . S
H479 C473 0.959 . S
H480 C473 0.961 1_565 S
H481 C473 0.960 . S
H482 C474 0.930 . S
H483 C475 0.929 . S
H484 C492 0.929 . S
H485 C494 0.930 . S
H486 C496 0.930 . S
H487 C499 0.929 . S
H488 C502 0.930 . S
H489 C504 0.960 . S
H490 C504 0.960 1_565 S
H491 C504 0.960 . S
C492 H484 0.929 . S
C492 C493 1.377 1_655 S
C492 C494 1.384 . S
C493 C492 1.377 1_455 S
C493 C499 1.390 1_565 S
C494 H485 0.930 . S
C494 C492 1.384 . S
C494 C495 1.372 1_655 S
C495 C494 1.372 1_455 S
C495 C496 1.400 1_565 S
C495 C500 1.491 1_455 S
C496 H486 0.930 . S
C496 C495 1.400 1_545 S
C496 C499 1.386 . S
H497 C513 0.930 1_455 S
H498 C514 0.931 . S
C499 H487 0.929 . S
C499 C493 1.390 1_545 S
C499 C496 1.386 . S
C500 C495 1.491 1_655 S
C500 C502 1.398 . S
C500 C503 1.399 1_655 S
H501 C507 0.932 . S
C502 H488 0.930 . S
C502 C500 1.398 . S
C502 C505 1.403 . S
C503 C500 1.399 1_455 S
C503 C504 1.523 1_565 S
C503 C507 1.400 1_565 S
C504 H489 0.960 . S
C504 H490 0.960 1_545 S
C504 H491 0.960 . S
C504 C503 1.523 1_545 S
C505 C502 1.403 . S
C505 C506 1.392 . S
C505 C509 1.495 . S
C506 C505 1.392 . S
C506 C507 1.384 1_665 S
C506 C508 1.478 . S
C507 H501 0.932 . S
C507 C503 1.400 1_545 S
C507 C506 1.384 1_445 S
C508 C506 1.478 . S
C508 C510 1.381 . S
C508 C514 1.383 1_565 S
C509 C505 1.495 . S
C509 H515 0.959 . S
C509 H516 0.961 1_565 S
C509 H517 0.960 . S
C510 C508 1.381 . S
C510 C511 1.394 . S
C510 H518 0.930 . S
C511 C510 1.394 . S
C511 C512 1.383 . S
C511 H519 0.929 . S
C512 C511 1.383 . S
C512 C513 1.377 1_565 S
C513 H497 0.930 1_655 S
C513 C512 1.377 1_545 S
C513 C514 1.379 . S
C514 H498 0.931 . S
C514 C508 1.383 1_545 S
C514 C513 1.379 . S
H515 C509 0.959 . S
H516 C509 0.961 1_545 S
H517 C509 0.960 . S
H518 C510 0.930 . S
H519 C511 0.929 . S
H520 C528 0.929 . S
H521 C530 0.930 . S
H522 C532 0.930 . S
H523 C535 0.929 . S
H524 C538 0.930 . S
H525 C540 0.960 . S
H526 C540 0.960 . S
H527 C540 0.960 . S
C528 H520 0.929 . S
C528 C529 1.377 . S
C528 C530 1.384 . S
C529 C528 1.377 . S
C529 C535 1.390 . S
C530 H521 0.930 . S
C530 C528 1.384 . S
C530 C531 1.372 . S
C531 C530 1.372 . S
C531 C532 1.400 . S
C531 C536 1.490 . S
C532 H522 0.930 . S
C532 C531 1.400 . S
C532 C535 1.386 . S
H533 C549 0.930 . S
H534 C550 0.931 . S
C535 H523 0.929 . S
C535 C529 1.390 . S
C535 C532 1.386 . S
C536 C531 1.490 . S
C536 C538 1.395 . S
C536 C539 1.403 . S
H537 C543 0.930 . S
C538 H524 0.930 . S
C538 C536 1.395 . S
C538 C541 1.403 . S
C539 C536 1.403 . S
C539 C540 1.524 . S
C539 C543 1.400 . S
C540 H525 0.960 . S
C540 H526 0.960 . S
C540 H527 0.960 . S
C540 C539 1.524 . S
C541 C538 1.403 . S
C541 C542 1.392 . S
C541 C545 1.495 . S
C542 C541 1.392 . S
C542 C543 1.385 . S
C542 C544 1.478 . S
C543 H537 0.930 . S
C543 C539 1.400 . S
C543 C542 1.385 . S
C544 C542 1.478 . S
C544 C546 1.381 . S
C544 C550 1.383 . S
C545 C541 1.495 . S
C545 H551 0.959 . S
C545 H552 0.961 . S
C545 H553 0.960 . S
C546 C544 1.381 . S
C546 C547 1.394 . S
C546 H554 0.930 . S
C547 C546 1.394 . S
C547 C548 1.383 . S
C547 H555 0.929 . S
C548 C547 1.383 . S
C548 C549 1.377 . S
C549 H533 0.930 . S
C549 C548 1.377 . S
C549 C550 1.379 . S
C550 H534 0.931 . S
C550 C544 1.383 . S
C550 C549 1.379 . S
H551 C545 0.959 . S
H552 C545 0.961 . S
H553 C545 0.960 . S
H554 C546 0.930 . S
H555 C547 0.929 . S
H556 C564 0.929 . S
H557 C566 0.930 . S
H558 C568 0.930 . S
H559 C571 0.929 . S
H560 C574 0.930 . S
H561 C576 0.960 . S
H562 C576 0.960 . S
H563 C576 0.960 . S
C564 H556 0.929 . S
C564 C565 1.377 . S
C564 C566 1.384 . S
C565 C564 1.377 . S
C565 C571 1.390 . S
C566 H557 0.930 . S
C566 C564 1.384 . S
C566 C567 1.372 . S
C567 C566 1.372 . S
C567 C568 1.400 . S
C567 C572 1.490 . S
C568 H558 0.930 . S
C568 C567 1.400 . S
C568 C571 1.386 . S
H569 C585 0.930 . S
H570 C586 0.931 . S
C571 H559 0.929 . S
C571 C565 1.390 . S
C571 C568 1.386 . S
C572 C567 1.490 . S
C572 C574 1.395 . S
C572 C575 1.403 . S
H573 C579 0.930 . S
C574 H560 0.930 . S
C574 C572 1.395 . S
C574 C577 1.403 . S
C575 C572 1.403 . S
C575 C576 1.524 . S
C575 C579 1.400 . S
C576 H561 0.960 . S
C576 H562 0.960 . S
C576 H563 0.960 . S
C576 C575 1.524 . S
C577 C574 1.403 . S
C577 C578 1.392 . S
C577 C581 1.495 . S
C578 C577 1.392 . S
C578 C579 1.385 . S
C578 C580 1.478 . S
C579 H573 0.930 . S
C579 C575 1.400 . S
C579 C578 1.385 . S
C580 C578 1.478 . S
C580 C582 1.381 . S
C580 C586 1.383 . S
C581 C577 1.495 . S
C581 H587 0.959 . S
C581 H588 0.961 . S
C581 H589 0.960 . S
C582 C580 1.381 . S
C582 C583 1.394 . S
C582 H590 0.930 . S
C583 C582 1.394 . S
C583 C584 1.383 . S
C583 H591 0.929 . S
C584 C583 1.383 . S
C584 C585 1.377 . S
C585 H569 0.930 . S
C585 C584 1.377 . S
C585 C586 1.379 . S
C586 H570 0.931 . S
C586 C580 1.383 . S
C586 C585 1.379 . S
H587 C581 0.959 . S
H588 C581 0.961 . S
H589 C581 0.960 . S
H590 C582 0.930 . S
H591 C583 0.929 . S
C169 C93 3.543 . S
C188 C24 3.541 . S
C205 C104 3.541 . S
C224 C13 3.532 . S
C241 C57 0.228 . S
C260 C146 0.170 . S
C277 C66 0.243 . S
C296 C137 0.172 . S
C313 C17 1.300 . S
C332 C26 1.298 . S
C349 C64 4.658 . S
C368 C53 4.651 . S
C385 C97 1.300 . S
C404 C106 1.298 . S
C421 C133 4.658 . S
C440 C144 4.652 . S
C457 C42 1.469 1_545 S
C476 C23 1.445 . S
C493 C2 1.473 1_455 S
C512 C63 1.473 1_665 S
C529 C122 1.468 . S
C548 C103 1.446 . S
C565 C143 1.467 . S
C584 C82 1.468 . S
