# Generated by pormake.
# Topology wkf, (6)-cn, num edge types: 1
# Building blocks:
#     Node 0, Type 0, BuildingBlock: KUMBUR_clean_sbu_1, # of connection points: 6
#     Node 1, Type 0, BuildingBlock: KUMBUR_clean_sbu_1, # of connection points: 6
#     Node 2, Type 0, BuildingBlock: KUMBUR_clean_sbu_1, # of connection points: 6
#     Node 3, Type 0, BuildingBlock: KUMBUR_clean_sbu_1, # of connection points: 6
#     Node 4, Type 0, BuildingBlock: KUMBUR_clean_sbu_1, # of connection points: 6
#     Node 5, Type 0, BuildingBlock: KUMBUR_clean_sbu_1, # of connection points: 6
#     Node 6, Type 0, BuildingBlock: KUMBUR_clean_sbu_1, # of connection points: 6
#     Node 7, Type 0, BuildingBlock: KUMBUR_clean_sbu_1, # of connection points: 6
#     Node 8, Type 0, BuildingBlock: KUMBUR_clean_sbu_1, # of connection points: 6
#     Node 9, Type 0, BuildingBlock: KUMBUR_clean_sbu_1, # of connection points: 6
#     Node 10, Type 0, BuildingBlock: KUMBUR_clean_sbu_1, # of connection points: 6
#     Node 11, Type 0, BuildingBlock: KUMBUR_clean_sbu_1, # of connection points: 6
#     Edge 12, Type (0, 0), BuildingBlock: CIFDUS_clean_linker_0, # of connection points: 2
#     Edge 13, Type (0, 0), BuildingBlock: CIFDUS_clean_linker_0, # of connection points: 2
#     Edge 14, Type (0, 0), BuildingBlock: CIFDUS_clean_linker_0, # of connection points: 2
#     Edge 15, Type (0, 0), BuildingBlock: CIFDUS_clean_linker_0, # of connection points: 2
#     Edge 16, Type (0, 0), BuildingBlock: CIFDUS_clean_linker_0, # of connection points: 2
#     Edge 17, Type (0, 0), BuildingBlock: CIFDUS_clean_linker_0, # of connection points: 2
#     Edge 18, Type (0, 0), BuildingBlock: CIFDUS_clean_linker_0, # of connection points: 2
#     Edge 19, Type (0, 0), BuildingBlock: CIFDUS_clean_linker_0, # of connection points: 2
#     Edge 20, Type (0, 0), BuildingBlock: CIFDUS_clean_linker_0, # of connection points: 2
#     Edge 21, Type (0, 0), BuildingBlock: CIFDUS_clean_linker_0, # of connection points: 2
#     Edge 22, Type (0, 0), BuildingBlock: CIFDUS_clean_linker_0, # of connection points: 2
#     Edge 23, Type (0, 0), BuildingBlock: CIFDUS_clean_linker_0, # of connection points: 2
#     Edge 24, Type (0, 0), BuildingBlock: CIFDUS_clean_linker_0, # of connection points: 2
#     Edge 25, Type (0, 0), BuildingBlock: CIFDUS_clean_linker_0, # of connection points: 2
#     Edge 26, Type (0, 0), BuildingBlock: CIFDUS_clean_linker_0, # of connection points: 2
#     Edge 27, Type (0, 0), BuildingBlock: CIFDUS_clean_linker_0, # of connection points: 2
#     Edge 28, Type (0, 0), BuildingBlock: CIFDUS_clean_linker_0, # of connection points: 2
#     Edge 29, Type (0, 0), BuildingBlock: CIFDUS_clean_linker_0, # of connection points: 2
#     Edge 30, Type (0, 0), BuildingBlock: CIFDUS_clean_linker_0, # of connection points: 2
#     Edge 31, Type (0, 0), BuildingBlock: CIFDUS_clean_linker_0, # of connection points: 2
#     Edge 32, Type (0, 0), BuildingBlock: CIFDUS_clean_linker_0, # of connection points: 2
#     Edge 33, Type (0, 0), BuildingBlock: CIFDUS_clean_linker_0, # of connection points: 2
#     Edge 34, Type (0, 0), BuildingBlock: CIFDUS_clean_linker_0, # of connection points: 2
#     Edge 35, Type (0, 0), BuildingBlock: CIFDUS_clean_linker_0, # of connection points: 2
#     Edge 36, Type (0, 0), BuildingBlock: CIFDUS_clean_linker_0, # of connection points: 2
#     Edge 37, Type (0, 0), BuildingBlock: CIFDUS_clean_linker_0, # of connection points: 2
#     Edge 38, Type (0, 0), BuildingBlock: CIFDUS_clean_linker_0, # of connection points: 2
#     Edge 39, Type (0, 0), BuildingBlock: CIFDUS_clean_linker_0, # of connection points: 2
#     Edge 40, Type (0, 0), BuildingBlock: CIFDUS_clean_linker_0, # of connection points: 2
#     Edge 41, Type (0, 0), BuildingBlock: CIFDUS_clean_linker_0, # of connection points: 2
#     Edge 42, Type (0, 0), BuildingBlock: CIFDUS_clean_linker_0, # of connection points: 2
#     Edge 43, Type (0, 0), BuildingBlock: CIFDUS_clean_linker_0, # of connection points: 2
#     Edge 44, Type (0, 0), BuildingBlock: CIFDUS_clean_linker_0, # of connection points: 2
#     Edge 45, Type (0, 0), BuildingBlock: CIFDUS_clean_linker_0, # of connection points: 2
#     Edge 46, Type (0, 0), BuildingBlock: CIFDUS_clean_linker_0, # of connection points: 2
#     Edge 47, Type (0, 0), BuildingBlock: CIFDUS_clean_linker_0, # of connection points: 2
# Relax obj value: 0.271
# Max RMSD: 0.287
# Mean RMSD: 0.278
data_MOF--net-wkf--node1-KUMBUR_clean_sbu_1--edge1-CIFDUS_clean_linker_0
_symmetry_space_group_name_H-M    P1
_symmetry_Int_Tables_number       1
_symmetry_cell_setting            triclinic
loop_
_symmetry_equiv_pos_as_xyz
'x, y, z'
_cell_length_a     26.735485
_cell_length_b     26.699357
_cell_length_c     79.604349
_cell_angle_alpha  90.161558
_cell_angle_beta   89.917159
_cell_angle_gamma 119.31015
loop_
_atom_site_label
_atom_site_type_symbol
_atom_site_fract_x
_atom_site_fract_y
_atom_site_fract_z
_atom_type_partial_charge
Tb0 Tb 0.4166 0.92769 0.34972 0.0
C1 C 0.66199 0.9851 0.36106 0.0
N2 N 0.63017 0.96825 0.37524 0.0
C3 C 0.69751 0.94395 0.3876 0.0
C4 C 0.71416 0.98416 0.35973 0.0
C5 C 0.6459 0.94532 0.38821 0.0
C6 C 0.73243 0.96454 0.37342 0.0
C7 C 0.66702 1.00856 0.33165 0.0
C8 C 0.63875 0.99708 0.34733 0.0
C9 C 0.72118 1.01227 0.33049 0.0
C10 C 0.74473 0.99997 0.34454 0.0
Tb11 Tb 0.55052 0.97963 0.37616 0.0
N12 N 0.58527 0.99046 0.34892 0.0
C13 C 0.63844 1.01217 0.31744 0.0
C14 C 0.55554 0.98804 0.33476 0.0
C15 C 0.58175 1.00018 0.31894 0.0
H16 H 0.61896 0.92807 0.39914 0.0
H17 H 0.5578 0.99898 0.30786 0.0
H18 H 0.47304 1.00627 0.3147 0.0
H19 H 0.21533 0.86271 0.38188 0.0
H20 H 0.51118 0.9749 0.33545 0.0
H21 H 0.65839 1.0206 0.30515 0.0
H22 H 0.3025 0.85761 0.37526 0.0
H23 H 0.71013 0.92667 0.39803 0.0
H24 H 0.74383 1.02179 0.31861 0.0
H25 H 0.78527 1.00032 0.34332 0.0
H26 H 0.44948 0.06466 0.2958 0.0
H27 H 0.7721 0.9629 0.37289 0.0
H28 H 0.19369 0.9302 0.36656 0.0
N29 N 0.40542 0.98875 0.33192 0.0
C30 C 0.35748 0.99306 0.335 0.0
C31 C 0.42363 0.04528 0.30686 0.0
C32 C 0.343 1.02681 0.32459 0.0
C33 C 0.4368 1.01203 0.31759 0.0
C34 C 0.37712 0.05351 0.31052 0.0
N35 N 0.33194 0.92359 0.35669 0.0
C36 C 0.2943 0.88787 0.36856 0.0
C37 C 0.27016 0.96375 0.35116 0.0
C38 C 0.32053 0.96068 0.34796 0.0
C39 C 0.23265 0.92883 0.3637 0.0
C40 C 0.24461 0.89052 0.37235 0.0
H41 H 0.36712 0.07944 0.3022 0.0
H42 H 0.28264 0.05765 0.32042 0.0
H43 H 0.21952 1.00331 0.34382 0.0
O44 O 0.33824 0.86684 0.33778 0.0
O45 O 0.40917 0.96223 0.37509 0.0
O46 O 0.50334 1.02362 0.38215 0.0
O47 O 0.42002 0.88928 0.32688 0.0
O48 O 0.39566 0.86691 0.37084 0.0
O49 O 0.47289 0.91028 0.3892 0.0
O50 O 0.62051 0.04386 0.38981 0.0
O51 O 0.52927 0.89178 0.36839 0.0
O52 O 0.46627 0.87659 0.34666 0.0
O53 O 0.55492 0.96786 0.4019 0.0
O54 O 0.55958 0.06118 0.3635 0.0
O55 O 0.4755 1.02674 0.34799 0.0
C56 C 0.44881 1.00587 0.38404 0.0
C57 C 0.3412 0.85863 0.30718 0.0
C58 C 0.26721 0.81449 0.2844 0.0
C59 C 0.30578 0.85741 0.2735 0.0
C60 C 0.37845 0.89732 0.29512 0.0
C61 C 0.3605 0.89777 0.27876 0.0
C62 C 0.28531 0.81565 0.30152 0.0
C63 C 0.41943 0.87018 0.3857 0.0
C64 C 0.36421 0.86015 0.32478 0.0
C65 C 0.29389 1.03127 0.32815 0.0
C66 C 0.25785 1.00021 0.34146 0.0
C67 C 0.5015 0.86211 0.35499 0.0
C68 C 0.58993 0.05391 0.41712 0.0
C69 C 0.62976 0.14194 0.43354 0.0
C70 C 0.57773 0.12182 0.44215 0.0
C71 C 0.53782 1.03361 0.42596 0.0
C72 C 0.63547 0.10796 0.42104 0.0
C73 C 0.53202 0.06743 0.43843 0.0
C74 C 0.52554 0.07147 0.35324 0.0
C75 C 0.59801 1.01909 0.40409 0.0
H76 H 0.29495 0.85808 0.26042 0.0
H77 H 0.42273 0.92666 0.29806 0.0
H78 H 0.39014 0.92867 0.26986 0.0
H79 H 0.25678 0.78299 0.31021 0.0
H80 H 0.57282 0.14767 0.45183 0.0
H81 H 0.5015 0.99182 0.42326 0.0
H82 H 0.67575 0.12374 0.41432 0.0
H83 H 0.49192 0.05153 0.44516 0.0
Tb84 Tb 0.53813 0.40329 0.51811 0.0
C85 C 0.71838 0.65438 0.52963 0.0
N86 N 0.70594 0.62134 0.54349 0.0
C87 C 0.79433 0.69171 0.5562 0.0
C88 C 0.76802 0.70883 0.52873 0.0
C89 C 0.74473 0.6379 0.55639 0.0
C90 C 0.80537 0.72798 0.54246 0.0
C91 C 0.69987 0.66014 0.50026 0.0
C92 C 0.68497 0.63023 0.51569 0.0
C93 C 0.74612 0.71648 0.4996 0.0
C94 C 0.78035 0.7408 0.51384 0.0
Tb95 Tb 0.61876 0.53859 0.54405 0.0
N96 N 0.6426 0.57471 0.51681 0.0
C97 C 0.67042 0.63127 0.48578 0.0
C98 C 0.61894 0.54509 0.50226 0.0
C99 C 0.6309 0.57295 0.48673 0.0
H100 H 0.73764 0.61005 0.56697 0.0
H101 H 0.61041 0.549 0.47544 0.0
H102 H 0.49402 0.43031 0.48095 0.0
H103 H 0.4149 0.22231 0.55946 0.0
H104 H 0.5917 0.49971 0.5022 0.0
H105 H 0.68048 0.65255 0.47369 0.0
H106 H 0.50286 0.29374 0.54511 0.0
H107 H 0.82414 0.70499 0.56661 0.0
H108 H 0.75762 0.74037 0.48794 0.0
H109 H 0.81772 0.78311 0.51297 0.0
H110 H 0.40187 0.41139 0.4685 0.0
H111 H 0.84409 0.76941 0.54226 0.0
H112 H 0.3217 0.21607 0.55283 0.0
N113 N 0.45685 0.39032 0.50436 0.0
C114 C 0.40701 0.35592 0.5127 0.0
C115 C 0.40286 0.39623 0.48102 0.0
C116 C 0.35361 0.34479 0.50607 0.0
C117 C 0.45489 0.40634 0.48806 0.0
C118 C 0.35233 0.36713 0.4903 0.0
N119 N 0.4602 0.32947 0.53098 0.0
C120 C 0.46247 0.2915 0.54212 0.0
C121 C 0.35743 0.28353 0.53418 0.0
C122 C 0.40872 0.32431 0.52641 0.0
C123 C 0.3602 0.24785 0.54657 0.0
C124 C 0.41271 0.25102 0.55029 0.0
H125 H 0.31209 0.359 0.48474 0.0
H126 H 0.26159 0.29978 0.50993 0.0
H127 H 0.26504 0.24697 0.53472 0.0
O128 O 0.52269 0.32038 0.51111 0.0
O129 O 0.5011 0.40336 0.54401 0.0
O130 O 0.52827 0.4973 0.54929 0.0
O131 O 0.54918 0.38495 0.49252 0.0
O132 O 0.58913 0.38871 0.53726 0.0
O133 O 0.60849 0.45938 0.55699 0.0
O134 O 0.62313 0.60599 0.55913 0.0
O135 O 0.68329 0.51491 0.53573 0.0
O136 O 0.63902 0.45355 0.51332 0.0
O137 O 0.63633 0.53883 0.56958 0.0
O138 O 0.54618 0.54727 0.53165 0.0
O139 O 0.50541 0.46883 0.51363 0.0
C140 C 0.49354 0.44316 0.55194 0.0
C141 C 0.48653 0.28565 0.48343 0.0
C142 C 0.45419 0.21565 0.45932 0.0
C143 C 0.39732 0.20008 0.46362 0.0
C144 C 0.42862 0.26324 0.48765 0.0
C145 C 0.38489 0.2228 0.47768 0.0
C146 C 0.49941 0.26058 0.46916 0.0
C147 C 0.60246 0.40861 0.55275 0.0
C148 C 0.53138 0.3305 0.49512 0.0
C149 C 0.30286 0.30778 0.51465 0.0
C150 C 0.30481 0.27745 0.52873 0.0
C151 C 0.68779 0.48943 0.52199 0.0
C152 C 0.58456 0.57036 0.58628 0.0
C153 C 0.53626 0.60683 0.60435 0.0
C154 C 0.50518 0.55298 0.61197 0.0
C155 C 0.5538 0.51644 0.59418 0.0
C156 C 0.57556 0.61512 0.59152 0.0
C157 C 0.51454 0.50803 0.60698 0.0
C158 C 0.5074 0.51699 0.51973 0.0
C159 C 0.62669 0.5811 0.57284 0.0
H160 H 0.36146 0.16943 0.45618 0.0
H161 H 0.41651 0.2757 0.49899 0.0
H162 H 0.34063 0.20806 0.48109 0.0
H163 H 0.54377 0.27457 0.46611 0.0
H164 H 0.47444 0.546 0.62182 0.0
H165 H 0.55962 0.48065 0.59044 0.0
H166 H 0.59917 0.65676 0.58551 0.0
H167 H 0.49102 0.46646 0.61294 0.0
Tb168 Tb 0.17206 0.51983 0.68613 0.0
C169 C 0.11134 0.707 0.69869 0.0
N170 N 0.13281 0.69468 0.71244 0.0
C171 C 0.15574 0.78618 0.72447 0.0
C172 C 0.10891 0.75848 0.69749 0.0
C173 C 0.15752 0.7347 0.72495 0.0
C174 C 0.13016 0.79761 0.71083 0.0
C175 C 0.08243 0.68541 0.66972 0.0
C176 C 0.09852 0.6711 0.68511 0.0
C177 C 0.07498 0.73389 0.6688 0.0
C178 C 0.08837 0.77056 0.6827 0.0
Tb179 Tb 0.12478 0.6052 0.71358 0.0
N180 N 0.10909 0.62642 0.68643 0.0
C181 C 0.07815 0.65293 0.65549 0.0
C182 C 0.11121 0.59931 0.67208 0.0
C183 C 0.09431 0.61078 0.65658 0.0
H184 H 0.17844 0.72711 0.73544 0.0
H185 H 0.09504 0.58804 0.6454 0.0
H186 H 0.10557 0.50338 0.64887 0.0
H187 H 0.20462 0.36194 0.72021 0.0
H188 H 0.1276 0.57014 0.67223 0.0
H189 H 0.06611 0.6625 0.64342 0.0
H190 H 0.23148 0.45975 0.71055 0.0
H191 H 0.17437 0.81712 0.73457 0.0
H192 H 0.06185 0.74504 0.65717 0.0
H193 H 0.0853 0.80941 0.6816 0.0
H194 H 1.03099 0.42289 0.63245 0.0
H195 H 0.12935 0.83776 0.71038 0.0
H196 H 0.11624 0.27846 0.70956 0.0
N197 N 0.10229 0.45054 0.66937 0.0
C198 C 0.08262 0.39552 0.67482 0.0
C199 C 1.04458 0.4148 0.64446 0.0
C200 C 1.03943 0.34853 0.66592 0.0
C201 C 0.08676 0.4603 0.65379 0.0
C202 C 1.01952 0.35895 0.6508 0.0
N203 N 0.1576 0.43196 0.69498 0.0
C204 C 0.19291 0.42348 0.70573 0.0
C205 C 0.0941 0.32965 0.69334 0.0
C206 C 0.11032 0.38621 0.68832 0.0
C207 C 0.12747 0.32126 0.70535 0.0
C208 C 0.17766 0.36824 0.71131 0.0
H209 H 0.98664 0.32389 0.64355 0.0
H210 H 0.98619 0.25592 0.66532 0.0
H211 H 1.03364 0.23942 0.68941 0.0
O212 O 0.23722 0.50047 0.679 0.0
O213 O 0.14166 0.48314 0.71219 0.0
O214 O 0.07972 0.51517 0.72004 0.0
O215 O 0.20529 0.53549 0.66094 0.0
O216 O 0.23522 0.559 0.70682 0.0
O217 O 0.196 0.59675 0.72569 0.0
O218 O 0.06376 0.61447 0.72829 0.0
O219 O 0.21216 0.66745 0.7048 0.0
O220 O 0.22368 0.62128 0.68171 0.0
O221 O 0.14173 0.62396 0.73911 0.0
O222 O 1.04175 0.53233 0.70269 0.0
O223 O 0.07201 0.48479 0.68443 0.0
C224 C 0.09877 0.47898 0.72166 0.0
C225 C 0.2405 0.4718 0.65045 0.0
C226 C 0.28287 0.44331 0.62639 0.0
C227 C 0.23931 0.38627 0.62883 0.0
C228 C 0.20126 0.41339 0.65251 0.0
C229 C 0.19968 0.37166 0.64173 0.0
C230 C 0.28235 0.48683 0.63718 0.0
C231 C 0.23485 0.58137 0.7217 0.0
C232 C 0.2395 0.51417 0.66326 0.0
C233 C 1.02017 0.29249 0.6718 0.0
C234 C 1.04726 0.2831 0.68552 0.0
C235 C 0.2399 0.67067 0.69071 0.0
C236 C 0.05904 0.57852 0.75591 0.0
C237 C 0.97649 0.53861 0.77451 0.0
C238 C 0.99536 0.50353 0.78205 0.0
C239 C 0.07834 0.54374 0.76372 0.0
C240 C 1.0084 0.57603 0.76152 0.0
C241 C 1.04665 0.50667 0.77676 0.0
C242 C 1.0286 0.49001 0.69142 0.0
C243 C 0.09139 0.6181 0.74213 0.0
H244 H 0.23548 0.35204 0.62068 0.0
H245 H 0.17221 0.39908 0.66279 0.0
H246 H 0.16772 0.32711 0.6436 0.0
H247 H 0.31485 0.53131 0.63559 0.0
H248 H 0.97071 0.47418 0.79201 0.0
H249 H 0.11754 0.5447 0.75973 0.0
H250 H 0.99336 0.60289 0.75567 0.0
H251 H 0.06153 0.47982 0.78262 0.0
Tb252 Tb 0.70283 0.15641 0.84955 0.0
C253 C 0.46437 0.12289 0.86748 0.0
N254 N 0.5065 0.14143 0.87916 0.0
C255 C 0.46869 0.19638 0.89271 0.0
C256 C 0.42179 0.13959 0.86814 0.0
C257 C 0.50996 0.17878 0.89152 0.0
C258 C 0.42397 0.17616 0.88109 0.0
C259 C 0.42526 0.0735 0.84123 0.0
C260 C 0.4666 0.09063 0.8542 0.0
C261 C 0.38123 0.08772 0.8422 0.0
C262 C 0.3796 0.12086 0.8556 0.0
Tb263 Tb 0.56781 0.10484 0.87752 0.0
N264 N 0.51107 0.07923 0.85346 0.0
C265 C 0.43022 0.04407 0.8274 0.0
C266 C 0.51714 0.05322 0.83936 0.0
C267 C 0.47679 1.03457 0.82638 0.0
H268 H 0.54499 0.19565 0.90041 0.0
H269 H 0.4825 1.01397 0.81538 0.0
H270 H 0.59919 0.17326 0.82829 0.0
H271 H 0.79225 1.01795 0.83717 0.0
H272 H 0.55387 0.04858 0.83727 0.0
H273 H 0.39951 1.03029 0.81719 0.0
H274 H 0.76794 0.07931 0.85493 0.0
H275 H 0.47156 0.22574 0.90255 0.0
H276 H 0.34911 0.07459 0.8324 0.0
H277 H 0.34633 0.13289 0.85595 0.0
H278 H 0.55977 0.15311 0.80015 0.0
H279 H 0.39226 0.19019 0.88196 0.0
H280 H 0.76008 0.99912 0.80757 0.0
N281 N 0.64942 0.1314 0.82524 0.0
C282 C 0.66437 0.10141 0.81424 0.0
C283 C 0.58935 0.13851 0.80394 0.0
C284 C 0.64158 0.08836 0.79782 0.0
C285 C 0.61284 0.15052 0.8201 0.0
C286 C 0.60379 0.10745 0.79275 0.0
N287 N 0.72098 0.09292 0.83564 0.0
C288 C 0.75265 0.07004 0.84213 0.0
C289 C 0.71563 0.0485 0.8089 0.0
C290 C 0.70181 0.08226 0.81955 0.0
C291 C 0.74896 1.02564 0.81532 0.0
C292 C 0.76687 1.03581 0.83207 0.0
H293 H 0.58533 0.09821 0.78026 0.0
H294 H 0.63993 0.04638 0.77431 0.0
H295 H 0.70406 1.0109 0.78409 0.0
O296 O 0.79349 0.19392 0.8495 0.0
O297 O 0.7141 0.11764 0.8735 0.0
O298 O 0.6233 0.07181 0.8857 0.0
O299 O 0.75318 0.21723 0.83067 0.0
O300 O 0.72483 0.20781 0.87294 0.0
O301 O 0.64429 0.1764 0.89008 0.0
O302 O 0.495 1.03831 0.8897 0.0
O303 O 0.58781 0.18887 0.86585 0.0
O304 O 0.66879 0.22061 0.84915 0.0
O305 O 0.55724 0.11181 0.90322 0.0
O306 O 0.56477 1.02388 0.86651 0.0
O307 O 0.64601 0.0576 0.84961 0.0
C308 C 0.67632 0.08191 0.88474 0.0
C309 C 0.84393 0.22381 0.82285 0.0
C310 C 0.90935 0.26553 0.79796 0.0
C311 C 0.92438 0.22215 0.79995 0.0
C312 C 0.86501 0.18526 0.82473 0.0
C313 C 0.90321 0.18341 0.81321 0.0
C314 C 0.86723 0.26495 0.80942 0.0
C315 C 0.69976 0.2104 0.88705 0.0
C316 C 0.8018 0.22336 0.83579 0.0
C317 C 0.65696 0.05652 0.78696 0.0
C318 C 0.69374 1.03655 0.79249 0.0
C319 C 0.62604 0.22774 0.85559 0.0
C320 C 0.51846 1.02449 0.91753 0.0
C321 C 0.47342 0.93965 0.93517 0.0
C322 C 0.52585 0.95584 0.9431 0.0
C323 C 0.57115 1.04068 0.92563 0.0
C324 C 0.46976 0.97396 0.92246 0.0
C325 C 0.57454 1.00662 0.93839 0.0
C326 C 0.59872 1.01327 0.85633 0.0
C327 C 0.51343 0.06092 0.90445 0.0
H328 H 0.95302 0.21768 0.79123 0.0
H329 H 0.85283 0.15661 0.83532 0.0
H330 H 0.91722 0.15188 0.81471 0.0
H331 H 0.85379 0.297 0.80825 0.0
H332 H 0.52893 0.92954 0.95294 0.0
H333 H 0.60979 0.07966 0.9222 0.0
H334 H 0.42886 0.96133 0.91645 0.0
H335 H 0.61508 1.01948 0.94458 0.0
Tb336 Tb 0.58676 0.68997 0.01982 0.0
C337 C 0.40949 0.43575 0.0183 0.0
N338 N 0.41383 0.45823 0.03381 0.0
C339 C 0.32396 0.37619 0.04147 0.0
C340 C 0.36364 0.38125 1.01393 0.0
C341 C 0.37004 0.43059 0.0451 0.0
C342 C 0.32144 0.35074 0.02595 0.0
C343 C 0.4407 0.45198 0.98941 0.0
C344 C 0.44727 0.47058 1.0063 0.0
C345 C 0.39836 0.39592 0.98521 0.0
C346 C 0.35971 0.36054 0.99748 0.0
Tb347 Tb 0.49614 0.54295 0.03963 0.0
N348 N 0.48573 0.52513 1.01087 0.0
C349 C 0.47431 0.49135 0.97712 0.0
C350 C 0.51376 0.56469 0.99855 0.0
C351 C 0.50988 0.54842 0.98168 0.0
H352 H 0.37015 0.44983 0.05703 0.0
H353 H 0.5337 0.5802 0.97217 0.0
H354 H 0.62874 0.66958 0.98158 0.0
H355 H 0.71311 0.85801 0.06486 0.0
H356 H 0.53902 0.60908 1.00146 0.0
H357 H 0.47059 0.47896 0.96401 0.0
H358 H 0.62464 0.79286 0.04957 0.0
H359 H 0.29024 0.35412 0.05063 0.0
H360 H 0.39326 0.38064 0.97236 0.0
H361 H 0.32538 0.31845 0.99394 0.0
H362 H 0.72015 0.69058 0.96806 0.0
H363 H 0.28541 0.30886 0.02309 0.0
H364 H 0.80516 0.86364 0.05694 0.0
N365 N 0.66702 0.70372 1.00541 0.0
C366 C 0.71722 0.73579 1.01385 0.0
C367 C 0.71977 0.70272 0.98103 0.0
C368 C 0.77014 0.74743 1.0067 0.0
C369 C 0.66812 0.6912 0.9887 0.0
C370 C 0.77062 0.72879 0.99028 0.0
N371 N 0.66556 0.75946 0.0336 0.0
C372 C 0.66442 0.79469 0.046 0.0
C373 C 0.76806 0.80179 0.03671 0.0
C374 C 0.71632 0.76409 0.0285 0.0
C375 C 0.76633 0.83439 0.05028 0.0
C376 C 0.7145 0.8316 0.05473 0.0
H377 H 0.81047 0.73734 0.9843 0.0
H378 H 0.86215 0.78952 1.01044 0.0
H379 H 0.8602 0.83619 0.0369 0.0
O380 O 0.60766 0.77552 0.01427 0.0
O381 O 0.61597 0.68118 0.04591 0.0
O382 O 0.58428 0.58479 0.048 0.0
O383 O 0.57336 0.71257 0.995 0.0
O384 O 0.53931 0.70272 0.04059 0.0
O385 O 0.49759 0.61534 0.05455 0.0
O386 O 0.49217 0.4721 0.05275 0.0
O387 O 0.43146 0.56536 0.03083 0.0
O388 O 0.48679 0.64718 0.0149 0.0
O389 O 0.46413 0.52759 0.06409 0.0
O390 O 0.57256 0.53889 0.02849 0.0
O391 O 0.62088 0.62562 0.01431 0.0
C392 C 0.61788 0.63719 0.05303 0.0
C393 C 0.64047 0.81105 0.98635 0.0
C394 C 0.6724 0.8781 0.96153 0.0
C395 C 0.72924 0.89303 0.96569 0.0
C396 C 0.69849 0.83309 0.99038 0.0
C397 C 0.74193 0.87174 0.98 0.0
C398 C 0.62737 0.83487 0.97183 0.0
C399 C 0.51218 0.67069 0.05373 0.0
C400 C 0.59583 0.76734 0.99831 0.0
C401 C 0.82124 0.78128 0.01556 0.0
C402 C 0.82014 0.80809 0.0306 0.0
C403 C 0.4345 0.60456 0.02018 0.0
C404 C 0.51608 0.49851 0.08153 0.0
C405 C 0.56012 0.46333 0.10159 0.0
C406 C 0.57981 0.51376 0.11105 0.0
C407 C 0.53823 0.55005 0.09082 0.0
C408 C 0.52809 0.45568 0.08689 0.0
C409 C 0.56928 0.55722 0.10555 0.0
C410 C 0.61597 0.5744 0.01856 0.0
C411 C 0.47892 0.48854 0.06673 0.0
H412 H 0.76501 0.92196 0.95795 0.0
H413 H 0.71093 0.82135 1.00184 0.0
H414 H 0.78624 0.88607 0.98323 0.0
H415 H 0.58297 0.82109 0.96894 0.0
H416 H 0.60323 0.51957 0.12262 0.0
H417 H 0.53147 0.58485 0.08681 0.0
H418 H 0.51127 0.41573 0.07991 0.0
H419 H 0.58509 0.59654 0.11274 0.0
Tb420 Tb 0.93765 0.5643 0.18555 0.0
C421 C 0.99059 0.37398 0.18458 0.0
N422 N 0.97587 0.38351 0.20003 0.0
C423 C 0.94814 0.28641 0.20791 0.0
C424 C 0.98646 0.32076 0.18027 0.0
C425 C 0.95267 0.33978 0.21151 0.0
C426 C 0.96614 0.27717 0.19232 0.0
C427 C 1.01243 0.40487 0.15577 0.0
C428 C 1.00366 0.41556 0.17261 0.0
C429 C 1.01307 0.35401 0.15162 0.0
C430 C 1.00001 0.31189 0.16388 0.0
Tb431 Tb 0.99529 0.47567 0.20577 0.0
N432 N 1.00008 0.46289 0.17708 0.0
C433 C 1.01605 0.4435 0.14342 0.0
C434 C 0.99631 0.49606 0.16471 0.0
C435 C 1.00593 0.48823 0.14785 0.0
H436 H 0.93735 0.34554 0.22352 0.0
H437 H 1.00384 0.51558 0.1382 0.0
H438 H 1.00685 0.60063 0.14839 0.0
H439 H 0.87777 0.68486 0.22837 0.0
H440 H 0.98312 0.52653 0.16757 0.0
H441 H 1.02237 0.4368 0.13034 0.0
H442 H 0.87012 0.59662 0.21637 0.0
H443 H 0.93045 0.25234 0.21713 0.0
H444 H 1.02059 0.34554 0.13881 0.0
H445 H 0.99793 0.27166 0.16038 0.0
H446 H 0.06243 0.68976 0.13228 0.0
H447 H 0.96207 0.23561 0.18949 0.0
H448 H 0.94445 0.77911 0.21599 0.0
N449 N 0.99551 0.64273 0.16968 0.0
C450 C 1.00086 0.69288 0.17586 0.0
C451 C 1.04607 0.69131 0.1446 0.0
C452 C 1.03303 0.74496 0.16707 0.0
C453 C 1.01482 0.64087 0.15383 0.0
C454 C 1.05632 0.74373 0.15141 0.0
N455 N 0.93436 0.64022 0.19767 0.0
C456 C 0.90016 0.63724 0.21091 0.0
C457 C 0.97487 0.74317 0.19671 0.0
C458 C 0.97056 0.69178 0.19037 0.0
C459 C 0.94202 0.74049 0.21074 0.0
C460 C 0.90419 0.68732 0.21775 0.0
H461 H 0.08083 0.78277 0.14425 0.0
H462 H 0.06435 0.83671 0.16734 0.0
H463 H 1.01453 0.83531 0.19341 0.0
O464 O 0.87644 0.58781 0.17785 0.0
O465 O 0.98402 0.60612 0.20957 0.0
O466 O 1.03492 0.56027 0.21745 0.0
O467 O 0.90431 0.54471 0.16054 0.0
O468 O 0.87934 0.51661 0.20656 0.0
O469 O 0.93351 0.48704 0.22211 0.0
O470 O 0.06291 0.4624 0.21414 0.0
O471 O 0.9047 0.4135 0.19967 0.0
O472 O 0.88494 0.46506 0.18011 0.0
O473 O 0.99162 0.44563 0.23013 0.0
O474 O 0.0748 0.55161 0.19443 0.0
O475 O 1.03701 0.60545 0.18267 0.0
C476 C 1.02277 0.60205 0.21911 0.0
C477 C 0.81781 0.54875 0.15335 0.0
C478 C 0.7571 0.55582 0.13071 0.0
C479 C 0.70964 0.5085 0.13799 0.0
C480 C 0.76876 0.50232 0.16015 0.0
C481 C 0.71535 0.4824 0.15251 0.0
C482 C 0.81182 0.57573 0.13849 0.0
C483 C 0.89075 0.49877 0.22081 0.0
C484 C 0.87411 0.57098 0.16235 0.0
C485 C 1.03897 0.79626 0.17378 0.0
C486 C 1.01042 0.79543 0.18862 0.0
C487 C 0.87212 0.41401 0.18731 0.0
C488 C 0.07971 0.47839 0.24372 0.0
C489 C 0.17547 0.53193 0.25589 0.0
C490 C 0.15057 0.52304 0.27198 0.0
C491 C 1.0559 0.47033 0.25991 0.0
C492 C 0.13936 0.51066 0.24177 0.0
C493 C 0.09118 0.49328 0.2739 0.0
C494 C 0.08304 0.59928 0.18644 0.0
C495 C 1.04186 0.4496 0.22928 0.0
H496 H 0.66778 0.4907 0.1322 0.0
H497 H 0.77177 0.48157 0.17149 0.0
H498 H 0.67796 0.44608 0.15784 0.0
H499 H 0.84936 0.6115 0.133 0.0
H500 H 0.1768 0.53739 0.28319 0.0
H501 H 1.00996 0.44544 0.26179 0.0
H502 H 0.15767 0.51761 0.22928 0.0
H503 H 0.07249 0.48642 0.28632 0.0
Tb504 Tb 0.17172 0.6779 0.50517 0.0
C505 C 0.18092 0.46796 0.48914 0.0
N506 N 0.1852 0.5011 0.47578 0.0
C507 C 0.2466 0.47231 0.46168 0.0
C508 C 0.21002 0.43584 0.48935 0.0
C509 C 0.21751 0.50381 0.4621 0.0
C510 C 0.24292 0.43822 0.47538 0.0
C511 C 0.14341 0.43331 0.5169 0.0
C512 C 0.1485 0.46756 0.50277 0.0
C513 C 0.17231 0.4013 0.51719 0.0
C514 C 0.20573 0.40275 0.50348 0.0
Tb515 Tb 0.13377 0.54843 0.47694 0.0
N516 N 0.12226 0.5005 0.50223 0.0
C517 C 0.10901 0.43164 0.53029 0.0
C518 C 0.08879 0.49853 0.51552 0.0
C519 C 0.08114 0.46387 0.5295 0.0
H520 H 0.22194 0.53127 0.45161 0.0
H521 H 1.05452 0.46309 0.53986 0.0
H522 H 0.18369 0.58699 0.53337 0.0
H523 H 1.04588 0.78556 0.50635 0.0
H524 H 0.06898 0.52456 0.5162 0.0
H525 H 0.10366 0.40563 0.54129 0.0
H526 H 0.11196 0.75615 0.49385 0.0
H527 H 0.27238 0.47489 0.45088 0.0
H528 H 0.16899 0.37518 0.52798 0.0
H529 H 0.22794 0.37801 0.50391 0.0
H530 H 0.14827 0.5517 0.56132 0.0
H531 H 0.26596 0.41431 0.47509 0.0
H532 H 1.00691 0.75291 0.53487 0.0
N533 N 0.13609 0.63188 0.53041 0.0
C534 C 0.10166 0.64887 0.53852 0.0
C535 C 0.1344 0.57862 0.55498 0.0
C536 C 0.08022 0.62885 0.5548 0.0
C537 C 0.15441 0.59908 0.53882 0.0
C538 C 0.09665 0.5929 0.56292 0.0
N539 N 0.1086 0.70525 0.51483 0.0
C540 C 0.09402 0.74024 0.50612 0.0
C541 C 1.05062 0.70347 0.53824 0.0
C542 C 0.08784 0.68691 0.53055 0.0
C543 C 1.03552 0.73938 0.5294 0.0
C544 C 1.05715 0.75763 0.51325 0.0
H545 H 0.08124 0.57678 0.57543 0.0
H546 H 1.02686 0.63074 0.57505 0.0
H547 H 1.00021 0.69521 0.56044 0.0
O548 O 0.21662 0.76903 0.50549 0.0
O549 O 0.13354 0.68621 0.48053 0.0
O550 O 0.09239 0.5957 0.46812 0.0
O551 O 0.22848 0.72392 0.52546 0.0
O552 O 0.22817 0.7041 0.48236 0.0
O553 O 0.19634 0.62763 0.46348 0.0
O554 O 0.07738 0.46569 0.46756 0.0
O555 O 0.22583 0.58876 0.48457 0.0
O556 O 0.22566 0.63265 0.50918 0.0
O557 O 0.13172 0.53386 0.45106 0.0
O558 O 1.04988 0.53871 0.48801 0.0
O559 O 0.073 0.62047 0.5039 0.0
C560 C 0.09928 0.64773 0.46909 0.0
C561 C 0.24377 0.81945 0.53234 0.0
C562 C 0.28733 0.88714 0.55698 0.0
C563 C 0.2542 0.91266 0.55213 0.0
C564 C 0.21219 0.84727 0.52866 0.0
C565 C 0.21705 0.89261 0.53845 0.0
C566 C 0.28161 0.83974 0.5467 0.0
C567 C 0.22999 0.68254 0.46738 0.0
C568 C 0.24113 0.77437 0.52 0.0
C569 C 1.04377 0.64593 0.56259 0.0
C570 C 1.02881 0.6829 0.55431 0.0
C571 C 0.24829 0.60734 0.49954 0.0
C572 C 1.04092 0.46843 0.44063 0.0
C573 C 0.94107 0.40634 0.43304 0.0
C574 C 0.94839 0.44041 0.41886 0.0
C575 C 1.04789 0.50207 0.4263 0.0
C576 C 0.98739 0.42074 0.44387 0.0
C577 C 1.00172 0.4881 0.41553 0.0
C578 C 1.033 0.57032 0.49726 0.0
C579 C 0.08932 0.48201 0.45201 0.0
H580 H 0.2578 0.95006 0.55848 0.0
H581 H 0.18482 0.83554 0.51775 0.0
H582 H 0.19278 0.91377 0.53508 0.0
H583 H 0.30671 0.81913 0.5496 0.0
H584 H 0.91327 0.42961 0.41022 0.0
H585 H 0.08892 0.53909 0.42338 0.0
H586 H 0.98168 0.39447 0.45484 0.0
H587 H 1.00732 0.51418 0.40455 0.0
Tb588 Tb 0.53773 0.15617 0.67048 0.0
C589 C 0.74786 0.1442 0.65878 0.0
N590 N 0.72379 0.15125 0.64469 0.0
C591 C 0.81644 0.20041 0.63151 0.0
C592 C 0.80747 0.16471 0.65981 0.0
C593 C 0.7572 0.17964 0.63116 0.0
C594 C 0.84169 0.19257 0.64587 0.0
C595 C 0.73704 0.11566 0.6879 0.0
C596 C 0.71299 0.11989 0.67253 0.0
C597 C 0.7959 0.13354 0.68884 0.0
C598 C 0.83111 0.15817 0.67482 0.0
Tb599 Tb 0.62613 0.11136 0.6444 0.0
N600 N 0.65665 0.10522 0.67122 0.0
C601 C 0.70183 0.09613 0.70206 0.0
C602 C 0.62417 0.09123 0.68543 0.0
C603 C 0.64537 0.08499 0.70088 0.0
H604 H 0.73836 0.18707 0.62011 0.0
H605 H 0.61856 0.07305 0.71197 0.0
H606 H 0.53689 0.0937 0.70747 0.0
H607 H 0.37029 0.17739 0.63848 0.0
H608 H 0.58329 0.08803 0.68522 0.0
H609 H 0.71853 0.0923 0.71409 0.0
H610 H 0.47042 0.2012 0.64404 0.0
H611 H 0.84262 0.22285 0.62077 0.0
H612 H 0.81491 0.13022 0.70051 0.0
H613 H 0.87672 0.17332 0.67584 0.0
H614 H 0.4636 1.02536 0.7269 0.0
H615 H 0.88766 0.20919 0.64619 0.0
H616 H 0.29136 0.10313 0.6554 0.0
N617 N 0.47609 0.09297 0.69 0.0
C618 C 0.4198 0.07715 0.68729 0.0
C619 C 0.45074 1.03892 0.71569 0.0
C620 C 0.37668 1.03914 0.69835 0.0
C621 C 0.49217 0.07688 0.70448 0.0
C622 C 0.39275 1.01929 0.71249 0.0
N623 N 0.44803 0.13955 0.66366 0.0
C624 C 0.43617 0.16847 0.65146 0.0
C625 C 0.34774 0.08576 0.67084 0.0
C626 C 0.40542 0.10023 0.67359 0.0
C627 C 0.33514 0.1131 0.65785 0.0
C628 C 0.37958 0.15519 0.64829 0.0
H629 H 0.36082 0.99001 0.72125 0.0
H630 H 0.28538 0.99324 0.70343 0.0
H631 H 0.26012 1.03415 0.67944 0.0
O632 O 0.5275 0.22893 0.67453 0.0
O633 O 0.49484 0.11469 0.64561 0.0
O634 O 0.53831 0.06402 0.63566 0.0
O635 O 0.5458 0.19124 0.69536 0.0
O636 O 0.57251 0.21446 0.64859 0.0
O637 O 0.61063 0.17465 0.63001 0.0
O638 O 0.65474 0.05569 0.63535 0.0
O639 O 0.67606 0.20381 0.65078 0.0
O640 O 0.63758 0.20229 0.67632 0.0
O641 O 0.63824 0.10851 0.6185 0.0
O642 O 0.55516 1.02882 0.65658 0.0
O643 O 0.49809 0.05638 0.67165 0.0
C644 C 0.49645 0.07605 0.63518 0.0
C645 C 0.48815 0.23855 0.70098 0.0
C646 C 0.45785 0.27891 0.72524 0.0
C647 C 0.4066 0.26315 0.7164 0.0
C648 C 0.43592 0.22506 0.69323 0.0
C649 C 0.39578 0.23627 0.70085 0.0
C650 C 0.49911 0.26615 0.71723 0.0
C651 C 0.59291 0.21217 0.63357 0.0
C652 C 0.53202 0.22976 0.69083 0.0
C653 C 0.31907 1.02288 0.69516 0.0
C654 C 0.30467 0.04609 0.68147 0.0
C655 C 0.68382 0.22682 0.66587 0.0
C656 C 0.61896 1.01843 0.60825 0.0
C657 C 0.58285 0.91782 0.60163 0.0
C658 C 0.56229 0.92531 0.58616 0.0
C659 C 0.59921 1.02596 0.59258 0.0
C660 C 0.61063 0.96428 0.61262 0.0
C661 C 0.57083 0.97944 0.58164 0.0
C662 C 0.50767 1.01419 0.66589 0.0
C663 C 0.65027 0.06717 0.61972 0.0
H664 H 0.37481 0.27365 0.72098 0.0
H665 H 0.42632 0.20799 0.68076 0.0
H666 H 0.35638 0.2258 0.6943 0.0
H667 H 0.53961 0.27833 0.72333 0.0
H668 H 0.54115 0.88982 0.57742 0.0
H669 H 0.60577 0.06767 0.58878 0.0
H670 H 0.62645 0.95812 0.62454 0.0
H671 H 0.55559 0.98539 0.56962 0.0
Tb672 Tb 0.41965 0.51643 0.83921 0.0
C673 C 0.64915 0.71674 0.82994 0.0
N674 N 0.61879 0.69711 0.81554 0.0
C675 C 0.67083 0.79128 0.80343 0.0
C676 C 0.69255 0.77453 0.8316 0.0
C677 C 0.62809 0.73367 0.80243 0.0
C678 C 0.7037 0.81169 0.81802 0.0
C679 C 0.65998 0.70014 0.85918 0.0
C680 C 0.63307 0.6799 0.84344 0.0
C681 C 0.70567 0.75658 0.86069 0.0
C682 C 0.72185 0.79379 0.84691 0.0
Tb683 Tb 0.55452 0.60112 0.81415 0.0
N684 N 0.58706 0.62643 0.84157 0.0
C685 C 0.63803 0.66431 0.87313 0.0
C686 C 0.56236 0.59449 0.8556 0.0
C687 C 0.58799 0.61182 0.8714 0.0
H688 H 0.60236 0.71863 0.79118 0.0
H689 H 0.56805 0.58541 0.88233 0.0
H690 H 0.47354 0.48772 0.87394 0.0
H691 H 0.22082 0.38984 0.80537 0.0
H692 H 0.52122 0.55768 0.85501 0.0
H693 H 0.65723 0.67823 0.88544 0.0
H694 H 0.30754 0.47915 0.81319 0.0
H695 H 0.67816 0.81994 0.79299 0.0
H696 H 0.72713 0.77257 0.87263 0.0
H697 H 0.75571 0.83785 0.8484 0.0
H698 H 0.44906 0.40292 0.89148 0.0
H699 H 0.73645 0.85645 0.81882 0.0
H700 H 0.19776 0.29881 0.81954 0.0
N701 N 0.4069 0.4419 0.85613 0.0
C702 C 0.35908 0.39121 0.85238 0.0
C703 C 0.42378 0.39892 0.88044 0.0
C704 C 0.34405 0.34152 0.86203 0.0
C705 C 0.43744 0.44696 0.87048 0.0
C706 C 0.37752 0.34578 0.87604 0.0
N707 N 0.33512 0.4392 0.83135 0.0
C708 C 0.29869 0.4399 0.81941 0.0
C709 C 0.27293 0.33768 0.83551 0.0
C710 C 0.32299 0.38956 0.83943 0.0
C711 C 0.23646 0.33787 0.82294 0.0
C712 C 0.24923 0.38922 0.81494 0.0
H713 H 0.36717 0.30861 0.88377 0.0
H714 H 0.28351 0.25089 0.8649 0.0
H715 H 0.22187 0.24733 0.84156 0.0
O716 O 0.34089 0.49918 0.85121 0.0
O717 O 0.41536 0.47386 0.8141 0.0
O718 O 0.51002 0.51267 0.80584 0.0
O719 O 0.42268 0.55471 0.86256 0.0
O720 O 0.40082 0.55965 0.81837 0.0
O721 O 0.47697 0.58906 0.79967 0.0
O722 O 0.63559 0.61944 0.8048 0.0
O723 O 0.52108 0.66018 0.82056 0.0
O724 O 0.47277 0.61488 0.84442 0.0
O725 O 0.5703 0.61563 0.78838 0.0
O726 O 0.56463 0.52893 0.82665 0.0
O727 O 0.47763 0.47521 0.84028 0.0
C728 C 0.45621 0.47309 0.80456 0.0
C729 C 0.34385 0.5049 0.88203 0.0
C730 C 0.26905 0.47082 0.90476 0.0
C731 C 0.30957 0.46904 0.91565 0.0
C732 C 0.38236 0.50477 0.89403 0.0
C733 C 0.3651 0.48578 0.91035 0.0
C734 C 0.28675 0.48872 0.88767 0.0
C735 C 0.42356 0.57724 0.80324 0.0
C736 C 0.36681 0.5288 0.86462 0.0
C737 C 0.29517 0.28957 0.85776 0.0
C738 C 0.25997 0.28758 0.84448 0.0
C739 C 0.49992 0.6634 0.8352 0.0
C740 C 0.62993 0.58232 0.77716 0.0
C741 C 0.68111 0.53152 0.76891 0.0
C742 C 0.65344 0.5192 0.75322 0.0
C743 C 0.60246 0.56924 0.76143 0.0
C744 C 0.66836 0.56239 0.7809 0.0
C745 C 0.61379 0.53735 0.74963 0.0
C746 C 0.529 0.4822 0.83561 0.0
C747 C 0.62011 0.61864 0.78926 0.0
H748 H 0.29961 0.45757 0.92873 0.0
H749 H 0.42708 0.52116 0.89106 0.0
H750 H 0.39586 0.48596 0.91922 0.0
H751 H 0.25697 0.49118 0.87896 0.0
H752 H 0.66313 0.49646 0.7436 0.0
H753 H 0.57263 0.58413 0.75816 0.0
H754 H 0.68921 0.5718 0.79306 0.0
H755 H 0.59264 0.52768 0.73753 0.0
Tb756 Tb 0.94341 0.40351 1.00418 0.0
C757 C 0.96623 0.63061 0.99431 0.0
N758 N 0.9554 0.59985 0.97993 0.0
C759 C 0.91002 0.65049 0.96825 0.0
C760 C 0.95016 0.67342 0.99617 0.0
C761 C 0.92659 0.60839 0.96703 0.0
C762 C 0.92244 0.68366 0.98281 0.0
C763 C 0.99568 0.64267 0.02338 0.0
C764 C 0.9888 0.6154 1.00764 0.0
C765 C 0.98323 0.68782 0.02506 0.0
C766 C 0.96033 0.70308 1.01147 0.0
Tb767 Tb 0.9904 0.53702 0.9782 0.0
N768 N 0.99787 0.5698 1.00565 0.0
C769 C 1.0115 0.62152 0.03721 0.0
C770 C 1.00695 0.54576 0.01959 0.0
C771 C 1.01557 0.57179 0.03538 0.0
H772 H 0.91566 0.58235 0.95581 0.0
H773 H 1.02349 0.55235 0.04624 0.0
H774 H 1.03049 0.46074 0.03791 0.0
H775 H 0.86815 0.20065 0.97168 0.0
H776 H 1.00366 0.50475 0.01897 0.0
H777 H 1.01702 0.64099 0.04951 0.0
H778 H 0.86682 0.28934 0.979 0.0
H779 H 0.88736 0.65707 0.95799 0.0
H780 H 0.98882 0.70952 0.037 0.0
H781 H 0.94881 0.73647 1.0131 0.0
H782 H 0.09299 0.43706 0.05485 0.0
H783 H 0.90909 0.71589 0.98379 0.0
H784 H 0.93619 0.17685 0.98572 0.0
N785 N 1.00629 0.39102 0.02079 0.0
C786 C 1.00833 0.342 0.0173 0.0
C787 C 0.0699 0.41034 0.04424 0.0
C788 C 1.04399 0.32723 0.02669 0.0
C789 C 1.03444 0.42366 0.03457 0.0
C790 C 0.07539 0.36245 0.04013 0.0
N791 N 0.935 0.31729 0.99679 0.0
C792 C 0.8973 0.28026 0.98515 0.0
C793 C 0.97381 0.25366 1.00111 0.0
C794 C 0.97258 0.30478 1.0048 0.0
C795 C 0.93633 0.2164 0.98891 0.0
C796 C 0.89776 0.22962 0.98097 0.0
H797 H 0.10302 0.35234 0.04765 0.0
H798 H 0.0738 0.26552 0.02966 0.0
H799 H 1.01312 0.20168 1.00716 0.0
O800 O 0.88105 0.3262 0.0162 0.0
O801 O 0.98352 0.39652 0.97989 0.0
O802 O 1.02975 0.48854 0.96866 0.0
O803 O 0.91369 0.40841 0.02833 0.0
O804 O 0.88149 0.38417 0.98339 0.0
O805 O 0.92723 0.45816 0.96407 0.0
O806 O 1.053 0.61779 0.96896 0.0
O807 O 0.89851 0.50319 0.98444 0.0
O808 O 0.89713 0.45715 1.00871 0.0
O809 O 0.98926 0.55499 0.95272 0.0
O810 O 0.07336 0.54712 0.99009 0.0
O811 O 1.04191 0.46075 1.00411 0.0
C812 C 1.0194 0.43524 0.9689 0.0
C813 C 0.88005 0.32634 0.04701 0.0
C814 C 0.83443 0.25061 0.06926 0.0
C815 C 0.88101 0.28508 0.07979 0.0
C816 C 0.92272 0.35966 0.05878 0.0
C817 C 0.92408 0.33873 0.07465 0.0
C818 C 0.83449 0.27163 0.05259 0.0
C819 C 0.88666 0.40517 0.96801 0.0
C820 C 0.88064 0.35264 0.02999 0.0
C821 C 1.04614 0.27707 0.0227 0.0
C822 C 1.01147 0.24063 1.0099 0.0
C823 C 0.87448 0.48272 0.99909 0.0
C824 C 0.07843 0.61422 0.94036 0.0
C825 C 0.1776 0.65801 0.93077 0.0
C826 C 0.15809 0.638 0.91442 0.0
C827 C 0.05982 0.59517 0.92388 0.0
C828 C 0.13741 0.64493 0.94375 0.0
C829 C 0.09948 0.60667 0.91104 0.0
C830 C 0.08541 0.51146 0.99896 0.0
C831 C 1.03569 0.60422 0.95351 0.0
H832 H 0.88279 0.27212 0.09255 0.0
H833 H 0.9545 0.40333 0.05607 0.0
H834 H 0.95798 0.3654 0.08332 0.0
H835 H 0.79906 0.24636 0.0442 0.0
H836 H 0.18797 0.64836 0.9041 0.0
H837 H 1.0145 0.57181 0.92088 0.0
H838 H 0.15214 0.66012 0.95639 0.0
H839 H 0.08475 0.59202 0.89838 0.0
Tb840 Tb 0.57844 0.91944 0.16715 0.0
C841 C 0.38753 0.97108 0.16834 0.0
N842 N 0.39815 0.95718 0.1529 0.0
C843 C 0.301 0.92723 0.14465 0.0
C844 C 0.33353 0.96513 0.17247 0.0
C845 C 0.35513 0.93357 0.14121 0.0
C846 C 0.2904 0.944 0.16026 0.0
C847 C 0.41758 0.99412 0.19722 0.0
C848 C 0.4291 0.98561 0.18043 0.0
C849 C 0.36566 0.99265 0.20119 0.0
C850 C 0.32359 0.97806 0.18882 0.0
Tb851 Tb 0.49112 0.97976 0.14744 0.0
N852 N 0.4776 0.9841 0.17614 0.0
C853 C 0.45669 0.99984 0.20967 0.0
C854 C 0.51145 0.98223 0.18865 0.0
C855 C 0.50286 0.9919 0.20544 0.0
H856 H 0.36205 0.91925 0.12917 0.0
H857 H 0.53071 0.99136 0.21519 0.0
H858 H 0.61187 0.98552 0.20516 0.0
H859 H 0.7042 0.86856 0.12391 0.0
H860 H 0.54267 0.96971 0.18604 0.0
H861 H 0.44941 1.00613 0.22272 0.0
H862 H 0.61469 0.85896 0.13558 0.0
H863 H 0.26741 0.90909 0.13528 0.0
H864 H 0.3565 0.99987 0.21396 0.0
H865 H 0.2827 0.97453 0.19219 0.0
H866 H 0.69942 1.04009 0.22194 0.0
H867 H 0.24828 0.93854 0.16295 0.0
H868 H 0.79703 0.93375 0.13735 0.0
N869 N 0.65541 0.97524 0.18407 0.0
C870 C 0.70635 0.98253 0.17803 0.0
C871 C 0.70203 1.02469 0.20956 0.0
C872 C 0.75755 1.01388 0.1873 0.0
C873 C 0.65245 0.99407 0.19992 0.0
C874 C 0.7549 1.03542 0.20312 0.0
N875 N 0.65647 0.92063 0.15508 0.0
C876 C 0.65486 0.88818 0.14149 0.0
C877 C 0.75907 0.96108 0.15686 0.0
C878 C 0.70703 0.95557 0.163 0.0
C879 C 0.75791 0.93041 0.14244 0.0
C880 C 0.70557 0.89341 0.13484 0.0
H881 H 0.79325 0.05933 0.21063 0.0
H882 H 0.84926 0.04578 0.18766 0.0
H883 H 0.85067 1.00017 0.16099 0.0
O884 O 0.58341 0.84393 0.17058 0.0
O885 O 0.62025 0.96683 0.14325 0.0
O886 O 0.57544 1.01904 0.13573 0.0
O887 O 0.57083 0.88478 0.19198 0.0
O888 O 0.53054 0.8641 0.14554 0.0
O889 O 0.50142 0.91906 0.13025 0.0
O890 O 0.47863 0.04914 0.14027 0.0
O891 O 0.43048 0.88795 0.153 0.0
O892 O 0.48071 0.87337 0.17405 0.0
O893 O 0.46159 0.98015 0.12327 0.0
O894 O 0.56783 0.05778 0.15911 0.0
O895 O 0.62145 1.01906 0.17056 0.0
C896 C 0.61682 1.00645 0.13394 0.0
C897 C 0.62449 0.83263 0.19623 0.0
C898 C 0.6554 0.79257 0.22023 0.0
C899 C 0.70186 0.79988 0.21011 0.0
C900 C 0.67213 0.83823 0.18719 0.0
C901 C 0.71031 0.82291 0.19408 0.0
C902 C 0.61618 0.80932 0.21297 0.0
C903 C 0.51263 0.87589 0.13139 0.0
C904 C 0.58131 0.84421 0.18695 0.0
C905 C 0.80953 1.0212 0.1808 0.0
C906 C 0.81034 0.99519 0.1656 0.0
C907 C 0.43032 0.85743 0.16604 0.0
C908 C 0.49536 0.07036 0.1109 0.0
C909 C 0.54892 0.16772 0.09972 0.0
C910 C 0.54228 0.14454 0.08343 0.0
C911 C 0.48965 0.04842 0.0945 0.0
C912 C 0.52612 0.13 0.11346 0.0
C913 C 0.5136 0.08533 0.08092 0.0
C914 C 0.61545 0.06545 0.16698 0.0
C915 C 0.46593 1.03042 0.12489 0.0
H916 H 0.7314 0.78563 0.21414 0.0
H917 H 0.67906 0.85204 0.1743 0.0
H918 H 0.746 0.827 0.1866 0.0
H919 H 0.5791 0.80341 0.22004 0.0
H920 H 0.55768 0.17199 0.07249 0.0
H921 H 0.46588 1.00261 0.09212 0.0
H922 H 0.53099 0.147 0.12608 0.0
H923 H 0.50854 0.06802 0.06834 0.0
Tb924 Tb 0.70976 0.57153 0.33485 0.0
C925 C 0.4553 0.39269 0.33223 0.0
N926 N 0.48209 0.4004 0.31729 0.0
C927 C 0.40636 0.30879 0.30786 0.0
C928 C 0.40159 0.34391 0.33541 0.0
C929 C 0.45977 0.35772 0.30542 0.0
C930 C 0.37644 0.30245 0.32278 0.0
C931 C 0.46252 0.42046 0.36133 0.0
C932 C 0.48528 0.43033 0.34489 0.0
C933 C 0.40693 0.37498 0.36433 0.0
C934 C 0.37645 0.33659 0.35135 0.0
Tb935 Tb 0.56424 0.48676 0.31324 0.0
N936 N 0.53972 0.47195 0.3415 0.0
C937 C 0.49769 0.45396 0.37442 0.0
C938 C 0.57562 0.49996 0.35459 0.0
C939 C 0.55505 0.49262 0.37111 0.0
H940 H 0.48259 0.36092 0.29394 0.0
H941 H 0.58356 0.51579 0.38137 0.0
H942 H 0.67189 0.59066 0.37373 0.0
H943 H 0.88833 0.7161 0.29565 0.0
H944 H 0.62038 0.52692 0.35253 0.0
H945 H 0.48211 0.44767 0.38724 0.0
H946 H 0.81169 0.62148 0.30498 0.0
H947 H 0.3885 0.27584 0.29827 0.0
H948 H 0.38844 0.36733 0.37681 0.0
H949 H 0.33483 0.29993 0.35398 0.0
H950 H 0.69766 0.6718 0.39304 0.0
H951 H 0.33537 0.26424 0.32473 0.0
H952 H 0.90553 0.80395 0.31082 0.0
N953 N 0.72308 0.64276 0.35351 0.0
C954 C 0.76398 0.69648 0.34877 0.0
C955 C 0.71596 0.67943 0.38056 0.0
C956 C 0.77972 0.7442 0.35947 0.0
C957 C 0.70085 0.63352 0.36948 0.0
C958 C 0.75477 0.73513 0.37543 0.0
N959 N 0.78332 0.65556 0.32479 0.0
C960 C 0.81827 0.65955 0.31162 0.0
C961 C 0.83808 0.75799 0.32901 0.0
C962 C 0.79363 0.70319 0.33376 0.0
C963 C 0.87115 0.7626 0.31485 0.0
C964 C 0.86182 0.71309 0.3063 0.0
H965 H 0.76627 0.77062 0.38404 0.0
H966 H 0.83352 0.83626 0.36221 0.0
H967 H 0.88407 0.84842 0.33548 0.0
O968 O 0.79193 0.58033 0.33815 0.0
O969 O 0.70502 0.60905 0.30979 0.0
O970 O 0.60882 0.57511 0.30478 0.0
O971 O 0.73607 0.55783 0.35918 0.0
O972 O 0.72322 0.52978 0.31256 0.0
O973 O 0.63626 0.48894 0.29842 0.0
O974 O 0.49267 0.48392 0.30082 0.0
O975 O 0.58826 0.42171 0.32083 0.0
O976 O 0.66007 0.47247 0.3403 0.0
O977 O 0.54892 0.45942 0.28833 0.0
O978 O 0.56277 0.56361 0.32535 0.0
O979 O 0.6507 0.61221 0.33922 0.0
C980 C 0.66262 0.61115 0.3016 0.0
C981 C 0.83966 0.61695 0.36469 0.0
C982 C 0.90749 0.64706 0.38939 0.0
C983 C 0.94299 0.69821 0.38063 0.0
C984 C 0.87852 0.66881 0.35691 0.0
C985 C 0.92843 0.7089 0.36483 0.0
C986 C 0.85486 0.60602 0.38114 0.0
C987 C 0.69149 0.50404 0.29922 0.0
C988 C 0.78836 0.57348 0.35438 0.0
C989 C 0.82165 0.79909 0.35427 0.0
C990 C 0.85043 0.80602 0.33903 0.0
C991 C 0.62138 0.42185 0.33314 0.0
C992 C 0.51568 0.50989 0.27195 0.0
C993 C 0.47532 0.55104 0.25266 0.0
C994 C 0.52465 0.5726 0.24267 0.0
C995 C 0.56603 0.53359 0.2621 0.0
C996 C 0.47085 0.51964 0.26723 0.0
C997 C 0.57027 0.56455 0.24755 0.0
C998 C 0.59972 0.60796 0.33488 0.0
C999 C 0.50842 0.47244 0.28645 0.0
H1000 H 0.98419 0.72989 0.38551 0.0
H1001 H 0.87212 0.67808 0.34422 0.0
H1002 H 0.95746 0.74811 0.35833 0.0
H1003 H 0.82656 0.56569 0.38722 0.0
H1004 H 0.5281 0.59627 0.23129 0.0
H1005 H 0.60217 0.52818 0.26555 0.0
H1006 H 0.43175 0.50141 0.27462 0.0
H1007 H 0.60896 0.58223 0.24005 0.0
H1008 H 0.07542 0.5907 0.24738 0.0
H1009 H 1.05213 0.71698 0.22005 0.0
H1010 H 0.12058 0.79244 0.23884 0.0
H1011 H 0.19363 0.82406 0.26166 0.0
H1012 H 0.21654 0.69722 0.28886 0.0
H1013 H 0.14062 0.62121 0.27203 0.0
C1014 C 0.08468 0.63464 0.24557 0.0
C1015 C 1.05825 0.6476 0.23202 0.0
C1016 C 0.12432 0.67808 0.25654 0.0
C1017 C 0.07096 0.70505 0.23023 0.0
C1018 C 0.11063 0.74846 0.241 0.0
C1019 C 0.18179 0.77969 0.26409 0.0
C1020 C 0.21197 0.76718 0.27668 0.0
C1021 C 0.13853 0.73574 0.254 0.0
C1022 C 0.19457 0.70895 0.27957 0.0
C1023 C 0.15147 0.66522 0.26969 0.0
H1024 H 0.38516 0.10233 0.44903 0.0
H1025 H 0.54257 0.25515 0.43582 0.0
H1026 H 0.55127 0.20543 0.41097 0.0
H1027 H 0.51479 0.11856 0.39299 0.0
H1028 H 0.35551 0.96743 0.40555 0.0
H1029 H 0.34556 1.01788 0.43015 0.0
C1030 C 0.42107 0.12588 0.44064 0.0
C1031 C 0.4629 0.18378 0.44457 0.0
C1032 C 0.42481 0.09744 0.42598 0.0
C1033 C 0.50984 0.21116 0.43354 0.0
C1034 C 0.5144 0.18276 0.41911 0.0
C1035 C 0.47715 0.09668 0.40091 0.0
C1036 C 0.43557 1.03874 0.39718 0.0
C1037 C 0.47208 0.12601 0.41516 0.0
C1038 C 0.38762 1.01176 0.40778 0.0
C1039 C 0.38241 1.04061 0.42201 0.0
H1040 H 0.32929 0.37477 0.61622 0.0
H1041 H 0.33379 0.53435 0.60402 0.0
H1042 H 0.3947 0.5453 0.57964 0.0
H1043 H 0.44792 0.51065 0.56193 0.0
H1044 H 0.4398 0.34908 0.57326 0.0
H1045 H 0.37767 0.33713 0.59745 0.0
C1046 C 0.34291 0.41201 0.60823 0.0
C1047 C 0.32608 0.45386 0.61232 0.0
C1048 C 0.37685 0.41723 0.59385 0.0
C1049 C 0.34608 0.50187 0.60169 0.0
C1050 C 0.38052 0.50775 0.58753 0.0
C1051 C 0.43187 0.47211 0.56946 0.0
C1052 C 0.44861 0.43037 0.56541 0.0
C1053 C 0.39619 0.46577 0.58347 0.0
C1054 C 0.42732 0.38136 0.57565 0.0
C1055 C 0.39216 0.37496 0.58967 0.0
H1056 H 0.99256 0.4409 0.73579 0.0
H1057 H 0.1409 0.41792 0.73931 0.0
H1058 H 0.09701 0.35331 0.76331 0.0
H1059 H 1.01838 0.30645 0.78396 0.0
H1060 H 0.86755 0.32567 0.77947 0.0
H1061 H 0.91167 0.39017 0.7556 0.0
C1062 C 1.01512 0.421 0.74151 0.0
C1063 C 0.07022 0.43417 0.7353 0.0
C1064 C 0.98939 0.38379 0.7554 0.0
C1065 C 0.09847 0.40828 0.74336 0.0
C1066 C 0.07339 0.37165 0.75728 0.0
C1067 C 0.9939 0.3233 0.77768 0.0
C1068 C 0.93821 0.30923 0.78378 0.0
C1069 C 1.019 0.35935 0.7635 0.0
C1070 C 0.90993 0.33489 0.7755 0.0
C1071 C 0.93509 0.37155 0.7616 0.0
H1072 H 0.60714 0.97138 0.89517 0.0
H1073 H 0.77366 0.11766 0.90434 0.0
H1074 H 0.78488 0.06901 0.92906 0.0
H1075 H 0.74469 0.98842 0.94915 0.0
H1076 H 0.57994 0.83938 0.93929 0.0
H1077 H 0.56991 0.88689 0.91423 0.0
C1078 C 0.6467 0.99228 0.90231 0.0
C1079 C 0.69 0.04846 0.89755 0.0
C1080 C 0.65255 0.96392 0.91666 0.0
C1081 C 0.74023 0.07452 0.90727 0.0
C1082 C 0.74616 0.04677 0.92162 0.0
C1083 C 0.70689 0.96486 0.94144 0.0
C1084 C 0.6635 0.90871 0.94643 0.0
C1085 C 0.70223 0.99186 0.9266 0.0
C1086 C 0.61417 0.88194 0.93623 0.0
C1087 C 0.60874 0.90905 0.92164 0.0
H1088 H 0.73806 0.64816 0.12362 0.0
H1089 H 0.74873 0.50783 0.10029 0.0
H1090 H 0.71229 0.52457 0.07403 0.0
H1091 H 0.66767 0.57139 0.05846 0.0
H1092 H 0.65604 0.7127 0.08044 0.0
H1093 H 0.70351 0.70456 0.10605 0.0
C1094 C 0.73429 0.62259 0.11261 0.0
C1095 C 0.74768 0.57725 0.11401 0.0
C1096 C 0.71262 0.63248 0.09724 0.0
C1097 C 0.74037 0.54361 0.09963 0.0
C1098 C 0.7189 0.5529 0.08458 0.0
C1099 C 0.67663 0.60153 0.06865 0.0
C1100 C 0.65805 0.64284 0.06726 0.0
C1101 C 0.70355 0.59615 0.08333 0.0
C1102 C 0.67022 0.68104 0.08084 0.0
C1103 C 0.69703 0.67589 0.09562 0.0
H1104 H 0.49216 0.99797 0.61139 0.0
H1105 H 0.39342 0.07551 0.62917 0.0
H1106 H 0.3202 1.02207 0.60791 0.0
H1107 H 0.28385 0.95353 0.58425 0.0
H1108 H 0.38601 0.88084 0.56506 0.0
H1109 H 0.45475 0.92837 0.58766 0.0
C1110 C 0.45486 1.00378 0.6107 0.0
C1111 C 0.44974 0.04245 0.62213 0.0
C1112 C 0.41255 0.97268 0.59821 0.0
C1113 C 0.39996 0.04754 0.62075 0.0
C1114 C 0.35763 1.01644 0.6085 0.0
C1115 C 0.3218 0.94888 0.58435 0.0
C1116 C 0.32881 0.91349 0.57202 0.0
C1117 C 0.3636 0.97919 0.59703 0.0
C1118 C 0.3778 0.90694 0.57385 0.0
C1119 C 0.41828 0.93529 0.58678 0.0
H1120 H 0.37631 0.27703 0.74816 0.0
H1121 H 0.55998 0.35556 0.74131 0.0
H1122 H 0.57367 0.41566 0.76594 0.0
H1123 H 0.53537 0.45638 0.78685 0.0
H1124 H 0.35222 0.38415 0.79248 0.0
H1125 H 0.33737 0.31484 0.76997 0.0
C1126 C 0.41984 0.30846 0.75142 0.0
C1127 C 0.46703 0.31189 0.7419 0.0
C1128 C 0.42776 0.34619 0.76509 0.0
C1129 C 0.52239 0.35097 0.74779 0.0
C1130 C 0.5304 0.38664 0.76181 0.0
C1131 C 0.49179 0.42567 0.78329 0.0
C1132 C 0.44483 0.42679 0.79153 0.0
C1133 C 0.48361 0.38622 0.77016 0.0
C1134 C 0.38927 0.38529 0.78656 0.0
C1135 C 0.38087 0.34552 0.77359 0.0
H1136 H 0.06066 0.4863 0.93849 0.0
H1137 H 0.0609 0.35818 0.97129 0.0
H1138 H 0.13342 0.3534 0.9533 0.0
H1139 H 0.20329 0.39226 0.92963 0.0
H1140 H 0.20446 0.52341 0.89772 0.0
H1141 H 0.1232 0.51757 0.91341 0.0
C1142 C 0.07577 0.45651 0.94166 0.0
C1143 C 1.05481 0.42267 0.95646 0.0
C1144 C 0.11814 0.45458 0.93133 0.0
C1145 C 0.07523 0.38432 0.96006 0.0
C1146 C 0.11732 0.38206 0.94979 0.0
C1147 C 0.18619 0.42001 0.92603 0.0
C1148 C 0.21185 0.4592 0.9124 0.0
C1149 C 0.14023 0.41809 0.93561 0.0
C1150 C 0.18666 0.49278 0.90789 0.0
C1151 C 0.14042 0.49018 0.91712 0.0
H1152 H 0.60833 0.06709 0.10718 0.0
H1153 H 0.7292 1.02807 0.13148 0.0
H1154 H 0.80503 0.09488 0.11257 0.0
H1155 H 0.8391 0.17036 0.09046 0.0
H1156 H 0.71785 0.20967 0.06648 0.0
H1157 H 0.64071 0.13588 0.08345 0.0
C1158 C 0.65111 0.07258 0.10833 0.0
C1159 C 0.66243 0.04205 0.12106 0.0
C1160 C 0.69483 0.11142 0.09733 0.0
C1161 C 0.71845 0.05009 0.12197 0.0
C1162 C 0.76212 0.0888 0.11113 0.0
C1163 C 0.79568 0.16266 0.08876 0.0
C1164 C 0.7852 0.19679 0.07702 0.0
C1165 C 0.75114 0.12056 0.09894 0.0
C1166 C 0.72802 0.18457 0.07508 0.0
C1167 C 0.68368 0.14262 0.08503 0.0
H1168 H 0.58393 0.63505 0.28633 0.0
H1169 H 0.76422 0.687 0.28555 0.0
H1170 H 0.77819 0.75205 0.26219 0.0
H1171 H 0.73903 0.79101 0.2412 0.0
H1172 H 0.55638 0.72941 0.23949 0.0
H1173 H 0.54485 0.67505 0.26522 0.0
C1174 C 0.62663 0.66059 0.28117 0.0
C1175 C 0.67312 0.65518 0.28799 0.0
C1176 C 0.63404 0.69699 0.26727 0.0
C1177 C 0.72766 0.6897 0.28093 0.0
C1178 C 0.73552 0.72691 0.2674 0.0
C1179 C 0.69594 0.76459 0.2459 0.0
C1180 C 0.64837 0.76403 0.23749 0.0
C1181 C 0.68887 0.73011 0.26024 0.0
C1182 C 0.59422 0.73176 0.24516 0.0
C1183 C 0.58741 0.69974 0.25992 0.0
H1184 H 1.00609 0.56858 0.45116 0.0
H1185 H 0.10955 0.75185 0.45809 0.0
H1186 H 1.05542 0.76688 0.43552 0.0
H1187 H 0.98207 0.72813 0.41295 0.0
H1188 H 0.88417 0.54451 0.40501 0.0
H1189 H 0.92951 0.53023 0.42976 0.0
C1190 C 1.01733 0.61222 0.44786 0.0
C1191 C 0.06334 0.65921 0.45645 0.0
C1192 C 0.98631 0.6205 0.4347 0.0
C1193 C 0.07519 0.71481 0.45192 0.0
C1194 C 1.0441 0.72331 0.43889 0.0
C1195 C 0.97122 0.68459 0.41611 0.0
C1196 C 0.92993 0.63752 0.40621 0.0
C1197 C 1.00028 0.67648 0.42994 0.0
C1198 C 0.91522 0.58198 0.41183 0.0
C1199 C 0.94223 0.57369 0.42594 0.0
H1200 H 0.50848 0.63303 0.32509 0.0
H1201 H 0.65961 0.70182 0.35585 0.0
H1202 H 0.64411 0.78036 0.36467 0.0
H1203 H 0.58807 0.83373 0.36419 0.0
H1204 H 0.43978 0.77094 0.33215 0.0
H1205 H 0.45372 0.68988 0.32367 0.0
C1206 C 0.53823 0.66468 0.33384 0.0
C1207 C 0.58569 0.65783 0.33996 0.0
C1208 C 0.52932 0.71292 0.33876 0.0
C1209 C 0.62256 0.70235 0.351 0.0
C1210 C 0.61358 0.74867 0.35606 0.0
C1211 C 0.55822 0.80262 0.35534 0.0
C1212 C 0.51193 0.81082 0.34915 0.0
C1213 C 0.5671 0.75501 0.35015 0.0
C1214 C 0.47562 0.7682 0.33746 0.0
C1215 C 0.48373 0.72078 0.33253 0.0
H1216 H 0.74666 0.43679 0.50203 0.0
H1217 H 0.78464 0.58978 0.53011 0.0
H1218 H 0.88619 0.62646 0.52588 0.0
H1219 H 0.97058 0.61886 0.51466 0.0
H1220 H 0.93703 0.46806 0.4864 0.0
H1221 H 0.83357 0.43009 0.49013 0.0
C1222 C 0.77645 0.47847 0.50718 0.0
C1223 C 0.75318 0.50908 0.51669 0.0
C1224 C 0.83884 0.50108 0.5047 0.0
C1225 C 0.79684 0.56303 0.52295 0.0
C1226 C 0.85689 0.58497 0.52048 0.0
C1227 C 0.94139 0.57746 0.50928 0.0
C1228 C 0.96573 0.54747 0.5002 0.0
C1229 C 0.87943 0.5548 0.5115 0.0
C1230 C 0.92324 0.49376 0.49351 0.0
C1231 C 0.86245 0.47144 0.49567 0.0
H1232 H 0.39439 0.95418 0.68196 0.0
H1233 H 0.51438 0.91527 0.65719 0.0
H1234 H 0.44846 0.81236 0.66112 0.0
H1235 H 0.3535 0.72709 0.67218 0.0
H1236 H 0.23594 0.76983 0.69701 0.0
H1237 H 0.30117 0.87111 0.69258 0.0
C1238 C 0.40729 0.92401 0.67745 0.0
C1239 C 0.46274 0.94702 0.66927 0.0
C1240 C 0.36757 0.86208 0.6798 0.0
C1241 C 0.47428 0.90291 0.66361 0.0
C1242 C 0.43546 0.8423 0.66587 0.0
C1243 C 0.341 0.75781 0.67654 0.0
C1244 C 0.28599 0.7358 0.68516 0.0
C1245 C 0.38121 0.82009 0.67399 0.0
C1246 C 0.27542 0.78087 0.6905 0.0
C1247 C 0.31387 0.84082 0.68792 0.0
H1248 H 0.63217 0.46916 0.83177 0.0
H1249 H 0.45634 0.37426 0.84805 0.0
H1250 H 0.46976 0.29426 0.85616 0.0
H1251 H 0.52969 0.24605 0.85875 0.0
H1252 H 0.70325 0.33368 0.84047 0.0
H1253 H 0.69203 0.41716 0.83312 0.0
C1254 C 0.59647 0.43139 0.83718 0.0
C1255 C 0.54293 0.43179 0.83981 0.0
C1256 C 0.60406 0.38191 0.84148 0.0
C1257 C 0.49864 0.37952 0.84649 0.0
C1258 C 0.50616 0.33204 0.85098 0.0
C1259 C 0.56572 0.28314 0.85325 0.0
C1260 C 0.61807 0.2811 0.85057 0.0
C1261 C 0.55859 0.33213 0.84868 0.0
C1262 C 0.66242 0.33146 0.843 0.0
C1263 C 0.65587 0.38026 0.83872 0.0
H1264 H 0.20106 0.61478 0.99534 0.0
H1265 H 0.12179 0.43788 1.01088 0.0
H1266 H 0.21445 0.45012 0.01895 0.0
H1267 H 0.32134 0.50916 0.02208 0.0
H1268 H 0.40624 0.68393 1.00461 0.0
H1269 H 0.31232 0.67387 0.99697 0.0
C1270 C 0.20329 0.57852 1.00055 0.0
C1271 C 0.14981 0.525 1.00298 0.0
C1272 C 0.26011 0.58542 1.00487 0.0
C1273 C 0.15827 0.48015 1.00943 0.0
C1274 C 0.2129 0.48701 1.01392 0.0
C1275 C 0.32033 0.54573 0.01658 0.0
C1276 C 0.37435 0.598 0.01425 0.0
C1277 C 0.26465 0.53932 1.01187 0.0
C1278 C 0.36816 0.64304 1.00681 0.0
C1279 C 0.31314 0.63713 1.0024 0.0
H1280 H 0.84923 0.2984 0.19272 0.0
H1281 H 0.77152 0.38706 0.16847 0.0
H1282 H 0.68864 0.29395 0.16076 0.0
H1283 H 0.634 0.18265 0.16077 0.0
H1284 H 0.71923 0.09796 0.18288 0.0
H1285 H 0.79904 0.19018 0.19121 0.0
C1286 C 0.8146 0.29841 0.18573 0.0
C1287 C 0.81942 0.35343 0.18157 0.0
C1288 C 0.76594 0.24294 0.18089 0.0
C1289 C 0.77187 0.34831 0.17221 0.0
C1290 C 0.7233 0.29373 0.16772 0.0
C1291 C 0.66955 0.18355 0.16752 0.0
C1292 C 0.66641 0.12887 0.17157 0.0
C1293 C 0.71894 0.23985 0.17199 0.0
C1294 C 0.71613 0.13558 0.17997 0.0
C1295 C 0.76342 0.18991 0.18466 0.0
H1296 H 0.31809 0.56948 0.48198 0.0
H1297 H 0.29598 0.61832 0.53182 0.0
H1298 H 0.37052 0.59763 0.54218 0.0
H1299 H 0.44421 0.56365 0.53767 0.0
H1300 H 0.46455 0.51446 0.48769 0.0
H1301 H 0.39021 0.53505 0.4775 0.0
C1302 C 0.3285 0.5752 0.4952 0.0
C1303 C 0.29844 0.59583 0.50584 0.0
C1304 C 0.37242 0.56219 0.50134 0.0
C1305 C 0.31625 0.60323 0.5229 0.0
C1306 C 0.3597 0.59095 0.52896 0.0
C1307 C 0.43284 0.55718 0.52449 0.0
C1308 C 0.46144 0.53498 0.51376 0.0
C1309 C 0.38861 0.57017 0.51841 0.0
C1310 C 0.44386 0.52856 0.49673 0.0
C1311 C 0.40099 0.54143 0.49073 0.0
H1312 H 0.7489 0.29628 0.69656 0.0
H1313 H 0.77316 0.28055 0.64365 0.0
H1314 H 0.87384 0.34931 0.64616 0.0
H1315 H 0.96102 0.42037 0.66259 0.0
H1316 H 0.93787 0.44916 0.71441 0.0
H1317 H 0.83694 0.3746 0.7128 0.0
C1318 C 0.77541 0.30733 0.68542 0.0
C1319 C 0.74876 0.27758 0.66979 0.0
C1320 C 0.83684 0.35203 0.68668 0.0
C1321 C 0.78832 0.29728 0.65608 0.0
C1322 C 0.84784 0.33871 0.65742 0.0
C1323 C 0.93501 0.41029 0.67376 0.0
C1324 C 0.962 0.4421 0.68894 0.0
C1325 C 0.87373 0.36697 0.6726 0.0
C1326 C 0.92249 0.42704 0.70256 0.0
C1327 C 0.86297 0.38335 0.70161 0.0
H1328 H 0.53473 0.90089 0.87293 0.0
H1329 H 0.6204 0.97514 0.82637 0.0
H1330 H 0.60135 0.88128 0.8164 0.0
H1331 H 0.55867 0.7744 0.81988 0.0
H1332 H 0.47136 0.69648 0.866 0.0
H1333 H 0.49131 0.79137 0.87645 0.0
C1334 C 0.5495 0.8972 0.86056 0.0
C1335 C 0.5815 0.94925 0.85078 0.0
C1336 C 0.53717 0.84013 0.85451 0.0
C1337 C 0.59848 0.93949 0.83478 0.0
C1338 C 0.58651 0.88425 0.82885 0.0
C1339 C 0.54376 0.77727 0.8323 0.0
C1340 C 0.51266 0.72493 0.84184 0.0
C1341 C 0.55594 0.83368 0.83848 0.0
C1342 C 0.49481 0.73333 0.85793 0.0
C1343 C 0.50653 0.78881 0.86403 0.0
H1344 H 0.66988 0.51663 0.0356 0.0
H1345 H 0.66961 0.5895 0.98755 0.0
H1346 H 0.74684 0.57228 0.97796 0.0
H1347 H 0.81612 0.53452 0.98241 0.0
H1348 H 0.8162 0.45916 0.03014 0.0
H1349 H 0.73983 0.47809 0.04005 0.0
C1350 C 0.68661 0.52949 0.02303 0.0
C1351 C 0.66329 0.55798 1.01277 0.0
C1352 C 0.73214 0.51791 0.01726 0.0
C1353 C 0.68692 0.57148 0.99639 0.0
C1354 C 0.73125 0.56025 0.99069 0.0
C1355 C 0.80017 0.52215 0.99507 0.0
C1356 C 0.82458 0.49472 1.00528 0.0
C1357 C 0.75493 0.53367 1.00092 0.0
C1358 C 0.80042 0.47975 0.02161 0.0
C1359 C 0.75584 0.49088 0.02739 0.0
H1360 H 0.31454 0.83432 0.16102 0.0
H1361 H 0.40447 0.75702 0.1847 0.0
H1362 H 0.31187 0.67344 0.19238 0.0
H1363 H 0.20061 0.61792 0.1924 0.0
H1364 H 0.11526 0.70417 0.17146 0.0
H1365 H 0.20671 0.78412 0.16297 0.0
C1366 C 0.31495 0.79971 0.1679 0.0
C1367 C 0.37006 0.80483 0.17192 0.0
C1368 C 0.25986 0.75076 0.17276 0.0
C1369 C 0.3655 0.7572 0.18113 0.0
C1370 C 0.31126 0.70819 0.18557 0.0
C1371 C 0.2012 0.6537 0.18585 0.0
C1372 C 0.14642 0.6505 0.18201 0.0
C1373 C 0.25721 0.70355 0.18146 0.0
C1374 C 0.15283 0.70071 0.17398 0.0
C1375 C 0.20678 0.74823 0.16927 0.0
H1376 H 0.52889 0.30817 0.32753 0.0
H1377 H 0.69296 0.3925 0.35228 0.0
H1378 H 0.68125 0.29811 0.36012 0.0
H1379 H 0.62398 0.18697 0.36002 0.0
H1380 H 0.45657 0.10713 0.33732 0.0
H1381 H 0.47055 0.20031 0.32888 0.0
C1382 C 0.5627 0.30685 0.33467 0.0
C1383 C 0.61261 0.36086 0.33899 0.0
C1384 C 0.5552 0.2508 0.33951 0.0
C1385 C 0.65404 0.35437 0.34849 0.0
C1386 C 0.64723 0.29913 0.35303 0.0
C1387 C 0.59029 0.1892 0.35311 0.0
C1388 C 0.53921 0.13557 0.34878 0.0
C1389 C 0.59798 0.24614 0.34862 0.0
C1390 C 0.49728 0.14387 0.34024 0.0
C1391 C 0.50507 0.19878 0.33555 0.0
H1392 H 0.23104 0.66821 0.43247 0.0
H1393 H 0.32462 0.79013 0.47166 0.0
H1394 H 0.39162 0.85624 0.4508 0.0
H1395 H 0.42449 0.88192 0.42092 0.0
H1396 H 0.3269 0.76215 0.3817 0.0
H1397 H 0.26254 0.69454 0.40269 0.0
C1398 C 0.26619 0.70906 0.43656 0.0
C1399 C 0.27193 0.72296 0.45402 0.0
C1400 C 0.30477 0.74818 0.42425 0.0
C1401 C 0.31808 0.77713 0.45859 0.0
C1402 C 0.3569 0.81539 0.44653 0.0
C1403 C 0.38957 0.84081 0.4169 0.0
C1404 C 0.38196 0.82782 0.39938 0.0
C1405 C 0.35094 0.80174 0.42925 0.0
C1406 C 0.335 0.77422 0.39483 0.0
C1407 C 0.29768 0.73511 0.40695 0.0
H1408 H 0.59288 0.4111 0.58773 0.0
H1409 H 0.61987 0.3159 0.54833 0.0
H1410 H 0.62108 0.24908 0.56907 0.0
H1411 H 0.61221 0.21465 0.59874 0.0
H1412 H 0.58086 0.30797 0.63788 0.0
H1413 H 0.58359 0.37667 0.61726 0.0
C1414 C 0.59962 0.37618 0.58361 0.0
C1415 C 0.60679 0.36983 0.56616 0.0
C1416 C 0.5992 0.33648 0.59577 0.0
C1417 C 0.61448 0.32299 0.56145 0.0
C1418 C 0.61506 0.28426 0.57342 0.0
C1419 C 0.60631 0.25014 0.60286 0.0
C1420 C 0.59661 0.2552 0.62022 0.0
C1421 C 0.60715 0.29009 0.59068 0.0
C1422 C 0.58851 0.30189 0.62486 0.0
C1423 C 0.59008 0.34173 0.61296 0.0
H1424 H 0.43221 0.57777 0.76791 0.0
H1425 H 0.32731 0.58833 0.80744 0.0
H1426 H 0.26275 0.59286 0.78659 0.0
H1427 H 0.23275 0.5916 0.75679 0.0
H1428 H 0.33476 0.57649 0.7172 0.0
H1429 H 0.4019 0.57626 0.73799 0.0
C1430 C 0.39559 0.58162 0.77204 0.0
C1431 C 0.38589 0.583 0.78962 0.0
C1432 C 0.3571 0.58333 0.75974 0.0
C1433 C 0.337 0.58714 0.79427 0.0
C1434 C 0.29955 0.58976 0.78223 0.0
C1435 C 0.26993 0.58886 0.7526 0.0
C1436 C 0.27795 0.58471 0.73505 0.0
C1437 C 0.30869 0.58765 0.76486 0.0
C1438 C 0.32655 0.58011 0.73035 0.0
C1439 C 0.3654 0.57988 0.74237 0.0
H1440 H 0.68493 0.21176 0.92206 0.0
H1441 H 0.80365 0.30793 0.88256 0.0
H1442 H 0.86925 0.37639 0.90316 0.0
H1443 H 0.89618 0.40953 0.93285 0.0
H1444 H 0.77979 0.31102 0.97251 0.0
H1445 H 0.71202 0.24492 0.95181 0.0
C1446 C 0.72486 0.24792 0.91787 0.0
C1447 C 0.73815 0.25381 0.9004 0.0
C1448 C 0.76389 0.28756 0.93005 0.0
C1449 C 0.79119 0.30121 0.89567 0.0
C1450 C 0.82923 0.34089 0.90756 0.0
C1451 C 0.8558 0.37399 0.93703 0.0
C1452 C 0.84398 0.36646 0.95457 0.0
C1453 C 0.81652 0.33465 0.92486 0.0
C1454 C 0.79111 0.31892 0.95934 0.0
C1455 C 0.75185 0.28063 0.94739 0.0
H1456 H 0.48748 0.76121 0.12704 0.0
H1457 H 0.53378 0.91584 0.09908 0.0
H1458 H 0.53743 0.86828 0.07317 0.0
H1459 H 0.53005 0.78292 0.05796 0.0
H1460 H 0.47362 0.62523 0.08533 0.0
H1461 H 0.47128 0.67294 0.11127 0.0
C1462 C 0.49798 0.78454 0.11529 0.0
C1463 C 0.5103 0.84283 0.11537 0.0
C1464 C 0.49856 0.75604 0.10002 0.0
C1465 C 0.52351 0.87128 0.09972 0.0
C1466 C 0.52588 0.84393 0.08475 0.0
C1467 C 0.51694 0.75856 0.06953 0.0
C1468 C 0.50372 0.69994 0.06932 0.0
C1469 C 0.51376 0.78627 0.08465 0.0
C1470 C 0.48579 0.67019 0.08473 0.0
C1471 C 0.48409 0.6977 0.09976 0.0
H1472 H 0.80258 0.51939 0.29465 0.0
H1473 H 0.64608 0.47098 0.26744 0.0
H1474 H 0.69192 0.46706 0.24135 0.0
H1475 H 0.77795 0.47889 0.22539 0.0
H1476 H 0.93137 0.51807 0.25305 0.0
H1477 H 0.88587 0.52345 0.27912 0.0
C1478 C 0.77808 0.50753 0.28308 0.0
C1479 C 0.72025 0.49642 0.28342 0.0
C1480 C 0.80463 0.50356 0.26783 0.0
C1481 C 0.69033 0.48073 0.26798 0.0
C1482 C 0.71677 0.47828 0.25285 0.0
C1483 C 0.80145 0.48822 0.23711 0.0
C1484 C 0.85873 0.4979 0.23689 0.0
C1485 C 0.77415 0.48996 0.25248 0.0
C1486 C 0.88746 0.50976 0.2525 0.0
C1487 C 0.86134 0.51316 0.26757 0.0
H1488 H 0.83377 0.39361 0.43228 0.0
H1489 H 0.92645 0.30144 0.44082 0.0
H1490 H 0.83669 0.21254 0.44478 0.0
H1491 H 0.73275 0.15945 0.44283 0.0
H1492 H 0.63818 0.2481 0.43255 0.0
H1493 H 0.72763 0.34049 0.43267 0.0
C1494 C 0.834 0.35396 0.43504 0.0
C1495 C 0.88631 0.35373 0.43616 0.0
C1496 C 0.78213 0.30273 0.43708 0.0
C1497 C 0.88656 0.30254 0.44001 0.0
C1498 C 0.83536 0.25173 0.44223 0.0
C1499 C 0.73188 0.19928 0.44094 0.0
C1500 C 0.67978 0.19762 0.43751 0.0
C1501 C 0.78309 0.2512 0.44044 0.0
C1502 C 0.67825 0.24892 0.43524 0.0
C1503 C 0.72929 0.30142 0.43512 0.0
H1504 H 0.48892 0.81184 0.6012 0.0
H1505 H 0.67037 0.90226 0.61192 0.0
H1506 H 0.66851 0.81182 0.61762 0.0
H1507 H 0.6185 0.70761 0.61573 0.0
H1508 H 0.43891 0.61572 0.60343 0.0
H1509 H 0.43578 0.70579 0.60279 0.0
C1510 C 0.52774 0.81136 0.60488 0.0
C1511 C 0.57975 0.86301 0.60597 0.0
C1512 C 0.52649 0.75917 0.608 0.0
C1513 C 0.62987 0.86265 0.61102 0.0
C1514 C 0.62888 0.81113 0.61428 0.0
C1515 C 0.57841 0.70746 0.61339 0.0
C1516 C 0.5292 0.65588 0.60935 0.0
C1517 C 0.57784 0.75923 0.61235 0.0
C1518 C 0.4772 0.65528 0.60648 0.0
C1519 C 0.4757 0.70678 0.60591 0.0
H1520 H 0.78203 0.59779 0.78465 0.0
H1521 H 0.68372 0.43301 0.76038 0.0
H1522 H 0.76562 0.41619 0.76248 0.0
H1523 H 0.86899 0.4545 0.76802 0.0
H1524 H 0.96612 0.62043 0.79144 0.0
H1525 H 0.87978 0.62972 0.79361 0.0
C1526 C 0.77764 0.55732 0.78028 0.0
C1527 C 0.72702 0.51698 0.77223 0.0
C1528 C 0.82465 0.54815 0.78146 0.0
C1529 C 0.7227 0.4653 0.76633 0.0
C1530 C 0.76934 0.45551 0.76761 0.0
C1531 C 0.8704 0.49164 0.77407 0.0
C1532 C 0.92301 0.53669 0.77966 0.0
C1533 C 0.82107 0.49746 0.77469 0.0
C1534 C 0.9255 0.5853 0.78722 0.0
C1535 C 0.87643 0.59075 0.7883 0.0
H1536 H 0.44137 0.83141 0.92554 0.0
H1537 H 0.38916 0.93322 0.95511 0.0
H1538 H 0.29327 0.85038 0.95851 0.0
H1539 H 0.22168 0.75515 0.94925 0.0
H1540 H 0.27122 0.65307 0.91858 0.0
H1541 H 0.37124 0.73 0.91935 0.0
C1542 C 0.40917 0.83452 0.93309 0.0
C1543 C 0.42137 0.88746 0.94013 0.0
C1544 C 0.35383 0.78729 0.93451 0.0
C1545 C 0.37997 0.89226 0.94972 0.0
C1546 C 0.32533 0.8452 0.95155 0.0
C1547 C 0.2545 0.74877 0.94318 0.0
C1548 C 0.23906 0.69878 0.93375 0.0
C1549 C 0.31129 0.79325 0.94347 0.0
C1550 C 0.28206 0.69171 0.9257 0.0
C1551 C 0.33915 0.73555 0.92616 0.0
H1552 H 0.5148 0.22237 0.12209 0.0
H1553 H 0.63747 0.25533 0.08238 0.0
H1554 H 0.65846 0.35505 0.08105 0.0
H1555 H 0.62831 0.42663 0.08773 0.0
H1556 H 0.50874 0.39402 0.12805 0.0
H1557 H 0.50172 0.30038 0.13308 0.0
C1558 C 0.54782 0.25152 0.11356 0.0
C1559 C 0.57302 0.23065 0.10195 0.0
C1560 C 0.55995 0.30874 0.11293 0.0
C1561 C 0.61566 0.26963 0.09101 0.0
C1562 C 0.62796 0.32676 0.09029 0.0
C1563 C 0.60236 0.3996 0.09796 0.0
C1564 C 0.56859 0.41608 0.10744 0.0
C1565 C 0.5982 0.34587 0.10062 0.0
C1566 C 0.53493 0.38149 0.12067 0.0
C1567 C 0.53065 0.328 0.12343 0.0
H1568 H 0.43509 0.61385 0.26817 0.0
H1569 H 0.40562 0.50063 0.22617 0.0
H1570 H 0.3108 0.4912 0.22178 0.0
H1571 H 0.23189 0.50104 0.23327 0.0
H1572 H 0.26143 0.61781 0.27457 0.0
H1573 H 0.36144 0.64009 0.27591 0.0
C1574 C 0.40834 0.58864 0.25777 0.0
C1575 C 0.42622 0.5575 0.24756 0.0
C1576 C 0.354 0.58317 0.25545 0.0
C1577 C 0.39206 0.52486 0.2341 0.0
C1578 C 0.33793 0.51919 0.23169 0.0
C1579 C 0.26029 0.53314 0.24217 0.0
C1580 C 0.23847 0.55641 0.25413 0.0
C1581 C 0.31764 0.54617 0.24276 0.0
C1582 C 0.27649 0.59757 0.26562 0.0
C1583 C 0.33378 0.61062 0.26633 0.0
loop_
_geom_bond_atom_site_label_1
_geom_bond_atom_site_label_2
_geom_bond_distance
_geom_bond_site_symmetry_2
_ccdc_geom_bond_type
Tb0 N29 2.617 1_565 S
Tb0 N35 2.572 . S
Tb0 O44 2.465 . S
Tb0 O45 2.387 1_565 S
Tb0 O47 2.428 . S
Tb0 O48 2.308 . S
Tb0 O52 2.349 . S
Tb0 O55 2.393 1_565 S
Tb0 C64 2.802 . S
C1 N2 1.379 . S
C1 C4 1.416 . S
C1 C8 1.424 . S
N2 C1 1.379 . S
N2 C5 1.334 . S
N2 Tb11 2.617 1_565 S
C3 C5 1.390 . S
C3 C6 1.339 . S
C3 H23 0.930 . S
C4 C1 1.416 . S
C4 C6 1.416 . S
C4 C10 1.448 . S
C5 N2 1.334 . S
C5 C3 1.390 . S
C5 H16 0.930 . S
C6 C3 1.339 . S
C6 C4 1.416 . S
C6 H27 0.930 . S
C7 C8 1.413 . S
C7 C9 1.427 . S
C7 C13 1.416 1_565 S
C8 C1 1.424 . S
C8 C7 1.413 . S
C8 N12 1.361 1_565 S
C9 C7 1.427 . S
C9 C10 1.328 . S
C9 H24 0.929 . S
C10 C4 1.448 . S
C10 C9 1.328 . S
C10 H25 0.930 . S
Tb11 N2 2.617 1_545 S
Tb11 N12 2.572 . S
Tb11 O46 2.349 . S
Tb11 O49 2.393 1_545 S
Tb11 O50 2.465 . S
Tb11 O51 2.387 1_545 S
Tb11 O53 2.428 . S
Tb11 O54 2.308 . S
Tb11 C75 2.802 . S
N12 C8 1.361 1_545 S
N12 Tb11 2.572 . S
N12 C14 1.340 . S
C13 C7 1.416 1_545 S
C13 C15 1.332 . S
C13 H21 0.931 . S
C14 N12 1.340 . S
C14 C15 1.407 . S
C14 H20 0.930 . S
C15 C13 1.332 . S
C15 C14 1.407 . S
C15 H17 0.929 . S
H16 C5 0.930 . S
H17 C15 0.929 . S
H18 C33 0.930 . S
H19 C40 0.929 . S
H20 C14 0.930 . S
H21 C13 0.931 . S
H22 C36 0.930 . S
H23 C3 0.930 . S
H24 C9 0.929 . S
H25 C10 0.930 . S
H26 C31 0.930 . S
H27 C6 0.930 . S
H28 C39 0.931 . S
N29 Tb0 2.617 1_545 S
N29 C30 1.379 . S
N29 C33 1.334 . S
C30 N29 1.379 . S
C30 C32 1.416 . S
C30 C38 1.424 . S
C31 H26 0.930 . S
C31 C33 1.390 . S
C31 C34 1.339 . S
C32 C30 1.416 . S
C32 C34 1.416 . S
C32 C65 1.448 . S
C33 H18 0.930 . S
C33 N29 1.334 . S
C33 C31 1.390 . S
C34 C31 1.339 . S
C34 C32 1.416 . S
C34 H41 0.930 . S
N35 Tb0 2.572 . S
N35 C36 1.340 . S
N35 C38 1.361 1_565 S
C36 H22 0.930 . S
C36 N35 1.340 . S
C36 C40 1.407 . S
C37 C38 1.413 . S
C37 C39 1.416 1_545 S
C37 C66 1.427 . S
C38 C30 1.424 . S
C38 N35 1.361 1_545 S
C38 C37 1.413 . S
C39 H28 0.931 . S
C39 C37 1.416 1_565 S
C39 C40 1.332 . S
C40 H19 0.929 . S
C40 C36 1.407 . S
C40 C39 1.332 . S
H41 C34 0.930 . S
H42 C65 0.930 . S
H43 C66 0.929 . S
O44 Tb0 2.465 . S
O44 C64 1.264 . S
O45 Tb0 2.387 1_545 S
O45 C56 1.264 . S
O46 Tb11 2.349 . S
O46 C56 1.243 . S
O47 Tb0 2.428 . S
O47 C64 1.256 . S
O48 Tb0 2.308 . S
O48 C63 1.266 . S
O49 Tb11 2.393 1_565 S
O49 C63 1.248 . S
O50 Tb11 2.465 . S
O50 C75 1.264 . S
O51 Tb11 2.387 1_565 S
O51 C67 1.264 . S
O52 Tb0 2.349 . S
O52 C67 1.243 . S
O53 Tb11 2.428 . S
O53 C75 1.256 . S
O54 Tb11 2.308 . S
O54 C74 1.266 . S
O55 Tb0 2.393 1_545 S
O55 C74 1.248 . S
C56 O45 1.264 . S
C56 O46 1.243 . S
C57 C60 1.399 . S
C57 C62 1.383 . S
C57 C64 1.496 . S
C58 C59 1.399 . S
C58 C62 1.389 . S
C59 C58 1.399 . S
C59 C61 1.380 . S
C59 H76 0.929 . S
C60 C57 1.399 . S
C60 C61 1.392 . S
C60 H77 0.929 . S
C61 C59 1.380 . S
C61 C60 1.392 . S
C61 H78 0.929 . S
C62 C57 1.383 . S
C62 C58 1.389 . S
C62 H79 0.931 . S
C63 O48 1.266 . S
C63 O49 1.248 . S
C64 Tb0 2.802 . S
C64 O44 1.264 . S
C64 O47 1.256 . S
C64 C57 1.496 . S
C65 C32 1.448 . S
C65 H42 0.930 . S
C65 C66 1.328 . S
C66 C37 1.427 . S
C66 H43 0.929 . S
C66 C65 1.328 . S
C67 O51 1.264 . S
C67 O52 1.243 . S
C68 C71 1.399 . S
C68 C72 1.383 . S
C68 C75 1.496 . S
C69 C70 1.399 . S
C69 C72 1.389 . S
C70 C69 1.399 . S
C70 C73 1.380 . S
C70 H80 0.929 . S
C71 C68 1.399 . S
C71 C73 1.392 . S
C71 H81 0.929 . S
C72 C68 1.383 . S
C72 C69 1.389 . S
C72 H82 0.931 . S
C73 C70 1.380 . S
C73 C71 1.392 . S
C73 H83 0.929 . S
C74 O54 1.266 . S
C74 O55 1.248 . S
C75 Tb11 2.802 . S
C75 O50 1.264 . S
C75 O53 1.256 . S
C75 C68 1.496 . S
H76 C59 0.929 . S
H77 C60 0.929 . S
H78 C61 0.929 . S
H79 C62 0.931 . S
H80 C70 0.929 . S
H81 C71 0.929 . S
H82 C72 0.931 . S
H83 C73 0.929 . S
Tb84 N113 2.617 . S
Tb84 N119 2.572 . S
Tb84 O128 2.465 . S
Tb84 O129 2.387 . S
Tb84 O131 2.428 . S
Tb84 O132 2.308 . S
Tb84 O136 2.349 . S
Tb84 O139 2.393 . S
Tb84 C148 2.802 . S
C85 N86 1.379 . S
C85 C88 1.416 . S
C85 C92 1.424 . S
N86 C85 1.379 . S
N86 C89 1.334 . S
N86 Tb95 2.617 . S
C87 C89 1.390 . S
C87 C90 1.339 . S
C87 H107 0.930 . S
C88 C85 1.416 . S
C88 C90 1.416 . S
C88 C94 1.448 . S
C89 N86 1.334 . S
C89 C87 1.390 . S
C89 H100 0.930 . S
C90 C87 1.339 . S
C90 C88 1.416 . S
C90 H111 0.930 . S
C91 C92 1.413 . S
C91 C93 1.427 . S
C91 C97 1.416 . S
C92 C85 1.424 . S
C92 C91 1.413 . S
C92 N96 1.361 . S
C93 C91 1.427 . S
C93 C94 1.328 . S
C93 H108 0.929 . S
C94 C88 1.448 . S
C94 C93 1.328 . S
C94 H109 0.930 . S
Tb95 N86 2.617 . S
Tb95 N96 2.572 . S
Tb95 O130 2.349 . S
Tb95 O133 2.393 . S
Tb95 O134 2.465 . S
Tb95 O135 2.387 . S
Tb95 O137 2.428 . S
Tb95 O138 2.308 . S
Tb95 C159 2.802 . S
N96 C92 1.361 . S
N96 Tb95 2.572 . S
N96 C98 1.340 . S
C97 C91 1.416 . S
C97 C99 1.332 . S
C97 H105 0.931 . S
C98 N96 1.340 . S
C98 C99 1.407 . S
C98 H104 0.930 . S
C99 C97 1.332 . S
C99 C98 1.407 . S
C99 H101 0.929 . S
H100 C89 0.930 . S
H101 C99 0.929 . S
H102 C117 0.930 . S
H103 C124 0.929 . S
H104 C98 0.930 . S
H105 C97 0.931 . S
H106 C120 0.930 . S
H107 C87 0.930 . S
H108 C93 0.929 . S
H109 C94 0.930 . S
H110 C115 0.930 . S
H111 C90 0.930 . S
H112 C123 0.931 . S
N113 Tb84 2.617 . S
N113 C114 1.379 . S
N113 C117 1.334 . S
C114 N113 1.379 . S
C114 C116 1.416 . S
C114 C122 1.424 . S
C115 H110 0.930 . S
C115 C117 1.390 . S
C115 C118 1.339 . S
C116 C114 1.416 . S
C116 C118 1.416 . S
C116 C149 1.448 . S
C117 H102 0.930 . S
C117 N113 1.334 . S
C117 C115 1.390 . S
C118 C115 1.339 . S
C118 C116 1.416 . S
C118 H125 0.930 . S
N119 Tb84 2.572 . S
N119 C120 1.340 . S
N119 C122 1.361 . S
C120 H106 0.930 . S
C120 N119 1.340 . S
C120 C124 1.407 . S
C121 C122 1.413 . S
C121 C123 1.416 . S
C121 C150 1.427 . S
C122 C114 1.424 . S
C122 N119 1.361 . S
C122 C121 1.413 . S
C123 H112 0.931 . S
C123 C121 1.416 . S
C123 C124 1.332 . S
C124 H103 0.929 . S
C124 C120 1.407 . S
C124 C123 1.332 . S
H125 C118 0.930 . S
H126 C149 0.930 . S
H127 C150 0.929 . S
O128 Tb84 2.465 . S
O128 C148 1.264 . S
O129 Tb84 2.387 . S
O129 C140 1.264 . S
O130 Tb95 2.349 . S
O130 C140 1.243 . S
O131 Tb84 2.428 . S
O131 C148 1.256 . S
O132 Tb84 2.308 . S
O132 C147 1.266 . S
O133 Tb95 2.393 . S
O133 C147 1.248 . S
O134 Tb95 2.465 . S
O134 C159 1.264 . S
O135 Tb95 2.387 . S
O135 C151 1.264 . S
O136 Tb84 2.349 . S
O136 C151 1.243 . S
O137 Tb95 2.428 . S
O137 C159 1.256 . S
O138 Tb95 2.308 . S
O138 C158 1.266 . S
O139 Tb84 2.393 . S
O139 C158 1.248 . S
C140 O129 1.264 . S
C140 O130 1.243 . S
C141 C144 1.399 . S
C141 C146 1.383 . S
C141 C148 1.496 . S
C142 C143 1.399 . S
C142 C146 1.389 . S
C143 C142 1.399 . S
C143 C145 1.380 . S
C143 H160 0.929 . S
C144 C141 1.399 . S
C144 C145 1.392 . S
C144 H161 0.929 . S
C145 C143 1.380 . S
C145 C144 1.392 . S
C145 H162 0.929 . S
C146 C141 1.383 . S
C146 C142 1.389 . S
C146 H163 0.931 . S
C147 O132 1.266 . S
C147 O133 1.248 . S
C148 Tb84 2.802 . S
C148 O128 1.264 . S
C148 O131 1.256 . S
C148 C141 1.496 . S
C149 C116 1.448 . S
C149 H126 0.930 . S
C149 C150 1.328 . S
C150 C121 1.427 . S
C150 H127 0.929 . S
C150 C149 1.328 . S
C151 O135 1.264 . S
C151 O136 1.243 . S
C152 C155 1.399 . S
C152 C156 1.383 . S
C152 C159 1.496 . S
C153 C154 1.399 . S
C153 C156 1.389 . S
C154 C153 1.399 . S
C154 C157 1.380 . S
C154 H164 0.929 . S
C155 C152 1.399 . S
C155 C157 1.392 . S
C155 H165 0.929 . S
C156 C152 1.383 . S
C156 C153 1.389 . S
C156 H166 0.931 . S
C157 C154 1.380 . S
C157 C155 1.392 . S
C157 H167 0.929 . S
C158 O138 1.266 . S
C158 O139 1.248 . S
C159 Tb95 2.802 . S
C159 O134 1.264 . S
C159 O137 1.256 . S
C159 C152 1.496 . S
H160 C143 0.929 . S
H161 C144 0.929 . S
H162 C145 0.929 . S
H163 C146 0.931 . S
H164 C154 0.929 . S
H165 C155 0.929 . S
H166 C156 0.931 . S
H167 C157 0.929 . S
Tb168 N197 2.617 1_455 S
Tb168 N203 2.572 . S
Tb168 O212 2.465 . S
Tb168 O213 2.387 1_455 S
Tb168 O215 2.428 . S
Tb168 O216 2.308 . S
Tb168 O220 2.349 . S
Tb168 O223 2.393 1_455 S
Tb168 C232 2.802 . S
C169 N170 1.379 . S
C169 C172 1.416 . S
C169 C176 1.424 . S
N170 C169 1.379 . S
N170 C173 1.334 . S
N170 Tb179 2.617 1_455 S
C171 C173 1.390 . S
C171 C174 1.339 . S
C171 H191 0.930 . S
C172 C169 1.416 . S
C172 C174 1.416 . S
C172 C178 1.448 . S
C173 N170 1.334 . S
C173 C171 1.390 . S
C173 H184 0.930 . S
C174 C171 1.339 . S
C174 C172 1.416 . S
C174 H195 0.930 . S
C175 C176 1.413 . S
C175 C177 1.427 . S
C175 C181 1.416 1_455 S
C176 C169 1.424 . S
C176 C175 1.413 . S
C176 N180 1.361 1_455 S
C177 C175 1.427 . S
C177 C178 1.328 . S
C177 H192 0.929 . S
C178 C172 1.448 . S
C178 C177 1.328 . S
C178 H193 0.930 . S
Tb179 N170 2.617 1_655 S
Tb179 N180 2.572 . S
Tb179 O214 2.349 . S
Tb179 O217 2.393 1_655 S
Tb179 O218 2.465 . S
Tb179 O219 2.387 1_655 S
Tb179 O221 2.428 . S
Tb179 O222 2.308 . S
Tb179 C243 2.802 . S
N180 C176 1.361 1_655 S
N180 Tb179 2.572 . S
N180 C182 1.340 . S
C181 C175 1.416 1_655 S
C181 C183 1.332 . S
C181 H189 0.931 . S
C182 N180 1.340 . S
C182 C183 1.407 . S
C182 H188 0.930 . S
C183 C181 1.332 . S
C183 C182 1.407 . S
C183 H185 0.929 . S
H184 C173 0.930 . S
H185 C183 0.929 . S
H186 C201 0.930 . S
H187 C208 0.929 . S
H188 C182 0.930 . S
H189 C181 0.931 . S
H190 C204 0.930 . S
H191 C171 0.930 . S
H192 C177 0.929 . S
H193 C178 0.930 . S
H194 C199 0.930 . S
H195 C174 0.930 . S
H196 C207 0.931 . S
N197 Tb168 2.617 1_655 S
N197 C198 1.379 . S
N197 C201 1.334 . S
C198 N197 1.379 . S
C198 C200 1.416 . S
C198 C206 1.424 . S
C199 H194 0.930 . S
C199 C201 1.390 . S
C199 C202 1.339 . S
C200 C198 1.416 . S
C200 C202 1.416 . S
C200 C233 1.448 . S
C201 H186 0.930 . S
C201 N197 1.334 . S
C201 C199 1.390 . S
C202 C199 1.339 . S
C202 C200 1.416 . S
C202 H209 0.930 . S
N203 Tb168 2.572 . S
N203 C204 1.340 . S
N203 C206 1.361 1_455 S
C204 H190 0.930 . S
C204 N203 1.340 . S
C204 C208 1.407 . S
C205 C206 1.413 . S
C205 C207 1.416 1_655 S
C205 C234 1.427 . S
C206 C198 1.424 . S
C206 N203 1.361 1_655 S
C206 C205 1.413 . S
C207 H196 0.931 . S
C207 C205 1.416 1_455 S
C207 C208 1.332 . S
C208 H187 0.929 . S
C208 C204 1.407 . S
C208 C207 1.332 . S
H209 C202 0.930 . S
H210 C233 0.930 . S
H211 C234 0.929 . S
O212 Tb168 2.465 . S
O212 C232 1.264 . S
O213 Tb168 2.387 1_655 S
O213 C224 1.264 . S
O214 Tb179 2.349 . S
O214 C224 1.243 . S
O215 Tb168 2.428 . S
O215 C232 1.256 . S
O216 Tb168 2.308 . S
O216 C231 1.266 . S
O217 Tb179 2.393 1_455 S
O217 C231 1.248 . S
O218 Tb179 2.465 . S
O218 C243 1.264 . S
O219 Tb179 2.387 1_455 S
O219 C235 1.264 . S
O220 Tb168 2.349 . S
O220 C235 1.243 . S
O221 Tb179 2.428 . S
O221 C243 1.256 . S
O222 Tb179 2.308 . S
O222 C242 1.266 . S
O223 Tb168 2.393 1_655 S
O223 C242 1.248 . S
C224 O213 1.264 . S
C224 O214 1.243 . S
C225 C228 1.399 . S
C225 C230 1.383 . S
C225 C232 1.496 . S
C226 C227 1.399 . S
C226 C230 1.389 . S
C227 C226 1.399 . S
C227 C229 1.380 . S
C227 H244 0.929 . S
C228 C225 1.399 . S
C228 C229 1.392 . S
C228 H245 0.929 . S
C229 C227 1.380 . S
C229 C228 1.392 . S
C229 H246 0.929 . S
C230 C225 1.383 . S
C230 C226 1.389 . S
C230 H247 0.931 . S
C231 O216 1.266 . S
C231 O217 1.248 . S
C232 Tb168 2.802 . S
C232 O212 1.264 . S
C232 O215 1.256 . S
C232 C225 1.496 . S
C233 C200 1.448 . S
C233 H210 0.930 . S
C233 C234 1.328 . S
C234 C205 1.427 . S
C234 H211 0.929 . S
C234 C233 1.328 . S
C235 O219 1.264 . S
C235 O220 1.243 . S
C236 C239 1.399 . S
C236 C240 1.383 . S
C236 C243 1.496 . S
C237 C238 1.399 . S
C237 C240 1.389 . S
C238 C237 1.399 . S
C238 C241 1.380 . S
C238 H248 0.929 . S
C239 C236 1.399 . S
C239 C241 1.392 . S
C239 H249 0.929 . S
C240 C236 1.383 . S
C240 C237 1.389 . S
C240 H250 0.931 . S
C241 C238 1.380 . S
C241 C239 1.392 . S
C241 H251 0.929 . S
C242 O222 1.266 . S
C242 O223 1.248 . S
C243 Tb179 2.802 . S
C243 O218 1.264 . S
C243 O221 1.256 . S
C243 C236 1.496 . S
H244 C227 0.929 . S
H245 C228 0.929 . S
H246 C229 0.929 . S
H247 C230 0.931 . S
H248 C238 0.929 . S
H249 C239 0.929 . S
H250 C240 0.931 . S
H251 C241 0.929 . S
Tb252 N281 2.617 1_545 S
Tb252 N287 2.572 . S
Tb252 O296 2.465 . S
Tb252 O297 2.387 1_545 S
Tb252 O299 2.428 . S
Tb252 O300 2.308 . S
Tb252 O304 2.349 . S
Tb252 O307 2.393 1_545 S
Tb252 C316 2.802 . S
C253 N254 1.379 . S
C253 C256 1.416 . S
C253 C260 1.424 . S
N254 C253 1.379 . S
N254 C257 1.334 . S
N254 Tb263 2.617 1_545 S
C255 C257 1.390 . S
C255 C258 1.339 . S
C255 H275 0.930 . S
C256 C253 1.416 . S
C256 C258 1.416 . S
C256 C262 1.448 . S
C257 N254 1.334 . S
C257 C255 1.390 . S
C257 H268 0.930 . S
C258 C255 1.339 . S
C258 C256 1.416 . S
C258 H279 0.930 . S
C259 C260 1.413 . S
C259 C261 1.427 . S
C259 C265 1.416 1_545 S
C260 C253 1.424 . S
C260 C259 1.413 . S
C260 N264 1.361 1_545 S
C261 C259 1.427 . S
C261 C262 1.328 . S
C261 H276 0.929 . S
C262 C256 1.448 . S
C262 C261 1.328 . S
C262 H277 0.930 . S
Tb263 N254 2.617 1_565 S
Tb263 N264 2.572 . S
Tb263 O298 2.349 . S
Tb263 O301 2.393 1_565 S
Tb263 O302 2.465 . S
Tb263 O303 2.387 1_565 S
Tb263 O305 2.428 . S
Tb263 O306 2.308 . S
Tb263 C327 2.802 . S
N264 C260 1.361 1_565 S
N264 Tb263 2.572 . S
N264 C266 1.340 . S
C265 C259 1.416 1_565 S
C265 C267 1.332 . S
C265 H273 0.931 . S
C266 N264 1.340 . S
C266 C267 1.407 . S
C266 H272 0.930 . S
C267 C265 1.332 . S
C267 C266 1.407 . S
C267 H269 0.929 . S
H268 C257 0.930 . S
H269 C267 0.929 . S
H270 C285 0.930 . S
H271 C292 0.929 . S
H272 C266 0.930 . S
H273 C265 0.931 . S
H274 C288 0.930 . S
H275 C255 0.930 . S
H276 C261 0.929 . S
H277 C262 0.930 . S
H278 C283 0.930 . S
H279 C258 0.930 . S
H280 C291 0.931 . S
N281 Tb252 2.617 1_565 S
N281 C282 1.379 . S
N281 C285 1.334 . S
C282 N281 1.379 . S
C282 C284 1.416 . S
C282 C290 1.424 . S
C283 H278 0.930 . S
C283 C285 1.390 . S
C283 C286 1.339 . S
C284 C282 1.416 . S
C284 C286 1.416 . S
C284 C317 1.448 . S
C285 H270 0.930 . S
C285 N281 1.334 . S
C285 C283 1.390 . S
C286 C283 1.339 . S
C286 C284 1.416 . S
C286 H293 0.930 . S
N287 Tb252 2.572 . S
N287 C288 1.340 . S
N287 C290 1.361 1_545 S
C288 H274 0.930 . S
C288 N287 1.340 . S
C288 C292 1.407 . S
C289 C290 1.413 . S
C289 C291 1.416 1_565 S
C289 C318 1.427 . S
C290 C282 1.424 . S
C290 N287 1.361 1_565 S
C290 C289 1.413 . S
C291 H280 0.931 . S
C291 C289 1.416 1_545 S
C291 C292 1.332 . S
C292 H271 0.929 . S
C292 C288 1.407 . S
C292 C291 1.332 . S
H293 C286 0.930 . S
H294 C317 0.930 . S
H295 C318 0.929 . S
O296 Tb252 2.465 . S
O296 C316 1.264 . S
O297 Tb252 2.387 1_565 S
O297 C308 1.264 . S
O298 Tb263 2.349 . S
O298 C308 1.243 . S
O299 Tb252 2.428 . S
O299 C316 1.256 . S
O300 Tb252 2.308 . S
O300 C315 1.266 . S
O301 Tb263 2.393 1_545 S
O301 C315 1.248 . S
O302 Tb263 2.465 . S
O302 C327 1.264 . S
O303 Tb263 2.387 1_545 S
O303 C319 1.264 . S
O304 Tb252 2.349 . S
O304 C319 1.243 . S
O305 Tb263 2.428 . S
O305 C327 1.256 . S
O306 Tb263 2.308 . S
O306 C326 1.266 . S
O307 Tb252 2.393 1_565 S
O307 C326 1.248 . S
C308 O297 1.264 . S
C308 O298 1.243 . S
C309 C312 1.399 . S
C309 C314 1.383 . S
C309 C316 1.496 . S
C310 C311 1.399 . S
C310 C314 1.389 . S
C311 C310 1.399 . S
C311 C313 1.380 . S
C311 H328 0.929 . S
C312 C309 1.399 . S
C312 C313 1.392 . S
C312 H329 0.929 . S
C313 C311 1.380 . S
C313 C312 1.392 . S
C313 H330 0.929 . S
C314 C309 1.383 . S
C314 C310 1.389 . S
C314 H331 0.931 . S
C315 O300 1.266 . S
C315 O301 1.248 . S
C316 Tb252 2.802 . S
C316 O296 1.264 . S
C316 O299 1.256 . S
C316 C309 1.496 . S
C317 C284 1.448 . S
C317 H294 0.930 . S
C317 C318 1.328 . S
C318 C289 1.427 . S
C318 H295 0.929 . S
C318 C317 1.328 . S
C319 O303 1.264 . S
C319 O304 1.243 . S
C320 C323 1.399 . S
C320 C324 1.383 . S
C320 C327 1.496 . S
C321 C322 1.399 . S
C321 C324 1.389 . S
C322 C321 1.399 . S
C322 C325 1.380 . S
C322 H332 0.929 . S
C323 C320 1.399 . S
C323 C325 1.392 . S
C323 H333 0.929 . S
C324 C320 1.383 . S
C324 C321 1.389 . S
C324 H334 0.931 . S
C325 C322 1.380 . S
C325 C323 1.392 . S
C325 H335 0.929 . S
C326 O306 1.266 . S
C326 O307 1.248 . S
C327 Tb263 2.802 . S
C327 O302 1.264 . S
C327 O305 1.256 . S
C327 C320 1.496 . S
H328 C311 0.929 . S
H329 C312 0.929 . S
H330 C313 0.929 . S
H331 C314 0.931 . S
H332 C322 0.929 . S
H333 C323 0.929 . S
H334 C324 0.931 . S
H335 C325 0.929 . S
Tb336 N365 2.617 . S
Tb336 N371 2.572 . S
Tb336 O380 2.465 . S
Tb336 O381 2.387 . S
Tb336 O383 2.428 1_554 S
Tb336 O384 2.308 . S
Tb336 O388 2.349 . S
Tb336 O391 2.393 . S
Tb336 C400 2.802 1_554 S
C337 N338 1.379 . S
C337 C340 1.416 . S
C337 C344 1.424 . S
N338 C337 1.379 . S
N338 C341 1.334 . S
N338 Tb347 2.617 . S
C339 C341 1.390 . S
C339 C342 1.339 . S
C339 H359 0.930 . S
C340 C337 1.416 . S
C340 C342 1.416 . S
C340 C346 1.448 . S
C341 N338 1.334 . S
C341 C339 1.390 . S
C341 H352 0.930 . S
C342 C339 1.339 . S
C342 C340 1.416 . S
C342 H363 0.930 . S
C343 C344 1.413 . S
C343 C345 1.427 . S
C343 C349 1.416 . S
C344 C337 1.424 . S
C344 C343 1.413 . S
C344 N348 1.361 . S
C345 C343 1.427 . S
C345 C346 1.328 . S
C345 H360 0.929 . S
C346 C340 1.448 . S
C346 C345 1.328 . S
C346 H361 0.930 . S
Tb347 N338 2.617 . S
Tb347 N348 2.572 . S
Tb347 O382 2.349 . S
Tb347 O385 2.393 . S
Tb347 O386 2.465 . S
Tb347 O387 2.387 . S
Tb347 O389 2.428 . S
Tb347 O390 2.308 . S
Tb347 C411 2.802 . S
N348 C344 1.361 . S
N348 Tb347 2.572 . S
N348 C350 1.340 . S
C349 C343 1.416 . S
C349 C351 1.332 . S
C349 H357 0.931 . S
C350 N348 1.340 . S
C350 C351 1.407 . S
C350 H356 0.930 . S
C351 C349 1.332 . S
C351 C350 1.407 . S
C351 H353 0.929 . S
H352 C341 0.930 . S
H353 C351 0.929 . S
H354 C369 0.930 . S
H355 C376 0.929 . S
H356 C350 0.930 . S
H357 C349 0.931 . S
H358 C372 0.930 . S
H359 C339 0.930 . S
H360 C345 0.929 . S
H361 C346 0.930 . S
H362 C367 0.930 . S
H363 C342 0.930 . S
H364 C375 0.931 . S
N365 Tb336 2.617 . S
N365 C366 1.379 . S
N365 C369 1.334 1_554 S
C366 N365 1.379 . S
C366 C368 1.416 . S
C366 C374 1.424 . S
C367 H362 0.930 . S
C367 C369 1.390 . S
C367 C370 1.339 . S
C368 C366 1.416 . S
C368 C370 1.416 1_554 S
C368 C401 1.448 . S
C369 H354 0.930 . S
C369 N365 1.334 1_556 S
C369 C367 1.390 . S
C370 C367 1.339 . S
C370 C368 1.416 1_556 S
C370 H377 0.930 . S
N371 Tb336 2.572 . S
N371 C372 1.340 . S
N371 C374 1.361 . S
C372 H358 0.930 . S
C372 N371 1.340 . S
C372 C376 1.407 . S
C373 C374 1.413 . S
C373 C375 1.416 . S
C373 C402 1.427 . S
C374 C366 1.424 . S
C374 N371 1.361 . S
C374 C373 1.413 . S
C375 H364 0.931 . S
C375 C373 1.416 . S
C375 C376 1.332 . S
C376 H355 0.929 . S
C376 C372 1.407 . S
C376 C375 1.332 . S
H377 C370 0.930 . S
H378 C401 0.930 . S
H379 C402 0.929 . S
O380 Tb336 2.465 . S
O380 C400 1.264 1_554 S
O381 Tb336 2.387 . S
O381 C392 1.264 . S
O382 Tb347 2.349 . S
O382 C392 1.243 . S
O383 Tb336 2.428 1_556 S
O383 C400 1.256 . S
O384 Tb336 2.308 . S
O384 C399 1.266 . S
O385 Tb347 2.393 . S
O385 C399 1.248 . S
O386 Tb347 2.465 . S
O386 C411 1.264 . S
O387 Tb347 2.387 . S
O387 C403 1.264 . S
O388 Tb336 2.349 . S
O388 C403 1.243 . S
O389 Tb347 2.428 . S
O389 C411 1.256 . S
O390 Tb347 2.308 . S
O390 C410 1.266 . S
O391 Tb336 2.393 . S
O391 C410 1.248 . S
C392 O381 1.264 . S
C392 O382 1.243 . S
C393 C396 1.399 . S
C393 C398 1.383 . S
C393 C400 1.496 . S
C394 C395 1.399 . S
C394 C398 1.389 . S
C395 C394 1.399 . S
C395 C397 1.380 . S
C395 H412 0.929 . S
C396 C393 1.399 . S
C396 C397 1.392 . S
C396 H413 0.929 . S
C397 C395 1.380 . S
C397 C396 1.392 . S
C397 H414 0.929 . S
C398 C393 1.383 . S
C398 C394 1.389 . S
C398 H415 0.931 . S
C399 O384 1.266 . S
C399 O385 1.248 . S
C400 Tb336 2.802 1_556 S
C400 O380 1.264 1_556 S
C400 O383 1.256 . S
C400 C393 1.496 . S
C401 C368 1.448 . S
C401 H378 0.930 . S
C401 C402 1.328 . S
C402 C373 1.427 . S
C402 H379 0.929 . S
C402 C401 1.328 . S
C403 O387 1.264 . S
C403 O388 1.243 . S
C404 C407 1.399 . S
C404 C408 1.383 . S
C404 C411 1.496 . S
C405 C406 1.399 . S
C405 C408 1.389 . S
C406 C405 1.399 . S
C406 C409 1.380 . S
C406 H416 0.929 . S
C407 C404 1.399 . S
C407 C409 1.392 . S
C407 H417 0.929 . S
C408 C404 1.383 . S
C408 C405 1.389 . S
C408 H418 0.931 . S
C409 C406 1.380 . S
C409 C407 1.392 . S
C409 H419 0.929 . S
C410 O390 1.266 . S
C410 O391 1.248 . S
C411 Tb347 2.802 . S
C411 O386 1.264 . S
C411 O389 1.256 . S
C411 C404 1.496 . S
H412 C395 0.929 . S
H413 C396 0.929 . S
H414 C397 0.929 . S
H415 C398 0.931 . S
H416 C406 0.929 . S
H417 C407 0.929 . S
H418 C408 0.931 . S
H419 C409 0.929 . S
Tb420 N449 2.617 1_655 S
Tb420 N455 2.572 . S
Tb420 O464 2.465 . S
Tb420 O465 2.387 1_655 S
Tb420 O467 2.428 . S
Tb420 O468 2.308 . S
Tb420 O472 2.349 . S
Tb420 O475 2.393 1_655 S
Tb420 C484 2.802 . S
C421 N422 1.379 . S
C421 C424 1.416 . S
C421 C428 1.424 . S
N422 C421 1.379 . S
N422 C425 1.334 . S
N422 Tb431 2.617 1_655 S
C423 C425 1.390 . S
C423 C426 1.339 . S
C423 H443 0.930 . S
C424 C421 1.416 . S
C424 C426 1.416 . S
C424 C430 1.448 . S
C425 N422 1.334 . S
C425 C423 1.390 . S
C425 H436 0.930 . S
C426 C423 1.339 . S
C426 C424 1.416 . S
C426 H447 0.930 . S
C427 C428 1.413 . S
C427 C429 1.427 . S
C427 C433 1.416 1_655 S
C428 C421 1.424 . S
C428 C427 1.413 . S
C428 N432 1.361 1_655 S
C429 C427 1.427 . S
C429 C430 1.328 . S
C429 H444 0.929 . S
C430 C424 1.448 . S
C430 C429 1.328 . S
C430 H445 0.930 . S
Tb431 N422 2.617 1_455 S
Tb431 N432 2.572 . S
Tb431 O466 2.349 . S
Tb431 O469 2.393 1_455 S
Tb431 O470 2.465 . S
Tb431 O471 2.387 1_455 S
Tb431 O473 2.428 . S
Tb431 O474 2.308 . S
Tb431 C495 2.802 . S
N432 C428 1.361 1_455 S
N432 Tb431 2.572 . S
N432 C434 1.340 . S
C433 C427 1.416 1_455 S
C433 C435 1.332 . S
C433 H441 0.931 . S
C434 N432 1.340 . S
C434 C435 1.407 . S
C434 H440 0.930 . S
C435 C433 1.332 . S
C435 C434 1.407 . S
C435 H437 0.929 . S
H436 C425 0.930 . S
H437 C435 0.929 . S
H438 C453 0.930 . S
H439 C460 0.929 . S
H440 C434 0.930 . S
H441 C433 0.931 . S
H442 C456 0.930 . S
H443 C423 0.930 . S
H444 C429 0.929 . S
H445 C430 0.930 . S
H446 C451 0.930 . S
H447 C426 0.930 . S
H448 C459 0.931 . S
N449 Tb420 2.617 1_455 S
N449 C450 1.379 . S
N449 C453 1.334 . S
C450 N449 1.379 . S
C450 C452 1.416 . S
C450 C458 1.424 . S
C451 H446 0.930 . S
C451 C453 1.390 . S
C451 C454 1.339 . S
C452 C450 1.416 . S
C452 C454 1.416 . S
C452 C485 1.448 . S
C453 H438 0.930 . S
C453 N449 1.334 . S
C453 C451 1.390 . S
C454 C451 1.339 . S
C454 C452 1.416 . S
C454 H461 0.930 . S
N455 Tb420 2.572 . S
N455 C456 1.340 . S
N455 C458 1.361 1_655 S
C456 H442 0.930 . S
C456 N455 1.340 . S
C456 C460 1.407 . S
C457 C458 1.413 . S
C457 C459 1.416 1_455 S
C457 C486 1.427 . S
C458 C450 1.424 . S
C458 N455 1.361 1_455 S
C458 C457 1.413 . S
C459 H448 0.931 . S
C459 C457 1.416 1_655 S
C459 C460 1.332 . S
C460 H439 0.929 . S
C460 C456 1.407 . S
C460 C459 1.332 . S
H461 C454 0.930 . S
H462 C485 0.930 . S
H463 C486 0.929 . S
O464 Tb420 2.465 . S
O464 C484 1.264 . S
O465 Tb420 2.387 1_455 S
O465 C476 1.264 . S
O466 Tb431 2.349 . S
O466 C476 1.243 . S
O467 Tb420 2.428 . S
O467 C484 1.256 . S
O468 Tb420 2.308 . S
O468 C483 1.266 . S
O469 Tb431 2.393 1_655 S
O469 C483 1.248 . S
O470 Tb431 2.465 . S
O470 C495 1.264 . S
O471 Tb431 2.387 1_655 S
O471 C487 1.264 . S
O472 Tb420 2.349 . S
O472 C487 1.243 . S
O473 Tb431 2.428 . S
O473 C495 1.256 . S
O474 Tb431 2.308 . S
O474 C494 1.266 . S
O475 Tb420 2.393 1_455 S
O475 C494 1.248 . S
C476 O465 1.264 . S
C476 O466 1.243 . S
C477 C480 1.399 . S
C477 C482 1.383 . S
C477 C484 1.496 . S
C478 C479 1.399 . S
C478 C482 1.389 . S
C479 C478 1.399 . S
C479 C481 1.380 . S
C479 H496 0.929 . S
C480 C477 1.399 . S
C480 C481 1.392 . S
C480 H497 0.929 . S
C481 C479 1.380 . S
C481 C480 1.392 . S
C481 H498 0.929 . S
C482 C477 1.383 . S
C482 C478 1.389 . S
C482 H499 0.931 . S
C483 O468 1.266 . S
C483 O469 1.248 . S
C484 Tb420 2.802 . S
C484 O464 1.264 . S
C484 O467 1.256 . S
C484 C477 1.496 . S
C485 C452 1.448 . S
C485 H462 0.930 . S
C485 C486 1.328 . S
C486 C457 1.427 . S
C486 H463 0.929 . S
C486 C485 1.328 . S
C487 O471 1.264 . S
C487 O472 1.243 . S
C488 C491 1.399 . S
C488 C492 1.383 . S
C488 C495 1.496 . S
C489 C490 1.399 . S
C489 C492 1.389 . S
C490 C489 1.399 . S
C490 C493 1.380 . S
C490 H500 0.929 . S
C491 C488 1.399 . S
C491 C493 1.392 . S
C491 H501 0.929 . S
C492 C488 1.383 . S
C492 C489 1.389 . S
C492 H502 0.931 . S
C493 C490 1.380 . S
C493 C491 1.392 . S
C493 H503 0.929 . S
C494 O474 1.266 . S
C494 O475 1.248 . S
C495 Tb431 2.802 . S
C495 O470 1.264 . S
C495 O473 1.256 . S
C495 C488 1.496 . S
H496 C479 0.929 . S
H497 C480 0.929 . S
H498 C481 0.929 . S
H499 C482 0.931 . S
H500 C490 0.929 . S
H501 C491 0.929 . S
H502 C492 0.931 . S
H503 C493 0.929 . S
Tb504 N533 2.617 1_455 S
Tb504 N539 2.572 . S
Tb504 O548 2.465 . S
Tb504 O549 2.387 1_455 S
Tb504 O551 2.428 . S
Tb504 O552 2.308 . S
Tb504 O556 2.349 . S
Tb504 O559 2.393 1_455 S
Tb504 C568 2.802 . S
C505 N506 1.379 . S
C505 C508 1.416 . S
C505 C512 1.424 . S
N506 C505 1.379 . S
N506 C509 1.334 . S
N506 Tb515 2.617 1_455 S
C507 C509 1.390 . S
C507 C510 1.339 . S
C507 H527 0.930 . S
C508 C505 1.416 . S
C508 C510 1.416 . S
C508 C514 1.448 . S
C509 N506 1.334 . S
C509 C507 1.390 . S
C509 H520 0.930 . S
C510 C507 1.339 . S
C510 C508 1.416 . S
C510 H531 0.930 . S
C511 C512 1.413 . S
C511 C513 1.427 . S
C511 C517 1.416 1_455 S
C512 C505 1.424 . S
C512 C511 1.413 . S
C512 N516 1.361 1_455 S
C513 C511 1.427 . S
C513 C514 1.328 . S
C513 H528 0.929 . S
C514 C508 1.448 . S
C514 C513 1.328 . S
C514 H529 0.930 . S
Tb515 N506 2.617 1_655 S
Tb515 N516 2.572 . S
Tb515 O550 2.349 . S
Tb515 O553 2.393 1_655 S
Tb515 O554 2.465 . S
Tb515 O555 2.387 1_655 S
Tb515 O557 2.428 . S
Tb515 O558 2.308 . S
Tb515 C579 2.802 . S
N516 C512 1.361 1_655 S
N516 Tb515 2.572 . S
N516 C518 1.340 . S
C517 C511 1.416 1_655 S
C517 C519 1.332 . S
C517 H525 0.931 . S
C518 N516 1.340 . S
C518 C519 1.407 . S
C518 H524 0.930 . S
C519 C517 1.332 . S
C519 C518 1.407 . S
C519 H521 0.929 . S
H520 C509 0.930 . S
H521 C519 0.929 . S
H522 C537 0.930 . S
H523 C544 0.929 . S
H524 C518 0.930 . S
H525 C517 0.931 . S
H526 C540 0.930 . S
H527 C507 0.930 . S
H528 C513 0.929 . S
H529 C514 0.930 . S
H530 C535 0.930 . S
H531 C510 0.930 . S
H532 C543 0.931 . S
N533 Tb504 2.617 1_655 S
N533 C534 1.379 . S
N533 C537 1.334 . S
C534 N533 1.379 . S
C534 C536 1.416 . S
C534 C542 1.424 . S
C535 H530 0.930 . S
C535 C537 1.390 . S
C535 C538 1.339 . S
C536 C534 1.416 . S
C536 C538 1.416 . S
C536 C569 1.448 . S
C537 H522 0.930 . S
C537 N533 1.334 . S
C537 C535 1.390 . S
C538 C535 1.339 . S
C538 C536 1.416 . S
C538 H545 0.930 . S
N539 Tb504 2.572 . S
N539 C540 1.340 . S
N539 C542 1.361 1_455 S
C540 H526 0.930 . S
C540 N539 1.340 . S
C540 C544 1.407 . S
C541 C542 1.413 . S
C541 C543 1.416 1_655 S
C541 C570 1.427 . S
C542 C534 1.424 . S
C542 N539 1.361 1_655 S
C542 C541 1.413 . S
C543 H532 0.931 . S
C543 C541 1.416 1_455 S
C543 C544 1.332 . S
C544 H523 0.929 . S
C544 C540 1.407 . S
C544 C543 1.332 . S
H545 C538 0.930 . S
H546 C569 0.930 . S
H547 C570 0.929 . S
O548 Tb504 2.465 . S
O548 C568 1.264 . S
O549 Tb504 2.387 1_655 S
O549 C560 1.264 . S
O550 Tb515 2.349 . S
O550 C560 1.243 . S
O551 Tb504 2.428 . S
O551 C568 1.256 . S
O552 Tb504 2.308 . S
O552 C567 1.266 . S
O553 Tb515 2.393 1_455 S
O553 C567 1.248 . S
O554 Tb515 2.465 . S
O554 C579 1.264 . S
O555 Tb515 2.387 1_455 S
O555 C571 1.264 . S
O556 Tb504 2.349 . S
O556 C571 1.243 . S
O557 Tb515 2.428 . S
O557 C579 1.256 . S
O558 Tb515 2.308 . S
O558 C578 1.266 . S
O559 Tb504 2.393 1_655 S
O559 C578 1.248 . S
C560 O549 1.264 . S
C560 O550 1.243 . S
C561 C564 1.399 . S
C561 C566 1.383 . S
C561 C568 1.496 . S
C562 C563 1.399 . S
C562 C566 1.389 . S
C563 C562 1.399 . S
C563 C565 1.380 . S
C563 H580 0.929 . S
C564 C561 1.399 . S
C564 C565 1.392 . S
C564 H581 0.929 . S
C565 C563 1.380 . S
C565 C564 1.392 . S
C565 H582 0.929 . S
C566 C561 1.383 . S
C566 C562 1.389 . S
C566 H583 0.931 . S
C567 O552 1.266 . S
C567 O553 1.248 . S
C568 Tb504 2.802 . S
C568 O548 1.264 . S
C568 O551 1.256 . S
C568 C561 1.496 . S
C569 C536 1.448 . S
C569 H546 0.930 . S
C569 C570 1.328 . S
C570 C541 1.427 . S
C570 H547 0.929 . S
C570 C569 1.328 . S
C571 O555 1.264 . S
C571 O556 1.243 . S
C572 C575 1.399 . S
C572 C576 1.383 . S
C572 C579 1.496 . S
C573 C574 1.399 . S
C573 C576 1.389 . S
C574 C573 1.399 . S
C574 C577 1.380 . S
C574 H584 0.929 . S
C575 C572 1.399 . S
C575 C577 1.392 . S
C575 H585 0.929 . S
C576 C572 1.383 . S
C576 C573 1.389 . S
C576 H586 0.931 . S
C577 C574 1.380 . S
C577 C575 1.392 . S
C577 H587 0.929 . S
C578 O558 1.266 . S
C578 O559 1.248 . S
C579 Tb515 2.802 . S
C579 O554 1.264 . S
C579 O557 1.256 . S
C579 C572 1.496 . S
H580 C563 0.929 . S
H581 C564 0.929 . S
H582 C565 0.929 . S
H583 C566 0.931 . S
H584 C574 0.929 . S
H585 C575 0.929 . S
H586 C576 0.931 . S
H587 C577 0.929 . S
Tb588 N617 2.617 1_545 S
Tb588 N623 2.572 . S
Tb588 O632 2.465 . S
Tb588 O633 2.387 1_545 S
Tb588 O635 2.428 . S
Tb588 O636 2.308 . S
Tb588 O640 2.349 . S
Tb588 O643 2.393 1_545 S
Tb588 C652 2.802 . S
C589 N590 1.379 . S
C589 C592 1.416 . S
C589 C596 1.424 . S
N590 C589 1.379 . S
N590 C593 1.334 . S
N590 Tb599 2.617 1_545 S
C591 C593 1.390 . S
C591 C594 1.339 . S
C591 H611 0.930 . S
C592 C589 1.416 . S
C592 C594 1.416 . S
C592 C598 1.448 . S
C593 N590 1.334 . S
C593 C591 1.390 . S
C593 H604 0.930 . S
C594 C591 1.339 . S
C594 C592 1.416 . S
C594 H615 0.930 . S
C595 C596 1.413 . S
C595 C597 1.427 . S
C595 C601 1.416 1_545 S
C596 C589 1.424 . S
C596 C595 1.413 . S
C596 N600 1.361 1_545 S
C597 C595 1.427 . S
C597 C598 1.328 . S
C597 H612 0.929 . S
C598 C592 1.448 . S
C598 C597 1.328 . S
C598 H613 0.930 . S
Tb599 N590 2.617 1_565 S
Tb599 N600 2.572 . S
Tb599 O634 2.349 . S
Tb599 O637 2.393 1_565 S
Tb599 O638 2.465 . S
Tb599 O639 2.387 1_565 S
Tb599 O641 2.428 . S
Tb599 O642 2.308 . S
Tb599 C663 2.802 . S
N600 C596 1.361 1_565 S
N600 Tb599 2.572 . S
N600 C602 1.340 . S
C601 C595 1.416 1_565 S
C601 C603 1.332 . S
C601 H609 0.931 . S
C602 N600 1.340 . S
C602 C603 1.407 . S
C602 H608 0.930 . S
C603 C601 1.332 . S
C603 C602 1.407 . S
C603 H605 0.929 . S
H604 C593 0.930 . S
H605 C603 0.929 . S
H606 C621 0.930 . S
H607 C628 0.929 . S
H608 C602 0.930 . S
H609 C601 0.931 . S
H610 C624 0.930 . S
H611 C591 0.930 . S
H612 C597 0.929 . S
H613 C598 0.930 . S
H614 C619 0.930 . S
H615 C594 0.930 . S
H616 C627 0.931 . S
N617 Tb588 2.617 1_565 S
N617 C618 1.379 . S
N617 C621 1.334 . S
C618 N617 1.379 . S
C618 C620 1.416 . S
C618 C626 1.424 . S
C619 H614 0.930 . S
C619 C621 1.390 . S
C619 C622 1.339 . S
C620 C618 1.416 . S
C620 C622 1.416 . S
C620 C653 1.448 . S
C621 H606 0.930 . S
C621 N617 1.334 . S
C621 C619 1.390 . S
C622 C619 1.339 . S
C622 C620 1.416 . S
C622 H629 0.930 . S
N623 Tb588 2.572 . S
N623 C624 1.340 . S
N623 C626 1.361 1_545 S
C624 H610 0.930 . S
C624 N623 1.340 . S
C624 C628 1.407 . S
C625 C626 1.413 . S
C625 C627 1.416 1_565 S
C625 C654 1.427 . S
C626 C618 1.424 . S
C626 N623 1.361 1_565 S
C626 C625 1.413 . S
C627 H616 0.931 . S
C627 C625 1.416 1_545 S
C627 C628 1.332 . S
C628 H607 0.929 . S
C628 C624 1.407 . S
C628 C627 1.332 . S
H629 C622 0.930 . S
H630 C653 0.930 . S
H631 C654 0.929 . S
O632 Tb588 2.465 . S
O632 C652 1.264 . S
O633 Tb588 2.387 1_565 S
O633 C644 1.264 . S
O634 Tb599 2.349 . S
O634 C644 1.243 . S
O635 Tb588 2.428 . S
O635 C652 1.256 . S
O636 Tb588 2.308 . S
O636 C651 1.266 . S
O637 Tb599 2.393 1_545 S
O637 C651 1.248 . S
O638 Tb599 2.465 . S
O638 C663 1.264 . S
O639 Tb599 2.387 1_545 S
O639 C655 1.264 . S
O640 Tb588 2.349 . S
O640 C655 1.243 . S
O641 Tb599 2.428 . S
O641 C663 1.256 . S
O642 Tb599 2.308 . S
O642 C662 1.266 . S
O643 Tb588 2.393 1_565 S
O643 C662 1.248 . S
C644 O633 1.264 . S
C644 O634 1.243 . S
C645 C648 1.399 . S
C645 C650 1.383 . S
C645 C652 1.496 . S
C646 C647 1.399 . S
C646 C650 1.389 . S
C647 C646 1.399 . S
C647 C649 1.380 . S
C647 H664 0.929 . S
C648 C645 1.399 . S
C648 C649 1.392 . S
C648 H665 0.929 . S
C649 C647 1.380 . S
C649 C648 1.392 . S
C649 H666 0.929 . S
C650 C645 1.383 . S
C650 C646 1.389 . S
C650 H667 0.931 . S
C651 O636 1.266 . S
C651 O637 1.248 . S
C652 Tb588 2.802 . S
C652 O632 1.264 . S
C652 O635 1.256 . S
C652 C645 1.496 . S
C653 C620 1.448 . S
C653 H630 0.930 . S
C653 C654 1.328 . S
C654 C625 1.427 . S
C654 H631 0.929 . S
C654 C653 1.328 . S
C655 O639 1.264 . S
C655 O640 1.243 . S
C656 C659 1.399 . S
C656 C660 1.383 . S
C656 C663 1.496 . S
C657 C658 1.399 . S
C657 C660 1.389 . S
C658 C657 1.399 . S
C658 C661 1.380 . S
C658 H668 0.929 . S
C659 C656 1.399 . S
C659 C661 1.392 . S
C659 H669 0.929 . S
C660 C656 1.383 . S
C660 C657 1.389 . S
C660 H670 0.931 . S
C661 C658 1.380 . S
C661 C659 1.392 . S
C661 H671 0.929 . S
C662 O642 1.266 . S
C662 O643 1.248 . S
C663 Tb599 2.802 . S
C663 O638 1.264 . S
C663 O641 1.256 . S
C663 C656 1.496 . S
H664 C647 0.929 . S
H665 C648 0.929 . S
H666 C649 0.929 . S
H667 C650 0.931 . S
H668 C658 0.929 . S
H669 C659 0.929 . S
H670 C660 0.931 . S
H671 C661 0.929 . S
Tb672 N701 2.617 . S
Tb672 N707 2.572 . S
Tb672 O716 2.465 . S
Tb672 O717 2.387 . S
Tb672 O719 2.428 . S
Tb672 O720 2.308 . S
Tb672 O724 2.349 . S
Tb672 O727 2.393 . S
Tb672 C736 2.802 . S
C673 N674 1.379 . S
C673 C676 1.416 . S
C673 C680 1.424 . S
N674 C673 1.379 . S
N674 C677 1.334 . S
N674 Tb683 2.617 . S
C675 C677 1.390 . S
C675 C678 1.339 . S
C675 H695 0.930 . S
C676 C673 1.416 . S
C676 C678 1.416 . S
C676 C682 1.448 . S
C677 N674 1.334 . S
C677 C675 1.390 . S
C677 H688 0.930 . S
C678 C675 1.339 . S
C678 C676 1.416 . S
C678 H699 0.930 . S
C679 C680 1.413 . S
C679 C681 1.427 . S
C679 C685 1.416 . S
C680 C673 1.424 . S
C680 C679 1.413 . S
C680 N684 1.361 . S
C681 C679 1.427 . S
C681 C682 1.328 . S
C681 H696 0.929 . S
C682 C676 1.448 . S
C682 C681 1.328 . S
C682 H697 0.930 . S
Tb683 N674 2.617 . S
Tb683 N684 2.572 . S
Tb683 O718 2.349 . S
Tb683 O721 2.393 . S
Tb683 O722 2.465 . S
Tb683 O723 2.387 . S
Tb683 O725 2.428 . S
Tb683 O726 2.308 . S
Tb683 C747 2.802 . S
N684 C680 1.361 . S
N684 Tb683 2.572 . S
N684 C686 1.340 . S
C685 C679 1.416 . S
C685 C687 1.332 . S
C685 H693 0.931 . S
C686 N684 1.340 . S
C686 C687 1.407 . S
C686 H692 0.930 . S
C687 C685 1.332 . S
C687 C686 1.407 . S
C687 H689 0.929 . S
H688 C677 0.930 . S
H689 C687 0.929 . S
H690 C705 0.930 . S
H691 C712 0.929 . S
H692 C686 0.930 . S
H693 C685 0.931 . S
H694 C708 0.930 . S
H695 C675 0.930 . S
H696 C681 0.929 . S
H697 C682 0.930 . S
H698 C703 0.930 . S
H699 C678 0.930 . S
H700 C711 0.931 . S
N701 Tb672 2.617 . S
N701 C702 1.379 . S
N701 C705 1.334 . S
C702 N701 1.379 . S
C702 C704 1.416 . S
C702 C710 1.424 . S
C703 H698 0.930 . S
C703 C705 1.390 . S
C703 C706 1.339 . S
C704 C702 1.416 . S
C704 C706 1.416 . S
C704 C737 1.448 . S
C705 H690 0.930 . S
C705 N701 1.334 . S
C705 C703 1.390 . S
C706 C703 1.339 . S
C706 C704 1.416 . S
C706 H713 0.930 . S
N707 Tb672 2.572 . S
N707 C708 1.340 . S
N707 C710 1.361 . S
C708 H694 0.930 . S
C708 N707 1.340 . S
C708 C712 1.407 . S
C709 C710 1.413 . S
C709 C711 1.416 . S
C709 C738 1.427 . S
C710 C702 1.424 . S
C710 N707 1.361 . S
C710 C709 1.413 . S
C711 H700 0.931 . S
C711 C709 1.416 . S
C711 C712 1.332 . S
C712 H691 0.929 . S
C712 C708 1.407 . S
C712 C711 1.332 . S
H713 C706 0.930 . S
H714 C737 0.930 . S
H715 C738 0.929 . S
O716 Tb672 2.465 . S
O716 C736 1.264 . S
O717 Tb672 2.387 . S
O717 C728 1.264 . S
O718 Tb683 2.349 . S
O718 C728 1.243 . S
O719 Tb672 2.428 . S
O719 C736 1.256 . S
O720 Tb672 2.308 . S
O720 C735 1.266 . S
O721 Tb683 2.393 . S
O721 C735 1.248 . S
O722 Tb683 2.465 . S
O722 C747 1.264 . S
O723 Tb683 2.387 . S
O723 C739 1.264 . S
O724 Tb672 2.349 . S
O724 C739 1.243 . S
O725 Tb683 2.428 . S
O725 C747 1.256 . S
O726 Tb683 2.308 . S
O726 C746 1.266 . S
O727 Tb672 2.393 . S
O727 C746 1.248 . S
C728 O717 1.264 . S
C728 O718 1.243 . S
C729 C732 1.399 . S
C729 C734 1.383 . S
C729 C736 1.496 . S
C730 C731 1.399 . S
C730 C734 1.389 . S
C731 C730 1.399 . S
C731 C733 1.380 . S
C731 H748 0.929 . S
C732 C729 1.399 . S
C732 C733 1.392 . S
C732 H749 0.929 . S
C733 C731 1.380 . S
C733 C732 1.392 . S
C733 H750 0.929 . S
C734 C729 1.383 . S
C734 C730 1.389 . S
C734 H751 0.931 . S
C735 O720 1.266 . S
C735 O721 1.248 . S
C736 Tb672 2.802 . S
C736 O716 1.264 . S
C736 O719 1.256 . S
C736 C729 1.496 . S
C737 C704 1.448 . S
C737 H714 0.930 . S
C737 C738 1.328 . S
C738 C709 1.427 . S
C738 H715 0.929 . S
C738 C737 1.328 . S
C739 O723 1.264 . S
C739 O724 1.243 . S
C740 C743 1.399 . S
C740 C744 1.383 . S
C740 C747 1.496 . S
C741 C742 1.399 . S
C741 C744 1.389 . S
C742 C741 1.399 . S
C742 C745 1.380 . S
C742 H752 0.929 . S
C743 C740 1.399 . S
C743 C745 1.392 . S
C743 H753 0.929 . S
C744 C740 1.383 . S
C744 C741 1.389 . S
C744 H754 0.931 . S
C745 C742 1.380 . S
C745 C743 1.392 . S
C745 H755 0.929 . S
C746 O726 1.266 . S
C746 O727 1.248 . S
C747 Tb683 2.802 . S
C747 O722 1.264 . S
C747 O725 1.256 . S
C747 C740 1.496 . S
H748 C731 0.929 . S
H749 C732 0.929 . S
H750 C733 0.929 . S
H751 C734 0.931 . S
H752 C742 0.929 . S
H753 C743 0.929 . S
H754 C744 0.931 . S
H755 C745 0.929 . S
Tb756 N785 2.617 1_655 S
Tb756 N791 2.572 . S
Tb756 O800 2.465 . S
Tb756 O801 2.387 1_655 S
Tb756 O803 2.428 1_556 S
Tb756 O804 2.308 . S
Tb756 O808 2.349 . S
Tb756 O811 2.393 1_655 S
Tb756 C820 2.802 1_556 S
C757 N758 1.379 . S
C757 C760 1.416 . S
C757 C764 1.424 . S
N758 C757 1.379 . S
N758 C761 1.334 . S
N758 Tb767 2.617 1_655 S
C759 C761 1.390 . S
C759 C762 1.339 . S
C759 H779 0.930 . S
C760 C757 1.416 . S
C760 C762 1.416 . S
C760 C766 1.448 . S
C761 N758 1.334 . S
C761 C759 1.390 . S
C761 H772 0.930 . S
C762 C759 1.339 . S
C762 C760 1.416 . S
C762 H783 0.930 . S
C763 C764 1.413 . S
C763 C765 1.427 . S
C763 C769 1.416 1_655 S
C764 C757 1.424 . S
C764 C763 1.413 . S
C764 N768 1.361 1_655 S
C765 C763 1.427 . S
C765 C766 1.328 . S
C765 H780 0.929 . S
C766 C760 1.448 . S
C766 C765 1.328 . S
C766 H781 0.930 . S
Tb767 N758 2.617 1_455 S
Tb767 N768 2.572 . S
Tb767 O802 2.349 . S
Tb767 O805 2.393 1_455 S
Tb767 O806 2.465 . S
Tb767 O807 2.387 1_455 S
Tb767 O809 2.428 . S
Tb767 O810 2.308 . S
Tb767 C831 2.802 . S
N768 C764 1.361 1_455 S
N768 Tb767 2.572 . S
N768 C770 1.340 . S
C769 C763 1.416 1_455 S
C769 C771 1.332 . S
C769 H777 0.931 . S
C770 N768 1.340 . S
C770 C771 1.407 . S
C770 H776 0.930 . S
C771 C769 1.332 . S
C771 C770 1.407 . S
C771 H773 0.929 . S
H772 C761 0.930 . S
H773 C771 0.929 . S
H774 C789 0.930 . S
H775 C796 0.929 . S
H776 C770 0.930 . S
H777 C769 0.931 . S
H778 C792 0.930 . S
H779 C759 0.930 . S
H780 C765 0.929 . S
H781 C766 0.930 . S
H782 C787 0.930 . S
H783 C762 0.930 . S
H784 C795 0.931 . S
N785 Tb756 2.617 1_455 S
N785 C786 1.379 . S
N785 C789 1.334 1_556 S
C786 N785 1.379 . S
C786 C788 1.416 . S
C786 C794 1.424 . S
C787 H782 0.930 . S
C787 C789 1.390 . S
C787 C790 1.339 . S
C788 C786 1.416 . S
C788 C790 1.416 1_556 S
C788 C821 1.448 . S
C789 H774 0.930 . S
C789 N785 1.334 1_554 S
C789 C787 1.390 . S
C790 C787 1.339 . S
C790 C788 1.416 1_554 S
C790 H797 0.930 . S
N791 Tb756 2.572 . S
N791 C792 1.340 . S
N791 C794 1.361 1_655 S
C792 H778 0.930 . S
C792 N791 1.340 . S
C792 C796 1.407 . S
C793 C794 1.413 . S
C793 C795 1.416 1_455 S
C793 C822 1.427 . S
C794 C786 1.424 . S
C794 N791 1.361 1_455 S
C794 C793 1.413 . S
C795 H784 0.931 . S
C795 C793 1.416 1_655 S
C795 C796 1.332 . S
C796 H775 0.929 . S
C796 C792 1.407 . S
C796 C795 1.332 . S
H797 C790 0.930 . S
H798 C821 0.930 . S
H799 C822 0.929 . S
O800 Tb756 2.465 . S
O800 C820 1.264 1_556 S
O801 Tb756 2.387 1_455 S
O801 C812 1.264 . S
O802 Tb767 2.349 . S
O802 C812 1.243 . S
O803 Tb756 2.428 1_554 S
O803 C820 1.256 . S
O804 Tb756 2.308 . S
O804 C819 1.266 . S
O805 Tb767 2.393 1_655 S
O805 C819 1.248 . S
O806 Tb767 2.465 . S
O806 C831 1.264 . S
O807 Tb767 2.387 1_655 S
O807 C823 1.264 . S
O808 Tb756 2.349 . S
O808 C823 1.243 . S
O809 Tb767 2.428 . S
O809 C831 1.256 . S
O810 Tb767 2.308 . S
O810 C830 1.266 . S
O811 Tb756 2.393 1_455 S
O811 C830 1.248 . S
C812 O801 1.264 . S
C812 O802 1.243 . S
C813 C816 1.399 . S
C813 C818 1.383 . S
C813 C820 1.496 . S
C814 C815 1.399 . S
C814 C818 1.389 . S
C815 C814 1.399 . S
C815 C817 1.380 . S
C815 H832 0.929 . S
C816 C813 1.399 . S
C816 C817 1.392 . S
C816 H833 0.929 . S
C817 C815 1.380 . S
C817 C816 1.392 . S
C817 H834 0.929 . S
C818 C813 1.383 . S
C818 C814 1.389 . S
C818 H835 0.931 . S
C819 O804 1.266 . S
C819 O805 1.248 . S
C820 Tb756 2.802 1_554 S
C820 O800 1.264 1_554 S
C820 O803 1.256 . S
C820 C813 1.496 . S
C821 C788 1.448 . S
C821 H798 0.930 . S
C821 C822 1.328 . S
C822 C793 1.427 . S
C822 H799 0.929 . S
C822 C821 1.328 . S
C823 O807 1.264 . S
C823 O808 1.243 . S
C824 C827 1.399 . S
C824 C828 1.383 . S
C824 C831 1.496 . S
C825 C826 1.399 . S
C825 C828 1.389 . S
C826 C825 1.399 . S
C826 C829 1.380 . S
C826 H836 0.929 . S
C827 C824 1.399 . S
C827 C829 1.392 . S
C827 H837 0.929 . S
C828 C824 1.383 . S
C828 C825 1.389 . S
C828 H838 0.931 . S
C829 C826 1.380 . S
C829 C827 1.392 . S
C829 H839 0.929 . S
C830 O810 1.266 . S
C830 O811 1.248 . S
C831 Tb767 2.802 . S
C831 O806 1.264 . S
C831 O809 1.256 . S
C831 C824 1.496 . S
H832 C815 0.929 . S
H833 C816 0.929 . S
H834 C817 0.929 . S
H835 C818 0.931 . S
H836 C826 0.929 . S
H837 C827 0.929 . S
H838 C828 0.931 . S
H839 C829 0.929 . S
Tb840 N869 2.617 1_565 S
Tb840 N875 2.572 . S
Tb840 O884 2.465 . S
Tb840 O885 2.387 1_565 S
Tb840 O887 2.428 . S
Tb840 O888 2.308 . S
Tb840 O892 2.349 . S
Tb840 O895 2.393 1_565 S
Tb840 C904 2.802 . S
C841 N842 1.379 . S
C841 C844 1.416 . S
C841 C848 1.424 . S
N842 C841 1.379 . S
N842 C845 1.334 . S
N842 Tb851 2.617 1_565 S
C843 C845 1.390 . S
C843 C846 1.339 . S
C843 H863 0.930 . S
C844 C841 1.416 . S
C844 C846 1.416 . S
C844 C850 1.448 . S
C845 N842 1.334 . S
C845 C843 1.390 . S
C845 H856 0.930 . S
C846 C843 1.339 . S
C846 C844 1.416 . S
C846 H867 0.930 . S
C847 C848 1.413 . S
C847 C849 1.427 . S
C847 C853 1.416 1_565 S
C848 C841 1.424 . S
C848 C847 1.413 . S
C848 N852 1.361 1_565 S
C849 C847 1.427 . S
C849 C850 1.328 . S
C849 H864 0.929 . S
C850 C844 1.448 . S
C850 C849 1.328 . S
C850 H865 0.930 . S
Tb851 N842 2.617 1_545 S
Tb851 N852 2.572 . S
Tb851 O886 2.349 . S
Tb851 O889 2.393 1_545 S
Tb851 O890 2.465 . S
Tb851 O891 2.387 1_545 S
Tb851 O893 2.428 . S
Tb851 O894 2.308 . S
Tb851 C915 2.802 . S
N852 C848 1.361 1_545 S
N852 Tb851 2.572 . S
N852 C854 1.340 . S
C853 C847 1.416 1_545 S
C853 C855 1.332 . S
C853 H861 0.931 . S
C854 N852 1.340 . S
C854 C855 1.407 . S
C854 H860 0.930 . S
C855 C853 1.332 . S
C855 C854 1.407 . S
C855 H857 0.929 . S
H856 C845 0.930 . S
H857 C855 0.929 . S
H858 C873 0.930 . S
H859 C880 0.929 . S
H860 C854 0.930 . S
H861 C853 0.931 . S
H862 C876 0.930 . S
H863 C843 0.930 . S
H864 C849 0.929 . S
H865 C850 0.930 . S
H866 C871 0.930 . S
H867 C846 0.930 . S
H868 C879 0.931 . S
N869 Tb840 2.617 1_545 S
N869 C870 1.379 . S
N869 C873 1.334 . S
C870 N869 1.379 . S
C870 C872 1.416 . S
C870 C878 1.424 . S
C871 H866 0.930 . S
C871 C873 1.390 . S
C871 C874 1.339 . S
C872 C870 1.416 . S
C872 C874 1.416 . S
C872 C905 1.448 . S
C873 H858 0.930 . S
C873 N869 1.334 . S
C873 C871 1.390 . S
C874 C871 1.339 . S
C874 C872 1.416 . S
C874 H881 0.930 . S
N875 Tb840 2.572 . S
N875 C876 1.340 . S
N875 C878 1.361 1_565 S
C876 H862 0.930 . S
C876 N875 1.340 . S
C876 C880 1.407 . S
C877 C878 1.413 . S
C877 C879 1.416 1_545 S
C877 C906 1.427 . S
C878 C870 1.424 . S
C878 N875 1.361 1_545 S
C878 C877 1.413 . S
C879 H868 0.931 . S
C879 C877 1.416 1_565 S
C879 C880 1.332 . S
C880 H859 0.929 . S
C880 C876 1.407 . S
C880 C879 1.332 . S
H881 C874 0.930 . S
H882 C905 0.930 . S
H883 C906 0.929 . S
O884 Tb840 2.465 . S
O884 C904 1.264 . S
O885 Tb840 2.387 1_545 S
O885 C896 1.264 . S
O886 Tb851 2.349 . S
O886 C896 1.243 . S
O887 Tb840 2.428 . S
O887 C904 1.256 . S
O888 Tb840 2.308 . S
O888 C903 1.266 . S
O889 Tb851 2.393 1_565 S
O889 C903 1.248 . S
O890 Tb851 2.465 . S
O890 C915 1.264 . S
O891 Tb851 2.387 1_565 S
O891 C907 1.264 . S
O892 Tb840 2.349 . S
O892 C907 1.243 . S
O893 Tb851 2.428 . S
O893 C915 1.256 . S
O894 Tb851 2.308 . S
O894 C914 1.266 . S
O895 Tb840 2.393 1_545 S
O895 C914 1.248 . S
C896 O885 1.264 . S
C896 O886 1.243 . S
C897 C900 1.399 . S
C897 C902 1.383 . S
C897 C904 1.496 . S
C898 C899 1.399 . S
C898 C902 1.389 . S
C899 C898 1.399 . S
C899 C901 1.380 . S
C899 H916 0.929 . S
C900 C897 1.399 . S
C900 C901 1.392 . S
C900 H917 0.929 . S
C901 C899 1.380 . S
C901 C900 1.392 . S
C901 H918 0.929 . S
C902 C897 1.383 . S
C902 C898 1.389 . S
C902 H919 0.931 . S
C903 O888 1.266 . S
C903 O889 1.248 . S
C904 Tb840 2.802 . S
C904 O884 1.264 . S
C904 O887 1.256 . S
C904 C897 1.496 . S
C905 C872 1.448 . S
C905 H882 0.930 . S
C905 C906 1.328 . S
C906 C877 1.427 . S
C906 H883 0.929 . S
C906 C905 1.328 . S
C907 O891 1.264 . S
C907 O892 1.243 . S
C908 C911 1.399 . S
C908 C912 1.383 . S
C908 C915 1.496 . S
C909 C910 1.399 . S
C909 C912 1.389 . S
C910 C909 1.399 . S
C910 C913 1.380 . S
C910 H920 0.929 . S
C911 C908 1.399 . S
C911 C913 1.392 . S
C911 H921 0.929 . S
C912 C908 1.383 . S
C912 C909 1.389 . S
C912 H922 0.931 . S
C913 C910 1.380 . S
C913 C911 1.392 . S
C913 H923 0.929 . S
C914 O894 1.266 . S
C914 O895 1.248 . S
C915 Tb851 2.802 . S
C915 O890 1.264 . S
C915 O893 1.256 . S
C915 C908 1.496 . S
H916 C899 0.929 . S
H917 C900 0.929 . S
H918 C901 0.929 . S
H919 C902 0.931 . S
H920 C910 0.929 . S
H921 C911 0.929 . S
H922 C912 0.931 . S
H923 C913 0.929 . S
Tb924 N953 2.617 . S
Tb924 N959 2.572 . S
Tb924 O968 2.465 . S
Tb924 O969 2.387 . S
Tb924 O971 2.428 . S
Tb924 O972 2.308 . S
Tb924 O976 2.349 . S
Tb924 O979 2.393 . S
Tb924 C988 2.802 . S
C925 N926 1.379 . S
C925 C928 1.416 . S
C925 C932 1.424 . S
N926 C925 1.379 . S
N926 C929 1.334 . S
N926 Tb935 2.617 . S
C927 C929 1.390 . S
C927 C930 1.339 . S
C927 H947 0.930 . S
C928 C925 1.416 . S
C928 C930 1.416 . S
C928 C934 1.448 . S
C929 N926 1.334 . S
C929 C927 1.390 . S
C929 H940 0.930 . S
C930 C927 1.339 . S
C930 C928 1.416 . S
C930 H951 0.930 . S
C931 C932 1.413 . S
C931 C933 1.427 . S
C931 C937 1.416 . S
C932 C925 1.424 . S
C932 C931 1.413 . S
C932 N936 1.361 . S
C933 C931 1.427 . S
C933 C934 1.328 . S
C933 H948 0.929 . S
C934 C928 1.448 . S
C934 C933 1.328 . S
C934 H949 0.930 . S
Tb935 N926 2.617 . S
Tb935 N936 2.572 . S
Tb935 O970 2.349 . S
Tb935 O973 2.393 . S
Tb935 O974 2.465 . S
Tb935 O975 2.387 . S
Tb935 O977 2.428 . S
Tb935 O978 2.308 . S
Tb935 C999 2.802 . S
N936 C932 1.361 . S
N936 Tb935 2.572 . S
N936 C938 1.340 . S
C937 C931 1.416 . S
C937 C939 1.332 . S
C937 H945 0.931 . S
C938 N936 1.340 . S
C938 C939 1.407 . S
C938 H944 0.930 . S
C939 C937 1.332 . S
C939 C938 1.407 . S
C939 H941 0.929 . S
H940 C929 0.930 . S
H941 C939 0.929 . S
H942 C957 0.930 . S
H943 C964 0.929 . S
H944 C938 0.930 . S
H945 C937 0.931 . S
H946 C960 0.930 . S
H947 C927 0.930 . S
H948 C933 0.929 . S
H949 C934 0.930 . S
H950 C955 0.930 . S
H951 C930 0.930 . S
H952 C963 0.931 . S
N953 Tb924 2.617 . S
N953 C954 1.379 . S
N953 C957 1.334 . S
C954 N953 1.379 . S
C954 C956 1.416 . S
C954 C962 1.424 . S
C955 H950 0.930 . S
C955 C957 1.390 . S
C955 C958 1.339 . S
C956 C954 1.416 . S
C956 C958 1.416 . S
C956 C989 1.448 . S
C957 H942 0.930 . S
C957 N953 1.334 . S
C957 C955 1.390 . S
C958 C955 1.339 . S
C958 C956 1.416 . S
C958 H965 0.930 . S
N959 Tb924 2.572 . S
N959 C960 1.340 . S
N959 C962 1.361 . S
C960 H946 0.930 . S
C960 N959 1.340 . S
C960 C964 1.407 . S
C961 C962 1.413 . S
C961 C963 1.416 . S
C961 C990 1.427 . S
C962 C954 1.424 . S
C962 N959 1.361 . S
C962 C961 1.413 . S
C963 H952 0.931 . S
C963 C961 1.416 . S
C963 C964 1.332 . S
C964 H943 0.929 . S
C964 C960 1.407 . S
C964 C963 1.332 . S
H965 C958 0.930 . S
H966 C989 0.930 . S
H967 C990 0.929 . S
O968 Tb924 2.465 . S
O968 C988 1.264 . S
O969 Tb924 2.387 . S
O969 C980 1.264 . S
O970 Tb935 2.349 . S
O970 C980 1.243 . S
O971 Tb924 2.428 . S
O971 C988 1.256 . S
O972 Tb924 2.308 . S
O972 C987 1.266 . S
O973 Tb935 2.393 . S
O973 C987 1.248 . S
O974 Tb935 2.465 . S
O974 C999 1.264 . S
O975 Tb935 2.387 . S
O975 C991 1.264 . S
O976 Tb924 2.349 . S
O976 C991 1.243 . S
O977 Tb935 2.428 . S
O977 C999 1.256 . S
O978 Tb935 2.308 . S
O978 C998 1.266 . S
O979 Tb924 2.393 . S
O979 C998 1.248 . S
C980 O969 1.264 . S
C980 O970 1.243 . S
C981 C984 1.399 . S
C981 C986 1.383 . S
C981 C988 1.496 . S
C982 C983 1.399 . S
C982 C986 1.389 . S
C983 C982 1.399 . S
C983 C985 1.380 . S
C983 H1000 0.929 . S
C984 C981 1.399 . S
C984 C985 1.392 . S
C984 H1001 0.929 . S
C985 C983 1.380 . S
C985 C984 1.392 . S
C985 H1002 0.929 . S
C986 C981 1.383 . S
C986 C982 1.389 . S
C986 H1003 0.931 . S
C987 O972 1.266 . S
C987 O973 1.248 . S
C988 Tb924 2.802 . S
C988 O968 1.264 . S
C988 O971 1.256 . S
C988 C981 1.496 . S
C989 C956 1.448 . S
C989 H966 0.930 . S
C989 C990 1.328 . S
C990 C961 1.427 . S
C990 H967 0.929 . S
C990 C989 1.328 . S
C991 O975 1.264 . S
C991 O976 1.243 . S
C992 C995 1.399 . S
C992 C996 1.383 . S
C992 C999 1.496 . S
C993 C994 1.399 . S
C993 C996 1.389 . S
C994 C993 1.399 . S
C994 C997 1.380 . S
C994 H1004 0.929 . S
C995 C992 1.399 . S
C995 C997 1.392 . S
C995 H1005 0.929 . S
C996 C992 1.383 . S
C996 C993 1.389 . S
C996 H1006 0.931 . S
C997 C994 1.380 . S
C997 C995 1.392 . S
C997 H1007 0.929 . S
C998 O978 1.266 . S
C998 O979 1.248 . S
C999 Tb935 2.802 . S
C999 O974 1.264 . S
C999 O977 1.256 . S
C999 C992 1.496 . S
H1000 C983 0.929 . S
H1001 C984 0.929 . S
H1002 C985 0.929 . S
H1003 C986 0.931 . S
H1004 C994 0.929 . S
H1005 C995 0.929 . S
H1006 C996 0.931 . S
H1007 C997 0.929 . S
H1008 C1014 0.930 . S
H1009 C1017 0.930 . S
H1010 C1018 0.930 . S
H1011 C1019 0.930 . S
H1012 C1022 0.930 . S
H1013 C1023 0.930 . S
C1014 H1008 0.930 . S
C1014 C1015 1.355 . S
C1014 C1016 1.415 . S
C1015 C1014 1.355 . S
C1015 C1017 1.419 . S
C1016 C1014 1.415 . S
C1016 C1021 1.425 . S
C1016 C1023 1.409 . S
C1017 H1009 0.930 . S
C1017 C1015 1.419 . S
C1017 C1018 1.362 . S
C1018 H1010 0.930 . S
C1018 C1017 1.362 . S
C1018 C1021 1.409 . S
C1019 H1011 0.930 . S
C1019 C1020 1.355 . S
C1019 C1021 1.415 . S
C1020 C1019 1.355 . S
C1020 C1022 1.419 . S
C1021 C1016 1.425 . S
C1021 C1018 1.409 . S
C1021 C1019 1.415 . S
C1022 H1012 0.930 . S
C1022 C1020 1.419 . S
C1022 C1023 1.362 . S
C1023 H1013 0.930 . S
C1023 C1016 1.409 . S
C1023 C1022 1.362 . S
H1024 C1030 0.930 . S
H1025 C1033 0.930 . S
H1026 C1034 0.930 . S
H1027 C1035 0.930 . S
H1028 C1038 0.930 . S
H1029 C1039 0.930 . S
C1030 H1024 0.930 . S
C1030 C1031 1.355 . S
C1030 C1032 1.415 . S
C1031 C1030 1.355 . S
C1031 C1033 1.419 . S
C1032 C1030 1.415 . S
C1032 C1037 1.425 . S
C1032 C1039 1.409 . S
C1033 H1025 0.930 . S
C1033 C1031 1.419 . S
C1033 C1034 1.362 . S
C1034 H1026 0.930 . S
C1034 C1033 1.362 . S
C1034 C1037 1.409 . S
C1035 H1027 0.930 . S
C1035 C1036 1.355 . S
C1035 C1037 1.415 . S
C1036 C1035 1.355 . S
C1036 C1038 1.419 . S
C1037 C1032 1.425 . S
C1037 C1034 1.409 . S
C1037 C1035 1.415 . S
C1038 H1028 0.930 . S
C1038 C1036 1.419 . S
C1038 C1039 1.362 . S
C1039 H1029 0.930 . S
C1039 C1032 1.409 . S
C1039 C1038 1.362 . S
H1040 C1046 0.930 . S
H1041 C1049 0.930 . S
H1042 C1050 0.930 . S
H1043 C1051 0.930 . S
H1044 C1054 0.930 . S
H1045 C1055 0.930 . S
C1046 H1040 0.930 . S
C1046 C1047 1.355 . S
C1046 C1048 1.415 . S
C1047 C1046 1.355 . S
C1047 C1049 1.419 . S
C1048 C1046 1.415 . S
C1048 C1053 1.425 . S
C1048 C1055 1.409 . S
C1049 H1041 0.930 . S
C1049 C1047 1.419 . S
C1049 C1050 1.362 . S
C1050 H1042 0.930 . S
C1050 C1049 1.362 . S
C1050 C1053 1.409 . S
C1051 H1043 0.930 . S
C1051 C1052 1.355 . S
C1051 C1053 1.415 . S
C1052 C1051 1.355 . S
C1052 C1054 1.419 . S
C1053 C1048 1.425 . S
C1053 C1050 1.409 . S
C1053 C1051 1.415 . S
C1054 H1044 0.930 . S
C1054 C1052 1.419 . S
C1054 C1055 1.362 . S
C1055 H1045 0.930 . S
C1055 C1048 1.409 . S
C1055 C1054 1.362 . S
H1056 C1062 0.930 . S
H1057 C1065 0.930 . S
H1058 C1066 0.930 . S
H1059 C1067 0.930 . S
H1060 C1070 0.930 . S
H1061 C1071 0.930 . S
C1062 H1056 0.930 . S
C1062 C1063 1.355 . S
C1062 C1064 1.415 . S
C1063 C1062 1.355 . S
C1063 C1065 1.419 . S
C1064 C1062 1.415 . S
C1064 C1069 1.425 . S
C1064 C1071 1.409 . S
C1065 H1057 0.930 . S
C1065 C1063 1.419 . S
C1065 C1066 1.362 . S
C1066 H1058 0.930 . S
C1066 C1065 1.362 . S
C1066 C1069 1.409 . S
C1067 H1059 0.930 . S
C1067 C1068 1.355 . S
C1067 C1069 1.415 . S
C1068 C1067 1.355 . S
C1068 C1070 1.419 . S
C1069 C1064 1.425 . S
C1069 C1066 1.409 . S
C1069 C1067 1.415 . S
C1070 H1060 0.930 . S
C1070 C1068 1.419 . S
C1070 C1071 1.362 . S
C1071 H1061 0.930 . S
C1071 C1064 1.409 . S
C1071 C1070 1.362 . S
H1072 C1078 0.930 . S
H1073 C1081 0.930 . S
H1074 C1082 0.930 . S
H1075 C1083 0.930 . S
H1076 C1086 0.930 . S
H1077 C1087 0.930 . S
C1078 H1072 0.930 . S
C1078 C1079 1.355 . S
C1078 C1080 1.415 . S
C1079 C1078 1.355 . S
C1079 C1081 1.419 . S
C1080 C1078 1.415 . S
C1080 C1085 1.425 . S
C1080 C1087 1.409 . S
C1081 H1073 0.930 . S
C1081 C1079 1.419 . S
C1081 C1082 1.362 . S
C1082 H1074 0.930 . S
C1082 C1081 1.362 . S
C1082 C1085 1.409 . S
C1083 H1075 0.930 . S
C1083 C1084 1.355 . S
C1083 C1085 1.415 . S
C1084 C1083 1.355 . S
C1084 C1086 1.419 . S
C1085 C1080 1.425 . S
C1085 C1082 1.409 . S
C1085 C1083 1.415 . S
C1086 H1076 0.930 . S
C1086 C1084 1.419 . S
C1086 C1087 1.362 . S
C1087 H1077 0.930 . S
C1087 C1080 1.409 . S
C1087 C1086 1.362 . S
H1088 C1094 0.930 . S
H1089 C1097 0.930 . S
H1090 C1098 0.930 . S
H1091 C1099 0.930 . S
H1092 C1102 0.930 . S
H1093 C1103 0.930 . S
C1094 H1088 0.930 . S
C1094 C1095 1.355 . S
C1094 C1096 1.415 . S
C1095 C1094 1.355 . S
C1095 C1097 1.419 . S
C1096 C1094 1.415 . S
C1096 C1101 1.425 . S
C1096 C1103 1.409 . S
C1097 H1089 0.930 . S
C1097 C1095 1.419 . S
C1097 C1098 1.362 . S
C1098 H1090 0.930 . S
C1098 C1097 1.362 . S
C1098 C1101 1.409 . S
C1099 H1091 0.930 . S
C1099 C1100 1.355 . S
C1099 C1101 1.415 . S
C1100 C1099 1.355 . S
C1100 C1102 1.419 . S
C1101 C1096 1.425 . S
C1101 C1098 1.409 . S
C1101 C1099 1.415 . S
C1102 H1092 0.930 . S
C1102 C1100 1.419 . S
C1102 C1103 1.362 . S
C1103 H1093 0.930 . S
C1103 C1096 1.409 . S
C1103 C1102 1.362 . S
H1104 C1110 0.930 . S
H1105 C1113 0.930 . S
H1106 C1114 0.930 . S
H1107 C1115 0.930 . S
H1108 C1118 0.930 . S
H1109 C1119 0.930 . S
C1110 H1104 0.930 . S
C1110 C1111 1.355 . S
C1110 C1112 1.415 . S
C1111 C1110 1.355 . S
C1111 C1113 1.419 . S
C1112 C1110 1.415 . S
C1112 C1117 1.425 . S
C1112 C1119 1.409 . S
C1113 H1105 0.930 . S
C1113 C1111 1.419 . S
C1113 C1114 1.362 . S
C1114 H1106 0.930 . S
C1114 C1113 1.362 . S
C1114 C1117 1.409 . S
C1115 H1107 0.930 . S
C1115 C1116 1.355 . S
C1115 C1117 1.415 . S
C1116 C1115 1.355 . S
C1116 C1118 1.419 . S
C1117 C1112 1.425 . S
C1117 C1114 1.409 . S
C1117 C1115 1.415 . S
C1118 H1108 0.930 . S
C1118 C1116 1.419 . S
C1118 C1119 1.362 . S
C1119 H1109 0.930 . S
C1119 C1112 1.409 . S
C1119 C1118 1.362 . S
H1120 C1126 0.930 . S
H1121 C1129 0.930 . S
H1122 C1130 0.930 . S
H1123 C1131 0.930 . S
H1124 C1134 0.930 . S
H1125 C1135 0.930 . S
C1126 H1120 0.930 . S
C1126 C1127 1.355 . S
C1126 C1128 1.415 . S
C1127 C1126 1.355 . S
C1127 C1129 1.419 . S
C1128 C1126 1.415 . S
C1128 C1133 1.425 . S
C1128 C1135 1.409 . S
C1129 H1121 0.930 . S
C1129 C1127 1.419 . S
C1129 C1130 1.362 . S
C1130 H1122 0.930 . S
C1130 C1129 1.362 . S
C1130 C1133 1.409 . S
C1131 H1123 0.930 . S
C1131 C1132 1.355 . S
C1131 C1133 1.415 . S
C1132 C1131 1.355 . S
C1132 C1134 1.419 . S
C1133 C1128 1.425 . S
C1133 C1130 1.409 . S
C1133 C1131 1.415 . S
C1134 H1124 0.930 . S
C1134 C1132 1.419 . S
C1134 C1135 1.362 . S
C1135 H1125 0.930 . S
C1135 C1128 1.409 . S
C1135 C1134 1.362 . S
H1136 C1142 0.930 . S
H1137 C1145 0.930 . S
H1138 C1146 0.930 . S
H1139 C1147 0.930 . S
H1140 C1150 0.930 . S
H1141 C1151 0.930 . S
C1142 H1136 0.930 . S
C1142 C1143 1.355 . S
C1142 C1144 1.415 . S
C1143 C1142 1.355 . S
C1143 C1145 1.419 . S
C1144 C1142 1.415 . S
C1144 C1149 1.425 . S
C1144 C1151 1.409 . S
C1145 H1137 0.930 . S
C1145 C1143 1.419 . S
C1145 C1146 1.362 . S
C1146 H1138 0.930 . S
C1146 C1145 1.362 . S
C1146 C1149 1.409 . S
C1147 H1139 0.930 . S
C1147 C1148 1.355 . S
C1147 C1149 1.415 . S
C1148 C1147 1.355 . S
C1148 C1150 1.419 . S
C1149 C1144 1.425 . S
C1149 C1146 1.409 . S
C1149 C1147 1.415 . S
C1150 H1140 0.930 . S
C1150 C1148 1.419 . S
C1150 C1151 1.362 . S
C1151 H1141 0.930 . S
C1151 C1144 1.409 . S
C1151 C1150 1.362 . S
H1152 C1158 0.930 . S
H1153 C1161 0.930 . S
H1154 C1162 0.930 . S
H1155 C1163 0.930 . S
H1156 C1166 0.930 . S
H1157 C1167 0.930 . S
C1158 H1152 0.930 . S
C1158 C1159 1.355 . S
C1158 C1160 1.415 . S
C1159 C1158 1.355 . S
C1159 C1161 1.419 . S
C1160 C1158 1.415 . S
C1160 C1165 1.425 . S
C1160 C1167 1.409 . S
C1161 H1153 0.930 . S
C1161 C1159 1.419 . S
C1161 C1162 1.362 . S
C1162 H1154 0.930 . S
C1162 C1161 1.362 . S
C1162 C1165 1.409 . S
C1163 H1155 0.930 . S
C1163 C1164 1.355 . S
C1163 C1165 1.415 . S
C1164 C1163 1.355 . S
C1164 C1166 1.419 . S
C1165 C1160 1.425 . S
C1165 C1162 1.409 . S
C1165 C1163 1.415 . S
C1166 H1156 0.930 . S
C1166 C1164 1.419 . S
C1166 C1167 1.362 . S
C1167 H1157 0.930 . S
C1167 C1160 1.409 . S
C1167 C1166 1.362 . S
H1168 C1174 0.930 . S
H1169 C1177 0.930 . S
H1170 C1178 0.930 . S
H1171 C1179 0.930 . S
H1172 C1182 0.930 . S
H1173 C1183 0.930 . S
C1174 H1168 0.930 . S
C1174 C1175 1.355 . S
C1174 C1176 1.415 . S
C1175 C1174 1.355 . S
C1175 C1177 1.419 . S
C1176 C1174 1.415 . S
C1176 C1181 1.425 . S
C1176 C1183 1.409 . S
C1177 H1169 0.930 . S
C1177 C1175 1.419 . S
C1177 C1178 1.362 . S
C1178 H1170 0.930 . S
C1178 C1177 1.362 . S
C1178 C1181 1.409 . S
C1179 H1171 0.930 . S
C1179 C1180 1.355 . S
C1179 C1181 1.415 . S
C1180 C1179 1.355 . S
C1180 C1182 1.419 . S
C1181 C1176 1.425 . S
C1181 C1178 1.409 . S
C1181 C1179 1.415 . S
C1182 H1172 0.930 . S
C1182 C1180 1.419 . S
C1182 C1183 1.362 . S
C1183 H1173 0.930 . S
C1183 C1176 1.409 . S
C1183 C1182 1.362 . S
H1184 C1190 0.930 . S
H1185 C1193 0.930 . S
H1186 C1194 0.930 . S
H1187 C1195 0.930 . S
H1188 C1198 0.930 . S
H1189 C1199 0.930 . S
C1190 H1184 0.930 . S
C1190 C1191 1.355 . S
C1190 C1192 1.415 . S
C1191 C1190 1.355 . S
C1191 C1193 1.419 . S
C1192 C1190 1.415 . S
C1192 C1197 1.425 . S
C1192 C1199 1.409 . S
C1193 H1185 0.930 . S
C1193 C1191 1.419 . S
C1193 C1194 1.362 . S
C1194 H1186 0.930 . S
C1194 C1193 1.362 . S
C1194 C1197 1.409 . S
C1195 H1187 0.930 . S
C1195 C1196 1.355 . S
C1195 C1197 1.415 . S
C1196 C1195 1.355 . S
C1196 C1198 1.419 . S
C1197 C1192 1.425 . S
C1197 C1194 1.409 . S
C1197 C1195 1.415 . S
C1198 H1188 0.930 . S
C1198 C1196 1.419 . S
C1198 C1199 1.362 . S
C1199 H1189 0.930 . S
C1199 C1192 1.409 . S
C1199 C1198 1.362 . S
H1200 C1206 0.930 . S
H1201 C1209 0.930 . S
H1202 C1210 0.930 . S
H1203 C1211 0.930 . S
H1204 C1214 0.930 . S
H1205 C1215 0.930 . S
C1206 H1200 0.930 . S
C1206 C1207 1.355 . S
C1206 C1208 1.415 . S
C1207 C1206 1.355 . S
C1207 C1209 1.419 . S
C1208 C1206 1.415 . S
C1208 C1213 1.425 . S
C1208 C1215 1.409 . S
C1209 H1201 0.930 . S
C1209 C1207 1.419 . S
C1209 C1210 1.362 . S
C1210 H1202 0.930 . S
C1210 C1209 1.362 . S
C1210 C1213 1.409 . S
C1211 H1203 0.930 . S
C1211 C1212 1.355 . S
C1211 C1213 1.415 . S
C1212 C1211 1.355 . S
C1212 C1214 1.419 . S
C1213 C1208 1.425 . S
C1213 C1210 1.409 . S
C1213 C1211 1.415 . S
C1214 H1204 0.930 . S
C1214 C1212 1.419 . S
C1214 C1215 1.362 . S
C1215 H1205 0.930 . S
C1215 C1208 1.409 . S
C1215 C1214 1.362 . S
H1216 C1222 0.930 . S
H1217 C1225 0.930 . S
H1218 C1226 0.930 . S
H1219 C1227 0.930 . S
H1220 C1230 0.930 . S
H1221 C1231 0.930 . S
C1222 H1216 0.930 . S
C1222 C1223 1.355 . S
C1222 C1224 1.415 . S
C1223 C1222 1.355 . S
C1223 C1225 1.419 . S
C1224 C1222 1.415 . S
C1224 C1229 1.425 . S
C1224 C1231 1.409 . S
C1225 H1217 0.930 . S
C1225 C1223 1.419 . S
C1225 C1226 1.362 . S
C1226 H1218 0.930 . S
C1226 C1225 1.362 . S
C1226 C1229 1.409 . S
C1227 H1219 0.930 . S
C1227 C1228 1.355 . S
C1227 C1229 1.415 . S
C1228 C1227 1.355 . S
C1228 C1230 1.419 . S
C1229 C1224 1.425 . S
C1229 C1226 1.409 . S
C1229 C1227 1.415 . S
C1230 H1220 0.930 . S
C1230 C1228 1.419 . S
C1230 C1231 1.362 . S
C1231 H1221 0.930 . S
C1231 C1224 1.409 . S
C1231 C1230 1.362 . S
H1232 C1238 0.930 . S
H1233 C1241 0.930 . S
H1234 C1242 0.930 . S
H1235 C1243 0.930 . S
H1236 C1246 0.930 . S
H1237 C1247 0.930 . S
C1238 H1232 0.930 . S
C1238 C1239 1.355 . S
C1238 C1240 1.415 . S
C1239 C1238 1.355 . S
C1239 C1241 1.419 . S
C1240 C1238 1.415 . S
C1240 C1245 1.425 . S
C1240 C1247 1.409 . S
C1241 H1233 0.930 . S
C1241 C1239 1.419 . S
C1241 C1242 1.362 . S
C1242 H1234 0.930 . S
C1242 C1241 1.362 . S
C1242 C1245 1.409 . S
C1243 H1235 0.930 . S
C1243 C1244 1.355 . S
C1243 C1245 1.415 . S
C1244 C1243 1.355 . S
C1244 C1246 1.419 . S
C1245 C1240 1.425 . S
C1245 C1242 1.409 . S
C1245 C1243 1.415 . S
C1246 H1236 0.930 . S
C1246 C1244 1.419 . S
C1246 C1247 1.362 . S
C1247 H1237 0.930 . S
C1247 C1240 1.409 . S
C1247 C1246 1.362 . S
H1248 C1254 0.930 . S
H1249 C1257 0.930 . S
H1250 C1258 0.930 . S
H1251 C1259 0.930 . S
H1252 C1262 0.930 . S
H1253 C1263 0.930 . S
C1254 H1248 0.930 . S
C1254 C1255 1.355 . S
C1254 C1256 1.415 . S
C1255 C1254 1.355 . S
C1255 C1257 1.419 . S
C1256 C1254 1.415 . S
C1256 C1261 1.425 . S
C1256 C1263 1.409 . S
C1257 H1249 0.930 . S
C1257 C1255 1.419 . S
C1257 C1258 1.362 . S
C1258 H1250 0.930 . S
C1258 C1257 1.362 . S
C1258 C1261 1.409 . S
C1259 H1251 0.930 . S
C1259 C1260 1.355 . S
C1259 C1261 1.415 . S
C1260 C1259 1.355 . S
C1260 C1262 1.419 . S
C1261 C1256 1.425 . S
C1261 C1258 1.409 . S
C1261 C1259 1.415 . S
C1262 H1252 0.930 . S
C1262 C1260 1.419 . S
C1262 C1263 1.362 . S
C1263 H1253 0.930 . S
C1263 C1256 1.409 . S
C1263 C1262 1.362 . S
H1264 C1270 0.917 1_554 S
H1265 C1273 0.930 . S
H1266 C1274 0.930 . S
H1267 C1275 0.930 . S
H1268 C1278 0.930 . S
H1269 C1279 0.930 . S
C1270 H1264 0.917 1_556 S
C1270 C1271 1.372 . S
C1270 C1272 1.410 1_556 S
C1271 C1270 1.372 . S
C1271 C1273 1.419 . S
C1272 C1270 1.410 1_554 S
C1272 C1277 1.402 1_554 S
C1272 C1279 1.440 . S
C1273 H1265 0.930 . S
C1273 C1271 1.419 . S
C1273 C1274 1.362 . S
C1274 H1266 0.930 . S
C1274 C1273 1.362 . S
C1274 C1277 1.409 . S
C1275 H1267 0.930 . S
C1275 C1276 1.355 1_556 S
C1275 C1277 1.415 . S
C1276 C1275 1.355 1_554 S
C1276 C1278 1.419 . S
C1277 C1272 1.402 1_556 S
C1277 C1274 1.409 . S
C1277 C1275 1.415 . S
C1278 H1268 0.930 . S
C1278 C1276 1.419 . S
C1278 C1279 1.362 . S
C1279 H1269 0.930 . S
C1279 C1272 1.440 . S
C1279 C1278 1.362 . S
H1280 C1286 0.930 . S
H1281 C1289 0.930 . S
H1282 C1290 0.930 . S
H1283 C1291 0.930 . S
H1284 C1294 0.930 . S
H1285 C1295 0.930 . S
C1286 H1280 0.930 . S
C1286 C1287 1.355 . S
C1286 C1288 1.415 . S
C1287 C1286 1.355 . S
C1287 C1289 1.419 . S
C1288 C1286 1.415 . S
C1288 C1293 1.425 . S
C1288 C1295 1.409 . S
C1289 H1281 0.930 . S
C1289 C1287 1.419 . S
C1289 C1290 1.362 . S
C1290 H1282 0.930 . S
C1290 C1289 1.362 . S
C1290 C1293 1.409 . S
C1291 H1283 0.930 . S
C1291 C1292 1.355 . S
C1291 C1293 1.415 . S
C1292 C1291 1.355 . S
C1292 C1294 1.419 . S
C1293 C1288 1.425 . S
C1293 C1290 1.409 . S
C1293 C1291 1.415 . S
C1294 H1284 0.930 . S
C1294 C1292 1.419 . S
C1294 C1295 1.362 . S
C1295 H1285 0.930 . S
C1295 C1288 1.409 . S
C1295 C1294 1.362 . S
H1296 C1302 0.930 . S
H1297 C1305 0.930 . S
H1298 C1306 0.930 . S
H1299 C1307 0.930 . S
H1300 C1310 0.930 . S
H1301 C1311 0.930 . S
C1302 H1296 0.930 . S
C1302 C1303 1.355 . S
C1302 C1304 1.415 . S
C1303 C1302 1.355 . S
C1303 C1305 1.419 . S
C1304 C1302 1.415 . S
C1304 C1309 1.425 . S
C1304 C1311 1.409 . S
C1305 H1297 0.930 . S
C1305 C1303 1.419 . S
C1305 C1306 1.362 . S
C1306 H1298 0.930 . S
C1306 C1305 1.362 . S
C1306 C1309 1.409 . S
C1307 H1299 0.930 . S
C1307 C1308 1.355 . S
C1307 C1309 1.415 . S
C1308 C1307 1.355 . S
C1308 C1310 1.419 . S
C1309 C1304 1.425 . S
C1309 C1306 1.409 . S
C1309 C1307 1.415 . S
C1310 H1300 0.930 . S
C1310 C1308 1.419 . S
C1310 C1311 1.362 . S
C1311 H1301 0.930 . S
C1311 C1304 1.409 . S
C1311 C1310 1.362 . S
H1312 C1318 0.930 . S
H1313 C1321 0.930 . S
H1314 C1322 0.930 . S
H1315 C1323 0.930 . S
H1316 C1326 0.930 . S
H1317 C1327 0.930 . S
C1318 H1312 0.930 . S
C1318 C1319 1.355 . S
C1318 C1320 1.415 . S
C1319 C1318 1.355 . S
C1319 C1321 1.419 . S
C1320 C1318 1.415 . S
C1320 C1325 1.425 . S
C1320 C1327 1.409 . S
C1321 H1313 0.930 . S
C1321 C1319 1.419 . S
C1321 C1322 1.362 . S
C1322 H1314 0.930 . S
C1322 C1321 1.362 . S
C1322 C1325 1.409 . S
C1323 H1315 0.930 . S
C1323 C1324 1.355 . S
C1323 C1325 1.415 . S
C1324 C1323 1.355 . S
C1324 C1326 1.419 . S
C1325 C1320 1.425 . S
C1325 C1322 1.409 . S
C1325 C1323 1.415 . S
C1326 H1316 0.930 . S
C1326 C1324 1.419 . S
C1326 C1327 1.362 . S
C1327 H1317 0.930 . S
C1327 C1320 1.409 . S
C1327 C1326 1.362 . S
H1328 C1334 0.930 . S
H1329 C1337 0.930 . S
H1330 C1338 0.930 . S
H1331 C1339 0.930 . S
H1332 C1342 0.930 . S
H1333 C1343 0.930 . S
C1334 H1328 0.930 . S
C1334 C1335 1.355 . S
C1334 C1336 1.415 . S
C1335 C1334 1.355 . S
C1335 C1337 1.419 . S
C1336 C1334 1.415 . S
C1336 C1341 1.425 . S
C1336 C1343 1.409 . S
C1337 H1329 0.930 . S
C1337 C1335 1.419 . S
C1337 C1338 1.362 . S
C1338 H1330 0.930 . S
C1338 C1337 1.362 . S
C1338 C1341 1.409 . S
C1339 H1331 0.930 . S
C1339 C1340 1.355 . S
C1339 C1341 1.415 . S
C1340 C1339 1.355 . S
C1340 C1342 1.419 . S
C1341 C1336 1.425 . S
C1341 C1338 1.409 . S
C1341 C1339 1.415 . S
C1342 H1332 0.930 . S
C1342 C1340 1.419 . S
C1342 C1343 1.362 . S
C1343 H1333 0.930 . S
C1343 C1336 1.409 . S
C1343 C1342 1.362 . S
H1344 C1350 0.930 . S
H1345 C1353 0.930 . S
H1346 C1354 0.930 . S
H1347 C1355 0.930 . S
H1348 C1358 0.930 . S
H1349 C1359 0.930 . S
C1350 H1344 0.930 . S
C1350 C1351 1.355 . S
C1350 C1352 1.415 . S
C1351 C1350 1.355 . S
C1351 C1353 1.419 1_554 S
C1352 C1350 1.415 . S
C1352 C1357 1.425 1_554 S
C1352 C1359 1.409 . S
C1353 H1345 0.930 . S
C1353 C1351 1.419 1_556 S
C1353 C1354 1.362 . S
C1354 H1346 0.930 . S
C1354 C1353 1.362 . S
C1354 C1357 1.409 . S
C1355 H1347 0.930 . S
C1355 C1356 1.355 1_556 S
C1355 C1357 1.415 . S
C1356 C1355 1.355 1_554 S
C1356 C1358 1.419 . S
C1357 C1352 1.425 1_556 S
C1357 C1354 1.409 . S
C1357 C1355 1.415 . S
C1358 H1348 0.930 . S
C1358 C1356 1.419 . S
C1358 C1359 1.362 . S
C1359 H1349 0.930 . S
C1359 C1352 1.409 . S
C1359 C1358 1.362 . S
H1360 C1366 0.930 . S
H1361 C1369 0.930 . S
H1362 C1370 0.930 . S
H1363 C1371 0.930 . S
H1364 C1374 0.930 . S
H1365 C1375 0.930 . S
C1366 H1360 0.930 . S
C1366 C1367 1.355 . S
C1366 C1368 1.415 . S
C1367 C1366 1.355 . S
C1367 C1369 1.419 . S
C1368 C1366 1.415 . S
C1368 C1373 1.425 . S
C1368 C1375 1.409 . S
C1369 H1361 0.930 . S
C1369 C1367 1.419 . S
C1369 C1370 1.362 . S
C1370 H1362 0.930 . S
C1370 C1369 1.362 . S
C1370 C1373 1.409 . S
C1371 H1363 0.930 . S
C1371 C1372 1.355 . S
C1371 C1373 1.415 . S
C1372 C1371 1.355 . S
C1372 C1374 1.419 . S
C1373 C1368 1.425 . S
C1373 C1370 1.409 . S
C1373 C1371 1.415 . S
C1374 H1364 0.930 . S
C1374 C1372 1.419 . S
C1374 C1375 1.362 . S
C1375 H1365 0.930 . S
C1375 C1368 1.409 . S
C1375 C1374 1.362 . S
H1376 C1382 0.930 . S
H1377 C1385 0.930 . S
H1378 C1386 0.930 . S
H1379 C1387 0.930 . S
H1380 C1390 0.930 . S
H1381 C1391 0.930 . S
C1382 H1376 0.930 . S
C1382 C1383 1.355 . S
C1382 C1384 1.415 . S
C1383 C1382 1.355 . S
C1383 C1385 1.419 . S
C1384 C1382 1.415 . S
C1384 C1389 1.425 . S
C1384 C1391 1.409 . S
C1385 H1377 0.930 . S
C1385 C1383 1.419 . S
C1385 C1386 1.362 . S
C1386 H1378 0.930 . S
C1386 C1385 1.362 . S
C1386 C1389 1.409 . S
C1387 H1379 0.930 . S
C1387 C1388 1.355 . S
C1387 C1389 1.415 . S
C1388 C1387 1.355 . S
C1388 C1390 1.419 . S
C1389 C1384 1.425 . S
C1389 C1386 1.409 . S
C1389 C1387 1.415 . S
C1390 H1380 0.930 . S
C1390 C1388 1.419 . S
C1390 C1391 1.362 . S
C1391 H1381 0.930 . S
C1391 C1384 1.409 . S
C1391 C1390 1.362 . S
H1392 C1398 0.930 . S
H1393 C1401 0.930 . S
H1394 C1402 0.930 . S
H1395 C1403 0.930 . S
H1396 C1406 0.930 . S
H1397 C1407 0.930 . S
C1398 H1392 0.930 . S
C1398 C1399 1.355 . S
C1398 C1400 1.415 . S
C1399 C1398 1.355 . S
C1399 C1401 1.419 . S
C1400 C1398 1.415 . S
C1400 C1405 1.425 . S
C1400 C1407 1.409 . S
C1401 H1393 0.930 . S
C1401 C1399 1.419 . S
C1401 C1402 1.362 . S
C1402 H1394 0.930 . S
C1402 C1401 1.362 . S
C1402 C1405 1.409 . S
C1403 H1395 0.930 . S
C1403 C1404 1.355 . S
C1403 C1405 1.415 . S
C1404 C1403 1.355 . S
C1404 C1406 1.419 . S
C1405 C1400 1.425 . S
C1405 C1402 1.409 . S
C1405 C1403 1.415 . S
C1406 H1396 0.930 . S
C1406 C1404 1.419 . S
C1406 C1407 1.362 . S
C1407 H1397 0.930 . S
C1407 C1400 1.409 . S
C1407 C1406 1.362 . S
H1408 C1414 0.930 . S
H1409 C1417 0.930 . S
H1410 C1418 0.930 . S
H1411 C1419 0.930 . S
H1412 C1422 0.930 . S
H1413 C1423 0.930 . S
C1414 H1408 0.930 . S
C1414 C1415 1.355 . S
C1414 C1416 1.415 . S
C1415 C1414 1.355 . S
C1415 C1417 1.419 . S
C1416 C1414 1.415 . S
C1416 C1421 1.425 . S
C1416 C1423 1.409 . S
C1417 H1409 0.930 . S
C1417 C1415 1.419 . S
C1417 C1418 1.362 . S
C1418 H1410 0.930 . S
C1418 C1417 1.362 . S
C1418 C1421 1.409 . S
C1419 H1411 0.930 . S
C1419 C1420 1.355 . S
C1419 C1421 1.415 . S
C1420 C1419 1.355 . S
C1420 C1422 1.419 . S
C1421 C1416 1.425 . S
C1421 C1418 1.409 . S
C1421 C1419 1.415 . S
C1422 H1412 0.930 . S
C1422 C1420 1.419 . S
C1422 C1423 1.362 . S
C1423 H1413 0.930 . S
C1423 C1416 1.409 . S
C1423 C1422 1.362 . S
H1424 C1430 0.930 . S
H1425 C1433 0.930 . S
H1426 C1434 0.930 . S
H1427 C1435 0.930 . S
H1428 C1438 0.930 . S
H1429 C1439 0.930 . S
C1430 H1424 0.930 . S
C1430 C1431 1.355 . S
C1430 C1432 1.415 . S
C1431 C1430 1.355 . S
C1431 C1433 1.419 . S
C1432 C1430 1.415 . S
C1432 C1437 1.425 . S
C1432 C1439 1.409 . S
C1433 H1425 0.930 . S
C1433 C1431 1.419 . S
C1433 C1434 1.362 . S
C1434 H1426 0.930 . S
C1434 C1433 1.362 . S
C1434 C1437 1.409 . S
C1435 H1427 0.930 . S
C1435 C1436 1.355 . S
C1435 C1437 1.415 . S
C1436 C1435 1.355 . S
C1436 C1438 1.419 . S
C1437 C1432 1.425 . S
C1437 C1434 1.409 . S
C1437 C1435 1.415 . S
C1438 H1428 0.930 . S
C1438 C1436 1.419 . S
C1438 C1439 1.362 . S
C1439 H1429 0.930 . S
C1439 C1432 1.409 . S
C1439 C1438 1.362 . S
H1440 C1446 0.930 . S
H1441 C1449 0.930 . S
H1442 C1450 0.930 . S
H1443 C1451 0.930 . S
H1444 C1454 0.930 . S
H1445 C1455 0.930 . S
C1446 H1440 0.930 . S
C1446 C1447 1.355 . S
C1446 C1448 1.415 . S
C1447 C1446 1.355 . S
C1447 C1449 1.419 . S
C1448 C1446 1.415 . S
C1448 C1453 1.425 . S
C1448 C1455 1.409 . S
C1449 H1441 0.930 . S
C1449 C1447 1.419 . S
C1449 C1450 1.362 . S
C1450 H1442 0.930 . S
C1450 C1449 1.362 . S
C1450 C1453 1.409 . S
C1451 H1443 0.930 . S
C1451 C1452 1.355 . S
C1451 C1453 1.415 . S
C1452 C1451 1.355 . S
C1452 C1454 1.419 . S
C1453 C1448 1.425 . S
C1453 C1450 1.409 . S
C1453 C1451 1.415 . S
C1454 H1444 0.930 . S
C1454 C1452 1.419 . S
C1454 C1455 1.362 . S
C1455 H1445 0.930 . S
C1455 C1448 1.409 . S
C1455 C1454 1.362 . S
H1456 C1462 0.930 . S
H1457 C1465 0.930 . S
H1458 C1466 0.930 . S
H1459 C1467 0.930 . S
H1460 C1470 0.930 . S
H1461 C1471 0.930 . S
C1462 H1456 0.930 . S
C1462 C1463 1.355 . S
C1462 C1464 1.415 . S
C1463 C1462 1.355 . S
C1463 C1465 1.419 . S
C1464 C1462 1.415 . S
C1464 C1469 1.425 . S
C1464 C1471 1.409 . S
C1465 H1457 0.930 . S
C1465 C1463 1.419 . S
C1465 C1466 1.362 . S
C1466 H1458 0.930 . S
C1466 C1465 1.362 . S
C1466 C1469 1.409 . S
C1467 H1459 0.930 . S
C1467 C1468 1.355 . S
C1467 C1469 1.415 . S
C1468 C1467 1.355 . S
C1468 C1470 1.419 . S
C1469 C1464 1.425 . S
C1469 C1466 1.409 . S
C1469 C1467 1.415 . S
C1470 H1460 0.930 . S
C1470 C1468 1.419 . S
C1470 C1471 1.362 . S
C1471 H1461 0.930 . S
C1471 C1464 1.409 . S
C1471 C1470 1.362 . S
H1472 C1478 0.930 . S
H1473 C1481 0.930 . S
H1474 C1482 0.930 . S
H1475 C1483 0.930 . S
H1476 C1486 0.930 . S
H1477 C1487 0.930 . S
C1478 H1472 0.930 . S
C1478 C1479 1.355 . S
C1478 C1480 1.415 . S
C1479 C1478 1.355 . S
C1479 C1481 1.419 . S
C1480 C1478 1.415 . S
C1480 C1485 1.425 . S
C1480 C1487 1.409 . S
C1481 H1473 0.930 . S
C1481 C1479 1.419 . S
C1481 C1482 1.362 . S
C1482 H1474 0.930 . S
C1482 C1481 1.362 . S
C1482 C1485 1.409 . S
C1483 H1475 0.930 . S
C1483 C1484 1.355 . S
C1483 C1485 1.415 . S
C1484 C1483 1.355 . S
C1484 C1486 1.419 . S
C1485 C1480 1.425 . S
C1485 C1482 1.409 . S
C1485 C1483 1.415 . S
C1486 H1476 0.930 . S
C1486 C1484 1.419 . S
C1486 C1487 1.362 . S
C1487 H1477 0.930 . S
C1487 C1480 1.409 . S
C1487 C1486 1.362 . S
H1488 C1494 0.930 . S
H1489 C1497 0.930 . S
H1490 C1498 0.930 . S
H1491 C1499 0.930 . S
H1492 C1502 0.930 . S
H1493 C1503 0.930 . S
C1494 H1488 0.930 . S
C1494 C1495 1.355 . S
C1494 C1496 1.415 . S
C1495 C1494 1.355 . S
C1495 C1497 1.419 . S
C1496 C1494 1.415 . S
C1496 C1501 1.425 . S
C1496 C1503 1.409 . S
C1497 H1489 0.930 . S
C1497 C1495 1.419 . S
C1497 C1498 1.362 . S
C1498 H1490 0.930 . S
C1498 C1497 1.362 . S
C1498 C1501 1.409 . S
C1499 H1491 0.930 . S
C1499 C1500 1.355 . S
C1499 C1501 1.415 . S
C1500 C1499 1.355 . S
C1500 C1502 1.419 . S
C1501 C1496 1.425 . S
C1501 C1498 1.409 . S
C1501 C1499 1.415 . S
C1502 H1492 0.930 . S
C1502 C1500 1.419 . S
C1502 C1503 1.362 . S
C1503 H1493 0.930 . S
C1503 C1496 1.409 . S
C1503 C1502 1.362 . S
H1504 C1510 0.930 . S
H1505 C1513 0.930 . S
H1506 C1514 0.930 . S
H1507 C1515 0.930 . S
H1508 C1518 0.930 . S
H1509 C1519 0.930 . S
C1510 H1504 0.930 . S
C1510 C1511 1.355 . S
C1510 C1512 1.415 . S
C1511 C1510 1.355 . S
C1511 C1513 1.419 . S
C1512 C1510 1.415 . S
C1512 C1517 1.425 . S
C1512 C1519 1.409 . S
C1513 H1505 0.930 . S
C1513 C1511 1.419 . S
C1513 C1514 1.362 . S
C1514 H1506 0.930 . S
C1514 C1513 1.362 . S
C1514 C1517 1.409 . S
C1515 H1507 0.930 . S
C1515 C1516 1.355 . S
C1515 C1517 1.415 . S
C1516 C1515 1.355 . S
C1516 C1518 1.419 . S
C1517 C1512 1.425 . S
C1517 C1514 1.409 . S
C1517 C1515 1.415 . S
C1518 H1508 0.930 . S
C1518 C1516 1.419 . S
C1518 C1519 1.362 . S
C1519 H1509 0.930 . S
C1519 C1512 1.409 . S
C1519 C1518 1.362 . S
H1520 C1526 0.930 . S
H1521 C1529 0.930 . S
H1522 C1530 0.930 . S
H1523 C1531 0.930 . S
H1524 C1534 0.930 . S
H1525 C1535 0.930 . S
C1526 H1520 0.930 . S
C1526 C1527 1.355 . S
C1526 C1528 1.415 . S
C1527 C1526 1.355 . S
C1527 C1529 1.419 . S
C1528 C1526 1.415 . S
C1528 C1533 1.425 . S
C1528 C1535 1.409 . S
C1529 H1521 0.930 . S
C1529 C1527 1.419 . S
C1529 C1530 1.362 . S
C1530 H1522 0.930 . S
C1530 C1529 1.362 . S
C1530 C1533 1.409 . S
C1531 H1523 0.930 . S
C1531 C1532 1.355 . S
C1531 C1533 1.415 . S
C1532 C1531 1.355 . S
C1532 C1534 1.419 . S
C1533 C1528 1.425 . S
C1533 C1530 1.409 . S
C1533 C1531 1.415 . S
C1534 H1524 0.930 . S
C1534 C1532 1.419 . S
C1534 C1535 1.362 . S
C1535 H1525 0.930 . S
C1535 C1528 1.409 . S
C1535 C1534 1.362 . S
H1536 C1542 0.930 . S
H1537 C1545 0.930 . S
H1538 C1546 0.930 . S
H1539 C1547 0.930 . S
H1540 C1550 0.930 . S
H1541 C1551 0.930 . S
C1542 H1536 0.930 . S
C1542 C1543 1.355 . S
C1542 C1544 1.415 . S
C1543 C1542 1.355 . S
C1543 C1545 1.419 . S
C1544 C1542 1.415 . S
C1544 C1549 1.425 . S
C1544 C1551 1.409 . S
C1545 H1537 0.930 . S
C1545 C1543 1.419 . S
C1545 C1546 1.362 . S
C1546 H1538 0.930 . S
C1546 C1545 1.362 . S
C1546 C1549 1.409 . S
C1547 H1539 0.930 . S
C1547 C1548 1.355 . S
C1547 C1549 1.415 . S
C1548 C1547 1.355 . S
C1548 C1550 1.419 . S
C1549 C1544 1.425 . S
C1549 C1546 1.409 . S
C1549 C1547 1.415 . S
C1550 H1540 0.930 . S
C1550 C1548 1.419 . S
C1550 C1551 1.362 . S
C1551 H1541 0.930 . S
C1551 C1544 1.409 . S
C1551 C1550 1.362 . S
H1552 C1558 0.930 . S
H1553 C1561 0.930 . S
H1554 C1562 0.930 . S
H1555 C1563 0.930 . S
H1556 C1566 0.930 . S
H1557 C1567 0.930 . S
C1558 H1552 0.930 . S
C1558 C1559 1.355 . S
C1558 C1560 1.415 . S
C1559 C1558 1.355 . S
C1559 C1561 1.419 . S
C1560 C1558 1.415 . S
C1560 C1565 1.425 . S
C1560 C1567 1.409 . S
C1561 H1553 0.930 . S
C1561 C1559 1.419 . S
C1561 C1562 1.362 . S
C1562 H1554 0.930 . S
C1562 C1561 1.362 . S
C1562 C1565 1.409 . S
C1563 H1555 0.930 . S
C1563 C1564 1.355 . S
C1563 C1565 1.415 . S
C1564 C1563 1.355 . S
C1564 C1566 1.419 . S
C1565 C1560 1.425 . S
C1565 C1562 1.409 . S
C1565 C1563 1.415 . S
C1566 H1556 0.930 . S
C1566 C1564 1.419 . S
C1566 C1567 1.362 . S
C1567 H1557 0.930 . S
C1567 C1560 1.409 . S
C1567 C1566 1.362 . S
H1568 C1574 0.930 . S
H1569 C1577 0.930 . S
H1570 C1578 0.930 . S
H1571 C1579 0.930 . S
H1572 C1582 0.930 . S
H1573 C1583 0.930 . S
C1574 H1568 0.930 . S
C1574 C1575 1.355 . S
C1574 C1576 1.415 . S
C1575 C1574 1.355 . S
C1575 C1577 1.419 . S
C1576 C1574 1.415 . S
C1576 C1581 1.425 . S
C1576 C1583 1.409 . S
C1577 H1569 0.930 . S
C1577 C1575 1.419 . S
C1577 C1578 1.362 . S
C1578 H1570 0.930 . S
C1578 C1577 1.362 . S
C1578 C1581 1.409 . S
C1579 H1571 0.930 . S
C1579 C1580 1.355 . S
C1579 C1581 1.415 . S
C1580 C1579 1.355 . S
C1580 C1582 1.419 . S
C1581 C1576 1.425 . S
C1581 C1578 1.409 . S
C1581 C1579 1.415 . S
C1582 H1572 0.930 . S
C1582 C1580 1.419 . S
C1582 C1583 1.362 . S
C1583 H1573 0.930 . S
C1583 C1576 1.409 . S
C1583 C1582 1.362 . S
C1015 C476 1.669 . S
C1020 C58 1.290 . S
C1031 C142 1.240 . S
C1036 C56 1.784 . S
C1047 C226 1.302 . S
C1052 C140 1.756 . S
C1063 C224 1.643 . S
C1068 C310 1.293 . S
C1079 C308 1.781 . S
C1084 C394 1.249 . S
C1095 C478 1.266 . S
C1100 C392 1.727 . S
C1111 C644 1.639 . S
C1116 C562 1.285 . S
C1127 C646 1.350 . S
C1132 C728 1.739 . S
C1143 C812 1.823 . S
C1148 C730 1.345 . S
C1159 C896 1.604 . S
C1164 C814 1.188 . S
C1175 C980 1.759 . S
C1180 C898 1.393 . S
C1191 C560 1.858 . S
C1196 C982 1.389 . S
C1207 C998 3.537 . S
C1212 C67 3.471 . S
C1223 C151 2.979 . S
C1228 C578 3.042 . S
C1239 C662 3.319 . S
C1244 C235 3.250 . S
C1255 C746 3.538 . S
C1260 C319 3.470 . S
C1271 C830 3.019 . S
C1276 C403 2.949 . S
C1287 C487 3.232 . S
C1292 C914 3.291 . S
C1303 C571 3.493 . S
C1308 C158 3.545 . S
C1319 C655 3.234 . S
C1324 C242 3.317 . S
C1335 C326 3.017 . S
C1340 C739 2.951 . S
C1351 C410 3.548 . S
C1356 C823 3.502 1_554 S
C1367 C907 3.237 . S
C1372 C494 3.294 . S
C1383 C991 2.979 . S
C1388 C74 3.018 . S
C1399 C567 2.508 . S
C1404 C63 2.510 . S
C1415 C147 1.720 . S
C1420 C651 1.740 . S
C1431 C735 1.719 . S
C1436 C231 1.740 . S
C1447 C315 2.511 . S
C1452 C819 2.504 . S
C1463 C903 1.671 . S
C1468 C399 1.672 . S
C1479 C987 1.651 . S
C1484 C483 1.682 . S
C1495 C573 0.394 . S
C1500 C69 0.520 . S
C1511 C657 0.256 . S
C1516 C153 0.404 . S
C1527 C741 0.391 . S
C1532 C237 0.215 . S
C1543 C321 0.446 . S
C1548 C825 0.497 . S
C1559 C909 0.374 . S
C1564 C405 0.248 . S
C1575 C993 0.245 . S
C1580 C489 0.378 . S
