# Generated by pormake.
# Topology cab, (5)-cn, num edge types: 1
# Building blocks:
#     Node 0, Type 0, BuildingBlock: XOMCOT_clean_sbu_1, # of connection points: 5
#     Node 1, Type 0, BuildingBlock: XOMCOT_clean_sbu_1, # of connection points: 5
#     Node 2, Type 0, BuildingBlock: XOMCOT_clean_sbu_1, # of connection points: 5
#     Node 3, Type 0, BuildingBlock: XOMCOT_clean_sbu_1, # of connection points: 5
#     Node 4, Type 0, BuildingBlock: XOMCOT_clean_sbu_1, # of connection points: 5
#     Node 5, Type 0, BuildingBlock: XOMCOT_clean_sbu_1, # of connection points: 5
#     Edge 6, Type (0, 0), BuildingBlock: AJUNOK_clean_linker_0, # of connection points: 2
#     Edge 7, Type (0, 0), BuildingBlock: AJUNOK_clean_linker_0, # of connection points: 2
#     Edge 8, Type (0, 0), BuildingBlock: AJUNOK_clean_linker_0, # of connection points: 2
#     Edge 9, Type (0, 0), BuildingBlock: AJUNOK_clean_linker_0, # of connection points: 2
#     Edge 10, Type (0, 0), BuildingBlock: AJUNOK_clean_linker_0, # of connection points: 2
#     Edge 11, Type (0, 0), BuildingBlock: AJUNOK_clean_linker_0, # of connection points: 2
#     Edge 12, Type (0, 0), BuildingBlock: AJUNOK_clean_linker_0, # of connection points: 2
#     Edge 13, Type (0, 0), BuildingBlock: AJUNOK_clean_linker_0, # of connection points: 2
#     Edge 14, Type (0, 0), BuildingBlock: AJUNOK_clean_linker_0, # of connection points: 2
#     Edge 15, Type (0, 0), BuildingBlock: AJUNOK_clean_linker_0, # of connection points: 2
#     Edge 16, Type (0, 0), BuildingBlock: AJUNOK_clean_linker_0, # of connection points: 2
#     Edge 17, Type (0, 0), BuildingBlock: AJUNOK_clean_linker_0, # of connection points: 2
#     Edge 18, Type (0, 0), BuildingBlock: AJUNOK_clean_linker_0, # of connection points: 2
#     Edge 19, Type (0, 0), BuildingBlock: AJUNOK_clean_linker_0, # of connection points: 2
#     Edge 20, Type (0, 0), BuildingBlock: AJUNOK_clean_linker_0, # of connection points: 2
# Relax obj value: 0.878
# Max RMSD: 0.216
# Mean RMSD: 0.213
data_MOF--net-cab--node1-XOMCOT_clean_sbu_1--edge1-AJUNOK_clean_linker_0
_symmetry_space_group_name_H-M    P1
_symmetry_Int_Tables_number       1
_symmetry_cell_setting            triclinic
loop_
_symmetry_equiv_pos_as_xyz
'x, y, z'
_cell_length_a     28.306889
_cell_length_b     27.729406
_cell_length_c     28.325397
_cell_angle_alpha  78.776899
_cell_angle_beta   67.225472
_cell_angle_gamma 78.788923
loop_
_atom_site_label
_atom_site_type_symbol
_atom_site_fract_x
_atom_site_fract_y
_atom_site_fract_z
_atom_type_partial_charge
C0 C 0.02484 0.94086 0.48288 0.0
C1 C 0.05277 0.89401 0.47986 0.0
N2 N 0.08441 0.89144 0.43034 0.0
N3 N 0.03864 0.96705 0.4353 0.0
C4 C 0.0747 0.93597 0.40438 0.0
H5 H -0.00557 0.95399 0.51678 0.0
Co6 Co 0.00868 0.02778 0.412 0.0
C7 C 0.10228 0.07552 0.34501 0.0
O8 O 0.08194 0.11677 0.36574 0.0
N9 N 0.97647 0.08792 0.3869 0.0
C10 C 0.91418 0.14543 0.37364 0.0
C11 C 0.92656 0.10776 0.40806 0.0
C12 C -0.00785 0.11221 0.33825 0.0
N13 N 0.9556 0.14793 0.32943 0.0
O14 O -0.00624 0.99754 0.3666 0.0
H15 H 0.89927 0.09345 0.44462 0.0
H16 H 0.0282 0.10144 0.30813 0.0
O17 O 0.07609 0.03911 0.35893 0.0
C18 C 0.94814 0.98628 0.38651 0.0
O19 O 0.9285 0.97585 0.43705 0.0
N20 N 0.02161 0.05821 0.45886 0.0
C21 C 0.03979 0.10984 0.52372 0.0
C22 C 0.07956 0.07738 0.49358 0.0
C23 C 0.06952 0.05148 0.46184 0.0
C24 C 0.9815 0.08544 0.49203 0.0
C25 C -0.01007 0.11273 0.52374 0.0
H26 H 0.10054 0.02642 0.43907 0.0
H27 H 0.94255 0.08571 0.49493 0.0
H28 H 0.09021 0.94433 0.36271 0.0
H29 H 0.04819 0.8635 0.51093 0.0
H30 H 0.87719 0.16834 0.38067 0.0
H31 H 0.11787 0.07115 0.49528 0.0
H32 H 0.95758 0.13528 0.54853 0.0
C33 C 0.06323 0.02264 0.83644 0.0
C34 C 0.01795 0.01473 0.87722 0.0
N35 N 0.01023 0.04517 0.91214 0.0
N36 N 0.08395 0.05805 0.84533 0.0
C37 C 0.05052 0.07177 0.89104 0.0
H38 H 0.08224 1.00089 0.80474 0.0
Co39 Co 0.15246 0.06725 0.81247 0.0
C40 C 0.15829 0.16702 0.83019 0.0
O41 O 0.18985 0.17546 0.78203 0.0
N42 N 0.22332 0.07406 0.77992 0.0
C43 C 0.30735 0.06727 0.73106 0.0
C44 C 0.25841 0.06612 0.73246 0.0
C45 C 0.25216 0.0799 0.80624 0.0
N46 N 0.30293 0.07607 0.7776 0.0
O47 O 0.16525 0.02543 0.86875 0.0
H48 H 0.25051 0.05699 0.70125 0.0
H49 H 0.23648 0.08368 0.847 0.0
O50 O 0.1408 0.12533 0.84715 0.0
C51 C 0.1815 0.98018 0.86256 0.0
O52 O 0.19751 0.96738 0.81604 0.0
N53 N 0.13699 0.10506 0.75732 0.0
C54 C 0.10474 0.14334 0.67529 0.0
C55 C 0.08705 0.16826 0.71858 0.0
C56 C 0.1034 0.14812 0.75975 0.0
C57 C 0.15173 0.07933 0.71661 0.0
C58 C 0.13776 0.09867 0.67426 0.0
H59 H 0.086 0.16528 0.79471 0.0
H60 H 0.17173 0.04203 0.71853 0.0
H61 H 0.0574 0.09883 0.90947 0.0
H62 H -0.00513 0.98588 0.88248 0.0
H63 H 0.34339 0.05995 0.69928 0.0
H64 H 0.0588 0.20118 0.72167 0.0
H65 H 0.1491 0.07685 0.64282 0.0
C66 C 0.39402 0.05396 0.15119 0.0
C67 C 0.35624 0.05973 0.19908 0.0
N68 N 0.31178 0.04924 0.1989 0.0
N69 N 0.37315 0.03969 0.12148 0.0
C70 C 0.32325 0.03691 0.15171 0.0
H71 H 0.43341 0.06171 0.13817 0.0
Co72 Co 0.40095 0.03539 0.05131 0.0
C73 C 0.37212 0.94177 0.04323 0.0
O74 O 0.41865 0.93093 0.00937 0.0
N75 N 0.42804 0.03226 0.97895 0.0
C76 C 0.47351 0.02185 0.89621 0.0
C77 C 0.47489 0.01528 0.94516 0.0
C78 C 0.3992 0.04819 0.94914 0.0
N79 N 0.42582 0.04297 0.89917 0.0
O80 O 0.34575 0.08401 0.0446 0.0
H81 H 0.5081 0.99763 0.95465 0.0
H82 H 0.35844 0.06193 0.9637 0.0
O83 O 0.36025 0.98248 0.06235 0.0
C84 C 0.3537 0.12813 0.04246 0.0
O85 O 0.39916 0.13517 0.04017 0.0
N86 N 0.45578 0.9914 0.06102 0.0
C87 C 0.53498 0.95141 0.09693 0.0
C88 C 0.49004 0.92881 0.11498 0.0
C89 C 0.45054 0.94945 0.09628 0.0
C90 C 0.49963 0.0132 0.04307 0.0
C91 C 0.54059 0.99265 0.05887 0.0
H92 H 0.41393 0.9351 0.11462 0.0
H93 H 0.50131 0.04875 0.019 0.0
H94 H 0.29483 0.02946 0.13817 0.0
H95 H 0.3608 0.07195 0.23093 0.0
H96 H 0.50486 0.0117 0.86142 0.0
H97 H 0.48375 0.89844 0.14632 0.0
H98 H 0.57387 0.01235 0.04608 0.0
C99 C 0.12888 0.35376 0.10455 0.0
C100 C 0.17478 0.32624 0.10533 0.0
N101 N 0.18259 0.28579 0.08214 0.0
N102 N 0.10846 0.33079 0.08055 0.0
C103 C 0.14163 0.28919 0.06815 0.0
H104 H 0.11181 0.3885 0.11989 0.0
Co105 Co 0.04863 0.35139 0.06629 0.0
C106 C 0.07517 0.32246 0.96313 0.0
O107 O 0.05442 0.36621 0.94753 0.0
N108 N 0.98675 0.37086 0.05264 0.0
C109 C 0.90758 0.40397 0.05516 0.0
C110 C 0.95346 0.4134 0.05563 0.0
C111 C 0.96054 0.33693 0.04872 0.0
N112 N 0.91223 0.35565 0.05101 0.0
O113 O 0.02141 0.29446 0.11118 0.0
H114 H 0.95949 0.44836 0.06207 0.0
H115 H 0.97471 0.2977 0.04998 0.0
O116 O 0.07593 0.31299 0.00874 0.0
C117 C 0.98249 0.29747 0.15301 0.0
O118 O 0.9559 0.34092 0.1638 0.0
N119 N 0.07739 0.40798 0.02598 0.0
C120 C 0.13587 0.48523 0.0025 0.0
C121 C 0.155 0.44464 0.97472 0.0
C122 C 0.1249 0.4062 0.98695 0.0
C123 C 0.05804 0.44818 0.05194 0.0
C124 C 0.08589 0.48789 0.03971 0.0
H125 H 0.1429 0.37264 0.9697 0.0
H126 H 0.02421 0.44666 0.08693 0.0
H127 H 0.13649 0.2621 0.04833 0.0
H128 H 0.20012 0.33511 0.12194 0.0
H129 H 0.87228 0.42967 0.0616 0.0
H130 H 0.19434 0.44065 0.94723 0.0
H131 H 0.07105 0.51762 0.06357 0.0
C132 C 0.71992 0.16458 0.19891 0.0
C133 C 0.7264 0.21145 0.17159 0.0
N134 N 0.77665 0.21134 0.14121 0.0
N135 N 0.7661 0.13576 0.18593 0.0
C136 C 0.7997 0.16541 0.15129 0.0
H137 H 0.68435 0.15269 0.22738 0.0
Co138 Co 0.78469 0.07143 0.2116 0.0
C139 C 0.8551 0.02678 0.11756 0.0
O140 O 0.83251 0.98636 0.13386 0.0
N141 N 0.80601 0.00602 0.23811 0.0
C142 C 0.8169 0.93056 0.28037 0.0
C143 C 0.78121 0.96924 0.27199 0.0
C144 C 0.85659 0.98905 0.22841 0.0
N145 N 0.86455 0.94304 0.25264 0.0
O146 O 0.83096 0.09367 0.23259 0.0
H147 H 0.74006 0.96995 0.2912 0.0
H148 H 0.88695 0.01142 0.20536 0.0
O149 O 0.8395 0.0626 0.14457 0.0
C150 C 0.8128 0.09436 0.28101 0.0
O151 O 0.76231 0.09933 0.30437 0.0
N152 N 0.73654 0.04991 0.19332 0.0
C153 C 0.66989 1.00244 0.17385 0.0
C154 C 0.70586 0.02935 0.13322 0.0
C155 C 0.7384 0.05371 0.14394 0.0
C156 C 0.69603 0.03186 0.23343 0.0
C157 C 0.66324 0.00608 0.22473 0.0
H158 H 0.76587 0.07444 0.11248 0.0
H159 H 0.69038 0.03599 0.27248 0.0
H160 H 0.84105 0.15435 0.13588 0.0
H161 H 0.69692 0.24332 0.17473 0.0
H162 H 0.80821 0.89588 0.30503 0.0
H163 H 0.7089 0.03156 0.09357 0.0
H164 H 0.63372 0.98862 0.25737 0.0
C165 C 0.0748 0.78103 0.10323 0.0
C166 C 0.07464 0.81043 0.05796 0.0
N167 N 0.12149 0.82569 0.03315 0.0
N168 N 0.12123 0.77874 0.10702 0.0
C169 C 0.1488 0.80608 0.06355 0.0
H170 H 0.04213 0.76529 0.13313 0.0
Co171 Co 0.13725 0.75489 0.16568 0.0
C172 C 0.24029 0.78623 0.13769 0.0
O173 O 0.25948 0.74233 0.15473 0.0
N174 N 0.15251 0.73253 0.22614 0.0
C175 C 0.15187 0.69702 0.30407 0.0
C176 C 0.14837 0.68956 0.25879 0.0
C177 C 0.15941 0.76479 0.25222 0.0
N178 N 0.15901 0.7445 0.29953 0.0
O179 O 0.09274 0.81017 0.19632 0.0
H180 H 0.13912 0.65591 0.25268 0.0
H181 H 0.15928 0.80413 0.2388 0.0
O182 O 0.19385 0.7939 0.13945 0.0
C183 C 0.04851 0.80361 0.23034 0.0
O184 O 0.03818 0.7581 0.24947 0.0
N185 N 0.17703 0.69961 0.13411 0.0
C186 C 0.20237 0.62203 0.07569 0.0
C187 C 0.23065 0.66231 0.05755 0.0
C188 C 0.21753 0.70089 0.08766 0.0
C189 C 0.15003 0.66009 0.1522 0.0
C190 C 0.16301 0.62026 0.12442 0.0
H191 H 0.23639 0.73367 0.07082 0.0
H192 H 0.11463 0.66184 0.18562 0.0
H193 H 0.18694 0.81482 0.0557 0.0
H194 H 0.04203 0.8217 0.04549 0.0
H195 H 0.14574 0.67072 0.3389 0.0
H196 H 0.25999 0.66556 0.01913 0.0
H197 H 0.1389 0.59072 0.13847 0.0
C198 C 0.01735 0.23116 0.20756 0.0
C199 C 0.97506 0.25502 0.194 0.0
C200 C 0.01062 0.1956 0.2512 0.0
C201 C 0.96146 0.18192 0.2825 0.0
H202 H 0.05558 0.24182 0.18573 0.0
H203 H 0.04403 0.18014 0.26152 0.0
S204 S 0.84 0.22775 0.25702 0.0
N205 N 0.88359 0.2597 0.2112 0.0
N206 N 0.87086 0.19081 0.29215 0.0
C207 C 0.9193 0.20349 0.26722 0.0
C208 C 0.92615 0.24055 0.22319 0.0
C209 C 0.90011 0.06326 0.28455 0.0
C210 C 0.84613 0.06863 0.30998 0.0
C211 C 0.93274 0.03322 0.30804 0.0
C212 C 0.91283 0.00795 0.35838 0.0
H213 H 0.91737 0.0821 0.24586 0.0
H214 H 0.97405 0.03129 0.28708 0.0
S215 S 0.77397 0.00608 0.43999 0.0
N216 N 0.77395 0.04356 0.38709 0.0
N217 N 0.83537 0.98742 0.4314 0.0
C218 C 0.85883 0.01169 0.38362 0.0
C219 C 0.82552 0.04234 0.35966 0.0
C220 C 0.08888 0.80447 0.41927 0.0
C221 C 0.11219 0.84802 0.40632 0.0
C222 C 0.10776 0.76745 0.38657 0.0
C223 C 0.15049 0.77299 0.34008 0.0
H224 H 0.05322 0.80105 0.45221 0.0
H225 H 0.08597 0.73672 0.39528 0.0
S226 S 0.23124 0.87509 0.29468 0.0
N227 N 0.18484 0.89074 0.3486 0.0
N228 N 0.22024 0.82122 0.28718 0.0
C229 C 0.17725 0.81373 0.32985 0.0
C230 C 0.1581 0.85128 0.36296 0.0
C231 C 0.22681 0.02086 0.24705 0.0
C232 C 0.26077 0.05544 0.23755 0.0
C233 C 0.17573 0.02769 0.28181 0.0
C234 C 0.15639 0.0698 0.30793 0.0
H235 H 0.23995 0.98828 0.22729 0.0
H236 H 0.1512 0.99985 0.2878 0.0
S237 S 0.22974 0.1723 0.29479 0.0
N238 N 0.27163 0.13374 0.25572 0.0
N239 N 0.17568 0.14691 0.32128 0.0
C240 C 0.1901 0.10481 0.29855 0.0
C241 C 0.24229 0.09753 0.26339 0.0
C242 C 0.10367 0.90782 0.98694 0.0
C243 C 0.13664 0.86327 0.98948 0.0
C244 C 0.11971 0.94662 0.94704 0.0
C245 C 0.16871 0.94153 0.90752 0.0
H246 H 0.06556 0.91293 0.01639 0.0
H247 H 0.09293 0.98021 0.94631 0.0
S248 S 0.26879 0.83177 0.89601 0.0
N249 N 0.22034 0.8162 0.94952 0.0
N250 N 0.24974 0.88845 0.87297 0.0
C251 C 0.20175 0.89697 0.90925 0.0
C252 C 0.18591 0.85798 0.95064 0.0
C253 C 0.37021 0.09946 0.85874 0.0
C254 C 0.40457 0.05551 0.85927 0.0
C255 C 0.33974 0.10777 0.82852 0.0
C256 C 0.34294 0.07259 0.79758 0.0
H257 H 0.36489 0.12629 0.88412 0.0
H258 H 0.31137 0.14058 0.83144 0.0
S259 S 0.42899 0.95299 0.78291 0.0
N260 N 0.44218 0.97768 0.82426 0.0
N261 N 0.38484 0.99357 0.76684 0.0
C262 C 0.37962 0.03008 0.79494 0.0
C263 C 0.41059 0.02148 0.82597 0.0
C264 C 0.11882 0.19584 0.91724 0.0
C265 C 0.13872 0.20734 0.86313 0.0
C266 C 0.09904 0.23335 0.94925 0.0
C267 C 0.09741 0.28378 0.92834 0.0
H268 H 0.1187 0.15754 0.93506 0.0
H269 H 0.08408 0.22271 0.99071 0.0
S270 S 0.1442 0.33372 0.78917 0.0
N271 N 0.15564 0.27293 0.79005 0.0
N272 N 0.11764 0.34328 0.85028 0.0
C273 C 0.11697 0.29582 0.87436 0.0
C274 C 0.1379 0.25765 0.84175 0.0
C275 C 0.88763 0.01913 0.02399 0.0
C276 C 0.89483 0.03298 0.06552 0.0
C277 C 0.92474 0.02485 0.974 0.0
C278 C 0.97123 0.04337 0.96372 0.0
H279 H 0.85266 0.00441 0.03005 0.0
H280 H 0.91682 0.0145 0.94316 0.0
S281 S 0.00887 0.08232 0.06164 0.0
N282 N 0.9507 0.06597 0.09445 0.0
N283 N 0.02258 0.07352 0.00151 0.0
C284 C 0.97885 0.05699 0.00565 0.0
C285 C 0.94012 0.05251 0.05629 0.0
C286 C 0.25959 0.15962 0.06581 0.0
C287 C 0.31078 0.16957 0.04994 0.0
C288 C 0.21797 0.19773 0.07668 0.0
C289 C 0.22589 0.24718 0.07231 0.0
H290 H 0.25138 0.122 0.07075 0.0
H291 H 0.17916 0.18839 0.08927 0.0
S292 S 0.35216 0.29378 0.02867 0.0
N293 N 0.36701 0.23324 0.02813 0.0
N294 N 0.28851 0.30464 0.0484 0.0
C295 C 0.27672 0.25787 0.05577 0.0
C296 C 0.31922 0.21914 0.04453 0.0
C297 C 0.35781 0.8528 0.06395 0.0
C298 C 0.33715 0.90318 0.0659 0.0
C299 C 0.32635 0.81514 0.08799 0.0
C300 C 0.27293 0.82647 0.11401 0.0
H301 H 0.39885 0.84219 0.0446 0.0
H302 H 0.34395 0.77689 0.08561 0.0
S303 S 0.19946 0.95233 0.13031 0.0
N304 N 0.25978 0.9623 0.09624 0.0
N305 N 0.2005 0.89151 0.14067 0.0
C306 C 0.25158 0.87664 0.1159 0.0
C307 C 0.28373 0.91499 0.09207 0.0
C308 C 0.7924 0.29779 0.13096 0.0
C309 C 0.80328 0.25262 0.11098 0.0
C310 C 0.82597 0.33396 0.10819 0.0
C311 C 0.87132 0.32598 0.06475 0.0
H312 H 0.76013 0.30352 0.16663 0.0
H313 H 0.81863 0.3664 0.1272 0.0
S314 S 0.91174 0.21787 0.99252 0.0
N315 N 0.85822 0.20496 0.04127 0.0
N316 N 0.92133 0.27286 -0.00135 0.0
C317 C 0.87986 0.28299 0.04183 0.0
C318 C 0.84584 0.24629 0.06492 0.0
C319 C 0.96136 0.84146 0.28419 0.0
C320 C 0.00565 0.84497 0.23907 0.0
C321 C 0.91632 0.87507 0.28928 0.0
C322 C 0.91336 0.91289 0.24897 0.0
H323 H 0.96098 0.81157 0.31527 0.0
H324 H 0.88312 0.8705 0.32464 0.0
S325 S 0.0202 0.9392 0.12343 0.0
N326 N 0.04535 0.89126 0.15466 0.0
N327 N 0.96011 0.95252 0.16268 0.0
C328 C 0.95831 0.91797 0.20434 0.0
C329 C 0.00458 0.88447 0.19978 0.0
C330 C 0.03168 0.14174 0.64983 0.0
C331 C 0.08068 0.1559 0.63637 0.0
C332 C 0.01626 0.13122 0.6121 0.0
C333 C 0.04935 0.13509 0.5599 0.0
H334 H 0.00777 0.13317 0.6901 0.0
H335 H 0.9806 0.11536 0.62465 0.0
S336 S 0.17556 0.18361 0.5045 0.0
N337 N 0.15808 0.18186 0.56757 0.0
N338 N 0.12816 0.16439 0.49581 0.0
C339 C 0.09527 0.15587 0.54553 0.0
C340 C 0.1112 0.16582 0.58409 0.0
C341 C 0.583 0.98048 0.19044 0.0
C342 C 0.63663 0.97458 0.16284 0.0
C343 C 0.54951 0.9648 0.17278 0.0
C344 C 0.5687 0.9435 0.12673 0.0
H345 H 0.56633 1.00133 0.22301 0.0
H346 H 0.50826 0.97485 0.19176 0.0
S347 S 0.70589 0.90845 0.04808 0.0
N348 N 0.70773 0.93605 0.09393 0.0
N349 N 0.64401 0.9092 0.05918 0.0
C350 C 0.62215 0.93194 0.10246 0.0
C351 C 0.65638 0.94704 0.12087 0.0
C352 C 0.17815 0.60363 0.00671 0.0
C353 C 0.20453 0.5874 0.04122 0.0
C354 C 0.16074 0.56958 0.9885 0.0
C355 C 0.1703 0.5184 0.00342 0.0
H356 H 0.16603 0.64285 -0.00173 0.0
H357 H 0.13577 0.58343 0.96658 0.0
S358 S 0.24417 0.45721 0.08685 0.0
N359 N 0.24399 0.51715 0.0852 0.0
N360 N 0.21288 0.45296 0.04953 0.0
C361 C 0.20151 0.50172 0.03323 0.0
C362 C 0.21827 0.53635 0.05258 0.0
loop_
_geom_bond_atom_site_label_1
_geom_bond_atom_site_label_2
_geom_bond_distance
_geom_bond_site_symmetry_2
_ccdc_geom_bond_type
C0 C1 1.351 . S
C0 N3 1.368 1_655 S
C0 H5 0.931 . S
C1 C0 1.351 . S
C1 N2 1.373 1_655 S
C1 H29 0.930 . S
N2 C1 1.373 1_455 S
N2 C4 1.340 . S
N3 C0 1.368 1_455 S
N3 C4 1.321 . S
N3 Co6 2.135 1_565 S
C4 N2 1.340 . S
C4 N3 1.321 . S
C4 H28 0.930 . S
H5 C0 0.931 . S
Co6 N3 2.135 1_545 S
Co6 N9 2.121 . S
Co6 O14 2.055 1_455 S
Co6 O17 2.039 . S
Co6 N20 2.140 . S
C7 O8 1.227 . S
C7 O17 1.265 1_565 S
O8 C7 1.227 . S
N9 Co6 2.121 . S
N9 C11 1.375 . S
N9 C12 1.313 1_455 S
C10 C11 1.338 . S
C10 N13 1.377 . S
C10 H30 0.930 . S
C11 N9 1.375 . S
C11 C10 1.338 . S
C11 H15 0.931 . S
C12 N9 1.313 1_655 S
C12 N13 1.344 1_655 S
C12 H16 0.930 . S
N13 C10 1.377 . S
N13 C12 1.344 1_455 S
O14 Co6 2.055 1_655 S
O14 C18 1.253 . S
H15 C11 0.931 . S
H16 C12 0.930 . S
O17 Co6 2.039 . S
O17 C7 1.265 1_545 S
C18 O14 1.253 . S
C18 O19 1.227 . S
O19 C18 1.227 . S
N20 Co6 2.140 . S
N20 C23 1.346 1_545 S
N20 C24 1.345 . S
C21 C22 1.387 1_545 S
C21 C25 1.391 . S
C22 C21 1.387 1_565 S
C22 C23 1.369 . S
C22 H31 0.929 . S
C23 N20 1.346 1_565 S
C23 C22 1.369 . S
C23 H26 0.928 . S
C24 N20 1.345 . S
C24 C25 1.371 . S
C24 H27 0.931 1_455 S
C25 C21 1.391 . S
C25 C24 1.371 . S
C25 H32 0.930 1_455 S
H26 C23 0.928 . S
H27 C24 0.931 1_655 S
H28 C4 0.930 . S
H29 C1 0.930 . S
H30 C10 0.930 . S
H31 C22 0.929 . S
H32 C25 0.930 1_655 S
C33 C34 1.351 . S
C33 N36 1.368 . S
C33 H38 0.922 1_545 S
C34 C33 1.351 . S
C34 N35 1.373 . S
C34 H62 0.930 . S
N35 C34 1.373 . S
N35 C37 1.340 . S
N36 C33 1.368 . S
N36 C37 1.321 . S
N36 Co39 2.135 . S
C37 N35 1.340 . S
C37 N36 1.321 . S
C37 H61 0.930 . S
H38 C33 0.922 1_565 S
Co39 N36 2.135 . S
Co39 N42 2.121 . S
Co39 O47 2.055 . S
Co39 O50 2.039 . S
Co39 N53 2.140 . S
C40 O41 1.227 . S
C40 O50 1.265 . S
O41 C40 1.227 . S
N42 Co39 2.121 . S
N42 C44 1.375 . S
N42 C45 1.313 . S
C43 C44 1.338 . S
C43 N46 1.377 . S
C43 H63 0.930 . S
C44 N42 1.375 . S
C44 C43 1.338 . S
C44 H48 0.931 . S
C45 N42 1.313 . S
C45 N46 1.344 . S
C45 H49 0.930 . S
N46 C43 1.377 . S
N46 C45 1.344 . S
O47 Co39 2.055 . S
O47 C51 1.253 1_545 S
H48 C44 0.931 . S
H49 C45 0.930 . S
O50 Co39 2.039 . S
O50 C40 1.265 . S
C51 O47 1.253 1_565 S
C51 O52 1.227 . S
O52 C51 1.227 . S
N53 Co39 2.140 . S
N53 C56 1.346 . S
N53 C57 1.345 . S
C54 C55 1.387 . S
C54 C58 1.391 . S
C55 C54 1.387 . S
C55 C56 1.369 . S
C55 H64 0.929 . S
C56 N53 1.346 . S
C56 C55 1.369 . S
C56 H59 0.928 . S
C57 N53 1.345 . S
C57 C58 1.371 . S
C57 H60 0.931 . S
C58 C54 1.391 . S
C58 C57 1.371 . S
C58 H65 0.930 . S
H59 C56 0.928 . S
H60 C57 0.931 . S
H61 C37 0.930 . S
H62 C34 0.930 . S
H63 C43 0.930 . S
H64 C55 0.929 . S
H65 C58 0.930 . S
C66 C67 1.351 . S
C66 N69 1.368 . S
C66 H71 0.931 . S
C67 C66 1.351 . S
C67 N68 1.373 . S
C67 H95 0.930 . S
N68 C67 1.373 . S
N68 C70 1.340 1_545 S
N69 C66 1.368 . S
N69 C70 1.321 1_545 S
N69 Co72 2.135 . S
C70 N68 1.340 1_565 S
C70 N69 1.321 1_565 S
C70 H94 0.930 . S
H71 C66 0.931 . S
Co72 N69 2.135 . S
Co72 N75 2.121 1_554 S
Co72 O80 2.055 . S
Co72 O83 2.039 1_545 S
Co72 N86 2.140 . S
C73 O74 1.227 . S
C73 O83 1.265 . S
O74 C73 1.227 . S
N75 Co72 2.121 1_556 S
N75 C77 1.375 1_545 S
N75 C78 1.313 . S
C76 C77 1.338 . S
C76 N79 1.377 1_565 S
C76 H96 0.930 . S
C77 N75 1.375 1_565 S
C77 C76 1.338 . S
C77 H81 0.931 . S
C78 N75 1.313 . S
C78 N79 1.344 . S
C78 H82 0.930 . S
N79 C76 1.377 1_545 S
N79 C78 1.344 . S
O80 Co72 2.055 . S
O80 C84 1.253 . S
H81 C77 0.931 . S
H82 C78 0.930 . S
O83 Co72 2.039 1_565 S
O83 C73 1.265 . S
C84 O80 1.253 . S
C84 O85 1.227 . S
O85 C84 1.227 . S
N86 Co72 2.140 . S
N86 C89 1.346 1_545 S
N86 C90 1.345 . S
C87 C88 1.387 1_545 S
C87 C91 1.391 . S
C88 C87 1.387 1_565 S
C88 C89 1.369 . S
C88 H97 0.929 . S
C89 N86 1.346 1_565 S
C89 C88 1.369 . S
C89 H92 0.928 . S
C90 N86 1.345 . S
C90 C91 1.371 . S
C90 H93 0.931 1_554 S
C91 C87 1.391 . S
C91 C90 1.371 . S
C91 H98 0.930 1_554 S
H92 C89 0.928 . S
H93 C90 0.931 1_556 S
H94 C70 0.930 . S
H95 C67 0.930 . S
H96 C76 0.930 . S
H97 C88 0.929 . S
H98 C91 0.930 1_556 S
C99 C100 1.351 . S
C99 N102 1.368 . S
C99 H104 0.931 . S
C100 C99 1.351 . S
C100 N101 1.373 . S
C100 H128 0.930 . S
N101 C100 1.373 . S
N101 C103 1.340 . S
N102 C99 1.368 . S
N102 C103 1.321 . S
N102 Co105 2.135 . S
C103 N101 1.340 . S
C103 N102 1.321 . S
C103 H127 0.930 1_554 S
H104 C99 0.931 . S
Co105 N102 2.135 . S
Co105 N108 2.121 1_455 S
Co105 O113 2.055 . S
Co105 O116 2.023 1_554 S
Co105 N119 2.140 . S
C106 O107 1.227 . S
C106 O116 1.278 . S
O107 C106 1.227 . S
N108 Co105 2.121 1_655 S
N108 C110 1.375 . S
N108 C111 1.313 . S
C109 C110 1.338 . S
C109 N112 1.377 . S
C109 H129 0.930 . S
C110 N108 1.375 . S
C110 C109 1.338 . S
C110 H114 0.931 1_554 S
C111 N108 1.313 . S
C111 N112 1.344 . S
C111 H115 0.930 . S
N112 C109 1.377 . S
N112 C111 1.344 . S
O113 Co105 2.055 . S
O113 C117 1.253 . S
H114 C110 0.931 1_556 S
H115 C111 0.930 . S
O116 Co105 2.023 1_556 S
O116 C106 1.278 . S
C117 O113 1.253 . S
C117 O118 1.227 . S
O118 C117 1.227 . S
N119 Co105 2.140 . S
N119 C122 1.346 . S
N119 C123 1.345 . S
C120 C121 1.387 . S
C120 C124 1.391 . S
C121 C120 1.387 . S
C121 C122 1.369 . S
C121 H130 0.929 . S
C122 N119 1.346 . S
C122 C121 1.369 . S
C122 H125 0.928 . S
C123 N119 1.345 . S
C123 C124 1.371 . S
C123 H126 0.931 1_455 S
C124 C120 1.391 . S
C124 C123 1.371 . S
C124 H131 0.930 1_455 S
H125 C122 0.928 . S
H126 C123 0.931 1_655 S
H127 C103 0.930 1_556 S
H128 C100 0.930 . S
H129 C109 0.930 . S
H130 C121 0.929 . S
H131 C124 0.930 1_655 S
C132 C133 1.351 . S
C132 N135 1.368 . S
C132 H137 0.931 . S
C133 C132 1.351 . S
C133 N134 1.373 . S
C133 H161 0.930 . S
N134 C133 1.373 . S
N134 C136 1.340 . S
N135 C132 1.368 . S
N135 C136 1.321 . S
N135 Co138 2.135 . S
C136 N134 1.340 . S
C136 N135 1.321 . S
C136 H160 0.930 . S
H137 C132 0.931 . S
Co138 N135 2.135 . S
Co138 N141 2.121 . S
Co138 O146 2.055 . S
Co138 O149 2.039 . S
Co138 N152 2.140 . S
C139 O140 1.227 . S
C139 O149 1.265 . S
O140 C139 1.227 . S
N141 Co138 2.121 . S
N141 C143 1.375 1_545 S
N141 C144 1.313 1_545 S
C142 C143 1.338 . S
C142 N145 1.377 . S
C142 H162 0.930 . S
C143 N141 1.375 1_565 S
C143 C142 1.338 . S
C143 H147 0.931 1_565 S
C144 N141 1.313 1_565 S
C144 N145 1.344 . S
C144 H148 0.930 . S
N145 C142 1.377 . S
N145 C144 1.344 . S
O146 Co138 2.055 . S
O146 C150 1.253 . S
H147 C143 0.931 1_545 S
H148 C144 0.930 . S
O149 Co138 2.039 . S
O149 C139 1.265 . S
C150 O146 1.253 . S
C150 O151 1.227 . S
O151 C150 1.227 . S
N152 Co138 2.140 . S
N152 C155 1.346 . S
N152 C156 1.345 . S
C153 C154 1.387 . S
C153 C157 1.391 . S
C154 C153 1.387 . S
C154 C155 1.369 . S
C154 H163 0.929 . S
C155 N152 1.346 . S
C155 C154 1.369 . S
C155 H158 0.928 . S
C156 N152 1.345 . S
C156 C157 1.371 . S
C156 H159 0.931 . S
C157 C153 1.391 . S
C157 C156 1.371 . S
C157 H164 0.930 . S
H158 C155 0.928 . S
H159 C156 0.931 . S
H160 C136 0.930 . S
H161 C133 0.930 . S
H162 C142 0.930 . S
H163 C154 0.929 . S
H164 C157 0.930 . S
C165 C166 1.351 . S
C165 N168 1.368 . S
C165 H170 0.931 . S
C166 C165 1.351 . S
C166 N167 1.373 . S
C166 H194 0.930 1_554 S
N167 C166 1.373 . S
N167 C169 1.340 . S
N168 C165 1.368 . S
N168 C169 1.321 . S
N168 Co171 2.135 . S
C169 N167 1.340 . S
C169 N168 1.321 . S
C169 H193 0.930 . S
H170 C165 0.931 . S
Co171 N168 2.135 . S
Co171 N174 2.121 . S
Co171 O179 2.055 . S
Co171 O182 2.039 . S
Co171 N185 2.140 . S
C172 O173 1.227 . S
C172 O182 1.265 . S
O173 C172 1.227 . S
N174 Co171 2.121 . S
N174 C176 1.375 . S
N174 C177 1.313 . S
C175 C176 1.338 . S
C175 N178 1.377 . S
C175 H195 0.930 . S
C176 N174 1.375 . S
C176 C175 1.338 . S
C176 H180 0.931 . S
C177 N174 1.313 . S
C177 N178 1.344 . S
C177 H181 0.930 . S
N178 C175 1.377 . S
N178 C177 1.344 . S
O179 Co171 2.055 . S
O179 C183 1.253 . S
H180 C176 0.931 . S
H181 C177 0.930 . S
O182 Co171 2.039 . S
O182 C172 1.265 . S
C183 O179 1.253 . S
C183 O184 1.227 . S
O184 C183 1.227 . S
N185 Co171 2.140 . S
N185 C188 1.346 . S
N185 C189 1.345 . S
C186 C187 1.387 . S
C186 C190 1.391 . S
C187 C186 1.387 . S
C187 C188 1.369 . S
C187 H196 0.929 . S
C188 N185 1.346 . S
C188 C187 1.369 . S
C188 H191 0.928 . S
C189 N185 1.345 . S
C189 C190 1.371 . S
C189 H192 0.931 . S
C190 C186 1.391 . S
C190 C189 1.371 . S
C190 H197 0.930 . S
H191 C188 0.928 . S
H192 C189 0.931 . S
H193 C169 0.930 . S
H194 C166 0.930 1_556 S
H195 C175 0.930 . S
H196 C187 0.929 . S
H197 C190 0.930 . S
C198 C199 1.369 . S
C198 C200 1.419 . S
C198 H202 0.930 . S
C199 C198 1.369 . S
C199 C208 1.429 1_455 S
C200 C198 1.419 . S
C200 C201 1.363 1_455 S
C200 H203 0.929 . S
C201 C200 1.363 1_655 S
C201 C207 1.428 . S
H202 C198 0.930 . S
H203 C200 0.929 . S
S204 N205 1.613 . S
S204 N206 1.610 . S
N205 S204 1.613 . S
N205 C208 1.350 . S
N206 S204 1.610 . S
N206 C207 1.351 . S
C207 C201 1.428 . S
C207 N206 1.351 . S
C207 C208 1.434 . S
C208 C199 1.429 1_655 S
C208 N205 1.350 . S
C208 C207 1.434 . S
C209 C210 1.369 . S
C209 C211 1.419 . S
C209 H213 0.930 . S
C210 C209 1.369 . S
C210 C219 1.429 . S
C211 C209 1.419 . S
C211 C212 1.363 . S
C211 H214 0.929 . S
C212 C211 1.363 . S
C212 C218 1.428 . S
H213 C209 0.930 . S
H214 C211 0.929 . S
S215 N216 1.613 . S
S215 N217 1.610 . S
N216 S215 1.613 . S
N216 C219 1.350 . S
N217 S215 1.610 . S
N217 C218 1.351 . S
C218 C212 1.428 . S
C218 N217 1.351 . S
C218 C219 1.434 . S
C219 C210 1.429 . S
C219 N216 1.350 . S
C219 C218 1.434 . S
C220 C221 1.369 . S
C220 C222 1.419 . S
C220 H224 0.930 . S
C221 C220 1.369 . S
C221 C230 1.429 . S
C222 C220 1.419 . S
C222 C223 1.363 . S
C222 H225 0.929 . S
C223 C222 1.363 . S
C223 C229 1.428 . S
H224 C220 0.930 . S
H225 C222 0.929 . S
S226 N227 1.613 . S
S226 N228 1.610 . S
N227 S226 1.613 . S
N227 C230 1.350 . S
N228 S226 1.610 . S
N228 C229 1.351 . S
C229 C223 1.428 . S
C229 N228 1.351 . S
C229 C230 1.434 . S
C230 C221 1.429 . S
C230 N227 1.350 . S
C230 C229 1.434 . S
C231 C232 1.369 . S
C231 C233 1.419 . S
C231 H235 0.930 . S
C232 C231 1.369 . S
C232 C241 1.429 1_565 S
C233 C231 1.419 . S
C233 C234 1.363 . S
C233 H236 0.929 . S
C234 C233 1.363 . S
C234 C240 1.428 1_565 S
H235 C231 0.930 . S
H236 C233 0.929 . S
S237 N238 1.613 . S
S237 N239 1.610 . S
N238 S237 1.613 . S
N238 C241 1.350 . S
N239 S237 1.610 . S
N239 C240 1.351 . S
C240 C234 1.428 1_545 S
C240 N239 1.351 . S
C240 C241 1.434 . S
C241 C232 1.429 1_545 S
C241 N238 1.350 . S
C241 C240 1.434 . S
C242 C243 1.369 . S
C242 C244 1.419 . S
C242 H246 0.930 1_556 S
C243 C242 1.369 . S
C243 C252 1.429 . S
C244 C242 1.419 . S
C244 C245 1.363 . S
C244 H247 0.929 . S
C245 C244 1.363 . S
C245 C251 1.428 . S
H246 C242 0.930 1_554 S
H247 C244 0.929 . S
S248 N249 1.613 . S
S248 N250 1.610 . S
N249 S248 1.613 . S
N249 C252 1.350 . S
N250 S248 1.610 . S
N250 C251 1.351 . S
C251 C245 1.428 . S
C251 N250 1.351 . S
C251 C252 1.434 . S
C252 C243 1.429 . S
C252 N249 1.350 . S
C252 C251 1.434 . S
C253 C254 1.369 . S
C253 C255 1.419 . S
C253 H257 0.930 . S
C254 C253 1.369 . S
C254 C263 1.429 . S
C255 C253 1.419 . S
C255 C256 1.363 . S
C255 H258 0.929 . S
C256 C255 1.363 . S
C256 C262 1.428 . S
H257 C253 0.930 . S
H258 C255 0.929 . S
S259 N260 1.613 . S
S259 N261 1.610 1_565 S
N260 S259 1.613 . S
N260 C263 1.350 1_565 S
N261 S259 1.610 1_545 S
N261 C262 1.351 . S
C262 C256 1.428 . S
C262 N261 1.351 . S
C262 C263 1.434 . S
C263 C254 1.429 . S
C263 N260 1.350 1_545 S
C263 C262 1.434 . S
C264 C265 1.369 . S
C264 C266 1.419 . S
C264 H268 0.930 . S
C265 C264 1.369 . S
C265 C274 1.429 . S
C266 C264 1.419 . S
C266 C267 1.363 . S
C266 H269 0.929 . S
C267 C266 1.363 . S
C267 C273 1.428 . S
H268 C264 0.930 . S
H269 C266 0.929 . S
S270 N271 1.613 . S
S270 N272 1.610 . S
N271 S270 1.613 . S
N271 C274 1.350 . S
N272 S270 1.610 . S
N272 C273 1.351 . S
C273 C267 1.428 . S
C273 N272 1.351 . S
C273 C274 1.434 . S
C274 C265 1.429 . S
C274 N271 1.350 . S
C274 C273 1.434 . S
C275 C276 1.369 1_556 S
C275 C277 1.419 . S
C275 H279 0.930 1_556 S
C276 C275 1.369 1_554 S
C276 C285 1.429 . S
C277 C275 1.419 . S
C277 C278 1.363 . S
C277 H280 0.929 . S
C278 C277 1.363 . S
C278 C284 1.431 . S
H279 C275 0.930 1_554 S
H280 C277 0.929 . S
S281 N282 1.615 . S
S281 N283 1.610 1_554 S
N282 S281 1.615 . S
N282 C285 1.348 1_455 S
N283 S281 1.610 1_556 S
N283 C284 1.347 1_455 S
C284 C278 1.431 . S
C284 N283 1.347 1_655 S
C284 C285 1.435 1_556 S
C285 C276 1.429 . S
C285 N282 1.348 1_655 S
C285 C284 1.435 1_554 S
C286 C287 1.369 . S
C286 C288 1.419 . S
C286 H290 0.930 . S
C287 C286 1.369 . S
C287 C296 1.429 1_554 S
C288 C286 1.419 . S
C288 C289 1.363 . S
C288 H291 0.929 . S
C289 C288 1.363 . S
C289 C295 1.428 1_554 S
H290 C286 0.930 . S
H291 C288 0.929 . S
S292 N293 1.613 . S
S292 N294 1.610 . S
N293 S292 1.613 . S
N293 C296 1.350 . S
N294 S292 1.610 . S
N294 C295 1.351 . S
C295 C289 1.428 1_556 S
C295 N294 1.351 . S
C295 C296 1.434 . S
C296 C287 1.429 1_556 S
C296 N293 1.350 . S
C296 C295 1.434 . S
C297 C298 1.369 . S
C297 C299 1.419 . S
C297 H301 0.930 . S
C298 C297 1.369 . S
C298 C307 1.429 . S
C299 C297 1.419 . S
C299 C300 1.363 . S
C299 H302 0.929 . S
C300 C299 1.363 . S
C300 C306 1.428 . S
H301 C297 0.930 . S
H302 C299 0.929 . S
S303 N304 1.613 . S
S303 N305 1.610 . S
N304 S303 1.613 . S
N304 C307 1.350 . S
N305 S303 1.610 . S
N305 C306 1.351 . S
C306 C300 1.428 . S
C306 N305 1.351 . S
C306 C307 1.434 . S
C307 C298 1.429 . S
C307 N304 1.350 . S
C307 C306 1.434 . S
C308 C309 1.369 . S
C308 C310 1.419 . S
C308 H312 0.930 . S
C309 C308 1.369 . S
C309 C318 1.429 . S
C310 C308 1.419 . S
C310 C311 1.363 . S
C310 H313 0.929 . S
C311 C310 1.363 . S
C311 C317 1.428 . S
H312 C308 0.930 . S
H313 C310 0.929 . S
S314 N315 1.613 . S
S314 N316 1.610 . S
N315 S314 1.613 . S
N315 C318 1.350 . S
N316 S314 1.610 . S
N316 C317 1.351 . S
C317 C311 1.428 . S
C317 N316 1.351 . S
C317 C318 1.434 . S
C318 C309 1.429 . S
C318 N315 1.350 . S
C318 C317 1.434 . S
C319 C320 1.369 . S
C319 C321 1.419 . S
C319 H323 0.930 . S
C320 C319 1.369 . S
C320 C329 1.429 . S
C321 C319 1.419 . S
C321 C322 1.363 . S
C321 H324 0.929 . S
C322 C321 1.363 . S
C322 C328 1.428 . S
H323 C319 0.930 . S
H324 C321 0.929 . S
S325 N326 1.613 1_655 S
S325 N327 1.610 . S
N326 S325 1.613 1_455 S
N326 C329 1.350 1_455 S
N327 S325 1.610 . S
N327 C328 1.351 . S
C328 C322 1.428 . S
C328 N327 1.351 . S
C328 C329 1.434 . S
C329 C320 1.429 . S
C329 N326 1.350 1_655 S
C329 C328 1.434 . S
C330 C331 1.369 . S
C330 C332 1.419 . S
C330 H334 0.930 . S
C331 C330 1.369 . S
C331 C340 1.429 . S
C332 C330 1.419 . S
C332 C333 1.363 . S
C332 H335 0.929 . S
C333 C332 1.363 . S
C333 C339 1.428 . S
H334 C330 0.930 . S
H335 C332 0.929 . S
S336 N337 1.613 1_565 S
S336 N338 1.610 . S
N337 S336 1.613 1_545 S
N337 C340 1.350 . S
N338 S336 1.610 . S
N338 C339 1.351 1_565 S
C339 C333 1.428 . S
C339 N338 1.351 1_545 S
C339 C340 1.434 . S
C340 C331 1.429 . S
C340 N337 1.350 . S
C340 C339 1.434 . S
C341 C342 1.369 . S
C341 C343 1.419 . S
C341 H345 0.930 . S
C342 C341 1.369 . S
C342 C351 1.429 . S
C343 C341 1.419 . S
C343 C344 1.363 . S
C343 H346 0.929 . S
C344 C343 1.363 . S
C344 C350 1.428 . S
H345 C341 0.930 . S
H346 C343 0.929 . S
S347 N348 1.613 . S
S347 N349 1.610 . S
N348 S347 1.613 . S
N348 C351 1.350 . S
N349 S347 1.610 . S
N349 C350 1.351 . S
C350 C344 1.428 . S
C350 N349 1.351 . S
C350 C351 1.434 . S
C351 C342 1.429 . S
C351 N348 1.350 . S
C351 C350 1.434 . S
C352 C353 1.369 . S
C352 C354 1.419 . S
C352 H356 0.930 . S
C353 C352 1.369 . S
C353 C362 1.429 . S
C354 C352 1.419 . S
C354 C355 1.363 . S
C354 H357 0.929 . S
C355 C354 1.363 . S
C355 C361 1.428 . S
H356 C352 0.930 . S
H357 C354 0.929 . S
S358 N359 1.613 . S
S358 N360 1.610 . S
N359 S358 1.613 . S
N359 C362 1.350 . S
N360 S358 1.610 . S
N360 C361 1.351 . S
C361 C355 1.428 . S
C361 N360 1.351 . S
C361 C362 1.434 . S
C362 C353 1.429 . S
C362 N359 1.350 . S
C362 C361 1.434 . S
C199 C117 1.766 . S
C201 N13 1.489 1_655 S
C210 C150 1.027 . S
C212 C18 1.024 . S
C221 N2 0.946 . S
C223 N178 0.937 . S
C232 N68 1.338 1_565 S
C234 C7 1.587 . S
C243 N167 1.369 1_556 S
C245 C51 1.652 . S
C254 N79 0.993 . S
C256 N46 0.993 . S
C265 C40 1.213 . S
C267 C106 1.187 . S
C276 C139 1.592 . S
C278 N35 1.330 1_655 S
C287 C84 1.650 . S
C289 N101 1.367 . S
C298 C73 1.207 . S
C300 C172 1.181 . S
C309 N134 0.931 . S
C311 N112 0.930 . S
C320 C183 1.769 1_655 S
C322 N145 1.476 . S
C331 C54 1.467 . S
C333 C21 1.457 . S
C342 C153 1.457 . S
C344 C87 1.465 . S
C353 C186 1.479 . S
C355 C120 1.470 . S
