# Generated by pormake.
# Topology umh, (4)-cn, num edge types: 1
# Building blocks:
#     Node 0, Type 0, BuildingBlock: ICAMEG_clean_sbu_1, # of connection points: 4
#     Node 1, Type 0, BuildingBlock: ICAMEG_clean_sbu_1, # of connection points: 4
#     Node 2, Type 0, BuildingBlock: ICAMEG_clean_sbu_1, # of connection points: 4
#     Node 3, Type 0, BuildingBlock: ICAMEG_clean_sbu_1, # of connection points: 4
#     Node 4, Type 0, BuildingBlock: ICAMEG_clean_sbu_1, # of connection points: 4
#     Node 5, Type 0, BuildingBlock: ICAMEG_clean_sbu_1, # of connection points: 4
#     Node 6, Type 0, BuildingBlock: ICAMEG_clean_sbu_1, # of connection points: 4
#     Node 7, Type 0, BuildingBlock: ICAMEG_clean_sbu_1, # of connection points: 4
#     Node 8, Type 0, BuildingBlock: ICAMEG_clean_sbu_1, # of connection points: 4
#     Node 9, Type 0, BuildingBlock: ICAMEG_clean_sbu_1, # of connection points: 4
#     Node 10, Type 0, BuildingBlock: ICAMEG_clean_sbu_1, # of connection points: 4
#     Node 11, Type 0, BuildingBlock: ICAMEG_clean_sbu_1, # of connection points: 4
#     Node 12, Type 0, BuildingBlock: ICAMEG_clean_sbu_1, # of connection points: 4
#     Node 13, Type 0, BuildingBlock: ICAMEG_clean_sbu_1, # of connection points: 4
#     Node 14, Type 0, BuildingBlock: ICAMEG_clean_sbu_1, # of connection points: 4
#     Node 15, Type 0, BuildingBlock: ICAMEG_clean_sbu_1, # of connection points: 4
#     Edge 16, Type (0, 0), BuildingBlock: KIFKEQ_clean_linker_1, # of connection points: 2
#     Edge 17, Type (0, 0), BuildingBlock: KIFKEQ_clean_linker_1, # of connection points: 2
#     Edge 18, Type (0, 0), BuildingBlock: KIFKEQ_clean_linker_1, # of connection points: 2
#     Edge 19, Type (0, 0), BuildingBlock: KIFKEQ_clean_linker_1, # of connection points: 2
#     Edge 20, Type (0, 0), BuildingBlock: KIFKEQ_clean_linker_1, # of connection points: 2
#     Edge 21, Type (0, 0), BuildingBlock: KIFKEQ_clean_linker_1, # of connection points: 2
#     Edge 22, Type (0, 0), BuildingBlock: KIFKEQ_clean_linker_1, # of connection points: 2
#     Edge 23, Type (0, 0), BuildingBlock: KIFKEQ_clean_linker_1, # of connection points: 2
#     Edge 24, Type (0, 0), BuildingBlock: KIFKEQ_clean_linker_1, # of connection points: 2
#     Edge 25, Type (0, 0), BuildingBlock: KIFKEQ_clean_linker_1, # of connection points: 2
#     Edge 26, Type (0, 0), BuildingBlock: KIFKEQ_clean_linker_1, # of connection points: 2
#     Edge 27, Type (0, 0), BuildingBlock: KIFKEQ_clean_linker_1, # of connection points: 2
#     Edge 28, Type (0, 0), BuildingBlock: KIFKEQ_clean_linker_1, # of connection points: 2
#     Edge 29, Type (0, 0), BuildingBlock: KIFKEQ_clean_linker_1, # of connection points: 2
#     Edge 30, Type (0, 0), BuildingBlock: KIFKEQ_clean_linker_1, # of connection points: 2
#     Edge 31, Type (0, 0), BuildingBlock: KIFKEQ_clean_linker_1, # of connection points: 2
#     Edge 32, Type (0, 0), BuildingBlock: KIFKEQ_clean_linker_1, # of connection points: 2
#     Edge 33, Type (0, 0), BuildingBlock: KIFKEQ_clean_linker_1, # of connection points: 2
#     Edge 34, Type (0, 0), BuildingBlock: KIFKEQ_clean_linker_1, # of connection points: 2
#     Edge 35, Type (0, 0), BuildingBlock: KIFKEQ_clean_linker_1, # of connection points: 2
#     Edge 36, Type (0, 0), BuildingBlock: KIFKEQ_clean_linker_1, # of connection points: 2
#     Edge 37, Type (0, 0), BuildingBlock: KIFKEQ_clean_linker_1, # of connection points: 2
#     Edge 38, Type (0, 0), BuildingBlock: KIFKEQ_clean_linker_1, # of connection points: 2
#     Edge 39, Type (0, 0), BuildingBlock: KIFKEQ_clean_linker_1, # of connection points: 2
#     Edge 40, Type (0, 0), BuildingBlock: KIFKEQ_clean_linker_1, # of connection points: 2
#     Edge 41, Type (0, 0), BuildingBlock: KIFKEQ_clean_linker_1, # of connection points: 2
#     Edge 42, Type (0, 0), BuildingBlock: KIFKEQ_clean_linker_1, # of connection points: 2
#     Edge 43, Type (0, 0), BuildingBlock: KIFKEQ_clean_linker_1, # of connection points: 2
#     Edge 44, Type (0, 0), BuildingBlock: KIFKEQ_clean_linker_1, # of connection points: 2
#     Edge 45, Type (0, 0), BuildingBlock: KIFKEQ_clean_linker_1, # of connection points: 2
#     Edge 46, Type (0, 0), BuildingBlock: KIFKEQ_clean_linker_1, # of connection points: 2
#     Edge 47, Type (0, 0), BuildingBlock: KIFKEQ_clean_linker_1, # of connection points: 2
# Relax obj value: 0.087
# Max RMSD: 0.247
# Mean RMSD: 0.247
data_MOF--net-umh--node1-ICAMEG_clean_sbu_1--edge1-KIFKEQ_clean_linker_1
_symmetry_space_group_name_H-M    P1
_symmetry_Int_Tables_number       1
_symmetry_cell_setting            triclinic
loop_
_symmetry_equiv_pos_as_xyz
'x, y, z'
_cell_length_a     43.376029
_cell_length_b     43.421969
_cell_length_c     57.781763
_cell_angle_alpha  90.005337
_cell_angle_beta   89.977933
_cell_angle_gamma 90.020955
loop_
_atom_site_label
_atom_site_type_symbol
_atom_site_fract_x
_atom_site_fract_y
_atom_site_fract_z
_atom_type_partial_charge
Co0 Co 0.30266 0.07999 0.13054 0.0
Co1 Co 0.3589 0.10865 0.16709 0.0
O2 O 0.34536 0.08588 0.13992 0.0
C3 C 0.3332 0.11144 0.09178 0.0
O4 O 0.34538 0.12937 0.1076 0.0
C5 C 0.38251 0.04609 0.17275 0.0
O6 O 0.35443 0.03724 0.16757 0.0
O7 O 0.32773 0.08791 0.18685 0.0
O8 O 0.28989 0.07096 0.1633 0.0
H9 H 0.34508 0.17218 0.23904 0.0
H10 H 0.35244 0.04603 0.10631 0.0
O11 O 0.31481 0.08986 0.09769 0.0
H12 H 0.285 0.96608 0.13967 0.0
H13 H 0.2195 0.04229 0.07685 0.0
H14 H 0.24164 0.0984 0.14916 0.0
H15 H 0.27265 0.02116 0.14461 0.0
H16 H 0.27312 0.04955 0.09005 0.0
O17 O 0.38891 0.07471 0.17397 0.0
H18 H 0.32778 0.14392 0.20434 0.0
H19 H 0.42037 0.12042 0.18826 0.0
H20 H 0.18767 0.09147 0.13674 0.0
H21 H 0.36557 0.99124 0.10084 0.0
H22 H 0.17634 0.06323 0.10033 0.0
H23 H 0.33177 0.95084 0.11766 0.0
O24 O 0.29317 0.12399 0.13575 0.0
H25 H 0.44298 0.11285 0.10732 0.0
H26 H 0.37779 0.17399 0.16003 0.0
H27 H 0.41527 0.20044 0.13479 0.0
H28 H 0.44819 0.1698 0.1082 0.0
H29 H 0.40502 0.08737 0.1327 0.0
H30 H 0.43867 0.14821 0.22289 0.0
H31 H 0.40089 0.17445 0.24849 0.0
O32 O 0.32868 0.14252 0.16053 0.0
C33 C 0.30173 0.07502 0.18335 0.0
C34 C 0.36177 0.16094 0.22797 0.0
C35 C 0.4143 0.14745 0.21892 0.0
N36 N 0.37308 0.1308 0.1942 0.0
C37 C 0.35212 0.14499 0.20826 0.0
C38 C 0.40381 0.1317 0.19937 0.0
C39 C 0.39309 0.16217 0.23328 0.0
C40 C 0.33744 0.02857 0.11345 0.0
N41 N 0.31171 0.03676 0.12562 0.0
C42 C 0.34506 -0.00241 0.11039 0.0
C43 C 0.32611 0.97494 0.11986 0.0
C44 C 0.29988 0.98348 0.13223 0.0
C45 C 0.29302 0.01469 0.13499 0.0
C46 C 0.22414 0.05454 0.09279 0.0
C47 C 0.23685 0.08583 0.13343 0.0
C48 C 0.25444 0.05875 0.10033 0.0
N49 N 0.26044 0.07405 0.12051 0.0
C50 C 0.20627 0.0821 0.12642 0.0
C51 C 0.19993 0.06629 0.10598 0.0
C52 C 0.30437 0.14546 0.14822 0.0
C53 C 0.42884 0.12644 0.11888 0.0
C54 C 0.39201 0.16052 0.14848 0.0
C55 C 0.41323 0.17561 0.13426 0.0
C56 C 0.43172 0.1584 0.11936 0.0
N57 N 0.38933 0.12916 0.14791 0.0
C58 C 0.40741 0.11213 0.13337 0.0
Co59 Co 0.41063 0.30614 0.63294 0.0
Co60 Co 0.37988 0.36271 0.66816 0.0
O61 O 0.40357 0.34889 0.64149 0.0
C62 C 0.37892 0.33472 0.5935 0.0
O63 O 0.36065 0.34706 0.60902 0.0
C64 C 0.4422 0.38659 0.67437 0.0
O65 O 0.45104 0.35842 0.66963 0.0
O66 O 0.4001 0.33219 0.68859 0.0
O67 O 0.41977 0.29481 0.66601 0.0
H68 H 0.3149 0.35003 0.73955 0.0
H69 H 0.44372 0.35589 0.60803 0.0
O70 O 0.4008 0.31692 0.59981 0.0
H71 H 0.52495 0.29143 0.64287 0.0
H72 H 0.45061 0.22206 0.58107 0.0
H73 H 0.3939 0.24548 0.65295 0.0
H74 H 0.47007 0.27799 0.64779 0.0
H75 H 0.44189 0.27591 0.59309 0.0
O76 O 0.41355 0.39309 0.67519 0.0
H77 H 0.34419 0.33218 0.70549 0.0
H78 H 0.36684 0.42451 0.68821 0.0
H79 H 0.40231 0.19131 0.6417 0.0
H80 H 0.49831 0.37009 0.60256 0.0
H81 H 0.43085 0.17934 0.60552 0.0
H82 H 0.53935 0.33779 0.62012 0.0
O83 O 0.36671 0.29584 0.63799 0.0
H84 H 0.37667 0.4454 0.60735 0.0
H85 H 0.31454 0.38057 0.65969 0.0
H86 H 0.28844 0.41715 0.63355 0.0
H87 H 0.31958 0.44988 0.60714 0.0
H88 H 0.40179 0.40837 0.63364 0.0
H89 H 0.33799 0.44339 0.72219 0.0
H90 H 0.31166 0.40602 0.74807 0.0
O91 O 0.34649 0.33197 0.66153 0.0
C92 C 0.41419 0.30669 0.68585 0.0
C93 C 0.32615 0.36655 0.72834 0.0
C94 C 0.33915 0.41895 0.71862 0.0
N95 N 0.35687 0.37731 0.69475 0.0
C96 C 0.34266 0.35659 0.70899 0.0
C97 C 0.35548 0.40813 0.69943 0.0
C98 C 0.32437 0.39797 0.73313 0.0
C99 C 0.46147 0.34154 0.6155 0.0
N100 N 0.45374 0.31604 0.62808 0.0
C101 C 0.49233 0.34977 0.61243 0.0
C102 C 0.51534 0.33166 0.62232 0.0
C103 C 0.50728 0.30566 0.63511 0.0
C104 C 0.47617 0.29818 0.63785 0.0
C105 C 0.43821 0.22699 0.59691 0.0
C106 C 0.40654 0.24043 0.63727 0.0
C107 C 0.43316 0.25742 0.60377 0.0
N108 N 0.41767 0.26378 0.6238 0.0
C109 C 0.41113 0.20973 0.63095 0.0
C110 C 0.42712 0.20302 0.61064 0.0
C111 C 0.34452 0.30718 0.64968 0.0
C112 C 0.36286 0.43135 0.61884 0.0
C113 C 0.32823 0.39474 0.64825 0.0
C114 C 0.31334 0.41544 0.63351 0.0
C115 C 0.33082 0.43381 0.61871 0.0
N116 N 0.35965 0.39248 0.64829 0.0
C117 C 0.37696 0.41044 0.63384 0.0
Co118 Co 0.18627 0.41148 0.1339 0.0
Co119 Co 0.1294 0.37873 0.16787 0.0
O120 O 0.14339 0.40398 0.14212 0.0
C121 C 0.15817 0.3811 0.09372 0.0
O122 O 0.14595 0.3622 0.10885 0.0
C123 C 0.10452 0.44019 0.17718 0.0
O124 O 0.13276 0.45017 0.17404 0.0
O125 O 0.15989 0.39796 0.1891 0.0
O126 O 0.1971 0.41934 0.16713 0.0
H127 H 0.14193 0.3096 0.23697 0.0
H128 H 0.13639 0.44504 0.10948 0.0
O129 O 0.17585 0.40282 0.10051 0.0
H130 H 0.20006 0.52535 0.14634 0.0
H131 H 0.27056 0.45395 0.08327 0.0
H132 H 0.24699 0.39482 0.15397 0.0
H133 H 0.21383 0.47046 0.15019 0.0
H134 H 0.21663 0.4443 0.09483 0.0
O135 O 0.09858 0.41151 0.17571 0.0
H136 H 0.15988 0.34091 0.20398 0.0
H137 H 0.06745 0.36425 0.18728 0.0
H138 H 0.30122 0.40413 0.14318 0.0
H139 H 0.12187 0.49966 0.10508 0.0
H140 H 0.31329 0.43389 0.10759 0.0
H141 H 0.15378 0.54023 0.12365 0.0
O142 O 0.19716 0.36748 0.1382 0.0
H143 H 0.04725 0.37853 0.10655 0.0
H144 H 0.11167 0.31389 0.15737 0.0
H145 H 0.07536 0.28915 0.13027 0.0
H146 H 0.04283 0.32155 0.10463 0.0
H147 H 0.08406 0.40229 0.13373 0.0
H148 H 0.0485 0.33336 0.22019 0.0
H149 H 0.08587 0.30567 0.24524 0.0
O150 O 0.16024 0.34602 0.16034 0.0
C151 C 0.18531 0.41247 0.18677 0.0
C152 C 0.12542 0.32146 0.22613 0.0
C153 C 0.07298 0.33484 0.21673 0.0
N154 N 0.11471 0.35414 0.19361 0.0
C155 C 0.13544 0.33914 0.20739 0.0
C156 C 0.08384 0.35233 0.19815 0.0
C157 C 0.09396 0.3193 0.23078 0.0
C158 C 0.15055 0.46259 0.11741 0.0
N159 N 0.17604 0.45461 0.12993 0.0
C160 C 0.14215 0.49347 0.11495 0.0
C161 C 0.16004 0.51622 0.1254 0.0
C162 C 0.186 0.50788 0.13814 0.0
C163 C 0.19367 0.47677 0.14027 0.0
C164 C 0.2656 0.44101 0.09884 0.0
C165 C 0.25206 0.40797 0.13855 0.0
C166 C 0.23512 0.43543 0.10544 0.0
N167 N 0.22871 0.41924 0.12514 0.0
C168 C 0.28281 0.41309 0.13248 0.0
C169 C 0.28956 0.42975 0.1125 0.0
C170 C 0.18561 0.34474 0.14914 0.0
C171 C 0.06123 0.36417 0.11769 0.0
C172 C 0.09762 0.32813 0.14624 0.0
C173 C 0.07706 0.314 0.13097 0.0
C174 C 0.05879 0.3322 0.1166 0.0
N175 N 0.09987 0.3595 0.14721 0.0
C176 C 0.08201 0.3775 0.1332 0.0
Co177 Co 0.08236 0.18707 0.63208 0.0
Co178 Co 0.11065 0.13065 0.66849 0.0
O179 O 0.08751 0.14438 0.64155 0.0
C180 C 0.11192 0.15595 0.5928 0.0
O181 O 0.13005 0.1435 0.60835 0.0
C182 C 0.04808 0.10728 0.67564 0.0
O183 O 0.03907 0.13569 0.67195 0.0
O184 O 0.09019 0.16165 0.68846 0.0
O185 O 0.07486 0.20023 0.66501 0.0
H186 H 0.17424 0.14355 0.74052 0.0
H187 H 0.04616 0.13806 0.60889 0.0
O188 O 0.0907 0.17458 0.59906 0.0
H189 H 0.96924 0.20778 0.64359 0.0
H190 H 0.04469 0.27086 0.57901 0.0
H191 H 0.10325 0.24758 0.65002 0.0
H192 H 0.02485 0.21868 0.64731 0.0
H193 H 0.05103 0.21718 0.59222 0.0
O194 O 0.0767 0.10058 0.67523 0.0
H195 H 0.14572 0.16128 0.70607 0.0
H196 H 0.12284 0.06895 0.68899 0.0
H197 H 0.09727 0.3016 0.63757 0.0
H198 H 0.99078 0.12637 0.60464 0.0
H199 H 0.0678 0.31351 0.60182 0.0
H200 H 0.9519 0.16134 0.62212 0.0
O201 O 0.12682 0.19537 0.63617 0.0
H202 H 0.1143 0.04698 0.60845 0.0
H203 H 0.17603 0.11216 0.66078 0.0
H204 H 0.20227 0.07495 0.63523 0.0
H205 H 0.17134 0.04203 0.60883 0.0
H206 H 0.08902 0.08467 0.63412 0.0
H207 H 0.1509 0.05019 0.72336 0.0
H208 H 0.17696 0.08762 0.74934 0.0
O209 O 0.14456 0.16095 0.6621 0.0
C210 C 0.07836 0.18814 0.68503 0.0
C211 C 0.1631 0.127 0.72928 0.0
C212 C 0.14996 0.07461 0.71967 0.0
N213 N 0.13298 0.11614 0.69541 0.0
C214 C 0.14702 0.1369 0.70971 0.0
C215 C 0.13408 0.08536 0.70026 0.0
C216 C 0.16458 0.09562 0.73423 0.0
C217 C 0.02936 0.15354 0.61634 0.0
N218 N 0.03869 0.17912 0.62819 0.0
C219 C -0.00195 0.14674 0.61397 0.0
C220 C 0.97625 0.16634 0.62381 0.0
C221 C 0.98596 0.1924 0.63587 0.0
C222 C 0.01747 0.19843 0.63794 0.0
C223 C 0.05748 0.26597 0.59466 0.0
C224 C 0.09016 0.25262 0.63457 0.0
C225 C 0.06117 0.23564 0.60221 0.0
N226 N 0.07715 0.22933 0.62203 0.0
C227 C 0.08696 0.28323 0.62755 0.0
C228 C 0.07046 0.28989 0.60747 0.0
C229 C 0.14802 0.18442 0.649 0.0
C230 C 0.12802 0.06111 0.61993 0.0
C231 C 0.16242 0.09794 0.64932 0.0
C232 C 0.1774 0.07687 0.63492 0.0
C233 C 0.16003 0.05839 0.62013 0.0
N234 N 0.13102 0.10047 0.64902 0.0
C235 C 0.11382 0.0824 0.63459 0.0
Co236 Co 0.30724 0.41006 0.38508 0.0
Co237 Co 0.36468 0.37769 0.35148 0.0
O238 O 0.35024 0.40265 0.37721 0.0
C239 C 0.33465 0.37809 0.42489 0.0
O240 O 0.34729 0.35987 0.40949 0.0
C241 C 0.38824 0.43975 0.34229 0.0
O242 O 0.35992 0.44912 0.34596 0.0
O243 O 0.3337 0.39622 0.33024 0.0
O244 O 0.29721 0.41926 0.35193 0.0
H245 H 0.35336 0.30821 0.28246 0.0
H246 H 0.35683 0.44227 0.4109 0.0
O247 O 0.31694 0.39994 0.41838 0.0
H248 H 0.29455 0.52446 0.37512 0.0
H249 H 0.22229 0.45082 0.43585 0.0
H250 H 0.24676 0.39525 0.36372 0.0
H251 H 0.28049 0.46984 0.36984 0.0
H252 H 0.27635 0.44117 0.42469 0.0
O253 O 0.39478 0.41117 0.3435 0.0
H254 H 0.33488 0.33916 0.31547 0.0
H255 H 0.42686 0.36448 0.33199 0.0
H256 H 0.19241 0.40458 0.37411 0.0
H257 H 0.37162 0.49658 0.41674 0.0
H258 H 0.17989 0.43256 0.41042 0.0
H259 H 0.34042 0.5381 0.39873 0.0
O260 O 0.29603 0.36637 0.37952 0.0
H261 H 0.44692 0.37942 0.41273 0.0
H262 H 0.38377 0.31329 0.36205 0.0
H263 H 0.42062 0.2894 0.38915 0.0
H264 H 0.45251 0.32256 0.41472 0.0
H265 H 0.4096 0.40233 0.38552 0.0
H266 H 0.44634 0.33397 0.29905 0.0
H267 H 0.40947 0.30547 0.27408 0.0
O268 O 0.33457 0.34435 0.35921 0.0
C269 C 0.30872 0.41153 0.33239 0.0
C270 C 0.36967 0.32043 0.29326 0.0
C271 C 0.42185 0.33492 0.30256 0.0
N272 N 0.3798 0.35335 0.32575 0.0
C273 C 0.35935 0.3379 0.31202 0.0
C274 C 0.41069 0.3522 0.32115 0.0
C275 C 0.40115 0.31893 0.28856 0.0
C276 C 0.34296 0.46023 0.4032 0.0
N277 N 0.3177 0.45293 0.3902 0.0
C278 C 0.35153 0.49093 0.40649 0.0
C279 C 0.33403 0.51421 0.39635 0.0
C280 C 0.3083 0.50657 0.3831 0.0
C281 C 0.30046 0.47562 0.38015 0.0
C282 C 0.22745 0.43863 0.41998 0.0
C283 C 0.2415 0.40756 0.37949 0.0
C284 C 0.258 0.43304 0.4136 0.0
N285 N 0.26468 0.41779 0.39352 0.0
C286 C 0.21068 0.41272 0.38531 0.0
C287 C 0.20367 0.42839 0.40569 0.0
C288 C 0.30842 0.34347 0.36934 0.0
C289 C 0.43323 0.36474 0.40161 0.0
C290 C 0.39757 0.32786 0.37313 0.0
C291 C 0.41842 0.31421 0.38842 0.0
C292 C 0.43633 0.33283 0.40275 0.0
N293 N 0.39468 0.35917 0.37211 0.0
C294 C 0.41217 0.37758 0.3861 0.0
Co295 Co 0.0851 0.30726 0.88579 0.0
Co296 Co 0.1133 0.36312 0.84877 0.0
O297 O 0.09066 0.34985 0.87614 0.0
C298 C 0.11521 0.33843 0.92487 0.0
O299 O 0.13341 0.3508 0.90929 0.0
C300 C 0.0508 0.38679 0.84333 0.0
O301 O 0.04205 0.35865 0.84833 0.0
O302 O 0.09213 0.33216 0.82922 0.0
O303 O 0.077 0.29388 0.853 0.0
H304 H 0.17548 0.34883 0.77617 0.0
H305 H 0.0497 0.35671 0.90914 0.0
O306 O 0.09391 0.31988 0.91866 0.0
H307 H 0.9716 0.28761 0.87523 0.0
H308 H 0.04724 0.22416 0.93943 0.0
H309 H 0.10524 0.24647 0.86795 0.0
H310 H 0.02704 0.27611 0.87114 0.0
H311 H 0.05394 0.27769 0.92598 0.0
O312 O 0.07942 0.39329 0.84212 0.0
H313 H 0.14749 0.33175 0.81107 0.0
H314 H 0.1255 0.42446 0.82764 0.0
H315 H 0.09889 0.19258 0.88063 0.0
H316 H 0.99451 0.36899 0.91377 0.0
H317 H 0.0697 0.18116 0.91662 0.0
H318 H 0.95504 0.33435 0.89667 0.0
O319 O 0.12942 0.29863 0.88138 0.0
H320 H 0.11886 0.44737 0.90826 0.0
H321 H 0.17896 0.38122 0.85555 0.0
H322 H 0.20604 0.4185 0.88056 0.0
H323 H 0.17592 0.4519 0.90715 0.0
H324 H 0.09275 0.40961 0.88311 0.0
H325 H 0.15303 0.44256 0.79281 0.0
H326 H 0.17837 0.40461 0.76686 0.0
O327 O 0.14706 0.33262 0.85504 0.0
C328 C 0.08015 0.30581 0.83289 0.0
C329 C 0.16465 0.3656 0.7874 0.0
C330 C 0.15201 0.41821 0.79672 0.0
N331 N 0.13522 0.37712 0.82149 0.0
C332 C 0.14887 0.35607 0.80722 0.0
C333 C 0.13643 0.40783 0.81639 0.0
C334 C 0.16623 0.3969 0.78217 0.0
C335 C 0.03264 0.34135 0.90188 0.0
N336 N 0.04155 0.31563 0.89002 0.0
C337 C 0.00144 0.34849 0.90447 0.0
C338 C 0.97931 0.32907 0.89484 0.0
C339 C 0.98858 0.30285 0.88279 0.0
C340 C 0.02 0.29648 0.8805 0.0
C341 C 0.05991 0.22883 0.92367 0.0
C342 C 0.09226 0.24164 0.8835 0.0
C343 C 0.06379 0.25908 0.91599 0.0
N344 N 0.07961 0.26512 0.89604 0.0
C345 C 0.08886 0.2111 0.89065 0.0
C346 C 0.07251 0.20471 0.91086 0.0
C347 C 0.15053 0.30932 0.86831 0.0
C348 C 0.13222 0.43302 0.89669 0.0
C349 C 0.16571 0.39566 0.86709 0.0
C350 C 0.18116 0.41676 0.88118 0.0
C351 C 0.16424 0.43551 0.89608 0.0
N352 N 0.1343 0.39336 0.86779 0.0
C353 C 0.11755 0.4117 0.88232 0.0
Co354 Co 0.18864 0.08062 0.38551 0.0
Co355 Co 0.13123 0.11013 0.35035 0.0
O356 O 0.14564 0.08706 0.37709 0.0
C357 C 0.15995 0.11305 0.42463 0.0
O358 O 0.14767 0.13103 0.40891 0.0
C359 C 0.10731 0.04764 0.34463 0.0
O360 O 0.13536 0.03857 0.34964 0.0
O361 O 0.16188 0.08971 0.32989 0.0
O362 O 0.19979 0.07086 0.35256 0.0
H363 H 0.14291 0.17442 0.27859 0.0
H364 H 0.1392 0.04798 0.41122 0.0
O365 O 0.17795 0.09122 0.41854 0.0
H366 H 0.2037 0.96627 0.37704 0.0
H367 H 0.27311 0.04214 0.43768 0.0
H368 H 0.24929 0.09733 0.36531 0.0
H369 H 0.21689 0.02102 0.37132 0.0
H370 H 0.21915 0.05034 0.42563 0.0
O371 O 0.10106 0.07629 0.34362 0.0
H372 H 0.16122 0.14583 0.31283 0.0
H373 H 0.06912 0.12221 0.33036 0.0
H374 H 0.30357 0.08945 0.37655 0.0
H375 H 0.12526 0.99353 0.41748 0.0
H376 H 0.31575 0.06166 0.413 0.0
H377 H 0.15757 0.95225 0.40025 0.0
O378 O 0.19894 0.12434 0.37951 0.0
H379 H 0.04903 0.11325 0.41161 0.0
H380 H 0.11251 0.17533 0.35832 0.0
H381 H 0.07582 0.20131 0.38446 0.0
H382 H 0.04376 0.1702 0.41135 0.0
H383 H 0.08619 0.08823 0.38533 0.0
H384 H 0.0498 0.15035 0.29622 0.0
H385 H 0.08682 0.17681 0.27011 0.0
O386 O 0.16147 0.14392 0.35676 0.0
C387 C 0.18754 0.07587 0.33277 0.0
C388 C 0.12655 0.16309 0.28988 0.0
C389 C 0.07429 0.14954 0.29976 0.0
N390 N 0.11623 0.13264 0.32367 0.0
C391 C 0.13677 0.14696 0.30933 0.0
C392 C 0.08535 0.13361 0.31904 0.0
C393 C 0.09507 0.16439 0.28512 0.0
C394 C 0.15357 0.03014 0.40389 0.0
N395 N 0.17895 0.03765 0.39106 0.0
C396 C 0.14548 -0.00065 0.4074 0.0
C397 C 0.16359 0.9762 0.3977 0.0
C398 C 0.18947 0.98405 0.38466 0.0
C399 C 0.19681 0.01508 0.38147 0.0
C400 C 0.2681 0.0542 0.42173 0.0
C401 C 0.25443 0.085 0.38106 0.0
C402 C 0.23761 0.05894 0.41484 0.0
N403 N 0.23113 0.07399 0.39465 0.0
C404 C 0.2852 0.08071 0.3874 0.0
C405 C 0.29202 0.06515 0.40787 0.0
C406 C 0.18681 0.14611 0.36788 0.0
C407 C 0.06278 0.12704 0.39991 0.0
C408 C 0.09864 0.16164 0.36998 0.0
C409 C 0.07788 0.17648 0.38471 0.0
C410 C 0.05988 0.159 0.39978 0.0
N411 N 0.10134 0.13028 0.3702 0.0
C412 C 0.08376 0.11299 0.38492 0.0
Co413 Co 0.41198 0.18492 0.88435 0.0
Co414 Co 0.38021 0.12887 0.84915 0.0
O415 O 0.4043 0.14229 0.87573 0.0
C416 C 0.38021 0.15651 0.92383 0.0
O417 O 0.36163 0.14462 0.90831 0.0
C418 C 0.44208 0.10403 0.8426 0.0
O419 O 0.45146 0.13204 0.84731 0.0
O420 O 0.4008 0.15914 0.82869 0.0
O421 O 0.42097 0.19629 0.85125 0.0
H422 H 0.31508 0.14269 0.778 0.0
H423 H 0.44463 0.13465 0.90895 0.0
O424 O 0.40229 0.17408 0.91751 0.0
H425 H 0.52638 0.19828 0.87383 0.0
H426 H 0.45345 0.26825 0.93623 0.0
H427 H 0.39587 0.24588 0.86459 0.0
H428 H 0.47164 0.21241 0.86924 0.0
H429 H 0.44396 0.21458 0.92411 0.0
O430 O 0.41331 0.09801 0.84195 0.0
H431 H 0.34486 0.16003 0.81197 0.0
H432 H 0.36603 0.06732 0.8291 0.0
H433 H 0.40505 0.29988 0.87594 0.0
H434 H 0.49908 0.11976 0.91408 0.0
H435 H 0.43403 0.31134 0.91201 0.0
H436 H 0.54038 0.15164 0.89638 0.0
O437 O 0.36815 0.19581 0.87954 0.0
H438 H 0.37606 0.04605 0.90983 0.0
H439 H 0.31464 0.112 0.85787 0.0
H440 H 0.28814 0.07573 0.88405 0.0
H441 H 0.31892 0.04244 0.91026 0.0
H442 H 0.4016 0.08281 0.88352 0.0
H443 H 0.33669 0.04896 0.79521 0.0
H444 H 0.31085 0.08678 0.76946 0.0
O445 O 0.34738 0.16009 0.85592 0.0
C446 C 0.41517 0.18449 0.83142 0.0
C447 C 0.32611 0.12598 0.78916 0.0
C448 C 0.33828 0.07337 0.7988 0.0
N449 N 0.35682 0.11468 0.82264 0.0
C450 C 0.34289 0.13565 0.80846 0.0
C451 C 0.35488 0.0839 0.81794 0.0
C452 C 0.32378 0.09461 0.78436 0.0
C453 C 0.46249 0.14881 0.90142 0.0
N454 N 0.455 0.17447 0.88895 0.0
C455 C 0.49328 0.1402 0.90429 0.0
C456 C 0.51644 0.15807 0.89432 0.0
C457 C 0.5086 0.18423 0.88166 0.0
C458 C 0.47757 0.19211 0.8791 0.0
C459 C 0.44086 0.26356 0.92045 0.0
C460 C 0.4087 0.2507 0.88021 0.0
C461 C 0.43538 0.23323 0.91353 0.0
N462 N 0.41965 0.22715 0.89356 0.0
C463 C 0.41373 0.28131 0.8866 0.0
C464 C 0.42997 0.28772 0.90685 0.0
C465 C 0.34579 0.18485 0.86784 0.0
C466 C 0.36241 0.06035 0.89842 0.0
C467 C 0.32818 0.09759 0.86923 0.0
C468 C 0.31305 0.07707 0.88399 0.0
C469 C 0.33034 0.05838 0.89868 0.0
N470 N 0.35964 0.09937 0.86907 0.0
C471 C 0.37675 0.0811 0.88341 0.0
Co472 Co 0.68483 0.90796 0.88419 0.0
Co473 Co 0.62772 0.87703 0.84943 0.0
O474 O 0.6419 0.90129 0.87564 0.0
C475 C 0.65592 0.87666 0.92373 0.0
O476 O 0.64358 0.85836 0.90823 0.0
C477 C 0.60385 0.93908 0.84094 0.0
O478 O 0.63212 0.94864 0.84457 0.0
O479 O 0.65863 0.89662 0.82863 0.0
O480 O 0.69617 0.91663 0.85113 0.0
H481 H 0.63987 0.80986 0.77922 0.0
H482 H 0.63517 0.94136 0.90904 0.0
O483 O 0.67393 0.89835 0.91737 0.0
H484 H 0.70007 0.02201 0.87383 0.0
H485 H 0.76887 0.94812 0.93605 0.0
H486 H 0.74565 0.8908 0.86449 0.0
H487 H 0.71318 0.96708 0.86904 0.0
H488 H 0.71502 0.93947 0.92392 0.0
O489 O 0.59748 0.91046 0.84196 0.0
H490 H 0.65796 0.83991 0.81282 0.0
H491 H 0.56572 0.86397 0.82956 0.0
H492 H 0.79984 0.89911 0.87583 0.0
H493 H 0.62131 -0.00401 0.9144 0.0
H494 H 0.81172 0.92797 0.91187 0.0
H495 H 0.65384 0.03674 0.89666 0.0
O496 O 0.69525 0.86407 0.87904 0.0
H497 H 0.54507 0.8763 0.91041 0.0
H498 H 0.609 0.81215 0.85885 0.0
H499 H 0.57214 0.7872 0.88543 0.0
H500 H 0.53985 0.81935 0.91145 0.0
H501 H 0.58241 0.90028 0.88373 0.0
H502 H 0.54662 0.83435 0.79605 0.0
H503 H 0.58382 0.80694 0.77067 0.0
O504 O 0.65789 0.84358 0.85667 0.0
C505 C 0.68421 0.91072 0.83138 0.0
C506 C 0.62343 0.82161 0.7902 0.0
C507 C 0.57109 0.83539 0.79963 0.0
N508 N 0.61289 0.85342 0.82324 0.0
C509 C 0.63353 0.83857 0.80928 0.0
C510 C 0.58204 0.85216 0.81855 0.0
C511 C 0.59198 0.82001 0.7854 0.0
C512 C 0.6496 0.95897 0.90147 0.0
N513 N 0.67507 0.95107 0.88889 0.0
C514 C 0.64157 0.98986 0.90448 0.0
C515 C 0.65981 0.01272 0.8945 0.0
C516 C 0.68575 0.00446 0.88167 0.0
C517 C 0.69304 0.97334 0.879 0.0
C518 C 0.76399 0.93559 0.92028 0.0
C519 C 0.75066 0.90358 0.88007 0.0
C520 C 0.73356 0.93058 0.91334 0.0
N521 N 0.72724 0.91493 0.89338 0.0
C522 C 0.78138 0.90812 0.88647 0.0
C523 C 0.78803 0.92428 0.9067 0.0
C524 C 0.68319 0.84185 0.86786 0.0
C525 C 0.55893 0.86205 0.8991 0.0
C526 C 0.59504 0.82629 0.87013 0.0
C527 C 0.57418 0.81204 0.88512 0.0
C528 C 0.55605 0.83009 0.8997 0.0
N529 N 0.59772 0.85765 0.86964 0.0
C530 C 0.58001 0.87551 0.88388 0.0
Co531 Co 0.58046 0.68745 0.38643 0.0
Co532 Co 0.61025 0.63152 0.35015 0.0
O533 O 0.587 0.64483 0.37717 0.0
C534 C 0.61192 0.65753 0.4254 0.0
O535 O 0.6302 0.64565 0.40968 0.0
C536 C 0.5481 0.60679 0.3442 0.0
O537 O 0.53868 0.6347 0.34925 0.0
O538 O 0.58916 0.66219 0.33021 0.0
O539 O 0.57161 0.69992 0.35359 0.0
H540 H 0.67423 0.64598 0.27846 0.0
H541 H 0.54687 0.63734 0.41057 0.0
O542 O 0.59013 0.6756 0.41936 0.0
H543 H 0.46631 0.7034 0.37655 0.0
H544 H 0.54091 0.7702 0.43968 0.0
H545 H 0.59829 0.74859 0.3678 0.0
H546 H 0.52132 0.71652 0.37194 0.0
H547 H 0.5491 0.71669 0.42665 0.0
O548 O 0.57687 0.60092 0.3432 0.0
H549 H 0.64534 0.66298 0.31296 0.0
H550 H 0.62326 0.57018 0.32925 0.0
H551 H 0.59043 0.80245 0.38005 0.0
H552 H 0.49213 0.62346 0.41571 0.0
H553 H 0.56155 0.81352 0.41624 0.0
H554 H 0.45143 0.65656 0.39856 0.0
O555 O 0.62444 0.69757 0.38145 0.0
H556 H 0.61526 0.54795 0.4102 0.0
H557 H 0.6759 0.6138 0.3576 0.0
H558 H 0.70274 0.57696 0.38309 0.0
H559 H 0.67235 0.54371 0.40962 0.0
H560 H 0.58938 0.58529 0.38458 0.0
H561 H 0.65171 0.55217 0.29482 0.0
H562 H 0.67755 0.59021 0.26922 0.0
O563 O 0.64358 0.66229 0.35676 0.0
C564 C 0.57594 0.68803 0.33359 0.0
C565 C 0.66317 0.62918 0.28953 0.0
C566 C 0.65049 0.57653 0.2987 0.0
N567 N 0.6329 0.61757 0.3232 0.0
C568 C 0.64686 0.63866 0.30913 0.0
C569 C 0.63437 0.58686 0.31814 0.0
C570 C 0.66499 0.59788 0.28434 0.0
C571 C 0.52927 0.65204 0.40328 0.0
N572 N 0.53725 0.67781 0.39111 0.0
C573 C 0.49832 0.64399 0.40616 0.0
C574 C 0.4755 0.66255 0.3965 0.0
C575 C 0.48383 0.68882 0.38413 0.0
C576 C 0.51501 0.69612 0.38156 0.0
C577 C 0.55344 0.76568 0.42383 0.0
C578 C 0.58544 0.75325 0.38344 0.0
C579 C 0.55817 0.73544 0.41639 0.0
N580 N 0.57382 0.72958 0.39634 0.0
C581 C 0.58119 0.78378 0.39035 0.0
C582 C 0.56502 0.78997 0.41067 0.0
C583 C 0.64614 0.68666 0.36903 0.0
C584 C 0.62874 0.56224 0.39865 0.0
C585 C 0.66253 0.59944 0.36912 0.0
C586 C 0.67785 0.57858 0.38348 0.0
C587 C 0.66078 0.55991 0.39835 0.0
N588 N 0.6311 0.60159 0.36953 0.0
C589 C 0.61421 0.58332 0.38403 0.0
Co590 Co 0.80522 0.57879 0.88611 0.0
Co591 Co 0.86105 0.61079 0.85079 0.0
O592 O 0.84779 0.58666 0.87728 0.0
C593 C 0.83265 0.61225 0.92518 0.0
O594 O 0.84303 0.63138 0.90944 0.0
C595 C 0.88639 0.54926 0.84276 0.0
O596 O 0.85837 0.53918 0.84667 0.0
O597 O 0.83054 0.59004 0.83034 0.0
O598 O 0.79369 0.56945 0.85321 0.0
H599 H 0.84651 0.67645 0.78004 0.0
H600 H 0.85614 0.5472 0.91086 0.0
O601 O 0.81641 0.58907 0.91909 0.0
H602 H 0.79341 0.46423 0.87651 0.0
H603 H 0.72323 0.53662 0.93894 0.0
H604 H 0.7436 0.59386 0.86686 0.0
H605 H 0.77855 0.51867 0.8715 0.0
H606 H 0.77661 0.54683 0.92628 0.0
O607 O 0.89215 0.57803 0.84349 0.0
H608 H 0.82951 0.64646 0.814 0.0
H609 H 0.92249 0.62519 0.83048 0.0
H610 H 0.68987 0.58398 0.87873 0.0
H611 H 0.87174 0.49308 0.91642 0.0
H612 H 0.67942 0.55514 0.91503 0.0
H613 H 0.84031 0.45116 0.89912 0.0
O614 O 0.79335 0.62232 0.88065 0.0
H615 H 0.94368 0.61503 0.91165 0.0
H616 H 0.87807 0.67631 0.85937 0.0
H617 H 0.91418 0.70282 0.88566 0.0
H618 H 0.9473 0.67211 0.91204 0.0
H619 H 0.90707 0.58947 0.88523 0.0
H620 H 0.94052 0.65476 0.7966 0.0
H621 H 0.90239 0.68074 0.77117 0.0
O622 O 0.82995 0.64345 0.85786 0.0
C623 C 0.80531 0.57542 0.83336 0.0
C624 C 0.86335 0.66533 0.79104 0.0
C625 C 0.91612 0.65312 0.80031 0.0
N626 N 0.87501 0.63435 0.8243 0.0
C627 C 0.85387 0.6484 0.81032 0.0
C628 C 0.90578 0.63637 0.81944 0.0
C629 C 0.89471 0.66769 0.78605 0.0
C630 C 0.84218 0.52907 0.90348 0.0
N631 N 0.81636 0.53605 0.89101 0.0
C632 C 0.8512 0.49848 0.9066 0.0
C633 C 0.83358 0.47497 0.89686 0.0
C634 C 0.80727 0.48229 0.88417 0.0
C635 C 0.79899 0.51314 0.88136 0.0
C636 C 0.72748 0.54913 0.92306 0.0
C637 C 0.73922 0.5811 0.88255 0.0
C638 C 0.75765 0.55501 0.91582 0.0
N639 N 0.76318 0.57064 0.89571 0.0
C640 C 0.70876 0.57566 0.88924 0.0
C641 C 0.70291 0.55952 0.90963 0.0
C642 C 0.80464 0.64466 0.86912 0.0
C643 C 0.92943 0.62865 0.90019 0.0
C644 C 0.8924 0.6628 0.87081 0.0
C645 C 0.91283 0.67793 0.88563 0.0
C646 C 0.93142 0.66069 0.90042 0.0
N647 N 0.89059 0.63138 0.87069 0.0
C648 C 0.90876 0.61431 0.88512 0.0
Co649 Co 0.91182 0.80512 0.38406 0.0
Co650 Co 0.87984 0.86213 0.34994 0.0
O651 O 0.90467 0.84798 0.37584 0.0
C652 C 0.88057 0.83332 0.42383 0.0
O653 O 0.8621 0.84555 0.40841 0.0
C654 C 0.94184 0.8861 0.34111 0.0
O655 O 0.95133 0.8578 0.34457 0.0
O656 O 0.89894 0.83142 0.32886 0.0
O657 O 0.92044 0.79438 0.35087 0.0
H658 H 0.81114 0.85024 0.2805 0.0
H659 H 0.94505 0.85476 0.40902 0.0
O660 O 0.90238 0.81551 0.41737 0.0
H661 H 0.02602 0.79097 0.37307 0.0
H662 H 0.95269 0.72063 0.43511 0.0
H663 H 0.89547 0.74458 0.36361 0.0
H664 H 0.97111 0.77743 0.36849 0.0
H665 H 0.94354 0.77457 0.42353 0.0
O666 O 0.91319 0.89248 0.34223 0.0
H667 H 0.84194 0.83203 0.31367 0.0
H668 H 0.86637 0.92411 0.33035 0.0
H669 H 0.9043 0.69034 0.37442 0.0
H670 H -0.00032 0.86905 0.41416 0.0
H671 H 0.93309 0.67809 0.41041 0.0
H672 H 0.04059 0.83709 0.39605 0.0
O673 O 0.86787 0.79441 0.37917 0.0
H674 H 0.88001 0.94444 0.41111 0.0
H675 H 0.81505 0.8806 0.36007 0.0
H676 H 0.79045 0.91725 0.38696 0.0
H677 H 0.82302 0.9495 0.41271 0.0
H678 H 0.90363 0.90729 0.38412 0.0
H679 H 0.83601 0.94332 0.29726 0.0
H680 H 0.80802 0.90626 0.27213 0.0
O681 O 0.84663 0.8317 0.35733 0.0
C682 C 0.9136 0.80612 0.33122 0.0
C683 C 0.82313 0.86662 0.29137 0.0
C684 C 0.83713 0.91887 0.30076 0.0
N685 N 0.85568 0.87702 0.32404 0.0
C686 C 0.84053 0.85645 0.31022 0.0
C687 C 0.85432 0.90786 0.31944 0.0
C688 C 0.82142 0.89806 0.28667 0.0
C689 C 0.96275 0.84057 0.40129 0.0
N690 N 0.95494 0.81517 0.38862 0.0
C691 C 0.99363 0.84885 0.40417 0.0
C692 C 0.01657 0.83092 0.39398 0.0
C693 C 0.00841 0.80505 0.38108 0.0
C694 C 0.97729 0.79751 0.37853 0.0
C695 C 0.94017 0.72568 0.41936 0.0
C696 C 0.90821 0.73942 0.37921 0.0
C697 C 0.93487 0.75616 0.41275 0.0
N698 N 0.91921 0.76268 0.39283 0.0
C699 C 0.91305 0.70867 0.38528 0.0
C700 C 0.92917 0.70182 0.40549 0.0
C701 C 0.84519 0.80619 0.36829 0.0
C702 C 0.86558 0.93059 0.39991 0.0
C703 C 0.82936 0.89453 0.37124 0.0
C704 C 0.81531 0.91528 0.3864 0.0
C705 C 0.8336 0.93339 0.40083 0.0
N706 N 0.86074 0.89193 0.37044 0.0
C707 C 0.87883 0.90962 0.38452 0.0
Co708 Co 0.68833 0.57978 0.63214 0.0
Co709 Co 0.63265 0.61 0.66846 0.0
O710 O 0.64573 0.58632 0.64163 0.0
C711 C 0.65814 0.61092 0.59317 0.0
O712 O 0.64641 0.62933 0.60887 0.0
C713 C 0.60761 0.54824 0.67627 0.0
O714 O 0.63569 0.53823 0.67246 0.0
O715 O 0.66348 0.58907 0.68845 0.0
O716 O 0.70104 0.57129 0.66494 0.0
H717 H 0.64771 0.67465 0.7397 0.0
H718 H 0.63789 0.54599 0.60853 0.0
O719 O 0.67618 0.58913 0.59922 0.0
H720 H 0.70449 0.46586 0.64251 0.0
H721 H 0.77063 0.53976 0.57863 0.0
H722 H 0.74973 0.59762 0.65037 0.0
H723 H 0.71756 0.52087 0.64681 0.0
H724 H 0.7172 0.54811 0.59191 0.0
O725 O 0.6018 0.57698 0.67563 0.0
H726 H 0.66445 0.64528 0.70537 0.0
H727 H 0.57138 0.62362 0.68939 0.0
H728 H 0.80352 0.58961 0.63787 0.0
H729 H 0.62404 0.49126 0.60369 0.0
H730 H 0.81423 0.56049 0.60175 0.0
H731 H 0.65742 0.45077 0.6208 0.0
O732 O 0.69862 0.62378 0.63683 0.0
H733 H 0.54874 0.61462 0.60861 0.0
H734 H 0.61509 0.67555 0.66063 0.0
H735 H 0.5782 0.70221 0.63507 0.0
H736 H 0.54469 0.67167 0.60883 0.0
H737 H 0.58615 0.58893 0.63428 0.0
H738 H 0.55362 0.65256 0.72365 0.0
H739 H 0.59193 0.67843 0.74901 0.0
O740 O 0.66351 0.64303 0.6616 0.0
C741 C 0.68933 0.57584 0.68497 0.0
C742 C 0.63079 0.66357 0.72873 0.0
C743 C 0.57799 0.65113 0.71974 0.0
N744 N 0.61889 0.63301 0.69529 0.0
C745 C 0.64013 0.64699 0.70924 0.0
C746 C 0.58817 0.63474 0.7004 0.0
C747 C 0.59949 0.66565 0.73396 0.0
C748 C 0.65269 0.52849 0.61583 0.0
N749 N 0.67861 0.53658 0.6278 0.0
C750 C 0.64466 0.49754 0.61311 0.0
C751 C 0.66338 0.47484 0.62275 0.0
C752 C 0.68978 0.48329 0.63494 0.0
C753 C 0.69705 0.51446 0.63735 0.0
C754 C 0.76626 0.5524 0.59445 0.0
C755 C 0.75424 0.58468 0.63477 0.0
C756 C 0.73607 0.55723 0.60203 0.0
N757 N 0.73041 0.57302 0.62204 0.0
C758 C 0.78473 0.58033 0.62771 0.0
C759 C 0.79072 0.56403 0.60743 0.0
C760 C 0.68783 0.64549 0.64926 0.0
C761 C 0.56314 0.62817 0.62002 0.0
C762 C 0.60064 0.66213 0.64922 0.0
C763 C 0.57974 0.67734 0.63483 0.0
C764 C 0.56092 0.66019 0.62012 0.0
N765 N 0.60269 0.63072 0.64901 0.0
C766 C 0.58428 0.61375 0.63467 0.0
Co767 Co 0.91068 0.68491 0.13273 0.0
Co768 Co 0.87897 0.62838 0.16745 0.0
O769 O 0.90271 0.64222 0.14087 0.0
C770 C 0.87685 0.65848 0.09342 0.0
O771 O 0.85775 0.64779 0.10908 0.0
C772 C 0.94099 0.60354 0.17347 0.0
O773 O 0.95029 0.63157 0.16871 0.0
O774 O 0.89957 0.65856 0.18809 0.0
O775 O 0.92064 0.69547 0.16575 0.0
H776 H 0.8137 0.64112 0.23867 0.0
H777 H 0.94196 0.63473 0.10694 0.0
O778 O 0.90002 0.67466 0.09964 0.0
H779 H 0.02551 0.69651 0.14152 0.0
H780 H 0.95176 0.76864 0.08103 0.0
H781 H 0.89623 0.74574 0.15351 0.0
H782 H 0.97109 0.71125 0.14718 0.0
H783 H 0.94179 0.71488 0.09272 0.0
O784 O 0.91223 0.59751 0.17431 0.0
H785 H 0.84323 0.65896 0.20472 0.0
H786 H 0.86539 0.56657 0.18727 0.0
H787 H 0.9059 0.79981 0.14259 0.0
H788 H -0.00394 0.61927 0.10074 0.0
H789 H 0.93385 0.81153 0.1061 0.0
H790 H 0.03826 0.6502 0.11817 0.0
O791 O 0.86713 0.69649 0.13862 0.0
H792 H 0.87472 0.5469 0.10575 0.0
H793 H 0.81345 0.61109 0.15907 0.0
H794 H 0.78689 0.57529 0.13257 0.0
H795 H 0.8176 0.54289 0.10567 0.0
H796 H 0.90031 0.58317 0.13241 0.0
H797 H 0.83629 0.54772 0.22114 0.0
H798 H 0.8101 0.58512 0.24705 0.0
O799 O 0.84605 0.65951 0.16094 0.0
C800 C 0.91444 0.68368 0.1855 0.0
C801 C 0.82492 0.62459 0.22746 0.0
C802 C 0.83764 0.57217 0.21764 0.0
N803 N 0.85575 0.6138 0.19393 0.0
C804 C 0.84158 0.63455 0.20817 0.0
C805 C 0.85412 0.58297 0.19852 0.0
C806 C 0.82293 0.59317 0.23217 0.0
C807 C 0.96022 0.6485 0.11436 0.0
N808 N 0.9534 0.67398 0.12727 0.0
C809 C 0.99079 0.63956 0.11088 0.0
C810 C 0.01446 0.6569 0.12069 0.0
C811 C 0.00732 0.68288 0.13381 0.0
C812 C 0.97648 0.69109 0.13697 0.0
C813 C 0.93962 0.76383 0.09699 0.0
C814 C 0.9086 0.75066 0.13769 0.0
C815 C 0.93386 0.73345 0.10367 0.0
N816 N 0.91869 0.72721 0.12386 0.0
C817 C 0.91392 0.78132 0.13156 0.0
C818 C 0.92957 0.78788 0.11107 0.0
C819 C 0.84469 0.68511 0.15005 0.0
C820 C 0.8611 0.56083 0.11745 0.0
C821 C 0.82695 0.59706 0.14741 0.0
C822 C 0.8118 0.57681 0.13247 0.0
C823 C 0.82904 0.55862 0.11738 0.0
N824 N 0.8584 0.59908 0.14737 0.0
C825 C 0.87546 0.58131 0.13265 0.0
Co826 Co 0.80279 0.91089 0.63016 0.0
Co827 Co 0.85879 0.88312 0.66729 0.0
O828 O 0.84542 0.90551 0.6399 0.0
C829 C 0.83401 0.87941 0.59171 0.0
O830 O 0.84619 0.86171 0.60767 0.0
C831 C 0.88211 0.94587 0.67278 0.0
O832 O 0.85409 0.95464 0.66735 0.0
O833 O 0.82725 0.90384 0.68672 0.0
O834 O 0.78948 0.91996 0.66279 0.0
H835 H 0.84451 0.82033 0.73954 0.0
H836 H 0.85255 0.94518 0.60615 0.0
O837 O 0.81544 0.90091 0.59745 0.0
H838 H 0.78398 0.02467 0.63877 0.0
H839 H 0.72006 0.94749 0.57571 0.0
H840 H 0.74166 0.89198 0.64835 0.0
H841 H 0.77209 0.96951 0.64383 0.0
H842 H 0.77354 0.94081 0.58936 0.0
O843 O 0.88853 0.91729 0.67417 0.0
H844 H 0.82745 0.84808 0.70455 0.0
H845 H 0.9201 0.87195 0.6889 0.0
H846 H 0.68782 0.89833 0.63549 0.0
H847 H 0.86523 7e-05 0.60056 0.0
H848 H 0.67675 0.92627 0.59891 0.0
H849 H 0.83086 0.04024 0.61701 0.0
O850 O 0.79361 0.86684 0.6355 0.0
H851 H 0.94351 0.87889 0.60802 0.0
H852 H 0.87822 0.81785 0.66075 0.0
H853 H 0.91612 0.7914 0.63588 0.0
H854 H 0.94909 0.82199 0.60928 0.0
H855 H 0.90514 0.90437 0.63304 0.0
H856 H 0.93816 0.84468 0.72382 0.0
H857 H 0.90023 0.81852 0.74936 0.0
O858 O 0.82889 0.84901 0.66074 0.0
C859 C 0.8011 0.91626 0.68295 0.0
C860 C 0.86127 0.83155 0.7285 0.0
C861 C 0.91382 0.84525 0.7197 0.0
N862 N 0.87279 0.86135 0.69461 0.0
C863 C 0.85176 0.8472 0.70864 0.0
C864 C 0.90347 0.8607 0.69998 0.0
C865 C 0.89253 0.83056 0.73402 0.0
C866 C 0.83731 0.96254 0.61313 0.0
N867 N 0.81151 0.95418 0.62516 0.0
C868 C 0.84467 0.99358 0.61 0.0
C869 C 0.8254 0.0161 0.61927 0.0
C870 C 0.79911 0.00738 0.63149 0.0
C871 C 0.79251 0.97612 0.63432 0.0
C872 C 0.72457 0.93537 0.59172 0.0
C873 C 0.73699 0.90443 0.63255 0.0
C874 C 0.7548 0.93149 0.59952 0.0
N875 N 0.76065 0.91636 0.61978 0.0
C876 C 0.70647 0.90783 0.62529 0.0
C877 C 0.70028 0.92347 0.60475 0.0
C878 C 0.80479 0.84568 0.64826 0.0
C879 C 0.92934 0.86532 0.61959 0.0
C880 C 0.89246 0.8313 0.6492 0.0
C881 C 0.91391 0.81621 0.63519 0.0
C882 C 0.93243 0.83339 0.62028 0.0
N883 N 0.88957 0.86263 0.64842 0.0
C884 C 0.90768 0.87964 0.63388 0.0
Co885 Co 0.57998 0.80302 0.13166 0.0
Co886 Co 0.60966 0.85986 0.16714 0.0
O887 O 0.58598 0.84583 0.14057 0.0
C888 C 0.6106 0.83277 0.09221 0.0
O889 O 0.62889 0.8451 0.10773 0.0
C890 C 0.54736 0.88373 0.17478 0.0
O891 O 0.538 0.8554 0.1712 0.0
O892 O 0.58946 0.82912 0.1876 0.0
O893 O 0.57179 0.79092 0.16468 0.0
H894 H 0.67523 0.84755 0.23821 0.0
H895 H 0.54534 0.85234 0.10751 0.0
O896 O 0.58905 0.81457 0.09854 0.0
H897 H 0.46623 0.7854 0.14259 0.0
H898 H 0.54089 0.71899 0.07936 0.0
H899 H 0.59884 0.74239 0.15063 0.0
H900 H 0.5215 0.77326 0.14689 0.0
H901 H 0.54852 0.77278 0.09192 0.0
O902 O 0.57603 0.89017 0.1741 0.0
H903 H 0.64588 0.82954 0.20423 0.0
H904 H 0.6223 0.92173 0.18726 0.0
H905 H 0.59156 0.68826 0.13886 0.0
H906 H 0.49033 0.86525 0.10266 0.0
H907 H 0.56239 0.67629 0.10297 0.0
H908 H 0.45036 0.8317 0.12034 0.0
O909 O 0.62416 0.79354 0.13633 0.0
H910 H 0.61235 0.94257 0.10633 0.0
H911 H 0.67492 0.87831 0.15869 0.0
H912 H 0.70075 0.9151 0.13257 0.0
H913 H 0.66939 0.94756 0.10615 0.0
H914 H 0.58749 0.90528 0.13258 0.0
H915 H 0.6512 0.94074 0.22116 0.0
H916 H 0.67802 0.90352 0.24684 0.0
O917 O 0.64327 0.82945 0.16048 0.0
C918 C 0.57645 0.80307 0.18455 0.0
C919 C 0.66373 0.864 0.2271 0.0
C920 C 0.65021 0.9163 0.21755 0.0
N921 N 0.63265 0.87459 0.19368 0.0
C922 C 0.64716 0.85395 0.2078 0.0
C923 C 0.63384 0.90541 0.19842 0.0
C924 C 0.66526 0.89541 0.23195 0.0
C925 C 0.52806 0.83746 0.11505 0.0
N926 N 0.53658 0.81197 0.12732 0.0
C927 C 0.49696 0.84496 0.11233 0.0
C928 C 0.47454 0.82615 0.12228 0.0
C929 C 0.48343 0.80018 0.13478 0.0
C930 C 0.51475 0.79343 0.13718 0.0
C931 C 0.55355 0.7239 0.09508 0.0
C932 C 0.58588 0.73733 0.13513 0.0
C933 C 0.55797 0.75431 0.10225 0.0
N934 N 0.57378 0.76066 0.12214 0.0
C935 C 0.58194 0.70665 0.12849 0.0
C936 C 0.56561 0.69996 0.10833 0.0
C937 C 0.64592 0.8049 0.14845 0.0
C938 C 0.62625 0.92863 0.11782 0.0
C939 C 0.66113 0.89232 0.14722 0.0
C940 C 0.67587 0.91316 0.1325 0.0
C941 C 0.65826 0.93138 0.1177 0.0
N942 N 0.62972 0.88975 0.14724 0.0
C943 C 0.6123 0.90758 0.13279 0.0
H944 H 0.39737 0.19014 0.96175 0.0
H945 H 0.35179 0.10599 0.94148 0.0
H946 H 0.38606 0.17896 1.00224 0.0
H947 H 0.3421 0.09369 0.98183 0.0
H948 H 0.29983 0.09505 0.05361 0.0
H949 H 0.31173 0.1061 0.01326 0.0
H950 H 0.39735 0.149 0.03424 0.0
H951 H 0.38434 0.13954 0.07454 0.0
C952 C 0.38534 0.16902 0.96603 0.0
C953 C 0.37527 0.14907 0.9485 0.0
C954 C 0.37898 0.16244 0.98927 0.0
C955 C 0.36297 0.1354 0.99552 0.0
C956 C 0.35373 0.1151 0.97784 0.0
C957 C 0.35951 0.12202 0.95464 0.0
C958 C 0.32118 0.1068 0.04951 0.0
C959 C 0.34105 0.11657 0.0672 0.0
C960 C 0.32819 0.113 0.02634 0.0
C961 C 0.35559 0.12854 0.02026 0.0
C962 C 0.37572 0.13766 0.0381 0.0
C963 C 0.36839 0.13202 0.06126 0.0
H964 H 0.38514 0.35014 0.44301 0.0
H965 H 0.3003 0.39512 0.46251 0.0
H966 H 0.39713 0.34109 0.48348 0.0
H967 H 0.3112 0.38445 0.50313 0.0
H968 H 0.35041 0.385 0.57547 0.0
H969 H 0.34097 0.39686 0.53499 0.0
H970 H 0.38487 0.3113 0.51528 0.0
H971 H 0.39589 0.30055 0.55584 0.0
C972 C 0.36888 0.35784 0.45602 0.0
C973 C 0.34174 0.37328 0.44962 0.0
C974 C 0.37563 0.35242 0.47929 0.0
C975 C 0.35509 0.36175 0.4968 0.0
C976 C 0.32791 0.37735 0.49029 0.0
C977 C 0.32148 0.38333 0.46698 0.0
C978 C 0.35815 0.36881 0.56244 0.0
C979 C 0.37387 0.34183 0.56879 0.0
C980 C 0.35251 0.37548 0.53917 0.0
C981 C 0.36191 0.35502 0.52165 0.0
C982 C 0.37773 0.32798 0.52812 0.0
C983 C 0.38393 0.32164 0.55141 0.0
H984 H 0.0982 0.3044 0.96251 0.0
H985 H 0.14306 0.38923 0.94289 0.0
H986 H 0.10867 0.31543 1.00306 0.0
H987 H 0.15196 0.40137 0.98345 0.0
H988 H 0.19232 0.39929 0.05629 0.0
H989 H 0.18153 0.38924 0.01555 0.0
H990 H 0.09576 0.34511 0.03472 0.0
H991 H 0.10766 0.35354 0.07529 0.0
C992 C 0.10989 0.32566 0.96694 0.0
C993 C 0.11993 0.34588 0.94956 0.0
C994 C 0.11576 0.33216 0.99023 0.0
C995 C 0.13123 0.35938 0.99675 0.0
C996 C 0.14064 0.37987 0.97923 0.0
C997 C 0.13531 0.37305 0.95593 0.0
C998 C 0.17117 0.38749 0.05169 0.0
C999 C 0.15097 0.37698 0.06893 0.0
C1000 C 0.16482 0.38186 0.02831 0.0
C1001 C 0.13777 0.36615 0.02163 0.0
C1002 C 0.1172 0.35652 0.03903 0.0
C1003 C 0.12388 0.36157 0.06236 0.0
H1004 H 0.13933 0.10499 0.57485 0.0
H1005 H 0.09592 0.19045 0.55507 0.0
H1006 H 0.14945 0.09327 0.53442 0.0
H1007 H 0.10761 0.1798 0.5146 0.0
H1008 H 0.10934 0.14188 0.44196 0.0
H1009 H 0.09605 0.15067 0.48226 0.0
H1010 H 0.18056 0.10573 0.50327 0.0
H1011 H 0.19276 0.09537 0.46283 0.0
C1012 C 0.13214 0.12139 0.56179 0.0
C1013 C 0.11686 0.14865 0.5681 0.0
C1014 C 0.13818 0.11481 0.53856 0.0
C1015 C 0.12966 0.13564 0.52102 0.0
C1016 C 0.11412 0.16287 0.52744 0.0
C1017 C 0.10752 0.16913 0.55069 0.0
C1018 C 0.12502 0.1338 0.45523 0.0
C1019 C 0.15213 0.11799 0.44926 0.0
C1020 C 0.11751 0.13904 0.47841 0.0
C1021 C 0.13724 0.12915 0.49625 0.0
C1022 C 0.16442 0.11326 0.49016 0.0
C1023 C 0.17161 0.10746 0.46694 0.0
H1024 H 0.63862 0.88346 0.0743 0.0
H1025 H 0.59367 0.7988 0.05442 0.0
H1026 H 0.64807 0.89557 0.03386 0.0
H1027 H 0.60471 0.80981 0.01389 0.0
H1028 H 0.60525 0.84848 0.94155 0.0
H1029 H 0.59275 0.83945 0.98196 0.0
H1030 H 0.67817 0.88342 1.00215 0.0
H1031 H 0.68956 0.89404 0.9616 0.0
C1032 C 0.63097 0.86729 0.06122 0.0
C1033 C 0.61544 0.84016 0.0675 0.0
C1034 C 0.63662 0.8741 0.03797 0.0
C1035 C 0.62743 0.85364 0.02038 0.0
C1036 C 0.61171 0.8265 0.02678 0.0
C1037 C 0.6055 0.82001 0.05006 0.0
C1038 C 0.62128 0.85633 0.95466 0.0
C1039 C 0.64842 0.87192 0.94843 0.0
C1040 C 0.61424 0.85093 0.9779 0.0
C1041 C 0.63448 0.86042 0.99556 0.0
C1042 C 0.66165 0.87618 0.98921 0.0
C1043 C 0.66837 0.88215 0.96593 0.0
H1044 H 0.69133 0.59395 0.55502 0.0
H1045 H 0.60722 0.63921 0.5759 0.0
H1046 H 0.67964 0.60516 0.51465 0.0
H1047 H 0.59439 0.6488 0.5356 0.0
H1048 H 0.59516 0.69079 0.46356 0.0
H1049 H 0.60624 0.67898 0.50393 0.0
H1050 H 0.64942 0.59358 0.48295 0.0
H1051 H 0.63997 0.60652 0.44266 0.0
C1052 C 0.67009 0.60588 0.55091 0.0
C1053 C 0.6503 0.61587 0.56858 0.0
C1054 C 0.66321 0.61218 0.52772 0.0
C1055 C 0.63601 0.62803 0.52164 0.0
C1056 C 0.61589 0.63725 0.53946 0.0
C1057 C 0.62311 0.63153 0.56263 0.0
C1058 C 0.60697 0.6695 0.46767 0.0
C1059 C 0.61687 0.64969 0.44999 0.0
C1060 C 0.61319 0.66255 0.49085 0.0
C1061 C 0.62888 0.63526 0.49692 0.0
C1062 C 0.63801 0.61514 0.4791 0.0
C1063 C 0.63237 0.62243 0.45593 0.0
H1064 H 0.82021 0.57534 0.96258 0.0
H1065 H 0.86198 0.66209 0.94354 0.0
H1066 H 0.83255 0.58533 1.00311 0.0
H1067 H 0.87329 0.67255 0.98394 0.0
H1068 H 0.91425 0.67075 0.05623 0.0
H1069 H 0.90492 0.65793 0.0157 0.0
H1070 H 0.81726 0.61754 0.03436 0.0
H1071 H 0.82707 0.62934 0.07477 0.0
C1072 C 0.83187 0.59659 0.96705 0.0
C1073 C 0.84 0.61793 0.94984 0.0
C1074 C 0.83882 0.60242 0.9903 0.0
C1075 C 0.85388 0.62981 0.99687 0.0
C1076 C 0.86214 0.65101 0.97956 0.0
C1077 C 0.85539 0.64509 0.95635 0.0
C1078 C 0.89303 0.6591 0.05164 0.0
C1079 C 0.87139 0.65117 0.06872 0.0
C1080 C 0.88759 0.65185 0.02839 0.0
C1081 C 0.86029 0.63669 0.02168 0.0
C1082 C 0.83875 0.62873 0.03886 0.0
C1083 C 0.84428 0.63577 0.06206 0.0
H1084 H 0.89758 0.79954 0.46178 0.0
H1085 H 0.85289 0.88414 0.44154 0.0
H1086 H 0.88648 0.81091 0.5023 0.0
H1087 H 0.84342 0.89658 0.48187 0.0
H1088 H 0.80084 0.89569 0.55344 0.0
H1089 H 0.81274 0.8843 0.51316 0.0
H1090 H 0.89797 0.84091 0.53436 0.0
H1091 H 0.88498 0.85076 0.57464 0.0
C1092 C 0.8858 0.82079 0.46606 0.0
C1093 C 0.87588 0.84081 0.44852 0.0
C1094 C 0.87955 0.82748 0.48931 0.0
C1095 C 0.86381 0.85467 0.49556 0.0
C1096 C 0.8548 0.87505 0.47787 0.0
C1097 C 0.86047 0.86805 0.45468 0.0
C1098 C 0.82212 0.88377 0.54942 0.0
C1099 C 0.8419 0.87401 0.56716 0.0
C1100 C 0.82913 0.87737 0.52628 0.0
C1101 C 0.85643 0.86162 0.52028 0.0
C1102 C 0.87644 0.85244 0.53817 0.0
C1103 C 0.86912 0.85831 0.56131 0.0
H1104 H 0.2452 0.33551 0.13548 0.0
H1105 H 0.16571 0.28781 0.16311 0.0
H1106 H 0.27437 0.28758 0.13608 0.0
H1107 H 0.19508 0.23987 0.16357 0.0
H1108 H 0.24659 0.15689 0.1318 0.0
H1109 H 0.21821 0.20508 0.1327 0.0
H1110 H 0.29515 0.24956 0.1663 0.0
H1111 H 0.32388 0.20107 0.16557 0.0
C1112 C 0.23388 0.31483 0.14161 0.0
C1113 C 0.20302 0.31547 0.14913 0.0
C1114 C 0.25072 0.28747 0.14213 0.0
C1115 C 0.23696 0.26013 0.14989 0.0
C1116 C 0.20614 0.26066 0.15736 0.0
C1117 C 0.18937 0.28811 0.15712 0.0
C1118 C 0.25762 0.17687 0.13937 0.0
C1119 C 0.28761 0.17511 0.14857 0.0
C1120 C 0.2412 0.20442 0.14001 0.0
C1121 C 0.25446 0.23093 0.14963 0.0
C1122 C 0.2845 0.2294 0.15868 0.0
C1123 C 0.30087 0.20166 0.15831 0.0
H1124 H 0.32455 0.26715 0.61677 0.0
H1125 H 0.2983 0.30825 0.68203 0.0
H1126 H 0.27749 0.23651 0.61697 0.0
H1127 H 0.25117 0.27705 0.68225 0.0
H1128 H 0.19159 0.18609 0.68328 0.0
H1129 H 0.23909 0.21671 0.6838 0.0
H1130 H 0.21903 0.24998 0.61505 0.0
H1131 H 0.17158 0.2199 0.61453 0.0
C1132 C 0.30871 0.26967 0.63115 0.0
C1133 C 0.3151 0.29012 0.6494 0.0
C1134 C 0.28179 0.25216 0.63121 0.0
C1135 C 0.26093 0.25438 0.64967 0.0
C1136 C 0.26715 0.27481 0.66793 0.0
C1137 C 0.29391 0.2928 0.6677 0.0
C1138 C 0.19748 0.19975 0.66823 0.0
C1139 C 0.1779 0.20063 0.64888 0.0
C1140 C 0.22444 0.21743 0.66863 0.0
C1141 C 0.23248 0.23572 0.64951 0.0
C1142 C 0.2133 0.23599 0.62998 0.0
C1143 C 0.18617 0.21881 0.62972 0.0
H1144 H 0.24741 0.33699 0.36136 0.0
H1145 H 0.32996 0.28522 0.37596 0.0
H1146 H 0.21777 0.28963 0.3595 0.0
H1147 H 0.3001 0.23767 0.37611 0.0
H1148 H 0.24602 0.15406 0.35515 0.0
H1149 H 0.2753 0.20179 0.35429 0.0
H1150 H 0.1953 0.25089 0.37992 0.0
H1151 H 0.16561 0.20318 0.37874 0.0
C1152 C 0.25905 0.31534 0.36454 0.0
C1153 C 0.29085 0.31458 0.36881 0.0
C1154 C 0.24204 0.28812 0.36368 0.0
C1155 C 0.2563 0.25952 0.36776 0.0
C1156 C 0.28826 0.25901 0.37232 0.0
C1157 C 0.30544 0.28624 0.37246 0.0
C1158 C 0.23482 0.17524 0.3604 0.0
C1159 C 0.20374 0.17524 0.36698 0.0
C1160 C 0.25163 0.2026 0.36017 0.0
C1161 C 0.23795 0.23046 0.36725 0.0
C1162 C 0.20662 0.23019 0.37388 0.0
C1163 C 0.18956 0.20289 0.3734 0.0
H1164 H 0.32671 0.22584 0.90041 0.0
H1165 H 0.29931 0.18386 0.83573 0.0
H1166 H 0.28007 0.25709 0.90012 0.0
H1167 H 0.25263 0.21563 0.83544 0.0
H1168 H 0.1937 0.30676 0.83375 0.0
H1169 H 0.24105 0.27592 0.83329 0.0
H1170 H 0.22158 0.24426 0.90258 0.0
H1171 H 0.17431 0.27456 0.90305 0.0
C1172 C 0.31072 0.22326 0.88614 0.0
C1173 C 0.31665 0.20236 0.86809 0.0
C1174 C 0.28405 0.24112 0.88603 0.0
C1175 C 0.26299 0.23881 0.86771 0.0
C1176 C 0.26877 0.21796 0.84963 0.0
C1177 C 0.29528 0.19964 0.84993 0.0
C1178 C 0.1997 0.29341 0.84892 0.0
C1179 C 0.18033 0.29302 0.86842 0.0
C1180 C 0.22657 0.27562 0.84856 0.0
C1181 C 0.23473 0.25771 0.86786 0.0
C1182 C 0.21578 0.25796 0.88752 0.0
C1183 C 0.18874 0.27525 0.88774 0.0
H1184 H 0.66197 0.78486 0.87899 0.0
H1185 H 0.74257 0.83395 0.85566 0.0
H1186 H 0.69159 0.73712 0.88021 0.0
H1187 H 0.77176 0.78623 0.85483 0.0
H1188 H 0.82618 0.70268 0.87607 0.0
H1189 H 0.79637 0.75023 0.87656 0.0
H1190 H 0.71399 0.69846 0.8596 0.0
H1191 H 0.74364 0.65104 0.86113 0.0
C1192 C 0.68596 0.78515 0.87376 0.0
C1193 C 0.70021 0.81279 0.86739 0.0
C1194 C 0.70297 0.75783 0.87426 0.0
C1195 C 0.73431 0.75755 0.86766 0.0
C1196 C 0.74808 0.78542 0.86069 0.0
C1197 C 0.73132 0.81279 0.86092 0.0
C1198 C 0.80167 0.70172 0.87254 0.0
C1199 C 0.78705 0.67345 0.86868 0.0
C1200 C 0.78452 0.72894 0.87261 0.0
C1201 C 0.75256 0.72847 0.86804 0.0
C1202 C 0.73826 0.69992 0.86377 0.0
C1203 C 0.75526 0.67269 0.86444 0.0
H1204 H 0.70191 0.66785 0.35157 0.0
H1205 H 0.65702 0.74454 0.3855 0.0
H1206 H 0.75014 0.697 0.35079 0.0
H1207 H 0.70503 0.77338 0.38456 0.0
H1208 H 0.78817 0.82631 0.35449 0.0
H1209 H 0.74009 0.79699 0.35399 0.0
H1210 H 0.78786 0.71755 0.381 0.0
H1211 H 0.83584 0.7466 0.38163 0.0
C1212 C 0.70228 0.69082 0.35886 0.0
C1213 C 0.67561 0.70377 0.36867 0.0
C1214 C 0.72989 0.70745 0.35845 0.0
C1215 C 0.73119 0.73743 0.36756 0.0
C1216 C 0.70455 0.75043 0.37721 0.0
C1217 C 0.67711 0.73375 0.37788 0.0
C1218 C 0.78843 0.80262 0.36036 0.0
C1219 C 0.81583 0.78888 0.36821 0.0
C1220 C 0.76091 0.78589 0.3601 0.0
C1221 C 0.76037 0.75503 0.36741 0.0
C1222 C 0.78774 0.74122 0.37506 0.0
C1223 C 0.81514 0.758 0.37558 0.0
H1224 H 0.8252 0.79019 0.66509 0.0
H1225 H 0.74652 0.834 0.63297 0.0
H1226 H 0.79684 0.74146 0.66616 0.0
H1227 H 0.71844 0.78558 0.63432 0.0
H1228 H 0.66816 0.70148 0.66542 0.0
H1229 H 0.69705 0.74979 0.66606 0.0
H1230 H 0.77526 0.70416 0.63512 0.0
H1231 H 0.74656 0.65596 0.63421 0.0
C1232 C 0.80195 0.78947 0.65829 0.0
C1233 C 0.7882 0.81596 0.64886 0.0
C1234 C 0.78579 0.76162 0.65887 0.0
C1235 C 0.75548 0.75994 0.6504 0.0
C1236 C 0.74167 0.7864 0.64117 0.0
C1237 C 0.75791 0.81405 0.64027 0.0
C1238 C 0.69149 0.70173 0.65872 0.0
C1239 C 0.70496 0.6749 0.64962 0.0
C1240 C 0.70797 0.72937 0.65908 0.0
C1241 C 0.73834 0.73055 0.65068 0.0
C1242 C 0.75196 0.70373 0.64188 0.0
C1243 C 0.73538 0.67622 0.64121 0.0
H1244 H 0.83586 0.74491 0.13713 0.0
H1245 H 0.78765 0.66548 0.16425 0.0
H1246 H 0.78802 0.77419 0.13762 0.0
H1247 H 0.73972 0.69502 0.16464 0.0
H1248 H 0.6572 0.747 0.13218 0.0
H1249 H 0.70523 0.71828 0.13364 0.0
H1250 H 0.74977 0.79511 0.16728 0.0
H1251 H 0.70151 0.82416 0.16597 0.0
C1252 C 0.81508 0.73365 0.14318 0.0
C1253 C 0.81555 0.70274 0.15052 0.0
C1254 C 0.78776 0.75055 0.14362 0.0
C1255 C 0.76026 0.73685 0.15117 0.0
C1256 C 0.76064 0.70603 0.15858 0.0
C1257 C 0.78807 0.68917 0.15841 0.0
C1258 C 0.67717 0.75793 0.13986 0.0
C1259 C 0.6755 0.78799 0.1489 0.0
C1260 C 0.70462 0.74131 0.14085 0.0
C1261 C 0.7311 0.75444 0.15065 0.0
C1262 C 0.72964 0.78454 0.15952 0.0
C1263 C 0.70203 0.80111 0.1588 0.0
H1264 H 0.24963 0.07652 0.32571 0.0
H1265 H 0.16342 0.05518 0.29217 0.0
H1266 H 0.27657 0.07041 0.28921 0.0
H1267 H 0.19045 0.04663 0.2558 0.0
H1268 H 0.23984 0.07999 0.19019 0.0
H1269 H 0.21223 0.07431 0.2265 0.0
H1270 H 0.29599 0.0422 0.25934 0.0
H1271 H 0.32383 0.05033 0.22325 0.0
C1272 C 0.23659 0.06954 0.31062 0.0
C1273 C 0.20444 0.06663 0.31171 0.0
C1274 C 0.25206 0.06582 0.28957 0.0
C1275 C 0.23581 0.0583 0.26919 0.0
C1276 C 0.20378 0.05334 0.2708 0.0
C1277 C 0.18825 0.0579 0.29172 0.0
C1278 C 0.25214 0.07125 0.20511 0.0
C1279 C 0.28396 0.06587 0.204 0.0
C1280 C 0.2363 0.0678 0.22603 0.0
C1281 C 0.2518 0.05811 0.24623 0.0
C1282 C 0.28332 0.05064 0.24451 0.0
C1283 C 0.29929 0.05494 0.22375 0.0
H1284 H 0.40773 0.32563 0.73064 0.0
H1285 H 0.44114 0.24947 0.6894 0.0
H1286 H 0.41565 0.29591 0.76552 0.0
H1287 H 0.45 0.21987 0.72472 0.0
H1288 H 0.40897 0.16533 0.78667 0.0
H1289 H 0.41631 0.19512 0.75175 0.0
H1290 H 0.44991 0.27165 0.79239 0.0
H1291 H 0.44161 0.24196 0.82776 0.0
C1292 C 0.41734 0.30271 0.72899 0.0
C1293 C 0.42333 0.2898 0.70709 0.0
C1294 C 0.42219 0.28572 0.74913 0.0
C1295 C 0.43329 0.25539 0.748 0.0
C1296 C 0.44095 0.24303 0.72619 0.0
C1297 C 0.43601 0.26005 0.70594 0.0
C1298 C 0.4183 0.18838 0.78828 0.0
C1299 C 0.42422 0.20139 0.81015 0.0
C1300 C 0.42282 0.20541 0.76811 0.0
C1301 C 0.43351 0.2359 0.7692 0.0
C1302 C 0.44116 0.24836 0.79096 0.0
C1303 C 0.43655 0.2313 0.81124 0.0
H1304 H 0.24307 0.43802 0.19053 0.0
H1305 H 0.16651 0.40487 0.23156 0.0
H1306 H 0.27326 0.44508 0.22578 0.0
H1307 H 0.19681 0.41136 0.26648 0.0
H1308 H 0.25202 0.43921 0.32832 0.0
H1309 H 0.22213 0.44677 0.29299 0.0
H1310 H 0.2971 0.40917 0.25268 0.0
H1311 H 0.32713 0.40216 0.28768 0.0
C1312 C 0.23252 0.4326 0.20703 0.0
C1313 C 0.20245 0.42054 0.20813 0.0
C1314 C 0.24989 0.43651 0.22722 0.0
C1315 C 0.23753 0.42858 0.24893 0.0
C1316 C 0.20695 0.41803 0.2501 0.0
C1317 C 0.18964 0.41406 0.22997 0.0
C1318 C 0.26233 0.43302 0.31189 0.0
C1319 C 0.29188 0.41975 0.31093 0.0
C1320 C 0.24513 0.43723 0.29165 0.0
C1321 C 0.25714 0.42838 0.27003 0.0
C1322 C 0.28725 0.41657 0.26899 0.0
C1323 C 0.3044 0.41231 0.28916 0.0
H1324 H 0.08215 0.25025 0.69122 0.0
H1325 H 0.05574 0.16616 0.72571 0.0
H1326 H 0.07677 0.27832 0.72737 0.0
H1327 H 0.04818 0.19439 0.76166 0.0
H1328 H 0.05645 0.32767 0.79256 0.0
H1329 H 0.04803 0.29939 0.75675 0.0
H1330 H 0.07753 0.21554 0.79068 0.0
H1331 H 0.08378 0.24368 0.82673 0.0
C1332 C 0.07425 0.23798 0.70643 0.0
C1333 C 0.06967 0.20603 0.70574 0.0
C1334 C 0.07098 0.25408 0.72724 0.0
C1335 C 0.06233 0.23869 0.74775 0.0
C1336 C 0.05575 0.20698 0.74653 0.0
C1337 C 0.05977 0.19079 0.72585 0.0
C1338 C 0.06049 0.30304 0.79238 0.0
C1339 C 0.07091 0.28785 0.81235 0.0
C1340 C 0.05598 0.28682 0.77178 0.0
C1341 C 0.06258 0.25513 0.77048 0.0
C1342 C 0.07173 0.23977 0.79087 0.0
C1343 C 0.07549 0.25591 0.81163 0.0
H1344 H 0.74636 0.91119 0.82469 0.0
H1345 H 0.66013 0.93019 0.79042 0.0
H1346 H 0.77373 0.91834 0.78847 0.0
H1347 H 0.68751 0.93982 0.75434 0.0
H1348 H 0.82166 0.94109 0.72332 0.0
H1349 H 0.79284 0.94767 0.75915 0.0
H1350 H 0.71076 0.91368 0.72498 0.0
H1351 H 0.73924 0.90959 0.68896 0.0
C1352 C 0.73337 0.91779 0.80949 0.0
C1353 C 0.70114 0.91982 0.81029 0.0
C1354 C 0.74908 0.92215 0.78861 0.0
C1355 C 0.73298 0.92946 0.76812 0.0
C1356 C 0.70078 0.93333 0.76943 0.0
C1357 C 0.68502 0.92812 0.79018 0.0
C1358 C 0.79724 0.93577 0.72346 0.0
C1359 C 0.78265 0.92478 0.70342 0.0
C1360 C 0.78073 0.93916 0.74408 0.0
C1361 C 0.74942 0.93065 0.74536 0.0
C1362 C 0.73462 0.92095 0.72487 0.0
C1363 C 0.75098 0.91843 0.7041 0.0
H1364 H 0.55284 0.66545 0.29326 0.0
H1365 H 0.57934 0.75001 0.32699 0.0
H1366 H 0.5448 0.69323 0.25717 0.0
H1367 H 0.57373 0.77761 0.29071 0.0
H1368 H 0.55429 0.82619 0.22503 0.0
H1369 H 0.54588 0.79866 0.26119 0.0
H1370 H 0.57323 0.71371 0.22774 0.0
H1371 H 0.57923 0.74109 0.19139 0.0
C1372 C 0.55677 0.6901 0.29292 0.0
C1373 C 0.5668 0.7056 0.31286 0.0
C1374 C 0.55252 0.70603 0.27215 0.0
C1375 C 0.55912 0.73774 0.27064 0.0
C1376 C 0.5679 0.75338 0.29101 0.0
C1377 C 0.57131 0.73755 0.31192 0.0
C1378 C 0.55786 0.80149 0.22542 0.0
C1379 C 0.56753 0.78575 0.20548 0.0
C1380 C 0.55337 0.78569 0.24622 0.0
C1381 C 0.55934 0.75386 0.24776 0.0
C1382 C 0.56786 0.73803 0.22741 0.0
C1383 C 0.57152 0.75375 0.20647 0.0
H1384 H 0.74322 0.57614 0.82691 0.0
H1385 H 0.82886 0.55485 0.79253 0.0
H1386 H 0.71569 0.57027 0.79068 0.0
H1387 H 0.80122 0.54641 0.7564 0.0
H1388 H 0.75122 0.58046 0.69143 0.0
H1389 H 0.77923 0.5743 0.72747 0.0
H1390 H 0.69559 0.54267 0.76085 0.0
H1391 H 0.66734 0.5514 0.72504 0.0
C1392 C 0.75599 0.5692 0.81168 0.0
C1393 C 0.78815 0.56625 0.81244 0.0
C1394 C 0.74019 0.5656 0.79079 0.0
C1395 C 0.7561 0.55815 0.77025 0.0
C1396 C 0.78815 0.5531 0.77154 0.0
C1397 C 0.80403 0.55759 0.79231 0.0
C1398 C 0.73902 0.57176 0.70642 0.0
C1399 C 0.70713 0.56669 0.70556 0.0
C1400 C 0.7551 0.568 0.72718 0.0
C1401 C 0.73978 0.55827 0.74745 0.0
C1402 C 0.70815 0.55114 0.74597 0.0
C1403 C 0.69193 0.55579 0.72537 0.0
H1404 H 0.90495 0.82459 0.28648 0.0
H1405 H 0.9414 0.74944 0.32727 0.0
H1406 H 0.91258 0.79481 0.2515 0.0
H1407 H 0.94976 0.71981 0.29191 0.0
H1408 H 0.90854 0.66433 0.23027 0.0
H1409 H 0.91545 0.69434 0.26521 0.0
H1410 H 0.94795 0.77125 0.2245 0.0
H1411 H 0.9403 0.74134 0.18918 0.0
C1412 C 0.91512 0.8019 0.288 0.0
C1413 C 0.92216 0.78929 0.30981 0.0
C1414 C 0.91977 0.78489 0.26782 0.0
C1415 C 0.93165 0.75483 0.26886 0.0
C1416 C 0.94016 0.74276 0.29054 0.0
C1417 C 0.93549 0.7598 0.31081 0.0
C1418 C 0.91758 0.6875 0.22867 0.0
C1419 C 0.92341 0.70054 0.2068 0.0
C1420 C 0.92181 0.70465 0.24882 0.0
C1421 C 0.93204 0.73531 0.24769 0.0
C1422 C 0.93958 0.74783 0.22594 0.0
C1423 C 0.93534 0.73062 0.20569 0.0
H1424 H 0.44064 0.05392 0.19032 0.0
H1425 H 0.37957 0.98559 0.16104 0.0
H1426 H 0.48108 0.01503 0.19383 0.0
H1427 H 0.42003 0.9473 0.16362 0.0
H1428 H 0.55532 0.94574 0.16919 0.0
H1429 H 0.51567 0.98552 0.1706 0.0
H1430 H 0.44812 0.91686 0.18988 0.0
H1431 H 0.48741 0.8771 0.18743 0.0
C1432 C 0.43589 0.03063 0.18462 0.0
C1433 C 0.40692 0.02276 0.17552 0.0
C1434 C 0.45909 0.0084 0.1865 0.0
C1435 C 0.45381 0.97797 0.1791 0.0
C1436 C 0.42475 0.97027 0.17001 0.0
C1437 C 0.40154 0.99232 0.16839 0.0
C1438 C 0.53202 0.93927 0.17393 0.0
C1439 C 0.52434 0.90832 0.17797 0.0
C1440 C 0.50932 0.96208 0.17485 0.0
C1441 C 0.47859 0.95437 0.18012 0.0
C1442 C 0.47136 0.92353 0.1852 0.0
C1443 C 0.49391 0.90074 0.18395 0.0
H1444 H 0.61279 0.48853 0.68969 0.0
H1445 H 0.54582 0.55748 0.67036 0.0
H1446 H 0.57206 0.45023 0.69236 0.0
H1447 H 0.50508 0.51879 0.67193 0.0
H1448 H 0.43476 0.44513 0.69133 0.0
H1449 H 0.47431 0.48501 0.69499 0.0
H1450 H 0.54165 0.42261 0.66586 0.0
H1451 H 0.50278 0.3828 0.66316 0.0
C1452 C 0.58931 0.49547 0.68601 0.0
C1453 C 0.58248 0.52588 0.67964 0.0
C1454 C 0.56597 0.47349 0.6874 0.0
C1455 C 0.53532 0.48128 0.68201 0.0
C1456 C 0.52835 0.51203 0.67641 0.0
C1457 C 0.5517 0.53417 0.67538 0.0
C1458 C 0.45811 0.44 0.6859 0.0
C1459 C 0.46573 0.41083 0.6771 0.0
C1460 C 0.48072 0.46285 0.68788 0.0
C1461 C 0.51125 0.45699 0.68087 0.0
C1462 C 0.51863 0.42776 0.672 0.0
C1463 C 0.49623 0.40493 0.67028 0.0
H1464 H 0.04277 0.43146 0.17032 0.0
H1465 H 0.10975 0.49961 0.19131 0.0
H1466 H 0.00236 0.47051 0.17143 0.0
H1467 H 0.06932 0.53825 0.19343 0.0
H1468 H 0.93235 0.54501 0.19015 0.0
H1469 H 0.97126 0.50461 0.19427 0.0
H1470 H 0.04013 0.5662 0.16617 0.0
H1471 H 0.00186 0.60651 0.16295 0.0
C1472 C 0.04871 0.45465 0.17562 0.0
C1473 C 0.07943 0.46262 0.18047 0.0
C1474 C 0.02554 0.477 0.17636 0.0
C1475 C 0.03264 0.50764 0.18223 0.0
C1476 C 0.06316 0.51508 0.18825 0.0
C1477 C 0.08632 0.4929 0.18718 0.0
C1478 C 0.95589 0.54986 0.18503 0.0
C1479 C 0.9641 0.57895 0.17638 0.0
C1480 C 0.97813 0.52671 0.18728 0.0
C1481 C 0.0089 0.5322 0.18071 0.0
C1482 C 0.01689 0.56133 0.17196 0.0
C1483 C 0.99483 0.58445 0.16995 0.0
H1484 H 0.93978 0.93814 0.6911 0.0
H1485 H 0.87962 0.00625 0.66057 0.0
H1486 H 0.98035 0.97687 0.69471 0.0
H1487 H 0.92027 0.04442 0.66326 0.0
H1488 H 0.98785 0.11456 0.68734 0.0
H1489 H 0.94815 0.07515 0.68949 0.0
H1490 H 0.01554 0.00572 0.67161 0.0
H1491 H 0.05557 0.04515 0.67049 0.0
C1492 C 0.93527 0.96136 0.68514 0.0
C1493 C 0.90651 0.96921 0.67566 0.0
C1494 C 0.95854 0.9835 0.68708 0.0
C1495 C 0.95359 0.01382 0.67934 0.0
C1496 C 0.92473 0.02153 0.66989 0.0
C1497 C 0.90142 -0.00045 0.66821 0.0
C1498 C 0.99423 0.09082 0.68409 0.0
C1499 C 0.02475 0.08292 0.67862 0.0
C1500 C 0.97143 0.06824 0.68517 0.0
C1501 C 0.97851 0.03727 0.68042 0.0
C1502 C 0.00929 0.02926 0.67561 0.0
C1503 C 0.03223 0.05186 0.67485 0.0
H1504 H 0.55743 0.54861 0.32723 0.0
H1505 H 0.48718 0.60881 0.35494 0.0
H1506 H 0.51932 0.50744 0.3235 0.0
H1507 H 0.44964 0.56765 0.35211 0.0
H1508 H 0.38119 0.4989 0.3281 0.0
H1509 H 0.42052 0.53862 0.32544 0.0
H1510 H 0.48968 0.47279 0.34681 0.0
H1511 H 0.45033 0.43266 0.34845 0.0
C1512 C 0.53388 0.55302 0.33252 0.0
C1513 C 0.52524 0.58196 0.34126 0.0
C1514 C 0.51209 0.52941 0.33051 0.0
C1515 C 0.48136 0.53424 0.3374 0.0
C1516 C 0.47289 0.56327 0.34611 0.0
C1517 C 0.4945 0.58687 0.34789 0.0
C1518 C 0.40486 0.49284 0.33197 0.0
C1519 C 0.41269 0.46278 0.33865 0.0
C1520 C 0.42739 0.51565 0.3306 0.0
C1521 C 0.45821 0.50906 0.33627 0.0
C1522 C 0.46623 0.47864 0.34212 0.0
C1523 C 0.44369 0.45566 0.34317 0.0
H1524 H 0.9902 0.38317 0.8547 0.0
H1525 H 0.05838 0.4453 0.82643 0.0
H1526 H 0.95156 0.42325 0.8523 0.0
H1527 H 0.0191 0.48542 0.82311 0.0
H1528 H 0.88082 0.48984 0.82886 0.0
H1529 H 0.92125 0.45131 0.8259 0.0
H1530 H 0.98878 0.51922 0.84662 0.0
H1531 H 0.9483 0.55817 0.84854 0.0
C1532 C -0.00317 0.4053 0.84762 0.0
C1533 C 0.02732 0.41107 0.84071 0.0
C1534 C 0.97457 0.42829 0.84609 0.0
C1535 C 0.9821 0.45754 0.83731 0.0
C1536 C 0.01259 0.46325 0.83017 0.0
C1537 C 0.03504 0.44025 0.83195 0.0
C1538 C 0.90436 0.4966 0.83254 0.0
C1539 C 0.91142 0.52689 0.83911 0.0
C1540 C 0.92753 0.47448 0.83099 0.0
C1541 C 0.95823 0.48201 0.83638 0.0
C1542 C 0.96545 0.51266 0.84215 0.0
C1543 C 0.94226 0.53496 0.84336 0.0
H1544 H 0.0015 0.87962 0.32775 0.0
H1545 H 0.93404 0.94803 0.34729 0.0
H1546 H 0.04093 0.9193 0.32563 0.0
H1547 H 0.97385 0.98772 0.34618 0.0
H1548 H 0.04925 0.05617 0.32718 0.0
H1549 H 0.00857 0.0176 0.32317 0.0
H1550 H 0.06916 0.94886 0.35254 0.0
H1551 H 0.10986 0.98689 0.35566 0.0
C1552 C 0.99511 0.9032 0.33156 0.0
C1553 C 0.96479 0.91073 0.33784 0.0
C1554 C 0.01775 0.92593 0.3305 0.0
C1555 C 0.0107 0.95666 0.33608 0.0
C1556 C 0.98005 0.96435 0.34157 0.0
C1557 C 0.95725 0.94161 0.34231 0.0
C1558 C 0.05384 0.03273 0.3326 0.0
C1559 C 0.08276 0.0245 0.34162 0.0
C1560 C 0.03052 0.01068 0.33042 0.0
C1561 C 0.0356 0.98007 0.33743 0.0
C1562 C 0.0646 0.972 0.34645 0.0
C1563 C 0.08794 0.99389 0.34839 0.0
H1564 H 0.61023 -0.00167 0.82673 0.0
H1565 H 0.54192 0.93123 0.84722 0.0
H1566 H 0.57035 0.03747 0.8239 0.0
H1567 H 0.50205 0.97077 0.84546 0.0
H1568 H 0.43324 0.04557 0.82591 0.0
H1569 H 0.47187 0.00486 0.82219 0.0
H1570 H 0.54089 0.06613 0.85046 0.0
H1571 H 0.50291 0.10677 0.85325 0.0
C1572 C 0.58663 0.99197 0.83062 0.0
C1573 C 0.57918 0.96185 0.83737 0.0
C1574 C 0.56378 0.01443 0.82913 0.0
C1575 C 0.53304 0.00741 0.8348 0.0
C1576 C 0.52542 0.97693 0.84076 0.0
C1577 C 0.54827 0.9543 0.84189 0.0
C1578 C 0.45676 0.05028 0.83113 0.0
C1579 C 0.4651 0.07936 0.83974 0.0
C1580 C 0.47884 0.02696 0.82912 0.0
C1581 C 0.50956 0.03225 0.83589 0.0
C1582 C 0.51769 0.06141 0.84453 0.0
C1583 C 0.4958 0.08471 0.84628 0.0
loop_
_geom_bond_atom_site_label_1
_geom_bond_atom_site_label_2
_geom_bond_distance
_geom_bond_site_symmetry_2
_ccdc_geom_bond_type
Co0 O2 2.143 . S
Co0 O8 2.074 . S
Co0 O11 2.093 . S
Co0 O24 2.097 . S
Co0 N41 2.151 . S
Co0 N49 2.214 . S
Co1 O2 2.160 . S
Co1 O7 2.058 . S
Co1 O17 2.057 . S
Co1 O32 2.037 . S
Co1 N36 2.145 . S
Co1 N57 2.257 . S
O2 Co0 2.143 . S
O2 Co1 2.160 . S
C3 O4 1.278 . S
C3 O11 1.224 . S
O4 C3 1.278 . S
C5 O6 1.245 . S
C5 O17 1.232 . S
O6 C5 1.245 . S
O7 Co1 2.058 . S
O7 C33 1.269 . S
O8 Co0 2.074 . S
O8 C33 1.257 . S
H9 C34 0.930 . S
H10 C40 0.930 . S
O11 Co0 2.093 . S
O11 C3 1.224 . S
H12 C44 0.929 . S
H13 C46 0.930 . S
H14 C47 0.930 . S
H15 C45 0.929 . S
H16 C48 0.928 . S
O17 Co1 2.057 . S
O17 C5 1.232 . S
H18 C37 0.929 . S
H19 C38 0.929 . S
H20 C50 0.931 . S
H21 C42 0.929 1_565 S
H22 C51 0.930 . S
H23 C43 0.931 . S
O24 Co0 2.097 . S
O24 C52 1.214 . S
H25 C53 0.929 . S
H26 C54 0.929 . S
H27 C55 0.930 . S
H28 C56 0.929 . S
H29 C58 0.930 . S
H30 C35 0.930 . S
H31 C39 0.930 . S
O32 Co1 2.037 . S
O32 C52 1.234 . S
C33 O7 1.269 . S
C33 O8 1.257 . S
C34 H9 0.930 . S
C34 C37 1.388 . S
C34 C39 1.418 . S
C35 H30 0.930 . S
C35 C38 1.404 . S
C35 C39 1.353 . S
N36 Co1 2.145 . S
N36 C37 1.397 . S
N36 C38 1.334 . S
C37 H18 0.929 . S
C37 C34 1.388 . S
C37 N36 1.397 . S
C38 H19 0.929 . S
C38 C35 1.404 . S
C38 N36 1.334 . S
C39 H31 0.930 . S
C39 C34 1.418 . S
C39 C35 1.353 . S
C40 H10 0.930 . S
C40 N41 1.330 . S
C40 C42 1.446 . S
N41 Co0 2.151 . S
N41 C40 1.330 . S
N41 C45 1.418 . S
C42 H21 0.929 1_545 S
C42 C40 1.446 . S
C42 C43 1.332 1_545 S
C43 H23 0.931 . S
C43 C42 1.332 1_565 S
C43 C44 1.267 1_565 S
C44 H12 0.929 . S
C44 C43 1.267 1_545 S
C44 C45 1.251 . S
C45 H15 0.929 . S
C45 N41 1.418 . S
C45 C44 1.251 . S
C46 H13 0.930 . S
C46 C48 1.406 . S
C46 C51 1.261 . S
C47 H14 0.930 . S
C47 N49 1.325 . S
C47 C50 1.357 . S
C48 H16 0.928 . S
C48 C46 1.406 . S
C48 N49 1.261 . S
N49 Co0 2.214 . S
N49 C47 1.325 . S
N49 C48 1.261 . S
C50 H20 0.931 . S
C50 C47 1.357 . S
C50 C51 1.312 . S
C51 H22 0.930 . S
C51 C46 1.261 . S
C51 C50 1.312 . S
C52 O24 1.214 . S
C52 O32 1.234 . S
C53 H25 0.929 . S
C53 C56 1.391 . S
C53 C58 1.391 . S
C54 H26 0.929 . S
C54 C55 1.390 . S
C54 N57 1.391 . S
C55 H27 0.930 . S
C55 C54 1.390 . S
C55 C56 1.392 . S
C56 H28 0.929 . S
C56 C53 1.391 . S
C56 C55 1.392 . S
N57 Co1 2.257 . S
N57 C54 1.391 . S
N57 C58 1.388 . S
C58 H29 0.930 . S
C58 C53 1.391 . S
C58 N57 1.388 . S
Co59 O61 2.143 . S
Co59 O67 2.074 . S
Co59 O70 2.093 . S
Co59 O83 2.097 . S
Co59 N100 2.151 . S
Co59 N108 2.214 . S
Co60 O61 2.160 . S
Co60 O66 2.058 . S
Co60 O76 2.057 . S
Co60 O91 2.037 . S
Co60 N95 2.145 . S
Co60 N116 2.257 . S
O61 Co59 2.143 . S
O61 Co60 2.160 . S
C62 O63 1.278 . S
C62 O70 1.224 . S
O63 C62 1.278 . S
C64 O65 1.245 . S
C64 O76 1.232 . S
O65 C64 1.245 . S
O66 Co60 2.058 . S
O66 C92 1.269 . S
O67 Co59 2.074 . S
O67 C92 1.257 . S
H68 C93 0.930 . S
H69 C99 0.930 . S
O70 Co59 2.093 . S
O70 C62 1.224 . S
H71 C103 0.929 . S
H72 C105 0.930 . S
H73 C106 0.930 . S
H74 C104 0.929 . S
H75 C107 0.928 . S
O76 Co60 2.057 . S
O76 C64 1.232 . S
H77 C96 0.929 . S
H78 C97 0.929 . S
H79 C109 0.931 . S
H80 C101 0.929 . S
H81 C110 0.930 . S
H82 C102 0.931 . S
O83 Co59 2.097 . S
O83 C111 1.214 . S
H84 C112 0.929 . S
H85 C113 0.929 . S
H86 C114 0.930 . S
H87 C115 0.929 . S
H88 C117 0.930 . S
H89 C94 0.930 . S
H90 C98 0.930 . S
O91 Co60 2.037 . S
O91 C111 1.234 . S
C92 O66 1.269 . S
C92 O67 1.257 . S
C93 H68 0.930 . S
C93 C96 1.388 . S
C93 C98 1.418 . S
C94 H89 0.930 . S
C94 C97 1.404 . S
C94 C98 1.353 . S
N95 Co60 2.145 . S
N95 C96 1.397 . S
N95 C97 1.334 . S
C96 H77 0.929 . S
C96 C93 1.388 . S
C96 N95 1.397 . S
C97 H78 0.929 . S
C97 C94 1.404 . S
C97 N95 1.334 . S
C98 H90 0.930 . S
C98 C93 1.418 . S
C98 C94 1.353 . S
C99 H69 0.930 . S
C99 N100 1.330 . S
C99 C101 1.446 . S
N100 Co59 2.151 . S
N100 C99 1.330 . S
N100 C104 1.418 . S
C101 H80 0.929 . S
C101 C99 1.446 . S
C101 C102 1.332 . S
C102 H82 0.931 . S
C102 C101 1.332 . S
C102 C103 1.267 . S
C103 H71 0.929 . S
C103 C102 1.267 . S
C103 C104 1.251 . S
C104 H74 0.929 . S
C104 N100 1.418 . S
C104 C103 1.251 . S
C105 H72 0.930 . S
C105 C107 1.406 . S
C105 C110 1.261 . S
C106 H73 0.930 . S
C106 N108 1.325 . S
C106 C109 1.357 . S
C107 H75 0.928 . S
C107 C105 1.406 . S
C107 N108 1.261 . S
N108 Co59 2.214 . S
N108 C106 1.325 . S
N108 C107 1.261 . S
C109 H79 0.931 . S
C109 C106 1.357 . S
C109 C110 1.312 . S
C110 H81 0.930 . S
C110 C105 1.261 . S
C110 C109 1.312 . S
C111 O83 1.214 . S
C111 O91 1.234 . S
C112 H84 0.929 . S
C112 C115 1.391 . S
C112 C117 1.391 . S
C113 H85 0.929 . S
C113 C114 1.390 . S
C113 N116 1.391 . S
C114 H86 0.930 . S
C114 C113 1.390 . S
C114 C115 1.392 . S
C115 H87 0.929 . S
C115 C112 1.391 . S
C115 C114 1.392 . S
N116 Co60 2.257 . S
N116 C113 1.391 . S
N116 C117 1.388 . S
C117 H88 0.930 . S
C117 C112 1.391 . S
C117 N116 1.388 . S
Co118 O120 2.143 . S
Co118 O126 2.074 . S
Co118 O129 2.093 . S
Co118 O142 2.097 . S
Co118 N159 2.151 . S
Co118 N167 2.214 . S
Co119 O120 2.160 . S
Co119 O125 2.058 . S
Co119 O135 2.057 . S
Co119 O150 2.037 . S
Co119 N154 2.145 . S
Co119 N175 2.257 . S
O120 Co118 2.143 . S
O120 Co119 2.160 . S
C121 O122 1.278 . S
C121 O129 1.224 . S
O122 C121 1.278 . S
C123 O124 1.245 . S
C123 O135 1.232 . S
O124 C123 1.245 . S
O125 Co119 2.058 . S
O125 C151 1.269 . S
O126 Co118 2.074 . S
O126 C151 1.257 . S
H127 C152 0.930 . S
H128 C158 0.930 . S
O129 Co118 2.093 . S
O129 C121 1.224 . S
H130 C162 0.929 . S
H131 C164 0.930 . S
H132 C165 0.930 . S
H133 C163 0.929 . S
H134 C166 0.928 . S
O135 Co119 2.057 . S
O135 C123 1.232 . S
H136 C155 0.929 . S
H137 C156 0.929 . S
H138 C168 0.931 . S
H139 C160 0.929 . S
H140 C169 0.930 . S
H141 C161 0.931 . S
O142 Co118 2.097 . S
O142 C170 1.214 . S
H143 C171 0.929 . S
H144 C172 0.929 . S
H145 C173 0.930 . S
H146 C174 0.929 . S
H147 C176 0.930 . S
H148 C153 0.930 . S
H149 C157 0.930 . S
O150 Co119 2.037 . S
O150 C170 1.234 . S
C151 O125 1.269 . S
C151 O126 1.257 . S
C152 H127 0.930 . S
C152 C155 1.388 . S
C152 C157 1.418 . S
C153 H148 0.930 . S
C153 C156 1.404 . S
C153 C157 1.353 . S
N154 Co119 2.145 . S
N154 C155 1.397 . S
N154 C156 1.334 . S
C155 H136 0.929 . S
C155 C152 1.388 . S
C155 N154 1.397 . S
C156 H137 0.929 . S
C156 C153 1.404 . S
C156 N154 1.334 . S
C157 H149 0.930 . S
C157 C152 1.418 . S
C157 C153 1.353 . S
C158 H128 0.930 . S
C158 N159 1.330 . S
C158 C160 1.446 . S
N159 Co118 2.151 . S
N159 C158 1.330 . S
N159 C163 1.418 . S
C160 H139 0.929 . S
C160 C158 1.446 . S
C160 C161 1.332 . S
C161 H141 0.931 . S
C161 C160 1.332 . S
C161 C162 1.267 . S
C162 H130 0.929 . S
C162 C161 1.267 . S
C162 C163 1.251 . S
C163 H133 0.929 . S
C163 N159 1.418 . S
C163 C162 1.251 . S
C164 H131 0.930 . S
C164 C166 1.406 . S
C164 C169 1.261 . S
C165 H132 0.930 . S
C165 N167 1.325 . S
C165 C168 1.357 . S
C166 H134 0.928 . S
C166 C164 1.406 . S
C166 N167 1.261 . S
N167 Co118 2.214 . S
N167 C165 1.325 . S
N167 C166 1.261 . S
C168 H138 0.931 . S
C168 C165 1.357 . S
C168 C169 1.312 . S
C169 H140 0.930 . S
C169 C164 1.261 . S
C169 C168 1.312 . S
C170 O142 1.214 . S
C170 O150 1.234 . S
C171 H143 0.929 . S
C171 C174 1.391 . S
C171 C176 1.391 . S
C172 H144 0.929 . S
C172 C173 1.390 . S
C172 N175 1.391 . S
C173 H145 0.930 . S
C173 C172 1.390 . S
C173 C174 1.392 . S
C174 H146 0.929 . S
C174 C171 1.391 . S
C174 C173 1.392 . S
N175 Co119 2.257 . S
N175 C172 1.391 . S
N175 C176 1.388 . S
C176 H147 0.930 . S
C176 C171 1.391 . S
C176 N175 1.388 . S
Co177 O179 2.143 . S
Co177 O185 2.074 . S
Co177 O188 2.093 . S
Co177 O201 2.097 . S
Co177 N218 2.151 . S
Co177 N226 2.214 . S
Co178 O179 2.160 . S
Co178 O184 2.058 . S
Co178 O194 2.057 . S
Co178 O209 2.037 . S
Co178 N213 2.145 . S
Co178 N234 2.257 . S
O179 Co177 2.143 . S
O179 Co178 2.160 . S
C180 O181 1.278 . S
C180 O188 1.224 . S
O181 C180 1.278 . S
C182 O183 1.245 . S
C182 O194 1.232 . S
O183 C182 1.245 . S
O184 Co178 2.058 . S
O184 C210 1.269 . S
O185 Co177 2.074 . S
O185 C210 1.257 . S
H186 C211 0.930 . S
H187 C217 0.930 . S
O188 Co177 2.093 . S
O188 C180 1.224 . S
H189 C221 0.929 . S
H190 C223 0.930 . S
H191 C224 0.930 . S
H192 C222 0.929 . S
H193 C225 0.928 . S
O194 Co178 2.057 . S
O194 C182 1.232 . S
H195 C214 0.929 . S
H196 C215 0.929 . S
H197 C227 0.931 . S
H198 C219 0.929 1_655 S
H199 C228 0.930 . S
H200 C220 0.931 . S
O201 Co177 2.097 . S
O201 C229 1.214 . S
H202 C230 0.929 . S
H203 C231 0.929 . S
H204 C232 0.930 . S
H205 C233 0.929 . S
H206 C235 0.930 . S
H207 C212 0.930 . S
H208 C216 0.930 . S
O209 Co178 2.037 . S
O209 C229 1.234 . S
C210 O184 1.269 . S
C210 O185 1.257 . S
C211 H186 0.930 . S
C211 C214 1.388 . S
C211 C216 1.418 . S
C212 H207 0.930 . S
C212 C215 1.404 . S
C212 C216 1.353 . S
N213 Co178 2.145 . S
N213 C214 1.397 . S
N213 C215 1.334 . S
C214 H195 0.929 . S
C214 C211 1.388 . S
C214 N213 1.397 . S
C215 H196 0.929 . S
C215 C212 1.404 . S
C215 N213 1.334 . S
C216 H208 0.930 . S
C216 C211 1.418 . S
C216 C212 1.353 . S
C217 H187 0.930 . S
C217 N218 1.330 . S
C217 C219 1.446 . S
N218 Co177 2.151 . S
N218 C217 1.330 . S
N218 C222 1.418 . S
C219 H198 0.929 1_455 S
C219 C217 1.446 . S
C219 C220 1.332 1_455 S
C220 H200 0.931 . S
C220 C219 1.332 1_655 S
C220 C221 1.267 1_655 S
C221 H189 0.929 . S
C221 C220 1.267 1_455 S
C221 C222 1.251 . S
C222 H192 0.929 . S
C222 N218 1.418 . S
C222 C221 1.251 . S
C223 H190 0.930 . S
C223 C225 1.406 . S
C223 C228 1.261 . S
C224 H191 0.930 . S
C224 N226 1.325 . S
C224 C227 1.357 . S
C225 H193 0.928 . S
C225 C223 1.406 . S
C225 N226 1.261 . S
N226 Co177 2.214 . S
N226 C224 1.325 . S
N226 C225 1.261 . S
C227 H197 0.931 . S
C227 C224 1.357 . S
C227 C228 1.312 . S
C228 H199 0.930 . S
C228 C223 1.261 . S
C228 C227 1.312 . S
C229 O201 1.214 . S
C229 O209 1.234 . S
C230 H202 0.929 . S
C230 C233 1.391 . S
C230 C235 1.391 . S
C231 H203 0.929 . S
C231 C232 1.390 . S
C231 N234 1.391 . S
C232 H204 0.930 . S
C232 C231 1.390 . S
C232 C233 1.392 . S
C233 H205 0.929 . S
C233 C230 1.391 . S
C233 C232 1.392 . S
N234 Co178 2.257 . S
N234 C231 1.391 . S
N234 C235 1.388 . S
C235 H206 0.930 . S
C235 C230 1.391 . S
C235 N234 1.388 . S
Co236 O238 2.143 . S
Co236 O244 2.074 . S
Co236 O247 2.093 . S
Co236 O260 2.097 . S
Co236 N277 2.151 . S
Co236 N285 2.214 . S
Co237 O238 2.160 . S
Co237 O243 2.058 . S
Co237 O253 2.057 . S
Co237 O268 2.037 . S
Co237 N272 2.145 . S
Co237 N293 2.257 . S
O238 Co236 2.143 . S
O238 Co237 2.160 . S
C239 O240 1.278 . S
C239 O247 1.224 . S
O240 C239 1.278 . S
C241 O242 1.245 . S
C241 O253 1.232 . S
O242 C241 1.245 . S
O243 Co237 2.058 . S
O243 C269 1.269 . S
O244 Co236 2.074 . S
O244 C269 1.257 . S
H245 C270 0.930 . S
H246 C276 0.930 . S
O247 Co236 2.093 . S
O247 C239 1.224 . S
H248 C280 0.929 . S
H249 C282 0.930 . S
H250 C283 0.930 . S
H251 C281 0.929 . S
H252 C284 0.928 . S
O253 Co237 2.057 . S
O253 C241 1.232 . S
H254 C273 0.929 . S
H255 C274 0.929 . S
H256 C286 0.931 . S
H257 C278 0.929 . S
H258 C287 0.930 . S
H259 C279 0.931 . S
O260 Co236 2.097 . S
O260 C288 1.214 . S
H261 C289 0.929 . S
H262 C290 0.929 . S
H263 C291 0.930 . S
H264 C292 0.929 . S
H265 C294 0.930 . S
H266 C271 0.930 . S
H267 C275 0.930 . S
O268 Co237 2.037 . S
O268 C288 1.234 . S
C269 O243 1.269 . S
C269 O244 1.257 . S
C270 H245 0.930 . S
C270 C273 1.388 . S
C270 C275 1.418 . S
C271 H266 0.930 . S
C271 C274 1.404 . S
C271 C275 1.353 . S
N272 Co237 2.145 . S
N272 C273 1.397 . S
N272 C274 1.334 . S
C273 H254 0.929 . S
C273 C270 1.388 . S
C273 N272 1.397 . S
C274 H255 0.929 . S
C274 C271 1.404 . S
C274 N272 1.334 . S
C275 H267 0.930 . S
C275 C270 1.418 . S
C275 C271 1.353 . S
C276 H246 0.930 . S
C276 N277 1.330 . S
C276 C278 1.446 . S
N277 Co236 2.151 . S
N277 C276 1.330 . S
N277 C281 1.418 . S
C278 H257 0.929 . S
C278 C276 1.446 . S
C278 C279 1.332 . S
C279 H259 0.931 . S
C279 C278 1.332 . S
C279 C280 1.267 . S
C280 H248 0.929 . S
C280 C279 1.267 . S
C280 C281 1.251 . S
C281 H251 0.929 . S
C281 N277 1.418 . S
C281 C280 1.251 . S
C282 H249 0.930 . S
C282 C284 1.406 . S
C282 C287 1.261 . S
C283 H250 0.930 . S
C283 N285 1.325 . S
C283 C286 1.357 . S
C284 H252 0.928 . S
C284 C282 1.406 . S
C284 N285 1.261 . S
N285 Co236 2.214 . S
N285 C283 1.325 . S
N285 C284 1.261 . S
C286 H256 0.931 . S
C286 C283 1.357 . S
C286 C287 1.312 . S
C287 H258 0.930 . S
C287 C282 1.261 . S
C287 C286 1.312 . S
C288 O260 1.214 . S
C288 O268 1.234 . S
C289 H261 0.929 . S
C289 C292 1.391 . S
C289 C294 1.391 . S
C290 H262 0.929 . S
C290 C291 1.390 . S
C290 N293 1.391 . S
C291 H263 0.930 . S
C291 C290 1.390 . S
C291 C292 1.392 . S
C292 H264 0.929 . S
C292 C289 1.391 . S
C292 C291 1.392 . S
N293 Co237 2.257 . S
N293 C290 1.391 . S
N293 C294 1.388 . S
C294 H265 0.930 . S
C294 C289 1.391 . S
C294 N293 1.388 . S
Co295 O297 2.143 . S
Co295 O303 2.074 . S
Co295 O306 2.093 . S
Co295 O319 2.097 . S
Co295 N336 2.151 . S
Co295 N344 2.214 . S
Co296 O297 2.160 . S
Co296 O302 2.058 . S
Co296 O312 2.057 . S
Co296 O327 2.037 . S
Co296 N331 2.145 . S
Co296 N352 2.257 . S
O297 Co295 2.143 . S
O297 Co296 2.160 . S
C298 O299 1.278 . S
C298 O306 1.224 . S
O299 C298 1.278 . S
C300 O301 1.245 . S
C300 O312 1.232 . S
O301 C300 1.245 . S
O302 Co296 2.058 . S
O302 C328 1.269 . S
O303 Co295 2.074 . S
O303 C328 1.257 . S
H304 C329 0.930 . S
H305 C335 0.930 . S
O306 Co295 2.093 . S
O306 C298 1.224 . S
H307 C339 0.929 . S
H308 C341 0.930 . S
H309 C342 0.930 . S
H310 C340 0.929 . S
H311 C343 0.928 . S
O312 Co296 2.057 . S
O312 C300 1.232 . S
H313 C332 0.929 . S
H314 C333 0.929 . S
H315 C345 0.931 . S
H316 C337 0.929 1_655 S
H317 C346 0.930 . S
H318 C338 0.931 . S
O319 Co295 2.097 . S
O319 C347 1.214 . S
H320 C348 0.929 . S
H321 C349 0.929 . S
H322 C350 0.930 . S
H323 C351 0.929 . S
H324 C353 0.930 . S
H325 C330 0.930 . S
H326 C334 0.930 . S
O327 Co296 2.037 . S
O327 C347 1.234 . S
C328 O302 1.269 . S
C328 O303 1.257 . S
C329 H304 0.930 . S
C329 C332 1.388 . S
C329 C334 1.418 . S
C330 H325 0.930 . S
C330 C333 1.404 . S
C330 C334 1.353 . S
N331 Co296 2.145 . S
N331 C332 1.397 . S
N331 C333 1.334 . S
C332 H313 0.929 . S
C332 C329 1.388 . S
C332 N331 1.397 . S
C333 H314 0.929 . S
C333 C330 1.404 . S
C333 N331 1.334 . S
C334 H326 0.930 . S
C334 C329 1.418 . S
C334 C330 1.353 . S
C335 H305 0.930 . S
C335 N336 1.330 . S
C335 C337 1.446 . S
N336 Co295 2.151 . S
N336 C335 1.330 . S
N336 C340 1.418 . S
C337 H316 0.929 1_455 S
C337 C335 1.446 . S
C337 C338 1.332 1_455 S
C338 H318 0.931 . S
C338 C337 1.332 1_655 S
C338 C339 1.267 1_655 S
C339 H307 0.929 . S
C339 C338 1.267 1_455 S
C339 C340 1.251 . S
C340 H310 0.929 . S
C340 N336 1.418 . S
C340 C339 1.251 . S
C341 H308 0.930 . S
C341 C343 1.406 . S
C341 C346 1.261 . S
C342 H309 0.930 . S
C342 N344 1.325 . S
C342 C345 1.357 . S
C343 H311 0.928 . S
C343 C341 1.406 . S
C343 N344 1.261 . S
N344 Co295 2.214 . S
N344 C342 1.325 . S
N344 C343 1.261 . S
C345 H315 0.931 . S
C345 C342 1.357 . S
C345 C346 1.312 . S
C346 H317 0.930 . S
C346 C341 1.261 . S
C346 C345 1.312 . S
C347 O319 1.214 . S
C347 O327 1.234 . S
C348 H320 0.929 . S
C348 C351 1.391 . S
C348 C353 1.391 . S
C349 H321 0.929 . S
C349 C350 1.390 . S
C349 N352 1.391 . S
C350 H322 0.930 . S
C350 C349 1.390 . S
C350 C351 1.392 . S
C351 H323 0.929 . S
C351 C348 1.391 . S
C351 C350 1.392 . S
N352 Co296 2.257 . S
N352 C349 1.391 . S
N352 C353 1.388 . S
C353 H324 0.930 . S
C353 C348 1.391 . S
C353 N352 1.388 . S
Co354 O356 2.143 . S
Co354 O362 2.074 . S
Co354 O365 2.093 . S
Co354 O378 2.097 . S
Co354 N395 2.151 . S
Co354 N403 2.214 . S
Co355 O356 2.160 . S
Co355 O361 2.058 . S
Co355 O371 2.057 . S
Co355 O386 2.037 . S
Co355 N390 2.145 . S
Co355 N411 2.257 . S
O356 Co354 2.143 . S
O356 Co355 2.160 . S
C357 O358 1.278 . S
C357 O365 1.224 . S
O358 C357 1.278 . S
C359 O360 1.245 . S
C359 O371 1.232 . S
O360 C359 1.245 . S
O361 Co355 2.058 . S
O361 C387 1.269 . S
O362 Co354 2.074 . S
O362 C387 1.257 . S
H363 C388 0.930 . S
H364 C394 0.930 . S
O365 Co354 2.093 . S
O365 C357 1.224 . S
H366 C398 0.929 . S
H367 C400 0.930 . S
H368 C401 0.930 . S
H369 C399 0.929 . S
H370 C402 0.928 . S
O371 Co355 2.057 . S
O371 C359 1.232 . S
H372 C391 0.929 . S
H373 C392 0.929 . S
H374 C404 0.931 . S
H375 C396 0.929 1_565 S
H376 C405 0.930 . S
H377 C397 0.931 . S
O378 Co354 2.097 . S
O378 C406 1.214 . S
H379 C407 0.929 . S
H380 C408 0.929 . S
H381 C409 0.930 . S
H382 C410 0.929 . S
H383 C412 0.930 . S
H384 C389 0.930 . S
H385 C393 0.930 . S
O386 Co355 2.037 . S
O386 C406 1.234 . S
C387 O361 1.269 . S
C387 O362 1.257 . S
C388 H363 0.930 . S
C388 C391 1.388 . S
C388 C393 1.418 . S
C389 H384 0.930 . S
C389 C392 1.404 . S
C389 C393 1.353 . S
N390 Co355 2.145 . S
N390 C391 1.397 . S
N390 C392 1.334 . S
C391 H372 0.929 . S
C391 C388 1.388 . S
C391 N390 1.397 . S
C392 H373 0.929 . S
C392 C389 1.404 . S
C392 N390 1.334 . S
C393 H385 0.930 . S
C393 C388 1.418 . S
C393 C389 1.353 . S
C394 H364 0.930 . S
C394 N395 1.330 . S
C394 C396 1.446 . S
N395 Co354 2.151 . S
N395 C394 1.330 . S
N395 C399 1.418 . S
C396 H375 0.929 1_545 S
C396 C394 1.446 . S
C396 C397 1.332 1_545 S
C397 H377 0.931 . S
C397 C396 1.332 1_565 S
C397 C398 1.267 1_565 S
C398 H366 0.929 . S
C398 C397 1.267 1_545 S
C398 C399 1.251 . S
C399 H369 0.929 . S
C399 N395 1.418 . S
C399 C398 1.251 . S
C400 H367 0.930 . S
C400 C402 1.406 . S
C400 C405 1.261 . S
C401 H368 0.930 . S
C401 N403 1.325 . S
C401 C404 1.357 . S
C402 H370 0.928 . S
C402 C400 1.406 . S
C402 N403 1.261 . S
N403 Co354 2.214 . S
N403 C401 1.325 . S
N403 C402 1.261 . S
C404 H374 0.931 . S
C404 C401 1.357 . S
C404 C405 1.312 . S
C405 H376 0.930 . S
C405 C400 1.261 . S
C405 C404 1.312 . S
C406 O378 1.214 . S
C406 O386 1.234 . S
C407 H379 0.929 . S
C407 C410 1.391 . S
C407 C412 1.391 . S
C408 H380 0.929 . S
C408 C409 1.390 . S
C408 N411 1.391 . S
C409 H381 0.930 . S
C409 C408 1.390 . S
C409 C410 1.392 . S
C410 H382 0.929 . S
C410 C407 1.391 . S
C410 C409 1.392 . S
N411 Co355 2.257 . S
N411 C408 1.391 . S
N411 C412 1.388 . S
C412 H383 0.930 . S
C412 C407 1.391 . S
C412 N411 1.388 . S
Co413 O415 2.143 . S
Co413 O421 2.074 . S
Co413 O424 2.093 . S
Co413 O437 2.097 . S
Co413 N454 2.151 . S
Co413 N462 2.214 . S
Co414 O415 2.160 . S
Co414 O420 2.058 . S
Co414 O430 2.057 . S
Co414 O445 2.037 . S
Co414 N449 2.145 . S
Co414 N470 2.257 . S
O415 Co413 2.143 . S
O415 Co414 2.160 . S
C416 O417 1.278 . S
C416 O424 1.224 . S
O417 C416 1.278 . S
C418 O419 1.245 . S
C418 O430 1.232 . S
O419 C418 1.245 . S
O420 Co414 2.058 . S
O420 C446 1.269 . S
O421 Co413 2.074 . S
O421 C446 1.257 . S
H422 C447 0.930 . S
H423 C453 0.930 . S
O424 Co413 2.093 . S
O424 C416 1.224 . S
H425 C457 0.929 . S
H426 C459 0.930 . S
H427 C460 0.930 . S
H428 C458 0.929 . S
H429 C461 0.928 . S
O430 Co414 2.057 . S
O430 C418 1.232 . S
H431 C450 0.929 . S
H432 C451 0.929 . S
H433 C463 0.931 . S
H434 C455 0.929 . S
H435 C464 0.930 . S
H436 C456 0.931 . S
O437 Co413 2.097 . S
O437 C465 1.214 . S
H438 C466 0.929 . S
H439 C467 0.929 . S
H440 C468 0.930 . S
H441 C469 0.929 . S
H442 C471 0.930 . S
H443 C448 0.930 . S
H444 C452 0.930 . S
O445 Co414 2.037 . S
O445 C465 1.234 . S
C446 O420 1.269 . S
C446 O421 1.257 . S
C447 H422 0.930 . S
C447 C450 1.388 . S
C447 C452 1.418 . S
C448 H443 0.930 . S
C448 C451 1.404 . S
C448 C452 1.353 . S
N449 Co414 2.145 . S
N449 C450 1.397 . S
N449 C451 1.334 . S
C450 H431 0.929 . S
C450 C447 1.388 . S
C450 N449 1.397 . S
C451 H432 0.929 . S
C451 C448 1.404 . S
C451 N449 1.334 . S
C452 H444 0.930 . S
C452 C447 1.418 . S
C452 C448 1.353 . S
C453 H423 0.930 . S
C453 N454 1.330 . S
C453 C455 1.446 . S
N454 Co413 2.151 . S
N454 C453 1.330 . S
N454 C458 1.418 . S
C455 H434 0.929 . S
C455 C453 1.446 . S
C455 C456 1.332 . S
C456 H436 0.931 . S
C456 C455 1.332 . S
C456 C457 1.267 . S
C457 H425 0.929 . S
C457 C456 1.267 . S
C457 C458 1.251 . S
C458 H428 0.929 . S
C458 N454 1.418 . S
C458 C457 1.251 . S
C459 H426 0.930 . S
C459 C461 1.406 . S
C459 C464 1.261 . S
C460 H427 0.930 . S
C460 N462 1.325 . S
C460 C463 1.357 . S
C461 H429 0.928 . S
C461 C459 1.406 . S
C461 N462 1.261 . S
N462 Co413 2.214 . S
N462 C460 1.325 . S
N462 C461 1.261 . S
C463 H433 0.931 . S
C463 C460 1.357 . S
C463 C464 1.312 . S
C464 H435 0.930 . S
C464 C459 1.261 . S
C464 C463 1.312 . S
C465 O437 1.214 . S
C465 O445 1.234 . S
C466 H438 0.929 . S
C466 C469 1.391 . S
C466 C471 1.391 . S
C467 H439 0.929 . S
C467 C468 1.390 . S
C467 N470 1.391 . S
C468 H440 0.930 . S
C468 C467 1.390 . S
C468 C469 1.392 . S
C469 H441 0.929 . S
C469 C466 1.391 . S
C469 C468 1.392 . S
N470 Co414 2.257 . S
N470 C467 1.391 . S
N470 C471 1.388 . S
C471 H442 0.930 . S
C471 C466 1.391 . S
C471 N470 1.388 . S
Co472 O474 2.143 . S
Co472 O480 2.074 . S
Co472 O483 2.093 . S
Co472 O496 2.097 . S
Co472 N513 2.151 . S
Co472 N521 2.214 . S
Co473 O474 2.160 . S
Co473 O479 2.058 . S
Co473 O489 2.057 . S
Co473 O504 2.037 . S
Co473 N508 2.145 . S
Co473 N529 2.257 . S
O474 Co472 2.143 . S
O474 Co473 2.160 . S
C475 O476 1.278 . S
C475 O483 1.224 . S
O476 C475 1.278 . S
C477 O478 1.245 . S
C477 O489 1.232 . S
O478 C477 1.245 . S
O479 Co473 2.058 . S
O479 C505 1.269 . S
O480 Co472 2.074 . S
O480 C505 1.257 . S
H481 C506 0.930 . S
H482 C512 0.930 . S
O483 Co472 2.093 . S
O483 C475 1.224 . S
H484 C516 0.929 . S
H485 C518 0.930 . S
H486 C519 0.930 . S
H487 C517 0.929 . S
H488 C520 0.928 . S
O489 Co473 2.057 . S
O489 C477 1.232 . S
H490 C509 0.929 . S
H491 C510 0.929 . S
H492 C522 0.931 . S
H493 C514 0.929 1_545 S
H494 C523 0.930 . S
H495 C515 0.931 . S
O496 Co472 2.097 . S
O496 C524 1.214 . S
H497 C525 0.929 . S
H498 C526 0.929 . S
H499 C527 0.930 . S
H500 C528 0.929 . S
H501 C530 0.930 . S
H502 C507 0.930 . S
H503 C511 0.930 . S
O504 Co473 2.037 . S
O504 C524 1.234 . S
C505 O479 1.269 . S
C505 O480 1.257 . S
C506 H481 0.930 . S
C506 C509 1.388 . S
C506 C511 1.418 . S
C507 H502 0.930 . S
C507 C510 1.404 . S
C507 C511 1.353 . S
N508 Co473 2.145 . S
N508 C509 1.397 . S
N508 C510 1.334 . S
C509 H490 0.929 . S
C509 C506 1.388 . S
C509 N508 1.397 . S
C510 H491 0.929 . S
C510 C507 1.404 . S
C510 N508 1.334 . S
C511 H503 0.930 . S
C511 C506 1.418 . S
C511 C507 1.353 . S
C512 H482 0.930 . S
C512 N513 1.330 . S
C512 C514 1.446 . S
N513 Co472 2.151 . S
N513 C512 1.330 . S
N513 C517 1.418 . S
C514 H493 0.929 1_565 S
C514 C512 1.446 . S
C514 C515 1.332 1_565 S
C515 H495 0.931 . S
C515 C514 1.332 1_545 S
C515 C516 1.267 1_545 S
C516 H484 0.929 . S
C516 C515 1.267 1_565 S
C516 C517 1.251 . S
C517 H487 0.929 . S
C517 N513 1.418 . S
C517 C516 1.251 . S
C518 H485 0.930 . S
C518 C520 1.406 . S
C518 C523 1.261 . S
C519 H486 0.930 . S
C519 N521 1.325 . S
C519 C522 1.357 . S
C520 H488 0.928 . S
C520 C518 1.406 . S
C520 N521 1.261 . S
N521 Co472 2.214 . S
N521 C519 1.325 . S
N521 C520 1.261 . S
C522 H492 0.931 . S
C522 C519 1.357 . S
C522 C523 1.312 . S
C523 H494 0.930 . S
C523 C518 1.261 . S
C523 C522 1.312 . S
C524 O496 1.214 . S
C524 O504 1.234 . S
C525 H497 0.929 . S
C525 C528 1.391 . S
C525 C530 1.391 . S
C526 H498 0.929 . S
C526 C527 1.390 . S
C526 N529 1.391 . S
C527 H499 0.930 . S
C527 C526 1.390 . S
C527 C528 1.392 . S
C528 H500 0.929 . S
C528 C525 1.391 . S
C528 C527 1.392 . S
N529 Co473 2.257 . S
N529 C526 1.391 . S
N529 C530 1.388 . S
C530 H501 0.930 . S
C530 C525 1.391 . S
C530 N529 1.388 . S
Co531 O533 2.143 . S
Co531 O539 2.074 . S
Co531 O542 2.093 . S
Co531 O555 2.097 . S
Co531 N572 2.151 . S
Co531 N580 2.214 . S
Co532 O533 2.160 . S
Co532 O538 2.058 . S
Co532 O548 2.057 . S
Co532 O563 2.037 . S
Co532 N567 2.145 . S
Co532 N588 2.257 . S
O533 Co531 2.143 . S
O533 Co532 2.160 . S
C534 O535 1.278 . S
C534 O542 1.224 . S
O535 C534 1.278 . S
C536 O537 1.245 . S
C536 O548 1.232 . S
O537 C536 1.245 . S
O538 Co532 2.058 . S
O538 C564 1.269 . S
O539 Co531 2.074 . S
O539 C564 1.257 . S
H540 C565 0.930 . S
H541 C571 0.930 . S
O542 Co531 2.093 . S
O542 C534 1.224 . S
H543 C575 0.929 . S
H544 C577 0.930 . S
H545 C578 0.930 . S
H546 C576 0.929 . S
H547 C579 0.928 . S
O548 Co532 2.057 . S
O548 C536 1.232 . S
H549 C568 0.929 . S
H550 C569 0.929 . S
H551 C581 0.931 . S
H552 C573 0.929 . S
H553 C582 0.930 . S
H554 C574 0.931 . S
O555 Co531 2.097 . S
O555 C583 1.214 . S
H556 C584 0.929 . S
H557 C585 0.929 . S
H558 C586 0.930 . S
H559 C587 0.929 . S
H560 C589 0.930 . S
H561 C566 0.930 . S
H562 C570 0.930 . S
O563 Co532 2.037 . S
O563 C583 1.234 . S
C564 O538 1.269 . S
C564 O539 1.257 . S
C565 H540 0.930 . S
C565 C568 1.388 . S
C565 C570 1.418 . S
C566 H561 0.930 . S
C566 C569 1.404 . S
C566 C570 1.353 . S
N567 Co532 2.145 . S
N567 C568 1.397 . S
N567 C569 1.334 . S
C568 H549 0.929 . S
C568 C565 1.388 . S
C568 N567 1.397 . S
C569 H550 0.929 . S
C569 C566 1.404 . S
C569 N567 1.334 . S
C570 H562 0.930 . S
C570 C565 1.418 . S
C570 C566 1.353 . S
C571 H541 0.930 . S
C571 N572 1.330 . S
C571 C573 1.446 . S
N572 Co531 2.151 . S
N572 C571 1.330 . S
N572 C576 1.418 . S
C573 H552 0.929 . S
C573 C571 1.446 . S
C573 C574 1.332 . S
C574 H554 0.931 . S
C574 C573 1.332 . S
C574 C575 1.267 . S
C575 H543 0.929 . S
C575 C574 1.267 . S
C575 C576 1.251 . S
C576 H546 0.929 . S
C576 N572 1.418 . S
C576 C575 1.251 . S
C577 H544 0.930 . S
C577 C579 1.406 . S
C577 C582 1.261 . S
C578 H545 0.930 . S
C578 N580 1.325 . S
C578 C581 1.357 . S
C579 H547 0.928 . S
C579 C577 1.406 . S
C579 N580 1.261 . S
N580 Co531 2.214 . S
N580 C578 1.325 . S
N580 C579 1.261 . S
C581 H551 0.931 . S
C581 C578 1.357 . S
C581 C582 1.312 . S
C582 H553 0.930 . S
C582 C577 1.261 . S
C582 C581 1.312 . S
C583 O555 1.214 . S
C583 O563 1.234 . S
C584 H556 0.929 . S
C584 C587 1.391 . S
C584 C589 1.391 . S
C585 H557 0.929 . S
C585 C586 1.390 . S
C585 N588 1.391 . S
C586 H558 0.930 . S
C586 C585 1.390 . S
C586 C587 1.392 . S
C587 H559 0.929 . S
C587 C584 1.391 . S
C587 C586 1.392 . S
N588 Co532 2.257 . S
N588 C585 1.391 . S
N588 C589 1.388 . S
C589 H560 0.930 . S
C589 C584 1.391 . S
C589 N588 1.388 . S
Co590 O592 2.143 . S
Co590 O598 2.074 . S
Co590 O601 2.093 . S
Co590 O614 2.097 . S
Co590 N631 2.151 . S
Co590 N639 2.214 . S
Co591 O592 2.160 . S
Co591 O597 2.058 . S
Co591 O607 2.057 . S
Co591 O622 2.037 . S
Co591 N626 2.145 . S
Co591 N647 2.257 . S
O592 Co590 2.143 . S
O592 Co591 2.160 . S
C593 O594 1.278 . S
C593 O601 1.224 . S
O594 C593 1.278 . S
C595 O596 1.245 . S
C595 O607 1.232 . S
O596 C595 1.245 . S
O597 Co591 2.058 . S
O597 C623 1.269 . S
O598 Co590 2.074 . S
O598 C623 1.257 . S
H599 C624 0.930 . S
H600 C630 0.930 . S
O601 Co590 2.093 . S
O601 C593 1.224 . S
H602 C634 0.929 . S
H603 C636 0.930 . S
H604 C637 0.930 . S
H605 C635 0.929 . S
H606 C638 0.928 . S
O607 Co591 2.057 . S
O607 C595 1.232 . S
H608 C627 0.929 . S
H609 C628 0.929 . S
H610 C640 0.931 . S
H611 C632 0.929 . S
H612 C641 0.930 . S
H613 C633 0.931 . S
O614 Co590 2.097 . S
O614 C642 1.214 . S
H615 C643 0.929 . S
H616 C644 0.929 . S
H617 C645 0.930 . S
H618 C646 0.929 . S
H619 C648 0.930 . S
H620 C625 0.930 . S
H621 C629 0.930 . S
O622 Co591 2.037 . S
O622 C642 1.234 . S
C623 O597 1.269 . S
C623 O598 1.257 . S
C624 H599 0.930 . S
C624 C627 1.388 . S
C624 C629 1.418 . S
C625 H620 0.930 . S
C625 C628 1.404 . S
C625 C629 1.353 . S
N626 Co591 2.145 . S
N626 C627 1.397 . S
N626 C628 1.334 . S
C627 H608 0.929 . S
C627 C624 1.388 . S
C627 N626 1.397 . S
C628 H609 0.929 . S
C628 C625 1.404 . S
C628 N626 1.334 . S
C629 H621 0.930 . S
C629 C624 1.418 . S
C629 C625 1.353 . S
C630 H600 0.930 . S
C630 N631 1.330 . S
C630 C632 1.446 . S
N631 Co590 2.151 . S
N631 C630 1.330 . S
N631 C635 1.418 . S
C632 H611 0.929 . S
C632 C630 1.446 . S
C632 C633 1.332 . S
C633 H613 0.931 . S
C633 C632 1.332 . S
C633 C634 1.267 . S
C634 H602 0.929 . S
C634 C633 1.267 . S
C634 C635 1.251 . S
C635 H605 0.929 . S
C635 N631 1.418 . S
C635 C634 1.251 . S
C636 H603 0.930 . S
C636 C638 1.406 . S
C636 C641 1.261 . S
C637 H604 0.930 . S
C637 N639 1.325 . S
C637 C640 1.357 . S
C638 H606 0.928 . S
C638 C636 1.406 . S
C638 N639 1.261 . S
N639 Co590 2.214 . S
N639 C637 1.325 . S
N639 C638 1.261 . S
C640 H610 0.931 . S
C640 C637 1.357 . S
C640 C641 1.312 . S
C641 H612 0.930 . S
C641 C636 1.261 . S
C641 C640 1.312 . S
C642 O614 1.214 . S
C642 O622 1.234 . S
C643 H615 0.929 . S
C643 C646 1.391 . S
C643 C648 1.391 . S
C644 H616 0.929 . S
C644 C645 1.390 . S
C644 N647 1.391 . S
C645 H617 0.930 . S
C645 C644 1.390 . S
C645 C646 1.392 . S
C646 H618 0.929 . S
C646 C643 1.391 . S
C646 C645 1.392 . S
N647 Co591 2.257 . S
N647 C644 1.391 . S
N647 C648 1.388 . S
C648 H619 0.930 . S
C648 C643 1.391 . S
C648 N647 1.388 . S
Co649 O651 2.143 . S
Co649 O657 2.074 . S
Co649 O660 2.093 . S
Co649 O673 2.097 . S
Co649 N690 2.151 . S
Co649 N698 2.214 . S
Co650 O651 2.160 . S
Co650 O656 2.058 . S
Co650 O666 2.057 . S
Co650 O681 2.037 . S
Co650 N685 2.145 . S
Co650 N706 2.257 . S
O651 Co649 2.143 . S
O651 Co650 2.160 . S
C652 O653 1.278 . S
C652 O660 1.224 . S
O653 C652 1.278 . S
C654 O655 1.245 . S
C654 O666 1.232 . S
O655 C654 1.245 . S
O656 Co650 2.058 . S
O656 C682 1.269 . S
O657 Co649 2.074 . S
O657 C682 1.257 . S
H658 C683 0.930 . S
H659 C689 0.930 . S
O660 Co649 2.093 . S
O660 C652 1.224 . S
H661 C693 0.929 . S
H662 C695 0.930 . S
H663 C696 0.930 . S
H664 C694 0.929 . S
H665 C697 0.928 . S
O666 Co650 2.057 . S
O666 C654 1.232 . S
H667 C686 0.929 . S
H668 C687 0.929 . S
H669 C699 0.931 . S
H670 C691 0.929 1_455 S
H671 C700 0.930 . S
H672 C692 0.931 . S
O673 Co649 2.097 . S
O673 C701 1.214 . S
H674 C702 0.929 . S
H675 C703 0.929 . S
H676 C704 0.930 . S
H677 C705 0.929 . S
H678 C707 0.930 . S
H679 C684 0.930 . S
H680 C688 0.930 . S
O681 Co650 2.037 . S
O681 C701 1.234 . S
C682 O656 1.269 . S
C682 O657 1.257 . S
C683 H658 0.930 . S
C683 C686 1.388 . S
C683 C688 1.418 . S
C684 H679 0.930 . S
C684 C687 1.404 . S
C684 C688 1.353 . S
N685 Co650 2.145 . S
N685 C686 1.397 . S
N685 C687 1.334 . S
C686 H667 0.929 . S
C686 C683 1.388 . S
C686 N685 1.397 . S
C687 H668 0.929 . S
C687 C684 1.404 . S
C687 N685 1.334 . S
C688 H680 0.930 . S
C688 C683 1.418 . S
C688 C684 1.353 . S
C689 H659 0.930 . S
C689 N690 1.330 . S
C689 C691 1.446 . S
N690 Co649 2.151 . S
N690 C689 1.330 . S
N690 C694 1.418 . S
C691 H670 0.929 1_655 S
C691 C689 1.446 . S
C691 C692 1.332 1_655 S
C692 H672 0.931 . S
C692 C691 1.332 1_455 S
C692 C693 1.267 1_455 S
C693 H661 0.929 . S
C693 C692 1.267 1_655 S
C693 C694 1.251 . S
C694 H664 0.929 . S
C694 N690 1.418 . S
C694 C693 1.251 . S
C695 H662 0.930 . S
C695 C697 1.406 . S
C695 C700 1.261 . S
C696 H663 0.930 . S
C696 N698 1.325 . S
C696 C699 1.357 . S
C697 H665 0.928 . S
C697 C695 1.406 . S
C697 N698 1.261 . S
N698 Co649 2.214 . S
N698 C696 1.325 . S
N698 C697 1.261 . S
C699 H669 0.931 . S
C699 C696 1.357 . S
C699 C700 1.312 . S
C700 H671 0.930 . S
C700 C695 1.261 . S
C700 C699 1.312 . S
C701 O673 1.214 . S
C701 O681 1.234 . S
C702 H674 0.929 . S
C702 C705 1.391 . S
C702 C707 1.391 . S
C703 H675 0.929 . S
C703 C704 1.390 . S
C703 N706 1.391 . S
C704 H676 0.930 . S
C704 C703 1.390 . S
C704 C705 1.392 . S
C705 H677 0.929 . S
C705 C702 1.391 . S
C705 C704 1.392 . S
N706 Co650 2.257 . S
N706 C703 1.391 . S
N706 C707 1.388 . S
C707 H678 0.930 . S
C707 C702 1.391 . S
C707 N706 1.388 . S
Co708 O710 2.143 . S
Co708 O716 2.074 . S
Co708 O719 2.093 . S
Co708 O732 2.097 . S
Co708 N749 2.151 . S
Co708 N757 2.214 . S
Co709 O710 2.160 . S
Co709 O715 2.058 . S
Co709 O725 2.057 . S
Co709 O740 2.037 . S
Co709 N744 2.145 . S
Co709 N765 2.257 . S
O710 Co708 2.143 . S
O710 Co709 2.160 . S
C711 O712 1.278 . S
C711 O719 1.224 . S
O712 C711 1.278 . S
C713 O714 1.245 . S
C713 O725 1.232 . S
O714 C713 1.245 . S
O715 Co709 2.058 . S
O715 C741 1.269 . S
O716 Co708 2.074 . S
O716 C741 1.257 . S
H717 C742 0.930 . S
H718 C748 0.930 . S
O719 Co708 2.093 . S
O719 C711 1.224 . S
H720 C752 0.929 . S
H721 C754 0.930 . S
H722 C755 0.930 . S
H723 C753 0.929 . S
H724 C756 0.928 . S
O725 Co709 2.057 . S
O725 C713 1.232 . S
H726 C745 0.929 . S
H727 C746 0.929 . S
H728 C758 0.931 . S
H729 C750 0.929 . S
H730 C759 0.930 . S
H731 C751 0.931 . S
O732 Co708 2.097 . S
O732 C760 1.214 . S
H733 C761 0.929 . S
H734 C762 0.929 . S
H735 C763 0.930 . S
H736 C764 0.929 . S
H737 C766 0.930 . S
H738 C743 0.930 . S
H739 C747 0.930 . S
O740 Co709 2.037 . S
O740 C760 1.234 . S
C741 O715 1.269 . S
C741 O716 1.257 . S
C742 H717 0.930 . S
C742 C745 1.388 . S
C742 C747 1.418 . S
C743 H738 0.930 . S
C743 C746 1.404 . S
C743 C747 1.353 . S
N744 Co709 2.145 . S
N744 C745 1.397 . S
N744 C746 1.334 . S
C745 H726 0.929 . S
C745 C742 1.388 . S
C745 N744 1.397 . S
C746 H727 0.929 . S
C746 C743 1.404 . S
C746 N744 1.334 . S
C747 H739 0.930 . S
C747 C742 1.418 . S
C747 C743 1.353 . S
C748 H718 0.930 . S
C748 N749 1.330 . S
C748 C750 1.446 . S
N749 Co708 2.151 . S
N749 C748 1.330 . S
N749 C753 1.418 . S
C750 H729 0.929 . S
C750 C748 1.446 . S
C750 C751 1.332 . S
C751 H731 0.931 . S
C751 C750 1.332 . S
C751 C752 1.267 . S
C752 H720 0.929 . S
C752 C751 1.267 . S
C752 C753 1.251 . S
C753 H723 0.929 . S
C753 N749 1.418 . S
C753 C752 1.251 . S
C754 H721 0.930 . S
C754 C756 1.406 . S
C754 C759 1.261 . S
C755 H722 0.930 . S
C755 N757 1.325 . S
C755 C758 1.357 . S
C756 H724 0.928 . S
C756 C754 1.406 . S
C756 N757 1.261 . S
N757 Co708 2.214 . S
N757 C755 1.325 . S
N757 C756 1.261 . S
C758 H728 0.931 . S
C758 C755 1.357 . S
C758 C759 1.312 . S
C759 H730 0.930 . S
C759 C754 1.261 . S
C759 C758 1.312 . S
C760 O732 1.214 . S
C760 O740 1.234 . S
C761 H733 0.929 . S
C761 C764 1.391 . S
C761 C766 1.391 . S
C762 H734 0.929 . S
C762 C763 1.390 . S
C762 N765 1.391 . S
C763 H735 0.930 . S
C763 C762 1.390 . S
C763 C764 1.392 . S
C764 H736 0.929 . S
C764 C761 1.391 . S
C764 C763 1.392 . S
N765 Co709 2.257 . S
N765 C762 1.391 . S
N765 C766 1.388 . S
C766 H737 0.930 . S
C766 C761 1.391 . S
C766 N765 1.388 . S
Co767 O769 2.143 . S
Co767 O775 2.074 . S
Co767 O778 2.093 . S
Co767 O791 2.097 . S
Co767 N808 2.151 . S
Co767 N816 2.214 . S
Co768 O769 2.160 . S
Co768 O774 2.058 . S
Co768 O784 2.057 . S
Co768 O799 2.037 . S
Co768 N803 2.145 . S
Co768 N824 2.257 . S
O769 Co767 2.143 . S
O769 Co768 2.160 . S
C770 O771 1.278 . S
C770 O778 1.224 . S
O771 C770 1.278 . S
C772 O773 1.245 . S
C772 O784 1.232 . S
O773 C772 1.245 . S
O774 Co768 2.058 . S
O774 C800 1.269 . S
O775 Co767 2.074 . S
O775 C800 1.257 . S
H776 C801 0.930 . S
H777 C807 0.930 . S
O778 Co767 2.093 . S
O778 C770 1.224 . S
H779 C811 0.929 . S
H780 C813 0.930 . S
H781 C814 0.930 . S
H782 C812 0.929 . S
H783 C815 0.928 . S
O784 Co768 2.057 . S
O784 C772 1.232 . S
H785 C804 0.929 . S
H786 C805 0.929 . S
H787 C817 0.931 . S
H788 C809 0.929 1_455 S
H789 C818 0.930 . S
H790 C810 0.931 . S
O791 Co767 2.097 . S
O791 C819 1.214 . S
H792 C820 0.929 . S
H793 C821 0.929 . S
H794 C822 0.930 . S
H795 C823 0.929 . S
H796 C825 0.930 . S
H797 C802 0.930 . S
H798 C806 0.930 . S
O799 Co768 2.037 . S
O799 C819 1.234 . S
C800 O774 1.269 . S
C800 O775 1.257 . S
C801 H776 0.930 . S
C801 C804 1.388 . S
C801 C806 1.418 . S
C802 H797 0.930 . S
C802 C805 1.404 . S
C802 C806 1.353 . S
N803 Co768 2.145 . S
N803 C804 1.397 . S
N803 C805 1.334 . S
C804 H785 0.929 . S
C804 C801 1.388 . S
C804 N803 1.397 . S
C805 H786 0.929 . S
C805 C802 1.404 . S
C805 N803 1.334 . S
C806 H798 0.930 . S
C806 C801 1.418 . S
C806 C802 1.353 . S
C807 H777 0.930 . S
C807 N808 1.330 . S
C807 C809 1.446 . S
N808 Co767 2.151 . S
N808 C807 1.330 . S
N808 C812 1.418 . S
C809 H788 0.929 1_655 S
C809 C807 1.446 . S
C809 C810 1.332 1_655 S
C810 H790 0.931 . S
C810 C809 1.332 1_455 S
C810 C811 1.267 1_455 S
C811 H779 0.929 . S
C811 C810 1.267 1_655 S
C811 C812 1.251 . S
C812 H782 0.929 . S
C812 N808 1.418 . S
C812 C811 1.251 . S
C813 H780 0.930 . S
C813 C815 1.406 . S
C813 C818 1.261 . S
C814 H781 0.930 . S
C814 N816 1.325 . S
C814 C817 1.357 . S
C815 H783 0.928 . S
C815 C813 1.406 . S
C815 N816 1.261 . S
N816 Co767 2.214 . S
N816 C814 1.325 . S
N816 C815 1.261 . S
C817 H787 0.931 . S
C817 C814 1.357 . S
C817 C818 1.312 . S
C818 H789 0.930 . S
C818 C813 1.261 . S
C818 C817 1.312 . S
C819 O791 1.214 . S
C819 O799 1.234 . S
C820 H792 0.929 . S
C820 C823 1.391 . S
C820 C825 1.391 . S
C821 H793 0.929 . S
C821 C822 1.390 . S
C821 N824 1.391 . S
C822 H794 0.930 . S
C822 C821 1.390 . S
C822 C823 1.392 . S
C823 H795 0.929 . S
C823 C820 1.391 . S
C823 C822 1.392 . S
N824 Co768 2.257 . S
N824 C821 1.391 . S
N824 C825 1.388 . S
C825 H796 0.930 . S
C825 C820 1.391 . S
C825 N824 1.388 . S
Co826 O828 2.143 . S
Co826 O834 2.074 . S
Co826 O837 2.093 . S
Co826 O850 2.097 . S
Co826 N867 2.151 . S
Co826 N875 2.214 . S
Co827 O828 2.160 . S
Co827 O833 2.058 . S
Co827 O843 2.057 . S
Co827 O858 2.037 . S
Co827 N862 2.145 . S
Co827 N883 2.257 . S
O828 Co826 2.143 . S
O828 Co827 2.160 . S
C829 O830 1.278 . S
C829 O837 1.224 . S
O830 C829 1.278 . S
C831 O832 1.245 . S
C831 O843 1.232 . S
O832 C831 1.245 . S
O833 Co827 2.058 . S
O833 C859 1.269 . S
O834 Co826 2.074 . S
O834 C859 1.257 . S
H835 C860 0.930 . S
H836 C866 0.930 . S
O837 Co826 2.093 . S
O837 C829 1.224 . S
H838 C870 0.929 . S
H839 C872 0.930 . S
H840 C873 0.930 . S
H841 C871 0.929 . S
H842 C874 0.928 . S
O843 Co827 2.057 . S
O843 C831 1.232 . S
H844 C863 0.929 . S
H845 C864 0.929 . S
H846 C876 0.931 . S
H847 C868 0.929 1_545 S
H848 C877 0.930 . S
H849 C869 0.931 . S
O850 Co826 2.097 . S
O850 C878 1.214 . S
H851 C879 0.929 . S
H852 C880 0.929 . S
H853 C881 0.930 . S
H854 C882 0.929 . S
H855 C884 0.930 . S
H856 C861 0.930 . S
H857 C865 0.930 . S
O858 Co827 2.037 . S
O858 C878 1.234 . S
C859 O833 1.269 . S
C859 O834 1.257 . S
C860 H835 0.930 . S
C860 C863 1.388 . S
C860 C865 1.418 . S
C861 H856 0.930 . S
C861 C864 1.404 . S
C861 C865 1.353 . S
N862 Co827 2.145 . S
N862 C863 1.397 . S
N862 C864 1.334 . S
C863 H844 0.929 . S
C863 C860 1.388 . S
C863 N862 1.397 . S
C864 H845 0.929 . S
C864 C861 1.404 . S
C864 N862 1.334 . S
C865 H857 0.930 . S
C865 C860 1.418 . S
C865 C861 1.353 . S
C866 H836 0.930 . S
C866 N867 1.330 . S
C866 C868 1.446 . S
N867 Co826 2.151 . S
N867 C866 1.330 . S
N867 C871 1.418 . S
C868 H847 0.929 1_565 S
C868 C866 1.446 . S
C868 C869 1.332 1_565 S
C869 H849 0.931 . S
C869 C868 1.332 1_545 S
C869 C870 1.267 1_545 S
C870 H838 0.929 . S
C870 C869 1.267 1_565 S
C870 C871 1.251 . S
C871 H841 0.929 . S
C871 N867 1.418 . S
C871 C870 1.251 . S
C872 H839 0.930 . S
C872 C874 1.406 . S
C872 C877 1.261 . S
C873 H840 0.930 . S
C873 N875 1.325 . S
C873 C876 1.357 . S
C874 H842 0.928 . S
C874 C872 1.406 . S
C874 N875 1.261 . S
N875 Co826 2.214 . S
N875 C873 1.325 . S
N875 C874 1.261 . S
C876 H846 0.931 . S
C876 C873 1.357 . S
C876 C877 1.312 . S
C877 H848 0.930 . S
C877 C872 1.261 . S
C877 C876 1.312 . S
C878 O850 1.214 . S
C878 O858 1.234 . S
C879 H851 0.929 . S
C879 C882 1.391 . S
C879 C884 1.391 . S
C880 H852 0.929 . S
C880 C881 1.390 . S
C880 N883 1.391 . S
C881 H853 0.930 . S
C881 C880 1.390 . S
C881 C882 1.392 . S
C882 H854 0.929 . S
C882 C879 1.391 . S
C882 C881 1.392 . S
N883 Co827 2.257 . S
N883 C880 1.391 . S
N883 C884 1.388 . S
C884 H855 0.930 . S
C884 C879 1.391 . S
C884 N883 1.388 . S
Co885 O887 2.143 . S
Co885 O893 2.074 . S
Co885 O896 2.093 . S
Co885 O909 2.097 . S
Co885 N926 2.151 . S
Co885 N934 2.214 . S
Co886 O887 2.160 . S
Co886 O892 2.058 . S
Co886 O902 2.057 . S
Co886 O917 2.037 . S
Co886 N921 2.145 . S
Co886 N942 2.257 . S
O887 Co885 2.143 . S
O887 Co886 2.160 . S
C888 O889 1.278 . S
C888 O896 1.224 . S
O889 C888 1.278 . S
C890 O891 1.245 . S
C890 O902 1.232 . S
O891 C890 1.245 . S
O892 Co886 2.058 . S
O892 C918 1.269 . S
O893 Co885 2.074 . S
O893 C918 1.257 . S
H894 C919 0.930 . S
H895 C925 0.930 . S
O896 Co885 2.093 . S
O896 C888 1.224 . S
H897 C929 0.929 . S
H898 C931 0.930 . S
H899 C932 0.930 . S
H900 C930 0.929 . S
H901 C933 0.928 . S
O902 Co886 2.057 . S
O902 C890 1.232 . S
H903 C922 0.929 . S
H904 C923 0.929 . S
H905 C935 0.931 . S
H906 C927 0.929 . S
H907 C936 0.930 . S
H908 C928 0.931 . S
O909 Co885 2.097 . S
O909 C937 1.214 . S
H910 C938 0.929 . S
H911 C939 0.929 . S
H912 C940 0.930 . S
H913 C941 0.929 . S
H914 C943 0.930 . S
H915 C920 0.930 . S
H916 C924 0.930 . S
O917 Co886 2.037 . S
O917 C937 1.234 . S
C918 O892 1.269 . S
C918 O893 1.257 . S
C919 H894 0.930 . S
C919 C922 1.388 . S
C919 C924 1.418 . S
C920 H915 0.930 . S
C920 C923 1.404 . S
C920 C924 1.353 . S
N921 Co886 2.145 . S
N921 C922 1.397 . S
N921 C923 1.334 . S
C922 H903 0.929 . S
C922 C919 1.388 . S
C922 N921 1.397 . S
C923 H904 0.929 . S
C923 C920 1.404 . S
C923 N921 1.334 . S
C924 H916 0.930 . S
C924 C919 1.418 . S
C924 C920 1.353 . S
C925 H895 0.930 . S
C925 N926 1.330 . S
C925 C927 1.446 . S
N926 Co885 2.151 . S
N926 C925 1.330 . S
N926 C930 1.418 . S
C927 H906 0.929 . S
C927 C925 1.446 . S
C927 C928 1.332 . S
C928 H908 0.931 . S
C928 C927 1.332 . S
C928 C929 1.267 . S
C929 H897 0.929 . S
C929 C928 1.267 . S
C929 C930 1.251 . S
C930 H900 0.929 . S
C930 N926 1.418 . S
C930 C929 1.251 . S
C931 H898 0.930 . S
C931 C933 1.406 . S
C931 C936 1.261 . S
C932 H899 0.930 . S
C932 N934 1.325 . S
C932 C935 1.357 . S
C933 H901 0.928 . S
C933 C931 1.406 . S
C933 N934 1.261 . S
N934 Co885 2.214 . S
N934 C932 1.325 . S
N934 C933 1.261 . S
C935 H905 0.931 . S
C935 C932 1.357 . S
C935 C936 1.312 . S
C936 H907 0.930 . S
C936 C931 1.261 . S
C936 C935 1.312 . S
C937 O909 1.214 . S
C937 O917 1.234 . S
C938 H910 0.929 . S
C938 C941 1.391 . S
C938 C943 1.391 . S
C939 H911 0.929 . S
C939 C940 1.390 . S
C939 N942 1.391 . S
C940 H912 0.930 . S
C940 C939 1.390 . S
C940 C941 1.392 . S
C941 H913 0.929 . S
C941 C938 1.391 . S
C941 C940 1.392 . S
N942 Co886 2.257 . S
N942 C939 1.391 . S
N942 C943 1.388 . S
C943 H914 0.930 . S
C943 C938 1.391 . S
C943 N942 1.388 . S
H944 C952 0.950 . S
H945 C957 0.950 . S
H946 C954 0.950 1_554 S
H947 C956 0.950 . S
H948 C958 0.950 . S
H949 C960 0.950 1_556 S
H950 C962 0.950 . S
H951 C963 0.950 . S
C952 H944 0.950 . S
C952 C953 1.386 . S
C952 C954 1.391 . S
C953 C952 1.386 . S
C953 C957 1.393 . S
C954 H946 0.950 1_556 S
C954 C952 1.391 . S
C954 C955 1.400 . S
C955 C954 1.400 . S
C955 C956 1.398 . S
C955 C961 1.491 1_556 S
C956 H947 0.950 . S
C956 C955 1.398 . S
C956 C957 1.391 . S
C957 H945 0.950 . S
C957 C953 1.393 . S
C957 C956 1.391 . S
C958 H948 0.950 . S
C958 C959 1.386 . S
C958 C960 1.391 . S
C959 C958 1.386 . S
C959 C963 1.393 . S
C960 H949 0.950 1_554 S
C960 C958 1.391 . S
C960 C961 1.400 . S
C961 C955 1.491 1_554 S
C961 C960 1.400 . S
C961 C962 1.398 . S
C962 H950 0.950 . S
C962 C961 1.398 . S
C962 C963 1.391 . S
C963 H951 0.950 . S
C963 C959 1.393 . S
C963 C962 1.391 . S
H964 C972 0.950 . S
H965 C977 0.950 . S
H966 C974 0.950 . S
H967 C976 0.950 . S
H968 C978 0.950 . S
H969 C980 0.950 . S
H970 C982 0.950 . S
H971 C983 0.950 . S
C972 H964 0.950 . S
C972 C973 1.386 . S
C972 C974 1.391 . S
C973 C972 1.386 . S
C973 C977 1.393 . S
C974 H966 0.950 . S
C974 C972 1.391 . S
C974 C975 1.400 . S
C975 C974 1.400 . S
C975 C976 1.398 . S
C975 C981 1.491 . S
C976 H967 0.950 . S
C976 C975 1.398 . S
C976 C977 1.391 . S
C977 H965 0.950 . S
C977 C973 1.393 . S
C977 C976 1.391 . S
C978 H968 0.950 . S
C978 C979 1.386 . S
C978 C980 1.391 . S
C979 C978 1.386 . S
C979 C983 1.393 . S
C980 H969 0.950 . S
C980 C978 1.391 . S
C980 C981 1.400 . S
C981 C975 1.491 . S
C981 C980 1.400 . S
C981 C982 1.398 . S
C982 H970 0.950 . S
C982 C981 1.398 . S
C982 C983 1.391 . S
C983 H971 0.950 . S
C983 C979 1.393 . S
C983 C982 1.391 . S
H984 C992 0.950 . S
H985 C997 0.950 . S
H986 C994 0.950 1_554 S
H987 C996 0.950 . S
H988 C998 0.950 . S
H989 C1000 0.950 1_556 S
H990 C1002 0.950 . S
H991 C1003 0.950 . S
C992 H984 0.950 . S
C992 C993 1.386 . S
C992 C994 1.391 . S
C993 C992 1.386 . S
C993 C997 1.393 . S
C994 H986 0.950 1_556 S
C994 C992 1.391 . S
C994 C995 1.400 . S
C995 C994 1.400 . S
C995 C996 1.398 . S
C995 C1001 1.491 1_556 S
C996 H987 0.950 . S
C996 C995 1.398 . S
C996 C997 1.391 . S
C997 H985 0.950 . S
C997 C993 1.393 . S
C997 C996 1.391 . S
C998 H988 0.950 . S
C998 C999 1.386 . S
C998 C1000 1.391 . S
C999 C998 1.386 . S
C999 C1003 1.393 . S
C1000 H989 0.950 1_554 S
C1000 C998 1.391 . S
C1000 C1001 1.400 . S
C1001 C995 1.491 1_554 S
C1001 C1000 1.400 . S
C1001 C1002 1.398 . S
C1002 H990 0.950 . S
C1002 C1001 1.398 . S
C1002 C1003 1.391 . S
C1003 H991 0.950 . S
C1003 C999 1.393 . S
C1003 C1002 1.391 . S
H1004 C1012 0.950 . S
H1005 C1017 0.950 . S
H1006 C1014 0.950 . S
H1007 C1016 0.950 . S
H1008 C1018 0.950 . S
H1009 C1020 0.950 . S
H1010 C1022 0.950 . S
H1011 C1023 0.950 . S
C1012 H1004 0.950 . S
C1012 C1013 1.386 . S
C1012 C1014 1.391 . S
C1013 C1012 1.386 . S
C1013 C1017 1.393 . S
C1014 H1006 0.950 . S
C1014 C1012 1.391 . S
C1014 C1015 1.400 . S
C1015 C1014 1.400 . S
C1015 C1016 1.398 . S
C1015 C1021 1.491 . S
C1016 H1007 0.950 . S
C1016 C1015 1.398 . S
C1016 C1017 1.391 . S
C1017 H1005 0.950 . S
C1017 C1013 1.393 . S
C1017 C1016 1.391 . S
C1018 H1008 0.950 . S
C1018 C1019 1.386 . S
C1018 C1020 1.391 . S
C1019 C1018 1.386 . S
C1019 C1023 1.393 . S
C1020 H1009 0.950 . S
C1020 C1018 1.391 . S
C1020 C1021 1.400 . S
C1021 C1015 1.491 . S
C1021 C1020 1.400 . S
C1021 C1022 1.398 . S
C1022 H1010 0.950 . S
C1022 C1021 1.398 . S
C1022 C1023 1.391 . S
C1023 H1011 0.950 . S
C1023 C1019 1.393 . S
C1023 C1022 1.391 . S
H1024 C1032 0.950 . S
H1025 C1037 0.950 . S
H1026 C1034 0.950 . S
H1027 C1036 0.942 1_556 S
H1028 C1038 0.950 . S
H1029 C1040 0.950 . S
H1030 C1042 0.942 1_554 S
H1031 C1043 0.950 . S
C1032 H1024 0.950 . S
C1032 C1033 1.386 . S
C1032 C1034 1.391 . S
C1033 C1032 1.386 . S
C1033 C1037 1.393 . S
C1034 H1026 0.950 . S
C1034 C1032 1.391 . S
C1034 C1035 1.400 . S
C1035 C1034 1.400 . S
C1035 C1036 1.398 . S
C1035 C1041 1.491 1_554 S
C1036 H1027 0.942 1_554 S
C1036 C1035 1.398 . S
C1036 C1037 1.391 . S
C1037 H1025 0.950 . S
C1037 C1033 1.393 . S
C1037 C1036 1.391 . S
C1038 H1028 0.950 . S
C1038 C1039 1.386 . S
C1038 C1040 1.391 . S
C1039 C1038 1.386 . S
C1039 C1043 1.393 . S
C1040 H1029 0.950 . S
C1040 C1038 1.391 . S
C1040 C1041 1.400 . S
C1041 C1035 1.491 1_556 S
C1041 C1040 1.400 . S
C1041 C1042 1.398 . S
C1042 H1030 0.942 1_556 S
C1042 C1041 1.398 . S
C1042 C1043 1.391 . S
C1043 H1031 0.950 . S
C1043 C1039 1.393 . S
C1043 C1042 1.391 . S
H1044 C1052 0.950 . S
H1045 C1057 0.950 . S
H1046 C1054 0.950 . S
H1047 C1056 0.950 . S
H1048 C1058 0.950 . S
H1049 C1060 0.950 . S
H1050 C1062 0.950 . S
H1051 C1063 0.950 . S
C1052 H1044 0.950 . S
C1052 C1053 1.386 . S
C1052 C1054 1.391 . S
C1053 C1052 1.386 . S
C1053 C1057 1.393 . S
C1054 H1046 0.950 . S
C1054 C1052 1.391 . S
C1054 C1055 1.400 . S
C1055 C1054 1.400 . S
C1055 C1056 1.398 . S
C1055 C1061 1.491 . S
C1056 H1047 0.950 . S
C1056 C1055 1.398 . S
C1056 C1057 1.391 . S
C1057 H1045 0.950 . S
C1057 C1053 1.393 . S
C1057 C1056 1.391 . S
C1058 H1048 0.950 . S
C1058 C1059 1.386 . S
C1058 C1060 1.391 . S
C1059 C1058 1.386 . S
C1059 C1063 1.393 . S
C1060 H1049 0.950 . S
C1060 C1058 1.391 . S
C1060 C1061 1.400 . S
C1061 C1055 1.491 . S
C1061 C1060 1.400 . S
C1061 C1062 1.398 . S
C1062 H1050 0.950 . S
C1062 C1061 1.398 . S
C1062 C1063 1.391 . S
C1063 H1051 0.950 . S
C1063 C1059 1.393 . S
C1063 C1062 1.391 . S
H1064 C1072 0.950 . S
H1065 C1077 0.950 . S
H1066 C1074 0.950 . S
H1067 C1076 0.950 . S
H1068 C1078 0.950 . S
H1069 C1080 0.950 . S
H1070 C1082 0.950 . S
H1071 C1083 0.950 . S
C1072 H1064 0.950 . S
C1072 C1073 1.386 . S
C1072 C1074 1.391 . S
C1073 C1072 1.386 . S
C1073 C1077 1.393 . S
C1074 H1066 0.950 . S
C1074 C1072 1.391 . S
C1074 C1075 1.400 . S
C1075 C1074 1.400 . S
C1075 C1076 1.398 . S
C1075 C1081 1.491 1_556 S
C1076 H1067 0.950 . S
C1076 C1075 1.398 . S
C1076 C1077 1.391 . S
C1077 H1065 0.950 . S
C1077 C1073 1.393 . S
C1077 C1076 1.391 . S
C1078 H1068 0.950 . S
C1078 C1079 1.386 . S
C1078 C1080 1.391 . S
C1079 C1078 1.386 . S
C1079 C1083 1.393 . S
C1080 H1069 0.950 . S
C1080 C1078 1.391 . S
C1080 C1081 1.400 . S
C1081 C1075 1.491 1_554 S
C1081 C1080 1.400 . S
C1081 C1082 1.398 . S
C1082 H1070 0.950 . S
C1082 C1081 1.398 . S
C1082 C1083 1.391 . S
C1083 H1071 0.950 . S
C1083 C1079 1.393 . S
C1083 C1082 1.391 . S
H1084 C1092 0.950 . S
H1085 C1097 0.950 . S
H1086 C1094 0.950 . S
H1087 C1096 0.950 . S
H1088 C1098 0.950 . S
H1089 C1100 0.950 . S
H1090 C1102 0.950 . S
H1091 C1103 0.950 . S
C1092 H1084 0.950 . S
C1092 C1093 1.386 . S
C1092 C1094 1.391 . S
C1093 C1092 1.386 . S
C1093 C1097 1.393 . S
C1094 H1086 0.950 . S
C1094 C1092 1.391 . S
C1094 C1095 1.400 . S
C1095 C1094 1.400 . S
C1095 C1096 1.398 . S
C1095 C1101 1.491 . S
C1096 H1087 0.950 . S
C1096 C1095 1.398 . S
C1096 C1097 1.391 . S
C1097 H1085 0.950 . S
C1097 C1093 1.393 . S
C1097 C1096 1.391 . S
C1098 H1088 0.950 . S
C1098 C1099 1.386 . S
C1098 C1100 1.391 . S
C1099 C1098 1.386 . S
C1099 C1103 1.393 . S
C1100 H1089 0.950 . S
C1100 C1098 1.391 . S
C1100 C1101 1.400 . S
C1101 C1095 1.491 . S
C1101 C1100 1.400 . S
C1101 C1102 1.398 . S
C1102 H1090 0.950 . S
C1102 C1101 1.398 . S
C1102 C1103 1.391 . S
C1103 H1091 0.950 . S
C1103 C1099 1.393 . S
C1103 C1102 1.391 . S
H1104 C1112 0.950 . S
H1105 C1117 0.950 . S
H1106 C1114 0.950 . S
H1107 C1116 0.950 . S
H1108 C1118 0.950 . S
H1109 C1120 0.950 . S
H1110 C1122 0.950 . S
H1111 C1123 0.950 . S
C1112 H1104 0.950 . S
C1112 C1113 1.386 . S
C1112 C1114 1.391 . S
C1113 C1112 1.386 . S
C1113 C1117 1.393 . S
C1114 H1106 0.950 . S
C1114 C1112 1.391 . S
C1114 C1115 1.400 . S
C1115 C1114 1.400 . S
C1115 C1116 1.398 . S
C1115 C1121 1.491 . S
C1116 H1107 0.950 . S
C1116 C1115 1.398 . S
C1116 C1117 1.391 . S
C1117 H1105 0.950 . S
C1117 C1113 1.393 . S
C1117 C1116 1.391 . S
C1118 H1108 0.950 . S
C1118 C1119 1.386 . S
C1118 C1120 1.391 . S
C1119 C1118 1.386 . S
C1119 C1123 1.393 . S
C1120 H1109 0.950 . S
C1120 C1118 1.391 . S
C1120 C1121 1.400 . S
C1121 C1115 1.491 . S
C1121 C1120 1.400 . S
C1121 C1122 1.398 . S
C1122 H1110 0.950 . S
C1122 C1121 1.398 . S
C1122 C1123 1.391 . S
C1123 H1111 0.950 . S
C1123 C1119 1.393 . S
C1123 C1122 1.391 . S
H1124 C1132 0.950 . S
H1125 C1137 0.950 . S
H1126 C1134 0.950 . S
H1127 C1136 0.950 . S
H1128 C1138 0.950 . S
H1129 C1140 0.950 . S
H1130 C1142 0.950 . S
H1131 C1143 0.950 . S
C1132 H1124 0.950 . S
C1132 C1133 1.386 . S
C1132 C1134 1.391 . S
C1133 C1132 1.386 . S
C1133 C1137 1.393 . S
C1134 H1126 0.950 . S
C1134 C1132 1.391 . S
C1134 C1135 1.400 . S
C1135 C1134 1.400 . S
C1135 C1136 1.398 . S
C1135 C1141 1.491 . S
C1136 H1127 0.950 . S
C1136 C1135 1.398 . S
C1136 C1137 1.391 . S
C1137 H1125 0.950 . S
C1137 C1133 1.393 . S
C1137 C1136 1.391 . S
C1138 H1128 0.950 . S
C1138 C1139 1.386 . S
C1138 C1140 1.391 . S
C1139 C1138 1.386 . S
C1139 C1143 1.393 . S
C1140 H1129 0.950 . S
C1140 C1138 1.391 . S
C1140 C1141 1.400 . S
C1141 C1135 1.491 . S
C1141 C1140 1.400 . S
C1141 C1142 1.398 . S
C1142 H1130 0.950 . S
C1142 C1141 1.398 . S
C1142 C1143 1.391 . S
C1143 H1131 0.950 . S
C1143 C1139 1.393 . S
C1143 C1142 1.391 . S
H1144 C1152 0.950 . S
H1145 C1157 0.950 . S
H1146 C1154 0.950 . S
H1147 C1156 0.950 . S
H1148 C1158 0.950 . S
H1149 C1160 0.950 . S
H1150 C1162 0.950 . S
H1151 C1163 0.950 . S
C1152 H1144 0.950 . S
C1152 C1153 1.386 . S
C1152 C1154 1.391 . S
C1153 C1152 1.386 . S
C1153 C1157 1.393 . S
C1154 H1146 0.950 . S
C1154 C1152 1.391 . S
C1154 C1155 1.400 . S
C1155 C1154 1.400 . S
C1155 C1156 1.398 . S
C1155 C1161 1.491 . S
C1156 H1147 0.950 . S
C1156 C1155 1.398 . S
C1156 C1157 1.391 . S
C1157 H1145 0.950 . S
C1157 C1153 1.393 . S
C1157 C1156 1.391 . S
C1158 H1148 0.950 . S
C1158 C1159 1.386 . S
C1158 C1160 1.391 . S
C1159 C1158 1.386 . S
C1159 C1163 1.393 . S
C1160 H1149 0.950 . S
C1160 C1158 1.391 . S
C1160 C1161 1.400 . S
C1161 C1155 1.491 . S
C1161 C1160 1.400 . S
C1161 C1162 1.398 . S
C1162 H1150 0.950 . S
C1162 C1161 1.398 . S
C1162 C1163 1.391 . S
C1163 H1151 0.950 . S
C1163 C1159 1.393 . S
C1163 C1162 1.391 . S
H1164 C1172 0.950 . S
H1165 C1177 0.950 . S
H1166 C1174 0.950 . S
H1167 C1176 0.950 . S
H1168 C1178 0.950 . S
H1169 C1180 0.950 . S
H1170 C1182 0.950 . S
H1171 C1183 0.950 . S
C1172 H1164 0.950 . S
C1172 C1173 1.386 . S
C1172 C1174 1.391 . S
C1173 C1172 1.386 . S
C1173 C1177 1.393 . S
C1174 H1166 0.950 . S
C1174 C1172 1.391 . S
C1174 C1175 1.400 . S
C1175 C1174 1.400 . S
C1175 C1176 1.398 . S
C1175 C1181 1.491 . S
C1176 H1167 0.950 . S
C1176 C1175 1.398 . S
C1176 C1177 1.391 . S
C1177 H1165 0.950 . S
C1177 C1173 1.393 . S
C1177 C1176 1.391 . S
C1178 H1168 0.950 . S
C1178 C1179 1.386 . S
C1178 C1180 1.391 . S
C1179 C1178 1.386 . S
C1179 C1183 1.393 . S
C1180 H1169 0.950 . S
C1180 C1178 1.391 . S
C1180 C1181 1.400 . S
C1181 C1175 1.491 . S
C1181 C1180 1.400 . S
C1181 C1182 1.398 . S
C1182 H1170 0.950 . S
C1182 C1181 1.398 . S
C1182 C1183 1.391 . S
C1183 H1171 0.950 . S
C1183 C1179 1.393 . S
C1183 C1182 1.391 . S
H1184 C1192 0.950 . S
H1185 C1197 0.950 . S
H1186 C1194 0.950 . S
H1187 C1196 0.950 . S
H1188 C1198 0.950 . S
H1189 C1200 0.950 . S
H1190 C1202 0.950 . S
H1191 C1203 0.950 . S
C1192 H1184 0.950 . S
C1192 C1193 1.386 . S
C1192 C1194 1.391 . S
C1193 C1192 1.386 . S
C1193 C1197 1.393 . S
C1194 H1186 0.950 . S
C1194 C1192 1.391 . S
C1194 C1195 1.400 . S
C1195 C1194 1.400 . S
C1195 C1196 1.398 . S
C1195 C1201 1.491 . S
C1196 H1187 0.950 . S
C1196 C1195 1.398 . S
C1196 C1197 1.391 . S
C1197 H1185 0.950 . S
C1197 C1193 1.393 . S
C1197 C1196 1.391 . S
C1198 H1188 0.950 . S
C1198 C1199 1.386 . S
C1198 C1200 1.391 . S
C1199 C1198 1.386 . S
C1199 C1203 1.393 . S
C1200 H1189 0.950 . S
C1200 C1198 1.391 . S
C1200 C1201 1.400 . S
C1201 C1195 1.491 . S
C1201 C1200 1.400 . S
C1201 C1202 1.398 . S
C1202 H1190 0.950 . S
C1202 C1201 1.398 . S
C1202 C1203 1.391 . S
C1203 H1191 0.950 . S
C1203 C1199 1.393 . S
C1203 C1202 1.391 . S
H1204 C1212 0.950 . S
H1205 C1217 0.950 . S
H1206 C1214 0.950 . S
H1207 C1216 0.950 . S
H1208 C1218 0.950 . S
H1209 C1220 0.950 . S
H1210 C1222 0.950 . S
H1211 C1223 0.950 . S
C1212 H1204 0.950 . S
C1212 C1213 1.386 . S
C1212 C1214 1.391 . S
C1213 C1212 1.386 . S
C1213 C1217 1.393 . S
C1214 H1206 0.950 . S
C1214 C1212 1.391 . S
C1214 C1215 1.400 . S
C1215 C1214 1.400 . S
C1215 C1216 1.398 . S
C1215 C1221 1.491 . S
C1216 H1207 0.950 . S
C1216 C1215 1.398 . S
C1216 C1217 1.391 . S
C1217 H1205 0.950 . S
C1217 C1213 1.393 . S
C1217 C1216 1.391 . S
C1218 H1208 0.950 . S
C1218 C1219 1.386 . S
C1218 C1220 1.391 . S
C1219 C1218 1.386 . S
C1219 C1223 1.393 . S
C1220 H1209 0.950 . S
C1220 C1218 1.391 . S
C1220 C1221 1.400 . S
C1221 C1215 1.491 . S
C1221 C1220 1.400 . S
C1221 C1222 1.398 . S
C1222 H1210 0.950 . S
C1222 C1221 1.398 . S
C1222 C1223 1.391 . S
C1223 H1211 0.950 . S
C1223 C1219 1.393 . S
C1223 C1222 1.391 . S
H1224 C1232 0.950 . S
H1225 C1237 0.950 . S
H1226 C1234 0.950 . S
H1227 C1236 0.950 . S
H1228 C1238 0.950 . S
H1229 C1240 0.950 . S
H1230 C1242 0.950 . S
H1231 C1243 0.950 . S
C1232 H1224 0.950 . S
C1232 C1233 1.386 . S
C1232 C1234 1.391 . S
C1233 C1232 1.386 . S
C1233 C1237 1.393 . S
C1234 H1226 0.950 . S
C1234 C1232 1.391 . S
C1234 C1235 1.400 . S
C1235 C1234 1.400 . S
C1235 C1236 1.398 . S
C1235 C1241 1.491 . S
C1236 H1227 0.950 . S
C1236 C1235 1.398 . S
C1236 C1237 1.391 . S
C1237 H1225 0.950 . S
C1237 C1233 1.393 . S
C1237 C1236 1.391 . S
C1238 H1228 0.950 . S
C1238 C1239 1.386 . S
C1238 C1240 1.391 . S
C1239 C1238 1.386 . S
C1239 C1243 1.393 . S
C1240 H1229 0.950 . S
C1240 C1238 1.391 . S
C1240 C1241 1.400 . S
C1241 C1235 1.491 . S
C1241 C1240 1.400 . S
C1241 C1242 1.398 . S
C1242 H1230 0.950 . S
C1242 C1241 1.398 . S
C1242 C1243 1.391 . S
C1243 H1231 0.950 . S
C1243 C1239 1.393 . S
C1243 C1242 1.391 . S
H1244 C1252 0.950 . S
H1245 C1257 0.950 . S
H1246 C1254 0.950 . S
H1247 C1256 0.950 . S
H1248 C1258 0.950 . S
H1249 C1260 0.950 . S
H1250 C1262 0.950 . S
H1251 C1263 0.950 . S
C1252 H1244 0.950 . S
C1252 C1253 1.386 . S
C1252 C1254 1.391 . S
C1253 C1252 1.386 . S
C1253 C1257 1.393 . S
C1254 H1246 0.950 . S
C1254 C1252 1.391 . S
C1254 C1255 1.400 . S
C1255 C1254 1.400 . S
C1255 C1256 1.398 . S
C1255 C1261 1.491 . S
C1256 H1247 0.950 . S
C1256 C1255 1.398 . S
C1256 C1257 1.391 . S
C1257 H1245 0.950 . S
C1257 C1253 1.393 . S
C1257 C1256 1.391 . S
C1258 H1248 0.950 . S
C1258 C1259 1.386 . S
C1258 C1260 1.391 . S
C1259 C1258 1.386 . S
C1259 C1263 1.393 . S
C1260 H1249 0.950 . S
C1260 C1258 1.391 . S
C1260 C1261 1.400 . S
C1261 C1255 1.491 . S
C1261 C1260 1.400 . S
C1261 C1262 1.398 . S
C1262 H1250 0.950 . S
C1262 C1261 1.398 . S
C1262 C1263 1.391 . S
C1263 H1251 0.950 . S
C1263 C1259 1.393 . S
C1263 C1262 1.391 . S
H1264 C1272 0.950 . S
H1265 C1277 0.950 . S
H1266 C1274 0.950 . S
H1267 C1276 0.950 . S
H1268 C1278 0.950 . S
H1269 C1280 0.950 . S
H1270 C1282 0.950 . S
H1271 C1283 0.950 . S
C1272 H1264 0.950 . S
C1272 C1273 1.386 . S
C1272 C1274 1.391 . S
C1273 C1272 1.386 . S
C1273 C1277 1.393 . S
C1274 H1266 0.950 . S
C1274 C1272 1.391 . S
C1274 C1275 1.400 . S
C1275 C1274 1.400 . S
C1275 C1276 1.398 . S
C1275 C1281 1.491 . S
C1276 H1267 0.950 . S
C1276 C1275 1.398 . S
C1276 C1277 1.391 . S
C1277 H1265 0.950 . S
C1277 C1273 1.393 . S
C1277 C1276 1.391 . S
C1278 H1268 0.950 . S
C1278 C1279 1.386 . S
C1278 C1280 1.391 . S
C1279 C1278 1.386 . S
C1279 C1283 1.393 . S
C1280 H1269 0.950 . S
C1280 C1278 1.391 . S
C1280 C1281 1.400 . S
C1281 C1275 1.491 . S
C1281 C1280 1.400 . S
C1281 C1282 1.398 . S
C1282 H1270 0.950 . S
C1282 C1281 1.398 . S
C1282 C1283 1.391 . S
C1283 H1271 0.950 . S
C1283 C1279 1.393 . S
C1283 C1282 1.391 . S
H1284 C1292 0.950 . S
H1285 C1297 0.950 . S
H1286 C1294 0.950 . S
H1287 C1296 0.950 . S
H1288 C1298 0.950 . S
H1289 C1300 0.950 . S
H1290 C1302 0.950 . S
H1291 C1303 0.950 . S
C1292 H1284 0.950 . S
C1292 C1293 1.386 . S
C1292 C1294 1.391 . S
C1293 C1292 1.386 . S
C1293 C1297 1.393 . S
C1294 H1286 0.950 . S
C1294 C1292 1.391 . S
C1294 C1295 1.400 . S
C1295 C1294 1.400 . S
C1295 C1296 1.398 . S
C1295 C1301 1.491 . S
C1296 H1287 0.950 . S
C1296 C1295 1.398 . S
C1296 C1297 1.391 . S
C1297 H1285 0.950 . S
C1297 C1293 1.393 . S
C1297 C1296 1.391 . S
C1298 H1288 0.950 . S
C1298 C1299 1.386 . S
C1298 C1300 1.391 . S
C1299 C1298 1.386 . S
C1299 C1303 1.393 . S
C1300 H1289 0.950 . S
C1300 C1298 1.391 . S
C1300 C1301 1.400 . S
C1301 C1295 1.491 . S
C1301 C1300 1.400 . S
C1301 C1302 1.398 . S
C1302 H1290 0.950 . S
C1302 C1301 1.398 . S
C1302 C1303 1.391 . S
C1303 H1291 0.950 . S
C1303 C1299 1.393 . S
C1303 C1302 1.391 . S
H1304 C1312 0.950 . S
H1305 C1317 0.950 . S
H1306 C1314 0.950 . S
H1307 C1316 0.950 . S
H1308 C1318 0.950 . S
H1309 C1320 0.950 . S
H1310 C1322 0.950 . S
H1311 C1323 0.950 . S
C1312 H1304 0.950 . S
C1312 C1313 1.386 . S
C1312 C1314 1.391 . S
C1313 C1312 1.386 . S
C1313 C1317 1.393 . S
C1314 H1306 0.950 . S
C1314 C1312 1.391 . S
C1314 C1315 1.400 . S
C1315 C1314 1.400 . S
C1315 C1316 1.398 . S
C1315 C1321 1.491 . S
C1316 H1307 0.950 . S
C1316 C1315 1.398 . S
C1316 C1317 1.391 . S
C1317 H1305 0.950 . S
C1317 C1313 1.393 . S
C1317 C1316 1.391 . S
C1318 H1308 0.950 . S
C1318 C1319 1.386 . S
C1318 C1320 1.391 . S
C1319 C1318 1.386 . S
C1319 C1323 1.393 . S
C1320 H1309 0.950 . S
C1320 C1318 1.391 . S
C1320 C1321 1.400 . S
C1321 C1315 1.491 . S
C1321 C1320 1.400 . S
C1321 C1322 1.398 . S
C1322 H1310 0.950 . S
C1322 C1321 1.398 . S
C1322 C1323 1.391 . S
C1323 H1311 0.950 . S
C1323 C1319 1.393 . S
C1323 C1322 1.391 . S
H1324 C1332 0.950 . S
H1325 C1337 0.950 . S
H1326 C1334 0.950 . S
H1327 C1336 0.950 . S
H1328 C1338 0.950 . S
H1329 C1340 0.950 . S
H1330 C1342 0.950 . S
H1331 C1343 0.950 . S
C1332 H1324 0.950 . S
C1332 C1333 1.386 . S
C1332 C1334 1.391 . S
C1333 C1332 1.386 . S
C1333 C1337 1.393 . S
C1334 H1326 0.950 . S
C1334 C1332 1.391 . S
C1334 C1335 1.400 . S
C1335 C1334 1.400 . S
C1335 C1336 1.398 . S
C1335 C1341 1.491 . S
C1336 H1327 0.950 . S
C1336 C1335 1.398 . S
C1336 C1337 1.391 . S
C1337 H1325 0.950 . S
C1337 C1333 1.393 . S
C1337 C1336 1.391 . S
C1338 H1328 0.950 . S
C1338 C1339 1.386 . S
C1338 C1340 1.391 . S
C1339 C1338 1.386 . S
C1339 C1343 1.393 . S
C1340 H1329 0.950 . S
C1340 C1338 1.391 . S
C1340 C1341 1.400 . S
C1341 C1335 1.491 . S
C1341 C1340 1.400 . S
C1341 C1342 1.398 . S
C1342 H1330 0.950 . S
C1342 C1341 1.398 . S
C1342 C1343 1.391 . S
C1343 H1331 0.950 . S
C1343 C1339 1.393 . S
C1343 C1342 1.391 . S
H1344 C1352 0.950 . S
H1345 C1357 0.950 . S
H1346 C1354 0.950 . S
H1347 C1356 0.950 . S
H1348 C1358 0.950 . S
H1349 C1360 0.950 . S
H1350 C1362 0.950 . S
H1351 C1363 0.950 . S
C1352 H1344 0.950 . S
C1352 C1353 1.386 . S
C1352 C1354 1.391 . S
C1353 C1352 1.386 . S
C1353 C1357 1.393 . S
C1354 H1346 0.950 . S
C1354 C1352 1.391 . S
C1354 C1355 1.400 . S
C1355 C1354 1.400 . S
C1355 C1356 1.398 . S
C1355 C1361 1.491 . S
C1356 H1347 0.950 . S
C1356 C1355 1.398 . S
C1356 C1357 1.391 . S
C1357 H1345 0.950 . S
C1357 C1353 1.393 . S
C1357 C1356 1.391 . S
C1358 H1348 0.950 . S
C1358 C1359 1.386 . S
C1358 C1360 1.391 . S
C1359 C1358 1.386 . S
C1359 C1363 1.393 . S
C1360 H1349 0.950 . S
C1360 C1358 1.391 . S
C1360 C1361 1.400 . S
C1361 C1355 1.491 . S
C1361 C1360 1.400 . S
C1361 C1362 1.398 . S
C1362 H1350 0.950 . S
C1362 C1361 1.398 . S
C1362 C1363 1.391 . S
C1363 H1351 0.950 . S
C1363 C1359 1.393 . S
C1363 C1362 1.391 . S
H1364 C1372 0.950 . S
H1365 C1377 0.950 . S
H1366 C1374 0.950 . S
H1367 C1376 0.950 . S
H1368 C1378 0.950 . S
H1369 C1380 0.950 . S
H1370 C1382 0.950 . S
H1371 C1383 0.950 . S
C1372 H1364 0.950 . S
C1372 C1373 1.386 . S
C1372 C1374 1.391 . S
C1373 C1372 1.386 . S
C1373 C1377 1.393 . S
C1374 H1366 0.950 . S
C1374 C1372 1.391 . S
C1374 C1375 1.400 . S
C1375 C1374 1.400 . S
C1375 C1376 1.398 . S
C1375 C1381 1.491 . S
C1376 H1367 0.950 . S
C1376 C1375 1.398 . S
C1376 C1377 1.391 . S
C1377 H1365 0.950 . S
C1377 C1373 1.393 . S
C1377 C1376 1.391 . S
C1378 H1368 0.950 . S
C1378 C1379 1.386 . S
C1378 C1380 1.391 . S
C1379 C1378 1.386 . S
C1379 C1383 1.393 . S
C1380 H1369 0.950 . S
C1380 C1378 1.391 . S
C1380 C1381 1.400 . S
C1381 C1375 1.491 . S
C1381 C1380 1.400 . S
C1381 C1382 1.398 . S
C1382 H1370 0.950 . S
C1382 C1381 1.398 . S
C1382 C1383 1.391 . S
C1383 H1371 0.950 . S
C1383 C1379 1.393 . S
C1383 C1382 1.391 . S
H1384 C1392 0.950 . S
H1385 C1397 0.950 . S
H1386 C1394 0.950 . S
H1387 C1396 0.950 . S
H1388 C1398 0.950 . S
H1389 C1400 0.950 . S
H1390 C1402 0.950 . S
H1391 C1403 0.950 . S
C1392 H1384 0.950 . S
C1392 C1393 1.386 . S
C1392 C1394 1.391 . S
C1393 C1392 1.386 . S
C1393 C1397 1.393 . S
C1394 H1386 0.950 . S
C1394 C1392 1.391 . S
C1394 C1395 1.400 . S
C1395 C1394 1.400 . S
C1395 C1396 1.398 . S
C1395 C1401 1.491 . S
C1396 H1387 0.950 . S
C1396 C1395 1.398 . S
C1396 C1397 1.391 . S
C1397 H1385 0.950 . S
C1397 C1393 1.393 . S
C1397 C1396 1.391 . S
C1398 H1388 0.950 . S
C1398 C1399 1.386 . S
C1398 C1400 1.391 . S
C1399 C1398 1.386 . S
C1399 C1403 1.393 . S
C1400 H1389 0.950 . S
C1400 C1398 1.391 . S
C1400 C1401 1.400 . S
C1401 C1395 1.491 . S
C1401 C1400 1.400 . S
C1401 C1402 1.398 . S
C1402 H1390 0.950 . S
C1402 C1401 1.398 . S
C1402 C1403 1.391 . S
C1403 H1391 0.950 . S
C1403 C1399 1.393 . S
C1403 C1402 1.391 . S
H1404 C1412 0.950 . S
H1405 C1417 0.950 . S
H1406 C1414 0.950 . S
H1407 C1416 0.950 . S
H1408 C1418 0.950 . S
H1409 C1420 0.950 . S
H1410 C1422 0.950 . S
H1411 C1423 0.950 . S
C1412 H1404 0.950 . S
C1412 C1413 1.386 . S
C1412 C1414 1.391 . S
C1413 C1412 1.386 . S
C1413 C1417 1.393 . S
C1414 H1406 0.950 . S
C1414 C1412 1.391 . S
C1414 C1415 1.400 . S
C1415 C1414 1.400 . S
C1415 C1416 1.398 . S
C1415 C1421 1.491 . S
C1416 H1407 0.950 . S
C1416 C1415 1.398 . S
C1416 C1417 1.391 . S
C1417 H1405 0.950 . S
C1417 C1413 1.393 . S
C1417 C1416 1.391 . S
C1418 H1408 0.950 . S
C1418 C1419 1.386 . S
C1418 C1420 1.391 . S
C1419 C1418 1.386 . S
C1419 C1423 1.393 . S
C1420 H1409 0.950 . S
C1420 C1418 1.391 . S
C1420 C1421 1.400 . S
C1421 C1415 1.491 . S
C1421 C1420 1.400 . S
C1421 C1422 1.398 . S
C1422 H1410 0.950 . S
C1422 C1421 1.398 . S
C1422 C1423 1.391 . S
C1423 H1411 0.950 . S
C1423 C1419 1.393 . S
C1423 C1422 1.391 . S
H1424 C1432 0.950 . S
H1425 C1437 0.950 . S
H1426 C1434 0.950 . S
H1427 C1436 0.950 . S
H1428 C1438 0.950 . S
H1429 C1440 0.950 . S
H1430 C1442 0.950 . S
H1431 C1443 0.950 . S
C1432 H1424 0.950 . S
C1432 C1433 1.386 . S
C1432 C1434 1.391 1_545 S
C1433 C1432 1.386 . S
C1433 C1437 1.393 . S
C1434 H1426 0.950 . S
C1434 C1432 1.391 1_565 S
C1434 C1435 1.400 . S
C1435 C1434 1.400 . S
C1435 C1436 1.398 . S
C1435 C1441 1.491 . S
C1436 H1427 0.950 . S
C1436 C1435 1.398 . S
C1436 C1437 1.391 1_565 S
C1437 H1425 0.950 . S
C1437 C1433 1.393 . S
C1437 C1436 1.391 1_545 S
C1438 H1428 0.950 . S
C1438 C1439 1.386 . S
C1438 C1440 1.391 . S
C1439 C1438 1.386 . S
C1439 C1443 1.393 . S
C1440 H1429 0.950 . S
C1440 C1438 1.391 . S
C1440 C1441 1.400 . S
C1441 C1435 1.491 . S
C1441 C1440 1.400 . S
C1441 C1442 1.398 . S
C1442 H1430 0.950 . S
C1442 C1441 1.398 . S
C1442 C1443 1.391 . S
C1443 H1431 0.950 . S
C1443 C1439 1.393 . S
C1443 C1442 1.391 . S
H1444 C1452 0.950 . S
H1445 C1457 0.950 . S
H1446 C1454 0.950 . S
H1447 C1456 0.950 . S
H1448 C1458 0.950 . S
H1449 C1460 0.950 . S
H1450 C1462 0.950 . S
H1451 C1463 0.950 . S
C1452 H1444 0.950 . S
C1452 C1453 1.386 . S
C1452 C1454 1.391 . S
C1453 C1452 1.386 . S
C1453 C1457 1.393 . S
C1454 H1446 0.950 . S
C1454 C1452 1.391 . S
C1454 C1455 1.400 . S
C1455 C1454 1.400 . S
C1455 C1456 1.398 . S
C1455 C1461 1.491 . S
C1456 H1447 0.950 . S
C1456 C1455 1.398 . S
C1456 C1457 1.391 . S
C1457 H1445 0.950 . S
C1457 C1453 1.393 . S
C1457 C1456 1.391 . S
C1458 H1448 0.950 . S
C1458 C1459 1.386 . S
C1458 C1460 1.391 . S
C1459 C1458 1.386 . S
C1459 C1463 1.393 . S
C1460 H1449 0.950 . S
C1460 C1458 1.391 . S
C1460 C1461 1.400 . S
C1461 C1455 1.491 . S
C1461 C1460 1.400 . S
C1461 C1462 1.398 . S
C1462 H1450 0.950 . S
C1462 C1461 1.398 . S
C1462 C1463 1.391 . S
C1463 H1451 0.950 . S
C1463 C1459 1.393 . S
C1463 C1462 1.391 . S
H1464 C1472 0.950 . S
H1465 C1477 0.950 . S
H1466 C1474 0.950 . S
H1467 C1476 0.950 . S
H1468 C1478 0.950 . S
H1469 C1480 0.950 . S
H1470 C1482 0.950 . S
H1471 C1483 0.950 . S
C1472 H1464 0.950 . S
C1472 C1473 1.386 . S
C1472 C1474 1.391 . S
C1473 C1472 1.386 . S
C1473 C1477 1.393 . S
C1474 H1466 0.950 . S
C1474 C1472 1.391 . S
C1474 C1475 1.400 . S
C1475 C1474 1.400 . S
C1475 C1476 1.398 . S
C1475 C1481 1.491 . S
C1476 H1467 0.950 . S
C1476 C1475 1.398 . S
C1476 C1477 1.391 . S
C1477 H1465 0.950 . S
C1477 C1473 1.393 . S
C1477 C1476 1.391 . S
C1478 H1468 0.950 . S
C1478 C1479 1.386 . S
C1478 C1480 1.391 1_655 S
C1479 C1478 1.386 . S
C1479 C1483 1.393 . S
C1480 H1469 0.950 . S
C1480 C1478 1.391 1_455 S
C1480 C1481 1.400 . S
C1481 C1475 1.491 . S
C1481 C1480 1.400 . S
C1481 C1482 1.398 . S
C1482 H1470 0.950 . S
C1482 C1481 1.398 . S
C1482 C1483 1.391 1_455 S
C1483 H1471 0.950 . S
C1483 C1479 1.393 . S
C1483 C1482 1.391 1_655 S
H1484 C1492 0.950 . S
H1485 C1497 0.950 . S
H1486 C1494 0.950 . S
H1487 C1496 0.950 . S
H1488 C1498 0.950 . S
H1489 C1500 0.950 . S
H1490 C1502 0.950 . S
H1491 C1503 0.950 . S
C1492 H1484 0.950 . S
C1492 C1493 1.386 . S
C1492 C1494 1.391 1_565 S
C1493 C1492 1.386 . S
C1493 C1497 1.393 . S
C1494 H1486 0.950 . S
C1494 C1492 1.391 1_545 S
C1494 C1495 1.400 . S
C1495 C1494 1.400 . S
C1495 C1496 1.398 . S
C1495 C1501 1.491 . S
C1496 H1487 0.950 . S
C1496 C1495 1.398 . S
C1496 C1497 1.391 1_545 S
C1497 H1485 0.950 . S
C1497 C1493 1.393 . S
C1497 C1496 1.391 1_565 S
C1498 H1488 0.950 . S
C1498 C1499 1.386 . S
C1498 C1500 1.391 1_455 S
C1499 C1498 1.386 . S
C1499 C1503 1.393 . S
C1500 H1489 0.950 . S
C1500 C1498 1.391 1_655 S
C1500 C1501 1.400 . S
C1501 C1495 1.491 . S
C1501 C1500 1.400 . S
C1501 C1502 1.398 . S
C1502 H1490 0.950 . S
C1502 C1501 1.398 . S
C1502 C1503 1.391 1_655 S
C1503 H1491 0.950 . S
C1503 C1499 1.393 . S
C1503 C1502 1.391 1_455 S
H1504 C1512 0.950 . S
H1505 C1517 0.950 . S
H1506 C1514 0.950 . S
H1507 C1516 0.950 . S
H1508 C1518 0.950 . S
H1509 C1520 0.950 . S
H1510 C1522 0.950 . S
H1511 C1523 0.950 . S
C1512 H1504 0.950 . S
C1512 C1513 1.386 . S
C1512 C1514 1.391 . S
C1513 C1512 1.386 . S
C1513 C1517 1.393 . S
C1514 H1506 0.950 . S
C1514 C1512 1.391 . S
C1514 C1515 1.400 . S
C1515 C1514 1.400 . S
C1515 C1516 1.398 . S
C1515 C1521 1.491 . S
C1516 H1507 0.950 . S
C1516 C1515 1.398 . S
C1516 C1517 1.391 . S
C1517 H1505 0.950 . S
C1517 C1513 1.393 . S
C1517 C1516 1.391 . S
C1518 H1508 0.950 . S
C1518 C1519 1.386 . S
C1518 C1520 1.391 . S
C1519 C1518 1.386 . S
C1519 C1523 1.393 . S
C1520 H1509 0.950 . S
C1520 C1518 1.391 . S
C1520 C1521 1.400 . S
C1521 C1515 1.491 . S
C1521 C1520 1.400 . S
C1521 C1522 1.398 . S
C1522 H1510 0.950 . S
C1522 C1521 1.398 . S
C1522 C1523 1.391 . S
C1523 H1511 0.950 . S
C1523 C1519 1.393 . S
C1523 C1522 1.391 . S
H1524 C1532 0.950 . S
H1525 C1537 0.950 . S
H1526 C1534 0.950 . S
H1527 C1536 0.950 . S
H1528 C1538 0.950 . S
H1529 C1540 0.950 . S
H1530 C1542 0.950 . S
H1531 C1543 0.950 . S
C1532 H1524 0.950 . S
C1532 C1533 1.386 . S
C1532 C1534 1.391 1_455 S
C1533 C1532 1.386 . S
C1533 C1537 1.393 . S
C1534 H1526 0.950 . S
C1534 C1532 1.391 1_655 S
C1534 C1535 1.400 . S
C1535 C1534 1.400 . S
C1535 C1536 1.398 . S
C1535 C1541 1.491 . S
C1536 H1527 0.950 . S
C1536 C1535 1.398 . S
C1536 C1537 1.391 1_655 S
C1537 H1525 0.950 . S
C1537 C1533 1.393 . S
C1537 C1536 1.391 1_455 S
C1538 H1528 0.950 . S
C1538 C1539 1.386 . S
C1538 C1540 1.391 . S
C1539 C1538 1.386 . S
C1539 C1543 1.393 . S
C1540 H1529 0.950 . S
C1540 C1538 1.391 . S
C1540 C1541 1.400 . S
C1541 C1535 1.491 . S
C1541 C1540 1.400 . S
C1541 C1542 1.398 . S
C1542 H1530 0.950 . S
C1542 C1541 1.398 . S
C1542 C1543 1.391 . S
C1543 H1531 0.950 . S
C1543 C1539 1.393 . S
C1543 C1542 1.391 . S
H1544 C1552 0.950 . S
H1545 C1557 0.950 . S
H1546 C1554 0.950 . S
H1547 C1556 0.950 . S
H1548 C1558 0.950 . S
H1549 C1560 0.950 . S
H1550 C1562 0.950 . S
H1551 C1563 0.950 . S
C1552 H1544 0.950 . S
C1552 C1553 1.386 . S
C1552 C1554 1.391 1_655 S
C1553 C1552 1.386 . S
C1553 C1557 1.393 . S
C1554 H1546 0.950 . S
C1554 C1552 1.391 1_455 S
C1554 C1555 1.400 . S
C1555 C1554 1.400 . S
C1555 C1556 1.399 . S
C1555 C1561 1.491 . S
C1556 H1547 0.950 . S
C1556 C1555 1.399 . S
C1556 C1557 1.390 1_455 S
C1557 H1545 0.950 . S
C1557 C1553 1.393 . S
C1557 C1556 1.390 1_655 S
C1558 H1548 0.950 . S
C1558 C1559 1.386 . S
C1558 C1560 1.391 1_545 S
C1559 C1558 1.386 . S
C1559 C1563 1.393 . S
C1560 H1549 0.950 . S
C1560 C1558 1.391 1_565 S
C1560 C1561 1.400 . S
C1561 C1555 1.491 . S
C1561 C1560 1.400 . S
C1561 C1562 1.398 . S
C1562 H1550 0.950 . S
C1562 C1561 1.398 . S
C1562 C1563 1.391 1_565 S
C1563 H1551 0.950 . S
C1563 C1559 1.393 . S
C1563 C1562 1.391 1_545 S
H1564 C1572 0.950 . S
H1565 C1577 0.950 . S
H1566 C1574 0.950 . S
H1567 C1576 0.950 . S
H1568 C1578 0.950 . S
H1569 C1580 0.950 . S
H1570 C1582 0.950 . S
H1571 C1583 0.950 . S
C1572 H1564 0.950 . S
C1572 C1573 1.386 1_545 S
C1572 C1574 1.391 . S
C1573 C1572 1.386 1_565 S
C1573 C1577 1.393 . S
C1574 H1566 0.950 . S
C1574 C1572 1.391 . S
C1574 C1575 1.400 . S
C1575 C1574 1.400 . S
C1575 C1576 1.398 1_545 S
C1575 C1581 1.491 . S
C1576 H1567 0.950 . S
C1576 C1575 1.398 1_565 S
C1576 C1577 1.391 . S
C1577 H1565 0.950 . S
C1577 C1573 1.393 . S
C1577 C1576 1.391 . S
C1578 H1568 0.950 . S
C1578 C1579 1.386 . S
C1578 C1580 1.391 . S
C1579 C1578 1.386 . S
C1579 C1583 1.393 . S
C1580 H1569 0.950 . S
C1580 C1578 1.391 . S
C1580 C1581 1.400 . S
C1581 C1575 1.491 . S
C1581 C1580 1.400 . S
C1581 C1582 1.398 . S
C1582 H1570 0.950 . S
C1582 C1581 1.398 . S
C1582 C1583 1.391 . S
C1583 H1571 0.950 . S
C1583 C1579 1.393 . S
C1583 C1582 1.391 . S
C953 C416 1.559 . S
C959 C3 1.566 . S
C973 C239 1.568 . S
C979 C62 1.560 . S
C993 C298 1.571 . S
C999 C121 1.580 . S
C1013 C180 1.571 . S
C1019 C357 1.563 . S
C1033 C888 1.580 . S
C1039 C475 1.585 . S
C1053 C711 1.574 . S
C1059 C534 1.565 . S
C1073 C593 1.558 . S
C1079 C770 1.556 . S
C1093 C652 1.568 . S
C1099 C829 1.561 . S
C1113 C170 1.153 . S
C1119 C52 1.143 . S
C1133 C111 1.159 . S
C1139 C229 1.145 . S
C1153 C288 1.161 . S
C1159 C406 1.147 . S
C1173 C465 1.159 . S
C1179 C347 1.145 . S
C1193 C524 1.160 . S
C1199 C642 1.146 . S
C1213 C583 1.163 . S
C1219 C701 1.160 . S
C1233 C878 1.164 . S
C1239 C760 1.159 . S
C1253 C819 1.150 . S
C1259 C937 1.163 . S
C1273 C387 1.371 . S
C1279 C33 1.357 . S
C1293 C92 1.355 . S
C1299 C446 1.362 . S
C1313 C151 1.380 . S
C1319 C269 1.367 . S
C1333 C210 1.381 . S
C1339 C328 1.376 . S
C1353 C505 1.356 . S
C1359 C859 1.360 . S
C1373 C564 1.376 . S
C1379 C918 1.360 . S
C1393 C623 1.363 . S
C1399 C741 1.378 . S
C1413 C682 1.366 . S
C1419 C800 1.355 . S
C1433 C5 1.364 . S
C1439 C890 1.375 . S
C1453 C713 1.375 . S
C1459 C64 1.364 . S
C1473 C123 1.374 . S
C1479 C772 1.364 . S
C1493 C831 1.374 . S
C1499 C182 1.365 . S
C1513 C536 1.368 . S
C1519 C241 1.371 . S
C1533 C300 1.375 . S
C1539 C595 1.364 . S
C1553 C654 1.375 . S
C1559 C359 1.364 . S
C1573 C477 1.374 . S
C1579 C418 1.365 . S
