# Generated by pormake.
# Topology unh, (4)-cn, num edge types: 1
# Building blocks:
#     Node 0, Type 0, BuildingBlock: QUQFOY_clean_sbu_3, # of connection points: 4
#     Node 1, Type 0, BuildingBlock: QUQFOY_clean_sbu_3, # of connection points: 4
#     Node 2, Type 0, BuildingBlock: QUQFOY_clean_sbu_3, # of connection points: 4
#     Node 3, Type 0, BuildingBlock: QUQFOY_clean_sbu_3, # of connection points: 4
#     Node 4, Type 0, BuildingBlock: QUQFOY_clean_sbu_3, # of connection points: 4
#     Node 5, Type 0, BuildingBlock: QUQFOY_clean_sbu_3, # of connection points: 4
#     Edge 6, Type (0, 0), BuildingBlock: ZUJKAS_clean_linker_0, # of connection points: 2
#     Edge 7, Type (0, 0), BuildingBlock: ZUJKAS_clean_linker_0, # of connection points: 2
#     Edge 8, Type (0, 0), BuildingBlock: ZUJKAS_clean_linker_0, # of connection points: 2
#     Edge 9, Type (0, 0), BuildingBlock: ZUJKAS_clean_linker_0, # of connection points: 2
#     Edge 10, Type (0, 0), BuildingBlock: ZUJKAS_clean_linker_0, # of connection points: 2
#     Edge 11, Type (0, 0), BuildingBlock: ZUJKAS_clean_linker_0, # of connection points: 2
#     Edge 12, Type (0, 0), BuildingBlock: ZUJKAS_clean_linker_0, # of connection points: 2
#     Edge 13, Type (0, 0), BuildingBlock: ZUJKAS_clean_linker_0, # of connection points: 2
#     Edge 14, Type (0, 0), BuildingBlock: ZUJKAS_clean_linker_0, # of connection points: 2
#     Edge 15, Type (0, 0), BuildingBlock: ZUJKAS_clean_linker_0, # of connection points: 2
#     Edge 16, Type (0, 0), BuildingBlock: ZUJKAS_clean_linker_0, # of connection points: 2
#     Edge 17, Type (0, 0), BuildingBlock: ZUJKAS_clean_linker_0, # of connection points: 2
# Relax obj value: 0.079
# Max RMSD: 0.191
# Mean RMSD: 0.191
data_MOF--net-unh--node1-QUQFOY_clean_sbu_3--edge1-ZUJKAS_clean_linker_0
_symmetry_space_group_name_H-M    P1
_symmetry_Int_Tables_number       1
_symmetry_cell_setting            triclinic
loop_
_symmetry_equiv_pos_as_xyz
'x, y, z'
_cell_length_a     56.374818
_cell_length_b     56.110515
_cell_length_c     30.246992
_cell_angle_alpha  90.104315
_cell_angle_beta   89.744995
_cell_angle_gamma 120.10319
loop_
_atom_site_label
_atom_site_type_symbol
_atom_site_fract_x
_atom_site_fract_y
_atom_site_fract_z
_atom_type_partial_charge
C0 C 0.14404 0.50749 0.08037 0.0
O1 O 0.13825 0.49574 0.04287 0.0
Cd2 Cd 0.10903 0.50173 -0.00844 0.0
O3 O 0.13268 0.521 0.09329 0.0
Cd4 Cd 0.09747 0.53219 0.06963 0.0
C5 C 0.14022 0.57275 -0.01081 0.0
O6 O 0.06673 0.49023 0.02779 0.0
O7 O 0.06048 0.525 0.02089 0.0
O8 O 0.07813 0.51799 0.14295 0.0
C9 C 0.05259 0.50005 0.01199 0.0
O10 O 0.13415 0.55026 0.96965 0.0
C11 C 0.077 0.53951 0.15194 0.0
O12 O 0.13091 0.57256 0.02775 0.0
O13 O 0.08597 0.55829 0.12264 0.0
C14 C 0.6199 0.15797 0.25185 0.0
O15 O 0.6262 0.15414 0.21318 0.0
Cd16 Cd 0.59191 0.12422 0.1609 0.0
O17 O 0.59505 0.1449 0.26486 0.0
Cd18 Cd 0.54918 0.10958 0.23885 0.0
C19 C 0.55067 0.15333 0.16087 0.0
O20 O 0.56173 0.08055 0.19474 0.0
O21 O 0.52043 0.07314 0.18799 0.0
O22 O 0.54356 0.08863 0.3109 0.0
C23 C 0.53796 0.06611 0.17832 0.0
O24 O 0.56739 0.14809 0.14057 0.0
C25 C 0.52075 0.08688 0.32006 0.0
O26 O 0.5417 0.14337 0.19919 0.0
O27 O 0.51099 0.09613 0.2914 0.0
C28 C 0.44649 0.6298 0.40991 0.0
O29 O 0.45663 0.63662 0.3713 0.0
Cd30 Cd 0.45338 0.60336 0.31759 0.0
O31 O 0.43517 0.60477 0.42237 0.0
Cd32 Cd 0.42579 0.55921 0.39525 0.0
C33 C 0.38336 0.55954 0.31658 0.0
O34 O 0.46787 0.57417 0.35152 0.0
O35 O 0.43605 0.53153 0.34596 0.0
O36 O 0.44006 0.55352 0.46802 0.0
C37 C 0.45997 0.55041 0.33554 0.0
O38 O 0.40504 0.57773 0.29723 0.0
C39 C 0.41925 0.53009 0.4758 0.0
O40 O 0.38461 0.54982 0.354 0.0
O41 O 0.40093 0.52008 0.44607 0.0
C42 C 0.8073 0.46286 0.58321 0.0
O43 O 0.81289 0.47453 0.54564 0.0
Cd44 Cd 0.84198 0.46852 0.49357 0.0
O45 O 0.81885 0.44952 0.59574 0.0
Cd46 Cd 0.85419 0.43858 0.57112 0.0
C47 C 0.81094 0.39753 0.492 0.0
O48 O 0.88458 0.48045 0.52858 0.0
O49 O 0.89102 0.44578 0.52143 0.0
O50 O 0.87381 0.45307 0.64399 0.0
C51 C 0.89877 0.47069 0.51243 0.0
O52 O 0.81672 0.41988 0.47233 0.0
C53 C 0.87502 0.43162 0.65292 0.0
O54 O 0.82066 0.39798 0.53015 0.0
O55 O 0.86601 0.41276 0.62378 0.0
C56 C 0.33206 0.81455 0.75069 0.0
O57 O 0.32592 0.81931 0.71265 0.0
Cd58 Cd 0.36034 0.85037 0.66119 0.0
O59 O 0.35684 0.82736 0.76374 0.0
Cd60 Cd 0.4028 0.86346 0.73886 0.0
C61 C 0.40154 0.82118 0.65806 0.0
O62 O 0.39031 0.89321 0.69712 0.0
O63 O 0.43177 0.90108 0.68981 0.0
O64 O 0.40752 0.88229 0.81249 0.0
C65 C 0.41417 0.9081 0.68099 0.0
O66 O 0.38495 0.82686 0.6387 0.0
C67 C 0.43066 0.88465 0.82064 0.0
O68 O 0.41039 0.83041 0.69668 0.0
O69 O 0.44099 0.87663 0.79073 0.0
C70 C 0.50092 0.34074 0.91425 0.0
O71 O 0.49123 0.33344 0.87561 0.0
Cd72 Cd 0.49625 0.36638 0.82014 0.0
O73 O 0.51243 0.36597 0.92554 0.0
Cd74 Cd 0.5225 0.41094 0.89463 0.0
C75 C 0.56628 0.40918 0.81988 0.0
O76 O 0.48161 0.39699 0.84854 0.0
O77 O 0.51591 0.43823 0.83971 0.0
O78 O 0.50525 0.41999 0.96226 0.0
C79 C 0.49135 0.42051 0.83046 0.0
O80 O 0.54481 0.39091 0.80041 0.0
C81 C 0.52699 0.44218 0.97196 0.0
O82 O 0.56454 0.41949 0.85649 0.0
O83 O 0.54728 0.4499 0.94584 0.0
H84 H 0.01647 0.51467 -0.0188 0.0
H85 H -0.01961 0.4907 0.92678 0.0
H86 H 5e-05 0.42578 0.91893 0.0
H87 H 0.03657 0.44986 0.97365 0.0
H88 H -0.00209 0.44773 0.83686 0.0
H89 H 0.90494 0.42113 0.93494 0.0
H90 H 0.93092 0.45654 0.94184 0.0
H91 H 0.93729 0.42975 0.96016 0.0
C92 C 0.01294 0.49512 0.96839 0.0
C93 C 0.02939 0.48417 -0.01833 0.0
C94 C -0.00787 0.48131 0.93755 0.0
C95 C -0.01277 0.45623 0.9194 0.0
C96 C 0.00333 0.44497 0.93296 0.0
H97 H 0.88635 0.39134 0.67783 0.0
H98 H 0.91069 0.39065 0.74453 0.0
C99 C 0.02415 0.45874 0.96416 0.0
C100 C 0.96701 0.44351 0.88333 0.0
H101 H 0.90149 0.42553 0.85585 0.0
C102 C -0.02338 0.44213 0.84106 0.0
C103 C 0.93925 0.43614 0.88906 0.0
C104 C 0.92742 0.43568 0.93408 0.0
C105 C 0.95976 0.43578 0.80377 0.0
C106 C 0.93254 0.43032 0.80918 0.0
C107 C 0.92242 0.42987 0.85181 0.0
C108 C 0.91563 0.42877 0.77082 0.0
C109 C 0.97174 0.43688 0.75858 0.0
C110 C 0.90968 0.44995 0.76433 0.0
C111 C 0.89584 0.45039 0.72655 0.0
C112 C 0.88754 0.42955 0.69453 0.0
C113 C 0.89259 0.40773 0.70185 0.0
C114 C 0.90656 0.40736 0.73978 0.0
H115 H -0.00581 0.44493 0.75976 0.0
H116 H 0.96176 0.41585 0.74425 0.0
H117 H 0.9678 0.45012 0.73606 0.0
H118 H 0.9165 0.46665 0.78794 0.0
H119 H 0.89216 0.46741 0.72204 0.0
H120 H 0.48399 0.90125 0.84211 0.0
H121 H 0.50878 0.92644 0.90864 0.0
H122 H 0.43515 0.92255 0.95859 0.0
H123 H 0.41036 0.89746 0.89282 0.0
H124 H 0.51558 0.97746 0.93437 0.0
H125 H 0.46317 0.9003 0.06631 0.0
H126 H 0.46123 0.89097 0.00867 0.0
H127 H 0.43926 0.9029 0.03055 0.0
C128 C 0.47301 0.90536 0.86768 0.0
C129 C 0.44523 0.8974 0.86224 0.0
C130 C 0.48719 0.91974 0.90559 0.0
C131 C 0.47368 0.92597 0.93882 0.0
C132 C 0.44581 0.91741 0.93385 0.0
H133 H 0.48807 0.03065 0.14348 0.0
H134 H 0.47708 -0.0048 0.08773 0.0
C135 C 0.43172 0.90325 0.89602 0.0
C136 C 0.48892 0.94368 0.97679 0.0
H137 H 0.48508 0.94816 0.08884 0.0
C138 C 0.5095 0.97093 0.96829 0.0
C139 C 0.48096 0.93502 0.02094 0.0
C140 C 0.46013 0.9056 0.03222 0.0
C141 C 0.52075 -0.00964 0.00253 0.0
C142 C 0.51136 0.98211 0.04634 0.0
C143 C 0.49212 0.95443 0.05515 0.0
C144 C 0.51847 0.00249 0.08228 0.0
C145 C 0.54114 0.01995 -0.00871 0.0
C146 C 0.54537 0.01804 0.09821 0.0
C147 C 0.55177 0.03844 0.13024 0.0
C148 C 0.53133 0.04353 0.14665 0.0
C149 C 0.50432 0.02736 0.13137 0.0
C150 C 0.49796 0.00701 0.09961 0.0
H151 H 0.54368 0.02356 0.95503 0.0
H152 H 0.53458 0.0339 0.00593 0.0
H153 H 0.5614 0.02554 0.00547 0.0
H154 H 0.56141 0.01461 0.08553 0.0
H155 H 0.57275 0.05052 0.1415 0.0
H156 H 0.45209 0.50067 0.30939 0.0
H157 H 0.47635 0.4912 0.25135 0.0
H158 H 0.52935 0.57837 0.23006 0.0
H159 H 0.50505 0.58811 0.28867 0.0
H160 H 0.50261 0.54726 0.15308 0.0
H161 H 0.55338 0.4999 0.24438 0.0
H162 H 0.51812 0.48583 0.26017 0.0
H163 H 0.54225 0.52156 0.27086 0.0
C164 C 0.46917 0.51788 0.29288 0.0
C165 C 0.47663 0.54514 0.30347 0.0
C166 C 0.48318 0.51242 0.25997 0.0
C167 C 0.50489 0.53408 0.2369 0.0
C168 C 0.51283 0.56139 0.2479 0.0
H169 H 0.57118 0.48916 0.00458 0.0
H170 H 0.57172 0.51646 0.06873 0.0
C171 C 0.49895 0.56691 0.28131 0.0
C172 C 0.51695 0.52768 0.19833 0.0
H173 H 0.5432 0.48699 0.16723 0.0
C174 C 0.51224 0.53477 0.15613 0.0
C175 C 0.52958 0.51146 0.20243 0.0
C176 C 0.53639 0.50447 0.24695 0.0
C177 C 0.5178 0.52418 0.11794 0.0
C178 C 0.52834 0.50618 0.12227 0.0
C179 C 0.53498 0.50074 0.16421 0.0
C180 C 0.5288 0.48989 0.08431 0.0
C181 C 0.51084 0.53082 0.07326 0.0
C182 C 0.50457 0.46595 0.0725 0.0
C183 C 0.50419 0.45034 0.03635 0.0
C184 C 0.52807 0.45846 0.01118 0.0
C185 C 0.55247 0.48241 0.02334 0.0
C186 C 0.55284 0.498 0.05986 0.0
H187 H 0.50692 0.54834 0.07483 0.0
H188 H 0.52776 0.53589 0.0494 0.0
H189 H 0.49216 0.51248 0.06047 0.0
H190 H 0.48586 0.45944 0.09119 0.0
H191 H 0.48506 0.43205 0.02787 0.0
H192 H 0.93508 0.45628 0.48111 0.0
H193 H 0.97125 0.4804 0.42644 0.0
H194 H 0.9512 0.54504 0.41905 0.0
H195 H 0.91459 0.5208 0.47405 0.0
H196 H 0.95371 0.52316 0.33681 0.0
H197 H 0.0465 0.55027 0.43441 0.0
H198 H 0.02062 0.51481 0.44142 0.0
H199 H 0.01403 0.5415 0.45979 0.0
C200 C 0.93853 0.4758 0.46834 0.0
C201 C 0.92196 0.48663 0.48184 0.0
C202 C 0.95939 0.48969 0.43735 0.0
C203 C 0.96422 0.51474 0.41928 0.0
C204 C 0.94797 0.52587 0.43303 0.0
H205 H 0.06556 0.57977 0.17694 0.0
H206 H 0.04111 0.58051 0.24389 0.0
C207 C 0.92711 0.51202 0.46438 0.0
C208 C -0.01546 0.52757 0.38311 0.0
H209 H 0.05024 0.54591 0.35529 0.0
C210 C 0.97503 0.52888 0.3409 0.0
C211 C 0.01232 0.5351 0.3887 0.0
C212 C 0.02404 0.53563 0.43365 0.0
C213 C -0.00799 0.53532 0.30352 0.0
C214 C 0.01927 0.54093 0.30878 0.0
C215 C 0.02929 0.54146 0.35137 0.0
C216 C 0.03632 0.54252 0.27033 0.0
C217 C -0.01986 0.53412 0.25839 0.0
C218 C 0.04241 0.52142 0.26386 0.0
C219 C 0.05631 0.52095 0.22594 0.0
C220 C 0.06454 0.54169 0.19376 0.0
C221 C 0.05939 0.56346 0.20109 0.0
C222 C 0.04535 0.56386 0.23915 0.0
H223 H 0.95766 0.52597 0.2597 0.0
H224 H -0.00993 0.55514 0.24401 0.0
H225 H -0.01577 0.52094 0.23586 0.0
H226 H 0.03563 0.50478 0.28758 0.0
H227 H 0.06008 0.50398 0.22144 0.0
H228 H 0.5394 0.06961 0.38861 0.0
H229 H 0.51428 0.04458 0.45454 0.0
H230 H 0.44373 0.04902 0.41181 0.0
H231 H 0.4688 0.07412 0.34513 0.0
H232 H 0.48752 0.05934 0.52258 0.0
H233 H 0.41569 0.96517 0.42781 0.0
H234 H 0.44726 -0.00806 0.40389 0.0
H235 H 0.41884 -0.00251 0.41164 0.0
C236 C 0.5186 0.06546 0.39325 0.0
C237 C 0.506 0.07365 0.36148 0.0
C238 C 0.50431 0.05122 0.43104 0.0
C239 C 0.47711 0.04475 0.43777 0.0
C240 C 0.46464 0.05359 0.40689 0.0
H241 H 0.37897 0.9223 0.64241 0.0
H242 H 0.39048 0.95857 0.58708 0.0
C243 C 0.47901 0.06798 0.36897 0.0
C244 C 0.46186 0.02766 0.47636 0.0
H245 H 0.41496 0.96157 0.50496 0.0
C246 C 0.47127 0.03811 0.51885 0.0
C247 C 0.44055 5e-05 0.47133 0.0
C248 C 0.42994 -0.01222 0.4263 0.0
C249 C 0.46092 0.02123 0.55634 0.0
C250 C 0.44104 -0.0069 0.55101 0.0
C251 C 0.43027 0.98314 0.50888 0.0
C252 C 0.43399 0.97298 0.58737 0.0
C253 C 0.472 0.03345 0.60119 0.0
C254 C 0.45461 0.96906 0.6056 0.0
C255 C 0.44813 0.94841 0.63679 0.0
C256 C 0.42084 0.93114 0.65034 0.0
C257 C 0.4002 0.93538 0.63273 0.0
C258 C 0.40672 0.95605 0.60117 0.0
H259 H 0.47928 0.05588 0.60174 0.0
H260 H 0.45624 0.02316 0.62743 0.0
H261 H 0.48974 0.03076 0.60895 0.0
H262 H 0.47569 0.98144 0.59466 0.0
H263 H 0.4645 0.94566 0.64966 0.0
H264 H 0.44054 0.38545 0.79554 0.0
H265 H 0.41592 0.39657 0.73985 0.0
H266 H 0.4821 0.48087 0.73765 0.0
H267 H 0.50661 0.47011 0.79297 0.0
H268 H 0.42695 0.47312 0.74219 0.0
H269 H 0.44119 0.41331 0.60749 0.0
H270 H 0.4264 0.39621 0.65908 0.0
H271 H 0.46165 0.42301 0.65709 0.0
C272 C 0.44972 0.40637 0.78329 0.0
C273 C 0.47558 0.42688 0.79841 0.0
C274 C 0.43569 0.41264 0.75146 0.0
C275 C 0.44733 0.43949 0.73452 0.0
C276 C 0.47279 0.46004 0.75037 0.0
H277 H 0.45262 0.54937 0.54744 0.0
H278 H 0.45221 0.52368 0.61255 0.0
C279 C 0.48681 0.45381 0.78188 0.0
C280 C 0.43387 0.44656 0.69919 0.0
H281 H 0.42476 0.44269 0.58743 0.0
C282 C 0.42591 0.46606 0.70846 0.0
C283 C 0.43236 0.43712 0.65536 0.0
C284 C 0.44092 0.41634 0.64376 0.0
C285 C 0.41794 0.47756 0.67458 0.0
C286 C 0.41845 0.46969 0.63033 0.0
C287 C 0.4245 0.44874 0.62142 0.0
C288 C 0.41655 0.48544 0.59266 0.0
C289 C 0.40994 0.49874 0.68631 0.0
C290 C 0.39678 0.47239 0.55955 0.0
C291 C 0.397 0.48709 0.52202 0.0
C292 C 0.41726 0.51493 0.51685 0.0
C293 C 0.43672 0.52797 0.55045 0.0
C294 C 0.43638 0.51337 0.5879 0.0
H295 H 0.40157 0.49559 0.72048 0.0
H296 H 0.42839 0.51959 0.68471 0.0
H297 H 0.39444 0.49803 0.66298 0.0
H298 H 0.38149 0.45076 0.56243 0.0
H299 H 0.38181 0.47646 0.49658 0.0
H300 H 0.16522 0.47304 0.07323 0.0
H301 H 0.20151 0.47348 0.11803 0.0
H302 H 0.20738 0.54132 0.19419 0.0
H303 H 0.17053 0.54025 0.15097 0.0
H304 H 0.25236 0.5117 0.12425 0.0
H305 H 0.20829 0.49474 0.29205 0.0
H306 H 0.18789 0.48935 0.24327 0.0
H307 H 0.20779 0.52332 0.26678 0.0
C308 C 0.17398 0.48776 0.09998 0.0
C309 C 0.16492 0.50654 0.10864 0.0
C310 C 0.1947 0.48798 0.12559 0.0
C311 C 0.20687 0.50707 0.16013 0.0
C312 C 0.19775 0.52576 0.16881 0.0
H313 H 0.37182 0.58397 0.24886 0.0
H314 H 0.3281 0.56786 0.21191 0.0
C315 C 0.1768 0.52529 0.14372 0.0
C316 C 0.23068 0.50923 0.18453 0.0
H317 H 0.25795 0.51771 0.28786 0.0
C318 C 0.25336 0.51252 0.16007 0.0
C319 C 0.23191 0.50971 0.23131 0.0
C320 C 0.20751 0.50376 0.25979 0.0
C321 C 0.27769 0.51781 0.18093 0.0
C322 C 0.27977 0.52087 0.22746 0.0
C323 C 0.25659 0.51596 0.25212 0.0
C324 C 0.30616 0.53058 0.25078 0.0
C325 C 0.30094 0.52018 0.15272 0.0
C326 C 0.30815 0.51565 0.2864 0.0
C327 C 0.33313 0.52516 0.30834 0.0
C328 C 0.35655 0.54969 0.29485 0.0
C329 C 0.35431 0.56479 0.25968 0.0
C330 C 0.32933 0.55548 0.23824 0.0
H331 H 0.29314 0.50786 0.12193 0.0
H332 H 0.31439 0.54202 0.1429 0.0
H333 H 0.31344 0.51318 0.17081 0.0
H334 H 0.29046 0.49652 0.29695 0.0
H335 H 0.3342 0.51309 0.33536 0.0
H336 H 0.6736 0.19497 0.23197 0.0
H337 H 0.70703 0.23224 0.27863 0.0
H338 H 0.6479 0.20545 0.38491 0.0
H339 H 0.61419 0.16846 0.33833 0.0
H340 H 0.67027 0.25984 0.36752 0.0
H341 H 0.75265 0.23397 0.38358 0.0
H342 H 0.74337 0.23499 0.32721 0.0
H343 H 0.7187 0.20947 0.36428 0.0
C344 C 0.66782 0.19673 0.26549 0.0
C345 C 0.64116 0.17879 0.28132 0.0
C346 C 0.68704 0.21795 0.29224 0.0
C347 C 0.68007 0.22143 0.33544 0.0
C348 C 0.65374 0.20308 0.35173 0.0
H349 H 0.7928 0.34525 0.52358 0.0
H350 H 0.76076 0.30151 0.48787 0.0
C351 C 0.6345 0.18195 0.325 0.0
C352 C 0.69928 0.24562 0.36218 0.0
H353 H 0.76427 0.27991 0.40377 0.0
C354 C 0.69072 0.26406 0.37581 0.0
C355 C 0.72584 0.25097 0.3734 0.0
C356 C 0.73563 0.23116 0.36176 0.0
C357 C 0.7083 0.28814 0.39913 0.0
C358 C 0.73532 0.29419 0.40839 0.0
C359 C 0.74362 0.27533 0.39615 0.0
C360 C 0.75541 0.32047 0.42945 0.0
C361 C 0.69778 0.30693 0.41364 0.0
C362 C 0.76336 0.34551 0.408 0.0
C363 C 0.78154 0.37045 0.42821 0.0
C364 C 0.79231 0.37087 0.47027 0.0
C365 C 0.7848 0.34568 0.49128 0.0
C366 C 0.76655 0.32067 0.47094 0.0
H367 H 0.67501 0.29592 0.41486 0.0
H368 H 0.70583 0.31585 0.44674 0.0
H369 H 0.70472 0.32413 0.38966 0.0
H370 H 0.75536 0.34575 0.3756 0.0
H371 H 0.787 0.3894 0.41087 0.0
H372 H 0.43339 0.80069 0.69006 0.0
H373 H 0.44497 0.76901 0.65264 0.0
H374 H 0.40027 0.76927 0.5375 0.0
H375 H 0.38837 0.80046 0.57446 0.0
H376 H 0.38631 0.71673 0.56641 0.0
H377 H 0.49927 0.78431 0.54988 0.0
H378 H 0.48546 0.78119 0.60465 0.0
H379 H 0.47673 0.79766 0.56205 0.0
C380 C 0.42621 0.79417 0.65665 0.0
C381 C 0.4099 0.8031 0.63533 0.0
C382 C 0.43297 0.77618 0.63525 0.0
C383 C 0.42367 0.76701 0.59217 0.0
C384 C 0.40768 0.77614 0.57073 0.0
H385 H 0.46375 0.68396 0.39196 0.0
H386 H 0.45976 0.71704 0.43968 0.0
C387 C 0.4009 0.794 0.59199 0.0
C388 C 0.42929 0.74687 0.56972 0.0
H389 H 0.4803 0.73836 0.525 0.0
C390 C 0.40687 0.72137 0.55756 0.0
C391 C 0.45612 0.75315 0.55794 0.0
C392 C 0.48083 0.78063 0.56891 0.0
C393 C 0.41047 0.70206 0.53342 0.0
C394 C 0.4373 0.70823 0.52184 0.0
C395 C 0.45979 0.73364 0.53429 0.0
C396 C 0.44214 0.68899 0.4949 0.0
C397 C 0.38543 0.67561 0.51925 0.0
C398 C 0.43424 0.66253 0.51063 0.0
C399 C 0.43632 0.64352 0.4834 0.0
C400 C 0.44657 0.65071 0.44 0.0
C401 C 0.45565 0.67769 0.4251 0.0
C402 C 0.45345 0.69665 0.45234 0.0
H403 H 0.36642 0.67685 0.52202 0.0
H404 H 0.38758 0.67043 0.48456 0.0
H405 H 0.38303 0.65854 0.54077 0.0
H406 H 0.42592 0.6564 0.54369 0.0
H407 H 0.42941 0.62303 0.49613 0.0
H408 H 0.6152 0.45592 0.83805 0.0
H409 H 0.65923 0.47226 0.80004 0.0
H410 H 0.62263 0.39962 0.71795 0.0
H411 H 0.57862 0.38367 0.75453 0.0
H412 H 0.69245 0.45148 0.79207 0.0
H413 H 0.6566 0.45871 0.62581 0.0
H414 H 0.63635 0.45379 0.6749 0.0
H415 H 0.63583 0.4248 0.64813 0.0
C416 C 0.61657 0.44348 0.81183 0.0
C417 C 0.59335 0.41866 0.79895 0.0
C418 C 0.64171 0.45286 0.79012 0.0
C419 C 0.64404 0.43752 0.75534 0.0
C420 C 0.62111 0.41228 0.74362 0.0
H421 H 0.78154 0.43042 0.65471 0.0
H422 H 0.74437 0.42874 0.69843 0.0
C423 C 0.59598 0.40308 0.76484 0.0
C424 C 0.67049 0.44734 0.73178 0.0
H425 H 0.69803 0.45622 0.62833 0.0
C426 C 0.69381 0.45292 0.75629 0.0
C427 C 0.67252 0.44999 0.68518 0.0
C428 C 0.64905 0.44682 0.65707 0.0
C429 C 0.71864 0.45953 0.7353 0.0
C430 C 0.7199 0.45971 0.68851 0.0
C431 C 0.69702 0.45566 0.66416 0.0
C432 C 0.744 0.46236 0.66397 0.0
C433 C 0.74318 0.46619 0.76358 0.0
C434 C 0.75582 0.48133 0.62912 0.0
C435 C 0.77674 0.4819 0.60325 0.0
C436 C 0.78634 0.4636 0.61194 0.0
C437 C 0.77485 0.44501 0.6474 0.0
C438 C 0.75371 0.4442 0.67277 0.0
H439 H 0.74212 0.47522 0.79574 0.0
H440 H 0.74341 0.44692 0.77079 0.0
H441 H 0.76268 0.48084 0.74678 0.0
H442 H 0.74855 0.49543 0.62148 0.0
H443 H 0.78518 0.49649 0.57622 0.0
H444 H 0.33743 0.80159 0.83577 0.0
H445 H 0.30362 0.76306 0.88018 0.0
H446 H 0.24481 0.73949 0.77476 0.0
H447 H 0.27837 0.77827 0.73017 0.0
H448 H 0.22226 0.73574 0.86016 0.0
H449 H 0.28396 0.6837 0.85117 0.0
H450 H 0.30195 0.71812 0.87286 0.0
H451 H 0.29075 0.71252 0.81632 0.0
C452 C 0.31724 0.78838 0.82208 0.0
C453 C 0.31072 0.79285 0.77916 0.0
C454 C 0.29798 0.76631 0.8475 0.0
C455 C 0.27193 0.74815 0.8304 0.0
C456 C 0.26489 0.75322 0.78843 0.0
H457 H 0.16155 0.58028 0.90581 0.0
H458 H 0.19246 0.62362 0.86888 0.0
C459 C 0.28411 0.77537 0.76299 0.0
C460 C 0.2525 0.72314 0.85535 0.0
H461 H 0.24427 0.66276 0.89609 0.0
C462 C 0.22703 0.71977 0.86815 0.0
C463 C 0.25872 0.70223 0.86517 0.0
C464 C 0.28521 0.70409 0.85038 0.0
C465 C 0.20759 0.69601 0.89074 0.0
C466 C 0.21403 0.67534 0.90118 0.0
C467 C 0.2395 0.67875 0.88832 0.0
C468 C 0.19426 0.64935 0.92359 0.0
C469 C 0.1801 0.69289 0.90219 0.0
C470 C 0.18503 0.64943 0.96675 0.0
C471 C 0.16723 0.62458 -0.01193 0.0
C472 C 0.15853 0.59924 0.96666 0.0
C473 C 0.16782 0.59936 0.92337 0.0
C474 C 0.18551 0.62413 0.90214 0.0
H475 H 0.17611 0.70743 0.88318 0.0
H476 H 0.1633 0.67155 0.89569 0.0
H477 H 0.17965 0.69721 0.9379 0.0
H478 H 0.19196 0.66866 -0.0158 0.0
H479 H 0.16057 0.62524 0.02146 0.0
H480 H 0.51671 0.34844 0.00098 0.0
H481 H 0.52063 0.31597 0.04991 0.0
H482 H 0.48882 0.25441 0.94723 0.0
H483 H 0.48434 0.28654 0.89823 0.0
H484 H 0.46845 0.23319 0.03235 0.0
H485 H 0.58212 0.29826 0.0297 0.0
H486 H 0.56422 0.31541 0.0482 0.0
H487 H 0.5605 0.30359 -0.00797 0.0
C488 C 0.51027 0.3279 -0.01111 0.0
C489 C 0.50053 0.32021 0.94545 0.0
C490 C 0.51261 0.30941 0.01689 0.0
C491 C 0.50551 0.283 0.00187 0.0
C492 C 0.49452 0.27477 0.95936 0.0
H493 H 0.56427 0.17578 0.07831 0.0
H494 H 0.55137 0.2066 0.04311 0.0
C495 C 0.49204 0.29319 0.93138 0.0
C496 C 0.51107 0.2645 0.02927 0.0
H497 H 0.56325 0.25823 0.07358 0.0
C498 C 0.48913 0.23867 0.04166 0.0
C499 C 0.53814 0.27167 0.04088 0.0
C500 C 0.56266 0.29862 0.02677 0.0
C501 C 0.49359 0.21965 0.06507 0.0
C502 C 0.52066 0.22688 0.07671 0.0
C503 C 0.54251 0.25285 0.06483 0.0
C504 C 0.52717 0.2072 0.09833 0.0
C505 C 0.46948 0.19166 0.07579 0.0
C506 C 0.51781 0.19727 0.14119 0.0
C507 C 0.52513 0.17949 0.16157 0.0
C508 C 0.54207 0.17152 0.13945 0.0
C509 C 0.55124 0.18148 0.09643 0.0
C510 C 0.5439 0.19913 0.07618 0.0
H511 H 0.45086 0.18742 0.05704 0.0
H512 H 0.47439 0.17521 0.06836 0.0
H513 H 0.46471 0.19065 0.1116 0.0
H514 H 0.50524 0.20362 0.15913 0.0
H515 H 0.51779 0.17228 0.19477 0.0
loop_
_geom_bond_atom_site_label_1
_geom_bond_atom_site_label_2
_geom_bond_distance
_geom_bond_site_symmetry_2
_ccdc_geom_bond_type
C0 O1 1.306 . S
C0 O3 1.160 . S
O1 C0 1.306 . S
O1 Cd2 2.228 . S
Cd2 O1 2.228 . S
Cd2 O6 2.273 . S
Cd2 O10 2.277 . S
O3 C0 1.160 . S
O3 Cd4 2.203 . S
Cd4 O3 2.203 . S
Cd4 O6 2.411 . S
Cd4 O7 2.333 . S
Cd4 O8 2.352 . S
Cd4 O12 2.277 . S
Cd4 O13 2.356 . S
C5 O10 1.209 . S
C5 O12 1.226 . S
O6 Cd2 2.273 . S
O6 Cd4 2.411 . S
O6 C9 1.320 . S
O7 Cd4 2.333 . S
O7 C9 1.214 . S
O8 Cd4 2.352 . S
O8 C11 1.258 . S
C9 O6 1.320 . S
C9 O7 1.214 . S
O10 Cd2 2.277 . S
O10 C5 1.209 . S
C11 O8 1.258 . S
C11 O13 1.282 . S
O12 Cd4 2.277 . S
O12 C5 1.226 . S
O13 Cd4 2.356 . S
O13 C11 1.282 . S
C14 O15 1.306 . S
C14 O17 1.160 . S
O15 C14 1.306 . S
O15 Cd16 2.228 . S
Cd16 O15 2.228 . S
Cd16 O20 2.273 . S
Cd16 O24 2.277 . S
O17 C14 1.160 . S
O17 Cd18 2.203 . S
Cd18 O17 2.203 . S
Cd18 O20 2.411 . S
Cd18 O21 2.333 . S
Cd18 O22 2.352 . S
Cd18 O26 2.277 . S
Cd18 O27 2.356 . S
C19 O24 1.209 . S
C19 O26 1.226 . S
O20 Cd16 2.273 . S
O20 Cd18 2.411 . S
O20 C23 1.320 . S
O21 Cd18 2.333 . S
O21 C23 1.214 . S
O22 Cd18 2.352 . S
O22 C25 1.258 . S
C23 O20 1.320 . S
C23 O21 1.214 . S
O24 Cd16 2.277 . S
O24 C19 1.209 . S
C25 O22 1.258 . S
C25 O27 1.282 . S
O26 Cd18 2.277 . S
O26 C19 1.226 . S
O27 Cd18 2.356 . S
O27 C25 1.282 . S
C28 O29 1.306 . S
C28 O31 1.160 . S
O29 C28 1.306 . S
O29 Cd30 2.228 . S
Cd30 O29 2.228 . S
Cd30 O34 2.273 . S
Cd30 O38 2.277 . S
O31 C28 1.160 . S
O31 Cd32 2.203 . S
Cd32 O31 2.203 . S
Cd32 O34 2.411 . S
Cd32 O35 2.333 . S
Cd32 O36 2.352 . S
Cd32 O40 2.277 . S
Cd32 O41 2.356 . S
C33 O38 1.209 . S
C33 O40 1.226 . S
O34 Cd30 2.273 . S
O34 Cd32 2.411 . S
O34 C37 1.320 . S
O35 Cd32 2.333 . S
O35 C37 1.214 . S
O36 Cd32 2.352 . S
O36 C39 1.258 . S
C37 O34 1.320 . S
C37 O35 1.214 . S
O38 Cd30 2.277 . S
O38 C33 1.209 . S
C39 O36 1.258 . S
C39 O41 1.282 . S
O40 Cd32 2.277 . S
O40 C33 1.226 . S
O41 Cd32 2.356 . S
O41 C39 1.282 . S
C42 O43 1.306 . S
C42 O45 1.160 . S
O43 C42 1.306 . S
O43 Cd44 2.228 . S
Cd44 O43 2.228 . S
Cd44 O48 2.273 . S
Cd44 O52 2.277 . S
O45 C42 1.160 . S
O45 Cd46 2.203 . S
Cd46 O45 2.203 . S
Cd46 O48 2.411 . S
Cd46 O49 2.333 . S
Cd46 O50 2.352 . S
Cd46 O54 2.277 . S
Cd46 O55 2.356 . S
C47 O52 1.209 . S
C47 O54 1.226 . S
O48 Cd44 2.273 . S
O48 Cd46 2.411 . S
O48 C51 1.320 . S
O49 Cd46 2.333 . S
O49 C51 1.214 . S
O50 Cd46 2.352 . S
O50 C53 1.258 . S
C51 O48 1.320 . S
C51 O49 1.214 . S
O52 Cd44 2.277 . S
O52 C47 1.209 . S
C53 O50 1.258 . S
C53 O55 1.282 . S
O54 Cd46 2.277 . S
O54 C47 1.226 . S
O55 Cd46 2.356 . S
O55 C53 1.282 . S
C56 O57 1.306 . S
C56 O59 1.160 . S
O57 C56 1.306 . S
O57 Cd58 2.228 . S
Cd58 O57 2.228 . S
Cd58 O62 2.273 . S
Cd58 O66 2.277 . S
O59 C56 1.160 . S
O59 Cd60 2.203 . S
Cd60 O59 2.203 . S
Cd60 O62 2.411 . S
Cd60 O63 2.333 . S
Cd60 O64 2.352 . S
Cd60 O68 2.277 . S
Cd60 O69 2.356 . S
C61 O66 1.209 . S
C61 O68 1.226 . S
O62 Cd58 2.273 . S
O62 Cd60 2.411 . S
O62 C65 1.320 . S
O63 Cd60 2.333 . S
O63 C65 1.214 . S
O64 Cd60 2.352 . S
O64 C67 1.258 . S
C65 O62 1.320 . S
C65 O63 1.214 . S
O66 Cd58 2.277 . S
O66 C61 1.209 . S
C67 O64 1.258 . S
C67 O69 1.282 . S
O68 Cd60 2.277 . S
O68 C61 1.226 . S
O69 Cd60 2.356 . S
O69 C67 1.282 . S
C70 O71 1.306 . S
C70 O73 1.160 . S
O71 C70 1.306 . S
O71 Cd72 2.228 . S
Cd72 O71 2.228 . S
Cd72 O76 2.273 . S
Cd72 O80 2.277 . S
O73 C70 1.160 . S
O73 Cd74 2.203 . S
Cd74 O73 2.203 . S
Cd74 O76 2.411 . S
Cd74 O77 2.333 . S
Cd74 O78 2.352 . S
Cd74 O82 2.277 . S
Cd74 O83 2.356 . S
C75 O80 1.209 . S
C75 O82 1.226 . S
O76 Cd72 2.273 . S
O76 Cd74 2.411 . S
O76 C79 1.320 . S
O77 Cd74 2.333 . S
O77 C79 1.214 . S
O78 Cd74 2.352 . S
O78 C81 1.258 . S
C79 O76 1.320 . S
C79 O77 1.214 . S
O80 Cd72 2.277 . S
O80 C75 1.209 . S
C81 O78 1.258 . S
C81 O83 1.282 . S
O82 Cd74 2.277 . S
O82 C75 1.226 . S
O83 Cd74 2.356 . S
O83 C81 1.282 . S
H84 C92 0.929 1_554 S
H85 C94 0.930 . S
H86 C96 0.930 . S
H87 C99 0.929 . S
H88 C102 0.930 . S
H89 C104 0.960 1_655 S
H90 C104 0.960 1_655 S
H91 C104 0.960 . S
C92 H84 0.929 1_556 S
C92 C93 1.377 . S
C92 C94 1.384 . S
C93 C92 1.377 . S
C93 C99 1.390 . S
C94 H85 0.930 . S
C94 C92 1.384 . S
C94 C95 1.372 . S
C95 C94 1.372 . S
C95 C96 1.400 . S
C95 C100 1.490 . S
C96 H86 0.930 . S
C96 C95 1.400 . S
C96 C99 1.386 . S
H97 C113 0.930 . S
H98 C114 0.931 . S
C99 H87 0.929 . S
C99 C93 1.390 . S
C99 C96 1.386 . S
C100 C95 1.490 . S
C100 C102 1.395 . S
C100 C103 1.403 . S
H101 C107 0.930 . S
C102 H88 0.930 . S
C102 C100 1.395 . S
C102 C105 1.403 . S
C103 C100 1.403 . S
C103 C104 1.524 . S
C103 C107 1.400 1_455 S
C104 H89 0.960 1_455 S
C104 H90 0.960 1_455 S
C104 H91 0.960 . S
C104 C103 1.524 . S
C105 C102 1.403 . S
C105 C106 1.392 1_455 S
C105 C109 1.495 . S
C106 C105 1.392 1_655 S
C106 C107 1.385 . S
C106 C108 1.478 . S
C107 H101 0.930 . S
C107 C103 1.400 1_655 S
C107 C106 1.385 . S
C108 C106 1.478 . S
C108 C110 1.381 . S
C108 C114 1.383 . S
C109 C105 1.495 . S
C109 H115 0.959 . S
C109 H116 0.961 . S
C109 H117 0.960 1_455 S
C110 C108 1.381 . S
C110 C111 1.394 . S
C110 H118 0.930 . S
C111 C110 1.394 . S
C111 C112 1.383 . S
C111 H119 0.929 . S
C112 C111 1.383 . S
C112 C113 1.377 . S
C113 H97 0.930 . S
C113 C112 1.377 . S
C113 C114 1.379 . S
C114 H98 0.931 . S
C114 C108 1.383 . S
C114 C113 1.379 . S
H115 C109 0.959 . S
H116 C109 0.961 . S
H117 C109 0.960 1_655 S
H118 C110 0.930 . S
H119 C111 0.929 . S
H120 C128 0.929 . S
H121 C130 0.930 . S
H122 C132 0.930 . S
H123 C135 0.929 . S
H124 C138 0.930 . S
H125 C140 0.960 . S
H126 C140 0.960 1_556 S
H127 C140 0.960 . S
C128 H120 0.929 . S
C128 C129 1.377 . S
C128 C130 1.384 . S
C129 C128 1.377 . S
C129 C135 1.390 . S
C130 H121 0.930 . S
C130 C128 1.384 . S
C130 C131 1.372 . S
C131 C130 1.372 . S
C131 C132 1.400 . S
C131 C136 1.490 . S
C132 H122 0.930 . S
C132 C131 1.400 . S
C132 C135 1.386 . S
H133 C149 0.930 . S
H134 C150 0.931 . S
C135 H123 0.929 . S
C135 C129 1.390 . S
C135 C132 1.386 . S
C136 C131 1.490 . S
C136 C138 1.395 1_565 S
C136 C139 1.389 1_556 S
H137 C143 0.930 . S
C138 H124 0.930 . S
C138 C136 1.395 1_545 S
C138 C141 1.392 1_556 S
C139 C136 1.389 1_554 S
C139 C140 1.524 . S
C139 C143 1.413 1_565 S
C140 H125 0.960 . S
C140 H126 0.960 1_554 S
C140 H127 0.960 . S
C140 C139 1.524 . S
C141 C138 1.392 1_554 S
C141 C142 1.404 . S
C141 C145 1.495 1_554 S
C142 C141 1.404 . S
C142 C143 1.385 . S
C142 C144 1.478 . S
C143 H137 0.930 . S
C143 C139 1.413 1_545 S
C143 C142 1.385 . S
C144 C142 1.478 . S
C144 C146 1.381 . S
C144 C150 1.383 . S
C145 C141 1.495 1_556 S
C145 H151 0.973 . S
C145 H152 0.947 1_556 S
C145 H153 0.960 . S
C146 C144 1.381 . S
C146 C147 1.394 . S
C146 H154 0.930 . S
C147 C146 1.394 . S
C147 C148 1.383 . S
C147 H155 0.929 . S
C148 C147 1.383 . S
C148 C149 1.377 . S
C149 H133 0.930 . S
C149 C148 1.377 . S
C149 C150 1.379 . S
C150 H134 0.931 . S
C150 C144 1.383 . S
C150 C149 1.379 . S
H151 C145 0.973 . S
H152 C145 0.947 1_554 S
H153 C145 0.960 . S
H154 C146 0.930 . S
H155 C147 0.929 . S
H156 C164 0.929 . S
H157 C166 0.930 . S
H158 C168 0.930 . S
H159 C171 0.929 . S
H160 C174 0.930 . S
H161 C176 0.960 . S
H162 C176 0.960 . S
H163 C176 0.960 . S
C164 H156 0.929 . S
C164 C165 1.377 . S
C164 C166 1.384 . S
C165 C164 1.377 . S
C165 C171 1.390 . S
C166 H157 0.930 . S
C166 C164 1.384 . S
C166 C167 1.372 . S
C167 C166 1.372 . S
C167 C168 1.400 . S
C167 C172 1.490 . S
C168 H158 0.930 . S
C168 C167 1.400 . S
C168 C171 1.386 . S
H169 C185 0.930 . S
H170 C186 0.931 . S
C171 H159 0.929 . S
C171 C165 1.390 . S
C171 C168 1.386 . S
C172 C167 1.490 . S
C172 C174 1.395 . S
C172 C175 1.403 . S
H173 C179 0.930 . S
C174 H160 0.930 . S
C174 C172 1.395 . S
C174 C177 1.403 . S
C175 C172 1.403 . S
C175 C176 1.524 . S
C175 C179 1.400 . S
C176 H161 0.960 . S
C176 H162 0.960 . S
C176 H163 0.960 . S
C176 C175 1.524 . S
C177 C174 1.403 . S
C177 C178 1.392 . S
C177 C181 1.495 . S
C178 C177 1.392 . S
C178 C179 1.385 . S
C178 C180 1.478 . S
C179 H173 0.930 . S
C179 C175 1.400 . S
C179 C178 1.385 . S
C180 C178 1.478 . S
C180 C182 1.381 . S
C180 C186 1.383 . S
C181 C177 1.495 . S
C181 H187 0.959 . S
C181 H188 0.961 . S
C181 H189 0.960 . S
C182 C180 1.381 . S
C182 C183 1.394 . S
C182 H190 0.930 . S
C183 C182 1.394 . S
C183 C184 1.383 . S
C183 H191 0.929 . S
C184 C183 1.383 . S
C184 C185 1.377 . S
C185 H169 0.930 . S
C185 C184 1.377 . S
C185 C186 1.379 . S
C186 H170 0.931 . S
C186 C180 1.383 . S
C186 C185 1.379 . S
H187 C181 0.959 . S
H188 C181 0.961 . S
H189 C181 0.960 . S
H190 C182 0.930 . S
H191 C183 0.929 . S
H192 C200 0.929 . S
H193 C202 0.930 . S
H194 C204 0.930 . S
H195 C207 0.929 . S
H196 C210 0.930 . S
H197 C212 0.960 . S
H198 C212 0.960 . S
H199 C212 0.960 1_655 S
C200 H192 0.929 . S
C200 C201 1.377 . S
C200 C202 1.384 . S
C201 C200 1.377 . S
C201 C207 1.390 . S
C202 H193 0.930 . S
C202 C200 1.384 . S
C202 C203 1.372 . S
C203 C202 1.372 . S
C203 C204 1.400 . S
C203 C208 1.490 . S
C204 H194 0.930 . S
C204 C203 1.400 . S
C204 C207 1.386 . S
H205 C221 0.930 . S
H206 C222 0.931 . S
C207 H195 0.929 . S
C207 C201 1.390 . S
C207 C204 1.386 . S
C208 C203 1.490 . S
C208 C210 1.395 . S
C208 C211 1.403 . S
H209 C215 0.930 . S
C210 H196 0.930 . S
C210 C208 1.395 . S
C210 C213 1.403 . S
C211 C208 1.403 . S
C211 C212 1.524 1_655 S
C211 C215 1.400 1_655 S
C212 H197 0.960 . S
C212 H198 0.960 . S
C212 H199 0.960 1_455 S
C212 C211 1.524 1_455 S
C213 C210 1.403 . S
C213 C214 1.392 1_655 S
C213 C217 1.495 . S
C214 C213 1.392 1_455 S
C214 C215 1.385 . S
C214 C216 1.478 . S
C215 H209 0.930 . S
C215 C211 1.400 1_455 S
C215 C214 1.385 . S
C216 C214 1.478 . S
C216 C218 1.381 . S
C216 C222 1.383 . S
C217 C213 1.495 . S
C217 H223 0.959 . S
C217 H224 0.961 . S
C217 H225 0.960 1_655 S
C218 C216 1.381 . S
C218 C219 1.394 . S
C218 H226 0.930 . S
C219 C218 1.394 . S
C219 C220 1.383 . S
C219 H227 0.929 . S
C220 C219 1.383 . S
C220 C221 1.377 . S
C221 H205 0.930 . S
C221 C220 1.377 . S
C221 C222 1.379 . S
C222 H206 0.931 . S
C222 C216 1.383 . S
C222 C221 1.379 . S
H223 C217 0.959 . S
H224 C217 0.961 . S
H225 C217 0.960 1_455 S
H226 C218 0.930 . S
H227 C219 0.929 . S
H228 C236 0.929 . S
H229 C238 0.930 . S
H230 C240 0.930 . S
H231 C243 0.929 . S
H232 C246 0.930 . S
H233 C248 0.960 . S
H234 C248 0.960 . S
H235 C248 0.960 . S
C236 H228 0.929 . S
C236 C237 1.377 . S
C236 C238 1.384 . S
C237 C236 1.377 . S
C237 C243 1.390 . S
C238 H229 0.930 . S
C238 C236 1.384 . S
C238 C239 1.372 . S
C239 C238 1.372 . S
C239 C240 1.400 . S
C239 C244 1.490 . S
C240 H230 0.930 . S
C240 C239 1.400 . S
C240 C243 1.386 . S
H241 C257 0.930 . S
H242 C258 0.931 . S
C243 H231 0.929 . S
C243 C237 1.390 . S
C243 C240 1.386 . S
C244 C239 1.490 . S
C244 C246 1.395 . S
C244 C247 1.403 1_545 S
H245 C251 0.930 . S
C246 H232 0.930 . S
C246 C244 1.395 . S
C246 C249 1.403 . S
C247 C244 1.403 1_565 S
C247 C248 1.524 . S
C247 C251 1.400 . S
C248 H233 0.960 . S
C248 H234 0.960 . S
C248 H235 0.960 . S
C248 C247 1.524 . S
C249 C246 1.403 . S
C249 C250 1.392 1_545 S
C249 C253 1.495 . S
C250 C249 1.392 1_565 S
C250 C251 1.385 . S
C250 C252 1.478 . S
C251 H245 0.930 . S
C251 C247 1.400 . S
C251 C250 1.385 . S
C252 C250 1.478 . S
C252 C254 1.381 . S
C252 C258 1.383 . S
C253 C249 1.495 . S
C253 H259 0.959 . S
C253 H260 0.961 . S
C253 H261 0.960 . S
C254 C252 1.381 . S
C254 C255 1.394 . S
C254 H262 0.930 . S
C255 C254 1.394 . S
C255 C256 1.383 . S
C255 H263 0.929 . S
C256 C255 1.383 . S
C256 C257 1.377 . S
C257 H241 0.930 . S
C257 C256 1.377 . S
C257 C258 1.379 . S
C258 H242 0.931 . S
C258 C252 1.383 . S
C258 C257 1.379 . S
H259 C253 0.959 . S
H260 C253 0.961 . S
H261 C253 0.960 . S
H262 C254 0.930 . S
H263 C255 0.929 . S
H264 C272 0.929 . S
H265 C274 0.930 . S
H266 C276 0.930 . S
H267 C279 0.929 . S
H268 C282 0.930 . S
H269 C284 0.960 . S
H270 C284 0.960 . S
H271 C284 0.960 . S
C272 H264 0.929 . S
C272 C273 1.377 . S
C272 C274 1.384 . S
C273 C272 1.377 . S
C273 C279 1.390 . S
C274 H265 0.930 . S
C274 C272 1.384 . S
C274 C275 1.372 . S
C275 C274 1.372 . S
C275 C276 1.400 . S
C275 C280 1.490 . S
C276 H266 0.930 . S
C276 C275 1.400 . S
C276 C279 1.386 . S
H277 C293 0.930 . S
H278 C294 0.931 . S
C279 H267 0.929 . S
C279 C273 1.390 . S
C279 C276 1.386 . S
C280 C275 1.490 . S
C280 C282 1.395 . S
C280 C283 1.403 . S
H281 C287 0.930 . S
C282 H268 0.930 . S
C282 C280 1.395 . S
C282 C285 1.403 . S
C283 C280 1.403 . S
C283 C284 1.524 . S
C283 C287 1.400 . S
C284 H269 0.960 . S
C284 H270 0.960 . S
C284 H271 0.960 . S
C284 C283 1.524 . S
C285 C282 1.403 . S
C285 C286 1.392 . S
C285 C289 1.495 . S
C286 C285 1.392 . S
C286 C287 1.385 . S
C286 C288 1.478 . S
C287 H281 0.930 . S
C287 C283 1.400 . S
C287 C286 1.385 . S
C288 C286 1.478 . S
C288 C290 1.381 . S
C288 C294 1.383 . S
C289 C285 1.495 . S
C289 H295 0.959 . S
C289 H296 0.961 . S
C289 H297 0.960 . S
C290 C288 1.381 . S
C290 C291 1.394 . S
C290 H298 0.930 . S
C291 C290 1.394 . S
C291 C292 1.383 . S
C291 H299 0.929 . S
C292 C291 1.383 . S
C292 C293 1.377 . S
C293 H277 0.930 . S
C293 C292 1.377 . S
C293 C294 1.379 . S
C294 H278 0.931 . S
C294 C288 1.383 . S
C294 C293 1.379 . S
H295 C289 0.959 . S
H296 C289 0.961 . S
H297 C289 0.960 . S
H298 C290 0.930 . S
H299 C291 0.929 . S
H300 C308 0.929 . S
H301 C310 0.930 . S
H302 C312 0.930 . S
H303 C315 0.929 . S
H304 C318 0.930 . S
H305 C320 0.960 . S
H306 C320 0.960 . S
H307 C320 0.960 . S
C308 H300 0.929 . S
C308 C309 1.377 . S
C308 C310 1.384 . S
C309 C308 1.377 . S
C309 C315 1.390 . S
C310 H301 0.930 . S
C310 C308 1.384 . S
C310 C311 1.372 . S
C311 C310 1.372 . S
C311 C312 1.400 . S
C311 C316 1.490 . S
C312 H302 0.930 . S
C312 C311 1.400 . S
C312 C315 1.386 . S
H313 C329 0.930 . S
H314 C330 0.931 . S
C315 H303 0.929 . S
C315 C309 1.390 . S
C315 C312 1.386 . S
C316 C311 1.490 . S
C316 C318 1.395 . S
C316 C319 1.403 . S
H317 C323 0.930 . S
C318 H304 0.930 . S
C318 C316 1.395 . S
C318 C321 1.403 . S
C319 C316 1.403 . S
C319 C320 1.524 . S
C319 C323 1.400 . S
C320 H305 0.960 . S
C320 H306 0.960 . S
C320 H307 0.960 . S
C320 C319 1.524 . S
C321 C318 1.403 . S
C321 C322 1.392 . S
C321 C325 1.495 . S
C322 C321 1.392 . S
C322 C323 1.385 . S
C322 C324 1.478 . S
C323 H317 0.930 . S
C323 C319 1.400 . S
C323 C322 1.385 . S
C324 C322 1.478 . S
C324 C326 1.381 . S
C324 C330 1.383 . S
C325 C321 1.495 . S
C325 H331 0.959 . S
C325 H332 0.961 . S
C325 H333 0.960 . S
C326 C324 1.381 . S
C326 C327 1.394 . S
C326 H334 0.930 . S
C327 C326 1.394 . S
C327 C328 1.383 . S
C327 H335 0.929 . S
C328 C327 1.383 . S
C328 C329 1.377 . S
C329 H313 0.930 . S
C329 C328 1.377 . S
C329 C330 1.379 . S
C330 H314 0.931 . S
C330 C324 1.383 . S
C330 C329 1.379 . S
H331 C325 0.959 . S
H332 C325 0.961 . S
H333 C325 0.960 . S
H334 C326 0.930 . S
H335 C327 0.929 . S
H336 C344 0.929 . S
H337 C346 0.930 . S
H338 C348 0.930 . S
H339 C351 0.929 . S
H340 C354 0.930 . S
H341 C356 0.960 . S
H342 C356 0.960 . S
H343 C356 0.960 . S
C344 H336 0.929 . S
C344 C345 1.377 . S
C344 C346 1.384 . S
C345 C344 1.377 . S
C345 C351 1.390 . S
C346 H337 0.930 . S
C346 C344 1.384 . S
C346 C347 1.372 . S
C347 C346 1.372 . S
C347 C348 1.400 . S
C347 C352 1.490 . S
C348 H338 0.930 . S
C348 C347 1.400 . S
C348 C351 1.386 . S
H349 C365 0.930 . S
H350 C366 0.931 . S
C351 H339 0.929 . S
C351 C345 1.390 . S
C351 C348 1.386 . S
C352 C347 1.490 . S
C352 C354 1.395 . S
C352 C355 1.403 . S
H353 C359 0.930 . S
C354 H340 0.930 . S
C354 C352 1.395 . S
C354 C357 1.403 . S
C355 C352 1.403 . S
C355 C356 1.524 . S
C355 C359 1.400 . S
C356 H341 0.960 . S
C356 H342 0.960 . S
C356 H343 0.960 . S
C356 C355 1.524 . S
C357 C354 1.403 . S
C357 C358 1.392 . S
C357 C361 1.495 . S
C358 C357 1.392 . S
C358 C359 1.385 . S
C358 C360 1.478 . S
C359 H353 0.930 . S
C359 C355 1.400 . S
C359 C358 1.385 . S
C360 C358 1.478 . S
C360 C362 1.381 . S
C360 C366 1.383 . S
C361 C357 1.495 . S
C361 H367 0.959 . S
C361 H368 0.961 . S
C361 H369 0.960 . S
C362 C360 1.381 . S
C362 C363 1.394 . S
C362 H370 0.930 . S
C363 C362 1.394 . S
C363 C364 1.383 . S
C363 H371 0.929 . S
C364 C363 1.383 . S
C364 C365 1.377 . S
C365 H349 0.930 . S
C365 C364 1.377 . S
C365 C366 1.379 . S
C366 H350 0.931 . S
C366 C360 1.383 . S
C366 C365 1.379 . S
H367 C361 0.959 . S
H368 C361 0.961 . S
H369 C361 0.960 . S
H370 C362 0.930 . S
H371 C363 0.929 . S
H372 C380 0.929 . S
H373 C382 0.930 . S
H374 C384 0.930 . S
H375 C387 0.929 . S
H376 C390 0.930 . S
H377 C392 0.960 . S
H378 C392 0.960 . S
H379 C392 0.960 . S
C380 H372 0.929 . S
C380 C381 1.377 . S
C380 C382 1.384 . S
C381 C380 1.377 . S
C381 C387 1.390 . S
C382 H373 0.930 . S
C382 C380 1.384 . S
C382 C383 1.372 . S
C383 C382 1.372 . S
C383 C384 1.400 . S
C383 C388 1.490 . S
C384 H374 0.930 . S
C384 C383 1.400 . S
C384 C387 1.386 . S
H385 C401 0.930 . S
H386 C402 0.931 . S
C387 H375 0.929 . S
C387 C381 1.390 . S
C387 C384 1.386 . S
C388 C383 1.490 . S
C388 C390 1.395 . S
C388 C391 1.403 . S
H389 C395 0.930 . S
C390 H376 0.930 . S
C390 C388 1.395 . S
C390 C393 1.403 . S
C391 C388 1.403 . S
C391 C392 1.524 . S
C391 C395 1.400 . S
C392 H377 0.960 . S
C392 H378 0.960 . S
C392 H379 0.960 . S
C392 C391 1.524 . S
C393 C390 1.403 . S
C393 C394 1.392 . S
C393 C397 1.495 . S
C394 C393 1.392 . S
C394 C395 1.385 . S
C394 C396 1.478 . S
C395 H389 0.930 . S
C395 C391 1.400 . S
C395 C394 1.385 . S
C396 C394 1.478 . S
C396 C398 1.381 . S
C396 C402 1.383 . S
C397 C393 1.495 . S
C397 H403 0.959 . S
C397 H404 0.961 . S
C397 H405 0.960 . S
C398 C396 1.381 . S
C398 C399 1.394 . S
C398 H406 0.930 . S
C399 C398 1.394 . S
C399 C400 1.383 . S
C399 H407 0.929 . S
C400 C399 1.383 . S
C400 C401 1.377 . S
C401 H385 0.930 . S
C401 C400 1.377 . S
C401 C402 1.379 . S
C402 H386 0.931 . S
C402 C396 1.383 . S
C402 C401 1.379 . S
H403 C397 0.959 . S
H404 C397 0.961 . S
H405 C397 0.960 . S
H406 C398 0.930 . S
H407 C399 0.929 . S
H408 C416 0.929 . S
H409 C418 0.930 . S
H410 C420 0.930 . S
H411 C423 0.929 . S
H412 C426 0.930 . S
H413 C428 0.960 . S
H414 C428 0.960 . S
H415 C428 0.960 . S
C416 H408 0.929 . S
C416 C417 1.377 . S
C416 C418 1.384 . S
C417 C416 1.377 . S
C417 C423 1.390 . S
C418 H409 0.930 . S
C418 C416 1.384 . S
C418 C419 1.372 . S
C419 C418 1.372 . S
C419 C420 1.400 . S
C419 C424 1.490 . S
C420 H410 0.930 . S
C420 C419 1.400 . S
C420 C423 1.386 . S
H421 C437 0.930 . S
H422 C438 0.931 . S
C423 H411 0.929 . S
C423 C417 1.390 . S
C423 C420 1.386 . S
C424 C419 1.490 . S
C424 C426 1.395 . S
C424 C427 1.403 . S
H425 C431 0.930 . S
C426 H412 0.930 . S
C426 C424 1.395 . S
C426 C429 1.403 . S
C427 C424 1.403 . S
C427 C428 1.524 . S
C427 C431 1.400 . S
C428 H413 0.960 . S
C428 H414 0.960 . S
C428 H415 0.960 . S
C428 C427 1.524 . S
C429 C426 1.403 . S
C429 C430 1.392 . S
C429 C433 1.495 . S
C430 C429 1.392 . S
C430 C431 1.385 . S
C430 C432 1.478 . S
C431 H425 0.930 . S
C431 C427 1.400 . S
C431 C430 1.385 . S
C432 C430 1.478 . S
C432 C434 1.381 . S
C432 C438 1.383 . S
C433 C429 1.495 . S
C433 H439 0.959 . S
C433 H440 0.961 . S
C433 H441 0.960 . S
C434 C432 1.381 . S
C434 C435 1.394 . S
C434 H442 0.930 . S
C435 C434 1.394 . S
C435 C436 1.383 . S
C435 H443 0.929 . S
C436 C435 1.383 . S
C436 C437 1.377 . S
C437 H421 0.930 . S
C437 C436 1.377 . S
C437 C438 1.379 . S
C438 H422 0.931 . S
C438 C432 1.383 . S
C438 C437 1.379 . S
H439 C433 0.959 . S
H440 C433 0.961 . S
H441 C433 0.960 . S
H442 C434 0.930 . S
H443 C435 0.929 . S
H444 C452 0.929 . S
H445 C454 0.930 . S
H446 C456 0.930 . S
H447 C459 0.929 . S
H448 C462 0.930 . S
H449 C464 0.960 . S
H450 C464 0.960 . S
H451 C464 0.960 . S
C452 H444 0.929 . S
C452 C453 1.377 . S
C452 C454 1.384 . S
C453 C452 1.377 . S
C453 C459 1.390 . S
C454 H445 0.930 . S
C454 C452 1.384 . S
C454 C455 1.372 . S
C455 C454 1.372 . S
C455 C456 1.400 . S
C455 C460 1.490 . S
C456 H446 0.930 . S
C456 C455 1.400 . S
C456 C459 1.386 . S
H457 C473 0.930 . S
H458 C474 0.931 . S
C459 H447 0.929 . S
C459 C453 1.390 . S
C459 C456 1.386 . S
C460 C455 1.490 . S
C460 C462 1.395 . S
C460 C463 1.403 . S
H461 C467 0.930 . S
C462 H448 0.930 . S
C462 C460 1.395 . S
C462 C465 1.403 . S
C463 C460 1.403 . S
C463 C464 1.524 . S
C463 C467 1.400 . S
C464 H449 0.960 . S
C464 H450 0.960 . S
C464 H451 0.960 . S
C464 C463 1.524 . S
C465 C462 1.403 . S
C465 C466 1.392 . S
C465 C469 1.495 . S
C466 C465 1.392 . S
C466 C467 1.385 . S
C466 C468 1.478 . S
C467 H461 0.930 . S
C467 C463 1.400 . S
C467 C466 1.385 . S
C468 C466 1.478 . S
C468 C470 1.381 1_556 S
C468 C474 1.383 . S
C469 C465 1.495 . S
C469 H475 0.959 . S
C469 H476 0.961 . S
C469 H477 0.960 . S
C470 C468 1.381 1_554 S
C470 C471 1.394 . S
C470 H478 0.930 . S
C471 C470 1.394 . S
C471 C472 1.383 . S
C471 H479 0.929 . S
C472 C471 1.383 . S
C472 C473 1.377 1_554 S
C473 H457 0.930 . S
C473 C472 1.377 1_556 S
C473 C474 1.379 . S
C474 H458 0.931 . S
C474 C468 1.383 . S
C474 C473 1.379 . S
H475 C469 0.959 . S
H476 C469 0.961 . S
H477 C469 0.960 . S
H478 C470 0.930 . S
H479 C471 0.929 . S
H480 C488 0.929 . S
H481 C490 0.930 . S
H482 C492 0.930 . S
H483 C495 0.929 . S
H484 C498 0.930 . S
H485 C500 0.960 . S
H486 C500 0.960 . S
H487 C500 0.960 . S
C488 H480 0.929 . S
C488 C489 1.377 1_554 S
C488 C490 1.384 . S
C489 C488 1.377 1_556 S
C489 C495 1.390 . S
C490 H481 0.930 . S
C490 C488 1.384 . S
C490 C491 1.372 . S
C491 C490 1.372 . S
C491 C492 1.400 1_554 S
C491 C496 1.490 . S
C492 H482 0.930 . S
C492 C491 1.400 1_556 S
C492 C495 1.386 . S
H493 C509 0.930 . S
H494 C510 0.931 . S
C495 H483 0.929 . S
C495 C489 1.390 . S
C495 C492 1.386 . S
C496 C491 1.490 . S
C496 C498 1.395 . S
C496 C499 1.403 . S
H497 C503 0.930 . S
C498 H484 0.930 . S
C498 C496 1.395 . S
C498 C501 1.403 . S
C499 C496 1.403 . S
C499 C500 1.524 . S
C499 C503 1.400 . S
C500 H485 0.960 . S
C500 H486 0.960 . S
C500 H487 0.960 . S
C500 C499 1.524 . S
C501 C498 1.403 . S
C501 C502 1.392 . S
C501 C505 1.495 . S
C502 C501 1.392 . S
C502 C503 1.385 . S
C502 C504 1.478 . S
C503 H497 0.930 . S
C503 C499 1.400 . S
C503 C502 1.385 . S
C504 C502 1.478 . S
C504 C506 1.381 . S
C504 C510 1.383 . S
C505 C501 1.495 . S
C505 H511 0.959 . S
C505 H512 0.961 . S
C505 H513 0.960 . S
C506 C504 1.381 . S
C506 C507 1.394 . S
C506 H514 0.930 . S
C507 C506 1.394 . S
C507 C508 1.383 . S
C507 H515 0.929 . S
C508 C507 1.383 . S
C508 C509 1.377 . S
C509 H493 0.930 . S
C509 C508 1.377 . S
C509 C510 1.379 . S
C510 H494 0.931 . S
C510 C504 1.383 . S
C510 C509 1.379 . S
H511 C505 0.959 . S
H512 C505 0.961 . S
H513 C505 0.960 . S
H514 C506 0.930 . S
H515 C507 0.929 . S
C93 C9 1.216 1_556 S
C112 C53 1.228 . S
C129 C67 1.235 . S
C148 C23 1.205 . S
C165 C37 1.215 . S
C184 C81 1.228 1_554 S
C201 C51 1.216 . S
C220 C11 1.228 . S
C237 C25 1.234 . S
C256 C65 1.221 . S
C273 C79 1.222 . S
C292 C39 1.234 . S
C309 C0 1.171 . S
C328 C33 1.158 . S
C345 C14 1.171 . S
C364 C47 1.152 . S
C381 C61 1.171 . S
C400 C28 1.153 . S
C417 C75 1.168 . S
C436 C42 1.177 . S
C453 C56 1.167 . S
C472 C5 1.178 . S
C489 C70 1.167 . S
C508 C19 1.177 . S
