# Generated by pormake.
# Topology tzs, (4)-cn, num edge types: 1
# Building blocks:
#     Node 0, Type 0, BuildingBlock: GALJAG_clean_sbu_0, # of connection points: 4
#     Node 1, Type 0, BuildingBlock: GALJAG_clean_sbu_0, # of connection points: 4
#     Node 2, Type 0, BuildingBlock: GALJAG_clean_sbu_0, # of connection points: 4
#     Node 3, Type 0, BuildingBlock: GALJAG_clean_sbu_0, # of connection points: 4
#     Node 4, Type 0, BuildingBlock: GALJAG_clean_sbu_0, # of connection points: 4
#     Node 5, Type 0, BuildingBlock: GALJAG_clean_sbu_0, # of connection points: 4
#     Node 6, Type 0, BuildingBlock: GALJAG_clean_sbu_0, # of connection points: 4
#     Node 7, Type 0, BuildingBlock: GALJAG_clean_sbu_0, # of connection points: 4
#     Node 8, Type 0, BuildingBlock: GALJAG_clean_sbu_0, # of connection points: 4
#     Node 9, Type 0, BuildingBlock: GALJAG_clean_sbu_0, # of connection points: 4
#     Node 10, Type 0, BuildingBlock: GALJAG_clean_sbu_0, # of connection points: 4
#     Node 11, Type 0, BuildingBlock: GALJAG_clean_sbu_0, # of connection points: 4
#     Node 12, Type 0, BuildingBlock: GALJAG_clean_sbu_0, # of connection points: 4
#     Node 13, Type 0, BuildingBlock: GALJAG_clean_sbu_0, # of connection points: 4
#     Node 14, Type 0, BuildingBlock: GALJAG_clean_sbu_0, # of connection points: 4
#     Node 15, Type 0, BuildingBlock: GALJAG_clean_sbu_0, # of connection points: 4
#     Edge 16, Type (0, 0), BuildingBlock: TEMPAE_clean_linker_10, # of connection points: 2
#     Edge 17, Type (0, 0), BuildingBlock: TEMPAE_clean_linker_10, # of connection points: 2
#     Edge 18, Type (0, 0), BuildingBlock: TEMPAE_clean_linker_10, # of connection points: 2
#     Edge 19, Type (0, 0), BuildingBlock: TEMPAE_clean_linker_10, # of connection points: 2
#     Edge 20, Type (0, 0), BuildingBlock: TEMPAE_clean_linker_10, # of connection points: 2
#     Edge 21, Type (0, 0), BuildingBlock: TEMPAE_clean_linker_10, # of connection points: 2
#     Edge 22, Type (0, 0), BuildingBlock: TEMPAE_clean_linker_10, # of connection points: 2
#     Edge 23, Type (0, 0), BuildingBlock: TEMPAE_clean_linker_10, # of connection points: 2
#     Edge 24, Type (0, 0), BuildingBlock: TEMPAE_clean_linker_10, # of connection points: 2
#     Edge 25, Type (0, 0), BuildingBlock: TEMPAE_clean_linker_10, # of connection points: 2
#     Edge 26, Type (0, 0), BuildingBlock: TEMPAE_clean_linker_10, # of connection points: 2
#     Edge 27, Type (0, 0), BuildingBlock: TEMPAE_clean_linker_10, # of connection points: 2
#     Edge 28, Type (0, 0), BuildingBlock: TEMPAE_clean_linker_10, # of connection points: 2
#     Edge 29, Type (0, 0), BuildingBlock: TEMPAE_clean_linker_10, # of connection points: 2
#     Edge 30, Type (0, 0), BuildingBlock: TEMPAE_clean_linker_10, # of connection points: 2
#     Edge 31, Type (0, 0), BuildingBlock: TEMPAE_clean_linker_10, # of connection points: 2
#     Edge 32, Type (0, 0), BuildingBlock: TEMPAE_clean_linker_10, # of connection points: 2
#     Edge 33, Type (0, 0), BuildingBlock: TEMPAE_clean_linker_10, # of connection points: 2
#     Edge 34, Type (0, 0), BuildingBlock: TEMPAE_clean_linker_10, # of connection points: 2
#     Edge 35, Type (0, 0), BuildingBlock: TEMPAE_clean_linker_10, # of connection points: 2
#     Edge 36, Type (0, 0), BuildingBlock: TEMPAE_clean_linker_10, # of connection points: 2
#     Edge 37, Type (0, 0), BuildingBlock: TEMPAE_clean_linker_10, # of connection points: 2
#     Edge 38, Type (0, 0), BuildingBlock: TEMPAE_clean_linker_10, # of connection points: 2
#     Edge 39, Type (0, 0), BuildingBlock: TEMPAE_clean_linker_10, # of connection points: 2
#     Edge 40, Type (0, 0), BuildingBlock: TEMPAE_clean_linker_10, # of connection points: 2
#     Edge 41, Type (0, 0), BuildingBlock: TEMPAE_clean_linker_10, # of connection points: 2
#     Edge 42, Type (0, 0), BuildingBlock: TEMPAE_clean_linker_10, # of connection points: 2
#     Edge 43, Type (0, 0), BuildingBlock: TEMPAE_clean_linker_10, # of connection points: 2
#     Edge 44, Type (0, 0), BuildingBlock: TEMPAE_clean_linker_10, # of connection points: 2
#     Edge 45, Type (0, 0), BuildingBlock: TEMPAE_clean_linker_10, # of connection points: 2
#     Edge 46, Type (0, 0), BuildingBlock: TEMPAE_clean_linker_10, # of connection points: 2
#     Edge 47, Type (0, 0), BuildingBlock: TEMPAE_clean_linker_10, # of connection points: 2
# Relax obj value: 0.153
# Max RMSD: 0.154
# Mean RMSD: 0.154
data_MOF--net-tzs--node1-GALJAG_clean_sbu_0--edge1-TEMPAE_clean_linker_10
_symmetry_space_group_name_H-M    P1
_symmetry_Int_Tables_number       1
_symmetry_cell_setting            triclinic
loop_
_symmetry_equiv_pos_as_xyz
'x, y, z'
_cell_length_a     49.556189
_cell_length_b     49.563153
_cell_length_c     40.928662
_cell_angle_alpha  89.996966
_cell_angle_beta   90.071779
_cell_angle_gamma 89.994335
loop_
_atom_site_label
_atom_site_type_symbol
_atom_site_fract_x
_atom_site_fract_y
_atom_site_fract_z
_atom_type_partial_charge
In0 In 0.14675 0.35414 0.18824 0.0
O1 O 0.18504 0.34039 0.21423 0.0
O2 O 0.15956 0.31018 0.19413 0.0
C3 C 0.15772 0.404 0.21169 0.0
C4 C 0.14941 0.34993 0.12254 0.0
C5 C 0.09535 0.34671 0.20788 0.0
O6 O 0.15133 0.38448 0.22983 0.0
O7 O 0.1591 0.39827 0.18171 0.0
O8 O 0.10214 0.3642 0.18711 0.0
O9 O 0.11462 0.33288 0.21918 0.0
C10 C 0.18098 0.31558 0.20948 0.0
O11 O 0.12769 0.34817 0.13831 0.0
O12 O 0.17012 0.35381 0.13989 0.0
In13 In 0.64069 0.13906 0.18918 0.0
O14 O 0.64822 0.12046 0.13926 0.0
O15 O 0.63667 0.16173 0.14079 0.0
C16 C 0.64546 0.08715 0.20833 0.0
C17 C 0.68035 0.17213 0.21069 0.0
C18 C 0.59153 0.15295 0.21223 0.0
O19 O 0.62677 0.09541 0.18998 0.0
O20 O 0.66204 0.1051 0.21705 0.0
O21 O 0.60982 0.14316 0.23008 0.0
O22 O 0.59817 0.15625 0.18275 0.0
C23 C 0.64305 0.14166 0.12343 0.0
O24 O 0.6567 0.1728 0.2219 0.0
O25 O 0.68411 0.15464 0.18883 0.0
In26 In 0.85532 0.64284 0.18845 0.0
O27 O 0.86327 0.62389 0.13855 0.0
O28 O 0.85317 0.66548 0.14 0.0
C29 C 0.90286 0.66036 0.2128 0.0
C30 C 0.81523 0.67358 0.21311 0.0
C31 C 0.84614 0.59079 0.20475 0.0
O32 O 0.89373 0.66845 0.18574 0.0
O33 O 0.88769 0.64414 0.22778 0.0
O34 O 0.82717 0.60746 0.20074 0.0
O35 O 0.86939 0.60034 0.20017 0.0
C36 C 0.85908 0.64529 0.1227 0.0
O37 O 0.81344 0.66164 0.18601 0.0
O38 O 0.83712 0.6697 0.22812 0.0
In39 In 0.3495 0.85395 0.17437 0.0
O40 O 0.33569 0.86841 0.12436 0.0
O41 O 0.35999 0.8332 0.126 0.0
C42 C 0.33787 0.90331 0.19822 0.0
C43 C 0.31154 0.82039 0.19834 0.0
C44 C 0.40116 0.84533 0.19349 0.0
O45 O 0.3509 0.89962 0.17217 0.0
O46 O 0.33039 0.88195 0.2124 0.0
O47 O 0.3849 0.82624 0.18825 0.0
O48 O 0.39144 0.86846 0.18875 0.0
C49 C 0.34727 0.84992 0.1086 0.0
O50 O 0.33388 0.82423 0.21241 0.0
O51 O 0.30823 0.83372 0.1724 0.0
In52 In 0.14259 0.64805 0.30707 0.0
O53 O 0.12392 0.64133 0.35729 0.0
O54 O 0.16558 0.65086 0.35542 0.0
C55 C 0.09573 0.66504 0.28063 0.0
C56 C 0.17639 0.68529 0.28189 0.0
C57 C 0.14999 0.59559 0.2913 0.0
O58 O 0.10297 0.67145 0.30916 0.0
O59 O 0.11246 0.65071 0.26521 0.0
O60 O 0.1695 0.61141 0.29638 0.0
O61 O 0.12704 0.60617 0.29457 0.0
C62 C 0.14538 0.64561 0.37297 0.0
O63 O 0.17575 0.66124 0.27186 0.0
O64 O 0.15988 0.69056 0.3044 0.0
In65 In 0.34947 0.13987 0.31257 0.0
O66 O 0.33539 0.12567 0.36261 0.0
O67 O 0.36474 0.1568 0.3612 0.0
C68 C 0.33793 0.08891 0.29454 0.0
C69 C 0.31254 0.17506 0.28894 0.0
C70 C 0.39953 0.14921 0.28876 0.0
O71 O 0.35606 0.0947 0.31505 0.0
O72 O 0.32524 0.10894 0.28318 0.0
O73 O 0.38714 0.16637 0.3059 0.0
O74 O 0.38658 0.12778 0.28354 0.0
C75 C 0.35028 0.14154 0.37853 0.0
O76 O 0.33306 0.16799 0.27292 0.0
O77 O 0.31058 0.16428 0.3167 0.0
In78 In 0.8509 0.34933 0.30282 0.0
O79 O 0.87052 0.34719 0.35291 0.0
O80 O 0.82772 0.34667 0.35116 0.0
C81 C 0.90258 0.34336 0.28327 0.0
C82 C 0.81795 0.30999 0.28081 0.0
C83 C 0.83697 0.39865 0.28015 0.0
O84 O 0.89475 0.36218 0.30162 0.0
O85 O 0.88421 0.3273 0.27438 0.0
O86 O 0.8454 0.38004 0.26183 0.0
O87 O 0.83494 0.39222 0.30986 0.0
C88 C 0.84872 0.34619 0.36861 0.0
O89 O 0.81506 0.33444 0.27303 0.0
O90 O 0.83767 0.30528 0.29951 0.0
In91 In 0.63897 0.84376 0.30907 0.0
O92 O 0.65744 0.86095 0.35566 0.0
O93 O 0.63433 0.82507 0.35981 0.0
C94 C 0.64387 0.89509 0.28834 0.0
C95 C 0.67558 0.80694 0.28923 0.0
C96 C 0.58914 0.83397 0.28472 0.0
O97 O 0.62928 0.88847 0.3123 0.0
O98 O 0.65606 0.87573 0.27474 0.0
O99 O 0.61005 0.83391 0.26721 0.0
O100 O 0.59343 0.83844 0.31459 0.0
C101 C 0.64816 0.84286 0.37413 0.0
O102 O 0.65258 0.80048 0.29978 0.0
O103 O 0.68006 0.83198 0.28849 0.0
In104 In 0.85319 0.64167 0.81108 0.0
O105 O 0.83577 0.63455 0.86177 0.0
O106 O 0.87352 0.65465 0.8587 0.0
C107 C 0.83943 0.59057 0.79543 0.0
C108 C 0.81743 0.67792 0.78719 0.0
C109 C 0.90298 0.64986 0.7861 0.0
O110 O 0.85641 0.59626 0.81732 0.0
O111 O 0.82893 0.61076 0.78156 0.0
O112 O 0.8899 0.66841 0.80011 0.0
O113 O 0.89084 0.62757 0.78454 0.0
C114 C 0.85512 0.64544 0.87682 0.0
O115 O 0.83608 0.66803 0.77004 0.0
O116 O 0.81686 0.66955 0.81623 0.0
In117 In 0.35512 0.85152 0.79712 0.0
O118 O 0.32175 0.83601 0.76369 0.0
O119 O 0.34047 0.80791 0.79573 0.0
C120 C 0.34124 0.90085 0.77424 0.0
C121 C 0.35158 0.84926 0.86287 0.0
C122 C 0.40723 0.84422 0.77994 0.0
O123 O 0.35266 0.88326 0.75686 0.0
O124 O 0.33619 0.89337 0.80304 0.0
O125 O 0.3993 0.86335 0.79775 0.0
O126 O 0.38878 0.82847 0.77051 0.0
C127 C 0.32281 0.81206 0.77407 0.0
O128 O 0.37365 0.85165 0.84793 0.0
O129 O 0.33104 0.84803 0.84467 0.0
In130 In 0.14126 0.34808 0.81123 0.0
O131 O 0.15081 0.36702 0.8604 0.0
O132 O 0.13861 0.32594 0.8602 0.0
C133 C 0.14678 0.399 0.78882 0.0
C134 C 0.18039 0.31366 0.79217 0.0
C135 C 0.0916 0.33599 0.7881 0.0
O136 O 0.12998 0.39248 0.81051 0.0
O137 O 0.16097 0.37975 0.77822 0.0
O138 O 0.11167 0.33969 0.76975 0.0
O139 O 0.09666 0.33784 0.81824 0.0
C140 C 0.14598 0.34608 0.87685 0.0
O141 O 0.15571 0.30939 0.78671 0.0
O142 O 0.18536 0.33538 0.80705 0.0
In143 In 0.6443 0.14762 0.81126 0.0
O144 O 0.67878 0.16057 0.77782 0.0
O145 O 0.6613 0.19026 0.80858 0.0
C146 C 0.65224 0.09514 0.79628 0.0
C147 C 0.64525 0.14551 0.87731 0.0
C148 C 0.59847 0.16376 0.78151 0.0
O149 O 0.67149 0.11174 0.79854 0.0
O150 O 0.62928 0.10496 0.80213 0.0
O151 O 0.60577 0.1728 0.80894 0.0
O152 O 0.61461 0.14715 0.76877 0.0
C153 C 0.67876 0.1848 0.78722 0.0
O154 O 0.62395 0.14282 0.86085 0.0
O155 O 0.66623 0.14904 0.86048 0.0
In156 In 0.85127 0.35418 0.68014 0.0
O157 O 0.8378 0.36862 0.62996 0.0
O158 O 0.86158 0.33307 0.63194 0.0
C159 C 0.83949 0.40391 0.70276 0.0
C160 C 0.81335 0.32077 0.70444 0.0
C161 C 0.90272 0.34529 0.70002 0.0
O162 O 0.85392 0.39979 0.67791 0.0
O163 O 0.83061 0.3828 0.7163 0.0
O164 O 0.88649 0.32626 0.69434 0.0
O165 O 0.89307 0.36845 0.69536 0.0
C166 C 0.84908 0.34985 0.61438 0.0
O167 O 0.83502 0.32591 0.71942 0.0
O168 O 0.81067 0.33279 0.67746 0.0
In169 In 0.65124 0.8561 0.6851 0.0
O170 O 0.69066 0.84268 0.70856 0.0
O171 O 0.66359 0.81216 0.69247 0.0
C172 C 0.6616 0.90565 0.7099 0.0
C173 C 0.65415 0.8523 0.6193 0.0
C174 C 0.59997 0.84776 0.70487 0.0
O175 O 0.65655 0.88548 0.72759 0.0
O176 O 0.66198 0.90075 0.67967 0.0
O177 O 0.60646 0.8654 0.68415 0.0
O178 O 0.61948 0.83416 0.716 0.0
C179 C 0.68594 0.81778 0.70567 0.0
O180 O 0.63226 0.85168 0.63482 0.0
O181 O 0.6749 0.8548 0.63692 0.0
In182 In 0.14433 0.6414 0.6847 0.0
O183 O 0.15386 0.62313 0.63512 0.0
O184 O 0.13966 0.66358 0.63608 0.0
C185 C 0.14935 0.5898 0.70489 0.0
C186 C 0.18364 0.67531 0.70518 0.0
C187 C 0.09467 0.65392 0.70734 0.0
O188 O 0.13212 0.59724 0.68408 0.0
O189 O 0.16426 0.60845 0.71564 0.0
O190 O 0.11356 0.64607 0.72571 0.0
O191 O 0.10096 0.65595 0.67759 0.0
C192 C 0.14752 0.64388 0.61901 0.0
O193 O 0.15935 0.67778 0.71376 0.0
O194 O 0.18815 0.65564 0.68648 0.0
In195 In 0.35754 0.14714 0.6903 0.0
O196 O 0.37409 0.13393 0.64082 0.0
O197 O 0.33677 0.15494 0.64149 0.0
C198 C 0.40587 0.16479 0.71196 0.0
C199 C 0.3232 0.18358 0.71625 0.0
C200 C 0.34846 0.09525 0.70744 0.0
O201 O 0.39799 0.16851 0.683 0.0
O202 O 0.38908 0.15294 0.73008 0.0
O203 O 0.33027 0.10985 0.69501 0.0
O204 O 0.37088 0.10684 0.71107 0.0
C205 C 0.35481 0.14373 0.62457 0.0
O206 O 0.32524 0.15984 0.72708 0.0
O207 O 0.33867 0.18895 0.69273 0.0
C208 C 0.29617 0.20682 0.24584 0.0
C209 C 0.29265 0.19476 0.27652 0.0
C210 C 0.2778 0.22612 0.2342 0.0
C211 C 0.25542 0.23346 0.25373 0.0
C212 C 0.2516 0.22111 0.28456 0.0
C213 C 0.27029 0.20189 0.29559 0.0
C214 C 0.2825 0.23886 0.20118 0.0
C215 C 0.22795 0.22842 0.30605 0.0
C216 C 0.2228 0.30167 0.23904 0.0
C217 C 0.19992 0.29455 0.22082 0.0
C218 C 0.24104 0.28196 0.2499 0.0
C219 C 0.23629 0.25452 0.24225 0.0
C220 C 0.21323 0.24721 0.22381 0.0
C221 C 0.19527 0.26734 0.21336 0.0
C222 C 0.26537 0.29051 0.2696 0.0
C223 C 0.20756 0.21814 0.21514 0.0
H224 H 0.31343 0.20135 0.23101 0.0
H225 H 0.26746 0.19259 0.31932 0.0
H226 H 0.26462 0.23575 0.18529 0.0
H227 H 0.28527 0.26095 0.20399 0.0
H228 H 0.30052 0.23045 0.18868 0.0
H229 H 0.22757 0.21652 0.32905 0.0
H230 H 0.22882 0.25017 0.31238 0.0
H231 H 0.20875 0.225 0.29273 0.0
H232 H 0.22647 0.32268 0.24489 0.0
H233 H 0.17762 0.26175 0.19923 0.0
H234 H 0.28413 0.28411 0.25703 0.0
H235 H 0.26511 0.28045 0.29381 0.0
H236 H 0.26615 0.31269 0.27343 0.0
H237 H 0.22468 0.20968 0.20101 0.0
H238 H 0.18881 0.21585 0.20049 0.0
H239 H 0.20559 0.20594 0.23773 0.0
C240 C 0.77885 0.29486 0.24703 0.0
C241 C 0.7992 0.28873 0.26965 0.0
C242 C 0.76024 0.27519 0.23705 0.0
C243 C 0.76193 0.24884 0.25022 0.0
C244 C 0.78263 0.24244 0.2728 0.0
C245 C 0.80111 0.26247 0.28217 0.0
C246 C 0.73857 0.28272 0.21272 0.0
C247 C 0.78495 0.21458 0.28748 0.0
C248 C 0.69744 0.20759 0.24872 0.0
C249 C 0.7017 0.19086 0.22162 0.0
C250 C 0.71715 0.22615 0.25872 0.0
C251 C 0.74155 0.22821 0.24094 0.0
C252 C 0.74608 0.21116 0.21375 0.0
C253 C 0.72613 0.19255 0.20451 0.0
C254 C 0.71171 0.24382 0.28805 0.0
C255 C 0.77176 0.21295 0.19404 0.0
H256 H 0.77735 0.31512 0.23722 0.0
H257 H 0.8168 0.25766 0.29971 0.0
H258 H 0.73934 0.26896 0.19136 0.0
H259 H 0.71838 0.28037 0.22406 0.0
H260 H 0.74064 0.30382 0.20392 0.0
H261 H 0.80258 0.2127 0.30411 0.0
H262 H 0.76637 0.20978 0.30142 0.0
H263 H 0.78683 0.19927 0.26785 0.0
H264 H 0.67862 0.20625 0.26209 0.0
H265 H 0.72947 0.17969 0.18349 0.0
H266 H 0.71132 0.26532 0.28052 0.0
H267 H 0.72816 0.24154 0.30626 0.0
H268 H 0.69221 0.23891 0.30003 0.0
H269 H 0.77356 0.23335 0.1831 0.0
H270 H 0.77246 0.19776 0.1741 0.0
H271 H 0.78954 0.20997 0.21013 0.0
C272 C 0.77197 0.69848 0.20543 0.0
C273 C 0.79384 0.69158 0.2255 0.0
C274 C 0.75224 0.71674 0.21609 0.0
C275 C 0.75433 0.72812 0.24771 0.0
C276 C 0.77604 0.72075 0.26838 0.0
C277 C 0.79565 0.70264 0.25694 0.0
C278 C 0.72948 0.72428 0.19327 0.0
C279 C 0.77875 0.73227 0.30237 0.0
C280 C 0.71951 0.79506 0.26324 0.0
C281 C 0.69571 0.78679 0.27875 0.0
C282 C 0.73877 0.77614 0.253 0.0
C283 C 0.7342 0.74834 0.25875 0.0
C284 C 0.7103 0.7399 0.27465 0.0
C285 C 0.69125 0.75924 0.28432 0.0
C286 C 0.76391 0.78588 0.23583 0.0
C287 C 0.70489 0.71045 0.28145 0.0
H288 H 0.77053 0.69002 0.18107 0.0
H289 H 0.8125 0.69728 0.27256 0.0
H290 H 0.70975 0.72002 0.20497 0.0
H291 H 0.73017 0.74624 0.18808 0.0
H292 H 0.73046 0.71316 0.16973 0.0
H293 H 0.79615 0.72356 0.31588 0.0
H294 H 0.78141 0.75446 0.301 0.0
H295 H 0.76008 0.72841 0.31654 0.0
H296 H 0.723 0.81634 0.25884 0.0
H297 H 0.67291 0.75279 0.29643 0.0
H298 H 0.76519 0.77667 0.21117 0.0
H299 H 0.78209 0.77944 0.24961 0.0
H300 H 0.76436 0.80818 0.23318 0.0
H301 H 0.70419 0.69902 0.25816 0.0
H302 H 0.68556 0.70727 0.29463 0.0
H303 H 0.72153 0.70182 0.2963 0.0
C304 C 0.26621 0.79858 0.19492 0.0
C305 C 0.2911 0.80136 0.21088 0.0
C306 C 0.24688 0.7801 0.20609 0.0
C307 C 0.25267 0.76398 0.23378 0.0
C308 C 0.27771 0.76683 0.2501 0.0
C309 C 0.29662 0.78555 0.23848 0.0
C310 C 0.22033 0.77769 0.18817 0.0
C311 C 0.2846 0.74994 0.27967 0.0
C312 C 0.19492 0.7321 0.28073 0.0
C313 C 0.1954 0.70556 0.26891 0.0
C314 C 0.2133 0.75142 0.26929 0.0
C315 C 0.23263 0.74394 0.24553 0.0
C316 C 0.23307 0.71722 0.23331 0.0
C317 C 0.2144 0.69834 0.24513 0.0
C318 C 0.21218 0.77975 0.28279 0.0
C319 C 0.25345 0.70852 0.20801 0.0
H320 H 0.26186 0.81079 0.17358 0.0
H321 H 0.31586 0.78762 0.25087 0.0
H322 H 0.21784 0.75687 0.17868 0.0
H323 H 0.20336 0.78155 0.2052 0.0
H324 H 0.21879 0.79202 0.16738 0.0
H325 H 0.30487 0.75478 0.28972 0.0
H326 H 0.26936 0.75314 0.29912 0.0
H327 H 0.2841 0.72822 0.27313 0.0
H328 H 0.18023 0.73778 0.2991 0.0
H329 H 0.21484 0.67783 0.23595 0.0
H330 H 0.20937 0.79444 0.26262 0.0
H331 H 0.23155 0.78474 0.29499 0.0
H332 H 0.19555 0.78244 0.30069 0.0
H333 H 0.25162 0.72134 0.18589 0.0
H334 H 0.25087 0.68708 0.20073 0.0
H335 H 0.27418 0.71126 0.2177 0.0
C336 C 0.69908 0.76946 0.713 0.0
C337 C 0.70512 0.7969 0.71685 0.0
C338 C 0.71712 0.74948 0.72369 0.0
C339 C 0.74174 0.75719 0.73858 0.0
C340 C 0.748 0.78488 0.74237 0.0
C341 C 0.7296 0.80441 0.73146 0.0
C342 C 0.70978 0.72014 0.71925 0.0
C343 C 0.77405 0.79387 0.75815 0.0
C344 C 0.77734 0.70773 0.79474 0.0
C345 C 0.79785 0.69781 0.77447 0.0
C346 C 0.75877 0.72687 0.78325 0.0
C347 C 0.76082 0.73633 0.75072 0.0
C348 C 0.78136 0.72624 0.73004 0.0
C349 C 0.79965 0.70706 0.74218 0.0
C350 C 0.73711 0.73713 0.80601 0.0
C351 C 0.78416 0.73588 0.69522 0.0
H352 H 0.68019 0.76356 0.70168 0.0
H353 H 0.73438 0.82561 0.73446 0.0
H354 H 0.72555 0.70975 0.70471 0.0
H355 H 0.70887 0.70998 0.74338 0.0
H356 H 0.69003 0.71752 0.70677 0.0
H357 H 0.77604 0.81619 0.75885 0.0
H358 H 0.7752 0.78607 0.78352 0.0
H359 H 0.79151 0.78543 0.74462 0.0
H360 H 0.77583 0.70059 0.81971 0.0
H361 H 0.81547 0.69942 0.72642 0.0
H362 H 0.71688 0.73346 0.79524 0.0
H363 H 0.73925 0.75925 0.80929 0.0
H364 H 0.73798 0.72735 0.8304 0.0
H365 H 0.76512 0.73221 0.68163 0.0
H366 H 0.80092 0.72567 0.68214 0.0
H367 H 0.78787 0.75796 0.69487 0.0
C368 C 0.19942 0.71407 0.73912 0.0
C369 C 0.20495 0.69427 0.71563 0.0
C370 C 0.21928 0.73261 0.74875 0.0
C371 C 0.24519 0.73145 0.73428 0.0
C372 C 0.25094 0.7114 0.71067 0.0
C373 C 0.23076 0.69294 0.70173 0.0
C374 C 0.21247 0.75356 0.77424 0.0
C375 C 0.27827 0.70969 0.69453 0.0
C376 C 0.28645 0.79592 0.73661 0.0
C377 C 0.30402 0.79089 0.76278 0.0
C378 C 0.26757 0.7765 0.72664 0.0
C379 C 0.26608 0.75159 0.74347 0.0
C380 C 0.28402 0.74625 0.76962 0.0
C381 C 0.30289 0.76595 0.77887 0.0
C382 C 0.24895 0.7828 0.69842 0.0
C383 C 0.28289 0.71999 0.78829 0.0
H384 H 0.17951 0.7151 0.75001 0.0
H385 H 0.2351 0.67769 0.68349 0.0
H386 H 0.22684 0.75217 0.79498 0.0
H387 H 0.21451 0.77407 0.76365 0.0
H388 H 0.19164 0.75123 0.78381 0.0
H389 H 0.2796 0.69267 0.67694 0.0
H390 H 0.28259 0.72875 0.68133 0.0
H391 H 0.29424 0.70714 0.7133 0.0
H392 H 0.28732 0.81515 0.72404 0.0
H393 H 0.31639 0.76201 0.79918 0.0
H394 H 0.22772 0.78297 0.70699 0.0
H395 H 0.25058 0.76689 0.67945 0.0
H396 H 0.25348 0.80263 0.68703 0.0
H397 H 0.26286 0.71782 0.80009 0.0
H398 H 0.29874 0.7187 0.80744 0.0
H399 H 0.28533 0.70272 0.77131 0.0
C400 C 0.22836 0.29825 0.79292 0.0
C401 C 0.20176 0.29468 0.78207 0.0
C402 C 0.24883 0.28028 0.78357 0.0
C403 C 0.24254 0.25848 0.76258 0.0
C404 C 0.2157 0.2548 0.75154 0.0
C405 C 0.19559 0.27288 0.76158 0.0
C406 C 0.27717 0.28466 0.79609 0.0
C407 C 0.2083 0.23193 0.72884 0.0
C408 C 0.29853 0.22727 0.71206 0.0
C409 C 0.30348 0.20321 0.72906 0.0
C410 C 0.27889 0.24555 0.72287 0.0
C411 C 0.2641 0.23975 0.75159 0.0
C412 C 0.26943 0.21578 0.76927 0.0
C413 C 0.28897 0.19767 0.75765 0.0
C414 C 0.27357 0.27078 0.70319 0.0
C415 C 0.25429 0.20912 0.80023 0.0
H416 H 0.23317 0.31501 0.8089 0.0
H417 H 0.17504 0.27009 0.7531 0.0
H418 H 0.28432 0.26636 0.8091 0.0
H419 H 0.29108 0.28812 0.7753 0.0
H420 H 0.27855 0.30216 0.81298 0.0
H421 H 0.18649 0.23187 0.72255 0.0
H422 H 0.22013 0.23349 0.70592 0.0
H423 H 0.21346 0.21231 0.7403 0.0
H424 H 0.30965 0.23158 0.68988 0.0
H425 H 0.29283 0.17913 0.7709 0.0
H426 H 0.27627 0.28891 0.71874 0.0
H427 H 0.25236 0.27083 0.69446 0.0
H428 H 0.28713 0.2725 0.6817 0.0
H429 H 0.25628 0.2259 0.81802 0.0
H430 H 0.26168 0.19026 0.81186 0.0
H431 H 0.23248 0.20678 0.79477 0.0
C432 C 0.69556 0.23218 0.78404 0.0
C433 C 0.69793 0.20508 0.77468 0.0
C434 C 0.71387 0.25163 0.77274 0.0
C435 C 0.73512 0.24369 0.75177 0.0
C436 C 0.73758 0.21636 0.74217 0.0
C437 C 0.71887 0.19738 0.75367 0.0
C438 C 0.71053 0.28063 0.78331 0.0
C439 C 0.76007 0.20715 0.71995 0.0
C440 C 0.76938 0.2966 0.6992 0.0
C441 C 0.793 0.30168 0.71705 0.0
C442 C 0.75025 0.2779 0.71035 0.0
C443 C 0.75492 0.26397 0.74 0.0
C444 C 0.77863 0.2692 0.75827 0.0
C445 C 0.79739 0.28804 0.74657 0.0
C446 C 0.72515 0.27289 0.69027 0.0
C447 C 0.78428 0.25469 0.79 0.0
H448 H 0.67936 0.23823 0.80023 0.0
H449 H 0.7208 0.17642 0.74643 0.0
H450 H 0.7288 0.28742 0.79666 0.0
H451 H 0.70831 0.29381 0.76156 0.0
H452 H 0.6927 0.28353 0.79935 0.0
H453 H 0.75909 0.18518 0.71472 0.0
H454 H 0.75916 0.2183 0.69647 0.0
H455 H 0.77989 0.21171 0.7313 0.0
H456 H 0.7659 0.30711 0.67635 0.0
H457 H 0.81564 0.2919 0.76043 0.0
H458 H 0.70691 0.27686 0.70521 0.0
H459 H 0.72436 0.25143 0.68264 0.0
H460 H 0.72432 0.28576 0.66806 0.0
H461 H 0.76762 0.2583 0.80754 0.0
H462 H 0.80352 0.26129 0.80143 0.0
H463 H 0.78529 0.23262 0.78565 0.0
C464 C 0.15268 0.36958 0.93003 0.0
C465 C 0.14838 0.34553 0.91279 0.0
C466 C 0.15409 0.36972 0.96423 0.0
C467 C 0.15144 0.34515 0.98155 0.0
C468 C 0.14777 0.32069 0.96423 0.0
C469 C 0.14611 0.32119 0.92999 0.0
C470 C 0.15772 0.39626 0.98185 0.0
C471 C 0.14517 0.29408 0.9819 0.0
C472 C 0.17473 0.34502 0.07004 0.0
C473 C 0.15018 0.34805 0.08658 0.0
C474 C 0.17545 0.34343 0.03579 0.0
C475 C 0.15108 0.34535 0.01782 0.0
C476 C 0.12625 0.34835 0.03448 0.0
C477 C 0.1261 0.34946 0.06868 0.0
C478 C 0.20224 0.33985 0.01881 0.0
C479 C 0.09988 0.35087 0.01617 0.0
H480 H 0.15444 0.38846 0.91682 0.0
H481 H 0.14295 0.30253 0.9167 0.0
H482 H 0.1399 0.40028 -0.0025 0.0
H483 H 0.17561 0.39531 -0.00187 0.0
H484 H 0.16029 0.41345 0.96473 0.0
H485 H 0.1441 0.27671 0.96479 0.0
H486 H 0.16259 0.2911 -0.00142 0.0
H487 H 0.12668 0.29414 -0.00285 0.0
H488 H 0.19336 0.34378 0.08386 0.0
H489 H 0.10707 0.35188 0.0814 0.0
H490 H 0.2064 0.35755 0.00302 0.0
H491 H 0.20159 0.32184 0.00274 0.0
H492 H 0.21919 0.3375 0.03638 0.0
H493 H 0.10049 0.36879 -7e-05 0.0
H494 H 0.08232 0.35287 0.03283 0.0
H495 H 0.09674 0.33294 0.0004 0.0
C496 C 0.62157 0.13989 0.93062 0.0
C497 C 0.64545 0.14503 0.91338 0.0
C498 C 0.62131 0.13961 0.96488 0.0
C499 C 0.64549 0.1447 0.98226 0.0
C500 C 0.66965 0.14995 0.96499 0.0
C501 C 0.66936 0.15 0.9307 0.0
C502 C 0.59517 0.1338 0.98247 0.0
C503 C 0.6958 0.15553 0.98273 0.0
C504 C 0.63923 0.16691 0.07074 0.0
C505 C 0.64415 0.14269 0.08739 0.0
C506 C 0.6399 0.16794 0.03648 0.0
C507 C 0.6455 0.14416 0.01855 0.0
C508 C 0.65063 0.11969 0.03527 0.0
C509 C 0.64994 0.11927 0.06951 0.0
C510 C 0.63442 0.19441 0.01945 0.0
C511 C 0.65658 0.09391 0.01698 0.0
H512 H 0.60304 0.13604 0.91733 0.0
H513 H 0.68785 0.15404 0.91745 0.0
H514 H 0.59752 0.11568 -0.00187 0.0
H515 H 0.58994 0.15092 -0.00126 0.0
H516 H 0.57812 0.13034 0.96532 0.0
H517 H 0.71276 0.15956 0.96569 0.0
H518 H 0.69337 0.17321 -0.00091 0.0
H519 H 0.70121 0.13804 -0.00166 0.0
H520 H 0.6348 0.18507 0.08448 0.0
H521 H 0.65375 0.10049 0.08228 0.0
H522 H 0.61637 0.19248 0.00357 0.0
H523 H 0.65167 0.19976 0.00345 0.0
H524 H 0.631 0.21119 0.03696 0.0
H525 H 0.63929 0.08869 0.00093 0.0
H526 H 0.66049 0.07666 0.03367 0.0
H527 H 0.67444 0.0967 0.00102 0.0
C528 C 0.83438 0.63784 0.93152 0.0
C529 C 0.8563 0.6468 0.91283 0.0
C530 C 0.83535 0.63837 0.96574 0.0
C531 C 0.85887 0.64793 0.98161 0.0
C532 C 0.88101 0.65717 0.96287 0.0
C533 C 0.87943 0.65657 0.92864 0.0
C534 C 0.81126 0.62852 0.98492 0.0
C535 C 0.90647 0.66738 0.97899 0.0
C536 C 0.85169 0.66966 0.07007 0.0
C537 C 0.86026 0.64646 0.08669 0.0
C538 C 0.85151 0.67059 0.03582 0.0
C539 C 0.86034 0.64785 0.01786 0.0
C540 C 0.86962 0.6246 0.03454 0.0
C541 C 0.86935 0.62414 0.0688 0.0
C542 C 0.84131 0.69567 0.01885 0.0
C543 C 0.87941 0.60005 0.01619 0.0
H544 H 0.81644 0.63033 0.91939 0.0
H545 H 0.89643 0.66348 0.91426 0.0
H546 H 0.81714 0.61105 0.0003 0.0
H547 H 0.80406 0.64463 0.0016 0.0
H548 H 0.79427 0.62232 0.96885 0.0
H549 H 0.92173 0.67417 0.96092 0.0
H550 H 0.90168 0.68448 0.99548 0.0
H551 H 0.91548 0.6512 0.99424 0.0
H552 H 0.84462 0.68696 0.08384 0.0
H553 H 0.87612 0.60621 0.08158 0.0
H554 H 0.82313 0.6907 0.00418 0.0
H555 H 0.8568 0.70342 0.00171 0.0
H556 H 0.83603 0.71195 0.03637 0.0
H557 H 0.86267 0.59149 0.00145 0.0
H558 H 0.88716 0.5841 0.0328 0.0
H559 H 0.8957 0.60579 -0.00104 0.0
C560 C 0.35547 0.82542 0.05619 0.0
C561 C 0.3464 0.84849 0.07261 0.0
C562 C 0.35526 0.82423 0.02192 0.0
C563 C 0.34619 0.84683 0.00381 0.0
C564 C 0.3368 0.87008 0.02033 0.0
C565 C 0.33682 0.87054 0.05456 0.0
C566 C 0.36506 0.79895 0.0051 0.0
C567 C 0.32734 0.89472 0.00185 0.0
C568 C 0.37249 0.8559 0.9176 0.0
C569 C 0.3501 0.84822 0.89883 0.0
C570 C 0.37147 0.85547 0.9518 0.0
C571 C 0.34763 0.8467 0.96757 0.0
C572 C 0.32508 0.83852 0.94874 0.0
C573 C 0.3265 0.83962 0.91451 0.0
C574 C 0.39578 0.86477 0.97105 0.0
C575 C 0.29948 0.82868 0.96476 0.0
H576 H 0.36273 0.80828 0.07011 0.0
H577 H 0.32985 0.88845 0.0672 0.0
H578 H 0.34948 0.79149 0.98782 0.0
H579 H 0.38339 0.80352 0.9906 0.0
H580 H 0.36993 0.7826 0.02271 0.0
H581 H 0.32011 0.91095 0.01839 0.0
H582 H 0.34411 0.90281 0.98681 0.0
H583 H 0.31074 0.88924 0.98489 0.0
H584 H 0.39074 0.86265 0.90552 0.0
H585 H 0.30922 0.83352 0.90001 0.0
H586 H 0.40289 0.84837 0.98738 0.0
H587 H 0.39017 0.8821 0.9868 0.0
H588 H 0.41276 0.87098 0.95503 0.0
H589 H 0.30405 0.81153 0.98131 0.0
H590 H 0.28415 0.82207 0.94663 0.0
H591 H 0.29065 0.84497 0.97994 0.0
C592 C 0.14176 0.66824 0.56601 0.0
C593 C 0.14862 0.64466 0.58298 0.0
C594 C 0.14195 0.66889 0.53173 0.0
C595 C 0.14907 0.64535 0.51412 0.0
C596 C 0.15632 0.62159 0.53116 0.0
C597 C 0.15605 0.62154 0.56542 0.0
C598 C 0.1342 0.69463 0.51434 0.0
C599 C 0.16397 0.59609 0.51322 0.0
C600 C 0.12356 0.63828 0.42714 0.0
C601 C 0.14653 0.64516 0.40901 0.0
C602 C 0.12414 0.63824 0.46139 0.0
C603 C 0.14825 0.64535 0.47785 0.0
C604 C 0.17153 0.65227 0.45968 0.0
C605 C 0.17041 0.65204 0.42542 0.0
C606 C 0.09895 0.63061 0.47995 0.0
C607 C 0.19757 0.66 0.47644 0.0
H608 H 0.13605 0.68617 0.57951 0.0
H609 H 0.16137 0.60325 0.57844 0.0
H610 H 0.15062 0.70093 0.49759 0.0
H611 H 0.11595 0.69116 0.4992 0.0
H612 H 0.13002 0.7114 0.53162 0.0
H613 H 0.16971 0.57951 0.53012 0.0
H614 H 0.14678 0.58919 0.49795 0.0
H615 H 0.18113 0.60008 0.49652 0.0
H616 H 0.10506 0.63294 0.41454 0.0
H617 H 0.1882 0.65743 0.41149 0.0
H618 H 0.09269 0.64752 0.49601 0.0
H619 H 0.10309 0.613 0.49593 0.0
H620 H 0.08188 0.6255 0.46346 0.0
H621 H 0.1942 0.67775 0.49244 0.0
H622 H 0.21383 0.66494 0.45876 0.0
H623 H 0.20456 0.64323 0.49229 0.0
C624 C 0.33368 0.15704 0.5716 0.0
C625 C 0.3538 0.14288 0.58854 0.0
C626 C 0.33292 0.15708 0.53735 0.0
C627 C 0.35262 0.14243 0.5197 0.0
C628 C 0.37283 0.12789 0.53669 0.0
C629 C 0.37324 0.12838 0.57096 0.0
C630 C 0.31116 0.17295 0.52004 0.0
C631 C 0.39402 0.11186 0.51867 0.0
C632 C 0.33634 0.1226 0.43237 0.0
C633 C 0.35084 0.14193 0.41459 0.0
C634 C 0.33684 0.12247 0.46662 0.0
C635 C 0.35203 0.14227 0.48343 0.0
C636 C 0.36661 0.16193 0.4656 0.0
C637 C 0.36592 0.16146 0.43133 0.0
C638 C 0.32118 0.10109 0.48482 0.0
C639 C 0.38289 0.18346 0.48273 0.0
H640 H 0.31867 0.16835 0.58511 0.0
H641 H 0.3888 0.11738 0.58399 0.0
H642 H 0.32046 0.18826 0.5038 0.0
H643 H 0.29898 0.15932 0.50437 0.0
H644 H 0.29743 0.18338 0.53737 0.0
H645 H 0.40816 0.10141 0.53554 0.0
H646 H 0.38422 0.09656 0.50283 0.0
H647 H 0.40584 0.12539 0.50253 0.0
H648 H 0.32471 0.10742 0.41951 0.0
H649 H 0.37712 0.17646 0.41764 0.0
H650 H 0.30605 0.11071 0.50103 0.0
H651 H 0.33501 0.08925 0.50062 0.0
H652 H 0.31054 0.087 0.46808 0.0
H653 H 0.36961 0.19544 0.49902 0.0
H654 H 0.39291 0.1974 0.46529 0.0
H655 H 0.39857 0.17398 0.49832 0.0
C656 C 0.82449 0.33782 0.42119 0.0
C657 C 0.84808 0.34521 0.40461 0.0
C658 C 0.82383 0.33708 0.45548 0.0
C659 C 0.84714 0.34444 0.47343 0.0
C660 C 0.87099 0.3519 0.45675 0.0
C661 C 0.87124 0.35194 0.42252 0.0
C662 C 0.79819 0.32857 0.47248 0.0
C663 C 0.89611 0.36035 0.47503 0.0
C664 C 0.83897 0.37015 0.56008 0.0
C665 C 0.84789 0.348 0.57844 0.0
C666 C 0.83837 0.36915 0.52587 0.0
C667 C 0.84646 0.34525 0.50969 0.0
C668 C 0.85492 0.32259 0.52814 0.0
C669 C 0.85577 0.32433 0.56236 0.0
C670 C 0.82965 0.39387 0.50702 0.0
C671 C 0.86329 0.29664 0.51171 0.0
H672 H 0.80662 0.33245 0.40735 0.0
H673 H 0.88949 0.35777 0.40974 0.0
H674 H 0.80241 0.3116 0.48943 0.0
H675 H 0.79028 0.34551 0.48737 0.0
H676 H 0.78227 0.32219 0.45497 0.0
H677 H 0.91302 0.36546 0.45836 0.0
H678 H 0.89165 0.37822 0.49046 0.0
H679 H 0.90276 0.34393 0.4916 0.0
H680 H 0.83292 0.38852 0.57245 0.0
H681 H 0.86251 0.30712 0.57654 0.0
H682 H 0.81241 0.38888 0.49081 0.0
H683 H 0.8464 0.40087 0.49118 0.0
H684 H 0.82359 0.41073 0.52333 0.0
H685 H 0.84704 0.28953 0.49514 0.0
H686 H 0.86789 0.28042 0.5296 0.0
H687 H 0.88146 0.30017 0.4965 0.0
C688 C 0.67926 0.84433 0.56721 0.0
C689 C 0.65511 0.85048 0.58336 0.0
C690 C 0.68003 0.84215 0.533 0.0
C691 C 0.65622 0.84679 0.51467 0.0
C692 C 0.63188 0.8533 0.53092 0.0
C693 C 0.63158 0.8548 0.56509 0.0
C694 C 0.70622 0.8347 0.51649 0.0
C695 C 0.60618 0.85885 0.51221 0.0
C696 C 0.66041 0.86699 0.42545 0.0
C697 C 0.65216 0.84321 0.40984 0.0
C698 C 0.66243 0.86827 0.4596 0.0
C699 C 0.65657 0.84505 0.47844 0.0
C700 C 0.64928 0.82068 0.46268 0.0
C701 C 0.64687 0.82014 0.42852 0.0
C702 C 0.66979 0.89475 0.47555 0.0
C703 C 0.64339 0.79538 0.48194 0.0
H704 H 0.69744 0.84084 0.58134 0.0
H705 H 0.6129 0.8597 0.57753 0.0
H706 H 0.70342 0.81613 0.50173 0.0
H707 H 0.71241 0.85097 0.49947 0.0
H708 H 0.7228 0.83123 0.5343 0.0
H709 H 0.58911 0.86424 0.52853 0.0
H710 H 0.60943 0.87565 0.49472 0.0
H711 H 0.60038 0.84084 0.49774 0.0
H712 H 0.66444 0.88489 0.41104 0.0
H713 H 0.6407 0.80167 0.41644 0.0
H714 H 0.68722 0.892 0.49224 0.0
H715 H 0.65261 0.90201 0.49054 0.0
H716 H 0.67494 0.91058 0.45737 0.0
H717 H 0.6602 0.79104 0.49909 0.0
H718 H 0.64034 0.77755 0.4659 0.0
H719 H 0.62492 0.79833 0.49681 0.0
C720 C 0.1792 0.55551 0.27933 0.0
C721 C 0.15346 0.56716 0.2812 0.0
C722 C 0.18251 0.52869 0.26888 0.0
C723 C 0.15956 0.51336 0.25988 0.0
C724 C 0.13355 0.52504 0.26192 0.0
C725 C 0.13082 0.55174 0.27266 0.0
C726 C 0.21053 0.51682 0.26726 0.0
C727 C 0.10857 0.50941 0.25241 0.0
C728 C 0.16461 0.45337 0.20263 0.0
C729 C 0.16129 0.43172 0.22429 0.0
C730 C 0.16517 0.48007 0.21404 0.0
C731 C 0.1625 0.48518 0.24792 0.0
C732 C 0.16038 0.46332 0.27003 0.0
C733 C 0.15972 0.43683 0.25793 0.0
C734 C 0.16739 0.50285 0.18968 0.0
C735 C 0.1577 0.46795 0.30635 0.0
H736 H 0.19675 0.56735 0.28596 0.0
H737 H 0.11087 0.56067 0.27398 0.0
H738 H 0.2116 0.49828 0.28238 0.0
H739 H 0.21526 0.5109 0.24176 0.0
H740 H 0.22621 0.53118 0.27587 0.0
H741 H 0.08981 0.52142 0.25551 0.0
H742 H 0.11001 0.50298 0.2265 0.0
H743 H 0.10693 0.49087 0.26746 0.0
H744 H 0.16588 0.44952 0.17661 0.0
H745 H 0.15728 0.42015 0.27481 0.0
H746 H 0.18375 0.51691 0.19689 0.0
H747 H 0.14829 0.51455 0.1894 0.0
H748 H 0.17143 0.49546 0.16453 0.0
H749 H 0.17379 0.48173 0.31512 0.0
H750 H 0.15883 0.44883 0.32047 0.0
H751 H 0.13806 0.47777 0.31159 0.0
C752 C 0.54376 0.16745 0.2032 0.0
C753 C 0.56391 0.158 0.22438 0.0
C754 C 0.51682 0.16936 0.21354 0.0
C755 C 0.50994 0.1615 0.24573 0.0
C756 C 0.53043 0.15321 0.26766 0.0
C757 C 0.55719 0.1516 0.25672 0.0
C758 C 0.49555 0.17851 0.18953 0.0
C759 C 0.52392 0.14463 0.30217 0.0
C760 C 0.44097 0.17761 0.28159 0.0
C761 C 0.42732 0.15317 0.27662 0.0
C762 C 0.46776 0.18092 0.27105 0.0
C763 C 0.48114 0.1592 0.25547 0.0
C764 C 0.46727 0.13464 0.25004 0.0
C765 C 0.44052 0.13197 0.26057 0.0
C766 C 0.48187 0.20746 0.27698 0.0
C767 C 0.48085 0.11093 0.23367 0.0
H768 H 0.54888 0.17257 0.17821 0.0
H769 H 0.57272 0.14439 0.27324 0.0
H770 H 0.48247 0.16119 0.18289 0.0
H771 H 0.48243 0.19411 0.20072 0.0
H772 H 0.50452 0.18684 0.16679 0.0
H773 H 0.54238 0.14108 0.31699 0.0
H774 H 0.51147 0.16019 0.31448 0.0
H775 H 0.51194 0.12572 0.30163 0.0
H776 H 0.4308 0.19407 0.29391 0.0
H777 H 0.43007 0.11303 0.25667 0.0
H778 H 0.48999 0.21551 0.25368 0.0
H779 H 0.49927 0.20437 0.29364 0.0
H780 H 0.46824 0.22279 0.2879 0.0
H781 H 0.48839 0.11691 0.20921 0.0
H782 H 0.46705 0.09343 0.23072 0.0
H783 H 0.49855 0.10442 0.24831 0.0
C784 C 0.8158 0.55148 0.2163 0.0
C785 C 0.84183 0.56247 0.21474 0.0
C786 C 0.81177 0.52461 0.22617 0.0
C787 C 0.8343 0.50859 0.23498 0.0
C788 C 0.8606 0.51967 0.23344 0.0
C789 C 0.86404 0.5464 0.22318 0.0
C790 C 0.78348 0.51336 0.22719 0.0
C791 C 0.88515 0.50332 0.24286 0.0
C792 C 0.82859 0.4476 0.29043 0.0
C793 C 0.83237 0.42641 0.26821 0.0
C794 C 0.82785 0.4745 0.27975 0.0
C795 C 0.83071 0.48025 0.24605 0.0
C796 C 0.83293 0.45883 0.22334 0.0
C797 C 0.83388 0.43214 0.23472 0.0
C798 C 0.82558 0.49679 0.30474 0.0
C799 C 0.83571 0.46413 0.18717 0.0
H800 H 0.79858 0.56384 0.20971 0.0
H801 H 0.88421 0.55483 0.22213 0.0
H802 H 0.78207 0.49525 0.21135 0.0
H803 H 0.7785 0.50688 0.25241 0.0
H804 H 0.76818 0.5283 0.21903 0.0
H805 H 0.90417 0.51503 0.24055 0.0
H806 H 0.88325 0.49628 0.26849 0.0
H807 H 0.88664 0.48514 0.22716 0.0
H808 H 0.82737 0.44326 0.31635 0.0
H809 H 0.83662 0.4158 0.21743 0.0
H810 H 0.80966 0.51136 0.29754 0.0
H811 H 0.84491 0.50805 0.30594 0.0
H812 H 0.82089 0.48894 0.32952 0.0
H813 H 0.82002 0.47854 0.17882 0.0
H814 H 0.83405 0.44534 0.1725 0.0
H815 H 0.85563 0.47347 0.18221 0.0
C816 C 0.5391 0.83225 0.29151 0.0
C817 C 0.56169 0.83104 0.27099 0.0
C818 C 0.51286 0.83215 0.27857 0.0
C819 C 0.50918 0.83087 0.24429 0.0
C820 C 0.5319 0.82855 0.22354 0.0
C821 C 0.55791 0.82865 0.23716 0.0
C822 C 0.48914 0.83455 0.3015 0.0
C823 C 0.52879 0.82712 0.18688 0.0
C824 C 0.43892 0.81527 0.21183 0.0
C825 C 0.42908 0.84124 0.20525 0.0
C826 C 0.46511 0.81147 0.22421 0.0
C827 C 0.48174 0.8342 0.2301 0.0
C828 C 0.472 0.86041 0.22306 0.0
C829 C 0.4458 0.8636 0.21073 0.0
C830 C 0.47486 0.78323 0.2314 0.0
C831 C 0.48912 0.88516 0.22895 0.0
H832 H 0.5419 0.83399 0.3177 0.0
H833 H 0.57532 0.82765 0.22119 0.0
H834 H 0.47891 0.85421 0.29759 0.0
H835 H 0.47415 0.81847 0.29636 0.0
H836 H 0.49529 0.83317 0.32756 0.0
H837 H 0.54826 0.82305 0.17438 0.0
H838 H 0.5142 0.81109 0.18011 0.0
H839 H 0.5206 0.84651 0.17763 0.0
H840 H 0.42605 0.79792 0.20763 0.0
H841 H 0.43831 0.88372 0.20566 0.0
H842 H 0.47941 0.78121 0.25784 0.0
H843 H 0.49386 0.77918 0.21796 0.0
H844 H 0.45976 0.76767 0.22454 0.0
H845 H 0.49438 0.88662 0.25525 0.0
H846 H 0.47872 0.90406 0.22155 0.0
H847 H 0.50831 0.88357 0.21516 0.0
C848 C 0.85008 0.54152 0.79762 0.0
C849 C 0.83426 0.56252 0.78498 0.0
C850 C 0.84788 0.51524 0.7853 0.0
C851 C 0.82918 0.50979 0.75998 0.0
C852 C 0.81207 0.53059 0.74839 0.0
C853 C 0.81495 0.55682 0.76091 0.0
C854 C 0.86663 0.49366 0.79816 0.0
C855 C 0.7916 0.52541 0.72178 0.0
C856 C 0.84937 0.45311 0.70308 0.0
C857 C 0.8349 0.43126 0.7159 0.0
C858 C 0.84708 0.47892 0.7167 0.0
C859 C 0.8296 0.48307 0.74356 0.0
C860 C 0.8141 0.46132 0.75583 0.0
C861 C 0.81709 0.43555 0.74198 0.0
C862 C 0.86416 0.50153 0.7031 0.0
C863 C 0.79495 0.46512 0.7841 0.0
H864 H 0.865 0.5458 0.81631 0.0
H865 H 0.80255 0.57298 0.75123 0.0
H866 H 0.85501 0.47553 0.80549 0.0
H867 H 0.88078 0.48742 0.77856 0.0
H868 H 0.87862 0.5007 0.81947 0.0
H869 H 0.77763 0.54273 0.71842 0.0
H870 H 0.80218 0.52169 0.69834 0.0
H871 H 0.77959 0.50711 0.72742 0.0
H872 H 0.86317 0.44989 0.68291 0.0
H873 H 0.80575 0.41872 0.75182 0.0
H874 H 0.87843 0.50873 0.72212 0.0
H875 H 0.85124 0.51887 0.69614 0.0
H876 H 0.87597 0.49517 0.68136 0.0
H877 H 0.80656 0.46978 0.8066 0.0
H878 H 0.78249 0.44687 0.78867 0.0
H879 H 0.78133 0.48247 0.7794 0.0
C880 C 0.56535 0.82597 0.74075 0.0
C881 C 0.57174 0.84383 0.71536 0.0
C882 C 0.53863 0.82323 0.75173 0.0
C883 C 0.51795 0.83867 0.73684 0.0
C884 C 0.52424 0.85614 0.71058 0.0
C885 C 0.55106 0.85854 0.70022 0.0
C886 C 0.53266 0.80445 0.77984 0.0
C887 C 0.50274 0.87289 0.69399 0.0
C888 C 0.44367 0.8218 0.74742 0.0
C889 C 0.43581 0.84118 0.77047 0.0
C890 C 0.47061 0.82009 0.73694 0.0
C891 C 0.49001 0.83812 0.74995 0.0
C892 C 0.4823 0.85709 0.77403 0.0
C893 C 0.45529 0.85842 0.78393 0.0
C894 C 0.47812 0.79963 0.71119 0.0
C895 C 0.50241 0.8766 0.78861 0.0
H896 H 0.58128 0.8145 0.75246 0.0
H897 H 0.55586 0.87226 0.68043 0.0
H898 H 0.52569 0.81631 0.80122 0.0
H899 H 0.51614 0.79038 0.77319 0.0
H900 H 0.55061 0.79248 0.78722 0.0
H901 H 0.51072 0.88427 0.6727 0.0
H902 H 0.48599 0.85978 0.68553 0.0
H903 H 0.49414 0.88751 0.71167 0.0
H904 H 0.42867 0.80839 0.73702 0.0
H905 H 0.44935 0.87332 0.80193 0.0
H906 H 0.49571 0.78753 0.71936 0.0
H907 H 0.48413 0.81021 0.68844 0.0
H908 H 0.46119 0.78573 0.70542 0.0
H909 H 0.52011 0.8655 0.79838 0.0
H910 H 0.49354 0.88888 0.8086 0.0
H911 H 0.5099 0.89046 0.76936 0.0
C912 C 0.1673 0.43331 0.7515 0.0
C913 C 0.14928 0.42696 0.77673 0.0
C914 C 0.16916 0.45975 0.73935 0.0
C915 C 0.15263 0.48021 0.75283 0.0
C916 C 0.13473 0.47396 0.77866 0.0
C917 C 0.13325 0.4474 0.79026 0.0
C918 C 0.18845 0.4657 0.71175 0.0
C919 C 0.11679 0.49524 0.79369 0.0
C920 C 0.16957 0.55429 0.74082 0.0
C921 C 0.15133 0.56155 0.71614 0.0
C922 C 0.17068 0.52769 0.75255 0.0
C923 C 0.15316 0.50798 0.7392 0.0
C924 C 0.13514 0.51511 0.71377 0.0
C925 C 0.13443 0.54182 0.70258 0.0
C926 C 0.19013 0.5208 0.77972 0.0
C927 C 0.11618 0.49465 0.69888 0.0
H928 H 0.17975 0.41757 0.741 0.0
H929 H 0.11934 0.44261 0.80985 0.0
H930 H 0.17701 0.47261 0.68998 0.0
H931 H 0.20234 0.48226 0.71878 0.0
H932 H 0.20063 0.44777 0.70482 0.0
H933 H 0.10467 0.48725 0.81436 0.0
H934 H 0.12916 0.51236 0.80267 0.0
H935 H 0.10279 0.50335 0.77493 0.0
H936 H 0.1827 0.56949 0.75133 0.0
H937 H 0.12036 0.54731 0.6834 0.0
H938 H 0.20305 0.50354 0.77244 0.0
H939 H 0.17874 0.51452 0.80176 0.0
H940 H 0.20332 0.5381 0.78631 0.0
H941 H 0.1277 0.47696 0.68986 0.0
H942 H 0.1043 0.50316 0.67827 0.0
H943 H 0.10194 0.48721 0.71775 0.0
C944 C 0.44346 0.15949 0.75176 0.0
C945 C 0.43361 0.17095 0.72282 0.0
C946 C 0.47073 0.16185 0.76035 0.0
C947 C 0.48844 0.17647 0.73981 0.0
C948 C 0.47827 0.18946 0.71156 0.0
C949 C 0.45096 0.18629 0.70318 0.0
C950 C 0.48083 0.14742 0.7905 0.0
C951 C 0.49642 0.20578 0.68954 0.0
C952 C 0.55615 0.19111 0.77924 0.0
C953 C 0.57175 0.16969 0.7673 0.0
C954 C 0.52938 0.19472 0.76883 0.0
C955 C 0.51788 0.17604 0.74667 0.0
C956 C 0.53397 0.1551 0.73347 0.0
C957 C 0.56083 0.15237 0.7437 0.0
C958 C 0.51307 0.21774 0.7827 0.0
C959 C 0.52237 0.13453 0.71012 0.0
H960 H 0.43012 0.14758 0.76699 0.0
H961 H 0.44334 0.19532 0.68087 0.0
H962 H 0.49539 0.13147 0.78332 0.0
H963 H 0.49167 0.16169 0.80673 0.0
H964 H 0.46423 0.1379 0.80461 0.0
H965 H 0.48479 0.21752 0.67117 0.0
H966 H 0.50892 0.21992 0.70415 0.0
H967 H 0.51041 0.1921 0.6764 0.0
H968 H 0.56465 0.20467 0.7973 0.0
H969 H 0.57283 0.13575 0.73447 0.0
H970 H 0.49798 0.20975 0.8002 0.0
H971 H 0.50184 0.22826 0.76299 0.0
H972 H 0.52595 0.23264 0.79569 0.0
H973 H 0.50666 0.12249 0.72279 0.0
H974 H 0.53798 0.12052 0.70058 0.0
H975 H 0.51252 0.14473 0.68916 0.0
C976 C 0.6333 0.05054 0.78005 0.0
C977 C 0.65592 0.06681 0.78593 0.0
C978 C 0.63615 0.02409 0.76844 0.0
C979 C 0.66229 0.01355 0.76281 0.0
C980 C 0.68526 0.02967 0.76937 0.0
C981 C 0.6818 0.0562 0.78074 0.0
C982 C 0.61113 0.0076 0.76159 0.0
C983 C 0.71343 0.019 0.76397 0.0
C984 C 0.66557 0.93719 0.75727 0.0
C985 C 0.66477 0.93313 0.72338 0.0
C986 C 0.66599 0.96332 0.77049 0.0
C987 C 0.66531 0.98587 0.74928 0.0
C988 C 0.66547 0.98187 0.71502 0.0
C989 C 0.66532 0.95552 0.70247 0.0
C990 C 0.66613 0.96678 0.80714 0.0
C991 C 0.66458 0.0054 0.6916 0.0
H992 H 0.61324 0.05865 0.78397 0.0
H993 H 0.69935 0.0687 0.78531 0.0
H994 H 0.61048 0.00196 0.73536 0.0
H995 H 0.61164 0.9886 0.7759 0.0
H996 H 0.5923 0.01866 0.76769 0.0
H997 H 0.72918 0.03366 0.7716 0.0
H998 H 0.71636 -3e-05 0.77781 0.0
H999 H 0.71636 0.01423 0.73773 0.0
H1000 H 0.66529 0.91993 0.77354 0.0
H1001 H 0.6647 0.95248 0.67626 0.0
H1002 H 0.64664 0.97556 0.81516 0.0
H1003 H 0.68228 0.98102 0.81458 0.0
H1004 H 0.66921 0.94734 0.82015 0.0
H1005 H 0.64516 0.01631 0.6944 0.0
H1006 H 0.6666 -0.00107 0.66573 0.0
H1007 H 0.68097 0.01991 0.69728 0.0
C1008 C 0.9443 0.63135 0.75978 0.0
C1009 C 0.93068 0.6534 0.77345 0.0
C1010 C 0.97096 0.63377 0.74881 0.0
C1011 C 0.98433 0.65891 0.75145 0.0
C1012 C 0.97055 0.68141 0.76472 0.0
C1013 C 0.94385 0.67838 0.77565 0.0
C1014 C 0.98495 0.60926 0.73486 0.0
C1015 C 0.98415 0.70855 0.76774 0.0
C1016 C 0.06065 0.65371 0.75227 0.0
C1017 C 0.06691 0.65836 0.71936 0.0
C1018 C 0.03391 0.65502 0.76338 0.0
C1019 C 0.01297 0.66117 0.74102 0.0
C1020 C 0.01932 0.66711 0.70808 0.0
C1021 C 0.04625 0.6656 0.69762 0.0
C1022 C 0.02795 0.64857 0.79871 0.0
C1023 C 0.99756 0.67387 0.68356 0.0
H1024 H 0.93423 0.61199 0.75801 0.0
H1025 H 0.93337 0.69549 0.78617 0.0
H1026 H 0.9922 0.6136 0.70978 0.0
H1027 H 0.00289 0.60421 0.74992 0.0
H1028 H 0.97153 0.59132 0.73395 0.0
H1029 H 0.97033 0.72428 0.77741 0.0
H1030 H 0.00182 0.70695 0.7843 0.0
H1031 H 0.99179 0.71517 0.74357 0.0
H1032 H 0.07656 0.64821 0.76921 0.0
H1033 H 0.051 0.66932 0.67217 0.0
H1034 H 0.01643 0.62942 0.80019 0.0
H1035 H 0.01524 0.6646 0.80968 0.0
H1036 H 0.04664 0.64643 0.81351 0.0
H1037 H 0.98479 0.65584 0.67922 0.0
H1038 H 0.00604 0.68058 0.6598 0.0
H1039 H 0.98423 0.69 0.6932 0.0
C1040 C 0.31963 0.05376 0.71074 0.0
C1041 C 0.34422 0.0668 0.71696 0.0
C1042 C 0.31587 0.02654 0.7193 0.0
C1043 C 0.33719 0.01219 0.73448 0.0
C1044 C 0.36193 0.02541 0.74109 0.0
C1045 C 0.36514 0.05251 0.7322 0.0
C1046 C 0.28926 0.01307 0.71184 0.0
C1047 C 0.38514 0.01085 0.75733 0.0
C1048 C 0.32671 0.94845 0.78412 0.0
C1049 C 0.3365 0.9287 0.76267 0.0
C1050 C 0.32543 0.97565 0.77467 0.0
C1051 C 0.33415 0.9832 0.74303 0.0
C1052 C 0.34266 0.96312 0.7207 0.0
C1053 C 0.34375 0.9361 0.73081 0.0
C1054 C 0.31618 0.99646 0.79915 0.0
C1055 C 0.352 0.97034 0.6867 0.0
H1056 H 0.3034 0.06475 0.69896 0.0
H1057 H 0.38417 0.0625 0.73716 0.0
H1058 H 0.29249 0.99592 0.69486 0.0
H1059 H 0.28041 0.00468 0.73456 0.0
H1060 H 0.2745 0.02719 0.70065 0.0
H1061 H 0.40286 0.02419 0.7613 0.0
H1062 H 0.37865 0.00267 0.7813 0.0
H1063 H 0.39153 0.9935 0.74206 0.0
H1064 H 0.32097 0.94282 0.80875 0.0
H1065 H 0.3512 0.92089 0.71406 0.0
H1066 H 0.30101 0.01012 0.78799 0.0
H1067 H 0.3336 0.00906 0.80673 0.0
H1068 H 0.30727 0.98708 0.82131 0.0
H1069 H 0.33703 0.9836 0.6745 0.0
H1070 H 0.35527 0.9522 0.67125 0.0
H1071 H 0.37125 0.9817 0.6882 0.0
C1072 C 0.0418 0.33215 0.79637 0.0
C1073 C 0.06401 0.33202 0.7752 0.0
C1074 C 0.01533 0.33156 0.78413 0.0
C1075 C 0.01104 0.33068 0.74994 0.0
C1076 C 0.03341 0.32915 0.72854 0.0
C1077 C 0.05965 0.32992 0.74144 0.0
C1078 C 0.992 0.33325 0.80774 0.0
C1079 C 0.02965 0.32799 0.69195 0.0
C1080 C 0.94051 0.31513 0.71814 0.0
C1081 C 0.93057 0.34113 0.71196 0.0
C1082 C 0.96677 0.3113 0.73035 0.0
C1083 C 0.98334 0.33402 0.73649 0.0
C1084 C 0.97343 0.36027 0.73003 0.0
C1085 C 0.9472 0.36349 0.71784 0.0
C1086 C 0.9767 0.28302 0.73689 0.0
C1087 C 0.99047 0.38504 0.73622 0.0
H1088 H 0.04506 0.33371 0.8225 0.0
H1089 H 0.07676 0.32965 0.72497 0.0
H1090 H 0.9816 0.35293 0.80475 0.0
H1091 H 0.97701 0.31721 0.80246 0.0
H1092 H -0.00137 0.33133 0.83357 0.0
H1093 H 0.04892 0.32408 0.67893 0.0
H1094 H 0.015 0.31197 0.68535 0.0
H1095 H 0.02127 0.34744 0.68315 0.0
H1096 H 0.92771 0.29778 0.71365 0.0
H1097 H 0.93963 0.38364 0.71311 0.0
H1098 H 0.98179 0.28075 0.76316 0.0
H1099 H 0.99544 0.27915 0.72285 0.0
H1100 H 0.9615 0.26748 0.73026 0.0
H1101 H 0.99626 0.38599 0.76239 0.0
H1102 H 0.9798 0.404 0.72971 0.0
H1103 H 0.00939 0.38389 0.72182 0.0
C1104 C 0.31263 0.05498 0.26114 0.0
C1105 C 0.3335 0.06101 0.28311 0.0
C1106 C 0.30987 0.02892 0.24808 0.0
C1107 C 0.32862 0.00864 0.25697 0.0
C1108 C 0.34913 0.01443 0.28002 0.0
C1109 C 0.35121 0.04051 0.29295 0.0
C1110 C 0.28752 0.02335 0.22392 0.0
C1111 C 0.36966 0.99342 0.28992 0.0
C1112 C 0.31754 0.93415 0.2399 0.0
C1113 C 0.33331 0.9305 0.21184 0.0
C1114 C 0.31479 0.95978 0.25417 0.0
C1115 C 0.32845 0.98206 0.24022 0.0
C1116 C 0.34374 0.97857 0.21135 0.0
C1117 C 0.34586 0.95286 0.19742 0.0
C1118 C 0.298 0.96286 0.28469 0.0
C1119 C 0.3588 0.00179 0.19588 0.0
H1120 H 0.29879 0.07075 0.25363 0.0
H1121 H 0.36735 0.04505 0.30998 0.0
H1122 H 0.29626 0.01994 0.19932 0.0
H1123 H 0.27646 0.00474 0.23081 0.0
H1124 H 0.27292 0.04031 0.22233 0.0
H1125 H 0.38336 0.00072 0.30953 0.0
H1126 H 0.35939 0.97488 0.29859 0.0
H1127 H 0.38206 0.98774 0.26843 0.0
H1128 H 0.30767 0.91692 0.251 0.0
H1129 H 0.35805 0.95014 0.17569 0.0
H1130 H 0.28356 0.97981 0.28189 0.0
H1131 H 0.3113 0.96774 0.3057 0.0
H1132 H 0.28654 0.94422 0.29056 0.0
H1133 H 0.34483 0.0188 0.19096 0.0
H1134 H 0.36872 0.99596 0.1726 0.0
H1135 H 0.3745 0.00926 0.21299 0.0
C1136 C 0.93879 0.32149 0.24984 0.0
C1137 C 0.93101 0.3408 0.273 0.0
C1138 C 0.96566 0.31992 0.23908 0.0
C1139 C 0.98507 0.33802 0.25194 0.0
C1140 C 0.9774 0.35706 0.27595 0.0
C1141 C 0.95046 0.35826 0.28611 0.0
C1142 C 0.97313 0.29941 0.21337 0.0
C1143 C 0.99753 0.37665 0.29034 0.0
C1144 C 0.06034 0.32536 0.24356 0.0
C1145 C 0.06703 0.34309 0.21814 0.0
C1146 C 0.03354 0.32283 0.25426 0.0
C1147 C 0.01307 0.33833 0.23904 0.0
C1148 C 0.01964 0.35565 0.21275 0.0
C1149 C 0.04655 0.35787 0.20268 0.0
C1150 C 0.02726 0.30422 0.28243 0.0
C1151 C -0.00164 0.37244 0.19582 0.0
H1152 H 0.9238 0.30792 0.23971 0.0
H1153 H 0.94458 0.37313 0.30418 0.0
H1154 H 0.97951 0.30993 0.19073 0.0
H1155 H 0.99048 0.28707 0.22177 0.0
H1156 H 0.95608 0.28573 0.20734 0.0
H1157 H 0.98861 0.38921 0.31006 0.0
H1158 H 0.01511 0.36557 0.30045 0.0
H1159 H 0.00521 0.39024 0.27092 0.0
H1160 H 0.07612 0.31384 0.2555 0.0
H1161 H 0.05159 0.37147 0.18286 0.0
H1162 H 0.01073 0.29018 0.27569 0.0
H1163 H 0.02017 0.31622 0.30364 0.0
H1164 H 0.0451 0.2922 0.29011 0.0
H1165 H 0.98155 0.3594 0.18737 0.0
H1166 H 0.00653 0.38361 0.17448 0.0
H1167 H 0.98977 0.38725 0.21328 0.0
C1168 C 0.66159 0.92963 0.24935 0.0
C1169 C 0.64616 0.92328 0.27698 0.0
C1170 C 0.66319 0.95626 0.23782 0.0
C1171 C 0.64903 0.97695 0.25439 0.0
C1172 C 0.63382 0.97071 0.28264 0.0
C1173 C 0.63255 0.94393 0.29358 0.0
C1174 C 0.67958 0.96218 0.20758 0.0
C1175 C 0.61848 0.99223 0.30099 0.0
C1176 C 0.66754 0.05052 0.24089 0.0
C1177 C 0.64726 0.05877 0.21918 0.0
C1178 C 0.66868 0.02378 0.25218 0.0
C1179 C 0.64909 0.00496 0.24144 0.0
C1180 C 0.62886 0.01311 0.21909 0.0
C1181 C 0.62819 0.03993 0.20824 0.0
C1182 C 0.69054 0.01578 0.27602 0.0
C1183 C 0.60763 0.99362 0.20703 0.0
H1184 H 0.67219 0.91373 0.23647 0.0
H1185 H 0.62066 0.93914 0.31502 0.0
H1186 H 0.66616 0.96987 0.18795 0.0
H1187 H 0.69464 0.97817 0.21279 0.0
H1188 H 0.69032 0.94405 0.19836 0.0
H1189 H 0.6085 0.98422 0.32326 0.0
H1190 H 0.63233 0.00877 0.30827 0.0
H1191 H 0.60282 0.00116 0.28489 0.0
H1192 H 0.68234 0.06503 0.24937 0.0
H1193 H 0.6125 0.04619 0.19139 0.0
H1194 H 0.70205 -0.00168 0.26638 0.0
H1195 H 0.68132 0.00937 0.29945 0.0
H1196 H 0.70485 0.03255 0.281 0.0
H1197 H 0.61737 0.97576 0.19574 0.0
H1198 H 0.59385 0.00294 0.18882 0.0
H1199 H 0.59542 0.98627 0.22792 0.0
C1200 C 0.0589 0.65711 0.24037 0.0
C1201 C 0.06854 0.67105 0.26778 0.0
C1202 C 0.03183 0.65921 0.23079 0.0
C1203 C 0.01412 0.67602 0.24873 0.0
C1204 C 0.02421 0.69161 0.27502 0.0
C1205 C 0.05131 0.68873 0.28447 0.0
C1206 C 0.02181 0.64203 0.2028 0.0
C1207 C 0.0061 0.71026 0.29422 0.0
C1208 C 0.9457 0.6869 0.20898 0.0
C1209 C 0.93023 0.66702 0.22453 0.0
C1210 C 0.97278 0.69118 0.2178 0.0
C1211 C 0.98466 0.67476 0.2422 0.0
C1212 C 0.96878 0.65536 0.25877 0.0
C1213 C 0.94169 0.65191 0.24993 0.0
C1214 C 0.98891 0.71251 0.20019 0.0
C1215 C 0.98075 0.63724 0.28471 0.0
H1216 H 0.07217 0.64343 0.22738 0.0
H1217 H 0.05878 0.69972 0.30553 0.0
H1218 H 0.00758 0.62659 0.21222 0.0
H1219 H 0.01062 0.65456 0.18489 0.0
H1220 H 0.03851 0.63156 0.1899 0.0
H1221 H 0.01778 0.72392 0.31045 0.0
H1222 H 0.99355 0.72265 0.2775 0.0
H1223 H 0.99218 0.69815 0.30955 0.0
H1224 H 0.93683 0.69875 0.18946 0.0
H1225 H 0.92981 0.6365 0.26201 0.0
H1226 H 0.00391 0.70272 0.18396 0.0
H1227 H 0.00026 0.72508 0.21794 0.0
H1228 H 0.97591 0.72587 0.1851 0.0
H1229 H 0.99663 0.62432 0.27371 0.0
H1230 H 0.96538 0.62397 0.2962 0.0
H1231 H 0.99047 0.64949 0.30409 0.0
loop_
_geom_bond_atom_site_label_1
_geom_bond_atom_site_label_2
_geom_bond_distance
_geom_bond_site_symmetry_2
_ccdc_geom_bond_type
In0 O1 2.294 . S
In0 O2 2.326 . S
In0 O6 2.266 . S
In0 O7 2.326 . S
In0 O8 2.266 . S
In0 O9 2.326 . S
In0 O11 2.294 . S
In0 O12 2.326 . S
O1 In0 2.294 . S
O1 C10 1.240 . S
O2 In0 2.326 . S
O2 C10 1.252 . S
C3 O6 1.252 . S
C3 O7 1.260 . S
C4 O11 1.240 . S
C4 O12 1.252 . S
C5 O8 1.252 . S
C5 O9 1.260 . S
O6 In0 2.266 . S
O6 C3 1.252 . S
O7 In0 2.326 . S
O7 C3 1.260 . S
O8 In0 2.266 . S
O8 C5 1.252 . S
O9 In0 2.326 . S
O9 C5 1.260 . S
C10 O1 1.240 . S
C10 O2 1.252 . S
O11 In0 2.294 . S
O11 C4 1.240 . S
O12 In0 2.326 . S
O12 C4 1.252 . S
In13 O14 2.294 . S
In13 O15 2.326 . S
In13 O19 2.266 . S
In13 O20 2.326 . S
In13 O21 2.266 . S
In13 O22 2.326 . S
In13 O24 2.294 . S
In13 O25 2.326 . S
O14 In13 2.294 . S
O14 C23 1.240 . S
O15 In13 2.326 . S
O15 C23 1.252 . S
C16 O19 1.252 . S
C16 O20 1.260 . S
C17 O24 1.240 . S
C17 O25 1.252 . S
C18 O21 1.252 . S
C18 O22 1.260 . S
O19 In13 2.266 . S
O19 C16 1.252 . S
O20 In13 2.326 . S
O20 C16 1.260 . S
O21 In13 2.266 . S
O21 C18 1.252 . S
O22 In13 2.326 . S
O22 C18 1.260 . S
C23 O14 1.240 . S
C23 O15 1.252 . S
O24 In13 2.294 . S
O24 C17 1.240 . S
O25 In13 2.326 . S
O25 C17 1.252 . S
In26 O27 2.294 . S
In26 O28 2.326 . S
In26 O32 2.266 . S
In26 O33 2.326 . S
In26 O34 2.266 . S
In26 O35 2.326 . S
In26 O37 2.294 . S
In26 O38 2.326 . S
O27 In26 2.294 . S
O27 C36 1.240 . S
O28 In26 2.326 . S
O28 C36 1.252 . S
C29 O32 1.252 . S
C29 O33 1.260 . S
C30 O37 1.240 . S
C30 O38 1.252 . S
C31 O34 1.252 . S
C31 O35 1.260 . S
O32 In26 2.266 . S
O32 C29 1.252 . S
O33 In26 2.326 . S
O33 C29 1.260 . S
O34 In26 2.266 . S
O34 C31 1.252 . S
O35 In26 2.326 . S
O35 C31 1.260 . S
C36 O27 1.240 . S
C36 O28 1.252 . S
O37 In26 2.294 . S
O37 C30 1.240 . S
O38 In26 2.326 . S
O38 C30 1.252 . S
In39 O40 2.294 . S
In39 O41 2.326 . S
In39 O45 2.266 . S
In39 O46 2.326 . S
In39 O47 2.266 . S
In39 O48 2.326 . S
In39 O50 2.294 . S
In39 O51 2.326 . S
O40 In39 2.294 . S
O40 C49 1.240 . S
O41 In39 2.326 . S
O41 C49 1.252 . S
C42 O45 1.252 . S
C42 O46 1.260 . S
C43 O50 1.240 . S
C43 O51 1.252 . S
C44 O47 1.252 . S
C44 O48 1.260 . S
O45 In39 2.266 . S
O45 C42 1.252 . S
O46 In39 2.326 . S
O46 C42 1.260 . S
O47 In39 2.266 . S
O47 C44 1.252 . S
O48 In39 2.326 . S
O48 C44 1.260 . S
C49 O40 1.240 . S
C49 O41 1.252 . S
O50 In39 2.294 . S
O50 C43 1.240 . S
O51 In39 2.326 . S
O51 C43 1.252 . S
In52 O53 2.294 . S
In52 O54 2.326 . S
In52 O58 2.266 . S
In52 O59 2.326 . S
In52 O60 2.266 . S
In52 O61 2.326 . S
In52 O63 2.294 . S
In52 O64 2.326 . S
O53 In52 2.294 . S
O53 C62 1.240 . S
O54 In52 2.326 . S
O54 C62 1.252 . S
C55 O58 1.252 . S
C55 O59 1.260 . S
C56 O63 1.240 . S
C56 O64 1.252 . S
C57 O60 1.252 . S
C57 O61 1.260 . S
O58 In52 2.266 . S
O58 C55 1.252 . S
O59 In52 2.326 . S
O59 C55 1.260 . S
O60 In52 2.266 . S
O60 C57 1.252 . S
O61 In52 2.326 . S
O61 C57 1.260 . S
C62 O53 1.240 . S
C62 O54 1.252 . S
O63 In52 2.294 . S
O63 C56 1.240 . S
O64 In52 2.326 . S
O64 C56 1.252 . S
In65 O66 2.294 . S
In65 O67 2.326 . S
In65 O71 2.266 . S
In65 O72 2.326 . S
In65 O73 2.266 . S
In65 O74 2.326 . S
In65 O76 2.294 . S
In65 O77 2.326 . S
O66 In65 2.294 . S
O66 C75 1.240 . S
O67 In65 2.326 . S
O67 C75 1.252 . S
C68 O71 1.252 . S
C68 O72 1.260 . S
C69 O76 1.240 . S
C69 O77 1.252 . S
C70 O73 1.252 . S
C70 O74 1.260 . S
O71 In65 2.266 . S
O71 C68 1.252 . S
O72 In65 2.326 . S
O72 C68 1.260 . S
O73 In65 2.266 . S
O73 C70 1.252 . S
O74 In65 2.326 . S
O74 C70 1.260 . S
C75 O66 1.240 . S
C75 O67 1.252 . S
O76 In65 2.294 . S
O76 C69 1.240 . S
O77 In65 2.326 . S
O77 C69 1.252 . S
In78 O79 2.294 . S
In78 O80 2.326 . S
In78 O84 2.266 . S
In78 O85 2.326 . S
In78 O86 2.266 . S
In78 O87 2.326 . S
In78 O89 2.294 . S
In78 O90 2.326 . S
O79 In78 2.294 . S
O79 C88 1.240 . S
O80 In78 2.326 . S
O80 C88 1.252 . S
C81 O84 1.252 . S
C81 O85 1.260 . S
C82 O89 1.240 . S
C82 O90 1.252 . S
C83 O86 1.252 . S
C83 O87 1.260 . S
O84 In78 2.266 . S
O84 C81 1.252 . S
O85 In78 2.326 . S
O85 C81 1.260 . S
O86 In78 2.266 . S
O86 C83 1.252 . S
O87 In78 2.326 . S
O87 C83 1.260 . S
C88 O79 1.240 . S
C88 O80 1.252 . S
O89 In78 2.294 . S
O89 C82 1.240 . S
O90 In78 2.326 . S
O90 C82 1.252 . S
In91 O92 2.294 . S
In91 O93 2.326 . S
In91 O97 2.266 . S
In91 O98 2.326 . S
In91 O99 2.266 . S
In91 O100 2.326 . S
In91 O102 2.294 . S
In91 O103 2.326 . S
O92 In91 2.294 . S
O92 C101 1.240 . S
O93 In91 2.326 . S
O93 C101 1.252 . S
C94 O97 1.252 . S
C94 O98 1.260 . S
C95 O102 1.240 . S
C95 O103 1.252 . S
C96 O99 1.252 . S
C96 O100 1.260 . S
O97 In91 2.266 . S
O97 C94 1.252 . S
O98 In91 2.326 . S
O98 C94 1.260 . S
O99 In91 2.266 . S
O99 C96 1.252 . S
O100 In91 2.326 . S
O100 C96 1.260 . S
C101 O92 1.240 . S
C101 O93 1.252 . S
O102 In91 2.294 . S
O102 C95 1.240 . S
O103 In91 2.326 . S
O103 C95 1.252 . S
In104 O105 2.294 . S
In104 O106 2.326 . S
In104 O110 2.266 . S
In104 O111 2.326 . S
In104 O112 2.266 . S
In104 O113 2.326 . S
In104 O115 2.294 . S
In104 O116 2.326 . S
O105 In104 2.294 . S
O105 C114 1.240 . S
O106 In104 2.326 . S
O106 C114 1.252 . S
C107 O110 1.252 . S
C107 O111 1.260 . S
C108 O115 1.240 . S
C108 O116 1.252 . S
C109 O112 1.252 . S
C109 O113 1.260 . S
O110 In104 2.266 . S
O110 C107 1.252 . S
O111 In104 2.326 . S
O111 C107 1.260 . S
O112 In104 2.266 . S
O112 C109 1.252 . S
O113 In104 2.326 . S
O113 C109 1.260 . S
C114 O105 1.240 . S
C114 O106 1.252 . S
O115 In104 2.294 . S
O115 C108 1.240 . S
O116 In104 2.326 . S
O116 C108 1.252 . S
In117 O118 2.294 . S
In117 O119 2.326 . S
In117 O123 2.266 . S
In117 O124 2.326 . S
In117 O125 2.266 . S
In117 O126 2.326 . S
In117 O128 2.294 . S
In117 O129 2.326 . S
O118 In117 2.294 . S
O118 C127 1.240 . S
O119 In117 2.326 . S
O119 C127 1.252 . S
C120 O123 1.252 . S
C120 O124 1.260 . S
C121 O128 1.240 . S
C121 O129 1.252 . S
C122 O125 1.252 . S
C122 O126 1.260 . S
O123 In117 2.266 . S
O123 C120 1.252 . S
O124 In117 2.326 . S
O124 C120 1.260 . S
O125 In117 2.266 . S
O125 C122 1.252 . S
O126 In117 2.326 . S
O126 C122 1.260 . S
C127 O118 1.240 . S
C127 O119 1.252 . S
O128 In117 2.294 . S
O128 C121 1.240 . S
O129 In117 2.326 . S
O129 C121 1.252 . S
In130 O131 2.294 . S
In130 O132 2.326 . S
In130 O136 2.266 . S
In130 O137 2.326 . S
In130 O138 2.266 . S
In130 O139 2.326 . S
In130 O141 2.294 . S
In130 O142 2.326 . S
O131 In130 2.294 . S
O131 C140 1.240 . S
O132 In130 2.326 . S
O132 C140 1.252 . S
C133 O136 1.252 . S
C133 O137 1.260 . S
C134 O141 1.240 . S
C134 O142 1.252 . S
C135 O138 1.252 . S
C135 O139 1.260 . S
O136 In130 2.266 . S
O136 C133 1.252 . S
O137 In130 2.326 . S
O137 C133 1.260 . S
O138 In130 2.266 . S
O138 C135 1.252 . S
O139 In130 2.326 . S
O139 C135 1.260 . S
C140 O131 1.240 . S
C140 O132 1.252 . S
O141 In130 2.294 . S
O141 C134 1.240 . S
O142 In130 2.326 . S
O142 C134 1.252 . S
In143 O144 2.294 . S
In143 O145 2.326 . S
In143 O149 2.266 . S
In143 O150 2.326 . S
In143 O151 2.266 . S
In143 O152 2.326 . S
In143 O154 2.294 . S
In143 O155 2.326 . S
O144 In143 2.294 . S
O144 C153 1.240 . S
O145 In143 2.326 . S
O145 C153 1.252 . S
C146 O149 1.252 . S
C146 O150 1.260 . S
C147 O154 1.240 . S
C147 O155 1.252 . S
C148 O151 1.252 . S
C148 O152 1.260 . S
O149 In143 2.266 . S
O149 C146 1.252 . S
O150 In143 2.326 . S
O150 C146 1.260 . S
O151 In143 2.266 . S
O151 C148 1.252 . S
O152 In143 2.326 . S
O152 C148 1.260 . S
C153 O144 1.240 . S
C153 O145 1.252 . S
O154 In143 2.294 . S
O154 C147 1.240 . S
O155 In143 2.326 . S
O155 C147 1.252 . S
In156 O157 2.294 . S
In156 O158 2.326 . S
In156 O162 2.266 . S
In156 O163 2.326 . S
In156 O164 2.266 . S
In156 O165 2.326 . S
In156 O167 2.294 . S
In156 O168 2.326 . S
O157 In156 2.294 . S
O157 C166 1.240 . S
O158 In156 2.326 . S
O158 C166 1.252 . S
C159 O162 1.252 . S
C159 O163 1.260 . S
C160 O167 1.240 . S
C160 O168 1.252 . S
C161 O164 1.252 . S
C161 O165 1.260 . S
O162 In156 2.266 . S
O162 C159 1.252 . S
O163 In156 2.326 . S
O163 C159 1.260 . S
O164 In156 2.266 . S
O164 C161 1.252 . S
O165 In156 2.326 . S
O165 C161 1.260 . S
C166 O157 1.240 . S
C166 O158 1.252 . S
O167 In156 2.294 . S
O167 C160 1.240 . S
O168 In156 2.326 . S
O168 C160 1.252 . S
In169 O170 2.294 . S
In169 O171 2.326 . S
In169 O175 2.266 . S
In169 O176 2.326 . S
In169 O177 2.266 . S
In169 O178 2.326 . S
In169 O180 2.294 . S
In169 O181 2.326 . S
O170 In169 2.294 . S
O170 C179 1.240 . S
O171 In169 2.326 . S
O171 C179 1.252 . S
C172 O175 1.252 . S
C172 O176 1.260 . S
C173 O180 1.240 . S
C173 O181 1.252 . S
C174 O177 1.252 . S
C174 O178 1.260 . S
O175 In169 2.266 . S
O175 C172 1.252 . S
O176 In169 2.326 . S
O176 C172 1.260 . S
O177 In169 2.266 . S
O177 C174 1.252 . S
O178 In169 2.326 . S
O178 C174 1.260 . S
C179 O170 1.240 . S
C179 O171 1.252 . S
O180 In169 2.294 . S
O180 C173 1.240 . S
O181 In169 2.326 . S
O181 C173 1.252 . S
In182 O183 2.294 . S
In182 O184 2.326 . S
In182 O188 2.266 . S
In182 O189 2.326 . S
In182 O190 2.266 . S
In182 O191 2.326 . S
In182 O193 2.294 . S
In182 O194 2.326 . S
O183 In182 2.294 . S
O183 C192 1.240 . S
O184 In182 2.326 . S
O184 C192 1.252 . S
C185 O188 1.252 . S
C185 O189 1.260 . S
C186 O193 1.240 . S
C186 O194 1.252 . S
C187 O190 1.252 . S
C187 O191 1.260 . S
O188 In182 2.266 . S
O188 C185 1.252 . S
O189 In182 2.326 . S
O189 C185 1.260 . S
O190 In182 2.266 . S
O190 C187 1.252 . S
O191 In182 2.326 . S
O191 C187 1.260 . S
C192 O183 1.240 . S
C192 O184 1.252 . S
O193 In182 2.294 . S
O193 C186 1.240 . S
O194 In182 2.326 . S
O194 C186 1.252 . S
In195 O196 2.294 . S
In195 O197 2.326 . S
In195 O201 2.266 . S
In195 O202 2.326 . S
In195 O203 2.266 . S
In195 O204 2.326 . S
In195 O206 2.294 . S
In195 O207 2.326 . S
O196 In195 2.294 . S
O196 C205 1.240 . S
O197 In195 2.326 . S
O197 C205 1.252 . S
C198 O201 1.252 . S
C198 O202 1.260 . S
C199 O206 1.240 . S
C199 O207 1.252 . S
C200 O203 1.252 . S
C200 O204 1.260 . S
O201 In195 2.266 . S
O201 C198 1.252 . S
O202 In195 2.326 . S
O202 C198 1.260 . S
O203 In195 2.266 . S
O203 C200 1.252 . S
O204 In195 2.326 . S
O204 C200 1.260 . S
C205 O196 1.240 . S
C205 O197 1.252 . S
O206 In195 2.294 . S
O206 C199 1.240 . S
O207 In195 2.326 . S
O207 C199 1.252 . S
C208 C209 1.391 . S
C208 C210 1.394 . S
C208 H224 0.931 . S
C209 C208 1.391 . S
C209 C213 1.376 . S
C210 C208 1.394 . S
C210 C211 1.369 . S
C210 C214 1.531 . S
C211 C210 1.369 . S
C211 C212 1.410 . S
C211 C219 1.503 . S
C212 C211 1.410 . S
C212 C213 1.392 . S
C212 C215 1.511 . S
C213 C209 1.376 . S
C213 C212 1.392 . S
C213 H225 0.929 . S
C214 C210 1.531 . S
C214 H226 0.960 . S
C214 H227 0.962 . S
C214 H228 0.960 . S
C215 C212 1.511 . S
C215 H229 0.961 . S
C215 H230 0.961 . S
C215 H231 0.961 . S
C216 C217 1.370 . S
C216 C218 1.363 . S
C216 H232 0.931 . S
C217 C216 1.370 . S
C217 C221 1.408 . S
C218 C216 1.363 . S
C218 C219 1.370 . S
C218 C222 1.524 . S
C219 C211 1.503 . S
C219 C218 1.370 . S
C219 C220 1.403 . S
C220 C219 1.403 . S
C220 C221 1.404 . S
C220 C223 1.539 . S
C221 C217 1.408 . S
C221 C220 1.404 . S
C221 H233 0.930 . S
C222 C218 1.524 . S
C222 H234 0.956 . S
C222 H235 0.961 . S
C222 H236 0.961 . S
C223 C220 1.539 . S
C223 H237 0.958 . S
C223 H238 0.961 . S
C223 H239 0.960 . S
H224 C208 0.931 . S
H225 C213 0.929 . S
H226 C214 0.960 . S
H227 C214 0.962 . S
H228 C214 0.960 . S
H229 C215 0.961 . S
H230 C215 0.961 . S
H231 C215 0.961 . S
H232 C216 0.931 . S
H233 C221 0.930 . S
H234 C222 0.956 . S
H235 C222 0.961 . S
H236 C222 0.961 . S
H237 C223 0.958 . S
H238 C223 0.961 . S
H239 C223 0.960 . S
C240 C241 1.391 . S
C240 C242 1.394 . S
C240 H256 0.931 . S
C241 C240 1.391 . S
C241 C245 1.376 . S
C242 C240 1.394 . S
C242 C243 1.369 . S
C242 C246 1.531 . S
C243 C242 1.369 . S
C243 C244 1.410 . S
C243 C251 1.503 . S
C244 C243 1.410 . S
C244 C245 1.392 . S
C244 C247 1.511 . S
C245 C241 1.376 . S
C245 C244 1.392 . S
C245 H257 0.929 . S
C246 C242 1.531 . S
C246 H258 0.960 . S
C246 H259 0.962 . S
C246 H260 0.960 . S
C247 C244 1.511 . S
C247 H261 0.961 . S
C247 H262 0.961 . S
C247 H263 0.961 . S
C248 C249 1.370 . S
C248 C250 1.363 . S
C248 H264 0.931 . S
C249 C248 1.370 . S
C249 C253 1.408 . S
C250 C248 1.363 . S
C250 C251 1.370 . S
C250 C254 1.524 . S
C251 C243 1.503 . S
C251 C250 1.370 . S
C251 C252 1.403 . S
C252 C251 1.403 . S
C252 C253 1.404 . S
C252 C255 1.539 . S
C253 C249 1.408 . S
C253 C252 1.404 . S
C253 H265 0.930 . S
C254 C250 1.524 . S
C254 H266 0.956 . S
C254 H267 0.961 . S
C254 H268 0.961 . S
C255 C252 1.539 . S
C255 H269 0.958 . S
C255 H270 0.961 . S
C255 H271 0.960 . S
H256 C240 0.931 . S
H257 C245 0.929 . S
H258 C246 0.960 . S
H259 C246 0.962 . S
H260 C246 0.960 . S
H261 C247 0.961 . S
H262 C247 0.961 . S
H263 C247 0.961 . S
H264 C248 0.931 . S
H265 C253 0.930 . S
H266 C254 0.956 . S
H267 C254 0.961 . S
H268 C254 0.961 . S
H269 C255 0.958 . S
H270 C255 0.961 . S
H271 C255 0.960 . S
C272 C273 1.391 . S
C272 C274 1.394 . S
C272 H288 0.931 . S
C273 C272 1.391 . S
C273 C277 1.376 . S
C274 C272 1.394 . S
C274 C275 1.369 . S
C274 C278 1.531 . S
C275 C274 1.369 . S
C275 C276 1.410 . S
C275 C283 1.503 . S
C276 C275 1.410 . S
C276 C277 1.392 . S
C276 C279 1.511 . S
C277 C273 1.376 . S
C277 C276 1.392 . S
C277 H289 0.929 . S
C278 C274 1.531 . S
C278 H290 0.960 . S
C278 H291 0.962 . S
C278 H292 0.960 . S
C279 C276 1.511 . S
C279 H293 0.961 . S
C279 H294 0.961 . S
C279 H295 0.961 . S
C280 C281 1.370 . S
C280 C282 1.363 . S
C280 H296 0.931 . S
C281 C280 1.370 . S
C281 C285 1.408 . S
C282 C280 1.363 . S
C282 C283 1.370 . S
C282 C286 1.524 . S
C283 C275 1.503 . S
C283 C282 1.370 . S
C283 C284 1.403 . S
C284 C283 1.403 . S
C284 C285 1.404 . S
C284 C287 1.539 . S
C285 C281 1.408 . S
C285 C284 1.404 . S
C285 H297 0.930 . S
C286 C282 1.524 . S
C286 H298 0.956 . S
C286 H299 0.961 . S
C286 H300 0.961 . S
C287 C284 1.539 . S
C287 H301 0.958 . S
C287 H302 0.961 . S
C287 H303 0.960 . S
H288 C272 0.931 . S
H289 C277 0.929 . S
H290 C278 0.960 . S
H291 C278 0.962 . S
H292 C278 0.960 . S
H293 C279 0.961 . S
H294 C279 0.961 . S
H295 C279 0.961 . S
H296 C280 0.931 . S
H297 C285 0.930 . S
H298 C286 0.956 . S
H299 C286 0.961 . S
H300 C286 0.961 . S
H301 C287 0.958 . S
H302 C287 0.961 . S
H303 C287 0.960 . S
C304 C305 1.391 . S
C304 C306 1.394 . S
C304 H320 0.931 . S
C305 C304 1.391 . S
C305 C309 1.376 . S
C306 C304 1.394 . S
C306 C307 1.369 . S
C306 C310 1.531 . S
C307 C306 1.369 . S
C307 C308 1.410 . S
C307 C315 1.503 . S
C308 C307 1.410 . S
C308 C309 1.392 . S
C308 C311 1.511 . S
C309 C305 1.376 . S
C309 C308 1.392 . S
C309 H321 0.929 . S
C310 C306 1.531 . S
C310 H322 0.960 . S
C310 H323 0.962 . S
C310 H324 0.960 . S
C311 C308 1.511 . S
C311 H325 0.961 . S
C311 H326 0.961 . S
C311 H327 0.961 . S
C312 C313 1.370 . S
C312 C314 1.363 . S
C312 H328 0.931 . S
C313 C312 1.370 . S
C313 C317 1.408 . S
C314 C312 1.363 . S
C314 C315 1.370 . S
C314 C318 1.524 . S
C315 C307 1.503 . S
C315 C314 1.370 . S
C315 C316 1.403 . S
C316 C315 1.403 . S
C316 C317 1.404 . S
C316 C319 1.539 . S
C317 C313 1.408 . S
C317 C316 1.404 . S
C317 H329 0.930 . S
C318 C314 1.524 . S
C318 H330 0.956 . S
C318 H331 0.961 . S
C318 H332 0.961 . S
C319 C316 1.539 . S
C319 H333 0.958 . S
C319 H334 0.961 . S
C319 H335 0.960 . S
H320 C304 0.931 . S
H321 C309 0.929 . S
H322 C310 0.960 . S
H323 C310 0.962 . S
H324 C310 0.960 . S
H325 C311 0.961 . S
H326 C311 0.961 . S
H327 C311 0.961 . S
H328 C312 0.931 . S
H329 C317 0.930 . S
H330 C318 0.956 . S
H331 C318 0.961 . S
H332 C318 0.961 . S
H333 C319 0.958 . S
H334 C319 0.961 . S
H335 C319 0.960 . S
C336 C337 1.391 . S
C336 C338 1.394 . S
C336 H352 0.931 . S
C337 C336 1.391 . S
C337 C341 1.376 . S
C338 C336 1.394 . S
C338 C339 1.369 . S
C338 C342 1.531 . S
C339 C338 1.369 . S
C339 C340 1.410 . S
C339 C347 1.503 . S
C340 C339 1.410 . S
C340 C341 1.392 . S
C340 C343 1.511 . S
C341 C337 1.376 . S
C341 C340 1.392 . S
C341 H353 0.929 . S
C342 C338 1.531 . S
C342 H354 0.960 . S
C342 H355 0.962 . S
C342 H356 0.960 . S
C343 C340 1.511 . S
C343 H357 0.961 . S
C343 H358 0.961 . S
C343 H359 0.961 . S
C344 C345 1.370 . S
C344 C346 1.363 . S
C344 H360 0.931 . S
C345 C344 1.370 . S
C345 C349 1.408 . S
C346 C344 1.363 . S
C346 C347 1.370 . S
C346 C350 1.524 . S
C347 C339 1.503 . S
C347 C346 1.370 . S
C347 C348 1.403 . S
C348 C347 1.403 . S
C348 C349 1.404 . S
C348 C351 1.539 . S
C349 C345 1.408 . S
C349 C348 1.404 . S
C349 H361 0.930 . S
C350 C346 1.524 . S
C350 H362 0.956 . S
C350 H363 0.961 . S
C350 H364 0.961 . S
C351 C348 1.539 . S
C351 H365 0.958 . S
C351 H366 0.961 . S
C351 H367 0.960 . S
H352 C336 0.931 . S
H353 C341 0.929 . S
H354 C342 0.960 . S
H355 C342 0.962 . S
H356 C342 0.960 . S
H357 C343 0.961 . S
H358 C343 0.961 . S
H359 C343 0.961 . S
H360 C344 0.931 . S
H361 C349 0.930 . S
H362 C350 0.956 . S
H363 C350 0.961 . S
H364 C350 0.961 . S
H365 C351 0.958 . S
H366 C351 0.961 . S
H367 C351 0.960 . S
C368 C369 1.391 . S
C368 C370 1.394 . S
C368 H384 0.931 . S
C369 C368 1.391 . S
C369 C373 1.376 . S
C370 C368 1.394 . S
C370 C371 1.369 . S
C370 C374 1.531 . S
C371 C370 1.369 . S
C371 C372 1.410 . S
C371 C379 1.503 . S
C372 C371 1.410 . S
C372 C373 1.392 . S
C372 C375 1.511 . S
C373 C369 1.376 . S
C373 C372 1.392 . S
C373 H385 0.929 . S
C374 C370 1.531 . S
C374 H386 0.960 . S
C374 H387 0.962 . S
C374 H388 0.960 . S
C375 C372 1.511 . S
C375 H389 0.961 . S
C375 H390 0.961 . S
C375 H391 0.961 . S
C376 C377 1.370 . S
C376 C378 1.363 . S
C376 H392 0.931 . S
C377 C376 1.370 . S
C377 C381 1.408 . S
C378 C376 1.363 . S
C378 C379 1.370 . S
C378 C382 1.524 . S
C379 C371 1.503 . S
C379 C378 1.370 . S
C379 C380 1.403 . S
C380 C379 1.403 . S
C380 C381 1.404 . S
C380 C383 1.539 . S
C381 C377 1.408 . S
C381 C380 1.404 . S
C381 H393 0.930 . S
C382 C378 1.524 . S
C382 H394 0.956 . S
C382 H395 0.961 . S
C382 H396 0.961 . S
C383 C380 1.539 . S
C383 H397 0.958 . S
C383 H398 0.961 . S
C383 H399 0.960 . S
H384 C368 0.931 . S
H385 C373 0.929 . S
H386 C374 0.960 . S
H387 C374 0.962 . S
H388 C374 0.960 . S
H389 C375 0.961 . S
H390 C375 0.961 . S
H391 C375 0.961 . S
H392 C376 0.931 . S
H393 C381 0.930 . S
H394 C382 0.956 . S
H395 C382 0.961 . S
H396 C382 0.961 . S
H397 C383 0.958 . S
H398 C383 0.961 . S
H399 C383 0.960 . S
C400 C401 1.391 . S
C400 C402 1.394 . S
C400 H416 0.931 . S
C401 C400 1.391 . S
C401 C405 1.376 . S
C402 C400 1.394 . S
C402 C403 1.369 . S
C402 C406 1.531 . S
C403 C402 1.369 . S
C403 C404 1.410 . S
C403 C411 1.503 . S
C404 C403 1.410 . S
C404 C405 1.392 . S
C404 C407 1.511 . S
C405 C401 1.376 . S
C405 C404 1.392 . S
C405 H417 0.929 . S
C406 C402 1.531 . S
C406 H418 0.960 . S
C406 H419 0.962 . S
C406 H420 0.960 . S
C407 C404 1.511 . S
C407 H421 0.961 . S
C407 H422 0.961 . S
C407 H423 0.961 . S
C408 C409 1.370 . S
C408 C410 1.363 . S
C408 H424 0.931 . S
C409 C408 1.370 . S
C409 C413 1.408 . S
C410 C408 1.363 . S
C410 C411 1.370 . S
C410 C414 1.524 . S
C411 C403 1.503 . S
C411 C410 1.370 . S
C411 C412 1.403 . S
C412 C411 1.403 . S
C412 C413 1.404 . S
C412 C415 1.539 . S
C413 C409 1.408 . S
C413 C412 1.404 . S
C413 H425 0.930 . S
C414 C410 1.524 . S
C414 H426 0.956 . S
C414 H427 0.961 . S
C414 H428 0.961 . S
C415 C412 1.539 . S
C415 H429 0.958 . S
C415 H430 0.961 . S
C415 H431 0.960 . S
H416 C400 0.931 . S
H417 C405 0.929 . S
H418 C406 0.960 . S
H419 C406 0.962 . S
H420 C406 0.960 . S
H421 C407 0.961 . S
H422 C407 0.961 . S
H423 C407 0.961 . S
H424 C408 0.931 . S
H425 C413 0.930 . S
H426 C414 0.956 . S
H427 C414 0.961 . S
H428 C414 0.961 . S
H429 C415 0.958 . S
H430 C415 0.961 . S
H431 C415 0.960 . S
C432 C433 1.391 . S
C432 C434 1.394 . S
C432 H448 0.931 . S
C433 C432 1.391 . S
C433 C437 1.376 . S
C434 C432 1.394 . S
C434 C435 1.369 . S
C434 C438 1.531 . S
C435 C434 1.369 . S
C435 C436 1.410 . S
C435 C443 1.503 . S
C436 C435 1.410 . S
C436 C437 1.392 . S
C436 C439 1.511 . S
C437 C433 1.376 . S
C437 C436 1.392 . S
C437 H449 0.929 . S
C438 C434 1.531 . S
C438 H450 0.960 . S
C438 H451 0.962 . S
C438 H452 0.960 . S
C439 C436 1.511 . S
C439 H453 0.961 . S
C439 H454 0.961 . S
C439 H455 0.961 . S
C440 C441 1.370 . S
C440 C442 1.363 . S
C440 H456 0.931 . S
C441 C440 1.370 . S
C441 C445 1.408 . S
C442 C440 1.363 . S
C442 C443 1.370 . S
C442 C446 1.524 . S
C443 C435 1.503 . S
C443 C442 1.370 . S
C443 C444 1.403 . S
C444 C443 1.403 . S
C444 C445 1.404 . S
C444 C447 1.539 . S
C445 C441 1.408 . S
C445 C444 1.404 . S
C445 H457 0.930 . S
C446 C442 1.524 . S
C446 H458 0.956 . S
C446 H459 0.961 . S
C446 H460 0.961 . S
C447 C444 1.539 . S
C447 H461 0.958 . S
C447 H462 0.961 . S
C447 H463 0.960 . S
H448 C432 0.931 . S
H449 C437 0.929 . S
H450 C438 0.960 . S
H451 C438 0.962 . S
H452 C438 0.960 . S
H453 C439 0.961 . S
H454 C439 0.961 . S
H455 C439 0.961 . S
H456 C440 0.931 . S
H457 C445 0.930 . S
H458 C446 0.956 . S
H459 C446 0.961 . S
H460 C446 0.961 . S
H461 C447 0.958 . S
H462 C447 0.961 . S
H463 C447 0.960 . S
C464 C465 1.391 . S
C464 C466 1.394 . S
C464 H480 0.931 . S
C465 C464 1.391 . S
C465 C469 1.376 . S
C466 C464 1.394 . S
C466 C467 1.369 . S
C466 C470 1.531 . S
C467 C466 1.369 . S
C467 C468 1.410 . S
C467 C475 1.503 1_556 S
C468 C467 1.410 . S
C468 C469 1.392 . S
C468 C471 1.511 . S
C469 C465 1.376 . S
C469 C468 1.392 . S
C469 H481 0.929 . S
C470 C466 1.531 . S
C470 H482 0.960 1_556 S
C470 H483 0.962 . S
C470 H484 0.960 . S
C471 C468 1.511 . S
C471 H485 0.961 . S
C471 H486 0.961 1_556 S
C471 H487 0.961 . S
C472 C473 1.370 . S
C472 C474 1.363 . S
C472 H488 0.931 . S
C473 C472 1.370 . S
C473 C477 1.408 . S
C474 C472 1.363 . S
C474 C475 1.370 . S
C474 C478 1.524 . S
C475 C467 1.503 1_554 S
C475 C474 1.370 . S
C475 C476 1.403 . S
C476 C475 1.403 . S
C476 C477 1.404 . S
C476 C479 1.539 . S
C477 C473 1.408 . S
C477 C476 1.404 . S
C477 H489 0.930 . S
C478 C474 1.524 . S
C478 H490 0.956 . S
C478 H491 0.961 1_554 S
C478 H492 0.961 . S
C479 C476 1.539 . S
C479 H493 0.958 . S
C479 H494 0.961 . S
C479 H495 0.949 1_554 S
H480 C464 0.931 . S
H481 C469 0.929 . S
H482 C470 0.960 1_554 S
H483 C470 0.962 . S
H484 C470 0.960 . S
H485 C471 0.961 . S
H486 C471 0.961 1_554 S
H487 C471 0.961 . S
H488 C472 0.931 . S
H489 C477 0.930 . S
H490 C478 0.956 . S
H491 C478 0.961 1_556 S
H492 C478 0.961 . S
H493 C479 0.958 . S
H494 C479 0.961 . S
H495 C479 0.949 1_556 S
C496 C497 1.391 . S
C496 C498 1.394 . S
C496 H512 0.931 . S
C497 C496 1.391 . S
C497 C501 1.376 . S
C498 C496 1.394 . S
C498 C499 1.369 . S
C498 C502 1.531 . S
C499 C498 1.369 . S
C499 C500 1.410 . S
C499 C507 1.503 1_556 S
C500 C499 1.410 . S
C500 C501 1.392 . S
C500 C503 1.511 . S
C501 C497 1.376 . S
C501 C500 1.392 . S
C501 H513 0.929 . S
C502 C498 1.531 . S
C502 H514 0.960 1_556 S
C502 H515 0.962 . S
C502 H516 0.960 . S
C503 C500 1.511 . S
C503 H517 0.961 . S
C503 H518 0.961 1_556 S
C503 H519 0.961 . S
C504 C505 1.370 . S
C504 C506 1.363 . S
C504 H520 0.931 . S
C505 C504 1.370 . S
C505 C509 1.408 . S
C506 C504 1.363 . S
C506 C507 1.370 . S
C506 C510 1.524 . S
C507 C499 1.503 1_554 S
C507 C506 1.370 . S
C507 C508 1.403 . S
C508 C507 1.403 . S
C508 C509 1.404 . S
C508 C511 1.539 . S
C509 C505 1.408 . S
C509 C508 1.404 . S
C509 H521 0.930 . S
C510 C506 1.524 . S
C510 H522 0.956 . S
C510 H523 0.939 1_554 S
C510 H524 0.961 . S
C511 C508 1.539 . S
C511 H525 0.958 . S
C511 H526 0.961 . S
C511 H527 0.960 1_554 S
H512 C496 0.931 . S
H513 C501 0.929 . S
H514 C502 0.960 1_554 S
H515 C502 0.962 . S
H516 C502 0.960 . S
H517 C503 0.961 . S
H518 C503 0.961 1_554 S
H519 C503 0.961 . S
H520 C504 0.931 . S
H521 C509 0.930 . S
H522 C510 0.956 . S
H523 C510 0.939 1_556 S
H524 C510 0.961 . S
H525 C511 0.958 . S
H526 C511 0.961 . S
H527 C511 0.960 1_556 S
C528 C529 1.391 . S
C528 C530 1.394 . S
C528 H544 0.931 . S
C529 C528 1.391 . S
C529 C533 1.376 . S
C530 C528 1.394 . S
C530 C531 1.369 . S
C530 C534 1.531 . S
C531 C530 1.369 . S
C531 C532 1.410 . S
C531 C539 1.503 1_556 S
C532 C531 1.410 . S
C532 C533 1.392 . S
C532 C535 1.511 . S
C533 C529 1.376 . S
C533 C532 1.392 . S
C533 H545 0.929 . S
C534 C530 1.531 . S
C534 H546 0.960 1_556 S
C534 H547 0.962 . S
C534 H548 0.960 . S
C535 C532 1.511 . S
C535 H549 0.961 . S
C535 H550 0.961 1_556 S
C535 H551 0.961 . S
C536 C537 1.370 . S
C536 C538 1.363 . S
C536 H552 0.931 . S
C537 C536 1.370 . S
C537 C541 1.408 . S
C538 C536 1.363 . S
C538 C539 1.370 . S
C538 C542 1.524 . S
C539 C531 1.503 1_554 S
C539 C538 1.370 . S
C539 C540 1.403 . S
C540 C539 1.403 . S
C540 C541 1.404 . S
C540 C543 1.539 . S
C541 C537 1.408 . S
C541 C540 1.404 . S
C541 H553 0.930 . S
C542 C538 1.524 . S
C542 H554 0.956 . S
C542 H555 0.961 1_554 S
C542 H556 0.961 . S
C543 C540 1.539 . S
C543 H557 0.958 . S
C543 H558 0.961 . S
C543 H559 0.968 . S
H544 C528 0.931 . S
H545 C533 0.929 . S
H546 C534 0.960 1_554 S
H547 C534 0.962 . S
H548 C534 0.960 . S
H549 C535 0.961 . S
H550 C535 0.961 1_554 S
H551 C535 0.961 . S
H552 C536 0.931 . S
H553 C541 0.930 . S
H554 C542 0.956 . S
H555 C542 0.961 1_556 S
H556 C542 0.961 . S
H557 C543 0.958 . S
H558 C543 0.961 . S
H559 C543 0.968 . S
C560 C561 1.391 . S
C560 C562 1.394 . S
C560 H576 0.931 . S
C561 C560 1.391 . S
C561 C565 1.376 . S
C562 C560 1.394 . S
C562 C563 1.369 . S
C562 C566 1.531 . S
C563 C562 1.369 . S
C563 C564 1.410 . S
C563 C571 1.503 1_554 S
C564 C563 1.410 . S
C564 C565 1.392 . S
C564 C567 1.511 . S
C565 C561 1.376 . S
C565 C564 1.392 . S
C565 H577 0.929 . S
C566 C562 1.531 . S
C566 H578 0.960 1_554 S
C566 H579 0.962 . S
C566 H580 0.960 . S
C567 C564 1.511 . S
C567 H581 0.961 . S
C567 H582 0.961 1_554 S
C567 H583 0.961 . S
C568 C569 1.370 . S
C568 C570 1.363 . S
C568 H584 0.931 . S
C569 C568 1.370 . S
C569 C573 1.408 . S
C570 C568 1.363 . S
C570 C571 1.370 . S
C570 C574 1.524 . S
C571 C563 1.503 1_556 S
C571 C570 1.370 . S
C571 C572 1.403 . S
C572 C571 1.403 . S
C572 C573 1.404 . S
C572 C575 1.539 . S
C573 C569 1.408 . S
C573 C572 1.404 . S
C573 H585 0.930 . S
C574 C570 1.524 . S
C574 H586 0.966 . S
C574 H587 0.961 1_556 S
C574 H588 0.961 . S
C575 C572 1.539 . S
C575 H589 0.958 . S
C575 H590 0.961 . S
C575 H591 0.960 . S
H576 C560 0.931 . S
H577 C565 0.929 . S
H578 C566 0.960 1_556 S
H579 C566 0.962 . S
H580 C566 0.960 . S
H581 C567 0.961 . S
H582 C567 0.961 1_556 S
H583 C567 0.961 . S
H584 C568 0.931 . S
H585 C573 0.930 . S
H586 C574 0.966 . S
H587 C574 0.961 1_554 S
H588 C574 0.961 . S
H589 C575 0.958 . S
H590 C575 0.961 . S
H591 C575 0.960 . S
C592 C593 1.391 . S
C592 C594 1.394 . S
C592 H608 0.931 . S
C593 C592 1.391 . S
C593 C597 1.376 . S
C594 C592 1.394 . S
C594 C595 1.369 . S
C594 C598 1.531 . S
C595 C594 1.369 . S
C595 C596 1.410 . S
C595 C603 1.503 . S
C596 C595 1.410 . S
C596 C597 1.392 . S
C596 C599 1.511 . S
C597 C593 1.376 . S
C597 C596 1.392 . S
C597 H609 0.929 . S
C598 C594 1.531 . S
C598 H610 0.960 . S
C598 H611 0.962 . S
C598 H612 0.960 . S
C599 C596 1.511 . S
C599 H613 0.961 . S
C599 H614 0.961 . S
C599 H615 0.961 . S
C600 C601 1.370 . S
C600 C602 1.363 . S
C600 H616 0.931 . S
C601 C600 1.370 . S
C601 C605 1.408 . S
C602 C600 1.363 . S
C602 C603 1.370 . S
C602 C606 1.524 . S
C603 C595 1.503 . S
C603 C602 1.370 . S
C603 C604 1.403 . S
C604 C603 1.403 . S
C604 C605 1.404 . S
C604 C607 1.539 . S
C605 C601 1.408 . S
C605 C604 1.404 . S
C605 H617 0.930 . S
C606 C602 1.524 . S
C606 H618 0.956 . S
C606 H619 0.961 . S
C606 H620 0.961 . S
C607 C604 1.539 . S
C607 H621 0.958 . S
C607 H622 0.961 . S
C607 H623 0.960 . S
H608 C592 0.931 . S
H609 C597 0.929 . S
H610 C598 0.960 . S
H611 C598 0.962 . S
H612 C598 0.960 . S
H613 C599 0.961 . S
H614 C599 0.961 . S
H615 C599 0.961 . S
H616 C600 0.931 . S
H617 C605 0.930 . S
H618 C606 0.956 . S
H619 C606 0.961 . S
H620 C606 0.961 . S
H621 C607 0.958 . S
H622 C607 0.961 . S
H623 C607 0.960 . S
C624 C625 1.391 . S
C624 C626 1.394 . S
C624 H640 0.931 . S
C625 C624 1.391 . S
C625 C629 1.376 . S
C626 C624 1.394 . S
C626 C627 1.369 . S
C626 C630 1.531 . S
C627 C626 1.369 . S
C627 C628 1.410 . S
C627 C635 1.503 . S
C628 C627 1.410 . S
C628 C629 1.392 . S
C628 C631 1.511 . S
C629 C625 1.376 . S
C629 C628 1.392 . S
C629 H641 0.929 . S
C630 C626 1.531 . S
C630 H642 0.960 . S
C630 H643 0.962 . S
C630 H644 0.960 . S
C631 C628 1.511 . S
C631 H645 0.961 . S
C631 H646 0.961 . S
C631 H647 0.961 . S
C632 C633 1.370 . S
C632 C634 1.363 . S
C632 H648 0.931 . S
C633 C632 1.370 . S
C633 C637 1.408 . S
C634 C632 1.363 . S
C634 C635 1.370 . S
C634 C638 1.524 . S
C635 C627 1.503 . S
C635 C634 1.370 . S
C635 C636 1.403 . S
C636 C635 1.403 . S
C636 C637 1.404 . S
C636 C639 1.539 . S
C637 C633 1.408 . S
C637 C636 1.404 . S
C637 H649 0.930 . S
C638 C634 1.524 . S
C638 H650 0.956 . S
C638 H651 0.961 . S
C638 H652 0.961 . S
C639 C636 1.539 . S
C639 H653 0.958 . S
C639 H654 0.961 . S
C639 H655 0.960 . S
H640 C624 0.931 . S
H641 C629 0.929 . S
H642 C630 0.960 . S
H643 C630 0.962 . S
H644 C630 0.960 . S
H645 C631 0.961 . S
H646 C631 0.961 . S
H647 C631 0.961 . S
H648 C632 0.931 . S
H649 C637 0.930 . S
H650 C638 0.956 . S
H651 C638 0.961 . S
H652 C638 0.961 . S
H653 C639 0.958 . S
H654 C639 0.961 . S
H655 C639 0.960 . S
C656 C657 1.391 . S
C656 C658 1.394 . S
C656 H672 0.931 . S
C657 C656 1.391 . S
C657 C661 1.376 . S
C658 C656 1.394 . S
C658 C659 1.369 . S
C658 C662 1.531 . S
C659 C658 1.369 . S
C659 C660 1.410 . S
C659 C667 1.503 . S
C660 C659 1.410 . S
C660 C661 1.392 . S
C660 C663 1.511 . S
C661 C657 1.376 . S
C661 C660 1.392 . S
C661 H673 0.929 . S
C662 C658 1.531 . S
C662 H674 0.960 . S
C662 H675 0.962 . S
C662 H676 0.960 . S
C663 C660 1.511 . S
C663 H677 0.961 . S
C663 H678 0.961 . S
C663 H679 0.961 . S
C664 C665 1.370 . S
C664 C666 1.363 . S
C664 H680 0.931 . S
C665 C664 1.370 . S
C665 C669 1.408 . S
C666 C664 1.363 . S
C666 C667 1.370 . S
C666 C670 1.524 . S
C667 C659 1.503 . S
C667 C666 1.370 . S
C667 C668 1.403 . S
C668 C667 1.403 . S
C668 C669 1.404 . S
C668 C671 1.539 . S
C669 C665 1.408 . S
C669 C668 1.404 . S
C669 H681 0.930 . S
C670 C666 1.524 . S
C670 H682 0.956 . S
C670 H683 0.961 . S
C670 H684 0.961 . S
C671 C668 1.539 . S
C671 H685 0.958 . S
C671 H686 0.961 . S
C671 H687 0.960 . S
H672 C656 0.931 . S
H673 C661 0.929 . S
H674 C662 0.960 . S
H675 C662 0.962 . S
H676 C662 0.960 . S
H677 C663 0.961 . S
H678 C663 0.961 . S
H679 C663 0.961 . S
H680 C664 0.931 . S
H681 C669 0.930 . S
H682 C670 0.956 . S
H683 C670 0.961 . S
H684 C670 0.961 . S
H685 C671 0.958 . S
H686 C671 0.961 . S
H687 C671 0.960 . S
C688 C689 1.391 . S
C688 C690 1.394 . S
C688 H704 0.931 . S
C689 C688 1.391 . S
C689 C693 1.376 . S
C690 C688 1.394 . S
C690 C691 1.369 . S
C690 C694 1.531 . S
C691 C690 1.369 . S
C691 C692 1.410 . S
C691 C699 1.503 . S
C692 C691 1.410 . S
C692 C693 1.392 . S
C692 C695 1.511 . S
C693 C689 1.376 . S
C693 C692 1.392 . S
C693 H705 0.929 . S
C694 C690 1.531 . S
C694 H706 0.960 . S
C694 H707 0.962 . S
C694 H708 0.960 . S
C695 C692 1.511 . S
C695 H709 0.961 . S
C695 H710 0.961 . S
C695 H711 0.961 . S
C696 C697 1.370 . S
C696 C698 1.363 . S
C696 H712 0.931 . S
C697 C696 1.370 . S
C697 C701 1.408 . S
C698 C696 1.363 . S
C698 C699 1.370 . S
C698 C702 1.524 . S
C699 C691 1.503 . S
C699 C698 1.370 . S
C699 C700 1.403 . S
C700 C699 1.403 . S
C700 C701 1.404 . S
C700 C703 1.539 . S
C701 C697 1.408 . S
C701 C700 1.404 . S
C701 H713 0.930 . S
C702 C698 1.524 . S
C702 H714 0.956 . S
C702 H715 0.961 . S
C702 H716 0.961 . S
C703 C700 1.539 . S
C703 H717 0.958 . S
C703 H718 0.961 . S
C703 H719 0.960 . S
H704 C688 0.931 . S
H705 C693 0.929 . S
H706 C694 0.960 . S
H707 C694 0.962 . S
H708 C694 0.960 . S
H709 C695 0.961 . S
H710 C695 0.961 . S
H711 C695 0.961 . S
H712 C696 0.931 . S
H713 C701 0.930 . S
H714 C702 0.956 . S
H715 C702 0.961 . S
H716 C702 0.961 . S
H717 C703 0.958 . S
H718 C703 0.961 . S
H719 C703 0.960 . S
C720 C721 1.391 . S
C720 C722 1.394 . S
C720 H736 0.931 . S
C721 C720 1.391 . S
C721 C725 1.376 . S
C722 C720 1.394 . S
C722 C723 1.369 . S
C722 C726 1.531 . S
C723 C722 1.369 . S
C723 C724 1.410 . S
C723 C731 1.503 . S
C724 C723 1.410 . S
C724 C725 1.392 . S
C724 C727 1.511 . S
C725 C721 1.376 . S
C725 C724 1.392 . S
C725 H737 0.929 . S
C726 C722 1.531 . S
C726 H738 0.960 . S
C726 H739 0.962 . S
C726 H740 0.960 . S
C727 C724 1.511 . S
C727 H741 0.961 . S
C727 H742 0.961 . S
C727 H743 0.961 . S
C728 C729 1.370 . S
C728 C730 1.363 . S
C728 H744 0.931 . S
C729 C728 1.370 . S
C729 C733 1.408 . S
C730 C728 1.363 . S
C730 C731 1.370 . S
C730 C734 1.524 . S
C731 C723 1.503 . S
C731 C730 1.370 . S
C731 C732 1.403 . S
C732 C731 1.403 . S
C732 C733 1.404 . S
C732 C735 1.539 . S
C733 C729 1.408 . S
C733 C732 1.404 . S
C733 H745 0.930 . S
C734 C730 1.524 . S
C734 H746 0.956 . S
C734 H747 0.961 . S
C734 H748 0.961 . S
C735 C732 1.539 . S
C735 H749 0.958 . S
C735 H750 0.961 . S
C735 H751 0.960 . S
H736 C720 0.931 . S
H737 C725 0.929 . S
H738 C726 0.960 . S
H739 C726 0.962 . S
H740 C726 0.960 . S
H741 C727 0.961 . S
H742 C727 0.961 . S
H743 C727 0.961 . S
H744 C728 0.931 . S
H745 C733 0.930 . S
H746 C734 0.956 . S
H747 C734 0.961 . S
H748 C734 0.961 . S
H749 C735 0.958 . S
H750 C735 0.961 . S
H751 C735 0.960 . S
C752 C753 1.391 . S
C752 C754 1.394 . S
C752 H768 0.931 . S
C753 C752 1.391 . S
C753 C757 1.376 . S
C754 C752 1.394 . S
C754 C755 1.369 . S
C754 C758 1.531 . S
C755 C754 1.369 . S
C755 C756 1.410 . S
C755 C763 1.503 . S
C756 C755 1.410 . S
C756 C757 1.392 . S
C756 C759 1.511 . S
C757 C753 1.376 . S
C757 C756 1.392 . S
C757 H769 0.929 . S
C758 C754 1.531 . S
C758 H770 0.960 . S
C758 H771 0.962 . S
C758 H772 0.960 . S
C759 C756 1.511 . S
C759 H773 0.961 . S
C759 H774 0.961 . S
C759 H775 0.961 . S
C760 C761 1.370 . S
C760 C762 1.363 . S
C760 H776 0.931 . S
C761 C760 1.370 . S
C761 C765 1.408 . S
C762 C760 1.363 . S
C762 C763 1.370 . S
C762 C766 1.524 . S
C763 C755 1.503 . S
C763 C762 1.370 . S
C763 C764 1.403 . S
C764 C763 1.403 . S
C764 C765 1.404 . S
C764 C767 1.539 . S
C765 C761 1.408 . S
C765 C764 1.404 . S
C765 H777 0.930 . S
C766 C762 1.524 . S
C766 H778 0.956 . S
C766 H779 0.961 . S
C766 H780 0.961 . S
C767 C764 1.539 . S
C767 H781 0.958 . S
C767 H782 0.961 . S
C767 H783 0.960 . S
H768 C752 0.931 . S
H769 C757 0.929 . S
H770 C758 0.960 . S
H771 C758 0.962 . S
H772 C758 0.960 . S
H773 C759 0.961 . S
H774 C759 0.961 . S
H775 C759 0.961 . S
H776 C760 0.931 . S
H777 C765 0.930 . S
H778 C766 0.956 . S
H779 C766 0.961 . S
H780 C766 0.961 . S
H781 C767 0.958 . S
H782 C767 0.961 . S
H783 C767 0.960 . S
C784 C785 1.391 . S
C784 C786 1.394 . S
C784 H800 0.931 . S
C785 C784 1.391 . S
C785 C789 1.376 . S
C786 C784 1.394 . S
C786 C787 1.369 . S
C786 C790 1.531 . S
C787 C786 1.369 . S
C787 C788 1.410 . S
C787 C795 1.503 . S
C788 C787 1.410 . S
C788 C789 1.392 . S
C788 C791 1.511 . S
C789 C785 1.376 . S
C789 C788 1.392 . S
C789 H801 0.929 . S
C790 C786 1.531 . S
C790 H802 0.960 . S
C790 H803 0.962 . S
C790 H804 0.960 . S
C791 C788 1.511 . S
C791 H805 0.961 . S
C791 H806 0.961 . S
C791 H807 0.961 . S
C792 C793 1.370 . S
C792 C794 1.363 . S
C792 H808 0.931 . S
C793 C792 1.370 . S
C793 C797 1.408 . S
C794 C792 1.363 . S
C794 C795 1.370 . S
C794 C798 1.524 . S
C795 C787 1.503 . S
C795 C794 1.370 . S
C795 C796 1.403 . S
C796 C795 1.403 . S
C796 C797 1.404 . S
C796 C799 1.539 . S
C797 C793 1.408 . S
C797 C796 1.404 . S
C797 H809 0.930 . S
C798 C794 1.524 . S
C798 H810 0.956 . S
C798 H811 0.961 . S
C798 H812 0.961 . S
C799 C796 1.539 . S
C799 H813 0.958 . S
C799 H814 0.961 . S
C799 H815 0.960 . S
H800 C784 0.931 . S
H801 C789 0.929 . S
H802 C790 0.960 . S
H803 C790 0.962 . S
H804 C790 0.960 . S
H805 C791 0.961 . S
H806 C791 0.961 . S
H807 C791 0.961 . S
H808 C792 0.931 . S
H809 C797 0.930 . S
H810 C798 0.956 . S
H811 C798 0.961 . S
H812 C798 0.961 . S
H813 C799 0.958 . S
H814 C799 0.961 . S
H815 C799 0.960 . S
C816 C817 1.391 . S
C816 C818 1.394 . S
C816 H832 0.931 . S
C817 C816 1.391 . S
C817 C821 1.376 . S
C818 C816 1.394 . S
C818 C819 1.369 . S
C818 C822 1.531 . S
C819 C818 1.369 . S
C819 C820 1.410 . S
C819 C827 1.503 . S
C820 C819 1.410 . S
C820 C821 1.392 . S
C820 C823 1.511 . S
C821 C817 1.376 . S
C821 C820 1.392 . S
C821 H833 0.929 . S
C822 C818 1.531 . S
C822 H834 0.960 . S
C822 H835 0.962 . S
C822 H836 0.960 . S
C823 C820 1.511 . S
C823 H837 0.961 . S
C823 H838 0.961 . S
C823 H839 0.961 . S
C824 C825 1.370 . S
C824 C826 1.363 . S
C824 H840 0.931 . S
C825 C824 1.370 . S
C825 C829 1.408 . S
C826 C824 1.363 . S
C826 C827 1.370 . S
C826 C830 1.524 . S
C827 C819 1.503 . S
C827 C826 1.370 . S
C827 C828 1.403 . S
C828 C827 1.403 . S
C828 C829 1.404 . S
C828 C831 1.539 . S
C829 C825 1.408 . S
C829 C828 1.404 . S
C829 H841 0.930 . S
C830 C826 1.524 . S
C830 H842 0.956 . S
C830 H843 0.961 . S
C830 H844 0.961 . S
C831 C828 1.539 . S
C831 H845 0.958 . S
C831 H846 0.961 . S
C831 H847 0.960 . S
H832 C816 0.931 . S
H833 C821 0.929 . S
H834 C822 0.960 . S
H835 C822 0.962 . S
H836 C822 0.960 . S
H837 C823 0.961 . S
H838 C823 0.961 . S
H839 C823 0.961 . S
H840 C824 0.931 . S
H841 C829 0.930 . S
H842 C830 0.956 . S
H843 C830 0.961 . S
H844 C830 0.961 . S
H845 C831 0.958 . S
H846 C831 0.961 . S
H847 C831 0.960 . S
C848 C849 1.391 . S
C848 C850 1.394 . S
C848 H864 0.931 . S
C849 C848 1.391 . S
C849 C853 1.376 . S
C850 C848 1.394 . S
C850 C851 1.369 . S
C850 C854 1.531 . S
C851 C850 1.369 . S
C851 C852 1.410 . S
C851 C859 1.503 . S
C852 C851 1.410 . S
C852 C853 1.392 . S
C852 C855 1.511 . S
C853 C849 1.376 . S
C853 C852 1.392 . S
C853 H865 0.929 . S
C854 C850 1.531 . S
C854 H866 0.960 . S
C854 H867 0.962 . S
C854 H868 0.960 . S
C855 C852 1.511 . S
C855 H869 0.961 . S
C855 H870 0.961 . S
C855 H871 0.961 . S
C856 C857 1.370 . S
C856 C858 1.363 . S
C856 H872 0.931 . S
C857 C856 1.370 . S
C857 C861 1.408 . S
C858 C856 1.363 . S
C858 C859 1.370 . S
C858 C862 1.524 . S
C859 C851 1.503 . S
C859 C858 1.370 . S
C859 C860 1.403 . S
C860 C859 1.403 . S
C860 C861 1.404 . S
C860 C863 1.539 . S
C861 C857 1.408 . S
C861 C860 1.404 . S
C861 H873 0.930 . S
C862 C858 1.524 . S
C862 H874 0.956 . S
C862 H875 0.961 . S
C862 H876 0.961 . S
C863 C860 1.539 . S
C863 H877 0.958 . S
C863 H878 0.961 . S
C863 H879 0.960 . S
H864 C848 0.931 . S
H865 C853 0.929 . S
H866 C854 0.960 . S
H867 C854 0.962 . S
H868 C854 0.960 . S
H869 C855 0.961 . S
H870 C855 0.961 . S
H871 C855 0.961 . S
H872 C856 0.931 . S
H873 C861 0.930 . S
H874 C862 0.956 . S
H875 C862 0.961 . S
H876 C862 0.961 . S
H877 C863 0.958 . S
H878 C863 0.961 . S
H879 C863 0.960 . S
C880 C881 1.391 . S
C880 C882 1.394 . S
C880 H896 0.931 . S
C881 C880 1.391 . S
C881 C885 1.376 . S
C882 C880 1.394 . S
C882 C883 1.369 . S
C882 C886 1.531 . S
C883 C882 1.369 . S
C883 C884 1.410 . S
C883 C891 1.503 . S
C884 C883 1.410 . S
C884 C885 1.392 . S
C884 C887 1.511 . S
C885 C881 1.376 . S
C885 C884 1.392 . S
C885 H897 0.929 . S
C886 C882 1.531 . S
C886 H898 0.960 . S
C886 H899 0.962 . S
C886 H900 0.960 . S
C887 C884 1.511 . S
C887 H901 0.961 . S
C887 H902 0.961 . S
C887 H903 0.961 . S
C888 C889 1.370 . S
C888 C890 1.363 . S
C888 H904 0.931 . S
C889 C888 1.370 . S
C889 C893 1.408 . S
C890 C888 1.363 . S
C890 C891 1.370 . S
C890 C894 1.524 . S
C891 C883 1.503 . S
C891 C890 1.370 . S
C891 C892 1.403 . S
C892 C891 1.403 . S
C892 C893 1.404 . S
C892 C895 1.539 . S
C893 C889 1.408 . S
C893 C892 1.404 . S
C893 H905 0.930 . S
C894 C890 1.524 . S
C894 H906 0.956 . S
C894 H907 0.961 . S
C894 H908 0.961 . S
C895 C892 1.539 . S
C895 H909 0.958 . S
C895 H910 0.961 . S
C895 H911 0.960 . S
H896 C880 0.931 . S
H897 C885 0.929 . S
H898 C886 0.960 . S
H899 C886 0.962 . S
H900 C886 0.960 . S
H901 C887 0.961 . S
H902 C887 0.961 . S
H903 C887 0.961 . S
H904 C888 0.931 . S
H905 C893 0.930 . S
H906 C894 0.956 . S
H907 C894 0.961 . S
H908 C894 0.961 . S
H909 C895 0.958 . S
H910 C895 0.961 . S
H911 C895 0.960 . S
C912 C913 1.391 . S
C912 C914 1.394 . S
C912 H928 0.931 . S
C913 C912 1.391 . S
C913 C917 1.376 . S
C914 C912 1.394 . S
C914 C915 1.369 . S
C914 C918 1.531 . S
C915 C914 1.369 . S
C915 C916 1.410 . S
C915 C923 1.503 . S
C916 C915 1.410 . S
C916 C917 1.392 . S
C916 C919 1.511 . S
C917 C913 1.376 . S
C917 C916 1.392 . S
C917 H929 0.929 . S
C918 C914 1.531 . S
C918 H930 0.960 . S
C918 H931 0.962 . S
C918 H932 0.960 . S
C919 C916 1.511 . S
C919 H933 0.961 . S
C919 H934 0.961 . S
C919 H935 0.961 . S
C920 C921 1.370 . S
C920 C922 1.363 . S
C920 H936 0.931 . S
C921 C920 1.370 . S
C921 C925 1.408 . S
C922 C920 1.363 . S
C922 C923 1.370 . S
C922 C926 1.524 . S
C923 C915 1.503 . S
C923 C922 1.370 . S
C923 C924 1.403 . S
C924 C923 1.403 . S
C924 C925 1.404 . S
C924 C927 1.539 . S
C925 C921 1.408 . S
C925 C924 1.404 . S
C925 H937 0.930 . S
C926 C922 1.524 . S
C926 H938 0.956 . S
C926 H939 0.961 . S
C926 H940 0.961 . S
C927 C924 1.539 . S
C927 H941 0.958 . S
C927 H942 0.961 . S
C927 H943 0.960 . S
H928 C912 0.931 . S
H929 C917 0.929 . S
H930 C918 0.960 . S
H931 C918 0.962 . S
H932 C918 0.960 . S
H933 C919 0.961 . S
H934 C919 0.961 . S
H935 C919 0.961 . S
H936 C920 0.931 . S
H937 C925 0.930 . S
H938 C926 0.956 . S
H939 C926 0.961 . S
H940 C926 0.961 . S
H941 C927 0.958 . S
H942 C927 0.961 . S
H943 C927 0.960 . S
C944 C945 1.391 . S
C944 C946 1.394 . S
C944 H960 0.931 . S
C945 C944 1.391 . S
C945 C949 1.376 . S
C946 C944 1.394 . S
C946 C947 1.369 . S
C946 C950 1.531 . S
C947 C946 1.369 . S
C947 C948 1.410 . S
C947 C955 1.503 . S
C948 C947 1.410 . S
C948 C949 1.392 . S
C948 C951 1.511 . S
C949 C945 1.376 . S
C949 C948 1.392 . S
C949 H961 0.929 . S
C950 C946 1.531 . S
C950 H962 0.960 . S
C950 H963 0.962 . S
C950 H964 0.960 . S
C951 C948 1.511 . S
C951 H965 0.961 . S
C951 H966 0.961 . S
C951 H967 0.961 . S
C952 C953 1.370 . S
C952 C954 1.363 . S
C952 H968 0.931 . S
C953 C952 1.370 . S
C953 C957 1.408 . S
C954 C952 1.363 . S
C954 C955 1.370 . S
C954 C958 1.524 . S
C955 C947 1.503 . S
C955 C954 1.370 . S
C955 C956 1.403 . S
C956 C955 1.403 . S
C956 C957 1.404 . S
C956 C959 1.539 . S
C957 C953 1.408 . S
C957 C956 1.404 . S
C957 H969 0.930 . S
C958 C954 1.524 . S
C958 H970 0.956 . S
C958 H971 0.961 . S
C958 H972 0.961 . S
C959 C956 1.539 . S
C959 H973 0.958 . S
C959 H974 0.961 . S
C959 H975 0.960 . S
H960 C944 0.931 . S
H961 C949 0.929 . S
H962 C950 0.960 . S
H963 C950 0.962 . S
H964 C950 0.960 . S
H965 C951 0.961 . S
H966 C951 0.961 . S
H967 C951 0.961 . S
H968 C952 0.931 . S
H969 C957 0.930 . S
H970 C958 0.956 . S
H971 C958 0.961 . S
H972 C958 0.961 . S
H973 C959 0.958 . S
H974 C959 0.961 . S
H975 C959 0.960 . S
C976 C977 1.391 . S
C976 C978 1.394 . S
C976 H992 0.931 . S
C977 C976 1.391 . S
C977 C981 1.376 . S
C978 C976 1.394 . S
C978 C979 1.369 . S
C978 C982 1.531 . S
C979 C978 1.369 . S
C979 C980 1.410 . S
C979 C987 1.503 1_545 S
C980 C979 1.410 . S
C980 C981 1.392 . S
C980 C983 1.511 . S
C981 C977 1.376 . S
C981 C980 1.392 . S
C981 H993 0.929 . S
C982 C978 1.531 . S
C982 H994 0.960 . S
C982 H995 0.962 . S
C982 H996 0.960 . S
C983 C980 1.511 . S
C983 H997 0.961 . S
C983 H998 0.961 1_545 S
C983 H999 0.961 . S
C984 C985 1.370 . S
C984 C986 1.363 . S
C984 H1000 0.931 . S
C985 C984 1.370 . S
C985 C989 1.408 . S
C986 C984 1.363 . S
C986 C987 1.370 . S
C986 C990 1.524 . S
C987 C979 1.503 1_565 S
C987 C986 1.370 . S
C987 C988 1.403 . S
C988 C987 1.403 . S
C988 C989 1.404 . S
C988 C991 1.539 1_565 S
C989 C985 1.408 . S
C989 C988 1.404 . S
C989 H1001 0.930 . S
C990 C986 1.524 . S
C990 H1002 0.956 . S
C990 H1003 0.961 . S
C990 H1004 0.961 . S
C991 C988 1.539 1_545 S
C991 H1005 0.958 . S
C991 H1006 0.961 1_545 S
C991 H1007 0.960 . S
H992 C976 0.931 . S
H993 C981 0.929 . S
H994 C982 0.960 . S
H995 C982 0.962 . S
H996 C982 0.960 . S
H997 C983 0.961 . S
H998 C983 0.961 1_565 S
H999 C983 0.961 . S
H1000 C984 0.931 . S
H1001 C989 0.930 . S
H1002 C990 0.956 . S
H1003 C990 0.961 . S
H1004 C990 0.961 . S
H1005 C991 0.958 . S
H1006 C991 0.961 1_565 S
H1007 C991 0.960 . S
C1008 C1009 1.391 . S
C1008 C1010 1.394 . S
C1008 H1024 0.931 . S
C1009 C1008 1.391 . S
C1009 C1013 1.376 . S
C1010 C1008 1.394 . S
C1010 C1011 1.369 . S
C1010 C1014 1.531 . S
C1011 C1010 1.369 . S
C1011 C1012 1.410 . S
C1011 C1019 1.503 1_655 S
C1012 C1011 1.410 . S
C1012 C1013 1.392 . S
C1012 C1015 1.511 . S
C1013 C1009 1.376 . S
C1013 C1012 1.392 . S
C1013 H1025 0.929 . S
C1014 C1010 1.531 . S
C1014 H1026 0.960 . S
C1014 H1027 0.962 . S
C1014 H1028 0.960 . S
C1015 C1012 1.511 . S
C1015 H1029 0.961 . S
C1015 H1030 0.961 1_655 S
C1015 H1031 0.961 . S
C1016 C1017 1.370 . S
C1016 C1018 1.363 . S
C1016 H1032 0.931 . S
C1017 C1016 1.370 . S
C1017 C1021 1.408 . S
C1018 C1016 1.363 . S
C1018 C1019 1.370 . S
C1018 C1022 1.524 . S
C1019 C1011 1.503 1_455 S
C1019 C1018 1.370 . S
C1019 C1020 1.403 . S
C1020 C1019 1.403 . S
C1020 C1021 1.404 . S
C1020 C1023 1.539 1_455 S
C1021 C1017 1.408 . S
C1021 C1020 1.404 . S
C1021 H1033 0.930 . S
C1022 C1018 1.524 . S
C1022 H1034 0.956 . S
C1022 H1035 0.961 . S
C1022 H1036 0.961 . S
C1023 C1020 1.539 1_655 S
C1023 H1037 0.958 . S
C1023 H1038 0.961 1_655 S
C1023 H1039 0.960 . S
H1024 C1008 0.931 . S
H1025 C1013 0.929 . S
H1026 C1014 0.960 . S
H1027 C1014 0.962 . S
H1028 C1014 0.960 . S
H1029 C1015 0.961 . S
H1030 C1015 0.961 1_455 S
H1031 C1015 0.961 . S
H1032 C1016 0.931 . S
H1033 C1021 0.930 . S
H1034 C1022 0.956 . S
H1035 C1022 0.961 . S
H1036 C1022 0.961 . S
H1037 C1023 0.958 . S
H1038 C1023 0.961 1_455 S
H1039 C1023 0.960 . S
C1040 C1041 1.391 . S
C1040 C1042 1.394 . S
C1040 H1056 0.931 . S
C1041 C1040 1.391 . S
C1041 C1045 1.376 . S
C1042 C1040 1.394 . S
C1042 C1043 1.369 . S
C1042 C1046 1.539 . S
C1043 C1042 1.369 . S
C1043 C1044 1.410 . S
C1043 C1051 1.503 1_545 S
C1044 C1043 1.410 . S
C1044 C1045 1.392 . S
C1044 C1047 1.511 . S
C1045 C1041 1.376 . S
C1045 C1044 1.392 . S
C1045 H1057 0.929 . S
C1046 C1042 1.539 . S
C1046 H1058 0.948 1_545 S
C1046 H1059 0.961 1_545 S
C1046 H1060 0.964 . S
C1047 C1044 1.511 . S
C1047 H1061 0.961 . S
C1047 H1062 0.961 . S
C1047 H1063 0.961 . S
C1048 C1049 1.370 . S
C1048 C1050 1.363 . S
C1048 H1064 0.931 . S
C1049 C1048 1.370 . S
C1049 C1053 1.408 . S
C1050 C1048 1.363 . S
C1050 C1051 1.370 . S
C1050 C1054 1.524 1_565 S
C1051 C1043 1.503 1_565 S
C1051 C1050 1.370 . S
C1051 C1052 1.403 . S
C1052 C1051 1.403 . S
C1052 C1053 1.404 . S
C1052 C1055 1.539 . S
C1053 C1049 1.408 . S
C1053 C1052 1.404 . S
C1053 H1065 0.930 . S
C1054 C1050 1.524 1_545 S
C1054 H1066 0.956 . S
C1054 H1067 0.961 . S
C1054 H1068 0.961 1_545 S
C1055 C1052 1.539 . S
C1055 H1069 0.958 . S
C1055 H1070 0.961 . S
C1055 H1071 0.960 . S
H1056 C1040 0.931 . S
H1057 C1045 0.929 . S
H1058 C1046 0.948 1_565 S
H1059 C1046 0.961 1_565 S
H1060 C1046 0.964 . S
H1061 C1047 0.961 . S
H1062 C1047 0.961 . S
H1063 C1047 0.961 . S
H1064 C1048 0.931 . S
H1065 C1053 0.930 . S
H1066 C1054 0.956 . S
H1067 C1054 0.961 . S
H1068 C1054 0.961 1_565 S
H1069 C1055 0.958 . S
H1070 C1055 0.961 . S
H1071 C1055 0.960 . S
C1072 C1073 1.391 . S
C1072 C1074 1.394 . S
C1072 H1088 0.931 . S
C1073 C1072 1.391 . S
C1073 C1077 1.376 . S
C1074 C1072 1.394 . S
C1074 C1075 1.369 . S
C1074 C1078 1.527 1_455 S
C1075 C1074 1.369 . S
C1075 C1076 1.410 . S
C1075 C1083 1.503 1_455 S
C1076 C1075 1.410 . S
C1076 C1077 1.392 . S
C1076 C1079 1.511 . S
C1077 C1073 1.376 . S
C1077 C1076 1.392 . S
C1077 H1089 0.929 . S
C1078 C1074 1.527 1_655 S
C1078 H1090 0.963 . S
C1078 H1091 0.964 . S
C1078 H1092 0.958 1_655 S
C1079 C1076 1.511 . S
C1079 H1093 0.961 . S
C1079 H1094 0.961 . S
C1079 H1095 0.961 . S
C1080 C1081 1.370 . S
C1080 C1082 1.363 . S
C1080 H1096 0.931 . S
C1081 C1080 1.370 . S
C1081 C1085 1.408 . S
C1082 C1080 1.363 . S
C1082 C1083 1.370 . S
C1082 C1086 1.524 . S
C1083 C1075 1.503 1_655 S
C1083 C1082 1.370 . S
C1083 C1084 1.403 . S
C1084 C1083 1.403 . S
C1084 C1085 1.404 . S
C1084 C1087 1.539 . S
C1085 C1081 1.408 . S
C1085 C1084 1.404 . S
C1085 H1097 0.930 . S
C1086 C1082 1.524 . S
C1086 H1098 0.956 . S
C1086 H1099 0.961 . S
C1086 H1100 0.961 . S
C1087 C1084 1.539 . S
C1087 H1101 0.958 . S
C1087 H1102 0.961 . S
C1087 H1103 0.960 1_655 S
H1088 C1072 0.931 . S
H1089 C1077 0.929 . S
H1090 C1078 0.963 . S
H1091 C1078 0.964 . S
H1092 C1078 0.958 1_455 S
H1093 C1079 0.961 . S
H1094 C1079 0.961 . S
H1095 C1079 0.961 . S
H1096 C1080 0.931 . S
H1097 C1085 0.930 . S
H1098 C1086 0.956 . S
H1099 C1086 0.961 . S
H1100 C1086 0.961 . S
H1101 C1087 0.958 . S
H1102 C1087 0.961 . S
H1103 C1087 0.960 1_455 S
C1104 C1105 1.391 . S
C1104 C1106 1.394 . S
C1104 H1120 0.931 . S
C1105 C1104 1.391 . S
C1105 C1109 1.376 . S
C1106 C1104 1.394 . S
C1106 C1107 1.369 . S
C1106 C1110 1.531 . S
C1107 C1106 1.369 . S
C1107 C1108 1.410 . S
C1107 C1115 1.503 1_545 S
C1108 C1107 1.410 . S
C1108 C1109 1.392 . S
C1108 C1111 1.511 . S
C1109 C1105 1.376 . S
C1109 C1108 1.392 . S
C1109 H1121 0.929 . S
C1110 C1106 1.531 . S
C1110 H1122 0.960 . S
C1110 H1123 0.962 . S
C1110 H1124 0.960 . S
C1111 C1108 1.511 . S
C1111 H1125 0.961 . S
C1111 H1126 0.961 1_545 S
C1111 H1127 0.961 . S
C1112 C1113 1.370 . S
C1112 C1114 1.363 . S
C1112 H1128 0.931 . S
C1113 C1112 1.370 . S
C1113 C1117 1.408 . S
C1114 C1112 1.363 . S
C1114 C1115 1.370 . S
C1114 C1118 1.524 . S
C1115 C1107 1.503 1_565 S
C1115 C1114 1.370 . S
C1115 C1116 1.403 . S
C1116 C1115 1.403 . S
C1116 C1117 1.404 . S
C1116 C1119 1.539 . S
C1117 C1113 1.408 . S
C1117 C1116 1.404 . S
C1117 H1129 0.930 . S
C1118 C1114 1.524 . S
C1118 H1130 0.956 . S
C1118 H1131 0.961 . S
C1118 H1132 0.961 . S
C1119 C1116 1.539 . S
C1119 H1133 0.958 . S
C1119 H1134 0.961 . S
C1119 H1135 0.960 1_565 S
H1120 C1104 0.931 . S
H1121 C1109 0.929 . S
H1122 C1110 0.960 . S
H1123 C1110 0.962 . S
H1124 C1110 0.960 . S
H1125 C1111 0.961 . S
H1126 C1111 0.961 1_565 S
H1127 C1111 0.961 . S
H1128 C1112 0.931 . S
H1129 C1117 0.930 . S
H1130 C1118 0.956 . S
H1131 C1118 0.961 . S
H1132 C1118 0.961 . S
H1133 C1119 0.958 . S
H1134 C1119 0.961 . S
H1135 C1119 0.960 1_545 S
C1136 C1137 1.391 . S
C1136 C1138 1.394 . S
C1136 H1152 0.931 . S
C1137 C1136 1.391 . S
C1137 C1141 1.376 . S
C1138 C1136 1.394 . S
C1138 C1139 1.369 . S
C1138 C1142 1.531 . S
C1139 C1138 1.369 . S
C1139 C1140 1.410 . S
C1139 C1147 1.503 1_655 S
C1140 C1139 1.410 . S
C1140 C1141 1.392 . S
C1140 C1143 1.511 . S
C1141 C1137 1.376 . S
C1141 C1140 1.392 . S
C1141 H1153 0.929 . S
C1142 C1138 1.531 . S
C1142 H1154 0.960 . S
C1142 H1155 0.962 . S
C1142 H1156 0.960 . S
C1143 C1140 1.511 . S
C1143 H1157 0.961 . S
C1143 H1158 0.961 1_655 S
C1143 H1159 0.961 . S
C1144 C1145 1.370 . S
C1144 C1146 1.363 . S
C1144 H1160 0.931 . S
C1145 C1144 1.370 . S
C1145 C1149 1.408 . S
C1146 C1144 1.363 . S
C1146 C1147 1.370 . S
C1146 C1150 1.524 . S
C1147 C1139 1.503 1_455 S
C1147 C1146 1.370 . S
C1147 C1148 1.403 . S
C1148 C1147 1.403 . S
C1148 C1149 1.404 . S
C1148 C1151 1.539 . S
C1149 C1145 1.408 . S
C1149 C1148 1.404 . S
C1149 H1161 0.930 . S
C1150 C1146 1.524 . S
C1150 H1162 0.956 . S
C1150 H1163 0.961 . S
C1150 H1164 0.961 . S
C1151 C1148 1.539 . S
C1151 H1165 0.958 . S
C1151 H1166 0.961 . S
C1151 H1167 0.960 1_455 S
H1152 C1136 0.931 . S
H1153 C1141 0.929 . S
H1154 C1142 0.960 . S
H1155 C1142 0.962 . S
H1156 C1142 0.960 . S
H1157 C1143 0.961 . S
H1158 C1143 0.961 1_455 S
H1159 C1143 0.961 . S
H1160 C1144 0.931 . S
H1161 C1149 0.930 . S
H1162 C1150 0.956 . S
H1163 C1150 0.961 . S
H1164 C1150 0.961 . S
H1165 C1151 0.958 . S
H1166 C1151 0.961 . S
H1167 C1151 0.960 1_655 S
C1168 C1169 1.391 . S
C1168 C1170 1.394 . S
C1168 H1184 0.931 . S
C1169 C1168 1.391 . S
C1169 C1173 1.376 . S
C1170 C1168 1.394 . S
C1170 C1171 1.369 . S
C1170 C1174 1.531 . S
C1171 C1170 1.369 . S
C1171 C1172 1.410 . S
C1171 C1179 1.503 1_565 S
C1172 C1171 1.410 . S
C1172 C1173 1.392 . S
C1172 C1175 1.511 . S
C1173 C1169 1.376 . S
C1173 C1172 1.392 . S
C1173 H1185 0.929 . S
C1174 C1170 1.531 . S
C1174 H1186 0.960 . S
C1174 H1187 0.962 . S
C1174 H1188 0.960 . S
C1175 C1172 1.511 . S
C1175 H1189 0.961 . S
C1175 H1190 0.961 1_565 S
C1175 H1191 0.961 . S
C1176 C1177 1.370 . S
C1176 C1178 1.363 . S
C1176 H1192 0.931 . S
C1177 C1176 1.370 . S
C1177 C1181 1.408 . S
C1178 C1176 1.363 . S
C1178 C1179 1.370 . S
C1178 C1182 1.524 . S
C1179 C1171 1.503 1_545 S
C1179 C1178 1.370 . S
C1179 C1180 1.403 . S
C1180 C1179 1.403 . S
C1180 C1181 1.404 . S
C1180 C1183 1.539 . S
C1181 C1177 1.408 . S
C1181 C1180 1.404 . S
C1181 H1193 0.930 . S
C1182 C1178 1.524 . S
C1182 H1194 0.956 . S
C1182 H1195 0.961 . S
C1182 H1196 0.961 . S
C1183 C1180 1.539 . S
C1183 H1197 0.958 . S
C1183 H1198 0.961 . S
C1183 H1199 0.960 1_545 S
H1184 C1168 0.931 . S
H1185 C1173 0.929 . S
H1186 C1174 0.960 . S
H1187 C1174 0.962 . S
H1188 C1174 0.960 . S
H1189 C1175 0.961 . S
H1190 C1175 0.961 1_545 S
H1191 C1175 0.961 . S
H1192 C1176 0.931 . S
H1193 C1181 0.930 . S
H1194 C1182 0.956 . S
H1195 C1182 0.961 . S
H1196 C1182 0.961 . S
H1197 C1183 0.958 . S
H1198 C1183 0.961 . S
H1199 C1183 0.960 1_565 S
C1200 C1201 1.391 . S
C1200 C1202 1.394 . S
C1200 H1216 0.931 . S
C1201 C1200 1.391 . S
C1201 C1205 1.376 . S
C1202 C1200 1.394 . S
C1202 C1203 1.369 . S
C1202 C1206 1.531 . S
C1203 C1202 1.369 . S
C1203 C1204 1.410 . S
C1203 C1211 1.503 1_455 S
C1204 C1203 1.410 . S
C1204 C1205 1.392 . S
C1204 C1207 1.511 . S
C1205 C1201 1.376 . S
C1205 C1204 1.392 . S
C1205 H1217 0.929 . S
C1206 C1202 1.531 . S
C1206 H1218 0.960 . S
C1206 H1219 0.962 . S
C1206 H1220 0.960 . S
C1207 C1204 1.511 . S
C1207 H1221 0.961 . S
C1207 H1222 0.961 1_455 S
C1207 H1223 0.953 1_455 S
C1208 C1209 1.370 . S
C1208 C1210 1.363 . S
C1208 H1224 0.931 . S
C1209 C1208 1.370 . S
C1209 C1213 1.408 . S
C1210 C1208 1.363 . S
C1210 C1211 1.370 . S
C1210 C1214 1.524 . S
C1211 C1203 1.503 1_655 S
C1211 C1210 1.370 . S
C1211 C1212 1.403 . S
C1212 C1211 1.403 . S
C1212 C1213 1.404 . S
C1212 C1215 1.539 . S
C1213 C1209 1.408 . S
C1213 C1212 1.404 . S
C1213 H1225 0.930 . S
C1214 C1210 1.524 . S
C1214 H1226 0.956 1_655 S
C1214 H1227 0.948 1_655 S
C1214 H1228 0.961 . S
C1215 C1212 1.539 . S
C1215 H1229 0.958 . S
C1215 H1230 0.961 . S
C1215 H1231 0.960 . S
H1216 C1200 0.931 . S
H1217 C1205 0.929 . S
H1218 C1206 0.960 . S
H1219 C1206 0.962 . S
H1220 C1206 0.960 . S
H1221 C1207 0.961 . S
H1222 C1207 0.961 1_655 S
H1223 C1207 0.953 1_655 S
H1224 C1208 0.931 . S
H1225 C1213 0.930 . S
H1226 C1214 0.956 1_455 S
H1227 C1214 0.948 1_455 S
H1228 C1214 0.961 . S
H1229 C1215 0.958 . S
H1230 C1215 0.961 . S
H1231 C1215 0.960 . S
C209 C69 1.583 . S
C217 C10 1.600 . S
C241 C82 1.579 . S
C249 C17 1.599 . S
C273 C30 1.577 . S
C281 C95 1.594 . S
C305 C43 1.596 . S
C313 C56 1.588 . S
C337 C179 1.596 . S
C345 C108 1.588 . S
C369 C186 1.589 . S
C377 C127 1.599 . S
C401 C134 1.598 . S
C409 C199 1.589 . S
C433 C153 1.601 . S
C441 C160 1.589 . S
C465 C140 1.617 . S
C473 C4 1.622 . S
C497 C147 1.626 . S
C505 C23 1.623 . S
C529 C114 1.613 . S
C537 C36 1.623 . S
C561 C49 1.630 . S
C569 C121 1.633 . S
C593 C192 1.628 . S
C601 C62 1.633 . S
C625 C205 1.617 . S
C633 C75 1.631 . S
C657 C88 1.620 . S
C665 C166 1.632 . S
C689 C173 1.623 . S
C697 C101 1.633 . S
C721 C57 1.921 . S
C729 C3 1.922 . S
C753 C18 1.918 . S
C761 C70 1.923 . S
C785 C31 1.920 . S
C793 C83 1.922 . S
C817 C96 1.918 . S
C825 C44 1.923 . S
C849 C107 1.121 . S
C857 C159 1.136 . S
C881 C174 1.130 . S
C889 C122 1.119 . S
C913 C133 1.139 . S
C921 C185 1.117 . S
C945 C198 1.117 . S
C953 C148 1.122 . S
C977 C146 1.916 . S
C985 C172 1.924 . S
C1009 C109 1.915 . S
C1017 C187 1.924 . S
C1041 C200 1.920 . S
C1049 C120 1.922 . S
C1073 C135 1.916 . S
C1081 C161 1.924 . S
C1105 C68 1.142 . S
C1113 C42 1.117 . S
C1137 C81 1.137 . S
C1145 C5 1.117 . S
C1169 C94 1.132 . S
C1177 C16 1.118 . S
C1201 C55 1.108 . S
C1209 C29 1.127 . S
