# Generated by pormake.
# Topology sma, (6)-cn, num edge types: 1
# Building blocks:
#     Node 0, Type 0, BuildingBlock: GEDQOX_clean_sbu_0, # of connection points: 6
#     Node 1, Type 0, BuildingBlock: GEDQOX_clean_sbu_0, # of connection points: 6
#     Node 2, Type 0, BuildingBlock: GEDQOX_clean_sbu_0, # of connection points: 6
#     Edge 3, Type (0, 0), BuildingBlock: ZUJKAS_clean_linker_0, # of connection points: 2
#     Edge 4, Type (0, 0), BuildingBlock: ZUJKAS_clean_linker_0, # of connection points: 2
#     Edge 5, Type (0, 0), BuildingBlock: ZUJKAS_clean_linker_0, # of connection points: 2
#     Edge 6, Type (0, 0), BuildingBlock: ZUJKAS_clean_linker_0, # of connection points: 2
#     Edge 7, Type (0, 0), BuildingBlock: ZUJKAS_clean_linker_0, # of connection points: 2
#     Edge 8, Type (0, 0), BuildingBlock: ZUJKAS_clean_linker_0, # of connection points: 2
#     Edge 9, Type (0, 0), BuildingBlock: ZUJKAS_clean_linker_0, # of connection points: 2
#     Edge 10, Type (0, 0), BuildingBlock: ZUJKAS_clean_linker_0, # of connection points: 2
#     Edge 11, Type (0, 0), BuildingBlock: ZUJKAS_clean_linker_0, # of connection points: 2
# Relax obj value: 0.120
# Max RMSD: 0.248
# Mean RMSD: 0.205
data_MOF--net-sma--node1-GEDQOX_clean_sbu_0--edge1-ZUJKAS_clean_linker_0
_symmetry_space_group_name_H-M    P1
_symmetry_Int_Tables_number       1
_symmetry_cell_setting            triclinic
loop_
_symmetry_equiv_pos_as_xyz
'x, y, z'
_cell_length_a     49.768495
_cell_length_b     40.181856
_cell_length_c     17.435175
_cell_angle_alpha  96.429733
_cell_angle_beta   90.384299
_cell_angle_gamma 102.18046
loop_
_atom_site_label
_atom_site_type_symbol
_atom_site_fract_x
_atom_site_fract_y
_atom_site_fract_z
_atom_type_partial_charge
Nd0 Nd 0.06633 0.59043 0.06604 0.0
Nd1 Nd 0.04581 0.51385 0.09233 0.0
C2 C 0.09565 0.64957 0.03246 0.0
C3 C 0.12152 0.67137 0.06713 0.0
C4 C 0.13918 0.6931 0.02299 0.0
C5 C 0.16382 0.71356 0.05578 0.0
C6 C 0.1713 0.71276 0.13362 0.0
C7 C 0.15359 0.6905 0.17725 0.0
C8 C 0.12908 0.66994 0.14428 0.0
C9 C 0.04789 0.58001 0.20939 0.0
C10 C 0.1118 0.54197 0.0925 0.0
C11 C 1.02024 0.45521 0.14015 0.0
C12 C 0.99387 0.43771 0.1713 0.0
C13 C 0.99036 0.43779 0.25125 0.0
C14 C 0.96622 0.41916 0.28003 0.0
C15 C 0.94522 0.39904 0.22959 0.0
C16 C 0.94893 0.39902 0.14951 0.0
C17 C 0.97278 0.41815 0.1209 0.0
C18 C 0.06072 0.52388 0.94458 0.0
C19 C 1.00202 0.56003 0.03862 0.0
O20 O 0.0977 0.62007 -0.00461 0.0
O21 O 0.07417 0.64711 0.07609 0.0
O22 O 0.04582 0.60687 0.1772 0.0
O23 O 0.06195 0.56195 0.17035 0.0
O24 O 0.1063 0.57132 0.07738 0.0
O25 O 0.09221 0.51557 0.10591 0.0
O26 O 0.03673 0.47946 0.18506 0.0
O27 O 1.01988 0.46168 0.0683 0.0
O28 O 0.0644 0.49778 0.97802 0.0
O29 O 0.04831 0.54239 -0.01185 0.0
O30 O 1.00611 0.53547 0.07979 0.0
O31 O 1.02295 0.58177 0.01315 0.0
H32 H 0.13394 0.69421 0.96305 0.0
H33 H 0.17712 0.7298 0.01982 0.0
H34 H 0.15837 0.68933 0.23744 0.0
H35 H 0.11592 0.65302 0.17931 0.0
H36 H 1.00646 0.45186 0.29175 0.0
H37 H 0.9642 0.42045 0.342 0.0
H38 H 0.93379 0.38336 0.1083 0.0
H39 H 0.97499 0.4168 0.05894 0.0
Nd40 Nd 0.52678 0.04768 0.60229 0.0
Nd41 Nd 0.58934 0.06511 0.57962 0.0
C42 C 0.47458 1.02216 0.6285 0.0
C43 C 0.45269 0.99545 0.58662 0.0
C44 C 0.43357 0.97404 0.62789 0.0
C45 C 0.41243 0.94913 0.58893 0.0
C46 C 0.40988 0.9452 0.50773 0.0
C47 C 0.42937 0.9664 0.46648 0.0
C48 C 0.45062 0.99112 0.50545 0.0
C49 C 0.54245 0.04764 0.45135 0.0
C50 C 0.56141 0.98519 0.59339 0.0
C51 C 0.63919 0.08568 0.52644 0.0
C52 C 0.66129 0.11545 0.51356 0.0
C53 C 0.65674 0.14123 0.4699 0.0
C54 C 0.67878 0.1671 0.45243 0.0
C55 C 0.70584 0.16774 0.47808 0.0
C56 C 0.71007 0.14235 0.52349 0.0
C57 C 0.68809 0.11658 0.54091 0.0
C58 C 0.57455 0.05486 0.72628 0.0
C59 C 0.55557 0.12798 0.61983 0.0
O60 O 0.49492 1.01169 0.6592 0.0
O61 O 0.48283 0.05005 0.59545 0.0
O62 O 0.52223 0.06042 0.4784 0.0
O63 O 0.55361 1.03588 0.50373 0.0
O64 O 0.53912 0.99629 0.61533 0.0
O65 O 0.58287 1.0059 0.56692 0.0
O66 O 0.61664 0.07925 0.48307 0.0
O67 O 0.63475 0.07918 0.5977 0.0
O68 O 0.59717 0.04869 0.6969 0.0
O69 O 0.56276 0.07057 0.68213 0.0
O70 O 0.57698 0.11827 0.58616 0.0
O71 O 0.53497 0.10525 0.64342 0.0
H72 H 0.43485 0.9768 0.69042 0.0
H73 H 0.39768 0.93345 0.62256 0.0
H74 H 0.42831 0.96374 0.40396 0.0
H75 H 0.46534 1.00698 0.47204 0.0
H76 H 0.63628 0.1411 0.44814 0.0
H77 H 0.67461 0.18649 0.4184 0.0
H78 H 0.73055 0.14159 0.54352 0.0
H79 H 0.69219 0.09688 0.57417 0.0
Nd80 Nd 0.52098 0.55584 0.75865 0.0
Nd81 Nd 0.58472 0.57164 0.75951 0.0
C82 C 0.4668 0.54839 0.73959 0.0
C83 C 0.44098 0.55148 0.77912 0.0
C84 C 0.41915 0.55807 0.73619 0.0
C85 C 0.39332 0.55701 0.76838 0.0
C86 C 0.38858 0.54926 0.84459 0.0
C87 C 0.41085 0.544 0.88873 0.0
C88 C 0.43677 0.54498 0.85625 0.0
C89 C 0.54646 0.56297 0.90135 0.0
C90 C 0.55641 0.63561 0.74658 0.0
C91 C 0.63719 0.57555 0.79268 0.0
C92 C 0.66669 0.57772 0.81165 0.0
C93 C 0.67499 0.57205 0.88541 0.0
C94 C 0.70252 0.57186 0.90208 0.0
C95 C 0.72249 0.57726 0.84538 0.0
C96 C 0.71419 0.58344 0.77184 0.0
C97 C 0.68663 0.58364 0.75519 0.0
C98 C 0.55972 0.56317 0.61585 0.0
C99 C 0.55055 0.4904 0.73815 0.0
O100 O 0.48438 0.57637 0.72787 0.0
O101 O 0.47877 0.52415 0.75694 0.0
O102 O 0.52282 0.54305 0.88309 0.0
O103 O 0.55416 0.58067 0.84766 0.0
O104 O 0.53316 0.61242 0.73011 0.0
O105 O 0.57885 0.62694 0.77171 0.0
O106 O 0.6181 0.57045 0.84405 0.0
O107 O 0.62835 0.57956 0.72412 0.0
O108 O 0.58217 0.58564 0.63677 0.0
O109 O 0.55166 0.54562 0.66988 0.0
O110 O 0.57378 0.51253 0.75982 0.0
O111 O 0.52792 0.50116 0.72236 0.0
H112 H 0.42187 0.56314 0.67667 0.0
H113 H 0.37693 0.56191 0.73304 0.0
H114 H 0.40801 0.53787 0.94745 0.0
H115 H 0.45326 0.53972 0.89067 0.0
H116 H 0.66013 0.56734 0.93019 0.0
H117 H 0.70814 0.56756 0.95969 0.0
H118 H 0.72886 0.5873 0.72639 0.0
H119 H 0.68088 0.58786 0.69761 0.0
H120 H 0.15719 0.59383 0.10115 0.0
H121 H 0.20383 0.59054 0.06516 0.0
H122 H 0.17998 0.48032 0.02907 0.0
H123 H 0.13272 0.48333 0.06527 0.0
H124 H 0.23442 0.50844 0.10505 0.0
H125 H 0.22028 0.56464 0.83509 0.0
H126 H 0.21198 0.58908 0.92097 0.0
H127 H 0.1918 0.5468 0.89205 0.0
C128 C 0.1618 0.56874 0.08676 0.0
C129 C 0.14102 0.5388 0.08567 0.0
C130 C 0.18855 0.56697 0.06577 0.0
C131 C 0.19533 0.53526 0.04283 0.0
C132 C 0.17517 0.50511 0.0461 0.0
H133 H 0.33938 0.51879 0.77008 0.0
H134 H 0.29308 0.5133 0.81948 0.0
C135 C 0.1482 0.50684 0.06727 0.0
C136 C 0.22309 0.53421 0.01212 0.0
H137 H 0.2659 0.56138 0.86862 0.0
C138 C 0.24129 0.51979 0.05309 0.0
C139 C 0.23197 0.54861 0.94371 0.0
C140 C 0.21295 0.56289 0.89486 0.0
C141 C 0.26834 0.52027 0.02869 0.0
C142 C 0.27762 0.53607 0.9621 0.0
C143 C 0.25907 0.54961 0.92011 0.0
C144 C 0.30624 0.53849 0.93386 0.0
C145 C 0.28654 0.50342 0.07405 0.0
C146 C 0.32936 0.55472 -0.01877 0.0
C147 C 0.35605 0.55796 0.95293 0.0
C148 C 0.36027 0.54546 0.87616 0.0
C149 C 0.33704 0.52925 0.82904 0.0
C150 C 0.31046 0.52589 0.85743 0.0
H151 H 0.27426 0.48406 0.10793 0.0
H152 H 0.29997 0.49071 0.03546 0.0
H153 H 0.29984 0.52322 0.11529 0.0
H154 H 0.32677 0.56551 0.03976 0.0
H155 H 0.37335 0.57096 -0.00934 0.0
H156 H 0.75216 0.20059 0.56526 0.0
H157 H 0.79228 0.24072 0.52519 0.0
H158 H 0.75405 0.23456 0.30013 0.0
H159 H 0.7141 0.19379 0.33881 0.0
H160 H 0.82655 0.22863 0.39401 0.0
H161 H 0.77725 0.33929 0.37301 0.0
H162 H 0.76256 0.30408 0.42624 0.0
H163 H 0.75955 0.29903 0.32271 0.0
C164 C 0.75225 0.20759 0.50707 0.0
C165 C 0.72972 0.19385 0.45541 0.0
C166 C 0.7752 0.2307 0.48442 0.0
C167 C 0.77607 0.24092 0.40995 0.0
C168 C 0.75363 0.22751 0.35834 0.0
H169 H 0.89241 0.38158 0.16616 0.0
H170 H 0.85269 0.34251 0.20964 0.0
C171 C 0.73072 0.20427 0.38077 0.0
C172 C 0.80076 0.26486 0.38558 0.0
H173 H 0.82268 0.34471 0.32973 0.0
C174 C 0.8258 0.25408 0.38021 0.0
C175 C 0.79965 0.29791 0.367 0.0
C176 C 0.77339 0.31102 0.37295 0.0
C177 C 0.84964 0.27515 0.35517 0.0
C178 C 0.84871 0.30854 0.33753 0.0
C179 C 0.82358 0.31927 0.3433 0.0
C180 C 0.8733 0.33251 0.31162 0.0
C181 C 0.87525 0.26079 0.34536 0.0
C182 C 0.89823 0.34065 0.35481 0.0
C183 C 0.9214 0.3623 0.32875 0.0
C184 C 0.92011 0.37718 0.25967 0.0
C185 C 0.8947 0.37006 0.21836 0.0
C186 C 0.87171 0.3479 0.24372 0.0
H187 H 0.87024 0.23231 0.33689 0.0
H188 H 0.88706 0.27009 0.29535 0.0
H189 H 0.88857 0.26889 0.39831 0.0
H190 H 0.8999 0.33015 0.40873 0.0
H191 H 0.94045 0.3667 0.3623 0.0
H192 H 0.60588 0.95378 0.58657 0.0
H193 H 0.60647 0.89468 0.61012 0.0
H194 H 0.51936 0.87573 0.64795 0.0
H195 H 0.51854 0.93416 0.6244 0.0
H196 H 0.59002 0.86145 0.74526 0.0
H197 H 0.52661 0.79514 0.4882 0.0
H198 H 0.54244 0.84023 0.49703 0.0
H199 H 0.51129 0.82555 0.54622 0.0
C200 C 0.58679 0.93688 0.59883 0.0
C201 C 0.56212 0.94881 0.6026 0.0
C202 C 0.58718 0.90311 0.61276 0.0
C203 C 0.56287 0.88041 0.62971 0.0
C204 C 0.5383 0.89235 0.63354 0.0
H205 H 0.51362 0.66741 0.72368 0.0
H206 H 0.51608 0.72665 0.69793 0.0
C207 C 0.53792 0.92599 0.62022 0.0
C208 C 0.56303 0.84453 0.6453 0.0
H209 H 0.53498 0.76037 0.58343 0.0
C210 C 0.57818 0.83931 0.70951 0.0
C211 C 0.54736 0.81554 0.5993 0.0
C212 C 0.53117 0.81924 0.52842 0.0
C213 C 0.57752 0.80615 0.73014 0.0
C214 C 0.56189 0.77703 0.68393 0.0
C215 C 0.54694 0.78238 0.61924 0.0
C216 C 0.56057 0.74091 0.70157 0.0
C217 C 0.59277 0.80295 0.80311 0.0
C218 C 0.58465 0.72857 0.71168 0.0
C219 C 0.58327 0.69478 0.72779 0.0
C220 C 0.55775 0.67201 0.73254 0.0
C221 C 0.53364 0.68414 0.72092 0.0
C222 C 0.53504 0.71812 0.70592 0.0
H223 H 0.59585 0.82686 0.84384 0.0
H224 H 0.58164 0.7814 0.83308 0.0
H225 H 0.6134 0.79823 0.78832 0.0
H226 H 0.60465 0.74492 0.70603 0.0
H227 H 0.6023 0.6863 0.73492 0.0
H228 H 0.74165 0.53339 0.93134 0.0
H229 H 0.78936 0.53187 0.96164 0.0
H230 H 0.81743 0.61511 0.82597 0.0
H231 H 0.76976 0.61776 0.7978 0.0
H232 H 0.83071 0.52012 0.86463 0.0
H233 H 0.86033 0.64971 0.02851 0.0
H234 H 0.82497 0.62916 0.00411 0.0
H235 H 0.84662 0.64925 0.93281 0.0
C236 C 0.75792 0.55178 0.90884 0.0
C237 C 0.75172 0.57596 0.8627 0.0
C238 C 0.78524 0.55066 0.92572 0.0
C239 C 0.80705 0.57373 0.89721 0.0
C240 C 0.801 0.5975 0.85003 0.0
H241 H 0.98555 0.60429 0.94859 0.0
H242 H 0.9386 0.60696 0.91198 0.0
C243 C 0.77366 0.5987 0.83319 0.0
C244 C 0.83605 0.57245 0.91608 0.0
H245 H 0.89596 0.61954 0.00329 0.0
C246 C 0.84495 0.54184 0.89514 0.0
C247 C 0.85471 0.60082 0.9556 0.0
C248 C 0.84619 0.63401 -0.01775 0.0
C249 C 0.87199 0.53891 0.91198 0.0
C250 C 0.89054 0.56715 0.9523 0.0
C251 C 0.88174 0.59787 0.97253 0.0
C252 C 0.91909 0.56527 0.97465 0.0
C253 C 0.88057 0.50579 0.88504 0.0
C254 C 0.92385 0.54127 0.02307 0.0
C255 C 0.95071 0.53963 0.04411 0.0
C256 C 0.97345 0.56215 0.01764 0.0
C257 C 0.96859 0.5865 0.97005 0.0
C258 C 0.94172 0.58808 0.94899 0.0
H259 H 0.8669 0.49065 0.83713 0.0
H260 H 0.90207 0.51065 0.86532 0.0
H261 H 0.87933 0.48999 0.93371 0.0
H262 H 0.90674 0.52392 0.04511 0.0
H263 H 0.95361 0.5207 0.08121 0.0
H264 H 0.37814 0.95332 0.38479 0.0
H265 H 0.33889 0.91222 0.32064 0.0
H266 H 0.34998 0.83799 0.47189 0.0
H267 H 0.38909 0.87907 0.53677 0.0
H268 H 0.33411 0.8486 0.24213 0.0
H269 H 0.26985 0.83989 0.50081 0.0
H270 H 0.30091 0.87226 0.4977 0.0
H271 H 0.30271 0.82943 0.51472 0.0
C272 C 0.37235 0.92817 0.40415 0.0
C273 C 0.38666 0.91964 0.4665 0.0
C274 C 0.34982 0.90472 0.36754 0.0
C275 C 0.34104 0.8722 0.39238 0.0
C276 C 0.3558 0.86323 0.45305 0.0
H277 H 0.20694 0.6982 0.24054 0.0
H278 H 0.24833 0.7361 0.30179 0.0
C279 C 0.37822 0.88674 0.49003 0.0
C280 C 0.31653 0.84777 0.3546 0.0
H281 H 0.25291 0.80107 0.38998 0.0
C282 C 0.31634 0.83831 0.27448 0.0
C283 C 0.29326 0.83427 0.39668 0.0
C284 C 0.29148 0.84469 0.48208 0.0
C285 C 0.29374 0.81549 0.23559 0.0
C286 C 0.27052 0.80205 0.27769 0.0
C287 C 0.27076 0.81129 0.3578 0.0
C288 C 0.24553 0.77891 0.23948 0.0
C289 C 0.29508 0.80553 0.14989 0.0
C290 C 0.22995 0.79045 0.18467 0.0
C291 C 0.20608 0.76898 0.15005 0.0
C292 C 0.19716 0.73539 0.1695 0.0
C293 C 0.21288 0.72396 0.22463 0.0
C294 C 0.23669 0.74554 0.25948 0.0
H295 H 0.31657 0.81083 0.13004 0.0
H296 H 0.28585 0.77792 0.13407 0.0
H297 H 0.28329 0.82061 0.11849 0.0
H298 H 0.23602 0.81634 0.16952 0.0
H299 H 0.19431 0.77903 0.10923 0.0
H300 H 0.50628 0.43572 0.7245 0.0
H301 H 0.50685 0.37446 0.70825 0.0
H302 H 0.59545 0.39925 0.70561 0.0
H303 H 0.59503 0.46022 0.72519 0.0
H304 H 0.52322 0.33426 0.59875 0.0
H305 H 0.58666 0.3327 0.85919 0.0
H306 H 0.5732 0.36958 0.84207 0.0
H307 H 0.60429 0.36224 0.79718 0.0
C308 C 0.5259 0.42811 0.721 0.0
C309 C 0.55061 0.45302 0.72696 0.0
C310 C 0.52622 0.39299 0.71163 0.0
C311 C 0.55123 0.38185 0.70748 0.0
C312 C 0.57587 0.40681 0.7114 0.0
H313 H 0.59757 0.18375 0.60687 0.0
H314 H 0.59595 0.24469 0.62802 0.0
C315 C 0.57559 0.44185 0.72198 0.0
C316 C 0.55152 0.34431 0.69674 0.0
H317 H 0.58033 0.28293 0.76649 0.0
C318 C 0.53555 0.32309 0.63598 0.0
C319 C 0.56751 0.3293 0.7452 0.0
C320 C 0.58363 0.34958 0.815 0.0
C321 C 0.53563 0.28787 0.62136 0.0
C322 C 0.55206 0.27315 0.66873 0.0
C323 C 0.56791 0.2942 0.72968 0.0
C324 C 0.55296 0.23594 0.65621 0.0
C325 C 0.51848 0.26676 0.55426 0.0
C326 C 0.52946 0.21057 0.66597 0.0
C327 C 0.53038 0.17569 0.65455 0.0
C328 C 0.55481 0.16522 0.63266 0.0
C329 C 0.57836 0.19073 0.62324 0.0
C330 C 0.57749 0.22565 0.63547 0.0
H331 H 0.51202 0.28308 0.5133 0.0
H332 H 0.52999 0.249 0.5224 0.0
H333 H 0.49967 0.25111 0.57641 0.0
H334 H 0.51039 0.21777 0.68299 0.0
H335 H 0.51182 0.1569 0.66243 0.0
H336 H 0.04471 0.46582 0.84501 0.0
H337 H 1.0263 0.46256 0.71336 0.0
H338 H 0.04789 0.57298 0.72587 0.0
H339 H 0.06477 0.57632 0.85907 0.0
H340 H 0.9954 0.54787 0.6748 0.0
H341 H 0.06501 0.47404 0.51525 0.0
H342 H 0.04554 0.454 0.59023 0.0
H343 H 0.07195 0.4919 0.61465 0.0
C344 C 0.0462 0.48929 0.81866 0.0
C345 C 0.05641 0.52137 0.86113 0.0
C346 C 0.03556 0.48738 0.74372 0.0
C347 C 0.03579 0.51751 0.71 0.0
C348 C 0.04733 0.54944 0.7513 0.0
H349 H 0.0534 0.61626 0.35041 0.0
H350 H 0.03522 0.59552 0.47056 0.0
C351 C 0.05733 0.55138 0.82666 0.0
C352 C 1.02366 0.51655 0.63232 0.0
H353 H 0.03587 0.49741 0.44255 0.0
C354 C 1.00385 0.5363 0.62385 0.0
C355 C 0.03411 0.50055 0.56617 0.0
C356 C 0.05543 0.47908 0.57156 0.0
C357 C 0.99669 0.54378 0.55101 0.0
C358 C 1.00944 0.53082 0.48593 0.0
C359 C 1.02636 0.50745 0.49336 0.0
C360 C 1.01163 0.54722 0.41458 0.0
C361 C 0.9772 0.56744 0.54449 0.0
C362 C 1.00342 0.52748 0.34383 0.0
C363 C 1.01423 0.53904 0.27576 0.0
C364 C 0.03329 0.5703 0.27833 0.0
C365 C 0.03912 0.59172 0.34796 0.0
C366 C 1.02843 0.58011 0.41611 0.0
H367 H 0.96282 0.56637 0.59308 0.0
H368 H 0.9892 0.59416 0.54647 0.0
H369 H 0.96514 0.56085 0.489 0.0
H370 H 0.99013 0.50233 0.34208 0.0
H371 H 1.00832 0.52314 0.22171 0.0
H372 H 0.55767 0.98862 0.39604 0.0
H373 H 0.55203 0.96068 0.26322 0.0
H374 H 0.52052 0.04522 0.19315 0.0
H375 H 0.52477 0.07238 0.32674 0.0
H376 H 0.49103 0.98084 0.12606 0.0
H377 H 0.60447 0.993 0.09924 0.0
H378 H 0.58743 0.96878 0.17205 0.0
H379 H 0.59061 1.01444 0.18111 0.0
C380 C 0.54973 1.00132 0.35202 0.0
C381 C 0.54196 1.03285 0.37076 0.0
C382 C 0.54638 0.98522 0.2765 0.0
C383 C 0.53596 1.00097 0.21866 0.0
C384 C 0.52831 1.03252 0.23743 0.0
H385 H 0.53416 0.06847 0.82196 0.0
H386 H 0.51574 1.03623 0.92779 0.0
C387 C 0.53109 0.04825 0.31316 0.0
C388 C 0.53503 0.9867 0.13705 0.0
H389 H 0.57803 0.98574 -0.01276 0.0
C390 C 0.50992 0.98091 0.09531 0.0
C391 C 0.55956 0.98557 0.09756 0.0
C392 C 0.5871 0.99084 0.13938 0.0
C393 C 0.50925 0.97859 0.01458 0.0
C394 C 0.53432 0.98273 0.97584 0.0
C395 C 0.55878 0.98322 0.01709 0.0
C396 C 0.53726 0.99495 0.89899 0.0
C397 C 0.48198 0.97398 0.97225 0.0
C398 C 0.55495 0.98226 0.84673 0.0
C399 C 0.56674 1.00176 0.7899 0.0
C400 C 0.56001 1.03347 0.78202 0.0
C401 C 0.53988 0.04431 0.82811 0.0
C402 C 0.52887 1.02541 0.88728 0.0
H403 H 0.46595 0.95562 -0.00087 0.0
H404 H 0.47545 0.99887 0.97694 0.0
H405 H 0.48309 0.96453 0.91025 0.0
H406 H 0.56165 0.95884 0.85447 0.0
H407 H 0.58186 0.99248 0.75386 0.0
H408 H 0.54751 0.4954 0.56023 0.0
H409 H 0.55464 0.47184 0.42767 0.0
H410 H 0.57088 0.57392 0.35919 0.0
H411 H 0.56443 0.59764 0.49144 0.0
H412 H 0.53098 0.48495 0.27239 0.0
H413 H 0.64302 0.53202 0.31983 0.0
H414 H 0.61979 0.52065 0.39676 0.0
H415 H 0.62358 0.56192 0.36233 0.0
C416 C 0.55177 0.51263 0.51619 0.0
C417 C 0.55573 0.54836 0.53532 0.0
C418 C 0.55609 0.49916 0.4411 0.0
C419 C 0.56415 0.52141 0.38534 0.0
C420 C 0.56538 0.55664 0.40277 0.0
H421 H 0.57305 0.60213 0.02696 0.0
H422 H 0.5901 0.5794 0.13783 0.0
C423 C 0.56143 0.57011 0.47763 0.0
C424 C 0.57244 0.50911 0.30881 0.0
H425 H 0.62479 0.5347 0.18998 0.0
C426 C 0.55171 0.49411 0.25372 0.0
C427 C 0.59968 0.52049 0.28594 0.0
C428 C 0.62289 0.53434 0.34451 0.0
C429 C 0.55659 0.49545 0.17515 0.0
C430 C 0.58293 0.5122 0.15272 0.0
C431 C 0.60462 0.52231 0.20754 0.0
C432 C 0.5855 0.52774 0.08005 0.0
C433 C 0.53256 0.48322 0.11818 0.0
C434 C 0.57969 0.50692 0.00971 0.0
C435 C 0.56884 0.51951 0.94805 0.0
C436 C 0.56532 0.55347 0.95509 0.0
C437 C 0.57557 0.57584 0.02088 0.0
C438 C 0.58554 0.56291 0.0837 0.0
H439 H 0.51336 0.47182 0.14626 0.0
H440 H 0.52867 0.50492 0.08864 0.0
H441 H 0.5373 0.46347 0.07369 0.0
H442 H 0.57993 0.47988 0.00581 0.0
H443 H 0.56081 0.50176 0.89799 0.0
loop_
_geom_bond_atom_site_label_1
_geom_bond_atom_site_label_2
_geom_bond_distance
_geom_bond_site_symmetry_2
_ccdc_geom_bond_type
Nd0 C2 2.836 . S
Nd0 O20 2.500 . S
Nd0 O21 2.492 . S
Nd0 O22 2.487 . S
Nd0 O23 2.682 . S
Nd0 O24 2.410 . S
Nd0 O29 2.414 . S
Nd0 O31 2.424 1_455 S
Nd1 C11 2.836 1_455 S
Nd1 O23 2.414 . S
Nd1 O25 2.424 . S
Nd1 O26 2.500 1_455 S
Nd1 O27 2.492 1_455 S
Nd1 O28 2.487 1_554 S
Nd1 O29 2.682 . S
Nd1 O30 2.410 1_455 S
C2 Nd0 2.836 . S
C2 C3 1.498 . S
C2 O20 1.258 . S
C2 O21 1.239 . S
C3 C2 1.498 . S
C3 C4 1.366 . S
C3 C8 1.407 . S
C4 C3 1.366 . S
C4 C5 1.392 . S
C4 H32 0.930 . S
C5 C4 1.392 . S
C5 C6 1.398 . S
C5 H33 0.929 . S
C6 C5 1.398 . S
C6 C7 1.352 . S
C7 C6 1.352 . S
C7 C8 1.384 . S
C7 H34 0.930 . S
C8 C3 1.407 . S
C8 C7 1.384 . S
C8 H35 0.929 . S
C9 O22 1.241 . S
C9 O23 1.273 . S
C10 O24 1.251 . S
C10 O25 1.268 . S
C11 Nd1 2.836 1_655 S
C11 C12 1.498 . S
C11 O26 1.258 . S
C11 O27 1.239 . S
C12 C11 1.498 . S
C12 C13 1.366 . S
C12 C17 1.407 . S
C13 C12 1.366 . S
C13 C14 1.392 . S
C13 H36 0.930 . S
C14 C13 1.392 . S
C14 C15 1.398 . S
C14 H37 0.929 . S
C15 C14 1.398 . S
C15 C16 1.352 . S
C16 C15 1.352 . S
C16 C17 1.384 . S
C16 H38 0.930 . S
C17 C12 1.407 . S
C17 C16 1.384 . S
C17 H39 0.929 . S
C18 O28 1.241 . S
C18 O29 1.273 1_556 S
C19 O30 1.251 . S
C19 O31 1.268 . S
O20 Nd0 2.500 . S
O20 C2 1.258 . S
O21 Nd0 2.492 . S
O21 C2 1.239 . S
O22 Nd0 2.487 . S
O22 C9 1.241 . S
O23 Nd0 2.682 . S
O23 Nd1 2.414 . S
O23 C9 1.273 . S
O24 Nd0 2.410 . S
O24 C10 1.251 . S
O25 Nd1 2.424 . S
O25 C10 1.268 . S
O26 Nd1 2.500 1_655 S
O26 C11 1.258 . S
O27 Nd1 2.492 1_655 S
O27 C11 1.239 . S
O28 Nd1 2.487 1_556 S
O28 C18 1.241 . S
O29 Nd0 2.414 . S
O29 Nd1 2.682 . S
O29 C18 1.273 1_554 S
O30 Nd1 2.410 1_655 S
O30 C19 1.251 . S
O31 Nd0 2.424 1_655 S
O31 C19 1.268 . S
H32 C4 0.930 . S
H33 C5 0.929 . S
H34 C7 0.930 . S
H35 C8 0.929 . S
H36 C13 0.930 . S
H37 C14 0.929 . S
H38 C16 0.930 . S
H39 C17 0.929 . S
Nd40 C42 2.836 . S
Nd40 O60 2.500 . S
Nd40 O61 2.492 . S
Nd40 O62 2.487 . S
Nd40 O63 2.682 1_565 S
Nd40 O64 2.410 . S
Nd40 O69 2.414 1_565 S
Nd40 O71 2.424 1_565 S
Nd41 C51 2.836 . S
Nd41 O63 2.414 . S
Nd41 O65 2.424 1_545 S
Nd41 O66 2.500 . S
Nd41 O67 2.492 . S
Nd41 O68 2.487 . S
Nd41 O69 2.682 . S
Nd41 O70 2.410 . S
C42 Nd40 2.836 . S
C42 C43 1.498 . S
C42 O60 1.258 . S
C42 O61 1.239 . S
C43 C42 1.498 . S
C43 C44 1.366 . S
C43 C48 1.407 . S
C44 C43 1.366 . S
C44 C45 1.392 . S
C44 H72 0.930 . S
C45 C44 1.392 . S
C45 C46 1.398 . S
C45 H73 0.929 . S
C46 C45 1.398 . S
C46 C47 1.352 . S
C47 C46 1.352 . S
C47 C48 1.384 . S
C47 H74 0.930 . S
C48 C43 1.407 . S
C48 C47 1.384 . S
C48 H75 0.929 . S
C49 O62 1.241 1_545 S
C49 O63 1.273 . S
C50 O64 1.251 . S
C50 O65 1.268 . S
C51 Nd41 2.836 . S
C51 C52 1.498 . S
C51 O66 1.258 . S
C51 O67 1.239 . S
C52 C51 1.498 . S
C52 C53 1.366 . S
C52 C57 1.407 . S
C53 C52 1.366 . S
C53 C54 1.392 . S
C53 H76 0.930 . S
C54 C53 1.392 . S
C54 C55 1.398 . S
C54 H77 0.929 . S
C55 C54 1.398 . S
C55 C56 1.352 . S
C56 C55 1.352 . S
C56 C57 1.384 . S
C56 H78 0.930 . S
C57 C52 1.407 . S
C57 C56 1.384 . S
C57 H79 0.929 . S
C58 O68 1.241 . S
C58 O69 1.273 . S
C59 O70 1.251 . S
C59 O71 1.268 . S
O60 Nd40 2.500 . S
O60 C42 1.258 . S
O61 Nd40 2.492 . S
O61 C42 1.239 . S
O62 Nd40 2.487 . S
O62 C49 1.241 1_565 S
O63 Nd40 2.682 1_545 S
O63 Nd41 2.414 . S
O63 C49 1.273 . S
O64 Nd40 2.410 . S
O64 C50 1.251 . S
O65 Nd41 2.424 1_565 S
O65 C50 1.268 . S
O66 Nd41 2.500 . S
O66 C51 1.258 . S
O67 Nd41 2.492 . S
O67 C51 1.239 . S
O68 Nd41 2.487 . S
O68 C58 1.241 . S
O69 Nd40 2.414 1_545 S
O69 Nd41 2.682 . S
O69 C58 1.273 . S
O70 Nd41 2.410 . S
O70 C59 1.251 . S
O71 Nd40 2.424 1_545 S
O71 C59 1.268 . S
H72 C44 0.930 . S
H73 C45 0.929 . S
H74 C47 0.930 . S
H75 C48 0.929 . S
H76 C53 0.930 . S
H77 C54 0.929 . S
H78 C56 0.930 . S
H79 C57 0.929 . S
Nd80 C82 2.836 . S
Nd80 O100 2.500 . S
Nd80 O101 2.492 . S
Nd80 O102 2.487 . S
Nd80 O103 2.682 . S
Nd80 O104 2.410 . S
Nd80 O109 2.414 . S
Nd80 O111 2.424 . S
Nd81 C91 2.836 . S
Nd81 O103 2.414 . S
Nd81 O105 2.424 . S
Nd81 O106 2.500 . S
Nd81 O107 2.492 . S
Nd81 O108 2.487 . S
Nd81 O109 2.682 . S
Nd81 O110 2.410 . S
C82 Nd80 2.836 . S
C82 C83 1.498 . S
C82 O100 1.258 . S
C82 O101 1.239 . S
C83 C82 1.498 . S
C83 C84 1.366 . S
C83 C88 1.407 . S
C84 C83 1.366 . S
C84 C85 1.392 . S
C84 H112 0.930 . S
C85 C84 1.392 . S
C85 C86 1.398 . S
C85 H113 0.929 . S
C86 C85 1.398 . S
C86 C87 1.352 . S
C87 C86 1.352 . S
C87 C88 1.384 . S
C87 H114 0.930 . S
C88 C83 1.407 . S
C88 C87 1.384 . S
C88 H115 0.929 . S
C89 O102 1.241 . S
C89 O103 1.273 . S
C90 O104 1.251 . S
C90 O105 1.268 . S
C91 Nd81 2.836 . S
C91 C92 1.498 . S
C91 O106 1.258 . S
C91 O107 1.239 . S
C92 C91 1.498 . S
C92 C93 1.366 . S
C92 C97 1.407 . S
C93 C92 1.366 . S
C93 C94 1.392 . S
C93 H116 0.930 . S
C94 C93 1.392 . S
C94 C95 1.398 . S
C94 H117 0.929 . S
C95 C94 1.398 . S
C95 C96 1.352 . S
C96 C95 1.352 . S
C96 C97 1.384 . S
C96 H118 0.930 . S
C97 C92 1.407 . S
C97 C96 1.384 . S
C97 H119 0.929 . S
C98 O108 1.241 . S
C98 O109 1.273 . S
C99 O110 1.251 . S
C99 O111 1.268 . S
O100 Nd80 2.500 . S
O100 C82 1.258 . S
O101 Nd80 2.492 . S
O101 C82 1.239 . S
O102 Nd80 2.487 . S
O102 C89 1.241 . S
O103 Nd80 2.682 . S
O103 Nd81 2.414 . S
O103 C89 1.273 . S
O104 Nd80 2.410 . S
O104 C90 1.251 . S
O105 Nd81 2.424 . S
O105 C90 1.268 . S
O106 Nd81 2.500 . S
O106 C91 1.258 . S
O107 Nd81 2.492 . S
O107 C91 1.239 . S
O108 Nd81 2.487 . S
O108 C98 1.241 . S
O109 Nd80 2.414 . S
O109 Nd81 2.682 . S
O109 C98 1.273 . S
O110 Nd81 2.410 . S
O110 C99 1.251 . S
O111 Nd80 2.424 . S
O111 C99 1.268 . S
H112 C84 0.930 . S
H113 C85 0.929 . S
H114 C87 0.930 . S
H115 C88 0.929 . S
H116 C93 0.930 . S
H117 C94 0.929 . S
H118 C96 0.930 . S
H119 C97 0.929 . S
H120 C128 0.929 . S
H121 C130 0.930 . S
H122 C132 0.930 . S
H123 C135 0.929 1_556 S
H124 C138 0.930 . S
H125 C140 0.960 . S
H126 C140 0.960 . S
H127 C140 0.960 . S
C128 H120 0.929 . S
C128 C129 1.377 . S
C128 C130 1.384 . S
C129 C128 1.377 . S
C129 C135 1.390 . S
C130 H121 0.930 . S
C130 C128 1.384 . S
C130 C131 1.372 . S
C131 C130 1.372 . S
C131 C132 1.400 1_554 S
C131 C136 1.490 . S
C132 H122 0.930 . S
C132 C131 1.400 1_556 S
C132 C135 1.386 1_556 S
H133 C149 0.930 . S
H134 C150 0.931 . S
C135 H123 0.929 1_554 S
C135 C129 1.390 . S
C135 C132 1.386 1_554 S
C136 C131 1.490 . S
C136 C138 1.395 . S
C136 C139 1.403 1_554 S
H137 C143 0.930 . S
C138 H124 0.930 . S
C138 C136 1.395 . S
C138 C141 1.403 . S
C139 C136 1.403 1_556 S
C139 C140 1.524 . S
C139 C143 1.400 . S
C140 H125 0.960 . S
C140 H126 0.960 . S
C140 H127 0.960 . S
C140 C139 1.524 . S
C141 C138 1.403 . S
C141 C142 1.392 1_554 S
C141 C145 1.495 . S
C142 C141 1.392 1_556 S
C142 C143 1.385 . S
C142 C144 1.478 . S
C143 H137 0.930 . S
C143 C139 1.400 . S
C143 C142 1.385 . S
C144 C142 1.478 . S
C144 C146 1.381 . S
C144 C150 1.383 . S
C145 C141 1.495 . S
C145 H151 0.959 . S
C145 H152 0.961 . S
C145 H153 0.960 . S
C146 C144 1.381 . S
C146 C147 1.394 . S
C146 H154 0.930 1_556 S
C147 C146 1.394 . S
C147 C148 1.383 . S
C147 H155 0.929 . S
C148 C147 1.383 . S
C148 C149 1.377 . S
C149 H133 0.930 . S
C149 C148 1.377 . S
C149 C150 1.379 . S
C150 H134 0.931 . S
C150 C144 1.383 . S
C150 C149 1.379 . S
H151 C145 0.959 . S
H152 C145 0.961 . S
H153 C145 0.960 . S
H154 C146 0.930 1_554 S
H155 C147 0.929 . S
H156 C164 0.929 . S
H157 C166 0.930 . S
H158 C168 0.930 . S
H159 C171 0.929 . S
H160 C174 0.930 . S
H161 C176 0.960 . S
H162 C176 0.960 . S
H163 C176 0.960 . S
C164 H156 0.929 . S
C164 C165 1.377 . S
C164 C166 1.384 . S
C165 C164 1.377 . S
C165 C171 1.390 . S
C166 H157 0.930 . S
C166 C164 1.384 . S
C166 C167 1.372 . S
C167 C166 1.372 . S
C167 C168 1.400 . S
C167 C172 1.490 . S
C168 H158 0.930 . S
C168 C167 1.400 . S
C168 C171 1.386 . S
H169 C185 0.930 . S
H170 C186 0.931 . S
C171 H159 0.929 . S
C171 C165 1.390 . S
C171 C168 1.386 . S
C172 C167 1.490 . S
C172 C174 1.395 . S
C172 C175 1.403 . S
H173 C179 0.930 . S
C174 H160 0.930 . S
C174 C172 1.395 . S
C174 C177 1.403 . S
C175 C172 1.403 . S
C175 C176 1.524 . S
C175 C179 1.400 . S
C176 H161 0.960 . S
C176 H162 0.960 . S
C176 H163 0.960 . S
C176 C175 1.524 . S
C177 C174 1.403 . S
C177 C178 1.392 . S
C177 C181 1.495 . S
C178 C177 1.392 . S
C178 C179 1.385 . S
C178 C180 1.478 . S
C179 H173 0.930 . S
C179 C175 1.400 . S
C179 C178 1.385 . S
C180 C178 1.478 . S
C180 C182 1.381 . S
C180 C186 1.383 . S
C181 C177 1.495 . S
C181 H187 0.959 . S
C181 H188 0.961 . S
C181 H189 0.960 . S
C182 C180 1.381 . S
C182 C183 1.394 . S
C182 H190 0.930 . S
C183 C182 1.394 . S
C183 C184 1.383 . S
C183 H191 0.929 . S
C184 C183 1.383 . S
C184 C185 1.377 . S
C185 H169 0.930 . S
C185 C184 1.377 . S
C185 C186 1.379 . S
C186 H170 0.931 . S
C186 C180 1.383 . S
C186 C185 1.379 . S
H187 C181 0.959 . S
H188 C181 0.961 . S
H189 C181 0.960 . S
H190 C182 0.930 . S
H191 C183 0.929 . S
H192 C200 0.929 . S
H193 C202 0.930 . S
H194 C204 0.930 . S
H195 C207 0.929 . S
H196 C210 0.930 . S
H197 C212 0.960 . S
H198 C212 0.960 . S
H199 C212 0.960 . S
C200 H192 0.929 . S
C200 C201 1.377 . S
C200 C202 1.384 . S
C201 C200 1.377 . S
C201 C207 1.390 . S
C202 H193 0.930 . S
C202 C200 1.384 . S
C202 C203 1.372 . S
C203 C202 1.372 . S
C203 C204 1.400 . S
C203 C208 1.490 . S
C204 H194 0.930 . S
C204 C203 1.400 . S
C204 C207 1.386 . S
H205 C221 0.930 . S
H206 C222 0.931 . S
C207 H195 0.929 . S
C207 C201 1.390 . S
C207 C204 1.386 . S
C208 C203 1.490 . S
C208 C210 1.395 . S
C208 C211 1.403 . S
H209 C215 0.930 . S
C210 H196 0.930 . S
C210 C208 1.395 . S
C210 C213 1.403 . S
C211 C208 1.403 . S
C211 C212 1.524 . S
C211 C215 1.400 . S
C212 H197 0.960 . S
C212 H198 0.960 . S
C212 H199 0.960 . S
C212 C211 1.524 . S
C213 C210 1.403 . S
C213 C214 1.392 . S
C213 C217 1.495 . S
C214 C213 1.392 . S
C214 C215 1.385 . S
C214 C216 1.478 . S
C215 H209 0.930 . S
C215 C211 1.400 . S
C215 C214 1.385 . S
C216 C214 1.478 . S
C216 C218 1.381 . S
C216 C222 1.383 . S
C217 C213 1.495 . S
C217 H223 0.959 . S
C217 H224 0.961 . S
C217 H225 0.960 . S
C218 C216 1.381 . S
C218 C219 1.394 . S
C218 H226 0.930 . S
C219 C218 1.394 . S
C219 C220 1.383 . S
C219 H227 0.929 . S
C220 C219 1.383 . S
C220 C221 1.377 . S
C221 H205 0.930 . S
C221 C220 1.377 . S
C221 C222 1.379 . S
C222 H206 0.931 . S
C222 C216 1.383 . S
C222 C221 1.379 . S
H223 C217 0.959 . S
H224 C217 0.961 . S
H225 C217 0.960 . S
H226 C218 0.930 . S
H227 C219 0.929 . S
H228 C236 0.929 . S
H229 C238 0.930 . S
H230 C240 0.930 . S
H231 C243 0.929 . S
H232 C246 0.930 . S
H233 C248 0.960 . S
H234 C248 0.960 . S
H235 C248 0.960 . S
C236 H228 0.929 . S
C236 C237 1.377 . S
C236 C238 1.384 . S
C237 C236 1.377 . S
C237 C243 1.390 . S
C238 H229 0.930 . S
C238 C236 1.384 . S
C238 C239 1.372 . S
C239 C238 1.372 . S
C239 C240 1.400 . S
C239 C244 1.490 . S
C240 H230 0.930 . S
C240 C239 1.400 . S
C240 C243 1.386 . S
H241 C257 0.930 . S
H242 C258 0.931 . S
C243 H231 0.929 . S
C243 C237 1.390 . S
C243 C240 1.386 . S
C244 C239 1.490 . S
C244 C246 1.395 . S
C244 C247 1.403 1_556 S
H245 C251 0.930 . S
C246 H232 0.930 . S
C246 C244 1.395 . S
C246 C249 1.403 . S
C247 C244 1.403 1_554 S
C247 C248 1.524 . S
C247 C251 1.400 . S
C248 H233 0.960 . S
C248 H234 0.960 . S
C248 H235 0.960 . S
C248 C247 1.524 . S
C249 C246 1.403 . S
C249 C250 1.392 1_556 S
C249 C253 1.495 . S
C250 C249 1.392 1_554 S
C250 C251 1.385 . S
C250 C252 1.478 . S
C251 H245 0.930 . S
C251 C247 1.400 . S
C251 C250 1.385 . S
C252 C250 1.478 . S
C252 C254 1.381 . S
C252 C258 1.383 . S
C253 C249 1.495 . S
C253 H259 0.959 . S
C253 H260 0.961 . S
C253 H261 0.960 1_556 S
C254 C252 1.381 . S
C254 C255 1.394 . S
C254 H262 0.930 . S
C255 C254 1.394 . S
C255 C256 1.383 . S
C255 H263 0.929 . S
C256 C255 1.383 . S
C256 C257 1.377 . S
C257 H241 0.930 . S
C257 C256 1.377 . S
C257 C258 1.379 . S
C258 H242 0.931 . S
C258 C252 1.383 . S
C258 C257 1.379 . S
H259 C253 0.959 . S
H260 C253 0.961 . S
H261 C253 0.960 1_554 S
H262 C254 0.930 . S
H263 C255 0.929 . S
H264 C272 0.929 . S
H265 C274 0.930 . S
H266 C276 0.930 . S
H267 C279 0.929 . S
H268 C282 0.930 . S
H269 C284 0.960 . S
H270 C284 0.960 . S
H271 C284 0.960 . S
C272 H264 0.929 . S
C272 C273 1.377 . S
C272 C274 1.384 . S
C273 C272 1.377 . S
C273 C279 1.390 . S
C274 H265 0.930 . S
C274 C272 1.384 . S
C274 C275 1.372 . S
C275 C274 1.372 . S
C275 C276 1.400 . S
C275 C280 1.490 . S
C276 H266 0.930 . S
C276 C275 1.400 . S
C276 C279 1.386 . S
H277 C293 0.930 . S
H278 C294 0.931 . S
C279 H267 0.929 . S
C279 C273 1.390 . S
C279 C276 1.386 . S
C280 C275 1.490 . S
C280 C282 1.395 . S
C280 C283 1.403 . S
H281 C287 0.930 . S
C282 H268 0.930 . S
C282 C280 1.395 . S
C282 C285 1.403 . S
C283 C280 1.403 . S
C283 C284 1.524 . S
C283 C287 1.400 . S
C284 H269 0.960 . S
C284 H270 0.960 . S
C284 H271 0.960 . S
C284 C283 1.524 . S
C285 C282 1.403 . S
C285 C286 1.392 . S
C285 C289 1.495 . S
C286 C285 1.392 . S
C286 C287 1.385 . S
C286 C288 1.478 . S
C287 H281 0.930 . S
C287 C283 1.400 . S
C287 C286 1.385 . S
C288 C286 1.478 . S
C288 C290 1.381 . S
C288 C294 1.383 . S
C289 C285 1.495 . S
C289 H295 0.959 . S
C289 H296 0.961 . S
C289 H297 0.960 . S
C290 C288 1.381 . S
C290 C291 1.394 . S
C290 H298 0.930 . S
C291 C290 1.394 . S
C291 C292 1.383 . S
C291 H299 0.929 . S
C292 C291 1.383 . S
C292 C293 1.377 . S
C293 H277 0.930 . S
C293 C292 1.377 . S
C293 C294 1.379 . S
C294 H278 0.931 . S
C294 C288 1.383 . S
C294 C293 1.379 . S
H295 C289 0.959 . S
H296 C289 0.961 . S
H297 C289 0.960 . S
H298 C290 0.930 . S
H299 C291 0.929 . S
H300 C308 0.929 . S
H301 C310 0.930 . S
H302 C312 0.930 . S
H303 C315 0.929 . S
H304 C318 0.930 . S
H305 C320 0.960 . S
H306 C320 0.960 . S
H307 C320 0.960 . S
C308 H300 0.929 . S
C308 C309 1.377 . S
C308 C310 1.384 . S
C309 C308 1.377 . S
C309 C315 1.390 . S
C310 H301 0.930 . S
C310 C308 1.384 . S
C310 C311 1.372 . S
C311 C310 1.372 . S
C311 C312 1.400 . S
C311 C316 1.490 . S
C312 H302 0.930 . S
C312 C311 1.400 . S
C312 C315 1.386 . S
H313 C329 0.930 . S
H314 C330 0.931 . S
C315 H303 0.929 . S
C315 C309 1.390 . S
C315 C312 1.386 . S
C316 C311 1.490 . S
C316 C318 1.395 . S
C316 C319 1.403 . S
H317 C323 0.930 . S
C318 H304 0.930 . S
C318 C316 1.395 . S
C318 C321 1.403 . S
C319 C316 1.403 . S
C319 C320 1.524 . S
C319 C323 1.400 . S
C320 H305 0.960 . S
C320 H306 0.960 . S
C320 H307 0.960 . S
C320 C319 1.524 . S
C321 C318 1.403 . S
C321 C322 1.392 . S
C321 C325 1.495 . S
C322 C321 1.392 . S
C322 C323 1.385 . S
C322 C324 1.478 . S
C323 H317 0.930 . S
C323 C319 1.400 . S
C323 C322 1.385 . S
C324 C322 1.478 . S
C324 C326 1.381 . S
C324 C330 1.383 . S
C325 C321 1.495 . S
C325 H331 0.959 . S
C325 H332 0.961 . S
C325 H333 0.960 . S
C326 C324 1.381 . S
C326 C327 1.394 . S
C326 H334 0.930 . S
C327 C326 1.394 . S
C327 C328 1.383 . S
C327 H335 0.929 . S
C328 C327 1.383 . S
C328 C329 1.377 . S
C329 H313 0.930 . S
C329 C328 1.377 . S
C329 C330 1.379 . S
C330 H314 0.931 . S
C330 C324 1.383 . S
C330 C329 1.379 . S
H331 C325 0.959 . S
H332 C325 0.961 . S
H333 C325 0.960 . S
H334 C326 0.930 . S
H335 C327 0.929 . S
H336 C344 0.929 1_655 S
H337 C346 0.930 1_655 S
H338 C348 0.930 . S
H339 C351 0.929 . S
H340 C354 0.930 . S
H341 C356 0.960 . S
H342 C356 0.960 . S
H343 C356 0.960 . S
C344 H336 0.929 1_455 S
C344 C345 1.377 . S
C344 C346 1.384 . S
C345 C344 1.377 . S
C345 C351 1.390 . S
C346 H337 0.930 1_455 S
C346 C344 1.384 . S
C346 C347 1.372 . S
C347 C346 1.372 . S
C347 C348 1.400 . S
C347 C352 1.490 . S
C348 H338 0.930 . S
C348 C347 1.400 . S
C348 C351 1.386 . S
H349 C365 0.930 . S
H350 C366 0.931 . S
C351 H339 0.929 . S
C351 C345 1.390 . S
C351 C348 1.386 . S
C352 C347 1.490 . S
C352 C354 1.395 1_455 S
C352 C355 1.403 . S
H353 C359 0.930 . S
C354 H340 0.930 . S
C354 C352 1.395 1_655 S
C354 C357 1.403 . S
C355 C352 1.403 . S
C355 C356 1.524 . S
C355 C359 1.400 . S
C356 H341 0.960 . S
C356 H342 0.960 . S
C356 H343 0.960 . S
C356 C355 1.524 . S
C357 C354 1.403 . S
C357 C358 1.392 1_655 S
C357 C361 1.495 . S
C358 C357 1.392 1_455 S
C358 C359 1.385 . S
C358 C360 1.478 . S
C359 H353 0.930 . S
C359 C355 1.400 . S
C359 C358 1.385 . S
C360 C358 1.478 . S
C360 C362 1.382 1_455 S
C360 C366 1.383 . S
C361 C357 1.495 . S
C361 H367 0.959 . S
C361 H368 0.961 . S
C361 H369 0.960 . S
C362 C360 1.382 1_655 S
C362 C363 1.393 1_655 S
C362 H370 0.929 . S
C363 C362 1.393 1_455 S
C363 C364 1.400 . S
C363 H371 0.916 1_455 S
C364 C363 1.400 . S
C364 C365 1.377 . S
C365 H349 0.930 . S
C365 C364 1.377 . S
C365 C366 1.379 . S
C366 H350 0.931 . S
C366 C360 1.383 . S
C366 C365 1.379 . S
H367 C361 0.959 . S
H368 C361 0.961 . S
H369 C361 0.960 . S
H370 C362 0.929 . S
H371 C363 0.916 1_655 S
H372 C380 0.929 . S
H373 C382 0.930 . S
H374 C384 0.930 . S
H375 C387 0.929 . S
H376 C390 0.930 . S
H377 C392 0.960 . S
H378 C392 0.960 1_565 S
H379 C392 0.960 . S
C380 H372 0.929 . S
C380 C381 1.377 1_565 S
C380 C382 1.384 . S
C381 C380 1.377 1_545 S
C381 C387 1.390 . S
C382 H373 0.930 . S
C382 C380 1.384 . S
C382 C383 1.372 1_565 S
C383 C382 1.372 1_545 S
C383 C384 1.400 . S
C383 C388 1.490 . S
C384 H374 0.930 . S
C384 C383 1.400 . S
C384 C387 1.386 . S
H385 C401 0.930 . S
H386 C402 0.931 . S
C387 H375 0.929 . S
C387 C381 1.390 . S
C387 C384 1.386 . S
C388 C383 1.490 . S
C388 C390 1.395 . S
C388 C391 1.403 . S
H389 C395 0.930 . S
C390 H376 0.930 . S
C390 C388 1.395 . S
C390 C393 1.403 1_554 S
C391 C388 1.403 . S
C391 C392 1.524 . S
C391 C395 1.400 1_554 S
C392 H377 0.960 . S
C392 H378 0.960 1_545 S
C392 H379 0.960 . S
C392 C391 1.524 . S
C393 C390 1.403 1_556 S
C393 C394 1.392 . S
C393 C397 1.495 . S
C394 C393 1.392 . S
C394 C395 1.385 . S
C394 C396 1.478 . S
C395 H389 0.930 . S
C395 C391 1.400 1_556 S
C395 C394 1.385 . S
C396 C394 1.478 . S
C396 C398 1.381 1_545 S
C396 C402 1.383 . S
C397 C393 1.495 . S
C397 H403 0.959 . S
C397 H404 0.961 . S
C397 H405 0.960 1_545 S
C398 C396 1.381 1_565 S
C398 C399 1.394 . S
C398 H406 0.930 . S
C399 C398 1.394 . S
C399 C400 1.383 1_565 S
C399 H407 0.929 . S
C400 C399 1.383 1_545 S
C400 C401 1.377 . S
C401 H385 0.930 . S
C401 C400 1.377 . S
C401 C402 1.379 . S
C402 H386 0.931 . S
C402 C396 1.383 . S
C402 C401 1.379 . S
H403 C397 0.959 . S
H404 C397 0.961 . S
H405 C397 0.960 1_565 S
H406 C398 0.930 . S
H407 C399 0.929 . S
H408 C416 0.929 . S
H409 C418 0.930 . S
H410 C420 0.930 . S
H411 C423 0.929 . S
H412 C426 0.930 . S
H413 C428 0.960 . S
H414 C428 0.960 . S
H415 C428 0.960 . S
C416 H408 0.929 . S
C416 C417 1.377 . S
C416 C418 1.384 . S
C417 C416 1.377 . S
C417 C423 1.390 . S
C418 H409 0.930 . S
C418 C416 1.384 . S
C418 C419 1.372 . S
C419 C418 1.372 . S
C419 C420 1.400 . S
C419 C424 1.490 . S
C420 H410 0.930 . S
C420 C419 1.400 . S
C420 C423 1.386 . S
H421 C437 0.935 . S
H422 C438 0.931 . S
C423 H411 0.929 . S
C423 C417 1.390 . S
C423 C420 1.386 . S
C424 C419 1.490 . S
C424 C426 1.395 . S
C424 C427 1.403 . S
H425 C431 0.930 . S
C426 H412 0.930 . S
C426 C424 1.395 . S
C426 C429 1.403 . S
C427 C424 1.403 . S
C427 C428 1.524 . S
C427 C431 1.400 . S
C428 H413 0.960 . S
C428 H414 0.960 . S
C428 H415 0.960 . S
C428 C427 1.524 . S
C429 C426 1.403 . S
C429 C430 1.392 . S
C429 C433 1.495 . S
C430 C429 1.392 . S
C430 C431 1.385 . S
C430 C432 1.478 . S
C431 H425 0.930 . S
C431 C427 1.400 . S
C431 C430 1.385 . S
C432 C430 1.478 . S
C432 C434 1.381 . S
C432 C438 1.383 . S
C433 C429 1.495 . S
C433 H439 0.959 . S
C433 H440 0.961 . S
C433 H441 0.960 . S
C434 C432 1.381 . S
C434 C435 1.394 . S
C434 H442 0.930 . S
C435 C434 1.394 . S
C435 C436 1.383 1_554 S
C435 H443 0.929 . S
C436 C435 1.383 1_556 S
C436 C437 1.377 1_556 S
C437 H421 0.935 . S
C437 C436 1.377 1_554 S
C437 C438 1.379 . S
C438 H422 0.931 . S
C438 C432 1.383 . S
C438 C437 1.379 . S
H439 C433 0.959 . S
H440 C433 0.961 . S
H441 C433 0.960 . S
H442 C434 0.930 . S
H443 C435 0.929 . S
C129 C10 2.542 . S
C148 C86 2.404 . S
C165 C55 1.699 . S
C184 C15 1.691 . S
C201 C50 3.111 . S
C220 C90 3.069 . S
C237 C95 2.228 . S
C256 C19 2.182 . S
C273 C46 1.399 . S
C292 C6 1.433 . S
C309 C99 2.702 . S
C328 C59 2.733 . S
C345 C18 0.363 . S
C364 C9 0.411 . S
C381 C49 0.378 . S
C400 C58 0.466 . S
C417 C98 0.396 . S
C436 C89 0.425 . S
