# Generated by pormake.
# Topology uoj, (4)-cn, num edge types: 1
# Building blocks:
#     Node 0, Type 0, BuildingBlock: ICAMEG_clean_sbu_1, # of connection points: 4
#     Node 1, Type 0, BuildingBlock: ICAMEG_clean_sbu_1, # of connection points: 4
#     Node 2, Type 0, BuildingBlock: ICAMEG_clean_sbu_1, # of connection points: 4
#     Node 3, Type 0, BuildingBlock: ICAMEG_clean_sbu_1, # of connection points: 4
#     Node 4, Type 0, BuildingBlock: ICAMEG_clean_sbu_1, # of connection points: 4
#     Node 5, Type 0, BuildingBlock: ICAMEG_clean_sbu_1, # of connection points: 4
#     Node 6, Type 0, BuildingBlock: ICAMEG_clean_sbu_1, # of connection points: 4
#     Node 7, Type 0, BuildingBlock: ICAMEG_clean_sbu_1, # of connection points: 4
#     Edge 8, Type (0, 0), BuildingBlock: CIFDUS_clean_linker_0, # of connection points: 2
#     Edge 9, Type (0, 0), BuildingBlock: CIFDUS_clean_linker_0, # of connection points: 2
#     Edge 10, Type (0, 0), BuildingBlock: CIFDUS_clean_linker_0, # of connection points: 2
#     Edge 11, Type (0, 0), BuildingBlock: CIFDUS_clean_linker_0, # of connection points: 2
#     Edge 12, Type (0, 0), BuildingBlock: CIFDUS_clean_linker_0, # of connection points: 2
#     Edge 13, Type (0, 0), BuildingBlock: CIFDUS_clean_linker_0, # of connection points: 2
#     Edge 14, Type (0, 0), BuildingBlock: CIFDUS_clean_linker_0, # of connection points: 2
#     Edge 15, Type (0, 0), BuildingBlock: CIFDUS_clean_linker_0, # of connection points: 2
#     Edge 16, Type (0, 0), BuildingBlock: CIFDUS_clean_linker_0, # of connection points: 2
#     Edge 17, Type (0, 0), BuildingBlock: CIFDUS_clean_linker_0, # of connection points: 2
#     Edge 18, Type (0, 0), BuildingBlock: CIFDUS_clean_linker_0, # of connection points: 2
#     Edge 19, Type (0, 0), BuildingBlock: CIFDUS_clean_linker_0, # of connection points: 2
#     Edge 20, Type (0, 0), BuildingBlock: CIFDUS_clean_linker_0, # of connection points: 2
#     Edge 21, Type (0, 0), BuildingBlock: CIFDUS_clean_linker_0, # of connection points: 2
#     Edge 22, Type (0, 0), BuildingBlock: CIFDUS_clean_linker_0, # of connection points: 2
#     Edge 23, Type (0, 0), BuildingBlock: CIFDUS_clean_linker_0, # of connection points: 2
# Relax obj value: 0.081
# Max RMSD: 0.090
# Mean RMSD: 0.090
data_MOF--net-uoj--node1-ICAMEG_clean_sbu_1--edge1-CIFDUS_clean_linker_0
_symmetry_space_group_name_H-M    P1
_symmetry_Int_Tables_number       1
_symmetry_cell_setting            triclinic
loop_
_symmetry_equiv_pos_as_xyz
'x, y, z'
_cell_length_a     32.350318
_cell_length_b     32.428451
_cell_length_c     29.553832
_cell_angle_alpha  90.093753
_cell_angle_beta   90.051493
_cell_angle_gamma 89.97093
loop_
_atom_site_label
_atom_site_type_symbol
_atom_site_fract_x
_atom_site_fract_y
_atom_site_fract_z
_atom_type_partial_charge
Co0 Co 0.00435 0.31074 0.39866 0.0
Co1 Co 0.09424 0.30848 0.45903 0.0
O2 O 0.04158 0.28318 0.44138 0.0
C3 C 0.94787 0.2804 0.47166 0.0
O4 O 0.97554 0.28969 0.50253 0.0
C5 C 0.12224 0.22377 0.43471 0.0
O6 O 0.10327 0.22737 0.3956 0.0
O7 O 0.11129 0.3116 0.39449 0.0
O8 O 0.05195 0.3344 0.36461 0.0
H9 H 0.20997 0.41121 0.4472 0.0
H10 H 0.99638 0.22093 0.41469 0.0
O11 O 0.95495 0.28739 0.43007 0.0
H12 H 0.02233 0.23495 0.25104 0.0
H13 H 0.87836 0.32231 0.29902 0.0
H14 H 1.00137 0.39428 0.35804 0.0
H15 H 0.01766 0.29652 0.29981 0.0
H16 H 0.92696 0.28661 0.35003 0.0
O17 O 0.12019 0.25265 0.46388 0.0
H18 H 0.14315 0.37983 0.42644 0.0
H19 H 0.15861 0.28862 0.52802 0.0
H20 H 0.95376 0.43099 0.30689 0.0
H21 H 1.00044 0.15852 0.36705 0.0
H22 H 0.89148 0.39513 0.27744 0.0
H23 H 0.01361 0.16533 0.28461 0.0
O24 O 0.00288 0.36049 0.43818 0.0
H25 H 0.03735 0.23739 0.59641 0.0
H26 H 0.09242 0.36804 0.53626 0.0
H27 H 0.07003 0.3645 0.61589 0.0
H28 H 0.04238 0.29877 0.64649 0.0
H29 H 0.05959 0.24246 0.51678 0.0
H30 H 0.22578 0.31876 0.5496 0.0
H31 H 0.25178 0.38063 0.5092 0.0
O32 O 0.07022 0.36551 0.45488 0.0
C33 C 0.09066 0.32746 0.36219 0.0
C34 C 0.19891 0.38434 0.46516 0.0
C35 C 0.2078 0.33242 0.5226 0.0
N36 N 0.1468 0.33267 0.47625 0.0
C37 C 0.16103 0.36651 0.45364 0.0
C38 C 0.16978 0.31544 0.51016 0.0
C39 C 0.22237 0.36714 0.49992 0.0
C40 C 1.00174 0.22414 0.37878 0.0
N41 N 0.00652 0.26233 0.36005 0.0
C42 C 0.00417 0.1887 0.352 0.0
C43 C 0.01161 0.19253 0.30576 0.0
C44 C 0.01652 0.23158 0.2869 0.0
C45 C 0.01392 0.26634 0.31472 0.0
C46 C 0.90534 0.3383 0.31175 0.0
C47 C 0.97459 0.37828 0.345 0.0
C48 C 0.93293 0.31827 0.34072 0.0
N49 N 0.96707 0.33828 0.35694 0.0
C50 C 0.94768 0.39928 0.31612 0.0
C51 C 0.91277 0.37912 0.29954 0.0
C52 C 0.03417 0.38124 0.45139 0.0
C53 C 0.04944 0.26618 0.5835 0.0
C54 C 0.08013 0.33941 0.54921 0.0
C55 C 0.06766 0.33755 0.59439 0.0
C56 C 0.0522 0.30065 0.61156 0.0
N57 N 0.07732 0.30546 0.5219 0.0
C58 C 0.06224 0.26918 0.5385 0.0
Co59 Co 0.29965 0.99442 0.60827 0.0
Co60 Co 0.32087 0.91071 0.53929 0.0
O61 O 0.2851 0.95554 0.56027 0.0
C62 C 0.27059 0.04753 0.53131 0.0
O63 O 0.28527 0.02124 0.50161 0.0
C64 C 0.24395 0.86858 0.56727 0.0
O65 O 0.24639 0.88963 0.60516 0.0
O66 O 0.33228 0.89244 0.60229 0.0
O67 O 0.32427 0.94917 0.64535 0.0
H68 H 0.44895 0.82295 0.53722 0.0
H69 H 0.21364 0.98842 0.57409 0.0
O70 O 0.27457 0.04103 0.57354 0.0
H71 H 0.20438 0.96101 0.73782 0.0
H72 H 0.27546 0.1174 0.70898 0.0
H73 H 0.37379 0.00801 0.66554 0.0
H74 H 0.27143 0.97739 0.70251 0.0
H75 H 0.25637 0.06535 0.65184 0.0
O76 O 0.27154 0.8731 0.53684 0.0
H77 H 0.40429 0.87975 0.5636 0.0
H78 H 0.31133 0.84498 0.46948 0.0
H79 H 0.39406 0.05935 0.72323 0.0
H80 H 0.14586 0.97264 0.60802 0.0
H81 H 0.34476 0.11491 0.74473 0.0
H82 H 0.14096 0.95859 0.69043 0.0
O83 O 0.35434 0.00554 0.57943 0.0
H84 H 0.23066 0.95294 0.40877 0.0
H85 H 0.37398 0.92916 0.45943 0.0
H86 H 0.36095 0.95239 0.38128 0.0
H87 H 0.28884 0.96433 0.35547 0.0
H88 H 0.24511 0.93024 0.48681 0.0
H89 H 0.35482 0.78755 0.4423 0.0
H90 H 0.42424 0.77636 0.47612 0.0
O91 O 0.37075 0.94736 0.54188 0.0
C92 C 0.33392 0.91133 0.6401 0.0
C93 C 0.41881 0.82758 0.52211 0.0
C94 C 0.36596 0.80768 0.46889 0.0
N95 N 0.35541 0.86586 0.51788 0.0
C96 C 0.39344 0.85976 0.53684 0.0
C97 C 0.34144 0.84019 0.48448 0.0
C98 C 0.40491 0.80143 0.48787 0.0
C99 C 0.21171 0.98265 0.61002 0.0
N100 N 0.2465 0.98365 0.63627 0.0
C101 C 0.17326 0.9736 0.62903 0.0
C102 C 0.17055 0.96567 0.67526 0.0
C103 C 0.20612 0.96697 0.70185 0.0
C104 C 0.24404 0.97606 0.68165 0.0
C105 C 0.29718 0.09342 0.69979 0.0
C106 C 0.35204 0.03174 0.67528 0.0
C107 C 0.28658 0.06389 0.66739 0.0
N108 N 0.31391 0.03357 0.65549 0.0
C109 C 0.36373 0.06079 0.70782 0.0
C110 C 0.33609 0.0919 0.71995 0.0
C111 C 0.37959 0.98332 0.55676 0.0
C112 C 0.2622 0.94774 0.41958 0.0
C113 C 0.34254 0.93455 0.44855 0.0
C114 C 0.33534 0.94755 0.4042 0.0
C115 C 0.29487 0.95419 0.38972 0.0
N116 N 0.31033 0.92828 0.47763 0.0
C117 C 0.27056 0.93468 0.46367 0.0
Co118 Co 0.00652 0.69398 0.40319 0.0
Co119 Co 0.91714 0.69357 0.46442 0.0
O120 O 0.96957 0.7195 0.4476 0.0
C121 C 0.06315 0.72167 0.47766 0.0
O122 O 0.03565 0.71083 0.508 0.0
C123 C 0.88071 0.77714 0.44518 0.0
O124 O 0.88721 0.77239 0.40164 0.0
O125 O 0.89949 0.69264 0.39988 0.0
O126 O 0.95869 0.67184 0.36804 0.0
H127 H 0.80103 0.59163 0.44873 0.0
H128 H 0.01413 0.78298 0.4245 0.0
O129 O 0.0561 0.71608 0.43574 0.0
H130 H 0.98762 0.77643 0.26031 0.0
H131 H 0.13066 0.68818 0.30043 0.0
H132 H 0.00928 0.61251 0.35743 0.0
H133 H 0.99264 0.71272 0.30536 0.0
H134 H 0.08354 0.7205 0.35565 0.0
O135 O 0.89194 0.74954 0.47329 0.0
H136 H 0.86772 0.62359 0.42886 0.0
H137 H 0.8534 0.71112 0.53479 0.0
H138 H 0.05538 0.5792 0.30194 0.0
H139 H 0.00968 0.84748 0.38063 0.0
H140 H 0.11659 0.61709 0.27304 0.0
H141 H 0.99627 0.84444 0.29792 0.0
O142 O 0.00823 0.6424 0.43977 0.0
H143 H 0.9758 0.75829 0.60513 0.0
H144 H 0.91939 0.63077 0.53818 0.0
H145 H 0.94248 0.63069 0.61771 0.0
H146 H 0.9708 0.69483 0.65174 0.0
H147 H 0.95291 0.75686 0.52552 0.0
H148 H 0.78638 0.68031 0.55556 0.0
H149 H 0.75987 0.62 0.51251 0.0
O150 O 0.94099 0.6368 0.45689 0.0
C151 C 0.91984 0.67826 0.36649 0.0
C152 C 0.81232 0.61779 0.46786 0.0
C153 C 0.80408 0.6676 0.52777 0.0
N154 N 0.86466 0.6689 0.48092 0.0
C155 C 0.85013 0.63594 0.45685 0.0
C156 C 0.84203 0.68495 0.5158 0.0
C157 C 0.78923 0.63375 0.50362 0.0
C158 C 0.00862 0.7814 0.38847 0.0
N159 N 0.00397 0.74411 0.3675 0.0
C160 C 0.00599 0.81802 0.36383 0.0
C161 C 0.99842 0.8163 0.31743 0.0
C162 C 0.99355 0.77816 0.29631 0.0
C163 C 0.99636 0.74218 0.32203 0.0
C164 C 0.10407 0.67136 0.31274 0.0
C165 C 0.03576 0.62929 0.34493 0.0
C166 C 0.07734 0.68946 0.34413 0.0
N167 N 0.04353 0.66851 0.35961 0.0
C168 C 0.0618 0.61022 0.31355 0.0
C169 C 0.09615 0.63149 0.29736 0.0
C170 C 0.97703 0.62123 0.45238 0.0
C171 C 0.96342 0.73018 0.59072 0.0
C172 C 0.93198 0.65873 0.55261 0.0
C173 C 0.94484 0.65854 0.59774 0.0
C174 C 0.96068 0.69454 0.61683 0.0
N175 N 0.93477 0.69381 0.52721 0.0
C176 C 0.95023 0.72923 0.54572 0.0
Co177 Co 0.70234 0.01097 0.58974 0.0
Co178 Co 0.68292 0.0993 0.52954 0.0
O179 O 0.71769 0.05224 0.54506 0.0
C180 C 0.72808 0.96198 0.50931 0.0
O181 O 0.7045 0.98545 0.48392 0.0
C182 C 0.76276 0.13635 0.55499 0.0
O183 O 0.76028 0.11408 0.59193 0.0
O184 O 0.67733 0.11481 0.59414 0.0
O185 O 0.67581 0.05355 0.62926 0.0
H186 H 0.56051 0.1938 0.54424 0.0
H187 H 0.78959 0.0174 0.5597 0.0
O188 O 0.7294 0.9675 0.55194 0.0
H189 H 0.79297 0.04046 0.72463 0.0
H190 H 0.7264 0.88418 0.68421 0.0
H191 H 0.62702 0.99342 0.64357 0.0
H192 H 0.7271 0.02601 0.68573 0.0
H193 H 0.74536 0.93814 0.62935 0.0
O194 O 0.73405 0.13439 0.52537 0.0
H195 H 0.60371 0.13357 0.56336 0.0
H196 H 0.69089 0.16748 0.46277 0.0
H197 H 0.6069 0.94023 0.69898 0.0
H198 H 0.8562 0.03135 0.59734 0.0
H199 H 0.65682 0.88505 0.71946 0.0
H200 H 0.85815 0.04317 0.68037 0.0
O201 O 0.6487 0.0015 0.55836 0.0
H202 H 0.76115 0.0569 0.39023 0.0
H203 H 0.62351 0.08795 0.45333 0.0
H204 H 0.62971 0.06708 0.37332 0.0
H205 H 0.69894 0.05146 0.34126 0.0
H206 H 0.75348 0.07751 0.47017 0.0
H207 H 0.64885 0.22832 0.4428 0.0
H208 H 0.58305 0.24167 0.48354 0.0
O209 O 0.63112 0.06497 0.53434 0.0
C210 C 0.67163 0.09268 0.62913 0.0
C211 C 0.58902 0.18821 0.5261 0.0
C212 C 0.63864 0.20762 0.4692 0.0
N213 N 0.64948 0.14677 0.51381 0.0
C214 C 0.61351 0.15407 0.53665 0.0
C215 C 0.66233 0.17317 0.48069 0.0
C216 C 0.60171 0.21509 0.49207 0.0
C217 C 0.79023 0.02204 0.59592 0.0
N218 N 0.75449 0.02069 0.62049 0.0
C219 C 0.82803 0.03012 0.61701 0.0
C220 C 0.82909 0.03682 0.66359 0.0
C221 C 0.79253 0.03534 0.68843 0.0
C222 C 0.75529 0.02723 0.66619 0.0
C223 C 0.70442 0.90808 0.67555 0.0
C224 C 0.64896 0.96966 0.65259 0.0
C225 C 0.71494 0.93866 0.64442 0.0
N226 N 0.6874 0.96904 0.63349 0.0
C227 C 0.63736 0.93957 0.68388 0.0
C228 C 0.66536 0.90862 0.69537 0.0
C229 C 0.62241 0.02727 0.54283 0.0
C230 C 0.73083 0.06375 0.40377 0.0
C231 C 0.65371 0.08105 0.43966 0.0
C232 C 0.65705 0.06936 0.39431 0.0
C233 C 0.6959 0.06064 0.37633 0.0
N234 N 0.68813 0.08408 0.46632 0.0
C235 C 0.72632 0.0756 0.44895 0.0
Co236 Co 0.49311 0.80674 0.91533 0.0
Co237 Co 0.40525 0.81701 0.98078 0.0
O238 O 0.45494 0.78689 0.96195 0.0
C239 C 0.54802 0.77859 0.99194 0.0
O240 O 0.5188 0.78536 0.02176 0.0
C241 C 0.36926 0.73502 0.95726 0.0
O242 O 0.3859 0.7373 0.91683 0.0
O243 O 0.38652 0.82313 0.91694 0.0
O244 O 0.44589 0.82681 0.87776 0.0
H245 H 0.30066 0.93154 0.9747 0.0
H246 H 0.49477 0.72015 0.94749 0.0
O247 O 0.54217 0.78644 0.95023 0.0
H248 H 0.47482 0.7109 0.78239 0.0
H249 H 0.61842 0.79929 0.81431 0.0
H250 H 0.49809 0.88279 0.86029 0.0
H251 H 0.48266 0.77848 0.81974 0.0
H252 H 0.56983 0.77354 0.87197 0.0
O253 O 0.37449 0.7639 0.98593 0.0
H254 H 0.36343 0.89394 0.95147 0.0
H255 H 0.34049 0.80222 0.05072 0.0
H256 H 0.54569 0.90949 0.80216 0.0
H257 H 0.48764 0.65188 0.91156 0.0
H258 H 0.60634 0.86765 0.77889 0.0
H259 H 0.4774 0.64693 0.82843 0.0
O260 O 0.4975 0.86171 0.9458 0.0
H261 H 0.45579 0.7391 0.11697 0.0
H262 H 0.41581 0.87558 0.05795 0.0
H263 H 0.43892 0.86916 0.13713 0.0
H264 H 0.45895 0.80051 0.1672 0.0
H265 H 0.43323 0.747 0.03775 0.0
H266 H 0.2773 0.83867 0.07482 0.0
H267 H 0.25709 0.90392 0.03682 0.0
O268 O 0.4346 0.87077 0.97626 0.0
C269 C 0.40666 0.82953 0.88056 0.0
C270 C 0.30918 0.9032 0.9916 0.0
C271 C 0.29605 0.85105 0.04775 0.0
N272 N 0.35577 0.84606 -0.00013 0.0
C273 C 0.34474 0.88181 0.97865 0.0
C274 C 0.33183 0.83049 0.03388 0.0
C275 C 0.28474 0.88766 0.02643 0.0
C276 C 0.49053 0.71829 0.91128 0.0
N277 N 0.48887 0.75336 0.88577 0.0
C278 C 0.48643 0.67952 0.89113 0.0
C279 C 0.48064 0.67676 0.8445 0.0
C280 C 0.47913 0.71264 0.81867 0.0
C281 C 0.4833 0.75087 0.84001 0.0
C282 C 0.59204 0.81778 0.82416 0.0
C283 C 0.52428 0.86426 0.85011 0.0
C284 C 0.56449 0.80343 0.8569 0.0
N285 N 0.53098 0.82653 0.8693 0.0
C286 C 0.55119 0.87961 0.81728 0.0
C287 C 0.58525 0.85613 0.80426 0.0
C288 C 0.47014 0.88414 0.96499 0.0
C289 C 0.44707 0.76917 0.10429 0.0
C290 C 0.4249 0.84566 0.07059 0.0
C291 C 0.43774 0.84218 0.11556 0.0
C292 C 0.44891 0.80364 0.13243 0.0
N293 N 0.42324 0.8117 0.04317 0.0
C294 C 0.43405 0.7738 0.05952 0.0
Co295 Co 0.81451 0.60188 0.03681 0.0
Co296 Co 0.81443 0.5084 0.08942 0.0
O297 O 0.78671 0.55009 0.05223 0.0
C298 C 0.73275 0.63154 0.06963 0.0
O299 O 0.73736 0.60842 0.10573 0.0
C300 C 0.77395 0.4592 0.0153 0.0
O301 O 0.78116 0.48851 0.9858 0.0
O302 O 0.86091 0.50611 0.04554 0.0
O303 O 0.86999 0.57374 0.03406 0.0
H304 H 0.93701 0.4431 0.16565 0.0
H305 H 0.74225 0.5761 0.982 0.0
O306 O 0.76029 0.63165 0.03885 0.0
H307 H 0.85804 0.58575 0.87414 0.0
H308 H 0.82808 0.73846 0.95734 0.0
H309 H 0.89171 0.64295 0.06684 0.0
H310 H 0.86857 0.60168 0.95494 0.0
H311 H 0.79457 0.67225 0.9756 0.0
O312 O 0.7853 0.46313 0.05632 0.0
H313 H 0.90041 0.49672 0.12223 0.0
H314 H 0.78789 0.43009 0.13388 0.0
H315 H 0.92647 0.70865 0.04926 0.0
H316 H 0.73021 0.56045 0.90134 0.0
H317 H 0.89461 0.75694 0.99416 0.0
H318 H 0.78841 0.5651 0.84683 0.0
O319 O 0.82323 0.61405 0.1021 0.0
H320 H 0.66472 0.51222 0.13422 0.0
H321 H 0.8084 0.51651 0.18993 0.0
H322 H 0.75088 0.522 0.2443 0.0
H323 H 0.67841 0.51976 0.21653 0.0
H324 H 0.72319 0.50725 0.08097 0.0
H325 H 0.82339 0.37562 0.17723 0.0
H326 H 0.89855 0.38177 0.19303 0.0
O327 O 0.84446 0.55163 0.12478 0.0
C328 C 0.88313 0.53656 0.03319 0.0
C329 C 0.90426 0.44003 0.1589 0.0
C330 C 0.8405 0.40214 0.16535 0.0
N331 N 0.84202 0.46662 0.12553 0.0
C332 C 0.88332 0.47036 0.1344 0.0
C333 C 0.82059 0.43306 0.14071 0.0
C334 C 0.88265 0.40566 0.1743 0.0
C335 C 0.76763 0.57856 0.9584 0.0
N336 N 0.80603 0.58981 0.97316 0.0
C337 C 0.76067 0.5695 0.91281 0.0
C338 C 0.79336 0.57204 0.88226 0.0
C339 C 0.83244 0.58357 0.89757 0.0
C340 C 0.83826 0.59238 0.94341 0.0
C341 C 0.84231 0.71764 0.98134 0.0
C342 C 0.87778 0.66367 0.04261 0.0
C343 C 0.82343 0.68014 0.99189 0.0
N344 N 0.84133 0.65361 0.02201 0.0
C345 C 0.89755 0.70089 0.03289 0.0
C346 C 0.87964 0.72799 0.002 0.0
C347 C 0.84066 0.59036 0.1306 0.0
C348 C 0.69615 0.51309 0.14675 0.0
C349 C 0.77696 0.51563 0.17755 0.0
C350 C 0.74451 0.51867 0.20852 0.0
C351 C 0.70386 0.51738 0.19292 0.0
N352 N 0.76914 0.51134 0.13231 0.0
C353 C 0.72938 0.51011 0.11677 0.0
Co354 Co 0.50828 0.18698 0.91003 0.0
Co355 Co 0.60119 0.19192 0.96387 0.0
O356 O 0.54804 0.21711 0.94767 0.0
C357 C 0.45621 0.22508 0.9831 0.0
O358 O 0.48566 0.21916 0.01293 0.0
C359 C 0.62694 0.27563 0.93343 0.0
O360 O 0.60466 0.27076 0.89665 0.0
O361 O 0.61455 0.18489 0.89879 0.0
O362 O 0.55375 0.15931 0.87549 0.0
H363 H 0.71522 0.08727 0.95094 0.0
H364 H 0.50211 0.27787 0.91742 0.0
O365 O 0.46094 0.21382 0.94216 0.0
H366 H 0.51931 0.24941 0.75455 0.0
H367 H 0.37602 0.16829 0.82201 0.0
H368 H 0.5026 0.10057 0.87779 0.0
H369 H 0.51663 0.19239 0.80955 0.0
H370 H 0.42834 0.20798 0.86453 0.0
O371 O 0.62786 0.24755 0.96352 0.0
H372 H 0.64761 0.11821 0.93278 0.0
H373 H 0.66931 0.21457 0.02734 0.0
H374 H 0.45126 0.05991 0.83541 0.0
H375 H 0.50417 0.33584 0.86351 0.0
H376 H 0.3872 0.09352 0.80786 0.0
H377 H 0.51293 0.32176 0.78143 0.0
O378 O 0.50825 0.14114 0.95441 0.0
H379 H 0.55325 0.27142 0.10013 0.0
H380 H 0.60276 0.13669 0.04462 0.0
H381 H 0.58516 0.14498 0.12529 0.0
H382 H 0.56035 0.21278 0.15356 0.0
H383 H 0.57062 0.26159 0.01957 0.0
H384 H 0.73737 0.1849 0.04622 0.0
H385 H 0.76065 0.12068 0.00802 0.0
O386 O 0.57646 0.13494 0.96472 0.0
C387 C 0.59223 0.16589 0.8701 0.0
C388 C 0.70536 0.11517 0.96794 0.0
C389 C 0.71781 0.16999 0.02137 0.0
N390 N 0.65433 0.16795 0.97927 0.0
C391 C 0.66703 0.13277 0.95791 0.0
C392 C 0.67927 0.1867 0.01048 0.0
C393 C 0.73085 0.13395 -6e-05 0.0
C394 C 0.50552 0.2715 0.88171 0.0
N395 N 0.50898 0.23181 0.86665 0.0
C396 C 0.50683 0.30444 0.85136 0.0
C397 C 0.51181 0.29652 0.80532 0.0
C398 C 0.51541 0.25594 0.79022 0.0
C399 C 0.51395 0.22379 0.82155 0.0
C400 C 0.40379 0.15325 0.83406 0.0
C401 C 0.47505 0.11567 0.86546 0.0
C402 C 0.43349 0.17554 0.85821 0.0
N403 N 0.46852 0.15664 0.87372 0.0
C404 C 0.44603 0.09242 0.84152 0.0
C405 C 0.41011 0.11136 0.82595 0.0
C406 C 0.53994 0.12004 0.96543 0.0
C407 C 0.5641 0.24174 0.08824 0.0
C408 C 0.59162 0.16619 0.05656 0.0
C409 C 0.58189 0.17075 0.10233 0.0
C410 C 0.56803 0.20881 0.11818 0.0
N411 N 0.5877 0.19864 0.02741 0.0
C412 C 0.57416 0.23605 0.0427 0.0
Co413 Co 0.18675 0.39802 0.03015 0.0
Co414 Co 0.1898 0.49375 0.07748 0.0
O415 O 0.21539 0.45009 0.04141 0.0
C416 C 0.26964 0.37024 0.06111 0.0
O417 O 0.26585 0.39489 0.09616 0.0
C418 C 0.22492 0.53863 0.99799 0.0
O419 O 0.20994 0.51056 0.97044 0.0
O420 O 0.14143 0.49454 0.03592 0.0
O421 O 0.13142 0.42651 0.02822 0.0
H422 H 0.07232 0.56391 0.1581 0.0
H423 H 0.25686 0.42149 0.97114 0.0
O424 O 0.24098 0.3682 0.03158 0.0
H425 H 0.13733 0.40642 0.86878 0.0
H426 H 0.16984 0.2577 0.95934 0.0
H427 H 0.11036 0.35912 0.06541 0.0
H428 H 0.12983 0.3941 0.95069 0.0
H429 H 0.20427 0.32451 0.97244 0.0
O430 O 0.21858 0.53622 0.04038 0.0
H431 H 0.10555 0.50858 0.11389 0.0
H432 H 0.21948 0.5736 0.1161 0.0
H433 H 0.07472 0.29285 0.05301 0.0
H434 H 0.26585 0.43367 0.88936 0.0
H435 H 0.10448 0.24158 -0.00035 0.0
H436 H 0.20577 0.42624 0.8376 0.0
O437 O 0.18027 0.38917 0.09636 0.0
H438 H 0.34123 0.49028 0.11533 0.0
H439 H 0.19996 0.49015 0.1779 0.0
H440 H 0.25961 0.48659 0.22972 0.0
H441 H 0.33088 0.48676 0.1985 0.0
H442 H 0.28069 0.49334 0.06468 0.0
H443 H 0.18738 0.6298 0.16009 0.0
H444 H 0.11331 0.62508 0.18154 0.0
O445 O 0.16067 0.4529 0.11648 0.0
C446 C 0.11847 0.46374 0.02626 0.0
C447 C 0.10464 0.5663 0.14903 0.0
C448 C 0.1692 0.60329 0.15009 0.0
N449 N 0.16448 0.53774 0.11251 0.0
C450 C 0.12367 0.53501 0.12404 0.0
C451 C 0.18718 0.57143 0.12504 0.0
C452 C 0.12765 0.60062 0.16214 0.0
C453 C 0.23067 0.41785 0.94876 0.0
N454 N 0.19293 0.40697 0.96564 0.0
C455 C 0.2359 0.42494 0.90252 0.0
C456 C 0.20216 0.42083 0.87351 0.0
C457 C 0.16375 0.40975 0.89099 0.0
C458 C 0.15966 0.40295 0.93742 0.0
C459 C 0.15652 0.27982 0.9826 0.0
C460 C 0.12336 0.33709 0.04191 0.0
C461 C 0.17592 0.31767 0.99022 0.0
N462 N 0.15916 0.34582 0.01938 0.0
C463 C 0.1031 0.29957 0.03513 0.0
C464 C 0.11984 0.2708 0.00522 0.0
C465 C 0.16405 0.41442 0.12417 0.0
C466 C 0.31033 0.49033 0.12935 0.0
C467 C 0.23086 0.49007 0.16401 0.0
C468 C 0.26453 0.48816 0.19355 0.0
C469 C 0.3045 0.48829 0.17601 0.0
N470 N 0.23683 0.49215 0.11828 0.0
C471 C 0.27593 0.49223 0.10084 0.0
H472 H 0.19521 0.35869 0.18432 0.0
H473 H 0.09026 0.43703 0.15714 0.0
H474 H 0.05876 0.41707 0.22863 0.0
H475 H 0.06152 0.3793 0.29886 0.0
H476 H 0.16662 0.3024 0.33016 0.0
H477 H 0.1981 0.32039 0.25725 0.0
C478 C 0.16526 0.37084 0.19408 0.0
C479 C 0.14483 0.39902 0.16574 0.0
C480 C 0.14774 0.36002 0.23598 0.0
C481 C 0.10642 0.41531 0.17868 0.0
C482 C 0.08847 0.40401 0.21948 0.0
C483 C 0.09131 0.36627 0.28991 0.0
C484 C 0.11162 0.33941 0.31981 0.0
C485 C 0.10901 0.37675 0.24847 0.0
C486 C 0.15044 0.32332 0.30776 0.0
C487 C 0.1683 0.33341 0.26601 0.0
H488 H 0.30498 0.91652 0.72599 0.0
H489 H 0.39595 0.85486 0.64355 0.0
H490 H 0.42531 0.82228 0.71087 0.0
H491 H 0.42783 0.81541 0.79326 0.0
H492 H 0.33475 0.87377 0.87579 0.0
H493 H 0.30305 0.90352 0.8081 0.0
C494 C 0.33114 0.89589 0.72283 0.0
C495 C 0.34878 0.88862 0.68009 0.0
C496 C 0.34738 0.87682 0.76156 0.0
C497 C 0.38199 0.86099 0.67616 0.0
C498 C 0.39884 0.8425 0.71462 0.0
C499 C 0.40045 0.8343 0.7965 0.0
C500 C 0.3841 0.84285 0.83958 0.0
C501 C 0.3822 0.85079 0.75751 0.0
C502 C 0.34806 0.86684 0.84306 0.0
C503 C 0.33004 0.88399 0.80439 0.0
H504 H 0.95141 0.63497 0.29663 0.0
H505 H 0.83986 0.69615 0.34065 0.0
H506 H 0.80595 0.67724 0.26926 0.0
H507 H 0.80792 0.64116 0.19479 0.0
H508 H 0.91925 0.57744 0.15527 0.0
H509 H 0.95371 0.60015 0.2244 0.0
C510 C 0.91969 0.64445 0.29084 0.0
C511 C 0.89825 0.66701 0.32403 0.0
C512 C 0.90051 0.63321 0.25032 0.0
C513 C 0.85705 0.67862 0.31574 0.0
C514 C 0.83772 0.66794 0.27488 0.0
C515 C 0.83988 0.63295 0.20131 0.0
C516 C 0.86136 0.60811 0.17021 0.0
C517 C 0.85914 0.64509 0.24194 0.0
C518 C 0.90241 0.59671 0.17895 0.0
C519 C 0.92201 0.60954 0.21841 0.0
H520 H 0.62452 0.20421 0.79724 0.0
H521 H 0.60055 0.08472 0.85493 0.0
H522 H 0.62445 0.05111 0.78547 0.0
H523 H 0.64844 0.05599 0.70754 0.0
H524 H 0.66902 0.17557 0.6474 0.0
H525 H 0.64993 0.20898 0.71851 0.0
C526 C 0.62544 0.17084 0.79459 0.0
C527 C 0.6117 0.14667 0.83082 0.0
C528 C 0.63795 0.15189 0.75408 0.0
C529 C 0.61168 0.10357 0.82724 0.0
C530 C 0.62504 0.08448 0.7876 0.0
C531 C 0.64895 0.08937 0.70987 0.0
C532 C 0.66007 0.11317 0.67206 0.0
C533 C 0.63763 0.10836 0.75059 0.0
C534 C 0.66037 0.15643 0.67586 0.0
C535 C 0.64959 0.17561 0.71657 0.0
H536 H 0.22908 0.06026 0.45151 0.0
H537 H 0.25851 0.11733 0.57968 0.0
H538 H 0.21515 0.17611 0.56103 0.0
H539 H 0.16761 0.21055 0.51015 0.0
H540 H 0.13622 0.15517 0.38176 0.0
H541 H 0.18131 0.0964 0.39886 0.0
C542 C 0.2263 0.08582 0.47502 0.0
C543 C 0.24698 0.08435 0.51695 0.0
C544 C 0.20064 0.11961 0.46434 0.0
C545 C 0.24278 0.11751 0.54731 0.0
C546 C 0.21793 0.15119 0.53673 0.0
C547 C 0.17046 0.18571 0.48574 0.0
C548 C 0.1484 0.18731 0.44476 0.0
C549 C 0.19639 0.15234 0.49567 0.0
C550 C 0.15272 0.15471 0.41366 0.0
C551 C 0.1786 0.12115 0.42337 0.0
H552 H 0.2305 0.81984 0.49383 0.0
H553 H 0.17755 0.85407 0.62254 0.0
H554 H 0.11814 0.80942 0.60787 0.0
H555 H 0.07959 0.76276 0.55671 0.0
H556 H 0.1328 0.73056 0.42746 0.0
H557 H 0.19364 0.77193 0.44437 0.0
C558 C 0.20609 0.81748 0.51883 0.0
C559 C 0.20854 0.84042 0.55917 0.0
C560 C 0.17192 0.79199 0.51009 0.0
C561 C 0.17655 0.83681 0.59115 0.0
C562 C 0.14249 0.81126 0.58279 0.0
C563 C 0.10475 0.76441 0.53255 0.0
C564 C 0.1015 0.74364 0.49084 0.0
C565 C 0.13965 0.78892 0.54218 0.0
C566 C 0.13428 0.74639 0.45972 0.0
C567 C 0.16916 0.77011 0.46931 0.0
H568 H 0.78217 0.91238 0.55307 0.0
H569 H 0.73497 0.93962 0.41975 0.0
H570 H 0.77996 0.88639 0.38739 0.0
H571 H 0.83147 0.83056 0.39766 0.0
H572 H 0.87675 0.80405 0.53206 0.0
H573 H 0.83395 0.85889 0.56308 0.0
C574 C 0.78153 0.90679 0.51688 0.0
C575 C 0.75492 0.92982 0.48896 0.0
C576 C 0.80734 0.87633 0.49863 0.0
C577 C 0.75493 0.92219 0.44211 0.0
C578 C 0.78074 0.89181 0.42357 0.0
C579 C 0.83229 0.83713 0.43364 0.0
C580 C 0.85729 0.81312 0.46245 0.0
C581 C 0.80698 0.86853 0.45156 0.0
C582 C 0.85773 0.82186 0.50907 0.0
C583 C 0.83318 0.85321 0.52693 0.0
H584 H 0.77753 0.18689 0.48345 0.0
H585 H 0.83009 0.14617 0.61005 0.0
H586 H 0.89086 0.18921 0.59721 0.0
H587 H 0.93056 0.2366 0.54841 0.0
H588 H 0.87792 0.27549 0.42115 0.0
H589 H 0.81587 0.23537 0.43613 0.0
C590 C 0.80219 0.18748 0.50835 0.0
C591 C 0.79919 0.16322 0.54757 0.0
C592 C 0.83719 0.21211 0.50068 0.0
C593 C 0.8315 0.16449 0.57947 0.0
C594 C 0.86634 0.18913 0.57219 0.0
C595 C 0.90528 0.23666 0.52428 0.0
C596 C 0.909 0.25895 0.4837 0.0
C597 C 0.86969 0.21289 0.53275 0.0
C598 C 0.87606 0.25842 0.45256 0.0
C599 C 0.84049 0.23544 0.46103 0.0
H600 H 0.25665 0.60088 0.04744 0.0
H601 H 0.25264 0.55323 0.91107 0.0
H602 H 0.29801 0.60942 0.88598 0.0
H603 H 0.33896 0.67246 0.90361 0.0
H604 H 0.34106 0.71763 0.04133 0.0
H605 H 0.29644 0.66169 0.06489 0.0
C606 C 0.26549 0.60255 0.01211 0.0
C607 C 0.25113 0.57283 0.9812 0.0
C608 C 0.29146 0.6345 0.99816 0.0
C609 C 0.26309 0.5758 0.93559 0.0
C610 C 0.28914 0.60784 0.92128 0.0
C611 C 0.32976 0.66988 0.93876 0.0
C612 C 0.34336 0.6994 0.97053 0.0
C613 C 0.30361 0.6374 0.95237 0.0
C614 C 0.33103 0.69563 0.01598 0.0
C615 C 0.30544 0.66359 0.02963 0.0
H616 H 0.7195 0.68846 0.00436 0.0
H617 H 0.66296 0.63492 0.12269 0.0
H618 H 0.60168 0.6782 0.11144 0.0
H619 H 0.56284 0.72918 0.0654 0.0
H620 H 0.62065 0.78064 0.94658 0.0
H621 H 0.68284 0.74055 0.96102 0.0
C622 C 0.69388 0.68616 0.02786 0.0
C623 C 0.69579 0.65821 0.06414 0.0
C624 C 0.65892 0.71095 0.02116 0.0
C625 C 0.66231 0.65607 0.09436 0.0
C626 C 0.62725 0.68084 0.08796 0.0
C627 C 0.58932 0.73203 0.04314 0.0
C628 C 0.58702 0.7578 0.00489 0.0
C629 C 0.62504 0.7082 0.0512 0.0
C630 C 0.62145 0.76088 0.9761 0.0
C631 C 0.65707 0.7379 0.98425 0.0
H632 H 0.72278 0.4463 0.94224 0.0
H633 H 0.77412 0.38662 0.0602 0.0
H634 H 0.7336 0.32523 0.0448 0.0
H635 H 0.68234 0.28907 0.00019 0.0
H636 H 0.62923 0.34647 0.88203 0.0
H637 H 0.67163 0.40806 0.8952 0.0
C638 C 0.72532 0.41967 0.96422 0.0
C639 C 0.7513 0.42125 0.00249 0.0
C640 C 0.70142 0.38416 0.95542 0.0
C641 C 0.75411 0.38653 0.03079 0.0
C642 C 0.73095 0.35129 0.02204 0.0
C643 C 0.67985 0.31496 0.97717 0.0
C644 C 0.65242 0.31315 0.94031 0.0
C645 C 0.70418 0.34996 0.98487 0.0
C646 C 0.65003 0.34703 0.91076 0.0
C647 C 0.67429 0.38226 0.91827 0.0
H648 H 0.44187 0.27672 0.05512 0.0
H649 H 0.38337 0.22226 0.938 0.0
H650 H 0.32076 0.26151 0.95258 0.0
H651 H 0.28338 0.31303 0.99607 0.0
H652 H 0.34044 0.3695 0.11275 0.0
H653 H 0.40267 0.32777 0.10086 0.0
C654 C 0.41523 0.27317 0.03316 0.0
C655 C 0.41746 0.24671 0.9954 0.0
C656 C 0.37913 0.29641 0.04139 0.0
C657 C 0.38273 0.24264 0.96707 0.0
C658 C 0.34681 0.26508 0.97535 0.0
C659 C 0.30932 0.31629 0.01907 0.0
C660 C 0.30721 0.34454 0.05514 0.0
C661 C 0.34486 0.29243 0.01197 0.0
C662 C 0.34119 0.34805 0.08464 0.0
C663 C 0.37681 0.32418 0.07785 0.0
H664 H 0.04804 0.57555 0.45873 0.0
H665 H 0.91502 0.5644 0.45747 0.0
H666 H 0.92069 0.48966 0.45893 0.0
H667 H 0.96319 0.42693 0.45621 0.0
H668 H 0.09617 0.43785 0.46067 0.0
H669 H 0.09051 0.51265 0.46271 0.0
C670 C 0.02029 0.5568 0.45916 0.0
C671 C 0.98123 0.57584 0.4576 0.0
C672 C 0.02364 0.51352 0.46045 0.0
C673 C 0.9456 0.55087 0.45857 0.0
C674 C 0.94873 0.50793 0.45929 0.0
C675 C 0.99094 0.44562 0.4581 0.0
C676 C 0.03 0.42652 0.45788 0.0
C677 C 0.98758 0.48887 0.45959 0.0
C678 C 0.0656 0.45144 0.46067 0.0
C679 C 0.06247 0.4944 0.4617 0.0
H680 H 0.5526 0.07409 0.54808 0.0
H681 H 0.59432 0.94903 0.52783 0.0
H682 H 0.5227 0.92503 0.52663 0.0
H683 H 0.44861 0.93886 0.53598 0.0
H684 H 0.40709 0.06309 0.56245 0.0
H685 H 0.47814 0.08808 0.55629 0.0
C686 C 0.54602 0.04167 0.54274 0.0
C687 C 0.57887 0.01344 0.53782 0.0
C688 C 0.50475 0.02787 0.54352 0.0
C689 C 0.5697 0.97142 0.53171 0.0
C690 C 0.52873 0.95766 0.53108 0.0
C691 C 0.45492 0.97148 0.53996 0.0
C692 C 0.42233 0.999 0.54964 0.0
C693 C 0.49603 0.9855 0.53766 0.0
C694 C 0.43143 0.04114 0.55509 0.0
C695 C 0.47212 0.05548 0.55159 0.0
H696 H 0.46956 0.07783 0.98523 0.0
H697 H 0.59955 0.06063 0.95844 0.0
H698 H 0.59009 0.98606 0.95724 0.0
H699 H 0.54384 0.9256 0.95833 0.0
H700 H 0.41434 0.94354 0.98822 0.0
H701 H 0.42488 0.01743 0.99367 0.0
C702 C 0.49593 0.05776 0.97974 0.0
C703 C 0.53509 0.07494 0.9717 0.0
C704 C 0.49037 0.01481 0.97918 0.0
C705 C 0.569 0.04839 0.96492 0.0
C706 C 0.56361 0.00563 0.96391 0.0
C707 C 0.51801 0.94562 0.96639 0.0
C708 C 0.47829 0.92875 0.97223 0.0
C709 C 0.52426 0.98847 0.97011 0.0
C710 C 0.44528 0.95534 0.98318 0.0
C711 C 0.45119 0.99782 0.98633 0.0
H712 H 0.07761 0.53728 0.01782 0.0
H713 H 0.05766 0.40558 0.01843 0.0
H714 H 0.98322 0.41632 0.01765 0.0
H715 H 0.92353 0.46292 0.02343 0.0
H716 H 0.94343 0.5946 0.02115 0.0
H717 H 0.0177 0.58382 0.01555 0.0
C718 C 0.05706 0.51087 0.01711 0.0
C719 C 0.07353 0.4707 0.01871 0.0
C720 C 0.01401 0.51718 0.01668 0.0
C721 C 0.04616 0.43693 0.01747 0.0
C722 C 0.0034 0.44299 0.01717 0.0
C723 C 0.94401 0.48929 0.02108 0.0
C724 C 0.92764 0.52949 0.02323 0.0
C725 C 0.98695 0.48297 0.01781 0.0
C726 C 0.95487 0.56324 0.01981 0.0
C727 C 0.99754 0.55715 0.01673 0.0
loop_
_geom_bond_atom_site_label_1
_geom_bond_atom_site_label_2
_geom_bond_distance
_geom_bond_site_symmetry_2
_ccdc_geom_bond_type
Co0 O2 2.143 . S
Co0 O8 2.074 . S
Co0 O11 2.093 1_455 S
Co0 O24 2.097 . S
Co0 N41 2.151 . S
Co0 N49 2.214 1_455 S
Co1 O2 2.160 . S
Co1 O7 2.058 . S
Co1 O17 2.057 . S
Co1 O32 2.037 . S
Co1 N36 2.145 . S
Co1 N57 2.257 . S
O2 Co0 2.143 . S
O2 Co1 2.160 . S
C3 O4 1.286 . S
C3 O11 1.224 . S
O4 C3 1.286 . S
C5 O6 1.245 . S
C5 O17 1.232 . S
O6 C5 1.245 . S
O7 Co1 2.058 . S
O7 C33 1.269 . S
O8 Co0 2.074 . S
O8 C33 1.257 . S
H9 C34 0.930 . S
H10 C40 0.930 1_655 S
O11 Co0 2.093 1_655 S
O11 C3 1.224 . S
H12 C44 0.929 . S
H13 C46 0.930 . S
H14 C47 0.915 1_455 S
H15 C45 0.929 . S
H16 C48 0.928 . S
O17 Co1 2.057 . S
O17 C5 1.232 . S
H18 C37 0.929 . S
H19 C38 0.929 . S
H20 C50 0.931 . S
H21 C42 0.929 . S
H22 C51 0.930 . S
H23 C43 0.931 . S
O24 Co0 2.097 . S
O24 C52 1.214 . S
H25 C53 0.929 . S
H26 C54 0.929 . S
H27 C55 0.930 . S
H28 C56 0.929 . S
H29 C58 0.930 . S
H30 C35 0.930 . S
H31 C39 0.930 . S
O32 Co1 2.037 . S
O32 C52 1.234 . S
C33 O7 1.269 . S
C33 O8 1.257 . S
C34 H9 0.930 . S
C34 C37 1.388 . S
C34 C39 1.418 . S
C35 H30 0.930 . S
C35 C38 1.404 . S
C35 C39 1.353 . S
N36 Co1 2.145 . S
N36 C37 1.397 . S
N36 C38 1.334 . S
C37 H18 0.929 . S
C37 C34 1.388 . S
C37 N36 1.397 . S
C38 H19 0.929 . S
C38 C35 1.404 . S
C38 N36 1.334 . S
C39 H31 0.930 . S
C39 C34 1.418 . S
C39 C35 1.353 . S
C40 H10 0.930 1_455 S
C40 N41 1.330 . S
C40 C42 1.446 1_455 S
N41 Co0 2.151 . S
N41 C40 1.330 . S
N41 C45 1.418 . S
C42 H21 0.929 . S
C42 C40 1.446 1_655 S
C42 C43 1.332 . S
C43 H23 0.931 . S
C43 C42 1.332 . S
C43 C44 1.267 1_655 S
C44 H12 0.929 . S
C44 C43 1.267 1_455 S
C44 C45 1.251 . S
C45 H15 0.929 . S
C45 N41 1.418 . S
C45 C44 1.251 . S
C46 H13 0.930 . S
C46 C48 1.406 . S
C46 C51 1.261 . S
C47 H14 0.915 1_655 S
C47 N49 1.325 . S
C47 C50 1.357 . S
C48 H16 0.928 . S
C48 C46 1.406 . S
C48 N49 1.261 . S
N49 Co0 2.214 1_655 S
N49 C47 1.325 . S
N49 C48 1.261 . S
C50 H20 0.931 . S
C50 C47 1.357 . S
C50 C51 1.312 . S
C51 H22 0.930 . S
C51 C46 1.261 . S
C51 C50 1.312 . S
C52 O24 1.214 . S
C52 O32 1.234 . S
C53 H25 0.929 . S
C53 C56 1.391 . S
C53 C58 1.391 . S
C54 H26 0.929 . S
C54 C55 1.390 . S
C54 N57 1.391 . S
C55 H27 0.930 . S
C55 C54 1.390 . S
C55 C56 1.392 . S
C56 H28 0.929 . S
C56 C53 1.391 . S
C56 C55 1.392 . S
N57 Co1 2.257 . S
N57 C54 1.391 . S
N57 C58 1.388 . S
C58 H29 0.930 . S
C58 C53 1.391 . S
C58 N57 1.388 . S
Co59 O61 2.143 . S
Co59 O67 2.074 . S
Co59 O70 2.093 1_565 S
Co59 O83 2.097 . S
Co59 N100 2.151 . S
Co59 N108 2.214 1_565 S
Co60 O61 2.160 . S
Co60 O66 2.058 . S
Co60 O76 2.057 . S
Co60 O91 2.037 . S
Co60 N95 2.145 . S
Co60 N116 2.257 . S
O61 Co59 2.143 . S
O61 Co60 2.160 . S
C62 O63 1.278 . S
C62 O70 1.224 . S
O63 C62 1.278 . S
C64 O65 1.245 . S
C64 O76 1.232 . S
O65 C64 1.245 . S
O66 Co60 2.058 . S
O66 C92 1.269 . S
O67 Co59 2.074 . S
O67 C92 1.257 . S
H68 C93 0.930 . S
H69 C99 0.930 1_545 S
O70 Co59 2.093 1_545 S
O70 C62 1.224 . S
H71 C103 0.929 . S
H72 C105 0.930 . S
H73 C106 0.930 1_565 S
H74 C104 0.929 . S
H75 C107 0.928 . S
O76 Co60 2.057 . S
O76 C64 1.232 . S
H77 C96 0.929 . S
H78 C97 0.929 . S
H79 C109 0.931 . S
H80 C101 0.929 . S
H81 C110 0.930 . S
H82 C102 0.931 . S
O83 Co59 2.097 . S
O83 C111 1.214 . S
H84 C112 0.929 . S
H85 C113 0.929 . S
H86 C114 0.930 . S
H87 C115 0.929 . S
H88 C117 0.930 . S
H89 C94 0.930 . S
H90 C98 0.930 . S
O91 Co60 2.037 . S
O91 C111 1.234 . S
C92 O66 1.269 . S
C92 O67 1.257 . S
C93 H68 0.930 . S
C93 C96 1.388 . S
C93 C98 1.418 . S
C94 H89 0.930 . S
C94 C97 1.404 . S
C94 C98 1.353 . S
N95 Co60 2.145 . S
N95 C96 1.397 . S
N95 C97 1.334 . S
C96 H77 0.929 . S
C96 C93 1.388 . S
C96 N95 1.397 . S
C97 H78 0.929 . S
C97 C94 1.404 . S
C97 N95 1.334 . S
C98 H90 0.930 . S
C98 C93 1.418 . S
C98 C94 1.353 . S
C99 H69 0.930 1_565 S
C99 N100 1.330 . S
C99 C101 1.446 1_565 S
N100 Co59 2.151 . S
N100 C99 1.330 . S
N100 C104 1.418 . S
C101 H80 0.929 . S
C101 C99 1.446 1_545 S
C101 C102 1.332 . S
C102 H82 0.931 . S
C102 C101 1.332 . S
C102 C103 1.267 1_545 S
C103 H71 0.929 . S
C103 C102 1.267 1_565 S
C103 C104 1.251 . S
C104 H74 0.929 . S
C104 N100 1.418 . S
C104 C103 1.251 . S
C105 H72 0.930 . S
C105 C107 1.406 . S
C105 C110 1.261 . S
C106 H73 0.930 1_545 S
C106 N108 1.325 . S
C106 C109 1.357 . S
C107 H75 0.928 . S
C107 C105 1.406 . S
C107 N108 1.261 . S
N108 Co59 2.214 1_545 S
N108 C106 1.325 . S
N108 C107 1.261 . S
C109 H79 0.931 . S
C109 C106 1.357 . S
C109 C110 1.312 . S
C110 H81 0.930 . S
C110 C105 1.261 . S
C110 C109 1.312 . S
C111 O83 1.214 . S
C111 O91 1.234 . S
C112 H84 0.929 . S
C112 C115 1.391 . S
C112 C117 1.391 . S
C113 H85 0.929 . S
C113 C114 1.390 . S
C113 N116 1.391 . S
C114 H86 0.930 . S
C114 C113 1.390 . S
C114 C115 1.392 . S
C115 H87 0.929 . S
C115 C112 1.391 . S
C115 C114 1.392 . S
N116 Co60 2.257 . S
N116 C113 1.391 . S
N116 C117 1.388 . S
C117 H88 0.930 . S
C117 C112 1.391 . S
C117 N116 1.388 . S
Co118 O120 2.143 . S
Co118 O126 2.074 . S
Co118 O129 2.093 1_655 S
Co118 O142 2.097 . S
Co118 N159 2.151 . S
Co118 N167 2.214 1_655 S
Co119 O120 2.160 . S
Co119 O125 2.058 . S
Co119 O135 2.057 . S
Co119 O150 2.037 . S
Co119 N154 2.145 . S
Co119 N175 2.257 . S
O120 Co118 2.143 . S
O120 Co119 2.160 . S
C121 O122 1.286 . S
C121 O129 1.224 . S
O122 C121 1.286 . S
C123 O124 1.245 . S
C123 O135 1.232 . S
O124 C123 1.245 . S
O125 Co119 2.058 . S
O125 C151 1.269 . S
O126 Co118 2.074 . S
O126 C151 1.257 . S
H127 C152 0.930 . S
H128 C158 0.930 1_455 S
O129 Co118 2.093 1_455 S
O129 C121 1.224 . S
H130 C162 0.929 . S
H131 C164 0.930 . S
H132 C165 0.915 1_655 S
H133 C163 0.929 . S
H134 C166 0.928 . S
O135 Co119 2.057 . S
O135 C123 1.232 . S
H136 C155 0.929 . S
H137 C156 0.929 . S
H138 C168 0.931 . S
H139 C160 0.929 . S
H140 C169 0.930 . S
H141 C161 0.931 . S
O142 Co118 2.097 . S
O142 C170 1.214 . S
H143 C171 0.929 . S
H144 C172 0.929 . S
H145 C173 0.930 . S
H146 C174 0.929 . S
H147 C176 0.930 . S
H148 C153 0.930 . S
H149 C157 0.930 . S
O150 Co119 2.037 . S
O150 C170 1.234 . S
C151 O125 1.269 . S
C151 O126 1.257 . S
C152 H127 0.930 . S
C152 C155 1.388 . S
C152 C157 1.418 . S
C153 H148 0.930 . S
C153 C156 1.404 . S
C153 C157 1.353 . S
N154 Co119 2.145 . S
N154 C155 1.397 . S
N154 C156 1.334 . S
C155 H136 0.929 . S
C155 C152 1.388 . S
C155 N154 1.397 . S
C156 H137 0.929 . S
C156 C153 1.404 . S
C156 N154 1.334 . S
C157 H149 0.930 . S
C157 C152 1.418 . S
C157 C153 1.353 . S
C158 H128 0.930 1_655 S
C158 N159 1.330 . S
C158 C160 1.446 1_655 S
N159 Co118 2.151 . S
N159 C158 1.330 . S
N159 C163 1.418 . S
C160 H139 0.929 . S
C160 C158 1.446 1_455 S
C160 C161 1.332 . S
C161 H141 0.931 . S
C161 C160 1.332 . S
C161 C162 1.267 1_455 S
C162 H130 0.929 . S
C162 C161 1.267 1_655 S
C162 C163 1.251 . S
C163 H133 0.929 . S
C163 N159 1.418 . S
C163 C162 1.251 . S
C164 H131 0.930 . S
C164 C166 1.406 . S
C164 C169 1.261 . S
C165 H132 0.915 1_455 S
C165 N167 1.325 . S
C165 C168 1.357 . S
C166 H134 0.928 . S
C166 C164 1.406 . S
C166 N167 1.261 . S
N167 Co118 2.214 1_455 S
N167 C165 1.325 . S
N167 C166 1.261 . S
C168 H138 0.931 . S
C168 C165 1.357 . S
C168 C169 1.312 . S
C169 H140 0.930 . S
C169 C164 1.261 . S
C169 C168 1.312 . S
C170 O142 1.214 . S
C170 O150 1.234 . S
C171 H143 0.929 . S
C171 C174 1.391 . S
C171 C176 1.391 . S
C172 H144 0.929 . S
C172 C173 1.390 . S
C172 N175 1.391 . S
C173 H145 0.930 . S
C173 C172 1.390 . S
C173 C174 1.392 . S
C174 H146 0.929 . S
C174 C171 1.391 . S
C174 C173 1.392 . S
N175 Co119 2.257 . S
N175 C172 1.391 . S
N175 C176 1.388 . S
C176 H147 0.930 . S
C176 C171 1.391 . S
C176 N175 1.388 . S
Co177 O179 2.143 . S
Co177 O185 2.074 . S
Co177 O188 2.093 1_545 S
Co177 O201 2.097 . S
Co177 N218 2.151 . S
Co177 N226 2.214 1_545 S
Co178 O179 2.160 . S
Co178 O184 2.058 . S
Co178 O194 2.057 . S
Co178 O209 2.037 . S
Co178 N213 2.145 . S
Co178 N234 2.257 . S
O179 Co177 2.143 . S
O179 Co178 2.160 . S
C180 O181 1.278 . S
C180 O188 1.224 . S
O181 C180 1.278 . S
C182 O183 1.245 . S
C182 O194 1.232 . S
O183 C182 1.245 . S
O184 Co178 2.058 . S
O184 C210 1.269 . S
O185 Co177 2.074 . S
O185 C210 1.257 . S
H186 C211 0.930 . S
H187 C217 0.930 1_565 S
O188 Co177 2.093 1_565 S
O188 C180 1.224 . S
H189 C221 0.929 . S
H190 C223 0.930 . S
H191 C224 0.930 1_545 S
H192 C222 0.929 . S
H193 C225 0.928 . S
O194 Co178 2.057 . S
O194 C182 1.232 . S
H195 C214 0.929 . S
H196 C215 0.929 . S
H197 C227 0.931 . S
H198 C219 0.929 . S
H199 C228 0.930 . S
H200 C220 0.931 . S
O201 Co177 2.097 . S
O201 C229 1.214 . S
H202 C230 0.929 . S
H203 C231 0.929 . S
H204 C232 0.930 . S
H205 C233 0.929 . S
H206 C235 0.930 . S
H207 C212 0.930 . S
H208 C216 0.930 . S
O209 Co178 2.037 . S
O209 C229 1.234 . S
C210 O184 1.269 . S
C210 O185 1.257 . S
C211 H186 0.930 . S
C211 C214 1.388 . S
C211 C216 1.418 . S
C212 H207 0.930 . S
C212 C215 1.404 . S
C212 C216 1.353 . S
N213 Co178 2.145 . S
N213 C214 1.397 . S
N213 C215 1.334 . S
C214 H195 0.929 . S
C214 C211 1.388 . S
C214 N213 1.397 . S
C215 H196 0.929 . S
C215 C212 1.404 . S
C215 N213 1.334 . S
C216 H208 0.930 . S
C216 C211 1.418 . S
C216 C212 1.353 . S
C217 H187 0.930 1_545 S
C217 N218 1.330 . S
C217 C219 1.446 1_545 S
N218 Co177 2.151 . S
N218 C217 1.330 . S
N218 C222 1.418 . S
C219 H198 0.929 . S
C219 C217 1.446 1_565 S
C219 C220 1.332 . S
C220 H200 0.931 . S
C220 C219 1.332 . S
C220 C221 1.267 1_565 S
C221 H189 0.929 . S
C221 C220 1.267 1_545 S
C221 C222 1.251 . S
C222 H192 0.929 . S
C222 N218 1.418 . S
C222 C221 1.251 . S
C223 H190 0.930 . S
C223 C225 1.406 . S
C223 C228 1.261 . S
C224 H191 0.930 1_565 S
C224 N226 1.325 . S
C224 C227 1.357 . S
C225 H193 0.928 . S
C225 C223 1.406 . S
C225 N226 1.261 . S
N226 Co177 2.214 1_565 S
N226 C224 1.325 . S
N226 C225 1.261 . S
C227 H197 0.931 . S
C227 C224 1.357 . S
C227 C228 1.312 . S
C228 H199 0.930 . S
C228 C223 1.261 . S
C228 C227 1.312 . S
C229 O201 1.214 . S
C229 O209 1.234 . S
C230 H202 0.929 . S
C230 C233 1.391 . S
C230 C235 1.391 . S
C231 H203 0.929 . S
C231 C232 1.390 . S
C231 N234 1.391 . S
C232 H204 0.930 . S
C232 C231 1.390 . S
C232 C233 1.392 . S
C233 H205 0.929 . S
C233 C230 1.391 . S
C233 C232 1.392 . S
N234 Co178 2.257 . S
N234 C231 1.391 . S
N234 C235 1.388 . S
C235 H206 0.930 . S
C235 C230 1.391 . S
C235 N234 1.388 . S
Co236 O238 2.143 . S
Co236 O244 2.074 . S
Co236 O247 2.093 . S
Co236 O260 2.097 . S
Co236 N277 2.151 . S
Co236 N285 2.214 . S
Co237 O238 2.160 . S
Co237 O243 2.058 . S
Co237 O253 2.057 . S
Co237 O268 2.037 . S
Co237 N272 2.145 1_556 S
Co237 N293 2.257 1_556 S
O238 Co236 2.143 . S
O238 Co237 2.160 . S
C239 O240 1.278 1_556 S
C239 O247 1.224 . S
O240 C239 1.278 1_554 S
C241 O242 1.245 . S
C241 O253 1.232 . S
O242 C241 1.245 . S
O243 Co237 2.058 . S
O243 C269 1.269 . S
O244 Co236 2.074 . S
O244 C269 1.257 . S
H245 C270 0.930 1_556 S
H246 C276 0.930 . S
O247 Co236 2.093 . S
O247 C239 1.224 . S
H248 C280 0.929 . S
H249 C282 0.930 . S
H250 C283 0.930 . S
H251 C281 0.929 . S
H252 C284 0.928 . S
O253 Co237 2.057 . S
O253 C241 1.232 . S
H254 C273 0.929 . S
H255 C274 0.929 . S
H256 C286 0.931 . S
H257 C278 0.929 . S
H258 C287 0.930 . S
H259 C279 0.931 . S
O260 Co236 2.097 . S
O260 C288 1.214 . S
H261 C289 0.929 . S
H262 C290 0.929 . S
H263 C291 0.930 . S
H264 C292 0.929 . S
H265 C294 0.930 . S
H266 C271 0.930 . S
H267 C275 0.930 . S
O268 Co237 2.037 . S
O268 C288 1.234 . S
C269 O243 1.269 . S
C269 O244 1.257 . S
C270 H245 0.930 1_554 S
C270 C273 1.388 1_554 S
C270 C275 1.418 . S
C271 H266 0.930 . S
C271 C274 1.404 . S
C271 C275 1.353 . S
N272 Co237 2.145 1_554 S
N272 C273 1.397 1_554 S
N272 C274 1.334 . S
C273 H254 0.929 . S
C273 C270 1.388 1_556 S
C273 N272 1.397 1_556 S
C274 H255 0.929 . S
C274 C271 1.404 . S
C274 N272 1.334 . S
C275 H267 0.930 . S
C275 C270 1.418 . S
C275 C271 1.353 . S
C276 H246 0.930 . S
C276 N277 1.330 . S
C276 C278 1.446 . S
N277 Co236 2.151 . S
N277 C276 1.330 . S
N277 C281 1.418 . S
C278 H257 0.929 . S
C278 C276 1.446 . S
C278 C279 1.332 . S
C279 H259 0.931 . S
C279 C278 1.332 . S
C279 C280 1.267 . S
C280 H248 0.929 . S
C280 C279 1.267 . S
C280 C281 1.251 . S
C281 H251 0.929 . S
C281 N277 1.418 . S
C281 C280 1.251 . S
C282 H249 0.930 . S
C282 C284 1.406 . S
C282 C287 1.261 . S
C283 H250 0.930 . S
C283 N285 1.325 . S
C283 C286 1.357 . S
C284 H252 0.928 . S
C284 C282 1.406 . S
C284 N285 1.261 . S
N285 Co236 2.214 . S
N285 C283 1.325 . S
N285 C284 1.261 . S
C286 H256 0.931 . S
C286 C283 1.357 . S
C286 C287 1.312 . S
C287 H258 0.930 . S
C287 C282 1.261 . S
C287 C286 1.312 . S
C288 O260 1.214 . S
C288 O268 1.234 . S
C289 H261 0.929 . S
C289 C292 1.391 . S
C289 C294 1.391 . S
C290 H262 0.929 . S
C290 C291 1.390 . S
C290 N293 1.391 . S
C291 H263 0.930 . S
C291 C290 1.390 . S
C291 C292 1.392 . S
C292 H264 0.929 . S
C292 C289 1.391 . S
C292 C291 1.392 . S
N293 Co237 2.257 1_554 S
N293 C290 1.391 . S
N293 C294 1.388 . S
C294 H265 0.930 . S
C294 C289 1.391 . S
C294 N293 1.388 . S
Co295 O297 2.143 . S
Co295 O303 2.074 . S
Co295 O306 2.093 . S
Co295 O319 2.097 . S
Co295 N336 2.151 1_554 S
Co295 N344 2.214 . S
Co296 O297 2.160 . S
Co296 O302 2.058 . S
Co296 O312 2.057 . S
Co296 O327 2.037 . S
Co296 N331 2.145 . S
Co296 N352 2.257 . S
O297 Co295 2.143 . S
O297 Co296 2.160 . S
C298 O299 1.278 . S
C298 O306 1.224 . S
O299 C298 1.278 . S
C300 O301 1.245 1_554 S
C300 O312 1.232 . S
O301 C300 1.245 1_556 S
O302 Co296 2.058 . S
O302 C328 1.269 . S
O303 Co295 2.074 . S
O303 C328 1.257 . S
H304 C329 0.930 . S
H305 C335 0.930 . S
O306 Co295 2.093 . S
O306 C298 1.224 . S
H307 C339 0.929 . S
H308 C341 0.930 . S
H309 C342 0.930 . S
H310 C340 0.929 . S
H311 C343 0.928 . S
O312 Co296 2.057 . S
O312 C300 1.232 . S
H313 C332 0.929 . S
H314 C333 0.929 . S
H315 C345 0.931 . S
H316 C337 0.929 . S
H317 C346 0.930 . S
H318 C338 0.931 . S
O319 Co295 2.097 . S
O319 C347 1.214 . S
H320 C348 0.929 . S
H321 C349 0.929 . S
H322 C350 0.930 . S
H323 C351 0.929 . S
H324 C353 0.930 . S
H325 C330 0.930 . S
H326 C334 0.930 . S
O327 Co296 2.037 . S
O327 C347 1.234 . S
C328 O302 1.269 . S
C328 O303 1.257 . S
C329 H304 0.930 . S
C329 C332 1.388 . S
C329 C334 1.418 . S
C330 H325 0.930 . S
C330 C333 1.404 . S
C330 C334 1.353 . S
N331 Co296 2.145 . S
N331 C332 1.397 . S
N331 C333 1.334 . S
C332 H313 0.929 . S
C332 C329 1.388 . S
C332 N331 1.397 . S
C333 H314 0.929 . S
C333 C330 1.404 . S
C333 N331 1.334 . S
C334 H326 0.930 . S
C334 C329 1.418 . S
C334 C330 1.353 . S
C335 H305 0.930 . S
C335 N336 1.330 . S
C335 C337 1.446 . S
N336 Co295 2.151 1_556 S
N336 C335 1.330 . S
N336 C340 1.418 . S
C337 H316 0.929 . S
C337 C335 1.446 . S
C337 C338 1.332 . S
C338 H318 0.931 . S
C338 C337 1.332 . S
C338 C339 1.267 . S
C339 H307 0.929 . S
C339 C338 1.267 . S
C339 C340 1.251 . S
C340 H310 0.929 . S
C340 N336 1.418 . S
C340 C339 1.251 . S
C341 H308 0.930 . S
C341 C343 1.406 . S
C341 C346 1.261 1_556 S
C342 H309 0.930 . S
C342 N344 1.325 . S
C342 C345 1.357 . S
C343 H311 0.928 . S
C343 C341 1.406 . S
C343 N344 1.261 1_556 S
N344 Co295 2.214 . S
N344 C342 1.325 . S
N344 C343 1.261 1_554 S
C345 H315 0.931 . S
C345 C342 1.357 . S
C345 C346 1.312 . S
C346 H317 0.930 . S
C346 C341 1.261 1_554 S
C346 C345 1.312 . S
C347 O319 1.214 . S
C347 O327 1.234 . S
C348 H320 0.929 . S
C348 C351 1.391 . S
C348 C353 1.391 . S
C349 H321 0.929 . S
C349 C350 1.390 . S
C349 N352 1.391 . S
C350 H322 0.930 . S
C350 C349 1.390 . S
C350 C351 1.392 . S
C351 H323 0.929 . S
C351 C348 1.391 . S
C351 C350 1.392 . S
N352 Co296 2.257 . S
N352 C349 1.391 . S
N352 C353 1.388 . S
C353 H324 0.930 . S
C353 C348 1.391 . S
C353 N352 1.388 . S
Co354 O356 2.143 . S
Co354 O362 2.074 . S
Co354 O365 2.093 . S
Co354 O378 2.097 . S
Co354 N395 2.151 . S
Co354 N403 2.214 . S
Co355 O356 2.160 . S
Co355 O361 2.058 . S
Co355 O371 2.057 . S
Co355 O386 2.037 . S
Co355 N390 2.145 1_556 S
Co355 N411 2.257 1_556 S
O356 Co354 2.143 . S
O356 Co355 2.160 . S
C357 O358 1.278 1_556 S
C357 O365 1.224 . S
O358 C357 1.278 1_554 S
C359 O360 1.245 . S
C359 O371 1.232 . S
O360 C359 1.245 . S
O361 Co355 2.058 . S
O361 C387 1.269 . S
O362 Co354 2.074 . S
O362 C387 1.257 . S
H363 C388 0.930 1_556 S
H364 C394 0.930 . S
O365 Co354 2.093 . S
O365 C357 1.224 . S
H366 C398 0.929 . S
H367 C400 0.930 . S
H368 C401 0.930 . S
H369 C399 0.929 . S
H370 C402 0.928 . S
O371 Co355 2.057 . S
O371 C359 1.232 . S
H372 C391 0.929 . S
H373 C392 0.929 . S
H374 C404 0.931 . S
H375 C396 0.929 . S
H376 C405 0.930 . S
H377 C397 0.931 . S
O378 Co354 2.097 . S
O378 C406 1.214 . S
H379 C407 0.929 . S
H380 C408 0.929 . S
H381 C409 0.930 . S
H382 C410 0.929 . S
H383 C412 0.930 . S
H384 C389 0.930 . S
H385 C393 0.930 . S
O386 Co355 2.037 . S
O386 C406 1.234 . S
C387 O361 1.269 . S
C387 O362 1.257 . S
C388 H363 0.930 1_554 S
C388 C391 1.388 1_554 S
C388 C393 1.418 . S
C389 H384 0.930 . S
C389 C392 1.404 . S
C389 C393 1.353 . S
N390 Co355 2.145 1_554 S
N390 C391 1.397 1_554 S
N390 C392 1.334 . S
C391 H372 0.929 . S
C391 C388 1.388 1_556 S
C391 N390 1.397 1_556 S
C392 H373 0.929 . S
C392 C389 1.404 . S
C392 N390 1.334 . S
C393 H385 0.930 . S
C393 C388 1.418 . S
C393 C389 1.353 . S
C394 H364 0.930 . S
C394 N395 1.330 . S
C394 C396 1.446 . S
N395 Co354 2.151 . S
N395 C394 1.330 . S
N395 C399 1.418 . S
C396 H375 0.929 . S
C396 C394 1.446 . S
C396 C397 1.332 . S
C397 H377 0.931 . S
C397 C396 1.332 . S
C397 C398 1.267 . S
C398 H366 0.929 . S
C398 C397 1.267 . S
C398 C399 1.251 . S
C399 H369 0.929 . S
C399 N395 1.418 . S
C399 C398 1.251 . S
C400 H367 0.930 . S
C400 C402 1.406 . S
C400 C405 1.261 . S
C401 H368 0.930 . S
C401 N403 1.325 . S
C401 C404 1.357 . S
C402 H370 0.928 . S
C402 C400 1.406 . S
C402 N403 1.261 . S
N403 Co354 2.214 . S
N403 C401 1.325 . S
N403 C402 1.261 . S
C404 H374 0.931 . S
C404 C401 1.357 . S
C404 C405 1.312 . S
C405 H376 0.930 . S
C405 C400 1.261 . S
C405 C404 1.312 . S
C406 O378 1.214 . S
C406 O386 1.234 . S
C407 H379 0.929 . S
C407 C410 1.391 . S
C407 C412 1.391 . S
C408 H380 0.929 . S
C408 C409 1.390 . S
C408 N411 1.391 . S
C409 H381 0.930 . S
C409 C408 1.390 . S
C409 C410 1.392 . S
C410 H382 0.929 . S
C410 C407 1.391 . S
C410 C409 1.392 . S
N411 Co355 2.257 1_554 S
N411 C408 1.391 . S
N411 C412 1.388 . S
C412 H383 0.930 . S
C412 C407 1.391 . S
C412 N411 1.388 . S
Co413 O415 2.143 . S
Co413 O421 2.074 . S
Co413 O424 2.093 . S
Co413 O437 2.097 . S
Co413 N454 2.151 1_554 S
Co413 N462 2.214 . S
Co414 O415 2.160 . S
Co414 O420 2.058 . S
Co414 O430 2.057 . S
Co414 O445 2.037 . S
Co414 N449 2.145 . S
Co414 N470 2.257 . S
O415 Co413 2.143 . S
O415 Co414 2.160 . S
C416 O417 1.278 . S
C416 O424 1.224 . S
O417 C416 1.278 . S
C418 O419 1.245 1_554 S
C418 O430 1.232 . S
O419 C418 1.245 1_556 S
O420 Co414 2.058 . S
O420 C446 1.269 . S
O421 Co413 2.074 . S
O421 C446 1.257 . S
H422 C447 0.930 . S
H423 C453 0.930 . S
O424 Co413 2.093 . S
O424 C416 1.224 . S
H425 C457 0.929 . S
H426 C459 0.930 . S
H427 C460 0.930 . S
H428 C458 0.929 . S
H429 C461 0.928 . S
O430 Co414 2.057 . S
O430 C418 1.232 . S
H431 C450 0.929 . S
H432 C451 0.929 . S
H433 C463 0.931 . S
H434 C455 0.929 . S
H435 C464 0.930 . S
H436 C456 0.931 . S
O437 Co413 2.097 . S
O437 C465 1.214 . S
H438 C466 0.929 . S
H439 C467 0.929 . S
H440 C468 0.930 . S
H441 C469 0.929 . S
H442 C471 0.930 . S
H443 C448 0.930 . S
H444 C452 0.930 . S
O445 Co414 2.037 . S
O445 C465 1.234 . S
C446 O420 1.269 . S
C446 O421 1.257 . S
C447 H422 0.930 . S
C447 C450 1.388 . S
C447 C452 1.418 . S
C448 H443 0.930 . S
C448 C451 1.404 . S
C448 C452 1.353 . S
N449 Co414 2.145 . S
N449 C450 1.397 . S
N449 C451 1.334 . S
C450 H431 0.929 . S
C450 C447 1.388 . S
C450 N449 1.397 . S
C451 H432 0.929 . S
C451 C448 1.404 . S
C451 N449 1.334 . S
C452 H444 0.930 . S
C452 C447 1.418 . S
C452 C448 1.353 . S
C453 H423 0.930 . S
C453 N454 1.330 . S
C453 C455 1.446 . S
N454 Co413 2.151 1_556 S
N454 C453 1.330 . S
N454 C458 1.418 . S
C455 H434 0.929 . S
C455 C453 1.446 . S
C455 C456 1.332 . S
C456 H436 0.931 . S
C456 C455 1.332 . S
C456 C457 1.267 . S
C457 H425 0.929 . S
C457 C456 1.267 . S
C457 C458 1.251 . S
C458 H428 0.929 . S
C458 N454 1.418 . S
C458 C457 1.251 . S
C459 H426 0.930 . S
C459 C461 1.406 . S
C459 C464 1.261 1_556 S
C460 H427 0.930 . S
C460 N462 1.325 . S
C460 C463 1.357 . S
C461 H429 0.928 . S
C461 C459 1.406 . S
C461 N462 1.261 1_556 S
N462 Co413 2.214 . S
N462 C460 1.325 . S
N462 C461 1.261 1_554 S
C463 H433 0.931 . S
C463 C460 1.357 . S
C463 C464 1.312 . S
C464 H435 0.930 . S
C464 C459 1.261 1_554 S
C464 C463 1.312 . S
C465 O437 1.214 . S
C465 O445 1.234 . S
C466 H438 0.929 . S
C466 C469 1.391 . S
C466 C471 1.391 . S
C467 H439 0.929 . S
C467 C468 1.390 . S
C467 N470 1.391 . S
C468 H440 0.930 . S
C468 C467 1.390 . S
C468 C469 1.392 . S
C469 H441 0.929 . S
C469 C466 1.391 . S
C469 C468 1.392 . S
N470 Co414 2.257 . S
N470 C467 1.391 . S
N470 C471 1.388 . S
C471 H442 0.930 . S
C471 C466 1.391 . S
C471 N470 1.388 . S
H472 C478 0.930 . S
H473 C481 0.930 . S
H474 C482 0.930 . S
H475 C483 0.930 . S
H476 C486 0.930 . S
H477 C487 0.930 . S
C478 H472 0.930 . S
C478 C479 1.355 . S
C478 C480 1.415 . S
C479 C478 1.355 . S
C479 C481 1.419 . S
C480 C478 1.415 . S
C480 C485 1.425 . S
C480 C487 1.409 . S
C481 H473 0.930 . S
C481 C479 1.419 . S
C481 C482 1.362 . S
C482 H474 0.930 . S
C482 C481 1.362 . S
C482 C485 1.409 . S
C483 H475 0.930 . S
C483 C484 1.355 . S
C483 C485 1.415 . S
C484 C483 1.355 . S
C484 C486 1.419 . S
C485 C480 1.425 . S
C485 C482 1.409 . S
C485 C483 1.415 . S
C486 H476 0.930 . S
C486 C484 1.419 . S
C486 C487 1.362 . S
C487 H477 0.930 . S
C487 C480 1.409 . S
C487 C486 1.362 . S
H488 C494 0.930 . S
H489 C497 0.930 . S
H490 C498 0.930 . S
H491 C499 0.930 . S
H492 C502 0.930 . S
H493 C503 0.930 . S
C494 H488 0.930 . S
C494 C495 1.355 . S
C494 C496 1.415 . S
C495 C494 1.355 . S
C495 C497 1.419 . S
C496 C494 1.415 . S
C496 C501 1.425 . S
C496 C503 1.409 . S
C497 H489 0.930 . S
C497 C495 1.419 . S
C497 C498 1.362 . S
C498 H490 0.930 . S
C498 C497 1.362 . S
C498 C501 1.409 . S
C499 H491 0.930 . S
C499 C500 1.355 . S
C499 C501 1.415 . S
C500 C499 1.355 . S
C500 C502 1.419 . S
C501 C496 1.425 . S
C501 C498 1.409 . S
C501 C499 1.415 . S
C502 H492 0.930 . S
C502 C500 1.419 . S
C502 C503 1.362 . S
C503 H493 0.930 . S
C503 C496 1.409 . S
C503 C502 1.362 . S
H504 C510 0.930 . S
H505 C513 0.930 . S
H506 C514 0.930 . S
H507 C515 0.930 . S
H508 C518 0.930 . S
H509 C519 0.930 . S
C510 H504 0.930 . S
C510 C511 1.355 . S
C510 C512 1.415 . S
C511 C510 1.355 . S
C511 C513 1.419 . S
C512 C510 1.415 . S
C512 C517 1.425 . S
C512 C519 1.409 . S
C513 H505 0.930 . S
C513 C511 1.419 . S
C513 C514 1.362 . S
C514 H506 0.930 . S
C514 C513 1.362 . S
C514 C517 1.409 . S
C515 H507 0.930 . S
C515 C516 1.355 . S
C515 C517 1.415 . S
C516 C515 1.355 . S
C516 C518 1.419 . S
C517 C512 1.425 . S
C517 C514 1.409 . S
C517 C515 1.415 . S
C518 H508 0.930 . S
C518 C516 1.419 . S
C518 C519 1.362 . S
C519 H509 0.930 . S
C519 C512 1.409 . S
C519 C518 1.362 . S
H520 C526 0.930 . S
H521 C529 0.930 . S
H522 C530 0.930 . S
H523 C531 0.930 . S
H524 C534 0.930 . S
H525 C535 0.930 . S
C526 H520 0.930 . S
C526 C527 1.355 . S
C526 C528 1.415 . S
C527 C526 1.355 . S
C527 C529 1.419 . S
C528 C526 1.415 . S
C528 C533 1.425 . S
C528 C535 1.409 . S
C529 H521 0.930 . S
C529 C527 1.419 . S
C529 C530 1.362 . S
C530 H522 0.930 . S
C530 C529 1.362 . S
C530 C533 1.409 . S
C531 H523 0.930 . S
C531 C532 1.355 . S
C531 C533 1.415 . S
C532 C531 1.355 . S
C532 C534 1.419 . S
C533 C528 1.425 . S
C533 C530 1.409 . S
C533 C531 1.415 . S
C534 H524 0.930 . S
C534 C532 1.419 . S
C534 C535 1.362 . S
C535 H525 0.930 . S
C535 C528 1.409 . S
C535 C534 1.362 . S
H536 C542 0.930 . S
H537 C545 0.930 . S
H538 C546 0.930 . S
H539 C547 0.930 . S
H540 C550 0.930 . S
H541 C551 0.930 . S
C542 H536 0.930 . S
C542 C543 1.355 . S
C542 C544 1.415 . S
C543 C542 1.355 . S
C543 C545 1.419 . S
C544 C542 1.415 . S
C544 C549 1.425 . S
C544 C551 1.409 . S
C545 H537 0.930 . S
C545 C543 1.419 . S
C545 C546 1.362 . S
C546 H538 0.930 . S
C546 C545 1.362 . S
C546 C549 1.409 . S
C547 H539 0.930 . S
C547 C548 1.355 . S
C547 C549 1.415 . S
C548 C547 1.355 . S
C548 C550 1.419 . S
C549 C544 1.425 . S
C549 C546 1.409 . S
C549 C547 1.415 . S
C550 H540 0.930 . S
C550 C548 1.419 . S
C550 C551 1.362 . S
C551 H541 0.930 . S
C551 C544 1.409 . S
C551 C550 1.362 . S
H552 C558 0.930 . S
H553 C561 0.930 . S
H554 C562 0.930 . S
H555 C563 0.930 . S
H556 C566 0.930 . S
H557 C567 0.930 . S
C558 H552 0.930 . S
C558 C559 1.355 . S
C558 C560 1.415 . S
C559 C558 1.355 . S
C559 C561 1.419 . S
C560 C558 1.415 . S
C560 C565 1.425 . S
C560 C567 1.409 . S
C561 H553 0.930 . S
C561 C559 1.419 . S
C561 C562 1.362 . S
C562 H554 0.930 . S
C562 C561 1.362 . S
C562 C565 1.409 . S
C563 H555 0.930 . S
C563 C564 1.355 . S
C563 C565 1.415 . S
C564 C563 1.355 . S
C564 C566 1.419 . S
C565 C560 1.425 . S
C565 C562 1.409 . S
C565 C563 1.415 . S
C566 H556 0.930 . S
C566 C564 1.419 . S
C566 C567 1.362 . S
C567 H557 0.930 . S
C567 C560 1.409 . S
C567 C566 1.362 . S
H568 C574 0.930 . S
H569 C577 0.930 . S
H570 C578 0.930 . S
H571 C579 0.930 . S
H572 C582 0.930 . S
H573 C583 0.930 . S
C574 H568 0.930 . S
C574 C575 1.355 . S
C574 C576 1.415 . S
C575 C574 1.355 . S
C575 C577 1.419 . S
C576 C574 1.415 . S
C576 C581 1.425 . S
C576 C583 1.409 . S
C577 H569 0.930 . S
C577 C575 1.419 . S
C577 C578 1.362 . S
C578 H570 0.930 . S
C578 C577 1.362 . S
C578 C581 1.409 . S
C579 H571 0.930 . S
C579 C580 1.355 . S
C579 C581 1.415 . S
C580 C579 1.355 . S
C580 C582 1.419 . S
C581 C576 1.425 . S
C581 C578 1.409 . S
C581 C579 1.415 . S
C582 H572 0.930 . S
C582 C580 1.419 . S
C582 C583 1.362 . S
C583 H573 0.930 . S
C583 C576 1.409 . S
C583 C582 1.362 . S
H584 C590 0.930 . S
H585 C593 0.930 . S
H586 C594 0.930 . S
H587 C595 0.930 . S
H588 C598 0.930 . S
H589 C599 0.930 . S
C590 H584 0.930 . S
C590 C591 1.355 . S
C590 C592 1.415 . S
C591 C590 1.355 . S
C591 C593 1.419 . S
C592 C590 1.415 . S
C592 C597 1.425 . S
C592 C599 1.409 . S
C593 H585 0.930 . S
C593 C591 1.419 . S
C593 C594 1.362 . S
C594 H586 0.930 . S
C594 C593 1.362 . S
C594 C597 1.409 . S
C595 H587 0.930 . S
C595 C596 1.355 . S
C595 C597 1.415 . S
C596 C595 1.355 . S
C596 C598 1.419 . S
C597 C592 1.425 . S
C597 C594 1.409 . S
C597 C595 1.415 . S
C598 H588 0.930 . S
C598 C596 1.419 . S
C598 C599 1.362 . S
C599 H589 0.930 . S
C599 C592 1.409 . S
C599 C598 1.362 . S
H600 C606 0.930 . S
H601 C609 0.930 . S
H602 C610 0.930 . S
H603 C611 0.930 . S
H604 C614 0.930 . S
H605 C615 0.930 . S
C606 H600 0.930 . S
C606 C607 1.357 . S
C606 C608 1.415 . S
C607 C606 1.357 . S
C607 C609 1.417 1_556 S
C608 C606 1.415 . S
C608 C613 1.425 1_556 S
C608 C615 1.409 . S
C609 H601 0.930 . S
C609 C607 1.417 1_554 S
C609 C610 1.362 . S
C610 H602 0.930 . S
C610 C609 1.362 . S
C610 C613 1.409 . S
C611 H603 0.930 . S
C611 C612 1.355 1_554 S
C611 C613 1.415 . S
C612 C611 1.355 1_556 S
C612 C614 1.419 . S
C613 C608 1.425 1_554 S
C613 C610 1.409 . S
C613 C611 1.415 . S
C614 H604 0.930 . S
C614 C612 1.419 . S
C614 C615 1.362 . S
C615 H605 0.930 . S
C615 C608 1.409 . S
C615 C614 1.362 . S
H616 C622 0.930 . S
H617 C625 0.930 . S
H618 C626 0.930 . S
H619 C627 0.930 . S
H620 C630 0.930 . S
H621 C631 0.930 . S
C622 H616 0.930 . S
C622 C623 1.355 1_556 S
C622 C624 1.415 . S
C623 C622 1.355 1_554 S
C623 C625 1.419 . S
C624 C622 1.415 . S
C624 C629 1.425 1_556 S
C624 C631 1.409 . S
C625 H617 0.930 . S
C625 C623 1.419 . S
C625 C626 1.362 . S
C626 H618 0.930 . S
C626 C625 1.362 . S
C626 C629 1.409 . S
C627 H619 0.930 . S
C627 C628 1.355 1_554 S
C627 C629 1.415 . S
C628 C627 1.355 1_556 S
C628 C630 1.419 . S
C629 C624 1.425 1_554 S
C629 C626 1.409 . S
C629 C627 1.415 . S
C630 H620 0.930 . S
C630 C628 1.419 . S
C630 C631 1.362 . S
C631 H621 0.930 . S
C631 C624 1.409 . S
C631 C630 1.362 . S
H632 C638 0.930 . S
H633 C641 0.930 . S
H634 C642 0.930 . S
H635 C643 0.930 . S
H636 C646 0.930 . S
H637 C647 0.930 . S
C638 H632 0.930 . S
C638 C639 1.355 1_556 S
C638 C640 1.415 . S
C639 C638 1.355 1_554 S
C639 C641 1.419 . S
C640 C638 1.415 . S
C640 C645 1.425 1_556 S
C640 C647 1.409 . S
C641 H633 0.930 . S
C641 C639 1.419 . S
C641 C642 1.362 . S
C642 H634 0.930 . S
C642 C641 1.362 . S
C642 C645 1.409 . S
C643 H635 0.930 . S
C643 C644 1.355 1_554 S
C643 C645 1.415 . S
C644 C643 1.355 1_556 S
C644 C646 1.419 . S
C645 C640 1.425 1_554 S
C645 C642 1.409 . S
C645 C643 1.415 . S
C646 H636 0.930 . S
C646 C644 1.419 . S
C646 C647 1.362 . S
C647 H637 0.930 . S
C647 C640 1.409 . S
C647 C646 1.362 . S
H648 C654 0.930 . S
H649 C657 0.930 . S
H650 C658 0.930 . S
H651 C659 0.930 . S
H652 C662 0.930 . S
H653 C663 0.930 . S
C654 H648 0.930 . S
C654 C655 1.355 1_554 S
C654 C656 1.415 . S
C655 C654 1.355 1_556 S
C655 C657 1.419 . S
C656 C654 1.415 . S
C656 C661 1.425 1_554 S
C656 C663 1.409 . S
C657 H649 0.930 . S
C657 C655 1.419 . S
C657 C658 1.362 . S
C658 H650 0.930 . S
C658 C657 1.362 . S
C658 C661 1.409 . S
C659 H651 0.930 . S
C659 C660 1.355 1_556 S
C659 C661 1.415 . S
C660 C659 1.355 1_554 S
C660 C662 1.419 . S
C661 C656 1.425 1_556 S
C661 C658 1.409 . S
C661 C659 1.415 . S
C662 H652 0.930 . S
C662 C660 1.419 . S
C662 C663 1.362 . S
C663 H653 0.930 . S
C663 C656 1.409 . S
C663 C662 1.362 . S
H664 C670 0.921 1_455 S
H665 C673 0.930 . S
H666 C674 0.930 . S
H667 C675 0.921 1_655 S
H668 C678 0.930 . S
H669 C679 0.930 . S
C670 H664 0.921 1_655 S
C670 C671 1.368 . S
C670 C672 1.410 1_655 S
C671 C670 1.368 . S
C671 C673 1.419 . S
C672 C670 1.410 1_455 S
C672 C677 1.425 1_455 S
C672 C679 1.409 . S
C673 H665 0.930 . S
C673 C671 1.419 . S
C673 C674 1.362 . S
C674 H666 0.930 . S
C674 C673 1.362 . S
C674 C677 1.409 . S
C675 H667 0.921 1_455 S
C675 C676 1.368 . S
C675 C677 1.410 1_455 S
C676 C675 1.368 . S
C676 C678 1.419 . S
C677 C672 1.425 1_655 S
C677 C674 1.409 . S
C677 C675 1.410 1_655 S
C678 H668 0.930 . S
C678 C676 1.419 . S
C678 C679 1.362 . S
C679 H669 0.930 . S
C679 C672 1.409 . S
C679 C678 1.362 . S
H680 C686 0.930 . S
H681 C689 0.931 . S
H682 C690 0.930 . S
H683 C691 0.930 . S
H684 C694 0.931 . S
H685 C695 0.930 . S
C686 H680 0.930 . S
C686 C687 1.355 . S
C686 C688 1.415 . S
C687 C686 1.355 . S
C687 C689 1.416 1_545 S
C688 C686 1.415 . S
C688 C693 1.425 1_545 S
C688 C695 1.409 . S
C689 H681 0.931 . S
C689 C687 1.416 1_565 S
C689 C690 1.365 . S
C690 H682 0.930 . S
C690 C689 1.365 . S
C690 C693 1.409 . S
C691 H683 0.930 . S
C691 C692 1.355 . S
C691 C693 1.415 . S
C692 C691 1.355 . S
C692 C694 1.416 1_565 S
C693 C688 1.425 1_565 S
C693 C690 1.409 . S
C693 C691 1.415 . S
C694 H684 0.931 . S
C694 C692 1.416 1_545 S
C694 C695 1.365 . S
C695 H685 0.930 . S
C695 C688 1.409 . S
C695 C694 1.365 . S
H696 C702 0.930 . S
H697 C705 0.930 . S
H698 C706 0.930 . S
H699 C707 0.930 . S
H700 C710 0.930 . S
H701 C711 0.930 . S
C702 H696 0.930 . S
C702 C703 1.355 1_554 S
C702 C704 1.413 1_554 S
C703 C702 1.355 1_556 S
C703 C705 1.419 . S
C704 C702 1.413 1_556 S
C704 C709 1.436 1_545 S
C704 C711 1.401 1_546 S
C705 H697 0.930 . S
C705 C703 1.419 . S
C705 C706 1.362 . S
C706 H698 0.930 . S
C706 C705 1.362 . S
C706 C709 1.409 1_545 S
C707 H699 0.930 . S
C707 C708 1.355 . S
C707 C709 1.415 . S
C708 C707 1.355 . S
C708 C710 1.419 1_556 S
C709 C704 1.436 1_565 S
C709 C706 1.409 1_565 S
C709 C707 1.415 . S
C710 H700 0.930 . S
C710 C708 1.419 1_554 S
C710 C711 1.362 . S
C711 H701 0.930 . S
C711 C704 1.401 1_564 S
C711 C710 1.362 . S
H712 C718 0.930 . S
H713 C721 0.930 . S
H714 C722 0.928 1_655 S
H715 C723 0.930 . S
H716 C726 0.930 . S
H717 C727 0.928 1_455 S
C718 H712 0.930 . S
C718 C719 1.355 . S
C718 C720 1.415 . S
C719 C718 1.355 . S
C719 C721 1.419 . S
C720 C718 1.415 . S
C720 C725 1.425 1_455 S
C720 C727 1.408 1_455 S
C721 H713 0.930 . S
C721 C719 1.419 . S
C721 C722 1.365 . S
C722 H714 0.928 1_455 S
C722 C721 1.365 . S
C722 C725 1.408 1_455 S
C723 H715 0.930 . S
C723 C724 1.355 . S
C723 C725 1.415 . S
C724 C723 1.355 . S
C724 C726 1.419 . S
C725 C720 1.425 1_655 S
C725 C722 1.408 1_655 S
C725 C723 1.415 . S
C726 H716 0.930 . S
C726 C724 1.419 . S
C726 C727 1.365 . S
C727 H717 0.928 1_655 S
C727 C720 1.408 1_655 S
C727 C726 1.365 . S
C479 C465 1.581 . S
C484 C33 1.594 . S
C495 C92 1.620 . S
C500 C269 1.615 . S
C511 C151 1.599 . S
C516 C347 1.586 . S
C527 C387 1.590 . S
C532 C210 1.598 . S
C543 C62 1.521 . S
C548 C5 1.510 . S
C559 C64 1.517 . S
C564 C121 1.528 . S
C575 C180 1.546 . S
C580 C123 1.541 . S
C591 C182 1.505 . S
C596 C3 1.519 . S
C607 C418 1.536 1_556 S
C612 C241 1.535 . S
C623 C298 1.495 . S
C628 C239 1.513 . S
C639 C300 1.525 . S
C644 C359 1.495 . S
C655 C357 1.514 . S
C660 C416 1.499 . S
C671 C170 1.325 . S
C676 C52 1.315 . S
C687 C229 1.302 . S
C692 C111 1.287 . S
C703 C406 1.292 . S
C708 C288 1.316 . S
C719 C446 1.305 . S
C724 C328 1.318 . S
