# Generated by pormake.
# Topology fnt, (5)-cn, num edge types: 1
# Building blocks:
#     Node 0, Type 0, BuildingBlock: BEQFEK_clean_sbu_0, # of connection points: 5
#     Node 1, Type 0, BuildingBlock: BEQFEK_clean_sbu_0, # of connection points: 5
#     Node 2, Type 0, BuildingBlock: BEQFEK_clean_sbu_0, # of connection points: 5
#     Node 3, Type 0, BuildingBlock: BEQFEK_clean_sbu_0, # of connection points: 5
#     Node 4, Type 0, BuildingBlock: BEQFEK_clean_sbu_0, # of connection points: 5
#     Node 5, Type 0, BuildingBlock: BEQFEK_clean_sbu_0, # of connection points: 5
#     Edge 6, Type (0, 0), BuildingBlock: ZUJKAS_clean_linker_0, # of connection points: 2
#     Edge 7, Type (0, 0), BuildingBlock: ZUJKAS_clean_linker_0, # of connection points: 2
#     Edge 8, Type (0, 0), BuildingBlock: ZUJKAS_clean_linker_0, # of connection points: 2
#     Edge 9, Type (0, 0), BuildingBlock: ZUJKAS_clean_linker_0, # of connection points: 2
#     Edge 10, Type (0, 0), BuildingBlock: ZUJKAS_clean_linker_0, # of connection points: 2
#     Edge 11, Type (0, 0), BuildingBlock: ZUJKAS_clean_linker_0, # of connection points: 2
#     Edge 12, Type (0, 0), BuildingBlock: ZUJKAS_clean_linker_0, # of connection points: 2
#     Edge 13, Type (0, 0), BuildingBlock: ZUJKAS_clean_linker_0, # of connection points: 2
#     Edge 14, Type (0, 0), BuildingBlock: ZUJKAS_clean_linker_0, # of connection points: 2
#     Edge 15, Type (0, 0), BuildingBlock: ZUJKAS_clean_linker_0, # of connection points: 2
#     Edge 16, Type (0, 0), BuildingBlock: ZUJKAS_clean_linker_0, # of connection points: 2
#     Edge 17, Type (0, 0), BuildingBlock: ZUJKAS_clean_linker_0, # of connection points: 2
#     Edge 18, Type (0, 0), BuildingBlock: ZUJKAS_clean_linker_0, # of connection points: 2
#     Edge 19, Type (0, 0), BuildingBlock: ZUJKAS_clean_linker_0, # of connection points: 2
#     Edge 20, Type (0, 0), BuildingBlock: ZUJKAS_clean_linker_0, # of connection points: 2
# Relax obj value: 0.234
# Max RMSD: 0.175
# Mean RMSD: 0.175
data_MOF--net-fnt--node1-BEQFEK_clean_sbu_0--edge1-ZUJKAS_clean_linker_0
_symmetry_space_group_name_H-M    P1
_symmetry_Int_Tables_number       1
_symmetry_cell_setting            triclinic
loop_
_symmetry_equiv_pos_as_xyz
'x, y, z'
_cell_length_a     33.051701
_cell_length_b     33.0392
_cell_length_c     65.584285
_cell_angle_alpha  89.616577
_cell_angle_beta   89.874258
_cell_angle_gamma 119.97686
loop_
_atom_site_label
_atom_site_type_symbol
_atom_site_fract_x
_atom_site_fract_y
_atom_site_fract_z
_atom_type_partial_charge
Co0 Co 0.1748 0.35539 0.05191 0.0
Co1 Co 0.18996 0.35137 1.00429 0.0
C2 C 0.26373 0.36696 0.03553 0.0
O3 O 0.23872 0.36436 0.05085 0.0
O4 O 0.24864 0.363 1.01737 0.0
C5 C 0.16566 0.33487 0.09597 0.0
O6 O 0.20003 0.32611 0.09359 0.0
C7 C 0.20785 0.31377 0.96637 0.0
C8 C 0.19103 0.35114 0.94286 0.0
C9 C 0.20692 0.31972 0.94534 0.0
N10 N 0.19314 0.3404 0.97571 0.0
N11 N 0.18291 0.36236 0.96151 0.0
C12 C 0.22496 0.28558 0.97749 0.0
H13 H 0.23215 0.29611 0.99367 0.0
H14 H 0.19766 0.24814 0.97712 0.0
H15 H 0.25693 0.28955 0.97002 0.0
C16 C 0.09278 0.26375 0.04285 0.0
N17 N 0.13254 0.30206 0.03692 0.0
N18 N 0.13758 0.30085 1.01704 0.0
C19 C 0.10059 0.26216 1.00964 0.0
C20 C 0.07092 0.23752 0.02575 0.0
C21 C 0.07781 0.2514 0.06465 0.0
H22 H 0.06616 0.27528 0.07063 0.0
H23 H 0.10792 0.25598 0.07381 0.0
H24 H 0.0492 0.21477 0.06651 0.0
O25 O 0.17425 0.41072 0.04022 0.0
O26 O 0.18358 0.40729 1.00681 0.0
H27 H 0.05549 0.22389 0.98452 0.0
H28 H 0.11549 0.23765 0.98217 0.0
C29 C 0.09232 0.25081 0.98745 0.0
H30 H 0.1009 0.28281 0.97857 0.0
H31 H 0.17116 0.38574 0.96457 0.0
O32 O 0.15158 0.3482 0.08066 0.0
C33 C 0.17742 0.42691 0.02221 0.0
Co34 Co 0.81156 0.15815 0.38279 0.0
Co35 Co 0.82691 0.1801 0.33529 0.0
C36 C 0.88661 0.24969 0.36766 0.0
O37 O 0.86558 0.22239 0.38266 0.0
O38 O 0.87428 0.2371 0.34933 0.0
C39 C 0.7934 0.14947 0.42699 0.0
O40 O 0.79875 0.19159 0.42583 0.0
C41 C 0.88135 0.20173 0.29679 0.0
C42 C 0.828 0.19118 0.27399 0.0
C43 C 0.87471 0.20414 0.27593 0.0
N44 N 0.84046 0.18785 0.30653 0.0
N45 N 0.80876 0.18149 0.29276 0.0
C46 C 0.92608 0.21474 0.30753 0.0
H47 H 0.92345 0.22102 0.32392 0.0
H48 H 0.93345 0.18557 0.30636 0.0
H49 H 0.9555 0.24631 0.30036 0.0
C50 C 0.81985 0.07779 0.36952 0.0
N51 N 0.82224 0.11885 0.36543 0.0
N52 N 0.82642 0.12636 0.34559 0.0
C53 C 0.82557 0.08961 0.33638 0.0
C54 C 0.82106 0.05753 0.35125 0.0
C55 C 0.81768 0.05914 0.39061 0.0
H56 H 0.78126 0.04289 0.3964 0.0
H57 H 0.8406 0.08809 0.40088 0.0
H58 H 0.82898 0.03269 0.39087 0.0
O59 O 0.75472 0.15809 0.37328 0.0
O60 O 0.76403 0.1716 0.33983 0.0
H61 H 0.80131 0.09486 0.30672 0.0
H62 H 0.81148 0.04628 0.30974 0.0
C63 C 0.82434 0.08329 0.31377 0.0
H64 H 0.86005 0.1051 0.30743 0.0
H65 H 0.77401 0.17101 0.2962 0.0
O66 O 0.79803 0.1307 0.41095 0.0
C67 C 0.7397 0.16294 0.35606 0.0
Co68 Co 0.65902 0.80845 0.71777 0.0
Co69 Co 0.65308 0.8233 0.67014 0.0
C70 C 0.58694 0.82814 0.70058 0.0
O71 O 0.6061 0.82014 0.71577 0.0
O72 O 0.60128 0.82971 0.68231 0.0
C73 C 0.66761 0.81742 0.76304 0.0
O74 O 0.65189 0.8469 0.76228 0.0
C75 C 0.65592 0.86929 0.62983 0.0
C76 C 0.68519 0.83554 0.6105 0.0
C77 C 0.67141 0.86882 0.61006 0.0
N78 N 0.66147 0.83841 0.64138 0.0
N79 N 0.67843 0.81811 0.62956 0.0
C80 C 0.63476 0.89724 0.63744 0.0
H81 H 0.61107 0.87921 0.65049 0.0
H82 H 0.66272 0.93181 0.64268 0.0
H83 H 0.61517 0.90291 0.62509 0.0
C84 C 0.75201 0.89164 0.71144 0.0
N85 N 0.71117 0.85731 0.70425 0.0
N86 N 0.7091 0.86337 0.68447 0.0
C87 C 0.74882 0.90178 0.67847 0.0
C88 C 0.77703 0.92101 0.69536 0.0
C89 C 0.76659 0.89578 0.73326 0.0
H90 H 0.76068 0.86152 0.7389 0.0
H91 H 0.74476 0.90556 0.74256 0.0
H92 H 0.80394 0.92237 0.73521 0.0
O93 O 0.64277 0.74852 0.70543 0.0
O94 O 0.63852 0.75728 0.67216 0.0
H95 H 0.75629 0.89591 0.64638 0.0
H96 H 0.79192 0.95452 0.65585 0.0
C97 C 0.75773 0.92198 0.65734 0.0
H98 H 0.73023 0.93034 0.65339 0.0
H99 H 0.6865 0.79299 0.63466 0.0
O100 O 0.67301 0.80039 0.74661 0.0
C101 C 0.63594 0.73231 0.68749 0.0
Co102 Co 0.84382 0.65074 0.05408 0.0
Co103 Co 0.82781 0.6541 1.00656 0.0
C104 C 0.75282 0.5839 0.03431 0.0
O105 O 0.77869 0.59964 0.05004 0.0
O106 O 0.76756 0.60127 1.01654 0.0
C107 C 0.83886 0.65549 0.09947 0.0
O108 O 0.79525 0.64566 0.098 0.0
C109 C 0.79185 0.66636 0.96624 0.0
C110 C 0.85865 0.70247 0.94921 0.0
C111 C 0.81164 0.68823 0.94767 0.0
N112 N 0.82608 0.66868 0.97823 0.0
N113 N 0.86559 0.68946 0.96772 0.0
C114 C 0.74254 0.64791 0.97321 0.0
H115 H 0.74027 0.64604 0.99011 0.0
H116 H 0.72884 0.67029 0.96734 0.0
H117 H 0.72048 0.61219 0.96713 0.0
C118 C 0.85842 0.74672 0.05087 0.0
N119 N 0.8504 0.70628 0.04247 0.0
N120 N 0.84328 0.70747 0.02276 0.0
C121 C 0.84632 0.74865 1.01806 0.0
C122 C 0.85598 0.77471 0.03568 0.0
C123 C 0.86865 0.75838 0.07294 0.0
H124 H 0.8945 0.74864 0.07825 0.0
H125 H 0.83604 0.73793 0.08193 0.0
H126 H 0.88248 0.79615 0.07566 0.0
O127 O 0.88814 0.63525 0.04134 0.0
O128 O 0.87778 0.63779 1.00814 0.0
H129 H 0.8616 0.76273 0.98622 0.0
H130 H 0.83632 0.79481 0.99745 0.0
C131 C 0.83577 0.76101 0.99751 0.0
H132 H 0.8005 0.73365 0.99285 0.0
H133 H 0.89784 0.69659 0.97353 0.0
O134 O 0.862 0.6589 0.08339 0.0
C135 C 0.89862 0.63163 0.02306 0.0
Co136 Co 0.16888 0.8298 0.39003 0.0
Co137 Co 0.15749 0.81583 0.34219 0.0
C138 C 0.146 0.7391 0.37112 0.0
O139 O 0.15417 0.76437 0.38692 0.0
O140 O 0.1466 0.75489 0.35321 0.0
C141 C 0.15639 0.82534 0.43527 0.0
O142 O 0.12721 0.7802 0.43401 0.0
C143 C 0.10982 0.77868 0.3024 0.0
C144 C 0.14943 0.84147 0.28299 0.0
C145 C 0.11152 0.79649 0.2829 0.0
N146 N 0.14459 0.81218 0.3135 0.0
N147 N 0.16865 0.84914 0.30161 0.0
C148 C 0.07319 0.73269 0.31097 0.0
H149 H 0.07258 0.73383 0.32787 0.0
H150 H 0.03832 0.72326 0.30483 0.0
H151 H 0.08134 0.70525 0.3064 0.0
C152 C 0.0888 0.84484 0.38405 0.0
N153 N 0.12266 0.83756 0.37667 0.0
N154 N 0.11895 0.83366 0.35667 0.0
C155 C 0.08326 0.83959 0.3507 0.0
C156 C 0.06288 0.84632 0.36784 0.0
C157 C 0.08121 0.84962 0.40618 0.0
H158 H 0.11383 0.87821 0.41275 0.0
H159 H 0.07279 0.81674 0.41429 0.0
H160 H 0.05245 0.85725 0.40858 0.0
O161 O 0.23096 0.87286 0.37844 0.0
O162 O 0.2239 0.86411 0.34496 0.0
H163 H 0.09696 0.85684 0.31894 0.0
H164 H 0.04118 0.84784 0.32742 0.0
C165 C 0.06681 0.83578 0.32918 0.0
H166 H 0.04959 0.79876 0.32451 0.0
H167 H 0.19692 0.88053 0.3065 0.0
O168 O 0.1748 0.84909 0.41912 0.0
C169 C 0.24841 0.88366 0.3606 0.0
Co170 Co 0.35427 0.17225 0.72175 0.0
Co171 Co 0.35206 0.15404 0.6742 0.0
C172 C 0.36753 0.09591 0.70585 0.0
O173 O 0.36422 0.11792 0.72104 0.0
O174 O 0.36406 0.1073 0.68762 0.0
C175 C 0.3334 0.1597 0.76564 0.0
O176 O 0.32579 0.11704 0.76316 0.0
C177 C 0.31442 0.09819 0.63659 0.0
C178 C 0.35069 0.15214 0.61277 0.0
C179 C 0.31941 0.10483 0.6155 0.0
N180 N 0.34134 0.13964 0.64568 0.0
N181 N 0.36273 0.17167 0.63131 0.0
C182 C 0.28654 0.05314 0.64804 0.0
H183 H 0.29793 0.05664 0.6641 0.0
H184 H 0.2492 0.04341 0.64804 0.0
H185 H 0.28983 0.02481 0.64061 0.0
C186 C 0.26266 0.16219 0.71184 0.0
N187 N 0.30113 0.16067 0.70638 0.0
N188 N 0.3008 0.1549 0.68651 0.0
C189 C 0.2626 0.15364 0.67864 0.0
C190 C 0.23726 0.15831 0.69444 0.0
C191 C 0.24981 0.16534 0.73344 0.0
H192 H 0.25429 0.14013 0.74303 0.0
H193 H 0.21312 0.15735 0.73491 0.0
H194 H 0.27349 0.20103 0.73921 0.0
O195 O 0.40922 0.22876 0.71021 0.0
O196 O 0.40703 0.21692 0.67679 0.0
H197 H 0.22647 0.1628 0.65306 0.0
H198 H 0.23966 0.1162 0.65071 0.0
C199 C 0.25283 0.15222 0.6563 0.0
H200 H 0.28548 0.17598 0.64792 0.0
H201 H 0.38605 0.2069 0.63417 0.0
O202 O 0.34614 0.1875 0.7504 0.0
C203 C 0.42575 0.24248 0.69229 0.0
H204 H 0.30947 0.37705 0.0717 0.0
H205 H 0.39162 0.39961 0.07621 0.0
H206 H 0.40954 0.40243 1.01096 0.0
H207 H 0.32767 0.37889 1.00627 0.0
H208 H 0.45534 0.36339 0.03139 0.0
H209 H 0.49478 0.53353 0.06501 0.0
H210 H 0.45082 0.48233 0.07807 0.0
H211 H 0.44005 0.49547 0.05271 0.0
C212 C 0.33081 0.38207 0.05832 0.0
C213 C 0.31215 0.37682 0.03861 0.0
C214 C 0.37774 0.3951 0.06093 0.0
C215 C 0.40677 0.4035 0.0439 0.0
C216 C 0.38773 0.39626 0.0243 0.0
H217 H 0.68747 0.53955 1.00465 0.0
H218 H 0.60362 0.48778 1.0094 0.0
C219 C 0.3409 0.38301 0.02166 0.0
C220 C 0.45761 0.42254 0.04617 0.0
H221 H 0.55774 0.52078 0.06007 0.0
C222 C 0.47775 0.39756 0.03789 0.0
C223 C 0.48669 0.46718 0.05462 0.0
C224 C 0.46721 0.49648 0.06298 0.0
C225 C 0.52637 0.41664 0.03732 0.0
C226 C 0.55537 0.46188 0.04511 0.0
C227 C 0.53523 0.48598 0.05419 0.0
C228 C 0.60661 0.48695 0.04235 0.0
C229 C 0.54638 0.38866 0.02811 0.0
C230 C 0.63603 0.50337 0.05932 0.0
C231 C 0.68403 0.53306 0.05668 0.0
C232 C 0.7033 0.54733 0.037 0.0
C233 C 0.67385 0.52926 1.02001 0.0
C234 C 0.62592 0.49939 0.02268 0.0
H235 H 0.5205 0.35066 0.02826 0.0
H236 H 0.55636 0.39982 1.012 0.0
H237 H 0.57811 0.39453 0.03639 0.0
H238 H 0.62163 0.4944 0.07462 0.0
H239 H 0.70565 0.54632 0.07011 0.0
H240 H 0.94238 0.31495 0.33939 0.0
H241 H -0.00037 0.39664 0.34512 0.0
H242 H 0.97541 0.37582 0.40998 0.0
H243 H 0.91714 0.29373 0.4044 0.0
H244 H 0.96671 0.44839 0.39523 0.0
H245 H 0.1318 0.46476 0.36678 0.0
H246 H 0.0856 0.43662 0.34864 0.0
H247 H 0.08121 0.40896 0.37294 0.0
C248 C 0.94959 0.32742 0.35493 0.0
C249 C 0.92489 0.29784 0.37144 0.0
C250 C 0.98279 0.37411 0.35818 0.0
C251 C -0.00768 0.3921 0.37799 0.0
C252 C 0.96882 0.36242 0.39458 0.0
H253 H 0.13676 0.69145 0.40679 0.0
H254 H 0.10561 0.60739 0.4111 0.0
C255 C 0.93552 0.31557 0.39135 0.0
C256 C 0.02253 0.44297 0.38096 0.0
H257 H 0.12794 0.53607 0.36724 0.0
C258 C 0.00236 0.46756 0.38956 0.0
C259 C 0.06895 0.46778 0.3735 0.0
C260 C 0.0933 0.44307 0.36514 0.0
C261 C 0.02633 0.51651 0.38974 0.0
C262 C 0.07188 0.54134 0.38134 0.0
C263 C 0.09292 0.5168 0.3736 0.0
C264 C 0.09626 0.59263 0.37884 0.0
C265 C 0.00176 0.5413 0.39781 0.0
C266 C 0.1028 0.61213 0.35923 0.0
C267 C 0.1206 0.66006 0.35667 0.0
C268 C 0.1323 0.68934 0.37372 0.0
C269 C 0.12781 0.66988 0.39333 0.0
C270 C 0.10995 0.62188 0.39586 0.0
H271 H 0.96401 0.51692 0.40071 0.0
H272 H 0.01805 0.55858 0.41238 0.0
H273 H 0.00534 0.56876 0.38689 0.0
H274 H 0.09242 0.58998 0.34592 0.0
H275 H 0.12377 0.67384 0.34135 0.0
H276 H 0.37195 0.03889 0.67713 0.0
H277 H 0.39417 0.97955 0.68195 0.0
H278 H 0.40637 0.0047 0.74669 0.0
H279 H 0.38477 0.0651 0.74201 0.0
H280 H 0.48405 0.00948 0.72982 0.0
H281 H 0.32804 0.84752 0.70467 0.0
H282 H 0.34557 0.89379 0.68628 0.0
H283 H 0.32611 0.89957 0.7112 0.0
C284 C 0.37874 0.03152 0.69247 0.0
C285 C 0.3769 0.05703 0.70918 0.0
C286 C 0.39092 -0.00288 0.69521 0.0
C287 C 0.40108 0.98713 0.71472 0.0
C288 C 0.39816 0.01161 0.73154 0.0
H289 H 0.55243 0.83589 0.73746 0.0
H290 H 0.50053 0.86729 0.7438 0.0
C291 C 0.38592 0.04615 0.72882 0.0
C292 C 0.42008 0.95523 0.71697 0.0
H293 H 0.40161 0.84807 0.70285 0.0
C294 C 0.46566 0.97379 0.7244 0.0
C295 C 0.39597 0.90875 0.70983 0.0
C296 C 0.34602 0.8861 0.70275 0.0
C297 C 0.48897 0.94819 0.72363 0.0
C298 C 0.46569 0.90258 0.71551 0.0
C299 C 0.41931 0.88312 0.70901 0.0
C300 C 0.49067 0.87666 0.7119 0.0
C301 C 0.53927 0.97119 0.73036 0.0
C302 C 0.50039 0.86958 0.69185 0.0
C303 C 0.52987 0.85152 0.68812 0.0
C304 C 0.55012 0.84024 0.70443 0.0
C305 C 0.53781 0.84461 0.72453 0.0
C306 C 0.50826 0.86265 0.72822 0.0
H307 H 0.55436 0.0092 0.73305 0.0
H308 H 0.54142 0.95467 0.74479 0.0
H309 H 0.56098 0.96639 0.71874 0.0
H310 H 0.48691 0.88008 0.67906 0.0
H311 H 0.53816 0.84815 0.67247 0.0
H312 H 0.63182 0.67177 0.71688 0.0
H313 H 0.6071 0.58939 0.7133 0.0
H314 H 0.58836 0.59828 0.64873 0.0
H315 H 0.61331 0.68153 0.65206 0.0
H316 H 0.51303 0.52546 0.6947 0.0
H317 H 0.66411 0.52409 0.65738 0.0
H318 H 0.6717 0.5726 0.67275 0.0
H319 H 0.64546 0.56367 0.6481 0.0
C320 C 0.62294 0.65658 0.70183 0.0
C321 C 0.62411 0.6832 0.68477 0.0
C322 C 0.60904 0.60951 0.69983 0.0
C323 C 0.59631 0.58811 0.68076 0.0
C324 C 0.59868 0.61458 0.66353 0.0
H325 H 0.45759 0.29038 0.65615 0.0
H326 H 0.50499 0.37514 0.65183 0.0
C327 C 0.61263 0.66195 0.6655 0.0
C328 C 0.57588 0.53707 0.67962 0.0
H329 H 0.59929 0.45097 0.66654 0.0
C330 C 0.5317 0.50909 0.68843 0.0
C331 C 0.60044 0.5162 0.67131 0.0
C332 C 0.64818 0.54543 0.66186 0.0
C333 C 0.51159 0.46054 0.68952 0.0
C334 C 0.53684 0.43962 0.68195 0.0
C335 C 0.58045 0.46739 0.67252 0.0
C336 C 0.51781 0.38882 0.68404 0.0
C337 C 0.46349 0.43195 0.69884 0.0
C338 C 0.51154 0.36866 0.7035 0.0
C339 C 0.48429 0.32038 0.70608 0.0
C340 C 0.46307 0.29153 0.68919 0.0
C341 C 0.47316 0.31162 0.6695 0.0
C342 C 0.50029 0.36002 0.66696 0.0
H343 H 0.44474 0.45198 0.69961 0.0
H344 H 0.44205 0.39963 0.68999 0.0
H345 H 0.46676 0.42154 0.7146 0.0
H346 H 0.52534 0.39053 0.71682 0.0
H347 H 0.47773 0.30602 0.72141 0.0
H348 H 0.93558 0.62671 0.98627 0.0
H349 H -0.00262 0.60763 0.98039 0.0
H350 H 0.00814 0.59272 0.04521 0.0
H351 H 0.94723 0.61231 0.0513 0.0
H352 H 0.09553 0.6434 0.02477 0.0
H353 H 0.9755 0.47429 0.98728 0.0
H354 H 0.97849 0.52587 0.97648 0.0
H355 H 0.95418 0.5064 1.00153 0.0
C356 C 0.95113 0.61939 0.99927 0.0
C357 C 0.93616 0.6206 1.01925 0.0
C358 C 0.98638 0.60851 0.99587 0.0
C359 C 0.00691 0.5984 1.01237 0.0
C360 C -0.00728 0.60051 0.03229 0.0
H361 H 0.16113 0.47655 0.05104 0.0
H362 H 0.12999 0.52868 0.04539 0.0
C363 C 0.9577 0.61148 0.03572 0.0
C364 C 0.04178 0.58352 1.00915 0.0
H365 H 0.05192 0.4909 0.99339 0.0
C366 C 0.08635 0.6104 1.01763 0.0
C367 C 0.02965 0.54061 0.99973 0.0
C368 C 0.98182 0.50981 0.99083 0.0
C369 C 0.11853 0.59449 1.01769 0.0
C370 C 0.1054 0.55037 1.0093 0.0
C371 C 0.06188 0.5248 0.99978 0.0
C372 C 0.1332 0.52707 1.01245 0.0
C373 C 0.1658 0.62449 0.02716 0.0
C374 C 0.14598 0.50937 0.9958 0.0
C375 C 0.16352 0.47917 0.99897 0.0
C376 C 0.16803 0.46578 1.01888 0.0
C377 C 0.15799 0.486 0.03552 0.0
C378 C 0.14054 0.5162 0.03232 0.0
H379 H 0.1764 0.66211 0.0263 0.0
H380 H 0.16412 0.61485 0.04351 0.0
H381 H 0.19299 0.61941 1.01958 0.0
H382 H 0.1403 0.51716 0.98035 0.0
H383 H 0.17105 0.46437 0.9858 0.0
H384 H 0.31121 0.93005 0.39071 0.0
H385 H 0.39392 0.9874 0.38697 0.0
H386 H 0.38165 0.97633 0.32155 0.0
H387 H 0.29835 0.91875 0.32505 0.0
H388 H 0.45815 0.96637 0.36567 0.0
H389 H 0.45414 0.12081 0.3335 0.0
H390 H 0.40529 0.07481 0.34737 0.0
H391 H 0.41749 0.06504 0.3218 0.0
C392 C 0.32583 0.93995 0.37548 0.0
C393 C 0.29817 0.91961 0.35817 0.0
C394 C 0.37309 0.97285 0.3734 0.0
C395 C 0.39355 0.98632 0.35401 0.0
C396 C 0.36613 0.96681 0.33664 0.0
H397 H 0.68756 0.14715 0.32153 0.0
H398 H 0.60239 0.10956 0.31988 0.0
C399 C 0.31871 0.9337 0.33869 0.0
C400 C 0.44442 0.01787 0.35224 0.0
H401 H 0.52847 0.12808 0.33816 0.0
C402 C 0.47356 0.00169 0.35963 0.0
C403 C 0.46411 0.06368 0.34419 0.0
C404 C 0.43383 0.0825 0.33633 0.0
C405 C 0.52212 0.03035 0.3594 0.0
C406 C 0.54189 0.07667 0.35193 0.0
C407 C 0.51292 0.09264 0.34404 0.0
C408 C 0.59279 0.10854 0.35253 0.0
C409 C 0.55199 0.01083 0.36713 0.0
C410 C 0.61531 0.12241 0.37138 0.0
C411 C 0.66379 0.1436 0.37243 0.0
C412 C 0.69047 0.15138 0.35459 0.0
C413 C 0.668 0.14142 0.33556 0.0
C414 C 0.61937 0.11998 0.33456 0.0
H415 H 0.53216 0.97205 0.36807 0.0
H416 H 0.58292 0.02181 0.35709 0.0
H417 H 0.56468 0.02445 0.38263 0.0
H418 H 0.59515 0.11419 0.38539 0.0
H419 H 0.68003 0.15137 0.3873 0.0
H420 H 0.98646 0.21355 0.0429 0.0
H421 H 0.91893 0.13419 0.04656 0.0
H422 H -0.0087 0.08041 1.01094 0.0
H423 H 0.05875 0.159 1.00763 0.0
H424 H 0.88823 0.0403 1.00327 0.0
H425 H 0.93877 0.04129 0.08455 0.0
H426 H 0.92931 0.08696 0.07474 0.0
H427 H 0.97965 0.08403 0.06669 0.0
C428 C 0.98742 0.18466 0.03565 0.0
C429 C 0.02771 0.19187 0.02521 0.0
C430 C 0.94895 0.13966 0.03768 0.0
C431 C 0.95051 0.10173 0.02911 0.0
C432 C 0.98954 0.10947 1.01755 0.0
H433 H 0.91625 0.85186 1.0146 0.0
H434 H 0.92177 0.92836 1.01492 0.0
C435 C 0.02795 0.15423 1.01565 0.0
C436 C 0.91483 0.05319 0.0339 0.0
H437 H 0.89729 0.96857 0.06856 0.0
C438 C 0.88859 0.02455 1.01779 0.0
C439 C 0.91497 0.03298 0.05296 0.0
C440 C 0.94208 0.06264 0.07082 0.0
C441 C 0.86689 0.97589 1.01953 0.0
C442 C 0.87259 0.95597 0.03765 0.0
C443 C 0.89356 0.98424 0.05462 0.0
C444 C 0.86728 0.909 0.03762 0.0
C445 C 0.84152 0.94637 1.00138 0.0
C446 C 0.83622 0.87362 0.05094 0.0
C447 C 0.83317 0.82982 0.05078 0.0
C448 C 0.86153 0.82151 0.03747 0.0
C449 C 0.89371 0.85754 0.02478 0.0
C450 C 0.89653 0.90092 0.02483 0.0
H451 H 0.8259 0.96325 0.99207 0.0
H452 H 0.86673 0.94246 0.99156 0.0
H453 H 0.81353 0.91102 1.00619 0.0
H454 H 0.81409 0.87972 0.06118 0.0
H455 H 0.80809 0.80223 0.06067 0.0
H456 H 0.05289 0.91603 0.35188 0.0
H457 H 0.98076 0.91943 0.34933 0.0
H458 H 0.90577 0.78832 0.38201 0.0
H459 H 0.97852 0.78496 0.38459 0.0
H460 H 0.88962 0.8401 0.33116 0.0
H461 H 0.88005 0.8891 0.41154 0.0
H462 H 0.93563 0.90159 0.40098 0.0
H463 H 0.89119 0.84222 0.40571 0.0
C464 C 0.02105 0.88828 0.35867 0.0
C465 C 0.02071 0.85033 0.36841 0.0
C466 C 0.98 0.89 0.3571 0.0
C467 C 0.93816 0.85387 0.36532 0.0
C468 C 0.93786 0.81635 0.37556 0.0
H469 H 0.75834 0.97333 0.36801 0.0
H470 H 0.76543 0.90289 0.36926 0.0
C471 C 0.97918 0.81464 0.37713 0.0
C472 C 0.89564 0.85712 0.36307 0.0
H473 H 0.84283 0.91005 0.38651 0.0
C474 C 0.87785 0.85378 0.34338 0.0
C475 C 0.87983 0.87392 0.37914 0.0
C476 C 0.89738 0.87697 0.4006 0.0
C477 C 0.84898 0.87234 0.33885 0.0
C478 C 0.8387 0.89534 0.35435 0.0
C479 C 0.85122 0.89281 0.37457 0.0
C480 C 0.82611 0.9313 0.34946 0.0
C481 C 0.8329 0.87053 0.31722 0.0
C482 C 0.85719 0.97001 0.33752 0.0
C483 C 0.85361 0.01025 0.33704 0.0
C484 C 0.81904 0.01237 0.34857 0.0
C485 C 0.78572 0.97249 0.35924 0.0
C486 C 0.78944 0.93223 0.35982 0.0
H487 H 0.82609 0.83759 0.30981 0.0
H488 H 0.80074 0.8732 0.31655 0.0
H489 H 0.86088 0.89998 0.30834 0.0
H490 H 0.88655 0.9706 0.32986 0.0
H491 H 0.87984 0.04074 0.32884 0.0
H492 H 0.21407 0.21982 0.71088 0.0
H493 H 0.1359 0.21173 0.71196 0.0
H494 H 0.08226 0.08664 0.67598 0.0
H495 H 0.15957 0.09411 0.6752 0.0
H496 H 0.04876 0.15401 0.6657 0.0
H497 H 0.03298 0.10063 0.74763 0.0
H498 H 0.08194 0.15491 0.73885 0.0
H499 H 0.07746 0.10057 0.73165 0.0
C500 C 0.18547 0.1909 0.70309 0.0
C501 C 0.19229 0.15719 0.69315 0.0
C502 C 0.14118 0.18653 0.70362 0.0
C503 C 0.1036 0.14856 0.69411 0.0
C504 C 0.11108 0.11637 0.68328 0.0
H505 H 0.85333 0.94065 0.67297 0.0
H506 H 0.92943 0.01199 0.67336 0.0
C507 C 0.15509 0.12059 0.68285 0.0
C508 C 0.0552 0.13816 0.69703 0.0
H509 H 0.9638 0.07284 0.72904 0.0
C510 C 0.03013 0.13782 0.67976 0.0
C511 C 0.03126 0.11784 0.71549 0.0
C512 C 0.057 0.11831 0.73455 0.0
C513 C 0.98125 0.11267 0.67983 0.0
C514 C 0.95748 0.08675 0.69745 0.0
C515 C 0.98234 0.09234 0.71548 0.0
C516 C 0.90982 0.04632 0.69617 0.0
C517 C 0.95565 0.11092 0.66057 0.0
C518 C 0.87415 0.04147 0.70935 0.0
C519 C 0.83064 0.00051 0.70916 0.0
C520 C 0.82276 0.964 0.69597 0.0
C521 C 0.85862 0.96876 0.68302 0.0
C522 C 0.90179 0.00959 0.68311 0.0
H523 H 0.97476 0.14436 0.65191 0.0
H524 H 0.95341 0.08277 0.65066 0.0
H525 H 0.91969 0.10373 0.66391 0.0
H526 H 0.88012 0.06912 0.71981 0.0
H527 H 0.80317 -0.00268 0.71925 0.0
H528 H 0.19904 0.23256 0.94218 0.0
H529 H 0.22447 0.20281 0.91375 0.0
H530 H 0.27158 0.33255 0.88107 0.0
H531 H 0.24772 0.36304 0.90963 0.0
H532 H 0.19479 0.19097 0.87325 0.0
H533 H 0.38511 0.31478 0.8775 0.0
H534 H 0.34548 0.30685 0.89814 0.0
H535 H 0.351 0.34327 0.87658 0.0
C536 C 0.21599 0.25529 0.92924 0.0
C537 C 0.22247 0.30073 0.92847 0.0
C538 C 0.23001 0.23798 0.91286 0.0
C539 C 0.25088 0.26581 0.89545 0.0
C540 C 0.25667 0.31084 0.89453 0.0
H541 H 0.34134 0.24386 0.77523 0.0
H542 H 0.32146 0.26662 0.80745 0.0
C543 C 0.24263 0.32808 0.91083 0.0
C544 C 0.26492 0.24741 0.87782 0.0
H545 H 0.35749 0.27109 0.84677 0.0
C546 C 0.23046 0.20808 0.8676 0.0
C547 C 0.31149 0.2698 0.87045 0.0
C548 C 0.35051 0.31074 0.88134 0.0
C549 C 0.24093 0.19169 0.84974 0.0
C550 C 0.28729 0.21485 0.84209 0.0
C551 C 0.32194 0.25349 0.85259 0.0
C552 C 0.30021 0.20074 0.82276 0.0
C553 C 0.20195 0.15088 0.83876 0.0
C554 C 0.29563 0.15635 0.82074 0.0
C555 C 0.30702 0.14317 0.8023 0.0
C556 C 0.32343 0.17425 0.78554 0.0
C557 C 0.32882 0.21901 0.78779 0.0
C558 C 0.31746 0.23212 0.80621 0.0
H559 H 0.16699 0.14372 0.84403 0.0
H560 H 0.20469 0.15733 0.82204 0.0
H561 H 0.20451 0.11913 0.8417 0.0
H562 H 0.28322 0.13187 0.83343 0.0
H563 H 0.30261 0.10852 0.80114 0.0
H564 H 0.18121 0.29919 0.13112 0.0
H565 H 0.13473 0.27665 0.16263 0.0
H566 H 0.04571 0.32437 0.13702 0.0
H567 H 0.09137 0.34634 0.10545 0.0
H568 H 0.11375 0.32846 0.19004 0.0
H569 H 0.95292 0.18984 0.15389 0.0
H570 H 0.00932 0.21625 0.14146 0.0
H571 H 0.976 0.24576 0.14153 0.0
C572 C 0.15185 0.30506 0.13221 0.0
C573 C 0.13987 0.3243 0.11566 0.0
C574 C 0.12532 0.29214 0.15024 0.0
C575 C 0.0862 0.29798 0.15204 0.0
C576 C 0.0751 0.31855 0.13581 0.0
H577 H 0.87429 0.24868 0.24105 0.0
H578 H 0.92758 0.27125 0.2119 0.0
C579 C 0.10149 0.3314 0.1178 0.0
C580 C 0.0567 0.28239 0.17079 0.0
H581 H 0.94469 0.21155 0.18752 0.0
C582 C 0.07687 0.30262 0.18955 0.0
C583 C 0.00863 0.24844 0.17015 0.0
C584 C 0.98547 0.22344 0.15072 0.0
C585 C 0.04986 0.29108 0.20753 0.0
C586 C 0.00156 0.25801 0.20675 0.0
C587 C 0.98166 0.23712 0.18807 0.0
C588 C 0.97056 0.24551 0.22495 0.0
C589 C 0.07286 0.31543 0.22707 0.0
C590 C 0.97671 0.22312 0.24196 0.0
C591 C 0.94611 0.21001 0.2587 0.0
C592 C 0.90885 0.21918 0.25875 0.0
C593 C 0.90273 0.2413 0.24159 0.0
C594 C 0.93321 0.2543 0.22491 0.0
H595 H 0.10758 0.34684 0.22427 0.0
H596 H 0.0505 0.32612 0.23543 0.0
H597 H 0.07788 0.291 0.23701 0.0
H598 H 0.00453 0.21483 0.2421 0.0
H599 H 0.95091 0.1914 0.2712 0.0
H600 H 0.77336 0.0595 0.43387 0.0
H601 H 0.75071 0.01561 0.46594 0.0
H602 H 0.76288 0.13586 0.49695 0.0
H603 H 0.78469 0.17987 0.46475 0.0
H604 H 0.79879 0.03253 0.50147 0.0
H605 H 0.63389 0.03453 0.51506 0.0
H606 H 0.66434 0.05115 0.49089 0.0
H607 H 0.68455 0.09132 0.51181 0.0
C608 C 0.77112 0.07669 0.44746 0.0
C609 C 0.78064 0.12322 0.44666 0.0
C610 C 0.75814 0.05148 0.46583 0.0
C611 C 0.75428 0.07209 0.48383 0.0
C612 C 0.76448 0.11878 0.48318 0.0
H613 H 0.69423 0.96162 0.60901 0.0
H614 H 0.71274 0.01206 0.57886 0.0
C615 C 0.77729 0.14403 0.46477 0.0
C616 C 0.74075 0.04481 0.50327 0.0
H617 H 0.65818 0.00171 0.54124 0.0
C618 C 0.76803 0.02582 0.51013 0.0
C619 C 0.70066 0.03614 0.51466 0.0
C620 C 0.66887 0.05396 0.50769 0.0
C621 C 0.75633 -0.00161 0.52797 0.0
C622 C 0.71595 0.98919 0.53917 0.0
C623 C 0.6891 0.00884 0.5326 0.0
C624 C 0.70042 0.95783 0.55734 0.0
C625 C 0.78742 0.97958 0.53476 0.0
C626 C 0.68599 0.91033 0.55519 0.0
C627 C 0.67472 0.88127 0.57235 0.0
C628 C 0.67728 0.89894 0.59206 0.0
C629 C 0.69036 0.94632 0.59412 0.0
C630 C 0.70154 0.97542 0.57688 0.0
H631 H 0.82245 -0.00138 0.5274 0.0
H632 H 0.79187 0.98196 0.55157 0.0
H633 H 0.77106 0.94221 0.53053 0.0
H634 H 0.68433 0.8959 0.54023 0.0
H635 H 0.66485 0.84501 0.5702 0.0
H636 H 0.68556 0.74643 0.77003 0.0
H637 H 0.70335 0.72204 0.80233 0.0
H638 H 0.69362 0.83177 0.83321 0.0
H639 H 0.67425 0.85557 0.80088 0.0
H640 H 0.77544 0.76805 0.82633 0.0
H641 H 0.6148 0.72268 0.87035 0.0
H642 H 0.61921 0.73313 0.84317 0.0
H643 H 0.64347 0.78142 0.86057 0.0
C644 C 0.68688 0.76529 0.78369 0.0
C645 C 0.67836 0.80295 0.78285 0.0
C646 C 0.69703 0.75122 0.80219 0.0
C647 C 0.69915 0.77451 0.82033 0.0
C648 C 0.69097 0.81238 0.81955 0.0
H649 H 0.85147 0.76961 0.92641 0.0
H650 H 0.82181 0.78971 0.89628 0.0
C651 C 0.68029 0.82623 0.80102 0.0
C652 C 0.71241 0.76046 0.83971 0.0
H653 H 0.67847 0.72665 0.88915 0.0
C654 C 0.75403 0.75879 0.84001 0.0
C655 C 0.68422 0.74762 0.85753 0.0
C656 C 0.6377 0.7458 0.85789 0.0
C657 C 0.76862 0.74543 0.85762 0.0
C658 C 0.74158 0.73469 0.87572 0.0
C659 C 0.69945 0.7354 0.87536 0.0
C660 C 0.75721 0.72355 0.89515 0.0
C661 C 0.81258 0.74224 0.85652 0.0
C662 C 0.72975 0.68047 0.90521 0.0
C663 C 0.74645 0.66908 0.92274 0.0
C664 C 0.79085 0.70065 0.93042 0.0
C665 C 0.81738 0.74429 0.9207 0.0
C666 C 0.80055 0.75579 0.90342 0.0
H667 H 0.82079 0.73735 0.8406 0.0
H668 H 0.8424 0.77523 0.86218 0.0
H669 H 0.80949 0.71289 0.86603 0.0
H670 H 0.69607 0.65512 0.89915 0.0
H671 H 0.72546 0.63501 0.92975 0.0
H672 H 0.80886 0.67056 0.13629 0.0
H673 H 0.85096 0.69055 0.16878 0.0
H674 H 0.96294 0.67933 0.14063 0.0
H675 H 0.92196 0.66071 0.10816 0.0
H676 H 0.88337 0.64568 0.19375 0.0
H677 H 0.03166 0.80992 0.16335 0.0
H678 H 0.97776 0.77716 0.14961 0.0
H679 H 0.02139 0.75976 0.14894 0.0
C680 C 0.84241 0.67226 0.13705 0.0
C681 C 0.8623 0.66463 0.11956 0.0
C682 C 0.86639 0.68361 0.15564 0.0
C683 C 0.91058 0.68741 0.15705 0.0
C684 C 0.92951 0.67786 0.1398 0.0
H685 H 0.06685 0.70672 0.268 0.0
H686 H 0.01515 0.67779 0.23831 0.0
C687 C 0.90588 0.66702 0.12124 0.0
C688 C 0.9376 0.70241 0.17633 0.0
H689 H 0.04247 0.78432 0.19575 0.0
C690 C 0.91807 0.67613 0.19425 0.0
C691 C 0.98262 0.74256 0.17706 0.0
C692 C 0.00443 0.77426 0.15877 0.0
C693 C 0.94267 0.68849 0.21278 0.0
C694 C 0.98844 0.72759 0.21328 0.0
C695 C 0.0076 0.75408 0.19539 0.0
C696 C 0.01682 0.74317 0.23223 0.0
C697 C 0.91896 0.66017 0.23169 0.0
C698 C 0.03556 0.78959 0.23858 0.0
C699 C 0.06556 0.80623 0.25523 0.0
C700 C 0.07722 0.77675 0.26613 0.0
C701 C 0.05776 0.72996 0.26013 0.0
C702 C 0.02809 0.71339 0.2432 0.0
H703 H 0.88035 0.64047 0.23007 0.0
H704 H 0.9307 0.63446 0.23436 0.0
H705 H 0.92795 0.68284 0.2453 0.0
H706 H 0.02749 0.81329 0.23043 0.0
H707 H 0.07985 0.84242 0.25955 0.0
H708 H 0.2333 0.02342 0.6137 0.0
H709 H 0.20228 0.968 0.58565 0.0
H710 H 0.32639 0.05521 0.55022 0.0
H711 H 0.35868 0.10944 0.57853 0.0
H712 H 0.18132 0.98027 0.54711 0.0
H713 H 0.3176 0.92989 0.54421 0.0
H714 H 0.31182 0.96119 0.56543 0.0
H715 H 0.34223 0.99201 0.54257 0.0
C716 C 0.25478 0.03014 0.60027 0.0
C717 C 0.29929 0.07028 0.59873 0.0
C718 C 0.23662 -0.00136 0.58407 0.0
C719 C 0.26248 0.00672 0.56598 0.0
C720 C 0.30634 0.04735 0.56423 0.0
H721 H 0.2231 0.91544 0.44302 0.0
H722 H 0.24482 0.95479 0.47588 0.0
C723 C 0.32457 0.07862 0.5804 0.0
C724 C 0.24308 0.97399 0.54855 0.0
H725 H 0.26966 0.91286 0.5144 0.0
C726 C 0.20026 0.96489 0.54017 0.0
C727 C 0.26762 0.95363 0.53953 0.0
C728 C 0.3121 0.95926 0.54854 0.0
C729 C 0.18254 0.93789 0.52249 0.0
C730 C 0.20827 0.91957 0.51299 0.0
C731 C 0.2502 0.92726 0.5217 0.0
C732 C 0.19386 0.89504 0.49324 0.0
C733 C 0.13737 0.93046 0.51354 0.0
C734 C 0.158 0.84826 0.49217 0.0
C735 C 0.14557 0.82537 0.47335 0.0
C736 C 0.1687 0.84907 0.45532 0.0
C737 C 0.20443 0.89608 0.45655 0.0
C738 C 0.21699 0.91869 0.47532 0.0
H739 H 0.12257 0.94886 0.52223 0.0
H740 H 0.14314 0.94303 0.49747 0.0
H741 H 0.11138 0.89254 0.51347 0.0
H742 H 0.1399 0.82942 0.50589 0.0
H743 H 0.1179 0.78922 0.47294 0.0
loop_
_geom_bond_atom_site_label_1
_geom_bond_atom_site_label_2
_geom_bond_distance
_geom_bond_site_symmetry_2
_ccdc_geom_bond_type
Co0 O3 1.970 . S
Co0 N17 1.989 . S
Co0 O25 1.967 . S
Co0 O32 1.920 . S
Co1 O4 1.966 . S
Co1 N10 2.022 . S
Co1 N18 1.993 . S
Co1 O26 1.941 . S
C2 O3 1.258 . S
C2 O4 1.263 1_554 S
O3 Co0 1.970 . S
O3 C2 1.258 . S
O4 Co1 1.966 . S
O4 C2 1.263 1_556 S
C5 O6 1.235 . S
C5 O32 1.289 . S
O6 C5 1.235 . S
C7 C9 1.400 . S
C7 N10 1.351 . S
C7 C12 1.501 . S
C8 C9 1.387 . S
C8 N11 1.341 . S
C9 C7 1.400 . S
C9 C8 1.387 . S
N10 Co1 2.022 . S
N10 C7 1.351 . S
N10 N11 1.365 . S
N11 C8 1.341 . S
N11 N10 1.365 . S
N11 H31 0.862 . S
C12 C7 1.501 . S
C12 H13 0.961 . S
C12 H14 0.961 . S
C12 H15 0.960 . S
H13 C12 0.961 . S
H14 C12 0.961 . S
H15 C12 0.960 . S
C16 N17 1.342 . S
C16 C20 1.401 . S
C16 C21 1.499 . S
N17 Co0 1.989 . S
N17 C16 1.342 . S
N17 N18 1.388 1_554 S
N18 Co1 1.993 . S
N18 N17 1.388 1_556 S
N18 C19 1.346 . S
C19 N18 1.346 . S
C19 C20 1.396 1_556 S
C19 C29 1.510 . S
C20 C16 1.401 . S
C20 C19 1.396 1_554 S
C21 C16 1.499 . S
C21 H22 0.959 . S
C21 H23 0.960 . S
C21 H24 0.961 . S
H22 C21 0.959 . S
H23 C21 0.960 . S
H24 C21 0.961 . S
O25 Co0 1.967 . S
O25 C33 1.258 . S
O26 Co1 1.941 . S
O26 C33 1.266 1_556 S
H27 C29 0.959 . S
H28 C29 0.961 . S
C29 C19 1.510 . S
C29 H27 0.959 . S
C29 H28 0.961 . S
C29 H30 0.960 . S
H30 C29 0.960 . S
H31 N11 0.862 . S
O32 Co0 1.920 . S
O32 C5 1.289 . S
C33 O25 1.258 . S
C33 O26 1.266 1_554 S
Co34 O37 1.970 . S
Co34 N51 1.989 . S
Co34 O59 1.967 . S
Co34 O66 1.920 . S
Co35 O38 1.966 . S
Co35 N44 2.022 . S
Co35 N52 1.993 . S
Co35 O60 1.941 . S
C36 O37 1.258 . S
C36 O38 1.263 . S
O37 Co34 1.970 . S
O37 C36 1.258 . S
O38 Co35 1.966 . S
O38 C36 1.263 . S
C39 O40 1.235 . S
C39 O66 1.289 . S
O40 C39 1.235 . S
C41 C43 1.400 . S
C41 N44 1.351 . S
C41 C46 1.501 . S
C42 C43 1.387 . S
C42 N45 1.341 . S
C43 C41 1.400 . S
C43 C42 1.387 . S
N44 Co35 2.022 . S
N44 C41 1.351 . S
N44 N45 1.365 . S
N45 C42 1.341 . S
N45 N44 1.365 . S
N45 H65 0.862 . S
C46 C41 1.501 . S
C46 H47 0.961 . S
C46 H48 0.961 . S
C46 H49 0.960 . S
H47 C46 0.961 . S
H48 C46 0.961 . S
H49 C46 0.960 . S
C50 N51 1.342 . S
C50 C54 1.401 . S
C50 C55 1.499 . S
N51 Co34 1.989 . S
N51 C50 1.342 . S
N51 N52 1.388 . S
N52 Co35 1.993 . S
N52 N51 1.388 . S
N52 C53 1.346 . S
C53 N52 1.346 . S
C53 C54 1.396 . S
C53 C63 1.510 . S
C54 C50 1.401 . S
C54 C53 1.396 . S
C55 C50 1.499 . S
C55 H56 0.959 . S
C55 H57 0.960 . S
C55 H58 0.961 . S
H56 C55 0.959 . S
H57 C55 0.960 . S
H58 C55 0.961 . S
O59 Co34 1.967 . S
O59 C67 1.258 . S
O60 Co35 1.941 . S
O60 C67 1.266 . S
H61 C63 0.959 . S
H62 C63 0.961 . S
C63 C53 1.510 . S
C63 H61 0.959 . S
C63 H62 0.961 . S
C63 H64 0.960 . S
H64 C63 0.960 . S
H65 N45 0.862 . S
O66 Co34 1.920 . S
O66 C39 1.289 . S
C67 O59 1.258 . S
C67 O60 1.266 . S
Co68 O71 1.970 . S
Co68 N85 1.989 . S
Co68 O93 1.967 . S
Co68 O100 1.920 . S
Co69 O72 1.966 . S
Co69 N78 2.022 . S
Co69 N86 1.993 . S
Co69 O94 1.941 . S
C70 O71 1.258 . S
C70 O72 1.263 . S
O71 Co68 1.970 . S
O71 C70 1.258 . S
O72 Co69 1.966 . S
O72 C70 1.263 . S
C73 O74 1.235 . S
C73 O100 1.289 . S
O74 C73 1.235 . S
C75 C77 1.400 . S
C75 N78 1.351 . S
C75 C80 1.501 . S
C76 C77 1.387 . S
C76 N79 1.341 . S
C77 C75 1.400 . S
C77 C76 1.387 . S
N78 Co69 2.022 . S
N78 C75 1.351 . S
N78 N79 1.365 . S
N79 C76 1.341 . S
N79 N78 1.365 . S
N79 H99 0.862 . S
C80 C75 1.501 . S
C80 H81 0.961 . S
C80 H82 0.961 . S
C80 H83 0.960 . S
H81 C80 0.961 . S
H82 C80 0.961 . S
H83 C80 0.960 . S
C84 N85 1.342 . S
C84 C88 1.401 . S
C84 C89 1.499 . S
N85 Co68 1.989 . S
N85 C84 1.342 . S
N85 N86 1.388 . S
N86 Co69 1.993 . S
N86 N85 1.388 . S
N86 C87 1.346 . S
C87 N86 1.346 . S
C87 C88 1.396 . S
C87 C97 1.510 . S
C88 C84 1.401 . S
C88 C87 1.396 . S
C89 C84 1.499 . S
C89 H90 0.959 . S
C89 H91 0.960 . S
C89 H92 0.961 . S
H90 C89 0.959 . S
H91 C89 0.960 . S
H92 C89 0.961 . S
O93 Co68 1.967 . S
O93 C101 1.258 . S
O94 Co69 1.941 . S
O94 C101 1.266 . S
H95 C97 0.959 . S
H96 C97 0.961 . S
C97 C87 1.510 . S
C97 H95 0.959 . S
C97 H96 0.961 . S
C97 H98 0.960 . S
H98 C97 0.960 . S
H99 N79 0.862 . S
O100 Co68 1.920 . S
O100 C73 1.289 . S
C101 O93 1.258 . S
C101 O94 1.266 . S
Co102 O105 1.970 . S
Co102 N119 1.989 . S
Co102 O127 1.967 . S
Co102 O134 1.920 . S
Co103 O106 1.966 . S
Co103 N112 2.022 . S
Co103 N120 1.993 . S
Co103 O128 1.941 . S
C104 O105 1.258 . S
C104 O106 1.263 1_554 S
O105 Co102 1.970 . S
O105 C104 1.258 . S
O106 Co103 1.966 . S
O106 C104 1.263 1_556 S
C107 O108 1.235 . S
C107 O134 1.289 . S
O108 C107 1.235 . S
C109 C111 1.400 . S
C109 N112 1.351 . S
C109 C114 1.501 . S
C110 C111 1.387 . S
C110 N113 1.341 . S
C111 C109 1.400 . S
C111 C110 1.387 . S
N112 Co103 2.022 . S
N112 C109 1.351 . S
N112 N113 1.365 . S
N113 C110 1.341 . S
N113 N112 1.365 . S
N113 H133 0.862 . S
C114 C109 1.501 . S
C114 H115 0.961 . S
C114 H116 0.961 . S
C114 H117 0.960 . S
H115 C114 0.961 . S
H116 C114 0.961 . S
H117 C114 0.960 . S
C118 N119 1.342 . S
C118 C122 1.401 . S
C118 C123 1.499 . S
N119 Co102 1.989 . S
N119 C118 1.342 . S
N119 N120 1.388 1_554 S
N120 Co103 1.993 . S
N120 N119 1.388 1_556 S
N120 C121 1.346 . S
C121 N120 1.346 . S
C121 C122 1.396 1_556 S
C121 C131 1.510 . S
C122 C118 1.401 . S
C122 C121 1.396 1_554 S
C123 C118 1.499 . S
C123 H124 0.959 . S
C123 H125 0.960 . S
C123 H126 0.961 . S
H124 C123 0.959 . S
H125 C123 0.960 . S
H126 C123 0.961 . S
O127 Co102 1.967 . S
O127 C135 1.258 . S
O128 Co103 1.941 . S
O128 C135 1.266 1_556 S
H129 C131 0.959 . S
H130 C131 0.961 . S
C131 C121 1.510 . S
C131 H129 0.959 . S
C131 H130 0.961 . S
C131 H132 0.960 . S
H132 C131 0.960 . S
H133 N113 0.862 . S
O134 Co102 1.920 . S
O134 C107 1.289 . S
C135 O127 1.258 . S
C135 O128 1.266 1_554 S
Co136 O139 1.970 . S
Co136 N153 1.989 . S
Co136 O161 1.967 . S
Co136 O168 1.920 . S
Co137 O140 1.966 . S
Co137 N146 2.022 . S
Co137 N154 1.993 . S
Co137 O162 1.941 . S
C138 O139 1.258 . S
C138 O140 1.263 . S
O139 Co136 1.970 . S
O139 C138 1.258 . S
O140 Co137 1.966 . S
O140 C138 1.263 . S
C141 O142 1.235 . S
C141 O168 1.289 . S
O142 C141 1.235 . S
C143 C145 1.400 . S
C143 N146 1.351 . S
C143 C148 1.501 . S
C144 C145 1.387 . S
C144 N147 1.341 . S
C145 C143 1.400 . S
C145 C144 1.387 . S
N146 Co137 2.022 . S
N146 C143 1.351 . S
N146 N147 1.365 . S
N147 C144 1.341 . S
N147 N146 1.365 . S
N147 H167 0.862 . S
C148 C143 1.501 . S
C148 H149 0.961 . S
C148 H150 0.961 . S
C148 H151 0.960 . S
H149 C148 0.961 . S
H150 C148 0.961 . S
H151 C148 0.960 . S
C152 N153 1.342 . S
C152 C156 1.401 . S
C152 C157 1.499 . S
N153 Co136 1.989 . S
N153 C152 1.342 . S
N153 N154 1.388 . S
N154 Co137 1.993 . S
N154 N153 1.388 . S
N154 C155 1.346 . S
C155 N154 1.346 . S
C155 C156 1.396 . S
C155 C165 1.510 . S
C156 C152 1.401 . S
C156 C155 1.396 . S
C157 C152 1.499 . S
C157 H158 0.959 . S
C157 H159 0.960 . S
C157 H160 0.961 . S
H158 C157 0.959 . S
H159 C157 0.960 . S
H160 C157 0.961 . S
O161 Co136 1.967 . S
O161 C169 1.258 . S
O162 Co137 1.941 . S
O162 C169 1.266 . S
H163 C165 0.959 . S
H164 C165 0.961 . S
C165 C155 1.510 . S
C165 H163 0.959 . S
C165 H164 0.961 . S
C165 H166 0.960 . S
H166 C165 0.960 . S
H167 N147 0.862 . S
O168 Co136 1.920 . S
O168 C141 1.289 . S
C169 O161 1.258 . S
C169 O162 1.266 . S
Co170 O173 1.970 . S
Co170 N187 1.989 . S
Co170 O195 1.967 . S
Co170 O202 1.920 . S
Co171 O174 1.966 . S
Co171 N180 2.022 . S
Co171 N188 1.993 . S
Co171 O196 1.941 . S
C172 O173 1.258 . S
C172 O174 1.263 . S
O173 Co170 1.970 . S
O173 C172 1.258 . S
O174 Co171 1.966 . S
O174 C172 1.263 . S
C175 O176 1.235 . S
C175 O202 1.289 . S
O176 C175 1.235 . S
C177 C179 1.400 . S
C177 N180 1.351 . S
C177 C182 1.501 . S
C178 C179 1.387 . S
C178 N181 1.341 . S
C179 C177 1.400 . S
C179 C178 1.387 . S
N180 Co171 2.022 . S
N180 C177 1.351 . S
N180 N181 1.365 . S
N181 C178 1.341 . S
N181 N180 1.365 . S
N181 H201 0.862 . S
C182 C177 1.501 . S
C182 H183 0.961 . S
C182 H184 0.961 . S
C182 H185 0.960 . S
H183 C182 0.961 . S
H184 C182 0.961 . S
H185 C182 0.960 . S
C186 N187 1.342 . S
C186 C190 1.401 . S
C186 C191 1.499 . S
N187 Co170 1.989 . S
N187 C186 1.342 . S
N187 N188 1.388 . S
N188 Co171 1.993 . S
N188 N187 1.388 . S
N188 C189 1.346 . S
C189 N188 1.346 . S
C189 C190 1.396 . S
C189 C199 1.510 . S
C190 C186 1.401 . S
C190 C189 1.396 . S
C191 C186 1.499 . S
C191 H192 0.959 . S
C191 H193 0.960 . S
C191 H194 0.961 . S
H192 C191 0.959 . S
H193 C191 0.960 . S
H194 C191 0.961 . S
O195 Co170 1.967 . S
O195 C203 1.258 . S
O196 Co171 1.941 . S
O196 C203 1.266 . S
H197 C199 0.959 . S
H198 C199 0.961 . S
C199 C189 1.510 . S
C199 H197 0.959 . S
C199 H198 0.961 . S
C199 H200 0.960 . S
H200 C199 0.960 . S
H201 N181 0.862 . S
O202 Co170 1.920 . S
O202 C175 1.289 . S
C203 O195 1.258 . S
C203 O196 1.266 . S
H204 C212 0.929 . S
H205 C214 0.930 . S
H206 C216 0.930 . S
H207 C219 0.929 . S
H208 C222 0.930 . S
H209 C224 0.960 . S
H210 C224 0.960 . S
H211 C224 0.960 . S
C212 H204 0.929 . S
C212 C213 1.377 . S
C212 C214 1.384 . S
C213 C212 1.377 . S
C213 C219 1.390 1_554 S
C214 H205 0.930 . S
C214 C212 1.384 . S
C214 C215 1.372 . S
C215 C214 1.372 . S
C215 C216 1.400 1_554 S
C215 C220 1.490 . S
C216 H206 0.930 . S
C216 C215 1.400 1_556 S
C216 C219 1.386 . S
H217 C233 0.950 . S
H218 C234 0.908 1_556 S
C219 H207 0.929 . S
C219 C213 1.390 1_556 S
C219 C216 1.386 . S
C220 C215 1.490 . S
C220 C222 1.395 . S
C220 C223 1.403 . S
H221 C227 0.930 1_556 S
C222 H208 0.930 . S
C222 C220 1.395 . S
C222 C225 1.403 . S
C223 C220 1.403 . S
C223 C224 1.524 1_554 S
C223 C227 1.400 . S
C224 H209 0.960 . S
C224 H210 0.960 . S
C224 H211 0.960 . S
C224 C223 1.524 1_556 S
C225 C222 1.403 . S
C225 C226 1.392 . S
C225 C229 1.495 . S
C226 C225 1.392 . S
C226 C227 1.385 . S
C226 C228 1.478 . S
C227 H221 0.930 1_554 S
C227 C223 1.400 . S
C227 C226 1.385 . S
C228 C226 1.478 . S
C228 C230 1.381 . S
C228 C234 1.407 . S
C229 C225 1.495 . S
C229 H235 0.959 . S
C229 H236 0.961 . S
C229 H237 0.960 . S
C230 C228 1.381 . S
C230 C231 1.394 . S
C230 H238 0.930 . S
C231 C230 1.394 . S
C231 C232 1.383 . S
C231 H239 0.929 . S
C232 C231 1.383 . S
C232 C233 1.358 1_554 S
C233 H217 0.950 . S
C233 C232 1.358 1_556 S
C233 C234 1.378 1_556 S
C234 H218 0.908 1_554 S
C234 C228 1.407 . S
C234 C233 1.378 1_554 S
H235 C229 0.959 . S
H236 C229 0.961 . S
H237 C229 0.960 . S
H238 C230 0.930 . S
H239 C231 0.929 . S
H240 C248 0.929 . S
H241 C250 0.930 . S
H242 C252 0.930 1_455 S
H243 C255 0.929 . S
H244 C258 0.930 . S
H245 C260 0.960 . S
H246 C260 0.960 . S
H247 C260 0.960 . S
C248 H240 0.929 . S
C248 C249 1.377 . S
C248 C250 1.384 . S
C249 C248 1.377 . S
C249 C255 1.390 . S
C250 H241 0.930 . S
C250 C248 1.384 . S
C250 C251 1.372 . S
C251 C250 1.372 . S
C251 C252 1.400 . S
C251 C256 1.490 . S
C252 H242 0.930 1_655 S
C252 C251 1.400 . S
C252 C255 1.386 . S
H253 C269 0.930 . S
H254 C270 0.931 . S
C255 H243 0.929 . S
C255 C249 1.390 . S
C255 C252 1.386 . S
C256 C251 1.490 . S
C256 C258 1.395 . S
C256 C259 1.403 1_655 S
H257 C263 0.930 . S
C258 H244 0.930 . S
C258 C256 1.395 . S
C258 C261 1.403 . S
C259 C256 1.403 1_455 S
C259 C260 1.524 . S
C259 C263 1.400 . S
C260 H245 0.960 . S
C260 H246 0.960 . S
C260 H247 0.960 . S
C260 C259 1.524 . S
C261 C258 1.403 . S
C261 C262 1.392 1_655 S
C261 C265 1.495 . S
C262 C261 1.392 1_455 S
C262 C263 1.385 . S
C262 C264 1.478 . S
C263 H257 0.930 . S
C263 C259 1.400 . S
C263 C262 1.385 . S
C264 C262 1.478 . S
C264 C266 1.381 . S
C264 C270 1.383 . S
C265 C261 1.495 . S
C265 H271 0.959 . S
C265 H272 0.961 . S
C265 H273 0.960 . S
C266 C264 1.381 . S
C266 C267 1.394 . S
C266 H274 0.930 1_455 S
C267 C266 1.394 . S
C267 C268 1.383 . S
C267 H275 0.929 . S
C268 C267 1.383 . S
C268 C269 1.377 . S
C269 H253 0.930 . S
C269 C268 1.377 . S
C269 C270 1.379 . S
C270 H254 0.931 . S
C270 C264 1.383 . S
C270 C269 1.379 . S
H271 C265 0.959 . S
H272 C265 0.961 . S
H273 C265 0.960 . S
H274 C266 0.930 1_655 S
H275 C267 0.929 . S
H276 C284 0.929 . S
H277 C286 0.930 . S
H278 C288 0.930 1_565 S
H279 C291 0.929 . S
H280 C294 0.930 . S
H281 C296 0.960 . S
H282 C296 0.960 . S
H283 C296 0.960 . S
C284 H276 0.929 . S
C284 C285 1.377 . S
C284 C286 1.384 . S
C285 C284 1.377 . S
C285 C291 1.390 . S
C286 H277 0.930 . S
C286 C284 1.384 . S
C286 C287 1.372 . S
C287 C286 1.372 . S
C287 C288 1.400 . S
C287 C292 1.490 . S
C288 H278 0.930 1_545 S
C288 C287 1.400 . S
C288 C291 1.386 . S
H289 C305 0.930 . S
H290 C306 0.931 . S
C291 H279 0.929 . S
C291 C285 1.390 . S
C291 C288 1.386 . S
C292 C287 1.490 . S
C292 C294 1.395 . S
C292 C295 1.403 1_545 S
H293 C299 0.930 . S
C294 H280 0.930 . S
C294 C292 1.395 . S
C294 C297 1.403 . S
C295 C292 1.403 1_565 S
C295 C296 1.524 . S
C295 C299 1.400 . S
C296 H281 0.960 . S
C296 H282 0.960 . S
C296 H283 0.960 . S
C296 C295 1.524 . S
C297 C294 1.403 . S
C297 C298 1.392 1_545 S
C297 C301 1.495 . S
C298 C297 1.392 1_565 S
C298 C299 1.385 . S
C298 C300 1.478 . S
C299 H293 0.930 . S
C299 C295 1.400 . S
C299 C298 1.385 . S
C300 C298 1.478 . S
C300 C302 1.381 . S
C300 C306 1.383 . S
C301 C297 1.495 . S
C301 H307 0.959 . S
C301 H308 0.961 . S
C301 H309 0.960 . S
C302 C300 1.381 . S
C302 C303 1.394 . S
C302 H310 0.930 1_565 S
C303 C302 1.394 . S
C303 C304 1.383 . S
C303 H311 0.929 . S
C304 C303 1.383 . S
C304 C305 1.377 . S
C305 H289 0.930 . S
C305 C304 1.377 . S
C305 C306 1.379 . S
C306 H290 0.931 . S
C306 C300 1.383 . S
C306 C305 1.379 . S
H307 C301 0.959 . S
H308 C301 0.961 . S
H309 C301 0.960 . S
H310 C302 0.930 1_545 S
H311 C303 0.929 . S
H312 C320 0.929 . S
H313 C322 0.930 . S
H314 C324 0.930 . S
H315 C327 0.929 . S
H316 C330 0.930 . S
H317 C332 0.960 . S
H318 C332 0.960 . S
H319 C332 0.960 . S
C320 H312 0.929 . S
C320 C321 1.377 . S
C320 C322 1.384 . S
C321 C320 1.377 . S
C321 C327 1.390 . S
C322 H313 0.930 . S
C322 C320 1.384 . S
C322 C323 1.372 . S
C323 C322 1.372 . S
C323 C324 1.400 . S
C323 C328 1.490 . S
C324 H314 0.930 . S
C324 C323 1.400 . S
C324 C327 1.386 . S
H325 C341 0.930 . S
H326 C342 0.931 . S
C327 H315 0.929 . S
C327 C321 1.390 . S
C327 C324 1.386 . S
C328 C323 1.490 . S
C328 C330 1.395 . S
C328 C331 1.403 . S
H329 C335 0.930 . S
C330 H316 0.930 . S
C330 C328 1.395 . S
C330 C333 1.403 . S
C331 C328 1.403 . S
C331 C332 1.524 . S
C331 C335 1.400 . S
C332 H317 0.960 . S
C332 H318 0.960 . S
C332 H319 0.960 . S
C332 C331 1.524 . S
C333 C330 1.403 . S
C333 C334 1.392 . S
C333 C337 1.495 . S
C334 C333 1.392 . S
C334 C335 1.385 . S
C334 C336 1.478 . S
C335 H329 0.930 . S
C335 C331 1.400 . S
C335 C334 1.385 . S
C336 C334 1.478 . S
C336 C338 1.381 . S
C336 C342 1.383 . S
C337 C333 1.495 . S
C337 H343 0.959 . S
C337 H344 0.961 . S
C337 H345 0.960 . S
C338 C336 1.381 . S
C338 C339 1.394 . S
C338 H346 0.930 . S
C339 C338 1.394 . S
C339 C340 1.383 . S
C339 H347 0.929 . S
C340 C339 1.383 . S
C340 C341 1.377 . S
C341 H325 0.930 . S
C341 C340 1.377 . S
C341 C342 1.379 . S
C342 H326 0.931 . S
C342 C336 1.383 . S
C342 C341 1.379 . S
H343 C337 0.959 . S
H344 C337 0.961 . S
H345 C337 0.960 . S
H346 C338 0.930 . S
H347 C339 0.929 . S
H348 C356 0.929 . S
H349 C358 0.930 1_455 S
H350 C360 0.930 . S
H351 C363 0.929 . S
H352 C366 0.930 . S
H353 C368 0.960 . S
H354 C368 0.960 . S
H355 C368 0.960 . S
C356 H348 0.929 . S
C356 C357 1.377 1_556 S
C356 C358 1.384 . S
C357 C356 1.377 1_554 S
C357 C363 1.390 . S
C358 H349 0.930 1_655 S
C358 C356 1.384 . S
C358 C359 1.372 1_556 S
C359 C358 1.372 1_554 S
C359 C360 1.400 . S
C359 C364 1.490 . S
C360 H350 0.930 . S
C360 C359 1.400 . S
C360 C363 1.386 . S
H361 C377 0.930 . S
H362 C378 0.931 . S
C363 H351 0.929 . S
C363 C357 1.390 . S
C363 C360 1.386 . S
C364 C359 1.490 . S
C364 C366 1.395 1_655 S
C364 C367 1.403 1_554 S
H365 C371 0.930 . S
C366 H352 0.930 . S
C366 C364 1.395 1_455 S
C366 C369 1.403 . S
C367 C364 1.403 1_556 S
C367 C368 1.524 . S
C367 C371 1.400 . S
C368 H353 0.960 . S
C368 H354 0.960 . S
C368 H355 0.960 . S
C368 C367 1.524 . S
C369 C366 1.403 . S
C369 C370 1.392 . S
C369 C373 1.495 . S
C370 C369 1.392 . S
C370 C371 1.385 1_454 S
C370 C372 1.478 . S
C371 H365 0.930 . S
C371 C367 1.400 . S
C371 C370 1.385 1_656 S
C372 C370 1.478 . S
C372 C374 1.374 1_554 S
C372 C378 1.383 . S
C373 C369 1.495 . S
C373 H379 0.959 . S
C373 H380 0.961 . S
C373 H381 0.960 . S
C374 C372 1.374 1_556 S
C374 C375 1.396 . S
C374 H382 0.936 . S
C375 C374 1.396 . S
C375 C376 1.383 1_556 S
C375 H383 0.929 . S
C376 C375 1.383 1_554 S
C376 C377 1.377 . S
C377 H361 0.930 . S
C377 C376 1.377 . S
C377 C378 1.379 . S
C378 H362 0.931 . S
C378 C372 1.383 . S
C378 C377 1.379 . S
H379 C373 0.959 . S
H380 C373 0.961 . S
H381 C373 0.960 . S
H382 C374 0.936 . S
H383 C375 0.929 . S
H384 C392 0.929 . S
H385 C394 0.930 . S
H386 C396 0.930 . S
H387 C399 0.929 . S
H388 C402 0.930 . S
H389 C404 0.960 . S
H390 C404 0.960 . S
H391 C404 0.960 . S
C392 H384 0.929 . S
C392 C393 1.377 . S
C392 C394 1.384 . S
C393 C392 1.377 . S
C393 C399 1.390 . S
C394 H385 0.930 . S
C394 C392 1.384 . S
C394 C395 1.372 . S
C395 C394 1.372 . S
C395 C396 1.400 . S
C395 C400 1.490 . S
C396 H386 0.930 . S
C396 C395 1.400 . S
C396 C399 1.386 . S
H397 C413 0.930 . S
H398 C414 0.931 . S
C399 H387 0.929 . S
C399 C393 1.390 . S
C399 C396 1.386 . S
C400 C395 1.490 . S
C400 C402 1.395 . S
C400 C403 1.403 1_565 S
H401 C407 0.930 . S
C402 H388 0.930 . S
C402 C400 1.395 . S
C402 C405 1.403 . S
C403 C400 1.403 1_545 S
C403 C404 1.524 . S
C403 C407 1.400 . S
C404 H389 0.960 . S
C404 H390 0.960 . S
C404 H391 0.960 . S
C404 C403 1.524 . S
C405 C402 1.403 . S
C405 C406 1.392 1_565 S
C405 C409 1.495 . S
C406 C405 1.392 1_545 S
C406 C407 1.385 . S
C406 C408 1.478 . S
C407 H401 0.930 . S
C407 C403 1.400 . S
C407 C406 1.385 . S
C408 C406 1.478 . S
C408 C410 1.381 . S
C408 C414 1.383 . S
C409 C405 1.495 . S
C409 H415 0.959 . S
C409 H416 0.961 . S
C409 H417 0.960 . S
C410 C408 1.381 . S
C410 C411 1.394 . S
C410 H418 0.930 . S
C411 C410 1.394 . S
C411 C412 1.383 . S
C411 H419 0.929 . S
C412 C411 1.383 . S
C412 C413 1.377 . S
C413 H397 0.930 . S
C413 C412 1.377 . S
C413 C414 1.379 . S
C414 H398 0.931 . S
C414 C408 1.383 . S
C414 C413 1.379 . S
H415 C409 0.959 . S
H416 C409 0.961 . S
H417 C409 0.960 . S
H418 C410 0.930 . S
H419 C411 0.929 . S
H420 C428 0.929 . S
H421 C430 0.930 . S
H422 C432 0.930 . S
H423 C435 0.929 . S
H424 C438 0.930 . S
H425 C440 0.960 . S
H426 C440 0.960 1_554 S
H427 C440 0.960 . S
C428 H420 0.929 . S
C428 C429 1.377 . S
C428 C430 1.384 . S
C429 C428 1.377 . S
C429 C435 1.390 1_554 S
C430 H421 0.930 . S
C430 C428 1.384 . S
C430 C431 1.372 . S
C431 C430 1.372 . S
C431 C432 1.400 1_554 S
C431 C436 1.490 . S
C432 H422 0.930 . S
C432 C431 1.400 1_556 S
C432 C435 1.386 . S
H433 C449 0.930 . S
H434 C450 0.931 . S
C435 H423 0.929 . S
C435 C429 1.390 1_556 S
C435 C432 1.386 . S
C436 C431 1.490 . S
C436 C438 1.395 1_455 S
C436 C439 1.403 . S
H437 C443 0.929 1_556 S
C438 H424 0.930 . S
C438 C436 1.395 1_655 S
C438 C441 1.403 1_545 S
C439 C436 1.403 . S
C439 C440 1.524 1_554 S
C439 C443 1.400 1_545 S
C440 H425 0.960 . S
C440 H426 0.960 1_556 S
C440 H427 0.960 . S
C440 C439 1.524 1_556 S
C441 C438 1.403 1_565 S
C441 C442 1.392 . S
C441 C445 1.495 . S
C442 C441 1.392 . S
C442 C443 1.385 1_655 S
C442 C444 1.478 . S
C443 H437 0.929 1_554 S
C443 C439 1.400 1_565 S
C443 C442 1.385 1_455 S
C444 C442 1.478 . S
C444 C446 1.381 . S
C444 C450 1.383 1_554 S
C445 C441 1.495 . S
C445 H451 0.959 . S
C445 H452 0.961 . S
C445 H453 0.960 . S
C446 C444 1.381 . S
C446 C447 1.394 . S
C446 H454 0.930 . S
C447 C446 1.394 . S
C447 C448 1.383 . S
C447 H455 0.929 . S
C448 C447 1.383 . S
C448 C449 1.377 1_554 S
C449 H433 0.930 . S
C449 C448 1.377 1_556 S
C449 C450 1.379 . S
C450 H434 0.931 . S
C450 C444 1.383 1_556 S
C450 C449 1.379 . S
H451 C445 0.959 . S
H452 C445 0.961 . S
H453 C445 0.960 . S
H454 C446 0.930 . S
H455 C447 0.929 . S
H456 C464 0.929 . S
H457 C466 0.930 1_545 S
H458 C468 0.930 1_655 S
H459 C471 0.929 . S
H460 C474 0.930 . S
H461 C476 0.960 . S
H462 C476 0.960 1_455 S
H463 C476 0.960 . S
C464 H456 0.929 . S
C464 C465 1.377 . S
C464 C466 1.384 . S
C465 C464 1.377 . S
C465 C471 1.390 . S
C466 H457 0.930 1_565 S
C466 C464 1.384 . S
C466 C467 1.372 . S
C467 C466 1.372 . S
C467 C468 1.400 . S
C467 C472 1.490 . S
C468 H458 0.930 1_455 S
C468 C467 1.400 . S
C468 C471 1.386 . S
H469 C485 0.930 . S
H470 C486 0.925 1_565 S
C471 H459 0.929 . S
C471 C465 1.390 . S
C471 C468 1.386 . S
C472 C467 1.490 . S
C472 C474 1.395 1_565 S
C472 C475 1.403 1_455 S
H473 C479 0.930 . S
C474 H460 0.930 . S
C474 C472 1.395 1_545 S
C474 C477 1.403 . S
C475 C472 1.403 1_655 S
C475 C476 1.524 . S
C475 C479 1.400 . S
C476 H461 0.960 . S
C476 H462 0.960 1_655 S
C476 H463 0.960 . S
C476 C475 1.524 . S
C477 C474 1.403 . S
C477 C478 1.392 1_455 S
C477 C481 1.495 . S
C478 C477 1.392 1_655 S
C478 C479 1.385 1_545 S
C478 C480 1.478 . S
C479 H473 0.930 . S
C479 C475 1.400 . S
C479 C478 1.385 1_565 S
C480 C478 1.478 . S
C480 C482 1.381 . S
C480 C486 1.383 . S
C481 C477 1.495 . S
C481 H487 0.959 . S
C481 H488 0.961 1_455 S
C481 H489 0.960 . S
C482 C480 1.381 . S
C482 C483 1.394 . S
C482 H490 0.930 1_655 S
C483 C482 1.394 . S
C483 C484 1.383 . S
C483 H491 0.929 . S
C484 C483 1.383 . S
C484 C485 1.377 . S
C485 H469 0.930 . S
C485 C484 1.377 . S
C485 C486 1.379 . S
C486 H470 0.925 1_545 S
C486 C480 1.383 . S
C486 C485 1.379 . S
H487 C481 0.959 . S
H488 C481 0.961 1_655 S
H489 C481 0.960 . S
H490 C482 0.930 1_455 S
H491 C483 0.929 . S
H492 C500 0.929 . S
H493 C502 0.930 . S
H494 C504 0.930 . S
H495 C507 0.929 . S
H496 C510 0.930 . S
H497 C512 0.960 . S
H498 C512 0.960 . S
H499 C512 0.960 . S
C500 H492 0.929 . S
C500 C501 1.377 . S
C500 C502 1.384 . S
C501 C500 1.377 . S
C501 C507 1.390 . S
C502 H493 0.930 . S
C502 C500 1.384 . S
C502 C503 1.372 . S
C503 C502 1.372 . S
C503 C504 1.400 . S
C503 C508 1.490 . S
C504 H494 0.930 . S
C504 C503 1.400 . S
C504 C507 1.386 . S
H505 C521 0.930 . S
H506 C522 0.931 . S
C507 H495 0.929 . S
C507 C501 1.390 . S
C507 C504 1.386 . S
C508 C503 1.490 . S
C508 C510 1.395 . S
C508 C511 1.403 1_545 S
H509 C515 0.930 . S
C510 H496 0.930 . S
C510 C508 1.395 . S
C510 C513 1.403 1_455 S
C511 C508 1.403 1_565 S
C511 C512 1.524 . S
C511 C515 1.400 1_455 S
C512 H497 0.960 . S
C512 H498 0.960 . S
C512 H499 0.960 . S
C512 C511 1.524 . S
C513 C510 1.403 1_655 S
C513 C514 1.392 1_545 S
C513 C517 1.495 . S
C514 C513 1.392 1_565 S
C514 C515 1.385 . S
C514 C516 1.478 . S
C515 H509 0.930 . S
C515 C511 1.400 1_655 S
C515 C514 1.385 . S
C516 C514 1.478 . S
C516 C518 1.381 . S
C516 C522 1.383 . S
C517 C513 1.495 . S
C517 H523 0.959 . S
C517 H524 0.961 . S
C517 H525 0.960 . S
C518 C516 1.381 . S
C518 C519 1.394 . S
C518 H526 0.930 . S
C519 C518 1.394 . S
C519 C520 1.383 . S
C519 H527 0.929 . S
C520 C519 1.383 . S
C520 C521 1.377 . S
C521 H505 0.930 . S
C521 C520 1.377 . S
C521 C522 1.379 . S
C522 H506 0.931 . S
C522 C516 1.383 . S
C522 C521 1.379 . S
H523 C517 0.959 . S
H524 C517 0.961 . S
H525 C517 0.960 . S
H526 C518 0.930 . S
H527 C519 0.929 . S
H528 C536 0.929 . S
H529 C538 0.930 . S
H530 C540 0.930 . S
H531 C543 0.929 . S
H532 C546 0.930 . S
H533 C548 0.960 . S
H534 C548 0.960 . S
H535 C548 0.960 . S
C536 H528 0.929 . S
C536 C537 1.377 . S
C536 C538 1.384 . S
C537 C536 1.377 . S
C537 C543 1.390 . S
C538 H529 0.930 . S
C538 C536 1.384 . S
C538 C539 1.372 . S
C539 C538 1.372 . S
C539 C540 1.400 . S
C539 C544 1.490 . S
C540 H530 0.930 . S
C540 C539 1.400 . S
C540 C543 1.386 . S
H541 C557 0.930 . S
H542 C558 0.931 . S
C543 H531 0.929 . S
C543 C537 1.390 . S
C543 C540 1.386 . S
C544 C539 1.490 . S
C544 C546 1.395 . S
C544 C547 1.403 . S
H545 C551 0.930 . S
C546 H532 0.930 . S
C546 C544 1.395 . S
C546 C549 1.403 . S
C547 C544 1.403 . S
C547 C548 1.524 . S
C547 C551 1.400 . S
C548 H533 0.960 . S
C548 H534 0.960 . S
C548 H535 0.960 . S
C548 C547 1.524 . S
C549 C546 1.403 . S
C549 C550 1.392 . S
C549 C553 1.495 . S
C550 C549 1.392 . S
C550 C551 1.385 . S
C550 C552 1.478 . S
C551 H545 0.930 . S
C551 C547 1.400 . S
C551 C550 1.385 . S
C552 C550 1.478 . S
C552 C554 1.381 . S
C552 C558 1.383 . S
C553 C549 1.495 . S
C553 H559 0.959 . S
C553 H560 0.961 . S
C553 H561 0.960 . S
C554 C552 1.381 . S
C554 C555 1.394 . S
C554 H562 0.930 . S
C555 C554 1.394 . S
C555 C556 1.383 . S
C555 H563 0.929 . S
C556 C555 1.383 . S
C556 C557 1.377 . S
C557 H541 0.930 . S
C557 C556 1.377 . S
C557 C558 1.379 . S
C558 H542 0.931 . S
C558 C552 1.383 . S
C558 C557 1.379 . S
H559 C553 0.959 . S
H560 C553 0.961 . S
H561 C553 0.960 . S
H562 C554 0.930 . S
H563 C555 0.929 . S
H564 C572 0.929 . S
H565 C574 0.930 . S
H566 C576 0.930 . S
H567 C579 0.929 . S
H568 C582 0.930 . S
H569 C584 0.960 . S
H570 C584 0.960 . S
H571 C584 0.960 . S
C572 H564 0.929 . S
C572 C573 1.377 . S
C572 C574 1.384 . S
C573 C572 1.377 . S
C573 C579 1.390 . S
C574 H565 0.930 . S
C574 C572 1.384 . S
C574 C575 1.372 . S
C575 C574 1.372 . S
C575 C576 1.400 . S
C575 C580 1.490 . S
C576 H566 0.930 . S
C576 C575 1.400 . S
C576 C579 1.386 . S
H577 C593 0.930 . S
H578 C594 0.931 . S
C579 H567 0.929 . S
C579 C573 1.390 . S
C579 C576 1.386 . S
C580 C575 1.490 . S
C580 C582 1.395 . S
C580 C583 1.403 . S
H581 C587 0.930 1_655 S
C582 H568 0.930 . S
C582 C580 1.395 . S
C582 C585 1.403 . S
C583 C580 1.403 . S
C583 C584 1.524 1_455 S
C583 C587 1.400 . S
C584 H569 0.960 . S
C584 H570 0.960 . S
C584 H571 0.960 . S
C584 C583 1.524 1_655 S
C585 C582 1.403 . S
C585 C586 1.392 . S
C585 C589 1.495 . S
C586 C585 1.392 . S
C586 C587 1.385 . S
C586 C588 1.478 . S
C587 H581 0.930 1_455 S
C587 C583 1.400 . S
C587 C586 1.385 . S
C588 C586 1.478 . S
C588 C590 1.381 . S
C588 C594 1.383 1_455 S
C589 C585 1.495 . S
C589 H595 0.959 . S
C589 H596 0.961 . S
C589 H597 0.960 . S
C590 C588 1.381 . S
C590 C591 1.394 1_455 S
C590 H598 0.930 . S
C591 C590 1.394 1_655 S
C591 C592 1.383 . S
C591 H599 0.929 . S
C592 C591 1.383 . S
C592 C593 1.377 . S
C593 H577 0.930 . S
C593 C592 1.377 . S
C593 C594 1.379 . S
C594 H578 0.931 . S
C594 C588 1.383 1_655 S
C594 C593 1.379 . S
H595 C589 0.959 . S
H596 C589 0.961 . S
H597 C589 0.960 . S
H598 C590 0.930 . S
H599 C591 0.929 . S
H600 C608 0.929 . S
H601 C610 0.930 . S
H602 C612 0.930 . S
H603 C615 0.929 . S
H604 C618 0.930 . S
H605 C620 0.960 . S
H606 C620 0.960 . S
H607 C620 0.960 . S
C608 H600 0.929 . S
C608 C609 1.377 . S
C608 C610 1.384 . S
C609 C608 1.377 . S
C609 C615 1.390 . S
C610 H601 0.930 . S
C610 C608 1.384 . S
C610 C611 1.372 . S
C611 C610 1.372 . S
C611 C612 1.400 . S
C611 C616 1.490 . S
C612 H602 0.930 . S
C612 C611 1.400 . S
C612 C615 1.386 . S
H613 C629 0.930 1_545 S
H614 C630 0.931 . S
C615 H603 0.929 . S
C615 C609 1.390 . S
C615 C612 1.386 . S
C616 C611 1.490 . S
C616 C618 1.395 . S
C616 C619 1.403 . S
H617 C623 0.930 . S
C618 H604 0.930 . S
C618 C616 1.395 . S
C618 C621 1.403 1_545 S
C619 C616 1.403 . S
C619 C620 1.524 . S
C619 C623 1.400 . S
C620 H605 0.960 . S
C620 H606 0.960 . S
C620 H607 0.960 . S
C620 C619 1.524 . S
C621 C618 1.403 1_565 S
C621 C622 1.392 1_565 S
C621 C625 1.495 . S
C622 C621 1.392 1_545 S
C622 C623 1.385 . S
C622 C624 1.478 1_545 S
C623 H617 0.930 . S
C623 C619 1.400 . S
C623 C622 1.385 . S
C624 C622 1.478 1_565 S
C624 C626 1.381 . S
C624 C630 1.383 1_565 S
C625 C621 1.495 . S
C625 H631 0.959 . S
C625 H632 0.961 . S
C625 H633 0.960 . S
C626 C624 1.381 . S
C626 C627 1.394 . S
C626 H634 0.930 . S
C627 C626 1.394 . S
C627 C628 1.383 . S
C627 H635 0.929 . S
C628 C627 1.383 . S
C628 C629 1.377 . S
C629 H613 0.930 1_565 S
C629 C628 1.377 . S
C629 C630 1.379 1_565 S
C630 H614 0.931 . S
C630 C624 1.383 1_545 S
C630 C629 1.379 1_545 S
H631 C625 0.959 . S
H632 C625 0.961 . S
H633 C625 0.960 . S
H634 C626 0.930 . S
H635 C627 0.929 . S
H636 C644 0.929 . S
H637 C646 0.930 . S
H638 C648 0.930 . S
H639 C651 0.929 . S
H640 C654 0.930 . S
H641 C656 0.960 . S
H642 C656 0.960 . S
H643 C656 0.960 . S
C644 H636 0.929 . S
C644 C645 1.377 . S
C644 C646 1.384 . S
C645 C644 1.377 . S
C645 C651 1.390 . S
C646 H637 0.930 . S
C646 C644 1.384 . S
C646 C647 1.372 . S
C647 C646 1.372 . S
C647 C648 1.400 . S
C647 C652 1.490 . S
C648 H638 0.930 . S
C648 C647 1.400 . S
C648 C651 1.386 . S
H649 C665 0.930 . S
H650 C666 0.931 . S
C651 H639 0.929 . S
C651 C645 1.390 . S
C651 C648 1.386 . S
C652 C647 1.490 . S
C652 C654 1.395 . S
C652 C655 1.403 . S
H653 C659 0.930 . S
C654 H640 0.930 . S
C654 C652 1.395 . S
C654 C657 1.403 . S
C655 C652 1.403 . S
C655 C656 1.524 . S
C655 C659 1.400 . S
C656 H641 0.960 . S
C656 H642 0.960 . S
C656 H643 0.960 . S
C656 C655 1.524 . S
C657 C654 1.403 . S
C657 C658 1.392 . S
C657 C661 1.495 . S
C658 C657 1.392 . S
C658 C659 1.385 . S
C658 C660 1.478 . S
C659 H653 0.930 . S
C659 C655 1.400 . S
C659 C658 1.385 . S
C660 C658 1.478 . S
C660 C662 1.381 . S
C660 C666 1.383 . S
C661 C657 1.495 . S
C661 H667 0.959 . S
C661 H668 0.961 . S
C661 H669 0.960 . S
C662 C660 1.381 . S
C662 C663 1.394 . S
C662 H670 0.930 . S
C663 C662 1.394 . S
C663 C664 1.383 . S
C663 H671 0.929 . S
C664 C663 1.383 . S
C664 C665 1.377 . S
C665 H649 0.930 . S
C665 C664 1.377 . S
C665 C666 1.379 . S
C666 H650 0.931 . S
C666 C660 1.383 . S
C666 C665 1.379 . S
H667 C661 0.959 . S
H668 C661 0.961 . S
H669 C661 0.960 . S
H670 C662 0.930 . S
H671 C663 0.929 . S
H672 C680 0.929 . S
H673 C682 0.930 . S
H674 C684 0.930 . S
H675 C687 0.929 . S
H676 C690 0.930 . S
H677 C692 0.960 1_455 S
H678 C692 0.960 1_455 S
H679 C692 0.960 . S
C680 H672 0.929 . S
C680 C681 1.377 . S
C680 C682 1.384 . S
C681 C680 1.377 . S
C681 C687 1.390 . S
C682 H673 0.930 . S
C682 C680 1.384 . S
C682 C683 1.372 . S
C683 C682 1.372 . S
C683 C684 1.400 . S
C683 C688 1.490 . S
C684 H674 0.930 . S
C684 C683 1.400 . S
C684 C687 1.386 . S
H685 C701 0.930 . S
H686 C702 0.931 . S
C687 H675 0.929 . S
C687 C681 1.390 . S
C687 C684 1.386 . S
C688 C683 1.490 . S
C688 C690 1.395 . S
C688 C691 1.403 . S
H689 C695 0.930 1_455 S
C690 H676 0.930 . S
C690 C688 1.395 . S
C690 C693 1.403 . S
C691 C688 1.403 . S
C691 C692 1.524 . S
C691 C695 1.400 . S
C692 H677 0.960 1_655 S
C692 H678 0.960 1_655 S
C692 H679 0.960 . S
C692 C691 1.524 . S
C693 C690 1.403 . S
C693 C694 1.392 . S
C693 C697 1.495 . S
C694 C693 1.392 . S
C694 C695 1.385 . S
C694 C696 1.478 . S
C695 H689 0.930 1_655 S
C695 C691 1.400 . S
C695 C694 1.385 . S
C696 C694 1.478 . S
C696 C698 1.381 1_655 S
C696 C702 1.383 . S
C697 C693 1.495 . S
C697 H703 0.959 . S
C697 H704 0.961 . S
C697 H705 0.960 . S
C698 C696 1.381 1_455 S
C698 C699 1.394 . S
C698 H706 0.930 . S
C699 C698 1.394 . S
C699 C700 1.383 . S
C699 H707 0.929 . S
C700 C699 1.383 . S
C700 C701 1.377 . S
C701 H685 0.930 . S
C701 C700 1.377 . S
C701 C702 1.379 1_455 S
C702 H686 0.931 . S
C702 C696 1.383 . S
C702 C701 1.379 1_655 S
H703 C697 0.959 . S
H704 C697 0.961 . S
H705 C697 0.960 . S
H706 C698 0.930 . S
H707 C699 0.929 . S
H708 C716 0.929 . S
H709 C718 0.930 . S
H710 C720 0.930 . S
H711 C723 0.929 . S
H712 C726 0.930 . S
H713 C728 0.960 . S
H714 C728 0.960 . S
H715 C728 0.960 1_545 S
C716 H708 0.929 . S
C716 C717 1.377 1_565 S
C716 C718 1.384 . S
C717 C716 1.377 1_545 S
C717 C723 1.390 . S
C718 H709 0.930 . S
C718 C716 1.384 . S
C718 C719 1.372 . S
C719 C718 1.372 . S
C719 C720 1.400 1_565 S
C719 C724 1.490 . S
C720 H710 0.930 . S
C720 C719 1.400 1_545 S
C720 C723 1.386 . S
H721 C737 0.930 . S
H722 C738 0.931 . S
C723 H711 0.929 . S
C723 C717 1.390 . S
C723 C720 1.386 . S
C724 C719 1.490 . S
C724 C726 1.395 . S
C724 C727 1.403 . S
H725 C731 0.930 . S
C726 H712 0.930 . S
C726 C724 1.395 . S
C726 C729 1.403 . S
C727 C724 1.403 . S
C727 C728 1.524 . S
C727 C731 1.400 . S
C728 H713 0.960 . S
C728 H714 0.960 . S
C728 H715 0.960 1_565 S
C728 C727 1.524 . S
C729 C726 1.403 . S
C729 C730 1.392 . S
C729 C733 1.495 . S
C730 C729 1.392 . S
C730 C731 1.385 . S
C730 C732 1.478 . S
C731 H725 0.930 . S
C731 C727 1.400 . S
C731 C730 1.385 . S
C732 C730 1.478 . S
C732 C734 1.381 . S
C732 C738 1.383 . S
C733 C729 1.495 . S
C733 H739 0.959 . S
C733 H740 0.961 . S
C733 H741 0.960 . S
C734 C732 1.381 . S
C734 C735 1.394 . S
C734 H742 0.930 . S
C735 C734 1.394 . S
C735 C736 1.383 . S
C735 H743 0.929 . S
C736 C735 1.383 . S
C736 C737 1.377 . S
C737 H721 0.930 . S
C737 C736 1.377 . S
C737 C738 1.379 . S
C738 H722 0.931 . S
C738 C732 1.383 . S
C738 C737 1.379 . S
H739 C733 0.959 . S
H740 C733 0.961 . S
H741 C733 0.960 . S
H742 C734 0.930 . S
H743 C735 0.929 . S
C213 C2 1.339 . S
C232 C104 1.344 . S
C249 C36 1.337 . S
C268 C138 1.329 . S
C285 C172 1.337 . S
C304 C70 1.330 . S
C321 C101 2.169 . S
C340 C203 2.164 . S
C357 C135 2.169 . S
C376 C33 2.166 . S
C393 C169 2.169 . S
C412 C67 2.162 . S
C429 C20 0.920 . S
C448 C122 0.917 . S
C465 C156 0.925 . S
C484 C54 0.933 . S
C501 C190 0.921 . S
C520 C88 0.918 . S
C537 C9 1.646 . S
C556 C175 1.681 . S
C573 C5 1.685 . S
C592 C43 1.658 . S
C609 C39 1.688 . S
C628 C77 1.615 . S
C645 C73 1.689 . S
C664 C111 1.628 . S
C681 C107 1.685 . S
C700 C145 1.646 . S
C717 C179 1.646 . S
C736 C141 1.676 . S
