# Generated by pormake.
# Topology pts-e, (5)-cn, num edge types: 1
# Building blocks:
#     Node 0, Type 0, BuildingBlock: XOMCOT_clean_sbu_1, # of connection points: 5
#     Node 1, Type 0, BuildingBlock: XOMCOT_clean_sbu_1, # of connection points: 5
#     Node 2, Type 0, BuildingBlock: XOMCOT_clean_sbu_1, # of connection points: 5
#     Node 3, Type 0, BuildingBlock: XOMCOT_clean_sbu_1, # of connection points: 5
#     Node 4, Type 0, BuildingBlock: XOMCOT_clean_sbu_1, # of connection points: 5
#     Node 5, Type 0, BuildingBlock: XOMCOT_clean_sbu_1, # of connection points: 5
#     Node 6, Type 0, BuildingBlock: XOMCOT_clean_sbu_1, # of connection points: 5
#     Node 7, Type 0, BuildingBlock: XOMCOT_clean_sbu_1, # of connection points: 5
#     Edge 8, Type (0, 0), BuildingBlock: XIVTED_clean_linker_0, # of connection points: 2
#     Edge 9, Type (0, 0), BuildingBlock: XIVTED_clean_linker_0, # of connection points: 2
#     Edge 10, Type (0, 0), BuildingBlock: XIVTED_clean_linker_0, # of connection points: 2
#     Edge 11, Type (0, 0), BuildingBlock: XIVTED_clean_linker_0, # of connection points: 2
#     Edge 12, Type (0, 0), BuildingBlock: XIVTED_clean_linker_0, # of connection points: 2
#     Edge 13, Type (0, 0), BuildingBlock: XIVTED_clean_linker_0, # of connection points: 2
#     Edge 14, Type (0, 0), BuildingBlock: XIVTED_clean_linker_0, # of connection points: 2
#     Edge 15, Type (0, 0), BuildingBlock: XIVTED_clean_linker_0, # of connection points: 2
#     Edge 16, Type (0, 0), BuildingBlock: XIVTED_clean_linker_0, # of connection points: 2
#     Edge 17, Type (0, 0), BuildingBlock: XIVTED_clean_linker_0, # of connection points: 2
#     Edge 18, Type (0, 0), BuildingBlock: XIVTED_clean_linker_0, # of connection points: 2
#     Edge 19, Type (0, 0), BuildingBlock: XIVTED_clean_linker_0, # of connection points: 2
#     Edge 20, Type (0, 0), BuildingBlock: XIVTED_clean_linker_0, # of connection points: 2
#     Edge 21, Type (0, 0), BuildingBlock: XIVTED_clean_linker_0, # of connection points: 2
#     Edge 22, Type (0, 0), BuildingBlock: XIVTED_clean_linker_0, # of connection points: 2
#     Edge 23, Type (0, 0), BuildingBlock: XIVTED_clean_linker_0, # of connection points: 2
#     Edge 24, Type (0, 0), BuildingBlock: XIVTED_clean_linker_0, # of connection points: 2
#     Edge 25, Type (0, 0), BuildingBlock: XIVTED_clean_linker_0, # of connection points: 2
#     Edge 26, Type (0, 0), BuildingBlock: XIVTED_clean_linker_0, # of connection points: 2
#     Edge 27, Type (0, 0), BuildingBlock: XIVTED_clean_linker_0, # of connection points: 2
# Relax obj value: 0.508
# Max RMSD: 0.254
# Mean RMSD: 0.254
data_MOF--net-pts-e--node1-XOMCOT_clean_sbu_1--edge1-XIVTED_clean_linker_0
_symmetry_space_group_name_H-M    P1
_symmetry_Int_Tables_number       1
_symmetry_cell_setting            triclinic
loop_
_symmetry_equiv_pos_as_xyz
'x, y, z'
_cell_length_a     34.378622
_cell_length_b     34.236519
_cell_length_c     48.482726
_cell_angle_alpha  89.8854
_cell_angle_beta   89.907689
_cell_angle_gamma 89.9045
loop_
_atom_site_label
_atom_site_type_symbol
_atom_site_fract_x
_atom_site_fract_y
_atom_site_fract_z
_atom_type_partial_charge
C0 C 0.18567 0.06044 0.15373 0.0
C1 C 0.14592 0.06503 0.15558 0.0
N2 N 0.1296 0.02925 0.156 0.0
N3 N 0.19411 0.02195 0.1534 0.0
C4 C 0.15945 0.00382 0.15452 0.0
H5 H 0.20706 0.08355 0.15289 0.0
Co6 Co 0.24243 -0.00225 0.15117 0.0
C7 C 0.23477 0.9401 0.19698 0.0
O8 O 0.26814 0.95254 0.20682 0.0
N9 N 0.29092 0.9728 0.14751 0.0
C10 C 0.33927 0.92964 0.14475 0.0
C11 C 0.30108 0.93519 0.15212 0.0
C12 C 0.32255 0.98832 0.13516 0.0
N13 N 0.35293 0.96336 0.13425 0.0
O14 O 0.22698 0.97413 0.11714 0.0
H15 H 0.28201 0.91252 0.1596 0.0
H16 H 0.32286 0.01699 0.12589 0.0
O17 O 0.22199 0.95398 0.17411 0.0
C18 C 0.23178 0.00169 0.09961 0.0
O19 O 0.24547 0.03525 0.10844 0.0
N20 N 0.25836 0.02634 0.1827 0.0
C21 C 0.26246 0.09376 0.21462 0.0
C22 C 0.2368 0.06365 0.22182 0.0
C23 C 0.23482 0.0303 0.20536 0.0
C24 C 0.28628 0.05371 0.17753 0.0
C25 C 0.28929 0.08727 0.1935 0.0
H26 H 0.21061 0.01078 0.20863 0.0
H27 H 0.30268 0.05318 0.15878 0.0
H28 H 0.15625 0.9724 0.15462 0.0
H29 H 0.13032 0.09249 0.15628 0.0
H30 H 0.35562 0.90287 0.14734 0.0
H31 H 0.21489 0.06798 0.23762 0.0
H32 H 0.30918 0.11011 0.18714 0.0
C33 C 0.95208 0.20094 0.65535 0.0
C34 C 0.94685 0.16135 0.65844 0.0
N35 N 0.98215 0.14411 0.65871 0.0
N36 N 0.99048 0.20855 0.6539 0.0
C37 C 0.00801 0.17341 0.65573 0.0
H38 H 0.92944 0.22288 0.65446 0.0
Co39 Co 0.01333 0.25742 0.6502 0.0
C40 C 0.07738 0.24879 0.69141 0.0
O41 O 0.06667 0.28168 0.70316 0.0
N42 N 0.03585 0.30685 0.64501 0.0
C43 C 0.0729 0.35991 0.64128 0.0
C44 C 0.07203 0.32116 0.649 0.0
C45 C 0.01653 0.33655 0.63286 0.0
N46 N 0.0376 0.36962 0.63143 0.0
O47 O 0.03286 0.24246 0.61488 0.0
H48 H 0.09663 0.30483 0.65664 0.0
H49 H 0.98737 0.33384 0.62482 0.0
O50 O 0.06019 0.23737 0.66942 0.0
C51 C 0.00427 0.24646 0.59832 0.0
O52 O 0.97105 0.25935 0.60827 0.0
N53 N 0.98925 0.2726 0.68376 0.0
C54 C 0.92975 0.27794 0.72267 0.0
C55 C 0.9604 0.25146 0.72643 0.0
C56 C 0.98955 0.24878 0.70649 0.0
C57 C 0.96133 0.30083 0.68138 0.0
C58 C 0.93171 0.30441 0.7008 0.0
H59 H 0.0092 0.22422 0.70771 0.0
H60 H 0.9583 0.31748 0.66281 0.0
H61 H 0.03922 0.1695 0.65536 0.0
H62 H 0.91919 0.14649 0.66013 0.0
H63 H 0.09732 0.37955 0.6435 0.0
H64 H 0.95931 0.22968 0.74265 0.0
H65 H 0.90816 0.32479 0.697 0.0
C66 C 0.79367 0.93091 0.17748 0.0
C67 C 0.83344 0.92583 0.17794 0.0
N68 N 0.85019 0.96133 0.17627 0.0
N69 N 0.78572 0.96942 0.17561 0.0
C70 C 0.82064 0.98707 0.17468 0.0
H71 H 0.77195 0.90812 0.17833 0.0
Co72 Co 0.73763 0.99376 0.17281 0.0
C73 C 0.75 0.05815 0.21347 0.0
O74 O 0.71837 0.04779 0.22686 0.0
N75 N 0.68925 0.01826 0.16847 0.0
C76 C 0.64009 0.05989 0.16284 0.0
C77 C 0.67758 0.05561 0.17218 0.0
C78 C 0.65911 0.00131 0.15536 0.0
N79 N 0.62844 0.02551 0.1523 0.0
O80 O 0.75201 0.01245 0.13711 0.0
H81 H 0.69529 0.07914 0.17985 0.0
H82 H 0.66032 0.97201 0.14716 0.0
O83 O 0.75954 0.04033 0.19124 0.0
C84 C 0.74693 0.98375 0.12071 0.0
O85 O 0.73321 0.95093 0.13091 0.0
N86 N 0.72284 0.97033 0.20663 0.0
C87 C 0.72179 0.90596 0.24167 0.0
C88 C 0.74749 0.9369 0.24654 0.0
C89 C 0.74792 0.96871 0.22852 0.0
C90 C 0.69423 0.94294 0.2042 0.0
C91 C 0.69299 0.91062 0.22165 0.0
H92 H 0.7723 0.98845 0.22979 0.0
H93 H 0.67574 0.94235 0.18643 0.0
H94 H 0.82434 0.01821 0.17193 0.0
H95 H 0.84877 0.89827 0.17941 0.0
H96 H 0.62298 0.0864 0.1637 0.0
H97 H 0.77071 0.93403 0.26149 0.0
H98 H 0.67286 0.88714 0.21721 0.0
C99 C 0.05778 0.80008 0.67436 0.0
C100 C 0.06586 0.83935 0.67655 0.0
N101 N 0.03197 0.85911 0.67527 0.0
N102 N 0.01901 0.79537 0.67177 0.0
C103 C 0.00418 0.83177 0.6722 0.0
H104 H 0.07873 0.77646 0.67444 0.0
Co105 Co 0.99175 0.7492 0.66644 0.0
C106 C 0.92732 0.76029 0.70674 0.0
O107 O 0.93484 0.72531 0.71664 0.0
N108 N 0.9645 0.70278 0.65938 0.0
C109 C 0.92001 0.65749 0.65006 0.0
C110 C 0.92609 0.69446 0.66025 0.0
C111 C 0.98044 0.67154 0.6467 0.0
N112 N 0.95445 0.643 0.64163 0.0
O113 O 0.97565 0.76801 0.631 0.0
H114 H 0.90339 0.71427 0.66667 0.0
H115 H 0.01065 0.67014 0.64069 0.0
O116 O 0.94613 0.77265 0.68558 0.0
C117 C 0.00465 0.76176 0.61506 0.0
O118 O 0.03556 0.7446 0.6255 0.0
N119 N 0.01265 0.7299 0.70013 0.0
C120 C 0.07404 0.72147 0.73699 0.0
C121 C 0.045 0.74943 0.74176 0.0
C122 C 0.01465 0.75344 0.7229 0.0
C123 C 0.03767 0.69906 0.69774 0.0
C124 C 0.06824 0.69395 0.7162 0.0
H125 H -0.00323 0.7793 0.72447 0.0
H126 H 0.03822 0.68147 0.67956 0.0
H127 H 0.97362 0.83819 0.66935 0.0
H128 H 0.09436 0.8523 0.67889 0.0
H129 H 0.89222 0.6429 0.64843 0.0
H130 H 0.04865 0.77169 0.75739 0.0
H131 H 0.09009 0.67193 0.7119 0.0
C132 C 0.2053 0.93661 0.84787 0.0
C133 C 0.16594 0.92914 0.84848 0.0
N134 N 0.14706 0.96342 0.84565 0.0
N135 N 0.2108 0.97536 0.8446 0.0
C136 C 0.1749 0.99082 0.8436 0.0
H137 H 0.22834 0.9153 0.85002 0.0
Co138 Co 0.25684 0.00298 0.84355 0.0
C139 C 0.24451 0.0635 0.80084 0.0
O140 O 0.27914 0.05489 0.79104 0.0
N141 N 0.30318 0.03168 0.84324 0.0
C142 C 0.34508 0.07998 0.85117 0.0
C143 C 0.30651 0.06927 0.85142 0.0
C144 C 0.34002 0.02042 0.83799 0.0
N145 N 0.36593 0.04905 0.84259 0.0
O146 O 0.24311 0.02609 0.87823 0.0
H147 H 0.28244 0.08744 0.85796 0.0
H148 H 0.3486 0.99131 0.83238 0.0
O149 O 0.2316 0.04521 0.82205 0.0
C150 C 0.25527 0.00078 0.89563 0.0
O151 O 0.27578 0.97119 0.88626 0.0
N152 N 0.27063 0.97453 0.81203 0.0
C153 C 0.26864 0.9047 0.78284 0.0
C154 C 0.24739 0.93723 0.7736 0.0
C155 C 0.24837 0.97193 0.78875 0.0
C156 C 0.29393 0.94407 0.81961 0.0
C157 C 0.29443 0.90943 0.80478 0.0
H158 H 0.22684 0.99384 0.78399 0.0
H159 H 0.30767 0.94408 0.83962 0.0
H160 H 0.16924 0.02187 0.84247 0.0
H161 H 0.15235 0.90085 0.85093 0.0
H162 H 0.35691 0.10781 0.85754 0.0
H163 H 0.22624 0.93436 0.75719 0.0
H164 H 0.31078 0.88483 0.8128 0.0
C165 C 0.06095 0.20755 0.33448 0.0
C166 C 0.06675 0.16774 0.33395 0.0
N167 N 0.03198 0.15016 0.33724 0.0
N168 N 0.02265 0.21481 0.33773 0.0
C169 C 0.00588 0.1794 0.33952 0.0
H170 H 0.08315 0.2298 0.33284 0.0
Co171 Co -0.00211 0.26279 0.34137 0.0
C172 C 0.93258 0.24977 0.30173 0.0
O173 O 0.94189 0.28175 0.28821 0.0
N174 N 0.97327 0.31106 0.34662 0.0
C175 C 0.93296 0.36132 0.35243 0.0
C176 C 0.9364 0.32369 0.34279 0.0
C177 C 0.9907 0.34066 0.36009 0.0
N178 N 0.96739 0.37203 0.3632 0.0
O179 O 0.98064 0.24747 0.37725 0.0
H180 H 0.91277 0.3067 0.33456 0.0
H181 H 0.01997 0.33875 0.36808 0.0
O182 O 0.95119 0.24046 0.32366 0.0
C183 C 0.00962 0.25201 0.39336 0.0
O184 O 0.04218 0.26575 0.38293 0.0
N185 N 0.01967 0.27861 0.3072 0.0
C186 C 0.08128 0.28304 0.2701 0.0
C187 C 0.05143 0.25582 0.26611 0.0
C188 C 0.021 0.25375 0.28513 0.0
C189 C 0.04579 0.30852 0.30894 0.0
C190 C 0.0766 0.31153 0.2904 0.0
H191 H 0.00221 0.22855 0.28427 0.0
H192 H 0.0467 0.327 0.32674 0.0
H193 H 0.97499 0.17523 0.34255 0.0
H194 H 0.09448 0.15299 0.332 0.0
H195 H 0.9071 0.37931 0.35138 0.0
H196 H 0.05434 0.2328 0.25094 0.0
H197 H 0.09922 0.33288 0.29415 0.0
C198 C 0.81318 0.06251 0.87015 0.0
C199 C 0.85302 0.06616 0.87036 0.0
N200 N 0.8685 0.03024 0.86743 0.0
N201 N 0.80393 0.02456 0.86664 0.0
C202 C 0.83818 0.00564 0.86541 0.0
H203 H 0.79234 0.086 0.87227 0.0
Co204 Co 0.75501 0.00271 0.86428 0.0
C205 C 0.7627 0.94409 0.81943 0.0
O206 O 0.72938 0.95654 0.80942 0.0
N207 N 0.70555 0.98016 0.86281 0.0
C208 C 0.65749 0.93659 0.86504 0.0
C209 C 0.69721 0.94172 0.86554 0.0
C210 C 0.6705 -0.00228 0.86177 0.0
N211 N 0.64106 0.97207 0.8629 0.0
O212 O 0.76445 0.97561 0.89814 0.0
H213 H 0.71869 0.91886 0.868 0.0
H214 H 0.66586 0.0287 0.86033 0.0
O215 O 0.7762 0.95942 0.84154 0.0
C216 C 0.75547 0.00158 0.91596 0.0
O217 O 0.74076 0.03476 0.90709 0.0
N218 N 0.74549 0.03468 0.83351 0.0
C219 C 0.74859 0.10263 0.80188 0.0
C220 C 0.76796 0.06871 0.79318 0.0
C221 C 0.76677 0.03517 0.80964 0.0
C222 C 0.72534 0.06715 0.84139 0.0
C223 C 0.72548 0.10094 0.82553 0.0
H224 H 0.78679 0.01193 0.80478 0.0
H225 H 0.71339 0.06894 0.86193 0.0
H226 H 0.84091 0.97443 0.86254 0.0
H227 H 0.86929 0.093 0.87258 0.0
H228 H 0.64193 0.90922 0.86671 0.0
H229 H 0.78751 0.06943 0.77564 0.0
H230 H 0.71111 0.12685 0.83336 0.0
C231 C 0.94505 0.80896 0.35537 0.0
C232 C 0.93834 0.84842 0.35249 0.0
N233 N 0.97303 0.8666 0.35101 0.0
N234 N 0.98376 0.80253 0.35559 0.0
C235 C -3e-05 0.83814 0.35318 0.0
H236 H 0.92322 0.78635 0.357 0.0
Co237 Co 0.00951 0.75504 0.35925 0.0
C238 C 0.06855 0.76399 0.31461 0.0
O239 O 0.05775 0.72999 0.30469 0.0
N240 N 0.03557 0.70726 0.36443 0.0
C241 C 0.07765 0.658 0.36775 0.0
C242 C 0.07268 0.69615 0.35954 0.0
C243 C 0.0199 0.67644 0.37776 0.0
N244 N 0.04406 0.64542 0.37897 0.0
O245 O 0.03084 0.77267 0.39355 0.0
H246 H 0.09526 0.71438 0.35099 0.0
H247 H 0.99125 0.67701 0.38691 0.0
O248 O 0.05346 0.77644 0.33717 0.0
C249 C 0.003 0.76766 0.41072 0.0
O250 O 0.97052 0.75205 0.40169 0.0
N251 N 0.98328 0.73698 0.32719 0.0
C252 C 0.91769 0.72968 0.29394 0.0
C253 C 0.94661 0.75698 0.28739 0.0
C254 C 0.97908 0.76044 0.30445 0.0
C255 C 0.95754 0.70725 0.33156 0.0
C256 C 0.92494 0.70267 0.31492 0.0
H257 H -0.00252 0.78565 0.30155 0.0
H258 H 0.9584 0.69022 0.35005 0.0
H259 H 0.03102 0.84319 0.35355 0.0
H260 H 0.91019 0.86252 0.35124 0.0
H261 H 0.10375 0.64078 0.36495 0.0
H262 H 0.94178 0.77893 0.27163 0.0
H263 H 0.90315 0.6813 0.32066 0.0
H264 H 0.2343 0.93557 0.06719 0.0
H265 H 0.22219 0.06017 0.92661 0.0
H266 H 0.21209 0.05954 0.06428 0.0
H267 H 0.26305 0.94109 0.93198 0.0
H268 H 0.20747 0.05812 0.97631 0.0
H269 H 0.23279 0.93418 0.01649 0.0
C270 C 0.22831 0.96225 0.0559 0.0
C271 C 0.22384 -0.00225 0.06983 0.0
C272 C 0.21947 0.03242 0.96646 0.0
C273 C 0.22249 -0.00334 0.01214 0.0
C274 C 0.22789 0.03366 0.93815 0.0
C275 C 0.24443 0.00104 0.9252 0.0
C276 C 0.22734 -0.00179 0.98171 0.0
C277 C 0.25093 0.96725 0.94111 0.0
C278 C 0.22775 0.9616 0.02701 0.0
C279 C 0.21631 0.03161 0.05426 0.0
N280 N 0.24254 0.96678 0.96844 0.0
N281 N 0.21621 0.03032 0.0263 0.0
H282 H 0.94563 0.23562 0.42576 0.0
H283 H 0.06981 0.23808 0.56589 0.0
H284 H 0.07052 0.24766 0.42881 0.0
H285 H 0.94436 0.23624 0.56282 0.0
H286 H 0.07136 0.23205 0.51541 0.0
H287 H 0.94507 0.22647 0.47599 0.0
C288 C 0.97288 0.23599 0.43693 0.0
C289 C 0.00805 0.24294 0.42315 0.0
C290 C 0.04352 0.23262 0.52588 0.0
C291 C 0.00777 0.23257 0.48041 0.0
C292 C 0.0427 0.23592 0.55466 0.0
C293 C 0.00697 0.23822 0.56849 0.0
C294 C 0.00835 0.23149 0.511 0.0
C295 C 0.97262 0.23522 0.55296 0.0
C296 C 0.97261 0.23084 0.46558 0.0
C297 C 0.04261 0.24296 0.43862 0.0
N298 N 0.97416 0.2323 0.52509 0.0
N299 N 0.04157 0.23815 0.46638 0.0
H300 H 0.75056 0.9232 0.08465 0.0
H301 H 0.76609 0.06 0.95243 0.0
H302 H 0.76339 0.04846 0.08879 0.0
H303 H 0.76157 0.93427 0.94743 0.0
H304 H 0.77082 0.0555 1.00227 0.0
H305 H 0.75983 0.92603 0.03493 0.0
C306 C 0.75551 0.9514 0.07511 0.0
C307 C 0.75573 0.9858 0.0909 0.0
C308 C 0.76911 0.0288 0.9904 0.0
C309 C 0.76637 0.98909 0.03373 0.0
C310 C 0.76629 0.03128 0.96187 0.0
C311 C 0.76286 -0.00261 0.94579 0.0
C312 C 0.7681 0.99211 1.0032 0.0
C313 C 0.764 0.96107 0.9591 0.0
C314 C 0.76093 0.95289 0.04666 0.0
C315 C 0.76279 0.02129 0.07741 0.0
N316 N 0.76602 0.95939 0.98717 0.0
N317 N 0.76746 0.02205 0.04952 0.0
H318 H 0.94283 0.78597 0.44422 0.0
H319 H 0.06774 0.76662 0.58155 0.0
H320 H 0.06762 0.77276 0.44444 0.0
H321 H 0.94303 0.78114 0.58105 0.0
H322 H 0.06911 0.77701 0.53193 0.0
H323 H 0.94353 0.79296 0.49413 0.0
C324 C 0.97055 0.78496 0.45481 0.0
C325 C 0.00524 0.77825 0.4402 0.0
C326 C 0.04144 0.77829 0.5426 0.0
C327 C 0.00612 0.78588 0.49765 0.0
C328 C 0.04054 0.77226 0.57101 0.0
C329 C 0.00506 0.77246 0.58547 0.0
C330 C 0.00657 0.78435 0.52831 0.0
C331 C 0.97096 0.78052 0.57072 0.0
C332 C 0.97086 0.78898 0.48337 0.0
C333 C 0.04025 0.7778 0.45493 0.0
N334 N 0.97251 0.7857 0.54286 0.0
N335 N 0.03975 0.78098 0.48296 0.0
H336 H 0.14776 0.277 0.29979 0.0
H337 H 0.25245 0.15677 0.18139 0.0
H338 H 0.10346 0.26594 0.21694 0.0
H339 H 0.24975 0.1219 0.26696 0.0
H340 H 0.22009 0.21783 0.19362 0.0
H341 H 0.20662 0.24231 0.28587 0.0
C342 C 0.15112 0.26881 0.27834 0.0
C343 C 0.12057 0.27406 0.25945 0.0
C344 C 0.22778 0.19735 0.20979 0.0
C345 C 0.18758 0.23414 0.24371 0.0
C346 C 0.24651 0.16264 0.20294 0.0
C347 C 0.25356 0.13416 0.22326 0.0
C348 C 0.21638 0.20372 0.23712 0.0
C349 C 0.24453 0.14302 0.25073 0.0
C350 C 0.18458 0.24871 0.27056 0.0
C351 C 0.12625 0.26216 0.23211 0.0
N352 N 0.22589 0.17695 0.25685 0.0
N353 N 0.15897 0.24218 0.2251 0.0
H354 H 0.77124 0.16638 0.83093 0.0
H355 H 0.85936 0.26939 0.69826 0.0
H356 H 0.75441 0.12543 0.74766 0.0
H357 H 0.9153 0.26709 0.77786 0.0
H358 H 0.80222 0.2383 0.71853 0.0
H359 H 0.80459 0.22386 0.81294 0.0
C360 C 0.77333 0.17015 0.80879 0.0
C361 C 0.76027 0.14101 0.79067 0.0
C362 C 0.82654 0.24575 0.73169 0.0
C363 C 0.7987 0.20643 0.77019 0.0
C364 C 0.85902 0.26381 0.72026 0.0
C365 C 0.89219 0.27049 0.73646 0.0
C366 C 0.82723 0.23461 0.75947 0.0
C367 C 0.8904 0.26205 0.7647 0.0
C368 C 0.7926 0.20283 0.79862 0.0
C369 C 0.76442 0.14709 0.76225 0.0
N370 N 0.85857 0.24398 0.7753 0.0
N371 N 0.78376 0.17903 0.75284 0.0
H372 H 0.73235 0.84205 0.20968 0.0
H373 H 0.85347 0.73449 0.32638 0.0
H374 H 0.7389 0.88084 0.29415 0.0
H375 H 0.89045 0.74389 0.24151 0.0
H376 H 0.79167 0.76492 0.31416 0.0
H377 H 0.76956 0.78378 0.22198 0.0
C378 C 0.74013 0.83748 0.23109 0.0
C379 C 0.73275 0.86636 0.25099 0.0
C380 C 0.81283 0.75911 0.2981 0.0
C381 C 0.77549 0.80009 0.26492 0.0
C382 C 0.848 0.74145 0.30493 0.0
C383 C 0.87726 0.73693 0.28488 0.0
C384 C 0.80679 0.77204 0.27105 0.0
C385 C 0.86876 0.74721 0.25756 0.0
C386 C 0.76166 0.8044 0.23796 0.0
C387 C 0.74423 0.85931 0.27825 0.0
N388 N 0.83438 0.76484 0.25147 0.0
N389 N 0.76555 0.82701 0.28439 0.0
H390 H 0.25394 0.87472 0.7313 0.0
H391 H 0.09777 0.73856 0.78974 0.0
H392 H 0.25151 0.8452 0.81789 0.0
H393 H 0.1402 0.72462 0.70651 0.0
H394 H 0.15849 0.77169 0.80166 0.0
H395 H 0.21721 0.81505 0.72153 0.0
C396 C 0.24666 0.85512 0.74809 0.0
C397 C 0.25564 0.86495 0.77537 0.0
C398 C 0.15502 0.76019 0.78102 0.0
C399 C 0.21306 0.79748 0.76458 0.0
C400 C 0.12041 0.74125 0.77428 0.0
C401 C 0.11384 0.72916 0.74711 0.0
C402 C 0.18251 0.76793 0.76021 0.0
C403 C 0.14407 0.73339 0.72776 0.0
C404 C 0.22583 0.82106 0.74257 0.0
C405 C 0.24547 0.83863 0.79649 0.0
N406 N 0.17667 0.75341 0.73449 0.0
N407 N 0.22393 0.80657 0.79072 0.0
H408 H 0.90671 0.7536 0.76085 0.0
H409 H 0.75806 0.9306 0.76408 0.0
H410 H 0.89099 0.8283 0.68993 0.0
H411 H 0.82244 0.89605 0.83646 0.0
H412 H 0.79832 0.88673 0.73621 0.0
H413 H 0.86759 0.79872 0.78838 0.0
C414 C 0.89472 0.77931 0.75094 0.0
C415 C 0.90197 0.787 0.7229 0.0
C416 C 0.80361 0.88878 0.75818 0.0
C417 C 0.85689 0.83872 0.75449 0.0
C418 C 0.7805 0.91358 0.77418 0.0
C419 C 0.78674 0.91686 0.80273 0.0
C420 C 0.83268 0.86631 0.77084 0.0
C421 C 0.81659 0.8944 0.81456 0.0
C422 C 0.87265 0.80519 0.76679 0.0
C423 C 0.88603 0.82113 0.7114 0.0
N424 N 0.83819 0.86976 0.79861 0.0
N425 N 0.86392 0.84558 0.72718 0.0
H426 H 0.24079 0.92704 0.2523 0.0
H427 H 0.08464 0.75696 0.25974 0.0
H428 H 0.17321 0.89357 0.18128 0.0
H429 H 0.10964 0.82957 0.33016 0.0
H430 H 0.12421 0.80003 0.23093 0.0
H431 H 0.20024 0.88496 0.2812 0.0
C432 C 0.21758 0.91061 0.2427 0.0
C433 C 0.21056 0.91368 0.21421 0.0
C434 C 0.12106 0.80651 0.25268 0.0
C435 C 0.16414 0.8652 0.24736 0.0
C436 C 0.09872 0.78179 0.26925 0.0
C437 C 0.09397 0.78948 0.29754 0.0
C438 C 0.13954 0.83887 0.26446 0.0
C439 C 0.1126 0.82244 0.30851 0.0
C440 C 0.1943 0.88682 0.25931 0.0
C441 C 0.17973 0.89202 0.20309 0.0
N442 N 0.13485 0.84575 0.292 0.0
N443 N 0.15787 0.8684 0.21965 0.0
H444 H 0.11869 0.18585 0.67143 0.0
H445 H 0.18076 0.10484 0.81914 0.0
H446 H 0.09512 0.24979 0.74624 0.0
H447 H 0.2505 0.08389 0.74657 0.0
H448 H 0.14031 0.15029 0.79215 0.0
H449 H 0.15925 0.1402 0.69815 0.0
C450 C 0.1222 0.19042 0.69338 0.0
C451 C 0.10383 0.22196 0.70653 0.0
C452 C 0.16454 0.1357 0.78223 0.0
C453 C 0.14915 0.16937 0.73725 0.0
C454 C 0.18751 0.10973 0.79757 0.0
C455 C 0.21926 0.09083 0.78517 0.0
C456 C 0.17281 0.142 0.75415 0.0
C457 C 0.22659 0.09815 0.75708 0.0
C458 C 0.14528 0.1644 0.7086 0.0
C459 C 0.10912 0.22623 0.73514 0.0
N460 N 0.20342 0.1229 0.74249 0.0
N461 N 0.13095 0.20009 0.74955 0.0
H462 H 0.80868 0.09966 0.18832 0.0
H463 H 0.89336 0.18958 0.32706 0.0
H464 H 0.75166 0.08329 0.26686 0.0
H465 H 0.90748 0.24702 0.24837 0.0
H466 H 0.84823 0.14329 0.3054 0.0
H467 H 0.85259 0.14707 0.21002 0.0
C468 C 0.80531 0.1061 0.21006 0.0
C469 C 0.77623 0.08774 0.22573 0.0
C470 C 0.86113 0.1662 0.29298 0.0
C471 C 0.82675 0.14119 0.25072 0.0
C472 C 0.88686 0.19256 0.3053 0.0
C473 C 0.90396 0.22242 0.28957 0.0
C474 C 0.85319 0.16917 0.26462 0.0
C475 C 0.89467 0.22474 0.26138 0.0
C476 C 0.8303 0.13316 0.2224 0.0
C477 C 0.77337 0.09704 0.2539 0.0
N478 N 0.87021 0.19829 0.24976 0.0
N479 N 0.79848 0.12284 0.26553 0.0
H480 H 0.09403 0.96364 0.13765 0.0
H481 H 0.88494 0.02766 0.1938 0.0
H482 H 0.07241 0.07252 0.17974 0.0
H483 H 0.90839 0.91606 0.15602 0.0
H484 H 0.95343 0.04476 0.1888 0.0
H485 H 0.02602 0.946 0.14391 0.0
C486 C 0.07503 0.98381 0.14833 0.0
C487 C 0.08904 0.01955 0.15835 0.0
C488 C 0.94366 0.01648 0.18165 0.0
C489 C 0.01089 -0.00036 0.16535 0.0
C490 C 0.90453 0.00677 0.1844 0.0
C491 C 0.89093 0.97049 0.17509 0.0
C492 C 0.9694 0.98977 0.16943 0.0
C493 C 0.91771 0.94421 0.16361 0.0
C494 C 0.03612 0.97375 0.1518 0.0
C495 C 0.06281 0.04486 0.17148 0.0
N496 N 0.95568 0.95447 0.16096 0.0
N497 N 0.02497 0.03437 0.17466 0.0
H498 H 0.04717 0.10532 0.64211 0.0
H499 H 0.96854 0.89816 0.69361 0.0
H500 H 0.9368 0.08906 0.68316 0.0
H501 H 0.08207 0.915 0.65752 0.0
H502 H 0.95704 0.96836 0.69081 0.0
H503 H 0.06118 0.03609 0.64842 0.0
C504 C 0.02595 0.08733 0.65261 0.0
C505 C 0.99067 0.10317 0.66208 0.0
C506 C 0.98455 0.95678 0.6836 0.0
C507 C 0.00643 0.02362 0.6691 0.0
C508 C 0.99105 0.91667 0.68507 0.0
C509 C 0.02618 0.9007 0.67554 0.0
C510 C 0.01332 0.98116 0.67237 0.0
C511 C 0.05468 0.92613 0.66522 0.0
C512 C 0.03393 0.0477 0.6561 0.0
C513 C 0.96408 0.07813 0.67514 0.0
N514 N 0.04751 0.96511 0.66372 0.0
N515 N 0.97249 0.03961 0.67822 0.0
H516 H 0.90243 0.96259 0.88346 0.0
H517 H 0.10851 0.02249 0.8207 0.0
H518 H 0.92618 0.07425 0.8457 0.0
H519 H 0.09187 0.92091 0.87221 0.0
H520 H 0.03994 0.03857 0.82597 0.0
H521 H 0.97035 0.94392 0.87646 0.0
C522 C 0.922 0.98314 0.87368 0.0
C523 C 0.90879 0.01998 0.86507 0.0
C524 C 0.05123 0.01273 0.83611 0.0
C525 C 0.98624 -0.0011 0.85702 0.0
C526 C 0.09038 0.00357 0.83316 0.0
C527 C 0.10596 0.97063 0.84639 0.0
C528 C 0.0274 0.98869 0.85234 0.0
C529 C 0.08096 0.94651 0.86163 0.0
C530 C 0.96072 0.97254 0.86978 0.0
C531 C 0.93535 0.04577 0.85289 0.0
N532 N 0.04282 0.95617 0.86434 0.0
N533 N 0.97284 0.03465 0.8491 0.0
H534 H 0.92688 0.92631 0.36782 0.0
H535 H 0.07461 0.091 0.31519 0.0
H536 H 0.03578 0.90082 0.32723 0.0
H537 H 0.97107 0.11491 0.36282 0.0
H538 H 0.05986 0.02127 0.3177 0.0
H539 H 0.94088 -0.004 0.36372 0.0
C540 C 0.9536 0.93539 0.35789 0.0
C541 C 0.98029 0.90774 0.34801 0.0
C542 C 0.04037 0.04184 0.32757 0.0
C543 C -0.00327 0.98735 0.34345 0.0
C544 C 0.04891 0.08164 0.32627 0.0
C545 C 0.02401 0.10894 0.33873 0.0
C546 C 0.00671 0.02928 0.34142 0.0
C547 C 0.99079 0.0951 0.3525 0.0
C548 C 0.96173 0.97515 0.35571 0.0
C549 C 0.0147 0.92112 0.33557 0.0
N550 N 0.98313 0.05628 0.35346 0.0
N551 N 0.02195 0.95999 0.33365 0.0
H552 H 0.38515 0.0357 0.12847 0.0
H553 H 0.59743 0.95292 0.14605 0.0
H554 H 0.41266 0.91258 0.12441 0.0
H555 H 0.57224 0.07548 0.13404 0.0
H556 H 0.53121 0.93741 0.13288 0.0
H557 H 0.45376 0.05063 0.12474 0.0
C558 C 0.40532 0.01166 0.12628 0.0
C559 C 0.39273 0.97262 0.12738 0.0
C560 C 0.5403 0.96768 0.13277 0.0
C561 C 0.47203 0.98985 0.12372 0.0
C562 C 0.57834 0.97665 0.14022 0.0
C563 C 0.59058 0.01575 0.14161 0.0
C564 C 0.51402 -0.00203 0.12697 0.0
C565 C 0.56401 0.04503 0.134 0.0
C566 C 0.44476 0.02033 0.12428 0.0
C567 C 0.42082 0.94304 0.12451 0.0
N568 N 0.52685 0.03557 0.12737 0.0
N569 N 0.45918 0.95226 0.12327 0.0
H570 H 0.01812 0.6183 0.61267 0.0
H571 H 0.96254 0.39435 0.63377 0.0
H572 H 0.91043 0.5778 0.64869 0.0
H573 H 0.07911 0.43358 0.61545 0.0
H574 H 0.9393 0.46093 0.62892 0.0
H575 H 0.03666 0.5507 0.6039 0.0
C576 C -0.00181 0.59538 0.61864 0.0
C577 C 0.96293 0.60399 0.6321 0.0
C578 C 0.96991 0.45496 0.62565 0.0
C579 C 0.98392 0.52643 0.6216 0.0
C580 C 0.98327 0.41675 0.62818 0.0
C581 C 0.02306 0.40818 0.62522 0.0
C582 C -0.00359 0.48508 0.6202 0.0
C583 C 0.04837 0.43888 0.61839 0.0
C584 C 0.00881 0.55674 0.61346 0.0
C585 C 0.93789 0.57285 0.63839 0.0
N586 N 0.03466 0.47606 0.61635 0.0
N587 N 0.94906 0.53549 0.63336 0.0
H588 H 0.41795 0.08375 0.87663 0.0
H589 H 0.58493 0.93257 0.83591 0.0
H590 H 0.4081 0.00193 0.80944 0.0
H591 H 0.60579 0.03427 0.886 0.0
H592 H 0.51762 0.95435 0.82916 0.0
H593 H 0.48627 0.0652 0.88196 0.0
C594 C 0.43037 0.06247 0.86267 0.0
C595 C 0.40733 0.04393 0.84282 0.0
C596 C 0.53697 0.97187 0.84164 0.0
C597 C 0.48474 0.02186 0.84923 0.0
C598 C 0.57506 0.95918 0.84573 0.0
C599 C 0.60065 0.98185 0.86135 0.0
C600 C 0.52456 0.00719 0.85354 0.0
C601 C 0.58688 0.01635 0.8735 0.0
C602 C 0.46919 0.05159 0.86589 0.0
C603 C 0.42473 0.01624 0.82542 0.0
N604 N 0.54968 0.02803 0.86933 0.0
N605 N 0.46231 0.00569 0.82923 0.0
H606 H 0.91953 0.42985 0.38178 0.0
H607 H 0.09297 0.58419 0.3892 0.0
H608 H 0.04056 0.4014 0.36829 0.0
H609 H 0.97117 0.61511 0.38483 0.0
H610 H 0.07447 0.51559 0.39268 0.0
H611 H 0.93859 0.49635 0.39369 0.0
C612 C 0.95008 0.43736 0.38147 0.0
C613 C 0.97833 0.40991 0.37355 0.0
C614 C 0.05187 0.53757 0.39133 0.0
C615 C 0.00037 0.48594 0.38749 0.0
C616 C 0.0624 0.57681 0.38923 0.0
C617 C 0.03375 0.60578 0.38606 0.0
C618 C 0.0124 0.52718 0.39032 0.0
C619 C -0.00549 0.59421 0.38708 0.0
C620 C 0.96096 0.47531 0.38844 0.0
C621 C 0.01762 0.42127 0.37426 0.0
N622 N 0.98507 0.55584 0.38876 0.0
N623 N 0.0274 0.45848 0.38079 0.0
loop_
_geom_bond_atom_site_label_1
_geom_bond_atom_site_label_2
_geom_bond_distance
_geom_bond_site_symmetry_2
_ccdc_geom_bond_type
C0 C1 1.351 . S
C0 N3 1.368 1_545 S
C0 H5 0.931 . S
C1 C0 1.351 . S
C1 N2 1.373 1_545 S
C1 H29 0.930 . S
N2 C1 1.373 1_565 S
N2 C4 1.340 . S
N3 C0 1.368 1_565 S
N3 C4 1.321 . S
N3 Co6 2.135 . S
C4 N2 1.340 . S
C4 N3 1.321 . S
C4 H28 0.930 . S
H5 C0 0.931 . S
Co6 N3 2.135 . S
Co6 N9 2.121 . S
Co6 O14 2.055 . S
Co6 O17 2.039 . S
Co6 N20 2.140 1_565 S
C7 O8 1.227 . S
C7 O17 1.265 . S
O8 C7 1.227 . S
N9 Co6 2.121 . S
N9 C11 1.375 . S
N9 C12 1.313 . S
C10 C11 1.338 . S
C10 N13 1.377 . S
C10 H30 0.930 . S
C11 N9 1.375 . S
C11 C10 1.338 . S
C11 H15 0.931 . S
C12 N9 1.313 . S
C12 N13 1.344 . S
C12 H16 0.934 . S
N13 C10 1.377 . S
N13 C12 1.344 . S
O14 Co6 2.055 . S
O14 C18 1.253 1_565 S
H15 C11 0.931 . S
H16 C12 0.934 . S
O17 Co6 2.039 . S
O17 C7 1.265 . S
C18 O14 1.253 1_545 S
C18 O19 1.227 . S
O19 C18 1.227 . S
N20 Co6 2.140 1_545 S
N20 C23 1.346 . S
N20 C24 1.345 . S
C21 C22 1.387 . S
C21 C25 1.391 . S
C22 C21 1.387 . S
C22 C23 1.369 . S
C22 H31 0.929 . S
C23 N20 1.346 . S
C23 C22 1.369 . S
C23 H26 0.928 . S
C24 N20 1.345 . S
C24 C25 1.371 . S
C24 H27 0.931 . S
C25 C21 1.391 . S
C25 C24 1.371 . S
C25 H32 0.930 . S
H26 C23 0.928 . S
H27 C24 0.931 . S
H28 C4 0.930 . S
H29 C1 0.930 . S
H30 C10 0.930 . S
H31 C22 0.929 . S
H32 C25 0.930 . S
C33 C34 1.351 . S
C33 N36 1.368 1_655 S
C33 H38 0.931 . S
C34 C33 1.351 . S
C34 N35 1.373 1_655 S
C34 H62 0.930 . S
N35 C34 1.373 1_455 S
N35 C37 1.340 . S
N36 C33 1.368 1_455 S
N36 C37 1.321 . S
N36 Co39 2.135 . S
C37 N35 1.340 . S
C37 N36 1.321 . S
C37 H61 0.930 . S
H38 C33 0.931 . S
Co39 N36 2.135 . S
Co39 N42 2.121 . S
Co39 O47 2.055 . S
Co39 O50 2.039 . S
Co39 N53 2.140 1_455 S
C40 O41 1.227 . S
C40 O50 1.265 . S
O41 C40 1.227 . S
N42 Co39 2.121 . S
N42 C44 1.375 . S
N42 C45 1.313 . S
C43 C44 1.338 . S
C43 N46 1.377 . S
C43 H63 0.930 . S
C44 N42 1.375 . S
C44 C43 1.338 . S
C44 H48 0.931 . S
C45 N42 1.313 . S
C45 N46 1.344 . S
C45 H49 0.930 . S
N46 C43 1.377 . S
N46 C45 1.344 . S
O47 Co39 2.055 . S
O47 C51 1.253 . S
H48 C44 0.931 . S
H49 C45 0.930 . S
O50 Co39 2.039 . S
O50 C40 1.265 . S
C51 O47 1.253 . S
C51 O52 1.227 1_455 S
O52 C51 1.227 1_655 S
N53 Co39 2.140 1_655 S
N53 C56 1.346 . S
N53 C57 1.345 . S
C54 C55 1.387 . S
C54 C58 1.391 . S
C55 C54 1.387 . S
C55 C56 1.369 . S
C55 H64 0.929 . S
C56 N53 1.346 . S
C56 C55 1.369 . S
C56 H59 0.928 . S
C57 N53 1.345 . S
C57 C58 1.371 . S
C57 H60 0.931 . S
C58 C54 1.391 . S
C58 C57 1.371 . S
C58 H65 0.930 . S
H59 C56 0.928 . S
H60 C57 0.931 . S
H61 C37 0.930 . S
H62 C34 0.930 . S
H63 C43 0.930 . S
H64 C55 0.929 . S
H65 C58 0.930 . S
C66 C67 1.351 . S
C66 N69 1.368 1_565 S
C66 H71 0.931 . S
C67 C66 1.351 . S
C67 N68 1.373 1_565 S
C67 H95 0.930 . S
N68 C67 1.373 1_545 S
N68 C70 1.340 . S
N69 C66 1.368 1_545 S
N69 C70 1.321 . S
N69 Co72 2.135 . S
C70 N68 1.340 . S
C70 N69 1.321 . S
C70 H94 0.930 . S
H71 C66 0.931 . S
Co72 N69 2.135 . S
Co72 N75 2.121 . S
Co72 O80 2.055 . S
Co72 O83 2.039 . S
Co72 N86 2.140 1_545 S
C73 O74 1.227 . S
C73 O83 1.265 . S
O74 C73 1.227 . S
N75 Co72 2.121 . S
N75 C77 1.375 . S
N75 C78 1.313 . S
C76 C77 1.338 . S
C76 N79 1.377 . S
C76 H96 0.930 . S
C77 N75 1.375 . S
C77 C76 1.338 . S
C77 H81 0.931 . S
C78 N75 1.313 . S
C78 N79 1.344 . S
C78 H82 0.930 . S
N79 C76 1.377 . S
N79 C78 1.344 . S
O80 Co72 2.055 . S
O80 C84 1.253 . S
H81 C77 0.931 . S
H82 C78 0.930 . S
O83 Co72 2.039 . S
O83 C73 1.265 . S
C84 O80 1.253 . S
C84 O85 1.227 1_545 S
O85 C84 1.227 1_565 S
N86 Co72 2.140 1_565 S
N86 C89 1.346 . S
N86 C90 1.345 . S
C87 C88 1.387 . S
C87 C91 1.391 . S
C88 C87 1.387 . S
C88 C89 1.369 . S
C88 H97 0.929 . S
C89 N86 1.346 . S
C89 C88 1.369 . S
C89 H92 0.928 . S
C90 N86 1.345 . S
C90 C91 1.371 . S
C90 H93 0.931 . S
C91 C87 1.391 . S
C91 C90 1.371 . S
C91 H98 0.930 . S
H92 C89 0.928 . S
H93 C90 0.931 . S
H94 C70 0.930 . S
H95 C67 0.930 . S
H96 C76 0.930 . S
H97 C88 0.929 . S
H98 C91 0.930 . S
C99 C100 1.351 . S
C99 N102 1.368 1_455 S
C99 H104 0.931 . S
C100 C99 1.351 . S
C100 N101 1.373 1_455 S
C100 H128 0.930 . S
N101 C100 1.373 1_655 S
N101 C103 1.340 . S
N102 C99 1.368 1_655 S
N102 C103 1.321 . S
N102 Co105 2.135 . S
C103 N101 1.340 . S
C103 N102 1.321 . S
C103 H127 0.930 . S
H104 C99 0.931 . S
Co105 N102 2.135 . S
Co105 N108 2.121 . S
Co105 O113 2.055 . S
Co105 O116 2.039 . S
Co105 N119 2.140 1_655 S
C106 O107 1.227 . S
C106 O116 1.265 . S
O107 C106 1.227 . S
N108 Co105 2.121 . S
N108 C110 1.375 . S
N108 C111 1.313 . S
C109 C110 1.338 . S
C109 N112 1.377 . S
C109 H129 0.930 . S
C110 N108 1.375 . S
C110 C109 1.338 . S
C110 H114 0.931 . S
C111 N108 1.313 . S
C111 N112 1.344 . S
C111 H115 0.934 . S
N112 C109 1.377 . S
N112 C111 1.344 . S
O113 Co105 2.055 . S
O113 C117 1.253 1_655 S
H114 C110 0.931 . S
H115 C111 0.934 . S
O116 Co105 2.039 . S
O116 C106 1.265 . S
C117 O113 1.253 1_455 S
C117 O118 1.227 . S
O118 C117 1.227 . S
N119 Co105 2.140 1_455 S
N119 C122 1.346 . S
N119 C123 1.345 . S
C120 C121 1.387 . S
C120 C124 1.391 . S
C121 C120 1.387 . S
C121 C122 1.369 . S
C121 H130 0.929 . S
C122 N119 1.346 . S
C122 C121 1.369 . S
C122 H125 0.928 . S
C123 N119 1.345 . S
C123 C124 1.371 . S
C123 H126 0.931 . S
C124 C120 1.391 . S
C124 C123 1.371 . S
C124 H131 0.930 . S
H125 C122 0.928 . S
H126 C123 0.931 . S
H127 C103 0.930 . S
H128 C100 0.930 . S
H129 C109 0.930 . S
H130 C121 0.929 . S
H131 C124 0.930 . S
C132 C133 1.351 . S
C132 N135 1.368 1_565 S
C132 H137 0.931 . S
C133 C132 1.351 . S
C133 N134 1.373 1_565 S
C133 H161 0.930 . S
N134 C133 1.373 1_545 S
N134 C136 1.340 . S
N135 C132 1.368 1_545 S
N135 C136 1.321 . S
N135 Co138 2.135 . S
C136 N134 1.340 . S
C136 N135 1.321 . S
C136 H160 0.930 . S
H137 C132 0.931 . S
Co138 N135 2.135 . S
Co138 N141 2.121 . S
Co138 O146 2.055 . S
Co138 O149 2.039 . S
Co138 N152 2.140 1_545 S
C139 O140 1.227 . S
C139 O149 1.265 . S
O140 C139 1.227 . S
N141 Co138 2.121 . S
N141 C143 1.375 . S
N141 C144 1.313 . S
C142 C143 1.338 . S
C142 N145 1.377 . S
C142 H162 0.930 . S
C143 N141 1.375 . S
C143 C142 1.338 . S
C143 H147 0.931 . S
C144 N141 1.313 . S
C144 N145 1.344 . S
C144 H148 0.930 . S
N145 C142 1.377 . S
N145 C144 1.344 . S
O146 Co138 2.055 . S
O146 C150 1.253 . S
H147 C143 0.931 . S
H148 C144 0.930 . S
O149 Co138 2.039 . S
O149 C139 1.265 . S
C150 O146 1.253 . S
C150 O151 1.227 1_545 S
O151 C150 1.227 1_565 S
N152 Co138 2.140 1_565 S
N152 C155 1.346 . S
N152 C156 1.345 . S
C153 C154 1.387 . S
C153 C157 1.391 . S
C154 C153 1.387 . S
C154 C155 1.369 . S
C154 H163 0.929 . S
C155 N152 1.346 . S
C155 C154 1.369 . S
C155 H158 0.928 . S
C156 N152 1.345 . S
C156 C157 1.371 . S
C156 H159 0.931 . S
C157 C153 1.391 . S
C157 C156 1.371 . S
C157 H164 0.930 . S
H158 C155 0.928 . S
H159 C156 0.931 . S
H160 C136 0.930 . S
H161 C133 0.930 . S
H162 C142 0.930 . S
H163 C154 0.929 . S
H164 C157 0.930 . S
C165 C166 1.351 . S
C165 N168 1.368 1_455 S
C165 H170 0.931 . S
C166 C165 1.351 . S
C166 N167 1.373 1_455 S
C166 H194 0.930 . S
N167 C166 1.373 1_655 S
N167 C169 1.340 . S
N168 C165 1.368 1_655 S
N168 C169 1.321 . S
N168 Co171 2.135 . S
C169 N167 1.340 . S
C169 N168 1.321 . S
C169 H193 0.930 . S
H170 C165 0.931 . S
Co171 N168 2.135 . S
Co171 N174 2.121 . S
Co171 O179 2.055 . S
Co171 O182 2.039 . S
Co171 N185 2.140 1_655 S
C172 O173 1.227 . S
C172 O182 1.265 . S
O173 C172 1.227 . S
N174 Co171 2.121 . S
N174 C176 1.375 . S
N174 C177 1.313 . S
C175 C176 1.338 . S
C175 N178 1.377 . S
C175 H195 0.930 . S
C176 N174 1.375 . S
C176 C175 1.338 . S
C176 H180 0.931 . S
C177 N174 1.313 . S
C177 N178 1.344 . S
C177 H181 0.934 . S
N178 C175 1.377 . S
N178 C177 1.344 . S
O179 Co171 2.055 . S
O179 C183 1.253 1_655 S
H180 C176 0.931 . S
H181 C177 0.934 . S
O182 Co171 2.039 . S
O182 C172 1.265 . S
C183 O179 1.253 1_455 S
C183 O184 1.227 . S
O184 C183 1.227 . S
N185 Co171 2.140 1_455 S
N185 C188 1.346 . S
N185 C189 1.345 . S
C186 C187 1.387 . S
C186 C190 1.391 . S
C187 C186 1.387 . S
C187 C188 1.369 . S
C187 H196 0.929 . S
C188 N185 1.346 . S
C188 C187 1.369 . S
C188 H191 0.928 . S
C189 N185 1.345 . S
C189 C190 1.371 . S
C189 H192 0.931 . S
C190 C186 1.391 . S
C190 C189 1.371 . S
C190 H197 0.930 . S
H191 C188 0.928 . S
H192 C189 0.931 . S
H193 C169 0.930 . S
H194 C166 0.930 . S
H195 C175 0.930 . S
H196 C187 0.929 . S
H197 C190 0.930 . S
C198 C199 1.351 . S
C198 N201 1.368 1_545 S
C198 H203 0.931 . S
C199 C198 1.351 . S
C199 N200 1.373 1_545 S
C199 H227 0.930 . S
N200 C199 1.373 1_565 S
N200 C202 1.340 . S
N201 C198 1.368 1_565 S
N201 C202 1.321 . S
N201 Co204 2.135 . S
C202 N200 1.340 . S
C202 N201 1.321 . S
C202 H226 0.930 . S
H203 C198 0.931 . S
Co204 N201 2.135 . S
Co204 N207 2.121 . S
Co204 O212 2.055 . S
Co204 O215 2.039 . S
Co204 N218 2.140 1_565 S
C205 O206 1.227 . S
C205 O215 1.265 . S
O206 C205 1.227 . S
N207 Co204 2.121 . S
N207 C209 1.375 . S
N207 C210 1.313 . S
C208 C209 1.338 . S
C208 N211 1.377 . S
C208 H228 0.930 . S
C209 N207 1.375 . S
C209 C208 1.338 . S
C209 H213 0.931 . S
C210 N207 1.313 . S
C210 N211 1.344 . S
C210 H214 0.934 . S
N211 C208 1.377 . S
N211 C210 1.344 . S
O212 Co204 2.055 . S
O212 C216 1.253 1_565 S
H213 C209 0.931 . S
H214 C210 0.934 . S
O215 Co204 2.039 . S
O215 C205 1.265 . S
C216 O212 1.253 1_545 S
C216 O217 1.227 . S
O217 C216 1.227 . S
N218 Co204 2.140 1_545 S
N218 C221 1.346 . S
N218 C222 1.345 . S
C219 C220 1.387 . S
C219 C223 1.391 . S
C220 C219 1.387 . S
C220 C221 1.369 . S
C220 H229 0.929 . S
C221 N218 1.346 . S
C221 C220 1.369 . S
C221 H224 0.928 . S
C222 N218 1.345 . S
C222 C223 1.371 . S
C222 H225 0.931 . S
C223 C219 1.391 . S
C223 C222 1.371 . S
C223 H230 0.930 . S
H224 C221 0.928 . S
H225 C222 0.931 . S
H226 C202 0.930 . S
H227 C199 0.930 . S
H228 C208 0.930 . S
H229 C220 0.929 . S
H230 C223 0.930 . S
C231 C232 1.351 . S
C231 N234 1.368 1_655 S
C231 H236 0.931 . S
C232 C231 1.351 . S
C232 N233 1.373 1_655 S
C232 H260 0.930 . S
N233 C232 1.373 1_455 S
N233 C235 1.340 . S
N234 C231 1.368 1_455 S
N234 C235 1.321 . S
N234 Co237 2.135 . S
C235 N233 1.340 . S
C235 N234 1.321 . S
C235 H259 0.930 . S
H236 C231 0.931 . S
Co237 N234 2.135 . S
Co237 N240 2.121 . S
Co237 O245 2.055 . S
Co237 O248 2.039 . S
Co237 N251 2.140 1_455 S
C238 O239 1.227 . S
C238 O248 1.265 . S
O239 C238 1.227 . S
N240 Co237 2.121 . S
N240 C242 1.375 . S
N240 C243 1.313 . S
C241 C242 1.338 . S
C241 N244 1.377 . S
C241 H261 0.930 . S
C242 N240 1.375 . S
C242 C241 1.338 . S
C242 H246 0.931 . S
C243 N240 1.313 . S
C243 N244 1.344 . S
C243 H247 0.930 . S
N244 C241 1.377 . S
N244 C243 1.344 . S
O245 Co237 2.055 . S
O245 C249 1.253 . S
H246 C242 0.931 . S
H247 C243 0.930 . S
O248 Co237 2.039 . S
O248 C238 1.265 . S
C249 O245 1.253 . S
C249 O250 1.227 1_455 S
O250 C249 1.227 1_655 S
N251 Co237 2.140 1_655 S
N251 C254 1.346 . S
N251 C255 1.345 . S
C252 C253 1.387 . S
C252 C256 1.391 . S
C253 C252 1.387 . S
C253 C254 1.369 . S
C253 H262 0.929 . S
C254 N251 1.346 . S
C254 C253 1.369 . S
C254 H257 0.928 . S
C255 N251 1.345 . S
C255 C256 1.371 . S
C255 H258 0.931 . S
C256 C252 1.391 . S
C256 C255 1.371 . S
C256 H263 0.930 . S
H257 C254 0.928 . S
H258 C255 0.931 . S
H259 C235 0.930 . S
H260 C232 0.930 . S
H261 C241 0.930 . S
H262 C253 0.929 . S
H263 C256 0.930 . S
H264 C270 0.930 . S
H265 C274 0.930 . S
H266 C279 0.929 . S
H267 C277 0.929 . S
H268 C272 0.929 . S
H269 C278 0.929 . S
C270 H264 0.930 . S
C270 C271 1.367 . S
C270 C278 1.378 . S
C271 C270 1.367 . S
C271 C279 1.433 1_545 S
C272 H268 0.929 . S
C272 C274 1.378 . S
C272 C276 1.350 1_565 S
C273 C276 1.463 1_554 S
C273 C278 1.350 . S
C273 N281 1.427 1_545 S
C274 H265 0.930 . S
C274 C272 1.378 . S
C274 C275 1.367 1_565 S
C275 C274 1.367 1_545 S
C275 C277 1.433 . S
C276 C272 1.350 1_545 S
C276 C273 1.463 1_556 S
C276 N280 1.427 . S
C277 H267 0.929 . S
C277 C275 1.433 . S
C277 N280 1.384 . S
C278 H269 0.929 . S
C278 C270 1.378 . S
C278 C273 1.350 . S
C279 H266 0.929 . S
C279 C271 1.433 1_565 S
C279 N281 1.384 . S
N280 C276 1.427 . S
N280 C277 1.384 . S
N281 C273 1.427 1_565 S
N281 C279 1.384 . S
H282 C288 0.930 . S
H283 C292 0.930 . S
H284 C297 0.929 . S
H285 C295 0.929 . S
H286 C290 0.929 . S
H287 C296 0.929 . S
C288 H282 0.930 . S
C288 C289 1.367 1_655 S
C288 C296 1.378 . S
C289 C288 1.367 1_455 S
C289 C297 1.433 . S
C290 H286 0.929 . S
C290 C292 1.378 . S
C290 C294 1.350 . S
C291 C294 1.463 . S
C291 C296 1.350 1_455 S
C291 N299 1.427 . S
C292 H283 0.930 . S
C292 C290 1.378 . S
C292 C293 1.367 . S
C293 C292 1.367 . S
C293 C295 1.433 1_455 S
C294 C290 1.350 . S
C294 C291 1.463 . S
C294 N298 1.427 1_455 S
C295 H285 0.929 . S
C295 C293 1.433 1_655 S
C295 N298 1.384 . S
C296 H287 0.929 . S
C296 C288 1.378 . S
C296 C291 1.350 1_655 S
C297 H284 0.929 . S
C297 C289 1.433 . S
C297 N299 1.384 . S
N298 C294 1.427 1_655 S
N298 C295 1.384 . S
N299 C291 1.427 . S
N299 C297 1.384 . S
H300 C306 0.930 . S
H301 C310 0.930 . S
H302 C315 0.929 . S
H303 C313 0.929 . S
H304 C308 0.929 . S
H305 C314 0.929 . S
C306 H300 0.930 . S
C306 C307 1.367 1_565 S
C306 C314 1.378 . S
C307 C306 1.367 1_545 S
C307 C315 1.433 . S
C308 H304 0.929 . S
C308 C310 1.378 . S
C308 C312 1.350 . S
C309 C312 1.463 1_554 S
C309 C314 1.350 1_545 S
C309 N317 1.427 . S
C310 H301 0.930 . S
C310 C308 1.378 . S
C310 C311 1.367 . S
C311 C310 1.367 . S
C311 C313 1.433 1_545 S
C312 C308 1.350 . S
C312 C309 1.463 1_556 S
C312 N316 1.427 1_545 S
C313 H303 0.929 . S
C313 C311 1.433 1_565 S
C313 N316 1.384 . S
C314 H305 0.929 . S
C314 C306 1.378 . S
C314 C309 1.350 1_565 S
C315 H302 0.929 . S
C315 C307 1.433 . S
C315 N317 1.384 . S
N316 C312 1.427 1_565 S
N316 C313 1.384 . S
N317 C309 1.427 . S
N317 C315 1.384 . S
H318 C324 0.930 . S
H319 C328 0.930 . S
H320 C333 0.929 . S
H321 C331 0.929 . S
H322 C326 0.929 . S
H323 C332 0.929 . S
C324 H318 0.930 . S
C324 C325 1.367 1_655 S
C324 C332 1.378 . S
C325 C324 1.367 1_455 S
C325 C333 1.433 . S
C326 H322 0.929 . S
C326 C328 1.378 . S
C326 C330 1.350 . S
C327 C330 1.463 . S
C327 C332 1.350 1_455 S
C327 N335 1.427 . S
C328 H319 0.930 . S
C328 C326 1.378 . S
C328 C329 1.367 . S
C329 C328 1.367 . S
C329 C331 1.433 1_455 S
C330 C326 1.350 . S
C330 C327 1.463 . S
C330 N334 1.427 1_455 S
C331 H321 0.929 . S
C331 C329 1.433 1_655 S
C331 N334 1.384 . S
C332 H323 0.929 . S
C332 C324 1.378 . S
C332 C327 1.350 1_655 S
C333 H320 0.929 . S
C333 C325 1.433 . S
C333 N335 1.384 . S
N334 C330 1.427 1_655 S
N334 C331 1.384 . S
N335 C327 1.427 . S
N335 C333 1.384 . S
H336 C342 0.930 . S
H337 C346 0.930 . S
H338 C351 0.929 . S
H339 C349 0.929 . S
H340 C344 0.929 . S
H341 C350 0.929 . S
C342 H336 0.930 . S
C342 C343 1.367 . S
C342 C350 1.378 . S
C343 C342 1.367 . S
C343 C351 1.433 . S
C344 H340 0.929 . S
C344 C346 1.378 . S
C344 C348 1.350 . S
C345 C348 1.463 . S
C345 C350 1.350 . S
C345 N353 1.427 . S
C346 H337 0.930 . S
C346 C344 1.378 . S
C346 C347 1.367 . S
C347 C346 1.367 . S
C347 C349 1.433 . S
C348 C344 1.350 . S
C348 C345 1.463 . S
C348 N352 1.427 . S
C349 H339 0.929 . S
C349 C347 1.433 . S
C349 N352 1.384 . S
C350 H341 0.929 . S
C350 C342 1.378 . S
C350 C345 1.350 . S
C351 H338 0.929 . S
C351 C343 1.433 . S
C351 N353 1.384 . S
N352 C348 1.427 . S
N352 C349 1.384 . S
N353 C345 1.427 . S
N353 C351 1.384 . S
H354 C360 0.930 . S
H355 C364 0.930 . S
H356 C369 0.929 . S
H357 C367 0.929 . S
H358 C362 0.929 . S
H359 C368 0.929 . S
C360 H354 0.930 . S
C360 C361 1.367 . S
C360 C368 1.378 . S
C361 C360 1.367 . S
C361 C369 1.433 . S
C362 H358 0.929 . S
C362 C364 1.378 . S
C362 C366 1.350 . S
C363 C366 1.463 . S
C363 C368 1.350 . S
C363 N371 1.427 . S
C364 H355 0.930 . S
C364 C362 1.378 . S
C364 C365 1.367 . S
C365 C364 1.367 . S
C365 C367 1.433 . S
C366 C362 1.350 . S
C366 C363 1.463 . S
C366 N370 1.427 . S
C367 H357 0.929 . S
C367 C365 1.433 . S
C367 N370 1.384 . S
C368 H359 0.929 . S
C368 C360 1.378 . S
C368 C363 1.350 . S
C369 H356 0.929 . S
C369 C361 1.433 . S
C369 N371 1.384 . S
N370 C366 1.427 . S
N370 C367 1.384 . S
N371 C363 1.427 . S
N371 C369 1.384 . S
H372 C378 0.930 . S
H373 C382 0.930 . S
H374 C387 0.929 . S
H375 C385 0.929 . S
H376 C380 0.929 . S
H377 C386 0.929 . S
C378 H372 0.930 . S
C378 C379 1.367 . S
C378 C386 1.378 . S
C379 C378 1.367 . S
C379 C387 1.433 . S
C380 H376 0.929 . S
C380 C382 1.378 . S
C380 C384 1.350 . S
C381 C384 1.463 . S
C381 C386 1.350 . S
C381 N389 1.427 . S
C382 H373 0.930 . S
C382 C380 1.378 . S
C382 C383 1.367 . S
C383 C382 1.367 . S
C383 C385 1.433 . S
C384 C380 1.350 . S
C384 C381 1.463 . S
C384 N388 1.427 . S
C385 H375 0.929 . S
C385 C383 1.433 . S
C385 N388 1.384 . S
C386 H377 0.929 . S
C386 C378 1.378 . S
C386 C381 1.350 . S
C387 H374 0.929 . S
C387 C379 1.433 . S
C387 N389 1.384 . S
N388 C384 1.427 . S
N388 C385 1.384 . S
N389 C381 1.427 . S
N389 C387 1.384 . S
H390 C396 0.930 . S
H391 C400 0.930 . S
H392 C405 0.929 . S
H393 C403 0.929 . S
H394 C398 0.929 . S
H395 C404 0.929 . S
C396 H390 0.930 . S
C396 C397 1.367 . S
C396 C404 1.378 . S
C397 C396 1.367 . S
C397 C405 1.433 . S
C398 H394 0.929 . S
C398 C400 1.378 . S
C398 C402 1.350 . S
C399 C402 1.463 . S
C399 C404 1.350 . S
C399 N407 1.427 . S
C400 H391 0.930 . S
C400 C398 1.378 . S
C400 C401 1.367 . S
C401 C400 1.367 . S
C401 C403 1.433 . S
C402 C398 1.350 . S
C402 C399 1.463 . S
C402 N406 1.427 . S
C403 H393 0.929 . S
C403 C401 1.433 . S
C403 N406 1.384 . S
C404 H395 0.929 . S
C404 C396 1.378 . S
C404 C399 1.350 . S
C405 H392 0.929 . S
C405 C397 1.433 . S
C405 N407 1.384 . S
N406 C402 1.427 . S
N406 C403 1.384 . S
N407 C399 1.427 . S
N407 C405 1.384 . S
H408 C414 0.930 . S
H409 C418 0.930 . S
H410 C423 0.929 . S
H411 C421 0.929 . S
H412 C416 0.929 . S
H413 C422 0.929 . S
C414 H408 0.930 . S
C414 C415 1.367 . S
C414 C422 1.378 . S
C415 C414 1.367 . S
C415 C423 1.433 . S
C416 H412 0.929 . S
C416 C418 1.378 . S
C416 C420 1.350 . S
C417 C420 1.463 . S
C417 C422 1.350 . S
C417 N425 1.427 . S
C418 H409 0.930 . S
C418 C416 1.378 . S
C418 C419 1.367 . S
C419 C418 1.367 . S
C419 C421 1.433 . S
C420 C416 1.350 . S
C420 C417 1.463 . S
C420 N424 1.427 . S
C421 H411 0.929 . S
C421 C419 1.433 . S
C421 N424 1.384 . S
C422 H413 0.929 . S
C422 C414 1.378 . S
C422 C417 1.350 . S
C423 H410 0.929 . S
C423 C415 1.433 . S
C423 N425 1.384 . S
N424 C420 1.427 . S
N424 C421 1.384 . S
N425 C417 1.427 . S
N425 C423 1.384 . S
H426 C432 0.930 . S
H427 C436 0.930 . S
H428 C441 0.929 . S
H429 C439 0.929 . S
H430 C434 0.929 . S
H431 C440 0.929 . S
C432 H426 0.930 . S
C432 C433 1.367 . S
C432 C440 1.378 . S
C433 C432 1.367 . S
C433 C441 1.433 . S
C434 H430 0.929 . S
C434 C436 1.378 . S
C434 C438 1.350 . S
C435 C438 1.463 . S
C435 C440 1.350 . S
C435 N443 1.427 . S
C436 H427 0.930 . S
C436 C434 1.378 . S
C436 C437 1.367 . S
C437 C436 1.367 . S
C437 C439 1.433 . S
C438 C434 1.350 . S
C438 C435 1.463 . S
C438 N442 1.427 . S
C439 H429 0.929 . S
C439 C437 1.433 . S
C439 N442 1.384 . S
C440 H431 0.929 . S
C440 C432 1.378 . S
C440 C435 1.350 . S
C441 H428 0.929 . S
C441 C433 1.433 . S
C441 N443 1.384 . S
N442 C438 1.427 . S
N442 C439 1.384 . S
N443 C435 1.427 . S
N443 C441 1.384 . S
H444 C450 0.930 . S
H445 C454 0.930 . S
H446 C459 0.929 . S
H447 C457 0.929 . S
H448 C452 0.929 . S
H449 C458 0.929 . S
C450 H444 0.930 . S
C450 C451 1.367 . S
C450 C458 1.378 . S
C451 C450 1.367 . S
C451 C459 1.433 . S
C452 H448 0.929 . S
C452 C454 1.378 . S
C452 C456 1.350 . S
C453 C456 1.463 . S
C453 C458 1.350 . S
C453 N461 1.427 . S
C454 H445 0.930 . S
C454 C452 1.378 . S
C454 C455 1.367 . S
C455 C454 1.367 . S
C455 C457 1.433 . S
C456 C452 1.350 . S
C456 C453 1.463 . S
C456 N460 1.427 . S
C457 H447 0.929 . S
C457 C455 1.433 . S
C457 N460 1.384 . S
C458 H449 0.929 . S
C458 C450 1.378 . S
C458 C453 1.350 . S
C459 H446 0.929 . S
C459 C451 1.433 . S
C459 N461 1.384 . S
N460 C456 1.427 . S
N460 C457 1.384 . S
N461 C453 1.427 . S
N461 C459 1.384 . S
H462 C468 0.930 . S
H463 C472 0.930 . S
H464 C477 0.929 . S
H465 C475 0.929 . S
H466 C470 0.929 . S
H467 C476 0.929 . S
C468 H462 0.930 . S
C468 C469 1.367 . S
C468 C476 1.378 . S
C469 C468 1.367 . S
C469 C477 1.433 . S
C470 H466 0.929 . S
C470 C472 1.378 . S
C470 C474 1.350 . S
C471 C474 1.463 . S
C471 C476 1.350 . S
C471 N479 1.427 . S
C472 H463 0.930 . S
C472 C470 1.378 . S
C472 C473 1.367 . S
C473 C472 1.367 . S
C473 C475 1.433 . S
C474 C470 1.350 . S
C474 C471 1.463 . S
C474 N478 1.427 . S
C475 H465 0.929 . S
C475 C473 1.433 . S
C475 N478 1.384 . S
C476 H467 0.929 . S
C476 C468 1.378 . S
C476 C471 1.350 . S
C477 H464 0.929 . S
C477 C469 1.433 . S
C477 N479 1.384 . S
N478 C474 1.427 . S
N478 C475 1.384 . S
N479 C471 1.427 . S
N479 C477 1.384 . S
H480 C486 0.930 . S
H481 C490 0.930 . S
H482 C495 0.929 . S
H483 C493 0.929 . S
H484 C488 0.929 . S
H485 C494 0.929 . S
C486 H480 0.930 . S
C486 C487 1.367 . S
C486 C494 1.378 . S
C487 C486 1.367 . S
C487 C495 1.433 1_565 S
C488 H484 0.929 . S
C488 C490 1.378 . S
C488 C492 1.350 . S
C489 C492 1.463 1_455 S
C489 C494 1.350 1_545 S
C489 N497 1.427 . S
C490 H481 0.930 . S
C490 C488 1.378 . S
C490 C491 1.367 . S
C491 C490 1.367 . S
C491 C493 1.433 1_545 S
C492 C488 1.350 . S
C492 C489 1.463 1_655 S
C492 N496 1.427 1_545 S
C493 H483 0.929 . S
C493 C491 1.433 1_565 S
C493 N496 1.384 . S
C494 H485 0.929 . S
C494 C486 1.378 . S
C494 C489 1.350 1_565 S
C495 H482 0.929 . S
C495 C487 1.433 1_545 S
C495 N497 1.384 . S
N496 C492 1.427 1_565 S
N496 C493 1.384 . S
N497 C489 1.427 . S
N497 C495 1.384 . S
H498 C504 0.930 . S
H499 C508 0.930 . S
H500 C513 0.929 1_655 S
H501 C511 0.929 . S
H502 C506 0.929 . S
H503 C512 0.929 . S
C504 H498 0.930 . S
C504 C505 1.367 . S
C504 C512 1.378 . S
C505 C504 1.367 . S
C505 C513 1.433 . S
C506 H502 0.929 . S
C506 C508 1.378 . S
C506 C510 1.350 1_655 S
C507 C510 1.463 1_545 S
C507 C512 1.350 . S
C507 N515 1.427 1_455 S
C508 H499 0.930 . S
C508 C506 1.378 . S
C508 C509 1.367 . S
C509 C508 1.367 . S
C509 C511 1.433 1_655 S
C510 C506 1.350 1_455 S
C510 C507 1.463 1_565 S
C510 N514 1.427 . S
C511 H501 0.929 . S
C511 C509 1.433 1_455 S
C511 N514 1.384 . S
C512 H503 0.929 . S
C512 C504 1.378 . S
C512 C507 1.350 . S
C513 H500 0.929 1_455 S
C513 C505 1.433 . S
C513 N515 1.384 1_455 S
N514 C510 1.427 . S
N514 C511 1.384 . S
N515 C507 1.427 1_655 S
N515 C513 1.384 1_655 S
H516 C522 0.930 . S
H517 C526 0.930 . S
H518 C531 0.929 . S
H519 C529 0.929 . S
H520 C524 0.929 . S
H521 C530 0.929 . S
C522 H516 0.930 . S
C522 C523 1.367 . S
C522 C530 1.378 . S
C523 C522 1.367 . S
C523 C531 1.433 1_565 S
C524 H520 0.929 . S
C524 C526 1.378 . S
C524 C528 1.350 . S
C525 C528 1.463 1_655 S
C525 C530 1.350 1_545 S
C525 N533 1.427 . S
C526 H517 0.930 . S
C526 C524 1.378 . S
C526 C527 1.367 . S
C527 C526 1.367 . S
C527 C529 1.433 . S
C528 C524 1.350 . S
C528 C525 1.463 1_455 S
C528 N532 1.427 . S
C529 H519 0.929 . S
C529 C527 1.433 . S
C529 N532 1.384 . S
C530 H521 0.929 . S
C530 C522 1.378 . S
C530 C525 1.350 1_565 S
C531 H518 0.929 . S
C531 C523 1.433 1_545 S
C531 N533 1.384 . S
N532 C528 1.427 . S
N532 C529 1.384 . S
N533 C525 1.427 . S
N533 C531 1.384 . S
H534 C540 0.930 . S
H535 C544 0.930 . S
H536 C549 0.929 . S
H537 C547 0.929 . S
H538 C542 0.929 . S
H539 C548 0.929 . S
C540 H534 0.930 . S
C540 C541 1.367 1_655 S
C540 C548 1.378 . S
C541 C540 1.367 1_455 S
C541 C549 1.433 . S
C542 H538 0.929 . S
C542 C544 1.378 . S
C542 C546 1.350 . S
C543 C546 1.463 1_565 S
C543 C548 1.350 1_455 S
C543 N551 1.427 . S
C544 H535 0.930 . S
C544 C542 1.378 . S
C544 C545 1.367 1_455 S
C545 C544 1.367 1_655 S
C545 C547 1.433 . S
C546 C542 1.350 . S
C546 C543 1.463 1_545 S
C546 N550 1.427 1_455 S
C547 H537 0.929 . S
C547 C545 1.433 . S
C547 N550 1.384 . S
C548 H539 0.929 . S
C548 C540 1.378 . S
C548 C543 1.350 1_655 S
C549 H536 0.929 . S
C549 C541 1.433 . S
C549 N551 1.384 . S
N550 C546 1.427 1_655 S
N550 C547 1.384 . S
N551 C543 1.427 . S
N551 C549 1.384 . S
H552 C558 0.930 . S
H553 C562 0.930 . S
H554 C567 0.929 . S
H555 C565 0.929 . S
H556 C560 0.929 . S
H557 C566 0.929 . S
C558 H552 0.930 . S
C558 C559 1.367 1_545 S
C558 C566 1.378 . S
C559 C558 1.367 1_565 S
C559 C567 1.433 . S
C560 H556 0.929 . S
C560 C562 1.378 . S
C560 C564 1.350 1_565 S
C561 C564 1.463 . S
C561 C566 1.350 . S
C561 N569 1.427 1_545 S
C562 H553 0.930 . S
C562 C560 1.378 . S
C562 C563 1.367 1_565 S
C563 C562 1.367 1_545 S
C563 C565 1.433 . S
C564 C560 1.350 1_545 S
C564 C561 1.463 . S
C564 N568 1.427 . S
C565 H555 0.929 . S
C565 C563 1.433 . S
C565 N568 1.384 . S
C566 H557 0.929 . S
C566 C558 1.378 . S
C566 C561 1.350 . S
C567 H554 0.929 . S
C567 C559 1.433 . S
C567 N569 1.384 . S
N568 C564 1.427 . S
N568 C565 1.384 . S
N569 C561 1.427 1_565 S
N569 C567 1.384 . S
H570 C576 0.930 . S
H571 C580 0.930 . S
H572 C585 0.929 . S
H573 C583 0.929 . S
H574 C578 0.929 . S
H575 C584 0.929 . S
C576 H570 0.930 . S
C576 C577 1.367 1_455 S
C576 C584 1.378 . S
C577 C576 1.367 1_655 S
C577 C585 1.433 . S
C578 H574 0.929 . S
C578 C580 1.378 . S
C578 C582 1.350 1_655 S
C579 C582 1.463 . S
C579 C584 1.350 . S
C579 N587 1.427 1_455 S
C580 H571 0.930 . S
C580 C578 1.378 . S
C580 C581 1.367 1_655 S
C581 C580 1.367 1_455 S
C581 C583 1.433 . S
C582 C578 1.350 1_455 S
C582 C579 1.463 . S
C582 N586 1.427 . S
C583 H573 0.929 . S
C583 C581 1.433 . S
C583 N586 1.384 . S
C584 H575 0.929 . S
C584 C576 1.378 . S
C584 C579 1.350 . S
C585 H572 0.929 . S
C585 C577 1.433 . S
C585 N587 1.384 . S
N586 C582 1.427 . S
N586 C583 1.384 . S
N587 C579 1.427 1_655 S
N587 C585 1.384 . S
H588 C594 0.930 . S
H589 C598 0.930 . S
H590 C603 0.929 . S
H591 C601 0.929 . S
H592 C596 0.928 1_565 S
H593 C602 0.929 . S
C594 H588 0.930 . S
C594 C595 1.367 . S
C594 C602 1.378 . S
C595 C594 1.367 . S
C595 C603 1.433 . S
C596 H592 0.928 1_545 S
C596 C598 1.377 1_545 S
C596 C600 1.350 . S
C597 C600 1.463 . S
C597 C602 1.350 . S
C597 N605 1.427 . S
C598 H589 0.930 . S
C598 C596 1.377 1_565 S
C598 C599 1.367 . S
C599 C598 1.367 . S
C599 C601 1.433 1_565 S
C600 C596 1.350 . S
C600 C597 1.463 . S
C600 N604 1.427 . S
C601 H591 0.929 . S
C601 C599 1.433 1_545 S
C601 N604 1.384 . S
C602 H593 0.929 . S
C602 C594 1.378 . S
C602 C597 1.350 . S
C603 H590 0.929 . S
C603 C595 1.433 . S
C603 N605 1.384 . S
N604 C600 1.427 . S
N604 C601 1.384 . S
N605 C597 1.427 . S
N605 C603 1.384 . S
H606 C612 0.930 . S
H607 C616 0.930 . S
H608 C621 0.929 . S
H609 C619 0.929 . S
H610 C614 0.929 . S
H611 C620 0.929 . S
C612 H606 0.930 . S
C612 C613 1.367 . S
C612 C620 1.378 . S
C613 C612 1.367 . S
C613 C621 1.433 1_655 S
C614 H610 0.929 . S
C614 C616 1.378 . S
C614 C618 1.350 . S
C615 C618 1.463 . S
C615 C620 1.350 1_455 S
C615 N623 1.427 . S
C616 H607 0.930 . S
C616 C614 1.378 . S
C616 C617 1.367 . S
C617 C616 1.367 . S
C617 C619 1.433 1_455 S
C618 C614 1.350 . S
C618 C615 1.463 . S
C618 N622 1.427 1_455 S
C619 H609 0.929 . S
C619 C617 1.433 1_655 S
C619 N622 1.384 . S
C620 H611 0.929 . S
C620 C612 1.378 . S
C620 C615 1.350 1_655 S
C621 H608 0.929 . S
C621 C613 1.433 1_455 S
C621 N623 1.384 . S
N622 C618 1.427 1_655 S
N622 C619 1.384 . S
N623 C615 1.427 . S
N623 C621 1.384 . S
C271 C18 1.700 . S
C275 C150 1.696 . S
C289 C183 1.700 . S
C293 C51 1.695 . S
C307 C84 1.699 . S
C311 C216 1.697 . S
C325 C249 1.696 . S
C329 C117 1.700 . S
C343 C186 0.390 . S
C347 C21 0.442 . S
C361 C219 0.429 . S
C365 C54 0.401 . S
C379 C87 0.389 . S
C383 C252 0.444 . S
C397 C153 0.443 . S
C401 C120 0.394 . S
C415 C106 1.169 . S
C419 C205 1.172 . S
C433 C7 1.160 . S
C437 C238 1.179 . S
C451 C40 1.175 . S
C455 C139 1.163 . S
C469 C73 1.162 . S
C473 C172 1.177 . S
C487 N2 0.667 . S
C491 N68 0.655 . S
C505 N35 0.648 . S
C509 N101 0.666 . S
C523 N200 0.647 . S
C527 N134 0.666 . S
C541 N233 0.639 . S
C545 N167 0.654 . S
C559 N13 1.104 . S
C563 N79 1.114 . S
C577 N112 1.113 . S
C581 N46 1.106 . S
C595 N145 1.113 . S
C599 N211 1.102 . S
C613 N178 1.108 . S
C617 N244 1.106 . S
