# Generated by pormake.
# Topology ske, (6)-cn, num edge types: 1
# Building blocks:
#     Node 0, Type 0, BuildingBlock: FUNLAD_clean_sbu_0, # of connection points: 6
#     Node 1, Type 0, BuildingBlock: FUNLAD_clean_sbu_0, # of connection points: 6
#     Node 2, Type 0, BuildingBlock: FUNLAD_clean_sbu_0, # of connection points: 6
#     Node 3, Type 0, BuildingBlock: FUNLAD_clean_sbu_0, # of connection points: 6
#     Node 4, Type 0, BuildingBlock: FUNLAD_clean_sbu_0, # of connection points: 6
#     Node 5, Type 0, BuildingBlock: FUNLAD_clean_sbu_0, # of connection points: 6
#     Node 6, Type 0, BuildingBlock: FUNLAD_clean_sbu_0, # of connection points: 6
#     Node 7, Type 0, BuildingBlock: FUNLAD_clean_sbu_0, # of connection points: 6
#     Edge 8, Type (0, 0), BuildingBlock: CIFDUS_clean_linker_0, # of connection points: 2
#     Edge 9, Type (0, 0), BuildingBlock: CIFDUS_clean_linker_0, # of connection points: 2
#     Edge 10, Type (0, 0), BuildingBlock: CIFDUS_clean_linker_0, # of connection points: 2
#     Edge 11, Type (0, 0), BuildingBlock: CIFDUS_clean_linker_0, # of connection points: 2
#     Edge 12, Type (0, 0), BuildingBlock: CIFDUS_clean_linker_0, # of connection points: 2
#     Edge 13, Type (0, 0), BuildingBlock: CIFDUS_clean_linker_0, # of connection points: 2
#     Edge 14, Type (0, 0), BuildingBlock: CIFDUS_clean_linker_0, # of connection points: 2
#     Edge 15, Type (0, 0), BuildingBlock: CIFDUS_clean_linker_0, # of connection points: 2
#     Edge 16, Type (0, 0), BuildingBlock: CIFDUS_clean_linker_0, # of connection points: 2
#     Edge 17, Type (0, 0), BuildingBlock: CIFDUS_clean_linker_0, # of connection points: 2
#     Edge 18, Type (0, 0), BuildingBlock: CIFDUS_clean_linker_0, # of connection points: 2
#     Edge 19, Type (0, 0), BuildingBlock: CIFDUS_clean_linker_0, # of connection points: 2
#     Edge 20, Type (0, 0), BuildingBlock: CIFDUS_clean_linker_0, # of connection points: 2
#     Edge 21, Type (0, 0), BuildingBlock: CIFDUS_clean_linker_0, # of connection points: 2
#     Edge 22, Type (0, 0), BuildingBlock: CIFDUS_clean_linker_0, # of connection points: 2
#     Edge 23, Type (0, 0), BuildingBlock: CIFDUS_clean_linker_0, # of connection points: 2
#     Edge 24, Type (0, 0), BuildingBlock: CIFDUS_clean_linker_0, # of connection points: 2
#     Edge 25, Type (0, 0), BuildingBlock: CIFDUS_clean_linker_0, # of connection points: 2
#     Edge 26, Type (0, 0), BuildingBlock: CIFDUS_clean_linker_0, # of connection points: 2
#     Edge 27, Type (0, 0), BuildingBlock: CIFDUS_clean_linker_0, # of connection points: 2
#     Edge 28, Type (0, 0), BuildingBlock: CIFDUS_clean_linker_0, # of connection points: 2
#     Edge 29, Type (0, 0), BuildingBlock: CIFDUS_clean_linker_0, # of connection points: 2
#     Edge 30, Type (0, 0), BuildingBlock: CIFDUS_clean_linker_0, # of connection points: 2
#     Edge 31, Type (0, 0), BuildingBlock: CIFDUS_clean_linker_0, # of connection points: 2
# Relax obj value: 0.048
# Max RMSD: 0.118
# Mean RMSD: 0.114
data_MOF--net-ske--node1-FUNLAD_clean_sbu_0--edge1-CIFDUS_clean_linker_0
_symmetry_space_group_name_H-M    P1
_symmetry_Int_Tables_number       1
_symmetry_cell_setting            triclinic
loop_
_symmetry_equiv_pos_as_xyz
'x, y, z'
_cell_length_a     50.896633
_cell_length_b     39.579902
_cell_length_c     13.300423
_cell_angle_alpha  90.009324
_cell_angle_beta   89.853207
_cell_angle_gamma 91.969818
loop_
_atom_site_label
_atom_site_type_symbol
_atom_site_fract_x
_atom_site_fract_y
_atom_site_fract_z
_atom_type_partial_charge
C0 C 0.18932 0.2776 0.55986 0.0
N1 N 0.14187 0.18923 0.53313 0.0
C2 C 0.16115 0.17613 0.47536 0.0
C3 C 0.16261 0.14128 0.46259 0.0
C4 C 0.14427 0.1195 0.51074 0.0
C5 C 0.12536 0.13346 0.57409 0.0
C6 C 0.12437 0.16866 0.58369 0.0
Zn7 Zn 0.13813 0.24079 0.52886 0.0
C8 C 0.12945 0.2721 0.72502 0.0
N9 N 0.13155 0.34837 0.50551 0.0
C10 C 0.14802 0.3664 0.44323 0.0
C11 C 0.11332 0.36402 0.56243 0.0
C12 C 0.11148 0.39917 0.55929 0.0
C13 C 0.12831 0.41838 0.49598 0.0
C14 C 0.1466 0.40154 0.43677 0.0
Zn15 Zn 0.13483 0.29682 0.51472 0.0
O16 O 0.17859 0.24816 0.55607 0.0
C17 C 0.1435 0.26546 0.31827 0.0
O18 O 0.17581 0.30313 0.53929 0.0
H19 H 0.1003 0.34925 0.61101 0.0
H20 H 0.17496 0.19281 0.43605 0.0
H21 H 0.16251 0.35357 0.39914 0.0
O22 O 0.14411 0.23927 0.37288 0.0
O23 O 0.14016 0.29404 0.35871 0.0
H24 H 0.1091 0.17955 0.62876 0.0
O25 O 0.09395 0.2896 0.49387 0.0
O26 O 0.09729 0.23453 0.50522 0.0
O27 O 0.1294 0.29849 0.6707 0.0
O28 O 0.13215 0.24331 0.68448 0.0
C29 C 0.08319 0.26012 0.49329 0.0
H30 H 0.17767 0.13145 0.41404 0.0
H31 H 0.11082 0.11742 0.61218 0.0
H32 H 0.09697 0.4112 0.60563 0.0
H33 H 0.16013 0.41548 0.38787 0.0
C34 C 0.92719 0.26773 0.5032 0.0
N35 N 0.86964 0.33998 0.54601 0.0
C36 C 0.88675 0.35901 0.60278 0.0
C37 C 0.88635 0.39437 0.59998 0.0
C38 C 0.86843 0.41032 0.53701 0.0
C39 C 0.85075 0.39008 0.48057 0.0
C40 C 0.85155 0.35486 0.48677 0.0
Zn41 Zn 0.87246 0.28805 0.5402 0.0
C42 C 0.86685 0.26339 0.33007 0.0
N43 N 0.87819 0.17992 0.51822 0.0
C44 C 0.89584 0.16443 0.57794 0.0
C45 C 0.86217 0.16159 0.45524 0.0
C46 C 0.86345 0.12634 0.45111 0.0
C47 C 0.88106 0.10972 0.51364 0.0
C48 C 0.89744 0.12924 0.57746 0.0
Zn49 Zn 0.87528 0.23173 0.52651 0.0
O50 O 0.91328 0.29347 0.51574 0.0
C51 C 0.88083 0.25646 0.73653 0.0
O52 O 0.91625 0.23834 0.5044 0.0
H53 H 0.84814 0.17426 0.40882 0.0
H54 H 0.90113 0.34679 0.64873 0.0
H55 H 0.90858 0.17936 0.62687 0.0
O56 O 0.87835 0.28525 0.69593 0.0
O57 O 0.8807 0.23006 0.68228 0.0
H58 H 0.838 0.3394 0.44253 0.0
O59 O 0.8342 0.2262 0.55208 0.0
O60 O 0.83196 0.28134 0.56766 0.0
O61 O 0.86989 0.23473 0.37052 0.0
O62 O 0.86652 0.28967 0.38454 0.0
C63 C 0.82095 0.25204 0.57218 0.0
H64 H 0.90042 0.40907 0.64432 0.0
H65 H 0.83641 0.40137 0.43205 0.0
H66 H 0.85035 0.11215 0.40142 0.0
H67 H 0.91144 0.11739 0.62618 0.0
C68 C 0.08651 0.7708 0.45 0.0
N69 N 0.1446 0.84823 0.44515 0.0
C70 C 0.1277 0.868 0.39457 0.0
C71 C 0.12795 0.90291 0.41097 0.0
C72 C 0.14549 0.91756 0.48113 0.0
C73 C 0.16296 0.89666 0.53109 0.0
C74 C 0.1623 0.86196 0.5114 0.0
Zn75 Zn 0.14177 0.79656 0.42903 0.0
C76 C 0.14575 0.76199 0.62582 0.0
N77 N 0.13541 0.6884 0.4046 0.0
C78 C 0.11723 0.67271 0.34403 0.0
C79 C 0.15196 0.6702 0.46186 0.0
C80 C 0.15024 0.63495 0.46145 0.0
C81 C 0.13155 0.61807 0.40052 0.0
C82 C 0.11509 0.63736 0.3403 0.0
Zn83 Zn 0.13816 0.74022 0.41598 0.0
O84 O 0.10091 0.79765 0.45192 0.0
C85 C 0.1342 0.77478 0.21942 0.0
O86 O 0.097 0.74248 0.43577 0.0
H87 H 0.16645 0.68305 0.5088 0.0
H88 H 0.11361 0.85661 0.34295 0.0
H89 H 0.10421 0.68762 0.2993 0.0
O90 O 0.13649 0.80111 0.27377 0.0
O91 O 0.1339 0.7457 0.26012 0.0
H92 H 0.17565 0.84588 0.55058 0.0
O93 O 0.17916 0.7391 0.39362 0.0
O94 O 0.1826 0.79454 0.4018 0.0
O95 O 0.14252 0.73581 0.57175 0.0
O96 O 0.14686 0.79094 0.58475 0.0
C97 C 0.19306 0.76628 0.38615 0.0
H98 H 0.11403 0.91814 0.37143 0.0
H99 H 0.17699 0.90705 0.58491 0.0
H100 H 0.16356 0.621 0.50787 0.0
H101 H 0.10035 0.62524 0.29255 0.0
C102 C 0.93029 0.75387 0.43676 0.0
N103 N 0.87132 0.67836 0.39449 0.0
C104 C 0.88809 0.66052 0.33676 0.0
C105 C 0.88725 0.62512 0.33937 0.0
C106 C 0.86927 0.6079 0.40314 0.0
C107 C 0.85192 0.62692 0.46051 0.0
C108 C 0.85315 0.66221 0.45446 0.0
Zn109 Zn 0.87494 0.73046 0.4009 0.0
C110 C 0.87 0.7546 0.61132 0.0
N111 N 0.88259 0.83889 0.42407 0.0
C112 C 0.90102 0.85615 0.36802 0.0
C113 C 0.86551 0.85558 0.4836 0.0
C114 C 0.86639 0.89091 0.4876 0.0
C115 C 0.88483 0.90939 0.42897 0.0
C116 C 0.9024 0.89152 0.369 0.0
Zn117 Zn 0.87923 0.78691 0.41485 0.0
O118 O 0.91574 0.72748 0.42392 0.0
C119 C 0.88415 0.76284 0.20462 0.0
O120 O 0.92007 0.78276 0.43665 0.0
H121 H 0.85086 0.84148 0.52696 0.0
H122 H 0.90255 0.67375 0.29026 0.0
H123 H 0.91447 0.84248 0.32139 0.0
O124 O 0.88079 0.73392 0.24516 0.0
O125 O 0.88486 0.78924 0.25899 0.0
H126 H 0.83988 0.67672 0.49946 0.0
O127 O 0.83835 0.78992 0.38969 0.0
O128 O 0.83446 0.73468 0.37458 0.0
O129 O 0.87366 0.78342 0.57075 0.0
O130 O 0.86907 0.72828 0.55687 0.0
C131 C 0.82431 0.76356 0.37022 0.0
H132 H 0.90107 0.61139 0.29431 0.0
H133 H 0.83755 0.61461 0.50969 0.0
H134 H 0.85229 0.90366 0.53402 0.0
H135 H 0.9171 0.90477 0.32339 0.0
C136 C 0.69133 0.75576 0.0582 0.0
N137 N 0.6349 0.67741 0.03279 0.0
C138 C 0.65203 0.66089 -0.02672 0.0
C139 C 0.65009 0.62587 0.96347 0.0
C140 C 0.6306 0.60726 0.01672 0.0
C141 C 0.61361 0.62489 0.08007 0.0
C142 C 0.61604 0.66017 0.08664 0.0
Zn143 Zn 0.63694 0.72912 0.02823 0.0
C144 C 0.63174 0.76179 0.22558 0.0
N145 N 0.6418 0.83709 0.00729 0.0
C146 C 0.66091 0.85225 0.94961 0.0
C147 C 0.62416 0.8557 0.05833 0.0
C148 C 0.62535 0.89098 0.05249 0.0
C149 C 0.64481 0.90738 -0.00688 0.0
C150 C 0.66273 0.88744 0.94122 0.0
Zn151 Zn 0.63952 0.78536 0.0164 0.0
O152 O 0.67755 0.72858 0.04965 0.0
C153 C 0.64474 0.75279 0.81881 0.0
O154 O 0.68067 0.78404 0.04517 0.0
H155 H 0.60913 0.84318 0.10387 0.0
H156 H 0.66685 0.67498 0.9308 0.0
H157 H 0.67472 0.83701 0.90954 0.0
O158 O 0.64163 0.72655 0.87257 0.0
O159 O 0.64535 0.78173 0.86007 0.0
H160 H 0.60256 0.67382 0.13327 0.0
O161 O 0.59834 0.78541 -0.00807 0.0
O162 O 0.59617 0.73019 0.00846 0.0
O163 O 0.63352 0.78816 0.17136 0.0
O164 O 0.63232 0.73274 0.18485 0.0
C165 C 0.5848 0.75779 -0.00635 0.0
H166 H 0.66334 0.61372 0.91214 0.0
H167 H 0.59852 0.61167 0.12377 0.0
H168 H 0.61134 0.90523 0.09506 0.0
H169 H 0.67783 0.89884 0.89341 0.0
C170 C 0.43094 0.78647 -0.01132 0.0
N171 N 0.37743 0.86383 0.00149 0.0
C172 C 0.39508 0.88374 0.05304 0.0
C173 C 0.39565 0.91881 0.04032 0.0
C174 C 0.37811 0.93338 -0.02701 0.0
C175 C 0.35997 0.91228 0.92156 0.0
C176 C 0.35986 0.87744 0.93745 0.0
Zn177 Zn 0.37782 0.8124 0.0148 0.0
C178 C 0.37022 0.77857 0.81838 0.0
N179 N 0.37777 0.70435 0.03518 0.0
C180 C 0.3996 0.68866 0.06774 0.0
C181 C 0.35706 0.68628 -0.00474 0.0
C182 C 0.35805 0.65126 -0.01542 0.0
C183 C 0.38079 0.63484 0.01311 0.0
C184 C 0.40165 0.65373 0.05621 0.0
Zn185 Zn 0.37731 0.75623 0.0285 0.0
O186 O 0.41879 0.81392 -0.00776 0.0
C187 C 0.38492 0.78974 0.2247 0.0
O188 O 0.41819 0.75856 -0.00028 0.0
H189 H 0.3401 0.69914 0.96788 0.0
H190 H 0.40897 0.87239 0.10314 0.0
H191 H 0.41587 0.70335 0.09937 0.0
O192 O 0.38322 0.81608 0.17077 0.0
O193 O 0.38404 0.76068 0.18366 0.0
H194 H 0.34588 0.8612 0.89772 0.0
O195 O 0.33668 0.75555 0.06068 0.0
O196 O 0.33679 0.81061 0.04076 0.0
O197 O 0.37043 0.75234 0.8731 0.0
O198 O 0.37263 0.80753 0.8589 0.0
C199 C 0.32459 0.7831 0.06352 0.0
H200 H 0.41002 0.93429 0.08091 0.0
H201 H 0.34591 0.92264 0.86999 0.0
H202 H 0.3417 0.63732 0.95041 0.0
H203 H 0.41946 0.64165 0.07911 0.0
C204 C 0.58096 0.25912 0.9507 0.0
N205 N 0.63711 0.33799 0.91045 0.0
C206 C 0.61916 0.35676 0.86189 0.0
C207 C 0.62067 0.39212 0.86788 0.0
C208 C 0.64087 0.40816 0.92421 0.0
C209 C 0.65915 0.38803 -0.02747 0.0
C210 C 0.65693 0.35301 0.96456 0.0
Zn211 Zn 0.63476 0.28625 0.91426 0.0
C212 C 0.64139 0.26231 0.12352 0.0
N213 N 0.6324 0.17824 0.9349 0.0
C214 C 0.61341 0.16044 0.88367 0.0
C215 C 0.65019 0.16226 -0.00744 0.0
C216 C 0.6492 0.12704 0.00088 0.0
C217 C 0.62978 0.10794 0.94891 0.0
C218 C 0.61179 0.12518 0.88939 0.0
Zn219 Zn 0.63408 0.22999 0.92604 0.0
O220 O 0.5939 0.28669 0.93571 0.0
C221 C 0.62746 0.25395 0.71702 0.0
O222 O 0.59293 0.23142 0.95157 0.0
H223 H 0.66512 0.17687 0.03275 0.0
H224 H 0.60348 0.34431 0.81964 0.0
H225 H 0.59947 0.17361 0.83816 0.0
O226 O 0.62968 0.283 0.75779 0.0
O227 O 0.62785 0.22756 0.77113 0.0
H228 H 0.67085 0.33775 0.00367 0.0
O229 O 0.6753 0.22968 0.89643 0.0
O230 O 0.67536 0.28509 0.89101 0.0
O231 O 0.64021 0.23336 0.08232 0.0
O232 O 0.63987 0.28858 0.06977 0.0
C233 C 0.68759 0.25784 0.8828 0.0
H234 H 0.60626 0.40671 0.8288 0.0
H235 H 0.67474 0.39916 0.01834 0.0
H236 H 0.66326 0.11499 0.04882 0.0
H237 H 0.59673 0.11159 0.84676 0.0
C238 C 0.42703 0.28802 0.9547 0.0
N239 N 0.37475 0.2045 0.94295 0.0
C240 C 0.39264 0.1868 0.89017 0.0
C241 C 0.39388 0.15181 0.90232 0.0
C242 C 0.37679 0.13507 0.97037 0.0
C243 C 0.3584 0.1539 0.02302 0.0
C244 C 0.3576 0.1887 0.00764 0.0
Zn245 Zn 0.37384 0.25596 0.93063 0.0
C246 C 0.36616 0.28854 0.1268 0.0
N247 N 0.37176 0.36421 0.91205 0.0
C248 C 0.39336 0.38411 0.88977 0.0
C249 C 0.34923 0.37813 0.94519 0.0
C250 C 0.34796 0.41292 0.95919 0.0
C251 C 0.37038 0.43398 0.94305 0.0
C252 C 0.39318 0.41909 0.90571 0.0
Zn253 Zn 0.37332 0.31215 0.91612 0.0
O254 O 0.4146 0.25969 0.95137 0.0
C255 C 0.38099 0.27991 0.72019 0.0
O256 O 0.41451 0.31507 0.94435 0.0
H257 H 0.33235 0.36224 0.96496 0.0
H258 H 0.40617 0.19989 0.8395 0.0
H259 H 0.41116 0.3728 0.8637 0.0
O260 O 0.37913 0.25343 0.77427 0.0
O261 O 0.38024 0.30895 0.76103 0.0
H262 H 0.34338 0.20316 0.04827 0.0
O263 O 0.33258 0.30709 0.88346 0.0
O264 O 0.33301 0.25229 0.9069 0.0
O265 O 0.36622 0.31472 0.07181 0.0
O266 O 0.36879 0.2598 0.08655 0.0
C267 C 0.32064 0.27837 0.88273 0.0
H268 H 0.40842 0.1381 0.86074 0.0
H269 H 0.34466 0.1418 0.07516 0.0
H270 H 0.32961 0.42296 -0.01509 0.0
H271 H 0.41112 0.43393 0.89271 0.0
H272 H 0.2147 0.23268 0.67377 0.0
H273 H 0.22202 0.33394 0.55405 0.0
H274 H 0.26248 0.34404 0.65025 0.0
H275 H 0.29534 0.32416 0.76965 0.0
H276 H 0.28729 0.22305 0.89045 0.0
H277 H 0.24697 0.21319 0.7943 0.0
C278 C 0.22534 0.25681 0.66731 0.0
C279 C 0.21556 0.28239 0.6058 0.0
C280 C 0.24806 0.26272 0.72481 0.0
C281 C 0.22931 0.31373 0.60008 0.0
C282 C 0.25229 0.3196 0.65572 0.0
C283 C 0.28454 0.30015 0.77629 0.0
C284 C 0.29422 0.27444 0.83766 0.0
C285 C 0.26166 0.2944 0.71921 0.0
C286 C 0.28018 0.24332 0.84422 0.0
C287 C 0.25725 0.23756 0.78862 0.0
H288 H 0.71243 0.20977 0.77546 0.0
H289 H 0.72271 0.31065 0.89577 0.0
H290 H 0.76404 0.31833 0.80432 0.0
H291 H 0.79626 0.29751 0.68611 0.0
H292 H 0.78722 0.1965 0.56606 0.0
H293 H 0.74599 0.18801 0.65977 0.0
C294 C 0.72403 0.23312 0.78322 0.0
C295 C 0.71463 0.25954 0.84268 0.0
C296 C 0.74757 0.23768 0.72853 0.0
C297 C 0.7296 0.28991 0.85073 0.0
C298 C 0.75311 0.29444 0.79783 0.0
C299 C 0.78512 0.27376 0.67911 0.0
C300 C 0.79456 0.24786 0.61795 0.0
C301 C 0.76199 0.26877 0.7351 0.0
C302 C 0.78018 0.21698 0.61175 0.0
C303 C 0.75675 0.21202 0.66596 0.0
H304 H 0.29938 0.73346 0.17095 0.0
H305 H 0.29117 0.83558 0.0643 0.0
H306 H 0.25088 0.84031 0.16264 0.0
H307 H 0.21844 0.81582 0.28062 0.0
H308 H 0.2261 0.71344 0.3851 0.0
H309 H 0.26668 0.70876 0.28783 0.0
C310 C 0.28857 0.75658 0.16787 0.0
C311 C 0.29819 0.78405 0.10977 0.0
C312 C 0.26573 0.75937 0.22612 0.0
C313 C 0.28411 0.81398 0.10787 0.0
C314 C 0.26121 0.81682 0.16477 0.0
C315 C 0.22926 0.7927 0.28366 0.0
C316 C 0.21952 0.76517 0.34108 0.0
C317 C 0.25205 0.78985 0.22521 0.0
C318 C 0.23339 0.73509 0.34226 0.0
C319 C 0.25643 0.73231 0.28598 0.0
H320 H 0.71826 0.80393 0.16536 0.0
H321 H 0.72368 0.70275 0.04778 0.0
H322 H 0.76441 0.69551 0.14043 0.0
H323 H 0.79759 0.71706 0.25833 0.0
H324 H 0.79289 0.81828 0.3761 0.0
H325 H 0.75231 0.82607 0.28174 0.0
C326 C 0.72867 0.78058 0.15846 0.0
C327 C 0.71812 0.75401 0.09925 0.0
C328 C 0.75176 0.77626 0.21396 0.0
C329 C 0.73152 0.72364 0.09248 0.0
C330 C 0.75467 0.71936 0.1461 0.0
C331 C 0.7875 0.74067 0.26474 0.0
C332 C 0.79803 0.76689 0.32523 0.0
C333 C 0.76468 0.74526 0.2084 0.0
C334 C 0.785 0.79757 0.33086 0.0
C335 C 0.76195 0.80215 0.27625 0.0
H336 H 0.14517 0.96955 0.34779 0.0
H337 H 0.14514 0.94786 0.66541 0.0
H338 H 0.14409 1.0083 0.70339 0.0
H339 H 0.14328 0.06763 0.64585 0.0
H340 H 0.14499 0.089 0.32801 0.0
H341 H 0.14515 0.02857 0.29047 0.0
C342 C 0.14481 0.97811 0.42525 0.0
C343 C 0.14518 0.95431 0.50363 0.0
C344 C 0.1445 1.01288 0.44647 0.0
C345 C 0.14507 0.96573 0.60375 0.0
C346 C 0.14435 1.00027 0.6255 0.0
C347 C 0.14357 0.05893 0.56852 0.0
C348 C 0.14413 0.08266 0.48982 0.0
C349 C 0.14407 0.0241 0.54747 0.0
C350 C 0.14477 0.07117 0.38985 0.0
C351 C 0.14479 0.03665 0.36833 0.0
H352 H 0.86788 0.44828 0.36643 0.0
H353 H 0.86928 0.45652 0.68964 0.0
H354 H 0.86918 0.51821 0.67694 0.0
H355 H 0.86882 0.56992 0.57373 0.0
H356 H 0.86913 0.56175 0.25048 0.0
H357 H 0.86843 0.50003 0.26319 0.0
C358 C 0.868 0.46362 0.43403 0.0
C359 C 0.86845 0.44784 0.52889 0.0
C360 C 0.86829 0.49909 0.42606 0.0
C361 C 0.86906 0.46805 0.6158 0.0
C362 C 0.86891 0.50331 0.60855 0.0
C363 C 0.86857 0.55458 0.50614 0.0
C364 C 0.86888 0.57038 0.41126 0.0
C365 C 0.86853 0.51912 0.5141 0.0
C366 C 0.86901 0.5502 0.32432 0.0
C367 C 0.86853 0.51492 0.33158 0.0
H368 H 0.88204 0.95193 0.58962 0.0
H369 H 0.88839 0.95137 0.26621 0.0
H370 H 0.88768 1.01309 0.26341 0.0
H371 H 0.8846 0.06743 0.35289 0.0
H372 H 0.87947 0.06799 0.67647 0.0
H373 H 0.88021 1.00624 0.67929 0.0
C374 C 0.88317 0.96534 0.51855 0.0
C375 C 0.8852 0.94703 0.42826 0.0
C376 C 0.88292 1.00088 0.51754 0.0
C377 C 0.88705 0.96483 0.33686 0.0
C378 C 0.8865 1.00013 0.33514 0.0
C379 C 0.88357 0.05395 0.42387 0.0
C380 C 0.88191 0.07222 0.51432 0.0
C381 C 0.88433 0.01844 0.42496 0.0
C382 C 0.88093 0.0545 0.60591 0.0
C383 C 0.88127 0.0192 0.60754 0.0
H384 H 0.12926 0.5765 0.56269 0.0
H385 H 0.12888 0.57559 0.23856 0.0
H386 H 0.1275 0.51367 0.23903 0.0
H387 H 0.12769 0.45972 0.33219 0.0
H388 H 0.12708 0.46103 0.65644 0.0
H389 H 0.12752 0.52279 0.6555 0.0
C390 C 0.12892 0.5627 0.4922 0.0
C391 C 0.12937 0.58055 0.40072 0.0
C392 C 0.12796 0.52719 0.49316 0.0
C393 C 0.12844 0.5624 0.30992 0.0
C394 C 0.12778 0.52702 0.31019 0.0
C395 C 0.12768 0.4736 0.40252 0.0
C396 C 0.12745 0.45586 0.49426 0.0
C397 C 0.12775 0.50915 0.40138 0.0
C398 C 0.12706 0.4741 0.58488 0.0
C399 C 0.12744 0.50941 0.5844 0.0
H400 H 0.66967 0.56264 -0.00915 0.0
H401 H 0.58521 0.56751 0.01245 0.0
H402 H 0.58085 0.50659 -0.01501 0.0
H403 H 0.60109 0.45184 0.95331 0.0
H404 H 0.68537 0.44855 0.92001 0.0
H405 H 0.68958 0.50912 0.95111 0.0
C406 C 0.65023 0.55061 -0.0118 0.0
C407 C 0.62784 0.56989 0.00365 0.0
C408 C 0.64779 0.51578 0.96958 0.0
C409 C 0.60288 0.5534 0.00249 0.0
C410 C 0.60032 0.51855 -0.01431 0.0
C411 C 0.62033 0.46446 0.9514 0.0
C412 C 0.64288 0.44554 0.93506 0.0
C413 C 0.62265 0.4995 0.96864 0.0
C414 C 0.66771 0.46231 0.93408 0.0
C415 C 0.67015 0.49701 0.95157 0.0
H416 H 0.37947 0.98312 0.11359 0.0
H417 H 0.37806 0.96639 0.79326 0.0
H418 H 0.37838 0.02739 0.76378 0.0
H419 H 0.37823 0.08553 0.82939 0.0
H420 H 0.3782 0.10212 0.14981 0.0
H421 H 0.37936 0.0412 0.17916 0.0
C422 C 0.37945 0.99291 0.03742 0.0
C423 C 0.37877 0.97039 0.95573 0.0
C424 C 0.37931 0.02795 0.02113 0.0
C425 C 0.37837 0.9833 0.85734 0.0
C426 C 0.37864 0.01814 0.84045 0.0
C427 C 0.3787 0.07574 0.90551 0.0
C428 C 0.37815 0.09818 -0.01269 0.0
C429 C 0.379 0.0407 0.92177 0.0
C430 C 0.3784 0.08524 0.0857 0.0
C431 C 0.37914 0.05047 0.1025 0.0
H432 H 0.39785 0.48728 0.85443 0.0
H433 H 0.34274 0.46397 0.09465 0.0
H434 H 0.34066 0.52355 0.1352 0.0
H435 H 0.35418 0.58287 0.103 0.0
H436 H 0.41243 0.60601 0.87575 0.0
H437 H 0.41419 0.54594 0.8317 0.0
C438 C 0.38566 0.49497 0.91667 0.0
C439 C 0.37008 0.47072 0.96954 0.0
C440 C 0.38524 0.52942 0.94265 0.0
C441 C 0.35428 0.48177 0.04955 0.0
C442 C 0.35328 0.51598 0.07402 0.0
C443 C 0.36736 0.57454 0.04443 0.0
C444 C 0.38313 0.59846 -0.00759 0.0
C445 C 0.36855 0.54003 0.02086 0.0
C446 C 0.40023 0.58775 0.91683 0.0
C447 C 0.40114 0.55351 0.8915 0.0
H448 H 0.67032 0.06453 0.95651 0.0
H449 H 0.58556 0.06663 0.96028 0.0
H450 H 0.58277 1.00513 -0.02776 0.0
H451 H 0.60429 0.95069 -0.01835 0.0
H452 H 0.68905 0.9488 -0.01305 0.0
H453 H 0.69184 1.01022 0.97159 0.0
C454 C 0.65121 0.05163 0.96113 0.0
C455 C 0.6282 0.07036 0.95718 0.0
C456 C 0.64971 1.01621 0.96937 0.0
C457 C 0.60363 0.05298 0.96145 0.0
C458 C 0.60199 0.01776 0.96903 0.0
C459 C 0.6234 0.96368 -0.0193 0.0
C460 C 0.64641 0.94496 -0.01475 0.0
C461 C 0.6249 0.99911 -0.02691 0.0
C462 C 0.67098 0.96237 -0.018 0.0
C463 C 0.67262 0.99758 -0.02612 0.0
H464 H 0.13057 0.31252 0.18143 0.0
H465 H 0.15678 0.21031 0.20911 0.0
H466 H 0.15341 0.2028 0.02742 0.0
H467 H 0.14253 0.22504 0.8617 0.0
H468 H 0.11626 0.32722 0.83421 0.0
H469 H 0.11973 0.33475 0.01583 0.0
C470 C 0.13581 0.28872 0.14762 0.0
C471 C 0.14398 0.26207 0.20829 0.0
C472 C 0.13343 0.28439 0.04367 0.0
C473 C 0.15047 0.23125 0.16371 0.0
C474 C 0.14843 0.22686 0.06003 0.0
C475 C 0.13728 0.24882 0.89557 0.0
C476 C 0.12904 0.27546 0.83498 0.0
C477 C 0.13969 0.25316 -0.00047 0.0
C478 C 0.12261 0.3063 0.87957 0.0
C479 C 0.1247 0.31069 -0.0168 0.0
H480 H 0.87936 0.2161 0.19298 0.0
H481 H 0.85399 0.3187 0.22112 0.0
H482 H 0.85741 0.32614 0.03936 0.0
H483 H 0.86813 0.30373 0.87343 0.0
H484 H 0.89355 0.20116 0.84549 0.0
H485 H 0.89 0.19369 0.02717 0.0
C486 C 0.87431 0.23997 0.15926 0.0
C487 C 0.86636 0.26675 0.22009 0.0
C488 C 0.87672 0.24426 0.05526 0.0
C489 C 0.86013 0.29766 0.1756 0.0
C490 C 0.8622 0.30201 0.07189 0.0
C491 C 0.87318 0.27988 0.90722 0.0
C492 C 0.8812 0.25311 0.84648 0.0
C493 C 0.87072 0.27558 0.01122 0.0
C494 C 0.88737 0.22219 0.89097 0.0
C495 C 0.88524 0.21783 -0.00536 0.0
H496 H 0.13922 0.72447 0.08399 0.0
H497 H 0.13036 0.83232 0.10832 0.0
H498 H 0.13455 0.83799 0.92621 0.0
H499 H 0.14102 0.81239 0.76113 0.0
H500 H 0.14973 0.70452 0.73687 0.0
H501 H 0.14572 0.69889 0.91906 0.0
C502 C 0.13796 0.74919 0.04945 0.0
C503 C 0.1344 0.7779 0.10931 0.0
C504 C 0.14071 0.75232 0.94524 0.0
C505 C 0.13304 0.8098 0.06364 0.0
C506 C 0.13555 0.8131 0.9597 0.0
C507 C 0.14229 0.78768 0.79575 0.0
C508 C 0.14573 0.75894 0.73591 0.0
C509 C 0.13958 0.78456 0.9 0.0
C510 C 0.14711 0.72705 0.78159 0.0
C511 C 0.14472 0.72378 0.88555 0.0
H512 H 0.88349 0.80273 0.74777 0.0
H513 H 0.85608 0.69863 0.72103 0.0
H514 H 0.85934 0.69159 0.90281 0.0
H515 H 0.87048 0.71477 0.06827 0.0
H516 H 0.89795 0.81884 0.09492 0.0
H517 H 0.89457 0.82593 0.91321 0.0
C518 C 0.87796 0.7786 0.78179 0.0
C519 C 0.86949 0.75129 0.72135 0.0
C520 C 0.88028 0.77456 0.8858 0.0
C521 C 0.86264 0.72007 0.76624 0.0
C522 C 0.86461 0.71596 0.86996 0.0
C523 C 0.876 0.73889 0.03422 0.0
C524 C 0.88456 0.76618 0.09461 0.0
C525 C 0.87365 0.74294 0.93023 0.0
C526 C 0.89136 0.79742 0.04974 0.0
C527 C 0.88932 0.80155 0.94605 0.0
H528 H 0.6402 0.71284 0.36237 0.0
H529 H 0.62392 0.81881 0.33479 0.0
H530 H 0.62808 0.82579 0.51635 0.0
H531 H 0.63664 0.8019 0.6822 0.0
H532 H 0.6527 0.69588 0.70972 0.0
H533 H 0.64877 0.68897 0.52803 0.0
C534 C 0.63728 0.73737 0.39619 0.0
C535 C 0.63167 0.7652 0.33556 0.0
C536 C 0.64005 0.74133 0.50013 0.0
C537 C 0.62821 0.79695 0.38015 0.0
C538 C 0.63071 0.80102 0.48377 0.0
C539 C 0.63957 0.77738 0.64827 0.0
C540 C 0.64503 0.74949 0.70887 0.0
C541 C 0.63684 0.77345 0.54428 0.0
C542 C 0.64849 0.71776 0.66429 0.0
C543 C 0.64614 0.71373 0.56063 0.0
H544 H 0.38019 0.8282 0.68243 0.0
H545 H 0.36088 0.72142 0.70739 0.0
H546 H 0.36515 0.71519 0.52548 0.0
H547 H 0.37487 0.73996 0.36033 0.0
H548 H 0.39418 0.84675 0.33577 0.0
H549 H 0.38986 0.85294 0.5176 0.0
C550 C 0.37665 0.80361 0.64806 0.0
C551 C 0.37014 0.77535 0.70813 0.0
C552 C 0.37955 0.80011 0.54399 0.0
C553 C 0.36585 0.7436 0.66261 0.0
C554 C 0.36842 0.73997 0.55877 0.0
C555 C 0.37845 0.76452 0.39486 0.0
C556 C 0.38498 0.79281 0.33493 0.0
C557 C 0.37551 0.768 0.49897 0.0
C558 C 0.38921 0.82456 0.3805 0.0
C559 C 0.38661 0.82816 0.48427 0.0
H560 H 0.62995 0.2135 0.26054 0.0
H561 H 0.65313 0.31905 0.23223 0.0
H562 H 0.6495 0.32619 0.4139 0.0
H563 H 0.63919 0.30265 0.57986 0.0
H564 H 0.61582 0.19714 0.60817 0.0
H565 H 0.61964 0.18995 0.42662 0.0
C566 C 0.63451 0.23796 0.2943 0.0
C567 C 0.64188 0.26565 0.23347 0.0
C568 C 0.63193 0.24203 0.3983 0.0
C569 C 0.64743 0.29732 0.27784 0.0
C570 C 0.64524 0.30148 0.38149 0.0
C571 C 0.63465 0.27818 0.54619 0.0
C572 C 0.62714 0.25053 0.60703 0.0
C573 C 0.63725 0.27409 0.44222 0.0
C574 C 0.6216 0.21886 0.56264 0.0
C575 C 0.6239 0.21466 0.45902 0.0
H576 H 0.37667 0.24021 0.2632 0.0
H577 H 0.35611 0.34481 0.23714 0.0
H578 H 0.36032 0.35179 0.41886 0.0
H579 H 0.37037 0.32837 0.58416 0.0
H580 H 0.3909 0.22376 0.6098 0.0
H581 H 0.38662 0.2168 0.42818 0.0
C582 C 0.37284 0.26446 0.2973 0.0
C583 C 0.36601 0.29191 0.23699 0.0
C584 C 0.3757 0.26844 0.40125 0.0
C585 C 0.36134 0.32325 0.28214 0.0
C586 C 0.36388 0.32732 0.38585 0.0
C587 C 0.37423 0.30416 0.54988 0.0
C588 C 0.38109 0.27669 0.61003 0.0
C589 C 0.37131 0.30018 0.44589 0.0
C590 C 0.38566 0.24533 0.56485 0.0
C591 C 0.38309 0.24127 0.4612 0.0
H592 H 0.04755 0.30942 0.48249 0.0
H593 H 0.05407 0.20091 0.48456 0.0
H594 H 1.00625 0.19374 0.48234 0.0
H595 H 0.96271 0.21824 0.48901 0.0
H596 H 0.95632 0.32678 0.49103 0.0
H597 H 1.00405 0.33389 0.482 0.0
C598 C 0.03855 0.28418 0.48163 0.0
C599 C 0.05436 0.25576 0.48419 0.0
C600 C 0.01108 0.28022 0.48156 0.0
C601 C 0.04235 0.22324 0.48299 0.0
C602 C 0.01501 0.21909 0.48185 0.0
C603 C 0.97173 0.24347 0.48676 0.0
C604 C 0.95597 0.27192 0.49125 0.0
C605 C 0.99919 0.24741 0.48259 0.0
C606 C 0.96799 0.30442 0.48813 0.0
C607 C 0.99529 0.30854 0.48301 0.0
H608 H 0.96664 0.80475 0.46569 0.0
H609 H 0.95843 0.69639 0.43153 0.0
H610 H 1.00607 0.6919 0.43791 0.0
H611 H 0.05008 0.71897 0.44438 0.0
H612 H 0.05821 0.82742 0.47661 0.0
H613 H 0.01054 0.83151 0.48035 0.0
C614 C 0.97524 0.78011 0.46025 0.0
C615 C 0.959 0.751 0.44749 0.0
C616 C 1.00264 0.7777 0.46331 0.0
C617 C 0.97047 0.71925 0.44105 0.0
C618 C 0.99773 0.71664 0.44455 0.0
C619 C 0.04144 0.74349 0.45293 0.0
C620 C 0.05769 0.77283 0.45955 0.0
C621 C 0.014 0.74573 0.45431 0.0
C622 C 0.04616 0.8044 0.47096 0.0
C623 C 0.01889 0.80681 0.47298 0.0
H624 H 0.55375 0.81206 -0.02519 0.0
H625 H 0.55103 0.70294 -0.01212 0.0
H626 H 0.50321 0.70228 -0.01875 0.0
H627 H 0.46222 0.73252 -0.01874 0.0
H628 H 0.4645 0.84164 0.97135 0.0
H629 H 0.51249 0.84236 0.9664 0.0
C630 C 0.5427 0.78814 -0.02455 0.0
C631 C 0.55595 0.75764 -0.01747 0.0
C632 C 0.51515 0.78789 -0.02752 0.0
C633 C 0.54134 0.72682 -0.01698 0.0
C634 C 0.51397 0.72638 -0.02073 0.0
C635 C 0.47317 0.75649 -0.02274 0.0
C636 C 0.45981 0.78696 -0.02265 0.0
C637 C 0.50069 0.75676 -0.02452 0.0
C638 C 0.47432 0.81779 0.97172 0.0
C639 C 0.50176 0.81824 0.96908 0.0
H640 H 0.45838 0.23476 -0.02036 0.0
H641 H 0.46068 0.34351 0.95093 0.0
H642 H 0.50872 0.34421 0.95239 0.0
H643 H 0.54987 0.31362 0.95189 0.0
H644 H 0.54722 0.20475 -0.02244 0.0
H645 H 0.49935 0.20453 -0.0125 0.0
C646 C 0.46934 0.25869 -0.02557 0.0
C647 C 0.45595 0.28902 0.96452 0.0
C648 C 0.49686 0.25888 -0.02578 0.0
C649 C 0.47049 0.31978 0.95839 0.0
C650 C 0.49796 0.3202 0.95894 0.0
C651 C 0.53885 0.28984 0.96027 0.0
C652 C 0.55211 0.25923 0.96326 0.0
C653 C 0.51132 0.28985 0.96523 0.0
C654 C 0.53752 0.22867 -0.02535 0.0
C655 C 0.51014 0.2285 -0.01974 0.0
loop_
_geom_bond_atom_site_label_1
_geom_bond_atom_site_label_2
_geom_bond_distance
_geom_bond_site_symmetry_2
_ccdc_geom_bond_type
C0 O16 1.251 . S
C0 O18 1.254 . S
N1 C2 1.333 . S
N1 C6 1.307 . S
N1 Zn7 2.020 . S
C2 N1 1.333 . S
C2 C3 1.379 . S
C2 H20 0.952 . S
C3 C2 1.379 . S
C3 C4 1.390 . S
C3 H30 0.949 . S
C4 C3 1.390 . S
C4 C5 1.357 . S
C5 C4 1.357 . S
C5 C6 1.370 . S
C5 H31 0.950 . S
C6 N1 1.307 . S
C6 C5 1.370 . S
C6 H24 0.948 . S
Zn7 N1 2.020 . S
Zn7 O16 2.039 . S
Zn7 O22 2.034 . S
Zn7 O26 2.025 . S
Zn7 O28 2.024 . S
C8 O27 1.246 . S
C8 O28 1.249 . S
N9 C10 1.307 . S
N9 C11 1.333 . S
N9 Zn15 2.020 . S
C10 N9 1.307 . S
C10 C14 1.370 . S
C10 H21 0.948 . S
C11 N9 1.333 . S
C11 C12 1.379 . S
C11 H19 0.952 . S
C12 C11 1.379 . S
C12 C13 1.390 . S
C12 H32 0.949 . S
C13 C12 1.390 . S
C13 C14 1.357 . S
C14 C10 1.370 . S
C14 C13 1.357 . S
C14 H33 0.950 . S
Zn15 N9 2.020 . S
Zn15 O18 2.025 . S
Zn15 O23 2.024 . S
Zn15 O25 2.039 . S
Zn15 O27 2.034 . S
O16 C0 1.251 . S
O16 Zn7 2.039 . S
C17 O22 1.246 . S
C17 O23 1.249 . S
O18 C0 1.254 . S
O18 Zn15 2.025 . S
H19 C11 0.952 . S
H20 C2 0.952 . S
H21 C10 0.948 . S
O22 Zn7 2.034 . S
O22 C17 1.246 . S
O23 Zn15 2.024 . S
O23 C17 1.249 . S
H24 C6 0.948 . S
O25 Zn15 2.039 . S
O25 C29 1.251 . S
O26 Zn7 2.025 . S
O26 C29 1.254 . S
O27 C8 1.246 . S
O27 Zn15 2.034 . S
O28 Zn7 2.024 . S
O28 C8 1.249 . S
C29 O25 1.251 . S
C29 O26 1.254 . S
H30 C3 0.949 . S
H31 C5 0.950 . S
H32 C12 0.949 . S
H33 C14 0.950 . S
C34 O50 1.251 . S
C34 O52 1.254 . S
N35 C36 1.333 . S
N35 C40 1.307 . S
N35 Zn41 2.020 . S
C36 N35 1.333 . S
C36 C37 1.379 . S
C36 H54 0.952 . S
C37 C36 1.379 . S
C37 C38 1.390 . S
C37 H64 0.949 . S
C38 C37 1.390 . S
C38 C39 1.357 . S
C39 C38 1.357 . S
C39 C40 1.370 . S
C39 H65 0.950 . S
C40 N35 1.307 . S
C40 C39 1.370 . S
C40 H58 0.948 . S
Zn41 N35 2.020 . S
Zn41 O50 2.039 . S
Zn41 O56 2.034 . S
Zn41 O60 2.025 . S
Zn41 O62 2.024 . S
C42 O61 1.246 . S
C42 O62 1.249 . S
N43 C44 1.307 . S
N43 C45 1.333 . S
N43 Zn49 2.020 . S
C44 N43 1.307 . S
C44 C48 1.370 . S
C44 H55 0.948 . S
C45 N43 1.333 . S
C45 C46 1.379 . S
C45 H53 0.952 . S
C46 C45 1.379 . S
C46 C47 1.390 . S
C46 H66 0.949 . S
C47 C46 1.390 . S
C47 C48 1.357 . S
C48 C44 1.370 . S
C48 C47 1.357 . S
C48 H67 0.950 . S
Zn49 N43 2.020 . S
Zn49 O52 2.025 . S
Zn49 O57 2.024 . S
Zn49 O59 2.039 . S
Zn49 O61 2.034 . S
O50 C34 1.251 . S
O50 Zn41 2.039 . S
C51 O56 1.246 . S
C51 O57 1.249 . S
O52 C34 1.254 . S
O52 Zn49 2.025 . S
H53 C45 0.952 . S
H54 C36 0.952 . S
H55 C44 0.948 . S
O56 Zn41 2.034 . S
O56 C51 1.246 . S
O57 Zn49 2.024 . S
O57 C51 1.249 . S
H58 C40 0.948 . S
O59 Zn49 2.039 . S
O59 C63 1.251 . S
O60 Zn41 2.025 . S
O60 C63 1.254 . S
O61 C42 1.246 . S
O61 Zn49 2.034 . S
O62 Zn41 2.024 . S
O62 C42 1.249 . S
C63 O59 1.251 . S
C63 O60 1.254 . S
H64 C37 0.949 . S
H65 C39 0.950 . S
H66 C46 0.949 . S
H67 C48 0.950 . S
C68 O84 1.251 . S
C68 O86 1.254 . S
N69 C70 1.333 . S
N69 C74 1.307 . S
N69 Zn75 2.020 . S
C70 N69 1.333 . S
C70 C71 1.379 . S
C70 H88 0.952 . S
C71 C70 1.379 . S
C71 C72 1.390 . S
C71 H98 0.949 . S
C72 C71 1.390 . S
C72 C73 1.357 . S
C73 C72 1.357 . S
C73 C74 1.370 . S
C73 H99 0.950 . S
C74 N69 1.307 . S
C74 C73 1.370 . S
C74 H92 0.948 . S
Zn75 N69 2.020 . S
Zn75 O84 2.039 . S
Zn75 O90 2.034 . S
Zn75 O94 2.025 . S
Zn75 O96 2.024 . S
C76 O95 1.246 . S
C76 O96 1.249 . S
N77 C78 1.307 . S
N77 C79 1.333 . S
N77 Zn83 2.020 . S
C78 N77 1.307 . S
C78 C82 1.370 . S
C78 H89 0.948 . S
C79 N77 1.333 . S
C79 C80 1.379 . S
C79 H87 0.952 . S
C80 C79 1.379 . S
C80 C81 1.390 . S
C80 H100 0.949 . S
C81 C80 1.390 . S
C81 C82 1.357 . S
C82 C78 1.370 . S
C82 C81 1.357 . S
C82 H101 0.950 . S
Zn83 N77 2.020 . S
Zn83 O86 2.025 . S
Zn83 O91 2.024 . S
Zn83 O93 2.039 . S
Zn83 O95 2.034 . S
O84 C68 1.251 . S
O84 Zn75 2.039 . S
C85 O90 1.246 . S
C85 O91 1.249 . S
O86 C68 1.254 . S
O86 Zn83 2.025 . S
H87 C79 0.952 . S
H88 C70 0.952 . S
H89 C78 0.948 . S
O90 Zn75 2.034 . S
O90 C85 1.246 . S
O91 Zn83 2.024 . S
O91 C85 1.249 . S
H92 C74 0.948 . S
O93 Zn83 2.039 . S
O93 C97 1.251 . S
O94 Zn75 2.025 . S
O94 C97 1.254 . S
O95 C76 1.246 . S
O95 Zn83 2.034 . S
O96 Zn75 2.024 . S
O96 C76 1.249 . S
C97 O93 1.251 . S
C97 O94 1.254 . S
H98 C71 0.949 . S
H99 C73 0.950 . S
H100 C80 0.949 . S
H101 C82 0.950 . S
C102 O118 1.251 . S
C102 O120 1.254 . S
N103 C104 1.333 . S
N103 C108 1.307 . S
N103 Zn109 2.020 . S
C104 N103 1.333 . S
C104 C105 1.379 . S
C104 H122 0.952 . S
C105 C104 1.379 . S
C105 C106 1.390 . S
C105 H132 0.949 . S
C106 C105 1.390 . S
C106 C107 1.357 . S
C107 C106 1.357 . S
C107 C108 1.370 . S
C107 H133 0.950 . S
C108 N103 1.307 . S
C108 C107 1.370 . S
C108 H126 0.948 . S
Zn109 N103 2.020 . S
Zn109 O118 2.039 . S
Zn109 O124 2.034 . S
Zn109 O128 2.025 . S
Zn109 O130 2.024 . S
C110 O129 1.246 . S
C110 O130 1.249 . S
N111 C112 1.307 . S
N111 C113 1.333 . S
N111 Zn117 2.020 . S
C112 N111 1.307 . S
C112 C116 1.370 . S
C112 H123 0.948 . S
C113 N111 1.333 . S
C113 C114 1.379 . S
C113 H121 0.952 . S
C114 C113 1.379 . S
C114 C115 1.390 . S
C114 H134 0.949 . S
C115 C114 1.390 . S
C115 C116 1.357 . S
C116 C112 1.370 . S
C116 C115 1.357 . S
C116 H135 0.950 . S
Zn117 N111 2.020 . S
Zn117 O120 2.025 . S
Zn117 O125 2.024 . S
Zn117 O127 2.039 . S
Zn117 O129 2.034 . S
O118 C102 1.251 . S
O118 Zn109 2.039 . S
C119 O124 1.246 . S
C119 O125 1.249 . S
O120 C102 1.254 . S
O120 Zn117 2.025 . S
H121 C113 0.952 . S
H122 C104 0.952 . S
H123 C112 0.948 . S
O124 Zn109 2.034 . S
O124 C119 1.246 . S
O125 Zn117 2.024 . S
O125 C119 1.249 . S
H126 C108 0.948 . S
O127 Zn117 2.039 . S
O127 C131 1.251 . S
O128 Zn109 2.025 . S
O128 C131 1.254 . S
O129 C110 1.246 . S
O129 Zn117 2.034 . S
O130 Zn109 2.024 . S
O130 C110 1.249 . S
C131 O127 1.251 . S
C131 O128 1.254 . S
H132 C105 0.949 . S
H133 C107 0.950 . S
H134 C114 0.949 . S
H135 C116 0.950 . S
C136 O152 1.251 . S
C136 O154 1.254 . S
N137 C138 1.333 . S
N137 C142 1.307 . S
N137 Zn143 2.020 . S
C138 N137 1.333 . S
C138 C139 1.379 . S
C138 H156 0.952 . S
C139 C138 1.379 . S
C139 C140 1.390 . S
C139 H166 0.949 . S
C140 C139 1.390 . S
C140 C141 1.357 . S
C141 C140 1.357 . S
C141 C142 1.370 . S
C141 H167 0.950 . S
C142 N137 1.307 . S
C142 C141 1.370 . S
C142 H160 0.948 . S
Zn143 N137 2.020 . S
Zn143 O152 2.039 . S
Zn143 O158 2.034 1_554 S
Zn143 O162 2.025 . S
Zn143 O164 2.024 . S
C144 O163 1.246 . S
C144 O164 1.249 . S
N145 C146 1.307 . S
N145 C147 1.333 . S
N145 Zn151 2.020 . S
C146 N145 1.307 . S
C146 C150 1.370 . S
C146 H157 0.951 . S
C147 N145 1.333 . S
C147 C148 1.379 . S
C147 H155 0.952 . S
C148 C147 1.379 . S
C148 C149 1.390 . S
C148 H168 0.949 . S
C149 C148 1.390 . S
C149 C150 1.357 . S
C150 C146 1.370 . S
C150 C149 1.357 . S
C150 H169 0.950 . S
Zn151 N145 2.020 . S
Zn151 O154 2.025 . S
Zn151 O159 2.024 1_554 S
Zn151 O161 2.039 . S
Zn151 O163 2.034 . S
O152 C136 1.251 . S
O152 Zn143 2.039 . S
C153 O158 1.246 . S
C153 O159 1.249 . S
O154 C136 1.254 . S
O154 Zn151 2.025 . S
H155 C147 0.952 . S
H156 C138 0.952 . S
H157 C146 0.951 . S
O158 Zn143 2.034 1_556 S
O158 C153 1.246 . S
O159 Zn151 2.024 1_556 S
O159 C153 1.249 . S
H160 C142 0.948 . S
O161 Zn151 2.039 . S
O161 C165 1.251 . S
O162 Zn143 2.025 . S
O162 C165 1.254 . S
O163 C144 1.246 . S
O163 Zn151 2.034 . S
O164 Zn143 2.024 . S
O164 C144 1.249 . S
C165 O161 1.251 . S
C165 O162 1.254 . S
H166 C139 0.949 . S
H167 C141 0.950 . S
H168 C148 0.949 . S
H169 C150 0.950 . S
C170 O186 1.251 . S
C170 O188 1.254 . S
N171 C172 1.333 . S
N171 C176 1.307 . S
N171 Zn177 2.020 . S
C172 N171 1.333 . S
C172 C173 1.379 . S
C172 H190 0.952 . S
C173 C172 1.379 . S
C173 C174 1.390 . S
C173 H200 0.949 . S
C174 C173 1.390 . S
C174 C175 1.357 . S
C175 C174 1.357 . S
C175 C176 1.370 . S
C175 H201 0.950 . S
C176 N171 1.307 . S
C176 C175 1.370 . S
C176 H194 0.949 . S
Zn177 N171 2.020 . S
Zn177 O186 2.039 . S
Zn177 O192 2.034 . S
Zn177 O196 2.025 . S
Zn177 O198 2.024 1_554 S
C178 O197 1.246 . S
C178 O198 1.249 . S
N179 C180 1.307 . S
N179 C181 1.333 . S
N179 Zn185 2.020 . S
C180 N179 1.307 . S
C180 C184 1.370 . S
C180 H191 0.948 . S
C181 N179 1.333 . S
C181 C182 1.379 . S
C181 H189 0.952 . S
C182 C181 1.379 . S
C182 C183 1.390 . S
C182 H202 0.949 . S
C183 C182 1.390 . S
C183 C184 1.357 . S
C184 C180 1.370 . S
C184 C183 1.357 . S
C184 H203 0.950 . S
Zn185 N179 2.020 . S
Zn185 O188 2.025 . S
Zn185 O193 2.024 . S
Zn185 O195 2.039 . S
Zn185 O197 2.034 1_554 S
O186 C170 1.251 . S
O186 Zn177 2.039 . S
C187 O192 1.246 . S
C187 O193 1.249 . S
O188 C170 1.254 . S
O188 Zn185 2.025 . S
H189 C181 0.952 . S
H190 C172 0.952 . S
H191 C180 0.948 . S
O192 Zn177 2.034 . S
O192 C187 1.246 . S
O193 Zn185 2.024 . S
O193 C187 1.249 . S
H194 C176 0.949 . S
O195 Zn185 2.039 . S
O195 C199 1.251 . S
O196 Zn177 2.025 . S
O196 C199 1.254 . S
O197 C178 1.246 . S
O197 Zn185 2.034 1_556 S
O198 Zn177 2.024 1_556 S
O198 C178 1.249 . S
C199 O195 1.251 . S
C199 O196 1.254 . S
H200 C173 0.949 . S
H201 C175 0.950 . S
H202 C182 0.949 . S
H203 C184 0.950 . S
C204 O220 1.251 . S
C204 O222 1.254 . S
N205 C206 1.333 . S
N205 C210 1.307 . S
N205 Zn211 2.020 . S
C206 N205 1.333 . S
C206 C207 1.379 . S
C206 H224 0.952 . S
C207 C206 1.379 . S
C207 C208 1.390 . S
C207 H234 0.949 . S
C208 C207 1.390 . S
C208 C209 1.357 . S
C209 C208 1.357 . S
C209 C210 1.370 . S
C209 H235 0.950 . S
C210 N205 1.307 . S
C210 C209 1.370 . S
C210 H228 0.948 . S
Zn211 N205 2.020 . S
Zn211 O220 2.039 . S
Zn211 O226 2.034 . S
Zn211 O230 2.025 . S
Zn211 O232 2.024 1_556 S
C212 O231 1.246 . S
C212 O232 1.249 . S
N213 C214 1.307 . S
N213 C215 1.333 . S
N213 Zn219 2.020 . S
C214 N213 1.307 . S
C214 C218 1.370 . S
C214 H225 0.948 . S
C215 N213 1.333 . S
C215 C216 1.379 . S
C215 H223 0.952 . S
C216 C215 1.379 . S
C216 C217 1.390 . S
C216 H236 0.949 . S
C217 C216 1.390 . S
C217 C218 1.357 . S
C218 C214 1.370 . S
C218 C217 1.357 . S
C218 H237 0.950 . S
Zn219 N213 2.020 . S
Zn219 O222 2.025 . S
Zn219 O227 2.024 . S
Zn219 O229 2.039 . S
Zn219 O231 2.034 1_556 S
O220 C204 1.251 . S
O220 Zn211 2.039 . S
C221 O226 1.246 . S
C221 O227 1.249 . S
O222 C204 1.254 . S
O222 Zn219 2.025 . S
H223 C215 0.952 . S
H224 C206 0.952 . S
H225 C214 0.948 . S
O226 Zn211 2.034 . S
O226 C221 1.246 . S
O227 Zn219 2.024 . S
O227 C221 1.249 . S
H228 C210 0.948 . S
O229 Zn219 2.039 . S
O229 C233 1.251 . S
O230 Zn211 2.025 . S
O230 C233 1.254 . S
O231 C212 1.246 . S
O231 Zn219 2.034 1_554 S
O232 Zn211 2.024 1_554 S
O232 C212 1.249 . S
C233 O229 1.251 . S
C233 O230 1.254 . S
H234 C207 0.949 . S
H235 C209 0.950 . S
H236 C216 0.949 . S
H237 C218 0.950 . S
C238 O254 1.251 . S
C238 O256 1.254 . S
N239 C240 1.333 . S
N239 C244 1.307 . S
N239 Zn245 2.020 . S
C240 N239 1.333 . S
C240 C241 1.379 . S
C240 H258 0.952 . S
C241 C240 1.379 . S
C241 C242 1.390 . S
C241 H268 0.949 . S
C242 C241 1.390 . S
C242 C243 1.357 . S
C243 C242 1.357 . S
C243 C244 1.370 . S
C243 H269 0.950 . S
C244 N239 1.307 . S
C244 C243 1.370 . S
C244 H262 0.952 . S
Zn245 N239 2.020 . S
Zn245 O254 2.039 . S
Zn245 O260 2.034 . S
Zn245 O264 2.025 . S
Zn245 O266 2.024 1_556 S
C246 O265 1.246 . S
C246 O266 1.249 . S
N247 C248 1.307 . S
N247 C249 1.333 . S
N247 Zn253 2.020 . S
C248 N247 1.307 . S
C248 C252 1.370 . S
C248 H259 0.948 . S
C249 N247 1.333 . S
C249 C250 1.379 . S
C249 H257 0.952 . S
C250 C249 1.379 . S
C250 C251 1.390 . S
C250 H270 0.949 . S
C251 C250 1.390 . S
C251 C252 1.357 . S
C252 C248 1.370 . S
C252 C251 1.357 . S
C252 H271 0.950 . S
Zn253 N247 2.020 . S
Zn253 O256 2.025 . S
Zn253 O261 2.024 . S
Zn253 O263 2.039 . S
Zn253 O265 2.034 1_556 S
O254 C238 1.251 . S
O254 Zn245 2.039 . S
C255 O260 1.246 . S
C255 O261 1.249 . S
O256 C238 1.254 . S
O256 Zn253 2.025 . S
H257 C249 0.952 . S
H258 C240 0.952 . S
H259 C248 0.948 . S
O260 Zn245 2.034 . S
O260 C255 1.246 . S
O261 Zn253 2.024 . S
O261 C255 1.249 . S
H262 C244 0.952 . S
O263 Zn253 2.039 . S
O263 C267 1.251 . S
O264 Zn245 2.025 . S
O264 C267 1.254 . S
O265 C246 1.246 . S
O265 Zn253 2.034 1_554 S
O266 Zn245 2.024 1_554 S
O266 C246 1.249 . S
C267 O263 1.251 . S
C267 O264 1.254 . S
H268 C241 0.949 . S
H269 C243 0.950 . S
H270 C250 0.949 . S
H271 C252 0.950 . S
H272 C278 0.930 . S
H273 C281 0.930 . S
H274 C282 0.930 . S
H275 C283 0.930 . S
H276 C286 0.930 . S
H277 C287 0.930 . S
C278 H272 0.930 . S
C278 C279 1.355 . S
C278 C280 1.415 . S
C279 C278 1.355 . S
C279 C281 1.419 . S
C280 C278 1.415 . S
C280 C285 1.425 . S
C280 C287 1.409 . S
C281 H273 0.930 . S
C281 C279 1.419 . S
C281 C282 1.362 . S
C282 H274 0.930 . S
C282 C281 1.362 . S
C282 C285 1.409 . S
C283 H275 0.930 . S
C283 C284 1.355 . S
C283 C285 1.415 . S
C284 C283 1.355 . S
C284 C286 1.419 . S
C285 C280 1.425 . S
C285 C282 1.409 . S
C285 C283 1.415 . S
C286 H276 0.930 . S
C286 C284 1.419 . S
C286 C287 1.362 . S
C287 H277 0.930 . S
C287 C280 1.409 . S
C287 C286 1.362 . S
H288 C294 0.930 . S
H289 C297 0.930 . S
H290 C298 0.930 . S
H291 C299 0.930 . S
H292 C302 0.930 . S
H293 C303 0.930 . S
C294 H288 0.930 . S
C294 C295 1.355 . S
C294 C296 1.415 . S
C295 C294 1.355 . S
C295 C297 1.419 . S
C296 C294 1.415 . S
C296 C301 1.425 . S
C296 C303 1.409 . S
C297 H289 0.930 . S
C297 C295 1.419 . S
C297 C298 1.362 . S
C298 H290 0.930 . S
C298 C297 1.362 . S
C298 C301 1.409 . S
C299 H291 0.930 . S
C299 C300 1.355 . S
C299 C301 1.415 . S
C300 C299 1.355 . S
C300 C302 1.419 . S
C301 C296 1.425 . S
C301 C298 1.409 . S
C301 C299 1.415 . S
C302 H292 0.930 . S
C302 C300 1.419 . S
C302 C303 1.362 . S
C303 H293 0.930 . S
C303 C296 1.409 . S
C303 C302 1.362 . S
H304 C310 0.930 . S
H305 C313 0.930 1_556 S
H306 C314 0.930 . S
H307 C315 0.930 . S
H308 C318 0.930 . S
H309 C319 0.930 . S
C310 H304 0.930 . S
C310 C311 1.355 . S
C310 C312 1.415 . S
C311 C310 1.355 . S
C311 C313 1.419 . S
C312 C310 1.415 . S
C312 C317 1.425 . S
C312 C319 1.409 . S
C313 H305 0.930 1_554 S
C313 C311 1.419 . S
C313 C314 1.362 . S
C314 H306 0.930 . S
C314 C313 1.362 . S
C314 C317 1.409 . S
C315 H307 0.930 . S
C315 C316 1.355 . S
C315 C317 1.415 . S
C316 C315 1.355 . S
C316 C318 1.419 . S
C317 C312 1.425 . S
C317 C314 1.409 . S
C317 C315 1.415 . S
C318 H308 0.930 . S
C318 C316 1.419 . S
C318 C319 1.362 . S
C319 H309 0.930 . S
C319 C312 1.409 . S
C319 C318 1.362 . S
H320 C326 0.930 . S
H321 C329 0.930 1_556 S
H322 C330 0.930 . S
H323 C331 0.930 . S
H324 C334 0.930 . S
H325 C335 0.930 . S
C326 H320 0.930 . S
C326 C327 1.355 . S
C326 C328 1.415 . S
C327 C326 1.355 . S
C327 C329 1.419 . S
C328 C326 1.415 . S
C328 C333 1.425 . S
C328 C335 1.409 . S
C329 H321 0.930 1_554 S
C329 C327 1.419 . S
C329 C330 1.362 . S
C330 H322 0.930 . S
C330 C329 1.362 . S
C330 C333 1.409 . S
C331 H323 0.930 . S
C331 C332 1.355 . S
C331 C333 1.415 . S
C332 C331 1.355 . S
C332 C334 1.419 . S
C333 C328 1.425 . S
C333 C330 1.409 . S
C333 C331 1.415 . S
C334 H324 0.930 . S
C334 C332 1.419 . S
C334 C335 1.362 . S
C335 H325 0.930 . S
C335 C328 1.409 . S
C335 C334 1.362 . S
H336 C342 0.930 . S
H337 C345 0.930 . S
H338 C346 0.930 . S
H339 C347 0.930 . S
H340 C350 0.930 . S
H341 C351 0.930 . S
C342 H336 0.930 . S
C342 C343 1.355 . S
C342 C344 1.415 . S
C343 C342 1.355 . S
C343 C345 1.419 . S
C344 C342 1.415 . S
C344 C349 1.425 1_565 S
C344 C351 1.409 1_565 S
C345 H337 0.930 . S
C345 C343 1.419 . S
C345 C346 1.362 . S
C346 H338 0.930 . S
C346 C345 1.362 . S
C346 C349 1.409 1_565 S
C347 H339 0.930 . S
C347 C348 1.355 . S
C347 C349 1.415 . S
C348 C347 1.355 . S
C348 C350 1.419 . S
C349 C344 1.425 1_545 S
C349 C346 1.409 1_545 S
C349 C347 1.415 . S
C350 H340 0.930 . S
C350 C348 1.419 . S
C350 C351 1.362 . S
C351 H341 0.930 . S
C351 C344 1.409 1_545 S
C351 C350 1.362 . S
H352 C358 0.930 . S
H353 C361 0.930 . S
H354 C362 0.930 . S
H355 C363 0.930 . S
H356 C366 0.930 . S
H357 C367 0.930 . S
C358 H352 0.930 . S
C358 C359 1.355 . S
C358 C360 1.415 . S
C359 C358 1.355 . S
C359 C361 1.419 . S
C360 C358 1.415 . S
C360 C365 1.425 . S
C360 C367 1.409 . S
C361 H353 0.930 . S
C361 C359 1.419 . S
C361 C362 1.362 . S
C362 H354 0.930 . S
C362 C361 1.362 . S
C362 C365 1.409 . S
C363 H355 0.930 . S
C363 C364 1.355 . S
C363 C365 1.415 . S
C364 C363 1.355 . S
C364 C366 1.419 . S
C365 C360 1.425 . S
C365 C362 1.409 . S
C365 C363 1.415 . S
C366 H356 0.930 . S
C366 C364 1.419 . S
C366 C367 1.362 . S
C367 H357 0.930 . S
C367 C360 1.409 . S
C367 C366 1.362 . S
H368 C374 0.930 . S
H369 C377 0.930 . S
H370 C378 0.930 1_545 S
H371 C379 0.930 . S
H372 C382 0.930 . S
H373 C383 0.930 1_565 S
C374 H368 0.930 . S
C374 C375 1.355 . S
C374 C376 1.415 . S
C375 C374 1.355 . S
C375 C377 1.419 . S
C376 C374 1.415 . S
C376 C381 1.425 1_565 S
C376 C383 1.409 1_565 S
C377 H369 0.930 . S
C377 C375 1.419 . S
C377 C378 1.362 . S
C378 H370 0.930 1_565 S
C378 C377 1.362 . S
C378 C381 1.409 1_565 S
C379 H371 0.930 . S
C379 C380 1.355 . S
C379 C381 1.415 . S
C380 C379 1.355 . S
C380 C382 1.419 . S
C381 C376 1.425 1_545 S
C381 C378 1.409 1_545 S
C381 C379 1.415 . S
C382 H372 0.930 . S
C382 C380 1.419 . S
C382 C383 1.362 . S
C383 H373 0.930 1_545 S
C383 C376 1.409 1_545 S
C383 C382 1.362 . S
H384 C390 0.930 . S
H385 C393 0.930 . S
H386 C394 0.930 . S
H387 C395 0.930 . S
H388 C398 0.930 . S
H389 C399 0.930 . S
C390 H384 0.930 . S
C390 C391 1.355 . S
C390 C392 1.415 . S
C391 C390 1.355 . S
C391 C393 1.419 . S
C392 C390 1.415 . S
C392 C397 1.425 . S
C392 C399 1.409 . S
C393 H385 0.930 . S
C393 C391 1.419 . S
C393 C394 1.362 . S
C394 H386 0.930 . S
C394 C393 1.362 . S
C394 C397 1.409 . S
C395 H387 0.930 . S
C395 C396 1.355 . S
C395 C397 1.415 . S
C396 C395 1.355 . S
C396 C398 1.419 . S
C397 C392 1.425 . S
C397 C394 1.409 . S
C397 C395 1.415 . S
C398 H388 0.930 . S
C398 C396 1.419 . S
C398 C399 1.362 . S
C399 H389 0.930 . S
C399 C392 1.409 . S
C399 C398 1.362 . S
H400 C406 0.930 . S
H401 C409 0.930 . S
H402 C410 0.931 . S
H403 C411 0.930 . S
H404 C414 0.930 . S
H405 C415 0.930 . S
C406 H400 0.930 . S
C406 C407 1.355 . S
C406 C408 1.413 1_554 S
C407 C406 1.355 . S
C407 C409 1.419 . S
C408 C406 1.413 1_556 S
C408 C413 1.426 . S
C408 C415 1.410 . S
C409 H401 0.930 . S
C409 C407 1.419 . S
C409 C410 1.362 . S
C410 H402 0.931 . S
C410 C409 1.362 . S
C410 C413 1.409 1_554 S
C411 H403 0.930 . S
C411 C412 1.355 . S
C411 C413 1.415 . S
C412 C411 1.355 . S
C412 C414 1.419 . S
C413 C408 1.426 . S
C413 C410 1.409 1_556 S
C413 C411 1.415 . S
C414 H404 0.930 . S
C414 C412 1.419 . S
C414 C415 1.362 . S
C415 H405 0.930 . S
C415 C408 1.410 . S
C415 C414 1.362 . S
H416 C422 0.930 . S
H417 C425 0.930 . S
H418 C426 0.930 . S
H419 C427 0.930 . S
H420 C430 0.930 . S
H421 C431 0.930 . S
C422 H416 0.930 . S
C422 C423 1.355 . S
C422 C424 1.415 . S
C423 C422 1.355 . S
C423 C425 1.419 1_554 S
C424 C422 1.415 . S
C424 C429 1.425 1_564 S
C424 C431 1.409 1_565 S
C425 H417 0.930 . S
C425 C423 1.419 1_556 S
C425 C426 1.362 . S
C426 H418 0.930 . S
C426 C425 1.362 . S
C426 C429 1.409 1_565 S
C427 H419 0.930 . S
C427 C428 1.355 . S
C427 C429 1.415 . S
C428 C427 1.355 . S
C428 C430 1.419 1_556 S
C429 C424 1.425 1_546 S
C429 C426 1.409 1_545 S
C429 C427 1.415 . S
C430 H420 0.930 . S
C430 C428 1.419 1_554 S
C430 C431 1.362 . S
C431 H421 0.930 . S
C431 C424 1.409 1_545 S
C431 C430 1.362 . S
H432 C438 0.930 . S
H433 C441 0.930 . S
H434 C442 0.930 . S
H435 C443 0.930 . S
H436 C446 0.930 . S
H437 C447 0.930 . S
C438 H432 0.930 . S
C438 C439 1.355 . S
C438 C440 1.415 . S
C439 C438 1.355 . S
C439 C441 1.419 1_556 S
C440 C438 1.415 . S
C440 C445 1.425 1_556 S
C440 C447 1.409 . S
C441 H433 0.930 . S
C441 C439 1.419 1_554 S
C441 C442 1.362 . S
C442 H434 0.930 . S
C442 C441 1.362 . S
C442 C445 1.409 . S
C443 H435 0.930 . S
C443 C444 1.355 . S
C443 C445 1.415 . S
C444 C443 1.355 . S
C444 C446 1.419 1_554 S
C445 C440 1.425 1_554 S
C445 C442 1.409 . S
C445 C443 1.415 . S
C446 H436 0.930 . S
C446 C444 1.419 1_556 S
C446 C447 1.362 . S
C447 H437 0.930 . S
C447 C440 1.409 . S
C447 C446 1.362 . S
H448 C454 0.930 . S
H449 C457 0.930 . S
H450 C458 0.930 1_554 S
H451 C459 0.930 . S
H452 C462 0.930 . S
H453 C463 0.930 . S
C454 H448 0.930 . S
C454 C455 1.355 . S
C454 C456 1.415 . S
C455 C454 1.355 . S
C455 C457 1.419 . S
C456 C454 1.415 . S
C456 C461 1.425 1_546 S
C456 C463 1.409 1_546 S
C457 H449 0.930 . S
C457 C455 1.419 . S
C457 C458 1.362 . S
C458 H450 0.930 1_556 S
C458 C457 1.362 . S
C458 C461 1.409 1_546 S
C459 H451 0.930 . S
C459 C460 1.355 . S
C459 C461 1.415 . S
C460 C459 1.355 . S
C460 C462 1.419 . S
C461 C456 1.425 1_564 S
C461 C458 1.409 1_564 S
C461 C459 1.415 . S
C462 H452 0.930 . S
C462 C460 1.419 . S
C462 C463 1.362 . S
C463 H453 0.930 . S
C463 C456 1.409 1_564 S
C463 C462 1.362 . S
H464 C470 0.930 . S
H465 C473 0.930 . S
H466 C474 0.930 . S
H467 C475 0.930 . S
H468 C478 0.930 . S
H469 C479 0.930 . S
C470 H464 0.930 . S
C470 C471 1.355 . S
C470 C472 1.415 . S
C471 C470 1.355 . S
C471 C473 1.419 . S
C472 C470 1.415 . S
C472 C477 1.425 . S
C472 C479 1.409 . S
C473 H465 0.930 . S
C473 C471 1.419 . S
C473 C474 1.362 . S
C474 H466 0.930 . S
C474 C473 1.362 . S
C474 C477 1.409 . S
C475 H467 0.930 . S
C475 C476 1.355 . S
C475 C477 1.415 1_556 S
C476 C475 1.355 . S
C476 C478 1.419 . S
C477 C472 1.425 . S
C477 C474 1.409 . S
C477 C475 1.415 1_554 S
C478 H468 0.930 . S
C478 C476 1.419 . S
C478 C479 1.362 1_556 S
C479 H469 0.930 . S
C479 C472 1.409 . S
C479 C478 1.362 1_554 S
H480 C486 0.930 . S
H481 C489 0.930 . S
H482 C490 0.930 . S
H483 C491 0.930 . S
H484 C494 0.930 . S
H485 C495 0.930 . S
C486 H480 0.930 . S
C486 C487 1.355 . S
C486 C488 1.415 . S
C487 C486 1.355 . S
C487 C489 1.419 . S
C488 C486 1.415 . S
C488 C493 1.425 . S
C488 C495 1.409 . S
C489 H481 0.930 . S
C489 C487 1.419 . S
C489 C490 1.362 . S
C490 H482 0.930 . S
C490 C489 1.362 . S
C490 C493 1.409 . S
C491 H483 0.930 . S
C491 C492 1.355 . S
C491 C493 1.415 1_556 S
C492 C491 1.355 . S
C492 C494 1.419 . S
C493 C488 1.425 . S
C493 C490 1.409 . S
C493 C491 1.415 1_554 S
C494 H484 0.930 . S
C494 C492 1.419 . S
C494 C495 1.362 1_556 S
C495 H485 0.930 . S
C495 C488 1.409 . S
C495 C494 1.362 1_554 S
H496 C502 0.930 . S
H497 C505 0.930 . S
H498 C506 0.930 . S
H499 C507 0.930 . S
H500 C510 0.930 . S
H501 C511 0.930 . S
C502 H496 0.930 . S
C502 C503 1.355 . S
C502 C504 1.415 1_554 S
C503 C502 1.355 . S
C503 C505 1.419 . S
C504 C502 1.415 1_556 S
C504 C509 1.425 . S
C504 C511 1.409 . S
C505 H497 0.930 . S
C505 C503 1.419 . S
C505 C506 1.362 1_554 S
C506 H498 0.930 . S
C506 C505 1.362 1_556 S
C506 C509 1.409 . S
C507 H499 0.930 . S
C507 C508 1.355 . S
C507 C509 1.415 . S
C508 C507 1.355 . S
C508 C510 1.419 . S
C509 C504 1.425 . S
C509 C506 1.409 . S
C509 C507 1.415 . S
C510 H500 0.930 . S
C510 C508 1.419 . S
C510 C511 1.362 . S
C511 H501 0.930 . S
C511 C504 1.409 . S
C511 C510 1.362 . S
H512 C518 0.930 . S
H513 C521 0.930 . S
H514 C522 0.930 . S
H515 C523 0.930 . S
H516 C526 0.930 . S
H517 C527 0.930 . S
C518 H512 0.930 . S
C518 C519 1.355 . S
C518 C520 1.415 . S
C519 C518 1.355 . S
C519 C521 1.419 . S
C520 C518 1.415 . S
C520 C525 1.425 . S
C520 C527 1.409 . S
C521 H513 0.930 . S
C521 C519 1.419 . S
C521 C522 1.362 . S
C522 H514 0.930 . S
C522 C521 1.362 . S
C522 C525 1.409 . S
C523 H515 0.930 . S
C523 C524 1.355 . S
C523 C525 1.415 1_554 S
C524 C523 1.355 . S
C524 C526 1.419 . S
C525 C520 1.425 . S
C525 C522 1.409 . S
C525 C523 1.415 1_556 S
C526 H516 0.930 . S
C526 C524 1.419 . S
C526 C527 1.362 1_554 S
C527 H517 0.930 . S
C527 C520 1.409 . S
C527 C526 1.362 1_556 S
H528 C534 0.930 . S
H529 C537 0.930 . S
H530 C538 0.930 . S
H531 C539 0.930 . S
H532 C542 0.930 . S
H533 C543 0.930 . S
C534 H528 0.930 . S
C534 C535 1.355 . S
C534 C536 1.415 . S
C535 C534 1.355 . S
C535 C537 1.419 . S
C536 C534 1.415 . S
C536 C541 1.425 . S
C536 C543 1.409 . S
C537 H529 0.930 . S
C537 C535 1.419 . S
C537 C538 1.362 . S
C538 H530 0.930 . S
C538 C537 1.362 . S
C538 C541 1.409 . S
C539 H531 0.930 . S
C539 C540 1.355 . S
C539 C541 1.415 . S
C540 C539 1.355 . S
C540 C542 1.419 . S
C541 C536 1.425 . S
C541 C538 1.409 . S
C541 C539 1.415 . S
C542 H532 0.930 . S
C542 C540 1.419 . S
C542 C543 1.362 . S
C543 H533 0.930 . S
C543 C536 1.409 . S
C543 C542 1.362 . S
H544 C550 0.930 . S
H545 C553 0.930 . S
H546 C554 0.930 . S
H547 C555 0.930 . S
H548 C558 0.930 . S
H549 C559 0.930 . S
C550 H544 0.930 . S
C550 C551 1.355 . S
C550 C552 1.415 . S
C551 C550 1.355 . S
C551 C553 1.419 . S
C552 C550 1.415 . S
C552 C557 1.425 . S
C552 C559 1.409 . S
C553 H545 0.930 . S
C553 C551 1.419 . S
C553 C554 1.362 . S
C554 H546 0.930 . S
C554 C553 1.362 . S
C554 C557 1.409 . S
C555 H547 0.930 . S
C555 C556 1.355 . S
C555 C557 1.415 . S
C556 C555 1.355 . S
C556 C558 1.419 . S
C557 C552 1.425 . S
C557 C554 1.409 . S
C557 C555 1.415 . S
C558 H548 0.930 . S
C558 C556 1.419 . S
C558 C559 1.362 . S
C559 H549 0.930 . S
C559 C552 1.409 . S
C559 C558 1.362 . S
H560 C566 0.930 . S
H561 C569 0.930 . S
H562 C570 0.930 . S
H563 C571 0.930 . S
H564 C574 0.930 . S
H565 C575 0.930 . S
C566 H560 0.930 . S
C566 C567 1.355 . S
C566 C568 1.415 . S
C567 C566 1.355 . S
C567 C569 1.419 . S
C568 C566 1.415 . S
C568 C573 1.425 . S
C568 C575 1.409 . S
C569 H561 0.930 . S
C569 C567 1.419 . S
C569 C570 1.362 . S
C570 H562 0.930 . S
C570 C569 1.362 . S
C570 C573 1.409 . S
C571 H563 0.930 . S
C571 C572 1.355 . S
C571 C573 1.415 . S
C572 C571 1.355 . S
C572 C574 1.419 . S
C573 C568 1.425 . S
C573 C570 1.409 . S
C573 C571 1.415 . S
C574 H564 0.930 . S
C574 C572 1.419 . S
C574 C575 1.362 . S
C575 H565 0.930 . S
C575 C568 1.409 . S
C575 C574 1.362 . S
H576 C582 0.930 . S
H577 C585 0.930 . S
H578 C586 0.930 . S
H579 C587 0.930 . S
H580 C590 0.930 . S
H581 C591 0.930 . S
C582 H576 0.930 . S
C582 C583 1.355 . S
C582 C584 1.415 . S
C583 C582 1.355 . S
C583 C585 1.419 . S
C584 C582 1.415 . S
C584 C589 1.425 . S
C584 C591 1.409 . S
C585 H577 0.930 . S
C585 C583 1.419 . S
C585 C586 1.362 . S
C586 H578 0.930 . S
C586 C585 1.362 . S
C586 C589 1.409 . S
C587 H579 0.930 . S
C587 C588 1.355 . S
C587 C589 1.415 . S
C588 C587 1.355 . S
C588 C590 1.419 . S
C589 C584 1.425 . S
C589 C586 1.409 . S
C589 C587 1.415 . S
C590 H580 0.930 . S
C590 C588 1.419 . S
C590 C591 1.362 . S
C591 H581 0.930 . S
C591 C584 1.409 . S
C591 C590 1.362 . S
H592 C598 0.930 . S
H593 C601 0.930 . S
H594 C602 0.930 . S
H595 C603 0.930 . S
H596 C606 0.930 . S
H597 C607 0.930 . S
C598 H592 0.930 . S
C598 C599 1.355 . S
C598 C600 1.415 . S
C599 C598 1.355 . S
C599 C601 1.419 . S
C600 C598 1.415 . S
C600 C605 1.425 1_455 S
C600 C607 1.409 1_455 S
C601 H593 0.930 . S
C601 C599 1.419 . S
C601 C602 1.362 . S
C602 H594 0.930 . S
C602 C601 1.362 . S
C602 C605 1.409 1_455 S
C603 H595 0.930 . S
C603 C604 1.355 . S
C603 C605 1.415 . S
C604 C603 1.355 . S
C604 C606 1.419 . S
C605 C600 1.425 1_655 S
C605 C602 1.409 1_655 S
C605 C603 1.415 . S
C606 H596 0.930 . S
C606 C604 1.419 . S
C606 C607 1.362 . S
C607 H597 0.930 . S
C607 C600 1.409 1_655 S
C607 C606 1.362 . S
H608 C614 0.930 . S
H609 C617 0.930 . S
H610 C618 0.930 . S
H611 C619 0.930 . S
H612 C622 0.930 . S
H613 C623 0.930 . S
C614 H608 0.930 . S
C614 C615 1.355 . S
C614 C616 1.415 . S
C615 C614 1.355 . S
C615 C617 1.419 . S
C616 C614 1.415 . S
C616 C621 1.425 1_655 S
C616 C623 1.409 1_655 S
C617 H609 0.930 . S
C617 C615 1.419 . S
C617 C618 1.362 . S
C618 H610 0.930 . S
C618 C617 1.362 . S
C618 C621 1.409 1_655 S
C619 H611 0.930 . S
C619 C620 1.355 . S
C619 C621 1.415 . S
C620 C619 1.355 . S
C620 C622 1.419 . S
C621 C616 1.425 1_455 S
C621 C618 1.409 1_455 S
C621 C619 1.415 . S
C622 H612 0.930 . S
C622 C620 1.419 . S
C622 C623 1.362 . S
C623 H613 0.930 . S
C623 C616 1.409 1_455 S
C623 C622 1.362 . S
H624 C630 0.930 . S
H625 C633 0.930 . S
H626 C634 0.930 . S
H627 C635 0.930 . S
H628 C638 0.930 . S
H629 C639 0.930 . S
C630 H624 0.930 . S
C630 C631 1.355 . S
C630 C632 1.415 . S
C631 C630 1.355 . S
C631 C633 1.419 1_554 S
C632 C630 1.415 . S
C632 C637 1.425 1_554 S
C632 C639 1.409 . S
C633 H625 0.930 . S
C633 C631 1.419 1_556 S
C633 C634 1.362 . S
C634 H626 0.930 . S
C634 C633 1.362 . S
C634 C637 1.409 . S
C635 H627 0.930 . S
C635 C636 1.355 1_556 S
C635 C637 1.415 . S
C636 C635 1.355 1_554 S
C636 C638 1.419 . S
C637 C632 1.425 1_556 S
C637 C634 1.409 . S
C637 C635 1.415 . S
C638 H628 0.930 . S
C638 C636 1.419 . S
C638 C639 1.362 . S
C639 H629 0.930 . S
C639 C632 1.409 . S
C639 C638 1.362 . S
H640 C646 0.930 . S
H641 C649 0.930 . S
H642 C650 0.930 . S
H643 C651 0.930 . S
H644 C654 0.930 . S
H645 C655 0.930 . S
C646 H640 0.930 . S
C646 C647 1.355 . S
C646 C648 1.415 . S
C647 C646 1.355 . S
C647 C649 1.419 1_556 S
C648 C646 1.415 . S
C648 C653 1.425 . S
C648 C655 1.409 . S
C649 H641 0.930 . S
C649 C647 1.419 1_554 S
C649 C650 1.362 . S
C650 H642 0.930 . S
C650 C649 1.362 . S
C650 C653 1.409 1_554 S
C651 H643 0.930 . S
C651 C652 1.355 1_554 S
C651 C653 1.415 1_554 S
C652 C651 1.355 1_556 S
C652 C654 1.419 . S
C653 C648 1.425 . S
C653 C650 1.409 1_556 S
C653 C651 1.415 1_556 S
C654 H644 0.930 . S
C654 C652 1.419 . S
C654 C655 1.362 . S
C655 H645 0.930 . S
C655 C648 1.409 . S
C655 C654 1.362 . S
C279 C0 1.668 . S
C284 C267 1.668 . S
C295 C233 1.680 . S
C300 C63 1.684 . S
C311 C199 1.716 . S
C316 C97 1.717 . S
C327 C136 1.714 . S
C332 C131 1.714 . S
C343 C72 1.645 . S
C348 C4 1.640 . S
C359 C38 1.583 . S
C364 C106 1.599 . S
C375 C115 1.583 . S
C380 C47 1.585 . S
C391 C81 1.491 . S
C396 C13 1.491 . S
C407 C140 1.644 . S
C412 C208 1.647 . S
C423 C174 1.572 . S
C428 C242 1.568 . S
C439 C251 1.555 . S
C444 C183 1.548 . S
C455 C217 1.476 . S
C460 C149 1.478 . S
C471 C17 1.224 . S
C476 C8 1.224 . S
C487 C42 1.213 . S
C492 C51 1.213 . S
C503 C85 1.220 . S
C508 C76 1.220 . S
C519 C110 1.214 . S
C524 C119 1.214 . S
C535 C144 1.219 . S
C540 C153 1.219 . S
C551 C178 1.218 . S
C556 C187 1.218 . S
C567 C212 1.220 . S
C572 C221 1.220 . S
C583 C246 1.219 . S
C588 C255 1.219 . S
C599 C29 1.587 . S
C604 C34 1.587 . S
C615 C102 1.579 . S
C620 C68 1.593 . S
C631 C165 1.593 . S
C636 C170 1.581 . S
C647 C238 1.590 . S
C652 C204 1.575 . S
