# Generated by pormake.
# Topology ukn, (4)-cn, num edge types: 1
# Building blocks:
#     Node 0, Type 0, BuildingBlock: QUQFOY_clean_sbu_1, # of connection points: 4
#     Node 1, Type 0, BuildingBlock: QUQFOY_clean_sbu_1, # of connection points: 4
#     Node 2, Type 0, BuildingBlock: QUQFOY_clean_sbu_1, # of connection points: 4
#     Node 3, Type 0, BuildingBlock: QUQFOY_clean_sbu_1, # of connection points: 4
#     Node 4, Type 0, BuildingBlock: QUQFOY_clean_sbu_1, # of connection points: 4
#     Node 5, Type 0, BuildingBlock: QUQFOY_clean_sbu_1, # of connection points: 4
#     Node 6, Type 0, BuildingBlock: QUQFOY_clean_sbu_1, # of connection points: 4
#     Node 7, Type 0, BuildingBlock: QUQFOY_clean_sbu_1, # of connection points: 4
#     Node 8, Type 0, BuildingBlock: QUQFOY_clean_sbu_1, # of connection points: 4
#     Node 9, Type 0, BuildingBlock: QUQFOY_clean_sbu_1, # of connection points: 4
#     Node 10, Type 0, BuildingBlock: QUQFOY_clean_sbu_1, # of connection points: 4
#     Node 11, Type 0, BuildingBlock: QUQFOY_clean_sbu_1, # of connection points: 4
#     Node 12, Type 0, BuildingBlock: QUQFOY_clean_sbu_1, # of connection points: 4
#     Node 13, Type 0, BuildingBlock: QUQFOY_clean_sbu_1, # of connection points: 4
#     Node 14, Type 0, BuildingBlock: QUQFOY_clean_sbu_1, # of connection points: 4
#     Node 15, Type 0, BuildingBlock: QUQFOY_clean_sbu_1, # of connection points: 4
#     Node 16, Type 0, BuildingBlock: QUQFOY_clean_sbu_1, # of connection points: 4
#     Node 17, Type 0, BuildingBlock: QUQFOY_clean_sbu_1, # of connection points: 4
#     Node 18, Type 0, BuildingBlock: QUQFOY_clean_sbu_1, # of connection points: 4
#     Node 19, Type 0, BuildingBlock: QUQFOY_clean_sbu_1, # of connection points: 4
#     Node 20, Type 0, BuildingBlock: QUQFOY_clean_sbu_1, # of connection points: 4
#     Node 21, Type 0, BuildingBlock: QUQFOY_clean_sbu_1, # of connection points: 4
#     Node 22, Type 0, BuildingBlock: QUQFOY_clean_sbu_1, # of connection points: 4
#     Node 23, Type 0, BuildingBlock: QUQFOY_clean_sbu_1, # of connection points: 4
#     Node 24, Type 0, BuildingBlock: QUQFOY_clean_sbu_1, # of connection points: 4
#     Node 25, Type 0, BuildingBlock: QUQFOY_clean_sbu_1, # of connection points: 4
#     Node 26, Type 0, BuildingBlock: QUQFOY_clean_sbu_1, # of connection points: 4
#     Node 27, Type 0, BuildingBlock: QUQFOY_clean_sbu_1, # of connection points: 4
#     Node 28, Type 0, BuildingBlock: QUQFOY_clean_sbu_1, # of connection points: 4
#     Node 29, Type 0, BuildingBlock: QUQFOY_clean_sbu_1, # of connection points: 4
#     Node 30, Type 0, BuildingBlock: QUQFOY_clean_sbu_1, # of connection points: 4
#     Node 31, Type 0, BuildingBlock: QUQFOY_clean_sbu_1, # of connection points: 4
#     Node 32, Type 0, BuildingBlock: QUQFOY_clean_sbu_1, # of connection points: 4
#     Node 33, Type 0, BuildingBlock: QUQFOY_clean_sbu_1, # of connection points: 4
#     Node 34, Type 0, BuildingBlock: QUQFOY_clean_sbu_1, # of connection points: 4
#     Node 35, Type 0, BuildingBlock: QUQFOY_clean_sbu_1, # of connection points: 4
#     Edge 36, Type (0, 0), BuildingBlock: OJICUG_clean_linker_0, # of connection points: 2
#     Edge 37, Type (0, 0), BuildingBlock: OJICUG_clean_linker_0, # of connection points: 2
#     Edge 38, Type (0, 0), BuildingBlock: OJICUG_clean_linker_0, # of connection points: 2
#     Edge 39, Type (0, 0), BuildingBlock: OJICUG_clean_linker_0, # of connection points: 2
#     Edge 40, Type (0, 0), BuildingBlock: OJICUG_clean_linker_0, # of connection points: 2
#     Edge 41, Type (0, 0), BuildingBlock: OJICUG_clean_linker_0, # of connection points: 2
#     Edge 42, Type (0, 0), BuildingBlock: OJICUG_clean_linker_0, # of connection points: 2
#     Edge 43, Type (0, 0), BuildingBlock: OJICUG_clean_linker_0, # of connection points: 2
#     Edge 44, Type (0, 0), BuildingBlock: OJICUG_clean_linker_0, # of connection points: 2
#     Edge 45, Type (0, 0), BuildingBlock: OJICUG_clean_linker_0, # of connection points: 2
#     Edge 46, Type (0, 0), BuildingBlock: OJICUG_clean_linker_0, # of connection points: 2
#     Edge 47, Type (0, 0), BuildingBlock: OJICUG_clean_linker_0, # of connection points: 2
#     Edge 48, Type (0, 0), BuildingBlock: OJICUG_clean_linker_0, # of connection points: 2
#     Edge 49, Type (0, 0), BuildingBlock: OJICUG_clean_linker_0, # of connection points: 2
#     Edge 50, Type (0, 0), BuildingBlock: OJICUG_clean_linker_0, # of connection points: 2
#     Edge 51, Type (0, 0), BuildingBlock: OJICUG_clean_linker_0, # of connection points: 2
#     Edge 52, Type (0, 0), BuildingBlock: OJICUG_clean_linker_0, # of connection points: 2
#     Edge 53, Type (0, 0), BuildingBlock: OJICUG_clean_linker_0, # of connection points: 2
#     Edge 54, Type (0, 0), BuildingBlock: OJICUG_clean_linker_0, # of connection points: 2
#     Edge 55, Type (0, 0), BuildingBlock: OJICUG_clean_linker_0, # of connection points: 2
#     Edge 56, Type (0, 0), BuildingBlock: OJICUG_clean_linker_0, # of connection points: 2
#     Edge 57, Type (0, 0), BuildingBlock: OJICUG_clean_linker_0, # of connection points: 2
#     Edge 58, Type (0, 0), BuildingBlock: OJICUG_clean_linker_0, # of connection points: 2
#     Edge 59, Type (0, 0), BuildingBlock: OJICUG_clean_linker_0, # of connection points: 2
#     Edge 60, Type (0, 0), BuildingBlock: OJICUG_clean_linker_0, # of connection points: 2
#     Edge 61, Type (0, 0), BuildingBlock: OJICUG_clean_linker_0, # of connection points: 2
#     Edge 62, Type (0, 0), BuildingBlock: OJICUG_clean_linker_0, # of connection points: 2
#     Edge 63, Type (0, 0), BuildingBlock: OJICUG_clean_linker_0, # of connection points: 2
#     Edge 64, Type (0, 0), BuildingBlock: OJICUG_clean_linker_0, # of connection points: 2
#     Edge 65, Type (0, 0), BuildingBlock: OJICUG_clean_linker_0, # of connection points: 2
#     Edge 66, Type (0, 0), BuildingBlock: OJICUG_clean_linker_0, # of connection points: 2
#     Edge 67, Type (0, 0), BuildingBlock: OJICUG_clean_linker_0, # of connection points: 2
#     Edge 68, Type (0, 0), BuildingBlock: OJICUG_clean_linker_0, # of connection points: 2
#     Edge 69, Type (0, 0), BuildingBlock: OJICUG_clean_linker_0, # of connection points: 2
#     Edge 70, Type (0, 0), BuildingBlock: OJICUG_clean_linker_0, # of connection points: 2
#     Edge 71, Type (0, 0), BuildingBlock: OJICUG_clean_linker_0, # of connection points: 2
#     Edge 72, Type (0, 0), BuildingBlock: OJICUG_clean_linker_0, # of connection points: 2
#     Edge 73, Type (0, 0), BuildingBlock: OJICUG_clean_linker_0, # of connection points: 2
#     Edge 74, Type (0, 0), BuildingBlock: OJICUG_clean_linker_0, # of connection points: 2
#     Edge 75, Type (0, 0), BuildingBlock: OJICUG_clean_linker_0, # of connection points: 2
#     Edge 76, Type (0, 0), BuildingBlock: OJICUG_clean_linker_0, # of connection points: 2
#     Edge 77, Type (0, 0), BuildingBlock: OJICUG_clean_linker_0, # of connection points: 2
#     Edge 78, Type (0, 0), BuildingBlock: OJICUG_clean_linker_0, # of connection points: 2
#     Edge 79, Type (0, 0), BuildingBlock: OJICUG_clean_linker_0, # of connection points: 2
#     Edge 80, Type (0, 0), BuildingBlock: OJICUG_clean_linker_0, # of connection points: 2
#     Edge 81, Type (0, 0), BuildingBlock: OJICUG_clean_linker_0, # of connection points: 2
#     Edge 82, Type (0, 0), BuildingBlock: OJICUG_clean_linker_0, # of connection points: 2
#     Edge 83, Type (0, 0), BuildingBlock: OJICUG_clean_linker_0, # of connection points: 2
#     Edge 84, Type (0, 0), BuildingBlock: OJICUG_clean_linker_0, # of connection points: 2
#     Edge 85, Type (0, 0), BuildingBlock: OJICUG_clean_linker_0, # of connection points: 2
#     Edge 86, Type (0, 0), BuildingBlock: OJICUG_clean_linker_0, # of connection points: 2
#     Edge 87, Type (0, 0), BuildingBlock: OJICUG_clean_linker_0, # of connection points: 2
#     Edge 88, Type (0, 0), BuildingBlock: OJICUG_clean_linker_0, # of connection points: 2
#     Edge 89, Type (0, 0), BuildingBlock: OJICUG_clean_linker_0, # of connection points: 2
#     Edge 90, Type (0, 0), BuildingBlock: OJICUG_clean_linker_0, # of connection points: 2
#     Edge 91, Type (0, 0), BuildingBlock: OJICUG_clean_linker_0, # of connection points: 2
#     Edge 92, Type (0, 0), BuildingBlock: OJICUG_clean_linker_0, # of connection points: 2
#     Edge 93, Type (0, 0), BuildingBlock: OJICUG_clean_linker_0, # of connection points: 2
#     Edge 94, Type (0, 0), BuildingBlock: OJICUG_clean_linker_0, # of connection points: 2
#     Edge 95, Type (0, 0), BuildingBlock: OJICUG_clean_linker_0, # of connection points: 2
#     Edge 96, Type (0, 0), BuildingBlock: OJICUG_clean_linker_0, # of connection points: 2
#     Edge 97, Type (0, 0), BuildingBlock: OJICUG_clean_linker_0, # of connection points: 2
#     Edge 98, Type (0, 0), BuildingBlock: OJICUG_clean_linker_0, # of connection points: 2
#     Edge 99, Type (0, 0), BuildingBlock: OJICUG_clean_linker_0, # of connection points: 2
#     Edge 100, Type (0, 0), BuildingBlock: OJICUG_clean_linker_0, # of connection points: 2
#     Edge 101, Type (0, 0), BuildingBlock: OJICUG_clean_linker_0, # of connection points: 2
#     Edge 102, Type (0, 0), BuildingBlock: OJICUG_clean_linker_0, # of connection points: 2
#     Edge 103, Type (0, 0), BuildingBlock: OJICUG_clean_linker_0, # of connection points: 2
#     Edge 104, Type (0, 0), BuildingBlock: OJICUG_clean_linker_0, # of connection points: 2
#     Edge 105, Type (0, 0), BuildingBlock: OJICUG_clean_linker_0, # of connection points: 2
#     Edge 106, Type (0, 0), BuildingBlock: OJICUG_clean_linker_0, # of connection points: 2
#     Edge 107, Type (0, 0), BuildingBlock: OJICUG_clean_linker_0, # of connection points: 2
# Relax obj value: 0.011
# Max RMSD: 0.050
# Mean RMSD: 0.050
data_MOF--net-ukn--node1-QUQFOY_clean_sbu_1--edge1-OJICUG_clean_linker_0
_symmetry_space_group_name_H-M    P1
_symmetry_Int_Tables_number       1
_symmetry_cell_setting            triclinic
loop_
_symmetry_equiv_pos_as_xyz
'x, y, z'
_cell_length_a     81.647846
_cell_length_b     81.682908
_cell_length_c     20.521469
_cell_angle_alpha  89.573405
_cell_angle_beta   90.086372
_cell_angle_gamma 120.00385
loop_
_atom_site_label
_atom_site_type_symbol
_atom_site_fract_x
_atom_site_fract_y
_atom_site_fract_z
_atom_type_partial_charge
O0 O 0.10444 0.29191 0.13095 0.0
Cd1 Cd 0.08923 0.30595 0.12681 0.0
Cd2 Cd 0.06839 0.27214 0.04583 0.0
O3 O 0.08811 0.26518 0.07711 0.0
O4 O 0.10489 0.3268 0.18931 0.0
O5 O 0.07491 0.30619 0.20831 0.0
C6 C 0.09065 0.32021 0.22836 0.0
C7 C 0.03635 0.25019 0.03681 0.0
C8 C 0.10241 0.27629 0.11089 0.0
C9 C 0.08498 0.31114 0.98247 0.0
O10 O 0.07732 0.29333 0.97778 0.0
O11 O 0.0898 0.31912 0.03803 0.0
O12 O 0.04847 0.25043 0.99611 0.0
O13 O 0.04257 0.26166 0.08551 0.0
O14 O 0.69464 0.8064 0.14462 0.0
Cd15 Cd 0.68659 0.77804 0.14392 0.0
Cd16 Cd 0.7201 0.79373 0.0726 0.0
O17 O 0.72341 0.81924 0.10281 0.0
O18 O 0.66563 0.76619 0.20947 0.0
O19 O 0.69315 0.76761 0.22326 0.0
C20 C 0.67662 0.763 0.24587 0.0
C21 C 0.74458 0.78705 0.06825 0.0
C22 C 0.71017 0.82096 0.12842 0.0
C23 C 0.68338 0.76811 1.00323 0.0
O24 O 0.70084 0.78029 0.99997 0.0
O25 O 0.67484 0.76376 0.05787 0.0
O26 O 0.74374 0.7987 0.02763 0.0
O27 O 0.73228 0.78026 0.11491 0.0
O28 O 0.19561 0.889 0.14268 0.0
Cd29 Cd 0.22373 0.9096 0.13585 0.0
Cd30 Cd 0.20734 0.92629 0.0693 0.0
O31 O 0.18247 0.90567 0.11139 0.0
O32 O 0.23658 0.90091 0.19888 0.0
O33 O 0.23457 0.92661 0.21398 0.0
C34 C 0.23953 0.91483 0.2357 0.0
C35 C 0.21913 0.95859 0.06947 0.0
C36 C 0.18095 0.89046 0.13433 0.0
C37 C 0.23035 0.91443 0.99227 0.0
O38 O 0.21705 0.91821 0.9911 0.0
O39 O 0.23678 0.91237 0.04642 0.0
O40 O 0.20406 0.94755 0.03708 0.0
O41 O 0.22652 0.9511 0.1064 0.0
O42 O 0.30355 0.10773 0.93444 0.0
Cd43 Cd 0.31171 0.0876 0.94185 0.0
Cd44 Cd 0.27832 0.07064 1.00912 0.0
O45 O 0.27371 0.09079 0.96509 0.0
O46 O 0.33375 0.0972 0.88031 0.0
O47 O 0.30644 0.07132 0.862 0.0
C48 C 0.32319 0.08356 0.84176 0.0
C49 C 0.25834 0.03825 1.00957 0.0
C50 C 0.28729 0.106 0.94172 0.0
C51 C 0.3131 0.08258 0.08652 0.0
O52 O 0.29613 0.07916 0.0875 0.0
O53 O 0.32151 0.0844 0.03234 0.0
O54 O 0.25396 0.04912 0.04122 0.0
O55 O 0.27327 0.04593 0.97296 0.0
O56 O 0.88711 0.19315 0.90838 0.0
Cd57 Cd 0.90722 0.22157 0.90906 0.0
Cd58 Cd 0.92528 0.20611 0.98105 0.0
O59 O 0.90318 0.18051 0.95071 0.0
O60 O 0.89784 0.2332 0.84343 0.0
O61 O 0.92411 0.23212 0.82962 0.0
C62 C 0.91202 0.23652 0.80698 0.0
C63 C 0.95653 0.21301 0.98619 0.0
C64 C 0.88819 0.17866 0.92481 0.0
C65 C 0.91381 0.2315 0.04984 0.0
O66 O 0.91925 0.21945 0.0533 0.0
O67 O 0.90958 0.23579 0.99507 0.0
O68 O 0.94403 0.20132 0.02667 0.0
O69 O 0.95099 0.21971 0.93926 0.0
O70 O 0.81334 0.70808 0.92526 0.0
Cd71 Cd 0.78408 0.69414 0.92928 0.0
Cd72 Cd 0.79723 0.72792 1.01021 0.0
O73 O 0.82387 0.73482 0.97908 0.0
O74 O 0.77877 0.67329 0.86668 0.0
O75 O 0.76955 0.69403 0.84771 0.0
C76 C 0.77117 0.67997 0.82761 0.0
C77 C 0.78725 0.74994 1.01881 0.0
C78 C 0.82697 0.72367 0.94533 0.0
C79 C 0.77467 0.68896 0.07357 0.0
O80 O 0.78492 0.70676 0.07831 0.0
O81 O 0.77145 0.68099 1.018 0.0
O82 O 0.79911 0.74968 0.05969 0.0
O83 O 0.78194 0.73844 0.9702 0.0
O84 O 0.8947 0.70784 0.92574 0.0
Cd85 Cd 0.90976 0.69365 0.93002 0.0
Cd86 Cd 0.93066 0.72748 1.01132 0.0
O87 O 0.91105 0.73455 0.97967 0.0
O88 O 0.89396 0.67283 0.86757 0.0
O89 O 0.92398 0.69327 0.84846 0.0
C90 C 0.90818 0.67933 0.82845 0.0
C91 C 0.96267 0.74942 1.0213 0.0
C92 C 0.89677 0.72347 0.94574 0.0
C93 C 0.91383 0.68841 0.07445 0.0
O94 O 0.92155 0.70622 0.07917 0.0
O95 O 0.90904 0.68044 1.01886 0.0
O96 O 0.95046 0.74911 0.06169 0.0
O97 O 0.95658 0.73802 0.97239 0.0
O98 O 0.30175 0.19024 0.90821 0.0
Cd99 Cd 0.31049 0.21877 0.90892 0.0
Cd100 Cd 0.277 0.20334 0.98249 0.0
O101 O 0.27323 0.17764 0.95205 0.0
O102 O 0.33164 0.23015 0.84364 0.0
O103 O 0.30453 0.22949 0.82871 0.0
C104 C 0.32098 0.23364 0.80659 0.0
C105 C 0.25304 0.21081 0.98757 0.0
C106 C 0.28624 0.17577 0.92524 0.0
C107 C 0.31412 0.22859 0.0504 0.0
O108 O 0.29662 0.21656 0.05427 0.0
O109 O 0.32246 0.2329 0.99534 0.0
O110 O 0.25364 0.199 0.02813 0.0
O111 O 0.26524 0.21729 0.94057 0.0
O112 O 0.80311 0.10917 0.93537 0.0
Cd113 Cd 0.77525 0.08786 0.94239 0.0
Cd114 Cd 0.79266 0.07203 1.00629 0.0
O115 O 0.81702 0.09293 0.96263 0.0
O116 O 0.76172 0.09612 0.88056 0.0
O117 O 0.76505 0.07128 0.86306 0.0
C118 C 0.75951 0.08271 0.8424 0.0
C119 C 0.78065 0.03981 1.00177 0.0
C120 C 0.81803 0.10804 0.94115 0.0
C121 C 0.76898 0.08206 0.08635 0.0
O122 O 0.78308 0.07949 0.08644 0.0
O123 O 0.76204 0.08367 0.0326 0.0
O124 O 0.79588 0.05042 0.03411 0.0
O125 O 0.77323 0.04775 0.96723 0.0
O126 O 0.69418 0.89016 0.11677 0.0
Cd127 Cd 0.68757 0.91141 0.10947 0.0
Cd128 Cd 0.72083 0.92735 0.04635 0.0
O129 O 0.72438 0.90655 0.09042 0.0
O130 O 0.66577 0.90309 0.17104 0.0
O131 O 0.69392 0.92799 0.18873 0.0
C132 C 0.67696 0.91651 0.20926 0.0
C133 C 0.74082 0.95961 0.05108 0.0
C134 C 0.71027 0.89138 0.11154 0.0
C135 C 0.68715 0.91716 0.96554 0.0
O136 O 0.70385 0.9198 0.96584 0.0
O137 O 0.67855 0.91554 1.01908 0.0
O138 O 0.74561 0.9491 1.01902 0.0
O139 O 0.72542 0.95155 0.08527 0.0
O140 O 0.11119 0.80547 0.15487 0.0
Cd141 Cd 0.09093 0.77711 0.15171 0.0
Cd142 Cd 0.07356 0.79329 0.07967 0.0
O143 O 0.09561 0.81861 0.11226 0.0
O144 O 0.09981 0.76498 0.21708 0.0
O145 O 0.07365 0.76629 0.23006 0.0
C146 C 0.08552 0.76165 0.25294 0.0
C147 C 0.04236 0.78647 0.07411 0.0
C148 C 0.11035 0.82015 0.13925 0.0
C149 C 0.08478 0.76782 1.01026 0.0
O150 O 0.07965 0.7801 1.00701 0.0
O151 O 0.08871 0.76322 0.06502 0.0
O152 O 0.05497 0.79835 0.03432 0.0
O153 O 0.04776 0.77952 0.12068 0.0
O154 O 0.18584 0.29154 0.13208 0.0
Cd155 Cd 0.21509 0.3055 0.12844 0.0
Cd156 Cd 0.20199 0.2716 0.04716 0.0
O157 O 0.17533 0.26484 0.07798 0.0
O158 O 0.22028 0.32634 0.19093 0.0
O159 O 0.22958 0.30569 0.21023 0.0
C160 C 0.22788 0.31972 0.23017 0.0
C161 C 0.21168 0.24932 0.0379 0.0
C162 C 0.17221 0.27599 0.11174 0.0
C163 C 0.2246 0.3107 0.98423 0.0
O164 O 0.21447 0.29288 0.97947 0.0
O165 O 0.22771 0.31867 0.03977 0.0
O166 O 0.19995 0.24984 0.99704 0.0
O167 O 0.21704 0.26073 0.08679 0.0
O168 O 0.77156 0.62587 0.46276 0.0
Cd169 Cd 0.75646 0.64002 0.45829 0.0
Cd170 Cd 0.73564 0.60615 0.3769 0.0
O171 O 0.75529 0.59919 0.40864 0.0
O172 O 0.77226 0.66087 0.52062 0.0
O173 O 0.74225 0.64041 0.53985 0.0
C174 C 0.75805 0.65437 0.55979 0.0
C175 C 0.70371 0.58399 0.36701 0.0
C176 C 0.76952 0.61026 0.44274 0.0
C177 C 0.75238 0.64522 0.31379 0.0
O178 O 0.74465 0.6274 0.30907 0.0
O179 O 0.75717 0.65319 0.36936 0.0
O180 O 0.71597 0.58444 0.32651 0.0
O181 O 0.70972 0.59541 0.41585 0.0
O182 O 0.3665 0.14041 0.47175 0.0
Cd183 Cd 0.35768 0.11186 0.47129 0.0
Cd184 Cd 0.39127 0.12756 0.39598 0.0
O185 O 0.39499 0.15316 0.42745 0.0
O186 O 0.33648 0.10061 0.53651 0.0
O187 O 0.36349 0.10113 0.55186 0.0
C188 C 0.34705 0.09707 0.5738 0.0
C189 C 0.41527 0.12021 0.38669 0.0
C190 C 0.38196 0.15494 0.45459 0.0
C191 C 0.35384 0.10215 0.32965 0.0
O192 O 0.37129 0.1143 0.32536 0.0
O193 O 0.34562 0.09771 0.38493 0.0
O194 O 0.41435 0.13212 0.34753 0.0
O195 O 0.4035 0.11366 0.43493 0.0
O196 O 0.85826 0.22247 0.44552 0.0
Cd197 Cd 0.88617 0.24369 0.4384 0.0
Cd198 Cd 0.86901 0.25973 0.37509 0.0
O199 O 0.84453 0.23888 0.41824 0.0
O200 O 0.89968 0.23545 0.50033 0.0
O201 O 0.89644 0.26037 0.51742 0.0
C202 C 0.90195 0.24894 0.53824 0.0
C203 C 0.88158 0.292 0.38164 0.0
C204 C 0.84341 0.2237 0.43965 0.0
C205 C 0.8925 0.24962 0.29451 0.0
O206 O 0.87851 0.25236 0.29453 0.0
O207 O 0.89935 0.24783 0.3482 0.0
O208 O 0.86632 0.28177 0.34884 0.0
O209 O 0.8887 0.28364 0.41546 0.0
O210 O 0.97011 0.44185 0.27356 0.0
Cd211 Cd 0.97635 0.42037 0.28118 0.0
Cd212 Cd 0.94302 0.40461 0.34303 0.0
O213 O 0.93982 0.42562 0.29879 0.0
O214 O 0.9981 0.42839 0.21971 0.0
O215 O 0.96979 0.4037 0.2022 0.0
C216 C 0.98677 0.41502 0.18158 0.0
C217 C 0.92274 0.37242 0.33725 0.0
C218 C 0.95406 0.44076 0.27815 0.0
C219 C 0.97646 0.41449 0.42489 0.0
O220 O 0.95978 0.41191 0.42408 0.0
O221 O 0.98518 0.41613 0.37164 0.0
O222 O 0.91804 0.38298 0.36939 0.0
O223 O 0.93826 0.38041 0.30372 0.0
O224 O 0.55458 0.52655 0.23899 0.0
Cd225 Cd 0.57495 0.55492 0.23979 0.0
Cd226 Cd 0.59277 0.53931 0.31109 0.0
O227 O 0.57056 0.51378 0.28097 0.0
O228 O 0.56607 0.5669 0.17377 0.0
O229 O 0.59214 0.56537 0.16109 0.0
C230 C 0.58034 0.57009 0.138 0.0
C231 C 0.62396 0.5461 0.3156 0.0
C232 C 0.55557 0.51201 0.2553 0.0
C233 C 0.58185 0.565 0.38031 0.0
O234 O 0.58707 0.55279 0.38369 0.0
O235 O 0.57757 0.56929 0.32564 0.0
O236 O 0.61149 0.53439 0.3561 0.0
O237 O 0.6184 0.55284 0.26885 0.0
O238 O 0.47243 0.02934 0.23827 0.0
Cd239 Cd 0.44383 0.02033 0.23867 0.0
Cd240 Cd 0.45919 0.05419 0.31355 0.0
O241 O 0.48483 0.05762 0.28303 0.0
O242 O 0.43289 0.99917 0.17416 0.0
O243 O 0.43312 0.02602 0.15798 0.0
C244 C 0.42927 0.00965 0.13656 0.0
C245 C 0.45307 0.07902 0.32411 0.0
C246 C 0.48681 0.04476 0.25585 0.0
C247 C 0.43334 0.01645 0.37987 0.0
O248 O 0.44518 0.03398 0.38368 0.0
O249 O 0.42947 0.00816 0.32504 0.0
O250 O 0.46435 0.07715 0.3634 0.0
O251 O 0.44639 0.06764 0.27529 0.0
O252 O 0.55685 0.02964 0.2521 0.0
Cd253 Cd 0.57712 0.02151 0.2556 0.0
Cd254 Cd 0.59432 0.05552 0.3269 0.0
O255 O 0.57225 0.05855 0.29215 0.0
O256 O 0.56747 -5e-05 0.19275 0.0
O257 O 0.59345 0.02729 0.17495 0.0
C258 C 0.58127 0.01065 0.15443 0.0
C259 C 0.62552 0.07983 0.33295 0.0
C260 C 0.55757 0.04516 0.26585 0.0
C261 C 0.58381 0.01903 0.39812 0.0
O262 O 0.58819 0.03626 0.40046 0.0
O263 O 0.5803 0.01055 0.34366 0.0
O264 O 0.61281 0.07918 0.37173 0.0
O265 O 0.62021 0.06752 0.28682 0.0
O266 O 0.97015 0.52594 0.24399 0.0
Cd267 Cd 0.97806 0.55426 0.24473 0.0
Cd268 Cd 0.94463 0.53862 0.31519 0.0
O269 O 0.94132 0.51312 0.28513 0.0
O270 O 0.9989 0.56629 0.1789 0.0
O271 O 0.97124 0.56465 0.16593 0.0
C272 C 0.98778 0.56942 0.14298 0.0
C273 C 0.92023 0.54539 0.31893 0.0
C274 C 0.95458 0.51137 0.25994 0.0
C275 C 0.98117 0.56426 0.38517 0.0
O276 O 0.96373 0.55202 0.38825 0.0
O277 O 0.98977 0.56861 0.33064 0.0
O278 O 0.92094 0.53366 0.35955 0.0
O279 O 0.93261 0.55218 0.2725 0.0
O280 O 0.47051 0.44243 0.26632 0.0
Cd281 Cd 0.44273 0.42104 0.27335 0.0
Cd282 Cd 0.4601 0.40504 0.3356 0.0
O283 O 0.48444 0.42612 0.29208 0.0
O284 O 0.42915 0.42922 0.21158 0.0
O285 O 0.43259 0.40444 0.19419 0.0
C286 C 0.42704 0.41584 0.17345 0.0
C287 C 0.44811 0.37279 0.32995 0.0
C288 C 0.48543 0.4413 0.27143 0.0
C289 C 0.43662 0.41514 0.41695 0.0
O290 O 0.4506 0.41237 0.41638 0.0
O291 O 0.42963 0.41689 0.36356 0.0
O292 O 0.46336 0.38336 0.36229 0.0
O293 O 0.44062 0.3808 0.29615 0.0
O294 O 0.36406 0.22263 0.44597 0.0
Cd295 Cd 0.35588 0.24275 0.43852 0.0
Cd296 Cd 0.38921 0.25998 0.37245 0.0
O297 O 0.39388 0.23971 0.4153 0.0
O298 O 0.3339 0.23326 0.50024 0.0
O299 O 0.36126 0.25914 0.51805 0.0
C300 C 0.34452 0.24695 0.53851 0.0
C301 C 0.40882 0.29239 0.37607 0.0
C302 C 0.38035 0.22444 0.43852 0.0
C303 C 0.35463 0.24812 0.29401 0.0
O304 O 0.3717 0.25182 0.29323 0.0
O305 O 0.34608 0.24595 0.34809 0.0
O306 O 0.41359 0.28202 0.34314 0.0
O307 O 0.39365 0.28416 0.4114 0.0
O308 O 0.77405 0.13875 0.47209 0.0
Cd309 Cd 0.75404 0.11029 0.47154 0.0
Cd310 Cd 0.73605 0.12592 0.3979 0.0
O311 O 0.75814 0.15146 0.42876 0.0
O312 O 0.7636 0.09879 0.53713 0.0
O313 O 0.73724 0.09966 0.55125 0.0
C314 C 0.74943 0.09538 0.57375 0.0
C315 C 0.70488 0.1192 0.38992 0.0
C316 C 0.77305 0.15326 0.45525 0.0
C317 C 0.74762 0.10034 0.33062 0.0
O318 O 0.74224 0.11242 0.32674 0.0
O319 O 0.75176 0.09605 0.38559 0.0
O320 O 0.71766 0.13084 0.35011 0.0
O321 O 0.71008 0.11251 0.43787 0.0
O322 O 0.85295 0.62562 0.46322 0.0
Cd323 Cd 0.8822 0.63952 0.45903 0.0
Cd324 Cd 0.86891 0.60568 0.37786 0.0
O325 O 0.84234 0.59891 0.40917 0.0
O326 O 0.88754 0.6604 0.52153 0.0
O327 O 0.89674 0.63966 0.5406 0.0
C328 C 0.89513 0.65373 0.56064 0.0
C329 C 0.87848 0.58338 0.3687 0.0
C330 C 0.83929 0.61005 0.44312 0.0
C331 C 0.89158 0.64467 0.31466 0.0
O332 O 0.88132 0.62687 0.30991 0.0
O333 O 0.8948 0.65264 0.37023 0.0
O334 O 0.86673 0.58388 0.32791 0.0
O335 O 0.88395 0.59484 0.41744 0.0
O336 O 0.4426 0.96896 0.77315 0.0
Cd337 Cd 0.42136 0.97569 0.76847 0.0
Cd338 Cd 0.40508 0.94246 0.70548 0.0
O339 O 0.42606 0.93883 0.74716 0.0
O340 O 0.42999 0.99748 0.82972 0.0
O341 O 0.40514 0.96938 0.84936 0.0
C342 C 0.41669 0.98633 0.869 0.0
C343 C 0.37284 0.92228 0.7117 0.0
C344 C 0.44135 0.95289 0.76713 0.0
C345 C 0.41506 0.9763 0.62488 0.0
O346 O 0.4124 0.9596 0.62492 0.0
O347 O 0.41687 0.9848 0.67856 0.0
O348 O 0.38339 0.91771 0.67869 0.0
O349 O 0.38087 0.93755 0.74597 0.0
O350 O 0.0264 0.47176 0.81181 0.0
Cd351 Cd 0.01853 0.44344 0.8111 0.0
Cd352 Cd 0.05202 0.45916 0.74037 0.0
O353 O 0.0552 0.48462 0.77029 0.0
O354 O 0.99767 0.43141 0.87688 0.0
O355 O 0.02532 0.43307 0.88999 0.0
C356 C 0.00878 0.42829 0.91288 0.0
C357 C 0.07666 0.45274 0.73635 0.0
C358 C 0.04193 0.48633 0.79565 0.0
C359 C 0.01543 0.43339 0.67065 0.0
O360 O 0.03288 0.44561 0.66752 0.0
O361 O 0.00683 0.4291 0.72517 0.0
O362 O 0.07574 0.46432 0.69563 0.0
O363 O 0.06434 0.44587 0.78293 0.0
O364 O 0.52837 0.55695 0.77636 0.0
Cd365 Cd 0.55612 0.57842 0.76925 0.0
Cd366 Cd 0.53863 0.59425 0.70724 0.0
O367 O 0.51436 0.57323 0.75102 0.0
O368 O 0.56978 0.57032 0.83093 0.0
O369 O 0.56619 0.59501 0.84847 0.0
C370 C 0.57182 0.58366 0.86915 0.0
C371 C 0.55078 0.62646 0.7136 0.0
C372 C 0.51342 0.55806 0.77154 0.0
C373 C 0.56212 0.58433 0.62558 0.0
O374 O 0.54805 0.58695 0.62626 0.0
O375 O 0.5692 0.58267 0.67892 0.0
O376 O 0.5355 0.61603 0.6812 0.0
O377 O 0.55819 0.61833 0.74707 0.0
O378 O 0.637 0.77656 0.60679 0.0
Cd379 Cd 0.64371 0.75538 0.61414 0.0
Cd380 Cd 0.61044 0.73921 0.67679 0.0
O381 O 0.60682 0.76006 0.6334 0.0
O382 O 0.66548 0.76368 0.55247 0.0
O383 O 0.63734 0.73872 0.53513 0.0
C384 C 0.65428 0.7502 0.51446 0.0
C385 C 0.59062 0.70695 0.6703 0.0
C386 C 0.62088 0.77527 0.61226 0.0
C387 C 0.64407 0.74945 0.75797 0.0
O388 O 0.62729 0.7466 0.7576 0.0
O389 O 0.65276 0.75129 0.70448 0.0
O390 O 0.58567 0.71724 0.70294 0.0
O391 O 0.60611 0.71525 0.63667 0.0
O392 O 0.22295 0.85911 0.60027 0.0
Cd393 Cd 0.24409 0.88707 0.60483 0.0
Cd394 Cd 0.26039 0.87045 0.67011 0.0
O395 O 0.23942 0.84565 0.63016 0.0
O396 O 0.23602 0.90037 0.54132 0.0
O397 O 0.26121 0.89742 0.52612 0.0
C398 C 0.24986 0.90291 0.50437 0.0
C399 C 0.29263 0.88236 0.66502 0.0
C400 C 0.22417 0.84431 0.60881 0.0
C401 C 0.24951 0.89394 0.74789 0.0
O402 O 0.25291 0.88039 0.74917 0.0
O403 O 0.24746 0.9004 0.69367 0.0
O404 O 0.28198 0.86736 0.69898 0.0
O405 O 0.28473 0.88958 0.62935 0.0
O406 O 0.1454 0.37387 0.59383 0.0
Cd407 Cd 0.11616 0.35999 0.59787 0.0
Cd408 Cd 0.12938 0.39376 0.67867 0.0
O409 O 0.15599 0.40065 0.64744 0.0
O410 O 0.11088 0.33912 0.53541 0.0
O411 O 0.10166 0.35984 0.51615 0.0
C412 C 0.10331 0.34578 0.49619 0.0
C413 C 0.11947 0.41581 0.68718 0.0
C414 C 0.15906 0.38946 0.61376 0.0
C415 C 0.10684 0.35484 0.74219 0.0
O416 O 0.11711 0.37263 0.74688 0.0
O417 O 0.10355 0.34685 0.68663 0.0
O418 O 0.13133 0.41555 0.72807 0.0
O419 O 0.11412 0.40428 0.63865 0.0
O420 O 0.22677 0.37353 0.59497 0.0
Cd421 Cd 0.24203 0.35955 0.59952 0.0
Cd422 Cd 0.26272 0.3933 0.68006 0.0
O423 O 0.24303 0.40026 0.64884 0.0
O424 O 0.2264 0.33867 0.53709 0.0
O425 O 0.25636 0.35933 0.51807 0.0
C426 C 0.24064 0.34529 0.49802 0.0
C427 C 0.29475 0.41526 0.68695 0.0
C428 C 0.22877 0.38914 0.6149 0.0
C429 C 0.2463 0.35444 0.744 0.0
O430 O 0.25392 0.37225 0.74862 0.0
O431 O 0.24149 0.34645 0.68846 0.0
O432 O 0.28286 0.41516 0.7284 0.0
O433 O 0.28829 0.40356 0.63891 0.0
O434 O 0.63612 0.86012 0.5793 0.0
Cd435 Cd 0.64428 0.88851 0.57984 0.0
Cd436 Cd 0.61069 0.8727 0.65252 0.0
O437 O 0.60745 0.84723 0.62207 0.0
O438 O 0.66529 0.90024 0.51434 0.0
O439 O 0.63788 0.89901 0.50026 0.0
C440 C 0.65439 0.90351 0.47778 0.0
C441 C 0.58615 0.87929 0.6587 0.0
C442 C 0.62065 0.84554 0.59594 0.0
C443 C 0.64766 0.89849 0.72063 0.0
O444 O 0.63021 0.8863 0.72424 0.0
O445 O 0.65612 0.9028 0.66583 0.0
O446 O 0.58722 0.86771 0.69904 0.0
O447 O 0.5982 0.88601 0.61127 0.0
O448 O 0.13879 0.77548 0.61379 0.0
Cd449 Cd 0.1109 0.7543 0.62127 0.0
Cd450 Cd 0.12794 0.73814 0.68367 0.0
O451 O 0.1524 0.75887 0.63988 0.0
O452 O 0.09734 0.76246 0.55931 0.0
O453 O 0.10053 0.7375 0.54259 0.0
C454 C 0.09502 0.74891 0.52162 0.0
C455 C 0.11515 0.70584 0.67691 0.0
C456 C 0.1536 0.77413 0.61898 0.0
C457 C 0.10487 0.74862 0.76514 0.0
O458 O 0.11874 0.7457 0.76466 0.0
O459 O 0.09792 0.75039 0.71167 0.0
O460 O 0.13048 0.71598 0.70943 0.0
O461 O 0.10805 0.7143 0.64356 0.0
O462 O 0.02636 0.55584 0.78227 0.0
Cd463 Cd 0.02014 0.57733 0.77469 0.0
Cd464 Cd 0.05349 0.59313 0.71312 0.0
O465 O 0.05665 0.57208 0.75722 0.0
O466 O 0.99839 0.56934 0.83615 0.0
O467 O 0.02672 0.59401 0.85364 0.0
C468 C 0.00973 0.58271 0.87426 0.0
C469 C 0.07377 0.62532 0.71942 0.0
C470 C 0.0424 0.55693 0.77773 0.0
C471 C 0.02009 0.58327 0.63101 0.0
O472 O 0.03679 0.58589 0.63193 0.0
O473 O 0.01134 0.58159 0.68422 0.0
O474 O 0.07849 0.6148 0.68716 0.0
O475 O 0.05821 0.61729 0.75274 0.0
O476 O 0.44433 0.4728 0.80384 0.0
Cd477 Cd 0.42389 0.44447 0.80285 0.0
Cd478 Cd 0.40612 0.46009 0.73246 0.0
O479 O 0.42833 0.48562 0.76238 0.0
O480 O 0.43268 0.43241 0.86877 0.0
O481 O 0.40669 0.43408 0.88152 0.0
C482 C 0.41844 0.42929 0.90458 0.0
C483 C 0.37486 0.45307 0.73062 0.0
C484 C 0.44333 0.48736 0.78781 0.0
C485 C 0.41692 0.43449 0.66228 0.0
O486 O 0.4117 0.44671 0.65914 0.0
O487 O 0.42121 0.43016 0.71686 0.0
O488 O 0.38703 0.4648 0.68936 0.0
O489 O 0.38078 0.44639 0.77648 0.0
O490 O 0.52657 0.96843 0.78666 0.0
Cd491 Cd 0.55493 0.9764 0.78521 0.0
Cd492 Cd 0.53851 0.94249 0.71535 0.0
O493 O 0.51326 0.93931 0.74869 0.0
O494 O 0.56673 0.99788 0.84836 0.0
O495 O 0.56514 0.97045 0.86655 0.0
C496 C 0.56965 0.9871 0.88701 0.0
C497 C 0.54567 0.91835 0.71108 0.0
C498 C 0.51183 0.95281 0.77314 0.0
C499 C 0.56427 0.97884 0.64329 0.0
O500 O 0.5515 0.96158 0.64119 0.0
O501 O 0.56925 0.98738 0.69764 0.0
O502 O 0.53359 0.91878 0.67163 0.0
O503 O 0.55254 0.9308 0.75681 0.0
C504 C 0.1324 0.28337 0.16636 0.0
C505 C 0.1182 0.27253 0.12106 0.0
H506 H 0.16043 0.29263 0.19979 0.0
C507 C 0.12072 0.26023 0.08004 0.0
H508 H 0.13079 0.29276 0.19939 0.0
C509 C 0.13787 0.26015 0.08026 0.0
C510 C 0.1527 0.27237 0.1215 0.0
H511 H 0.11002 0.25167 0.04471 0.0
H512 H 0.13994 0.25153 0.04508 0.0
C513 C 0.14942 0.28328 0.16659 0.0
C514 C 0.72746 0.85601 0.10639 0.0
C515 C 0.71188 0.83985 0.13345 0.0
H516 H 0.73929 0.88513 0.07858 0.0
C517 C 0.69693 0.84153 0.15994 0.0
H518 H 0.73925 0.85523 0.08578 0.0
C519 C 0.69692 0.85857 0.15561 0.0
C520 C 0.71191 0.87441 0.12494 0.0
H521 H 0.68478 0.82945 0.18176 0.0
H522 H 0.6848 0.85911 0.17432 0.0
C523 C 0.72749 0.87316 0.10229 0.0
C524 C 0.14357 0.84051 0.17765 0.0
C525 C 0.12744 0.839 0.14727 0.0
H526 H 0.17298 0.85796 0.19816 0.0
C527 C 0.1285 0.85532 0.11964 0.0
H528 H 0.14324 0.8283 0.2001 0.0
C529 C 0.14568 0.87247 0.11869 0.0
C530 C 0.16209 0.87357 0.14521 0.0
H531 H 0.11631 0.85468 0.09608 0.0
H532 H 0.14629 0.88457 0.09429 0.0
C533 C 0.16068 0.85756 0.17656 0.0
C534 C 0.26983 0.12389 0.95494 0.0
C535 C 0.28495 0.12255 0.92811 0.0
H536 H 0.25827 0.14183 0.97497 0.0
C537 C 0.29904 0.13807 0.89322 0.0
H538 H 0.25872 0.11215 0.98199 0.0
C539 C 0.29875 0.15497 0.889 0.0
C540 C 0.2844 0.15683 0.91982 0.0
H541 H 0.31075 0.13744 0.87116 0.0
H542 H 0.31028 0.16685 0.86388 0.0
C543 C 0.26957 0.1409 0.95093 0.0
C544 C 0.83742 0.14082 0.89682 0.0
C545 C 0.83661 0.12506 0.92795 0.0
H546 H 0.85432 0.16993 0.8704 0.0
C547 C 0.85346 0.12643 0.9512 0.0
H548 H 0.82474 0.14019 0.87763 0.0
C549 C 0.87054 0.14362 0.94722 0.0
C550 C 0.87107 0.15971 0.91968 0.0
H551 H 0.85332 0.11452 0.97527 0.0
H552 H 0.88312 0.1445 0.96831 0.0
C553 C 0.85443 0.15791 0.8926 0.0
C554 C 0.84978 0.71647 0.89008 0.0
C555 C 0.84649 0.72735 0.9353 0.0
H556 H 0.86843 0.70705 0.85708 0.0
C557 C 0.86134 0.73959 0.97645 0.0
H558 H 0.83875 0.70712 0.85694 0.0
C559 C 0.87849 0.73955 0.97654 0.0
C560 C 0.88102 0.72727 0.93547 0.0
H561 H 0.85926 0.7482 1.0117 0.0
H562 H 0.8892 0.74812 1.01186 0.0
C563 C 0.86682 0.71644 0.89015 0.0
C564 C 0.80492 0.59409 0.41235 0.0
C565 C 0.81979 0.60639 0.45327 0.0
H566 H 0.77703 0.5855 0.37711 0.0
C567 C 0.81655 0.61733 0.49833 0.0
H568 H 0.80696 0.58543 0.37726 0.0
C569 C 0.7995 0.61737 0.49826 0.0
C570 C 0.78528 0.60647 0.45312 0.0
H571 H 0.82759 0.62673 0.5313 0.0
H572 H 0.79792 0.62681 0.53118 0.0
C573 C 0.78777 0.59413 0.41228 0.0
C574 C 0.36925 0.17555 0.491 0.0
C575 C 0.38367 0.17382 0.46013 0.0
H576 H 0.35705 0.19291 0.50893 0.0
C577 C 0.39841 0.18981 0.42896 0.0
H578 H 0.35778 0.16363 0.51615 0.0
C579 C 0.39801 0.20675 0.42501 0.0
C580 C 0.38282 0.20795 0.45191 0.0
H581 H 0.40977 0.18898 0.40486 0.0
H582 H 0.40905 0.21853 0.39796 0.0
C583 C 0.36881 0.19237 0.48682 0.0
C584 C 0.80799 0.20544 0.42897 0.0
C585 C 0.82477 0.20675 0.45268 0.0
H586 H 0.77834 0.18747 0.41131 0.0
C587 C 0.82383 0.19096 0.48409 0.0
H588 H 0.80823 0.21738 0.40467 0.0
C589 C 0.80677 0.17392 0.48814 0.0
C590 C 0.7902 0.17218 0.46059 0.0
H591 H 0.83644 0.19154 0.50364 0.0
H592 H 0.80678 0.16188 0.51058 0.0
C593 C 0.79086 0.1883 0.43276 0.0
C594 C 0.9679 0.49075 0.22985 0.0
C595 C 0.95284 0.49247 0.25521 0.0
H596 H 0.97998 0.47309 0.21669 0.0
C597 C 0.9371 0.47631 0.28151 0.0
H598 H 0.98018 0.50283 0.20866 0.0
C599 C 0.93697 0.45913 0.28597 0.0
C600 C 0.95261 0.45782 0.26445 0.0
H601 H 0.92523 0.47712 0.30124 0.0
H602 H 0.92502 0.44715 0.30905 0.0
C603 C 0.9678 0.47367 0.23454 0.0
C604 C 0.52171 0.49134 0.22401 0.0
C605 C 0.53842 0.49308 0.25024 0.0
H606 H 0.492 0.47364 0.20958 0.0
C607 C 0.53795 0.47693 0.27691 0.0
H608 H 0.52155 0.50341 0.20252 0.0
C609 C 0.52089 0.45971 0.2808 0.0
C610 C 0.50398 0.45838 0.25834 0.0
H611 H 0.55058 0.47775 0.29732 0.0
H612 H 0.5208 0.44774 0.30417 0.0
C613 C 0.50472 0.47423 0.22813 0.0
C614 C 0.53886 0.06164 0.28325 0.0
C615 C 0.5405 0.04685 0.25537 0.0
H616 H 0.52059 0.07271 0.30506 0.0
C617 C 0.52497 0.03264 0.22148 0.0
H618 H 0.55058 0.07284 0.30952 0.0
C619 C 0.50787 0.03259 0.2188 0.0
C620 C 0.50582 0.04672 0.25004 0.0
H621 H 0.52578 0.02114 0.19873 0.0
H622 H 0.49604 0.02102 0.19417 0.0
C623 C 0.52167 0.06157 0.28066 0.0
C624 C 0.47459 0.9663 0.80603 0.0
C625 C 0.45842 0.95125 0.77778 0.0
H626 H 0.50395 0.97844 0.82762 0.0
C627 C 0.45943 0.93561 0.75464 0.0
H628 H 0.47427 0.97847 0.82501 0.0
C629 C 0.47659 0.93561 0.75595 0.0
C630 C 0.49302 0.95122 0.78062 0.0
H631 H 0.44721 0.92377 0.73273 0.0
H632 H 0.47713 0.92374 0.73511 0.0
C633 C 0.49165 0.96627 0.80753 0.0
C634 C 0.02865 0.524 0.82105 0.0
C635 C 0.04385 0.53987 0.79133 0.0
H636 H 0.01627 0.49481 0.84672 0.0
C637 C 0.05951 0.53859 0.76988 0.0
H638 H 0.01645 0.52455 0.83883 0.0
C639 C 0.05939 0.52141 0.77425 0.0
C640 C 0.04364 0.50523 0.8004 0.0
H641 H 0.07148 0.55058 0.74694 0.0
H642 H 0.07129 0.52062 0.7546 0.0
C643 C 0.02856 0.50691 0.82566 0.0
C644 C 0.47722 0.50799 0.81876 0.0
C645 C 0.46049 0.50628 0.7929 0.0
H646 H 0.50694 0.52568 0.83283 0.0
C647 C 0.46092 0.52245 0.76661 0.0
H648 H 0.47741 0.4959 0.83996 0.0
C649 C 0.47797 0.53966 0.76268 0.0
C650 C 0.4949 0.54098 0.78473 0.0
H651 H 0.44826 0.52165 0.74651 0.0
H652 H 0.47802 0.55166 0.7396 0.0
C653 C 0.49421 0.52511 0.8146 0.0
C654 C 0.60351 0.81049 0.61812 0.0
C655 C 0.619 0.82668 0.59081 0.0
H656 H 0.59184 0.78139 0.64597 0.0
C657 C 0.63396 0.82506 0.56396 0.0
H658 H 0.59172 0.81122 0.63902 0.0
C659 C 0.63405 0.80806 0.56817 0.0
C660 C 0.61915 0.7922 0.59906 0.0
H661 H 0.64604 0.83716 0.54194 0.0
H662 H 0.64617 0.80757 0.54917 0.0
C663 C 0.60357 0.79339 0.62208 0.0
C664 C 0.17328 0.8073 0.57833 0.0
C665 C 0.17229 0.79107 0.6063 0.0
H666 H 0.19045 0.8367 0.55616 0.0
C667 C 0.18909 0.79192 0.62739 0.0
H668 H 0.16066 0.80711 0.5608 0.0
C669 C 0.2063 0.80901 0.62473 0.0
C670 C 0.20699 0.82554 0.60087 0.0
H671 H 0.18882 0.77964 0.64893 0.0
H672 H 0.21884 0.80946 0.64438 0.0
C673 C 0.19041 0.82431 0.5756 0.0
C674 C 0.19881 0.38201 0.55927 0.0
C675 C 0.21302 0.39292 0.60444 0.0
H676 H 0.17075 0.3727 0.52595 0.0
C677 C 0.21054 0.40531 0.64508 0.0
H678 H 0.20039 0.37255 0.5265 0.0
C679 C 0.19341 0.4054 0.64477 0.0
C680 C 0.17855 0.3931 0.6038 0.0
H681 H 0.22127 0.41395 0.68025 0.0
H682 H 0.19137 0.41409 0.67972 0.0
C683 C 0.18179 0.3821 0.55895 0.0
C684 C 0.00285 0.23174 0.07551 0.0
C685 C 0.01591 0.23854 1.02403 0.0
H686 H 0.97365 0.21766 0.10337 0.0
C687 C 0.00926 0.23552 0.95949 0.0
H688 H 0.00764 0.23393 0.12561 0.0
C689 C 0.98987 0.22673 0.94671 0.0
C690 C 0.97681 0.22024 0.99824 0.0
H691 H 0.01909 0.2408 0.9189 0.0
H692 H 0.9851 0.22532 0.8967 0.0
C693 C 0.98344 0.22237 0.06268 0.0
C694 C 0.7723 0.76845 0.97967 0.0
C695 C 0.77852 0.76163 0.03133 0.0
H696 H 0.75719 0.78251 0.95139 0.0
C697 C 0.77486 0.76464 0.09578 0.0
H698 H 0.77492 0.76625 0.92963 0.0
C699 C 0.76424 0.77342 0.10827 0.0
C700 C 0.7577 0.7799 0.05655 0.0
H701 H 0.77937 0.75935 0.13649 0.0
H702 H 0.76085 0.77481 0.15821 0.0
C703 C 0.76225 0.7778 0.99222 0.0
C704 C 0.21877 0.98861 0.04751 0.0
C705 C 0.22896 0.97914 0.05751 0.0
H706 H 0.22023 0.01508 1.02541 0.0
C707 C 0.24868 0.98909 0.04946 0.0
H708 H 0.20352 0.98115 0.05277 0.0
C709 C 0.25805 0.00812 0.03078 0.0
C710 C 0.24795 0.0177 1.02192 0.0
H711 H 0.2568 0.982 0.05578 0.0
H712 H 0.27328 0.01548 1.02498 0.0
C713 C 0.22826 0.00789 0.03128 0.0
C714 C 0.98957 0.76389 0.09942 0.0
C715 C 0.98308 0.76105 0.03469 0.0
H716 H 0.01358 0.77392 0.16285 0.0
C717 C 0.99626 0.768 0.98359 0.0
H718 H 0.97965 0.75849 0.13971 0.0
C719 C 0.01564 0.77734 0.99697 0.0
C720 C 0.02211 0.7793 0.06157 0.0
H721 H 0.99159 0.76594 0.93335 0.0
H722 H 0.02553 0.78217 0.95656 0.0
C723 C 0.00893 0.77265 0.11273 0.0
C724 C 0.23391 0.22511 0.948 0.0
C725 C 0.2403 0.21841 0.99957 0.0
H726 H 0.21922 0.23964 0.92005 0.0
C727 C 0.23596 0.22071 0.06398 0.0
H728 H 0.23715 0.22358 0.898 0.0
C729 C 0.22625 0.2304 0.07673 0.0
C730 C 0.22016 0.23739 1.0252 0.0
H731 H 0.24091 0.21585 0.10472 0.0
H732 H 0.22378 0.23269 0.12682 0.0
C733 C 0.22363 0.23423 0.96069 0.0
C734 C 0.75093 0.00924 1.01818 0.0
C735 C 0.77068 0.01916 1.01121 0.0
H736 H 0.72613 0.98269 0.03923 0.0
C737 C 0.78074 0.0095 1.01979 0.0
H738 H 0.7429 0.01646 1.01294 0.0
C739 C 0.77109 0.99008 0.03351 0.0
C740 C 0.75136 0.98026 0.04168 0.0
H741 H 0.79601 0.01694 1.01533 0.0
H742 H 0.77903 0.98276 0.03829 0.0
C743 C 0.74139 0.99003 0.0343 0.0
C744 C 0.65083 0.5555 0.39221 0.0
C745 C 0.64425 0.55341 0.32772 0.0
H746 H 0.67496 0.56723 0.45541 0.0
C747 C 0.65735 0.56013 0.27632 0.0
H748 H 0.641 0.55063 0.43281 0.0
C749 C 0.67674 0.56912 0.2893 0.0
C750 C 0.68332 0.57211 0.35392 0.0
H751 H 0.65262 0.55876 0.22628 0.0
H752 H 0.6866 0.57459 0.24884 0.0
C753 C 0.67022 0.56506 0.40525 0.0
C754 C 0.43996 0.09968 0.29013 0.0
C755 C 0.44612 0.09211 0.33958 0.0
H756 H 0.42594 0.11519 0.26674 0.0
C757 C 0.44371 0.09548 0.40507 0.0
H758 H 0.44159 0.09723 0.23935 0.0
C759 C 0.43426 0.10524 0.42083 0.0
C760 C 0.42763 0.11237 0.37136 0.0
H761 H 0.44817 0.08962 0.44421 0.0
H762 H 0.4317 0.1068 0.47158 0.0
C763 C 0.43108 0.11001 0.3059 0.0
C764 C 0.88215 0.32269 0.36548 0.0
C765 C 0.89189 0.3127 0.37356 0.0
H766 H 0.88443 0.34975 0.34853 0.0
C767 C 0.91166 0.32236 0.36741 0.0
H768 H 0.86688 0.31546 0.36934 0.0
C769 C 0.92154 0.34165 0.35253 0.0
C770 C 0.91188 0.35174 0.34561 0.0
H771 H 0.91945 0.31488 0.3723 0.0
H772 H 0.9368 0.34878 0.34817 0.0
C773 C 0.89213 0.34218 0.35301 0.0
C774 C 0.67128 0.10563 0.42613 0.0
C775 C 0.68469 0.11184 0.37574 0.0
H776 H 0.64189 0.09118 0.45153 0.0
C777 C 0.67848 0.10907 0.31066 0.0
H778 H 0.67572 0.10753 0.47662 0.0
C779 C 0.65916 0.0992 0.29625 0.0
C780 C 0.64575 0.09255 0.34668 0.0
H781 H 0.68856 0.11356 0.27086 0.0
H782 H 0.65472 0.09636 0.24585 0.0
C783 C 0.65197 0.09635 0.41167 0.0
C784 C 0.89289 0.56436 0.40759 0.0
C785 C 0.88691 0.57144 0.35601 0.0
H786 H 0.90759 0.54988 0.43573 0.0
C787 C 0.89055 0.56843 0.29152 0.0
H788 H 0.89028 0.56654 0.45765 0.0
C789 C 0.90093 0.55942 0.27894 0.0
C790 C 0.90725 0.55269 0.3306 0.0
H791 H 0.88622 0.57392 0.25088 0.0
H792 H 0.90434 0.55805 0.229 0.0
C793 C 0.90269 0.55477 0.39494 0.0
C794 C 0.41851 0.34203 0.34576 0.0
C795 C 0.43825 0.3521 0.3384 0.0
H796 H 0.39385 0.31531 0.36636 0.0
C797 C 0.44842 0.34252 0.34556 0.0
H798 H 0.41039 0.34919 0.34157 0.0
C799 C 0.43891 0.32304 0.35835 0.0
C800 C 0.41919 0.31307 0.36703 0.0
H801 H 0.46368 0.35006 0.34073 0.0
H802 H 0.44694 0.3158 0.36214 0.0
C803 C 0.4091 0.32275 0.36099 0.0
C804 C 0.32319 0.91208 0.6799 0.0
C805 C 0.31328 0.89233 0.67385 0.0
H806 H 0.34973 0.9369 0.69964 0.0
C807 C 0.32295 0.8823 0.68276 0.0
H808 H 0.31595 0.92008 0.67439 0.0
C809 C 0.34239 0.89197 0.69583 0.0
C810 C 0.35218 0.9117 0.70309 0.0
H811 H 0.31552 0.86703 0.67901 0.0
H812 H 0.34973 0.88406 0.70081 0.0
C813 C 0.3424 0.92165 0.69544 0.0
C814 C 0.09644 0.43927 0.77652 0.0
C815 C 0.08988 0.44571 0.72475 0.0
H816 H 0.1116 0.42524 0.80482 0.0
C817 C 0.09446 0.44364 0.66045 0.0
H818 H 0.09302 0.44064 0.82644 0.0
C819 C 0.10455 0.43433 0.64795 0.0
C820 C 0.11077 0.42752 0.69965 0.0
H821 H 0.08939 0.44832 0.61958 0.0
H822 H 0.10718 0.43214 0.59793 0.0
C823 C 0.10709 0.43053 0.76409 0.0
C824 C 0.58051 0.65714 0.69907 0.0
C825 C 0.56075 0.64716 0.7056 0.0
H826 H 0.60533 0.68384 0.67987 0.0
C827 C 0.55069 0.65686 0.69813 0.0
H828 H 0.58854 0.64991 0.70351 0.0
C829 C 0.56035 0.67636 0.68594 0.0
C830 C 0.58009 0.68625 0.67823 0.0
H831 H 0.53542 0.64938 0.7023 0.0
H832 H 0.5524 0.68369 0.68198 0.0
C833 C 0.59007 0.67646 0.68449 0.0
C834 C 0.3474 0.44342 0.65663 0.0
C835 C 0.3545 0.44573 0.72044 0.0
H836 H 0.32276 0.43154 0.59581 0.0
C837 C 0.34182 0.43924 0.77309 0.0
H838 H 0.3569 0.44813 0.61511 0.0
C839 C 0.32234 0.43027 0.76201 0.0
C840 C 0.31524 0.42707 0.69806 0.0
H841 H 0.34696 0.44079 0.82265 0.0
H842 H 0.31281 0.42499 0.8034 0.0
C843 C 0.32792 0.43388 0.64548 0.0
C844 C 0.56604 0.89259 0.62056 0.0
C845 C 0.5732 0.88656 0.67172 0.0
H846 H 0.55099 0.90682 0.59347 0.0
C847 C 0.56962 0.88945 0.73643 0.0
H848 H 0.56869 0.8906 0.57034 0.0
C849 C 0.56005 0.89925 0.74972 0.0
C850 C 0.55331 0.9057 0.69853 0.0
H851 H 0.57519 0.88511 0.7768 0.0
H852 H 0.55832 0.90218 0.79986 0.0
C853 C 0.55587 0.90178 0.6339 0.0
C854 C 0.07507 0.65618 0.70508 0.0
C855 C 0.08467 0.64602 0.71155 0.0
H856 H 0.07725 0.68302 0.68614 0.0
C857 C 0.10442 0.65554 0.70423 0.0
H858 H 0.05981 0.64907 0.70941 0.0
C859 C 0.11446 0.67506 0.69225 0.0
C860 C 0.10478 0.68512 0.68462 0.0
H861 H 0.11209 0.64793 0.70837 0.0
H862 H 0.12973 0.68225 0.6884 0.0
C863 C 0.085 0.6755 0.69072 0.0
C864 C 0.104 0.35268 0.86424 0.0
C865 C 0.09966 0.34355 0.80331 0.0
H866 H 0.10279 0.34976 0.96832 0.0
C867 C 0.08939 0.32373 0.8022 0.0
H868 H 0.11182 0.36795 0.86715 0.0
C869 C 0.08416 0.31331 0.86045 0.0
C870 C 0.08911 0.32244 0.92137 0.0
H871 H 0.08575 0.31623 0.75637 0.0
H872 H 0.07659 0.29804 0.85754 0.0
C873 C 0.0988 0.34226 0.92248 0.0
C874 C 0.68282 0.76326 0.88293 0.0
C875 C 0.67288 0.76051 0.94173 0.0
H876 H 0.68154 0.76178 0.77886 0.0
C877 C 0.65313 0.75227 0.93983 0.0
H878 H 0.69805 0.76943 0.88275 0.0
C879 C 0.64367 0.74801 0.88008 0.0
C880 C 0.65377 0.75175 0.82109 0.0
H881 H 0.64507 0.74995 0.98421 0.0
H882 H 0.62851 0.74233 0.88012 0.0
C883 C 0.67336 0.75886 0.82329 0.0
C884 C 0.23284 0.91677 0.87071 0.0
C885 C 0.2374 0.91126 0.93002 0.0
H886 H 0.23333 0.91586 0.76654 0.0
C887 C 0.24751 0.90153 0.92874 0.0
H888 H 0.2252 0.92444 0.87008 0.0
C889 C 0.25202 0.89648 0.86936 0.0
C890 C 0.24672 0.90126 0.81007 0.0
H891 H 0.25126 0.89713 0.97358 0.0
H892 H 0.25926 0.88841 0.86999 0.0
C893 C 0.23755 0.91192 0.81134 0.0
C894 C 0.34292 0.09287 0.14996 0.0
C895 C 0.32326 0.08539 0.14903 0.0
H896 H 0.36794 0.10384 0.20782 0.0
C897 C 0.31348 0.08162 0.20874 0.0
H898 H 0.35087 0.09584 0.10499 0.0
C899 C 0.32325 0.08609 0.26791 0.0
C900 C 0.34303 0.09457 0.26858 0.0
H901 H 0.29828 0.07568 0.20981 0.0
H902 H 0.31539 0.08367 0.31285 0.0
C903 C 0.3527 0.09746 0.20903 0.0
C904 C 0.91266 0.24051 0.22974 0.0
C905 C 0.90003 0.24742 0.23159 0.0
H906 H 0.92708 0.23024 0.17068 0.0
C907 C 0.89367 0.25112 0.17242 0.0
H908 H 0.91793 0.23763 0.27434 0.0
C909 C 0.89904 0.24701 0.11282 0.0
C910 C 0.91073 0.23897 0.11123 0.0
H911 H 0.88407 0.25665 0.17211 0.0
H912 H 0.89329 0.24928 0.06826 0.0
C913 C 0.9179 0.23626 0.17025 0.0
C914 C 0.75176 0.64742 0.19171 0.0
C915 C 0.75663 0.65654 0.25266 0.0
H916 H 0.75352 0.65035 0.08763 0.0
C917 C 0.76638 0.67635 0.25381 0.0
H918 H 0.74416 0.63215 0.18877 0.0
C919 C 0.77169 0.68679 0.19558 0.0
C920 C 0.76742 0.67766 0.13464 0.0
H921 H 0.77032 0.68385 0.29966 0.0
H922 H 0.77955 0.70206 0.19853 0.0
C923 C 0.75711 0.65785 0.13349 0.0
C924 C 0.91446 0.68621 0.19651 0.0
C925 C 0.90958 0.67709 0.13556 0.0
H926 H 0.91273 0.68327 0.30059 0.0
C927 C 0.89984 0.65727 0.13442 0.0
H928 H 0.92206 0.70148 0.19946 0.0
C929 C 0.89455 0.64684 0.19265 0.0
C930 C 0.89883 0.65596 0.25359 0.0
H931 H 0.8959 0.64978 0.08856 0.0
H932 H 0.8867 0.63157 0.1897 0.0
C933 C 0.90913 0.67578 0.25474 0.0
C934 C 0.34464 0.24473 0.11252 0.0
C935 C 0.32485 0.23615 0.11164 0.0
H936 H 0.36958 0.25523 0.17086 0.0
C937 C 0.31512 0.23315 0.1711 0.0
H938 H 0.35255 0.24724 0.06766 0.0
C939 C 0.32485 0.23774 0.23027 0.0
C940 C 0.34453 0.24533 0.23139 0.0
H941 H 0.29986 0.22669 0.17216 0.0
H942 H 0.31684 0.23468 0.27516 0.0
C943 C 0.35437 0.24921 0.17179 0.0
C944 C 0.7679 0.08073 0.20849 0.0
C945 C 0.76145 0.08426 0.14923 0.0
H946 H 0.76835 0.08274 0.31261 0.0
C947 C 0.7487 0.09105 0.15094 0.0
H948 H 0.77758 0.0753 0.2089 0.0
C949 C 0.74345 0.09533 0.21035 0.0
C950 C 0.75072 0.09279 0.26942 0.0
H951 H 0.74335 0.0938 0.10629 0.0
H952 H 0.73418 0.10125 0.20979 0.0
C953 C 0.76252 0.08488 0.26801 0.0
C954 C 0.64837 0.90354 0.84082 0.0
C955 C 0.65825 0.90612 0.78197 0.0
H956 H 0.64974 0.90514 0.94487 0.0
C957 C 0.67798 0.91419 0.78373 0.0
H958 H 0.63316 0.8975 0.8411 0.0
C959 C 0.68747 0.91844 0.84341 0.0
C960 C 0.67744 0.91487 0.90246 0.0
H961 H 0.68599 0.91637 0.7393 0.0
H962 H 0.70261 0.92399 0.84328 0.0
C963 C 0.65787 0.90793 0.90039 0.0
C964 C 0.10405 0.7474 0.88729 0.0
C965 C 0.09767 0.75114 0.82825 0.0
H966 H 0.10475 0.74946 0.99143 0.0
C967 C 0.08537 0.75846 0.83036 0.0
H968 H 0.1134 0.74158 0.88739 0.0
C969 C 0.08048 0.76303 0.88993 0.0
C970 C 0.08766 0.76022 0.94877 0.0
H971 H 0.08011 0.7614 0.78587 0.0
H972 H 0.07154 0.76932 0.88966 0.0
C973 C 0.09902 0.75182 0.94698 0.0
C974 C 0.22757 0.3129 0.86221 0.0
C975 C 0.23176 0.32202 0.92316 0.0
H976 H 0.22883 0.31584 0.75814 0.0
C977 C 0.24184 0.34184 0.9243 0.0
H978 H 0.21989 0.29763 0.85926 0.0
C979 C 0.24702 0.35227 0.86607 0.0
C980 C 0.24221 0.34315 0.80513 0.0
H981 H 0.24536 0.34933 0.97016 0.0
H982 H 0.25444 0.36754 0.86901 0.0
C983 C 0.23271 0.32334 0.80399 0.0
C984 C 0.01501 0.42831 0.55057 0.0
C985 C 0.005 0.42569 0.60912 0.0
H986 H 0.01386 0.42666 0.44653 0.0
C987 C 0.98526 0.41749 0.60688 0.0
H988 H 0.03024 0.43444 0.55068 0.0
C989 C 0.97588 0.41316 0.54698 0.0
C990 C 0.98605 0.41678 0.48822 0.0
H991 H 0.97715 0.41528 0.65108 0.0
H992 H 0.96073 0.40753 0.54671 0.0
C993 C 0.00563 0.42383 0.49079 0.0
C994 C 0.58663 0.57024 0.50031 0.0
C995 C 0.57918 0.57279 0.44167 0.0
H996 H 0.58726 0.57205 0.60433 0.0
C997 C 0.56769 0.58103 0.44369 0.0
H998 H 0.59569 0.56407 0.50038 0.0
C999 C 0.56275 0.58549 0.50346 0.0
C1000 C 0.56934 0.58194 0.56234 0.0
H1001 H 0.56176 0.58321 0.3994 0.0
H1002 H 0.55326 0.59115 0.50357 0.0
C1003 C 0.58182 0.57483 0.55997 0.0
C1004 C 0.42372 0.00561 0.55976 0.0
C1005 C 0.41718 0.98612 0.56182 0.0
H1006 H 0.43373 0.03042 0.50048 0.0
C1007 C 0.41384 0.97629 0.50272 0.0
H1008 H 0.42631 0.01358 0.60426 0.0
C1009 C 0.41799 0.98593 0.443 0.0
C1010 C 0.42569 0.00561 0.44123 0.0
H1011 H 0.40859 0.96121 0.50255 0.0
H1012 H 0.41603 0.97809 0.39854 0.0
C1013 C 0.42798 0.01525 0.50016 0.0
C1014 C 0.58233 0.00899 0.57918 0.0
C1015 C 0.57196 0.98917 0.58099 0.0
H1016 H 0.59432 0.03396 0.51993 0.0
C1017 C 0.56742 0.97922 0.52175 0.0
H1018 H 0.58613 0.01708 0.62379 0.0
C1019 C 0.57213 0.98889 0.46206 0.0
C1020 C 0.5814 0.00871 0.4603 0.0
H1021 H 0.55959 0.96392 0.52136 0.0
H1022 H 0.56774 0.9808 0.41746 0.0
C1023 C 0.58696 0.01865 0.51951 0.0
C1024 C 0.01133 0.5802 0.449 0.0
C1025 C 0.99159 0.57197 0.44671 0.0
H1026 H 0.03586 0.59022 0.50924 0.0
C1027 C 0.98156 0.56935 0.50522 0.0
H1028 H 0.01945 0.58241 0.40483 0.0
C1029 C 0.99093 0.57387 0.56501 0.0
C1030 C 0.01052 0.58095 0.56765 0.0
H1031 H 0.96633 0.5632 0.50506 0.0
H1032 H 0.98269 0.57103 0.60925 0.0
C1033 C 0.0207 0.58457 0.50892 0.0
C1034 C 0.41709 0.42487 0.48245 0.0
C1035 C 0.42941 0.41758 0.48013 0.0
H1036 H 0.40335 0.43577 0.54202 0.0
C1037 C 0.43587 0.41387 0.53904 0.0
H1038 H 0.41176 0.42778 0.43806 0.0
C1039 C 0.43093 0.41834 0.59881 0.0
C1040 C 0.41958 0.42675 0.6008 0.0
H1041 H 0.44524 0.40807 0.53898 0.0
H1042 H 0.43675 0.41603 0.64313 0.0
C1043 C 0.41228 0.42947 0.54211 0.0
C1044 C 0.10976 0.33044 0.32967 0.0
C1045 C 0.09329 0.32699 0.29656 0.0
H1046 H 0.12538 0.33846 0.41882 0.0
C1047 C 0.07973 0.32964 0.3298 0.0
H1048 H 0.12038 0.32837 0.30555 0.0
C1049 C 0.08292 0.33608 0.39468 0.0
C1050 C 0.09929 0.33911 0.42788 0.0
H1051 H 0.06689 0.32704 0.30537 0.0
H1052 H 0.07249 0.33835 0.41918 0.0
C1053 C 0.11256 0.33609 0.3947 0.0
C1054 C 0.67923 0.75892 0.42877 0.0
C1055 C 0.65999 0.74973 0.44628 0.0
H1056 H 0.6996 0.76984 0.35114 0.0
C1057 C 0.64631 0.74262 0.39676 0.0
H1058 H 0.69009 0.76456 0.46589 0.0
C1059 C 0.65176 0.74604 0.33115 0.0
C1060 C 0.67099 0.75619 0.31372 0.0
H1061 H 0.63138 0.73559 0.40865 0.0
H1062 H 0.6409 0.74141 0.29412 0.0
C1063 C 0.68468 0.76191 0.36306 0.0
C1064 C 0.25582 0.90616 0.32138 0.0
C1065 C 0.246 0.91558 0.30368 0.0
H1066 H 0.26529 0.8953 0.39919 0.0
C1067 C 0.23996 0.92322 0.35297 0.0
H1068 H 0.26065 0.90014 0.28443 0.0
C1069 C 0.24224 0.92008 0.4187 0.0
C1070 C 0.25104 0.90966 0.43639 0.0
H1071 H 0.23225 0.93044 0.34089 0.0
H1072 H 0.23635 0.92507 0.45565 0.0
C1073 C 0.25853 0.90344 0.38712 0.0
C1074 C 0.35448 0.09623 0.69198 0.0
C1075 C 0.34106 0.09039 0.64167 0.0
H1076 H 0.35932 0.09877 0.7952 0.0
C1077 C 0.32174 0.08011 0.65795 0.0
H1078 H 0.36946 0.10429 0.68097 0.0
C1079 C 0.31594 0.07651 0.72327 0.0
C1080 C 0.32934 0.0836 0.77371 0.0
H1081 H 0.31108 0.07542 0.6202 0.0
H1082 H 0.30095 0.06928 0.73423 0.0
C1083 C 0.34867 0.09311 0.75738 0.0
C1084 C 0.90378 0.25323 0.72154 0.0
C1085 C 0.91303 0.24323 0.73903 0.0
H1086 H 0.89361 0.26347 0.64398 0.0
C1087 C 0.921 0.23755 0.68972 0.0
H1088 H 0.89753 0.25781 0.75855 0.0
C1089 C 0.9184 0.24044 0.62399 0.0
C1090 C 0.90821 0.24949 0.60643 0.0
H1091 H 0.92812 0.22974 0.70169 0.0
H1092 H 0.92364 0.23484 0.5869 0.0
C1093 C 0.90162 0.25655 0.6559 0.0
C1094 C 0.75072 0.67047 0.72625 0.0
C1095 C 0.76702 0.67325 0.75935 0.0
H1096 H 0.73464 0.66164 0.63701 0.0
C1097 C 0.7801 0.66995 0.72609 0.0
H1098 H 0.74044 0.67295 0.7508 0.0
C1099 C 0.77719 0.6643 0.66106 0.0
C1100 C 0.7608 0.66112 0.62803 0.0
H1101 H 0.79285 0.67212 0.75012 0.0
H1102 H 0.78767 0.66203 0.63686 0.0
C1103 C 0.74742 0.66403 0.66137 0.0
C1104 C 0.88619 0.66376 0.66207 0.0
C1105 C 0.89927 0.66045 0.62889 0.0
H1106 H 0.8786 0.6717 0.75124 0.0
C1107 C 0.91555 0.66321 0.66208 0.0
H1108 H 0.87344 0.6616 0.63798 0.0
C1109 C 0.91883 0.66966 0.72695 0.0
C1110 C 0.90545 0.67258 0.76021 0.0
H1111 H 0.92583 0.66071 0.63759 0.0
H1112 H 0.9316 0.67203 0.75139 0.0
C1113 C 0.88907 0.66942 0.7271 0.0
C1114 C 0.34619 0.25063 0.72219 0.0
C1115 C 0.32689 0.24034 0.73871 0.0
H1116 H 0.36689 0.26139 0.64566 0.0
C1117 C 0.31341 0.23446 0.6886 0.0
H1118 H 0.35689 0.25534 0.7598 0.0
C1119 C 0.31914 0.23754 0.62314 0.0
C1120 C 0.33846 0.24702 0.60657 0.0
H1121 H 0.29844 0.2264 0.6998 0.0
H1122 H 0.30845 0.23184 0.58545 0.0
C1123 C 0.35191 0.25417 0.65681 0.0
C1124 C 0.74304 0.09124 0.7568 0.0
C1125 C 0.75331 0.08225 0.77417 0.0
H1126 H 0.73325 0.10193 0.67932 0.0
C1127 C 0.76001 0.07535 0.72453 0.0
H1128 H 0.73772 0.09672 0.79401 0.0
C1129 C 0.75785 0.07874 0.65895 0.0
C1130 C 0.7485 0.08865 0.64165 0.0
H1131 H 0.76808 0.06849 0.73631 0.0
H1132 H 0.76417 0.07426 0.62183 0.0
C1133 C 0.74044 0.09419 0.69112 0.0
C1134 C 0.68487 0.92388 0.32713 0.0
C1135 C 0.67122 0.9169 0.27747 0.0
H1136 H 0.69019 0.92494 0.42981 0.0
C1137 C 0.65197 0.90777 0.29482 0.0
H1138 H 0.6998 0.93086 0.31537 0.0
C1139 C 0.64647 0.90473 0.36048 0.0
C1140 C 0.66011 0.91033 0.40995 0.0
H1141 H 0.64114 0.90223 0.2576 0.0
H1142 H 0.63153 0.89686 0.37227 0.0
C1143 C 0.67936 0.92041 0.39269 0.0
C1144 C 0.09537 0.74122 0.40408 0.0
C1145 C 0.08878 0.74833 0.4534 0.0
H1146 H 0.09962 0.74003 0.30153 0.0
C1147 C 0.07867 0.75745 0.43563 0.0
H1148 H 0.10331 0.73424 0.41618 0.0
C1149 C 0.0762 0.7604 0.36986 0.0
C1150 C 0.08423 0.75473 0.32073 0.0
H1151 H 0.07342 0.76307 0.47261 0.0
H1152 H 0.06919 0.76831 0.35775 0.0
C1153 C 0.09333 0.74461 0.3384 0.0
C1154 C 0.21877 0.32963 0.33152 0.0
C1155 C 0.23195 0.32644 0.29844 0.0
H1156 H 0.21104 0.33746 0.42062 0.0
C1157 C 0.24826 0.32933 0.33173 0.0
H1158 H 0.206 0.32738 0.30734 0.0
C1159 C 0.25147 0.33577 0.39661 0.0
C1160 C 0.23799 0.33856 0.42977 0.0
H1161 H 0.25862 0.32694 0.30731 0.0
H1162 H 0.26426 0.33824 0.42112 0.0
C1163 C 0.22159 0.33528 0.39656 0.0
C1164 C 0.98402 0.41111 0.99829 0.0
C1165 C 0.00323 0.42132 0.98062 0.0
H1166 H 0.96373 0.40052 0.07603 0.0
C1167 C 0.01698 0.42693 0.0297 0.0
H1168 H 0.97311 0.40657 0.96145 0.0
C1169 C 0.01161 0.42379 0.09547 0.0
C1170 C 0.99239 0.41458 0.11326 0.0
H1171 H 0.03189 0.43488 1.01759 0.0
H1172 H 0.02252 0.42936 0.13244 0.0
C1173 C 0.97865 0.40756 0.06393 0.0
C1174 C 0.58999 0.57159 1.02131 0.0
C1175 C 0.58178 0.57711 0.07028 0.0
H1176 H 0.5932 0.56929 0.9186 0.0
C1177 C 0.57277 0.58731 0.05251 0.0
H1178 H 0.59696 0.56365 0.03351 0.0
C1179 C 0.57101 0.59094 0.98685 0.0
C1180 C 0.5778 0.584 0.93759 0.0
H1181 H 0.56636 0.5918 0.08926 0.0
H1182 H 0.56314 0.59798 0.97465 0.0
C1183 C 0.58781 0.57479 0.95552 0.0
C1184 C 0.41307 0.98436 0.05286 0.0
C1185 C 0.42273 0.00365 0.0689 0.0
H1186 H 0.40299 0.96373 0.97684 0.0
C1187 C 0.42813 0.01712 1.01849 0.0
H1188 H 0.40871 0.97365 0.0907 0.0
C1189 C 0.42523 0.01145 0.95318 0.0
C1190 C 0.41641 0.99218 0.93706 0.0
H1191 H 0.43569 0.03208 0.0293 0.0
H1192 H 0.43055 0.02218 0.91523 0.0
C1193 C 0.40971 0.97867 0.98764 0.0
C1194 C 0.56974 0.9796 1.0056 0.0
C1195 C 0.57593 0.99306 0.95492 0.0
H1196 H 0.56645 0.97465 0.10884 0.0
C1197 C 0.58605 0.01237 0.97079 0.0
H1198 H 0.5618 0.96464 0.99495 0.0
C1199 C 0.58912 0.0181 0.03601 0.0
C1200 C 0.58166 0.00465 0.08667 0.0
H1201 H 0.591 0.02306 0.93275 0.0
H1202 H 0.59624 0.03307 0.04664 0.0
C1203 C 0.57235 0.98534 0.07082 0.0
C1204 C 0.01788 0.59016 0.99188 0.0
C1205 C 0.00413 0.58315 0.94259 0.0
H1206 H 0.02344 0.59114 0.09434 0.0
C1207 C 0.98491 0.57394 0.96043 0.0
H1208 H 0.03279 0.5972 0.97974 0.0
C1209 C 0.97955 0.5708 1.0262 0.0
C1210 C 0.99331 0.5764 0.07524 0.0
H1211 H 0.974 0.56838 0.92348 0.0
H1212 H 0.96465 0.56285 0.03835 0.0
C1213 C 0.01252 0.5866 0.05753 0.0
C1214 C 0.42774 0.40845 0.0558 0.0
C1215 C 0.42103 0.41548 0.10504 0.0
H1216 H 0.43229 0.40748 0.95338 0.0
C1217 C 0.41108 0.42475 0.0871 0.0
H1218 H 0.43556 0.40136 0.06802 0.0
C1219 C 0.40887 0.42791 1.0213 0.0
C1220 C 0.417 0.4223 0.97233 0.0
H1221 H 0.40576 0.43032 0.124 0.0
H1222 H 0.40196 0.43591 1.00908 0.0
C1223 C 0.42595 0.41204 0.99013 0.0
loop_
_geom_bond_atom_site_label_1
_geom_bond_atom_site_label_2
_geom_bond_distance
_geom_bond_site_symmetry_2
_ccdc_geom_bond_type
O0 Cd1 2.223 . S
O0 C8 1.315 . S
Cd1 O0 2.223 . S
Cd1 O4 2.297 . S
Cd1 O5 2.439 . S
Cd1 O11 2.240 1_554 S
Cd2 O3 2.240 . S
Cd2 O10 2.223 1_554 S
Cd2 O12 2.297 1_554 S
Cd2 O13 2.439 . S
O3 Cd2 2.240 . S
O3 C8 1.279 . S
O4 Cd1 2.297 . S
O4 C6 1.247 . S
O5 Cd1 2.439 . S
O5 C6 1.208 . S
C6 O4 1.247 . S
C6 O5 1.208 . S
C7 O12 1.247 1_554 S
C7 O13 1.208 . S
C8 O0 1.315 . S
C8 O3 1.279 . S
C9 O10 1.315 . S
C9 O11 1.279 . S
O10 Cd2 2.223 1_556 S
O10 C9 1.315 . S
O11 Cd1 2.240 1_556 S
O11 C9 1.279 . S
O12 Cd2 2.297 1_556 S
O12 C7 1.247 1_556 S
O13 Cd2 2.439 . S
O13 C7 1.208 . S
O14 Cd15 2.223 . S
O14 C22 1.315 . S
Cd15 O14 2.223 . S
Cd15 O18 2.297 . S
Cd15 O19 2.439 . S
Cd15 O25 2.240 1_554 S
Cd16 O17 2.240 . S
Cd16 O24 2.223 1_554 S
Cd16 O26 2.297 1_554 S
Cd16 O27 2.439 . S
O17 Cd16 2.240 . S
O17 C22 1.279 . S
O18 Cd15 2.297 . S
O18 C20 1.247 . S
O19 Cd15 2.439 . S
O19 C20 1.208 . S
C20 O18 1.247 . S
C20 O19 1.208 . S
C21 O26 1.247 1_554 S
C21 O27 1.208 . S
C22 O14 1.315 . S
C22 O17 1.279 . S
C23 O24 1.315 . S
C23 O25 1.279 . S
O24 Cd16 2.223 1_556 S
O24 C23 1.315 . S
O25 Cd15 2.240 1_556 S
O25 C23 1.279 . S
O26 Cd16 2.297 1_556 S
O26 C21 1.247 1_556 S
O27 Cd16 2.439 . S
O27 C21 1.208 . S
O28 Cd29 2.223 . S
O28 C36 1.315 . S
Cd29 O28 2.223 . S
Cd29 O32 2.297 . S
Cd29 O33 2.439 . S
Cd29 O39 2.240 1_554 S
Cd30 O31 2.240 . S
Cd30 O38 2.223 1_554 S
Cd30 O40 2.297 1_554 S
Cd30 O41 2.439 . S
O31 Cd30 2.240 . S
O31 C36 1.279 . S
O32 Cd29 2.297 . S
O32 C34 1.247 . S
O33 Cd29 2.439 . S
O33 C34 1.208 . S
C34 O32 1.247 . S
C34 O33 1.208 . S
C35 O40 1.247 1_554 S
C35 O41 1.208 . S
C36 O28 1.315 . S
C36 O31 1.279 . S
C37 O38 1.315 . S
C37 O39 1.279 . S
O38 Cd30 2.223 1_556 S
O38 C37 1.315 . S
O39 Cd29 2.240 1_556 S
O39 C37 1.279 . S
O40 Cd30 2.297 1_556 S
O40 C35 1.247 1_556 S
O41 Cd30 2.439 . S
O41 C35 1.208 . S
O42 Cd43 2.223 . S
O42 C50 1.315 . S
Cd43 O42 2.223 . S
Cd43 O46 2.297 . S
Cd43 O47 2.439 . S
Cd43 O53 2.240 1_556 S
Cd44 O45 2.240 . S
Cd44 O52 2.223 1_556 S
Cd44 O54 2.297 1_556 S
Cd44 O55 2.439 . S
O45 Cd44 2.240 . S
O45 C50 1.279 . S
O46 Cd43 2.297 . S
O46 C48 1.247 . S
O47 Cd43 2.439 . S
O47 C48 1.208 . S
C48 O46 1.247 . S
C48 O47 1.208 . S
C49 O54 1.247 1_556 S
C49 O55 1.208 . S
C50 O42 1.315 . S
C50 O45 1.279 . S
C51 O52 1.315 . S
C51 O53 1.279 . S
O52 Cd44 2.223 1_554 S
O52 C51 1.315 . S
O53 Cd43 2.240 1_554 S
O53 C51 1.279 . S
O54 Cd44 2.297 1_554 S
O54 C49 1.247 1_554 S
O55 Cd44 2.439 . S
O55 C49 1.208 . S
O56 Cd57 2.223 . S
O56 C64 1.315 . S
Cd57 O56 2.223 . S
Cd57 O60 2.297 . S
Cd57 O61 2.439 . S
Cd57 O67 2.240 1_556 S
Cd58 O59 2.240 . S
Cd58 O66 2.223 1_556 S
Cd58 O68 2.297 1_556 S
Cd58 O69 2.439 . S
O59 Cd58 2.240 . S
O59 C64 1.279 . S
O60 Cd57 2.297 . S
O60 C62 1.247 . S
O61 Cd57 2.439 . S
O61 C62 1.208 . S
C62 O60 1.247 . S
C62 O61 1.208 . S
C63 O68 1.247 1_556 S
C63 O69 1.208 . S
C64 O56 1.315 . S
C64 O59 1.279 . S
C65 O66 1.315 . S
C65 O67 1.279 . S
O66 Cd58 2.223 1_554 S
O66 C65 1.315 . S
O67 Cd57 2.240 1_554 S
O67 C65 1.279 . S
O68 Cd58 2.297 1_554 S
O68 C63 1.247 1_554 S
O69 Cd58 2.439 . S
O69 C63 1.208 . S
O70 Cd71 2.223 . S
O70 C78 1.315 . S
Cd71 O70 2.223 . S
Cd71 O74 2.297 . S
Cd71 O75 2.439 . S
Cd71 O81 2.240 1_556 S
Cd72 O73 2.240 . S
Cd72 O80 2.223 1_556 S
Cd72 O82 2.297 1_556 S
Cd72 O83 2.439 . S
O73 Cd72 2.240 . S
O73 C78 1.279 . S
O74 Cd71 2.297 . S
O74 C76 1.247 . S
O75 Cd71 2.439 . S
O75 C76 1.208 . S
C76 O74 1.247 . S
C76 O75 1.208 . S
C77 O82 1.247 1_556 S
C77 O83 1.208 . S
C78 O70 1.315 . S
C78 O73 1.279 . S
C79 O80 1.315 . S
C79 O81 1.279 . S
O80 Cd72 2.223 1_554 S
O80 C79 1.315 . S
O81 Cd71 2.240 1_554 S
O81 C79 1.279 . S
O82 Cd72 2.297 1_554 S
O82 C77 1.247 1_554 S
O83 Cd72 2.439 . S
O83 C77 1.208 . S
O84 Cd85 2.223 . S
O84 C92 1.315 . S
Cd85 O84 2.223 . S
Cd85 O88 2.297 . S
Cd85 O89 2.439 . S
Cd85 O95 2.240 1_556 S
Cd86 O87 2.240 . S
Cd86 O94 2.223 1_556 S
Cd86 O96 2.297 1_556 S
Cd86 O97 2.439 . S
O87 Cd86 2.240 . S
O87 C92 1.279 . S
O88 Cd85 2.297 . S
O88 C90 1.247 . S
O89 Cd85 2.439 . S
O89 C90 1.208 . S
C90 O88 1.247 . S
C90 O89 1.208 . S
C91 O96 1.247 1_556 S
C91 O97 1.208 . S
C92 O84 1.315 . S
C92 O87 1.279 . S
C93 O94 1.315 . S
C93 O95 1.279 . S
O94 Cd86 2.223 1_554 S
O94 C93 1.315 . S
O95 Cd85 2.240 1_554 S
O95 C93 1.279 . S
O96 Cd86 2.297 1_554 S
O96 C91 1.247 1_554 S
O97 Cd86 2.439 . S
O97 C91 1.208 . S
O98 Cd99 2.223 . S
O98 C106 1.315 . S
Cd99 O98 2.223 . S
Cd99 O102 2.297 . S
Cd99 O103 2.439 . S
Cd99 O109 2.240 1_556 S
Cd100 O101 2.240 . S
Cd100 O108 2.223 1_556 S
Cd100 O110 2.297 1_556 S
Cd100 O111 2.439 . S
O101 Cd100 2.240 . S
O101 C106 1.279 . S
O102 Cd99 2.297 . S
O102 C104 1.247 . S
O103 Cd99 2.439 . S
O103 C104 1.208 . S
C104 O102 1.247 . S
C104 O103 1.208 . S
C105 O110 1.247 1_556 S
C105 O111 1.208 . S
C106 O98 1.315 . S
C106 O101 1.279 . S
C107 O108 1.315 . S
C107 O109 1.279 . S
O108 Cd100 2.223 1_554 S
O108 C107 1.315 . S
O109 Cd99 2.240 1_554 S
O109 C107 1.279 . S
O110 Cd100 2.297 1_554 S
O110 C105 1.247 1_554 S
O111 Cd100 2.439 . S
O111 C105 1.208 . S
O112 Cd113 2.223 . S
O112 C120 1.315 . S
Cd113 O112 2.223 . S
Cd113 O116 2.297 . S
Cd113 O117 2.439 . S
Cd113 O123 2.240 1_556 S
Cd114 O115 2.240 . S
Cd114 O122 2.223 1_556 S
Cd114 O124 2.297 1_556 S
Cd114 O125 2.439 . S
O115 Cd114 2.240 . S
O115 C120 1.279 . S
O116 Cd113 2.297 . S
O116 C118 1.247 . S
O117 Cd113 2.439 . S
O117 C118 1.208 . S
C118 O116 1.247 . S
C118 O117 1.208 . S
C119 O124 1.247 1_556 S
C119 O125 1.208 . S
C120 O112 1.315 . S
C120 O115 1.279 . S
C121 O122 1.315 . S
C121 O123 1.279 . S
O122 Cd114 2.223 1_554 S
O122 C121 1.315 . S
O123 Cd113 2.240 1_554 S
O123 C121 1.279 . S
O124 Cd114 2.297 1_554 S
O124 C119 1.247 1_554 S
O125 Cd114 2.439 . S
O125 C119 1.208 . S
O126 Cd127 2.223 . S
O126 C134 1.315 . S
Cd127 O126 2.223 . S
Cd127 O130 2.297 . S
Cd127 O131 2.439 . S
Cd127 O137 2.240 1_554 S
Cd128 O129 2.240 . S
Cd128 O136 2.223 1_554 S
Cd128 O138 2.297 1_554 S
Cd128 O139 2.439 . S
O129 Cd128 2.240 . S
O129 C134 1.279 . S
O130 Cd127 2.297 . S
O130 C132 1.247 . S
O131 Cd127 2.439 . S
O131 C132 1.208 . S
C132 O130 1.247 . S
C132 O131 1.208 . S
C133 O138 1.247 1_554 S
C133 O139 1.208 . S
C134 O126 1.315 . S
C134 O129 1.279 . S
C135 O136 1.315 . S
C135 O137 1.279 . S
O136 Cd128 2.223 1_556 S
O136 C135 1.315 . S
O137 Cd127 2.240 1_556 S
O137 C135 1.279 . S
O138 Cd128 2.297 1_556 S
O138 C133 1.247 1_556 S
O139 Cd128 2.439 . S
O139 C133 1.208 . S
O140 Cd141 2.223 . S
O140 C148 1.315 . S
Cd141 O140 2.223 . S
Cd141 O144 2.297 . S
Cd141 O145 2.439 . S
Cd141 O151 2.240 1_554 S
Cd142 O143 2.240 . S
Cd142 O150 2.223 1_554 S
Cd142 O152 2.297 1_554 S
Cd142 O153 2.439 . S
O143 Cd142 2.240 . S
O143 C148 1.279 . S
O144 Cd141 2.297 . S
O144 C146 1.247 . S
O145 Cd141 2.439 . S
O145 C146 1.208 . S
C146 O144 1.247 . S
C146 O145 1.208 . S
C147 O152 1.247 1_554 S
C147 O153 1.208 . S
C148 O140 1.315 . S
C148 O143 1.279 . S
C149 O150 1.315 . S
C149 O151 1.279 . S
O150 Cd142 2.223 1_556 S
O150 C149 1.315 . S
O151 Cd141 2.240 1_556 S
O151 C149 1.279 . S
O152 Cd142 2.297 1_556 S
O152 C147 1.247 1_556 S
O153 Cd142 2.439 . S
O153 C147 1.208 . S
O154 Cd155 2.223 . S
O154 C162 1.315 . S
Cd155 O154 2.223 . S
Cd155 O158 2.297 . S
Cd155 O159 2.439 . S
Cd155 O165 2.240 1_554 S
Cd156 O157 2.240 . S
Cd156 O164 2.223 1_554 S
Cd156 O166 2.297 1_554 S
Cd156 O167 2.439 . S
O157 Cd156 2.240 . S
O157 C162 1.279 . S
O158 Cd155 2.297 . S
O158 C160 1.247 . S
O159 Cd155 2.439 . S
O159 C160 1.208 . S
C160 O158 1.247 . S
C160 O159 1.208 . S
C161 O166 1.247 1_554 S
C161 O167 1.208 . S
C162 O154 1.315 . S
C162 O157 1.279 . S
C163 O164 1.315 . S
C163 O165 1.279 . S
O164 Cd156 2.223 1_556 S
O164 C163 1.315 . S
O165 Cd155 2.240 1_556 S
O165 C163 1.279 . S
O166 Cd156 2.297 1_556 S
O166 C161 1.247 1_556 S
O167 Cd156 2.439 . S
O167 C161 1.208 . S
O168 Cd169 2.223 . S
O168 C176 1.315 . S
Cd169 O168 2.223 . S
Cd169 O172 2.297 . S
Cd169 O173 2.439 . S
Cd169 O179 2.240 . S
Cd170 O171 2.240 . S
Cd170 O178 2.223 . S
Cd170 O180 2.297 . S
Cd170 O181 2.439 . S
O171 Cd170 2.240 . S
O171 C176 1.279 . S
O172 Cd169 2.297 . S
O172 C174 1.247 . S
O173 Cd169 2.439 . S
O173 C174 1.208 . S
C174 O172 1.247 . S
C174 O173 1.208 . S
C175 O180 1.247 . S
C175 O181 1.208 . S
C176 O168 1.315 . S
C176 O171 1.279 . S
C177 O178 1.315 . S
C177 O179 1.279 . S
O178 Cd170 2.223 . S
O178 C177 1.315 . S
O179 Cd169 2.240 . S
O179 C177 1.279 . S
O180 Cd170 2.297 . S
O180 C175 1.247 . S
O181 Cd170 2.439 . S
O181 C175 1.208 . S
O182 Cd183 2.223 . S
O182 C190 1.315 . S
Cd183 O182 2.223 . S
Cd183 O186 2.297 . S
Cd183 O187 2.439 . S
Cd183 O193 2.240 . S
Cd184 O185 2.240 . S
Cd184 O192 2.223 . S
Cd184 O194 2.297 . S
Cd184 O195 2.439 . S
O185 Cd184 2.240 . S
O185 C190 1.279 . S
O186 Cd183 2.297 . S
O186 C188 1.247 . S
O187 Cd183 2.439 . S
O187 C188 1.208 . S
C188 O186 1.247 . S
C188 O187 1.208 . S
C189 O194 1.247 . S
C189 O195 1.208 . S
C190 O182 1.315 . S
C190 O185 1.279 . S
C191 O192 1.315 . S
C191 O193 1.279 . S
O192 Cd184 2.223 . S
O192 C191 1.315 . S
O193 Cd183 2.240 . S
O193 C191 1.279 . S
O194 Cd184 2.297 . S
O194 C189 1.247 . S
O195 Cd184 2.439 . S
O195 C189 1.208 . S
O196 Cd197 2.223 . S
O196 C204 1.315 . S
Cd197 O196 2.223 . S
Cd197 O200 2.297 . S
Cd197 O201 2.439 . S
Cd197 O207 2.240 . S
Cd198 O199 2.240 . S
Cd198 O206 2.223 . S
Cd198 O208 2.297 . S
Cd198 O209 2.439 . S
O199 Cd198 2.240 . S
O199 C204 1.279 . S
O200 Cd197 2.297 . S
O200 C202 1.247 . S
O201 Cd197 2.439 . S
O201 C202 1.208 . S
C202 O200 1.247 . S
C202 O201 1.208 . S
C203 O208 1.247 . S
C203 O209 1.208 . S
C204 O196 1.315 . S
C204 O199 1.279 . S
C205 O206 1.315 . S
C205 O207 1.279 . S
O206 Cd198 2.223 . S
O206 C205 1.315 . S
O207 Cd197 2.240 . S
O207 C205 1.279 . S
O208 Cd198 2.297 . S
O208 C203 1.247 . S
O209 Cd198 2.439 . S
O209 C203 1.208 . S
O210 Cd211 2.223 . S
O210 C218 1.315 . S
Cd211 O210 2.223 . S
Cd211 O214 2.298 . S
Cd211 O215 2.439 . S
Cd211 O221 2.240 . S
Cd212 O213 2.240 . S
Cd212 O220 2.223 . S
Cd212 O222 2.297 . S
Cd212 O223 2.439 . S
O213 Cd212 2.240 . S
O213 C218 1.279 . S
O214 Cd211 2.298 . S
O214 C216 1.256 . S
O215 Cd211 2.439 . S
O215 C216 1.208 . S
C216 O214 1.256 . S
C216 O215 1.208 . S
C217 O222 1.247 . S
C217 O223 1.208 . S
C218 O210 1.315 . S
C218 O213 1.279 . S
C219 O220 1.315 . S
C219 O221 1.279 . S
O220 Cd212 2.223 . S
O220 C219 1.315 . S
O221 Cd211 2.240 . S
O221 C219 1.279 . S
O222 Cd212 2.297 . S
O222 C217 1.247 . S
O223 Cd212 2.439 . S
O223 C217 1.208 . S
O224 Cd225 2.223 . S
O224 C232 1.315 . S
Cd225 O224 2.223 . S
Cd225 O228 2.297 . S
Cd225 O229 2.439 . S
Cd225 O235 2.240 . S
Cd226 O227 2.240 . S
Cd226 O234 2.223 . S
Cd226 O236 2.297 . S
Cd226 O237 2.439 . S
O227 Cd226 2.240 . S
O227 C232 1.279 . S
O228 Cd225 2.297 . S
O228 C230 1.247 . S
O229 Cd225 2.439 . S
O229 C230 1.208 . S
C230 O228 1.247 . S
C230 O229 1.208 . S
C231 O236 1.247 . S
C231 O237 1.208 . S
C232 O224 1.315 . S
C232 O227 1.279 . S
C233 O234 1.315 . S
C233 O235 1.279 . S
O234 Cd226 2.223 . S
O234 C233 1.315 . S
O235 Cd225 2.240 . S
O235 C233 1.279 . S
O236 Cd226 2.297 . S
O236 C231 1.247 . S
O237 Cd226 2.439 . S
O237 C231 1.208 . S
O238 Cd239 2.223 . S
O238 C246 1.315 . S
Cd239 O238 2.223 . S
Cd239 O242 2.307 . S
Cd239 O243 2.439 . S
Cd239 O249 2.240 . S
Cd240 O241 2.240 . S
Cd240 O248 2.223 . S
Cd240 O250 2.297 . S
Cd240 O251 2.439 . S
O241 Cd240 2.240 . S
O241 C246 1.279 . S
O242 Cd239 2.307 . S
O242 C244 1.280 . S
O243 Cd239 2.439 . S
O243 C244 1.208 . S
C244 O242 1.280 . S
C244 O243 1.208 . S
C245 O250 1.247 . S
C245 O251 1.208 . S
C246 O238 1.315 . S
C246 O241 1.279 . S
C247 O248 1.315 . S
C247 O249 1.279 . S
O248 Cd240 2.223 . S
O248 C247 1.315 . S
O249 Cd239 2.240 . S
O249 C247 1.279 . S
O250 Cd240 2.297 . S
O250 C245 1.247 . S
O251 Cd240 2.439 . S
O251 C245 1.208 . S
O252 Cd253 2.223 . S
O252 C260 1.315 . S
Cd253 O252 2.223 . S
Cd253 O256 2.298 . S
Cd253 O257 2.439 . S
Cd253 O263 2.240 . S
Cd254 O255 2.240 . S
Cd254 O262 2.223 . S
Cd254 O264 2.297 . S
Cd254 O265 2.439 . S
O255 Cd254 2.240 . S
O255 C260 1.279 . S
O256 Cd253 2.298 . S
O256 C258 1.256 . S
O257 Cd253 2.439 . S
O257 C258 1.208 . S
C258 O256 1.256 . S
C258 O257 1.208 . S
C259 O264 1.247 . S
C259 O265 1.208 . S
C260 O252 1.315 . S
C260 O255 1.279 . S
C261 O262 1.315 . S
C261 O263 1.279 . S
O262 Cd254 2.223 . S
O262 C261 1.315 . S
O263 Cd253 2.240 . S
O263 C261 1.279 . S
O264 Cd254 2.297 . S
O264 C259 1.247 . S
O265 Cd254 2.439 . S
O265 C259 1.208 . S
O266 Cd267 2.223 . S
O266 C274 1.315 . S
Cd267 O266 2.223 . S
Cd267 O270 2.307 . S
Cd267 O271 2.439 . S
Cd267 O277 2.240 . S
Cd268 O269 2.240 . S
Cd268 O276 2.223 . S
Cd268 O278 2.297 . S
Cd268 O279 2.439 . S
O269 Cd268 2.240 . S
O269 C274 1.279 . S
O270 Cd267 2.307 . S
O270 C272 1.280 . S
O271 Cd267 2.439 . S
O271 C272 1.208 . S
C272 O270 1.280 . S
C272 O271 1.208 . S
C273 O278 1.247 . S
C273 O279 1.208 . S
C274 O266 1.315 . S
C274 O269 1.279 . S
C275 O276 1.315 . S
C275 O277 1.279 . S
O276 Cd268 2.223 . S
O276 C275 1.315 . S
O277 Cd267 2.240 . S
O277 C275 1.279 . S
O278 Cd268 2.297 . S
O278 C273 1.247 . S
O279 Cd268 2.439 . S
O279 C273 1.208 . S
O280 Cd281 2.223 . S
O280 C288 1.315 . S
Cd281 O280 2.223 . S
Cd281 O284 2.297 . S
Cd281 O285 2.439 . S
Cd281 O291 2.240 . S
Cd282 O283 2.240 . S
Cd282 O290 2.223 . S
Cd282 O292 2.297 . S
Cd282 O293 2.439 . S
O283 Cd282 2.240 . S
O283 C288 1.279 . S
O284 Cd281 2.297 . S
O284 C286 1.247 . S
O285 Cd281 2.439 . S
O285 C286 1.208 . S
C286 O284 1.247 . S
C286 O285 1.208 . S
C287 O292 1.247 . S
C287 O293 1.208 . S
C288 O280 1.315 . S
C288 O283 1.279 . S
C289 O290 1.315 . S
C289 O291 1.279 . S
O290 Cd282 2.223 . S
O290 C289 1.315 . S
O291 Cd281 2.240 . S
O291 C289 1.279 . S
O292 Cd282 2.297 . S
O292 C287 1.247 . S
O293 Cd282 2.439 . S
O293 C287 1.208 . S
O294 Cd295 2.223 . S
O294 C302 1.315 . S
Cd295 O294 2.223 . S
Cd295 O298 2.297 . S
Cd295 O299 2.439 . S
Cd295 O305 2.240 . S
Cd296 O297 2.240 . S
Cd296 O304 2.223 . S
Cd296 O306 2.297 . S
Cd296 O307 2.439 . S
O297 Cd296 2.240 . S
O297 C302 1.279 . S
O298 Cd295 2.297 . S
O298 C300 1.247 . S
O299 Cd295 2.439 . S
O299 C300 1.208 . S
C300 O298 1.247 . S
C300 O299 1.208 . S
C301 O306 1.247 . S
C301 O307 1.208 . S
C302 O294 1.315 . S
C302 O297 1.279 . S
C303 O304 1.315 . S
C303 O305 1.279 . S
O304 Cd296 2.223 . S
O304 C303 1.315 . S
O305 Cd295 2.240 . S
O305 C303 1.279 . S
O306 Cd296 2.297 . S
O306 C301 1.247 . S
O307 Cd296 2.439 . S
O307 C301 1.208 . S
O308 Cd309 2.223 . S
O308 C316 1.315 . S
Cd309 O308 2.223 . S
Cd309 O312 2.297 . S
Cd309 O313 2.439 . S
Cd309 O319 2.240 . S
Cd310 O311 2.240 . S
Cd310 O318 2.223 . S
Cd310 O320 2.297 . S
Cd310 O321 2.439 . S
O311 Cd310 2.240 . S
O311 C316 1.279 . S
O312 Cd309 2.297 . S
O312 C314 1.247 . S
O313 Cd309 2.439 . S
O313 C314 1.208 . S
C314 O312 1.247 . S
C314 O313 1.208 . S
C315 O320 1.247 . S
C315 O321 1.208 . S
C316 O308 1.315 . S
C316 O311 1.279 . S
C317 O318 1.315 . S
C317 O319 1.279 . S
O318 Cd310 2.223 . S
O318 C317 1.315 . S
O319 Cd309 2.240 . S
O319 C317 1.279 . S
O320 Cd310 2.297 . S
O320 C315 1.247 . S
O321 Cd310 2.439 . S
O321 C315 1.208 . S
O322 Cd323 2.223 . S
O322 C330 1.315 . S
Cd323 O322 2.223 . S
Cd323 O326 2.297 . S
Cd323 O327 2.439 . S
Cd323 O333 2.240 . S
Cd324 O325 2.240 . S
Cd324 O332 2.223 . S
Cd324 O334 2.297 . S
Cd324 O335 2.439 . S
O325 Cd324 2.240 . S
O325 C330 1.279 . S
O326 Cd323 2.297 . S
O326 C328 1.247 . S
O327 Cd323 2.439 . S
O327 C328 1.208 . S
C328 O326 1.247 . S
C328 O327 1.208 . S
C329 O334 1.247 . S
C329 O335 1.208 . S
C330 O322 1.315 . S
C330 O325 1.279 . S
C331 O332 1.315 . S
C331 O333 1.279 . S
O332 Cd324 2.223 . S
O332 C331 1.315 . S
O333 Cd323 2.240 . S
O333 C331 1.279 . S
O334 Cd324 2.297 . S
O334 C329 1.247 . S
O335 Cd324 2.439 . S
O335 C329 1.208 . S
O336 Cd337 2.223 . S
O336 C344 1.315 . S
Cd337 O336 2.223 . S
Cd337 O340 2.298 . S
Cd337 O341 2.439 . S
Cd337 O347 2.240 . S
Cd338 O339 2.240 . S
Cd338 O346 2.223 . S
Cd338 O348 2.297 . S
Cd338 O349 2.439 . S
O339 Cd338 2.240 . S
O339 C344 1.279 . S
O340 Cd337 2.298 . S
O340 C342 1.256 . S
O341 Cd337 2.439 . S
O341 C342 1.208 . S
C342 O340 1.256 . S
C342 O341 1.208 . S
C343 O348 1.247 . S
C343 O349 1.208 . S
C344 O336 1.315 . S
C344 O339 1.279 . S
C345 O346 1.315 . S
C345 O347 1.279 . S
O346 Cd338 2.223 . S
O346 C345 1.315 . S
O347 Cd337 2.240 . S
O347 C345 1.279 . S
O348 Cd338 2.297 . S
O348 C343 1.247 . S
O349 Cd338 2.439 . S
O349 C343 1.208 . S
O350 Cd351 2.223 . S
O350 C358 1.315 . S
Cd351 O350 2.223 . S
Cd351 O354 2.307 . S
Cd351 O355 2.439 . S
Cd351 O361 2.240 . S
Cd352 O353 2.240 . S
Cd352 O360 2.223 . S
Cd352 O362 2.297 . S
Cd352 O363 2.439 . S
O353 Cd352 2.240 . S
O353 C358 1.279 . S
O354 Cd351 2.307 . S
O354 C356 1.280 . S
O355 Cd351 2.439 . S
O355 C356 1.208 . S
C356 O354 1.280 . S
C356 O355 1.208 . S
C357 O362 1.247 . S
C357 O363 1.208 . S
C358 O350 1.315 . S
C358 O353 1.279 . S
C359 O360 1.315 . S
C359 O361 1.279 . S
O360 Cd352 2.223 . S
O360 C359 1.315 . S
O361 Cd351 2.240 . S
O361 C359 1.279 . S
O362 Cd352 2.297 . S
O362 C357 1.247 . S
O363 Cd352 2.439 . S
O363 C357 1.208 . S
O364 Cd365 2.223 . S
O364 C372 1.315 . S
Cd365 O364 2.223 . S
Cd365 O368 2.297 . S
Cd365 O369 2.439 . S
Cd365 O375 2.240 . S
Cd366 O367 2.240 . S
Cd366 O374 2.223 . S
Cd366 O376 2.297 . S
Cd366 O377 2.439 . S
O367 Cd366 2.240 . S
O367 C372 1.279 . S
O368 Cd365 2.297 . S
O368 C370 1.247 . S
O369 Cd365 2.439 . S
O369 C370 1.208 . S
C370 O368 1.247 . S
C370 O369 1.208 . S
C371 O376 1.247 . S
C371 O377 1.208 . S
C372 O364 1.315 . S
C372 O367 1.279 . S
C373 O374 1.315 . S
C373 O375 1.279 . S
O374 Cd366 2.223 . S
O374 C373 1.315 . S
O375 Cd365 2.240 . S
O375 C373 1.279 . S
O376 Cd366 2.297 . S
O376 C371 1.247 . S
O377 Cd366 2.439 . S
O377 C371 1.208 . S
O378 Cd379 2.223 . S
O378 C386 1.315 . S
Cd379 O378 2.223 . S
Cd379 O382 2.297 . S
Cd379 O383 2.439 . S
Cd379 O389 2.240 . S
Cd380 O381 2.240 . S
Cd380 O388 2.223 . S
Cd380 O390 2.297 . S
Cd380 O391 2.439 . S
O381 Cd380 2.240 . S
O381 C386 1.279 . S
O382 Cd379 2.297 . S
O382 C384 1.247 . S
O383 Cd379 2.439 . S
O383 C384 1.208 . S
C384 O382 1.247 . S
C384 O383 1.208 . S
C385 O390 1.247 . S
C385 O391 1.208 . S
C386 O378 1.315 . S
C386 O381 1.279 . S
C387 O388 1.315 . S
C387 O389 1.279 . S
O388 Cd380 2.223 . S
O388 C387 1.315 . S
O389 Cd379 2.240 . S
O389 C387 1.279 . S
O390 Cd380 2.297 . S
O390 C385 1.247 . S
O391 Cd380 2.439 . S
O391 C385 1.208 . S
O392 Cd393 2.223 . S
O392 C400 1.315 . S
Cd393 O392 2.223 . S
Cd393 O396 2.297 . S
Cd393 O397 2.439 . S
Cd393 O403 2.240 . S
Cd394 O395 2.240 . S
Cd394 O402 2.223 . S
Cd394 O404 2.297 . S
Cd394 O405 2.439 . S
O395 Cd394 2.240 . S
O395 C400 1.279 . S
O396 Cd393 2.297 . S
O396 C398 1.247 . S
O397 Cd393 2.439 . S
O397 C398 1.208 . S
C398 O396 1.247 . S
C398 O397 1.208 . S
C399 O404 1.247 . S
C399 O405 1.208 . S
C400 O392 1.315 . S
C400 O395 1.279 . S
C401 O402 1.315 . S
C401 O403 1.279 . S
O402 Cd394 2.223 . S
O402 C401 1.315 . S
O403 Cd393 2.240 . S
O403 C401 1.279 . S
O404 Cd394 2.297 . S
O404 C399 1.247 . S
O405 Cd394 2.439 . S
O405 C399 1.208 . S
O406 Cd407 2.223 . S
O406 C414 1.315 . S
Cd407 O406 2.223 . S
Cd407 O410 2.297 . S
Cd407 O411 2.439 . S
Cd407 O417 2.240 . S
Cd408 O409 2.240 . S
Cd408 O416 2.223 . S
Cd408 O418 2.297 . S
Cd408 O419 2.439 . S
O409 Cd408 2.240 . S
O409 C414 1.279 . S
O410 Cd407 2.297 . S
O410 C412 1.247 . S
O411 Cd407 2.439 . S
O411 C412 1.208 . S
C412 O410 1.247 . S
C412 O411 1.208 . S
C413 O418 1.247 . S
C413 O419 1.208 . S
C414 O406 1.315 . S
C414 O409 1.279 . S
C415 O416 1.315 . S
C415 O417 1.279 . S
O416 Cd408 2.223 . S
O416 C415 1.315 . S
O417 Cd407 2.240 . S
O417 C415 1.279 . S
O418 Cd408 2.297 . S
O418 C413 1.247 . S
O419 Cd408 2.439 . S
O419 C413 1.208 . S
O420 Cd421 2.223 . S
O420 C428 1.315 . S
Cd421 O420 2.223 . S
Cd421 O424 2.297 . S
Cd421 O425 2.439 . S
Cd421 O431 2.240 . S
Cd422 O423 2.240 . S
Cd422 O430 2.223 . S
Cd422 O432 2.297 . S
Cd422 O433 2.439 . S
O423 Cd422 2.240 . S
O423 C428 1.279 . S
O424 Cd421 2.297 . S
O424 C426 1.247 . S
O425 Cd421 2.439 . S
O425 C426 1.208 . S
C426 O424 1.247 . S
C426 O425 1.208 . S
C427 O432 1.247 . S
C427 O433 1.208 . S
C428 O420 1.315 . S
C428 O423 1.279 . S
C429 O430 1.315 . S
C429 O431 1.279 . S
O430 Cd422 2.223 . S
O430 C429 1.315 . S
O431 Cd421 2.240 . S
O431 C429 1.279 . S
O432 Cd422 2.297 . S
O432 C427 1.247 . S
O433 Cd422 2.439 . S
O433 C427 1.208 . S
O434 Cd435 2.223 . S
O434 C442 1.315 . S
Cd435 O434 2.223 . S
Cd435 O438 2.297 . S
Cd435 O439 2.439 . S
Cd435 O445 2.240 . S
Cd436 O437 2.240 . S
Cd436 O444 2.223 . S
Cd436 O446 2.297 . S
Cd436 O447 2.439 . S
O437 Cd436 2.240 . S
O437 C442 1.279 . S
O438 Cd435 2.297 . S
O438 C440 1.247 . S
O439 Cd435 2.439 . S
O439 C440 1.208 . S
C440 O438 1.247 . S
C440 O439 1.208 . S
C441 O446 1.247 . S
C441 O447 1.208 . S
C442 O434 1.315 . S
C442 O437 1.279 . S
C443 O444 1.315 . S
C443 O445 1.279 . S
O444 Cd436 2.223 . S
O444 C443 1.315 . S
O445 Cd435 2.240 . S
O445 C443 1.279 . S
O446 Cd436 2.297 . S
O446 C441 1.247 . S
O447 Cd436 2.439 . S
O447 C441 1.208 . S
O448 Cd449 2.223 . S
O448 C456 1.315 . S
Cd449 O448 2.223 . S
Cd449 O452 2.297 . S
Cd449 O453 2.439 . S
Cd449 O459 2.240 . S
Cd450 O451 2.240 . S
Cd450 O458 2.223 . S
Cd450 O460 2.297 . S
Cd450 O461 2.439 . S
O451 Cd450 2.240 . S
O451 C456 1.279 . S
O452 Cd449 2.297 . S
O452 C454 1.247 . S
O453 Cd449 2.439 . S
O453 C454 1.208 . S
C454 O452 1.247 . S
C454 O453 1.208 . S
C455 O460 1.247 . S
C455 O461 1.208 . S
C456 O448 1.315 . S
C456 O451 1.279 . S
C457 O458 1.315 . S
C457 O459 1.279 . S
O458 Cd450 2.223 . S
O458 C457 1.315 . S
O459 Cd449 2.240 . S
O459 C457 1.279 . S
O460 Cd450 2.297 . S
O460 C455 1.247 . S
O461 Cd450 2.439 . S
O461 C455 1.208 . S
O462 Cd463 2.223 . S
O462 C470 1.315 . S
Cd463 O462 2.223 . S
Cd463 O466 2.298 . S
Cd463 O467 2.439 . S
Cd463 O473 2.240 . S
Cd464 O465 2.240 . S
Cd464 O472 2.223 . S
Cd464 O474 2.297 . S
Cd464 O475 2.439 . S
O465 Cd464 2.240 . S
O465 C470 1.279 . S
O466 Cd463 2.298 . S
O466 C468 1.256 . S
O467 Cd463 2.439 . S
O467 C468 1.208 . S
C468 O466 1.256 . S
C468 O467 1.208 . S
C469 O474 1.247 . S
C469 O475 1.208 . S
C470 O462 1.315 . S
C470 O465 1.279 . S
C471 O472 1.315 . S
C471 O473 1.279 . S
O472 Cd464 2.223 . S
O472 C471 1.315 . S
O473 Cd463 2.240 . S
O473 C471 1.279 . S
O474 Cd464 2.297 . S
O474 C469 1.247 . S
O475 Cd464 2.439 . S
O475 C469 1.208 . S
O476 Cd477 2.223 . S
O476 C484 1.315 . S
Cd477 O476 2.223 . S
Cd477 O480 2.297 . S
Cd477 O481 2.439 . S
Cd477 O487 2.240 . S
Cd478 O479 2.240 . S
Cd478 O486 2.223 . S
Cd478 O488 2.297 . S
Cd478 O489 2.439 . S
O479 Cd478 2.240 . S
O479 C484 1.279 . S
O480 Cd477 2.297 . S
O480 C482 1.247 . S
O481 Cd477 2.439 . S
O481 C482 1.208 . S
C482 O480 1.247 . S
C482 O481 1.208 . S
C483 O488 1.247 . S
C483 O489 1.208 . S
C484 O476 1.315 . S
C484 O479 1.279 . S
C485 O486 1.315 . S
C485 O487 1.279 . S
O486 Cd478 2.223 . S
O486 C485 1.315 . S
O487 Cd477 2.240 . S
O487 C485 1.279 . S
O488 Cd478 2.297 . S
O488 C483 1.247 . S
O489 Cd478 2.439 . S
O489 C483 1.208 . S
O490 Cd491 2.223 . S
O490 C498 1.315 . S
Cd491 O490 2.223 . S
Cd491 O494 2.307 . S
Cd491 O495 2.439 . S
Cd491 O501 2.240 . S
Cd492 O493 2.240 . S
Cd492 O500 2.223 . S
Cd492 O502 2.297 . S
Cd492 O503 2.439 . S
O493 Cd492 2.240 . S
O493 C498 1.279 . S
O494 Cd491 2.307 . S
O494 C496 1.280 . S
O495 Cd491 2.439 . S
O495 C496 1.208 . S
C496 O494 1.280 . S
C496 O495 1.208 . S
C497 O502 1.247 . S
C497 O503 1.208 . S
C498 O490 1.315 . S
C498 O493 1.279 . S
C499 O500 1.315 . S
C499 O501 1.279 . S
O500 Cd492 2.223 . S
O500 C499 1.315 . S
O501 Cd491 2.240 . S
O501 C499 1.279 . S
O502 Cd492 2.297 . S
O502 C497 1.247 . S
O503 Cd492 2.439 . S
O503 C497 1.208 . S
C504 C505 1.387 . S
C504 H508 0.950 . S
C504 C513 1.390 . S
C505 C504 1.387 . S
C505 C507 1.387 . S
H506 C513 0.950 . S
C507 C505 1.387 . S
C507 C509 1.390 . S
C507 H511 0.950 . S
H508 C504 0.950 . S
C509 C507 1.390 . S
C509 C510 1.387 . S
C509 H512 0.950 . S
C510 C509 1.387 . S
C510 C513 1.387 . S
H511 C507 0.950 . S
H512 C509 0.950 . S
C513 C504 1.390 . S
C513 H506 0.950 . S
C513 C510 1.387 . S
C514 C515 1.387 1_556 S
C514 H518 0.950 . S
C514 C523 1.390 . S
C515 C514 1.387 1_554 S
C515 C517 1.387 . S
H516 C523 0.950 . S
C517 C515 1.387 . S
C517 C519 1.390 . S
C517 H521 0.950 . S
H518 C514 0.950 . S
C519 C517 1.390 . S
C519 C520 1.387 . S
C519 H522 0.950 . S
C520 C519 1.387 . S
C520 C523 1.387 1_554 S
H521 C517 0.950 . S
H522 C519 0.950 . S
C523 C514 1.390 . S
C523 H516 0.950 . S
C523 C520 1.387 1_556 S
C524 C525 1.387 . S
C524 H528 0.950 . S
C524 C533 1.390 . S
C525 C524 1.387 . S
C525 C527 1.387 1_554 S
H526 C533 0.950 . S
C527 C525 1.387 1_556 S
C527 C529 1.390 . S
C527 H531 0.950 . S
H528 C524 0.950 . S
C529 C527 1.390 . S
C529 C530 1.387 1_556 S
C529 H532 0.950 . S
C530 C529 1.387 1_554 S
C530 C533 1.387 . S
H531 C527 0.950 . S
H532 C529 0.950 . S
C533 C524 1.390 . S
C533 H526 0.950 . S
C533 C530 1.387 . S
C534 C535 1.387 1_554 S
C534 H538 0.950 . S
C534 C543 1.390 . S
C535 C534 1.387 1_556 S
C535 C537 1.387 . S
H536 C543 0.950 . S
C537 C535 1.387 . S
C537 C539 1.390 . S
C537 H541 0.950 . S
H538 C534 0.950 . S
C539 C537 1.390 . S
C539 C540 1.387 . S
C539 H542 0.950 . S
C540 C539 1.387 . S
C540 C543 1.387 1_556 S
H541 C537 0.950 . S
H542 C539 0.950 . S
C543 C534 1.390 . S
C543 H536 0.950 . S
C543 C540 1.387 1_554 S
C544 C545 1.387 . S
C544 H548 0.950 . S
C544 C553 1.390 . S
C545 C544 1.387 . S
C545 C547 1.387 1_556 S
H546 C553 0.950 . S
C547 C545 1.387 1_554 S
C547 C549 1.390 . S
C547 H551 0.950 . S
H548 C544 0.950 . S
C549 C547 1.390 . S
C549 C550 1.387 1_554 S
C549 H552 0.950 . S
C550 C549 1.387 1_556 S
C550 C553 1.387 . S
H551 C547 0.950 . S
H552 C549 0.950 . S
C553 C544 1.390 . S
C553 H546 0.950 . S
C553 C550 1.387 . S
C554 C555 1.387 . S
C554 H558 0.950 1_556 S
C554 C563 1.390 . S
C555 C554 1.387 . S
C555 C557 1.387 . S
H556 C563 0.950 1_554 S
C557 C555 1.387 . S
C557 C559 1.390 . S
C557 H561 0.950 . S
H558 C554 0.950 1_554 S
C559 C557 1.390 . S
C559 C560 1.387 . S
C559 H562 0.950 . S
C560 C559 1.387 . S
C560 C563 1.387 . S
H561 C557 0.950 . S
H562 C559 0.950 . S
C563 C554 1.390 . S
C563 H556 0.950 1_556 S
C563 C560 1.387 . S
C564 C565 1.387 . S
C564 H568 0.950 . S
C564 C573 1.390 . S
C565 C564 1.387 . S
C565 C567 1.387 . S
H566 C573 0.950 . S
C567 C565 1.387 . S
C567 C569 1.390 . S
C567 H571 0.950 . S
H568 C564 0.950 . S
C569 C567 1.390 . S
C569 C570 1.387 . S
C569 H572 0.950 . S
C570 C569 1.387 . S
C570 C573 1.387 . S
H571 C567 0.950 . S
H572 C569 0.950 . S
C573 C564 1.390 . S
C573 H566 0.950 . S
C573 C570 1.387 . S
C574 C575 1.387 . S
C574 H578 0.950 . S
C574 C583 1.390 . S
C575 C574 1.387 . S
C575 C577 1.387 . S
H576 C583 0.950 . S
C577 C575 1.387 . S
C577 C579 1.390 . S
C577 H581 0.950 . S
H578 C574 0.950 . S
C579 C577 1.390 . S
C579 C580 1.387 . S
C579 H582 0.950 . S
C580 C579 1.387 . S
C580 C583 1.387 . S
H581 C577 0.950 . S
H582 C579 0.950 . S
C583 C574 1.390 . S
C583 H576 0.950 . S
C583 C580 1.387 . S
C584 C585 1.387 . S
C584 H588 0.950 . S
C584 C593 1.390 . S
C585 C584 1.387 . S
C585 C587 1.387 . S
H586 C593 0.950 . S
C587 C585 1.387 . S
C587 C589 1.390 . S
C587 H591 0.950 . S
H588 C584 0.950 . S
C589 C587 1.390 . S
C589 C590 1.387 . S
C589 H592 0.950 . S
C590 C589 1.387 . S
C590 C593 1.387 . S
H591 C587 0.950 . S
H592 C589 0.950 . S
C593 C584 1.390 . S
C593 H586 0.950 . S
C593 C590 1.387 . S
C594 C595 1.387 . S
C594 H598 0.950 . S
C594 C603 1.390 . S
C595 C594 1.387 . S
C595 C597 1.387 . S
H596 C603 0.950 . S
C597 C595 1.387 . S
C597 C599 1.390 . S
C597 H601 0.950 . S
H598 C594 0.950 . S
C599 C597 1.390 . S
C599 C600 1.387 . S
C599 H602 0.950 . S
C600 C599 1.387 . S
C600 C603 1.387 . S
H601 C597 0.950 . S
H602 C599 0.950 . S
C603 C594 1.390 . S
C603 H596 0.950 . S
C603 C600 1.387 . S
C604 C605 1.387 . S
C604 H608 0.950 . S
C604 C613 1.390 . S
C605 C604 1.387 . S
C605 C607 1.387 . S
H606 C613 0.950 . S
C607 C605 1.387 . S
C607 C609 1.390 . S
C607 H611 0.950 . S
H608 C604 0.950 . S
C609 C607 1.390 . S
C609 C610 1.387 . S
C609 H612 0.950 . S
C610 C609 1.387 . S
C610 C613 1.387 . S
H611 C607 0.950 . S
H612 C609 0.950 . S
C613 C604 1.390 . S
C613 H606 0.950 . S
C613 C610 1.387 . S
C614 C615 1.387 . S
C614 H618 0.950 . S
C614 C623 1.390 . S
C615 C614 1.387 . S
C615 C617 1.387 . S
H616 C623 0.950 . S
C617 C615 1.387 . S
C617 C619 1.390 . S
C617 H621 0.950 . S
H618 C614 0.950 . S
C619 C617 1.390 . S
C619 C620 1.387 . S
C619 H622 0.950 . S
C620 C619 1.387 . S
C620 C623 1.387 . S
H621 C617 0.950 . S
H622 C619 0.950 . S
C623 C614 1.390 . S
C623 H616 0.950 . S
C623 C620 1.387 . S
C624 C625 1.387 . S
C624 H628 0.950 . S
C624 C633 1.390 . S
C625 C624 1.387 . S
C625 C627 1.387 . S
H626 C633 0.950 . S
C627 C625 1.387 . S
C627 C629 1.390 . S
C627 H631 0.950 . S
H628 C624 0.950 . S
C629 C627 1.390 . S
C629 C630 1.387 . S
C629 H632 0.950 . S
C630 C629 1.387 . S
C630 C633 1.387 . S
H631 C627 0.950 . S
H632 C629 0.950 . S
C633 C624 1.390 . S
C633 H626 0.950 . S
C633 C630 1.387 . S
C634 C635 1.387 . S
C634 H638 0.950 . S
C634 C643 1.390 . S
C635 C634 1.387 . S
C635 C637 1.387 . S
H636 C643 0.950 . S
C637 C635 1.387 . S
C637 C639 1.390 . S
C637 H641 0.950 . S
H638 C634 0.950 . S
C639 C637 1.390 . S
C639 C640 1.387 . S
C639 H642 0.950 . S
C640 C639 1.387 . S
C640 C643 1.387 . S
H641 C637 0.950 . S
H642 C639 0.950 . S
C643 C634 1.390 . S
C643 H636 0.950 . S
C643 C640 1.387 . S
C644 C645 1.387 . S
C644 H648 0.950 . S
C644 C653 1.390 . S
C645 C644 1.387 . S
C645 C647 1.387 . S
H646 C653 0.950 . S
C647 C645 1.387 . S
C647 C649 1.390 . S
C647 H651 0.950 . S
H648 C644 0.950 . S
C649 C647 1.390 . S
C649 C650 1.387 . S
C649 H652 0.950 . S
C650 C649 1.387 . S
C650 C653 1.387 . S
H651 C647 0.950 . S
H652 C649 0.950 . S
C653 C644 1.390 . S
C653 H646 0.950 . S
C653 C650 1.387 . S
C654 C655 1.387 . S
C654 H658 0.950 . S
C654 C663 1.390 . S
C655 C654 1.387 . S
C655 C657 1.387 . S
H656 C663 0.950 . S
C657 C655 1.387 . S
C657 C659 1.390 . S
C657 H661 0.950 . S
H658 C654 0.950 . S
C659 C657 1.390 . S
C659 C660 1.387 . S
C659 H662 0.950 . S
C660 C659 1.387 . S
C660 C663 1.387 . S
H661 C657 0.950 . S
H662 C659 0.950 . S
C663 C654 1.390 . S
C663 H656 0.950 . S
C663 C660 1.387 . S
C664 C665 1.387 . S
C664 H668 0.950 . S
C664 C673 1.390 . S
C665 C664 1.387 . S
C665 C667 1.387 . S
H666 C673 0.950 . S
C667 C665 1.387 . S
C667 C669 1.390 . S
C667 H671 0.950 . S
H668 C664 0.950 . S
C669 C667 1.390 . S
C669 C670 1.387 . S
C669 H672 0.950 . S
C670 C669 1.387 . S
C670 C673 1.387 . S
H671 C667 0.950 . S
H672 C669 0.950 . S
C673 C664 1.390 . S
C673 H666 0.950 . S
C673 C670 1.387 . S
C674 C675 1.387 . S
C674 H678 0.950 . S
C674 C683 1.390 . S
C675 C674 1.387 . S
C675 C677 1.387 . S
H676 C683 0.950 . S
C677 C675 1.387 . S
C677 C679 1.390 . S
C677 H681 0.950 . S
H678 C674 0.950 . S
C679 C677 1.390 . S
C679 C680 1.387 . S
C679 H682 0.950 . S
C680 C679 1.387 . S
C680 C683 1.387 . S
H681 C677 0.950 . S
H682 C679 0.950 . S
C683 C674 1.390 . S
C683 H676 0.950 . S
C683 C680 1.387 . S
C684 C685 1.387 . S
C684 H688 0.950 . S
C684 C693 1.390 1_455 S
C685 C684 1.387 . S
C685 C687 1.387 1_554 S
H686 C693 0.950 . S
C687 C685 1.387 1_556 S
C687 C689 1.390 1_455 S
C687 H691 0.950 . S
H688 C684 0.950 . S
C689 C687 1.390 1_655 S
C689 C690 1.387 . S
C689 H692 0.950 . S
C690 C689 1.387 . S
C690 C693 1.387 1_556 S
H691 C687 0.950 . S
H692 C689 0.950 . S
C693 C684 1.390 1_655 S
C693 H686 0.950 . S
C693 C690 1.387 1_554 S
C694 C695 1.387 . S
C694 H698 0.950 . S
C694 C703 1.390 . S
C695 C694 1.387 . S
C695 C697 1.387 1_556 S
H696 C703 0.950 . S
C697 C695 1.387 1_554 S
C697 C699 1.390 . S
C697 H701 0.950 . S
H698 C694 0.950 . S
C699 C697 1.390 . S
C699 C700 1.387 . S
C699 H702 0.950 . S
C700 C699 1.387 . S
C700 C703 1.387 1_554 S
H701 C697 0.950 . S
H702 C699 0.950 . S
C703 C694 1.390 . S
C703 H696 0.950 . S
C703 C700 1.387 1_556 S
C704 C705 1.387 . S
C704 H708 0.950 . S
C704 C713 1.390 1_564 S
C705 C704 1.387 . S
C705 C707 1.387 . S
H706 C713 0.950 . S
C707 C705 1.387 . S
C707 C709 1.390 1_564 S
C707 H711 0.950 . S
H708 C704 0.950 . S
C709 C707 1.390 1_546 S
C709 C710 1.387 . S
C709 H712 0.950 . S
C710 C709 1.387 . S
C710 C713 1.387 . S
H711 C707 0.950 . S
H712 C709 0.950 . S
C713 C704 1.390 1_546 S
C713 H706 0.950 . S
C713 C710 1.387 . S
C714 C715 1.387 1_554 S
C714 H718 0.950 . S
C714 C723 1.390 1_655 S
C715 C714 1.387 1_556 S
C715 C717 1.387 . S
H716 C723 0.950 . S
C717 C715 1.387 . S
C717 C719 1.390 1_655 S
C717 H721 0.950 . S
H718 C714 0.950 . S
C719 C717 1.390 1_455 S
C719 C720 1.387 1_556 S
C719 H722 0.950 . S
C720 C719 1.387 1_554 S
C720 C723 1.387 . S
H721 C717 0.950 . S
H722 C719 0.950 . S
C723 C714 1.390 1_455 S
C723 H716 0.950 . S
C723 C720 1.387 . S
C724 C725 1.387 . S
C724 H728 0.950 . S
C724 C733 1.390 . S
C725 C724 1.387 . S
C725 C727 1.387 1_556 S
H726 C733 0.950 . S
C727 C725 1.387 1_554 S
C727 C729 1.390 . S
C727 H731 0.950 . S
H728 C724 0.950 . S
C729 C727 1.390 . S
C729 C730 1.387 . S
C729 H732 0.950 . S
C730 C729 1.387 . S
C730 C733 1.387 1_554 S
H731 C727 0.950 . S
H732 C729 0.950 . S
C733 C724 1.390 . S
C733 H726 0.950 . S
C733 C730 1.387 1_556 S
C734 C735 1.387 . S
C734 H738 0.950 . S
C734 C743 1.390 1_546 S
C735 C734 1.387 . S
C735 C737 1.387 . S
H736 C743 0.950 . S
C737 C735 1.387 . S
C737 C739 1.390 1_546 S
C737 H741 0.950 . S
H738 C734 0.950 . S
C739 C737 1.390 1_564 S
C739 C740 1.387 . S
C739 H742 0.950 . S
C740 C739 1.387 . S
C740 C743 1.387 . S
H741 C737 0.950 . S
H742 C739 0.950 . S
C743 C734 1.390 1_564 S
C743 H736 0.950 . S
C743 C740 1.387 . S
C744 C745 1.387 . S
C744 H748 0.950 . S
C744 C753 1.390 . S
C745 C744 1.387 . S
C745 C747 1.387 . S
H746 C753 0.950 . S
C747 C745 1.387 . S
C747 C749 1.390 . S
C747 H751 0.950 . S
H748 C744 0.950 . S
C749 C747 1.390 . S
C749 C750 1.387 . S
C749 H752 0.950 . S
C750 C749 1.387 . S
C750 C753 1.387 . S
H751 C747 0.950 . S
H752 C749 0.950 . S
C753 C744 1.390 . S
C753 H746 0.950 . S
C753 C750 1.387 . S
C754 C755 1.387 . S
C754 H758 0.950 . S
C754 C763 1.390 . S
C755 C754 1.387 . S
C755 C757 1.387 . S
H756 C763 0.950 . S
C757 C755 1.387 . S
C757 C759 1.390 . S
C757 H761 0.950 . S
H758 C754 0.950 . S
C759 C757 1.390 . S
C759 C760 1.387 . S
C759 H762 0.950 . S
C760 C759 1.387 . S
C760 C763 1.387 . S
H761 C757 0.950 . S
H762 C759 0.950 . S
C763 C754 1.390 . S
C763 H756 0.950 . S
C763 C760 1.387 . S
C764 C765 1.387 . S
C764 H768 0.950 . S
C764 C773 1.390 . S
C765 C764 1.387 . S
C765 C767 1.387 . S
H766 C773 0.950 . S
C767 C765 1.387 . S
C767 C769 1.390 . S
C767 H771 0.950 . S
H768 C764 0.950 . S
C769 C767 1.390 . S
C769 C770 1.387 . S
C769 H772 0.950 . S
C770 C769 1.387 . S
C770 C773 1.387 . S
H771 C767 0.950 . S
H772 C769 0.950 . S
C773 C764 1.390 . S
C773 H766 0.950 . S
C773 C770 1.387 . S
C774 C775 1.387 . S
C774 H778 0.950 . S
C774 C783 1.390 . S
C775 C774 1.387 . S
C775 C777 1.387 . S
H776 C783 0.950 . S
C777 C775 1.387 . S
C777 C779 1.390 . S
C777 H781 0.950 . S
H778 C774 0.950 . S
C779 C777 1.390 . S
C779 C780 1.387 . S
C779 H782 0.950 . S
C780 C779 1.387 . S
C780 C783 1.387 . S
H781 C777 0.950 . S
H782 C779 0.950 . S
C783 C774 1.390 . S
C783 H776 0.950 . S
C783 C780 1.387 . S
C784 C785 1.387 . S
C784 H788 0.950 . S
C784 C793 1.390 . S
C785 C784 1.387 . S
C785 C787 1.387 . S
H786 C793 0.950 . S
C787 C785 1.387 . S
C787 C789 1.390 . S
C787 H791 0.950 . S
H788 C784 0.950 . S
C789 C787 1.390 . S
C789 C790 1.387 . S
C789 H792 0.950 . S
C790 C789 1.387 . S
C790 C793 1.387 . S
H791 C787 0.950 . S
H792 C789 0.950 . S
C793 C784 1.390 . S
C793 H786 0.950 . S
C793 C790 1.387 . S
C794 C795 1.387 . S
C794 H798 0.950 . S
C794 C803 1.390 . S
C795 C794 1.387 . S
C795 C797 1.387 . S
H796 C803 0.950 . S
C797 C795 1.387 . S
C797 C799 1.390 . S
C797 H801 0.950 . S
H798 C794 0.950 . S
C799 C797 1.390 . S
C799 C800 1.387 . S
C799 H802 0.950 . S
C800 C799 1.387 . S
C800 C803 1.387 . S
H801 C797 0.950 . S
H802 C799 0.950 . S
C803 C794 1.390 . S
C803 H796 0.950 . S
C803 C800 1.387 . S
C804 C805 1.387 . S
C804 H808 0.950 . S
C804 C813 1.390 . S
C805 C804 1.387 . S
C805 C807 1.387 . S
H806 C813 0.950 . S
C807 C805 1.387 . S
C807 C809 1.390 . S
C807 H811 0.950 . S
H808 C804 0.950 . S
C809 C807 1.390 . S
C809 C810 1.387 . S
C809 H812 0.950 . S
C810 C809 1.387 . S
C810 C813 1.387 . S
H811 C807 0.950 . S
H812 C809 0.950 . S
C813 C804 1.390 . S
C813 H806 0.950 . S
C813 C810 1.387 . S
C814 C815 1.387 . S
C814 H818 0.950 . S
C814 C823 1.390 . S
C815 C814 1.387 . S
C815 C817 1.387 . S
H816 C823 0.950 . S
C817 C815 1.387 . S
C817 C819 1.390 . S
C817 H821 0.950 . S
H818 C814 0.950 . S
C819 C817 1.390 . S
C819 C820 1.387 . S
C819 H822 0.950 . S
C820 C819 1.387 . S
C820 C823 1.387 . S
H821 C817 0.950 . S
H822 C819 0.950 . S
C823 C814 1.390 . S
C823 H816 0.950 . S
C823 C820 1.387 . S
C824 C825 1.387 . S
C824 H828 0.950 . S
C824 C833 1.390 . S
C825 C824 1.387 . S
C825 C827 1.387 . S
H826 C833 0.950 . S
C827 C825 1.387 . S
C827 C829 1.390 . S
C827 H831 0.950 . S
H828 C824 0.950 . S
C829 C827 1.390 . S
C829 C830 1.387 . S
C829 H832 0.950 . S
C830 C829 1.387 . S
C830 C833 1.387 . S
H831 C827 0.950 . S
H832 C829 0.950 . S
C833 C824 1.390 . S
C833 H826 0.950 . S
C833 C830 1.387 . S
C834 C835 1.387 . S
C834 H838 0.950 . S
C834 C843 1.390 . S
C835 C834 1.387 . S
C835 C837 1.387 . S
H836 C843 0.950 . S
C837 C835 1.387 . S
C837 C839 1.390 . S
C837 H841 0.950 . S
H838 C834 0.950 . S
C839 C837 1.390 . S
C839 C840 1.387 . S
C839 H842 0.950 . S
C840 C839 1.387 . S
C840 C843 1.387 . S
H841 C837 0.950 . S
H842 C839 0.950 . S
C843 C834 1.390 . S
C843 H836 0.950 . S
C843 C840 1.387 . S
C844 C845 1.387 . S
C844 H848 0.950 . S
C844 C853 1.390 . S
C845 C844 1.387 . S
C845 C847 1.387 . S
H846 C853 0.950 . S
C847 C845 1.387 . S
C847 C849 1.390 . S
C847 H851 0.950 . S
H848 C844 0.950 . S
C849 C847 1.390 . S
C849 C850 1.387 . S
C849 H852 0.950 . S
C850 C849 1.387 . S
C850 C853 1.387 . S
H851 C847 0.950 . S
H852 C849 0.950 . S
C853 C844 1.390 . S
C853 H846 0.950 . S
C853 C850 1.387 . S
C854 C855 1.387 . S
C854 H858 0.950 . S
C854 C863 1.390 . S
C855 C854 1.387 . S
C855 C857 1.387 . S
H856 C863 0.950 . S
C857 C855 1.387 . S
C857 C859 1.390 . S
C857 H861 0.950 . S
H858 C854 0.950 . S
C859 C857 1.390 . S
C859 C860 1.387 . S
C859 H862 0.950 . S
C860 C859 1.387 . S
C860 C863 1.387 . S
H861 C857 0.950 . S
H862 C859 0.950 . S
C863 C854 1.390 . S
C863 H856 0.950 . S
C863 C860 1.387 . S
C864 C865 1.387 . S
C864 H868 0.950 . S
C864 C873 1.390 . S
C865 C864 1.387 . S
C865 C867 1.387 . S
H866 C873 0.950 . S
C867 C865 1.387 . S
C867 C869 1.390 . S
C867 H871 0.950 . S
H868 C864 0.950 . S
C869 C867 1.390 . S
C869 C870 1.387 . S
C869 H872 0.950 . S
C870 C869 1.387 . S
C870 C873 1.387 . S
H871 C867 0.950 . S
H872 C869 0.950 . S
C873 C864 1.390 . S
C873 H866 0.950 . S
C873 C870 1.387 . S
C874 C875 1.387 . S
C874 H878 0.950 . S
C874 C883 1.390 . S
C875 C874 1.387 . S
C875 C877 1.387 . S
H876 C883 0.950 . S
C877 C875 1.387 . S
C877 C879 1.390 . S
C877 H881 0.950 . S
H878 C874 0.950 . S
C879 C877 1.390 . S
C879 C880 1.387 . S
C879 H882 0.950 . S
C880 C879 1.387 . S
C880 C883 1.387 . S
H881 C877 0.950 . S
H882 C879 0.950 . S
C883 C874 1.390 . S
C883 H876 0.950 . S
C883 C880 1.387 . S
C884 C885 1.387 . S
C884 H888 0.950 . S
C884 C893 1.390 . S
C885 C884 1.387 . S
C885 C887 1.387 . S
H886 C893 0.950 . S
C887 C885 1.387 . S
C887 C889 1.390 . S
C887 H891 0.950 . S
H888 C884 0.950 . S
C889 C887 1.390 . S
C889 C890 1.387 . S
C889 H892 0.950 . S
C890 C889 1.387 . S
C890 C893 1.387 . S
H891 C887 0.950 . S
H892 C889 0.950 . S
C893 C884 1.390 . S
C893 H886 0.950 . S
C893 C890 1.387 . S
C894 C895 1.387 . S
C894 H898 0.950 . S
C894 C903 1.390 . S
C895 C894 1.387 . S
C895 C897 1.387 . S
H896 C903 0.950 . S
C897 C895 1.387 . S
C897 C899 1.390 . S
C897 H901 0.950 . S
H898 C894 0.950 . S
C899 C897 1.390 . S
C899 C900 1.387 . S
C899 H902 0.950 . S
C900 C899 1.387 . S
C900 C903 1.387 . S
H901 C897 0.950 . S
H902 C899 0.950 . S
C903 C894 1.390 . S
C903 H896 0.950 . S
C903 C900 1.387 . S
C904 C905 1.387 . S
C904 H908 0.950 . S
C904 C913 1.390 . S
C905 C904 1.387 . S
C905 C907 1.387 . S
H906 C913 0.950 . S
C907 C905 1.387 . S
C907 C909 1.390 . S
C907 H911 0.950 . S
H908 C904 0.950 . S
C909 C907 1.390 . S
C909 C910 1.387 . S
C909 H912 0.950 . S
C910 C909 1.387 . S
C910 C913 1.387 . S
H911 C907 0.950 . S
H912 C909 0.950 . S
C913 C904 1.390 . S
C913 H906 0.950 . S
C913 C910 1.387 . S
C914 C915 1.387 . S
C914 H918 0.950 . S
C914 C923 1.390 . S
C915 C914 1.387 . S
C915 C917 1.387 . S
H916 C923 0.950 . S
C917 C915 1.387 . S
C917 C919 1.390 . S
C917 H921 0.950 . S
H918 C914 0.950 . S
C919 C917 1.390 . S
C919 C920 1.387 . S
C919 H922 0.950 . S
C920 C919 1.387 . S
C920 C923 1.387 . S
H921 C917 0.950 . S
H922 C919 0.950 . S
C923 C914 1.390 . S
C923 H916 0.950 . S
C923 C920 1.387 . S
C924 C925 1.387 . S
C924 H928 0.950 . S
C924 C933 1.390 . S
C925 C924 1.387 . S
C925 C927 1.387 . S
H926 C933 0.950 . S
C927 C925 1.387 . S
C927 C929 1.390 . S
C927 H931 0.950 . S
H928 C924 0.950 . S
C929 C927 1.390 . S
C929 C930 1.387 . S
C929 H932 0.950 . S
C930 C929 1.387 . S
C930 C933 1.387 . S
H931 C927 0.950 . S
H932 C929 0.950 . S
C933 C924 1.390 . S
C933 H926 0.950 . S
C933 C930 1.387 . S
C934 C935 1.387 . S
C934 H938 0.950 . S
C934 C943 1.390 . S
C935 C934 1.387 . S
C935 C937 1.387 . S
H936 C943 0.950 . S
C937 C935 1.387 . S
C937 C939 1.390 . S
C937 H941 0.950 . S
H938 C934 0.950 . S
C939 C937 1.390 . S
C939 C940 1.387 . S
C939 H942 0.950 . S
C940 C939 1.387 . S
C940 C943 1.387 . S
H941 C937 0.950 . S
H942 C939 0.950 . S
C943 C934 1.390 . S
C943 H936 0.950 . S
C943 C940 1.387 . S
C944 C945 1.387 . S
C944 H948 0.950 . S
C944 C953 1.390 . S
C945 C944 1.387 . S
C945 C947 1.387 . S
H946 C953 0.950 . S
C947 C945 1.387 . S
C947 C949 1.390 . S
C947 H951 0.950 . S
H948 C944 0.950 . S
C949 C947 1.390 . S
C949 C950 1.387 . S
C949 H952 0.950 . S
C950 C949 1.387 . S
C950 C953 1.387 . S
H951 C947 0.950 . S
H952 C949 0.950 . S
C953 C944 1.390 . S
C953 H946 0.950 . S
C953 C950 1.387 . S
C954 C955 1.387 . S
C954 H958 0.950 . S
C954 C963 1.390 . S
C955 C954 1.387 . S
C955 C957 1.387 . S
H956 C963 0.950 . S
C957 C955 1.387 . S
C957 C959 1.390 . S
C957 H961 0.950 . S
H958 C954 0.950 . S
C959 C957 1.390 . S
C959 C960 1.387 . S
C959 H962 0.950 . S
C960 C959 1.387 . S
C960 C963 1.387 . S
H961 C957 0.950 . S
H962 C959 0.950 . S
C963 C954 1.390 . S
C963 H956 0.950 . S
C963 C960 1.387 . S
C964 C965 1.387 . S
C964 H968 0.950 . S
C964 C973 1.390 . S
C965 C964 1.387 . S
C965 C967 1.387 . S
H966 C973 0.950 . S
C967 C965 1.387 . S
C967 C969 1.390 . S
C967 H971 0.950 . S
H968 C964 0.950 . S
C969 C967 1.390 . S
C969 C970 1.387 . S
C969 H972 0.950 . S
C970 C969 1.387 . S
C970 C973 1.387 . S
H971 C967 0.950 . S
H972 C969 0.950 . S
C973 C964 1.390 . S
C973 H966 0.950 . S
C973 C970 1.387 . S
C974 C975 1.387 . S
C974 H978 0.950 . S
C974 C983 1.390 . S
C975 C974 1.387 . S
C975 C977 1.387 . S
H976 C983 0.950 . S
C977 C975 1.387 . S
C977 C979 1.390 . S
C977 H981 0.950 . S
H978 C974 0.950 . S
C979 C977 1.390 . S
C979 C980 1.387 . S
C979 H982 0.950 . S
C980 C979 1.387 . S
C980 C983 1.387 . S
H981 C977 0.950 . S
H982 C979 0.950 . S
C983 C974 1.390 . S
C983 H976 0.950 . S
C983 C980 1.387 . S
C984 C985 1.387 . S
C984 H988 0.950 . S
C984 C993 1.378 1_455 S
C985 C984 1.387 . S
C985 C987 1.387 . S
H986 C993 0.940 . S
C987 C985 1.387 . S
C987 C989 1.377 1_455 S
C987 H991 0.940 . S
H988 C984 0.950 . S
C989 C987 1.377 1_655 S
C989 C990 1.387 . S
C989 H992 0.950 . S
C990 C989 1.387 . S
C990 C993 1.387 . S
H991 C987 0.940 . S
H992 C989 0.950 . S
C993 C984 1.378 1_655 S
C993 H986 0.940 . S
C993 C990 1.387 . S
C994 C995 1.387 . S
C994 H998 0.950 . S
C994 C1003 1.390 . S
C995 C994 1.387 . S
C995 C997 1.387 . S
H996 C1003 0.950 . S
C997 C995 1.387 . S
C997 C999 1.390 . S
C997 H1001 0.950 . S
H998 C994 0.950 . S
C999 C997 1.390 . S
C999 C1000 1.387 . S
C999 H1002 0.950 . S
C1000 C999 1.387 . S
C1000 C1003 1.387 . S
H1001 C997 0.950 . S
H1002 C999 0.950 . S
C1003 C994 1.390 . S
C1003 H996 0.950 . S
C1003 C1000 1.387 . S
C1004 C1005 1.387 . S
C1004 H1008 0.950 . S
C1004 C1013 1.390 1_565 S
C1005 C1004 1.387 . S
C1005 C1007 1.387 . S
H1006 C1013 0.950 . S
C1007 C1005 1.387 . S
C1007 C1009 1.390 1_565 S
C1007 H1011 0.950 . S
H1008 C1004 0.950 . S
C1009 C1007 1.390 1_545 S
C1009 C1010 1.387 . S
C1009 H1012 0.950 . S
C1010 C1009 1.387 . S
C1010 C1013 1.387 . S
H1011 C1007 0.950 . S
H1012 C1009 0.950 . S
C1013 C1004 1.390 1_545 S
C1013 H1006 0.950 . S
C1013 C1010 1.387 . S
C1014 C1015 1.387 . S
C1014 H1018 0.950 . S
C1014 C1023 1.390 1_565 S
C1015 C1014 1.387 . S
C1015 C1017 1.387 . S
H1016 C1023 0.950 . S
C1017 C1015 1.387 . S
C1017 C1019 1.390 1_565 S
C1017 H1021 0.950 . S
H1018 C1014 0.950 . S
C1019 C1017 1.390 1_545 S
C1019 C1020 1.387 . S
C1019 H1022 0.950 . S
C1020 C1019 1.387 . S
C1020 C1023 1.387 . S
H1021 C1017 0.950 . S
H1022 C1019 0.950 . S
C1023 C1014 1.390 1_545 S
C1023 H1016 0.950 . S
C1023 C1020 1.387 . S
C1024 C1025 1.387 . S
C1024 H1028 0.950 . S
C1024 C1033 1.390 1_655 S
C1025 C1024 1.387 . S
C1025 C1027 1.387 . S
H1026 C1033 0.950 . S
C1027 C1025 1.387 . S
C1027 C1029 1.390 1_655 S
C1027 H1031 0.950 . S
H1028 C1024 0.950 . S
C1029 C1027 1.390 1_455 S
C1029 C1030 1.387 . S
C1029 H1032 0.950 . S
C1030 C1029 1.387 . S
C1030 C1033 1.387 . S
H1031 C1027 0.950 . S
H1032 C1029 0.950 . S
C1033 C1024 1.390 1_455 S
C1033 H1026 0.950 . S
C1033 C1030 1.387 . S
C1034 C1035 1.387 . S
C1034 H1038 0.950 . S
C1034 C1043 1.390 . S
C1035 C1034 1.387 . S
C1035 C1037 1.387 . S
H1036 C1043 0.950 . S
C1037 C1035 1.387 . S
C1037 C1039 1.390 . S
C1037 H1041 0.950 . S
H1038 C1034 0.950 . S
C1039 C1037 1.390 . S
C1039 C1040 1.387 . S
C1039 H1042 0.950 . S
C1040 C1039 1.387 . S
C1040 C1043 1.387 . S
H1041 C1037 0.950 . S
H1042 C1039 0.950 . S
C1043 C1034 1.390 . S
C1043 H1036 0.950 . S
C1043 C1040 1.387 . S
C1044 C1045 1.387 . S
C1044 H1048 0.950 . S
C1044 C1053 1.390 . S
C1045 C1044 1.387 . S
C1045 C1047 1.387 . S
H1046 C1053 0.950 . S
C1047 C1045 1.387 . S
C1047 C1049 1.390 . S
C1047 H1051 0.950 . S
H1048 C1044 0.950 . S
C1049 C1047 1.390 . S
C1049 C1050 1.387 . S
C1049 H1052 0.950 . S
C1050 C1049 1.387 . S
C1050 C1053 1.387 . S
H1051 C1047 0.950 . S
H1052 C1049 0.950 . S
C1053 C1044 1.390 . S
C1053 H1046 0.950 . S
C1053 C1050 1.387 . S
C1054 C1055 1.387 . S
C1054 H1058 0.950 . S
C1054 C1063 1.390 . S
C1055 C1054 1.387 . S
C1055 C1057 1.387 . S
H1056 C1063 0.950 . S
C1057 C1055 1.387 . S
C1057 C1059 1.390 . S
C1057 H1061 0.950 . S
H1058 C1054 0.950 . S
C1059 C1057 1.390 . S
C1059 C1060 1.387 . S
C1059 H1062 0.950 . S
C1060 C1059 1.387 . S
C1060 C1063 1.387 . S
H1061 C1057 0.950 . S
H1062 C1059 0.950 . S
C1063 C1054 1.390 . S
C1063 H1056 0.950 . S
C1063 C1060 1.387 . S
C1064 C1065 1.387 . S
C1064 H1068 0.950 . S
C1064 C1073 1.390 . S
C1065 C1064 1.387 . S
C1065 C1067 1.387 . S
H1066 C1073 0.950 . S
C1067 C1065 1.387 . S
C1067 C1069 1.390 . S
C1067 H1071 0.950 . S
H1068 C1064 0.950 . S
C1069 C1067 1.390 . S
C1069 C1070 1.387 . S
C1069 H1072 0.950 . S
C1070 C1069 1.387 . S
C1070 C1073 1.387 . S
H1071 C1067 0.950 . S
H1072 C1069 0.950 . S
C1073 C1064 1.390 . S
C1073 H1066 0.950 . S
C1073 C1070 1.387 . S
C1074 C1075 1.387 . S
C1074 H1078 0.950 . S
C1074 C1083 1.390 . S
C1075 C1074 1.387 . S
C1075 C1077 1.387 . S
H1076 C1083 0.950 . S
C1077 C1075 1.387 . S
C1077 C1079 1.390 . S
C1077 H1081 0.950 . S
H1078 C1074 0.950 . S
C1079 C1077 1.390 . S
C1079 C1080 1.387 . S
C1079 H1082 0.950 . S
C1080 C1079 1.387 . S
C1080 C1083 1.387 . S
H1081 C1077 0.950 . S
H1082 C1079 0.950 . S
C1083 C1074 1.390 . S
C1083 H1076 0.950 . S
C1083 C1080 1.387 . S
C1084 C1085 1.387 . S
C1084 H1088 0.950 . S
C1084 C1093 1.390 . S
C1085 C1084 1.387 . S
C1085 C1087 1.387 . S
H1086 C1093 0.950 . S
C1087 C1085 1.387 . S
C1087 C1089 1.390 . S
C1087 H1091 0.950 . S
H1088 C1084 0.950 . S
C1089 C1087 1.390 . S
C1089 C1090 1.387 . S
C1089 H1092 0.950 . S
C1090 C1089 1.387 . S
C1090 C1093 1.387 . S
H1091 C1087 0.950 . S
H1092 C1089 0.950 . S
C1093 C1084 1.390 . S
C1093 H1086 0.950 . S
C1093 C1090 1.387 . S
C1094 C1095 1.387 . S
C1094 H1098 0.950 . S
C1094 C1103 1.390 . S
C1095 C1094 1.387 . S
C1095 C1097 1.387 . S
H1096 C1103 0.950 . S
C1097 C1095 1.387 . S
C1097 C1099 1.390 . S
C1097 H1101 0.950 . S
H1098 C1094 0.950 . S
C1099 C1097 1.390 . S
C1099 C1100 1.387 . S
C1099 H1102 0.950 . S
C1100 C1099 1.387 . S
C1100 C1103 1.387 . S
H1101 C1097 0.950 . S
H1102 C1099 0.950 . S
C1103 C1094 1.390 . S
C1103 H1096 0.950 . S
C1103 C1100 1.387 . S
C1104 C1105 1.387 . S
C1104 H1108 0.950 . S
C1104 C1113 1.390 . S
C1105 C1104 1.387 . S
C1105 C1107 1.387 . S
H1106 C1113 0.950 . S
C1107 C1105 1.387 . S
C1107 C1109 1.390 . S
C1107 H1111 0.950 . S
H1108 C1104 0.950 . S
C1109 C1107 1.390 . S
C1109 C1110 1.387 . S
C1109 H1112 0.950 . S
C1110 C1109 1.387 . S
C1110 C1113 1.387 . S
H1111 C1107 0.950 . S
H1112 C1109 0.950 . S
C1113 C1104 1.390 . S
C1113 H1106 0.950 . S
C1113 C1110 1.387 . S
C1114 C1115 1.387 . S
C1114 H1118 0.950 . S
C1114 C1123 1.390 . S
C1115 C1114 1.387 . S
C1115 C1117 1.387 . S
H1116 C1123 0.950 . S
C1117 C1115 1.387 . S
C1117 C1119 1.390 . S
C1117 H1121 0.950 . S
H1118 C1114 0.950 . S
C1119 C1117 1.390 . S
C1119 C1120 1.387 . S
C1119 H1122 0.950 . S
C1120 C1119 1.387 . S
C1120 C1123 1.387 . S
H1121 C1117 0.950 . S
H1122 C1119 0.950 . S
C1123 C1114 1.390 . S
C1123 H1116 0.950 . S
C1123 C1120 1.387 . S
C1124 C1125 1.387 . S
C1124 H1128 0.950 . S
C1124 C1133 1.390 . S
C1125 C1124 1.387 . S
C1125 C1127 1.387 . S
H1126 C1133 0.950 . S
C1127 C1125 1.387 . S
C1127 C1129 1.390 . S
C1127 H1131 0.950 . S
H1128 C1124 0.950 . S
C1129 C1127 1.390 . S
C1129 C1130 1.387 . S
C1129 H1132 0.950 . S
C1130 C1129 1.387 . S
C1130 C1133 1.387 . S
H1131 C1127 0.950 . S
H1132 C1129 0.950 . S
C1133 C1124 1.390 . S
C1133 H1126 0.950 . S
C1133 C1130 1.387 . S
C1134 C1135 1.387 . S
C1134 H1138 0.950 . S
C1134 C1143 1.390 . S
C1135 C1134 1.387 . S
C1135 C1137 1.387 . S
H1136 C1143 0.950 . S
C1137 C1135 1.387 . S
C1137 C1139 1.390 . S
C1137 H1141 0.950 . S
H1138 C1134 0.950 . S
C1139 C1137 1.390 . S
C1139 C1140 1.387 . S
C1139 H1142 0.950 . S
C1140 C1139 1.387 . S
C1140 C1143 1.387 . S
H1141 C1137 0.950 . S
H1142 C1139 0.950 . S
C1143 C1134 1.390 . S
C1143 H1136 0.950 . S
C1143 C1140 1.387 . S
C1144 C1145 1.387 . S
C1144 H1148 0.950 . S
C1144 C1153 1.390 . S
C1145 C1144 1.387 . S
C1145 C1147 1.387 . S
H1146 C1153 0.950 . S
C1147 C1145 1.387 . S
C1147 C1149 1.390 . S
C1147 H1151 0.950 . S
H1148 C1144 0.950 . S
C1149 C1147 1.390 . S
C1149 C1150 1.387 . S
C1149 H1152 0.950 . S
C1150 C1149 1.387 . S
C1150 C1153 1.387 . S
H1151 C1147 0.950 . S
H1152 C1149 0.950 . S
C1153 C1144 1.390 . S
C1153 H1146 0.950 . S
C1153 C1150 1.387 . S
C1154 C1155 1.387 . S
C1154 H1158 0.950 . S
C1154 C1163 1.390 . S
C1155 C1154 1.387 . S
C1155 C1157 1.387 . S
H1156 C1163 0.950 . S
C1157 C1155 1.387 . S
C1157 C1159 1.390 . S
C1157 H1161 0.950 . S
H1158 C1154 0.950 . S
C1159 C1157 1.390 . S
C1159 C1160 1.387 . S
C1159 H1162 0.950 . S
C1160 C1159 1.387 . S
C1160 C1163 1.387 . S
H1161 C1157 0.950 . S
H1162 C1159 0.950 . S
C1163 C1154 1.390 . S
C1163 H1156 0.950 . S
C1163 C1160 1.387 . S
C1164 C1165 1.387 1_655 S
C1164 H1168 0.950 . S
C1164 C1173 1.390 1_556 S
C1165 C1164 1.387 1_455 S
C1165 C1167 1.387 . S
H1166 C1173 0.950 . S
C1167 C1165 1.387 . S
C1167 C1169 1.390 1_556 S
C1167 H1171 0.950 . S
H1168 C1164 0.950 . S
C1169 C1167 1.390 1_554 S
C1169 C1170 1.387 1_455 S
C1169 H1172 0.950 . S
C1170 C1169 1.387 1_655 S
C1170 C1173 1.387 . S
H1171 C1167 0.950 . S
H1172 C1169 0.950 . S
C1173 C1164 1.390 1_554 S
C1173 H1166 0.950 . S
C1173 C1170 1.387 . S
C1174 C1175 1.387 . S
C1174 H1178 0.950 . S
C1174 C1183 1.390 1_554 S
C1175 C1174 1.387 . S
C1175 C1177 1.387 . S
H1176 C1183 0.950 . S
C1177 C1175 1.387 . S
C1177 C1179 1.390 1_554 S
C1177 H1181 0.950 . S
H1178 C1174 0.950 . S
C1179 C1177 1.390 1_556 S
C1179 C1180 1.387 . S
C1179 H1182 0.950 . S
C1180 C1179 1.387 . S
C1180 C1183 1.387 . S
H1181 C1177 0.950 . S
H1182 C1179 0.950 . S
C1183 C1174 1.390 1_556 S
C1183 H1176 0.950 . S
C1183 C1180 1.387 . S
C1184 C1185 1.387 . S
C1184 H1188 0.950 . S
C1184 C1193 1.390 1_544 S
C1185 C1184 1.387 . S
C1185 C1187 1.387 . S
H1186 C1193 0.950 . S
C1187 C1185 1.387 . S
C1187 C1189 1.390 1_544 S
C1187 H1191 0.950 . S
H1188 C1184 0.950 . S
C1189 C1187 1.390 1_566 S
C1189 C1190 1.387 . S
C1189 H1192 0.950 . S
C1190 C1189 1.387 . S
C1190 C1193 1.387 . S
H1191 C1187 0.950 . S
H1192 C1189 0.950 . S
C1193 C1184 1.390 1_566 S
C1193 H1186 0.950 . S
C1193 C1190 1.387 . S
C1194 C1195 1.387 . S
C1194 H1198 0.950 . S
C1194 C1203 1.390 1_566 S
C1195 C1194 1.387 . S
C1195 C1197 1.387 . S
H1196 C1203 0.950 . S
C1197 C1195 1.387 . S
C1197 C1199 1.390 1_566 S
C1197 H1201 0.950 . S
H1198 C1194 0.950 . S
C1199 C1197 1.390 1_544 S
C1199 C1200 1.387 . S
C1199 H1202 0.950 . S
C1200 C1199 1.387 . S
C1200 C1203 1.387 . S
H1201 C1197 0.950 . S
H1202 C1199 0.950 . S
C1203 C1194 1.390 1_544 S
C1203 H1196 0.950 . S
C1203 C1200 1.387 . S
C1204 C1205 1.387 . S
C1204 H1208 0.950 . S
C1204 C1213 1.390 1_556 S
C1205 C1204 1.387 . S
C1205 C1207 1.387 1_455 S
H1206 C1213 0.950 . S
C1207 C1205 1.387 1_655 S
C1207 C1209 1.390 1_556 S
C1207 H1211 0.950 . S
H1208 C1204 0.950 . S
C1209 C1207 1.390 1_554 S
C1209 C1210 1.387 . S
C1209 H1212 0.950 . S
C1210 C1209 1.387 . S
C1210 C1213 1.387 1_655 S
H1211 C1207 0.950 . S
H1212 C1209 0.950 . S
C1213 C1204 1.390 1_554 S
C1213 H1206 0.950 . S
C1213 C1210 1.387 1_455 S
C1214 C1215 1.387 . S
C1214 H1218 0.950 . S
C1214 C1223 1.390 1_554 S
C1215 C1214 1.387 . S
C1215 C1217 1.387 . S
H1216 C1223 0.950 . S
C1217 C1215 1.387 . S
C1217 C1219 1.390 1_554 S
C1217 H1221 0.950 . S
H1218 C1214 0.950 . S
C1219 C1217 1.390 1_556 S
C1219 C1220 1.387 . S
C1219 H1222 0.950 . S
C1220 C1219 1.387 . S
C1220 C1223 1.387 . S
H1221 C1217 0.950 . S
H1222 C1219 0.950 . S
C1223 C1214 1.390 1_556 S
C1223 H1216 0.950 . S
C1223 C1220 1.387 . S
C505 C8 1.340 . S
C510 C162 1.338 . S
C515 C22 1.340 . S
C520 C134 1.338 . S
C525 C148 1.340 . S
C530 C36 1.337 . S
C535 C50 1.340 . S
C540 C106 1.338 . S
C545 C120 1.340 . S
C550 C64 1.337 . S
C555 C78 1.340 . S
C560 C92 1.338 . S
C565 C330 1.340 . S
C570 C176 1.338 . S
C575 C190 1.338 . S
C580 C302 1.340 . S
C585 C204 1.340 . S
C590 C316 1.337 . S
C595 C274 1.340 . S
C600 C218 1.338 . S
C605 C232 1.337 . S
C610 C288 1.340 . S
C615 C260 1.340 . S
C620 C246 1.338 . S
C625 C344 1.339 . S
C630 C498 1.338 . S
C635 C470 1.340 . S
C640 C358 1.337 . S
C645 C484 1.340 . S
C650 C372 1.337 . S
C655 C442 1.338 . S
C660 C386 1.340 . S
C665 C456 1.340 . S
C670 C400 1.337 . S
C675 C428 1.338 . S
C680 C414 1.340 . S
C685 C7 1.434 . S
C690 C63 1.435 . S
C695 C77 1.434 . S
C700 C21 1.436 . S
C705 C35 1.434 . S
C710 C49 1.434 . S
C715 C91 1.434 . S
C720 C147 1.435 . S
C725 C105 1.435 . S
C730 C161 1.434 . S
C735 C119 1.434 . S
C740 C133 1.434 . S
C745 C231 1.435 . S
C750 C175 1.434 . S
C755 C245 1.434 . S
C760 C189 1.435 . S
C765 C203 1.434 . S
C770 C217 1.434 . S
C775 C315 1.435 . S
C780 C259 1.434 . S
C785 C329 1.436 . S
C790 C273 1.435 . S
C795 C287 1.434 . S
C800 C301 1.434 . S
C805 C399 1.435 . S
C810 C343 1.435 . S
C815 C357 1.435 . S
C820 C413 1.436 . S
C825 C371 1.435 . S
C830 C385 1.435 . S
C835 C483 1.434 . S
C840 C427 1.435 . S
C845 C441 1.435 . S
C850 C497 1.434 . S
C855 C469 1.434 . S
C860 C455 1.434 . S
C865 C415 1.516 . S
C870 C9 1.516 . S
C875 C23 1.516 . S
C880 C387 1.516 . S
C885 C37 1.514 . S
C890 C401 1.514 . S
C895 C51 1.516 . S
C900 C191 1.516 . S
C905 C205 1.516 . S
C910 C65 1.516 . S
C915 C177 1.516 . S
C920 C79 1.516 . S
C925 C93 1.514 . S
C930 C331 1.514 . S
C935 C107 1.516 . S
C940 C303 1.516 . S
C945 C121 1.515 . S
C950 C317 1.515 . S
C955 C443 1.514 . S
C960 C135 1.515 . S
C965 C457 1.516 . S
C970 C149 1.516 . S
C975 C163 1.514 . S
C980 C429 1.514 . S
C985 C359 1.516 . S
C990 C219 1.516 . S
C995 C233 1.516 . S
C1000 C373 1.516 . S
C1005 C345 1.514 . S
C1010 C247 1.514 . S
C1015 C499 1.514 . S
C1020 C261 1.514 . S
C1025 C275 1.514 . S
C1030 C471 1.514 . S
C1035 C289 1.514 . S
C1040 C485 1.514 . S
C1045 C6 1.509 . S
C1050 C412 1.509 . S
C1055 C384 1.506 . S
C1060 C20 1.506 . S
C1065 C34 1.508 . S
C1070 C398 1.508 . S
C1075 C188 1.509 . S
C1080 C48 1.509 . S
C1085 C62 1.508 . S
C1090 C202 1.508 . S
C1095 C76 1.506 . S
C1100 C174 1.506 . S
C1105 C328 1.506 . S
C1110 C90 1.506 . S
C1115 C104 1.508 . S
C1120 C300 1.508 . S
C1125 C118 1.506 . S
C1130 C314 1.506 . S
C1135 C132 1.508 . S
C1140 C440 1.508 . S
C1145 C454 1.508 . S
C1150 C146 1.508 . S
C1155 C160 1.506 . S
C1160 C426 1.506 . S
C1165 C356 1.506 . S
C1170 C216 1.506 . S
C1175 C230 1.509 . S
C1180 C370 1.508 . S
C1185 C244 1.508 . S
C1190 C342 1.508 . S
C1195 C496 1.508 . S
C1200 C258 1.508 . S
C1205 C468 1.508 . S
C1210 C272 1.508 . S
C1215 C286 1.508 . S
C1220 C482 1.509 . S
