# Generated by pormake.
# Topology ukc, (4)-cn, num edge types: 1
# Building blocks:
#     Node 0, Type 0, BuildingBlock: QUQFOY_clean_sbu_1, # of connection points: 4
#     Node 1, Type 0, BuildingBlock: QUQFOY_clean_sbu_1, # of connection points: 4
#     Node 2, Type 0, BuildingBlock: QUQFOY_clean_sbu_1, # of connection points: 4
#     Node 3, Type 0, BuildingBlock: QUQFOY_clean_sbu_1, # of connection points: 4
#     Node 4, Type 0, BuildingBlock: QUQFOY_clean_sbu_1, # of connection points: 4
#     Node 5, Type 0, BuildingBlock: QUQFOY_clean_sbu_1, # of connection points: 4
#     Node 6, Type 0, BuildingBlock: QUQFOY_clean_sbu_1, # of connection points: 4
#     Node 7, Type 0, BuildingBlock: QUQFOY_clean_sbu_1, # of connection points: 4
#     Node 8, Type 0, BuildingBlock: QUQFOY_clean_sbu_1, # of connection points: 4
#     Node 9, Type 0, BuildingBlock: QUQFOY_clean_sbu_1, # of connection points: 4
#     Node 10, Type 0, BuildingBlock: QUQFOY_clean_sbu_1, # of connection points: 4
#     Node 11, Type 0, BuildingBlock: QUQFOY_clean_sbu_1, # of connection points: 4
#     Node 12, Type 0, BuildingBlock: QUQFOY_clean_sbu_1, # of connection points: 4
#     Node 13, Type 0, BuildingBlock: QUQFOY_clean_sbu_1, # of connection points: 4
#     Node 14, Type 0, BuildingBlock: QUQFOY_clean_sbu_1, # of connection points: 4
#     Node 15, Type 0, BuildingBlock: QUQFOY_clean_sbu_1, # of connection points: 4
#     Node 16, Type 0, BuildingBlock: QUQFOY_clean_sbu_1, # of connection points: 4
#     Node 17, Type 0, BuildingBlock: QUQFOY_clean_sbu_1, # of connection points: 4
#     Node 18, Type 0, BuildingBlock: QUQFOY_clean_sbu_1, # of connection points: 4
#     Node 19, Type 0, BuildingBlock: QUQFOY_clean_sbu_1, # of connection points: 4
#     Node 20, Type 0, BuildingBlock: QUQFOY_clean_sbu_1, # of connection points: 4
#     Node 21, Type 0, BuildingBlock: QUQFOY_clean_sbu_1, # of connection points: 4
#     Node 22, Type 0, BuildingBlock: QUQFOY_clean_sbu_1, # of connection points: 4
#     Node 23, Type 0, BuildingBlock: QUQFOY_clean_sbu_1, # of connection points: 4
#     Node 24, Type 0, BuildingBlock: QUQFOY_clean_sbu_1, # of connection points: 4
#     Node 25, Type 0, BuildingBlock: QUQFOY_clean_sbu_1, # of connection points: 4
#     Node 26, Type 0, BuildingBlock: QUQFOY_clean_sbu_1, # of connection points: 4
#     Node 27, Type 0, BuildingBlock: QUQFOY_clean_sbu_1, # of connection points: 4
#     Node 28, Type 0, BuildingBlock: QUQFOY_clean_sbu_1, # of connection points: 4
#     Node 29, Type 0, BuildingBlock: QUQFOY_clean_sbu_1, # of connection points: 4
#     Node 30, Type 0, BuildingBlock: QUQFOY_clean_sbu_1, # of connection points: 4
#     Node 31, Type 0, BuildingBlock: QUQFOY_clean_sbu_1, # of connection points: 4
#     Edge 32, Type (0, 0), BuildingBlock: KIFKEQ_clean_linker_1, # of connection points: 2
#     Edge 33, Type (0, 0), BuildingBlock: KIFKEQ_clean_linker_1, # of connection points: 2
#     Edge 34, Type (0, 0), BuildingBlock: KIFKEQ_clean_linker_1, # of connection points: 2
#     Edge 35, Type (0, 0), BuildingBlock: KIFKEQ_clean_linker_1, # of connection points: 2
#     Edge 36, Type (0, 0), BuildingBlock: KIFKEQ_clean_linker_1, # of connection points: 2
#     Edge 37, Type (0, 0), BuildingBlock: KIFKEQ_clean_linker_1, # of connection points: 2
#     Edge 38, Type (0, 0), BuildingBlock: KIFKEQ_clean_linker_1, # of connection points: 2
#     Edge 39, Type (0, 0), BuildingBlock: KIFKEQ_clean_linker_1, # of connection points: 2
#     Edge 40, Type (0, 0), BuildingBlock: KIFKEQ_clean_linker_1, # of connection points: 2
#     Edge 41, Type (0, 0), BuildingBlock: KIFKEQ_clean_linker_1, # of connection points: 2
#     Edge 42, Type (0, 0), BuildingBlock: KIFKEQ_clean_linker_1, # of connection points: 2
#     Edge 43, Type (0, 0), BuildingBlock: KIFKEQ_clean_linker_1, # of connection points: 2
#     Edge 44, Type (0, 0), BuildingBlock: KIFKEQ_clean_linker_1, # of connection points: 2
#     Edge 45, Type (0, 0), BuildingBlock: KIFKEQ_clean_linker_1, # of connection points: 2
#     Edge 46, Type (0, 0), BuildingBlock: KIFKEQ_clean_linker_1, # of connection points: 2
#     Edge 47, Type (0, 0), BuildingBlock: KIFKEQ_clean_linker_1, # of connection points: 2
#     Edge 48, Type (0, 0), BuildingBlock: KIFKEQ_clean_linker_1, # of connection points: 2
#     Edge 49, Type (0, 0), BuildingBlock: KIFKEQ_clean_linker_1, # of connection points: 2
#     Edge 50, Type (0, 0), BuildingBlock: KIFKEQ_clean_linker_1, # of connection points: 2
#     Edge 51, Type (0, 0), BuildingBlock: KIFKEQ_clean_linker_1, # of connection points: 2
#     Edge 52, Type (0, 0), BuildingBlock: KIFKEQ_clean_linker_1, # of connection points: 2
#     Edge 53, Type (0, 0), BuildingBlock: KIFKEQ_clean_linker_1, # of connection points: 2
#     Edge 54, Type (0, 0), BuildingBlock: KIFKEQ_clean_linker_1, # of connection points: 2
#     Edge 55, Type (0, 0), BuildingBlock: KIFKEQ_clean_linker_1, # of connection points: 2
#     Edge 56, Type (0, 0), BuildingBlock: KIFKEQ_clean_linker_1, # of connection points: 2
#     Edge 57, Type (0, 0), BuildingBlock: KIFKEQ_clean_linker_1, # of connection points: 2
#     Edge 58, Type (0, 0), BuildingBlock: KIFKEQ_clean_linker_1, # of connection points: 2
#     Edge 59, Type (0, 0), BuildingBlock: KIFKEQ_clean_linker_1, # of connection points: 2
#     Edge 60, Type (0, 0), BuildingBlock: KIFKEQ_clean_linker_1, # of connection points: 2
#     Edge 61, Type (0, 0), BuildingBlock: KIFKEQ_clean_linker_1, # of connection points: 2
#     Edge 62, Type (0, 0), BuildingBlock: KIFKEQ_clean_linker_1, # of connection points: 2
#     Edge 63, Type (0, 0), BuildingBlock: KIFKEQ_clean_linker_1, # of connection points: 2
#     Edge 64, Type (0, 0), BuildingBlock: KIFKEQ_clean_linker_1, # of connection points: 2
#     Edge 65, Type (0, 0), BuildingBlock: KIFKEQ_clean_linker_1, # of connection points: 2
#     Edge 66, Type (0, 0), BuildingBlock: KIFKEQ_clean_linker_1, # of connection points: 2
#     Edge 67, Type (0, 0), BuildingBlock: KIFKEQ_clean_linker_1, # of connection points: 2
#     Edge 68, Type (0, 0), BuildingBlock: KIFKEQ_clean_linker_1, # of connection points: 2
#     Edge 69, Type (0, 0), BuildingBlock: KIFKEQ_clean_linker_1, # of connection points: 2
#     Edge 70, Type (0, 0), BuildingBlock: KIFKEQ_clean_linker_1, # of connection points: 2
#     Edge 71, Type (0, 0), BuildingBlock: KIFKEQ_clean_linker_1, # of connection points: 2
#     Edge 72, Type (0, 0), BuildingBlock: KIFKEQ_clean_linker_1, # of connection points: 2
#     Edge 73, Type (0, 0), BuildingBlock: KIFKEQ_clean_linker_1, # of connection points: 2
#     Edge 74, Type (0, 0), BuildingBlock: KIFKEQ_clean_linker_1, # of connection points: 2
#     Edge 75, Type (0, 0), BuildingBlock: KIFKEQ_clean_linker_1, # of connection points: 2
#     Edge 76, Type (0, 0), BuildingBlock: KIFKEQ_clean_linker_1, # of connection points: 2
#     Edge 77, Type (0, 0), BuildingBlock: KIFKEQ_clean_linker_1, # of connection points: 2
#     Edge 78, Type (0, 0), BuildingBlock: KIFKEQ_clean_linker_1, # of connection points: 2
#     Edge 79, Type (0, 0), BuildingBlock: KIFKEQ_clean_linker_1, # of connection points: 2
#     Edge 80, Type (0, 0), BuildingBlock: KIFKEQ_clean_linker_1, # of connection points: 2
#     Edge 81, Type (0, 0), BuildingBlock: KIFKEQ_clean_linker_1, # of connection points: 2
#     Edge 82, Type (0, 0), BuildingBlock: KIFKEQ_clean_linker_1, # of connection points: 2
#     Edge 83, Type (0, 0), BuildingBlock: KIFKEQ_clean_linker_1, # of connection points: 2
#     Edge 84, Type (0, 0), BuildingBlock: KIFKEQ_clean_linker_1, # of connection points: 2
#     Edge 85, Type (0, 0), BuildingBlock: KIFKEQ_clean_linker_1, # of connection points: 2
#     Edge 86, Type (0, 0), BuildingBlock: KIFKEQ_clean_linker_1, # of connection points: 2
#     Edge 87, Type (0, 0), BuildingBlock: KIFKEQ_clean_linker_1, # of connection points: 2
#     Edge 88, Type (0, 0), BuildingBlock: KIFKEQ_clean_linker_1, # of connection points: 2
#     Edge 89, Type (0, 0), BuildingBlock: KIFKEQ_clean_linker_1, # of connection points: 2
#     Edge 90, Type (0, 0), BuildingBlock: KIFKEQ_clean_linker_1, # of connection points: 2
#     Edge 91, Type (0, 0), BuildingBlock: KIFKEQ_clean_linker_1, # of connection points: 2
#     Edge 92, Type (0, 0), BuildingBlock: KIFKEQ_clean_linker_1, # of connection points: 2
#     Edge 93, Type (0, 0), BuildingBlock: KIFKEQ_clean_linker_1, # of connection points: 2
#     Edge 94, Type (0, 0), BuildingBlock: KIFKEQ_clean_linker_1, # of connection points: 2
#     Edge 95, Type (0, 0), BuildingBlock: KIFKEQ_clean_linker_1, # of connection points: 2
# Relax obj value: 0.073
# Max RMSD: 0.148
# Mean RMSD: 0.148
data_MOF--net-ukc--node1-QUQFOY_clean_sbu_1--edge1-KIFKEQ_clean_linker_1
_symmetry_space_group_name_H-M    P1
_symmetry_Int_Tables_number       1
_symmetry_cell_setting            triclinic
loop_
_symmetry_equiv_pos_as_xyz
'x, y, z'
_cell_length_a     49.869293
_cell_length_b     49.857461
_cell_length_c     85.503313
_cell_angle_alpha  89.993386
_cell_angle_beta   89.996089
_cell_angle_gamma 89.989366
loop_
_atom_site_label
_atom_site_type_symbol
_atom_site_fract_x
_atom_site_fract_y
_atom_site_fract_z
_atom_type_partial_charge
O0 O 0.12043 0.36149 0.05863 0.0
Cd1 Cd 0.11794 0.35784 0.03469 0.0
Cd2 Cd 0.07359 0.39127 0.04046 0.0
O3 O 0.09095 0.39386 0.0624 0.0
O4 O 0.15187 0.33853 0.02979 0.0
O5 O 0.14339 0.37936 0.02115 0.0
C6 C 0.15975 0.35935 0.02218 0.0
C7 C 0.0556 0.42963 0.02866 0.0
C8 C 0.10889 0.37813 0.06765 0.0
C9 C 0.06349 0.33516 0.02824 0.0
O10 O 0.05405 0.3561 0.0347 0.0
O11 O 0.08857 0.33283 0.02595 0.0
O12 O 0.04439 0.41865 0.04063 0.0
O13 O 0.07776 0.41933 0.02362 0.0
O14 O 0.89695 0.87033 0.30841 0.0
Cd15 Cd 0.90108 0.86879 0.28445 0.0
Cd16 Cd 0.86799 0.82319 0.28986 0.0
O17 O 0.86612 0.83919 0.31216 0.0
O18 O 0.92002 0.90316 0.28013 0.0
O19 O 0.87957 0.89445 0.271 0.0
C20 C 0.89934 0.91101 0.27238 0.0
C21 C 0.82966 0.80379 0.27879 0.0
C22 C 0.88116 0.85769 0.31744 0.0
C23 C 0.92441 0.81495 0.27708 0.0
O24 O 0.90333 0.805 0.28311 0.0
O25 O 0.92679 0.84018 0.2755 0.0
O26 O 0.84262 0.79226 0.28995 0.0
O27 O 0.83786 0.82709 0.27423 0.0
O28 O 0.38945 0.64579 0.55897 0.0
Cd29 Cd 0.3924 0.64988 0.53504 0.0
Cd30 Cd 0.43652 0.6162 0.54093 0.0
O31 O 0.41887 0.61338 0.56277 0.0
O32 O 0.35867 0.66951 0.53005 0.0
O33 O 0.367 0.62877 0.52124 0.0
C34 C 0.35076 0.64887 0.52228 0.0
C35 C 0.45436 0.57796 0.52898 0.0
C36 C 0.40083 0.62903 0.56798 0.0
C37 C 0.44717 0.67233 0.52901 0.0
O38 O 0.45639 0.6513 0.53548 0.0
O39 O 0.42214 0.6748 0.52656 0.0
O40 O 0.4655 0.58862 0.54106 0.0
O41 O 0.43234 0.58851 0.52391 0.0
O42 O 0.61451 0.14127 0.80818 0.0
Cd43 Cd 0.60979 0.14329 0.78427 0.0
Cd44 Cd 0.64278 0.18891 0.78973 0.0
O45 O 0.64539 0.17237 0.81186 0.0
O46 O 0.59094 0.1089 0.77986 0.0
O47 O 0.63124 0.1179 0.77061 0.0
C48 C 0.61158 0.10122 0.77201 0.0
C49 C 0.68072 0.20878 0.77852 0.0
C50 C 0.63057 0.15371 0.81715 0.0
C51 C 0.58607 0.19723 0.77746 0.0
O52 O 0.60719 0.20711 0.78347 0.0
O53 O 0.5838 0.17203 0.77565 0.0
O54 O 0.66799 0.21996 0.78988 0.0
O55 O 0.6725 0.18558 0.7738 0.0
O56 O 0.12134 0.64729 0.44291 0.0
Cd57 Cd 0.11988 0.65156 0.46686 0.0
Cd58 Cd 0.07408 0.61833 0.46151 0.0
O59 O 0.09014 0.61649 0.43922 0.0
O60 O 0.15429 0.6705 0.47112 0.0
O61 O 0.14554 0.63011 0.48033 0.0
C62 C 0.16213 0.64985 0.47891 0.0
C63 C 0.05418 0.58002 0.47235 0.0
C64 C 0.10865 0.63148 0.43391 0.0
C65 C 0.06602 0.67486 0.47428 0.0
O66 O 0.05606 0.65374 0.46832 0.0
O67 O 0.09126 0.67729 0.4758 0.0
O68 O 0.04291 0.59323 0.46121 0.0
O69 O 0.07748 0.58797 0.47705 0.0
O70 O 0.61791 0.87242 0.69288 0.0
Cd71 Cd 0.61047 0.87038 0.71656 0.0
Cd72 Cd 0.64149 0.82231 0.71179 0.0
O73 O 0.64388 0.83706 0.68925 0.0
O74 O 0.5921 0.90532 0.72017 0.0
O75 O 0.63091 0.89529 0.73105 0.0
C76 C 0.61191 0.91249 0.72884 0.0
C77 C 0.67916 0.80211 0.72315 0.0
C78 C 0.63195 0.85768 0.68393 0.0
C79 C 0.58411 0.81724 0.72352 0.0
O80 O 0.60544 0.80607 0.71867 0.0
O81 O 0.58241 0.84267 0.72423 0.0
O82 O 0.66571 0.79047 0.71223 0.0
O83 O 0.67175 0.82588 0.72735 0.0
O84 O 0.38632 0.36636 0.94169 0.0
Cd85 Cd 0.38947 0.3595 0.96539 0.0
Cd86 Cd 0.43594 0.39149 0.96025 0.0
O87 O 0.42011 0.39424 0.93799 0.0
O88 O 0.35522 0.34033 0.96965 0.0
O89 O 0.3647 0.3797 0.98003 0.0
C90 C 0.34791 0.36023 0.97823 0.0
C91 C 0.454 0.42955 0.97227 0.0
C92 C 0.40005 0.38135 0.93273 0.0
C93 C 0.44361 0.33456 0.97163 0.0
O94 O 0.4541 0.35594 0.96633 0.0
O95 O 0.41828 0.33251 0.97295 0.0
O96 O 0.46575 0.41815 0.96061 0.0
O97 O 0.43135 0.41977 0.9769 0.0
O98 O 0.89617 0.1403 0.19342 0.0
Cd99 Cd 0.90031 0.14217 0.21737 0.0
Cd100 Cd 0.86732 0.18796 0.21166 0.0
O101 O 0.86541 0.17146 0.18948 0.0
O102 O 0.91944 0.10791 0.22176 0.0
O103 O 0.87899 0.1165 0.23091 0.0
C104 C 0.89884 0.10001 0.22955 0.0
C105 C 0.82901 0.20782 0.22253 0.0
C106 C 0.8804 0.15281 0.18432 0.0
C107 C 0.92377 0.19609 0.22444 0.0
O108 O 0.90277 0.20605 0.21833 0.0
O109 O 0.92602 0.17088 0.22618 0.0
O110 O 0.84208 0.21903 0.2113 0.0
O111 O 0.83711 0.18459 0.22729 0.0
O112 O 0.88915 0.64483 0.94298 0.0
Cd113 Cd 0.89069 0.6496 0.96688 0.0
Cd114 Cd 0.93699 0.61692 0.96161 0.0
O115 O 0.92099 0.61466 0.93931 0.0
O116 O 0.85623 0.66855 0.97098 0.0
O117 O 0.86506 0.62839 0.9805 0.0
C118 C 0.84843 0.64806 0.97892 0.0
C119 C 0.95701 0.57888 0.9727 0.0
C120 C 0.90211 0.62921 0.934 0.0
C121 C 0.94429 0.67372 0.9741 0.0
O122 O 0.95458 0.65262 0.96829 0.0
O123 O 0.91902 0.67584 0.97557 0.0
O124 O 0.96832 0.59199 0.96153 0.0
O125 O 0.93362 0.58679 0.97729 0.0
O126 O 0.11257 0.1376 0.69236 0.0
Cd127 Cd 0.10801 0.14069 0.71622 0.0
Cd128 Cd 0.1413 0.1851 0.71062 0.0
O129 O 0.14458 0.16751 0.68878 0.0
O130 O 0.089 0.10667 0.72127 0.0
O131 O 0.12942 0.11597 0.73027 0.0
C132 C 0.10966 0.09933 0.72921 0.0
C133 C 0.17935 0.20342 0.72255 0.0
C134 C 0.12932 0.14923 0.68347 0.0
C135 C 0.08471 0.19509 0.7221 0.0
O136 O 0.10592 0.20459 0.71598 0.0
O137 O 0.08235 0.17001 0.72437 0.0
O138 O 0.16849 0.21445 0.71048 0.0
O139 O 0.16906 0.18129 0.72764 0.0
O140 O 0.62087 0.3643 0.44222 0.0
Cd141 Cd 0.61921 0.35914 0.46609 0.0
Cd142 Cd 0.57298 0.39177 0.46098 0.0
O143 O 0.58907 0.39454 0.43873 0.0
O144 O 0.65372 0.34028 0.47014 0.0
O145 O 0.64465 0.38023 0.47989 0.0
C146 C 0.66138 0.36066 0.47822 0.0
C147 C 0.55295 0.42957 0.47231 0.0
C148 C 0.60796 0.38011 0.43334 0.0
C149 C 0.56568 0.33476 0.47311 0.0
O150 O 0.55538 0.35594 0.4674 0.0
O151 O 0.59095 0.33267 0.47461 0.0
O152 O 0.54167 0.41669 0.46104 0.0
O153 O 0.57631 0.42156 0.47688 0.0
O154 O 0.3964 0.87081 0.19264 0.0
Cd155 Cd 0.40009 0.86795 0.21657 0.0
Cd156 Cd 0.36676 0.82377 0.21054 0.0
O157 O 0.36401 0.84145 0.1887 0.0
O158 O 0.41964 0.90172 0.2215 0.0
O159 O 0.37885 0.89345 0.23025 0.0
C160 C 0.39894 0.9097 0.22919 0.0
C161 C 0.32856 0.80579 0.22246 0.0
C162 C 0.37977 0.85946 0.18356 0.0
C163 C 0.42286 0.81339 0.22258 0.0
O164 O 0.40196 0.80408 0.21603 0.0
O165 O 0.42511 0.83841 0.22512 0.0
O166 O 0.3393 0.79468 0.21038 0.0
O167 O 0.33901 0.82786 0.22753 0.0
O168 O 0.88869 0.36447 0.55813 0.0
Cd169 Cd 0.89154 0.35976 0.53428 0.0
Cd170 Cd 0.93635 0.39288 0.53985 0.0
O171 O 0.91881 0.3963 0.56169 0.0
O172 O 0.85756 0.34044 0.52955 0.0
O173 O 0.86637 0.3808 0.5203 0.0
C174 C 0.84989 0.36094 0.52158 0.0
C175 C 0.95493 0.43079 0.52789 0.0
C176 C 0.90045 0.38115 0.56702 0.0
C177 C 0.94584 0.33619 0.52834 0.0
O178 O 0.95551 0.35731 0.53447 0.0
O179 O 0.92074 0.33402 0.52607 0.0
O180 O 0.9659 0.41986 0.53995 0.0
O181 O 0.93273 0.42065 0.52281 0.0
O182 O 0.39627 0.13765 0.30879 0.0
Cd183 Cd 0.40065 0.14024 0.2849 0.0
Cd184 Cd 0.36743 0.18499 0.29046 0.0
O185 O 0.36441 0.16772 0.31241 0.0
O186 O 0.41994 0.1062 0.28023 0.0
O187 O 0.37949 0.1149 0.27109 0.0
C188 C 0.39936 0.09842 0.27237 0.0
C189 C 0.32933 0.20331 0.27857 0.0
C190 C 0.37971 0.14947 0.31772 0.0
C191 C 0.42393 0.19455 0.27866 0.0
O192 O 0.40284 0.2042 0.28484 0.0
O193 O 0.42619 0.16943 0.27648 0.0
O194 O 0.34034 0.21445 0.29055 0.0
O195 O 0.33948 0.18106 0.27356 0.0
O196 O 0.62032 0.64222 0.05818 0.0
Cd197 Cd 0.61775 0.64897 0.03443 0.0
Cd198 Cd 0.57021 0.61756 0.03983 0.0
O199 O 0.58549 0.61575 0.06225 0.0
O200 O 0.65228 0.66784 0.03043 0.0
O201 O 0.64275 0.6285 0.02003 0.0
C202 C 0.65963 0.64786 0.02192 0.0
C203 C 0.5506 0.57944 0.0287 0.0
C204 C 0.60602 0.62811 0.06733 0.0
C205 C 0.56412 0.6744 0.02751 0.0
O206 O 0.55329 0.65321 0.03281 0.0
O207 O 0.5895 0.67628 0.02652 0.0
O208 O 0.53884 0.59276 0.03963 0.0
O209 O 0.57418 0.58722 0.02437 0.0
O210 O 0.1146 0.87116 0.81008 0.0
Cd211 Cd 0.10948 0.86961 0.7862 0.0
Cd212 Cd 0.14196 0.82316 0.7913 0.0
O213 O 0.14451 0.83905 0.81362 0.0
O214 O 0.09061 0.90414 0.78219 0.0
O215 O 0.13051 0.89509 0.77238 0.0
C216 C 0.11093 0.91179 0.77406 0.0
C217 C 0.17979 0.80314 0.78 0.0
C218 C 0.1302 0.85804 0.819 0.0
C219 C 0.08503 0.81613 0.77903 0.0
O220 O 0.10615 0.80571 0.78471 0.0
O221 O 0.08299 0.84142 0.77764 0.0
O222 O 0.16682 0.79179 0.79122 0.0
O223 O 0.17186 0.82657 0.77549 0.0
O224 O 0.62221 0.86653 0.55898 0.0
Cd225 Cd 0.61965 0.85957 0.53527 0.0
Cd226 Cd 0.57206 0.8911 0.54051 0.0
O227 O 0.5874 0.8931 0.56292 0.0
O228 O 0.65422 0.84075 0.53129 0.0
O229 O 0.64452 0.87993 0.52073 0.0
C230 C 0.66147 0.86064 0.52269 0.0
C231 C 0.55212 0.92912 0.52939 0.0
C232 C 0.6079 0.88074 0.56807 0.0
C233 C 0.56607 0.834 0.52851 0.0
O234 O 0.55522 0.85532 0.53362 0.0
O235 O 0.59145 0.83209 0.52756 0.0
O236 O 0.54055 0.91576 0.54037 0.0
O237 O 0.57569 0.92141 0.52499 0.0
O238 O 0.39163 0.37192 0.8079 0.0
Cd239 Cd 0.39904 0.36972 0.7842 0.0
Cd240 Cd 0.36693 0.322 0.78918 0.0
O241 O 0.36484 0.3372 0.81161 0.0
O242 O 0.41827 0.40424 0.78057 0.0
O243 O 0.37916 0.39517 0.76977 0.0
C244 C 0.39856 0.41192 0.77196 0.0
C245 C 0.32893 0.30191 0.77813 0.0
C246 C 0.37722 0.35759 0.81687 0.0
C247 C 0.42409 0.31583 0.77725 0.0
O248 O 0.40267 0.30511 0.78231 0.0
O249 O 0.42623 0.34122 0.77638 0.0
O250 O 0.34238 0.2904 0.7891 0.0
O251 O 0.33653 0.32549 0.7737 0.0
O252 O 0.88877 0.14578 0.05888 0.0
Cd253 Cd 0.89039 0.15021 0.03496 0.0
Cd254 Cd 0.93653 0.11741 0.04045 0.0
O255 O 0.9204 0.11546 0.06273 0.0
O256 O 0.85603 0.16928 0.03081 0.0
O257 O 0.86469 0.12905 0.02135 0.0
C258 C 0.84815 0.1488 0.0229 0.0
C259 C 0.95657 0.07922 0.02955 0.0
C260 C 0.90161 0.13021 0.06795 0.0
C261 C 0.94408 0.17409 0.02778 0.0
O262 O 0.95425 0.15301 0.03369 0.0
O263 O 0.91883 0.17627 0.02623 0.0
O264 O 0.96781 0.09243 0.0407 0.0
O265 O 0.93323 0.08711 0.02487 0.0
O266 O 0.11295 0.63991 0.30837 0.0
Cd267 Cd 0.10862 0.6415 0.28442 0.0
Cd268 Cd 0.14171 0.68727 0.28979 0.0
O269 O 0.14376 0.67109 0.31205 0.0
O270 O 0.08969 0.60711 0.2801 0.0
O271 O 0.13007 0.61592 0.2709 0.0
C272 C 0.11033 0.59932 0.27229 0.0
C273 C 0.17988 0.70708 0.27876 0.0
C274 C 0.12881 0.65254 0.31736 0.0
C275 C 0.08517 0.69534 0.27713 0.0
O276 O 0.10625 0.70533 0.28312 0.0
O277 O 0.08283 0.6701 0.27554 0.0
O278 O 0.16688 0.71837 0.28999 0.0
O279 O 0.17181 0.68379 0.2741 0.0
O280 O 0.62145 0.14764 0.94248 0.0
Cd281 Cd 0.61828 0.15118 0.96641 0.0
Cd282 Cd 0.57469 0.11752 0.96029 0.0
O283 O 0.59265 0.11476 0.93854 0.0
O284 O 0.652 0.17054 0.97168 0.0
O285 O 0.64341 0.12962 0.98014 0.0
C286 C 0.65974 0.14968 0.9793 0.0
C287 C 0.55688 0.07927 0.97223 0.0
C288 C 0.61045 0.13076 0.9334 0.0
C289 C 0.56355 0.17353 0.97219 0.0
O290 O 0.55455 0.15254 0.96559 0.0
O291 O 0.5885 0.17601 0.97488 0.0
O292 O 0.54587 0.08979 0.96006 0.0
O293 O 0.57878 0.08995 0.97738 0.0
O294 O 0.11401 0.36997 0.19307 0.0
Cd295 Cd 0.10929 0.36836 0.21699 0.0
Cd296 Cd 0.1421 0.32217 0.21168 0.0
O297 O 0.14431 0.33826 0.18941 0.0
O298 O 0.09031 0.40278 0.22117 0.0
O299 O 0.13049 0.39395 0.23065 0.0
C300 C 0.11078 0.41056 0.22912 0.0
C301 C 0.18018 0.30219 0.22273 0.0
C302 C 0.1297 0.35708 0.18409 0.0
C303 C 0.0854 0.31462 0.22423 0.0
O304 O 0.10648 0.30442 0.21836 0.0
O305 O 0.08321 0.33989 0.22573 0.0
O306 O 0.16709 0.2909 0.21155 0.0
O307 O 0.17223 0.32554 0.22736 0.0
O308 O 0.89032 0.86254 0.44296 0.0
Cd309 Cd 0.89202 0.85843 0.46691 0.0
Cd310 Cd 0.9376 0.89172 0.4614 0.0
O311 O 0.92132 0.89351 0.43916 0.0
O312 O 0.85773 0.8394 0.47134 0.0
O313 O 0.86639 0.87994 0.48037 0.0
C314 C 0.84987 0.86011 0.47907 0.0
C315 C 0.95728 0.93014 0.47223 0.0
C316 C 0.90283 0.87842 0.43391 0.0
C317 C 0.94598 0.83531 0.47422 0.0
O318 O 0.95584 0.8564 0.46816 0.0
O319 O 0.92076 0.83285 0.47584 0.0
O320 O 0.96859 0.91703 0.46105 0.0
O321 O 0.93406 0.92201 0.47696 0.0
O322 O 0.39657 0.64026 0.69321 0.0
Cd323 Cd 0.40047 0.64323 0.71715 0.0
Cd324 Cd 0.36638 0.68697 0.71118 0.0
O325 O 0.36356 0.66901 0.68944 0.0
O326 O 0.4202 0.60957 0.72225 0.0
O327 O 0.37926 0.61768 0.73081 0.0
C328 C 0.39943 0.60151 0.72986 0.0
C329 C 0.32809 0.70466 0.72317 0.0
C330 C 0.37953 0.65126 0.68422 0.0
C331 C 0.42239 0.69825 0.72306 0.0
O332 O 0.40136 0.70719 0.71647 0.0
O333 O 0.42501 0.67327 0.72569 0.0
O334 O 0.33857 0.71574 0.71101 0.0
O335 O 0.33885 0.68278 0.7283 0.0
O336 O 0.3895 0.1462 0.44299 0.0
Cd337 Cd 0.39213 0.15042 0.4669 0.0
Cd338 Cd 0.4365 0.11691 0.46127 0.0
O339 O 0.41907 0.11387 0.43938 0.0
O340 O 0.35828 0.16999 0.47161 0.0
O341 O 0.36657 0.12935 0.48061 0.0
C342 C 0.35029 0.14939 0.47938 0.0
C343 C 0.45446 0.07873 0.47325 0.0
C344 C 0.40102 0.12941 0.43407 0.0
C345 C 0.44663 0.17324 0.47311 0.0
O346 O 0.45606 0.15218 0.46678 0.0
O347 O 0.42155 0.17561 0.47542 0.0
O348 O 0.46568 0.08954 0.46123 0.0
O349 O 0.43233 0.08914 0.47826 0.0
O350 O 0.61722 0.63848 0.19202 0.0
Cd351 Cd 0.61059 0.64152 0.21574 0.0
Cd352 Cd 0.64212 0.68838 0.21036 0.0
O353 O 0.64477 0.67248 0.18811 0.0
O354 O 0.59125 0.60729 0.21983 0.0
O355 O 0.63066 0.6164 0.23025 0.0
C356 C 0.61111 0.59973 0.22836 0.0
C357 C 0.68011 0.70663 0.22235 0.0
C358 C 0.63195 0.65228 0.18296 0.0
C359 C 0.5853 0.69552 0.222 0.0
O360 O 0.60645 0.70622 0.21654 0.0
O361 O 0.58356 0.67018 0.22341 0.0
O362 O 0.66864 0.71833 0.2107 0.0
O363 O 0.67047 0.68392 0.22698 0.0
O364 O 0.12078 0.86135 0.94444 0.0
Cd365 Cd 0.11821 0.85759 0.96838 0.0
Cd366 Cd 0.07392 0.89118 0.96259 0.0
O367 O 0.09153 0.89394 0.94072 0.0
O368 O 0.15214 0.83824 0.97325 0.0
O369 O 0.14369 0.87905 0.98194 0.0
C370 C 0.16006 0.85906 0.98086 0.0
C371 C 0.05565 0.92947 0.97432 0.0
C372 C 0.1094 0.87815 0.93546 0.0
C373 C 0.0637 0.83492 0.97462 0.0
O374 O 0.05436 0.85593 0.96819 0.0
O375 O 0.08875 0.83255 0.97702 0.0
O376 O 0.04463 0.91847 0.9623 0.0
O377 O 0.07775 0.91922 0.97947 0.0
O378 O 0.89654 0.37318 0.69225 0.0
Cd379 Cd 0.90109 0.37038 0.71612 0.0
Cd380 Cd 0.86767 0.32587 0.71054 0.0
O381 O 0.86445 0.34335 0.68868 0.0
O382 O 0.92047 0.40432 0.72085 0.0
O383 O 0.88005 0.39565 0.73004 0.0
C384 C 0.89995 0.41209 0.72877 0.0
C385 C 0.82962 0.30757 0.72247 0.0
C386 C 0.8798 0.36155 0.68335 0.0
C387 C 0.92423 0.31594 0.72213 0.0
O388 O 0.90305 0.30645 0.71597 0.0
O389 O 0.9266 0.34102 0.72439 0.0
O390 O 0.84049 0.2965 0.71043 0.0
O391 O 0.83989 0.32972 0.72754 0.0
O392 O 0.39043 0.86446 0.0583 0.0
Cd393 Cd 0.39222 0.85988 0.03437 0.0
Cd394 Cd 0.43789 0.8932 0.03995 0.0
O395 O 0.4213 0.89554 0.06208 0.0
O396 O 0.35812 0.84032 0.03023 0.0
O397 O 0.36615 0.88071 0.02082 0.0
C398 C 0.34988 0.86074 0.02239 0.0
C399 C 0.45776 0.93124 0.02884 0.0
C400 C 0.40276 0.88051 0.06732 0.0
C401 C 0.44633 0.83666 0.02741 0.0
O402 O 0.45614 0.85769 0.03356 0.0
O403 O 0.42114 0.83433 0.02557 0.0
O404 O 0.46889 0.91846 0.0402 0.0
O405 O 0.43458 0.92302 0.02408 0.0
O406 O 0.89758 0.63967 0.80859 0.0
Cd407 Cd 0.90116 0.64248 0.78465 0.0
Cd408 Cd 0.8676 0.68658 0.79064 0.0
O409 O 0.86509 0.66894 0.8125 0.0
O410 O 0.92068 0.60871 0.77968 0.0
O411 O 0.87982 0.61699 0.77103 0.0
C412 C 0.89992 0.60074 0.77205 0.0
C413 C 0.82913 0.70442 0.77893 0.0
C414 C 0.88091 0.651 0.81766 0.0
C415 C 0.92364 0.69709 0.77846 0.0
O416 O 0.90268 0.70637 0.78497 0.0
O417 O 0.92605 0.67205 0.77603 0.0
O418 O 0.84008 0.71563 0.79091 0.0
O419 O 0.83956 0.68237 0.77382 0.0
O420 O 0.12181 0.14607 0.55824 0.0
Cd421 Cd 0.1193 0.15088 0.53438 0.0
Cd422 Cd 0.07438 0.11771 0.53974 0.0
O423 O 0.09162 0.11426 0.56166 0.0
O424 O 0.15337 0.1702 0.52986 0.0
O425 O 0.14467 0.12991 0.52048 0.0
C426 C 0.16116 0.14974 0.5219 0.0
C427 C 0.05584 0.07981 0.52774 0.0
C428 C 0.10993 0.12939 0.56707 0.0
C429 C 0.06508 0.17447 0.52825 0.0
O430 O 0.05534 0.15331 0.5343 0.0
O431 O 0.09021 0.17666 0.52609 0.0
O432 O 0.04477 0.09079 0.53975 0.0
O433 O 0.07811 0.0899 0.52273 0.0
O434 O 0.61171 0.37194 0.30796 0.0
Cd435 Cd 0.60768 0.36926 0.28406 0.0
Cd436 Cd 0.6411 0.3249 0.28973 0.0
O437 O 0.64408 0.34242 0.31161 0.0
O438 O 0.58849 0.40325 0.27918 0.0
O439 O 0.62913 0.3945 0.27035 0.0
C440 C 0.60924 0.41099 0.27146 0.0
C441 C 0.67926 0.3066 0.27789 0.0
C442 C 0.62847 0.36043 0.3169 0.0
C443 C 0.58466 0.31488 0.27796 0.0
O444 O 0.60576 0.30543 0.28424 0.0
O445 O 0.58232 0.33995 0.27562 0.0
O446 O 0.66833 0.29556 0.28992 0.0
O447 O 0.669 0.32873 0.27278 0.0
H448 H 0.93663 0.54183 0.99321 0.0
H449 H 0.00965 0.56524 0.96975 0.0
H450 H 0.96072 0.50573 0.00639 0.0
H451 H 0.034 0.53015 0.9834 0.0
H452 H 0.06559 0.44885 0.99925 0.0
H453 H 0.04128 0.48391 0.98532 0.0
H454 H 0.99215 0.4975 0.02624 0.0
H455 H 0.01565 0.46165 0.03982 0.0
C456 C 0.95784 0.53931 0.99091 0.0
C457 C 0.97118 0.55635 0.98041 0.0
C458 C 0.97176 0.51875 0.99857 0.0
C459 C 0.99945 0.51498 0.99607 0.0
C460 C 0.01267 0.53203 0.98547 0.0
C461 C 0.99869 0.55232 0.97768 0.0
C462 C 0.0497 0.45947 0.00528 0.0
C463 C 0.04252 0.45246 0.02062 0.0
C464 C 0.03576 0.47967 0.99731 0.0
C465 C 0.01454 0.49358 0.00458 0.0
C466 C 0.00789 0.48689 0.02009 0.0
C467 C 0.02157 0.46648 0.02796 0.0
H468 H 0.69969 0.69576 0.25156 0.0
H469 H 0.71151 0.74739 0.21162 0.0
H470 H 0.73469 0.7198 0.26566 0.0
H471 H 0.74737 0.77062 0.22533 0.0
H472 H 0.79236 0.82489 0.25869 0.0
H473 H 0.75606 0.80126 0.24543 0.0
H474 H 0.78076 0.72721 0.26751 0.0
H475 H 0.816 0.75111 0.28127 0.0
C476 C 0.71009 0.71198 0.2457 0.0
C477 C 0.70282 0.71969 0.23049 0.0
C478 C 0.73026 0.72576 0.25376 0.0
C479 C 0.74393 0.74735 0.24671 0.0
C480 C 0.73696 0.75458 0.23133 0.0
C481 C 0.71655 0.74106 0.22338 0.0
C482 C 0.78985 0.8036 0.26078 0.0
C483 C 0.80699 0.78991 0.27106 0.0
C484 C 0.76917 0.78995 0.25307 0.0
C485 C 0.76541 0.76217 0.25529 0.0
C486 C 0.7826 0.74861 0.26567 0.0
C487 C 0.80297 0.76233 0.27352 0.0
H488 H 0.50036 0.44338 0.46931 0.0
H489 H 0.57324 0.46614 0.49312 0.0
H490 H 0.47597 0.47825 0.48314 0.0
H491 H 0.54912 0.50202 0.50649 0.0
H492 H 0.494 0.54549 0.54007 0.0
H493 H 0.51749 0.50984 0.52632 0.0
H494 H 0.46888 0.52452 0.48531 0.0
H495 H 0.44458 0.55939 0.49941 0.0
C496 C 0.51128 0.45611 0.47736 0.0
C497 C 0.53876 0.45197 0.48013 0.0
C498 C 0.49729 0.47627 0.48525 0.0
C499 C 0.51046 0.49307 0.496 0.0
C500 C 0.53812 0.48918 0.49855 0.0
C501 C 0.55206 0.46875 0.49079 0.0
C502 C 0.48819 0.54094 0.52815 0.0
C503 C 0.46738 0.55522 0.52083 0.0
C504 C 0.50187 0.52064 0.52019 0.0
C505 C 0.49536 0.51433 0.5046 0.0
C506 C 0.47428 0.52849 0.49736 0.0
C507 C 0.46035 0.54857 0.50541 0.0
H508 H 0.81073 0.31718 0.75199 0.0
H509 H 0.79753 0.26774 0.71125 0.0
H510 H 0.77576 0.29277 0.76592 0.0
H511 H 0.76175 0.24415 0.72483 0.0
H512 H 0.71742 0.18844 0.75779 0.0
H513 H 0.75349 0.21253 0.74457 0.0
H514 H 0.72955 0.2857 0.76788 0.0
H515 H 0.69453 0.26134 0.78157 0.0
C516 C 0.80004 0.30137 0.74593 0.0
C517 C 0.80691 0.29437 0.73054 0.0
C518 C 0.7799 0.28738 0.75389 0.0
C519 C 0.76587 0.26629 0.74657 0.0
C520 C 0.77244 0.25979 0.73102 0.0
C521 C 0.79281 0.27352 0.72315 0.0
C522 C 0.72005 0.20963 0.76015 0.0
C523 C 0.70319 0.22294 0.77076 0.0
C524 C 0.74058 0.22355 0.75247 0.0
C525 C 0.74449 0.2512 0.75506 0.0
C526 C 0.72758 0.26439 0.76575 0.0
C527 C 0.70733 0.25041 0.77356 0.0
H528 H 0.94542 0.44984 0.49839 0.0
H529 H 0.99498 0.46259 0.53911 0.0
H530 H 0.96998 0.48477 0.4845 0.0
H531 H 0.01873 0.49832 0.52558 0.0
H532 H 0.07448 0.54283 0.49281 0.0
H533 H 0.05034 0.50659 0.50583 0.0
H534 H 0.97723 0.53101 0.48265 0.0
H535 H 1.00164 0.56623 0.46915 0.0
C536 C 0.96129 0.46041 0.50445 0.0
C537 C 0.96827 0.45344 0.51983 0.0
C538 C 0.97537 0.48053 0.49651 0.0
C539 C 0.99654 0.49442 0.50384 0.0
C540 C 1.00303 0.48774 0.51938 0.0
C541 C 0.98921 0.46739 0.52722 0.0
C542 C 0.0533 0.54027 0.49043 0.0
C543 C 0.04001 0.55735 0.47992 0.0
C544 C 0.03935 0.51963 0.498 0.0
C545 C 0.01169 0.51583 0.4954 0.0
C546 C 0.99854 0.53291 0.48479 0.0
C547 C 0.01255 0.55327 0.47708 0.0
H548 H 0.69219 0.74921 0.72082 0.0
H549 H 0.71667 0.82287 0.74322 0.0
H550 H 0.72742 0.72506 0.73449 0.0
H551 H 0.75285 0.79894 0.75643 0.0
H552 H 0.79741 0.74467 0.79004 0.0
H553 H 0.76128 0.76791 0.77657 0.0
H554 H 0.77383 0.71785 0.73593 0.0
H555 H 0.80923 0.69384 0.74975 0.0
C556 C 0.70536 0.76034 0.72853 0.0
C557 C 0.70162 0.78798 0.73094 0.0
C558 C 0.72571 0.74648 0.73632 0.0
C559 C 0.74311 0.75994 0.74662 0.0
C560 C 0.73957 0.78773 0.74884 0.0
C561 C 0.71896 0.80155 0.74117 0.0
C562 C 0.7923 0.73849 0.77827 0.0
C563 C 0.80615 0.71737 0.77097 0.0
C564 C 0.77172 0.75202 0.77047 0.0
C565 C 0.76466 0.74501 0.75507 0.0
C566 C 0.77838 0.72363 0.74784 0.0
C567 C 0.79877 0.70987 0.75574 0.0
H568 H 0.4949 0.46085 0.96163 0.0
H569 H 0.44271 0.44941 0.00137 0.0
H570 H 0.51795 0.49682 0.97534 0.0
H571 H 0.46657 0.48457 0.01546 0.0
H572 H 0.49777 0.56615 0.03083 0.0
H573 H 0.47398 0.5308 0.01708 0.0
H574 H 0.54833 0.5054 0.99566 0.0
H575 H 0.57188 0.54176 0.00892 0.0
C576 C 0.48841 0.46599 0.97334 0.0
C577 C 0.46694 0.45233 0.9804 0.0
C578 C 0.50182 0.48647 0.98129 0.0
C579 C 0.49438 0.49359 0.99661 0.0
C580 C 0.47269 0.48 0.00361 0.0
C581 C 0.45902 0.45974 0.99556 0.0
C582 C 0.50908 0.55295 0.02323 0.0
C583 C 0.53673 0.55678 0.02095 0.0
C584 C 0.49542 0.53252 0.01539 0.0
C585 C 0.50912 0.51511 0.00519 0.0
C586 C 0.53694 0.51869 0.00316 0.0
C587 C 0.55055 0.5394 0.01086 0.0
H588 H 0.81499 0.26031 0.21924 0.0
H589 H 0.79199 0.18749 0.24306 0.0
H590 H 0.7797 0.28465 0.2327 0.0
H591 H 0.75568 0.21155 0.25606 0.0
H592 H 0.71132 0.26681 0.2892 0.0
H593 H 0.74721 0.24321 0.27573 0.0
H594 H 0.73345 0.29173 0.23457 0.0
H595 H 0.69835 0.31615 0.2484 0.0
C596 C 0.80211 0.24938 0.2272 0.0
C597 C 0.80632 0.22195 0.23009 0.0
C598 C 0.7817 0.26335 0.23489 0.0
C599 C 0.7647 0.25019 0.24554 0.0
C600 C 0.76865 0.22256 0.24819 0.0
C601 C 0.78933 0.20865 0.24064 0.0
C602 C 0.71611 0.27257 0.27731 0.0
C603 C 0.70204 0.2934 0.26988 0.0
C604 C 0.73655 0.25883 0.2695 0.0
C605 C 0.74322 0.26529 0.25396 0.0
C606 C 0.72923 0.28636 0.24659 0.0
C607 C 0.70901 0.30036 0.25449 0.0
H608 H 0.29151 0.32247 0.75793 0.0
H609 H 0.31546 0.24919 0.78096 0.0
H610 H 0.25523 0.29846 0.74487 0.0
H611 H 0.28016 0.22494 0.76744 0.0
H612 H 0.19867 0.19346 0.75194 0.0
H613 H 0.23378 0.21778 0.76581 0.0
H614 H 0.24696 0.26711 0.72492 0.0
H615 H 0.2111 0.24357 0.7114 0.0
C616 C 0.28907 0.30122 0.76016 0.0
C617 C 0.30632 0.28777 0.7705 0.0
C618 C 0.2684 0.28736 0.75258 0.0
C619 C 0.26472 0.25963 0.755 0.0
C620 C 0.28198 0.24631 0.76544 0.0
C621 C 0.30238 0.26023 0.77315 0.0
C622 C 0.2092 0.2094 0.74591 0.0
C623 C 0.20209 0.21661 0.73059 0.0
C624 C 0.22942 0.22334 0.75384 0.0
C625 C 0.24325 0.2446 0.74656 0.0
C626 C 0.23643 0.25132 0.73108 0.0
C627 C 0.216 0.23763 0.72324 0.0
H628 H 0.19384 0.7596 0.28192 0.0
H629 H 0.21662 0.68675 0.25805 0.0
H630 H 0.22883 0.78397 0.2682 0.0
H631 H 0.25262 0.71085 0.2448 0.0
H632 H 0.29623 0.76609 0.21132 0.0
H633 H 0.26058 0.74251 0.22502 0.0
H634 H 0.27506 0.79108 0.26607 0.0
H635 H 0.30992 0.81546 0.25202 0.0
C636 C 0.20662 0.74867 0.27389 0.0
C637 C 0.20243 0.72122 0.27106 0.0
C638 C 0.22684 0.76266 0.26606 0.0
C639 C 0.24368 0.7495 0.25532 0.0
C640 C 0.23977 0.72185 0.25273 0.0
C641 C 0.21926 0.70792 0.26043 0.0
C642 C 0.29164 0.77187 0.22324 0.0
C643 C 0.30585 0.79269 0.23058 0.0
C644 C 0.27134 0.75814 0.23117 0.0
C645 C 0.26496 0.76462 0.24675 0.0
C646 C 0.27907 0.7857 0.25403 0.0
C647 C 0.29914 0.79968 0.24599 0.0
H648 H 0.31016 0.19347 0.24914 0.0
H649 H 0.29748 0.24339 0.28973 0.0
H650 H 0.27517 0.21788 0.23522 0.0
H651 H 0.2617 0.267 0.27616 0.0
H652 H 0.21727 0.32256 0.24321 0.0
H653 H 0.25341 0.29845 0.25634 0.0
H654 H 0.22896 0.22518 0.23334 0.0
H655 H 0.19384 0.24955 0.21973 0.0
C656 C 0.29958 0.20938 0.25517 0.0
C657 C 0.3066 0.21651 0.27052 0.0
C658 C 0.27943 0.22338 0.24721 0.0
C659 C 0.26555 0.24462 0.25449 0.0
C660 C 0.27227 0.25125 0.27 0.0
C661 C 0.29264 0.23751 0.27786 0.0
C662 C 0.21979 0.30135 0.2409 0.0
C663 C 0.20274 0.28801 0.2304 0.0
C664 C 0.24038 0.28742 0.24853 0.0
C665 C 0.24415 0.25973 0.24601 0.0
C666 C 0.22708 0.24652 0.23542 0.0
C667 C 0.20678 0.26051 0.22765 0.0
H668 H 0.19368 0.75055 0.78302 0.0
H669 H 0.21627 0.82344 0.75913 0.0
H670 H 0.22852 0.72617 0.76916 0.0
H671 H 0.2521 0.79932 0.74571 0.0
H672 H 0.29542 0.74416 0.71209 0.0
H673 H 0.25979 0.76761 0.72589 0.0
H674 H 0.27482 0.71917 0.76692 0.0
H675 H 0.30969 0.69491 0.75279 0.0
C676 C 0.20637 0.76148 0.77495 0.0
C677 C 0.20219 0.78896 0.77217 0.0
C678 C 0.2265 0.74749 0.76704 0.0
C679 C 0.24324 0.76066 0.75625 0.0
C680 C 0.23931 0.78832 0.75369 0.0
C681 C 0.21891 0.80226 0.76148 0.0
C682 C 0.29095 0.73837 0.72402 0.0
C683 C 0.30534 0.71764 0.73134 0.0
C684 C 0.27067 0.75203 0.73201 0.0
C685 C 0.26446 0.74556 0.74762 0.0
C686 C 0.27871 0.72454 0.75486 0.0
C687 C 0.29879 0.71063 0.74678 0.0
H688 H 0.49943 0.94275 0.53209 0.0
H689 H 0.57287 0.96638 0.50915 0.0
H690 H 0.47534 0.97803 0.51843 0.0
H691 H 0.54903 1.00263 0.49596 0.0
H692 H 0.49455 0.04672 0.46226 0.0
H693 H 0.51785 0.01084 0.47592 0.0
H694 H 0.46825 0.02441 0.51665 0.0
H695 H 0.44416 0.05954 0.50264 0.0
C696 C 0.51053 0.95575 0.52427 0.0
C697 C 0.53808 0.95173 0.52169 0.0
C698 C 0.49671 0.97614 0.51648 0.0
C699 C 0.51012 0.99329 0.50602 0.0
C700 C 0.53785 0.98953 0.50367 0.0
C701 C 0.55162 0.96888 0.51133 0.0
C702 C 0.48849 0.0419 0.4741 0.0
C703 C 0.46746 0.05594 0.48136 0.0
C704 C 0.50205 0.02146 0.48201 0.0
C705 C 0.49519 0.01475 0.49749 0.0
C706 C 0.47392 0.02869 0.50468 0.0
C707 C 0.46011 0.04892 0.49667 0.0
H708 H 0.06525 0.94882 0.00374 0.0
H709 H 0.01577 0.96139 0.96296 0.0
H710 H 0.04079 0.98397 0.01751 0.0
H711 H 0.99212 0.99732 0.97638 0.0
H712 H 0.93633 0.04203 0.00908 0.0
H713 H 0.96049 0.00577 0.99609 0.0
H714 H 0.03358 0.03023 0.01927 0.0
H715 H 0.00915 0.06549 0.03273 0.0
C716 C 0.04942 0.9594 0.99764 0.0
C717 C 0.04243 0.95231 0.98228 0.0
C718 C 0.0354 0.97965 0.00551 0.0
C719 C 0.01428 0.99354 0.99813 0.0
C720 C 0.00779 0.98675 0.98261 0.0
C721 C 0.02156 0.96628 0.97484 0.0
C722 C 0.95751 0.03949 0.01146 0.0
C723 C 0.97078 0.05658 0.02196 0.0
C724 C 0.97148 0.01883 0.00391 0.0
C725 C 0.99913 0.01502 0.00652 0.0
C726 C 0.01227 0.03214 0.01712 0.0
C727 C 0.99824 0.05252 0.0248 0.0
H728 H 0.51761 0.0465 0.96102 0.0
H729 H 0.56617 0.06113 0.00194 0.0
H730 H 0.49395 0.01098 0.97479 0.0
H731 H 0.5417 0.0264 0.01604 0.0
H732 H 0.51018 0.94537 0.03221 0.0
H733 H 0.5347 0.98016 0.01841 0.0
H734 H 0.46195 1.00337 0.99443 0.0
H735 H 0.4377 0.96755 0.00778 0.0
C736 C 0.5232 0.04213 0.97299 0.0
C737 C 0.54381 0.05658 0.98038 0.0
C738 C 0.50942 0.02192 0.98097 0.0
C739 C 0.51564 0.01585 0.99663 0.0
C740 C 0.53653 0.03017 0.00394 0.0
C741 C 0.55056 0.05017 0.99588 0.0
C742 C 0.49937 0.95798 0.02404 0.0
C743 C 0.47197 0.95368 0.02108 0.0
C744 C 0.51344 0.97808 0.01616 0.0
C745 C 0.50043 0.99469 0.00524 0.0
C746 C 0.47284 0.99068 0.00251 0.0
C747 C 0.45882 0.97029 0.01026 0.0
H748 H 0.0655 0.06075 0.49826 0.0
H749 H 0.0158 0.04796 0.53893 0.0
H750 H 0.04109 0.02573 0.48437 0.0
H751 H 0.9922 0.01214 0.5254 0.0
H752 H 0.93678 0.96727 0.49264 0.0
H753 H 0.96072 1.00365 0.50565 0.0
H754 H 0.03399 0.9795 0.48253 0.0
H755 H 0.00977 0.94415 0.46905 0.0
C756 C 0.04963 0.05015 0.50431 0.0
C757 C 0.04257 0.05714 0.51968 0.0
C758 C 0.03563 0.02998 0.49637 0.0
C759 C 0.01448 0.01605 0.50369 0.0
C760 C 0.00789 0.02276 0.51921 0.0
C761 C 0.02163 0.04315 0.52705 0.0
C762 C 0.95795 0.96992 0.49027 0.0
C763 C 0.97133 0.95288 0.47979 0.0
C764 C 0.97179 0.99064 0.49783 0.0
C765 C 0.99944 0.99456 0.49525 0.0
C766 C 0.01268 0.97751 0.48466 0.0
C767 C 0.99878 0.95708 0.47696 0.0
H768 H 0.92977 0.22329 0.01605 0.0
H769 H 0.99851 0.17706 0.03098 0.0
H770 H 0.95839 0.26258 0.01279 0.0
H771 H 0.02682 0.21636 0.02812 0.0
H772 H 0.07622 0.28725 0.01436 0.0
H773 H 0.04716 0.2484 0.01078 0.0
H774 H 0.98082 0.2928 0.03046 0.0
H775 H 0.00956 0.33175 0.03364 0.0
C776 C 0.951 0.2214 0.01849 0.0
C777 C 0.96177 0.19706 0.02393 0.0
C778 C 0.96738 0.24398 0.0167 0.0
C779 C 0.99487 0.24272 0.02032 0.0
C780 C 0.00581 0.21803 0.02505 0.0
C781 C 0.98949 0.19548 0.0268 0.0
C782 C 0.05533 0.28885 0.01771 0.0
C783 C 0.04531 0.31256 0.02443 0.0
C784 C 0.0387 0.26652 0.01573 0.0
C785 C 0.0117 0.26737 0.02046 0.0
C786 C 1.00142 0.29148 0.02652 0.0
C787 C 0.018 0.31381 0.02846 0.0
H788 H 0.03659 0.68168 0.26433 0.0
H789 H 0.08211 0.74962 0.28109 0.0
H790 H 0.99759 0.71057 0.2607 0.0
H791 H 0.04307 0.77818 0.27792 0.0
H792 H 0.97296 0.82853 0.26421 0.0
H793 H 0.01194 0.79961 0.26062 0.0
H794 H 0.96644 0.73209 0.27795 0.0
H795 H 0.92742 0.76068 0.28109 0.0
C796 C 0.03838 0.70279 0.26711 0.0
C797 C 0.06242 0.71324 0.27315 0.0
C798 C 0.01597 0.71934 0.26511 0.0
C799 C 0.01708 0.74667 0.26915 0.0
C800 C 0.04152 0.75732 0.2745 0.0
C801 C 0.06391 0.74084 0.27644 0.0
C802 C 0.97116 0.80743 0.26702 0.0
C803 C 0.94712 0.79701 0.27309 0.0
C804 C 0.99356 0.79087 0.26504 0.0
C805 C 0.99245 0.76355 0.26914 0.0
C806 C 0.968 0.75293 0.2745 0.0
C807 C 0.94562 0.76943 0.27642 0.0
H808 H 0.43531 0.71968 0.51424 0.0
H809 H 0.5007 0.67605 0.53556 0.0
H810 H 0.46459 0.75836 0.5107 0.0
H811 H 0.52963 0.71489 0.53246 0.0
H812 H 0.51153 0.83077 0.53051 0.0
H813 H 0.48365 0.79121 0.52778 0.0
H814 H 0.55333 0.74445 0.51512 0.0
H815 H 0.58153 0.78409 0.5183 0.0
C816 C 0.45596 0.71825 0.51807 0.0
C817 C 0.46556 0.69483 0.52533 0.0
C818 C 0.47272 0.74049 0.51611 0.0
C819 C 0.49942 0.73987 0.52143 0.0
C820 C 0.5093 0.71603 0.52806 0.0
C821 C 0.4926 0.69377 0.52994 0.0
C822 C 0.52095 0.81216 0.52696 0.0
C823 C 0.54886 0.81059 0.5248 0.0
C824 C 0.50486 0.78944 0.52527 0.0
C825 C 0.51623 0.76455 0.52131 0.0
C826 C 0.54398 0.76322 0.51843 0.0
C827 C 0.56013 0.78598 0.52017 0.0
H828 H 0.5379 0.18407 0.76396 0.0
H829 H 0.58249 0.25119 0.78258 0.0
H830 H 0.49891 0.213 0.76043 0.0
H831 H 0.54343 0.27974 0.77955 0.0
H832 H 0.47349 0.33069 0.76595 0.0
H833 H 0.51291 0.30226 0.76255 0.0
H834 H 0.46684 0.23334 0.77731 0.0
H835 H 0.42745 0.26141 0.78019 0.0
C836 C 0.53947 0.20501 0.76719 0.0
C837 C 0.56327 0.21521 0.77369 0.0
C838 C 0.51706 0.22158 0.76524 0.0
C839 C 0.51789 0.24869 0.76983 0.0
C840 C 0.54208 0.2591 0.7757 0.0
C841 C 0.56449 0.2426 0.77755 0.0
C842 C 0.4717 0.3094 0.76824 0.0
C843 C 0.44734 0.29841 0.77348 0.0
C844 C 0.49435 0.29311 0.76638 0.0
C845 C 0.49318 0.2655 0.76978 0.0
C846 C 0.46849 0.2544 0.77438 0.0
C847 C 0.44587 0.27061 0.77615 0.0
H848 H 0.93259 0.78678 0.4872 0.0
H849 H 1.00023 0.83241 0.47013 0.0
H850 H 0.96164 0.74789 0.49084 0.0
H851 H 0.02894 0.79348 0.47331 0.0
H852 H 0.07962 0.72355 0.48698 0.0
H853 H 0.05063 0.76249 0.49058 0.0
H854 H 0.98307 0.71669 0.47361 0.0
H855 H 0.01172 0.67772 0.47047 0.0
C856 C 0.95368 0.78862 0.48436 0.0
C857 C 0.964 0.81266 0.47822 0.0
C858 C 0.97031 0.76627 0.48637 0.0
C859 C 0.9976 0.76744 0.48223 0.0
C860 C 0.00812 0.79188 0.4768 0.0
C861 C 0.99155 0.81421 0.47486 0.0
C862 C 0.05849 0.72168 0.48425 0.0
C863 C 0.04808 0.69756 0.47828 0.0
C864 C 0.04189 0.74406 0.48624 0.0
C865 C 0.01454 0.74284 0.48225 0.0
C866 C 1.00394 0.71833 0.47698 0.0
C867 C 0.02047 0.69597 0.47506 0.0
H868 H 0.53376 0.83334 0.73265 0.0
H869 H 0.58082 0.76264 0.72247 0.0
H870 H 0.49395 0.80534 0.73579 0.0
H871 H 0.54113 0.73496 0.72513 0.0
H872 H 0.46923 0.68726 0.73858 0.0
H873 H 0.50772 0.7168 0.74206 0.0
H874 H 0.46494 0.78061 0.71865 0.0
H875 H 0.42626 0.75144 0.71562 0.0
C876 C 0.5357 0.81184 0.73123 0.0
C877 C 0.56048 0.8003 0.72719 0.0
C878 C 0.51283 0.7958 0.73293 0.0
C879 C 0.51424 0.76788 0.73061 0.0
C880 C 0.53928 0.7563 0.72721 0.0
C881 C 0.56208 0.77227 0.72556 0.0
C882 C 0.46791 0.70771 0.73437 0.0
C883 C 0.44473 0.71687 0.72668 0.0
C884 C 0.49003 0.72462 0.7363 0.0
C885 C 0.48958 0.75103 0.7305 0.0
C886 C 0.46595 0.76052 0.72343 0.0
C887 C 0.44378 0.74368 0.72158 0.0
H888 H 0.50996 0.17674 0.96573 0.0
H889 H 0.57521 0.22138 0.98645 0.0
H890 H 0.48084 0.21553 0.96844 0.0
H891 H 0.54576 0.26006 0.98955 0.0
H892 H 0.42873 0.28486 0.98237 0.0
H893 H 0.45723 0.24549 0.98574 0.0
H894 H 0.5263 0.29215 0.97192 0.0
H895 H 0.49809 0.3315 0.96897 0.0
C896 C 0.51799 0.19467 0.97113 0.0
C897 C 0.54505 0.19602 0.9757 0.0
C898 C 0.50119 0.21691 0.97278 0.0
C899 C 0.51099 0.24102 0.97911 0.0
C900 C 0.5377 0.24195 0.98438 0.0
C901 C 0.55455 0.21972 0.98267 0.0
C902 C 0.45006 0.2868 0.98026 0.0
C903 C 0.46106 0.31131 0.97526 0.0
C904 C 0.46638 0.26418 0.98212 0.0
C905 C 0.49404 0.26558 0.979 0.0
C906 C 0.50516 0.29038 0.97462 0.0
C907 C 0.48889 0.31295 0.9728 0.0
H908 H 0.03676 0.3288 0.23677 0.0
H909 H 0.08198 0.26032 0.22046 0.0
H910 H 0.99752 0.30024 0.24036 0.0
H911 H 0.04271 0.23209 0.2236 0.0
H912 H 0.97216 0.18243 0.23747 0.0
H913 H 0.01131 0.21114 0.24096 0.0
H914 H 0.96636 0.27865 0.22312 0.0
H915 H 0.92717 0.25027 0.22008 0.0
C916 C 0.03843 0.30764 0.23408 0.0
C917 C 0.06247 0.29693 0.22818 0.0
C918 C 0.01588 0.29129 0.23606 0.0
C919 C 0.01684 0.26389 0.23214 0.0
C920 C 0.04126 0.253 0.22692 0.0
C921 C 0.0638 0.26929 0.225 0.0
C922 C 0.97052 0.20349 0.23453 0.0
C923 C 0.94658 0.21396 0.22835 0.0
C924 C 0.99302 0.21993 0.23644 0.0
C925 C 0.99211 0.24718 0.23218 0.0
C926 C 0.96777 0.25787 0.2267 0.0
C927 C 0.94528 0.24149 0.22484 0.0
H928 H 0.99874 0.67681 0.97107 0.0
H929 H 0.92977 0.72292 0.98575 0.0
H930 H 0.02698 0.7161 0.97412 0.0
H931 H 0.95832 0.76221 0.98921 0.0
H932 H 0.00986 0.8316 0.96894 0.0
H933 H 0.98106 0.79262 0.9718 0.0
H934 H 0.04706 0.74796 0.99166 0.0
H935 H 0.07619 0.78684 0.9884 0.0
C936 C 0.98965 0.6952 0.97522 0.0
C937 C 0.96189 0.69674 0.97799 0.0
C938 C 0.00594 0.71775 0.97709 0.0
C939 C 0.99492 0.74241 0.98182 0.0
C940 C 0.96737 0.74364 0.9853 0.0
C941 C 0.95103 0.72106 0.9834 0.0
C942 C 0.01821 0.8136 0.97409 0.0
C943 C 0.04545 0.81229 0.97826 0.0
C944 C 1.00159 0.79125 0.97584 0.0
C945 C 0.01176 0.76705 0.98186 0.0
C946 C 0.03869 0.76614 0.98673 0.0
C947 C 0.05536 0.78849 0.98493 0.0
H948 H 0.97314 0.32894 0.73466 0.0
H949 H 0.92703 0.2618 0.71735 0.0
H950 H 0.01204 0.29977 0.73775 0.0
H951 H 0.966 0.23291 0.72008 0.0
H952 H 0.03582 0.18208 0.73465 0.0
H953 H 0.99691 0.21124 0.73777 0.0
H954 H 0.04288 0.27809 0.72001 0.0
H955 H 0.08186 0.24922 0.71726 0.0
C956 C 0.97121 0.30793 0.73164 0.0
C957 C 0.947 0.29778 0.72562 0.0
C958 C 0.99356 0.29124 0.73333 0.0
C959 C 0.99223 0.26404 0.72905 0.0
C960 C 0.96769 0.25368 0.72366 0.0
C961 C 0.94535 0.27033 0.72199 0.0
C962 C 0.03773 0.20308 0.73161 0.0
C963 C 0.06192 0.21323 0.72557 0.0
C964 C 0.01538 0.21977 0.73333 0.0
C965 C 0.01669 0.24697 0.72903 0.0
C966 C 0.04121 0.25733 0.72361 0.0
C967 C 0.06355 0.24068 0.72192 0.0
H968 H 0.51127 0.33156 0.4699 0.0
H969 H 0.58024 0.28549 0.48464 0.0
H970 H 0.4831 0.29218 0.47278 0.0
H971 H 0.55176 0.2461 0.48792 0.0
H972 H 0.50047 0.17672 0.46746 0.0
H973 H 0.52918 0.21576 0.47041 0.0
H974 H 0.46299 0.2602 0.49023 0.0
H975 H 0.43396 0.22127 0.48687 0.0
C976 C 0.52038 0.31315 0.47403 0.0
C977 C 0.54811 0.31165 0.47687 0.0
C978 C 0.50413 0.29055 0.47579 0.0
C979 C 0.51517 0.26588 0.48049 0.0
C980 C 0.54269 0.26469 0.48404 0.0
C981 C 0.55899 0.28731 0.48224 0.0
C982 C 0.49207 0.19469 0.47262 0.0
C983 C 0.4648 0.19593 0.47675 0.0
C984 C 0.50863 0.21707 0.47442 0.0
C985 C 0.49837 0.24122 0.48046 0.0
C986 C 0.47142 0.24205 0.48529 0.0
C987 C 0.45481 0.21968 0.48344 0.0
H988 H 0.42667 0.75974 0.21637 0.0
H989 H 0.47059 0.82581 0.23673 0.0
H990 H 0.46584 0.73114 0.21912 0.0
H991 H 0.50965 0.7969 0.23987 0.0
H992 H 0.58151 0.74996 0.21918 0.0
H993 H 0.54183 0.77768 0.22219 0.0
H994 H 0.49626 0.70814 0.23645 0.0
H995 H 0.53596 0.68012 0.23303 0.0
C996 C 0.44452 0.76806 0.2217 0.0
C997 C 0.44556 0.79519 0.22615 0.0
C998 C 0.46698 0.75156 0.22338 0.0
C999 C 0.491 0.76176 0.22961 0.0
C1000 C 0.49161 0.78854 0.23477 0.0
C1001 C 0.46916 0.80508 0.23305 0.0
C1002 C 0.56314 0.74056 0.22313 0.0
C1003 C 0.56189 0.71273 0.22569 0.0
C1004 C 0.54038 0.75654 0.22497 0.0
C1005 C 0.51578 0.74514 0.22949 0.0
C1006 C 0.51479 0.71749 0.23272 0.0
C1007 C 0.53759 0.70145 0.23084 0.0
H1008 H 0.93243 0.28747 0.51569 0.0
H1009 H 0.9999 0.33279 0.53327 0.0
H1010 H 0.96123 0.2483 0.51256 0.0
H1011 H 0.02841 0.29354 0.53051 0.0
H1012 H 0.07864 0.22335 0.51584 0.0
H1013 H 0.04988 0.26257 0.51278 0.0
H1014 H 0.98248 0.21707 0.53022 0.0
H1015 H 0.01095 0.17778 0.53292 0.0
C1016 C 0.95343 0.28917 0.51876 0.0
C1017 C 0.96378 0.31324 0.52486 0.0
C1018 C 0.9699 0.26666 0.51705 0.0
C1019 C 0.99709 0.26769 0.5214 0.0
C1020 C 0.00765 0.29209 0.52687 0.0
C1021 C 0.99122 0.31459 0.52856 0.0
C1022 C 0.0576 0.2216 0.51882 0.0
C1023 C 0.04717 0.19745 0.52476 0.0
C1024 C 0.04115 0.24414 0.51714 0.0
C1025 C 0.01391 0.24305 0.52137 0.0
C1026 C 1.00328 0.21857 0.52668 0.0
C1027 C 0.01969 0.19605 0.52834 0.0
H1028 H 0.4727 0.1812 0.26604 0.0
H1029 H 0.42697 0.24874 0.28319 0.0
H1030 H 0.51167 0.21019 0.2627 0.0
H1031 H 0.466 0.27744 0.28021 0.0
H1032 H 0.58176 0.26078 0.28288 0.0
H1033 H 0.54273 0.23197 0.28026 0.0
H1034 H 0.49685 0.29876 0.26232 0.0
H1035 H 0.53582 0.32786 0.26531 0.0
C1036 C 0.47086 0.20225 0.26897 0.0
C1037 C 0.44674 0.21257 0.27502 0.0
C1038 C 0.49325 0.21884 0.26713 0.0
C1039 C 0.49205 0.2461 0.2713 0.0
C1040 C 0.46759 0.25662 0.27671 0.0
C1041 C 0.44521 0.24008 0.27853 0.0
C1042 C 0.56347 0.26931 0.2782 0.0
C1043 C 0.56188 0.29673 0.27447 0.0
C1044 C 0.54109 0.2527 0.27659 0.0
C1045 C 0.51657 0.26308 0.27117 0.0
C1046 C 0.51531 0.29023 0.26677 0.0
C1047 C 0.53771 0.30688 0.2684 0.0
H1048 H 0.43329 0.78882 0.01349 0.0
H1049 H 0.50022 0.83295 0.0327 0.0
H1050 H 0.46214 0.7498 0.00993 0.0
H1051 H 0.5287 0.79384 0.02962 0.0
H1052 H 0.57944 0.72364 0.01619 0.0
H1053 H 0.55131 0.76323 0.0126 0.0
H1054 H 0.48192 0.71762 0.02706 0.0
H1055 H 0.5097 0.67807 0.03015 0.0
C1056 C 0.45418 0.7903 0.01684 0.0
C1057 C 0.46434 0.81395 0.02353 0.0
C1058 C 0.4707 0.76786 0.01487 0.0
C1059 C 0.49771 0.76853 0.01963 0.0
C1060 C 0.50812 0.79262 0.02565 0.0
C1061 C 0.49167 0.81506 0.02753 0.0
C1062 C 0.55811 0.72198 0.01836 0.0
C1063 C 0.5469 0.69771 0.0236 0.0
C1064 C 0.542 0.74472 0.01639 0.0
C1065 C 0.51435 0.74373 0.01966 0.0
C1066 C 0.50303 0.71913 0.02423 0.0
C1067 C 0.51907 0.69642 0.02613 0.0
H1068 H 0.97151 0.68473 0.76443 0.0
H1069 H 0.92705 0.75088 0.78433 0.0
H1070 H 0.0104 0.71385 0.76117 0.0
H1071 H 0.96605 0.77968 0.78146 0.0
H1072 H 0.03581 0.83096 0.76757 0.0
H1073 H 0.9964 0.80258 0.76408 0.0
H1074 H 0.04238 0.73357 0.77878 0.0
H1075 H 0.08178 0.76165 0.78187 0.0
C1076 C 0.96993 0.70552 0.76799 0.0
C1077 C 0.94623 0.71538 0.77479 0.0
C1078 C 0.99228 0.72218 0.76619 0.0
C1079 C 0.99146 0.74905 0.77119 0.0
C1080 C 0.96734 0.75919 0.77732 0.0
C1081 C 0.94499 0.74258 0.77907 0.0
C1082 C 0.0376 0.80966 0.76983 0.0
C1083 C 0.06192 0.79865 0.77514 0.0
C1084 C 0.01497 0.79342 0.76791 0.0
C1085 C 0.01614 0.76582 0.77127 0.0
C1086 C 0.04078 0.75466 0.77591 0.0
C1087 C 0.06338 0.77085 0.77779 0.0
H1088 H 0.32388 0.40071 0.99502 0.0
H1089 H 0.31012 0.321 0.97687 0.0
H1090 H 0.27816 0.40135 0.00556 0.0
H1091 H 0.26472 0.32186 0.98708 0.0
H1092 H 0.18468 0.40123 0.0071 0.0
H1093 H 0.2305 0.40227 0.99675 0.0
H1094 H 0.24246 0.32068 0.01224 0.0
H1095 H 0.19694 0.31947 0.02226 0.0
C1096 C 0.31117 0.38334 0.99332 0.0
C1097 C 0.3207 0.36075 0.98519 0.0
C1098 C 0.28493 0.3838 0.99923 0.0
C1099 C 0.26782 0.36163 0.99719 0.0
C1100 C 0.27747 0.33911 0.98906 0.0
C1101 C 0.30353 0.33868 0.98315 0.0
C1102 C 0.19709 0.38351 0.0082 0.0
C1103 C 0.18709 0.36022 0.01541 0.0
C1104 C 0.22339 0.38418 0.00239 0.0
C1105 C 0.24011 0.36153 0.00363 0.0
C1106 C 0.23002 0.33834 0.01088 0.0
C1107 C 0.20389 0.33769 0.01668 0.0
H1108 H 0.85751 0.07518 0.24522 0.0
H1109 H 0.93834 0.06247 0.22858 0.0
H1110 H 0.85667 0.02925 0.25545 0.0
H1111 H 0.93731 0.01686 0.23847 0.0
H1112 H 0.85787 0.93569 0.25675 0.0
H1113 H 0.8568 0.98163 0.24655 0.0
H1114 H 0.93736 0.99439 0.26354 0.0
H1115 H 0.93863 0.94877 0.2734 0.0
C1116 C 0.87507 0.06264 0.24376 0.0
C1117 C 0.89804 0.07256 0.23618 0.0
C1118 C 0.87451 0.03629 0.2495 0.0
C1119 C 0.89697 0.01943 0.24782 0.0
C1120 C 0.91983 0.02942 0.24019 0.0
C1121 C 0.92037 0.0556 0.23446 0.0
C1122 C 0.87536 0.94831 0.25822 0.0
C1123 C 0.89839 0.9385 0.26579 0.0
C1124 C 0.87467 0.97468 0.2525 0.0
C1125 C 0.89703 0.99165 0.25419 0.0
C1126 C 0.91994 0.98176 0.26182 0.0
C1127 C 0.92062 0.95556 0.26753 0.0
H1128 H 0.18659 0.6086 0.49485 0.0
H1129 H 0.20014 0.68888 0.47753 0.0
H1130 H 0.2325 0.60751 0.50506 0.0
H1131 H 0.24575 0.68758 0.48739 0.0
H1132 H 0.31375 0.68893 0.52249 0.0
H1133 H 0.26829 0.6881 0.51238 0.0
H1134 H 0.28004 0.60679 0.49634 0.0
H1135 H 0.3258 0.60744 0.5068 0.0
C1136 C 0.19931 0.62598 0.49323 0.0
C1137 C 0.18963 0.64889 0.48547 0.0
C1138 C 0.22566 0.62527 0.49896 0.0
C1139 C 0.24277 0.6475 0.49709 0.0
C1140 C 0.23302 0.67028 0.48926 0.0
C1141 C 0.20683 0.67097 0.48355 0.0
C1142 C 0.30678 0.67086 0.51676 0.0
C1143 C 0.32349 0.64828 0.51539 0.0
C1144 C 0.28068 0.67043 0.5109 0.0
C1145 C 0.27053 0.64742 0.50349 0.0
C1146 C 0.28719 0.62474 0.50211 0.0
C1147 C 0.31345 0.62519 0.50798 0.0
H1148 H 0.65354 0.0763 0.75694 0.0
H1149 H 0.57198 0.06377 0.77237 0.0
H1150 H 0.65472 0.03035 0.74672 0.0
H1151 H 0.57332 0.01819 0.76242 0.0
H1152 H 0.65252 0.93635 0.74565 0.0
H1153 H 0.65356 0.98228 0.75593 0.0
H1154 H 0.57465 0.99646 0.73685 0.0
H1155 H 0.57342 0.95093 0.72683 0.0
C1156 C 0.63589 0.06381 0.75812 0.0
C1157 C 0.61261 0.07377 0.76537 0.0
C1158 C 0.63665 0.03745 0.75239 0.0
C1159 C 0.61407 0.02067 0.75371 0.0
C1160 C 0.59091 0.0307 0.761 0.0
C1161 C 0.59019 0.05686 0.76676 0.0
C1162 C 0.63538 0.94928 0.74374 0.0
C1163 C 0.61282 0.93991 0.73552 0.0
C1164 C 0.63607 0.97562 0.74951 0.0
C1165 C 0.61413 0.99296 0.74726 0.0
C1166 C 0.5917 0.98351 0.73899 0.0
C1167 C 0.59106 0.95738 0.7332 0.0
H1168 H 0.69739 0.68712 0.02315 0.0
H1169 H 0.68395 0.60695 0.00563 0.0
H1170 H 0.74292 0.68607 0.01313 0.0
H1171 H 0.72982 0.60608 0.99531 0.0
H1172 H 0.82349 0.60655 0.99436 0.0
H1173 H 0.77751 0.60562 0.00448 0.0
H1174 H 0.76528 0.68652 0.98788 0.0
H1175 H 0.81094 0.68763 0.97805 0.0
C1176 C 0.70409 0.66929 0.01706 0.0
C1177 C 0.68696 0.64716 0.01513 0.0
C1178 C 0.73022 0.66874 0.01126 0.0
C1179 C 0.73999 0.64603 0.00337 0.0
C1180 C 0.72294 0.62379 0.00146 0.0
C1181 C 0.69663 0.62437 0.00724 0.0
C1182 C 0.81098 0.62415 0.99296 0.0
C1183 C 0.82094 0.64722 0.98549 0.0
C1184 C 0.7846 0.62353 0.99863 0.0
C1185 C 0.76777 0.64603 0.99702 0.0
C1186 C 0.77781 0.66899 0.98952 0.0
C1187 C 0.80401 0.66958 0.98383 0.0
H1188 H 0.07185 0.94972 0.77559 0.0
H1189 H 0.15167 0.93605 0.7576 0.0
H1190 H 0.07268 0.99512 0.76536 0.0
H1191 H 0.1523 0.98177 0.74704 0.0
H1192 H 0.07004 0.06189 0.72944 0.0
H1193 H 0.07149 0.01669 0.73994 0.0
H1194 H 0.15282 0.0297 0.75558 0.0
H1195 H 0.15154 0.07521 0.74474 0.0
C1196 C 0.08956 0.95635 0.76936 0.0
C1197 C 0.11165 0.93918 0.76734 0.0
C1198 C 0.08999 0.9824 0.76344 0.0
C1199 C 0.11249 0.99204 0.75531 0.0
C1200 C 0.13474 0.97499 0.75337 0.0
C1201 C 0.1343 0.94876 0.7593 0.0
C1202 C 0.08825 0.05524 0.73515 0.0
C1203 C 0.11065 0.07224 0.73631 0.0
C1204 C 0.08904 0.02931 0.74124 0.0
C1205 C 0.11223 0.01961 0.74866 0.0
C1206 C 0.13473 0.03652 0.74981 0.0
C1207 C 0.13392 0.06264 0.74372 0.0
H1208 H 0.81268 0.32111 0.52192 0.0
H1209 H 0.82514 0.40244 0.50603 0.0
H1210 H 0.76721 0.32215 0.51184 0.0
H1211 H 0.77934 0.40329 0.49562 0.0
H1212 H 0.69933 0.3216 0.47676 0.0
H1213 H 0.74492 0.32277 0.48666 0.0
H1214 H 0.73168 0.40269 0.50456 0.0
H1215 H 0.68577 0.40172 0.49433 0.0
C1216 C 0.80579 0.33919 0.51616 0.0
C1217 C 0.82262 0.36166 0.51472 0.0
C1218 C 0.77968 0.33974 0.51032 0.0
C1219 C 0.76966 0.36276 0.50287 0.0
C1220 C 0.78642 0.38533 0.50143 0.0
C1221 C 0.8127 0.38476 0.50726 0.0
C1222 C 0.70601 0.33945 0.48284 0.0
C1223 C 0.68883 0.36153 0.48483 0.0
C1224 C 0.73218 0.34006 0.48857 0.0
C1225 C 0.74192 0.36277 0.49647 0.0
C1226 C 0.72483 0.38499 0.49841 0.0
C1227 C 0.69849 0.38435 0.49267 0.0
H1228 H 0.35814 0.07391 0.25645 0.0
H1229 H 0.43873 0.06074 0.27338 0.0
H1230 H 0.35718 0.02802 0.24619 0.0
H1231 H 0.43755 0.01515 0.26348 0.0
H1232 H 0.35754 0.93465 0.24472 0.0
H1233 H 0.35678 0.98053 0.255 0.0
H1234 H 0.43781 0.99249 0.23855 0.0
H1235 H 0.43877 0.94691 0.22864 0.0
C1236 C 0.37563 0.06128 0.25796 0.0
C1237 C 0.39857 0.07105 0.26564 0.0
C1238 C 0.37499 0.03495 0.25221 0.0
C1239 C 0.39732 0.01794 0.25398 0.0
C1240 C 0.42016 0.0278 0.26169 0.0
C1241 C 0.42079 0.05398 0.26742 0.0
C1242 C 0.37521 0.94707 0.2434 0.0
C1243 C 0.39826 0.93705 0.23595 0.0
C1244 C 0.3747 0.9734 0.24917 0.0
C1245 C 0.39727 0.99015 0.24764 0.0
C1246 C 0.42023 0.98003 0.24016 0.0
C1247 C 0.42073 0.95386 0.23441 0.0
H1248 H 0.81253 0.82039 0.47867 0.0
H1249 H 0.82491 0.9019 0.49423 0.0
H1250 H 0.76697 0.82158 0.48864 0.0
H1251 H 0.77903 0.90293 0.50451 0.0
H1252 H 0.68551 0.90129 0.50603 0.0
H1253 H 0.73127 0.90209 0.49556 0.0
H1254 H 0.74484 0.82254 0.51393 0.0
H1255 H 0.69941 0.82155 0.5241 0.0
C1256 C 0.80559 0.83855 0.48431 0.0
C1257 C 0.82244 0.86102 0.48572 0.0
C1258 C 0.77944 0.83919 0.49008 0.0
C1259 C 0.76938 0.8623 0.49743 0.0
C1260 C 0.78613 0.88489 0.49879 0.0
C1261 C 0.81246 0.88423 0.49302 0.0
C1262 C 0.69826 0.88395 0.50774 0.0
C1263 C 0.68875 0.86131 0.51582 0.0
C1264 C 0.72452 0.8845 0.50186 0.0
C1265 C 0.74167 0.86235 0.50388 0.0
C1266 C 0.73206 0.83978 0.51197 0.0
C1267 C 0.70598 0.83927 0.51785 0.0
H1268 H 0.35741 0.57593 0.74442 0.0
H1269 H 0.43983 0.56484 0.73024 0.0
H1270 H 0.35647 0.5299 0.75445 0.0
H1271 H 0.43873 0.51909 0.73995 0.0
H1272 H 0.35851 0.43652 0.75509 0.0
H1273 H 0.35799 0.48264 0.74518 0.0
H1274 H 0.4368 0.49569 0.7647 0.0
H1275 H 0.43754 0.44986 0.7743 0.0
C1276 C 0.37532 0.56374 0.74349 0.0
C1277 C 0.39873 0.57412 0.73661 0.0
C1278 C 0.37471 0.53731 0.7491 0.0
C1279 C 0.39754 0.52082 0.74802 0.0
C1280 C 0.42091 0.53133 0.74118 0.0
C1281 C 0.4215 0.55759 0.73555 0.0
C1282 C 0.37576 0.44924 0.75717 0.0
C1283 C 0.39812 0.43945 0.7654 0.0
C1284 C 0.37536 0.47571 0.75162 0.0
C1285 C 0.39738 0.49285 0.75412 0.0
C1286 C 0.41967 0.48295 0.76236 0.0
C1287 C 0.42004 0.45664 0.76792 0.0
H1288 H 0.81024 0.18788 0.02461 0.0
H1289 H 0.82363 0.10802 0.00659 0.0
H1290 H 0.76465 0.18697 0.01471 0.0
H1291 H 0.77774 0.10733 0.99634 0.0
H1292 H 0.68441 0.10773 0.99449 0.0
H1293 H 0.73012 0.10659 0.00501 0.0
H1294 H 0.74232 0.18822 0.98965 0.0
H1295 H 0.69692 0.18955 0.9795 0.0
C1296 C 0.80352 0.17015 0.01843 0.0
C1297 C 0.82067 0.14806 0.01632 0.0
C1298 C 0.77735 0.16968 0.01269 0.0
C1299 C 0.76757 0.14714 0.00465 0.0
C1300 C 0.78461 0.12491 0.0026 0.0
C1301 C 0.81095 0.12539 0.00836 0.0
C1302 C 0.69684 0.12545 0.99348 0.0
C1303 C 0.68695 0.14878 0.98625 0.0
C1304 C 0.72308 0.12472 0.99937 0.0
C1305 C 0.73985 0.14734 0.99821 0.0
C1306 C 0.72985 0.17058 0.99097 0.0
C1307 C 0.70378 0.1713 0.98509 0.0
H1308 H 0.15184 0.57466 0.2567 0.0
H1309 H 0.07094 0.56165 0.27312 0.0
H1310 H 0.1529 0.52878 0.24641 0.0
H1311 H 0.07218 0.51609 0.26316 0.0
H1312 H 0.15198 0.43521 0.24498 0.0
H1313 H 0.15282 0.48109 0.25528 0.0
H1314 H 0.07243 0.4938 0.23799 0.0
H1315 H 0.07141 0.44824 0.22801 0.0
C1316 C 0.13431 0.56207 0.2581 0.0
C1317 C 0.11126 0.57188 0.26564 0.0
C1318 C 0.135 0.53575 0.25232 0.0
C1319 C 0.11258 0.51881 0.25392 0.0
C1320 C 0.08964 0.5287 0.26151 0.0
C1321 C 0.08898 0.55485 0.26729 0.0
C1322 C 0.13448 0.44781 0.24347 0.0
C1323 C 0.11158 0.438 0.23577 0.0
C1324 C 0.13504 0.47413 0.24925 0.0
C1325 C 0.11265 0.49107 0.2475 0.0
C1326 C 0.08986 0.48119 0.23975 0.0
C1327 C 0.08933 0.45503 0.23397 0.0
H1328 H 0.19873 0.18919 0.52298 0.0
H1329 H 0.18586 0.10856 0.50603 0.0
H1330 H 0.24441 0.18807 0.51322 0.0
H1331 H 0.23184 0.10764 0.49593 0.0
H1332 H 0.32521 0.10806 0.4949 0.0
H1333 H 0.27922 0.10731 0.50499 0.0
H1334 H 0.26736 0.18826 0.48835 0.0
H1335 H 0.31306 0.18921 0.47862 0.0
C1336 C 0.20558 0.17125 0.51705 0.0
C1337 C 0.18857 0.149 0.51522 0.0
C1338 C 0.2318 0.17066 0.5114 0.0
C1339 C 0.24177 0.14781 0.50374 0.0
C1340 C 0.22483 0.12546 0.50191 0.0
C1341 C 0.19844 0.12607 0.50757 0.0
C1342 C 0.31279 0.12572 0.49351 0.0
C1343 C 0.32287 0.14874 0.48605 0.0
C1344 C 0.28639 0.12521 0.49916 0.0
C1345 C 0.26964 0.14776 0.49751 0.0
C1346 C 0.27982 0.1707 0.49004 0.0
C1347 C 0.30605 0.17119 0.4844 0.0
H1348 H 0.56951 0.44833 0.27157 0.0
H1349 H 0.65122 0.4358 0.25641 0.0
H1350 H 0.57097 0.49395 0.26171 0.0
H1351 H 0.65251 0.48173 0.24622 0.0
H1352 H 0.57174 0.56214 0.22672 0.0
H1353 H 0.57235 0.51655 0.23665 0.0
H1354 H 0.65184 0.52929 0.25529 0.0
H1355 H 0.65143 0.5752 0.24504 0.0
C1356 C 0.58777 0.45524 0.26602 0.0
C1357 C 0.61022 0.43834 0.26471 0.0
C1358 C 0.58856 0.48143 0.26031 0.0
C1359 C 0.61182 0.49148 0.25312 0.0
C1360 C 0.63437 0.47465 0.25183 0.0
C1361 C 0.63356 0.44829 0.25754 0.0
C1362 C 0.58936 0.55535 0.23298 0.0
C1363 C 0.6115 0.57239 0.23515 0.0
C1364 C 0.58966 0.52918 0.23873 0.0
C1365 C 0.61209 0.51929 0.24682 0.0
C1366 C 0.63434 0.53626 0.24898 0.0
C1367 C 0.63402 0.5626 0.24323 0.0
H1368 H 0.19746 0.81937 0.98042 0.0
H1369 H 0.18504 0.9009 0.99595 0.0
H1370 H 0.24323 0.82082 0.99001 0.0
H1371 H 0.23111 0.90216 0.0059 0.0
H1372 H 0.32453 0.90149 0.00648 0.0
H1373 H 0.27834 0.90191 0.9967 0.0
H1374 H 0.26661 0.82181 0.01469 0.0
H1375 H 0.31249 0.82116 0.02412 0.0
C1376 C 0.20442 0.83758 0.98601 0.0
C1377 C 0.18751 0.85999 0.98748 0.0
C1378 C 0.2307 0.83836 0.99157 0.0
C1379 C 0.24084 0.86156 0.99878 0.0
C1380 C 0.22398 0.88406 1.00027 0.0
C1381 C 0.19753 0.88327 0.9947 0.0
C1382 C 0.31208 0.88395 0.00825 0.0
C1383 C 0.32227 0.86123 0.01599 0.0
C1384 C 0.28558 0.88427 0.00277 0.0
C1385 C 0.2688 0.86186 0.00487 0.0
C1386 C 0.27907 0.83925 0.01265 0.0
C1387 C 0.30542 0.83893 0.01812 0.0
H1388 H 0.93938 0.44968 0.72779 0.0
H1389 H 0.85883 0.43661 0.74477 0.0
H1390 H 0.9383 0.49524 0.73773 0.0
H1391 H 0.85796 0.48246 0.75509 0.0
H1392 H 0.9397 0.56347 0.77256 0.0
H1393 H 0.93866 0.51789 0.76265 0.0
H1394 H 0.85759 0.52996 0.7463 0.0
H1395 H 0.85843 0.57584 0.75658 0.0
C1396 C 0.92147 0.45646 0.73377 0.0
C1397 C 0.89923 0.43942 0.73555 0.0
C1398 C 0.9209 0.48262 0.73953 0.0
C1399 C 0.89809 0.4925 0.74727 0.0
C1400 C 0.87575 0.47553 0.74905 0.0
C1401 C 0.87633 0.44921 0.74327 0.0
C1402 C 0.92163 0.55654 0.76681 0.0
C1403 C 0.89918 0.57338 0.7653 0.0
C1404 C 0.92108 0.53037 0.76107 0.0
C1405 C 0.89809 0.52028 0.75362 0.0
C1406 C 0.87553 0.53706 0.75211 0.0
C1407 C 0.87609 0.56339 0.75788 0.0
H1408 H 0.09739 0.41645 0.08964 0.0
H1409 H 0.13489 0.33897 0.08389 0.0
H1410 H 0.10583 0.41433 0.11771 0.0
H1411 H 0.14207 0.33614 0.11188 0.0
H1412 H 0.16697 0.34273 0.16204 0.0
H1413 H 0.16521 0.351 0.13394 0.0
H1414 H 0.08957 0.39228 0.1398 0.0
H1415 H 0.09212 0.38522 0.16781 0.0
C1416 C 0.10742 0.39897 0.09438 0.0
C1417 C 0.11537 0.37786 0.08455 0.0
C1418 C 0.11212 0.39764 0.11049 0.0
C1419 C 0.12448 0.37495 0.11718 0.0
C1420 C 0.13294 0.35415 0.10723 0.0
C1421 C 0.12863 0.35568 0.09112 0.0
C1422 C 0.15013 0.3538 0.1573 0.0
C1423 C 0.12966 0.36323 0.16715 0.0
C1424 C 0.14901 0.35843 0.14117 0.0
C1425 C 0.12714 0.37219 0.13449 0.0
C1426 C 0.10698 0.38204 0.14445 0.0
C1427 C 0.10833 0.3778 0.16057 0.0
H1428 H 0.91577 0.91609 0.41181 0.0
H1429 H 0.87601 0.83979 0.41772 0.0
H1430 H 0.90735 0.91403 0.38374 0.0
H1431 H 0.86885 0.83696 0.38972 0.0
H1432 H 0.84377 0.84428 0.33961 0.0
H1433 H 0.84603 0.85242 0.36771 0.0
H1434 H 0.92276 0.89152 0.36162 0.0
H1435 H 0.91971 0.88463 0.33361 0.0
C1436 C 0.90528 0.89886 0.4071 0.0
C1437 C 0.89665 0.87809 0.41698 0.0
C1438 C 0.90058 0.89756 0.39099 0.0
C1439 C 0.88755 0.87522 0.38434 0.0
C1440 C 0.8785 0.85472 0.39434 0.0
C1441 C 0.8828 0.85624 0.41045 0.0
C1442 C 0.86095 0.85484 0.3443 0.0
C1443 C 0.88157 0.86373 0.33439 0.0
C1444 C 0.86238 0.85939 0.36043 0.0
C1445 C 0.88469 0.8725 0.36705 0.0
C1446 C 0.90502 0.8818 0.35702 0.0
C1447 C 0.90338 0.87765 0.34091 0.0
H1448 H 0.41812 0.62424 0.66804 0.0
H1449 H 0.34121 0.66287 0.66224 0.0
H1450 H 0.42063 0.61653 0.64008 0.0
H1451 H 0.34305 0.654 0.63421 0.0
H1452 H 0.37308 0.66717 0.5841 0.0
H1453 H 0.36567 0.66988 0.61207 0.0
H1454 H 0.40496 0.59324 0.61813 0.0
H1455 H 0.41352 0.59122 0.59008 0.0
C1456 C 0.40147 0.63065 0.66082 0.0
C1457 C 0.37956 0.64438 0.66737 0.0
C1458 C 0.40281 0.62603 0.64473 0.0
C1459 C 0.3821 0.6347 0.63477 0.0
C1460 C 0.35966 0.64751 0.64144 0.0
C1461 C 0.35849 0.65247 0.65753 0.0
C1462 C 0.37995 0.65076 0.59137 0.0
C1463 C 0.3941 0.62908 0.58486 0.0
C1464 C 0.37551 0.65222 0.60746 0.0
C1465 C 0.38478 0.63184 0.61748 0.0
C1466 C 0.398 0.6096 0.61086 0.0
C1467 C 0.40278 0.60833 0.59475 0.0
H1468 H 0.66809 0.16773 0.83913 0.0
H1469 H 0.59336 0.12502 0.83341 0.0
H1470 H 0.66675 0.15887 0.86717 0.0
H1471 H 0.59127 0.11734 0.86137 0.0
H1472 H 0.63636 0.17019 0.91735 0.0
H1473 H 0.64358 0.17336 0.88937 0.0
H1474 H 0.6081 0.0949 0.88326 0.0
H1475 H 0.59964 0.09242 0.91131 0.0
C1476 C 0.65138 0.15647 0.84386 0.0
C1477 C 0.63079 0.14718 0.83404 0.0
C1478 C 0.6505 0.15151 0.85996 0.0
C1479 C 0.6288 0.13751 0.86664 0.0
C1480 C 0.60855 0.12775 0.85671 0.0
C1481 C 0.60964 0.13236 0.84062 0.0
C1482 C 0.6303 0.15349 0.91006 0.0
C1483 C 0.6172 0.13114 0.91655 0.0
C1484 C 0.63463 0.15522 0.89396 0.0
C1485 C 0.62634 0.13445 0.88394 0.0
C1486 C 0.61424 0.11156 0.89054 0.0
C1487 C 0.60953 0.11003 0.90665 0.0
H1488 H 0.0904 0.62563 0.33367 0.0
H1489 H 0.16652 0.66579 0.33937 0.0
H1490 H 0.08772 0.61864 0.36169 0.0
H1491 H 0.16462 0.65754 0.36746 0.0
H1492 H 0.13542 0.67004 0.41763 0.0
H1493 H 0.14218 0.67295 0.3896 0.0
H1494 H 0.10332 0.59604 0.38373 0.0
H1495 H 0.09529 0.59391 0.41183 0.0
C1496 C 0.10685 0.63254 0.3409 0.0
C1497 C 0.12859 0.64644 0.3343 0.0
C1498 C 0.10541 0.62834 0.35702 0.0
C1499 C 0.12591 0.63755 0.36697 0.0
C1500 C 0.14815 0.65064 0.36026 0.0
C1501 C 0.14937 0.65524 0.34413 0.0
C1502 C 0.12847 0.65364 0.41037 0.0
C1503 C 0.11464 0.63182 0.41695 0.0
C1504 C 0.13254 0.6552 0.39425 0.0
C1505 C 0.12327 0.63477 0.38427 0.0
C1506 C 0.11026 0.61245 0.39096 0.0
C1507 C 0.10579 0.61111 0.4071 0.0
H1508 H 0.6154 0.90355 0.66937 0.0
H1509 H 0.65005 0.82568 0.66014 0.0
H1510 H 0.6126 0.91213 0.6414 0.0
H1511 H 0.64646 0.83391 0.63215 0.0
H1512 H 0.65322 0.86214 0.5824 0.0
H1513 H 0.66227 0.85936 0.61032 0.0
H1514 H 0.58592 0.89692 0.61996 0.0
H1515 H 0.57723 0.90044 0.59202 0.0
C1516 C 0.62254 0.88829 0.66137 0.0
C1517 C 0.63279 0.86384 0.667 0.0
C1518 C 0.62077 0.89315 0.64532 0.0
C1519 C 0.62903 0.87363 0.63449 0.0
C1520 C 0.64017 0.84955 0.64013 0.0
C1521 C 0.64213 0.84476 0.6562 0.0
C1522 C 0.63847 0.87008 0.59047 0.0
C1523 C 0.61441 0.88138 0.58497 0.0
C1524 C 0.64361 0.86833 0.6065 0.0
C1525 C 0.62475 0.87769 0.61742 0.0
C1526 C 0.60107 0.88979 0.61189 0.0
C1527 C 0.596 0.8917 0.59585 0.0
H1528 H 0.35854 0.3261 0.84072 0.0
H1529 H 0.39416 0.40344 0.8313 0.0
H1530 H 0.36176 0.33467 0.86868 0.0
H1531 H 0.39653 0.41242 0.85925 0.0
H1532 H 0.43079 0.40128 0.90891 0.0
H1533 H 0.42244 0.3977 0.88095 0.0
H1534 H 0.34598 0.36015 0.89033 0.0
H1535 H 0.35479 0.3629 0.91829 0.0
C1536 C 0.3666 0.34515 0.84461 0.0
C1537 C 0.37631 0.36397 0.83378 0.0
C1538 C 0.36833 0.35014 0.86067 0.0
C1539 C 0.37958 0.3742 0.86626 0.0
C1540 C 0.38825 0.39347 0.85538 0.0
C1541 C 0.38674 0.38838 0.83934 0.0
C1542 C 0.41206 0.39255 0.90501 0.0
C1543 C 0.39358 0.38217 0.91583 0.0
C1544 C 0.40718 0.3906 0.88895 0.0
C1545 C 0.38359 0.37844 0.88334 0.0
C1546 C 0.3646 0.36912 0.89421 0.0
C1547 C 0.36958 0.37087 0.91026 0.0
H1548 H 0.84271 0.16535 0.16215 0.0
H1549 H 0.91914 0.12595 0.16825 0.0
H1550 H 0.84485 0.15659 0.13412 0.0
H1551 H 0.92207 0.11849 0.14029 0.0
H1552 H 0.91525 0.09305 0.09023 0.0
H1553 H 0.90695 0.09546 0.11831 0.0
H1554 H 0.86721 0.17183 0.11196 0.0
H1555 H 0.87424 0.16861 0.08399 0.0
C1556 C 0.85998 0.15487 0.15749 0.0
C1557 C 0.88077 0.14643 0.16741 0.0
C1558 C 0.86133 0.14997 0.1414 0.0
C1559 C 0.88374 0.13696 0.13482 0.0
C1560 C 0.90426 0.12811 0.14486 0.0
C1561 C 0.90268 0.13259 0.16095 0.0
C1562 C 0.9045 0.11018 0.09487 0.0
C1563 C 0.89548 0.13065 0.08489 0.0
C1564 C 0.89987 0.11169 0.11099 0.0
C1565 C 0.88653 0.13395 0.11753 0.0
C1566 C 0.8771 0.15413 0.10743 0.0
C1567 C 0.88132 0.15239 0.09133 0.0
H1568 H 0.84247 0.66184 0.83969 0.0
H1569 H 0.92027 0.62512 0.83378 0.0
H1570 H 0.84464 0.65305 0.86771 0.0
H1571 H 0.92316 0.61761 0.86175 0.0
H1572 H 0.91681 0.59221 0.91185 0.0
H1573 H 0.90852 0.59411 0.88375 0.0
H1574 H 0.86658 0.66936 0.88982 0.0
H1575 H 0.87367 0.66666 0.91781 0.0
C1576 C 0.86003 0.65191 0.84438 0.0
C1577 C 0.88122 0.64429 0.83452 0.0
C1578 C 0.86139 0.647 0.86047 0.0
C1579 C 0.88419 0.63478 0.86711 0.0
C1580 C 0.90507 0.62663 0.85712 0.0
C1581 C 0.90351 0.63114 0.84104 0.0
C1582 C 0.90558 0.60898 0.90716 0.0
C1583 C 0.89598 0.6293 0.91705 0.0
C1584 C 0.90095 0.61019 0.89103 0.0
C1585 C 0.88699 0.63199 0.8844 0.0
C1586 C 0.87697 0.652 0.89442 0.0
C1587 C 0.88123 0.65056 0.91053 0.0
H1588 H 0.13741 0.1671 0.58361 0.0
H1589 H 0.09691 0.09102 0.58876 0.0
H1590 H 0.14444 0.16912 0.61163 0.0
H1591 H 0.10515 0.0923 0.61687 0.0
H1592 H 0.09129 0.12208 0.66697 0.0
H1593 H 0.08927 0.11485 0.63896 0.0
H1594 H 0.16668 0.15294 0.63372 0.0
H1595 H 0.16796 0.1614 0.6618 0.0
C1596 C 0.13046 0.1505 0.59071 0.0
C1597 C 0.11639 0.12899 0.58396 0.0
C1598 C 0.13469 0.15156 0.60683 0.0
C1599 C 0.12531 0.13093 0.61663 0.0
C1600 C 0.11218 0.10885 0.60977 0.0
C1601 C 0.10758 0.108 0.59363 0.0
C1602 C 0.10801 0.12872 0.65987 0.0
C1603 C 0.12969 0.14254 0.6666 0.0
C1604 C 0.10695 0.12438 0.64375 0.0
C1605 C 0.12775 0.13339 0.63396 0.0
C1606 C 0.15 0.14622 0.64082 0.0
C1607 C 0.15085 0.15094 0.65694 0.0
H1608 H 0.6362 0.34287 0.41687 0.0
H1609 H 0.5936 0.41776 0.4115 0.0
H1610 H 0.64327 0.34078 0.38886 0.0
H1611 H 0.6019 0.41647 0.3834 0.0
H1612 H 0.58954 0.3865 0.33327 0.0
H1613 H 0.58696 0.39357 0.36128 0.0
H1614 H 0.66521 0.35734 0.36682 0.0
H1615 H 0.66707 0.34899 0.33873 0.0
C1616 C 0.62877 0.3592 0.40972 0.0
C1617 C 0.61415 0.38039 0.41641 0.0
C1618 C 0.63302 0.35811 0.3936 0.0
C1619 C 0.62314 0.37841 0.38375 0.0
C1620 C 0.60935 0.40016 0.39054 0.0
C1621 C 0.60471 0.40102 0.40668 0.0
C1622 C 0.60632 0.38022 0.34044 0.0
C1623 C 0.62843 0.36697 0.33379 0.0
C1624 C 0.60493 0.38448 0.35655 0.0
C1625 C 0.62582 0.37596 0.36643 0.0
C1626 C 0.64846 0.36367 0.35966 0.0
C1627 C 0.64964 0.35901 0.34354 0.0
H1628 H 0.41609 0.9181 0.0894 0.0
H1629 H 0.37483 0.84261 0.08346 0.0
H1630 H 0.40721 0.91638 0.11744 0.0
H1631 H 0.36715 0.84013 0.11142 0.0
H1632 H 0.34184 0.84778 0.16136 0.0
H1633 H 0.34433 0.85633 0.13331 0.0
H1634 H 0.422 0.8934 0.13961 0.0
H1635 H 0.4188 0.88609 0.16758 0.0
C1636 C 0.40515 0.90114 0.09409 0.0
C1637 C 0.39626 0.88046 0.08421 0.0
C1638 C 0.40017 0.90004 0.11018 0.0
C1639 C 0.38657 0.87802 0.1168 0.0
C1640 C 0.37724 0.85766 0.10681 0.0
C1641 C 0.38184 0.85897 0.09073 0.0
C1642 C 0.35928 0.85803 0.15674 0.0
C1643 C 0.38015 0.86614 0.16669 0.0
C1644 C 0.36082 0.86279 0.14063 0.0
C1645 C 0.38349 0.87539 0.13409 0.0
C1646 C 0.40402 0.88407 0.14416 0.0
C1647 C 0.40228 0.87968 0.16025 0.0
H1648 H 0.91791 0.38873 0.66694 0.0
H1649 H 0.8414 0.34915 0.66157 0.0
H1650 H 0.92018 0.39587 0.63893 0.0
H1651 H 0.84295 0.35752 0.63348 0.0
H1652 H 0.87286 0.34338 0.58347 0.0
H1653 H 0.86548 0.34139 0.61146 0.0
H1654 H 0.90444 0.41835 0.6168 0.0
H1655 H 0.91303 0.4196 0.58873 0.0
C1656 C 0.90127 0.38201 0.65979 0.0
C1657 C 0.87957 0.36816 0.66648 0.0
C1658 C 0.90248 0.38631 0.64368 0.0
C1659 C 0.88181 0.37721 0.63383 0.0
C1660 C 0.85953 0.36432 0.64063 0.0
C1661 C 0.85853 0.35965 0.65675 0.0
C1662 C 0.87967 0.36001 0.59059 0.0
C1663 C 0.89375 0.38155 0.58388 0.0
C1664 C 0.87524 0.35897 0.60669 0.0
C1665 C 0.88442 0.37965 0.61651 0.0
C1666 C 0.89756 0.40177 0.60968 0.0
C1667 C 0.90236 0.4026 0.59357 0.0
H1668 H 0.34176 0.16245 0.33967 0.0
H1669 H 0.41773 0.12195 0.33402 0.0
H1670 H 0.34356 0.15414 0.36776 0.0
H1671 H 0.42026 0.11484 0.36202 0.0
H1672 H 0.41311 0.09097 0.41225 0.0
H1673 H 0.40442 0.09249 0.38419 0.0
H1674 H 0.36653 0.16996 0.38972 0.0
H1675 H 0.37401 0.16773 0.4177 0.0
C1676 C 0.35883 0.15177 0.34443 0.0
C1677 C 0.37964 0.14297 0.33462 0.0
C1678 C 0.35998 0.14713 0.36055 0.0
C1679 C 0.38217 0.13397 0.36727 0.0
C1680 C 0.40262 0.12462 0.35734 0.0
C1681 C 0.40127 0.12889 0.34123 0.0
C1682 C 0.40266 0.10816 0.40745 0.0
C1683 C 0.39436 0.12926 0.4172 0.0
C1684 C 0.39781 0.10914 0.39135 0.0
C1685 C 0.38492 0.13146 0.38458 0.0
C1686 C 0.37608 0.15223 0.39445 0.0
C1687 C 0.38057 0.15104 0.41055 0.0
H1688 H 0.61354 0.60679 0.16876 0.0
H1689 H 0.65124 0.68299 0.15892 0.0
H1690 H 0.6102 0.59779 0.14085 0.0
H1691 H 0.64709 0.67441 0.131 0.0
H1692 H 0.57499 0.60979 0.09148 0.0
H1693 H 0.58408 0.61341 0.11937 0.0
H1694 H 0.66154 0.64824 0.10927 0.0
H1695 H 0.65205 0.64544 0.08139 0.0
C1696 C 0.62124 0.62158 0.16064 0.0
C1697 C 0.63251 0.6457 0.16607 0.0
C1698 C 0.61916 0.61649 0.14462 0.0
C1699 C 0.62811 0.63547 0.13364 0.0
C1700 C 0.64026 0.65917 0.1391 0.0
C1701 C 0.64254 0.66417 0.15513 0.0
C1702 C 0.59407 0.61795 0.0952 0.0
C1703 C 0.61268 0.62753 0.08421 0.0
C1704 C 0.59937 0.61992 0.11122 0.0
C1705 C 0.6235 0.63129 0.11661 0.0
C1706 C 0.64254 0.63987 0.10556 0.0
C1707 C 0.63715 0.63811 0.08956 0.0
H1708 H 0.09308 0.88662 0.83536 0.0
H1709 H 0.16731 0.84301 0.841 0.0
H1710 H 0.09063 0.89346 0.86338 0.0
H1711 H 0.16568 0.85106 0.86912 0.0
H1712 H 0.13502 0.83888 0.91912 0.0
H1713 H 0.14231 0.8363 0.89112 0.0
H1714 H 0.10712 0.91503 0.88556 0.0
H1715 H 0.09853 0.9169 0.91361 0.0
C1716 C 0.1092 0.87892 0.84258 0.0
C1717 C 0.13031 0.86409 0.83595 0.0
C1718 C 0.1079 0.88303 0.8587 0.0
C1719 C 0.12791 0.87279 0.86864 0.0
C1720 C 0.14959 0.85879 0.86191 0.0
C1721 C 0.15065 0.85429 0.84577 0.0
C1722 C 0.12901 0.85576 0.91194 0.0
C1723 C 0.11599 0.87801 0.91858 0.0
C1724 C 0.1334 0.85437 0.89584 0.0
C1725 C 0.12525 0.8754 0.88595 0.0
C1726 C 0.11316 0.89817 0.89271 0.0
C1727 C 0.10837 0.89935 0.90882 0.0
loop_
_geom_bond_atom_site_label_1
_geom_bond_atom_site_label_2
_geom_bond_distance
_geom_bond_site_symmetry_2
_ccdc_geom_bond_type
O0 Cd1 2.223 . S
O0 C8 1.315 . S
Cd1 O0 2.223 . S
Cd1 O4 2.297 . S
Cd1 O5 2.439 . S
Cd1 O11 2.240 . S
Cd2 O3 2.240 . S
Cd2 O10 2.223 . S
Cd2 O12 2.297 . S
Cd2 O13 2.439 . S
O3 Cd2 2.240 . S
O3 C8 1.279 . S
O4 Cd1 2.297 . S
O4 C6 1.247 . S
O5 Cd1 2.439 . S
O5 C6 1.208 . S
C6 O4 1.247 . S
C6 O5 1.208 . S
C7 O12 1.247 . S
C7 O13 1.208 . S
C8 O0 1.315 . S
C8 O3 1.279 . S
C9 O10 1.315 . S
C9 O11 1.279 . S
O10 Cd2 2.223 . S
O10 C9 1.315 . S
O11 Cd1 2.240 . S
O11 C9 1.279 . S
O12 Cd2 2.297 . S
O12 C7 1.247 . S
O13 Cd2 2.439 . S
O13 C7 1.208 . S
O14 Cd15 2.223 . S
O14 C22 1.315 . S
Cd15 O14 2.223 . S
Cd15 O18 2.297 . S
Cd15 O19 2.439 . S
Cd15 O25 2.240 . S
Cd16 O17 2.240 . S
Cd16 O24 2.223 . S
Cd16 O26 2.297 . S
Cd16 O27 2.439 . S
O17 Cd16 2.240 . S
O17 C22 1.279 . S
O18 Cd15 2.297 . S
O18 C20 1.247 . S
O19 Cd15 2.439 . S
O19 C20 1.208 . S
C20 O18 1.247 . S
C20 O19 1.208 . S
C21 O26 1.247 . S
C21 O27 1.208 . S
C22 O14 1.315 . S
C22 O17 1.279 . S
C23 O24 1.315 . S
C23 O25 1.279 . S
O24 Cd16 2.223 . S
O24 C23 1.315 . S
O25 Cd15 2.240 . S
O25 C23 1.279 . S
O26 Cd16 2.297 . S
O26 C21 1.247 . S
O27 Cd16 2.439 . S
O27 C21 1.208 . S
O28 Cd29 2.223 . S
O28 C36 1.315 . S
Cd29 O28 2.223 . S
Cd29 O32 2.297 . S
Cd29 O33 2.439 . S
Cd29 O39 2.240 . S
Cd30 O31 2.240 . S
Cd30 O38 2.223 . S
Cd30 O40 2.297 . S
Cd30 O41 2.439 . S
O31 Cd30 2.240 . S
O31 C36 1.279 . S
O32 Cd29 2.297 . S
O32 C34 1.247 . S
O33 Cd29 2.439 . S
O33 C34 1.208 . S
C34 O32 1.247 . S
C34 O33 1.208 . S
C35 O40 1.247 . S
C35 O41 1.208 . S
C36 O28 1.315 . S
C36 O31 1.279 . S
C37 O38 1.315 . S
C37 O39 1.279 . S
O38 Cd30 2.223 . S
O38 C37 1.315 . S
O39 Cd29 2.240 . S
O39 C37 1.279 . S
O40 Cd30 2.297 . S
O40 C35 1.247 . S
O41 Cd30 2.439 . S
O41 C35 1.208 . S
O42 Cd43 2.223 . S
O42 C50 1.315 . S
Cd43 O42 2.223 . S
Cd43 O46 2.297 . S
Cd43 O47 2.439 . S
Cd43 O53 2.240 . S
Cd44 O45 2.240 . S
Cd44 O52 2.223 . S
Cd44 O54 2.297 . S
Cd44 O55 2.439 . S
O45 Cd44 2.240 . S
O45 C50 1.279 . S
O46 Cd43 2.297 . S
O46 C48 1.247 . S
O47 Cd43 2.439 . S
O47 C48 1.208 . S
C48 O46 1.247 . S
C48 O47 1.208 . S
C49 O54 1.247 . S
C49 O55 1.208 . S
C50 O42 1.315 . S
C50 O45 1.279 . S
C51 O52 1.315 . S
C51 O53 1.279 . S
O52 Cd44 2.223 . S
O52 C51 1.315 . S
O53 Cd43 2.240 . S
O53 C51 1.279 . S
O54 Cd44 2.297 . S
O54 C49 1.247 . S
O55 Cd44 2.439 . S
O55 C49 1.208 . S
O56 Cd57 2.223 . S
O56 C64 1.315 . S
Cd57 O56 2.223 . S
Cd57 O60 2.297 . S
Cd57 O61 2.439 . S
Cd57 O67 2.240 . S
Cd58 O59 2.240 . S
Cd58 O66 2.223 . S
Cd58 O68 2.297 . S
Cd58 O69 2.439 . S
O59 Cd58 2.240 . S
O59 C64 1.279 . S
O60 Cd57 2.297 . S
O60 C62 1.247 . S
O61 Cd57 2.439 . S
O61 C62 1.208 . S
C62 O60 1.247 . S
C62 O61 1.208 . S
C63 O68 1.247 . S
C63 O69 1.208 . S
C64 O56 1.315 . S
C64 O59 1.279 . S
C65 O66 1.315 . S
C65 O67 1.279 . S
O66 Cd58 2.223 . S
O66 C65 1.315 . S
O67 Cd57 2.240 . S
O67 C65 1.279 . S
O68 Cd58 2.297 . S
O68 C63 1.247 . S
O69 Cd58 2.439 . S
O69 C63 1.208 . S
O70 Cd71 2.223 . S
O70 C78 1.315 . S
Cd71 O70 2.223 . S
Cd71 O74 2.297 . S
Cd71 O75 2.439 . S
Cd71 O81 2.240 . S
Cd72 O73 2.240 . S
Cd72 O80 2.223 . S
Cd72 O82 2.297 . S
Cd72 O83 2.439 . S
O73 Cd72 2.240 . S
O73 C78 1.279 . S
O74 Cd71 2.297 . S
O74 C76 1.247 . S
O75 Cd71 2.439 . S
O75 C76 1.208 . S
C76 O74 1.247 . S
C76 O75 1.208 . S
C77 O82 1.247 . S
C77 O83 1.208 . S
C78 O70 1.315 . S
C78 O73 1.279 . S
C79 O80 1.315 . S
C79 O81 1.279 . S
O80 Cd72 2.223 . S
O80 C79 1.315 . S
O81 Cd71 2.240 . S
O81 C79 1.279 . S
O82 Cd72 2.297 . S
O82 C77 1.247 . S
O83 Cd72 2.439 . S
O83 C77 1.208 . S
O84 Cd85 2.223 . S
O84 C92 1.315 . S
Cd85 O84 2.223 . S
Cd85 O88 2.297 . S
Cd85 O89 2.439 . S
Cd85 O95 2.240 . S
Cd86 O87 2.240 . S
Cd86 O94 2.223 . S
Cd86 O96 2.297 . S
Cd86 O97 2.439 . S
O87 Cd86 2.240 . S
O87 C92 1.279 . S
O88 Cd85 2.297 . S
O88 C90 1.247 . S
O89 Cd85 2.439 . S
O89 C90 1.208 . S
C90 O88 1.247 . S
C90 O89 1.208 . S
C91 O96 1.247 . S
C91 O97 1.208 . S
C92 O84 1.315 . S
C92 O87 1.279 . S
C93 O94 1.315 . S
C93 O95 1.279 . S
O94 Cd86 2.223 . S
O94 C93 1.315 . S
O95 Cd85 2.240 . S
O95 C93 1.279 . S
O96 Cd86 2.297 . S
O96 C91 1.247 . S
O97 Cd86 2.439 . S
O97 C91 1.208 . S
O98 Cd99 2.223 . S
O98 C106 1.315 . S
Cd99 O98 2.223 . S
Cd99 O102 2.297 . S
Cd99 O103 2.439 . S
Cd99 O109 2.240 . S
Cd100 O101 2.240 . S
Cd100 O108 2.223 . S
Cd100 O110 2.297 . S
Cd100 O111 2.439 . S
O101 Cd100 2.240 . S
O101 C106 1.279 . S
O102 Cd99 2.297 . S
O102 C104 1.247 . S
O103 Cd99 2.439 . S
O103 C104 1.208 . S
C104 O102 1.247 . S
C104 O103 1.208 . S
C105 O110 1.247 . S
C105 O111 1.208 . S
C106 O98 1.315 . S
C106 O101 1.279 . S
C107 O108 1.315 . S
C107 O109 1.279 . S
O108 Cd100 2.223 . S
O108 C107 1.315 . S
O109 Cd99 2.240 . S
O109 C107 1.279 . S
O110 Cd100 2.297 . S
O110 C105 1.247 . S
O111 Cd100 2.439 . S
O111 C105 1.208 . S
O112 Cd113 2.223 . S
O112 C120 1.315 . S
Cd113 O112 2.223 . S
Cd113 O116 2.297 . S
Cd113 O117 2.439 . S
Cd113 O123 2.240 . S
Cd114 O115 2.240 . S
Cd114 O122 2.223 . S
Cd114 O124 2.297 . S
Cd114 O125 2.439 . S
O115 Cd114 2.240 . S
O115 C120 1.279 . S
O116 Cd113 2.297 . S
O116 C118 1.247 . S
O117 Cd113 2.439 . S
O117 C118 1.208 . S
C118 O116 1.247 . S
C118 O117 1.208 . S
C119 O124 1.247 . S
C119 O125 1.208 . S
C120 O112 1.315 . S
C120 O115 1.279 . S
C121 O122 1.315 . S
C121 O123 1.279 . S
O122 Cd114 2.223 . S
O122 C121 1.315 . S
O123 Cd113 2.240 . S
O123 C121 1.279 . S
O124 Cd114 2.297 . S
O124 C119 1.247 . S
O125 Cd114 2.439 . S
O125 C119 1.208 . S
O126 Cd127 2.223 . S
O126 C134 1.315 . S
Cd127 O126 2.223 . S
Cd127 O130 2.297 . S
Cd127 O131 2.439 . S
Cd127 O137 2.240 . S
Cd128 O129 2.240 . S
Cd128 O136 2.223 . S
Cd128 O138 2.297 . S
Cd128 O139 2.439 . S
O129 Cd128 2.240 . S
O129 C134 1.279 . S
O130 Cd127 2.297 . S
O130 C132 1.247 . S
O131 Cd127 2.439 . S
O131 C132 1.208 . S
C132 O130 1.247 . S
C132 O131 1.208 . S
C133 O138 1.247 . S
C133 O139 1.208 . S
C134 O126 1.315 . S
C134 O129 1.279 . S
C135 O136 1.315 . S
C135 O137 1.279 . S
O136 Cd128 2.223 . S
O136 C135 1.315 . S
O137 Cd127 2.240 . S
O137 C135 1.279 . S
O138 Cd128 2.297 . S
O138 C133 1.247 . S
O139 Cd128 2.439 . S
O139 C133 1.208 . S
O140 Cd141 2.223 . S
O140 C148 1.315 . S
Cd141 O140 2.223 . S
Cd141 O144 2.297 . S
Cd141 O145 2.439 . S
Cd141 O151 2.240 . S
Cd142 O143 2.240 . S
Cd142 O150 2.223 . S
Cd142 O152 2.297 . S
Cd142 O153 2.439 . S
O143 Cd142 2.240 . S
O143 C148 1.279 . S
O144 Cd141 2.297 . S
O144 C146 1.247 . S
O145 Cd141 2.439 . S
O145 C146 1.208 . S
C146 O144 1.247 . S
C146 O145 1.208 . S
C147 O152 1.247 . S
C147 O153 1.208 . S
C148 O140 1.315 . S
C148 O143 1.279 . S
C149 O150 1.315 . S
C149 O151 1.279 . S
O150 Cd142 2.223 . S
O150 C149 1.315 . S
O151 Cd141 2.240 . S
O151 C149 1.279 . S
O152 Cd142 2.297 . S
O152 C147 1.247 . S
O153 Cd142 2.439 . S
O153 C147 1.208 . S
O154 Cd155 2.223 . S
O154 C162 1.315 . S
Cd155 O154 2.223 . S
Cd155 O158 2.297 . S
Cd155 O159 2.439 . S
Cd155 O165 2.240 . S
Cd156 O157 2.240 . S
Cd156 O164 2.223 . S
Cd156 O166 2.297 . S
Cd156 O167 2.439 . S
O157 Cd156 2.240 . S
O157 C162 1.279 . S
O158 Cd155 2.297 . S
O158 C160 1.247 . S
O159 Cd155 2.439 . S
O159 C160 1.208 . S
C160 O158 1.247 . S
C160 O159 1.208 . S
C161 O166 1.247 . S
C161 O167 1.208 . S
C162 O154 1.315 . S
C162 O157 1.279 . S
C163 O164 1.315 . S
C163 O165 1.279 . S
O164 Cd156 2.223 . S
O164 C163 1.315 . S
O165 Cd155 2.240 . S
O165 C163 1.279 . S
O166 Cd156 2.297 . S
O166 C161 1.247 . S
O167 Cd156 2.439 . S
O167 C161 1.208 . S
O168 Cd169 2.223 . S
O168 C176 1.315 . S
Cd169 O168 2.223 . S
Cd169 O172 2.297 . S
Cd169 O173 2.439 . S
Cd169 O179 2.240 . S
Cd170 O171 2.240 . S
Cd170 O178 2.223 . S
Cd170 O180 2.297 . S
Cd170 O181 2.439 . S
O171 Cd170 2.240 . S
O171 C176 1.279 . S
O172 Cd169 2.297 . S
O172 C174 1.247 . S
O173 Cd169 2.439 . S
O173 C174 1.208 . S
C174 O172 1.247 . S
C174 O173 1.208 . S
C175 O180 1.247 . S
C175 O181 1.208 . S
C176 O168 1.315 . S
C176 O171 1.279 . S
C177 O178 1.315 . S
C177 O179 1.279 . S
O178 Cd170 2.223 . S
O178 C177 1.315 . S
O179 Cd169 2.240 . S
O179 C177 1.279 . S
O180 Cd170 2.297 . S
O180 C175 1.247 . S
O181 Cd170 2.439 . S
O181 C175 1.208 . S
O182 Cd183 2.223 . S
O182 C190 1.315 . S
Cd183 O182 2.223 . S
Cd183 O186 2.297 . S
Cd183 O187 2.439 . S
Cd183 O193 2.240 . S
Cd184 O185 2.240 . S
Cd184 O192 2.223 . S
Cd184 O194 2.297 . S
Cd184 O195 2.439 . S
O185 Cd184 2.240 . S
O185 C190 1.279 . S
O186 Cd183 2.297 . S
O186 C188 1.247 . S
O187 Cd183 2.439 . S
O187 C188 1.208 . S
C188 O186 1.247 . S
C188 O187 1.208 . S
C189 O194 1.247 . S
C189 O195 1.208 . S
C190 O182 1.315 . S
C190 O185 1.279 . S
C191 O192 1.315 . S
C191 O193 1.279 . S
O192 Cd184 2.223 . S
O192 C191 1.315 . S
O193 Cd183 2.240 . S
O193 C191 1.279 . S
O194 Cd184 2.297 . S
O194 C189 1.247 . S
O195 Cd184 2.439 . S
O195 C189 1.208 . S
O196 Cd197 2.223 . S
O196 C204 1.315 . S
Cd197 O196 2.223 . S
Cd197 O200 2.297 . S
Cd197 O201 2.439 . S
Cd197 O207 2.240 . S
Cd198 O199 2.240 . S
Cd198 O206 2.223 . S
Cd198 O208 2.297 . S
Cd198 O209 2.439 . S
O199 Cd198 2.240 . S
O199 C204 1.279 . S
O200 Cd197 2.297 . S
O200 C202 1.247 . S
O201 Cd197 2.439 . S
O201 C202 1.208 . S
C202 O200 1.247 . S
C202 O201 1.208 . S
C203 O208 1.247 . S
C203 O209 1.208 . S
C204 O196 1.315 . S
C204 O199 1.279 . S
C205 O206 1.315 . S
C205 O207 1.279 . S
O206 Cd198 2.223 . S
O206 C205 1.315 . S
O207 Cd197 2.240 . S
O207 C205 1.279 . S
O208 Cd198 2.297 . S
O208 C203 1.247 . S
O209 Cd198 2.439 . S
O209 C203 1.208 . S
O210 Cd211 2.223 . S
O210 C218 1.315 . S
Cd211 O210 2.223 . S
Cd211 O214 2.297 . S
Cd211 O215 2.439 . S
Cd211 O221 2.240 . S
Cd212 O213 2.240 . S
Cd212 O220 2.223 . S
Cd212 O222 2.297 . S
Cd212 O223 2.439 . S
O213 Cd212 2.240 . S
O213 C218 1.279 . S
O214 Cd211 2.297 . S
O214 C216 1.247 . S
O215 Cd211 2.439 . S
O215 C216 1.208 . S
C216 O214 1.247 . S
C216 O215 1.208 . S
C217 O222 1.247 . S
C217 O223 1.208 . S
C218 O210 1.315 . S
C218 O213 1.279 . S
C219 O220 1.315 . S
C219 O221 1.279 . S
O220 Cd212 2.223 . S
O220 C219 1.315 . S
O221 Cd211 2.240 . S
O221 C219 1.279 . S
O222 Cd212 2.297 . S
O222 C217 1.247 . S
O223 Cd212 2.439 . S
O223 C217 1.208 . S
O224 Cd225 2.223 . S
O224 C232 1.315 . S
Cd225 O224 2.223 . S
Cd225 O228 2.297 . S
Cd225 O229 2.439 . S
Cd225 O235 2.240 . S
Cd226 O227 2.240 . S
Cd226 O234 2.223 . S
Cd226 O236 2.297 . S
Cd226 O237 2.439 . S
O227 Cd226 2.240 . S
O227 C232 1.279 . S
O228 Cd225 2.297 . S
O228 C230 1.247 . S
O229 Cd225 2.439 . S
O229 C230 1.208 . S
C230 O228 1.247 . S
C230 O229 1.208 . S
C231 O236 1.247 . S
C231 O237 1.208 . S
C232 O224 1.315 . S
C232 O227 1.279 . S
C233 O234 1.315 . S
C233 O235 1.279 . S
O234 Cd226 2.223 . S
O234 C233 1.315 . S
O235 Cd225 2.240 . S
O235 C233 1.279 . S
O236 Cd226 2.297 . S
O236 C231 1.247 . S
O237 Cd226 2.439 . S
O237 C231 1.208 . S
O238 Cd239 2.223 . S
O238 C246 1.315 . S
Cd239 O238 2.223 . S
Cd239 O242 2.297 . S
Cd239 O243 2.439 . S
Cd239 O249 2.240 . S
Cd240 O241 2.240 . S
Cd240 O248 2.223 . S
Cd240 O250 2.297 . S
Cd240 O251 2.439 . S
O241 Cd240 2.240 . S
O241 C246 1.279 . S
O242 Cd239 2.297 . S
O242 C244 1.247 . S
O243 Cd239 2.439 . S
O243 C244 1.208 . S
C244 O242 1.247 . S
C244 O243 1.208 . S
C245 O250 1.247 . S
C245 O251 1.208 . S
C246 O238 1.315 . S
C246 O241 1.279 . S
C247 O248 1.315 . S
C247 O249 1.279 . S
O248 Cd240 2.223 . S
O248 C247 1.315 . S
O249 Cd239 2.240 . S
O249 C247 1.279 . S
O250 Cd240 2.297 . S
O250 C245 1.247 . S
O251 Cd240 2.439 . S
O251 C245 1.208 . S
O252 Cd253 2.223 . S
O252 C260 1.315 . S
Cd253 O252 2.223 . S
Cd253 O256 2.297 . S
Cd253 O257 2.439 . S
Cd253 O263 2.240 . S
Cd254 O255 2.240 . S
Cd254 O262 2.223 . S
Cd254 O264 2.297 . S
Cd254 O265 2.439 . S
O255 Cd254 2.240 . S
O255 C260 1.279 . S
O256 Cd253 2.297 . S
O256 C258 1.247 . S
O257 Cd253 2.439 . S
O257 C258 1.208 . S
C258 O256 1.247 . S
C258 O257 1.208 . S
C259 O264 1.247 . S
C259 O265 1.208 . S
C260 O252 1.315 . S
C260 O255 1.279 . S
C261 O262 1.315 . S
C261 O263 1.279 . S
O262 Cd254 2.223 . S
O262 C261 1.315 . S
O263 Cd253 2.240 . S
O263 C261 1.279 . S
O264 Cd254 2.297 . S
O264 C259 1.247 . S
O265 Cd254 2.439 . S
O265 C259 1.208 . S
O266 Cd267 2.223 . S
O266 C274 1.315 . S
Cd267 O266 2.223 . S
Cd267 O270 2.297 . S
Cd267 O271 2.439 . S
Cd267 O277 2.240 . S
Cd268 O269 2.240 . S
Cd268 O276 2.223 . S
Cd268 O278 2.297 . S
Cd268 O279 2.439 . S
O269 Cd268 2.240 . S
O269 C274 1.279 . S
O270 Cd267 2.297 . S
O270 C272 1.247 . S
O271 Cd267 2.439 . S
O271 C272 1.208 . S
C272 O270 1.247 . S
C272 O271 1.208 . S
C273 O278 1.247 . S
C273 O279 1.208 . S
C274 O266 1.315 . S
C274 O269 1.279 . S
C275 O276 1.315 . S
C275 O277 1.279 . S
O276 Cd268 2.223 . S
O276 C275 1.315 . S
O277 Cd267 2.240 . S
O277 C275 1.279 . S
O278 Cd268 2.297 . S
O278 C273 1.247 . S
O279 Cd268 2.439 . S
O279 C273 1.208 . S
O280 Cd281 2.223 . S
O280 C288 1.315 . S
Cd281 O280 2.223 . S
Cd281 O284 2.297 . S
Cd281 O285 2.439 . S
Cd281 O291 2.240 . S
Cd282 O283 2.240 . S
Cd282 O290 2.223 . S
Cd282 O292 2.297 . S
Cd282 O293 2.439 . S
O283 Cd282 2.240 . S
O283 C288 1.279 . S
O284 Cd281 2.297 . S
O284 C286 1.247 . S
O285 Cd281 2.439 . S
O285 C286 1.208 . S
C286 O284 1.247 . S
C286 O285 1.208 . S
C287 O292 1.247 . S
C287 O293 1.208 . S
C288 O280 1.315 . S
C288 O283 1.279 . S
C289 O290 1.315 . S
C289 O291 1.279 . S
O290 Cd282 2.223 . S
O290 C289 1.315 . S
O291 Cd281 2.240 . S
O291 C289 1.279 . S
O292 Cd282 2.297 . S
O292 C287 1.247 . S
O293 Cd282 2.439 . S
O293 C287 1.208 . S
O294 Cd295 2.223 . S
O294 C302 1.315 . S
Cd295 O294 2.223 . S
Cd295 O298 2.297 . S
Cd295 O299 2.439 . S
Cd295 O305 2.240 . S
Cd296 O297 2.240 . S
Cd296 O304 2.223 . S
Cd296 O306 2.297 . S
Cd296 O307 2.439 . S
O297 Cd296 2.240 . S
O297 C302 1.279 . S
O298 Cd295 2.297 . S
O298 C300 1.247 . S
O299 Cd295 2.439 . S
O299 C300 1.208 . S
C300 O298 1.247 . S
C300 O299 1.208 . S
C301 O306 1.247 . S
C301 O307 1.208 . S
C302 O294 1.315 . S
C302 O297 1.279 . S
C303 O304 1.315 . S
C303 O305 1.279 . S
O304 Cd296 2.223 . S
O304 C303 1.315 . S
O305 Cd295 2.240 . S
O305 C303 1.279 . S
O306 Cd296 2.297 . S
O306 C301 1.247 . S
O307 Cd296 2.439 . S
O307 C301 1.208 . S
O308 Cd309 2.223 . S
O308 C316 1.315 . S
Cd309 O308 2.223 . S
Cd309 O312 2.297 . S
Cd309 O313 2.439 . S
Cd309 O319 2.240 . S
Cd310 O311 2.240 . S
Cd310 O318 2.223 . S
Cd310 O320 2.297 . S
Cd310 O321 2.439 . S
O311 Cd310 2.240 . S
O311 C316 1.279 . S
O312 Cd309 2.297 . S
O312 C314 1.247 . S
O313 Cd309 2.439 . S
O313 C314 1.208 . S
C314 O312 1.247 . S
C314 O313 1.208 . S
C315 O320 1.247 . S
C315 O321 1.208 . S
C316 O308 1.315 . S
C316 O311 1.279 . S
C317 O318 1.315 . S
C317 O319 1.279 . S
O318 Cd310 2.223 . S
O318 C317 1.315 . S
O319 Cd309 2.240 . S
O319 C317 1.279 . S
O320 Cd310 2.297 . S
O320 C315 1.247 . S
O321 Cd310 2.439 . S
O321 C315 1.208 . S
O322 Cd323 2.223 . S
O322 C330 1.315 . S
Cd323 O322 2.223 . S
Cd323 O326 2.297 . S
Cd323 O327 2.439 . S
Cd323 O333 2.240 . S
Cd324 O325 2.240 . S
Cd324 O332 2.223 . S
Cd324 O334 2.297 . S
Cd324 O335 2.439 . S
O325 Cd324 2.240 . S
O325 C330 1.279 . S
O326 Cd323 2.297 . S
O326 C328 1.247 . S
O327 Cd323 2.439 . S
O327 C328 1.208 . S
C328 O326 1.247 . S
C328 O327 1.208 . S
C329 O334 1.247 . S
C329 O335 1.208 . S
C330 O322 1.315 . S
C330 O325 1.279 . S
C331 O332 1.315 . S
C331 O333 1.279 . S
O332 Cd324 2.223 . S
O332 C331 1.315 . S
O333 Cd323 2.240 . S
O333 C331 1.279 . S
O334 Cd324 2.297 . S
O334 C329 1.247 . S
O335 Cd324 2.439 . S
O335 C329 1.208 . S
O336 Cd337 2.223 . S
O336 C344 1.315 . S
Cd337 O336 2.223 . S
Cd337 O340 2.297 . S
Cd337 O341 2.439 . S
Cd337 O347 2.240 . S
Cd338 O339 2.240 . S
Cd338 O346 2.223 . S
Cd338 O348 2.297 . S
Cd338 O349 2.439 . S
O339 Cd338 2.240 . S
O339 C344 1.279 . S
O340 Cd337 2.297 . S
O340 C342 1.247 . S
O341 Cd337 2.439 . S
O341 C342 1.208 . S
C342 O340 1.247 . S
C342 O341 1.208 . S
C343 O348 1.247 . S
C343 O349 1.208 . S
C344 O336 1.315 . S
C344 O339 1.279 . S
C345 O346 1.315 . S
C345 O347 1.279 . S
O346 Cd338 2.223 . S
O346 C345 1.315 . S
O347 Cd337 2.240 . S
O347 C345 1.279 . S
O348 Cd338 2.297 . S
O348 C343 1.247 . S
O349 Cd338 2.439 . S
O349 C343 1.208 . S
O350 Cd351 2.223 . S
O350 C358 1.315 . S
Cd351 O350 2.223 . S
Cd351 O354 2.297 . S
Cd351 O355 2.439 . S
Cd351 O361 2.240 . S
Cd352 O353 2.240 . S
Cd352 O360 2.223 . S
Cd352 O362 2.297 . S
Cd352 O363 2.439 . S
O353 Cd352 2.240 . S
O353 C358 1.279 . S
O354 Cd351 2.297 . S
O354 C356 1.247 . S
O355 Cd351 2.439 . S
O355 C356 1.208 . S
C356 O354 1.247 . S
C356 O355 1.208 . S
C357 O362 1.247 . S
C357 O363 1.208 . S
C358 O350 1.315 . S
C358 O353 1.279 . S
C359 O360 1.315 . S
C359 O361 1.279 . S
O360 Cd352 2.223 . S
O360 C359 1.315 . S
O361 Cd351 2.240 . S
O361 C359 1.279 . S
O362 Cd352 2.297 . S
O362 C357 1.247 . S
O363 Cd352 2.439 . S
O363 C357 1.208 . S
O364 Cd365 2.223 . S
O364 C372 1.315 . S
Cd365 O364 2.223 . S
Cd365 O368 2.297 . S
Cd365 O369 2.439 . S
Cd365 O375 2.240 . S
Cd366 O367 2.240 . S
Cd366 O374 2.223 . S
Cd366 O376 2.297 . S
Cd366 O377 2.439 . S
O367 Cd366 2.240 . S
O367 C372 1.279 . S
O368 Cd365 2.297 . S
O368 C370 1.247 . S
O369 Cd365 2.439 . S
O369 C370 1.208 . S
C370 O368 1.247 . S
C370 O369 1.208 . S
C371 O376 1.247 . S
C371 O377 1.208 . S
C372 O364 1.315 . S
C372 O367 1.279 . S
C373 O374 1.315 . S
C373 O375 1.279 . S
O374 Cd366 2.223 . S
O374 C373 1.315 . S
O375 Cd365 2.240 . S
O375 C373 1.279 . S
O376 Cd366 2.297 . S
O376 C371 1.247 . S
O377 Cd366 2.439 . S
O377 C371 1.208 . S
O378 Cd379 2.223 . S
O378 C386 1.315 . S
Cd379 O378 2.223 . S
Cd379 O382 2.297 . S
Cd379 O383 2.439 . S
Cd379 O389 2.240 . S
Cd380 O381 2.240 . S
Cd380 O388 2.223 . S
Cd380 O390 2.297 . S
Cd380 O391 2.439 . S
O381 Cd380 2.240 . S
O381 C386 1.279 . S
O382 Cd379 2.297 . S
O382 C384 1.247 . S
O383 Cd379 2.439 . S
O383 C384 1.208 . S
C384 O382 1.247 . S
C384 O383 1.208 . S
C385 O390 1.247 . S
C385 O391 1.208 . S
C386 O378 1.315 . S
C386 O381 1.279 . S
C387 O388 1.315 . S
C387 O389 1.279 . S
O388 Cd380 2.223 . S
O388 C387 1.315 . S
O389 Cd379 2.240 . S
O389 C387 1.279 . S
O390 Cd380 2.297 . S
O390 C385 1.247 . S
O391 Cd380 2.439 . S
O391 C385 1.208 . S
O392 Cd393 2.223 . S
O392 C400 1.315 . S
Cd393 O392 2.223 . S
Cd393 O396 2.297 . S
Cd393 O397 2.439 . S
Cd393 O403 2.240 . S
Cd394 O395 2.240 . S
Cd394 O402 2.223 . S
Cd394 O404 2.297 . S
Cd394 O405 2.439 . S
O395 Cd394 2.240 . S
O395 C400 1.279 . S
O396 Cd393 2.297 . S
O396 C398 1.247 . S
O397 Cd393 2.439 . S
O397 C398 1.208 . S
C398 O396 1.247 . S
C398 O397 1.208 . S
C399 O404 1.247 . S
C399 O405 1.208 . S
C400 O392 1.315 . S
C400 O395 1.279 . S
C401 O402 1.315 . S
C401 O403 1.279 . S
O402 Cd394 2.223 . S
O402 C401 1.315 . S
O403 Cd393 2.240 . S
O403 C401 1.279 . S
O404 Cd394 2.297 . S
O404 C399 1.247 . S
O405 Cd394 2.439 . S
O405 C399 1.208 . S
O406 Cd407 2.223 . S
O406 C414 1.315 . S
Cd407 O406 2.223 . S
Cd407 O410 2.297 . S
Cd407 O411 2.439 . S
Cd407 O417 2.240 . S
Cd408 O409 2.240 . S
Cd408 O416 2.223 . S
Cd408 O418 2.297 . S
Cd408 O419 2.439 . S
O409 Cd408 2.240 . S
O409 C414 1.279 . S
O410 Cd407 2.297 . S
O410 C412 1.247 . S
O411 Cd407 2.439 . S
O411 C412 1.208 . S
C412 O410 1.247 . S
C412 O411 1.208 . S
C413 O418 1.247 . S
C413 O419 1.208 . S
C414 O406 1.315 . S
C414 O409 1.279 . S
C415 O416 1.315 . S
C415 O417 1.279 . S
O416 Cd408 2.223 . S
O416 C415 1.315 . S
O417 Cd407 2.240 . S
O417 C415 1.279 . S
O418 Cd408 2.297 . S
O418 C413 1.247 . S
O419 Cd408 2.439 . S
O419 C413 1.208 . S
O420 Cd421 2.223 . S
O420 C428 1.315 . S
Cd421 O420 2.223 . S
Cd421 O424 2.297 . S
Cd421 O425 2.439 . S
Cd421 O431 2.240 . S
Cd422 O423 2.240 . S
Cd422 O430 2.223 . S
Cd422 O432 2.297 . S
Cd422 O433 2.439 . S
O423 Cd422 2.240 . S
O423 C428 1.279 . S
O424 Cd421 2.297 . S
O424 C426 1.247 . S
O425 Cd421 2.439 . S
O425 C426 1.208 . S
C426 O424 1.247 . S
C426 O425 1.208 . S
C427 O432 1.247 . S
C427 O433 1.208 . S
C428 O420 1.315 . S
C428 O423 1.279 . S
C429 O430 1.315 . S
C429 O431 1.279 . S
O430 Cd422 2.223 . S
O430 C429 1.315 . S
O431 Cd421 2.240 . S
O431 C429 1.279 . S
O432 Cd422 2.297 . S
O432 C427 1.247 . S
O433 Cd422 2.439 . S
O433 C427 1.208 . S
O434 Cd435 2.223 . S
O434 C442 1.315 . S
Cd435 O434 2.223 . S
Cd435 O438 2.297 . S
Cd435 O439 2.439 . S
Cd435 O445 2.240 . S
Cd436 O437 2.240 . S
Cd436 O444 2.223 . S
Cd436 O446 2.297 . S
Cd436 O447 2.439 . S
O437 Cd436 2.240 . S
O437 C442 1.279 . S
O438 Cd435 2.297 . S
O438 C440 1.247 . S
O439 Cd435 2.439 . S
O439 C440 1.208 . S
C440 O438 1.247 . S
C440 O439 1.208 . S
C441 O446 1.247 . S
C441 O447 1.208 . S
C442 O434 1.315 . S
C442 O437 1.279 . S
C443 O444 1.315 . S
C443 O445 1.279 . S
O444 Cd436 2.223 . S
O444 C443 1.315 . S
O445 Cd435 2.240 . S
O445 C443 1.279 . S
O446 Cd436 2.297 . S
O446 C441 1.247 . S
O447 Cd436 2.439 . S
O447 C441 1.208 . S
H448 C456 0.950 . S
H449 C461 0.935 1_455 S
H450 C458 0.950 . S
H451 C460 0.950 . S
H452 C462 0.950 . S
H453 C464 0.950 . S
H454 C466 0.950 . S
H455 C467 0.935 1_655 S
C456 H448 0.950 . S
C456 C457 1.386 . S
C456 C458 1.391 . S
C457 C456 1.386 . S
C457 C461 1.393 . S
C458 H450 0.950 . S
C458 C456 1.391 . S
C458 C459 1.400 . S
C459 C458 1.400 . S
C459 C460 1.398 1_655 S
C459 C465 1.491 1_656 S
C460 H451 0.950 . S
C460 C459 1.398 1_455 S
C460 C461 1.391 1_455 S
C461 H449 0.935 1_655 S
C461 C457 1.393 . S
C461 C460 1.391 1_655 S
C462 H452 0.950 . S
C462 C463 1.386 . S
C462 C464 1.391 . S
C463 C462 1.386 . S
C463 C467 1.393 . S
C464 H453 0.950 . S
C464 C462 1.391 . S
C464 C465 1.400 . S
C465 C459 1.491 1_454 S
C465 C464 1.400 . S
C465 C466 1.398 1_455 S
C466 H454 0.950 . S
C466 C465 1.398 1_655 S
C466 C467 1.391 1_655 S
C467 H455 0.935 1_455 S
C467 C463 1.393 . S
C467 C466 1.391 1_455 S
H468 C476 0.950 . S
H469 C481 0.950 . S
H470 C478 0.950 . S
H471 C480 0.950 . S
H472 C482 0.950 . S
H473 C484 0.950 . S
H474 C486 0.950 . S
H475 C487 0.950 . S
C476 H468 0.950 . S
C476 C477 1.386 . S
C476 C478 1.391 . S
C477 C476 1.386 . S
C477 C481 1.393 . S
C478 H470 0.950 . S
C478 C476 1.391 . S
C478 C479 1.400 . S
C479 C478 1.400 . S
C479 C480 1.398 . S
C479 C485 1.491 . S
C480 H471 0.950 . S
C480 C479 1.398 . S
C480 C481 1.391 . S
C481 H469 0.950 . S
C481 C477 1.393 . S
C481 C480 1.391 . S
C482 H472 0.950 . S
C482 C483 1.386 . S
C482 C484 1.391 . S
C483 C482 1.386 . S
C483 C487 1.393 . S
C484 H473 0.950 . S
C484 C482 1.391 . S
C484 C485 1.400 . S
C485 C479 1.491 . S
C485 C484 1.400 . S
C485 C486 1.398 . S
C486 H474 0.950 . S
C486 C485 1.398 . S
C486 C487 1.391 . S
C487 H475 0.950 . S
C487 C483 1.393 . S
C487 C486 1.391 . S
H488 C496 0.950 . S
H489 C501 0.950 . S
H490 C498 0.950 . S
H491 C500 0.950 . S
H492 C502 0.950 . S
H493 C504 0.950 . S
H494 C506 0.950 . S
H495 C507 0.950 . S
C496 H488 0.950 . S
C496 C497 1.386 . S
C496 C498 1.391 . S
C497 C496 1.386 . S
C497 C501 1.393 . S
C498 H490 0.950 . S
C498 C496 1.391 . S
C498 C499 1.400 . S
C499 C498 1.400 . S
C499 C500 1.398 . S
C499 C505 1.491 . S
C500 H491 0.950 . S
C500 C499 1.398 . S
C500 C501 1.391 . S
C501 H489 0.950 . S
C501 C497 1.393 . S
C501 C500 1.391 . S
C502 H492 0.950 . S
C502 C503 1.386 . S
C502 C504 1.391 . S
C503 C502 1.386 . S
C503 C507 1.393 . S
C504 H493 0.950 . S
C504 C502 1.391 . S
C504 C505 1.400 . S
C505 C499 1.491 . S
C505 C504 1.400 . S
C505 C506 1.398 . S
C506 H494 0.950 . S
C506 C505 1.398 . S
C506 C507 1.391 . S
C507 H495 0.950 . S
C507 C503 1.393 . S
C507 C506 1.391 . S
H508 C516 0.950 . S
H509 C521 0.950 . S
H510 C518 0.950 . S
H511 C520 0.950 . S
H512 C522 0.950 . S
H513 C524 0.950 . S
H514 C526 0.950 . S
H515 C527 0.950 . S
C516 H508 0.950 . S
C516 C517 1.386 . S
C516 C518 1.391 . S
C517 C516 1.386 . S
C517 C521 1.393 . S
C518 H510 0.950 . S
C518 C516 1.391 . S
C518 C519 1.400 . S
C519 C518 1.400 . S
C519 C520 1.398 . S
C519 C525 1.491 . S
C520 H511 0.950 . S
C520 C519 1.398 . S
C520 C521 1.391 . S
C521 H509 0.950 . S
C521 C517 1.393 . S
C521 C520 1.391 . S
C522 H512 0.950 . S
C522 C523 1.386 . S
C522 C524 1.391 . S
C523 C522 1.386 . S
C523 C527 1.393 . S
C524 H513 0.950 . S
C524 C522 1.391 . S
C524 C525 1.400 . S
C525 C519 1.491 . S
C525 C524 1.400 . S
C525 C526 1.398 . S
C526 H514 0.950 . S
C526 C525 1.398 . S
C526 C527 1.391 . S
C527 H515 0.950 . S
C527 C523 1.393 . S
C527 C526 1.391 . S
H528 C536 0.950 . S
H529 C541 0.950 . S
H530 C538 0.950 . S
H531 C540 0.950 . S
H532 C542 0.950 . S
H533 C544 0.950 . S
H534 C546 0.950 . S
H535 C547 0.950 . S
C536 H528 0.950 . S
C536 C537 1.386 . S
C536 C538 1.391 . S
C537 C536 1.386 . S
C537 C541 1.393 . S
C538 H530 0.950 . S
C538 C536 1.391 . S
C538 C539 1.400 . S
C539 C538 1.400 . S
C539 C540 1.398 . S
C539 C545 1.491 1_655 S
C540 H531 0.950 . S
C540 C539 1.398 . S
C540 C541 1.391 . S
C541 H529 0.950 . S
C541 C537 1.393 . S
C541 C540 1.391 . S
C542 H532 0.950 . S
C542 C543 1.386 . S
C542 C544 1.391 . S
C543 C542 1.386 . S
C543 C547 1.393 . S
C544 H533 0.950 . S
C544 C542 1.391 . S
C544 C545 1.400 . S
C545 C539 1.491 1_455 S
C545 C544 1.400 . S
C545 C546 1.398 . S
C546 H534 0.950 . S
C546 C545 1.398 . S
C546 C547 1.391 . S
C547 H535 0.950 . S
C547 C543 1.393 . S
C547 C546 1.391 . S
H548 C556 0.950 . S
H549 C561 0.950 . S
H550 C558 0.950 . S
H551 C560 0.950 . S
H552 C562 0.950 . S
H553 C564 0.950 . S
H554 C566 0.950 . S
H555 C567 0.950 . S
C556 H548 0.950 . S
C556 C557 1.386 . S
C556 C558 1.391 . S
C557 C556 1.386 . S
C557 C561 1.393 . S
C558 H550 0.950 . S
C558 C556 1.391 . S
C558 C559 1.400 . S
C559 C558 1.400 . S
C559 C560 1.398 . S
C559 C565 1.491 . S
C560 H551 0.950 . S
C560 C559 1.398 . S
C560 C561 1.391 . S
C561 H549 0.950 . S
C561 C557 1.393 . S
C561 C560 1.391 . S
C562 H552 0.950 . S
C562 C563 1.386 . S
C562 C564 1.391 . S
C563 C562 1.386 . S
C563 C567 1.393 . S
C564 H553 0.950 . S
C564 C562 1.391 . S
C564 C565 1.400 . S
C565 C559 1.491 . S
C565 C564 1.400 . S
C565 C566 1.398 . S
C566 H554 0.950 . S
C566 C565 1.398 . S
C566 C567 1.391 . S
C567 H555 0.950 . S
C567 C563 1.393 . S
C567 C566 1.391 . S
H568 C576 0.950 . S
H569 C581 0.974 . S
H570 C578 0.950 . S
H571 C580 0.950 . S
H572 C582 0.950 . S
H573 C584 0.950 . S
H574 C586 0.950 . S
H575 C587 0.974 . S
C576 H568 0.950 . S
C576 C577 1.386 . S
C576 C578 1.391 . S
C577 C576 1.386 . S
C577 C581 1.357 1_556 S
C578 H570 0.950 . S
C578 C576 1.391 . S
C578 C579 1.400 . S
C579 C578 1.400 . S
C579 C580 1.398 1_556 S
C579 C585 1.491 1_556 S
C580 H571 0.950 . S
C580 C579 1.398 1_554 S
C580 C581 1.404 . S
C581 H569 0.974 . S
C581 C577 1.357 1_554 S
C581 C580 1.404 . S
C582 H572 0.950 . S
C582 C583 1.386 . S
C582 C584 1.391 . S
C583 C582 1.386 . S
C583 C587 1.357 1_554 S
C584 H573 0.950 . S
C584 C582 1.391 . S
C584 C585 1.400 . S
C585 C579 1.491 1_554 S
C585 C584 1.400 . S
C585 C586 1.398 1_554 S
C586 H574 0.950 . S
C586 C585 1.398 1_556 S
C586 C587 1.404 . S
C587 H575 0.974 . S
C587 C583 1.357 1_556 S
C587 C586 1.404 . S
H588 C596 0.950 . S
H589 C601 0.950 . S
H590 C598 0.950 . S
H591 C600 0.950 . S
H592 C602 0.950 . S
H593 C604 0.950 . S
H594 C606 0.950 . S
H595 C607 0.950 . S
C596 H588 0.950 . S
C596 C597 1.386 . S
C596 C598 1.391 . S
C597 C596 1.386 . S
C597 C601 1.393 . S
C598 H590 0.950 . S
C598 C596 1.391 . S
C598 C599 1.400 . S
C599 C598 1.400 . S
C599 C600 1.398 . S
C599 C605 1.491 . S
C600 H591 0.950 . S
C600 C599 1.398 . S
C600 C601 1.391 . S
C601 H589 0.950 . S
C601 C597 1.393 . S
C601 C600 1.391 . S
C602 H592 0.950 . S
C602 C603 1.386 . S
C602 C604 1.391 . S
C603 C602 1.386 . S
C603 C607 1.393 . S
C604 H593 0.950 . S
C604 C602 1.391 . S
C604 C605 1.400 . S
C605 C599 1.491 . S
C605 C604 1.400 . S
C605 C606 1.398 . S
C606 H594 0.950 . S
C606 C605 1.398 . S
C606 C607 1.391 . S
C607 H595 0.950 . S
C607 C603 1.393 . S
C607 C606 1.391 . S
H608 C616 0.950 . S
H609 C621 0.950 . S
H610 C618 0.950 . S
H611 C620 0.950 . S
H612 C622 0.950 . S
H613 C624 0.950 . S
H614 C626 0.950 . S
H615 C627 0.950 . S
C616 H608 0.950 . S
C616 C617 1.386 . S
C616 C618 1.391 . S
C617 C616 1.386 . S
C617 C621 1.393 . S
C618 H610 0.950 . S
C618 C616 1.391 . S
C618 C619 1.400 . S
C619 C618 1.400 . S
C619 C620 1.398 . S
C619 C625 1.491 . S
C620 H611 0.950 . S
C620 C619 1.398 . S
C620 C621 1.391 . S
C621 H609 0.950 . S
C621 C617 1.393 . S
C621 C620 1.391 . S
C622 H612 0.950 . S
C622 C623 1.386 . S
C622 C624 1.391 . S
C623 C622 1.386 . S
C623 C627 1.393 . S
C624 H613 0.950 . S
C624 C622 1.391 . S
C624 C625 1.400 . S
C625 C619 1.491 . S
C625 C624 1.400 . S
C625 C626 1.398 . S
C626 H614 0.950 . S
C626 C625 1.398 . S
C626 C627 1.391 . S
C627 H615 0.950 . S
C627 C623 1.393 . S
C627 C626 1.391 . S
H628 C636 0.950 . S
H629 C641 0.950 . S
H630 C638 0.950 . S
H631 C640 0.950 . S
H632 C642 0.950 . S
H633 C644 0.950 . S
H634 C646 0.950 . S
H635 C647 0.950 . S
C636 H628 0.950 . S
C636 C637 1.386 . S
C636 C638 1.391 . S
C637 C636 1.386 . S
C637 C641 1.393 . S
C638 H630 0.950 . S
C638 C636 1.391 . S
C638 C639 1.400 . S
C639 C638 1.400 . S
C639 C640 1.398 . S
C639 C645 1.491 . S
C640 H631 0.950 . S
C640 C639 1.398 . S
C640 C641 1.391 . S
C641 H629 0.950 . S
C641 C637 1.393 . S
C641 C640 1.391 . S
C642 H632 0.950 . S
C642 C643 1.386 . S
C642 C644 1.391 . S
C643 C642 1.386 . S
C643 C647 1.393 . S
C644 H633 0.950 . S
C644 C642 1.391 . S
C644 C645 1.400 . S
C645 C639 1.491 . S
C645 C644 1.400 . S
C645 C646 1.398 . S
C646 H634 0.950 . S
C646 C645 1.398 . S
C646 C647 1.391 . S
C647 H635 0.950 . S
C647 C643 1.393 . S
C647 C646 1.391 . S
H648 C656 0.950 . S
H649 C661 0.950 . S
H650 C658 0.950 . S
H651 C660 0.950 . S
H652 C662 0.950 . S
H653 C664 0.950 . S
H654 C666 0.950 . S
H655 C667 0.950 . S
C656 H648 0.950 . S
C656 C657 1.386 . S
C656 C658 1.391 . S
C657 C656 1.386 . S
C657 C661 1.393 . S
C658 H650 0.950 . S
C658 C656 1.391 . S
C658 C659 1.400 . S
C659 C658 1.400 . S
C659 C660 1.398 . S
C659 C665 1.491 . S
C660 H651 0.950 . S
C660 C659 1.398 . S
C660 C661 1.391 . S
C661 H649 0.950 . S
C661 C657 1.393 . S
C661 C660 1.391 . S
C662 H652 0.950 . S
C662 C663 1.386 . S
C662 C664 1.391 . S
C663 C662 1.386 . S
C663 C667 1.393 . S
C664 H653 0.950 . S
C664 C662 1.391 . S
C664 C665 1.400 . S
C665 C659 1.491 . S
C665 C664 1.400 . S
C665 C666 1.398 . S
C666 H654 0.950 . S
C666 C665 1.398 . S
C666 C667 1.391 . S
C667 H655 0.950 . S
C667 C663 1.393 . S
C667 C666 1.391 . S
H668 C676 0.950 . S
H669 C681 0.950 . S
H670 C678 0.950 . S
H671 C680 0.950 . S
H672 C682 0.950 . S
H673 C684 0.950 . S
H674 C686 0.950 . S
H675 C687 0.950 . S
C676 H668 0.950 . S
C676 C677 1.386 . S
C676 C678 1.391 . S
C677 C676 1.386 . S
C677 C681 1.393 . S
C678 H670 0.950 . S
C678 C676 1.391 . S
C678 C679 1.400 . S
C679 C678 1.400 . S
C679 C680 1.398 . S
C679 C685 1.491 . S
C680 H671 0.950 . S
C680 C679 1.398 . S
C680 C681 1.391 . S
C681 H669 0.950 . S
C681 C677 1.393 . S
C681 C680 1.391 . S
C682 H672 0.950 . S
C682 C683 1.386 . S
C682 C684 1.391 . S
C683 C682 1.386 . S
C683 C687 1.393 . S
C684 H673 0.950 . S
C684 C682 1.391 . S
C684 C685 1.400 . S
C685 C679 1.491 . S
C685 C684 1.400 . S
C685 C686 1.398 . S
C686 H674 0.950 . S
C686 C685 1.398 . S
C686 C687 1.391 . S
C687 H675 0.950 . S
C687 C683 1.393 . S
C687 C686 1.391 . S
H688 C696 0.950 . S
H689 C701 0.950 . S
H690 C698 0.950 . S
H691 C700 0.950 1_545 S
H692 C702 0.950 . S
H693 C704 0.950 . S
H694 C706 0.950 1_565 S
H695 C707 0.950 . S
C696 H688 0.950 . S
C696 C697 1.386 . S
C696 C698 1.391 . S
C697 C696 1.386 . S
C697 C701 1.393 . S
C698 H690 0.950 . S
C698 C696 1.391 . S
C698 C699 1.400 . S
C699 C698 1.400 . S
C699 C700 1.398 . S
C699 C705 1.491 1_565 S
C700 H691 0.950 1_565 S
C700 C699 1.398 . S
C700 C701 1.391 . S
C701 H689 0.950 . S
C701 C697 1.393 . S
C701 C700 1.391 . S
C702 H692 0.950 . S
C702 C703 1.386 . S
C702 C704 1.391 . S
C703 C702 1.386 . S
C703 C707 1.393 . S
C704 H693 0.950 . S
C704 C702 1.391 . S
C704 C705 1.400 . S
C705 C699 1.491 1_545 S
C705 C704 1.400 . S
C705 C706 1.398 . S
C706 H694 0.950 1_545 S
C706 C705 1.398 . S
C706 C707 1.391 . S
C707 H695 0.950 . S
C707 C703 1.393 . S
C707 C706 1.391 . S
H708 C716 0.961 . S
H709 C721 0.950 . S
H710 C718 0.950 1_655 S
H711 C720 0.950 1_545 S
H712 C722 0.961 . S
H713 C724 0.950 1_455 S
H714 C726 0.950 1_565 S
H715 C727 0.950 . S
C716 H708 0.961 . S
C716 C717 1.368 1_554 S
C716 C718 1.398 . S
C717 C716 1.368 1_556 S
C717 C721 1.393 . S
C718 H710 0.950 1_455 S
C718 C716 1.398 . S
C718 C719 1.400 1_554 S
C719 C718 1.400 1_556 S
C719 C720 1.398 . S
C719 C725 1.491 1_466 S
C720 H711 0.950 1_565 S
C720 C719 1.398 . S
C720 C721 1.391 . S
C721 H709 0.950 . S
C721 C717 1.393 . S
C721 C720 1.391 . S
C722 H712 0.961 . S
C722 C723 1.368 1_556 S
C722 C724 1.398 . S
C723 C722 1.368 1_554 S
C723 C727 1.393 . S
C724 H713 0.950 1_655 S
C724 C722 1.398 . S
C724 C725 1.400 1_556 S
C725 C719 1.491 1_644 S
C725 C724 1.400 1_554 S
C725 C726 1.398 . S
C726 H714 0.950 1_545 S
C726 C725 1.398 . S
C726 C727 1.391 . S
C727 H715 0.950 . S
C727 C723 1.393 . S
C727 C726 1.391 . S
H728 C736 0.950 . S
H729 C741 0.950 . S
H730 C738 0.950 1_565 S
H731 C740 0.950 . S
H732 C742 0.950 . S
H733 C744 0.950 1_545 S
H734 C746 0.950 . S
H735 C747 0.950 . S
C736 H728 0.950 . S
C736 C737 1.386 . S
C736 C738 1.391 . S
C737 C736 1.386 . S
C737 C741 1.393 1_556 S
C738 H730 0.950 1_545 S
C738 C736 1.391 . S
C738 C739 1.400 . S
C739 C738 1.400 . S
C739 C740 1.398 1_556 S
C739 C745 1.491 1_546 S
C740 H731 0.950 . S
C740 C739 1.398 1_554 S
C740 C741 1.391 . S
C741 H729 0.950 . S
C741 C737 1.393 1_554 S
C741 C740 1.391 . S
C742 H732 0.950 . S
C742 C743 1.386 . S
C742 C744 1.391 . S
C743 C742 1.386 . S
C743 C747 1.393 1_554 S
C744 H733 0.950 1_565 S
C744 C742 1.391 . S
C744 C745 1.400 . S
C745 C739 1.491 1_564 S
C745 C744 1.400 . S
C745 C746 1.398 1_554 S
C746 H734 0.950 . S
C746 C745 1.398 1_556 S
C746 C747 1.391 . S
C747 H735 0.950 . S
C747 C743 1.393 1_556 S
C747 C746 1.391 . S
H748 C756 0.950 . S
H749 C761 0.950 . S
H750 C758 0.950 1_565 S
H751 C760 0.950 . S
H752 C762 0.950 . S
H753 C764 0.950 1_545 S
H754 C766 0.950 . S
H755 C767 0.950 . S
C756 H748 0.950 . S
C756 C757 1.386 . S
C756 C758 1.391 . S
C757 C756 1.386 . S
C757 C761 1.393 . S
C758 H750 0.950 1_545 S
C758 C756 1.391 . S
C758 C759 1.400 . S
C759 C758 1.400 . S
C759 C760 1.398 1_455 S
C759 C765 1.491 1_445 S
C760 H751 0.950 . S
C760 C759 1.398 1_655 S
C760 C761 1.391 1_655 S
C761 H749 0.950 . S
C761 C757 1.393 . S
C761 C760 1.391 1_455 S
C762 H752 0.950 . S
C762 C763 1.386 . S
C762 C764 1.391 . S
C763 C762 1.386 . S
C763 C767 1.393 . S
C764 H753 0.950 1_565 S
C764 C762 1.391 . S
C764 C765 1.400 . S
C765 C759 1.491 1_665 S
C765 C764 1.400 . S
C765 C766 1.398 1_655 S
C766 H754 0.950 . S
C766 C765 1.398 1_455 S
C766 C767 1.391 1_455 S
C767 H755 0.950 . S
C767 C763 1.393 . S
C767 C766 1.391 1_655 S
H768 C776 0.950 . S
H769 C781 0.950 . S
H770 C778 0.950 . S
H771 C780 0.950 1_455 S
H772 C782 0.950 . S
H773 C784 0.950 . S
H774 C786 0.950 1_655 S
H775 C787 0.950 . S
C776 H768 0.950 . S
C776 C777 1.386 . S
C776 C778 1.391 . S
C777 C776 1.386 . S
C777 C781 1.393 . S
C778 H770 0.950 . S
C778 C776 1.391 . S
C778 C779 1.400 . S
C779 C778 1.400 . S
C779 C780 1.398 . S
C779 C785 1.491 1_655 S
C780 H771 0.950 1_655 S
C780 C779 1.398 . S
C780 C781 1.391 . S
C781 H769 0.950 . S
C781 C777 1.393 . S
C781 C780 1.391 . S
C782 H772 0.950 . S
C782 C783 1.386 . S
C782 C784 1.391 . S
C783 C782 1.386 . S
C783 C787 1.393 . S
C784 H773 0.950 . S
C784 C782 1.391 . S
C784 C785 1.400 . S
C785 C779 1.491 1_455 S
C785 C784 1.400 . S
C785 C786 1.398 . S
C786 H774 0.950 1_455 S
C786 C785 1.398 . S
C786 C787 1.391 . S
C787 H775 0.950 . S
C787 C783 1.393 . S
C787 C786 1.391 . S
H788 C796 0.950 . S
H789 C801 0.950 . S
H790 C798 0.952 1_655 S
H791 C800 0.950 . S
H792 C802 0.950 . S
H793 C804 0.952 1_455 S
H794 C806 0.950 . S
H795 C807 0.950 . S
C796 H788 0.950 . S
C796 C797 1.386 . S
C796 C798 1.391 . S
C797 C796 1.386 . S
C797 C801 1.393 . S
C798 H790 0.952 1_455 S
C798 C796 1.391 . S
C798 C799 1.400 . S
C799 C798 1.400 . S
C799 C800 1.398 . S
C799 C805 1.491 1_455 S
C800 H791 0.950 . S
C800 C799 1.398 . S
C800 C801 1.391 . S
C801 H789 0.950 . S
C801 C797 1.393 . S
C801 C800 1.391 . S
C802 H792 0.950 . S
C802 C803 1.386 . S
C802 C804 1.391 . S
C803 C802 1.386 . S
C803 C807 1.393 . S
C804 H793 0.952 1_655 S
C804 C802 1.391 . S
C804 C805 1.400 . S
C805 C799 1.491 1_655 S
C805 C804 1.400 . S
C805 C806 1.398 . S
C806 H794 0.950 . S
C806 C805 1.398 . S
C806 C807 1.391 . S
C807 H795 0.950 . S
C807 C803 1.393 . S
C807 C806 1.391 . S
H808 C816 0.950 . S
H809 C821 0.950 . S
H810 C818 0.950 . S
H811 C820 0.950 . S
H812 C822 0.950 . S
H813 C824 0.950 . S
H814 C826 0.950 . S
H815 C827 0.950 . S
C816 H808 0.950 . S
C816 C817 1.386 . S
C816 C818 1.391 . S
C817 C816 1.386 . S
C817 C821 1.393 . S
C818 H810 0.950 . S
C818 C816 1.391 . S
C818 C819 1.400 . S
C819 C818 1.400 . S
C819 C820 1.398 . S
C819 C825 1.491 . S
C820 H811 0.950 . S
C820 C819 1.398 . S
C820 C821 1.391 . S
C821 H809 0.950 . S
C821 C817 1.393 . S
C821 C820 1.391 . S
C822 H812 0.950 . S
C822 C823 1.386 . S
C822 C824 1.391 . S
C823 C822 1.386 . S
C823 C827 1.393 . S
C824 H813 0.950 . S
C824 C822 1.391 . S
C824 C825 1.400 . S
C825 C819 1.491 . S
C825 C824 1.400 . S
C825 C826 1.398 . S
C826 H814 0.950 . S
C826 C825 1.398 . S
C826 C827 1.391 . S
C827 H815 0.950 . S
C827 C823 1.393 . S
C827 C826 1.391 . S
H828 C836 0.950 . S
H829 C841 0.950 . S
H830 C838 0.950 . S
H831 C840 0.950 . S
H832 C842 0.950 . S
H833 C844 0.950 . S
H834 C846 0.950 . S
H835 C847 0.950 . S
C836 H828 0.950 . S
C836 C837 1.386 . S
C836 C838 1.391 . S
C837 C836 1.386 . S
C837 C841 1.393 . S
C838 H830 0.950 . S
C838 C836 1.391 . S
C838 C839 1.400 . S
C839 C838 1.400 . S
C839 C840 1.398 . S
C839 C845 1.491 . S
C840 H831 0.950 . S
C840 C839 1.398 . S
C840 C841 1.391 . S
C841 H829 0.950 . S
C841 C837 1.393 . S
C841 C840 1.391 . S
C842 H832 0.950 . S
C842 C843 1.386 . S
C842 C844 1.391 . S
C843 C842 1.386 . S
C843 C847 1.393 . S
C844 H833 0.950 . S
C844 C842 1.391 . S
C844 C845 1.400 . S
C845 C839 1.491 . S
C845 C844 1.400 . S
C845 C846 1.398 . S
C846 H834 0.950 . S
C846 C845 1.398 . S
C846 C847 1.391 . S
C847 H835 0.950 . S
C847 C843 1.393 . S
C847 C846 1.391 . S
H848 C856 0.950 . S
H849 C861 0.940 1_455 S
H850 C858 0.950 . S
H851 C860 0.950 . S
H852 C862 0.950 . S
H853 C864 0.950 . S
H854 C866 0.950 . S
H855 C867 0.940 1_655 S
C856 H848 0.950 . S
C856 C857 1.386 . S
C856 C858 1.391 . S
C857 C856 1.386 . S
C857 C861 1.393 . S
C858 H850 0.950 . S
C858 C856 1.391 . S
C858 C859 1.400 . S
C859 C858 1.400 . S
C859 C860 1.398 1_655 S
C859 C865 1.491 1_655 S
C860 H851 0.950 . S
C860 C859 1.398 1_455 S
C860 C861 1.391 1_455 S
C861 H849 0.940 1_655 S
C861 C857 1.393 . S
C861 C860 1.391 1_655 S
C862 H852 0.950 . S
C862 C863 1.386 . S
C862 C864 1.391 . S
C863 C862 1.386 . S
C863 C867 1.393 . S
C864 H853 0.950 . S
C864 C862 1.391 . S
C864 C865 1.400 . S
C865 C859 1.491 1_455 S
C865 C864 1.400 . S
C865 C866 1.398 1_455 S
C866 H854 0.950 . S
C866 C865 1.398 1_655 S
C866 C867 1.391 1_655 S
C867 H855 0.940 1_455 S
C867 C863 1.393 . S
C867 C866 1.391 1_455 S
H868 C876 0.950 . S
H869 C881 0.950 . S
H870 C878 0.950 . S
H871 C880 0.950 . S
H872 C882 0.950 . S
H873 C884 0.950 . S
H874 C886 0.950 . S
H875 C887 0.950 . S
C876 H868 0.950 . S
C876 C877 1.386 . S
C876 C878 1.391 . S
C877 C876 1.386 . S
C877 C881 1.393 . S
C878 H870 0.950 . S
C878 C876 1.391 . S
C878 C879 1.400 . S
C879 C878 1.400 . S
C879 C880 1.398 . S
C879 C885 1.491 . S
C880 H871 0.950 . S
C880 C879 1.398 . S
C880 C881 1.391 . S
C881 H869 0.950 . S
C881 C877 1.393 . S
C881 C880 1.391 . S
C882 H872 0.950 . S
C882 C883 1.386 . S
C882 C884 1.391 . S
C883 C882 1.386 . S
C883 C887 1.393 . S
C884 H873 0.950 . S
C884 C882 1.391 . S
C884 C885 1.400 . S
C885 C879 1.491 . S
C885 C884 1.400 . S
C885 C886 1.398 . S
C886 H874 0.950 . S
C886 C885 1.398 . S
C886 C887 1.391 . S
C887 H875 0.950 . S
C887 C883 1.393 . S
C887 C886 1.391 . S
H888 C896 0.950 . S
H889 C901 0.950 . S
H890 C898 0.950 . S
H891 C900 0.950 . S
H892 C902 0.950 . S
H893 C904 0.950 . S
H894 C906 0.950 . S
H895 C907 0.950 . S
C896 H888 0.950 . S
C896 C897 1.386 . S
C896 C898 1.391 . S
C897 C896 1.386 . S
C897 C901 1.393 . S
C898 H890 0.950 . S
C898 C896 1.391 . S
C898 C899 1.400 . S
C899 C898 1.400 . S
C899 C900 1.398 . S
C899 C905 1.491 . S
C900 H891 0.950 . S
C900 C899 1.398 . S
C900 C901 1.391 . S
C901 H889 0.950 . S
C901 C897 1.393 . S
C901 C900 1.391 . S
C902 H892 0.950 . S
C902 C903 1.386 . S
C902 C904 1.391 . S
C903 C902 1.386 . S
C903 C907 1.393 . S
C904 H893 0.950 . S
C904 C902 1.391 . S
C904 C905 1.400 . S
C905 C899 1.491 . S
C905 C904 1.400 . S
C905 C906 1.398 . S
C906 H894 0.950 . S
C906 C905 1.398 . S
C906 C907 1.391 . S
C907 H895 0.950 . S
C907 C903 1.393 . S
C907 C906 1.391 . S
H908 C916 0.950 . S
H909 C921 0.950 . S
H910 C918 0.950 . S
H911 C920 0.950 . S
H912 C922 0.950 . S
H913 C924 0.950 . S
H914 C926 0.950 . S
H915 C927 0.950 . S
C916 H908 0.950 . S
C916 C917 1.386 . S
C916 C918 1.391 . S
C917 C916 1.386 . S
C917 C921 1.393 . S
C918 H910 0.950 . S
C918 C916 1.391 . S
C918 C919 1.400 . S
C919 C918 1.400 . S
C919 C920 1.398 . S
C919 C925 1.491 1_455 S
C920 H911 0.950 . S
C920 C919 1.398 . S
C920 C921 1.391 . S
C921 H909 0.950 . S
C921 C917 1.393 . S
C921 C920 1.391 . S
C922 H912 0.950 . S
C922 C923 1.386 . S
C922 C924 1.391 . S
C923 C922 1.386 . S
C923 C927 1.393 . S
C924 H913 0.950 . S
C924 C922 1.391 . S
C924 C925 1.400 . S
C925 C919 1.491 1_655 S
C925 C924 1.400 . S
C925 C926 1.398 . S
C926 H914 0.950 . S
C926 C925 1.398 . S
C926 C927 1.391 . S
C927 H915 0.950 . S
C927 C923 1.393 . S
C927 C926 1.391 . S
H928 C936 0.950 . S
H929 C941 0.950 . S
H930 C938 0.950 . S
H931 C940 0.950 . S
H932 C942 0.950 . S
H933 C944 0.950 . S
H934 C946 0.950 . S
H935 C947 0.950 . S
C936 H928 0.950 . S
C936 C937 1.386 . S
C936 C938 1.391 1_655 S
C937 C936 1.386 . S
C937 C941 1.393 . S
C938 H930 0.950 . S
C938 C936 1.391 1_455 S
C938 C939 1.400 1_455 S
C939 C938 1.400 1_655 S
C939 C940 1.398 . S
C939 C945 1.491 1_655 S
C940 H931 0.950 . S
C940 C939 1.398 . S
C940 C941 1.391 . S
C941 H929 0.950 . S
C941 C937 1.393 . S
C941 C940 1.391 . S
C942 H932 0.950 . S
C942 C943 1.386 . S
C942 C944 1.391 1_455 S
C943 C942 1.386 . S
C943 C947 1.393 . S
C944 H933 0.950 . S
C944 C942 1.391 1_655 S
C944 C945 1.400 1_655 S
C945 C939 1.491 1_455 S
C945 C944 1.400 1_455 S
C945 C946 1.398 . S
C946 H934 0.950 . S
C946 C945 1.398 . S
C946 C947 1.391 . S
C947 H935 0.950 . S
C947 C943 1.393 . S
C947 C946 1.391 . S
H948 C956 0.950 . S
H949 C961 0.950 . S
H950 C958 0.918 1_455 S
H951 C960 0.950 . S
H952 C962 0.950 . S
H953 C964 0.918 1_655 S
H954 C966 0.950 . S
H955 C967 0.950 . S
C956 H948 0.950 . S
C956 C957 1.386 . S
C956 C958 1.391 . S
C957 C956 1.386 . S
C957 C961 1.393 . S
C958 H950 0.918 1_655 S
C958 C956 1.391 . S
C958 C959 1.400 . S
C959 C958 1.400 . S
C959 C960 1.398 . S
C959 C965 1.491 1_655 S
C960 H951 0.950 . S
C960 C959 1.398 . S
C960 C961 1.391 . S
C961 H949 0.950 . S
C961 C957 1.393 . S
C961 C960 1.391 . S
C962 H952 0.950 . S
C962 C963 1.386 . S
C962 C964 1.391 . S
C963 C962 1.386 . S
C963 C967 1.393 . S
C964 H953 0.918 1_455 S
C964 C962 1.391 . S
C964 C965 1.400 . S
C965 C959 1.491 1_455 S
C965 C964 1.400 . S
C965 C966 1.398 . S
C966 H954 0.950 . S
C966 C965 1.398 . S
C966 C967 1.391 . S
C967 H955 0.950 . S
C967 C963 1.393 . S
C967 C966 1.391 . S
H968 C976 0.950 . S
H969 C981 0.950 . S
H970 C978 0.950 . S
H971 C980 0.950 . S
H972 C982 0.950 . S
H973 C984 0.950 . S
H974 C986 0.950 . S
H975 C987 0.950 . S
C976 H968 0.950 . S
C976 C977 1.386 . S
C976 C978 1.391 . S
C977 C976 1.386 . S
C977 C981 1.393 . S
C978 H970 0.950 . S
C978 C976 1.391 . S
C978 C979 1.400 . S
C979 C978 1.400 . S
C979 C980 1.398 . S
C979 C985 1.491 . S
C980 H971 0.950 . S
C980 C979 1.398 . S
C980 C981 1.391 . S
C981 H969 0.950 . S
C981 C977 1.393 . S
C981 C980 1.391 . S
C982 H972 0.950 . S
C982 C983 1.386 . S
C982 C984 1.391 . S
C983 C982 1.386 . S
C983 C987 1.393 . S
C984 H973 0.950 . S
C984 C982 1.391 . S
C984 C985 1.400 . S
C985 C979 1.491 . S
C985 C984 1.400 . S
C985 C986 1.398 . S
C986 H974 0.950 . S
C986 C985 1.398 . S
C986 C987 1.391 . S
C987 H975 0.950 . S
C987 C983 1.393 . S
C987 C986 1.391 . S
H988 C996 0.950 . S
H989 C1001 0.950 . S
H990 C998 0.950 . S
H991 C1000 0.950 . S
H992 C1002 0.950 . S
H993 C1004 0.950 . S
H994 C1006 0.950 . S
H995 C1007 0.950 . S
C996 H988 0.950 . S
C996 C997 1.386 . S
C996 C998 1.391 . S
C997 C996 1.386 . S
C997 C1001 1.393 . S
C998 H990 0.950 . S
C998 C996 1.391 . S
C998 C999 1.400 . S
C999 C998 1.400 . S
C999 C1000 1.398 . S
C999 C1005 1.491 . S
C1000 H991 0.950 . S
C1000 C999 1.398 . S
C1000 C1001 1.391 . S
C1001 H989 0.950 . S
C1001 C997 1.393 . S
C1001 C1000 1.391 . S
C1002 H992 0.950 . S
C1002 C1003 1.386 . S
C1002 C1004 1.391 . S
C1003 C1002 1.386 . S
C1003 C1007 1.393 . S
C1004 H993 0.950 . S
C1004 C1002 1.391 . S
C1004 C1005 1.400 . S
C1005 C999 1.491 . S
C1005 C1004 1.400 . S
C1005 C1006 1.398 . S
C1006 H994 0.950 . S
C1006 C1005 1.398 . S
C1006 C1007 1.391 . S
C1007 H995 0.950 . S
C1007 C1003 1.393 . S
C1007 C1006 1.391 . S
H1008 C1016 0.950 . S
H1009 C1021 0.955 . S
H1010 C1018 0.950 . S
H1011 C1020 0.950 . S
H1012 C1022 0.950 . S
H1013 C1024 0.950 . S
H1014 C1026 0.950 . S
H1015 C1027 0.955 . S
C1016 H1008 0.950 . S
C1016 C1017 1.386 . S
C1016 C1018 1.391 . S
C1017 C1016 1.386 . S
C1017 C1021 1.393 . S
C1018 H1010 0.950 . S
C1018 C1016 1.391 . S
C1018 C1019 1.400 . S
C1019 C1018 1.400 . S
C1019 C1020 1.398 1_655 S
C1019 C1025 1.491 1_655 S
C1020 H1011 0.950 . S
C1020 C1019 1.398 1_455 S
C1020 C1021 1.391 1_455 S
C1021 H1009 0.955 . S
C1021 C1017 1.393 . S
C1021 C1020 1.391 1_655 S
C1022 H1012 0.950 . S
C1022 C1023 1.386 . S
C1022 C1024 1.391 . S
C1023 C1022 1.386 . S
C1023 C1027 1.393 . S
C1024 H1013 0.950 . S
C1024 C1022 1.391 . S
C1024 C1025 1.400 . S
C1025 C1019 1.491 1_455 S
C1025 C1024 1.400 . S
C1025 C1026 1.398 1_455 S
C1026 H1014 0.950 . S
C1026 C1025 1.398 1_655 S
C1026 C1027 1.391 1_655 S
C1027 H1015 0.955 . S
C1027 C1023 1.393 . S
C1027 C1026 1.391 1_455 S
H1028 C1036 0.950 . S
H1029 C1041 0.950 . S
H1030 C1038 0.950 . S
H1031 C1040 0.950 . S
H1032 C1042 0.950 . S
H1033 C1044 0.950 . S
H1034 C1046 0.950 . S
H1035 C1047 0.950 . S
C1036 H1028 0.950 . S
C1036 C1037 1.386 . S
C1036 C1038 1.391 . S
C1037 C1036 1.386 . S
C1037 C1041 1.393 . S
C1038 H1030 0.950 . S
C1038 C1036 1.391 . S
C1038 C1039 1.400 . S
C1039 C1038 1.400 . S
C1039 C1040 1.398 . S
C1039 C1045 1.491 . S
C1040 H1031 0.950 . S
C1040 C1039 1.398 . S
C1040 C1041 1.391 . S
C1041 H1029 0.950 . S
C1041 C1037 1.393 . S
C1041 C1040 1.391 . S
C1042 H1032 0.950 . S
C1042 C1043 1.386 . S
C1042 C1044 1.391 . S
C1043 C1042 1.386 . S
C1043 C1047 1.393 . S
C1044 H1033 0.950 . S
C1044 C1042 1.391 . S
C1044 C1045 1.400 . S
C1045 C1039 1.491 . S
C1045 C1044 1.400 . S
C1045 C1046 1.398 . S
C1046 H1034 0.950 . S
C1046 C1045 1.398 . S
C1046 C1047 1.391 . S
C1047 H1035 0.950 . S
C1047 C1043 1.393 . S
C1047 C1046 1.391 . S
H1048 C1056 0.950 . S
H1049 C1061 0.950 . S
H1050 C1058 0.950 . S
H1051 C1060 0.950 . S
H1052 C1062 0.950 . S
H1053 C1064 0.950 . S
H1054 C1066 0.950 . S
H1055 C1067 0.950 . S
C1056 H1048 0.950 . S
C1056 C1057 1.386 . S
C1056 C1058 1.391 . S
C1057 C1056 1.386 . S
C1057 C1061 1.393 . S
C1058 H1050 0.950 . S
C1058 C1056 1.391 . S
C1058 C1059 1.400 . S
C1059 C1058 1.400 . S
C1059 C1060 1.398 . S
C1059 C1065 1.491 . S
C1060 H1051 0.950 . S
C1060 C1059 1.398 . S
C1060 C1061 1.391 . S
C1061 H1049 0.950 . S
C1061 C1057 1.393 . S
C1061 C1060 1.391 . S
C1062 H1052 0.950 . S
C1062 C1063 1.386 . S
C1062 C1064 1.391 . S
C1063 C1062 1.386 . S
C1063 C1067 1.393 . S
C1064 H1053 0.950 . S
C1064 C1062 1.391 . S
C1064 C1065 1.400 . S
C1065 C1059 1.491 . S
C1065 C1064 1.400 . S
C1065 C1066 1.398 . S
C1066 H1054 0.950 . S
C1066 C1065 1.398 . S
C1066 C1067 1.391 . S
C1067 H1055 0.950 . S
C1067 C1063 1.393 . S
C1067 C1066 1.391 . S
H1068 C1076 0.950 . S
H1069 C1081 0.950 . S
H1070 C1078 0.950 . S
H1071 C1080 0.950 . S
H1072 C1082 0.950 . S
H1073 C1084 0.950 . S
H1074 C1086 0.950 . S
H1075 C1087 0.950 . S
C1076 H1068 0.950 . S
C1076 C1077 1.386 . S
C1076 C1078 1.391 . S
C1077 C1076 1.386 . S
C1077 C1081 1.393 . S
C1078 H1070 0.950 . S
C1078 C1076 1.391 . S
C1078 C1079 1.400 . S
C1079 C1078 1.400 . S
C1079 C1080 1.398 . S
C1079 C1085 1.491 1_655 S
C1080 H1071 0.950 . S
C1080 C1079 1.398 . S
C1080 C1081 1.391 . S
C1081 H1069 0.950 . S
C1081 C1077 1.393 . S
C1081 C1080 1.391 . S
C1082 H1072 0.950 . S
C1082 C1083 1.386 . S
C1082 C1084 1.391 . S
C1083 C1082 1.386 . S
C1083 C1087 1.393 . S
C1084 H1073 0.950 . S
C1084 C1082 1.391 . S
C1084 C1085 1.400 . S
C1085 C1079 1.491 1_455 S
C1085 C1084 1.400 . S
C1085 C1086 1.398 . S
C1086 H1074 0.950 . S
C1086 C1085 1.398 . S
C1086 C1087 1.391 . S
C1087 H1075 0.950 . S
C1087 C1083 1.393 . S
C1087 C1086 1.391 . S
H1088 C1096 0.950 1_554 S
H1089 C1101 0.950 . S
H1090 C1098 0.950 . S
H1091 C1100 0.950 . S
H1092 C1102 0.950 1_556 S
H1093 C1104 0.950 . S
H1094 C1106 0.950 . S
H1095 C1107 0.950 . S
C1096 H1088 0.950 1_556 S
C1096 C1097 1.386 . S
C1096 C1098 1.391 1_556 S
C1097 C1096 1.386 . S
C1097 C1101 1.393 . S
C1098 H1090 0.950 . S
C1098 C1096 1.391 1_554 S
C1098 C1099 1.400 1_554 S
C1099 C1098 1.400 1_556 S
C1099 C1100 1.398 . S
C1099 C1105 1.491 1_556 S
C1100 H1091 0.950 . S
C1100 C1099 1.398 . S
C1100 C1101 1.391 . S
C1101 H1089 0.950 . S
C1101 C1097 1.393 . S
C1101 C1100 1.391 . S
C1102 H1092 0.950 1_554 S
C1102 C1103 1.386 . S
C1102 C1104 1.391 1_554 S
C1103 C1102 1.386 . S
C1103 C1107 1.393 . S
C1104 H1093 0.950 . S
C1104 C1102 1.391 1_556 S
C1104 C1105 1.400 1_556 S
C1105 C1099 1.491 1_554 S
C1105 C1104 1.400 1_554 S
C1105 C1106 1.398 . S
C1106 H1094 0.950 . S
C1106 C1105 1.398 . S
C1106 C1107 1.391 . S
C1107 H1095 0.950 . S
C1107 C1103 1.393 . S
C1107 C1106 1.391 . S
H1108 C1116 0.950 . S
H1109 C1121 0.950 . S
H1110 C1118 0.950 . S
H1111 C1120 0.963 . S
H1112 C1122 0.950 . S
H1113 C1124 0.950 . S
H1114 C1126 0.963 . S
H1115 C1127 0.950 . S
C1116 H1108 0.950 . S
C1116 C1117 1.386 . S
C1116 C1118 1.391 . S
C1117 C1116 1.386 . S
C1117 C1121 1.393 . S
C1118 H1110 0.950 . S
C1118 C1116 1.391 . S
C1118 C1119 1.400 . S
C1119 C1118 1.400 . S
C1119 C1120 1.398 . S
C1119 C1125 1.491 1_545 S
C1120 H1111 0.963 . S
C1120 C1119 1.398 . S
C1120 C1121 1.391 . S
C1121 H1109 0.950 . S
C1121 C1117 1.393 . S
C1121 C1120 1.391 . S
C1122 H1112 0.950 . S
C1122 C1123 1.386 . S
C1122 C1124 1.391 . S
C1123 C1122 1.386 . S
C1123 C1127 1.393 . S
C1124 H1113 0.950 . S
C1124 C1122 1.391 . S
C1124 C1125 1.400 . S
C1125 C1119 1.491 1_565 S
C1125 C1124 1.400 . S
C1125 C1126 1.398 . S
C1126 H1114 0.963 . S
C1126 C1125 1.398 . S
C1126 C1127 1.391 . S
C1127 H1115 0.950 . S
C1127 C1123 1.393 . S
C1127 C1126 1.391 . S
H1128 C1136 0.950 . S
H1129 C1141 0.950 . S
H1130 C1138 0.950 . S
H1131 C1140 0.950 . S
H1132 C1142 0.950 . S
H1133 C1144 0.950 . S
H1134 C1146 0.950 . S
H1135 C1147 0.950 . S
C1136 H1128 0.950 . S
C1136 C1137 1.386 . S
C1136 C1138 1.391 . S
C1137 C1136 1.386 . S
C1137 C1141 1.393 . S
C1138 H1130 0.950 . S
C1138 C1136 1.391 . S
C1138 C1139 1.400 . S
C1139 C1138 1.400 . S
C1139 C1140 1.398 . S
C1139 C1145 1.491 . S
C1140 H1131 0.950 . S
C1140 C1139 1.398 . S
C1140 C1141 1.391 . S
C1141 H1129 0.950 . S
C1141 C1137 1.393 . S
C1141 C1140 1.391 . S
C1142 H1132 0.950 . S
C1142 C1143 1.386 . S
C1142 C1144 1.391 . S
C1143 C1142 1.386 . S
C1143 C1147 1.393 . S
C1144 H1133 0.950 . S
C1144 C1142 1.391 . S
C1144 C1145 1.400 . S
C1145 C1139 1.491 . S
C1145 C1144 1.400 . S
C1145 C1146 1.398 . S
C1146 H1134 0.950 . S
C1146 C1145 1.398 . S
C1146 C1147 1.391 . S
C1147 H1135 0.950 . S
C1147 C1143 1.393 . S
C1147 C1146 1.391 . S
H1148 C1156 0.950 . S
H1149 C1161 0.950 . S
H1150 C1158 0.950 . S
H1151 C1160 0.934 1_565 S
H1152 C1162 0.950 . S
H1153 C1164 0.950 . S
H1154 C1166 0.934 1_545 S
H1155 C1167 0.950 . S
C1156 H1148 0.950 . S
C1156 C1157 1.386 . S
C1156 C1158 1.391 . S
C1157 C1156 1.386 . S
C1157 C1161 1.393 . S
C1158 H1150 0.950 . S
C1158 C1156 1.391 . S
C1158 C1159 1.400 . S
C1159 C1158 1.400 . S
C1159 C1160 1.398 . S
C1159 C1165 1.491 1_545 S
C1160 H1151 0.934 1_545 S
C1160 C1159 1.398 . S
C1160 C1161 1.391 . S
C1161 H1149 0.950 . S
C1161 C1157 1.393 . S
C1161 C1160 1.391 . S
C1162 H1152 0.950 . S
C1162 C1163 1.386 . S
C1162 C1164 1.391 . S
C1163 C1162 1.386 . S
C1163 C1167 1.393 . S
C1164 H1153 0.950 . S
C1164 C1162 1.391 . S
C1164 C1165 1.400 . S
C1165 C1159 1.491 1_565 S
C1165 C1164 1.400 . S
C1165 C1166 1.398 . S
C1166 H1154 0.934 1_565 S
C1166 C1165 1.398 . S
C1166 C1167 1.391 . S
C1167 H1155 0.950 . S
C1167 C1163 1.393 . S
C1167 C1166 1.391 . S
H1168 C1176 0.950 . S
H1169 C1181 0.950 . S
H1170 C1178 0.950 1_556 S
H1171 C1180 0.950 . S
H1172 C1182 0.950 . S
H1173 C1184 0.950 1_554 S
H1174 C1186 0.950 . S
H1175 C1187 0.950 . S
C1176 H1168 0.950 . S
C1176 C1177 1.386 . S
C1176 C1178 1.391 . S
C1177 C1176 1.386 . S
C1177 C1181 1.393 . S
C1178 H1170 0.950 1_554 S
C1178 C1176 1.391 . S
C1178 C1179 1.400 . S
C1179 C1178 1.400 . S
C1179 C1180 1.398 . S
C1179 C1185 1.491 1_554 S
C1180 H1171 0.950 . S
C1180 C1179 1.398 . S
C1180 C1181 1.391 . S
C1181 H1169 0.950 . S
C1181 C1177 1.393 . S
C1181 C1180 1.391 . S
C1182 H1172 0.950 . S
C1182 C1183 1.386 . S
C1182 C1184 1.391 . S
C1183 C1182 1.386 . S
C1183 C1187 1.393 . S
C1184 H1173 0.950 1_556 S
C1184 C1182 1.391 . S
C1184 C1185 1.400 . S
C1185 C1179 1.491 1_556 S
C1185 C1184 1.400 . S
C1185 C1186 1.398 . S
C1186 H1174 0.950 . S
C1186 C1185 1.398 . S
C1186 C1187 1.391 . S
C1187 H1175 0.950 . S
C1187 C1183 1.393 . S
C1187 C1186 1.391 . S
H1188 C1196 0.950 . S
H1189 C1201 0.950 . S
H1190 C1198 0.950 . S
H1191 C1200 0.950 . S
H1192 C1202 0.950 . S
H1193 C1204 0.950 . S
H1194 C1206 0.950 . S
H1195 C1207 0.950 . S
C1196 H1188 0.950 . S
C1196 C1197 1.386 . S
C1196 C1198 1.391 . S
C1197 C1196 1.386 . S
C1197 C1201 1.393 . S
C1198 H1190 0.950 . S
C1198 C1196 1.391 . S
C1198 C1199 1.400 . S
C1199 C1198 1.400 . S
C1199 C1200 1.398 . S
C1199 C1205 1.491 1_565 S
C1200 H1191 0.950 . S
C1200 C1199 1.398 . S
C1200 C1201 1.391 . S
C1201 H1189 0.950 . S
C1201 C1197 1.393 . S
C1201 C1200 1.391 . S
C1202 H1192 0.950 . S
C1202 C1203 1.386 . S
C1202 C1204 1.391 . S
C1203 C1202 1.386 . S
C1203 C1207 1.393 . S
C1204 H1193 0.950 . S
C1204 C1202 1.391 . S
C1204 C1205 1.400 . S
C1205 C1199 1.491 1_545 S
C1205 C1204 1.400 . S
C1205 C1206 1.398 . S
C1206 H1194 0.950 . S
C1206 C1205 1.398 . S
C1206 C1207 1.391 . S
C1207 H1195 0.950 . S
C1207 C1203 1.393 . S
C1207 C1206 1.391 . S
H1208 C1216 0.950 . S
H1209 C1221 0.950 . S
H1210 C1218 0.950 . S
H1211 C1220 0.950 . S
H1212 C1222 0.950 . S
H1213 C1224 0.950 . S
H1214 C1226 0.950 . S
H1215 C1227 0.950 . S
C1216 H1208 0.950 . S
C1216 C1217 1.386 . S
C1216 C1218 1.391 . S
C1217 C1216 1.386 . S
C1217 C1221 1.393 . S
C1218 H1210 0.950 . S
C1218 C1216 1.391 . S
C1218 C1219 1.400 . S
C1219 C1218 1.400 . S
C1219 C1220 1.398 . S
C1219 C1225 1.491 . S
C1220 H1211 0.950 . S
C1220 C1219 1.398 . S
C1220 C1221 1.391 . S
C1221 H1209 0.950 . S
C1221 C1217 1.393 . S
C1221 C1220 1.391 . S
C1222 H1212 0.950 . S
C1222 C1223 1.386 . S
C1222 C1224 1.391 . S
C1223 C1222 1.386 . S
C1223 C1227 1.393 . S
C1224 H1213 0.950 . S
C1224 C1222 1.391 . S
C1224 C1225 1.400 . S
C1225 C1219 1.491 . S
C1225 C1224 1.400 . S
C1225 C1226 1.398 . S
C1226 H1214 0.950 . S
C1226 C1225 1.398 . S
C1226 C1227 1.391 . S
C1227 H1215 0.950 . S
C1227 C1223 1.393 . S
C1227 C1226 1.391 . S
H1228 C1236 0.950 . S
H1229 C1241 0.950 . S
H1230 C1238 0.950 . S
H1231 C1240 0.950 1_565 S
H1232 C1242 0.950 . S
H1233 C1244 0.950 . S
H1234 C1246 0.950 1_545 S
H1235 C1247 0.950 . S
C1236 H1228 0.950 . S
C1236 C1237 1.386 . S
C1236 C1238 1.391 . S
C1237 C1236 1.386 . S
C1237 C1241 1.393 . S
C1238 H1230 0.950 . S
C1238 C1236 1.391 . S
C1238 C1239 1.400 . S
C1239 C1238 1.400 . S
C1239 C1240 1.398 . S
C1239 C1245 1.491 1_545 S
C1240 H1231 0.950 1_545 S
C1240 C1239 1.398 . S
C1240 C1241 1.391 . S
C1241 H1229 0.950 . S
C1241 C1237 1.393 . S
C1241 C1240 1.391 . S
C1242 H1232 0.950 . S
C1242 C1243 1.386 . S
C1242 C1244 1.391 . S
C1243 C1242 1.386 . S
C1243 C1247 1.393 . S
C1244 H1233 0.950 . S
C1244 C1242 1.391 . S
C1244 C1245 1.400 . S
C1245 C1239 1.491 1_565 S
C1245 C1244 1.400 . S
C1245 C1246 1.398 . S
C1246 H1234 0.950 1_565 S
C1246 C1245 1.398 . S
C1246 C1247 1.391 . S
C1247 H1235 0.950 . S
C1247 C1243 1.393 . S
C1247 C1246 1.391 . S
H1248 C1256 0.950 . S
H1249 C1261 0.950 . S
H1250 C1258 0.950 . S
H1251 C1260 0.950 . S
H1252 C1262 0.950 . S
H1253 C1264 0.950 . S
H1254 C1266 0.950 . S
H1255 C1267 0.950 . S
C1256 H1248 0.950 . S
C1256 C1257 1.386 . S
C1256 C1258 1.391 . S
C1257 C1256 1.386 . S
C1257 C1261 1.393 . S
C1258 H1250 0.950 . S
C1258 C1256 1.391 . S
C1258 C1259 1.400 . S
C1259 C1258 1.400 . S
C1259 C1260 1.398 . S
C1259 C1265 1.491 . S
C1260 H1251 0.950 . S
C1260 C1259 1.398 . S
C1260 C1261 1.391 . S
C1261 H1249 0.950 . S
C1261 C1257 1.393 . S
C1261 C1260 1.391 . S
C1262 H1252 0.950 . S
C1262 C1263 1.386 . S
C1262 C1264 1.391 . S
C1263 C1262 1.386 . S
C1263 C1267 1.393 . S
C1264 H1253 0.950 . S
C1264 C1262 1.391 . S
C1264 C1265 1.400 . S
C1265 C1259 1.491 . S
C1265 C1264 1.400 . S
C1265 C1266 1.398 . S
C1266 H1254 0.950 . S
C1266 C1265 1.398 . S
C1266 C1267 1.391 . S
C1267 H1255 0.950 . S
C1267 C1263 1.393 . S
C1267 C1266 1.391 . S
H1268 C1276 0.950 . S
H1269 C1281 0.950 . S
H1270 C1278 0.950 . S
H1271 C1280 0.950 . S
H1272 C1282 0.950 . S
H1273 C1284 0.950 . S
H1274 C1286 0.950 . S
H1275 C1287 0.950 . S
C1276 H1268 0.950 . S
C1276 C1277 1.386 . S
C1276 C1278 1.391 . S
C1277 C1276 1.386 . S
C1277 C1281 1.393 . S
C1278 H1270 0.950 . S
C1278 C1276 1.391 . S
C1278 C1279 1.400 . S
C1279 C1278 1.400 . S
C1279 C1280 1.398 . S
C1279 C1285 1.491 . S
C1280 H1271 0.950 . S
C1280 C1279 1.398 . S
C1280 C1281 1.391 . S
C1281 H1269 0.950 . S
C1281 C1277 1.393 . S
C1281 C1280 1.391 . S
C1282 H1272 0.950 . S
C1282 C1283 1.386 . S
C1282 C1284 1.391 . S
C1283 C1282 1.386 . S
C1283 C1287 1.393 . S
C1284 H1273 0.950 . S
C1284 C1282 1.391 . S
C1284 C1285 1.400 . S
C1285 C1279 1.491 . S
C1285 C1284 1.400 . S
C1285 C1286 1.398 . S
C1286 H1274 0.950 . S
C1286 C1285 1.398 . S
C1286 C1287 1.391 . S
C1287 H1275 0.950 . S
C1287 C1283 1.393 . S
C1287 C1286 1.391 . S
H1288 C1296 0.950 . S
H1289 C1301 0.950 . S
H1290 C1298 0.950 . S
H1291 C1300 0.944 1_556 S
H1292 C1302 0.950 . S
H1293 C1304 0.950 . S
H1294 C1306 0.944 1_554 S
H1295 C1307 0.950 . S
C1296 H1288 0.950 . S
C1296 C1297 1.386 . S
C1296 C1298 1.391 . S
C1297 C1296 1.386 . S
C1297 C1301 1.393 . S
C1298 H1290 0.950 . S
C1298 C1296 1.391 . S
C1298 C1299 1.400 . S
C1299 C1298 1.400 . S
C1299 C1300 1.398 . S
C1299 C1305 1.491 1_554 S
C1300 H1291 0.944 1_554 S
C1300 C1299 1.398 . S
C1300 C1301 1.391 . S
C1301 H1289 0.950 . S
C1301 C1297 1.393 . S
C1301 C1300 1.391 . S
C1302 H1292 0.950 . S
C1302 C1303 1.386 . S
C1302 C1304 1.391 . S
C1303 C1302 1.386 . S
C1303 C1307 1.393 . S
C1304 H1293 0.950 . S
C1304 C1302 1.391 . S
C1304 C1305 1.400 . S
C1305 C1299 1.491 1_556 S
C1305 C1304 1.400 . S
C1305 C1306 1.398 . S
C1306 H1294 0.944 1_556 S
C1306 C1305 1.398 . S
C1306 C1307 1.391 . S
C1307 H1295 0.950 . S
C1307 C1303 1.393 . S
C1307 C1306 1.391 . S
H1308 C1316 0.950 . S
H1309 C1321 0.950 . S
H1310 C1318 0.950 . S
H1311 C1320 0.950 . S
H1312 C1322 0.950 . S
H1313 C1324 0.950 . S
H1314 C1326 0.950 . S
H1315 C1327 0.950 . S
C1316 H1308 0.950 . S
C1316 C1317 1.386 . S
C1316 C1318 1.391 . S
C1317 C1316 1.386 . S
C1317 C1321 1.393 . S
C1318 H1310 0.950 . S
C1318 C1316 1.391 . S
C1318 C1319 1.400 . S
C1319 C1318 1.400 . S
C1319 C1320 1.398 . S
C1319 C1325 1.491 . S
C1320 H1311 0.950 . S
C1320 C1319 1.398 . S
C1320 C1321 1.391 . S
C1321 H1309 0.950 . S
C1321 C1317 1.393 . S
C1321 C1320 1.391 . S
C1322 H1312 0.950 . S
C1322 C1323 1.386 . S
C1322 C1324 1.391 . S
C1323 C1322 1.386 . S
C1323 C1327 1.393 . S
C1324 H1313 0.950 . S
C1324 C1322 1.391 . S
C1324 C1325 1.400 . S
C1325 C1319 1.491 . S
C1325 C1324 1.400 . S
C1325 C1326 1.398 . S
C1326 H1314 0.950 . S
C1326 C1325 1.398 . S
C1326 C1327 1.391 . S
C1327 H1315 0.950 . S
C1327 C1323 1.393 . S
C1327 C1326 1.391 . S
H1328 C1336 0.950 . S
H1329 C1341 0.950 . S
H1330 C1338 0.950 . S
H1331 C1340 0.950 . S
H1332 C1342 0.950 . S
H1333 C1344 0.950 . S
H1334 C1346 0.950 . S
H1335 C1347 0.950 . S
C1336 H1328 0.950 . S
C1336 C1337 1.386 . S
C1336 C1338 1.391 . S
C1337 C1336 1.386 . S
C1337 C1341 1.393 . S
C1338 H1330 0.950 . S
C1338 C1336 1.391 . S
C1338 C1339 1.400 . S
C1339 C1338 1.400 . S
C1339 C1340 1.398 . S
C1339 C1345 1.491 . S
C1340 H1331 0.950 . S
C1340 C1339 1.398 . S
C1340 C1341 1.391 . S
C1341 H1329 0.950 . S
C1341 C1337 1.393 . S
C1341 C1340 1.391 . S
C1342 H1332 0.950 . S
C1342 C1343 1.386 . S
C1342 C1344 1.391 . S
C1343 C1342 1.386 . S
C1343 C1347 1.393 . S
C1344 H1333 0.950 . S
C1344 C1342 1.391 . S
C1344 C1345 1.400 . S
C1345 C1339 1.491 . S
C1345 C1344 1.400 . S
C1345 C1346 1.398 . S
C1346 H1334 0.950 . S
C1346 C1345 1.398 . S
C1346 C1347 1.391 . S
C1347 H1335 0.950 . S
C1347 C1343 1.393 . S
C1347 C1346 1.391 . S
H1348 C1356 0.950 . S
H1349 C1361 0.950 . S
H1350 C1358 0.950 . S
H1351 C1360 0.950 . S
H1352 C1362 0.950 . S
H1353 C1364 0.950 . S
H1354 C1366 0.950 . S
H1355 C1367 0.950 . S
C1356 H1348 0.950 . S
C1356 C1357 1.386 . S
C1356 C1358 1.391 . S
C1357 C1356 1.386 . S
C1357 C1361 1.393 . S
C1358 H1350 0.950 . S
C1358 C1356 1.391 . S
C1358 C1359 1.400 . S
C1359 C1358 1.400 . S
C1359 C1360 1.398 . S
C1359 C1365 1.491 . S
C1360 H1351 0.950 . S
C1360 C1359 1.398 . S
C1360 C1361 1.391 . S
C1361 H1349 0.950 . S
C1361 C1357 1.393 . S
C1361 C1360 1.391 . S
C1362 H1352 0.950 . S
C1362 C1363 1.386 . S
C1362 C1364 1.391 . S
C1363 C1362 1.386 . S
C1363 C1367 1.393 . S
C1364 H1353 0.950 . S
C1364 C1362 1.391 . S
C1364 C1365 1.400 . S
C1365 C1359 1.491 . S
C1365 C1364 1.400 . S
C1365 C1366 1.398 . S
C1366 H1354 0.950 . S
C1366 C1365 1.398 . S
C1366 C1367 1.391 . S
C1367 H1355 0.950 . S
C1367 C1363 1.393 . S
C1367 C1366 1.391 . S
H1368 C1376 0.950 . S
H1369 C1381 0.950 . S
H1370 C1378 0.950 1_554 S
H1371 C1380 0.950 . S
H1372 C1382 0.950 . S
H1373 C1384 0.950 1_556 S
H1374 C1386 0.950 . S
H1375 C1387 0.950 . S
C1376 H1368 0.950 . S
C1376 C1377 1.386 . S
C1376 C1378 1.391 . S
C1377 C1376 1.386 . S
C1377 C1381 1.393 . S
C1378 H1370 0.950 1_556 S
C1378 C1376 1.391 . S
C1378 C1379 1.400 . S
C1379 C1378 1.400 . S
C1379 C1380 1.398 . S
C1379 C1385 1.491 1_556 S
C1380 H1371 0.950 . S
C1380 C1379 1.398 . S
C1380 C1381 1.391 . S
C1381 H1369 0.950 . S
C1381 C1377 1.393 . S
C1381 C1380 1.391 . S
C1382 H1372 0.950 . S
C1382 C1383 1.386 . S
C1382 C1384 1.391 . S
C1383 C1382 1.386 . S
C1383 C1387 1.393 . S
C1384 H1373 0.950 1_554 S
C1384 C1382 1.391 . S
C1384 C1385 1.400 . S
C1385 C1379 1.491 1_554 S
C1385 C1384 1.400 . S
C1385 C1386 1.398 . S
C1386 H1374 0.950 . S
C1386 C1385 1.398 . S
C1386 C1387 1.391 . S
C1387 H1375 0.950 . S
C1387 C1383 1.393 . S
C1387 C1386 1.391 . S
H1388 C1396 0.950 . S
H1389 C1401 0.950 . S
H1390 C1398 0.950 . S
H1391 C1400 0.950 . S
H1392 C1402 0.950 . S
H1393 C1404 0.950 . S
H1394 C1406 0.950 . S
H1395 C1407 0.950 . S
C1396 H1388 0.950 . S
C1396 C1397 1.386 . S
C1396 C1398 1.391 . S
C1397 C1396 1.386 . S
C1397 C1401 1.393 . S
C1398 H1390 0.950 . S
C1398 C1396 1.391 . S
C1398 C1399 1.400 . S
C1399 C1398 1.400 . S
C1399 C1400 1.398 . S
C1399 C1405 1.491 . S
C1400 H1391 0.950 . S
C1400 C1399 1.398 . S
C1400 C1401 1.391 . S
C1401 H1389 0.950 . S
C1401 C1397 1.393 . S
C1401 C1400 1.391 . S
C1402 H1392 0.950 . S
C1402 C1403 1.386 . S
C1402 C1404 1.391 . S
C1403 C1402 1.386 . S
C1403 C1407 1.393 . S
C1404 H1393 0.950 . S
C1404 C1402 1.391 . S
C1404 C1405 1.400 . S
C1405 C1399 1.491 . S
C1405 C1404 1.400 . S
C1405 C1406 1.398 . S
C1406 H1394 0.950 . S
C1406 C1405 1.398 . S
C1406 C1407 1.391 . S
C1407 H1395 0.950 . S
C1407 C1403 1.393 . S
C1407 C1406 1.391 . S
H1408 C1416 0.950 . S
H1409 C1421 0.950 . S
H1410 C1418 0.950 . S
H1411 C1420 0.950 . S
H1412 C1422 0.950 . S
H1413 C1424 0.950 . S
H1414 C1426 0.950 . S
H1415 C1427 0.950 . S
C1416 H1408 0.950 . S
C1416 C1417 1.386 . S
C1416 C1418 1.391 . S
C1417 C1416 1.386 . S
C1417 C1421 1.393 . S
C1418 H1410 0.950 . S
C1418 C1416 1.391 . S
C1418 C1419 1.400 . S
C1419 C1418 1.400 . S
C1419 C1420 1.398 . S
C1419 C1425 1.491 . S
C1420 H1411 0.950 . S
C1420 C1419 1.398 . S
C1420 C1421 1.391 . S
C1421 H1409 0.950 . S
C1421 C1417 1.393 . S
C1421 C1420 1.391 . S
C1422 H1412 0.950 . S
C1422 C1423 1.386 . S
C1422 C1424 1.391 . S
C1423 C1422 1.386 . S
C1423 C1427 1.393 . S
C1424 H1413 0.950 . S
C1424 C1422 1.391 . S
C1424 C1425 1.400 . S
C1425 C1419 1.491 . S
C1425 C1424 1.400 . S
C1425 C1426 1.398 . S
C1426 H1414 0.950 . S
C1426 C1425 1.398 . S
C1426 C1427 1.391 . S
C1427 H1415 0.950 . S
C1427 C1423 1.393 . S
C1427 C1426 1.391 . S
H1428 C1436 0.950 . S
H1429 C1441 0.950 . S
H1430 C1438 0.950 . S
H1431 C1440 0.950 . S
H1432 C1442 0.950 . S
H1433 C1444 0.950 . S
H1434 C1446 0.950 . S
H1435 C1447 0.950 . S
C1436 H1428 0.950 . S
C1436 C1437 1.386 . S
C1436 C1438 1.391 . S
C1437 C1436 1.386 . S
C1437 C1441 1.393 . S
C1438 H1430 0.950 . S
C1438 C1436 1.391 . S
C1438 C1439 1.400 . S
C1439 C1438 1.400 . S
C1439 C1440 1.398 . S
C1439 C1445 1.491 . S
C1440 H1431 0.950 . S
C1440 C1439 1.398 . S
C1440 C1441 1.391 . S
C1441 H1429 0.950 . S
C1441 C1437 1.393 . S
C1441 C1440 1.391 . S
C1442 H1432 0.950 . S
C1442 C1443 1.386 . S
C1442 C1444 1.391 . S
C1443 C1442 1.386 . S
C1443 C1447 1.393 . S
C1444 H1433 0.950 . S
C1444 C1442 1.391 . S
C1444 C1445 1.400 . S
C1445 C1439 1.491 . S
C1445 C1444 1.400 . S
C1445 C1446 1.398 . S
C1446 H1434 0.950 . S
C1446 C1445 1.398 . S
C1446 C1447 1.391 . S
C1447 H1435 0.950 . S
C1447 C1443 1.393 . S
C1447 C1446 1.391 . S
H1448 C1456 0.950 . S
H1449 C1461 0.950 . S
H1450 C1458 0.950 . S
H1451 C1460 0.950 . S
H1452 C1462 0.950 . S
H1453 C1464 0.950 . S
H1454 C1466 0.950 . S
H1455 C1467 0.950 . S
C1456 H1448 0.950 . S
C1456 C1457 1.386 . S
C1456 C1458 1.391 . S
C1457 C1456 1.386 . S
C1457 C1461 1.393 . S
C1458 H1450 0.950 . S
C1458 C1456 1.391 . S
C1458 C1459 1.400 . S
C1459 C1458 1.400 . S
C1459 C1460 1.398 . S
C1459 C1465 1.491 . S
C1460 H1451 0.950 . S
C1460 C1459 1.398 . S
C1460 C1461 1.391 . S
C1461 H1449 0.950 . S
C1461 C1457 1.393 . S
C1461 C1460 1.391 . S
C1462 H1452 0.950 . S
C1462 C1463 1.386 . S
C1462 C1464 1.391 . S
C1463 C1462 1.386 . S
C1463 C1467 1.393 . S
C1464 H1453 0.950 . S
C1464 C1462 1.391 . S
C1464 C1465 1.400 . S
C1465 C1459 1.491 . S
C1465 C1464 1.400 . S
C1465 C1466 1.398 . S
C1466 H1454 0.950 . S
C1466 C1465 1.398 . S
C1466 C1467 1.391 . S
C1467 H1455 0.950 . S
C1467 C1463 1.393 . S
C1467 C1466 1.391 . S
H1468 C1476 0.950 . S
H1469 C1481 0.950 . S
H1470 C1478 0.950 . S
H1471 C1480 0.950 . S
H1472 C1482 0.950 . S
H1473 C1484 0.950 . S
H1474 C1486 0.950 . S
H1475 C1487 0.950 . S
C1476 H1468 0.950 . S
C1476 C1477 1.386 . S
C1476 C1478 1.391 . S
C1477 C1476 1.386 . S
C1477 C1481 1.393 . S
C1478 H1470 0.950 . S
C1478 C1476 1.391 . S
C1478 C1479 1.400 . S
C1479 C1478 1.400 . S
C1479 C1480 1.398 . S
C1479 C1485 1.491 . S
C1480 H1471 0.950 . S
C1480 C1479 1.398 . S
C1480 C1481 1.391 . S
C1481 H1469 0.950 . S
C1481 C1477 1.393 . S
C1481 C1480 1.391 . S
C1482 H1472 0.950 . S
C1482 C1483 1.386 . S
C1482 C1484 1.391 . S
C1483 C1482 1.386 . S
C1483 C1487 1.393 . S
C1484 H1473 0.950 . S
C1484 C1482 1.391 . S
C1484 C1485 1.400 . S
C1485 C1479 1.491 . S
C1485 C1484 1.400 . S
C1485 C1486 1.398 . S
C1486 H1474 0.950 . S
C1486 C1485 1.398 . S
C1486 C1487 1.391 . S
C1487 H1475 0.950 . S
C1487 C1483 1.393 . S
C1487 C1486 1.391 . S
H1488 C1496 0.950 . S
H1489 C1501 0.950 . S
H1490 C1498 0.950 . S
H1491 C1500 0.950 . S
H1492 C1502 0.950 . S
H1493 C1504 0.950 . S
H1494 C1506 0.950 . S
H1495 C1507 0.950 . S
C1496 H1488 0.950 . S
C1496 C1497 1.386 . S
C1496 C1498 1.391 . S
C1497 C1496 1.386 . S
C1497 C1501 1.393 . S
C1498 H1490 0.950 . S
C1498 C1496 1.391 . S
C1498 C1499 1.400 . S
C1499 C1498 1.400 . S
C1499 C1500 1.398 . S
C1499 C1505 1.491 . S
C1500 H1491 0.950 . S
C1500 C1499 1.398 . S
C1500 C1501 1.391 . S
C1501 H1489 0.950 . S
C1501 C1497 1.393 . S
C1501 C1500 1.391 . S
C1502 H1492 0.950 . S
C1502 C1503 1.386 . S
C1502 C1504 1.391 . S
C1503 C1502 1.386 . S
C1503 C1507 1.393 . S
C1504 H1493 0.950 . S
C1504 C1502 1.391 . S
C1504 C1505 1.400 . S
C1505 C1499 1.491 . S
C1505 C1504 1.400 . S
C1505 C1506 1.398 . S
C1506 H1494 0.950 . S
C1506 C1505 1.398 . S
C1506 C1507 1.391 . S
C1507 H1495 0.950 . S
C1507 C1503 1.393 . S
C1507 C1506 1.391 . S
H1508 C1516 0.950 . S
H1509 C1521 0.950 . S
H1510 C1518 0.950 . S
H1511 C1520 0.950 . S
H1512 C1522 0.950 . S
H1513 C1524 0.950 . S
H1514 C1526 0.950 . S
H1515 C1527 0.950 . S
C1516 H1508 0.950 . S
C1516 C1517 1.386 . S
C1516 C1518 1.391 . S
C1517 C1516 1.386 . S
C1517 C1521 1.393 . S
C1518 H1510 0.950 . S
C1518 C1516 1.391 . S
C1518 C1519 1.400 . S
C1519 C1518 1.400 . S
C1519 C1520 1.398 . S
C1519 C1525 1.491 . S
C1520 H1511 0.950 . S
C1520 C1519 1.398 . S
C1520 C1521 1.391 . S
C1521 H1509 0.950 . S
C1521 C1517 1.393 . S
C1521 C1520 1.391 . S
C1522 H1512 0.950 . S
C1522 C1523 1.386 . S
C1522 C1524 1.391 . S
C1523 C1522 1.386 . S
C1523 C1527 1.393 . S
C1524 H1513 0.950 . S
C1524 C1522 1.391 . S
C1524 C1525 1.400 . S
C1525 C1519 1.491 . S
C1525 C1524 1.400 . S
C1525 C1526 1.398 . S
C1526 H1514 0.950 . S
C1526 C1525 1.398 . S
C1526 C1527 1.391 . S
C1527 H1515 0.950 . S
C1527 C1523 1.393 . S
C1527 C1526 1.391 . S
H1528 C1536 0.950 . S
H1529 C1541 0.950 . S
H1530 C1538 0.950 . S
H1531 C1540 0.950 . S
H1532 C1542 0.950 . S
H1533 C1544 0.950 . S
H1534 C1546 0.950 . S
H1535 C1547 0.950 . S
C1536 H1528 0.950 . S
C1536 C1537 1.386 . S
C1536 C1538 1.391 . S
C1537 C1536 1.386 . S
C1537 C1541 1.393 . S
C1538 H1530 0.950 . S
C1538 C1536 1.391 . S
C1538 C1539 1.400 . S
C1539 C1538 1.400 . S
C1539 C1540 1.398 . S
C1539 C1545 1.491 . S
C1540 H1531 0.950 . S
C1540 C1539 1.398 . S
C1540 C1541 1.391 . S
C1541 H1529 0.950 . S
C1541 C1537 1.393 . S
C1541 C1540 1.391 . S
C1542 H1532 0.950 . S
C1542 C1543 1.386 . S
C1542 C1544 1.391 . S
C1543 C1542 1.386 . S
C1543 C1547 1.393 . S
C1544 H1533 0.950 . S
C1544 C1542 1.391 . S
C1544 C1545 1.400 . S
C1545 C1539 1.491 . S
C1545 C1544 1.400 . S
C1545 C1546 1.398 . S
C1546 H1534 0.950 . S
C1546 C1545 1.398 . S
C1546 C1547 1.391 . S
C1547 H1535 0.950 . S
C1547 C1543 1.393 . S
C1547 C1546 1.391 . S
H1548 C1556 0.950 . S
H1549 C1561 0.950 . S
H1550 C1558 0.950 . S
H1551 C1560 0.950 . S
H1552 C1562 0.950 . S
H1553 C1564 0.950 . S
H1554 C1566 0.950 . S
H1555 C1567 0.950 . S
C1556 H1548 0.950 . S
C1556 C1557 1.386 . S
C1556 C1558 1.391 . S
C1557 C1556 1.386 . S
C1557 C1561 1.393 . S
C1558 H1550 0.950 . S
C1558 C1556 1.391 . S
C1558 C1559 1.400 . S
C1559 C1558 1.400 . S
C1559 C1560 1.398 . S
C1559 C1565 1.491 . S
C1560 H1551 0.950 . S
C1560 C1559 1.398 . S
C1560 C1561 1.391 . S
C1561 H1549 0.950 . S
C1561 C1557 1.393 . S
C1561 C1560 1.391 . S
C1562 H1552 0.950 . S
C1562 C1563 1.386 . S
C1562 C1564 1.391 . S
C1563 C1562 1.386 . S
C1563 C1567 1.393 . S
C1564 H1553 0.950 . S
C1564 C1562 1.391 . S
C1564 C1565 1.400 . S
C1565 C1559 1.491 . S
C1565 C1564 1.400 . S
C1565 C1566 1.398 . S
C1566 H1554 0.950 . S
C1566 C1565 1.398 . S
C1566 C1567 1.391 . S
C1567 H1555 0.950 . S
C1567 C1563 1.393 . S
C1567 C1566 1.391 . S
H1568 C1576 0.950 . S
H1569 C1581 0.950 . S
H1570 C1578 0.950 . S
H1571 C1580 0.950 . S
H1572 C1582 0.950 . S
H1573 C1584 0.950 . S
H1574 C1586 0.950 . S
H1575 C1587 0.950 . S
C1576 H1568 0.950 . S
C1576 C1577 1.386 . S
C1576 C1578 1.391 . S
C1577 C1576 1.386 . S
C1577 C1581 1.393 . S
C1578 H1570 0.950 . S
C1578 C1576 1.391 . S
C1578 C1579 1.400 . S
C1579 C1578 1.400 . S
C1579 C1580 1.398 . S
C1579 C1585 1.491 . S
C1580 H1571 0.950 . S
C1580 C1579 1.398 . S
C1580 C1581 1.391 . S
C1581 H1569 0.950 . S
C1581 C1577 1.393 . S
C1581 C1580 1.391 . S
C1582 H1572 0.950 . S
C1582 C1583 1.386 . S
C1582 C1584 1.391 . S
C1583 C1582 1.386 . S
C1583 C1587 1.393 . S
C1584 H1573 0.950 . S
C1584 C1582 1.391 . S
C1584 C1585 1.400 . S
C1585 C1579 1.491 . S
C1585 C1584 1.400 . S
C1585 C1586 1.398 . S
C1586 H1574 0.950 . S
C1586 C1585 1.398 . S
C1586 C1587 1.391 . S
C1587 H1575 0.950 . S
C1587 C1583 1.393 . S
C1587 C1586 1.391 . S
H1588 C1596 0.950 . S
H1589 C1601 0.950 . S
H1590 C1598 0.950 . S
H1591 C1600 0.950 . S
H1592 C1602 0.950 . S
H1593 C1604 0.950 . S
H1594 C1606 0.950 . S
H1595 C1607 0.950 . S
C1596 H1588 0.950 . S
C1596 C1597 1.386 . S
C1596 C1598 1.391 . S
C1597 C1596 1.386 . S
C1597 C1601 1.393 . S
C1598 H1590 0.950 . S
C1598 C1596 1.391 . S
C1598 C1599 1.400 . S
C1599 C1598 1.400 . S
C1599 C1600 1.398 . S
C1599 C1605 1.491 . S
C1600 H1591 0.950 . S
C1600 C1599 1.398 . S
C1600 C1601 1.391 . S
C1601 H1589 0.950 . S
C1601 C1597 1.393 . S
C1601 C1600 1.391 . S
C1602 H1592 0.950 . S
C1602 C1603 1.386 . S
C1602 C1604 1.391 . S
C1603 C1602 1.386 . S
C1603 C1607 1.393 . S
C1604 H1593 0.950 . S
C1604 C1602 1.391 . S
C1604 C1605 1.400 . S
C1605 C1599 1.491 . S
C1605 C1604 1.400 . S
C1605 C1606 1.398 . S
C1606 H1594 0.950 . S
C1606 C1605 1.398 . S
C1606 C1607 1.391 . S
C1607 H1595 0.950 . S
C1607 C1603 1.393 . S
C1607 C1606 1.391 . S
H1608 C1616 0.950 . S
H1609 C1621 0.950 . S
H1610 C1618 0.950 . S
H1611 C1620 0.950 . S
H1612 C1622 0.950 . S
H1613 C1624 0.950 . S
H1614 C1626 0.950 . S
H1615 C1627 0.950 . S
C1616 H1608 0.950 . S
C1616 C1617 1.386 . S
C1616 C1618 1.391 . S
C1617 C1616 1.386 . S
C1617 C1621 1.393 . S
C1618 H1610 0.950 . S
C1618 C1616 1.391 . S
C1618 C1619 1.400 . S
C1619 C1618 1.400 . S
C1619 C1620 1.398 . S
C1619 C1625 1.491 . S
C1620 H1611 0.950 . S
C1620 C1619 1.398 . S
C1620 C1621 1.391 . S
C1621 H1609 0.950 . S
C1621 C1617 1.393 . S
C1621 C1620 1.391 . S
C1622 H1612 0.950 . S
C1622 C1623 1.386 . S
C1622 C1624 1.391 . S
C1623 C1622 1.386 . S
C1623 C1627 1.393 . S
C1624 H1613 0.950 . S
C1624 C1622 1.391 . S
C1624 C1625 1.400 . S
C1625 C1619 1.491 . S
C1625 C1624 1.400 . S
C1625 C1626 1.398 . S
C1626 H1614 0.950 . S
C1626 C1625 1.398 . S
C1626 C1627 1.391 . S
C1627 H1615 0.950 . S
C1627 C1623 1.393 . S
C1627 C1626 1.391 . S
H1628 C1636 0.950 . S
H1629 C1641 0.950 . S
H1630 C1638 0.950 . S
H1631 C1640 0.950 . S
H1632 C1642 0.950 . S
H1633 C1644 0.950 . S
H1634 C1646 0.950 . S
H1635 C1647 0.950 . S
C1636 H1628 0.950 . S
C1636 C1637 1.386 . S
C1636 C1638 1.391 . S
C1637 C1636 1.386 . S
C1637 C1641 1.393 . S
C1638 H1630 0.950 . S
C1638 C1636 1.391 . S
C1638 C1639 1.400 . S
C1639 C1638 1.400 . S
C1639 C1640 1.398 . S
C1639 C1645 1.491 . S
C1640 H1631 0.950 . S
C1640 C1639 1.398 . S
C1640 C1641 1.391 . S
C1641 H1629 0.950 . S
C1641 C1637 1.393 . S
C1641 C1640 1.391 . S
C1642 H1632 0.950 . S
C1642 C1643 1.386 . S
C1642 C1644 1.391 . S
C1643 C1642 1.386 . S
C1643 C1647 1.393 . S
C1644 H1633 0.950 . S
C1644 C1642 1.391 . S
C1644 C1645 1.400 . S
C1645 C1639 1.491 . S
C1645 C1644 1.400 . S
C1645 C1646 1.398 . S
C1646 H1634 0.950 . S
C1646 C1645 1.398 . S
C1646 C1647 1.391 . S
C1647 H1635 0.950 . S
C1647 C1643 1.393 . S
C1647 C1646 1.391 . S
H1648 C1656 0.950 . S
H1649 C1661 0.950 . S
H1650 C1658 0.950 . S
H1651 C1660 0.950 . S
H1652 C1662 0.950 . S
H1653 C1664 0.950 . S
H1654 C1666 0.950 . S
H1655 C1667 0.950 . S
C1656 H1648 0.950 . S
C1656 C1657 1.386 . S
C1656 C1658 1.391 . S
C1657 C1656 1.386 . S
C1657 C1661 1.393 . S
C1658 H1650 0.950 . S
C1658 C1656 1.391 . S
C1658 C1659 1.400 . S
C1659 C1658 1.400 . S
C1659 C1660 1.398 . S
C1659 C1665 1.491 . S
C1660 H1651 0.950 . S
C1660 C1659 1.398 . S
C1660 C1661 1.391 . S
C1661 H1649 0.950 . S
C1661 C1657 1.393 . S
C1661 C1660 1.391 . S
C1662 H1652 0.950 . S
C1662 C1663 1.386 . S
C1662 C1664 1.391 . S
C1663 C1662 1.386 . S
C1663 C1667 1.393 . S
C1664 H1653 0.950 . S
C1664 C1662 1.391 . S
C1664 C1665 1.400 . S
C1665 C1659 1.491 . S
C1665 C1664 1.400 . S
C1665 C1666 1.398 . S
C1666 H1654 0.950 . S
C1666 C1665 1.398 . S
C1666 C1667 1.391 . S
C1667 H1655 0.950 . S
C1667 C1663 1.393 . S
C1667 C1666 1.391 . S
H1668 C1676 0.950 . S
H1669 C1681 0.950 . S
H1670 C1678 0.950 . S
H1671 C1680 0.950 . S
H1672 C1682 0.950 . S
H1673 C1684 0.950 . S
H1674 C1686 0.950 . S
H1675 C1687 0.950 . S
C1676 H1668 0.950 . S
C1676 C1677 1.386 . S
C1676 C1678 1.391 . S
C1677 C1676 1.386 . S
C1677 C1681 1.393 . S
C1678 H1670 0.950 . S
C1678 C1676 1.391 . S
C1678 C1679 1.400 . S
C1679 C1678 1.400 . S
C1679 C1680 1.398 . S
C1679 C1685 1.491 . S
C1680 H1671 0.950 . S
C1680 C1679 1.398 . S
C1680 C1681 1.391 . S
C1681 H1669 0.950 . S
C1681 C1677 1.393 . S
C1681 C1680 1.391 . S
C1682 H1672 0.950 . S
C1682 C1683 1.386 . S
C1682 C1684 1.391 . S
C1683 C1682 1.386 . S
C1683 C1687 1.393 . S
C1684 H1673 0.950 . S
C1684 C1682 1.391 . S
C1684 C1685 1.400 . S
C1685 C1679 1.491 . S
C1685 C1684 1.400 . S
C1685 C1686 1.398 . S
C1686 H1674 0.950 . S
C1686 C1685 1.398 . S
C1686 C1687 1.391 . S
C1687 H1675 0.950 . S
C1687 C1683 1.393 . S
C1687 C1686 1.391 . S
H1688 C1696 0.950 . S
H1689 C1701 0.950 . S
H1690 C1698 0.950 . S
H1691 C1700 0.950 . S
H1692 C1702 0.950 . S
H1693 C1704 0.950 . S
H1694 C1706 0.950 . S
H1695 C1707 0.950 . S
C1696 H1688 0.950 . S
C1696 C1697 1.386 . S
C1696 C1698 1.391 . S
C1697 C1696 1.386 . S
C1697 C1701 1.393 . S
C1698 H1690 0.950 . S
C1698 C1696 1.391 . S
C1698 C1699 1.400 . S
C1699 C1698 1.400 . S
C1699 C1700 1.398 . S
C1699 C1705 1.491 . S
C1700 H1691 0.950 . S
C1700 C1699 1.398 . S
C1700 C1701 1.391 . S
C1701 H1689 0.950 . S
C1701 C1697 1.393 . S
C1701 C1700 1.391 . S
C1702 H1692 0.950 . S
C1702 C1703 1.386 . S
C1702 C1704 1.391 . S
C1703 C1702 1.386 . S
C1703 C1707 1.393 . S
C1704 H1693 0.950 . S
C1704 C1702 1.391 . S
C1704 C1705 1.400 . S
C1705 C1699 1.491 . S
C1705 C1704 1.400 . S
C1705 C1706 1.398 . S
C1706 H1694 0.950 . S
C1706 C1705 1.398 . S
C1706 C1707 1.391 . S
C1707 H1695 0.950 . S
C1707 C1703 1.393 . S
C1707 C1706 1.391 . S
H1708 C1716 0.950 . S
H1709 C1721 0.950 . S
H1710 C1718 0.950 . S
H1711 C1720 0.950 . S
H1712 C1722 0.950 . S
H1713 C1724 0.950 . S
H1714 C1726 0.950 . S
H1715 C1727 0.950 . S
C1716 H1708 0.950 . S
C1716 C1717 1.386 . S
C1716 C1718 1.391 . S
C1717 C1716 1.386 . S
C1717 C1721 1.393 . S
C1718 H1710 0.950 . S
C1718 C1716 1.391 . S
C1718 C1719 1.400 . S
C1719 C1718 1.400 . S
C1719 C1720 1.398 . S
C1719 C1725 1.491 . S
C1720 H1711 0.950 . S
C1720 C1719 1.398 . S
C1720 C1721 1.391 . S
C1721 H1709 0.950 . S
C1721 C1717 1.393 . S
C1721 C1720 1.391 . S
C1722 H1712 0.950 . S
C1722 C1723 1.386 . S
C1722 C1724 1.391 . S
C1723 C1722 1.386 . S
C1723 C1727 1.393 . S
C1724 H1713 0.950 . S
C1724 C1722 1.391 . S
C1724 C1725 1.400 . S
C1725 C1719 1.491 . S
C1725 C1724 1.400 . S
C1725 C1726 1.398 . S
C1726 H1714 0.950 . S
C1726 C1725 1.398 . S
C1726 C1727 1.391 . S
C1727 H1715 0.950 . S
C1727 C1723 1.393 . S
C1727 C1726 1.391 . S
C457 C119 1.390 . S
C463 C7 1.390 . S
C477 C357 1.390 . S
C483 C21 1.390 . S
C497 C147 1.398 . S
C503 C35 1.398 . S
C517 C385 1.408 . S
C523 C49 1.408 . S
C537 C175 1.403 . S
C543 C63 1.403 . S
C557 C77 1.391 . S
C563 C413 1.391 . S
C577 C91 1.397 . S
C583 C203 1.397 . S
C597 C105 1.405 . S
C603 C441 1.405 . S
C617 C245 1.416 . S
C623 C133 1.416 . S
C637 C273 1.391 . S
C643 C161 1.391 . S
C657 C189 1.400 . S
C663 C301 1.400 . S
C677 C217 1.407 . S
C683 C329 1.407 . S
C697 C231 1.390 . S
C703 C343 1.390 . S
C717 C371 1.411 . S
C723 C259 1.411 . S
C737 C287 1.411 . S
C743 C399 1.411 . S
C757 C427 1.391 . S
C763 C315 1.391 . S
C777 C261 2.005 . S
C783 C9 2.006 . S
C797 C275 2.002 . S
C803 C23 2.003 . S
C817 C37 2.006 . S
C823 C233 2.007 . S
C837 C51 2.002 . S
C843 C247 2.004 . S
C857 C317 2.003 . S
C863 C65 2.005 . S
C877 C79 2.004 . S
C883 C331 2.006 . S
C897 C289 2.002 . S
C903 C93 2.002 . S
C917 C303 2.002 . S
C923 C107 2.003 . S
C937 C121 2.005 . S
C943 C373 2.006 . S
C957 C387 2.004 . S
C963 C135 2.002 . S
C977 C149 2.005 . S
C983 C345 2.006 . S
C997 C163 2.003 . S
C1003 C359 2.005 . S
C1017 C177 2.004 . S
C1023 C429 2.002 . S
C1037 C191 2.002 . S
C1043 C443 2.002 . S
C1057 C401 2.004 . S
C1063 C205 2.002 . S
C1077 C415 2.002 . S
C1083 C219 2.002 . S
C1097 C90 1.578 . S
C1103 C6 1.558 . S
C1117 C104 1.576 . S
C1123 C20 1.556 . S
C1137 C62 1.574 . S
C1143 C34 1.565 . S
C1157 C48 1.577 . S
C1163 C76 1.559 . S
C1177 C202 1.565 . S
C1183 C118 1.575 . S
C1197 C216 1.573 . S
C1203 C132 1.556 . S
C1217 C174 1.577 . S
C1223 C146 1.557 . S
C1237 C188 1.558 . S
C1243 C160 1.578 . S
C1257 C314 1.564 . S
C1263 C230 1.563 . S
C1277 C328 1.578 . S
C1283 C244 1.559 . S
C1297 C258 1.562 . S
C1303 C286 1.564 . S
C1317 C272 1.578 . S
C1323 C300 1.558 . S
C1337 C426 1.571 . S
C1343 C342 1.570 . S
C1357 C440 1.577 . S
C1363 C356 1.557 . S
C1377 C370 1.566 . S
C1383 C398 1.574 . S
C1397 C384 1.575 . S
C1403 C412 1.556 . S
C1417 C8 1.567 . S
C1423 C302 1.567 . S
C1437 C316 1.566 . S
C1443 C22 1.565 . S
C1457 C330 1.562 . S
C1463 C36 1.563 . S
C1477 C50 1.568 . S
C1483 C288 1.567 . S
C1497 C274 1.567 . S
C1503 C64 1.567 . S
C1517 C78 1.567 . S
C1523 C232 1.568 . S
C1537 C246 1.562 . S
C1543 C92 1.562 . S
C1557 C106 1.563 . S
C1563 C260 1.562 . S
C1577 C414 1.563 . S
C1583 C120 1.563 . S
C1597 C428 1.563 . S
C1603 C134 1.563 . S
C1617 C148 1.565 . S
C1623 C442 1.564 . S
C1637 C400 1.566 . S
C1643 C162 1.567 . S
C1657 C386 1.564 . S
C1663 C176 1.563 . S
C1677 C190 1.563 . S
C1683 C344 1.563 . S
C1697 C358 1.562 . S
C1703 C204 1.562 . S
C1717 C218 1.563 . S
C1723 C372 1.563 . S
