# Generated by pormake.
# Topology srs, (3)-cn, num edge types: 1
# Building blocks:
#     Node 0, Type 0, BuildingBlock: OLANEW_clean_sbu_2, # of connection points: 3
#     Node 1, Type 0, BuildingBlock: OLANEW_clean_sbu_2, # of connection points: 3
#     Node 2, Type 0, BuildingBlock: OLANEW_clean_sbu_2, # of connection points: 3
#     Node 3, Type 0, BuildingBlock: OLANEW_clean_sbu_2, # of connection points: 3
#     Node 4, Type 0, BuildingBlock: OLANEW_clean_sbu_2, # of connection points: 3
#     Node 5, Type 0, BuildingBlock: OLANEW_clean_sbu_2, # of connection points: 3
#     Node 6, Type 0, BuildingBlock: OLANEW_clean_sbu_2, # of connection points: 3
#     Node 7, Type 0, BuildingBlock: OLANEW_clean_sbu_2, # of connection points: 3
#     Edge 8, Type (0, 0), BuildingBlock: MIFKUJ_clean_linker_0, # of connection points: 2
#     Edge 9, Type (0, 0), BuildingBlock: MIFKUJ_clean_linker_0, # of connection points: 2
#     Edge 10, Type (0, 0), BuildingBlock: MIFKUJ_clean_linker_0, # of connection points: 2
#     Edge 11, Type (0, 0), BuildingBlock: MIFKUJ_clean_linker_0, # of connection points: 2
#     Edge 12, Type (0, 0), BuildingBlock: MIFKUJ_clean_linker_0, # of connection points: 2
#     Edge 13, Type (0, 0), BuildingBlock: MIFKUJ_clean_linker_0, # of connection points: 2
#     Edge 14, Type (0, 0), BuildingBlock: MIFKUJ_clean_linker_0, # of connection points: 2
#     Edge 15, Type (0, 0), BuildingBlock: MIFKUJ_clean_linker_0, # of connection points: 2
#     Edge 16, Type (0, 0), BuildingBlock: MIFKUJ_clean_linker_0, # of connection points: 2
#     Edge 17, Type (0, 0), BuildingBlock: MIFKUJ_clean_linker_0, # of connection points: 2
#     Edge 18, Type (0, 0), BuildingBlock: MIFKUJ_clean_linker_0, # of connection points: 2
#     Edge 19, Type (0, 0), BuildingBlock: MIFKUJ_clean_linker_0, # of connection points: 2
# Relax obj value: 0.001
# Max RMSD: 0.085
# Mean RMSD: 0.075
data_MOF--net-srs--node1-OLANEW_clean_sbu_2--edge1-MIFKUJ_clean_linker_0
_symmetry_space_group_name_H-M    P1
_symmetry_Int_Tables_number       1
_symmetry_cell_setting            triclinic
loop_
_symmetry_equiv_pos_as_xyz
'x, y, z'
_cell_length_a     44.809761
_cell_length_b     67.141061
_cell_length_c     57.579309
_cell_angle_alpha  100.31566
_cell_angle_beta   89.486004
_cell_angle_gamma 102.69281
loop_
_atom_site_label
_atom_site_type_symbol
_atom_site_fract_x
_atom_site_fract_y
_atom_site_fract_z
_atom_type_partial_charge
O0 O 0.15197 0.10384 0.15929 0.0
Cd1 Cd 0.11282 0.10952 0.1881 0.0
O2 O 0.19047 0.12528 0.18029 0.0
Cd3 Cd 0.15949 0.13778 0.20533 0.0
O4 O 0.13338 0.16199 0.21202 0.0
C5 C 0.14839 0.18021 0.21102 0.0
O6 O 0.17803 0.18318 0.20794 0.0
C7 C 0.18045 0.11199 0.16186 0.0
C8 C 0.10252 0.08002 0.21749 0.0
O9 O 0.08929 0.07624 0.19704 0.0
O10 O 0.12069 0.09776 0.22408 0.0
O11 O 0.09167 0.90718 0.42464 0.0
Cd12 Cd 0.04385 0.9009 0.40159 0.0
O13 O 0.11605 0.89306 0.39505 0.0
Cd14 Cd 0.07358 0.87667 0.37558 0.0
O15 O 0.03804 0.84861 0.36399 0.0
C16 C 0.03681 0.83419 0.37581 0.0
O17 O 0.05599 0.83736 0.39392 0.0
C18 C 0.11639 0.9033 0.41591 0.0
C19 C 0.04938 0.92923 0.37083 0.0
O20 O 0.0421 0.93408 0.39234 0.0
O21 O 0.05359 0.91088 0.3637 0.0
O22 O 0.46068 0.87716 0.64602 0.0
Cd23 Cd 0.47426 0.84811 0.61943 0.0
O24 O 0.43219 0.88022 0.61673 0.0
Cd25 Cd 0.40272 0.89569 0.59963 0.0
O26 O 0.36956 0.90713 0.58116 0.0
C27 C 0.37607 0.9125 0.56134 0.0
O28 O 0.40317 0.91171 0.55283 0.0
C29 C 0.44219 0.88633 0.63799 0.0
C30 C 0.50503 0.82492 0.64226 0.0
O31 O 0.51967 0.84056 0.63383 0.0
O32 O 0.47575 0.82038 0.64011 0.0
O33 O 0.36992 0.12381 0.82795 0.0
Cd34 Cd 0.33664 0.08909 0.81891 0.0
O35 O 0.36206 0.1191 0.86421 0.0
Cd36 Cd 0.36474 0.12463 0.90286 0.0
O37 O 0.35355 0.12318 0.93961 0.0
C38 C 0.32924 0.1103 0.943 0.0
O39 O 0.31291 0.09885 0.92457 0.0
C40 C 0.37427 0.13077 0.84996 0.0
C41 C 0.35817 0.06053 0.78558 0.0
O42 O 0.33832 0.06999 0.77967 0.0
O43 O 0.36826 0.06489 0.80706 0.0
O44 O 0.5819 0.45094 0.94655 0.0
Cd45 Cd 0.54404 0.46471 0.92785 0.0
O46 O 0.56577 0.42029 0.92436 0.0
Cd47 Cd 0.56314 0.38689 0.91465 0.0
O48 O 0.5491 0.35305 0.90603 0.0
C49 C 0.53423 0.34339 0.92107 0.0
O50 O 0.52878 0.35402 0.94152 0.0
C51 C 0.58375 0.43211 0.94055 0.0
C52 C 0.56652 0.48329 0.8897 0.0
O53 O 0.57007 0.49358 0.91088 0.0
O54 O 0.55258 0.46413 0.88657 0.0
O55 O 0.94796 0.37549 0.13575 0.0
Cd56 Cd 0.96046 0.34422 0.11294 0.0
O57 O 0.90487 0.36664 0.11498 0.0
Cd58 Cd 0.86245 0.37229 0.10171 0.0
O59 O 0.82274 0.37861 0.08517 0.0
C60 C 0.82024 0.37459 0.06277 0.0
O61 O 0.8414 0.3668 0.05077 0.0
C62 C 0.92246 0.37933 0.13083 0.0
C63 C 0.99064 0.32279 0.13877 0.0
O64 O 0.00555 0.3376 0.12912 0.0
O65 O 0.96136 0.31837 0.13657 0.0
O66 O 0.83344 0.62796 0.27575 0.0
Cd67 Cd 0.79735 0.59541 0.25988 0.0
O68 O 0.82966 0.61999 0.31105 0.0
Cd69 Cd 0.83434 0.62451 0.34961 0.0
O70 O 0.8289 0.62311 0.38712 0.0
C71 C 0.80813 0.60856 0.39243 0.0
O72 O 0.79154 0.59526 0.37532 0.0
C73 C 0.84067 0.63279 0.29766 0.0
C74 C 0.82455 0.5632 0.23932 0.0
O75 O 0.81892 0.57636 0.2273 0.0
O76 O 0.81777 0.56549 0.26118 0.0
O77 O 0.68557 0.61125 0.63298 0.0
Cd78 Cd 0.65443 0.62134 0.66634 0.0
O79 O 0.72758 0.63425 0.64622 0.0
Cd80 Cd 0.70408 0.64776 0.67628 0.0
O81 O 0.67506 0.66908 0.68995 0.0
C82 C 0.68603 0.68823 0.6901 0.0
O83 O 0.71448 0.69403 0.68392 0.0
C84 C 0.71355 0.61946 0.63045 0.0
C85 C 0.6467 0.5954 0.69975 0.0
O86 O 0.6292 0.59109 0.68121 0.0
O87 O 0.66822 0.61181 0.7023 0.0
H88 H 0.05048 0.92172 0.32264 0.0
H89 H 0.05842 0.94712 0.29637 0.0
H90 H 0.06702 0.99675 0.35671 0.0
H91 H 0.05763 0.97132 0.38294 0.0
H92 H 0.03593 0.00532 0.32445 0.0
H93 H 0.13057 0.98363 0.32502 0.0
H94 H 0.16453 0.95894 0.32102 0.0
H95 H 0.13589 0.93749 0.24817 0.0
H96 H 0.10143 0.96187 0.25182 0.0
H97 H 0.11393 0.08626 0.26509 0.0
H98 H 0.10373 0.06032 0.29086 0.0
H99 H 0.0688 0.01255 0.23089 0.0
H100 H 0.07832 0.03843 0.20505 0.0
H101 H 0.11341 0.00339 0.26245 0.0
H102 H 0.01893 0.02713 0.26374 0.0
H103 H 0.98811 0.05377 0.26932 0.0
H104 H 0.02136 0.07384 0.34129 0.0
H105 H 0.05274 0.0475 0.33603 0.0
C106 C 0.05398 0.93805 0.33028 0.0
C107 C 0.05355 0.94454 0.35485 0.0
C108 C 0.05872 0.95258 0.31526 0.0
C109 C 0.06396 0.97394 0.32453 0.0
C110 C 0.06309 0.9804 0.34908 0.0
C111 C 0.05778 0.96584 0.36408 0.0
C112 C 0.07025 0.98955 0.3087 0.0
C113 C 0.05318 0.005 0.31113 0.0
C114 C 0.09248 0.9891 0.29104 0.0
C115 C 0.11318 0.97442 0.28876 0.0
C116 C 0.13134 0.97353 0.30819 0.0
C117 C 0.15071 0.95962 0.30598 0.0
C118 C 0.1523 0.94662 0.28437 0.0
C119 C 0.13459 0.94755 0.26491 0.0
C120 C 0.11516 0.96142 0.26703 0.0
C121 C 0.10409 0.07023 0.25739 0.0
C122 C 0.09686 0.06437 0.23306 0.0
C123 C 0.09823 0.05547 0.27213 0.0
C124 C 0.08545 0.03458 0.26274 0.0
C125 C 0.07867 0.02862 0.23843 0.0
C126 C 0.08402 0.04342 0.22373 0.0
C127 C 0.07913 0.01895 0.27833 0.0
C128 C 0.09621 0.00358 0.27583 0.0
C129 C 0.05738 0.01972 0.29621 0.0
C130 C 0.03843 0.03549 0.29942 0.0
C131 C 0.01989 0.03735 0.28069 0.0
C132 C 0.00227 0.05237 0.28381 0.0
C133 C 0.00284 0.06553 0.30563 0.0
C134 C 0.02097 0.06366 0.32439 0.0
C135 C 0.03866 0.04868 0.32136 0.0
H136 H 0.98918 0.07714 0.30801 0.0
H137 H 0.16732 0.93585 0.28269 0.0
H138 H 0.17487 0.90624 0.40074 0.0
H139 H 0.2218 0.91336 0.42497 0.0
H140 H 0.16964 0.92063 0.4881 0.0
H141 H 0.12281 0.91438 0.46393 0.0
H142 H 0.22225 0.9473 0.49494 0.0
H143 H 0.19081 0.87408 0.46494 0.0
H144 H 0.17585 0.84264 0.43431 0.0
H145 H 0.26282 0.85761 0.40216 0.0
H146 H 0.27814 0.8893 0.43246 0.0
H147 H 0.31917 0.91789 0.57462 0.0
H148 H 0.27802 0.9218 0.54938 0.0
H149 H 0.33792 0.92188 0.49033 0.0
H150 H 0.37916 0.91786 0.51538 0.0
H151 H 0.28378 0.89348 0.48035 0.0
H152 H 0.31625 0.96561 0.51478 0.0
H153 H 0.32985 0.99545 0.54757 0.0
H154 H 0.23923 0.98072 0.57393 0.0
H155 H 0.2252 0.95058 0.5415 0.0
C156 C 0.17345 0.90958 0.41978 0.0
C157 C 0.1451 0.90951 0.43044 0.0
C158 C 0.20028 0.91359 0.43362 0.0
C159 C 0.19919 0.91705 0.45838 0.0
C160 C 0.17108 0.91793 0.46904 0.0
C161 C 0.1443 0.91429 0.4552 0.0
C162 C 0.22691 0.91856 0.47315 0.0
C163 C 0.23558 0.93545 0.49186 0.0
C164 C 0.24459 0.90325 0.46898 0.0
C165 C 0.23548 0.88417 0.45081 0.0
C166 C 0.20665 0.87074 0.45124 0.0
C167 C 0.19812 0.85286 0.43396 0.0
C168 C 0.21834 0.84816 0.41626 0.0
C169 C 0.24716 0.8613 0.41585 0.0
C170 C 0.25579 0.87921 0.43308 0.0
C171 C 0.32372 0.919 0.55633 0.0
C172 C 0.35235 0.91737 0.54694 0.0
C173 C 0.30022 0.92135 0.54197 0.0
C174 C 0.30496 0.92217 0.51799 0.0
C175 C 0.33382 0.92127 0.50879 0.0
C176 C 0.35737 0.91902 0.52315 0.0
C177 C 0.27912 0.92218 0.50211 0.0
C178 C 0.27069 0.90547 0.48325 0.0
C179 C 0.26147 0.93747 0.50642 0.0
C180 C 0.26975 0.95573 0.5258 0.0
C181 C 0.29928 0.96864 0.52766 0.0
C182 C 0.30706 0.98562 0.54617 0.0
C183 C 0.28544 0.98995 0.56285 0.0
C184 C 0.25596 0.97734 0.56101 0.0
C185 C 0.24807 0.96031 0.54255 0.0
H186 H 0.29152 0.0031 0.57717 0.0
H187 H 0.21169 0.83432 0.40289 0.0
H188 H 0.38633 0.89641 0.63942 0.0
H189 H 0.37218 0.92671 0.6633 0.0
H190 H 0.46302 0.94602 0.69536 0.0
H191 H 0.47735 0.91577 0.67127 0.0
H192 H 0.41826 0.94834 0.72762 0.0
H193 H 0.44169 0.9693 0.65172 0.0
H194 H 0.43506 0.96407 0.6084 0.0
H195 H 0.33991 0.96507 0.61543 0.0
H196 H 0.34588 0.97004 0.6588 0.0
H197 H 0.41176 0.04779 0.78642 0.0
H198 H 0.42664 0.01922 0.75977 0.0
H199 H 0.34101 0.0072 0.72042 0.0
H200 H 0.32693 0.03661 0.74624 0.0
H201 H 0.3819 0.0006 0.69103 0.0
H202 H 0.35443 0.97821 0.76392 0.0
H203 H 0.35531 0.97956 0.807 0.0
H204 H 0.45036 0.97732 0.80575 0.0
H205 H 0.45014 0.97621 0.76269 0.0
C206 C 0.40346 0.90737 0.65116 0.0
C207 C 0.43322 0.90415 0.65298 0.0
C208 C 0.39528 0.92457 0.66493 0.0
C209 C 0.41675 0.93883 0.68073 0.0
C210 C 0.44619 0.93527 0.68312 0.0
C211 C 0.45435 0.91803 0.66939 0.0
C212 C 0.40846 0.95738 0.695 0.0
C213 C 0.41075 0.95996 0.71966 0.0
C214 C 0.39746 0.97202 0.68453 0.0
C215 C 0.3942 0.9699 0.65851 0.0
C216 C 0.41934 0.96836 0.64403 0.0
C217 C 0.41569 0.96543 0.61946 0.0
C218 C 0.38707 0.96419 0.60917 0.0
C219 C 0.36207 0.96602 0.62343 0.0
C220 C 0.36558 0.96893 0.64801 0.0
C221 C 0.39627 0.03916 0.77193 0.0
C222 C 0.36811 0.04428 0.76848 0.0
C223 C 0.40468 0.02274 0.75679 0.0
C224 C 0.38459 0.01062 0.73843 0.0
C225 C 0.35687 0.01621 0.73449 0.0
C226 C 0.34881 0.03299 0.74928 0.0
C227 C 0.3921 0.99182 0.72383 0.0
C228 C 0.38954 0.9891 0.69909 0.0
C229 C 0.40211 0.9767 0.73422 0.0
C230 C 0.40233 0.97734 0.76012 0.0
C231 C 0.37557 0.97815 0.77286 0.0
C232 C 0.37594 0.97885 0.79727 0.0
C233 C 0.40289 0.97858 0.80912 0.0
C234 C 0.42951 0.97755 0.79656 0.0
C235 C 0.42927 0.97687 0.77215 0.0
H236 H 0.40314 0.97913 0.82801 0.0
H237 H 0.38426 0.96184 0.59015 0.0
H238 H 0.24192 0.12848 0.16004 0.0
H239 H 0.27392 0.12556 0.12551 0.0
H240 H 0.1979 0.0836 0.08476 0.0
H241 H 0.16592 0.08612 0.11921 0.0
H242 H 0.25122 0.07225 0.07312 0.0
H243 H 0.21308 0.13533 0.08365 0.0
H244 H 0.20566 0.16884 0.10572 0.0
H245 H 0.30301 0.1922 0.11218 0.0
H246 H 0.31099 0.15871 0.09039 0.0
H247 H 0.27659 0.08609 0.95559 0.0
H248 H 0.25816 0.08416 0.99524 0.0
H249 H 0.33977 0.1283 0.02495 0.0
H250 H 0.35817 0.13065 0.98514 0.0
H251 H 0.29048 0.13848 0.04485 0.0
H252 H 0.32809 0.07641 0.0291 0.0
H253 H 0.33462 0.04296 0.00631 0.0
H254 H 0.23823 0.01754 0.00899 0.0
H255 H 0.23103 0.05093 0.03152 0.0
C256 C 0.23215 0.11832 0.14386 0.0
C257 C 0.20122 0.10774 0.14232 0.0
C258 C 0.25046 0.11673 0.12412 0.0
C259 C 0.23812 0.10467 0.10246 0.0
C260 C 0.20787 0.09306 0.10128 0.0
C261 C 0.18958 0.09458 0.12101 0.0
C262 C 0.2557 0.10537 0.08055 0.0
C263 C 0.25974 0.0867 0.06686 0.0
C264 C 0.26742 0.12429 0.07267 0.0
C265 C 0.26263 0.14445 0.08565 0.0
C266 C 0.2329 0.14756 0.08993 0.0
C267 C 0.22859 0.16656 0.10236 0.0
C268 C 0.25385 0.18262 0.11041 0.0
C269 C 0.28347 0.17973 0.10598 0.0
C270 C 0.2879 0.16076 0.09359 0.0
C271 C 0.29078 0.09529 0.97053 0.0
C272 C 0.31886 0.10854 0.96719 0.0
C273 C 0.28028 0.09406 0.99324 0.0
C274 C 0.29778 0.10585 0.01312 0.0
C275 C 0.32595 0.119 0.00987 0.0
C276 C 0.33643 0.12031 0.98711 0.0
C277 C 0.28569 0.1053 0.03715 0.0
C278 C 0.28256 0.12403 0.05124 0.0
C279 C 0.27476 0.08641 0.04532 0.0
C280 C 0.27901 0.06624 0.03188 0.0
C281 C 0.30825 0.06374 0.0247 0.0
C282 C 0.31208 0.04477 0.01184 0.0
C283 C 0.28685 0.02815 0.00617 0.0
C284 C 0.25775 0.03043 0.01339 0.0
C285 C 0.25379 0.04937 0.02624 0.0
H286 H 0.28986 0.01348 0.99621 0.0
H287 H 0.25048 0.19731 0.12003 0.0
H288 H 0.05206 0.32973 0.14838 0.0
H289 H 0.07917 0.30785 0.16576 0.0
H290 H 0.99328 0.26603 0.17396 0.0
H291 H 0.9659 0.28807 0.15702 0.0
H292 H 0.03127 0.27093 0.21161 0.0
H293 H 0.03747 0.25532 0.12718 0.0
H294 H 0.04893 0.2632 0.0874 0.0
H295 H 0.14351 0.28747 0.10848 0.0
H296 H 0.13252 0.27998 0.1485 0.0
H297 H 0.08675 0.1787 0.21284 0.0
H298 H 0.06055 0.20558 0.20598 0.0
H299 H 0.14767 0.24686 0.19999 0.0
H300 H 0.17401 0.22011 0.20666 0.0
H301 H 0.10989 0.24329 0.16268 0.0
H302 H 0.10353 0.25644 0.24693 0.0
H303 H 0.09126 0.24753 0.28615 0.0
H304 H 0.99625 0.2266 0.26499 0.0
H305 H 0.00801 0.23511 0.2255 0.0
C306 C 0.03889 0.31599 0.15408 0.0
C307 C 0.00684 0.31053 0.15111 0.0
C308 C 0.05443 0.30347 0.16396 0.0
C309 C 0.03828 0.28512 0.17079 0.0
C310 C 0.0062 0.28009 0.16876 0.0
C311 C 0.99061 0.29267 0.159 0.0
C312 C 0.05491 0.27064 0.17885 0.0
C313 C 0.04827 0.26472 0.20085 0.0
C314 C 0.07743 0.26281 0.16496 0.0
C315 C 0.08411 0.2673 0.1409 0.0
C316 C 0.06067 0.26249 0.12338 0.0
C317 C 0.06709 0.26686 0.10079 0.0
C318 C 0.09692 0.27589 0.09544 0.0
C319 C 0.12041 0.28051 0.11266 0.0
C320 C 0.1141 0.2762 0.1353 0.0
C321 C 0.10035 0.19362 0.21046 0.0
C322 C 0.13247 0.1972 0.21012 0.0
C323 C 0.08533 0.209 0.20662 0.0
C324 C 0.10217 0.22823 0.20249 0.0
C325 C 0.13425 0.23211 0.20309 0.0
C326 C 0.14926 0.21679 0.20695 0.0
C327 C 0.08643 0.24362 0.19553 0.0
C328 C 0.09311 0.24962 0.1736 0.0
C329 C 0.06386 0.25136 0.20943 0.0
C330 C 0.05671 0.24623 0.23317 0.0
C331 C 0.08006 0.24977 0.25056 0.0
C332 C 0.07319 0.24483 0.27286 0.0
C333 C 0.04301 0.23646 0.27804 0.0
C334 C 0.01962 0.23306 0.26094 0.0
C335 C 0.02638 0.23796 0.2386 0.0
H336 H 0.03774 0.23265 0.29532 0.0
H337 H 0.10184 0.27925 0.07793 0.0
H338 H 0.41952 0.15289 0.82686 0.0
H339 H 0.44908 0.18835 0.84004 0.0
H340 H 0.4005 0.19199 0.90515 0.0
H341 H 0.36992 0.15703 0.89156 0.0
H342 H 0.40351 0.2258 0.88761 0.0
H343 H 0.47586 0.18632 0.90274 0.0
H344 H 0.507 0.16005 0.89322 0.0
H345 H 0.55251 0.19208 0.84015 0.0
H346 H 0.52134 0.2184 0.84913 0.0
H347 H 0.49807 0.31878 0.94806 0.0
H348 H 0.47345 0.28203 0.93692 0.0
H349 H 0.51596 0.27995 0.86929 0.0
H350 H 0.54086 0.31674 0.88032 0.0
H351 H 0.51698 0.24528 0.88866 0.0
H352 H 0.44346 0.28418 0.87315 0.0
H353 H 0.41236 0.31045 0.88297 0.0
H354 H 0.36908 0.27919 0.93738 0.0
H355 H 0.40026 0.25288 0.9281 0.0
C356 C 0.41527 0.16122 0.84405 0.0
C357 C 0.39293 0.15191 0.85845 0.0
C358 C 0.43234 0.18144 0.85163 0.0
C359 C 0.42746 0.19272 0.8738 0.0
C360 C 0.40496 0.18351 0.88811 0.0
C361 C 0.38781 0.16334 0.88049 0.0
C362 C 0.44483 0.21444 0.88166 0.0
C363 C 0.42834 0.22998 0.88819 0.0
C364 C 0.47722 0.22001 0.88187 0.0
C365 C 0.49605 0.20422 0.87646 0.0
C366 C 0.49234 0.18767 0.88891 0.0
C367 C 0.51003 0.17279 0.88363 0.0
C368 C 0.53167 0.17436 0.86605 0.0
C369 C 0.53571 0.19086 0.85374 0.0
C370 C 0.51806 0.20578 0.85894 0.0
C371 C 0.50239 0.3105 0.93087 0.0
C372 C 0.52122 0.32076 0.915 0.0
C373 C 0.48823 0.2895 0.92452 0.0
C374 C 0.49256 0.27834 0.90216 0.0
C375 C 0.51226 0.2883 0.88661 0.0
C376 C 0.52638 0.30934 0.89292 0.0
C377 C 0.47562 0.25651 0.89469 0.0
C378 C 0.49217 0.24101 0.88816 0.0
C379 C 0.44326 0.25093 0.89454 0.0
C380 C 0.42442 0.26669 0.90009 0.0
C381 C 0.42749 0.283 0.88734 0.0
C382 C 0.40982 0.29788 0.89279 0.0
C383 C 0.38882 0.29652 0.91083 0.0
C384 C 0.38539 0.28024 0.92343 0.0
C385 C 0.40304 0.26533 0.91807 0.0
H386 H 0.37516 0.30805 0.91502 0.0
H387 H 0.54534 0.16283 0.86199 0.0
H388 H 0.02979 0.80042 0.39728 0.0
H389 H 0.99561 0.76642 0.38525 0.0
H390 H 0.96086 0.78759 0.32667 0.0
H391 H 0.99485 0.82184 0.33876 0.0
H392 H 0.91511 0.76519 0.34898 0.0
H393 H 0.01259 0.75732 0.31788 0.0
H394 H 0.06815 0.75932 0.31976 0.0
H395 H 0.05496 0.71773 0.36945 0.0
H396 H 0.99932 0.7157 0.36811 0.0
H397 H 0.84626 0.66811 0.2797 0.0
H398 H 0.87859 0.7023 0.29464 0.0
H399 H 0.91195 0.67845 0.35168 0.0
H400 H 0.88036 0.64396 0.3363 0.0
H401 H 0.95792 0.70211 0.33166 0.0
H402 H 0.86028 0.70904 0.36191 0.0
H403 H 0.80471 0.70698 0.3601 0.0
H404 H 0.81801 0.75023 0.3123 0.0
H405 H 0.87365 0.75233 0.31356 0.0
C406 C 0.01484 0.79791 0.38187 0.0
C407 C 0.01518 0.81383 0.3689 0.0
C408 C 0.99538 0.77842 0.37497 0.0
C409 C 0.97599 0.77438 0.35488 0.0
C410 C 0.97572 0.79036 0.34219 0.0
C411 C 0.9952 0.80991 0.34909 0.0
C412 C 0.95622 0.75341 0.347 0.0
C413 C 0.92448 0.75142 0.34491 0.0
C414 C 0.9684 0.73539 0.3423 0.0
C415 C 0.00183 0.73653 0.34307 0.0
C416 C 0.02156 0.74873 0.32935 0.0
C417 C 0.05306 0.74985 0.33029 0.0
C418 C 0.06509 0.7387 0.34476 0.0
C419 C 0.04562 0.72638 0.35827 0.0
C420 C 0.0141 0.72522 0.35742 0.0
C421 C 0.86044 0.67014 0.29546 0.0
C422 C 0.86022 0.65343 0.30714 0.0
C423 C 0.87875 0.68973 0.30407 0.0
C424 C 0.89724 0.69304 0.32454 0.0
C425 C 0.89755 0.6763 0.33602 0.0
C426 C 0.87916 0.65666 0.32741 0.0
C427 C 0.91679 0.71388 0.33354 0.0
C428 C 0.9485 0.71586 0.33583 0.0
C429 C 0.90458 0.73188 0.33844 0.0
C430 C 0.87112 0.73069 0.33767 0.0
C431 C 0.85134 0.71798 0.35086 0.0
C432 C 0.81983 0.71683 0.34996 0.0
C433 C 0.80783 0.72843 0.33605 0.0
C434 C 0.82734 0.74124 0.32305 0.0
C435 C 0.85887 0.74243 0.32387 0.0
H436 H 0.78343 0.72752 0.33537 0.0
H437 H 0.08948 0.73959 0.34546 0.0
H438 H 0.70172 0.72956 0.68836 0.0
H439 H 0.66752 0.75317 0.68831 0.0
H440 H 0.59078 0.70487 0.69989 0.0
H441 H 0.62489 0.68093 0.69949 0.0
H442 H 0.57912 0.72128 0.66368 0.0
H443 H 0.61606 0.74866 0.74261 0.0
H444 H 0.65437 0.76245 0.77527 0.0
H445 H 0.69295 0.81419 0.74192 0.0
H446 H 0.65515 0.80056 0.70887 0.0
H447 H 0.48057 0.79043 0.66104 0.0
H448 H 0.50814 0.76782 0.67674 0.0
H449 H 0.59415 0.80743 0.66401 0.0
H450 H 0.56682 0.83026 0.6486 0.0
H451 H 0.59592 0.79421 0.70593 0.0
H452 H 0.56407 0.76375 0.62476 0.0
H453 H 0.52648 0.74977 0.5916 0.0
H454 H 0.4788 0.7035 0.62961 0.0
H455 H 0.51592 0.7174 0.66314 0.0
C456 C 0.67766 0.72402 0.69132 0.0
C457 C 0.66601 0.7033 0.69374 0.0
C458 C 0.65812 0.73761 0.69144 0.0
C459 C 0.62657 0.73085 0.69424 0.0
C460 C 0.61505 0.71043 0.69771 0.0
C461 C 0.63459 0.69678 0.69753 0.0
C462 C 0.60547 0.74445 0.69105 0.0
C463 C 0.58234 0.73706 0.67336 0.0
C464 C 0.61006 0.7652 0.70329 0.0
C465 C 0.63285 0.7735 0.72316 0.0
C466 C 0.63285 0.7629 0.74214 0.0
C467 C 0.65445 0.7707 0.76075 0.0
C468 C 0.67611 0.78917 0.76065 0.0
C469 C 0.67616 0.79988 0.74197 0.0
C470 C 0.65462 0.79214 0.72331 0.0
C471 C 0.50536 0.79445 0.66179 0.0
C472 C 0.52152 0.81205 0.65337 0.0
C473 C 0.52106 0.78149 0.67073 0.0
C474 C 0.55318 0.78582 0.67128 0.0
C475 C 0.56935 0.80381 0.66375 0.0
C476 C 0.55369 0.81678 0.65484 0.0
C477 C 0.57006 0.77107 0.67837 0.0
C478 C 0.5924 0.77828 0.69667 0.0
C479 C 0.5648 0.75013 0.6667 0.0
C480 C 0.54253 0.74176 0.64655 0.0
C481 C 0.54542 0.7507 0.62611 0.0
C482 C 0.52424 0.74278 0.60724 0.0
C483 C 0.50021 0.7258 0.60853 0.0
C484 C 0.49738 0.71668 0.62866 0.0
C485 C 0.51849 0.72456 0.6476 0.0
H486 H 0.48384 0.71969 0.5939 0.0
H487 H 0.69282 0.79518 0.77507 0.0
H488 H 0.6717 0.60429 0.74453 0.0
H489 H 0.66038 0.58349 0.77554 0.0
H490 H 0.59913 0.53567 0.72729 0.0
H491 H 0.60955 0.55676 0.69644 0.0
H492 H 0.57287 0.54229 0.76704 0.0
H493 H 0.67146 0.53034 0.74557 0.0
H494 H 0.72636 0.53954 0.73727 0.0
H495 H 0.74578 0.57257 0.80845 0.0
H496 H 0.69091 0.5638 0.81711 0.0
H497 H 0.55441 0.4677 0.84269 0.0
H498 H 0.57043 0.48522 0.80937 0.0
H499 H 0.61939 0.53911 0.85742 0.0
H500 H 0.60336 0.52178 0.89087 0.0
H501 H 0.65233 0.5277 0.81694 0.0
H502 H 0.55229 0.5402 0.83697 0.0
H503 H 0.49733 0.52983 0.84461 0.0
H504 H 0.48107 0.49389 0.7745 0.0
H505 H 0.53605 0.50382 0.76656 0.0
C506 C 0.65602 0.58927 0.74046 0.0
C507 C 0.64151 0.58217 0.71803 0.0
C508 C 0.64969 0.57732 0.75819 0.0
C509 C 0.62918 0.55785 0.75372 0.0
C510 C 0.61503 0.55062 0.7312 0.0
C511 C 0.62106 0.56268 0.71355 0.0
C512 C 0.62132 0.54552 0.77283 0.0
C513 C 0.5903 0.53881 0.77763 0.0
C514 C 0.64399 0.54127 0.78705 0.0
C515 C 0.67702 0.54656 0.78192 0.0
C516 C 0.6874 0.5397 0.75941 0.0
C517 C 0.71852 0.54481 0.75465 0.0
C518 C 0.73953 0.55667 0.7723 0.0
C519 C 0.72947 0.5634 0.79478 0.0
C520 C 0.69837 0.55835 0.79963 0.0
C521 C 0.56874 0.48323 0.84618 0.0
C522 C 0.57749 0.4934 0.86944 0.0
C523 C 0.57781 0.49322 0.82712 0.0
C524 C 0.5959 0.5135 0.83098 0.0
C525 C 0.60542 0.52346 0.8541 0.0
C526 C 0.59613 0.51356 0.87318 0.0
C527 C 0.60406 0.5246 0.81099 0.0
C528 C 0.63504 0.5311 0.80612 0.0
C529 C 0.5814 0.52848 0.79654 0.0
C530 C 0.54832 0.52257 0.80126 0.0
C531 C 0.53704 0.52994 0.82325 0.0
C532 C 0.50587 0.52417 0.82762 0.0
C533 C 0.48573 0.51116 0.81008 0.0
C534 C 0.4967 0.50394 0.78809 0.0
C535 C 0.52786 0.50965 0.78364 0.0
H536 H 0.46161 0.50672 0.81349 0.0
H537 H 0.76362 0.56062 0.76858 0.0
H538 H 0.80918 0.36826 0.01518 0.0
H539 H 0.76735 0.37637 0.99446 0.0
H540 H 0.73095 0.39908 0.06114 0.0
H541 H 0.77253 0.39067 0.08209 0.0
H542 H 0.68572 0.37598 0.03034 0.0
H543 H 0.7713 0.43257 0.02972 0.0
H544 H 0.8246 0.44937 0.02309 0.0
H545 H 0.81186 0.42435 0.94891 0.0
H546 H 0.75858 0.4071 0.95517 0.0
H547 H 0.59954 0.44149 0.98729 0.0
H548 H 0.63799 0.42927 0.00766 0.0
H549 H 0.65779 0.39346 0.94172 0.0
H550 H 0.61888 0.40531 0.92131 0.0
H551 H 0.71058 0.4226 0.97165 0.0
H552 H 0.62363 0.3662 0.97345 0.0
H553 H 0.57012 0.35082 0.98126 0.0
H554 H 0.58545 0.37769 0.05483 0.0
H555 H 0.63898 0.39351 0.04737 0.0
C556 C 0.79223 0.3749 0.02548 0.0
C557 C 0.79431 0.37895 0.0503 0.0
C558 C 0.76837 0.37958 0.01359 0.0
C559 C 0.74625 0.38856 0.02625 0.0
C560 C 0.7478 0.39217 0.05103 0.0
C561 C 0.77164 0.38743 0.06296 0.0
C562 C 0.72194 0.3946 0.01354 0.0
C563 C 0.69117 0.38634 0.0177 0.0
C564 C 0.72906 0.40792 0.99682 0.0
C565 C 0.76103 0.41837 0.99295 0.0
C566 C 0.77993 0.43051 0.01202 0.0
C567 C 0.81013 0.44013 0.00832 0.0
C568 C 0.82163 0.43789 0.9856 0.0
C569 C 0.80293 0.42605 0.96651 0.0
C570 C 0.77272 0.41635 0.97012 0.0
C571 C 0.61194 0.43088 0.97721 0.0
C572 C 0.60608 0.42412 0.95282 0.0
C573 C 0.63378 0.4239 0.98884 0.0
C574 C 0.65052 0.41043 0.97615 0.0
C575 C 0.64491 0.40378 0.95176 0.0
C576 C 0.62258 0.41041 0.9402 0.0
C577 C 0.67455 0.40386 0.98837 0.0
C578 C 0.70523 0.41213 0.9842 0.0
C579 C 0.66735 0.39076 0.00524 0.0
C580 C 0.63522 0.38124 0.0098 0.0
C581 C 0.61551 0.36901 0.99125 0.0
C582 C 0.58519 0.36017 0.99562 0.0
C583 C 0.57436 0.36333 0.01852 0.0
C584 C 0.59386 0.37529 0.0371 0.0
C585 C 0.6242 0.38418 0.03281 0.0
H586 H 0.55088 0.35647 0.02187 0.0
H587 H 0.84502 0.44536 0.98277 0.0
H588 H 0.86577 0.38535 0.14349 0.0
H589 H 0.85209 0.41799 0.16086 0.0
H590 H 0.94716 0.44966 0.16284 0.0
H591 H 0.96089 0.41697 0.14529 0.0
H592 H 0.92159 0.46214 0.2025 0.0
H593 H 0.89779 0.4547 0.12078 0.0
H594 H 0.87492 0.43741 0.08156 0.0
H595 H 0.78492 0.43274 0.10933 0.0
H596 H 0.80727 0.44976 0.14886 0.0
H597 H 0.84637 0.55621 0.19477 0.0
H598 H 0.86664 0.52651 0.17597 0.0
H599 H 0.85152 0.50022 0.23933 0.0
H600 H 0.83204 0.53011 0.25843 0.0
H601 H 0.84151 0.48724 0.1645 0.0
H602 H 0.90343 0.47214 0.24591 0.0
H603 H 0.93145 0.49209 0.2824 0.0
H604 H 0.95418 0.54635 0.25043 0.0
H605 H 0.92666 0.52666 0.21365 0.0
C606 C 0.88366 0.39934 0.1472 0.0
C607 C 0.91427 0.39877 0.14242 0.0
C608 C 0.87586 0.41796 0.15728 0.0
C609 C 0.89853 0.43636 0.16271 0.0
C610 C 0.92927 0.43568 0.15866 0.0
C611 C 0.93708 0.41702 0.14865 0.0
C612 C 0.89011 0.45626 0.17273 0.0
C613 C 0.9041 0.46765 0.19419 0.0
C614 C 0.86787 0.46373 0.16156 0.0
C615 C 0.85424 0.45337 0.13785 0.0
C616 C 0.87313 0.44983 0.11859 0.0
C617 C 0.86026 0.44011 0.09629 0.0
C618 C 0.8285 0.43399 0.09296 0.0
C619 C 0.80953 0.43752 0.11195 0.0
C620 C 0.82229 0.44722 0.13431 0.0
C621 C 0.84758 0.54418 0.20477 0.0
C622 C 0.8377 0.54556 0.22813 0.0
C623 C 0.85908 0.52717 0.19396 0.0
C624 C 0.86089 0.5112 0.20628 0.0
C625 C 0.85092 0.51252 0.22959 0.0
C626 C 0.83966 0.5296 0.24048 0.0
C627 C 0.87247 0.4929 0.19459 0.0
C628 C 0.85904 0.48178 0.17281 0.0
C629 C 0.89589 0.48602 0.20511 0.0
C630 C 0.91272 0.49796 0.22711 0.0
C631 C 0.91451 0.4883 0.24664 0.0
C632 C 0.93029 0.49957 0.26738 0.0
C633 C 0.9445 0.52049 0.26876 0.0
C634 C 0.94305 0.53017 0.24937 0.0
C635 C 0.92733 0.51897 0.22859 0.0
H636 H 0.95669 0.52919 0.28483 0.0
H637 H 0.81861 0.4266 0.07565 0.0
H638 H 0.83929 0.63243 0.43222 0.0
H639 H 0.82679 0.63074 0.47341 0.0
H640 H 0.75017 0.57963 0.45032 0.0
H641 H 0.76238 0.58123 0.4092 0.0
H642 H 0.73416 0.60981 0.48258 0.0
H643 H 0.81327 0.57136 0.4749 0.0
H644 H 0.86463 0.56516 0.4655 0.0
H645 H 0.90509 0.61802 0.51796 0.0
H646 H 0.85398 0.62471 0.52744 0.0
H647 H 0.691 0.58788 0.5937 0.0
H648 H 0.71104 0.58246 0.55405 0.0
H649 H 0.78902 0.63282 0.57603 0.0
H650 H 0.76945 0.63814 0.6159 0.0
H651 H 0.80497 0.60188 0.54436 0.0
H652 H 0.72767 0.64189 0.55031 0.0
H653 H 0.67696 0.64925 0.55984 0.0
H654 H 0.63399 0.59485 0.51037 0.0
H655 H 0.68446 0.58701 0.5008 0.0
C656 C 0.81992 0.62073 0.43592 0.0
C657 C 0.80176 0.60702 0.41742 0.0
C658 C 0.8129 0.61972 0.45947 0.0
C659 C 0.78765 0.60497 0.46492 0.0
C660 C 0.76977 0.59111 0.4465 0.0
C661 C 0.77682 0.59205 0.42299 0.0
C662 C 0.77872 0.60474 0.48976 0.0
C663 C 0.74947 0.60771 0.49599 0.0
C664 C 0.79905 0.60263 0.50739 0.0
C665 C 0.82981 0.59866 0.50171 0.0
C666 C 0.83314 0.58178 0.48428 0.0
C667 C 0.8622 0.57815 0.47897 0.0
C668 C 0.88811 0.59122 0.49108 0.0
C669 C 0.885 0.60792 0.50857 0.0
C670 C 0.85599 0.61163 0.51394 0.0
C671 C 0.71273 0.59755 0.59028 0.0
C672 C 0.72839 0.61365 0.60791 0.0
C673 C 0.7241 0.59446 0.56756 0.0
C674 C 0.75116 0.60755 0.56197 0.0
C675 C 0.76801 0.62262 0.57994 0.0
C676 C 0.75673 0.62566 0.60273 0.0
C677 C 0.76034 0.60675 0.53705 0.0
C678 C 0.78962 0.60377 0.53086 0.0
C679 C 0.74016 0.60902 0.5194 0.0
C680 C 0.7098 0.61375 0.52503 0.0
C681 C 0.70739 0.63142 0.5416 0.0
C682 C 0.6787 0.63569 0.54699 0.0
C683 C 0.65227 0.62249 0.53577 0.0
C684 C 0.65448 0.60504 0.51908 0.0
C685 C 0.68312 0.60068 0.51366 0.0
H686 H 0.63007 0.62583 0.53996 0.0
H687 H 0.91059 0.58839 0.48695 0.0
loop_
_geom_bond_atom_site_label_1
_geom_bond_atom_site_label_2
_geom_bond_distance
_geom_bond_site_symmetry_2
_ccdc_geom_bond_type
O0 Cd1 2.300 . S
O0 C7 1.275 . S
Cd1 O0 2.300 . S
Cd1 O9 2.381 . S
Cd1 O10 2.378 . S
O2 Cd3 2.385 . S
O2 C7 1.255 . S
Cd3 O2 2.385 . S
Cd3 O4 2.317 . S
O4 Cd3 2.317 . S
O4 C5 1.232 . S
C5 O4 1.232 . S
C5 O6 1.218 . S
O6 C5 1.218 . S
C7 O0 1.275 . S
C7 O2 1.255 . S
C8 O9 1.258 . S
C8 O10 1.256 . S
O9 Cd1 2.381 . S
O9 C8 1.258 . S
O10 Cd1 2.378 . S
O10 C8 1.256 . S
O11 Cd12 2.300 . S
O11 C18 1.275 . S
Cd12 O11 2.300 . S
Cd12 O20 2.381 . S
Cd12 O21 2.378 . S
O13 Cd14 2.385 . S
O13 C18 1.255 . S
Cd14 O13 2.385 . S
Cd14 O15 2.317 . S
O15 Cd14 2.317 . S
O15 C16 1.232 . S
C16 O15 1.232 . S
C16 O17 1.218 . S
O17 C16 1.218 . S
C18 O11 1.275 . S
C18 O13 1.255 . S
C19 O20 1.258 . S
C19 O21 1.256 . S
O20 Cd12 2.381 . S
O20 C19 1.258 . S
O21 Cd12 2.378 . S
O21 C19 1.256 . S
O22 Cd23 2.300 . S
O22 C29 1.275 . S
Cd23 O22 2.300 . S
Cd23 O31 2.381 . S
Cd23 O32 2.378 . S
O24 Cd25 2.385 . S
O24 C29 1.255 . S
Cd25 O24 2.385 . S
Cd25 O26 2.317 . S
O26 Cd25 2.317 . S
O26 C27 1.232 . S
C27 O26 1.232 . S
C27 O28 1.218 . S
O28 C27 1.218 . S
C29 O22 1.275 . S
C29 O24 1.255 . S
C30 O31 1.258 . S
C30 O32 1.256 . S
O31 Cd23 2.381 . S
O31 C30 1.258 . S
O32 Cd23 2.378 . S
O32 C30 1.256 . S
O33 Cd34 2.300 . S
O33 C40 1.275 . S
Cd34 O33 2.300 . S
Cd34 O42 2.381 . S
Cd34 O43 2.378 . S
O35 Cd36 2.385 . S
O35 C40 1.255 . S
Cd36 O35 2.385 . S
Cd36 O37 2.317 . S
O37 Cd36 2.317 . S
O37 C38 1.232 . S
C38 O37 1.232 . S
C38 O39 1.218 . S
O39 C38 1.218 . S
C40 O33 1.275 . S
C40 O35 1.255 . S
C41 O42 1.258 . S
C41 O43 1.256 . S
O42 Cd34 2.381 . S
O42 C41 1.258 . S
O43 Cd34 2.378 . S
O43 C41 1.256 . S
O44 Cd45 2.300 . S
O44 C51 1.275 . S
Cd45 O44 2.300 . S
Cd45 O53 2.381 . S
Cd45 O54 2.378 . S
O46 Cd47 2.385 . S
O46 C51 1.255 . S
Cd47 O46 2.385 . S
Cd47 O48 2.317 . S
O48 Cd47 2.317 . S
O48 C49 1.232 . S
C49 O48 1.232 . S
C49 O50 1.218 . S
O50 C49 1.218 . S
C51 O44 1.275 . S
C51 O46 1.255 . S
C52 O53 1.258 . S
C52 O54 1.256 . S
O53 Cd45 2.381 . S
O53 C52 1.258 . S
O54 Cd45 2.378 . S
O54 C52 1.256 . S
O55 Cd56 2.300 . S
O55 C62 1.275 . S
Cd56 O55 2.300 . S
Cd56 O64 2.381 . S
Cd56 O65 2.378 . S
O57 Cd58 2.385 . S
O57 C62 1.255 . S
Cd58 O57 2.385 . S
Cd58 O59 2.317 . S
O59 Cd58 2.317 . S
O59 C60 1.232 . S
C60 O59 1.232 . S
C60 O61 1.218 . S
O61 C60 1.218 . S
C62 O55 1.275 . S
C62 O57 1.255 . S
C63 O64 1.258 . S
C63 O65 1.256 . S
O64 Cd56 2.381 . S
O64 C63 1.258 . S
O65 Cd56 2.378 . S
O65 C63 1.256 . S
O66 Cd67 2.300 . S
O66 C73 1.275 . S
Cd67 O66 2.300 . S
Cd67 O75 2.381 . S
Cd67 O76 2.378 . S
O68 Cd69 2.385 . S
O68 C73 1.255 . S
Cd69 O68 2.385 . S
Cd69 O70 2.317 . S
O70 Cd69 2.317 . S
O70 C71 1.232 . S
C71 O70 1.232 . S
C71 O72 1.218 . S
O72 C71 1.218 . S
C73 O66 1.275 . S
C73 O68 1.255 . S
C74 O75 1.258 . S
C74 O76 1.256 . S
O75 Cd67 2.381 . S
O75 C74 1.258 . S
O76 Cd67 2.378 . S
O76 C74 1.256 . S
O77 Cd78 2.300 . S
O77 C84 1.275 . S
Cd78 O77 2.300 . S
Cd78 O86 2.381 . S
Cd78 O87 2.378 . S
O79 Cd80 2.385 . S
O79 C84 1.255 . S
Cd80 O79 2.385 . S
Cd80 O81 2.317 . S
O81 Cd80 2.317 . S
O81 C82 1.232 . S
C82 O81 1.232 . S
C82 O83 1.218 . S
O83 C82 1.218 . S
C84 O77 1.275 . S
C84 O79 1.255 . S
C85 O86 1.258 . S
C85 O87 1.256 . S
O86 Cd78 2.381 . S
O86 C85 1.258 . S
O87 Cd78 2.378 . S
O87 C85 1.256 . S
H88 C106 0.951 . S
H89 C108 0.951 . S
H90 C110 0.950 1_545 S
H91 C111 0.950 . S
H92 C113 0.950 . S
H93 C116 0.945 1_545 S
H94 C117 0.950 . S
H95 C119 0.950 . S
H96 C120 0.950 . S
H97 C121 0.951 . S
H98 C123 0.951 . S
H99 C125 0.950 . S
H100 C126 0.950 . S
H101 C128 0.950 . S
H102 C131 0.950 . S
H103 C132 0.950 . S
H104 C134 0.950 . S
H105 C135 0.950 . S
C106 H88 0.951 . S
C106 C107 1.366 . S
C106 C108 1.388 . S
C107 C106 1.366 . S
C107 C111 1.385 . S
C108 H89 0.951 . S
C108 C106 1.388 . S
C108 C109 1.366 . S
C109 C108 1.366 . S
C109 C110 1.414 . S
C109 C112 1.499 1_565 S
C110 H90 0.950 1_565 S
C110 C109 1.414 . S
C110 C111 1.374 . S
C111 H91 0.950 . S
C111 C107 1.385 . S
C111 C110 1.374 . S
C112 C109 1.499 1_545 S
C112 C113 1.373 . S
C112 C114 1.389 . S
C113 H92 0.950 . S
C113 C112 1.373 . S
C113 C129 1.377 . S
C114 C112 1.389 . S
C114 C115 1.524 1_545 S
C114 C128 1.377 . S
C115 C114 1.524 1_565 S
C115 C116 1.397 . S
C115 C120 1.363 . S
C116 H93 0.945 1_565 S
C116 C115 1.397 . S
C116 C117 1.334 . S
C117 H94 0.950 . S
C117 C116 1.334 . S
C117 C118 1.287 . S
C118 C117 1.287 . S
C118 C119 1.524 . S
C118 H137 0.913 . S
C119 H95 0.950 . S
C119 C118 1.524 . S
C119 C120 1.415 . S
C120 H96 0.950 . S
C120 C115 1.363 . S
C120 C119 1.415 . S
C121 H97 0.951 . S
C121 C122 1.366 . S
C121 C123 1.388 . S
C122 C121 1.366 . S
C122 C126 1.385 . S
C123 H98 0.951 . S
C123 C121 1.388 . S
C123 C124 1.366 . S
C124 C123 1.366 . S
C124 C125 1.414 . S
C124 C127 1.499 . S
C125 H99 0.950 . S
C125 C124 1.414 . S
C125 C126 1.374 . S
C126 H100 0.950 . S
C126 C122 1.385 . S
C126 C125 1.374 . S
C127 C124 1.499 . S
C127 C128 1.373 . S
C127 C129 1.389 . S
C128 H101 0.950 . S
C128 C114 1.377 . S
C128 C127 1.373 . S
C129 C113 1.377 . S
C129 C127 1.389 . S
C129 C130 1.524 . S
C130 C129 1.524 . S
C130 C131 1.397 . S
C130 C135 1.363 . S
C131 H102 0.950 . S
C131 C130 1.397 . S
C131 C132 1.334 . S
C132 H103 0.950 . S
C132 C131 1.334 . S
C132 C133 1.287 . S
C133 C132 1.287 . S
C133 C134 1.524 . S
C133 H136 0.999 . S
C134 H104 0.950 . S
C134 C133 1.524 . S
C134 C135 1.415 . S
C135 H105 0.950 . S
C135 C130 1.363 . S
C135 C134 1.415 . S
H136 C133 0.999 . S
H137 C118 0.913 . S
H138 C156 0.951 . S
H139 C158 0.951 . S
H140 C160 0.950 . S
H141 C161 0.950 . S
H142 C163 0.950 . S
H143 C166 0.950 . S
H144 C167 0.950 . S
H145 C169 0.950 . S
H146 C170 0.950 . S
H147 C171 0.951 . S
H148 C173 0.951 . S
H149 C175 0.950 . S
H150 C176 0.950 . S
H151 C178 0.950 . S
H152 C181 0.950 . S
H153 C182 0.950 . S
H154 C184 0.950 . S
H155 C185 0.950 . S
C156 H138 0.951 . S
C156 C157 1.366 . S
C156 C158 1.388 . S
C157 C156 1.366 . S
C157 C161 1.385 . S
C158 H139 0.951 . S
C158 C156 1.388 . S
C158 C159 1.366 . S
C159 C158 1.366 . S
C159 C160 1.414 . S
C159 C162 1.499 . S
C160 H140 0.950 . S
C160 C159 1.414 . S
C160 C161 1.374 . S
C161 H141 0.950 . S
C161 C157 1.385 . S
C161 C160 1.374 . S
C162 C159 1.499 . S
C162 C163 1.373 . S
C162 C164 1.389 . S
C163 H142 0.950 . S
C163 C162 1.373 . S
C163 C179 1.377 . S
C164 C162 1.389 . S
C164 C165 1.524 . S
C164 C178 1.377 . S
C165 C164 1.524 . S
C165 C166 1.397 . S
C165 C170 1.363 . S
C166 H143 0.950 . S
C166 C165 1.397 . S
C166 C167 1.334 . S
C167 H144 0.950 . S
C167 C166 1.334 . S
C167 C168 1.287 . S
C168 C167 1.287 . S
C168 C169 1.524 . S
C168 H187 0.913 . S
C169 H145 0.950 . S
C169 C168 1.524 . S
C169 C170 1.415 . S
C170 H146 0.950 . S
C170 C165 1.363 . S
C170 C169 1.415 . S
C171 H147 0.951 . S
C171 C172 1.366 . S
C171 C173 1.388 . S
C172 C171 1.366 . S
C172 C176 1.385 . S
C173 H148 0.951 . S
C173 C171 1.388 . S
C173 C174 1.366 . S
C174 C173 1.366 . S
C174 C175 1.414 . S
C174 C177 1.499 . S
C175 H149 0.950 . S
C175 C174 1.414 . S
C175 C176 1.374 . S
C176 H150 0.950 . S
C176 C172 1.385 . S
C176 C175 1.374 . S
C177 C174 1.499 . S
C177 C178 1.373 . S
C177 C179 1.389 . S
C178 H151 0.950 . S
C178 C164 1.377 . S
C178 C177 1.373 . S
C179 C163 1.377 . S
C179 C177 1.389 . S
C179 C180 1.524 . S
C180 C179 1.524 . S
C180 C181 1.397 . S
C180 C185 1.363 . S
C181 H152 0.950 . S
C181 C180 1.397 . S
C181 C182 1.334 . S
C182 H153 0.950 . S
C182 C181 1.334 . S
C182 C183 1.287 . S
C183 C182 1.287 . S
C183 C184 1.524 . S
C183 H186 0.999 . S
C184 H154 0.950 . S
C184 C183 1.524 . S
C184 C185 1.415 . S
C185 H155 0.950 . S
C185 C180 1.363 . S
C185 C184 1.415 . S
H186 C183 0.999 . S
H187 C168 0.913 . S
H188 C206 0.951 . S
H189 C208 0.951 . S
H190 C210 0.950 . S
H191 C211 0.950 . S
H192 C213 0.950 . S
H193 C216 0.950 . S
H194 C217 0.950 . S
H195 C219 0.950 . S
H196 C220 0.950 . S
H197 C221 0.951 . S
H198 C223 0.951 . S
H199 C225 0.950 1_565 S
H200 C226 0.950 . S
H201 C228 0.950 . S
H202 C231 0.950 . S
H203 C232 0.960 . S
H204 C234 0.950 . S
H205 C235 0.950 . S
C206 H188 0.951 . S
C206 C207 1.366 . S
C206 C208 1.388 . S
C207 C206 1.366 . S
C207 C211 1.385 . S
C208 H189 0.951 . S
C208 C206 1.388 . S
C208 C209 1.366 . S
C209 C208 1.366 . S
C209 C210 1.414 . S
C209 C212 1.499 . S
C210 H190 0.950 . S
C210 C209 1.414 . S
C210 C211 1.374 . S
C211 H191 0.950 . S
C211 C207 1.385 . S
C211 C210 1.374 . S
C212 C209 1.499 . S
C212 C213 1.373 . S
C212 C214 1.389 . S
C213 H192 0.950 . S
C213 C212 1.373 . S
C213 C229 1.377 . S
C214 C212 1.389 . S
C214 C215 1.524 . S
C214 C228 1.377 . S
C215 C214 1.524 . S
C215 C216 1.397 . S
C215 C220 1.363 . S
C216 H193 0.950 . S
C216 C215 1.397 . S
C216 C217 1.334 . S
C217 H194 0.950 . S
C217 C216 1.334 . S
C217 C218 1.287 . S
C218 C217 1.287 . S
C218 C219 1.524 . S
C218 H237 0.913 . S
C219 H195 0.950 . S
C219 C218 1.524 . S
C219 C220 1.415 . S
C220 H196 0.950 . S
C220 C215 1.363 . S
C220 C219 1.415 . S
C221 H197 0.951 . S
C221 C222 1.366 . S
C221 C223 1.388 . S
C222 C221 1.366 . S
C222 C226 1.385 . S
C223 H198 0.951 . S
C223 C221 1.388 . S
C223 C224 1.366 . S
C224 C223 1.366 . S
C224 C225 1.414 . S
C224 C227 1.499 1_545 S
C225 H199 0.950 1_545 S
C225 C224 1.414 . S
C225 C226 1.374 . S
C226 H200 0.950 . S
C226 C222 1.385 . S
C226 C225 1.374 . S
C227 C224 1.499 1_565 S
C227 C228 1.373 . S
C227 C229 1.389 . S
C228 H201 0.950 . S
C228 C214 1.377 . S
C228 C227 1.373 . S
C229 C213 1.377 . S
C229 C227 1.389 . S
C229 C230 1.524 . S
C230 C229 1.524 . S
C230 C231 1.397 . S
C230 C235 1.363 1_565 S
C231 H202 0.950 . S
C231 C230 1.397 . S
C231 C232 1.336 . S
C232 H203 0.960 . S
C232 C231 1.336 . S
C232 C233 1.278 1_565 S
C233 C232 1.278 1_545 S
C233 C234 1.524 . S
C233 H236 0.999 . S
C234 H204 0.950 . S
C234 C233 1.524 . S
C234 C235 1.415 . S
C235 H205 0.950 . S
C235 C230 1.363 1_545 S
C235 C234 1.415 . S
H236 C233 0.999 . S
H237 C218 0.913 . S
H238 C256 0.951 . S
H239 C258 0.951 . S
H240 C260 0.950 . S
H241 C261 0.950 . S
H242 C263 0.950 . S
H243 C266 0.950 . S
H244 C267 0.950 . S
H245 C269 0.950 . S
H246 C270 0.950 . S
H247 C271 0.951 . S
H248 C273 0.951 . S
H249 C275 0.950 . S
H250 C276 0.950 . S
H251 C278 0.950 . S
H252 C281 0.950 . S
H253 C282 0.950 . S
H254 C284 0.950 . S
H255 C285 0.963 . S
C256 H238 0.951 . S
C256 C257 1.366 . S
C256 C258 1.388 . S
C257 C256 1.366 . S
C257 C261 1.385 . S
C258 H239 0.951 . S
C258 C256 1.388 . S
C258 C259 1.366 . S
C259 C258 1.366 . S
C259 C260 1.414 . S
C259 C262 1.499 . S
C260 H240 0.950 . S
C260 C259 1.414 . S
C260 C261 1.374 . S
C261 H241 0.950 . S
C261 C257 1.385 . S
C261 C260 1.374 . S
C262 C259 1.499 . S
C262 C263 1.373 . S
C262 C264 1.389 . S
C263 H242 0.950 . S
C263 C262 1.373 . S
C263 C279 1.377 . S
C264 C262 1.389 . S
C264 C265 1.524 . S
C264 C278 1.377 . S
C265 C264 1.524 . S
C265 C266 1.397 . S
C265 C270 1.363 . S
C266 H243 0.950 . S
C266 C265 1.397 . S
C266 C267 1.334 . S
C267 H244 0.950 . S
C267 C266 1.334 . S
C267 C268 1.287 . S
C268 C267 1.287 . S
C268 C269 1.524 . S
C268 H287 0.913 . S
C269 H245 0.950 . S
C269 C268 1.524 . S
C269 C270 1.415 . S
C270 H246 0.950 . S
C270 C265 1.363 . S
C270 C269 1.415 . S
C271 H247 0.951 . S
C271 C272 1.366 . S
C271 C273 1.388 . S
C272 C271 1.366 . S
C272 C276 1.385 . S
C273 H248 0.951 . S
C273 C271 1.388 . S
C273 C274 1.366 . S
C274 C273 1.366 . S
C274 C275 1.414 . S
C274 C277 1.499 1_556 S
C275 H249 0.950 . S
C275 C274 1.414 . S
C275 C276 1.374 . S
C276 H250 0.950 . S
C276 C272 1.385 . S
C276 C275 1.374 . S
C277 C274 1.499 1_554 S
C277 C278 1.373 . S
C277 C279 1.389 . S
C278 H251 0.950 . S
C278 C264 1.377 . S
C278 C277 1.373 . S
C279 C263 1.377 . S
C279 C277 1.389 . S
C279 C280 1.524 1_554 S
C280 C279 1.524 1_556 S
C280 C281 1.397 . S
C280 C285 1.363 . S
C281 H252 0.950 . S
C281 C280 1.397 . S
C281 C282 1.334 . S
C282 H253 0.950 . S
C282 C281 1.334 . S
C282 C283 1.287 . S
C283 C282 1.287 . S
C283 C284 1.524 . S
C283 H286 0.999 . S
C284 H254 0.950 . S
C284 C283 1.524 . S
C284 C285 1.415 . S
C285 H255 0.963 . S
C285 C280 1.363 . S
C285 C284 1.415 . S
H286 C283 0.999 . S
H287 C268 0.913 . S
H288 C306 0.951 . S
H289 C308 0.951 . S
H290 C310 0.950 . S
H291 C311 0.950 . S
H292 C313 0.950 . S
H293 C316 0.950 . S
H294 C317 0.950 1_655 S
H295 C319 0.950 . S
H296 C320 0.950 . S
H297 C321 0.951 . S
H298 C323 0.951 . S
H299 C325 0.950 . S
H300 C326 0.950 . S
H301 C328 0.950 . S
H302 C331 0.950 . S
H303 C332 0.950 . S
H304 C334 0.950 1_655 S
H305 C335 0.950 1_655 S
C306 H288 0.951 . S
C306 C307 1.366 1_455 S
C306 C308 1.388 . S
C307 C306 1.366 1_655 S
C307 C311 1.385 . S
C308 H289 0.951 . S
C308 C306 1.388 . S
C308 C309 1.366 . S
C309 C308 1.366 . S
C309 C310 1.414 1_455 S
C309 C312 1.499 . S
C310 H290 0.950 . S
C310 C309 1.414 1_655 S
C310 C311 1.374 . S
C311 H291 0.950 . S
C311 C307 1.385 . S
C311 C310 1.374 . S
C312 C309 1.499 . S
C312 C313 1.373 . S
C312 C314 1.389 . S
C313 H292 0.950 . S
C313 C312 1.373 . S
C313 C329 1.377 . S
C314 C312 1.389 . S
C314 C315 1.524 . S
C314 C328 1.377 . S
C315 C314 1.524 . S
C315 C316 1.397 . S
C315 C320 1.363 . S
C316 H293 0.950 . S
C316 C315 1.397 . S
C316 C317 1.334 . S
C317 H294 0.950 1_455 S
C317 C316 1.334 . S
C317 C318 1.287 . S
C318 C317 1.287 . S
C318 C319 1.524 . S
C318 H337 0.913 . S
C319 H295 0.950 . S
C319 C318 1.524 . S
C319 C320 1.415 . S
C320 H296 0.950 . S
C320 C315 1.363 . S
C320 C319 1.415 . S
C321 H297 0.951 . S
C321 C322 1.366 . S
C321 C323 1.388 . S
C322 C321 1.366 . S
C322 C326 1.385 . S
C323 H298 0.951 . S
C323 C321 1.388 . S
C323 C324 1.366 . S
C324 C323 1.366 . S
C324 C325 1.414 . S
C324 C327 1.499 . S
C325 H299 0.950 . S
C325 C324 1.414 . S
C325 C326 1.374 . S
C326 H300 0.950 . S
C326 C322 1.385 . S
C326 C325 1.374 . S
C327 C324 1.499 . S
C327 C328 1.373 . S
C327 C329 1.389 . S
C328 H301 0.950 . S
C328 C314 1.377 . S
C328 C327 1.373 . S
C329 C313 1.377 . S
C329 C327 1.389 . S
C329 C330 1.524 . S
C330 C329 1.524 . S
C330 C331 1.397 . S
C330 C335 1.363 . S
C331 H302 0.950 . S
C331 C330 1.397 . S
C331 C332 1.334 . S
C332 H303 0.950 . S
C332 C331 1.334 . S
C332 C333 1.287 . S
C333 C332 1.287 . S
C333 C334 1.524 . S
C333 H336 0.999 . S
C334 H304 0.950 1_455 S
C334 C333 1.524 . S
C334 C335 1.415 . S
C335 H305 0.950 1_455 S
C335 C330 1.363 . S
C335 C334 1.415 . S
H336 C333 0.999 . S
H337 C318 0.913 . S
H338 C356 0.951 . S
H339 C358 0.951 . S
H340 C360 0.950 . S
H341 C361 0.950 . S
H342 C363 0.950 . S
H343 C366 0.950 . S
H344 C367 0.950 . S
H345 C369 0.950 . S
H346 C370 0.950 . S
H347 C371 0.951 . S
H348 C373 0.951 . S
H349 C375 0.950 . S
H350 C376 0.950 . S
H351 C378 0.950 . S
H352 C381 0.950 . S
H353 C382 0.950 . S
H354 C384 0.950 . S
H355 C385 0.950 . S
C356 H338 0.951 . S
C356 C357 1.366 . S
C356 C358 1.388 . S
C357 C356 1.366 . S
C357 C361 1.385 . S
C358 H339 0.951 . S
C358 C356 1.388 . S
C358 C359 1.366 . S
C359 C358 1.366 . S
C359 C360 1.414 . S
C359 C362 1.499 . S
C360 H340 0.950 . S
C360 C359 1.414 . S
C360 C361 1.374 . S
C361 H341 0.950 . S
C361 C357 1.385 . S
C361 C360 1.374 . S
C362 C359 1.499 . S
C362 C363 1.373 . S
C362 C364 1.389 . S
C363 H342 0.950 . S
C363 C362 1.373 . S
C363 C379 1.377 . S
C364 C362 1.389 . S
C364 C365 1.524 . S
C364 C378 1.377 . S
C365 C364 1.524 . S
C365 C366 1.397 . S
C365 C370 1.363 . S
C366 H343 0.950 . S
C366 C365 1.397 . S
C366 C367 1.334 . S
C367 H344 0.950 . S
C367 C366 1.334 . S
C367 C368 1.287 . S
C368 C367 1.287 . S
C368 C369 1.524 . S
C368 H387 0.913 . S
C369 H345 0.950 . S
C369 C368 1.524 . S
C369 C370 1.415 . S
C370 H346 0.950 . S
C370 C365 1.363 . S
C370 C369 1.415 . S
C371 H347 0.951 . S
C371 C372 1.366 . S
C371 C373 1.388 . S
C372 C371 1.366 . S
C372 C376 1.385 . S
C373 H348 0.951 . S
C373 C371 1.388 . S
C373 C374 1.366 . S
C374 C373 1.366 . S
C374 C375 1.414 . S
C374 C377 1.499 . S
C375 H349 0.950 . S
C375 C374 1.414 . S
C375 C376 1.374 . S
C376 H350 0.950 . S
C376 C372 1.385 . S
C376 C375 1.374 . S
C377 C374 1.499 . S
C377 C378 1.373 . S
C377 C379 1.389 . S
C378 H351 0.950 . S
C378 C364 1.377 . S
C378 C377 1.373 . S
C379 C363 1.377 . S
C379 C377 1.389 . S
C379 C380 1.524 . S
C380 C379 1.524 . S
C380 C381 1.397 . S
C380 C385 1.363 . S
C381 H352 0.950 . S
C381 C380 1.397 . S
C381 C382 1.334 . S
C382 H353 0.950 . S
C382 C381 1.334 . S
C382 C383 1.287 . S
C383 C382 1.287 . S
C383 C384 1.524 . S
C383 H386 0.999 . S
C384 H354 0.950 . S
C384 C383 1.524 . S
C384 C385 1.415 . S
C385 H355 0.950 . S
C385 C380 1.363 . S
C385 C384 1.415 . S
H386 C383 0.999 . S
H387 C368 0.913 . S
H388 C406 0.951 . S
H389 C408 0.951 . S
H390 C410 0.950 . S
H391 C411 0.950 . S
H392 C413 0.950 . S
H393 C416 0.950 . S
H394 C417 0.950 . S
H395 C419 0.950 . S
H396 C420 0.950 . S
H397 C421 0.951 . S
H398 C423 0.951 . S
H399 C425 0.950 . S
H400 C426 0.950 . S
H401 C428 0.950 . S
H402 C431 0.950 . S
H403 C432 0.950 . S
H404 C434 0.950 . S
H405 C435 0.950 . S
C406 H388 0.951 . S
C406 C407 1.366 . S
C406 C408 1.388 . S
C407 C406 1.366 . S
C407 C411 1.385 1_455 S
C408 H389 0.951 . S
C408 C406 1.388 . S
C408 C409 1.366 1_455 S
C409 C408 1.366 1_655 S
C409 C410 1.414 . S
C409 C412 1.499 . S
C410 H390 0.950 . S
C410 C409 1.414 . S
C410 C411 1.374 . S
C411 H391 0.950 . S
C411 C407 1.385 1_655 S
C411 C410 1.374 . S
C412 C409 1.499 . S
C412 C413 1.373 . S
C412 C414 1.389 . S
C413 H392 0.950 . S
C413 C412 1.373 . S
C413 C429 1.377 . S
C414 C412 1.389 . S
C414 C415 1.524 1_655 S
C414 C428 1.377 . S
C415 C414 1.524 1_455 S
C415 C416 1.397 . S
C415 C420 1.363 . S
C416 H393 0.950 . S
C416 C415 1.397 . S
C416 C417 1.334 . S
C417 H394 0.950 . S
C417 C416 1.334 . S
C417 C418 1.287 . S
C418 C417 1.287 . S
C418 C419 1.524 . S
C418 H437 0.913 . S
C419 H395 0.950 . S
C419 C418 1.524 . S
C419 C420 1.415 . S
C420 H396 0.950 . S
C420 C415 1.363 . S
C420 C419 1.415 . S
C421 H397 0.951 . S
C421 C422 1.366 . S
C421 C423 1.388 . S
C422 C421 1.366 . S
C422 C426 1.385 . S
C423 H398 0.951 . S
C423 C421 1.388 . S
C423 C424 1.366 . S
C424 C423 1.366 . S
C424 C425 1.414 . S
C424 C427 1.499 . S
C425 H399 0.950 . S
C425 C424 1.414 . S
C425 C426 1.374 . S
C426 H400 0.950 . S
C426 C422 1.385 . S
C426 C425 1.374 . S
C427 C424 1.499 . S
C427 C428 1.373 . S
C427 C429 1.389 . S
C428 H401 0.950 . S
C428 C414 1.377 . S
C428 C427 1.373 . S
C429 C413 1.377 . S
C429 C427 1.389 . S
C429 C430 1.524 . S
C430 C429 1.524 . S
C430 C431 1.397 . S
C430 C435 1.363 . S
C431 H402 0.950 . S
C431 C430 1.397 . S
C431 C432 1.334 . S
C432 H403 0.950 . S
C432 C431 1.334 . S
C432 C433 1.287 . S
C433 C432 1.287 . S
C433 C434 1.524 . S
C433 H436 0.999 . S
C434 H404 0.950 . S
C434 C433 1.524 . S
C434 C435 1.415 . S
C435 H405 0.950 . S
C435 C430 1.363 . S
C435 C434 1.415 . S
H436 C433 0.999 . S
H437 C418 0.913 . S
H438 C456 0.951 . S
H439 C458 0.951 . S
H440 C460 0.950 . S
H441 C461 0.950 . S
H442 C463 0.950 . S
H443 C466 0.950 . S
H444 C467 0.950 . S
H445 C469 0.950 . S
H446 C470 0.950 . S
H447 C471 0.951 . S
H448 C473 0.951 . S
H449 C475 0.950 . S
H450 C476 0.950 . S
H451 C478 0.950 . S
H452 C481 0.950 . S
H453 C482 0.950 . S
H454 C484 0.950 . S
H455 C485 0.950 . S
C456 H438 0.951 . S
C456 C457 1.366 . S
C456 C458 1.388 . S
C457 C456 1.366 . S
C457 C461 1.385 . S
C458 H439 0.951 . S
C458 C456 1.388 . S
C458 C459 1.366 . S
C459 C458 1.366 . S
C459 C460 1.414 . S
C459 C462 1.499 . S
C460 H440 0.950 . S
C460 C459 1.414 . S
C460 C461 1.374 . S
C461 H441 0.950 . S
C461 C457 1.385 . S
C461 C460 1.374 . S
C462 C459 1.499 . S
C462 C463 1.373 . S
C462 C464 1.389 . S
C463 H442 0.950 . S
C463 C462 1.373 . S
C463 C479 1.377 . S
C464 C462 1.389 . S
C464 C465 1.524 . S
C464 C478 1.377 . S
C465 C464 1.524 . S
C465 C466 1.397 . S
C465 C470 1.363 . S
C466 H443 0.950 . S
C466 C465 1.397 . S
C466 C467 1.334 . S
C467 H444 0.950 . S
C467 C466 1.334 . S
C467 C468 1.287 . S
C468 C467 1.287 . S
C468 C469 1.524 . S
C468 H487 0.913 . S
C469 H445 0.950 . S
C469 C468 1.524 . S
C469 C470 1.415 . S
C470 H446 0.950 . S
C470 C465 1.363 . S
C470 C469 1.415 . S
C471 H447 0.951 . S
C471 C472 1.366 . S
C471 C473 1.388 . S
C472 C471 1.366 . S
C472 C476 1.385 . S
C473 H448 0.951 . S
C473 C471 1.388 . S
C473 C474 1.366 . S
C474 C473 1.366 . S
C474 C475 1.414 . S
C474 C477 1.499 . S
C475 H449 0.950 . S
C475 C474 1.414 . S
C475 C476 1.374 . S
C476 H450 0.950 . S
C476 C472 1.385 . S
C476 C475 1.374 . S
C477 C474 1.499 . S
C477 C478 1.373 . S
C477 C479 1.389 . S
C478 H451 0.950 . S
C478 C464 1.377 . S
C478 C477 1.373 . S
C479 C463 1.377 . S
C479 C477 1.389 . S
C479 C480 1.524 . S
C480 C479 1.524 . S
C480 C481 1.397 . S
C480 C485 1.363 . S
C481 H452 0.950 . S
C481 C480 1.397 . S
C481 C482 1.334 . S
C482 H453 0.950 . S
C482 C481 1.334 . S
C482 C483 1.287 . S
C483 C482 1.287 . S
C483 C484 1.524 . S
C483 H486 0.999 . S
C484 H454 0.950 . S
C484 C483 1.524 . S
C484 C485 1.415 . S
C485 H455 0.950 . S
C485 C480 1.363 . S
C485 C484 1.415 . S
H486 C483 0.999 . S
H487 C468 0.913 . S
H488 C506 0.951 . S
H489 C508 0.951 . S
H490 C510 0.950 . S
H491 C511 0.950 . S
H492 C513 0.950 . S
H493 C516 0.950 . S
H494 C517 0.950 . S
H495 C519 0.950 . S
H496 C520 0.950 . S
H497 C521 0.951 . S
H498 C523 0.951 . S
H499 C525 0.950 . S
H500 C526 0.950 . S
H501 C528 0.950 . S
H502 C531 0.950 . S
H503 C532 0.950 . S
H504 C534 0.950 . S
H505 C535 0.950 . S
C506 H488 0.951 . S
C506 C507 1.366 . S
C506 C508 1.388 . S
C507 C506 1.366 . S
C507 C511 1.385 . S
C508 H489 0.951 . S
C508 C506 1.388 . S
C508 C509 1.366 . S
C509 C508 1.366 . S
C509 C510 1.414 . S
C509 C512 1.499 . S
C510 H490 0.950 . S
C510 C509 1.414 . S
C510 C511 1.374 . S
C511 H491 0.950 . S
C511 C507 1.385 . S
C511 C510 1.374 . S
C512 C509 1.499 . S
C512 C513 1.373 . S
C512 C514 1.389 . S
C513 H492 0.950 . S
C513 C512 1.373 . S
C513 C529 1.377 . S
C514 C512 1.389 . S
C514 C515 1.524 . S
C514 C528 1.377 . S
C515 C514 1.524 . S
C515 C516 1.397 . S
C515 C520 1.363 . S
C516 H493 0.950 . S
C516 C515 1.397 . S
C516 C517 1.334 . S
C517 H494 0.950 . S
C517 C516 1.334 . S
C517 C518 1.287 . S
C518 C517 1.287 . S
C518 C519 1.524 . S
C518 H537 0.913 . S
C519 H495 0.950 . S
C519 C518 1.524 . S
C519 C520 1.415 . S
C520 H496 0.950 . S
C520 C515 1.363 . S
C520 C519 1.415 . S
C521 H497 0.951 . S
C521 C522 1.366 . S
C521 C523 1.388 . S
C522 C521 1.366 . S
C522 C526 1.385 . S
C523 H498 0.951 . S
C523 C521 1.388 . S
C523 C524 1.366 . S
C524 C523 1.366 . S
C524 C525 1.414 . S
C524 C527 1.499 . S
C525 H499 0.950 . S
C525 C524 1.414 . S
C525 C526 1.374 . S
C526 H500 0.950 . S
C526 C522 1.385 . S
C526 C525 1.374 . S
C527 C524 1.499 . S
C527 C528 1.373 . S
C527 C529 1.389 . S
C528 H501 0.950 . S
C528 C514 1.377 . S
C528 C527 1.373 . S
C529 C513 1.377 . S
C529 C527 1.389 . S
C529 C530 1.524 . S
C530 C529 1.524 . S
C530 C531 1.397 . S
C530 C535 1.363 . S
C531 H502 0.950 . S
C531 C530 1.397 . S
C531 C532 1.334 . S
C532 H503 0.950 . S
C532 C531 1.334 . S
C532 C533 1.287 . S
C533 C532 1.287 . S
C533 C534 1.524 . S
C533 H536 0.999 . S
C534 H504 0.950 . S
C534 C533 1.524 . S
C534 C535 1.415 . S
C535 H505 0.950 . S
C535 C530 1.363 . S
C535 C534 1.415 . S
H536 C533 0.999 . S
H537 C518 0.913 . S
H538 C556 0.951 . S
H539 C558 0.951 1_556 S
H540 C560 0.950 . S
H541 C561 0.950 . S
H542 C563 0.950 . S
H543 C566 0.950 . S
H544 C567 0.950 . S
H545 C569 0.950 . S
H546 C570 0.950 . S
H547 C571 0.951 . S
H548 C573 0.951 . S
H549 C575 0.950 . S
H550 C576 0.950 . S
H551 C578 0.950 . S
H552 C581 0.950 . S
H553 C582 0.950 . S
H554 C584 0.950 1_554 S
H555 C585 0.950 . S
C556 H538 0.951 . S
C556 C557 1.366 . S
C556 C558 1.388 . S
C557 C556 1.366 . S
C557 C561 1.385 . S
C558 H539 0.951 1_554 S
C558 C556 1.388 . S
C558 C559 1.366 . S
C559 C558 1.366 . S
C559 C560 1.414 . S
C559 C562 1.499 . S
C560 H540 0.950 . S
C560 C559 1.414 . S
C560 C561 1.374 . S
C561 H541 0.950 . S
C561 C557 1.385 . S
C561 C560 1.374 . S
C562 C559 1.499 . S
C562 C563 1.373 . S
C562 C564 1.389 1_554 S
C563 H542 0.950 . S
C563 C562 1.373 . S
C563 C579 1.377 1_554 S
C564 C562 1.389 1_556 S
C564 C565 1.524 . S
C564 C578 1.377 . S
C565 C564 1.524 . S
C565 C566 1.397 1_556 S
C565 C570 1.363 . S
C566 H543 0.950 . S
C566 C565 1.397 1_554 S
C566 C567 1.334 . S
C567 H544 0.950 . S
C567 C566 1.334 . S
C567 C568 1.287 . S
C568 C567 1.287 . S
C568 C569 1.524 1_554 S
C568 H587 0.913 . S
C569 H545 0.950 . S
C569 C568 1.524 1_556 S
C569 C570 1.415 . S
C570 H546 0.950 . S
C570 C565 1.363 . S
C570 C569 1.415 . S
C571 H547 0.951 . S
C571 C572 1.366 . S
C571 C573 1.388 . S
C572 C571 1.366 . S
C572 C576 1.385 . S
C573 H548 0.951 . S
C573 C571 1.388 . S
C573 C574 1.366 . S
C574 C573 1.366 . S
C574 C575 1.414 . S
C574 C577 1.499 . S
C575 H549 0.950 . S
C575 C574 1.414 . S
C575 C576 1.374 . S
C576 H550 0.950 . S
C576 C572 1.385 . S
C576 C575 1.374 . S
C577 C574 1.499 . S
C577 C578 1.373 . S
C577 C579 1.389 . S
C578 H551 0.950 . S
C578 C564 1.377 . S
C578 C577 1.373 . S
C579 C563 1.377 1_556 S
C579 C577 1.389 . S
C579 C580 1.524 . S
C580 C579 1.524 . S
C580 C581 1.397 . S
C580 C585 1.363 1_556 S
C581 H552 0.950 . S
C581 C580 1.397 . S
C581 C582 1.334 . S
C582 H553 0.950 . S
C582 C581 1.334 . S
C582 C583 1.287 . S
C583 C582 1.287 . S
C583 C584 1.524 . S
C583 H586 0.999 . S
C584 H554 0.950 1_556 S
C584 C583 1.524 . S
C584 C585 1.415 1_556 S
C585 H555 0.950 . S
C585 C580 1.363 1_554 S
C585 C584 1.415 1_554 S
H586 C583 0.999 . S
H587 C568 0.913 . S
H588 C606 0.951 . S
H589 C608 0.951 . S
H590 C610 0.950 . S
H591 C611 0.950 . S
H592 C613 0.950 . S
H593 C616 0.950 . S
H594 C617 0.950 . S
H595 C619 0.950 . S
H596 C620 0.950 . S
H597 C621 0.951 . S
H598 C623 0.951 . S
H599 C625 0.950 . S
H600 C626 0.950 . S
H601 C628 0.950 . S
H602 C631 0.950 . S
H603 C632 0.950 . S
H604 C634 0.930 1_455 S
H605 C635 0.950 . S
C606 H588 0.951 . S
C606 C607 1.366 . S
C606 C608 1.388 . S
C607 C606 1.366 . S
C607 C611 1.385 . S
C608 H589 0.951 . S
C608 C606 1.388 . S
C608 C609 1.366 . S
C609 C608 1.366 . S
C609 C610 1.414 . S
C609 C612 1.499 . S
C610 H590 0.950 . S
C610 C609 1.414 . S
C610 C611 1.374 . S
C611 H591 0.950 . S
C611 C607 1.385 . S
C611 C610 1.374 . S
C612 C609 1.499 . S
C612 C613 1.373 . S
C612 C614 1.389 . S
C613 H592 0.950 . S
C613 C612 1.373 . S
C613 C629 1.377 . S
C614 C612 1.389 . S
C614 C615 1.524 . S
C614 C628 1.377 . S
C615 C614 1.524 . S
C615 C616 1.397 . S
C615 C620 1.363 . S
C616 H593 0.950 . S
C616 C615 1.397 . S
C616 C617 1.334 . S
C617 H594 0.950 . S
C617 C616 1.334 . S
C617 C618 1.287 . S
C618 C617 1.287 . S
C618 C619 1.524 . S
C618 H637 0.913 . S
C619 H595 0.950 . S
C619 C618 1.524 . S
C619 C620 1.415 . S
C620 H596 0.950 . S
C620 C615 1.363 . S
C620 C619 1.415 . S
C621 H597 0.951 . S
C621 C622 1.366 . S
C621 C623 1.388 . S
C622 C621 1.366 . S
C622 C626 1.385 . S
C623 H598 0.951 . S
C623 C621 1.388 . S
C623 C624 1.366 . S
C624 C623 1.366 . S
C624 C625 1.414 . S
C624 C627 1.499 . S
C625 H599 0.950 . S
C625 C624 1.414 . S
C625 C626 1.374 . S
C626 H600 0.950 . S
C626 C622 1.385 . S
C626 C625 1.374 . S
C627 C624 1.499 . S
C627 C628 1.373 . S
C627 C629 1.389 . S
C628 H601 0.950 . S
C628 C614 1.377 . S
C628 C627 1.373 . S
C629 C613 1.377 . S
C629 C627 1.389 . S
C629 C630 1.524 . S
C630 C629 1.524 . S
C630 C631 1.397 . S
C630 C635 1.363 . S
C631 H602 0.950 . S
C631 C630 1.397 . S
C631 C632 1.334 . S
C632 H603 0.950 . S
C632 C631 1.334 . S
C632 C633 1.287 . S
C633 C632 1.287 . S
C633 C634 1.524 . S
C633 H636 0.999 1_655 S
C634 H604 0.930 1_655 S
C634 C633 1.524 . S
C634 C635 1.415 . S
C635 H605 0.950 . S
C635 C630 1.363 . S
C635 C634 1.415 . S
H636 C633 0.999 1_455 S
H637 C618 0.913 . S
H638 C656 0.951 . S
H639 C658 0.951 . S
H640 C660 0.950 . S
H641 C661 0.950 . S
H642 C663 0.950 . S
H643 C666 0.950 . S
H644 C667 0.950 . S
H645 C669 0.950 . S
H646 C670 0.950 . S
H647 C671 0.951 . S
H648 C673 0.951 . S
H649 C675 0.950 . S
H650 C676 0.950 . S
H651 C678 0.950 . S
H652 C681 0.950 . S
H653 C682 0.950 . S
H654 C684 0.950 . S
H655 C685 0.950 . S
C656 H638 0.951 . S
C656 C657 1.366 . S
C656 C658 1.388 . S
C657 C656 1.366 . S
C657 C661 1.385 . S
C658 H639 0.951 . S
C658 C656 1.388 . S
C658 C659 1.366 . S
C659 C658 1.366 . S
C659 C660 1.414 . S
C659 C662 1.499 . S
C660 H640 0.950 . S
C660 C659 1.414 . S
C660 C661 1.374 . S
C661 H641 0.950 . S
C661 C657 1.385 . S
C661 C660 1.374 . S
C662 C659 1.499 . S
C662 C663 1.373 . S
C662 C664 1.389 . S
C663 H642 0.950 . S
C663 C662 1.373 . S
C663 C679 1.377 . S
C664 C662 1.389 . S
C664 C665 1.524 . S
C664 C678 1.377 . S
C665 C664 1.524 . S
C665 C666 1.397 . S
C665 C670 1.363 . S
C666 H643 0.950 . S
C666 C665 1.397 . S
C666 C667 1.334 . S
C667 H644 0.950 . S
C667 C666 1.334 . S
C667 C668 1.287 . S
C668 C667 1.287 . S
C668 C669 1.524 . S
C668 H687 0.913 . S
C669 H645 0.950 . S
C669 C668 1.524 . S
C669 C670 1.415 . S
C670 H646 0.950 . S
C670 C665 1.363 . S
C670 C669 1.415 . S
C671 H647 0.951 . S
C671 C672 1.366 . S
C671 C673 1.388 . S
C672 C671 1.366 . S
C672 C676 1.385 . S
C673 H648 0.951 . S
C673 C671 1.388 . S
C673 C674 1.366 . S
C674 C673 1.366 . S
C674 C675 1.414 . S
C674 C677 1.499 . S
C675 H649 0.950 . S
C675 C674 1.414 . S
C675 C676 1.374 . S
C676 H650 0.950 . S
C676 C672 1.385 . S
C676 C675 1.374 . S
C677 C674 1.499 . S
C677 C678 1.373 . S
C677 C679 1.389 . S
C678 H651 0.950 . S
C678 C664 1.377 . S
C678 C677 1.373 . S
C679 C663 1.377 . S
C679 C677 1.389 . S
C679 C680 1.524 . S
C680 C679 1.524 . S
C680 C681 1.397 . S
C680 C685 1.363 . S
C681 H652 0.950 . S
C681 C680 1.397 . S
C681 C682 1.334 . S
C682 H653 0.950 . S
C682 C681 1.334 . S
C682 C683 1.287 . S
C683 C682 1.287 . S
C683 C684 1.524 . S
C683 H686 0.999 . S
C684 H654 0.950 . S
C684 C683 1.524 . S
C684 C685 1.415 . S
C685 H655 0.950 . S
C685 C680 1.363 . S
C685 C684 1.415 . S
H686 C683 0.999 . S
H687 C668 0.913 . S
C107 C19 1.574 . S
C122 C8 1.599 . S
C157 C18 1.501 . S
C172 C27 1.287 . S
C207 C29 1.471 . S
C222 C41 1.519 . S
C257 C7 1.530 . S
C272 C38 1.308 . S
C307 C63 1.574 . S
C322 C5 1.434 . S
C357 C40 1.500 . S
C372 C49 1.280 . S
C407 C16 1.283 . S
C422 C73 1.499 . S
C457 C82 1.434 . S
C472 C30 1.574 . S
C507 C85 1.599 . S
C522 C52 1.573 . S
C557 C60 1.286 . S
C572 C51 1.501 . S
C607 C62 1.471 . S
C622 C74 1.519 . S
C657 C71 1.310 . S
C672 C84 1.529 . S
