# Generated by pormake.
# Topology whz, (6)-cn, num edge types: 1
# Building blocks:
#     Node 0, Type 0, BuildingBlock: CUKXOW_clean_sbu_0, # of connection points: 6
#     Node 1, Type 0, BuildingBlock: CUKXOW_clean_sbu_0, # of connection points: 6
#     Node 2, Type 0, BuildingBlock: CUKXOW_clean_sbu_0, # of connection points: 6
#     Node 3, Type 0, BuildingBlock: CUKXOW_clean_sbu_0, # of connection points: 6
#     Node 4, Type 0, BuildingBlock: CUKXOW_clean_sbu_0, # of connection points: 6
#     Node 5, Type 0, BuildingBlock: CUKXOW_clean_sbu_0, # of connection points: 6
#     Node 6, Type 0, BuildingBlock: CUKXOW_clean_sbu_0, # of connection points: 6
#     Node 7, Type 0, BuildingBlock: CUKXOW_clean_sbu_0, # of connection points: 6
#     Node 8, Type 0, BuildingBlock: CUKXOW_clean_sbu_0, # of connection points: 6
#     Node 9, Type 0, BuildingBlock: CUKXOW_clean_sbu_0, # of connection points: 6
#     Node 10, Type 0, BuildingBlock: CUKXOW_clean_sbu_0, # of connection points: 6
#     Node 11, Type 0, BuildingBlock: CUKXOW_clean_sbu_0, # of connection points: 6
#     Node 12, Type 0, BuildingBlock: CUKXOW_clean_sbu_0, # of connection points: 6
#     Node 13, Type 0, BuildingBlock: CUKXOW_clean_sbu_0, # of connection points: 6
#     Node 14, Type 0, BuildingBlock: CUKXOW_clean_sbu_0, # of connection points: 6
#     Node 15, Type 0, BuildingBlock: CUKXOW_clean_sbu_0, # of connection points: 6
#     Edge 16, Type (0, 0), None
#     Edge 17, Type (0, 0), None
#     Edge 18, Type (0, 0), None
#     Edge 19, Type (0, 0), None
#     Edge 20, Type (0, 0), None
#     Edge 21, Type (0, 0), None
#     Edge 22, Type (0, 0), None
#     Edge 23, Type (0, 0), None
#     Edge 24, Type (0, 0), None
#     Edge 25, Type (0, 0), None
#     Edge 26, Type (0, 0), None
#     Edge 27, Type (0, 0), None
#     Edge 28, Type (0, 0), None
#     Edge 29, Type (0, 0), None
#     Edge 30, Type (0, 0), None
#     Edge 31, Type (0, 0), None
#     Edge 32, Type (0, 0), None
#     Edge 33, Type (0, 0), None
#     Edge 34, Type (0, 0), None
#     Edge 35, Type (0, 0), None
#     Edge 36, Type (0, 0), None
#     Edge 37, Type (0, 0), None
#     Edge 38, Type (0, 0), None
#     Edge 39, Type (0, 0), None
#     Edge 40, Type (0, 0), None
#     Edge 41, Type (0, 0), None
#     Edge 42, Type (0, 0), None
#     Edge 43, Type (0, 0), None
#     Edge 44, Type (0, 0), None
#     Edge 45, Type (0, 0), None
#     Edge 46, Type (0, 0), None
#     Edge 47, Type (0, 0), None
#     Edge 48, Type (0, 0), None
#     Edge 49, Type (0, 0), None
#     Edge 50, Type (0, 0), None
#     Edge 51, Type (0, 0), None
#     Edge 52, Type (0, 0), None
#     Edge 53, Type (0, 0), None
#     Edge 54, Type (0, 0), None
#     Edge 55, Type (0, 0), None
#     Edge 56, Type (0, 0), None
#     Edge 57, Type (0, 0), None
#     Edge 58, Type (0, 0), None
#     Edge 59, Type (0, 0), None
#     Edge 60, Type (0, 0), None
#     Edge 61, Type (0, 0), None
#     Edge 62, Type (0, 0), None
#     Edge 63, Type (0, 0), None
# Relax obj value: 0.203
# Max RMSD: 0.249
# Mean RMSD: 0.249
data_MOF--net-whz--node1-CUKXOW_clean_sbu_0--edge1-none
_symmetry_space_group_name_H-M    P1
_symmetry_Int_Tables_number       1
_symmetry_cell_setting            triclinic
loop_
_symmetry_equiv_pos_as_xyz
'x, y, z'
_cell_length_a     18.977307
_cell_length_b     18.977267
_cell_length_c     20.039399
_cell_angle_alpha  90.0
_cell_angle_beta   90.0
_cell_angle_gamma 90.000077
loop_
_atom_site_label
_atom_site_type_symbol
_atom_site_fract_x
_atom_site_fract_y
_atom_site_fract_z
_atom_type_partial_charge
Tb0 Tb 0.35429 0.15963 0.20717 0.0
C1 C 0.23207 0.25248 0.15484 0.0
Tb2 Tb 0.19817 0.11784 0.23735 0.0
O3 O 0.33628 0.13808 0.09914 0.0
O4 O 0.2783 0.08696 0.17108 0.0
O5 O 0.2963 0.2514 0.17901 0.0
C6 C 0.07237 0.05823 0.23978 0.0
O7 O 0.18829 0.19796 0.15893 0.0
C8 C 0.24326 0.22301 0.30544 0.0
C9 C 0.32241 0.03328 0.30982 0.0
O10 O 0.08729 0.11763 0.26767 0.0
O11 O 0.12794 0.03234 0.2111 0.0
O12 O 0.17708 0.21247 0.29404 0.0
O13 O 0.27989 0.17114 0.28607 0.0
O14 O 0.25317 0.04507 0.30496 0.0
O15 O 0.37119 0.07075 0.27688 0.0
C16 C 0.47445 0.23485 0.21252 0.0
O17 O 0.47058 0.16699 0.20114 0.0
O18 O 0.41152 0.25895 0.22193 0.0
C19 C 0.28346 0.09579 0.10937 0.0
Tb20 Tb 0.60389 0.60429 0.45719 0.0
C21 C 0.51105 0.48207 0.40482 0.0
Tb22 Tb 0.64566 0.44816 0.48737 0.0
O23 O 0.62546 0.58629 0.34916 0.0
O24 O 0.67656 0.5283 0.42111 0.0
O25 O 0.51212 0.5463 0.429 0.0
C26 C 0.70528 0.32237 0.48976 0.0
O27 O 0.56557 0.43829 0.40892 0.0
C28 C 0.54047 0.49324 0.55542 0.0
C29 C 0.73023 0.57238 0.55986 0.0
O30 O 0.64591 0.33729 0.51772 0.0
O31 O 0.73113 0.37792 0.46104 0.0
O32 O 0.55101 0.42706 0.54402 0.0
O33 O 0.59235 0.52988 0.53608 0.0
O34 O 0.71844 0.50314 0.55498 0.0
O35 O 0.69276 0.62117 0.52691 0.0
C36 C 0.52869 0.72445 0.46254 0.0
O37 O 0.59654 0.72058 0.45117 0.0
O38 O 0.50458 0.66153 0.47195 0.0
C39 C 0.66774 0.53347 0.35939 0.0
Tb40 Tb 0.15924 0.8539 0.70717 0.0
C41 C 0.28145 0.76105 0.65484 0.0
Tb42 Tb 0.31535 0.89569 0.73735 0.0
O43 O 0.17725 0.87545 0.59914 0.0
O44 O 0.23522 0.92657 0.67108 0.0
O45 O 0.21722 0.76212 0.67901 0.0
C46 C 0.44115 0.9553 0.73978 0.0
O47 O 0.32524 0.81557 0.65893 0.0
C48 C 0.27027 0.79052 0.80544 0.0
C49 C 0.19111 0.98025 0.80982 0.0
O50 O 0.42623 0.8959 0.76767 0.0
O51 O 0.38559 0.98119 0.7111 0.0
O52 O 0.33645 0.80106 0.79404 0.0
O53 O 0.23363 0.84239 0.78607 0.0
O54 O 0.26036 0.96846 0.80496 0.0
O55 O 0.14233 0.94278 0.77688 0.0
C56 C 0.03908 0.77868 0.71252 0.0
O57 O 0.04294 0.84654 0.70114 0.0
O58 O 0.102 0.75458 0.72193 0.0
C59 C 0.23006 0.91774 0.60937 0.0
Tb60 Tb 0.90964 0.40924 0.95719 0.0
C61 C 1.00248 0.53145 0.90482 0.0
Tb62 Tb 0.86786 0.56536 0.98737 0.0
O63 O 0.88807 0.42724 0.84916 0.0
O64 O 0.83697 0.48523 0.92111 0.0
O65 O 1.0014 0.46723 0.929 0.0
C66 C 0.80825 0.69116 0.98976 0.0
O67 O 0.94796 0.57524 0.90892 0.0
C68 C 0.97306 0.52028 1.05542 0.0
C69 C 0.7833 0.44115 1.05986 0.0
O70 O 0.86761 0.67624 1.01772 0.0
O71 O 0.7824 0.6356 0.96104 0.0
O72 O 0.96252 0.58646 1.04402 0.0
O73 O 0.92118 0.48365 1.03608 0.0
O74 O 0.79509 0.51039 1.05498 0.0
O75 O 0.82076 0.39236 1.02691 0.0
C76 C 0.98484 0.28908 0.96254 0.0
O77 O 0.91698 0.29295 0.95117 0.0
O78 O 0.00895 0.352 0.97195 0.0
C79 C 0.84579 0.48006 0.85939 0.0
Tb80 Tb 0.81542 0.89545 0.89436 0.0
C81 C 0.69132 0.98001 0.8216 0.0
Tb82 Tb 0.65925 0.8539 0.92443 0.0
O83 O 0.83669 0.80069 0.83805 0.0
O84 O 0.73368 0.84204 0.84551 0.0
O85 O 0.76056 0.96822 0.8266 0.0
C86 C 0.53908 0.77868 0.91916 0.0
O87 O 0.64248 0.94263 0.85456 0.0
C88 C 0.73016 0.91796 1.02214 0.0
C89 C 0.7813 0.76102 0.9771 0.0
O90 O 0.54295 0.84656 0.93044 0.0
O91 O 0.60201 0.75456 0.9098 0.0
O92 O 0.6773 0.87575 1.03248 0.0
O93 O 0.7352 0.92644 0.96039 0.0
O94 O 0.71708 0.76212 0.95288 0.0
O95 O 0.82521 0.81541 0.97285 0.0
C96 C 0.9412 0.95508 0.89221 0.0
O97 O 0.92621 0.89603 0.86369 0.0
O98 O 0.88572 0.98064 0.9213 0.0
C99 C 0.77054 0.79018 0.82644 0.0
Tb100 Tb 0.36807 0.56541 0.64433 0.0
C101 C 0.28351 0.44132 0.57158 0.0
Tb102 Tb 0.40961 0.40924 0.67443 0.0
O103 O 0.46287 0.58669 0.5881 0.0
O104 O 0.42152 0.48367 0.59551 0.0
O105 O 0.29527 0.51056 0.5766 0.0
C106 C 0.48484 0.28907 0.66918 0.0
O107 O 0.3209 0.39248 0.60452 0.0
C108 C 0.34553 0.48016 0.77212 0.0
C109 C 0.50252 0.53131 0.72706 0.0
O110 O 0.41696 0.29294 0.68045 0.0
O111 O 0.50895 0.352 0.65981 0.0
O112 O 0.38774 0.4273 0.78247 0.0
O113 O 0.33706 0.48519 0.71036 0.0
O114 O 0.50139 0.46707 0.70291 0.0
O115 O 0.4481 0.57519 0.72282 0.0
C116 C 0.3085 0.69119 0.64239 0.0
O117 O 0.36732 0.67614 0.61347 0.0
O118 O 0.28307 0.63576 0.67165 0.0
C119 C 0.4734 0.52055 0.57652 0.0
Tb120 Tb 0.6981 0.11808 0.39436 0.0
C121 C 0.82221 0.03352 0.3216 0.0
Tb122 Tb 0.85428 0.15963 0.42443 0.0
O123 O 0.67684 0.21284 0.33805 0.0
O124 O 0.77985 0.17149 0.34551 0.0
O125 O 0.75297 0.04531 0.3266 0.0
C126 C 0.97445 0.23485 0.41916 0.0
O127 O 0.87105 0.0709 0.35456 0.0
C128 C 0.78336 0.09557 0.52214 0.0
C129 C 0.73223 0.25251 0.4771 0.0
O130 O 0.97058 0.16697 0.43044 0.0
O131 O 0.91152 0.25897 0.4098 0.0
O132 O 0.83623 0.13778 0.53248 0.0
O133 O 0.77832 0.08709 0.46039 0.0
O134 O 0.79644 0.25141 0.45288 0.0
O135 O 0.68832 0.19811 0.47285 0.0
C136 C 0.57232 0.05844 0.39221 0.0
O137 O 0.58731 0.1175 0.36369 0.0
O138 O 0.62781 0.03289 0.4213 0.0
C139 C 0.74298 0.22335 0.32644 0.0
Tb140 Tb 0.14546 0.44811 0.14433 0.0
C141 C 0.23002 0.57221 0.07158 0.0
Tb142 Tb 0.10391 0.60429 0.17443 0.0
O143 O 0.05066 0.42684 0.0881 0.0
O144 O 0.09201 0.52986 0.09551 0.0
O145 O 0.21825 0.50297 0.0766 0.0
C146 C 0.02869 0.72445 0.16918 0.0
O147 O 0.19263 0.62105 0.10452 0.0
C148 C 0.168 0.53337 0.27212 0.0
C149 C 0.011 0.48222 0.22706 0.0
O150 O 0.09657 0.72059 0.18045 0.0
O151 O 1.00457 0.66153 0.15981 0.0
O152 O 0.12579 0.58622 0.28247 0.0
O153 O 0.17647 0.52834 0.21036 0.0
O154 O 0.01213 0.54646 0.20291 0.0
O155 O 0.06542 0.43834 0.22282 0.0
C156 C 0.20502 0.32234 0.14239 0.0
O157 O 0.1462 0.33739 0.11347 0.0
O158 O 0.23046 0.37777 0.17165 0.0
C159 C 0.04012 0.49298 0.07652 0.0
Tb160 Tb 0.85429 0.65961 0.70719 0.0
C161 C 0.73208 0.75248 0.65481 0.0
Tb162 Tb 0.69816 0.61787 0.7374 0.0
O163 O 0.83631 0.63801 0.59916 0.0
O164 O 0.77827 0.58698 0.67113 0.0
O165 O 0.79633 0.75138 0.67893 0.0
C166 C 0.57238 0.55829 0.73962 0.0
O167 O 0.68825 0.698 0.65898 0.0
C168 C 0.74324 0.72312 0.80534 0.0
C169 C 0.82237 0.53327 0.80985 0.0
O170 O 0.58736 0.61742 0.768 0.0
O171 O 0.62788 0.53259 0.71068 0.0
O172 O 0.67705 0.71257 0.79397 0.0
O173 O 0.77988 0.67121 0.78606 0.0
O174 O 0.75313 0.54507 0.80497 0.0
O175 O 0.87117 0.57075 0.77692 0.0
C176 C 0.97445 0.73483 0.71251 0.0
O177 O 0.97059 0.66697 0.70116 0.0
O178 O 0.91153 0.75894 0.72194 0.0
C179 C 0.78341 0.59584 0.60942 0.0
Tb180 Tb 0.1039 0.10429 0.95719 0.0
C181 C 0.01106 0.98209 0.90477 0.0
Tb182 Tb 0.14565 0.94815 0.98738 0.0
O183 O 0.12548 0.08632 0.84915 0.0
O184 O 0.17652 0.02826 0.9211 0.0
O185 O 0.01213 0.04632 0.92896 0.0
C186 C 0.20529 0.82237 0.98979 0.0
O187 O 0.06552 0.93824 0.90896 0.0
C188 C 0.04046 0.99324 1.05541 0.0
C189 C 0.23025 0.07237 1.05983 0.0
O190 O 0.14595 0.83729 1.01778 0.0
O191 O 0.23111 0.87791 0.96102 0.0
O192 O 0.05099 0.92706 1.04401 0.0
O193 O 0.09235 0.02987 1.03607 0.0
O194 O 0.21842 1.00314 1.05497 0.0
O195 O 0.19279 0.12117 1.02689 0.0
C196 C 0.02868 0.22444 0.96253 0.0
O197 O 0.09654 0.22058 0.95117 0.0
O198 O 1.00458 0.16152 0.97195 0.0
C199 C 0.16765 0.03341 0.85939 0.0
Tb200 Tb 0.65923 0.35391 0.20719 0.0
C201 C 0.78145 0.26105 0.15481 0.0
Tb202 Tb 0.81537 0.39566 0.2374 0.0
O203 O 0.67721 0.37552 0.09916 0.0
O204 O 0.73525 0.42655 0.17113 0.0
O205 O 0.7172 0.26215 0.17893 0.0
C206 C 0.94115 0.45524 0.23962 0.0
O207 O 0.82527 0.31553 0.15898 0.0
C208 C 0.77029 0.29041 0.30534 0.0
C209 C 0.69115 0.48026 0.30985 0.0
O210 O 0.92617 0.39611 0.268 0.0
O211 O 0.88565 0.48094 0.21068 0.0
O212 O 0.83647 0.30095 0.29397 0.0
O213 O 0.73364 0.34231 0.28606 0.0
O214 O 0.76039 0.46846 0.30497 0.0
O215 O 0.64236 0.44278 0.27692 0.0
C216 C 0.53908 0.27869 0.21251 0.0
O217 O 0.54294 0.34656 0.20116 0.0
O218 O 0.602 0.25459 0.22194 0.0
C219 C 0.73011 0.41769 0.10942 0.0
Tb220 Tb 0.40963 0.90924 0.45719 0.0
C221 C 0.50247 0.03144 0.40477 0.0
Tb222 Tb 0.36788 0.06538 0.48738 0.0
O223 O 0.38805 0.92721 0.34915 0.0
O224 O 0.337 0.98527 0.4211 0.0
O225 O 0.5014 0.96721 0.42896 0.0
C226 C 0.30823 0.19116 0.48979 0.0
O227 O 0.44801 0.07529 0.40896 0.0
C228 C 0.47307 0.02029 0.55541 0.0
C229 C 0.28328 0.94115 0.55983 0.0
O230 O 0.36758 0.17624 0.51778 0.0
O231 O 0.28242 0.13561 0.46102 0.0
O232 O 0.46254 0.08647 0.54401 0.0
O233 O 0.42118 0.98365 0.53607 0.0
O234 O 0.2951 0.01039 0.55497 0.0
O235 O 0.32074 0.89236 0.52689 0.0
C236 C 0.48484 0.78908 0.46253 0.0
O237 O 0.41698 0.79295 0.45117 0.0
O238 O 0.50895 0.85201 0.47195 0.0
C239 C 0.34588 0.98011 0.35939 0.0
Tb240 Tb 0.31544 0.39542 0.39431 0.0
C241 C 0.19136 0.48002 0.32157 0.0
Tb242 Tb 0.15924 0.35391 0.42441 0.0
O243 O 0.33671 0.30059 0.33812 0.0
O244 O 0.23369 0.34197 0.34551 0.0
O245 O 0.26059 0.46822 0.32659 0.0
C246 C 0.03908 0.27869 0.41917 0.0
O247 O 0.1425 0.44264 0.35451 0.0
C248 C 0.23021 0.4179 0.5221 0.0
C249 C 0.28129 0.26102 0.47713 0.0
O250 O 0.04294 0.34658 0.43043 0.0
O251 O 0.102 0.25458 0.40979 0.0
O252 O 0.17726 0.37582 0.53245 0.0
O253 O 0.23524 0.42642 0.46034 0.0
O254 O 0.21705 0.26214 0.45296 0.0
O255 O 0.32524 0.31537 0.47279 0.0
C256 C 0.4412 0.45502 0.39237 0.0
O257 O 0.42614 0.39625 0.36336 0.0
O258 O 0.38579 0.48038 0.42172 0.0
C259 C 0.27056 0.29007 0.32654 0.0
Tb260 Tb 0.86808 0.06543 0.14433 0.0
C261 C 0.78349 0.94133 0.07161 0.0
Tb262 Tb 0.9096 0.90924 0.17443 0.0
O263 O 0.96289 0.0867 0.0881 0.0
O264 O 0.92152 0.98367 0.09552 0.0
O265 O 0.79529 0.01057 0.07661 0.0
C266 C 0.98484 0.78908 0.16919 0.0
O267 O 0.82088 0.89248 0.10455 0.0
C268 C 0.84562 0.98022 0.27212 0.0
C269 C 1.00252 0.03129 0.22711 0.0
O270 O 0.91696 0.79294 0.18045 0.0
O271 O 0.00895 0.85201 0.15981 0.0
O272 O 0.88772 0.92727 0.28248 0.0
O273 O 0.8371 0.98523 0.21037 0.0
O274 O 1.00139 0.96706 0.20294 0.0
O275 O 0.94815 0.07524 0.22279 0.0
C276 C 0.80849 0.19119 0.14235 0.0
O277 O 0.8673 0.17615 0.11342 0.0
O278 O 0.78308 0.13577 0.17165 0.0
C279 C 0.97341 0.02055 0.07652 0.0
Tb280 Tb 0.19808 0.61811 0.89431 0.0
C281 C 0.32217 0.53351 0.82157 0.0
Tb282 Tb 0.35428 0.65961 0.92441 0.0
O283 O 0.17681 0.71294 0.83812 0.0
O284 O 0.27984 0.67156 0.84551 0.0
O285 O 0.25293 0.54531 0.82659 0.0
C286 C 0.47445 0.73483 0.91917 0.0
O287 O 0.37103 0.57089 0.85451 0.0
C288 C 0.28331 0.59562 1.0221 0.0
C289 C 0.23224 0.75251 0.97713 0.0
O290 O 0.47058 0.66695 0.93043 0.0
O291 O 0.41152 0.75895 0.90979 0.0
O292 O 0.33626 0.63771 1.03245 0.0
O293 O 0.27829 0.5871 0.96034 0.0
O294 O 0.29647 0.75139 0.95296 0.0
O295 O 0.18828 0.69816 0.97279 0.0
C296 C 0.07233 0.55851 0.89237 0.0
O297 O 0.08738 0.61728 0.86336 0.0
O298 O 0.12774 0.53315 0.92172 0.0
C299 C 0.24296 0.72346 0.82654 0.0
Tb300 Tb 0.64544 0.94809 0.64433 0.0
C301 C 0.73003 0.0722 0.57161 0.0
Tb302 Tb 0.60392 0.10429 0.67443 0.0
O303 O 0.55064 0.92683 0.5881 0.0
O304 O 0.59201 0.02985 0.59552 0.0
O305 O 0.71824 1.00296 0.57661 0.0
C306 C 0.52869 0.22444 0.66919 0.0
O307 O 0.69265 0.12105 0.60455 0.0
C308 C 0.6679 0.03331 0.77212 0.0
C309 C 0.51101 0.98224 0.72711 0.0
O310 O 0.59657 0.22059 0.68045 0.0
O311 O 0.50458 0.16152 0.65981 0.0
O312 O 0.62581 0.08625 0.78248 0.0
O313 O 0.67643 0.0283 0.71037 0.0
O314 O 0.51214 0.04647 0.70294 0.0
O315 O 0.56537 0.93829 0.72279 0.0
C316 C 0.70504 0.82233 0.64235 0.0
O317 O 0.64622 0.83738 0.61342 0.0
O318 O 0.73045 0.87776 0.67165 0.0
C319 C 0.54012 0.99298 0.57652 0.0
loop_
_geom_bond_atom_site_label_1
_geom_bond_atom_site_label_2
_geom_bond_distance
_geom_bond_site_symmetry_2
_ccdc_geom_bond_type
Tb0 O3 2.453 . S
Tb0 O4 2.596 . S
Tb0 O5 2.374 . S
Tb0 O13 2.343 . S
Tb0 O15 2.353 . S
Tb0 O17 2.427 . S
Tb0 O18 2.513 . S
C1 O5 1.251 . S
C1 O7 1.263 . S
Tb2 O4 2.343 . S
Tb2 O7 2.353 . S
Tb2 O10 2.427 . S
Tb2 O11 2.513 . S
Tb2 O12 2.453 . S
Tb2 O13 2.596 . S
Tb2 O14 2.374 . S
O3 Tb0 2.453 . S
O3 C19 1.245 . S
O4 Tb0 2.596 . S
O4 Tb2 2.343 . S
O4 C19 1.259 . S
O5 Tb0 2.374 . S
O5 C1 1.251 . S
C6 O10 1.275 . S
C6 O11 1.246 . S
O7 C1 1.263 . S
O7 Tb2 2.353 . S
C8 O12 1.245 . S
C8 O13 1.259 . S
C9 O14 1.250 . S
C9 O15 1.263 . S
O10 Tb2 2.427 . S
O10 C6 1.275 . S
O11 Tb2 2.513 . S
O11 C6 1.246 . S
O12 Tb2 2.453 . S
O12 C8 1.245 . S
O13 Tb0 2.343 . S
O13 Tb2 2.596 . S
O13 C8 1.259 . S
O14 Tb2 2.374 . S
O14 C9 1.250 . S
O15 Tb0 2.353 . S
O15 C9 1.263 . S
C16 O17 1.275 . S
C16 O18 1.246 . S
O17 Tb0 2.427 . S
O17 C16 1.275 . S
O18 Tb0 2.513 . S
O18 C16 1.246 . S
C19 O3 1.245 . S
C19 O4 1.259 . S
Tb20 O23 2.453 . S
Tb20 O24 2.596 . S
Tb20 O25 2.374 . S
Tb20 O33 2.343 . S
Tb20 O35 2.353 . S
Tb20 O37 2.427 . S
Tb20 O38 2.513 . S
C21 O25 1.251 . S
C21 O27 1.263 . S
Tb22 O24 2.343 . S
Tb22 O27 2.353 . S
Tb22 O30 2.427 . S
Tb22 O31 2.513 . S
Tb22 O32 2.453 . S
Tb22 O33 2.596 . S
Tb22 O34 2.374 . S
O23 Tb20 2.453 . S
O23 C39 1.245 . S
O24 Tb20 2.596 . S
O24 Tb22 2.343 . S
O24 C39 1.259 . S
O25 Tb20 2.374 . S
O25 C21 1.251 . S
C26 O30 1.275 . S
C26 O31 1.246 . S
O27 C21 1.263 . S
O27 Tb22 2.353 . S
C28 O32 1.245 . S
C28 O33 1.259 . S
C29 O34 1.250 . S
C29 O35 1.263 . S
O30 Tb22 2.427 . S
O30 C26 1.275 . S
O31 Tb22 2.513 . S
O31 C26 1.246 . S
O32 Tb22 2.453 . S
O32 C28 1.245 . S
O33 Tb20 2.343 . S
O33 Tb22 2.596 . S
O33 C28 1.259 . S
O34 Tb22 2.374 . S
O34 C29 1.250 . S
O35 Tb20 2.353 . S
O35 C29 1.263 . S
C36 O37 1.275 . S
C36 O38 1.246 . S
O37 Tb20 2.427 . S
O37 C36 1.275 . S
O38 Tb20 2.513 . S
O38 C36 1.246 . S
C39 O23 1.245 . S
C39 O24 1.259 . S
Tb40 O43 2.453 . S
Tb40 O44 2.596 . S
Tb40 O45 2.374 . S
Tb40 O53 2.343 . S
Tb40 O55 2.353 . S
Tb40 O57 2.427 . S
Tb40 O58 2.513 . S
C41 O45 1.251 . S
C41 O47 1.263 . S
Tb42 O44 2.343 . S
Tb42 O47 2.353 . S
Tb42 O50 2.427 . S
Tb42 O51 2.513 . S
Tb42 O52 2.453 . S
Tb42 O53 2.596 . S
Tb42 O54 2.374 . S
O43 Tb40 2.453 . S
O43 C59 1.245 . S
O44 Tb40 2.596 . S
O44 Tb42 2.343 . S
O44 C59 1.259 . S
O45 Tb40 2.374 . S
O45 C41 1.251 . S
C46 O50 1.275 . S
C46 O51 1.246 . S
O47 C41 1.263 . S
O47 Tb42 2.353 . S
C48 O52 1.245 . S
C48 O53 1.259 . S
C49 O54 1.250 . S
C49 O55 1.263 . S
O50 Tb42 2.427 . S
O50 C46 1.275 . S
O51 Tb42 2.513 . S
O51 C46 1.246 . S
O52 Tb42 2.453 . S
O52 C48 1.245 . S
O53 Tb40 2.343 . S
O53 Tb42 2.596 . S
O53 C48 1.259 . S
O54 Tb42 2.374 . S
O54 C49 1.250 . S
O55 Tb40 2.353 . S
O55 C49 1.263 . S
C56 O57 1.275 . S
C56 O58 1.246 . S
O57 Tb40 2.427 . S
O57 C56 1.275 . S
O58 Tb40 2.513 . S
O58 C56 1.246 . S
C59 O43 1.245 . S
C59 O44 1.259 . S
Tb60 O63 2.453 . S
Tb60 O64 2.596 . S
Tb60 O65 2.374 . S
Tb60 O73 2.343 . S
Tb60 O75 2.353 . S
Tb60 O77 2.427 . S
Tb60 O78 2.513 1_655 S
C61 O65 1.251 1_455 S
C61 O67 1.263 1_455 S
Tb62 O64 2.343 . S
Tb62 O67 2.353 . S
Tb62 O70 2.427 . S
Tb62 O71 2.513 . S
Tb62 O72 2.453 1_556 S
Tb62 O73 2.596 . S
Tb62 O74 2.374 . S
O63 Tb60 2.453 . S
O63 C79 1.245 . S
O64 Tb60 2.596 . S
O64 Tb62 2.343 . S
O64 C79 1.259 . S
O65 Tb60 2.374 . S
O65 C61 1.251 1_655 S
C66 O70 1.275 . S
C66 O71 1.246 . S
O67 C61 1.263 1_655 S
O67 Tb62 2.353 . S
C68 O72 1.245 . S
C68 O73 1.259 1_554 S
C69 O74 1.250 . S
C69 O75 1.263 . S
O70 Tb62 2.427 . S
O70 C66 1.275 . S
O71 Tb62 2.513 . S
O71 C66 1.246 . S
O72 Tb62 2.453 1_554 S
O72 C68 1.245 . S
O73 Tb60 2.343 . S
O73 Tb62 2.596 . S
O73 C68 1.259 1_556 S
O74 Tb62 2.374 . S
O74 C69 1.250 . S
O75 Tb60 2.353 . S
O75 C69 1.263 . S
C76 O77 1.275 . S
C76 O78 1.246 1_655 S
O77 Tb60 2.427 . S
O77 C76 1.275 . S
O78 Tb60 2.513 1_455 S
O78 C76 1.246 1_455 S
C79 O63 1.245 . S
C79 O64 1.259 . S
Tb80 O83 2.453 . S
Tb80 O84 2.596 . S
Tb80 O85 2.374 . S
Tb80 O93 2.343 . S
Tb80 O95 2.353 . S
Tb80 O97 2.427 . S
Tb80 O98 2.513 . S
C81 O85 1.251 . S
C81 O87 1.263 . S
Tb82 O84 2.343 . S
Tb82 O87 2.353 . S
Tb82 O90 2.427 . S
Tb82 O91 2.513 . S
Tb82 O92 2.453 . S
Tb82 O93 2.596 . S
Tb82 O94 2.374 . S
O83 Tb80 2.453 . S
O83 C99 1.245 . S
O84 Tb80 2.596 . S
O84 Tb82 2.343 . S
O84 C99 1.259 . S
O85 Tb80 2.374 . S
O85 C81 1.251 . S
C86 O90 1.275 . S
C86 O91 1.246 . S
O87 C81 1.263 . S
O87 Tb82 2.353 . S
C88 O92 1.245 . S
C88 O93 1.259 . S
C89 O94 1.250 . S
C89 O95 1.263 . S
O90 Tb82 2.427 . S
O90 C86 1.275 . S
O91 Tb82 2.513 . S
O91 C86 1.246 . S
O92 Tb82 2.453 . S
O92 C88 1.245 . S
O93 Tb80 2.343 . S
O93 Tb82 2.596 . S
O93 C88 1.259 . S
O94 Tb82 2.374 . S
O94 C89 1.250 . S
O95 Tb80 2.353 . S
O95 C89 1.263 . S
C96 O97 1.275 . S
C96 O98 1.246 . S
O97 Tb80 2.427 . S
O97 C96 1.275 . S
O98 Tb80 2.513 . S
O98 C96 1.246 . S
C99 O83 1.245 . S
C99 O84 1.259 . S
Tb100 O103 2.453 . S
Tb100 O104 2.596 . S
Tb100 O105 2.374 . S
Tb100 O113 2.343 . S
Tb100 O115 2.353 . S
Tb100 O117 2.427 . S
Tb100 O118 2.513 . S
C101 O105 1.251 . S
C101 O107 1.263 . S
Tb102 O104 2.343 . S
Tb102 O107 2.353 . S
Tb102 O110 2.427 . S
Tb102 O111 2.513 . S
Tb102 O112 2.453 . S
Tb102 O113 2.596 . S
Tb102 O114 2.374 . S
O103 Tb100 2.453 . S
O103 C119 1.245 . S
O104 Tb100 2.596 . S
O104 Tb102 2.343 . S
O104 C119 1.259 . S
O105 Tb100 2.374 . S
O105 C101 1.251 . S
C106 O110 1.275 . S
C106 O111 1.246 . S
O107 C101 1.263 . S
O107 Tb102 2.353 . S
C108 O112 1.245 . S
C108 O113 1.259 . S
C109 O114 1.250 . S
C109 O115 1.263 . S
O110 Tb102 2.427 . S
O110 C106 1.275 . S
O111 Tb102 2.513 . S
O111 C106 1.246 . S
O112 Tb102 2.453 . S
O112 C108 1.245 . S
O113 Tb100 2.343 . S
O113 Tb102 2.596 . S
O113 C108 1.259 . S
O114 Tb102 2.374 . S
O114 C109 1.250 . S
O115 Tb100 2.353 . S
O115 C109 1.263 . S
C116 O117 1.275 . S
C116 O118 1.246 . S
O117 Tb100 2.427 . S
O117 C116 1.275 . S
O118 Tb100 2.513 . S
O118 C116 1.246 . S
C119 O103 1.245 . S
C119 O104 1.259 . S
Tb120 O123 2.453 . S
Tb120 O124 2.596 . S
Tb120 O125 2.374 . S
Tb120 O133 2.343 . S
Tb120 O135 2.353 . S
Tb120 O137 2.427 . S
Tb120 O138 2.513 . S
C121 O125 1.251 . S
C121 O127 1.263 . S
Tb122 O124 2.343 . S
Tb122 O127 2.353 . S
Tb122 O130 2.427 . S
Tb122 O131 2.513 . S
Tb122 O132 2.453 . S
Tb122 O133 2.596 . S
Tb122 O134 2.374 . S
O123 Tb120 2.453 . S
O123 C139 1.245 . S
O124 Tb120 2.596 . S
O124 Tb122 2.343 . S
O124 C139 1.259 . S
O125 Tb120 2.374 . S
O125 C121 1.251 . S
C126 O130 1.275 . S
C126 O131 1.246 . S
O127 C121 1.263 . S
O127 Tb122 2.353 . S
C128 O132 1.245 . S
C128 O133 1.259 . S
C129 O134 1.250 . S
C129 O135 1.263 . S
O130 Tb122 2.427 . S
O130 C126 1.275 . S
O131 Tb122 2.513 . S
O131 C126 1.246 . S
O132 Tb122 2.453 . S
O132 C128 1.245 . S
O133 Tb120 2.343 . S
O133 Tb122 2.596 . S
O133 C128 1.259 . S
O134 Tb122 2.374 . S
O134 C129 1.250 . S
O135 Tb120 2.353 . S
O135 C129 1.263 . S
C136 O137 1.275 . S
C136 O138 1.246 . S
O137 Tb120 2.427 . S
O137 C136 1.275 . S
O138 Tb120 2.513 . S
O138 C136 1.246 . S
C139 O123 1.245 . S
C139 O124 1.259 . S
Tb140 O143 2.453 1_554 S
Tb140 O144 2.596 . S
Tb140 O145 2.374 . S
Tb140 O153 2.343 . S
Tb140 O155 2.353 . S
Tb140 O157 2.427 . S
Tb140 O158 2.513 . S
C141 O145 1.251 . S
C141 O147 1.263 . S
Tb142 O144 2.343 . S
Tb142 O147 2.353 . S
Tb142 O150 2.427 . S
Tb142 O151 2.513 1_455 S
Tb142 O152 2.453 . S
Tb142 O153 2.596 . S
Tb142 O154 2.374 . S
O143 Tb140 2.453 1_556 S
O143 C159 1.245 . S
O144 Tb140 2.596 . S
O144 Tb142 2.343 . S
O144 C159 1.259 1_554 S
O145 Tb140 2.374 . S
O145 C141 1.251 . S
C146 O150 1.275 . S
C146 O151 1.246 1_455 S
O147 C141 1.263 . S
O147 Tb142 2.353 . S
C148 O152 1.245 . S
C148 O153 1.259 . S
C149 O154 1.250 1_655 S
C149 O155 1.263 1_655 S
O150 Tb142 2.427 . S
O150 C146 1.275 . S
O151 Tb142 2.513 1_655 S
O151 C146 1.246 1_655 S
O152 Tb142 2.453 . S
O152 C148 1.245 . S
O153 Tb140 2.343 . S
O153 Tb142 2.596 . S
O153 C148 1.259 . S
O154 Tb142 2.374 . S
O154 C149 1.250 1_455 S
O155 Tb140 2.353 . S
O155 C149 1.263 1_455 S
C156 O157 1.275 . S
C156 O158 1.246 . S
O157 Tb140 2.427 . S
O157 C156 1.275 . S
O158 Tb140 2.513 . S
O158 C156 1.246 . S
C159 O143 1.245 . S
C159 O144 1.259 1_556 S
Tb160 O163 2.453 . S
Tb160 O164 2.596 . S
Tb160 O165 2.374 . S
Tb160 O173 2.343 . S
Tb160 O175 2.353 . S
Tb160 O177 2.427 . S
Tb160 O178 2.513 . S
C161 O165 1.251 . S
C161 O167 1.263 . S
Tb162 O164 2.343 . S
Tb162 O167 2.353 . S
Tb162 O170 2.427 . S
Tb162 O171 2.513 . S
Tb162 O172 2.453 . S
Tb162 O173 2.596 . S
Tb162 O174 2.374 . S
O163 Tb160 2.453 . S
O163 C179 1.245 . S
O164 Tb160 2.596 . S
O164 Tb162 2.343 . S
O164 C179 1.259 . S
O165 Tb160 2.374 . S
O165 C161 1.251 . S
C166 O170 1.275 . S
C166 O171 1.246 . S
O167 C161 1.263 . S
O167 Tb162 2.353 . S
C168 O172 1.245 . S
C168 O173 1.259 . S
C169 O174 1.250 . S
C169 O175 1.263 . S
O170 Tb162 2.427 . S
O170 C166 1.275 . S
O171 Tb162 2.513 . S
O171 C166 1.246 . S
O172 Tb162 2.453 . S
O172 C168 1.245 . S
O173 Tb160 2.343 . S
O173 Tb162 2.596 . S
O173 C168 1.259 . S
O174 Tb162 2.374 . S
O174 C169 1.250 . S
O175 Tb160 2.353 . S
O175 C169 1.263 . S
C176 O177 1.275 . S
C176 O178 1.246 . S
O177 Tb160 2.427 . S
O177 C176 1.275 . S
O178 Tb160 2.513 . S
O178 C176 1.246 . S
C179 O163 1.245 . S
C179 O164 1.259 . S
Tb180 O183 2.453 . S
Tb180 O184 2.596 1_545 S
Tb180 O185 2.374 . S
Tb180 O193 2.343 . S
Tb180 O195 2.353 . S
Tb180 O197 2.427 . S
Tb180 O198 2.513 1_455 S
C181 O185 1.251 1_665 S
C181 O187 1.263 1_655 S
Tb182 O184 2.343 . S
Tb182 O187 2.353 . S
Tb182 O190 2.427 . S
Tb182 O191 2.513 . S
Tb182 O192 2.453 1_556 S
Tb182 O193 2.596 1_565 S
Tb182 O194 2.374 . S
O183 Tb180 2.453 . S
O183 C199 1.245 1_545 S
O184 Tb180 2.596 1_565 S
O184 Tb182 2.343 . S
O184 C199 1.259 . S
O185 Tb180 2.374 . S
O185 C181 1.251 1_445 S
C186 O190 1.275 . S
C186 O191 1.246 . S
O187 C181 1.263 1_455 S
O187 Tb182 2.353 . S
C188 O192 1.245 1_545 S
C188 O193 1.259 1_554 S
C189 O194 1.250 1_545 S
C189 O195 1.263 . S
O190 Tb182 2.427 . S
O190 C186 1.275 . S
O191 Tb182 2.513 . S
O191 C186 1.246 . S
O192 Tb182 2.453 1_554 S
O192 C188 1.245 1_565 S
O193 Tb180 2.343 . S
O193 Tb182 2.596 1_545 S
O193 C188 1.259 1_556 S
O194 Tb182 2.374 . S
O194 C189 1.250 1_565 S
O195 Tb180 2.353 . S
O195 C189 1.263 . S
C196 O197 1.275 . S
C196 O198 1.246 1_455 S
O197 Tb180 2.427 . S
O197 C196 1.275 . S
O198 Tb180 2.513 1_655 S
O198 C196 1.246 1_655 S
C199 O183 1.245 1_565 S
C199 O184 1.259 . S
Tb200 O203 2.453 . S
Tb200 O204 2.596 . S
Tb200 O205 2.374 . S
Tb200 O213 2.343 . S
Tb200 O215 2.353 . S
Tb200 O217 2.427 . S
Tb200 O218 2.513 . S
C201 O205 1.251 . S
C201 O207 1.263 . S
Tb202 O204 2.343 . S
Tb202 O207 2.353 . S
Tb202 O210 2.427 . S
Tb202 O211 2.513 . S
Tb202 O212 2.453 . S
Tb202 O213 2.596 . S
Tb202 O214 2.374 . S
O203 Tb200 2.453 . S
O203 C219 1.245 . S
O204 Tb200 2.596 . S
O204 Tb202 2.343 . S
O204 C219 1.259 . S
O205 Tb200 2.374 . S
O205 C201 1.251 . S
C206 O210 1.275 . S
C206 O211 1.246 . S
O207 C201 1.263 . S
O207 Tb202 2.353 . S
C208 O212 1.245 . S
C208 O213 1.259 . S
C209 O214 1.250 . S
C209 O215 1.263 . S
O210 Tb202 2.427 . S
O210 C206 1.275 . S
O211 Tb202 2.513 . S
O211 C206 1.246 . S
O212 Tb202 2.453 . S
O212 C208 1.245 . S
O213 Tb200 2.343 . S
O213 Tb202 2.596 . S
O213 C208 1.259 . S
O214 Tb202 2.374 . S
O214 C209 1.250 . S
O215 Tb200 2.353 . S
O215 C209 1.263 . S
C216 O217 1.275 . S
C216 O218 1.246 . S
O217 Tb200 2.427 . S
O217 C216 1.275 . S
O218 Tb200 2.513 . S
O218 C216 1.246 . S
C219 O203 1.245 . S
C219 O204 1.259 . S
Tb220 O223 2.453 . S
Tb220 O224 2.596 1_565 S
Tb220 O225 2.374 . S
Tb220 O233 2.343 . S
Tb220 O235 2.353 . S
Tb220 O237 2.427 . S
Tb220 O238 2.513 . S
C221 O225 1.251 1_545 S
C221 O227 1.263 . S
Tb222 O224 2.343 . S
Tb222 O227 2.353 . S
Tb222 O230 2.427 . S
Tb222 O231 2.513 . S
Tb222 O232 2.453 . S
Tb222 O233 2.596 1_545 S
Tb222 O234 2.374 . S
O223 Tb220 2.453 . S
O223 C239 1.245 1_565 S
O224 Tb220 2.596 1_545 S
O224 Tb222 2.343 . S
O224 C239 1.259 . S
O225 Tb220 2.374 . S
O225 C221 1.251 1_565 S
C226 O230 1.275 . S
C226 O231 1.246 . S
O227 C221 1.263 . S
O227 Tb222 2.353 . S
C228 O232 1.245 1_565 S
C228 O233 1.259 . S
C229 O234 1.250 1_565 S
C229 O235 1.263 . S
O230 Tb222 2.427 . S
O230 C226 1.275 . S
O231 Tb222 2.513 . S
O231 C226 1.246 . S
O232 Tb222 2.453 . S
O232 C228 1.245 1_545 S
O233 Tb220 2.343 . S
O233 Tb222 2.596 1_565 S
O233 C228 1.259 . S
O234 Tb222 2.374 . S
O234 C229 1.250 1_545 S
O235 Tb220 2.353 . S
O235 C229 1.263 . S
C236 O237 1.275 . S
C236 O238 1.246 . S
O237 Tb220 2.427 . S
O237 C236 1.275 . S
O238 Tb220 2.513 . S
O238 C236 1.246 . S
C239 O223 1.245 1_545 S
C239 O224 1.259 . S
Tb240 O243 2.453 . S
Tb240 O244 2.596 . S
Tb240 O245 2.374 . S
Tb240 O253 2.343 . S
Tb240 O255 2.353 . S
Tb240 O257 2.427 . S
Tb240 O258 2.513 . S
C241 O245 1.251 . S
C241 O247 1.263 . S
Tb242 O244 2.343 . S
Tb242 O247 2.353 . S
Tb242 O250 2.427 . S
Tb242 O251 2.513 . S
Tb242 O252 2.453 . S
Tb242 O253 2.596 . S
Tb242 O254 2.374 . S
O243 Tb240 2.453 . S
O243 C259 1.245 . S
O244 Tb240 2.596 . S
O244 Tb242 2.343 . S
O244 C259 1.259 . S
O245 Tb240 2.374 . S
O245 C241 1.251 . S
C246 O250 1.275 . S
C246 O251 1.246 . S
O247 C241 1.263 . S
O247 Tb242 2.353 . S
C248 O252 1.245 . S
C248 O253 1.259 . S
C249 O254 1.250 . S
C249 O255 1.263 . S
O250 Tb242 2.427 . S
O250 C246 1.275 . S
O251 Tb242 2.513 . S
O251 C246 1.246 . S
O252 Tb242 2.453 . S
O252 C248 1.245 . S
O253 Tb240 2.343 . S
O253 Tb242 2.596 . S
O253 C248 1.259 . S
O254 Tb242 2.374 . S
O254 C249 1.250 . S
O255 Tb240 2.353 . S
O255 C249 1.263 . S
C256 O257 1.275 . S
C256 O258 1.246 . S
O257 Tb240 2.427 . S
O257 C256 1.275 . S
O258 Tb240 2.513 . S
O258 C256 1.246 . S
C259 O243 1.245 . S
C259 O244 1.259 . S
Tb260 O263 2.453 1_554 S
Tb260 O264 2.596 1_545 S
Tb260 O265 2.374 . S
Tb260 O273 2.343 . S
Tb260 O275 2.353 . S
Tb260 O277 2.427 . S
Tb260 O278 2.513 . S
C261 O265 1.251 1_565 S
C261 O267 1.263 . S
Tb262 O264 2.343 . S
Tb262 O267 2.353 . S
Tb262 O270 2.427 . S
Tb262 O271 2.513 1_655 S
Tb262 O272 2.453 . S
Tb262 O273 2.596 1_565 S
Tb262 O274 2.374 . S
O263 Tb260 2.453 1_556 S
O263 C279 1.245 1_545 S
O264 Tb260 2.596 1_565 S
O264 Tb262 2.343 . S
O264 C279 1.259 1_554 S
O265 Tb260 2.374 . S
O265 C261 1.251 1_545 S
C266 O270 1.275 . S
C266 O271 1.246 1_655 S
O267 C261 1.263 . S
O267 Tb262 2.353 . S
C268 O272 1.245 1_545 S
C268 O273 1.259 . S
C269 O274 1.250 1_445 S
C269 O275 1.263 1_455 S
O270 Tb262 2.427 . S
O270 C266 1.275 . S
O271 Tb262 2.513 1_455 S
O271 C266 1.246 1_455 S
O272 Tb262 2.453 . S
O272 C268 1.245 1_565 S
O273 Tb260 2.343 . S
O273 Tb262 2.596 1_545 S
O273 C268 1.259 . S
O274 Tb262 2.374 . S
O274 C269 1.250 1_665 S
O275 Tb260 2.353 . S
O275 C269 1.263 1_655 S
C276 O277 1.275 . S
C276 O278 1.246 . S
O277 Tb260 2.427 . S
O277 C276 1.275 . S
O278 Tb260 2.513 . S
O278 C276 1.246 . S
C279 O263 1.245 1_565 S
C279 O264 1.259 1_556 S
Tb280 O283 2.453 . S
Tb280 O284 2.596 . S
Tb280 O285 2.374 . S
Tb280 O293 2.343 . S
Tb280 O295 2.353 . S
Tb280 O297 2.427 . S
Tb280 O298 2.513 . S
C281 O285 1.251 . S
C281 O287 1.263 . S
Tb282 O284 2.343 . S
Tb282 O287 2.353 . S
Tb282 O290 2.427 . S
Tb282 O291 2.513 . S
Tb282 O292 2.453 . S
Tb282 O293 2.596 . S
Tb282 O294 2.374 . S
O283 Tb280 2.453 . S
O283 C299 1.245 . S
O284 Tb280 2.596 . S
O284 Tb282 2.343 . S
O284 C299 1.259 . S
O285 Tb280 2.374 . S
O285 C281 1.251 . S
C286 O290 1.275 . S
C286 O291 1.246 . S
O287 C281 1.263 . S
O287 Tb282 2.353 . S
C288 O292 1.245 . S
C288 O293 1.259 . S
C289 O294 1.250 . S
C289 O295 1.263 . S
O290 Tb282 2.427 . S
O290 C286 1.275 . S
O291 Tb282 2.513 . S
O291 C286 1.246 . S
O292 Tb282 2.453 . S
O292 C288 1.245 . S
O293 Tb280 2.343 . S
O293 Tb282 2.596 . S
O293 C288 1.259 . S
O294 Tb282 2.374 . S
O294 C289 1.250 . S
O295 Tb280 2.353 . S
O295 C289 1.263 . S
C296 O297 1.275 . S
C296 O298 1.246 . S
O297 Tb280 2.427 . S
O297 C296 1.275 . S
O298 Tb280 2.513 . S
O298 C296 1.246 . S
C299 O283 1.245 . S
C299 O284 1.259 . S
Tb300 O303 2.453 . S
Tb300 O304 2.596 1_565 S
Tb300 O305 2.374 . S
Tb300 O313 2.343 . S
Tb300 O315 2.353 . S
Tb300 O317 2.427 . S
Tb300 O318 2.513 . S
C301 O305 1.251 1_545 S
C301 O307 1.263 . S
Tb302 O304 2.343 . S
Tb302 O307 2.353 . S
Tb302 O310 2.427 . S
Tb302 O311 2.513 . S
Tb302 O312 2.453 . S
Tb302 O313 2.596 1_545 S
Tb302 O314 2.374 . S
O303 Tb300 2.453 . S
O303 C319 1.245 1_565 S
O304 Tb300 2.596 1_545 S
O304 Tb302 2.343 . S
O304 C319 1.259 . S
O305 Tb300 2.374 . S
O305 C301 1.251 1_565 S
C306 O310 1.275 . S
C306 O311 1.246 . S
O307 C301 1.263 . S
O307 Tb302 2.353 . S
C308 O312 1.245 1_565 S
C308 O313 1.259 . S
C309 O314 1.250 1_565 S
C309 O315 1.263 . S
O310 Tb302 2.427 . S
O310 C306 1.275 . S
O311 Tb302 2.513 . S
O311 C306 1.246 . S
O312 Tb302 2.453 . S
O312 C308 1.245 1_545 S
O313 Tb300 2.343 . S
O313 Tb302 2.596 1_565 S
O313 C308 1.259 . S
O314 Tb302 2.374 . S
O314 C309 1.250 1_545 S
O315 Tb300 2.353 . S
O315 C309 1.263 . S
C316 O317 1.275 . S
C316 O318 1.246 . S
O317 Tb300 2.427 . S
O317 C316 1.275 . S
O318 Tb300 2.513 . S
O318 C316 1.246 . S
C319 O303 1.245 1_545 S
C319 O304 1.259 . S
C8 C259 1.684 . S
C119 C28 1.684 . S
C48 C299 1.684 . S
C68 C159 1.684 1_654 S
C99 C168 1.684 . S
C208 C139 1.684 . S
C279 C188 1.684 1_666 S
C228 C319 1.685 1_565 S
C189 C19 2.088 1_556 S
C39 C209 2.088 . S
C59 C229 2.088 . S
C169 C79 2.088 . S
C261 C88 2.088 1_554 S
C281 C108 2.088 . S
C128 C301 2.088 . S
C241 C148 2.088 . S
C179 C29 2.088 . S
C199 C49 2.088 . S
C219 C69 2.088 1_554 S
C9 C239 2.088 . S
C101 C248 2.088 . S
C268 C121 2.088 . S
C141 C288 2.088 1_554 S
C308 C81 2.088 . S
C16 C216 1.855 . S
C36 C236 1.855 . S
C176 C56 1.855 1_655 S
C76 C196 1.855 1_655 S
C86 C286 1.855 . S
C106 C306 1.855 . S
C246 C126 1.855 1_455 S
C146 C266 1.855 1_455 S
C1 C156 1.179 . S
C256 C21 1.179 . S
C41 C116 1.179 . S
C61 C296 1.179 . S
C89 C66 1.179 . S
C166 C109 1.179 . S
C129 C26 1.179 . S
C206 C149 1.179 . S
C161 C316 1.179 . S
C96 C181 1.179 . S
C276 C201 1.179 . S
C221 C136 1.179 . S
C249 C226 1.179 . S
C269 C6 1.179 . S
C186 C289 1.179 . S
C46 C309 1.179 . S
