# Generated by pormake.
# Topology afi, (4)-cn, num edge types: 1
# Building blocks:
#     Node 0, Type 0, BuildingBlock: QUQFOY_clean_sbu_3, # of connection points: 4
#     Node 1, Type 0, BuildingBlock: QUQFOY_clean_sbu_3, # of connection points: 4
#     Node 2, Type 0, BuildingBlock: QUQFOY_clean_sbu_3, # of connection points: 4
#     Node 3, Type 0, BuildingBlock: QUQFOY_clean_sbu_3, # of connection points: 4
#     Node 4, Type 0, BuildingBlock: QUQFOY_clean_sbu_3, # of connection points: 4
#     Node 5, Type 0, BuildingBlock: QUQFOY_clean_sbu_3, # of connection points: 4
#     Node 6, Type 0, BuildingBlock: QUQFOY_clean_sbu_3, # of connection points: 4
#     Node 7, Type 0, BuildingBlock: QUQFOY_clean_sbu_3, # of connection points: 4
#     Node 8, Type 0, BuildingBlock: QUQFOY_clean_sbu_3, # of connection points: 4
#     Node 9, Type 0, BuildingBlock: QUQFOY_clean_sbu_3, # of connection points: 4
#     Node 10, Type 0, BuildingBlock: QUQFOY_clean_sbu_3, # of connection points: 4
#     Node 11, Type 0, BuildingBlock: QUQFOY_clean_sbu_3, # of connection points: 4
#     Node 12, Type 0, BuildingBlock: QUQFOY_clean_sbu_3, # of connection points: 4
#     Node 13, Type 0, BuildingBlock: QUQFOY_clean_sbu_3, # of connection points: 4
#     Node 14, Type 0, BuildingBlock: QUQFOY_clean_sbu_3, # of connection points: 4
#     Node 15, Type 0, BuildingBlock: QUQFOY_clean_sbu_3, # of connection points: 4
#     Node 16, Type 0, BuildingBlock: QUQFOY_clean_sbu_3, # of connection points: 4
#     Node 17, Type 0, BuildingBlock: QUQFOY_clean_sbu_3, # of connection points: 4
#     Node 18, Type 0, BuildingBlock: QUQFOY_clean_sbu_3, # of connection points: 4
#     Node 19, Type 0, BuildingBlock: QUQFOY_clean_sbu_3, # of connection points: 4
#     Node 20, Type 0, BuildingBlock: QUQFOY_clean_sbu_3, # of connection points: 4
#     Node 21, Type 0, BuildingBlock: QUQFOY_clean_sbu_3, # of connection points: 4
#     Node 22, Type 0, BuildingBlock: QUQFOY_clean_sbu_3, # of connection points: 4
#     Node 23, Type 0, BuildingBlock: QUQFOY_clean_sbu_3, # of connection points: 4
#     Edge 24, Type (0, 0), BuildingBlock: TEMPAE_clean_linker_10, # of connection points: 2
#     Edge 25, Type (0, 0), BuildingBlock: TEMPAE_clean_linker_10, # of connection points: 2
#     Edge 26, Type (0, 0), BuildingBlock: TEMPAE_clean_linker_10, # of connection points: 2
#     Edge 27, Type (0, 0), BuildingBlock: TEMPAE_clean_linker_10, # of connection points: 2
#     Edge 28, Type (0, 0), BuildingBlock: TEMPAE_clean_linker_10, # of connection points: 2
#     Edge 29, Type (0, 0), BuildingBlock: TEMPAE_clean_linker_10, # of connection points: 2
#     Edge 30, Type (0, 0), BuildingBlock: TEMPAE_clean_linker_10, # of connection points: 2
#     Edge 31, Type (0, 0), BuildingBlock: TEMPAE_clean_linker_10, # of connection points: 2
#     Edge 32, Type (0, 0), BuildingBlock: TEMPAE_clean_linker_10, # of connection points: 2
#     Edge 33, Type (0, 0), BuildingBlock: TEMPAE_clean_linker_10, # of connection points: 2
#     Edge 34, Type (0, 0), BuildingBlock: TEMPAE_clean_linker_10, # of connection points: 2
#     Edge 35, Type (0, 0), BuildingBlock: TEMPAE_clean_linker_10, # of connection points: 2
#     Edge 36, Type (0, 0), BuildingBlock: TEMPAE_clean_linker_10, # of connection points: 2
#     Edge 37, Type (0, 0), BuildingBlock: TEMPAE_clean_linker_10, # of connection points: 2
#     Edge 38, Type (0, 0), BuildingBlock: TEMPAE_clean_linker_10, # of connection points: 2
#     Edge 39, Type (0, 0), BuildingBlock: TEMPAE_clean_linker_10, # of connection points: 2
#     Edge 40, Type (0, 0), BuildingBlock: TEMPAE_clean_linker_10, # of connection points: 2
#     Edge 41, Type (0, 0), BuildingBlock: TEMPAE_clean_linker_10, # of connection points: 2
#     Edge 42, Type (0, 0), BuildingBlock: TEMPAE_clean_linker_10, # of connection points: 2
#     Edge 43, Type (0, 0), BuildingBlock: TEMPAE_clean_linker_10, # of connection points: 2
#     Edge 44, Type (0, 0), BuildingBlock: TEMPAE_clean_linker_10, # of connection points: 2
#     Edge 45, Type (0, 0), BuildingBlock: TEMPAE_clean_linker_10, # of connection points: 2
#     Edge 46, Type (0, 0), BuildingBlock: TEMPAE_clean_linker_10, # of connection points: 2
#     Edge 47, Type (0, 0), BuildingBlock: TEMPAE_clean_linker_10, # of connection points: 2
#     Edge 48, Type (0, 0), BuildingBlock: TEMPAE_clean_linker_10, # of connection points: 2
#     Edge 49, Type (0, 0), BuildingBlock: TEMPAE_clean_linker_10, # of connection points: 2
#     Edge 50, Type (0, 0), BuildingBlock: TEMPAE_clean_linker_10, # of connection points: 2
#     Edge 51, Type (0, 0), BuildingBlock: TEMPAE_clean_linker_10, # of connection points: 2
#     Edge 52, Type (0, 0), BuildingBlock: TEMPAE_clean_linker_10, # of connection points: 2
#     Edge 53, Type (0, 0), BuildingBlock: TEMPAE_clean_linker_10, # of connection points: 2
#     Edge 54, Type (0, 0), BuildingBlock: TEMPAE_clean_linker_10, # of connection points: 2
#     Edge 55, Type (0, 0), BuildingBlock: TEMPAE_clean_linker_10, # of connection points: 2
#     Edge 56, Type (0, 0), BuildingBlock: TEMPAE_clean_linker_10, # of connection points: 2
#     Edge 57, Type (0, 0), BuildingBlock: TEMPAE_clean_linker_10, # of connection points: 2
#     Edge 58, Type (0, 0), BuildingBlock: TEMPAE_clean_linker_10, # of connection points: 2
#     Edge 59, Type (0, 0), BuildingBlock: TEMPAE_clean_linker_10, # of connection points: 2
#     Edge 60, Type (0, 0), BuildingBlock: TEMPAE_clean_linker_10, # of connection points: 2
#     Edge 61, Type (0, 0), BuildingBlock: TEMPAE_clean_linker_10, # of connection points: 2
#     Edge 62, Type (0, 0), BuildingBlock: TEMPAE_clean_linker_10, # of connection points: 2
#     Edge 63, Type (0, 0), BuildingBlock: TEMPAE_clean_linker_10, # of connection points: 2
#     Edge 64, Type (0, 0), BuildingBlock: TEMPAE_clean_linker_10, # of connection points: 2
#     Edge 65, Type (0, 0), BuildingBlock: TEMPAE_clean_linker_10, # of connection points: 2
#     Edge 66, Type (0, 0), BuildingBlock: TEMPAE_clean_linker_10, # of connection points: 2
#     Edge 67, Type (0, 0), BuildingBlock: TEMPAE_clean_linker_10, # of connection points: 2
#     Edge 68, Type (0, 0), BuildingBlock: TEMPAE_clean_linker_10, # of connection points: 2
#     Edge 69, Type (0, 0), BuildingBlock: TEMPAE_clean_linker_10, # of connection points: 2
#     Edge 70, Type (0, 0), BuildingBlock: TEMPAE_clean_linker_10, # of connection points: 2
#     Edge 71, Type (0, 0), BuildingBlock: TEMPAE_clean_linker_10, # of connection points: 2
# Relax obj value: 0.097
# Max RMSD: 0.105
# Mean RMSD: 0.105
data_MOF--net-afi--node1-QUQFOY_clean_sbu_3--edge1-TEMPAE_clean_linker_10
_symmetry_space_group_name_H-M    P1
_symmetry_Int_Tables_number       1
_symmetry_cell_setting            triclinic
loop_
_symmetry_equiv_pos_as_xyz
'x, y, z'
_cell_length_a     70.616298
_cell_length_b     70.593897
_cell_length_c     40.720811
_cell_angle_alpha  90.030288
_cell_angle_beta   90.011336
_cell_angle_gamma 119.98523
loop_
_atom_site_label
_atom_site_type_symbol
_atom_site_fract_x
_atom_site_fract_y
_atom_site_fract_z
_atom_type_partial_charge
C0 C 0.49127 0.10879 0.18695 0.0
O1 O 0.4861 0.097 0.16126 0.0
Cd2 Cd 0.45399 0.08641 0.12883 0.0
O3 O 0.4793 0.11634 0.19731 0.0
Cd4 Cd 0.44529 0.11645 0.1825 0.0
C5 C 0.41501 0.0614 0.18955 0.0
O6 O 0.45128 0.1184 0.1248 0.0
O7 O 0.42012 0.1146 0.1392 0.0
O8 O 0.4644 0.15502 0.19413 0.0
C9 C 0.43323 0.11669 0.1164 0.0
O10 O 0.42452 0.06047 0.16353 0.0
C11 C 0.45025 0.1545 0.21385 0.0
O12 O 0.41995 0.07968 0.20278 0.0
O13 O 0.43394 0.13583 0.2204 0.0
C14 C 0.37464 0.4945 0.15859 0.0
O15 O 0.38025 0.48977 0.13158 0.0
Cd16 Cd 0.35684 0.45731 0.10125 0.0
O17 O 0.35575 0.48196 0.17063 0.0
Cd18 Cd 0.32247 0.44719 0.15551 0.0
C19 C 0.34868 0.41864 0.15876 0.0
O20 O 0.32142 0.45422 0.09817 0.0
O21 O 0.30121 0.42043 0.11279 0.0
O22 O 0.30011 0.46254 0.17112 0.0
C23 C 0.30631 0.43509 0.09115 0.0
O24 O 0.35736 0.42773 0.13158 0.0
C25 C 0.28823 0.44751 0.19115 0.0
O26 O 0.33603 0.42361 0.17399 0.0
O27 O 0.29286 0.43249 0.19582 0.0
C28 C 0.88856 0.39882 0.17197 0.0
O29 O 0.90263 0.40595 0.14909 0.0
Cd30 Cd 0.91638 0.38406 0.12527 0.0
O31 O 0.8805 0.37922 0.18202 0.0
Cd32 Cd 0.88321 0.34648 0.16926 0.0
C33 C 0.93535 0.37104 0.19406 0.0
O34 O 0.88696 0.34873 0.10973 0.0
O35 O 0.89391 0.32569 0.13449 0.0
O36 O 0.84378 0.32403 0.16866 0.0
C37 C 0.89074 0.33294 0.10784 0.0
O38 O 0.93951 0.3817 0.1673 0.0
C39 C 0.84276 0.3112 0.19126 0.0
O40 O 0.91577 0.35745 0.20223 0.0
O41 O 0.86066 0.31532 0.20472 0.0
C42 C 0.50089 0.89814 0.1684 0.0
O43 O 0.50667 0.911 0.14395 0.0
Cd44 Cd 0.54092 0.92422 0.11641 0.0
O45 O 0.513 0.89074 0.17866 0.0
Cd46 Cd 0.54786 0.89224 0.16457 0.0
C47 C 0.57554 0.94585 0.18299 0.0
O48 O 0.54485 0.89326 0.10569 0.0
O49 O 0.57589 0.8985 0.12419 0.0
O50 O 0.52825 0.85298 0.16857 0.0
C51 C 0.56363 0.89583 0.09982 0.0
O52 O 0.56734 0.94824 0.15656 0.0
C53 C 0.54138 0.8516 0.18835 0.0
O54 O 0.5709 0.92692 0.19303 0.0
O55 O 0.55728 0.86948 0.19885 0.0
C56 C 0.61035 0.49448 0.17968 0.0
O57 O 0.60531 0.49763 0.15109 0.0
Cd58 Cd 0.62784 0.52928 0.11898 0.0
O59 O 0.62872 0.50809 0.19236 0.0
Cd60 Cd 0.66206 0.54259 0.17616 0.0
C61 C 0.63344 0.56878 0.17422 0.0
O62 O 0.66393 0.5344 0.11944 0.0
O63 O 0.68283 0.56859 0.13249 0.0
O64 O 0.68447 0.52785 0.19387 0.0
C65 C 0.67826 0.55366 0.11146 0.0
O66 O 0.62556 0.55853 0.1474 0.0
C67 C 0.6968 0.54369 0.21245 0.0
O68 O 0.64667 0.56547 0.19119 0.0
O69 O 0.69219 0.55884 0.21589 0.0
C70 C 0.10776 0.60105 0.18621 0.0
O71 O 0.09466 0.59385 0.16203 0.0
Cd72 Cd 0.08264 0.61532 0.1323 0.0
O73 O 0.11593 0.62085 0.19543 0.0
Cd74 Cd 0.11482 0.65402 0.17936 0.0
C75 C 0.06103 0.63031 0.19601 0.0
O76 O 0.11362 0.65014 0.12018 0.0
O77 O 0.1076 0.67521 0.13979 0.0
O78 O 0.15412 0.67587 0.18321 0.0
C79 C 0.11053 0.66613 0.115 0.0
O80 O 0.05817 0.6193 0.16986 0.0
C81 C 0.15426 0.6891 0.20442 0.0
O82 O 0.08019 0.64365 0.20641 0.0
O83 O 0.13585 0.68538 0.21535 0.0
C84 C 0.87585 0.50569 0.31871 0.0
O85 O 0.88411 0.50782 0.3471 0.0
Cd86 Cd 0.89341 0.53857 0.38165 0.0
O87 O 0.87059 0.51945 0.30821 0.0
Cd88 Cd 0.8704 0.55257 0.32863 0.0
C89 C 0.9249 0.57876 0.32534 0.0
O90 O 0.86242 0.54337 0.38531 0.0
O91 O 0.87779 0.57792 0.37451 0.0
O92 O 0.83242 0.53624 0.31554 0.0
C93 C 0.86788 0.56249 0.39494 0.0
O94 O 0.92346 0.56828 0.35156 0.0
C95 C 0.83409 0.55178 0.29787 0.0
O96 O 0.90779 0.57567 0.31021 0.0
O97 O 0.85324 0.56774 0.29279 0.0
C98 C 0.37401 0.87954 0.30414 0.0
O99 O 0.3786 0.8888 0.3321 0.0
Cd100 Cd 0.3544 0.8945 0.3663 0.0
O101 O 0.35478 0.87136 0.2922 0.0
Cd102 Cd 0.31824 0.86597 0.307 0.0
C103 C 0.34007 0.92096 0.30788 0.0
O104 O 0.32121 0.86117 0.36381 0.0
O105 O 0.2931 0.86394 0.35091 0.0
O106 O 0.30233 0.82845 0.2901 0.0
C107 C 0.30434 0.86158 0.37311 0.0
O108 O 0.34958 0.92085 0.33443 0.0
C109 C 0.28811 0.82856 0.27117 0.0
O110 O 0.32828 0.90337 0.29181 0.0
O111 O 0.28861 0.84669 0.26739 0.0
C112 C 0.4889 0.37743 0.31258 0.0
O113 O 0.48199 0.38328 0.3372 0.0
Cd114 Cd 0.44752 0.36109 0.36356 0.0
O115 O 0.47774 0.35823 0.30061 0.0
Cd116 Cd 0.44293 0.32372 0.31065 0.0
C117 C 0.41498 0.34999 0.29468 0.0
O118 O 0.44438 0.32627 0.36895 0.0
O119 O 0.41418 0.29978 0.34968 0.0
O120 O 0.4623 0.30397 0.30337 0.0
C121 C 0.42569 0.30993 0.37441 0.0
O122 O 0.42197 0.35949 0.32226 0.0
C123 C 0.44935 0.29081 0.28196 0.0
O124 O 0.42054 0.33656 0.28372 0.0
O125 O 0.43379 0.29366 0.27249 0.0
C126 C 0.11918 0.49171 0.32974 0.0
O127 O 0.11107 0.48851 0.3584 0.0
Cd128 Cd 0.10117 0.45602 0.38945 0.0
O129 O 0.12393 0.47814 0.31691 0.0
Cd130 Cd 0.12335 0.44376 0.33109 0.0
C131 C 0.0686 0.41908 0.3301 0.0
O132 O 0.13101 0.44916 0.38862 0.0
O133 O 0.11657 0.41572 0.37182 0.0
O134 O 0.16085 0.45979 0.31503 0.0
C135 C 0.12523 0.42942 0.395 0.0
O136 O 0.07035 0.42831 0.35773 0.0
C137 C 0.15792 0.44509 0.29442 0.0
O138 O 0.08549 0.42254 0.31397 0.0
O139 O 0.13837 0.42978 0.28974 0.0
C140 C 0.62359 0.13022 0.31149 0.0
O141 O 0.6213 0.12262 0.34039 0.0
Cd142 Cd 0.64791 0.11677 0.36781 0.0
O143 O 0.64142 0.13668 0.29584 0.0
Cd144 Cd 0.67807 0.14066 0.30423 0.0
C145 C 0.65337 0.0857 0.30668 0.0
O146 O 0.68263 0.14883 0.36164 0.0
O147 O 0.70363 0.13772 0.34181 0.0
O148 O 0.69494 0.17788 0.28545 0.0
C149 C 0.69799 0.1448 0.36636 0.0
O150 O 0.64695 0.08719 0.33533 0.0
C151 C 0.7071 0.17617 0.26412 0.0
O152 O 0.66424 0.10263 0.28886 0.0
O153 O 0.70502 0.15735 0.2602 0.0
C154 C 0.49018 0.62313 0.28378 0.0
O155 O 0.49527 0.62003 0.31237 0.0
Cd156 Cd 0.5289 0.64458 0.3387 0.0
O157 O 0.50245 0.64086 0.26836 0.0
Cd158 Cd 0.5369 0.67612 0.27789 0.0
C159 C 0.56322 0.64777 0.2753 0.0
O160 O 0.53383 0.6804 0.33564 0.0
O161 O 0.56657 0.69863 0.31614 0.0
O162 O 0.51842 0.69573 0.26368 0.0
C163 C 0.55368 0.69476 0.3401 0.0
O164 O 0.5553 0.64139 0.30394 0.0
C165 C 0.53269 0.70874 0.24354 0.0
O166 O 0.55862 0.66022 0.25858 0.0
O167 O 0.54856 0.70559 0.23728 0.0
C168 C 0.48529 0.85999 0.81587 0.0
O169 O 0.49126 0.86949 0.84352 0.0
Cd170 Cd 0.5248 0.87787 0.87012 0.0
O171 O 0.49673 0.85321 0.80119 0.0
Cd172 Cd 0.53089 0.85201 0.81051 0.0
C173 C 0.55958 0.907 0.80684 0.0
O174 O 0.52862 0.84614 0.86872 0.0
O175 O 0.56059 0.85798 0.84764 0.0
O176 O 0.51383 0.81409 0.79435 0.0
C177 C 0.54833 0.85097 0.87268 0.0
O178 O 0.55231 0.90691 0.83552 0.0
C179 C 0.52747 0.81717 0.77177 0.0
O180 O 0.55358 0.88923 0.7913 0.0
O181 O 0.54237 0.83677 0.76639 0.0
C182 C 0.60569 0.49894 0.79734 0.0
O183 O 0.6001 0.50494 0.82326 0.0
Cd184 Cd 0.62402 0.53565 0.85668 0.0
O185 O 0.6255 0.50897 0.78757 0.0
Cd186 Cd 0.66156 0.53992 0.80426 0.0
C187 C 0.64195 0.57463 0.79531 0.0
O188 O 0.65628 0.53359 0.86188 0.0
O189 O 0.68541 0.5636 0.8485 0.0
O190 O 0.67718 0.51711 0.79274 0.0
C191 C 0.67348 0.55069 0.8709 0.0
O192 O 0.63117 0.56627 0.82157 0.0
C193 C 0.69237 0.53078 0.77434 0.0
O194 O 0.65378 0.56759 0.78262 0.0
O195 O 0.69261 0.54858 0.76832 0.0
C196 C 0.10896 0.62114 0.82075 0.0
O197 O 0.10261 0.61809 0.85042 0.0
Cd198 Cd 0.09524 0.64294 0.87985 0.0
O199 O 0.11312 0.6387 0.80588 0.0
Cd200 Cd 0.11416 0.67376 0.81753 0.0
C201 C 0.05969 0.64503 0.82327 0.0
O202 O 0.12596 0.6786 0.87336 0.0
O203 O 0.11037 0.69693 0.85898 0.0
O204 O 0.15045 0.69158 0.79626 0.0
C205 C 0.12108 0.6931 0.88037 0.0
O206 O 0.06313 0.63914 0.85117 0.0
C207 C 0.14831 0.70479 0.77769 0.0
O208 O 0.07555 0.65718 0.80433 0.0
O209 O 0.12939 0.70274 0.77584 0.0
C210 C 0.49642 0.1148 0.81175 0.0
O211 O 0.49193 0.10571 0.83976 0.0
Cd212 Cd 0.45953 0.09774 0.86931 0.0
O213 O 0.48431 0.12149 0.79912 0.0
Cd214 Cd 0.45134 0.12345 0.81424 0.0
C215 C 0.42194 0.06912 0.80845 0.0
O216 O 0.45639 0.12985 0.87227 0.0
O217 O 0.42318 0.11658 0.85484 0.0
O218 O 0.46958 0.1619 0.80282 0.0
C219 C 0.43692 0.12534 0.87793 0.0
O220 O 0.4305 0.06923 0.83606 0.0
C221 C 0.45534 0.16096 0.78289 0.0
O222 O 0.42729 0.08691 0.7934 0.0
O223 O 0.4396 0.14208 0.77567 0.0
C224 C 0.37374 0.49727 0.78105 0.0
O225 O 0.37891 0.49264 0.80857 0.0
Cd226 Cd 0.35615 0.46186 0.84218 0.0
O227 O 0.35441 0.48584 0.7696 0.0
Cd228 Cd 0.31862 0.45381 0.78575 0.0
C229 C 0.34248 0.42265 0.78121 0.0
O230 O 0.32211 0.46029 0.84333 0.0
O231 O 0.29522 0.42881 0.8292 0.0
O232 O 0.30049 0.47421 0.77356 0.0
C233 C 0.30585 0.44225 0.8519 0.0
O234 O 0.35228 0.43212 0.80768 0.0
C235 C 0.28581 0.45971 0.75536 0.0
O236 O 0.32958 0.42772 0.76677 0.0
O237 O 0.28729 0.44283 0.74915 0.0
C238 C 0.85582 0.34834 0.8297 0.0
O239 O 0.86308 0.35179 0.85892 0.0
Cd240 Cd 0.87265 0.32832 0.88793 0.0
O241 O 0.85179 0.33089 0.8146 0.0
Cd242 Cd 0.85244 0.29647 0.8243 0.0
C243 C 0.90729 0.32718 0.82846 0.0
O244 O 0.84353 0.29187 0.88107 0.0
O245 O 0.85841 0.27356 0.8638 0.0
O246 O 0.81539 0.27623 0.80556 0.0
C247 C 0.84974 0.27827 0.88735 0.0
O248 O 0.90431 0.33309 0.85669 0.0
C249 C 0.81855 0.26503 0.78418 0.0
O250 O 0.89114 0.31454 0.81026 0.0
O251 O 0.83809 0.26903 0.78031 0.0
C252 C 0.09355 0.49239 0.69351 0.0
O253 O 0.08019 0.48552 0.66963 0.0
Cd254 Cd 0.06779 0.45108 0.6431 0.0
O255 O 0.10196 0.48125 0.70412 0.0
Cd256 Cd 0.1016 0.44669 0.69146 0.0
C257 C 0.04818 0.41735 0.71094 0.0
O258 O 0.09919 0.44799 0.63253 0.0
O259 O 0.09505 0.41775 0.65268 0.0
O260 O 0.14096 0.467 0.69331 0.0
C261 C 0.09678 0.42917 0.62766 0.0
O262 O 0.04507 0.42476 0.68423 0.0
C263 C 0.14309 0.45464 0.71373 0.0
O264 O 0.06743 0.42307 0.72087 0.0
O265 O 0.12563 0.43895 0.72565 0.0
C266 C 0.60011 0.09473 0.66744 0.0
O267 O 0.592 0.08216 0.6428 0.0
Cd268 Cd 0.61161 0.06872 0.61145 0.0
O269 O 0.61974 0.10135 0.67628 0.0
Cd270 Cd 0.6512 0.09756 0.65873 0.0
C271 C 0.62343 0.04324 0.67301 0.0
O272 O 0.64696 0.09927 0.59999 0.0
O273 O 0.67172 0.09169 0.61592 0.0
O274 O 0.67458 0.1363 0.66794 0.0
C275 C 0.66274 0.09627 0.59271 0.0
O276 O 0.61267 0.04173 0.6471 0.0
C277 C 0.68741 0.1344 0.68771 0.0
O278 O 0.63807 0.06179 0.68369 0.0
O279 O 0.68289 0.1151 0.69515 0.0
C280 C 0.49865 0.60701 0.64343 0.0
O281 O 0.50459 0.60034 0.61865 0.0
Cd282 Cd 0.53789 0.6229 0.58911 0.0
O283 O 0.51022 0.62662 0.65356 0.0
Cd284 Cd 0.54423 0.66074 0.63952 0.0
C285 C 0.57514 0.63722 0.65186 0.0
O286 O 0.53984 0.65727 0.58091 0.0
O287 O 0.57054 0.68422 0.59821 0.0
O288 O 0.52482 0.68017 0.64988 0.0
C289 C 0.55809 0.67399 0.5743 0.0
O290 O 0.56671 0.62644 0.62562 0.0
C291 C 0.53808 0.69295 0.67133 0.0
O292 O 0.56932 0.65032 0.66331 0.0
O293 O 0.55417 0.69041 0.67867 0.0
C294 C 0.86976 0.47521 0.69959 0.0
O295 O 0.88295 0.48144 0.67553 0.0
Cd296 Cd 0.89599 0.5153 0.64686 0.0
O297 O 0.86179 0.48687 0.7097 0.0
Cd298 Cd 0.86364 0.5219 0.69529 0.0
C299 C 0.91753 0.5509 0.71218 0.0
O300 O 0.86546 0.51994 0.6362 0.0
O301 O 0.87172 0.55097 0.65624 0.0
O302 O 0.82435 0.50513 0.69846 0.0
C303 C 0.86922 0.53926 0.63124 0.0
O304 O 0.92016 0.54278 0.68582 0.0
C305 C 0.82433 0.51819 0.71986 0.0
O306 O 0.89848 0.54549 0.72266 0.0
O307 O 0.84277 0.53245 0.73133 0.0
C308 C 0.37412 0.87612 0.684 0.0
O309 O 0.38086 0.88676 0.65738 0.0
Cd310 Cd 0.35976 0.89843 0.62664 0.0
O311 O 0.35509 0.87049 0.69481 0.0
Cd312 Cd 0.32332 0.87395 0.67675 0.0
C313 C 0.35138 0.92811 0.68578 0.0
O314 O 0.32375 0.86783 0.6189 0.0
O315 O 0.30548 0.8836 0.63356 0.0
O316 O 0.2992 0.83561 0.68489 0.0
C317 C 0.30975 0.87342 0.61183 0.0
O318 O 0.3607 0.92786 0.65915 0.0
C319 C 0.28607 0.83754 0.7039 0.0
O320 O 0.33733 0.91036 0.69936 0.0
O321 O 0.29101 0.85679 0.71248 0.0
C322 C 0.48579 0.37614 0.66739 0.0
O323 O 0.48106 0.37929 0.63858 0.0
Cd324 Cd 0.44839 0.35288 0.61108 0.0
O325 O 0.47375 0.35808 0.68204 0.0
Cd326 Cd 0.44088 0.3221 0.67184 0.0
C327 C 0.41056 0.34629 0.67046 0.0
O328 O 0.44576 0.31785 0.61461 0.0
O329 O 0.41308 0.29707 0.63337 0.0
O330 O 0.46202 0.3059 0.68845 0.0
C331 C 0.42659 0.30195 0.61001 0.0
O332 O 0.41921 0.35338 0.64241 0.0
C333 C 0.44841 0.2928 0.70921 0.0
O334 O 0.41615 0.335 0.68813 0.0
O335 O 0.43132 0.29411 0.71428 0.0
C336 C 0.3836 0.03992 0.2278 0.0
C337 C 0.39914 0.04074 0.20554 0.0
C338 C 0.36953 0.02045 0.24449 0.0
C339 C 0.37165 0.00175 0.23946 0.0
C340 C 0.38682 0.00236 0.21617 0.0
C341 C 0.40017 0.02176 0.19923 0.0
C342 C 0.35301 0.02014 0.26832 0.0
C343 C 0.38989 0.9829 0.21047 0.0
C344 C 0.36274 0.96153 0.30647 0.0
C345 C 0.34508 0.94229 0.29388 0.0
C346 C 0.37058 0.98149 0.29017 0.0
C347 C 0.36018 0.98233 0.26098 0.0
C348 C 0.34103 0.96347 0.24994 0.0
C349 C 0.33383 0.94352 0.26632 0.0
C350 C 0.39124 0.00115 0.30257 0.0
C351 C 0.32904 0.964 0.21959 0.0
H352 H 0.38256 0.0545 0.23238 0.0
H353 H 0.41216 0.0223 0.18206 0.0
H354 H 0.33708 0.0048 0.26574 0.0
H355 H 0.3588 0.02076 0.29383 0.0
H356 H 0.35046 0.0343 0.26465 0.0
H357 H 0.40187 0.98587 0.19064 0.0
H358 H 0.39575 0.97901 0.23341 0.0
H359 H 0.3741 0.9683 0.20386 0.0
H360 H 0.37144 0.96082 0.32794 0.0
H361 H 0.31992 0.92878 0.2568 0.0
H362 H 0.38915 0.01568 0.30392 0.0
H363 H 0.40481 0.00504 0.28519 0.0
H364 H 0.3961 -0.00168 0.32723 0.0
H365 H 0.32807 0.9792 0.21879 0.0
H366 H 0.31223 0.94967 0.21841 0.0
H367 H 0.33806 0.96378 0.19743 0.0
C368 C 0.40191 0.37578 0.28071 0.0
C369 C 0.40165 0.35615 0.27421 0.0
C370 C 0.39106 0.38313 0.26017 0.0
C371 C 0.37925 0.3703 0.2328 0.0
C372 C 0.37809 0.34999 0.22684 0.0
C373 C 0.38956 0.34325 0.24745 0.0
C374 C 0.39295 0.40506 0.26713 0.0
C375 C 0.36516 0.33568 0.19833 0.0
C376 C 0.3416 0.38905 0.19883 0.0
C377 C 0.3547 0.40345 0.17409 0.0
C378 C 0.34858 0.3766 0.21646 0.0
C379 C 0.36935 0.37908 0.20965 0.0
C380 C 0.38205 0.39264 0.18343 0.0
C381 C 0.37445 0.4045 0.16571 0.0
C382 C 0.33434 0.36184 0.24367 0.0
C383 C 0.40445 0.39598 0.17574 0.0
H384 H 0.41129 0.3859 0.30126 0.0
H385 H 0.38917 0.32797 0.24251 0.0
H386 H 0.40098 0.41627 0.24612 0.0
H387 H 0.37648 0.40315 0.26999 0.0
H388 H 0.40256 0.41286 0.2897 0.0
H389 H 0.36395 0.31938 0.19919 0.0
H390 H 0.34842 0.33336 0.19816 0.0
H391 H 0.37308 0.34374 0.17489 0.0
H392 H 0.32614 0.38794 0.20502 0.0
H393 H 0.38461 0.41559 0.14656 0.0
H394 H 0.34125 0.36953 0.26777 0.0
H395 H 0.33391 0.34591 0.24299 0.0
H396 H 0.31734 0.35879 0.24208 0.0
H397 H 0.41583 0.40518 0.19609 0.0
H398 H 0.41123 0.40524 0.15258 0.0
H399 H 0.40386 0.38003 0.17368 0.0
C400 C 0.97359 0.39451 0.21326 0.0
C401 C 0.9536 0.37496 0.21595 0.0
C402 C 0.99111 0.39885 0.23392 0.0
C403 C 0.98873 0.38306 0.25747 0.0
C404 C 0.96871 0.36312 0.26004 0.0
C405 C 0.95123 0.35938 0.23941 0.0
C406 C 0.01211 0.42049 0.2308 0.0
C407 C 0.9658 0.34579 0.28448 0.0
C408 C 0.04387 0.3936 0.28678 0.0
C409 C 0.04676 0.40618 0.31497 0.0
C410 C 0.02418 0.38428 0.26917 0.0
C411 C 0.00723 0.38801 0.27975 0.0
C412 C 0.00949 0.39937 0.30943 0.0
C413 C 0.02919 0.40818 0.32685 0.0
C414 C 0.02213 0.37179 0.23801 0.0
C415 C -0.00815 0.40386 0.32135 0.0
H416 H 0.97544 0.40666 0.19531 0.0
H417 H 0.93583 0.34417 0.24136 0.0
H418 H 0.01604 0.42942 0.25452 0.0
H419 H 0.02585 0.4177 0.22484 0.0
H420 H 0.01116 0.43108 0.21146 0.0
H421 H 0.94943 0.33087 0.2826 0.0
H422 H 0.97849 0.34114 0.28052 0.0
H423 H 0.96796 0.35234 0.30981 0.0
H424 H 0.05728 0.39171 0.27775 0.0
H425 H 0.03124 0.41779 0.34871 0.0
H426 H 0.02361 0.38206 0.21647 0.0
H427 H 0.00588 0.35673 0.23662 0.0
H428 H 0.03502 0.36719 0.23618 0.0
H429 H 0.99111 0.41602 0.30492 0.0
H430 H -0.00506 0.41042 0.3468 0.0
H431 H 0.97562 0.38878 0.32054 0.0
C432 C 0.60462 0.9657 0.22556 0.0
C433 C 0.5896 0.96546 0.2028 0.0
C434 C 0.61782 0.98451 0.24432 0.0
C435 C 0.61545 0.00317 0.24066 0.0
C436 C 0.60024 0.00291 0.21779 0.0
C437 C 0.5877 0.98417 0.19894 0.0
C438 C 0.63422 0.98444 0.26802 0.0
C439 C 0.59689 0.02232 0.21357 0.0
C440 C 0.62838 0.04532 0.30679 0.0
C441 C 0.64625 0.06378 0.29289 0.0
C442 C 0.61906 0.02493 0.29118 0.0
C443 C 0.62811 0.0229 0.26129 0.0
C444 C 0.64729 0.04102 0.24867 0.0
C445 C 0.65602 0.06136 0.26445 0.0
C446 C 0.59841 0.00611 0.30519 0.0
C447 C 0.65771 0.03931 0.21729 0.0
H448 H 0.60621 0.95129 0.22843 0.0
H449 H 0.57597 0.98402 0.1816 0.0
H450 H 0.65076 -0.00159 0.26275 0.0
H451 H 0.63003 0.98657 0.29349 0.0
H452 H 0.63483 0.96904 0.26674 0.0
H453 H 0.58418 0.01932 0.19495 0.0
H454 H 0.59194 0.02628 0.23731 0.0
H455 H 0.61242 0.0369 0.20598 0.0
H456 H 0.62078 0.04703 0.32886 0.0
H457 H 0.67005 0.0755 0.25389 0.0
H458 H 0.59938 0.99091 0.30538 0.0
H459 H 0.58432 0.00306 0.28948 0.0
H460 H 0.59514 0.00948 0.33059 0.0
H461 H 0.65854 0.02402 0.21692 0.0
H462 H 0.67447 0.05347 0.21401 0.0
H463 H 0.64762 0.03876 0.19603 0.0
C464 C 0.57539 0.62023 0.27373 0.0
C465 C 0.57664 0.63922 0.26075 0.0
C466 C 0.58653 0.6107 0.25904 0.0
C467 C 0.59962 0.62065 0.23103 0.0
C468 C 0.60171 0.64032 0.21855 0.0
C469 C 0.58996 0.64927 0.23336 0.0
C470 C 0.58356 0.58949 0.27276 0.0
C471 C 0.61593 0.65161 0.18916 0.0
C472 C 0.63805 0.59939 0.21066 0.0
C473 C 0.62604 0.58368 0.18661 0.0
C474 C 0.63025 0.61252 0.22408 0.0
C475 C 0.60977 0.60946 0.21371 0.0
C476 C 0.59791 0.59407 0.18876 0.0
C477 C 0.60631 0.58153 0.17528 0.0
C478 C 0.64355 0.62912 0.25013 0.0
C479 C 0.57581 0.59002 0.17747 0.0
H480 H 0.56505 0.6123 0.29481 0.0
H481 H 0.59112 0.66405 0.22341 0.0
H482 H 0.57574 0.57638 0.25402 0.0
H483 H 0.59967 0.59121 0.27875 0.0
H484 H 0.57329 0.58422 0.29524 0.0
H485 H 0.61752 0.66785 0.18452 0.0
H486 H 0.63249 0.65381 0.19277 0.0
H487 H 0.60886 0.64132 0.16697 0.0
H488 H 0.65343 0.60127 0.21923 0.0
H489 H 0.59692 0.56938 0.15675 0.0
H490 H 0.6352 0.62371 0.2742 0.0
H491 H 0.64497 0.64515 0.24441 0.0
H492 H 0.66024 0.63139 0.25251 0.0
H493 H 0.564 0.58329 0.19811 0.0
H494 H 0.56927 0.57835 0.15658 0.0
H495 H 0.57682 0.60559 0.16991 0.0
C496 C 0.02171 0.60744 0.2103 0.0
C497 C 0.04173 0.62672 0.21502 0.0
C498 C 0.00342 0.60292 0.22925 0.0
C499 C 0.00506 0.61827 0.2531 0.0
C500 C 0.02495 0.63818 0.25711 0.0
C501 C 0.0432 0.64208 0.23824 0.0
C502 C 0.98256 0.58132 0.22456 0.0
C503 C 0.02708 0.65511 0.28177 0.0
C504 C 0.94918 0.60547 0.28274 0.0
C505 C 0.94666 0.59256 0.31037 0.0
C506 C 0.96893 0.61563 0.26521 0.0
C507 C 0.98629 0.6124 0.27529 0.0
C508 C 0.98434 0.60067 0.30444 0.0
C509 C 0.96461 0.59107 0.3218 0.0
C510 C 0.97067 0.62854 0.23472 0.0
C511 C 0.0024 0.59665 0.31583 0.0
H512 H 0.02048 0.59548 0.19245 0.0
H513 H 0.0586 0.65712 0.24169 0.0
H514 H 0.97843 0.57166 0.24761 0.0
H515 H 0.96879 0.58412 0.21894 0.0
H516 H 0.98389 0.57142 0.20443 0.0
H517 H 0.04282 0.6707 0.27925 0.0
H518 H 0.01343 0.65851 0.27888 0.0
H519 H 0.02606 0.64878 0.30702 0.0
H520 H 0.93548 0.60696 0.27402 0.0
H521 H 0.96288 0.58125 0.34326 0.0
H522 H 0.96925 0.61869 0.21266 0.0
H523 H 0.9868 0.64377 0.2336 0.0
H524 H 0.95758 0.6329 0.23361 0.0
H525 H 0.00396 0.58543 0.29837 0.0
H526 H -0.00078 0.58922 0.34071 0.0
H527 H 0.0183 0.61213 0.31621 0.0
C528 C 0.57371 0.94697 0.80066 0.0
C529 C 0.57381 0.92807 0.79039 0.0
C530 C 0.58465 0.96639 0.7826 0.0
C531 C 0.59631 0.967 0.75398 0.0
C532 C 0.59781 0.94846 0.74486 0.0
C533 C 0.58631 0.92908 0.76299 0.0
C534 C 0.58241 0.98575 0.79286 0.0
C535 C 0.61058 0.9487 0.71496 0.0
C536 C 0.59727 0.00441 0.68689 0.0
C537 C 0.61759 0.02325 0.69204 0.0
C538 C 0.5904 0.98586 0.70651 0.0
C539 C 0.6044 0.98598 0.73149 0.0
C540 C 0.62533 0.00459 0.73596 0.0
C541 C 0.63161 0.02316 0.71636 0.0
C542 C 0.56781 0.96642 0.70128 0.0
C543 C 0.64084 0.00505 0.76187 0.0
H544 H 0.56409 0.94628 0.82184 0.0
H545 H 0.58669 0.91458 0.75524 0.0
H546 H 0.59866 0.00081 0.79381 0.0
H547 H 0.57245 0.98849 0.77441 0.0
H548 H 0.57445 0.98329 0.81723 0.0
H549 H 0.61296 0.9343 0.71419 0.0
H550 H 0.60169 0.94861 0.69244 0.0
H551 H 0.62682 0.96381 0.71445 0.0
H552 H 0.5863 0.00439 0.66823 0.0
H553 H 0.64741 0.03764 0.72025 0.0
H554 H 0.55785 0.96343 0.7238 0.0
H555 H 0.56885 0.9515 0.69657 0.0
H556 H 0.55912 0.96883 0.68037 0.0
H557 H 0.63418 0.00483 0.78663 0.0
H558 H 0.65731 0.01982 0.7599 0.0
H559 H 0.64254 0.99029 0.75988 0.0
C560 C 0.65118 0.6021 0.75027 0.0
C561 C 0.63826 0.59069 0.77738 0.0
C562 C 0.6453 0.61441 0.72998 0.0
C563 C 0.62577 0.6147 0.73656 0.0
C564 C 0.6136 0.60456 0.76523 0.0
C565 C 0.62016 0.59292 0.78551 0.0
C566 C 0.65916 0.62585 0.70036 0.0
C567 C 0.59251 0.60424 0.77298 0.0
C568 C 0.60509 0.64829 0.69325 0.0
C569 C 0.59052 0.63298 0.67056 0.0
C570 C 0.61817 0.64328 0.71331 0.0
C571 C 0.61597 0.62226 0.71127 0.0
C572 C 0.60198 0.60715 0.68739 0.0
C573 C 0.58966 0.61283 0.66703 0.0
C574 C 0.63353 0.66009 0.73764 0.0
C575 C 0.59884 0.58439 0.68479 0.0
H576 H 0.66542 0.60077 0.74418 0.0
H577 H 0.61016 0.58431 0.80657 0.0
H578 H 0.6514 0.61594 0.67805 0.0
H579 H 0.66051 0.64206 0.69679 0.0
H580 H 0.67586 0.62812 0.7026 0.0
H581 H 0.58597 0.59716 0.79755 0.0
H582 H 0.59494 0.62101 0.77212 0.0
H583 H 0.58002 0.59435 0.75422 0.0
H584 H 0.60602 0.66402 0.69569 0.0
H585 H 0.57841 0.60095 0.64952 0.0
H586 H 0.64927 0.66016 0.73876 0.0
H587 H 0.62615 0.65597 0.7625 0.0
H588 H 0.63686 0.67679 0.73134 0.0
H589 H 0.61483 0.58521 0.68165 0.0
H590 H 0.58809 0.575 0.66392 0.0
H591 H 0.59143 0.57525 0.70781 0.0
C592 C 0.93649 0.58206 0.75175 0.0
C593 C 0.93707 0.56661 0.73074 0.0
C594 C 0.95538 0.59739 0.76856 0.0
C595 C 0.97501 0.59683 0.76469 0.0
C596 C 0.97556 0.58111 0.74373 0.0
C597 C 0.95665 0.56635 0.72679 0.0
C598 C 0.95439 0.61422 0.79024 0.0
C599 C -0.00392 0.5797 0.73941 0.0
C600 C 0.0323 0.64272 0.78202 0.0
C601 C 0.03694 0.63548 0.81138 0.0
C602 C 0.01142 0.63131 0.76783 0.0
C603 C -0.00498 0.61206 0.78313 0.0
C604 C -0.00084 0.60561 0.81394 0.0
C605 C 0.02003 0.61752 0.82784 0.0
C606 C 0.00742 0.63896 0.73531 0.0
C607 C 0.98219 0.58505 0.83088 0.0
H608 H 0.9214 0.5824 0.7546 0.0
H609 H 0.95712 0.55434 0.71073 0.0
H610 H 0.95844 0.61237 0.81592 0.0
H611 H 0.96674 0.63091 0.78212 0.0
H612 H 0.93801 0.61283 0.7899 0.0
H613 H -0.00637 0.56631 0.7225 0.0
H614 H 0.00943 0.59535 0.72955 0.0
H615 H 0.00159 0.57692 0.76354 0.0
H616 H 0.04519 0.65677 0.76941 0.0
H617 H 0.0234 0.61187 0.85067 0.0
H618 H 0.99125 0.63801 0.73518 0.0
H619 H 0.0073 0.62815 0.71542 0.0
H620 H 0.02027 0.65602 0.72964 0.0
H621 H 0.96611 0.58427 0.83129 0.0
H622 H 0.98692 0.5839 0.85651 0.0
H623 H 0.98007 0.57056 0.81706 0.0
C624 C 0.40683 0.02896 0.80327 0.0
C625 C 0.40707 0.04797 0.79261 0.0
C626 C 0.39508 0.00925 0.78612 0.0
C627 C 0.38291 0.00843 0.758 0.0
C628 C 0.38191 0.02716 0.74834 0.0
C629 C 0.39423 0.04683 0.76558 0.0
C630 C 0.3968 0.98969 0.79694 0.0
C631 C 0.36864 0.02669 0.71896 0.0
C632 C 0.3784 0.9675 0.69423 0.0
C633 C 0.35817 0.94924 0.70208 0.0
C634 C 0.38627 0.98714 0.71156 0.0
C635 C 0.37339 0.98868 0.73689 0.0
C636 C 0.35243 0.9707 0.74375 0.0
C637 C 0.34515 0.95103 0.72649 0.0
C638 C 0.40887 0.00586 0.70386 0.0
C639 C 0.33804 0.97198 0.77004 0.0
H640 H 0.41671 0.0297 0.82415 0.0
H641 H 0.39415 0.06142 0.75748 0.0
H642 H 0.3803 0.97516 0.79982 0.0
H643 H 0.40549 0.98571 0.77785 0.0
H644 H 0.40578 0.99264 0.82051 0.0
H645 H 0.36695 0.04149 0.71765 0.0
H646 H 0.37669 0.02574 0.69612 0.0
H647 H 0.3521 0.01198 0.7197 0.0
H648 H 0.38856 0.96621 0.67543 0.0
H649 H 0.32939 0.93701 0.73236 0.0
H650 H 0.41969 0.00925 0.72547 0.0
H651 H 0.40823 0.02094 0.69866 0.0
H652 H 0.41637 0.00233 0.68245 0.0
H653 H 0.34516 0.97259 0.79457 0.0
H654 H 0.32119 0.9577 0.76936 0.0
H655 H 0.33717 0.98716 0.76724 0.0
C656 C 0.36751 0.40774 0.77474 0.0
C657 C 0.348 0.40706 0.76586 0.0
C658 C 0.37451 0.39488 0.75853 0.0
C659 C 0.36141 0.38056 0.73326 0.0
C660 C 0.34108 0.37884 0.72534 0.0
C661 C 0.33472 0.39239 0.74146 0.0
C662 C 0.39651 0.39753 0.76734 0.0
C663 C 0.32642 0.36324 0.69919 0.0
C664 C 0.39551 0.37149 0.67088 0.0
C665 C 0.39523 0.35289 0.68356 0.0
C666 C 0.3834 0.37993 0.68567 0.0
C667 C 0.3703 0.36919 0.71337 0.0
C668 C 0.36858 0.34943 0.72468 0.0
C669 C 0.38134 0.34165 0.7099 0.0
C670 C 0.38603 0.40128 0.67323 0.0
C671 C 0.35424 0.3372 0.75352 0.0
H672 H 0.37791 0.41907 0.79351 0.0
H673 H 0.31951 0.39166 0.73475 0.0
H674 H 0.39475 0.38148 0.77387 0.0
H675 H 0.40761 0.40389 0.74582 0.0
H676 H 0.40437 0.40893 0.78825 0.0
H677 H 0.30986 0.3614 0.69952 0.0
H678 H 0.33374 0.36935 0.67464 0.0
H679 H 0.32483 0.3469 0.70247 0.0
H680 H 0.40618 0.38024 0.65047 0.0
H681 H 0.38081 0.32706 0.71945 0.0
H682 H 0.39494 0.41428 0.6918 0.0
H683 H 0.36984 0.3999 0.66948 0.0
H684 H 0.39526 0.40649 0.64976 0.0
H685 H 0.36211 0.34598 0.77659 0.0
H686 H 0.35151 0.32031 0.75529 0.0
H687 H 0.33817 0.33638 0.75165 0.0
C688 C 0.00938 0.4028 0.72661 0.0
C689 C 0.02891 0.40245 0.73074 0.0
C690 C 0.99068 0.38888 0.74462 0.0
C691 C 0.99136 0.3739 0.76698 0.0
C692 C 0.01095 0.37328 0.77119 0.0
C693 C 0.02965 0.38778 0.7532 0.0
C694 C 0.97022 0.39036 0.73986 0.0
C695 C 0.01208 0.35723 0.79444 0.0
C696 C 0.94688 0.35539 0.83081 0.0
C697 C 0.92983 0.33683 0.81563 0.0
C698 C 0.9676 0.36686 0.81633 0.0
C699 C 0.97146 0.35937 0.78621 0.0
C700 C 0.95488 0.33967 0.77215 0.0
C701 C 0.93415 0.32871 0.78689 0.0
C702 C 0.98475 0.38795 0.83189 0.0
C703 C 0.95855 0.33094 0.74039 0.0
H704 H 0.00877 0.41425 0.7095 0.0
H705 H 0.04469 0.38738 0.75627 0.0
H706 H 0.95667 0.37445 0.73107 0.0
H707 H 0.96505 0.39403 0.76363 0.0
H708 H 0.97259 0.40321 0.7219 0.0
H709 H 0.02844 0.35859 0.79447 0.0
H710 H 0.00822 0.35999 0.81978 0.0
H711 H -0.00035 0.34029 0.78747 0.0
H712 H 0.94373 0.36174 0.85313 0.0
H713 H 0.92116 0.3142 0.77528 0.0
H714 H 0.98681 0.40197 0.81686 0.0
H715 H 0.00079 0.38868 0.83267 0.0
H716 H 0.98024 0.38999 0.85725 0.0
H717 H 0.95875 0.34124 0.71967 0.0
H718 H 0.94551 0.31381 0.73567 0.0
H719 H 0.9746 0.33165 0.74069 0.0
C720 C 0.43723 0.17437 0.24986 0.0
C721 C 0.45192 0.17493 0.22624 0.0
C722 C 0.43759 0.19362 0.25954 0.0
C723 C 0.4528 0.21375 0.24487 0.0
C724 C 0.46794 0.21445 0.22151 0.0
C725 C 0.46742 0.19504 0.21265 0.0
C726 C 0.42144 0.19237 0.28496 0.0
C727 C 0.48426 0.23561 0.20517 0.0
C728 C 0.43838 0.25877 0.2449 0.0
C729 C 0.45135 0.27202 0.27073 0.0
C730 C 0.43894 0.23988 0.23587 0.0
C731 C 0.45258 0.23404 0.25343 0.0
C732 C 0.46592 0.24752 0.27923 0.0
C733 C 0.46526 0.26645 0.28742 0.0
C734 C 0.42475 0.22603 0.20785 0.0
C735 C 0.48051 0.24167 0.29865 0.0
H736 H 0.42527 0.15886 0.26047 0.0
H737 H 0.47876 0.19556 0.19425 0.0
H738 H 0.43018 0.20383 0.30544 0.0
H739 H 0.41029 0.19742 0.27387 0.0
H740 H 0.41144 0.17563 0.29517 0.0
H741 H 0.49527 0.23342 0.18806 0.0
H742 H 0.47549 0.24238 0.19121 0.0
H743 H 0.4944 0.24792 0.22396 0.0
H744 H 0.42763 0.26304 0.23192 0.0
H745 H 0.47522 0.27656 0.30756 0.0
H746 H 0.41279 0.20948 0.21694 0.0
H747 H 0.43495 0.22401 0.18901 0.0
H748 H 0.41566 0.23326 0.19599 0.0
H749 H 0.47047 0.2256 0.31078 0.0
H750 H 0.49006 0.25405 0.31777 0.0
H751 H 0.49208 0.2401 0.282 0.0
C752 C 0.17355 0.43093 0.25241 0.0
C753 C 0.17668 0.44537 0.27817 0.0
C754 C 0.19144 0.43075 0.23777 0.0
C755 C 0.21279 0.44514 0.24958 0.0
C756 C 0.216 0.45969 0.27562 0.0
C757 C 0.19791 0.45974 0.28946 0.0
C758 C 0.18753 0.41526 0.20966 0.0
C759 C 0.23855 0.47514 0.28901 0.0
C760 C 0.25799 0.43243 0.23233 0.0
C761 C 0.26919 0.44704 0.20675 0.0
C762 C 0.23947 0.43153 0.24649 0.0
C763 C 0.23192 0.44537 0.23435 0.0
C764 C 0.24307 0.46003 0.20837 0.0
C765 C 0.2617 0.4608 0.19503 0.0
C766 C 0.22809 0.41595 0.27456 0.0
C767 C 0.23534 0.47488 0.19464 0.0
H768 H 0.15716 0.41983 0.24365 0.0
H769 H 0.2004 0.47083 0.30955 0.0
H770 H 0.19662 0.42462 0.18761 0.0
H771 H 0.19381 0.40413 0.21608 0.0
H772 H 0.16993 0.40523 0.20327 0.0
H773 H 0.23815 0.48507 0.30989 0.0
H774 H 0.2464 0.46575 0.29741 0.0
H775 H 0.24901 0.48639 0.26939 0.0
H776 H 0.26377 0.42177 0.24141 0.0
H777 H 0.2702 0.472 0.17503 0.0
H778 H 0.21074 0.40457 0.26814 0.0
H779 H 0.22818 0.42523 0.29662 0.0
H780 H 0.23596 0.40619 0.28094 0.0
H781 H 0.2181 0.46506 0.1864 0.0
H782 H 0.24545 0.48478 0.17359 0.0
H783 H 0.23588 0.48617 0.21405 0.0
C784 C 0.73888 0.19408 0.22568 0.0
C785 C 0.72443 0.19576 0.24747 0.0
C786 C 0.75733 0.21289 0.21373 0.0
C787 C 0.7614 0.23374 0.22409 0.0
C788 C 0.74626 0.23553 0.2447 0.0
C789 C 0.72788 0.2165 0.25601 0.0
C790 C 0.77298 0.21041 0.1913 0.0
C791 C 0.75007 0.2575 0.2563 0.0
C792 C 0.82035 0.27951 0.2281 0.0
C793 C 0.82181 0.29176 0.2002 0.0
C794 C 0.80073 0.26057 0.23613 0.0
C795 C 0.78226 0.25362 0.21549 0.0
C796 C 0.78366 0.26587 0.18723 0.0
C797 C 0.80341 0.28491 0.18003 0.0
C798 C 0.79973 0.24802 0.26674 0.0
C799 C 0.76435 0.25879 0.16453 0.0
H800 H 0.73623 0.17808 0.21888 0.0
H801 H 0.71672 0.21793 0.27275 0.0
H802 H 0.77684 0.22116 0.16952 0.0
H803 H 0.78857 0.21554 0.20446 0.0
H804 H 0.76631 0.19328 0.18281 0.0
H805 H 0.73591 0.25614 0.27022 0.0
H806 H 0.7647 0.26524 0.27242 0.0
H807 H 0.75336 0.2686 0.23513 0.0
H808 H 0.83454 0.28476 0.24374 0.0
H809 H 0.80452 0.29424 0.15826 0.0
H810 H 0.79529 0.23104 0.26019 0.0
H811 H 0.78685 0.24701 0.28344 0.0
H812 H 0.81552 0.2557 0.28023 0.0
H813 H 0.75884 0.24206 0.15518 0.0
H814 H 0.76826 0.26998 0.14325 0.0
H815 H 0.75044 0.25815 0.17815 0.0
C816 C 0.52488 0.81169 0.17788 0.0
C817 C 0.53898 0.83015 0.19655 0.0
C818 C 0.52336 0.79141 0.18355 0.0
C819 C 0.53599 0.78947 0.20886 0.0
C820 C 0.55 0.80794 0.22818 0.0
C821 C 0.55147 0.82816 0.2216 0.0
C822 C 0.50843 0.77212 0.16223 0.0
C823 C 0.56341 0.80634 0.25578 0.0
C824 C 0.51712 0.73349 0.24515 0.0
C825 C 0.53206 0.72812 0.23139 0.0
C826 C 0.51809 0.75332 0.23775 0.0
C827 C 0.53416 0.76797 0.21561 0.0
C828 C 0.54869 0.76226 0.2005 0.0
C829 C 0.54757 0.74242 0.20878 0.0
C830 C 0.50244 0.75892 0.25455 0.0
C831 C 0.56574 0.77735 0.17625 0.0
H832 H 0.51532 0.81317 0.15826 0.0
H833 H 0.5624 0.84239 0.23605 0.0
H834 H 0.51795 0.76554 0.14992 0.0
H835 H 0.49586 0.75881 0.17759 0.0
H836 H 0.50003 0.77649 0.14313 0.0
H837 H 0.57329 0.82217 0.26876 0.0
H838 H 0.55251 0.79389 0.27384 0.0
H839 H 0.57461 0.80093 0.24602 0.0
H840 H 0.50513 0.72256 0.26277 0.0
H841 H 0.55914 0.73834 0.19809 0.0
H842 H 0.49322 0.76261 0.23603 0.0
H843 H 0.51174 0.77381 0.26981 0.0
H844 H 0.49056 0.74547 0.27054 0.0
H845 H 0.55794 0.78173 0.15628 0.0
H846 H 0.57487 0.7699 0.16517 0.0
H847 H 0.57758 0.79277 0.18871 0.0
C848 C 0.72408 0.53133 0.21522 0.0
C849 C 0.71659 0.5451 0.22695 0.0
C850 C 0.74368 0.53332 0.22659 0.0
C851 C 0.75588 0.5492 0.25073 0.0
C852 C 0.74826 0.56294 0.26312 0.0
C853 C 0.72873 0.56085 0.25083 0.0
C854 C 0.75141 0.51852 0.21257 0.0
C855 C 0.76069 0.57975 0.28938 0.0
C856 C 0.79412 0.53757 0.30034 0.0
C857 C 0.81435 0.55155 0.28562 0.0
C858 C 0.77507 0.5372 0.28988 0.0
C859 C 0.77624 0.55083 0.26363 0.0
C860 C 0.79663 0.56505 0.24868 0.0
C861 C 0.81556 0.5654 0.26012 0.0
C862 C 0.75367 0.52204 0.30672 0.0
C863 C 0.79834 0.57951 0.22021 0.0
H864 H 0.71486 0.51926 0.19651 0.0
H865 H 0.72298 0.57152 0.2599 0.0
H866 H 0.76804 0.52847 0.20206 0.0
H867 H 0.75249 0.50831 0.23235 0.0
H868 H 0.74035 0.50753 0.1931 0.0
H869 H 0.75248 0.58906 0.29653 0.0
H870 H 0.76244 0.5716 0.31153 0.0
H871 H 0.77742 0.59145 0.28061 0.0
H872 H 0.79316 0.52703 0.32038 0.0
H873 H 0.83121 0.57623 0.24878 0.0
H874 H 0.74231 0.50954 0.28907 0.0
H875 H 0.74578 0.53136 0.31529 0.0
H876 H 0.75582 0.51353 0.32809 0.0
H877 H 0.78851 0.56926 0.19924 0.0
H878 H 0.81549 0.59005 0.2119 0.0
H879 H 0.79154 0.59011 0.22718 0.0
C880 C 0.19377 0.7155 0.1952 0.0
C881 C 0.17484 0.70874 0.21406 0.0
C882 C 0.21306 0.73501 0.20236 0.0
C883 C 0.21348 0.74784 0.22933 0.0
C884 C 0.19455 0.74087 0.24888 0.0
C885 C 0.17537 0.72145 0.24084 0.0
C886 C 0.23287 0.74209 0.18077 0.0
C887 C 0.19455 0.75399 0.27819 0.0
C888 C 0.26754 0.78792 0.26837 0.0
C889 C 0.27048 0.80799 0.25714 0.0
C890 C 0.24926 0.76815 0.25894 0.0
C891 C 0.23375 0.76849 0.23736 0.0
C892 C 0.23715 0.78862 0.22464 0.0
C893 C 0.25544 0.8082 0.2349 0.0
C894 C 0.24608 0.747 0.27321 0.0
C895 C 0.22112 0.78951 0.20105 0.0
H896 H 0.19338 0.70581 0.17428 0.0
H897 H 0.16076 0.71626 0.25546 0.0
H898 H 0.23781 0.75828 0.16974 0.0
H899 H 0.24686 0.74397 0.19566 0.0
H900 H 0.22981 0.73025 0.16067 0.0
H901 H 0.17863 0.74602 0.29132 0.0
H902 H 0.20757 0.75625 0.29569 0.0
H903 H 0.1982 0.77049 0.27018 0.0
H904 H 0.27908 0.78764 0.28564 0.0
H905 H 0.2577 0.82368 0.22608 0.0
H906 H 0.24363 0.73527 0.2533 0.0
H907 H 0.23115 0.73936 0.28869 0.0
H908 H 0.26019 0.74949 0.28847 0.0
H909 H 0.21806 0.77835 0.18 0.0
H910 H 0.22701 0.80628 0.19147 0.0
H911 H 0.20524 0.78387 0.21358 0.0
C912 C 0.54831 0.72269 0.71254 0.0
C913 C 0.53529 0.71048 0.68602 0.0
C914 C 0.54623 0.73985 0.72593 0.0
C915 C 0.53094 0.745 0.71215 0.0
C916 C 0.5177 0.73269 0.68545 0.0
C917 C 0.51995 0.71546 0.67281 0.0
C918 C 0.56043 0.75252 0.75471 0.0
C919 C 0.50137 0.73788 0.67001 0.0
C920 C 0.51302 0.77718 0.7653 0.0
C921 C 0.52696 0.7986 0.75439 0.0
C922 C 0.51389 0.7595 0.75136 0.0
C923 C 0.52889 0.76336 0.72571 0.0
C924 C 0.54243 0.78484 0.71375 0.0
C925 C 0.54138 0.80227 0.72838 0.0
C926 C 0.49927 0.73679 0.76482 0.0
C927 C 0.55841 0.78948 0.68609 0.0
H928 H 0.56015 0.71884 0.72285 0.0
H929 H 0.50991 0.70613 0.65217 0.0
H930 H 0.57086 0.76998 0.74794 0.0
H931 H 0.55005 0.75184 0.77564 0.0
H932 H 0.57116 0.74612 0.76298 0.0
H933 H 0.49228 0.72665 0.6494 0.0
H934 H 0.48943 0.73676 0.68869 0.0
H935 H 0.50991 0.7549 0.66061 0.0
H936 H 0.50187 0.77427 0.78546 0.0
H937 H 0.55213 0.8188 0.71981 0.0
H938 H 0.50942 0.73044 0.77566 0.0
H939 H 0.48951 0.72547 0.74475 0.0
H940 H 0.48791 0.73647 0.78396 0.0
H941 H 0.57093 0.7853 0.69388 0.0
H942 H 0.56684 0.8069 0.6784 0.0
H943 H 0.54981 0.77911 0.66451 0.0
C944 C 0.72608 0.54139 0.74137 0.0
C945 C 0.71002 0.52689 0.76317 0.0
C946 C 0.74413 0.53904 0.73341 0.0
C947 C 0.74622 0.52196 0.74798 0.0
C948 C 0.72976 0.50694 0.76931 0.0
C949 C 0.71177 0.5095 0.77647 0.0
C950 C 0.76122 0.55513 0.71009 0.0
C951 C 0.73154 0.48864 0.78549 0.0
C952 C 0.78508 0.50594 0.70963 0.0
C953 C 0.80393 0.51788 0.72879 0.0
C954 C 0.76614 0.50707 0.71563 0.0
C955 C 0.76597 0.52021 0.74172 0.0
C956 C 0.78473 0.53181 0.76176 0.0
C957 C 0.80358 0.53064 0.75489 0.0
C958 C 0.7465 0.49465 0.69356 0.0
C959 C 0.78498 0.5457 0.79016 0.0
H960 H 0.72476 0.55482 0.73098 0.0
H961 H 0.69945 0.49827 0.79344 0.0
H962 H 0.77698 0.56477 0.72324 0.0
H963 H 0.76401 0.54629 0.68984 0.0
H964 H 0.75649 0.56663 0.69933 0.0
H965 H 0.71694 0.47789 0.80056 0.0
H966 H 0.73365 0.47849 0.76665 0.0
H967 H 0.74619 0.49559 0.80155 0.0
H968 H 0.78531 0.49617 0.68925 0.0
H969 H 0.8181 0.53987 0.76977 0.0
H970 H 0.74265 0.50627 0.68102 0.0
H971 H 0.73198 0.48345 0.70835 0.0
H972 H 0.7492 0.48491 0.67462 0.0
H973 H 0.78249 0.55909 0.78097 0.0
H974 H 0.80059 0.55303 0.8041 0.0
H975 H 0.77134 0.5357 0.80724 0.0
C976 C 0.25349 0.81868 0.74062 0.0
C977 C 0.26526 0.81821 0.71329 0.0
C978 C 0.23361 0.80019 0.74927 0.0
C979 C 0.22521 0.78111 0.72961 0.0
C980 C 0.23673 0.78083 0.70142 0.0
C981 C 0.25677 0.79932 0.69382 0.0
C982 C 0.2219 0.80086 0.77989 0.0
C983 C 0.22808 0.7609 0.67957 0.0
C984 C 0.18853 0.72694 0.77074 0.0
C985 C 0.16766 0.72311 0.7622 0.0
C986 C 0.20735 0.74572 0.76012 0.0
C987 C 0.20528 0.76086 0.73993 0.0
C988 C 0.18432 0.7567 0.73001 0.0
C989 C 0.16567 0.73789 0.74153 0.0
C990 C 0.22945 0.74968 0.77138 0.0
C991 C 0.18163 0.77231 0.70782 0.0
H992 H 0.26003 0.83334 0.75556 0.0
H993 H 0.26568 0.79905 0.67232 0.0
H994 H 0.20487 0.79651 0.7739 0.0
H995 H 0.221 0.78857 0.79777 0.0
H996 H 0.23021 0.8172 0.79182 0.0
H997 H 0.23814 0.76401 0.65712 0.0
H998 H 0.22783 0.7472 0.69327 0.0
H999 H 0.21101 0.7555 0.67211 0.0
H1000 H 0.1902 0.71562 0.7868 0.0
H1001 H 0.14956 0.73497 0.73486 0.0
H1002 H 0.23794 0.76518 0.78552 0.0
H1003 H 0.23983 0.75145 0.74987 0.0
H1004 H 0.22818 0.73622 0.78707 0.0
H1005 H 0.18776 0.78827 0.72039 0.0
H1006 H 0.16429 0.76602 0.70075 0.0
H1007 H 0.19149 0.77538 0.68519 0.0
C1008 C 0.43699 0.26131 0.74763 0.0
C1009 C 0.45144 0.27539 0.72376 0.0
C1010 C 0.43836 0.24318 0.75851 0.0
C1011 C 0.4543 0.23896 0.74472 0.0
C1012 C 0.46932 0.25349 0.72135 0.0
C1013 C 0.46782 0.27164 0.71137 0.0
C1014 C 0.42241 0.22822 0.78406 0.0
C1015 C 0.48641 0.2494 0.70591 0.0
C1016 C 0.46918 0.20083 0.78803 0.0
C1017 C 0.45607 0.18108 0.7714 0.0
C1018 C 0.46861 0.21977 0.77981 0.0
C1019 C 0.45492 0.21901 0.75392 0.0
C1020 C 0.44205 0.19927 0.73646 0.0
C1021 C 0.44262 0.18042 0.74565 0.0
C1022 C 0.48233 0.24048 0.79922 0.0
C1023 C 0.42762 0.19805 0.70822 0.0
H1024 H 0.42435 0.26419 0.75731 0.0
H1025 H 0.47902 0.28244 0.69282 0.0
H1026 H 0.41159 0.21187 0.77316 0.0
H1027 H 0.43133 0.22594 0.80471 0.0
H1028 H 0.41205 0.23463 0.79398 0.0
H1029 H 0.49728 0.26268 0.68883 0.0
H1030 H 0.49663 0.24781 0.72518 0.0
H1031 H 0.47829 0.23375 0.69209 0.0
H1032 H 0.47945 0.20135 0.80821 0.0
H1033 H 0.43247 0.16517 0.73279 0.0
H1034 H 0.47164 0.24598 0.81069 0.0
H1035 H 0.49376 0.25376 0.78266 0.0
H1036 H 0.49197 0.23825 0.81884 0.0
H1037 H 0.41518 0.2021 0.71694 0.0
H1038 H 0.41907 0.18158 0.69667 0.0
H1039 H 0.43754 0.21026 0.68921 0.0
C1040 C 0.18269 0.47106 0.70075 0.0
C1041 C 0.16485 0.45738 0.72077 0.0
C1042 C 0.20303 0.4724 0.7048 0.0
C1043 C 0.20568 0.46005 0.72983 0.0
C1044 C 0.18792 0.44668 0.75074 0.0
C1045 C 0.16762 0.44537 0.74578 0.0
C1046 C 0.22153 0.48664 0.6818 0.0
C1047 C 0.19029 0.43359 0.7781 0.0
C1048 C 0.2508 0.44583 0.72418 0.0
C1049 C 0.26654 0.46132 0.74542 0.0
C1050 C 0.23112 0.44561 0.71811 0.0
C1051 C 0.22703 0.46104 0.73408 0.0
C1052 C 0.24314 0.47711 0.75478 0.0
C1053 C 0.26278 0.47716 0.75998 0.0
C1054 C 0.21447 0.42852 0.69532 0.0
C1055 C 0.23929 0.49371 0.77245 0.0
H1056 H 0.18062 0.48028 0.68119 0.0
H1057 H 0.15388 0.43479 0.76131 0.0
H1058 H 0.23584 0.49892 0.69598 0.0
H1059 H 0.22681 0.47646 0.66817 0.0
H1060 H 0.21682 0.49537 0.66376 0.0
H1061 H 0.17514 0.42463 0.79293 0.0
H1062 H 0.19442 0.42156 0.76771 0.0
H1063 H 0.20392 0.44456 0.7946 0.0
H1064 H 0.25364 0.43357 0.71285 0.0
H1065 H 0.27482 0.48912 0.77658 0.0
H1066 H 0.20965 0.43641 0.67607 0.0
H1067 H 0.1995 0.41736 0.7093 0.0
H1068 H 0.22072 0.41862 0.68322 0.0
H1069 H 0.23508 0.5029 0.75461 0.0
H1070 H 0.25378 0.50557 0.78682 0.0
H1071 H 0.22522 0.48519 0.78944 0.0
C1072 C 0.80323 0.23536 0.74177 0.0
C1073 C 0.79991 0.24714 0.7666 0.0
C1074 C 0.78542 0.21727 0.72694 0.0
C1075 C 0.76394 0.21076 0.73759 0.0
C1076 C 0.76051 0.22288 0.76218 0.0
C1077 C 0.77853 0.24101 0.77622 0.0
C1078 C 0.78958 0.20489 0.70034 0.0
C1079 C 0.73783 0.21634 0.77434 0.0
C1080 C 0.71445 0.17426 0.68561 0.0
C1081 C 0.7071 0.15381 0.70039 0.0
C1082 C 0.73336 0.19285 0.69682 0.0
C1083 C 0.74494 0.19097 0.72377 0.0
C1084 C 0.73766 0.17035 0.73871 0.0
C1085 C 0.71887 0.15195 0.72665 0.0
C1086 C 0.74081 0.21454 0.68007 0.0
C1087 C 0.74946 0.16784 0.76784 0.0
H1088 H 0.81973 0.24009 0.73422 0.0
H1089 H 0.77584 0.25002 0.79546 0.0
H1090 H 0.7841 0.18797 0.70873 0.0
H1091 H 0.77998 0.20364 0.67806 0.0
H1092 H 0.80715 0.21279 0.69357 0.0
H1093 H 0.73798 0.22774 0.79327 0.0
H1094 H 0.72741 0.21582 0.75359 0.0
H1095 H 0.73008 0.19966 0.78501 0.0
H1096 H 0.70552 0.17572 0.66504 0.0
H1097 H 0.71324 0.13615 0.73808 0.0
H1098 H 0.75812 0.22181 0.67227 0.0
H1099 H 0.73994 0.22614 0.69754 0.0
H1100 H 0.7307 0.21296 0.65821 0.0
H1101 H 0.76685 0.1739 0.76161 0.0
H1102 H 0.742 0.15057 0.7761 0.0
H1103 H 0.74919 0.17787 0.78864 0.0
C1104 C 0.43602 0.10741 0.0589 0.0
C1105 C 0.42753 0.116 0.08169 0.0
C1106 C 0.43273 0.10841 0.02531 0.0
C1107 C 0.42118 0.11883 0.01435 0.0
C1108 C 0.41164 0.12661 0.03734 0.0
C1109 C 0.41476 0.12489 0.07101 0.0
C1110 C 0.44271 0.09939 0.00155 0.0
C1111 C 0.39944 0.13801 0.02651 0.0
C1112 C 0.44472 0.14294 0.93243 0.0
C1113 C 0.43009 0.12638 0.91149 0.0
C1114 C 0.44056 0.14201 0.96609 0.0
C1115 C 0.42168 0.12368 0.97897 0.0
C1116 C 0.40587 0.10795 0.9575 0.0
C1117 C 0.4102 0.10962 0.92371 0.0
C1118 C 0.45747 0.15948 0.98815 0.0
C1119 C 0.38558 0.08819 0.97037 0.0
H1120 H 0.44559 0.10021 0.06735 0.0
H1121 H 0.40821 0.13151 0.08884 0.0
H1122 H 0.43048 0.08884 0.98295 0.0
H1123 H 0.45649 0.11307 0.98831 0.0
H1124 H 0.449 0.08969 0.01415 0.0
H1125 H 0.3894 0.13902 0.04669 0.0
H1126 H 0.41138 0.15489 0.01858 0.0
H1127 H 0.38867 0.12952 0.00526 0.0
H1128 H 0.45992 0.1561 0.92268 0.0
H1129 H 0.39886 0.09687 0.90731 0.0
H1130 H 0.46707 0.15302 0.00058 0.0
H1131 H 0.44953 0.1642 0.00745 0.0
H1132 H 0.46898 0.17434 0.97415 0.0
H1133 H 0.38997 0.07608 0.97953 0.0
H1134 H 0.37298 0.08026 0.95091 0.0
H1135 H 0.37844 0.09263 0.9912 0.0
C1136 C 0.31928 0.44469 0.90857 0.0
C1137 C 0.30172 0.4361 0.88661 0.0
C1138 C 0.31588 0.44004 0.94205 0.0
C1139 C 0.29427 0.427 0.9539 0.0
C1140 C 0.27647 0.41771 0.93171 0.0
C1141 C 0.28046 0.42219 0.89804 0.0
C1142 C 0.3354 0.44984 0.96486 0.0
C1143 C 0.25322 0.40409 0.9436 0.0
C1144 C 0.29533 0.4112 0.04181 0.0
C1145 C 0.29778 0.42989 0.05764 0.0
C1146 C 0.29202 0.40879 0.00775 0.0
C1147 C 0.29069 0.42526 0.98979 0.0
C1148 C 0.2906 0.4428 0.00648 0.0
C1149 C 0.29456 0.44511 0.04026 0.0
C1150 C 0.29234 0.38995 0.99076 0.0
C1151 C 0.28857 0.46034 0.98829 0.0
H1152 H 0.33576 0.45519 0.89957 0.0
H1153 H 0.26691 0.41557 0.88085 0.0
H1154 H 0.33494 0.46243 0.98062 0.0
H1155 H 0.33494 0.43707 0.98125 0.0
H1156 H 0.35115 0.45764 0.95128 0.0
H1157 H 0.24175 0.39517 0.92317 0.0
H1158 H 0.25191 0.3921 0.96235 0.0
H1159 H 0.24802 0.41492 0.95539 0.0
H1160 H 0.29779 0.39943 0.05549 0.0
H1161 H 0.29612 0.45937 0.05285 0.0
H1162 H 0.30876 0.3958 0.97994 0.0
H1163 H 0.28026 0.38344 0.97045 0.0
H1164 H 0.28887 0.37646 0.00812 0.0
H1165 H 0.30425 0.47138 0.97576 0.0
H1166 H 0.28471 0.47033 0.00512 0.0
H1167 H 0.27566 0.45302 0.9692 0.0
C1168 C 0.83988 0.27428 0.94597 0.0
C1169 C 0.85435 0.27553 0.92153 0.0
C1170 C 0.84674 0.27907 0.97863 0.0
C1171 C 0.86874 0.2858 0.98654 0.0
C1172 C 0.8826 0.28455 0.96262 0.0
C1173 C 0.87513 0.27922 0.93018 0.0
C1174 C 0.83123 0.27952 0.00373 0.0
C1175 C 0.90609 0.29144 0.97019 0.0
C1176 C 0.88998 0.33238 0.04695 0.0
C1177 C 0.88862 0.32171 0.0765 0.0
C1178 C 0.885 0.32108 0.01712 0.0
C1179 C 0.87811 0.29846 0.01706 0.0
C1180 C 0.87795 0.28789 0.04661 0.0
C1181 C 0.88337 0.29974 0.0761 0.0
C1182 C 0.88587 0.33308 0.98592 0.0
C1183 C 0.87063 0.26383 0.0475 0.0
H1184 H 0.82375 0.27124 0.93911 0.0
H1185 H 0.88634 0.28023 0.91116 0.0
H1186 H 0.83266 0.27262 0.02745 0.0
H1187 H 0.83547 0.29671 0.00817 0.0
H1188 H 0.81397 0.27021 -0.0047 0.0
H1189 H 0.91295 0.28484 0.95186 0.0
H1190 H 0.91603 0.30956 0.96963 0.0
H1191 H 0.90771 0.28599 -0.00495 0.0
H1192 H 0.89433 0.34945 0.04724 0.0
H1193 H 0.88231 0.29144 0.09901 0.0
H1194 H 0.86903 0.32699 0.97657 0.0
H1195 H 0.89508 0.33 0.96661 0.0
H1196 H 0.89367 0.35102 0.98979 0.0
H1197 H 0.85253 0.25422 0.04613 0.0
H1198 H 0.87585 0.25927 0.0705 0.0
H1199 H 0.87714 0.25907 0.02621 0.0
C1200 C 0.58145 0.88226 0.06106 0.0
C1201 C 0.56946 0.89289 0.06642 0.0
C1202 C 0.58315 0.87539 0.0294 0.0
C1203 C 0.57292 0.87967 0.00285 0.0
C1204 C 0.56252 0.89216 0.00793 0.0
C1205 C 0.56069 0.89839 0.03979 0.0
C1206 C 0.5943 0.86207 0.02496 0.0
C1207 C 0.55186 0.89757 0.98008 0.0
C1208 C 0.5783 0.8726 0.91239 0.0
C1209 C 0.55753 0.85469 0.90595 0.0
C1210 C 0.58473 0.87992 0.94468 0.0
C1211 C 0.57011 0.86877 0.97073 0.0
C1212 C 0.55031 0.84911 0.9645 0.0
C1213 C 0.54412 0.84244 0.93202 0.0
C1214 C 0.60601 0.90086 0.95042 0.0
C1215 C 0.53456 0.83638 -0.00822 0.0
H1216 H 0.58818 0.87797 0.08181 0.0
H1217 H 0.55165 0.90686 0.04406 0.0
H1218 H 0.58173 0.84447 0.02384 0.0
H1219 H 0.60367 0.86628 0.00166 0.0
H1220 H 0.60552 0.86447 0.04569 0.0
H1221 H 0.54682 0.90955 0.98753 0.0
H1222 H 0.56318 0.90436 0.9589 0.0
H1223 H 0.53711 0.88243 0.97165 0.0
H1224 H 0.58874 0.88206 0.89212 0.0
H1225 H 0.52821 0.8284 0.92695 0.0
H1226 H 0.61406 0.89995 0.97327 0.0
H1227 H 0.60267 0.91456 0.95321 0.0
H1228 H 0.61748 0.90469 0.92951 0.0
H1229 H 0.5434 0.83473 0.01313 0.0
H1230 H 0.5219 0.81978 0.98362 0.0
H1231 H 0.5262 0.84529 0.00019 0.0
C1232 C 0.68715 0.54293 0.05844 0.0
C1233 C 0.68562 0.55867 0.07731 0.0
C1234 C 0.69003 0.54539 0.02445 0.0
C1235 C 0.69074 0.5637 0.0091 0.0
C1236 C 0.69104 0.58054 0.02839 0.0
C1237 C 0.68869 0.57791 0.06254 0.0
C1238 C 0.69027 0.52737 0.00476 0.0
C1239 C 0.6916 0.60022 0.01285 0.0
C1240 C 0.6998 0.56841 0.91702 0.0
C1241 C 0.67823 0.55597 0.90583 0.0
C1242 C 0.70431 0.5718 0.95076 0.0
C1243 C 0.68674 0.56289 0.97336 0.0
C1244 C 0.6649 0.55133 0.96189 0.0
C1245 C 0.66094 0.54778 0.92824 0.0
C1246 C 0.72777 0.58387 0.96222 0.0
C1247 C 0.64567 0.54198 0.98521 0.0
H1248 H 0.68512 0.52822 0.07011 0.0
H1249 H 0.68755 0.5901 0.07728 0.0
H1250 H 0.67416 0.51737 -0.00735 0.0
H1251 H 0.70287 0.53429 0.98521 0.0
H1252 H 0.69348 0.51641 0.02045 0.0
H1253 H 0.69596 0.61356 0.03094 0.0
H1254 H 0.70344 0.6066 -0.00775 0.0
H1255 H 0.67521 0.59535 0.00266 0.0
H1256 H 0.71315 0.5747 0.89952 0.0
H1257 H 0.64423 0.53843 0.91945 0.0
H1258 H 0.73194 0.57207 0.97335 0.0
H1259 H 0.73018 0.59603 0.98143 0.0
H1260 H 0.73931 0.5924 0.94172 0.0
H1261 H 0.64548 0.52864 -0.00012 0.0
H1262 H 0.62979 0.53525 0.97211 0.0
H1263 H 0.64714 0.55474 0.00262 0.0
C1264 C 0.10306 0.69749 0.92963 0.0
C1265 C 0.12184 0.69952 0.91471 0.0
C1266 C 0.10107 0.6965 0.96392 0.0
C1267 C 0.11847 0.69804 0.98319 0.0
C1268 C 0.13851 0.70305 0.96816 0.0
C1269 C 0.13983 0.70337 0.93391 0.0
C1270 C 0.07944 0.69111 0.97906 0.0
C1271 C 0.15769 0.70553 0.98799 0.0
C1272 C 0.11645 0.69587 0.07618 0.0
C1273 C 0.1108 0.67405 0.0816 0.0
C1274 C 0.11848 0.70397 0.04416 0.0
C1275 C 0.11433 0.68974 0.01728 0.0
C1276 C 0.10761 0.66743 0.02279 0.0
C1277 C 0.10618 0.65993 0.05494 0.0
C1278 C 0.12604 0.7279 0.03914 0.0
C1279 C 0.10259 0.65159 -0.00529 0.0
H1280 H 0.08914 0.69444 0.91462 0.0
H1281 H 0.1544 0.70514 0.92211 0.0
H1282 H 0.07005 0.67336 0.98466 0.0
H1283 H 0.08184 0.70009 0.00246 0.0
H1284 H 0.06952 0.69503 0.96219 0.0
H1285 H 0.1731 0.71353 0.97358 0.0
H1286 H 0.15992 0.71525 0.01055 0.0
H1287 H 0.15457 0.68913 -0.00433 0.0
H1288 H 0.12011 0.70681 0.09692 0.0
H1289 H 0.10157 0.643 0.05923 0.0
H1290 H 0.11599 0.73007 0.02021 0.0
H1291 H 0.14317 0.7364 0.03022 0.0
H1292 H 0.12535 0.73593 0.06223 0.0
H1293 H 0.09068 0.65221 0.97762 0.0
H1294 H 0.09581 0.63447 0.00332 0.0
H1295 H 0.11774 0.65626 0.98061 0.0
C1296 C 0.86692 0.56491 0.59155 0.0
C1297 C 0.87107 0.54779 0.59782 0.0
C1298 C 0.86694 0.57189 0.5593 0.0
C1299 C 0.87161 0.56171 0.53311 0.0
C1300 C 0.87695 0.54521 0.5396 0.0
C1301 C 0.87636 0.53828 0.57189 0.0
C1302 C 0.86087 0.58928 0.55319 0.0
C1303 C 0.88247 0.53426 0.51231 0.0
C1304 C 0.8486 0.55236 0.44796 0.0
C1305 C 0.86719 0.56657 0.42997 0.0
C1306 C 0.84912 0.5524 0.48225 0.0
C1307 C 0.86897 0.56648 0.4986 0.0
C1308 C 0.88726 0.58217 0.48056 0.0
C1309 C 0.88606 0.58218 0.44619 0.0
C1310 C 0.82907 0.53588 0.50071 0.0
C1311 C 0.90874 0.59731 0.49713 0.0
H1312 H 0.86282 0.57224 0.61171 0.0
H1313 H 0.87987 0.52525 0.57685 0.0
H1314 H 0.87234 0.60164 0.53552 0.0
H1315 H 0.8443 0.58163 0.54214 0.0
H1316 H 0.8608 0.5977 0.5762 0.0
H1317 H 0.88827 0.5233 0.52182 0.0
H1318 H 0.86777 0.5244 0.49692 0.0
H1319 H 0.89531 0.54672 0.49618 0.0
H1320 H 0.83399 0.54043 0.43513 0.0
H1321 H 0.90044 0.59308 0.43203 0.0
H1322 H 0.82643 0.54337 0.52291 0.0
H1323 H 0.83143 0.52221 0.50892 0.0
H1324 H 0.81414 0.52901 0.4852 0.0
H1325 H 0.90615 0.60394 0.52033 0.0
H1326 H 0.91972 0.61115 0.48095 0.0
H1327 H 0.91709 0.58801 0.50342 0.0
C1328 C 0.29887 0.88632 0.56235 0.0
C1329 C 0.30057 0.86982 0.57872 0.0
C1330 C 0.29448 0.8846 0.52856 0.0
C1331 C 0.29133 0.86576 0.51146 0.0
C1332 C 0.2904 0.848 0.52893 0.0
C1333 C 0.29545 0.85043 0.56237 0.0
C1334 C 0.29567 0.90389 0.51071 0.0
C1335 C 0.28641 0.82737 0.51173 0.0
C1336 C 0.27976 0.85749 0.42001 0.0
C1337 C 0.30064 0.8636 0.40807 0.0
C1338 C 0.27634 0.85868 0.45375 0.0
C1339 C 0.29436 0.86658 0.47549 0.0
C1340 C 0.3156 0.87369 0.46315 0.0
C1341 C 0.31841 0.87179 0.42967 0.0
C1342 C 0.25343 0.85059 0.46619 0.0
C1343 C 0.33537 0.88266 0.48544 0.0
H1344 H 0.30269 0.90124 0.5753 0.0
H1345 H 0.29634 0.83751 0.57545 0.0
H1346 H 0.31191 0.91333 0.49879 0.0
H1347 H 0.28309 0.89845 0.49115 0.0
H1348 H 0.29354 0.91498 0.52775 0.0
H1349 H 0.28193 0.81375 0.52933 0.0
H1350 H 0.2732 0.82215 0.49322 0.0
H1351 H 0.3015 0.83052 0.49866 0.0
H1352 H 0.26604 0.85116 0.40317 0.0
H1353 H 0.33462 0.87678 0.42041 0.0
H1354 H 0.25318 0.8619 0.48487 0.0
H1355 H 0.24734 0.83447 0.4782 0.0
H1356 H 0.24201 0.84865 0.446 0.0
H1357 H 0.33615 0.89582 0.50127 0.0
H1358 H 0.35092 0.88935 0.47147 0.0
H1359 H 0.33409 0.86949 0.50177 0.0
C1360 C 0.43457 0.29229 0.55553 0.0
C1361 C 0.41952 0.29311 0.57689 0.0
C1362 C 0.43019 0.28894 0.52193 0.0
C1363 C 0.41058 0.28705 0.50957 0.0
C1364 C 0.39431 0.28545 0.53151 0.0
C1365 C 0.39894 0.28836 0.56523 0.0
C1366 C 0.44767 0.29 0.49938 0.0
C1367 C 0.37313 0.28322 0.51925 0.0
C1368 C 0.42437 0.31986 0.43198 0.0
C1369 C 0.4179 0.30357 0.4081 0.0
C1370 C 0.4202 0.31444 0.46515 0.0
C1371 C 0.40982 0.29216 0.47457 0.0
C1372 C 0.4019 0.27555 0.45035 0.0
C1373 C 0.40589 0.2815 0.41711 0.0
C1374 C 0.42842 0.33269 0.49018 0.0
C1375 C 0.39082 0.25166 0.45946 0.0
H1376 H 0.45031 0.29555 0.56485 0.0
H1377 H 0.38723 0.28883 0.58194 0.0
H1378 H 0.44034 0.27747 0.47975 0.0
H1379 H 0.45631 0.30629 0.4874 0.0
H1380 H 0.45993 0.28752 0.51291 0.0
H1381 H 0.36043 0.27697 0.53874 0.0
H1382 H 0.37603 0.29951 0.5114 0.0
H1383 H 0.36685 0.27214 0.49771 0.0
H1384 H 0.43335 0.33693 0.42476 0.0
H1385 H 0.4009 0.26895 0.39842 0.0
H1386 H 0.44258 0.33367 0.50357 0.0
H1387 H 0.41552 0.32943 0.50849 0.0
H1388 H 0.43371 0.34883 0.47863 0.0
H1389 H 0.40346 0.24729 0.46565 0.0
H1390 H 0.38086 0.24106 0.43882 0.0
H1391 H 0.38018 0.24812 0.4813 0.0
C1392 C 0.09116 0.42987 0.56792 0.0
C1393 C 0.09769 0.42184 0.59431 0.0
C1394 C 0.09486 0.42591 0.53563 0.0
C1395 C 0.10584 0.41406 0.52976 0.0
C1396 C 0.11126 0.40473 0.5563 0.0
C1397 C 0.10692 0.4086 0.58848 0.0
C1398 C 0.08833 0.4357 0.5079 0.0
C1399 C 0.12307 0.39212 0.55099 0.0
C1400 C 0.10536 0.40261 0.43948 0.0
C1401 C 0.12338 0.42234 0.42926 0.0
C1402 C 0.10039 0.39844 0.47295 0.0
C1403 C 0.11403 0.41427 0.49628 0.0
C1404 C 0.13367 0.4329 0.48608 0.0
C1405 C 0.13797 0.43686 0.45253 0.0
C1406 C 0.07938 0.37834 0.48295 0.0
C1407 C 0.14899 0.44985 0.51032 0.0
H1408 H 0.08373 0.43986 0.57258 0.0
H1409 H 0.11198 0.40241 0.60904 0.0
H1410 H 0.1032 0.44929 0.49651 0.0
H1411 H 0.07946 0.42329 0.48856 0.0
H1412 H 0.07775 0.44223 0.51644 0.0
H1413 H 0.12175 0.38204 0.57275 0.0
H1414 H 0.11662 0.38132 0.52917 0.0
H1415 H 0.14065 0.4038 0.5465 0.0
H1416 H 0.09411 0.39132 0.42137 0.0
H1417 H 0.15211 0.45194 0.44447 0.0
H1418 H 0.06667 0.38293 0.48734 0.0
H1419 H 0.0815 0.37132 0.50608 0.0
H1420 H 0.07334 0.36558 0.46352 0.0
H1421 H 0.14163 0.45961 0.51916 0.0
H1422 H 0.1651 0.4612 0.49913 0.0
H1423 H 0.15161 0.44191 0.53198 0.0
C1424 C 0.70201 0.1536 0.42559 0.0
C1425 C 0.70272 0.14083 0.3999 0.0
C1426 C 0.70038 0.1467 0.45818 0.0
C1427 C 0.69875 0.12625 0.46484 0.0
C1428 C 0.70163 0.11437 0.43923 0.0
C1429 C 0.70383 0.12198 0.40689 0.0
C1430 C 0.69809 0.16019 0.48502 0.0
C1431 C 0.69987 0.09247 0.44534 0.0
C1432 C 0.69449 0.11054 0.5546 0.0
C1433 C 0.67187 0.10082 0.55943 0.0
C1434 C 0.70364 0.11822 0.52348 0.0
C1435 C 0.68971 0.11559 0.4968 0.0
C1436 C 0.66673 0.10437 0.50126 0.0
C1437 C 0.65812 0.09739 0.5327 0.0
C1438 C 0.72819 0.13039 0.51973 0.0
C1439 C 0.65126 0.10073 0.47319 0.0
H1440 H 0.70137 0.16829 0.42005 0.0
H1441 H 0.70432 0.11206 0.38692 0.0
H1442 H 0.68067 0.15255 0.49238 0.0
H1443 H 0.70762 0.16077 0.50704 0.0
H1444 H 0.70366 0.17718 0.47683 0.0
H1445 H 0.70686 0.08761 0.42473 0.0
H1446 H 0.70829 0.09262 0.46841 0.0
H1447 H 0.68237 0.07984 0.44796 0.0
H1448 H 0.70511 0.1133 0.57546 0.0
H1449 H 0.64061 0.08969 0.53654 0.0
H1450 H 0.73413 0.14817 0.51782 0.0
H1451 H 0.73313 0.1254 0.49693 0.0
H1452 H 0.73641 0.12769 0.541 0.0
H1453 H 0.65317 0.11663 0.46527 0.0
H1454 H 0.6339 0.08973 0.4801 0.0
H1455 H 0.65515 0.09354 0.45179 0.0
C1456 C 0.58116 0.70246 0.38383 0.0
C1457 C 0.56182 0.70161 0.37359 0.0
C1458 C 0.58582 0.70285 0.41738 0.0
C1459 C 0.57091 0.70275 0.44069 0.0
C1460 C 0.55291 0.70478 0.43015 0.0
C1461 C 0.5484 0.70387 0.3966 0.0
C1462 C 0.60524 0.70081 0.42771 0.0
C1463 C 0.53698 0.70539 0.45429 0.0
C1464 C 0.55461 0.66617 0.51478 0.0
C1465 C 0.5641 0.68135 0.54025 0.0
C1466 C 0.55805 0.67293 0.48206 0.0
C1467 C 0.57095 0.6955 0.47474 0.0
C1468 C 0.58154 0.71081 0.50029 0.0
C1469 C 0.5781 0.70349 0.53296 0.0
C1470 C 0.54683 0.65598 0.45542 0.0
C1471 C 0.59529 0.73498 0.49341 0.0
H1472 H 0.59158 0.70079 0.36589 0.0
H1473 H 0.53361 0.70355 0.38844 0.0
H1474 H 0.61309 0.71068 0.45 0.0
H1475 H 0.59966 0.68347 0.43371 0.0
H1476 H 0.61763 0.70601 0.40783 0.0
H1477 H 0.52639 0.71094 0.44255 0.0
H1478 H 0.52634 0.68874 0.46436 0.0
H1479 H 0.54578 0.7164 0.47517 0.0
H1480 H 0.54406 0.64899 0.52051 0.0
H1481 H 0.58545 0.7152 0.55275 0.0
H1482 H 0.55866 0.65799 0.43591 0.0
H1483 H 0.53382 0.65818 0.44387 0.0
H1484 H 0.53925 0.63902 0.46506 0.0
H1485 H 0.60559 0.73805 0.47128 0.0
H1486 H 0.606 0.74395 0.51454 0.0
H1487 H 0.58438 0.74177 0.4886 0.0
C1488 C 0.5204 0.13067 0.22825 0.0
C1489 C 0.51131 0.11362 0.2052 0.0
C1490 C 0.53928 0.13523 0.24592 0.0
C1491 C 0.54904 0.12218 0.24078 0.0
C1492 C 0.53998 0.10499 0.21749 0.0
C1493 C 0.52132 0.10102 0.1998 0.0
C1494 C 0.5487 0.1539 0.27021 0.0
C1495 C 0.54977 0.09052 0.21166 0.0
C1496 C 0.60771 0.14128 0.26536 0.0
C1497 C 0.60481 0.12999 0.29496 0.0
C1498 C 0.58974 0.13957 0.24804 0.0
C1499 C 0.56837 0.12598 0.26039 0.0
C1500 C 0.56538 0.11502 0.29067 0.0
C1501 C 0.58365 0.11729 0.30771 0.0
C1502 C 0.59356 0.15179 0.21608 0.0
C1503 C 0.54282 0.10019 0.30444 0.0
H1504 H 0.51284 0.14058 0.23236 0.0
H1505 H 0.51433 0.08776 0.18215 0.0
H1506 H 0.54817 0.14756 0.29532 0.0
H1507 H 0.56612 0.16542 0.26436 0.0
H1508 H 0.53971 0.16307 0.2703 0.0
H1509 H 0.54081 0.07794 0.19253 0.0
H1510 H 0.56709 0.10057 0.20398 0.0
H1511 H 0.54957 0.08214 0.23481 0.0
H1512 H 0.62403 0.15124 0.25546 0.0
H1513 H 0.58124 0.10843 0.3305 0.0
H1514 H 0.58503 0.1614 0.21629 0.0
H1515 H 0.58667 0.13998 0.19546 0.0
H1516 H 0.61121 0.16307 0.21125 0.0
H1517 H 0.53367 0.10912 0.30653 0.0
H1518 H 0.54335 0.09361 0.32899 0.0
H1519 H 0.5335 0.08624 0.28747 0.0
C1520 C 0.46228 0.60922 0.23872 0.0
C1521 C 0.47084 0.60523 0.26727 0.0
C1522 C 0.44521 0.59195 0.22131 0.0
C1523 C 0.43686 0.57021 0.2324 0.0
C1524 C 0.44502 0.56615 0.2617 0.0
C1525 C 0.46176 0.58373 0.27894 0.0
C1526 C 0.43657 0.59691 0.19052 0.0
C1527 C 0.43676 0.54316 0.27407 0.0
C1528 C 0.38312 0.52343 0.20086 0.0
C1529 C 0.39037 0.51442 0.17658 0.0
C1530 C 0.39802 0.54204 0.21859 0.0
C1531 C 0.42068 0.55153 0.21231 0.0
C1532 C 0.42806 0.54259 0.18768 0.0
C1533 C 0.41279 0.52427 0.1699 0.0
C1534 C 0.38956 0.55139 0.24427 0.0
C1535 C 0.45213 0.55202 0.18067 0.0
H1536 H 0.46912 0.62582 0.22971 0.0
H1537 H 0.46835 0.58049 0.3009 0.0
H1538 H 0.44096 0.59039 0.16882 0.0
H1539 H 0.41847 0.58873 0.19138 0.0
H1540 H 0.44329 0.61474 0.18699 0.0
H1541 H 0.44411 0.54287 0.29806 0.0
H1542 H 0.41873 0.53448 0.27679 0.0
H1543 H 0.44069 0.53389 0.25593 0.0
H1544 H 0.36578 0.51598 0.20594 0.0
H1545 H 0.4185 0.51732 0.15129 0.0
H1546 H 0.39602 0.56906 0.23964 0.0
H1547 H 0.39539 0.54992 0.26891 0.0
H1548 H 0.37141 0.54295 0.24469 0.0
H1549 H 0.45965 0.56955 0.17403 0.0
H1550 H 0.45514 0.54331 0.16041 0.0
H1551 H 0.46057 0.55105 0.20305 0.0
C1552 C 0.88489 0.4767 0.30469 0.0
C1553 C 0.87393 0.48807 0.2968 0.0
C1554 C 0.88513 0.46148 0.28287 0.0
C1555 C 0.87386 0.45725 0.25261 0.0
C1556 C 0.862 0.46797 0.24503 0.0
C1557 C 0.86232 0.48341 0.26713 0.0
C1558 C 0.89813 0.45051 0.29175 0.0
C1559 C 0.84946 0.46353 0.21326 0.0
C1560 C 0.89629 0.4365 0.18594 0.0
C1561 C 0.88287 0.41379 0.18912 0.0
C1562 C 0.89293 0.45091 0.20551 0.0
C1563 C 0.87553 0.44239 0.22843 0.0
C1564 C 0.86111 0.41955 0.2303 0.0
C1565 C 0.86505 0.4055 0.21078 0.0
C1566 C 0.90879 0.47517 0.203 0.0
C1567 C 0.84214 0.40989 0.25401 0.0
H1568 H 0.89395 0.48023 0.3275 0.0
H1569 H 0.85369 0.49203 0.26096 0.0
H1570 H 0.88751 0.43248 0.29085 0.0
H1571 H 0.91144 0.45502 0.2736 0.0
H1572 H 0.90552 0.45519 0.31662 0.0
H1573 H 0.83956 0.47178 0.21233 0.0
H1574 H 0.86101 0.46937 0.19227 0.0
H1575 H 0.83842 0.44569 0.20992 0.0
H1576 H 0.9101 0.44304 0.16926 0.0
H1577 H 0.85447 0.38796 0.21312 0.0
H1578 H 0.91831 0.48106 0.22613 0.0
H1579 H 0.89983 0.48423 0.19978 0.0
H1580 H 0.92041 0.47926 0.18225 0.0
H1581 H 0.84839 0.41196 0.27951 0.0
H1582 H 0.83089 0.39219 0.24949 0.0
H1583 H 0.83272 0.41858 0.25221 0.0
C1584 C 0.46979 0.90447 0.18034 0.0
C1585 C 0.48044 0.89251 0.18608 0.0
C1586 C 0.45144 0.90059 0.19879 0.0
C1587 C 0.44339 0.88418 0.22327 0.0
C1588 C 0.45349 0.87142 0.22827 0.0
C1589 C 0.472 0.87584 0.20974 0.0
C1590 C 0.44122 0.91467 0.19296 0.0
C1591 C 0.44514 0.85357 0.25385 0.0
C1592 C 0.41348 0.89254 0.2939 0.0
C1593 C 0.39155 0.87933 0.28455 0.0
C1594 C 0.43047 0.89389 0.27446 0.0
C1595 C 0.42542 0.88152 0.24515 0.0
C1596 C 0.40333 0.86757 0.2361 0.0
C1597 C 0.38663 0.86674 0.25582 0.0
C1598 C 0.45385 0.90911 0.28478 0.0
C1599 C 0.39736 0.8539 0.20525 0.0
H1600 H 0.4762 0.91739 0.16212 0.0
H1601 H 0.48003 0.8664 0.21412 0.0
H1602 H 0.42344 0.90427 0.18825 0.0
H1603 H 0.4431 0.92451 0.21526 0.0
H1604 H 0.44875 0.92599 0.17188 0.0
H1605 H 0.45355 0.84385 0.25261 0.0
H1606 H 0.44768 0.86089 0.27871 0.0
H1607 H 0.42731 0.84238 0.25074 0.0
H1608 H 0.41745 0.90236 0.31601 0.0
H1609 H 0.36972 0.85638 0.24855 0.0
H1610 H 0.46223 0.92205 0.26597 0.0
H1611 H 0.46285 0.90001 0.28655 0.0
H1612 H 0.45498 0.91707 0.30881 0.0
H1613 H 0.40309 0.86473 0.18341 0.0
H1614 H 0.37945 0.84268 0.20298 0.0
H1615 H 0.40565 0.84406 0.20488 0.0
C1616 C 0.60047 0.46911 0.22775 0.0
C1617 C 0.59422 0.47551 0.19901 0.0
C1618 C 0.58492 0.45199 0.24727 0.0
C1619 C 0.56261 0.44138 0.23808 0.0
C1620 C 0.5563 0.44744 0.20872 0.0
C1621 C 0.5722 0.4643 0.18941 0.0
C1622 C 0.59227 0.44565 0.2781 0.0
C1623 C 0.53261 0.43668 0.19829 0.0
C1624 C 0.51944 0.38691 0.27289 0.0
C1625 C 0.50934 0.39361 0.29616 0.0
C1626 C 0.53762 0.40231 0.25494 0.0
C1627 C 0.54556 0.42489 0.26001 0.0
C1628 C 0.53593 0.43173 0.2843 0.0
C1629 C 0.51805 0.416 0.30227 0.0
C1630 C 0.54777 0.39443 0.22969 0.0
C1631 C 0.54377 0.45567 0.29016 0.0
H1632 H 0.6175 0.47759 0.23516 0.0
H1633 H 0.56722 0.46918 0.16729 0.0
H1634 H 0.58572 0.44984 0.29996 0.0
H1635 H 0.58573 0.42772 0.27862 0.0
H1636 H 0.61037 0.45409 0.28018 0.0
H1637 H 0.53052 0.44282 0.17422 0.0
H1638 H 0.52554 0.41871 0.19654 0.0
H1639 H 0.52307 0.43977 0.21703 0.0
H1640 H 0.51293 0.36962 0.26827 0.0
H1641 H 0.51032 0.42132 0.32018 0.0
H1642 H 0.5658 0.4031 0.23266 0.0
H1643 H 0.54429 0.39816 0.20468 0.0
H1644 H 0.54138 0.37654 0.23143 0.0
H1645 H 0.56163 0.46473 0.29484 0.0
H1646 H 0.53537 0.45829 0.31126 0.0
H1647 H 0.54078 0.46284 0.26787 0.0
C1648 C 0.09908 0.56332 0.20182 0.0
C1649 C 0.11253 0.58602 0.20512 0.0
C1650 C 0.10207 0.54886 0.22181 0.0
C1651 C 0.11914 0.5573 0.24531 0.0
C1652 C 0.13335 0.58016 0.24782 0.0
C1653 C 0.12977 0.59427 0.22786 0.0
C1654 C 0.08643 0.52458 0.21863 0.0
C1655 C 0.15196 0.58972 0.2722 0.0
C1656 C 0.11006 0.52109 0.31915 0.0
C1657 C 0.12133 0.51026 0.30993 0.0
C1658 C 0.1097 0.53686 0.29868 0.0
C1659 C 0.12118 0.54219 0.26852 0.0
C1660 C 0.13346 0.53211 0.25979 0.0
C1661 C 0.13325 0.51612 0.28049 0.0
C1662 C 0.09623 0.54712 0.30869 0.0
C1663 C 0.14623 0.53769 0.22809 0.0
H1664 H 0.08569 0.55682 0.18438 0.0
H1665 H 0.14034 0.61179 0.23036 0.0
H1666 H 0.0956 0.51584 0.21428 0.0
H1667 H 0.0772 0.51819 0.24188 0.0
H1668 H 0.07455 0.52063 0.19828 0.0
H1669 H 0.16266 0.60765 0.26909 0.0
H1670 H 0.14534 0.58649 0.29756 0.0
H1671 H 0.16205 0.58179 0.26957 0.0
H1672 H 0.10074 0.51661 0.34179 0.0
H1673 H 0.14213 0.50792 0.27332 0.0
H1674 H 0.08274 0.5425 0.29084 0.0
H1675 H 0.10642 0.56521 0.30835 0.0
H1676 H 0.08905 0.54192 0.33359 0.0
H1677 H 0.13478 0.53206 0.20696 0.0
H1678 H 0.15657 0.52996 0.22641 0.0
H1679 H 0.15685 0.55567 0.22574 0.0
C1680 C 0.45686 0.84518 0.77159 0.0
C1681 C 0.46601 0.85862 0.7992 0.0
C1682 C 0.44017 0.84562 0.75348 0.0
C1683 C 0.43278 0.86014 0.7629 0.0
C1684 C 0.44138 0.87314 0.79143 0.0
C1685 C 0.45776 0.87208 0.8094 0.0
C1686 C 0.43106 0.8312 0.72355 0.0
C1687 C 0.43413 0.88904 0.80203 0.0
C1688 C 0.41137 0.88241 0.69692 0.0
C1689 C 0.38883 0.87104 0.70317 0.0
C1690 C 0.42578 0.87878 0.71596 0.0
C1691 C 0.41742 0.86313 0.74154 0.0
C1692 C 0.39463 0.85113 0.7474 0.0
C1693 C 0.38059 0.85538 0.72832 0.0
C1694 C 0.45004 0.89214 0.70924 0.0
C1695 C 0.38512 0.83405 0.7741 0.0
H1696 H 0.46303 0.8346 0.76372 0.0
H1697 H 0.46478 0.88257 0.83064 0.0
H1698 H 0.41292 0.82224 0.72414 0.0
H1699 H 0.4362 0.84145 0.70109 0.0
H1700 H 0.43676 0.81915 0.72164 0.0
H1701 H 0.44143 0.89698 0.82589 0.0
H1702 H 0.43895 0.90197 0.78314 0.0
H1703 H 0.41607 0.88057 0.80424 0.0
H1704 H 0.41787 0.89461 0.67764 0.0
H1705 H 0.36316 0.84643 0.73312 0.0
H1706 H 0.45672 0.88119 0.70405 0.0
H1707 H 0.45863 0.90193 0.73128 0.0
H1708 H 0.45385 0.90343 0.68812 0.0
H1709 H 0.39074 0.82203 0.77103 0.0
H1710 H 0.36696 0.82516 0.77411 0.0
H1711 H 0.39097 0.8419 0.79844 0.0
C1712 C 0.56661 0.4727 0.78373 0.0
C1713 C 0.58887 0.48047 0.77787 0.0
C1714 C 0.55045 0.45564 0.76493 0.0
C1715 C 0.55668 0.44592 0.73993 0.0
C1716 C 0.5791 0.45349 0.73409 0.0
C1717 C 0.59495 0.47079 0.753 0.0
C1718 C 0.52669 0.44815 0.77164 0.0
C1719 C 0.58631 0.44331 0.70789 0.0
C1720 C 0.51289 0.38923 0.71336 0.0
C1721 C 0.50494 0.39379 0.68463 0.0
C1722 C 0.53022 0.40597 0.73103 0.0
C1723 C 0.53963 0.42783 0.71994 0.0
C1724 C 0.53199 0.43251 0.69062 0.0
C1725 C 0.51482 0.4154 0.67318 0.0
C1726 C 0.53815 0.40033 0.76196 0.0
C1727 C 0.54148 0.45566 0.67824 0.0
H1728 H 0.56177 0.48018 0.80274 0.0
H1729 H 0.61212 0.47665 0.74842 0.0
H1730 H 0.51884 0.44989 0.74912 0.0
H1731 H 0.51786 0.43058 0.77841 0.0
H1732 H 0.5246 0.45759 0.79174 0.0
H1733 H 0.60438 0.45086 0.70681 0.0
H1734 H 0.57905 0.42553 0.7126 0.0
H1735 H 0.58036 0.44508 0.68351 0.0
H1736 H 0.50545 0.37254 0.72221 0.0
H1737 H 0.50873 0.41906 0.65106 0.0
H1738 H 0.53484 0.40787 0.78349 0.0
H1739 H 0.55609 0.40709 0.7608 0.0
H1740 H 0.5301 0.3824 0.76604 0.0
H1741 H 0.53844 0.46554 0.69644 0.0
H1742 H 0.53433 0.45644 0.65432 0.0
H1743 H 0.55945 0.46335 0.67537 0.0
C1744 C 0.09936 0.58214 0.815 0.0
C1745 C 0.11013 0.60356 0.8027 0.0
C1746 C 0.09845 0.56485 0.79682 0.0
C1747 C 0.10887 0.56914 0.76584 0.0
C1748 C 0.12059 0.59085 0.75391 0.0
C1749 C 0.12091 0.60781 0.77237 0.0
C1750 C 0.08555 0.54186 0.81018 0.0
C1751 C 0.13224 0.59606 0.72125 0.0
C1752 C 0.11654 0.52346 0.73144 0.0
C1753 C 0.09859 0.51302 0.71012 0.0
C1754 C 0.12065 0.54232 0.7488 0.0
C1755 C 0.10623 0.55065 0.74517 0.0
C1756 C 0.08838 0.54047 0.72314 0.0
C1757 C 0.08488 0.52188 0.70568 0.0
C1758 C 0.14008 0.55302 0.77162 0.0
C1759 C 0.07247 0.54871 0.71891 0.0
H1760 H 0.09092 0.57871 0.83836 0.0
H1761 H 0.12941 0.62436 0.76286 0.0
H1762 H 0.07156 0.53177 0.79367 0.0
H1763 H 0.09591 0.53416 0.81098 0.0
H1764 H 0.07913 0.54141 0.83524 0.0
H1765 H 0.14227 0.61396 0.71692 0.0
H1766 H 0.143 0.58882 0.71991 0.0
H1767 H 0.12009 0.58874 0.70112 0.0
H1768 H 0.12731 0.5168 0.73475 0.0
H1769 H 0.07095 0.51388 0.68932 0.0
H1770 H 0.13437 0.55131 0.79739 0.0
H1771 H 0.14996 0.57078 0.76631 0.0
H1772 H 0.15076 0.54568 0.76949 0.0
H1773 H 0.06409 0.54739 0.74257 0.0
H1774 H 0.05988 0.53941 0.69995 0.0
H1775 H 0.08133 0.56624 0.71191 0.0
C1776 C 0.56352 0.08905 0.68366 0.0
C1777 C 0.58632 0.10078 0.68713 0.0
C1778 C 0.55009 0.09334 0.70401 0.0
C1779 C 0.55972 0.10998 0.72809 0.0
C1780 C 0.58275 0.12245 0.73092 0.0
C1781 C 0.59579 0.11759 0.71055 0.0
C1782 C 0.52557 0.07952 0.7005 0.0
C1783 C 0.59358 0.14056 0.75596 0.0
C1784 C 0.52179 0.12828 0.76353 0.0
C1785 C 0.51461 0.11579 0.79238 0.0
C1786 C 0.5373 0.12737 0.74306 0.0
C1787 C 0.54554 0.11339 0.75142 0.0
C1788 C 0.53898 0.10138 0.78111 0.0
C1789 C 0.52373 0.10286 0.80135 0.0
C1790 C 0.54425 0.14074 0.7119 0.0
C1791 C 0.54726 0.08614 0.79072 0.0
H1792 H 0.55607 0.076 0.66569 0.0
H1793 H 0.61342 0.12684 0.71321 0.0
H1794 H 0.51843 0.07028 0.72354 0.0
H1795 H 0.51833 0.09011 0.69638 0.0
H1796 H 0.5207 0.06768 0.67987 0.0
H1797 H 0.61165 0.14987 0.75321 0.0
H1798 H 0.58726 0.15208 0.75371 0.0
H1799 H 0.5896 0.13358 0.78107 0.0
H1800 H 0.51494 0.13844 0.75657 0.0
H1801 H 0.51825 0.09312 0.82356 0.0
H1802 H 0.53788 0.12969 0.69032 0.0
H1803 H 0.56234 0.14995 0.70991 0.0
H1804 H 0.53814 0.15248 0.7107 0.0
H1805 H 0.54157 0.07265 0.77255 0.0
H1806 H 0.54151 0.0789 0.81546 0.0
H1807 H 0.56539 0.09495 0.79052 0.0
C1808 C 0.41292 0.52458 0.77038 0.0
C1809 C 0.39089 0.51521 0.76118 0.0
C1810 C 0.42962 0.54023 0.75058 0.0
C1811 C 0.42418 0.54692 0.72102 0.0
C1812 C 0.40197 0.53813 0.71209 0.0
C1813 C 0.38556 0.52225 0.7322 0.0
C1814 C 0.45314 0.54911 0.76082 0.0
C1815 C 0.39558 0.54516 0.68097 0.0
C1816 C 0.46962 0.59963 0.68493 0.0
C1817 C 0.47851 0.59173 0.66144 0.0
C1818 C 0.45133 0.58525 0.70359 0.0
C1819 C 0.4419 0.56243 0.69894 0.0
C1820 C 0.45042 0.55436 0.67469 0.0
C1821 C 0.46855 0.56912 0.65608 0.0
C1822 C 0.44249 0.59444 0.72894 0.0
C1823 C 0.44092 0.53011 0.66927 0.0
H1824 H 0.41723 0.51923 0.79267 0.0
H1825 H 0.36857 0.51518 0.725 0.0
H1826 H 0.46176 0.54475 0.74214 0.0
H1827 H 0.46169 0.56722 0.76226 0.0
H1828 H 0.45458 0.54264 0.78498 0.0
H1829 H 0.37759 0.5379 0.6787 0.0
H1830 H 0.40334 0.56323 0.68021 0.0
H1831 H 0.40158 0.54014 0.65934 0.0
H1832 H 0.4771 0.61709 0.689 0.0
H1833 H 0.47532 0.56288 0.638 0.0
H1834 H 0.44521 0.58998 0.7539 0.0
H1835 H 0.42459 0.5873 0.72576 0.0
H1836 H 0.45042 0.61254 0.72748 0.0
H1837 H 0.44317 0.52255 0.69174 0.0
H1838 H 0.44872 0.52652 0.64832 0.0
H1839 H 0.4231 0.52217 0.66459 0.0
C1840 C 0.84219 0.36092 0.78243 0.0
C1841 C 0.85377 0.36557 0.81211 0.0
C1842 C 0.84208 0.37763 0.76391 0.0
C1843 C 0.85416 0.39951 0.7751 0.0
C1844 C 0.86522 0.40419 0.8056 0.0
C1845 C 0.86473 0.38713 0.82387 0.0
C1846 C 0.82972 0.37198 0.73183 0.0
C1847 C 0.87852 0.42736 0.81817 0.0
C1848 C 0.87784 0.44546 0.7128 0.0
C1849 C 0.86456 0.45482 0.71711 0.0
C1850 C 0.87431 0.42717 0.73107 0.0
C1851 C 0.85683 0.41776 0.75381 0.0
C1852 C 0.84283 0.42659 0.75739 0.0
C1853 C 0.84698 0.44517 0.73919 0.0
C1854 C 0.88978 0.41839 0.72685 0.0
C1855 C 0.82379 0.41672 0.78096 0.0
H1856 H 0.83353 0.34425 0.77334 0.0
H1857 H 0.87376 0.39088 0.84675 0.0
H1858 H 0.81936 0.37968 0.73052 0.0
H1859 H 0.84146 0.37852 0.7111 0.0
H1860 H 0.81917 0.35404 0.72845 0.0
H1861 H 0.88513 0.4281 0.84319 0.0
H1862 H 0.89242 0.437 0.80129 0.0
H1863 H 0.86842 0.43535 0.81873 0.0
H1864 H 0.8915 0.45286 0.69588 0.0
H1865 H 0.83655 0.45222 0.74244 0.0
H1866 H 0.88053 0.40077 0.72045 0.0
H1867 H 0.89841 0.41991 0.75034 0.0
H1868 H 0.90218 0.4272 0.70745 0.0
H1869 H 0.81355 0.39888 0.7765 0.0
H1870 H 0.81336 0.42433 0.77876 0.0
H1871 H 0.82993 0.41887 0.80654 0.0
loop_
_geom_bond_atom_site_label_1
_geom_bond_atom_site_label_2
_geom_bond_distance
_geom_bond_site_symmetry_2
_ccdc_geom_bond_type
C0 O1 1.306 . S
C0 O3 1.160 . S
O1 C0 1.306 . S
O1 Cd2 2.228 . S
Cd2 O1 2.228 . S
Cd2 O6 2.273 . S
Cd2 O10 2.277 . S
O3 C0 1.160 . S
O3 Cd4 2.203 . S
Cd4 O3 2.203 . S
Cd4 O6 2.411 . S
Cd4 O7 2.333 . S
Cd4 O8 2.352 . S
Cd4 O12 2.277 . S
Cd4 O13 2.356 . S
C5 O10 1.209 . S
C5 O12 1.226 . S
O6 Cd2 2.273 . S
O6 Cd4 2.411 . S
O6 C9 1.320 . S
O7 Cd4 2.333 . S
O7 C9 1.214 . S
O8 Cd4 2.352 . S
O8 C11 1.258 . S
C9 O6 1.320 . S
C9 O7 1.214 . S
O10 Cd2 2.277 . S
O10 C5 1.209 . S
C11 O8 1.258 . S
C11 O13 1.282 . S
O12 Cd4 2.277 . S
O12 C5 1.226 . S
O13 Cd4 2.356 . S
O13 C11 1.282 . S
C14 O15 1.306 . S
C14 O17 1.160 . S
O15 C14 1.306 . S
O15 Cd16 2.228 . S
Cd16 O15 2.228 . S
Cd16 O20 2.273 . S
Cd16 O24 2.277 . S
O17 C14 1.160 . S
O17 Cd18 2.203 . S
Cd18 O17 2.203 . S
Cd18 O20 2.411 . S
Cd18 O21 2.333 . S
Cd18 O22 2.352 . S
Cd18 O26 2.277 . S
Cd18 O27 2.356 . S
C19 O24 1.209 . S
C19 O26 1.226 . S
O20 Cd16 2.273 . S
O20 Cd18 2.411 . S
O20 C23 1.320 . S
O21 Cd18 2.333 . S
O21 C23 1.214 . S
O22 Cd18 2.352 . S
O22 C25 1.258 . S
C23 O20 1.320 . S
C23 O21 1.214 . S
O24 Cd16 2.277 . S
O24 C19 1.209 . S
C25 O22 1.258 . S
C25 O27 1.282 . S
O26 Cd18 2.277 . S
O26 C19 1.226 . S
O27 Cd18 2.356 . S
O27 C25 1.282 . S
C28 O29 1.306 . S
C28 O31 1.160 . S
O29 C28 1.306 . S
O29 Cd30 2.228 . S
Cd30 O29 2.228 . S
Cd30 O34 2.273 . S
Cd30 O38 2.277 . S
O31 C28 1.160 . S
O31 Cd32 2.203 . S
Cd32 O31 2.203 . S
Cd32 O34 2.411 . S
Cd32 O35 2.333 . S
Cd32 O36 2.352 . S
Cd32 O40 2.277 . S
Cd32 O41 2.356 . S
C33 O38 1.209 . S
C33 O40 1.226 . S
O34 Cd30 2.273 . S
O34 Cd32 2.411 . S
O34 C37 1.320 . S
O35 Cd32 2.333 . S
O35 C37 1.214 . S
O36 Cd32 2.352 . S
O36 C39 1.258 . S
C37 O34 1.320 . S
C37 O35 1.214 . S
O38 Cd30 2.277 . S
O38 C33 1.209 . S
C39 O36 1.258 . S
C39 O41 1.282 . S
O40 Cd32 2.277 . S
O40 C33 1.226 . S
O41 Cd32 2.356 . S
O41 C39 1.282 . S
C42 O43 1.306 . S
C42 O45 1.160 . S
O43 C42 1.306 . S
O43 Cd44 2.228 . S
Cd44 O43 2.228 . S
Cd44 O48 2.273 . S
Cd44 O52 2.277 . S
O45 C42 1.160 . S
O45 Cd46 2.203 . S
Cd46 O45 2.203 . S
Cd46 O48 2.411 . S
Cd46 O49 2.333 . S
Cd46 O50 2.352 . S
Cd46 O54 2.277 . S
Cd46 O55 2.356 . S
C47 O52 1.209 . S
C47 O54 1.226 . S
O48 Cd44 2.273 . S
O48 Cd46 2.411 . S
O48 C51 1.320 . S
O49 Cd46 2.333 . S
O49 C51 1.214 . S
O50 Cd46 2.352 . S
O50 C53 1.258 . S
C51 O48 1.320 . S
C51 O49 1.214 . S
O52 Cd44 2.277 . S
O52 C47 1.209 . S
C53 O50 1.258 . S
C53 O55 1.282 . S
O54 Cd46 2.277 . S
O54 C47 1.226 . S
O55 Cd46 2.356 . S
O55 C53 1.282 . S
C56 O57 1.306 . S
C56 O59 1.160 . S
O57 C56 1.306 . S
O57 Cd58 2.228 . S
Cd58 O57 2.228 . S
Cd58 O62 2.273 . S
Cd58 O66 2.277 . S
O59 C56 1.160 . S
O59 Cd60 2.203 . S
Cd60 O59 2.203 . S
Cd60 O62 2.411 . S
Cd60 O63 2.333 . S
Cd60 O64 2.352 . S
Cd60 O68 2.277 . S
Cd60 O69 2.356 . S
C61 O66 1.209 . S
C61 O68 1.226 . S
O62 Cd58 2.273 . S
O62 Cd60 2.411 . S
O62 C65 1.320 . S
O63 Cd60 2.333 . S
O63 C65 1.214 . S
O64 Cd60 2.352 . S
O64 C67 1.258 . S
C65 O62 1.320 . S
C65 O63 1.214 . S
O66 Cd58 2.277 . S
O66 C61 1.209 . S
C67 O64 1.258 . S
C67 O69 1.282 . S
O68 Cd60 2.277 . S
O68 C61 1.226 . S
O69 Cd60 2.356 . S
O69 C67 1.282 . S
C70 O71 1.306 . S
C70 O73 1.160 . S
O71 C70 1.306 . S
O71 Cd72 2.228 . S
Cd72 O71 2.228 . S
Cd72 O76 2.273 . S
Cd72 O80 2.277 . S
O73 C70 1.160 . S
O73 Cd74 2.203 . S
Cd74 O73 2.203 . S
Cd74 O76 2.411 . S
Cd74 O77 2.333 . S
Cd74 O78 2.352 . S
Cd74 O82 2.277 . S
Cd74 O83 2.356 . S
C75 O80 1.209 . S
C75 O82 1.226 . S
O76 Cd72 2.273 . S
O76 Cd74 2.411 . S
O76 C79 1.320 . S
O77 Cd74 2.333 . S
O77 C79 1.214 . S
O78 Cd74 2.352 . S
O78 C81 1.258 . S
C79 O76 1.320 . S
C79 O77 1.214 . S
O80 Cd72 2.277 . S
O80 C75 1.209 . S
C81 O78 1.258 . S
C81 O83 1.282 . S
O82 Cd74 2.277 . S
O82 C75 1.226 . S
O83 Cd74 2.356 . S
O83 C81 1.282 . S
C84 O85 1.306 . S
C84 O87 1.160 . S
O85 C84 1.306 . S
O85 Cd86 2.228 . S
Cd86 O85 2.228 . S
Cd86 O90 2.273 . S
Cd86 O94 2.277 . S
O87 C84 1.160 . S
O87 Cd88 2.203 . S
Cd88 O87 2.203 . S
Cd88 O90 2.411 . S
Cd88 O91 2.333 . S
Cd88 O92 2.352 . S
Cd88 O96 2.277 . S
Cd88 O97 2.356 . S
C89 O94 1.209 . S
C89 O96 1.226 . S
O90 Cd86 2.273 . S
O90 Cd88 2.411 . S
O90 C93 1.320 . S
O91 Cd88 2.333 . S
O91 C93 1.214 . S
O92 Cd88 2.352 . S
O92 C95 1.258 . S
C93 O90 1.320 . S
C93 O91 1.214 . S
O94 Cd86 2.277 . S
O94 C89 1.209 . S
C95 O92 1.258 . S
C95 O97 1.282 . S
O96 Cd88 2.277 . S
O96 C89 1.226 . S
O97 Cd88 2.356 . S
O97 C95 1.282 . S
C98 O99 1.306 . S
C98 O101 1.160 . S
O99 C98 1.306 . S
O99 Cd100 2.228 . S
Cd100 O99 2.228 . S
Cd100 O104 2.273 . S
Cd100 O108 2.277 . S
O101 C98 1.160 . S
O101 Cd102 2.203 . S
Cd102 O101 2.203 . S
Cd102 O104 2.411 . S
Cd102 O105 2.333 . S
Cd102 O106 2.352 . S
Cd102 O110 2.277 . S
Cd102 O111 2.356 . S
C103 O108 1.209 . S
C103 O110 1.226 . S
O104 Cd100 2.273 . S
O104 Cd102 2.411 . S
O104 C107 1.320 . S
O105 Cd102 2.333 . S
O105 C107 1.214 . S
O106 Cd102 2.352 . S
O106 C109 1.258 . S
C107 O104 1.320 . S
C107 O105 1.214 . S
O108 Cd100 2.277 . S
O108 C103 1.209 . S
C109 O106 1.258 . S
C109 O111 1.282 . S
O110 Cd102 2.277 . S
O110 C103 1.226 . S
O111 Cd102 2.356 . S
O111 C109 1.282 . S
C112 O113 1.306 . S
C112 O115 1.160 . S
O113 C112 1.306 . S
O113 Cd114 2.228 . S
Cd114 O113 2.228 . S
Cd114 O118 2.273 . S
Cd114 O122 2.277 . S
O115 C112 1.160 . S
O115 Cd116 2.203 . S
Cd116 O115 2.203 . S
Cd116 O118 2.411 . S
Cd116 O119 2.333 . S
Cd116 O120 2.352 . S
Cd116 O124 2.277 . S
Cd116 O125 2.356 . S
C117 O122 1.209 . S
C117 O124 1.226 . S
O118 Cd114 2.273 . S
O118 Cd116 2.411 . S
O118 C121 1.320 . S
O119 Cd116 2.333 . S
O119 C121 1.214 . S
O120 Cd116 2.352 . S
O120 C123 1.258 . S
C121 O118 1.320 . S
C121 O119 1.214 . S
O122 Cd114 2.277 . S
O122 C117 1.209 . S
C123 O120 1.258 . S
C123 O125 1.282 . S
O124 Cd116 2.277 . S
O124 C117 1.226 . S
O125 Cd116 2.356 . S
O125 C123 1.282 . S
C126 O127 1.306 . S
C126 O129 1.160 . S
O127 C126 1.306 . S
O127 Cd128 2.228 . S
Cd128 O127 2.228 . S
Cd128 O132 2.273 . S
Cd128 O136 2.277 . S
O129 C126 1.160 . S
O129 Cd130 2.203 . S
Cd130 O129 2.203 . S
Cd130 O132 2.411 . S
Cd130 O133 2.333 . S
Cd130 O134 2.352 . S
Cd130 O138 2.277 . S
Cd130 O139 2.356 . S
C131 O136 1.209 . S
C131 O138 1.226 . S
O132 Cd128 2.273 . S
O132 Cd130 2.411 . S
O132 C135 1.320 . S
O133 Cd130 2.333 . S
O133 C135 1.214 . S
O134 Cd130 2.352 . S
O134 C137 1.258 . S
C135 O132 1.320 . S
C135 O133 1.214 . S
O136 Cd128 2.277 . S
O136 C131 1.209 . S
C137 O134 1.258 . S
C137 O139 1.282 . S
O138 Cd130 2.277 . S
O138 C131 1.226 . S
O139 Cd130 2.356 . S
O139 C137 1.282 . S
C140 O141 1.306 . S
C140 O143 1.160 . S
O141 C140 1.306 . S
O141 Cd142 2.228 . S
Cd142 O141 2.228 . S
Cd142 O146 2.273 . S
Cd142 O150 2.277 . S
O143 C140 1.160 . S
O143 Cd144 2.203 . S
Cd144 O143 2.203 . S
Cd144 O146 2.411 . S
Cd144 O147 2.333 . S
Cd144 O148 2.352 . S
Cd144 O152 2.277 . S
Cd144 O153 2.356 . S
C145 O150 1.209 . S
C145 O152 1.226 . S
O146 Cd142 2.273 . S
O146 Cd144 2.411 . S
O146 C149 1.320 . S
O147 Cd144 2.333 . S
O147 C149 1.214 . S
O148 Cd144 2.352 . S
O148 C151 1.258 . S
C149 O146 1.320 . S
C149 O147 1.214 . S
O150 Cd142 2.277 . S
O150 C145 1.209 . S
C151 O148 1.258 . S
C151 O153 1.282 . S
O152 Cd144 2.277 . S
O152 C145 1.226 . S
O153 Cd144 2.356 . S
O153 C151 1.282 . S
C154 O155 1.306 . S
C154 O157 1.160 . S
O155 C154 1.306 . S
O155 Cd156 2.228 . S
Cd156 O155 2.228 . S
Cd156 O160 2.273 . S
Cd156 O164 2.277 . S
O157 C154 1.160 . S
O157 Cd158 2.203 . S
Cd158 O157 2.203 . S
Cd158 O160 2.411 . S
Cd158 O161 2.333 . S
Cd158 O162 2.352 . S
Cd158 O166 2.277 . S
Cd158 O167 2.356 . S
C159 O164 1.209 . S
C159 O166 1.226 . S
O160 Cd156 2.273 . S
O160 Cd158 2.411 . S
O160 C163 1.320 . S
O161 Cd158 2.333 . S
O161 C163 1.214 . S
O162 Cd158 2.352 . S
O162 C165 1.258 . S
C163 O160 1.320 . S
C163 O161 1.214 . S
O164 Cd156 2.277 . S
O164 C159 1.209 . S
C165 O162 1.258 . S
C165 O167 1.282 . S
O166 Cd158 2.277 . S
O166 C159 1.226 . S
O167 Cd158 2.356 . S
O167 C165 1.282 . S
C168 O169 1.306 . S
C168 O171 1.160 . S
O169 C168 1.306 . S
O169 Cd170 2.228 . S
Cd170 O169 2.228 . S
Cd170 O174 2.273 . S
Cd170 O178 2.277 . S
O171 C168 1.160 . S
O171 Cd172 2.203 . S
Cd172 O171 2.203 . S
Cd172 O174 2.411 . S
Cd172 O175 2.333 . S
Cd172 O176 2.352 . S
Cd172 O180 2.277 . S
Cd172 O181 2.356 . S
C173 O178 1.209 . S
C173 O180 1.226 . S
O174 Cd170 2.273 . S
O174 Cd172 2.411 . S
O174 C177 1.320 . S
O175 Cd172 2.333 . S
O175 C177 1.214 . S
O176 Cd172 2.352 . S
O176 C179 1.258 . S
C177 O174 1.320 . S
C177 O175 1.214 . S
O178 Cd170 2.277 . S
O178 C173 1.209 . S
C179 O176 1.258 . S
C179 O181 1.282 . S
O180 Cd172 2.277 . S
O180 C173 1.226 . S
O181 Cd172 2.356 . S
O181 C179 1.282 . S
C182 O183 1.306 . S
C182 O185 1.160 . S
O183 C182 1.306 . S
O183 Cd184 2.228 . S
Cd184 O183 2.228 . S
Cd184 O188 2.273 . S
Cd184 O192 2.277 . S
O185 C182 1.160 . S
O185 Cd186 2.203 . S
Cd186 O185 2.203 . S
Cd186 O188 2.411 . S
Cd186 O189 2.333 . S
Cd186 O190 2.352 . S
Cd186 O194 2.277 . S
Cd186 O195 2.356 . S
C187 O192 1.209 . S
C187 O194 1.226 . S
O188 Cd184 2.273 . S
O188 Cd186 2.411 . S
O188 C191 1.320 . S
O189 Cd186 2.333 . S
O189 C191 1.214 . S
O190 Cd186 2.352 . S
O190 C193 1.258 . S
C191 O188 1.320 . S
C191 O189 1.214 . S
O192 Cd184 2.277 . S
O192 C187 1.209 . S
C193 O190 1.258 . S
C193 O195 1.282 . S
O194 Cd186 2.277 . S
O194 C187 1.226 . S
O195 Cd186 2.356 . S
O195 C193 1.282 . S
C196 O197 1.306 . S
C196 O199 1.160 . S
O197 C196 1.306 . S
O197 Cd198 2.228 . S
Cd198 O197 2.228 . S
Cd198 O202 2.273 . S
Cd198 O206 2.277 . S
O199 C196 1.160 . S
O199 Cd200 2.203 . S
Cd200 O199 2.203 . S
Cd200 O202 2.411 . S
Cd200 O203 2.333 . S
Cd200 O204 2.352 . S
Cd200 O208 2.277 . S
Cd200 O209 2.356 . S
C201 O206 1.209 . S
C201 O208 1.226 . S
O202 Cd198 2.273 . S
O202 Cd200 2.411 . S
O202 C205 1.320 . S
O203 Cd200 2.333 . S
O203 C205 1.214 . S
O204 Cd200 2.352 . S
O204 C207 1.258 . S
C205 O202 1.320 . S
C205 O203 1.214 . S
O206 Cd198 2.277 . S
O206 C201 1.209 . S
C207 O204 1.258 . S
C207 O209 1.282 . S
O208 Cd200 2.277 . S
O208 C201 1.226 . S
O209 Cd200 2.356 . S
O209 C207 1.282 . S
C210 O211 1.306 . S
C210 O213 1.160 . S
O211 C210 1.306 . S
O211 Cd212 2.228 . S
Cd212 O211 2.228 . S
Cd212 O216 2.273 . S
Cd212 O220 2.277 . S
O213 C210 1.160 . S
O213 Cd214 2.203 . S
Cd214 O213 2.203 . S
Cd214 O216 2.411 . S
Cd214 O217 2.333 . S
Cd214 O218 2.352 . S
Cd214 O222 2.277 . S
Cd214 O223 2.356 . S
C215 O220 1.209 . S
C215 O222 1.226 . S
O216 Cd212 2.273 . S
O216 Cd214 2.411 . S
O216 C219 1.320 . S
O217 Cd214 2.333 . S
O217 C219 1.214 . S
O218 Cd214 2.352 . S
O218 C221 1.258 . S
C219 O216 1.320 . S
C219 O217 1.214 . S
O220 Cd212 2.277 . S
O220 C215 1.209 . S
C221 O218 1.258 . S
C221 O223 1.282 . S
O222 Cd214 2.277 . S
O222 C215 1.226 . S
O223 Cd214 2.356 . S
O223 C221 1.282 . S
C224 O225 1.306 . S
C224 O227 1.160 . S
O225 C224 1.306 . S
O225 Cd226 2.228 . S
Cd226 O225 2.228 . S
Cd226 O230 2.273 . S
Cd226 O234 2.277 . S
O227 C224 1.160 . S
O227 Cd228 2.203 . S
Cd228 O227 2.203 . S
Cd228 O230 2.411 . S
Cd228 O231 2.333 . S
Cd228 O232 2.352 . S
Cd228 O236 2.277 . S
Cd228 O237 2.356 . S
C229 O234 1.209 . S
C229 O236 1.226 . S
O230 Cd226 2.273 . S
O230 Cd228 2.411 . S
O230 C233 1.320 . S
O231 Cd228 2.333 . S
O231 C233 1.214 . S
O232 Cd228 2.352 . S
O232 C235 1.258 . S
C233 O230 1.320 . S
C233 O231 1.214 . S
O234 Cd226 2.277 . S
O234 C229 1.209 . S
C235 O232 1.258 . S
C235 O237 1.282 . S
O236 Cd228 2.277 . S
O236 C229 1.226 . S
O237 Cd228 2.356 . S
O237 C235 1.282 . S
C238 O239 1.306 . S
C238 O241 1.160 . S
O239 C238 1.306 . S
O239 Cd240 2.228 . S
Cd240 O239 2.228 . S
Cd240 O244 2.273 . S
Cd240 O248 2.277 . S
O241 C238 1.160 . S
O241 Cd242 2.203 . S
Cd242 O241 2.203 . S
Cd242 O244 2.411 . S
Cd242 O245 2.333 . S
Cd242 O246 2.352 . S
Cd242 O250 2.277 . S
Cd242 O251 2.356 . S
C243 O248 1.209 . S
C243 O250 1.226 . S
O244 Cd240 2.273 . S
O244 Cd242 2.411 . S
O244 C247 1.320 . S
O245 Cd242 2.333 . S
O245 C247 1.214 . S
O246 Cd242 2.352 . S
O246 C249 1.258 . S
C247 O244 1.320 . S
C247 O245 1.214 . S
O248 Cd240 2.277 . S
O248 C243 1.209 . S
C249 O246 1.258 . S
C249 O251 1.282 . S
O250 Cd242 2.277 . S
O250 C243 1.226 . S
O251 Cd242 2.356 . S
O251 C249 1.282 . S
C252 O253 1.306 . S
C252 O255 1.160 . S
O253 C252 1.306 . S
O253 Cd254 2.228 . S
Cd254 O253 2.228 . S
Cd254 O258 2.273 . S
Cd254 O262 2.277 . S
O255 C252 1.160 . S
O255 Cd256 2.203 . S
Cd256 O255 2.203 . S
Cd256 O258 2.411 . S
Cd256 O259 2.333 . S
Cd256 O260 2.352 . S
Cd256 O264 2.277 . S
Cd256 O265 2.356 . S
C257 O262 1.209 . S
C257 O264 1.226 . S
O258 Cd254 2.273 . S
O258 Cd256 2.411 . S
O258 C261 1.320 . S
O259 Cd256 2.333 . S
O259 C261 1.214 . S
O260 Cd256 2.352 . S
O260 C263 1.258 . S
C261 O258 1.320 . S
C261 O259 1.214 . S
O262 Cd254 2.277 . S
O262 C257 1.209 . S
C263 O260 1.258 . S
C263 O265 1.282 . S
O264 Cd256 2.277 . S
O264 C257 1.226 . S
O265 Cd256 2.356 . S
O265 C263 1.282 . S
C266 O267 1.306 . S
C266 O269 1.160 . S
O267 C266 1.306 . S
O267 Cd268 2.228 . S
Cd268 O267 2.228 . S
Cd268 O272 2.273 . S
Cd268 O276 2.277 . S
O269 C266 1.160 . S
O269 Cd270 2.203 . S
Cd270 O269 2.203 . S
Cd270 O272 2.411 . S
Cd270 O273 2.333 . S
Cd270 O274 2.352 . S
Cd270 O278 2.277 . S
Cd270 O279 2.356 . S
C271 O276 1.209 . S
C271 O278 1.226 . S
O272 Cd268 2.273 . S
O272 Cd270 2.411 . S
O272 C275 1.320 . S
O273 Cd270 2.333 . S
O273 C275 1.214 . S
O274 Cd270 2.352 . S
O274 C277 1.258 . S
C275 O272 1.320 . S
C275 O273 1.214 . S
O276 Cd268 2.277 . S
O276 C271 1.209 . S
C277 O274 1.258 . S
C277 O279 1.282 . S
O278 Cd270 2.277 . S
O278 C271 1.226 . S
O279 Cd270 2.356 . S
O279 C277 1.282 . S
C280 O281 1.306 . S
C280 O283 1.160 . S
O281 C280 1.306 . S
O281 Cd282 2.228 . S
Cd282 O281 2.228 . S
Cd282 O286 2.273 . S
Cd282 O290 2.277 . S
O283 C280 1.160 . S
O283 Cd284 2.203 . S
Cd284 O283 2.203 . S
Cd284 O286 2.411 . S
Cd284 O287 2.333 . S
Cd284 O288 2.352 . S
Cd284 O292 2.277 . S
Cd284 O293 2.356 . S
C285 O290 1.209 . S
C285 O292 1.226 . S
O286 Cd282 2.273 . S
O286 Cd284 2.411 . S
O286 C289 1.320 . S
O287 Cd284 2.333 . S
O287 C289 1.214 . S
O288 Cd284 2.352 . S
O288 C291 1.258 . S
C289 O286 1.320 . S
C289 O287 1.214 . S
O290 Cd282 2.277 . S
O290 C285 1.209 . S
C291 O288 1.258 . S
C291 O293 1.282 . S
O292 Cd284 2.277 . S
O292 C285 1.226 . S
O293 Cd284 2.356 . S
O293 C291 1.282 . S
C294 O295 1.306 . S
C294 O297 1.160 . S
O295 C294 1.306 . S
O295 Cd296 2.228 . S
Cd296 O295 2.228 . S
Cd296 O300 2.273 . S
Cd296 O304 2.277 . S
O297 C294 1.160 . S
O297 Cd298 2.203 . S
Cd298 O297 2.203 . S
Cd298 O300 2.411 . S
Cd298 O301 2.333 . S
Cd298 O302 2.352 . S
Cd298 O306 2.277 . S
Cd298 O307 2.356 . S
C299 O304 1.209 . S
C299 O306 1.226 . S
O300 Cd296 2.273 . S
O300 Cd298 2.411 . S
O300 C303 1.320 . S
O301 Cd298 2.333 . S
O301 C303 1.214 . S
O302 Cd298 2.352 . S
O302 C305 1.258 . S
C303 O300 1.320 . S
C303 O301 1.214 . S
O304 Cd296 2.277 . S
O304 C299 1.209 . S
C305 O302 1.258 . S
C305 O307 1.282 . S
O306 Cd298 2.277 . S
O306 C299 1.226 . S
O307 Cd298 2.356 . S
O307 C305 1.282 . S
C308 O309 1.306 . S
C308 O311 1.160 . S
O309 C308 1.306 . S
O309 Cd310 2.228 . S
Cd310 O309 2.228 . S
Cd310 O314 2.273 . S
Cd310 O318 2.277 . S
O311 C308 1.160 . S
O311 Cd312 2.203 . S
Cd312 O311 2.203 . S
Cd312 O314 2.411 . S
Cd312 O315 2.333 . S
Cd312 O316 2.352 . S
Cd312 O320 2.277 . S
Cd312 O321 2.356 . S
C313 O318 1.209 . S
C313 O320 1.226 . S
O314 Cd310 2.273 . S
O314 Cd312 2.411 . S
O314 C317 1.320 . S
O315 Cd312 2.333 . S
O315 C317 1.214 . S
O316 Cd312 2.352 . S
O316 C319 1.258 . S
C317 O314 1.320 . S
C317 O315 1.214 . S
O318 Cd310 2.277 . S
O318 C313 1.209 . S
C319 O316 1.258 . S
C319 O321 1.282 . S
O320 Cd312 2.277 . S
O320 C313 1.226 . S
O321 Cd312 2.356 . S
O321 C319 1.282 . S
C322 O323 1.306 . S
C322 O325 1.160 . S
O323 C322 1.306 . S
O323 Cd324 2.228 . S
Cd324 O323 2.228 . S
Cd324 O328 2.273 . S
Cd324 O332 2.277 . S
O325 C322 1.160 . S
O325 Cd326 2.203 . S
Cd326 O325 2.203 . S
Cd326 O328 2.411 . S
Cd326 O329 2.333 . S
Cd326 O330 2.352 . S
Cd326 O334 2.277 . S
Cd326 O335 2.356 . S
C327 O332 1.209 . S
C327 O334 1.226 . S
O328 Cd324 2.273 . S
O328 Cd326 2.411 . S
O328 C331 1.320 . S
O329 Cd326 2.333 . S
O329 C331 1.214 . S
O330 Cd326 2.352 . S
O330 C333 1.258 . S
C331 O328 1.320 . S
C331 O329 1.214 . S
O332 Cd324 2.277 . S
O332 C327 1.209 . S
C333 O330 1.258 . S
C333 O335 1.282 . S
O334 Cd326 2.277 . S
O334 C327 1.226 . S
O335 Cd326 2.356 . S
O335 C333 1.282 . S
C336 C337 1.391 . S
C336 C338 1.394 . S
C336 H352 0.931 . S
C337 C336 1.391 . S
C337 C341 1.376 . S
C338 C336 1.394 . S
C338 C339 1.369 . S
C338 C342 1.531 . S
C339 C338 1.369 . S
C339 C340 1.410 . S
C339 C347 1.503 1_545 S
C340 C339 1.410 . S
C340 C341 1.392 . S
C340 C343 1.511 . S
C341 C337 1.376 . S
C341 C340 1.392 . S
C341 H353 0.929 . S
C342 C338 1.531 . S
C342 H354 0.960 1_545 S
C342 H355 0.962 . S
C342 H356 0.960 . S
C343 C340 1.511 . S
C343 H357 0.961 . S
C343 H358 0.946 1_545 S
C343 H359 0.961 . S
C344 C345 1.370 . S
C344 C346 1.363 . S
C344 H360 0.931 . S
C345 C344 1.370 . S
C345 C349 1.408 . S
C346 C344 1.363 . S
C346 C347 1.370 . S
C346 C350 1.524 1_565 S
C347 C339 1.503 1_565 S
C347 C346 1.370 . S
C347 C348 1.403 . S
C348 C347 1.403 . S
C348 C349 1.404 . S
C348 C351 1.539 . S
C349 C345 1.408 . S
C349 C348 1.404 . S
C349 H361 0.930 . S
C350 C346 1.524 1_545 S
C350 H362 0.956 . S
C350 H363 0.961 . S
C350 H364 0.961 . S
C351 C348 1.539 . S
C351 H365 0.958 . S
C351 H366 0.961 . S
C351 H367 0.960 . S
H352 C336 0.931 . S
H353 C341 0.929 . S
H354 C342 0.960 1_565 S
H355 C342 0.962 . S
H356 C342 0.960 . S
H357 C343 0.961 . S
H358 C343 0.946 1_565 S
H359 C343 0.961 . S
H360 C344 0.931 . S
H361 C349 0.930 . S
H362 C350 0.956 . S
H363 C350 0.961 . S
H364 C350 0.961 . S
H365 C351 0.958 . S
H366 C351 0.961 . S
H367 C351 0.960 . S
C368 C369 1.391 . S
C368 C370 1.394 . S
C368 H384 0.931 . S
C369 C368 1.391 . S
C369 C373 1.376 . S
C370 C368 1.394 . S
C370 C371 1.369 . S
C370 C374 1.531 . S
C371 C370 1.369 . S
C371 C372 1.410 . S
C371 C379 1.503 . S
C372 C371 1.410 . S
C372 C373 1.392 . S
C372 C375 1.511 . S
C373 C369 1.376 . S
C373 C372 1.392 . S
C373 H385 0.929 . S
C374 C370 1.531 . S
C374 H386 0.960 . S
C374 H387 0.962 . S
C374 H388 0.960 . S
C375 C372 1.511 . S
C375 H389 0.961 . S
C375 H390 0.961 . S
C375 H391 0.961 . S
C376 C377 1.370 . S
C376 C378 1.363 . S
C376 H392 0.931 . S
C377 C376 1.370 . S
C377 C381 1.408 . S
C378 C376 1.363 . S
C378 C379 1.370 . S
C378 C382 1.524 . S
C379 C371 1.503 . S
C379 C378 1.370 . S
C379 C380 1.403 . S
C380 C379 1.403 . S
C380 C381 1.404 . S
C380 C383 1.539 . S
C381 C377 1.408 . S
C381 C380 1.404 . S
C381 H393 0.930 . S
C382 C378 1.524 . S
C382 H394 0.956 . S
C382 H395 0.961 . S
C382 H396 0.961 . S
C383 C380 1.539 . S
C383 H397 0.958 . S
C383 H398 0.961 . S
C383 H399 0.960 . S
H384 C368 0.931 . S
H385 C373 0.929 . S
H386 C374 0.960 . S
H387 C374 0.962 . S
H388 C374 0.960 . S
H389 C375 0.961 . S
H390 C375 0.961 . S
H391 C375 0.961 . S
H392 C376 0.931 . S
H393 C381 0.930 . S
H394 C382 0.956 . S
H395 C382 0.961 . S
H396 C382 0.961 . S
H397 C383 0.958 . S
H398 C383 0.961 . S
H399 C383 0.960 . S
C400 C401 1.391 . S
C400 C402 1.394 . S
C400 H416 0.931 . S
C401 C400 1.391 . S
C401 C405 1.376 . S
C402 C400 1.394 . S
C402 C403 1.369 . S
C402 C406 1.531 1_655 S
C403 C402 1.369 . S
C403 C404 1.410 . S
C403 C411 1.503 1_655 S
C404 C403 1.410 . S
C404 C405 1.392 . S
C404 C407 1.511 . S
C405 C401 1.376 . S
C405 C404 1.392 . S
C405 H417 0.929 . S
C406 C402 1.531 1_455 S
C406 H418 0.960 . S
C406 H419 0.962 . S
C406 H420 0.960 . S
C407 C404 1.511 . S
C407 H421 0.961 . S
C407 H422 0.961 . S
C407 H423 0.961 . S
C408 C409 1.370 . S
C408 C410 1.363 . S
C408 H424 0.931 . S
C409 C408 1.370 . S
C409 C413 1.408 . S
C410 C408 1.363 . S
C410 C411 1.370 . S
C410 C414 1.524 . S
C411 C403 1.503 1_455 S
C411 C410 1.370 . S
C411 C412 1.403 . S
C412 C411 1.403 . S
C412 C413 1.404 . S
C412 C415 1.539 . S
C413 C409 1.408 . S
C413 C412 1.404 . S
C413 H425 0.930 . S
C414 C410 1.524 . S
C414 H426 0.956 . S
C414 H427 0.961 1_455 S
C414 H428 0.961 . S
C415 C412 1.539 . S
C415 H429 0.958 . S
C415 H430 0.961 . S
C415 H431 0.960 1_455 S
H416 C400 0.931 . S
H417 C405 0.929 . S
H418 C406 0.960 . S
H419 C406 0.962 . S
H420 C406 0.960 . S
H421 C407 0.961 . S
H422 C407 0.961 . S
H423 C407 0.961 . S
H424 C408 0.931 . S
H425 C413 0.930 . S
H426 C414 0.956 . S
H427 C414 0.961 1_655 S
H428 C414 0.961 . S
H429 C415 0.958 . S
H430 C415 0.961 . S
H431 C415 0.960 1_655 S
C432 C433 1.391 . S
C432 C434 1.394 . S
C432 H448 0.931 . S
C433 C432 1.391 . S
C433 C437 1.376 . S
C434 C432 1.394 . S
C434 C435 1.369 . S
C434 C438 1.531 . S
C435 C434 1.369 . S
C435 C436 1.410 . S
C435 C443 1.503 1_565 S
C436 C435 1.410 . S
C436 C437 1.392 . S
C436 C439 1.511 1_565 S
C437 C433 1.376 . S
C437 C436 1.392 . S
C437 H449 0.929 . S
C438 C434 1.531 . S
C438 H450 0.960 . S
C438 H451 0.962 . S
C438 H452 0.960 . S
C439 C436 1.511 1_545 S
C439 H453 0.961 1_545 S
C439 H454 0.961 . S
C439 H455 0.961 . S
C440 C441 1.370 . S
C440 C442 1.363 . S
C440 H456 0.931 . S
C441 C440 1.370 . S
C441 C445 1.408 . S
C442 C440 1.363 . S
C442 C443 1.370 . S
C442 C446 1.524 . S
C443 C435 1.503 1_545 S
C443 C442 1.370 . S
C443 C444 1.403 . S
C444 C443 1.403 . S
C444 C445 1.404 . S
C444 C447 1.539 . S
C445 C441 1.408 . S
C445 C444 1.404 . S
C445 H457 0.930 . S
C446 C442 1.524 . S
C446 H458 0.956 . S
C446 H459 0.961 . S
C446 H460 0.961 . S
C447 C444 1.539 . S
C447 H461 0.958 1_545 S
C447 H462 0.961 . S
C447 H463 0.960 1_545 S
H448 C432 0.931 . S
H449 C437 0.929 . S
H450 C438 0.960 . S
H451 C438 0.962 . S
H452 C438 0.960 . S
H453 C439 0.961 1_565 S
H454 C439 0.961 . S
H455 C439 0.961 . S
H456 C440 0.931 . S
H457 C445 0.930 . S
H458 C446 0.956 . S
H459 C446 0.961 . S
H460 C446 0.961 . S
H461 C447 0.958 1_565 S
H462 C447 0.961 . S
H463 C447 0.960 1_565 S
C464 C465 1.391 . S
C464 C466 1.394 . S
C464 H480 0.931 . S
C465 C464 1.391 . S
C465 C469 1.376 . S
C466 C464 1.394 . S
C466 C467 1.369 . S
C466 C470 1.531 . S
C467 C466 1.369 . S
C467 C468 1.410 . S
C467 C475 1.503 . S
C468 C467 1.410 . S
C468 C469 1.392 . S
C468 C471 1.511 . S
C469 C465 1.376 . S
C469 C468 1.392 . S
C469 H481 0.929 . S
C470 C466 1.531 . S
C470 H482 0.960 . S
C470 H483 0.962 . S
C470 H484 0.960 . S
C471 C468 1.511 . S
C471 H485 0.961 . S
C471 H486 0.961 . S
C471 H487 0.961 . S
C472 C473 1.370 . S
C472 C474 1.363 . S
C472 H488 0.931 . S
C473 C472 1.370 . S
C473 C477 1.408 . S
C474 C472 1.363 . S
C474 C475 1.370 . S
C474 C478 1.524 . S
C475 C467 1.503 . S
C475 C474 1.370 . S
C475 C476 1.403 . S
C476 C475 1.403 . S
C476 C477 1.404 . S
C476 C479 1.539 . S
C477 C473 1.408 . S
C477 C476 1.404 . S
C477 H489 0.930 . S
C478 C474 1.524 . S
C478 H490 0.956 . S
C478 H491 0.961 . S
C478 H492 0.961 . S
C479 C476 1.539 . S
C479 H493 0.958 . S
C479 H494 0.961 . S
C479 H495 0.960 . S
H480 C464 0.931 . S
H481 C469 0.929 . S
H482 C470 0.960 . S
H483 C470 0.962 . S
H484 C470 0.960 . S
H485 C471 0.961 . S
H486 C471 0.961 . S
H487 C471 0.961 . S
H488 C472 0.931 . S
H489 C477 0.930 . S
H490 C478 0.956 . S
H491 C478 0.961 . S
H492 C478 0.961 . S
H493 C479 0.958 . S
H494 C479 0.961 . S
H495 C479 0.960 . S
C496 C497 1.391 . S
C496 C498 1.394 . S
C496 H512 0.931 . S
C497 C496 1.391 . S
C497 C501 1.376 . S
C498 C496 1.394 . S
C498 C499 1.369 . S
C498 C502 1.531 . S
C499 C498 1.369 . S
C499 C500 1.410 . S
C499 C507 1.503 1_455 S
C500 C499 1.410 . S
C500 C501 1.392 . S
C500 C503 1.511 . S
C501 C497 1.376 . S
C501 C500 1.392 . S
C501 H513 0.929 . S
C502 C498 1.531 . S
C502 H514 0.960 . S
C502 H515 0.962 . S
C502 H516 0.960 . S
C503 C500 1.511 . S
C503 H517 0.961 . S
C503 H518 0.961 1_455 S
C503 H519 0.961 . S
C504 C505 1.370 . S
C504 C506 1.363 . S
C504 H520 0.931 . S
C505 C504 1.370 . S
C505 C509 1.408 . S
C506 C504 1.363 . S
C506 C507 1.370 . S
C506 C510 1.524 . S
C507 C499 1.503 1_655 S
C507 C506 1.370 . S
C507 C508 1.403 . S
C508 C507 1.403 . S
C508 C509 1.404 . S
C508 C511 1.539 1_655 S
C509 C505 1.408 . S
C509 C508 1.404 . S
C509 H521 0.930 . S
C510 C506 1.524 . S
C510 H522 0.956 . S
C510 H523 0.961 . S
C510 H524 0.961 . S
C511 C508 1.539 1_455 S
C511 H525 0.958 . S
C511 H526 0.933 1_455 S
C511 H527 0.960 . S
H512 C496 0.931 . S
H513 C501 0.929 . S
H514 C502 0.960 . S
H515 C502 0.962 . S
H516 C502 0.960 . S
H517 C503 0.961 . S
H518 C503 0.961 1_655 S
H519 C503 0.961 . S
H520 C504 0.931 . S
H521 C509 0.930 . S
H522 C510 0.956 . S
H523 C510 0.961 . S
H524 C510 0.961 . S
H525 C511 0.958 . S
H526 C511 0.933 1_655 S
H527 C511 0.960 . S
C528 C529 1.391 . S
C528 C530 1.394 . S
C528 H544 0.931 . S
C529 C528 1.391 . S
C529 C533 1.376 . S
C530 C528 1.394 . S
C530 C531 1.369 . S
C530 C534 1.531 1_565 S
C531 C530 1.369 . S
C531 C532 1.410 . S
C531 C539 1.503 1_565 S
C532 C531 1.410 . S
C532 C533 1.392 . S
C532 C535 1.511 . S
C533 C529 1.376 . S
C533 C532 1.392 . S
C533 H545 0.929 . S
C534 C530 1.531 1_545 S
C534 H546 0.960 . S
C534 H547 0.962 . S
C534 H548 0.960 1_545 S
C535 C532 1.511 . S
C535 H549 0.961 . S
C535 H550 0.961 . S
C535 H551 0.961 . S
C536 C537 1.370 . S
C536 C538 1.363 . S
C536 H552 0.931 . S
C537 C536 1.370 . S
C537 C541 1.408 . S
C538 C536 1.363 . S
C538 C539 1.370 . S
C538 C542 1.524 1_545 S
C539 C531 1.503 1_545 S
C539 C538 1.370 . S
C539 C540 1.403 . S
C540 C539 1.403 . S
C540 C541 1.404 . S
C540 C543 1.539 . S
C541 C537 1.408 . S
C541 C540 1.404 . S
C541 H553 0.930 . S
C542 C538 1.524 1_565 S
C542 H554 0.956 . S
C542 H555 0.961 . S
C542 H556 0.961 1_565 S
C543 C540 1.539 . S
C543 H557 0.958 . S
C543 H558 0.961 . S
C543 H559 0.960 . S
H544 C528 0.931 . S
H545 C533 0.929 . S
H546 C534 0.960 . S
H547 C534 0.962 . S
H548 C534 0.960 1_565 S
H549 C535 0.961 . S
H550 C535 0.961 . S
H551 C535 0.961 . S
H552 C536 0.931 . S
H553 C541 0.930 . S
H554 C542 0.956 . S
H555 C542 0.961 . S
H556 C542 0.961 1_545 S
H557 C543 0.958 . S
H558 C543 0.961 . S
H559 C543 0.960 . S
C560 C561 1.391 . S
C560 C562 1.394 . S
C560 H576 0.931 . S
C561 C560 1.391 . S
C561 C565 1.376 . S
C562 C560 1.394 . S
C562 C563 1.369 . S
C562 C566 1.531 . S
C563 C562 1.369 . S
C563 C564 1.410 . S
C563 C571 1.503 . S
C564 C563 1.410 . S
C564 C565 1.392 . S
C564 C567 1.511 . S
C565 C561 1.376 . S
C565 C564 1.392 . S
C565 H577 0.929 . S
C566 C562 1.531 . S
C566 H578 0.960 . S
C566 H579 0.962 . S
C566 H580 0.960 . S
C567 C564 1.511 . S
C567 H581 0.961 . S
C567 H582 0.961 . S
C567 H583 0.961 . S
C568 C569 1.370 . S
C568 C570 1.363 . S
C568 H584 0.931 . S
C569 C568 1.370 . S
C569 C573 1.408 . S
C570 C568 1.363 . S
C570 C571 1.370 . S
C570 C574 1.524 . S
C571 C563 1.503 . S
C571 C570 1.370 . S
C571 C572 1.403 . S
C572 C571 1.403 . S
C572 C573 1.404 . S
C572 C575 1.539 . S
C573 C569 1.408 . S
C573 C572 1.404 . S
C573 H585 0.930 . S
C574 C570 1.524 . S
C574 H586 0.956 . S
C574 H587 0.961 . S
C574 H588 0.961 . S
C575 C572 1.539 . S
C575 H589 0.958 . S
C575 H590 0.961 . S
C575 H591 0.960 . S
H576 C560 0.931 . S
H577 C565 0.929 . S
H578 C566 0.960 . S
H579 C566 0.962 . S
H580 C566 0.960 . S
H581 C567 0.961 . S
H582 C567 0.961 . S
H583 C567 0.961 . S
H584 C568 0.931 . S
H585 C573 0.930 . S
H586 C574 0.956 . S
H587 C574 0.961 . S
H588 C574 0.961 . S
H589 C575 0.958 . S
H590 C575 0.961 . S
H591 C575 0.960 . S
C592 C593 1.391 . S
C592 C594 1.394 . S
C592 H608 0.931 . S
C593 C592 1.391 . S
C593 C597 1.376 . S
C594 C592 1.394 . S
C594 C595 1.369 . S
C594 C598 1.531 . S
C595 C594 1.369 . S
C595 C596 1.410 . S
C595 C603 1.503 1_655 S
C596 C595 1.410 . S
C596 C597 1.392 . S
C596 C599 1.511 . S
C597 C593 1.376 . S
C597 C596 1.392 . S
C597 H609 0.929 . S
C598 C594 1.531 . S
C598 H610 0.960 . S
C598 H611 0.962 . S
C598 H612 0.960 . S
C599 C596 1.511 . S
C599 H613 0.961 . S
C599 H614 0.961 1_655 S
C599 H615 0.961 . S
C600 C601 1.370 . S
C600 C602 1.363 . S
C600 H616 0.931 . S
C601 C600 1.370 . S
C601 C605 1.408 . S
C602 C600 1.363 . S
C602 C603 1.370 . S
C602 C606 1.524 . S
C603 C595 1.503 1_455 S
C603 C602 1.370 . S
C603 C604 1.403 . S
C604 C603 1.403 . S
C604 C605 1.404 . S
C604 C607 1.539 1_455 S
C605 C601 1.408 . S
C605 C604 1.404 . S
C605 H617 0.930 . S
C606 C602 1.524 . S
C606 H618 0.956 . S
C606 H619 0.961 . S
C606 H620 0.961 . S
C607 C604 1.539 1_655 S
C607 H621 0.958 . S
C607 H622 0.934 1_655 S
C607 H623 0.960 . S
H608 C592 0.931 . S
H609 C597 0.929 . S
H610 C598 0.960 . S
H611 C598 0.962 . S
H612 C598 0.960 . S
H613 C599 0.961 . S
H614 C599 0.961 1_455 S
H615 C599 0.961 . S
H616 C600 0.931 . S
H617 C605 0.930 . S
H618 C606 0.956 . S
H619 C606 0.961 . S
H620 C606 0.961 . S
H621 C607 0.958 . S
H622 C607 0.934 1_455 S
H623 C607 0.960 . S
C624 C625 1.391 . S
C624 C626 1.394 . S
C624 H640 0.931 . S
C625 C624 1.391 . S
C625 C629 1.376 . S
C626 C624 1.394 . S
C626 C627 1.369 . S
C626 C630 1.514 1_545 S
C627 C626 1.369 . S
C627 C628 1.410 . S
C627 C635 1.503 1_545 S
C628 C627 1.410 . S
C628 C629 1.392 . S
C628 C631 1.511 . S
C629 C625 1.376 . S
C629 C628 1.392 . S
C629 H641 0.929 . S
C630 C626 1.514 1_565 S
C630 H642 0.980 . S
C630 H643 0.999 . S
C630 H644 0.923 1_565 S
C631 C628 1.511 . S
C631 H645 0.961 . S
C631 H646 0.961 . S
C631 H647 0.961 . S
C632 C633 1.370 . S
C632 C634 1.363 . S
C632 H648 0.931 . S
C633 C632 1.370 . S
C633 C637 1.408 . S
C634 C632 1.363 . S
C634 C635 1.370 . S
C634 C638 1.524 . S
C635 C627 1.503 1_565 S
C635 C634 1.370 . S
C635 C636 1.403 . S
C636 C635 1.403 . S
C636 C637 1.404 . S
C636 C639 1.539 . S
C637 C633 1.408 . S
C637 C636 1.404 . S
C637 H649 0.930 . S
C638 C634 1.524 . S
C638 H650 0.956 . S
C638 H651 0.961 . S
C638 H652 0.961 . S
C639 C636 1.539 . S
C639 H653 0.958 . S
C639 H654 0.961 . S
C639 H655 0.960 1_565 S
H640 C624 0.931 . S
H641 C629 0.929 . S
H642 C630 0.980 . S
H643 C630 0.999 . S
H644 C630 0.923 1_545 S
H645 C631 0.961 . S
H646 C631 0.961 . S
H647 C631 0.961 . S
H648 C632 0.931 . S
H649 C637 0.930 . S
H650 C638 0.956 . S
H651 C638 0.961 . S
H652 C638 0.961 . S
H653 C639 0.958 . S
H654 C639 0.961 . S
H655 C639 0.960 1_545 S
C656 C657 1.391 . S
C656 C658 1.394 . S
C656 H672 0.931 . S
C657 C656 1.391 . S
C657 C661 1.376 . S
C658 C656 1.394 . S
C658 C659 1.369 . S
C658 C662 1.531 . S
C659 C658 1.369 . S
C659 C660 1.410 . S
C659 C667 1.503 . S
C660 C659 1.410 . S
C660 C661 1.392 . S
C660 C663 1.511 . S
C661 C657 1.376 . S
C661 C660 1.392 . S
C661 H673 0.929 . S
C662 C658 1.531 . S
C662 H674 0.960 . S
C662 H675 0.962 . S
C662 H676 0.960 . S
C663 C660 1.511 . S
C663 H677 0.961 . S
C663 H678 0.961 . S
C663 H679 0.961 . S
C664 C665 1.370 . S
C664 C666 1.363 . S
C664 H680 0.931 . S
C665 C664 1.370 . S
C665 C669 1.408 . S
C666 C664 1.363 . S
C666 C667 1.370 . S
C666 C670 1.524 . S
C667 C659 1.503 . S
C667 C666 1.370 . S
C667 C668 1.403 . S
C668 C667 1.403 . S
C668 C669 1.404 . S
C668 C671 1.539 . S
C669 C665 1.408 . S
C669 C668 1.404 . S
C669 H681 0.930 . S
C670 C666 1.524 . S
C670 H682 0.956 . S
C670 H683 0.961 . S
C670 H684 0.961 . S
C671 C668 1.539 . S
C671 H685 0.958 . S
C671 H686 0.961 . S
C671 H687 0.960 . S
H672 C656 0.931 . S
H673 C661 0.929 . S
H674 C662 0.960 . S
H675 C662 0.962 . S
H676 C662 0.960 . S
H677 C663 0.961 . S
H678 C663 0.961 . S
H679 C663 0.961 . S
H680 C664 0.931 . S
H681 C669 0.930 . S
H682 C670 0.956 . S
H683 C670 0.961 . S
H684 C670 0.961 . S
H685 C671 0.958 . S
H686 C671 0.961 . S
H687 C671 0.960 . S
C688 C689 1.391 . S
C688 C690 1.394 . S
C688 H704 0.931 . S
C689 C688 1.391 . S
C689 C693 1.376 . S
C690 C688 1.394 . S
C690 C691 1.369 . S
C690 C694 1.531 1_455 S
C691 C690 1.369 . S
C691 C692 1.410 . S
C691 C699 1.503 1_455 S
C692 C691 1.410 . S
C692 C693 1.392 . S
C692 C695 1.511 . S
C693 C689 1.376 . S
C693 C692 1.392 . S
C693 H705 0.929 . S
C694 C690 1.531 1_655 S
C694 H706 0.960 . S
C694 H707 0.962 . S
C694 H708 0.960 1_655 S
C695 C692 1.511 . S
C695 H709 0.961 . S
C695 H710 0.961 . S
C695 H711 0.961 . S
C696 C697 1.370 . S
C696 C698 1.363 . S
C696 H712 0.931 . S
C697 C696 1.370 . S
C697 C701 1.408 . S
C698 C696 1.363 . S
C698 C699 1.370 . S
C698 C702 1.524 . S
C699 C691 1.503 1_655 S
C699 C698 1.370 . S
C699 C700 1.403 . S
C700 C699 1.403 . S
C700 C701 1.404 . S
C700 C703 1.539 . S
C701 C697 1.408 . S
C701 C700 1.404 . S
C701 H713 0.930 . S
C702 C698 1.524 . S
C702 H714 0.956 . S
C702 H715 0.961 . S
C702 H716 0.961 . S
C703 C700 1.539 . S
C703 H717 0.958 . S
C703 H718 0.961 . S
C703 H719 0.960 1_655 S
H704 C688 0.931 . S
H705 C693 0.929 . S
H706 C694 0.960 . S
H707 C694 0.962 . S
H708 C694 0.960 1_455 S
H709 C695 0.961 . S
H710 C695 0.961 . S
H711 C695 0.961 . S
H712 C696 0.931 . S
H713 C701 0.930 . S
H714 C702 0.956 . S
H715 C702 0.961 . S
H716 C702 0.961 . S
H717 C703 0.958 . S
H718 C703 0.961 . S
H719 C703 0.960 1_455 S
C720 C721 1.391 . S
C720 C722 1.394 . S
C720 H736 0.931 . S
C721 C720 1.391 . S
C721 C725 1.376 . S
C722 C720 1.394 . S
C722 C723 1.369 . S
C722 C726 1.531 . S
C723 C722 1.369 . S
C723 C724 1.410 . S
C723 C731 1.503 . S
C724 C723 1.410 . S
C724 C725 1.392 . S
C724 C727 1.511 . S
C725 C721 1.376 . S
C725 C724 1.392 . S
C725 H737 0.929 . S
C726 C722 1.531 . S
C726 H738 0.960 . S
C726 H739 0.962 . S
C726 H740 0.960 . S
C727 C724 1.511 . S
C727 H741 0.961 . S
C727 H742 0.961 . S
C727 H743 0.961 . S
C728 C729 1.370 . S
C728 C730 1.363 . S
C728 H744 0.931 . S
C729 C728 1.370 . S
C729 C733 1.408 . S
C730 C728 1.363 . S
C730 C731 1.370 . S
C730 C734 1.524 . S
C731 C723 1.503 . S
C731 C730 1.370 . S
C731 C732 1.403 . S
C732 C731 1.403 . S
C732 C733 1.404 . S
C732 C735 1.539 . S
C733 C729 1.408 . S
C733 C732 1.404 . S
C733 H745 0.930 . S
C734 C730 1.524 . S
C734 H746 0.956 . S
C734 H747 0.961 . S
C734 H748 0.961 . S
C735 C732 1.539 . S
C735 H749 0.958 . S
C735 H750 0.961 . S
C735 H751 0.960 . S
H736 C720 0.931 . S
H737 C725 0.929 . S
H738 C726 0.960 . S
H739 C726 0.962 . S
H740 C726 0.960 . S
H741 C727 0.961 . S
H742 C727 0.961 . S
H743 C727 0.961 . S
H744 C728 0.931 . S
H745 C733 0.930 . S
H746 C734 0.956 . S
H747 C734 0.961 . S
H748 C734 0.961 . S
H749 C735 0.958 . S
H750 C735 0.961 . S
H751 C735 0.960 . S
C752 C753 1.391 . S
C752 C754 1.394 . S
C752 H768 0.931 . S
C753 C752 1.391 . S
C753 C757 1.376 . S
C754 C752 1.394 . S
C754 C755 1.369 . S
C754 C758 1.531 . S
C755 C754 1.369 . S
C755 C756 1.410 . S
C755 C763 1.503 . S
C756 C755 1.410 . S
C756 C757 1.392 . S
C756 C759 1.511 . S
C757 C753 1.376 . S
C757 C756 1.392 . S
C757 H769 0.929 . S
C758 C754 1.531 . S
C758 H770 0.960 . S
C758 H771 0.962 . S
C758 H772 0.960 . S
C759 C756 1.511 . S
C759 H773 0.961 . S
C759 H774 0.961 . S
C759 H775 0.961 . S
C760 C761 1.370 . S
C760 C762 1.363 . S
C760 H776 0.931 . S
C761 C760 1.370 . S
C761 C765 1.408 . S
C762 C760 1.363 . S
C762 C763 1.370 . S
C762 C766 1.524 . S
C763 C755 1.503 . S
C763 C762 1.370 . S
C763 C764 1.403 . S
C764 C763 1.403 . S
C764 C765 1.404 . S
C764 C767 1.539 . S
C765 C761 1.408 . S
C765 C764 1.404 . S
C765 H777 0.930 . S
C766 C762 1.524 . S
C766 H778 0.956 . S
C766 H779 0.961 . S
C766 H780 0.961 . S
C767 C764 1.539 . S
C767 H781 0.958 . S
C767 H782 0.961 . S
C767 H783 0.960 . S
H768 C752 0.931 . S
H769 C757 0.929 . S
H770 C758 0.960 . S
H771 C758 0.962 . S
H772 C758 0.960 . S
H773 C759 0.961 . S
H774 C759 0.961 . S
H775 C759 0.961 . S
H776 C760 0.931 . S
H777 C765 0.930 . S
H778 C766 0.956 . S
H779 C766 0.961 . S
H780 C766 0.961 . S
H781 C767 0.958 . S
H782 C767 0.961 . S
H783 C767 0.960 . S
C784 C785 1.391 . S
C784 C786 1.394 . S
C784 H800 0.931 . S
C785 C784 1.391 . S
C785 C789 1.376 . S
C786 C784 1.394 . S
C786 C787 1.369 . S
C786 C790 1.531 . S
C787 C786 1.369 . S
C787 C788 1.410 . S
C787 C795 1.503 . S
C788 C787 1.410 . S
C788 C789 1.392 . S
C788 C791 1.511 . S
C789 C785 1.376 . S
C789 C788 1.392 . S
C789 H801 0.929 . S
C790 C786 1.531 . S
C790 H802 0.960 . S
C790 H803 0.962 . S
C790 H804 0.960 . S
C791 C788 1.511 . S
C791 H805 0.961 . S
C791 H806 0.961 . S
C791 H807 0.961 . S
C792 C793 1.370 . S
C792 C794 1.363 . S
C792 H808 0.931 . S
C793 C792 1.370 . S
C793 C797 1.408 . S
C794 C792 1.363 . S
C794 C795 1.370 . S
C794 C798 1.524 . S
C795 C787 1.503 . S
C795 C794 1.370 . S
C795 C796 1.403 . S
C796 C795 1.403 . S
C796 C797 1.404 . S
C796 C799 1.539 . S
C797 C793 1.408 . S
C797 C796 1.404 . S
C797 H809 0.930 . S
C798 C794 1.524 . S
C798 H810 0.956 . S
C798 H811 0.961 . S
C798 H812 0.961 . S
C799 C796 1.539 . S
C799 H813 0.958 . S
C799 H814 0.961 . S
C799 H815 0.960 . S
H800 C784 0.931 . S
H801 C789 0.929 . S
H802 C790 0.960 . S
H803 C790 0.962 . S
H804 C790 0.960 . S
H805 C791 0.961 . S
H806 C791 0.961 . S
H807 C791 0.961 . S
H808 C792 0.931 . S
H809 C797 0.930 . S
H810 C798 0.956 . S
H811 C798 0.961 . S
H812 C798 0.961 . S
H813 C799 0.958 . S
H814 C799 0.961 . S
H815 C799 0.960 . S
C816 C817 1.391 . S
C816 C818 1.394 . S
C816 H832 0.931 . S
C817 C816 1.391 . S
C817 C821 1.376 . S
C818 C816 1.394 . S
C818 C819 1.369 . S
C818 C822 1.531 . S
C819 C818 1.369 . S
C819 C820 1.410 . S
C819 C827 1.503 . S
C820 C819 1.410 . S
C820 C821 1.392 . S
C820 C823 1.511 . S
C821 C817 1.376 . S
C821 C820 1.392 . S
C821 H833 0.929 . S
C822 C818 1.531 . S
C822 H834 0.960 . S
C822 H835 0.962 . S
C822 H836 0.960 . S
C823 C820 1.511 . S
C823 H837 0.961 . S
C823 H838 0.961 . S
C823 H839 0.961 . S
C824 C825 1.370 . S
C824 C826 1.363 . S
C824 H840 0.931 . S
C825 C824 1.370 . S
C825 C829 1.408 . S
C826 C824 1.363 . S
C826 C827 1.370 . S
C826 C830 1.524 . S
C827 C819 1.503 . S
C827 C826 1.370 . S
C827 C828 1.403 . S
C828 C827 1.403 . S
C828 C829 1.404 . S
C828 C831 1.539 . S
C829 C825 1.408 . S
C829 C828 1.404 . S
C829 H841 0.930 . S
C830 C826 1.524 . S
C830 H842 0.956 . S
C830 H843 0.961 . S
C830 H844 0.961 . S
C831 C828 1.539 . S
C831 H845 0.958 . S
C831 H846 0.961 . S
C831 H847 0.960 . S
H832 C816 0.931 . S
H833 C821 0.929 . S
H834 C822 0.960 . S
H835 C822 0.962 . S
H836 C822 0.960 . S
H837 C823 0.961 . S
H838 C823 0.961 . S
H839 C823 0.961 . S
H840 C824 0.931 . S
H841 C829 0.930 . S
H842 C830 0.956 . S
H843 C830 0.961 . S
H844 C830 0.961 . S
H845 C831 0.958 . S
H846 C831 0.961 . S
H847 C831 0.960 . S
C848 C849 1.391 . S
C848 C850 1.394 . S
C848 H864 0.931 . S
C849 C848 1.391 . S
C849 C853 1.376 . S
C850 C848 1.394 . S
C850 C851 1.369 . S
C850 C854 1.531 . S
C851 C850 1.369 . S
C851 C852 1.410 . S
C851 C859 1.503 . S
C852 C851 1.410 . S
C852 C853 1.392 . S
C852 C855 1.511 . S
C853 C849 1.376 . S
C853 C852 1.392 . S
C853 H865 0.929 . S
C854 C850 1.531 . S
C854 H866 0.960 . S
C854 H867 0.962 . S
C854 H868 0.960 . S
C855 C852 1.511 . S
C855 H869 0.961 . S
C855 H870 0.961 . S
C855 H871 0.961 . S
C856 C857 1.370 . S
C856 C858 1.363 . S
C856 H872 0.931 . S
C857 C856 1.370 . S
C857 C861 1.408 . S
C858 C856 1.363 . S
C858 C859 1.370 . S
C858 C862 1.524 . S
C859 C851 1.503 . S
C859 C858 1.370 . S
C859 C860 1.403 . S
C860 C859 1.403 . S
C860 C861 1.404 . S
C860 C863 1.539 . S
C861 C857 1.408 . S
C861 C860 1.404 . S
C861 H873 0.930 . S
C862 C858 1.524 . S
C862 H874 0.956 . S
C862 H875 0.961 . S
C862 H876 0.961 . S
C863 C860 1.539 . S
C863 H877 0.958 . S
C863 H878 0.961 . S
C863 H879 0.960 . S
H864 C848 0.931 . S
H865 C853 0.929 . S
H866 C854 0.960 . S
H867 C854 0.962 . S
H868 C854 0.960 . S
H869 C855 0.961 . S
H870 C855 0.961 . S
H871 C855 0.961 . S
H872 C856 0.931 . S
H873 C861 0.930 . S
H874 C862 0.956 . S
H875 C862 0.961 . S
H876 C862 0.961 . S
H877 C863 0.958 . S
H878 C863 0.961 . S
H879 C863 0.960 . S
C880 C881 1.391 . S
C880 C882 1.394 . S
C880 H896 0.931 . S
C881 C880 1.391 . S
C881 C885 1.376 . S
C882 C880 1.394 . S
C882 C883 1.369 . S
C882 C886 1.531 . S
C883 C882 1.369 . S
C883 C884 1.410 . S
C883 C891 1.503 . S
C884 C883 1.410 . S
C884 C885 1.392 . S
C884 C887 1.511 . S
C885 C881 1.376 . S
C885 C884 1.392 . S
C885 H897 0.929 . S
C886 C882 1.531 . S
C886 H898 0.960 . S
C886 H899 0.962 . S
C886 H900 0.960 . S
C887 C884 1.511 . S
C887 H901 0.961 . S
C887 H902 0.961 . S
C887 H903 0.961 . S
C888 C889 1.370 . S
C888 C890 1.363 . S
C888 H904 0.931 . S
C889 C888 1.370 . S
C889 C893 1.408 . S
C890 C888 1.363 . S
C890 C891 1.370 . S
C890 C894 1.524 . S
C891 C883 1.503 . S
C891 C890 1.370 . S
C891 C892 1.403 . S
C892 C891 1.403 . S
C892 C893 1.404 . S
C892 C895 1.539 . S
C893 C889 1.408 . S
C893 C892 1.404 . S
C893 H905 0.930 . S
C894 C890 1.524 . S
C894 H906 0.956 . S
C894 H907 0.961 . S
C894 H908 0.961 . S
C895 C892 1.539 . S
C895 H909 0.958 . S
C895 H910 0.961 . S
C895 H911 0.960 . S
H896 C880 0.931 . S
H897 C885 0.929 . S
H898 C886 0.960 . S
H899 C886 0.962 . S
H900 C886 0.960 . S
H901 C887 0.961 . S
H902 C887 0.961 . S
H903 C887 0.961 . S
H904 C888 0.931 . S
H905 C893 0.930 . S
H906 C894 0.956 . S
H907 C894 0.961 . S
H908 C894 0.961 . S
H909 C895 0.958 . S
H910 C895 0.961 . S
H911 C895 0.960 . S
C912 C913 1.391 . S
C912 C914 1.394 . S
C912 H928 0.931 . S
C913 C912 1.391 . S
C913 C917 1.376 . S
C914 C912 1.394 . S
C914 C915 1.369 . S
C914 C918 1.531 . S
C915 C914 1.369 . S
C915 C916 1.410 . S
C915 C923 1.503 . S
C916 C915 1.410 . S
C916 C917 1.392 . S
C916 C919 1.511 . S
C917 C913 1.376 . S
C917 C916 1.392 . S
C917 H929 0.929 . S
C918 C914 1.531 . S
C918 H930 0.960 . S
C918 H931 0.962 . S
C918 H932 0.960 . S
C919 C916 1.511 . S
C919 H933 0.961 . S
C919 H934 0.961 . S
C919 H935 0.961 . S
C920 C921 1.370 . S
C920 C922 1.363 . S
C920 H936 0.931 . S
C921 C920 1.370 . S
C921 C925 1.408 . S
C922 C920 1.363 . S
C922 C923 1.370 . S
C922 C926 1.524 . S
C923 C915 1.503 . S
C923 C922 1.370 . S
C923 C924 1.403 . S
C924 C923 1.403 . S
C924 C925 1.404 . S
C924 C927 1.539 . S
C925 C921 1.408 . S
C925 C924 1.404 . S
C925 H937 0.930 . S
C926 C922 1.524 . S
C926 H938 0.956 . S
C926 H939 0.961 . S
C926 H940 0.961 . S
C927 C924 1.539 . S
C927 H941 0.958 . S
C927 H942 0.961 . S
C927 H943 0.960 . S
H928 C912 0.931 . S
H929 C917 0.929 . S
H930 C918 0.960 . S
H931 C918 0.962 . S
H932 C918 0.960 . S
H933 C919 0.961 . S
H934 C919 0.961 . S
H935 C919 0.961 . S
H936 C920 0.931 . S
H937 C925 0.930 . S
H938 C926 0.956 . S
H939 C926 0.961 . S
H940 C926 0.961 . S
H941 C927 0.958 . S
H942 C927 0.961 . S
H943 C927 0.960 . S
C944 C945 1.391 . S
C944 C946 1.394 . S
C944 H960 0.931 . S
C945 C944 1.391 . S
C945 C949 1.376 . S
C946 C944 1.394 . S
C946 C947 1.369 . S
C946 C950 1.531 . S
C947 C946 1.369 . S
C947 C948 1.410 . S
C947 C955 1.503 . S
C948 C947 1.410 . S
C948 C949 1.392 . S
C948 C951 1.511 . S
C949 C945 1.376 . S
C949 C948 1.392 . S
C949 H961 0.929 . S
C950 C946 1.531 . S
C950 H962 0.960 . S
C950 H963 0.962 . S
C950 H964 0.960 . S
C951 C948 1.511 . S
C951 H965 0.961 . S
C951 H966 0.961 . S
C951 H967 0.961 . S
C952 C953 1.370 . S
C952 C954 1.363 . S
C952 H968 0.931 . S
C953 C952 1.370 . S
C953 C957 1.408 . S
C954 C952 1.363 . S
C954 C955 1.370 . S
C954 C958 1.524 . S
C955 C947 1.503 . S
C955 C954 1.370 . S
C955 C956 1.403 . S
C956 C955 1.403 . S
C956 C957 1.404 . S
C956 C959 1.539 . S
C957 C953 1.408 . S
C957 C956 1.404 . S
C957 H969 0.930 . S
C958 C954 1.524 . S
C958 H970 0.956 . S
C958 H971 0.961 . S
C958 H972 0.961 . S
C959 C956 1.539 . S
C959 H973 0.958 . S
C959 H974 0.961 . S
C959 H975 0.960 . S
H960 C944 0.931 . S
H961 C949 0.929 . S
H962 C950 0.960 . S
H963 C950 0.962 . S
H964 C950 0.960 . S
H965 C951 0.961 . S
H966 C951 0.961 . S
H967 C951 0.961 . S
H968 C952 0.931 . S
H969 C957 0.930 . S
H970 C958 0.956 . S
H971 C958 0.961 . S
H972 C958 0.961 . S
H973 C959 0.958 . S
H974 C959 0.961 . S
H975 C959 0.960 . S
C976 C977 1.391 . S
C976 C978 1.394 . S
C976 H992 0.931 . S
C977 C976 1.391 . S
C977 C981 1.376 . S
C978 C976 1.394 . S
C978 C979 1.369 . S
C978 C982 1.531 . S
C979 C978 1.369 . S
C979 C980 1.410 . S
C979 C987 1.503 . S
C980 C979 1.410 . S
C980 C981 1.392 . S
C980 C983 1.511 . S
C981 C977 1.376 . S
C981 C980 1.392 . S
C981 H993 0.929 . S
C982 C978 1.531 . S
C982 H994 0.960 . S
C982 H995 0.962 . S
C982 H996 0.960 . S
C983 C980 1.511 . S
C983 H997 0.961 . S
C983 H998 0.961 . S
C983 H999 0.961 . S
C984 C985 1.370 . S
C984 C986 1.363 . S
C984 H1000 0.931 . S
C985 C984 1.370 . S
C985 C989 1.408 . S
C986 C984 1.363 . S
C986 C987 1.370 . S
C986 C990 1.524 . S
C987 C979 1.503 . S
C987 C986 1.370 . S
C987 C988 1.403 . S
C988 C987 1.403 . S
C988 C989 1.404 . S
C988 C991 1.539 . S
C989 C985 1.408 . S
C989 C988 1.404 . S
C989 H1001 0.930 . S
C990 C986 1.524 . S
C990 H1002 0.956 . S
C990 H1003 0.961 . S
C990 H1004 0.961 . S
C991 C988 1.539 . S
C991 H1005 0.958 . S
C991 H1006 0.961 . S
C991 H1007 0.960 . S
H992 C976 0.931 . S
H993 C981 0.929 . S
H994 C982 0.960 . S
H995 C982 0.962 . S
H996 C982 0.960 . S
H997 C983 0.961 . S
H998 C983 0.961 . S
H999 C983 0.961 . S
H1000 C984 0.931 . S
H1001 C989 0.930 . S
H1002 C990 0.956 . S
H1003 C990 0.961 . S
H1004 C990 0.961 . S
H1005 C991 0.958 . S
H1006 C991 0.961 . S
H1007 C991 0.960 . S
C1008 C1009 1.391 . S
C1008 C1010 1.394 . S
C1008 H1024 0.931 . S
C1009 C1008 1.391 . S
C1009 C1013 1.376 . S
C1010 C1008 1.394 . S
C1010 C1011 1.369 . S
C1010 C1014 1.531 . S
C1011 C1010 1.369 . S
C1011 C1012 1.410 . S
C1011 C1019 1.503 . S
C1012 C1011 1.410 . S
C1012 C1013 1.392 . S
C1012 C1015 1.511 . S
C1013 C1009 1.376 . S
C1013 C1012 1.392 . S
C1013 H1025 0.929 . S
C1014 C1010 1.531 . S
C1014 H1026 0.960 . S
C1014 H1027 0.962 . S
C1014 H1028 0.960 . S
C1015 C1012 1.511 . S
C1015 H1029 0.961 . S
C1015 H1030 0.961 . S
C1015 H1031 0.961 . S
C1016 C1017 1.370 . S
C1016 C1018 1.363 . S
C1016 H1032 0.931 . S
C1017 C1016 1.370 . S
C1017 C1021 1.408 . S
C1018 C1016 1.363 . S
C1018 C1019 1.370 . S
C1018 C1022 1.524 . S
C1019 C1011 1.503 . S
C1019 C1018 1.370 . S
C1019 C1020 1.403 . S
C1020 C1019 1.403 . S
C1020 C1021 1.404 . S
C1020 C1023 1.539 . S
C1021 C1017 1.408 . S
C1021 C1020 1.404 . S
C1021 H1033 0.930 . S
C1022 C1018 1.524 . S
C1022 H1034 0.956 . S
C1022 H1035 0.961 . S
C1022 H1036 0.961 . S
C1023 C1020 1.539 . S
C1023 H1037 0.958 . S
C1023 H1038 0.961 . S
C1023 H1039 0.960 . S
H1024 C1008 0.931 . S
H1025 C1013 0.929 . S
H1026 C1014 0.960 . S
H1027 C1014 0.962 . S
H1028 C1014 0.960 . S
H1029 C1015 0.961 . S
H1030 C1015 0.961 . S
H1031 C1015 0.961 . S
H1032 C1016 0.931 . S
H1033 C1021 0.930 . S
H1034 C1022 0.956 . S
H1035 C1022 0.961 . S
H1036 C1022 0.961 . S
H1037 C1023 0.958 . S
H1038 C1023 0.961 . S
H1039 C1023 0.960 . S
C1040 C1041 1.391 . S
C1040 C1042 1.394 . S
C1040 H1056 0.931 . S
C1041 C1040 1.391 . S
C1041 C1045 1.376 . S
C1042 C1040 1.394 . S
C1042 C1043 1.369 . S
C1042 C1046 1.531 . S
C1043 C1042 1.369 . S
C1043 C1044 1.410 . S
C1043 C1051 1.503 . S
C1044 C1043 1.410 . S
C1044 C1045 1.392 . S
C1044 C1047 1.511 . S
C1045 C1041 1.376 . S
C1045 C1044 1.392 . S
C1045 H1057 0.929 . S
C1046 C1042 1.531 . S
C1046 H1058 0.960 . S
C1046 H1059 0.962 . S
C1046 H1060 0.960 . S
C1047 C1044 1.511 . S
C1047 H1061 0.961 . S
C1047 H1062 0.961 . S
C1047 H1063 0.961 . S
C1048 C1049 1.370 . S
C1048 C1050 1.363 . S
C1048 H1064 0.931 . S
C1049 C1048 1.370 . S
C1049 C1053 1.408 . S
C1050 C1048 1.363 . S
C1050 C1051 1.370 . S
C1050 C1054 1.524 . S
C1051 C1043 1.503 . S
C1051 C1050 1.370 . S
C1051 C1052 1.403 . S
C1052 C1051 1.403 . S
C1052 C1053 1.404 . S
C1052 C1055 1.539 . S
C1053 C1049 1.408 . S
C1053 C1052 1.404 . S
C1053 H1065 0.930 . S
C1054 C1050 1.524 . S
C1054 H1066 0.956 . S
C1054 H1067 0.961 . S
C1054 H1068 0.961 . S
C1055 C1052 1.539 . S
C1055 H1069 0.958 . S
C1055 H1070 0.961 . S
C1055 H1071 0.960 . S
H1056 C1040 0.931 . S
H1057 C1045 0.929 . S
H1058 C1046 0.960 . S
H1059 C1046 0.962 . S
H1060 C1046 0.960 . S
H1061 C1047 0.961 . S
H1062 C1047 0.961 . S
H1063 C1047 0.961 . S
H1064 C1048 0.931 . S
H1065 C1053 0.930 . S
H1066 C1054 0.956 . S
H1067 C1054 0.961 . S
H1068 C1054 0.961 . S
H1069 C1055 0.958 . S
H1070 C1055 0.961 . S
H1071 C1055 0.960 . S
C1072 C1073 1.391 . S
C1072 C1074 1.394 . S
C1072 H1088 0.931 . S
C1073 C1072 1.391 . S
C1073 C1077 1.376 . S
C1074 C1072 1.394 . S
C1074 C1075 1.369 . S
C1074 C1078 1.531 . S
C1075 C1074 1.369 . S
C1075 C1076 1.410 . S
C1075 C1083 1.503 . S
C1076 C1075 1.410 . S
C1076 C1077 1.392 . S
C1076 C1079 1.511 . S
C1077 C1073 1.376 . S
C1077 C1076 1.392 . S
C1077 H1089 0.929 . S
C1078 C1074 1.531 . S
C1078 H1090 0.960 . S
C1078 H1091 0.962 . S
C1078 H1092 0.960 . S
C1079 C1076 1.511 . S
C1079 H1093 0.961 . S
C1079 H1094 0.961 . S
C1079 H1095 0.961 . S
C1080 C1081 1.370 . S
C1080 C1082 1.363 . S
C1080 H1096 0.931 . S
C1081 C1080 1.370 . S
C1081 C1085 1.408 . S
C1082 C1080 1.363 . S
C1082 C1083 1.370 . S
C1082 C1086 1.524 . S
C1083 C1075 1.503 . S
C1083 C1082 1.370 . S
C1083 C1084 1.403 . S
C1084 C1083 1.403 . S
C1084 C1085 1.404 . S
C1084 C1087 1.539 . S
C1085 C1081 1.408 . S
C1085 C1084 1.404 . S
C1085 H1097 0.930 . S
C1086 C1082 1.524 . S
C1086 H1098 0.956 . S
C1086 H1099 0.961 . S
C1086 H1100 0.961 . S
C1087 C1084 1.539 . S
C1087 H1101 0.958 . S
C1087 H1102 0.961 . S
C1087 H1103 0.960 . S
H1088 C1072 0.931 . S
H1089 C1077 0.929 . S
H1090 C1078 0.960 . S
H1091 C1078 0.962 . S
H1092 C1078 0.960 . S
H1093 C1079 0.961 . S
H1094 C1079 0.961 . S
H1095 C1079 0.961 . S
H1096 C1080 0.931 . S
H1097 C1085 0.930 . S
H1098 C1086 0.956 . S
H1099 C1086 0.961 . S
H1100 C1086 0.961 . S
H1101 C1087 0.958 . S
H1102 C1087 0.961 . S
H1103 C1087 0.960 . S
C1104 C1105 1.391 . S
C1104 C1106 1.394 . S
C1104 H1120 0.931 . S
C1105 C1104 1.391 . S
C1105 C1109 1.376 . S
C1106 C1104 1.394 . S
C1106 C1107 1.369 . S
C1106 C1110 1.531 . S
C1107 C1106 1.369 . S
C1107 C1108 1.410 . S
C1107 C1115 1.503 1_554 S
C1108 C1107 1.410 . S
C1108 C1109 1.392 . S
C1108 C1111 1.511 . S
C1109 C1105 1.376 . S
C1109 C1108 1.392 . S
C1109 H1121 0.929 . S
C1110 C1106 1.531 . S
C1110 H1122 0.960 1_554 S
C1110 H1123 0.962 . S
C1110 H1124 0.960 . S
C1111 C1108 1.511 . S
C1111 H1125 0.961 . S
C1111 H1126 0.961 1_554 S
C1111 H1127 0.961 . S
C1112 C1113 1.370 . S
C1112 C1114 1.363 . S
C1112 H1128 0.931 . S
C1113 C1112 1.370 . S
C1113 C1117 1.408 . S
C1114 C1112 1.363 . S
C1114 C1115 1.370 . S
C1114 C1118 1.524 . S
C1115 C1107 1.503 1_556 S
C1115 C1114 1.370 . S
C1115 C1116 1.403 . S
C1116 C1115 1.403 . S
C1116 C1117 1.404 . S
C1116 C1119 1.539 . S
C1117 C1113 1.408 . S
C1117 C1116 1.404 . S
C1117 H1129 0.930 . S
C1118 C1114 1.524 . S
C1118 H1130 0.956 . S
C1118 H1131 0.961 1_556 S
C1118 H1132 0.961 . S
C1119 C1116 1.539 . S
C1119 H1133 0.958 . S
C1119 H1134 0.961 . S
C1119 H1135 0.972 . S
H1120 C1104 0.931 . S
H1121 C1109 0.929 . S
H1122 C1110 0.960 1_556 S
H1123 C1110 0.962 . S
H1124 C1110 0.960 . S
H1125 C1111 0.961 . S
H1126 C1111 0.961 1_556 S
H1127 C1111 0.961 . S
H1128 C1112 0.931 . S
H1129 C1117 0.930 . S
H1130 C1118 0.956 . S
H1131 C1118 0.961 1_554 S
H1132 C1118 0.961 . S
H1133 C1119 0.958 . S
H1134 C1119 0.961 . S
H1135 C1119 0.972 . S
C1136 C1137 1.391 . S
C1136 C1138 1.394 . S
C1136 H1152 0.931 . S
C1137 C1136 1.391 . S
C1137 C1141 1.376 . S
C1138 C1136 1.394 . S
C1138 C1139 1.369 . S
C1138 C1142 1.531 . S
C1139 C1138 1.369 . S
C1139 C1140 1.410 . S
C1139 C1147 1.503 1_556 S
C1140 C1139 1.410 . S
C1140 C1141 1.392 . S
C1140 C1143 1.511 . S
C1141 C1137 1.376 . S
C1141 C1140 1.392 . S
C1141 H1153 0.929 . S
C1142 C1138 1.531 . S
C1142 H1154 0.960 1_556 S
C1142 H1155 0.962 . S
C1142 H1156 0.960 . S
C1143 C1140 1.511 . S
C1143 H1157 0.961 . S
C1143 H1158 0.961 1_556 S
C1143 H1159 0.961 . S
C1144 C1145 1.370 . S
C1144 C1146 1.363 . S
C1144 H1160 0.931 . S
C1145 C1144 1.370 . S
C1145 C1149 1.408 . S
C1146 C1144 1.363 . S
C1146 C1147 1.370 . S
C1146 C1150 1.524 . S
C1147 C1139 1.503 1_554 S
C1147 C1146 1.370 . S
C1147 C1148 1.403 . S
C1148 C1147 1.403 . S
C1148 C1149 1.404 . S
C1148 C1151 1.539 . S
C1149 C1145 1.408 . S
C1149 C1148 1.404 . S
C1149 H1161 0.930 . S
C1150 C1146 1.524 . S
C1150 H1162 0.956 . S
C1150 H1163 0.961 1_554 S
C1150 H1164 0.961 . S
C1151 C1148 1.539 . S
C1151 H1165 0.958 . S
C1151 H1166 0.961 . S
C1151 H1167 0.972 . S
H1152 C1136 0.931 . S
H1153 C1141 0.929 . S
H1154 C1142 0.960 1_554 S
H1155 C1142 0.962 . S
H1156 C1142 0.960 . S
H1157 C1143 0.961 . S
H1158 C1143 0.961 1_554 S
H1159 C1143 0.961 . S
H1160 C1144 0.931 . S
H1161 C1149 0.930 . S
H1162 C1150 0.956 . S
H1163 C1150 0.961 1_556 S
H1164 C1150 0.961 . S
H1165 C1151 0.958 . S
H1166 C1151 0.961 . S
H1167 C1151 0.972 . S
C1168 C1169 1.391 . S
C1168 C1170 1.394 . S
C1168 H1184 0.931 . S
C1169 C1168 1.391 . S
C1169 C1173 1.376 . S
C1170 C1168 1.394 . S
C1170 C1171 1.369 . S
C1170 C1174 1.531 . S
C1171 C1170 1.369 . S
C1171 C1172 1.410 . S
C1171 C1179 1.503 1_556 S
C1172 C1171 1.410 . S
C1172 C1173 1.392 . S
C1172 C1175 1.511 . S
C1173 C1169 1.376 . S
C1173 C1172 1.392 . S
C1173 H1185 0.929 . S
C1174 C1170 1.531 . S
C1174 H1186 0.960 1_556 S
C1174 H1187 0.962 . S
C1174 H1188 0.960 . S
C1175 C1172 1.511 . S
C1175 H1189 0.961 . S
C1175 H1190 0.961 1_556 S
C1175 H1191 0.961 . S
C1176 C1177 1.370 . S
C1176 C1178 1.363 . S
C1176 H1192 0.931 . S
C1177 C1176 1.370 . S
C1177 C1181 1.408 . S
C1178 C1176 1.363 . S
C1178 C1179 1.370 . S
C1178 C1182 1.524 . S
C1179 C1171 1.503 1_554 S
C1179 C1178 1.370 . S
C1179 C1180 1.403 . S
C1180 C1179 1.403 . S
C1180 C1181 1.404 . S
C1180 C1183 1.539 . S
C1181 C1177 1.408 . S
C1181 C1180 1.404 . S
C1181 H1193 0.930 . S
C1182 C1178 1.524 . S
C1182 H1194 0.956 . S
C1182 H1195 0.961 1_554 S
C1182 H1196 0.961 . S
C1183 C1180 1.539 . S
C1183 H1197 0.958 . S
C1183 H1198 0.961 . S
C1183 H1199 0.972 . S
H1184 C1168 0.931 . S
H1185 C1173 0.929 . S
H1186 C1174 0.960 1_554 S
H1187 C1174 0.962 . S
H1188 C1174 0.960 . S
H1189 C1175 0.961 . S
H1190 C1175 0.961 1_554 S
H1191 C1175 0.961 . S
H1192 C1176 0.931 . S
H1193 C1181 0.930 . S
H1194 C1182 0.956 . S
H1195 C1182 0.961 1_556 S
H1196 C1182 0.961 . S
H1197 C1183 0.958 . S
H1198 C1183 0.961 . S
H1199 C1183 0.972 . S
C1200 C1201 1.391 . S
C1200 C1202 1.394 . S
C1200 H1216 0.931 . S
C1201 C1200 1.391 . S
C1201 C1205 1.376 . S
C1202 C1200 1.394 . S
C1202 C1203 1.369 . S
C1202 C1206 1.531 . S
C1203 C1202 1.369 . S
C1203 C1204 1.410 . S
C1203 C1211 1.503 1_554 S
C1204 C1203 1.410 . S
C1204 C1205 1.392 . S
C1204 C1207 1.511 . S
C1205 C1201 1.376 . S
C1205 C1204 1.392 . S
C1205 H1217 0.929 . S
C1206 C1202 1.531 . S
C1206 H1218 0.960 1_554 S
C1206 H1219 0.962 . S
C1206 H1220 0.960 . S
C1207 C1204 1.511 . S
C1207 H1221 0.961 . S
C1207 H1222 0.961 1_554 S
C1207 H1223 0.961 . S
C1208 C1209 1.370 . S
C1208 C1210 1.363 . S
C1208 H1224 0.931 . S
C1209 C1208 1.370 . S
C1209 C1213 1.408 . S
C1210 C1208 1.363 . S
C1210 C1211 1.370 . S
C1210 C1214 1.524 . S
C1211 C1203 1.503 1_556 S
C1211 C1210 1.370 . S
C1211 C1212 1.403 . S
C1212 C1211 1.403 . S
C1212 C1213 1.404 . S
C1212 C1215 1.539 . S
C1213 C1209 1.408 . S
C1213 C1212 1.404 . S
C1213 H1225 0.930 . S
C1214 C1210 1.524 . S
C1214 H1226 0.956 . S
C1214 H1227 0.961 1_556 S
C1214 H1228 0.961 . S
C1215 C1212 1.539 . S
C1215 H1229 0.958 . S
C1215 H1230 0.961 . S
C1215 H1231 0.972 . S
H1216 C1200 0.931 . S
H1217 C1205 0.929 . S
H1218 C1206 0.960 1_556 S
H1219 C1206 0.962 . S
H1220 C1206 0.960 . S
H1221 C1207 0.961 . S
H1222 C1207 0.961 1_556 S
H1223 C1207 0.961 . S
H1224 C1208 0.931 . S
H1225 C1213 0.930 . S
H1226 C1214 0.956 . S
H1227 C1214 0.961 1_554 S
H1228 C1214 0.961 . S
H1229 C1215 0.958 . S
H1230 C1215 0.961 . S
H1231 C1215 0.972 . S
C1232 C1233 1.391 . S
C1232 C1234 1.394 . S
C1232 H1248 0.931 . S
C1233 C1232 1.391 . S
C1233 C1237 1.376 . S
C1234 C1232 1.394 . S
C1234 C1235 1.369 . S
C1234 C1238 1.531 . S
C1235 C1234 1.369 . S
C1235 C1236 1.410 . S
C1235 C1243 1.503 1_554 S
C1236 C1235 1.410 . S
C1236 C1237 1.392 . S
C1236 C1239 1.511 . S
C1237 C1233 1.376 . S
C1237 C1236 1.392 . S
C1237 H1249 0.929 . S
C1238 C1234 1.531 . S
C1238 H1250 0.960 1_554 S
C1238 H1251 0.962 . S
C1238 H1252 0.960 . S
C1239 C1236 1.511 . S
C1239 H1253 0.961 . S
C1239 H1254 0.961 1_554 S
C1239 H1255 0.961 . S
C1240 C1241 1.370 . S
C1240 C1242 1.363 . S
C1240 H1256 0.931 . S
C1241 C1240 1.370 . S
C1241 C1245 1.408 . S
C1242 C1240 1.363 . S
C1242 C1243 1.370 . S
C1242 C1246 1.524 . S
C1243 C1235 1.503 1_556 S
C1243 C1242 1.370 . S
C1243 C1244 1.403 . S
C1244 C1243 1.403 . S
C1244 C1245 1.404 . S
C1244 C1247 1.539 . S
C1245 C1241 1.408 . S
C1245 C1244 1.404 . S
C1245 H1257 0.930 . S
C1246 C1242 1.524 . S
C1246 H1258 0.956 . S
C1246 H1259 0.961 1_556 S
C1246 H1260 0.961 . S
C1247 C1244 1.539 . S
C1247 H1261 0.958 . S
C1247 H1262 0.961 . S
C1247 H1263 0.972 . S
H1248 C1232 0.931 . S
H1249 C1237 0.929 . S
H1250 C1238 0.960 1_556 S
H1251 C1238 0.962 . S
H1252 C1238 0.960 . S
H1253 C1239 0.961 . S
H1254 C1239 0.961 1_556 S
H1255 C1239 0.961 . S
H1256 C1240 0.931 . S
H1257 C1245 0.930 . S
H1258 C1246 0.956 . S
H1259 C1246 0.961 1_554 S
H1260 C1246 0.961 . S
H1261 C1247 0.958 . S
H1262 C1247 0.961 . S
H1263 C1247 0.972 . S
C1264 C1265 1.391 . S
C1264 C1266 1.394 . S
C1264 H1280 0.931 . S
C1265 C1264 1.391 . S
C1265 C1269 1.376 . S
C1266 C1264 1.394 . S
C1266 C1267 1.369 . S
C1266 C1270 1.531 . S
C1267 C1266 1.369 . S
C1267 C1268 1.410 . S
C1267 C1275 1.503 1_556 S
C1268 C1267 1.410 . S
C1268 C1269 1.392 . S
C1268 C1271 1.511 . S
C1269 C1265 1.376 . S
C1269 C1268 1.392 . S
C1269 H1281 0.929 . S
C1270 C1266 1.531 . S
C1270 H1282 0.960 1_556 S
C1270 H1283 0.962 . S
C1270 H1284 0.960 . S
C1271 C1268 1.511 . S
C1271 H1285 0.961 . S
C1271 H1286 0.961 1_556 S
C1271 H1287 0.961 . S
C1272 C1273 1.370 . S
C1272 C1274 1.363 . S
C1272 H1288 0.931 . S
C1273 C1272 1.370 . S
C1273 C1277 1.408 . S
C1274 C1272 1.363 . S
C1274 C1275 1.370 . S
C1274 C1278 1.524 . S
C1275 C1267 1.503 1_554 S
C1275 C1274 1.370 . S
C1275 C1276 1.403 . S
C1276 C1275 1.403 . S
C1276 C1277 1.404 . S
C1276 C1279 1.539 . S
C1277 C1273 1.408 . S
C1277 C1276 1.404 . S
C1277 H1289 0.930 . S
C1278 C1274 1.524 . S
C1278 H1290 0.956 . S
C1278 H1291 0.961 1_554 S
C1278 H1292 0.961 . S
C1279 C1276 1.539 . S
C1279 H1293 0.958 . S
C1279 H1294 0.961 . S
C1279 H1295 0.972 . S
H1280 C1264 0.931 . S
H1281 C1269 0.929 . S
H1282 C1270 0.960 1_554 S
H1283 C1270 0.962 . S
H1284 C1270 0.960 . S
H1285 C1271 0.961 . S
H1286 C1271 0.961 1_554 S
H1287 C1271 0.961 . S
H1288 C1272 0.931 . S
H1289 C1277 0.930 . S
H1290 C1278 0.956 . S
H1291 C1278 0.961 1_556 S
H1292 C1278 0.961 . S
H1293 C1279 0.958 . S
H1294 C1279 0.961 . S
H1295 C1279 0.972 . S
C1296 C1297 1.391 . S
C1296 C1298 1.394 . S
C1296 H1312 0.931 . S
C1297 C1296 1.391 . S
C1297 C1301 1.376 . S
C1298 C1296 1.394 . S
C1298 C1299 1.369 . S
C1298 C1302 1.531 . S
C1299 C1298 1.369 . S
C1299 C1300 1.410 . S
C1299 C1307 1.503 . S
C1300 C1299 1.410 . S
C1300 C1301 1.392 . S
C1300 C1303 1.511 . S
C1301 C1297 1.376 . S
C1301 C1300 1.392 . S
C1301 H1313 0.929 . S
C1302 C1298 1.531 . S
C1302 H1314 0.960 . S
C1302 H1315 0.962 . S
C1302 H1316 0.960 . S
C1303 C1300 1.511 . S
C1303 H1317 0.961 . S
C1303 H1318 0.961 . S
C1303 H1319 0.961 . S
C1304 C1305 1.370 . S
C1304 C1306 1.363 . S
C1304 H1320 0.931 . S
C1305 C1304 1.370 . S
C1305 C1309 1.408 . S
C1306 C1304 1.363 . S
C1306 C1307 1.370 . S
C1306 C1310 1.524 . S
C1307 C1299 1.503 . S
C1307 C1306 1.370 . S
C1307 C1308 1.403 . S
C1308 C1307 1.403 . S
C1308 C1309 1.404 . S
C1308 C1311 1.539 . S
C1309 C1305 1.408 . S
C1309 C1308 1.404 . S
C1309 H1321 0.930 . S
C1310 C1306 1.524 . S
C1310 H1322 0.956 . S
C1310 H1323 0.961 . S
C1310 H1324 0.961 . S
C1311 C1308 1.539 . S
C1311 H1325 0.958 . S
C1311 H1326 0.961 . S
C1311 H1327 0.960 . S
H1312 C1296 0.931 . S
H1313 C1301 0.929 . S
H1314 C1302 0.960 . S
H1315 C1302 0.962 . S
H1316 C1302 0.960 . S
H1317 C1303 0.961 . S
H1318 C1303 0.961 . S
H1319 C1303 0.961 . S
H1320 C1304 0.931 . S
H1321 C1309 0.930 . S
H1322 C1310 0.956 . S
H1323 C1310 0.961 . S
H1324 C1310 0.961 . S
H1325 C1311 0.958 . S
H1326 C1311 0.961 . S
H1327 C1311 0.960 . S
C1328 C1329 1.391 . S
C1328 C1330 1.394 . S
C1328 H1344 0.931 . S
C1329 C1328 1.391 . S
C1329 C1333 1.376 . S
C1330 C1328 1.394 . S
C1330 C1331 1.369 . S
C1330 C1334 1.531 . S
C1331 C1330 1.369 . S
C1331 C1332 1.410 . S
C1331 C1339 1.503 . S
C1332 C1331 1.410 . S
C1332 C1333 1.392 . S
C1332 C1335 1.511 . S
C1333 C1329 1.376 . S
C1333 C1332 1.392 . S
C1333 H1345 0.929 . S
C1334 C1330 1.531 . S
C1334 H1346 0.960 . S
C1334 H1347 0.962 . S
C1334 H1348 0.960 . S
C1335 C1332 1.511 . S
C1335 H1349 0.961 . S
C1335 H1350 0.961 . S
C1335 H1351 0.961 . S
C1336 C1337 1.370 . S
C1336 C1338 1.363 . S
C1336 H1352 0.931 . S
C1337 C1336 1.370 . S
C1337 C1341 1.408 . S
C1338 C1336 1.363 . S
C1338 C1339 1.370 . S
C1338 C1342 1.524 . S
C1339 C1331 1.503 . S
C1339 C1338 1.370 . S
C1339 C1340 1.403 . S
C1340 C1339 1.403 . S
C1340 C1341 1.404 . S
C1340 C1343 1.539 . S
C1341 C1337 1.408 . S
C1341 C1340 1.404 . S
C1341 H1353 0.930 . S
C1342 C1338 1.524 . S
C1342 H1354 0.956 . S
C1342 H1355 0.961 . S
C1342 H1356 0.961 . S
C1343 C1340 1.539 . S
C1343 H1357 0.958 . S
C1343 H1358 0.961 . S
C1343 H1359 0.960 . S
H1344 C1328 0.931 . S
H1345 C1333 0.929 . S
H1346 C1334 0.960 . S
H1347 C1334 0.962 . S
H1348 C1334 0.960 . S
H1349 C1335 0.961 . S
H1350 C1335 0.961 . S
H1351 C1335 0.961 . S
H1352 C1336 0.931 . S
H1353 C1341 0.930 . S
H1354 C1342 0.956 . S
H1355 C1342 0.961 . S
H1356 C1342 0.961 . S
H1357 C1343 0.958 . S
H1358 C1343 0.961 . S
H1359 C1343 0.960 . S
C1360 C1361 1.391 . S
C1360 C1362 1.394 . S
C1360 H1376 0.931 . S
C1361 C1360 1.391 . S
C1361 C1365 1.376 . S
C1362 C1360 1.394 . S
C1362 C1363 1.369 . S
C1362 C1366 1.531 . S
C1363 C1362 1.369 . S
C1363 C1364 1.410 . S
C1363 C1371 1.503 . S
C1364 C1363 1.410 . S
C1364 C1365 1.392 . S
C1364 C1367 1.511 . S
C1365 C1361 1.376 . S
C1365 C1364 1.392 . S
C1365 H1377 0.929 . S
C1366 C1362 1.531 . S
C1366 H1378 0.960 . S
C1366 H1379 0.962 . S
C1366 H1380 0.960 . S
C1367 C1364 1.511 . S
C1367 H1381 0.961 . S
C1367 H1382 0.961 . S
C1367 H1383 0.961 . S
C1368 C1369 1.370 . S
C1368 C1370 1.363 . S
C1368 H1384 0.931 . S
C1369 C1368 1.370 . S
C1369 C1373 1.408 . S
C1370 C1368 1.363 . S
C1370 C1371 1.370 . S
C1370 C1374 1.524 . S
C1371 C1363 1.503 . S
C1371 C1370 1.370 . S
C1371 C1372 1.403 . S
C1372 C1371 1.403 . S
C1372 C1373 1.404 . S
C1372 C1375 1.539 . S
C1373 C1369 1.408 . S
C1373 C1372 1.404 . S
C1373 H1385 0.930 . S
C1374 C1370 1.524 . S
C1374 H1386 0.956 . S
C1374 H1387 0.961 . S
C1374 H1388 0.961 . S
C1375 C1372 1.539 . S
C1375 H1389 0.958 . S
C1375 H1390 0.961 . S
C1375 H1391 0.960 . S
H1376 C1360 0.931 . S
H1377 C1365 0.929 . S
H1378 C1366 0.960 . S
H1379 C1366 0.962 . S
H1380 C1366 0.960 . S
H1381 C1367 0.961 . S
H1382 C1367 0.961 . S
H1383 C1367 0.961 . S
H1384 C1368 0.931 . S
H1385 C1373 0.930 . S
H1386 C1374 0.956 . S
H1387 C1374 0.961 . S
H1388 C1374 0.961 . S
H1389 C1375 0.958 . S
H1390 C1375 0.961 . S
H1391 C1375 0.960 . S
C1392 C1393 1.391 . S
C1392 C1394 1.394 . S
C1392 H1408 0.931 . S
C1393 C1392 1.391 . S
C1393 C1397 1.376 . S
C1394 C1392 1.394 . S
C1394 C1395 1.369 . S
C1394 C1398 1.531 . S
C1395 C1394 1.369 . S
C1395 C1396 1.410 . S
C1395 C1403 1.503 . S
C1396 C1395 1.410 . S
C1396 C1397 1.392 . S
C1396 C1399 1.511 . S
C1397 C1393 1.376 . S
C1397 C1396 1.392 . S
C1397 H1409 0.929 . S
C1398 C1394 1.531 . S
C1398 H1410 0.960 . S
C1398 H1411 0.962 . S
C1398 H1412 0.960 . S
C1399 C1396 1.511 . S
C1399 H1413 0.961 . S
C1399 H1414 0.961 . S
C1399 H1415 0.961 . S
C1400 C1401 1.370 . S
C1400 C1402 1.363 . S
C1400 H1416 0.931 . S
C1401 C1400 1.370 . S
C1401 C1405 1.408 . S
C1402 C1400 1.363 . S
C1402 C1403 1.370 . S
C1402 C1406 1.524 . S
C1403 C1395 1.503 . S
C1403 C1402 1.370 . S
C1403 C1404 1.403 . S
C1404 C1403 1.403 . S
C1404 C1405 1.404 . S
C1404 C1407 1.539 . S
C1405 C1401 1.408 . S
C1405 C1404 1.404 . S
C1405 H1417 0.930 . S
C1406 C1402 1.524 . S
C1406 H1418 0.956 . S
C1406 H1419 0.961 . S
C1406 H1420 0.961 . S
C1407 C1404 1.539 . S
C1407 H1421 0.958 . S
C1407 H1422 0.961 . S
C1407 H1423 0.960 . S
H1408 C1392 0.931 . S
H1409 C1397 0.929 . S
H1410 C1398 0.960 . S
H1411 C1398 0.962 . S
H1412 C1398 0.960 . S
H1413 C1399 0.961 . S
H1414 C1399 0.961 . S
H1415 C1399 0.961 . S
H1416 C1400 0.931 . S
H1417 C1405 0.930 . S
H1418 C1406 0.956 . S
H1419 C1406 0.961 . S
H1420 C1406 0.961 . S
H1421 C1407 0.958 . S
H1422 C1407 0.961 . S
H1423 C1407 0.960 . S
C1424 C1425 1.391 . S
C1424 C1426 1.394 . S
C1424 H1440 0.931 . S
C1425 C1424 1.391 . S
C1425 C1429 1.376 . S
C1426 C1424 1.394 . S
C1426 C1427 1.369 . S
C1426 C1430 1.531 . S
C1427 C1426 1.369 . S
C1427 C1428 1.410 . S
C1427 C1435 1.503 . S
C1428 C1427 1.410 . S
C1428 C1429 1.392 . S
C1428 C1431 1.511 . S
C1429 C1425 1.376 . S
C1429 C1428 1.392 . S
C1429 H1441 0.929 . S
C1430 C1426 1.531 . S
C1430 H1442 0.960 . S
C1430 H1443 0.962 . S
C1430 H1444 0.960 . S
C1431 C1428 1.511 . S
C1431 H1445 0.961 . S
C1431 H1446 0.961 . S
C1431 H1447 0.961 . S
C1432 C1433 1.370 . S
C1432 C1434 1.363 . S
C1432 H1448 0.931 . S
C1433 C1432 1.370 . S
C1433 C1437 1.408 . S
C1434 C1432 1.363 . S
C1434 C1435 1.370 . S
C1434 C1438 1.524 . S
C1435 C1427 1.503 . S
C1435 C1434 1.370 . S
C1435 C1436 1.403 . S
C1436 C1435 1.403 . S
C1436 C1437 1.404 . S
C1436 C1439 1.539 . S
C1437 C1433 1.408 . S
C1437 C1436 1.404 . S
C1437 H1449 0.930 . S
C1438 C1434 1.524 . S
C1438 H1450 0.956 . S
C1438 H1451 0.961 . S
C1438 H1452 0.961 . S
C1439 C1436 1.539 . S
C1439 H1453 0.958 . S
C1439 H1454 0.961 . S
C1439 H1455 0.960 . S
H1440 C1424 0.931 . S
H1441 C1429 0.929 . S
H1442 C1430 0.960 . S
H1443 C1430 0.962 . S
H1444 C1430 0.960 . S
H1445 C1431 0.961 . S
H1446 C1431 0.961 . S
H1447 C1431 0.961 . S
H1448 C1432 0.931 . S
H1449 C1437 0.930 . S
H1450 C1438 0.956 . S
H1451 C1438 0.961 . S
H1452 C1438 0.961 . S
H1453 C1439 0.958 . S
H1454 C1439 0.961 . S
H1455 C1439 0.960 . S
C1456 C1457 1.391 . S
C1456 C1458 1.394 . S
C1456 H1472 0.931 . S
C1457 C1456 1.391 . S
C1457 C1461 1.376 . S
C1458 C1456 1.394 . S
C1458 C1459 1.369 . S
C1458 C1462 1.531 . S
C1459 C1458 1.369 . S
C1459 C1460 1.410 . S
C1459 C1467 1.503 . S
C1460 C1459 1.410 . S
C1460 C1461 1.392 . S
C1460 C1463 1.511 . S
C1461 C1457 1.376 . S
C1461 C1460 1.392 . S
C1461 H1473 0.929 . S
C1462 C1458 1.531 . S
C1462 H1474 0.960 . S
C1462 H1475 0.962 . S
C1462 H1476 0.960 . S
C1463 C1460 1.511 . S
C1463 H1477 0.961 . S
C1463 H1478 0.961 . S
C1463 H1479 0.961 . S
C1464 C1465 1.370 . S
C1464 C1466 1.363 . S
C1464 H1480 0.931 . S
C1465 C1464 1.370 . S
C1465 C1469 1.408 . S
C1466 C1464 1.363 . S
C1466 C1467 1.370 . S
C1466 C1470 1.524 . S
C1467 C1459 1.503 . S
C1467 C1466 1.370 . S
C1467 C1468 1.403 . S
C1468 C1467 1.403 . S
C1468 C1469 1.404 . S
C1468 C1471 1.539 . S
C1469 C1465 1.408 . S
C1469 C1468 1.404 . S
C1469 H1481 0.930 . S
C1470 C1466 1.524 . S
C1470 H1482 0.956 . S
C1470 H1483 0.961 . S
C1470 H1484 0.961 . S
C1471 C1468 1.539 . S
C1471 H1485 0.958 . S
C1471 H1486 0.961 . S
C1471 H1487 0.960 . S
H1472 C1456 0.931 . S
H1473 C1461 0.929 . S
H1474 C1462 0.960 . S
H1475 C1462 0.962 . S
H1476 C1462 0.960 . S
H1477 C1463 0.961 . S
H1478 C1463 0.961 . S
H1479 C1463 0.961 . S
H1480 C1464 0.931 . S
H1481 C1469 0.930 . S
H1482 C1470 0.956 . S
H1483 C1470 0.961 . S
H1484 C1470 0.961 . S
H1485 C1471 0.958 . S
H1486 C1471 0.961 . S
H1487 C1471 0.960 . S
C1488 C1489 1.391 . S
C1488 C1490 1.394 . S
C1488 H1504 0.931 . S
C1489 C1488 1.391 . S
C1489 C1493 1.376 . S
C1490 C1488 1.394 . S
C1490 C1491 1.369 . S
C1490 C1494 1.531 . S
C1491 C1490 1.369 . S
C1491 C1492 1.410 . S
C1491 C1499 1.503 . S
C1492 C1491 1.410 . S
C1492 C1493 1.392 . S
C1492 C1495 1.511 . S
C1493 C1489 1.376 . S
C1493 C1492 1.392 . S
C1493 H1505 0.929 . S
C1494 C1490 1.531 . S
C1494 H1506 0.960 . S
C1494 H1507 0.962 . S
C1494 H1508 0.960 . S
C1495 C1492 1.511 . S
C1495 H1509 0.961 . S
C1495 H1510 0.961 . S
C1495 H1511 0.961 . S
C1496 C1497 1.370 . S
C1496 C1498 1.363 . S
C1496 H1512 0.931 . S
C1497 C1496 1.370 . S
C1497 C1501 1.408 . S
C1498 C1496 1.363 . S
C1498 C1499 1.370 . S
C1498 C1502 1.524 . S
C1499 C1491 1.503 . S
C1499 C1498 1.370 . S
C1499 C1500 1.403 . S
C1500 C1499 1.403 . S
C1500 C1501 1.404 . S
C1500 C1503 1.539 . S
C1501 C1497 1.408 . S
C1501 C1500 1.404 . S
C1501 H1513 0.930 . S
C1502 C1498 1.524 . S
C1502 H1514 0.956 . S
C1502 H1515 0.961 . S
C1502 H1516 0.961 . S
C1503 C1500 1.539 . S
C1503 H1517 0.958 . S
C1503 H1518 0.961 . S
C1503 H1519 0.960 . S
H1504 C1488 0.931 . S
H1505 C1493 0.929 . S
H1506 C1494 0.960 . S
H1507 C1494 0.962 . S
H1508 C1494 0.960 . S
H1509 C1495 0.961 . S
H1510 C1495 0.961 . S
H1511 C1495 0.961 . S
H1512 C1496 0.931 . S
H1513 C1501 0.930 . S
H1514 C1502 0.956 . S
H1515 C1502 0.961 . S
H1516 C1502 0.961 . S
H1517 C1503 0.958 . S
H1518 C1503 0.961 . S
H1519 C1503 0.960 . S
C1520 C1521 1.391 . S
C1520 C1522 1.394 . S
C1520 H1536 0.931 . S
C1521 C1520 1.391 . S
C1521 C1525 1.376 . S
C1522 C1520 1.394 . S
C1522 C1523 1.369 . S
C1522 C1526 1.531 . S
C1523 C1522 1.369 . S
C1523 C1524 1.410 . S
C1523 C1531 1.503 . S
C1524 C1523 1.410 . S
C1524 C1525 1.392 . S
C1524 C1527 1.511 . S
C1525 C1521 1.376 . S
C1525 C1524 1.392 . S
C1525 H1537 0.929 . S
C1526 C1522 1.531 . S
C1526 H1538 0.960 . S
C1526 H1539 0.962 . S
C1526 H1540 0.960 . S
C1527 C1524 1.511 . S
C1527 H1541 0.961 . S
C1527 H1542 0.961 . S
C1527 H1543 0.961 . S
C1528 C1529 1.370 . S
C1528 C1530 1.363 . S
C1528 H1544 0.931 . S
C1529 C1528 1.370 . S
C1529 C1533 1.408 . S
C1530 C1528 1.363 . S
C1530 C1531 1.370 . S
C1530 C1534 1.524 . S
C1531 C1523 1.503 . S
C1531 C1530 1.370 . S
C1531 C1532 1.403 . S
C1532 C1531 1.403 . S
C1532 C1533 1.404 . S
C1532 C1535 1.539 . S
C1533 C1529 1.408 . S
C1533 C1532 1.404 . S
C1533 H1545 0.930 . S
C1534 C1530 1.524 . S
C1534 H1546 0.956 . S
C1534 H1547 0.961 . S
C1534 H1548 0.961 . S
C1535 C1532 1.539 . S
C1535 H1549 0.958 . S
C1535 H1550 0.961 . S
C1535 H1551 0.960 . S
H1536 C1520 0.931 . S
H1537 C1525 0.929 . S
H1538 C1526 0.960 . S
H1539 C1526 0.962 . S
H1540 C1526 0.960 . S
H1541 C1527 0.961 . S
H1542 C1527 0.961 . S
H1543 C1527 0.961 . S
H1544 C1528 0.931 . S
H1545 C1533 0.930 . S
H1546 C1534 0.956 . S
H1547 C1534 0.961 . S
H1548 C1534 0.961 . S
H1549 C1535 0.958 . S
H1550 C1535 0.961 . S
H1551 C1535 0.960 . S
C1552 C1553 1.391 . S
C1552 C1554 1.394 . S
C1552 H1568 0.931 . S
C1553 C1552 1.391 . S
C1553 C1557 1.376 . S
C1554 C1552 1.394 . S
C1554 C1555 1.369 . S
C1554 C1558 1.531 . S
C1555 C1554 1.369 . S
C1555 C1556 1.410 . S
C1555 C1563 1.503 . S
C1556 C1555 1.410 . S
C1556 C1557 1.392 . S
C1556 C1559 1.511 . S
C1557 C1553 1.376 . S
C1557 C1556 1.392 . S
C1557 H1569 0.929 . S
C1558 C1554 1.531 . S
C1558 H1570 0.960 . S
C1558 H1571 0.962 . S
C1558 H1572 0.960 . S
C1559 C1556 1.511 . S
C1559 H1573 0.961 . S
C1559 H1574 0.961 . S
C1559 H1575 0.961 . S
C1560 C1561 1.370 . S
C1560 C1562 1.363 . S
C1560 H1576 0.931 . S
C1561 C1560 1.370 . S
C1561 C1565 1.408 . S
C1562 C1560 1.363 . S
C1562 C1563 1.370 . S
C1562 C1566 1.524 . S
C1563 C1555 1.503 . S
C1563 C1562 1.370 . S
C1563 C1564 1.403 . S
C1564 C1563 1.403 . S
C1564 C1565 1.404 . S
C1564 C1567 1.539 . S
C1565 C1561 1.408 . S
C1565 C1564 1.404 . S
C1565 H1577 0.930 . S
C1566 C1562 1.524 . S
C1566 H1578 0.956 . S
C1566 H1579 0.961 . S
C1566 H1580 0.961 . S
C1567 C1564 1.539 . S
C1567 H1581 0.958 . S
C1567 H1582 0.961 . S
C1567 H1583 0.960 . S
H1568 C1552 0.931 . S
H1569 C1557 0.929 . S
H1570 C1558 0.960 . S
H1571 C1558 0.962 . S
H1572 C1558 0.960 . S
H1573 C1559 0.961 . S
H1574 C1559 0.961 . S
H1575 C1559 0.961 . S
H1576 C1560 0.931 . S
H1577 C1565 0.930 . S
H1578 C1566 0.956 . S
H1579 C1566 0.961 . S
H1580 C1566 0.961 . S
H1581 C1567 0.958 . S
H1582 C1567 0.961 . S
H1583 C1567 0.960 . S
C1584 C1585 1.391 . S
C1584 C1586 1.394 . S
C1584 H1600 0.931 . S
C1585 C1584 1.391 . S
C1585 C1589 1.376 . S
C1586 C1584 1.394 . S
C1586 C1587 1.369 . S
C1586 C1590 1.531 . S
C1587 C1586 1.369 . S
C1587 C1588 1.410 . S
C1587 C1595 1.503 . S
C1588 C1587 1.410 . S
C1588 C1589 1.392 . S
C1588 C1591 1.511 . S
C1589 C1585 1.376 . S
C1589 C1588 1.392 . S
C1589 H1601 0.929 . S
C1590 C1586 1.531 . S
C1590 H1602 0.960 . S
C1590 H1603 0.962 . S
C1590 H1604 0.960 . S
C1591 C1588 1.511 . S
C1591 H1605 0.961 . S
C1591 H1606 0.961 . S
C1591 H1607 0.961 . S
C1592 C1593 1.370 . S
C1592 C1594 1.363 . S
C1592 H1608 0.931 . S
C1593 C1592 1.370 . S
C1593 C1597 1.408 . S
C1594 C1592 1.363 . S
C1594 C1595 1.370 . S
C1594 C1598 1.524 . S
C1595 C1587 1.503 . S
C1595 C1594 1.370 . S
C1595 C1596 1.403 . S
C1596 C1595 1.403 . S
C1596 C1597 1.404 . S
C1596 C1599 1.539 . S
C1597 C1593 1.408 . S
C1597 C1596 1.404 . S
C1597 H1609 0.930 . S
C1598 C1594 1.524 . S
C1598 H1610 0.956 . S
C1598 H1611 0.961 . S
C1598 H1612 0.961 . S
C1599 C1596 1.539 . S
C1599 H1613 0.958 . S
C1599 H1614 0.961 . S
C1599 H1615 0.960 . S
H1600 C1584 0.931 . S
H1601 C1589 0.929 . S
H1602 C1590 0.960 . S
H1603 C1590 0.962 . S
H1604 C1590 0.960 . S
H1605 C1591 0.961 . S
H1606 C1591 0.961 . S
H1607 C1591 0.961 . S
H1608 C1592 0.931 . S
H1609 C1597 0.930 . S
H1610 C1598 0.956 . S
H1611 C1598 0.961 . S
H1612 C1598 0.961 . S
H1613 C1599 0.958 . S
H1614 C1599 0.961 . S
H1615 C1599 0.960 . S
C1616 C1617 1.391 . S
C1616 C1618 1.394 . S
C1616 H1632 0.931 . S
C1617 C1616 1.391 . S
C1617 C1621 1.376 . S
C1618 C1616 1.394 . S
C1618 C1619 1.369 . S
C1618 C1622 1.531 . S
C1619 C1618 1.369 . S
C1619 C1620 1.410 . S
C1619 C1627 1.503 . S
C1620 C1619 1.410 . S
C1620 C1621 1.392 . S
C1620 C1623 1.511 . S
C1621 C1617 1.376 . S
C1621 C1620 1.392 . S
C1621 H1633 0.929 . S
C1622 C1618 1.531 . S
C1622 H1634 0.960 . S
C1622 H1635 0.962 . S
C1622 H1636 0.960 . S
C1623 C1620 1.511 . S
C1623 H1637 0.961 . S
C1623 H1638 0.961 . S
C1623 H1639 0.961 . S
C1624 C1625 1.370 . S
C1624 C1626 1.363 . S
C1624 H1640 0.931 . S
C1625 C1624 1.370 . S
C1625 C1629 1.408 . S
C1626 C1624 1.363 . S
C1626 C1627 1.370 . S
C1626 C1630 1.524 . S
C1627 C1619 1.503 . S
C1627 C1626 1.370 . S
C1627 C1628 1.403 . S
C1628 C1627 1.403 . S
C1628 C1629 1.404 . S
C1628 C1631 1.539 . S
C1629 C1625 1.408 . S
C1629 C1628 1.404 . S
C1629 H1641 0.930 . S
C1630 C1626 1.524 . S
C1630 H1642 0.956 . S
C1630 H1643 0.961 . S
C1630 H1644 0.961 . S
C1631 C1628 1.539 . S
C1631 H1645 0.958 . S
C1631 H1646 0.961 . S
C1631 H1647 0.960 . S
H1632 C1616 0.931 . S
H1633 C1621 0.929 . S
H1634 C1622 0.960 . S
H1635 C1622 0.962 . S
H1636 C1622 0.960 . S
H1637 C1623 0.961 . S
H1638 C1623 0.961 . S
H1639 C1623 0.961 . S
H1640 C1624 0.931 . S
H1641 C1629 0.930 . S
H1642 C1630 0.956 . S
H1643 C1630 0.961 . S
H1644 C1630 0.961 . S
H1645 C1631 0.958 . S
H1646 C1631 0.961 . S
H1647 C1631 0.960 . S
C1648 C1649 1.391 . S
C1648 C1650 1.394 . S
C1648 H1664 0.931 . S
C1649 C1648 1.391 . S
C1649 C1653 1.376 . S
C1650 C1648 1.394 . S
C1650 C1651 1.369 . S
C1650 C1654 1.531 . S
C1651 C1650 1.369 . S
C1651 C1652 1.410 . S
C1651 C1659 1.503 . S
C1652 C1651 1.410 . S
C1652 C1653 1.392 . S
C1652 C1655 1.511 . S
C1653 C1649 1.376 . S
C1653 C1652 1.392 . S
C1653 H1665 0.929 . S
C1654 C1650 1.531 . S
C1654 H1666 0.960 . S
C1654 H1667 0.962 . S
C1654 H1668 0.960 . S
C1655 C1652 1.511 . S
C1655 H1669 0.961 . S
C1655 H1670 0.961 . S
C1655 H1671 0.961 . S
C1656 C1657 1.370 . S
C1656 C1658 1.363 . S
C1656 H1672 0.931 . S
C1657 C1656 1.370 . S
C1657 C1661 1.408 . S
C1658 C1656 1.363 . S
C1658 C1659 1.370 . S
C1658 C1662 1.524 . S
C1659 C1651 1.503 . S
C1659 C1658 1.370 . S
C1659 C1660 1.403 . S
C1660 C1659 1.403 . S
C1660 C1661 1.404 . S
C1660 C1663 1.539 . S
C1661 C1657 1.408 . S
C1661 C1660 1.404 . S
C1661 H1673 0.930 . S
C1662 C1658 1.524 . S
C1662 H1674 0.956 . S
C1662 H1675 0.961 . S
C1662 H1676 0.961 . S
C1663 C1660 1.539 . S
C1663 H1677 0.958 . S
C1663 H1678 0.961 . S
C1663 H1679 0.960 . S
H1664 C1648 0.931 . S
H1665 C1653 0.929 . S
H1666 C1654 0.960 . S
H1667 C1654 0.962 . S
H1668 C1654 0.960 . S
H1669 C1655 0.961 . S
H1670 C1655 0.961 . S
H1671 C1655 0.961 . S
H1672 C1656 0.931 . S
H1673 C1661 0.930 . S
H1674 C1662 0.956 . S
H1675 C1662 0.961 . S
H1676 C1662 0.961 . S
H1677 C1663 0.958 . S
H1678 C1663 0.961 . S
H1679 C1663 0.960 . S
C1680 C1681 1.391 . S
C1680 C1682 1.394 . S
C1680 H1696 0.931 . S
C1681 C1680 1.391 . S
C1681 C1685 1.376 . S
C1682 C1680 1.394 . S
C1682 C1683 1.369 . S
C1682 C1686 1.531 . S
C1683 C1682 1.369 . S
C1683 C1684 1.410 . S
C1683 C1691 1.503 . S
C1684 C1683 1.410 . S
C1684 C1685 1.392 . S
C1684 C1687 1.511 . S
C1685 C1681 1.376 . S
C1685 C1684 1.392 . S
C1685 H1697 0.929 . S
C1686 C1682 1.531 . S
C1686 H1698 0.960 . S
C1686 H1699 0.962 . S
C1686 H1700 0.960 . S
C1687 C1684 1.511 . S
C1687 H1701 0.961 . S
C1687 H1702 0.961 . S
C1687 H1703 0.961 . S
C1688 C1689 1.370 . S
C1688 C1690 1.363 . S
C1688 H1704 0.931 . S
C1689 C1688 1.370 . S
C1689 C1693 1.408 . S
C1690 C1688 1.363 . S
C1690 C1691 1.370 . S
C1690 C1694 1.524 . S
C1691 C1683 1.503 . S
C1691 C1690 1.370 . S
C1691 C1692 1.403 . S
C1692 C1691 1.403 . S
C1692 C1693 1.404 . S
C1692 C1695 1.539 . S
C1693 C1689 1.408 . S
C1693 C1692 1.404 . S
C1693 H1705 0.930 . S
C1694 C1690 1.524 . S
C1694 H1706 0.956 . S
C1694 H1707 0.961 . S
C1694 H1708 0.961 . S
C1695 C1692 1.539 . S
C1695 H1709 0.958 . S
C1695 H1710 0.961 . S
C1695 H1711 0.960 . S
H1696 C1680 0.931 . S
H1697 C1685 0.929 . S
H1698 C1686 0.960 . S
H1699 C1686 0.962 . S
H1700 C1686 0.960 . S
H1701 C1687 0.961 . S
H1702 C1687 0.961 . S
H1703 C1687 0.961 . S
H1704 C1688 0.931 . S
H1705 C1693 0.930 . S
H1706 C1694 0.956 . S
H1707 C1694 0.961 . S
H1708 C1694 0.961 . S
H1709 C1695 0.958 . S
H1710 C1695 0.961 . S
H1711 C1695 0.960 . S
C1712 C1713 1.391 . S
C1712 C1714 1.394 . S
C1712 H1728 0.931 . S
C1713 C1712 1.391 . S
C1713 C1717 1.376 . S
C1714 C1712 1.394 . S
C1714 C1715 1.369 . S
C1714 C1718 1.531 . S
C1715 C1714 1.369 . S
C1715 C1716 1.410 . S
C1715 C1723 1.503 . S
C1716 C1715 1.410 . S
C1716 C1717 1.392 . S
C1716 C1719 1.511 . S
C1717 C1713 1.376 . S
C1717 C1716 1.392 . S
C1717 H1729 0.929 . S
C1718 C1714 1.531 . S
C1718 H1730 0.960 . S
C1718 H1731 0.962 . S
C1718 H1732 0.960 . S
C1719 C1716 1.511 . S
C1719 H1733 0.961 . S
C1719 H1734 0.961 . S
C1719 H1735 0.961 . S
C1720 C1721 1.370 . S
C1720 C1722 1.363 . S
C1720 H1736 0.931 . S
C1721 C1720 1.370 . S
C1721 C1725 1.408 . S
C1722 C1720 1.363 . S
C1722 C1723 1.370 . S
C1722 C1726 1.524 . S
C1723 C1715 1.503 . S
C1723 C1722 1.370 . S
C1723 C1724 1.403 . S
C1724 C1723 1.403 . S
C1724 C1725 1.404 . S
C1724 C1727 1.539 . S
C1725 C1721 1.408 . S
C1725 C1724 1.404 . S
C1725 H1737 0.930 . S
C1726 C1722 1.524 . S
C1726 H1738 0.956 . S
C1726 H1739 0.961 . S
C1726 H1740 0.961 . S
C1727 C1724 1.539 . S
C1727 H1741 0.958 . S
C1727 H1742 0.961 . S
C1727 H1743 0.960 . S
H1728 C1712 0.931 . S
H1729 C1717 0.929 . S
H1730 C1718 0.960 . S
H1731 C1718 0.962 . S
H1732 C1718 0.960 . S
H1733 C1719 0.961 . S
H1734 C1719 0.961 . S
H1735 C1719 0.961 . S
H1736 C1720 0.931 . S
H1737 C1725 0.930 . S
H1738 C1726 0.956 . S
H1739 C1726 0.961 . S
H1740 C1726 0.961 . S
H1741 C1727 0.958 . S
H1742 C1727 0.961 . S
H1743 C1727 0.960 . S
C1744 C1745 1.391 . S
C1744 C1746 1.394 . S
C1744 H1760 0.931 . S
C1745 C1744 1.391 . S
C1745 C1749 1.376 . S
C1746 C1744 1.394 . S
C1746 C1747 1.369 . S
C1746 C1750 1.531 . S
C1747 C1746 1.369 . S
C1747 C1748 1.410 . S
C1747 C1755 1.503 . S
C1748 C1747 1.410 . S
C1748 C1749 1.392 . S
C1748 C1751 1.511 . S
C1749 C1745 1.376 . S
C1749 C1748 1.392 . S
C1749 H1761 0.929 . S
C1750 C1746 1.531 . S
C1750 H1762 0.960 . S
C1750 H1763 0.962 . S
C1750 H1764 0.960 . S
C1751 C1748 1.511 . S
C1751 H1765 0.961 . S
C1751 H1766 0.961 . S
C1751 H1767 0.961 . S
C1752 C1753 1.370 . S
C1752 C1754 1.363 . S
C1752 H1768 0.931 . S
C1753 C1752 1.370 . S
C1753 C1757 1.408 . S
C1754 C1752 1.363 . S
C1754 C1755 1.370 . S
C1754 C1758 1.524 . S
C1755 C1747 1.503 . S
C1755 C1754 1.370 . S
C1755 C1756 1.403 . S
C1756 C1755 1.403 . S
C1756 C1757 1.404 . S
C1756 C1759 1.539 . S
C1757 C1753 1.408 . S
C1757 C1756 1.404 . S
C1757 H1769 0.930 . S
C1758 C1754 1.524 . S
C1758 H1770 0.956 . S
C1758 H1771 0.961 . S
C1758 H1772 0.961 . S
C1759 C1756 1.539 . S
C1759 H1773 0.958 . S
C1759 H1774 0.961 . S
C1759 H1775 0.960 . S
H1760 C1744 0.931 . S
H1761 C1749 0.929 . S
H1762 C1750 0.960 . S
H1763 C1750 0.962 . S
H1764 C1750 0.960 . S
H1765 C1751 0.961 . S
H1766 C1751 0.961 . S
H1767 C1751 0.961 . S
H1768 C1752 0.931 . S
H1769 C1757 0.930 . S
H1770 C1758 0.956 . S
H1771 C1758 0.961 . S
H1772 C1758 0.961 . S
H1773 C1759 0.958 . S
H1774 C1759 0.961 . S
H1775 C1759 0.960 . S
C1776 C1777 1.391 . S
C1776 C1778 1.394 . S
C1776 H1792 0.931 . S
C1777 C1776 1.391 . S
C1777 C1781 1.376 . S
C1778 C1776 1.394 . S
C1778 C1779 1.369 . S
C1778 C1782 1.531 . S
C1779 C1778 1.369 . S
C1779 C1780 1.410 . S
C1779 C1787 1.503 . S
C1780 C1779 1.410 . S
C1780 C1781 1.392 . S
C1780 C1783 1.511 . S
C1781 C1777 1.376 . S
C1781 C1780 1.392 . S
C1781 H1793 0.929 . S
C1782 C1778 1.531 . S
C1782 H1794 0.960 . S
C1782 H1795 0.962 . S
C1782 H1796 0.960 . S
C1783 C1780 1.511 . S
C1783 H1797 0.961 . S
C1783 H1798 0.961 . S
C1783 H1799 0.961 . S
C1784 C1785 1.370 . S
C1784 C1786 1.363 . S
C1784 H1800 0.931 . S
C1785 C1784 1.370 . S
C1785 C1789 1.408 . S
C1786 C1784 1.363 . S
C1786 C1787 1.370 . S
C1786 C1790 1.524 . S
C1787 C1779 1.503 . S
C1787 C1786 1.370 . S
C1787 C1788 1.403 . S
C1788 C1787 1.403 . S
C1788 C1789 1.404 . S
C1788 C1791 1.539 . S
C1789 C1785 1.408 . S
C1789 C1788 1.404 . S
C1789 H1801 0.930 . S
C1790 C1786 1.524 . S
C1790 H1802 0.956 . S
C1790 H1803 0.961 . S
C1790 H1804 0.961 . S
C1791 C1788 1.539 . S
C1791 H1805 0.958 . S
C1791 H1806 0.961 . S
C1791 H1807 0.960 . S
H1792 C1776 0.931 . S
H1793 C1781 0.929 . S
H1794 C1782 0.960 . S
H1795 C1782 0.962 . S
H1796 C1782 0.960 . S
H1797 C1783 0.961 . S
H1798 C1783 0.961 . S
H1799 C1783 0.961 . S
H1800 C1784 0.931 . S
H1801 C1789 0.930 . S
H1802 C1790 0.956 . S
H1803 C1790 0.961 . S
H1804 C1790 0.961 . S
H1805 C1791 0.958 . S
H1806 C1791 0.961 . S
H1807 C1791 0.960 . S
C1808 C1809 1.391 . S
C1808 C1810 1.394 . S
C1808 H1824 0.931 . S
C1809 C1808 1.391 . S
C1809 C1813 1.376 . S
C1810 C1808 1.394 . S
C1810 C1811 1.369 . S
C1810 C1814 1.531 . S
C1811 C1810 1.369 . S
C1811 C1812 1.410 . S
C1811 C1819 1.503 . S
C1812 C1811 1.410 . S
C1812 C1813 1.392 . S
C1812 C1815 1.511 . S
C1813 C1809 1.376 . S
C1813 C1812 1.392 . S
C1813 H1825 0.929 . S
C1814 C1810 1.531 . S
C1814 H1826 0.960 . S
C1814 H1827 0.962 . S
C1814 H1828 0.960 . S
C1815 C1812 1.511 . S
C1815 H1829 0.961 . S
C1815 H1830 0.961 . S
C1815 H1831 0.961 . S
C1816 C1817 1.370 . S
C1816 C1818 1.363 . S
C1816 H1832 0.931 . S
C1817 C1816 1.370 . S
C1817 C1821 1.408 . S
C1818 C1816 1.363 . S
C1818 C1819 1.370 . S
C1818 C1822 1.524 . S
C1819 C1811 1.503 . S
C1819 C1818 1.370 . S
C1819 C1820 1.403 . S
C1820 C1819 1.403 . S
C1820 C1821 1.404 . S
C1820 C1823 1.539 . S
C1821 C1817 1.408 . S
C1821 C1820 1.404 . S
C1821 H1833 0.930 . S
C1822 C1818 1.524 . S
C1822 H1834 0.956 . S
C1822 H1835 0.961 . S
C1822 H1836 0.961 . S
C1823 C1820 1.539 . S
C1823 H1837 0.958 . S
C1823 H1838 0.961 . S
C1823 H1839 0.960 . S
H1824 C1808 0.931 . S
H1825 C1813 0.929 . S
H1826 C1814 0.960 . S
H1827 C1814 0.962 . S
H1828 C1814 0.960 . S
H1829 C1815 0.961 . S
H1830 C1815 0.961 . S
H1831 C1815 0.961 . S
H1832 C1816 0.931 . S
H1833 C1821 0.930 . S
H1834 C1822 0.956 . S
H1835 C1822 0.961 . S
H1836 C1822 0.961 . S
H1837 C1823 0.958 . S
H1838 C1823 0.961 . S
H1839 C1823 0.960 . S
C1840 C1841 1.391 . S
C1840 C1842 1.394 . S
C1840 H1856 0.931 . S
C1841 C1840 1.391 . S
C1841 C1845 1.376 . S
C1842 C1840 1.394 . S
C1842 C1843 1.369 . S
C1842 C1846 1.531 . S
C1843 C1842 1.369 . S
C1843 C1844 1.410 . S
C1843 C1851 1.503 . S
C1844 C1843 1.410 . S
C1844 C1845 1.392 . S
C1844 C1847 1.511 . S
C1845 C1841 1.376 . S
C1845 C1844 1.392 . S
C1845 H1857 0.929 . S
C1846 C1842 1.531 . S
C1846 H1858 0.960 . S
C1846 H1859 0.962 . S
C1846 H1860 0.960 . S
C1847 C1844 1.511 . S
C1847 H1861 0.961 . S
C1847 H1862 0.961 . S
C1847 H1863 0.961 . S
C1848 C1849 1.370 . S
C1848 C1850 1.363 . S
C1848 H1864 0.931 . S
C1849 C1848 1.370 . S
C1849 C1853 1.408 . S
C1850 C1848 1.363 . S
C1850 C1851 1.370 . S
C1850 C1854 1.524 . S
C1851 C1843 1.503 . S
C1851 C1850 1.370 . S
C1851 C1852 1.403 . S
C1852 C1851 1.403 . S
C1852 C1853 1.404 . S
C1852 C1855 1.539 . S
C1853 C1849 1.408 . S
C1853 C1852 1.404 . S
C1853 H1865 0.930 . S
C1854 C1850 1.524 . S
C1854 H1866 0.956 . S
C1854 H1867 0.961 . S
C1854 H1868 0.961 . S
C1855 C1852 1.539 . S
C1855 H1869 0.958 . S
C1855 H1870 0.961 . S
C1855 H1871 0.960 . S
H1856 C1840 0.931 . S
H1857 C1845 0.929 . S
H1858 C1846 0.960 . S
H1859 C1846 0.962 . S
H1860 C1846 0.960 . S
H1861 C1847 0.961 . S
H1862 C1847 0.961 . S
H1863 C1847 0.961 . S
H1864 C1848 0.931 . S
H1865 C1853 0.930 . S
H1866 C1854 0.956 . S
H1867 C1854 0.961 . S
H1868 C1854 0.961 . S
H1869 C1855 0.958 . S
H1870 C1855 0.961 . S
H1871 C1855 0.960 . S
C337 C5 1.539 . S
C345 C103 1.532 . S
C369 C117 1.526 . S
C377 C19 1.532 . S
C401 C33 1.523 . S
C409 C131 1.533 . S
C433 C47 1.537 . S
C441 C145 1.542 . S
C465 C159 1.526 . S
C473 C61 1.532 . S
C497 C75 1.525 . S
C505 C89 1.541 . S
C529 C173 1.545 . S
C537 C271 1.538 . S
C561 C187 1.524 . S
C569 C285 1.531 . S
C593 C299 1.524 . S
C601 C201 1.539 . S
C625 C215 1.536 . S
C633 C313 1.542 . S
C657 C229 1.543 . S
C665 C327 1.541 . S
C689 C257 1.537 . S
C697 C243 1.542 . S
C721 C11 1.381 . S
C729 C123 1.387 . S
C753 C137 1.385 . S
C761 C25 1.387 . S
C785 C151 1.375 . S
C793 C39 1.386 . S
C817 C53 1.388 . S
C825 C165 1.384 . S
C849 C67 1.382 . S
C857 C95 1.381 . S
C881 C81 1.380 . S
C889 C109 1.381 . S
C913 C291 1.383 . S
C921 C179 1.382 . S
C945 C193 1.385 . S
C953 C305 1.383 . S
C977 C319 1.373 . S
C985 C207 1.382 . S
C1009 C333 1.385 . S
C1017 C221 1.383 . S
C1041 C263 1.387 . S
C1049 C235 1.387 . S
C1073 C249 1.373 . S
C1081 C277 1.382 . S
C1105 C9 1.592 . S
C1113 C219 1.593 . S
C1137 C233 1.580 . S
C1145 C23 1.587 . S
C1169 C247 1.591 . S
C1177 C37 1.593 . S
C1201 C51 1.580 . S
C1209 C177 1.588 . S
C1233 C65 1.588 . S
C1241 C191 1.591 . S
C1265 C205 1.582 . S
C1273 C79 1.588 . S
C1297 C303 1.588 . S
C1305 C93 1.590 . S
C1329 C317 1.588 . S
C1337 C107 1.590 . S
C1361 C331 1.587 . S
C1369 C121 1.591 . S
C1393 C261 1.580 . S
C1401 C135 1.588 . S
C1425 C149 1.580 . S
C1433 C275 1.588 . S
C1457 C163 1.590 . S
C1465 C289 1.592 . S
C1489 C0 1.434 . S
C1497 C140 1.412 . S
C1521 C154 1.423 . S
C1529 C14 1.412 . S
C1553 C84 1.412 . S
C1561 C28 1.433 . S
C1585 C42 1.436 . S
C1593 C98 1.427 . S
C1617 C56 1.407 . S
C1625 C112 1.416 . S
C1649 C70 1.415 . S
C1657 C126 1.433 . S
C1681 C168 1.426 . S
C1689 C308 1.433 . S
C1713 C182 1.444 . S
C1721 C322 1.418 . S
C1745 C196 1.393 . S
C1753 C252 1.421 . S
C1777 C266 1.403 . S
C1785 C210 1.415 . S
C1809 C224 1.445 . S
C1817 C280 1.420 . S
C1841 C238 1.392 . S
C1849 C294 1.424 . S
