# Generated by pormake.
# Topology bcg, (8)-cn, num edge types: 1
# Building blocks:
#     Node 0, Type 0, BuildingBlock: LIZSOE_clean_sbu_0, # of connection points: 8
#     Node 1, Type 0, BuildingBlock: LIZSOE_clean_sbu_0, # of connection points: 8
#     Node 2, Type 0, BuildingBlock: LIZSOE_clean_sbu_0, # of connection points: 8
#     Node 3, Type 0, BuildingBlock: LIZSOE_clean_sbu_0, # of connection points: 8
#     Edge 4, Type (0, 0), BuildingBlock: FUNLAD_clean_linker_1, # of connection points: 2
#     Edge 5, Type (0, 0), BuildingBlock: FUNLAD_clean_linker_1, # of connection points: 2
#     Edge 6, Type (0, 0), BuildingBlock: FUNLAD_clean_linker_1, # of connection points: 2
#     Edge 7, Type (0, 0), BuildingBlock: FUNLAD_clean_linker_1, # of connection points: 2
#     Edge 8, Type (0, 0), BuildingBlock: FUNLAD_clean_linker_1, # of connection points: 2
#     Edge 9, Type (0, 0), BuildingBlock: FUNLAD_clean_linker_1, # of connection points: 2
#     Edge 10, Type (0, 0), BuildingBlock: FUNLAD_clean_linker_1, # of connection points: 2
#     Edge 11, Type (0, 0), BuildingBlock: FUNLAD_clean_linker_1, # of connection points: 2
#     Edge 12, Type (0, 0), BuildingBlock: FUNLAD_clean_linker_1, # of connection points: 2
#     Edge 13, Type (0, 0), BuildingBlock: FUNLAD_clean_linker_1, # of connection points: 2
#     Edge 14, Type (0, 0), BuildingBlock: FUNLAD_clean_linker_1, # of connection points: 2
#     Edge 15, Type (0, 0), BuildingBlock: FUNLAD_clean_linker_1, # of connection points: 2
#     Edge 16, Type (0, 0), BuildingBlock: FUNLAD_clean_linker_1, # of connection points: 2
#     Edge 17, Type (0, 0), BuildingBlock: FUNLAD_clean_linker_1, # of connection points: 2
#     Edge 18, Type (0, 0), BuildingBlock: FUNLAD_clean_linker_1, # of connection points: 2
#     Edge 19, Type (0, 0), BuildingBlock: FUNLAD_clean_linker_1, # of connection points: 2
# Relax obj value: 0.232
# Max RMSD: 0.307
# Mean RMSD: 0.307
data_MOF--net-bcg--node1-LIZSOE_clean_sbu_0--edge1-FUNLAD_clean_linker_1
_symmetry_space_group_name_H-M    P1
_symmetry_Int_Tables_number       1
_symmetry_cell_setting            triclinic
loop_
_symmetry_equiv_pos_as_xyz
'x, y, z'
_cell_length_a     21.869377
_cell_length_b     23.617833
_cell_length_c     22.74706
_cell_angle_alpha  90.390933
_cell_angle_beta   90.609543
_cell_angle_gamma 89.298646
loop_
_atom_site_label
_atom_site_type_symbol
_atom_site_fract_x
_atom_site_fract_y
_atom_site_fract_z
_atom_type_partial_charge
Co0 Co 0.13698 0.27936 0.95114 0.0
N1 N 0.05342 0.27873 0.94004 0.0
C2 C 0.02308 0.32879 0.94136 0.0
N3 N 0.9559 0.26576 0.9129 0.0
C4 C 1.01124 0.24095 0.92143 0.0
C5 C 0.96339 0.32104 0.92519 0.0
Co6 Co 0.38779 0.21564 0.08889 0.0
N7 N 0.47319 0.207 0.09578 0.0
N8 N 0.57159 0.18368 0.08221 0.0
C9 C 0.56924 0.23091 0.11524 0.0
C10 C 0.50915 0.24527 0.12319 0.0
C11 C 0.51292 0.16884 0.07218 0.0
Co12 Co 0.26438 0.25139 1.01572 0.0
C13 C 0.34686 0.18478 0.11512 0.0
H14 H 0.493 0.28281 0.14581 0.0
O15 O 0.2155 0.28621 0.95 0.0
O16 O 0.32279 0.22433 0.95198 0.0
O17 O 0.22017 0.17735 1.01119 0.0
O18 O 0.20247 0.28292 0.07455 0.0
O19 O 0.12833 0.32457 1.01934 0.0
O20 O 0.40091 0.21043 1.00998 0.0
O21 O 0.30925 0.22085 0.08755 0.0
O22 O 0.39489 0.29514 0.07992 0.0
O23 O 0.12899 0.21582 0.99973 0.0
O24 O 0.1542 0.23003 0.89269 0.0
O25 O 0.31403 0.32366 0.02385 0.0
O26 O 0.372 0.141 0.08981 0.0
C27 C 0.16246 0.17433 1.01392 0.0
C28 C 0.49462 0.11422 0.04278 0.0
H29 H 0.46791 0.08859 0.07372 0.0
H30 H 0.46599 0.1224 1.0033 0.0
H31 H 0.53501 0.08828 0.03004 0.0
C32 C 0.37916 0.21324 0.9593 0.0
C33 C 0.15381 0.31411 0.06911 0.0
H34 H 0.04376 0.36902 0.95185 0.0
H35 H 1.01117 0.16838 0.86473 0.0
H36 H 0.99347 0.15424 0.93982 0.0
H37 H 0.07143 0.16674 0.91931 0.0
C38 C 0.0234 0.17917 0.91092 0.0
C39 C 0.19093 0.27225 0.89824 0.0
C40 C 0.36495 0.33333 0.05152 0.0
H41 H 0.92832 0.35367 0.92228 0.0
H42 H 0.60829 0.256 0.12826 0.0
Co43 Co 0.61068 0.79265 1.0185 0.0
N44 N 0.52738 0.78482 0.02926 0.0
C45 C 0.49302 0.82025 0.06244 0.0
N46 N 0.42831 0.77056 1.00905 0.0
C47 C 0.48618 0.75396 0.99805 0.0
C48 C 0.43224 0.81137 0.05027 0.0
Co49 Co 0.89899 0.76799 0.0859 0.0
N50 N 0.97945 0.79373 0.0717 0.0
N51 N 0.06288 0.82583 0.02719 0.0
C52 C 0.05097 0.86019 0.07261 0.0
C53 C 1.00078 0.83977 0.10063 0.0
C54 C 0.02084 0.78458 0.02859 0.0
Co55 Co 0.75756 0.77075 0.05078 0.0
C56 C 0.88461 0.72345 0.11046 0.0
H57 H 0.97892 0.85959 0.13788 0.0
O58 O 0.68826 0.80067 0.9998 0.0
O59 O 0.79578 0.74041 0.97787 0.0
O60 O 0.71779 0.69505 0.06275 0.0
O61 O 0.71703 0.80211 0.12504 0.0
O62 O 0.62024 0.81723 0.09526 0.0
O63 O 0.88592 0.77502 1.00122 0.0
O64 O 0.82705 0.74258 0.10445 0.0
O65 O 0.87388 0.84372 0.10152 0.0
O66 O 0.62123 0.71783 0.04243 0.0
O67 O 0.60882 0.77027 0.94591 0.0
O68 O 0.79843 0.84648 0.03655 0.0
O69 O 0.91328 0.69538 0.06948 0.0
C70 C 0.66148 0.68198 0.05816 0.0
C71 C 0.02544 0.73205 0.99177 0.0
H72 H 0.98586 0.7046 0.99651 0.0
H73 H 0.03231 0.74308 0.94521 0.0
H74 H 0.06645 0.70749 1.00606 0.0
C75 C 0.84902 0.75485 0.96332 0.0
C76 C 0.66176 0.81893 0.13438 0.0
H77 H 0.51086 0.85391 0.08987 0.0
H78 H 0.50645 0.72868 0.91041 0.0
H79 H 0.46423 0.67744 0.95041 0.0
H80 H 0.54472 0.6862 0.96522 0.0
C81 C 0.50163 0.70868 0.95386 0.0
C82 C 0.66544 0.78531 0.94844 0.0
C83 C 0.84231 0.8708 0.06404 0.0
H84 H 0.39425 0.83708 0.06569 0.0
H85 H 0.07624 0.89788 0.08364 0.0
Co86 Co 0.4135 0.76442 0.61462 0.0
N87 N 0.49369 0.73953 0.61858 0.0
C88 C 0.53933 0.77743 0.61721 0.0
N89 N 0.58282 0.69539 0.63614 0.0
C90 C 0.52193 0.68928 0.63039 0.0
C91 C 0.59391 0.75056 0.62817 0.0
Co92 Co 0.13599 0.79919 0.50873 0.0
N93 N 0.05254 0.81343 0.51694 0.0
N94 N 0.95131 0.79888 0.5135 0.0
C95 C 0.96121 0.85261 0.49748 0.0
C96 C 0.02349 0.86119 0.49914 0.0
C97 C 1.00677 0.77618 0.52594 0.0
Co98 Co 0.27864 0.77979 0.55526 0.0
C99 C 0.18134 0.73647 0.46821 0.0
H100 H 0.04632 0.898 0.48289 0.0
O101 O 0.34135 0.7889 0.61976 0.0
O102 O 0.22578 0.74511 0.6168 0.0
O103 O 0.30547 0.70102 0.52925 0.0
O104 O 0.34014 0.81323 0.49736 0.0
O105 O 0.42924 0.81013 0.54985 0.0
O106 O 0.1363 0.77616 0.58614 0.0
O107 O 0.21353 0.77813 0.49131 0.0
O108 O 0.15534 0.87305 0.53596 0.0
O109 O 0.39905 0.70668 0.56318 0.0
O110 O 0.38743 0.71996 0.67238 0.0
O111 O 0.24834 0.85819 0.57802 0.0
O112 O 0.12653 0.72917 0.48723 0.0
C113 C 0.35987 0.68166 0.53233 0.0
C114 C 1.01544 0.71505 0.54338 0.0
H115 H 0.05763 0.70745 0.56925 0.0
H116 H 0.97658 0.70078 0.57014 0.0
H117 H 1.01663 0.68829 0.5031 0.0
C118 C 0.16933 0.75376 0.62527 0.0
C119 C 0.39826 0.82325 0.50374 0.0
H120 H 0.53316 0.82228 0.60958 0.0
H121 H 0.49877 0.62079 0.68663 0.0
H122 H 0.51181 0.60064 0.61248 0.0
H123 H 0.44098 0.6358 0.63188 0.0
C124 C 0.4907 0.63397 0.64052 0.0
C125 C 0.35385 0.76552 0.67103 0.0
C126 C 0.20092 0.88957 0.56697 0.0
H127 H 0.63874 0.76957 0.62834 0.0
H128 H 0.9266 0.88178 0.48105 0.0
Co129 Co 0.62101 0.22156 0.49372 0.0
N130 N 0.53919 0.22821 0.51463 0.0
C131 C 0.50258 0.26385 0.48426 0.0
N132 N 0.44742 0.23295 0.55677 0.0
C133 C 0.50375 0.20869 0.5585 0.0
C134 C 0.44657 0.26686 0.50972 0.0
Co135 Co 0.9098 0.26851 0.52188 0.0
N136 N 0.98677 0.25543 0.49225 0.0
N137 N 0.08255 0.22472 0.50654 0.0
C138 C 0.0614 0.20138 0.45644 0.0
C139 C 1.00295 0.22155 0.4467 0.0
C140 C 0.03731 0.25887 0.52604 0.0
Co141 Co 0.76549 0.24687 0.5166 0.0
C142 C 0.87387 0.25927 0.60132 0.0
H143 H 0.97191 0.20631 0.41297 0.0
O144 O 0.69487 0.21323 0.4698 0.0
O145 O 0.8026 0.16879 0.5226 0.0
O146 O 0.73258 0.23476 0.59823 0.0
O147 O 0.72323 0.3249 0.51208 0.0
O148 O 0.62641 0.30046 0.48984 0.0
O149 O 0.88928 0.19704 0.48754 0.0
O150 O 0.83907 0.28103 0.55882 0.0
O151 O 0.88783 0.30693 0.45416 0.0
O152 O 0.63685 0.22483 0.57357 0.0
O153 O 0.62514 0.14615 0.49968 0.0
O154 O 0.8021 0.26024 0.43467 0.0
O155 O 0.92375 0.23233 0.58745 0.0
C156 C 0.67726 0.22907 0.61237 0.0
C157 C 0.04064 0.29312 0.58164 0.0
H158 H 0.05348 0.26558 0.61909 0.0
H159 H 0.07693 0.32508 0.57706 0.0
H160 H 0.99692 0.31578 0.59028 0.0
C161 C 0.85608 0.15742 0.50503 0.0
C162 C 0.6671 0.33787 0.49868 0.0
H163 H 0.51626 0.2868 0.44628 0.0
H164 H 0.48569 0.13154 0.60477 0.0
H165 H 0.53071 0.18212 0.64475 0.0
H166 H 0.56485 0.14048 0.58731 0.0
C167 C 0.52271 0.16296 0.60078 0.0
C168 C 0.64507 0.18205 0.46144 0.0
C169 C 0.84711 0.29076 0.41796 0.0
H170 H 0.40748 0.29139 0.49431 0.0
H171 H 0.08402 0.16769 0.4322 0.0
H172 H 0.66891 0.17389 0.07182 0.0
C173 C 0.62491 0.16742 0.05016 0.0
H174 H 0.57893 0.16088 0.96846 0.0
H175 H 0.77843 0.31645 0.85743 0.0
H176 H 0.68305 0.36544 0.83311 0.0
H177 H 0.58465 0.32989 0.8687 0.0
H178 H 0.58017 0.24278 0.92361 0.0
C179 C 0.62269 0.16223 0.99124 0.0
C180 C 0.67813 0.17544 0.95743 0.0
C181 C 0.67908 0.22606 0.92425 0.0
C182 C 0.73592 0.24883 0.90742 0.0
C183 C 0.73626 0.29864 0.87308 0.0
C184 C 0.68201 0.32709 0.85885 0.0
C185 C 0.62659 0.30693 0.87866 0.0
C186 C 0.62476 0.2568 0.9105 0.0
H187 H 0.89951 0.19654 0.87969 0.0
C188 C 0.89917 0.23781 0.90116 0.0
H189 H 0.84694 0.29783 0.94849 0.0
H190 H 0.6904 0.07044 1.00518 0.0
H191 H 0.78438 0.0305 0.04708 0.0
H192 H 0.88133 0.08272 0.04055 0.0
H193 H 0.88707 0.16907 0.98583 0.0
C194 C 0.84767 0.25725 0.9258 0.0
C195 C 0.79111 0.22383 0.92822 0.0
C196 C 0.78993 0.17254 0.96045 0.0
C197 C 0.73326 0.14617 0.97065 0.0
C198 C 0.73256 0.09325 0.99939 0.0
C199 C 0.7859 0.07005 0.02341 0.0
C200 C 0.84057 0.09891 1.01905 0.0
C201 C 0.84316 0.14888 0.98714 0.0
H202 H 0.09643 0.87679 0.95572 0.0
C203 C 0.10366 0.83829 0.98059 0.0
H204 H 0.15631 0.76572 0.99554 0.0
H205 H 0.33948 0.70384 0.82815 0.0
H206 H 0.26186 0.63461 0.79851 0.0
H207 H 0.15338 0.64974 0.82504 0.0
H208 H 0.12218 0.73322 0.88228 0.0
C209 C 0.15121 0.80433 0.97014 0.0
C210 C 0.19779 0.81499 0.92501 0.0
C211 C 0.21348 0.76879 0.88802 0.0
C212 C 0.27504 0.76072 0.8714 0.0
C213 C 0.29231 0.71139 0.84032 0.0
C214 C 0.24843 0.67189 0.82337 0.0
C215 C 0.18733 0.68036 0.83841 0.0
C216 C 0.1699 0.72803 0.87104 0.0
H217 H 0.33197 0.75769 0.99339 0.0
C218 C 0.37582 0.76281 0.97198 0.0
H219 H 0.41934 0.79101 0.89492 0.0
H220 H 0.17976 0.92 0.97996 0.0
H221 H 0.25345 0.99456 0.9888 0.0
H222 H 0.35748 0.98257 0.94902 0.0
H223 H 0.38801 0.89358 0.90102 0.0
C224 C 0.37674 0.77903 0.91523 0.0
C225 C 0.31874 0.80032 0.88969 0.0
C226 C 0.29925 0.85402 0.90987 0.0
C227 C 0.23885 0.86102 0.93092 0.0
C228 C 0.22376 0.91206 0.96082 0.0
C229 C 0.26611 0.95555 0.96652 0.0
C230 C 0.3247 0.94884 0.94417 0.0
C231 C 0.3416 0.89823 0.91676 0.0
H232 H 0.66383 0.66142 0.67228 0.0
C233 C 0.62936 0.65259 0.63879 0.0
H234 H 0.61561 0.61754 0.55636 0.0
H235 H 0.76276 0.81905 0.45366 0.0
H236 H 0.66716 0.82134 0.39833 0.0
H237 H 0.58593 0.75278 0.41843 0.0
H238 H 0.60008 0.68113 0.49244 0.0
C239 C 0.64983 0.63306 0.58704 0.0
C240 C 0.7029 0.66367 0.56242 0.0
C241 C 0.6931 0.70567 0.51842 0.0
C242 C 0.73913 0.74633 0.50765 0.0
C243 C 0.72893 0.78756 0.46363 0.0
C244 C 0.67426 0.78945 0.43171 0.0
C245 C 0.62858 0.75082 0.44302 0.0
C246 C 0.6375 0.70956 0.48588 0.0
H247 H 0.89895 0.72322 0.49498 0.0
C248 C 0.89576 0.76756 0.50809 0.0
H249 H 0.83827 0.83038 0.54528 0.0
H250 H 0.74189 0.5813 0.63794 0.0
H251 H 0.83474 0.58313 0.69823 0.0
H252 H 0.90621 0.66294 0.69083 0.0
H253 H 0.88783 0.73864 0.62216 0.0
C254 C 0.8429 0.78696 0.52982 0.0
C255 C 0.79362 0.7459 0.54167 0.0
C256 C 0.80329 0.70381 0.58511 0.0
C257 C 0.75967 0.66069 0.59268 0.0
C258 C 0.77273 0.6164 0.63271 0.0
C259 C 0.82567 0.61688 0.66726 0.0
C260 C 0.86614 0.66147 0.66297 0.0
C261 C 0.85531 0.70453 0.62267 0.0
H262 H 0.11629 0.16057 0.56693 0.0
C263 C 0.12753 0.19925 0.54396 0.0
H264 H 0.18703 0.26659 0.53446 0.0
H265 H 0.35869 0.27395 0.74074 0.0
H266 H 0.30484 0.36574 0.74991 0.0
H267 H 0.20954 0.38351 0.69305 0.0
H268 H 0.16787 0.31062 0.6285 0.0
C269 C 0.17922 0.22622 0.55566 0.0
C270 C 0.2222 0.20776 0.60263 0.0
C271 C 0.24054 0.24841 0.6454 0.0
C272 C 0.29428 0.23842 0.67896 0.0
C273 C 0.31691 0.28107 0.71629 0.0
C274 C 0.28677 0.33317 0.72114 0.0
C275 C 0.23329 0.34322 0.68893 0.0
C276 C 0.20977 0.30111 0.65205 0.0
H277 H 0.35041 0.22523 0.56383 0.0
C278 C 0.39332 0.21985 0.58803 0.0
H279 H 0.43158 0.20151 0.67301 0.0
H280 H 0.20261 0.11772 0.52511 0.0
H281 H 0.2612 0.0305 0.52107 0.0
H282 H 0.34527 0.01165 0.59159 0.0
H283 H 0.37518 0.08441 0.66356 0.0
C284 C 0.39154 0.20352 0.64464 0.0
C285 C 0.33027 0.19019 0.66724 0.0
C286 C 0.30324 0.14389 0.63835 0.0
C287 C 0.25212 0.1538 0.60071 0.0
C288 C 0.23795 0.1119 0.55798 0.0
C289 C 0.27176 0.06149 0.55475 0.0
C290 C 0.31939 0.05093 0.5943 0.0
C291 C 0.33552 0.09198 0.63555 0.0
H292 H 0.67505 0.58913 0.07166 0.0
C293 C 0.64121 0.62292 0.06728 0.0
H294 H 0.54703 0.64477 0.06342 0.0
H295 H 0.46656 0.40969 0.9553 0.0
H296 H 0.50154 0.45038 0.86425 0.0
H297 H 0.56016 0.5389 0.86459 0.0
H298 H 0.58598 0.58642 0.95639 0.0
C299 C 0.58092 0.61092 0.06659 0.0
C300 C 0.55585 0.55267 0.06688 0.0
C301 C 0.53993 0.52598 1.0129 0.0
C302 C 0.50461 0.47567 1.01261 0.0
C303 C 0.49178 0.44872 0.95812 0.0
C304 C 0.51174 0.47155 0.90546 0.0
C305 C 0.54484 0.52138 0.90567 0.0
C306 C 0.55903 0.5484 0.95862 0.0
H307 H 0.36765 0.42498 0.02855 0.0
C308 C 0.39325 0.39013 0.04825 0.0
H309 H 0.47684 0.36326 0.08727 0.0
H310 H 0.58361 0.5901 0.1775 0.0
H311 H 0.54826 0.55032 0.26904 0.0
H312 H 0.48268 0.46645 0.26899 0.0
H313 H 0.45277 0.42047 0.17746 0.0
C314 C 0.45131 0.39798 0.0675 0.0
C315 C 0.48376 0.45305 0.06636 0.0
C316 C 0.50106 0.47908 0.12038 0.0
C317 C 0.5377 0.52848 0.12056 0.0
C318 C 0.55494 0.5531 0.17502 0.0
C319 C 0.53531 0.53053 0.22785 0.0
C320 C 0.49846 0.48311 0.22779 0.0
C321 C 0.48164 0.45726 0.1749 0.0
H322 H 0.6718 0.43103 0.51765 0.0
C323 C 0.64496 0.39794 0.49688 0.0
H324 H 0.56239 0.37604 0.45422 0.0
H325 H 0.3822 0.54428 0.57332 0.0
H326 H 0.36241 0.45921 0.62725 0.0
H327 H 0.42795 0.37437 0.61549 0.0
H328 H 0.51609 0.37573 0.55226 0.0
C329 C 0.58856 0.40977 0.47425 0.0
C330 C 0.55271 0.46331 0.4834 0.0
C331 C 0.50043 0.46212 0.51999 0.0
C332 C 0.46072 0.51039 0.52451 0.0
C333 C 0.41209 0.50862 0.56516 0.0
C334 C 0.40038 0.45988 0.59711 0.0
C335 C 0.43737 0.41219 0.59067 0.0
C336 C 0.48749 0.4134 0.5536 0.0
H337 H 0.34657 0.59694 0.48904 0.0
C338 C 0.38008 0.62744 0.50417 0.0
H339 H 0.47299 0.64819 0.51471 0.0
H340 H 0.64628 0.47877 0.40703 0.0
H341 H 0.66312 0.56173 0.3471 0.0
H342 H 0.59151 0.64322 0.35014 0.0
H343 H 0.50289 0.64244 0.41319 0.0
C344 C 0.44095 0.61494 0.5033 0.0
C345 C 0.47157 0.55923 0.48992 0.0
C346 C 0.5224 0.55908 0.4513 0.0
C347 C 0.56338 0.51168 0.44878 0.0
C348 C 0.61393 0.5136 0.41058 0.0
C349 C 0.62411 0.56094 0.37596 0.0
C350 C 0.58384 0.60684 0.3777 0.0
C351 C 0.53334 0.60598 0.41445 0.0
H352 H 0.09847 0.13419 0.07233 0.0
C353 C 0.13106 0.12492 0.03768 0.0
H354 H 0.15467 0.06832 0.96986 0.0
H355 H 0.95302 0.95989 0.16603 0.0
H356 H 0.03275 0.97031 0.23852 0.0
H357 H 0.13303 0.00846 0.21211 0.0
H358 H 0.15327 0.03739 0.11219 0.0
C359 C 0.12621 0.07566 1.00803 0.0
C360 C 0.07314 0.03755 1.01984 0.0
C361 C 0.06166 0.01914 0.07781 0.0
C362 C 1.00403 0.99562 0.09233 0.0
C363 C 0.99485 0.97863 0.15139 0.0
C364 C 0.04075 0.98386 0.19392 0.0
C365 C 0.09716 1.0054 0.1791 0.0
C366 C 0.10787 0.02251 0.12178 0.0
H367 H 0.8954 0.90347 0.99196 0.0
C368 C 0.87601 0.91569 0.034 0.0
H369 H 0.87848 0.97013 0.1061 0.0
H370 H 0.0849 0.05535 0.90145 0.0
H371 H 1.00546 0.04733 0.82732 0.0
H372 H 0.90169 0.01768 0.85381 0.0
H373 H 0.87783 0.99346 0.95396 0.0
C374 C 0.89889 0.96011 0.06398 0.0
C375 C 0.95803 0.98821 0.04799 0.0
C376 C 0.97039 1.00553 0.98938 0.0
C377 C 0.02893 0.02736 0.97493 0.0
C378 C 0.04087 0.04075 0.91554 0.0
C379 C 0.99558 0.03632 0.87234 0.0
C380 C 0.93729 0.01936 0.88719 0.0
C381 C 0.92455 1.00441 0.94486 0.0
H382 H 0.85606 0.06298 0.51549 0.0
C383 C 0.88462 0.10007 0.5121 0.0
H384 H 0.97314 0.1337 0.51697 0.0
H385 H 0.17761 0.97584 0.48136 0.0
H386 H 0.16737 0.00913 0.3808 0.0
H387 H 0.07214 0.05614 0.34664 0.0
H388 H 0.98688 0.07111 0.41351 0.0
C389 C 0.94618 0.09562 0.51866 0.0
C390 C 0.98389 0.04318 0.52884 0.0
C391 C 0.03202 0.0316 0.48906 0.0
C392 C 0.08667 1.00368 0.50857 0.0
C393 C 0.13536 0.99673 0.46875 0.0
C394 C 0.12985 0.01539 0.41091 0.0
C395 C 0.0762 0.04184 0.39164 0.0
C396 C 0.02783 0.05027 0.43024 0.0
H397 H 0.23988 0.95589 0.62188 0.0
C398 C 0.1995 0.94594 0.59573 0.0
H399 H 0.16234 0.02213 0.6246 0.0
H400 H 0.89593 0.04728 0.61335 0.0
H401 H 0.90308 0.00704 0.71101 0.0
H402 H 0.99517 0.95442 0.74279 0.0
H403 H 0.08209 0.94197 0.67698 0.0
C404 C 0.15395 0.98519 0.59702 0.0
C405 C 0.09239 0.9854 0.56756 0.0
C406 C 0.04018 0.98832 0.60402 0.0
C407 C 0.98621 0.01793 0.58514 0.0
C408 C 0.93743 0.02465 0.62496 0.0
C409 C 0.94096 1.00167 0.68114 0.0
C410 C 0.99301 0.97195 0.69909 0.0
C411 C 0.04232 0.96533 0.66122 0.0
H412 H 0.58442 0.14093 0.3968 0.0
C413 C 0.61468 0.17686 0.40201 0.0
H414 H 0.6363 0.25681 0.37051 0.0
H415 H 0.44069 0.11728 0.18267 0.0
H416 H 0.51526 0.04324 0.1788 0.0
H417 H 0.61105 0.04907 0.23606 0.0
H418 H 0.63172 0.13045 0.29765 0.0
C419 C 0.60874 0.2196 0.36311 0.0
C420 C 0.55666 0.22084 0.31814 0.0
C421 C 0.54349 0.17304 0.28204 0.0
C422 C 0.48783 0.17053 0.24796 0.0
C423 C 0.47953 0.12263 0.21089 0.0
C424 C 0.52298 0.07918 0.20762 0.0
C425 C 0.57682 0.08236 0.23988 0.0
C426 C 0.5875 0.12888 0.27604 0.0
H427 H 0.34896 0.14695 0.20434 0.0
C428 C 0.3549 0.18644 0.18107 0.0
H429 H 0.3956 0.26499 0.18117 0.0
H430 H 0.57704 0.32841 0.36034 0.0
H431 H 0.50435 0.40606 0.36308 0.0
H432 H 0.40103 0.39593 0.32048 0.0
H433 H 0.3715 0.3092 0.27105 0.0
C434 C 0.39413 0.22481 0.2036 0.0
C435 C 0.44429 0.21659 0.24984 0.0
C436 C 0.45908 0.26483 0.28488 0.0
C437 C 0.51666 0.26865 0.31486 0.0
C438 C 0.53272 0.32122 0.34071 0.0
C439 C 0.49143 0.36652 0.34236 0.0
C440 C 0.4334 0.36097 0.31809 0.0
C441 C 0.41728 0.31103 0.28946 0.0
H442 H 0.61489 0.88035 0.19001 0.0
C443 C 0.64122 0.84104 0.19188 0.0
H444 H 0.65301 0.76444 0.23635 0.0
H445 H 0.46876 0.9382 0.39925 0.0
H446 H 0.5476 0.00953 0.39475 0.0
H447 H 0.64325 0.99085 0.34116 0.0
H448 H 0.65961 0.9018 0.28962 0.0
C449 C 0.63125 0.80606 0.23715 0.0
C450 C 0.57782 0.81541 0.27774 0.0
C451 C 0.57116 0.86575 0.31188 0.0
C452 C 0.51801 0.87471 0.34699 0.0
C453 C 0.50986 0.92781 0.37523 0.0
C454 C 0.55449 0.96928 0.37258 0.0
C455 C 0.6082 0.95889 0.34211 0.0
C456 C 0.61674 0.90779 0.31218 0.0
H457 H 0.48382 0.8524 0.46661 0.0
C458 C 0.43674 0.84271 0.45468 0.0
H459 H 0.37749 0.82291 0.38473 0.0
H460 H 0.56782 0.71891 0.21008 0.0
H461 H 0.49066 0.64723 0.21766 0.0
H462 H 0.40966 0.65474 0.29154 0.0
H463 H 0.40176 0.7367 0.35487 0.0
C464 C 0.42337 0.8356 0.39733 0.0
C465 C 0.47419 0.83109 0.35302 0.0
C466 C 0.48119 0.78054 0.31933 0.0
C467 C 0.53137 0.77378 0.2801 0.0
C468 C 0.53318 0.7252 0.24311 0.0
C469 C 0.4891 0.68343 0.24686 0.0
C470 C 0.44302 0.68801 0.28802 0.0
C471 C 0.43891 0.73575 0.32397 0.0
H472 H 0.36273 0.79345 0.76354 0.0
C473 C 0.37698 0.80323 0.71926 0.0
H474 H 0.44423 0.8388 0.66741 0.0
H475 H 0.65852 0.93524 0.80156 0.0
H476 H 0.6173 0.01806 0.75133 0.0
H477 H 0.51349 0.01768 0.70814 0.0
H478 H 0.45165 0.93323 0.71109 0.0
C479 C 0.43257 0.82693 0.71181 0.0
C480 C 0.48539 0.83024 0.75563 0.0
C481 C 0.52005 0.88081 0.75709 0.0
C482 C 0.57887 0.88228 0.78509 0.0
C483 C 0.61283 0.93281 0.78293 0.0
C484 C 0.58976 0.98053 0.75432 0.0
C485 C 0.53161 0.98003 0.72931 0.0
C486 C 0.49685 0.93106 0.73085 0.0
H487 H 0.71576 0.78026 0.86596 0.0
C488 C 0.68693 0.8081 0.89195 0.0
H489 H 0.62855 0.87726 0.89418 0.0
H490 H 0.43433 0.72432 0.7691 0.0
H491 H 0.48577 0.63854 0.79686 0.0
H492 H 0.59467 0.63886 0.82548 0.0
H493 H 0.65024 0.72561 0.82903 0.0
C494 C 0.64754 0.84488 0.86508 0.0
C495 C 0.60409 0.83386 0.81344 0.0
C496 C 0.57352 0.78137 0.80496 0.0
C497 C 0.51259 0.78029 0.78062 0.0
C498 C 0.48155 0.72802 0.78062 0.0
C499 C 0.51057 0.67794 0.79761 0.0
C500 C 0.57149 0.67821 0.8145 0.0
C501 C 0.6026 0.72908 0.81829 0.0
H502 H 0.47183 0.20092 0.92786 0.0
C503 C 0.42556 0.20959 0.91208 0.0
H504 H 0.37392 0.23647 0.839 0.0
H505 H 0.57472 0.35083 0.68855 0.0
H506 H 0.50177 0.42616 0.7047 0.0
H507 H 0.41789 0.41554 0.77501 0.0
H508 H 0.4056 0.32827 0.82832 0.0
C509 C 0.4188 0.2236 0.8552 0.0
C510 C 0.47465 0.23138 0.81716 0.0
C511 C 0.48425 0.28419 0.78928 0.0
C512 C 0.53607 0.29203 0.75242 0.0
C513 C 0.53958 0.34316 0.7203 0.0
C514 C 0.49735 0.38699 0.72864 0.0
C515 C 0.45005 0.38098 0.7681 0.0
C516 C 0.44347 0.33045 0.79828 0.0
H517 H 0.63907 0.17421 0.67747 0.0
C518 C 0.65739 0.21641 0.67265 0.0
H519 H 0.65417 0.30001 0.70148 0.0
H520 H 0.47099 0.12151 0.85623 0.0
H521 H 0.55829 0.05791 0.86733 0.0
H522 H 0.65989 0.08492 0.83139 0.0
H523 H 0.67313 0.17291 0.77875 0.0
C524 C 0.63728 0.25776 0.70905 0.0
C525 C 0.58338 0.24992 0.74961 0.0
C526 C 0.57756 0.20053 0.7845 0.0
C527 C 0.52133 0.18891 0.81322 0.0
C528 C 0.51433 0.13513 0.83924 0.0
C529 C 0.5639 0.09798 0.84533 0.0
C530 C 0.62092 0.11291 0.82456 0.0
C531 C 0.62772 0.1631 0.7937 0.0
H532 H 0.20614 0.75567 0.37595 0.0
C533 C 0.18322 0.72525 0.40341 0.0
H534 H 0.11899 0.65979 0.40767 0.0
H535 H 0.95394 0.80607 0.2237 0.0
H536 H 0.96806 0.88705 0.2873 0.0
H537 H 0.04163 0.88358 0.36987 0.0
H538 H 0.10199 0.79988 0.38865 0.0
C539 C 0.13905 0.69163 0.37967 0.0
C540 C 0.10394 0.70073 0.3231 0.0
C541 C 0.06629 0.74997 0.31438 0.0
C542 C 0.02161 0.75145 0.26776 0.0
C543 C 0.98728 0.80191 0.25867 0.0
C544 C 0.99487 0.84893 0.29503 0.0
C545 C 0.03628 0.84693 0.34152 0.0
C546 C 0.07119 0.79818 0.35158 0.0
H547 H 0.88534 0.72391 0.21003 0.0
C548 C 0.91266 0.71623 0.17115 0.0
H549 H 1.0001 0.69938 0.13609 0.0
H550 H 0.16956 0.60187 0.32383 0.0
H551 H 0.15323 0.51973 0.26125 0.0
H552 H 0.0719 0.52013 0.18534 0.0
H553 H 1.00656 0.60262 0.17128 0.0
C554 C 0.97409 0.70646 0.17596 0.0
C555 C 1.01242 0.7032 0.23117 0.0
C556 C 0.0498 0.65428 0.24015 0.0
C557 C 0.09578 0.65342 0.28513 0.0
C558 C 0.13298 0.60424 0.29147 0.0
C559 C 0.12439 0.55692 0.25561 0.0
C560 C 0.07874 0.55722 0.21276 0.0
C561 C 0.04181 0.60509 0.20493 0.0
H562 H 0.84829 0.26176 0.3248 0.0
C563 C 0.86317 0.29513 0.35455 0.0
H564 H 0.91908 0.36595 0.36759 0.0
H565 H 0.14219 0.27912 0.22073 0.0
H566 H 0.18321 0.28196 0.31958 0.0
H567 H 0.11752 0.30739 0.40328 0.0
H568 H 1.00994 0.32707 0.38877 0.0
C569 C 0.90565 0.3327 0.337 0.0
C570 C 0.94582 0.32423 0.28419 0.0
C571 C 1.01009 0.31686 0.29281 0.0
C572 C 0.04929 0.30665 0.24394 0.0
C573 C 0.11138 0.29207 0.25519 0.0
C574 C 0.13548 0.29257 0.31205 0.0
C575 C 0.09844 0.30657 0.35916 0.0
C576 C 0.03648 0.31794 0.35003 0.0
H577 H 0.13519 0.35926 0.15325 0.0
C578 C 0.11804 0.32789 0.12231 0.0
H579 H 0.051 0.26807 0.10106 0.0
H580 H 0.82682 0.34198 0.25091 0.0
H581 H 0.78651 0.34446 0.15128 0.0
H582 H 0.85477 0.33239 0.0664 0.0
H583 H 0.96355 0.31787 0.08042 0.0
C584 C 0.066 0.29948 0.13314 0.0
C585 C 0.02559 0.30943 0.18558 0.0
C586 C 0.96156 0.31843 0.17687 0.0
C587 C 0.92179 0.32532 0.22603 0.0
C588 C 0.85866 0.33511 0.21548 0.0
C589 C 0.83497 0.33709 0.15844 0.0
C590 C 0.87341 0.33034 0.11065 0.0
C591 C 0.93592 0.32158 0.11943 0.0
H592 H 0.13888 0.34853 0.8825 0.0
C593 C 0.16791 0.31868 0.85916 0.0
H594 H 0.18905 0.28209 0.78023 0.0
H595 H 0.96429 0.16861 0.67583 0.0
H596 H 0.04269 0.09686 0.67516 0.0
H597 H 0.14037 0.11086 0.72731 0.0
H598 H 0.16095 0.1975 0.77858 0.0
C599 C 0.15339 0.30546 0.80263 0.0
C600 C 0.08841 0.29467 0.78049 0.0
C601 C 0.07402 0.24056 0.75564 0.0
C602 C 1.01523 0.23054 0.72942 0.0
C603 C 1.00587 0.17823 0.69955 0.0
C604 C 0.05089 0.13622 0.6983 0.0
C605 C 0.10602 0.14428 0.72728 0.0
C606 C 0.11749 0.19527 0.75596 0.0
H607 H 0.89379 0.33342 0.65409 0.0
C608 C 0.88171 0.28923 0.65873 0.0
H609 H 0.88909 0.21707 0.70989 0.0
H610 H 0.09913 0.40582 0.81364 0.0
H611 H 1.01622 0.47338 0.82763 0.0
H612 H 0.90979 0.44821 0.80219 0.0
H613 H 0.88649 0.35664 0.75924 0.0
C614 C 0.90549 0.25995 0.705 0.0
C615 C 0.96777 0.27247 0.73232 0.0
C616 C 0.98065 0.32464 0.76109 0.0
C617 C 0.04141 0.337 0.78172 0.0
C618 C 0.05341 0.39223 0.80275 0.0
C619 C 1.00628 0.43179 0.80997 0.0
C620 C 0.94648 0.41785 0.79517 0.0
C621 C 0.9337 0.36523 0.77035 0.0
H622 H 0.16649 0.71517 0.71448 0.0
C623 C 0.14005 0.73781 0.6813 0.0
H624 H 0.05566 0.77736 0.65907 0.0
H625 H 0.91297 0.62156 0.83947 0.0
H626 H 0.94046 0.54306 0.77581 0.0
H627 H 0.01814 0.55353 0.69902 0.0
H628 H 0.0677 0.64368 0.68436 0.0
C629 C 0.08115 0.7526 0.69135 0.0
C630 C 0.04793 0.74121 0.74673 0.0
C631 C 0.02017 0.68819 0.75553 0.0
C632 C 0.97617 0.68183 0.80075 0.0
C633 C 0.9479 0.62861 0.80711 0.0
C634 C 0.96319 0.58305 0.77073 0.0
C635 C 1.00664 0.58911 0.72722 0.0
C636 C 0.03463 0.6411 0.71922 0.0
H637 H 0.85272 0.78308 0.87098 0.0
C638 C 0.86932 0.75122 0.90163 0.0
H639 H 0.93128 0.68504 0.91823 0.0
H640 H 0.10063 0.84501 0.74716 0.0
H641 H 0.08104 0.92202 0.81582 0.0
H642 H 1.00612 0.91154 0.89502 0.0
H643 H 0.95224 0.82473 0.90754 0.0
C644 C 0.91865 0.71907 0.8886 0.0
C645 C 0.96016 0.72846 0.8376 0.0
C646 C 0.99142 0.78068 0.83109 0.0
C647 C 0.03503 0.78682 0.78549 0.0
C648 C 0.06649 0.83861 0.7805 0.0
C649 C 0.05597 0.883 0.81973 0.0
C650 C 1.01356 0.87727 0.86409 0.0
C651 C 0.98215 0.82683 0.87035 0.0
loop_
_geom_bond_atom_site_label_1
_geom_bond_atom_site_label_2
_geom_bond_distance
_geom_bond_site_symmetry_2
_ccdc_geom_bond_type
Co0 N1 2.034 . S
Co0 O15 2.262 1_554 S
Co0 O19 1.958 . S
Co0 O23 1.950 1_554 S
Co0 O24 2.057 1_554 S
N1 Co0 2.034 . S
N1 C2 1.366 1_455 S
N1 C4 1.332 1_454 S
C2 N1 1.366 1_655 S
C2 C5 1.377 . S
C2 H34 0.931 . S
N3 C4 1.345 1_554 S
N3 C5 1.339 . S
C4 N1 1.332 1_656 S
C4 N3 1.345 1_556 S
C4 C38 1.361 . S
C5 C2 1.377 . S
C5 N3 1.339 . S
C5 H41 0.930 . S
Co6 N7 2.034 1_554 S
Co6 O20 1.950 1_554 S
Co6 O21 2.262 . S
Co6 O22 1.958 . S
Co6 O26 2.057 . S
N7 Co6 2.034 1_556 S
N7 C10 1.366 . S
N7 C11 1.332 . S
N8 C9 1.337 . S
N8 C11 1.346 . S
C9 N8 1.337 . S
C9 C10 1.377 . S
C9 H42 0.930 . S
C10 N7 1.366 . S
C10 C9 1.377 . S
C10 H14 0.931 . S
C11 N7 1.332 . S
C11 N8 1.346 . S
C11 C28 1.361 . S
Co12 O15 2.097 1_554 S
Co12 O16 2.065 1_554 S
Co12 O17 2.065 . S
Co12 O18 2.042 . S
Co12 O21 2.097 . S
Co12 O25 2.042 1_554 S
C13 O21 1.253 . S
C13 O26 1.263 . S
H14 C10 0.931 . S
O15 Co0 2.262 1_556 S
O15 Co12 2.097 1_556 S
O15 C39 1.253 . S
O16 Co12 2.065 1_556 S
O16 C32 1.221 . S
O17 Co12 2.065 . S
O17 C27 1.221 . S
O18 Co12 2.042 . S
O18 C33 1.237 . S
O19 Co0 1.958 . S
O19 C33 1.278 . S
O20 Co6 1.950 1_556 S
O20 C32 1.277 . S
O21 Co6 2.262 . S
O21 Co12 2.097 . S
O21 C13 1.253 . S
O22 Co6 1.958 . S
O22 C40 1.278 . S
O23 Co0 1.950 1_556 S
O23 C27 1.277 1_556 S
O24 Co0 2.057 1_556 S
O24 C39 1.263 . S
O25 Co12 2.042 1_556 S
O25 C40 1.237 1_556 S
O26 Co6 2.057 . S
O26 C13 1.263 . S
C27 O17 1.221 . S
C27 O23 1.277 1_554 S
C28 C11 1.361 . S
C28 H29 0.960 . S
C28 H30 0.961 . S
C28 H31 0.961 1_556 S
H29 C28 0.960 . S
H30 C28 0.961 . S
H31 C28 0.961 1_554 S
C32 O16 1.221 . S
C32 O20 1.277 . S
C33 O18 1.237 . S
C33 O19 1.278 . S
H34 C2 0.931 . S
H35 C38 0.961 . S
H36 C38 0.961 . S
H37 C38 0.960 1_455 S
C38 C4 1.361 . S
C38 H35 0.961 . S
C38 H36 0.961 . S
C38 H37 0.960 1_655 S
C39 O15 1.253 . S
C39 O24 1.263 . S
C40 O22 1.278 . S
C40 O25 1.237 1_554 S
H41 C5 0.930 . S
H42 C9 0.930 . S
Co43 N44 2.034 . S
Co43 O58 2.262 1_554 S
Co43 O62 1.958 . S
Co43 O66 1.950 1_554 S
Co43 O67 2.057 1_554 S
N44 Co43 2.034 . S
N44 C45 1.366 . S
N44 C47 1.332 1_554 S
C45 N44 1.366 . S
C45 C48 1.377 . S
C45 H77 0.931 . S
N46 C47 1.345 1_554 S
N46 C48 1.339 . S
C47 N44 1.332 1_556 S
C47 N46 1.345 1_556 S
C47 C81 1.361 . S
C48 C45 1.377 . S
C48 N46 1.339 . S
C48 H84 0.930 . S
Co49 N50 2.034 1_554 S
Co49 O63 1.950 1_554 S
Co49 O64 2.262 . S
Co49 O65 1.958 . S
Co49 O69 2.057 . S
N50 Co49 2.034 1_556 S
N50 C53 1.366 1_655 S
N50 C54 1.332 1_655 S
N51 C52 1.337 . S
N51 C54 1.346 . S
C52 N51 1.337 . S
C52 C53 1.377 . S
C52 H85 0.930 . S
C53 N50 1.366 1_455 S
C53 C52 1.377 . S
C53 H57 0.931 1_455 S
C54 N50 1.332 1_455 S
C54 N51 1.346 . S
C54 C71 1.361 . S
Co55 O58 2.097 1_554 S
Co55 O59 2.065 1_554 S
Co55 O60 2.065 . S
Co55 O61 2.042 . S
Co55 O64 2.097 . S
Co55 O68 2.042 1_554 S
C56 O64 1.253 . S
C56 O69 1.263 . S
H57 C53 0.931 1_655 S
O58 Co43 2.262 1_556 S
O58 Co55 2.097 1_556 S
O58 C82 1.253 . S
O59 Co55 2.065 1_556 S
O59 C75 1.221 . S
O60 Co55 2.065 . S
O60 C70 1.221 . S
O61 Co55 2.042 . S
O61 C76 1.237 . S
O62 Co43 1.958 . S
O62 C76 1.278 . S
O63 Co49 1.950 1_556 S
O63 C75 1.277 . S
O64 Co49 2.262 . S
O64 Co55 2.097 . S
O64 C56 1.253 . S
O65 Co49 1.958 . S
O65 C83 1.278 . S
O66 Co43 1.950 1_556 S
O66 C70 1.277 1_556 S
O67 Co43 2.057 1_556 S
O67 C82 1.263 . S
O68 Co55 2.042 1_556 S
O68 C83 1.237 1_556 S
O69 Co49 2.057 . S
O69 C56 1.263 . S
C70 O60 1.221 . S
C70 O66 1.277 1_554 S
C71 C54 1.361 . S
C71 H72 0.960 1_455 S
C71 H73 0.961 . S
C71 H74 0.961 1_556 S
H72 C71 0.960 1_655 S
H73 C71 0.961 . S
H74 C71 0.961 1_554 S
C75 O59 1.221 . S
C75 O63 1.277 . S
C76 O61 1.237 . S
C76 O62 1.278 . S
H77 C45 0.931 . S
H78 C81 0.961 . S
H79 C81 0.961 . S
H80 C81 0.960 . S
C81 C47 1.361 . S
C81 H78 0.961 . S
C81 H79 0.961 . S
C81 H80 0.960 . S
C82 O58 1.253 . S
C82 O67 1.263 . S
C83 O65 1.278 . S
C83 O68 1.237 1_554 S
H84 C48 0.930 . S
H85 C52 0.930 . S
Co86 N87 2.034 . S
Co86 O101 2.262 . S
Co86 O105 1.958 . S
Co86 O109 1.950 . S
Co86 O110 2.057 . S
N87 Co86 2.034 . S
N87 C88 1.366 . S
N87 C90 1.332 . S
C88 N87 1.366 . S
C88 C91 1.377 . S
C88 H120 0.931 . S
N89 C90 1.346 . S
N89 C91 1.337 . S
C90 N87 1.332 . S
C90 N89 1.346 . S
C90 C124 1.361 . S
C91 C88 1.377 . S
C91 N89 1.337 . S
C91 H127 0.930 . S
Co92 N93 2.034 . S
Co92 O106 1.950 . S
Co92 O107 2.262 . S
Co92 O108 1.958 . S
Co92 O112 2.057 . S
N93 Co92 2.034 . S
N93 C96 1.366 1_455 S
N93 C97 1.332 1_455 S
N94 C95 1.337 . S
N94 C97 1.346 . S
C95 N94 1.337 . S
C95 C96 1.377 . S
C95 H128 0.930 . S
C96 N93 1.366 1_655 S
C96 C95 1.377 . S
C96 H100 0.931 1_655 S
C97 N93 1.332 1_655 S
C97 N94 1.346 . S
C97 C114 1.361 . S
Co98 O101 2.097 . S
Co98 O102 2.065 . S
Co98 O103 2.065 . S
Co98 O104 2.042 . S
Co98 O107 2.097 . S
Co98 O111 2.042 . S
C99 O107 1.253 . S
C99 O112 1.263 . S
H100 C96 0.931 1_455 S
O101 Co86 2.262 . S
O101 Co98 2.097 . S
O101 C125 1.253 . S
O102 Co98 2.065 . S
O102 C118 1.221 . S
O103 Co98 2.065 . S
O103 C113 1.221 . S
O104 Co98 2.042 . S
O104 C119 1.237 . S
O105 Co86 1.958 . S
O105 C119 1.278 . S
O106 Co92 1.950 . S
O106 C118 1.277 . S
O107 Co92 2.262 . S
O107 Co98 2.097 . S
O107 C99 1.253 . S
O108 Co92 1.958 . S
O108 C126 1.278 . S
O109 Co86 1.950 . S
O109 C113 1.277 . S
O110 Co86 2.057 . S
O110 C125 1.263 . S
O111 Co98 2.042 . S
O111 C126 1.237 . S
O112 Co92 2.057 . S
O112 C99 1.263 . S
C113 O103 1.221 . S
C113 O109 1.277 . S
C114 C97 1.361 . S
C114 H115 0.960 1_655 S
C114 H116 0.961 . S
C114 H117 0.961 . S
H115 C114 0.960 1_455 S
H116 C114 0.961 . S
H117 C114 0.961 . S
C118 O102 1.221 . S
C118 O106 1.277 . S
C119 O104 1.237 . S
C119 O105 1.278 . S
H120 C88 0.931 . S
H121 C124 0.961 . S
H122 C124 0.961 . S
H123 C124 0.960 . S
C124 C90 1.361 . S
C124 H121 0.961 . S
C124 H122 0.961 . S
C124 H123 0.960 . S
C125 O101 1.253 . S
C125 O110 1.263 . S
C126 O108 1.278 . S
C126 O111 1.237 . S
H127 C91 0.930 . S
H128 C95 0.930 . S
Co129 N130 2.034 . S
Co129 O144 2.262 . S
Co129 O148 1.958 . S
Co129 O152 1.950 . S
Co129 O153 2.057 . S
N130 Co129 2.034 . S
N130 C131 1.366 . S
N130 C133 1.332 . S
C131 N130 1.366 . S
C131 C134 1.377 . S
C131 H163 0.931 . S
N132 C133 1.346 . S
N132 C134 1.337 . S
C133 N130 1.332 . S
C133 N132 1.346 . S
C133 C167 1.361 . S
C134 C131 1.377 . S
C134 N132 1.337 . S
C134 H170 0.930 . S
Co135 N136 2.034 . S
Co135 O149 1.950 . S
Co135 O150 2.262 . S
Co135 O151 1.958 . S
Co135 O155 2.057 . S
N136 Co135 2.034 . S
N136 C139 1.366 1_655 S
N136 C140 1.332 1_655 S
N137 C138 1.337 . S
N137 C140 1.346 . S
C138 N137 1.337 . S
C138 C139 1.377 . S
C138 H171 0.930 . S
C139 N136 1.366 1_455 S
C139 C138 1.377 . S
C139 H143 0.931 . S
C140 N136 1.332 1_455 S
C140 N137 1.346 . S
C140 C157 1.361 . S
Co141 O144 2.097 . S
Co141 O145 2.065 . S
Co141 O146 2.065 . S
Co141 O147 2.042 . S
Co141 O150 2.097 . S
Co141 O154 2.042 . S
C142 O150 1.253 . S
C142 O155 1.263 . S
H143 C139 0.931 . S
O144 Co129 2.262 . S
O144 Co141 2.097 . S
O144 C168 1.253 . S
O145 Co141 2.065 . S
O145 C161 1.221 . S
O146 Co141 2.065 . S
O146 C156 1.221 . S
O147 Co141 2.042 . S
O147 C162 1.237 . S
O148 Co129 1.958 . S
O148 C162 1.278 . S
O149 Co135 1.950 . S
O149 C161 1.277 . S
O150 Co135 2.262 . S
O150 Co141 2.097 . S
O150 C142 1.253 . S
O151 Co135 1.958 . S
O151 C169 1.278 . S
O152 Co129 1.950 . S
O152 C156 1.277 . S
O153 Co129 2.057 . S
O153 C168 1.263 . S
O154 Co141 2.042 . S
O154 C169 1.237 . S
O155 Co135 2.057 . S
O155 C142 1.263 . S
C156 O146 1.221 . S
C156 O152 1.277 . S
C157 C140 1.361 . S
C157 H158 0.960 1_455 S
C157 H159 0.961 . S
C157 H160 0.961 . S
H158 C157 0.960 1_655 S
H159 C157 0.961 . S
H160 C157 0.961 . S
C161 O145 1.221 . S
C161 O149 1.277 . S
C162 O147 1.237 . S
C162 O148 1.278 . S
H163 C131 0.931 . S
H164 C167 0.961 . S
H165 C167 0.961 . S
H166 C167 0.960 . S
C167 C133 1.361 . S
C167 H164 0.961 . S
C167 H165 0.961 . S
C167 H166 0.960 . S
C168 O144 1.253 . S
C168 O153 1.263 . S
C169 O151 1.278 . S
C169 O154 1.237 . S
H170 C134 0.930 . S
H171 C138 0.930 . S
H172 C173 0.951 . S
C173 H172 0.951 . S
C173 C179 1.265 1_554 S
H174 C179 0.950 . S
H175 C183 0.949 . S
H176 C184 0.950 . S
H177 C185 0.951 . S
H178 C186 0.951 . S
C179 C173 1.265 1_556 S
C179 H174 0.950 . S
C179 C180 1.478 . S
C180 C179 1.478 . S
C180 C181 1.397 . S
C180 C197 1.394 1_556 S
C181 C180 1.397 . S
C181 C182 1.438 . S
C181 C186 1.429 . S
C182 C181 1.438 . S
C182 C183 1.428 . S
C182 C195 1.394 1_556 S
C183 H175 0.949 . S
C183 C182 1.428 . S
C183 C184 1.345 . S
C184 H176 0.950 . S
C184 C183 1.345 . S
C184 C185 1.424 . S
C185 H177 0.951 . S
C185 C184 1.424 . S
C185 C186 1.347 . S
C186 H178 0.951 . S
C186 C181 1.429 . S
C186 C185 1.347 . S
H187 C188 0.951 . S
C188 H187 0.951 . S
C188 C194 1.265 1_556 S
H189 C194 0.950 . S
H190 C198 0.949 . S
H191 C199 0.950 . S
H192 C200 0.951 . S
H193 C201 0.951 . S
C194 C188 1.265 1_554 S
C194 H189 0.950 . S
C194 C195 1.478 . S
C195 C182 1.394 1_554 S
C195 C194 1.478 . S
C195 C196 1.397 . S
C196 C195 1.397 . S
C196 C197 1.438 . S
C196 C201 1.429 . S
C197 C180 1.394 1_554 S
C197 C196 1.438 . S
C197 C198 1.428 . S
C198 H190 0.949 . S
C198 C197 1.428 . S
C198 C199 1.345 . S
C199 H191 0.950 . S
C199 C198 1.345 . S
C199 C200 1.424 . S
C200 H192 0.951 . S
C200 C199 1.424 . S
C200 C201 1.347 . S
C201 H193 0.951 . S
C201 C196 1.429 . S
C201 C200 1.347 . S
H202 C203 0.951 . S
C203 H202 0.951 . S
C203 C209 1.265 1_554 S
H204 C209 0.950 . S
H205 C213 0.949 . S
H206 C214 0.950 . S
H207 C215 0.951 . S
H208 C216 0.951 . S
C209 C203 1.265 1_556 S
C209 H204 0.950 . S
C209 C210 1.478 . S
C210 C209 1.478 . S
C210 C211 1.397 . S
C210 C227 1.394 1_556 S
C211 C210 1.397 . S
C211 C212 1.438 . S
C211 C216 1.429 . S
C212 C211 1.438 . S
C212 C213 1.428 . S
C212 C225 1.394 . S
C213 H205 0.949 . S
C213 C212 1.428 . S
C213 C214 1.345 . S
C214 H206 0.950 . S
C214 C213 1.345 . S
C214 C215 1.424 . S
C215 H207 0.951 . S
C215 C214 1.424 . S
C215 C216 1.347 . S
C216 H208 0.951 . S
C216 C211 1.429 . S
C216 C215 1.347 . S
H217 C218 0.951 . S
C218 H217 0.951 . S
C218 C224 1.265 . S
H219 C224 0.950 . S
H220 C228 0.949 . S
H221 C229 0.950 . S
H222 C230 0.951 . S
H223 C231 0.951 . S
C224 C218 1.265 . S
C224 H219 0.950 . S
C224 C225 1.478 . S
C225 C212 1.394 . S
C225 C224 1.478 . S
C225 C226 1.397 1_556 S
C226 C225 1.397 1_554 S
C226 C227 1.438 . S
C226 C231 1.429 . S
C227 C210 1.394 1_554 S
C227 C226 1.438 . S
C227 C228 1.428 . S
C228 H220 0.949 . S
C228 C227 1.428 . S
C228 C229 1.345 . S
C229 H221 0.950 . S
C229 C228 1.345 . S
C229 C230 1.424 . S
C230 H222 0.951 . S
C230 C229 1.424 . S
C230 C231 1.347 . S
C231 H223 0.951 . S
C231 C226 1.429 . S
C231 C230 1.347 . S
H232 C233 0.951 . S
C233 H232 0.951 . S
C233 C239 1.265 . S
H234 C239 0.950 . S
H235 C243 0.949 . S
H236 C244 0.950 . S
H237 C245 0.951 . S
H238 C246 0.951 . S
C239 C233 1.265 . S
C239 H234 0.950 . S
C239 C240 1.478 . S
C240 C239 1.478 . S
C240 C241 1.397 . S
C240 C257 1.394 . S
C241 C240 1.397 . S
C241 C242 1.438 . S
C241 C246 1.429 . S
C242 C241 1.438 . S
C242 C243 1.428 . S
C242 C255 1.394 . S
C243 H235 0.949 . S
C243 C242 1.428 . S
C243 C244 1.345 . S
C244 H236 0.950 . S
C244 C243 1.345 . S
C244 C245 1.424 . S
C245 H237 0.951 . S
C245 C244 1.424 . S
C245 C246 1.347 . S
C246 H238 0.951 . S
C246 C241 1.429 . S
C246 C245 1.347 . S
H247 C248 0.951 . S
C248 H247 0.951 . S
C248 C254 1.265 . S
H249 C254 0.950 . S
H250 C258 0.949 . S
H251 C259 0.950 . S
H252 C260 0.951 . S
H253 C261 0.951 . S
C254 C248 1.265 . S
C254 H249 0.950 . S
C254 C255 1.478 . S
C255 C242 1.394 . S
C255 C254 1.478 . S
C255 C256 1.397 . S
C256 C255 1.397 . S
C256 C257 1.438 . S
C256 C261 1.429 . S
C257 C240 1.394 . S
C257 C256 1.438 . S
C257 C258 1.428 . S
C258 H250 0.949 . S
C258 C257 1.428 . S
C258 C259 1.345 . S
C259 H251 0.950 . S
C259 C258 1.345 . S
C259 C260 1.424 . S
C260 H252 0.951 . S
C260 C259 1.424 . S
C260 C261 1.347 . S
C261 H253 0.951 . S
C261 C256 1.429 . S
C261 C260 1.347 . S
H262 C263 0.951 . S
C263 H262 0.951 . S
C263 C269 1.265 . S
H264 C269 0.950 . S
H265 C273 0.949 . S
H266 C274 0.950 . S
H267 C275 0.951 . S
H268 C276 0.951 . S
C269 C263 1.265 . S
C269 H264 0.950 . S
C269 C270 1.478 . S
C270 C269 1.478 . S
C270 C271 1.397 . S
C270 C287 1.394 . S
C271 C270 1.397 . S
C271 C272 1.438 . S
C271 C276 1.429 . S
C272 C271 1.438 . S
C272 C273 1.428 . S
C272 C285 1.394 . S
C273 H265 0.949 . S
C273 C272 1.428 . S
C273 C274 1.345 . S
C274 H266 0.950 . S
C274 C273 1.345 . S
C274 C275 1.424 . S
C275 H267 0.951 . S
C275 C274 1.424 . S
C275 C276 1.347 . S
C276 H268 0.951 . S
C276 C271 1.429 . S
C276 C275 1.347 . S
H277 C278 0.951 . S
C278 H277 0.951 . S
C278 C284 1.265 . S
H279 C284 0.950 . S
H280 C288 0.949 . S
H281 C289 0.950 . S
H282 C290 0.951 . S
H283 C291 0.951 . S
C284 C278 1.265 . S
C284 H279 0.950 . S
C284 C285 1.478 . S
C285 C272 1.394 . S
C285 C284 1.478 . S
C285 C286 1.397 . S
C286 C285 1.397 . S
C286 C287 1.438 . S
C286 C291 1.429 . S
C287 C270 1.394 . S
C287 C286 1.438 . S
C287 C288 1.428 . S
C288 H280 0.949 . S
C288 C287 1.428 . S
C288 C289 1.345 . S
C289 H281 0.950 . S
C289 C288 1.345 . S
C289 C290 1.424 . S
C290 H282 0.951 . S
C290 C289 1.424 . S
C290 C291 1.347 . S
C291 H283 0.951 . S
C291 C286 1.429 . S
C291 C290 1.347 . S
H292 C293 0.951 . S
C293 H292 0.951 . S
C293 C299 1.265 1_556 S
H294 C299 0.950 . S
H295 C303 0.949 . S
H296 C304 0.950 . S
H297 C305 0.951 . S
H298 C306 0.951 . S
C299 C293 1.265 1_554 S
C299 H294 0.950 . S
C299 C300 1.478 . S
C300 C299 1.478 . S
C300 C301 1.397 1_554 S
C300 C317 1.394 . S
C301 C300 1.397 1_556 S
C301 C302 1.438 . S
C301 C306 1.429 . S
C302 C301 1.438 . S
C302 C303 1.428 . S
C302 C315 1.394 . S
C303 H295 0.949 . S
C303 C302 1.428 . S
C303 C304 1.345 . S
C304 H296 0.950 . S
C304 C303 1.345 . S
C304 C305 1.424 . S
C305 H297 0.951 . S
C305 C304 1.424 . S
C305 C306 1.347 . S
C306 H298 0.951 . S
C306 C301 1.429 . S
C306 C305 1.347 . S
H307 C308 0.951 . S
C308 H307 0.951 . S
C308 C314 1.265 1_554 S
H309 C314 0.950 . S
H310 C318 0.949 . S
H311 C319 0.950 . S
H312 C320 0.951 . S
H313 C321 0.951 . S
C314 C308 1.265 1_556 S
C314 H309 0.950 . S
C314 C315 1.478 . S
C315 C302 1.394 . S
C315 C314 1.478 . S
C315 C316 1.397 1_556 S
C316 C315 1.397 1_554 S
C316 C317 1.438 . S
C316 C321 1.429 . S
C317 C300 1.394 . S
C317 C316 1.438 . S
C317 C318 1.428 . S
C318 H310 0.949 . S
C318 C317 1.428 . S
C318 C319 1.345 . S
C319 H311 0.950 . S
C319 C318 1.345 . S
C319 C320 1.424 . S
C320 H312 0.951 . S
C320 C319 1.424 . S
C320 C321 1.347 . S
C321 H313 0.951 . S
C321 C316 1.429 . S
C321 C320 1.347 . S
H322 C323 0.951 . S
C323 H322 0.951 . S
C323 C329 1.265 . S
H324 C329 0.950 . S
H325 C333 0.949 . S
H326 C334 0.950 . S
H327 C335 0.951 . S
H328 C336 0.951 . S
C329 C323 1.265 . S
C329 H324 0.950 . S
C329 C330 1.478 . S
C330 C329 1.478 . S
C330 C331 1.397 . S
C330 C347 1.394 . S
C331 C330 1.397 . S
C331 C332 1.438 . S
C331 C336 1.429 . S
C332 C331 1.438 . S
C332 C333 1.428 . S
C332 C345 1.394 . S
C333 H325 0.949 . S
C333 C332 1.428 . S
C333 C334 1.345 . S
C334 H326 0.950 . S
C334 C333 1.345 . S
C334 C335 1.424 . S
C335 H327 0.951 . S
C335 C334 1.424 . S
C335 C336 1.347 . S
C336 H328 0.951 . S
C336 C331 1.429 . S
C336 C335 1.347 . S
H337 C338 0.951 . S
C338 H337 0.951 . S
C338 C344 1.265 . S
H339 C344 0.950 . S
H340 C348 0.949 . S
H341 C349 0.950 . S
H342 C350 0.951 . S
H343 C351 0.951 . S
C344 C338 1.265 . S
C344 H339 0.950 . S
C344 C345 1.478 . S
C345 C332 1.394 . S
C345 C344 1.478 . S
C345 C346 1.397 . S
C346 C345 1.397 . S
C346 C347 1.438 . S
C346 C351 1.429 . S
C347 C330 1.394 . S
C347 C346 1.438 . S
C347 C348 1.428 . S
C348 H340 0.949 . S
C348 C347 1.428 . S
C348 C349 1.345 . S
C349 H341 0.950 . S
C349 C348 1.345 . S
C349 C350 1.424 . S
C350 H342 0.951 . S
C350 C349 1.424 . S
C350 C351 1.347 . S
C351 H343 0.951 . S
C351 C346 1.429 . S
C351 C350 1.347 . S
H352 C353 0.951 . S
C353 H352 0.951 . S
C353 C359 1.265 1_556 S
H354 C359 0.950 . S
H355 C363 0.949 . S
H356 C364 0.950 . S
H357 C365 0.951 . S
H358 C366 0.951 1_545 S
C359 C353 1.265 1_554 S
C359 H354 0.950 . S
C359 C360 1.479 . S
C360 C359 1.479 . S
C360 C361 1.411 1_545 S
C360 C377 1.379 1_554 S
C361 C360 1.411 1_565 S
C361 C362 1.438 1_455 S
C361 C366 1.429 . S
C362 C361 1.438 1_655 S
C362 C363 1.428 . S
C362 C375 1.390 1_554 S
C363 H355 0.949 . S
C363 C362 1.428 . S
C363 C364 1.345 . S
C364 H356 0.950 . S
C364 C363 1.345 . S
C364 C365 1.424 1_655 S
C365 H357 0.951 . S
C365 C364 1.424 1_455 S
C365 C366 1.347 . S
C366 H358 0.951 1_565 S
C366 C361 1.429 . S
C366 C365 1.347 . S
H367 C368 0.951 . S
C368 H367 0.951 . S
C368 C374 1.265 1_554 S
H369 C374 0.950 . S
H370 C378 0.949 . S
H371 C379 0.950 . S
H372 C380 0.951 . S
H373 C381 0.951 . S
C374 C368 1.265 1_556 S
C374 H369 0.950 . S
C374 C375 1.478 . S
C375 C362 1.390 1_556 S
C375 C374 1.478 . S
C375 C376 1.401 1_565 S
C376 C375 1.401 1_545 S
C376 C377 1.438 1_655 S
C376 C381 1.429 . S
C377 C360 1.379 1_556 S
C377 C376 1.438 1_455 S
C377 C378 1.428 . S
C378 H370 0.949 . S
C378 C377 1.428 . S
C378 C379 1.345 . S
C379 H371 0.950 . S
C379 C378 1.345 . S
C379 C380 1.424 1_455 S
C380 H372 0.951 . S
C380 C379 1.424 1_655 S
C380 C381 1.347 . S
C381 H373 0.951 . S
C381 C376 1.429 . S
C381 C380 1.347 . S
H382 C383 0.951 . S
C383 H382 0.951 . S
C383 C389 1.265 . S
H384 C389 0.950 . S
H385 C393 0.949 . S
H386 C394 0.950 . S
H387 C395 0.951 . S
H388 C396 0.951 1_545 S
C389 C383 1.265 . S
C389 H384 0.950 . S
C389 C390 1.478 . S
C390 C389 1.478 . S
C390 C391 1.397 . S
C390 C407 1.394 . S
C391 C390 1.397 . S
C391 C392 1.438 1_645 S
C391 C396 1.429 1_545 S
C392 C391 1.438 1_465 S
C392 C393 1.428 . S
C392 C405 1.394 . S
C393 H385 0.949 . S
C393 C392 1.428 . S
C393 C394 1.345 . S
C394 H386 0.950 . S
C394 C393 1.345 . S
C394 C395 1.424 1_455 S
C395 H387 0.951 . S
C395 C394 1.424 1_655 S
C395 C396 1.347 . S
C396 H388 0.951 1_565 S
C396 C391 1.429 1_565 S
C396 C395 1.347 . S
H397 C398 0.951 . S
C398 H397 0.951 . S
C398 C404 1.265 . S
H399 C404 0.950 . S
H400 C408 0.949 . S
H401 C409 0.950 . S
H402 C410 0.951 . S
H403 C411 0.951 . S
C404 C398 1.265 . S
C404 H399 0.950 . S
C404 C405 1.478 . S
C405 C392 1.394 . S
C405 C404 1.478 . S
C405 C406 1.397 1_565 S
C406 C405 1.397 1_545 S
C406 C407 1.438 1_455 S
C406 C411 1.429 . S
C407 C390 1.394 . S
C407 C406 1.438 1_655 S
C407 C408 1.428 . S
C408 H400 0.949 . S
C408 C407 1.428 . S
C408 C409 1.345 . S
C409 H401 0.950 . S
C409 C408 1.345 . S
C409 C410 1.424 1_655 S
C410 H402 0.951 . S
C410 C409 1.424 1_455 S
C410 C411 1.347 . S
C411 H403 0.951 . S
C411 C406 1.429 . S
C411 C410 1.347 . S
H412 C413 0.951 . S
C413 H412 0.951 . S
C413 C419 1.265 . S
H414 C419 0.950 . S
H415 C423 0.949 . S
H416 C424 0.950 . S
H417 C425 0.951 . S
H418 C426 0.951 . S
C419 C413 1.265 . S
C419 H414 0.950 . S
C419 C420 1.478 . S
C420 C419 1.478 . S
C420 C421 1.397 . S
C420 C437 1.394 . S
C421 C420 1.397 . S
C421 C422 1.438 . S
C421 C426 1.429 . S
C422 C421 1.438 . S
C422 C423 1.428 . S
C422 C435 1.394 . S
C423 H415 0.949 . S
C423 C422 1.428 . S
C423 C424 1.345 . S
C424 H416 0.950 . S
C424 C423 1.345 . S
C424 C425 1.424 . S
C425 H417 0.951 . S
C425 C424 1.424 . S
C425 C426 1.347 . S
C426 H418 0.951 . S
C426 C421 1.429 . S
C426 C425 1.347 . S
H427 C428 0.951 . S
C428 H427 0.951 . S
C428 C434 1.265 . S
H429 C434 0.950 . S
H430 C438 0.949 . S
H431 C439 0.950 . S
H432 C440 0.951 . S
H433 C441 0.951 . S
C434 C428 1.265 . S
C434 H429 0.950 . S
C434 C435 1.478 . S
C435 C422 1.394 . S
C435 C434 1.478 . S
C435 C436 1.397 . S
C436 C435 1.397 . S
C436 C437 1.438 . S
C436 C441 1.429 . S
C437 C420 1.394 . S
C437 C436 1.438 . S
C437 C438 1.428 . S
C438 H430 0.949 . S
C438 C437 1.428 . S
C438 C439 1.345 . S
C439 H431 0.950 . S
C439 C438 1.345 . S
C439 C440 1.424 . S
C440 H432 0.951 . S
C440 C439 1.424 . S
C440 C441 1.347 . S
C441 H433 0.951 . S
C441 C436 1.429 . S
C441 C440 1.347 . S
H442 C443 0.951 . S
C443 H442 0.951 . S
C443 C449 1.265 . S
H444 C449 0.950 . S
H445 C453 0.949 . S
H446 C454 0.950 . S
H447 C455 0.951 . S
H448 C456 0.951 . S
C449 C443 1.265 . S
C449 H444 0.950 . S
C449 C450 1.478 . S
C450 C449 1.478 . S
C450 C451 1.397 . S
C450 C467 1.394 . S
C451 C450 1.397 . S
C451 C452 1.438 . S
C451 C456 1.429 . S
C452 C451 1.438 . S
C452 C453 1.428 . S
C452 C465 1.394 . S
C453 H445 0.949 . S
C453 C452 1.428 . S
C453 C454 1.345 . S
C454 H446 0.950 . S
C454 C453 1.345 . S
C454 C455 1.424 . S
C455 H447 0.951 . S
C455 C454 1.424 . S
C455 C456 1.347 . S
C456 H448 0.951 . S
C456 C451 1.429 . S
C456 C455 1.347 . S
H457 C458 0.951 . S
C458 H457 0.951 . S
C458 C464 1.265 . S
H459 C464 0.950 . S
H460 C468 0.949 . S
H461 C469 0.950 . S
H462 C470 0.951 . S
H463 C471 0.951 . S
C464 C458 1.265 . S
C464 H459 0.950 . S
C464 C465 1.478 . S
C465 C452 1.394 . S
C465 C464 1.478 . S
C465 C466 1.397 . S
C466 C465 1.397 . S
C466 C467 1.438 . S
C466 C471 1.429 . S
C467 C450 1.394 . S
C467 C466 1.438 . S
C467 C468 1.428 . S
C468 H460 0.949 . S
C468 C467 1.428 . S
C468 C469 1.345 . S
C469 H461 0.950 . S
C469 C468 1.345 . S
C469 C470 1.424 . S
C470 H462 0.951 . S
C470 C469 1.424 . S
C470 C471 1.347 . S
C471 H463 0.951 . S
C471 C466 1.429 . S
C471 C470 1.347 . S
H472 C473 0.951 . S
C473 H472 0.951 . S
C473 C479 1.265 . S
H474 C479 0.950 . S
H475 C483 0.949 . S
H476 C484 0.950 . S
H477 C485 0.951 . S
H478 C486 0.951 . S
C479 C473 1.265 . S
C479 H474 0.950 . S
C479 C480 1.478 . S
C480 C479 1.478 . S
C480 C481 1.397 . S
C480 C497 1.394 . S
C481 C480 1.397 . S
C481 C482 1.438 . S
C481 C486 1.429 . S
C482 C481 1.438 . S
C482 C483 1.428 . S
C482 C495 1.394 . S
C483 H475 0.949 . S
C483 C482 1.428 . S
C483 C484 1.345 . S
C484 H476 0.950 . S
C484 C483 1.345 . S
C484 C485 1.424 . S
C485 H477 0.951 . S
C485 C484 1.424 . S
C485 C486 1.347 . S
C486 H478 0.951 . S
C486 C481 1.429 . S
C486 C485 1.347 . S
H487 C488 0.951 . S
C488 H487 0.951 . S
C488 C494 1.265 . S
H489 C494 0.950 . S
H490 C498 0.949 . S
H491 C499 0.950 . S
H492 C500 0.951 . S
H493 C501 0.951 . S
C494 C488 1.265 . S
C494 H489 0.950 . S
C494 C495 1.478 . S
C495 C482 1.394 . S
C495 C494 1.478 . S
C495 C496 1.397 . S
C496 C495 1.397 . S
C496 C497 1.438 . S
C496 C501 1.429 . S
C497 C480 1.394 . S
C497 C496 1.438 . S
C497 C498 1.428 . S
C498 H490 0.949 . S
C498 C497 1.428 . S
C498 C499 1.345 . S
C499 H491 0.950 . S
C499 C498 1.345 . S
C499 C500 1.424 . S
C500 H492 0.951 . S
C500 C499 1.424 . S
C500 C501 1.347 . S
C501 H493 0.951 . S
C501 C496 1.429 . S
C501 C500 1.347 . S
H502 C503 0.951 . S
C503 H502 0.951 . S
C503 C509 1.265 . S
H504 C509 0.950 . S
H505 C513 0.949 . S
H506 C514 0.950 . S
H507 C515 0.951 . S
H508 C516 0.951 . S
C509 C503 1.265 . S
C509 H504 0.950 . S
C509 C510 1.478 . S
C510 C509 1.478 . S
C510 C511 1.397 . S
C510 C527 1.394 . S
C511 C510 1.397 . S
C511 C512 1.438 . S
C511 C516 1.429 . S
C512 C511 1.438 . S
C512 C513 1.428 . S
C512 C525 1.394 . S
C513 H505 0.949 . S
C513 C512 1.428 . S
C513 C514 1.345 . S
C514 H506 0.950 . S
C514 C513 1.345 . S
C514 C515 1.424 . S
C515 H507 0.951 . S
C515 C514 1.424 . S
C515 C516 1.347 . S
C516 H508 0.951 . S
C516 C511 1.429 . S
C516 C515 1.347 . S
H517 C518 0.951 . S
C518 H517 0.951 . S
C518 C524 1.265 . S
H519 C524 0.950 . S
H520 C528 0.949 . S
H521 C529 0.950 . S
H522 C530 0.951 . S
H523 C531 0.951 . S
C524 C518 1.265 . S
C524 H519 0.950 . S
C524 C525 1.478 . S
C525 C512 1.394 . S
C525 C524 1.478 . S
C525 C526 1.397 . S
C526 C525 1.397 . S
C526 C527 1.438 . S
C526 C531 1.429 . S
C527 C510 1.394 . S
C527 C526 1.438 . S
C527 C528 1.428 . S
C528 H520 0.949 . S
C528 C527 1.428 . S
C528 C529 1.345 . S
C529 H521 0.950 . S
C529 C528 1.345 . S
C529 C530 1.424 . S
C530 H522 0.951 . S
C530 C529 1.424 . S
C530 C531 1.347 . S
C531 H523 0.951 . S
C531 C526 1.429 . S
C531 C530 1.347 . S
H532 C533 0.951 . S
C533 H532 0.951 . S
C533 C539 1.265 . S
H534 C539 0.950 . S
H535 C543 0.949 . S
H536 C544 0.950 . S
H537 C545 0.951 1_455 S
H538 C546 0.951 . S
C539 C533 1.265 . S
C539 H534 0.950 . S
C539 C540 1.478 . S
C540 C539 1.478 . S
C540 C541 1.397 . S
C540 C557 1.394 . S
C541 C540 1.397 . S
C541 C542 1.438 1_455 S
C541 C546 1.429 . S
C542 C541 1.438 1_655 S
C542 C543 1.428 . S
C542 C555 1.394 . S
C543 H535 0.949 . S
C543 C542 1.428 . S
C543 C544 1.345 . S
C544 H536 0.950 . S
C544 C543 1.345 . S
C544 C545 1.424 . S
C545 H537 0.951 1_655 S
C545 C544 1.424 . S
C545 C546 1.347 1_655 S
C546 H538 0.951 . S
C546 C541 1.429 . S
C546 C545 1.347 1_455 S
H547 C548 0.951 . S
C548 H547 0.951 . S
C548 C554 1.265 . S
H549 C554 0.950 . S
H550 C558 0.949 . S
H551 C559 0.950 . S
H552 C560 0.951 1_655 S
H553 C561 0.951 . S
C554 C548 1.265 . S
C554 H549 0.950 . S
C554 C555 1.478 . S
C555 C542 1.394 . S
C555 C554 1.478 . S
C555 C556 1.397 . S
C556 C555 1.397 . S
C556 C557 1.438 1_655 S
C556 C561 1.429 . S
C557 C540 1.394 . S
C557 C556 1.438 1_455 S
C557 C558 1.428 . S
C558 H550 0.949 . S
C558 C557 1.428 . S
C558 C559 1.345 . S
C559 H551 0.950 . S
C559 C558 1.345 . S
C559 C560 1.424 . S
C560 H552 0.951 1_455 S
C560 C559 1.424 . S
C560 C561 1.347 1_455 S
C561 H553 0.951 . S
C561 C556 1.429 . S
C561 C560 1.347 1_655 S
H562 C563 0.951 . S
C563 H562 0.951 . S
C563 C569 1.265 . S
H564 C569 0.950 . S
H565 C573 0.949 . S
H566 C574 0.950 . S
H567 C575 0.951 . S
H568 C576 0.951 . S
C569 C563 1.265 . S
C569 H564 0.950 . S
C569 C570 1.478 . S
C570 C569 1.478 . S
C570 C571 1.397 1_655 S
C570 C587 1.394 . S
C571 C570 1.397 1_455 S
C571 C572 1.438 . S
C571 C576 1.429 . S
C572 C571 1.438 . S
C572 C573 1.428 . S
C572 C585 1.394 . S
C573 H565 0.949 . S
C573 C572 1.428 . S
C573 C574 1.345 . S
C574 H566 0.950 . S
C574 C573 1.345 . S
C574 C575 1.424 . S
C575 H567 0.951 . S
C575 C574 1.424 . S
C575 C576 1.347 . S
C576 H568 0.951 . S
C576 C571 1.429 . S
C576 C575 1.347 . S
H577 C578 0.951 . S
C578 H577 0.951 . S
C578 C584 1.265 . S
H579 C584 0.950 . S
H580 C588 0.949 . S
H581 C589 0.950 . S
H582 C590 0.951 . S
H583 C591 0.951 . S
C584 C578 1.265 . S
C584 H579 0.950 . S
C584 C585 1.478 . S
C585 C572 1.394 . S
C585 C584 1.478 . S
C585 C586 1.397 1_455 S
C586 C585 1.397 1_655 S
C586 C587 1.438 . S
C586 C591 1.429 . S
C587 C570 1.394 . S
C587 C586 1.438 . S
C587 C588 1.428 . S
C588 H580 0.949 . S
C588 C587 1.428 . S
C588 C589 1.345 . S
C589 H581 0.950 . S
C589 C588 1.345 . S
C589 C590 1.424 . S
C590 H582 0.951 . S
C590 C589 1.424 . S
C590 C591 1.347 . S
C591 H583 0.951 . S
C591 C586 1.429 . S
C591 C590 1.347 . S
H592 C593 0.951 . S
C593 H592 0.951 . S
C593 C599 1.265 . S
H594 C599 0.950 . S
H595 C603 0.949 . S
H596 C604 0.950 . S
H597 C605 0.951 . S
H598 C606 0.951 . S
C599 C593 1.265 . S
C599 H594 0.950 . S
C599 C600 1.478 . S
C600 C599 1.478 . S
C600 C601 1.397 . S
C600 C617 1.394 . S
C601 C600 1.397 . S
C601 C602 1.438 1_455 S
C601 C606 1.429 . S
C602 C601 1.438 1_655 S
C602 C603 1.428 . S
C602 C615 1.394 . S
C603 H595 0.949 . S
C603 C602 1.428 . S
C603 C604 1.345 . S
C604 H596 0.950 . S
C604 C603 1.345 . S
C604 C605 1.424 1_655 S
C605 H597 0.951 . S
C605 C604 1.424 1_455 S
C605 C606 1.347 . S
C606 H598 0.951 . S
C606 C601 1.429 . S
C606 C605 1.347 . S
H607 C608 0.951 . S
C608 H607 0.951 . S
C608 C614 1.265 . S
H609 C614 0.950 . S
H610 C618 0.949 . S
H611 C619 0.950 . S
H612 C620 0.951 . S
H613 C621 0.951 . S
C614 C608 1.265 . S
C614 H609 0.950 . S
C614 C615 1.478 . S
C615 C602 1.394 . S
C615 C614 1.478 . S
C615 C616 1.397 . S
C616 C615 1.397 . S
C616 C617 1.438 1_655 S
C616 C621 1.429 . S
C617 C600 1.394 . S
C617 C616 1.438 1_455 S
C617 C618 1.428 . S
C618 H610 0.949 . S
C618 C617 1.428 . S
C618 C619 1.345 . S
C619 H611 0.950 . S
C619 C618 1.345 . S
C619 C620 1.424 1_455 S
C620 H612 0.951 . S
C620 C619 1.424 1_655 S
C620 C621 1.347 . S
C621 H613 0.951 . S
C621 C616 1.429 . S
C621 C620 1.347 . S
H622 C623 0.951 . S
C623 H622 0.951 . S
C623 C629 1.265 . S
H624 C629 0.950 . S
H625 C633 0.949 . S
H626 C634 0.950 . S
H627 C635 0.951 . S
H628 C636 0.945 1_455 S
C629 C623 1.265 . S
C629 H624 0.950 . S
C629 C630 1.478 . S
C630 C629 1.478 . S
C630 C631 1.397 1_455 S
C630 C647 1.394 . S
C631 C630 1.397 1_655 S
C631 C632 1.438 . S
C631 C636 1.429 . S
C632 C631 1.438 . S
C632 C633 1.428 . S
C632 C645 1.394 . S
C633 H625 0.949 . S
C633 C632 1.428 . S
C633 C634 1.345 . S
C634 H626 0.950 . S
C634 C633 1.345 . S
C634 C635 1.424 . S
C635 H627 0.951 . S
C635 C634 1.424 . S
C635 C636 1.347 . S
C636 H628 0.945 1_655 S
C636 C631 1.429 . S
C636 C635 1.347 . S
H637 C638 0.951 . S
C638 H637 0.951 . S
C638 C644 1.265 . S
H639 C644 0.950 . S
H640 C648 0.949 . S
H641 C649 0.950 . S
H642 C650 0.951 . S
H643 C651 0.945 1_655 S
C644 C638 1.265 . S
C644 H639 0.950 . S
C644 C645 1.478 . S
C645 C632 1.394 . S
C645 C644 1.478 . S
C645 C646 1.397 1_655 S
C646 C645 1.397 1_455 S
C646 C647 1.438 . S
C646 C651 1.429 . S
C647 C630 1.394 . S
C647 C646 1.438 . S
C647 C648 1.428 . S
C648 H640 0.949 . S
C648 C647 1.428 . S
C648 C649 1.345 . S
C649 H641 0.950 . S
C649 C648 1.345 . S
C649 C650 1.424 . S
C650 H642 0.951 . S
C650 C649 1.424 . S
C650 C651 1.347 . S
C651 H643 0.945 1_455 S
C651 C646 1.429 . S
C651 C650 1.347 . S
C173 N8 0.421 1_554 S
C188 N3 0.637 1_556 S
C203 N51 0.327 1_554 S
C218 N46 0.609 1_556 S
C233 N89 0.485 . S
C248 N94 0.350 . S
C263 N137 0.664 . S
C278 N132 0.394 . S
C293 C70 1.648 1_556 S
C308 C40 1.644 . S
C323 C162 1.645 . S
C338 C113 1.644 . S
C353 C27 1.494 1_556 S
C368 C83 1.491 . S
C383 C161 1.496 . S
C398 C126 1.491 . S
C413 C168 1.532 . S
C428 C13 1.538 . S
C443 C76 1.340 . S
C458 C119 1.342 . S
C473 C125 1.506 . S
C488 C82 1.515 . S
C503 C32 1.431 . S
C518 C156 1.437 . S
C533 C99 1.674 . S
C548 C56 1.644 . S
C563 C169 1.401 . S
C578 C33 1.467 . S
C593 C39 1.369 . S
C608 C142 1.352 . S
C623 C118 1.548 . S
C638 C75 1.507 . S
