# Generated by pormake.
# Topology rob, (6)-cn, num edge types: 1
# Building blocks:
#     Node 0, Type 0, BuildingBlock: JUFBIX_clean_sbu_0, # of connection points: 6
#     Node 1, Type 0, BuildingBlock: JUFBIX_clean_sbu_0, # of connection points: 6
#     Node 2, Type 0, BuildingBlock: JUFBIX_clean_sbu_0, # of connection points: 6
#     Node 3, Type 0, BuildingBlock: JUFBIX_clean_sbu_0, # of connection points: 6
#     Edge 4, Type (0, 0), BuildingBlock: FUNLAD_clean_linker_1, # of connection points: 2
#     Edge 5, Type (0, 0), BuildingBlock: FUNLAD_clean_linker_1, # of connection points: 2
#     Edge 6, Type (0, 0), BuildingBlock: FUNLAD_clean_linker_1, # of connection points: 2
#     Edge 7, Type (0, 0), BuildingBlock: FUNLAD_clean_linker_1, # of connection points: 2
#     Edge 8, Type (0, 0), BuildingBlock: FUNLAD_clean_linker_1, # of connection points: 2
#     Edge 9, Type (0, 0), BuildingBlock: FUNLAD_clean_linker_1, # of connection points: 2
#     Edge 10, Type (0, 0), BuildingBlock: FUNLAD_clean_linker_1, # of connection points: 2
#     Edge 11, Type (0, 0), BuildingBlock: FUNLAD_clean_linker_1, # of connection points: 2
#     Edge 12, Type (0, 0), BuildingBlock: FUNLAD_clean_linker_1, # of connection points: 2
#     Edge 13, Type (0, 0), BuildingBlock: FUNLAD_clean_linker_1, # of connection points: 2
#     Edge 14, Type (0, 0), BuildingBlock: FUNLAD_clean_linker_1, # of connection points: 2
#     Edge 15, Type (0, 0), BuildingBlock: FUNLAD_clean_linker_1, # of connection points: 2
# Relax obj value: 0.347
# Max RMSD: 0.257
# Mean RMSD: 0.257
data_MOF--net-rob--node1-JUFBIX_clean_sbu_0--edge1-FUNLAD_clean_linker_1
_symmetry_space_group_name_H-M    P1
_symmetry_Int_Tables_number       1
_symmetry_cell_setting            triclinic
loop_
_symmetry_equiv_pos_as_xyz
'x, y, z'
_cell_length_a     17.640518
_cell_length_b     25.333979
_cell_length_c     29.004034
_cell_angle_alpha  94.469766
_cell_angle_beta   89.768019
_cell_angle_gamma 89.916923
loop_
_atom_site_label
_atom_site_type_symbol
_atom_site_fract_x
_atom_site_fract_y
_atom_site_fract_z
_atom_type_partial_charge
Co0 Co 0.2356 0.26913 0.99354 0.0
C1 C 0.20297 0.16491 0.0119 0.0
Co2 Co 0.32636 0.22965 0.03063 0.0
C3 C 0.16598 0.31632 0.91676 0.0
C4 C 0.08632 0.30592 0.97106 0.0
N5 N 0.16039 0.30031 0.96 0.0
N6 N 0.0985 0.33073 0.90009 0.0
C7 C 0.04807 0.32456 0.93432 0.0
H8 H 0.21792 0.31472 0.89668 0.0
H9 H 0.06096 0.29448 1.0028 0.0
C10 C 0.36105 0.33345 0.01309 0.0
N11 N 0.40098 0.19821 0.06381 0.0
C12 C 0.3941 0.18096 0.10647 0.0
C13 C 0.47521 0.19268 0.05321 0.0
N14 N 0.46105 0.16623 0.12347 0.0
C15 C 0.51242 0.17306 0.08988 0.0
C16 C 0.34272 0.21532 0.9361 0.0
O17 O 0.29605 0.33259 0.99395 0.0
O18 O 0.38454 0.29263 0.03149 0.0
O19 O 0.37375 0.20412 0.97359 0.0
O20 O 0.28272 0.24293 0.93764 0.0
O21 O 0.26846 0.16713 0.02979 0.0
H22 H 0.50125 0.2046 0.02184 0.0
H23 H 0.34163 0.18209 0.12603 0.0
O24 O 0.17653 0.20523 0.99367 0.0
O25 O 0.1886 0.29462 0.04987 0.0
O26 O 0.27743 0.25533 0.08726 0.0
C27 C 0.21678 0.28253 0.0878 0.0
H28 H 0.98739 0.32996 0.93227 0.0
H29 H 0.57293 0.16696 0.09221 0.0
Co30 Co 0.68218 0.79727 0.97781 0.0
C31 C 0.64605 0.69205 0.98767 0.0
Co32 Co 0.77478 0.75301 0.00926 0.0
C33 C 0.57831 0.82414 0.90661 0.0
C34 C 0.57762 0.88209 0.96436 0.0
N35 N 0.60702 0.83456 0.94944 0.0
N36 N 0.53308 0.86359 0.89399 0.0
C37 C 0.53244 0.90007 0.93023 0.0
H38 H 0.59408 0.78972 0.88422 0.0
H39 H 0.5913 0.90354 0.99696 0.0
C40 C 0.80937 0.85852 0.99855 0.0
N41 N 0.85168 0.71741 0.03797 0.0
C42 C 0.88626 0.73254 0.07842 0.0
C43 C 0.88749 0.67243 0.02228 0.0
N44 N 0.94209 0.6988 0.08849 0.0
C45 C 0.94346 0.66119 0.0531 0.0
C46 C 0.78532 0.74859 0.91421 0.0
O47 O 0.74252 0.85904 0.98272 0.0
O48 O 0.83602 0.81583 0.01243 0.0
O49 O 0.81678 0.73229 0.94982 0.0
O50 O 0.72671 0.77766 0.91897 0.0
O51 O 0.71201 0.69053 0.00549 0.0
H52 H 0.87438 0.64961 0.99023 0.0
H53 H 0.87201 0.76839 0.09942 0.0
O54 O 0.62217 0.73499 0.97289 0.0
O55 O 0.63885 0.81652 0.03721 0.0
O56 O 0.73203 0.77396 0.068 0.0
C57 C 0.67206 0.80159 0.07279 0.0
H58 H 0.50372 0.93795 0.93119 0.0
H59 H 0.98213 0.62786 0.04989 0.0
Co60 Co 0.19855 0.726 0.51166 0.0
C61 C 0.15523 0.8314 0.50366 0.0
Co62 Co 0.28362 0.77563 0.4785 0.0
C63 C 0.12458 0.67726 0.58725 0.0
C64 C 0.05255 0.67906 0.52835 0.0
N65 N 0.12438 0.68886 0.54247 0.0
N66 N 0.05571 0.66262 0.60194 0.0
C67 C 0.01026 0.66298 0.56475 0.0
H68 H 0.17257 0.68363 0.61011 0.0
H69 H 0.03047 0.68704 0.49487 0.0
C70 C 0.32815 0.67027 0.48706 0.0
N71 N 0.35673 0.81318 0.44852 0.0
C72 C 0.35127 0.83384 0.40709 0.0
C73 C 0.43082 0.81724 0.45961 0.0
N74 N 0.41917 0.84891 0.39131 0.0
C75 C 0.46942 0.83906 0.42444 0.0
C76 C 0.30025 0.77872 0.57303 0.0
O77 O 0.26328 0.66523 0.50573 0.0
O78 O 0.34696 0.71453 0.47262 0.0
O79 O 0.32831 0.79678 0.53707 0.0
O80 O 0.24436 0.74739 0.5691 0.0
O81 O 0.21979 0.83594 0.4847 0.0
H82 H 0.45604 0.80208 0.48986 0.0
H83 H 0.29964 0.83392 0.38704 0.0
O84 O 0.13535 0.78714 0.5176 0.0
O85 O 0.1536 0.70572 0.45304 0.0
O86 O 0.23769 0.75463 0.42044 0.0
C87 C 0.18026 0.72442 0.41694 0.0
H88 H 0.94994 0.65534 0.56437 0.0
H89 H 0.53012 0.84467 0.42235 0.0
Co90 Co 0.72451 0.23919 0.53158 0.0
C91 C 0.67286 0.34052 0.51732 0.0
Co92 Co 0.80859 0.28808 0.49705 0.0
C93 C 0.66461 0.1829 0.60619 0.0
C94 C 0.58222 0.19008 0.55316 0.0
N95 N 0.65535 0.20041 0.56375 0.0
N96 N 0.60001 0.16353 0.6231 0.0
C97 C 0.54794 0.16749 0.58961 0.0
H98 H 0.71656 0.18747 0.62584 0.0
H99 H 0.55444 0.20101 0.5221 0.0
C100 C 0.85897 0.18653 0.51087 0.0
N101 N 0.87861 0.32589 0.46489 0.0
C102 C 0.91469 0.30857 0.42536 0.0
C103 C 0.9078 0.3743 0.47627 0.0
N104 N 0.96517 0.34418 0.41163 0.0
C105 C 0.96147 0.38546 0.4437 0.0
C106 C 0.82249 0.29857 0.59125 0.0
O107 O 0.79398 0.18153 0.52917 0.0
O108 O 0.87688 0.23002 0.49482 0.0
O109 O 0.85147 0.31431 0.55458 0.0
O110 O 0.76692 0.26682 0.58841 0.0
O111 O 0.73824 0.3462 0.49946 0.0
H112 H 0.892 0.39945 0.50665 0.0
H113 H 0.90563 0.26982 0.40784 0.0
O114 O 0.65582 0.29696 0.53367 0.0
O115 O 0.68276 0.21239 0.47407 0.0
O116 O 0.76593 0.26117 0.44027 0.0
C117 C 0.71154 0.22841 0.43745 0.0
H118 H 0.48852 0.15755 0.59196 0.0
H119 H 0.99536 0.42104 0.44358 0.0
H120 H 0.54241 0.64867 0.96573 0.0
C121 C 0.59585 0.64512 0.9838 0.0
H122 H 0.66336 0.59561 0.0223 0.0
H123 H 0.37256 0.46374 0.07699 0.0
H124 H 0.39181 0.51862 0.14824 0.0
H125 H 0.48659 0.59031 0.15253 0.0
H126 H 0.56258 0.60771 0.08548 0.0
C127 C 0.61187 0.59944 1.0024 0.0
C128 C 0.55636 0.55471 0.99981 0.0
C129 C 0.51347 0.54416 0.03952 0.0
C130 C 0.45947 0.50223 0.03721 0.0
C131 C 0.41565 0.49407 0.07705 0.0
C132 C 0.42577 0.52553 0.11813 0.0
C133 C 0.47908 0.56593 0.12053 0.0
C134 C 0.52241 0.57543 0.08179 0.0
H135 H 0.46258 0.3793 0.03464 0.0
C136 C 0.41043 0.38077 0.01489 0.0
H137 H 0.34511 0.42617 0.97158 0.0
H138 H 0.63131 0.5624 0.91786 0.0
H139 H 0.61238 0.5074 0.84657 0.0
H140 H 0.51877 0.43495 0.84248 0.0
H141 H 0.44358 0.41689 0.90969 0.0
C142 C 0.39511 0.42452 0.99317 0.0
C143 C 0.44933 0.47007 0.99536 0.0
C144 C 0.49202 0.48077 0.95558 0.0
C145 C 0.54576 0.5229 0.95785 0.0
C146 C 0.58892 0.53158 0.91788 0.0
C147 C 0.57887 0.50014 0.87678 0.0
C148 C 0.5262 0.45931 0.87449 0.0
C149 C 0.4833 0.44945 0.91332 0.0
H150 H 0.43448 0.63196 0.46237 0.0
C151 C 0.38352 0.62634 0.48264 0.0
H152 H 0.32782 0.57651 0.527 0.0
H153 H 0.57003 0.40973 0.41524 0.0
H154 H 0.48648 0.41612 0.34954 0.0
H155 H 0.38014 0.47951 0.35323 0.0
H156 H 0.35614 0.53692 0.42266 0.0
C157 C 0.37617 0.5818 0.50451 0.0
C158 C 0.43835 0.54163 0.50265 0.0
C159 C 0.45173 0.50834 0.46179 0.0
C160 C 0.51294 0.47147 0.45979 0.0
C161 C 0.52454 0.4385 0.41863 0.0
C162 C 0.47704 0.44171 0.38067 0.0
C163 C 0.4171 0.47744 0.38274 0.0
C164 C 0.4042 0.51036 0.42275 0.0
H165 H 0.56431 0.37747 0.53947 0.0
C166 C 0.61557 0.38324 0.51953 0.0
H167 H 0.67137 0.43298 0.47507 0.0
H168 H 0.42809 0.59903 0.58634 0.0
H169 H 0.51133 0.5927 0.65208 0.0
H170 H 0.61843 0.52976 0.64826 0.0
H171 H 0.64283 0.47262 0.57873 0.0
C172 C 0.6225 0.42739 0.49707 0.0
C173 C 0.56024 0.4675 0.4988 0.0
C174 C 0.54691 0.50085 0.53965 0.0
C175 C 0.48559 0.5376 0.54169 0.0
C176 C 0.47376 0.57042 0.5829 0.0
C177 C 0.52117 0.56725 0.62089 0.0
C178 C 0.58143 0.53177 0.61875 0.0
C179 C 0.59455 0.49898 0.57869 0.0
H180 H 0.18716 0.08219 0.02786 0.0
C181 C 0.15917 0.11554 0.01363 0.0
H182 H 0.05796 0.14277 0.98478 0.0
H183 H 0.94775 0.90901 0.923 0.0
H184 H 0.97804 0.94183 0.84883 0.0
H185 H 0.03927 0.02877 0.84433 0.0
H186 H 0.07087 0.08333 0.91403 0.0
C187 C 0.08669 0.11047 1.00009 0.0
C188 C 0.04566 0.05937 1.00321 0.0
C189 C 0.02597 0.02848 0.96214 0.0
C190 C 0.98954 0.97869 0.96474 0.0
C191 C 0.97337 0.94778 0.92311 0.0
C192 C 0.99101 0.96596 0.88026 0.0
C193 C 0.02557 0.01487 0.87773 0.0
C194 C 0.04325 0.04584 0.91804 0.0
H195 H 0.8279 0.94209 0.98631 0.0
C196 C 0.85494 0.9073 0.99869 0.0
H197 H 0.95614 0.87638 0.02479 0.0
H198 H 0.0698 0.11031 0.08887 0.0
H199 H 0.04142 0.07668 0.16297 0.0
H200 H 0.98108 0.98939 0.16732 0.0
H201 H 0.94836 0.93535 0.09748 0.0
C202 C 0.92806 0.91011 0.01132 0.0
C203 C 0.97132 0.96032 0.00845 0.0
C204 C 0.99182 0.99085 0.04952 0.0
C205 C 0.02808 0.04073 0.04696 0.0
C206 C 0.04459 0.07141 0.08866 0.0
C207 C 0.028 0.05276 0.13149 0.0
C208 C 0.99392 1.00366 0.13394 0.0
C209 C 0.97552 0.97302 0.09358 0.0
H210 H 0.96743 0.1487 0.4898 0.0
C211 C 0.91333 0.14228 0.50658 0.0
H212 H 0.84494 0.08745 0.53908 0.0
H213 H 0.08027 0.93069 0.41218 0.0
H214 H 0.00976 0.95878 0.34669 0.0
H215 H 0.91202 0.0284 0.35735 0.0
H216 H 0.88413 0.07042 0.4335 0.0
C217 C 0.89774 0.09448 0.52115 0.0
C218 C 0.9538 0.05061 0.51476 0.0
C219 C 0.96887 0.02616 0.46995 0.0
C220 C 0.02454 0.98554 0.46387 0.0
C221 C 0.03857 0.96176 0.41878 0.0
C222 C 0.99847 0.97745 0.38087 0.0
C223 C 0.94347 0.01668 0.38687 0.0
C224 C 0.92838 0.04074 0.43079 0.0
H225 H 0.04898 0.87063 0.52729 0.0
C226 C 0.10294 0.87672 0.51024 0.0
H227 H 0.1719 0.93123 0.47779 0.0
H228 H 0.93757 0.08882 0.60519 0.0
H229 H 1.00762 0.06042 0.67077 0.0
H230 H 0.1051 0.99055 0.66013 0.0
H231 H 0.13305 0.94858 0.58393 0.0
C232 C 0.11945 0.92463 0.49624 0.0
C233 C 0.06386 0.96877 0.50267 0.0
C234 C 0.04874 0.99318 0.54748 0.0
C235 C 0.99317 0.03387 0.55355 0.0
C236 C 0.97915 0.05766 0.59863 0.0
C237 C 0.01903 0.04181 0.63657 0.0
C238 C 0.07386 1.00244 0.63059 0.0
C239 C 0.089 0.97842 0.58665 0.0
H240 H 0.71628 0.2209 0.36189 0.0
C241 C 0.68211 0.21146 0.39145 0.0
H242 H 0.57739 0.1809 0.41313 0.0
H243 H 0.55673 0.25714 0.19585 0.0
H244 H 0.57551 0.34597 0.23134 0.0
H245 H 0.59342 0.3616 0.31561 0.0
H246 H 0.59278 0.28847 0.36476 0.0
C247 C 0.61279 0.19068 0.38426 0.0
C248 C 0.58298 0.18276 0.33625 0.0
C249 C 0.57872 0.22641 0.30845 0.0
C250 C 0.56584 0.21758 0.26023 0.0
C251 C 0.56558 0.26157 0.23284 0.0
C252 C 0.57604 0.31285 0.25277 0.0
C253 C 0.58613 0.32165 0.30018 0.0
C254 C 0.5868 0.27919 0.32791 0.0
H255 H 0.42459 0.15589 0.194 0.0
C256 C 0.47355 0.1567 0.17112 0.0
H257 H 0.59313 0.1605 0.1683 0.0
H258 H 0.57357 0.09193 0.38127 0.0
H259 H 0.53992 1.00447 0.34713 0.0
H260 H 0.51164 0.98999 0.26378 0.0
H261 H 0.51869 0.06246 0.2139 0.0
C262 C 0.5431 0.15692 0.18963 0.0
C263 C 0.55279 0.16554 0.24039 0.0
C264 C 0.54882 0.12272 0.26889 0.0
C265 C 0.56429 0.1313 0.317 0.0
C266 C 0.56181 0.08766 0.34459 0.0
C267 C 0.54262 0.03729 0.32543 0.0
C268 C 0.52684 0.02909 0.27849 0.0
C269 C 0.5307 0.07104 0.25027 0.0
H270 H 0.67375 0.80011 0.14833 0.0
C271 C 0.64238 0.81492 0.11979 0.0
H272 H 0.54491 0.85685 0.10098 0.0
H273 H 0.38779 0.78675 0.28613 0.0
H274 H 0.31095 0.74108 0.22703 0.0
H275 H 0.34187 0.74534 0.14439 0.0
H276 H 0.45038 0.79546 0.1206 0.0
C277 C 0.57874 0.84305 0.12888 0.0
C278 C 0.55028 0.85113 0.17738 0.0
C279 C 0.48471 0.82377 0.19069 0.0
C280 C 0.46583 0.82253 0.23837 0.0
C281 C 0.40325 0.79135 0.25062 0.0
C282 C 0.35891 0.76428 0.21693 0.0
C283 C 0.37639 0.76659 0.17043 0.0
C284 C 0.43882 0.79554 0.15726 0.0
H285 H 0.39008 0.88004 0.32558 0.0
C286 C 0.4346 0.86182 0.34478 0.0
H287 H 0.54219 0.82537 0.34123 0.0
H288 H 0.6701 0.91604 0.16262 0.0
H289 H 0.7453 0.96504 0.22142 0.0
H290 H 0.71488 0.96151 0.30424 0.0
H291 H 0.60853 0.90974 0.32872 0.0
C292 C 0.49816 0.84473 0.32264 0.0
C293 C 0.51149 0.85029 0.27253 0.0
C294 C 0.57461 0.88005 0.25887 0.0
C295 C 0.59323 0.88119 0.21124 0.0
C296 C 0.65503 0.91261 0.19846 0.0
C297 C 0.69831 0.94116 0.23182 0.0
C298 C 0.68119 0.93917 0.27844 0.0
C299 C 0.62012 0.90911 0.29202 0.0
H300 H 0.48127 0.90938 0.84173 0.0
C301 C 0.50043 0.8702 0.84934 0.0
H302 H 0.51321 0.79048 0.82362 0.0
H303 H 0.27046 0.87732 0.67193 0.0
H304 H 0.18504 0.89876 0.73661 0.0
H305 H 0.22653 0.8897 0.81673 0.0
H306 H 0.35395 0.86071 0.83278 0.0
C307 C 0.49371 0.82973 0.81681 0.0
C308 C 0.46733 0.83734 0.76902 0.0
C309 C 0.39146 0.85248 0.76044 0.0
C310 C 0.36605 0.85481 0.71413 0.0
C311 C 0.29139 0.87261 0.70639 0.0
C312 C 0.24201 0.88537 0.74318 0.0
C313 C 0.26551 0.88052 0.78829 0.0
C314 C 0.33916 0.86414 0.79703 0.0
H315 H 0.30928 0.77069 0.64755 0.0
C316 C 0.33134 0.79235 0.61947 0.0
H317 H 0.40802 0.85126 0.60114 0.0
H318 H 0.61869 0.81403 0.77338 0.0
H319 H 0.70345 0.79302 0.70848 0.0
H320 H 0.65722 0.79242 0.62828 0.0
H321 H 0.52614 0.81328 0.61248 0.0
C322 C 0.38415 0.82977 0.62875 0.0
C323 C 0.41494 0.83895 0.67656 0.0
C324 C 0.49179 0.82686 0.68513 0.0
C325 C 0.51807 0.8263 0.73139 0.0
C326 C 0.59527 0.81415 0.73896 0.0
C327 C 0.64466 0.80218 0.70202 0.0
C328 C 0.61865 0.8019 0.65687 0.0
C329 C 0.54317 0.81394 0.6483 0.0
H330 H 0.6379 0.15368 0.69333 0.0
C331 C 0.58881 0.15252 0.67069 0.0
H332 H 0.46909 0.14757 0.6683 0.0
H333 H 0.41559 0.06926 0.86661 0.0
H334 H 0.39663 0.98618 0.82013 0.0
H335 H 0.43026 0.97783 0.73723 0.0
H336 H 0.48198 0.05278 0.69997 0.0
C337 C 0.51947 0.14905 0.68963 0.0
C338 C 0.50827 0.152 0.74072 0.0
C339 C 0.47959 0.10762 0.7621 0.0
C340 C 0.46098 0.11219 0.81006 0.0
C341 C 0.43072 0.0677 0.83032 0.0
C342 C 0.41982 0.01984 0.8041 0.0
C343 C 0.43865 0.01517 0.75737 0.0
C344 C 0.46814 0.05845 0.73641 0.0
H345 H 0.34938 0.21532 0.86071 0.0
C346 C 0.37613 0.19961 0.89051 0.0
H347 H 0.46583 0.1519 0.91251 0.0
H348 H 0.55917 0.24646 0.71086 0.0
H349 H 0.58394 0.32717 0.75841 0.0
H350 H 0.56087 0.33237 0.84259 0.0
H351 H 0.51132 0.25677 0.87941 0.0
C352 C 0.43841 0.16942 0.88389 0.0
C353 C 0.4712 0.16107 0.83646 0.0
C354 C 0.50466 0.20434 0.81583 0.0
C355 C 0.52131 0.20041 0.7677 0.0
C356 C 0.54862 0.24599 0.74753 0.0
C357 C 0.56259 0.29294 0.77442 0.0
C358 C 0.54934 0.29595 0.82176 0.0
C359 C 0.52055 0.25236 0.84239 0.0
H360 H 0.04581 0.68019 0.12456 0.0
C361 C 0.99238 0.70166 0.12768 0.0
H362 H 0.91972 0.748 0.17234 0.0
H363 H 0.16817 0.63371 0.30935 0.0
H364 H 0.12507 0.54966 0.27371 0.0
H365 H 0.02957 0.54614 0.21124 0.0
H366 H 0.97966 0.62631 0.18337 0.0
C367 C 0.97316 0.72675 0.16874 0.0
C368 C 0.02422 0.72808 0.21001 0.0
C369 C 0.04787 0.68055 0.22877 0.0
C370 C 0.09794 0.68258 0.26732 0.0
C371 C 0.12652 0.63451 0.28217 0.0
C372 C 0.10261 0.5859 0.26174 0.0
C373 C 0.04939 0.58391 0.2265 0.0
C374 C 0.02182 0.63047 0.21031 0.0
H375 H 0.0877 0.69281 0.37179 0.0
C376 C 0.14073 0.71464 0.37217 0.0
H377 H 0.21731 0.75791 0.33374 0.0
H378 H 0.99282 0.82665 0.18226 0.0
H379 H 0.03211 0.91074 0.2201 0.0
H380 H 0.10999 0.9143 0.29069 0.0
H381 H 0.14943 0.83394 0.32375 0.0
C382 C 0.16538 0.73484 0.33314 0.0
C383 C 0.11893 0.73207 0.28991 0.0
C384 C 0.09474 0.7796 0.2715 0.0
C385 C 0.0482 0.77758 0.23132 0.0
C386 C 0.02678 0.82574 0.21317 0.0
C387 C 0.04912 0.87438 0.23447 0.0
C388 C 0.09302 0.87638 0.27418 0.0
C389 C 0.11555 0.82978 0.2927 0.0
H390 H 0.06508 0.36502 0.37245 0.0
C391 C 0.01564 0.33943 0.3723 0.0
H392 H 0.95199 0.28093 0.33398 0.0
H393 H 0.18687 0.38737 0.18325 0.0
H394 H 0.12601 0.47119 0.20577 0.0
H395 H 0.02616 0.47737 0.26619 0.0
H396 H 0.99005 0.4008 0.30544 0.0
C397 C 1.0015 0.30634 0.33467 0.0
C398 C 0.0535 0.30157 0.29366 0.0
C399 C 0.07013 0.34617 0.26861 0.0
C400 C 0.12253 0.34152 0.23102 0.0
C401 C 0.1437 0.38785 0.20985 0.0
C402 C 0.10965 0.43639 0.22276 0.0
C403 C 0.05403 0.43999 0.25688 0.0
C404 C 0.03431 0.39562 0.27962 0.0
H405 H 0.11935 0.31413 0.12895 0.0
C406 C 0.17515 0.29631 0.13137 0.0
H407 H 0.25594 0.26534 0.17538 0.0
H408 H 0.03452 0.20794 0.33364 0.0
H409 H 0.08572 0.12239 0.30619 0.0
H410 H 0.1664 0.11262 0.23639 0.0
H411 H 0.19754 0.18842 0.19414 0.0
C412 C 0.20117 0.2846 0.17293 0.0
C413 C 0.15254 0.29122 0.21539 0.0
C414 C 0.13389 0.24621 0.23943 0.0
C415 C 0.08535 0.25155 0.27893 0.0
C416 C 0.06958 0.20611 0.30288 0.0
C417 C 0.09879 0.15669 0.28758 0.0
C418 C 0.14435 0.15121 0.24835 0.0
C419 C 0.16194 0.19523 0.22446 0.0
H420 H 0.82111 0.30333 0.66697 0.0
C421 C 0.85437 0.3133 0.6372 0.0
H422 H 0.9601 0.34149 0.61475 0.0
H423 H 0.03157 0.44612 0.81812 0.0
H424 H 0.03179 0.52338 0.77321 0.0
H425 H 1.00011 0.51499 0.6902 0.0
H426 H 0.96439 0.43002 0.65194 0.0
C427 C 0.92529 0.3315 0.6438 0.0
C428 C 0.9583 0.33543 0.69119 0.0
C429 C 0.97848 0.38541 0.71297 0.0
C430 C 0.99822 0.39002 0.76066 0.0
C431 C 0.01665 0.44052 0.78191 0.0
C432 C 0.01704 0.48506 0.75656 0.0
C433 C 0.9988 0.4804 0.70984 0.0
C434 C 0.97867 0.4314 0.68826 0.0
H435 H 0.13071 0.33415 0.82775 0.0
C436 C 0.08422 0.33969 0.85242 0.0
H437 H 0.96648 0.35469 0.85988 0.0
H438 H 0.94381 0.23198 0.6567 0.0
H439 H 0.94954 0.15433 0.70038 0.0
H440 H 0.97615 0.16275 0.78409 0.0
H441 H 0.99835 0.2488 0.82434 0.0
C442 C 0.01446 0.34913 0.83654 0.0
C443 C 0.99875 0.3445 0.7861 0.0
C444 C 0.98351 0.29399 0.76353 0.0
C445 C 0.96509 0.28931 0.71576 0.0
C446 C 0.95433 0.23809 0.69344 0.0
C447 C 0.95829 0.19308 0.71801 0.0
C448 C 0.97347 0.19783 0.76508 0.0
C449 C 0.98614 0.24753 0.78775 0.0
H450 H 0.08006 0.65712 0.67507 0.0
C451 C 0.03499 0.65937 0.64981 0.0
H452 H 0.91698 0.66966 0.64094 0.0
H453 H 0.82042 0.60844 0.84017 0.0
H454 H 0.78153 0.52898 0.79406 0.0
H455 H 0.81605 0.5155 0.71145 0.0
H456 H 0.89032 0.58106 0.6745 0.0
C457 C 0.96329 0.66672 0.66508 0.0
C458 C 0.94483 0.67419 0.71541 0.0
C459 C 0.90093 0.63572 0.7364 0.0
C460 C 0.88048 0.64368 0.78397 0.0
C461 C 0.83714 0.60442 0.80412 0.0
C462 C 0.81446 0.55867 0.77807 0.0
C463 C 0.83382 0.55111 0.73154 0.0
C464 C 0.87648 0.58906 0.71076 0.0
H465 H 0.79012 0.75429 0.83893 0.0
C466 C 0.81611 0.73541 0.86737 0.0
H467 H 0.89957 0.68082 0.88586 0.0
H468 H 0.02381 0.7587 0.68545 0.0
H469 H 0.06448 0.83676 0.73212 0.0
H470 H 0.03342 0.84847 0.81529 0.0
H471 H 0.9602 0.78228 0.85205 0.0
C472 C 0.87399 0.70159 0.85844 0.0
C473 C 0.90239 0.69066 0.81019 0.0
C474 C 0.94746 0.72873 0.78954 0.0
C475 C 0.96776 0.72096 0.74195 0.0
C476 C 0.0092 0.76125 0.72177 0.0
C477 C 0.0325 0.80661 0.74813 0.0
C478 C 0.01477 0.8133 0.79491 0.0
C479 C 0.97254 0.77506 0.81553 0.0
loop_
_geom_bond_atom_site_label_1
_geom_bond_atom_site_label_2
_geom_bond_distance
_geom_bond_site_symmetry_2
_ccdc_geom_bond_type
Co0 N5 2.057 . S
Co0 O17 2.021 . S
Co0 O20 2.062 . S
Co0 O24 2.117 . S
Co0 O25 2.020 1_556 S
C1 O21 1.272 . S
C1 O24 1.245 1_554 S
Co2 N11 2.057 . S
Co2 O18 2.117 . S
Co2 O19 2.020 1_554 S
Co2 O21 2.021 . S
Co2 O26 2.062 . S
C3 N5 1.316 . S
C3 N6 1.347 . S
C3 H8 0.931 . S
C4 N5 1.375 . S
C4 C7 1.350 . S
C4 H9 0.930 . S
N5 Co0 2.057 . S
N5 C3 1.316 . S
N5 C4 1.375 . S
N6 C3 1.347 . S
N6 C7 1.373 . S
C7 C4 1.350 . S
C7 N6 1.373 . S
C7 H28 0.931 1_455 S
H8 C3 0.931 . S
H9 C4 0.930 . S
C10 O17 1.269 . S
C10 O18 1.249 1_556 S
N11 Co2 2.057 . S
N11 C12 1.316 . S
N11 C13 1.375 . S
C12 N11 1.316 . S
C12 N14 1.347 . S
C12 H23 0.931 . S
C13 N11 1.375 . S
C13 C15 1.350 . S
C13 H22 0.930 . S
N14 C12 1.347 . S
N14 C15 1.373 . S
C15 C13 1.350 . S
C15 N14 1.373 . S
C15 H29 0.931 . S
C16 O19 1.256 . S
C16 O20 1.255 . S
O17 Co0 2.021 . S
O17 C10 1.269 . S
O18 Co2 2.117 . S
O18 C10 1.249 1_554 S
O19 Co2 2.020 1_556 S
O19 C16 1.256 . S
O20 Co0 2.062 . S
O20 C16 1.255 . S
O21 C1 1.272 . S
O21 Co2 2.021 . S
H22 C13 0.930 . S
H23 C12 0.931 . S
O24 Co0 2.117 . S
O24 C1 1.245 1_556 S
O25 Co0 2.020 1_554 S
O25 C27 1.256 . S
O26 Co2 2.062 . S
O26 C27 1.255 . S
C27 O25 1.256 . S
C27 O26 1.255 . S
H28 C7 0.931 1_655 S
H29 C15 0.931 . S
Co30 N35 2.057 . S
Co30 O47 2.021 . S
Co30 O50 2.062 . S
Co30 O54 2.117 . S
Co30 O55 2.020 1_556 S
C31 O51 1.272 . S
C31 O54 1.245 1_554 S
Co32 N41 2.057 . S
Co32 O48 2.117 . S
Co32 O49 2.020 1_554 S
Co32 O51 2.021 . S
Co32 O56 2.062 . S
C33 N35 1.316 . S
C33 N36 1.347 . S
C33 H38 0.931 . S
C34 N35 1.375 . S
C34 C37 1.350 . S
C34 H39 0.930 . S
N35 Co30 2.057 . S
N35 C33 1.316 . S
N35 C34 1.375 . S
N36 C33 1.347 . S
N36 C37 1.373 . S
C37 C34 1.350 . S
C37 N36 1.373 . S
C37 H58 0.931 . S
H38 C33 0.931 . S
H39 C34 0.930 . S
C40 O47 1.269 . S
C40 O48 1.249 1_556 S
N41 Co32 2.057 . S
N41 C42 1.316 . S
N41 C43 1.375 . S
C42 N41 1.316 . S
C42 N44 1.347 . S
C42 H53 0.931 . S
C43 N41 1.375 . S
C43 C45 1.350 . S
C43 H52 0.930 . S
N44 C42 1.347 . S
N44 C45 1.373 . S
C45 C43 1.350 . S
C45 N44 1.373 . S
C45 H59 0.931 1_655 S
C46 O49 1.256 . S
C46 O50 1.255 . S
O47 Co30 2.021 . S
O47 C40 1.269 . S
O48 Co32 2.117 . S
O48 C40 1.249 1_554 S
O49 Co32 2.020 1_556 S
O49 C46 1.256 . S
O50 Co30 2.062 . S
O50 C46 1.255 . S
O51 C31 1.272 . S
O51 Co32 2.021 . S
H52 C43 0.930 . S
H53 C42 0.931 . S
O54 Co30 2.117 . S
O54 C31 1.245 1_556 S
O55 Co30 2.020 1_554 S
O55 C57 1.256 . S
O56 Co32 2.062 . S
O56 C57 1.255 . S
C57 O55 1.256 . S
C57 O56 1.255 . S
H58 C37 0.931 . S
H59 C45 0.931 1_455 S
Co60 N65 2.057 . S
Co60 O77 2.021 . S
Co60 O80 2.062 . S
Co60 O84 2.117 . S
Co60 O85 2.020 . S
C61 O81 1.259 . S
C61 O84 1.258 . S
Co62 N71 2.057 . S
Co62 O78 2.117 . S
Co62 O79 2.020 . S
Co62 O81 2.021 . S
Co62 O86 2.062 . S
C63 N65 1.316 . S
C63 N66 1.347 . S
C63 H68 0.931 . S
C64 N65 1.375 . S
C64 C67 1.350 . S
C64 H69 0.930 . S
N65 Co60 2.057 . S
N65 C63 1.316 . S
N65 C64 1.375 . S
N66 C63 1.347 . S
N66 C67 1.373 . S
C67 C64 1.350 . S
C67 N66 1.373 . S
C67 H88 0.931 1_455 S
H68 C63 0.931 . S
H69 C64 0.930 . S
C70 O77 1.259 . S
C70 O78 1.258 . S
N71 Co62 2.057 . S
N71 C72 1.316 . S
N71 C73 1.375 . S
C72 N71 1.316 . S
C72 N74 1.347 . S
C72 H83 0.931 . S
C73 N71 1.375 . S
C73 C75 1.350 . S
C73 H82 0.930 . S
N74 C72 1.347 . S
N74 C75 1.373 . S
C75 C73 1.350 . S
C75 N74 1.373 . S
C75 H89 0.931 . S
C76 O79 1.256 . S
C76 O80 1.255 . S
O77 Co60 2.021 . S
O77 C70 1.259 . S
O78 Co62 2.117 . S
O78 C70 1.258 . S
O79 Co62 2.020 . S
O79 C76 1.256 . S
O80 Co60 2.062 . S
O80 C76 1.255 . S
O81 C61 1.259 . S
O81 Co62 2.021 . S
H82 C73 0.930 . S
H83 C72 0.931 . S
O84 Co60 2.117 . S
O84 C61 1.258 . S
O85 Co60 2.020 . S
O85 C87 1.256 . S
O86 Co62 2.062 . S
O86 C87 1.255 . S
C87 O85 1.256 . S
C87 O86 1.255 . S
H88 C67 0.931 1_655 S
H89 C75 0.931 . S
Co90 N95 2.057 . S
Co90 O107 2.021 . S
Co90 O110 2.062 . S
Co90 O114 2.117 . S
Co90 O115 2.020 . S
C91 O111 1.259 . S
C91 O114 1.258 . S
Co92 N101 2.057 . S
Co92 O108 2.117 . S
Co92 O109 2.020 . S
Co92 O111 2.021 . S
Co92 O116 2.062 . S
C93 N95 1.316 . S
C93 N96 1.347 . S
C93 H98 0.931 . S
C94 N95 1.375 . S
C94 C97 1.350 . S
C94 H99 0.930 . S
N95 Co90 2.057 . S
N95 C93 1.316 . S
N95 C94 1.375 . S
N96 C93 1.347 . S
N96 C97 1.373 . S
C97 C94 1.350 . S
C97 N96 1.373 . S
C97 H118 0.931 . S
H98 C93 0.931 . S
H99 C94 0.930 . S
C100 O107 1.259 . S
C100 O108 1.258 . S
N101 Co92 2.057 . S
N101 C102 1.316 . S
N101 C103 1.375 . S
C102 N101 1.316 . S
C102 N104 1.347 . S
C102 H113 0.931 . S
C103 N101 1.375 . S
C103 C105 1.350 . S
C103 H112 0.930 . S
N104 C102 1.347 . S
N104 C105 1.373 . S
C105 C103 1.350 . S
C105 N104 1.373 . S
C105 H119 0.931 1_655 S
C106 O109 1.256 . S
C106 O110 1.255 . S
O107 Co90 2.021 . S
O107 C100 1.259 . S
O108 Co92 2.117 . S
O108 C100 1.258 . S
O109 Co92 2.020 . S
O109 C106 1.256 . S
O110 Co90 2.062 . S
O110 C106 1.255 . S
O111 C91 1.259 . S
O111 Co92 2.021 . S
H112 C103 0.930 . S
H113 C102 0.931 . S
O114 Co90 2.117 . S
O114 C91 1.258 . S
O115 Co90 2.020 . S
O115 C117 1.256 . S
O116 Co92 2.062 . S
O116 C117 1.255 . S
C117 O115 1.256 . S
C117 O116 1.255 . S
H118 C97 0.931 . S
H119 C105 0.931 1_455 S
H120 C121 0.953 . S
C121 H120 0.953 . S
C121 C127 1.262 1_556 S
H122 C127 0.950 . S
H123 C131 0.949 . S
H124 C132 0.950 . S
H125 C133 0.951 . S
H126 C134 0.951 . S
C127 C121 1.262 1_554 S
C127 H122 0.950 . S
C127 C128 1.478 . S
C128 C127 1.478 . S
C128 C129 1.397 . S
C128 C145 1.394 1_554 S
C129 C128 1.397 . S
C129 C130 1.438 . S
C129 C134 1.429 . S
C130 C129 1.438 . S
C130 C131 1.428 . S
C130 C143 1.374 1_554 S
C131 H123 0.949 . S
C131 C130 1.428 . S
C131 C132 1.345 . S
C132 H124 0.950 . S
C132 C131 1.345 . S
C132 C133 1.424 . S
C133 H125 0.951 . S
C133 C132 1.424 . S
C133 C134 1.347 . S
C134 H126 0.951 . S
C134 C129 1.429 . S
C134 C133 1.347 . S
H135 C136 0.954 . S
C136 H135 0.954 . S
C136 C142 1.261 1_554 S
H137 C142 0.950 . S
H138 C146 0.949 . S
H139 C147 0.950 . S
H140 C148 0.951 . S
H141 C149 0.951 . S
C142 C136 1.261 1_556 S
C142 H137 0.950 . S
C142 C143 1.478 . S
C143 C130 1.374 1_556 S
C143 C142 1.478 . S
C143 C144 1.418 . S
C144 C143 1.418 . S
C144 C145 1.438 . S
C144 C149 1.429 . S
C145 C128 1.394 1_556 S
C145 C144 1.438 . S
C145 C146 1.428 . S
C146 H138 0.949 . S
C146 C145 1.428 . S
C146 C147 1.345 . S
C147 H139 0.950 . S
C147 C146 1.345 . S
C147 C148 1.424 . S
C148 H140 0.951 . S
C148 C147 1.424 . S
C148 C149 1.347 . S
C149 H141 0.951 . S
C149 C144 1.429 . S
C149 C148 1.347 . S
H150 C151 0.951 . S
C151 H150 0.951 . S
C151 C157 1.265 . S
H152 C157 0.950 . S
H153 C161 0.949 . S
H154 C162 0.950 . S
H155 C163 0.951 . S
H156 C164 0.951 . S
C157 C151 1.265 . S
C157 H152 0.950 . S
C157 C158 1.478 . S
C158 C157 1.478 . S
C158 C159 1.397 . S
C158 C175 1.394 . S
C159 C158 1.397 . S
C159 C160 1.438 . S
C159 C164 1.429 . S
C160 C159 1.438 . S
C160 C161 1.428 . S
C160 C173 1.394 . S
C161 H153 0.949 . S
C161 C160 1.428 . S
C161 C162 1.345 . S
C162 H154 0.950 . S
C162 C161 1.345 . S
C162 C163 1.424 . S
C163 H155 0.951 . S
C163 C162 1.424 . S
C163 C164 1.347 . S
C164 H156 0.951 . S
C164 C159 1.429 . S
C164 C163 1.347 . S
H165 C166 0.951 . S
C166 H165 0.951 . S
C166 C172 1.265 . S
H167 C172 0.950 . S
H168 C176 0.949 . S
H169 C177 0.950 . S
H170 C178 0.951 . S
H171 C179 0.951 . S
C172 C166 1.265 . S
C172 H167 0.950 . S
C172 C173 1.478 . S
C173 C160 1.394 . S
C173 C172 1.478 . S
C173 C174 1.397 . S
C174 C173 1.397 . S
C174 C175 1.438 . S
C174 C179 1.429 . S
C175 C158 1.394 . S
C175 C174 1.438 . S
C175 C176 1.428 . S
C176 H168 0.949 . S
C176 C175 1.428 . S
C176 C177 1.345 . S
C177 H169 0.950 . S
C177 C176 1.345 . S
C177 C178 1.424 . S
C178 H170 0.951 . S
C178 C177 1.424 . S
C178 C179 1.347 . S
C179 H171 0.951 . S
C179 C174 1.429 . S
C179 C178 1.347 . S
H180 C181 0.950 1_554 S
C181 H180 0.950 1_556 S
C181 C187 1.265 . S
H182 C187 0.950 . S
H183 C191 0.949 . S
H184 C192 0.950 . S
H185 C193 0.951 . S
H186 C194 0.951 1_455 S
C187 C181 1.265 . S
C187 H182 0.950 . S
C187 C188 1.480 . S
C188 C187 1.480 . S
C188 C189 1.414 1_455 S
C188 C205 1.375 1_556 S
C189 C188 1.414 1_655 S
C189 C190 1.438 1_545 S
C189 C194 1.429 . S
C190 C189 1.438 1_565 S
C190 C191 1.428 . S
C190 C203 1.394 1_556 S
C191 H183 0.949 . S
C191 C190 1.428 . S
C191 C192 1.345 . S
C192 H184 0.950 . S
C192 C191 1.345 . S
C192 C193 1.424 1_565 S
C193 H185 0.951 . S
C193 C192 1.424 1_545 S
C193 C194 1.347 . S
C194 H186 0.951 1_655 S
C194 C189 1.429 . S
C194 C193 1.347 . S
H195 C196 0.947 1_556 S
C196 H195 0.947 1_554 S
C196 C202 1.266 . S
H197 C202 0.950 . S
H198 C206 0.949 . S
H199 C207 0.950 . S
H200 C208 0.951 . S
H201 C209 0.951 1_655 S
C202 C196 1.266 . S
C202 H197 0.950 . S
C202 C203 1.478 . S
C203 C190 1.394 1_554 S
C203 C202 1.478 . S
C203 C204 1.397 1_655 S
C204 C203 1.397 1_455 S
C204 C205 1.438 1_565 S
C204 C209 1.429 . S
C205 C188 1.375 1_554 S
C205 C204 1.438 1_545 S
C205 C206 1.428 . S
C206 H198 0.949 . S
C206 C205 1.428 . S
C206 C207 1.345 . S
C207 H199 0.950 . S
C207 C206 1.345 . S
C207 C208 1.424 1_545 S
C208 H200 0.951 . S
C208 C207 1.424 1_565 S
C208 C209 1.347 . S
C209 H201 0.951 1_455 S
C209 C204 1.429 . S
C209 C208 1.347 . S
H210 C211 0.951 . S
C211 H210 0.951 . S
C211 C217 1.265 . S
H212 C217 0.950 . S
H213 C221 0.949 . S
H214 C222 0.950 . S
H215 C223 0.951 . S
H216 C224 0.951 . S
C217 C211 1.265 . S
C217 H212 0.950 . S
C217 C218 1.478 . S
C218 C217 1.478 . S
C218 C219 1.397 . S
C218 C235 1.394 . S
C219 C218 1.397 . S
C219 C220 1.438 1_645 S
C219 C224 1.429 . S
C220 C219 1.438 1_465 S
C220 C221 1.428 . S
C220 C233 1.394 . S
C221 H213 0.949 . S
C221 C220 1.428 . S
C221 C222 1.345 . S
C222 H214 0.950 . S
C222 C221 1.345 . S
C222 C223 1.424 1_455 S
C223 H215 0.951 . S
C223 C222 1.424 1_655 S
C223 C224 1.347 1_565 S
C224 H216 0.951 . S
C224 C219 1.429 . S
C224 C223 1.347 1_545 S
H225 C226 0.951 . S
C226 H225 0.951 . S
C226 C232 1.265 . S
H227 C232 0.950 . S
H228 C236 0.949 . S
H229 C237 0.950 . S
H230 C238 0.951 . S
H231 C239 0.951 . S
C232 C226 1.265 . S
C232 H227 0.950 . S
C232 C233 1.478 . S
C233 C220 1.394 . S
C233 C232 1.478 . S
C233 C234 1.397 . S
C234 C233 1.397 . S
C234 C235 1.438 1_465 S
C234 C239 1.429 . S
C235 C218 1.394 . S
C235 C234 1.438 1_645 S
C235 C236 1.428 . S
C236 H228 0.949 . S
C236 C235 1.428 . S
C236 C237 1.345 . S
C237 H229 0.950 . S
C237 C236 1.345 . S
C237 C238 1.424 1_655 S
C238 H230 0.951 . S
C238 C237 1.424 1_455 S
C238 C239 1.347 1_545 S
C239 H231 0.951 . S
C239 C234 1.429 . S
C239 C238 1.347 1_565 S
H240 C241 0.951 . S
C241 H240 0.951 . S
C241 C247 1.265 . S
H242 C247 0.950 . S
H243 C251 0.949 . S
H244 C252 0.950 . S
H245 C253 0.951 . S
H246 C254 0.951 . S
C247 C241 1.265 . S
C247 H242 0.950 . S
C247 C248 1.478 . S
C248 C247 1.478 . S
C248 C249 1.397 . S
C248 C265 1.394 . S
C249 C248 1.397 . S
C249 C250 1.438 . S
C249 C254 1.429 . S
C250 C249 1.438 . S
C250 C251 1.428 . S
C250 C263 1.394 . S
C251 H243 0.949 . S
C251 C250 1.428 . S
C251 C252 1.345 . S
C252 H244 0.950 . S
C252 C251 1.345 . S
C252 C253 1.424 . S
C253 H245 0.951 . S
C253 C252 1.424 . S
C253 C254 1.347 . S
C254 H246 0.951 . S
C254 C249 1.429 . S
C254 C253 1.347 . S
H255 C256 0.951 . S
C256 H255 0.951 . S
C256 C262 1.265 . S
H257 C262 0.950 . S
H258 C266 0.949 . S
H259 C267 0.950 . S
H260 C268 0.951 . S
H261 C269 0.951 . S
C262 C256 1.265 . S
C262 H257 0.950 . S
C262 C263 1.478 . S
C263 C250 1.394 . S
C263 C262 1.478 . S
C263 C264 1.397 . S
C264 C263 1.397 . S
C264 C265 1.438 . S
C264 C269 1.429 . S
C265 C248 1.394 . S
C265 C264 1.438 . S
C265 C266 1.428 . S
C266 H258 0.949 . S
C266 C265 1.428 . S
C266 C267 1.345 . S
C267 H259 0.950 . S
C267 C266 1.345 . S
C267 C268 1.424 . S
C268 H260 0.951 . S
C268 C267 1.424 . S
C268 C269 1.347 . S
C269 H261 0.951 . S
C269 C264 1.429 . S
C269 C268 1.347 . S
H270 C271 0.951 . S
C271 H270 0.951 . S
C271 C277 1.265 . S
H272 C277 0.950 . S
H273 C281 0.949 . S
H274 C282 0.950 . S
H275 C283 0.951 . S
H276 C284 0.951 . S
C277 C271 1.265 . S
C277 H272 0.950 . S
C277 C278 1.478 . S
C278 C277 1.478 . S
C278 C279 1.397 . S
C278 C295 1.394 . S
C279 C278 1.397 . S
C279 C280 1.438 . S
C279 C284 1.429 . S
C280 C279 1.438 . S
C280 C281 1.428 . S
C280 C293 1.394 . S
C281 H273 0.949 . S
C281 C280 1.428 . S
C281 C282 1.345 . S
C282 H274 0.950 . S
C282 C281 1.345 . S
C282 C283 1.424 . S
C283 H275 0.951 . S
C283 C282 1.424 . S
C283 C284 1.347 . S
C284 H276 0.951 . S
C284 C279 1.429 . S
C284 C283 1.347 . S
H285 C286 0.951 . S
C286 H285 0.951 . S
C286 C292 1.265 . S
H287 C292 0.950 . S
H288 C296 0.949 . S
H289 C297 0.950 . S
H290 C298 0.951 . S
H291 C299 0.951 . S
C292 C286 1.265 . S
C292 H287 0.950 . S
C292 C293 1.478 . S
C293 C280 1.394 . S
C293 C292 1.478 . S
C293 C294 1.397 . S
C294 C293 1.397 . S
C294 C295 1.438 . S
C294 C299 1.429 . S
C295 C278 1.394 . S
C295 C294 1.438 . S
C295 C296 1.428 . S
C296 H288 0.949 . S
C296 C295 1.428 . S
C296 C297 1.345 . S
C297 H289 0.950 . S
C297 C296 1.345 . S
C297 C298 1.424 . S
C298 H290 0.951 . S
C298 C297 1.424 . S
C298 C299 1.347 . S
C299 H291 0.951 . S
C299 C294 1.429 . S
C299 C298 1.347 . S
H300 C301 0.951 . S
C301 H300 0.951 . S
C301 C307 1.265 . S
H302 C307 0.950 . S
H303 C311 0.949 . S
H304 C312 0.950 . S
H305 C313 0.951 . S
H306 C314 0.951 . S
C307 C301 1.265 . S
C307 H302 0.950 . S
C307 C308 1.478 . S
C308 C307 1.478 . S
C308 C309 1.397 . S
C308 C325 1.394 . S
C309 C308 1.397 . S
C309 C310 1.438 . S
C309 C314 1.429 . S
C310 C309 1.438 . S
C310 C311 1.428 . S
C310 C323 1.394 . S
C311 H303 0.949 . S
C311 C310 1.428 . S
C311 C312 1.345 . S
C312 H304 0.950 . S
C312 C311 1.345 . S
C312 C313 1.424 . S
C313 H305 0.951 . S
C313 C312 1.424 . S
C313 C314 1.347 . S
C314 H306 0.951 . S
C314 C309 1.429 . S
C314 C313 1.347 . S
H315 C316 0.951 . S
C316 H315 0.951 . S
C316 C322 1.265 . S
H317 C322 0.950 . S
H318 C326 0.949 . S
H319 C327 0.950 . S
H320 C328 0.951 . S
H321 C329 0.951 . S
C322 C316 1.265 . S
C322 H317 0.950 . S
C322 C323 1.478 . S
C323 C310 1.394 . S
C323 C322 1.478 . S
C323 C324 1.397 . S
C324 C323 1.397 . S
C324 C325 1.438 . S
C324 C329 1.429 . S
C325 C308 1.394 . S
C325 C324 1.438 . S
C325 C326 1.428 . S
C326 H318 0.949 . S
C326 C325 1.428 . S
C326 C327 1.345 . S
C327 H319 0.950 . S
C327 C326 1.345 . S
C327 C328 1.424 . S
C328 H320 0.951 . S
C328 C327 1.424 . S
C328 C329 1.347 . S
C329 H321 0.951 . S
C329 C324 1.429 . S
C329 C328 1.347 . S
H330 C331 0.951 . S
C331 H330 0.951 . S
C331 C337 1.265 . S
H332 C337 0.950 . S
H333 C341 0.949 . S
H334 C342 0.950 . S
H335 C343 0.951 . S
H336 C344 0.951 . S
C337 C331 1.265 . S
C337 H332 0.950 . S
C337 C338 1.478 . S
C338 C337 1.478 . S
C338 C339 1.397 . S
C338 C355 1.394 . S
C339 C338 1.397 . S
C339 C340 1.438 . S
C339 C344 1.429 . S
C340 C339 1.438 . S
C340 C341 1.428 . S
C340 C353 1.394 . S
C341 H333 0.949 . S
C341 C340 1.428 . S
C341 C342 1.345 . S
C342 H334 0.950 . S
C342 C341 1.345 . S
C342 C343 1.424 . S
C343 H335 0.951 . S
C343 C342 1.424 . S
C343 C344 1.347 . S
C344 H336 0.951 . S
C344 C339 1.429 . S
C344 C343 1.347 . S
H345 C346 0.951 . S
C346 H345 0.951 . S
C346 C352 1.265 . S
H347 C352 0.950 . S
H348 C356 0.949 . S
H349 C357 0.950 . S
H350 C358 0.951 . S
H351 C359 0.951 . S
C352 C346 1.265 . S
C352 H347 0.950 . S
C352 C353 1.478 . S
C353 C340 1.394 . S
C353 C352 1.478 . S
C353 C354 1.397 . S
C354 C353 1.397 . S
C354 C355 1.438 . S
C354 C359 1.429 . S
C355 C338 1.394 . S
C355 C354 1.438 . S
C355 C356 1.428 . S
C356 H348 0.949 . S
C356 C355 1.428 . S
C356 C357 1.345 . S
C357 H349 0.950 . S
C357 C356 1.345 . S
C357 C358 1.424 . S
C358 H350 0.951 . S
C358 C357 1.424 . S
C358 C359 1.347 . S
C359 H351 0.951 . S
C359 C354 1.429 . S
C359 C358 1.347 . S
H360 C361 0.951 1_455 S
C361 H360 0.951 1_655 S
C361 C367 1.265 . S
H362 C367 0.950 . S
H363 C371 0.949 . S
H364 C372 0.950 . S
H365 C373 0.951 . S
H366 C374 0.951 . S
C367 C361 1.265 . S
C367 H362 0.950 . S
C367 C368 1.478 1_655 S
C368 C367 1.478 1_455 S
C368 C369 1.397 . S
C368 C385 1.394 . S
C369 C368 1.397 . S
C369 C370 1.438 . S
C369 C374 1.429 1_455 S
C370 C369 1.438 . S
C370 C371 1.428 . S
C370 C383 1.394 . S
C371 H363 0.949 . S
C371 C370 1.428 . S
C371 C372 1.345 . S
C372 H364 0.950 . S
C372 C371 1.345 . S
C372 C373 1.424 1_455 S
C373 H365 0.951 . S
C373 C372 1.424 1_655 S
C373 C374 1.347 . S
C374 H366 0.951 . S
C374 C369 1.429 1_655 S
C374 C373 1.347 . S
H375 C376 0.951 . S
C376 H375 0.951 . S
C376 C382 1.265 . S
H377 C382 0.950 . S
H378 C386 0.949 . S
H379 C387 0.950 . S
H380 C388 0.951 . S
H381 C389 0.951 . S
C382 C376 1.265 . S
C382 H377 0.950 . S
C382 C383 1.478 . S
C383 C370 1.394 . S
C383 C382 1.478 . S
C383 C384 1.397 . S
C384 C383 1.397 . S
C384 C385 1.438 . S
C384 C389 1.429 . S
C385 C368 1.394 . S
C385 C384 1.438 . S
C385 C386 1.428 . S
C386 H378 0.949 . S
C386 C385 1.428 . S
C386 C387 1.345 . S
C387 H379 0.950 . S
C387 C386 1.345 . S
C387 C388 1.424 . S
C388 H380 0.951 . S
C388 C387 1.424 . S
C388 C389 1.347 . S
C389 H381 0.951 . S
C389 C384 1.429 . S
C389 C388 1.347 . S
H390 C391 0.951 1_455 S
C391 H390 0.951 1_655 S
C391 C397 1.265 . S
H392 C397 0.950 . S
H393 C401 0.949 . S
H394 C402 0.950 . S
H395 C403 0.951 . S
H396 C404 0.951 . S
C397 C391 1.265 . S
C397 H392 0.950 . S
C397 C398 1.478 1_655 S
C398 C397 1.478 1_455 S
C398 C399 1.397 . S
C398 C415 1.394 . S
C399 C398 1.397 . S
C399 C400 1.438 . S
C399 C404 1.429 1_455 S
C400 C399 1.438 . S
C400 C401 1.428 . S
C400 C413 1.394 . S
C401 H393 0.949 . S
C401 C400 1.428 . S
C401 C402 1.345 . S
C402 H394 0.950 . S
C402 C401 1.345 . S
C402 C403 1.424 1_455 S
C403 H395 0.951 . S
C403 C402 1.424 1_655 S
C403 C404 1.347 . S
C404 H396 0.951 . S
C404 C399 1.429 1_655 S
C404 C403 1.347 . S
H405 C406 0.951 . S
C406 H405 0.951 . S
C406 C412 1.265 . S
H407 C412 0.950 . S
H408 C416 0.949 . S
H409 C417 0.950 . S
H410 C418 0.951 . S
H411 C419 0.951 . S
C412 C406 1.265 . S
C412 H407 0.950 . S
C412 C413 1.478 . S
C413 C400 1.394 . S
C413 C412 1.478 . S
C413 C414 1.397 . S
C414 C413 1.397 . S
C414 C415 1.438 . S
C414 C419 1.429 . S
C415 C398 1.394 . S
C415 C414 1.438 . S
C415 C416 1.428 . S
C416 H408 0.949 . S
C416 C415 1.428 . S
C416 C417 1.345 . S
C417 H409 0.950 . S
C417 C416 1.345 . S
C417 C418 1.424 . S
C418 H410 0.951 . S
C418 C417 1.424 . S
C418 C419 1.347 . S
C419 H411 0.951 . S
C419 C414 1.429 . S
C419 C418 1.347 . S
H420 C421 0.951 . S
C421 H420 0.951 . S
C421 C427 1.265 . S
H422 C427 0.950 . S
H423 C431 0.949 . S
H424 C432 0.950 . S
H425 C433 0.951 . S
H426 C434 0.951 . S
C427 C421 1.265 . S
C427 H422 0.950 . S
C427 C428 1.478 . S
C428 C427 1.478 . S
C428 C429 1.397 . S
C428 C445 1.394 . S
C429 C428 1.397 . S
C429 C430 1.438 . S
C429 C434 1.429 . S
C430 C429 1.438 . S
C430 C431 1.428 1_655 S
C430 C443 1.394 . S
C431 H423 0.949 . S
C431 C430 1.428 1_455 S
C431 C432 1.345 . S
C432 H424 0.950 . S
C432 C431 1.345 . S
C432 C433 1.424 . S
C433 H425 0.951 . S
C433 C432 1.424 . S
C433 C434 1.347 1_455 S
C434 H426 0.951 . S
C434 C429 1.429 . S
C434 C433 1.347 1_655 S
H435 C436 0.951 . S
C436 H435 0.951 . S
C436 C442 1.265 1_455 S
H437 C442 0.950 . S
H438 C446 0.949 . S
H439 C447 0.950 . S
H440 C448 0.951 . S
H441 C449 0.951 . S
C442 C436 1.265 1_655 S
C442 H437 0.950 . S
C442 C443 1.478 . S
C443 C430 1.394 . S
C443 C442 1.478 . S
C443 C444 1.397 . S
C444 C443 1.397 . S
C444 C445 1.438 . S
C444 C449 1.429 . S
C445 C428 1.394 . S
C445 C444 1.438 . S
C445 C446 1.428 . S
C446 H438 0.949 . S
C446 C445 1.428 . S
C446 C447 1.345 . S
C447 H439 0.950 . S
C447 C446 1.345 . S
C447 C448 1.424 . S
C448 H440 0.951 . S
C448 C447 1.424 . S
C448 C449 1.347 . S
C449 H441 0.951 . S
C449 C444 1.429 . S
C449 C448 1.347 . S
H450 C451 0.951 . S
C451 H450 0.951 . S
C451 C457 1.265 1_455 S
H452 C457 0.950 . S
H453 C461 0.949 . S
H454 C462 0.950 . S
H455 C463 0.951 . S
H456 C464 0.951 . S
C457 C451 1.265 1_655 S
C457 H452 0.950 . S
C457 C458 1.478 . S
C458 C457 1.478 . S
C458 C459 1.397 . S
C458 C475 1.394 . S
C459 C458 1.397 . S
C459 C460 1.438 . S
C459 C464 1.429 . S
C460 C459 1.438 . S
C460 C461 1.428 . S
C460 C473 1.394 . S
C461 H453 0.949 . S
C461 C460 1.428 . S
C461 C462 1.345 . S
C462 H454 0.950 . S
C462 C461 1.345 . S
C462 C463 1.424 . S
C463 H455 0.951 . S
C463 C462 1.424 . S
C463 C464 1.347 . S
C464 H456 0.951 . S
C464 C459 1.429 . S
C464 C463 1.347 . S
H465 C466 0.951 . S
C466 H465 0.951 . S
C466 C472 1.265 . S
H467 C472 0.950 . S
H468 C476 0.949 . S
H469 C477 0.950 . S
H470 C478 0.951 1_455 S
H471 C479 0.951 . S
C472 C466 1.265 . S
C472 H467 0.950 . S
C472 C473 1.478 . S
C473 C460 1.394 . S
C473 C472 1.478 . S
C473 C474 1.397 . S
C474 C473 1.397 . S
C474 C475 1.438 . S
C474 C479 1.429 . S
C475 C458 1.394 . S
C475 C474 1.438 . S
C475 C476 1.428 1_655 S
C476 H468 0.949 . S
C476 C475 1.428 1_455 S
C476 C477 1.345 . S
C477 H469 0.950 . S
C477 C476 1.345 . S
C477 C478 1.424 1_455 S
C478 H470 0.951 1_655 S
C478 C477 1.424 1_655 S
C478 C479 1.347 . S
C479 H471 0.951 . S
C479 C474 1.429 . S
C479 C478 1.347 . S
C121 C31 1.622 1_556 S
C136 C10 1.622 1_554 S
C151 C70 1.620 . S
C166 C91 1.620 . S
C181 C1 1.666 1_556 S
C196 C40 1.666 1_554 S
C211 C100 1.619 . S
C226 C61 1.619 . S
C241 C117 0.933 . S
C256 N14 0.931 . S
C271 C57 0.924 . S
C286 N74 0.953 . S
C301 N36 1.015 . S
C316 C76 0.939 . S
C331 N96 0.959 . S
C346 C16 0.926 . S
C361 N44 0.922 . S
C376 C87 0.994 . S
C391 N104 0.921 . S
C406 C27 0.994 . S
C421 C106 0.923 . S
C436 N6 0.962 . S
C451 N66 0.938 . S
C466 C46 0.933 . S
