# Generated by pormake.
# Topology pcb, (4)-cn, num edge types: 1
# Building blocks:
#     Node 0, Type 0, BuildingBlock: KUFVIS_clean_sbu_0, # of connection points: 4
#     Node 1, Type 0, BuildingBlock: KUFVIS_clean_sbu_0, # of connection points: 4
#     Node 2, Type 0, BuildingBlock: KUFVIS_clean_sbu_0, # of connection points: 4
#     Node 3, Type 0, BuildingBlock: KUFVIS_clean_sbu_0, # of connection points: 4
#     Node 4, Type 0, BuildingBlock: KUFVIS_clean_sbu_0, # of connection points: 4
#     Node 5, Type 0, BuildingBlock: KUFVIS_clean_sbu_0, # of connection points: 4
#     Node 6, Type 0, BuildingBlock: KUFVIS_clean_sbu_0, # of connection points: 4
#     Node 7, Type 0, BuildingBlock: KUFVIS_clean_sbu_0, # of connection points: 4
#     Node 8, Type 0, BuildingBlock: KUFVIS_clean_sbu_0, # of connection points: 4
#     Node 9, Type 0, BuildingBlock: KUFVIS_clean_sbu_0, # of connection points: 4
#     Node 10, Type 0, BuildingBlock: KUFVIS_clean_sbu_0, # of connection points: 4
#     Node 11, Type 0, BuildingBlock: KUFVIS_clean_sbu_0, # of connection points: 4
#     Node 12, Type 0, BuildingBlock: KUFVIS_clean_sbu_0, # of connection points: 4
#     Node 13, Type 0, BuildingBlock: KUFVIS_clean_sbu_0, # of connection points: 4
#     Node 14, Type 0, BuildingBlock: KUFVIS_clean_sbu_0, # of connection points: 4
#     Node 15, Type 0, BuildingBlock: KUFVIS_clean_sbu_0, # of connection points: 4
#     Edge 16, Type (0, 0), BuildingBlock: EZIPEK_clean_linker_0, # of connection points: 2
#     Edge 17, Type (0, 0), BuildingBlock: EZIPEK_clean_linker_0, # of connection points: 2
#     Edge 18, Type (0, 0), BuildingBlock: EZIPEK_clean_linker_0, # of connection points: 2
#     Edge 19, Type (0, 0), BuildingBlock: EZIPEK_clean_linker_0, # of connection points: 2
#     Edge 20, Type (0, 0), BuildingBlock: EZIPEK_clean_linker_0, # of connection points: 2
#     Edge 21, Type (0, 0), BuildingBlock: EZIPEK_clean_linker_0, # of connection points: 2
#     Edge 22, Type (0, 0), BuildingBlock: EZIPEK_clean_linker_0, # of connection points: 2
#     Edge 23, Type (0, 0), BuildingBlock: EZIPEK_clean_linker_0, # of connection points: 2
#     Edge 24, Type (0, 0), BuildingBlock: EZIPEK_clean_linker_0, # of connection points: 2
#     Edge 25, Type (0, 0), BuildingBlock: EZIPEK_clean_linker_0, # of connection points: 2
#     Edge 26, Type (0, 0), BuildingBlock: EZIPEK_clean_linker_0, # of connection points: 2
#     Edge 27, Type (0, 0), BuildingBlock: EZIPEK_clean_linker_0, # of connection points: 2
#     Edge 28, Type (0, 0), BuildingBlock: EZIPEK_clean_linker_0, # of connection points: 2
#     Edge 29, Type (0, 0), BuildingBlock: EZIPEK_clean_linker_0, # of connection points: 2
#     Edge 30, Type (0, 0), BuildingBlock: EZIPEK_clean_linker_0, # of connection points: 2
#     Edge 31, Type (0, 0), BuildingBlock: EZIPEK_clean_linker_0, # of connection points: 2
#     Edge 32, Type (0, 0), BuildingBlock: EZIPEK_clean_linker_0, # of connection points: 2
#     Edge 33, Type (0, 0), BuildingBlock: EZIPEK_clean_linker_0, # of connection points: 2
#     Edge 34, Type (0, 0), BuildingBlock: EZIPEK_clean_linker_0, # of connection points: 2
#     Edge 35, Type (0, 0), BuildingBlock: EZIPEK_clean_linker_0, # of connection points: 2
#     Edge 36, Type (0, 0), BuildingBlock: EZIPEK_clean_linker_0, # of connection points: 2
#     Edge 37, Type (0, 0), BuildingBlock: EZIPEK_clean_linker_0, # of connection points: 2
#     Edge 38, Type (0, 0), BuildingBlock: EZIPEK_clean_linker_0, # of connection points: 2
#     Edge 39, Type (0, 0), BuildingBlock: EZIPEK_clean_linker_0, # of connection points: 2
#     Edge 40, Type (0, 0), BuildingBlock: EZIPEK_clean_linker_0, # of connection points: 2
#     Edge 41, Type (0, 0), BuildingBlock: EZIPEK_clean_linker_0, # of connection points: 2
#     Edge 42, Type (0, 0), BuildingBlock: EZIPEK_clean_linker_0, # of connection points: 2
#     Edge 43, Type (0, 0), BuildingBlock: EZIPEK_clean_linker_0, # of connection points: 2
#     Edge 44, Type (0, 0), BuildingBlock: EZIPEK_clean_linker_0, # of connection points: 2
#     Edge 45, Type (0, 0), BuildingBlock: EZIPEK_clean_linker_0, # of connection points: 2
#     Edge 46, Type (0, 0), BuildingBlock: EZIPEK_clean_linker_0, # of connection points: 2
#     Edge 47, Type (0, 0), BuildingBlock: EZIPEK_clean_linker_0, # of connection points: 2
# Relax obj value: 0.288
# Max RMSD: 0.151
# Mean RMSD: 0.151
data_MOF--net-pcb--node1-KUFVIS_clean_sbu_0--edge1-EZIPEK_clean_linker_0
_symmetry_space_group_name_H-M    P1
_symmetry_Int_Tables_number       1
_symmetry_cell_setting            triclinic
loop_
_symmetry_equiv_pos_as_xyz
'x, y, z'
_cell_length_a     28.509767
_cell_length_b     35.284581
_cell_length_c     35.41589
_cell_angle_alpha  90.07747
_cell_angle_beta   89.910014
_cell_angle_gamma 90.020652
loop_
_atom_site_label
_atom_site_type_symbol
_atom_site_fract_x
_atom_site_fract_y
_atom_site_fract_z
_atom_type_partial_charge
Mn0 Mn 0.18488 0.17135 0.15181 0.0
Mn1 Mn 0.14533 0.25446 0.1219 0.0
C2 C 0.11206 0.19028 0.17551 0.0
C3 C 0.19769 0.10544 0.15293 0.0
C4 C 0.23415 0.24541 0.16584 0.0
O5 O 0.21309 0.17774 0.09822 0.0
O6 O 0.17019 0.22745 0.07687 0.0
C7 C 0.07329 0.25243 0.06338 0.0
N8 N 0.08587 0.26131 0.09934 0.0
C9 C 0.01897 0.30227 0.10681 0.0
C10 C 0.00485 0.29286 0.07024 0.0
C11 C 0.03195 0.26747 0.04857 0.0
C12 C 0.0606 0.28633 0.12012 0.0
H13 H 0.09473 0.23409 0.04608 0.0
C14 C 0.19627 0.19826 0.07135 0.0
O15 O 0.22834 0.12926 0.16538 0.0
O16 O 0.1603 0.11976 0.13761 0.0
N17 N 0.11935 0.28045 0.16479 0.0
C18 C 0.13727 0.28556 0.20011 0.0
C19 C 0.11309 0.3083 0.22624 0.0
C20 C 0.07075 0.32564 0.21583 0.0
C21 C 0.05245 0.31926 0.17969 0.0
C22 C 0.07764 0.29557 0.15521 0.0
H23 H 0.16944 0.27227 0.20864 0.0
O24 O 0.14189 0.17175 0.19615 0.0
O25 O 0.12892 0.20287 0.14334 0.0
O26 O 0.22427 0.2126 0.1773 0.0
O27 O 0.20907 0.26051 0.14098 0.0
C28 C 0.01015 0.33539 0.16698 0.0
C29 C 0.99362 0.32716 0.13037 0.0
H30 H 0.97356 0.30563 0.05875 0.0
H31 H 0.022 0.25962 0.02029 0.0
H32 H 0.12721 0.31262 0.25427 0.0
H33 H 0.05241 0.34349 0.23591 0.0
H34 H 0.99006 0.35407 0.18511 0.0
H35 H 0.96117 0.33983 0.12075 0.0
Mn36 Mn 0.83233 0.14791 0.17158 0.0
Mn37 Mn 0.87892 0.11437 0.25286 0.0
C38 C 0.90979 0.16347 0.18778 0.0
C39 C 0.81382 0.14645 0.10641 0.0
C40 C 0.80136 0.17294 0.24922 0.0
O41 O 0.7924 0.10119 0.18486 0.0
O42 O 0.83751 0.07456 0.2302 0.0
C43 C 0.9338 0.04445 0.24301 0.0
N44 N 0.93301 0.08254 0.24923 0.0
C45 C 0.01359 0.08164 0.26999 0.0
C46 C 0.01559 0.04282 0.26232 0.0
C47 C 0.97507 0.02406 0.25012 0.0
C48 C 0.97074 0.10026 0.26443 0.0
H49 H 0.90256 0.02941 0.23446 0.0
C50 C 0.80578 0.07247 0.20433 0.0
O51 O 0.78935 0.16542 0.13064 0.0
O52 O 0.84784 0.12614 0.12027 0.0
N53 N 0.9211 0.15165 0.27332 0.0
C54 C 0.91222 0.18809 0.28397 0.0
C55 C 0.94877 0.21094 0.29759 0.0
C56 C 0.99411 0.19596 0.3009 0.0
C57 C 0.00242 0.15826 0.29046 0.0
C58 C 0.96477 0.13714 0.27609 0.0
H59 H 0.87763 0.19975 0.28224 0.0
O60 O 0.88525 0.18472 0.16523 0.0
O61 O 0.88761 0.13433 0.20124 0.0
O62 O 0.80378 0.17952 0.21414 0.0
O63 O 0.82394 0.14624 0.26486 0.0
C64 C 0.04652 0.14071 0.29413 0.0
C65 C 0.0519 0.10221 0.2845 0.0
H66 H 0.04739 0.02681 0.26736 0.0
H67 H 0.97521 0.99375 0.24796 0.0
H68 H 0.94187 0.23997 0.30582 0.0
H69 H 0.02216 0.21353 0.31182 0.0
H70 H 0.07623 0.15631 0.30515 0.0
H71 H 0.08557 0.08861 0.28859 0.0
Mn72 Mn 0.82176 0.84818 0.15976 0.0
Mn73 Mn 0.87514 0.77627 0.11257 0.0
C74 C 0.8989 0.8293 0.17471 0.0
C75 C 0.80387 0.91302 0.16935 0.0
C76 C 0.79758 0.76409 0.1697 0.0
O77 O 0.78401 0.84448 0.10994 0.0
O78 O 0.82774 0.80039 0.08001 0.0
C79 C 0.92395 0.82774 0.06053 0.0
N80 N 0.92543 0.79735 0.08406 0.0
C81 C 0.0097 0.79526 0.08113 0.0
C82 C 0.00903 0.82641 0.05672 0.0
C83 C 0.96598 0.84327 0.04716 0.0
C84 C 0.96675 0.78235 0.0953 0.0
H85 H 0.89107 0.84125 0.05368 0.0
C86 C 0.79446 0.82474 0.08056 0.0
O87 O 0.77762 0.88629 0.18288 0.0
O88 O 0.83892 0.90228 0.14868 0.0
N89 N 0.92284 0.75044 0.14053 0.0
C90 C 0.91776 0.72492 0.16911 0.0
C91 C 0.95742 0.70615 0.18328 0.0
C92 C 0.00184 0.71358 0.16778 0.0
C93 C 0.00614 0.73956 0.13807 0.0
C94 C 0.96518 0.75664 0.12447 0.0
H95 H 0.88372 0.71872 0.18091 0.0
O96 O 0.87344 0.84735 0.19926 0.0
O97 O 0.87762 0.82181 0.14353 0.0
O98 O 0.79345 0.79869 0.17965 0.0
O99 O 0.82481 0.75271 0.14331 0.0
C100 C 0.0496 0.75014 0.12225 0.0
C101 C 0.05145 0.77848 0.09424 0.0
H102 H 0.04156 0.83871 0.04675 0.0
H103 H 0.96497 0.86869 0.0302 0.0
H104 H 0.95377 0.68611 0.2062 0.0
H105 H 0.03246 0.69957 0.17924 0.0
H106 H 0.08193 0.73778 0.1325 0.0
H107 H 0.0852 0.78787 0.08371 0.0
Mn108 Mn 0.17818 0.86405 0.16233 0.0
Mn109 Mn 0.11404 0.90763 0.23061 0.0
C110 C 0.10228 0.84234 0.17822 0.0
C111 C 0.20331 0.85801 0.09908 0.0
C112 C 0.19685 0.85575 0.24724 0.0
O113 O 0.20873 0.91669 0.16674 0.0
O114 O 0.15826 0.94405 0.20775 0.0
C115 C 0.06193 0.95978 0.1802 0.0
N116 N 0.06187 0.93265 0.20755 0.0
C117 C 0.9775 0.93162 0.20897 0.0
C118 C 0.97669 0.95926 0.18053 0.0
C119 C 0.01913 0.97343 0.16615 0.0
C120 C 0.02124 0.91854 0.22128 0.0
H121 H 0.09437 0.97069 0.1689 0.0
C122 C 0.19204 0.94562 0.18407 0.0
O123 O 0.22859 0.84584 0.12689 0.0
O124 O 0.16414 0.87434 0.10799 0.0
N125 N 0.06808 0.87623 0.25466 0.0
C126 C 0.07473 0.84816 0.28052 0.0
C127 C 0.03582 0.8322 0.29893 0.0
C128 C 0.99052 0.84561 0.29105 0.0
C129 C 0.98449 0.87463 0.2645 0.0
C130 C 0.0246 0.88958 0.24718 0.0
H131 H 0.10944 0.83828 0.28745 0.0
O132 O 0.13176 0.82012 0.161 0.0
O133 O 0.11854 0.87561 0.18577 0.0
O134 O 0.20506 0.84641 0.21305 0.0
O135 O 0.16617 0.88053 0.25681 0.0
C136 C 0.94021 0.88897 0.25421 0.0
C137 C 0.93665 0.91699 0.22598 0.0
H138 H 0.94371 0.97012 0.16993 0.0
H139 H 0.01885 0.9949 0.14436 0.0
H140 H 0.04076 0.80977 0.31935 0.0
H141 H 0.96058 0.83313 0.30521 0.0
H142 H 0.90858 0.878 0.26719 0.0
H143 H 0.90237 0.92711 0.21756 0.0
Mn144 Mn 0.17849 0.85055 0.86035 0.0
Mn145 Mn 0.12574 0.77918 0.90852 0.0
C146 C 0.10232 0.83017 0.84482 0.0
C147 C 0.19505 0.91549 0.8493 0.0
C148 C 0.20857 0.76716 0.85593 0.0
O149 O 0.21379 0.8492 0.91136 0.0
O150 O 0.1682 0.80683 0.94263 0.0
C151 C 0.06871 0.82904 0.95672 0.0
N152 N 0.07164 0.79832 0.93365 0.0
C153 C 0.98782 0.79052 0.9337 0.0
C154 C 0.98397 0.82176 0.95794 0.0
C155 C 0.02455 0.84187 0.96831 0.0
C156 C 0.0327 0.78039 0.92121 0.0
H157 H 0.0997 0.84482 0.9645 0.0
C158 C 0.20061 0.8319 0.94157 0.0
O159 O 0.22259 0.88895 0.83712 0.0
O160 O 0.15973 0.90454 0.86946 0.0
N161 N 0.08248 0.75058 0.87848 0.0
C162 C 0.09154 0.72613 0.84956 0.0
C163 C 0.05462 0.70522 0.83359 0.0
C164 C 0.00875 0.70973 0.8474 0.0
C165 C 0.00023 0.73507 0.87714 0.0
C166 C 0.03861 0.75444 0.89253 0.0
H167 H 0.12656 0.72273 0.83859 0.0
O168 O 0.12791 0.84771 0.81998 0.0
O169 O 0.12323 0.82367 0.87628 0.0
O170 O 0.20875 0.80091 0.84295 0.0
O171 O 0.18056 0.75678 0.88207 0.0
C172 C 0.95497 0.7429 0.8912 0.0
C173 C 0.9487 0.77098 0.91915 0.0
H174 H 0.94984 0.83181 0.96693 0.0
H175 H 0.02199 0.86774 0.98451 0.0
H176 H 0.06145 0.68592 0.81046 0.0
H177 H 0.98024 0.69409 0.83452 0.0
H178 H 0.92458 0.72859 0.87965 0.0
H179 H 0.91356 0.77815 0.92839 0.0
Mn180 Mn 0.16113 0.15325 0.84772 0.0
Mn181 Mn 0.10587 0.12097 0.76892 0.0
C182 C 0.08457 0.17262 0.83367 0.0
C183 C 0.1815 0.15607 0.91248 0.0
C184 C 0.18907 0.17439 0.7675 0.0
O185 O 0.19337 0.10217 0.83647 0.0
O186 O 0.14707 0.07968 0.78898 0.0
C187 C 0.04744 0.05373 0.78415 0.0
N188 N 0.05025 0.09162 0.77713 0.0
C189 C 0.96768 0.09416 0.76229 0.0
C190 C 0.96391 0.0555 0.77028 0.0
C191 C 0.00415 0.03513 0.78025 0.0
C192 C 0.01218 0.1109 0.76465 0.0
H193 H 0.07838 0.03744 0.79087 0.0
C194 C 0.17851 0.07531 0.8148 0.0
O195 O 0.20838 0.16923 0.88623 0.0
O196 O 0.14438 0.13791 0.90106 0.0
N197 N 0.0641 0.1597 0.75097 0.0
C198 C 0.07435 0.19539 0.73882 0.0
C199 C 0.03802 0.2198 0.72783 0.0
C200 C 0.99143 0.20707 0.72861 0.0
C201 C 0.98168 0.17 0.74037 0.0
C202 C 0.01931 0.14732 0.75207 0.0
H203 H 0.10991 0.20523 0.73734 0.0
O204 O 0.11256 0.19428 0.85312 0.0
O205 O 0.10373 0.14217 0.82038 0.0
O206 O 0.19184 0.17967 0.80279 0.0
O207 O 0.16109 0.15063 0.75278 0.0
C208 C 0.93616 0.15452 0.74041 0.0
C209 C 0.92928 0.11637 0.7507 0.0
H210 H 0.9306 0.04092 0.76773 0.0
H211 H 0.00189 1.00494 0.78332 0.0
H212 H 0.04599 0.24826 0.71843 0.0
H213 H 0.96349 0.22581 0.71966 0.0
H214 H 0.9064 0.17138 0.73158 0.0
H215 H 0.89439 0.10429 0.74929 0.0
Mn216 Mn 0.80741 0.16555 0.87306 0.0
Mn217 Mn 0.83832 0.25054 0.90525 0.0
C218 C 0.88251 0.18676 0.85581 0.0
C219 C 0.79563 0.09959 0.87273 0.0
C220 C 0.76134 0.23842 0.84951 0.0
O221 O 0.76956 0.17236 0.92228 0.0
O222 O 0.80763 0.22251 0.94724 0.0
C223 C 0.89715 0.25262 0.9727 0.0
N224 N 0.89183 0.26033 0.93535 0.0
C225 C 0.95505 0.30563 0.93695 0.0
C226 C 0.96151 0.29759 0.9752 0.0
C227 C 0.93242 0.27079 0.99306 0.0
C228 C 0.91838 0.28723 0.91829 0.0
H229 H 0.8738 0.23365 0.9873 0.0
C230 C 0.78365 0.19191 0.95071 0.0
O231 O 0.7678 0.12271 0.85576 0.0
O232 O 0.82974 0.1146 0.89202 0.0
N233 N 0.87125 0.2772 0.86611 0.0
C234 C 0.86306 0.27865 0.82827 0.0
C235 C 0.8909 0.302 0.80528 0.0
C236 C 0.92754 0.32312 0.82135 0.0
C237 C 0.93702 0.31947 0.85999 0.0
C238 C 0.90842 0.29523 0.88122 0.0
H239 H 0.83658 0.26135 0.81556 0.0
O240 O 0.85704 0.16578 0.83368 0.0
O241 O 0.86094 0.19925 0.88624 0.0
O242 O 0.77201 0.20477 0.84177 0.0
O243 O 0.77882 0.2545 0.87787 0.0
C244 C 0.97447 0.3381 0.87811 0.0
C245 C 0.98313 0.33153 0.91675 0.0
H246 H 0.98836 0.31234 0.99097 0.0
H247 H 0.93599 0.26425 0.02262 0.0
H248 H 0.8843 0.30351 0.77523 0.0
H249 H 0.94897 0.34116 0.80359 0.0
H250 H 0.997 0.35727 0.86256 0.0
H251 H 0.01185 0.3461 0.93052 0.0
Mn252 Mn 0.82276 0.86102 0.86088 0.0
Mn253 Mn 0.88374 0.90741 0.79288 0.0
C254 C 0.89894 0.84154 0.84336 0.0
C255 C 0.7996 0.85317 0.92439 0.0
C256 C 0.80424 0.85236 0.77573 0.0
O257 O 0.78872 0.91239 0.85756 0.0
O258 O 0.83581 0.9409 0.81542 0.0
C259 C 0.93021 0.96155 0.84493 0.0
N260 N 0.93318 0.93515 0.81689 0.0
C261 C 0.01751 0.93872 0.81684 0.0
C262 C 0.01536 0.96569 0.84594 0.0
C263 C 0.97149 0.97718 0.85999 0.0
C264 C 0.97522 0.92352 0.80356 0.0
H265 H 0.89664 0.97022 0.85612 0.0
C266 C 0.80167 0.94163 0.8389 0.0
O267 O 0.77437 0.84059 0.89666 0.0
O268 O 0.83781 0.8709 0.91537 0.0
N269 N 0.93277 0.87907 0.76897 0.0
C270 C 0.92903 0.85096 0.7427 0.0
C271 C 0.96964 0.8372 0.72487 0.0
C272 C 0.01358 0.85276 0.73384 0.0
C273 C 0.01659 0.88183 0.76075 0.0
C274 C 0.97488 0.89464 0.77734 0.0
H275 H 0.89534 0.83924 0.73521 0.0
O276 O 0.87082 0.81832 0.86066 0.0
O277 O 0.8814 0.87463 0.83699 0.0
O278 O 0.79566 0.84342 0.81001 0.0
O279 O 0.83448 0.87749 0.76613 0.0
C280 C 0.05937 0.89829 0.77207 0.0
C281 C 0.05992 0.92626 0.80057 0.0
H282 H 0.04711 0.97803 0.85739 0.0
H283 H 0.96949 0.99808 0.88231 0.0
H284 H 0.96705 0.8147 0.70418 0.0
H285 H 0.04485 0.84189 0.7202 0.0
H286 H 0.09216 0.88903 0.75963 0.0
H287 H 0.09314 0.93793 0.80982 0.0
Mn288 Mn 0.68434 0.67222 0.65567 0.0
Mn289 Mn 0.62807 0.74533 0.61316 0.0
C290 C 0.6083 0.69054 0.6748 0.0
C291 C 0.70402 0.60708 0.66201 0.0
C292 C 0.71198 0.75625 0.66509 0.0
O293 O 0.71738 0.67678 0.60376 0.0
O294 O 0.67065 0.72083 0.57661 0.0
C295 C 0.57251 0.69664 0.56283 0.0
N296 N 0.57444 0.72606 0.58759 0.0
C297 C 0.4904 0.7315 0.58869 0.0
C298 C 0.48754 0.70171 0.56256 0.0
C299 C 0.52883 0.68344 0.55064 0.0
C300 C 0.53497 0.74209 0.60141 0.0
H301 H 0.60398 0.68215 0.5539 0.0
C302 C 0.70285 0.69567 0.575 0.0
O303 O 0.73085 0.63367 0.67502 0.0
O304 O 0.66701 0.61819 0.64407 0.0
N305 N 0.58414 0.77117 0.64506 0.0
C306 C 0.59271 0.79507 0.67451 0.0
C307 C 0.5552 0.81437 0.69164 0.0
C308 C 0.50931 0.80902 0.67827 0.0
C309 C 0.50134 0.7845 0.64776 0.0
C310 C 0.54023 0.76671 0.6313 0.0
H311 H 0.62784 0.7994 0.6849 0.0
O312 O 0.63537 0.67186 0.69767 0.0
O313 O 0.62753 0.69894 0.64299 0.0
O314 O 0.71402 0.72153 0.67519 0.0
O315 O 0.68238 0.7677 0.64057 0.0
C316 C 0.45624 0.77613 0.63375 0.0
C317 C 0.45072 0.74925 0.60455 0.0
H318 H 0.45378 0.69138 0.55304 0.0
H319 H 0.52736 0.65856 0.53293 0.0
H320 H 0.56162 0.83318 0.71523 0.0
H321 H 0.48039 0.82347 0.69196 0.0
H322 H 0.42546 0.78918 0.64615 0.0
H323 H 0.41578 0.74172 0.59519 0.0
Mn324 Mn 0.32731 0.66077 0.666 0.0
Mn325 Mn 0.387 0.61649 0.73569 0.0
C326 C 0.40427 0.68026 0.68255 0.0
C327 C 0.3048 0.66571 0.60174 0.0
C328 C 0.30719 0.67145 0.75032 0.0
O329 O 0.29186 0.61006 0.67242 0.0
O330 O 0.34042 0.58155 0.71335 0.0
C331 C 0.43597 0.56775 0.68133 0.0
N332 N 0.43758 0.58985 0.71276 0.0
C333 C 0.5219 0.58854 0.71331 0.0
C334 C 0.52112 0.5649 0.6815 0.0
C335 C 0.47794 0.55581 0.66461 0.0
C336 C 0.4789 0.60171 0.72718 0.0
H337 H 0.40294 0.5611 0.66797 0.0
C338 C 0.3052 0.58087 0.69101 0.0
O339 O 0.27929 0.67956 0.62877 0.0
O340 O 0.34245 0.64813 0.61217 0.0
N341 N 0.43446 0.64598 0.76019 0.0
C342 C 0.4292 0.67436 0.786 0.0
C343 C 0.46889 0.68908 0.80432 0.0
C344 C 0.51352 0.67429 0.79619 0.0
C345 C 0.51805 0.64484 0.76984 0.0
C346 C 0.47711 0.6307 0.75319 0.0
H347 H 0.39499 0.68557 0.79275 0.0
O348 O 0.37662 0.70282 0.66403 0.0
O349 O 0.38559 0.648 0.69071 0.0
O350 O 0.30058 0.68084 0.71592 0.0
O351 O 0.33616 0.6458 0.76081 0.0
C352 C 0.56166 0.62971 0.75858 0.0
C353 C 0.56365 0.60203 0.72981 0.0
H354 H 0.55351 0.55537 0.66857 0.0
H355 H 0.47673 0.54034 0.63829 0.0
H356 H 0.4651 0.71184 0.82461 0.0
H357 H 0.54413 0.68614 0.80993 0.0
H358 H 0.59396 0.64029 0.77072 0.0
H359 H 0.59746 0.59217 0.71984 0.0
Mn360 Mn 0.31683 0.35824 0.65944 0.0
Mn361 Mn 0.371 0.28693 0.61257 0.0
C362 C 0.39302 0.33885 0.67634 0.0
C363 C 0.2965 0.42251 0.66771 0.0
C364 C 0.28823 0.2748 0.66539 0.0
O365 O 0.28175 0.35541 0.60844 0.0
O366 O 0.32888 0.31399 0.57767 0.0
C367 C 0.42787 0.33675 0.56437 0.0
N368 N 0.42509 0.30622 0.58762 0.0
C369 C 0.50893 0.29891 0.58789 0.0
C370 C 0.51264 0.32988 0.56335 0.0
C371 C 0.47193 0.34963 0.55266 0.0
C372 C 0.46409 0.28869 0.60035 0.0
H373 H 0.39682 0.3523 0.55639 0.0
C374 C 0.29615 0.33875 0.57828 0.0
O375 O 0.27075 0.39546 0.68111 0.0
O376 O 0.33348 0.41253 0.64896 0.0
N377 N 0.41426 0.25884 0.64299 0.0
C378 C 0.40514 0.23414 0.67162 0.0
C379 C 0.44213 0.21347 0.68773 0.0
C380 C 0.48809 0.21835 0.67424 0.0
C381 C 0.49663 0.24377 0.64463 0.0
C382 C 0.45821 0.26293 0.62913 0.0
H383 H 0.37 0.23026 0.68221 0.0
O384 O 0.3669 0.35711 0.70035 0.0
O385 O 0.37297 0.33188 0.64452 0.0
O386 O 0.28801 0.30866 0.67801 0.0
O387 O 0.31609 0.2644 0.63908 0.0
C388 C 0.5419 0.25175 0.63068 0.0
C389 C 0.54812 0.27968 0.60264 0.0
H390 H 0.54672 0.33999 0.55429 0.0
H391 H 0.47423 0.37528 0.53617 0.0
H392 H 0.43526 0.194 0.71067 0.0
H393 H 0.51663 0.20285 0.68718 0.0
H394 H 0.57233 0.23761 0.64232 0.0
H395 H 0.58325 0.28691 0.59342 0.0
Mn396 Mn 0.67293 0.36655 0.6651 0.0
Mn397 Mn 0.61284 0.4103 0.73529 0.0
C398 C 0.59643 0.3473 0.68123 0.0
C399 C 0.69844 0.35951 0.60221 0.0
C400 C 0.69239 0.3549 0.74962 0.0
O401 O 0.70727 0.41785 0.67096 0.0
O402 O 0.65902 0.44581 0.7132 0.0
C403 C 0.56386 0.46018 0.68211 0.0
N404 N 0.56235 0.43749 0.71308 0.0
C405 C 0.47811 0.44 0.71489 0.0
C406 C 0.47884 0.46437 0.68369 0.0
C407 C 0.52189 0.47308 0.66632 0.0
C408 C 0.52105 0.42589 0.72778 0.0
H409 H 0.59673 0.46665 0.66839 0.0
C410 C 0.69273 0.44695 0.68939 0.0
O411 O 0.72223 0.34622 0.6303 0.0
O412 O 0.66045 0.37801 0.61041 0.0
N413 N 0.56517 0.38046 0.75925 0.0
C414 C 0.57016 0.35131 0.78413 0.0
C415 C 0.53045 0.33666 0.80255 0.0
C416 C 0.48602 0.35225 0.79542 0.0
C417 C 0.48172 0.38237 0.76989 0.0
C418 C 0.52269 0.39635 0.75309 0.0
H419 H 0.60409 0.33921 0.78988 0.0
O420 O 0.62421 0.32448 0.66301 0.0
O421 O 0.61445 0.37986 0.6892 0.0
O422 O 0.69776 0.34642 0.71495 0.0
O423 O 0.66335 0.38041 0.76028 0.0
C424 C 0.43826 0.39838 0.75966 0.0
C425 C 0.43639 0.42674 0.73165 0.0
H426 H 0.44643 0.47464 0.67149 0.0
H427 H 0.523 0.48894 0.64028 0.0
H428 H 0.53406 0.31329 0.82209 0.0
H429 H 0.45539 0.34047 0.80921 0.0
H430 H 0.40595 0.38799 0.77201 0.0
H431 H 0.40266 0.43732 0.72239 0.0
Mn432 Mn 0.67896 0.35463 0.36704 0.0
Mn433 Mn 0.62341 0.28191 0.40994 0.0
C434 C 0.60251 0.33724 0.34906 0.0
C435 C 0.69861 0.41945 0.36247 0.0
C436 C 0.70487 0.27112 0.35539 0.0
O437 O 0.71496 0.34841 0.41715 0.0
O438 O 0.66835 0.30541 0.44528 0.0
C439 C 0.57113 0.33202 0.46099 0.0
N440 N 0.5713 0.30192 0.43701 0.0
C441 C 0.48703 0.29899 0.43709 0.0
C442 C 0.48599 0.32957 0.46234 0.0
C443 C 0.52828 0.34693 0.47323 0.0
C444 C 0.53086 0.28683 0.42401 0.0
H445 H 0.60341 0.3459 0.46895 0.0
C446 C 0.70236 0.32911 0.44608 0.0
O447 O 0.72514 0.39332 0.34809 0.0
O448 O 0.66206 0.40779 0.38075 0.0
N449 N 0.57765 0.25665 0.37936 0.0
C450 C 0.58456 0.23227 0.35001 0.0
C451 C 0.54595 0.21354 0.33392 0.0
C452 C 0.50065 0.22003 0.34817 0.0
C453 C 0.49441 0.245 0.37859 0.0
C454 C 0.53438 0.26196 0.39416 0.0
H455 H 0.61918 0.22723 0.33881 0.0
O456 O 0.62902 0.35642 0.32613 0.0
O457 O 0.62242 0.32822 0.3804 0.0
O458 O 0.70699 0.30587 0.34557 0.0
O459 O 0.67616 0.25951 0.38062 0.0
C460 C 0.45001 0.2547 0.39326 0.0
C461 C 0.44627 0.28216 0.4221 0.0
H462 H 0.45287 0.34125 0.47183 0.0
H463 H 0.5282 0.37239 0.49016 0.0
H464 H 0.55106 0.1944 0.31038 0.0
H465 H 0.47086 0.20614 0.33519 0.0
H466 H 0.41843 0.24237 0.38151 0.0
H467 H 0.41186 0.29091 0.43178 0.0
Mn468 Mn 0.67378 0.66089 0.35277 0.0
Mn469 Mn 0.61208 0.61438 0.28545 0.0
C470 C 0.59784 0.68118 0.33561 0.0
C471 C 0.69856 0.66895 0.41607 0.0
C472 C 0.69709 0.66328 0.26837 0.0
O473 O 0.70552 0.60848 0.34954 0.0
O474 O 0.65407 0.57837 0.31126 0.0
C475 C 0.5557 0.57071 0.33957 0.0
N476 N 0.55801 0.59206 0.30773 0.0
C477 C 0.474 0.59372 0.30249 0.0
C478 C 0.47071 0.57071 0.33461 0.0
C479 C 0.51177 0.56076 0.35416 0.0
C480 C 0.51878 0.60491 0.29072 0.0
H481 H 0.58712 0.56303 0.3547 0.0
C482 C 0.68896 0.57852 0.33386 0.0
O483 O 0.72364 0.68076 0.38792 0.0
O484 O 0.65974 0.65193 0.40752 0.0
N485 N 0.56873 0.64564 0.25839 0.0
C486 C 0.57769 0.6738 0.23312 0.0
C487 C 0.54044 0.69015 0.21299 0.0
C488 C 0.49435 0.67741 0.21906 0.0
C489 C 0.48591 0.6485 0.24532 0.0
C490 C 0.52456 0.63276 0.26394 0.0
H491 H 0.61289 0.68393 0.22854 0.0
O492 O 0.62649 0.70427 0.35257 0.0
O493 O 0.61509 0.64805 0.32908 0.0
O494 O 0.70074 0.67678 0.3017 0.0
O495 O 0.66688 0.63796 0.25988 0.0
C496 C 0.44058 0.63554 0.25469 0.0
C497 C 0.4346 0.60847 0.2836 0.0
H498 H 0.43681 0.56259 0.34585 0.0
H499 H 0.50982 0.54624 0.38092 0.0
H500 H 0.5472 0.71271 0.19303 0.0
H501 H 0.46564 0.69052 0.20393 0.0
H502 H 0.40999 0.64732 0.24092 0.0
H503 H 0.39954 0.60017 0.29198 0.0
Mn504 Mn 0.31821 0.67358 0.36116 0.0
Mn505 Mn 0.3742 0.74522 0.40666 0.0
C506 C 0.3943 0.69272 0.34303 0.0
C507 C 0.29781 0.60881 0.35267 0.0
C508 C 0.29079 0.75794 0.35483 0.0
O509 O 0.28489 0.67624 0.41305 0.0
O510 O 0.33131 0.71942 0.44209 0.0
C511 C 0.42937 0.69609 0.45678 0.0
N512 N 0.42765 0.72545 0.43201 0.0
C513 C 0.51167 0.73133 0.43185 0.0
C514 C 0.51428 0.70156 0.45793 0.0
C515 C 0.47292 0.68314 0.46943 0.0
C516 C 0.46722 0.74185 0.41883 0.0
H517 H 0.39787 0.68157 0.46549 0.0
C518 C 0.29924 0.69407 0.44257 0.0
O519 O 0.27165 0.63602 0.34021 0.0
O520 O 0.33519 0.6189 0.37078 0.0
N521 N 0.41838 0.77184 0.37565 0.0
C522 C 0.41012 0.79587 0.34633 0.0
C523 C 0.44784 0.81512 0.32947 0.0
C524 C 0.49363 0.80949 0.34292 0.0
C525 C 0.50129 0.78475 0.37323 0.0
C526 C 0.46221 0.76696 0.38938 0.0
H527 H 0.37509 0.80026 0.33576 0.0
O528 O 0.36739 0.67483 0.31936 0.0
O529 O 0.37492 0.69988 0.37513 0.0
O530 O 0.28868 0.7236 0.34342 0.0
O531 O 0.32015 0.76846 0.37991 0.0
C532 C 0.54627 0.77617 0.38732 0.0
C533 C 0.5515 0.74917 0.41636 0.0
H534 H 0.54796 0.69138 0.46775 0.0
H535 H 0.47425 0.65835 0.48721 0.0
H536 H 0.44166 0.83406 0.30599 0.0
H537 H 0.52271 0.82391 0.32943 0.0
H538 H 0.57717 0.78925 0.37517 0.0
H539 H 0.58635 0.7416 0.42587 0.0
Mn540 Mn 0.32266 0.37084 0.3566 0.0
Mn541 Mn 0.38581 0.41189 0.28669 0.0
C542 C 0.39949 0.3502 0.34228 0.0
C543 C 0.29782 0.36725 0.42013 0.0
C544 C 0.31032 0.35298 0.27237 0.0
O545 O 0.28819 0.42151 0.34833 0.0
O546 O 0.33598 0.44671 0.30484 0.0
C547 C 0.42759 0.46445 0.34142 0.0
N548 N 0.43292 0.44148 0.31084 0.0
C549 C 0.51701 0.44528 0.315 0.0
C550 C 0.51237 0.46962 0.34604 0.0
C551 C 0.4674 0.47814 0.36005 0.0
C552 C 0.47596 0.43035 0.29928 0.0
H553 H 0.39323 0.47054 0.35275 0.0
C554 C 0.30113 0.44924 0.3275 0.0
O555 O 0.27314 0.35297 0.39289 0.0
O556 O 0.3357 0.38498 0.41028 0.0
N557 N 0.43677 0.38342 0.26566 0.0
C558 C 0.4351 0.355 0.23955 0.0
C559 C 0.47689 0.34179 0.22313 0.0
C560 C 0.51993 0.35825 0.23325 0.0
C561 C 0.52075 0.38791 0.2596 0.0
C562 C 0.47785 0.40053 0.27424 0.0
H563 H 0.40217 0.34254 0.2311 0.0
O564 O 0.37095 0.32852 0.36101 0.0
O565 O 0.3822 0.38265 0.33308 0.0
O566 O 0.29815 0.34869 0.30681 0.0
O567 O 0.33956 0.37831 0.26131 0.0
C568 C 0.56248 0.40497 0.27248 0.0
C569 C 0.56069 0.43301 0.30089 0.0
H570 H 0.54312 0.48041 0.36043 0.0
H571 H 0.46319 0.49465 0.38555 0.0
H572 H 0.47592 0.31894 0.20273 0.0
H573 H 0.55215 0.3476 0.22095 0.0
H574 H 0.5962 0.39568 0.26181 0.0
H575 H 0.59308 0.44434 0.31223 0.0
C576 C 0.30052 0.28468 0.25026 0.0
C577 C 0.29392 0.32446 0.24389 0.0
C578 C 0.26873 0.31024 0.17923 0.0
C579 C 0.2666 0.27098 0.18795 0.0
N580 N 0.30286 0.22116 0.22337 0.0
N581 N 0.26533 0.37425 0.20329 0.0
C582 C 0.28873 0.25811 0.22128 0.0
C583 C 0.2767 0.337 0.20849 0.0
N584 N 0.31774 0.27197 0.28393 0.0
N585 N 0.26675 0.32178 0.14249 0.0
H586 H 0.26836 0.39461 0.22453 0.0
H587 H 0.24809 0.38404 0.17928 0.0
H588 H 0.26742 0.30255 0.12008 0.0
H589 H 0.27176 0.34983 0.13423 0.0
H590 H 0.31634 0.24376 0.29241 0.0
H591 H 0.33183 0.28948 0.30457 0.0
H592 H 0.3226 0.20997 0.24537 0.0
H593 H 0.30053 0.20279 0.20035 0.0
C594 C 0.77311 0.25727 0.31202 0.0
C595 C 0.73473 0.24322 0.33354 0.0
C596 C 0.7391 0.18316 0.29818 0.0
C597 C 0.77441 0.19871 0.27457 0.0
N598 N 0.82038 0.25305 0.25545 0.0
N599 N 0.6993 0.18589 0.35833 0.0
C600 C 0.78983 0.23656 0.28029 0.0
C601 C 0.72241 0.20419 0.32986 0.0
N602 N 0.797 0.28845 0.32453 0.0
N603 N 0.72033 0.14858 0.28946 0.0
H604 H 0.69429 0.19763 0.38496 0.0
H605 H 0.69226 0.15694 0.35811 0.0
H606 H 0.73132 0.1327 0.26618 0.0
H607 H 0.69072 0.13753 0.30273 0.0
H608 H 0.82797 0.29821 0.3123 0.0
H609 H 0.78977 0.30122 0.35049 0.0
H610 H 0.82801 0.28193 0.25568 0.0
H611 H 0.83554 0.23877 0.23278 0.0
C612 C 0.79193 0.72608 0.2292 0.0
C613 C 0.77379 0.73483 0.19294 0.0
C614 C 0.71428 0.68488 0.20027 0.0
C615 C 0.72866 0.67992 0.23853 0.0
N616 N 0.79459 0.68114 0.28072 0.0
N617 N 0.71635 0.72471 0.14428 0.0
C618 C 0.77163 0.69622 0.2504 0.0
C619 C 0.73491 0.71449 0.17835 0.0
N620 N 0.82752 0.74725 0.24411 0.0
N621 N 0.68421 0.6597 0.18375 0.0
H622 H 0.73087 0.74594 0.12745 0.0
H623 H 0.68452 0.7145 0.13409 0.0
H624 H 0.67368 0.6346 0.1965 0.0
H625 H 0.67517 0.66045 0.15531 0.0
H626 H 0.83844 0.74518 0.27208 0.0
H627 H 0.84364 0.7692 0.22943 0.0
H628 H 0.82818 0.68928 0.28895 0.0
H629 H 0.78246 0.65696 0.29463 0.0
C630 C 0.27148 0.8262 0.33267 0.0
C631 C 0.25984 0.78684 0.33521 0.0
C632 C 0.20348 0.79464 0.28345 0.0
C633 C 0.21892 0.83252 0.27775 0.0
N634 N 0.26961 0.88406 0.29518 0.0
N635 N 0.19704 0.74209 0.32688 0.0
C636 C 0.25315 0.84836 0.30217 0.0
C637 C 0.22055 0.77353 0.31461 0.0
N638 N 0.29605 0.8434 0.36101 0.0
N639 N 0.17348 0.77811 0.25834 0.0
H640 H 0.20549 0.72854 0.35216 0.0
H641 H 0.16553 0.73281 0.31524 0.0
H642 H 0.15997 0.79244 0.23521 0.0
H643 H 0.16544 0.74931 0.25853 0.0
H644 H 0.30312 0.87231 0.36187 0.0
H645 H 0.30292 0.83043 0.38674 0.0
H646 H 0.29867 0.89573 0.30864 0.0
H647 H 0.25649 0.90104 0.27354 0.0
C648 C 0.29936 0.73207 0.78695 0.0
C649 C 0.2839 0.69439 0.78022 0.0
C650 C 0.22948 0.69953 0.83398 0.0
C651 C 0.2408 0.7388 0.83732 0.0
N652 N 0.3027 0.78462 0.83084 0.0
N653 N 0.23184 0.64281 0.79495 0.0
C654 C 0.28066 0.75276 0.81784 0.0
C655 C 0.24864 0.67811 0.80338 0.0
N656 N 0.33073 0.74877 0.763 0.0
N657 N 0.20414 0.68175 0.86153 0.0
H658 H 0.24508 0.62646 0.77282 0.0
H659 H 0.20219 0.63109 0.80757 0.0
H660 H 0.19592 0.69434 0.88723 0.0
H661 H 0.19759 0.65273 0.86178 0.0
H662 H 0.33911 0.77749 0.76392 0.0
H663 H 0.34521 0.73476 0.73994 0.0
H664 H 0.3345 0.79449 0.82019 0.0
H665 H 0.29235 0.7982 0.8557 0.0
C666 C 0.20176 0.23829 0.73794 0.0
C667 C 0.21539 0.19974 0.7414 0.0
C668 C 0.26729 0.20673 0.68617 0.0
C669 C 0.25696 0.24632 0.68508 0.0
N670 N 0.19674 0.29269 0.69679 0.0
N671 N 0.26517 0.14817 0.72229 0.0
C672 C 0.21918 0.26016 0.70736 0.0
C673 C 0.24912 0.18418 0.71632 0.0
N674 N 0.1725 0.25442 0.76403 0.0
N675 N 0.29018 0.18972 0.65676 0.0
H676 H 0.25271 0.13103 0.74411 0.0
H677 H 0.29381 0.13658 0.70812 0.0
H678 H 0.29656 0.20315 0.63117 0.0
H679 H 0.29596 0.16066 0.65495 0.0
H680 H 0.16636 0.2835 0.76546 0.0
H681 H 0.15689 0.23943 0.78602 0.0
H682 H 0.16618 0.30255 0.70962 0.0
H683 H 0.20475 0.30681 0.67172 0.0
C684 C 0.70674 0.2926 0.83708 0.0
C685 C 0.73562 0.26337 0.82216 0.0
C686 C 0.74715 0.30096 0.76484 0.0
C687 C 0.71546 0.32901 0.77816 0.0
N688 N 0.6832 0.35847 0.83404 0.0
N689 N 0.76965 0.23522 0.76596 0.0
C690 C 0.69981 0.32681 0.81629 0.0
C691 C 0.7513 0.26598 0.78418 0.0
N692 N 0.68472 0.28687 0.87088 0.0
N693 N 0.77673 0.30913 0.73558 0.0
H694 H 0.77029 0.20816 0.77749 0.0
H695 H 0.77824 0.23557 0.73734 0.0
H696 H 0.77907 0.33628 0.72405 0.0
H697 H 0.80352 0.29099 0.72689 0.0
H698 H 0.6594 0.30508 0.88186 0.0
H699 H 0.68812 0.26153 0.88584 0.0
H700 H 0.67417 0.35932 0.86251 0.0
H701 H 0.68553 0.38537 0.82214 0.0
C702 C 0.74946 0.84567 0.71975 0.0
C703 C 0.78211 0.82919 0.74511 0.0
C704 C 0.78071 0.77044 0.70774 0.0
C705 C 0.7428 0.78447 0.68598 0.0
N706 N 0.70956 0.8417 0.65945 0.0
N707 N 0.82448 0.77369 0.76582 0.0
C708 C 0.73209 0.82397 0.6885 0.0
C709 C 0.7966 0.79101 0.73973 0.0
N710 N 0.73347 0.88157 0.72652 0.0
N711 N 0.80433 0.73891 0.6958 0.0
H712 H 0.83661 0.78731 0.78992 0.0
H713 H 0.8317 0.74474 0.76547 0.0
H714 H 0.79721 0.7259 0.66995 0.0
H715 H 0.835 0.72914 0.70845 0.0
H716 H 0.70544 0.89375 0.71218 0.0
H717 H 0.74566 0.89816 0.74886 0.0
H718 H 0.70328 0.87073 0.65858 0.0
H719 H 0.70394 0.82892 0.63338 0.0
C720 C 0.20615 0.20215 0.96445 0.0
C721 C 0.19031 0.1653 0.95338 0.0
C722 C 0.17812 0.15018 0.02023 0.0
C723 C 0.19989 0.18473 0.03135 0.0
N724 N 0.24322 0.24026 0.01313 0.0
N725 N 0.17404 0.10106 0.9728 0.0
C726 C 0.21708 0.20944 1.00309 0.0
C727 C 0.18048 0.13826 0.98191 0.0
N728 N 0.20692 0.23133 0.93912 0.0
N729 N 0.15149 0.1302 0.04527 0.0
H730 H 0.1782 0.09095 0.94536 0.0
H731 H 0.17032 0.07992 0.99314 0.0
H732 H 0.14488 0.13974 0.07255 0.0
H733 H 0.13153 0.10671 0.03743 0.0
H734 H 0.2142 0.25921 0.94686 0.0
H735 H 0.19438 0.22907 0.91162 0.0
H736 H 0.26026 0.25739 0.99345 0.0
H737 H 0.25164 0.24628 0.04119 0.0
C738 C 0.75005 0.16857 0.01355 0.0
C739 C 0.7882 0.1727 0.9883 0.0
C740 C 0.84317 0.15704 0.03939 0.0
C741 C 0.80516 0.15118 0.06476 0.0
N742 N 0.7218 0.14128 0.07232 0.0
N743 N 0.86876 0.15677 0.97441 0.0
C744 C 0.7583 0.15386 0.05069 0.0
C745 C 0.83386 0.16201 1.00034 0.0
N746 N 0.70629 0.17953 1.0025 0.0
N747 N 0.888 0.16126 0.05241 0.0
H748 H 0.86325 0.15964 0.94552 0.0
H749 H 0.90153 0.14573 0.98139 0.0
H750 H 0.89699 0.16102 0.08086 0.0
H751 H 0.9157 0.16964 0.03507 0.0
H752 H 0.67783 0.18116 0.02091 0.0
H753 H 0.69935 0.18919 0.97523 0.0
H754 H 0.68743 0.13965 0.06253 0.0
H755 H 0.72673 0.12859 0.09859 0.0
C756 C 0.78093 0.80811 0.97778 0.0
C757 C 0.78653 0.84601 0.96467 0.0
C758 C 0.76932 0.86942 0.0288 0.0
C759 C 0.77276 0.8321 0.04268 0.0
N760 N 0.76031 0.76633 0.02998 0.0
N761 N 0.78751 0.91318 0.97836 0.0
C762 C 0.77122 0.80158 0.01673 0.0
C763 C 0.78059 0.87684 0.9903 0.0
N764 N 0.78933 0.7783 0.95397 0.0
N765 N 0.75221 0.8972 0.05172 0.0
H766 H 0.79522 0.91996 0.95047 0.0
H767 H 0.78902 0.9363 0.99665 0.0
H768 H 0.73898 0.89119 0.07851 0.0
H769 H 0.7449 0.92456 0.04243 0.0
H770 H 0.7909 0.75022 0.96278 0.0
H771 H 0.79865 0.78155 0.92571 0.0
H772 H 0.75449 0.74287 0.01277 0.0
H773 H 0.7524 0.7618 0.05843 0.0
C774 C 0.23045 0.81802 0.04311 0.0
C775 C 0.21747 0.85373 0.05864 0.0
C776 C 0.20511 0.87877 0.99503 0.0
C777 C 0.21843 0.84335 0.97929 0.0
N778 N 0.25706 0.78349 0.9876 0.0
N779 N 0.21227 0.921 0.04853 0.0
C780 C 0.23618 0.81459 1.00324 0.0
C781 C 0.21153 0.88511 0.03422 0.0
N782 N 0.23366 0.78671 0.06559 0.0
N783 N 0.18235 0.90512 0.97366 0.0
H784 H 0.22035 0.92619 0.07678 0.0
H785 H 0.21104 0.94511 0.03157 0.0
H786 H 0.17433 0.90086 0.94531 0.0
H787 H 0.16767 0.92965 0.98509 0.0
H788 H 0.23773 0.75938 0.05492 0.0
H789 H 0.22855 0.78732 0.09467 0.0
H790 H 0.27414 0.76285 1.00347 0.0
H791 H 0.26125 0.78059 0.95843 0.0
C792 C 0.02595 0.2055 0.16659 0.0
C793 C 0.06039 0.18043 0.17984 0.0
C794 C 0.99369 0.13628 0.18598 0.0
C795 C 0.96206 0.16771 0.18894 0.0
N796 N 0.95692 0.23639 0.18929 0.0
N797 N 0.07215 0.11272 0.19338 0.0
C798 C 0.98199 0.20406 0.18426 0.0
C799 C 0.04309 0.14296 0.18799 0.0
N800 N 0.02421 0.21089 0.12882 0.0
N801 N 0.97912 0.10062 0.17719 0.0
H802 H 0.10835 0.11408 0.19445 0.0
H803 H 0.05909 0.0854 0.19765 0.0
H804 H 0.94468 0.09341 0.1707 0.0
H805 H 0.94468 0.09341 0.1707 0.0
H806 H 0.99468 0.22279 0.11596 0.0
H807 H 0.0484 0.19765 0.11097 0.0
H808 H 0.97138 0.26268 0.18247 0.0
H809 H 0.92412 0.23654 0.20242 0.0
C810 C 0.79109 0.98046 0.14792 0.0
C811 C 0.7954 0.95405 0.17792 0.0
C812 C 0.78467 1.00617 0.2234 0.0
C813 C 0.78925 0.03316 0.19397 0.0
N814 N 0.79221 0.04532 0.12653 0.0
N815 N 0.80128 0.94252 0.24498 0.0
C816 C 0.79027 0.02015 0.15573 0.0
C817 C 0.79274 0.967 0.21591 0.0
N818 N 0.78619 0.96751 0.11177 0.0
N819 N 0.77211 0.01825 0.25865 0.0
H820 H 0.8091 0.91395 0.24098 0.0
H821 H 0.80509 0.95129 0.2729 0.0
H822 H 0.76461 0.04666 0.26436 0.0
H823 H 0.76406 0.99988 0.28073 0.0
H824 H 0.77686 0.98458 0.08903 0.0
H825 H 0.78786 0.9389 0.10487 0.0
H826 H 0.80365 0.03813 0.09951 0.0
H827 H 0.78112 0.07321 0.12864 0.0
C828 C 0.97759 0.80861 0.20079 0.0
C829 C 0.95118 0.83154 0.17575 0.0
C830 C 0.02417 0.85921 0.15079 0.0
C831 C 0.05058 0.83614 0.17578 0.0
N832 N 0.05355 0.7824 0.21729 0.0
N833 N 0.94891 0.88259 0.13029 0.0
C834 C 0.02759 0.80889 0.19868 0.0
C835 C 0.97444 0.85765 0.15146 0.0
N836 N 0.95487 0.7875 0.22741 0.0
N837 N 0.04681 0.88134 0.1248 0.0
H838 H 0.91287 0.88113 0.12731 0.0
H839 H 0.96278 0.90625 0.11685 0.0
H840 H 0.08298 0.88363 0.12315 0.0
H841 H 0.03049 0.8953 0.10259 0.0
H842 H 0.97172 0.7727 0.24884 0.0
H843 H 0.91854 0.78726 0.22989 0.0
H844 H 0.03934 0.75993 0.23247 0.0
H845 H 0.0897 0.78066 0.21418 0.0
C846 C 0.19498 0.03818 0.129 0.0
C847 C 0.20358 0.06386 0.15897 0.0
C848 C 0.22255 1.00984 0.20005 0.0
C849 C 0.20546 0.98454 0.17229 0.0
N850 N 0.16557 0.9763 0.11255 0.0
N851 N 0.21754 0.07309 0.22589 0.0
C852 C 0.1895 0.99902 0.13709 0.0
C853 C 0.21592 0.04952 0.19525 0.0
N854 N 0.19277 0.05098 0.0927 0.0
N855 N 0.24411 0.99578 0.23145 0.0
H856 H 0.20942 0.10183 0.22468 0.0
H857 H 0.22179 0.0633 0.25341 0.0
H858 H 0.24913 0.96675 0.23549 0.0
H859 H 0.26098 1.01289 0.25123 0.0
H860 H 0.19025 0.03288 0.0695 0.0
H861 H 0.19909 0.07921 0.08571 0.0
H862 H 0.14884 0.98667 0.08854 0.0
H863 H 0.15866 0.94783 0.11788 0.0
C864 C 0.97725 0.8598 0.86907 0.0
C865 C 0.95081 0.8363 0.84448 0.0
C866 C 0.02389 0.80903 0.81901 0.0
C867 C 0.05016 0.83238 0.84375 0.0
N868 N 0.05229 0.88413 0.88864 0.0
N869 N 0.94786 0.78303 0.80211 0.0
C870 C 0.0269 0.85874 0.86785 0.0
C871 C 0.97383 0.80926 0.82117 0.0
N872 N 0.95477 0.88175 0.8954 0.0
N873 N 0.04683 0.7875 0.79273 0.0
H874 H 0.91153 0.78217 0.80396 0.0
H875 H 0.96208 0.76038 0.78716 0.0
H876 H 0.08332 0.78652 0.7908 0.0
H877 H 0.03005 0.77265 0.77125 0.0
H878 H 0.97138 0.89618 0.91722 0.0
H879 H 0.9186 0.88329 0.89799 0.0
H880 H 0.03834 0.90814 0.90147 0.0
H881 H 0.08817 0.88241 0.89232 0.0
C882 C 0.20529 0.96983 0.80229 0.0
C883 C 0.20171 0.95659 0.84018 0.0
C884 C 0.18421 0.02107 0.86116 0.0
C885 C 0.19178 0.03529 0.82408 0.0
N886 N 0.2198 0.02356 0.76095 0.0
N887 N 0.20484 0.97258 0.90616 0.0
C888 C 0.20583 1.00974 0.79515 0.0
C889 C 0.19692 0.98326 0.86973 0.0
N890 N 0.20509 0.94471 0.77293 0.0
N891 N 0.1608 0.04207 0.88751 0.0
H892 H 0.21761 0.94572 0.91279 0.0
H893 H 0.20469 0.99174 0.92861 0.0
H894 H 0.14612 0.06839 0.88167 0.0
H895 H 0.15069 0.03105 0.9136 0.0
H896 H 0.20231 0.95307 0.74482 0.0
H897 H 0.20368 0.91546 0.7766 0.0
H898 H 0.23435 1.00658 0.73988 0.0
H899 H 0.22116 0.05255 0.75519 0.0
C900 C 0.01 0.21 0.84512 0.0
C901 C 0.0327 0.17472 0.83967 0.0
C902 C 0.95602 0.14392 0.84842 0.0
C903 C 0.93509 0.18033 0.85454 0.0
N904 N 0.96921 0.22055 0.90025 0.0
N905 N 0.0275 0.10852 0.85869 0.0
C906 C 0.96663 0.20951 0.86383 0.0
C907 C 0.006 0.14131 0.84764 0.0
N908 N 0.032 0.24355 0.83877 0.0
N909 N 0.92978 0.1117 0.84607 0.0
H910 H 0.06329 0.10649 0.864 0.0
H911 H 0.00907 0.08476 0.86794 0.0
H912 H 0.89379 0.11078 0.84915 0.0
H913 H 0.94419 0.08528 0.83998 0.0
H914 H 0.01579 0.26914 0.84579 0.0
H915 H 0.06405 0.24535 0.82462 0.0
H916 H 0.9484 0.20811 0.92112 0.0
H917 H 0.9484 0.20811 0.92112 0.0
C918 C 0.77206 0.99311 0.88388 0.0
C919 C 0.78193 0.98042 0.84663 0.0
C920 C 0.79561 0.04593 0.82656 0.0
C921 C 0.79187 0.05828 0.86468 0.0
N922 N 0.77678 0.04416 0.93009 0.0
N923 N 0.77987 0.99628 0.7809 0.0
C924 C 0.77987 0.03203 0.89352 0.0
C925 C 0.78612 1.00755 0.81746 0.0
N926 N 0.75129 0.96896 0.90883 0.0
N927 N 0.8116 0.07019 0.79931 0.0
H928 H 0.77089 0.96839 0.77407 0.0
H929 H 0.7782 0.01501 0.75823 0.0
H930 H 0.82097 0.09822 0.80476 0.0
H931 H 0.82009 0.06155 0.77202 0.0
H932 H 0.73969 0.97703 0.93553 0.0
H933 H 0.73976 0.94208 0.90096 0.0
H934 H 0.77353 0.02593 0.95303 0.0
H935 H 0.7805 0.07255 0.93778 0.0
C936 C 0.70847 0.64285 0.48128 0.0
C937 C 0.71289 0.67404 0.45643 0.0
C938 C 0.73259 0.71403 0.51112 0.0
C939 C 0.71717 0.68498 0.53589 0.0
N940 N 0.68128 0.62312 0.5425 0.0
N941 N 0.72652 0.74128 0.44857 0.0
C942 C 0.70339 0.64943 0.52058 0.0
C943 C 0.72522 0.71014 0.47142 0.0
N944 N 0.7095 0.60682 0.46733 0.0
N945 N 0.75322 0.7457 0.5258 0.0
H946 H 0.72014 0.74019 0.41966 0.0
H947 H 0.73014 0.7688 0.45885 0.0
H948 H 0.75883 0.74895 0.55476 0.0
H949 H 0.76878 0.76658 0.50919 0.0
H950 H 0.70946 0.5829 0.4846 0.0
H951 H 0.71671 0.60138 0.43896 0.0
H952 H 0.66634 0.59853 0.53141 0.0
H953 H 0.67372 0.62747 0.57091 0.0
C954 C 0.27631 0.70542 0.54591 0.0
C955 C 0.29287 0.67025 0.56064 0.0
C956 C 0.30374 0.64693 0.49569 0.0
C957 C 0.28544 0.6814 0.48116 0.0
N958 N 0.24251 0.73873 0.4924 0.0
N959 N 0.30833 0.60394 0.54851 0.0
C960 C 0.26723 0.70879 0.50645 0.0
C961 C 0.30179 0.63983 0.53517 0.0
N962 N 0.27328 0.73674 0.56853 0.0
N963 N 0.32669 0.62217 0.47243 0.0
H964 H 0.307 0.59732 0.57708 0.0
H965 H 0.31015 0.58024 0.53096 0.0
H966 H 0.33004 0.6263 0.44349 0.0
H967 H 0.34588 0.59913 0.48238 0.0
H968 H 0.26603 0.76372 0.55817 0.0
H969 H 0.283 0.73705 0.59682 0.0
H970 H 0.22472 0.75806 0.50947 0.0
H971 H 0.23593 0.74168 0.46355 0.0
C972 C 0.29205 0.39349 0.48612 0.0
C973 C 0.28509 0.3626 0.46095 0.0
C974 C 0.26273 0.32319 0.51537 0.0
C975 C 0.28004 0.35123 0.54031 0.0
N976 N 0.31666 0.41248 0.5485 0.0
N977 N 0.26899 0.29544 0.45323 0.0
C978 C 0.29531 0.38658 0.52557 0.0
C979 C 0.27078 0.32685 0.47582 0.0
N980 N 0.29555 0.42953 0.47243 0.0
N981 N 0.24005 0.29236 0.52984 0.0
H982 H 0.27763 0.29552 0.4247 0.0
H983 H 0.26362 0.26821 0.46372 0.0
H984 H 0.23426 0.28924 0.55881 0.0
H985 H 0.22301 0.27236 0.51309 0.0
H986 H 0.29628 0.45341 0.48979 0.0
H987 H 0.29255 0.43575 0.4438 0.0
H988 H 0.33364 0.43655 0.5383 0.0
H989 H 0.3207 0.40852 0.57738 0.0
C990 C 0.73208 0.37291 0.49824 0.0
C991 C 0.72305 0.33583 0.48453 0.0
C992 C 0.71108 0.31305 0.54923 0.0
C993 C 0.7121 0.35109 0.56243 0.0
N994 N 0.72947 0.41687 0.5513 0.0
N995 N 0.72815 0.26944 0.49792 0.0
C996 C 0.72486 0.38092 0.53745 0.0
C997 C 0.72073 0.30551 0.5106 0.0
N998 N 0.75059 0.39943 0.47451 0.0
N999 N 0.69722 0.28442 0.57274 0.0
H1000 H 0.73666 0.26389 0.46974 0.0
H1001 H 0.73101 0.24603 0.51565 0.0
H1002 H 0.68885 0.28853 0.60111 0.0
H1003 H 0.69038 0.25696 0.56345 0.0
H1004 H 0.76052 0.42654 0.48285 0.0
H1005 H 0.76151 0.39287 0.44721 0.0
H1006 H 0.73267 0.44092 0.53453 0.0
H1007 H 0.72914 0.42266 0.58016 0.0
C1008 C 0.53148 0.66293 0.6536 0.0
C1009 C 0.55612 0.68818 0.6779 0.0
C1010 C 0.48096 0.71056 0.70398 0.0
C1011 C 0.4565 0.68449 0.68055 0.0
N1012 N 0.45795 0.64074 0.62813 0.0
N1013 N 0.5555 0.73094 0.73073 0.0
C1014 C 0.48173 0.66187 0.65424 0.0
C1015 C 0.53115 0.7105 0.70447 0.0
N1016 N 0.55575 0.63834 0.63099 0.0
N1017 N 0.45616 0.73635 0.72462 0.0
H1018 H 0.59207 0.73168 0.73146 0.0
H1019 H 0.53988 0.74517 0.75321 0.0
H1020 H 0.41977 0.73753 0.72388 0.0
H1021 H 0.47131 0.75833 0.73994 0.0
H1022 H 0.54094 0.61523 0.6172 0.0
H1023 H 0.59168 0.6395 0.62708 0.0
H1024 H 0.47321 0.62824 0.60451 0.0
H1025 H 0.42189 0.63739 0.62834 0.0
C1026 C 0.28417 0.51773 0.71768 0.0
C1027 C 0.28249 0.54255 0.68623 0.0
C1028 C 0.2718 0.48709 0.6447 0.0
C1029 C 0.28557 0.46315 0.67495 0.0
N1030 N 0.30398 0.45532 0.74098 0.0
N1031 N 0.25954 0.55117 0.62132 0.0
C1032 C 0.29046 0.47822 0.71185 0.0
C1033 C 0.27121 0.52736 0.6501 0.0
N1034 N 0.27945 0.53237 0.75319 0.0
N1035 N 0.25821 0.47096 0.61133 0.0
H1036 H 0.25091 0.57946 0.62576 0.0
H1037 H 0.25619 0.54287 0.59329 0.0
H1038 H 0.25619 0.44166 0.6077 0.0
H1039 H 0.24592 0.48588 0.58809 0.0
H1040 H 0.27643 0.51574 0.77735 0.0
H1041 H 0.27329 0.56119 0.75771 0.0
H1042 H 0.31366 0.46562 0.76741 0.0
H1043 H 0.30886 0.42618 0.73805 0.0
C1044 C 0.51927 0.36647 0.65419 0.0
C1045 C 0.54458 0.34289 0.6794 0.0
C1046 C 0.47042 0.31671 0.70375 0.0
C1047 C 0.44521 0.34043 0.6786 0.0
N1048 N 0.44517 0.39206 0.63375 0.0
N1049 N 0.5459 0.29044 0.72257 0.0
C1050 C 0.46958 0.36629 0.65479 0.0
C1051 C 0.5206 0.31642 0.70257 0.0
N1052 N 0.54292 0.38769 0.62801 0.0
N1053 N 0.44631 0.29541 0.72946 0.0
H1054 H 0.58249 0.28997 0.72243 0.0
H1055 H 0.53102 0.26803 0.73741 0.0
H1056 H 0.40975 0.29503 0.73076 0.0
H1057 H 0.46215 0.27994 0.75092 0.0
H1058 H 0.52723 0.40199 0.60572 0.0
H1059 H 0.57919 0.38888 0.62628 0.0
H1060 H 0.46011 0.41509 0.61996 0.0
H1061 H 0.40903 0.39206 0.63132 0.0
C1062 C 0.71014 0.54061 0.63702 0.0
C1063 C 0.71352 0.56573 0.66813 0.0
C1064 C 0.72351 0.51041 0.70967 0.0
C1065 C 0.70972 0.48591 0.67984 0.0
N1066 N 0.68118 0.48013 0.6157 0.0
N1067 N 0.71941 0.5738 0.73581 0.0
C1068 C 0.70136 0.50149 0.64343 0.0
C1069 C 0.72 0.55052 0.70496 0.0
N1070 N 0.7159 0.55409 0.60125 0.0
N1071 N 0.73927 0.49518 0.74272 0.0
H1072 H 0.71564 0.60309 0.73406 0.0
H1073 H 0.71863 0.56371 0.76343 0.0
H1074 H 0.7423 0.46596 0.74664 0.0
H1075 H 0.75366 0.51139 0.76442 0.0
H1076 H 0.71706 0.53654 0.57755 0.0
H1077 H 0.72566 0.58211 0.59616 0.0
H1078 H 0.67002 0.49154 0.59011 0.0
H1079 H 0.67132 0.452 0.61948 0.0
C1080 C 0.47689 0.36757 0.37023 0.0
C1081 C 0.45122 0.34487 0.34441 0.0
C1082 C 0.52491 0.31719 0.32068 0.0
C1083 C 0.55042 0.33969 0.34674 0.0
N1084 N 0.55136 0.39027 0.39286 0.0
N1085 N 0.44908 0.29301 0.30036 0.0
C1086 C 0.52651 0.36577 0.37066 0.0
C1087 C 0.47476 0.31809 0.32119 0.0
N1088 N 0.45361 0.38941 0.39613 0.0
N1089 N 0.54873 0.29595 0.29469 0.0
H1090 H 0.41259 0.29364 0.29971 0.0
H1091 H 0.46346 0.27036 0.2855 0.0
H1092 H 0.58528 0.29473 0.2938 0.0
H1093 H 0.53275 0.28143 0.2726 0.0
H1094 H 0.46933 0.40243 0.41924 0.0
H1095 H 0.41748 0.39259 0.39654 0.0
H1096 H 0.53729 0.4143 0.4056 0.0
H1097 H 0.58695 0.38769 0.39777 0.0
C1098 C 0.69719 0.486 0.38781 0.0
C1099 C 0.7076 0.46095 0.35745 0.0
C1100 C 0.72538 0.51642 0.31787 0.0
C1101 C 0.7055 0.54048 0.34555 0.0
N1102 N 0.66481 0.54675 0.40509 0.0
N1103 N 0.72518 0.45366 0.29068 0.0
C1104 C 0.68996 0.52505 0.38034 0.0
C1105 C 0.72094 0.47639 0.32178 0.0
N1106 N 0.69421 0.47262 0.42388 0.0
N1107 N 0.74718 0.532 0.28725 0.0
H1108 H 0.71905 0.42462 0.29087 0.0
H1109 H 0.72995 0.46429 0.26351 0.0
H1110 H 0.75034 0.56129 0.28383 0.0
H1111 H 0.76603 0.51605 0.26763 0.0
H1112 H 0.69081 0.49033 0.44731 0.0
H1113 H 0.70036 0.44436 0.43066 0.0
H1114 H 0.64796 0.53558 0.42874 0.0
H1115 H 0.65734 0.57525 0.40036 0.0
C1116 C 0.52206 0.71213 0.31398 0.0
C1117 C 0.54596 0.68637 0.33793 0.0
C1118 C 0.47078 0.66536 0.36478 0.0
C1119 C 0.44649 0.6904 0.34013 0.0
N1120 N 0.44772 0.73309 0.2873 0.0
N1121 N 0.54402 0.64407 0.39141 0.0
C1122 C 0.47181 0.71255 0.31356 0.0
C1123 C 0.52049 0.66448 0.36465 0.0
N1124 N 0.54751 0.73688 0.29254 0.0
N1125 N 0.44626 0.64079 0.38724 0.0
H1126 H 0.58016 0.64153 0.39208 0.0
H1127 H 0.5285 0.63154 0.41486 0.0
H1128 H 0.41011 0.6408 0.38975 0.0
H1129 H 0.46106 0.61837 0.40202 0.0
H1130 H 0.53281 0.75888 0.27703 0.0
H1131 H 0.5841 0.73686 0.29217 0.0
H1132 H 0.46352 0.74719 0.26486 0.0
H1133 H 0.41117 0.73419 0.28667 0.0
C1134 C 0.26891 0.50356 0.36811 0.0
C1135 C 0.28072 0.48858 0.33207 0.0
C1136 C 0.29039 0.55351 0.30761 0.0
C1137 C 0.28684 0.56799 0.34499 0.0
N1138 N 0.26966 0.5577 0.41075 0.0
N1139 N 0.28018 0.49975 0.26533 0.0
C1140 C 0.27478 0.54325 0.37517 0.0
C1141 C 0.28426 0.51391 0.30109 0.0
N1142 N 0.24873 0.48062 0.39453 0.0
N1143 N 0.30283 0.57711 0.27869 0.0
H1144 H 0.27329 0.47109 0.26035 0.0
H1145 H 0.27832 0.51652 0.24122 0.0
H1146 H 0.30744 0.60622 0.28209 0.0
H1147 H 0.31181 0.5676 0.2518 0.0
H1148 H 0.23633 0.49016 0.4205 0.0
H1149 H 0.23821 0.45302 0.38854 0.0
H1150 H 0.2675 0.54106 0.43494 0.0
H1151 H 0.26939 0.58674 0.41621 0.0
loop_
_geom_bond_atom_site_label_1
_geom_bond_atom_site_label_2
_geom_bond_distance
_geom_bond_site_symmetry_2
_ccdc_geom_bond_type
Mn0 O5 2.095 . S
Mn0 O15 2.162 . S
Mn0 O16 2.297 . S
Mn0 O24 2.385 . S
Mn0 O25 2.209 . S
Mn0 O26 2.094 . S
Mn1 O6 2.121 . S
Mn1 N8 2.257 . S
Mn1 N17 2.282 . S
Mn1 O25 2.215 . S
Mn1 O27 2.117 . S
C2 O24 1.234 . S
C2 O25 1.283 . S
C3 O15 1.281 . S
C3 O16 1.236 . S
C4 O26 1.240 . S
C4 O27 1.264 . S
O5 Mn0 2.095 . S
O5 C14 1.250 . S
O6 Mn1 2.121 . S
O6 C14 1.258 . S
C7 N8 1.326 . S
C7 C11 1.460 . S
C7 H13 0.929 . S
N8 Mn1 2.257 . S
N8 C7 1.326 . S
N8 C12 1.362 . S
C9 C10 1.255 1_455 S
C9 C12 1.449 . S
C9 C29 1.433 1_455 S
C10 C9 1.255 1_655 S
C10 C11 1.477 1_655 S
C10 H30 0.931 . S
C11 C7 1.460 . S
C11 C10 1.477 1_455 S
C11 H31 0.930 . S
C12 N8 1.362 . S
C12 C9 1.449 . S
C12 C22 1.476 . S
H13 C7 0.929 . S
C14 O5 1.250 . S
C14 O6 1.258 . S
O15 Mn0 2.162 . S
O15 C3 1.281 . S
O16 Mn0 2.297 . S
O16 C3 1.236 . S
N17 Mn1 2.282 . S
N17 C18 1.328 . S
N17 C22 1.318 . S
C18 N17 1.328 . S
C18 C19 1.457 . S
C18 H23 0.929 . S
C19 C18 1.457 . S
C19 C20 1.291 . S
C19 H32 0.931 . S
C20 C19 1.291 . S
C20 C21 1.373 . S
C20 H33 0.929 1_455 S
C21 C20 1.373 . S
C21 C22 1.396 . S
C21 C28 1.403 1_455 S
C22 C12 1.476 . S
C22 N17 1.318 . S
C22 C21 1.396 . S
H23 C18 0.929 . S
O24 Mn0 2.385 . S
O24 C2 1.234 . S
O25 Mn0 2.209 . S
O25 Mn1 2.215 . S
O25 C2 1.283 . S
O26 Mn0 2.094 . S
O26 C4 1.240 . S
O27 Mn1 2.117 . S
O27 C4 1.264 . S
C28 C21 1.403 1_655 S
C28 C29 1.399 . S
C28 H34 0.929 . S
C29 C9 1.433 1_655 S
C29 C28 1.399 . S
C29 H35 0.930 . S
H30 C10 0.931 . S
H31 C11 0.930 . S
H32 C19 0.931 . S
H33 C20 0.929 1_655 S
H34 C28 0.929 . S
H35 C29 0.930 . S
Mn36 O41 2.095 . S
Mn36 O51 2.162 . S
Mn36 O52 2.297 . S
Mn36 O60 2.385 . S
Mn36 O61 2.209 . S
Mn36 O62 2.094 . S
Mn37 O42 2.121 . S
Mn37 N44 2.257 . S
Mn37 N53 2.282 . S
Mn37 O61 2.215 . S
Mn37 O63 2.117 . S
C38 O60 1.234 . S
C38 O61 1.283 . S
C39 O51 1.281 . S
C39 O52 1.236 . S
C40 O62 1.240 . S
C40 O63 1.264 . S
O41 Mn36 2.095 . S
O41 C50 1.250 . S
O42 Mn37 2.121 . S
O42 C50 1.258 . S
C43 N44 1.326 . S
C43 C47 1.460 . S
C43 H49 0.929 . S
N44 Mn37 2.257 . S
N44 C43 1.326 . S
N44 C48 1.362 . S
C45 C46 1.255 1_655 S
C45 C48 1.450 . S
C45 C65 1.433 1_655 S
C46 C45 1.255 1_455 S
C46 C47 1.477 1_455 S
C46 H66 0.931 . S
C47 C43 1.460 . S
C47 C46 1.477 1_655 S
C47 H67 0.930 . S
C48 N44 1.362 . S
C48 C45 1.450 . S
C48 C58 1.476 . S
H49 C43 0.929 . S
C50 O41 1.250 . S
C50 O42 1.258 . S
O51 Mn36 2.162 . S
O51 C39 1.281 . S
O52 Mn36 2.297 . S
O52 C39 1.236 . S
N53 Mn37 2.282 . S
N53 C54 1.328 . S
N53 C58 1.318 . S
C54 N53 1.328 . S
C54 C55 1.457 . S
C54 H59 0.929 . S
C55 C54 1.457 . S
C55 C56 1.291 . S
C55 H68 0.931 . S
C56 C55 1.291 . S
C56 C57 1.373 . S
C56 H69 0.929 1_655 S
C57 C56 1.373 . S
C57 C58 1.396 . S
C57 C64 1.403 1_655 S
C58 C48 1.476 . S
C58 N53 1.318 . S
C58 C57 1.396 . S
H59 C54 0.929 . S
O60 Mn36 2.385 . S
O60 C38 1.234 . S
O61 Mn36 2.209 . S
O61 Mn37 2.215 . S
O61 C38 1.283 . S
O62 Mn36 2.094 . S
O62 C40 1.240 . S
O63 Mn37 2.117 . S
O63 C40 1.264 . S
C64 C57 1.403 1_455 S
C64 C65 1.399 . S
C64 H70 0.929 . S
C65 C45 1.433 1_455 S
C65 C64 1.399 . S
C65 H71 0.930 . S
H66 C46 0.931 . S
H67 C47 0.930 . S
H68 C55 0.931 . S
H69 C56 0.929 1_455 S
H70 C64 0.929 . S
H71 C65 0.930 . S
Mn72 O77 2.095 . S
Mn72 O87 2.162 . S
Mn72 O88 2.297 . S
Mn72 O96 2.385 . S
Mn72 O97 2.209 . S
Mn72 O98 2.094 . S
Mn73 O78 2.121 . S
Mn73 N80 2.257 . S
Mn73 N89 2.282 . S
Mn73 O97 2.215 . S
Mn73 O99 2.117 . S
C74 O96 1.234 . S
C74 O97 1.283 . S
C75 O87 1.281 . S
C75 O88 1.236 . S
C76 O98 1.240 . S
C76 O99 1.264 . S
O77 Mn72 2.095 . S
O77 C86 1.250 . S
O78 Mn73 2.121 . S
O78 C86 1.258 . S
C79 N80 1.326 . S
C79 C83 1.460 . S
C79 H85 0.929 . S
N80 Mn73 2.257 . S
N80 C79 1.326 . S
N80 C84 1.362 . S
C81 C82 1.255 1_655 S
C81 C84 1.449 . S
C81 C101 1.433 1_655 S
C82 C81 1.255 1_455 S
C82 C83 1.477 1_455 S
C82 H102 0.931 . S
C83 C79 1.460 . S
C83 C82 1.477 1_655 S
C83 H103 0.930 . S
C84 N80 1.362 . S
C84 C81 1.449 . S
C84 C94 1.476 . S
H85 C79 0.929 . S
C86 O77 1.250 . S
C86 O78 1.258 . S
O87 Mn72 2.162 . S
O87 C75 1.281 . S
O88 Mn72 2.297 . S
O88 C75 1.236 . S
N89 Mn73 2.282 . S
N89 C90 1.328 . S
N89 C94 1.318 . S
C90 N89 1.328 . S
C90 C91 1.457 . S
C90 H95 0.929 . S
C91 C90 1.457 . S
C91 C92 1.291 . S
C91 H104 0.931 . S
C92 C91 1.291 . S
C92 C93 1.373 . S
C92 H105 0.929 1_655 S
C93 C92 1.373 . S
C93 C94 1.396 . S
C93 C100 1.403 1_655 S
C94 C84 1.476 . S
C94 N89 1.318 . S
C94 C93 1.396 . S
H95 C90 0.929 . S
O96 Mn72 2.385 . S
O96 C74 1.234 . S
O97 Mn72 2.209 . S
O97 Mn73 2.215 . S
O97 C74 1.283 . S
O98 Mn72 2.094 . S
O98 C76 1.240 . S
O99 Mn73 2.117 . S
O99 C76 1.264 . S
C100 C93 1.403 1_455 S
C100 C101 1.399 . S
C100 H106 0.929 . S
C101 C81 1.433 1_455 S
C101 C100 1.399 . S
C101 H107 0.930 . S
H102 C82 0.931 . S
H103 C83 0.930 . S
H104 C91 0.931 . S
H105 C92 0.929 1_455 S
H106 C100 0.929 . S
H107 C101 0.930 . S
Mn108 O113 2.095 . S
Mn108 O123 2.162 . S
Mn108 O124 2.297 . S
Mn108 O132 2.385 . S
Mn108 O133 2.209 . S
Mn108 O134 2.094 . S
Mn109 O114 2.121 . S
Mn109 N116 2.257 . S
Mn109 N125 2.282 . S
Mn109 O133 2.215 . S
Mn109 O135 2.117 . S
C110 O132 1.234 . S
C110 O133 1.283 . S
C111 O123 1.281 . S
C111 O124 1.236 . S
C112 O134 1.240 . S
C112 O135 1.264 . S
O113 Mn108 2.095 . S
O113 C122 1.250 . S
O114 Mn109 2.121 . S
O114 C122 1.258 . S
C115 N116 1.326 . S
C115 C119 1.460 . S
C115 H121 0.929 . S
N116 Mn109 2.257 . S
N116 C115 1.326 . S
N116 C120 1.362 . S
C117 C118 1.255 1_455 S
C117 C120 1.450 . S
C117 C137 1.433 1_455 S
C118 C117 1.255 1_655 S
C118 C119 1.477 1_655 S
C118 H138 0.931 . S
C119 C115 1.460 . S
C119 C118 1.477 1_455 S
C119 H139 0.930 . S
C120 N116 1.362 . S
C120 C117 1.450 . S
C120 C130 1.476 . S
H121 C115 0.929 . S
C122 O113 1.250 . S
C122 O114 1.258 . S
O123 Mn108 2.162 . S
O123 C111 1.281 . S
O124 Mn108 2.297 . S
O124 C111 1.236 . S
N125 Mn109 2.282 . S
N125 C126 1.328 . S
N125 C130 1.318 . S
C126 N125 1.328 . S
C126 C127 1.457 . S
C126 H131 0.929 . S
C127 C126 1.457 . S
C127 C128 1.291 . S
C127 H140 0.931 . S
C128 C127 1.291 . S
C128 C129 1.373 . S
C128 H141 0.929 1_455 S
C129 C128 1.373 . S
C129 C130 1.396 . S
C129 C136 1.403 1_455 S
C130 C120 1.476 . S
C130 N125 1.318 . S
C130 C129 1.396 . S
H131 C126 0.929 . S
O132 Mn108 2.385 . S
O132 C110 1.234 . S
O133 Mn108 2.209 . S
O133 Mn109 2.215 . S
O133 C110 1.283 . S
O134 Mn108 2.094 . S
O134 C112 1.240 . S
O135 Mn109 2.117 . S
O135 C112 1.264 . S
C136 C129 1.403 1_655 S
C136 C137 1.399 . S
C136 H142 0.929 . S
C137 C117 1.433 1_655 S
C137 C136 1.399 . S
C137 H143 0.930 . S
H138 C118 0.931 . S
H139 C119 0.930 . S
H140 C127 0.931 . S
H141 C128 0.929 1_655 S
H142 C136 0.929 . S
H143 C137 0.930 . S
Mn144 O149 2.095 . S
Mn144 O159 2.162 . S
Mn144 O160 2.297 . S
Mn144 O168 2.385 . S
Mn144 O169 2.209 . S
Mn144 O170 2.094 . S
Mn145 O150 2.121 . S
Mn145 N152 2.257 . S
Mn145 N161 2.282 . S
Mn145 O169 2.215 . S
Mn145 O171 2.117 . S
C146 O168 1.234 . S
C146 O169 1.283 . S
C147 O159 1.281 . S
C147 O160 1.236 . S
C148 O170 1.240 . S
C148 O171 1.264 . S
O149 Mn144 2.095 . S
O149 C158 1.250 . S
O150 Mn145 2.121 . S
O150 C158 1.258 . S
C151 N152 1.326 . S
C151 C155 1.460 . S
C151 H157 0.929 . S
N152 Mn145 2.257 . S
N152 C151 1.326 . S
N152 C156 1.362 . S
C153 C154 1.255 1_455 S
C153 C156 1.450 . S
C153 C173 1.433 1_455 S
C154 C153 1.255 1_655 S
C154 C155 1.477 1_655 S
C154 H174 0.931 . S
C155 C151 1.460 . S
C155 C154 1.477 1_455 S
C155 H175 0.930 . S
C156 N152 1.362 . S
C156 C153 1.450 . S
C156 C166 1.476 . S
H157 C151 0.929 . S
C158 O149 1.250 . S
C158 O150 1.258 . S
O159 Mn144 2.162 . S
O159 C147 1.281 . S
O160 Mn144 2.297 . S
O160 C147 1.236 . S
N161 Mn145 2.282 . S
N161 C162 1.328 . S
N161 C166 1.318 . S
C162 N161 1.328 . S
C162 C163 1.457 . S
C162 H167 0.929 . S
C163 C162 1.457 . S
C163 C164 1.291 . S
C163 H176 0.931 . S
C164 C163 1.291 . S
C164 C165 1.373 . S
C164 H177 0.929 1_455 S
C165 C164 1.373 . S
C165 C166 1.396 . S
C165 C172 1.403 1_455 S
C166 C156 1.476 . S
C166 N161 1.318 . S
C166 C165 1.396 . S
H167 C162 0.929 . S
O168 Mn144 2.385 . S
O168 C146 1.234 . S
O169 Mn144 2.209 . S
O169 Mn145 2.215 . S
O169 C146 1.283 . S
O170 Mn144 2.094 . S
O170 C148 1.240 . S
O171 Mn145 2.117 . S
O171 C148 1.264 . S
C172 C165 1.403 1_655 S
C172 C173 1.399 . S
C172 H178 0.929 . S
C173 C153 1.433 1_655 S
C173 C172 1.399 . S
C173 H179 0.930 . S
H174 C154 0.931 . S
H175 C155 0.930 . S
H176 C163 0.931 . S
H177 C164 0.929 1_655 S
H178 C172 0.929 . S
H179 C173 0.930 . S
Mn180 O185 2.095 . S
Mn180 O195 2.162 . S
Mn180 O196 2.297 . S
Mn180 O204 2.385 . S
Mn180 O205 2.209 . S
Mn180 O206 2.094 . S
Mn181 O186 2.121 . S
Mn181 N188 2.257 . S
Mn181 N197 2.282 . S
Mn181 O205 2.215 . S
Mn181 O207 2.117 . S
C182 O204 1.234 . S
C182 O205 1.283 . S
C183 O195 1.281 . S
C183 O196 1.236 . S
C184 O206 1.240 . S
C184 O207 1.264 . S
O185 Mn180 2.095 . S
O185 C194 1.250 . S
O186 Mn181 2.121 . S
O186 C194 1.258 . S
C187 N188 1.326 . S
C187 C191 1.460 . S
C187 H193 0.929 . S
N188 Mn181 2.257 . S
N188 C187 1.326 . S
N188 C192 1.362 . S
C189 C190 1.255 1_455 S
C189 C192 1.450 . S
C189 C209 1.433 1_455 S
C190 C189 1.255 1_655 S
C190 C191 1.477 1_655 S
C190 H210 0.931 . S
C191 C187 1.460 . S
C191 C190 1.477 1_455 S
C191 H211 0.930 . S
C192 N188 1.362 . S
C192 C189 1.450 . S
C192 C202 1.476 . S
H193 C187 0.929 . S
C194 O185 1.250 . S
C194 O186 1.258 . S
O195 Mn180 2.162 . S
O195 C183 1.281 . S
O196 Mn180 2.297 . S
O196 C183 1.236 . S
N197 Mn181 2.282 . S
N197 C198 1.328 . S
N197 C202 1.318 . S
C198 N197 1.328 . S
C198 C199 1.457 . S
C198 H203 0.929 . S
C199 C198 1.457 . S
C199 C200 1.291 . S
C199 H212 0.931 . S
C200 C199 1.291 . S
C200 C201 1.373 . S
C200 H213 0.929 1_455 S
C201 C200 1.373 . S
C201 C202 1.396 . S
C201 C208 1.403 1_455 S
C202 C192 1.476 . S
C202 N197 1.318 . S
C202 C201 1.396 . S
H203 C198 0.929 . S
O204 Mn180 2.385 . S
O204 C182 1.234 . S
O205 Mn180 2.209 . S
O205 Mn181 2.215 . S
O205 C182 1.283 . S
O206 Mn180 2.094 . S
O206 C184 1.240 . S
O207 Mn181 2.117 . S
O207 C184 1.264 . S
C208 C201 1.403 1_655 S
C208 C209 1.399 . S
C208 H214 0.929 . S
C209 C189 1.433 1_655 S
C209 C208 1.399 . S
C209 H215 0.930 . S
H210 C190 0.931 . S
H211 C191 0.930 . S
H212 C199 0.931 . S
H213 C200 0.929 1_655 S
H214 C208 0.929 . S
H215 C209 0.930 . S
Mn216 O221 2.095 . S
Mn216 O231 2.162 . S
Mn216 O232 2.297 . S
Mn216 O240 2.385 . S
Mn216 O241 2.209 . S
Mn216 O242 2.094 . S
Mn217 O222 2.121 . S
Mn217 N224 2.257 . S
Mn217 N233 2.282 . S
Mn217 O241 2.215 . S
Mn217 O243 2.117 . S
C218 O240 1.234 . S
C218 O241 1.283 . S
C219 O231 1.281 . S
C219 O232 1.236 . S
C220 O242 1.240 . S
C220 O243 1.264 . S
O221 Mn216 2.095 . S
O221 C230 1.250 . S
O222 Mn217 2.121 . S
O222 C230 1.258 . S
C223 N224 1.326 . S
C223 C227 1.460 . S
C223 H229 0.929 . S
N224 Mn217 2.257 . S
N224 C223 1.326 . S
N224 C228 1.362 . S
C225 C226 1.255 1_655 S
C225 C228 1.450 . S
C225 C245 1.433 1_655 S
C226 C225 1.255 1_455 S
C226 C227 1.477 1_455 S
C226 H246 0.931 . S
C227 C223 1.460 . S
C227 C226 1.477 1_655 S
C227 H247 0.930 . S
C228 N224 1.362 . S
C228 C225 1.450 . S
C228 C238 1.476 . S
H229 C223 0.929 . S
C230 O221 1.250 . S
C230 O222 1.258 . S
O231 Mn216 2.162 . S
O231 C219 1.281 . S
O232 Mn216 2.297 . S
O232 C219 1.236 . S
N233 Mn217 2.282 . S
N233 C234 1.328 . S
N233 C238 1.318 . S
C234 N233 1.328 . S
C234 C235 1.457 . S
C234 H239 0.929 . S
C235 C234 1.457 . S
C235 C236 1.291 . S
C235 H248 0.931 . S
C236 C235 1.291 . S
C236 C237 1.373 . S
C236 H249 0.929 1_655 S
C237 C236 1.373 . S
C237 C238 1.396 . S
C237 C244 1.403 1_655 S
C238 C228 1.476 . S
C238 N233 1.318 . S
C238 C237 1.396 . S
H239 C234 0.929 . S
O240 Mn216 2.385 . S
O240 C218 1.234 . S
O241 Mn216 2.209 . S
O241 Mn217 2.215 . S
O241 C218 1.283 . S
O242 Mn216 2.094 . S
O242 C220 1.240 . S
O243 Mn217 2.117 . S
O243 C220 1.264 . S
C244 C237 1.403 1_455 S
C244 C245 1.399 . S
C244 H250 0.929 . S
C245 C225 1.433 1_455 S
C245 C244 1.399 . S
C245 H251 0.930 . S
H246 C226 0.931 . S
H247 C227 0.930 . S
H248 C235 0.931 . S
H249 C236 0.929 1_455 S
H250 C244 0.929 . S
H251 C245 0.930 . S
Mn252 O257 2.095 . S
Mn252 O267 2.162 . S
Mn252 O268 2.297 . S
Mn252 O276 2.385 . S
Mn252 O277 2.209 . S
Mn252 O278 2.094 . S
Mn253 O258 2.121 . S
Mn253 N260 2.257 . S
Mn253 N269 2.282 . S
Mn253 O277 2.215 . S
Mn253 O279 2.117 . S
C254 O276 1.234 . S
C254 O277 1.283 . S
C255 O267 1.281 . S
C255 O268 1.236 . S
C256 O278 1.240 . S
C256 O279 1.264 . S
O257 Mn252 2.095 . S
O257 C266 1.250 . S
O258 Mn253 2.121 . S
O258 C266 1.258 . S
C259 N260 1.326 . S
C259 C263 1.460 . S
C259 H265 0.929 . S
N260 Mn253 2.257 . S
N260 C259 1.326 . S
N260 C264 1.362 . S
C261 C262 1.255 1_655 S
C261 C264 1.449 . S
C261 C281 1.433 1_655 S
C262 C261 1.255 1_455 S
C262 C263 1.477 1_455 S
C262 H282 0.931 . S
C263 C259 1.460 . S
C263 C262 1.477 1_655 S
C263 H283 0.930 . S
C264 N260 1.362 . S
C264 C261 1.449 . S
C264 C274 1.476 . S
H265 C259 0.929 . S
C266 O257 1.250 . S
C266 O258 1.258 . S
O267 Mn252 2.162 . S
O267 C255 1.281 . S
O268 Mn252 2.297 . S
O268 C255 1.236 . S
N269 Mn253 2.282 . S
N269 C270 1.328 . S
N269 C274 1.318 . S
C270 N269 1.328 . S
C270 C271 1.457 . S
C270 H275 0.929 . S
C271 C270 1.457 . S
C271 C272 1.291 . S
C271 H284 0.931 . S
C272 C271 1.291 . S
C272 C273 1.373 . S
C272 H285 0.929 1_655 S
C273 C272 1.373 . S
C273 C274 1.396 . S
C273 C280 1.403 1_655 S
C274 C264 1.476 . S
C274 N269 1.318 . S
C274 C273 1.396 . S
H275 C270 0.929 . S
O276 Mn252 2.385 . S
O276 C254 1.234 . S
O277 Mn252 2.209 . S
O277 Mn253 2.215 . S
O277 C254 1.283 . S
O278 Mn252 2.094 . S
O278 C256 1.240 . S
O279 Mn253 2.117 . S
O279 C256 1.264 . S
C280 C273 1.403 1_455 S
C280 C281 1.399 . S
C280 H286 0.929 . S
C281 C261 1.433 1_455 S
C281 C280 1.399 . S
C281 H287 0.930 . S
H282 C262 0.931 . S
H283 C263 0.930 . S
H284 C271 0.931 . S
H285 C272 0.929 1_455 S
H286 C280 0.929 . S
H287 C281 0.930 . S
Mn288 O293 2.095 . S
Mn288 O303 2.162 . S
Mn288 O304 2.297 . S
Mn288 O312 2.385 . S
Mn288 O313 2.209 . S
Mn288 O314 2.094 . S
Mn289 O294 2.121 . S
Mn289 N296 2.257 . S
Mn289 N305 2.282 . S
Mn289 O313 2.215 . S
Mn289 O315 2.117 . S
C290 O312 1.234 . S
C290 O313 1.283 . S
C291 O303 1.281 . S
C291 O304 1.236 . S
C292 O314 1.240 . S
C292 O315 1.264 . S
O293 Mn288 2.095 . S
O293 C302 1.250 . S
O294 Mn289 2.121 . S
O294 C302 1.258 . S
C295 N296 1.326 . S
C295 C299 1.460 . S
C295 H301 0.929 . S
N296 Mn289 2.257 . S
N296 C295 1.326 . S
N296 C300 1.362 . S
C297 C298 1.258 . S
C297 C300 1.431 . S
C297 C317 1.449 . S
C298 C297 1.258 . S
C298 C299 1.477 . S
C298 H318 0.931 . S
C299 C295 1.460 . S
C299 C298 1.477 . S
C299 H319 0.930 . S
C300 N296 1.362 . S
C300 C297 1.431 . S
C300 C310 1.476 . S
H301 C295 0.929 . S
C302 O293 1.250 . S
C302 O294 1.258 . S
O303 Mn288 2.162 . S
O303 C291 1.281 . S
O304 Mn288 2.297 . S
O304 C291 1.236 . S
N305 Mn289 2.282 . S
N305 C306 1.328 . S
N305 C310 1.318 . S
C306 N305 1.328 . S
C306 C307 1.457 . S
C306 H311 0.929 . S
C307 C306 1.457 . S
C307 C308 1.291 . S
C307 H320 0.931 . S
C308 C307 1.291 . S
C308 C309 1.373 . S
C308 H321 0.929 . S
C309 C308 1.373 . S
C309 C310 1.396 . S
C309 C316 1.403 . S
C310 C300 1.476 . S
C310 N305 1.318 . S
C310 C309 1.396 . S
H311 C306 0.929 . S
O312 Mn288 2.385 . S
O312 C290 1.234 . S
O313 Mn288 2.209 . S
O313 Mn289 2.215 . S
O313 C290 1.283 . S
O314 Mn288 2.094 . S
O314 C292 1.240 . S
O315 Mn289 2.117 . S
O315 C292 1.264 . S
C316 C309 1.403 . S
C316 C317 1.399 . S
C316 H322 0.929 . S
C317 C297 1.449 . S
C317 C316 1.399 . S
C317 H323 0.930 . S
H318 C298 0.931 . S
H319 C299 0.930 . S
H320 C307 0.931 . S
H321 C308 0.929 . S
H322 C316 0.929 . S
H323 C317 0.930 . S
Mn324 O329 2.095 . S
Mn324 O339 2.162 . S
Mn324 O340 2.297 . S
Mn324 O348 2.385 . S
Mn324 O349 2.209 . S
Mn324 O350 2.094 . S
Mn325 O330 2.121 . S
Mn325 N332 2.257 . S
Mn325 N341 2.282 . S
Mn325 O349 2.215 . S
Mn325 O351 2.117 . S
C326 O348 1.234 . S
C326 O349 1.283 . S
C327 O339 1.281 . S
C327 O340 1.236 . S
C328 O350 1.240 . S
C328 O351 1.264 . S
O329 Mn324 2.095 . S
O329 C338 1.250 . S
O330 Mn325 2.121 . S
O330 C338 1.258 . S
C331 N332 1.326 . S
C331 C335 1.460 . S
C331 H337 0.929 . S
N332 Mn325 2.257 . S
N332 C331 1.326 . S
N332 C336 1.362 . S
C333 C334 1.258 . S
C333 C336 1.431 . S
C333 C353 1.449 . S
C334 C333 1.258 . S
C334 C335 1.477 . S
C334 H354 0.931 . S
C335 C331 1.460 . S
C335 C334 1.477 . S
C335 H355 0.930 . S
C336 N332 1.362 . S
C336 C333 1.431 . S
C336 C346 1.476 . S
H337 C331 0.929 . S
C338 O329 1.250 . S
C338 O330 1.258 . S
O339 Mn324 2.162 . S
O339 C327 1.281 . S
O340 Mn324 2.297 . S
O340 C327 1.236 . S
N341 Mn325 2.282 . S
N341 C342 1.328 . S
N341 C346 1.318 . S
C342 N341 1.328 . S
C342 C343 1.457 . S
C342 H347 0.929 . S
C343 C342 1.457 . S
C343 C344 1.291 . S
C343 H356 0.931 . S
C344 C343 1.291 . S
C344 C345 1.373 . S
C344 H357 0.929 . S
C345 C344 1.373 . S
C345 C346 1.396 . S
C345 C352 1.403 . S
C346 C336 1.476 . S
C346 N341 1.318 . S
C346 C345 1.396 . S
H347 C342 0.929 . S
O348 Mn324 2.385 . S
O348 C326 1.234 . S
O349 Mn324 2.209 . S
O349 Mn325 2.215 . S
O349 C326 1.283 . S
O350 Mn324 2.094 . S
O350 C328 1.240 . S
O351 Mn325 2.117 . S
O351 C328 1.264 . S
C352 C345 1.403 . S
C352 C353 1.399 . S
C352 H358 0.929 . S
C353 C333 1.449 . S
C353 C352 1.399 . S
C353 H359 0.930 . S
H354 C334 0.931 . S
H355 C335 0.930 . S
H356 C343 0.931 . S
H357 C344 0.929 . S
H358 C352 0.929 . S
H359 C353 0.930 . S
Mn360 O365 2.095 . S
Mn360 O375 2.162 . S
Mn360 O376 2.297 . S
Mn360 O384 2.385 . S
Mn360 O385 2.209 . S
Mn360 O386 2.094 . S
Mn361 O366 2.121 . S
Mn361 N368 2.257 . S
Mn361 N377 2.282 . S
Mn361 O385 2.215 . S
Mn361 O387 2.117 . S
C362 O384 1.234 . S
C362 O385 1.283 . S
C363 O375 1.281 . S
C363 O376 1.236 . S
C364 O386 1.240 . S
C364 O387 1.264 . S
O365 Mn360 2.095 . S
O365 C374 1.250 . S
O366 Mn361 2.121 . S
O366 C374 1.258 . S
C367 N368 1.326 . S
C367 C371 1.460 . S
C367 H373 0.929 . S
N368 Mn361 2.257 . S
N368 C367 1.326 . S
N368 C372 1.362 . S
C369 C370 1.258 . S
C369 C372 1.431 . S
C369 C389 1.449 . S
C370 C369 1.258 . S
C370 C371 1.477 . S
C370 H390 0.931 . S
C371 C367 1.460 . S
C371 C370 1.477 . S
C371 H391 0.930 . S
C372 N368 1.362 . S
C372 C369 1.431 . S
C372 C382 1.476 . S
H373 C367 0.929 . S
C374 O365 1.250 . S
C374 O366 1.258 . S
O375 Mn360 2.162 . S
O375 C363 1.281 . S
O376 Mn360 2.297 . S
O376 C363 1.236 . S
N377 Mn361 2.282 . S
N377 C378 1.328 . S
N377 C382 1.318 . S
C378 N377 1.328 . S
C378 C379 1.457 . S
C378 H383 0.929 . S
C379 C378 1.457 . S
C379 C380 1.291 . S
C379 H392 0.931 . S
C380 C379 1.291 . S
C380 C381 1.373 . S
C380 H393 0.929 . S
C381 C380 1.373 . S
C381 C382 1.396 . S
C381 C388 1.403 . S
C382 C372 1.476 . S
C382 N377 1.318 . S
C382 C381 1.396 . S
H383 C378 0.929 . S
O384 Mn360 2.385 . S
O384 C362 1.234 . S
O385 Mn360 2.209 . S
O385 Mn361 2.215 . S
O385 C362 1.283 . S
O386 Mn360 2.094 . S
O386 C364 1.240 . S
O387 Mn361 2.117 . S
O387 C364 1.264 . S
C388 C381 1.403 . S
C388 C389 1.399 . S
C388 H394 0.929 . S
C389 C369 1.449 . S
C389 C388 1.399 . S
C389 H395 0.930 . S
H390 C370 0.931 . S
H391 C371 0.930 . S
H392 C379 0.931 . S
H393 C380 0.929 . S
H394 C388 0.929 . S
H395 C389 0.930 . S
Mn396 O401 2.095 . S
Mn396 O411 2.162 . S
Mn396 O412 2.297 . S
Mn396 O420 2.385 . S
Mn396 O421 2.209 . S
Mn396 O422 2.094 . S
Mn397 O402 2.121 . S
Mn397 N404 2.257 . S
Mn397 N413 2.282 . S
Mn397 O421 2.215 . S
Mn397 O423 2.117 . S
C398 O420 1.234 . S
C398 O421 1.283 . S
C399 O411 1.281 . S
C399 O412 1.236 . S
C400 O422 1.240 . S
C400 O423 1.264 . S
O401 Mn396 2.095 . S
O401 C410 1.250 . S
O402 Mn397 2.121 . S
O402 C410 1.258 . S
C403 N404 1.326 . S
C403 C407 1.460 . S
C403 H409 0.929 . S
N404 Mn397 2.257 . S
N404 C403 1.326 . S
N404 C408 1.362 . S
C405 C406 1.258 . S
C405 C408 1.431 . S
C405 C425 1.449 . S
C406 C405 1.258 . S
C406 C407 1.477 . S
C406 H426 0.931 . S
C407 C403 1.460 . S
C407 C406 1.477 . S
C407 H427 0.930 . S
C408 N404 1.362 . S
C408 C405 1.431 . S
C408 C418 1.476 . S
H409 C403 0.929 . S
C410 O401 1.250 . S
C410 O402 1.258 . S
O411 Mn396 2.162 . S
O411 C399 1.281 . S
O412 Mn396 2.297 . S
O412 C399 1.236 . S
N413 Mn397 2.282 . S
N413 C414 1.328 . S
N413 C418 1.318 . S
C414 N413 1.328 . S
C414 C415 1.457 . S
C414 H419 0.929 . S
C415 C414 1.457 . S
C415 C416 1.291 . S
C415 H428 0.931 . S
C416 C415 1.291 . S
C416 C417 1.373 . S
C416 H429 0.929 . S
C417 C416 1.373 . S
C417 C418 1.396 . S
C417 C424 1.403 . S
C418 C408 1.476 . S
C418 N413 1.318 . S
C418 C417 1.396 . S
H419 C414 0.929 . S
O420 Mn396 2.385 . S
O420 C398 1.234 . S
O421 Mn396 2.209 . S
O421 Mn397 2.215 . S
O421 C398 1.283 . S
O422 Mn396 2.094 . S
O422 C400 1.240 . S
O423 Mn397 2.117 . S
O423 C400 1.264 . S
C424 C417 1.403 . S
C424 C425 1.399 . S
C424 H430 0.929 . S
C425 C405 1.449 . S
C425 C424 1.399 . S
C425 H431 0.930 . S
H426 C406 0.931 . S
H427 C407 0.930 . S
H428 C415 0.931 . S
H429 C416 0.929 . S
H430 C424 0.929 . S
H431 C425 0.930 . S
Mn432 O437 2.095 . S
Mn432 O447 2.162 . S
Mn432 O448 2.297 . S
Mn432 O456 2.385 . S
Mn432 O457 2.209 . S
Mn432 O458 2.094 . S
Mn433 O438 2.121 . S
Mn433 N440 2.257 . S
Mn433 N449 2.282 . S
Mn433 O457 2.215 . S
Mn433 O459 2.117 . S
C434 O456 1.234 . S
C434 O457 1.283 . S
C435 O447 1.281 . S
C435 O448 1.236 . S
C436 O458 1.240 . S
C436 O459 1.264 . S
O437 Mn432 2.095 . S
O437 C446 1.250 . S
O438 Mn433 2.121 . S
O438 C446 1.258 . S
C439 N440 1.326 . S
C439 C443 1.460 . S
C439 H445 0.929 . S
N440 Mn433 2.257 . S
N440 C439 1.326 . S
N440 C444 1.362 . S
C441 C442 1.258 . S
C441 C444 1.431 . S
C441 C461 1.449 . S
C442 C441 1.258 . S
C442 C443 1.477 . S
C442 H462 0.931 . S
C443 C439 1.460 . S
C443 C442 1.477 . S
C443 H463 0.930 . S
C444 N440 1.362 . S
C444 C441 1.431 . S
C444 C454 1.476 . S
H445 C439 0.929 . S
C446 O437 1.250 . S
C446 O438 1.258 . S
O447 Mn432 2.162 . S
O447 C435 1.281 . S
O448 Mn432 2.297 . S
O448 C435 1.236 . S
N449 Mn433 2.282 . S
N449 C450 1.328 . S
N449 C454 1.318 . S
C450 N449 1.328 . S
C450 C451 1.457 . S
C450 H455 0.929 . S
C451 C450 1.457 . S
C451 C452 1.291 . S
C451 H464 0.931 . S
C452 C451 1.291 . S
C452 C453 1.373 . S
C452 H465 0.929 . S
C453 C452 1.373 . S
C453 C454 1.396 . S
C453 C460 1.403 . S
C454 C444 1.476 . S
C454 N449 1.318 . S
C454 C453 1.396 . S
H455 C450 0.929 . S
O456 Mn432 2.385 . S
O456 C434 1.234 . S
O457 Mn432 2.209 . S
O457 Mn433 2.215 . S
O457 C434 1.283 . S
O458 Mn432 2.094 . S
O458 C436 1.240 . S
O459 Mn433 2.117 . S
O459 C436 1.264 . S
C460 C453 1.403 . S
C460 C461 1.399 . S
C460 H466 0.929 . S
C461 C441 1.449 . S
C461 C460 1.399 . S
C461 H467 0.930 . S
H462 C442 0.931 . S
H463 C443 0.930 . S
H464 C451 0.931 . S
H465 C452 0.929 . S
H466 C460 0.929 . S
H467 C461 0.930 . S
Mn468 O473 2.095 . S
Mn468 O483 2.162 . S
Mn468 O484 2.297 . S
Mn468 O492 2.385 . S
Mn468 O493 2.209 . S
Mn468 O494 2.094 . S
Mn469 O474 2.121 . S
Mn469 N476 2.257 . S
Mn469 N485 2.282 . S
Mn469 O493 2.215 . S
Mn469 O495 2.117 . S
C470 O492 1.234 . S
C470 O493 1.283 . S
C471 O483 1.281 . S
C471 O484 1.236 . S
C472 O494 1.240 . S
C472 O495 1.264 . S
O473 Mn468 2.095 . S
O473 C482 1.250 . S
O474 Mn469 2.121 . S
O474 C482 1.258 . S
C475 N476 1.326 . S
C475 C479 1.460 . S
C475 H481 0.929 . S
N476 Mn469 2.257 . S
N476 C475 1.326 . S
N476 C480 1.362 . S
C477 C478 1.258 . S
C477 C480 1.431 . S
C477 C497 1.449 . S
C478 C477 1.258 . S
C478 C479 1.477 . S
C478 H498 0.931 . S
C479 C475 1.460 . S
C479 C478 1.477 . S
C479 H499 0.930 . S
C480 N476 1.362 . S
C480 C477 1.431 . S
C480 C490 1.476 . S
H481 C475 0.929 . S
C482 O473 1.250 . S
C482 O474 1.258 . S
O483 Mn468 2.162 . S
O483 C471 1.281 . S
O484 Mn468 2.297 . S
O484 C471 1.236 . S
N485 Mn469 2.282 . S
N485 C486 1.328 . S
N485 C490 1.318 . S
C486 N485 1.328 . S
C486 C487 1.457 . S
C486 H491 0.929 . S
C487 C486 1.457 . S
C487 C488 1.291 . S
C487 H500 0.931 . S
C488 C487 1.291 . S
C488 C489 1.373 . S
C488 H501 0.929 . S
C489 C488 1.373 . S
C489 C490 1.396 . S
C489 C496 1.403 . S
C490 C480 1.476 . S
C490 N485 1.318 . S
C490 C489 1.396 . S
H491 C486 0.929 . S
O492 Mn468 2.385 . S
O492 C470 1.234 . S
O493 Mn468 2.209 . S
O493 Mn469 2.215 . S
O493 C470 1.283 . S
O494 Mn468 2.094 . S
O494 C472 1.240 . S
O495 Mn469 2.117 . S
O495 C472 1.264 . S
C496 C489 1.403 . S
C496 C497 1.399 . S
C496 H502 0.929 . S
C497 C477 1.449 . S
C497 C496 1.399 . S
C497 H503 0.930 . S
H498 C478 0.931 . S
H499 C479 0.930 . S
H500 C487 0.931 . S
H501 C488 0.929 . S
H502 C496 0.929 . S
H503 C497 0.930 . S
Mn504 O509 2.095 . S
Mn504 O519 2.162 . S
Mn504 O520 2.297 . S
Mn504 O528 2.385 . S
Mn504 O529 2.209 . S
Mn504 O530 2.094 . S
Mn505 O510 2.121 . S
Mn505 N512 2.257 . S
Mn505 N521 2.282 . S
Mn505 O529 2.215 . S
Mn505 O531 2.117 . S
C506 O528 1.234 . S
C506 O529 1.283 . S
C507 O519 1.281 . S
C507 O520 1.236 . S
C508 O530 1.240 . S
C508 O531 1.264 . S
O509 Mn504 2.095 . S
O509 C518 1.250 . S
O510 Mn505 2.121 . S
O510 C518 1.258 . S
C511 N512 1.326 . S
C511 C515 1.460 . S
C511 H517 0.929 . S
N512 Mn505 2.257 . S
N512 C511 1.326 . S
N512 C516 1.362 . S
C513 C514 1.258 . S
C513 C516 1.431 . S
C513 C533 1.449 . S
C514 C513 1.258 . S
C514 C515 1.477 . S
C514 H534 0.931 . S
C515 C511 1.460 . S
C515 C514 1.477 . S
C515 H535 0.930 . S
C516 N512 1.362 . S
C516 C513 1.431 . S
C516 C526 1.476 . S
H517 C511 0.929 . S
C518 O509 1.250 . S
C518 O510 1.258 . S
O519 Mn504 2.162 . S
O519 C507 1.281 . S
O520 Mn504 2.297 . S
O520 C507 1.236 . S
N521 Mn505 2.282 . S
N521 C522 1.328 . S
N521 C526 1.318 . S
C522 N521 1.328 . S
C522 C523 1.457 . S
C522 H527 0.929 . S
C523 C522 1.457 . S
C523 C524 1.291 . S
C523 H536 0.931 . S
C524 C523 1.291 . S
C524 C525 1.373 . S
C524 H537 0.929 . S
C525 C524 1.373 . S
C525 C526 1.396 . S
C525 C532 1.403 . S
C526 C516 1.476 . S
C526 N521 1.318 . S
C526 C525 1.396 . S
H527 C522 0.929 . S
O528 Mn504 2.385 . S
O528 C506 1.234 . S
O529 Mn504 2.209 . S
O529 Mn505 2.215 . S
O529 C506 1.283 . S
O530 Mn504 2.094 . S
O530 C508 1.240 . S
O531 Mn505 2.117 . S
O531 C508 1.264 . S
C532 C525 1.403 . S
C532 C533 1.399 . S
C532 H538 0.929 . S
C533 C513 1.449 . S
C533 C532 1.399 . S
C533 H539 0.930 . S
H534 C514 0.931 . S
H535 C515 0.930 . S
H536 C523 0.931 . S
H537 C524 0.929 . S
H538 C532 0.929 . S
H539 C533 0.930 . S
Mn540 O545 2.095 . S
Mn540 O555 2.162 . S
Mn540 O556 2.297 . S
Mn540 O564 2.385 . S
Mn540 O565 2.209 . S
Mn540 O566 2.094 . S
Mn541 O546 2.121 . S
Mn541 N548 2.257 . S
Mn541 N557 2.282 . S
Mn541 O565 2.215 . S
Mn541 O567 2.117 . S
C542 O564 1.234 . S
C542 O565 1.283 . S
C543 O555 1.281 . S
C543 O556 1.236 . S
C544 O566 1.240 . S
C544 O567 1.264 . S
O545 Mn540 2.095 . S
O545 C554 1.250 . S
O546 Mn541 2.121 . S
O546 C554 1.258 . S
C547 N548 1.326 . S
C547 C551 1.460 . S
C547 H553 0.929 . S
N548 Mn541 2.257 . S
N548 C547 1.326 . S
N548 C552 1.362 . S
C549 C550 1.258 . S
C549 C552 1.431 . S
C549 C569 1.449 . S
C550 C549 1.258 . S
C550 C551 1.477 . S
C550 H570 0.931 . S
C551 C547 1.460 . S
C551 C550 1.477 . S
C551 H571 0.930 . S
C552 N548 1.362 . S
C552 C549 1.431 . S
C552 C562 1.476 . S
H553 C547 0.929 . S
C554 O545 1.250 . S
C554 O546 1.258 . S
O555 Mn540 2.162 . S
O555 C543 1.281 . S
O556 Mn540 2.297 . S
O556 C543 1.236 . S
N557 Mn541 2.282 . S
N557 C558 1.328 . S
N557 C562 1.318 . S
C558 N557 1.328 . S
C558 C559 1.457 . S
C558 H563 0.929 . S
C559 C558 1.457 . S
C559 C560 1.291 . S
C559 H572 0.931 . S
C560 C559 1.291 . S
C560 C561 1.373 . S
C560 H573 0.929 . S
C561 C560 1.373 . S
C561 C562 1.396 . S
C561 C568 1.403 . S
C562 C552 1.476 . S
C562 N557 1.318 . S
C562 C561 1.396 . S
H563 C558 0.929 . S
O564 Mn540 2.385 . S
O564 C542 1.234 . S
O565 Mn540 2.209 . S
O565 Mn541 2.215 . S
O565 C542 1.283 . S
O566 Mn540 2.094 . S
O566 C544 1.240 . S
O567 Mn541 2.117 . S
O567 C544 1.264 . S
C568 C561 1.403 . S
C568 C569 1.399 . S
C568 H574 0.929 . S
C569 C549 1.449 . S
C569 C568 1.399 . S
C569 H575 0.930 . S
H570 C550 0.931 . S
H571 C551 0.930 . S
H572 C559 0.931 . S
H573 C560 0.929 . S
H574 C568 0.929 . S
H575 C569 0.930 . S
C576 C577 1.363 . S
C576 C582 1.379 . S
C576 N584 1.356 . S
C577 C576 1.363 . S
C577 C583 1.363 . S
C578 C579 1.363 . S
C578 C583 1.379 . S
C578 N585 1.356 . S
C579 C578 1.363 . S
C579 C582 1.363 . S
N580 C582 1.356 . S
N580 H592 0.984 . S
N580 H593 0.985 . S
N581 C583 1.356 . S
N581 H586 0.984 . S
N581 H587 0.985 . S
C582 C576 1.379 . S
C582 C579 1.363 . S
C582 N580 1.356 . S
C583 C577 1.363 . S
C583 C578 1.379 . S
C583 N581 1.356 . S
N584 C576 1.356 . S
N584 H590 0.984 . S
N584 H591 0.984 . S
N585 C578 1.356 . S
N585 H588 0.984 . S
N585 H589 0.985 . S
H586 N581 0.984 . S
H587 N581 0.985 . S
H588 N585 0.984 . S
H589 N585 0.985 . S
H590 N584 0.984 . S
H591 N584 0.984 . S
H592 N580 0.984 . S
H593 N580 0.985 . S
C594 C595 1.363 . S
C594 C600 1.379 . S
C594 N602 1.356 . S
C595 C594 1.363 . S
C595 C601 1.363 . S
C596 C597 1.363 . S
C596 C601 1.379 . S
C596 N603 1.356 . S
C597 C596 1.363 . S
C597 C600 1.363 . S
N598 C600 1.356 . S
N598 H610 0.984 . S
N598 H611 0.985 . S
N599 C601 1.356 . S
N599 H604 0.984 . S
N599 H605 0.985 . S
C600 C594 1.379 . S
C600 C597 1.363 . S
C600 N598 1.356 . S
C601 C595 1.363 . S
C601 C596 1.379 . S
C601 N599 1.356 . S
N602 C594 1.356 . S
N602 H608 0.984 . S
N602 H609 0.984 . S
N603 C596 1.356 . S
N603 H606 0.984 . S
N603 H607 0.985 . S
H604 N599 0.984 . S
H605 N599 0.985 . S
H606 N603 0.984 . S
H607 N603 0.985 . S
H608 N602 0.984 . S
H609 N602 0.984 . S
H610 N598 0.984 . S
H611 N598 0.985 . S
C612 C613 1.363 . S
C612 C618 1.379 . S
C612 N620 1.356 . S
C613 C612 1.363 . S
C613 C619 1.363 . S
C614 C615 1.363 . S
C614 C619 1.379 . S
C614 N621 1.356 . S
C615 C614 1.363 . S
C615 C618 1.363 . S
N616 C618 1.356 . S
N616 H628 0.984 . S
N616 H629 0.985 . S
N617 C619 1.356 . S
N617 H622 0.984 . S
N617 H623 0.985 . S
C618 C612 1.379 . S
C618 C615 1.363 . S
C618 N616 1.356 . S
C619 C613 1.363 . S
C619 C614 1.379 . S
C619 N617 1.356 . S
N620 C612 1.356 . S
N620 H626 0.984 . S
N620 H627 0.984 . S
N621 C614 1.356 . S
N621 H624 0.984 . S
N621 H625 0.985 . S
H622 N617 0.984 . S
H623 N617 0.985 . S
H624 N621 0.984 . S
H625 N621 0.985 . S
H626 N620 0.984 . S
H627 N620 0.984 . S
H628 N616 0.984 . S
H629 N616 0.985 . S
C630 C631 1.363 . S
C630 C636 1.379 . S
C630 N638 1.356 . S
C631 C630 1.363 . S
C631 C637 1.363 . S
C632 C633 1.363 . S
C632 C637 1.379 . S
C632 N639 1.356 . S
C633 C632 1.363 . S
C633 C636 1.363 . S
N634 C636 1.356 . S
N634 H646 0.984 . S
N634 H647 0.985 . S
N635 C637 1.356 . S
N635 H640 0.984 . S
N635 H641 0.985 . S
C636 C630 1.379 . S
C636 C633 1.363 . S
C636 N634 1.356 . S
C637 C631 1.363 . S
C637 C632 1.379 . S
C637 N635 1.356 . S
N638 C630 1.356 . S
N638 H644 0.984 . S
N638 H645 0.984 . S
N639 C632 1.356 . S
N639 H642 0.984 . S
N639 H643 0.985 . S
H640 N635 0.984 . S
H641 N635 0.985 . S
H642 N639 0.984 . S
H643 N639 0.985 . S
H644 N638 0.984 . S
H645 N638 0.984 . S
H646 N634 0.984 . S
H647 N634 0.985 . S
C648 C649 1.363 . S
C648 C654 1.379 . S
C648 N656 1.356 . S
C649 C648 1.363 . S
C649 C655 1.363 . S
C650 C651 1.363 . S
C650 C655 1.379 . S
C650 N657 1.356 . S
C651 C650 1.363 . S
C651 C654 1.363 . S
N652 C654 1.356 . S
N652 H664 0.984 . S
N652 H665 0.985 . S
N653 C655 1.356 . S
N653 H658 0.984 . S
N653 H659 0.985 . S
C654 C648 1.379 . S
C654 C651 1.363 . S
C654 N652 1.356 . S
C655 C649 1.363 . S
C655 C650 1.379 . S
C655 N653 1.356 . S
N656 C648 1.356 . S
N656 H662 0.984 . S
N656 H663 0.984 . S
N657 C650 1.356 . S
N657 H660 0.984 . S
N657 H661 0.985 . S
H658 N653 0.984 . S
H659 N653 0.985 . S
H660 N657 0.984 . S
H661 N657 0.985 . S
H662 N656 0.984 . S
H663 N656 0.984 . S
H664 N652 0.984 . S
H665 N652 0.985 . S
C666 C667 1.363 . S
C666 C672 1.379 . S
C666 N674 1.356 . S
C667 C666 1.363 . S
C667 C673 1.363 . S
C668 C669 1.363 . S
C668 C673 1.379 . S
C668 N675 1.356 . S
C669 C668 1.363 . S
C669 C672 1.363 . S
N670 C672 1.356 . S
N670 H682 0.984 . S
N670 H683 0.985 . S
N671 C673 1.356 . S
N671 H676 0.984 . S
N671 H677 0.985 . S
C672 C666 1.379 . S
C672 C669 1.363 . S
C672 N670 1.356 . S
C673 C667 1.363 . S
C673 C668 1.379 . S
C673 N671 1.356 . S
N674 C666 1.356 . S
N674 H680 0.984 . S
N674 H681 0.984 . S
N675 C668 1.356 . S
N675 H678 0.984 . S
N675 H679 0.985 . S
H676 N671 0.984 . S
H677 N671 0.985 . S
H678 N675 0.984 . S
H679 N675 0.985 . S
H680 N674 0.984 . S
H681 N674 0.984 . S
H682 N670 0.984 . S
H683 N670 0.985 . S
C684 C685 1.363 . S
C684 C690 1.379 . S
C684 N692 1.356 . S
C685 C684 1.363 . S
C685 C691 1.363 . S
C686 C687 1.363 . S
C686 C691 1.379 . S
C686 N693 1.356 . S
C687 C686 1.363 . S
C687 C690 1.363 . S
N688 C690 1.356 . S
N688 H700 0.984 . S
N688 H701 0.985 . S
N689 C691 1.356 . S
N689 H694 0.984 . S
N689 H695 0.985 . S
C690 C684 1.379 . S
C690 C687 1.363 . S
C690 N688 1.356 . S
C691 C685 1.363 . S
C691 C686 1.379 . S
C691 N689 1.356 . S
N692 C684 1.356 . S
N692 H698 0.984 . S
N692 H699 0.984 . S
N693 C686 1.356 . S
N693 H696 0.984 . S
N693 H697 0.985 . S
H694 N689 0.984 . S
H695 N689 0.985 . S
H696 N693 0.984 . S
H697 N693 0.985 . S
H698 N692 0.984 . S
H699 N692 0.984 . S
H700 N688 0.984 . S
H701 N688 0.985 . S
C702 C703 1.363 . S
C702 C708 1.379 . S
C702 N710 1.356 . S
C703 C702 1.363 . S
C703 C709 1.363 . S
C704 C705 1.363 . S
C704 C709 1.379 . S
C704 N711 1.356 . S
C705 C704 1.363 . S
C705 C708 1.363 . S
N706 C708 1.356 . S
N706 H718 0.984 . S
N706 H719 0.985 . S
N707 C709 1.356 . S
N707 H712 0.984 . S
N707 H713 0.985 . S
C708 C702 1.379 . S
C708 C705 1.363 . S
C708 N706 1.356 . S
C709 C703 1.363 . S
C709 C704 1.379 . S
C709 N707 1.356 . S
N710 C702 1.356 . S
N710 H716 0.984 . S
N710 H717 0.984 . S
N711 C704 1.356 . S
N711 H714 0.984 . S
N711 H715 0.985 . S
H712 N707 0.984 . S
H713 N707 0.985 . S
H714 N711 0.984 . S
H715 N711 0.985 . S
H716 N710 0.984 . S
H717 N710 0.984 . S
H718 N706 0.984 . S
H719 N706 0.985 . S
C720 C721 1.363 . S
C720 C726 1.379 1_556 S
C720 N728 1.356 . S
C721 C720 1.363 . S
C721 C727 1.363 . S
C722 C723 1.363 . S
C722 C727 1.379 1_554 S
C722 N729 1.356 . S
C723 C722 1.363 . S
C723 C726 1.363 . S
N724 C726 1.356 . S
N724 H736 0.984 . S
N724 H737 0.985 . S
N725 C727 1.356 . S
N725 H730 0.984 . S
N725 H731 0.985 . S
C726 C720 1.379 1_554 S
C726 C723 1.363 . S
C726 N724 1.356 . S
C727 C721 1.363 . S
C727 C722 1.379 1_556 S
C727 N725 1.356 . S
N728 C720 1.356 . S
N728 H734 0.984 . S
N728 H735 0.984 . S
N729 C722 1.356 . S
N729 H732 0.984 . S
N729 H733 0.985 . S
H730 N725 0.984 . S
H731 N725 0.985 . S
H732 N729 0.984 . S
H733 N729 0.985 . S
H734 N728 0.984 . S
H735 N728 0.984 . S
H736 N724 0.984 . S
H737 N724 0.985 . S
C738 C739 1.363 . S
C738 C744 1.379 1_556 S
C738 N746 1.356 . S
C739 C738 1.363 . S
C739 C745 1.363 . S
C740 C741 1.363 . S
C740 C745 1.379 1_554 S
C740 N747 1.356 . S
C741 C740 1.363 . S
C741 C744 1.363 . S
N742 C744 1.356 . S
N742 H754 0.984 . S
N742 H755 0.985 . S
N743 C745 1.356 . S
N743 H748 0.984 . S
N743 H749 0.985 . S
C744 C738 1.379 1_554 S
C744 C741 1.363 . S
C744 N742 1.356 . S
C745 C739 1.363 . S
C745 C740 1.379 1_556 S
C745 N743 1.356 . S
N746 C738 1.356 . S
N746 H752 0.984 . S
N746 H753 0.984 . S
N747 C740 1.356 . S
N747 H750 0.984 . S
N747 H751 0.985 . S
H748 N743 0.984 . S
H749 N743 0.985 . S
H750 N747 0.984 . S
H751 N747 0.985 . S
H752 N746 0.984 . S
H753 N746 0.984 . S
H754 N742 0.984 . S
H755 N742 0.985 . S
C756 C757 1.363 . S
C756 C762 1.379 1_556 S
C756 N764 1.356 . S
C757 C756 1.363 . S
C757 C763 1.363 . S
C758 C759 1.363 . S
C758 C763 1.379 1_554 S
C758 N765 1.356 . S
C759 C758 1.363 . S
C759 C762 1.363 . S
N760 C762 1.356 . S
N760 H772 0.984 . S
N760 H773 0.985 . S
N761 C763 1.356 . S
N761 H766 0.984 . S
N761 H767 0.985 . S
C762 C756 1.379 1_554 S
C762 C759 1.363 . S
C762 N760 1.356 . S
C763 C757 1.363 . S
C763 C758 1.379 1_556 S
C763 N761 1.356 . S
N764 C756 1.356 . S
N764 H770 0.984 . S
N764 H771 0.984 . S
N765 C758 1.356 . S
N765 H768 0.984 . S
N765 H769 0.985 . S
H766 N761 0.984 . S
H767 N761 0.985 . S
H768 N765 0.984 . S
H769 N765 0.985 . S
H770 N764 0.984 . S
H771 N764 0.984 . S
H772 N760 0.984 . S
H773 N760 0.985 . S
C774 C775 1.363 . S
C774 C780 1.379 1_554 S
C774 N782 1.356 . S
C775 C774 1.363 . S
C775 C781 1.363 . S
C776 C777 1.363 . S
C776 C781 1.379 1_556 S
C776 N783 1.356 . S
C777 C776 1.363 . S
C777 C780 1.363 . S
N778 C780 1.356 . S
N778 H790 0.984 . S
N778 H791 0.985 . S
N779 C781 1.356 . S
N779 H784 0.984 . S
N779 H785 0.985 . S
C780 C774 1.379 1_556 S
C780 C777 1.363 . S
C780 N778 1.356 . S
C781 C775 1.363 . S
C781 C776 1.379 1_554 S
C781 N779 1.356 . S
N782 C774 1.356 . S
N782 H788 0.984 . S
N782 H789 0.984 . S
N783 C776 1.356 . S
N783 H786 0.984 . S
N783 H787 0.985 . S
H784 N779 0.984 . S
H785 N779 0.985 . S
H786 N783 0.984 . S
H787 N783 0.985 . S
H788 N782 0.984 . S
H789 N782 0.984 . S
H790 N778 0.984 . S
H791 N778 0.985 . S
C792 C793 1.363 . S
C792 C798 1.379 1_455 S
C792 N800 1.356 . S
C793 C792 1.363 . S
C793 C799 1.363 . S
C794 C795 1.363 . S
C794 C799 1.379 1_655 S
C794 N801 1.356 . S
C795 C794 1.363 . S
C795 C798 1.363 . S
N796 C798 1.356 . S
N796 H808 0.984 . S
N796 H809 0.985 . S
N797 C799 1.356 . S
N797 H802 0.984 . S
N797 H803 0.985 . S
C798 C792 1.379 1_655 S
C798 C795 1.363 . S
C798 N796 1.356 . S
C799 C793 1.363 . S
C799 C794 1.379 1_455 S
C799 N797 1.356 . S
N800 C792 1.356 . S
N800 H806 0.984 . S
N800 H807 0.984 . S
N801 C794 1.356 . S
N801 H804 0.984 . S
N801 H805 0.985 . S
H802 N797 0.984 . S
H803 N797 0.985 . S
H804 N801 0.984 . S
H805 N801 0.985 . S
H806 N800 0.984 . S
H807 N800 0.984 . S
H808 N796 0.984 . S
H809 N796 0.985 . S
C810 C811 1.363 . S
C810 C816 1.379 1_565 S
C810 N818 1.356 . S
C811 C810 1.363 . S
C811 C817 1.363 . S
C812 C813 1.363 . S
C812 C817 1.379 1_545 S
C812 N819 1.356 . S
C813 C812 1.363 . S
C813 C816 1.363 . S
N814 C816 1.356 . S
N814 H826 0.984 . S
N814 H827 0.985 . S
N815 C817 1.356 . S
N815 H820 0.984 . S
N815 H821 0.985 . S
C816 C810 1.379 1_545 S
C816 C813 1.363 . S
C816 N814 1.356 . S
C817 C811 1.363 . S
C817 C812 1.379 1_565 S
C817 N815 1.356 . S
N818 C810 1.356 . S
N818 H824 0.984 . S
N818 H825 0.984 . S
N819 C812 1.356 . S
N819 H822 0.984 . S
N819 H823 0.985 . S
H820 N815 0.984 . S
H821 N815 0.985 . S
H822 N819 0.984 . S
H823 N819 0.985 . S
H824 N818 0.984 . S
H825 N818 0.984 . S
H826 N814 0.984 . S
H827 N814 0.985 . S
C828 C829 1.363 . S
C828 C834 1.379 1_655 S
C828 N836 1.356 . S
C829 C828 1.363 . S
C829 C835 1.363 . S
C830 C831 1.363 . S
C830 C835 1.379 1_455 S
C830 N837 1.356 . S
C831 C830 1.363 . S
C831 C834 1.363 . S
N832 C834 1.356 . S
N832 H844 0.984 . S
N832 H845 0.985 . S
N833 C835 1.356 . S
N833 H838 0.984 . S
N833 H839 0.985 . S
C834 C828 1.379 1_455 S
C834 C831 1.363 . S
C834 N832 1.356 . S
C835 C829 1.363 . S
C835 C830 1.379 1_655 S
C835 N833 1.356 . S
N836 C828 1.356 . S
N836 H842 0.984 . S
N836 H843 0.984 . S
N837 C830 1.356 . S
N837 H840 0.984 . S
N837 H841 0.985 . S
H838 N833 0.984 . S
H839 N833 0.985 . S
H840 N837 0.984 . S
H841 N837 0.985 . S
H842 N836 0.984 . S
H843 N836 0.984 . S
H844 N832 0.984 . S
H845 N832 0.985 . S
C846 C847 1.363 . S
C846 C852 1.379 1_545 S
C846 N854 1.356 . S
C847 C846 1.363 . S
C847 C853 1.363 . S
C848 C849 1.363 . S
C848 C853 1.379 1_565 S
C848 N855 1.356 . S
C849 C848 1.363 . S
C849 C852 1.363 . S
N850 C852 1.356 . S
N850 H862 0.984 . S
N850 H863 0.985 . S
N851 C853 1.356 . S
N851 H856 0.984 . S
N851 H857 0.985 . S
C852 C846 1.379 1_565 S
C852 C849 1.363 . S
C852 N850 1.356 . S
C853 C847 1.363 . S
C853 C848 1.379 1_545 S
C853 N851 1.356 . S
N854 C846 1.356 . S
N854 H860 0.984 . S
N854 H861 0.984 . S
N855 C848 1.356 . S
N855 H858 0.984 . S
N855 H859 0.985 . S
H856 N851 0.984 . S
H857 N851 0.985 . S
H858 N855 0.984 . S
H859 N855 0.985 . S
H860 N854 0.984 . S
H861 N854 0.984 . S
H862 N850 0.984 . S
H863 N850 0.985 . S
C864 C865 1.363 . S
C864 C870 1.379 1_655 S
C864 N872 1.356 . S
C865 C864 1.363 . S
C865 C871 1.363 . S
C866 C867 1.363 . S
C866 C871 1.379 1_455 S
C866 N873 1.356 . S
C867 C866 1.363 . S
C867 C870 1.363 . S
N868 C870 1.356 . S
N868 H880 0.984 . S
N868 H881 0.985 . S
N869 C871 1.356 . S
N869 H874 0.984 . S
N869 H875 0.985 . S
C870 C864 1.379 1_455 S
C870 C867 1.363 . S
C870 N868 1.356 . S
C871 C865 1.363 . S
C871 C866 1.379 1_655 S
C871 N869 1.356 . S
N872 C864 1.356 . S
N872 H878 0.984 . S
N872 H879 0.984 . S
N873 C866 1.356 . S
N873 H876 0.984 . S
N873 H877 0.985 . S
H874 N869 0.984 . S
H875 N869 0.985 . S
H876 N873 0.984 . S
H877 N873 0.985 . S
H878 N872 0.984 . S
H879 N872 0.984 . S
H880 N868 0.984 . S
H881 N868 0.985 . S
C882 C883 1.363 . S
C882 C888 1.379 1_565 S
C882 N890 1.356 . S
C883 C882 1.363 . S
C883 C889 1.363 . S
C884 C885 1.363 . S
C884 C889 1.379 1_545 S
C884 N891 1.356 . S
C885 C884 1.363 . S
C885 C888 1.363 . S
N886 C888 1.356 . S
N886 H898 0.984 . S
N886 H899 0.985 . S
N887 C889 1.356 . S
N887 H892 0.984 . S
N887 H893 0.985 . S
C888 C882 1.379 1_545 S
C888 C885 1.363 . S
C888 N886 1.356 . S
C889 C883 1.363 . S
C889 C884 1.379 1_565 S
C889 N887 1.356 . S
N890 C882 1.356 . S
N890 H896 0.984 . S
N890 H897 0.984 . S
N891 C884 1.356 . S
N891 H894 0.984 . S
N891 H895 0.985 . S
H892 N887 0.984 . S
H893 N887 0.985 . S
H894 N891 0.984 . S
H895 N891 0.985 . S
H896 N890 0.984 . S
H897 N890 0.984 . S
H898 N886 0.984 . S
H899 N886 0.985 . S
C900 C901 1.363 . S
C900 C906 1.379 1_455 S
C900 N908 1.356 . S
C901 C900 1.363 . S
C901 C907 1.363 . S
C902 C903 1.363 . S
C902 C907 1.379 1_655 S
C902 N909 1.356 . S
C903 C902 1.363 . S
C903 C906 1.363 . S
N904 C906 1.356 . S
N904 H916 0.984 . S
N904 H917 0.985 . S
N905 C907 1.356 . S
N905 H910 0.984 . S
N905 H911 0.985 . S
C906 C900 1.379 1_655 S
C906 C903 1.363 . S
C906 N904 1.356 . S
C907 C901 1.363 . S
C907 C902 1.379 1_455 S
C907 N905 1.356 . S
N908 C900 1.356 . S
N908 H914 0.984 . S
N908 H915 0.984 . S
N909 C902 1.356 . S
N909 H912 0.984 . S
N909 H913 0.985 . S
H910 N905 0.984 . S
H911 N905 0.985 . S
H912 N909 0.984 . S
H913 N909 0.985 . S
H914 N908 0.984 . S
H915 N908 0.984 . S
H916 N904 0.984 . S
H917 N904 0.985 . S
C918 C919 1.363 . S
C918 C924 1.379 1_565 S
C918 N926 1.356 . S
C919 C918 1.363 . S
C919 C925 1.363 . S
C920 C921 1.363 . S
C920 C925 1.379 1_545 S
C920 N927 1.356 . S
C921 C920 1.363 . S
C921 C924 1.363 . S
N922 C924 1.356 . S
N922 H934 0.984 . S
N922 H935 0.985 . S
N923 C925 1.356 . S
N923 H928 0.984 . S
N923 H929 0.985 . S
C924 C918 1.379 1_545 S
C924 C921 1.363 . S
C924 N922 1.356 . S
C925 C919 1.363 . S
C925 C920 1.379 1_565 S
C925 N923 1.356 . S
N926 C918 1.356 . S
N926 H932 0.984 . S
N926 H933 0.984 . S
N927 C920 1.356 . S
N927 H930 0.984 . S
N927 H931 0.985 . S
H928 N923 0.984 . S
H929 N923 0.985 . S
H930 N927 0.984 . S
H931 N927 0.985 . S
H932 N926 0.984 . S
H933 N926 0.984 . S
H934 N922 0.984 . S
H935 N922 0.985 . S
C936 C937 1.363 . S
C936 C942 1.379 . S
C936 N944 1.356 . S
C937 C936 1.363 . S
C937 C943 1.363 . S
C938 C939 1.363 . S
C938 C943 1.379 . S
C938 N945 1.356 . S
C939 C938 1.363 . S
C939 C942 1.363 . S
N940 C942 1.356 . S
N940 H952 0.984 . S
N940 H953 0.985 . S
N941 C943 1.356 . S
N941 H946 0.984 . S
N941 H947 0.985 . S
C942 C936 1.379 . S
C942 C939 1.363 . S
C942 N940 1.356 . S
C943 C937 1.363 . S
C943 C938 1.379 . S
C943 N941 1.356 . S
N944 C936 1.356 . S
N944 H950 0.984 . S
N944 H951 0.984 . S
N945 C938 1.356 . S
N945 H948 0.984 . S
N945 H949 0.985 . S
H946 N941 0.984 . S
H947 N941 0.985 . S
H948 N945 0.984 . S
H949 N945 0.985 . S
H950 N944 0.984 . S
H951 N944 0.984 . S
H952 N940 0.984 . S
H953 N940 0.985 . S
C954 C955 1.363 . S
C954 C960 1.379 . S
C954 N962 1.356 . S
C955 C954 1.363 . S
C955 C961 1.363 . S
C956 C957 1.363 . S
C956 C961 1.379 . S
C956 N963 1.356 . S
C957 C956 1.363 . S
C957 C960 1.363 . S
N958 C960 1.356 . S
N958 H970 0.984 . S
N958 H971 0.985 . S
N959 C961 1.356 . S
N959 H964 0.984 . S
N959 H965 0.985 . S
C960 C954 1.379 . S
C960 C957 1.363 . S
C960 N958 1.356 . S
C961 C955 1.363 . S
C961 C956 1.379 . S
C961 N959 1.356 . S
N962 C954 1.356 . S
N962 H968 0.984 . S
N962 H969 0.984 . S
N963 C956 1.356 . S
N963 H966 0.984 . S
N963 H967 0.985 . S
H964 N959 0.984 . S
H965 N959 0.985 . S
H966 N963 0.984 . S
H967 N963 0.985 . S
H968 N962 0.984 . S
H969 N962 0.984 . S
H970 N958 0.984 . S
H971 N958 0.985 . S
C972 C973 1.363 . S
C972 C978 1.379 . S
C972 N980 1.356 . S
C973 C972 1.363 . S
C973 C979 1.363 . S
C974 C975 1.363 . S
C974 C979 1.379 . S
C974 N981 1.356 . S
C975 C974 1.363 . S
C975 C978 1.363 . S
N976 C978 1.356 . S
N976 H988 0.984 . S
N976 H989 0.985 . S
N977 C979 1.356 . S
N977 H982 0.984 . S
N977 H983 0.985 . S
C978 C972 1.379 . S
C978 C975 1.363 . S
C978 N976 1.356 . S
C979 C973 1.363 . S
C979 C974 1.379 . S
C979 N977 1.356 . S
N980 C972 1.356 . S
N980 H986 0.984 . S
N980 H987 0.984 . S
N981 C974 1.356 . S
N981 H984 0.984 . S
N981 H985 0.985 . S
H982 N977 0.984 . S
H983 N977 0.985 . S
H984 N981 0.984 . S
H985 N981 0.985 . S
H986 N980 0.984 . S
H987 N980 0.984 . S
H988 N976 0.984 . S
H989 N976 0.985 . S
C990 C991 1.363 . S
C990 C996 1.379 . S
C990 N998 1.356 . S
C991 C990 1.363 . S
C991 C997 1.363 . S
C992 C993 1.363 . S
C992 C997 1.379 . S
C992 N999 1.356 . S
C993 C992 1.363 . S
C993 C996 1.363 . S
N994 C996 1.356 . S
N994 H1006 0.984 . S
N994 H1007 0.985 . S
N995 C997 1.356 . S
N995 H1000 0.984 . S
N995 H1001 0.985 . S
C996 C990 1.379 . S
C996 C993 1.363 . S
C996 N994 1.356 . S
C997 C991 1.363 . S
C997 C992 1.379 . S
C997 N995 1.356 . S
N998 C990 1.356 . S
N998 H1004 0.984 . S
N998 H1005 0.984 . S
N999 C992 1.356 . S
N999 H1002 0.984 . S
N999 H1003 0.985 . S
H1000 N995 0.984 . S
H1001 N995 0.985 . S
H1002 N999 0.984 . S
H1003 N999 0.985 . S
H1004 N998 0.984 . S
H1005 N998 0.984 . S
H1006 N994 0.984 . S
H1007 N994 0.985 . S
C1008 C1009 1.363 . S
C1008 C1014 1.379 . S
C1008 N1016 1.356 . S
C1009 C1008 1.363 . S
C1009 C1015 1.363 . S
C1010 C1011 1.363 . S
C1010 C1015 1.379 . S
C1010 N1017 1.356 . S
C1011 C1010 1.363 . S
C1011 C1014 1.363 . S
N1012 C1014 1.356 . S
N1012 H1024 0.984 . S
N1012 H1025 0.985 . S
N1013 C1015 1.356 . S
N1013 H1018 0.984 . S
N1013 H1019 0.985 . S
C1014 C1008 1.379 . S
C1014 C1011 1.363 . S
C1014 N1012 1.356 . S
C1015 C1009 1.363 . S
C1015 C1010 1.379 . S
C1015 N1013 1.356 . S
N1016 C1008 1.356 . S
N1016 H1022 0.984 . S
N1016 H1023 0.984 . S
N1017 C1010 1.356 . S
N1017 H1020 0.984 . S
N1017 H1021 0.985 . S
H1018 N1013 0.984 . S
H1019 N1013 0.985 . S
H1020 N1017 0.984 . S
H1021 N1017 0.985 . S
H1022 N1016 0.984 . S
H1023 N1016 0.984 . S
H1024 N1012 0.984 . S
H1025 N1012 0.985 . S
C1026 C1027 1.363 . S
C1026 C1032 1.379 . S
C1026 N1034 1.356 . S
C1027 C1026 1.363 . S
C1027 C1033 1.363 . S
C1028 C1029 1.363 . S
C1028 C1033 1.379 . S
C1028 N1035 1.356 . S
C1029 C1028 1.363 . S
C1029 C1032 1.363 . S
N1030 C1032 1.356 . S
N1030 H1042 0.984 . S
N1030 H1043 0.985 . S
N1031 C1033 1.356 . S
N1031 H1036 0.984 . S
N1031 H1037 0.985 . S
C1032 C1026 1.379 . S
C1032 C1029 1.363 . S
C1032 N1030 1.356 . S
C1033 C1027 1.363 . S
C1033 C1028 1.379 . S
C1033 N1031 1.356 . S
N1034 C1026 1.356 . S
N1034 H1040 0.984 . S
N1034 H1041 0.984 . S
N1035 C1028 1.356 . S
N1035 H1038 0.984 . S
N1035 H1039 0.985 . S
H1036 N1031 0.984 . S
H1037 N1031 0.985 . S
H1038 N1035 0.984 . S
H1039 N1035 0.985 . S
H1040 N1034 0.984 . S
H1041 N1034 0.984 . S
H1042 N1030 0.984 . S
H1043 N1030 0.985 . S
C1044 C1045 1.363 . S
C1044 C1050 1.379 . S
C1044 N1052 1.356 . S
C1045 C1044 1.363 . S
C1045 C1051 1.363 . S
C1046 C1047 1.363 . S
C1046 C1051 1.379 . S
C1046 N1053 1.356 . S
C1047 C1046 1.363 . S
C1047 C1050 1.363 . S
N1048 C1050 1.356 . S
N1048 H1060 0.984 . S
N1048 H1061 0.985 . S
N1049 C1051 1.356 . S
N1049 H1054 0.984 . S
N1049 H1055 0.985 . S
C1050 C1044 1.379 . S
C1050 C1047 1.363 . S
C1050 N1048 1.356 . S
C1051 C1045 1.363 . S
C1051 C1046 1.379 . S
C1051 N1049 1.356 . S
N1052 C1044 1.356 . S
N1052 H1058 0.984 . S
N1052 H1059 0.984 . S
N1053 C1046 1.356 . S
N1053 H1056 0.984 . S
N1053 H1057 0.985 . S
H1054 N1049 0.984 . S
H1055 N1049 0.985 . S
H1056 N1053 0.984 . S
H1057 N1053 0.985 . S
H1058 N1052 0.984 . S
H1059 N1052 0.984 . S
H1060 N1048 0.984 . S
H1061 N1048 0.985 . S
C1062 C1063 1.363 . S
C1062 C1068 1.379 . S
C1062 N1070 1.356 . S
C1063 C1062 1.363 . S
C1063 C1069 1.363 . S
C1064 C1065 1.363 . S
C1064 C1069 1.379 . S
C1064 N1071 1.356 . S
C1065 C1064 1.363 . S
C1065 C1068 1.363 . S
N1066 C1068 1.356 . S
N1066 H1078 0.984 . S
N1066 H1079 0.985 . S
N1067 C1069 1.356 . S
N1067 H1072 0.984 . S
N1067 H1073 0.985 . S
C1068 C1062 1.379 . S
C1068 C1065 1.363 . S
C1068 N1066 1.356 . S
C1069 C1063 1.363 . S
C1069 C1064 1.379 . S
C1069 N1067 1.356 . S
N1070 C1062 1.356 . S
N1070 H1076 0.984 . S
N1070 H1077 0.984 . S
N1071 C1064 1.356 . S
N1071 H1074 0.984 . S
N1071 H1075 0.985 . S
H1072 N1067 0.984 . S
H1073 N1067 0.985 . S
H1074 N1071 0.984 . S
H1075 N1071 0.985 . S
H1076 N1070 0.984 . S
H1077 N1070 0.984 . S
H1078 N1066 0.984 . S
H1079 N1066 0.985 . S
C1080 C1081 1.363 . S
C1080 C1086 1.379 . S
C1080 N1088 1.356 . S
C1081 C1080 1.363 . S
C1081 C1087 1.363 . S
C1082 C1083 1.363 . S
C1082 C1087 1.379 . S
C1082 N1089 1.356 . S
C1083 C1082 1.363 . S
C1083 C1086 1.363 . S
N1084 C1086 1.356 . S
N1084 H1096 0.984 . S
N1084 H1097 0.985 . S
N1085 C1087 1.356 . S
N1085 H1090 0.984 . S
N1085 H1091 0.985 . S
C1086 C1080 1.379 . S
C1086 C1083 1.363 . S
C1086 N1084 1.356 . S
C1087 C1081 1.363 . S
C1087 C1082 1.379 . S
C1087 N1085 1.356 . S
N1088 C1080 1.356 . S
N1088 H1094 0.984 . S
N1088 H1095 0.984 . S
N1089 C1082 1.356 . S
N1089 H1092 0.984 . S
N1089 H1093 0.985 . S
H1090 N1085 0.984 . S
H1091 N1085 0.985 . S
H1092 N1089 0.984 . S
H1093 N1089 0.985 . S
H1094 N1088 0.984 . S
H1095 N1088 0.984 . S
H1096 N1084 0.984 . S
H1097 N1084 0.985 . S
C1098 C1099 1.363 . S
C1098 C1104 1.379 . S
C1098 N1106 1.356 . S
C1099 C1098 1.363 . S
C1099 C1105 1.363 . S
C1100 C1101 1.363 . S
C1100 C1105 1.379 . S
C1100 N1107 1.356 . S
C1101 C1100 1.363 . S
C1101 C1104 1.363 . S
N1102 C1104 1.356 . S
N1102 H1114 0.984 . S
N1102 H1115 0.985 . S
N1103 C1105 1.356 . S
N1103 H1108 0.984 . S
N1103 H1109 0.985 . S
C1104 C1098 1.379 . S
C1104 C1101 1.363 . S
C1104 N1102 1.356 . S
C1105 C1099 1.363 . S
C1105 C1100 1.379 . S
C1105 N1103 1.356 . S
N1106 C1098 1.356 . S
N1106 H1112 0.984 . S
N1106 H1113 0.984 . S
N1107 C1100 1.356 . S
N1107 H1110 0.984 . S
N1107 H1111 0.985 . S
H1108 N1103 0.984 . S
H1109 N1103 0.985 . S
H1110 N1107 0.984 . S
H1111 N1107 0.985 . S
H1112 N1106 0.984 . S
H1113 N1106 0.984 . S
H1114 N1102 0.984 . S
H1115 N1102 0.985 . S
C1116 C1117 1.363 . S
C1116 C1122 1.379 . S
C1116 N1124 1.356 . S
C1117 C1116 1.363 . S
C1117 C1123 1.363 . S
C1118 C1119 1.363 . S
C1118 C1123 1.379 . S
C1118 N1125 1.356 . S
C1119 C1118 1.363 . S
C1119 C1122 1.363 . S
N1120 C1122 1.356 . S
N1120 H1132 0.984 . S
N1120 H1133 0.985 . S
N1121 C1123 1.356 . S
N1121 H1126 0.984 . S
N1121 H1127 0.985 . S
C1122 C1116 1.379 . S
C1122 C1119 1.363 . S
C1122 N1120 1.356 . S
C1123 C1117 1.363 . S
C1123 C1118 1.379 . S
C1123 N1121 1.356 . S
N1124 C1116 1.356 . S
N1124 H1130 0.984 . S
N1124 H1131 0.984 . S
N1125 C1118 1.356 . S
N1125 H1128 0.984 . S
N1125 H1129 0.985 . S
H1126 N1121 0.984 . S
H1127 N1121 0.985 . S
H1128 N1125 0.984 . S
H1129 N1125 0.985 . S
H1130 N1124 0.984 . S
H1131 N1124 0.984 . S
H1132 N1120 0.984 . S
H1133 N1120 0.985 . S
C1134 C1135 1.363 . S
C1134 C1140 1.379 . S
C1134 N1142 1.356 . S
C1135 C1134 1.363 . S
C1135 C1141 1.363 . S
C1136 C1137 1.363 . S
C1136 C1141 1.379 . S
C1136 N1143 1.356 . S
C1137 C1136 1.363 . S
C1137 C1140 1.363 . S
N1138 C1140 1.356 . S
N1138 H1150 0.984 . S
N1138 H1151 0.985 . S
N1139 C1141 1.356 . S
N1139 H1144 0.984 . S
N1139 H1145 0.985 . S
C1140 C1134 1.379 . S
C1140 C1137 1.363 . S
C1140 N1138 1.356 . S
C1141 C1135 1.363 . S
C1141 C1136 1.379 . S
C1141 N1139 1.356 . S
N1142 C1134 1.356 . S
N1142 H1148 0.984 . S
N1142 H1149 0.984 . S
N1143 C1136 1.356 . S
N1143 H1146 0.984 . S
N1143 H1147 0.985 . S
H1144 N1139 0.984 . S
H1145 N1139 0.985 . S
H1146 N1143 0.984 . S
H1147 N1143 0.985 . S
H1148 N1142 0.984 . S
H1149 N1142 0.984 . S
H1150 N1138 0.984 . S
H1151 N1138 0.985 . S
C577 C544 1.153 . S
C579 C4 1.153 . S
C595 C436 1.153 . S
C597 C40 1.153 . S
C613 C76 1.153 . S
C615 C472 1.153 . S
C631 C508 1.153 . S
C633 C112 1.153 . S
C649 C328 1.153 . S
C651 C148 1.153 . S
C667 C184 1.153 . S
C669 C364 1.153 . S
C685 C220 1.153 . S
C687 C400 1.153 . S
C703 C256 1.153 . S
C705 C292 1.153 . S
C721 C183 1.520 . S
C723 C14 1.443 . S
C739 C230 1.443 . S
C741 C39 1.520 . S
C757 C255 1.520 . S
C759 C86 1.443 . S
C775 C111 1.520 . S
C777 C158 1.443 . S
C793 C2 1.575 . S
C795 C38 1.575 . S
C811 C75 1.520 . S
C813 C50 1.443 . S
C829 C74 1.575 . S
C831 C110 1.575 . S
C847 C3 1.520 . S
C849 C122 1.443 . S
C865 C254 1.575 . S
C867 C146 1.575 . S
C883 C147 1.520 . S
C885 C194 1.443 . S
C901 C182 1.575 . S
C903 C218 1.575 . S
C919 C266 1.443 . S
C921 C219 1.520 . S
C937 C471 1.520 . S
C939 C302 1.443 . S
C955 C327 1.520 . S
C957 C518 1.443 . S
C973 C543 1.520 . S
C975 C374 1.443 . S
C991 C446 1.443 . S
C993 C399 1.520 . S
C1009 C290 1.575 . S
C1011 C326 1.575 . S
C1027 C338 1.443 . S
C1029 C363 1.520 . S
C1045 C398 1.575 . S
C1047 C362 1.575 . S
C1063 C291 1.520 . S
C1065 C410 1.443 . S
C1081 C542 1.575 . S
C1083 C434 1.575 . S
C1099 C435 1.520 . S
C1101 C482 1.443 . S
C1117 C470 1.575 . S
C1119 C506 1.575 . S
C1135 C554 1.443 . S
C1137 C507 1.520 . S
