# Generated by pormake.
# Topology wgb, (5)-cn, num edge types: 1
# Building blocks:
#     Node 0, Type 0, BuildingBlock: XOMCOT_clean_sbu_0, # of connection points: 5
#     Node 1, Type 0, BuildingBlock: XOMCOT_clean_sbu_0, # of connection points: 5
#     Node 2, Type 0, BuildingBlock: XOMCOT_clean_sbu_0, # of connection points: 5
#     Node 3, Type 0, BuildingBlock: XOMCOT_clean_sbu_0, # of connection points: 5
#     Node 4, Type 0, BuildingBlock: XOMCOT_clean_sbu_0, # of connection points: 5
#     Node 5, Type 0, BuildingBlock: XOMCOT_clean_sbu_0, # of connection points: 5
#     Node 6, Type 0, BuildingBlock: XOMCOT_clean_sbu_0, # of connection points: 5
#     Node 7, Type 0, BuildingBlock: XOMCOT_clean_sbu_0, # of connection points: 5
#     Node 8, Type 0, BuildingBlock: XOMCOT_clean_sbu_0, # of connection points: 5
#     Node 9, Type 0, BuildingBlock: XOMCOT_clean_sbu_0, # of connection points: 5
#     Node 10, Type 0, BuildingBlock: XOMCOT_clean_sbu_0, # of connection points: 5
#     Node 11, Type 0, BuildingBlock: XOMCOT_clean_sbu_0, # of connection points: 5
#     Node 12, Type 0, BuildingBlock: XOMCOT_clean_sbu_0, # of connection points: 5
#     Node 13, Type 0, BuildingBlock: XOMCOT_clean_sbu_0, # of connection points: 5
#     Node 14, Type 0, BuildingBlock: XOMCOT_clean_sbu_0, # of connection points: 5
#     Node 15, Type 0, BuildingBlock: XOMCOT_clean_sbu_0, # of connection points: 5
#     Edge 16, Type (0, 0), BuildingBlock: UVAHIK_clean_linker_0, # of connection points: 2
#     Edge 17, Type (0, 0), BuildingBlock: UVAHIK_clean_linker_0, # of connection points: 2
#     Edge 18, Type (0, 0), BuildingBlock: UVAHIK_clean_linker_0, # of connection points: 2
#     Edge 19, Type (0, 0), BuildingBlock: UVAHIK_clean_linker_0, # of connection points: 2
#     Edge 20, Type (0, 0), BuildingBlock: UVAHIK_clean_linker_0, # of connection points: 2
#     Edge 21, Type (0, 0), BuildingBlock: UVAHIK_clean_linker_0, # of connection points: 2
#     Edge 22, Type (0, 0), BuildingBlock: UVAHIK_clean_linker_0, # of connection points: 2
#     Edge 23, Type (0, 0), BuildingBlock: UVAHIK_clean_linker_0, # of connection points: 2
#     Edge 24, Type (0, 0), BuildingBlock: UVAHIK_clean_linker_0, # of connection points: 2
#     Edge 25, Type (0, 0), BuildingBlock: UVAHIK_clean_linker_0, # of connection points: 2
#     Edge 26, Type (0, 0), BuildingBlock: UVAHIK_clean_linker_0, # of connection points: 2
#     Edge 27, Type (0, 0), BuildingBlock: UVAHIK_clean_linker_0, # of connection points: 2
#     Edge 28, Type (0, 0), BuildingBlock: UVAHIK_clean_linker_0, # of connection points: 2
#     Edge 29, Type (0, 0), BuildingBlock: UVAHIK_clean_linker_0, # of connection points: 2
#     Edge 30, Type (0, 0), BuildingBlock: UVAHIK_clean_linker_0, # of connection points: 2
#     Edge 31, Type (0, 0), BuildingBlock: UVAHIK_clean_linker_0, # of connection points: 2
#     Edge 32, Type (0, 0), BuildingBlock: UVAHIK_clean_linker_0, # of connection points: 2
#     Edge 33, Type (0, 0), BuildingBlock: UVAHIK_clean_linker_0, # of connection points: 2
#     Edge 34, Type (0, 0), BuildingBlock: UVAHIK_clean_linker_0, # of connection points: 2
#     Edge 35, Type (0, 0), BuildingBlock: UVAHIK_clean_linker_0, # of connection points: 2
#     Edge 36, Type (0, 0), BuildingBlock: UVAHIK_clean_linker_0, # of connection points: 2
#     Edge 37, Type (0, 0), BuildingBlock: UVAHIK_clean_linker_0, # of connection points: 2
#     Edge 38, Type (0, 0), BuildingBlock: UVAHIK_clean_linker_0, # of connection points: 2
#     Edge 39, Type (0, 0), BuildingBlock: UVAHIK_clean_linker_0, # of connection points: 2
#     Edge 40, Type (0, 0), BuildingBlock: UVAHIK_clean_linker_0, # of connection points: 2
#     Edge 41, Type (0, 0), BuildingBlock: UVAHIK_clean_linker_0, # of connection points: 2
#     Edge 42, Type (0, 0), BuildingBlock: UVAHIK_clean_linker_0, # of connection points: 2
#     Edge 43, Type (0, 0), BuildingBlock: UVAHIK_clean_linker_0, # of connection points: 2
#     Edge 44, Type (0, 0), BuildingBlock: UVAHIK_clean_linker_0, # of connection points: 2
#     Edge 45, Type (0, 0), BuildingBlock: UVAHIK_clean_linker_0, # of connection points: 2
#     Edge 46, Type (0, 0), BuildingBlock: UVAHIK_clean_linker_0, # of connection points: 2
#     Edge 47, Type (0, 0), BuildingBlock: UVAHIK_clean_linker_0, # of connection points: 2
#     Edge 48, Type (0, 0), BuildingBlock: UVAHIK_clean_linker_0, # of connection points: 2
#     Edge 49, Type (0, 0), BuildingBlock: UVAHIK_clean_linker_0, # of connection points: 2
#     Edge 50, Type (0, 0), BuildingBlock: UVAHIK_clean_linker_0, # of connection points: 2
#     Edge 51, Type (0, 0), BuildingBlock: UVAHIK_clean_linker_0, # of connection points: 2
#     Edge 52, Type (0, 0), BuildingBlock: UVAHIK_clean_linker_0, # of connection points: 2
#     Edge 53, Type (0, 0), BuildingBlock: UVAHIK_clean_linker_0, # of connection points: 2
#     Edge 54, Type (0, 0), BuildingBlock: UVAHIK_clean_linker_0, # of connection points: 2
#     Edge 55, Type (0, 0), BuildingBlock: UVAHIK_clean_linker_0, # of connection points: 2
# Relax obj value: 0.091
# Max RMSD: 0.117
# Mean RMSD: 0.117
data_MOF--net-wgb--node1-XOMCOT_clean_sbu_0--edge1-UVAHIK_clean_linker_0
_symmetry_space_group_name_H-M    P1
_symmetry_Int_Tables_number       1
_symmetry_cell_setting            triclinic
loop_
_symmetry_equiv_pos_as_xyz
'x, y, z'
_cell_length_a     72.632955
_cell_length_b     72.55723
_cell_length_c     34.732336
_cell_angle_alpha  90.044051
_cell_angle_beta   90.044988
_cell_angle_gamma 90.072258
loop_
_atom_site_label
_atom_site_type_symbol
_atom_site_fract_x
_atom_site_fract_y
_atom_site_fract_z
_atom_type_partial_charge
Co0 Co 0.33748 0.10042 0.17427 0.0
C1 C 0.33454 0.14117 0.16729 0.0
C2 C 0.32335 0.13105 0.2204 0.0
C3 C 0.32213 0.14993 0.22041 0.0
N4 N 0.33097 0.12553 0.18699 0.0
N5 N 0.32924 0.15633 0.1871 0.0
H6 H 0.34151 0.1415 0.13981 0.0
H7 H 0.3194 0.12205 0.24376 0.0
C8 C 0.30877 0.07657 0.21525 0.0
O9 O 0.3129 0.06164 0.19581 0.0
N10 N 0.3444 0.07527 0.16217 0.0
C11 C 0.34449 0.06692 0.12748 0.0
C12 C 0.35053 0.04908 0.13203 0.0
C13 C 0.35088 0.06254 0.1871 0.0
N14 N 0.35442 0.04629 0.16958 0.0
C15 C 0.3301 0.10983 0.09543 0.0
C16 C 0.29488 0.09556 0.09132 0.0
C17 C 0.30265 0.10324 0.05814 0.0
C18 C 0.32042 0.11069 0.06062 0.0
C19 C 0.3049 0.09517 0.12563 0.0
N20 N 0.32247 0.10196 0.12745 0.0
H21 H 0.34392 0.11526 0.09629 0.0
H22 H 0.29827 0.08925 0.1502 0.0
H23 H 0.34033 0.07315 0.10064 0.0
H24 H 0.35249 0.06501 0.21764 0.0
O25 O 0.36114 0.10865 0.15443 0.0
O26 O 0.35548 0.10093 0.21492 0.0
O27 O 0.31616 0.09211 0.20729 0.0
C28 C 0.36721 0.10676 0.1895 0.0
H29 H 0.31653 0.15828 0.2434 0.0
H30 H 0.35143 0.0388 0.10951 0.0
H31 H 0.28105 0.08995 0.09086 0.0
H32 H 0.32699 0.1167 0.03561 0.0
Co33 Co 0.10124 0.66746 0.83262 0.0
C34 C 0.14153 0.67129 0.83993 0.0
C35 C 0.13133 0.68526 0.78975 0.0
C36 C 0.15005 0.68801 0.79196 0.0
N37 N 0.12601 0.67493 0.82001 0.0
N38 N 0.15639 0.67916 0.82339 0.0
H39 H 0.1419 0.66336 0.8663 0.0
H40 H 0.1223 0.69048 0.76754 0.0
C41 C 0.07792 0.69931 0.80337 0.0
O42 O 0.06809 0.70013 0.83504 0.0
N43 N 0.07627 0.65977 0.84455 0.0
C44 C 0.06999 0.65183 0.87707 0.0
C45 C 0.05192 0.64684 0.87185 0.0
C46 C 0.06198 0.65897 0.81962 0.0
N47 N 0.0468 0.65138 0.83573 0.0
C48 C 0.10508 0.67331 0.9141 0.0
C49 C 0.10522 0.71135 0.9128 0.0
C50 C 0.10598 0.70239 0.9486 0.0
C51 C 0.10623 0.68306 0.94875 0.0
C52 C 0.10409 0.70101 0.87876 0.0
N53 N 0.10293 0.68221 0.87976 0.0
H54 H 0.10611 0.6585 0.91504 0.0
H55 H 0.10458 0.70825 0.85169 0.0
H56 H 0.07798 0.64887 0.90241 0.0
H57 H 0.06283 0.66361 0.79011 0.0
O58 O 0.11044 0.64387 0.85128 0.0
O59 O 0.10179 0.6498 0.79144 0.0
O60 O 0.09147 0.68826 0.80031 0.0
C61 C 0.10821 0.63801 0.81609 0.0
H62 H 0.15842 0.6957 0.77181 0.0
H63 H 0.04349 0.63967 0.89269 0.0
H64 H 0.10589 0.72624 0.91098 0.0
H65 H 0.10715 0.67542 0.97544 0.0
Co66 Co 0.66526 0.90297 0.17564 0.0
C67 C 0.67109 0.86226 0.16957 0.0
C68 C 0.67739 0.87297 0.22552 0.0
C69 C 0.67943 0.85416 0.22646 0.0
N70 N 0.67255 0.87814 0.18963 0.0
N71 N 0.67541 0.84741 0.19127 0.0
H72 H 0.66595 0.86132 0.14057 0.0
H73 H 0.67884 0.88223 0.24976 0.0
C74 C 0.70273 0.90717 0.21057 0.0
O75 O 0.70846 0.89333 0.18929 0.0
N76 N 0.65767 0.92763 0.16337 0.0
C77 C 0.65003 0.93363 0.13044 0.0
C78 C 0.64469 0.95167 0.13559 0.0
C79 C 0.65688 0.9419 0.18807 0.0
N80 N 0.64895 0.95687 0.17194 0.0
C81 C 0.6732 0.89185 0.09789 0.0
C82 C 0.70393 0.91371 0.08753 0.0
C83 C 0.69837 0.90212 0.05722 0.0
C84 C 0.68251 0.89136 0.0627 0.0
C85 C 0.694 0.91398 0.12203 0.0
N86 N 0.67946 0.90234 0.12781 0.0
H87 H 0.66057 0.88413 0.10054 0.0
H88 H 0.69793 0.92387 0.14372 0.0
H89 H 0.64788 0.92528 0.10502 0.0
H90 H 0.66165 0.94106 0.2175 0.0
O91 O 0.64182 0.89367 0.15694 0.0
O92 O 0.64762 0.90238 0.21691 0.0
O93 O 0.68636 0.91328 0.20668 0.0
C94 C 0.63591 0.89589 0.19203 0.0
H95 H 0.68334 0.84613 0.25139 0.0
H96 H 0.63751 0.95998 0.11455 0.0
H97 H 0.71586 0.92256 0.08488 0.0
H98 H 0.67698 0.88293 0.03971 0.0
Co99 Co 0.9004 0.33694 0.83587 0.0
C100 C 0.86036 0.33155 0.84665 0.0
C101 C 0.86928 0.32424 0.7897 0.0
C102 C 0.85055 0.32183 0.79181 0.0
N103 N 0.87539 0.33022 0.82407 0.0
N104 N 0.84492 0.32642 0.82761 0.0
H105 H 0.86076 0.33627 0.87619 0.0
H106 H 0.87779 0.32222 0.76452 0.0
C107 C 0.92239 0.30491 0.80297 0.0
O108 O 0.93358 0.3042 0.83267 0.0
N109 N 0.92571 0.34395 0.84648 0.0
C110 C 0.93267 0.35177 0.87859 0.0
C111 C 0.95063 0.35671 0.87194 0.0
C112 C 0.93948 0.34484 0.82038 0.0
N113 N 0.95498 0.35232 0.83533 0.0
C114 C 0.89834 0.3303 0.91727 0.0
C115 C 0.89663 0.2923 0.9137 0.0
C116 C 0.89764 0.30086 0.94982 0.0
C117 C 0.89816 0.32012 0.95137 0.0
C118 C 0.89721 0.30304 0.88022 0.0
N119 N 0.89913 0.32177 0.88225 0.0
H120 H 0.89766 0.34511 0.91916 0.0
H121 H 0.8958 0.29619 0.85282 0.0
H122 H 0.92519 0.35482 0.90452 0.0
H123 H 0.93797 0.34043 0.7908 0.0
O124 O 0.89195 0.36047 0.85609 0.0
O125 O 0.89969 0.35491 0.79549 0.0
O126 O 0.90886 0.31607 0.80244 0.0
C127 C 0.89371 0.36654 0.82096 0.0
H128 H 0.8417 0.31762 0.76831 0.0
H129 H 0.95946 0.36387 0.89213 0.0
H130 H 0.89561 0.27745 0.91133 0.0
H131 H 0.8981 0.32728 0.97875 0.0
Co132 Co 0.33648 0.40212 0.08186 0.0
C133 C 0.33392 0.36163 0.09155 0.0
C134 C 0.32445 0.37051 0.036 0.0
C135 C 0.32351 0.35162 0.03744 0.0
N136 N 0.3309 0.37677 0.06991 0.0
N137 N 0.32955 0.346 0.07228 0.0
H138 H 0.33975 0.36207 0.12023 0.0
H139 H 0.32106 0.37905 0.01153 0.0
C140 C 0.30377 0.42285 0.04826 0.0
O141 O 0.30251 0.43405 0.07789 0.0
N142 N 0.34237 0.42776 0.09267 0.0
C143 C 0.3494 0.43509 0.12522 0.0
C144 C 0.35328 0.45337 0.11905 0.0
C145 C 0.34272 0.44167 0.06676 0.0
N146 N 0.34902 0.45757 0.0823 0.0
C147 C 0.32958 0.39963 0.16311 0.0
C148 C 0.29171 0.39685 0.15892 0.0
C149 C 0.30007 0.39821 0.19519 0.0
C150 C 0.31929 0.39921 0.19704 0.0
C151 C 0.30255 0.39767 0.12561 0.0
N152 N 0.32118 0.40017 0.12795 0.0
H153 H 0.34439 0.39946 0.16526 0.0
H154 H 0.29586 0.39604 0.09811 0.0
H155 H 0.3525 0.42774 0.1513 0.0
H156 H 0.3386 0.44007 0.03701 0.0
O157 O 0.36021 0.39465 0.10259 0.0
O158 O 0.35464 0.40218 0.04187 0.0
O159 O 0.31544 0.40975 0.04802 0.0
C160 C 0.36637 0.39664 0.06758 0.0
H161 H 0.31878 0.34274 0.01443 0.0
H162 H 0.3595 0.46264 0.13974 0.0
H163 H 0.27691 0.39546 0.15628 0.0
H164 H 0.32634 0.39943 0.22454 0.0
Co165 Co 0.40136 0.66682 0.92615 0.0
C166 C 0.36115 0.6713 0.9167 0.0
C167 C 0.37112 0.68507 0.96741 0.0
C168 C 0.35249 0.68811 0.96446 0.0
N169 N 0.37656 0.67469 0.93729 0.0
N170 N 0.34629 0.67941 0.93271 0.0
H171 H 0.36086 0.66333 0.89035 0.0
H172 H 0.37999 0.69008 0.99014 0.0
C173 C 0.42522 0.69743 0.95877 0.0
O174 O 0.43585 0.6977 0.9282 0.0
N175 N 0.4264 0.65881 0.91596 0.0
C176 C 0.43405 0.65342 0.88243 0.0
C177 C 0.45187 0.648 0.8892 0.0
C178 C 0.43964 0.65617 0.94276 0.0
N179 N 0.45542 0.6497 0.92717 0.0
C180 C 0.39854 0.67348 0.84497 0.0
C181 C 0.3996 0.71149 0.84743 0.0
C182 C 0.39882 0.70274 0.81137 0.0
C183 C 0.39792 0.68345 0.81064 0.0
C184 C 0.40027 0.70091 0.88122 0.0
N185 N 0.40079 0.68208 0.87965 0.0
H186 H 0.39723 0.65868 0.84346 0.0
H187 H 0.39999 0.708 0.90848 0.0
H188 H 0.42735 0.65298 0.85482 0.0
H189 H 0.4376 0.65868 0.97317 0.0
O190 O 0.39202 0.64375 0.90526 0.0
O191 O 0.39954 0.64858 0.96622 0.0
O192 O 0.41102 0.6871 0.96013 0.0
C193 C 0.39329 0.63734 0.94017 0.0
H194 H 0.34407 0.69585 0.98443 0.0
H195 H 0.46147 0.64326 0.86757 0.0
H196 H 0.39981 0.72638 0.8496 0.0
H197 H 0.39644 0.67606 0.78371 0.0
Co198 Co 0.66523 0.60232 0.08751 0.0
C199 C 0.66949 0.64266 0.09464 0.0
C200 C 0.67796 0.63275 0.03915 0.0
C201 C 0.67994 0.65157 0.03982 0.0
N202 N 0.6715 0.6272 0.07354 0.0
N203 N 0.67455 0.65783 0.07466 0.0
H204 H 0.66397 0.64277 0.12356 0.0
H205 H 0.68078 0.62379 0.015 0.0
C206 C 0.69602 0.57934 0.05193 0.0
O207 O 0.69671 0.56779 0.081 0.0
N208 N 0.6587 0.57723 0.10059 0.0
C209 C 0.65334 0.57039 0.13485 0.0
C210 C 0.64817 0.5523 0.12996 0.0
C211 C 0.65626 0.56333 0.07525 0.0
N212 N 0.65006 0.54781 0.09244 0.0
C213 C 0.67299 0.60778 0.16777 0.0
C214 C 0.71082 0.60446 0.1637 0.0
C215 C 0.70256 0.60659 0.19987 0.0
C216 C 0.68342 0.60874 0.20154 0.0
C217 C 0.69987 0.60394 0.1305 0.0
N218 N 0.68108 0.60448 0.13293 0.0
H219 H 0.65827 0.60939 0.16988 0.0
H220 H 0.70672 0.60336 0.10308 0.0
H221 H 0.65243 0.578 0.16142 0.0
H222 H 0.65891 0.56473 0.04476 0.0
O223 O 0.64191 0.61091 0.10867 0.0
O224 O 0.64651 0.60213 0.04841 0.0
O225 O 0.68555 0.59343 0.05292 0.0
C226 C 0.63521 0.60831 0.07428 0.0
H227 H 0.68503 0.65995 0.01635 0.0
H228 H 0.6428 0.54342 0.1523 0.0
H229 H 0.72564 0.60348 0.16106 0.0
H230 H 0.67651 0.61072 0.22885 0.0
Co231 Co 0.59936 0.34023 0.92054 0.0
C232 C 0.64014 0.33403 0.91449 0.0
C233 C 0.62921 0.32791 0.97029 0.0
C234 C 0.64795 0.32562 0.97156 0.0
N235 N 0.62419 0.33281 0.93434 0.0
N236 N 0.65483 0.32951 0.93648 0.0
H237 H 0.64122 0.33858 0.8851 0.0
H238 H 0.61987 0.32665 0.99441 0.0
C239 C 0.59554 0.30226 0.95254 0.0
O240 O 0.60926 0.29709 0.93037 0.0
N241 N 0.57468 0.34788 0.90873 0.0
C242 C 0.56853 0.35578 0.87616 0.0
C243 C 0.5503 0.36042 0.88129 0.0
C244 C 0.56034 0.34788 0.93322 0.0
N245 N 0.54519 0.35548 0.91726 0.0
C246 C 0.6106 0.33313 0.84245 0.0
C247 C 0.5884 0.30275 0.83036 0.0
C248 C 0.60015 0.30843 0.80053 0.0
C249 C 0.61107 0.32413 0.80684 0.0
C250 C 0.58815 0.31235 0.86524 0.0
N251 N 0.59998 0.32666 0.87191 0.0
H252 H 0.61845 0.34564 0.84588 0.0
H253 H 0.57816 0.30833 0.88662 0.0
H254 H 0.57682 0.35839 0.85089 0.0
H255 H 0.56114 0.34259 0.96228 0.0
O256 O 0.60856 0.36395 0.90336 0.0
O257 O 0.59986 0.35725 0.96292 0.0
O258 O 0.58922 0.31862 0.95014 0.0
C259 C 0.60634 0.36933 0.93886 0.0
H260 H 0.65595 0.32215 0.99683 0.0
H261 H 0.54169 0.36743 0.86051 0.0
H262 H 0.57942 0.29093 0.82707 0.0
H263 H 0.61966 0.32975 0.78423 0.0
Co264 Co 0.83726 0.60005 0.67606 0.0
C265 C 0.83298 0.64099 0.67338 0.0
C266 C 0.82151 0.62927 0.72447 0.0
C267 C 0.82003 0.6481 0.72689 0.0
N268 N 0.82907 0.62467 0.69029 0.0
N269 N 0.82727 0.65548 0.6947 0.0
H270 H 0.84117 0.64246 0.64774 0.0
H271 H 0.81807 0.61966 0.74712 0.0
C272 C 0.79942 0.59334 0.70769 0.0
O273 O 0.79306 0.6063 0.68486 0.0
N274 N 0.84574 0.57564 0.66383 0.0
C275 C 0.85358 0.56975 0.63098 0.0
C276 C 0.85849 0.55153 0.63565 0.0
C277 C 0.84607 0.56117 0.68803 0.0
N278 N 0.85379 0.54618 0.67161 0.0
C279 C 0.82703 0.61278 0.60032 0.0
C280 C 0.80057 0.58626 0.58605 0.0
C281 C 0.80356 0.60005 0.55851 0.0
C282 C 0.81715 0.61329 0.56581 0.0
C283 C 0.81054 0.58648 0.62058 0.0
N284 N 0.823 0.60018 0.62823 0.0
H285 H 0.83837 0.62215 0.60381 0.0
H286 H 0.80839 0.57546 0.64098 0.0
H287 H 0.85581 0.57818 0.60573 0.0
H288 H 0.8408 0.56172 0.71712 0.0
O289 O 0.86035 0.61011 0.6574 0.0
O290 O 0.85484 0.60125 0.7174 0.0
O291 O 0.8164 0.58887 0.70643 0.0
C292 C 0.86635 0.60807 0.69252 0.0
H293 H 0.81445 0.65573 0.75097 0.0
H294 H 0.86542 0.54307 0.61449 0.0
H295 H 0.79052 0.57547 0.58109 0.0
H296 H 0.8205 0.62366 0.54449 0.0
Co297 Co 0.60089 0.16536 0.33595 0.0
C298 C 0.64128 0.16986 0.34569 0.0
C299 C 0.63253 0.17273 0.28692 0.0
C300 C 0.65131 0.17473 0.28833 0.0
N301 N 0.62627 0.16976 0.32281 0.0
N302 N 0.65686 0.17298 0.32528 0.0
H303 H 0.64076 0.16772 0.37648 0.0
H304 H 0.62403 0.17306 0.26137 0.0
C305 C 0.58116 0.1982 0.30019 0.0
O306 O 0.56938 0.19981 0.32868 0.0
N307 N 0.57517 0.16068 0.34771 0.0
C308 C 0.5677 0.15486 0.38108 0.0
C309 C 0.54949 0.15069 0.37502 0.0
C310 C 0.56141 0.15946 0.32161 0.0
N311 N 0.54546 0.15358 0.33758 0.0
C312 C 0.60447 0.17298 0.41671 0.0
C313 C 0.60739 0.21084 0.41106 0.0
C314 C 0.60617 0.20279 0.44762 0.0
C315 C 0.60514 0.18358 0.45023 0.0
C316 C 0.60631 0.1997 0.37819 0.0
N317 N 0.60374 0.18108 0.38128 0.0
H318 H 0.60437 0.15817 0.41937 0.0
H319 H 0.60774 0.20616 0.35043 0.0
H320 H 0.57492 0.15261 0.4077 0.0
H321 H 0.56326 0.16241 0.29135 0.0
O322 O 0.60753 0.14149 0.3574 0.0
O323 O 0.59969 0.14681 0.29677 0.0
O324 O 0.59407 0.18633 0.3014 0.0
C325 C 0.60489 0.13508 0.32274 0.0
H326 H 0.6602 0.17681 0.26373 0.0
H327 H 0.54026 0.14498 0.39634 0.0
H328 H 0.60879 0.22563 0.40788 0.0
H329 H 0.60496 0.17679 0.47801 0.0
Co330 Co 0.16252 0.40339 0.66827 0.0
C331 C 0.1681 0.36259 0.6607 0.0
C332 C 0.17392 0.37275 0.71733 0.0
C333 C 0.1758 0.35392 0.71761 0.0
N334 N 0.16946 0.37831 0.68148 0.0
N335 N 0.17208 0.3475 0.68199 0.0
H336 H 0.16331 0.36194 0.6314 0.0
H337 H 0.17524 0.38178 0.74197 0.0
C338 C 0.19985 0.40697 0.70446 0.0
O339 O 0.20563 0.39307 0.68342 0.0
N340 N 0.1553 0.42829 0.65663 0.0
C341 C 0.14797 0.43455 0.62359 0.0
C342 C 0.14342 0.45283 0.62848 0.0
C343 C 0.15507 0.44267 0.6812 0.0
N344 N 0.14787 0.45795 0.66478 0.0
C345 C 0.17058 0.39278 0.59028 0.0
C346 C 0.20186 0.41401 0.58138 0.0
C347 C 0.19621 0.40279 0.55055 0.0
C348 C 0.18007 0.39236 0.55529 0.0
C349 C 0.19175 0.41424 0.61565 0.0
N350 N 0.17691 0.4029 0.62068 0.0
H351 H 0.15779 0.3853 0.59242 0.0
H352 H 0.19579 0.42387 0.63775 0.0
H353 H 0.14565 0.42628 0.59811 0.0
H354 H 0.15987 0.44179 0.71062 0.0
O355 O 0.13901 0.3945 0.649 0.0
O356 O 0.14478 0.40276 0.70926 0.0
O357 O 0.18359 0.41325 0.69999 0.0
C358 C 0.13305 0.39657 0.68411 0.0
H359 H 0.1794 0.34563 0.74237 0.0
H360 H 0.13677 0.46143 0.60721 0.0
H361 H 0.214 0.4226 0.5793 0.0
H362 H 0.17448 0.38423 0.5319 0.0
Co363 Co 0.40178 0.83626 0.33282 0.0
C364 C 0.36148 0.83272 0.33957 0.0
C365 C 0.37159 0.81951 0.2884 0.0
C366 C 0.35285 0.81684 0.29037 0.0
N367 N 0.37697 0.82931 0.31943 0.0
N368 N 0.34658 0.82521 0.32243 0.0
H369 H 0.36117 0.84019 0.36655 0.0
H370 H 0.38061 0.81458 0.2659 0.0
C371 C 0.42467 0.8041 0.30364 0.0
O372 O 0.43441 0.80312 0.33545 0.0
N373 N 0.42681 0.84342 0.34548 0.0
C374 C 0.4332 0.85096 0.37837 0.0
C375 C 0.4513 0.85589 0.37326 0.0
C376 C 0.44104 0.84437 0.32053 0.0
N377 N 0.45629 0.85171 0.33687 0.0
C378 C 0.39739 0.83035 0.41405 0.0
C379 C 0.39687 0.79232 0.41253 0.0
C380 C 0.39613 0.80127 0.44837 0.0
C381 C 0.39604 0.8206 0.44862 0.0
C382 C 0.3982 0.80266 0.37856 0.0
N383 N 0.39958 0.82145 0.37971 0.0
H384 H 0.39658 0.84517 0.41508 0.0
H385 H 0.39775 0.79545 0.35143 0.0
H386 H 0.42529 0.85371 0.40389 0.0
H387 H 0.44007 0.84005 0.2908 0.0
O388 O 0.3929 0.85994 0.35163 0.0
O389 O 0.40183 0.85409 0.29194 0.0
O390 O 0.41129 0.81535 0.30045 0.0
C391 C 0.39552 0.86592 0.31667 0.0
H392 H 0.34444 0.80949 0.26969 0.0
H393 H 0.45981 0.86282 0.39436 0.0
H394 H 0.39609 0.77744 0.41064 0.0
H395 H 0.39516 0.82824 0.47534 0.0
Co396 Co 0.83942 0.90094 0.58985 0.0
C397 C 0.83687 0.86062 0.60085 0.0
C398 C 0.82894 0.86891 0.54384 0.0
C399 C 0.82787 0.85005 0.54608 0.0
N400 N 0.8345 0.87549 0.57816 0.0
N401 N 0.83292 0.84481 0.58186 0.0
H402 H 0.84185 0.86136 0.63018 0.0
H403 H 0.82616 0.87723 0.5187 0.0
C404 C 0.80647 0.92083 0.55543 0.0
O405 O 0.80497 0.93198 0.58508 0.0
N406 N 0.84464 0.92672 0.60033 0.0
C407 C 0.85125 0.93447 0.63284 0.0
C408 C 0.85486 0.95276 0.62602 0.0
C409 C 0.84495 0.94036 0.57387 0.0
N410 N 0.85085 0.95651 0.58893 0.0
C411 C 0.832 0.89878 0.6709 0.0
C412 C 0.79423 0.895 0.66566 0.0
C413 C 0.8023 0.89689 0.70212 0.0
C414 C 0.82148 0.89837 0.70452 0.0
C415 C 0.80529 0.89581 0.63266 0.0
N416 N 0.82384 0.89884 0.63548 0.0
H417 H 0.84678 0.89901 0.6735 0.0
H418 H 0.79885 0.8938 0.605 0.0
H419 H 0.85427 0.92742 0.65932 0.0
H420 H 0.84112 0.93837 0.54406 0.0
O421 O 0.86317 0.89412 0.61154 0.0
O422 O 0.85795 0.90129 0.55052 0.0
O423 O 0.81842 0.90797 0.55525 0.0
C424 C 0.86962 0.89624 0.5768 0.0
H425 H 0.82367 0.84092 0.52303 0.0
H426 H 0.86076 0.96233 0.6465 0.0
H427 H 0.7795 0.89321 0.66264 0.0
H428 H 0.82833 0.89901 0.73221 0.0
Co429 Co 0.90174 0.16393 0.42364 0.0
C430 C 0.86109 0.17075 0.41857 0.0
C431 C 0.87192 0.17419 0.47552 0.0
C432 C 0.85313 0.17613 0.47714 0.0
N433 N 0.877 0.17104 0.43874 0.0
N434 N 0.84635 0.17395 0.44132 0.0
H435 H 0.85998 0.16723 0.38853 0.0
H436 H 0.88125 0.17443 0.49982 0.0
C437 C 0.90592 0.20079 0.4613 0.0
O438 O 0.89176 0.20671 0.44123 0.0
N439 N 0.92632 0.15655 0.41021 0.0
C440 C 0.9321 0.14942 0.37659 0.0
C441 C 0.95045 0.14491 0.3802 0.0
C442 C 0.94101 0.15623 0.43383 0.0
N443 N 0.95604 0.14918 0.41627 0.0
C444 C 0.89046 0.17283 0.34653 0.0
C445 C 0.91211 0.20385 0.33773 0.0
C446 C 0.90073 0.19844 0.307 0.0
C447 C 0.89004 0.18246 0.31172 0.0
C448 C 0.91235 0.1936 0.37182 0.0
N449 N 0.90086 0.17885 0.3768 0.0
H450 H 0.88276 0.16016 0.34863 0.0
H451 H 0.92216 0.19739 0.39374 0.0
H452 H 0.9235 0.14727 0.35155 0.0
H453 H 0.94058 0.16095 0.46336 0.0
O454 O 0.89227 0.14079 0.40368 0.0
O455 O 0.90135 0.14568 0.46377 0.0
O456 O 0.91218 0.18457 0.45581 0.0
C457 C 0.89454 0.1344 0.43839 0.0
H458 H 0.84505 0.17862 0.5028 0.0
H459 H 0.9588 0.13845 0.35825 0.0
H460 H 0.92088 0.21587 0.33568 0.0
H461 H 0.88173 0.17707 0.2884 0.0
Co462 Co 0.16438 0.10106 0.5868 0.0
C463 C 0.16937 0.14201 0.59256 0.0
C464 C 0.18095 0.13077 0.54106 0.0
C465 C 0.18295 0.14959 0.54001 0.0
N466 N 0.17296 0.12585 0.57459 0.0
N467 N 0.17565 0.15668 0.57245 0.0
H468 H 0.16116 0.1433 0.6182 0.0
H469 H 0.18445 0.12139 0.51801 0.0
C470 C 0.20286 0.09491 0.55881 0.0
O471 O 0.20861 0.10763 0.58299 0.0
N472 N 0.15555 0.07651 0.59722 0.0
C473 C 0.14687 0.07065 0.62915 0.0
C474 C 0.14225 0.05238 0.62424 0.0
C475 C 0.156 0.06191 0.57324 0.0
N476 N 0.148 0.04688 0.58905 0.0
C477 C 0.17307 0.11287 0.66422 0.0
C478 C 0.19985 0.08668 0.67804 0.0
C479 C 0.1966 0.10023 0.706 0.0
C480 C 0.18273 0.11322 0.69905 0.0
C481 C 0.18999 0.08697 0.64347 0.0
N482 N 0.17757 0.10065 0.63587 0.0
H483 H 0.16163 0.12209 0.66066 0.0
H484 H 0.19239 0.07613 0.62276 0.0
H485 H 0.14393 0.07913 0.65401 0.0
H486 H 0.16211 0.06234 0.54486 0.0
O487 O 0.1409 0.11098 0.60343 0.0
O488 O 0.14789 0.10263 0.54374 0.0
O489 O 0.1859 0.09027 0.55807 0.0
C490 C 0.13581 0.10925 0.56759 0.0
H491 H 0.18902 0.15741 0.51674 0.0
H492 H 0.13486 0.04395 0.64476 0.0
H493 H 0.2101 0.07607 0.68257 0.0
H494 H 0.1791 0.12334 0.72069 0.0
Co495 Co 0.10233 0.83613 0.42815 0.0
C496 C 0.14246 0.83147 0.41916 0.0
C497 C 0.13229 0.81701 0.46876 0.0
C498 C 0.15092 0.81394 0.4659 0.0
N499 N 0.12699 0.82786 0.43928 0.0
N500 N 0.15725 0.82309 0.43485 0.0
H501 H 0.14286 0.83982 0.39336 0.0
H502 H 0.12333 0.81172 0.491 0.0
C503 C 0.07835 0.80497 0.45832 0.0
O504 O 0.06806 0.80473 0.42719 0.0
N505 N 0.07747 0.84461 0.41787 0.0
C506 C 0.07093 0.85291 0.38597 0.0
C507 C 0.0532 0.8586 0.39273 0.0
C508 C 0.06372 0.84589 0.44392 0.0
N509 N 0.04858 0.85415 0.42919 0.0
C510 C 0.10466 0.83031 0.34645 0.0
C511 C 0.10419 0.79226 0.34757 0.0
C512 C 0.10456 0.80127 0.3118 0.0
C513 C 0.10514 0.82058 0.31172 0.0
C514 C 0.10366 0.80258 0.38172 0.0
N515 N 0.10284 0.82141 0.38087 0.0
H516 H 0.10608 0.84509 0.34551 0.0
H517 H 0.10429 0.7953 0.40873 0.0
H518 H 0.07856 0.85565 0.36007 0.0
H519 H 0.06497 0.84113 0.4733 0.0
O520 O 0.11201 0.8594 0.4089 0.0
O521 O 0.10411 0.85378 0.46931 0.0
O522 O 0.09234 0.81554 0.46079 0.0
C523 C 0.11052 0.86535 0.44417 0.0
H524 H 0.15927 0.80589 0.48548 0.0
H525 H 0.04472 0.86619 0.37265 0.0
H526 H 0.10423 0.77736 0.34927 0.0
H527 H 0.10638 0.82818 0.28502 0.0
C528 C 0.29373 0.05912 0.26892 0.0
C529 C 0.29598 0.07559 0.24818 0.0
C530 C 0.28378 0.05899 0.30343 0.0
C531 C 0.26899 0.09112 0.38015 0.0
H532 H 0.23777 0.05069 0.41268 0.0
C533 C 0.20809 0.07796 0.49706 0.0
C534 C 0.21526 0.08809 0.52819 0.0
C535 C 0.21906 0.0739 0.46517 0.0
C536 C 0.2464 0.06212 0.40396 0.0
H537 H 0.28851 0.10448 0.24567 0.0
H538 H 0.27076 0.10416 0.30496 0.0
H539 H 0.25327 0.04915 0.35042 0.0
H540 H 0.23995 0.10068 0.55153 0.0
H541 H 0.25926 0.09315 0.49635 0.0
H542 H 0.26158 0.1045 0.43257 0.0
C543 C 0.27719 0.09148 0.29553 0.0
C544 C 0.25543 0.06116 0.36842 0.0
C545 C 0.28726 0.09165 0.26137 0.0
C546 C 0.23395 0.09304 0.52782 0.0
C547 C 0.24498 0.08883 0.49604 0.0
C548 C 0.25992 0.09213 0.41544 0.0
C549 C 0.27578 0.0753 0.31759 0.0
C550 C 0.26662 0.07578 0.35587 0.0
C551 C 0.23751 0.07973 0.46379 0.0
C552 C 0.24835 0.07774 0.42769 0.0
H553 H 0.3004 0.04656 0.25951 0.0
H554 H 0.28301 0.04631 0.31975 0.0
H555 H 0.27783 0.10247 0.37182 0.0
H556 H 0.19374 0.07389 0.49641 0.0
H557 H 0.21276 0.06702 0.44081 0.0
C558 C 0.06578 0.77614 0.48886 0.0
C559 C 0.07348 0.79382 0.49238 0.0
C560 C 0.06269 0.76536 0.52177 0.0
C561 C 0.05564 0.76708 0.62616 0.0
H562 H 0.08269 0.72117 0.6302 0.0
C563 C 0.06965 0.72884 0.76998 0.0
C564 C 0.07256 0.70977 0.76881 0.0
C565 C 0.0669 0.73871 0.73571 0.0
C566 C 0.07461 0.73368 0.62956 0.0
H567 H 0.08307 0.81449 0.53288 0.0
H568 H 0.07715 0.79593 0.59008 0.0
H569 H 0.0819 0.73869 0.5707 0.0
H570 H 0.07366 0.68578 0.73184 0.0
H571 H 0.06767 0.70257 0.67273 0.0
H572 H 0.04808 0.76208 0.68476 0.0
C573 C 0.07375 0.79029 0.56207 0.0
C574 C 0.07426 0.74376 0.59531 0.0
C575 C 0.07726 0.80083 0.52931 0.0
C576 C 0.07167 0.70056 0.73334 0.0
C577 C 0.06844 0.71027 0.69937 0.0
C578 C 0.05564 0.7568 0.66029 0.0
C579 C 0.06675 0.77235 0.55863 0.0
C580 C 0.06504 0.76068 0.59346 0.0
C581 C 0.0666 0.72958 0.69976 0.0
C582 C 0.06539 0.74007 0.66273 0.0
H583 H 0.06277 0.77044 0.46071 0.0
H584 H 0.05729 0.75153 0.51846 0.0
H585 H 0.0484 0.78012 0.62537 0.0
H586 H 0.07039 0.73621 0.79708 0.0
H587 H 0.06576 0.75356 0.73741 0.0
C588 C 0.78023 0.93577 0.51922 0.0
C589 C 0.79518 0.92347 0.52029 0.0
C590 C 0.77009 0.93813 0.48513 0.0
C591 C 0.77367 0.93138 0.37971 0.0
H592 H 0.72053 0.92662 0.38129 0.0
C593 C 0.732 0.90694 0.24877 0.0
C594 C 0.71438 0.91426 0.24233 0.0
C595 C 0.74209 0.91199 0.2814 0.0
C596 C 0.73534 0.92834 0.38035 0.0
H597 H 0.81126 0.90421 0.48615 0.0
H598 H 0.79371 0.90825 0.42765 0.0
H599 H 0.73751 0.92851 0.44195 0.0
H600 H 0.69387 0.93331 0.26433 0.0
H601 H 0.71155 0.94214 0.32118 0.0
H602 H 0.77163 0.93066 0.31827 0.0
C603 C 0.78984 0.91619 0.4528 0.0
C604 C 0.74504 0.92943 0.41512 0.0
C605 C 0.79979 0.91373 0.48664 0.0
C606 C 0.70739 0.92733 0.26846 0.0
C607 C 0.71746 0.93233 0.30119 0.0
C608 C 0.764 0.93031 0.34504 0.0
C609 C 0.77493 0.92844 0.45151 0.0
C610 C 0.76436 0.93038 0.41513 0.0
C611 C 0.73478 0.92446 0.30839 0.0
C612 C 0.74477 0.92823 0.34495 0.0
H613 H 0.77636 0.9435 0.54463 0.0
H614 H 0.75863 0.94766 0.48493 0.0
H615 H 0.78854 0.93247 0.37882 0.0
H616 H 0.7378 0.89684 0.22928 0.0
H617 H 0.75531 0.90551 0.28627 0.0
C618 C 0.91653 0.29843 0.73373 0.0
C619 C 0.92569 0.29369 0.768 0.0
C620 C 0.91925 0.28835 0.70017 0.0
C621 C 0.9313 0.24298 0.66439 0.0
H622 H 0.93337 0.26891 0.56677 0.0
C623 C 0.92668 0.20477 0.51842 0.0
C624 C 0.91357 0.21217 0.49289 0.0
C625 C 0.93239 0.21473 0.55079 0.0
C626 C 0.93282 0.26146 0.59377 0.0
H627 H 0.94506 0.27462 0.79373 0.0
H628 H 0.94966 0.2566 0.73444 0.0
H629 H 0.93614 0.28612 0.62683 0.0
H630 H 0.89678 0.23615 0.48054 0.0
H631 H 0.90674 0.2535 0.53687 0.0
H632 H 0.92729 0.21839 0.63126 0.0
C633 C 0.94039 0.26828 0.73396 0.0
C634 C 0.93445 0.2713 0.62815 0.0
C635 C 0.93779 0.27858 0.76779 0.0
C636 C 0.90689 0.23004 0.49959 0.0
C637 C 0.91268 0.24003 0.5318 0.0
C638 C 0.92969 0.23311 0.6299 0.0
C639 C 0.93118 0.27317 0.69978 0.0
C640 C 0.93305 0.26226 0.66383 0.0
C641 C 0.92524 0.23236 0.55815 0.0
C642 C 0.92982 0.24234 0.59427 0.0
H643 H 0.90721 0.31006 0.73258 0.0
H644 H 0.91168 0.29228 0.67457 0.0
H645 H 0.93006 0.23567 0.69143 0.0
H646 H 0.93215 0.19105 0.51409 0.0
H647 H 0.94221 0.20854 0.57036 0.0
C648 C 0.29749 0.41636 0.97913 0.0
C649 C 0.29256 0.42568 0.0131 0.0
C650 C 0.28748 0.41875 0.94537 0.0
C651 C 0.24215 0.43063 0.90852 0.0
H652 H 0.26835 0.43226 0.81124 0.0
C653 C 0.20423 0.42727 0.7622 0.0
C654 C 0.21139 0.41418 0.73629 0.0
C655 C 0.21425 0.43254 0.7948 0.0
C656 C 0.26083 0.43181 0.83814 0.0
H657 H 0.27318 0.44499 0.03804 0.0
H658 H 0.25533 0.44903 0.97841 0.0
H659 H 0.28541 0.43487 0.8715 0.0
H660 H 0.23501 0.39699 0.72353 0.0
H661 H 0.25247 0.40619 0.78031 0.0
H662 H 0.21762 0.42697 0.87509 0.0
C663 C 0.26709 0.43987 0.97833 0.0
C664 C 0.27058 0.43334 0.87264 0.0
C665 C 0.2773 0.43758 0.01237 0.0
C666 C 0.22909 0.40709 0.74286 0.0
C667 C 0.23914 0.41244 0.77534 0.0
C668 C 0.23236 0.42912 0.87392 0.0
C669 C 0.27218 0.43051 0.94445 0.0
C670 C 0.26143 0.43216 0.90823 0.0
C671 C 0.23169 0.42496 0.80206 0.0
C672 C 0.24168 0.42915 0.83839 0.0
H673 H 0.30925 0.4072 0.97835 0.0
H674 H 0.29158 0.41106 0.92004 0.0
H675 H 0.23473 0.42955 0.93547 0.0
H676 H 0.19065 0.43307 0.75798 0.0
H677 H 0.20823 0.44237 0.81461 0.0
C678 C 0.43078 0.80244 0.23359 0.0
C679 C 0.42986 0.79342 0.26923 0.0
C680 C 0.43393 0.79254 0.1998 0.0
C681 C 0.44646 0.74571 0.16166 0.0
H682 H 0.42081 0.76375 0.07121 0.0
C683 C 0.42528 0.70168 0.02983 0.0
C684 C 0.42973 0.70855 0.99316 0.0
C685 C 0.42851 0.71221 0.06279 0.0
C686 C 0.42826 0.7587 0.09609 0.0
H687 H 0.43184 0.7671 0.29796 0.0
H688 H 0.43631 0.74942 0.23864 0.0
H689 H 0.41984 0.78146 0.13053 0.0
H690 H 0.44128 0.7317 0.96216 0.0
H691 H 0.44626 0.75061 0.02018 0.0
H692 H 0.45368 0.72222 0.12716 0.0
C693 C 0.43527 0.76427 0.23665 0.0
C694 C 0.42782 0.76888 0.13024 0.0
C695 C 0.43262 0.77433 0.27074 0.0
C696 C 0.43777 0.7261 0.9901 0.0
C697 C 0.44057 0.73688 0.02316 0.0
C698 C 0.44654 0.73532 0.12765 0.0
C699 C 0.43564 0.77322 0.20053 0.0
C700 C 0.43685 0.76254 0.16368 0.0
C701 C 0.43589 0.73001 0.05976 0.0
C702 C 0.43737 0.7417 0.09463 0.0
H703 H 0.42892 0.81724 0.23182 0.0
H704 H 0.43476 0.80011 0.17303 0.0
H705 H 0.45387 0.74045 0.18635 0.0
H706 H 0.41919 0.68812 0.03304 0.0
H707 H 0.42464 0.70667 0.0906 0.0
C708 C 0.7219 0.56397 0.01546 0.0
C709 C 0.70682 0.57609 0.0164 0.0
C710 C 0.73192 0.56148 0.98128 0.0
C711 C 0.7283 0.56771 0.87558 0.0
H712 H 0.78128 0.5739 0.87794 0.0
C713 C 0.76978 0.59253 0.74463 0.0
C714 C 0.78775 0.58591 0.73907 0.0
C715 C 0.75966 0.58731 0.77707 0.0
C716 C 0.76653 0.57177 0.87675 0.0
H717 H 0.69011 0.5946 0.98186 0.0
H718 H 0.70743 0.59033 0.9231 0.0
H719 H 0.76421 0.57173 0.9383 0.0
H720 H 0.80881 0.56783 0.76231 0.0
H721 H 0.79106 0.55866 0.8187 0.0
H722 H 0.73049 0.56828 0.81415 0.0
C723 C 0.71158 0.58271 0.94846 0.0
C724 C 0.75676 0.57052 0.91138 0.0
C725 C 0.70177 0.58532 0.98242 0.0
C726 C 0.79504 0.5733 0.7658 0.0
C727 C 0.78492 0.56811 0.79828 0.0
C728 C 0.73804 0.56893 0.84102 0.0
C729 C 0.72679 0.57082 0.9474 0.0
C730 C 0.73748 0.56904 0.91114 0.0
C731 C 0.76725 0.57535 0.80471 0.0
C732 C 0.75722 0.57151 0.84118 0.0
H733 H 0.72609 0.55663 0.04115 0.0
H734 H 0.7436 0.55221 0.98125 0.0
H735 H 0.71346 0.56624 0.87448 0.0
H736 H 0.76374 0.60227 0.72467 0.0
H737 H 0.74616 0.59331 0.7813 0.0
C738 C 0.568 0.22509 0.26285 0.0
C739 C 0.57974 0.20972 0.26513 0.0
C740 C 0.56748 0.23583 0.2292 0.0
C741 C 0.59635 0.24655 0.14481 0.0
H742 H 0.55133 0.26258 0.09506 0.0
C743 C 0.59802 0.27325 0.99095 0.0
C744 C 0.5894 0.29027 0.9845 0.0
C745 C 0.59458 0.26338 0.02466 0.0
C746 C 0.56399 0.25827 0.10884 0.0
H747 H 0.59939 0.19312 0.23312 0.0
H748 H 0.59835 0.21151 0.17543 0.0
H749 H 0.54977 0.24636 0.15705 0.0
H750 H 0.56932 0.30963 0.00707 0.0
H751 H 0.56337 0.29233 0.06605 0.0
H752 H 0.61061 0.25812 0.09687 0.0
C753 C 0.58992 0.21565 0.19965 0.0
C754 C 0.56311 0.2491 0.14433 0.0
C755 C 0.59047 0.20506 0.2329 0.0
C756 C 0.57629 0.29659 0.01127 0.0
C757 C 0.57282 0.28668 0.04502 0.0
C758 C 0.59722 0.25556 0.10951 0.0
C759 C 0.5787 0.23132 0.19752 0.0
C760 C 0.57929 0.24282 0.16223 0.0
C761 C 0.58242 0.2703 0.05263 0.0
C762 C 0.58107 0.26121 0.09075 0.0
H763 H 0.55948 0.22895 0.28711 0.0
H764 H 0.55866 0.24785 0.22828 0.0
H765 H 0.6091 0.24228 0.15832 0.0
H766 H 0.60805 0.26789 0.97079 0.0
H767 H 0.60189 0.25058 0.02943 0.0
C768 C 0.33331 0.31278 0.05831 0.0
C769 C 0.33143 0.32718 0.08518 0.0
C770 C 0.33446 0.29448 0.07041 0.0
C771 C 0.32292 0.26423 0.15228 0.0
H772 H 0.35453 0.22948 0.0991 0.0
C773 C 0.33181 0.18934 0.2042 0.0
C774 C 0.33118 0.17541 0.17602 0.0
C775 C 0.33292 0.20788 0.19371 0.0
C776 C 0.34552 0.23899 0.11401 0.0
H777 H 0.32958 0.3335 0.14606 0.0
H778 H 0.33197 0.30152 0.16731 0.0
H779 H 0.35491 0.26192 0.08063 0.0
H780 H 0.33147 0.17018 0.11456 0.0
H781 H 0.33352 0.20261 0.0962 0.0
H782 H 0.31353 0.24128 0.18563 0.0
C783 C 0.33228 0.30443 0.13674 0.0
C784 C 0.34573 0.25759 0.10345 0.0
C785 C 0.3311 0.3228 0.1246 0.0
C786 C 0.3321 0.18051 0.13701 0.0
C787 C 0.33327 0.1991 0.12649 0.0
C788 C 0.32277 0.24565 0.16293 0.0
C789 C 0.33384 0.29004 0.10975 0.0
C790 C 0.33433 0.27042 0.12227 0.0
C791 C 0.33351 0.213 0.15475 0.0
C792 C 0.33399 0.2328 0.14378 0.0
H793 H 0.33393 0.3156 0.02777 0.0
H794 H 0.33545 0.28378 0.04877 0.0
H795 H 0.31373 0.27364 0.16696 0.0
H796 H 0.33156 0.18597 0.23453 0.0
H797 H 0.33344 0.21822 0.21619 0.0
C798 C 0.18629 0.69427 0.8345 0.0
C799 C 0.17517 0.67845 0.83633 0.0
C800 C 0.20467 0.69358 0.84619 0.0
C801 C 0.24425 0.66444 0.85161 0.0
H802 H 0.26175 0.69714 0.93203 0.0
C803 C 0.31969 0.6623 0.90649 0.0
C804 C 0.32755 0.67884 0.91952 0.0
C805 C 0.30101 0.66154 0.89662 0.0
C806 C 0.25725 0.68814 0.90901 0.0
H807 H 0.17444 0.64952 0.85132 0.0
H808 H 0.207 0.64815 0.87075 0.0
H809 H 0.2293 0.69725 0.91439 0.0
H810 H 0.3225 0.70769 0.93075 0.0
H811 H 0.29028 0.70678 0.91162 0.0
H812 H 0.27221 0.65591 0.84462 0.0
C813 C 0.20131 0.6611 0.86079 0.0
C814 C 0.2386 0.6881 0.89926 0.0
C815 C 0.18276 0.6619 0.84996 0.0
C816 C 0.31663 0.69473 0.92126 0.0
C817 C 0.29811 0.69411 0.91062 0.0
C818 C 0.26302 0.66474 0.86075 0.0
C819 C 0.21237 0.67696 0.85908 0.0
C820 C 0.23197 0.67631 0.87044 0.0
C821 C 0.2899 0.67743 0.89885 0.0
C822 C 0.26983 0.67669 0.88946 0.0
H823 H 0.18067 0.70719 0.82429 0.0
H824 H 0.21298 0.70597 0.84457 0.0
H825 H 0.23941 0.65533 0.82904 0.0
H826 H 0.32786 0.64984 0.9053 0.0
H827 H 0.29523 0.64838 0.88823 0.0
C828 C 0.67311 0.81425 0.20751 0.0
C829 C 0.67492 0.82828 0.17983 0.0
C830 C 0.67283 0.79573 0.19651 0.0
C831 C 0.68572 0.76477 0.11623 0.0
H832 H 0.65319 0.73029 0.16779 0.0
C833 C 0.67343 0.69117 0.06006 0.0
C834 C 0.67397 0.67679 0.08719 0.0
C835 C 0.67335 0.70954 0.07194 0.0
C836 C 0.66246 0.73974 0.1534 0.0
H837 H 0.67791 0.83367 0.1187 0.0
H838 H 0.67681 0.80146 0.09944 0.0
H839 H 0.65319 0.76267 0.18689 0.0
H840 H 0.67473 0.67063 0.14831 0.0
H841 H 0.67432 0.70278 0.16902 0.0
H842 H 0.69479 0.74186 0.0824 0.0
C843 C 0.67592 0.80477 0.12979 0.0
C844 C 0.6625 0.75829 0.16435 0.0
C845 C 0.67631 0.82329 0.14081 0.0
C846 C 0.67411 0.68129 0.12661 0.0
C847 C 0.67391 0.69972 0.1385 0.0
C848 C 0.68559 0.74628 0.10513 0.0
C849 C 0.67425 0.79076 0.15752 0.0
C850 C 0.67413 0.77103 0.14587 0.0
C851 C 0.67368 0.71402 0.11125 0.0
C852 C 0.67394 0.73358 0.12355 0.0
H853 H 0.67177 0.81749 0.23777 0.0
H854 H 0.67173 0.78531 0.21869 0.0
H855 H 0.69512 0.77412 0.10189 0.0
H856 H 0.67289 0.68831 0.02952 0.0
H857 H 0.67284 0.72027 0.05029 0.0
C858 C 0.82081 0.33836 0.87156 0.0
C859 C 0.82618 0.32662 0.84135 0.0
C860 C 0.80238 0.33922 0.88315 0.0
C861 C 0.76394 0.32999 0.91448 0.0
H862 H 0.72674 0.33113 0.83426 0.0
C863 C 0.68673 0.31849 0.94521 0.0
C864 C 0.67402 0.32976 0.92582 0.0
C865 C 0.70539 0.31894 0.93564 0.0
C866 C 0.73695 0.33098 0.857 0.0
H867 H 0.81644 0.30593 0.80101 0.0
H868 H 0.78442 0.30757 0.82093 0.0
H869 H 0.75924 0.33045 0.81677 0.0
H870 H 0.67107 0.35053 0.88137 0.0
H871 H 0.70365 0.35122 0.86445 0.0
H872 H 0.74161 0.33057 0.95472 0.0
C873 C 0.79439 0.31637 0.83515 0.0
C874 C 0.75556 0.33039 0.84699 0.0
C875 C 0.81277 0.31545 0.82372 0.0
C876 C 0.68041 0.34145 0.89646 0.0
C877 C 0.6991 0.34189 0.88684 0.0
C878 C 0.7453 0.33048 0.92451 0.0
C879 C 0.78894 0.32841 0.86466 0.0
C880 C 0.76924 0.32974 0.87559 0.0
C881 C 0.7118 0.33065 0.90638 0.0
C882 C 0.73161 0.33085 0.89586 0.0
H883 H 0.83072 0.34728 0.88556 0.0
H884 H 0.79856 0.3487 0.90588 0.0
H885 H 0.77418 0.32941 0.93714 0.0
H886 H 0.68223 0.30911 0.96752 0.0
H887 H 0.71477 0.30987 0.95075 0.0
C888 C 0.83688 0.81147 0.57024 0.0
C889 C 0.83425 0.82618 0.59601 0.0
C890 C 0.83759 0.79335 0.58349 0.0
C891 C 0.82347 0.76402 0.6648 0.0
H892 H 0.85658 0.72891 0.61698 0.0
C893 C 0.8293 0.68819 0.71503 0.0
C894 C 0.82936 0.67479 0.6857 0.0
C895 C 0.83101 0.70689 0.70613 0.0
C896 C 0.84718 0.73854 0.63045 0.0
H897 H 0.83051 0.8333 0.65613 0.0
H898 H 0.83214 0.8016 0.67945 0.0
H899 H 0.85798 0.76128 0.59849 0.0
H900 H 0.83109 0.67073 0.6239 0.0
H901 H 0.83428 0.70329 0.6085 0.0
H902 H 0.81264 0.74118 0.69665 0.0
C903 C 0.8334 0.80413 0.64885 0.0
C904 C 0.84797 0.75708 0.61985 0.0
C905 C 0.83266 0.82232 0.63554 0.0
C906 C 0.83131 0.68059 0.64729 0.0
C907 C 0.83312 0.69927 0.63843 0.0
C908 C 0.82275 0.74547 0.67554 0.0
C909 C 0.83579 0.78943 0.62291 0.0
C910 C 0.83593 0.77 0.63646 0.0
C911 C 0.83293 0.71263 0.66773 0.0
C912 C 0.83442 0.73249 0.65807 0.0
H913 H 0.83844 0.8139 0.5397 0.0
H914 H 0.83921 0.78236 0.56263 0.0
H915 H 0.81384 0.77355 0.67782 0.0
H916 H 0.82812 0.68427 0.74496 0.0
H917 H 0.83104 0.71686 0.72936 0.0
C918 C 0.81369 0.1676 0.45607 0.0
C919 C 0.82724 0.17377 0.43024 0.0
C920 C 0.79514 0.16742 0.44541 0.0
C921 C 0.7646 0.16891 0.35967 0.0
H922 H 0.72721 0.18159 0.43484 0.0
C923 C 0.68932 0.18255 0.31717 0.0
C924 C 0.6756 0.17381 0.33917 0.0
C925 C 0.70764 0.18256 0.32926 0.0
C926 C 0.7375 0.17786 0.41367 0.0
H927 H 0.83197 0.18481 0.37323 0.0
H928 H 0.79956 0.1849 0.35474 0.0
H929 H 0.7596 0.18176 0.45359 0.0
H930 H 0.67053 0.15855 0.39185 0.0
H931 H 0.70256 0.15889 0.41329 0.0
H932 H 0.74246 0.16538 0.31961 0.0
C933 C 0.80326 0.17977 0.38296 0.0
C934 C 0.75607 0.17791 0.42438 0.0
C935 C 0.82184 0.17978 0.39352 0.0
C936 C 0.68064 0.16554 0.37427 0.0
C937 C 0.69901 0.16569 0.38655 0.0
C938 C 0.74607 0.16903 0.34891 0.0
C939 C 0.78966 0.17356 0.40876 0.0
C940 C 0.76987 0.17346 0.39749 0.0
C941 C 0.71272 0.17399 0.36387 0.0
C942 C 0.73233 0.17355 0.37575 0.0
H943 H 0.81745 0.16259 0.48433 0.0
H944 H 0.78513 0.1622 0.46577 0.0
H945 H 0.77477 0.16503 0.33839 0.0
H946 H 0.68598 0.18948 0.29052 0.0
H947 H 0.71786 0.18939 0.31156 0.0
C948 C 0.17371 0.32363 0.63094 0.0
C949 C 0.17155 0.32844 0.66992 0.0
C950 C 0.17342 0.30514 0.61944 0.0
C951 C 0.15886 0.25855 0.65191 0.0
H952 H 0.19357 0.24176 0.57477 0.0
C953 C 0.17231 0.18132 0.62141 0.0
C954 C 0.17419 0.17594 0.58269 0.0
C955 C 0.17133 0.19998 0.6314 0.0
C956 C 0.18365 0.24627 0.59605 0.0
H957 H 0.16703 0.31737 0.7272 0.0
H958 H 0.16705 0.28529 0.70739 0.0
H959 H 0.19306 0.27419 0.5931 0.0
H960 H 0.17602 0.18615 0.52408 0.0
H961 H 0.17448 0.21858 0.54155 0.0
H962 H 0.14964 0.23055 0.65516 0.0
C963 C 0.16873 0.29581 0.68556 0.0
C964 C 0.18333 0.26488 0.60652 0.0
C965 C 0.16898 0.31426 0.69702 0.0
C966 C 0.17492 0.18971 0.55422 0.0
C967 C 0.17401 0.20835 0.56422 0.0
C968 C 0.15924 0.23993 0.64155 0.0
C969 C 0.17097 0.29099 0.64664 0.0
C970 C 0.17098 0.27126 0.63469 0.0
C971 C 0.17228 0.21371 0.60293 0.0
C972 C 0.17168 0.23356 0.61358 0.0
H973 H 0.17588 0.33413 0.6093 0.0
H974 H 0.17499 0.30195 0.58916 0.0
H975 H 0.14894 0.26302 0.67321 0.0
H976 H 0.17198 0.17115 0.64416 0.0
H977 H 0.17023 0.20366 0.66153 0.0
C978 C 0.32032 0.84201 0.35063 0.0
C979 C 0.32785 0.8257 0.33559 0.0
C980 C 0.30184 0.8426 0.36191 0.0
C981 C 0.26491 0.8151 0.39957 0.0
H982 H 0.2308 0.84764 0.34719 0.0
C983 C 0.18699 0.80799 0.42297 0.0
C984 C 0.17601 0.82386 0.42195 0.0
C985 C 0.20548 0.80878 0.41216 0.0
C986 C 0.24013 0.8387 0.36271 0.0
H987 H 0.32231 0.79717 0.32147 0.0
H988 H 0.29011 0.79801 0.34252 0.0
H989 H 0.26349 0.8485 0.3308 0.0
H990 H 0.17558 0.85299 0.40904 0.0
H991 H 0.20813 0.85472 0.39175 0.0
H992 H 0.24201 0.80566 0.43255 0.0
C993 C 0.29842 0.81037 0.3449 0.0
C994 C 0.25883 0.83917 0.3531 0.0
C995 C 0.31673 0.80991 0.33276 0.0
C996 C 0.18379 0.84055 0.40965 0.0
C997 C 0.20243 0.84146 0.39963 0.0
C998 C 0.24632 0.8149 0.40981 0.0
C999 C 0.29079 0.82675 0.35923 0.0
C1000 C 0.27128 0.82719 0.37111 0.0
C1001 C 0.21358 0.82559 0.40096 0.0
C1002 C 0.23358 0.82648 0.3911 0.0
H1003 H 0.32864 0.85436 0.3528 0.0
H1004 H 0.29619 0.85536 0.37299 0.0
H1005 H 0.27435 0.80585 0.41404 0.0
H1006 H 0.18118 0.79493 0.43189 0.0
H1007 H 0.21335 0.79613 0.4125 0.0
C1008 C 0.28298 0.08722 0.00901 0.0
C1009 C 0.29233 0.10318 0.02117 0.0
C1010 C 0.2731 0.0871 0.97445 0.0
C1011 C 0.24934 0.11742 0.90622 0.0
H1012 H 0.25402 0.07621 0.8358 0.0
C1013 C 0.21443 0.11748 0.75643 0.0
C1014 C 0.20746 0.10071 0.74229 0.0
C1015 C 0.22502 0.11795 0.79009 0.0
C1016 C 0.25231 0.08771 0.85534 0.0
H1017 H 0.29858 0.13155 0.00666 0.0
H1018 H 0.28116 0.13137 0.94624 0.0
H1019 H 0.27206 0.07671 0.89499 0.0
H1020 H 0.20576 0.07134 0.75291 0.0
H1021 H 0.22381 0.07216 0.81207 0.0
H1022 H 0.2293 0.12827 0.86721 0.0
C1023 C 0.28152 0.11896 0.96354 0.0
C1024 C 0.26274 0.08802 0.88922 0.0
C1025 C 0.2916 0.11902 0.99793 0.0
C1026 C 0.21115 0.08444 0.76279 0.0
C1027 C 0.22158 0.08493 0.79666 0.0
C1028 C 0.23877 0.11704 0.87253 0.0
C1029 C 0.27218 0.10298 0.95142 0.0
C1030 C 0.26136 0.10286 0.91505 0.0
C1031 C 0.22875 0.10168 0.81071 0.0
C1032 C 0.24008 0.10216 0.8466 0.0
H1033 H 0.28343 0.07476 0.02612 0.0
H1034 H 0.26594 0.07462 0.96604 0.0
H1035 H 0.24781 0.12894 0.92581 0.0
H1036 H 0.21202 0.13022 0.74099 0.0
H1037 H 0.23054 0.13107 0.79952 0.0
C1038 C 0.11512 0.77453 0.27071 0.0
C1039 C 0.10471 0.79076 0.27477 0.0
C1040 C 0.11551 0.765 0.23558 0.0
C1041 C 0.1063 0.77118 0.1309 0.0
H1042 H 0.10622 0.71776 0.12937 0.0
C1043 C 0.09615 0.72915 0.99026 0.0
C1044 C 0.10667 0.71304 0.98548 0.0
C1045 C 0.09626 0.73874 0.0253 0.0
C1046 C 0.10647 0.73268 0.12924 0.0
H1047 H 0.08614 0.80933 0.2451 0.0
H1048 H 0.08672 0.79273 0.18417 0.0
H1049 H 0.10561 0.73401 0.19083 0.0
H1050 H 0.12606 0.69481 0.01386 0.0
H1051 H 0.12618 0.71145 0.0748 0.0
H1052 H 0.10706 0.76984 0.06929 0.0
C1053 C 0.09492 0.78754 0.20783 0.0
C1054 C 0.10612 0.74202 0.16456 0.0
C1055 C 0.09457 0.79707 0.24288 0.0
C1056 C 0.11749 0.70693 0.01661 0.0
C1057 C 0.11757 0.7165 0.05165 0.0
C1058 C 0.10661 0.76184 0.09559 0.0
C1059 C 0.10547 0.77141 0.20358 0.0
C1060 C 0.106 0.76141 0.16591 0.0
C1061 C 0.10688 0.73248 0.05658 0.0
C1062 C 0.10668 0.74246 0.09425 0.0
H1063 H 0.1233 0.76938 0.29444 0.0
H1064 H 0.12398 0.75278 0.23331 0.0
H1065 H 0.10654 0.7861 0.13071 0.0
H1066 H 0.08745 0.73415 0.96718 0.0
H1067 H 0.08766 0.75085 0.02815 0.0
C1068 C 0.71775 0.91734 0.00571 0.0
C1069 C 0.70872 0.90155 0.01997 0.0
C1070 C 0.72764 0.91667 0.97118 0.0
C1071 C 0.7311 0.89252 0.87937 0.0
H1072 H 0.7815 0.91009 0.87801 0.0
C1073 C 0.77761 0.88382 0.7449 0.0
C1074 C 0.79094 0.8974 0.73761 0.0
C1075 C 0.7674 0.88413 0.77912 0.0
C1076 C 0.76735 0.90542 0.87749 0.0
H1077 H 0.70331 0.87259 0.00842 0.0
H1078 H 0.71994 0.87176 0.9475 0.0
H1079 H 0.76386 0.91143 0.9375 0.0
H1080 H 0.80361 0.9223 0.75956 0.0
H1081 H 0.78535 0.9234 0.81822 0.0
H1082 H 0.73422 0.88707 0.81921 0.0
C1083 C 0.71934 0.8846 0.96337 0.0
C1084 C 0.75729 0.9061 0.91178 0.0
C1085 C 0.70972 0.88515 0.99826 0.0
C1086 C 0.79359 0.91151 0.76474 0.0
C1087 C 0.78317 0.91203 0.79854 0.0
C1088 C 0.74104 0.89214 0.84484 0.0
C1089 C 0.7285 0.90032 0.94963 0.0
C1090 C 0.73909 0.89963 0.9131 0.0
C1091 C 0.77005 0.89824 0.80654 0.0
C1092 C 0.75935 0.89857 0.84336 0.0
H1093 H 0.71702 0.93035 0.02087 0.0
H1094 H 0.73442 0.92905 0.961 0.0
H1095 H 0.71702 0.88757 0.87954 0.0
H1096 H 0.7754 0.87271 0.72456 0.0
H1097 H 0.75769 0.87309 0.7843 0.0
C1098 C 0.88415 0.20995 0.24771 0.0
C1099 C 0.90035 0.20901 0.26999 0.0
C1100 C 0.88385 0.21959 0.21283 0.0
C1101 C 0.9053 0.25759 0.16156 0.0
H1102 H 0.88818 0.23352 0.06848 0.0
C1103 C 0.91159 0.29325 0.01375 0.0
C1104 C 0.89801 0.28988 0.98584 0.0
C1105 C 0.91196 0.28312 0.04797 0.0
C1106 C 0.89271 0.24062 0.09422 0.0
H1107 H 0.92906 0.21753 0.27204 0.0
H1108 H 0.92816 0.23499 0.21219 0.0
H1109 H 0.88823 0.21667 0.12923 0.0
H1110 H 0.87402 0.27347 0.9719 0.0
H1111 H 0.87408 0.25629 0.03229 0.0
H1112 H 0.90917 0.28174 0.12743 0.0
C1113 C 0.91575 0.22813 0.2219 0.0
C1114 C 0.89282 0.23088 0.12899 0.0
C1115 C 0.91618 0.2182 0.25642 0.0
C1116 C 0.88475 0.2762 0.99284 0.0
C1117 C 0.88489 0.2663 0.02743 0.0
C1118 C 0.90486 0.26746 0.12699 0.0
C1119 C 0.89961 0.22884 0.19969 0.0
C1120 C 0.89923 0.23924 0.16293 0.0
C1121 C 0.89851 0.2696 0.05557 0.0
C1122 C 0.89868 0.2591 0.09267 0.0
H1123 H 0.87156 0.20345 0.25735 0.0
H1124 H 0.87117 0.2201 0.19642 0.0
H1125 H 0.91011 0.26442 0.18744 0.0
H1126 H 0.92211 0.30358 0.00884 0.0
H1127 H 0.92295 0.28583 0.06826 0.0
C1128 C 0.20746 0.38602 0.49126 0.0
C1129 C 0.20675 0.40226 0.51352 0.0
C1130 C 0.2172 0.38553 0.45651 0.0
C1131 C 0.25572 0.40656 0.40587 0.0
H1132 H 0.2322 0.38894 0.31259 0.0
C1133 C 0.29207 0.41233 0.25878 0.0
C1134 C 0.28894 0.3986 0.23103 0.0
C1135 C 0.28178 0.41278 0.29277 0.0
C1136 C 0.23915 0.3936 0.3384 0.0
H1137 H 0.21575 0.43084 0.51562 0.0
H1138 H 0.23334 0.42961 0.45599 0.0
H1139 H 0.21502 0.38933 0.37291 0.0
H1140 H 0.27272 0.37445 0.21716 0.0
H1141 H 0.25523 0.37468 0.27715 0.0
H1142 H 0.28004 0.41024 0.37224 0.0
C1143 C 0.22624 0.41732 0.46562 0.0
C1144 C 0.22922 0.39392 0.37294 0.0
C1145 C 0.21622 0.41794 0.50001 0.0
C1146 C 0.2753 0.38529 0.23796 0.0
C1147 C 0.26521 0.38552 0.27233 0.0
C1148 C 0.26577 0.40593 0.37155 0.0
C1149 C 0.22677 0.40113 0.44347 0.0
C1150 C 0.23737 0.40052 0.40694 0.0
C1151 C 0.2683 0.39928 0.3003 0.0
C1152 C 0.25761 0.39958 0.33716 0.0
H1153 H 0.20071 0.37354 0.50085 0.0
H1154 H 0.21754 0.37281 0.44018 0.0
H1155 H 0.26241 0.4115 0.4318 0.0
H1156 H 0.30235 0.42291 0.25392 0.0
H1157 H 0.28432 0.42388 0.31291 0.0
C1158 C 0.40584 0.7745 0.49 0.0
C1159 C 0.39538 0.79065 0.48521 0.0
C1160 C 0.40579 0.76499 0.52511 0.0
C1161 C 0.39605 0.7714 0.62907 0.0
H1162 H 0.39576 0.718 0.631 0.0
C1163 C 0.38832 0.72975 0.77104 0.0
C1164 C 0.39864 0.71345 0.77466 0.0
C1165 C 0.38774 0.73932 0.73598 0.0
C1166 C 0.39608 0.73292 0.63105 0.0
H1167 H 0.37612 0.80901 0.5136 0.0
H1168 H 0.3761 0.79252 0.57468 0.0
H1169 H 0.39492 0.73409 0.56947 0.0
H1170 H 0.41697 0.69484 0.74441 0.0
H1171 H 0.41608 0.71151 0.68366 0.0
H1172 H 0.39732 0.77024 0.69065 0.0
C1173 C 0.38462 0.78738 0.55147 0.0
C1174 C 0.39557 0.74215 0.59568 0.0
C1175 C 0.38464 0.79685 0.51636 0.0
C1176 C 0.4086 0.70715 0.74251 0.0
C1177 C 0.40806 0.71671 0.70756 0.0
C1178 C 0.3966 0.76216 0.66447 0.0
C1179 C 0.39528 0.77138 0.55643 0.0
C1180 C 0.39559 0.76153 0.59418 0.0
C1181 C 0.39751 0.73285 0.70366 0.0
C1182 C 0.39668 0.74278 0.66597 0.0
H1183 H 0.41448 0.76943 0.46691 0.0
H1184 H 0.41435 0.75286 0.52798 0.0
H1185 H 0.39636 0.78633 0.62905 0.0
H1186 H 0.38031 0.73489 0.79503 0.0
H1187 H 0.3793 0.75157 0.734 0.0
C1188 C 0.71141 0.62008 0.26393 0.0
C1189 C 0.71374 0.60638 0.23571 0.0
C1190 C 0.72154 0.61951 0.29823 0.0
C1191 C 0.74434 0.58783 0.36415 0.0
H1192 H 0.77111 0.63076 0.40012 0.0
C1193 C 0.79124 0.5846 0.499 0.0
C1194 C 0.79296 0.60046 0.5219 0.0
C1195 C 0.78179 0.58524 0.46385 0.0
C1196 C 0.76347 0.61871 0.39102 0.0
H1197 H 0.72837 0.58131 0.22135 0.0
H1198 H 0.7458 0.58009 0.28177 0.0
H1199 H 0.75412 0.63222 0.33968 0.0
H1200 H 0.78571 0.6293 0.5266 0.0
H1201 H 0.76855 0.63033 0.46639 0.0
H1202 H 0.75299 0.57444 0.41587 0.0
C1203 C 0.73626 0.59134 0.27712 0.0
C1204 C 0.75383 0.61955 0.35615 0.0
C1205 C 0.7264 0.59211 0.24249 0.0
C1206 C 0.78477 0.6169 0.50929 0.0
C1207 C 0.77503 0.61749 0.47453 0.0
C1208 C 0.7537 0.58707 0.39938 0.0
C1209 C 0.73393 0.60503 0.30534 0.0
C1210 C 0.74421 0.60411 0.3423 0.0
C1211 C 0.77352 0.60171 0.45103 0.0
C1212 C 0.76346 0.60249 0.41338 0.0
H1213 H 0.7018 0.63127 0.25939 0.0
H1214 H 0.71941 0.63019 0.31957 0.0
H1215 H 0.73687 0.57578 0.35434 0.0
H1216 H 0.7976 0.57178 0.50784 0.0
H1217 H 0.78129 0.57287 0.44647 0.0
C1218 C 0.61728 0.2971 0.74181 0.0
C1219 C 0.60078 0.29828 0.76303 0.0
C1220 C 0.61795 0.28738 0.70701 0.0
C1221 C 0.59676 0.24917 0.65603 0.0
H1222 H 0.6157 0.27165 0.56288 0.0
C1223 C 0.59172 0.21163 0.51022 0.0
C1224 C 0.60573 0.21426 0.48297 0.0
C1225 C 0.59115 0.22227 0.54374 0.0
C1226 C 0.61067 0.26499 0.58869 0.0
H1227 H 0.5719 0.29036 0.763 0.0
H1228 H 0.5734 0.27277 0.70333 0.0
H1229 H 0.61502 0.28935 0.62265 0.0
H1230 H 0.63021 0.22996 0.46937 0.0
H1231 H 0.62979 0.24805 0.5287 0.0
H1232 H 0.59303 0.22462 0.62308 0.0
C1233 C 0.58576 0.27946 0.71384 0.0
C1234 C 0.61018 0.27522 0.62288 0.0
C1235 C 0.58498 0.28946 0.74825 0.0
C1236 C 0.61919 0.22776 0.48986 0.0
C1237 C 0.61884 0.23819 0.52381 0.0
C1238 C 0.59757 0.23882 0.62211 0.0
C1239 C 0.60224 0.27832 0.69291 0.0
C1240 C 0.60308 0.26745 0.65677 0.0
C1241 C 0.6048 0.2356 0.55132 0.0
C1242 C 0.60438 0.2466 0.58778 0.0
H1243 H 0.62984 0.30337 0.75238 0.0
H1244 H 0.63087 0.28657 0.69156 0.0
H1245 H 0.59145 0.24278 0.68193 0.0
H1246 H 0.58102 0.20147 0.50531 0.0
H1247 H 0.57983 0.22012 0.56349 0.0
C1248 C 0.36876 0.01546 0.16588 0.0
C1249 C 0.35967 0.0291 0.18737 0.0
C1250 C 0.37273 0.99831 0.18213 0.0
C1251 C 0.3777 0.97338 0.27435 0.0
H1252 H 0.36833 0.93055 0.21042 0.0
C1253 C 0.38336 0.89776 0.33026 0.0
C1254 C 0.39151 0.88509 0.30486 0.0
C1255 C 0.37922 0.9157 0.31793 0.0
C1256 C 0.3712 0.94236 0.22857 0.0
H1257 H 0.34787 0.03541 0.24322 0.0
H1258 H 0.35491 0.00548 0.27166 0.0
H1259 H 0.36207 0.96118 0.18529 0.0
H1260 H 0.40213 0.88142 0.24698 0.0
H1261 H 0.39518 0.9125 0.22582 0.0
H1262 H 0.38696 0.95442 0.31758 0.0
C1263 C 0.35909 0.00815 0.24226 0.0
C1264 C 0.36762 0.95993 0.21412 0.0
C1265 C 0.35509 0.02533 0.22595 0.0
C1266 C 0.3957 0.89078 0.26722 0.0
C1267 C 0.39161 0.9086 0.25497 0.0
C1268 C 0.38134 0.95573 0.28883 0.0
C1269 C 0.36771 0.99434 0.22033 0.0
C1270 C 0.37103 0.97568 0.23662 0.0
C1271 C 0.38315 0.92125 0.27997 0.0
C1272 C 0.37835 0.94002 0.26588 0.0
H1273 H 0.3728 0.018 0.13637 0.0
H1274 H 0.37973 0.98812 0.16469 0.0
H1275 H 0.38056 0.98524 0.29234 0.0
H1276 H 0.37998 0.89377 0.35946 0.0
H1277 H 0.37262 0.92508 0.33785 0.0
C1278 C 0.89854 0.6183 0.67658 0.0
C1279 C 0.88531 0.61309 0.70402 0.0
C1280 C 0.91659 0.6225 0.68796 0.0
C1281 C 0.94901 0.6152 0.76929 0.0
H1282 H 0.97613 0.65597 0.72453 0.0
C1283 C 0.01346 0.64493 0.84127 0.0
C1284 C 0.02906 0.64801 0.81814 0.0
C1285 C 0.99646 0.64074 0.82475 0.0
C1286 C 0.96877 0.64442 0.73697 0.0
H1287 H 0.88049 0.60865 0.76492 0.0
H1288 H 0.91162 0.6163 0.78476 0.0
H1289 H 0.94532 0.64847 0.70042 0.0
H1290 H 0.03864 0.64953 0.75899 0.0
H1291 H 0.00873 0.64251 0.73017 0.0
H1292 H 0.97221 0.61141 0.80639 0.0
C1293 C 0.90832 0.61672 0.75436 0.0
C1294 C 0.95115 0.6401 0.72314 0.0
C1295 C 0.89039 0.61245 0.743 0.0
C1296 C 0.02699 0.64736 0.77782 0.0
C1297 C 0.00985 0.6433 0.76123 0.0
C1298 C 0.96649 0.61961 0.78324 0.0
C1299 C 0.92173 0.6216 0.72701 0.0
C1300 C 0.94094 0.6256 0.7396 0.0
C1301 C 0.99449 0.63967 0.7846 0.0
C1302 C 0.97645 0.63442 0.76767 0.0
H1303 H 0.89503 0.6189 0.6463 0.0
H1304 H 0.92659 0.62609 0.6661 0.0
H1305 H 0.94178 0.60364 0.78197 0.0
H1306 H 0.01429 0.64579 0.8723 0.0
H1307 H 0.98477 0.63839 0.84348 0.0
C1308 C 0.63993 0.98976 0.16829 0.0
C1309 C 0.64468 0.97423 0.19039 0.0
C1310 C 0.63502 0.00631 0.18605 0.0
C1311 C 0.63983 0.03325 0.27446 0.0
H1312 H 0.59609 0.05813 0.23732 0.0
C1313 C 0.61402 0.10255 0.33931 0.0
C1314 C 0.60816 0.11563 0.31216 0.0
C1315 C 0.61757 0.08434 0.32795 0.0
C1316 C 0.60842 0.05145 0.24786 0.0
H1317 H 0.64812 0.96432 0.24908 0.0
H1318 H 0.63999 0.99333 0.27973 0.0
H1319 H 0.6047 0.02845 0.21005 0.0
H1320 H 0.60143 0.11991 0.2519 0.0
H1321 H 0.60789 0.08862 0.2322 0.0
H1322 H 0.6439 0.05656 0.31144 0.0
C1323 C 0.64007 0.99255 0.24858 0.0
C1324 C 0.61332 0.03444 0.23225 0.0
C1325 C 0.64478 0.9759 0.23084 0.0
C1326 C 0.60582 0.11017 0.27366 0.0
C1327 C 0.6094 0.09212 0.26236 0.0
C1328 C 0.63502 0.05041 0.28989 0.0
C1329 C 0.63493 0.00783 0.22635 0.0
C1330 C 0.62923 0.02531 0.2449 0.0
C1331 C 0.6153 0.07895 0.28927 0.0
C1332 C 0.61945 0.05987 0.2762 0.0
H1333 H 0.64002 0.98925 0.13718 0.0
H1334 H 0.63141 0.01799 0.16819 0.0
H1335 H 0.6522 0.0265 0.28466 0.0
H1336 H 0.61595 0.10639 0.36919 0.0
H1337 H 0.622 0.07449 0.34944 0.0
C1338 C 0.10896 0.39287 0.73448 0.0
C1339 C 0.11397 0.39204 0.6955 0.0
C1340 C 0.09102 0.38882 0.74591 0.0
C1341 C 0.04827 0.36524 0.71569 0.0
H1342 H 0.02763 0.394 0.79933 0.0
C1343 C 0.97343 0.35685 0.77571 0.0
C1344 C 0.97227 0.35595 0.81617 0.0
C1345 C 0.99011 0.36125 0.75765 0.0
C1346 C 0.03323 0.38581 0.77602 0.0
H1347 H 0.10414 0.38619 0.63783 0.0
H1348 H 0.07251 0.37934 0.65781 0.0
H1349 H 0.05762 0.4022 0.77331 0.0
H1350 H 0.9882 0.35808 0.86896 0.0
H1351 H 0.01692 0.36613 0.8376 0.0
H1352 H 0.02362 0.34891 0.71863 0.0
C1353 C 0.08258 0.38294 0.67957 0.0
C1354 C 0.05045 0.39046 0.76117 0.0
C1355 C 0.10066 0.38694 0.6681 0.0
C1356 C 0.98833 0.35911 0.83791 0.0
C1357 C 0.00486 0.36368 0.81993 0.0
C1358 C 0.03089 0.36067 0.73041 0.0
C1359 C 0.07754 0.38396 0.71864 0.0
C1360 C 0.0584 0.37997 0.73148 0.0
C1361 C 0.0059 0.36501 0.77969 0.0
C1362 C 0.02343 0.37068 0.76133 0.0
H1363 H 0.11892 0.39658 0.75638 0.0
H1364 H 0.08777 0.38932 0.77632 0.0
H1365 H 0.05403 0.35681 0.69295 0.0
H1366 H 0.96141 0.35462 0.75793 0.0
H1367 H 0.99055 0.36222 0.72655 0.0
C1368 C 0.38337 0.60527 0.92192 0.0
C1369 C 0.38748 0.61842 0.95041 0.0
C1370 C 0.37776 0.58745 0.93228 0.0
C1371 C 0.3564 0.56178 0.01175 0.0
H1372 H 0.38049 0.51866 0.96933 0.0
C1373 C 0.35195 0.49147 0.08607 0.0
C1374 C 0.35132 0.47528 0.06384 0.0
C1375 C 0.35479 0.50859 0.06882 0.0
C1376 C 0.37337 0.53052 0.98097 0.0
H1377 H 0.3889 0.62325 0.012 0.0
H1378 H 0.37896 0.59238 0.02991 0.0
H1379 H 0.38834 0.54928 0.94485 0.0
H1380 H 0.35298 0.4646 0.00559 0.0
H1381 H 0.35752 0.49463 0.97529 0.0
H1382 H 0.34144 0.54325 0.04785 0.0
C1383 C 0.38003 0.59579 0.99963 0.0
C1384 C 0.37791 0.54805 0.96698 0.0
C1385 C 0.38584 0.61344 0.98933 0.0
C1386 C 0.35328 0.47675 0.02364 0.0
C1387 C 0.35608 0.49396 0.00629 0.0
C1388 C 0.35175 0.54431 0.02546 0.0
C1389 C 0.3759 0.5826 0.97128 0.0
C1390 C 0.36978 0.56388 0.9829 0.0
C1391 C 0.35694 0.5101 0.02873 0.0
C1392 C 0.3605 0.52847 0.01097 0.0
H1393 H 0.38454 0.60872 0.89168 0.0
H1394 H 0.37462 0.57755 0.90984 0.0
H1395 H 0.34966 0.57372 0.02405 0.0
H1396 H 0.35023 0.49098 0.11699 0.0
H1397 H 0.35565 0.52064 0.08717 0.0
C1398 C 0.60437 0.6226 0.08876 0.0
C1399 C 0.61587 0.61245 0.0641 0.0
C1400 C 0.58648 0.62736 0.07718 0.0
C1401 C 0.55875 0.63274 0.9882 0.0
H1402 H 0.51649 0.63072 0.05622 0.0
C1403 C 0.48528 0.6334 0.92939 0.0
C1404 C 0.47255 0.64549 0.94646 0.0
C1405 C 0.50233 0.63011 0.94653 0.0
C1406 C 0.52822 0.63152 0.03706 0.0
H1407 H 0.61738 0.59863 0.00879 0.0
H1408 H 0.58635 0.60649 0.98911 0.0
H1409 H 0.54721 0.62352 0.08136 0.0
H1410 H 0.46775 0.6632 0.99583 0.0
H1411 H 0.49758 0.65714 0.02614 0.0
H1412 H 0.53984 0.64034 0.94378 0.0
C1413 C 0.59118 0.6113 0.01688 0.0
C1414 C 0.5458 0.62744 0.05143 0.0
C1415 C 0.60897 0.60667 0.0283 0.0
C1416 C 0.47713 0.65372 0.98195 0.0
C1417 C 0.49423 0.65029 0.99931 0.0
C1418 C 0.54126 0.63668 0.97387 0.0
C1419 C 0.57979 0.62199 0.04078 0.0
C1420 C 0.56123 0.62765 0.02692 0.0
C1421 C 0.50711 0.63869 0.98137 0.0
C1422 C 0.52575 0.6358 0.99791 0.0
H1423 H 0.60934 0.62725 0.11654 0.0
H1424 H 0.57808 0.63564 0.09625 0.0
H1425 H 0.57036 0.63357 0.96873 0.0
H1426 H 0.48213 0.62641 0.90266 0.0
H1427 H 0.51183 0.62079 0.93242 0.0
C1428 C 0.64389 0.5143 0.09711 0.0
C1429 C 0.64584 0.53029 0.07457 0.0
C1430 C 0.6394 0.49744 0.08016 0.0
C1431 C 0.64114 0.47141 0.99012 0.0
H1432 H 0.6024 0.44237 0.03723 0.0
C1433 C 0.61526 0.40214 0.92539 0.0
C1434 C 0.611 0.38814 0.95184 0.0
C1435 C 0.61925 0.42001 0.93831 0.0
C1436 C 0.6134 0.45018 0.02394 0.0
H1437 H 0.6447 0.54075 0.01595 0.0
H1438 H 0.63728 0.51118 0.98649 0.0
H1439 H 0.61015 0.47245 0.06377 0.0
H1440 H 0.60806 0.38169 0.01249 0.0
H1441 H 0.61544 0.41248 0.03496 0.0
H1442 H 0.64473 0.44892 0.95086 0.0
C1443 C 0.63922 0.51186 0.01739 0.0
C1444 C 0.61778 0.46744 0.03911 0.0
C1445 C 0.64352 0.52881 0.03439 0.0
C1446 C 0.61109 0.39223 0.99134 0.0
C1447 C 0.6152 0.40996 1.00423 0.0
C1448 C 0.63687 0.45401 0.97511 0.0
C1449 C 0.63695 0.49606 0.04018 0.0
C1450 C 0.63182 0.47814 0.02265 0.0
C1451 C 0.61915 0.42414 0.97793 0.0
C1452 C 0.6231 0.44308 0.99218 0.0
H1453 H 0.64594 0.51467 0.12793 0.0
H1454 H 0.63803 0.4854 0.09836 0.0
H1455 H 0.6521 0.47937 0.97701 0.0
H1456 H 0.61527 0.39937 0.89474 0.0
H1457 H 0.62209 0.43063 0.91725 0.0
C1458 C 0.39873 0.38697 0.08383 0.0
C1459 C 0.38542 0.39201 0.05639 0.0
C1460 C 0.41651 0.38198 0.07212 0.0
C1461 C 0.4414 0.36386 0.98824 0.0
H1462 H 0.485 0.38581 0.03361 0.0
C1463 C 0.5116 0.36072 0.91284 0.0
C1464 C 0.52752 0.35837 0.93531 0.0
C1465 C 0.49453 0.3637 0.93021 0.0
C1466 C 0.47298 0.37931 0.02102 0.0
H1467 H 0.38036 0.39595 0.99532 0.0
H1468 H 0.41112 0.38719 0.97516 0.0
H1469 H 0.45467 0.39288 0.06035 0.0
H1470 H 0.53784 0.35752 0.994 0.0
H1471 H 0.50801 0.36221 0.02421 0.0
H1472 H 0.4595 0.35031 0.94891 0.0
C1473 C 0.40786 0.38697 0.00559 0.0
C1474 C 0.45564 0.38339 0.03635 0.0
C1475 C 0.39026 0.39211 0.01723 0.0
C1476 C 0.52589 0.35902 0.97569 0.0
C1477 C 0.50879 0.36195 0.99308 0.0
C1478 C 0.45868 0.35969 0.97311 0.0
C1479 C 0.42114 0.38171 0.0328 0.0
C1480 C 0.43966 0.376 0.01954 0.0
C1481 C 0.49289 0.36433 0.97055 0.0
C1482 C 0.47467 0.36767 0.98876 0.0
H1483 H 0.39538 0.38678 0.1142 0.0
H1484 H 0.42652 0.37797 0.09367 0.0
H1485 H 0.42931 0.3577 0.97515 0.0
H1486 H 0.51225 0.36013 0.88176 0.0
H1487 H 0.48263 0.36575 0.91192 0.0
C1488 C 0.88825 0.39005 0.77016 0.0
C1489 C 0.88861 0.38546 0.80944 0.0
C1490 C 0.88313 0.40765 0.7583 0.0
C1491 C 0.88078 0.45567 0.78884 0.0
H1492 H 0.84788 0.46029 0.70133 0.0
C1493 C 0.85744 0.52652 0.72946 0.0
C1494 C 0.85671 0.52838 0.68914 0.0
C1495 C 0.86022 0.50928 0.74642 0.0
C1496 C 0.85722 0.45926 0.72555 0.0
H1497 H 0.88405 0.39578 0.86722 0.0
H1498 H 0.87525 0.42689 0.84632 0.0
H1499 H 0.8546 0.4299 0.72751 0.0
H1500 H 0.85825 0.51338 0.6352 0.0
H1501 H 0.86359 0.48348 0.66463 0.0
H1502 H 0.88379 0.485 0.78625 0.0
C1503 C 0.87891 0.41672 0.82482 0.0
C1504 C 0.861 0.44185 0.74065 0.0
C1505 C 0.88389 0.39894 0.83675 0.0
C1506 C 0.85889 0.51255 0.66626 0.0
C1507 C 0.86171 0.49533 0.68321 0.0
C1508 C 0.87707 0.47312 0.77358 0.0
C1509 C 0.87836 0.42117 0.78541 0.0
C1510 C 0.87305 0.43983 0.77203 0.0
C1511 C 0.86237 0.49346 0.7235 0.0
C1512 C 0.86547 0.47509 0.74135 0.0
H1513 H 0.89181 0.38 0.74834 0.0
H1514 H 0.88312 0.41074 0.72779 0.0
H1515 H 0.89023 0.4545 0.81284 0.0
H1516 H 0.85607 0.53839 0.74808 0.0
H1517 H 0.86051 0.50833 0.77753 0.0
C1518 C 0.51191 0.14778 0.34051 0.0
C1519 C 0.52811 0.14977 0.31868 0.0
C1520 C 0.49533 0.14288 0.32297 0.0
C1521 C 0.46947 0.14316 0.23317 0.0
H1522 H 0.44261 0.10289 0.28045 0.0
C1523 C 0.3997 0.11582 0.17295 0.0
C1524 C 0.38635 0.11122 0.2006 0.0
C1525 C 0.41778 0.11995 0.18424 0.0
C1526 C 0.44981 0.11429 0.26707 0.0
H1527 H 0.53914 0.14873 0.26056 0.0
H1528 H 0.50995 0.14063 0.22992 0.0
H1529 H 0.47253 0.11182 0.30595 0.0
H1530 H 0.38137 0.10768 0.26173 0.0
H1531 H 0.41249 0.11525 0.28135 0.0
H1532 H 0.44643 0.14606 0.19506 0.0
C1533 C 0.51031 0.14274 0.26079 0.0
C1534 C 0.46699 0.11934 0.28162 0.0
C1535 C 0.52704 0.14743 0.27844 0.0
C1536 C 0.39136 0.11099 0.23964 0.0
C1537 C 0.4093 0.11522 0.25089 0.0
C1538 C 0.45211 0.13824 0.21879 0.0
C1539 C 0.4944 0.14009 0.28304 0.0
C1540 C 0.47685 0.13401 0.26528 0.0
C1541 C 0.4228 0.11962 0.2234 0.0
C1542 C 0.44192 0.12396 0.23609 0.0
H1543 H 0.51194 0.14994 0.37131 0.0
H1544 H 0.48317 0.14129 0.34071 0.0
H1545 H 0.47681 0.15456 0.22011 0.0
H1546 H 0.39621 0.1161 0.14263 0.0
H1547 H 0.42785 0.12316 0.16228 0.0
C1548 C 0.14432 0.47765 0.72296 0.0
C1549 C 0.14468 0.47571 0.68258 0.0
C1550 C 0.1406 0.49475 0.73997 0.0
C1551 C 0.11754 0.53868 0.71993 0.0
H1552 H 0.14692 0.55831 0.8038 0.0
C1553 C 0.11183 0.61434 0.7647 0.0
C1554 C 0.11271 0.61899 0.80392 0.0
C1555 C 0.11569 0.59647 0.75239 0.0
C1556 C 0.1384 0.55291 0.7808 0.0
H1557 H 0.14204 0.49068 0.62874 0.0
H1558 H 0.13525 0.52023 0.65837 0.0
H1559 H 0.15388 0.52776 0.77768 0.0
H1560 H 0.11849 0.60854 0.86107 0.0
H1561 H 0.12496 0.577 0.83957 0.0
H1562 H 0.10195 0.56357 0.72298 0.0
C1563 C 0.13764 0.50843 0.67681 0.0
C1564 C 0.14243 0.53544 0.76578 0.0
C1565 C 0.1415 0.49142 0.65981 0.0
C1566 C 0.11771 0.60535 0.83064 0.0
C1567 C 0.12149 0.58733 0.81828 0.0
C1568 C 0.11344 0.55602 0.73507 0.0
C1569 C 0.137 0.51027 0.71705 0.0
C1570 C 0.13223 0.5283 0.73473 0.0
C1571 C 0.12038 0.58265 0.77897 0.0
C1572 C 0.12401 0.56354 0.7652 0.0
H1573 H 0.14649 0.46593 0.7416 0.0
H1574 H 0.14008 0.49572 0.77108 0.0
H1575 H 0.10918 0.53338 0.69656 0.0
H1576 H 0.1082 0.62455 0.74326 0.0
H1577 H 0.11512 0.59355 0.72183 0.0
C1578 C 0.60355 0.88619 0.17618 0.0
C1579 C 0.61688 0.89126 0.20357 0.0
C1580 C 0.58551 0.88211 0.18766 0.0
C1581 C 0.55335 0.88915 0.26946 0.0
H1582 H 0.52638 0.84824 0.22465 0.0
C1583 C 0.48961 0.85838 0.34206 0.0
C1584 C 0.47391 0.85536 0.31911 0.0
C1585 C 0.50648 0.86284 0.32535 0.0
C1586 C 0.5337 0.85982 0.23711 0.0
H1587 H 0.62188 0.89568 0.26445 0.0
H1588 H 0.59076 0.88823 0.28447 0.0
H1589 H 0.557 0.85604 0.20013 0.0
H1590 H 0.46404 0.85425 0.26008 0.0
H1591 H 0.49371 0.86169 0.23097 0.0
H1592 H 0.5303 0.89263 0.30706 0.0
C1593 C 0.59398 0.88783 0.25404 0.0
C1594 C 0.5512 0.86433 0.22304 0.0
C1595 C 0.6119 0.89198 0.24258 0.0
C1596 C 0.47576 0.85635 0.27878 0.0
C1597 C 0.49276 0.86066 0.26201 0.0
C1598 C 0.53599 0.88456 0.28368 0.0
C1599 C 0.58049 0.88299 0.22676 0.0
C1600 C 0.56136 0.87888 0.23951 0.0
C1601 C 0.50821 0.86422 0.28521 0.0
C1602 C 0.5261 0.86968 0.26807 0.0
H1603 H 0.607 0.88554 0.14588 0.0
H1604 H 0.57544 0.87857 0.16587 0.0
H1605 H 0.56054 0.90074 0.28217 0.0
H1606 H 0.48894 0.85729 0.37307 0.0
H1607 H 0.51826 0.86515 0.34392 0.0
C1608 C 0.88768 0.11083 0.48845 0.0
C1609 C 0.88895 0.11555 0.44933 0.0
C1610 C 0.88185 0.0933 0.49943 0.0
C1611 C 0.87936 0.04549 0.46893 0.0
H1612 H 0.8427 0.04163 0.54968 0.0
C1613 C 0.85509 0.97495 0.52934 0.0
C1614 C 0.85307 0.97399 0.5696 0.0
C1615 C 0.85775 0.99194 0.51106 0.0
C1616 C 0.85306 0.04244 0.52734 0.0
H1617 H 0.88536 0.10555 0.39097 0.0
H1618 H 0.87545 0.07454 0.41038 0.0
H1619 H 0.85095 0.07182 0.52434 0.0
H1620 H 0.85173 0.99034 0.62185 0.0
H1621 H 0.85696 0.01964 0.59042 0.0
H1622 H 0.88204 0.01617 0.47297 0.0
C1623 C 0.87888 0.08457 0.43239 0.0
C1624 C 0.85771 0.05973 0.51273 0.0
C1625 C 0.88449 0.10228 0.42134 0.0
C1626 C 0.85351 0.99045 0.59094 0.0
C1627 C 0.85623 0.00736 0.57276 0.0
C1628 C 0.87484 0.02815 0.48385 0.0
C1629 C 0.87734 0.08 0.47158 0.0
C1630 C 0.87115 0.06147 0.48395 0.0
C1631 C 0.85843 0.00835 0.5326 0.0
C1632 C 0.86191 0.02646 0.51383 0.0
H1633 H 0.89099 0.12076 0.51071 0.0
H1634 H 0.88101 0.09007 0.52984 0.0
H1635 H 0.88984 0.04648 0.44685 0.0
H1636 H 0.85497 0.96258 0.51193 0.0
H1637 H 0.85923 0.99221 0.48005 0.0
C1638 C 0.11334 0.11443 0.51448 0.0
C1639 C 0.1172 0.11435 0.5541 0.0
C1640 C 0.09574 0.11865 0.50112 0.0
C1641 C 0.05163 0.14047 0.52892 0.0
H1642 H 0.03315 0.1125 0.44182 0.0
C1643 C 0.97635 0.14511 0.47315 0.0
C1644 C 0.97401 0.14608 0.43293 0.0
C1645 C 0.99369 0.14166 0.48914 0.0
C1646 C 0.03818 0.12054 0.46594 0.0
H1647 H 0.10571 0.11887 0.61087 0.0
H1648 H 0.0747 0.12594 0.58754 0.0
H1649 H 0.0634 0.10548 0.46808 0.0
H1650 H 0.98841 0.1447 0.37826 0.0
H1651 H 0.01847 0.1384 0.40614 0.0
H1652 H 0.02616 0.15536 0.52683 0.0
C1653 C 0.0854 0.12297 0.56676 0.0
C1654 C 0.05554 0.11655 0.48099 0.0
C1655 C 0.10312 0.11884 0.58015 0.0
C1656 C 0.98953 0.1437 0.40923 0.0
C1657 C 0.00681 0.14012 0.42522 0.0
C1658 C 0.03416 0.14438 0.51398 0.0
C1659 C 0.08147 0.12276 0.52705 0.0
C1660 C 0.0626 0.1266 0.51237 0.0
C1661 C 0.00906 0.13895 0.46532 0.0
C1662 C 0.02735 0.13458 0.48206 0.0
H1663 H 0.12394 0.11121 0.49361 0.0
H1664 H 0.09335 0.11877 0.47034 0.0
H1665 H 0.0567 0.1486 0.55285 0.0
H1666 H 0.96477 0.14661 0.49242 0.0
H1667 H 0.99497 0.14065 0.52014 0.0
C1668 C 0.12085 0.8976 0.42837 0.0
C1669 C 0.11589 0.88424 0.45576 0.0
C1670 C 0.12571 0.91547 0.44006 0.0
C1671 C 0.14236 0.94154 0.52464 0.0
H1672 H 0.12084 0.98411 0.47455 0.0
C1673 C 0.14322 0.01322 0.59528 0.0
C1674 C 0.14579 0.02884 0.57195 0.0
C1675 C 0.14083 0.99579 0.57891 0.0
C1676 C 0.12721 0.9724 0.4885 0.0
H1677 H 0.11221 0.87911 0.51681 0.0
H1678 H 0.12068 0.91005 0.53703 0.0
H1679 H 0.11467 0.95327 0.4493 0.0
H1680 H 0.14777 0.0382 0.51275 0.0
H1681 H 0.144 0.00772 0.48424 0.0
H1682 H 0.15485 0.96051 0.56391 0.0
C1683 C 0.12096 0.90678 0.5066 0.0
C1684 C 0.12365 0.95472 0.47402 0.0
C1685 C 0.11598 0.88906 0.49495 0.0
C1686 C 0.14602 0.02651 0.5317 0.0
C1687 C 0.14364 0.00903 0.51529 0.0
C1688 C 0.14598 0.95916 0.53898 0.0
C1689 C 0.12589 0.92021 0.47936 0.0
C1690 C 0.13092 0.93908 0.49238 0.0
C1691 C 0.141 0.99344 0.53871 0.0
C1692 C 0.13819 0.97481 0.52155 0.0
H1693 H 0.12089 0.89429 0.39796 0.0
H1694 H 0.12952 0.92552 0.41843 0.0
H1695 H 0.14845 0.92978 0.539 0.0
H1696 H 0.14317 0.01439 0.62633 0.0
H1697 H 0.13857 0.98416 0.59787 0.0
C1698 C 0.03002 0.85816 0.48886 0.0
C1699 C 0.03138 0.8582 0.44837 0.0
C1700 C 0.01342 0.86272 0.50706 0.0
C1701 C 0.97103 0.88886 0.49069 0.0
H1702 H 0.94902 0.85807 0.56946 0.0
C1703 C 0.89481 0.89474 0.52838 0.0
C1704 C 0.8891 0.89281 0.56679 0.0
C1705 C 0.913 0.89132 0.51793 0.0
C1706 C 0.95513 0.867 0.54801 0.0
H1707 H 0.01582 0.86232 0.3956 0.0
H1708 H 0.98729 0.87063 0.42726 0.0
H1709 H 0.97949 0.85035 0.54394 0.0
H1710 H 0.89803 0.88578 0.62448 0.0
H1711 H 0.93013 0.87996 0.60619 0.0
H1712 H 0.94687 0.9055 0.49441 0.0
C1713 C 0.99914 0.86731 0.44487 0.0
C1714 C 0.97254 0.86254 0.53335 0.0
C1715 C 0.01559 0.86258 0.42672 0.0
C1716 C 0.90205 0.88739 0.59465 0.0
C1717 C 0.92038 0.88398 0.58413 0.0
C1718 C 0.95377 0.89339 0.50548 0.0
C1719 C 0.99791 0.86759 0.48518 0.0
C1720 C 0.98042 0.87319 0.50385 0.0
C1721 C 0.92606 0.88597 0.5456 0.0
C1722 C 0.94537 0.88225 0.53356 0.0
H1723 H 0.04182 0.85499 0.50665 0.0
H1724 H 0.01284 0.86287 0.53822 0.0
H1725 H 0.97695 0.89753 0.46852 0.0
H1726 H 0.88517 0.89876 0.50611 0.0
H1727 H 0.91673 0.89259 0.48786 0.0
loop_
_geom_bond_atom_site_label_1
_geom_bond_atom_site_label_2
_geom_bond_distance
_geom_bond_site_symmetry_2
_ccdc_geom_bond_type
Co0 N4 2.148 . S
Co0 N10 2.128 . S
Co0 N20 2.194 . S
Co0 O25 2.351 . S
Co0 O26 2.155 . S
Co0 O27 2.096 . S
C1 N4 1.301 . S
C1 N5 1.328 . S
C1 H6 0.930 . S
C2 C3 1.333 . S
C2 N4 1.317 . S
C2 H7 0.930 . S
C3 C2 1.333 . S
C3 N5 1.350 . S
C3 H29 0.931 . S
N4 Co0 2.148 . S
N4 C1 1.301 . S
N4 C2 1.317 . S
N5 C1 1.328 . S
N5 C3 1.350 . S
H6 C1 0.930 . S
H7 C2 0.930 . S
C8 O9 1.224 . S
C8 O27 1.247 . S
O9 C8 1.224 . S
N10 Co0 2.128 . S
N10 C11 1.355 . S
N10 C13 1.311 . S
C11 N10 1.355 . S
C11 C12 1.363 . S
C11 H23 0.929 . S
C12 C11 1.363 . S
C12 N14 1.375 . S
C12 H30 0.931 . S
C13 N10 1.311 . S
C13 N14 1.347 . S
C13 H24 0.929 . S
N14 C12 1.375 . S
N14 C13 1.347 . S
C15 C18 1.365 . S
C15 N20 1.328 . S
C15 H21 0.929 . S
C16 C17 1.362 . S
C16 C19 1.378 . S
C16 H31 0.929 . S
C17 C16 1.362 . S
C17 C18 1.366 . S
C18 C15 1.365 . S
C18 C17 1.366 . S
C18 H32 0.930 . S
C19 C16 1.378 . S
C19 N20 1.315 . S
C19 H22 0.930 . S
N20 Co0 2.194 . S
N20 C15 1.328 . S
N20 C19 1.315 . S
H21 C15 0.929 . S
H22 C19 0.930 . S
H23 C11 0.929 . S
H24 C13 0.929 . S
O25 Co0 2.351 . S
O25 C28 1.244 . S
O26 Co0 2.155 . S
O26 C28 1.240 . S
O27 Co0 2.096 . S
O27 C8 1.247 . S
C28 O25 1.244 . S
C28 O26 1.240 . S
H29 C3 0.931 . S
H30 C12 0.931 . S
H31 C16 0.929 . S
H32 C18 0.930 . S
Co33 N37 2.148 . S
Co33 N43 2.128 . S
Co33 N53 2.194 . S
Co33 O58 2.351 . S
Co33 O59 2.155 . S
Co33 O60 2.096 . S
C34 N37 1.301 . S
C34 N38 1.328 . S
C34 H39 0.930 . S
C35 C36 1.333 . S
C35 N37 1.317 . S
C35 H40 0.930 . S
C36 C35 1.333 . S
C36 N38 1.350 . S
C36 H62 0.931 . S
N37 Co33 2.148 . S
N37 C34 1.301 . S
N37 C35 1.317 . S
N38 C34 1.328 . S
N38 C36 1.350 . S
H39 C34 0.930 . S
H40 C35 0.930 . S
C41 O42 1.224 . S
C41 O60 1.247 . S
O42 C41 1.224 . S
N43 Co33 2.128 . S
N43 C44 1.355 . S
N43 C46 1.311 . S
C44 N43 1.355 . S
C44 C45 1.363 . S
C44 H56 0.929 . S
C45 C44 1.363 . S
C45 N47 1.375 . S
C45 H63 0.931 . S
C46 N43 1.311 . S
C46 N47 1.347 . S
C46 H57 0.929 . S
N47 C45 1.375 . S
N47 C46 1.347 . S
C48 C51 1.365 . S
C48 N53 1.328 . S
C48 H54 0.929 . S
C49 C50 1.362 . S
C49 C52 1.378 . S
C49 H64 0.929 . S
C50 C49 1.362 . S
C50 C51 1.366 . S
C51 C48 1.365 . S
C51 C50 1.366 . S
C51 H65 0.930 . S
C52 C49 1.378 . S
C52 N53 1.315 . S
C52 H55 0.930 . S
N53 Co33 2.194 . S
N53 C48 1.328 . S
N53 C52 1.315 . S
H54 C48 0.929 . S
H55 C52 0.930 . S
H56 C44 0.929 . S
H57 C46 0.929 . S
O58 Co33 2.351 . S
O58 C61 1.244 . S
O59 Co33 2.155 . S
O59 C61 1.240 . S
O60 Co33 2.096 . S
O60 C41 1.247 . S
C61 O58 1.244 . S
C61 O59 1.240 . S
H62 C36 0.931 . S
H63 C45 0.931 . S
H64 C49 0.929 . S
H65 C51 0.930 . S
Co66 N70 2.148 . S
Co66 N76 2.128 . S
Co66 N86 2.194 . S
Co66 O91 2.351 . S
Co66 O92 2.155 . S
Co66 O93 2.096 . S
C67 N70 1.301 . S
C67 N71 1.328 . S
C67 H72 0.930 . S
C68 C69 1.333 . S
C68 N70 1.317 . S
C68 H73 0.930 . S
C69 C68 1.333 . S
C69 N71 1.350 . S
C69 H95 0.931 . S
N70 Co66 2.148 . S
N70 C67 1.301 . S
N70 C68 1.317 . S
N71 C67 1.328 . S
N71 C69 1.350 . S
H72 C67 0.930 . S
H73 C68 0.930 . S
C74 O75 1.224 . S
C74 O93 1.247 . S
O75 C74 1.224 . S
N76 Co66 2.128 . S
N76 C77 1.355 . S
N76 C79 1.311 . S
C77 N76 1.355 . S
C77 C78 1.363 . S
C77 H89 0.929 . S
C78 C77 1.363 . S
C78 N80 1.375 . S
C78 H96 0.931 . S
C79 N76 1.311 . S
C79 N80 1.347 . S
C79 H90 0.929 . S
N80 C78 1.375 . S
N80 C79 1.347 . S
C81 C84 1.365 . S
C81 N86 1.328 . S
C81 H87 0.929 . S
C82 C83 1.362 . S
C82 C85 1.378 . S
C82 H97 0.929 . S
C83 C82 1.362 . S
C83 C84 1.366 . S
C84 C81 1.365 . S
C84 C83 1.366 . S
C84 H98 0.930 . S
C85 C82 1.378 . S
C85 N86 1.315 . S
C85 H88 0.930 . S
N86 Co66 2.194 . S
N86 C81 1.328 . S
N86 C85 1.315 . S
H87 C81 0.929 . S
H88 C85 0.930 . S
H89 C77 0.929 . S
H90 C79 0.929 . S
O91 Co66 2.351 . S
O91 C94 1.244 . S
O92 Co66 2.155 . S
O92 C94 1.240 . S
O93 Co66 2.096 . S
O93 C74 1.247 . S
C94 O91 1.244 . S
C94 O92 1.240 . S
H95 C69 0.931 . S
H96 C78 0.931 . S
H97 C82 0.929 . S
H98 C84 0.930 . S
Co99 N103 2.148 . S
Co99 N109 2.128 . S
Co99 N119 2.194 . S
Co99 O124 2.351 . S
Co99 O125 2.155 . S
Co99 O126 2.096 . S
C100 N103 1.301 . S
C100 N104 1.328 . S
C100 H105 0.930 . S
C101 C102 1.333 . S
C101 N103 1.317 . S
C101 H106 0.930 . S
C102 C101 1.333 . S
C102 N104 1.350 . S
C102 H128 0.931 . S
N103 Co99 2.148 . S
N103 C100 1.301 . S
N103 C101 1.317 . S
N104 C100 1.328 . S
N104 C102 1.350 . S
H105 C100 0.930 . S
H106 C101 0.930 . S
C107 O108 1.224 . S
C107 O126 1.247 . S
O108 C107 1.224 . S
N109 Co99 2.128 . S
N109 C110 1.355 . S
N109 C112 1.311 . S
C110 N109 1.355 . S
C110 C111 1.363 . S
C110 H122 0.929 . S
C111 C110 1.363 . S
C111 N113 1.375 . S
C111 H129 0.931 . S
C112 N109 1.311 . S
C112 N113 1.347 . S
C112 H123 0.929 . S
N113 C111 1.375 . S
N113 C112 1.347 . S
C114 C117 1.365 . S
C114 N119 1.328 . S
C114 H120 0.929 . S
C115 C116 1.362 . S
C115 C118 1.378 . S
C115 H130 0.929 . S
C116 C115 1.362 . S
C116 C117 1.366 . S
C117 C114 1.365 . S
C117 C116 1.366 . S
C117 H131 0.930 . S
C118 C115 1.378 . S
C118 N119 1.315 . S
C118 H121 0.930 . S
N119 Co99 2.194 . S
N119 C114 1.328 . S
N119 C118 1.315 . S
H120 C114 0.929 . S
H121 C118 0.930 . S
H122 C110 0.929 . S
H123 C112 0.929 . S
O124 Co99 2.351 . S
O124 C127 1.244 . S
O125 Co99 2.155 . S
O125 C127 1.240 . S
O126 Co99 2.096 . S
O126 C107 1.247 . S
C127 O124 1.244 . S
C127 O125 1.240 . S
H128 C102 0.931 . S
H129 C111 0.931 . S
H130 C115 0.929 . S
H131 C117 0.930 . S
Co132 N136 2.148 . S
Co132 N142 2.128 . S
Co132 N152 2.194 . S
Co132 O157 2.351 . S
Co132 O158 2.155 . S
Co132 O159 2.096 . S
C133 N136 1.301 . S
C133 N137 1.328 . S
C133 H138 0.930 . S
C134 C135 1.333 . S
C134 N136 1.317 . S
C134 H139 0.930 . S
C135 C134 1.333 . S
C135 N137 1.350 . S
C135 H161 0.931 . S
N136 Co132 2.148 . S
N136 C133 1.301 . S
N136 C134 1.317 . S
N137 C133 1.328 . S
N137 C135 1.350 . S
H138 C133 0.930 . S
H139 C134 0.930 . S
C140 O141 1.224 . S
C140 O159 1.247 . S
O141 C140 1.224 . S
N142 Co132 2.128 . S
N142 C143 1.355 . S
N142 C145 1.311 . S
C143 N142 1.355 . S
C143 C144 1.363 . S
C143 H155 0.929 . S
C144 C143 1.363 . S
C144 N146 1.375 . S
C144 H162 0.931 . S
C145 N142 1.311 . S
C145 N146 1.347 . S
C145 H156 0.929 . S
N146 C144 1.375 . S
N146 C145 1.347 . S
C147 C150 1.365 . S
C147 N152 1.328 . S
C147 H153 0.929 . S
C148 C149 1.362 . S
C148 C151 1.378 . S
C148 H163 0.929 . S
C149 C148 1.362 . S
C149 C150 1.366 . S
C150 C147 1.365 . S
C150 C149 1.366 . S
C150 H164 0.930 . S
C151 C148 1.378 . S
C151 N152 1.315 . S
C151 H154 0.930 . S
N152 Co132 2.194 . S
N152 C147 1.328 . S
N152 C151 1.315 . S
H153 C147 0.929 . S
H154 C151 0.930 . S
H155 C143 0.929 . S
H156 C145 0.929 . S
O157 Co132 2.351 . S
O157 C160 1.244 . S
O158 Co132 2.155 . S
O158 C160 1.240 . S
O159 Co132 2.096 . S
O159 C140 1.247 . S
C160 O157 1.244 . S
C160 O158 1.240 . S
H161 C135 0.931 . S
H162 C144 0.931 . S
H163 C148 0.929 . S
H164 C150 0.930 . S
Co165 N169 2.148 . S
Co165 N175 2.128 . S
Co165 N185 2.194 . S
Co165 O190 2.351 . S
Co165 O191 2.155 . S
Co165 O192 2.096 . S
C166 N169 1.301 . S
C166 N170 1.328 . S
C166 H171 0.930 . S
C167 C168 1.333 . S
C167 N169 1.317 . S
C167 H172 0.930 . S
C168 C167 1.333 . S
C168 N170 1.350 . S
C168 H194 0.931 . S
N169 Co165 2.148 . S
N169 C166 1.301 . S
N169 C167 1.317 . S
N170 C166 1.328 . S
N170 C168 1.350 . S
H171 C166 0.930 . S
H172 C167 0.930 . S
C173 O174 1.224 . S
C173 O192 1.247 . S
O174 C173 1.224 . S
N175 Co165 2.128 . S
N175 C176 1.355 . S
N175 C178 1.311 . S
C176 N175 1.355 . S
C176 C177 1.363 . S
C176 H188 0.929 . S
C177 C176 1.363 . S
C177 N179 1.375 . S
C177 H195 0.931 . S
C178 N175 1.311 . S
C178 N179 1.347 . S
C178 H189 0.929 . S
N179 C177 1.375 . S
N179 C178 1.347 . S
C180 C183 1.365 . S
C180 N185 1.328 . S
C180 H186 0.929 . S
C181 C182 1.362 . S
C181 C184 1.378 . S
C181 H196 0.929 . S
C182 C181 1.362 . S
C182 C183 1.366 . S
C183 C180 1.365 . S
C183 C182 1.366 . S
C183 H197 0.930 . S
C184 C181 1.378 . S
C184 N185 1.315 . S
C184 H187 0.930 . S
N185 Co165 2.194 . S
N185 C180 1.328 . S
N185 C184 1.315 . S
H186 C180 0.929 . S
H187 C184 0.930 . S
H188 C176 0.929 . S
H189 C178 0.929 . S
O190 Co165 2.351 . S
O190 C193 1.244 . S
O191 Co165 2.155 . S
O191 C193 1.240 . S
O192 Co165 2.096 . S
O192 C173 1.247 . S
C193 O190 1.244 . S
C193 O191 1.240 . S
H194 C168 0.931 . S
H195 C177 0.931 . S
H196 C181 0.929 . S
H197 C183 0.930 . S
Co198 N202 2.148 . S
Co198 N208 2.128 . S
Co198 N218 2.194 . S
Co198 O223 2.351 . S
Co198 O224 2.155 . S
Co198 O225 2.096 . S
C199 N202 1.301 . S
C199 N203 1.328 . S
C199 H204 0.930 . S
C200 C201 1.333 . S
C200 N202 1.317 . S
C200 H205 0.930 . S
C201 C200 1.333 . S
C201 N203 1.350 . S
C201 H227 0.931 . S
N202 Co198 2.148 . S
N202 C199 1.301 . S
N202 C200 1.317 . S
N203 C199 1.328 . S
N203 C201 1.350 . S
H204 C199 0.930 . S
H205 C200 0.930 . S
C206 O207 1.224 . S
C206 O225 1.247 . S
O207 C206 1.224 . S
N208 Co198 2.128 . S
N208 C209 1.355 . S
N208 C211 1.311 . S
C209 N208 1.355 . S
C209 C210 1.363 . S
C209 H221 0.929 . S
C210 C209 1.363 . S
C210 N212 1.375 . S
C210 H228 0.931 . S
C211 N208 1.311 . S
C211 N212 1.347 . S
C211 H222 0.929 . S
N212 C210 1.375 . S
N212 C211 1.347 . S
C213 C216 1.365 . S
C213 N218 1.328 . S
C213 H219 0.929 . S
C214 C215 1.362 . S
C214 C217 1.378 . S
C214 H229 0.929 . S
C215 C214 1.362 . S
C215 C216 1.366 . S
C216 C213 1.365 . S
C216 C215 1.366 . S
C216 H230 0.930 . S
C217 C214 1.378 . S
C217 N218 1.315 . S
C217 H220 0.930 . S
N218 Co198 2.194 . S
N218 C213 1.328 . S
N218 C217 1.315 . S
H219 C213 0.929 . S
H220 C217 0.930 . S
H221 C209 0.929 . S
H222 C211 0.929 . S
O223 Co198 2.351 . S
O223 C226 1.244 . S
O224 Co198 2.155 . S
O224 C226 1.240 . S
O225 Co198 2.096 . S
O225 C206 1.247 . S
C226 O223 1.244 . S
C226 O224 1.240 . S
H227 C201 0.931 . S
H228 C210 0.931 . S
H229 C214 0.929 . S
H230 C216 0.930 . S
Co231 N235 2.148 . S
Co231 N241 2.128 . S
Co231 N251 2.194 . S
Co231 O256 2.351 . S
Co231 O257 2.155 . S
Co231 O258 2.096 . S
C232 N235 1.301 . S
C232 N236 1.328 . S
C232 H237 0.930 . S
C233 C234 1.333 . S
C233 N235 1.317 . S
C233 H238 0.930 . S
C234 C233 1.333 . S
C234 N236 1.350 . S
C234 H260 0.931 . S
N235 Co231 2.148 . S
N235 C232 1.301 . S
N235 C233 1.317 . S
N236 C232 1.328 . S
N236 C234 1.350 . S
H237 C232 0.930 . S
H238 C233 0.930 . S
C239 O240 1.224 . S
C239 O258 1.247 . S
O240 C239 1.224 . S
N241 Co231 2.128 . S
N241 C242 1.355 . S
N241 C244 1.311 . S
C242 N241 1.355 . S
C242 C243 1.363 . S
C242 H254 0.929 . S
C243 C242 1.363 . S
C243 N245 1.375 . S
C243 H261 0.931 . S
C244 N241 1.311 . S
C244 N245 1.347 . S
C244 H255 0.929 . S
N245 C243 1.375 . S
N245 C244 1.347 . S
C246 C249 1.365 . S
C246 N251 1.328 . S
C246 H252 0.929 . S
C247 C248 1.362 . S
C247 C250 1.378 . S
C247 H262 0.929 . S
C248 C247 1.362 . S
C248 C249 1.366 . S
C249 C246 1.365 . S
C249 C248 1.366 . S
C249 H263 0.930 . S
C250 C247 1.378 . S
C250 N251 1.315 . S
C250 H253 0.930 . S
N251 Co231 2.194 . S
N251 C246 1.328 . S
N251 C250 1.315 . S
H252 C246 0.929 . S
H253 C250 0.930 . S
H254 C242 0.929 . S
H255 C244 0.929 . S
O256 Co231 2.351 . S
O256 C259 1.244 . S
O257 Co231 2.155 . S
O257 C259 1.240 . S
O258 Co231 2.096 . S
O258 C239 1.247 . S
C259 O256 1.244 . S
C259 O257 1.240 . S
H260 C234 0.931 . S
H261 C243 0.931 . S
H262 C247 0.929 . S
H263 C249 0.930 . S
Co264 N268 2.148 . S
Co264 N274 2.128 . S
Co264 N284 2.194 . S
Co264 O289 2.351 . S
Co264 O290 2.155 . S
Co264 O291 2.096 . S
C265 N268 1.301 . S
C265 N269 1.328 . S
C265 H270 0.930 . S
C266 C267 1.333 . S
C266 N268 1.317 . S
C266 H271 0.930 . S
C267 C266 1.333 . S
C267 N269 1.350 . S
C267 H293 0.931 . S
N268 Co264 2.148 . S
N268 C265 1.301 . S
N268 C266 1.317 . S
N269 C265 1.328 . S
N269 C267 1.350 . S
H270 C265 0.930 . S
H271 C266 0.930 . S
C272 O273 1.224 . S
C272 O291 1.247 . S
O273 C272 1.224 . S
N274 Co264 2.128 . S
N274 C275 1.355 . S
N274 C277 1.311 . S
C275 N274 1.355 . S
C275 C276 1.363 . S
C275 H287 0.929 . S
C276 C275 1.363 . S
C276 N278 1.375 . S
C276 H294 0.931 . S
C277 N274 1.311 . S
C277 N278 1.347 . S
C277 H288 0.929 . S
N278 C276 1.375 . S
N278 C277 1.347 . S
C279 C282 1.365 . S
C279 N284 1.328 . S
C279 H285 0.929 . S
C280 C281 1.362 . S
C280 C283 1.378 . S
C280 H295 0.929 . S
C281 C280 1.362 . S
C281 C282 1.366 . S
C282 C279 1.365 . S
C282 C281 1.366 . S
C282 H296 0.930 . S
C283 C280 1.378 . S
C283 N284 1.315 . S
C283 H286 0.930 . S
N284 Co264 2.194 . S
N284 C279 1.328 . S
N284 C283 1.315 . S
H285 C279 0.929 . S
H286 C283 0.930 . S
H287 C275 0.929 . S
H288 C277 0.929 . S
O289 Co264 2.351 . S
O289 C292 1.244 . S
O290 Co264 2.155 . S
O290 C292 1.240 . S
O291 Co264 2.096 . S
O291 C272 1.247 . S
C292 O289 1.244 . S
C292 O290 1.240 . S
H293 C267 0.931 . S
H294 C276 0.931 . S
H295 C280 0.929 . S
H296 C282 0.930 . S
Co297 N301 2.148 . S
Co297 N307 2.128 . S
Co297 N317 2.194 . S
Co297 O322 2.351 . S
Co297 O323 2.155 . S
Co297 O324 2.096 . S
C298 N301 1.301 . S
C298 N302 1.328 . S
C298 H303 0.930 . S
C299 C300 1.333 . S
C299 N301 1.317 . S
C299 H304 0.930 . S
C300 C299 1.333 . S
C300 N302 1.350 . S
C300 H326 0.931 . S
N301 Co297 2.148 . S
N301 C298 1.301 . S
N301 C299 1.317 . S
N302 C298 1.328 . S
N302 C300 1.350 . S
H303 C298 0.930 . S
H304 C299 0.930 . S
C305 O306 1.224 . S
C305 O324 1.247 . S
O306 C305 1.224 . S
N307 Co297 2.128 . S
N307 C308 1.355 . S
N307 C310 1.311 . S
C308 N307 1.355 . S
C308 C309 1.363 . S
C308 H320 0.929 . S
C309 C308 1.363 . S
C309 N311 1.375 . S
C309 H327 0.931 . S
C310 N307 1.311 . S
C310 N311 1.347 . S
C310 H321 0.929 . S
N311 C309 1.375 . S
N311 C310 1.347 . S
C312 C315 1.365 . S
C312 N317 1.328 . S
C312 H318 0.929 . S
C313 C314 1.362 . S
C313 C316 1.378 . S
C313 H328 0.929 . S
C314 C313 1.362 . S
C314 C315 1.366 . S
C315 C312 1.365 . S
C315 C314 1.366 . S
C315 H329 0.930 . S
C316 C313 1.378 . S
C316 N317 1.315 . S
C316 H319 0.930 . S
N317 Co297 2.194 . S
N317 C312 1.328 . S
N317 C316 1.315 . S
H318 C312 0.929 . S
H319 C316 0.930 . S
H320 C308 0.929 . S
H321 C310 0.929 . S
O322 Co297 2.351 . S
O322 C325 1.244 . S
O323 Co297 2.155 . S
O323 C325 1.240 . S
O324 Co297 2.096 . S
O324 C305 1.247 . S
C325 O322 1.244 . S
C325 O323 1.240 . S
H326 C300 0.931 . S
H327 C309 0.931 . S
H328 C313 0.929 . S
H329 C315 0.930 . S
Co330 N334 2.148 . S
Co330 N340 2.128 . S
Co330 N350 2.194 . S
Co330 O355 2.351 . S
Co330 O356 2.155 . S
Co330 O357 2.096 . S
C331 N334 1.301 . S
C331 N335 1.328 . S
C331 H336 0.930 . S
C332 C333 1.333 . S
C332 N334 1.317 . S
C332 H337 0.930 . S
C333 C332 1.333 . S
C333 N335 1.350 . S
C333 H359 0.931 . S
N334 Co330 2.148 . S
N334 C331 1.301 . S
N334 C332 1.317 . S
N335 C331 1.328 . S
N335 C333 1.350 . S
H336 C331 0.930 . S
H337 C332 0.930 . S
C338 O339 1.224 . S
C338 O357 1.247 . S
O339 C338 1.224 . S
N340 Co330 2.128 . S
N340 C341 1.355 . S
N340 C343 1.311 . S
C341 N340 1.355 . S
C341 C342 1.363 . S
C341 H353 0.929 . S
C342 C341 1.363 . S
C342 N344 1.375 . S
C342 H360 0.931 . S
C343 N340 1.311 . S
C343 N344 1.347 . S
C343 H354 0.929 . S
N344 C342 1.375 . S
N344 C343 1.347 . S
C345 C348 1.365 . S
C345 N350 1.328 . S
C345 H351 0.929 . S
C346 C347 1.362 . S
C346 C349 1.378 . S
C346 H361 0.929 . S
C347 C346 1.362 . S
C347 C348 1.366 . S
C348 C345 1.365 . S
C348 C347 1.366 . S
C348 H362 0.930 . S
C349 C346 1.378 . S
C349 N350 1.315 . S
C349 H352 0.930 . S
N350 Co330 2.194 . S
N350 C345 1.328 . S
N350 C349 1.315 . S
H351 C345 0.929 . S
H352 C349 0.930 . S
H353 C341 0.929 . S
H354 C343 0.929 . S
O355 Co330 2.351 . S
O355 C358 1.244 . S
O356 Co330 2.155 . S
O356 C358 1.240 . S
O357 Co330 2.096 . S
O357 C338 1.247 . S
C358 O355 1.244 . S
C358 O356 1.240 . S
H359 C333 0.931 . S
H360 C342 0.931 . S
H361 C346 0.929 . S
H362 C348 0.930 . S
Co363 N367 2.148 . S
Co363 N373 2.128 . S
Co363 N383 2.194 . S
Co363 O388 2.351 . S
Co363 O389 2.155 . S
Co363 O390 2.096 . S
C364 N367 1.301 . S
C364 N368 1.328 . S
C364 H369 0.930 . S
C365 C366 1.333 . S
C365 N367 1.317 . S
C365 H370 0.930 . S
C366 C365 1.333 . S
C366 N368 1.350 . S
C366 H392 0.931 . S
N367 Co363 2.148 . S
N367 C364 1.301 . S
N367 C365 1.317 . S
N368 C364 1.328 . S
N368 C366 1.350 . S
H369 C364 0.930 . S
H370 C365 0.930 . S
C371 O372 1.224 . S
C371 O390 1.247 . S
O372 C371 1.224 . S
N373 Co363 2.128 . S
N373 C374 1.355 . S
N373 C376 1.311 . S
C374 N373 1.355 . S
C374 C375 1.363 . S
C374 H386 0.929 . S
C375 C374 1.363 . S
C375 N377 1.375 . S
C375 H393 0.931 . S
C376 N373 1.311 . S
C376 N377 1.347 . S
C376 H387 0.929 . S
N377 C375 1.375 . S
N377 C376 1.347 . S
C378 C381 1.365 . S
C378 N383 1.328 . S
C378 H384 0.929 . S
C379 C380 1.362 . S
C379 C382 1.378 . S
C379 H394 0.929 . S
C380 C379 1.362 . S
C380 C381 1.366 . S
C381 C378 1.365 . S
C381 C380 1.366 . S
C381 H395 0.930 . S
C382 C379 1.378 . S
C382 N383 1.315 . S
C382 H385 0.930 . S
N383 Co363 2.194 . S
N383 C378 1.328 . S
N383 C382 1.315 . S
H384 C378 0.929 . S
H385 C382 0.930 . S
H386 C374 0.929 . S
H387 C376 0.929 . S
O388 Co363 2.351 . S
O388 C391 1.244 . S
O389 Co363 2.155 . S
O389 C391 1.240 . S
O390 Co363 2.096 . S
O390 C371 1.247 . S
C391 O388 1.244 . S
C391 O389 1.240 . S
H392 C366 0.931 . S
H393 C375 0.931 . S
H394 C379 0.929 . S
H395 C381 0.930 . S
Co396 N400 2.148 . S
Co396 N406 2.128 . S
Co396 N416 2.194 . S
Co396 O421 2.351 . S
Co396 O422 2.155 . S
Co396 O423 2.096 . S
C397 N400 1.301 . S
C397 N401 1.328 . S
C397 H402 0.930 . S
C398 C399 1.333 . S
C398 N400 1.317 . S
C398 H403 0.930 . S
C399 C398 1.333 . S
C399 N401 1.350 . S
C399 H425 0.931 . S
N400 Co396 2.148 . S
N400 C397 1.301 . S
N400 C398 1.317 . S
N401 C397 1.328 . S
N401 C399 1.350 . S
H402 C397 0.930 . S
H403 C398 0.930 . S
C404 O405 1.224 . S
C404 O423 1.247 . S
O405 C404 1.224 . S
N406 Co396 2.128 . S
N406 C407 1.355 . S
N406 C409 1.311 . S
C407 N406 1.355 . S
C407 C408 1.363 . S
C407 H419 0.929 . S
C408 C407 1.363 . S
C408 N410 1.375 . S
C408 H426 0.931 . S
C409 N406 1.311 . S
C409 N410 1.347 . S
C409 H420 0.929 . S
N410 C408 1.375 . S
N410 C409 1.347 . S
C411 C414 1.365 . S
C411 N416 1.328 . S
C411 H417 0.929 . S
C412 C413 1.362 . S
C412 C415 1.378 . S
C412 H427 0.929 . S
C413 C412 1.362 . S
C413 C414 1.366 . S
C414 C411 1.365 . S
C414 C413 1.366 . S
C414 H428 0.930 . S
C415 C412 1.378 . S
C415 N416 1.315 . S
C415 H418 0.930 . S
N416 Co396 2.194 . S
N416 C411 1.328 . S
N416 C415 1.315 . S
H417 C411 0.929 . S
H418 C415 0.930 . S
H419 C407 0.929 . S
H420 C409 0.929 . S
O421 Co396 2.351 . S
O421 C424 1.244 . S
O422 Co396 2.155 . S
O422 C424 1.240 . S
O423 Co396 2.096 . S
O423 C404 1.247 . S
C424 O421 1.244 . S
C424 O422 1.240 . S
H425 C399 0.931 . S
H426 C408 0.931 . S
H427 C412 0.929 . S
H428 C414 0.930 . S
Co429 N433 2.148 . S
Co429 N439 2.128 . S
Co429 N449 2.194 . S
Co429 O454 2.351 . S
Co429 O455 2.155 . S
Co429 O456 2.096 . S
C430 N433 1.301 . S
C430 N434 1.328 . S
C430 H435 0.930 . S
C431 C432 1.333 . S
C431 N433 1.317 . S
C431 H436 0.930 . S
C432 C431 1.333 . S
C432 N434 1.350 . S
C432 H458 0.931 . S
N433 Co429 2.148 . S
N433 C430 1.301 . S
N433 C431 1.317 . S
N434 C430 1.328 . S
N434 C432 1.350 . S
H435 C430 0.930 . S
H436 C431 0.930 . S
C437 O438 1.224 . S
C437 O456 1.247 . S
O438 C437 1.224 . S
N439 Co429 2.128 . S
N439 C440 1.355 . S
N439 C442 1.311 . S
C440 N439 1.355 . S
C440 C441 1.363 . S
C440 H452 0.929 . S
C441 C440 1.363 . S
C441 N443 1.375 . S
C441 H459 0.931 . S
C442 N439 1.311 . S
C442 N443 1.347 . S
C442 H453 0.929 . S
N443 C441 1.375 . S
N443 C442 1.347 . S
C444 C447 1.365 . S
C444 N449 1.328 . S
C444 H450 0.929 . S
C445 C446 1.362 . S
C445 C448 1.378 . S
C445 H460 0.929 . S
C446 C445 1.362 . S
C446 C447 1.366 . S
C447 C444 1.365 . S
C447 C446 1.366 . S
C447 H461 0.930 . S
C448 C445 1.378 . S
C448 N449 1.315 . S
C448 H451 0.930 . S
N449 Co429 2.194 . S
N449 C444 1.328 . S
N449 C448 1.315 . S
H450 C444 0.929 . S
H451 C448 0.930 . S
H452 C440 0.929 . S
H453 C442 0.929 . S
O454 Co429 2.351 . S
O454 C457 1.244 . S
O455 Co429 2.155 . S
O455 C457 1.240 . S
O456 Co429 2.096 . S
O456 C437 1.247 . S
C457 O454 1.244 . S
C457 O455 1.240 . S
H458 C432 0.931 . S
H459 C441 0.931 . S
H460 C445 0.929 . S
H461 C447 0.930 . S
Co462 N466 2.148 . S
Co462 N472 2.128 . S
Co462 N482 2.194 . S
Co462 O487 2.351 . S
Co462 O488 2.155 . S
Co462 O489 2.096 . S
C463 N466 1.301 . S
C463 N467 1.328 . S
C463 H468 0.930 . S
C464 C465 1.333 . S
C464 N466 1.317 . S
C464 H469 0.930 . S
C465 C464 1.333 . S
C465 N467 1.350 . S
C465 H491 0.931 . S
N466 Co462 2.148 . S
N466 C463 1.301 . S
N466 C464 1.317 . S
N467 C463 1.328 . S
N467 C465 1.350 . S
H468 C463 0.930 . S
H469 C464 0.930 . S
C470 O471 1.224 . S
C470 O489 1.247 . S
O471 C470 1.224 . S
N472 Co462 2.128 . S
N472 C473 1.355 . S
N472 C475 1.311 . S
C473 N472 1.355 . S
C473 C474 1.363 . S
C473 H485 0.929 . S
C474 C473 1.363 . S
C474 N476 1.375 . S
C474 H492 0.931 . S
C475 N472 1.311 . S
C475 N476 1.347 . S
C475 H486 0.929 . S
N476 C474 1.375 . S
N476 C475 1.347 . S
C477 C480 1.365 . S
C477 N482 1.328 . S
C477 H483 0.929 . S
C478 C479 1.362 . S
C478 C481 1.378 . S
C478 H493 0.929 . S
C479 C478 1.362 . S
C479 C480 1.366 . S
C480 C477 1.365 . S
C480 C479 1.366 . S
C480 H494 0.930 . S
C481 C478 1.378 . S
C481 N482 1.315 . S
C481 H484 0.930 . S
N482 Co462 2.194 . S
N482 C477 1.328 . S
N482 C481 1.315 . S
H483 C477 0.929 . S
H484 C481 0.930 . S
H485 C473 0.929 . S
H486 C475 0.929 . S
O487 Co462 2.351 . S
O487 C490 1.244 . S
O488 Co462 2.155 . S
O488 C490 1.240 . S
O489 Co462 2.096 . S
O489 C470 1.247 . S
C490 O487 1.244 . S
C490 O488 1.240 . S
H491 C465 0.931 . S
H492 C474 0.931 . S
H493 C478 0.929 . S
H494 C480 0.930 . S
Co495 N499 2.148 . S
Co495 N505 2.128 . S
Co495 N515 2.194 . S
Co495 O520 2.351 . S
Co495 O521 2.155 . S
Co495 O522 2.096 . S
C496 N499 1.301 . S
C496 N500 1.328 . S
C496 H501 0.930 . S
C497 C498 1.333 . S
C497 N499 1.317 . S
C497 H502 0.930 . S
C498 C497 1.333 . S
C498 N500 1.350 . S
C498 H524 0.931 . S
N499 Co495 2.148 . S
N499 C496 1.301 . S
N499 C497 1.317 . S
N500 C496 1.328 . S
N500 C498 1.350 . S
H501 C496 0.930 . S
H502 C497 0.930 . S
C503 O504 1.224 . S
C503 O522 1.247 . S
O504 C503 1.224 . S
N505 Co495 2.128 . S
N505 C506 1.355 . S
N505 C508 1.311 . S
C506 N505 1.355 . S
C506 C507 1.363 . S
C506 H518 0.929 . S
C507 C506 1.363 . S
C507 N509 1.375 . S
C507 H525 0.931 . S
C508 N505 1.311 . S
C508 N509 1.347 . S
C508 H519 0.929 . S
N509 C507 1.375 . S
N509 C508 1.347 . S
C510 C513 1.365 . S
C510 N515 1.328 . S
C510 H516 0.929 . S
C511 C512 1.362 . S
C511 C514 1.378 . S
C511 H526 0.929 . S
C512 C511 1.362 . S
C512 C513 1.366 . S
C513 C510 1.365 . S
C513 C512 1.366 . S
C513 H527 0.930 . S
C514 C511 1.378 . S
C514 N515 1.315 . S
C514 H517 0.930 . S
N515 Co495 2.194 . S
N515 C510 1.328 . S
N515 C514 1.315 . S
H516 C510 0.929 . S
H517 C514 0.930 . S
H518 C506 0.929 . S
H519 C508 0.929 . S
O520 Co495 2.351 . S
O520 C523 1.244 . S
O521 Co495 2.155 . S
O521 C523 1.240 . S
O522 Co495 2.096 . S
O522 C503 1.247 . S
C523 O520 1.244 . S
C523 O521 1.240 . S
H524 C498 0.931 . S
H525 C507 0.931 . S
H526 C511 0.929 . S
H527 C513 0.930 . S
C528 C529 1.349 . S
C528 C530 1.327 . S
C528 H553 0.950 . S
C529 C528 1.349 . S
C529 C545 1.349 . S
C530 C528 1.327 . S
C530 C549 1.429 . S
C530 H554 0.950 . S
C531 C548 1.574 . S
C531 C550 1.368 . S
C531 H555 0.949 . S
H532 C536 0.949 . S
C533 C534 1.349 . S
C533 C535 1.327 . S
C533 H556 0.950 . S
C534 C533 1.349 . S
C534 C546 1.349 . S
C535 C533 1.327 . S
C535 C551 1.429 . S
C535 H557 0.950 . S
C536 H532 0.949 . S
C536 C544 1.574 . S
C536 C552 1.368 . S
H537 C545 0.950 . S
H538 C543 0.950 . S
H539 C544 0.949 . S
H540 C546 0.950 . S
H541 C547 0.950 . S
H542 C548 0.949 . S
C543 H538 0.950 . S
C543 C545 1.327 . S
C543 C549 1.429 . S
C544 C536 1.574 . S
C544 H539 0.949 . S
C544 C550 1.368 . S
C545 C529 1.349 . S
C545 H537 0.950 . S
C545 C543 1.327 . S
C546 C534 1.349 . S
C546 H540 0.950 . S
C546 C547 1.327 . S
C547 H541 0.950 . S
C547 C546 1.327 . S
C547 C551 1.429 . S
C548 C531 1.574 . S
C548 H542 0.949 . S
C548 C552 1.368 . S
C549 C530 1.429 . S
C549 C543 1.429 . S
C549 C550 1.523 . S
C550 C531 1.368 . S
C550 C544 1.368 . S
C550 C549 1.523 . S
C551 C535 1.429 . S
C551 C547 1.429 . S
C551 C552 1.523 . S
C552 C536 1.368 . S
C552 C548 1.368 . S
C552 C551 1.523 . S
H553 C528 0.950 . S
H554 C530 0.950 . S
H555 C531 0.949 . S
H556 C533 0.950 . S
H557 C535 0.950 . S
C558 C559 1.349 . S
C558 C560 1.327 . S
C558 H583 0.950 . S
C559 C558 1.349 . S
C559 C575 1.349 . S
C560 C558 1.327 . S
C560 C579 1.429 . S
C560 H584 0.950 . S
C561 C578 1.574 . S
C561 C580 1.368 . S
C561 H585 0.949 . S
H562 C566 0.949 . S
C563 C564 1.349 . S
C563 C565 1.327 . S
C563 H586 0.950 . S
C564 C563 1.349 . S
C564 C576 1.349 . S
C565 C563 1.327 . S
C565 C581 1.429 . S
C565 H587 0.950 . S
C566 H562 0.949 . S
C566 C574 1.574 . S
C566 C582 1.368 . S
H567 C575 0.950 . S
H568 C573 0.950 . S
H569 C574 0.949 . S
H570 C576 0.950 . S
H571 C577 0.950 . S
H572 C578 0.949 . S
C573 H568 0.950 . S
C573 C575 1.327 . S
C573 C579 1.429 . S
C574 C566 1.574 . S
C574 H569 0.949 . S
C574 C580 1.368 . S
C575 C559 1.349 . S
C575 H567 0.950 . S
C575 C573 1.327 . S
C576 C564 1.349 . S
C576 H570 0.950 . S
C576 C577 1.327 . S
C577 H571 0.950 . S
C577 C576 1.327 . S
C577 C581 1.429 . S
C578 C561 1.574 . S
C578 H572 0.949 . S
C578 C582 1.368 . S
C579 C560 1.429 . S
C579 C573 1.429 . S
C579 C580 1.523 . S
C580 C561 1.368 . S
C580 C574 1.368 . S
C580 C579 1.523 . S
C581 C565 1.429 . S
C581 C577 1.429 . S
C581 C582 1.523 . S
C582 C566 1.368 . S
C582 C578 1.368 . S
C582 C581 1.523 . S
H583 C558 0.950 . S
H584 C560 0.950 . S
H585 C561 0.949 . S
H586 C563 0.950 . S
H587 C565 0.950 . S
C588 C589 1.349 . S
C588 C590 1.327 . S
C588 H613 0.950 . S
C589 C588 1.349 . S
C589 C605 1.349 . S
C590 C588 1.327 . S
C590 C609 1.429 . S
C590 H614 0.950 . S
C591 C608 1.574 . S
C591 C610 1.368 . S
C591 H615 0.949 . S
H592 C596 0.949 . S
C593 C594 1.349 . S
C593 C595 1.327 . S
C593 H616 0.950 . S
C594 C593 1.349 . S
C594 C606 1.349 . S
C595 C593 1.327 . S
C595 C611 1.429 . S
C595 H617 0.950 . S
C596 H592 0.949 . S
C596 C604 1.574 . S
C596 C612 1.368 . S
H597 C605 0.950 . S
H598 C603 0.950 . S
H599 C604 0.949 . S
H600 C606 0.950 . S
H601 C607 0.950 . S
H602 C608 0.949 . S
C603 H598 0.950 . S
C603 C605 1.327 . S
C603 C609 1.429 . S
C604 C596 1.574 . S
C604 H599 0.949 . S
C604 C610 1.368 . S
C605 C589 1.349 . S
C605 H597 0.950 . S
C605 C603 1.327 . S
C606 C594 1.349 . S
C606 H600 0.950 . S
C606 C607 1.327 . S
C607 H601 0.950 . S
C607 C606 1.327 . S
C607 C611 1.429 . S
C608 C591 1.574 . S
C608 H602 0.949 . S
C608 C612 1.368 . S
C609 C590 1.429 . S
C609 C603 1.429 . S
C609 C610 1.523 . S
C610 C591 1.368 . S
C610 C604 1.368 . S
C610 C609 1.523 . S
C611 C595 1.429 . S
C611 C607 1.429 . S
C611 C612 1.523 . S
C612 C596 1.368 . S
C612 C608 1.368 . S
C612 C611 1.523 . S
H613 C588 0.950 . S
H614 C590 0.950 . S
H615 C591 0.949 . S
H616 C593 0.950 . S
H617 C595 0.950 . S
C618 C619 1.349 . S
C618 C620 1.327 . S
C618 H643 0.950 . S
C619 C618 1.349 . S
C619 C635 1.349 . S
C620 C618 1.327 . S
C620 C639 1.429 . S
C620 H644 0.950 . S
C621 C638 1.574 . S
C621 C640 1.368 . S
C621 H645 0.949 . S
H622 C626 0.949 . S
C623 C624 1.349 . S
C623 C625 1.327 . S
C623 H646 0.950 . S
C624 C623 1.349 . S
C624 C636 1.349 . S
C625 C623 1.327 . S
C625 C641 1.429 . S
C625 H647 0.950 . S
C626 H622 0.949 . S
C626 C634 1.574 . S
C626 C642 1.368 . S
H627 C635 0.950 . S
H628 C633 0.950 . S
H629 C634 0.949 . S
H630 C636 0.950 . S
H631 C637 0.950 . S
H632 C638 0.949 . S
C633 H628 0.950 . S
C633 C635 1.327 . S
C633 C639 1.429 . S
C634 C626 1.574 . S
C634 H629 0.949 . S
C634 C640 1.368 . S
C635 C619 1.349 . S
C635 H627 0.950 . S
C635 C633 1.327 . S
C636 C624 1.349 . S
C636 H630 0.950 . S
C636 C637 1.327 . S
C637 H631 0.950 . S
C637 C636 1.327 . S
C637 C641 1.429 . S
C638 C621 1.574 . S
C638 H632 0.949 . S
C638 C642 1.368 . S
C639 C620 1.429 . S
C639 C633 1.429 . S
C639 C640 1.523 . S
C640 C621 1.368 . S
C640 C634 1.368 . S
C640 C639 1.523 . S
C641 C625 1.429 . S
C641 C637 1.429 . S
C641 C642 1.523 . S
C642 C626 1.368 . S
C642 C638 1.368 . S
C642 C641 1.523 . S
H643 C618 0.950 . S
H644 C620 0.950 . S
H645 C621 0.949 . S
H646 C623 0.950 . S
H647 C625 0.950 . S
C648 C649 1.349 1_556 S
C648 C650 1.327 . S
C648 H673 0.950 . S
C649 C648 1.349 1_554 S
C649 C665 1.349 . S
C650 C648 1.327 . S
C650 C669 1.429 . S
C650 H674 0.950 . S
C651 C668 1.574 . S
C651 C670 1.368 . S
C651 H675 0.949 . S
H652 C656 0.949 . S
C653 C654 1.349 . S
C653 C655 1.327 . S
C653 H676 0.950 . S
C654 C653 1.349 . S
C654 C666 1.349 . S
C655 C653 1.327 . S
C655 C671 1.429 . S
C655 H677 0.950 . S
C656 H652 0.949 . S
C656 C664 1.574 . S
C656 C672 1.368 . S
H657 C665 0.949 . S
H658 C663 0.950 . S
H659 C664 0.949 . S
H660 C666 0.950 . S
H661 C667 0.950 . S
H662 C668 0.949 . S
C663 H658 0.950 . S
C663 C665 1.328 1_556 S
C663 C669 1.429 . S
C664 C656 1.574 . S
C664 H659 0.949 . S
C664 C670 1.368 . S
C665 C649 1.349 . S
C665 H657 0.949 . S
C665 C663 1.328 1_554 S
C666 C654 1.349 . S
C666 H660 0.950 . S
C666 C667 1.327 . S
C667 H661 0.950 . S
C667 C666 1.327 . S
C667 C671 1.429 . S
C668 C651 1.574 . S
C668 H662 0.949 . S
C668 C672 1.368 . S
C669 C650 1.429 . S
C669 C663 1.429 . S
C669 C670 1.523 . S
C670 C651 1.368 . S
C670 C664 1.368 . S
C670 C669 1.523 . S
C671 C655 1.429 . S
C671 C667 1.429 . S
C671 C672 1.523 . S
C672 C656 1.368 . S
C672 C668 1.368 . S
C672 C671 1.523 . S
H673 C648 0.950 . S
H674 C650 0.950 . S
H675 C651 0.949 . S
H676 C653 0.950 . S
H677 C655 0.950 . S
C678 C679 1.349 . S
C678 C680 1.327 . S
C678 H703 0.950 . S
C679 C678 1.349 . S
C679 C695 1.349 . S
C680 C678 1.327 . S
C680 C699 1.429 . S
C680 H704 0.950 . S
C681 C698 1.574 . S
C681 C700 1.368 . S
C681 H705 0.949 . S
H682 C686 0.949 . S
C683 C684 1.349 1_554 S
C683 C685 1.327 . S
C683 H706 0.950 . S
C684 C683 1.349 1_556 S
C684 C696 1.349 . S
C685 C683 1.327 . S
C685 C701 1.429 . S
C685 H707 0.950 . S
C686 H682 0.949 . S
C686 C694 1.574 . S
C686 C702 1.368 . S
H687 C695 0.950 . S
H688 C693 0.950 . S
H689 C694 0.949 . S
H690 C696 0.950 . S
H691 C697 0.950 . S
H692 C698 0.949 . S
C693 H688 0.950 . S
C693 C695 1.327 . S
C693 C699 1.429 . S
C694 C686 1.574 . S
C694 H689 0.949 . S
C694 C700 1.368 . S
C695 C679 1.349 . S
C695 H687 0.950 . S
C695 C693 1.327 . S
C696 C684 1.349 . S
C696 H690 0.950 . S
C696 C697 1.327 1_556 S
C697 H691 0.950 . S
C697 C696 1.327 1_554 S
C697 C701 1.429 . S
C698 C681 1.574 . S
C698 H692 0.949 . S
C698 C702 1.368 . S
C699 C680 1.429 . S
C699 C693 1.429 . S
C699 C700 1.523 . S
C700 C681 1.368 . S
C700 C694 1.368 . S
C700 C699 1.523 . S
C701 C685 1.429 . S
C701 C697 1.429 . S
C701 C702 1.523 . S
C702 C686 1.368 . S
C702 C698 1.368 . S
C702 C701 1.523 . S
H703 C678 0.950 . S
H704 C680 0.950 . S
H705 C681 0.949 . S
H706 C683 0.950 . S
H707 C685 0.950 . S
C708 C709 1.349 . S
C708 C710 1.328 1_554 S
C708 H733 0.949 . S
C709 C708 1.349 . S
C709 C725 1.349 1_554 S
C710 C708 1.328 1_556 S
C710 C729 1.429 . S
C710 H734 0.950 . S
C711 C728 1.574 . S
C711 C730 1.368 . S
C711 H735 0.949 . S
H712 C716 0.949 . S
C713 C714 1.349 . S
C713 C715 1.327 . S
C713 H736 0.950 . S
C714 C713 1.349 . S
C714 C726 1.349 . S
C715 C713 1.327 . S
C715 C731 1.429 . S
C715 H737 0.950 . S
C716 H712 0.949 . S
C716 C724 1.574 . S
C716 C732 1.368 . S
H717 C725 0.950 . S
H718 C723 0.950 . S
H719 C724 0.949 . S
H720 C726 0.950 . S
H721 C727 0.950 . S
H722 C728 0.949 . S
C723 H718 0.950 . S
C723 C725 1.327 . S
C723 C729 1.429 . S
C724 C716 1.574 . S
C724 H719 0.949 . S
C724 C730 1.368 . S
C725 C709 1.349 1_556 S
C725 H717 0.950 . S
C725 C723 1.327 . S
C726 C714 1.349 . S
C726 H720 0.950 . S
C726 C727 1.327 . S
C727 H721 0.950 . S
C727 C726 1.327 . S
C727 C731 1.429 . S
C728 C711 1.574 . S
C728 H722 0.949 . S
C728 C732 1.368 . S
C729 C710 1.429 . S
C729 C723 1.429 . S
C729 C730 1.523 . S
C730 C711 1.368 . S
C730 C724 1.368 . S
C730 C729 1.523 . S
C731 C715 1.429 . S
C731 C727 1.429 . S
C731 C732 1.523 . S
C732 C716 1.368 . S
C732 C728 1.368 . S
C732 C731 1.523 . S
H733 C708 0.949 . S
H734 C710 0.950 . S
H735 C711 0.949 . S
H736 C713 0.950 . S
H737 C715 0.950 . S
C738 C739 1.349 . S
C738 C740 1.327 . S
C738 H763 0.950 . S
C739 C738 1.349 . S
C739 C755 1.349 . S
C740 C738 1.327 . S
C740 C759 1.429 . S
C740 H764 0.950 . S
C741 C758 1.574 . S
C741 C760 1.368 . S
C741 H765 0.949 . S
H742 C746 0.949 . S
C743 C744 1.349 . S
C743 C745 1.327 1_556 S
C743 H766 0.950 . S
C744 C743 1.349 . S
C744 C756 1.349 1_556 S
C745 C743 1.327 1_554 S
C745 C761 1.429 . S
C745 H767 0.950 . S
C746 H742 0.949 . S
C746 C754 1.574 . S
C746 C762 1.368 . S
H747 C755 0.950 . S
H748 C753 0.950 . S
H749 C754 0.949 . S
H750 C756 0.950 . S
H751 C757 0.950 . S
H752 C758 0.949 . S
C753 H748 0.950 . S
C753 C755 1.327 . S
C753 C759 1.429 . S
C754 C746 1.574 . S
C754 H749 0.949 . S
C754 C760 1.368 . S
C755 C739 1.349 . S
C755 H747 0.950 . S
C755 C753 1.327 . S
C756 C744 1.349 1_554 S
C756 H750 0.950 . S
C756 C757 1.327 . S
C757 H751 0.950 . S
C757 C756 1.327 . S
C757 C761 1.429 . S
C758 C741 1.574 . S
C758 H752 0.949 . S
C758 C762 1.368 . S
C759 C740 1.429 . S
C759 C753 1.429 . S
C759 C760 1.523 . S
C760 C741 1.368 . S
C760 C754 1.368 . S
C760 C759 1.523 . S
C761 C745 1.429 . S
C761 C757 1.429 . S
C761 C762 1.523 . S
C762 C746 1.368 . S
C762 C758 1.368 . S
C762 C761 1.523 . S
H763 C738 0.950 . S
H764 C740 0.950 . S
H765 C741 0.949 . S
H766 C743 0.950 . S
H767 C745 0.950 . S
C768 C769 1.349 . S
C768 C770 1.327 . S
C768 H793 0.950 . S
C769 C768 1.349 . S
C769 C785 1.349 . S
C770 C768 1.327 . S
C770 C789 1.429 . S
C770 H794 0.950 . S
C771 C788 1.574 . S
C771 C790 1.368 . S
C771 H795 0.949 . S
H772 C776 0.949 . S
C773 C774 1.349 . S
C773 C775 1.327 . S
C773 H796 0.950 . S
C774 C773 1.349 . S
C774 C786 1.349 . S
C775 C773 1.327 . S
C775 C791 1.429 . S
C775 H797 0.950 . S
C776 H772 0.949 . S
C776 C784 1.574 . S
C776 C792 1.368 . S
H777 C785 0.950 . S
H778 C783 0.950 . S
H779 C784 0.949 . S
H780 C786 0.950 . S
H781 C787 0.950 . S
H782 C788 0.949 . S
C783 H778 0.950 . S
C783 C785 1.327 . S
C783 C789 1.429 . S
C784 C776 1.574 . S
C784 H779 0.949 . S
C784 C790 1.368 . S
C785 C769 1.349 . S
C785 H777 0.950 . S
C785 C783 1.327 . S
C786 C774 1.349 . S
C786 H780 0.950 . S
C786 C787 1.327 . S
C787 H781 0.950 . S
C787 C786 1.327 . S
C787 C791 1.429 . S
C788 C771 1.574 . S
C788 H782 0.949 . S
C788 C792 1.368 . S
C789 C770 1.429 . S
C789 C783 1.429 . S
C789 C790 1.523 . S
C790 C771 1.368 . S
C790 C784 1.368 . S
C790 C789 1.523 . S
C791 C775 1.429 . S
C791 C787 1.429 . S
C791 C792 1.523 . S
C792 C776 1.368 . S
C792 C788 1.368 . S
C792 C791 1.523 . S
H793 C768 0.950 . S
H794 C770 0.950 . S
H795 C771 0.949 . S
H796 C773 0.950 . S
H797 C775 0.950 . S
C798 C799 1.349 . S
C798 C800 1.327 . S
C798 H823 0.950 . S
C799 C798 1.349 . S
C799 C815 1.349 . S
C800 C798 1.327 . S
C800 C819 1.429 . S
C800 H824 0.950 . S
C801 C818 1.574 . S
C801 C820 1.368 . S
C801 H825 0.949 . S
H802 C806 0.949 . S
C803 C804 1.349 . S
C803 C805 1.327 . S
C803 H826 0.950 . S
C804 C803 1.349 . S
C804 C816 1.349 . S
C805 C803 1.327 . S
C805 C821 1.429 . S
C805 H827 0.950 . S
C806 H802 0.949 . S
C806 C814 1.574 . S
C806 C822 1.368 . S
H807 C815 0.950 . S
H808 C813 0.950 . S
H809 C814 0.949 . S
H810 C816 0.950 . S
H811 C817 0.950 . S
H812 C818 0.949 . S
C813 H808 0.950 . S
C813 C815 1.327 . S
C813 C819 1.429 . S
C814 C806 1.574 . S
C814 H809 0.949 . S
C814 C820 1.368 . S
C815 C799 1.349 . S
C815 H807 0.950 . S
C815 C813 1.327 . S
C816 C804 1.349 . S
C816 H810 0.950 . S
C816 C817 1.327 . S
C817 H811 0.950 . S
C817 C816 1.327 . S
C817 C821 1.429 . S
C818 C801 1.574 . S
C818 H812 0.949 . S
C818 C822 1.368 . S
C819 C800 1.429 . S
C819 C813 1.429 . S
C819 C820 1.523 . S
C820 C801 1.368 . S
C820 C814 1.368 . S
C820 C819 1.523 . S
C821 C805 1.429 . S
C821 C817 1.429 . S
C821 C822 1.523 . S
C822 C806 1.368 . S
C822 C818 1.368 . S
C822 C821 1.523 . S
H823 C798 0.950 . S
H824 C800 0.950 . S
H825 C801 0.949 . S
H826 C803 0.950 . S
H827 C805 0.950 . S
C828 C829 1.349 . S
C828 C830 1.327 . S
C828 H853 0.950 . S
C829 C828 1.349 . S
C829 C845 1.349 . S
C830 C828 1.327 . S
C830 C849 1.429 . S
C830 H854 0.950 . S
C831 C848 1.574 . S
C831 C850 1.368 . S
C831 H855 0.949 . S
H832 C836 0.949 . S
C833 C834 1.349 . S
C833 C835 1.327 . S
C833 H856 0.950 . S
C834 C833 1.349 . S
C834 C846 1.349 . S
C835 C833 1.327 . S
C835 C851 1.429 . S
C835 H857 0.950 . S
C836 H832 0.949 . S
C836 C844 1.574 . S
C836 C852 1.368 . S
H837 C845 0.950 . S
H838 C843 0.950 . S
H839 C844 0.949 . S
H840 C846 0.950 . S
H841 C847 0.950 . S
H842 C848 0.949 . S
C843 H838 0.950 . S
C843 C845 1.327 . S
C843 C849 1.429 . S
C844 C836 1.574 . S
C844 H839 0.949 . S
C844 C850 1.368 . S
C845 C829 1.349 . S
C845 H837 0.950 . S
C845 C843 1.327 . S
C846 C834 1.349 . S
C846 H840 0.950 . S
C846 C847 1.327 . S
C847 H841 0.950 . S
C847 C846 1.327 . S
C847 C851 1.429 . S
C848 C831 1.574 . S
C848 H842 0.949 . S
C848 C852 1.368 . S
C849 C830 1.429 . S
C849 C843 1.429 . S
C849 C850 1.523 . S
C850 C831 1.368 . S
C850 C844 1.368 . S
C850 C849 1.523 . S
C851 C835 1.429 . S
C851 C847 1.429 . S
C851 C852 1.523 . S
C852 C836 1.368 . S
C852 C848 1.368 . S
C852 C851 1.523 . S
H853 C828 0.950 . S
H854 C830 0.950 . S
H855 C831 0.949 . S
H856 C833 0.950 . S
H857 C835 0.950 . S
C858 C859 1.349 . S
C858 C860 1.327 . S
C858 H883 0.950 . S
C859 C858 1.349 . S
C859 C875 1.349 . S
C860 C858 1.327 . S
C860 C879 1.429 . S
C860 H884 0.950 . S
C861 C878 1.574 . S
C861 C880 1.368 . S
C861 H885 0.949 . S
H862 C866 0.949 . S
C863 C864 1.349 . S
C863 C865 1.327 . S
C863 H886 0.950 . S
C864 C863 1.349 . S
C864 C876 1.349 . S
C865 C863 1.327 . S
C865 C881 1.429 . S
C865 H887 0.950 . S
C866 H862 0.949 . S
C866 C874 1.574 . S
C866 C882 1.368 . S
H867 C875 0.950 . S
H868 C873 0.950 . S
H869 C874 0.949 . S
H870 C876 0.950 . S
H871 C877 0.950 . S
H872 C878 0.949 . S
C873 H868 0.950 . S
C873 C875 1.327 . S
C873 C879 1.429 . S
C874 C866 1.574 . S
C874 H869 0.949 . S
C874 C880 1.368 . S
C875 C859 1.349 . S
C875 H867 0.950 . S
C875 C873 1.327 . S
C876 C864 1.349 . S
C876 H870 0.950 . S
C876 C877 1.327 . S
C877 H871 0.950 . S
C877 C876 1.327 . S
C877 C881 1.429 . S
C878 C861 1.574 . S
C878 H872 0.949 . S
C878 C882 1.368 . S
C879 C860 1.429 . S
C879 C873 1.429 . S
C879 C880 1.523 . S
C880 C861 1.368 . S
C880 C874 1.368 . S
C880 C879 1.523 . S
C881 C865 1.429 . S
C881 C877 1.429 . S
C881 C882 1.523 . S
C882 C866 1.368 . S
C882 C878 1.368 . S
C882 C881 1.523 . S
H883 C858 0.950 . S
H884 C860 0.950 . S
H885 C861 0.949 . S
H886 C863 0.950 . S
H887 C865 0.950 . S
C888 C889 1.349 . S
C888 C890 1.327 . S
C888 H913 0.950 . S
C889 C888 1.349 . S
C889 C905 1.349 . S
C890 C888 1.327 . S
C890 C909 1.429 . S
C890 H914 0.950 . S
C891 C908 1.574 . S
C891 C910 1.368 . S
C891 H915 0.949 . S
H892 C896 0.949 . S
C893 C894 1.349 . S
C893 C895 1.327 . S
C893 H916 0.950 . S
C894 C893 1.349 . S
C894 C906 1.349 . S
C895 C893 1.327 . S
C895 C911 1.429 . S
C895 H917 0.950 . S
C896 H892 0.949 . S
C896 C904 1.574 . S
C896 C912 1.368 . S
H897 C905 0.950 . S
H898 C903 0.950 . S
H899 C904 0.949 . S
H900 C906 0.950 . S
H901 C907 0.950 . S
H902 C908 0.949 . S
C903 H898 0.950 . S
C903 C905 1.327 . S
C903 C909 1.429 . S
C904 C896 1.574 . S
C904 H899 0.949 . S
C904 C910 1.368 . S
C905 C889 1.349 . S
C905 H897 0.950 . S
C905 C903 1.327 . S
C906 C894 1.349 . S
C906 H900 0.950 . S
C906 C907 1.327 . S
C907 H901 0.950 . S
C907 C906 1.327 . S
C907 C911 1.429 . S
C908 C891 1.574 . S
C908 H902 0.949 . S
C908 C912 1.368 . S
C909 C890 1.429 . S
C909 C903 1.429 . S
C909 C910 1.523 . S
C910 C891 1.368 . S
C910 C904 1.368 . S
C910 C909 1.523 . S
C911 C895 1.429 . S
C911 C907 1.429 . S
C911 C912 1.523 . S
C912 C896 1.368 . S
C912 C908 1.368 . S
C912 C911 1.523 . S
H913 C888 0.950 . S
H914 C890 0.950 . S
H915 C891 0.949 . S
H916 C893 0.950 . S
H917 C895 0.950 . S
C918 C919 1.349 . S
C918 C920 1.327 . S
C918 H943 0.950 . S
C919 C918 1.349 . S
C919 C935 1.349 . S
C920 C918 1.327 . S
C920 C939 1.429 . S
C920 H944 0.950 . S
C921 C938 1.574 . S
C921 C940 1.368 . S
C921 H945 0.949 . S
H922 C926 0.949 . S
C923 C924 1.349 . S
C923 C925 1.327 . S
C923 H946 0.950 . S
C924 C923 1.349 . S
C924 C936 1.349 . S
C925 C923 1.327 . S
C925 C941 1.429 . S
C925 H947 0.950 . S
C926 H922 0.949 . S
C926 C934 1.574 . S
C926 C942 1.368 . S
H927 C935 0.950 . S
H928 C933 0.950 . S
H929 C934 0.949 . S
H930 C936 0.950 . S
H931 C937 0.950 . S
H932 C938 0.949 . S
C933 H928 0.950 . S
C933 C935 1.327 . S
C933 C939 1.429 . S
C934 C926 1.574 . S
C934 H929 0.949 . S
C934 C940 1.368 . S
C935 C919 1.349 . S
C935 H927 0.950 . S
C935 C933 1.327 . S
C936 C924 1.349 . S
C936 H930 0.950 . S
C936 C937 1.327 . S
C937 H931 0.950 . S
C937 C936 1.327 . S
C937 C941 1.429 . S
C938 C921 1.574 . S
C938 H932 0.949 . S
C938 C942 1.368 . S
C939 C920 1.429 . S
C939 C933 1.429 . S
C939 C940 1.523 . S
C940 C921 1.368 . S
C940 C934 1.368 . S
C940 C939 1.523 . S
C941 C925 1.429 . S
C941 C937 1.429 . S
C941 C942 1.523 . S
C942 C926 1.368 . S
C942 C938 1.368 . S
C942 C941 1.523 . S
H943 C918 0.950 . S
H944 C920 0.950 . S
H945 C921 0.949 . S
H946 C923 0.950 . S
H947 C925 0.950 . S
C948 C949 1.349 . S
C948 C950 1.327 . S
C948 H973 0.950 . S
C949 C948 1.349 . S
C949 C965 1.349 . S
C950 C948 1.327 . S
C950 C969 1.429 . S
C950 H974 0.950 . S
C951 C968 1.574 . S
C951 C970 1.368 . S
C951 H975 0.949 . S
H952 C956 0.949 . S
C953 C954 1.349 . S
C953 C955 1.327 . S
C953 H976 0.950 . S
C954 C953 1.349 . S
C954 C966 1.349 . S
C955 C953 1.327 . S
C955 C971 1.429 . S
C955 H977 0.950 . S
C956 H952 0.949 . S
C956 C964 1.574 . S
C956 C972 1.368 . S
H957 C965 0.950 . S
H958 C963 0.950 . S
H959 C964 0.949 . S
H960 C966 0.950 . S
H961 C967 0.950 . S
H962 C968 0.949 . S
C963 H958 0.950 . S
C963 C965 1.327 . S
C963 C969 1.429 . S
C964 C956 1.574 . S
C964 H959 0.949 . S
C964 C970 1.368 . S
C965 C949 1.349 . S
C965 H957 0.950 . S
C965 C963 1.327 . S
C966 C954 1.349 . S
C966 H960 0.950 . S
C966 C967 1.327 . S
C967 H961 0.950 . S
C967 C966 1.327 . S
C967 C971 1.429 . S
C968 C951 1.574 . S
C968 H962 0.949 . S
C968 C972 1.368 . S
C969 C950 1.429 . S
C969 C963 1.429 . S
C969 C970 1.523 . S
C970 C951 1.368 . S
C970 C964 1.368 . S
C970 C969 1.523 . S
C971 C955 1.429 . S
C971 C967 1.429 . S
C971 C972 1.523 . S
C972 C956 1.368 . S
C972 C968 1.368 . S
C972 C971 1.523 . S
H973 C948 0.950 . S
H974 C950 0.950 . S
H975 C951 0.949 . S
H976 C953 0.950 . S
H977 C955 0.950 . S
C978 C979 1.349 . S
C978 C980 1.327 . S
C978 H1003 0.950 . S
C979 C978 1.349 . S
C979 C995 1.349 . S
C980 C978 1.327 . S
C980 C999 1.429 . S
C980 H1004 0.950 . S
C981 C998 1.574 . S
C981 C1000 1.368 . S
C981 H1005 0.949 . S
H982 C986 0.949 . S
C983 C984 1.349 . S
C983 C985 1.327 . S
C983 H1006 0.950 . S
C984 C983 1.349 . S
C984 C996 1.349 . S
C985 C983 1.327 . S
C985 C1001 1.429 . S
C985 H1007 0.950 . S
C986 H982 0.949 . S
C986 C994 1.574 . S
C986 C1002 1.368 . S
H987 C995 0.950 . S
H988 C993 0.950 . S
H989 C994 0.949 . S
H990 C996 0.950 . S
H991 C997 0.950 . S
H992 C998 0.949 . S
C993 H988 0.950 . S
C993 C995 1.327 . S
C993 C999 1.429 . S
C994 C986 1.574 . S
C994 H989 0.949 . S
C994 C1000 1.368 . S
C995 C979 1.349 . S
C995 H987 0.950 . S
C995 C993 1.327 . S
C996 C984 1.349 . S
C996 H990 0.950 . S
C996 C997 1.327 . S
C997 H991 0.950 . S
C997 C996 1.327 . S
C997 C1001 1.429 . S
C998 C981 1.574 . S
C998 H992 0.949 . S
C998 C1002 1.368 . S
C999 C980 1.429 . S
C999 C993 1.429 . S
C999 C1000 1.523 . S
C1000 C981 1.368 . S
C1000 C994 1.368 . S
C1000 C999 1.523 . S
C1001 C985 1.429 . S
C1001 C997 1.429 . S
C1001 C1002 1.523 . S
C1002 C986 1.368 . S
C1002 C998 1.368 . S
C1002 C1001 1.523 . S
H1003 C978 0.950 . S
H1004 C980 0.950 . S
H1005 C981 0.949 . S
H1006 C983 0.950 . S
H1007 C985 0.950 . S
C1008 C1009 1.349 . S
C1008 C1010 1.327 1_554 S
C1008 H1033 0.950 . S
C1009 C1008 1.349 . S
C1009 C1025 1.349 1_554 S
C1010 C1008 1.327 1_556 S
C1010 C1029 1.429 . S
C1010 H1034 0.950 . S
C1011 C1028 1.574 . S
C1011 C1030 1.368 . S
C1011 H1035 0.949 . S
H1012 C1016 0.949 . S
C1013 C1014 1.349 . S
C1013 C1015 1.327 . S
C1013 H1036 0.950 . S
C1014 C1013 1.349 . S
C1014 C1026 1.349 . S
C1015 C1013 1.327 . S
C1015 C1031 1.429 . S
C1015 H1037 0.950 . S
C1016 H1012 0.949 . S
C1016 C1024 1.574 . S
C1016 C1032 1.368 . S
H1017 C1025 0.950 . S
H1018 C1023 0.950 . S
H1019 C1024 0.949 . S
H1020 C1026 0.950 . S
H1021 C1027 0.950 . S
H1022 C1028 0.949 . S
C1023 H1018 0.950 . S
C1023 C1025 1.327 . S
C1023 C1029 1.429 . S
C1024 C1016 1.574 . S
C1024 H1019 0.949 . S
C1024 C1030 1.368 . S
C1025 C1009 1.349 1_556 S
C1025 H1017 0.950 . S
C1025 C1023 1.327 . S
C1026 C1014 1.349 . S
C1026 H1020 0.950 . S
C1026 C1027 1.327 . S
C1027 H1021 0.950 . S
C1027 C1026 1.327 . S
C1027 C1031 1.429 . S
C1028 C1011 1.574 . S
C1028 H1022 0.949 . S
C1028 C1032 1.368 . S
C1029 C1010 1.429 . S
C1029 C1023 1.429 . S
C1029 C1030 1.523 . S
C1030 C1011 1.368 . S
C1030 C1024 1.368 . S
C1030 C1029 1.523 . S
C1031 C1015 1.429 . S
C1031 C1027 1.429 . S
C1031 C1032 1.523 . S
C1032 C1016 1.368 . S
C1032 C1028 1.368 . S
C1032 C1031 1.523 . S
H1033 C1008 0.950 . S
H1034 C1010 0.950 . S
H1035 C1011 0.949 . S
H1036 C1013 0.950 . S
H1037 C1015 0.950 . S
C1038 C1039 1.349 . S
C1038 C1040 1.327 . S
C1038 H1063 0.950 . S
C1039 C1038 1.349 . S
C1039 C1055 1.349 . S
C1040 C1038 1.327 . S
C1040 C1059 1.429 . S
C1040 H1064 0.950 . S
C1041 C1058 1.574 . S
C1041 C1060 1.368 . S
C1041 H1065 0.949 . S
H1042 C1046 0.949 . S
C1043 C1044 1.349 . S
C1043 C1045 1.327 1_556 S
C1043 H1066 0.950 . S
C1044 C1043 1.349 . S
C1044 C1056 1.349 1_556 S
C1045 C1043 1.327 1_554 S
C1045 C1061 1.429 . S
C1045 H1067 0.950 . S
C1046 H1042 0.949 . S
C1046 C1054 1.574 . S
C1046 C1062 1.368 . S
H1047 C1055 0.950 . S
H1048 C1053 0.950 . S
H1049 C1054 0.949 . S
H1050 C1056 0.950 . S
H1051 C1057 0.950 . S
H1052 C1058 0.949 . S
C1053 H1048 0.950 . S
C1053 C1055 1.327 . S
C1053 C1059 1.429 . S
C1054 C1046 1.574 . S
C1054 H1049 0.949 . S
C1054 C1060 1.368 . S
C1055 C1039 1.349 . S
C1055 H1047 0.950 . S
C1055 C1053 1.327 . S
C1056 C1044 1.349 1_554 S
C1056 H1050 0.950 . S
C1056 C1057 1.327 . S
C1057 H1051 0.950 . S
C1057 C1056 1.327 . S
C1057 C1061 1.429 . S
C1058 C1041 1.574 . S
C1058 H1052 0.949 . S
C1058 C1062 1.368 . S
C1059 C1040 1.429 . S
C1059 C1053 1.429 . S
C1059 C1060 1.523 . S
C1060 C1041 1.368 . S
C1060 C1054 1.368 . S
C1060 C1059 1.523 . S
C1061 C1045 1.429 . S
C1061 C1057 1.429 . S
C1061 C1062 1.523 . S
C1062 C1046 1.368 . S
C1062 C1058 1.368 . S
C1062 C1061 1.523 . S
H1063 C1038 0.950 . S
H1064 C1040 0.950 . S
H1065 C1041 0.949 . S
H1066 C1043 0.950 . S
H1067 C1045 0.950 . S
C1068 C1069 1.349 . S
C1068 C1070 1.327 1_554 S
C1068 H1093 0.950 . S
C1069 C1068 1.349 . S
C1069 C1085 1.349 1_554 S
C1070 C1068 1.327 1_556 S
C1070 C1089 1.429 . S
C1070 H1094 0.950 . S
C1071 C1088 1.574 . S
C1071 C1090 1.368 . S
C1071 H1095 0.949 . S
H1072 C1076 0.949 . S
C1073 C1074 1.349 . S
C1073 C1075 1.327 . S
C1073 H1096 0.950 . S
C1074 C1073 1.349 . S
C1074 C1086 1.349 . S
C1075 C1073 1.327 . S
C1075 C1091 1.429 . S
C1075 H1097 0.950 . S
C1076 H1072 0.949 . S
C1076 C1084 1.574 . S
C1076 C1092 1.368 . S
H1077 C1085 0.950 . S
H1078 C1083 0.950 . S
H1079 C1084 0.949 . S
H1080 C1086 0.950 . S
H1081 C1087 0.950 . S
H1082 C1088 0.949 . S
C1083 H1078 0.950 . S
C1083 C1085 1.327 . S
C1083 C1089 1.429 . S
C1084 C1076 1.574 . S
C1084 H1079 0.949 . S
C1084 C1090 1.368 . S
C1085 C1069 1.349 1_556 S
C1085 H1077 0.950 . S
C1085 C1083 1.327 . S
C1086 C1074 1.349 . S
C1086 H1080 0.950 . S
C1086 C1087 1.327 . S
C1087 H1081 0.950 . S
C1087 C1086 1.327 . S
C1087 C1091 1.429 . S
C1088 C1071 1.574 . S
C1088 H1082 0.949 . S
C1088 C1092 1.368 . S
C1089 C1070 1.429 . S
C1089 C1083 1.429 . S
C1089 C1090 1.523 . S
C1090 C1071 1.368 . S
C1090 C1084 1.368 . S
C1090 C1089 1.523 . S
C1091 C1075 1.429 . S
C1091 C1087 1.429 . S
C1091 C1092 1.523 . S
C1092 C1076 1.368 . S
C1092 C1088 1.368 . S
C1092 C1091 1.523 . S
H1093 C1068 0.950 . S
H1094 C1070 0.950 . S
H1095 C1071 0.949 . S
H1096 C1073 0.950 . S
H1097 C1075 0.950 . S
C1098 C1099 1.349 . S
C1098 C1100 1.327 . S
C1098 H1123 0.950 . S
C1099 C1098 1.349 . S
C1099 C1115 1.349 . S
C1100 C1098 1.327 . S
C1100 C1119 1.429 . S
C1100 H1124 0.950 . S
C1101 C1118 1.574 . S
C1101 C1120 1.368 . S
C1101 H1125 0.949 . S
H1102 C1106 0.949 . S
C1103 C1104 1.349 1_554 S
C1103 C1105 1.327 . S
C1103 H1126 0.950 . S
C1104 C1103 1.349 1_556 S
C1104 C1116 1.349 . S
C1105 C1103 1.327 . S
C1105 C1121 1.429 . S
C1105 H1127 0.950 . S
C1106 H1102 0.949 . S
C1106 C1114 1.574 . S
C1106 C1122 1.368 . S
H1107 C1115 0.950 . S
H1108 C1113 0.950 . S
H1109 C1114 0.949 . S
H1110 C1116 0.950 . S
H1111 C1117 0.950 . S
H1112 C1118 0.949 . S
C1113 H1108 0.950 . S
C1113 C1115 1.327 . S
C1113 C1119 1.429 . S
C1114 C1106 1.574 . S
C1114 H1109 0.949 . S
C1114 C1120 1.368 . S
C1115 C1099 1.349 . S
C1115 H1107 0.950 . S
C1115 C1113 1.327 . S
C1116 C1104 1.349 . S
C1116 H1110 0.950 . S
C1116 C1117 1.327 1_556 S
C1117 H1111 0.950 . S
C1117 C1116 1.327 1_554 S
C1117 C1121 1.429 . S
C1118 C1101 1.574 . S
C1118 H1112 0.949 . S
C1118 C1122 1.368 . S
C1119 C1100 1.429 . S
C1119 C1113 1.429 . S
C1119 C1120 1.523 . S
C1120 C1101 1.368 . S
C1120 C1114 1.368 . S
C1120 C1119 1.523 . S
C1121 C1105 1.429 . S
C1121 C1117 1.429 . S
C1121 C1122 1.523 . S
C1122 C1106 1.368 . S
C1122 C1118 1.368 . S
C1122 C1121 1.523 . S
H1123 C1098 0.950 . S
H1124 C1100 0.950 . S
H1125 C1101 0.949 . S
H1126 C1103 0.950 . S
H1127 C1105 0.950 . S
C1128 C1129 1.349 . S
C1128 C1130 1.327 . S
C1128 H1153 0.950 . S
C1129 C1128 1.349 . S
C1129 C1145 1.349 . S
C1130 C1128 1.327 . S
C1130 C1149 1.429 . S
C1130 H1154 0.950 . S
C1131 C1148 1.574 . S
C1131 C1150 1.368 . S
C1131 H1155 0.949 . S
H1132 C1136 0.949 . S
C1133 C1134 1.349 . S
C1133 C1135 1.327 . S
C1133 H1156 0.950 . S
C1134 C1133 1.349 . S
C1134 C1146 1.349 . S
C1135 C1133 1.327 . S
C1135 C1151 1.429 . S
C1135 H1157 0.950 . S
C1136 H1132 0.949 . S
C1136 C1144 1.574 . S
C1136 C1152 1.368 . S
H1137 C1145 0.950 . S
H1138 C1143 0.950 . S
H1139 C1144 0.949 . S
H1140 C1146 0.950 . S
H1141 C1147 0.950 . S
H1142 C1148 0.949 . S
C1143 H1138 0.950 . S
C1143 C1145 1.327 . S
C1143 C1149 1.429 . S
C1144 C1136 1.574 . S
C1144 H1139 0.949 . S
C1144 C1150 1.368 . S
C1145 C1129 1.349 . S
C1145 H1137 0.950 . S
C1145 C1143 1.327 . S
C1146 C1134 1.349 . S
C1146 H1140 0.950 . S
C1146 C1147 1.327 . S
C1147 H1141 0.950 . S
C1147 C1146 1.327 . S
C1147 C1151 1.429 . S
C1148 C1131 1.574 . S
C1148 H1142 0.949 . S
C1148 C1152 1.368 . S
C1149 C1130 1.429 . S
C1149 C1143 1.429 . S
C1149 C1150 1.523 . S
C1150 C1131 1.368 . S
C1150 C1144 1.368 . S
C1150 C1149 1.523 . S
C1151 C1135 1.429 . S
C1151 C1147 1.429 . S
C1151 C1152 1.523 . S
C1152 C1136 1.368 . S
C1152 C1148 1.368 . S
C1152 C1151 1.523 . S
H1153 C1128 0.950 . S
H1154 C1130 0.950 . S
H1155 C1131 0.949 . S
H1156 C1133 0.950 . S
H1157 C1135 0.950 . S
C1158 C1159 1.349 . S
C1158 C1160 1.327 . S
C1158 H1183 0.950 . S
C1159 C1158 1.349 . S
C1159 C1175 1.349 . S
C1160 C1158 1.327 . S
C1160 C1179 1.429 . S
C1160 H1184 0.950 . S
C1161 C1178 1.574 . S
C1161 C1180 1.368 . S
C1161 H1185 0.949 . S
H1162 C1166 0.949 . S
C1163 C1164 1.349 . S
C1163 C1165 1.327 . S
C1163 H1186 0.950 . S
C1164 C1163 1.349 . S
C1164 C1176 1.349 . S
C1165 C1163 1.327 . S
C1165 C1181 1.429 . S
C1165 H1187 0.950 . S
C1166 H1162 0.949 . S
C1166 C1174 1.574 . S
C1166 C1182 1.368 . S
H1167 C1175 0.950 . S
H1168 C1173 0.950 . S
H1169 C1174 0.949 . S
H1170 C1176 0.950 . S
H1171 C1177 0.950 . S
H1172 C1178 0.949 . S
C1173 H1168 0.950 . S
C1173 C1175 1.327 . S
C1173 C1179 1.429 . S
C1174 C1166 1.574 . S
C1174 H1169 0.949 . S
C1174 C1180 1.368 . S
C1175 C1159 1.349 . S
C1175 H1167 0.950 . S
C1175 C1173 1.327 . S
C1176 C1164 1.349 . S
C1176 H1170 0.950 . S
C1176 C1177 1.327 . S
C1177 H1171 0.950 . S
C1177 C1176 1.327 . S
C1177 C1181 1.429 . S
C1178 C1161 1.574 . S
C1178 H1172 0.949 . S
C1178 C1182 1.368 . S
C1179 C1160 1.429 . S
C1179 C1173 1.429 . S
C1179 C1180 1.523 . S
C1180 C1161 1.368 . S
C1180 C1174 1.368 . S
C1180 C1179 1.523 . S
C1181 C1165 1.429 . S
C1181 C1177 1.429 . S
C1181 C1182 1.523 . S
C1182 C1166 1.368 . S
C1182 C1178 1.368 . S
C1182 C1181 1.523 . S
H1183 C1158 0.950 . S
H1184 C1160 0.950 . S
H1185 C1161 0.949 . S
H1186 C1163 0.950 . S
H1187 C1165 0.950 . S
C1188 C1189 1.349 . S
C1188 C1190 1.327 . S
C1188 H1213 0.950 . S
C1189 C1188 1.349 . S
C1189 C1205 1.349 . S
C1190 C1188 1.327 . S
C1190 C1209 1.429 . S
C1190 H1214 0.950 . S
C1191 C1208 1.574 . S
C1191 C1210 1.368 . S
C1191 H1215 0.949 . S
H1192 C1196 0.949 . S
C1193 C1194 1.349 . S
C1193 C1195 1.327 . S
C1193 H1216 0.950 . S
C1194 C1193 1.349 . S
C1194 C1206 1.349 . S
C1195 C1193 1.327 . S
C1195 C1211 1.429 . S
C1195 H1217 0.950 . S
C1196 H1192 0.949 . S
C1196 C1204 1.574 . S
C1196 C1212 1.368 . S
H1197 C1205 0.950 . S
H1198 C1203 0.950 . S
H1199 C1204 0.949 . S
H1200 C1206 0.950 . S
H1201 C1207 0.950 . S
H1202 C1208 0.949 . S
C1203 H1198 0.950 . S
C1203 C1205 1.327 . S
C1203 C1209 1.429 . S
C1204 C1196 1.574 . S
C1204 H1199 0.949 . S
C1204 C1210 1.368 . S
C1205 C1189 1.349 . S
C1205 H1197 0.950 . S
C1205 C1203 1.327 . S
C1206 C1194 1.349 . S
C1206 H1200 0.950 . S
C1206 C1207 1.327 . S
C1207 H1201 0.950 . S
C1207 C1206 1.327 . S
C1207 C1211 1.429 . S
C1208 C1191 1.574 . S
C1208 H1202 0.949 . S
C1208 C1212 1.368 . S
C1209 C1190 1.429 . S
C1209 C1203 1.429 . S
C1209 C1210 1.523 . S
C1210 C1191 1.368 . S
C1210 C1204 1.368 . S
C1210 C1209 1.523 . S
C1211 C1195 1.429 . S
C1211 C1207 1.429 . S
C1211 C1212 1.523 . S
C1212 C1196 1.368 . S
C1212 C1208 1.368 . S
C1212 C1211 1.523 . S
H1213 C1188 0.950 . S
H1214 C1190 0.950 . S
H1215 C1191 0.949 . S
H1216 C1193 0.950 . S
H1217 C1195 0.950 . S
C1218 C1219 1.349 . S
C1218 C1220 1.327 . S
C1218 H1243 0.950 . S
C1219 C1218 1.349 . S
C1219 C1235 1.349 . S
C1220 C1218 1.327 . S
C1220 C1239 1.429 . S
C1220 H1244 0.950 . S
C1221 C1238 1.574 . S
C1221 C1240 1.368 . S
C1221 H1245 0.949 . S
H1222 C1226 0.949 . S
C1223 C1224 1.349 . S
C1223 C1225 1.327 . S
C1223 H1246 0.950 . S
C1224 C1223 1.349 . S
C1224 C1236 1.349 . S
C1225 C1223 1.327 . S
C1225 C1241 1.429 . S
C1225 H1247 0.950 . S
C1226 H1222 0.949 . S
C1226 C1234 1.574 . S
C1226 C1242 1.368 . S
H1227 C1235 0.950 . S
H1228 C1233 0.950 . S
H1229 C1234 0.949 . S
H1230 C1236 0.950 . S
H1231 C1237 0.950 . S
H1232 C1238 0.949 . S
C1233 H1228 0.950 . S
C1233 C1235 1.327 . S
C1233 C1239 1.429 . S
C1234 C1226 1.574 . S
C1234 H1229 0.949 . S
C1234 C1240 1.368 . S
C1235 C1219 1.349 . S
C1235 H1227 0.950 . S
C1235 C1233 1.327 . S
C1236 C1224 1.349 . S
C1236 H1230 0.950 . S
C1236 C1237 1.327 . S
C1237 H1231 0.950 . S
C1237 C1236 1.327 . S
C1237 C1241 1.429 . S
C1238 C1221 1.574 . S
C1238 H1232 0.949 . S
C1238 C1242 1.368 . S
C1239 C1220 1.429 . S
C1239 C1233 1.429 . S
C1239 C1240 1.523 . S
C1240 C1221 1.368 . S
C1240 C1234 1.368 . S
C1240 C1239 1.523 . S
C1241 C1225 1.429 . S
C1241 C1237 1.429 . S
C1241 C1242 1.523 . S
C1242 C1226 1.368 . S
C1242 C1238 1.368 . S
C1242 C1241 1.523 . S
H1243 C1218 0.950 . S
H1244 C1220 0.950 . S
H1245 C1221 0.949 . S
H1246 C1223 0.950 . S
H1247 C1225 0.950 . S
C1248 C1249 1.349 . S
C1248 C1250 1.327 1_545 S
C1248 H1273 0.950 . S
C1249 C1248 1.349 . S
C1249 C1265 1.349 . S
C1250 C1248 1.327 1_565 S
C1250 C1269 1.429 . S
C1250 H1274 0.950 . S
C1251 C1268 1.574 . S
C1251 C1270 1.368 . S
C1251 H1275 0.949 . S
H1252 C1256 0.949 . S
C1253 C1254 1.349 . S
C1253 C1255 1.327 . S
C1253 H1276 0.950 . S
C1254 C1253 1.349 . S
C1254 C1266 1.349 . S
C1255 C1253 1.327 . S
C1255 C1271 1.429 . S
C1255 H1277 0.950 . S
C1256 H1252 0.949 . S
C1256 C1264 1.574 . S
C1256 C1272 1.368 . S
H1257 C1265 0.950 . S
H1258 C1263 0.950 . S
H1259 C1264 0.949 . S
H1260 C1266 0.950 . S
H1261 C1267 0.950 . S
H1262 C1268 0.949 . S
C1263 H1258 0.950 . S
C1263 C1265 1.327 1_565 S
C1263 C1269 1.429 . S
C1264 C1256 1.574 . S
C1264 H1259 0.949 . S
C1264 C1270 1.368 . S
C1265 C1249 1.349 . S
C1265 H1257 0.950 . S
C1265 C1263 1.327 1_545 S
C1266 C1254 1.349 . S
C1266 H1260 0.950 . S
C1266 C1267 1.327 . S
C1267 H1261 0.950 . S
C1267 C1266 1.327 . S
C1267 C1271 1.429 . S
C1268 C1251 1.574 . S
C1268 H1262 0.949 . S
C1268 C1272 1.368 . S
C1269 C1250 1.429 . S
C1269 C1263 1.429 . S
C1269 C1270 1.523 . S
C1270 C1251 1.368 . S
C1270 C1264 1.368 . S
C1270 C1269 1.523 . S
C1271 C1255 1.429 . S
C1271 C1267 1.429 . S
C1271 C1272 1.523 . S
C1272 C1256 1.368 . S
C1272 C1268 1.368 . S
C1272 C1271 1.523 . S
H1273 C1248 0.950 . S
H1274 C1250 0.950 . S
H1275 C1251 0.949 . S
H1276 C1253 0.950 . S
H1277 C1255 0.950 . S
C1278 C1279 1.349 . S
C1278 C1280 1.327 . S
C1278 H1303 0.950 . S
C1279 C1278 1.349 . S
C1279 C1295 1.349 . S
C1280 C1278 1.327 . S
C1280 C1299 1.429 . S
C1280 H1304 0.950 . S
C1281 C1298 1.574 . S
C1281 C1300 1.368 . S
C1281 H1305 0.949 . S
H1282 C1286 0.949 . S
C1283 C1284 1.349 . S
C1283 C1285 1.327 1_455 S
C1283 H1306 0.950 . S
C1284 C1283 1.349 . S
C1284 C1296 1.349 . S
C1285 C1283 1.327 1_655 S
C1285 C1301 1.429 . S
C1285 H1307 0.950 . S
C1286 H1282 0.949 . S
C1286 C1294 1.574 . S
C1286 C1302 1.368 . S
H1287 C1295 0.950 . S
H1288 C1293 0.950 . S
H1289 C1294 0.949 . S
H1290 C1296 0.950 . S
H1291 C1297 0.950 . S
H1292 C1298 0.949 . S
C1293 H1288 0.950 . S
C1293 C1295 1.327 . S
C1293 C1299 1.429 . S
C1294 C1286 1.574 . S
C1294 H1289 0.949 . S
C1294 C1300 1.368 . S
C1295 C1279 1.349 . S
C1295 H1287 0.950 . S
C1295 C1293 1.327 . S
C1296 C1284 1.349 . S
C1296 H1290 0.950 . S
C1296 C1297 1.327 1_455 S
C1297 H1291 0.950 . S
C1297 C1296 1.327 1_655 S
C1297 C1301 1.429 . S
C1298 C1281 1.574 . S
C1298 H1292 0.949 . S
C1298 C1302 1.368 . S
C1299 C1280 1.429 . S
C1299 C1293 1.429 . S
C1299 C1300 1.523 . S
C1300 C1281 1.368 . S
C1300 C1294 1.368 . S
C1300 C1299 1.523 . S
C1301 C1285 1.429 . S
C1301 C1297 1.429 . S
C1301 C1302 1.523 . S
C1302 C1286 1.368 . S
C1302 C1298 1.368 . S
C1302 C1301 1.523 . S
H1303 C1278 0.950 . S
H1304 C1280 0.950 . S
H1305 C1281 0.949 . S
H1306 C1283 0.950 . S
H1307 C1285 0.950 . S
C1308 C1309 1.349 . S
C1308 C1310 1.327 1_565 S
C1308 H1333 0.950 . S
C1309 C1308 1.349 . S
C1309 C1325 1.349 . S
C1310 C1308 1.327 1_545 S
C1310 C1329 1.429 . S
C1310 H1334 0.950 . S
C1311 C1328 1.574 . S
C1311 C1330 1.368 . S
C1311 H1335 0.949 . S
H1312 C1316 0.949 . S
C1313 C1314 1.349 . S
C1313 C1315 1.327 . S
C1313 H1336 0.950 . S
C1314 C1313 1.349 . S
C1314 C1326 1.349 . S
C1315 C1313 1.327 . S
C1315 C1331 1.429 . S
C1315 H1337 0.950 . S
C1316 H1312 0.949 . S
C1316 C1324 1.574 . S
C1316 C1332 1.368 . S
H1317 C1325 0.950 . S
H1318 C1323 0.951 . S
H1319 C1324 0.949 . S
H1320 C1326 0.950 . S
H1321 C1327 0.950 . S
H1322 C1328 0.949 . S
C1323 H1318 0.951 . S
C1323 C1325 1.322 1_545 S
C1323 C1329 1.432 . S
C1324 C1316 1.574 . S
C1324 H1319 0.949 . S
C1324 C1330 1.368 . S
C1325 C1309 1.349 . S
C1325 H1317 0.950 . S
C1325 C1323 1.322 1_565 S
C1326 C1314 1.349 . S
C1326 H1320 0.950 . S
C1326 C1327 1.327 . S
C1327 H1321 0.950 . S
C1327 C1326 1.327 . S
C1327 C1331 1.429 . S
C1328 C1311 1.574 . S
C1328 H1322 0.949 . S
C1328 C1332 1.368 . S
C1329 C1310 1.429 . S
C1329 C1323 1.432 . S
C1329 C1330 1.523 . S
C1330 C1311 1.368 . S
C1330 C1324 1.368 . S
C1330 C1329 1.523 . S
C1331 C1315 1.429 . S
C1331 C1327 1.429 . S
C1331 C1332 1.523 . S
C1332 C1316 1.368 . S
C1332 C1328 1.368 . S
C1332 C1331 1.523 . S
H1333 C1308 0.950 . S
H1334 C1310 0.950 . S
H1335 C1311 0.949 . S
H1336 C1313 0.950 . S
H1337 C1315 0.950 . S
C1338 C1339 1.349 . S
C1338 C1340 1.327 . S
C1338 H1363 0.950 . S
C1339 C1338 1.349 . S
C1339 C1355 1.349 . S
C1340 C1338 1.327 . S
C1340 C1359 1.429 . S
C1340 H1364 0.950 . S
C1341 C1358 1.574 . S
C1341 C1360 1.368 . S
C1341 H1365 0.949 . S
H1342 C1346 0.949 . S
C1343 C1344 1.349 . S
C1343 C1345 1.327 . S
C1343 H1366 0.950 . S
C1344 C1343 1.349 . S
C1344 C1356 1.349 . S
C1345 C1343 1.327 . S
C1345 C1361 1.429 1_655 S
C1345 H1367 0.950 . S
C1346 H1342 0.949 . S
C1346 C1354 1.574 . S
C1346 C1362 1.368 . S
H1347 C1355 0.950 . S
H1348 C1353 0.950 . S
H1349 C1354 0.949 . S
H1350 C1356 0.950 . S
H1351 C1357 0.950 . S
H1352 C1358 0.949 . S
C1353 H1348 0.950 . S
C1353 C1355 1.327 . S
C1353 C1359 1.429 . S
C1354 C1346 1.574 . S
C1354 H1349 0.949 . S
C1354 C1360 1.368 . S
C1355 C1339 1.349 . S
C1355 H1347 0.950 . S
C1355 C1353 1.327 . S
C1356 C1344 1.349 . S
C1356 H1350 0.950 . S
C1356 C1357 1.327 1_655 S
C1357 H1351 0.950 . S
C1357 C1356 1.327 1_455 S
C1357 C1361 1.429 . S
C1358 C1341 1.574 . S
C1358 H1352 0.949 . S
C1358 C1362 1.368 . S
C1359 C1340 1.429 . S
C1359 C1353 1.429 . S
C1359 C1360 1.523 . S
C1360 C1341 1.368 . S
C1360 C1354 1.368 . S
C1360 C1359 1.523 . S
C1361 C1345 1.429 1_455 S
C1361 C1357 1.429 . S
C1361 C1362 1.523 . S
C1362 C1346 1.368 . S
C1362 C1358 1.368 . S
C1362 C1361 1.523 . S
H1363 C1338 0.950 . S
H1364 C1340 0.950 . S
H1365 C1341 0.949 . S
H1366 C1343 0.950 . S
H1367 C1345 0.950 . S
C1368 C1369 1.349 . S
C1368 C1370 1.327 . S
C1368 H1393 0.950 . S
C1369 C1368 1.349 . S
C1369 C1385 1.349 . S
C1370 C1368 1.327 . S
C1370 C1389 1.429 . S
C1370 H1394 0.950 . S
C1371 C1388 1.574 . S
C1371 C1390 1.368 1_554 S
C1371 H1395 0.949 . S
H1372 C1376 0.949 . S
C1373 C1374 1.349 . S
C1373 C1375 1.327 . S
C1373 H1396 0.950 . S
C1374 C1373 1.349 . S
C1374 C1386 1.349 . S
C1375 C1373 1.327 . S
C1375 C1391 1.429 . S
C1375 H1397 0.950 . S
C1376 H1372 0.949 . S
C1376 C1384 1.574 . S
C1376 C1392 1.368 1_556 S
H1377 C1385 0.950 . S
H1378 C1383 0.950 1_554 S
H1379 C1384 0.949 . S
H1380 C1386 0.945 1_556 S
H1381 C1387 0.974 . S
H1382 C1388 0.949 . S
C1383 H1378 0.950 1_556 S
C1383 C1385 1.327 . S
C1383 C1389 1.429 . S
C1384 C1376 1.574 . S
C1384 H1379 0.949 . S
C1384 C1390 1.368 . S
C1385 C1369 1.349 . S
C1385 H1377 0.950 . S
C1385 C1383 1.327 . S
C1386 C1374 1.349 . S
C1386 H1380 0.945 1_554 S
C1386 C1387 1.317 1_554 S
C1387 H1381 0.974 . S
C1387 C1386 1.317 1_556 S
C1387 C1391 1.415 1_556 S
C1388 C1371 1.574 . S
C1388 H1382 0.949 . S
C1388 C1392 1.368 . S
C1389 C1370 1.429 . S
C1389 C1383 1.429 . S
C1389 C1390 1.523 . S
C1390 C1371 1.368 1_556 S
C1390 C1384 1.368 . S
C1390 C1389 1.523 . S
C1391 C1375 1.429 . S
C1391 C1387 1.415 1_554 S
C1391 C1392 1.523 . S
C1392 C1376 1.368 1_554 S
C1392 C1388 1.368 . S
C1392 C1391 1.523 . S
H1393 C1368 0.950 . S
H1394 C1370 0.950 . S
H1395 C1371 0.949 . S
H1396 C1373 0.950 . S
H1397 C1375 0.950 . S
C1398 C1399 1.349 . S
C1398 C1400 1.327 . S
C1398 H1423 0.950 . S
C1399 C1398 1.349 . S
C1399 C1415 1.349 . S
C1400 C1398 1.327 . S
C1400 C1419 1.429 . S
C1400 H1424 0.950 . S
C1401 C1418 1.574 . S
C1401 C1420 1.368 1_556 S
C1401 H1425 0.949 . S
H1402 C1406 0.949 . S
C1403 C1404 1.349 . S
C1403 C1405 1.327 . S
C1403 H1426 0.950 . S
C1404 C1403 1.349 . S
C1404 C1416 1.349 . S
C1405 C1403 1.327 . S
C1405 C1421 1.429 . S
C1405 H1427 0.950 . S
C1406 H1402 0.949 . S
C1406 C1414 1.574 . S
C1406 C1422 1.368 1_554 S
H1407 C1415 0.950 . S
H1408 C1413 0.950 . S
H1409 C1414 0.949 . S
H1410 C1416 0.950 . S
H1411 C1417 0.950 1_554 S
H1412 C1418 0.949 . S
C1413 H1408 0.950 . S
C1413 C1415 1.327 . S
C1413 C1419 1.429 . S
C1414 C1406 1.574 . S
C1414 H1409 0.949 . S
C1414 C1420 1.368 . S
C1415 C1399 1.349 . S
C1415 H1407 0.950 . S
C1415 C1413 1.327 . S
C1416 C1404 1.349 . S
C1416 H1410 0.950 . S
C1416 C1417 1.327 . S
C1417 H1411 0.950 1_556 S
C1417 C1416 1.327 . S
C1417 C1421 1.429 . S
C1418 C1401 1.574 . S
C1418 H1412 0.949 . S
C1418 C1422 1.368 . S
C1419 C1400 1.429 . S
C1419 C1413 1.429 . S
C1419 C1420 1.523 . S
C1420 C1401 1.368 1_554 S
C1420 C1414 1.368 . S
C1420 C1419 1.523 . S
C1421 C1405 1.429 . S
C1421 C1417 1.429 . S
C1421 C1422 1.523 . S
C1422 C1406 1.368 1_556 S
C1422 C1418 1.368 . S
C1422 C1421 1.523 . S
H1423 C1398 0.950 . S
H1424 C1400 0.950 . S
H1425 C1401 0.949 . S
H1426 C1403 0.950 . S
H1427 C1405 0.950 . S
C1428 C1429 1.349 . S
C1428 C1430 1.327 . S
C1428 H1453 0.950 . S
C1429 C1428 1.349 . S
C1429 C1445 1.349 . S
C1430 C1428 1.327 . S
C1430 C1449 1.429 . S
C1430 H1454 0.950 . S
C1431 C1448 1.574 . S
C1431 C1450 1.368 1_556 S
C1431 H1455 0.949 . S
H1432 C1436 0.949 . S
C1433 C1434 1.349 . S
C1433 C1435 1.327 . S
C1433 H1456 0.950 . S
C1434 C1433 1.349 . S
C1434 C1446 1.349 . S
C1435 C1433 1.327 . S
C1435 C1451 1.429 . S
C1435 H1457 0.950 . S
C1436 H1432 0.949 . S
C1436 C1444 1.574 . S
C1436 C1452 1.368 1_554 S
H1437 C1445 0.950 1_556 S
H1438 C1443 0.950 . S
H1439 C1444 0.949 . S
H1440 C1446 0.950 . S
H1441 C1447 0.950 1_554 S
H1442 C1448 0.949 . S
C1443 H1438 0.950 . S
C1443 C1445 1.327 1_556 S
C1443 C1449 1.429 1_556 S
C1444 C1436 1.574 . S
C1444 H1439 0.949 . S
C1444 C1450 1.368 . S
C1445 C1429 1.349 . S
C1445 H1437 0.950 1_554 S
C1445 C1443 1.327 1_554 S
C1446 C1434 1.349 . S
C1446 H1440 0.950 . S
C1446 C1447 1.327 . S
C1447 H1441 0.950 1_556 S
C1447 C1446 1.327 . S
C1447 C1451 1.429 . S
C1448 C1431 1.574 . S
C1448 H1442 0.949 . S
C1448 C1452 1.368 . S
C1449 C1430 1.429 . S
C1449 C1443 1.429 1_554 S
C1449 C1450 1.523 . S
C1450 C1431 1.368 1_554 S
C1450 C1444 1.368 . S
C1450 C1449 1.523 . S
C1451 C1435 1.429 . S
C1451 C1447 1.429 . S
C1451 C1452 1.523 . S
C1452 C1436 1.368 1_556 S
C1452 C1448 1.368 . S
C1452 C1451 1.523 . S
H1453 C1428 0.950 . S
H1454 C1430 0.950 . S
H1455 C1431 0.949 . S
H1456 C1433 0.950 . S
H1457 C1435 0.950 . S
C1458 C1459 1.349 . S
C1458 C1460 1.327 . S
C1458 H1483 0.950 . S
C1459 C1458 1.349 . S
C1459 C1475 1.349 . S
C1460 C1458 1.327 . S
C1460 C1479 1.429 . S
C1460 H1484 0.950 . S
C1461 C1478 1.579 . S
C1461 C1480 1.368 . S
C1461 H1485 0.949 . S
H1462 C1466 0.951 . S
C1463 C1464 1.349 . S
C1463 C1465 1.327 . S
C1463 H1486 0.950 . S
C1464 C1463 1.349 . S
C1464 C1476 1.349 . S
C1465 C1463 1.327 . S
C1465 C1481 1.429 . S
C1465 H1487 0.950 . S
C1466 H1462 0.951 . S
C1466 C1474 1.574 . S
C1466 C1482 1.368 1_554 S
H1467 C1475 0.950 . S
H1468 C1473 0.950 . S
H1469 C1474 0.949 . S
H1470 C1476 0.950 . S
H1471 C1477 0.950 . S
H1472 C1478 0.945 1_556 S
C1473 H1468 0.950 . S
C1473 C1475 1.327 . S
C1473 C1479 1.429 . S
C1474 C1466 1.574 . S
C1474 H1469 0.949 . S
C1474 C1480 1.368 . S
C1475 C1459 1.349 . S
C1475 H1467 0.950 . S
C1475 C1473 1.327 . S
C1476 C1464 1.349 . S
C1476 H1470 0.950 . S
C1476 C1477 1.327 . S
C1477 H1471 0.950 . S
C1477 C1476 1.327 . S
C1477 C1481 1.429 . S
C1478 C1461 1.579 . S
C1478 H1472 0.945 1_554 S
C1478 C1482 1.367 1_554 S
C1479 C1460 1.429 . S
C1479 C1473 1.429 . S
C1479 C1480 1.523 . S
C1480 C1461 1.368 . S
C1480 C1474 1.368 . S
C1480 C1479 1.523 . S
C1481 C1465 1.429 . S
C1481 C1477 1.429 . S
C1481 C1482 1.523 . S
C1482 C1466 1.368 1_556 S
C1482 C1478 1.367 1_556 S
C1482 C1481 1.523 . S
H1483 C1458 0.950 . S
H1484 C1460 0.950 . S
H1485 C1461 0.949 . S
H1486 C1463 0.950 . S
H1487 C1465 0.950 . S
C1488 C1489 1.349 . S
C1488 C1490 1.327 . S
C1488 H1513 0.950 . S
C1489 C1488 1.349 . S
C1489 C1505 1.349 . S
C1490 C1488 1.327 . S
C1490 C1509 1.429 . S
C1490 H1514 0.950 . S
C1491 C1508 1.574 . S
C1491 C1510 1.368 . S
C1491 H1515 0.949 . S
H1492 C1496 0.949 . S
C1493 C1494 1.349 . S
C1493 C1495 1.327 . S
C1493 H1516 0.950 . S
C1494 C1493 1.349 . S
C1494 C1506 1.349 . S
C1495 C1493 1.327 . S
C1495 C1511 1.429 . S
C1495 H1517 0.950 . S
C1496 H1492 0.949 . S
C1496 C1504 1.574 . S
C1496 C1512 1.368 . S
H1497 C1505 0.950 . S
H1498 C1503 0.950 . S
H1499 C1504 0.949 . S
H1500 C1506 0.950 . S
H1501 C1507 0.950 . S
H1502 C1508 0.949 . S
C1503 H1498 0.950 . S
C1503 C1505 1.327 . S
C1503 C1509 1.429 . S
C1504 C1496 1.574 . S
C1504 H1499 0.949 . S
C1504 C1510 1.368 . S
C1505 C1489 1.349 . S
C1505 H1497 0.950 . S
C1505 C1503 1.327 . S
C1506 C1494 1.349 . S
C1506 H1500 0.950 . S
C1506 C1507 1.327 . S
C1507 H1501 0.950 . S
C1507 C1506 1.327 . S
C1507 C1511 1.429 . S
C1508 C1491 1.574 . S
C1508 H1502 0.949 . S
C1508 C1512 1.368 . S
C1509 C1490 1.429 . S
C1509 C1503 1.429 . S
C1509 C1510 1.523 . S
C1510 C1491 1.368 . S
C1510 C1504 1.368 . S
C1510 C1509 1.523 . S
C1511 C1495 1.429 . S
C1511 C1507 1.429 . S
C1511 C1512 1.523 . S
C1512 C1496 1.368 . S
C1512 C1508 1.368 . S
C1512 C1511 1.523 . S
H1513 C1488 0.950 . S
H1514 C1490 0.950 . S
H1515 C1491 0.949 . S
H1516 C1493 0.950 . S
H1517 C1495 0.950 . S
C1518 C1519 1.349 . S
C1518 C1520 1.327 . S
C1518 H1543 0.950 . S
C1519 C1518 1.349 . S
C1519 C1535 1.349 . S
C1520 C1518 1.327 . S
C1520 C1539 1.429 . S
C1520 H1544 0.950 . S
C1521 C1538 1.574 . S
C1521 C1540 1.368 . S
C1521 H1545 0.949 . S
H1522 C1526 0.949 . S
C1523 C1524 1.349 . S
C1523 C1525 1.327 . S
C1523 H1546 0.950 . S
C1524 C1523 1.349 . S
C1524 C1536 1.349 . S
C1525 C1523 1.327 . S
C1525 C1541 1.429 . S
C1525 H1547 0.950 . S
C1526 H1522 0.949 . S
C1526 C1534 1.574 . S
C1526 C1542 1.368 . S
H1527 C1535 0.950 . S
H1528 C1533 0.950 . S
H1529 C1534 0.949 . S
H1530 C1536 0.950 . S
H1531 C1537 0.950 . S
H1532 C1538 0.949 . S
C1533 H1528 0.950 . S
C1533 C1535 1.327 . S
C1533 C1539 1.429 . S
C1534 C1526 1.574 . S
C1534 H1529 0.949 . S
C1534 C1540 1.368 . S
C1535 C1519 1.349 . S
C1535 H1527 0.950 . S
C1535 C1533 1.327 . S
C1536 C1524 1.349 . S
C1536 H1530 0.950 . S
C1536 C1537 1.327 . S
C1537 H1531 0.950 . S
C1537 C1536 1.327 . S
C1537 C1541 1.429 . S
C1538 C1521 1.574 . S
C1538 H1532 0.949 . S
C1538 C1542 1.368 . S
C1539 C1520 1.429 . S
C1539 C1533 1.429 . S
C1539 C1540 1.523 . S
C1540 C1521 1.368 . S
C1540 C1534 1.368 . S
C1540 C1539 1.523 . S
C1541 C1525 1.429 . S
C1541 C1537 1.429 . S
C1541 C1542 1.523 . S
C1542 C1526 1.368 . S
C1542 C1538 1.368 . S
C1542 C1541 1.523 . S
H1543 C1518 0.950 . S
H1544 C1520 0.950 . S
H1545 C1521 0.949 . S
H1546 C1523 0.950 . S
H1547 C1525 0.950 . S
C1548 C1549 1.349 . S
C1548 C1550 1.327 . S
C1548 H1573 0.950 . S
C1549 C1548 1.349 . S
C1549 C1565 1.349 . S
C1550 C1548 1.327 . S
C1550 C1569 1.429 . S
C1550 H1574 0.950 . S
C1551 C1568 1.574 . S
C1551 C1570 1.368 . S
C1551 H1575 0.949 . S
H1552 C1556 0.949 . S
C1553 C1554 1.349 . S
C1553 C1555 1.327 . S
C1553 H1576 0.950 . S
C1554 C1553 1.349 . S
C1554 C1566 1.349 . S
C1555 C1553 1.327 . S
C1555 C1571 1.429 . S
C1555 H1577 0.950 . S
C1556 H1552 0.949 . S
C1556 C1564 1.574 . S
C1556 C1572 1.368 . S
H1557 C1565 0.950 . S
H1558 C1563 0.950 . S
H1559 C1564 0.949 . S
H1560 C1566 0.950 . S
H1561 C1567 0.950 . S
H1562 C1568 0.949 . S
C1563 H1558 0.950 . S
C1563 C1565 1.327 . S
C1563 C1569 1.429 . S
C1564 C1556 1.574 . S
C1564 H1559 0.949 . S
C1564 C1570 1.368 . S
C1565 C1549 1.349 . S
C1565 H1557 0.950 . S
C1565 C1563 1.327 . S
C1566 C1554 1.349 . S
C1566 H1560 0.950 . S
C1566 C1567 1.327 . S
C1567 H1561 0.950 . S
C1567 C1566 1.327 . S
C1567 C1571 1.429 . S
C1568 C1551 1.574 . S
C1568 H1562 0.949 . S
C1568 C1572 1.368 . S
C1569 C1550 1.429 . S
C1569 C1563 1.429 . S
C1569 C1570 1.523 . S
C1570 C1551 1.368 . S
C1570 C1564 1.368 . S
C1570 C1569 1.523 . S
C1571 C1555 1.429 . S
C1571 C1567 1.429 . S
C1571 C1572 1.523 . S
C1572 C1556 1.368 . S
C1572 C1568 1.368 . S
C1572 C1571 1.523 . S
H1573 C1548 0.950 . S
H1574 C1550 0.950 . S
H1575 C1551 0.949 . S
H1576 C1553 0.950 . S
H1577 C1555 0.950 . S
C1578 C1579 1.349 . S
C1578 C1580 1.327 . S
C1578 H1603 0.950 . S
C1579 C1578 1.349 . S
C1579 C1595 1.349 . S
C1580 C1578 1.327 . S
C1580 C1599 1.429 . S
C1580 H1604 0.950 . S
C1581 C1598 1.574 . S
C1581 C1600 1.368 . S
C1581 H1605 0.949 . S
H1582 C1586 0.949 . S
C1583 C1584 1.349 . S
C1583 C1585 1.327 . S
C1583 H1606 0.950 . S
C1584 C1583 1.349 . S
C1584 C1596 1.349 . S
C1585 C1583 1.327 . S
C1585 C1601 1.429 . S
C1585 H1607 0.950 . S
C1586 H1582 0.949 . S
C1586 C1594 1.574 . S
C1586 C1602 1.368 . S
H1587 C1595 0.950 . S
H1588 C1593 0.950 . S
H1589 C1594 0.949 . S
H1590 C1596 0.950 . S
H1591 C1597 0.950 . S
H1592 C1598 0.949 . S
C1593 H1588 0.950 . S
C1593 C1595 1.327 . S
C1593 C1599 1.429 . S
C1594 C1586 1.574 . S
C1594 H1589 0.949 . S
C1594 C1600 1.368 . S
C1595 C1579 1.349 . S
C1595 H1587 0.950 . S
C1595 C1593 1.327 . S
C1596 C1584 1.349 . S
C1596 H1590 0.950 . S
C1596 C1597 1.327 . S
C1597 H1591 0.950 . S
C1597 C1596 1.327 . S
C1597 C1601 1.429 . S
C1598 C1581 1.574 . S
C1598 H1592 0.949 . S
C1598 C1602 1.368 . S
C1599 C1580 1.429 . S
C1599 C1593 1.429 . S
C1599 C1600 1.523 . S
C1600 C1581 1.368 . S
C1600 C1594 1.368 . S
C1600 C1599 1.523 . S
C1601 C1585 1.429 . S
C1601 C1597 1.429 . S
C1601 C1602 1.523 . S
C1602 C1586 1.368 . S
C1602 C1598 1.368 . S
C1602 C1601 1.523 . S
H1603 C1578 0.950 . S
H1604 C1580 0.950 . S
H1605 C1581 0.949 . S
H1606 C1583 0.950 . S
H1607 C1585 0.950 . S
C1608 C1609 1.349 . S
C1608 C1610 1.327 . S
C1608 H1633 0.950 . S
C1609 C1608 1.349 . S
C1609 C1625 1.349 . S
C1610 C1608 1.327 . S
C1610 C1629 1.429 . S
C1610 H1634 0.950 . S
C1611 C1628 1.574 . S
C1611 C1630 1.368 . S
C1611 H1635 0.949 . S
H1612 C1616 0.949 . S
C1613 C1614 1.349 . S
C1613 C1615 1.327 . S
C1613 H1636 0.950 . S
C1614 C1613 1.349 . S
C1614 C1626 1.349 . S
C1615 C1613 1.327 . S
C1615 C1631 1.429 1_565 S
C1615 H1637 0.950 . S
C1616 H1612 0.949 . S
C1616 C1624 1.574 . S
C1616 C1632 1.368 . S
H1617 C1625 0.950 . S
H1618 C1623 0.950 . S
H1619 C1624 0.949 . S
H1620 C1626 0.950 . S
H1621 C1627 0.950 . S
H1622 C1628 0.949 . S
C1623 H1618 0.950 . S
C1623 C1625 1.327 . S
C1623 C1629 1.429 . S
C1624 C1616 1.574 . S
C1624 H1619 0.949 . S
C1624 C1630 1.368 . S
C1625 C1609 1.349 . S
C1625 H1617 0.950 . S
C1625 C1623 1.327 . S
C1626 C1614 1.349 . S
C1626 H1620 0.950 . S
C1626 C1627 1.327 1_565 S
C1627 H1621 0.950 . S
C1627 C1626 1.327 1_545 S
C1627 C1631 1.429 . S
C1628 C1611 1.574 . S
C1628 H1622 0.949 . S
C1628 C1632 1.368 . S
C1629 C1610 1.429 . S
C1629 C1623 1.429 . S
C1629 C1630 1.523 . S
C1630 C1611 1.368 . S
C1630 C1624 1.368 . S
C1630 C1629 1.523 . S
C1631 C1615 1.429 1_545 S
C1631 C1627 1.429 . S
C1631 C1632 1.523 . S
C1632 C1616 1.368 . S
C1632 C1628 1.368 . S
C1632 C1631 1.523 . S
H1633 C1608 0.950 . S
H1634 C1610 0.950 . S
H1635 C1611 0.949 . S
H1636 C1613 0.950 . S
H1637 C1615 0.950 . S
C1638 C1639 1.349 . S
C1638 C1640 1.327 . S
C1638 H1663 0.950 . S
C1639 C1638 1.349 . S
C1639 C1655 1.349 . S
C1640 C1638 1.327 . S
C1640 C1659 1.429 . S
C1640 H1664 0.950 . S
C1641 C1658 1.574 . S
C1641 C1660 1.368 . S
C1641 H1665 0.949 . S
H1642 C1646 0.949 . S
C1643 C1644 1.349 . S
C1643 C1645 1.326 1_655 S
C1643 H1666 0.950 . S
C1644 C1643 1.349 . S
C1644 C1656 1.349 . S
C1645 C1643 1.326 1_455 S
C1645 C1661 1.430 . S
C1645 H1667 0.950 . S
C1646 H1642 0.949 . S
C1646 C1654 1.574 . S
C1646 C1662 1.368 . S
H1647 C1655 0.950 . S
H1648 C1653 0.950 . S
H1649 C1654 0.949 . S
H1650 C1656 0.950 . S
H1651 C1657 0.950 . S
H1652 C1658 0.949 . S
C1653 H1648 0.950 . S
C1653 C1655 1.327 . S
C1653 C1659 1.429 . S
C1654 C1646 1.574 . S
C1654 H1649 0.949 . S
C1654 C1660 1.368 . S
C1655 C1639 1.349 . S
C1655 H1647 0.950 . S
C1655 C1653 1.327 . S
C1656 C1644 1.349 . S
C1656 H1650 0.950 . S
C1656 C1657 1.327 1_655 S
C1657 H1651 0.950 . S
C1657 C1656 1.327 1_455 S
C1657 C1661 1.429 . S
C1658 C1641 1.574 . S
C1658 H1652 0.949 . S
C1658 C1662 1.368 . S
C1659 C1640 1.429 . S
C1659 C1653 1.429 . S
C1659 C1660 1.523 . S
C1660 C1641 1.368 . S
C1660 C1654 1.368 . S
C1660 C1659 1.523 . S
C1661 C1645 1.430 . S
C1661 C1657 1.429 . S
C1661 C1662 1.523 . S
C1662 C1646 1.368 . S
C1662 C1658 1.368 . S
C1662 C1661 1.523 . S
H1663 C1638 0.950 . S
H1664 C1640 0.950 . S
H1665 C1641 0.949 . S
H1666 C1643 0.950 . S
H1667 C1645 0.950 . S
C1668 C1669 1.349 . S
C1668 C1670 1.327 . S
C1668 H1693 0.950 . S
C1669 C1668 1.349 . S
C1669 C1685 1.349 . S
C1670 C1668 1.327 . S
C1670 C1689 1.429 . S
C1670 H1694 0.950 . S
C1671 C1688 1.574 . S
C1671 C1690 1.368 . S
C1671 H1695 0.949 . S
H1672 C1676 0.949 . S
C1673 C1674 1.349 . S
C1673 C1675 1.327 1_545 S
C1673 H1696 0.950 . S
C1674 C1673 1.349 . S
C1674 C1686 1.349 . S
C1675 C1673 1.327 1_565 S
C1675 C1691 1.429 . S
C1675 H1697 0.950 . S
C1676 H1672 0.949 . S
C1676 C1684 1.574 . S
C1676 C1692 1.368 . S
H1677 C1685 0.950 . S
H1678 C1683 0.950 . S
H1679 C1684 0.949 . S
H1680 C1686 0.950 . S
H1681 C1687 0.950 . S
H1682 C1688 0.949 . S
C1683 H1678 0.950 . S
C1683 C1685 1.327 . S
C1683 C1689 1.429 . S
C1684 C1676 1.574 . S
C1684 H1679 0.949 . S
C1684 C1690 1.368 . S
C1685 C1669 1.349 . S
C1685 H1677 0.950 . S
C1685 C1683 1.327 . S
C1686 C1674 1.349 . S
C1686 H1680 0.950 . S
C1686 C1687 1.327 . S
C1687 H1681 0.950 . S
C1687 C1686 1.327 . S
C1687 C1691 1.429 1_545 S
C1688 C1671 1.574 . S
C1688 H1682 0.949 . S
C1688 C1692 1.368 . S
C1689 C1670 1.429 . S
C1689 C1683 1.429 . S
C1689 C1690 1.523 . S
C1690 C1671 1.368 . S
C1690 C1684 1.368 . S
C1690 C1689 1.523 . S
C1691 C1675 1.429 . S
C1691 C1687 1.429 1_565 S
C1691 C1692 1.523 . S
C1692 C1676 1.368 . S
C1692 C1688 1.368 . S
C1692 C1691 1.523 . S
H1693 C1668 0.950 . S
H1694 C1670 0.950 . S
H1695 C1671 0.949 . S
H1696 C1673 0.950 . S
H1697 C1675 0.950 . S
C1698 C1699 1.349 . S
C1698 C1700 1.327 1_455 S
C1698 H1723 0.950 . S
C1699 C1698 1.349 . S
C1699 C1715 1.349 . S
C1700 C1698 1.327 1_655 S
C1700 C1719 1.429 . S
C1700 H1724 0.950 . S
C1701 C1718 1.574 . S
C1701 C1720 1.368 . S
C1701 H1725 0.949 . S
H1702 C1706 0.949 . S
C1703 C1704 1.349 . S
C1703 C1705 1.327 . S
C1703 H1726 0.950 . S
C1704 C1703 1.349 . S
C1704 C1716 1.349 . S
C1705 C1703 1.327 . S
C1705 C1721 1.429 . S
C1705 H1727 0.950 . S
C1706 H1702 0.949 . S
C1706 C1714 1.574 . S
C1706 C1722 1.368 . S
H1707 C1715 0.950 . S
H1708 C1713 0.950 . S
H1709 C1714 0.949 . S
H1710 C1716 0.950 . S
H1711 C1717 0.950 . S
H1712 C1718 0.949 . S
C1713 H1708 0.950 . S
C1713 C1715 1.327 1_655 S
C1713 C1719 1.429 . S
C1714 C1706 1.574 . S
C1714 H1709 0.949 . S
C1714 C1720 1.368 . S
C1715 C1699 1.349 . S
C1715 H1707 0.950 . S
C1715 C1713 1.327 1_455 S
C1716 C1704 1.349 . S
C1716 H1710 0.950 . S
C1716 C1717 1.327 . S
C1717 H1711 0.950 . S
C1717 C1716 1.327 . S
C1717 C1721 1.429 . S
C1718 C1701 1.574 . S
C1718 H1712 0.949 . S
C1718 C1722 1.368 . S
C1719 C1700 1.429 . S
C1719 C1713 1.429 . S
C1719 C1720 1.523 . S
C1720 C1701 1.368 . S
C1720 C1714 1.368 . S
C1720 C1719 1.523 . S
C1721 C1705 1.429 . S
C1721 C1717 1.429 . S
C1721 C1722 1.523 . S
C1722 C1706 1.368 . S
C1722 C1718 1.368 . S
C1722 C1721 1.523 . S
H1723 C1698 0.950 . S
H1724 C1700 0.950 . S
H1725 C1701 0.949 . S
H1726 C1703 0.950 . S
H1727 C1705 0.950 . S
C529 C8 0.751 . S
C534 C470 0.751 . S
C559 C503 0.751 . S
C564 C41 0.751 . S
C589 C404 0.751 . S
C594 C74 0.751 . S
C619 C107 0.751 . S
C624 C437 0.751 . S
C649 C140 0.751 . S
C654 C338 0.751 . S
C679 C371 0.751 . S
C684 C173 0.751 . S
C709 C206 0.751 . S
C714 C272 0.751 . S
C739 C305 0.751 . S
C744 C239 0.751 . S
C769 N137 1.296 . S
C774 N5 1.296 . S
C799 N38 1.296 . S
C804 N170 1.296 . S
C829 N71 1.296 . S
C834 N203 1.296 . S
C859 N104 1.296 . S
C864 N236 1.296 . S
C889 N401 1.296 . S
C894 N269 1.296 . S
C919 N434 1.296 . S
C924 N302 1.296 . S
C949 N335 1.296 . S
C954 N467 1.296 . S
C979 N368 1.296 . S
C984 N500 1.296 . S
C1009 C17 1.595 . S
C1014 C479 1.595 . S
C1039 C512 1.595 . S
C1044 C50 1.595 . S
C1069 C83 1.595 . S
C1074 C413 1.595 . S
C1099 C446 1.595 . S
C1104 C116 1.595 . S
C1129 C347 1.595 . S
C1134 C149 1.595 . S
C1159 C380 1.595 . S
C1164 C182 1.595 . S
C1189 C215 1.595 . S
C1194 C281 1.595 . S
C1219 C248 1.595 . S
C1224 C314 1.595 . S
C1249 N14 1.564 . S
C1254 C391 1.608 . S
C1279 C292 1.608 . S
C1284 N47 1.564 . S
C1309 N80 1.564 . S
C1314 C325 1.608 . S
C1339 C358 1.608 . S
C1344 N113 1.564 . S
C1369 C193 1.608 . S
C1374 N146 1.564 . S
C1399 C226 1.608 . S
C1404 N179 1.564 . S
C1429 N212 1.564 . S
C1434 C259 1.608 . S
C1459 C160 1.608 . S
C1464 N245 1.564 . S
C1489 C127 1.608 . S
C1494 N278 1.564 . S
C1519 N311 1.564 . S
C1524 C28 1.608 . S
C1549 N344 1.564 . S
C1554 C61 1.608 . S
C1579 C94 1.608 . S
C1584 N377 1.564 . S
C1609 C457 1.608 . S
C1614 N410 1.564 . S
C1639 C490 1.608 . S
C1644 N443 1.564 . S
C1669 C523 1.608 . S
C1674 N476 1.564 . S
C1699 N509 1.564 . S
C1704 C424 1.608 . S
