# Generated by pormake.
# Topology unh, (4)-cn, num edge types: 1
# Building blocks:
#     Node 0, Type 0, BuildingBlock: QUQFOY_clean_sbu_3, # of connection points: 4
#     Node 1, Type 0, BuildingBlock: QUQFOY_clean_sbu_3, # of connection points: 4
#     Node 2, Type 0, BuildingBlock: QUQFOY_clean_sbu_3, # of connection points: 4
#     Node 3, Type 0, BuildingBlock: QUQFOY_clean_sbu_3, # of connection points: 4
#     Node 4, Type 0, BuildingBlock: QUQFOY_clean_sbu_3, # of connection points: 4
#     Node 5, Type 0, BuildingBlock: QUQFOY_clean_sbu_3, # of connection points: 4
#     Edge 6, Type (0, 0), BuildingBlock: TEMPAE_clean_linker_10, # of connection points: 2
#     Edge 7, Type (0, 0), BuildingBlock: TEMPAE_clean_linker_10, # of connection points: 2
#     Edge 8, Type (0, 0), BuildingBlock: TEMPAE_clean_linker_10, # of connection points: 2
#     Edge 9, Type (0, 0), BuildingBlock: TEMPAE_clean_linker_10, # of connection points: 2
#     Edge 10, Type (0, 0), BuildingBlock: TEMPAE_clean_linker_10, # of connection points: 2
#     Edge 11, Type (0, 0), BuildingBlock: TEMPAE_clean_linker_10, # of connection points: 2
#     Edge 12, Type (0, 0), BuildingBlock: TEMPAE_clean_linker_10, # of connection points: 2
#     Edge 13, Type (0, 0), BuildingBlock: TEMPAE_clean_linker_10, # of connection points: 2
#     Edge 14, Type (0, 0), BuildingBlock: TEMPAE_clean_linker_10, # of connection points: 2
#     Edge 15, Type (0, 0), BuildingBlock: TEMPAE_clean_linker_10, # of connection points: 2
#     Edge 16, Type (0, 0), BuildingBlock: TEMPAE_clean_linker_10, # of connection points: 2
#     Edge 17, Type (0, 0), BuildingBlock: TEMPAE_clean_linker_10, # of connection points: 2
# Relax obj value: 0.079
# Max RMSD: 0.192
# Mean RMSD: 0.192
data_MOF--net-unh--node1-QUQFOY_clean_sbu_3--edge1-TEMPAE_clean_linker_10
_symmetry_space_group_name_H-M    P1
_symmetry_Int_Tables_number       1
_symmetry_cell_setting            triclinic
loop_
_symmetry_equiv_pos_as_xyz
'x, y, z'
_cell_length_a     44.536365
_cell_length_b     44.28981
_cell_length_c     24.04465
_cell_angle_alpha  90.233165
_cell_angle_beta   89.774861
_cell_angle_gamma 119.96923
loop_
_atom_site_label
_atom_site_type_symbol
_atom_site_fract_x
_atom_site_fract_y
_atom_site_fract_z
_atom_type_partial_charge
C0 C 0.15281 0.50437 0.0781 0.0
O1 O 0.1482 0.49001 0.03064 0.0
Cd2 Cd 0.10927 0.49204 0.96276 0.0
O3 O 0.13535 0.51874 0.09249 0.0
Cd4 Cd 0.089 0.52915 0.06009 0.0
C5 C 0.14211 0.58117 0.95832 0.0
O6 O 0.05488 0.47439 0.00779 0.0
O7 O 0.03851 0.51279 0.00381 0.0
O8 O 0.07104 0.5154 0.15604 0.0
C9 C 0.03351 0.48307 -0.01035 0.0
O10 O 0.13737 0.55319 0.93517 0.0
C11 C 0.06295 0.53889 0.16255 0.0
O12 O 0.1287 0.58039 0.0056 0.0
O13 O 0.06765 0.55871 0.12141 0.0
C14 C 0.62316 0.16408 0.26147 0.0
O15 O 0.63269 0.15638 0.21635 0.0
Cd16 Cd 0.5905 0.11948 0.14858 0.0
O17 O 0.59112 0.14957 0.27378 0.0
Cd18 Cd 0.53375 0.10404 0.24041 0.0
C19 C 0.54055 0.15963 0.14103 0.0
O20 O 0.54841 0.06498 0.18826 0.0
O21 O 0.49926 0.06167 0.17099 0.0
O22 O 0.52866 0.08288 0.33433 0.0
C23 C 0.51972 0.05006 0.1624 0.0
O24 O 0.56206 0.15191 0.11942 0.0
C25 C 0.49763 0.07572 0.34219 0.0
O26 O 0.52689 0.14751 0.18837 0.0
O27 O 0.48279 0.08203 0.30252 0.0
C28 C 0.44528 0.63827 0.42636 0.0
O29 O 0.46036 0.64875 0.37975 0.0
Cd30 Cd 0.45284 0.60848 0.3066 0.0
O31 O 0.42846 0.60583 0.4372 0.0
Cd32 Cd 0.41595 0.5499 0.39434 0.0
C33 C 0.36348 0.55674 0.30241 0.0
O34 O 0.46667 0.56521 0.33527 0.0
O35 O 0.41886 0.51788 0.31536 0.0
O36 O 0.44095 0.53316 0.46796 0.0
C37 C 0.45109 0.53734 0.30678 0.0
O38 O 0.39173 0.57998 0.28051 0.0
C39 C 0.41297 0.50764 0.48576 0.0
O40 O 0.36372 0.54171 0.3474 0.0
O41 O 0.38512 0.50153 0.4616 0.0
C42 C 0.79151 0.46429 0.58979 0.0
O43 O 0.79693 0.47871 0.54247 0.0
Cd44 Cd 0.83001 0.46953 0.47219 0.0
O45 O 0.80643 0.4472 0.60293 0.0
Cd46 Cd 0.84928 0.4328 0.56407 0.0
C47 C 0.78996 0.37947 0.47217 0.0
O48 O 0.88603 0.48296 0.50481 0.0
O49 O 0.88518 0.43452 0.48742 0.0
O50 O 0.88884 0.45717 0.64085 0.0
C51 C 0.89841 0.46687 0.47801 0.0
O52 O 0.79621 0.40767 0.44826 0.0
C53 C 0.886 0.42883 0.65807 0.0
O54 O 0.80449 0.3802 0.51813 0.0
O55 O 0.86498 0.40117 0.63217 0.0
C56 C 0.31033 0.79871 0.75555 0.0
O57 O 0.30206 0.80599 0.70913 0.0
Cd58 Cd 0.3461 0.84248 0.64371 0.0
O59 O 0.34199 0.81356 0.77024 0.0
Cd60 Cd 0.40019 0.85932 0.73951 0.0
C61 C 0.39641 0.80261 0.64401 0.0
O62 O 0.38568 0.89744 0.68535 0.0
O63 O 0.43553 0.90182 0.67022 0.0
O64 O 0.40438 0.88097 0.8334 0.0
C65 C 0.41483 0.91299 0.66078 0.0
O66 O 0.3754 0.80976 0.61944 0.0
C67 C 0.43531 0.88802 0.84184 0.0
O68 O 0.40878 0.81567 0.69151 0.0
O69 O 0.4504 0.8815 0.80254 0.0
C70 C 0.49552 0.32149 0.90923 0.0
O71 O 0.48164 0.31164 0.86164 0.0
Cd72 Cd 0.48498 0.353 0.79312 0.0
O73 O 0.50946 0.35339 0.9234 0.0
Cd74 Cd 0.51899 0.41004 0.89025 0.0
C75 C 0.57354 0.41004 0.79243 0.0
O76 O 0.46534 0.38911 0.83573 0.0
O77 O 0.50352 0.4439 0.831 0.0
O78 O 0.50283 0.41394 -0.01503 0.0
C79 C 0.47409 0.41913 0.81676 0.0
O80 O 0.54639 0.38653 0.76832 0.0
C81 C 0.52592 0.44556 -0.00775 0.0
O82 O 0.57147 0.42259 0.83912 0.0
O83 O 0.54658 0.46088 0.95207 0.0
C84 C 0.01314 0.44423 0.90614 0.0
C85 C 0.00674 0.4623 0.94816 0.0
C86 C -0.00869 0.43142 0.85947 0.0
C87 C 0.96232 0.43638 0.8557 0.0
C88 C 0.95398 0.45146 0.9009 0.0
C89 C -0.02344 0.46464 0.94627 0.0
C90 C 0.00117 0.41561 0.81212 0.0
C91 C 0.92291 0.45658 0.89922 0.0
C92 C 0.93743 0.45948 0.71907 0.0
C93 C 0.90673 0.42881 0.70581 0.0
C94 C 0.9567 0.46144 0.76611 0.0
C95 C 0.94462 0.43217 0.80156 0.0
C96 C 0.91425 0.40065 0.78742 0.0
C97 C 0.89573 0.39924 0.73923 0.0
C98 C -0.0107 0.49542 0.779 0.0
C99 C 0.90042 0.36906 0.82448 0.0
H100 H 0.03656 0.4425 0.90759 0.0
H101 H -0.02857 0.47828 -0.02079 0.0
H102 H -0.02204 0.39271 0.79445 0.0
H103 H 0.01328 0.43515 0.77843 0.0
H104 H 0.01996 0.4075 0.82541 0.0
H105 H 0.91692 0.46335 0.94078 0.0
H106 H 0.92814 0.47803 0.87007 0.0
H107 H 0.89973 0.43269 0.88386 0.0
H108 H 0.94629 0.48224 0.69283 0.0
H109 H 0.87197 0.37548 0.72896 0.0
H110 H 0.01117 0.49077 0.78704 0.0
H111 H -0.01469 0.50715 0.81717 0.0
H112 H -0.00322 0.51456 0.74463 0.0
H113 H 0.9215 0.36406 0.83692 0.0
H114 H 0.87957 0.34535 0.80394 0.0
H115 H 0.88973 0.37391 0.86308 0.0
C116 C 0.43439 0.89888 0.94307 0.0
C117 C 0.4533 0.90551 0.89358 0.0
C118 C 0.44929 0.91947 -0.00955 0.0
C119 C 0.4835 0.94811 -0.0125 0.0
C120 C 0.50349 0.95344 0.93871 0.0
C121 C 0.48821 0.93168 0.89238 0.0
C122 C 0.42743 0.91224 0.04218 0.0
C123 C 0.53981 -0.01599 0.93348 0.0
C124 C 0.49408 0.02542 0.07059 0.0
C125 C 0.51275 0.02498 0.11699 0.0
C126 C 0.48584 0.00143 0.02723 0.0
C127 C 0.49562 0.97562 0.03106 0.0
C128 C 0.51495 0.97528 0.07751 0.0
C129 C 0.52376 0.00041 0.11977 0.0
C130 C 0.46596 0.00334 -0.02217 0.0
C131 C 0.52509 0.94766 0.08357 0.0
H132 H 0.40747 0.87831 0.94413 0.0
H133 H 0.50279 0.93685 0.85396 0.0
H134 H 0.44272 0.91456 0.07989 0.0
H135 H 0.41881 0.93174 0.04579 0.0
H136 H 0.40406 0.88585 0.04125 0.0
H137 H 0.55375 -0.01877 0.89716 0.0
H138 H 0.53857 0.00824 0.92822 0.0
H139 H 0.55502 -0.01287 0.97163 0.0
H140 H 0.48599 0.04476 0.06803 0.0
H141 H 0.53815 0.0001 0.15581 0.0
H142 H 0.43977 0.97988 -0.02328 0.0
H143 H 0.47935 0.0038 0.93856 0.0
H144 H 0.46296 0.02677 -0.02084 0.0
H145 H 0.50144 0.9219 0.08959 0.0
H146 H 0.54265 0.95282 0.11947 0.0
H147 H 0.53804 0.94588 0.04521 0.0
C148 C 0.44926 0.51106 0.21487 0.0
C149 C 0.46844 0.5294 0.26158 0.0
C150 C 0.46438 0.50155 0.17228 0.0
C151 C 0.49931 0.50971 0.17733 0.0
C152 C 0.51906 0.52878 0.22404 0.0
C153 C 0.50344 0.53886 0.26546 0.0
C154 C 0.44264 0.48201 0.12247 0.0
C155 C 0.5561 0.53723 0.23133 0.0
C156 C 0.5126 0.44557 0.09266 0.0
C157 C 0.52625 0.46418 0.04329 0.0
C158 C 0.5068 0.46131 0.13891 0.0
C159 C 0.5139 0.49615 0.13492 0.0
C160 C 0.52991 0.51578 0.08644 0.0
C161 C 0.53629 0.49959 0.04125 0.0
C162 C 0.4906 0.43979 0.19045 0.0
C163 C 0.53739 0.55281 0.08027 0.0
H164 H 0.42228 0.50413 0.2116 0.0
H165 H 0.51817 0.55295 0.30183 0.0
H166 H 0.4563 0.49493 0.08342 0.0
H167 H 0.43848 0.45513 0.12187 0.0
H168 H 0.41691 0.48035 0.12279 0.0
H169 H 0.56879 0.55481 0.26734 0.0
H170 H 0.55671 0.51276 0.23793 0.0
H171 H 0.57144 0.54964 0.19328 0.0
H172 H 0.50523 0.41826 0.09442 0.0
H173 H 0.54679 0.51397 0.00296 0.0
H174 H 0.46291 0.43255 0.19277 0.0
H175 H 0.50355 0.45501 0.22841 0.0
H176 H 0.49205 0.41547 0.19041 0.0
H177 H 0.51266 0.55267 0.07381 0.0
H178 H 0.55471 0.56612 0.04432 0.0
H179 H 0.54948 0.56814 0.11849 0.0
C180 C 0.92406 0.46363 0.38812 0.0
C181 C 0.92409 0.48368 0.43326 0.0
C182 C 0.94864 0.47847 0.34557 0.0
C183 C -0.02547 0.51406 0.34908 0.0
C184 C -0.02544 0.5346 0.3944 0.0
C185 C 0.94892 0.5192 0.43577 0.0
C186 C 0.94715 0.45583 0.29724 0.0
C187 C 0.00226 0.57237 0.4001 0.0
C188 C 0.05169 0.52841 0.26387 0.0
C189 C 0.04548 0.5403 0.21375 0.0
C190 C 0.03068 0.52309 0.3105 0.0
C191 C 0.00218 0.52874 0.30611 0.0
C192 C -0.00268 0.54311 0.25675 0.0
C193 C 0.01942 0.54916 0.21121 0.0
C194 C 0.03736 0.50876 0.36296 0.0
C195 C 0.96692 0.54896 0.25009 0.0
H196 H 0.90458 0.43623 0.38588 0.0
H197 H 0.94896 0.53463 0.47092 0.0
H198 H 0.94702 0.46824 0.25731 0.0
H199 H -0.02949 0.45295 0.29735 0.0
H200 H 0.92384 0.42942 0.29881 0.0
H201 H -0.00271 0.58533 0.43574 0.0
H202 H 0.0278 0.57419 0.40625 0.0
H203 H 0.00412 0.58685 0.36152 0.0
H204 H 0.07215 0.52194 0.26595 0.0
H205 H 0.01456 0.55827 0.17231 0.0
H206 H 0.01794 0.48064 0.36663 0.0
H207 H 0.03467 0.52212 0.40017 0.0
H208 H 0.06361 0.51164 0.36304 0.0
H209 H 0.94288 0.52341 0.24495 0.0
H210 H -0.03009 0.56526 0.21319 0.0
H211 H 0.96353 0.56162 0.28758 0.0
C212 C 0.49759 0.06599 0.44375 0.0
C213 C 0.4793 0.0581 0.39361 0.0
C214 C 0.48298 0.04514 0.49088 0.0
C215 C 0.44981 0.01497 0.487 0.0
C216 C 0.43028 0.00828 0.43749 0.0
C217 C 0.44516 0.03031 0.39143 0.0
C218 C 0.50425 0.05385 0.54338 0.0
C219 C 0.39511 0.97608 0.43125 0.0
C220 C 0.44278 0.93967 0.57095 0.0
C221 C 0.42218 0.93841 0.61599 0.0
C222 C 0.45072 0.96362 0.52783 0.0
C223 C 0.43862 -0.0123 0.5306 0.0
C224 C 0.41759 -0.01352 0.57589 0.0
C225 C 0.40914 0.96138 0.61783 0.0
C226 C 0.47251 0.96341 0.47963 0.0
C227 C 0.40502 0.01232 0.58094 0.0
H228 H 0.52392 0.08775 0.44548 0.0
H229 H 0.43111 0.02414 0.35245 0.0
H230 H 0.48795 0.05034 0.5805 0.0
H231 H 0.51476 0.03593 0.54762 0.0
H232 H 0.52635 0.08103 0.54302 0.0
H233 H 0.38106 0.97758 0.39423 0.0
H234 H 0.39841 0.95296 0.42658 0.0
H235 H 0.37893 0.97192 0.46873 0.0
H236 H 0.45249 0.92159 0.5691 0.0
H237 H 0.39326 0.96041 0.65282 0.0
H238 H 0.49783 -0.01201 0.47942 0.0
H239 H 0.45946 0.96189 0.43965 0.0
H240 H 0.47746 0.94121 0.48168 0.0
H241 H 0.42755 0.03892 0.5866 0.0
H242 H 0.38702 0.00643 0.61662 0.0
H243 H 0.39169 0.01263 0.54227 0.0
C244 C 0.43342 0.39922 0.73586 0.0
C245 C 0.45343 0.42501 0.77495 0.0
C246 C 0.41962 0.40724 0.68939 0.0
C247 C 0.42565 0.44162 0.68277 0.0
C248 C 0.44308 0.4667 0.72501 0.0
C249 C 0.45709 0.45818 0.77027 0.0
C250 C 0.40127 0.37981 0.64523 0.0
C251 C 0.4495 0.50346 0.72024 0.0
C252 C 0.44379 0.485 0.54227 0.0
C253 C 0.4136 0.48655 0.5326 0.0
C254 C 0.44695 0.46832 0.58928 0.0
C255 C 0.41948 0.45337 0.62834 0.0
C256 C 0.38823 0.45341 0.61759 0.0
C257 C 0.38553 0.46982 0.56935 0.0
C258 C 0.48051 0.46832 0.59848 0.0
C259 C 0.35851 0.43798 0.65844 0.0
H260 H 0.43059 0.37353 0.73947 0.0
H261 H 0.47219 0.47801 0.80096 0.0
H262 H 0.37822 0.38046 0.62952 0.0
H263 H 0.41907 0.38514 0.6095 0.0
H264 H 0.39298 0.35322 0.66096 0.0
H265 H 0.45875 0.51808 0.75999 0.0
H266 H 0.46944 0.51763 0.68782 0.0
H267 H 0.42552 0.5033 0.70743 0.0
H268 H 0.46534 0.49747 0.51341 0.0
H269 H 0.36215 0.471 0.56185 0.0
H270 H 0.47521 0.44168 0.60859 0.0
H271 H 0.49451 0.48541 0.6343 0.0
H272 H 0.4978 0.47779 0.5615 0.0
H273 H 0.35342 0.41209 0.67293 0.0
H274 H 0.33436 0.43518 0.64023 0.0
H275 H 0.3654 0.45517 0.6955 0.0
C276 C 0.20095 0.49248 0.10052 0.0
C277 C 0.17997 0.50645 0.11604 0.0
C278 C 0.22888 0.49745 0.13391 0.0
C279 C 0.23605 0.51696 0.18379 0.0
C280 C 0.21405 0.52976 0.2009 0.0
C281 C 0.18626 0.52428 0.16692 0.0
C282 C 0.25163 0.48315 0.11456 0.0
C283 C 0.22088 0.55077 0.25372 0.0
C284 C 0.29965 0.51635 0.28848 0.0
C285 C 0.33037 0.54678 0.27386 0.0
C286 C 0.26867 0.5061 0.25942 0.0
C287 C 0.26842 0.52697 0.21517 0.0
C288 C 0.29921 0.55794 0.20082 0.0
C289 C 0.32977 0.56737 0.23015 0.0
C290 C 0.23633 0.47282 0.27564 0.0
C291 C 0.29995 0.58114 0.15429 0.0
H292 H 0.19619 0.47848 0.06152 0.0
H293 H 0.17009 0.535 0.17957 0.0
H294 H 0.27755 0.505 0.1029 0.0
H295 H 0.25548 0.46862 0.14865 0.0
H296 H 0.24055 0.46556 0.07806 0.0
H297 H 0.19959 0.55611 0.26372 0.0
H298 H 0.22427 0.5369 0.2893 0.0
H299 H 0.24531 0.57604 0.24925 0.0
H300 H 0.29993 0.5002 0.322 0.0
H301 H 0.35331 0.59103 0.21869 0.0
H302 H 0.22685 0.45464 0.23969 0.0
H303 H 0.21545 0.47843 0.28712 0.0
H304 H 0.24079 0.45958 0.31115 0.0
H305 H 0.29226 0.56634 0.1146 0.0
H306 H 0.32597 0.60452 0.14871 0.0
H307 H 0.28098 0.58989 0.16285 0.0
C308 C 0.63814 0.20143 0.34666 0.0
C309 C 0.64903 0.19156 0.29849 0.0
C310 C 0.66161 0.22989 0.37896 0.0
C311 C 0.69686 0.24889 0.36285 0.0
C312 C 0.70839 0.238 0.31598 0.0
C313 C 0.68432 0.20948 0.28427 0.0
C314 C 0.64829 0.24069 0.42865 0.0
C315 C 0.74586 0.25749 0.29775 0.0
C316 C 0.74633 0.34502 0.39911 0.0
C317 C 0.76581 0.34573 0.44534 0.0
C318 C 0.72383 0.31366 0.37213 0.0
C319 C 0.72081 0.28214 0.39154 0.0
C320 C 0.74031 0.28254 0.4382 0.0
C321 C 0.76252 0.31436 0.46473 0.0
C322 C 0.70326 0.3143 0.32276 0.0
C323 C 0.73783 0.24941 0.45981 0.0
H324 H 0.61098 0.18763 0.35829 0.0
H325 H 0.69305 0.20193 0.24737 0.0
H326 H 0.66455 0.24435 0.46568 0.0
H327 H 0.64989 0.26605 0.42006 0.0
H328 H 0.62096 0.22127 0.43878 0.0
H329 H 0.75134 0.24359 0.2642 0.0
H330 H 0.75242 0.28364 0.28221 0.0
H331 H 0.76317 0.26147 0.33346 0.0
H332 H 0.74856 0.36906 0.38389 0.0
H333 H 0.77757 0.31469 0.50028 0.0
H334 H 0.67512 0.29748 0.33096 0.0
H335 H 0.70959 0.30367 0.2855 0.0
H336 H 0.70848 0.34101 0.31308 0.0
H337 H 0.71068 0.23063 0.47175 0.0
H338 H 0.75477 0.25416 0.49643 0.0
H339 H 0.74525 0.23692 0.42658 0.0
C340 C 0.38894 0.76063 0.56837 0.0
C341 C 0.40634 0.77885 0.61654 0.0
C342 C 0.39797 0.73826 0.54121 0.0
C343 C 0.42528 0.73411 0.56242 0.0
C344 C 0.44303 0.75236 0.611 0.0
C345 C 0.43325 0.77445 0.63767 0.0
C346 C 0.37821 0.71902 0.48972 0.0
C347 C 0.47242 0.74871 0.63453 0.0
C348 C 0.4227 0.65153 0.51302 0.0
C349 C 0.44441 0.66349 0.46613 0.0
C350 C 0.41764 0.67458 0.54663 0.0
C351 C 0.4349 0.71047 0.53329 0.0
C352 C 0.45853 0.72303 0.4882 0.0
C353 C 0.46293 0.69937 0.45502 0.0
C354 C 0.39218 0.66016 0.59433 0.0
C355 C 0.47773 0.76121 0.47309 0.0
H356 H 0.36802 0.76371 0.55181 0.0
H357 H 0.44691 0.7885 0.67476 0.0
H358 H 0.3962 0.72617 0.45382 0.0
H359 H 0.3663 0.6905 0.49596 0.0
H360 H 0.3574 0.72487 0.47897 0.0
H361 H 0.48359 0.76469 0.67262 0.0
H362 H 0.46322 0.72103 0.64474 0.0
H363 H 0.49328 0.75673 0.60299 0.0
H364 H 0.40839 0.62389 0.52217 0.0
H365 H 0.48 0.70892 0.41921 0.0
H366 H 0.36889 0.66208 0.58429 0.0
H367 H 0.40369 0.67561 0.63269 0.0
H368 H 0.38381 0.63243 0.60295 0.0
H369 H 0.45917 0.76867 0.45632 0.0
H370 H 0.49816 0.76735 0.44133 0.0
H371 H 0.48989 0.77748 0.5105 0.0
C372 C 0.61055 0.40444 0.71951 0.0
C373 C 0.6078 0.42215 0.76601 0.0
C374 C 0.64266 0.41484 0.69437 0.0
C375 C 0.67287 0.44388 0.71588 0.0
C376 C 0.67035 0.46219 0.76239 0.0
C377 C 0.63783 0.451 0.78713 0.0
C378 C 0.64428 0.39444 0.64503 0.0
C379 C 0.702 0.49346 0.78608 0.0
C380 C 0.75512 0.44383 0.67592 0.0
C381 C 0.76495 0.46409 0.6274 0.0
C382 C 0.7263 0.4387 0.70718 0.0
C383 C 0.70697 0.45438 0.68969 0.0
C384 C 0.71818 0.47683 0.64307 0.0
C385 C 0.747 0.48136 0.61237 0.0
C386 C 0.7152 0.41458 0.7567 0.0
C387 C 0.69846 0.49434 0.62352 0.0
H388 H 0.58757 0.38206 0.70296 0.0
H389 H 0.63593 0.46492 0.82291 0.0
H390 H 0.65548 0.41187 0.60857 0.0
H391 H 0.66149 0.38372 0.65455 0.0
H392 H 0.61836 0.37252 0.63336 0.0
H393 H 0.69555 0.50536 0.82155 0.0
H394 H 0.72085 0.48575 0.80045 0.0
H395 H 0.71507 0.51348 0.75334 0.0
H396 H 0.76894 0.43056 0.68817 0.0
H397 H 0.75457 0.49734 0.57526 0.0
H398 H 0.69086 0.39017 0.74664 0.0
H399 H 0.70977 0.42666 0.793 0.0
H400 H 0.73512 0.40774 0.76869 0.0
H401 H 0.67334 0.47452 0.60542 0.0
H402 H 0.71302 0.51449 0.59148 0.0
H403 H 0.69262 0.50669 0.65898 0.0
C404 C 0.24839 0.75436 0.77594 0.0
C405 C 0.28349 0.77104 0.79107 0.0
C406 C 0.22336 0.72548 0.80582 0.0
C407 C 0.23374 0.71287 0.85158 0.0
C408 C 0.2688 0.73061 0.86871 0.0
C409 C 0.29322 0.75955 0.8384 0.0
C410 C 0.18611 0.70747 0.78674 0.0
C411 C 0.28093 0.7179 0.9172 0.0
C412 C 0.16761 0.64604 0.95125 0.0
C413 C 0.16438 0.61494 0.93023 0.0
C414 C 0.18952 0.67816 0.92545 0.0
C415 C 0.20884 0.67914 0.87791 0.0
C416 C 0.20538 0.64782 0.85619 0.0
C417 C 0.18313 0.61615 0.88242 0.0
C418 C 0.19234 0.71104 0.94938 0.0
C419 C 0.22573 0.6478 0.80575 0.0
H420 H 0.24056 0.76321 0.73973 0.0
H421 H 0.32022 0.77234 0.85066 0.0
H422 H 0.17908 0.68169 0.76861 0.0
H423 H 0.16851 0.70276 0.82251 0.0
H424 H 0.18155 0.72284 0.75491 0.0
H425 H 0.30835 0.73635 0.92827 0.0
H426 H 0.26447 0.71392 0.95427 0.0
H427 H 0.27846 0.69234 0.90661 0.0
H428 H 0.1531 0.64535 -0.012 0.0
H429 H 0.1809 0.59233 0.86583 0.0
H430 H 0.18675 0.7252 0.91679 0.0
H431 H 0.21919 0.72863 0.96397 0.0
H432 H 0.17428 0.70564 -0.01519 0.0
H433 H 0.22018 0.65996 0.76996 0.0
H434 H 0.21963 0.62111 0.79354 0.0
H435 H 0.25392 0.66357 0.81437 0.0
C436 C 0.51816 0.30847 -0.00462 0.0
C437 C 0.4973 0.29635 0.94768 0.0
C438 C 0.52276 0.28563 0.02978 0.0
C439 C 0.50582 0.2497 0.01657 0.0
C440 C 0.48348 0.23701 0.96999 0.0
C441 C 0.47964 0.26052 0.93586 0.0
C442 C 0.54706 0.30025 0.07879 0.0
C443 C 0.46464 0.19877 0.95502 0.0
C444 C 0.55012 0.19981 0.06188 0.0
C445 C 0.53142 0.18275 0.10992 0.0
C446 C 0.54187 0.22147 0.03114 0.0
C447 C 0.51403 0.22607 0.04853 0.0
C448 C 0.49487 0.20886 0.09678 0.0
C449 C 0.50389 0.18749 0.12712 0.0
C450 C 0.56317 0.23965 -0.01979 0.0
C451 C 0.46487 0.21301 0.11628 0.0
H452 H 0.53189 0.33609 0.00499 0.0
H453 H 0.46325 0.25089 0.89937 0.0
H454 H 0.53412 0.2857 0.11719 0.0
H455 H 0.56998 0.29711 0.07159 0.0
H456 H 0.55621 0.32833 0.08581 0.0
H457 H 0.44561 0.19261 0.92102 0.0
H458 H 0.48363 0.19095 0.94149 0.0
H459 H 0.45084 0.18279 -0.00811 0.0
H460 H 0.5715 0.19644 0.04827 0.0
H461 H 0.48919 0.17427 0.164 0.0
H462 H 0.57533 0.2683 -0.01471 0.0
H463 H 0.54622 0.2322 0.94306 0.0
H464 H 0.58394 0.23322 0.97223 0.0
H465 H 0.47403 0.24079 0.12592 0.0
H466 H 0.45208 0.19721 0.15388 0.0
H467 H 0.44532 0.20512 0.0827 0.0
loop_
_geom_bond_atom_site_label_1
_geom_bond_atom_site_label_2
_geom_bond_distance
_geom_bond_site_symmetry_2
_ccdc_geom_bond_type
C0 O1 1.306 . S
C0 O3 1.160 . S
O1 C0 1.306 . S
O1 Cd2 2.228 1_554 S
Cd2 O1 2.228 1_556 S
Cd2 O6 2.273 1_556 S
Cd2 O10 2.277 1_556 S
O3 C0 1.160 . S
O3 Cd4 2.203 . S
Cd4 O3 2.203 . S
Cd4 O6 2.411 . S
Cd4 O7 2.333 . S
Cd4 O8 2.352 . S
Cd4 O12 2.277 . S
Cd4 O13 2.356 . S
C5 O10 1.209 . S
C5 O12 1.226 . S
O6 Cd2 2.273 1_554 S
O6 Cd4 2.411 . S
O6 C9 1.320 1_554 S
O7 Cd4 2.333 . S
O7 C9 1.214 1_554 S
O8 Cd4 2.352 . S
O8 C11 1.258 . S
C9 O6 1.320 1_556 S
C9 O7 1.214 1_556 S
O10 Cd2 2.277 1_554 S
O10 C5 1.209 . S
C11 O8 1.258 . S
C11 O13 1.282 . S
O12 Cd4 2.277 . S
O12 C5 1.226 . S
O13 Cd4 2.356 . S
O13 C11 1.282 . S
C14 O15 1.306 . S
C14 O17 1.160 . S
O15 C14 1.306 . S
O15 Cd16 2.228 . S
Cd16 O15 2.228 . S
Cd16 O20 2.273 . S
Cd16 O24 2.277 . S
O17 C14 1.160 . S
O17 Cd18 2.203 . S
Cd18 O17 2.203 . S
Cd18 O20 2.411 . S
Cd18 O21 2.333 . S
Cd18 O22 2.352 . S
Cd18 O26 2.277 . S
Cd18 O27 2.356 . S
C19 O24 1.209 . S
C19 O26 1.226 . S
O20 Cd16 2.273 . S
O20 Cd18 2.411 . S
O20 C23 1.320 . S
O21 Cd18 2.333 . S
O21 C23 1.214 . S
O22 Cd18 2.352 . S
O22 C25 1.258 . S
C23 O20 1.320 . S
C23 O21 1.214 . S
O24 Cd16 2.277 . S
O24 C19 1.209 . S
C25 O22 1.258 . S
C25 O27 1.282 . S
O26 Cd18 2.277 . S
O26 C19 1.226 . S
O27 Cd18 2.356 . S
O27 C25 1.282 . S
C28 O29 1.306 . S
C28 O31 1.160 . S
O29 C28 1.306 . S
O29 Cd30 2.228 . S
Cd30 O29 2.228 . S
Cd30 O34 2.273 . S
Cd30 O38 2.277 . S
O31 C28 1.160 . S
O31 Cd32 2.203 . S
Cd32 O31 2.203 . S
Cd32 O34 2.411 . S
Cd32 O35 2.333 . S
Cd32 O36 2.352 . S
Cd32 O40 2.277 . S
Cd32 O41 2.356 . S
C33 O38 1.209 . S
C33 O40 1.226 . S
O34 Cd30 2.273 . S
O34 Cd32 2.411 . S
O34 C37 1.320 . S
O35 Cd32 2.333 . S
O35 C37 1.214 . S
O36 Cd32 2.352 . S
O36 C39 1.258 . S
C37 O34 1.320 . S
C37 O35 1.214 . S
O38 Cd30 2.277 . S
O38 C33 1.209 . S
C39 O36 1.258 . S
C39 O41 1.282 . S
O40 Cd32 2.277 . S
O40 C33 1.226 . S
O41 Cd32 2.356 . S
O41 C39 1.282 . S
C42 O43 1.306 . S
C42 O45 1.160 . S
O43 C42 1.306 . S
O43 Cd44 2.228 . S
Cd44 O43 2.228 . S
Cd44 O48 2.273 . S
Cd44 O52 2.277 . S
O45 C42 1.160 . S
O45 Cd46 2.203 . S
Cd46 O45 2.203 . S
Cd46 O48 2.411 . S
Cd46 O49 2.333 . S
Cd46 O50 2.352 . S
Cd46 O54 2.277 . S
Cd46 O55 2.356 . S
C47 O52 1.209 . S
C47 O54 1.226 . S
O48 Cd44 2.273 . S
O48 Cd46 2.411 . S
O48 C51 1.320 . S
O49 Cd46 2.333 . S
O49 C51 1.214 . S
O50 Cd46 2.352 . S
O50 C53 1.258 . S
C51 O48 1.320 . S
C51 O49 1.214 . S
O52 Cd44 2.277 . S
O52 C47 1.209 . S
C53 O50 1.258 . S
C53 O55 1.282 . S
O54 Cd46 2.277 . S
O54 C47 1.226 . S
O55 Cd46 2.356 . S
O55 C53 1.282 . S
C56 O57 1.306 . S
C56 O59 1.160 . S
O57 C56 1.306 . S
O57 Cd58 2.228 . S
Cd58 O57 2.228 . S
Cd58 O62 2.273 . S
Cd58 O66 2.277 . S
O59 C56 1.160 . S
O59 Cd60 2.203 . S
Cd60 O59 2.203 . S
Cd60 O62 2.411 . S
Cd60 O63 2.333 . S
Cd60 O64 2.352 . S
Cd60 O68 2.277 . S
Cd60 O69 2.356 . S
C61 O66 1.209 . S
C61 O68 1.226 . S
O62 Cd58 2.273 . S
O62 Cd60 2.411 . S
O62 C65 1.320 . S
O63 Cd60 2.333 . S
O63 C65 1.214 . S
O64 Cd60 2.352 . S
O64 C67 1.258 . S
C65 O62 1.320 . S
C65 O63 1.214 . S
O66 Cd58 2.277 . S
O66 C61 1.209 . S
C67 O64 1.258 . S
C67 O69 1.282 . S
O68 Cd60 2.277 . S
O68 C61 1.226 . S
O69 Cd60 2.356 . S
O69 C67 1.282 . S
C70 O71 1.306 . S
C70 O73 1.160 . S
O71 C70 1.306 . S
O71 Cd72 2.228 . S
Cd72 O71 2.228 . S
Cd72 O76 2.273 . S
Cd72 O80 2.277 . S
O73 C70 1.160 . S
O73 Cd74 2.203 . S
Cd74 O73 2.203 . S
Cd74 O76 2.411 . S
Cd74 O77 2.333 . S
Cd74 O78 2.352 . S
Cd74 O82 2.277 . S
Cd74 O83 2.356 . S
C75 O80 1.209 . S
C75 O82 1.226 . S
O76 Cd72 2.273 . S
O76 Cd74 2.411 . S
O76 C79 1.320 . S
O77 Cd74 2.333 . S
O77 C79 1.214 . S
O78 Cd74 2.352 . S
O78 C81 1.258 1_556 S
C79 O76 1.320 . S
C79 O77 1.214 . S
O80 Cd72 2.277 . S
O80 C75 1.209 . S
C81 O78 1.258 1_554 S
C81 O83 1.282 1_554 S
O82 Cd74 2.277 . S
O82 C75 1.226 . S
O83 Cd74 2.356 . S
O83 C81 1.282 1_556 S
C84 C85 1.391 . S
C84 C86 1.394 . S
C84 H100 0.931 . S
C85 C84 1.391 . S
C85 C89 1.376 . S
C86 C84 1.394 . S
C86 C87 1.369 . S
C86 C90 1.531 . S
C87 C86 1.369 . S
C87 C88 1.410 . S
C87 C95 1.503 1_455 S
C88 C87 1.410 . S
C88 C89 1.392 . S
C88 C91 1.511 1_455 S
C89 C85 1.376 . S
C89 C88 1.392 . S
C89 H101 0.929 . S
C90 C86 1.531 . S
C90 H102 0.960 . S
C90 H103 0.962 . S
C90 H104 0.960 . S
C91 C88 1.511 1_655 S
C91 H105 0.961 . S
C91 H106 0.961 . S
C91 H107 0.961 . S
C92 C93 1.370 . S
C92 C94 1.363 . S
C92 H108 0.931 . S
C93 C92 1.370 . S
C93 C97 1.408 . S
C94 C92 1.363 . S
C94 C95 1.370 . S
C94 C98 1.524 1_655 S
C95 C87 1.503 1_655 S
C95 C94 1.370 . S
C95 C96 1.403 . S
C96 C95 1.403 . S
C96 C97 1.404 . S
C96 C99 1.539 . S
C97 C93 1.408 . S
C97 C96 1.404 . S
C97 H109 0.930 . S
C98 C94 1.524 1_455 S
C98 H110 0.956 . S
C98 H111 0.961 . S
C98 H112 0.961 . S
C99 C96 1.539 . S
C99 H113 0.958 . S
C99 H114 0.961 . S
C99 H115 0.960 . S
H100 C84 0.931 . S
H101 C89 0.929 . S
H102 C90 0.960 . S
H103 C90 0.962 . S
H104 C90 0.960 . S
H105 C91 0.961 . S
H106 C91 0.961 . S
H107 C91 0.961 . S
H108 C92 0.931 . S
H109 C97 0.930 . S
H110 C98 0.956 . S
H111 C98 0.961 . S
H112 C98 0.961 . S
H113 C99 0.958 . S
H114 C99 0.961 . S
H115 C99 0.960 . S
C116 C117 1.391 . S
C116 C118 1.394 . S
C116 H132 0.931 . S
C117 C116 1.391 . S
C117 C121 1.376 . S
C118 C116 1.394 . S
C118 C119 1.369 . S
C118 C122 1.531 1_556 S
C119 C118 1.369 . S
C119 C120 1.410 . S
C119 C127 1.503 1_566 S
C120 C119 1.410 . S
C120 C121 1.392 . S
C120 C123 1.511 1_565 S
C121 C117 1.376 . S
C121 C120 1.392 . S
C121 H133 0.929 . S
C122 C118 1.531 1_554 S
C122 H134 0.960 . S
C122 H135 0.962 . S
C122 H136 0.960 . S
C123 C120 1.511 1_545 S
C123 H137 0.961 . S
C123 H138 0.961 . S
C123 H139 0.961 . S
C124 C125 1.370 . S
C124 C126 1.363 . S
C124 H140 0.931 . S
C125 C124 1.370 . S
C125 C129 1.408 . S
C126 C124 1.363 . S
C126 C127 1.370 . S
C126 C130 1.524 1_554 S
C127 C119 1.503 1_544 S
C127 C126 1.370 . S
C127 C128 1.403 . S
C128 C127 1.403 . S
C128 C129 1.404 . S
C128 C131 1.539 1_545 S
C129 C125 1.408 . S
C129 C128 1.404 . S
C129 H141 0.930 . S
C130 C126 1.524 1_556 S
C130 H142 0.956 . S
C130 H143 0.961 . S
C130 H144 0.962 . S
C131 C128 1.539 1_565 S
C131 H145 0.958 . S
C131 H146 0.961 1_565 S
C131 H147 0.960 . S
H132 C116 0.931 . S
H133 C121 0.929 . S
H134 C122 0.960 . S
H135 C122 0.962 . S
H136 C122 0.960 . S
H137 C123 0.961 . S
H138 C123 0.961 . S
H139 C123 0.961 . S
H140 C124 0.931 . S
H141 C129 0.930 . S
H142 C130 0.956 . S
H143 C130 0.961 . S
H144 C130 0.962 . S
H145 C131 0.958 . S
H146 C131 0.961 1_545 S
H147 C131 0.960 . S
C148 C149 1.391 . S
C148 C150 1.394 . S
C148 H164 0.931 . S
C149 C148 1.391 . S
C149 C153 1.376 . S
C150 C148 1.394 . S
C150 C151 1.369 . S
C150 C154 1.531 . S
C151 C150 1.369 . S
C151 C152 1.410 . S
C151 C159 1.503 . S
C152 C151 1.410 . S
C152 C153 1.392 . S
C152 C155 1.511 . S
C153 C149 1.376 . S
C153 C152 1.392 . S
C153 H165 0.929 . S
C154 C150 1.531 . S
C154 H166 0.960 . S
C154 H167 0.962 . S
C154 H168 0.960 . S
C155 C152 1.511 . S
C155 H169 0.961 . S
C155 H170 0.961 . S
C155 H171 0.961 . S
C156 C157 1.370 . S
C156 C158 1.363 . S
C156 H172 0.931 . S
C157 C156 1.370 . S
C157 C161 1.408 . S
C158 C156 1.363 . S
C158 C159 1.370 . S
C158 C162 1.524 . S
C159 C151 1.503 . S
C159 C158 1.370 . S
C159 C160 1.403 . S
C160 C159 1.403 . S
C160 C161 1.404 . S
C160 C163 1.539 . S
C161 C157 1.408 . S
C161 C160 1.404 . S
C161 H173 0.930 . S
C162 C158 1.524 . S
C162 H174 0.956 . S
C162 H175 0.961 . S
C162 H176 0.961 . S
C163 C160 1.539 . S
C163 H177 0.958 . S
C163 H178 0.961 . S
C163 H179 0.960 . S
H164 C148 0.931 . S
H165 C153 0.929 . S
H166 C154 0.960 . S
H167 C154 0.962 . S
H168 C154 0.960 . S
H169 C155 0.961 . S
H170 C155 0.961 . S
H171 C155 0.961 . S
H172 C156 0.931 . S
H173 C161 0.930 . S
H174 C162 0.956 . S
H175 C162 0.961 . S
H176 C162 0.961 . S
H177 C163 0.958 . S
H178 C163 0.961 . S
H179 C163 0.960 . S
C180 C181 1.391 . S
C180 C182 1.394 . S
C180 H196 0.931 . S
C181 C180 1.391 . S
C181 C185 1.376 . S
C182 C180 1.394 . S
C182 C183 1.369 . S
C182 C186 1.531 . S
C183 C182 1.369 . S
C183 C184 1.410 . S
C183 C191 1.503 1_655 S
C184 C183 1.410 . S
C184 C185 1.392 . S
C184 C187 1.511 1_655 S
C185 C181 1.376 . S
C185 C184 1.392 . S
C185 H197 0.929 . S
C186 C182 1.531 . S
C186 H198 0.960 . S
C186 H199 0.962 . S
C186 H200 0.960 . S
C187 C184 1.511 1_455 S
C187 H201 0.961 . S
C187 H202 0.961 . S
C187 H203 0.961 . S
C188 C189 1.370 . S
C188 C190 1.363 . S
C188 H204 0.931 . S
C189 C188 1.370 . S
C189 C193 1.408 . S
C190 C188 1.363 . S
C190 C191 1.370 . S
C190 C194 1.524 . S
C191 C183 1.503 1_455 S
C191 C190 1.370 . S
C191 C192 1.403 . S
C192 C191 1.403 . S
C192 C193 1.404 . S
C192 C195 1.539 1_455 S
C193 C189 1.408 . S
C193 C192 1.404 . S
C193 H205 0.930 . S
C194 C190 1.524 . S
C194 H206 0.956 . S
C194 H207 0.961 . S
C194 H208 0.961 . S
C195 C192 1.539 1_655 S
C195 H209 0.958 . S
C195 H210 0.961 . S
C195 H211 0.960 . S
H196 C180 0.931 . S
H197 C185 0.929 . S
H198 C186 0.960 . S
H199 C186 0.962 . S
H200 C186 0.960 . S
H201 C187 0.961 . S
H202 C187 0.961 . S
H203 C187 0.961 . S
H204 C188 0.931 . S
H205 C193 0.930 . S
H206 C194 0.956 . S
H207 C194 0.961 . S
H208 C194 0.961 . S
H209 C195 0.958 . S
H210 C195 0.961 . S
H211 C195 0.960 . S
C212 C213 1.391 . S
C212 C214 1.394 . S
C212 H228 0.931 . S
C213 C212 1.391 . S
C213 C217 1.376 . S
C214 C212 1.394 . S
C214 C215 1.369 . S
C214 C218 1.531 . S
C215 C214 1.369 . S
C215 C216 1.410 . S
C215 C223 1.503 1_545 S
C216 C215 1.410 . S
C216 C217 1.392 . S
C216 C219 1.511 1_545 S
C217 C213 1.376 . S
C217 C216 1.392 . S
C217 H229 0.929 . S
C218 C214 1.531 . S
C218 H230 0.960 . S
C218 H231 0.962 . S
C218 H232 0.960 . S
C219 C216 1.511 1_565 S
C219 H233 0.961 . S
C219 H234 0.961 . S
C219 H235 0.961 . S
C220 C221 1.370 . S
C220 C222 1.363 . S
C220 H236 0.931 . S
C221 C220 1.370 . S
C221 C225 1.408 . S
C222 C220 1.363 . S
C222 C223 1.370 . S
C222 C226 1.524 . S
C223 C215 1.503 1_565 S
C223 C222 1.370 . S
C223 C224 1.403 . S
C224 C223 1.403 . S
C224 C225 1.404 . S
C224 C227 1.539 1_565 S
C225 C221 1.408 . S
C225 C224 1.404 . S
C225 H237 0.930 . S
C226 C222 1.524 . S
C226 H238 0.956 . S
C226 H239 0.961 . S
C226 H240 0.961 . S
C227 C224 1.539 1_545 S
C227 H241 0.958 . S
C227 H242 0.961 1_545 S
C227 H243 0.960 . S
H228 C212 0.931 . S
H229 C217 0.929 . S
H230 C218 0.960 . S
H231 C218 0.962 . S
H232 C218 0.960 . S
H233 C219 0.961 . S
H234 C219 0.961 . S
H235 C219 0.961 . S
H236 C220 0.931 . S
H237 C225 0.930 . S
H238 C226 0.956 . S
H239 C226 0.961 . S
H240 C226 0.961 . S
H241 C227 0.958 . S
H242 C227 0.961 1_565 S
H243 C227 0.960 . S
C244 C245 1.391 . S
C244 C246 1.394 . S
C244 H260 0.931 . S
C245 C244 1.391 . S
C245 C249 1.376 . S
C246 C244 1.394 . S
C246 C247 1.369 . S
C246 C250 1.531 . S
C247 C246 1.369 . S
C247 C248 1.410 . S
C247 C255 1.503 . S
C248 C247 1.410 . S
C248 C249 1.392 . S
C248 C251 1.511 . S
C249 C245 1.376 . S
C249 C248 1.392 . S
C249 H261 0.929 . S
C250 C246 1.531 . S
C250 H262 0.960 . S
C250 H263 0.962 . S
C250 H264 0.960 . S
C251 C248 1.511 . S
C251 H265 0.961 . S
C251 H266 0.961 . S
C251 H267 0.961 . S
C252 C253 1.370 . S
C252 C254 1.363 . S
C252 H268 0.931 . S
C253 C252 1.370 . S
C253 C257 1.408 . S
C254 C252 1.363 . S
C254 C255 1.370 . S
C254 C258 1.524 . S
C255 C247 1.503 . S
C255 C254 1.370 . S
C255 C256 1.403 . S
C256 C255 1.403 . S
C256 C257 1.404 . S
C256 C259 1.539 . S
C257 C253 1.408 . S
C257 C256 1.404 . S
C257 H269 0.930 . S
C258 C254 1.524 . S
C258 H270 0.956 . S
C258 H271 0.961 . S
C258 H272 0.961 . S
C259 C256 1.539 . S
C259 H273 0.958 . S
C259 H274 0.961 . S
C259 H275 0.960 . S
H260 C244 0.931 . S
H261 C249 0.929 . S
H262 C250 0.960 . S
H263 C250 0.962 . S
H264 C250 0.960 . S
H265 C251 0.961 . S
H266 C251 0.961 . S
H267 C251 0.961 . S
H268 C252 0.931 . S
H269 C257 0.930 . S
H270 C258 0.956 . S
H271 C258 0.961 . S
H272 C258 0.961 . S
H273 C259 0.958 . S
H274 C259 0.961 . S
H275 C259 0.960 . S
C276 C277 1.391 . S
C276 C278 1.394 . S
C276 H292 0.931 . S
C277 C276 1.391 . S
C277 C281 1.376 . S
C278 C276 1.394 . S
C278 C279 1.369 . S
C278 C282 1.531 . S
C279 C278 1.369 . S
C279 C280 1.410 . S
C279 C287 1.503 . S
C280 C279 1.410 . S
C280 C281 1.392 . S
C280 C283 1.511 . S
C281 C277 1.376 . S
C281 C280 1.392 . S
C281 H293 0.929 . S
C282 C278 1.531 . S
C282 H294 0.960 . S
C282 H295 0.962 . S
C282 H296 0.960 . S
C283 C280 1.511 . S
C283 H297 0.961 . S
C283 H298 0.961 . S
C283 H299 0.961 . S
C284 C285 1.370 . S
C284 C286 1.363 . S
C284 H300 0.931 . S
C285 C284 1.370 . S
C285 C289 1.408 . S
C286 C284 1.363 . S
C286 C287 1.370 . S
C286 C290 1.524 . S
C287 C279 1.503 . S
C287 C286 1.370 . S
C287 C288 1.403 . S
C288 C287 1.403 . S
C288 C289 1.404 . S
C288 C291 1.539 . S
C289 C285 1.408 . S
C289 C288 1.404 . S
C289 H301 0.930 . S
C290 C286 1.524 . S
C290 H302 0.956 . S
C290 H303 0.961 . S
C290 H304 0.961 . S
C291 C288 1.539 . S
C291 H305 0.958 . S
C291 H306 0.961 . S
C291 H307 0.960 . S
H292 C276 0.931 . S
H293 C281 0.929 . S
H294 C282 0.960 . S
H295 C282 0.962 . S
H296 C282 0.960 . S
H297 C283 0.961 . S
H298 C283 0.961 . S
H299 C283 0.961 . S
H300 C284 0.931 . S
H301 C289 0.930 . S
H302 C290 0.956 . S
H303 C290 0.961 . S
H304 C290 0.961 . S
H305 C291 0.958 . S
H306 C291 0.961 . S
H307 C291 0.960 . S
C308 C309 1.391 . S
C308 C310 1.394 . S
C308 H324 0.931 . S
C309 C308 1.391 . S
C309 C313 1.376 . S
C310 C308 1.394 . S
C310 C311 1.369 . S
C310 C314 1.531 . S
C311 C310 1.369 . S
C311 C312 1.410 . S
C311 C319 1.503 . S
C312 C311 1.410 . S
C312 C313 1.392 . S
C312 C315 1.511 . S
C313 C309 1.376 . S
C313 C312 1.392 . S
C313 H325 0.929 . S
C314 C310 1.531 . S
C314 H326 0.960 . S
C314 H327 0.962 . S
C314 H328 0.960 . S
C315 C312 1.511 . S
C315 H329 0.961 . S
C315 H330 0.961 . S
C315 H331 0.961 . S
C316 C317 1.370 . S
C316 C318 1.363 . S
C316 H332 0.931 . S
C317 C316 1.370 . S
C317 C321 1.408 . S
C318 C316 1.363 . S
C318 C319 1.370 . S
C318 C322 1.524 . S
C319 C311 1.503 . S
C319 C318 1.370 . S
C319 C320 1.403 . S
C320 C319 1.403 . S
C320 C321 1.404 . S
C320 C323 1.539 . S
C321 C317 1.408 . S
C321 C320 1.404 . S
C321 H333 0.930 . S
C322 C318 1.524 . S
C322 H334 0.956 . S
C322 H335 0.961 . S
C322 H336 0.961 . S
C323 C320 1.539 . S
C323 H337 0.958 . S
C323 H338 0.961 . S
C323 H339 0.960 . S
H324 C308 0.931 . S
H325 C313 0.929 . S
H326 C314 0.960 . S
H327 C314 0.962 . S
H328 C314 0.960 . S
H329 C315 0.961 . S
H330 C315 0.961 . S
H331 C315 0.961 . S
H332 C316 0.931 . S
H333 C321 0.930 . S
H334 C322 0.956 . S
H335 C322 0.961 . S
H336 C322 0.961 . S
H337 C323 0.958 . S
H338 C323 0.961 . S
H339 C323 0.960 . S
C340 C341 1.391 . S
C340 C342 1.394 . S
C340 H356 0.931 . S
C341 C340 1.391 . S
C341 C345 1.376 . S
C342 C340 1.394 . S
C342 C343 1.369 . S
C342 C346 1.531 . S
C343 C342 1.369 . S
C343 C344 1.410 . S
C343 C351 1.503 . S
C344 C343 1.410 . S
C344 C345 1.392 . S
C344 C347 1.511 . S
C345 C341 1.376 . S
C345 C344 1.392 . S
C345 H357 0.929 . S
C346 C342 1.531 . S
C346 H358 0.960 . S
C346 H359 0.962 . S
C346 H360 0.960 . S
C347 C344 1.511 . S
C347 H361 0.961 . S
C347 H362 0.961 . S
C347 H363 0.961 . S
C348 C349 1.370 . S
C348 C350 1.363 . S
C348 H364 0.931 . S
C349 C348 1.370 . S
C349 C353 1.408 . S
C350 C348 1.363 . S
C350 C351 1.370 . S
C350 C354 1.524 . S
C351 C343 1.503 . S
C351 C350 1.370 . S
C351 C352 1.403 . S
C352 C351 1.403 . S
C352 C353 1.404 . S
C352 C355 1.539 . S
C353 C349 1.408 . S
C353 C352 1.404 . S
C353 H365 0.930 . S
C354 C350 1.524 . S
C354 H366 0.956 . S
C354 H367 0.961 . S
C354 H368 0.961 . S
C355 C352 1.539 . S
C355 H369 0.958 . S
C355 H370 0.961 . S
C355 H371 0.960 . S
H356 C340 0.931 . S
H357 C345 0.929 . S
H358 C346 0.960 . S
H359 C346 0.962 . S
H360 C346 0.960 . S
H361 C347 0.961 . S
H362 C347 0.961 . S
H363 C347 0.961 . S
H364 C348 0.931 . S
H365 C353 0.930 . S
H366 C354 0.956 . S
H367 C354 0.961 . S
H368 C354 0.961 . S
H369 C355 0.958 . S
H370 C355 0.961 . S
H371 C355 0.960 . S
C372 C373 1.391 . S
C372 C374 1.394 . S
C372 H388 0.931 . S
C373 C372 1.391 . S
C373 C377 1.376 . S
C374 C372 1.394 . S
C374 C375 1.369 . S
C374 C378 1.531 . S
C375 C374 1.369 . S
C375 C376 1.410 . S
C375 C383 1.503 . S
C376 C375 1.410 . S
C376 C377 1.392 . S
C376 C379 1.511 . S
C377 C373 1.376 . S
C377 C376 1.392 . S
C377 H389 0.929 . S
C378 C374 1.531 . S
C378 H390 0.960 . S
C378 H391 0.962 . S
C378 H392 0.960 . S
C379 C376 1.511 . S
C379 H393 0.961 . S
C379 H394 0.961 . S
C379 H395 0.961 . S
C380 C381 1.370 . S
C380 C382 1.363 . S
C380 H396 0.931 . S
C381 C380 1.370 . S
C381 C385 1.408 . S
C382 C380 1.363 . S
C382 C383 1.370 . S
C382 C386 1.524 . S
C383 C375 1.503 . S
C383 C382 1.370 . S
C383 C384 1.403 . S
C384 C383 1.403 . S
C384 C385 1.404 . S
C384 C387 1.539 . S
C385 C381 1.408 . S
C385 C384 1.404 . S
C385 H397 0.930 . S
C386 C382 1.524 . S
C386 H398 0.956 . S
C386 H399 0.961 . S
C386 H400 0.961 . S
C387 C384 1.539 . S
C387 H401 0.958 . S
C387 H402 0.961 . S
C387 H403 0.960 . S
H388 C372 0.931 . S
H389 C377 0.929 . S
H390 C378 0.960 . S
H391 C378 0.962 . S
H392 C378 0.960 . S
H393 C379 0.961 . S
H394 C379 0.961 . S
H395 C379 0.961 . S
H396 C380 0.931 . S
H397 C385 0.930 . S
H398 C386 0.956 . S
H399 C386 0.961 . S
H400 C386 0.961 . S
H401 C387 0.958 . S
H402 C387 0.961 . S
H403 C387 0.960 . S
C404 C405 1.391 . S
C404 C406 1.394 . S
C404 H420 0.931 . S
C405 C404 1.391 . S
C405 C409 1.376 . S
C406 C404 1.394 . S
C406 C407 1.369 . S
C406 C410 1.531 . S
C407 C406 1.369 . S
C407 C408 1.410 . S
C407 C415 1.503 . S
C408 C407 1.410 . S
C408 C409 1.392 . S
C408 C411 1.511 . S
C409 C405 1.376 . S
C409 C408 1.392 . S
C409 H421 0.929 . S
C410 C406 1.531 . S
C410 H422 0.960 . S
C410 H423 0.962 . S
C410 H424 0.960 . S
C411 C408 1.511 . S
C411 H425 0.961 . S
C411 H426 0.961 . S
C411 H427 0.961 . S
C412 C413 1.370 1_554 S
C412 C414 1.363 1_554 S
C412 H428 0.931 . S
C413 C412 1.370 1_556 S
C413 C417 1.408 . S
C414 C412 1.363 1_556 S
C414 C415 1.370 . S
C414 C418 1.524 . S
C415 C407 1.503 . S
C415 C414 1.370 . S
C415 C416 1.403 . S
C416 C415 1.403 . S
C416 C417 1.404 . S
C416 C419 1.539 . S
C417 C413 1.408 . S
C417 C416 1.404 . S
C417 H429 0.930 . S
C418 C414 1.524 . S
C418 H430 0.956 . S
C418 H431 0.961 . S
C418 H432 0.961 1_556 S
C419 C416 1.539 . S
C419 H433 0.958 . S
C419 H434 0.961 . S
C419 H435 0.960 . S
H420 C404 0.931 . S
H421 C409 0.929 . S
H422 C410 0.960 . S
H423 C410 0.962 . S
H424 C410 0.960 . S
H425 C411 0.961 . S
H426 C411 0.961 . S
H427 C411 0.961 . S
H428 C412 0.931 . S
H429 C417 0.930 . S
H430 C418 0.956 . S
H431 C418 0.961 . S
H432 C418 0.961 1_554 S
H433 C419 0.958 . S
H434 C419 0.961 . S
H435 C419 0.960 . S
C436 C437 1.391 . S
C436 C438 1.394 1_556 S
C436 H452 0.931 . S
C437 C436 1.391 . S
C437 C441 1.376 1_556 S
C438 C436 1.394 1_554 S
C438 C439 1.369 . S
C438 C442 1.531 . S
C439 C438 1.369 . S
C439 C440 1.410 . S
C439 C447 1.503 . S
C440 C439 1.410 . S
C440 C441 1.392 . S
C440 C443 1.511 . S
C441 C437 1.376 1_554 S
C441 C440 1.392 . S
C441 H453 0.929 . S
C442 C438 1.531 . S
C442 H454 0.960 . S
C442 H455 0.962 1_554 S
C442 H456 0.960 . S
C443 C440 1.511 . S
C443 H457 0.961 . S
C443 H458 0.961 . S
C443 H459 0.961 . S
C444 C445 1.370 . S
C444 C446 1.363 . S
C444 H460 0.931 . S
C445 C444 1.370 . S
C445 C449 1.408 . S
C446 C444 1.363 . S
C446 C447 1.370 . S
C446 C450 1.524 . S
C447 C439 1.503 . S
C447 C446 1.370 . S
C447 C448 1.403 . S
C448 C447 1.403 . S
C448 C449 1.404 . S
C448 C451 1.539 . S
C449 C445 1.408 . S
C449 C448 1.404 . S
C449 H461 0.930 . S
C450 C446 1.524 . S
C450 H462 0.956 1_554 S
C450 H463 0.961 . S
C450 H464 0.961 . S
C451 C448 1.539 . S
C451 H465 0.958 . S
C451 H466 0.961 . S
C451 H467 0.960 . S
H452 C436 0.931 . S
H453 C441 0.929 . S
H454 C442 0.960 . S
H455 C442 0.962 1_556 S
H456 C442 0.960 . S
H457 C443 0.961 . S
H458 C443 0.961 . S
H459 C443 0.961 . S
H460 C444 0.931 . S
H461 C449 0.930 . S
H462 C450 0.956 1_556 S
H463 C450 0.961 . S
H464 C450 0.961 . S
H465 C451 0.958 . S
H466 C451 0.961 . S
H467 C451 0.960 . S
C85 C9 1.289 . S
C93 C53 1.304 . S
C117 C67 1.302 . S
C125 C23 1.291 . S
C149 C37 1.302 . S
C157 C81 1.303 . S
C181 C51 1.304 . S
C189 C11 1.303 . S
C213 C25 1.302 . S
C221 C65 1.291 . S
C245 C79 1.284 . S
C253 C39 1.304 . S
C277 C0 1.238 . S
C285 C33 1.254 . S
C309 C14 1.273 . S
C317 C47 1.264 . S
C341 C61 1.264 . S
C349 C28 1.265 . S
C373 C75 1.239 . S
C381 C42 1.254 . S
C405 C56 1.242 . S
C413 C5 1.252 1_556 S
C437 C70 1.248 . S
C445 C19 1.260 . S
