# Generated by pormake.
# Topology rhr, (4)-cn, num edge types: 1
# Building blocks:
#     Node 0, Type 0, BuildingBlock: NAWXER_clean_sbu_0, # of connection points: 4
#     Node 1, Type 0, BuildingBlock: NAWXER_clean_sbu_0, # of connection points: 4
#     Node 2, Type 0, BuildingBlock: NAWXER_clean_sbu_0, # of connection points: 4
#     Node 3, Type 0, BuildingBlock: NAWXER_clean_sbu_0, # of connection points: 4
#     Node 4, Type 0, BuildingBlock: NAWXER_clean_sbu_0, # of connection points: 4
#     Node 5, Type 0, BuildingBlock: NAWXER_clean_sbu_0, # of connection points: 4
#     Node 6, Type 0, BuildingBlock: NAWXER_clean_sbu_0, # of connection points: 4
#     Node 7, Type 0, BuildingBlock: NAWXER_clean_sbu_0, # of connection points: 4
#     Node 8, Type 0, BuildingBlock: NAWXER_clean_sbu_0, # of connection points: 4
#     Node 9, Type 0, BuildingBlock: NAWXER_clean_sbu_0, # of connection points: 4
#     Node 10, Type 0, BuildingBlock: NAWXER_clean_sbu_0, # of connection points: 4
#     Node 11, Type 0, BuildingBlock: NAWXER_clean_sbu_0, # of connection points: 4
#     Node 12, Type 0, BuildingBlock: NAWXER_clean_sbu_0, # of connection points: 4
#     Node 13, Type 0, BuildingBlock: NAWXER_clean_sbu_0, # of connection points: 4
#     Node 14, Type 0, BuildingBlock: NAWXER_clean_sbu_0, # of connection points: 4
#     Node 15, Type 0, BuildingBlock: NAWXER_clean_sbu_0, # of connection points: 4
#     Node 16, Type 0, BuildingBlock: NAWXER_clean_sbu_0, # of connection points: 4
#     Node 17, Type 0, BuildingBlock: NAWXER_clean_sbu_0, # of connection points: 4
#     Node 18, Type 0, BuildingBlock: NAWXER_clean_sbu_0, # of connection points: 4
#     Node 19, Type 0, BuildingBlock: NAWXER_clean_sbu_0, # of connection points: 4
#     Node 20, Type 0, BuildingBlock: NAWXER_clean_sbu_0, # of connection points: 4
#     Node 21, Type 0, BuildingBlock: NAWXER_clean_sbu_0, # of connection points: 4
#     Node 22, Type 0, BuildingBlock: NAWXER_clean_sbu_0, # of connection points: 4
#     Node 23, Type 0, BuildingBlock: NAWXER_clean_sbu_0, # of connection points: 4
#     Edge 24, Type (0, 0), BuildingBlock: KIFKEQ_clean_linker_1, # of connection points: 2
#     Edge 25, Type (0, 0), BuildingBlock: KIFKEQ_clean_linker_1, # of connection points: 2
#     Edge 26, Type (0, 0), BuildingBlock: KIFKEQ_clean_linker_1, # of connection points: 2
#     Edge 27, Type (0, 0), BuildingBlock: KIFKEQ_clean_linker_1, # of connection points: 2
#     Edge 28, Type (0, 0), BuildingBlock: KIFKEQ_clean_linker_1, # of connection points: 2
#     Edge 29, Type (0, 0), BuildingBlock: KIFKEQ_clean_linker_1, # of connection points: 2
#     Edge 30, Type (0, 0), BuildingBlock: KIFKEQ_clean_linker_1, # of connection points: 2
#     Edge 31, Type (0, 0), BuildingBlock: KIFKEQ_clean_linker_1, # of connection points: 2
#     Edge 32, Type (0, 0), BuildingBlock: KIFKEQ_clean_linker_1, # of connection points: 2
#     Edge 33, Type (0, 0), BuildingBlock: KIFKEQ_clean_linker_1, # of connection points: 2
#     Edge 34, Type (0, 0), BuildingBlock: KIFKEQ_clean_linker_1, # of connection points: 2
#     Edge 35, Type (0, 0), BuildingBlock: KIFKEQ_clean_linker_1, # of connection points: 2
#     Edge 36, Type (0, 0), BuildingBlock: KIFKEQ_clean_linker_1, # of connection points: 2
#     Edge 37, Type (0, 0), BuildingBlock: KIFKEQ_clean_linker_1, # of connection points: 2
#     Edge 38, Type (0, 0), BuildingBlock: KIFKEQ_clean_linker_1, # of connection points: 2
#     Edge 39, Type (0, 0), BuildingBlock: KIFKEQ_clean_linker_1, # of connection points: 2
#     Edge 40, Type (0, 0), BuildingBlock: KIFKEQ_clean_linker_1, # of connection points: 2
#     Edge 41, Type (0, 0), BuildingBlock: KIFKEQ_clean_linker_1, # of connection points: 2
#     Edge 42, Type (0, 0), BuildingBlock: KIFKEQ_clean_linker_1, # of connection points: 2
#     Edge 43, Type (0, 0), BuildingBlock: KIFKEQ_clean_linker_1, # of connection points: 2
#     Edge 44, Type (0, 0), BuildingBlock: KIFKEQ_clean_linker_1, # of connection points: 2
#     Edge 45, Type (0, 0), BuildingBlock: KIFKEQ_clean_linker_1, # of connection points: 2
#     Edge 46, Type (0, 0), BuildingBlock: KIFKEQ_clean_linker_1, # of connection points: 2
#     Edge 47, Type (0, 0), BuildingBlock: KIFKEQ_clean_linker_1, # of connection points: 2
#     Edge 48, Type (0, 0), BuildingBlock: KIFKEQ_clean_linker_1, # of connection points: 2
#     Edge 49, Type (0, 0), BuildingBlock: KIFKEQ_clean_linker_1, # of connection points: 2
#     Edge 50, Type (0, 0), BuildingBlock: KIFKEQ_clean_linker_1, # of connection points: 2
#     Edge 51, Type (0, 0), BuildingBlock: KIFKEQ_clean_linker_1, # of connection points: 2
#     Edge 52, Type (0, 0), BuildingBlock: KIFKEQ_clean_linker_1, # of connection points: 2
#     Edge 53, Type (0, 0), BuildingBlock: KIFKEQ_clean_linker_1, # of connection points: 2
#     Edge 54, Type (0, 0), BuildingBlock: KIFKEQ_clean_linker_1, # of connection points: 2
#     Edge 55, Type (0, 0), BuildingBlock: KIFKEQ_clean_linker_1, # of connection points: 2
#     Edge 56, Type (0, 0), BuildingBlock: KIFKEQ_clean_linker_1, # of connection points: 2
#     Edge 57, Type (0, 0), BuildingBlock: KIFKEQ_clean_linker_1, # of connection points: 2
#     Edge 58, Type (0, 0), BuildingBlock: KIFKEQ_clean_linker_1, # of connection points: 2
#     Edge 59, Type (0, 0), BuildingBlock: KIFKEQ_clean_linker_1, # of connection points: 2
#     Edge 60, Type (0, 0), BuildingBlock: KIFKEQ_clean_linker_1, # of connection points: 2
#     Edge 61, Type (0, 0), BuildingBlock: KIFKEQ_clean_linker_1, # of connection points: 2
#     Edge 62, Type (0, 0), BuildingBlock: KIFKEQ_clean_linker_1, # of connection points: 2
#     Edge 63, Type (0, 0), BuildingBlock: KIFKEQ_clean_linker_1, # of connection points: 2
#     Edge 64, Type (0, 0), BuildingBlock: KIFKEQ_clean_linker_1, # of connection points: 2
#     Edge 65, Type (0, 0), BuildingBlock: KIFKEQ_clean_linker_1, # of connection points: 2
#     Edge 66, Type (0, 0), BuildingBlock: KIFKEQ_clean_linker_1, # of connection points: 2
#     Edge 67, Type (0, 0), BuildingBlock: KIFKEQ_clean_linker_1, # of connection points: 2
#     Edge 68, Type (0, 0), BuildingBlock: KIFKEQ_clean_linker_1, # of connection points: 2
#     Edge 69, Type (0, 0), BuildingBlock: KIFKEQ_clean_linker_1, # of connection points: 2
#     Edge 70, Type (0, 0), BuildingBlock: KIFKEQ_clean_linker_1, # of connection points: 2
#     Edge 71, Type (0, 0), BuildingBlock: KIFKEQ_clean_linker_1, # of connection points: 2
# Relax obj value: 0.003
# Max RMSD: 0.009
# Mean RMSD: 0.009
data_MOF--net-rhr--node1-NAWXER_clean_sbu_0--edge1-KIFKEQ_clean_linker_1
_symmetry_space_group_name_H-M    P1
_symmetry_Int_Tables_number       1
_symmetry_cell_setting            triclinic
loop_
_symmetry_equiv_pos_as_xyz
'x, y, z'
_cell_length_a     50.987428
_cell_length_b     51.089472
_cell_length_c     51.058948
_cell_angle_alpha  90.0065
_cell_angle_beta   90.01175
_cell_angle_gamma 89.865857
loop_
_atom_site_label
_atom_site_type_symbol
_atom_site_fract_x
_atom_site_fract_y
_atom_site_fract_z
_atom_type_partial_charge
C0 C 0.32346 0.04375 0.37836 0.0
C1 C 0.38179 0.97755 0.34187 0.0
O2 O 0.31554 0.03501 0.35619 0.0
Zn3 Zn 0.32915 1.00895 0.32631 0.0
O4 O 0.34601 0.0372 0.38677 0.0
Zn5 Zn 0.35542 0.01333 0.35889 0.0
O6 O 0.36504 0.03761 0.3265 0.0
O7 O 0.33623 0.03077 0.29523 0.0
O8 O 0.38648 0.9915 0.36198 0.0
O9 O 0.36185 0.98258 0.32742 0.0
O10 O 0.30077 0.98306 0.32738 0.0
O11 O 0.32562 0.98401 0.36285 0.0
C12 C 0.35666 0.04249 0.30336 0.0
C13 C 0.30644 0.97413 0.35003 0.0
C14 C 0.03249 0.37326 0.32486 0.0
C15 C 0.98059 0.32026 0.3869 0.0
O16 O 0.02835 0.34958 0.31782 0.0
Zn17 Zn 1.00863 0.31543 0.33065 0.0
O18 O 0.02316 0.38147 0.34652 0.0
Zn19 Zn 1.00643 0.34857 0.35751 0.0
O20 O 0.03882 0.3229 0.36341 0.0
O21 O 0.03746 0.29045 0.33486 0.0
O22 O 0.98703 0.3441 0.3905 0.0
O23 O 0.9876 0.30862 0.36583 0.0
O24 O 0.98085 0.31197 0.3041 0.0
O25 O 0.97541 0.34587 0.33034 0.0
C26 C 0.0486 0.30171 0.35416 0.0
C27 C 0.96738 0.33174 0.31131 0.0
C28 C 0.65406 0.99733 0.32125 0.0
C29 C 0.69195 0.06746 0.37501 0.0
O30 O 0.64525 1.00636 0.34274 0.0
Zn31 Zn 0.6734 0.0309 0.35036 0.0
O32 O 0.67613 1.00555 0.31253 0.0
Zn33 Zn 0.70529 0.03378 0.32297 0.0
O34 O 0.73706 0.01355 0.32953 0.0
O35 O 0.70685 1.00761 0.35983 0.0
O36 O 0.70559 0.06136 0.3548 0.0
O37 O 0.67149 0.05429 0.38052 0.0
O38 O 0.66859 0.05857 0.31961 0.0
O39 O 0.70297 0.05767 0.29319 0.0
C40 C 0.72986 1.00289 0.35085 0.0
C41 C 0.6807 0.06716 0.29942 0.0
C42 C 0.0545 0.67089 0.3063 0.0
C43 C 0.97014 0.70963 0.33346 0.0
O44 O 0.04363 0.65996 0.32607 0.0
Zn45 Zn 1.00967 0.66325 0.34978 0.0
O46 O 0.04327 0.69036 0.29541 0.0
Zn47 Zn 1.01231 0.69178 0.31814 0.0
O48 O 0.02839 0.70406 0.35434 0.0
O49 O 0.02477 0.67294 0.38405 0.0
O50 O 0.98401 0.71757 0.31427 0.0
O51 O 0.97802 0.69014 0.34713 0.0
O52 O 0.99168 0.62996 0.34243 0.0
O53 O 0.99295 0.65638 0.30829 0.0
C54 C 0.03202 0.69599 0.37778 0.0
C55 C 0.98617 0.63453 0.31849 0.0
C56 C 0.33197 0.05209 0.64823 0.0
C57 C 0.36874 0.97621 0.69554 0.0
O58 O 0.35158 0.03858 0.6405 0.0
Zn59 Zn 0.34945 0.01238 0.66854 0.0
O60 O 0.31881 0.04468 0.66828 0.0
Zn61 Zn 0.31885 0.01443 0.69756 0.0
O62 O 0.32255 0.03652 0.72845 0.0
O63 O 0.35632 0.03757 0.70121 0.0
O64 O 0.34773 0.98538 0.70581 0.0
O65 O 0.37624 0.98506 0.67349 0.0
O66 O 0.31422 0.9932 0.65749 0.0
O67 O 0.28624 0.99577 0.6903 0.0
C68 C 0.34499 0.04551 0.72216 0.0
C69 C 0.29151 0.98847 0.66708 0.0
C70 C 0.03954 0.37014 0.71334 0.0
C71 C 0.96349 0.33591 0.6657 0.0
O72 O 0.02969 0.3795 0.69241 0.0
Zn73 Zn 1.00304 0.35276 0.68712 0.0
O74 O 0.03072 0.34854 0.7225 0.0
Zn75 Zn 1.00094 0.32041 0.71425 0.0
O76 O 0.02062 0.28835 0.70502 0.0
O77 O 0.02508 0.3195 0.67561 0.0
O78 O 0.97045 0.32179 0.68529 0.0
O79 O 0.97728 0.35561 0.6592 0.0
O80 O 0.97905 0.35875 0.72079 0.0
O81 O 0.98037 0.32406 0.74666 0.0
C82 C 0.03035 0.2963 0.68348 0.0
C83 C 0.97201 0.34712 0.74184 0.0
C84 C 0.66685 1.00888 0.72646 0.0
C85 C 0.72117 0.95286 0.66855 0.0
O86 O 0.65835 1.00614 0.70303 0.0
Zn87 Zn 0.66832 0.98768 0.66725 0.0
O88 O 0.68863 0.99836 0.73276 0.0
Zn89 Zn 0.69668 0.9818 0.69855 0.0
O90 O 0.70522 0.01372 0.67315 0.0
O91 O 0.67426 0.01683 0.64316 0.0
O92 O 0.72739 0.95917 0.69193 0.0
O93 O 0.7004 0.9625 0.65825 0.0
O94 O 0.63916 0.963 0.6633 0.0
O95 O 0.66651 0.9532 0.69548 0.0
C96 C 0.69574 0.02504 0.65284 0.0
C97 C 0.64626 0.94768 0.68171 0.0
C98 C 0.98906 0.67293 0.70659 0.0
C99 C 0.06474 0.71988 0.67132 0.0
O100 O 0.99746 0.66339 0.68492 0.0
Zn101 Zn 0.0275 0.67112 0.65679 0.0
O102 O 0.99999 0.69315 0.71613 0.0
Zn103 Zn 0.02611 0.69843 0.68916 0.0
O104 O 1.00412 0.71008 0.65584 0.0
O105 O 1.00873 0.68049 0.62467 0.0
O106 O 0.05181 0.72657 0.69162 0.0
O107 O 0.05706 0.70047 0.65747 0.0
O108 O 0.04996 0.63989 0.65934 0.0
O109 O 0.05156 0.66579 0.69395 0.0
C110 C 0.99923 0.70216 0.63255 0.0
C111 C 0.0596 0.64544 0.68169 0.0
C112 C 0.31704 0.36207 0.04667 0.0
C113 C 0.37235 0.30481 0.99174 0.0
O114 O 0.33806 0.37293 0.03822 0.0
Zn115 Zn 0.37114 0.36391 0.01361 0.0
O116 O 0.31114 0.33916 0.03877 0.0
Zn117 Zn 0.3423 0.33355 0.01714 0.0
O118 O 0.37118 0.33531 0.04733 0.0
O119 O 0.39935 0.36721 0.03927 0.0
O120 O 0.3498 0.29947 1.00096 0.0
O121 O 0.38164 0.32788 0.995 0.0
O122 O 0.36772 0.38895 0.98513 0.0
O123 O 0.33586 0.35987 0.98516 0.0
C124 C 0.39129 0.34874 0.05395 0.0
C125 C 0.3467 0.38014 0.97508 0.0
C126 C 0.72579 0.34573 0.01992 0.0
C127 C 0.67946 0.30211 0.94902 0.0
O128 O 0.73317 0.32559 1.00729 0.0
Zn129 Zn 0.70231 0.32219 0.98556 0.0
O130 O 0.70317 0.35579 0.0153 0.0
Zn131 Zn 0.67078 0.34969 0.98932 0.0
O132 O 0.6414 0.34097 1.01193 0.0
O133 O 0.67174 0.31014 1.01178 0.0
O134 O 0.6668 0.32151 0.95873 0.0
O135 O 0.70127 0.29522 0.95901 0.0
O136 O 0.705 0.35662 0.96184 0.0
O137 O 0.67086 0.38224 0.96926 0.0
C138 C 0.6495 0.31876 0.01979 0.0
C139 C 0.69225 0.37775 0.95717 0.0
C140 C 0.67372 0.71769 0.0626 0.0
C141 C 0.73054 0.6788 0.99613 0.0
O142 O 0.69568 0.72656 0.05481 0.0
Zn143 Zn 0.70227 0.69976 0.02875 0.0
O144 O 0.66419 0.69707 0.05198 0.0
Zn145 Zn 0.67411 0.66921 0.0224 0.0
O146 O 0.67646 0.63682 0.0432 0.0
O147 O 0.7068 0.66588 0.05302 0.0
O148 O 0.70878 0.66666 0.99914 0.0
O149 O 0.73515 0.69931 1.00945 0.0
O150 O 0.67308 0.70878 0.99972 0.0
O151 O 0.64647 0.67505 0.99634 0.0
C152 C 0.69623 0.64349 0.05693 0.0
C153 C 0.6529 0.69806 0.98926 0.0
C154 C 0.29152 0.68579 0.98089 0.0
C155 C 0.34865 0.73263 0.04333 0.0
O156 O 0.31274 0.67388 0.98711 0.0
Zn157 Zn 0.34594 0.67796 0.01227 0.0
O158 O 0.28591 0.70764 0.99161 0.0
Zn159 Zn 0.31799 0.70955 0.01307 0.0
O160 O 0.34735 0.71135 0.9828 0.0
O161 O 0.37358 0.67698 0.98621 0.0
O162 O 0.326 0.73966 0.03554 0.0
O163 O 0.35779 0.71037 0.03608 0.0
O164 O 0.34037 0.64839 0.03579 0.0
O165 O 0.30976 0.67869 0.0396 0.0
C166 C 0.36691 0.69791 0.97438 0.0
C167 C 0.31908 0.65633 0.04607 0.0
C168 C 0.86652 0.5591 0.81083 0.0
C169 C 0.80514 0.50335 0.8588 0.0
O170 O 0.87552 0.5511 0.83288 0.0
Zn171 Zn 0.86359 0.52671 0.86474 0.0
O172 O 0.84402 0.55153 0.80327 0.0
Zn173 Zn 0.83531 0.53065 0.8338 0.0
O174 O 0.83301 0.55944 0.864 0.0
O175 O 0.86307 0.55128 0.89404 0.0
O176 O 0.80101 0.51427 0.83677 0.0
O177 O 0.82721 0.50659 0.87038 0.0
O178 O 0.88874 0.49782 0.86361 0.0
O179 O 0.86072 0.49736 0.83068 0.0
C180 C 0.84421 0.56535 0.88567 0.0
C181 C 0.87997 0.48688 0.84301 0.0
C182 C 0.4744 0.77884 0.83203 0.0
C183 C 0.54432 0.81617 0.77846 0.0
O184 O 0.48357 0.76912 0.81098 0.0
Zn185 Zn 0.50958 0.79629 0.80463 0.0
O186 O 0.48364 0.8004 0.84084 0.0
Zn187 Zn 0.51308 0.82833 0.83168 0.0
O188 O 0.49245 0.86023 0.8255 0.0
O189 O 0.48626 0.83009 0.79526 0.0
O190 O 0.53931 0.82929 0.79926 0.0
O191 O 0.53186 0.79516 0.7737 0.0
O192 O 0.53598 0.78938 0.83685 0.0
O193 O 0.53656 0.82453 0.86184 0.0
C194 C 0.48159 0.85309 0.8042 0.0
C195 C 0.54428 0.80122 0.8574 0.0
C196 C 0.18618 0.54484 0.79262 0.0
C197 C 0.2373 0.48716 0.85013 0.0
O198 O 0.20915 0.53616 0.78791 0.0
Zn199 Zn 0.21265 0.51668 0.82058 0.0
O200 O 0.17472 0.53888 0.81414 0.0
Zn201 Zn 0.18128 0.51575 0.84853 0.0
O202 O 0.17973 0.54198 0.87617 0.0
O203 O 0.213 0.54762 0.84912 0.0
O204 O 0.21452 0.49277 0.85913 0.0
O205 O 0.24447 0.49676 0.82832 0.0
O206 O 0.1833 0.48762 0.8135 0.0
O207 O 0.15347 0.49003 0.84468 0.0
C208 C 0.19963 0.55516 0.86905 0.0
C209 C 0.16167 0.47973 0.82349 0.0
C210 C 0.47587 0.15087 0.81926 0.0
C211 C 0.55404 0.19486 0.8513 0.0
O212 O 0.48739 0.17038 0.80898 0.0
Zn213 Zn 0.51495 0.17371 0.83453 0.0
O214 O 0.48513 0.14056 0.84021 0.0
Zn215 Zn 0.51665 0.14658 0.86702 0.0
O216 O 0.49728 0.15609 0.89939 0.0
O217 O 0.49379 0.18567 0.86821 0.0
O218 O 0.54672 0.17563 0.86567 0.0
O219 O 0.54071 0.20111 0.83117 0.0
O220 O 0.53851 0.13994 0.82806 0.0
O221 O 0.538 0.11432 0.86275 0.0
C222 C 0.48814 0.17792 0.89136 0.0
C223 C 0.54625 0.11909 0.83966 0.0
C224 C 0.83164 0.45754 0.14157 0.0
C225 C 0.87583 0.51919 0.20078 0.0
O226 O 0.81946 0.46239 0.16296 0.0
Zn227 Zn 0.82255 0.48578 0.19728 0.0
O228 O 0.85281 0.46969 0.13638 0.0
Zn229 Zn 0.85379 0.48991 0.16901 0.0
O230 O 0.85839 0.45893 0.19663 0.0
O231 O 0.82457 0.45794 0.22361 0.0
O232 O 0.88317 0.51249 0.17791 0.0
O233 O 0.85382 0.51084 0.20956 0.0
O234 O 0.7917 0.50856 0.19352 0.0
O235 O 0.82172 0.51608 0.1634 0.0
C236 C 0.8464 0.4484 0.21597 0.0
C237 C 0.79923 0.52116 0.17338 0.0
C238 C 0.54271 0.88467 0.2032 0.0
C239 C 0.47239 0.83713 0.15681 0.0
O240 O 0.53028 0.89264 0.18304 0.0
Zn241 Zn 0.50834 0.86166 0.17905 0.0
O242 O 0.53766 0.86202 0.21278 0.0
Zn243 Zn 0.51103 0.82974 0.20595 0.0
O244 O 0.53535 0.80145 0.19906 0.0
O245 O 0.53681 0.83264 0.1692 0.0
O246 O 0.4812 0.82467 0.17677 0.0
O247 O 0.48235 0.85915 0.15097 0.0
O248 O 0.48662 0.86591 0.21445 0.0
O249 O 0.49149 0.83033 0.23865 0.0
C250 C 0.54535 0.81085 0.17828 0.0
C251 C 0.48231 0.85331 0.2357 0.0
C252 C 0.1957 0.53969 0.14577 0.0
C253 C 0.1417 0.48171 0.20089 0.0
O254 O 0.20583 0.53295 0.16767 0.0
Zn255 Zn 0.19825 0.50917 0.20068 0.0
O256 O 0.17345 0.53059 0.13895 0.0
Zn257 Zn 0.1673 0.51006 0.17103 0.0
O258 O 0.1657 0.54024 0.19942 0.0
O259 O 0.19754 0.53601 0.22844 0.0
O260 O 0.13469 0.49114 0.17886 0.0
O261 O 0.16448 0.48697 0.20999 0.0
O262 O 0.22572 0.48242 0.19674 0.0
O263 O 0.19536 0.47984 0.16607 0.0
C264 C 0.1776 0.54848 0.21988 0.0
C265 C 0.2166 0.47127 0.17635 0.0
C266 C 0.53695 0.20715 0.1378 0.0
C267 C 0.47413 0.16021 0.1943 0.0
O268 O 0.52269 0.18782 0.13114 0.0
Zn269 Zn 0.50584 0.18294 0.16529 0.0
O270 O 0.53557 0.21604 0.16122 0.0
Zn271 Zn 0.51424 0.20889 0.19672 0.0
O272 O 0.54228 0.20168 0.22053 0.0
O273 O 0.53855 0.17169 0.18963 0.0
O274 O 0.48529 0.17956 0.20581 0.0
O275 O 0.48025 0.15504 0.17071 0.0
O276 O 0.48271 0.21799 0.16675 0.0
O277 O 0.49598 0.24179 0.20038 0.0
C278 C 0.55047 0.18076 0.20982 0.0
C279 C 0.48122 0.2389 0.18056 0.0
C280 C 0.89457 0.82677 0.52028 0.0
C281 C 0.84229 0.88579 0.4644 0.0
O282 O 0.87159 0.81852 0.51459 0.0
Zn283 Zn 0.8381 0.82975 0.49274 0.0
O284 O 0.9023 0.84877 0.51146 0.0
Zn285 Zn 0.86983 0.85799 0.49283 0.0
O286 O 0.8421 0.86231 0.52405 0.0
O287 O 0.81148 0.83211 0.52002 0.0
O288 O 0.86519 0.89076 0.47306 0.0
O289 O 0.83116 0.86429 0.47082 0.0
O290 O 0.8373 0.80307 0.46514 0.0
O291 O 0.87063 0.83031 0.46179 0.0
C292 C 0.821 0.85154 0.53241 0.0
C293 C 0.85775 0.81071 0.45301 0.0
C294 C 0.18041 0.89132 0.5393 0.0
C295 C 0.13405 0.82619 0.48576 0.0
O296 O 0.19387 0.87084 0.53388 0.0
Zn297 Zn 0.19079 0.83575 0.51133 0.0
O298 O 0.15808 0.89481 0.52865 0.0
Zn299 Zn 0.15722 0.86137 0.50982 0.0
O300 O 0.15928 0.83508 0.54236 0.0
O301 O 0.19505 0.81061 0.5397 0.0
O302 O 0.12573 0.84889 0.49193 0.0
O303 O 0.15759 0.81966 0.49169 0.0
O304 O 0.21722 0.83966 0.4841 0.0
O305 O 0.18458 0.86752 0.47911 0.0
C306 C 0.17428 0.81735 0.55192 0.0
C307 C 0.20659 0.85822 0.47132 0.0
C308 C 0.14787 0.1956 0.55906 0.0
C309 C 0.20015 0.14814 0.49294 0.0
O310 O 0.16737 0.20853 0.5499 0.0
Zn311 Zn 0.1979 0.20419 0.52149 0.0
O312 O 0.14312 0.17286 0.55006 0.0
Zn313 Zn 0.17217 0.17082 0.52499 0.0
O314 O 0.20587 0.1706 0.54991 0.0
O315 O 0.23003 0.20569 0.54223 0.0
O316 O 0.17956 0.13931 0.50398 0.0
O317 O 0.20773 0.17144 0.49796 0.0
O318 O 0.18983 0.23056 0.4951 0.0
O319 O 0.16134 0.19818 0.49531 0.0
C320 C 0.22647 0.18421 0.55437 0.0
C321 C 0.16945 0.21982 0.48558 0.0
C322 C 0.8272 0.24207 0.5634 0.0
C323 C 0.77963 0.19475 0.4948 0.0
O324 O 0.83823 0.22081 0.55599 0.0
Zn325 Zn 0.83128 0.18886 0.53038 0.0
O326 O 0.80434 0.24777 0.55512 0.0
Zn327 Zn 0.80114 0.21828 0.53067 0.0
O328 O 0.79316 0.18525 0.55496 0.0
O329 O 0.82685 0.15832 0.55283 0.0
O330 O 0.77189 0.21565 0.50602 0.0
O331 O 0.80106 0.18383 0.50209 0.0
O332 O 0.86196 0.19254 0.50829 0.0
O333 O 0.83428 0.22577 0.50527 0.0
C334 C 0.80408 0.16362 0.56153 0.0
C335 C 0.85613 0.21493 0.49893 0.0
H336 H 0.24855 0.16043 0.47491 0.0
H337 H 0.19029 0.09911 0.47194 0.0
H338 H 0.27758 0.13466 0.4477 0.0
H339 H 0.21994 0.07301 0.44422 0.0
H340 H 0.27119 0.05235 0.37027 0.0
H341 H 0.2405 0.07598 0.39837 0.0
H342 H 0.30343 0.09324 0.4522 0.0
H343 H 0.33423 0.06959 0.42414 0.0
C344 C 0.24181 0.14142 0.4684 0.0
C345 C 0.21695 0.13186 0.47564 0.0
C346 C 0.25867 0.12656 0.45292 0.0
C347 C 0.25116 0.10176 0.444 0.0
C348 C 0.22618 0.09216 0.45082 0.0
C349 C 0.20926 0.10702 0.46669 0.0
C350 C 0.27856 0.0613 0.38803 0.0
C351 C 0.30526 0.05929 0.39485 0.0
C352 C 0.26087 0.07457 0.40425 0.0
C353 C 0.26954 0.08638 0.42748 0.0
C354 C 0.29623 0.08445 0.43429 0.0
C355 C 0.31388 0.07094 0.41822 0.0
H356 H 0.95148 0.33872 0.4287 0.0
H357 H 0.97343 0.2677 0.38821 0.0
H358 H 0.92251 0.31318 0.45729 0.0
H359 H 0.94448 0.2426 0.41609 0.0
H360 H 0.90605 0.20069 0.48439 0.0
H361 H 0.93792 0.22684 0.46017 0.0
H362 H 0.88108 0.28925 0.45292 0.0
H363 H 0.84946 0.26341 0.4774 0.0
C364 C 0.95032 0.31772 0.42604 0.0
C365 C 0.96464 0.30533 0.40606 0.0
C366 C 0.9336 0.3031 0.44225 0.0
C367 C 0.93109 0.27581 0.43891 0.0
C368 C 0.9461 0.26347 0.41946 0.0
C369 C 0.96259 0.27799 0.40329 0.0
C370 C 0.90031 0.21992 0.4775 0.0
C371 C 0.87512 0.22982 0.48271 0.0
C372 C 0.91859 0.23495 0.46364 0.0
C373 C 0.91212 0.26024 0.45469 0.0
C374 C 0.88691 0.27008 0.45989 0.0
C375 C 0.86865 0.25507 0.47369 0.0
H376 H 0.85749 0.93422 0.44507 0.0
H377 H 0.79434 0.8779 0.44297 0.0
H378 H 0.83181 0.9633 0.41631 0.0
H379 H 0.76942 0.90636 0.41455 0.0
H380 H 0.71816 0.97515 0.39467 0.0
H381 H 0.74712 0.9486 0.42138 0.0
H382 H 0.81171 0.96572 0.36953 0.0
H383 H 0.78249 0.99294 0.34254 0.0
C384 C 0.8383 0.92801 0.43848 0.0
C385 C 0.82791 0.90385 0.44663 0.0
C386 C 0.82369 0.94455 0.42192 0.0
C387 C 0.79847 0.93721 0.41342 0.0
C388 C 0.78855 0.91282 0.42112 0.0
C389 C 0.80298 0.89644 0.43745 0.0
C390 C 0.73849 0.97332 0.38878 0.0
C391 C 0.74791 0.98604 0.36627 0.0
C392 C 0.75511 0.95802 0.40414 0.0
C393 C 0.78167 0.95492 0.39749 0.0
C394 C 0.79135 0.96788 0.3752 0.0
C395 C 0.77457 0.98323 0.35964 0.0
H396 H 0.08402 0.83307 0.46659 0.0
H397 H 0.14522 0.77503 0.47504 0.0
H398 H 0.0568 0.80085 0.4439 0.0
H399 H 0.11824 0.74314 0.45223 0.0
H400 H 0.05535 0.68524 0.42557 0.0
H401 H 0.0778 0.71646 0.45449 0.0
H402 H 0.05847 0.77931 0.40128 0.0
H403 H 0.03614 0.74862 0.37289 0.0
C404 C 0.09165 0.81349 0.46367 0.0
C405 C 0.11692 0.80679 0.47242 0.0
C406 C 0.07608 0.79501 0.45065 0.0
C407 C 0.08534 0.76937 0.44622 0.0
C408 C 0.11033 0.76254 0.45558 0.0
C409 C 0.12592 0.781 0.46844 0.0
C410 C 0.05571 0.70576 0.42028 0.0
C411 C 0.04415 0.71434 0.39681 0.0
C412 C 0.06865 0.72363 0.43674 0.0
C413 C 0.06995 0.75043 0.43019 0.0
C414 C 0.05762 0.75896 0.40715 0.0
C415 C 0.045 0.7412 0.3907 0.0
H416 H 0.18515 0.94497 0.53933 0.0
H417 H 0.19835 0.87598 0.58627 0.0
H418 H 0.20837 0.97146 0.57232 0.0
H419 H 0.22081 0.90223 0.61923 0.0
H420 H 0.24709 0.96144 0.6814 0.0
H421 H 0.21494 0.94082 0.65208 0.0
H422 H 0.25797 0.969 0.58504 0.0
H423 H 0.29012 0.98903 0.614 0.0
C424 C 0.19241 0.93567 0.55698 0.0
C425 C 0.19019 0.90852 0.56029 0.0
C426 C 0.20573 0.95071 0.57575 0.0
C427 C 0.21638 0.93885 0.59832 0.0
C428 C 0.21263 0.91195 0.60221 0.0
C429 C 0.19993 0.89692 0.58328 0.0
C430 C 0.24954 0.96329 0.66041 0.0
C431 C 0.27131 0.97652 0.65002 0.0
C432 C 0.23116 0.95159 0.64367 0.0
C433 C 0.23389 0.95351 0.61629 0.0
C434 C 0.25516 0.96751 0.60602 0.0
C435 C 0.27375 0.97867 0.62265 0.0
H436 H 0.05731 0.31105 0.64012 0.0
H437 H 0.04246 0.24357 0.68888 0.0
H438 H 0.08514 0.28491 0.61202 0.0
H439 H 0.071 0.21708 0.66034 0.0
H440 H 0.10203 0.17699 0.58132 0.0
H441 H 0.07377 0.19947 0.61322 0.0
H442 H 0.12821 0.264 0.61549 0.0
H443 H 0.15598 0.24204 0.5838 0.0
C444 C 0.06002 0.29059 0.64497 0.0
C445 C 0.04765 0.27951 0.66696 0.0
C446 C 0.07618 0.27558 0.62882 0.0
C447 C 0.08056 0.24893 0.63402 0.0
C448 C 0.06797 0.23756 0.65578 0.0
C449 C 0.05178 0.25276 0.67221 0.0
C450 C 0.10799 0.1959 0.58878 0.0
C451 C 0.13115 0.20781 0.57967 0.0
C452 C 0.09188 0.2087 0.60716 0.0
C453 C 0.09856 0.23369 0.61667 0.0
C454 C 0.12218 0.24502 0.60822 0.0
C455 C 0.13818 0.23233 0.59002 0.0
H456 H 0.82038 0.11581 0.58036 0.0
H457 H 0.75303 0.16722 0.57724 0.0
H458 H 0.79382 0.08278 0.60264 0.0
H459 H 0.72669 0.13433 0.59946 0.0
H460 H 0.68161 0.05641 0.61122 0.0
H461 H 0.70811 0.09025 0.58999 0.0
H462 H 0.77087 0.07567 0.6449 0.0
H463 H 0.74467 0.04202 0.66597 0.0
C464 C 0.80003 0.12019 0.58464 0.0
C465 C 0.78892 0.14422 0.57703 0.0
C466 C 0.78481 0.10128 0.59742 0.0
C467 C 0.75807 0.10587 0.60267 0.0
C468 C 0.74709 0.13002 0.59538 0.0
C469 C 0.76233 0.14898 0.58284 0.0
C470 C 0.701 0.06053 0.61882 0.0
C471 C 0.71093 0.04647 0.64032 0.0
C472 C 0.71617 0.07996 0.60672 0.0
C473 C 0.74167 0.08558 0.61571 0.0
C474 C 0.75147 0.07161 0.63727 0.0
C475 C 0.73629 0.05242 0.64947 0.0
H476 H 0.96303 0.73808 0.64738 0.0
H477 H 1.00046 0.70563 0.57875 0.0
H478 H 0.93925 0.76912 0.61999 0.0
H479 H 0.97666 0.73729 0.55117 0.0
H480 H 0.94848 0.82178 0.52062 0.0
H481 H 0.97455 0.7906 0.5468 0.0
H482 H 0.90374 0.76308 0.58388 0.0
H483 H 0.87793 0.79355 0.55779 0.0
C484 C 0.96611 0.73752 0.62639 0.0
C485 C 0.98349 0.71929 0.61519 0.0
C486 C 0.95252 0.75534 0.61074 0.0
C487 C 0.95627 0.7557 0.58352 0.0
C488 C 0.97364 0.73754 0.57217 0.0
C489 C 0.98697 0.71927 0.58787 0.0
C490 C 0.93864 0.8092 0.53455 0.0
C491 C 0.91122 0.81012 0.53722 0.0
C492 C 0.95346 0.79122 0.54927 0.0
C493 C 0.94108 0.77441 0.56725 0.0
C494 C 0.91378 0.77583 0.57022 0.0
C495 C 0.89903 0.7933 0.55526 0.0
H496 H 0.44382 0.34983 0.06617 0.0
H497 H 0.36734 0.33241 0.09789 0.0
H498 H 0.46429 0.32856 0.10423 0.0
H499 H 0.38759 0.31169 0.13575 0.0
H500 H 0.43397 0.23491 0.1571 0.0
H501 H 0.41147 0.26859 0.13197 0.0
H502 H 0.46999 0.32509 0.15505 0.0
H503 H 0.49244 0.2911 0.18078 0.0
C504 C 0.43148 0.34228 0.08168 0.0
C505 C 0.4041 0.34217 0.07893 0.0
C506 C 0.44312 0.33022 0.10346 0.0
C507 C 0.42744 0.31814 0.12266 0.0
C508 C 0.40009 0.32047 0.12103 0.0
C509 C 0.38855 0.33228 0.09935 0.0
C510 C 0.44154 0.25471 0.15749 0.0
C511 C 0.46479 0.2605 0.1709 0.0
C512 C 0.42868 0.27403 0.14314 0.0
C513 C 0.43906 0.29944 0.14154 0.0
C514 C 0.46166 0.30562 0.15598 0.0
C515 C 0.4743 0.28631 0.17085 0.0
H516 H 0.84336 0.4477 0.08954 0.0
H517 H 0.79415 0.42218 0.15354 0.0
H518 H 0.81993 0.41763 0.06002 0.0
H519 H 0.77124 0.39265 0.12443 0.0
H520 H 0.71197 0.37982 0.0582 0.0
H521 H 0.74061 0.40457 0.08703 0.0
H522 H 0.80839 0.3672 0.05266 0.0
H523 H 0.77947 0.34205 0.02352 0.0
C524 C 0.8279 0.4355 0.09736 0.0
C525 C 0.82029 0.43772 0.12373 0.0
C526 C 0.81459 0.41827 0.08054 0.0
C527 C 0.79355 0.40315 0.08995 0.0
C528 C 0.78705 0.40441 0.11657 0.0
C529 C 0.80022 0.42142 0.13322 0.0
C530 C 0.73295 0.37666 0.05687 0.0
C531 C 0.74345 0.35888 0.0387 0.0
C532 C 0.74935 0.39082 0.07341 0.0
C533 C 0.7767 0.38775 0.07206 0.0
C534 C 0.78736 0.36997 0.05396 0.0
C535 C 0.77082 0.35544 0.03754 0.0
H536 H 0.63166 0.6984 0.08882 0.0
H537 H 0.68125 0.7667 0.08345 0.0
H538 H 0.6036 0.72094 0.11992 0.0
H539 H 0.65309 0.78929 0.11511 0.0
H540 H 0.57364 0.82895 0.13692 0.0
H541 H 0.60783 0.80643 0.11262 0.0
H542 H 0.60088 0.73979 0.16419 0.0
H543 H 0.56617 0.76228 0.18852 0.0
C544 C 0.63676 0.71817 0.09451 0.0
C545 C 0.65851 0.7309 0.08341 0.0
C546 C 0.62077 0.73099 0.11257 0.0
C547 C 0.62608 0.7569 0.11991 0.0
C548 C 0.64839 0.76938 0.10959 0.0
C549 C 0.66455 0.75644 0.09157 0.0
C550 C 0.57943 0.80953 0.14322 0.0
C551 C 0.56696 0.79727 0.1645 0.0
C552 C 0.59927 0.79675 0.12943 0.0
C553 C 0.60708 0.77137 0.1365 0.0
C554 C 0.5951 0.7593 0.15817 0.0
C555 C 0.57526 0.77217 0.17211 0.0
H556 H 0.2042 0.53934 0.09248 0.0
H557 H 0.22159 0.58184 0.16341 0.0
H558 H 0.23516 0.56741 0.06832 0.0
H559 H 0.252 0.60968 0.13958 0.0
H560 H 0.28221 0.67119 0.0814 0.0
H561 H 0.25048 0.6436 0.10388 0.0
H562 H 0.28607 0.57485 0.06977 0.0
H563 H 0.31814 0.60262 0.04717 0.0
C564 C 0.21418 0.555 0.1027 0.0
C565 C 0.21046 0.55858 0.1297 0.0
C566 C 0.2321 0.57078 0.08904 0.0
C567 C 0.24609 0.5906 0.10216 0.0
C568 C 0.24146 0.59468 0.12892 0.0
C569 C 0.22403 0.57875 0.14254 0.0
C570 C 0.28355 0.65016 0.07898 0.0
C571 C 0.30282 0.63906 0.0627 0.0
C572 C 0.2653 0.63438 0.09177 0.0
C573 C 0.26564 0.60711 0.08835 0.0
C574 C 0.28516 0.59586 0.07245 0.0
C575 C 0.30375 0.6117 0.05988 0.0
H576 H 0.351 0.73557 0.94038 0.0
H577 H 0.41371 0.68013 0.95394 0.0
H578 H 0.37385 0.75224 0.90225 0.0
H579 H 0.43705 0.69744 0.9157 0.0
H580 H 0.46445 0.72598 0.83449 0.0
H581 H 0.43647 0.70359 0.86662 0.0
H582 H 0.41319 0.77855 0.89829 0.0
H583 H 0.44055 0.8006 0.86642 0.0
C584 C 0.36973 0.72693 0.93526 0.0
C585 C 0.38076 0.70681 0.95051 0.0
C586 C 0.38281 0.7365 0.91333 0.0
C587 C 0.40738 0.72638 0.90611 0.0
C588 C 0.41804 0.70552 0.92068 0.0
C589 C 0.4048 0.69577 0.94269 0.0
C590 C 0.45283 0.73756 0.84797 0.0
C591 C 0.45465 0.76501 0.84798 0.0
C592 C 0.43709 0.72478 0.86651 0.0
C593 C 0.42268 0.7393 0.88503 0.0
C594 C 0.42376 0.76675 0.88414 0.0
C595 C 0.43955 0.77942 0.86591 0.0
H596 H 0.30246 0.36521 0.94913 0.0
H597 H 0.36089 0.42632 0.95114 0.0
H598 H 0.27789 0.38958 0.91639 0.0
H599 H 0.33593 0.45093 0.91831 0.0
H600 H 0.29035 0.47836 0.84392 0.0
H601 H 0.31891 0.45114 0.87154 0.0
H602 H 0.25223 0.43035 0.91927 0.0
H603 H 0.22396 0.45713 0.89195 0.0
C604 C 0.31022 0.38376 0.94245 0.0
C605 C 0.33354 0.39392 0.95304 0.0
C606 C 0.29604 0.39778 0.92371 0.0
C607 C 0.30477 0.42235 0.91498 0.0
C608 C 0.32874 0.43201 0.92456 0.0
C609 C 0.34297 0.41795 0.94346 0.0
C610 C 0.28183 0.46779 0.8602 0.0
C611 C 0.25487 0.46992 0.8657 0.0
C612 C 0.29819 0.45235 0.87609 0.0
C613 C 0.28781 0.43848 0.89752 0.0
C614 C 0.26082 0.44044 0.90271 0.0
C615 C 0.24462 0.45597 0.88709 0.0
H616 H 0.58955 0.18142 0.88855 0.0
H617 H 0.57238 0.24118 0.83107 0.0
H618 H 0.62551 0.20735 0.90521 0.0
H619 H 0.60915 0.26713 0.84754 0.0
H620 H 0.63863 0.31752 0.91863 0.0
H621 H 0.61357 0.29105 0.88835 0.0
H622 H 0.66826 0.22715 0.89896 0.0
H623 H 0.69322 0.25368 0.93007 0.0
C624 C 0.59373 0.19996 0.87916 0.0
C625 C 0.57776 0.20953 0.85884 0.0
C626 C 0.61465 0.21468 0.8885 0.0
C627 C 0.62016 0.23935 0.87777 0.0
C628 C 0.60518 0.24828 0.85638 0.0
C629 C 0.58416 0.23345 0.84695 0.0
C630 C 0.64561 0.29796 0.91424 0.0
C631 C 0.66754 0.28743 0.9272 0.0
C632 C 0.63138 0.28288 0.89657 0.0
C633 C 0.63876 0.2569 0.89146 0.0
C634 C 0.66191 0.24702 0.90284 0.0
C635 C 0.67623 0.2622 0.92057 0.0
H636 H 0.72113 0.64915 0.95334 0.0
H637 H 0.78428 0.68253 0.99864 0.0
H638 H 0.75272 0.62602 0.92621 0.0
H639 H 0.81628 0.65891 0.97129 0.0
H640 H 0.85146 0.5767 0.93798 0.0
H641 H 0.82699 0.60906 0.9639 0.0
H642 H 0.78845 0.63624 0.89368 0.0
H643 H 0.81251 0.60418 0.86798 0.0
C644 C 0.74184 0.6518 0.95727 0.0
C645 C 0.75025 0.66768 0.97806 0.0
C646 C 0.75995 0.63862 0.94166 0.0
C647 C 0.78697 0.64071 0.94661 0.0
C648 C 0.79555 0.65695 0.96712 0.0
C649 C 0.7773 0.67059 0.98257 0.0
C650 C 0.8382 0.59 0.92806 0.0
C651 C 0.83355 0.58755 0.90103 0.0
C652 C 0.82428 0.60856 0.94286 0.0
C653 C 0.80555 0.62486 0.93081 0.0
C654 C 0.80243 0.62363 0.90354 0.0
C655 C 0.81624 0.60522 0.88884 0.0
H656 H 0.06783 0.35742 0.28864 0.0
H657 H 0.03209 0.42721 0.32057 0.0
H658 H 0.09238 0.38386 0.25762 0.0
H659 H 0.0568 0.45391 0.28886 0.0
H660 H 0.08772 0.48324 0.2046 0.0
H661 H 0.06015 0.45824 0.23535 0.0
H662 H 0.12903 0.4185 0.26437 0.0
H663 H 0.15633 0.44342 0.23431 0.0
C664 C 0.06519 0.37847 0.28904 0.0
C665 C 0.04807 0.39023 0.30718 0.0
C666 C 0.07928 0.39359 0.27122 0.0
C667 C 0.07641 0.42089 0.27075 0.0
C668 C 0.05917 0.43284 0.2887 0.0
C669 C 0.04529 0.41763 0.30698 0.0
C670 C 0.09682 0.46894 0.21738 0.0
C671 C 0.12414 0.46517 0.21697 0.0
C672 C 0.08113 0.45491 0.23514 0.0
C673 C 0.09252 0.43655 0.25229 0.0
C674 C 0.11972 0.43248 0.25136 0.0
C675 C 0.13533 0.44673 0.23411 0.0
H676 H 0.19037 0.54541 0.73873 0.0
H677 H 0.14811 0.57977 0.80355 0.0
H678 H 0.16173 0.56924 0.70787 0.0
H679 H 0.11999 0.60315 0.77319 0.0
H680 H 0.09427 0.66347 0.71708 0.0
H681 H 0.12807 0.63962 0.74027 0.0
H682 H 0.10948 0.5698 0.69652 0.0
H683 H 0.07513 0.59412 0.67256 0.0
C684 C 0.17529 0.5583 0.74633 0.0
C685 C 0.17154 0.5609 0.77351 0.0
C686 C 0.15877 0.57161 0.72874 0.0
C687 C 0.13871 0.58801 0.7382 0.0
C688 C 0.13543 0.59082 0.76534 0.0
C689 C 0.15155 0.57741 0.78273 0.0
C690 C 0.09729 0.64304 0.71219 0.0
C691 C 0.08152 0.63047 0.69343 0.0
C692 C 0.11681 0.62945 0.72543 0.0
C693 C 0.12111 0.60282 0.72047 0.0
C694 C 0.10651 0.59039 0.70064 0.0
C695 C 0.08682 0.6042 0.68711 0.0
H696 H 0.38142 0.07942 0.70478 0.0
H697 H 0.33898 0.05726 0.77455 0.0
H698 H 0.40836 0.10884 0.7301 0.0
H699 H 0.36603 0.08761 0.80028 0.0
H700 H 0.44912 0.10752 0.83501 0.0
H701 H 0.41225 0.08662 0.81343 0.0
H702 H 0.4109 0.14832 0.75556 0.0
H703 H 0.44843 0.16896 0.77678 0.0
C704 C 0.37761 0.08113 0.72559 0.0
C705 C 0.35841 0.06568 0.73781 0.0
C706 C 0.39288 0.09832 0.74007 0.0
C707 C 0.38941 0.10056 0.76723 0.0
C708 C 0.36929 0.08609 0.77938 0.0
C709 C 0.35376 0.06885 0.76471 0.0
C710 C 0.44085 0.11681 0.8178 0.0
C711 C 0.45204 0.13965 0.80728 0.0
C712 C 0.41946 0.10496 0.80563 0.0
C713 C 0.40873 0.11572 0.78271 0.0
C714 C 0.41901 0.13935 0.773 0.0
C715 C 0.44052 0.15116 0.78512 0.0
H716 H 0.85729 0.45273 0.80928 0.0
H717 H 0.92824 0.46484 0.85384 0.0
H718 H 0.8766 0.41438 0.78883 0.0
H719 H 0.94804 0.42648 0.83259 0.0
H720 H 0.97168 0.34704 0.79595 0.0
H721 H 0.94754 0.37774 0.82441 0.0
H722 H 0.91047 0.41137 0.7561 0.0
H723 H 0.93403 0.38102 0.72826 0.0
C724 C 0.87705 0.44716 0.81478 0.0
C725 C 0.89142 0.46216 0.83283 0.0
C726 C 0.88812 0.42511 0.80304 0.0
C727 C 0.91402 0.41756 0.80873 0.0
C728 C 0.92799 0.43169 0.82786 0.0
C729 C 0.91674 0.45376 0.83989 0.0
C730 C 0.95782 0.3606 0.78726 0.0
C731 C 0.95465 0.36165 0.75994 0.0
C732 C 0.94426 0.37834 0.80346 0.0
C733 C 0.92706 0.39703 0.79254 0.0
C734 C 0.92321 0.39708 0.76529 0.0
C735 C 0.93683 0.37971 0.74927 0.0
H736 H 0.66718 0.90369 0.7021 0.0
H737 H 0.59365 0.93646 0.67564 0.0
H738 H 0.64422 0.86629 0.72034 0.0
H739 H 0.57039 0.89872 0.69442 0.0
H740 H 0.53869 0.81953 0.72527 0.0
H741 H 0.56411 0.84787 0.69571 0.0
H742 H 0.61531 0.86815 0.75996 0.0
H743 H 0.58993 0.84041 0.78915 0.0
C744 C 0.64606 0.9027 0.69985 0.0
C745 C 0.63211 0.92325 0.68793 0.0
C746 C 0.63296 0.88122 0.71027 0.0
C747 C 0.60552 0.8798 0.70919 0.0
C748 C 0.5916 0.8993 0.69544 0.0
C749 C 0.60485 0.92091 0.68479 0.0
C750 C 0.55591 0.82945 0.73271 0.0
C751 C 0.5626 0.82768 0.75937 0.0
C752 C 0.57019 0.84587 0.71594 0.0
C753 C 0.59165 0.86021 0.72554 0.0
C754 C 0.59907 0.85713 0.75188 0.0
C755 C 0.58459 0.84124 0.76862 0.0
H756 H 0.96066 0.58908 0.3331 0.0
H757 H 0.97887 0.63705 0.26585 0.0
H758 H 0.93516 0.55977 0.30481 0.0
H759 H 0.95336 0.60836 0.23806 0.0
H760 H 0.92441 0.53969 0.18987 0.0
H761 H 0.9526 0.56513 0.21894 0.0
H762 H 0.89401 0.56066 0.27984 0.0
H763 H 0.86607 0.53494 0.25104 0.0
C764 C 0.95937 0.5933 0.31235 0.0
C765 C 0.97175 0.61549 0.30184 0.0
C766 C 0.94464 0.57663 0.29615 0.0
C767 C 0.94219 0.5817 0.2691 0.0
C768 C 0.95506 0.60359 0.25866 0.0
C769 C 0.96957 0.62021 0.27475 0.0
C770 C 0.91752 0.54416 0.20944 0.0
C771 C 0.89287 0.53537 0.21799 0.0
C772 C 0.93368 0.55878 0.22612 0.0
C773 C 0.92561 0.56495 0.2518 0.0
C774 C 0.90104 0.55598 0.26037 0.0
C775 C 0.88489 0.54143 0.2437 0.0
H776 H 0.36573 0.93262 0.31929 0.0
H777 H 0.43482 0.97147 0.34879 0.0
H778 H 0.3929 0.89805 0.30078 0.0
H779 H 0.46228 0.9367 0.32988 0.0
H780 H 0.48901 0.90417 0.24683 0.0
H781 H 0.46761 0.93007 0.28046 0.0
H782 H 0.42708 0.86123 0.30803 0.0
H783 H 0.44918 0.83483 0.27414 0.0
C784 C 0.38677 0.93346 0.32221 0.0
C785 C 0.39831 0.95491 0.33497 0.0
C786 C 0.40227 0.91348 0.3119 0.0
C787 C 0.42965 0.91478 0.3138 0.0
C788 C 0.44115 0.93534 0.32814 0.0
C789 C 0.42552 0.95518 0.3389 0.0
C790 C 0.47571 0.89444 0.26021 0.0
C791 C 0.47026 0.86763 0.25763 0.0
C792 C 0.46379 0.90922 0.27974 0.0
C793 C 0.44581 0.89763 0.29692 0.0
C794 C 0.44098 0.87056 0.29502 0.0
C795 C 0.45346 0.85553 0.27567 0.0
H796 H 0.68303 0.07665 0.24637 0.0
H797 H 0.64935 0.10484 0.31868 0.0
H798 H 0.65544 0.10769 0.22181 0.0
H799 H 0.62195 0.13515 0.29459 0.0
H800 H 0.58342 0.19723 0.24861 0.0
H801 H 0.6206 0.17376 0.26729 0.0
H802 H 0.60742 0.10981 0.21354 0.0
H803 H 0.5706 0.13356 0.19436 0.0
C804 C 0.67019 0.08984 0.25697 0.0
C805 C 0.66807 0.08824 0.28432 0.0
C806 C 0.65429 0.1074 0.24298 0.0
C807 C 0.63644 0.12379 0.25627 0.0
C808 C 0.63565 0.12309 0.28373 0.0
C809 C 0.65122 0.10552 0.29755 0.0
C810 C 0.58856 0.17826 0.24063 0.0
C811 C 0.57378 0.16707 0.2203 0.0
C812 C 0.6099 0.16484 0.25129 0.0
C813 C 0.61684 0.13986 0.242 0.0
C814 C 0.60276 0.12914 0.22093 0.0
C815 C 0.58147 0.14264 0.21016 0.0
H816 H 0.70439 0.92581 0.62626 0.0
H817 H 0.77298 0.93745 0.67452 0.0
H818 H 0.72942 0.89833 0.59687 0.0
H819 H 0.79835 0.90917 0.64483 0.0
H820 H 0.83785 0.89166 0.56348 0.0
H821 H 0.81494 0.91244 0.59973 0.0
H822 H 0.75167 0.85695 0.59167 0.0
H823 H 0.77442 0.83637 0.55489 0.0
C824 C 0.72486 0.92229 0.63077 0.0
C825 C 0.73676 0.93412 0.65264 0.0
C826 C 0.73918 0.90621 0.61398 0.0
C827 C 0.76592 0.90145 0.61841 0.0
C828 C 0.77779 0.91261 0.64074 0.0
C829 C 0.76328 0.92868 0.65782 0.0
C830 C 0.81913 0.88369 0.56951 0.0
C831 C 0.80781 0.86251 0.55596 0.0
C832 C 0.80611 0.89551 0.59054 0.0
C833 C 0.78139 0.88651 0.59858 0.0
C834 C 0.77054 0.86463 0.58574 0.0
C835 C 0.7836 0.85277 0.56469 0.0
H836 H 0.13722 0.8349 0.58559 0.0
H837 H 0.19387 0.7727 0.57524 0.0
H838 H 0.11825 0.81209 0.62223 0.0
H839 H 0.17536 0.75001 0.6132 0.0
H840 H 0.10161 0.70207 0.63773 0.0
H841 H 0.13562 0.72676 0.61635 0.0
H842 H 0.1172 0.79387 0.66469 0.0
H843 H 0.08189 0.76903 0.6856 0.0
C844 C 0.14601 0.8165 0.5915 0.0
C845 C 0.16651 0.80514 0.57696 0.0
C846 C 0.13534 0.80357 0.61294 0.0
C847 C 0.14497 0.77897 0.62055 0.0
C848 C 0.16711 0.76871 0.60749 0.0
C849 C 0.17777 0.78168 0.5858 0.0
C850 C 0.10495 0.72202 0.64411 0.0
C851 C 0.08849 0.73393 0.66274 0.0
C852 C 0.12487 0.73611 0.63208 0.0
C853 C 0.12898 0.7625 0.63844 0.0
C854 C 0.11416 0.77371 0.65894 0.0
C855 C 0.094 0.75952 0.67099 0.0
H856 H 0.21831 0.15855 0.59967 0.0
H857 H 0.27963 0.18225 0.5466 0.0
H858 H 0.2491 0.13064 0.62297 0.0
H859 H 0.31088 0.15385 0.57002 0.0
H860 H 0.33615 0.06597 0.59608 0.0
H861 H 0.31495 0.10375 0.57488 0.0
H862 H 0.28885 0.13141 0.65045 0.0
H863 H 0.30935 0.09385 0.6713 0.0
C864 C 0.23864 0.15833 0.5935 0.0
C865 C 0.24667 0.17274 0.57157 0.0
C866 C 0.25633 0.14232 0.60682 0.0
C867 C 0.28246 0.13999 0.59832 0.0
C868 C 0.29085 0.15521 0.57694 0.0
C869 C 0.27311 0.17169 0.5638 0.0
C870 C 0.32635 0.08048 0.60809 0.0
C871 C 0.32389 0.0767 0.63523 0.0
C872 C 0.31432 0.10213 0.59602 0.0
C873 C 0.29986 0.12031 0.611 0.0
C874 C 0.29937 0.11749 0.63833 0.0
C875 C 0.3111 0.09594 0.65025 0.0
H876 H 0.81376 0.27431 0.60484 0.0
H877 H 0.87758 0.25302 0.55347 0.0
H878 H 0.8438 0.3029 0.62968 0.0
H879 H 0.907 0.2816 0.57754 0.0
H880 H 0.95112 0.34754 0.61471 0.0
H881 H 0.91431 0.33017 0.58919 0.0
H882 H 0.88525 0.29059 0.65794 0.0
H883 H 0.92202 0.30758 0.68331 0.0
C884 C 0.83401 0.27608 0.59867 0.0
C885 C 0.8435 0.26126 0.57755 0.0
C886 C 0.85114 0.29235 0.6128 0.0
C887 C 0.87768 0.29454 0.60541 0.0
C888 C 0.88663 0.28059 0.58351 0.0
C889 C 0.86983 0.264 0.56992 0.0
C890 C 0.9366 0.33553 0.62444 0.0
C891 C 0.93965 0.3286 0.65088 0.0
C892 C 0.91557 0.32561 0.60987 0.0
C893 C 0.89696 0.30902 0.62162 0.0
C894 C 0.89913 0.30351 0.64844 0.0
C895 C 0.92035 0.31303 0.66287 0.0
H896 H 0.67671 0.08091 0.42517 0.0
H897 H 0.72625 0.10542 0.36108 0.0
H898 H 0.695 0.11605 0.45244 0.0
H899 H 0.74391 0.14037 0.3879 0.0
H900 H 0.79824 0.16511 0.45526 0.0
H901 H 0.77373 0.13744 0.4255 0.0
H902 H 0.70099 0.16564 0.45857 0.0
H903 H 0.72593 0.19368 0.48885 0.0
C904 C 0.69115 0.09398 0.4168 0.0
C905 C 0.70043 0.09002 0.39116 0.0
C906 C 0.70148 0.11419 0.43233 0.0
C907 C 0.72114 0.13075 0.42239 0.0
C908 C 0.72917 0.12763 0.39628 0.0
C909 C 0.71904 0.10752 0.38093 0.0
C910 C 0.777 0.1658 0.45594 0.0
C911 C 0.76399 0.1816 0.47432 0.0
C912 C 0.76292 0.14998 0.4388 0.0
C913 C 0.73539 0.14935 0.43965 0.0
C914 C 0.7222 0.16566 0.45758 0.0
C915 C 0.73642 0.18189 0.47465 0.0
H916 H 0.95383 0.75966 0.32124 0.0
H917 H 0.93273 0.69146 0.36648 0.0
H918 H 0.91999 0.78495 0.34404 0.0
H919 H 0.90005 0.71664 0.3898 0.0
H920 H 0.84024 0.76492 0.43019 0.0
H921 H 0.8608 0.74103 0.39398 0.0
H922 H 0.91911 0.80195 0.38708 0.0
H923 H 0.89827 0.8259 0.42211 0.0
C924 C 0.94163 0.74993 0.33559 0.0
C925 C 0.94633 0.72372 0.3424 0.0
C926 C 0.92238 0.76445 0.34886 0.0
C927 C 0.90757 0.75302 0.36922 0.0
C928 C 0.91084 0.7262 0.37426 0.0
C929 C 0.92989 0.71175 0.36099 0.0
C930 C 0.85716 0.77334 0.42057 0.0
C931 C 0.86782 0.7971 0.42937 0.0
C932 C 0.86903 0.75965 0.39987 0.0
C933 C 0.89181 0.76942 0.38763 0.0
C934 C 0.90145 0.79387 0.39561 0.0
C935 C 0.88961 0.80751 0.41609 0.0
H936 H 0.25661 0.95613 0.33868 0.0
H937 H 0.32296 0.94318 0.38973 0.0
H938 H 0.23154 0.92345 0.36348 0.0
H939 H 0.29814 0.91143 0.41447 0.0
H940 H 0.25447 0.84572 0.44995 0.0
H941 H 0.27782 0.86918 0.41544 0.0
H942 H 0.21215 0.9221 0.40707 0.0
H943 H 0.18863 0.89836 0.44089 0.0
C944 C 0.26593 0.9461 0.3549 0.0
C945 C 0.29163 0.95249 0.36242 0.0
C946 C 0.25157 0.92752 0.3692 0.0
C947 C 0.26279 0.91483 0.39106 0.0
C948 C 0.28891 0.92044 0.39762 0.0
C949 C 0.30308 0.93897 0.38353 0.0
C950 C 0.24488 0.86211 0.44046 0.0
C951 C 0.21984 0.87036 0.44848 0.0
C952 C 0.25828 0.87562 0.42072 0.0
C953 C 0.24698 0.89773 0.40863 0.0
C954 C 0.22138 0.90506 0.41571 0.0
C955 C 0.20798 0.89154 0.43536 0.0
H956 H 0.18024 0.2654 0.45893 0.0
H957 H 0.126 0.20057 0.46126 0.0
H958 H 0.15539 0.28455 0.42266 0.0
H959 H 0.10106 0.21985 0.42567 0.0
H960 H 0.06735 0.25118 0.35114 0.0
H961 H 0.10034 0.23093 0.37959 0.0
H962 H 0.11335 0.30547 0.41735 0.0
H963 H 0.08116 0.32562 0.38877 0.0
C964 C 0.16308 0.25523 0.45172 0.0
C965 C 0.15503 0.23156 0.46319 0.0
C966 C 0.14881 0.2662 0.43095 0.0
C967 C 0.1262 0.25374 0.42117 0.0
C968 C 0.11858 0.2298 0.43232 0.0
C969 C 0.13278 0.21887 0.45301 0.0
C970 C 0.07772 0.2633 0.36512 0.0
C971 C 0.0714 0.28993 0.36787 0.0
C972 C 0.09646 0.25168 0.38158 0.0
C973 C 0.10931 0.2665 0.40101 0.0
C974 C 0.10406 0.29345 0.40256 0.0
C975 C 0.08538 0.30498 0.38623 0.0
H976 H 0.66002 0.74862 0.97316 0.0
H977 H 0.60991 0.68168 0.96095 0.0
H978 H 0.63443 0.77362 0.94157 0.0
H979 H 0.58404 0.70691 0.92944 0.0
H980 H 0.56125 0.75051 0.8543 0.0
H981 H 0.58721 0.72587 0.88582 0.0
H982 H 0.59161 0.79409 0.93553 0.0
H983 H 0.56574 0.81897 0.90371 0.0
C984 C 0.64352 0.73918 0.96376 0.0
C985 C 0.63714 0.71301 0.96964 0.0
C986 C 0.62869 0.75366 0.94573 0.0
C987 C 0.60708 0.7424 0.93289 0.0
C988 C 0.60071 0.71619 0.9387 0.0
C989 C 0.61549 0.70171 0.95688 0.0
C990 C 0.56783 0.7604 0.87186 0.0
C991 C 0.56137 0.78685 0.87635 0.0
C992 C 0.58258 0.74612 0.8901 0.0
C993 C 0.59145 0.75785 0.91338 0.0
C994 C 0.58533 0.78443 0.91774 0.0
C995 C 0.57042 0.79872 0.8995 0.0
H996 H 0.23739 0.68375 0.97907 0.0
H997 H 0.30745 0.65822 0.93904 0.0
H998 H 0.21087 0.65562 0.95016 0.0
H999 H 0.28155 0.63039 0.91077 0.0
H1000 H 0.23174 0.59371 0.85154 0.0
H1001 H 0.24966 0.63032 0.876 0.0
H1002 H 0.20507 0.60708 0.94401 0.0
H1003 H 0.18639 0.57056 0.91908 0.0
C1004 C 0.24699 0.67266 0.96373 0.0
C1005 C 0.27443 0.67316 0.96123 0.0
C1006 C 0.23191 0.65636 0.94741 0.0
C1007 C 0.24407 0.64073 0.92813 0.0
C1008 C 0.2714 0.64237 0.92506 0.0
C1009 C 0.28632 0.65826 0.9414 0.0
C1010 C 0.22549 0.5965 0.87163 0.0
C1011 C 0.20801 0.57891 0.88351 0.0
C1012 C 0.23579 0.61753 0.88567 0.0
C1013 C 0.22916 0.62142 0.91211 0.0
C1014 C 0.21049 0.60473 0.92363 0.0
C1015 C 0.19993 0.5837 0.90942 0.0
H1016 H 0.36277 0.25187 0.98517 0.0
H1017 H 0.41931 0.31224 0.96761 0.0
H1018 H 0.39068 0.21963 0.96264 0.0
H1019 H 0.44688 0.28035 0.94566 0.0
H1020 H 0.47163 0.22708 0.87984 0.0
H1021 H 0.44314 0.25562 0.90467 0.0
H1022 H 0.43618 0.19689 0.965 0.0
H1023 H 0.46504 0.16758 0.93962 0.0
C1024 C 0.38106 0.25829 0.97654 0.0
C1025 C 0.3886 0.28476 0.97802 0.0
C1026 C 0.39715 0.23978 0.96386 0.0
C1027 C 0.42095 0.24743 0.95221 0.0
C1028 C 0.42852 0.27381 0.95407 0.0
C1029 C 0.41265 0.29214 0.96675 0.0
C1030 C 0.46418 0.22001 0.89839 0.0
C1031 C 0.47088 0.19494 0.90773 0.0
C1032 C 0.44784 0.23656 0.91273 0.0
C1033 C 0.43751 0.2287 0.93695 0.0
C1034 C 0.44376 0.20349 0.94634 0.0
C1035 C 0.46043 0.18679 0.93192 0.0
H1036 H 0.67908 0.42969 0.9493 0.0
H1037 H 0.73128 0.36852 0.92243 0.0
H1038 H 0.7033 0.46158 0.92244 0.0
H1039 H 0.7551 0.4001 0.89618 0.0
H1040 H 0.81338 0.46892 0.89822 0.0
H1041 H 0.7821 0.43979 0.91885 0.0
H1042 H 0.72052 0.4695 0.86904 0.0
H1043 H 0.75225 0.49899 0.84772 0.0
C1044 C 0.69528 0.42297 0.93734 0.0
C1045 C 0.70357 0.39669 0.93839 0.0
C1046 C 0.70902 0.44115 0.92195 0.0
C1047 C 0.73113 0.4332 0.90754 0.0
C1048 C 0.73824 0.4067 0.90732 0.0
C1049 C 0.72462 0.38867 0.92248 0.0
C1050 C 0.7932 0.46946 0.89159 0.0
C1051 C 0.78534 0.48622 0.87121 0.0
C1052 C 0.77532 0.45271 0.90342 0.0
C1053 C 0.74902 0.45241 0.89543 0.0
C1054 C 0.74076 0.46951 0.87551 0.0
C1055 C 0.75889 0.48618 0.86327 0.0
H1056 H 0.59624 0.32092 0.02734 0.0
H1057 H 0.66571 0.27849 0.05091 0.0
H1058 H 0.56932 0.29166 0.05427 0.0
H1059 H 0.63887 0.2497 0.07808 0.0
H1060 H 0.58283 0.23137 0.14882 0.0
H1061 H 0.61007 0.25755 0.11959 0.0
H1062 H 0.55773 0.24057 0.0554 0.0
H1063 H 0.53056 0.2137 0.08473 0.0
C1064 C 0.60577 0.30551 0.0384 0.0
C1065 C 0.63313 0.30211 0.03708 0.0
C1066 C 0.59034 0.28862 0.05358 0.0
C1067 C 0.60201 0.26835 0.06814 0.0
C1068 C 0.62936 0.26517 0.06706 0.0
C1069 C 0.6447 0.28168 0.05152 0.0
C1070 C 0.5773 0.23291 0.12838 0.0
C1071 C 0.55461 0.22042 0.11902 0.0
C1072 C 0.59291 0.24788 0.11167 0.0
C1073 C 0.58594 0.2512 0.08528 0.0
C1074 C 0.56344 0.23844 0.07573 0.0
C1075 C 0.54806 0.22291 0.0924 0.0
H1076 H 0.74526 0.52577 0.1751 0.0
H1077 H 0.81449 0.55996 0.14059 0.0
H1078 H 0.71766 0.55539 0.14883 0.0
H1079 H 0.78725 0.58915 0.11469 0.0
H1080 H 0.7352 0.65533 0.09122 0.0
H1081 H 0.75746 0.62675 0.12192 0.0
H1082 H 0.70675 0.56298 0.09971 0.0
H1083 H 0.68396 0.59195 0.06863 0.0
C1084 C 0.75458 0.53981 0.16225 0.0
C1085 C 0.78208 0.54058 0.16003 0.0
C1086 C 0.73878 0.55655 0.14702 0.0
C1087 C 0.75026 0.57465 0.12969 0.0
C1088 C 0.77775 0.57568 0.12803 0.0
C1089 C 0.79339 0.55885 0.14287 0.0
C1090 C 0.72854 0.63527 0.09283 0.0
C1091 C 0.70794 0.62589 0.07708 0.0
C1092 C 0.74141 0.61886 0.1105 0.0
C1093 C 0.73413 0.5925 0.11306 0.0
C1094 C 0.71277 0.58324 0.09824 0.0
C1095 C 0.69981 0.59978 0.08035 0.0
H1096 H 0.33301 0.77021 0.07879 0.0
H1097 H 0.40192 0.73466 0.04474 0.0
H1098 H 0.36127 0.79779 0.10651 0.0
H1099 H 0.42986 0.76278 0.07162 0.0
H1100 H 0.46366 0.84403 0.10426 0.0
H1101 H 0.43231 0.82046 0.07639 0.0
H1102 H 0.40269 0.77969 0.14405 0.0
H1103 H 0.43458 0.80245 0.17184 0.0
C1104 C 0.35411 0.76846 0.07705 0.0
C1105 C 0.36521 0.75015 0.05968 0.0
C1106 C 0.37023 0.78419 0.09289 0.0
C1107 C 0.3977 0.78245 0.09105 0.0
C1108 C 0.40875 0.76459 0.0733 0.0
C1109 C 0.39272 0.74842 0.05804 0.0
C1110 C 0.45026 0.83028 0.11323 0.0
C1111 C 0.45165 0.82508 0.14025 0.0
C1112 C 0.43239 0.81678 0.09728 0.0
C1113 C 0.41505 0.79838 0.10814 0.0
C1114 C 0.41572 0.79392 0.13526 0.0
C1115 C 0.43403 0.80688 0.1511 0.0
H1116 H 0.32747 0.40935 0.06895 0.0
H1117 H 0.2716 0.34589 0.07119 0.0
H1118 H 0.30373 0.43166 0.10353 0.0
H1119 H 0.24776 0.36842 0.10631 0.0
H1120 H 0.26899 0.45846 0.17951 0.0
H1121 H 0.29326 0.42907 0.15028 0.0
H1122 H 0.22092 0.40794 0.11175 0.0
H1123 H 0.19681 0.4368 0.141 0.0
C1124 C 0.31008 0.40008 0.0768 0.0
C1125 C 0.30139 0.37581 0.06709 0.0
C1126 C 0.29663 0.41281 0.09695 0.0
C1127 C 0.274 0.40175 0.10797 0.0
C1128 C 0.26512 0.37752 0.09821 0.0
C1129 C 0.27873 0.36463 0.07805 0.0
C1130 C 0.25825 0.44705 0.16522 0.0
C1131 C 0.23102 0.45017 0.16244 0.0
C1132 C 0.27215 0.4304 0.14829 0.0
C1133 C 0.25906 0.41639 0.12841 0.0
C1134 C 0.23164 0.41828 0.12685 0.0
C1135 C 0.21783 0.43499 0.14358 0.0
H1136 H 0.91217 0.58283 0.82487 0.0
H1137 H 0.85676 0.57729 0.76103 0.0
H1138 H 0.93891 0.6126 0.79925 0.0
H1139 H 0.88367 0.60752 0.73533 0.0
H1140 H 0.95909 0.63223 0.68927 0.0
H1141 H 0.92731 0.60674 0.714 0.0
H1142 H 0.93876 0.65716 0.78091 0.0
H1143 H 0.97089 0.68259 0.75624 0.0
C1144 C 0.9056 0.58803 0.80537 0.0
C1145 C 0.88235 0.57753 0.79496 0.0
C1146 C 0.92086 0.60534 0.79077 0.0
C1147 C 0.91336 0.61255 0.76531 0.0
C1148 C 0.89003 0.60221 0.75486 0.0
C1149 C 0.8746 0.58495 0.76959 0.0
C1150 C 0.95468 0.63809 0.70918 0.0
C1151 C 0.96775 0.65932 0.72086 0.0
C1152 C 0.9363 0.62355 0.72328 0.0
C1153 C 0.93064 0.6298 0.74947 0.0
C1154 C 0.94297 0.65164 0.76086 0.0
C1155 C 0.96127 0.66629 0.74669 0.0
H1156 H 0.83099 0.42235 0.26081 0.0
H1157 H 0.88981 0.4221 0.19987 0.0
H1158 H 0.8544 0.38673 0.28297 0.0
H1159 H 0.91329 0.38755 0.22209 0.0
H1160 H 0.95175 0.32109 0.2607 0.0
H1161 H 0.91655 0.34326 0.23658 0.0
H1162 H 0.89438 0.38462 0.30708 0.0
H1163 H 0.92856 0.36205 0.331 0.0
C1164 C 0.84872 0.41459 0.25204 0.0
C1165 C 0.8587 0.42539 0.22881 0.0
C1166 C 0.86218 0.39422 0.26472 0.0
C1167 C 0.88585 0.38426 0.25439 0.0
C1168 C 0.89499 0.3943 0.2305 0.0
C1169 C 0.88161 0.41451 0.2179 0.0
C1170 C 0.9388 0.33433 0.27111 0.0
C1171 C 0.94323 0.34021 0.29758 0.0
C1172 C 0.91878 0.34722 0.2573 0.0
C1173 C 0.90287 0.36613 0.26977 0.0
C1174 C 0.90602 0.37016 0.29677 0.0
C1175 C 0.9259 0.35737 0.31047 0.0
H1176 H 0.67177 0.963 0.28436 0.0
H1177 H 0.60065 0.99148 0.3205 0.0
H1178 H 0.64577 0.9362 0.25436 0.0
H1179 H 0.57464 0.96504 0.28999 0.0
H1180 H 0.54098 0.93801 0.20865 0.0
H1181 H 0.56809 0.96498 0.23784 0.0
H1182 H 0.61297 0.89665 0.25955 0.0
H1183 H 0.5856 0.86967 0.231 0.0
C1184 C 0.65059 0.9634 0.28601 0.0
C1185 C 0.63827 0.97924 0.30491 0.0
C1186 C 0.63574 0.9481 0.2688 0.0
C1187 C 0.60821 0.94875 0.2697 0.0
C1188 C 0.59584 0.9644 0.28871 0.0
C1189 C 0.61073 0.97929 0.30634 0.0
C1190 C 0.55693 0.92889 0.21932 0.0
C1191 C 0.56129 0.90178 0.21745 0.0
C1192 C 0.57222 0.94423 0.23622 0.0
C1193 C 0.59251 0.93284 0.25106 0.0
C1194 C 0.59751 0.90594 0.24833 0.0
C1195 C 0.58188 0.89054 0.23196 0.0
H1196 H 0.14472 0.5844 0.19883 0.0
H1197 H 0.18596 0.56607 0.27045 0.0
H1198 H 0.12075 0.6187 0.22087 0.0
H1199 H 0.16229 0.60155 0.29269 0.0
H1200 H 0.08157 0.68389 0.26138 0.0
H1201 H 0.11814 0.65982 0.24173 0.0
H1202 H 0.11836 0.60655 0.30749 0.0
H1203 H 0.08291 0.63097 0.32737 0.0
C1204 C 0.14906 0.58804 0.21929 0.0
C1205 C 0.16691 0.5721 0.23303 0.0
C1206 C 0.13546 0.60807 0.2319 0.0
C1207 C 0.13932 0.61291 0.25869 0.0
C1208 C 0.15849 0.5981 0.27212 0.0
C1209 C 0.1722 0.57788 0.25939 0.0
C1210 C 0.08983 0.66737 0.27183 0.0
C1211 C 0.07896 0.65913 0.29571 0.0
C1212 C 0.11072 0.65346 0.26054 0.0
C1213 C 0.12106 0.63093 0.27281 0.0
C1214 C 0.11122 0.62385 0.29749 0.0
C1215 C 0.09055 0.63777 0.30879 0.0
H1216 H 0.44927 0.11504 0.17823 0.0
H1217 H 0.45475 0.16855 0.24347 0.0
H1218 H 0.4193 0.0875 0.20355 0.0
H1219 H 0.42456 0.14153 0.26837 0.0
H1220 H 0.39903 0.07178 0.31716 0.0
H1221 H 0.4256 0.10012 0.28998 0.0
H1222 H 0.37562 0.08385 0.22368 0.0
H1223 H 0.34899 0.05473 0.25108 0.0
C1224 C 0.44393 0.12108 0.19785 0.0
C1225 C 0.4547 0.14394 0.20884 0.0
C1226 C 0.4266 0.10534 0.21233 0.0
C1227 C 0.41961 0.11208 0.23817 0.0
C1228 C 0.42984 0.13535 0.24878 0.0
C1229 C 0.44713 0.15098 0.23439 0.0
C1230 C 0.39349 0.07424 0.29683 0.0
C1231 C 0.37172 0.06091 0.28641 0.0
C1232 C 0.40873 0.09072 0.2812 0.0
C1233 C 0.40277 0.09452 0.25458 0.0
C1234 C 0.38094 0.08128 0.24405 0.0
C1235 C 0.36554 0.06472 0.25981 0.0
H1236 H 0.05693 0.35914 0.76257 0.0
H1237 H 0.06667 0.4145 0.69932 0.0
H1238 H 0.08702 0.38434 0.78954 0.0
H1239 H 0.09707 0.43974 0.72653 0.0
H1240 H 0.17053 0.46136 0.77417 0.0
H1241 H 0.14195 0.43432 0.74733 0.0
H1242 H 0.08683 0.42895 0.81125 0.0
H1243 H 0.11545 0.45628 0.83832 0.0
C1244 C 0.06565 0.37658 0.75428 0.0
C1245 C 0.05939 0.38478 0.72869 0.0
C1246 C 0.08275 0.39112 0.76989 0.0
C1247 C 0.09429 0.41405 0.76023 0.0
C1248 C 0.08855 0.42202 0.73445 0.0
C1249 C 0.07113 0.40761 0.71888 0.0
C1250 C 0.15245 0.45424 0.78271 0.0
C1251 C 0.1453 0.461 0.80849 0.0
C1252 C 0.13598 0.43893 0.76717 0.0
C1253 C 0.11209 0.4297 0.77709 0.0
C1254 C 0.10522 0.43573 0.80311 0.0
C1255 C 0.12159 0.45136 0.81862 0.0
H1256 H 0.56875 0.12817 0.79245 0.0
H1257 H 0.5677 0.07128 0.8551 0.0
H1258 H 0.59906 0.10119 0.76811 0.0
H1259 H 0.59843 0.04363 0.82995 0.0
H1260 H 0.67454 0.01725 0.7798 0.0
H1261 H 0.64621 0.04261 0.80968 0.0
H1262 H 0.59347 0.0589 0.74558 0.0
H1263 H 0.62127 0.03435 0.71617 0.0
C1264 C 0.57488 0.10979 0.80111 0.0
C1265 C 0.56533 0.10181 0.82571 0.0
C1266 C 0.59236 0.09426 0.78702 0.0
C1267 C 0.60095 0.07007 0.79687 0.0
C1268 C 0.59219 0.06221 0.82184 0.0
C1269 C 0.57447 0.07794 0.83614 0.0
C1270 C 0.65691 0.02632 0.77218 0.0
C1271 C 0.65044 0.02392 0.74545 0.0
C1272 C 0.6406 0.04065 0.78932 0.0
C1273 C 0.61769 0.05299 0.77996 0.0
C1274 C 0.61115 0.05005 0.75341 0.0
C1275 C 0.62719 0.03584 0.73649 0.0
H1276 H 0.46418 0.8464 0.75412 0.0
H1277 H 0.46103 0.90098 0.81867 0.0
H1278 H 0.43742 0.87583 0.72775 0.0
H1279 H 0.43403 0.93055 0.79207 0.0
H1280 H 0.36176 0.96074 0.74623 0.0
H1281 H 0.38911 0.93168 0.77241 0.0
H1282 H 0.44017 0.91958 0.70608 0.0
H1283 H 0.41272 0.94889 0.67967 0.0
C1284 C 0.45772 0.86467 0.76278 0.0
C1285 C 0.46472 0.87122 0.78866 0.0
C1286 C 0.44252 0.88165 0.7475 0.0
C1287 C 0.4336 0.90559 0.75771 0.0
C1288 C 0.44043 0.91216 0.78365 0.0
C1289 C 0.45596 0.89525 0.79889 0.0
C1290 C 0.37872 0.95182 0.73707 0.0
C1291 C 0.38492 0.95714 0.7107 0.0
C1292 C 0.39456 0.93531 0.75223 0.0
C1293 C 0.41692 0.92338 0.74145 0.0
C1294 C 0.42298 0.92834 0.71497 0.0
C1295 C 0.40727 0.94516 0.69982 0.0
loop_
_geom_bond_atom_site_label_1
_geom_bond_atom_site_label_2
_geom_bond_distance
_geom_bond_site_symmetry_2
_ccdc_geom_bond_type
C0 O2 1.247 . S
C0 O4 1.258 . S
C1 O8 1.247 . S
C1 O9 1.258 . S
O2 C0 1.247 . S
O2 Zn3 2.028 . S
Zn3 O2 2.028 . S
Zn3 O7 2.035 . S
Zn3 O9 2.035 1_545 S
Zn3 O10 2.028 1_545 S
O4 C0 1.258 . S
O4 Zn5 2.035 . S
Zn5 O4 2.035 . S
Zn5 O6 2.028 . S
Zn5 O8 2.028 1_545 S
Zn5 O11 2.035 1_545 S
O6 Zn5 2.028 . S
O6 C12 1.247 . S
O7 Zn3 2.035 . S
O7 C12 1.258 . S
O8 C1 1.247 . S
O8 Zn5 2.028 1_565 S
O9 C1 1.258 . S
O9 Zn3 2.035 1_565 S
O10 Zn3 2.028 1_565 S
O10 C13 1.247 . S
O11 Zn5 2.035 1_565 S
O11 C13 1.258 . S
C12 O6 1.247 . S
C12 O7 1.258 . S
C13 O10 1.247 . S
C13 O11 1.258 . S
C14 O16 1.247 . S
C14 O18 1.258 . S
C15 O22 1.247 . S
C15 O23 1.258 . S
O16 C14 1.247 . S
O16 Zn17 2.028 . S
Zn17 O16 2.028 . S
Zn17 O21 2.035 . S
Zn17 O23 2.035 1_455 S
Zn17 O24 2.028 1_455 S
O18 C14 1.258 . S
O18 Zn19 2.035 . S
Zn19 O18 2.035 . S
Zn19 O20 2.028 . S
Zn19 O22 2.028 1_455 S
Zn19 O25 2.035 1_455 S
O20 Zn19 2.028 . S
O20 C26 1.247 . S
O21 Zn17 2.035 . S
O21 C26 1.258 . S
O22 C15 1.247 . S
O22 Zn19 2.028 1_655 S
O23 C15 1.258 . S
O23 Zn17 2.035 1_655 S
O24 Zn17 2.028 1_655 S
O24 C27 1.247 . S
O25 Zn19 2.035 1_655 S
O25 C27 1.258 . S
C26 O20 1.247 . S
C26 O21 1.258 . S
C27 O24 1.247 . S
C27 O25 1.258 . S
C28 O30 1.247 . S
C28 O32 1.258 . S
C29 O36 1.247 . S
C29 O37 1.258 . S
O30 C28 1.247 . S
O30 Zn31 2.028 1_565 S
Zn31 O30 2.028 1_545 S
Zn31 O35 2.035 1_545 S
Zn31 O37 2.035 . S
Zn31 O38 2.028 . S
O32 C28 1.258 . S
O32 Zn33 2.035 1_565 S
Zn33 O32 2.035 1_545 S
Zn33 O34 2.028 1_545 S
Zn33 O36 2.028 . S
Zn33 O39 2.035 . S
O34 Zn33 2.028 1_565 S
O34 C40 1.247 . S
O35 Zn31 2.035 1_565 S
O35 C40 1.258 . S
O36 C29 1.247 . S
O36 Zn33 2.028 . S
O37 C29 1.258 . S
O37 Zn31 2.035 . S
O38 Zn31 2.028 . S
O38 C41 1.247 . S
O39 Zn33 2.035 . S
O39 C41 1.258 . S
C40 O34 1.247 . S
C40 O35 1.258 . S
C41 O38 1.247 . S
C41 O39 1.258 . S
C42 O44 1.247 . S
C42 O46 1.258 . S
C43 O50 1.247 . S
C43 O51 1.258 . S
O44 C42 1.247 . S
O44 Zn45 2.028 . S
Zn45 O44 2.028 . S
Zn45 O49 2.035 . S
Zn45 O51 2.035 1_455 S
Zn45 O52 2.028 1_455 S
O46 C42 1.258 . S
O46 Zn47 2.035 . S
Zn47 O46 2.035 . S
Zn47 O48 2.028 . S
Zn47 O50 2.028 1_455 S
Zn47 O53 2.035 1_455 S
O48 Zn47 2.028 . S
O48 C54 1.247 . S
O49 Zn45 2.035 . S
O49 C54 1.258 . S
O50 C43 1.247 . S
O50 Zn47 2.028 1_655 S
O51 C43 1.258 . S
O51 Zn45 2.035 1_655 S
O52 Zn45 2.028 1_655 S
O52 C55 1.247 . S
O53 Zn47 2.035 1_655 S
O53 C55 1.258 . S
C54 O48 1.247 . S
C54 O49 1.258 . S
C55 O52 1.247 . S
C55 O53 1.258 . S
C56 O58 1.247 . S
C56 O60 1.258 . S
C57 O64 1.247 . S
C57 O65 1.258 . S
O58 C56 1.247 . S
O58 Zn59 2.028 . S
Zn59 O58 2.028 . S
Zn59 O63 2.035 . S
Zn59 O65 2.035 1_545 S
Zn59 O66 2.028 1_545 S
O60 C56 1.258 . S
O60 Zn61 2.035 . S
Zn61 O60 2.035 . S
Zn61 O62 2.028 . S
Zn61 O64 2.028 1_545 S
Zn61 O67 2.035 1_545 S
O62 Zn61 2.028 . S
O62 C68 1.247 . S
O63 Zn59 2.035 . S
O63 C68 1.258 . S
O64 C57 1.247 . S
O64 Zn61 2.028 1_565 S
O65 C57 1.258 . S
O65 Zn59 2.035 1_565 S
O66 Zn59 2.028 1_565 S
O66 C69 1.247 . S
O67 Zn61 2.035 1_565 S
O67 C69 1.258 . S
C68 O62 1.247 . S
C68 O63 1.258 . S
C69 O66 1.247 . S
C69 O67 1.258 . S
C70 O72 1.247 . S
C70 O74 1.258 . S
C71 O78 1.247 . S
C71 O79 1.258 . S
O72 C70 1.247 . S
O72 Zn73 2.028 . S
Zn73 O72 2.028 . S
Zn73 O77 2.035 . S
Zn73 O79 2.035 1_455 S
Zn73 O80 2.028 1_455 S
O74 C70 1.258 . S
O74 Zn75 2.035 . S
Zn75 O74 2.035 . S
Zn75 O76 2.028 . S
Zn75 O78 2.028 1_455 S
Zn75 O81 2.035 1_455 S
O76 Zn75 2.028 . S
O76 C82 1.247 . S
O77 Zn73 2.035 . S
O77 C82 1.258 . S
O78 C71 1.247 . S
O78 Zn75 2.028 1_655 S
O79 C71 1.258 . S
O79 Zn73 2.035 1_655 S
O80 Zn73 2.028 1_655 S
O80 C83 1.247 . S
O81 Zn75 2.035 1_655 S
O81 C83 1.258 . S
C82 O76 1.247 . S
C82 O77 1.258 . S
C83 O80 1.247 . S
C83 O81 1.258 . S
C84 O86 1.247 . S
C84 O88 1.258 . S
C85 O92 1.247 . S
C85 O93 1.258 . S
O86 C84 1.247 . S
O86 Zn87 2.028 . S
Zn87 O86 2.028 . S
Zn87 O91 2.035 . S
Zn87 O93 2.035 1_545 S
Zn87 O94 2.028 1_545 S
O88 C84 1.258 . S
O88 Zn89 2.035 . S
Zn89 O88 2.035 . S
Zn89 O90 2.028 . S
Zn89 O92 2.028 1_545 S
Zn89 O95 2.035 1_545 S
O90 Zn89 2.028 . S
O90 C96 1.247 . S
O91 Zn87 2.035 . S
O91 C96 1.258 . S
O92 C85 1.247 . S
O92 Zn89 2.028 1_565 S
O93 C85 1.258 . S
O93 Zn87 2.035 1_565 S
O94 Zn87 2.028 1_565 S
O94 C97 1.247 . S
O95 Zn89 2.035 1_565 S
O95 C97 1.258 . S
C96 O90 1.247 . S
C96 O91 1.258 . S
C97 O94 1.247 . S
C97 O95 1.258 . S
C98 O100 1.247 . S
C98 O102 1.258 . S
C99 O106 1.247 . S
C99 O107 1.258 . S
O100 C98 1.247 . S
O100 Zn101 2.028 1_655 S
Zn101 O100 2.028 1_455 S
Zn101 O105 2.035 1_455 S
Zn101 O107 2.035 . S
Zn101 O108 2.028 . S
O102 C98 1.258 . S
O102 Zn103 2.035 1_655 S
Zn103 O102 2.035 1_455 S
Zn103 O104 2.028 1_455 S
Zn103 O106 2.028 . S
Zn103 O109 2.035 . S
O104 Zn103 2.028 1_655 S
O104 C110 1.247 . S
O105 Zn101 2.035 1_655 S
O105 C110 1.258 . S
O106 C99 1.247 . S
O106 Zn103 2.028 . S
O107 C99 1.258 . S
O107 Zn101 2.035 . S
O108 Zn101 2.028 . S
O108 C111 1.247 . S
O109 Zn103 2.035 . S
O109 C111 1.258 . S
C110 O104 1.247 . S
C110 O105 1.258 . S
C111 O108 1.247 . S
C111 O109 1.258 . S
C112 O114 1.247 . S
C112 O116 1.258 . S
C113 O120 1.247 . S
C113 O121 1.258 . S
O114 C112 1.247 . S
O114 Zn115 2.028 . S
Zn115 O114 2.028 . S
Zn115 O119 2.035 . S
Zn115 O121 2.035 1_554 S
Zn115 O122 2.028 1_554 S
O116 C112 1.258 . S
O116 Zn117 2.035 . S
Zn117 O116 2.035 . S
Zn117 O118 2.028 . S
Zn117 O120 2.028 1_554 S
Zn117 O123 2.035 1_554 S
O118 Zn117 2.028 . S
O118 C124 1.247 . S
O119 Zn115 2.035 . S
O119 C124 1.258 . S
O120 C113 1.247 . S
O120 Zn117 2.028 1_556 S
O121 C113 1.258 . S
O121 Zn115 2.035 1_556 S
O122 Zn115 2.028 1_556 S
O122 C125 1.247 . S
O123 Zn117 2.035 1_556 S
O123 C125 1.258 . S
C124 O118 1.247 . S
C124 O119 1.258 . S
C125 O122 1.247 . S
C125 O123 1.258 . S
C126 O128 1.247 . S
C126 O130 1.258 . S
C127 O134 1.247 . S
C127 O135 1.258 . S
O128 C126 1.247 . S
O128 Zn129 2.028 . S
Zn129 O128 2.028 . S
Zn129 O133 2.035 . S
Zn129 O135 2.035 1_554 S
Zn129 O136 2.028 1_554 S
O130 C126 1.258 . S
O130 Zn131 2.035 . S
Zn131 O130 2.035 . S
Zn131 O132 2.028 . S
Zn131 O134 2.028 1_554 S
Zn131 O137 2.035 1_554 S
O132 Zn131 2.028 . S
O132 C138 1.247 . S
O133 Zn129 2.035 . S
O133 C138 1.258 . S
O134 C127 1.247 . S
O134 Zn131 2.028 1_556 S
O135 C127 1.258 . S
O135 Zn129 2.035 1_556 S
O136 Zn129 2.028 1_556 S
O136 C139 1.247 . S
O137 Zn131 2.035 1_556 S
O137 C139 1.258 . S
C138 O132 1.247 . S
C138 O133 1.258 . S
C139 O136 1.247 . S
C139 O137 1.258 . S
C140 O142 1.247 . S
C140 O144 1.258 . S
C141 O148 1.247 . S
C141 O149 1.258 . S
O142 C140 1.247 . S
O142 Zn143 2.028 . S
Zn143 O142 2.028 . S
Zn143 O147 2.035 . S
Zn143 O149 2.035 1_554 S
Zn143 O150 2.028 1_554 S
O144 C140 1.258 . S
O144 Zn145 2.035 . S
Zn145 O144 2.035 . S
Zn145 O146 2.028 . S
Zn145 O148 2.028 1_554 S
Zn145 O151 2.035 1_554 S
O146 Zn145 2.028 . S
O146 C152 1.247 . S
O147 Zn143 2.035 . S
O147 C152 1.258 . S
O148 C141 1.247 . S
O148 Zn145 2.028 1_556 S
O149 C141 1.258 . S
O149 Zn143 2.035 1_556 S
O150 Zn143 2.028 1_556 S
O150 C153 1.247 . S
O151 Zn145 2.035 1_556 S
O151 C153 1.258 . S
C152 O146 1.247 . S
C152 O147 1.258 . S
C153 O150 1.247 . S
C153 O151 1.258 . S
C154 O156 1.247 . S
C154 O158 1.258 . S
C155 O162 1.247 . S
C155 O163 1.258 . S
O156 C154 1.247 . S
O156 Zn157 2.028 1_556 S
Zn157 O156 2.028 1_554 S
Zn157 O161 2.035 1_554 S
Zn157 O163 2.035 . S
Zn157 O164 2.028 . S
O158 C154 1.258 . S
O158 Zn159 2.035 1_556 S
Zn159 O158 2.035 1_554 S
Zn159 O160 2.028 1_554 S
Zn159 O162 2.028 . S
Zn159 O165 2.035 . S
O160 Zn159 2.028 1_556 S
O160 C166 1.247 . S
O161 Zn157 2.035 1_556 S
O161 C166 1.258 . S
O162 C155 1.247 . S
O162 Zn159 2.028 . S
O163 C155 1.258 . S
O163 Zn157 2.035 . S
O164 Zn157 2.028 . S
O164 C167 1.247 . S
O165 Zn159 2.035 . S
O165 C167 1.258 . S
C166 O160 1.247 . S
C166 O161 1.258 . S
C167 O164 1.247 . S
C167 O165 1.258 . S
C168 O170 1.247 . S
C168 O172 1.258 . S
C169 O176 1.247 . S
C169 O177 1.258 . S
O170 C168 1.247 . S
O170 Zn171 2.028 . S
Zn171 O170 2.028 . S
Zn171 O175 2.035 . S
Zn171 O177 2.035 . S
Zn171 O178 2.028 . S
O172 C168 1.258 . S
O172 Zn173 2.035 . S
Zn173 O172 2.035 . S
Zn173 O174 2.028 . S
Zn173 O176 2.028 . S
Zn173 O179 2.035 . S
O174 Zn173 2.028 . S
O174 C180 1.247 . S
O175 Zn171 2.035 . S
O175 C180 1.258 . S
O176 C169 1.247 . S
O176 Zn173 2.028 . S
O177 C169 1.258 . S
O177 Zn171 2.035 . S
O178 Zn171 2.028 . S
O178 C181 1.247 . S
O179 Zn173 2.035 . S
O179 C181 1.258 . S
C180 O174 1.247 . S
C180 O175 1.258 . S
C181 O178 1.247 . S
C181 O179 1.258 . S
C182 O184 1.247 . S
C182 O186 1.258 . S
C183 O190 1.247 . S
C183 O191 1.258 . S
O184 C182 1.247 . S
O184 Zn185 2.028 . S
Zn185 O184 2.028 . S
Zn185 O189 2.035 . S
Zn185 O191 2.035 . S
Zn185 O192 2.028 . S
O186 C182 1.258 . S
O186 Zn187 2.035 . S
Zn187 O186 2.035 . S
Zn187 O188 2.028 . S
Zn187 O190 2.028 . S
Zn187 O193 2.035 . S
O188 Zn187 2.028 . S
O188 C194 1.247 . S
O189 Zn185 2.035 . S
O189 C194 1.258 . S
O190 C183 1.247 . S
O190 Zn187 2.028 . S
O191 C183 1.258 . S
O191 Zn185 2.035 . S
O192 Zn185 2.028 . S
O192 C195 1.247 . S
O193 Zn187 2.035 . S
O193 C195 1.258 . S
C194 O188 1.247 . S
C194 O189 1.258 . S
C195 O192 1.247 . S
C195 O193 1.258 . S
C196 O198 1.247 . S
C196 O200 1.258 . S
C197 O204 1.247 . S
C197 O205 1.258 . S
O198 C196 1.247 . S
O198 Zn199 2.028 . S
Zn199 O198 2.028 . S
Zn199 O203 2.035 . S
Zn199 O205 2.035 . S
Zn199 O206 2.028 . S
O200 C196 1.258 . S
O200 Zn201 2.035 . S
Zn201 O200 2.035 . S
Zn201 O202 2.028 . S
Zn201 O204 2.028 . S
Zn201 O207 2.035 . S
O202 Zn201 2.028 . S
O202 C208 1.247 . S
O203 Zn199 2.035 . S
O203 C208 1.258 . S
O204 C197 1.247 . S
O204 Zn201 2.028 . S
O205 C197 1.258 . S
O205 Zn199 2.035 . S
O206 Zn199 2.028 . S
O206 C209 1.247 . S
O207 Zn201 2.035 . S
O207 C209 1.258 . S
C208 O202 1.247 . S
C208 O203 1.258 . S
C209 O206 1.247 . S
C209 O207 1.258 . S
C210 O212 1.247 . S
C210 O214 1.258 . S
C211 O218 1.247 . S
C211 O219 1.258 . S
O212 C210 1.247 . S
O212 Zn213 2.028 . S
Zn213 O212 2.028 . S
Zn213 O217 2.035 . S
Zn213 O219 2.035 . S
Zn213 O220 2.028 . S
O214 C210 1.258 . S
O214 Zn215 2.035 . S
Zn215 O214 2.035 . S
Zn215 O216 2.028 . S
Zn215 O218 2.028 . S
Zn215 O221 2.035 . S
O216 Zn215 2.028 . S
O216 C222 1.247 . S
O217 Zn213 2.035 . S
O217 C222 1.258 . S
O218 C211 1.247 . S
O218 Zn215 2.028 . S
O219 C211 1.258 . S
O219 Zn213 2.035 . S
O220 Zn213 2.028 . S
O220 C223 1.247 . S
O221 Zn215 2.035 . S
O221 C223 1.258 . S
C222 O216 1.247 . S
C222 O217 1.258 . S
C223 O220 1.247 . S
C223 O221 1.258 . S
C224 O226 1.247 . S
C224 O228 1.258 . S
C225 O232 1.247 . S
C225 O233 1.258 . S
O226 C224 1.247 . S
O226 Zn227 2.028 . S
Zn227 O226 2.028 . S
Zn227 O231 2.035 . S
Zn227 O233 2.035 . S
Zn227 O234 2.028 . S
O228 C224 1.258 . S
O228 Zn229 2.035 . S
Zn229 O228 2.035 . S
Zn229 O230 2.028 . S
Zn229 O232 2.028 . S
Zn229 O235 2.035 . S
O230 Zn229 2.028 . S
O230 C236 1.247 . S
O231 Zn227 2.035 . S
O231 C236 1.258 . S
O232 C225 1.247 . S
O232 Zn229 2.028 . S
O233 C225 1.258 . S
O233 Zn227 2.035 . S
O234 Zn227 2.028 . S
O234 C237 1.247 . S
O235 Zn229 2.035 . S
O235 C237 1.258 . S
C236 O230 1.247 . S
C236 O231 1.258 . S
C237 O234 1.247 . S
C237 O235 1.258 . S
C238 O240 1.247 . S
C238 O242 1.258 . S
C239 O246 1.247 . S
C239 O247 1.258 . S
O240 C238 1.247 . S
O240 Zn241 2.028 . S
Zn241 O240 2.028 . S
Zn241 O245 2.035 . S
Zn241 O247 2.035 . S
Zn241 O248 2.028 . S
O242 C238 1.258 . S
O242 Zn243 2.035 . S
Zn243 O242 2.035 . S
Zn243 O244 2.028 . S
Zn243 O246 2.028 . S
Zn243 O249 2.035 . S
O244 Zn243 2.028 . S
O244 C250 1.247 . S
O245 Zn241 2.035 . S
O245 C250 1.258 . S
O246 C239 1.247 . S
O246 Zn243 2.028 . S
O247 C239 1.258 . S
O247 Zn241 2.035 . S
O248 Zn241 2.028 . S
O248 C251 1.247 . S
O249 Zn243 2.035 . S
O249 C251 1.258 . S
C250 O244 1.247 . S
C250 O245 1.258 . S
C251 O248 1.247 . S
C251 O249 1.258 . S
C252 O254 1.247 . S
C252 O256 1.258 . S
C253 O260 1.247 . S
C253 O261 1.258 . S
O254 C252 1.247 . S
O254 Zn255 2.028 . S
Zn255 O254 2.028 . S
Zn255 O259 2.035 . S
Zn255 O261 2.035 . S
Zn255 O262 2.028 . S
O256 C252 1.258 . S
O256 Zn257 2.035 . S
Zn257 O256 2.035 . S
Zn257 O258 2.028 . S
Zn257 O260 2.028 . S
Zn257 O263 2.035 . S
O258 Zn257 2.028 . S
O258 C264 1.247 . S
O259 Zn255 2.035 . S
O259 C264 1.258 . S
O260 C253 1.247 . S
O260 Zn257 2.028 . S
O261 C253 1.258 . S
O261 Zn255 2.035 . S
O262 Zn255 2.028 . S
O262 C265 1.247 . S
O263 Zn257 2.035 . S
O263 C265 1.258 . S
C264 O258 1.247 . S
C264 O259 1.258 . S
C265 O262 1.247 . S
C265 O263 1.258 . S
C266 O268 1.247 . S
C266 O270 1.258 . S
C267 O274 1.247 . S
C267 O275 1.258 . S
O268 C266 1.247 . S
O268 Zn269 2.028 . S
Zn269 O268 2.028 . S
Zn269 O273 2.035 . S
Zn269 O275 2.035 . S
Zn269 O276 2.028 . S
O270 C266 1.258 . S
O270 Zn271 2.035 . S
Zn271 O270 2.035 . S
Zn271 O272 2.028 . S
Zn271 O274 2.028 . S
Zn271 O277 2.035 . S
O272 Zn271 2.028 . S
O272 C278 1.247 . S
O273 Zn269 2.035 . S
O273 C278 1.258 . S
O274 C267 1.247 . S
O274 Zn271 2.028 . S
O275 C267 1.258 . S
O275 Zn269 2.035 . S
O276 Zn269 2.028 . S
O276 C279 1.247 . S
O277 Zn271 2.035 . S
O277 C279 1.258 . S
C278 O272 1.247 . S
C278 O273 1.258 . S
C279 O276 1.247 . S
C279 O277 1.258 . S
C280 O282 1.247 . S
C280 O284 1.258 . S
C281 O288 1.247 . S
C281 O289 1.258 . S
O282 C280 1.247 . S
O282 Zn283 2.028 . S
Zn283 O282 2.028 . S
Zn283 O287 2.035 . S
Zn283 O289 2.035 . S
Zn283 O290 2.028 . S
O284 C280 1.258 . S
O284 Zn285 2.035 . S
Zn285 O284 2.035 . S
Zn285 O286 2.028 . S
Zn285 O288 2.028 . S
Zn285 O291 2.035 . S
O286 Zn285 2.028 . S
O286 C292 1.247 . S
O287 Zn283 2.035 . S
O287 C292 1.258 . S
O288 C281 1.247 . S
O288 Zn285 2.028 . S
O289 C281 1.258 . S
O289 Zn283 2.035 . S
O290 Zn283 2.028 . S
O290 C293 1.247 . S
O291 Zn285 2.035 . S
O291 C293 1.258 . S
C292 O286 1.247 . S
C292 O287 1.258 . S
C293 O290 1.247 . S
C293 O291 1.258 . S
C294 O296 1.247 . S
C294 O298 1.258 . S
C295 O302 1.247 . S
C295 O303 1.258 . S
O296 C294 1.247 . S
O296 Zn297 2.028 . S
Zn297 O296 2.028 . S
Zn297 O301 2.035 . S
Zn297 O303 2.035 . S
Zn297 O304 2.028 . S
O298 C294 1.258 . S
O298 Zn299 2.035 . S
Zn299 O298 2.035 . S
Zn299 O300 2.028 . S
Zn299 O302 2.028 . S
Zn299 O305 2.035 . S
O300 Zn299 2.028 . S
O300 C306 1.247 . S
O301 Zn297 2.035 . S
O301 C306 1.258 . S
O302 C295 1.247 . S
O302 Zn299 2.028 . S
O303 C295 1.258 . S
O303 Zn297 2.035 . S
O304 Zn297 2.028 . S
O304 C307 1.247 . S
O305 Zn299 2.035 . S
O305 C307 1.258 . S
C306 O300 1.247 . S
C306 O301 1.258 . S
C307 O304 1.247 . S
C307 O305 1.258 . S
C308 O310 1.247 . S
C308 O312 1.258 . S
C309 O316 1.247 . S
C309 O317 1.258 . S
O310 C308 1.247 . S
O310 Zn311 2.028 . S
Zn311 O310 2.028 . S
Zn311 O315 2.035 . S
Zn311 O317 2.035 . S
Zn311 O318 2.028 . S
O312 C308 1.258 . S
O312 Zn313 2.035 . S
Zn313 O312 2.035 . S
Zn313 O314 2.028 . S
Zn313 O316 2.028 . S
Zn313 O319 2.035 . S
O314 Zn313 2.028 . S
O314 C320 1.247 . S
O315 Zn311 2.035 . S
O315 C320 1.258 . S
O316 C309 1.247 . S
O316 Zn313 2.028 . S
O317 C309 1.258 . S
O317 Zn311 2.035 . S
O318 Zn311 2.028 . S
O318 C321 1.247 . S
O319 Zn313 2.035 . S
O319 C321 1.258 . S
C320 O314 1.247 . S
C320 O315 1.258 . S
C321 O318 1.247 . S
C321 O319 1.258 . S
C322 O324 1.247 . S
C322 O326 1.258 . S
C323 O330 1.247 . S
C323 O331 1.258 . S
O324 C322 1.247 . S
O324 Zn325 2.028 . S
Zn325 O324 2.028 . S
Zn325 O329 2.035 . S
Zn325 O331 2.035 . S
Zn325 O332 2.028 . S
O326 C322 1.258 . S
O326 Zn327 2.035 . S
Zn327 O326 2.035 . S
Zn327 O328 2.028 . S
Zn327 O330 2.028 . S
Zn327 O333 2.035 . S
O328 Zn327 2.028 . S
O328 C334 1.247 . S
O329 Zn325 2.035 . S
O329 C334 1.258 . S
O330 C323 1.247 . S
O330 Zn327 2.028 . S
O331 C323 1.258 . S
O331 Zn325 2.035 . S
O332 Zn325 2.028 . S
O332 C335 1.247 . S
O333 Zn327 2.035 . S
O333 C335 1.258 . S
C334 O328 1.247 . S
C334 O329 1.258 . S
C335 O332 1.247 . S
C335 O333 1.258 . S
H336 C344 0.950 . S
H337 C349 0.950 . S
H338 C346 0.950 . S
H339 C348 0.950 . S
H340 C350 0.950 . S
H341 C352 0.950 . S
H342 C354 0.950 . S
H343 C355 0.950 . S
C344 H336 0.950 . S
C344 C345 1.386 . S
C344 C346 1.391 . S
C345 C344 1.386 . S
C345 C349 1.393 . S
C346 H338 0.950 . S
C346 C344 1.391 . S
C346 C347 1.400 . S
C347 C346 1.400 . S
C347 C348 1.398 . S
C347 C353 1.491 . S
C348 H339 0.950 . S
C348 C347 1.398 . S
C348 C349 1.391 . S
C349 H337 0.950 . S
C349 C345 1.393 . S
C349 C348 1.391 . S
C350 H340 0.950 . S
C350 C351 1.386 . S
C350 C352 1.391 . S
C351 C350 1.386 . S
C351 C355 1.393 . S
C352 H341 0.950 . S
C352 C350 1.391 . S
C352 C353 1.400 . S
C353 C347 1.491 . S
C353 C352 1.400 . S
C353 C354 1.398 . S
C354 H342 0.950 . S
C354 C353 1.398 . S
C354 C355 1.391 . S
C355 H343 0.950 . S
C355 C351 1.393 . S
C355 C354 1.391 . S
H356 C364 0.950 . S
H357 C369 0.950 . S
H358 C366 0.950 . S
H359 C368 0.950 . S
H360 C370 0.950 . S
H361 C372 0.950 . S
H362 C374 0.950 . S
H363 C375 0.950 . S
C364 H356 0.950 . S
C364 C365 1.386 . S
C364 C366 1.391 . S
C365 C364 1.386 . S
C365 C369 1.393 . S
C366 H358 0.950 . S
C366 C364 1.391 . S
C366 C367 1.400 . S
C367 C366 1.400 . S
C367 C368 1.398 . S
C367 C373 1.491 . S
C368 H359 0.950 . S
C368 C367 1.398 . S
C368 C369 1.391 . S
C369 H357 0.950 . S
C369 C365 1.393 . S
C369 C368 1.391 . S
C370 H360 0.950 . S
C370 C371 1.386 . S
C370 C372 1.391 . S
C371 C370 1.386 . S
C371 C375 1.393 . S
C372 H361 0.950 . S
C372 C370 1.391 . S
C372 C373 1.400 . S
C373 C367 1.491 . S
C373 C372 1.400 . S
C373 C374 1.398 . S
C374 H362 0.950 . S
C374 C373 1.398 . S
C374 C375 1.391 . S
C375 H363 0.950 . S
C375 C371 1.393 . S
C375 C374 1.391 . S
H376 C384 0.950 . S
H377 C389 0.950 . S
H378 C386 0.950 . S
H379 C388 0.950 . S
H380 C390 0.950 . S
H381 C392 0.950 . S
H382 C394 0.950 . S
H383 C395 0.950 . S
C384 H376 0.950 . S
C384 C385 1.386 . S
C384 C386 1.391 . S
C385 C384 1.386 . S
C385 C389 1.393 . S
C386 H378 0.950 . S
C386 C384 1.391 . S
C386 C387 1.400 . S
C387 C386 1.400 . S
C387 C388 1.398 . S
C387 C393 1.491 . S
C388 H379 0.950 . S
C388 C387 1.398 . S
C388 C389 1.391 . S
C389 H377 0.950 . S
C389 C385 1.393 . S
C389 C388 1.391 . S
C390 H380 0.950 . S
C390 C391 1.386 . S
C390 C392 1.391 . S
C391 C390 1.386 . S
C391 C395 1.393 . S
C392 H381 0.950 . S
C392 C390 1.391 . S
C392 C393 1.400 . S
C393 C387 1.491 . S
C393 C392 1.400 . S
C393 C394 1.398 . S
C394 H382 0.950 . S
C394 C393 1.398 . S
C394 C395 1.391 . S
C395 H383 0.950 . S
C395 C391 1.393 . S
C395 C394 1.391 . S
H396 C404 0.950 . S
H397 C409 0.950 . S
H398 C406 0.950 . S
H399 C408 0.950 . S
H400 C410 0.950 . S
H401 C412 0.950 . S
H402 C414 0.950 . S
H403 C415 0.950 . S
C404 H396 0.950 . S
C404 C405 1.386 . S
C404 C406 1.391 . S
C405 C404 1.386 . S
C405 C409 1.393 . S
C406 H398 0.950 . S
C406 C404 1.391 . S
C406 C407 1.400 . S
C407 C406 1.400 . S
C407 C408 1.398 . S
C407 C413 1.491 . S
C408 H399 0.950 . S
C408 C407 1.398 . S
C408 C409 1.391 . S
C409 H397 0.950 . S
C409 C405 1.393 . S
C409 C408 1.391 . S
C410 H400 0.950 . S
C410 C411 1.386 . S
C410 C412 1.391 . S
C411 C410 1.386 . S
C411 C415 1.393 . S
C412 H401 0.950 . S
C412 C410 1.391 . S
C412 C413 1.400 . S
C413 C407 1.491 . S
C413 C412 1.400 . S
C413 C414 1.398 . S
C414 H402 0.950 . S
C414 C413 1.398 . S
C414 C415 1.391 . S
C415 H403 0.950 . S
C415 C411 1.393 . S
C415 C414 1.391 . S
H416 C424 0.950 . S
H417 C429 0.950 . S
H418 C426 0.950 . S
H419 C428 0.950 . S
H420 C430 0.950 . S
H421 C432 0.950 . S
H422 C434 0.950 . S
H423 C435 0.950 . S
C424 H416 0.950 . S
C424 C425 1.386 . S
C424 C426 1.391 . S
C425 C424 1.386 . S
C425 C429 1.393 . S
C426 H418 0.950 . S
C426 C424 1.391 . S
C426 C427 1.400 . S
C427 C426 1.400 . S
C427 C428 1.398 . S
C427 C433 1.491 . S
C428 H419 0.950 . S
C428 C427 1.398 . S
C428 C429 1.391 . S
C429 H417 0.950 . S
C429 C425 1.393 . S
C429 C428 1.391 . S
C430 H420 0.950 . S
C430 C431 1.386 . S
C430 C432 1.391 . S
C431 C430 1.386 . S
C431 C435 1.393 . S
C432 H421 0.950 . S
C432 C430 1.391 . S
C432 C433 1.400 . S
C433 C427 1.491 . S
C433 C432 1.400 . S
C433 C434 1.398 . S
C434 H422 0.950 . S
C434 C433 1.398 . S
C434 C435 1.391 . S
C435 H423 0.950 . S
C435 C431 1.393 . S
C435 C434 1.391 . S
H436 C444 0.950 . S
H437 C449 0.950 . S
H438 C446 0.950 . S
H439 C448 0.950 . S
H440 C450 0.950 . S
H441 C452 0.950 . S
H442 C454 0.950 . S
H443 C455 0.950 . S
C444 H436 0.950 . S
C444 C445 1.386 . S
C444 C446 1.391 . S
C445 C444 1.386 . S
C445 C449 1.393 . S
C446 H438 0.950 . S
C446 C444 1.391 . S
C446 C447 1.400 . S
C447 C446 1.400 . S
C447 C448 1.398 . S
C447 C453 1.491 . S
C448 H439 0.950 . S
C448 C447 1.398 . S
C448 C449 1.391 . S
C449 H437 0.950 . S
C449 C445 1.393 . S
C449 C448 1.391 . S
C450 H440 0.950 . S
C450 C451 1.386 . S
C450 C452 1.391 . S
C451 C450 1.386 . S
C451 C455 1.393 . S
C452 H441 0.950 . S
C452 C450 1.391 . S
C452 C453 1.400 . S
C453 C447 1.491 . S
C453 C452 1.400 . S
C453 C454 1.398 . S
C454 H442 0.950 . S
C454 C453 1.398 . S
C454 C455 1.391 . S
C455 H443 0.950 . S
C455 C451 1.393 . S
C455 C454 1.391 . S
H456 C464 0.950 . S
H457 C469 0.950 . S
H458 C466 0.950 . S
H459 C468 0.950 . S
H460 C470 0.950 . S
H461 C472 0.950 . S
H462 C474 0.950 . S
H463 C475 0.950 . S
C464 H456 0.950 . S
C464 C465 1.386 . S
C464 C466 1.391 . S
C465 C464 1.386 . S
C465 C469 1.393 . S
C466 H458 0.950 . S
C466 C464 1.391 . S
C466 C467 1.400 . S
C467 C466 1.400 . S
C467 C468 1.398 . S
C467 C473 1.491 . S
C468 H459 0.950 . S
C468 C467 1.398 . S
C468 C469 1.391 . S
C469 H457 0.950 . S
C469 C465 1.393 . S
C469 C468 1.391 . S
C470 H460 0.950 . S
C470 C471 1.386 . S
C470 C472 1.391 . S
C471 C470 1.386 . S
C471 C475 1.393 . S
C472 H461 0.950 . S
C472 C470 1.391 . S
C472 C473 1.400 . S
C473 C467 1.491 . S
C473 C472 1.400 . S
C473 C474 1.398 . S
C474 H462 0.950 . S
C474 C473 1.398 . S
C474 C475 1.391 . S
C475 H463 0.950 . S
C475 C471 1.393 . S
C475 C474 1.391 . S
H476 C484 0.950 . S
H477 C489 0.950 . S
H478 C486 0.950 . S
H479 C488 0.950 . S
H480 C490 0.950 . S
H481 C492 0.950 . S
H482 C494 0.950 . S
H483 C495 0.950 . S
C484 H476 0.950 . S
C484 C485 1.386 . S
C484 C486 1.391 . S
C485 C484 1.386 . S
C485 C489 1.393 . S
C486 H478 0.950 . S
C486 C484 1.391 . S
C486 C487 1.400 . S
C487 C486 1.400 . S
C487 C488 1.398 . S
C487 C493 1.491 . S
C488 H479 0.950 . S
C488 C487 1.398 . S
C488 C489 1.391 . S
C489 H477 0.950 . S
C489 C485 1.393 . S
C489 C488 1.391 . S
C490 H480 0.950 . S
C490 C491 1.386 . S
C490 C492 1.391 . S
C491 C490 1.386 . S
C491 C495 1.393 . S
C492 H481 0.950 . S
C492 C490 1.391 . S
C492 C493 1.400 . S
C493 C487 1.491 . S
C493 C492 1.400 . S
C493 C494 1.398 . S
C494 H482 0.950 . S
C494 C493 1.398 . S
C494 C495 1.391 . S
C495 H483 0.950 . S
C495 C491 1.393 . S
C495 C494 1.391 . S
H496 C504 0.950 . S
H497 C509 0.950 . S
H498 C506 0.950 . S
H499 C508 0.950 . S
H500 C510 0.950 . S
H501 C512 0.950 . S
H502 C514 0.950 . S
H503 C515 0.950 . S
C504 H496 0.950 . S
C504 C505 1.386 . S
C504 C506 1.391 . S
C505 C504 1.386 . S
C505 C509 1.393 . S
C506 H498 0.950 . S
C506 C504 1.391 . S
C506 C507 1.400 . S
C507 C506 1.400 . S
C507 C508 1.398 . S
C507 C513 1.491 . S
C508 H499 0.950 . S
C508 C507 1.398 . S
C508 C509 1.391 . S
C509 H497 0.950 . S
C509 C505 1.393 . S
C509 C508 1.391 . S
C510 H500 0.950 . S
C510 C511 1.386 . S
C510 C512 1.391 . S
C511 C510 1.386 . S
C511 C515 1.393 . S
C512 H501 0.950 . S
C512 C510 1.391 . S
C512 C513 1.400 . S
C513 C507 1.491 . S
C513 C512 1.400 . S
C513 C514 1.398 . S
C514 H502 0.950 . S
C514 C513 1.398 . S
C514 C515 1.391 . S
C515 H503 0.950 . S
C515 C511 1.393 . S
C515 C514 1.391 . S
H516 C524 0.950 . S
H517 C529 0.950 . S
H518 C526 0.950 . S
H519 C528 0.950 . S
H520 C530 0.950 . S
H521 C532 0.950 . S
H522 C534 0.950 . S
H523 C535 0.950 . S
C524 H516 0.950 . S
C524 C525 1.386 . S
C524 C526 1.391 . S
C525 C524 1.386 . S
C525 C529 1.393 . S
C526 H518 0.950 . S
C526 C524 1.391 . S
C526 C527 1.400 . S
C527 C526 1.400 . S
C527 C528 1.398 . S
C527 C533 1.491 . S
C528 H519 0.950 . S
C528 C527 1.398 . S
C528 C529 1.391 . S
C529 H517 0.950 . S
C529 C525 1.393 . S
C529 C528 1.391 . S
C530 H520 0.950 . S
C530 C531 1.386 . S
C530 C532 1.391 . S
C531 C530 1.386 . S
C531 C535 1.393 . S
C532 H521 0.950 . S
C532 C530 1.391 . S
C532 C533 1.400 . S
C533 C527 1.491 . S
C533 C532 1.400 . S
C533 C534 1.398 . S
C534 H522 0.950 . S
C534 C533 1.398 . S
C534 C535 1.391 . S
C535 H523 0.950 . S
C535 C531 1.393 . S
C535 C534 1.391 . S
H536 C544 0.950 . S
H537 C549 0.950 . S
H538 C546 0.950 . S
H539 C548 0.950 . S
H540 C550 0.950 . S
H541 C552 0.950 . S
H542 C554 0.950 . S
H543 C555 0.950 . S
C544 H536 0.950 . S
C544 C545 1.386 . S
C544 C546 1.391 . S
C545 C544 1.386 . S
C545 C549 1.393 . S
C546 H538 0.950 . S
C546 C544 1.391 . S
C546 C547 1.400 . S
C547 C546 1.400 . S
C547 C548 1.398 . S
C547 C553 1.491 . S
C548 H539 0.950 . S
C548 C547 1.398 . S
C548 C549 1.391 . S
C549 H537 0.950 . S
C549 C545 1.393 . S
C549 C548 1.391 . S
C550 H540 0.950 . S
C550 C551 1.386 . S
C550 C552 1.391 . S
C551 C550 1.386 . S
C551 C555 1.393 . S
C552 H541 0.950 . S
C552 C550 1.391 . S
C552 C553 1.400 . S
C553 C547 1.491 . S
C553 C552 1.400 . S
C553 C554 1.398 . S
C554 H542 0.950 . S
C554 C553 1.398 . S
C554 C555 1.391 . S
C555 H543 0.950 . S
C555 C551 1.393 . S
C555 C554 1.391 . S
H556 C564 0.950 . S
H557 C569 0.950 . S
H558 C566 0.950 . S
H559 C568 0.950 . S
H560 C570 0.950 . S
H561 C572 0.950 . S
H562 C574 0.950 . S
H563 C575 0.950 . S
C564 H556 0.950 . S
C564 C565 1.386 . S
C564 C566 1.391 . S
C565 C564 1.386 . S
C565 C569 1.393 . S
C566 H558 0.950 . S
C566 C564 1.391 . S
C566 C567 1.400 . S
C567 C566 1.400 . S
C567 C568 1.398 . S
C567 C573 1.491 . S
C568 H559 0.950 . S
C568 C567 1.398 . S
C568 C569 1.391 . S
C569 H557 0.950 . S
C569 C565 1.393 . S
C569 C568 1.391 . S
C570 H560 0.950 . S
C570 C571 1.386 . S
C570 C572 1.391 . S
C571 C570 1.386 . S
C571 C575 1.393 . S
C572 H561 0.950 . S
C572 C570 1.391 . S
C572 C573 1.400 . S
C573 C567 1.491 . S
C573 C572 1.400 . S
C573 C574 1.398 . S
C574 H562 0.950 . S
C574 C573 1.398 . S
C574 C575 1.391 . S
C575 H563 0.950 . S
C575 C571 1.393 . S
C575 C574 1.391 . S
H576 C584 0.950 . S
H577 C589 0.950 . S
H578 C586 0.950 . S
H579 C588 0.950 . S
H580 C590 0.950 . S
H581 C592 0.950 . S
H582 C594 0.950 . S
H583 C595 0.950 . S
C584 H576 0.950 . S
C584 C585 1.386 . S
C584 C586 1.391 . S
C585 C584 1.386 . S
C585 C589 1.393 . S
C586 H578 0.950 . S
C586 C584 1.391 . S
C586 C587 1.400 . S
C587 C586 1.400 . S
C587 C588 1.398 . S
C587 C593 1.491 . S
C588 H579 0.950 . S
C588 C587 1.398 . S
C588 C589 1.391 . S
C589 H577 0.950 . S
C589 C585 1.393 . S
C589 C588 1.391 . S
C590 H580 0.950 . S
C590 C591 1.386 . S
C590 C592 1.391 . S
C591 C590 1.386 . S
C591 C595 1.393 . S
C592 H581 0.950 . S
C592 C590 1.391 . S
C592 C593 1.400 . S
C593 C587 1.491 . S
C593 C592 1.400 . S
C593 C594 1.398 . S
C594 H582 0.950 . S
C594 C593 1.398 . S
C594 C595 1.391 . S
C595 H583 0.950 . S
C595 C591 1.393 . S
C595 C594 1.391 . S
H596 C604 0.950 . S
H597 C609 0.950 . S
H598 C606 0.950 . S
H599 C608 0.950 . S
H600 C610 0.950 . S
H601 C612 0.950 . S
H602 C614 0.950 . S
H603 C615 0.950 . S
C604 H596 0.950 . S
C604 C605 1.386 . S
C604 C606 1.391 . S
C605 C604 1.386 . S
C605 C609 1.393 . S
C606 H598 0.950 . S
C606 C604 1.391 . S
C606 C607 1.400 . S
C607 C606 1.400 . S
C607 C608 1.398 . S
C607 C613 1.491 . S
C608 H599 0.950 . S
C608 C607 1.398 . S
C608 C609 1.391 . S
C609 H597 0.950 . S
C609 C605 1.393 . S
C609 C608 1.391 . S
C610 H600 0.950 . S
C610 C611 1.386 . S
C610 C612 1.391 . S
C611 C610 1.386 . S
C611 C615 1.393 . S
C612 H601 0.950 . S
C612 C610 1.391 . S
C612 C613 1.400 . S
C613 C607 1.491 . S
C613 C612 1.400 . S
C613 C614 1.398 . S
C614 H602 0.950 . S
C614 C613 1.398 . S
C614 C615 1.391 . S
C615 H603 0.950 . S
C615 C611 1.393 . S
C615 C614 1.391 . S
H616 C624 0.950 . S
H617 C629 0.950 . S
H618 C626 0.950 . S
H619 C628 0.950 . S
H620 C630 0.950 . S
H621 C632 0.950 . S
H622 C634 0.950 . S
H623 C635 0.950 . S
C624 H616 0.950 . S
C624 C625 1.386 . S
C624 C626 1.391 . S
C625 C624 1.386 . S
C625 C629 1.393 . S
C626 H618 0.950 . S
C626 C624 1.391 . S
C626 C627 1.400 . S
C627 C626 1.400 . S
C627 C628 1.398 . S
C627 C633 1.491 . S
C628 H619 0.950 . S
C628 C627 1.398 . S
C628 C629 1.391 . S
C629 H617 0.950 . S
C629 C625 1.393 . S
C629 C628 1.391 . S
C630 H620 0.950 . S
C630 C631 1.386 . S
C630 C632 1.391 . S
C631 C630 1.386 . S
C631 C635 1.393 . S
C632 H621 0.950 . S
C632 C630 1.391 . S
C632 C633 1.400 . S
C633 C627 1.491 . S
C633 C632 1.400 . S
C633 C634 1.398 . S
C634 H622 0.950 . S
C634 C633 1.398 . S
C634 C635 1.391 . S
C635 H623 0.950 . S
C635 C631 1.393 . S
C635 C634 1.391 . S
H636 C644 0.950 . S
H637 C649 0.950 . S
H638 C646 0.950 . S
H639 C648 0.950 . S
H640 C650 0.950 . S
H641 C652 0.950 . S
H642 C654 0.950 . S
H643 C655 0.950 . S
C644 H636 0.950 . S
C644 C645 1.386 . S
C644 C646 1.391 . S
C645 C644 1.386 . S
C645 C649 1.393 . S
C646 H638 0.950 . S
C646 C644 1.391 . S
C646 C647 1.400 . S
C647 C646 1.400 . S
C647 C648 1.398 . S
C647 C653 1.491 . S
C648 H639 0.950 . S
C648 C647 1.398 . S
C648 C649 1.391 . S
C649 H637 0.950 . S
C649 C645 1.393 . S
C649 C648 1.391 . S
C650 H640 0.950 . S
C650 C651 1.386 . S
C650 C652 1.391 . S
C651 C650 1.386 . S
C651 C655 1.393 . S
C652 H641 0.950 . S
C652 C650 1.391 . S
C652 C653 1.400 . S
C653 C647 1.491 . S
C653 C652 1.400 . S
C653 C654 1.398 . S
C654 H642 0.950 . S
C654 C653 1.398 . S
C654 C655 1.391 . S
C655 H643 0.950 . S
C655 C651 1.393 . S
C655 C654 1.391 . S
H656 C664 0.950 . S
H657 C669 0.950 . S
H658 C666 0.950 . S
H659 C668 0.950 . S
H660 C670 0.950 . S
H661 C672 0.950 . S
H662 C674 0.950 . S
H663 C675 0.950 . S
C664 H656 0.950 . S
C664 C665 1.386 . S
C664 C666 1.391 . S
C665 C664 1.386 . S
C665 C669 1.393 . S
C666 H658 0.950 . S
C666 C664 1.391 . S
C666 C667 1.400 . S
C667 C666 1.400 . S
C667 C668 1.398 . S
C667 C673 1.491 . S
C668 H659 0.950 . S
C668 C667 1.398 . S
C668 C669 1.391 . S
C669 H657 0.950 . S
C669 C665 1.393 . S
C669 C668 1.391 . S
C670 H660 0.950 . S
C670 C671 1.386 . S
C670 C672 1.391 . S
C671 C670 1.386 . S
C671 C675 1.393 . S
C672 H661 0.950 . S
C672 C670 1.391 . S
C672 C673 1.400 . S
C673 C667 1.491 . S
C673 C672 1.400 . S
C673 C674 1.398 . S
C674 H662 0.950 . S
C674 C673 1.398 . S
C674 C675 1.391 . S
C675 H663 0.950 . S
C675 C671 1.393 . S
C675 C674 1.391 . S
H676 C684 0.950 . S
H677 C689 0.950 . S
H678 C686 0.950 . S
H679 C688 0.950 . S
H680 C690 0.950 . S
H681 C692 0.950 . S
H682 C694 0.950 . S
H683 C695 0.950 . S
C684 H676 0.950 . S
C684 C685 1.386 . S
C684 C686 1.391 . S
C685 C684 1.386 . S
C685 C689 1.393 . S
C686 H678 0.950 . S
C686 C684 1.391 . S
C686 C687 1.400 . S
C687 C686 1.400 . S
C687 C688 1.398 . S
C687 C693 1.491 . S
C688 H679 0.950 . S
C688 C687 1.398 . S
C688 C689 1.391 . S
C689 H677 0.950 . S
C689 C685 1.393 . S
C689 C688 1.391 . S
C690 H680 0.950 . S
C690 C691 1.386 . S
C690 C692 1.391 . S
C691 C690 1.386 . S
C691 C695 1.393 . S
C692 H681 0.950 . S
C692 C690 1.391 . S
C692 C693 1.400 . S
C693 C687 1.491 . S
C693 C692 1.400 . S
C693 C694 1.398 . S
C694 H682 0.950 . S
C694 C693 1.398 . S
C694 C695 1.391 . S
C695 H683 0.950 . S
C695 C691 1.393 . S
C695 C694 1.391 . S
H696 C704 0.950 . S
H697 C709 0.950 . S
H698 C706 0.950 . S
H699 C708 0.950 . S
H700 C710 0.950 . S
H701 C712 0.950 . S
H702 C714 0.950 . S
H703 C715 0.950 . S
C704 H696 0.950 . S
C704 C705 1.386 . S
C704 C706 1.391 . S
C705 C704 1.386 . S
C705 C709 1.393 . S
C706 H698 0.950 . S
C706 C704 1.391 . S
C706 C707 1.400 . S
C707 C706 1.400 . S
C707 C708 1.398 . S
C707 C713 1.491 . S
C708 H699 0.950 . S
C708 C707 1.398 . S
C708 C709 1.391 . S
C709 H697 0.950 . S
C709 C705 1.393 . S
C709 C708 1.391 . S
C710 H700 0.950 . S
C710 C711 1.386 . S
C710 C712 1.391 . S
C711 C710 1.386 . S
C711 C715 1.393 . S
C712 H701 0.950 . S
C712 C710 1.391 . S
C712 C713 1.400 . S
C713 C707 1.491 . S
C713 C712 1.400 . S
C713 C714 1.398 . S
C714 H702 0.950 . S
C714 C713 1.398 . S
C714 C715 1.391 . S
C715 H703 0.950 . S
C715 C711 1.393 . S
C715 C714 1.391 . S
H716 C724 0.950 . S
H717 C729 0.950 . S
H718 C726 0.950 . S
H719 C728 0.950 . S
H720 C730 0.950 . S
H721 C732 0.950 . S
H722 C734 0.950 . S
H723 C735 0.950 . S
C724 H716 0.950 . S
C724 C725 1.386 . S
C724 C726 1.391 . S
C725 C724 1.386 . S
C725 C729 1.393 . S
C726 H718 0.950 . S
C726 C724 1.391 . S
C726 C727 1.400 . S
C727 C726 1.400 . S
C727 C728 1.398 . S
C727 C733 1.491 . S
C728 H719 0.950 . S
C728 C727 1.398 . S
C728 C729 1.391 . S
C729 H717 0.950 . S
C729 C725 1.393 . S
C729 C728 1.391 . S
C730 H720 0.950 . S
C730 C731 1.386 . S
C730 C732 1.391 . S
C731 C730 1.386 . S
C731 C735 1.393 . S
C732 H721 0.950 . S
C732 C730 1.391 . S
C732 C733 1.400 . S
C733 C727 1.491 . S
C733 C732 1.400 . S
C733 C734 1.398 . S
C734 H722 0.950 . S
C734 C733 1.398 . S
C734 C735 1.391 . S
C735 H723 0.950 . S
C735 C731 1.393 . S
C735 C734 1.391 . S
H736 C744 0.950 . S
H737 C749 0.950 . S
H738 C746 0.950 . S
H739 C748 0.950 . S
H740 C750 0.950 . S
H741 C752 0.950 . S
H742 C754 0.950 . S
H743 C755 0.950 . S
C744 H736 0.950 . S
C744 C745 1.386 . S
C744 C746 1.391 . S
C745 C744 1.386 . S
C745 C749 1.393 . S
C746 H738 0.950 . S
C746 C744 1.391 . S
C746 C747 1.400 . S
C747 C746 1.400 . S
C747 C748 1.398 . S
C747 C753 1.491 . S
C748 H739 0.950 . S
C748 C747 1.398 . S
C748 C749 1.391 . S
C749 H737 0.950 . S
C749 C745 1.393 . S
C749 C748 1.391 . S
C750 H740 0.950 . S
C750 C751 1.386 . S
C750 C752 1.391 . S
C751 C750 1.386 . S
C751 C755 1.393 . S
C752 H741 0.950 . S
C752 C750 1.391 . S
C752 C753 1.400 . S
C753 C747 1.491 . S
C753 C752 1.400 . S
C753 C754 1.398 . S
C754 H742 0.950 . S
C754 C753 1.398 . S
C754 C755 1.391 . S
C755 H743 0.950 . S
C755 C751 1.393 . S
C755 C754 1.391 . S
H756 C764 0.950 . S
H757 C769 0.950 . S
H758 C766 0.950 . S
H759 C768 0.950 . S
H760 C770 0.950 . S
H761 C772 0.950 . S
H762 C774 0.950 . S
H763 C775 0.950 . S
C764 H756 0.950 . S
C764 C765 1.386 . S
C764 C766 1.391 . S
C765 C764 1.386 . S
C765 C769 1.393 . S
C766 H758 0.950 . S
C766 C764 1.391 . S
C766 C767 1.400 . S
C767 C766 1.400 . S
C767 C768 1.398 . S
C767 C773 1.491 . S
C768 H759 0.950 . S
C768 C767 1.398 . S
C768 C769 1.391 . S
C769 H757 0.950 . S
C769 C765 1.393 . S
C769 C768 1.391 . S
C770 H760 0.950 . S
C770 C771 1.386 . S
C770 C772 1.391 . S
C771 C770 1.386 . S
C771 C775 1.393 . S
C772 H761 0.950 . S
C772 C770 1.391 . S
C772 C773 1.400 . S
C773 C767 1.491 . S
C773 C772 1.400 . S
C773 C774 1.398 . S
C774 H762 0.950 . S
C774 C773 1.398 . S
C774 C775 1.391 . S
C775 H763 0.950 . S
C775 C771 1.393 . S
C775 C774 1.391 . S
H776 C784 0.950 . S
H777 C789 0.950 . S
H778 C786 0.950 . S
H779 C788 0.950 . S
H780 C790 0.950 . S
H781 C792 0.950 . S
H782 C794 0.950 . S
H783 C795 0.950 . S
C784 H776 0.950 . S
C784 C785 1.386 . S
C784 C786 1.391 . S
C785 C784 1.386 . S
C785 C789 1.393 . S
C786 H778 0.950 . S
C786 C784 1.391 . S
C786 C787 1.400 . S
C787 C786 1.400 . S
C787 C788 1.398 . S
C787 C793 1.491 . S
C788 H779 0.950 . S
C788 C787 1.398 . S
C788 C789 1.391 . S
C789 H777 0.950 . S
C789 C785 1.393 . S
C789 C788 1.391 . S
C790 H780 0.950 . S
C790 C791 1.386 . S
C790 C792 1.391 . S
C791 C790 1.386 . S
C791 C795 1.393 . S
C792 H781 0.950 . S
C792 C790 1.391 . S
C792 C793 1.400 . S
C793 C787 1.491 . S
C793 C792 1.400 . S
C793 C794 1.398 . S
C794 H782 0.950 . S
C794 C793 1.398 . S
C794 C795 1.391 . S
C795 H783 0.950 . S
C795 C791 1.393 . S
C795 C794 1.391 . S
H796 C804 0.950 . S
H797 C809 0.950 . S
H798 C806 0.950 . S
H799 C808 0.950 . S
H800 C810 0.950 . S
H801 C812 0.950 . S
H802 C814 0.950 . S
H803 C815 0.950 . S
C804 H796 0.950 . S
C804 C805 1.386 . S
C804 C806 1.391 . S
C805 C804 1.386 . S
C805 C809 1.393 . S
C806 H798 0.950 . S
C806 C804 1.391 . S
C806 C807 1.400 . S
C807 C806 1.400 . S
C807 C808 1.398 . S
C807 C813 1.491 . S
C808 H799 0.950 . S
C808 C807 1.398 . S
C808 C809 1.391 . S
C809 H797 0.950 . S
C809 C805 1.393 . S
C809 C808 1.391 . S
C810 H800 0.950 . S
C810 C811 1.386 . S
C810 C812 1.391 . S
C811 C810 1.386 . S
C811 C815 1.393 . S
C812 H801 0.950 . S
C812 C810 1.391 . S
C812 C813 1.400 . S
C813 C807 1.491 . S
C813 C812 1.400 . S
C813 C814 1.398 . S
C814 H802 0.950 . S
C814 C813 1.398 . S
C814 C815 1.391 . S
C815 H803 0.950 . S
C815 C811 1.393 . S
C815 C814 1.391 . S
H816 C824 0.950 . S
H817 C829 0.950 . S
H818 C826 0.950 . S
H819 C828 0.950 . S
H820 C830 0.950 . S
H821 C832 0.950 . S
H822 C834 0.950 . S
H823 C835 0.950 . S
C824 H816 0.950 . S
C824 C825 1.386 . S
C824 C826 1.391 . S
C825 C824 1.386 . S
C825 C829 1.393 . S
C826 H818 0.950 . S
C826 C824 1.391 . S
C826 C827 1.400 . S
C827 C826 1.400 . S
C827 C828 1.398 . S
C827 C833 1.491 . S
C828 H819 0.950 . S
C828 C827 1.398 . S
C828 C829 1.391 . S
C829 H817 0.950 . S
C829 C825 1.393 . S
C829 C828 1.391 . S
C830 H820 0.950 . S
C830 C831 1.386 . S
C830 C832 1.391 . S
C831 C830 1.386 . S
C831 C835 1.393 . S
C832 H821 0.950 . S
C832 C830 1.391 . S
C832 C833 1.400 . S
C833 C827 1.491 . S
C833 C832 1.400 . S
C833 C834 1.398 . S
C834 H822 0.950 . S
C834 C833 1.398 . S
C834 C835 1.391 . S
C835 H823 0.950 . S
C835 C831 1.393 . S
C835 C834 1.391 . S
H836 C844 0.950 . S
H837 C849 0.950 . S
H838 C846 0.950 . S
H839 C848 0.950 . S
H840 C850 0.950 . S
H841 C852 0.950 . S
H842 C854 0.950 . S
H843 C855 0.950 . S
C844 H836 0.950 . S
C844 C845 1.386 . S
C844 C846 1.391 . S
C845 C844 1.386 . S
C845 C849 1.393 . S
C846 H838 0.950 . S
C846 C844 1.391 . S
C846 C847 1.400 . S
C847 C846 1.400 . S
C847 C848 1.398 . S
C847 C853 1.491 . S
C848 H839 0.950 . S
C848 C847 1.398 . S
C848 C849 1.391 . S
C849 H837 0.950 . S
C849 C845 1.393 . S
C849 C848 1.391 . S
C850 H840 0.950 . S
C850 C851 1.386 . S
C850 C852 1.391 . S
C851 C850 1.386 . S
C851 C855 1.393 . S
C852 H841 0.950 . S
C852 C850 1.391 . S
C852 C853 1.400 . S
C853 C847 1.491 . S
C853 C852 1.400 . S
C853 C854 1.398 . S
C854 H842 0.950 . S
C854 C853 1.398 . S
C854 C855 1.391 . S
C855 H843 0.950 . S
C855 C851 1.393 . S
C855 C854 1.391 . S
H856 C864 0.950 . S
H857 C869 0.950 . S
H858 C866 0.950 . S
H859 C868 0.950 . S
H860 C870 0.950 . S
H861 C872 0.950 . S
H862 C874 0.950 . S
H863 C875 0.950 . S
C864 H856 0.950 . S
C864 C865 1.386 . S
C864 C866 1.391 . S
C865 C864 1.386 . S
C865 C869 1.393 . S
C866 H858 0.950 . S
C866 C864 1.391 . S
C866 C867 1.400 . S
C867 C866 1.400 . S
C867 C868 1.398 . S
C867 C873 1.491 . S
C868 H859 0.950 . S
C868 C867 1.398 . S
C868 C869 1.391 . S
C869 H857 0.950 . S
C869 C865 1.393 . S
C869 C868 1.391 . S
C870 H860 0.950 . S
C870 C871 1.386 . S
C870 C872 1.391 . S
C871 C870 1.386 . S
C871 C875 1.393 . S
C872 H861 0.950 . S
C872 C870 1.391 . S
C872 C873 1.400 . S
C873 C867 1.491 . S
C873 C872 1.400 . S
C873 C874 1.398 . S
C874 H862 0.950 . S
C874 C873 1.398 . S
C874 C875 1.391 . S
C875 H863 0.950 . S
C875 C871 1.393 . S
C875 C874 1.391 . S
H876 C884 0.950 . S
H877 C889 0.950 . S
H878 C886 0.950 . S
H879 C888 0.950 . S
H880 C890 0.950 . S
H881 C892 0.950 . S
H882 C894 0.950 . S
H883 C895 0.950 . S
C884 H876 0.950 . S
C884 C885 1.386 . S
C884 C886 1.391 . S
C885 C884 1.386 . S
C885 C889 1.393 . S
C886 H878 0.950 . S
C886 C884 1.391 . S
C886 C887 1.400 . S
C887 C886 1.400 . S
C887 C888 1.398 . S
C887 C893 1.491 . S
C888 H879 0.950 . S
C888 C887 1.398 . S
C888 C889 1.391 . S
C889 H877 0.950 . S
C889 C885 1.393 . S
C889 C888 1.391 . S
C890 H880 0.950 . S
C890 C891 1.386 . S
C890 C892 1.391 . S
C891 C890 1.386 . S
C891 C895 1.393 . S
C892 H881 0.950 . S
C892 C890 1.391 . S
C892 C893 1.400 . S
C893 C887 1.491 . S
C893 C892 1.400 . S
C893 C894 1.398 . S
C894 H882 0.950 . S
C894 C893 1.398 . S
C894 C895 1.391 . S
C895 H883 0.950 . S
C895 C891 1.393 . S
C895 C894 1.391 . S
H896 C904 0.950 . S
H897 C909 0.950 . S
H898 C906 0.950 . S
H899 C908 0.950 . S
H900 C910 0.950 . S
H901 C912 0.950 . S
H902 C914 0.950 . S
H903 C915 0.950 . S
C904 H896 0.950 . S
C904 C905 1.386 . S
C904 C906 1.391 . S
C905 C904 1.386 . S
C905 C909 1.393 . S
C906 H898 0.950 . S
C906 C904 1.391 . S
C906 C907 1.400 . S
C907 C906 1.400 . S
C907 C908 1.398 . S
C907 C913 1.491 . S
C908 H899 0.950 . S
C908 C907 1.398 . S
C908 C909 1.391 . S
C909 H897 0.950 . S
C909 C905 1.393 . S
C909 C908 1.391 . S
C910 H900 0.950 . S
C910 C911 1.386 . S
C910 C912 1.391 . S
C911 C910 1.386 . S
C911 C915 1.393 . S
C912 H901 0.950 . S
C912 C910 1.391 . S
C912 C913 1.400 . S
C913 C907 1.491 . S
C913 C912 1.400 . S
C913 C914 1.398 . S
C914 H902 0.950 . S
C914 C913 1.398 . S
C914 C915 1.391 . S
C915 H903 0.950 . S
C915 C911 1.393 . S
C915 C914 1.391 . S
H916 C924 0.950 . S
H917 C929 0.950 . S
H918 C926 0.950 . S
H919 C928 0.950 . S
H920 C930 0.950 . S
H921 C932 0.950 . S
H922 C934 0.950 . S
H923 C935 0.950 . S
C924 H916 0.950 . S
C924 C925 1.386 . S
C924 C926 1.391 . S
C925 C924 1.386 . S
C925 C929 1.393 . S
C926 H918 0.950 . S
C926 C924 1.391 . S
C926 C927 1.400 . S
C927 C926 1.400 . S
C927 C928 1.398 . S
C927 C933 1.491 . S
C928 H919 0.950 . S
C928 C927 1.398 . S
C928 C929 1.391 . S
C929 H917 0.950 . S
C929 C925 1.393 . S
C929 C928 1.391 . S
C930 H920 0.950 . S
C930 C931 1.386 . S
C930 C932 1.391 . S
C931 C930 1.386 . S
C931 C935 1.393 . S
C932 H921 0.950 . S
C932 C930 1.391 . S
C932 C933 1.400 . S
C933 C927 1.491 . S
C933 C932 1.400 . S
C933 C934 1.398 . S
C934 H922 0.950 . S
C934 C933 1.398 . S
C934 C935 1.391 . S
C935 H923 0.950 . S
C935 C931 1.393 . S
C935 C934 1.391 . S
H936 C944 0.950 . S
H937 C949 0.950 . S
H938 C946 0.950 . S
H939 C948 0.950 . S
H940 C950 0.950 . S
H941 C952 0.950 . S
H942 C954 0.950 . S
H943 C955 0.950 . S
C944 H936 0.950 . S
C944 C945 1.386 . S
C944 C946 1.391 . S
C945 C944 1.386 . S
C945 C949 1.393 . S
C946 H938 0.950 . S
C946 C944 1.391 . S
C946 C947 1.400 . S
C947 C946 1.400 . S
C947 C948 1.398 . S
C947 C953 1.491 . S
C948 H939 0.950 . S
C948 C947 1.398 . S
C948 C949 1.391 . S
C949 H937 0.950 . S
C949 C945 1.393 . S
C949 C948 1.391 . S
C950 H940 0.950 . S
C950 C951 1.386 . S
C950 C952 1.391 . S
C951 C950 1.386 . S
C951 C955 1.393 . S
C952 H941 0.950 . S
C952 C950 1.391 . S
C952 C953 1.400 . S
C953 C947 1.491 . S
C953 C952 1.400 . S
C953 C954 1.398 . S
C954 H942 0.950 . S
C954 C953 1.398 . S
C954 C955 1.391 . S
C955 H943 0.950 . S
C955 C951 1.393 . S
C955 C954 1.391 . S
H956 C964 0.950 . S
H957 C969 0.950 . S
H958 C966 0.950 . S
H959 C968 0.950 . S
H960 C970 0.950 . S
H961 C972 0.950 . S
H962 C974 0.950 . S
H963 C975 0.950 . S
C964 H956 0.950 . S
C964 C965 1.386 . S
C964 C966 1.391 . S
C965 C964 1.386 . S
C965 C969 1.393 . S
C966 H958 0.950 . S
C966 C964 1.391 . S
C966 C967 1.400 . S
C967 C966 1.400 . S
C967 C968 1.398 . S
C967 C973 1.491 . S
C968 H959 0.950 . S
C968 C967 1.398 . S
C968 C969 1.391 . S
C969 H957 0.950 . S
C969 C965 1.393 . S
C969 C968 1.391 . S
C970 H960 0.950 . S
C970 C971 1.386 . S
C970 C972 1.391 . S
C971 C970 1.386 . S
C971 C975 1.393 . S
C972 H961 0.950 . S
C972 C970 1.391 . S
C972 C973 1.400 . S
C973 C967 1.491 . S
C973 C972 1.400 . S
C973 C974 1.398 . S
C974 H962 0.950 . S
C974 C973 1.398 . S
C974 C975 1.391 . S
C975 H963 0.950 . S
C975 C971 1.393 . S
C975 C974 1.391 . S
H976 C984 0.950 . S
H977 C989 0.950 . S
H978 C986 0.950 . S
H979 C988 0.950 . S
H980 C990 0.950 . S
H981 C992 0.950 . S
H982 C994 0.950 . S
H983 C995 0.950 . S
C984 H976 0.950 . S
C984 C985 1.386 . S
C984 C986 1.391 . S
C985 C984 1.386 . S
C985 C989 1.393 . S
C986 H978 0.950 . S
C986 C984 1.391 . S
C986 C987 1.400 . S
C987 C986 1.400 . S
C987 C988 1.398 . S
C987 C993 1.491 . S
C988 H979 0.950 . S
C988 C987 1.398 . S
C988 C989 1.391 . S
C989 H977 0.950 . S
C989 C985 1.393 . S
C989 C988 1.391 . S
C990 H980 0.950 . S
C990 C991 1.386 . S
C990 C992 1.391 . S
C991 C990 1.386 . S
C991 C995 1.393 . S
C992 H981 0.950 . S
C992 C990 1.391 . S
C992 C993 1.400 . S
C993 C987 1.491 . S
C993 C992 1.400 . S
C993 C994 1.398 . S
C994 H982 0.950 . S
C994 C993 1.398 . S
C994 C995 1.391 . S
C995 H983 0.950 . S
C995 C991 1.393 . S
C995 C994 1.391 . S
H996 C1004 0.950 . S
H997 C1009 0.950 . S
H998 C1006 0.950 . S
H999 C1008 0.950 . S
H1000 C1010 0.950 . S
H1001 C1012 0.950 . S
H1002 C1014 0.950 . S
H1003 C1015 0.950 . S
C1004 H996 0.950 . S
C1004 C1005 1.386 . S
C1004 C1006 1.391 . S
C1005 C1004 1.386 . S
C1005 C1009 1.393 . S
C1006 H998 0.950 . S
C1006 C1004 1.391 . S
C1006 C1007 1.400 . S
C1007 C1006 1.400 . S
C1007 C1008 1.398 . S
C1007 C1013 1.491 . S
C1008 H999 0.950 . S
C1008 C1007 1.398 . S
C1008 C1009 1.391 . S
C1009 H997 0.950 . S
C1009 C1005 1.393 . S
C1009 C1008 1.391 . S
C1010 H1000 0.950 . S
C1010 C1011 1.386 . S
C1010 C1012 1.391 . S
C1011 C1010 1.386 . S
C1011 C1015 1.393 . S
C1012 H1001 0.950 . S
C1012 C1010 1.391 . S
C1012 C1013 1.400 . S
C1013 C1007 1.491 . S
C1013 C1012 1.400 . S
C1013 C1014 1.398 . S
C1014 H1002 0.950 . S
C1014 C1013 1.398 . S
C1014 C1015 1.391 . S
C1015 H1003 0.950 . S
C1015 C1011 1.393 . S
C1015 C1014 1.391 . S
H1016 C1024 0.950 . S
H1017 C1029 0.950 . S
H1018 C1026 0.950 . S
H1019 C1028 0.950 . S
H1020 C1030 0.950 . S
H1021 C1032 0.950 . S
H1022 C1034 0.950 . S
H1023 C1035 0.950 . S
C1024 H1016 0.950 . S
C1024 C1025 1.386 . S
C1024 C1026 1.391 . S
C1025 C1024 1.386 . S
C1025 C1029 1.393 . S
C1026 H1018 0.950 . S
C1026 C1024 1.391 . S
C1026 C1027 1.400 . S
C1027 C1026 1.400 . S
C1027 C1028 1.398 . S
C1027 C1033 1.491 . S
C1028 H1019 0.950 . S
C1028 C1027 1.398 . S
C1028 C1029 1.391 . S
C1029 H1017 0.950 . S
C1029 C1025 1.393 . S
C1029 C1028 1.391 . S
C1030 H1020 0.950 . S
C1030 C1031 1.386 . S
C1030 C1032 1.391 . S
C1031 C1030 1.386 . S
C1031 C1035 1.393 . S
C1032 H1021 0.950 . S
C1032 C1030 1.391 . S
C1032 C1033 1.400 . S
C1033 C1027 1.491 . S
C1033 C1032 1.400 . S
C1033 C1034 1.398 . S
C1034 H1022 0.950 . S
C1034 C1033 1.398 . S
C1034 C1035 1.391 . S
C1035 H1023 0.950 . S
C1035 C1031 1.393 . S
C1035 C1034 1.391 . S
H1036 C1044 0.950 . S
H1037 C1049 0.950 . S
H1038 C1046 0.950 . S
H1039 C1048 0.950 . S
H1040 C1050 0.950 . S
H1041 C1052 0.950 . S
H1042 C1054 0.950 . S
H1043 C1055 0.950 . S
C1044 H1036 0.950 . S
C1044 C1045 1.386 . S
C1044 C1046 1.391 . S
C1045 C1044 1.386 . S
C1045 C1049 1.393 . S
C1046 H1038 0.950 . S
C1046 C1044 1.391 . S
C1046 C1047 1.400 . S
C1047 C1046 1.400 . S
C1047 C1048 1.398 . S
C1047 C1053 1.491 . S
C1048 H1039 0.950 . S
C1048 C1047 1.398 . S
C1048 C1049 1.391 . S
C1049 H1037 0.950 . S
C1049 C1045 1.393 . S
C1049 C1048 1.391 . S
C1050 H1040 0.950 . S
C1050 C1051 1.386 . S
C1050 C1052 1.391 . S
C1051 C1050 1.386 . S
C1051 C1055 1.393 . S
C1052 H1041 0.950 . S
C1052 C1050 1.391 . S
C1052 C1053 1.400 . S
C1053 C1047 1.491 . S
C1053 C1052 1.400 . S
C1053 C1054 1.398 . S
C1054 H1042 0.950 . S
C1054 C1053 1.398 . S
C1054 C1055 1.391 . S
C1055 H1043 0.950 . S
C1055 C1051 1.393 . S
C1055 C1054 1.391 . S
H1056 C1064 0.950 . S
H1057 C1069 0.950 . S
H1058 C1066 0.950 . S
H1059 C1068 0.950 . S
H1060 C1070 0.950 . S
H1061 C1072 0.950 . S
H1062 C1074 0.950 . S
H1063 C1075 0.950 . S
C1064 H1056 0.950 . S
C1064 C1065 1.386 . S
C1064 C1066 1.391 . S
C1065 C1064 1.386 . S
C1065 C1069 1.393 . S
C1066 H1058 0.950 . S
C1066 C1064 1.391 . S
C1066 C1067 1.400 . S
C1067 C1066 1.400 . S
C1067 C1068 1.398 . S
C1067 C1073 1.491 . S
C1068 H1059 0.950 . S
C1068 C1067 1.398 . S
C1068 C1069 1.391 . S
C1069 H1057 0.950 . S
C1069 C1065 1.393 . S
C1069 C1068 1.391 . S
C1070 H1060 0.950 . S
C1070 C1071 1.386 . S
C1070 C1072 1.391 . S
C1071 C1070 1.386 . S
C1071 C1075 1.393 . S
C1072 H1061 0.950 . S
C1072 C1070 1.391 . S
C1072 C1073 1.400 . S
C1073 C1067 1.491 . S
C1073 C1072 1.400 . S
C1073 C1074 1.398 . S
C1074 H1062 0.950 . S
C1074 C1073 1.398 . S
C1074 C1075 1.391 . S
C1075 H1063 0.950 . S
C1075 C1071 1.393 . S
C1075 C1074 1.391 . S
H1076 C1084 0.950 . S
H1077 C1089 0.950 . S
H1078 C1086 0.950 . S
H1079 C1088 0.950 . S
H1080 C1090 0.950 . S
H1081 C1092 0.950 . S
H1082 C1094 0.950 . S
H1083 C1095 0.950 . S
C1084 H1076 0.950 . S
C1084 C1085 1.386 . S
C1084 C1086 1.391 . S
C1085 C1084 1.386 . S
C1085 C1089 1.393 . S
C1086 H1078 0.950 . S
C1086 C1084 1.391 . S
C1086 C1087 1.400 . S
C1087 C1086 1.400 . S
C1087 C1088 1.398 . S
C1087 C1093 1.491 . S
C1088 H1079 0.950 . S
C1088 C1087 1.398 . S
C1088 C1089 1.391 . S
C1089 H1077 0.950 . S
C1089 C1085 1.393 . S
C1089 C1088 1.391 . S
C1090 H1080 0.950 . S
C1090 C1091 1.386 . S
C1090 C1092 1.391 . S
C1091 C1090 1.386 . S
C1091 C1095 1.393 . S
C1092 H1081 0.950 . S
C1092 C1090 1.391 . S
C1092 C1093 1.400 . S
C1093 C1087 1.491 . S
C1093 C1092 1.400 . S
C1093 C1094 1.398 . S
C1094 H1082 0.950 . S
C1094 C1093 1.398 . S
C1094 C1095 1.391 . S
C1095 H1083 0.950 . S
C1095 C1091 1.393 . S
C1095 C1094 1.391 . S
H1096 C1104 0.950 . S
H1097 C1109 0.950 . S
H1098 C1106 0.950 . S
H1099 C1108 0.950 . S
H1100 C1110 0.950 . S
H1101 C1112 0.950 . S
H1102 C1114 0.950 . S
H1103 C1115 0.950 . S
C1104 H1096 0.950 . S
C1104 C1105 1.386 . S
C1104 C1106 1.391 . S
C1105 C1104 1.386 . S
C1105 C1109 1.393 . S
C1106 H1098 0.950 . S
C1106 C1104 1.391 . S
C1106 C1107 1.400 . S
C1107 C1106 1.400 . S
C1107 C1108 1.398 . S
C1107 C1113 1.491 . S
C1108 H1099 0.950 . S
C1108 C1107 1.398 . S
C1108 C1109 1.391 . S
C1109 H1097 0.950 . S
C1109 C1105 1.393 . S
C1109 C1108 1.391 . S
C1110 H1100 0.950 . S
C1110 C1111 1.386 . S
C1110 C1112 1.391 . S
C1111 C1110 1.386 . S
C1111 C1115 1.393 . S
C1112 H1101 0.950 . S
C1112 C1110 1.391 . S
C1112 C1113 1.400 . S
C1113 C1107 1.491 . S
C1113 C1112 1.400 . S
C1113 C1114 1.398 . S
C1114 H1102 0.950 . S
C1114 C1113 1.398 . S
C1114 C1115 1.391 . S
C1115 H1103 0.950 . S
C1115 C1111 1.393 . S
C1115 C1114 1.391 . S
H1116 C1124 0.950 . S
H1117 C1129 0.950 . S
H1118 C1126 0.950 . S
H1119 C1128 0.950 . S
H1120 C1130 0.950 . S
H1121 C1132 0.950 . S
H1122 C1134 0.950 . S
H1123 C1135 0.950 . S
C1124 H1116 0.950 . S
C1124 C1125 1.386 . S
C1124 C1126 1.391 . S
C1125 C1124 1.386 . S
C1125 C1129 1.393 . S
C1126 H1118 0.950 . S
C1126 C1124 1.391 . S
C1126 C1127 1.400 . S
C1127 C1126 1.400 . S
C1127 C1128 1.398 . S
C1127 C1133 1.491 . S
C1128 H1119 0.950 . S
C1128 C1127 1.398 . S
C1128 C1129 1.391 . S
C1129 H1117 0.950 . S
C1129 C1125 1.393 . S
C1129 C1128 1.391 . S
C1130 H1120 0.950 . S
C1130 C1131 1.386 . S
C1130 C1132 1.391 . S
C1131 C1130 1.386 . S
C1131 C1135 1.393 . S
C1132 H1121 0.950 . S
C1132 C1130 1.391 . S
C1132 C1133 1.400 . S
C1133 C1127 1.491 . S
C1133 C1132 1.400 . S
C1133 C1134 1.398 . S
C1134 H1122 0.950 . S
C1134 C1133 1.398 . S
C1134 C1135 1.391 . S
C1135 H1123 0.950 . S
C1135 C1131 1.393 . S
C1135 C1134 1.391 . S
H1136 C1144 0.950 . S
H1137 C1149 0.950 . S
H1138 C1146 0.950 . S
H1139 C1148 0.950 . S
H1140 C1150 0.950 . S
H1141 C1152 0.950 . S
H1142 C1154 0.950 . S
H1143 C1155 0.950 . S
C1144 H1136 0.950 . S
C1144 C1145 1.386 . S
C1144 C1146 1.391 . S
C1145 C1144 1.386 . S
C1145 C1149 1.393 . S
C1146 H1138 0.950 . S
C1146 C1144 1.391 . S
C1146 C1147 1.400 . S
C1147 C1146 1.400 . S
C1147 C1148 1.398 . S
C1147 C1153 1.491 . S
C1148 H1139 0.950 . S
C1148 C1147 1.398 . S
C1148 C1149 1.391 . S
C1149 H1137 0.950 . S
C1149 C1145 1.393 . S
C1149 C1148 1.391 . S
C1150 H1140 0.950 . S
C1150 C1151 1.386 . S
C1150 C1152 1.391 . S
C1151 C1150 1.386 . S
C1151 C1155 1.393 . S
C1152 H1141 0.950 . S
C1152 C1150 1.391 . S
C1152 C1153 1.400 . S
C1153 C1147 1.491 . S
C1153 C1152 1.400 . S
C1153 C1154 1.398 . S
C1154 H1142 0.950 . S
C1154 C1153 1.398 . S
C1154 C1155 1.391 . S
C1155 H1143 0.950 . S
C1155 C1151 1.393 . S
C1155 C1154 1.391 . S
H1156 C1164 0.950 . S
H1157 C1169 0.950 . S
H1158 C1166 0.950 . S
H1159 C1168 0.950 . S
H1160 C1170 0.950 . S
H1161 C1172 0.950 . S
H1162 C1174 0.950 . S
H1163 C1175 0.950 . S
C1164 H1156 0.950 . S
C1164 C1165 1.386 . S
C1164 C1166 1.391 . S
C1165 C1164 1.386 . S
C1165 C1169 1.393 . S
C1166 H1158 0.950 . S
C1166 C1164 1.391 . S
C1166 C1167 1.400 . S
C1167 C1166 1.400 . S
C1167 C1168 1.398 . S
C1167 C1173 1.491 . S
C1168 H1159 0.950 . S
C1168 C1167 1.398 . S
C1168 C1169 1.391 . S
C1169 H1157 0.950 . S
C1169 C1165 1.393 . S
C1169 C1168 1.391 . S
C1170 H1160 0.950 . S
C1170 C1171 1.386 . S
C1170 C1172 1.391 . S
C1171 C1170 1.386 . S
C1171 C1175 1.393 . S
C1172 H1161 0.950 . S
C1172 C1170 1.391 . S
C1172 C1173 1.400 . S
C1173 C1167 1.491 . S
C1173 C1172 1.400 . S
C1173 C1174 1.398 . S
C1174 H1162 0.950 . S
C1174 C1173 1.398 . S
C1174 C1175 1.391 . S
C1175 H1163 0.950 . S
C1175 C1171 1.393 . S
C1175 C1174 1.391 . S
H1176 C1184 0.950 . S
H1177 C1189 0.950 . S
H1178 C1186 0.950 . S
H1179 C1188 0.950 . S
H1180 C1190 0.950 . S
H1181 C1192 0.950 . S
H1182 C1194 0.950 . S
H1183 C1195 0.950 . S
C1184 H1176 0.950 . S
C1184 C1185 1.386 . S
C1184 C1186 1.391 . S
C1185 C1184 1.386 . S
C1185 C1189 1.393 . S
C1186 H1178 0.950 . S
C1186 C1184 1.391 . S
C1186 C1187 1.400 . S
C1187 C1186 1.400 . S
C1187 C1188 1.398 . S
C1187 C1193 1.491 . S
C1188 H1179 0.950 . S
C1188 C1187 1.398 . S
C1188 C1189 1.391 . S
C1189 H1177 0.950 . S
C1189 C1185 1.393 . S
C1189 C1188 1.391 . S
C1190 H1180 0.950 . S
C1190 C1191 1.386 . S
C1190 C1192 1.391 . S
C1191 C1190 1.386 . S
C1191 C1195 1.393 . S
C1192 H1181 0.950 . S
C1192 C1190 1.391 . S
C1192 C1193 1.400 . S
C1193 C1187 1.491 . S
C1193 C1192 1.400 . S
C1193 C1194 1.398 . S
C1194 H1182 0.950 . S
C1194 C1193 1.398 . S
C1194 C1195 1.391 . S
C1195 H1183 0.950 . S
C1195 C1191 1.393 . S
C1195 C1194 1.391 . S
H1196 C1204 0.950 . S
H1197 C1209 0.950 . S
H1198 C1206 0.950 . S
H1199 C1208 0.950 . S
H1200 C1210 0.950 . S
H1201 C1212 0.950 . S
H1202 C1214 0.950 . S
H1203 C1215 0.950 . S
C1204 H1196 0.950 . S
C1204 C1205 1.386 . S
C1204 C1206 1.391 . S
C1205 C1204 1.386 . S
C1205 C1209 1.393 . S
C1206 H1198 0.950 . S
C1206 C1204 1.391 . S
C1206 C1207 1.400 . S
C1207 C1206 1.400 . S
C1207 C1208 1.398 . S
C1207 C1213 1.491 . S
C1208 H1199 0.950 . S
C1208 C1207 1.398 . S
C1208 C1209 1.391 . S
C1209 H1197 0.950 . S
C1209 C1205 1.393 . S
C1209 C1208 1.391 . S
C1210 H1200 0.950 . S
C1210 C1211 1.386 . S
C1210 C1212 1.391 . S
C1211 C1210 1.386 . S
C1211 C1215 1.393 . S
C1212 H1201 0.950 . S
C1212 C1210 1.391 . S
C1212 C1213 1.400 . S
C1213 C1207 1.491 . S
C1213 C1212 1.400 . S
C1213 C1214 1.398 . S
C1214 H1202 0.950 . S
C1214 C1213 1.398 . S
C1214 C1215 1.391 . S
C1215 H1203 0.950 . S
C1215 C1211 1.393 . S
C1215 C1214 1.391 . S
H1216 C1224 0.950 . S
H1217 C1229 0.950 . S
H1218 C1226 0.950 . S
H1219 C1228 0.950 . S
H1220 C1230 0.950 . S
H1221 C1232 0.950 . S
H1222 C1234 0.950 . S
H1223 C1235 0.950 . S
C1224 H1216 0.950 . S
C1224 C1225 1.386 . S
C1224 C1226 1.391 . S
C1225 C1224 1.386 . S
C1225 C1229 1.393 . S
C1226 H1218 0.950 . S
C1226 C1224 1.391 . S
C1226 C1227 1.400 . S
C1227 C1226 1.400 . S
C1227 C1228 1.398 . S
C1227 C1233 1.491 . S
C1228 H1219 0.950 . S
C1228 C1227 1.398 . S
C1228 C1229 1.391 . S
C1229 H1217 0.950 . S
C1229 C1225 1.393 . S
C1229 C1228 1.391 . S
C1230 H1220 0.950 . S
C1230 C1231 1.386 . S
C1230 C1232 1.391 . S
C1231 C1230 1.386 . S
C1231 C1235 1.393 . S
C1232 H1221 0.950 . S
C1232 C1230 1.391 . S
C1232 C1233 1.400 . S
C1233 C1227 1.491 . S
C1233 C1232 1.400 . S
C1233 C1234 1.398 . S
C1234 H1222 0.950 . S
C1234 C1233 1.398 . S
C1234 C1235 1.391 . S
C1235 H1223 0.950 . S
C1235 C1231 1.393 . S
C1235 C1234 1.391 . S
H1236 C1244 0.950 . S
H1237 C1249 0.950 . S
H1238 C1246 0.950 . S
H1239 C1248 0.950 . S
H1240 C1250 0.950 . S
H1241 C1252 0.950 . S
H1242 C1254 0.950 . S
H1243 C1255 0.950 . S
C1244 H1236 0.950 . S
C1244 C1245 1.386 . S
C1244 C1246 1.391 . S
C1245 C1244 1.386 . S
C1245 C1249 1.393 . S
C1246 H1238 0.950 . S
C1246 C1244 1.391 . S
C1246 C1247 1.400 . S
C1247 C1246 1.400 . S
C1247 C1248 1.398 . S
C1247 C1253 1.491 . S
C1248 H1239 0.950 . S
C1248 C1247 1.398 . S
C1248 C1249 1.391 . S
C1249 H1237 0.950 . S
C1249 C1245 1.393 . S
C1249 C1248 1.391 . S
C1250 H1240 0.950 . S
C1250 C1251 1.386 . S
C1250 C1252 1.391 . S
C1251 C1250 1.386 . S
C1251 C1255 1.393 . S
C1252 H1241 0.950 . S
C1252 C1250 1.391 . S
C1252 C1253 1.400 . S
C1253 C1247 1.491 . S
C1253 C1252 1.400 . S
C1253 C1254 1.398 . S
C1254 H1242 0.950 . S
C1254 C1253 1.398 . S
C1254 C1255 1.391 . S
C1255 H1243 0.950 . S
C1255 C1251 1.393 . S
C1255 C1254 1.391 . S
H1256 C1264 0.950 . S
H1257 C1269 0.950 . S
H1258 C1266 0.950 . S
H1259 C1268 0.950 . S
H1260 C1270 0.950 . S
H1261 C1272 0.950 . S
H1262 C1274 0.950 . S
H1263 C1275 0.950 . S
C1264 H1256 0.950 . S
C1264 C1265 1.386 . S
C1264 C1266 1.391 . S
C1265 C1264 1.386 . S
C1265 C1269 1.393 . S
C1266 H1258 0.950 . S
C1266 C1264 1.391 . S
C1266 C1267 1.400 . S
C1267 C1266 1.400 . S
C1267 C1268 1.398 . S
C1267 C1273 1.491 . S
C1268 H1259 0.950 . S
C1268 C1267 1.398 . S
C1268 C1269 1.391 . S
C1269 H1257 0.950 . S
C1269 C1265 1.393 . S
C1269 C1268 1.391 . S
C1270 H1260 0.950 . S
C1270 C1271 1.386 . S
C1270 C1272 1.391 . S
C1271 C1270 1.386 . S
C1271 C1275 1.393 . S
C1272 H1261 0.950 . S
C1272 C1270 1.391 . S
C1272 C1273 1.400 . S
C1273 C1267 1.491 . S
C1273 C1272 1.400 . S
C1273 C1274 1.398 . S
C1274 H1262 0.950 . S
C1274 C1273 1.398 . S
C1274 C1275 1.391 . S
C1275 H1263 0.950 . S
C1275 C1271 1.393 . S
C1275 C1274 1.391 . S
H1276 C1284 0.950 . S
H1277 C1289 0.950 . S
H1278 C1286 0.950 . S
H1279 C1288 0.950 . S
H1280 C1290 0.950 . S
H1281 C1292 0.950 . S
H1282 C1294 0.950 . S
H1283 C1295 0.950 . S
C1284 H1276 0.950 . S
C1284 C1285 1.386 . S
C1284 C1286 1.391 . S
C1285 C1284 1.386 . S
C1285 C1289 1.393 . S
C1286 H1278 0.950 . S
C1286 C1284 1.391 . S
C1286 C1287 1.400 . S
C1287 C1286 1.400 . S
C1287 C1288 1.398 . S
C1287 C1293 1.491 . S
C1288 H1279 0.950 . S
C1288 C1287 1.398 . S
C1288 C1289 1.391 . S
C1289 H1277 0.950 . S
C1289 C1285 1.393 . S
C1289 C1288 1.391 . S
C1290 H1280 0.950 . S
C1290 C1291 1.386 . S
C1290 C1292 1.391 . S
C1291 C1290 1.386 . S
C1291 C1295 1.393 . S
C1292 H1281 0.950 . S
C1292 C1290 1.391 . S
C1292 C1293 1.400 . S
C1293 C1287 1.491 . S
C1293 C1292 1.400 . S
C1293 C1294 1.398 . S
C1294 H1282 0.950 . S
C1294 C1293 1.398 . S
C1294 C1295 1.391 . S
C1295 H1283 0.950 . S
C1295 C1291 1.393 . S
C1295 C1294 1.391 . S
C345 C309 1.604 . S
C351 C0 1.603 . S
C365 C15 1.600 . S
C371 C335 1.603 . S
C385 C281 1.609 . S
C391 C40 1.613 . S
C405 C295 1.600 . S
C411 C54 1.598 . S
C425 C294 1.598 . S
C431 C69 1.600 . S
C445 C82 1.601 . S
C451 C308 1.597 . S
C465 C334 1.600 . S
C471 C96 1.596 . S
C485 C110 1.611 . S
C491 C280 1.614 . S
C505 C124 1.604 . S
C511 C279 1.598 . S
C525 C224 1.609 . S
C531 C126 1.606 . S
C545 C140 1.602 . S
C551 C250 1.598 . S
C565 C252 1.598 . S
C571 C167 1.593 . S
C585 C166 1.600 . S
C591 C182 1.604 . S
C605 C125 1.602 . S
C611 C197 1.606 . S
C625 C211 1.605 . S
C631 C127 1.608 . S
C645 C141 1.599 . S
C651 C180 1.604 . S
C665 C14 1.610 . S
C671 C253 1.606 . S
C685 C196 1.609 . S
C691 C111 1.605 . S
C705 C68 1.602 . S
C711 C210 1.598 . S
C725 C181 1.605 . S
C731 C83 1.609 . S
C745 C97 1.603 . S
C751 C183 1.607 . S
C765 C55 1.599 . S
C771 C225 1.602 . S
C785 C1 1.609 . S
C791 C251 1.612 . S
C805 C41 1.601 . S
C811 C278 1.600 . S
C825 C85 1.602 . S
C831 C292 1.604 . S
C845 C306 1.602 . S
C851 C99 1.601 . S
C865 C320 1.605 . S
C871 C56 1.602 . S
C885 C322 1.597 . S
C891 C71 1.603 . S
C905 C29 1.606 . S
C911 C323 1.603 . S
C925 C43 1.605 . S
C931 C293 1.608 . S
C945 C13 1.605 . S
C951 C307 1.608 . S
C965 C321 1.606 . S
C971 C26 1.601 . S
C985 C153 1.606 . S
C991 C195 1.609 . S
C1005 C154 1.600 . S
C1011 C208 1.603 . S
C1025 C113 1.602 . S
C1031 C222 1.603 . S
C1045 C139 1.601 . S
C1051 C169 1.605 . S
C1065 C138 1.610 . S
C1071 C266 1.606 . S
C1085 C237 1.609 . S
C1091 C152 1.605 . S
C1105 C155 1.598 . S
C1111 C239 1.595 . S
C1125 C112 1.609 . S
C1131 C265 1.607 . S
C1145 C168 1.599 . S
C1151 C98 1.603 . S
C1165 C236 1.604 . S
C1171 C27 1.608 . S
C1185 C28 1.597 . S
C1191 C238 1.600 . S
C1205 C264 1.609 . S
C1211 C42 1.606 . S
C1225 C267 1.601 . S
C1231 C12 1.597 . S
C1245 C70 1.602 . S
C1251 C209 1.599 . S
C1265 C223 1.607 . S
C1271 C84 1.602 . S
C1285 C194 1.597 . S
C1291 C57 1.602 . S
