# Generated by pormake.
# Topology mok, (4)-cn, num edge types: 1
# Building blocks:
#     Node 0, Type 0, BuildingBlock: KUFVIS_clean_sbu_0, # of connection points: 4
#     Node 1, Type 0, BuildingBlock: KUFVIS_clean_sbu_0, # of connection points: 4
#     Node 2, Type 0, BuildingBlock: KUFVIS_clean_sbu_0, # of connection points: 4
#     Node 3, Type 0, BuildingBlock: KUFVIS_clean_sbu_0, # of connection points: 4
#     Node 4, Type 0, BuildingBlock: KUFVIS_clean_sbu_0, # of connection points: 4
#     Node 5, Type 0, BuildingBlock: KUFVIS_clean_sbu_0, # of connection points: 4
#     Node 6, Type 0, BuildingBlock: KUFVIS_clean_sbu_0, # of connection points: 4
#     Node 7, Type 0, BuildingBlock: KUFVIS_clean_sbu_0, # of connection points: 4
#     Edge 8, Type (0, 0), BuildingBlock: KIFKEQ_clean_linker_1, # of connection points: 2
#     Edge 9, Type (0, 0), BuildingBlock: KIFKEQ_clean_linker_1, # of connection points: 2
#     Edge 10, Type (0, 0), BuildingBlock: KIFKEQ_clean_linker_1, # of connection points: 2
#     Edge 11, Type (0, 0), BuildingBlock: KIFKEQ_clean_linker_1, # of connection points: 2
#     Edge 12, Type (0, 0), BuildingBlock: KIFKEQ_clean_linker_1, # of connection points: 2
#     Edge 13, Type (0, 0), BuildingBlock: KIFKEQ_clean_linker_1, # of connection points: 2
#     Edge 14, Type (0, 0), BuildingBlock: KIFKEQ_clean_linker_1, # of connection points: 2
#     Edge 15, Type (0, 0), BuildingBlock: KIFKEQ_clean_linker_1, # of connection points: 2
#     Edge 16, Type (0, 0), BuildingBlock: KIFKEQ_clean_linker_1, # of connection points: 2
#     Edge 17, Type (0, 0), BuildingBlock: KIFKEQ_clean_linker_1, # of connection points: 2
#     Edge 18, Type (0, 0), BuildingBlock: KIFKEQ_clean_linker_1, # of connection points: 2
#     Edge 19, Type (0, 0), BuildingBlock: KIFKEQ_clean_linker_1, # of connection points: 2
#     Edge 20, Type (0, 0), BuildingBlock: KIFKEQ_clean_linker_1, # of connection points: 2
#     Edge 21, Type (0, 0), BuildingBlock: KIFKEQ_clean_linker_1, # of connection points: 2
#     Edge 22, Type (0, 0), BuildingBlock: KIFKEQ_clean_linker_1, # of connection points: 2
#     Edge 23, Type (0, 0), BuildingBlock: KIFKEQ_clean_linker_1, # of connection points: 2
# Relax obj value: 0.032
# Max RMSD: 0.055
# Mean RMSD: 0.055
data_MOF--net-mok--node1-KUFVIS_clean_sbu_0--edge1-KIFKEQ_clean_linker_1
_symmetry_space_group_name_H-M    P1
_symmetry_Int_Tables_number       1
_symmetry_cell_setting            triclinic
loop_
_symmetry_equiv_pos_as_xyz
'x, y, z'
_cell_length_a     53.338202
_cell_length_b     16.74359
_cell_length_c     26.886153
_cell_angle_alpha  89.996408
_cell_angle_beta   90.001056
_cell_angle_gamma 89.988686
loop_
_atom_site_label
_atom_site_type_symbol
_atom_site_fract_x
_atom_site_fract_y
_atom_site_fract_z
_atom_type_partial_charge
Mn0 Mn 0.62969 0.30516 0.00337 0.0
Mn1 Mn 0.57782 0.41994 0.99203 0.0
C2 C 0.61781 0.35463 0.9263 0.0
C3 C 0.67274 0.29072 0.01798 0.0
C4 C 0.57597 0.24036 0.007 0.0
O5 O 0.6231 0.34174 0.07464 0.0
O6 O 0.59044 0.4249 0.06122 0.0
C7 C 0.59982 0.58005 0.00898 0.0
N8 N 0.58675 0.52862 0.97954 0.0
C9 C 0.58007 0.63051 0.9178 0.0
C10 C 0.59336 0.6847 0.94756 0.0
C11 C 0.60334 0.65926 0.99328 0.0
C12 C 0.57713 0.55241 0.93544 0.0
H13 H 0.60745 0.56076 0.0442 0.0
C14 C 0.60699 0.39308 0.08955 0.0
O15 O 0.65724 0.2319 0.02443 0.0
O16 O 0.66321 0.35851 0.00415 0.0
N17 N 0.56406 0.42064 0.92641 0.0
C18 C 0.55288 0.35984 0.90107 0.0
C19 C 0.54257 0.37458 0.85398 0.0
C20 C 0.54378 0.45161 0.83364 0.0
C21 C 0.55522 0.51344 0.86048 0.0
C22 C 0.56506 0.49524 0.90736 0.0
H23 H 0.55192 0.30045 0.9165 0.0
O24 O 0.63218 0.29224 0.92933 0.0
O25 O 0.61083 0.38578 0.96822 0.0
O26 O 0.5996 0.22849 0.00625 0.0
O27 O 0.56617 0.30965 0.00355 0.0
C28 C 0.55751 0.59211 0.84243 0.0
C29 C 0.56995 0.65057 0.87103 0.0
H30 H 0.59617 0.74579 0.93553 0.0
H31 H 0.61369 0.70067 0.01637 0.0
H32 H 0.53369 0.32677 0.83342 0.0
H33 H 0.53574 0.46234 0.79749 0.0
H34 H 0.55 0.6083 0.80644 0.0
H35 H 0.57186 0.71056 0.85645 0.0
Mn36 Mn 0.40424 0.70077 0.00119 0.0
Mn37 Mn 0.45613 0.58619 0.98937 0.0
C38 C 0.41646 0.65354 0.92377 0.0
C39 C 0.36106 0.71472 0.01514 0.0
C40 C 0.45803 0.76532 0.00597 0.0
O41 O 0.4104 0.66172 0.07207 0.0
O42 O 0.44348 0.58041 0.05852 0.0
C43 C 0.43395 0.42613 0.00551 0.0
N44 N 0.44709 0.47777 0.97635 0.0
C45 C 0.45377 0.3765 0.91424 0.0
C46 C 0.44039 0.3221 0.9437 0.0
C47 C 0.43037 0.34712 0.98946 0.0
C48 C 0.45675 0.45438 0.9322 0.0
H49 H 0.42628 0.44508 0.04078 0.0
C50 C 0.42669 0.61092 0.08686 0.0
O51 O 0.37657 0.77301 0.02323 0.0
O52 O 0.3707 0.64782 1.00002 0.0
N53 N 0.46995 0.58612 0.9238 0.0
C54 C 0.4812 0.64713 0.89875 0.0
C55 C 0.49151 0.63284 0.85162 0.0
C56 C 0.49026 0.55604 0.83095 0.0
C57 C 0.47877 0.49399 0.85751 0.0
C58 C 0.4689 0.51175 0.90442 0.0
H59 H 0.48219 0.70633 0.91445 0.0
O60 O 0.40219 0.71614 0.92723 0.0
O61 O 0.42323 0.62119 0.96548 0.0
O62 O 0.43438 0.77712 0.00582 0.0
O63 O 0.46784 0.69622 0.00141 0.0
C64 C 0.47647 0.41551 0.83915 0.0
C65 C 0.46395 0.35684 0.86746 0.0
H66 H 0.43755 0.26116 0.93141 0.0
H67 H 0.41996 0.30555 0.01233 0.0
H68 H 0.50044 0.68082 0.83128 0.0
H69 H 0.49832 0.54563 0.79477 0.0
H70 H 0.48402 0.39963 0.80316 0.0
H71 H 0.46202 0.29701 0.85263 0.0
Mn72 Mn 0.62986 0.70052 0.52456 0.0
Mn73 Mn 0.57792 0.58643 0.53688 0.0
C74 C 0.61759 0.6543 0.60219 0.0
C75 C 0.67308 0.71384 0.51065 0.0
C76 C 0.57609 0.76541 0.51957 0.0
O77 O 0.62372 0.66072 0.45385 0.0
O78 O 0.59053 0.58007 0.46772 0.0
C79 C 0.60008 0.42621 0.52113 0.0
N80 N 0.58695 0.47808 0.55019 0.0
C81 C 0.58034 0.37729 0.61261 0.0
C82 C 0.59369 0.32266 0.58327 0.0
C83 C 0.60367 0.34732 0.53741 0.0
C84 C 0.57734 0.45505 0.59444 0.0
H85 H 0.60771 0.44488 0.48579 0.0
C86 C 0.60736 0.61002 0.43926 0.0
O87 O 0.65762 0.77222 0.50226 0.0
O88 O 0.66336 0.64724 0.52605 0.0
N89 N 0.56413 0.58686 0.60247 0.0
C90 C 0.55286 0.64803 0.62733 0.0
C91 C 0.54256 0.63408 0.67452 0.0
C92 C 0.54384 0.55745 0.69543 0.0
C93 C 0.55535 0.49522 0.66905 0.0
C94 C 0.5652 0.51264 0.62208 0.0
H95 H 0.55184 0.7071 0.61144 0.0
O96 O 0.6319 0.71676 0.59846 0.0
O97 O 0.61083 0.62152 0.56063 0.0
O98 O 0.59975 0.77704 0.51954 0.0
O99 O 0.56624 0.69643 0.52454 0.0
C100 C 0.55767 0.41686 0.68762 0.0
C101 C 0.57018 0.35798 0.65947 0.0
H102 H 0.59654 0.2618 0.59573 0.0
H103 H 0.61406 0.30557 0.51462 0.0
H104 H 0.53362 0.6822 0.69471 0.0
H105 H 0.53578 0.54732 0.73164 0.0
H106 H 0.55013 0.40119 0.72365 0.0
H107 H 0.57211 0.29825 0.67446 0.0
Mn108 Mn 0.40447 0.30563 0.52264 0.0
Mn109 Mn 0.45638 0.42004 0.53436 0.0
C110 C 0.41673 0.35285 0.60003 0.0
C111 C 0.36126 0.29198 0.5088 0.0
C112 C 0.45825 0.24086 0.51779 0.0
O113 O 0.41061 0.34461 0.45175 0.0
O114 O 0.44369 0.42585 0.46522 0.0
C115 C 0.4342 0.58014 0.51825 0.0
N116 N 0.44736 0.52848 0.5474 0.0
C117 C 0.45403 0.62971 0.60953 0.0
C118 C 0.44064 0.68413 0.58009 0.0
C119 C 0.43062 0.65913 0.53432 0.0
C120 C 0.45702 0.55183 0.59155 0.0
H121 H 0.42653 0.56121 0.48299 0.0
C122 C 0.42689 0.3954 0.43693 0.0
O123 O 0.37673 0.23356 0.50068 0.0
O124 O 0.37096 0.3588 0.52387 0.0
N125 N 0.47024 0.42008 0.5999 0.0
C126 C 0.48153 0.3591 0.6249 0.0
C127 C 0.49189 0.3734 0.67199 0.0
C128 C 0.49065 0.45018 0.69268 0.0
C129 C 0.47909 0.51221 0.66619 0.0
C130 C 0.46919 0.49445 0.6193 0.0
H131 H 0.48254 0.29991 0.60918 0.0
O132 O 0.40245 0.29031 0.59661 0.0
O133 O 0.42349 0.38513 0.5583 0.0
O134 O 0.4346 0.22913 0.518 0.0
O135 O 0.46807 0.30995 0.5223 0.0
C136 C 0.47677 0.59068 0.68456 0.0
C137 C 0.46422 0.64934 0.6563 0.0
H138 H 0.4378 0.74506 0.59239 0.0
H139 H 0.4202 0.70072 0.51147 0.0
H140 H 0.50087 0.32543 0.69228 0.0
H141 H 0.49875 0.46058 0.72884 0.0
H142 H 0.48433 0.60659 0.72053 0.0
H143 H 0.46229 0.70917 0.67114 0.0
Mn144 Mn 0.12968 0.80625 0.00171 0.0
Mn145 Mn 0.07753 0.91952 0.98982 0.0
C146 C 0.11742 0.8535 0.92423 0.0
C147 C 0.17288 0.79302 0.01569 0.0
C148 C 0.07604 0.7402 0.00611 0.0
O149 O 0.12342 0.84508 0.07265 0.0
O150 O 0.09005 0.92513 0.05911 0.0
C151 C 0.09932 0.07995 0.00665 0.0
N152 N 0.08636 0.02825 0.9772 0.0
C153 C 0.07976 0.12975 0.9152 0.0
C154 C 0.09293 0.18421 0.94497 0.0
C155 C 0.10282 0.15911 0.99082 0.0
C156 C 0.07683 0.05172 0.93296 0.0
H157 H 0.1069 0.06095 0.04198 0.0
C158 C 0.10695 0.89526 0.08746 0.0
O159 O 0.15746 0.73448 0.02373 0.0
O160 O 0.16314 0.85981 1.00062 0.0
N161 N 0.06384 0.91983 0.92414 0.0
C162 C 0.05274 0.85882 0.89884 0.0
C163 C 0.04255 0.87324 0.85161 0.0
C164 C 0.04378 0.95015 0.83109 0.0
C165 C 0.05512 0.01219 0.8579 0.0
C166 C 0.06485 0.99432 0.90492 0.0
H167 H 0.05177 0.79953 0.91441 0.0
O168 O 0.13179 0.79114 0.9277 0.0
O169 O 0.11055 0.88554 0.96597 0.0
O170 O 0.09972 0.72913 0.00623 0.0
O171 O 0.06605 0.80904 0.00144 0.0
C172 C 0.0574 0.09079 0.83971 0.0
C173 C 0.06973 0.14949 0.8683 0.0
H174 H 0.09572 0.24527 0.93284 0.0
H175 H 0.11308 0.20072 0.01393 0.0
H176 H 0.03374 0.82526 0.83107 0.0
H177 H 0.03582 0.96067 0.79483 0.0
H178 H 0.04997 0.10677 0.80365 0.0
H179 H 0.07163 0.20942 0.85362 0.0
Mn180 Mn 0.9043 0.20297 0.00328 0.0
Mn181 Mn 0.95541 0.08484 0.9928 0.0
C182 C 0.91611 0.15288 0.92632 0.0
C183 C 0.8613 0.21897 0.0178 0.0
C184 C 0.9582 0.26452 0.00855 0.0
O185 O 0.91074 0.16664 0.07468 0.0
O186 O 0.94193 0.07783 0.0614 0.0
C187 C 0.93199 0.92589 0.00628 0.0
N188 N 0.94603 0.9771 0.9785 0.0
C189 C 0.95298 0.87664 0.91598 0.0
C190 C 0.93888 0.82249 0.94426 0.0
C191 C 0.92824 0.84737 0.98948 0.0
C192 C 0.95617 0.95399 0.93471 0.0
H193 H 0.92364 0.94491 0.04087 0.0
C194 C 0.92568 0.11177 0.08949 0.0
O195 O 0.87698 0.27736 0.02415 0.0
O196 O 0.87061 0.15085 0.00408 0.0
N197 N 0.96982 0.0855 0.92764 0.0
C198 C 0.98131 0.14665 0.90317 0.0
C199 C 0.99189 0.13284 0.85618 0.0
C200 C 0.99064 0.05636 0.83503 0.0
C201 C 0.9789 0.99418 0.86099 0.0
C202 C 0.96877 0.01142 0.90778 0.0
H203 H 0.98228 0.20563 0.91918 0.0
O204 O 0.90193 0.21574 0.92918 0.0
O205 O 0.92284 0.12155 0.96833 0.0
O206 O 0.93469 0.27795 0.00613 0.0
O207 O 0.9676 0.19445 0.00618 0.0
C208 C 0.9765 0.91611 0.84202 0.0
C209 C 0.96354 0.8574 0.86947 0.0
H210 H 0.93584 0.76199 0.93132 0.0
H211 H 0.91713 0.80615 0.0113 0.0
H212 H 1.00099 0.18099 0.8363 0.0
H213 H 0.99881 0.04623 0.79886 0.0
H214 H 0.98424 0.90069 0.8061 0.0
H215 H 0.96146 0.79798 0.85409 0.0
Mn216 Mn 0.12976 0.20263 0.52299 0.0
Mn217 Mn 0.07757 0.08952 0.53465 0.0
C218 C 0.11745 0.15516 0.60038 0.0
C219 C 0.17298 0.21563 0.50905 0.0
C220 C 0.07612 0.26894 0.51869 0.0
O221 O 0.12351 0.16413 0.45199 0.0
O222 O 0.09009 0.08429 0.46535 0.0
C223 C 0.09939 0.92919 0.51747 0.0
N224 N 0.0864 0.98071 0.54703 0.0
C225 C 0.07982 0.87885 0.6088 0.0
C226 C 0.09301 0.82457 0.57892 0.0
C227 C 0.1029 0.84995 0.53314 0.0
C228 C 0.07687 0.95698 0.5912 0.0
H229 H 0.10697 0.94841 0.4822 0.0
C230 C 0.107 0.11418 0.43706 0.0
O231 O 0.15759 0.27431 0.5011 0.0
O232 O 0.1632 0.14887 0.52403 0.0
N233 N 0.06385 0.08881 0.60032 0.0
C234 C 0.05269 0.14961 0.62571 0.0
C235 C 0.04243 0.13486 0.67283 0.0
C236 C 0.04366 0.05782 0.69317 0.0
C237 C 0.05509 0.996 0.66629 0.0
C238 C 0.06487 0.0142 0.61937 0.0
H239 H 0.05171 0.209 0.61025 0.0
O240 O 0.13185 0.21745 0.59702 0.0
O241 O 0.11059 0.12329 0.5586 0.0
O242 O 0.0998 0.27991 0.51855 0.0
O243 O 0.06611 0.20012 0.52328 0.0
C244 C 0.0574 0.91731 0.68432 0.0
C245 C 0.06978 0.85882 0.65563 0.0
H246 H 0.09581 0.76345 0.59092 0.0
H247 H 0.11318 0.80848 0.50995 0.0
H248 H 0.03355 0.18266 0.69342 0.0
H249 H 0.03563 0.04704 0.72934 0.0
H250 H 0.04995 0.9011 0.72033 0.0
H251 H 0.07169 0.7988 0.67019 0.0
Mn252 Mn 0.90445 0.80674 0.52491 0.0
Mn253 Mn 0.95566 0.92424 0.53612 0.0
C254 C 0.91672 0.85375 0.60233 0.0
C255 C 0.86127 0.79184 0.51126 0.0
C256 C 0.9584 0.74514 0.51807 0.0
O257 O 0.91037 0.84618 0.45407 0.0
O258 O 0.94211 0.93281 0.46759 0.0
C259 C 0.93218 0.08341 0.52398 0.0
N260 N 0.94623 0.03162 0.55135 0.0
C261 C 0.95313 0.13074 0.61468 0.0
C262 C 0.93902 0.18546 0.58685 0.0
C263 C 0.9284 0.16155 0.54142 0.0
C264 C 0.95636 0.0538 0.59531 0.0
H265 H 0.92386 0.06516 0.4892 0.0
C266 C 0.92554 0.90052 0.4395 0.0
O267 O 0.8769 0.73388 0.50294 0.0
O268 O 0.8708 0.85881 0.52647 0.0
N269 N 0.97013 0.92226 0.60121 0.0
C270 C 0.98164 0.86061 0.62517 0.0
C271 C 0.99215 0.87336 0.67233 0.0
C272 C 0.99083 0.94934 0.69418 0.0
C273 C 0.97909 0.01208 0.6687 0.0
C274 C 0.96901 0.99585 0.62174 0.0
H275 H 0.98266 0.80201 0.60862 0.0
O276 O 0.90262 0.79079 0.59887 0.0
O277 O 0.9232 0.88664 0.56063 0.0
O278 O 0.93485 0.73186 0.51989 0.0
O279 O 0.96784 0.81497 0.5218 0.0
C280 C 0.97666 0.08974 0.6883 0.0
C281 C 0.96369 0.14901 0.66133 0.0
H282 H 0.93596 0.24567 0.6003 0.0
H283 H 0.91729 0.20322 0.51993 0.0
H284 H 1.00125 0.8248 0.69182 0.0
H285 H 0.99894 0.95864 0.7305 0.0
H286 H 0.98441 0.10448 0.72431 0.0
H287 H 0.96161 0.2081 0.67719 0.0
H288 H 0.82623 0.10769 0.04341 0.0
H289 H 0.83461 0.35592 0.00427 0.0
H290 H 0.78105 0.12527 0.04979 0.0
H291 H 0.78938 0.37293 0.00636 0.0
H292 H 0.70775 0.40307 0.04243 0.0
H293 H 0.75298 0.38598 0.04868 0.0
H294 H 0.74478 0.13745 0.00717 0.0
H295 H 0.69957 0.15402 0.00517 0.0
C296 C 0.8183 0.166 0.03582 0.0
C297 C 0.83392 0.23043 0.02346 0.0
C298 C 0.79228 0.17616 0.03892 0.0
C299 C 0.78106 0.25056 0.02817 0.0
C300 C 0.79696 0.31505 0.01604 0.0
C301 C 0.82303 0.30532 0.01441 0.0
C302 C 0.71573 0.34469 0.03523 0.0
C303 C 0.70016 0.27986 0.02347 0.0
C304 C 0.74178 0.33481 0.03827 0.0
C305 C 0.75304 0.26026 0.0281 0.0
C306 C 0.73718 0.19545 0.01647 0.0
C307 C 0.71111 0.20493 0.01488 0.0
H308 H 0.19846 0.66117 0.04818 0.0
H309 H 0.20966 0.90183 0.9949 0.0
H310 H 0.24377 0.6423 0.05274 0.0
H311 H 0.25492 0.88244 0.9982 0.0
H312 H 0.3356 0.84697 0.04748 0.0
H313 H 0.29031 0.86609 0.05232 0.0
H314 H 0.27895 0.62581 0.99821 0.0
H315 H 0.32418 0.60619 0.99463 0.0
C316 C 0.21059 0.71015 0.03754 0.0
C317 C 0.20042 0.78298 0.02111 0.0
C318 C 0.23661 0.69916 0.03983 0.0
C319 C 0.25312 0.76066 0.02562 0.0
C320 C 0.24287 0.83402 0.01007 0.0
C321 C 0.21686 0.84505 0.00791 0.0
C322 C 0.32343 0.79802 0.037 0.0
C323 C 0.33354 0.72507 0.02062 0.0
C324 C 0.29742 0.80916 0.03944 0.0
C325 C 0.28085 0.74766 0.02547 0.0
C326 C 0.29105 0.67422 0.00993 0.0
C327 C 0.31704 0.66306 0.00759 0.0
H328 H 0.83586 0.65923 0.4792 0.0
H329 H 0.82436 0.90024 0.53162 0.0
H330 H 0.79055 0.6401 0.4743 0.0
H331 H 0.77915 0.88063 0.52796 0.0
H332 H 0.69871 0.84545 0.4779 0.0
H333 H 0.74402 0.86406 0.47332 0.0
H334 H 0.75508 0.62415 0.52834 0.0
H335 H 0.70982 0.60503 0.53168 0.0
C336 C 0.82367 0.70821 0.48958 0.0
C337 C 0.83376 0.78124 0.50584 0.0
C338 C 0.79765 0.69709 0.48709 0.0
C339 C 0.78107 0.75868 0.50089 0.0
C340 C 0.79125 0.83216 0.51636 0.0
C341 C 0.81723 0.8433 0.51875 0.0
C342 C 0.71082 0.79647 0.48864 0.0
C343 C 0.70061 0.72379 0.50523 0.0
C344 C 0.73684 0.8073 0.48634 0.0
C345 C 0.75333 0.74579 0.50068 0.0
C346 C 0.74305 0.67257 0.51637 0.0
C347 C 0.71704 0.6617 0.51856 0.0
H348 H 0.20969 0.10644 0.52966 0.0
H349 H 0.19865 0.34729 0.47658 0.0
H350 H 0.25496 0.12533 0.52615 0.0
H351 H 0.24397 0.36567 0.47181 0.0
H352 H 0.3245 0.40089 0.52942 0.0
H353 H 0.27925 0.38175 0.52605 0.0
H354 H 0.29032 0.1413 0.47197 0.0
H355 H 0.33564 0.15994 0.4766 0.0
C356 C 0.21693 0.16316 0.51666 0.0
C357 C 0.20052 0.22543 0.50357 0.0
C358 C 0.24294 0.1739 0.51437 0.0
C359 C 0.25325 0.24717 0.49881 0.0
C360 C 0.23677 0.30887 0.48473 0.0
C361 C 0.21075 0.29817 0.48713 0.0
C362 C 0.31729 0.34408 0.51651 0.0
C363 C 0.33372 0.28188 0.50343 0.0
C364 C 0.29128 0.3332 0.51429 0.0
C365 C 0.281 0.25985 0.49882 0.0
C366 C 0.2975 0.19817 0.4848 0.0
C367 C 0.32352 0.20902 0.48712 0.0
H368 H 0.645 0.37673 0.15817 0.0
H369 H 0.57057 0.47458 0.13881 0.0
H370 H 0.64616 0.43121 0.24287 0.0
H371 H 0.57197 0.52893 0.22228 0.0
H372 H 0.57084 0.5278 0.39072 0.0
H373 H 0.57203 0.47252 0.30747 0.0
H374 H 0.64633 0.56891 0.28602 0.0
H375 H 0.64537 0.62435 0.37046 0.0
C376 C 0.62888 0.40921 0.172 0.0
C377 C 0.60766 0.42092 0.14178 0.0
C378 C 0.62967 0.44105 0.22018 0.0
C379 C 0.60915 0.48422 0.23903 0.0
C380 C 0.58796 0.49527 0.20892 0.0
C381 C 0.58722 0.46418 0.16096 0.0
C382 C 0.58748 0.53766 0.36845 0.0
C383 C 0.60799 0.58092 0.38729 0.0
C384 C 0.5881 0.50601 0.32062 0.0
C385 C 0.60925 0.5165 0.2903 0.0
C386 C 0.62986 0.55948 0.30886 0.0
C387 C 0.62919 0.59186 0.35691 0.0
H388 H 0.46317 0.52922 0.13587 0.0
H389 H 0.38865 0.6262 0.15549 0.0
H390 H 0.46193 0.47495 0.21938 0.0
H391 H 0.38763 0.57174 0.24018 0.0
H392 H 0.38887 0.37961 0.36828 0.0
H393 H 0.38775 0.43417 0.28362 0.0
H394 H 0.46187 0.53225 0.30449 0.0
H395 H 0.46321 0.47787 0.38797 0.0
C396 C 0.44652 0.53939 0.15806 0.0
C397 C 0.42603 0.58246 0.13896 0.0
C398 C 0.44588 0.50834 0.20604 0.0
C399 C 0.42471 0.51923 0.23624 0.0
C400 C 0.40411 0.56204 0.21743 0.0
C401 C 0.40481 0.59385 0.16923 0.0
C402 C 0.40497 0.41227 0.35456 0.0
C403 C 0.42617 0.42396 0.38484 0.0
C404 C 0.40421 0.44413 0.30638 0.0
C405 C 0.42473 0.48733 0.2876 0.0
C406 C 0.44588 0.49855 0.31781 0.0
C407 C 0.44658 0.46744 0.36578 0.0
H408 H 0.40396 0.50002 0.90714 0.0
H409 H 0.43194 0.71082 0.83378 0.0
H410 H 0.40578 0.42637 0.82902 0.0
H411 H 0.43419 0.63708 0.7551 0.0
H412 H 0.40423 0.50644 0.61648 0.0
H413 H 0.40592 0.58018 0.69457 0.0
H414 H 0.43422 0.36955 0.76878 0.0
H415 H 0.43215 0.29575 0.69011 0.0
C416 C 0.4109 0.53004 0.8742 0.0
C417 C 0.41846 0.61017 0.87641 0.0
C418 C 0.41201 0.48791 0.82951 0.0
C419 C 0.4204 0.52545 0.78583 0.0
C420 C 0.42759 0.60638 0.78801 0.0
C421 C 0.42638 0.64862 0.83289 0.0
C422 C 0.41114 0.47647 0.64947 0.0
C423 C 0.41872 0.39634 0.64735 0.0
C424 C 0.41217 0.51865 0.69416 0.0
C425 C 0.42047 0.48115 0.73791 0.0
C426 C 0.42769 0.40023 0.7358 0.0
C427 C 0.42658 0.35796 0.69093 0.0
H428 H 0.62994 0.5087 0.91 0.0
H429 H 0.60235 0.29764 0.83637 0.0
H430 H 0.62812 0.58244 0.83185 0.0
H431 H 0.60011 0.37137 0.75774 0.0
H432 H 0.63019 0.50102 0.61926 0.0
H433 H 0.62846 0.42796 0.69758 0.0
H434 H 0.59994 0.639 0.77099 0.0
H435 H 0.60212 0.71222 0.69208 0.0
C436 C 0.62306 0.47867 0.87701 0.0
C437 C 0.61563 0.39842 0.87912 0.0
C438 C 0.62196 0.52083 0.8323 0.0
C439 C 0.61372 0.48316 0.78854 0.0
C440 C 0.60661 0.40217 0.79069 0.0
C441 C 0.6078 0.35994 0.83556 0.0
C442 C 0.62325 0.53126 0.65213 0.0
C443 C 0.61564 0.61132 0.64971 0.0
C444 C 0.62219 0.48946 0.69695 0.0
C445 C 0.61379 0.52724 0.74054 0.0
C446 C 0.60656 0.60813 0.73815 0.0
C447 C 0.60772 0.65006 0.69314 0.0
H448 H 0.14489 0.88017 0.15642 0.0
H449 H 0.0705 0.97779 0.13613 0.0
H450 H 0.14592 0.93563 0.24085 0.0
H451 H 0.07176 0.03315 0.21935 0.0
H452 H 0.07031 0.03355 0.38795 0.0
H453 H 0.07154 0.97837 0.30467 0.0
H454 H 0.14614 0.07272 0.28397 0.0
H455 H 0.14514 0.128 0.36845 0.0
C456 C 0.12875 0.91286 0.16996 0.0
C457 C 0.10757 0.92411 0.13955 0.0
C458 C 0.12946 0.94527 0.21802 0.0
C459 C 0.10891 0.98863 0.23659 0.0
C460 C 0.08778 0.99934 0.20626 0.0
C461 C 0.08712 0.96765 0.15842 0.0
C462 C 0.08702 0.04304 0.36582 0.0
C463 C 0.10761 0.08561 0.38492 0.0
C464 C 0.08766 0.01147 0.31795 0.0
C465 C 0.10891 0.02132 0.28783 0.0
C466 C 0.12959 0.06376 0.30663 0.0
C467 C 0.1289 0.09607 0.35472 0.0
H468 H 0.90428 0.82759 0.35829 0.0
H469 H 0.94182 0.04412 0.40457 0.0
H470 H 0.90177 0.87999 0.27323 0.0
H471 H 0.93871 0.09636 0.32033 0.0
H472 H 0.90509 0.18705 0.17068 0.0
H473 H 0.90252 0.13562 0.25603 0.0
H474 H 0.93821 0.91683 0.20939 0.0
H475 H 0.9414 0.96801 0.125 0.0
C476 C 0.91179 0.88637 0.35048 0.0
C477 C 0.92339 0.93139 0.38811 0.0
C478 C 0.91033 0.91626 0.30195 0.0
C479 C 0.91992 0.9923 0.29059 0.0
C480 C 0.93094 0.03798 0.32836 0.0
C481 C 0.93288 0.00759 0.37648 0.0
C482 C 0.91233 0.12798 0.17869 0.0
C483 C 0.92357 0.0819 0.14111 0.0
C484 C 0.91084 0.09866 0.22738 0.0
C485 C 0.92002 0.02216 0.23891 0.0
C486 C 0.93074 0.97559 0.20123 0.0
C487 C 0.93272 0.00537 0.153 0.0
H488 H 0.93266 0.79628 0.69197 0.0
H489 H 0.90364 0.00656 0.61956 0.0
H490 H 0.93465 0.86938 0.77096 0.0
H491 H 0.9054 0.07967 0.69789 0.0
H492 H 0.93218 0.20965 0.83679 0.0
H493 H 0.93445 0.13611 0.75807 0.0
H494 H 0.90555 0.92567 0.83144 0.0
H495 H 0.90348 0.99936 0.90962 0.0
C496 C 0.92687 0.85827 0.69311 0.0
C497 C 0.91872 0.89681 0.64978 0.0
C498 C 0.92794 0.90011 0.73814 0.0
C499 C 0.92047 0.98074 0.7406 0.0
C500 C 0.91186 0.01836 0.69713 0.0
C501 C 0.91081 0.97657 0.65232 0.0
C502 C 0.92653 0.14752 0.8358 0.0
C503 C 0.91838 0.10916 0.87917 0.0
C504 C 0.92777 0.10542 0.79091 0.0
C505 C 0.92044 0.02466 0.78859 0.0
C506 C 0.91188 0.98711 0.83211 0.0
C507 C 0.91066 0.02921 0.87682 0.0
H508 H 0.10217 0.79637 0.834 0.0
H509 H 0.12971 0.00734 0.90778 0.0
H510 H 0.09999 0.87026 0.75536 0.0
H511 H 0.12801 0.08111 0.82969 0.0
H512 H 0.10217 0.21215 0.69061 0.0
H513 H 0.09999 0.13819 0.76921 0.0
H514 H 0.12796 0.92733 0.69479 0.0
H515 H 0.12968 1.0012 0.61673 0.0
C516 C 0.10766 0.85864 0.83322 0.0
C517 C 0.11543 0.89706 0.87686 0.0
C518 C 0.1065 0.90097 0.78834 0.0
C519 C 0.1136 0.982 0.78624 0.0
C520 C 0.12184 0.01951 0.83005 0.0
C521 C 0.12288 0.9773 0.87476 0.0
C522 C 0.10764 0.14986 0.69136 0.0
C523 C 0.11541 0.11149 0.6477 0.0
C524 C 0.10649 0.10748 0.73622 0.0
C525 C 0.11359 0.02644 0.73829 0.0
C526 C 0.1218 0.98895 0.69445 0.0
C527 C 0.12285 0.03121 0.64976 0.0
H528 H 0.50827 0.76924 0.98585 0.0
H529 H 0.44703 0.91912 0.03448 0.0
H530 H 0.53634 0.88296 0.98802 0.0
H531 H 0.4755 0.03278 0.03903 0.0
H532 H 0.52565 0.23696 0.9876 0.0
H533 H 0.49756 0.12322 0.98935 0.0
H534 H 0.5586 0.97226 0.03803 0.0
H535 H 0.58707 0.08594 0.03389 0.0
C536 C 0.5008 0.82635 0.99765 0.0
C537 C 0.47527 0.83488 0.00978 0.0
C538 C 0.51705 0.89178 0.99928 0.0
C539 C 0.50835 0.96763 0.01375 0.0
C540 C 0.48287 0.97583 0.02679 0.0
C541 C 0.46651 0.91045 0.0245 0.0
C542 C 0.53315 0.17958 0.99878 0.0
C543 C 0.55874 0.17074 0.01037 0.0
C544 C 0.5169 0.11414 1.00018 0.0
C545 C 0.52565 0.03798 0.01388 0.0
C546 C 0.55118 0.02946 0.02637 0.0
C547 C 0.56754 0.09485 0.02431 0.0
H548 H 0.58716 0.91895 0.49056 0.0
H549 H 0.52583 0.76975 0.5395 0.0
H550 H 0.55871 0.03269 0.48553 0.0
H551 H 0.49779 0.88355 0.53679 0.0
H552 H 0.44714 0.08654 0.49049 0.0
H553 H 0.47559 0.97274 0.48637 0.0
H554 H 0.53666 0.12346 0.5351 0.0
H555 H 0.5086 0.23727 0.5369 0.0
C556 C 0.56766 0.91044 0.50049 0.0
C557 C 0.55888 0.83504 0.51546 0.0
C558 C 0.55131 0.97587 0.49792 0.0
C559 C 0.52582 0.96788 0.51088 0.0
C560 C 0.51709 0.89219 0.52558 0.0
C561 C 0.53332 0.82672 0.52751 0.0
C562 C 0.46667 0.0954 0.50004 0.0
C563 C 0.47548 0.17123 0.51406 0.0
C564 C 0.48302 0.02993 0.498 0.0
C565 C 0.50855 0.03833 0.51056 0.0
C566 C 0.51732 0.11446 0.52424 0.0
C567 C 0.50108 0.17995 0.52565 0.0
H568 H 0.02592 0.73449 0.98511 0.0
H569 H 0.08736 0.58684 0.03529 0.0
H570 H 0.99812 0.6202 0.98765 0.0
H571 H 0.05913 0.47253 0.04025 0.0
H572 H 1.00879 0.26616 0.99097 0.0
H573 H 0.03706 0.37978 0.99219 0.0
H574 H 0.97594 0.53249 0.03831 0.0
H575 H 0.9474 0.41922 0.03461 0.0
C576 C 0.03349 0.67775 0.99732 0.0
C577 C 0.059 0.67008 0.00985 0.0
C578 C 0.0174 0.61195 0.99918 0.0
C579 C 0.02619 0.53653 0.01434 0.0
C580 C 0.05167 0.5291 0.02757 0.0
C581 C 0.06789 0.59488 0.02504 0.0
C582 C 1.00135 0.32393 0.00151 0.0
C583 C 0.9757 0.33345 0.01236 0.0
C584 C 0.01768 0.38931 0.00256 0.0
C585 C 1.00894 0.466 0.0152 0.0
C586 C 0.98337 0.47498 0.02731 0.0
C587 C 0.96696 0.40976 0.02554 0.0
H588 H 0.02595 0.27464 0.53926 0.0
H589 H 0.08752 0.42255 0.49011 0.0
H590 H 0.99817 0.38905 0.53686 0.0
H591 H 0.05932 0.537 0.48533 0.0
H592 H 1.00898 0.7429 0.53565 0.0
H593 H 0.0372 0.62921 0.5338 0.0
H594 H 0.9761 0.47758 0.48637 0.0
H595 H 0.94758 0.59096 0.49064 0.0
C596 C 0.03355 0.33147 0.5273 0.0
C597 C 0.05909 0.33916 0.51503 0.0
C598 C 0.01747 0.39734 0.52553 0.0
C599 C 0.02631 0.47287 0.51072 0.0
C600 C 0.05182 0.48033 0.49773 0.0
C601 C 0.06802 0.41447 0.50016 0.0
C602 C 1.00152 0.68539 0.52465 0.0
C603 C 0.97588 0.67621 0.51361 0.0
C604 C 0.01784 0.61996 0.52324 0.0
C605 C 1.00908 0.54352 0.51008 0.0
C606 C 0.98353 0.53489 0.49775 0.0
C607 C 0.96714 0.60018 0.49984 0.0
loop_
_geom_bond_atom_site_label_1
_geom_bond_atom_site_label_2
_geom_bond_distance
_geom_bond_site_symmetry_2
_ccdc_geom_bond_type
Mn0 O5 2.095 . S
Mn0 O15 2.162 . S
Mn0 O16 2.297 . S
Mn0 O24 2.385 1_554 S
Mn0 O25 2.209 1_554 S
Mn0 O26 2.094 . S
Mn1 O6 2.121 . S
Mn1 N8 2.257 1_554 S
Mn1 N17 2.282 1_554 S
Mn1 O25 2.215 1_554 S
Mn1 O27 2.117 . S
C2 O24 1.234 . S
C2 O25 1.283 . S
C3 O15 1.281 . S
C3 O16 1.236 . S
C4 O26 1.240 . S
C4 O27 1.264 . S
O5 Mn0 2.095 . S
O5 C14 1.250 . S
O6 Mn1 2.121 . S
O6 C14 1.258 . S
C7 N8 1.326 1_554 S
C7 C11 1.460 1_554 S
C7 H13 0.929 . S
N8 Mn1 2.257 1_556 S
N8 C7 1.326 1_556 S
N8 C12 1.362 . S
C9 C10 1.258 . S
C9 C12 1.431 . S
C9 C29 1.449 . S
C10 C9 1.258 . S
C10 C11 1.477 . S
C10 H30 0.931 . S
C11 C7 1.460 1_556 S
C11 C10 1.477 . S
C11 H31 0.930 1_556 S
C12 N8 1.362 . S
C12 C9 1.431 . S
C12 C22 1.476 . S
H13 C7 0.929 . S
C14 O5 1.250 . S
C14 O6 1.258 . S
O15 Mn0 2.162 . S
O15 C3 1.281 . S
O16 Mn0 2.297 . S
O16 C3 1.236 . S
N17 Mn1 2.282 1_556 S
N17 C18 1.328 . S
N17 C22 1.318 . S
C18 N17 1.328 . S
C18 C19 1.457 . S
C18 H23 0.929 . S
C19 C18 1.457 . S
C19 C20 1.291 . S
C19 H32 0.931 . S
C20 C19 1.291 . S
C20 C21 1.373 . S
C20 H33 0.929 . S
C21 C20 1.373 . S
C21 C22 1.396 . S
C21 C28 1.403 . S
C22 C12 1.476 . S
C22 N17 1.318 . S
C22 C21 1.396 . S
H23 C18 0.929 . S
O24 Mn0 2.385 1_556 S
O24 C2 1.234 . S
O25 Mn0 2.209 1_556 S
O25 Mn1 2.215 1_556 S
O25 C2 1.283 . S
O26 Mn0 2.094 . S
O26 C4 1.240 . S
O27 Mn1 2.117 . S
O27 C4 1.264 . S
C28 C21 1.403 . S
C28 C29 1.399 . S
C28 H34 0.929 . S
C29 C9 1.449 . S
C29 C28 1.399 . S
C29 H35 0.930 . S
H30 C10 0.931 . S
H31 C11 0.930 1_554 S
H32 C19 0.931 . S
H33 C20 0.929 . S
H34 C28 0.929 . S
H35 C29 0.930 . S
Mn36 O41 2.095 . S
Mn36 O51 2.162 . S
Mn36 O52 2.297 . S
Mn36 O60 2.385 1_554 S
Mn36 O61 2.209 1_554 S
Mn36 O62 2.094 . S
Mn37 O42 2.121 . S
Mn37 N44 2.257 1_554 S
Mn37 N53 2.282 1_554 S
Mn37 O61 2.215 1_554 S
Mn37 O63 2.117 . S
C38 O60 1.234 . S
C38 O61 1.283 . S
C39 O51 1.281 . S
C39 O52 1.236 . S
C40 O62 1.240 . S
C40 O63 1.264 . S
O41 Mn36 2.095 . S
O41 C50 1.250 . S
O42 Mn37 2.121 . S
O42 C50 1.258 . S
C43 N44 1.326 1_554 S
C43 C47 1.460 1_554 S
C43 H49 0.929 . S
N44 Mn37 2.257 1_556 S
N44 C43 1.326 1_556 S
N44 C48 1.362 . S
C45 C46 1.258 . S
C45 C48 1.431 . S
C45 C65 1.449 . S
C46 C45 1.258 . S
C46 C47 1.477 . S
C46 H66 0.931 . S
C47 C43 1.460 1_556 S
C47 C46 1.477 . S
C47 H67 0.930 1_556 S
C48 N44 1.362 . S
C48 C45 1.431 . S
C48 C58 1.476 . S
H49 C43 0.929 . S
C50 O41 1.250 . S
C50 O42 1.258 . S
O51 Mn36 2.162 . S
O51 C39 1.281 . S
O52 Mn36 2.297 . S
O52 C39 1.236 . S
N53 Mn37 2.282 1_556 S
N53 C54 1.328 . S
N53 C58 1.318 . S
C54 N53 1.328 . S
C54 C55 1.457 . S
C54 H59 0.929 . S
C55 C54 1.457 . S
C55 C56 1.291 . S
C55 H68 0.931 . S
C56 C55 1.291 . S
C56 C57 1.373 . S
C56 H69 0.929 . S
C57 C56 1.373 . S
C57 C58 1.396 . S
C57 C64 1.403 . S
C58 C48 1.476 . S
C58 N53 1.318 . S
C58 C57 1.396 . S
H59 C54 0.929 . S
O60 Mn36 2.385 1_556 S
O60 C38 1.234 . S
O61 Mn36 2.209 1_556 S
O61 Mn37 2.215 1_556 S
O61 C38 1.283 . S
O62 Mn36 2.094 . S
O62 C40 1.240 . S
O63 Mn37 2.117 . S
O63 C40 1.264 . S
C64 C57 1.403 . S
C64 C65 1.399 . S
C64 H70 0.929 . S
C65 C45 1.449 . S
C65 C64 1.399 . S
C65 H71 0.930 . S
H66 C46 0.931 . S
H67 C47 0.930 1_554 S
H68 C55 0.931 . S
H69 C56 0.929 . S
H70 C64 0.929 . S
H71 C65 0.930 . S
Mn72 O77 2.095 . S
Mn72 O87 2.162 . S
Mn72 O88 2.297 . S
Mn72 O96 2.385 . S
Mn72 O97 2.209 . S
Mn72 O98 2.094 . S
Mn73 O78 2.121 . S
Mn73 N80 2.257 . S
Mn73 N89 2.282 . S
Mn73 O97 2.215 . S
Mn73 O99 2.117 . S
C74 O96 1.234 . S
C74 O97 1.283 . S
C75 O87 1.281 . S
C75 O88 1.236 . S
C76 O98 1.240 . S
C76 O99 1.264 . S
O77 Mn72 2.095 . S
O77 C86 1.250 . S
O78 Mn73 2.121 . S
O78 C86 1.258 . S
C79 N80 1.326 . S
C79 C83 1.460 . S
C79 H85 0.929 . S
N80 Mn73 2.257 . S
N80 C79 1.326 . S
N80 C84 1.362 . S
C81 C82 1.258 . S
C81 C84 1.431 . S
C81 C101 1.449 . S
C82 C81 1.258 . S
C82 C83 1.477 . S
C82 H102 0.931 . S
C83 C79 1.460 . S
C83 C82 1.477 . S
C83 H103 0.930 . S
C84 N80 1.362 . S
C84 C81 1.431 . S
C84 C94 1.476 . S
H85 C79 0.929 . S
C86 O77 1.250 . S
C86 O78 1.258 . S
O87 Mn72 2.162 . S
O87 C75 1.281 . S
O88 Mn72 2.297 . S
O88 C75 1.236 . S
N89 Mn73 2.282 . S
N89 C90 1.328 . S
N89 C94 1.318 . S
C90 N89 1.328 . S
C90 C91 1.457 . S
C90 H95 0.929 . S
C91 C90 1.457 . S
C91 C92 1.291 . S
C91 H104 0.931 . S
C92 C91 1.291 . S
C92 C93 1.373 . S
C92 H105 0.929 . S
C93 C92 1.373 . S
C93 C94 1.396 . S
C93 C100 1.403 . S
C94 C84 1.476 . S
C94 N89 1.318 . S
C94 C93 1.396 . S
H95 C90 0.929 . S
O96 Mn72 2.385 . S
O96 C74 1.234 . S
O97 Mn72 2.209 . S
O97 Mn73 2.215 . S
O97 C74 1.283 . S
O98 Mn72 2.094 . S
O98 C76 1.240 . S
O99 Mn73 2.117 . S
O99 C76 1.264 . S
C100 C93 1.403 . S
C100 C101 1.399 . S
C100 H106 0.929 . S
C101 C81 1.449 . S
C101 C100 1.399 . S
C101 H107 0.930 . S
H102 C82 0.931 . S
H103 C83 0.930 . S
H104 C91 0.931 . S
H105 C92 0.929 . S
H106 C100 0.929 . S
H107 C101 0.930 . S
Mn108 O113 2.095 . S
Mn108 O123 2.162 . S
Mn108 O124 2.297 . S
Mn108 O132 2.385 . S
Mn108 O133 2.209 . S
Mn108 O134 2.094 . S
Mn109 O114 2.121 . S
Mn109 N116 2.257 . S
Mn109 N125 2.282 . S
Mn109 O133 2.215 . S
Mn109 O135 2.117 . S
C110 O132 1.234 . S
C110 O133 1.283 . S
C111 O123 1.281 . S
C111 O124 1.236 . S
C112 O134 1.240 . S
C112 O135 1.264 . S
O113 Mn108 2.095 . S
O113 C122 1.250 . S
O114 Mn109 2.121 . S
O114 C122 1.258 . S
C115 N116 1.326 . S
C115 C119 1.460 . S
C115 H121 0.929 . S
N116 Mn109 2.257 . S
N116 C115 1.326 . S
N116 C120 1.362 . S
C117 C118 1.258 . S
C117 C120 1.431 . S
C117 C137 1.449 . S
C118 C117 1.258 . S
C118 C119 1.477 . S
C118 H138 0.931 . S
C119 C115 1.460 . S
C119 C118 1.477 . S
C119 H139 0.930 . S
C120 N116 1.362 . S
C120 C117 1.431 . S
C120 C130 1.476 . S
H121 C115 0.929 . S
C122 O113 1.250 . S
C122 O114 1.258 . S
O123 Mn108 2.162 . S
O123 C111 1.281 . S
O124 Mn108 2.297 . S
O124 C111 1.236 . S
N125 Mn109 2.282 . S
N125 C126 1.328 . S
N125 C130 1.318 . S
C126 N125 1.328 . S
C126 C127 1.457 . S
C126 H131 0.929 . S
C127 C126 1.457 . S
C127 C128 1.291 . S
C127 H140 0.931 . S
C128 C127 1.291 . S
C128 C129 1.373 . S
C128 H141 0.929 . S
C129 C128 1.373 . S
C129 C130 1.396 . S
C129 C136 1.403 . S
C130 C120 1.476 . S
C130 N125 1.318 . S
C130 C129 1.396 . S
H131 C126 0.929 . S
O132 Mn108 2.385 . S
O132 C110 1.234 . S
O133 Mn108 2.209 . S
O133 Mn109 2.215 . S
O133 C110 1.283 . S
O134 Mn108 2.094 . S
O134 C112 1.240 . S
O135 Mn109 2.117 . S
O135 C112 1.264 . S
C136 C129 1.403 . S
C136 C137 1.399 . S
C136 H142 0.929 . S
C137 C117 1.449 . S
C137 C136 1.399 . S
C137 H143 0.930 . S
H138 C118 0.931 . S
H139 C119 0.930 . S
H140 C127 0.931 . S
H141 C128 0.929 . S
H142 C136 0.929 . S
H143 C137 0.930 . S
Mn144 O149 2.095 . S
Mn144 O159 2.162 . S
Mn144 O160 2.297 . S
Mn144 O168 2.385 1_554 S
Mn144 O169 2.209 1_554 S
Mn144 O170 2.094 . S
Mn145 O150 2.121 . S
Mn145 N152 2.257 1_564 S
Mn145 N161 2.282 1_554 S
Mn145 O169 2.215 1_554 S
Mn145 O171 2.117 . S
C146 O168 1.234 . S
C146 O169 1.283 . S
C147 O159 1.281 . S
C147 O160 1.236 . S
C148 O170 1.240 . S
C148 O171 1.264 . S
O149 Mn144 2.095 . S
O149 C158 1.250 . S
O150 Mn145 2.121 . S
O150 C158 1.258 . S
C151 N152 1.326 1_554 S
C151 C155 1.460 1_554 S
C151 H157 0.929 . S
N152 Mn145 2.257 1_546 S
N152 C151 1.326 1_556 S
N152 C156 1.362 . S
C153 C154 1.258 . S
C153 C156 1.431 . S
C153 C173 1.449 . S
C154 C153 1.258 . S
C154 C155 1.477 . S
C154 H174 0.931 . S
C155 C151 1.460 1_556 S
C155 C154 1.477 . S
C155 H175 0.930 1_556 S
C156 N152 1.362 . S
C156 C153 1.431 . S
C156 C166 1.476 1_545 S
H157 C151 0.929 . S
C158 O149 1.250 . S
C158 O150 1.258 . S
O159 Mn144 2.162 . S
O159 C147 1.281 . S
O160 Mn144 2.297 . S
O160 C147 1.236 . S
N161 Mn145 2.282 1_556 S
N161 C162 1.328 . S
N161 C166 1.318 . S
C162 N161 1.328 . S
C162 C163 1.457 . S
C162 H167 0.929 . S
C163 C162 1.457 . S
C163 C164 1.291 . S
C163 H176 0.931 . S
C164 C163 1.291 . S
C164 C165 1.373 . S
C164 H177 0.929 . S
C165 C164 1.373 . S
C165 C166 1.396 . S
C165 C172 1.403 1_565 S
C166 C156 1.476 1_565 S
C166 N161 1.318 . S
C166 C165 1.396 . S
H167 C162 0.929 . S
O168 Mn144 2.385 1_556 S
O168 C146 1.234 . S
O169 Mn144 2.209 1_556 S
O169 Mn145 2.215 1_556 S
O169 C146 1.283 . S
O170 Mn144 2.094 . S
O170 C148 1.240 . S
O171 Mn145 2.117 . S
O171 C148 1.264 . S
C172 C165 1.403 1_545 S
C172 C173 1.399 . S
C172 H178 0.929 . S
C173 C153 1.449 . S
C173 C172 1.399 . S
C173 H179 0.930 . S
H174 C154 0.931 . S
H175 C155 0.930 1_554 S
H176 C163 0.931 . S
H177 C164 0.929 . S
H178 C172 0.929 . S
H179 C173 0.930 . S
Mn180 O185 2.095 . S
Mn180 O195 2.162 . S
Mn180 O196 2.297 . S
Mn180 O204 2.385 1_554 S
Mn180 O205 2.209 1_554 S
Mn180 O206 2.094 . S
Mn181 O186 2.121 . S
Mn181 N188 2.257 1_544 S
Mn181 N197 2.282 1_554 S
Mn181 O205 2.215 1_554 S
Mn181 O207 2.117 . S
C182 O204 1.234 . S
C182 O205 1.283 . S
C183 O195 1.281 . S
C183 O196 1.236 . S
C184 O206 1.240 . S
C184 O207 1.264 . S
O185 Mn180 2.095 . S
O185 C194 1.250 . S
O186 Mn181 2.121 . S
O186 C194 1.258 . S
C187 N188 1.326 1_554 S
C187 C191 1.460 1_554 S
C187 H193 0.929 . S
N188 Mn181 2.257 1_566 S
N188 C187 1.326 1_556 S
N188 C192 1.362 . S
C189 C190 1.258 . S
C189 C192 1.431 . S
C189 C209 1.449 . S
C190 C189 1.258 . S
C190 C191 1.477 . S
C190 H210 0.931 . S
C191 C187 1.460 1_556 S
C191 C190 1.477 . S
C191 H211 0.930 1_556 S
C192 N188 1.362 . S
C192 C189 1.431 . S
C192 C202 1.476 1_565 S
H193 C187 0.929 . S
C194 O185 1.250 . S
C194 O186 1.258 . S
O195 Mn180 2.162 . S
O195 C183 1.281 . S
O196 Mn180 2.297 . S
O196 C183 1.236 . S
N197 Mn181 2.282 1_556 S
N197 C198 1.328 . S
N197 C202 1.318 . S
C198 N197 1.328 . S
C198 C199 1.457 . S
C198 H203 0.929 . S
C199 C198 1.457 . S
C199 C200 1.291 . S
C199 H212 0.931 . S
C200 C199 1.291 . S
C200 C201 1.373 . S
C200 H213 0.929 . S
C201 C200 1.373 . S
C201 C202 1.396 . S
C201 C208 1.403 1_545 S
C202 C192 1.476 1_545 S
C202 N197 1.318 . S
C202 C201 1.396 . S
H203 C198 0.929 . S
O204 Mn180 2.385 1_556 S
O204 C182 1.234 . S
O205 Mn180 2.209 1_556 S
O205 Mn181 2.215 1_556 S
O205 C182 1.283 . S
O206 Mn180 2.094 . S
O206 C184 1.240 . S
O207 Mn181 2.117 . S
O207 C184 1.264 . S
C208 C201 1.403 1_565 S
C208 C209 1.399 . S
C208 H214 0.929 . S
C209 C189 1.449 . S
C209 C208 1.399 . S
C209 H215 0.930 . S
H210 C190 0.931 . S
H211 C191 0.930 1_554 S
H212 C199 0.931 . S
H213 C200 0.929 . S
H214 C208 0.929 . S
H215 C209 0.930 . S
Mn216 O221 2.095 . S
Mn216 O231 2.162 . S
Mn216 O232 2.297 . S
Mn216 O240 2.385 . S
Mn216 O241 2.209 . S
Mn216 O242 2.094 . S
Mn217 O222 2.121 . S
Mn217 N224 2.257 1_545 S
Mn217 N233 2.282 . S
Mn217 O241 2.215 . S
Mn217 O243 2.117 . S
C218 O240 1.234 . S
C218 O241 1.283 . S
C219 O231 1.281 . S
C219 O232 1.236 . S
C220 O242 1.240 . S
C220 O243 1.264 . S
O221 Mn216 2.095 . S
O221 C230 1.250 . S
O222 Mn217 2.121 . S
O222 C230 1.258 . S
C223 N224 1.326 . S
C223 C227 1.460 . S
C223 H229 0.929 . S
N224 Mn217 2.257 1_565 S
N224 C223 1.326 . S
N224 C228 1.362 . S
C225 C226 1.258 . S
C225 C228 1.431 . S
C225 C245 1.449 . S
C226 C225 1.258 . S
C226 C227 1.477 . S
C226 H246 0.931 . S
C227 C223 1.460 . S
C227 C226 1.477 . S
C227 H247 0.930 . S
C228 N224 1.362 . S
C228 C225 1.431 . S
C228 C238 1.476 1_565 S
H229 C223 0.929 . S
C230 O221 1.250 . S
C230 O222 1.258 . S
O231 Mn216 2.162 . S
O231 C219 1.281 . S
O232 Mn216 2.297 . S
O232 C219 1.236 . S
N233 Mn217 2.282 . S
N233 C234 1.328 . S
N233 C238 1.318 . S
C234 N233 1.328 . S
C234 C235 1.457 . S
C234 H239 0.929 . S
C235 C234 1.457 . S
C235 C236 1.291 . S
C235 H248 0.931 . S
C236 C235 1.291 . S
C236 C237 1.373 . S
C236 H249 0.929 . S
C237 C236 1.373 . S
C237 C238 1.396 . S
C237 C244 1.403 1_545 S
C238 C228 1.476 1_545 S
C238 N233 1.318 . S
C238 C237 1.396 . S
H239 C234 0.929 . S
O240 Mn216 2.385 . S
O240 C218 1.234 . S
O241 Mn216 2.209 . S
O241 Mn217 2.215 . S
O241 C218 1.283 . S
O242 Mn216 2.094 . S
O242 C220 1.240 . S
O243 Mn217 2.117 . S
O243 C220 1.264 . S
C244 C237 1.403 1_565 S
C244 C245 1.399 . S
C244 H250 0.929 . S
C245 C225 1.449 . S
C245 C244 1.399 . S
C245 H251 0.930 . S
H246 C226 0.931 . S
H247 C227 0.930 . S
H248 C235 0.931 . S
H249 C236 0.929 . S
H250 C244 0.929 . S
H251 C245 0.930 . S
Mn252 O257 2.095 . S
Mn252 O267 2.162 . S
Mn252 O268 2.297 . S
Mn252 O276 2.385 . S
Mn252 O277 2.209 . S
Mn252 O278 2.094 . S
Mn253 O258 2.121 . S
Mn253 N260 2.257 1_565 S
Mn253 N269 2.282 . S
Mn253 O277 2.215 . S
Mn253 O279 2.117 . S
C254 O276 1.234 . S
C254 O277 1.283 . S
C255 O267 1.281 . S
C255 O268 1.236 . S
C256 O278 1.240 . S
C256 O279 1.264 . S
O257 Mn252 2.095 . S
O257 C266 1.250 . S
O258 Mn253 2.121 . S
O258 C266 1.258 . S
C259 N260 1.326 . S
C259 C263 1.460 . S
C259 H265 0.929 . S
N260 Mn253 2.257 1_545 S
N260 C259 1.326 . S
N260 C264 1.362 . S
C261 C262 1.258 . S
C261 C264 1.431 . S
C261 C281 1.449 . S
C262 C261 1.258 . S
C262 C263 1.477 . S
C262 H282 0.931 . S
C263 C259 1.460 . S
C263 C262 1.477 . S
C263 H283 0.930 . S
C264 N260 1.362 . S
C264 C261 1.431 . S
C264 C274 1.476 1_545 S
H265 C259 0.929 . S
C266 O257 1.250 . S
C266 O258 1.258 . S
O267 Mn252 2.162 . S
O267 C255 1.281 . S
O268 Mn252 2.297 . S
O268 C255 1.236 . S
N269 Mn253 2.282 . S
N269 C270 1.328 . S
N269 C274 1.318 . S
C270 N269 1.328 . S
C270 C271 1.457 . S
C270 H275 0.929 . S
C271 C270 1.457 . S
C271 C272 1.291 . S
C271 H284 0.931 . S
C272 C271 1.291 . S
C272 C273 1.373 . S
C272 H285 0.929 . S
C273 C272 1.373 . S
C273 C274 1.396 . S
C273 C280 1.403 1_565 S
C274 C264 1.476 1_565 S
C274 N269 1.318 . S
C274 C273 1.396 . S
H275 C270 0.929 . S
O276 Mn252 2.385 . S
O276 C254 1.234 . S
O277 Mn252 2.209 . S
O277 Mn253 2.215 . S
O277 C254 1.283 . S
O278 Mn252 2.094 . S
O278 C256 1.240 . S
O279 Mn253 2.117 . S
O279 C256 1.264 . S
C280 C273 1.403 1_545 S
C280 C281 1.399 . S
C280 H286 0.929 . S
C281 C261 1.449 . S
C281 C280 1.399 . S
C281 H287 0.930 . S
H282 C262 0.931 . S
H283 C263 0.930 . S
H284 C271 0.931 . S
H285 C272 0.929 . S
H286 C280 0.929 . S
H287 C281 0.930 . S
H288 C296 0.950 . S
H289 C301 0.950 . S
H290 C298 0.950 . S
H291 C300 0.950 . S
H292 C302 0.950 . S
H293 C304 0.950 . S
H294 C306 0.950 . S
H295 C307 0.950 . S
C296 H288 0.950 . S
C296 C297 1.386 . S
C296 C298 1.391 . S
C297 C296 1.386 . S
C297 C301 1.393 1_554 S
C298 H290 0.950 . S
C298 C296 1.391 . S
C298 C299 1.400 . S
C299 C298 1.400 . S
C299 C300 1.398 1_554 S
C299 C305 1.491 . S
C300 H291 0.950 . S
C300 C299 1.398 1_556 S
C300 C301 1.391 . S
C301 H289 0.950 . S
C301 C297 1.393 1_556 S
C301 C300 1.391 . S
C302 H292 0.950 . S
C302 C303 1.386 1_556 S
C302 C304 1.391 . S
C303 C302 1.386 1_554 S
C303 C307 1.393 . S
C304 H293 0.950 . S
C304 C302 1.391 . S
C304 C305 1.400 1_556 S
C305 C299 1.491 . S
C305 C304 1.400 1_554 S
C305 C306 1.398 . S
C306 H294 0.950 . S
C306 C305 1.398 . S
C306 C307 1.391 . S
C307 H295 0.950 . S
C307 C303 1.393 . S
C307 C306 1.391 . S
H308 C316 0.950 . S
H309 C321 0.950 . S
H310 C318 0.950 . S
H311 C320 0.950 . S
H312 C322 0.950 . S
H313 C324 0.950 . S
H314 C326 0.950 . S
H315 C327 0.950 . S
C316 H308 0.950 . S
C316 C317 1.386 1_556 S
C316 C318 1.391 . S
C317 C316 1.386 1_554 S
C317 C321 1.393 . S
C318 H310 0.950 . S
C318 C316 1.391 . S
C318 C319 1.400 1_556 S
C319 C318 1.400 1_554 S
C319 C320 1.398 . S
C319 C325 1.491 . S
C320 H311 0.950 . S
C320 C319 1.398 . S
C320 C321 1.391 . S
C321 H309 0.950 . S
C321 C317 1.393 . S
C321 C320 1.391 . S
C322 H312 0.950 . S
C322 C323 1.386 . S
C322 C324 1.391 . S
C323 C322 1.386 . S
C323 C327 1.393 1_554 S
C324 H313 0.950 . S
C324 C322 1.391 . S
C324 C325 1.400 . S
C325 C319 1.491 . S
C325 C324 1.400 . S
C325 C326 1.398 1_554 S
C326 H314 0.950 . S
C326 C325 1.398 1_556 S
C326 C327 1.391 . S
C327 H315 0.950 . S
C327 C323 1.393 1_556 S
C327 C326 1.391 . S
H328 C336 0.950 . S
H329 C341 0.950 . S
H330 C338 0.950 . S
H331 C340 0.950 . S
H332 C342 0.950 . S
H333 C344 0.950 . S
H334 C346 0.950 . S
H335 C347 0.950 . S
C336 H328 0.950 . S
C336 C337 1.386 . S
C336 C338 1.391 . S
C337 C336 1.386 . S
C337 C341 1.393 . S
C338 H330 0.950 . S
C338 C336 1.391 . S
C338 C339 1.400 . S
C339 C338 1.400 . S
C339 C340 1.398 . S
C339 C345 1.491 . S
C340 H331 0.950 . S
C340 C339 1.398 . S
C340 C341 1.391 . S
C341 H329 0.950 . S
C341 C337 1.393 . S
C341 C340 1.391 . S
C342 H332 0.950 . S
C342 C343 1.386 . S
C342 C344 1.391 . S
C343 C342 1.386 . S
C343 C347 1.393 . S
C344 H333 0.950 . S
C344 C342 1.391 . S
C344 C345 1.400 . S
C345 C339 1.491 . S
C345 C344 1.400 . S
C345 C346 1.398 . S
C346 H334 0.950 . S
C346 C345 1.398 . S
C346 C347 1.391 . S
C347 H335 0.950 . S
C347 C343 1.393 . S
C347 C346 1.391 . S
H348 C356 0.950 . S
H349 C361 0.950 . S
H350 C358 0.950 . S
H351 C360 0.950 . S
H352 C362 0.950 . S
H353 C364 0.950 . S
H354 C366 0.950 . S
H355 C367 0.950 . S
C356 H348 0.950 . S
C356 C357 1.386 . S
C356 C358 1.391 . S
C357 C356 1.386 . S
C357 C361 1.393 . S
C358 H350 0.950 . S
C358 C356 1.391 . S
C358 C359 1.400 . S
C359 C358 1.400 . S
C359 C360 1.398 . S
C359 C365 1.491 . S
C360 H351 0.950 . S
C360 C359 1.398 . S
C360 C361 1.391 . S
C361 H349 0.950 . S
C361 C357 1.393 . S
C361 C360 1.391 . S
C362 H352 0.950 . S
C362 C363 1.386 . S
C362 C364 1.391 . S
C363 C362 1.386 . S
C363 C367 1.393 . S
C364 H353 0.950 . S
C364 C362 1.391 . S
C364 C365 1.400 . S
C365 C359 1.491 . S
C365 C364 1.400 . S
C365 C366 1.398 . S
C366 H354 0.950 . S
C366 C365 1.398 . S
C366 C367 1.391 . S
C367 H355 0.950 . S
C367 C363 1.393 . S
C367 C366 1.391 . S
H368 C376 0.950 . S
H369 C381 0.950 . S
H370 C378 0.950 . S
H371 C380 0.950 . S
H372 C382 0.950 . S
H373 C384 0.950 . S
H374 C386 0.950 . S
H375 C387 0.950 . S
C376 H368 0.950 . S
C376 C377 1.386 . S
C376 C378 1.391 . S
C377 C376 1.386 . S
C377 C381 1.393 . S
C378 H370 0.950 . S
C378 C376 1.391 . S
C378 C379 1.400 . S
C379 C378 1.400 . S
C379 C380 1.398 . S
C379 C385 1.491 . S
C380 H371 0.950 . S
C380 C379 1.398 . S
C380 C381 1.391 . S
C381 H369 0.950 . S
C381 C377 1.393 . S
C381 C380 1.391 . S
C382 H372 0.950 . S
C382 C383 1.386 . S
C382 C384 1.391 . S
C383 C382 1.386 . S
C383 C387 1.393 . S
C384 H373 0.950 . S
C384 C382 1.391 . S
C384 C385 1.400 . S
C385 C379 1.491 . S
C385 C384 1.400 . S
C385 C386 1.398 . S
C386 H374 0.950 . S
C386 C385 1.398 . S
C386 C387 1.391 . S
C387 H375 0.950 . S
C387 C383 1.393 . S
C387 C386 1.391 . S
H388 C396 0.950 . S
H389 C401 0.950 . S
H390 C398 0.950 . S
H391 C400 0.950 . S
H392 C402 0.950 . S
H393 C404 0.950 . S
H394 C406 0.950 . S
H395 C407 0.950 . S
C396 H388 0.950 . S
C396 C397 1.386 . S
C396 C398 1.391 . S
C397 C396 1.386 . S
C397 C401 1.393 . S
C398 H390 0.950 . S
C398 C396 1.391 . S
C398 C399 1.400 . S
C399 C398 1.400 . S
C399 C400 1.398 . S
C399 C405 1.491 . S
C400 H391 0.950 . S
C400 C399 1.398 . S
C400 C401 1.391 . S
C401 H389 0.950 . S
C401 C397 1.393 . S
C401 C400 1.391 . S
C402 H392 0.950 . S
C402 C403 1.386 . S
C402 C404 1.391 . S
C403 C402 1.386 . S
C403 C407 1.393 . S
C404 H393 0.950 . S
C404 C402 1.391 . S
C404 C405 1.400 . S
C405 C399 1.491 . S
C405 C404 1.400 . S
C405 C406 1.398 . S
C406 H394 0.950 . S
C406 C405 1.398 . S
C406 C407 1.391 . S
C407 H395 0.950 . S
C407 C403 1.393 . S
C407 C406 1.391 . S
H408 C416 0.950 . S
H409 C421 0.950 . S
H410 C418 0.950 . S
H411 C420 0.950 . S
H412 C422 0.950 . S
H413 C424 0.950 . S
H414 C426 0.950 . S
H415 C427 0.950 . S
C416 H408 0.950 . S
C416 C417 1.386 . S
C416 C418 1.391 . S
C417 C416 1.386 . S
C417 C421 1.393 . S
C418 H410 0.950 . S
C418 C416 1.391 . S
C418 C419 1.400 . S
C419 C418 1.400 . S
C419 C420 1.398 . S
C419 C425 1.491 . S
C420 H411 0.950 . S
C420 C419 1.398 . S
C420 C421 1.391 . S
C421 H409 0.950 . S
C421 C417 1.393 . S
C421 C420 1.391 . S
C422 H412 0.950 . S
C422 C423 1.386 . S
C422 C424 1.391 . S
C423 C422 1.386 . S
C423 C427 1.393 . S
C424 H413 0.950 . S
C424 C422 1.391 . S
C424 C425 1.400 . S
C425 C419 1.491 . S
C425 C424 1.400 . S
C425 C426 1.398 . S
C426 H414 0.950 . S
C426 C425 1.398 . S
C426 C427 1.391 . S
C427 H415 0.950 . S
C427 C423 1.393 . S
C427 C426 1.391 . S
H428 C436 0.950 . S
H429 C441 0.950 . S
H430 C438 0.950 . S
H431 C440 0.950 . S
H432 C442 0.950 . S
H433 C444 0.950 . S
H434 C446 0.950 . S
H435 C447 0.950 . S
C436 H428 0.950 . S
C436 C437 1.386 . S
C436 C438 1.391 . S
C437 C436 1.386 . S
C437 C441 1.393 . S
C438 H430 0.950 . S
C438 C436 1.391 . S
C438 C439 1.400 . S
C439 C438 1.400 . S
C439 C440 1.398 . S
C439 C445 1.491 . S
C440 H431 0.950 . S
C440 C439 1.398 . S
C440 C441 1.391 . S
C441 H429 0.950 . S
C441 C437 1.393 . S
C441 C440 1.391 . S
C442 H432 0.950 . S
C442 C443 1.386 . S
C442 C444 1.391 . S
C443 C442 1.386 . S
C443 C447 1.393 . S
C444 H433 0.950 . S
C444 C442 1.391 . S
C444 C445 1.400 . S
C445 C439 1.491 . S
C445 C444 1.400 . S
C445 C446 1.398 . S
C446 H434 0.950 . S
C446 C445 1.398 . S
C446 C447 1.391 . S
C447 H435 0.950 . S
C447 C443 1.393 . S
C447 C446 1.391 . S
H448 C456 0.950 . S
H449 C461 0.950 . S
H450 C458 0.950 . S
H451 C460 0.950 . S
H452 C462 0.950 . S
H453 C464 0.950 . S
H454 C466 0.950 . S
H455 C467 0.950 . S
C456 H448 0.950 . S
C456 C457 1.386 . S
C456 C458 1.391 . S
C457 C456 1.386 . S
C457 C461 1.393 . S
C458 H450 0.950 . S
C458 C456 1.391 . S
C458 C459 1.400 . S
C459 C458 1.400 . S
C459 C460 1.398 1_565 S
C459 C465 1.491 1_565 S
C460 H451 0.950 . S
C460 C459 1.398 1_545 S
C460 C461 1.391 1_545 S
C461 H449 0.950 . S
C461 C457 1.393 . S
C461 C460 1.391 1_565 S
C462 H452 0.950 . S
C462 C463 1.386 . S
C462 C464 1.391 . S
C463 C462 1.386 . S
C463 C467 1.393 . S
C464 H453 0.950 . S
C464 C462 1.391 . S
C464 C465 1.400 . S
C465 C459 1.491 1_545 S
C465 C464 1.400 . S
C465 C466 1.398 1_545 S
C466 H454 0.950 . S
C466 C465 1.398 1_565 S
C466 C467 1.391 1_565 S
C467 H455 0.950 . S
C467 C463 1.393 . S
C467 C466 1.391 1_545 S
H468 C476 0.950 . S
H469 C481 0.950 . S
H470 C478 0.950 . S
H471 C480 0.950 . S
H472 C482 0.950 . S
H473 C484 0.950 . S
H474 C486 0.950 . S
H475 C487 0.950 . S
C476 H468 0.950 . S
C476 C477 1.386 . S
C476 C478 1.391 . S
C477 C476 1.386 . S
C477 C481 1.393 1_565 S
C478 H470 0.950 . S
C478 C476 1.391 . S
C478 C479 1.400 . S
C479 C478 1.400 . S
C479 C480 1.398 1_565 S
C479 C485 1.491 1_565 S
C480 H471 0.950 . S
C480 C479 1.398 1_545 S
C480 C481 1.391 . S
C481 H469 0.950 . S
C481 C477 1.393 1_545 S
C481 C480 1.391 . S
C482 H472 0.950 . S
C482 C483 1.386 . S
C482 C484 1.391 . S
C483 C482 1.386 . S
C483 C487 1.393 1_545 S
C484 H473 0.950 . S
C484 C482 1.391 . S
C484 C485 1.400 . S
C485 C479 1.491 1_545 S
C485 C484 1.400 . S
C485 C486 1.398 1_545 S
C486 H474 0.950 . S
C486 C485 1.398 1_565 S
C486 C487 1.391 . S
C487 H475 0.950 . S
C487 C483 1.393 1_565 S
C487 C486 1.391 . S
H488 C496 0.950 . S
H489 C501 0.950 . S
H490 C498 0.950 . S
H491 C500 0.955 . S
H492 C502 0.950 . S
H493 C504 0.950 . S
H494 C506 0.955 . S
H495 C507 0.950 . S
C496 H488 0.950 . S
C496 C497 1.386 . S
C496 C498 1.391 . S
C497 C496 1.386 . S
C497 C501 1.393 . S
C498 H490 0.950 . S
C498 C496 1.391 . S
C498 C499 1.400 . S
C499 C498 1.400 . S
C499 C500 1.397 1_565 S
C499 C505 1.491 1_565 S
C500 H491 0.955 . S
C500 C499 1.397 1_545 S
C500 C501 1.388 1_545 S
C501 H489 0.950 . S
C501 C497 1.393 . S
C501 C500 1.388 1_565 S
C502 H492 0.950 . S
C502 C503 1.386 . S
C502 C504 1.391 . S
C503 C502 1.386 . S
C503 C507 1.393 . S
C504 H493 0.950 . S
C504 C502 1.391 . S
C504 C505 1.400 . S
C505 C499 1.491 1_545 S
C505 C504 1.400 . S
C505 C506 1.397 1_545 S
C506 H494 0.955 . S
C506 C505 1.397 1_565 S
C506 C507 1.388 1_565 S
C507 H495 0.950 . S
C507 C503 1.393 . S
C507 C506 1.388 1_545 S
H508 C516 0.950 . S
H509 C521 0.950 1_545 S
H510 C518 0.950 . S
H511 C520 0.950 . S
H512 C522 0.950 . S
H513 C524 0.950 . S
H514 C526 0.950 . S
H515 C527 0.950 1_565 S
C516 H508 0.950 . S
C516 C517 1.386 . S
C516 C518 1.391 . S
C517 C516 1.386 . S
C517 C521 1.393 . S
C518 H510 0.950 . S
C518 C516 1.391 . S
C518 C519 1.400 . S
C519 C518 1.400 . S
C519 C520 1.398 1_565 S
C519 C525 1.491 1_565 S
C520 H511 0.950 . S
C520 C519 1.398 1_545 S
C520 C521 1.391 1_545 S
C521 H509 0.950 1_565 S
C521 C517 1.393 . S
C521 C520 1.391 1_565 S
C522 H512 0.950 . S
C522 C523 1.386 . S
C522 C524 1.391 . S
C523 C522 1.386 . S
C523 C527 1.393 . S
C524 H513 0.950 . S
C524 C522 1.391 . S
C524 C525 1.400 . S
C525 C519 1.491 1_545 S
C525 C524 1.400 . S
C525 C526 1.398 1_545 S
C526 H514 0.950 . S
C526 C525 1.398 1_565 S
C526 C527 1.391 1_565 S
C527 H515 0.950 1_545 S
C527 C523 1.393 . S
C527 C526 1.391 1_545 S
H528 C536 0.950 . S
H529 C541 0.950 . S
H530 C538 0.950 . S
H531 C540 0.950 . S
H532 C542 0.950 . S
H533 C544 0.950 . S
H534 C546 0.950 . S
H535 C547 0.950 . S
C536 H528 0.950 . S
C536 C537 1.386 1_556 S
C536 C538 1.391 . S
C537 C536 1.386 1_554 S
C537 C541 1.393 . S
C538 H530 0.950 . S
C538 C536 1.391 . S
C538 C539 1.400 1_556 S
C539 C538 1.400 1_554 S
C539 C540 1.398 . S
C539 C545 1.491 1_565 S
C540 H531 0.950 . S
C540 C539 1.398 . S
C540 C541 1.391 . S
C541 H529 0.950 . S
C541 C537 1.393 . S
C541 C540 1.391 . S
C542 H532 0.950 . S
C542 C543 1.386 . S
C542 C544 1.391 . S
C543 C542 1.386 . S
C543 C547 1.393 1_554 S
C544 H533 0.950 . S
C544 C542 1.391 . S
C544 C545 1.400 . S
C545 C539 1.491 1_545 S
C545 C544 1.400 . S
C545 C546 1.398 1_554 S
C546 H534 0.950 . S
C546 C545 1.398 1_556 S
C546 C547 1.391 . S
C547 H535 0.950 . S
C547 C543 1.393 1_556 S
C547 C546 1.391 . S
H548 C556 0.950 . S
H549 C561 0.950 . S
H550 C558 0.950 . S
H551 C560 0.950 . S
H552 C562 0.950 . S
H553 C564 0.950 . S
H554 C566 0.950 . S
H555 C567 0.950 . S
C556 H548 0.950 . S
C556 C557 1.386 . S
C556 C558 1.391 . S
C557 C556 1.386 . S
C557 C561 1.393 . S
C558 H550 0.950 . S
C558 C556 1.391 . S
C558 C559 1.400 . S
C559 C558 1.400 . S
C559 C560 1.398 . S
C559 C565 1.491 1_565 S
C560 H551 0.950 . S
C560 C559 1.398 . S
C560 C561 1.391 . S
C561 H549 0.950 . S
C561 C557 1.393 . S
C561 C560 1.391 . S
C562 H552 0.950 . S
C562 C563 1.386 . S
C562 C564 1.391 . S
C563 C562 1.386 . S
C563 C567 1.393 . S
C564 H553 0.950 . S
C564 C562 1.391 . S
C564 C565 1.400 . S
C565 C559 1.491 1_545 S
C565 C564 1.400 . S
C565 C566 1.398 . S
C566 H554 0.950 . S
C566 C565 1.398 . S
C566 C567 1.391 . S
C567 H555 0.950 . S
C567 C563 1.393 . S
C567 C566 1.391 . S
H568 C576 0.950 . S
H569 C581 0.950 . S
H570 C578 0.950 . S
H571 C580 0.950 . S
H572 C582 0.950 . S
H573 C584 0.950 . S
H574 C586 0.950 . S
H575 C587 0.950 . S
C576 H568 0.950 . S
C576 C577 1.386 1_556 S
C576 C578 1.391 . S
C577 C576 1.386 1_554 S
C577 C581 1.393 . S
C578 H570 0.950 . S
C578 C576 1.391 . S
C578 C579 1.400 1_556 S
C579 C578 1.400 1_554 S
C579 C580 1.398 . S
C579 C585 1.491 1_455 S
C580 H571 0.950 . S
C580 C579 1.398 . S
C580 C581 1.391 . S
C581 H569 0.950 . S
C581 C577 1.393 . S
C581 C580 1.391 . S
C582 H572 0.950 . S
C582 C583 1.386 . S
C582 C584 1.391 . S
C583 C582 1.386 . S
C583 C587 1.393 1_554 S
C584 H573 0.950 . S
C584 C582 1.391 . S
C584 C585 1.400 . S
C585 C579 1.491 1_655 S
C585 C584 1.400 . S
C585 C586 1.398 1_554 S
C586 H574 0.950 . S
C586 C585 1.398 1_556 S
C586 C587 1.391 . S
C587 H575 0.950 . S
C587 C583 1.393 1_556 S
C587 C586 1.391 . S
H588 C596 0.950 . S
H589 C601 0.950 . S
H590 C598 0.950 . S
H591 C600 0.950 . S
H592 C602 0.950 . S
H593 C604 0.950 . S
H594 C606 0.950 . S
H595 C607 0.950 . S
C596 H588 0.950 . S
C596 C597 1.386 . S
C596 C598 1.391 . S
C597 C596 1.386 . S
C597 C601 1.393 . S
C598 H590 0.950 . S
C598 C596 1.391 . S
C598 C599 1.400 . S
C599 C598 1.400 . S
C599 C600 1.398 . S
C599 C605 1.491 1_455 S
C600 H591 0.950 . S
C600 C599 1.398 . S
C600 C601 1.391 . S
C601 H589 0.950 . S
C601 C597 1.393 . S
C601 C600 1.391 . S
C602 H592 0.950 . S
C602 C603 1.386 . S
C602 C604 1.391 . S
C603 C602 1.386 . S
C603 C607 1.393 . S
C604 H593 0.950 . S
C604 C602 1.391 . S
C604 C605 1.400 . S
C605 C599 1.491 1_655 S
C605 C604 1.400 . S
C605 C606 1.398 . S
C606 H594 0.950 . S
C606 C605 1.398 . S
C606 C607 1.391 . S
C607 H595 0.950 . S
C607 C603 1.393 . S
C607 C606 1.391 . S
C297 C183 1.505 . S
C303 C3 1.506 . S
C317 C147 1.506 . S
C323 C39 1.502 . S
C337 C255 1.506 . S
C343 C75 1.502 . S
C357 C219 1.502 . S
C363 C111 1.506 . S
C377 C14 1.374 . S
C383 C86 1.369 . S
C397 C50 1.369 . S
C403 C122 1.376 . S
C417 C38 1.343 . S
C423 C110 1.348 . S
C437 C2 1.343 . S
C443 C74 1.350 . S
C457 C158 1.376 . S
C463 C230 1.367 . S
C477 C266 1.381 . S
C483 C194 1.363 . S
C497 C254 1.361 . S
C503 C182 1.358 . S
C517 C146 1.351 . S
C523 C218 1.344 . S
C537 C40 1.503 . S
C543 C4 1.504 . S
C557 C76 1.498 . S
C563 C112 1.498 . S
C577 C148 1.503 . S
C583 C184 1.504 . S
C597 C220 1.504 . S
C603 C256 1.503 . S
