# Generated by pormake.
# Topology wmc, (6)-cn, num edge types: 1
# Building blocks:
#     Node 0, Type 0, BuildingBlock: MIFKUJ_clean_sbu_0, # of connection points: 6
#     Node 1, Type 0, BuildingBlock: MIFKUJ_clean_sbu_0, # of connection points: 6
#     Node 2, Type 0, BuildingBlock: MIFKUJ_clean_sbu_0, # of connection points: 6
#     Node 3, Type 0, BuildingBlock: MIFKUJ_clean_sbu_0, # of connection points: 6
#     Node 4, Type 0, BuildingBlock: MIFKUJ_clean_sbu_0, # of connection points: 6
#     Node 5, Type 0, BuildingBlock: MIFKUJ_clean_sbu_0, # of connection points: 6
#     Node 6, Type 0, BuildingBlock: MIFKUJ_clean_sbu_0, # of connection points: 6
#     Node 7, Type 0, BuildingBlock: MIFKUJ_clean_sbu_0, # of connection points: 6
#     Node 8, Type 0, BuildingBlock: MIFKUJ_clean_sbu_0, # of connection points: 6
#     Node 9, Type 0, BuildingBlock: MIFKUJ_clean_sbu_0, # of connection points: 6
#     Node 10, Type 0, BuildingBlock: MIFKUJ_clean_sbu_0, # of connection points: 6
#     Node 11, Type 0, BuildingBlock: MIFKUJ_clean_sbu_0, # of connection points: 6
#     Node 12, Type 0, BuildingBlock: MIFKUJ_clean_sbu_0, # of connection points: 6
#     Node 13, Type 0, BuildingBlock: MIFKUJ_clean_sbu_0, # of connection points: 6
#     Node 14, Type 0, BuildingBlock: MIFKUJ_clean_sbu_0, # of connection points: 6
#     Node 15, Type 0, BuildingBlock: MIFKUJ_clean_sbu_0, # of connection points: 6
#     Node 16, Type 0, BuildingBlock: MIFKUJ_clean_sbu_0, # of connection points: 6
#     Node 17, Type 0, BuildingBlock: MIFKUJ_clean_sbu_0, # of connection points: 6
#     Edge 18, Type (0, 0), BuildingBlock: UVAHIK_clean_linker_0, # of connection points: 2
#     Edge 19, Type (0, 0), BuildingBlock: UVAHIK_clean_linker_0, # of connection points: 2
#     Edge 20, Type (0, 0), BuildingBlock: UVAHIK_clean_linker_0, # of connection points: 2
#     Edge 21, Type (0, 0), BuildingBlock: UVAHIK_clean_linker_0, # of connection points: 2
#     Edge 22, Type (0, 0), BuildingBlock: UVAHIK_clean_linker_0, # of connection points: 2
#     Edge 23, Type (0, 0), BuildingBlock: UVAHIK_clean_linker_0, # of connection points: 2
#     Edge 24, Type (0, 0), BuildingBlock: UVAHIK_clean_linker_0, # of connection points: 2
#     Edge 25, Type (0, 0), BuildingBlock: UVAHIK_clean_linker_0, # of connection points: 2
#     Edge 26, Type (0, 0), BuildingBlock: UVAHIK_clean_linker_0, # of connection points: 2
#     Edge 27, Type (0, 0), BuildingBlock: UVAHIK_clean_linker_0, # of connection points: 2
#     Edge 28, Type (0, 0), BuildingBlock: UVAHIK_clean_linker_0, # of connection points: 2
#     Edge 29, Type (0, 0), BuildingBlock: UVAHIK_clean_linker_0, # of connection points: 2
#     Edge 30, Type (0, 0), BuildingBlock: UVAHIK_clean_linker_0, # of connection points: 2
#     Edge 31, Type (0, 0), BuildingBlock: UVAHIK_clean_linker_0, # of connection points: 2
#     Edge 32, Type (0, 0), BuildingBlock: UVAHIK_clean_linker_0, # of connection points: 2
#     Edge 33, Type (0, 0), BuildingBlock: UVAHIK_clean_linker_0, # of connection points: 2
#     Edge 34, Type (0, 0), BuildingBlock: UVAHIK_clean_linker_0, # of connection points: 2
#     Edge 35, Type (0, 0), BuildingBlock: UVAHIK_clean_linker_0, # of connection points: 2
#     Edge 36, Type (0, 0), BuildingBlock: UVAHIK_clean_linker_0, # of connection points: 2
#     Edge 37, Type (0, 0), BuildingBlock: UVAHIK_clean_linker_0, # of connection points: 2
#     Edge 38, Type (0, 0), BuildingBlock: UVAHIK_clean_linker_0, # of connection points: 2
#     Edge 39, Type (0, 0), BuildingBlock: UVAHIK_clean_linker_0, # of connection points: 2
#     Edge 40, Type (0, 0), BuildingBlock: UVAHIK_clean_linker_0, # of connection points: 2
#     Edge 41, Type (0, 0), BuildingBlock: UVAHIK_clean_linker_0, # of connection points: 2
#     Edge 42, Type (0, 0), BuildingBlock: UVAHIK_clean_linker_0, # of connection points: 2
#     Edge 43, Type (0, 0), BuildingBlock: UVAHIK_clean_linker_0, # of connection points: 2
#     Edge 44, Type (0, 0), BuildingBlock: UVAHIK_clean_linker_0, # of connection points: 2
#     Edge 45, Type (0, 0), BuildingBlock: UVAHIK_clean_linker_0, # of connection points: 2
#     Edge 46, Type (0, 0), BuildingBlock: UVAHIK_clean_linker_0, # of connection points: 2
#     Edge 47, Type (0, 0), BuildingBlock: UVAHIK_clean_linker_0, # of connection points: 2
#     Edge 48, Type (0, 0), BuildingBlock: UVAHIK_clean_linker_0, # of connection points: 2
#     Edge 49, Type (0, 0), BuildingBlock: UVAHIK_clean_linker_0, # of connection points: 2
#     Edge 50, Type (0, 0), BuildingBlock: UVAHIK_clean_linker_0, # of connection points: 2
#     Edge 51, Type (0, 0), BuildingBlock: UVAHIK_clean_linker_0, # of connection points: 2
#     Edge 52, Type (0, 0), BuildingBlock: UVAHIK_clean_linker_0, # of connection points: 2
#     Edge 53, Type (0, 0), BuildingBlock: UVAHIK_clean_linker_0, # of connection points: 2
#     Edge 54, Type (0, 0), BuildingBlock: UVAHIK_clean_linker_0, # of connection points: 2
#     Edge 55, Type (0, 0), BuildingBlock: UVAHIK_clean_linker_0, # of connection points: 2
#     Edge 56, Type (0, 0), BuildingBlock: UVAHIK_clean_linker_0, # of connection points: 2
#     Edge 57, Type (0, 0), BuildingBlock: UVAHIK_clean_linker_0, # of connection points: 2
#     Edge 58, Type (0, 0), BuildingBlock: UVAHIK_clean_linker_0, # of connection points: 2
#     Edge 59, Type (0, 0), BuildingBlock: UVAHIK_clean_linker_0, # of connection points: 2
#     Edge 60, Type (0, 0), BuildingBlock: UVAHIK_clean_linker_0, # of connection points: 2
#     Edge 61, Type (0, 0), BuildingBlock: UVAHIK_clean_linker_0, # of connection points: 2
#     Edge 62, Type (0, 0), BuildingBlock: UVAHIK_clean_linker_0, # of connection points: 2
#     Edge 63, Type (0, 0), BuildingBlock: UVAHIK_clean_linker_0, # of connection points: 2
#     Edge 64, Type (0, 0), BuildingBlock: UVAHIK_clean_linker_0, # of connection points: 2
#     Edge 65, Type (0, 0), BuildingBlock: UVAHIK_clean_linker_0, # of connection points: 2
#     Edge 66, Type (0, 0), BuildingBlock: UVAHIK_clean_linker_0, # of connection points: 2
#     Edge 67, Type (0, 0), BuildingBlock: UVAHIK_clean_linker_0, # of connection points: 2
#     Edge 68, Type (0, 0), BuildingBlock: UVAHIK_clean_linker_0, # of connection points: 2
#     Edge 69, Type (0, 0), BuildingBlock: UVAHIK_clean_linker_0, # of connection points: 2
#     Edge 70, Type (0, 0), BuildingBlock: UVAHIK_clean_linker_0, # of connection points: 2
#     Edge 71, Type (0, 0), BuildingBlock: UVAHIK_clean_linker_0, # of connection points: 2
# Relax obj value: 0.361
# Max RMSD: 0.275
# Mean RMSD: 0.275
data_MOF--net-wmc--node1-MIFKUJ_clean_sbu_0--edge1-UVAHIK_clean_linker_0
_symmetry_space_group_name_H-M    P1
_symmetry_Int_Tables_number       1
_symmetry_cell_setting            triclinic
loop_
_symmetry_equiv_pos_as_xyz
'x, y, z'
_cell_length_a     58.292624
_cell_length_b     57.872407
_cell_length_c     45.087251
_cell_angle_alpha  89.812621
_cell_angle_beta   90.116751
_cell_angle_gamma 119.97654
loop_
_atom_site_label
_atom_site_type_symbol
_atom_site_fract_x
_atom_site_fract_y
_atom_site_fract_z
_atom_type_partial_charge
Zn0 Zn 0.5976 0.10909 0.03064 0.0
Zn1 Zn 0.56882 0.13962 0.96425 0.0
C2 C 0.63138 0.08674 0.04933 0.0
O3 O 0.6099 0.06571 0.05928 0.0
C4 C 0.52656 0.15212 0.96874 0.0
O5 O 0.52007 0.1414 0.94222 0.0
O6 O 0.58515 0.11305 0.07072 0.0
O7 O 0.6107 0.14359 0.00684 0.0
O8 O 0.60601 0.16829 0.97268 0.0
C9 C 0.59817 0.13312 0.08742 0.0
O10 O 0.62097 0.15286 0.07821 0.0
O11 O 0.62955 0.10524 0.03634 0.0
C12 C 0.56134 0.11692 0.90337 0.0
O13 O 0.56093 0.09602 0.9154 0.0
O14 O 0.56412 0.13599 0.91975 0.0
O15 O 0.56622 0.10845 0.98556 0.0
O16 O 0.56621 0.07675 0.01071 0.0
O17 O 0.54558 0.15209 0.98247 0.0
C18 C 0.61989 0.16549 0.99267 0.0
C19 C 0.555 0.08387 0.99149 0.0
Zn20 Zn 0.87847 0.48371 0.03822 0.0
Zn21 Zn 0.87269 0.47812 0.96688 0.0
C22 C 0.90143 0.53845 0.05796 0.0
O23 O 0.91135 0.53019 0.07891 0.0
C24 C 0.84416 0.42035 0.96161 0.0
O25 O 0.84592 0.42603 0.93323 0.0
O26 O 0.87656 0.47437 0.08192 0.0
O27 O 0.84119 0.46489 0.02224 0.0
O28 O 0.85139 0.49296 0.98485 0.0
C29 C 0.85512 0.46111 0.09643 0.0
O30 O 0.83234 0.45178 0.08264 0.0
O31 O 0.88914 0.52287 0.03654 0.0
C32 C 0.88682 0.47714 0.90545 0.0
O33 O 0.90805 0.47908 0.91799 0.0
O34 O 0.86945 0.47801 0.92175 0.0
O35 O 0.91117 0.49716 0.97732 0.0
O36 O 0.90495 0.47519 0.01911 0.0
O37 O 0.855 0.43924 0.98028 0.0
C38 C 0.83535 0.47869 0.00511 0.0
C39 C 0.91877 0.48608 0.9961 0.0
Zn40 Zn 0.48872 0.41233 0.04158 0.0
Zn41 Zn 0.5319 0.43385 0.96025 0.0
C42 C 0.43836 0.36262 0.03664 0.0
O43 O 0.44571 0.36295 0.00904 0.0
C44 C 0.58476 0.45219 0.95088 0.0
O45 O 0.57328 0.43453 0.92967 0.0
O46 O 0.51008 0.42289 0.07935 0.0
O47 O 0.5054 0.39687 0.01375 0.0
O48 O 0.52663 0.39854 0.97265 0.0
C49 C 0.50975 0.40404 0.09428 0.0
O50 O 0.49677 0.37966 0.08369 0.0
O51 O 0.4526 0.38237 0.05333 0.0
C52 C 0.53443 0.45252 0.90055 0.0
O53 O 0.54903 0.47597 0.91291 0.0
O54 O 0.52332 0.43184 0.91681 0.0
O55 O 0.51008 0.44038 0.98883 0.0
O56 O 0.48792 0.4451 0.02419 0.0
O57 O 0.57055 0.45793 0.96714 0.0
C58 C 0.51564 0.38687 -0.00319 0.0
C59 C 0.50015 0.45349 -0.00028 0.0
Zn60 Zn 0.87283 0.40559 0.46731 0.0
Zn61 Zn 0.87904 0.41 0.53784 0.0
C62 C 0.85667 0.4477 0.47683 0.0
O63 O 0.87908 0.46719 0.46644 0.0
C64 C 0.90439 0.38124 0.55876 0.0
O65 O 0.91387 0.39995 0.5791 0.0
O66 O 0.86876 0.40228 0.42247 0.0
O67 O 0.91134 0.42767 0.4772 0.0
O68 O 0.90463 0.44453 0.51773 0.0
C69 C 0.88293 0.4235 0.40764 0.0
O70 O 0.90024 0.44503 0.42179 0.0
O71 O 0.85293 0.42418 0.47828 0.0
C72 C 0.85535 0.41003 0.59542 0.0
O73 O 0.83264 0.39706 0.58136 0.0
O74 O 0.87685 0.4178 0.58123 0.0
O75 O 0.84205 0.3897 0.52232 0.0
O76 O 0.8523 0.36984 0.48734 0.0
O77 O 0.89145 0.38325 0.53719 0.0
C78 C 0.91851 0.44705 0.49496 0.0
C79 C 0.83622 0.36914 0.50691 0.0
Zn80 Zn 0.58905 0.47296 0.46012 0.0
Zn81 Zn 0.58952 0.48175 0.53048 0.0
C82 C 0.57127 0.4179 0.46401 0.0
O83 O 0.58875 0.42553 0.44251 0.0
C84 C 0.62455 0.54158 0.5419 0.0
O85 O 0.60384 0.54443 0.5464 0.0
O86 O 0.58979 0.4698 0.41549 0.0
O87 O 0.57259 0.49524 0.46652 0.0
O88 O 0.5563 0.47841 0.51023 0.0
C89 C 0.56742 0.45449 0.4036 0.0
O90 O 0.54627 0.44275 0.42052 0.0
O91 O 0.56674 0.43504 0.47617 0.0
C92 C 0.58814 0.4599 0.58947 0.0
O93 O 0.60559 0.45408 0.57878 0.0
O94 O 0.57864 0.47077 0.57273 0.0
O95 O 0.60664 0.46092 0.51529 0.0
O96 O 0.62522 0.4876 0.47703 0.0
O97 O 0.62126 0.51902 0.53416 0.0
C98 C 0.55418 0.48762 0.48536 0.0
C99 C 0.62646 0.47374 0.49821 0.0
Zn100 Zn 0.54011 0.12698 0.45454 0.0
Zn101 Zn 0.49537 0.10949 0.53416 0.0
C102 C 0.5927 0.14327 0.4416 0.0
O103 O 0.58521 0.14675 0.4153 0.0
C104 C 0.44184 0.09032 0.55143 0.0
O105 O 0.44365 0.06979 0.5609 0.0
O106 O 0.53031 0.12459 0.41136 0.0
O107 O 0.51322 0.10042 0.48181 0.0
O108 O 0.48975 0.07423 0.51713 0.0
C109 C 0.53018 0.10718 0.39424 0.0
O110 O 0.53454 0.08871 0.40527 0.0
O111 O 0.575 0.12903 0.46032 0.0
C112 C 0.52155 0.13413 0.59044 0.0
O113 O 0.52581 0.15664 0.57841 0.0
O114 O 0.50999 0.11276 0.57538 0.0
O115 O 0.51964 0.14158 0.50824 0.0
O116 O 0.54544 0.16213 0.4702 0.0
O117 O 0.46136 0.10919 0.53807 0.0
C118 C 0.50193 0.0773 0.4929 0.0
C119 C 0.53417 0.16306 0.494 0.0
Zn120 Zn 0.25722 0.44304 0.36863 0.0
Zn121 Zn 0.23427 0.45737 0.28937 0.0
C122 C 0.29663 0.42841 0.38019 0.0
O123 O 0.27598 0.40627 0.38953 0.0
C124 C 0.20761 0.48615 0.29409 0.0
O125 O 0.22074 0.49577 0.26925 0.0
O126 O 0.2493 0.44715 0.41043 0.0
O127 O 0.25655 0.47118 0.3425 0.0
O128 O 0.26943 0.48932 0.29886 0.0
C129 C 0.25308 0.4687 0.4221 0.0
O130 O 0.26198 0.49033 0.40579 0.0
O131 O 0.29311 0.44638 0.36845 0.0
C132 C 0.21021 0.44611 0.23125 0.0
O133 O 0.18902 0.44198 0.2459 0.0
O134 O 0.23118 0.45162 0.24538 0.0
O135 O 0.23734 0.42947 0.31271 0.0
O136 O 0.22711 0.40702 0.35356 0.0
O137 O 0.20851 0.46708 0.30699 0.0
C138 C 0.27472 0.48852 0.3261 0.0
C139 C 0.22083 0.40916 0.32709 0.0
Zn140 Zn 0.55853 0.83563 0.3689 0.0
Zn141 Zn 0.53123 0.78128 0.29716 0.0
C142 C 0.5739 0.88571 0.39741 0.0
O143 O 0.58412 0.87655 0.41699 0.0
C144 C 0.5004 0.72578 0.29429 0.0
O145 O 0.49312 0.73258 0.26971 0.0
O146 O 0.55055 0.81771 0.40906 0.0
O147 O 0.52571 0.81485 0.34303 0.0
O148 O 0.50156 0.78809 0.30716 0.0
C149 C 0.53246 0.81765 0.42485 0.0
O150 O 0.5192 0.82872 0.41427 0.0
O151 O 0.56352 0.87235 0.374 0.0
C152 C 0.5453 0.77101 0.23928 0.0
O153 O 0.54965 0.75423 0.25458 0.0
O154 O 0.53855 0.7859 0.25288 0.0
O155 O 0.56097 0.80714 0.32219 0.0
O156 O 0.59133 0.8359 0.35096 0.0
O157 O 0.51807 0.74374 0.31052 0.0
C158 C 0.50392 0.80312 0.32892 0.0
C159 C 0.58496 0.81919 0.32998 0.0
Zn160 Zn 0.16261 0.73694 0.36589 0.0
Zn161 Zn 0.21214 0.7601 0.28991 0.0
C162 C 0.11058 0.7056 0.39011 0.0
O163 O 0.11781 0.72705 0.40621 0.0
C164 C 0.26855 0.79097 0.28514 0.0
O165 O 0.26397 0.77938 0.25908 0.0
O166 O 0.17996 0.74676 0.40605 0.0
O167 O 0.183 0.72566 0.33922 0.0
O168 O 0.2075 0.72462 0.30325 0.0
C169 C 0.17912 0.72829 0.42215 0.0
O170 O 0.16787 0.70391 0.41157 0.0
O171 O 0.12632 0.70579 0.3706 0.0
C172 C 0.21515 0.78027 0.23026 0.0
O173 O 0.22671 0.80359 0.24346 0.0
O174 O 0.20672 0.75919 0.24571 0.0
O175 O 0.18725 0.76656 0.31461 0.0
O176 O 0.16131 0.76863 0.3476 0.0
O177 O 0.24914 0.78684 0.30141 0.0
C178 C 0.1938 0.71407 0.32642 0.0
C179 C 0.17485 0.77782 0.32404 0.0
Zn180 Zn 0.54048 0.7485 0.79236 0.0
Zn181 Zn 0.55211 0.74762 0.86382 0.0
C182 C 0.50095 0.76262 0.79846 0.0
O183 O 0.49107 0.74442 0.77758 0.0
C184 C 0.57294 0.7153 0.88908 0.0
O185 O 0.5831 0.73453 0.9088 0.0
O186 O 0.53539 0.74733 0.74781 0.0
O187 O 0.57923 0.76686 0.79833 0.0
O188 O 0.57988 0.78226 0.84302 0.0
C189 C 0.53959 0.76892 0.73554 0.0
O190 O 0.54735 0.79025 0.752 0.0
O191 O 0.52342 0.76889 0.80955 0.0
C192 C 0.53321 0.7384 0.92291 0.0
O193 O 0.51977 0.71419 0.91198 0.0
O194 O 0.54917 0.75731 0.9061 0.0
O195 O 0.514 0.7279 0.84963 0.0
O196 O 0.52081 0.71187 0.80842 0.0
O197 O 0.56183 0.71822 0.86617 0.0
C198 C 0.59008 0.78526 0.81733 0.0
C199 C 0.50616 0.70952 0.83031 0.0
Zn200 Zn 0.23316 0.7776 0.79414 0.0
Zn201 Zn 0.26384 0.834 0.86236 0.0
C202 C 0.20263 0.72172 0.79331 0.0
O203 O 0.21437 0.72631 0.76738 0.0
C204 C 0.30226 0.89239 0.86978 0.0
O205 O 0.28473 0.89812 0.85902 0.0
O206 O 0.23006 0.78138 0.7497 0.0
O207 O 0.23313 0.80639 0.81721 0.0
O208 O 0.23403 0.83818 0.84252 0.0
C209 C 0.20786 0.76884 0.73649 0.0
O210 O 0.18632 0.75449 0.75217 0.0
O211 O 0.20679 0.7413 0.80956 0.0
C212 C 0.25774 0.80333 0.91638 0.0
O213 O 0.27547 0.79854 0.9044 0.0
O214 O 0.24976 0.81693 0.90203 0.0
O215 O 0.27579 0.81128 0.83892 0.0
O216 O 0.26874 0.78189 0.80387 0.0
O217 O 0.2967 0.86826 0.87168 0.0
C218 C 0.22245 0.82011 0.8232 0.0
C219 C 0.2833 0.79729 0.82451 0.0
Zn220 Zn 0.20652 0.45016 0.79262 0.0
Zn221 Zn 0.15591 0.42588 0.86738 0.0
C222 C 0.26027 0.47887 0.78291 0.0
O223 O 0.25062 0.48543 0.7601 0.0
C224 C 0.10471 0.41067 0.89222 0.0
O225 O 0.11015 0.39591 0.90984 0.0
O226 O 0.19804 0.44539 0.74929 0.0
O227 O 0.18095 0.42041 0.81844 0.0
O228 O 0.15383 0.39184 0.8502 0.0
C229 C 0.20795 0.43505 0.73263 0.0
O230 O 0.22183 0.42516 0.74449 0.0
O231 O 0.2443 0.46079 0.80048 0.0
C232 C 0.17568 0.45302 0.92194 0.0
O233 O 0.16576 0.46731 0.91124 0.0
O234 O 0.17358 0.43348 0.90701 0.0
O235 O 0.17831 0.45819 0.84179 0.0
O236 O 0.20464 0.48215 0.80584 0.0
O237 O 0.12073 0.42377 0.87152 0.0
C238 C 0.16844 0.39657 0.82752 0.0
C239 C 0.19112 0.48049 0.82863 0.0
Zn240 Zn 0.92525 0.76452 0.69376 0.0
Zn241 Zn 0.895 0.78828 0.62175 0.0
C242 C 0.96285 0.74769 0.71408 0.0
O243 O 0.94267 0.72781 0.72761 0.0
C244 C 0.87499 0.82186 0.62503 0.0
O245 O 0.89382 0.83323 0.60509 0.0
O246 O 0.91521 0.76878 0.73542 0.0
O247 O 0.93627 0.79869 0.66936 0.0
O248 O 0.92995 0.81992 0.63239 0.0
C249 C 0.91986 0.79048 0.74769 0.0
O250 O 0.93143 0.81279 0.73236 0.0
O251 O 0.95902 0.76339 0.69778 0.0
C252 C 0.87502 0.78043 0.56189 0.0
O253 O 0.85518 0.78097 0.57496 0.0
O254 O 0.89374 0.78171 0.5776 0.0
O255 O 0.89389 0.75999 0.6469 0.0
O256 O 0.89338 0.73021 0.67576 0.0
O257 O 0.86938 0.79926 0.63542 0.0
C258 C 0.94353 0.82012 0.65464 0.0
C259 C 0.88233 0.73591 0.65492 0.0
Zn260 Zn 0.20456 0.14731 0.69736 0.0
Zn261 Zn 0.19016 0.13068 0.6296 0.0
C262 C 0.23183 0.20392 0.71428 0.0
O263 O 0.24544 0.19776 0.73274 0.0
C264 C 0.17142 0.07458 0.63752 0.0
O265 O 0.18346 0.0779 0.61194 0.0
O266 O 0.20357 0.13769 0.74006 0.0
O267 O 0.1658 0.12956 0.68555 0.0
O268 O 0.17297 0.15085 0.64317 0.0
C269 C 0.18901 0.14211 0.75731 0.0
O270 O 0.17589 0.15328 0.7466 0.0
O271 O 0.21607 0.18647 0.69603 0.0
C272 C 0.19352 0.13776 0.56578 0.0
O273 O 0.21127 0.16257 0.57196 0.0
O274 O 0.18146 0.12152 0.58677 0.0
O275 O 0.22909 0.14981 0.63159 0.0
O276 O 0.23099 0.13868 0.67783 0.0
O277 O 0.17325 0.09486 0.65063 0.0
C278 C 0.15858 0.14038 0.66583 0.0
C279 C 0.24059 0.14419 0.65179 0.0
Zn280 Zn 0.84027 0.08111 0.69585 0.0
Zn281 Zn 0.84442 0.07882 0.62536 0.0
C282 C 0.78547 0.048 0.71566 0.0
O283 O 0.79092 0.06742 0.73439 0.0
C284 C 0.89743 0.09298 0.62359 0.0
O285 O 0.88649 0.07375 0.60395 0.0
O286 O 0.85015 0.08984 0.73891 0.0
O287 O 0.85994 0.06336 0.68049 0.0
O288 O 0.83086 0.04318 0.64483 0.0
C289 C 0.85707 0.07627 0.75501 0.0
O290 O 0.8586 0.05638 0.7432 0.0
O291 O 0.80234 0.05118 0.69592 0.0
C292 C 0.85508 0.09734 0.56648 0.0
O293 O 0.86233 0.11948 0.58124 0.0
O294 O 0.84482 0.07538 0.58066 0.0
O295 O 0.82542 0.09872 0.63383 0.0
O296 O 0.84616 0.11516 0.67598 0.0
O297 O 0.88305 0.10042 0.63696 0.0
C298 C 0.84587 0.04263 0.66503 0.0
C299 C 0.83561 0.11765 0.65238 0.0
Zn300 Zn 0.20457 0.09204 0.12534 0.0
Zn301 Zn 0.21643 0.07228 0.20707 0.0
C302 C 0.17179 0.11405 0.12756 0.0
O303 O 0.16285 0.0985 0.10419 0.0
C304 C 0.23532 0.03483 0.21584 0.0
O305 O 0.25744 0.0559 0.22434 0.0
O306 O 0.2113 0.09627 0.08145 0.0
O307 O 0.23269 0.09155 0.15081 0.0
O308 O 0.25186 0.10458 0.19341 0.0
C309 C 0.21587 0.11799 0.06934 0.0
O310 O 0.21939 0.13801 0.08611 0.0
O311 O 0.19191 0.11625 0.14115 0.0
C312 C 0.19306 0.05971 0.26518 0.0
O313 O 0.18359 0.03506 0.25604 0.0
O314 O 0.20747 0.07891 0.24785 0.0
O315 O 0.1889 0.06978 0.17808 0.0
O316 O 0.17417 0.05554 0.1336 0.0
O317 O 0.21629 0.03769 0.20671 0.0
C318 C 0.25134 0.10949 0.16596 0.0
C319 C 0.17379 0.05061 0.16114 0.0
Zn320 Zn 0.89957 0.11204 0.13126 0.0
Zn321 Zn 0.9291 0.16761 0.20325 0.0
C322 C 0.86267 0.05571 0.12693 0.0
O323 O 0.86975 0.05984 0.09893 0.0
C324 C 0.96126 0.21954 0.22623 0.0
O325 O 0.94042 0.21131 0.24341 0.0
O326 O 0.89978 0.11671 0.08656 0.0
O327 O 0.8973 0.13984 0.15515 0.0
O328 O 0.89726 0.16877 0.18539 0.0
C329 C 0.87907 0.11045 0.0714 0.0
O330 O 0.85615 0.10096 0.08489 0.0
O331 O 0.87194 0.07536 0.14462 0.0
C332 C 0.92443 0.1367 0.25765 0.0
O333 O 0.93508 0.12526 0.24219 0.0
O334 O 0.92 0.15388 0.24528 0.0
O335 O 0.93875 0.14411 0.17862 0.0
O336 O 0.93439 0.1156 0.14392 0.0
O337 O 0.96074 0.20436 0.20564 0.0
C338 C 0.88686 0.15334 0.16339 0.0
C339 C 0.94755 0.1307 0.16543 0.0
Zn340 Zn 0.88322 0.79548 0.12393 0.0
Zn341 Zn 0.82705 0.76694 0.19483 0.0
C342 C 0.9398 0.81593 0.12249 0.0
O343 O 0.93635 0.81441 0.09361 0.0
C344 C 0.77035 0.74926 0.2088 0.0
O345 O 0.76586 0.72478 0.21212 0.0
O346 O 0.88121 0.79406 0.07919 0.0
O347 O 0.8552 0.76171 0.14438 0.0
O348 O 0.82427 0.73393 0.17466 0.0
C349 C 0.88174 0.77605 0.06372 0.0
O350 O 0.88325 0.75669 0.07717 0.0
O351 O 0.91972 0.80686 0.13936 0.0
C352 C 0.84673 0.79008 0.25141 0.0
O353 O 0.83767 0.80562 0.24232 0.0
O354 O 0.84457 0.7716 0.23447 0.0
O355 O 0.85061 0.79823 0.16954 0.0
O356 O 0.87798 0.82574 0.13686 0.0
O357 O 0.79318 0.76763 0.20095 0.0
C358 C 0.84003 0.73793 0.15313 0.0
C359 C 0.8626 0.82149 0.15861 0.0
C360 C 0.49909 0.17388 0.96198 0.0
C361 C 0.51586 0.16886 0.97989 0.0
C362 C 0.49356 0.19397 0.96955 0.0
C363 C 0.50016 0.24252 0.02747 0.0
H364 H 0.51678 0.28966 0.95969 0.0
C365 C 0.53601 0.3583 0.99387 0.0
C366 C 0.51557 0.36209 0.00468 0.0
C367 C 0.53455 0.33368 -0.0033 0.0
C368 C 0.5121 0.27672 0.97886 0.0
H369 H 0.53777 0.17909 0.02134 0.0
H370 H 0.52832 0.21433 0.03431 0.0
H371 H 0.51357 0.24658 0.95335 0.0
H372 H 0.47879 0.34394 0.02942 0.0
H373 H 0.47585 0.30015 0.03371 0.0
H374 H 0.49937 0.27349 0.05299 0.0
C375 C 0.51945 0.20277 0.01445 0.0
C376 C 0.50988 0.25186 0.97514 0.0
C377 C 0.525 0.18267 0.00688 0.0
C378 C 0.49463 0.34139 0.02058 0.0
C379 C 0.49301 0.31644 0.02315 0.0
C380 C 0.50215 0.26753 0.03115 0.0
C381 C 0.50467 0.20941 0.99518 0.0
C382 C 0.50416 0.23455 -0.00061 0.0
C383 C 0.51246 0.31216 0.01007 0.0
C384 C 0.50865 0.28501 0.0069 0.0
H385 H 0.49147 0.16342 0.94122 0.0
H386 H 0.4817 0.19837 0.95454 0.0
H387 H 0.49574 0.22955 0.04654 0.0
H388 H 0.55276 0.37416 0.98223 0.0
H389 H 0.55016 0.33109 0.98713 0.0
C390 C 0.65499 0.20218 0.02305 0.0
C391 C 0.64728 0.18691 -0.00301 0.0
C392 C 0.67943 0.22595 0.02429 0.0
C393 C 0.72193 0.27733 0.9723 0.0
H394 H 0.77513 0.30674 0.03428 0.0
C395 C 0.81857 0.3719 0.95039 0.0
C396 C 0.82686 0.39246 0.97129 0.0
C397 C 0.79906 0.34603 0.95754 0.0
C398 C 0.76027 0.29877 0.01696 0.0
H399 H 0.65924 0.18288 0.95286 0.0
H400 H 0.70208 0.22386 0.95517 0.0
H401 H 0.7364 0.2617 0.04015 0.0
H402 H 0.82241 0.40175 0.01676 0.0
H403 H 0.78778 0.35613 0.02922 0.0
H404 H 0.7451 0.31397 0.94916 0.0
C405 C 0.68925 0.21795 0.97441 0.0
C406 C 0.73822 0.27309 0.0203 0.0
C407 C 0.66487 0.1945 0.97309 0.0
C408 C 0.81638 0.38626 0.00019 0.0
C409 C 0.79661 0.36019 0.00734 0.0
C410 C 0.74369 0.30275 0.96903 0.0
C411 C 0.69626 0.23453 -0.00055 0.0
C412 C 0.71919 0.26198 -0.0024 0.0
C413 C 0.78715 0.34007 0.98568 0.0
C414 C 0.76343 0.31357 0.99094 0.0
H415 H 0.64144 0.19672 0.04157 0.0
H416 H 0.68433 0.23842 0.0438 0.0
H417 H 0.70715 0.26964 0.95487 0.0
H418 H 0.82651 0.37594 0.92807 0.0
H419 H 0.7926 0.33079 0.9406 0.0
C420 C 0.6277 0.45438 0.94072 0.0
C421 C 0.61219 0.46041 0.95942 0.0
C422 C 0.65168 0.45744 0.95068 0.0
C423 C 0.70456 0.49001 0.00541 0.0
H424 H 0.71586 0.43086 0.98763 0.0
C425 C 0.80649 0.49845 -0.0028 0.0
C426 C 0.80965 0.47745 0.00798 0.0
C427 C 0.78179 0.49673 -0.00181 0.0
C428 C 0.71281 0.44732 0.99322 0.0
H429 H 0.61033 0.47587 0.0026 0.0
H430 H 0.65255 0.48138 0.01995 0.0
H431 H 0.67389 0.42791 0.97457 0.0
H432 H 0.7899 0.43861 0.02928 0.0
H433 H 0.74635 0.43529 0.0303 0.0
H434 H 0.74388 0.50967 0.02335 0.0
C435 C 0.64599 0.47419 -0.00236 0.0
C436 C 0.68895 0.44579 0.98541 0.0
C437 C 0.62191 0.47112 0.98766 0.0
C438 C 0.78792 0.45505 0.02074 0.0
C439 C 0.76307 0.45313 0.02131 0.0
C440 C 0.72856 0.49163 0.01303 0.0
C441 C 0.66066 0.4666 0.97953 0.0
C442 C 0.6849 0.4674 0.99068 0.0
C443 C 0.75975 0.47381 0.00963 0.0
C444 C 0.7331 0.47055 0.00632 0.0
H445 H 0.62086 0.44635 0.91874 0.0
H446 H 0.66298 0.4521 0.93599 0.0
H447 H 0.70185 0.50688 0.00984 0.0
H448 H 0.82303 0.51608 0.98758 0.0
H449 H 0.77971 0.51282 0.98877 0.0
C450 C 0.64887 0.44834 0.51322 0.0
C451 C 0.65043 0.47171 0.50193 0.0
C452 C 0.67156 0.44596 0.51464 0.0
C453 C 0.74422 0.4842 0.51566 0.0
H454 H 0.73966 0.42246 0.47657 0.0
C455 C 0.8362 0.47688 0.4813 0.0
C456 C 0.83439 0.45188 0.48459 0.0
C457 C 0.81407 0.4797 0.48661 0.0
C458 C 0.7412 0.43962 0.48799 0.0
H459 H 0.67679 0.51135 0.48471 0.0
H460 H 0.7165 0.50738 0.48773 0.0
H461 H 0.70001 0.42615 0.48169 0.0
H462 H 0.80817 0.41047 0.49703 0.0
H463 H 0.77008 0.41552 0.50652 0.0
H464 H 0.78546 0.49771 0.52188 0.0
C465 C 0.6978 0.49085 0.49518 0.0
C466 C 0.71849 0.44169 0.49092 0.0
C467 C 0.67509 0.49303 0.49323 0.0
C468 C 0.8103 0.43003 0.49412 0.0
C469 C 0.78833 0.43284 0.49938 0.0
C470 C 0.76695 0.48204 0.51292 0.0
C471 C 0.69616 0.46714 0.50539 0.0
C472 C 0.71984 0.46409 0.50455 0.0
C473 C 0.78979 0.45757 0.49523 0.0
C474 C 0.7657 0.45981 0.49887 0.0
H475 H 0.63002 0.43162 0.52002 0.0
H476 H 0.66986 0.42751 0.52269 0.0
H477 H 0.74568 0.50159 0.52642 0.0
H478 H 0.85447 0.49407 0.47401 0.0
H479 H 0.81574 0.49901 0.48307 0.0
C480 C 0.51424 0.18847 0.51648 0.0
C481 C 0.53593 0.18841 0.503 0.0
C482 C 0.51436 0.21249 0.5207 0.0
C483 C 0.55586 0.28511 0.52555 0.0
H484 H 0.50225 0.2889 0.47806 0.0
C485 C 0.55533 0.38398 0.50495 0.0
C486 C 0.55867 0.39009 0.47453 0.0
C487 C 0.54771 0.35809 0.5147 0.0
C488 C 0.517 0.288 0.49189 0.0
H489 H 0.57545 0.21333 0.48541 0.0
H490 H 0.57602 0.25536 0.49381 0.0
H491 H 0.49971 0.24579 0.48602 0.0
H492 H 0.5552 0.37394 0.43043 0.0
H493 H 0.54096 0.32865 0.44734 0.0
H494 H 0.57365 0.32749 0.53055 0.0
C495 C 0.5588 0.23686 0.50063 0.0
C496 C 0.51552 0.26339 0.49651 0.0
C497 C 0.55842 0.21284 0.49568 0.0
C498 C 0.55273 0.36968 0.454 0.0
C499 C 0.5445 0.34378 0.46366 0.0
C500 C 0.55703 0.30966 0.52145 0.0
C501 C 0.53648 0.23684 0.51233 0.0
C502 C 0.53543 0.26188 0.51253 0.0
C503 C 0.54264 0.33789 0.49409 0.0
C504 C 0.53812 0.31144 0.50372 0.0
H505 H 0.49663 0.16989 0.52225 0.0
H506 H 0.49692 0.21202 0.52973 0.0
H507 H 0.57143 0.28441 0.53797 0.0
H508 H 0.56006 0.3995 0.52118 0.0
H509 H 0.54645 0.35398 0.53828 0.0
C510 C 0.63733 0.16304 0.46511 0.0
C511 C 0.61644 0.16578 0.45389 0.0
C512 C 0.65924 0.18505 0.47777 0.0
C513 C 0.69229 0.25875 0.47795 0.0
H514 H 0.73574 0.25194 0.53873 0.0
C515 C 0.78852 0.34804 0.5201 0.0
C516 C 0.80994 0.34544 0.51005 0.0
C517 C 0.76309 0.32592 0.52078 0.0
C518 C 0.72348 0.25403 0.52205 0.0
H519 H 0.60059 0.19232 0.44851 0.0
H520 H 0.63799 0.23026 0.47164 0.0
H521 H 0.69332 0.213 0.52517 0.0
H522 H 0.82214 0.31771 0.49495 0.0
H523 H 0.77751 0.27875 0.49679 0.0
H524 H 0.72245 0.29974 0.47497 0.0
C525 C 0.63844 0.21186 0.4696 0.0
C526 C 0.69945 0.2318 0.51402 0.0
C527 C 0.61702 0.19017 0.45639 0.0
C528 C 0.80585 0.32019 0.5024 0.0
C529 C 0.7805 0.29796 0.50379 0.0
C530 C 0.71594 0.28098 0.48643 0.0
C531 C 0.66008 0.20977 0.47995 0.0
C532 C 0.68398 0.23375 0.49122 0.0
C533 C 0.75894 0.30086 0.51225 0.0
C534 C 0.732 0.27857 0.50789 0.0
H535 H 0.63685 0.14411 0.46372 0.0
H536 H 0.6757 0.18281 0.48521 0.0
H537 H 0.68124 0.26101 0.45995 0.0
H538 H 0.79123 0.36732 0.52626 0.0
H539 H 0.74657 0.32846 0.52713 0.0
C540 C 0.16745 0.66475 0.32998 0.0
C541 C 0.1903 0.68865 0.33733 0.0
C542 C 0.16619 0.64033 0.33534 0.0
C543 C 0.21215 0.61395 0.34479 0.0
H544 H 0.14632 0.54644 0.34916 0.0
C545 C 0.20771 0.51229 0.33768 0.0
C546 C 0.19755 0.50151 0.30963 0.0
C547 C 0.20364 0.53231 0.34938 0.0
C548 C 0.16484 0.5652 0.34838 0.0
H549 H 0.22902 0.70632 0.35762 0.0
H550 H 0.22644 0.66374 0.36864 0.0
H551 H 0.14594 0.58811 0.35661 0.0
H552 H 0.17402 0.5017 0.27258 0.0
H553 H 0.16566 0.53576 0.29382 0.0
H554 H 0.23088 0.59079 0.33663 0.0
C555 C 0.20978 0.66355 0.35774 0.0
C556 C 0.16467 0.5891 0.3523 0.0
C557 C 0.21121 0.68795 0.35179 0.0
C558 C 0.18171 0.50955 0.29442 0.0
C559 C 0.17695 0.52895 0.30653 0.0
C560 C 0.21235 0.59007 0.3416 0.0
C561 C 0.18769 0.63941 0.3485 0.0
C562 C 0.18822 0.61387 0.34953 0.0
C563 C 0.1887 0.54115 0.33355 0.0
C564 C 0.18863 0.5656 0.34251 0.0
H565 H 0.15121 0.66502 0.31856 0.0
H566 H 0.14896 0.62239 0.32751 0.0
H567 H 0.23066 0.63241 0.34186 0.0
H568 H 0.22047 0.50672 0.34946 0.0
H569 H 0.21311 0.54173 0.37008 0.0
C570 C 0.4758 0.69197 0.33336 0.0
C571 C 0.48572 0.69803 0.30435 0.0
C572 C 0.4574 0.6657 0.34116 0.0
C573 C 0.40844 0.60385 0.30338 0.0
H574 H 0.39391 0.57437 0.38304 0.0
C575 C 0.32194 0.50188 0.32106 0.0
C576 C 0.30214 0.504 0.33623 0.0
C577 C 0.34838 0.52155 0.32434 0.0
C578 C 0.39804 0.58237 0.3607 0.0
H579 H 0.48651 0.68177 0.26152 0.0
H580 H 0.4561 0.6357 0.27558 0.0
H581 H 0.43426 0.61717 0.37337 0.0
H582 H 0.29406 0.52692 0.36805 0.0
H583 H 0.34051 0.56158 0.37375 0.0
H584 H 0.37244 0.56922 0.29072 0.0
C585 C 0.46115 0.65113 0.29199 0.0
C586 C 0.42094 0.6069 0.35513 0.0
C587 C 0.47881 0.67743 0.28395 0.0
C588 C 0.30917 0.52462 0.35676 0.0
C589 C 0.33569 0.54443 0.35998 0.0
C590 C 0.38609 0.57929 0.30881 0.0
C591 C 0.44917 0.64505 0.32021 0.0
C592 C 0.42629 0.61804 0.32637 0.0
C593 C 0.35523 0.54372 0.34251 0.0
C594 C 0.38058 0.56842 0.33746 0.0
H595 H 0.48082 0.70774 0.34934 0.0
H596 H 0.44853 0.66195 0.36299 0.0
H597 H 0.41111 0.61205 0.28122 0.0
H598 H 0.31678 0.48608 0.30508 0.0
H599 H 0.36322 0.5207 0.31068 0.0
C600 C 0.4854 0.83021 0.35055 0.0
C601 C 0.4814 0.80648 0.33746 0.0
C602 C 0.46387 0.83413 0.35545 0.0
C603 C 0.39115 0.80026 0.36016 0.0
H604 H 0.39634 0.85773 0.3108 0.0
C605 C 0.29915 0.80658 0.32868 0.0
C606 C 0.29549 0.80403 0.29775 0.0
C607 C 0.32384 0.81392 0.34103 0.0
C608 C 0.39477 0.84196 0.32517 0.0
H609 H 0.45189 0.76748 0.32145 0.0
H610 H 0.4144 0.77409 0.33056 0.0
H611 H 0.43624 0.85549 0.32224 0.0
H612 H 0.31518 0.80936 0.25547 0.0
H613 H 0.35844 0.82269 0.27706 0.0
H614 H 0.34947 0.78585 0.36168 0.0
C615 C 0.43406 0.78976 0.33673 0.0
C616 C 0.41755 0.84076 0.33187 0.0
C617 C 0.45552 0.7861 0.33121 0.0
C618 C 0.31741 0.81104 0.27936 0.0
C619 C 0.34218 0.81882 0.29171 0.0
C620 C 0.36844 0.80169 0.35386 0.0
C621 C 0.43809 0.81406 0.34809 0.0
C622 C 0.41571 0.81922 0.34825 0.0
C623 C 0.34537 0.81939 0.32265 0.0
C624 C 0.36992 0.82188 0.3352 0.0
H625 H 0.5052 0.84617 0.35568 0.0
H626 H 0.46739 0.85305 0.36419 0.0
H627 H 0.3893 0.78347 0.37284 0.0
H628 H 0.28261 0.80131 0.34344 0.0
H629 H 0.32587 0.81427 0.36494 0.0
C630 C 0.47083 0.78029 0.78764 0.0
C631 C 0.48565 0.77514 0.80845 0.0
C632 C 0.45379 0.78925 0.79681 0.0
C633 C 0.40906 0.78015 0.85489 0.0
H634 H 0.40326 0.83675 0.81549 0.0
C635 C 0.31133 0.77597 0.82621 0.0
C636 C 0.30852 0.79828 0.83184 0.0
C637 C 0.33537 0.77691 0.83154 0.0
C638 C 0.40487 0.82121 0.82714 0.0
H639 H 0.49477 0.77568 0.85511 0.0
H640 H 0.46382 0.79043 0.87144 0.0
H641 H 0.44321 0.8334 0.80882 0.0
H642 H 0.32846 0.8389 0.84822 0.0
H643 H 0.3712 0.84093 0.85629 0.0
H644 H 0.36981 0.76668 0.87124 0.0
C645 C 0.46599 0.78808 0.84797 0.0
C646 C 0.42764 0.81925 0.82324 0.0
C647 C 0.48368 0.77977 0.83866 0.0
C648 C 0.33013 0.82144 0.84361 0.0
C649 C 0.3545 0.8226 0.84823 0.0
C650 C 0.38607 0.78181 0.85832 0.0
C651 C 0.45071 0.79264 0.82708 0.0
C652 C 0.42959 0.79823 0.83635 0.0
C653 C 0.35733 0.80036 0.84204 0.0
C654 C 0.38345 0.80187 0.84372 0.0
H655 H 0.47203 0.77685 0.76422 0.0
H656 H 0.44202 0.7923 0.78029 0.0
H657 H 0.40999 0.76364 0.86504 0.0
H658 H 0.29495 0.75778 0.81741 0.0
H659 H 0.33709 0.75958 0.8263 0.0
C660 C 0.21201 0.52949 0.833 0.0
C661 C 0.19018 0.50417 0.83856 0.0
C662 C 0.20987 0.5522 0.8365 0.0
C663 C 0.18817 0.58544 0.81242 0.0
H664 H 0.16121 0.61205 0.8741 0.0
C665 C 0.17565 0.67299 0.7855 0.0
C666 C 0.18903 0.6944 0.80506 0.0
C667 C 0.16855 0.64722 0.79446 0.0
C668 C 0.16862 0.60467 0.85669 0.0
H669 H 0.14985 0.48265 0.85492 0.0
H670 H 0.14584 0.52276 0.86028 0.0
H671 H 0.16604 0.57273 0.88381 0.0
H672 H 0.20342 0.70572 0.85001 0.0
H673 H 0.19205 0.66069 0.8654 0.0
H674 H 0.19153 0.61713 0.78541 0.0
C675 C 0.16464 0.52491 0.85353 0.0
C676 C 0.17133 0.58227 0.86224 0.0
C677 C 0.16689 0.50204 0.85034 0.0
C678 C 0.19304 0.68941 0.83457 0.0
C679 C 0.18646 0.66362 0.84339 0.0
C680 C 0.18532 0.60745 0.80684 0.0
C681 C 0.18574 0.54997 0.84517 0.0
C682 C 0.1816 0.57285 0.84021 0.0
C683 C 0.17546 0.64257 0.82287 0.0
C684 C 0.17568 0.61749 0.82887 0.0
H685 H 0.23036 0.53166 0.82449 0.0
H686 H 0.22657 0.57141 0.83046 0.0
H687 H 0.19576 0.57832 0.7949 0.0
H688 H 0.17206 0.67639 0.76274 0.0
H689 H 0.15942 0.63123 0.77841 0.0
C690 C 0.29506 0.50035 0.82199 0.0
C691 C 0.28778 0.4972 0.79188 0.0
C692 C 0.31847 0.52281 0.83129 0.0
C693 C 0.35943 0.59169 0.80736 0.0
H694 H 0.41344 0.59571 0.86088 0.0
C695 C 0.46609 0.67491 0.80458 0.0
C696 C 0.47892 0.68697 0.83118 0.0
C697 C 0.44063 0.65299 0.80502 0.0
C698 C 0.39814 0.59484 0.84646 0.0
H699 H 0.30052 0.51309 0.74757 0.0
H700 H 0.34149 0.55186 0.7637 0.0
H701 H 0.37392 0.55235 0.85095 0.0
H702 H 0.47519 0.68611 0.87906 0.0
H703 H 0.43056 0.64669 0.87983 0.0
H704 H 0.38403 0.63384 0.80178 0.0
C705 C 0.32878 0.53754 0.7802 0.0
C706 C 0.37571 0.57013 0.84067 0.0
C707 C 0.30548 0.51526 0.77096 0.0
C708 C 0.46568 0.67703 0.85828 0.0
C709 C 0.44029 0.65459 0.85875 0.0
C710 C 0.38176 0.61624 0.81305 0.0
C711 C 0.33477 0.54221 0.81053 0.0
C712 C 0.35675 0.56829 0.82012 0.0
C713 C 0.42769 0.64243 0.83207 0.0
C714 C 0.40173 0.61785 0.83174 0.0
H715 H 0.28175 0.48668 0.83859 0.0
H716 H 0.32286 0.52589 0.85478 0.0
H717 H 0.34464 0.59088 0.79212 0.0
H718 H 0.47575 0.68239 0.78338 0.0
H719 H 0.43132 0.64376 0.78417 0.0
C720 C 0.82772 0.99383 0.65822 0.0
C721 C 0.84688 0.01809 0.67066 0.0
C722 C 0.82902 0.9707 0.66281 0.0
C723 C 0.87726 0.94969 0.67698 0.0
H724 H 0.81445 0.87969 0.68274 0.0
C725 C 0.88413 0.85537 0.66343 0.0
C726 C 0.86723 0.83856 0.64126 0.0
C727 C 0.87982 0.87491 0.67576 0.0
C728 C 0.83214 0.89913 0.68132 0.0
H729 H 0.88206 0.03712 0.69829 0.0
H730 H 0.88435 0.99657 0.70623 0.0
H731 H 0.81067 0.91962 0.68895 0.0
H732 H 0.83229 0.82779 0.61497 0.0
H733 H 0.82452 0.86212 0.63656 0.0
H734 H 0.8986 0.92934 0.66824 0.0
C735 C 0.86839 0.99552 0.69287 0.0
C736 C 0.83 0.92192 0.68482 0.0
C737 C 0.86703 0.01868 0.68838 0.0
C738 C 0.84525 0.84049 0.63238 0.0
C739 C 0.84084 0.86 0.64481 0.0
C740 C 0.87942 0.92693 0.67361 0.0
C741 C 0.84954 0.97136 0.67985 0.0
C742 C 0.8524 0.94741 0.68165 0.0
C743 C 0.85857 0.87789 0.66596 0.0
C744 C 0.85675 0.90147 0.6748 0.0
H745 H 0.81185 0.99274 0.64466 0.0
H746 H 0.81445 0.95248 0.65209 0.0
H747 H 0.89483 0.96904 0.67409 0.0
H748 H 0.90135 0.85415 0.67024 0.0
H749 H 0.89367 0.88835 0.69211 0.0
C750 C 0.14596 0.02512 0.63021 0.0
C751 C 0.15243 0.04732 0.64824 0.0
C752 C 0.12557 -0.00024 0.63823 0.0
C753 C 0.06413 0.96777 0.68184 0.0
H754 H 0.06445 0.90311 0.66027 0.0
C755 C 0.96997 0.86974 0.65403 0.0
C756 C 0.96767 0.84532 0.66268 0.0
C757 C 0.99318 0.89374 0.65951 0.0
C758 C 0.06416 0.92092 0.66693 0.0
H759 H 0.14338 0.06003 0.68963 0.0
H760 H 0.10805 0.0156 0.70392 0.0
H761 H 0.10525 0.94612 0.65668 0.0
H762 H 0.98752 0.82693 0.68489 0.0
H763 H 0.02869 0.86917 0.69391 0.0
H764 H 0.02288 0.94259 0.69142 0.0
C765 C 0.11845 0.01792 0.68328 0.0
C766 C 0.08746 0.94562 0.66454 0.0
C767 C 0.13882 0.04336 0.67517 0.0
C768 C 0.98882 0.84547 0.67786 0.0
C769 C 0.01235 0.86959 0.68293 0.0
C770 C 0.04083 0.9431 0.68413 0.0
C771 C 0.11121 0.99589 0.6646 0.0
C772 C 0.08757 0.96942 0.67119 0.0
C773 C 0.01485 0.89396 0.67348 0.0
C774 C 0.0404 0.91947 0.6759 0.0
H775 H 0.15589 0.02743 0.60921 0.0
H776 H 0.12031 0.98339 0.62305 0.0
H777 H 0.06338 0.98564 0.68701 0.0
H778 H 0.95387 0.8703 0.64262 0.0
H779 H -0.00549 0.91209 0.6517 0.0
C780 C 0.93408 0.11043 0.66107 0.0
C781 C 0.92528 0.10322 0.63173 0.0
C782 C 0.95936 0.11547 0.66936 0.0
C783 C 0.0092 0.09836 0.64439 0.0
H784 H 0.05855 0.15599 0.695 0.0
C785 C 0.12015 0.13948 0.64066 0.0
C786 C 0.13201 0.13748 0.66693 0.0
C787 C 0.09445 0.1352 0.64102 0.0
C788 C 0.04471 0.1396 0.68123 0.0
H789 H 0.93633 0.09762 0.58765 0.0
H790 H 0.9805 0.10731 0.60169 0.0
H791 H 0.01412 0.14967 0.68624 0.0
H792 H 0.12673 0.13044 0.71437 0.0
H793 H 0.08155 0.12358 0.71498 0.0
H794 H 0.04007 0.08907 0.63822 0.0
C795 C 0.96776 0.10811 0.61862 0.0
C796 C 0.01938 0.13598 0.67621 0.0
C797 C 0.94257 0.1028 0.61049 0.0
C798 C 0.11796 0.13196 0.69379 0.0
C799 C 0.09228 0.12816 0.69421 0.0
C800 C 0.03442 0.10214 0.64915 0.0
C801 C 0.9761 0.11352 0.64831 0.0
C802 C 0.00172 0.11582 0.65693 0.0
C803 C 0.08028 0.12931 0.66769 0.0
C804 C 0.05256 0.12318 0.66692 0.0
H805 H 0.92096 0.1107 0.67787 0.0
H806 H 0.9653 0.11967 0.69238 0.0
H807 H -0.00425 0.08212 0.63018 0.0
H808 H 0.13043 0.14363 0.61962 0.0
H809 H 0.08549 0.13624 0.62034 0.0
C810 C 0.14117 0.13171 0.11996 0.0
C811 C 0.15663 0.12609 0.13932 0.0
C812 C 0.1235 0.13914 0.13109 0.0
C813 C 0.07932 0.12402 0.19173 0.0
H814 H 0.06695 0.17834 0.15723 0.0
C815 C 0.97748 0.11169 0.16831 0.0
C816 C 0.97298 0.13292 0.17408 0.0
C817 C 0.0023 0.11441 0.17349 0.0
C818 C 0.07041 0.16344 0.16758 0.0
H819 H 0.16658 0.1247 0.18539 0.0
H820 H 0.1348 0.13693 0.205 0.0
H821 H 0.10865 0.17919 0.14742 0.0
H822 H 0.99047 0.17325 0.19098 0.0
H823 H 0.03452 0.1784 0.19892 0.0
H824 H 0.0402 0.10703 0.20992 0.0
C825 C 0.13679 0.136 0.18122 0.0
C826 C 0.09417 0.16386 0.16185 0.0
C827 C 0.15498 0.12914 0.17001 0.0
C828 C -0.00652 0.1566 0.1863 0.0
C829 C 0.0186 0.15956 0.19082 0.0
C830 C 0.05537 0.12333 0.19703 0.0
C831 C 0.12057 0.14057 0.16182 0.0
C832 C 0.09845 0.14366 0.1731 0.0
C833 C 0.02328 0.13859 0.18399 0.0
C834 C 0.05039 0.14255 0.1842 0.0
H835 H 0.1421 0.12951 0.09621 0.0
H836 H 0.111 0.14225 0.11569 0.0
H837 H 0.08207 0.10809 0.20044 0.0
H838 H 0.96195 0.09313 0.15914 0.0
H839 H 0.00546 0.09803 0.16776 0.0
C840 C 0.83365 0.83825 0.17909 0.0
C841 C 0.85862 0.84314 0.16955 0.0
C842 C 0.82897 0.85957 0.183 0.0
C843 C 0.83309 0.9165 0.19487 0.0
H844 H 0.85092 0.95078 0.1176 0.0
C845 C 0.85386 0.02312 0.16785 0.0
C846 C 0.84921 0.02824 0.1386 0.0
C847 C 0.84724 0.99729 0.17644 0.0
C848 C 0.84528 0.9412 0.13913 0.0
H849 H 0.89901 0.87377 0.1601 0.0
H850 H 0.89089 0.9108 0.16702 0.0
H851 H 0.85666 0.91278 0.12692 0.0
H852 H 0.83085 0.01013 0.09673 0.0
H853 H 0.81852 0.96496 0.11198 0.0
H854 H 0.82243 0.94577 0.20721 0.0
C855 C 0.87488 0.89066 0.17105 0.0
C856 C 0.84893 0.91964 0.14455 0.0
C857 C 0.87946 0.86951 0.16694 0.0
C858 C 0.83507 0.00677 0.11924 0.0
C859 C 0.82809 0.98095 0.12797 0.0
C860 C 0.82962 0.93846 0.1895 0.0
C861 C 0.84932 0.8858 0.17754 0.0
C862 C 0.84334 0.9074 0.17252 0.0
C863 C 0.83561 0.97623 0.15599 0.0
C864 C 0.83591 0.95113 0.16157 0.0
H865 H 0.81732 0.81804 0.18118 0.0
H866 H 0.80908 0.85544 0.18789 0.0
H867 H 0.82862 0.90721 0.21659 0.0
H868 H 0.86468 0.03934 0.18329 0.0
H869 H 0.85331 0.99431 0.19817 0.0
C870 C 0.15866 0.00273 0.15512 0.0
C871 C 0.15824 0.02297 0.17163 0.0
C872 C 0.13819 0.97645 0.1579 0.0
C873 C 0.07638 0.92823 0.19534 0.0
H874 H 0.05069 0.91132 0.11441 0.0
C875 C 0.96983 0.84555 0.16253 0.0
C876 C 0.96655 0.83309 0.13486 0.0
C877 C -0.00517 0.86579 0.17161 0.0
C878 C 0.05775 0.91524 0.13709 0.0
H879 H 0.138 0.03165 0.20622 0.0
H880 H 0.10148 0.98542 0.21059 0.0
H881 H 0.09242 0.9512 0.12435 0.0
H882 H 0.98709 0.83034 0.09627 0.0
H883 H 0.03078 0.86465 0.1126 0.0
H884 H 0.04128 0.89203 0.20796 0.0
C885 C 0.11783 0.98982 0.19585 0.0
C886 C 0.08171 0.93824 0.14279 0.0
C887 C 0.13868 0.01621 0.19338 0.0
C888 C 0.98897 0.8398 0.11753 0.0
C889 C 0.01397 0.85965 0.12682 0.0
C890 C 0.05231 0.90482 0.18956 0.0
C891 C 0.11667 0.97009 0.17675 0.0
C892 C 0.09143 0.94492 0.17186 0.0
C893 C 0.01707 0.87371 0.15336 0.0
C894 C 0.04283 0.89799 0.16026 0.0
H895 H 0.17372 0.00755 0.13838 0.0
H896 H 0.138 0.96147 0.14336 0.0
H897 H 0.08335 0.93314 0.21798 0.0
H898 H 0.95286 0.84088 0.17635 0.0
H899 H -0.0036 0.8762 0.1921 0.0
C900 C 0.54518 0.13703 0.34997 0.0
C901 C 0.53121 0.11117 0.36193 0.0
C902 C 0.55019 0.14078 0.31952 0.0
C903 C 0.55338 0.10348 0.25433 0.0
H904 H 0.56267 0.16528 0.2103 0.0
C905 C 0.56575 0.11046 0.12845 0.0
C906 C 0.58844 0.13319 0.11768 0.0
C907 C 0.55755 0.10944 0.15767 0.0
C908 C 0.56021 0.14801 0.22246 0.0
H909 H 0.50983 0.06908 0.35162 0.0
H910 H 0.51686 0.07549 0.29827 0.0
H911 H 0.54869 0.15961 0.26226 0.0
H912 H 0.61962 0.17318 0.12879 0.0
H913 H 0.60496 0.17137 0.18012 0.0
H914 H 0.56427 0.09162 0.21437 0.0
C915 C 0.5252 0.09294 0.31235 0.0
C916 C 0.55229 0.14475 0.25222 0.0
C917 C 0.52085 0.08919 0.34286 0.0
C918 C 0.60213 0.15534 0.13648 0.0
C919 C 0.59371 0.15439 0.16576 0.0
C920 C 0.56081 0.10652 0.22461 0.0
C921 C 0.5408 0.11873 0.30037 0.0
C922 C 0.54866 0.12233 0.26851 0.0
C923 C 0.57166 0.13119 0.17672 0.0
C924 C 0.56421 0.12871 0.20837 0.0
H925 H 0.55363 0.15433 0.36433 0.0
H926 H 0.56247 0.16091 0.3113 0.0
H927 H 0.55174 0.08646 0.26625 0.0
H928 H 0.55463 0.09312 0.11454 0.0
H929 H 0.54032 0.09143 0.16556 0.0
C930 C 0.89748 0.44709 0.35897 0.0
C931 C 0.87876 0.42507 0.37542 0.0
C932 C 0.893 0.45011 0.32916 0.0
C933 C 0.852 0.41366 0.26375 0.0
H934 H 0.8778 0.48555 0.23431 0.0
C935 C 0.83306 0.43766 0.14378 0.0
C936 C 0.85587 0.45671 0.12872 0.0
C937 C 0.8339 0.43338 0.17425 0.0
C938 C 0.87055 0.46537 0.24221 0.0
H939 H 0.84065 0.38874 0.37334 0.0
H940 H 0.83248 0.39425 0.32128 0.0
H941 H 0.8824 0.47842 0.28674 0.0
H942 H 0.89729 0.48662 0.13398 0.0
H943 H 0.89861 0.4794 0.18718 0.0
H944 H 0.83982 0.40077 0.21901 0.0
C945 C 0.85092 0.409 0.33131 0.0
C946 C 0.8733 0.46124 0.27225 0.0
C947 C 0.85557 0.40583 0.36119 0.0
C948 C 0.87941 0.47168 0.14487 0.0
C949 C 0.88014 0.46769 0.17536 0.0
C950 C 0.84895 0.4178 0.23372 0.0
C951 C 0.86948 0.43137 0.31498 0.0
C952 C 0.8646 0.43539 0.28335 0.0
C953 C 0.85745 0.44839 0.19034 0.0
C954 C 0.85866 0.44374 0.22256 0.0
H955 H 0.91566 0.46219 0.36918 0.0
H956 H 0.90811 0.46721 0.31722 0.0
H957 H 0.84523 0.39351 0.27135 0.0
H958 H 0.8146 0.42585 0.13198 0.0
H959 H 0.81608 0.41851 0.18529 0.0
C960 C 0.58282 0.46727 0.3511 0.0
C961 C 0.56507 0.44863 0.37157 0.0
C962 C 0.57935 0.46192 0.32064 0.0
C963 C 0.52741 0.41724 0.26685 0.0
H964 H 0.58611 0.44572 0.21142 0.0
C965 C 0.5133 0.38722 0.14418 0.0
C966 C 0.52104 0.40878 0.12454 0.0
C967 C 0.52139 0.39167 0.17378 0.0
C968 C 0.5696 0.43768 0.22675 0.0
H969 H 0.53074 0.40923 0.37659 0.0
H970 H 0.52546 0.39927 0.32395 0.0
H971 H 0.59491 0.4536 0.26462 0.0
H972 H 0.54466 0.45179 0.12007 0.0
H973 H 0.55931 0.45946 0.17193 0.0
H974 H 0.50223 0.40075 0.22899 0.0
C975 C 0.54133 0.41857 0.33095 0.0
C976 C 0.57456 0.44231 0.25719 0.0
C977 C 0.54445 0.42418 0.36123 0.0
C978 C 0.53824 0.4348 0.13474 0.0
C979 C 0.54673 0.4392 0.16431 0.0
C980 C 0.52254 0.41219 0.23661 0.0
C981 C 0.55835 0.43757 0.31012 0.0
C982 C 0.55348 0.43224 0.27768 0.0
C983 C 0.53779 0.4177 0.18422 0.0
C984 C 0.54354 0.42246 0.21628 0.0
H985 H 0.59887 0.48631 0.35856 0.0
H986 H 0.59269 0.47722 0.30539 0.0
H987 H 0.51056 0.40974 0.28162 0.0
H988 H 0.50011 0.36693 0.13703 0.0
H989 H 0.51437 0.37478 0.18873 0.0
C990 C 0.90063 0.46827 0.85623 0.0
C991 C 0.88158 0.47007 0.87357 0.0
C992 C 0.89521 0.45962 0.82684 0.0
C993 C 0.85122 0.45117 0.76348 0.0
H994 H 0.87907 0.40746 0.73309 0.0
C995 C 0.83306 0.41052 0.64284 0.0
C996 C 0.85594 0.41471 0.62777 0.0
C997 C 0.83374 0.41496 0.67342 0.0
C998 C 0.87123 0.41972 0.74124 0.0
H999 H 0.84182 0.46426 0.87344 0.0
H1000 H 0.8323 0.44903 0.82205 0.0
H1001 H 0.88446 0.41946 0.78545 0.0
H1002 H 0.89731 0.42631 0.63312 0.0
H1003 H 0.89842 0.43387 0.68638 0.0
H1004 H 0.83803 0.45134 0.71909 0.0
C1005 C 0.85158 0.4546 0.83115 0.0
C1006 C 0.87439 0.4267 0.77123 0.0
C1007 C 0.85704 0.46332 0.86063 0.0
C1008 C 0.87938 0.42306 0.644 0.0
C1009 C 0.87997 0.42717 0.67457 0.0
C1010 C 0.84789 0.44401 0.73349 0.0
C1011 C 0.87055 0.45243 0.81396 0.0
C1012 C 0.86498 0.44304 0.78261 0.0
C1013 C 0.85721 0.42331 0.68961 0.0
C1014 C 0.85838 0.4287 0.72193 0.0
H1015 H 0.91974 0.47329 0.86543 0.0
H1016 H 0.91051 0.45875 0.81415 0.0
H1017 H 0.84387 0.4639 0.77139 0.0
H1018 H 0.81466 0.404 0.63098 0.0
H1019 H 0.81586 0.41166 0.68446 0.0
C1020 C 0.5884 0.44089 0.63957 0.0
C1021 C 0.58103 0.45584 0.62126 0.0
C1022 C 0.58255 0.43824 0.66992 0.0
C1023 C 0.5745 0.47345 0.73076 0.0
H1024 H 0.53013 0.40536 0.7693 0.0
C1025 C 0.53785 0.47 0.84922 0.0
C1026 C 0.53553 0.44976 0.86823 0.0
C1027 C 0.54216 0.46895 0.81893 0.0
C1028 C 0.54292 0.42455 0.75909 0.0
H1029 H 0.56157 0.47951 0.6204 0.0
H1030 H 0.55199 0.47533 0.67336 0.0
H1031 H 0.54156 0.40668 0.71693 0.0
H1032 H 0.53565 0.41242 0.87073 0.0
H1033 H 0.54448 0.41116 0.81819 0.0
H1034 H 0.57691 0.49154 0.77259 0.0
C1035 C 0.56209 0.46555 0.66414 0.0
C1036 C 0.54935 0.42522 0.72908 0.0
C1037 C 0.5675 0.46783 0.63384 0.0
C1038 C 0.537 0.42812 0.8564 0.0
C1039 C 0.54203 0.42741 0.82622 0.0
C1040 C 0.56857 0.4728 0.76079 0.0
C1041 C 0.56969 0.4509 0.68243 0.0
C1042 C 0.56476 0.44973 0.71463 0.0
C1043 C 0.5451 0.44805 0.80711 0.0
C1044 C 0.55222 0.44839 0.77529 0.0
H1045 H 0.59883 0.43141 0.6305 0.0
H1046 H 0.58865 0.42692 0.68375 0.0
H1047 H 0.58672 0.49257 0.72006 0.0
H1048 H 0.53663 0.48681 0.85786 0.0
H1049 H 0.54353 0.48479 0.80487 0.0
C1050 C 0.56659 0.1434 0.85738 0.0
C1051 C 0.55877 0.11862 0.87089 0.0
C1052 C 0.56394 0.1452 0.82679 0.0
C1053 C 0.52554 0.10587 0.76288 0.0
H1054 H 0.58181 0.16211 0.71643 0.0
C1055 C 0.52034 0.10827 0.63558 0.0
C1056 C 0.5282 0.13301 0.62196 0.0
C1057 C 0.52509 0.10681 0.66569 0.0
C1058 C 0.56581 0.14647 0.72915 0.0
H1059 H 0.54204 0.07629 0.8629 0.0
H1060 H 0.53705 0.0794 0.80936 0.0
H1061 H 0.58821 0.15871 0.76952 0.0
H1062 H 0.54779 0.17572 0.62925 0.0
H1063 H 0.55607 0.17315 0.68199 0.0
H1064 H 0.50299 0.09379 0.72274 0.0
C1065 C 0.5453 0.09743 0.82252 0.0
C1066 C 0.56949 0.14449 0.75953 0.0
C1067 C 0.54829 0.09566 0.85312 0.0
C1068 C 0.54146 0.15634 0.63906 0.0
C1069 C 0.54631 0.15488 0.66925 0.0
C1070 C 0.52182 0.1079 0.73257 0.0
C1071 C 0.55308 0.12223 0.80905 0.0
C1072 C 0.54941 0.12413 0.7767 0.0
C1073 C 0.53789 0.13004 0.68299 0.0
C1074 C 0.54192 0.12817 0.71531 0.0
H1075 H 0.57486 0.16148 0.87044 0.0
H1076 H 0.56989 0.16455 0.81711 0.0
H1077 H 0.50953 0.09026 0.77562 0.0
H1078 H 0.51012 0.08989 0.62309 0.0
H1079 H 0.51873 0.0874 0.67544 0.0
C1080 C 0.2516 0.49243 0.46798 0.0
C1081 C 0.24882 0.46939 0.45421 0.0
C1082 C 0.24814 0.49277 0.49865 0.0
C1083 C 0.25326 0.46195 0.56642 0.0
H1084 H 0.19747 0.47191 0.59961 0.0
C1085 C 0.2135 0.42284 0.68148 0.0
C1086 C 0.20858 0.43901 0.70039 0.0
C1087 C 0.21821 0.42905 0.65143 0.0
C1088 C 0.2134 0.4695 0.59074 0.0
H1089 H 0.24015 0.42868 0.4617 0.0
H1090 H 0.23447 0.42951 0.51488 0.0
H1091 H 0.20839 0.48072 0.54679 0.0
H1092 H 0.20359 0.47371 0.70279 0.0
H1093 H 0.21251 0.48496 0.65029 0.0
H1094 H 0.25839 0.45061 0.60986 0.0
C1095 C 0.23934 0.44724 0.50203 0.0
C1096 C 0.21964 0.47461 0.56063 0.0
C1097 C 0.24247 0.44677 0.47156 0.0
C1098 C 0.2072 0.4608 0.68857 0.0
C1099 C 0.21232 0.46726 0.65854 0.0
C1100 C 0.24724 0.45711 0.59641 0.0
C1101 C 0.24227 0.47022 0.51582 0.0
C1102 C 0.23901 0.46998 0.54817 0.0
C1103 C 0.2186 0.45185 0.63986 0.0
C1104 C 0.2266 0.45987 0.60868 0.0
H1105 H 0.25652 0.51016 0.45513 0.0
H1106 H 0.25046 0.51068 0.50901 0.0
H1107 H 0.26852 0.45861 0.55723 0.0
H1108 H 0.21435 0.40577 0.69004 0.0
H1109 H 0.22215 0.41629 0.63738 0.0
C1110 C 0.53822 0.79141 0.46572 0.0
C1111 C 0.5282 0.80771 0.45576 0.0
C1112 C 0.5359 0.78381 0.49556 0.0
C1113 C 0.53474 0.80911 0.56803 0.0
H1114 H 0.50831 0.73714 0.59743 0.0
C1115 C 0.52878 0.78924 0.69295 0.0
C1116 C 0.53477 0.77005 0.70356 0.0
C1117 C 0.52517 0.79138 0.66269 0.0
C1118 C 0.5161 0.7574 0.58959 0.0
H1119 H 0.50721 0.82813 0.46909 0.0
H1120 H 0.50382 0.81541 0.52128 0.0
H1121 H 0.5071 0.74488 0.54416 0.0
H1122 H 0.5411 0.73758 0.69098 0.0
H1123 H 0.53609 0.74209 0.63778 0.0
H1124 H 0.54499 0.82209 0.6127 0.0
C1125 C 0.51326 0.80839 0.50592 0.0
C1126 C 0.51523 0.76176 0.55912 0.0
C1127 C 0.51516 0.81559 0.47605 0.0
C1128 C 0.53652 0.75259 0.68334 0.0
C1129 C 0.53346 0.75509 0.65287 0.0
C1130 C 0.53606 0.80486 0.59829 0.0
C1131 C 0.52395 0.79277 0.51602 0.0
C1132 C 0.5244 0.78765 0.54815 0.0
C1133 C 0.5281 0.77481 0.6421 0.0
C1134 C 0.52658 0.77895 0.60961 0.0
H1135 H 0.54823 0.7849 0.45055 0.0
H1136 H 0.5444 0.77185 0.50287 0.0
H1137 H 0.54238 0.82932 0.56005 0.0
H1138 H 0.52678 0.80263 0.70809 0.0
H1139 H 0.5202 0.80621 0.6555 0.0
C1140 C 0.22668 0.78653 0.68598 0.0
C1141 C 0.20674 0.76681 0.70382 0.0
C1142 C 0.22581 0.78367 0.65508 0.0
C1143 C 0.17938 0.74352 0.59412 0.0
H1144 H 0.24383 0.77034 0.54792 0.0
C1145 C 0.17888 0.7122 0.47368 0.0
C1146 C 0.18776 0.7335 0.45347 0.0
C1147 C 0.18413 0.7171 0.50393 0.0
C1148 C 0.22575 0.76281 0.56068 0.0
H1149 H 0.17075 0.72831 0.7035 0.0
H1150 H 0.16985 0.72264 0.65027 0.0
H1151 H 0.24664 0.77732 0.60167 0.0
H1152 H 0.21064 0.77655 0.44884 0.0
H1153 H 0.22031 0.78501 0.50194 0.0
H1154 H 0.1586 0.72814 0.55324 0.0
C1155 C 0.18558 0.74095 0.65962 0.0
C1156 C 0.22728 0.76696 0.5914 0.0
C1157 C 0.18613 0.74411 0.69029 0.0
C1158 C 0.20337 0.75975 0.46393 0.0
C1159 C 0.20903 0.76461 0.49421 0.0
C1160 C 0.1779 0.7389 0.56368 0.0
C1161 C 0.20525 0.76074 0.64146 0.0
C1162 C 0.20405 0.75723 0.60859 0.0
C1163 C 0.19879 0.74334 0.51448 0.0
C1164 C 0.20101 0.74842 0.54673 0.0
H1165 H 0.24282 0.80425 0.69589 0.0
H1166 H 0.24113 0.79954 0.64193 0.0
H1167 H 0.16104 0.7364 0.60623 0.0
H1168 H 0.16687 0.69175 0.46634 0.0
H1169 H 0.17614 0.7004 0.51924 0.0
C1170 C 0.54212 0.76883 0.96633 0.0
C1171 C 0.53148 0.74289 0.95488 0.0
C1172 C 0.5418 0.77284 -0.00309 0.0
C1173 C 0.54526 0.74347 0.06603 0.0
H1174 H 0.5184 0.7851 0.10422 0.0
C1175 C 0.53971 0.74592 0.19258 0.0
C1176 C 0.54419 0.76944 0.20656 0.0
C1177 C 0.53722 0.74342 0.16184 0.0
C1178 C 0.52639 0.77378 0.0939 0.0
H1179 H 0.51154 0.70082 0.96637 0.0
H1180 H 0.51161 0.70795 0.01965 0.0
H1181 H 0.51527 0.77969 0.05024 0.0
H1182 H 0.54959 0.80888 0.19935 0.0
H1183 H 0.54662 0.80513 0.14527 0.0
H1184 H 0.55739 0.73823 0.10891 0.0
C1185 C 0.52002 0.7251 0.00497 0.0
C1186 C 0.52443 0.77058 0.06303 0.0
C1187 C 0.51994 0.72106 0.97447 0.0
C1188 C 0.54623 0.79054 0.18911 0.0
C1189 C 0.54426 0.78825 0.15814 0.0
C1190 C 0.54767 0.74704 0.09666 0.0
C1191 C 0.53126 0.75101 0.01648 0.0
C1192 C 0.53359 0.75513 0.04894 0.0
C1193 C 0.53976 0.76463 0.14409 0.0
C1194 C 0.53798 0.76194 0.11115 0.0
H1195 H 0.55101 0.78602 0.95174 0.0
H1196 H 0.55068 0.79301 0.00534 0.0
H1197 H 0.55287 0.73183 0.05558 0.0
H1198 H 0.53747 0.72907 0.20545 0.0
H1199 H 0.53294 0.72462 0.15207 0.0
C1200 C 0.25713 0.78005 0.96383 0.0
C1201 C 0.24929 0.79573 0.94753 0.0
C1202 C 0.25107 0.77513 0.99406 0.0
C1203 C 0.24309 0.80696 0.05802 0.0
H1204 H 0.20365 0.73746 0.09534 0.0
C1205 C 0.21438 0.79879 0.18051 0.0
C1206 C 0.21481 0.77877 0.19764 0.0
C1207 C 0.21639 0.79863 0.14966 0.0
C1208 C 0.21505 0.75704 0.0854 0.0
H1209 H 0.22809 0.81766 0.94997 0.0
H1210 H 0.21812 0.80951 0.00267 0.0
H1211 H 0.21214 0.74064 0.04191 0.0
H1212 H 0.2172 0.74261 0.19617 0.0
H1213 H 0.22204 0.74298 0.14251 0.0
H1214 H 0.24718 0.82364 0.10106 0.0
C1215 C 0.22885 0.80102 0.992 0.0
C1216 C 0.21977 0.75878 0.05481 0.0
C1217 C 0.23454 0.8056 0.96183 0.0
C1218 C 0.21664 0.75821 0.18339 0.0
C1219 C 0.2193 0.75839 0.15257 0.0
C1220 C 0.23886 0.80527 0.08856 0.0
C1221 C 0.23741 0.78613 0.00845 0.0
C1222 C 0.23349 0.78378 0.04089 0.0
C1223 C 0.21963 0.77886 0.1353 0.0
C1224 C 0.22443 0.78031 0.10268 0.0
H1225 H 0.26845 0.77211 0.95342 0.0
H1226 H 0.25791 0.76364 0.00643 0.0
H1227 H 0.25407 0.82646 0.04775 0.0
H1228 H 0.21264 0.81467 0.19099 0.0
H1229 H 0.21567 0.81426 0.13715 0.0
C1230 C 0.20356 0.4478 0.96057 0.0
C1231 C 0.18758 0.45843 0.9518 0.0
C1232 C 0.21289 0.45092 0.98965 0.0
C1233 C 0.21739 0.48562 0.06122 0.0
H1234 H 0.21103 0.42103 0.09532 0.0
C1235 C 0.19453 0.45581 0.18393 0.0
C1236 C 0.21106 0.44834 0.1987 0.0
C1237 C 0.1968 0.46018 0.15336 0.0
C1238 C 0.21327 0.43932 0.08599 0.0
H1239 H 0.16983 0.48169 0.96608 0.0
H1240 H 0.18502 0.48614 0.01705 0.0
H1241 H 0.20667 0.42397 0.04198 0.0
H1242 H 0.24261 0.43918 0.19325 0.0
H1243 H 0.24575 0.44573 0.13932 0.0
H1244 H 0.22222 0.50006 0.10585 0.0
C1245 C 0.19102 0.47597 0.00146 0.0
C1246 C 0.21094 0.44114 0.05539 0.0
C1247 C 0.18207 0.47323 0.97225 0.0
C1248 C 0.22959 0.44485 0.18232 0.0
C1249 C 0.23145 0.44866 0.15161 0.0
C1250 C 0.21926 0.48358 0.0919 0.0
C1251 C 0.20605 0.46433 0.01072 0.0
C1252 C 0.21233 0.46407 0.04266 0.0
C1253 C 0.21525 0.45662 0.13698 0.0
C1254 C 0.21663 0.46018 0.10452 0.0
H1255 H 0.20851 0.43669 0.94508 0.0
H1256 H 0.22498 0.44228 0.99576 0.0
H1257 H 0.21923 0.50382 0.05217 0.0
H1258 H 0.1803 0.45894 0.19607 0.0
H1259 H 0.18391 0.46602 0.14243 0.0
C1260 C 0.91817 0.81408 0.79381 0.0
C1261 C 0.91404 0.79064 0.77967 0.0
C1262 C 0.91403 0.81423 0.82443 0.0
C1263 C 0.91397 0.7792 0.89226 0.0
H1264 H 0.87289 0.80783 0.92772 0.0
C1265 C 0.88155 0.75739 0.01367 0.0
C1266 C 0.88305 0.77823 0.03095 0.0
C1267 C 0.88467 0.76013 0.98292 0.0
C1268 C 0.88469 0.80004 0.9182 0.0
H1269 H 0.90169 0.74888 0.78657 0.0
H1270 H 0.89469 0.74927 0.83964 0.0
H1271 H 0.88027 0.81129 0.87399 0.0
H1272 H 0.88819 0.81804 0.02937 0.0
H1273 H 0.89412 0.82298 0.97571 0.0
H1274 H 0.91875 0.76816 0.93607 0.0
C1275 C 0.9013 0.76755 0.82716 0.0
C1276 C 0.88888 0.80203 0.88745 0.0
C1277 C 0.90518 0.76732 0.79668 0.0
C1278 C 0.88695 0.80159 0.01668 0.0
C1279 C 0.89024 0.8044 0.98589 0.0
C1280 C 0.90995 0.77738 0.92285 0.0
C1281 C 0.90598 0.79104 0.84145 0.0
C1282 C 0.90313 0.79113 0.87415 0.0
C1283 C 0.88959 0.78386 0.96868 0.0
C1284 C 0.89482 0.78727 0.93619 0.0
H1285 H 0.92493 0.83238 0.78133 0.0
H1286 H 0.91783 0.83263 0.83491 0.0
H1287 H 0.92554 0.77115 0.8827 0.0
H1288 H 0.87824 0.73901 0.0239 0.0
H1289 H 0.88338 0.74363 0.97029 0.0
C1290 C 0.20005 0.12196 0.80028 0.0
C1291 C 0.1874 0.13544 0.78912 0.0
C1292 C 0.19957 0.11681 0.83062 0.0
C1293 C 0.19659 0.14503 0.90081 0.0
H1294 H 0.18402 0.07816 0.93512 0.0
C1295 C 0.20088 0.13391 0.02643 0.0
C1296 C 0.21183 0.1188 0.03726 0.0
C1297 C 0.19514 0.13351 0.99638 0.0
C1298 C 0.18791 0.09706 0.92585 0.0
H1299 H 0.16352 0.15322 0.80078 0.0
H1300 H 0.16301 0.14449 0.85381 0.0
H1301 H 0.17828 0.08115 0.88175 0.0
H1302 H 0.22524 0.09124 0.02551 0.0
H1303 H 0.21678 0.09179 0.97243 0.0
H1304 H 0.20739 0.1615 0.94415 0.0
C1305 C 0.17332 0.138 0.83905 0.0
C1306 C 0.18444 0.09868 0.89536 0.0
C1307 C 0.17362 0.14297 0.80873 0.0
C1308 C 0.21697 0.10323 0.01755 0.0
C1309 C 0.21181 0.10331 0.98725 0.0
C1310 C 0.20042 0.14356 0.93108 0.0
C1311 C 0.18662 0.12524 0.8503 0.0
C1312 C 0.18881 0.12272 0.88264 0.0
C1313 C 0.20086 0.11853 0.9763 0.0
C1314 C 0.19617 0.11959 0.94404 0.0
H1315 H 0.21072 0.11577 0.78569 0.0
H1316 H 0.21016 0.10714 0.8388 0.0
H1317 H 0.20054 0.16394 0.89145 0.0
H1318 H 0.19602 0.1455 0.04132 0.0
H1319 H 0.18598 0.14483 0.98898 0.0
C1320 C 0.85376 0.09816 0.80129 0.0
C1321 C 0.862 0.08197 0.78707 0.0
C1322 C 0.85717 0.1025 0.83184 0.0
C1323 C 0.89647 0.10444 0.89524 0.0
H1324 H 0.834 0.0875 0.94151 0.0
C1325 C 0.89779 0.10522 0.02374 0.0
C1326 C 0.88012 0.11092 0.03872 0.0
C1327 C 0.89688 0.10293 0.99283 0.0
C1328 C 0.85184 0.09294 0.92902 0.0
H1329 H 0.88086 0.05814 0.7936 0.0
H1330 H 0.88735 0.06629 0.84707 0.0
H1331 H 0.83037 0.08158 0.88804 0.0
H1332 H 0.84869 0.12017 0.03329 0.0
H1333 H 0.84814 0.11794 0.97936 0.0
H1334 H 0.91825 0.11673 0.93587 0.0
C1335 C 0.8781 0.07542 0.83446 0.0
C1336 C 0.84963 0.08928 0.89835 0.0
C1337 C 0.87428 0.07069 0.80394 0.0
C1338 C 0.86232 0.11544 0.02224 0.0
C1339 C 0.86187 0.11387 0.99131 0.0
C1340 C 0.89883 0.10866 0.92593 0.0
C1341 C 0.86928 0.0911 0.84869 0.0
C1342 C 0.87189 0.09497 0.8812 0.0
C1343 C 0.87867 0.10691 0.97614 0.0
C1344 C 0.87651 0.10294 0.9433 0.0
H1345 H 0.84418 0.10709 0.78894 0.0
H1346 H 0.85035 0.11479 0.84233 0.0
H1347 H 0.91396 0.1091 0.8824 0.0
H1348 H 0.91156 0.1014 0.03601 0.0
H1349 H 0.90989 0.09716 0.98222 0.0
C1350 C 0.19501 0.09123 0.30413 0.0
C1351 C 0.18818 0.0652 0.29578 0.0
C1352 C 0.19178 0.09684 0.33338 0.0
C1353 C 0.18888 0.07287 0.40923 0.0
H1354 H 0.16507 0.12294 0.42771 0.0
C1355 C 0.17759 0.1005 0.52927 0.0
C1356 C 0.18933 0.12799 0.53494 0.0
C1357 C 0.17488 0.09117 0.50025 0.0
C1358 C 0.17186 0.10902 0.42283 0.0
H1359 H 0.17206 0.0245 0.3114 0.0
H1360 H 0.16648 0.03438 0.36266 0.0
H1361 H 0.16393 0.10887 0.37645 0.0
H1362 H 0.20706 0.1672 0.5147 0.0
H1363 H 0.20191 0.15082 0.46382 0.0
H1364 H 0.19705 0.07326 0.45562 0.0
C1365 C 0.17446 0.05043 0.34654 0.0
C1366 C 0.17121 0.10097 0.39354 0.0
C1367 C 0.17752 0.04477 0.31717 0.0
C1368 C 0.1979 0.14592 0.51099 0.0
C1369 C 0.19484 0.13654 0.48191 0.0
C1370 C 0.18944 0.08085 0.43855 0.0
C1371 C 0.18177 0.07659 0.35497 0.0
C1372 C 0.18012 0.08316 0.38636 0.0
C1373 C 0.18351 0.1091 0.47629 0.0
C1374 C 0.18131 0.09932 0.44554 0.0
H1375 H 0.20319 0.1074 0.28814 0.0
H1376 H 0.19787 0.11725 0.33925 0.0
H1377 H 0.19619 0.05939 0.40434 0.0
H1378 H 0.17096 0.08618 0.5473 0.0
H1379 H 0.16597 0.06991 0.49652 0.0
C1380 C 0.9197 0.10934 0.30316 0.0
C1381 C 0.91864 0.13074 0.28964 0.0
C1382 C 0.91439 0.10414 0.33352 0.0
C1383 C 0.91452 0.13661 0.40333 0.0
H1384 H 0.86181 0.0662 0.43068 0.0
C1385 C 0.86766 0.12176 0.51824 0.0
C1386 C 0.86151 0.09869 0.53457 0.0
C1387 C 0.87581 0.1243 0.48875 0.0
C1388 C 0.87691 0.08588 0.42355 0.0
H1389 H 0.91141 0.16355 0.29749 0.0
H1390 H 0.90248 0.15462 0.35021 0.0
H1391 H 0.8749 0.07318 0.37846 0.0
H1392 H 0.85897 0.06005 0.53275 0.0
H1393 H 0.87374 0.06466 0.48123 0.0
H1394 H 0.91683 0.14947 0.44811 0.0
C1395 C 0.9074 0.14188 0.3374 0.0
C1396 C 0.88436 0.08985 0.39362 0.0
C1397 C 0.91234 0.14687 0.30712 0.0
C1398 C 0.86332 0.07797 0.52061 0.0
C1399 C 0.87179 0.08063 0.49109 0.0
C1400 C 0.90733 0.13261 0.43321 0.0
C1401 C 0.90836 0.1205 0.35094 0.0
C1402 C 0.90273 0.11541 0.38311 0.0
C1403 C 0.8784 0.10397 0.47486 0.0
C1404 C 0.88788 0.10738 0.4436 0.0
H1405 H 0.92452 0.09657 0.2903 0.0
H1406 H 0.91534 0.08757 0.34345 0.0
H1407 H 0.92912 0.15642 0.39592 0.0
H1408 H 0.8663 0.13801 0.5283 0.0
H1409 H 0.88002 0.14226 0.47682 0.0
C1410 C 0.87023 0.77865 0.2904 0.0
C1411 C 0.85768 0.79295 0.28165 0.0
C1412 C 0.87892 0.78004 0.31962 0.0
C1413 C 0.89013 0.81757 0.39059 0.0
H1414 H 0.87374 0.75005 0.42661 0.0
C1415 C 0.86388 0.79255 0.51308 0.0
C1416 C 0.8773 0.78215 0.52926 0.0
C1417 C 0.86711 0.79594 0.48246 0.0
C1418 C 0.87884 0.76912 0.41673 0.0
H1419 H 0.84511 0.8205 0.29645 0.0
H1420 H 0.85935 0.82225 0.34739 0.0
H1421 H 0.86958 0.75277 0.37305 0.0
H1422 H 0.90436 0.76679 0.52608 0.0
H1423 H 0.90911 0.77172 0.4719 0.0
H1424 H 0.89764 0.83332 0.43474 0.0
C1425 C 0.86315 0.81044 0.33169 0.0
C1426 C 0.87657 0.77076 0.38602 0.0
C1427 C 0.85473 0.80927 0.30245 0.0
C1428 C 0.89375 0.77481 0.5141 0.0
C1429 C 0.89651 0.77765 0.48324 0.0
C1430 C 0.89199 0.81579 0.4213 0.0
C1431 C 0.87503 0.79556 0.34079 0.0
C1432 C 0.88141 0.79483 0.37266 0.0
C1433 C 0.8834 0.78852 0.46727 0.0
C1434 C 0.88566 0.79138 0.43467 0.0
H1435 H 0.87304 0.76611 0.27477 0.0
H1436 H 0.88839 0.76868 0.32568 0.0
H1437 H 0.89474 0.83659 0.38103 0.0
H1438 H 0.85127 0.79862 0.52415 0.0
H1439 H 0.85656 0.80407 0.47054 0.0
C1440 C 0.33619 0.94064 0.87826 0.0
C1441 C 0.32805 0.91344 0.88141 0.0
C1442 C 0.36051 0.96013 0.89 0.0
C1443 C 0.40989 0.96936 0.94675 0.0
H1444 H 0.45884 0.03019 0.8994 0.0
C1445 C 0.51862 0.03711 0.98169 0.0
C1446 C 0.52943 0.0647 0.97777 0.0
C1447 C 0.49386 0.0192 0.96969 0.0
C1448 C 0.44526 0.01348 0.91304 0.0
H1449 H 0.33909 0.88541 0.89926 0.0
H1450 H 0.38109 0.91921 0.91958 0.0
H1451 H 0.41533 -0.00151 0.87929 0.0
H1452 H 0.52263 0.09516 0.95853 0.0
H1453 H 0.47956 0.06402 0.93765 0.0
H1454 H 0.43967 0.98421 0.98049 0.0
C1455 C 0.36872 0.92554 0.90829 0.0
C1456 C 0.42036 0.99538 0.90152 0.0
C1457 C 0.34468 0.90617 0.89642 0.0
C1458 C 0.51502 0.07401 0.96157 0.0
C1459 C 0.49033 0.05615 0.94955 0.0
C1460 C 0.43471 0.98747 0.95828 0.0
C1461 C 0.37688 0.9527 0.90532 0.0
C1462 C 0.40255 0.97298 0.91815 0.0
C1463 C 0.47938 0.02854 0.9536 0.0
C1464 C 0.4528 0.00959 0.94146 0.0
H1465 H 0.32382 0.94687 0.86682 0.0
H1466 H 0.36631 0.98097 0.8875 0.0
H1467 H 0.39639 0.95249 0.96025 0.0
H1468 H 0.52924 0.02935 0.99411 0.0
H1469 H 0.48612 -0.00198 0.97289 0.0
C1470 C 0.9643 0.49214 0.99356 0.0
C1471 C 0.93742 0.47776 0.986 0.0
C1472 C 0.9818 0.4843 0.98246 0.0
C1473 C 0.98294 0.42637 0.94883 0.0
H1474 H 0.0535 0.47976 0.92393 0.0
C1475 C 0.06488 0.40133 0.9222 0.0
C1476 C 0.08256 0.41535 0.89907 0.0
C1477 C 0.04595 0.40798 0.93102 0.0
C1478 C 0.03375 0.46459 0.93047 0.0
H1479 H 0.90739 0.44415 0.96146 0.0
H1480 H 0.93781 0.43077 0.94148 0.0
H1481 H 0.02336 0.49375 0.94336 0.0
H1482 H 0.09353 0.44667 0.86621 0.0
H1483 H 0.06032 0.45805 0.88143 0.0
H1484 H 0.99313 0.39721 0.93538 0.0
C1485 C 0.94554 0.44772 0.9563 0.0
C1486 C 0.01661 0.47262 0.94203 0.0
C1487 C 0.92814 0.45545 0.96753 0.0
C1488 C 0.08023 0.43548 0.88417 0.0
C1489 C 0.06136 0.44219 0.89306 0.0
C1490 C 4e-05 0.41835 0.93721 0.0
C1491 C 0.97261 0.46202 0.96359 0.0
C1492 C 0.99101 0.4536 0.95145 0.0
C1493 C 0.04433 0.42885 0.91696 0.0
C1494 C 0.0257 0.43735 0.92803 0.0
H1495 H 0.97173 0.50944 0.00783 0.0
H1496 H 0.00246 0.49555 0.98883 0.0
H1497 H 0.96347 0.41115 0.95613 0.0
H1498 H 0.06613 0.3857 0.93409 0.0
H1499 H 0.03325 0.39742 0.94964 0.0
C1500 C 0.57273 0.683 0.92632 0.0
C1501 C 0.5689 0.68851 0.89689 0.0
C1502 C 0.56514 0.65699 0.93523 0.0
C1503 C 0.55159 0.59124 0.91145 0.0
H1504 H 0.5049 0.56582 0.97968 0.0
C1505 C 0.5079 0.48282 0.95549 0.0
C1506 C 0.50521 0.479 0.98632 0.0
C1507 C 0.51443 0.50753 0.9429 0.0
C1508 C 0.51825 0.5726 0.9609 0.0
H1509 H 0.55522 0.67101 0.85341 0.0
H1510 H 0.54271 0.6255 0.86894 0.0
H1511 H 0.52037 0.61065 0.96079 0.0
H1512 H 0.50686 0.49788 0.02822 0.0
H1513 H 0.51899 0.54114 0.00668 0.0
H1514 H 0.55038 0.55364 0.91214 0.0
C1515 C 0.55132 0.64144 0.88509 0.0
C1516 C 0.52698 0.59831 0.94997 0.0
C1517 C 0.5585 0.66749 0.87623 0.0
C1518 C 0.50862 0.5002 0.00434 0.0
C1519 C 0.51549 0.52502 0.99186 0.0
C1520 C 0.5432 0.56559 0.9227 0.0
C1521 C 0.55393 0.63585 0.91488 0.0
C1522 C 0.54393 0.60802 0.92533 0.0
C1523 C 0.51862 0.52915 0.96094 0.0
C1524 C 0.5266 0.55597 0.94783 0.0
H1525 H 0.58057 0.69858 0.94291 0.0
H1526 H 0.56764 0.6533 0.95826 0.0
H1527 H 0.56472 0.59826 0.89246 0.0
H1528 H 0.50469 0.46654 0.94111 0.0
H1529 H 0.51602 0.50958 0.919 0.0
C1530 C 0.94454 0.49642 0.50208 0.0
C1531 C 0.94013 0.47371 0.48619 0.0
C1532 C 0.96232 0.52189 0.4915 0.0
C1533 C 0.99302 0.55722 0.42216 0.0
H1534 H 0.04032 0.6143 0.47463 0.0
C1535 C 0.08012 0.65701 0.38152 0.0
C1536 C 0.0865 0.68025 0.39757 0.0
C1537 C 0.05984 0.63225 0.39111 0.0
C1538 C 0.02688 0.59868 0.45978 0.0
H1539 H 0.952 0.4599 0.44758 0.0
H1540 H 0.9833 0.50443 0.42935 0.0
H1541 H 0.01153 0.56988 0.49481 0.0
H1542 H 0.07543 0.696 0.43506 0.0
H1543 H 0.03975 0.65266 0.45166 0.0
H1544 H 0.00862 0.58602 0.38706 0.0
C1545 C 0.97256 0.50248 0.44964 0.0
C1546 C 0.0105 0.57322 0.47132 0.0
C1547 C 0.95479 0.477 0.46023 0.0
C1548 C 0.07113 0.67843 0.42237 0.0
C1549 C 0.05083 0.65362 0.43198 0.0
C1550 C 0.00942 0.58271 0.41061 0.0
C1551 C 0.9761 0.52518 0.46487 0.0
C1552 C -0.00648 0.5522 0.45261 0.0
C1553 C 0.04551 0.63022 0.41692 0.0
C1554 C 0.02662 0.60366 0.42929 0.0
H1555 H 0.93353 0.4946 0.52211 0.0
H1556 H 0.96453 0.53902 0.50363 0.0
H1557 H 0.97976 0.54151 0.40729 0.0
H1558 H 0.09151 0.65774 0.36222 0.0
H1559 H 0.05632 0.61457 0.37913 0.0
C1560 C 0.52434 0.48748 0.44547 0.0
C1561 C 0.52858 0.48489 0.47573 0.0
C1562 C 0.49953 0.48194 0.43521 0.0
C1563 C 0.42831 0.44648 0.45601 0.0
H1564 H 0.42355 0.48483 0.3878 0.0
C1565 C 0.32827 0.41391 0.39793 0.0
C1566 C 0.32373 0.43417 0.38747 0.0
C1567 C 0.35346 0.41996 0.40772 0.0
C1568 C 0.42438 0.47406 0.40707 0.0
H1569 H 0.5101 0.47524 0.51909 0.0
H1570 H 0.46685 0.46667 0.50134 0.0
H1571 H 0.46652 0.49752 0.40876 0.0
H1572 H 0.34216 0.47662 0.37856 0.0
H1573 H 0.38563 0.48729 0.39642 0.0
H1574 H 0.38599 0.42387 0.45513 0.0
C1575 C 0.48263 0.47223 0.48539 0.0
C1576 C 0.44919 0.48111 0.41889 0.0
C1577 C 0.5075 0.47743 0.49565 0.0
C1578 C 0.34502 0.46049 0.38629 0.0
C1579 C 0.37007 0.46659 0.39647 0.0
C1580 C 0.40342 0.43968 0.44444 0.0
C1581 C 0.47823 0.47408 0.45493 0.0
C1582 C 0.45157 0.46731 0.44339 0.0
C1583 C 0.37461 0.44648 0.40764 0.0
C1584 C 0.40112 0.45332 0.41973 0.0
H1585 H 0.53996 0.49286 0.42934 0.0
H1586 H 0.49695 0.48305 0.41157 0.0
H1587 H 0.42927 0.43511 0.4746 0.0
H1588 H 0.31228 0.39341 0.39895 0.0
H1589 H 0.35627 0.40384 0.41551 0.0
C1590 C 0.55766 0.91729 0.38474 0.0
C1591 C 0.57038 0.90865 0.40475 0.0
C1592 C 0.55127 0.93663 0.39314 0.0
C1593 C 0.53641 0.96269 0.4597 0.0
H1594 H 0.54552 0.02077 0.40872 0.0
C1595 C 0.51907 0.04637 0.50192 0.0
C1596 C 0.50786 0.05689 0.48241 0.0
C1597 C 0.52643 0.02825 0.49176 0.0
C1598 C 0.54249 0.00443 0.42306 0.0
H1599 H 0.58738 0.91439 0.44883 0.0
H1600 H 0.57628 0.94816 0.4634 0.0
H1601 H 0.56035 0.9903 0.39183 0.0
H1602 H 0.49403 0.05594 0.43774 0.0
H1603 H 0.50656 0.02381 0.41972 0.0
H1604 H 0.51823 0.97638 0.49075 0.0
C1605 C 0.57099 0.93974 0.44134 0.0
C1606 C 0.5511 0.98707 0.41342 0.0
C1607 C 0.57752 0.92053 0.4329 0.0
C1608 C 0.50329 0.04846 0.45285 0.0
C1609 C 0.51046 0.03013 0.44264 0.0
C1610 C 0.52766 0.97988 0.46925 0.0
C1611 C 0.55734 0.94759 0.42177 0.0
C1612 C 0.54832 0.96615 0.43176 0.0
C1613 C 0.52235 0.01999 0.46195 0.0
C1614 C 0.53076 0.0011 0.45116 0.0
H1615 H 0.55185 0.90852 0.36288 0.0
H1616 H 0.54063 0.9422 0.37764 0.0
H1617 H 0.53349 0.9464 0.47407 0.0
H1618 H 0.52285 0.05278 0.52485 0.0
H1619 H 0.53587 0.02119 0.50715 0.0
C1620 C 0.18846 0.38934 0.28554 0.0
C1621 C 0.19357 0.3922 0.31613 0.0
C1622 C 0.16276 0.37287 0.27498 0.0
C1623 C 0.09735 0.31727 0.29944 0.0
H1624 H 0.07276 0.33317 0.22631 0.0
C1625 C 0.98932 0.25605 0.26153 0.0
C1626 C 0.98626 0.24403 0.23367 0.0
C1627 C 0.01401 0.27671 0.27052 0.0
C1628 C 0.07946 0.32858 0.24676 0.0
H1629 H 0.17584 0.38078 0.35976 0.0
H1630 H 0.13088 0.35292 0.34155 0.0
H1631 H 0.11714 0.36439 0.24484 0.0
H1632 H 0.00624 0.2454 0.19259 0.0
H1633 H 0.04941 0.28204 0.20821 0.0
H1634 H 0.05941 0.28178 0.30158 0.0
C1635 C 0.14673 0.36259 0.32552 0.0
C1636 C 0.1049 0.34631 0.25731 0.0
C1637 C 0.17249 0.37869 0.33603 0.0
C1638 C 0.00803 0.2542 0.21425 0.0
C1639 C 0.03267 0.27519 0.2231 0.0
C1640 C 0.07184 0.29988 0.28917 0.0
C1641 C 0.14153 0.35916 0.29485 0.0
C1642 C 0.11424 0.3408 0.28376 0.0
C1643 C 0.036 0.28604 0.25163 0.0
C1644 C 0.06271 0.30531 0.26272 0.0
H1645 H 0.20446 0.39935 0.26974 0.0
H1646 H 0.15971 0.37044 0.25124 0.0
H1647 H 0.10395 0.3119 0.31941 0.0
H1648 H 0.97294 0.24872 0.27699 0.0
H1649 H 0.01612 0.28495 0.29256 0.0
C1650 C 0.63122 0.83214 0.31461 0.0
C1651 C 0.60416 0.81313 0.31588 0.0
C1652 C 0.64905 0.82591 0.30106 0.0
C1653 C 0.6516 0.77582 0.25088 0.0
H1654 H 0.72182 0.80403 0.28446 0.0
C1655 C 0.72387 0.7367 0.22339 0.0
C1656 C 0.75016 0.75643 0.21734 0.0
C1657 C 0.70552 0.74385 0.23341 0.0
C1658 C 0.70232 0.79616 0.27473 0.0
H1659 H 0.57464 0.77251 0.30528 0.0
H1660 H 0.60554 0.76132 0.28237 0.0
H1661 H 0.69121 0.81633 0.30618 0.0
H1662 H 0.7776 0.79916 0.21663 0.0
H1663 H 0.74576 0.81142 0.2344 0.0
H1664 H 0.6627 0.75494 0.22005 0.0
C1665 C 0.61308 0.78137 0.29066 0.0
C1666 C 0.68479 0.80332 0.28705 0.0
C1667 C 0.59531 0.78774 0.30383 0.0
C1668 C 0.75753 0.78341 0.221 0.0
C1669 C 0.73935 0.79049 0.23137 0.0
C1670 C 0.66904 0.76835 0.23885 0.0
C1671 C 0.64022 0.80037 0.28898 0.0
C1672 C 0.65916 0.79326 0.27532 0.0
C1673 C 0.71326 0.77081 0.23798 0.0
C1674 C 0.69458 0.7785 0.25063 0.0
H1675 H 0.63853 0.8519 0.32373 0.0
H1676 H 0.66971 0.84121 0.29985 0.0
H1677 H 0.63225 0.76805 0.24084 0.0
H1678 H 0.71757 0.71577 0.22077 0.0
H1679 H 0.68551 0.72829 0.23845 0.0
C1680 C 0.18042 0.8233 0.32814 0.0
C1681 C 0.17879 0.80266 0.3104 0.0
C1682 C 0.18688 0.84787 0.31547 0.0
C1683 C 0.18927 0.88098 0.24446 0.0
H1684 H 0.23922 0.9447 0.28694 0.0
C1685 C 0.20564 0.98536 0.21671 0.0
C1686 C 0.23101 0.00766 0.22066 0.0
C1687 C 0.20057 0.9599 0.2246 0.0
C1688 C 0.22554 0.92714 0.27455 0.0
H1689 H 0.18029 0.79045 0.26559 0.0
H1690 H 0.19219 0.83362 0.24326 0.0
H1691 H 0.22709 0.90103 0.30714 0.0
H1692 H 0.27129 0.02055 0.23439 0.0
H1693 H 0.26255 0.97592 0.24759 0.0
H1694 H 0.18797 0.90712 0.21168 0.0
C1695 C 0.18877 0.83102 0.26695 0.0
C1696 C 0.21827 0.90209 0.28638 0.0
C1697 C 0.18237 0.80648 0.27969 0.0
C1698 C 0.2515 0.00379 0.23133 0.0
C1699 C 0.24644 0.97825 0.23906 0.0
C1700 C 0.19657 0.90606 0.23259 0.0
C1701 C 0.19159 0.85216 0.28481 0.0
C1702 C 0.19982 0.87872 0.27166 0.0
C1703 C 0.22077 0.9561 0.23642 0.0
C1704 C 0.21458 0.92944 0.24767 0.0
H1705 H 0.17757 0.82073 0.35191 0.0
H1706 H 0.18834 0.86358 0.32974 0.0
H1707 H 0.17493 0.86336 0.23263 0.0
H1708 H 0.18937 0.98762 0.20857 0.0
H1709 H 0.18051 0.94338 0.22257 0.0
C1710 C 0.74122 0.01697 0.73835 0.0
C1711 C 0.76325 0.02084 0.72182 0.0
C1712 C 0.72196 0.9913 0.74734 0.0
C1713 C 0.69983 0.91872 0.7364 0.0
H1714 H 0.6654 0.9117 0.81199 0.0
C1715 C 0.61587 0.81712 0.77676 0.0
C1716 C 0.61189 0.81158 0.80731 0.0
C1717 C 0.63453 0.8424 0.76655 0.0
C1718 C 0.67511 0.91317 0.79107 0.0
H1719 H 0.7823 0.00083 0.70154 0.0
H1720 H 0.74976 0.95661 0.71826 0.0
H1721 H 0.69679 0.95571 0.79332 0.0
H1722 H 0.62507 0.82822 0.85113 0.0
H1723 H 0.65884 0.8722 0.83333 0.0
H1724 H 0.67956 0.87622 0.73501 0.0
C1725 C 0.74649 0.97298 0.72348 0.0
C1726 C 0.6928 0.9386 0.77996 0.0
C1727 C 0.76534 -0.0015 0.7139 0.0
C1728 C 0.62763 0.83186 0.82746 0.0
C1729 C 0.64681 0.85717 0.81718 0.0
C1730 C 0.68263 0.89333 0.7478 0.0
C1731 C 0.72463 0.96896 0.74068 0.0
C1732 C 0.70535 0.9418 0.75235 0.0
C1733 C 0.65031 0.8629 0.78652 0.0
C1734 C 0.66977 0.89011 0.77518 0.0
H1735 H 0.73907 0.03383 0.74468 0.0
H1736 H 0.70514 0.9891 0.7598 0.0
H1737 H 0.70863 0.9201 0.71489 0.0
H1738 H 0.60388 0.80214 0.7605 0.0
H1739 H 0.63595 0.84594 0.74286 0.0
C1740 C 0.01111 0.78102 0.71801 0.0
C1741 C 0.99031 0.75457 0.72139 0.0
C1742 C 0.03669 0.78844 0.72751 0.0
C1743 C 0.08253 0.76468 0.74159 0.0
H1744 H 0.11531 0.82208 0.79886 0.0
C1745 C 0.17863 0.78761 0.80203 0.0
C1746 C 0.1969 0.81401 0.80974 0.0
C1747 C 0.15397 0.78099 0.79019 0.0
C1748 C 0.10677 0.80637 0.78246 0.0
H1749 H 0.98023 0.71502 0.7365 0.0
H1750 H 0.02542 0.72791 0.75218 0.0
H1751 H 0.07145 0.80906 0.77932 0.0
H1752 H 0.20371 0.85432 0.81148 0.0
H1753 H 0.16089 0.84311 0.78965 0.0
H1754 H 0.11793 0.76236 0.74374 0.0
C1755 C 0.02165 0.74286 0.74252 0.0
C1756 C 0.08153 0.79881 0.77145 0.0
C1757 C -0.00415 0.73552 0.7336 0.0
C1758 C 0.18999 0.83379 0.80555 0.0
C1759 C 0.16536 0.82727 0.79324 0.0
C1760 C 0.10797 0.77254 0.75214 0.0
C1761 C 0.04217 0.7695 0.74001 0.0
C1762 C 0.0691 0.77775 0.75114 0.0
C1763 C 0.14695 0.80071 0.78544 0.0
C1764 C 0.12036 0.79331 0.77301 0.0
H1765 H 0.00749 0.79625 0.70888 0.0
H1766 H 0.05222 0.80906 0.7252 0.0
H1767 H 0.07346 0.74858 0.72565 0.0
H1768 H 0.18313 0.77183 0.80597 0.0
H1769 H 0.14021 0.76023 0.7854 0.0
C1770 C 0.20755 0.22909 0.70896 0.0
C1771 C 0.22978 0.22811 0.7194 0.0
C1772 C 0.20282 0.24939 0.71795 0.0
C1773 C 0.22007 0.29842 0.77885 0.0
H1774 H 0.17882 0.32034 0.73118 0.0
C1775 C 0.17271 0.35566 0.83069 0.0
C1776 C 0.17262 0.37592 0.81364 0.0
C1777 C 0.18 0.33826 0.81785 0.0
C1778 C 0.19062 0.31476 0.74477 0.0
H1779 H 0.2655 0.24877 0.74579 0.0
H1780 H 0.25799 0.28506 0.76036 0.0
H1781 H 0.19419 0.2922 0.70951 0.0
H1782 H 0.17748 0.3924 0.76968 0.0
H1783 H 0.19151 0.36318 0.74732 0.0
H1784 H 0.21744 0.32193 0.81372 0.0
C1785 C 0.24358 0.26952 0.74615 0.0
C1786 C 0.19917 0.29823 0.7324 0.0
C1787 C 0.24808 0.24886 0.73755 0.0
C1788 C 0.17853 0.37761 0.78336 0.0
C1789 C 0.18605 0.36047 0.77053 0.0
C1790 C 0.21185 0.31528 0.79108 0.0
C1791 C 0.22044 0.2696 0.73722 0.0
C1792 C 0.21363 0.28942 0.7494 0.0
C1793 C 0.18735 0.34081 0.78772 0.0
C1794 C 0.19666 0.32336 0.77437 0.0
H1795 H 0.19289 0.21331 0.69514 0.0
H1796 H 0.18458 0.24837 0.71086 0.0
H1797 H 0.23086 0.29191 0.79287 0.0
H1798 H 0.16803 0.35382 0.85412 0.0
H1799 H 0.18005 0.32294 0.83165 0.0
C1800 C 0.67127 0.55639 0.55681 0.0
C1801 C 0.65155 0.56296 0.55046 0.0
C1802 C 0.69605 0.57564 0.5675 0.0
C1803 C 0.74446 0.64608 0.56874 0.0
H1804 H 0.76823 0.63082 0.64281 0.0
C1805 C 0.8417 0.72465 0.62518 0.0
C1806 C 0.85644 0.71603 0.64187 0.0
C1807 C 0.81675 0.70636 0.61387 0.0
C1808 C 0.76226 0.63532 0.62183 0.0
H1809 H 0.64284 0.59524 0.5495 0.0
H1810 H 0.68682 0.6293 0.56721 0.0
H1811 H 0.72504 0.5987 0.62272 0.0
H1812 H 0.85658 0.68123 0.65939 0.0
H1813 H 0.81359 0.64912 0.63864 0.0
H1814 H 0.78192 0.68208 0.56692 0.0
C1815 C 0.6827 0.60901 0.56428 0.0
C1816 C 0.73733 0.61694 0.61048 0.0
C1817 C 0.65757 0.58954 0.55418 0.0
C1818 C 0.84572 0.68855 0.64668 0.0
C1819 C 0.82087 0.67014 0.63496 0.0
C1820 C 0.76964 0.66427 0.57977 0.0
C1821 C 0.70201 0.6021 0.57153 0.0
C1822 C 0.72817 0.62212 0.58384 0.0
C1823 C 0.80587 0.67876 0.61853 0.0
C1824 C 0.77898 0.65921 0.60654 0.0
H1825 H 0.66736 0.53612 0.55435 0.0
H1826 H 0.71063 0.56983 0.57269 0.0
H1827 H 0.73797 0.65043 0.54799 0.0
H1828 H 0.84916 0.74568 0.62139 0.0
H1829 H 0.80582 0.71405 0.602 0.0
C1830 C 0.28133 0.1416 0.6639 0.0
C1831 C 0.26232 0.13952 0.64325 0.0
C1832 C 0.30089 0.13563 0.65545 0.0
C1833 C 0.31318 0.09522 0.60331 0.0
H1834 H 0.38787 0.14693 0.61176 0.0
C1835 C 0.39792 0.07356 0.57618 0.0
C1836 C 0.41912 0.09347 0.55983 0.0
C1837 C 0.37799 0.07798 0.58697 0.0
C1838 C 0.36706 0.13232 0.6093 0.0
H1839 H 0.24859 0.12927 0.59779 0.0
H1840 H 0.28224 0.11835 0.58343 0.0
H1841 H 0.35476 0.15716 0.63122 0.0
H1842 H 0.43546 0.13316 0.54081 0.0
H1843 H 0.40071 0.14077 0.55969 0.0
H1844 H 0.32541 0.07047 0.58117 0.0
C1845 C 0.28223 0.12485 0.60594 0.0
C1846 C 0.34821 0.13807 0.62066 0.0
C1847 C 0.26316 0.13135 0.61413 0.0
C1848 C 0.41948 0.11746 0.55351 0.0
C1849 C 0.39972 0.12194 0.56449 0.0
C1850 C 0.33202 0.08931 0.59232 0.0
C1851 C 0.30118 0.12682 0.6265 0.0
C1852 C 0.32115 0.11975 0.6173 0.0
C1853 C 0.37908 0.10246 0.58177 0.0
C1854 C 0.3591 0.108 0.59478 0.0
H1855 H 0.28105 0.14783 0.68647 0.0
H1856 H 0.31543 0.13732 0.67161 0.0
H1857 H 0.29236 0.08076 0.6006 0.0
H1858 H 0.39707 0.05485 0.58133 0.0
H1859 H 0.36223 0.06264 0.60022 0.0
C1860 C 0.88857 0.33359 0.54549 0.0
C1861 C 0.90284 0.35532 0.56467 0.0
C1862 C 0.88255 0.30789 0.55391 0.0
C1863 C 0.87174 0.26864 0.62158 0.0
H1864 H 0.87219 0.21602 0.56898 0.0
C1865 C 0.85352 0.16623 0.6625 0.0
C1866 C 0.83932 0.14406 0.64393 0.0
C1867 C 0.86035 0.19182 0.65275 0.0
C1868 C 0.8716 0.23039 0.58382 0.0
H1869 H 0.92361 0.36736 0.60675 0.0
H1870 H 0.91331 0.32259 0.62125 0.0
H1871 H 0.8883 0.26145 0.55108 0.0
H1872 H 0.82001 0.13128 0.60108 0.0
H1873 H 0.83166 0.17588 0.58429 0.0
H1874 H 0.85487 0.23766 0.65423 0.0
C1875 C 0.90635 0.32538 0.59998 0.0
C1876 C 0.88095 0.25643 0.57359 0.0
C1877 C 0.91244 0.35107 0.59153 0.0
C1878 C 0.83107 0.14792 0.61592 0.0
C1879 C 0.83795 0.17351 0.60616 0.0
C1880 C 0.86233 0.24263 0.63176 0.0
C1881 C 0.89063 0.30342 0.58169 0.0
C1882 C 0.88125 0.27586 0.59243 0.0
C1883 C 0.85313 0.19581 0.62423 0.0
C1884 C 0.86224 0.22322 0.61305 0.0
H1885 H 0.88086 0.33615 0.52461 0.0
H1886 H 0.87037 0.29136 0.53935 0.0
H1887 H 0.87116 0.28302 0.63642 0.0
H1888 H 0.86022 0.16399 0.68418 0.0
H1889 H 0.8722 0.20858 0.66716 0.0
C1890 C 0.28575 0.1579 0.17131 0.0
C1891 C 0.26944 0.13611 0.15311 0.0
C1892 C 0.30302 0.18286 0.15882 0.0
C1893 C 0.31548 0.22261 0.08982 0.0
H1894 H 0.38619 0.26457 0.12233 0.0
C1895 C 0.39989 0.31605 0.03144 0.0
C1896 C 0.41623 0.33795 0.04955 0.0
C1897 C 0.38079 0.29187 0.04403 0.0
C1898 C 0.36641 0.25323 0.1132 0.0
H1899 H 0.25915 0.12318 0.10759 0.0
H1900 H 0.289 0.1666 0.08579 0.0
H1901 H 0.35545 0.22156 0.14452 0.0
H1902 H 0.42487 0.35173 0.0951 0.0
H1903 H 0.39162 0.30964 0.11693 0.0
H1904 H 0.32668 0.25424 0.05823 0.0
C1905 C 0.2881 0.16466 0.10972 0.0
C1906 C 0.34876 0.22858 0.12595 0.0
C1907 C 0.27093 0.13975 0.12221 0.0
C1908 C 0.41259 0.33531 0.08046 0.0
C1909 C 0.39369 0.31111 0.09302 0.0
C1910 C 0.33319 0.24724 0.07699 0.0
C1911 C 0.3044 0.18655 0.12785 0.0
C1912 C 0.32306 0.21295 0.11445 0.0
C1913 C 0.37781 0.289 0.075 0.0
C1914 C 0.35883 0.26286 0.08858 0.0
H1915 H 0.28513 0.15572 0.19521 0.0
H1916 H 0.3151 0.19934 0.17347 0.0
H1917 H 0.29573 0.21126 0.08063 0.0
H1918 H 0.40223 0.31739 0.00756 0.0
H1919 H 0.36896 0.27515 0.02955 0.0
C1920 C 0.84104 0.14601 0.16772 0.0
C1921 C 0.86209 0.14913 0.1499 0.0
C1922 C 0.81645 0.13869 0.15498 0.0
C1923 C 0.78347 0.13455 0.0829 0.0
H1924 H 0.72051 0.08463 0.12627 0.0
C1925 C 0.68042 0.1161 0.05138 0.0
C1926 C 0.658 0.09094 0.05636 0.0
C1927 C 0.70543 0.12139 0.06046 0.0
C1928 C 0.73786 0.09824 0.1136 0.0
H1929 H 0.87513 0.14977 0.10503 0.0
H1930 H 0.83205 0.13611 0.08258 0.0
H1931 H 0.764 0.0983 0.14697 0.0
H1932 H 0.64446 0.0512 0.07365 0.0
H1933 H 0.68849 0.0602 0.08882 0.0
H1934 H 0.7574 0.13388 0.04912 0.0
C1935 C 0.8342 0.13905 0.10634 0.0
C1936 C 0.76285 0.10648 0.12575 0.0
C1937 C 0.85875 0.14645 0.11913 0.0
C1938 C 0.66133 0.07083 0.06967 0.0
C1939 C 0.68653 0.07606 0.07853 0.0
C1940 C 0.75852 0.1261 0.07062 0.0
C1941 C 0.81254 0.13449 0.12418 0.0
C1942 C 0.78597 0.12509 0.11079 0.0
C1943 C 0.70883 0.10158 0.07445 0.0
C1944 C 0.73536 0.10824 0.08606 0.0
H1945 H 0.84332 0.14827 0.19156 0.0
H1946 H 0.80045 0.13611 0.16932 0.0
H1947 H 0.80078 0.14898 0.07075 0.0
H1948 H 0.67862 0.13216 0.04134 0.0
H1949 H 0.72195 0.1414 0.05743 0.0
C1950 C 0.9099 0.57793 0.08862 0.0
C1951 C 0.89945 0.56278 0.06269 0.0
C1952 C 0.90407 0.59785 0.09607 0.0
C1953 C 0.88061 0.64222 0.06894 0.0
H1954 H 0.85236 0.63424 0.14845 0.0
C1955 C 0.83939 0.70888 0.11183 0.0
C1956 C 0.84366 0.71618 0.14181 0.0
C1957 C 0.84509 0.68965 0.1009 0.0
C1958 C 0.8606 0.63718 0.12636 0.0
H1959 H 0.876 0.55793 0.02328 0.0
H1960 H 0.8662 0.59316 0.0362 0.0
H1961 H 0.86682 0.6039 0.1311 0.0
H1962 H 0.85731 0.70966 0.18391 0.0
H1963 H 0.86837 0.67712 0.16494 0.0
H1964 H 0.87527 0.67607 0.06444 0.0
C1965 C 0.87877 0.58939 0.05078 0.0
C1966 C 0.86879 0.61963 0.11638 0.0
C1967 C 0.88441 0.56923 0.04341 0.0
C1968 C 0.85349 0.70395 0.16077 0.0
C1969 C 0.8597 0.68519 0.14982 0.0
C1970 C 0.87284 0.66016 0.07911 0.0
C1971 C 0.88786 0.60329 0.07766 0.0
C1972 C 0.87904 0.62205 0.08767 0.0
C1973 C 0.85564 0.67773 0.11968 0.0
C1974 C 0.86289 0.65801 0.1081 0.0
H1975 H 0.92167 0.57367 0.10389 0.0
H1976 H 0.91168 0.60857 0.11669 0.0
H1977 H 0.88846 0.64453 0.04669 0.0
H1978 H 0.83176 0.71813 0.09688 0.0
H1979 H 0.84122 0.68419 0.07773 0.0
loop_
_geom_bond_atom_site_label_1
_geom_bond_atom_site_label_2
_geom_bond_distance
_geom_bond_site_symmetry_2
_ccdc_geom_bond_type
Zn0 O6 1.969 . S
Zn0 O7 1.965 . S
Zn0 O11 2.024 . S
Zn0 O16 1.969 . S
Zn1 O8 1.969 . S
Zn1 O14 1.969 . S
Zn1 O15 1.965 . S
Zn1 O17 2.024 . S
C2 O3 1.229 . S
C2 O11 1.058 . S
O3 C2 1.229 . S
C4 O5 1.229 . S
C4 O17 1.058 . S
O5 C4 1.229 . S
O6 Zn0 1.969 . S
O6 C9 1.267 . S
O7 Zn0 1.965 . S
O7 C18 1.260 . S
O8 Zn1 1.969 . S
O8 C18 1.258 1_556 S
C9 O6 1.267 . S
C9 O10 1.228 . S
O10 C9 1.228 . S
O11 Zn0 2.024 . S
O11 C2 1.058 . S
C12 O13 1.228 . S
C12 O14 1.267 . S
O13 C12 1.228 . S
O14 Zn1 1.969 . S
O14 C12 1.267 . S
O15 Zn1 1.965 . S
O15 C19 1.286 . S
O16 Zn0 1.969 . S
O16 C19 1.222 1_554 S
O17 Zn1 2.024 . S
O17 C4 1.058 . S
C18 O7 1.260 . S
C18 O8 1.258 1_554 S
C19 O15 1.286 . S
C19 O16 1.222 1_556 S
Zn20 O26 1.969 . S
Zn20 O27 1.965 . S
Zn20 O31 2.024 . S
Zn20 O36 1.969 . S
Zn21 O28 1.969 . S
Zn21 O34 1.969 . S
Zn21 O35 1.965 . S
Zn21 O37 2.024 . S
C22 O23 1.229 . S
C22 O31 1.058 . S
O23 C22 1.229 . S
C24 O25 1.229 . S
C24 O37 1.058 . S
O25 C24 1.229 . S
O26 Zn20 1.969 . S
O26 C29 1.267 . S
O27 Zn20 1.965 . S
O27 C38 1.260 . S
O28 Zn21 1.969 . S
O28 C38 1.258 1_556 S
C29 O26 1.267 . S
C29 O30 1.228 . S
O30 C29 1.228 . S
O31 Zn20 2.024 . S
O31 C22 1.058 . S
C32 O33 1.228 . S
C32 O34 1.267 . S
O33 C32 1.228 . S
O34 Zn21 1.969 . S
O34 C32 1.267 . S
O35 Zn21 1.965 . S
O35 C39 1.286 . S
O36 Zn20 1.969 . S
O36 C39 1.222 1_554 S
O37 Zn21 2.024 . S
O37 C24 1.058 . S
C38 O27 1.260 . S
C38 O28 1.258 1_554 S
C39 O35 1.286 . S
C39 O36 1.222 1_556 S
Zn40 O46 1.969 . S
Zn40 O47 1.965 . S
Zn40 O51 2.024 . S
Zn40 O56 1.969 . S
Zn41 O48 1.969 . S
Zn41 O54 1.969 . S
Zn41 O55 1.965 . S
Zn41 O57 2.024 . S
C42 O43 1.229 . S
C42 O51 1.058 . S
O43 C42 1.229 . S
C44 O45 1.229 . S
C44 O57 1.058 . S
O45 C44 1.229 . S
O46 Zn40 1.969 . S
O46 C49 1.267 . S
O47 Zn40 1.965 . S
O47 C58 1.260 . S
O48 Zn41 1.969 . S
O48 C58 1.258 1_556 S
C49 O46 1.267 . S
C49 O50 1.228 . S
O50 C49 1.228 . S
O51 Zn40 2.024 . S
O51 C42 1.058 . S
C52 O53 1.228 . S
C52 O54 1.267 . S
O53 C52 1.228 . S
O54 Zn41 1.969 . S
O54 C52 1.267 . S
O55 Zn41 1.965 . S
O55 C59 1.286 . S
O56 Zn40 1.969 . S
O56 C59 1.222 1_554 S
O57 Zn41 2.024 . S
O57 C44 1.058 . S
C58 O47 1.260 . S
C58 O48 1.258 1_554 S
C59 O55 1.286 . S
C59 O56 1.222 1_556 S
Zn60 O66 1.969 . S
Zn60 O67 1.965 . S
Zn60 O71 2.024 . S
Zn60 O76 1.969 . S
Zn61 O68 1.969 . S
Zn61 O74 1.969 . S
Zn61 O75 1.965 . S
Zn61 O77 2.024 . S
C62 O63 1.229 . S
C62 O71 1.058 . S
O63 C62 1.229 . S
C64 O65 1.229 . S
C64 O77 1.058 . S
O65 C64 1.229 . S
O66 Zn60 1.969 . S
O66 C69 1.267 . S
O67 Zn60 1.965 . S
O67 C78 1.260 . S
O68 Zn61 1.969 . S
O68 C78 1.258 . S
C69 O66 1.267 . S
C69 O70 1.228 . S
O70 C69 1.228 . S
O71 Zn60 2.024 . S
O71 C62 1.058 . S
C72 O73 1.228 . S
C72 O74 1.267 . S
O73 C72 1.228 . S
O74 Zn61 1.969 . S
O74 C72 1.267 . S
O75 Zn61 1.965 . S
O75 C79 1.260 . S
O76 Zn60 1.969 . S
O76 C79 1.258 . S
O77 Zn61 2.024 . S
O77 C64 1.058 . S
C78 O67 1.260 . S
C78 O68 1.258 . S
C79 O75 1.260 . S
C79 O76 1.258 . S
Zn80 O86 1.969 . S
Zn80 O87 1.965 . S
Zn80 O91 2.024 . S
Zn80 O96 1.969 . S
Zn81 O88 1.969 . S
Zn81 O94 1.969 . S
Zn81 O95 1.965 . S
Zn81 O97 2.024 . S
C82 O83 1.229 . S
C82 O91 1.058 . S
O83 C82 1.229 . S
C84 O85 1.229 . S
C84 O97 1.058 . S
O85 C84 1.229 . S
O86 Zn80 1.969 . S
O86 C89 1.267 . S
O87 Zn80 1.965 . S
O87 C98 1.260 . S
O88 Zn81 1.969 . S
O88 C98 1.258 . S
C89 O86 1.267 . S
C89 O90 1.228 . S
O90 C89 1.228 . S
O91 Zn80 2.024 . S
O91 C82 1.058 . S
C92 O93 1.228 . S
C92 O94 1.267 . S
O93 C92 1.228 . S
O94 Zn81 1.969 . S
O94 C92 1.267 . S
O95 Zn81 1.965 . S
O95 C99 1.260 . S
O96 Zn80 1.969 . S
O96 C99 1.258 . S
O97 Zn81 2.024 . S
O97 C84 1.058 . S
C98 O87 1.260 . S
C98 O88 1.258 . S
C99 O95 1.260 . S
C99 O96 1.258 . S
Zn100 O106 1.969 . S
Zn100 O107 1.965 . S
Zn100 O111 2.024 . S
Zn100 O116 1.969 . S
Zn101 O108 1.969 . S
Zn101 O114 1.969 . S
Zn101 O115 1.965 . S
Zn101 O117 2.024 . S
C102 O103 1.229 . S
C102 O111 1.058 . S
O103 C102 1.229 . S
C104 O105 1.229 . S
C104 O117 1.058 . S
O105 C104 1.229 . S
O106 Zn100 1.969 . S
O106 C109 1.267 . S
O107 Zn100 1.965 . S
O107 C118 1.260 . S
O108 Zn101 1.969 . S
O108 C118 1.258 . S
C109 O106 1.267 . S
C109 O110 1.228 . S
O110 C109 1.228 . S
O111 Zn100 2.024 . S
O111 C102 1.058 . S
C112 O113 1.228 . S
C112 O114 1.267 . S
O113 C112 1.228 . S
O114 Zn101 1.969 . S
O114 C112 1.267 . S
O115 Zn101 1.965 . S
O115 C119 1.260 . S
O116 Zn100 1.969 . S
O116 C119 1.258 . S
O117 Zn101 2.024 . S
O117 C104 1.058 . S
C118 O107 1.260 . S
C118 O108 1.258 . S
C119 O115 1.260 . S
C119 O116 1.258 . S
Zn120 O126 1.969 . S
Zn120 O127 1.965 . S
Zn120 O131 2.024 . S
Zn120 O136 1.969 . S
Zn121 O128 1.969 . S
Zn121 O134 1.969 . S
Zn121 O135 1.965 . S
Zn121 O137 2.024 . S
C122 O123 1.229 . S
C122 O131 1.058 . S
O123 C122 1.229 . S
C124 O125 1.229 . S
C124 O137 1.058 . S
O125 C124 1.229 . S
O126 Zn120 1.969 . S
O126 C129 1.267 . S
O127 Zn120 1.965 . S
O127 C138 1.260 . S
O128 Zn121 1.969 . S
O128 C138 1.258 . S
C129 O126 1.267 . S
C129 O130 1.228 . S
O130 C129 1.228 . S
O131 Zn120 2.024 . S
O131 C122 1.058 . S
C132 O133 1.228 . S
C132 O134 1.267 . S
O133 C132 1.228 . S
O134 Zn121 1.969 . S
O134 C132 1.267 . S
O135 Zn121 1.965 . S
O135 C139 1.260 . S
O136 Zn120 1.969 . S
O136 C139 1.258 . S
O137 Zn121 2.024 . S
O137 C124 1.058 . S
C138 O127 1.260 . S
C138 O128 1.258 . S
C139 O135 1.260 . S
C139 O136 1.258 . S
Zn140 O146 1.969 . S
Zn140 O147 1.965 . S
Zn140 O151 2.024 . S
Zn140 O156 1.969 . S
Zn141 O148 1.969 . S
Zn141 O154 1.969 . S
Zn141 O155 1.965 . S
Zn141 O157 2.024 . S
C142 O143 1.229 . S
C142 O151 1.058 . S
O143 C142 1.229 . S
C144 O145 1.229 . S
C144 O157 1.058 . S
O145 C144 1.229 . S
O146 Zn140 1.969 . S
O146 C149 1.267 . S
O147 Zn140 1.965 . S
O147 C158 1.260 . S
O148 Zn141 1.969 . S
O148 C158 1.258 . S
C149 O146 1.267 . S
C149 O150 1.228 . S
O150 C149 1.228 . S
O151 Zn140 2.024 . S
O151 C142 1.058 . S
C152 O153 1.228 . S
C152 O154 1.267 . S
O153 C152 1.228 . S
O154 Zn141 1.969 . S
O154 C152 1.267 . S
O155 Zn141 1.965 . S
O155 C159 1.260 . S
O156 Zn140 1.969 . S
O156 C159 1.258 . S
O157 Zn141 2.024 . S
O157 C144 1.058 . S
C158 O147 1.260 . S
C158 O148 1.258 . S
C159 O155 1.260 . S
C159 O156 1.258 . S
Zn160 O166 1.969 . S
Zn160 O167 1.965 . S
Zn160 O171 2.024 . S
Zn160 O176 1.969 . S
Zn161 O168 1.969 . S
Zn161 O174 1.969 . S
Zn161 O175 1.965 . S
Zn161 O177 2.024 . S
C162 O163 1.229 . S
C162 O171 1.058 . S
O163 C162 1.229 . S
C164 O165 1.229 . S
C164 O177 1.058 . S
O165 C164 1.229 . S
O166 Zn160 1.969 . S
O166 C169 1.267 . S
O167 Zn160 1.965 . S
O167 C178 1.260 . S
O168 Zn161 1.969 . S
O168 C178 1.258 . S
C169 O166 1.267 . S
C169 O170 1.228 . S
O170 C169 1.228 . S
O171 Zn160 2.024 . S
O171 C162 1.058 . S
C172 O173 1.228 . S
C172 O174 1.267 . S
O173 C172 1.228 . S
O174 Zn161 1.969 . S
O174 C172 1.267 . S
O175 Zn161 1.965 . S
O175 C179 1.260 . S
O176 Zn160 1.969 . S
O176 C179 1.258 . S
O177 Zn161 2.024 . S
O177 C164 1.058 . S
C178 O167 1.260 . S
C178 O168 1.258 . S
C179 O175 1.260 . S
C179 O176 1.258 . S
Zn180 O186 1.969 . S
Zn180 O187 1.965 . S
Zn180 O191 2.024 . S
Zn180 O196 1.969 . S
Zn181 O188 1.969 . S
Zn181 O194 1.969 . S
Zn181 O195 1.965 . S
Zn181 O197 2.024 . S
C182 O183 1.229 . S
C182 O191 1.058 . S
O183 C182 1.229 . S
C184 O185 1.229 . S
C184 O197 1.058 . S
O185 C184 1.229 . S
O186 Zn180 1.969 . S
O186 C189 1.267 . S
O187 Zn180 1.965 . S
O187 C198 1.260 . S
O188 Zn181 1.969 . S
O188 C198 1.258 . S
C189 O186 1.267 . S
C189 O190 1.228 . S
O190 C189 1.228 . S
O191 Zn180 2.024 . S
O191 C182 1.058 . S
C192 O193 1.228 . S
C192 O194 1.267 . S
O193 C192 1.228 . S
O194 Zn181 1.969 . S
O194 C192 1.267 . S
O195 Zn181 1.965 . S
O195 C199 1.260 . S
O196 Zn180 1.969 . S
O196 C199 1.258 . S
O197 Zn181 2.024 . S
O197 C184 1.058 . S
C198 O187 1.260 . S
C198 O188 1.258 . S
C199 O195 1.260 . S
C199 O196 1.258 . S
Zn200 O206 1.969 . S
Zn200 O207 1.965 . S
Zn200 O211 2.024 . S
Zn200 O216 1.969 . S
Zn201 O208 1.969 . S
Zn201 O214 1.969 . S
Zn201 O215 1.965 . S
Zn201 O217 2.024 . S
C202 O203 1.229 . S
C202 O211 1.058 . S
O203 C202 1.229 . S
C204 O205 1.229 . S
C204 O217 1.058 . S
O205 C204 1.229 . S
O206 Zn200 1.969 . S
O206 C209 1.267 . S
O207 Zn200 1.965 . S
O207 C218 1.260 . S
O208 Zn201 1.969 . S
O208 C218 1.258 . S
C209 O206 1.267 . S
C209 O210 1.228 . S
O210 C209 1.228 . S
O211 Zn200 2.024 . S
O211 C202 1.058 . S
C212 O213 1.228 . S
C212 O214 1.267 . S
O213 C212 1.228 . S
O214 Zn201 1.969 . S
O214 C212 1.267 . S
O215 Zn201 1.965 . S
O215 C219 1.260 . S
O216 Zn200 1.969 . S
O216 C219 1.258 . S
O217 Zn201 2.024 . S
O217 C204 1.058 . S
C218 O207 1.260 . S
C218 O208 1.258 . S
C219 O215 1.260 . S
C219 O216 1.258 . S
Zn220 O226 1.969 . S
Zn220 O227 1.965 . S
Zn220 O231 2.024 . S
Zn220 O236 1.969 . S
Zn221 O228 1.969 . S
Zn221 O234 1.969 . S
Zn221 O235 1.965 . S
Zn221 O237 2.024 . S
C222 O223 1.229 . S
C222 O231 1.058 . S
O223 C222 1.229 . S
C224 O225 1.229 . S
C224 O237 1.058 . S
O225 C224 1.229 . S
O226 Zn220 1.969 . S
O226 C229 1.267 . S
O227 Zn220 1.965 . S
O227 C238 1.260 . S
O228 Zn221 1.969 . S
O228 C238 1.258 . S
C229 O226 1.267 . S
C229 O230 1.228 . S
O230 C229 1.228 . S
O231 Zn220 2.024 . S
O231 C222 1.058 . S
C232 O233 1.228 . S
C232 O234 1.267 . S
O233 C232 1.228 . S
O234 Zn221 1.969 . S
O234 C232 1.267 . S
O235 Zn221 1.965 . S
O235 C239 1.260 . S
O236 Zn220 1.969 . S
O236 C239 1.258 . S
O237 Zn221 2.024 . S
O237 C224 1.058 . S
C238 O227 1.260 . S
C238 O228 1.258 . S
C239 O235 1.260 . S
C239 O236 1.258 . S
Zn240 O246 1.969 . S
Zn240 O247 1.965 . S
Zn240 O251 2.024 . S
Zn240 O256 1.969 . S
Zn241 O248 1.969 . S
Zn241 O254 1.969 . S
Zn241 O255 1.965 . S
Zn241 O257 2.024 . S
C242 O243 1.229 . S
C242 O251 1.058 . S
O243 C242 1.229 . S
C244 O245 1.229 . S
C244 O257 1.058 . S
O245 C244 1.229 . S
O246 Zn240 1.969 . S
O246 C249 1.267 . S
O247 Zn240 1.965 . S
O247 C258 1.260 . S
O248 Zn241 1.969 . S
O248 C258 1.258 . S
C249 O246 1.267 . S
C249 O250 1.228 . S
O250 C249 1.228 . S
O251 Zn240 2.024 . S
O251 C242 1.058 . S
C252 O253 1.228 . S
C252 O254 1.267 . S
O253 C252 1.228 . S
O254 Zn241 1.969 . S
O254 C252 1.267 . S
O255 Zn241 1.965 . S
O255 C259 1.260 . S
O256 Zn240 1.969 . S
O256 C259 1.258 . S
O257 Zn241 2.024 . S
O257 C244 1.058 . S
C258 O247 1.260 . S
C258 O248 1.258 . S
C259 O255 1.260 . S
C259 O256 1.258 . S
Zn260 O266 1.969 . S
Zn260 O267 1.965 . S
Zn260 O271 2.024 . S
Zn260 O276 1.969 . S
Zn261 O268 1.969 . S
Zn261 O274 1.969 . S
Zn261 O275 1.965 . S
Zn261 O277 2.024 . S
C262 O263 1.229 . S
C262 O271 1.058 . S
O263 C262 1.229 . S
C264 O265 1.229 . S
C264 O277 1.058 . S
O265 C264 1.229 . S
O266 Zn260 1.969 . S
O266 C269 1.267 . S
O267 Zn260 1.965 . S
O267 C278 1.260 . S
O268 Zn261 1.969 . S
O268 C278 1.258 . S
C269 O266 1.267 . S
C269 O270 1.228 . S
O270 C269 1.228 . S
O271 Zn260 2.024 . S
O271 C262 1.058 . S
C272 O273 1.228 . S
C272 O274 1.267 . S
O273 C272 1.228 . S
O274 Zn261 1.969 . S
O274 C272 1.267 . S
O275 Zn261 1.965 . S
O275 C279 1.260 . S
O276 Zn260 1.969 . S
O276 C279 1.258 . S
O277 Zn261 2.024 . S
O277 C264 1.058 . S
C278 O267 1.260 . S
C278 O268 1.258 . S
C279 O275 1.260 . S
C279 O276 1.258 . S
Zn280 O286 1.969 . S
Zn280 O287 1.965 . S
Zn280 O291 2.024 . S
Zn280 O296 1.969 . S
Zn281 O288 1.969 . S
Zn281 O294 1.969 . S
Zn281 O295 1.965 . S
Zn281 O297 2.024 . S
C282 O283 1.229 . S
C282 O291 1.058 . S
O283 C282 1.229 . S
C284 O285 1.229 . S
C284 O297 1.058 . S
O285 C284 1.229 . S
O286 Zn280 1.969 . S
O286 C289 1.267 . S
O287 Zn280 1.965 . S
O287 C298 1.260 . S
O288 Zn281 1.969 . S
O288 C298 1.258 . S
C289 O286 1.267 . S
C289 O290 1.228 . S
O290 C289 1.228 . S
O291 Zn280 2.024 . S
O291 C282 1.058 . S
C292 O293 1.228 . S
C292 O294 1.267 . S
O293 C292 1.228 . S
O294 Zn281 1.969 . S
O294 C292 1.267 . S
O295 Zn281 1.965 . S
O295 C299 1.260 . S
O296 Zn280 1.969 . S
O296 C299 1.258 . S
O297 Zn281 2.024 . S
O297 C284 1.058 . S
C298 O287 1.260 . S
C298 O288 1.258 . S
C299 O295 1.260 . S
C299 O296 1.258 . S
Zn300 O306 1.969 . S
Zn300 O307 1.965 . S
Zn300 O311 2.024 . S
Zn300 O316 1.969 . S
Zn301 O308 1.969 . S
Zn301 O314 1.969 . S
Zn301 O315 1.965 . S
Zn301 O317 2.024 . S
C302 O303 1.229 . S
C302 O311 1.058 . S
O303 C302 1.229 . S
C304 O305 1.229 . S
C304 O317 1.058 . S
O305 C304 1.229 . S
O306 Zn300 1.969 . S
O306 C309 1.267 . S
O307 Zn300 1.965 . S
O307 C318 1.260 . S
O308 Zn301 1.969 . S
O308 C318 1.258 . S
C309 O306 1.267 . S
C309 O310 1.228 . S
O310 C309 1.228 . S
O311 Zn300 2.024 . S
O311 C302 1.058 . S
C312 O313 1.228 . S
C312 O314 1.267 . S
O313 C312 1.228 . S
O314 Zn301 1.969 . S
O314 C312 1.267 . S
O315 Zn301 1.965 . S
O315 C319 1.260 . S
O316 Zn300 1.969 . S
O316 C319 1.258 . S
O317 Zn301 2.024 . S
O317 C304 1.058 . S
C318 O307 1.260 . S
C318 O308 1.258 . S
C319 O315 1.260 . S
C319 O316 1.258 . S
Zn320 O326 1.969 . S
Zn320 O327 1.965 . S
Zn320 O331 2.024 . S
Zn320 O336 1.969 . S
Zn321 O328 1.969 . S
Zn321 O334 1.969 . S
Zn321 O335 1.965 . S
Zn321 O337 2.024 . S
C322 O323 1.229 . S
C322 O331 1.058 . S
O323 C322 1.229 . S
C324 O325 1.229 . S
C324 O337 1.058 . S
O325 C324 1.229 . S
O326 Zn320 1.969 . S
O326 C329 1.267 . S
O327 Zn320 1.965 . S
O327 C338 1.260 . S
O328 Zn321 1.969 . S
O328 C338 1.258 . S
C329 O326 1.267 . S
C329 O330 1.228 . S
O330 C329 1.228 . S
O331 Zn320 2.024 . S
O331 C322 1.058 . S
C332 O333 1.228 . S
C332 O334 1.267 . S
O333 C332 1.228 . S
O334 Zn321 1.969 . S
O334 C332 1.267 . S
O335 Zn321 1.965 . S
O335 C339 1.260 . S
O336 Zn320 1.969 . S
O336 C339 1.258 . S
O337 Zn321 2.024 . S
O337 C324 1.058 . S
C338 O327 1.260 . S
C338 O328 1.258 . S
C339 O335 1.260 . S
C339 O336 1.258 . S
Zn340 O346 1.969 . S
Zn340 O347 1.965 . S
Zn340 O351 2.024 . S
Zn340 O356 1.969 . S
Zn341 O348 1.969 . S
Zn341 O354 1.969 . S
Zn341 O355 1.965 . S
Zn341 O357 2.024 . S
C342 O343 1.229 . S
C342 O351 1.058 . S
O343 C342 1.229 . S
C344 O345 1.229 . S
C344 O357 1.058 . S
O345 C344 1.229 . S
O346 Zn340 1.969 . S
O346 C349 1.267 . S
O347 Zn340 1.965 . S
O347 C358 1.260 . S
O348 Zn341 1.969 . S
O348 C358 1.258 . S
C349 O346 1.267 . S
C349 O350 1.228 . S
O350 C349 1.228 . S
O351 Zn340 2.024 . S
O351 C342 1.058 . S
C352 O353 1.228 . S
C352 O354 1.267 . S
O353 C352 1.228 . S
O354 Zn341 1.969 . S
O354 C352 1.267 . S
O355 Zn341 1.965 . S
O355 C359 1.260 . S
O356 Zn340 1.969 . S
O356 C359 1.258 . S
O357 Zn341 2.024 . S
O357 C344 1.058 . S
C358 O347 1.260 . S
C358 O348 1.258 . S
C359 O355 1.260 . S
C359 O356 1.258 . S
C360 C361 1.349 . S
C360 C362 1.327 . S
C360 H385 0.950 . S
C361 C360 1.349 . S
C361 C377 1.349 . S
C362 C360 1.327 . S
C362 C381 1.429 . S
C362 H386 0.950 . S
C363 C380 1.574 . S
C363 C382 1.368 1_554 S
C363 H387 0.949 . S
H364 C368 0.949 . S
C365 C366 1.349 . S
C365 C367 1.327 . S
C365 H388 0.950 . S
C366 C365 1.349 . S
C366 C378 1.349 1_554 S
C367 C365 1.327 . S
C367 C383 1.429 . S
C367 H389 0.950 . S
C368 H364 0.949 . S
C368 C376 1.574 . S
C368 C384 1.360 1_556 S
H369 C377 0.950 1_554 S
H370 C375 0.969 . S
H371 C376 0.949 . S
H372 C378 0.950 . S
H373 C379 0.950 . S
H374 C380 0.949 . S
C375 H370 0.969 . S
C375 C377 1.322 1_554 S
C375 C381 1.415 1_554 S
C376 C368 1.574 . S
C376 H371 0.949 . S
C376 C382 1.368 . S
C377 C361 1.349 . S
C377 H369 0.950 1_556 S
C377 C375 1.322 1_556 S
C378 C366 1.349 1_556 S
C378 H372 0.950 . S
C378 C379 1.327 . S
C379 H373 0.950 . S
C379 C378 1.327 . S
C379 C383 1.429 1_556 S
C380 C363 1.574 . S
C380 H374 0.949 . S
C380 C384 1.375 . S
C381 C362 1.429 . S
C381 C375 1.415 1_556 S
C381 C382 1.523 . S
C382 C363 1.368 1_556 S
C382 C376 1.368 . S
C382 C381 1.523 . S
C383 C367 1.429 . S
C383 C379 1.429 1_554 S
C383 C384 1.525 . S
C384 C368 1.360 1_554 S
C384 C380 1.375 . S
C384 C383 1.525 . S
H385 C360 0.950 . S
H386 C362 0.950 . S
H387 C363 0.949 . S
H388 C365 0.950 . S
H389 C367 0.950 . S
C390 C391 1.349 . S
C390 C392 1.327 . S
C390 H415 0.950 . S
C391 C390 1.349 . S
C391 C407 1.349 1_554 S
C392 C390 1.327 . S
C392 C411 1.429 . S
C392 H416 0.950 . S
C393 C410 1.574 . S
C393 C412 1.358 1_556 S
C393 H417 0.949 . S
H394 C398 0.949 . S
C395 C396 1.349 . S
C395 C397 1.327 . S
C395 H418 0.950 . S
C396 C395 1.349 . S
C396 C408 1.321 1_556 S
C397 C395 1.327 . S
C397 C413 1.429 . S
C397 H419 0.950 . S
C398 H394 0.949 . S
C398 C406 1.574 . S
C398 C414 1.368 1_554 S
H399 C407 0.950 . S
H400 C405 0.950 . S
H401 C406 0.949 . S
H402 C408 0.972 . S
H403 C409 0.950 . S
H404 C410 0.949 . S
C405 H400 0.950 . S
C405 C407 1.327 . S
C405 C411 1.429 1_556 S
C406 C398 1.574 . S
C406 H401 0.949 . S
C406 C412 1.377 . S
C407 C391 1.349 1_556 S
C407 H399 0.950 . S
C407 C405 1.327 . S
C408 C396 1.321 1_554 S
C408 H402 0.972 . S
C408 C409 1.333 . S
C409 H403 0.950 . S
C409 C408 1.333 . S
C409 C413 1.429 1_554 S
C410 C393 1.574 . S
C410 H404 0.949 . S
C410 C414 1.368 . S
C411 C392 1.429 . S
C411 C405 1.429 1_554 S
C411 C412 1.525 . S
C412 C393 1.358 1_554 S
C412 C406 1.377 . S
C412 C411 1.525 . S
C413 C397 1.429 . S
C413 C409 1.429 1_556 S
C413 C414 1.523 . S
C414 C398 1.368 1_556 S
C414 C410 1.368 . S
C414 C413 1.523 . S
H415 C390 0.950 . S
H416 C392 0.950 . S
H417 C393 0.949 . S
H418 C395 0.950 . S
H419 C397 0.950 . S
C420 C421 1.349 . S
C420 C422 1.327 . S
C420 H445 0.950 . S
C421 C420 1.349 . S
C421 C437 1.349 . S
C422 C420 1.327 . S
C422 C441 1.429 . S
C422 H446 0.950 . S
C423 C440 1.574 . S
C423 C442 1.368 1_554 S
C423 H447 0.949 . S
H424 C428 0.949 . S
C425 C426 1.349 . S
C425 C427 1.327 . S
C425 H448 0.950 . S
C426 C425 1.349 . S
C426 C438 1.349 1_554 S
C427 C425 1.327 . S
C427 C443 1.429 . S
C427 H449 0.950 . S
C428 H424 0.949 . S
C428 C436 1.574 . S
C428 C444 1.361 1_556 S
H429 C437 0.950 1_554 S
H430 C435 0.950 1_554 S
H431 C436 0.949 . S
H432 C438 0.950 . S
H433 C439 0.950 . S
H434 C440 0.949 . S
C435 H430 0.950 1_556 S
C435 C437 1.327 . S
C435 C441 1.429 . S
C436 C428 1.574 . S
C436 H431 0.949 . S
C436 C442 1.368 . S
C437 C421 1.349 . S
C437 H429 0.950 1_556 S
C437 C435 1.327 . S
C438 C426 1.349 1_556 S
C438 H432 0.950 . S
C438 C439 1.327 . S
C439 H433 0.950 . S
C439 C438 1.327 . S
C439 C443 1.429 1_556 S
C440 C423 1.574 . S
C440 H434 0.949 . S
C440 C444 1.374 . S
C441 C422 1.429 . S
C441 C435 1.429 . S
C441 C442 1.523 . S
C442 C423 1.368 1_556 S
C442 C436 1.368 . S
C442 C441 1.523 . S
C443 C427 1.429 . S
C443 C439 1.429 1_554 S
C443 C444 1.525 . S
C444 C428 1.361 1_554 S
C444 C440 1.374 . S
C444 C443 1.525 . S
H445 C420 0.950 . S
H446 C422 0.950 . S
H447 C423 0.949 . S
H448 C425 0.950 . S
H449 C427 0.950 . S
C450 C451 1.349 . S
C450 C452 1.327 . S
C450 H475 0.950 . S
C451 C450 1.349 . S
C451 C467 1.349 . S
C452 C450 1.327 . S
C452 C471 1.429 . S
C452 H476 0.950 . S
C453 C470 1.574 . S
C453 C472 1.368 . S
C453 H477 0.949 . S
H454 C458 0.949 . S
C455 C456 1.349 . S
C455 C457 1.327 . S
C455 H478 0.950 . S
C456 C455 1.349 . S
C456 C468 1.349 . S
C457 C455 1.327 . S
C457 C473 1.429 . S
C457 H479 0.950 . S
C458 H454 0.949 . S
C458 C466 1.574 . S
C458 C474 1.368 . S
H459 C467 0.950 . S
H460 C465 0.950 . S
H461 C466 0.949 . S
H462 C468 0.950 . S
H463 C469 0.950 . S
H464 C470 0.949 . S
C465 H460 0.950 . S
C465 C467 1.327 . S
C465 C471 1.429 . S
C466 C458 1.574 . S
C466 H461 0.949 . S
C466 C472 1.368 . S
C467 C451 1.349 . S
C467 H459 0.950 . S
C467 C465 1.327 . S
C468 C456 1.349 . S
C468 H462 0.950 . S
C468 C469 1.327 . S
C469 H463 0.950 . S
C469 C468 1.327 . S
C469 C473 1.429 . S
C470 C453 1.574 . S
C470 H464 0.949 . S
C470 C474 1.368 . S
C471 C452 1.429 . S
C471 C465 1.429 . S
C471 C472 1.523 . S
C472 C453 1.368 . S
C472 C466 1.368 . S
C472 C471 1.523 . S
C473 C457 1.429 . S
C473 C469 1.429 . S
C473 C474 1.523 . S
C474 C458 1.368 . S
C474 C470 1.368 . S
C474 C473 1.523 . S
H475 C450 0.950 . S
H476 C452 0.950 . S
H477 C453 0.949 . S
H478 C455 0.950 . S
H479 C457 0.950 . S
C480 C481 1.349 . S
C480 C482 1.327 . S
C480 H505 0.950 . S
C481 C480 1.349 . S
C481 C497 1.349 . S
C482 C480 1.327 . S
C482 C501 1.429 . S
C482 H506 0.950 . S
C483 C500 1.574 . S
C483 C502 1.368 . S
C483 H507 0.949 . S
H484 C488 0.949 . S
C485 C486 1.349 . S
C485 C487 1.327 . S
C485 H508 0.950 . S
C486 C485 1.349 . S
C486 C498 1.349 . S
C487 C485 1.327 . S
C487 C503 1.429 . S
C487 H509 0.950 . S
C488 H484 0.949 . S
C488 C496 1.574 . S
C488 C504 1.368 . S
H489 C497 0.950 . S
H490 C495 0.950 . S
H491 C496 0.949 . S
H492 C498 0.950 . S
H493 C499 0.950 . S
H494 C500 0.949 . S
C495 H490 0.950 . S
C495 C497 1.327 . S
C495 C501 1.429 . S
C496 C488 1.574 . S
C496 H491 0.949 . S
C496 C502 1.368 . S
C497 C481 1.349 . S
C497 H489 0.950 . S
C497 C495 1.327 . S
C498 C486 1.349 . S
C498 H492 0.950 . S
C498 C499 1.327 . S
C499 H493 0.950 . S
C499 C498 1.327 . S
C499 C503 1.429 . S
C500 C483 1.574 . S
C500 H494 0.949 . S
C500 C504 1.368 . S
C501 C482 1.429 . S
C501 C495 1.429 . S
C501 C502 1.523 . S
C502 C483 1.368 . S
C502 C496 1.368 . S
C502 C501 1.523 . S
C503 C487 1.429 . S
C503 C499 1.429 . S
C503 C504 1.523 . S
C504 C488 1.368 . S
C504 C500 1.368 . S
C504 C503 1.523 . S
H505 C480 0.950 . S
H506 C482 0.950 . S
H507 C483 0.949 . S
H508 C485 0.950 . S
H509 C487 0.950 . S
C510 C511 1.349 . S
C510 C512 1.327 . S
C510 H535 0.950 . S
C511 C510 1.349 . S
C511 C527 1.349 . S
C512 C510 1.327 . S
C512 C531 1.429 . S
C512 H536 0.950 . S
C513 C530 1.574 . S
C513 C532 1.368 . S
C513 H537 0.949 . S
H514 C518 0.949 . S
C515 C516 1.349 . S
C515 C517 1.327 . S
C515 H538 0.950 . S
C516 C515 1.349 . S
C516 C528 1.349 . S
C517 C515 1.327 . S
C517 C533 1.429 . S
C517 H539 0.950 . S
C518 H514 0.949 . S
C518 C526 1.574 . S
C518 C534 1.368 . S
H519 C527 0.950 . S
H520 C525 0.950 . S
H521 C526 0.949 . S
H522 C528 0.950 . S
H523 C529 0.950 . S
H524 C530 0.949 . S
C525 H520 0.950 . S
C525 C527 1.327 . S
C525 C531 1.429 . S
C526 C518 1.574 . S
C526 H521 0.949 . S
C526 C532 1.368 . S
C527 C511 1.349 . S
C527 H519 0.950 . S
C527 C525 1.327 . S
C528 C516 1.349 . S
C528 H522 0.950 . S
C528 C529 1.327 . S
C529 H523 0.950 . S
C529 C528 1.327 . S
C529 C533 1.429 . S
C530 C513 1.574 . S
C530 H524 0.949 . S
C530 C534 1.368 . S
C531 C512 1.429 . S
C531 C525 1.429 . S
C531 C532 1.523 . S
C532 C513 1.368 . S
C532 C526 1.368 . S
C532 C531 1.523 . S
C533 C517 1.429 . S
C533 C529 1.429 . S
C533 C534 1.523 . S
C534 C518 1.368 . S
C534 C530 1.368 . S
C534 C533 1.523 . S
H535 C510 0.950 . S
H536 C512 0.950 . S
H537 C513 0.949 . S
H538 C515 0.950 . S
H539 C517 0.950 . S
C540 C541 1.349 . S
C540 C542 1.327 . S
C540 H565 0.950 . S
C541 C540 1.349 . S
C541 C557 1.349 . S
C542 C540 1.327 . S
C542 C561 1.429 . S
C542 H566 0.950 . S
C543 C560 1.574 . S
C543 C562 1.368 . S
C543 H567 0.949 . S
H544 C548 0.949 . S
C545 C546 1.349 . S
C545 C547 1.327 . S
C545 H568 0.950 . S
C546 C545 1.349 . S
C546 C558 1.349 . S
C547 C545 1.327 . S
C547 C563 1.429 . S
C547 H569 0.950 . S
C548 H544 0.949 . S
C548 C556 1.574 . S
C548 C564 1.368 . S
H549 C557 0.950 . S
H550 C555 0.950 . S
H551 C556 0.949 . S
H552 C558 0.950 . S
H553 C559 0.950 . S
H554 C560 0.949 . S
C555 H550 0.950 . S
C555 C557 1.327 . S
C555 C561 1.429 . S
C556 C548 1.574 . S
C556 H551 0.949 . S
C556 C562 1.368 . S
C557 C541 1.349 . S
C557 H549 0.950 . S
C557 C555 1.327 . S
C558 C546 1.349 . S
C558 H552 0.950 . S
C558 C559 1.327 . S
C559 H553 0.950 . S
C559 C558 1.327 . S
C559 C563 1.429 . S
C560 C543 1.574 . S
C560 H554 0.949 . S
C560 C564 1.368 . S
C561 C542 1.429 . S
C561 C555 1.429 . S
C561 C562 1.523 . S
C562 C543 1.368 . S
C562 C556 1.368 . S
C562 C561 1.523 . S
C563 C547 1.429 . S
C563 C559 1.429 . S
C563 C564 1.523 . S
C564 C548 1.368 . S
C564 C560 1.368 . S
C564 C563 1.523 . S
H565 C540 0.950 . S
H566 C542 0.950 . S
H567 C543 0.949 . S
H568 C545 0.950 . S
H569 C547 0.950 . S
C570 C571 1.349 . S
C570 C572 1.327 . S
C570 H595 0.950 . S
C571 C570 1.349 . S
C571 C587 1.349 . S
C572 C570 1.327 . S
C572 C591 1.429 . S
C572 H596 0.950 . S
C573 C590 1.574 . S
C573 C592 1.368 . S
C573 H597 0.949 . S
H574 C578 0.949 . S
C575 C576 1.349 . S
C575 C577 1.327 . S
C575 H598 0.950 . S
C576 C575 1.349 . S
C576 C588 1.349 . S
C577 C575 1.327 . S
C577 C593 1.429 . S
C577 H599 0.950 . S
C578 H574 0.949 . S
C578 C586 1.574 . S
C578 C594 1.368 . S
H579 C587 0.950 . S
H580 C585 0.950 . S
H581 C586 0.949 . S
H582 C588 0.950 . S
H583 C589 0.950 . S
H584 C590 0.949 . S
C585 H580 0.950 . S
C585 C587 1.327 . S
C585 C591 1.429 . S
C586 C578 1.574 . S
C586 H581 0.949 . S
C586 C592 1.368 . S
C587 C571 1.349 . S
C587 H579 0.950 . S
C587 C585 1.327 . S
C588 C576 1.349 . S
C588 H582 0.950 . S
C588 C589 1.327 . S
C589 H583 0.950 . S
C589 C588 1.327 . S
C589 C593 1.429 . S
C590 C573 1.574 . S
C590 H584 0.949 . S
C590 C594 1.368 . S
C591 C572 1.429 . S
C591 C585 1.429 . S
C591 C592 1.523 . S
C592 C573 1.368 . S
C592 C586 1.368 . S
C592 C591 1.523 . S
C593 C577 1.429 . S
C593 C589 1.429 . S
C593 C594 1.523 . S
C594 C578 1.368 . S
C594 C590 1.368 . S
C594 C593 1.523 . S
H595 C570 0.950 . S
H596 C572 0.950 . S
H597 C573 0.949 . S
H598 C575 0.950 . S
H599 C577 0.950 . S
C600 C601 1.349 . S
C600 C602 1.327 . S
C600 H625 0.950 . S
C601 C600 1.349 . S
C601 C617 1.349 . S
C602 C600 1.327 . S
C602 C621 1.429 . S
C602 H626 0.950 . S
C603 C620 1.574 . S
C603 C622 1.368 . S
C603 H627 0.949 . S
H604 C608 0.949 . S
C605 C606 1.349 . S
C605 C607 1.327 . S
C605 H628 0.950 . S
C606 C605 1.349 . S
C606 C618 1.349 . S
C607 C605 1.327 . S
C607 C623 1.429 . S
C607 H629 0.950 . S
C608 H604 0.949 . S
C608 C616 1.574 . S
C608 C624 1.368 . S
H609 C617 0.950 . S
H610 C615 0.950 . S
H611 C616 0.949 . S
H612 C618 0.950 . S
H613 C619 0.950 . S
H614 C620 0.949 . S
C615 H610 0.950 . S
C615 C617 1.327 . S
C615 C621 1.429 . S
C616 C608 1.574 . S
C616 H611 0.949 . S
C616 C622 1.368 . S
C617 C601 1.349 . S
C617 H609 0.950 . S
C617 C615 1.327 . S
C618 C606 1.349 . S
C618 H612 0.950 . S
C618 C619 1.327 . S
C619 H613 0.950 . S
C619 C618 1.327 . S
C619 C623 1.429 . S
C620 C603 1.574 . S
C620 H614 0.949 . S
C620 C624 1.368 . S
C621 C602 1.429 . S
C621 C615 1.429 . S
C621 C622 1.523 . S
C622 C603 1.368 . S
C622 C616 1.368 . S
C622 C621 1.523 . S
C623 C607 1.429 . S
C623 C619 1.429 . S
C623 C624 1.523 . S
C624 C608 1.368 . S
C624 C620 1.368 . S
C624 C623 1.523 . S
H625 C600 0.950 . S
H626 C602 0.950 . S
H627 C603 0.949 . S
H628 C605 0.950 . S
H629 C607 0.950 . S
C630 C631 1.349 . S
C630 C632 1.327 . S
C630 H655 0.950 . S
C631 C630 1.349 . S
C631 C647 1.349 . S
C632 C630 1.327 . S
C632 C651 1.429 . S
C632 H656 0.950 . S
C633 C650 1.574 . S
C633 C652 1.368 . S
C633 H657 0.949 . S
H634 C638 0.949 . S
C635 C636 1.349 . S
C635 C637 1.327 . S
C635 H658 0.950 . S
C636 C635 1.349 . S
C636 C648 1.349 . S
C637 C635 1.327 . S
C637 C653 1.429 . S
C637 H659 0.950 . S
C638 H634 0.949 . S
C638 C646 1.574 . S
C638 C654 1.368 . S
H639 C647 0.950 . S
H640 C645 0.950 . S
H641 C646 0.949 . S
H642 C648 0.950 . S
H643 C649 0.950 . S
H644 C650 0.949 . S
C645 H640 0.950 . S
C645 C647 1.327 . S
C645 C651 1.429 . S
C646 C638 1.574 . S
C646 H641 0.949 . S
C646 C652 1.368 . S
C647 C631 1.349 . S
C647 H639 0.950 . S
C647 C645 1.327 . S
C648 C636 1.349 . S
C648 H642 0.950 . S
C648 C649 1.327 . S
C649 H643 0.950 . S
C649 C648 1.327 . S
C649 C653 1.429 . S
C650 C633 1.574 . S
C650 H644 0.949 . S
C650 C654 1.368 . S
C651 C632 1.429 . S
C651 C645 1.429 . S
C651 C652 1.523 . S
C652 C633 1.368 . S
C652 C646 1.368 . S
C652 C651 1.523 . S
C653 C637 1.429 . S
C653 C649 1.429 . S
C653 C654 1.523 . S
C654 C638 1.368 . S
C654 C650 1.368 . S
C654 C653 1.523 . S
H655 C630 0.950 . S
H656 C632 0.950 . S
H657 C633 0.949 . S
H658 C635 0.950 . S
H659 C637 0.950 . S
C660 C661 1.349 . S
C660 C662 1.327 . S
C660 H685 0.950 . S
C661 C660 1.349 . S
C661 C677 1.349 . S
C662 C660 1.327 . S
C662 C681 1.429 . S
C662 H686 0.950 . S
C663 C680 1.574 . S
C663 C682 1.368 . S
C663 H687 0.949 . S
H664 C668 0.949 . S
C665 C666 1.349 . S
C665 C667 1.327 . S
C665 H688 0.950 . S
C666 C665 1.349 . S
C666 C678 1.349 . S
C667 C665 1.327 . S
C667 C683 1.429 . S
C667 H689 0.950 . S
C668 H664 0.949 . S
C668 C676 1.574 . S
C668 C684 1.368 . S
H669 C677 0.950 . S
H670 C675 0.950 . S
H671 C676 0.949 . S
H672 C678 0.950 . S
H673 C679 0.950 . S
H674 C680 0.949 . S
C675 H670 0.950 . S
C675 C677 1.327 . S
C675 C681 1.429 . S
C676 C668 1.574 . S
C676 H671 0.949 . S
C676 C682 1.368 . S
C677 C661 1.349 . S
C677 H669 0.950 . S
C677 C675 1.327 . S
C678 C666 1.349 . S
C678 H672 0.950 . S
C678 C679 1.327 . S
C679 H673 0.950 . S
C679 C678 1.327 . S
C679 C683 1.429 . S
C680 C663 1.574 . S
C680 H674 0.949 . S
C680 C684 1.368 . S
C681 C662 1.429 . S
C681 C675 1.429 . S
C681 C682 1.523 . S
C682 C663 1.368 . S
C682 C676 1.368 . S
C682 C681 1.523 . S
C683 C667 1.429 . S
C683 C679 1.429 . S
C683 C684 1.523 . S
C684 C668 1.368 . S
C684 C680 1.368 . S
C684 C683 1.523 . S
H685 C660 0.950 . S
H686 C662 0.950 . S
H687 C663 0.949 . S
H688 C665 0.950 . S
H689 C667 0.950 . S
C690 C691 1.349 . S
C690 C692 1.327 . S
C690 H715 0.950 . S
C691 C690 1.349 . S
C691 C707 1.349 . S
C692 C690 1.327 . S
C692 C711 1.429 . S
C692 H716 0.950 . S
C693 C710 1.574 . S
C693 C712 1.368 . S
C693 H717 0.949 . S
H694 C698 0.949 . S
C695 C696 1.349 . S
C695 C697 1.327 . S
C695 H718 0.950 . S
C696 C695 1.349 . S
C696 C708 1.349 . S
C697 C695 1.327 . S
C697 C713 1.429 . S
C697 H719 0.950 . S
C698 H694 0.949 . S
C698 C706 1.574 . S
C698 C714 1.368 . S
H699 C707 0.950 . S
H700 C705 0.950 . S
H701 C706 0.949 . S
H702 C708 0.950 . S
H703 C709 0.950 . S
H704 C710 0.949 . S
C705 H700 0.950 . S
C705 C707 1.327 . S
C705 C711 1.429 . S
C706 C698 1.574 . S
C706 H701 0.949 . S
C706 C712 1.368 . S
C707 C691 1.349 . S
C707 H699 0.950 . S
C707 C705 1.327 . S
C708 C696 1.349 . S
C708 H702 0.950 . S
C708 C709 1.327 . S
C709 H703 0.950 . S
C709 C708 1.327 . S
C709 C713 1.429 . S
C710 C693 1.574 . S
C710 H704 0.949 . S
C710 C714 1.368 . S
C711 C692 1.429 . S
C711 C705 1.429 . S
C711 C712 1.523 . S
C712 C693 1.368 . S
C712 C706 1.368 . S
C712 C711 1.523 . S
C713 C697 1.429 . S
C713 C709 1.429 . S
C713 C714 1.523 . S
C714 C698 1.368 . S
C714 C710 1.368 . S
C714 C713 1.523 . S
H715 C690 0.950 . S
H716 C692 0.950 . S
H717 C693 0.949 . S
H718 C695 0.950 . S
H719 C697 0.950 . S
C720 C721 1.349 . S
C720 C722 1.327 1_545 S
C720 H745 0.950 . S
C721 C720 1.349 . S
C721 C737 1.349 . S
C722 C720 1.327 1_565 S
C722 C741 1.429 . S
C722 H746 0.950 . S
C723 C740 1.574 . S
C723 C742 1.368 . S
C723 H747 0.949 . S
H724 C728 0.949 . S
C725 C726 1.349 . S
C725 C727 1.327 . S
C725 H748 0.950 . S
C726 C725 1.349 . S
C726 C738 1.349 . S
C727 C725 1.327 . S
C727 C743 1.429 . S
C727 H749 0.950 . S
C728 H724 0.949 . S
C728 C736 1.574 . S
C728 C744 1.368 . S
H729 C737 0.950 . S
H730 C735 0.950 . S
H731 C736 0.949 . S
H732 C738 0.950 . S
H733 C739 0.950 . S
H734 C740 0.949 . S
C735 H730 0.950 . S
C735 C737 1.327 . S
C735 C741 1.429 1_545 S
C736 C728 1.574 . S
C736 H731 0.949 . S
C736 C742 1.368 . S
C737 C721 1.349 . S
C737 H729 0.950 . S
C737 C735 1.327 . S
C738 C726 1.349 . S
C738 H732 0.950 . S
C738 C739 1.327 . S
C739 H733 0.950 . S
C739 C738 1.327 . S
C739 C743 1.429 . S
C740 C723 1.574 . S
C740 H734 0.949 . S
C740 C744 1.368 . S
C741 C722 1.429 . S
C741 C735 1.429 1_565 S
C741 C742 1.523 . S
C742 C723 1.368 . S
C742 C736 1.368 . S
C742 C741 1.523 . S
C743 C727 1.429 . S
C743 C739 1.429 . S
C743 C744 1.523 . S
C744 C728 1.368 . S
C744 C740 1.368 . S
C744 C743 1.523 . S
H745 C720 0.950 . S
H746 C722 0.950 . S
H747 C723 0.949 . S
H748 C725 0.950 . S
H749 C727 0.950 . S
C750 C751 1.349 . S
C750 C752 1.327 . S
C750 H775 0.950 . S
C751 C750 1.349 . S
C751 C767 1.349 . S
C752 C750 1.327 . S
C752 C771 1.428 1_545 S
C752 H776 0.950 1_545 S
C753 C770 1.574 . S
C753 C772 1.368 . S
C753 H777 0.949 . S
H754 C758 0.949 . S
C755 C756 1.349 . S
C755 C757 1.327 . S
C755 H778 0.950 . S
C756 C755 1.349 . S
C756 C768 1.349 . S
C757 C755 1.327 . S
C757 C773 1.429 1_655 S
C757 H779 0.950 . S
C758 H754 0.949 . S
C758 C766 1.574 . S
C758 C774 1.368 . S
H759 C767 0.950 . S
H760 C765 0.950 . S
H761 C766 0.949 . S
H762 C768 0.950 . S
H763 C769 0.950 . S
H764 C770 0.949 . S
C765 H760 0.950 . S
C765 C767 1.327 . S
C765 C771 1.429 1_545 S
C766 C758 1.574 . S
C766 H761 0.949 . S
C766 C772 1.368 . S
C767 C751 1.349 . S
C767 H759 0.950 . S
C767 C765 1.327 . S
C768 C756 1.349 . S
C768 H762 0.950 . S
C768 C769 1.327 1_655 S
C769 H763 0.950 . S
C769 C768 1.327 1_455 S
C769 C773 1.429 . S
C770 C753 1.574 . S
C770 H764 0.949 . S
C770 C774 1.368 . S
C771 C752 1.428 1_565 S
C771 C765 1.429 1_565 S
C771 C772 1.523 . S
C772 C753 1.368 . S
C772 C766 1.368 . S
C772 C771 1.523 . S
C773 C757 1.429 1_455 S
C773 C769 1.429 . S
C773 C774 1.523 . S
C774 C758 1.368 . S
C774 C770 1.368 . S
C774 C773 1.523 . S
H775 C750 0.950 . S
H776 C752 0.950 1_565 S
H777 C753 0.949 . S
H778 C755 0.950 . S
H779 C757 0.950 . S
C780 C781 1.349 . S
C780 C782 1.327 . S
C780 H805 0.950 . S
C781 C780 1.349 . S
C781 C797 1.349 . S
C782 C780 1.327 . S
C782 C801 1.429 1_655 S
C782 H806 0.959 . S
C783 C800 1.574 . S
C783 C802 1.368 . S
C783 H807 0.949 . S
H784 C788 0.949 . S
C785 C786 1.349 . S
C785 C787 1.327 . S
C785 H808 0.950 . S
C786 C785 1.349 . S
C786 C798 1.349 . S
C787 C785 1.327 . S
C787 C803 1.429 . S
C787 H809 0.950 . S
C788 H784 0.949 . S
C788 C796 1.574 . S
C788 C804 1.368 . S
H789 C797 0.950 . S
H790 C795 0.950 . S
H791 C796 0.949 . S
H792 C798 0.950 . S
H793 C799 0.950 . S
H794 C800 0.949 . S
C795 H790 0.950 . S
C795 C797 1.327 . S
C795 C801 1.429 1_655 S
C796 C788 1.574 . S
C796 H791 0.949 . S
C796 C802 1.368 . S
C797 C781 1.349 . S
C797 H789 0.950 . S
C797 C795 1.327 . S
C798 C786 1.349 . S
C798 H792 0.950 . S
C798 C799 1.327 . S
C799 H793 0.950 . S
C799 C798 1.327 . S
C799 C803 1.429 . S
C800 C783 1.574 . S
C800 H794 0.949 . S
C800 C804 1.368 . S
C801 C782 1.429 1_455 S
C801 C795 1.429 1_455 S
C801 C802 1.523 . S
C802 C783 1.368 . S
C802 C796 1.368 . S
C802 C801 1.523 . S
C803 C787 1.429 . S
C803 C799 1.429 . S
C803 C804 1.523 . S
C804 C788 1.368 . S
C804 C800 1.368 . S
C804 C803 1.523 . S
H805 C780 0.950 . S
H806 C782 0.959 . S
H807 C783 0.949 . S
H808 C785 0.950 . S
H809 C787 0.950 . S
C810 C811 1.349 . S
C810 C812 1.327 . S
C810 H835 0.950 . S
C811 C810 1.349 . S
C811 C827 1.349 . S
C812 C810 1.327 . S
C812 C831 1.429 . S
C812 H836 0.950 . S
C813 C830 1.574 . S
C813 C832 1.368 . S
C813 H837 0.949 . S
H814 C818 0.949 . S
C815 C816 1.349 . S
C815 C817 1.327 . S
C815 H838 0.950 . S
C816 C815 1.349 . S
C816 C828 1.349 . S
C817 C815 1.327 . S
C817 C833 1.429 1_655 S
C817 H839 0.950 . S
C818 H814 0.949 . S
C818 C826 1.574 . S
C818 C834 1.368 . S
H819 C827 0.950 . S
H820 C825 0.950 . S
H821 C826 0.949 . S
H822 C828 0.950 . S
H823 C829 0.950 . S
H824 C830 0.949 . S
C825 H820 0.950 . S
C825 C827 1.327 . S
C825 C831 1.429 . S
C826 C818 1.574 . S
C826 H821 0.949 . S
C826 C832 1.368 . S
C827 C811 1.349 . S
C827 H819 0.950 . S
C827 C825 1.327 . S
C828 C816 1.349 . S
C828 H822 0.950 . S
C828 C829 1.327 1_655 S
C829 H823 0.950 . S
C829 C828 1.327 1_455 S
C829 C833 1.429 . S
C830 C813 1.574 . S
C830 H824 0.949 . S
C830 C834 1.368 . S
C831 C812 1.429 . S
C831 C825 1.429 . S
C831 C832 1.523 . S
C832 C813 1.368 . S
C832 C826 1.368 . S
C832 C831 1.523 . S
C833 C817 1.429 1_455 S
C833 C829 1.429 . S
C833 C834 1.523 . S
C834 C818 1.368 . S
C834 C830 1.368 . S
C834 C833 1.523 . S
H835 C810 0.950 . S
H836 C812 0.950 . S
H837 C813 0.949 . S
H838 C815 0.950 . S
H839 C817 0.950 . S
C840 C841 1.349 . S
C840 C842 1.327 . S
C840 H865 0.950 . S
C841 C840 1.349 . S
C841 C857 1.349 . S
C842 C840 1.327 . S
C842 C861 1.429 . S
C842 H866 0.950 . S
C843 C860 1.574 . S
C843 C862 1.368 . S
C843 H867 0.949 . S
H844 C848 0.949 . S
C845 C846 1.349 . S
C845 C847 1.327 . S
C845 H868 0.950 . S
C846 C845 1.349 . S
C846 C858 1.349 . S
C847 C845 1.327 . S
C847 C863 1.429 1_545 S
C847 H869 0.950 . S
C848 H844 0.949 . S
C848 C856 1.574 . S
C848 C864 1.368 . S
H849 C857 0.950 . S
H850 C855 0.950 . S
H851 C856 0.949 . S
H852 C858 0.950 . S
H853 C859 0.950 1_565 S
H854 C860 0.949 . S
C855 H850 0.950 . S
C855 C857 1.327 . S
C855 C861 1.429 . S
C856 C848 1.574 . S
C856 H851 0.949 . S
C856 C862 1.368 . S
C857 C841 1.349 . S
C857 H849 0.950 . S
C857 C855 1.327 . S
C858 C846 1.349 . S
C858 H852 0.950 . S
C858 C859 1.327 . S
C859 H853 0.950 1_545 S
C859 C858 1.327 . S
C859 C863 1.429 1_545 S
C860 C843 1.574 . S
C860 H854 0.949 . S
C860 C864 1.368 . S
C861 C842 1.429 . S
C861 C855 1.429 . S
C861 C862 1.523 . S
C862 C843 1.368 . S
C862 C856 1.368 . S
C862 C861 1.523 . S
C863 C847 1.429 1_565 S
C863 C859 1.429 1_565 S
C863 C864 1.523 . S
C864 C848 1.368 . S
C864 C860 1.368 . S
C864 C863 1.523 . S
H865 C840 0.950 . S
H866 C842 0.950 . S
H867 C843 0.949 . S
H868 C845 0.950 . S
H869 C847 0.950 . S
C870 C871 1.349 . S
C870 C872 1.327 1_545 S
C870 H895 0.950 . S
C871 C870 1.349 . S
C871 C887 1.349 . S
C872 C870 1.327 1_565 S
C872 C891 1.429 . S
C872 H896 0.950 . S
C873 C890 1.574 . S
C873 C892 1.368 . S
C873 H897 0.949 . S
H874 C878 0.949 . S
C875 C876 1.349 . S
C875 C877 1.327 . S
C875 H898 0.950 . S
C876 C875 1.349 . S
C876 C888 1.349 . S
C877 C875 1.327 . S
C877 C893 1.429 1_655 S
C877 H899 0.950 . S
C878 H874 0.949 . S
C878 C886 1.574 . S
C878 C894 1.368 . S
H879 C887 0.950 . S
H880 C885 0.950 . S
H881 C886 0.949 . S
H882 C888 0.950 . S
H883 C889 0.950 1_455 S
H884 C890 0.949 . S
C885 H880 0.950 . S
C885 C887 1.327 . S
C885 C891 1.429 1_545 S
C886 C878 1.574 . S
C886 H881 0.949 . S
C886 C892 1.368 . S
C887 C871 1.349 . S
C887 H879 0.950 . S
C887 C885 1.327 . S
C888 C876 1.349 . S
C888 H882 0.950 . S
C888 C889 1.327 . S
C889 H883 0.950 1_655 S
C889 C888 1.327 . S
C889 C893 1.429 1_655 S
C890 C873 1.574 . S
C890 H884 0.949 . S
C890 C894 1.368 . S
C891 C872 1.429 . S
C891 C885 1.429 1_565 S
C891 C892 1.523 . S
C892 C873 1.368 . S
C892 C886 1.368 . S
C892 C891 1.523 . S
C893 C877 1.429 1_455 S
C893 C889 1.429 1_455 S
C893 C894 1.523 . S
C894 C878 1.368 . S
C894 C890 1.368 . S
C894 C893 1.523 . S
H895 C870 0.950 . S
H896 C872 0.950 . S
H897 C873 0.949 . S
H898 C875 0.950 . S
H899 C877 0.950 . S
C900 C901 1.349 . S
C900 C902 1.327 . S
C900 H925 0.950 . S
C901 C900 1.349 . S
C901 C917 1.349 . S
C902 C900 1.327 . S
C902 C921 1.429 . S
C902 H926 0.950 . S
C903 C920 1.574 . S
C903 C922 1.368 . S
C903 H927 0.949 . S
H904 C908 0.949 . S
C905 C906 1.349 . S
C905 C907 1.327 . S
C905 H928 0.950 . S
C906 C905 1.349 . S
C906 C918 1.349 . S
C907 C905 1.327 . S
C907 C923 1.429 . S
C907 H929 0.950 . S
C908 H904 0.949 . S
C908 C916 1.574 . S
C908 C924 1.368 . S
H909 C917 0.950 . S
H910 C915 0.950 . S
H911 C916 0.949 . S
H912 C918 0.950 . S
H913 C919 0.950 . S
H914 C920 0.949 . S
C915 H910 0.950 . S
C915 C917 1.327 . S
C915 C921 1.429 . S
C916 C908 1.574 . S
C916 H911 0.949 . S
C916 C922 1.368 . S
C917 C901 1.349 . S
C917 H909 0.950 . S
C917 C915 1.327 . S
C918 C906 1.349 . S
C918 H912 0.950 . S
C918 C919 1.327 . S
C919 H913 0.950 . S
C919 C918 1.327 . S
C919 C923 1.429 . S
C920 C903 1.574 . S
C920 H914 0.949 . S
C920 C924 1.368 . S
C921 C902 1.429 . S
C921 C915 1.429 . S
C921 C922 1.523 . S
C922 C903 1.368 . S
C922 C916 1.368 . S
C922 C921 1.523 . S
C923 C907 1.429 . S
C923 C919 1.429 . S
C923 C924 1.523 . S
C924 C908 1.368 . S
C924 C920 1.368 . S
C924 C923 1.523 . S
H925 C900 0.950 . S
H926 C902 0.950 . S
H927 C903 0.949 . S
H928 C905 0.950 . S
H929 C907 0.950 . S
C930 C931 1.349 . S
C930 C932 1.327 . S
C930 H955 0.950 . S
C931 C930 1.349 . S
C931 C947 1.349 . S
C932 C930 1.327 . S
C932 C951 1.429 . S
C932 H956 0.950 . S
C933 C950 1.574 . S
C933 C952 1.368 . S
C933 H957 0.949 . S
H934 C938 0.949 . S
C935 C936 1.349 . S
C935 C937 1.327 . S
C935 H958 0.950 . S
C936 C935 1.349 . S
C936 C948 1.349 . S
C937 C935 1.327 . S
C937 C953 1.429 . S
C937 H959 0.950 . S
C938 H934 0.949 . S
C938 C946 1.574 . S
C938 C954 1.368 . S
H939 C947 0.950 . S
H940 C945 0.950 . S
H941 C946 0.949 . S
H942 C948 0.950 . S
H943 C949 0.950 . S
H944 C950 0.949 . S
C945 H940 0.950 . S
C945 C947 1.327 . S
C945 C951 1.429 . S
C946 C938 1.574 . S
C946 H941 0.949 . S
C946 C952 1.368 . S
C947 C931 1.349 . S
C947 H939 0.950 . S
C947 C945 1.327 . S
C948 C936 1.349 . S
C948 H942 0.950 . S
C948 C949 1.327 . S
C949 H943 0.950 . S
C949 C948 1.327 . S
C949 C953 1.429 . S
C950 C933 1.574 . S
C950 H944 0.949 . S
C950 C954 1.368 . S
C951 C932 1.429 . S
C951 C945 1.429 . S
C951 C952 1.523 . S
C952 C933 1.368 . S
C952 C946 1.368 . S
C952 C951 1.523 . S
C953 C937 1.429 . S
C953 C949 1.429 . S
C953 C954 1.523 . S
C954 C938 1.368 . S
C954 C950 1.368 . S
C954 C953 1.523 . S
H955 C930 0.950 . S
H956 C932 0.950 . S
H957 C933 0.949 . S
H958 C935 0.950 . S
H959 C937 0.950 . S
C960 C961 1.349 . S
C960 C962 1.327 . S
C960 H985 0.950 . S
C961 C960 1.349 . S
C961 C977 1.349 . S
C962 C960 1.327 . S
C962 C981 1.429 . S
C962 H986 0.950 . S
C963 C980 1.574 . S
C963 C982 1.368 . S
C963 H987 0.949 . S
H964 C968 0.949 . S
C965 C966 1.349 . S
C965 C967 1.327 . S
C965 H988 0.950 . S
C966 C965 1.349 . S
C966 C978 1.349 . S
C967 C965 1.327 . S
C967 C983 1.429 . S
C967 H989 0.950 . S
C968 H964 0.949 . S
C968 C976 1.574 . S
C968 C984 1.368 . S
H969 C977 0.950 . S
H970 C975 0.950 . S
H971 C976 0.949 . S
H972 C978 0.950 . S
H973 C979 0.950 . S
H974 C980 0.949 . S
C975 H970 0.950 . S
C975 C977 1.327 . S
C975 C981 1.429 . S
C976 C968 1.574 . S
C976 H971 0.949 . S
C976 C982 1.368 . S
C977 C961 1.349 . S
C977 H969 0.950 . S
C977 C975 1.327 . S
C978 C966 1.349 . S
C978 H972 0.950 . S
C978 C979 1.327 . S
C979 H973 0.950 . S
C979 C978 1.327 . S
C979 C983 1.429 . S
C980 C963 1.574 . S
C980 H974 0.949 . S
C980 C984 1.368 . S
C981 C962 1.429 . S
C981 C975 1.429 . S
C981 C982 1.523 . S
C982 C963 1.368 . S
C982 C976 1.368 . S
C982 C981 1.523 . S
C983 C967 1.429 . S
C983 C979 1.429 . S
C983 C984 1.523 . S
C984 C968 1.368 . S
C984 C980 1.368 . S
C984 C983 1.523 . S
H985 C960 0.950 . S
H986 C962 0.950 . S
H987 C963 0.949 . S
H988 C965 0.950 . S
H989 C967 0.950 . S
C990 C991 1.349 . S
C990 C992 1.327 . S
C990 H1015 0.950 . S
C991 C990 1.349 . S
C991 C1007 1.349 . S
C992 C990 1.327 . S
C992 C1011 1.429 . S
C992 H1016 0.950 . S
C993 C1010 1.574 . S
C993 C1012 1.368 . S
C993 H1017 0.949 . S
H994 C998 0.949 . S
C995 C996 1.349 . S
C995 C997 1.327 . S
C995 H1018 0.950 . S
C996 C995 1.349 . S
C996 C1008 1.349 . S
C997 C995 1.327 . S
C997 C1013 1.429 . S
C997 H1019 0.950 . S
C998 H994 0.949 . S
C998 C1006 1.574 . S
C998 C1014 1.368 . S
H999 C1007 0.950 . S
H1000 C1005 0.950 . S
H1001 C1006 0.949 . S
H1002 C1008 0.950 . S
H1003 C1009 0.950 . S
H1004 C1010 0.949 . S
C1005 H1000 0.950 . S
C1005 C1007 1.327 . S
C1005 C1011 1.429 . S
C1006 C998 1.574 . S
C1006 H1001 0.949 . S
C1006 C1012 1.368 . S
C1007 C991 1.349 . S
C1007 H999 0.950 . S
C1007 C1005 1.327 . S
C1008 C996 1.349 . S
C1008 H1002 0.950 . S
C1008 C1009 1.327 . S
C1009 H1003 0.950 . S
C1009 C1008 1.327 . S
C1009 C1013 1.429 . S
C1010 C993 1.574 . S
C1010 H1004 0.949 . S
C1010 C1014 1.368 . S
C1011 C992 1.429 . S
C1011 C1005 1.429 . S
C1011 C1012 1.523 . S
C1012 C993 1.368 . S
C1012 C1006 1.368 . S
C1012 C1011 1.523 . S
C1013 C997 1.429 . S
C1013 C1009 1.429 . S
C1013 C1014 1.523 . S
C1014 C998 1.368 . S
C1014 C1010 1.368 . S
C1014 C1013 1.523 . S
H1015 C990 0.950 . S
H1016 C992 0.950 . S
H1017 C993 0.949 . S
H1018 C995 0.950 . S
H1019 C997 0.950 . S
C1020 C1021 1.349 . S
C1020 C1022 1.327 . S
C1020 H1045 0.950 . S
C1021 C1020 1.349 . S
C1021 C1037 1.349 . S
C1022 C1020 1.327 . S
C1022 C1041 1.429 . S
C1022 H1046 0.950 . S
C1023 C1040 1.574 . S
C1023 C1042 1.368 . S
C1023 H1047 0.949 . S
H1024 C1028 0.949 . S
C1025 C1026 1.349 . S
C1025 C1027 1.327 . S
C1025 H1048 0.950 . S
C1026 C1025 1.349 . S
C1026 C1038 1.349 . S
C1027 C1025 1.327 . S
C1027 C1043 1.429 . S
C1027 H1049 0.950 . S
C1028 H1024 0.949 . S
C1028 C1036 1.574 . S
C1028 C1044 1.368 . S
H1029 C1037 0.950 . S
H1030 C1035 0.950 . S
H1031 C1036 0.949 . S
H1032 C1038 0.950 . S
H1033 C1039 0.950 . S
H1034 C1040 0.949 . S
C1035 H1030 0.950 . S
C1035 C1037 1.327 . S
C1035 C1041 1.429 . S
C1036 C1028 1.574 . S
C1036 H1031 0.949 . S
C1036 C1042 1.368 . S
C1037 C1021 1.349 . S
C1037 H1029 0.950 . S
C1037 C1035 1.327 . S
C1038 C1026 1.349 . S
C1038 H1032 0.950 . S
C1038 C1039 1.327 . S
C1039 H1033 0.950 . S
C1039 C1038 1.327 . S
C1039 C1043 1.429 . S
C1040 C1023 1.574 . S
C1040 H1034 0.949 . S
C1040 C1044 1.368 . S
C1041 C1022 1.429 . S
C1041 C1035 1.429 . S
C1041 C1042 1.523 . S
C1042 C1023 1.368 . S
C1042 C1036 1.368 . S
C1042 C1041 1.523 . S
C1043 C1027 1.429 . S
C1043 C1039 1.429 . S
C1043 C1044 1.523 . S
C1044 C1028 1.368 . S
C1044 C1040 1.368 . S
C1044 C1043 1.523 . S
H1045 C1020 0.950 . S
H1046 C1022 0.950 . S
H1047 C1023 0.949 . S
H1048 C1025 0.950 . S
H1049 C1027 0.950 . S
C1050 C1051 1.349 . S
C1050 C1052 1.327 . S
C1050 H1075 0.950 . S
C1051 C1050 1.349 . S
C1051 C1067 1.349 . S
C1052 C1050 1.327 . S
C1052 C1071 1.429 . S
C1052 H1076 0.950 . S
C1053 C1070 1.574 . S
C1053 C1072 1.368 . S
C1053 H1077 0.949 . S
H1054 C1058 0.949 . S
C1055 C1056 1.349 . S
C1055 C1057 1.327 . S
C1055 H1078 0.950 . S
C1056 C1055 1.349 . S
C1056 C1068 1.349 . S
C1057 C1055 1.327 . S
C1057 C1073 1.429 . S
C1057 H1079 0.950 . S
C1058 H1054 0.949 . S
C1058 C1066 1.574 . S
C1058 C1074 1.368 . S
H1059 C1067 0.950 . S
H1060 C1065 0.950 . S
H1061 C1066 0.949 . S
H1062 C1068 0.950 . S
H1063 C1069 0.950 . S
H1064 C1070 0.949 . S
C1065 H1060 0.950 . S
C1065 C1067 1.327 . S
C1065 C1071 1.429 . S
C1066 C1058 1.574 . S
C1066 H1061 0.949 . S
C1066 C1072 1.368 . S
C1067 C1051 1.349 . S
C1067 H1059 0.950 . S
C1067 C1065 1.327 . S
C1068 C1056 1.349 . S
C1068 H1062 0.950 . S
C1068 C1069 1.327 . S
C1069 H1063 0.950 . S
C1069 C1068 1.327 . S
C1069 C1073 1.429 . S
C1070 C1053 1.574 . S
C1070 H1064 0.949 . S
C1070 C1074 1.368 . S
C1071 C1052 1.429 . S
C1071 C1065 1.429 . S
C1071 C1072 1.523 . S
C1072 C1053 1.368 . S
C1072 C1066 1.368 . S
C1072 C1071 1.523 . S
C1073 C1057 1.429 . S
C1073 C1069 1.429 . S
C1073 C1074 1.523 . S
C1074 C1058 1.368 . S
C1074 C1070 1.368 . S
C1074 C1073 1.523 . S
H1075 C1050 0.950 . S
H1076 C1052 0.950 . S
H1077 C1053 0.949 . S
H1078 C1055 0.950 . S
H1079 C1057 0.950 . S
C1080 C1081 1.349 . S
C1080 C1082 1.327 . S
C1080 H1105 0.950 . S
C1081 C1080 1.349 . S
C1081 C1097 1.349 . S
C1082 C1080 1.327 . S
C1082 C1101 1.429 . S
C1082 H1106 0.950 . S
C1083 C1100 1.574 . S
C1083 C1102 1.368 . S
C1083 H1107 0.949 . S
H1084 C1088 0.949 . S
C1085 C1086 1.349 . S
C1085 C1087 1.327 . S
C1085 H1108 0.950 . S
C1086 C1085 1.349 . S
C1086 C1098 1.349 . S
C1087 C1085 1.327 . S
C1087 C1103 1.429 . S
C1087 H1109 0.950 . S
C1088 H1084 0.949 . S
C1088 C1096 1.574 . S
C1088 C1104 1.368 . S
H1089 C1097 0.950 . S
H1090 C1095 0.950 . S
H1091 C1096 0.949 . S
H1092 C1098 0.950 . S
H1093 C1099 0.950 . S
H1094 C1100 0.949 . S
C1095 H1090 0.950 . S
C1095 C1097 1.327 . S
C1095 C1101 1.429 . S
C1096 C1088 1.574 . S
C1096 H1091 0.949 . S
C1096 C1102 1.368 . S
C1097 C1081 1.349 . S
C1097 H1089 0.950 . S
C1097 C1095 1.327 . S
C1098 C1086 1.349 . S
C1098 H1092 0.950 . S
C1098 C1099 1.327 . S
C1099 H1093 0.950 . S
C1099 C1098 1.327 . S
C1099 C1103 1.429 . S
C1100 C1083 1.574 . S
C1100 H1094 0.949 . S
C1100 C1104 1.368 . S
C1101 C1082 1.429 . S
C1101 C1095 1.429 . S
C1101 C1102 1.523 . S
C1102 C1083 1.368 . S
C1102 C1096 1.368 . S
C1102 C1101 1.523 . S
C1103 C1087 1.429 . S
C1103 C1099 1.429 . S
C1103 C1104 1.523 . S
C1104 C1088 1.368 . S
C1104 C1100 1.368 . S
C1104 C1103 1.523 . S
H1105 C1080 0.950 . S
H1106 C1082 0.950 . S
H1107 C1083 0.949 . S
H1108 C1085 0.950 . S
H1109 C1087 0.950 . S
C1110 C1111 1.349 . S
C1110 C1112 1.327 . S
C1110 H1135 0.950 . S
C1111 C1110 1.349 . S
C1111 C1127 1.349 . S
C1112 C1110 1.327 . S
C1112 C1131 1.429 . S
C1112 H1136 0.950 . S
C1113 C1130 1.574 . S
C1113 C1132 1.368 . S
C1113 H1137 0.949 . S
H1114 C1118 0.949 . S
C1115 C1116 1.349 . S
C1115 C1117 1.327 . S
C1115 H1138 0.950 . S
C1116 C1115 1.349 . S
C1116 C1128 1.349 . S
C1117 C1115 1.327 . S
C1117 C1133 1.429 . S
C1117 H1139 0.950 . S
C1118 H1114 0.949 . S
C1118 C1126 1.574 . S
C1118 C1134 1.368 . S
H1119 C1127 0.950 . S
H1120 C1125 0.950 . S
H1121 C1126 0.949 . S
H1122 C1128 0.950 . S
H1123 C1129 0.950 . S
H1124 C1130 0.949 . S
C1125 H1120 0.950 . S
C1125 C1127 1.327 . S
C1125 C1131 1.429 . S
C1126 C1118 1.574 . S
C1126 H1121 0.949 . S
C1126 C1132 1.368 . S
C1127 C1111 1.349 . S
C1127 H1119 0.950 . S
C1127 C1125 1.327 . S
C1128 C1116 1.349 . S
C1128 H1122 0.950 . S
C1128 C1129 1.327 . S
C1129 H1123 0.950 . S
C1129 C1128 1.327 . S
C1129 C1133 1.429 . S
C1130 C1113 1.574 . S
C1130 H1124 0.949 . S
C1130 C1134 1.368 . S
C1131 C1112 1.429 . S
C1131 C1125 1.429 . S
C1131 C1132 1.523 . S
C1132 C1113 1.368 . S
C1132 C1126 1.368 . S
C1132 C1131 1.523 . S
C1133 C1117 1.429 . S
C1133 C1129 1.429 . S
C1133 C1134 1.523 . S
C1134 C1118 1.368 . S
C1134 C1130 1.368 . S
C1134 C1133 1.523 . S
H1135 C1110 0.950 . S
H1136 C1112 0.950 . S
H1137 C1113 0.949 . S
H1138 C1115 0.950 . S
H1139 C1117 0.950 . S
C1140 C1141 1.349 . S
C1140 C1142 1.327 . S
C1140 H1165 0.950 . S
C1141 C1140 1.349 . S
C1141 C1157 1.349 . S
C1142 C1140 1.327 . S
C1142 C1161 1.429 . S
C1142 H1166 0.950 . S
C1143 C1160 1.574 . S
C1143 C1162 1.368 . S
C1143 H1167 0.949 . S
H1144 C1148 0.949 . S
C1145 C1146 1.349 . S
C1145 C1147 1.327 . S
C1145 H1168 0.950 . S
C1146 C1145 1.349 . S
C1146 C1158 1.349 . S
C1147 C1145 1.327 . S
C1147 C1163 1.429 . S
C1147 H1169 0.950 . S
C1148 H1144 0.949 . S
C1148 C1156 1.574 . S
C1148 C1164 1.368 . S
H1149 C1157 0.950 . S
H1150 C1155 0.950 . S
H1151 C1156 0.949 . S
H1152 C1158 0.950 . S
H1153 C1159 0.950 . S
H1154 C1160 0.949 . S
C1155 H1150 0.950 . S
C1155 C1157 1.327 . S
C1155 C1161 1.429 . S
C1156 C1148 1.574 . S
C1156 H1151 0.949 . S
C1156 C1162 1.368 . S
C1157 C1141 1.349 . S
C1157 H1149 0.950 . S
C1157 C1155 1.327 . S
C1158 C1146 1.349 . S
C1158 H1152 0.950 . S
C1158 C1159 1.327 . S
C1159 H1153 0.950 . S
C1159 C1158 1.327 . S
C1159 C1163 1.429 . S
C1160 C1143 1.574 . S
C1160 H1154 0.949 . S
C1160 C1164 1.368 . S
C1161 C1142 1.429 . S
C1161 C1155 1.429 . S
C1161 C1162 1.523 . S
C1162 C1143 1.368 . S
C1162 C1156 1.368 . S
C1162 C1161 1.523 . S
C1163 C1147 1.429 . S
C1163 C1159 1.429 . S
C1163 C1164 1.523 . S
C1164 C1148 1.368 . S
C1164 C1160 1.368 . S
C1164 C1163 1.523 . S
H1165 C1140 0.950 . S
H1166 C1142 0.950 . S
H1167 C1143 0.949 . S
H1168 C1145 0.950 . S
H1169 C1147 0.950 . S
C1170 C1171 1.349 . S
C1170 C1172 1.327 1_556 S
C1170 H1195 0.950 . S
C1171 C1170 1.349 . S
C1171 C1187 1.349 . S
C1172 C1170 1.327 1_554 S
C1172 C1191 1.429 . S
C1172 H1196 0.950 . S
C1173 C1190 1.574 . S
C1173 C1192 1.368 . S
C1173 H1197 0.949 . S
H1174 C1178 0.949 . S
C1175 C1176 1.349 . S
C1175 C1177 1.327 . S
C1175 H1198 0.950 . S
C1176 C1175 1.349 . S
C1176 C1188 1.349 . S
C1177 C1175 1.327 . S
C1177 C1193 1.429 . S
C1177 H1199 0.950 . S
C1178 H1174 0.949 . S
C1178 C1186 1.574 . S
C1178 C1194 1.368 . S
H1179 C1187 0.950 . S
H1180 C1185 0.950 . S
H1181 C1186 0.949 . S
H1182 C1188 0.950 . S
H1183 C1189 0.950 . S
H1184 C1190 0.949 . S
C1185 H1180 0.950 . S
C1185 C1187 1.327 1_554 S
C1185 C1191 1.429 . S
C1186 C1178 1.574 . S
C1186 H1181 0.949 . S
C1186 C1192 1.368 . S
C1187 C1171 1.349 . S
C1187 H1179 0.950 . S
C1187 C1185 1.327 1_556 S
C1188 C1176 1.349 . S
C1188 H1182 0.950 . S
C1188 C1189 1.327 . S
C1189 H1183 0.950 . S
C1189 C1188 1.327 . S
C1189 C1193 1.429 . S
C1190 C1173 1.574 . S
C1190 H1184 0.949 . S
C1190 C1194 1.368 . S
C1191 C1172 1.429 . S
C1191 C1185 1.429 . S
C1191 C1192 1.523 . S
C1192 C1173 1.368 . S
C1192 C1186 1.368 . S
C1192 C1191 1.523 . S
C1193 C1177 1.429 . S
C1193 C1189 1.429 . S
C1193 C1194 1.523 . S
C1194 C1178 1.368 . S
C1194 C1190 1.368 . S
C1194 C1193 1.523 . S
H1195 C1170 0.950 . S
H1196 C1172 0.950 . S
H1197 C1173 0.949 . S
H1198 C1175 0.950 . S
H1199 C1177 0.950 . S
C1200 C1201 1.349 . S
C1200 C1202 1.327 1_556 S
C1200 H1225 0.950 . S
C1201 C1200 1.349 . S
C1201 C1217 1.349 . S
C1202 C1200 1.327 1_554 S
C1202 C1221 1.429 . S
C1202 H1226 0.950 . S
C1203 C1220 1.574 . S
C1203 C1222 1.368 . S
C1203 H1227 0.949 . S
H1204 C1208 0.949 . S
C1205 C1206 1.349 . S
C1205 C1207 1.327 . S
C1205 H1228 0.950 . S
C1206 C1205 1.349 . S
C1206 C1218 1.349 . S
C1207 C1205 1.327 . S
C1207 C1223 1.429 . S
C1207 H1229 0.950 . S
C1208 H1204 0.949 . S
C1208 C1216 1.574 . S
C1208 C1224 1.368 . S
H1209 C1217 0.950 . S
H1210 C1215 0.950 . S
H1211 C1216 0.949 . S
H1212 C1218 0.950 . S
H1213 C1219 0.950 . S
H1214 C1220 0.949 . S
C1215 H1210 0.950 . S
C1215 C1217 1.327 1_554 S
C1215 C1221 1.429 . S
C1216 C1208 1.574 . S
C1216 H1211 0.949 . S
C1216 C1222 1.368 . S
C1217 C1201 1.349 . S
C1217 H1209 0.950 . S
C1217 C1215 1.327 1_556 S
C1218 C1206 1.349 . S
C1218 H1212 0.950 . S
C1218 C1219 1.327 . S
C1219 H1213 0.950 . S
C1219 C1218 1.327 . S
C1219 C1223 1.429 . S
C1220 C1203 1.574 . S
C1220 H1214 0.949 . S
C1220 C1224 1.368 . S
C1221 C1202 1.429 . S
C1221 C1215 1.429 . S
C1221 C1222 1.523 . S
C1222 C1203 1.368 . S
C1222 C1216 1.368 . S
C1222 C1221 1.523 . S
C1223 C1207 1.429 . S
C1223 C1219 1.429 . S
C1223 C1224 1.523 . S
C1224 C1208 1.368 . S
C1224 C1220 1.368 . S
C1224 C1223 1.523 . S
H1225 C1200 0.950 . S
H1226 C1202 0.950 . S
H1227 C1203 0.949 . S
H1228 C1205 0.950 . S
H1229 C1207 0.950 . S
C1230 C1231 1.349 . S
C1230 C1232 1.327 1_556 S
C1230 H1255 0.950 . S
C1231 C1230 1.349 . S
C1231 C1247 1.349 . S
C1232 C1230 1.327 1_554 S
C1232 C1251 1.429 . S
C1232 H1256 0.950 . S
C1233 C1250 1.574 . S
C1233 C1252 1.368 . S
C1233 H1257 0.949 . S
H1234 C1238 0.949 . S
C1235 C1236 1.349 . S
C1235 C1237 1.327 . S
C1235 H1258 0.950 . S
C1236 C1235 1.349 . S
C1236 C1248 1.349 . S
C1237 C1235 1.327 . S
C1237 C1253 1.429 . S
C1237 H1259 0.950 . S
C1238 H1234 0.949 . S
C1238 C1246 1.574 . S
C1238 C1254 1.368 . S
H1239 C1247 0.950 . S
H1240 C1245 0.950 . S
H1241 C1246 0.949 . S
H1242 C1248 0.950 . S
H1243 C1249 0.950 . S
H1244 C1250 0.949 . S
C1245 H1240 0.950 . S
C1245 C1247 1.327 1_554 S
C1245 C1251 1.429 . S
C1246 C1238 1.574 . S
C1246 H1241 0.949 . S
C1246 C1252 1.368 . S
C1247 C1231 1.349 . S
C1247 H1239 0.950 . S
C1247 C1245 1.327 1_556 S
C1248 C1236 1.349 . S
C1248 H1242 0.950 . S
C1248 C1249 1.327 . S
C1249 H1243 0.950 . S
C1249 C1248 1.327 . S
C1249 C1253 1.429 . S
C1250 C1233 1.574 . S
C1250 H1244 0.949 . S
C1250 C1254 1.368 . S
C1251 C1232 1.429 . S
C1251 C1245 1.429 . S
C1251 C1252 1.523 . S
C1252 C1233 1.368 . S
C1252 C1246 1.368 . S
C1252 C1251 1.523 . S
C1253 C1237 1.429 . S
C1253 C1249 1.429 . S
C1253 C1254 1.523 . S
C1254 C1238 1.368 . S
C1254 C1250 1.368 . S
C1254 C1253 1.523 . S
H1255 C1230 0.950 . S
H1256 C1232 0.950 . S
H1257 C1233 0.949 . S
H1258 C1235 0.950 . S
H1259 C1237 0.950 . S
C1260 C1261 1.349 . S
C1260 C1262 1.327 . S
C1260 H1285 0.950 . S
C1261 C1260 1.349 . S
C1261 C1277 1.349 . S
C1262 C1260 1.327 . S
C1262 C1281 1.429 . S
C1262 H1286 0.950 . S
C1263 C1280 1.574 . S
C1263 C1282 1.368 . S
C1263 H1287 0.949 . S
H1264 C1268 0.949 . S
C1265 C1266 1.349 . S
C1265 C1267 1.327 . S
C1265 H1288 0.950 . S
C1266 C1265 1.349 . S
C1266 C1278 1.349 . S
C1267 C1265 1.327 . S
C1267 C1283 1.429 1_554 S
C1267 H1289 0.940 1_554 S
C1268 H1264 0.949 . S
C1268 C1276 1.574 . S
C1268 C1284 1.368 . S
H1269 C1277 0.950 . S
H1270 C1275 0.950 . S
H1271 C1276 0.949 . S
H1272 C1278 0.950 . S
H1273 C1279 0.950 . S
H1274 C1280 0.949 . S
C1275 H1270 0.950 . S
C1275 C1277 1.327 . S
C1275 C1281 1.429 . S
C1276 C1268 1.574 . S
C1276 H1271 0.949 . S
C1276 C1282 1.368 . S
C1277 C1261 1.349 . S
C1277 H1269 0.950 . S
C1277 C1275 1.327 . S
C1278 C1266 1.349 . S
C1278 H1272 0.950 . S
C1278 C1279 1.327 1_554 S
C1279 H1273 0.950 . S
C1279 C1278 1.327 1_556 S
C1279 C1283 1.429 . S
C1280 C1263 1.574 . S
C1280 H1274 0.949 . S
C1280 C1284 1.368 . S
C1281 C1262 1.429 . S
C1281 C1275 1.429 . S
C1281 C1282 1.523 . S
C1282 C1263 1.368 . S
C1282 C1276 1.368 . S
C1282 C1281 1.523 . S
C1283 C1267 1.429 1_556 S
C1283 C1279 1.429 . S
C1283 C1284 1.523 . S
C1284 C1268 1.368 . S
C1284 C1280 1.368 . S
C1284 C1283 1.523 . S
H1285 C1260 0.950 . S
H1286 C1262 0.950 . S
H1287 C1263 0.949 . S
H1288 C1265 0.950 . S
H1289 C1267 0.940 1_556 S
C1290 C1291 1.349 . S
C1290 C1292 1.327 . S
C1290 H1315 0.950 . S
C1291 C1290 1.349 . S
C1291 C1307 1.349 . S
C1292 C1290 1.327 . S
C1292 C1311 1.429 . S
C1292 H1316 0.950 . S
C1293 C1310 1.574 . S
C1293 C1312 1.368 . S
C1293 H1317 0.949 . S
H1294 C1298 0.949 . S
C1295 C1296 1.349 . S
C1295 C1297 1.327 . S
C1295 H1318 0.950 . S
C1296 C1295 1.349 . S
C1296 C1308 1.349 . S
C1297 C1295 1.327 . S
C1297 C1313 1.429 1_554 S
C1297 H1319 0.950 . S
C1298 H1294 0.949 . S
C1298 C1306 1.574 . S
C1298 C1314 1.368 . S
H1299 C1307 0.950 . S
H1300 C1305 0.950 . S
H1301 C1306 0.949 . S
H1302 C1308 0.950 . S
H1303 C1309 0.950 . S
H1304 C1310 0.949 . S
C1305 H1300 0.950 . S
C1305 C1307 1.327 . S
C1305 C1311 1.429 . S
C1306 C1298 1.574 . S
C1306 H1301 0.949 . S
C1306 C1312 1.368 . S
C1307 C1291 1.349 . S
C1307 H1299 0.950 . S
C1307 C1305 1.327 . S
C1308 C1296 1.349 . S
C1308 H1302 0.950 . S
C1308 C1309 1.327 1_554 S
C1309 H1303 0.950 . S
C1309 C1308 1.327 1_556 S
C1309 C1313 1.429 . S
C1310 C1293 1.574 . S
C1310 H1304 0.949 . S
C1310 C1314 1.368 . S
C1311 C1292 1.429 . S
C1311 C1305 1.429 . S
C1311 C1312 1.523 . S
C1312 C1293 1.368 . S
C1312 C1306 1.368 . S
C1312 C1311 1.523 . S
C1313 C1297 1.429 1_556 S
C1313 C1309 1.429 . S
C1313 C1314 1.523 . S
C1314 C1298 1.368 . S
C1314 C1310 1.368 . S
C1314 C1313 1.523 . S
H1315 C1290 0.950 . S
H1316 C1292 0.950 . S
H1317 C1293 0.949 . S
H1318 C1295 0.950 . S
H1319 C1297 0.950 . S
C1320 C1321 1.349 . S
C1320 C1322 1.327 . S
C1320 H1345 0.950 . S
C1321 C1320 1.349 . S
C1321 C1337 1.349 . S
C1322 C1320 1.327 . S
C1322 C1341 1.429 . S
C1322 H1346 0.950 . S
C1323 C1340 1.574 . S
C1323 C1342 1.368 . S
C1323 H1347 0.949 . S
H1324 C1328 0.949 . S
C1325 C1326 1.349 . S
C1325 C1327 1.327 1_554 S
C1325 H1348 0.950 . S
C1326 C1325 1.349 . S
C1326 C1338 1.349 . S
C1327 C1325 1.327 1_556 S
C1327 C1343 1.429 . S
C1327 H1349 0.950 . S
C1328 H1324 0.949 . S
C1328 C1336 1.574 . S
C1328 C1344 1.368 . S
H1329 C1337 0.950 . S
H1330 C1335 0.950 . S
H1331 C1336 0.949 . S
H1332 C1338 0.950 . S
H1333 C1339 0.950 1_556 S
H1334 C1340 0.949 . S
C1335 H1330 0.950 . S
C1335 C1337 1.327 . S
C1335 C1341 1.429 . S
C1336 C1328 1.574 . S
C1336 H1331 0.949 . S
C1336 C1342 1.368 . S
C1337 C1321 1.349 . S
C1337 H1329 0.950 . S
C1337 C1335 1.327 . S
C1338 C1326 1.349 . S
C1338 H1332 0.950 . S
C1338 C1339 1.327 . S
C1339 H1333 0.950 1_554 S
C1339 C1338 1.327 . S
C1339 C1343 1.429 1_554 S
C1340 C1323 1.574 . S
C1340 H1334 0.949 . S
C1340 C1344 1.368 . S
C1341 C1322 1.429 . S
C1341 C1335 1.429 . S
C1341 C1342 1.523 . S
C1342 C1323 1.368 . S
C1342 C1336 1.368 . S
C1342 C1341 1.523 . S
C1343 C1327 1.429 . S
C1343 C1339 1.429 1_556 S
C1343 C1344 1.523 . S
C1344 C1328 1.368 . S
C1344 C1340 1.368 . S
C1344 C1343 1.523 . S
H1345 C1320 0.950 . S
H1346 C1322 0.950 . S
H1347 C1323 0.949 . S
H1348 C1325 0.950 . S
H1349 C1327 0.950 . S
C1350 C1351 1.349 . S
C1350 C1352 1.327 . S
C1350 H1375 0.950 . S
C1351 C1350 1.349 . S
C1351 C1367 1.349 . S
C1352 C1350 1.327 . S
C1352 C1371 1.429 . S
C1352 H1376 0.950 . S
C1353 C1370 1.574 . S
C1353 C1372 1.368 . S
C1353 H1377 0.949 . S
H1354 C1358 0.949 . S
C1355 C1356 1.349 . S
C1355 C1357 1.327 . S
C1355 H1378 0.950 . S
C1356 C1355 1.349 . S
C1356 C1368 1.349 . S
C1357 C1355 1.327 . S
C1357 C1373 1.429 . S
C1357 H1379 0.950 . S
C1358 H1354 0.949 . S
C1358 C1366 1.574 . S
C1358 C1374 1.368 . S
H1359 C1367 0.950 . S
H1360 C1365 0.950 . S
H1361 C1366 0.949 . S
H1362 C1368 0.950 . S
H1363 C1369 0.950 . S
H1364 C1370 0.949 . S
C1365 H1360 0.950 . S
C1365 C1367 1.327 . S
C1365 C1371 1.429 . S
C1366 C1358 1.574 . S
C1366 H1361 0.949 . S
C1366 C1372 1.368 . S
C1367 C1351 1.349 . S
C1367 H1359 0.950 . S
C1367 C1365 1.327 . S
C1368 C1356 1.349 . S
C1368 H1362 0.950 . S
C1368 C1369 1.327 . S
C1369 H1363 0.950 . S
C1369 C1368 1.327 . S
C1369 C1373 1.429 . S
C1370 C1353 1.574 . S
C1370 H1364 0.949 . S
C1370 C1374 1.368 . S
C1371 C1352 1.429 . S
C1371 C1365 1.429 . S
C1371 C1372 1.523 . S
C1372 C1353 1.368 . S
C1372 C1366 1.368 . S
C1372 C1371 1.523 . S
C1373 C1357 1.429 . S
C1373 C1369 1.429 . S
C1373 C1374 1.523 . S
C1374 C1358 1.368 . S
C1374 C1370 1.368 . S
C1374 C1373 1.523 . S
H1375 C1350 0.950 . S
H1376 C1352 0.950 . S
H1377 C1353 0.949 . S
H1378 C1355 0.950 . S
H1379 C1357 0.950 . S
C1380 C1381 1.349 . S
C1380 C1382 1.327 . S
C1380 H1405 0.950 . S
C1381 C1380 1.349 . S
C1381 C1397 1.349 . S
C1382 C1380 1.327 . S
C1382 C1401 1.429 . S
C1382 H1406 0.950 . S
C1383 C1400 1.574 . S
C1383 C1402 1.368 . S
C1383 H1407 0.949 . S
H1384 C1388 0.949 . S
C1385 C1386 1.349 . S
C1385 C1387 1.327 . S
C1385 H1408 0.950 . S
C1386 C1385 1.349 . S
C1386 C1398 1.349 . S
C1387 C1385 1.327 . S
C1387 C1403 1.429 . S
C1387 H1409 0.950 . S
C1388 H1384 0.949 . S
C1388 C1396 1.574 . S
C1388 C1404 1.368 . S
H1389 C1397 0.950 . S
H1390 C1395 0.950 . S
H1391 C1396 0.949 . S
H1392 C1398 0.950 . S
H1393 C1399 0.950 . S
H1394 C1400 0.949 . S
C1395 H1390 0.950 . S
C1395 C1397 1.327 . S
C1395 C1401 1.429 . S
C1396 C1388 1.574 . S
C1396 H1391 0.949 . S
C1396 C1402 1.368 . S
C1397 C1381 1.349 . S
C1397 H1389 0.950 . S
C1397 C1395 1.327 . S
C1398 C1386 1.349 . S
C1398 H1392 0.950 . S
C1398 C1399 1.327 . S
C1399 H1393 0.950 . S
C1399 C1398 1.327 . S
C1399 C1403 1.429 . S
C1400 C1383 1.574 . S
C1400 H1394 0.949 . S
C1400 C1404 1.368 . S
C1401 C1382 1.429 . S
C1401 C1395 1.429 . S
C1401 C1402 1.523 . S
C1402 C1383 1.368 . S
C1402 C1396 1.368 . S
C1402 C1401 1.523 . S
C1403 C1387 1.429 . S
C1403 C1399 1.429 . S
C1403 C1404 1.523 . S
C1404 C1388 1.368 . S
C1404 C1400 1.368 . S
C1404 C1403 1.523 . S
H1405 C1380 0.950 . S
H1406 C1382 0.950 . S
H1407 C1383 0.949 . S
H1408 C1385 0.950 . S
H1409 C1387 0.950 . S
C1410 C1411 1.349 . S
C1410 C1412 1.327 . S
C1410 H1435 0.950 . S
C1411 C1410 1.349 . S
C1411 C1427 1.349 . S
C1412 C1410 1.327 . S
C1412 C1431 1.429 . S
C1412 H1436 0.950 . S
C1413 C1430 1.574 . S
C1413 C1432 1.368 . S
C1413 H1437 0.949 . S
H1414 C1418 0.949 . S
C1415 C1416 1.349 . S
C1415 C1417 1.327 . S
C1415 H1438 0.950 . S
C1416 C1415 1.349 . S
C1416 C1428 1.349 . S
C1417 C1415 1.327 . S
C1417 C1433 1.429 . S
C1417 H1439 0.950 . S
C1418 H1414 0.949 . S
C1418 C1426 1.574 . S
C1418 C1434 1.368 . S
H1419 C1427 0.950 . S
H1420 C1425 0.950 . S
H1421 C1426 0.949 . S
H1422 C1428 0.950 . S
H1423 C1429 0.950 . S
H1424 C1430 0.949 . S
C1425 H1420 0.950 . S
C1425 C1427 1.327 . S
C1425 C1431 1.429 . S
C1426 C1418 1.574 . S
C1426 H1421 0.949 . S
C1426 C1432 1.368 . S
C1427 C1411 1.349 . S
C1427 H1419 0.950 . S
C1427 C1425 1.327 . S
C1428 C1416 1.349 . S
C1428 H1422 0.950 . S
C1428 C1429 1.327 . S
C1429 H1423 0.950 . S
C1429 C1428 1.327 . S
C1429 C1433 1.429 . S
C1430 C1413 1.574 . S
C1430 H1424 0.949 . S
C1430 C1434 1.368 . S
C1431 C1412 1.429 . S
C1431 C1425 1.429 . S
C1431 C1432 1.523 . S
C1432 C1413 1.368 . S
C1432 C1426 1.368 . S
C1432 C1431 1.523 . S
C1433 C1417 1.429 . S
C1433 C1429 1.429 . S
C1433 C1434 1.523 . S
C1434 C1418 1.368 . S
C1434 C1430 1.368 . S
C1434 C1433 1.523 . S
H1435 C1410 0.950 . S
H1436 C1412 0.950 . S
H1437 C1413 0.949 . S
H1438 C1415 0.950 . S
H1439 C1417 0.950 . S
C1440 C1441 1.349 . S
C1440 C1442 1.327 . S
C1440 H1465 0.950 . S
C1441 C1440 1.349 . S
C1441 C1457 1.349 . S
C1442 C1440 1.327 . S
C1442 C1461 1.429 . S
C1442 H1466 0.950 . S
C1443 C1460 1.574 . S
C1443 C1462 1.368 . S
C1443 H1467 0.949 . S
H1444 C1448 0.949 . S
C1445 C1446 1.349 . S
C1445 C1447 1.327 . S
C1445 H1468 0.950 1_556 S
C1446 C1445 1.349 . S
C1446 C1458 1.349 . S
C1447 C1445 1.327 . S
C1447 C1463 1.429 . S
C1447 H1469 0.950 . S
C1448 H1444 0.949 . S
C1448 C1456 1.574 1_545 S
C1448 C1464 1.368 . S
H1449 C1457 0.950 . S
H1450 C1455 0.950 . S
H1451 C1456 0.949 . S
H1452 C1458 0.950 . S
H1453 C1459 0.950 . S
H1454 C1460 0.949 . S
C1455 H1450 0.950 . S
C1455 C1457 1.327 . S
C1455 C1461 1.429 . S
C1456 C1448 1.574 1_565 S
C1456 H1451 0.949 . S
C1456 C1462 1.368 . S
C1457 C1441 1.349 . S
C1457 H1449 0.950 . S
C1457 C1455 1.327 . S
C1458 C1446 1.349 . S
C1458 H1452 0.950 . S
C1458 C1459 1.327 . S
C1459 H1453 0.950 . S
C1459 C1458 1.327 . S
C1459 C1463 1.429 . S
C1460 C1443 1.574 . S
C1460 H1454 0.949 . S
C1460 C1464 1.368 1_565 S
C1461 C1442 1.429 . S
C1461 C1455 1.429 . S
C1461 C1462 1.523 . S
C1462 C1443 1.368 . S
C1462 C1456 1.368 . S
C1462 C1461 1.523 . S
C1463 C1447 1.429 . S
C1463 C1459 1.429 . S
C1463 C1464 1.523 . S
C1464 C1448 1.368 . S
C1464 C1460 1.368 1_545 S
C1464 C1463 1.523 . S
H1465 C1440 0.950 . S
H1466 C1442 0.950 . S
H1467 C1443 0.949 . S
H1468 C1445 0.950 1_554 S
H1469 C1447 0.950 . S
C1470 C1471 1.349 . S
C1470 C1472 1.327 . S
C1470 H1495 0.950 . S
C1471 C1470 1.349 . S
C1471 C1487 1.349 . S
C1472 C1470 1.327 . S
C1472 C1491 1.429 . S
C1472 H1496 0.950 . S
C1473 C1490 1.574 1_655 S
C1473 C1492 1.368 . S
C1473 H1497 0.949 . S
H1474 C1478 0.949 . S
C1475 C1476 1.349 . S
C1475 C1477 1.327 . S
C1475 H1498 0.950 . S
C1476 C1475 1.349 . S
C1476 C1488 1.349 . S
C1477 C1475 1.327 . S
C1477 C1493 1.429 . S
C1477 H1499 0.950 . S
C1478 H1474 0.949 . S
C1478 C1486 1.574 . S
C1478 C1494 1.368 . S
H1479 C1487 0.950 . S
H1480 C1485 0.950 . S
H1481 C1486 0.949 . S
H1482 C1488 0.950 . S
H1483 C1489 0.950 . S
H1484 C1490 0.949 . S
C1485 H1480 0.950 . S
C1485 C1487 1.327 . S
C1485 C1491 1.429 . S
C1486 C1478 1.574 . S
C1486 H1481 0.949 . S
C1486 C1492 1.368 1_455 S
C1487 C1471 1.349 . S
C1487 H1479 0.950 . S
C1487 C1485 1.327 . S
C1488 C1476 1.349 . S
C1488 H1482 0.950 . S
C1488 C1489 1.327 . S
C1489 H1483 0.950 . S
C1489 C1488 1.327 . S
C1489 C1493 1.429 . S
C1490 C1473 1.574 1_455 S
C1490 H1484 0.949 . S
C1490 C1494 1.368 . S
C1491 C1472 1.429 . S
C1491 C1485 1.429 . S
C1491 C1492 1.523 . S
C1492 C1473 1.368 . S
C1492 C1486 1.368 1_655 S
C1492 C1491 1.523 . S
C1493 C1477 1.429 . S
C1493 C1489 1.429 . S
C1493 C1494 1.523 . S
C1494 C1478 1.368 . S
C1494 C1490 1.368 . S
C1494 C1493 1.523 . S
H1495 C1470 0.950 . S
H1496 C1472 0.950 . S
H1497 C1473 0.949 . S
H1498 C1475 0.950 . S
H1499 C1477 0.950 . S
C1500 C1501 1.349 . S
C1500 C1502 1.327 . S
C1500 H1525 0.950 . S
C1501 C1500 1.349 . S
C1501 C1517 1.349 . S
C1502 C1500 1.327 . S
C1502 C1521 1.429 . S
C1502 H1526 0.950 . S
C1503 C1520 1.574 . S
C1503 C1522 1.368 . S
C1503 H1527 0.949 . S
H1504 C1508 0.949 . S
C1505 C1506 1.349 . S
C1505 C1507 1.327 . S
C1505 H1528 0.950 . S
C1506 C1505 1.349 . S
C1506 C1518 1.349 . S
C1507 C1505 1.327 . S
C1507 C1523 1.429 . S
C1507 H1529 0.950 . S
C1508 H1504 0.949 . S
C1508 C1516 1.574 . S
C1508 C1524 1.368 . S
H1509 C1517 0.950 . S
H1510 C1515 0.950 . S
H1511 C1516 0.949 . S
H1512 C1518 0.950 1_554 S
H1513 C1519 0.950 . S
H1514 C1520 0.949 . S
C1515 H1510 0.950 . S
C1515 C1517 1.327 . S
C1515 C1521 1.429 . S
C1516 C1508 1.574 . S
C1516 H1511 0.949 . S
C1516 C1522 1.368 . S
C1517 C1501 1.349 . S
C1517 H1509 0.950 . S
C1517 C1515 1.327 . S
C1518 C1506 1.349 . S
C1518 H1512 0.950 1_556 S
C1518 C1519 1.327 . S
C1519 H1513 0.950 . S
C1519 C1518 1.327 . S
C1519 C1523 1.429 . S
C1520 C1503 1.574 . S
C1520 H1514 0.949 . S
C1520 C1524 1.368 . S
C1521 C1502 1.429 . S
C1521 C1515 1.429 . S
C1521 C1522 1.523 . S
C1522 C1503 1.368 . S
C1522 C1516 1.368 . S
C1522 C1521 1.523 . S
C1523 C1507 1.429 . S
C1523 C1519 1.429 . S
C1523 C1524 1.523 . S
C1524 C1508 1.368 . S
C1524 C1520 1.368 . S
C1524 C1523 1.523 . S
H1525 C1500 0.950 . S
H1526 C1502 0.950 . S
H1527 C1503 0.949 . S
H1528 C1505 0.950 . S
H1529 C1507 0.950 . S
C1530 C1531 1.349 . S
C1530 C1532 1.327 . S
C1530 H1555 0.950 . S
C1531 C1530 1.349 . S
C1531 C1547 1.349 . S
C1532 C1530 1.327 . S
C1532 C1551 1.429 . S
C1532 H1556 0.950 . S
C1533 C1550 1.574 . S
C1533 C1552 1.368 1_455 S
C1533 H1557 0.949 1_455 S
H1534 C1538 0.949 . S
C1535 C1536 1.349 . S
C1535 C1537 1.327 . S
C1535 H1558 0.950 . S
C1536 C1535 1.349 . S
C1536 C1548 1.349 . S
C1537 C1535 1.327 . S
C1537 C1553 1.429 . S
C1537 H1559 0.950 . S
C1538 H1534 0.949 . S
C1538 C1546 1.574 . S
C1538 C1554 1.368 . S
H1539 C1547 0.950 . S
H1540 C1545 0.950 . S
H1541 C1546 0.949 1_655 S
H1542 C1548 0.950 . S
H1543 C1549 0.950 . S
H1544 C1550 0.949 . S
C1545 H1540 0.950 . S
C1545 C1547 1.327 . S
C1545 C1551 1.429 . S
C1546 C1538 1.574 . S
C1546 H1541 0.949 1_455 S
C1546 C1552 1.368 1_455 S
C1547 C1531 1.349 . S
C1547 H1539 0.950 . S
C1547 C1545 1.327 . S
C1548 C1536 1.349 . S
C1548 H1542 0.950 . S
C1548 C1549 1.327 . S
C1549 H1543 0.950 . S
C1549 C1548 1.327 . S
C1549 C1553 1.429 . S
C1550 C1533 1.574 . S
C1550 H1544 0.949 . S
C1550 C1554 1.368 . S
C1551 C1532 1.429 . S
C1551 C1545 1.429 . S
C1551 C1552 1.523 . S
C1552 C1533 1.368 1_655 S
C1552 C1546 1.368 1_655 S
C1552 C1551 1.523 . S
C1553 C1537 1.429 . S
C1553 C1549 1.429 . S
C1553 C1554 1.523 . S
C1554 C1538 1.368 . S
C1554 C1550 1.368 . S
C1554 C1553 1.523 . S
H1555 C1530 0.950 . S
H1556 C1532 0.950 . S
H1557 C1533 0.949 1_655 S
H1558 C1535 0.950 . S
H1559 C1537 0.950 . S
C1560 C1561 1.349 . S
C1560 C1562 1.327 . S
C1560 H1585 0.950 . S
C1561 C1560 1.349 . S
C1561 C1577 1.349 . S
C1562 C1560 1.327 . S
C1562 C1581 1.429 . S
C1562 H1586 0.950 . S
C1563 C1580 1.574 . S
C1563 C1582 1.368 . S
C1563 H1587 0.949 . S
H1564 C1568 0.949 . S
C1565 C1566 1.349 . S
C1565 C1567 1.327 . S
C1565 H1588 0.950 . S
C1566 C1565 1.349 . S
C1566 C1578 1.349 . S
C1567 C1565 1.327 . S
C1567 C1583 1.429 . S
C1567 H1589 0.950 . S
C1568 H1564 0.949 . S
C1568 C1576 1.574 . S
C1568 C1584 1.368 . S
H1569 C1577 0.950 . S
H1570 C1575 0.950 . S
H1571 C1576 0.949 . S
H1572 C1578 0.950 . S
H1573 C1579 0.950 . S
H1574 C1580 0.949 . S
C1575 H1570 0.950 . S
C1575 C1577 1.327 . S
C1575 C1581 1.429 . S
C1576 C1568 1.574 . S
C1576 H1571 0.949 . S
C1576 C1582 1.368 . S
C1577 C1561 1.349 . S
C1577 H1569 0.950 . S
C1577 C1575 1.327 . S
C1578 C1566 1.349 . S
C1578 H1572 0.950 . S
C1578 C1579 1.327 . S
C1579 H1573 0.950 . S
C1579 C1578 1.327 . S
C1579 C1583 1.429 . S
C1580 C1563 1.574 . S
C1580 H1574 0.949 . S
C1580 C1584 1.368 . S
C1581 C1562 1.429 . S
C1581 C1575 1.429 . S
C1581 C1582 1.523 . S
C1582 C1563 1.368 . S
C1582 C1576 1.368 . S
C1582 C1581 1.523 . S
C1583 C1567 1.429 . S
C1583 C1579 1.429 . S
C1583 C1584 1.523 . S
C1584 C1568 1.368 . S
C1584 C1580 1.368 . S
C1584 C1583 1.523 . S
H1585 C1560 0.950 . S
H1586 C1562 0.950 . S
H1587 C1563 0.949 . S
H1588 C1565 0.950 . S
H1589 C1567 0.950 . S
C1590 C1591 1.349 . S
C1590 C1592 1.327 . S
C1590 H1615 0.950 . S
C1591 C1590 1.349 . S
C1591 C1607 1.349 . S
C1592 C1590 1.327 . S
C1592 C1611 1.429 . S
C1592 H1616 0.950 . S
C1593 C1610 1.574 . S
C1593 C1612 1.368 . S
C1593 H1617 0.949 . S
H1594 C1598 0.949 . S
C1595 C1596 1.349 . S
C1595 C1597 1.327 . S
C1595 H1618 0.950 . S
C1596 C1595 1.349 . S
C1596 C1608 1.349 . S
C1597 C1595 1.327 . S
C1597 C1613 1.429 . S
C1597 H1619 0.950 . S
C1598 H1594 0.949 . S
C1598 C1606 1.574 1_545 S
C1598 C1614 1.368 . S
H1599 C1607 0.950 . S
H1600 C1605 0.950 . S
H1601 C1606 0.949 . S
H1602 C1608 0.950 . S
H1603 C1609 0.950 . S
H1604 C1610 0.949 . S
C1605 H1600 0.950 . S
C1605 C1607 1.327 . S
C1605 C1611 1.429 . S
C1606 C1598 1.574 1_565 S
C1606 H1601 0.949 . S
C1606 C1612 1.368 . S
C1607 C1591 1.349 . S
C1607 H1599 0.950 . S
C1607 C1605 1.327 . S
C1608 C1596 1.349 . S
C1608 H1602 0.950 . S
C1608 C1609 1.327 . S
C1609 H1603 0.950 . S
C1609 C1608 1.327 . S
C1609 C1613 1.429 . S
C1610 C1593 1.574 . S
C1610 H1604 0.949 . S
C1610 C1614 1.368 1_565 S
C1611 C1592 1.429 . S
C1611 C1605 1.429 . S
C1611 C1612 1.523 . S
C1612 C1593 1.368 . S
C1612 C1606 1.368 . S
C1612 C1611 1.523 . S
C1613 C1597 1.429 . S
C1613 C1609 1.429 . S
C1613 C1614 1.523 . S
C1614 C1598 1.368 . S
C1614 C1610 1.368 1_545 S
C1614 C1613 1.523 . S
H1615 C1590 0.950 . S
H1616 C1592 0.950 . S
H1617 C1593 0.949 . S
H1618 C1595 0.950 . S
H1619 C1597 0.950 . S
C1620 C1621 1.349 . S
C1620 C1622 1.327 . S
C1620 H1645 0.950 . S
C1621 C1620 1.349 . S
C1621 C1637 1.349 . S
C1622 C1620 1.327 . S
C1622 C1641 1.429 . S
C1622 H1646 0.950 . S
C1623 C1640 1.574 . S
C1623 C1642 1.368 . S
C1623 H1647 0.949 . S
H1624 C1628 0.949 . S
C1625 C1626 1.349 1_455 S
C1625 C1627 1.327 . S
C1625 H1648 0.950 1_455 S
C1626 C1625 1.349 1_655 S
C1626 C1638 1.349 1_655 S
C1627 C1625 1.327 . S
C1627 C1643 1.429 . S
C1627 H1649 0.950 . S
C1628 H1624 0.949 . S
C1628 C1636 1.574 . S
C1628 C1644 1.368 . S
H1629 C1637 0.950 . S
H1630 C1635 0.950 . S
H1631 C1636 0.949 . S
H1632 C1638 0.950 . S
H1633 C1639 0.950 . S
H1634 C1640 0.949 . S
C1635 H1630 0.950 . S
C1635 C1637 1.327 . S
C1635 C1641 1.429 . S
C1636 C1628 1.574 . S
C1636 H1631 0.949 . S
C1636 C1642 1.368 . S
C1637 C1621 1.349 . S
C1637 H1629 0.950 . S
C1637 C1635 1.327 . S
C1638 C1626 1.349 1_455 S
C1638 H1632 0.950 . S
C1638 C1639 1.327 . S
C1639 H1633 0.950 . S
C1639 C1638 1.327 . S
C1639 C1643 1.429 . S
C1640 C1623 1.574 . S
C1640 H1634 0.949 . S
C1640 C1644 1.368 . S
C1641 C1622 1.429 . S
C1641 C1635 1.429 . S
C1641 C1642 1.523 . S
C1642 C1623 1.368 . S
C1642 C1636 1.368 . S
C1642 C1641 1.523 . S
C1643 C1627 1.429 . S
C1643 C1639 1.429 . S
C1643 C1644 1.523 . S
C1644 C1628 1.368 . S
C1644 C1640 1.368 . S
C1644 C1643 1.523 . S
H1645 C1620 0.950 . S
H1646 C1622 0.950 . S
H1647 C1623 0.949 . S
H1648 C1625 0.950 1_655 S
H1649 C1627 0.950 . S
C1650 C1651 1.349 . S
C1650 C1652 1.327 . S
C1650 H1675 0.950 . S
C1651 C1650 1.349 . S
C1651 C1667 1.349 . S
C1652 C1650 1.327 . S
C1652 C1671 1.429 . S
C1652 H1676 0.950 . S
C1653 C1670 1.574 . S
C1653 C1672 1.368 . S
C1653 H1677 0.949 . S
H1654 C1658 0.949 . S
C1655 C1656 1.349 . S
C1655 C1657 1.327 . S
C1655 H1678 0.950 . S
C1656 C1655 1.349 . S
C1656 C1668 1.349 . S
C1657 C1655 1.327 . S
C1657 C1673 1.429 . S
C1657 H1679 0.950 . S
C1658 H1654 0.949 . S
C1658 C1666 1.574 . S
C1658 C1674 1.368 . S
H1659 C1667 0.950 . S
H1660 C1665 0.950 . S
H1661 C1666 0.949 . S
H1662 C1668 0.950 . S
H1663 C1669 0.950 . S
H1664 C1670 0.949 . S
C1665 H1660 0.950 . S
C1665 C1667 1.327 . S
C1665 C1671 1.429 . S
C1666 C1658 1.574 . S
C1666 H1661 0.949 . S
C1666 C1672 1.368 . S
C1667 C1651 1.349 . S
C1667 H1659 0.950 . S
C1667 C1665 1.327 . S
C1668 C1656 1.349 . S
C1668 H1662 0.950 . S
C1668 C1669 1.327 . S
C1669 H1663 0.950 . S
C1669 C1668 1.327 . S
C1669 C1673 1.429 . S
C1670 C1653 1.574 . S
C1670 H1664 0.949 . S
C1670 C1674 1.368 . S
C1671 C1652 1.429 . S
C1671 C1665 1.429 . S
C1671 C1672 1.523 . S
C1672 C1653 1.368 . S
C1672 C1666 1.368 . S
C1672 C1671 1.523 . S
C1673 C1657 1.429 . S
C1673 C1669 1.429 . S
C1673 C1674 1.523 . S
C1674 C1658 1.368 . S
C1674 C1670 1.368 . S
C1674 C1673 1.523 . S
H1675 C1650 0.950 . S
H1676 C1652 0.950 . S
H1677 C1653 0.949 . S
H1678 C1655 0.950 . S
H1679 C1657 0.950 . S
C1680 C1681 1.349 . S
C1680 C1682 1.327 . S
C1680 H1705 0.950 . S
C1681 C1680 1.349 . S
C1681 C1697 1.349 . S
C1682 C1680 1.327 . S
C1682 C1701 1.429 . S
C1682 H1706 0.950 . S
C1683 C1700 1.574 . S
C1683 C1702 1.368 . S
C1683 H1707 0.949 . S
H1684 C1688 0.949 . S
C1685 C1686 1.349 1_565 S
C1685 C1687 1.327 . S
C1685 H1708 0.950 . S
C1686 C1685 1.349 1_545 S
C1686 C1698 1.349 . S
C1687 C1685 1.327 . S
C1687 C1703 1.429 . S
C1687 H1709 0.950 . S
C1688 H1684 0.949 . S
C1688 C1696 1.574 . S
C1688 C1704 1.368 . S
H1689 C1697 0.950 . S
H1690 C1695 0.950 . S
H1691 C1696 0.949 . S
H1692 C1698 0.950 . S
H1693 C1699 0.950 . S
H1694 C1700 0.949 . S
C1695 H1690 0.950 . S
C1695 C1697 1.327 . S
C1695 C1701 1.429 . S
C1696 C1688 1.574 . S
C1696 H1691 0.949 . S
C1696 C1702 1.368 . S
C1697 C1681 1.349 . S
C1697 H1689 0.950 . S
C1697 C1695 1.327 . S
C1698 C1686 1.349 . S
C1698 H1692 0.950 . S
C1698 C1699 1.327 1_545 S
C1699 H1693 0.950 . S
C1699 C1698 1.327 1_565 S
C1699 C1703 1.429 . S
C1700 C1683 1.574 . S
C1700 H1694 0.949 . S
C1700 C1704 1.368 . S
C1701 C1682 1.429 . S
C1701 C1695 1.429 . S
C1701 C1702 1.523 . S
C1702 C1683 1.368 . S
C1702 C1696 1.368 . S
C1702 C1701 1.523 . S
C1703 C1687 1.429 . S
C1703 C1699 1.429 . S
C1703 C1704 1.523 . S
C1704 C1688 1.368 . S
C1704 C1700 1.368 . S
C1704 C1703 1.523 . S
H1705 C1680 0.950 . S
H1706 C1682 0.950 . S
H1707 C1683 0.949 . S
H1708 C1685 0.950 . S
H1709 C1687 0.950 . S
C1710 C1711 1.349 . S
C1710 C1712 1.327 1_545 S
C1710 H1735 0.950 . S
C1711 C1710 1.349 . S
C1711 C1727 1.349 1_545 S
C1712 C1710 1.327 1_565 S
C1712 C1731 1.429 . S
C1712 H1736 0.950 . S
C1713 C1730 1.574 . S
C1713 C1732 1.368 . S
C1713 H1737 0.949 . S
H1714 C1718 0.949 . S
C1715 C1716 1.349 . S
C1715 C1717 1.327 . S
C1715 H1738 0.950 . S
C1716 C1715 1.349 . S
C1716 C1728 1.349 . S
C1717 C1715 1.327 . S
C1717 C1733 1.429 . S
C1717 H1739 0.950 . S
C1718 H1714 0.949 . S
C1718 C1726 1.574 . S
C1718 C1734 1.368 . S
H1719 C1727 0.950 . S
H1720 C1725 0.950 . S
H1721 C1726 0.949 . S
H1722 C1728 0.950 . S
H1723 C1729 0.950 . S
H1724 C1730 0.949 . S
C1725 H1720 0.950 . S
C1725 C1727 1.327 . S
C1725 C1731 1.429 . S
C1726 C1718 1.574 . S
C1726 H1721 0.949 . S
C1726 C1732 1.368 . S
C1727 C1711 1.349 1_565 S
C1727 H1719 0.950 . S
C1727 C1725 1.327 . S
C1728 C1716 1.349 . S
C1728 H1722 0.950 . S
C1728 C1729 1.327 . S
C1729 H1723 0.950 . S
C1729 C1728 1.327 . S
C1729 C1733 1.429 . S
C1730 C1713 1.574 . S
C1730 H1724 0.949 . S
C1730 C1734 1.368 . S
C1731 C1712 1.429 . S
C1731 C1725 1.429 . S
C1731 C1732 1.523 . S
C1732 C1713 1.368 . S
C1732 C1726 1.368 . S
C1732 C1731 1.523 . S
C1733 C1717 1.429 . S
C1733 C1729 1.429 . S
C1733 C1734 1.523 . S
C1734 C1718 1.368 . S
C1734 C1730 1.368 . S
C1734 C1733 1.523 . S
H1735 C1710 0.950 . S
H1736 C1712 0.950 . S
H1737 C1713 0.949 . S
H1738 C1715 0.950 . S
H1739 C1717 0.950 . S
C1740 C1741 1.349 1_455 S
C1740 C1742 1.327 . S
C1740 H1765 0.950 . S
C1741 C1740 1.349 1_655 S
C1741 C1757 1.349 1_655 S
C1742 C1740 1.327 . S
C1742 C1761 1.429 . S
C1742 H1766 0.950 . S
C1743 C1760 1.574 . S
C1743 C1762 1.368 . S
C1743 H1767 0.949 . S
H1744 C1748 0.949 . S
C1745 C1746 1.349 . S
C1745 C1747 1.327 . S
C1745 H1768 0.950 . S
C1746 C1745 1.349 . S
C1746 C1758 1.349 . S
C1747 C1745 1.327 . S
C1747 C1763 1.429 . S
C1747 H1769 0.950 . S
C1748 H1744 0.949 . S
C1748 C1756 1.574 . S
C1748 C1764 1.368 . S
H1749 C1757 0.950 1_655 S
H1750 C1755 0.950 . S
H1751 C1756 0.949 . S
H1752 C1758 0.950 . S
H1753 C1759 0.950 . S
H1754 C1760 0.949 . S
C1755 H1750 0.950 . S
C1755 C1757 1.327 . S
C1755 C1761 1.429 . S
C1756 C1748 1.574 . S
C1756 H1751 0.949 . S
C1756 C1762 1.368 . S
C1757 C1741 1.349 1_455 S
C1757 H1749 0.950 1_455 S
C1757 C1755 1.327 . S
C1758 C1746 1.349 . S
C1758 H1752 0.950 . S
C1758 C1759 1.327 . S
C1759 H1753 0.950 . S
C1759 C1758 1.327 . S
C1759 C1763 1.429 . S
C1760 C1743 1.574 . S
C1760 H1754 0.949 . S
C1760 C1764 1.368 . S
C1761 C1742 1.429 . S
C1761 C1755 1.429 . S
C1761 C1762 1.523 . S
C1762 C1743 1.368 . S
C1762 C1756 1.368 . S
C1762 C1761 1.523 . S
C1763 C1747 1.429 . S
C1763 C1759 1.429 . S
C1763 C1764 1.523 . S
C1764 C1748 1.368 . S
C1764 C1760 1.368 . S
C1764 C1763 1.523 . S
H1765 C1740 0.950 . S
H1766 C1742 0.950 . S
H1767 C1743 0.949 . S
H1768 C1745 0.950 . S
H1769 C1747 0.950 . S
C1770 C1771 1.349 . S
C1770 C1772 1.327 . S
C1770 H1795 0.950 . S
C1771 C1770 1.349 . S
C1771 C1787 1.349 . S
C1772 C1770 1.327 . S
C1772 C1791 1.429 . S
C1772 H1796 0.950 . S
C1773 C1790 1.574 . S
C1773 C1792 1.368 . S
C1773 H1797 0.949 . S
H1774 C1778 0.949 . S
C1775 C1776 1.349 . S
C1775 C1777 1.327 . S
C1775 H1798 0.950 . S
C1776 C1775 1.349 . S
C1776 C1788 1.349 . S
C1777 C1775 1.327 . S
C1777 C1793 1.429 . S
C1777 H1799 0.950 . S
C1778 H1774 0.949 . S
C1778 C1786 1.574 . S
C1778 C1794 1.368 . S
H1779 C1787 0.950 . S
H1780 C1785 0.950 . S
H1781 C1786 0.949 . S
H1782 C1788 0.950 . S
H1783 C1789 0.950 . S
H1784 C1790 0.949 . S
C1785 H1780 0.950 . S
C1785 C1787 1.327 . S
C1785 C1791 1.429 . S
C1786 C1778 1.574 . S
C1786 H1781 0.949 . S
C1786 C1792 1.368 . S
C1787 C1771 1.349 . S
C1787 H1779 0.950 . S
C1787 C1785 1.327 . S
C1788 C1776 1.349 . S
C1788 H1782 0.950 . S
C1788 C1789 1.327 . S
C1789 H1783 0.950 . S
C1789 C1788 1.327 . S
C1789 C1793 1.429 . S
C1790 C1773 1.574 . S
C1790 H1784 0.949 . S
C1790 C1794 1.368 . S
C1791 C1772 1.429 . S
C1791 C1785 1.429 . S
C1791 C1792 1.523 . S
C1792 C1773 1.368 . S
C1792 C1786 1.368 . S
C1792 C1791 1.523 . S
C1793 C1777 1.429 . S
C1793 C1789 1.429 . S
C1793 C1794 1.523 . S
C1794 C1778 1.368 . S
C1794 C1790 1.368 . S
C1794 C1793 1.523 . S
H1795 C1770 0.950 . S
H1796 C1772 0.950 . S
H1797 C1773 0.949 . S
H1798 C1775 0.950 . S
H1799 C1777 0.950 . S
C1800 C1801 1.349 . S
C1800 C1802 1.327 . S
C1800 H1825 0.950 . S
C1801 C1800 1.349 . S
C1801 C1817 1.349 . S
C1802 C1800 1.327 . S
C1802 C1821 1.429 . S
C1802 H1826 0.950 . S
C1803 C1820 1.574 . S
C1803 C1822 1.368 . S
C1803 H1827 0.949 . S
H1804 C1808 0.949 . S
C1805 C1806 1.349 . S
C1805 C1807 1.327 . S
C1805 H1828 0.950 . S
C1806 C1805 1.349 . S
C1806 C1818 1.349 . S
C1807 C1805 1.327 . S
C1807 C1823 1.429 . S
C1807 H1829 0.950 . S
C1808 H1804 0.949 . S
C1808 C1816 1.574 . S
C1808 C1824 1.368 . S
H1809 C1817 0.950 . S
H1810 C1815 0.950 . S
H1811 C1816 0.949 . S
H1812 C1818 0.950 . S
H1813 C1819 0.950 . S
H1814 C1820 0.949 . S
C1815 H1810 0.950 . S
C1815 C1817 1.327 . S
C1815 C1821 1.429 . S
C1816 C1808 1.574 . S
C1816 H1811 0.949 . S
C1816 C1822 1.368 . S
C1817 C1801 1.349 . S
C1817 H1809 0.950 . S
C1817 C1815 1.327 . S
C1818 C1806 1.349 . S
C1818 H1812 0.950 . S
C1818 C1819 1.327 . S
C1819 H1813 0.950 . S
C1819 C1818 1.327 . S
C1819 C1823 1.429 . S
C1820 C1803 1.574 . S
C1820 H1814 0.949 . S
C1820 C1824 1.368 . S
C1821 C1802 1.429 . S
C1821 C1815 1.429 . S
C1821 C1822 1.523 . S
C1822 C1803 1.368 . S
C1822 C1816 1.368 . S
C1822 C1821 1.523 . S
C1823 C1807 1.429 . S
C1823 C1819 1.429 . S
C1823 C1824 1.523 . S
C1824 C1808 1.368 . S
C1824 C1820 1.368 . S
C1824 C1823 1.523 . S
H1825 C1800 0.950 . S
H1826 C1802 0.950 . S
H1827 C1803 0.949 . S
H1828 C1805 0.950 . S
H1829 C1807 0.950 . S
C1830 C1831 1.349 . S
C1830 C1832 1.327 . S
C1830 H1855 0.950 . S
C1831 C1830 1.349 . S
C1831 C1847 1.349 . S
C1832 C1830 1.327 . S
C1832 C1851 1.429 . S
C1832 H1856 0.950 . S
C1833 C1850 1.574 . S
C1833 C1852 1.368 . S
C1833 H1857 0.949 . S
H1834 C1838 0.949 . S
C1835 C1836 1.349 . S
C1835 C1837 1.327 . S
C1835 H1858 0.950 . S
C1836 C1835 1.349 . S
C1836 C1848 1.349 . S
C1837 C1835 1.327 . S
C1837 C1853 1.429 . S
C1837 H1859 0.950 . S
C1838 H1834 0.949 . S
C1838 C1846 1.574 . S
C1838 C1854 1.368 . S
H1839 C1847 0.950 . S
H1840 C1845 0.950 . S
H1841 C1846 0.949 . S
H1842 C1848 0.950 . S
H1843 C1849 0.950 . S
H1844 C1850 0.949 . S
C1845 H1840 0.950 . S
C1845 C1847 1.327 . S
C1845 C1851 1.429 . S
C1846 C1838 1.574 . S
C1846 H1841 0.949 . S
C1846 C1852 1.368 . S
C1847 C1831 1.349 . S
C1847 H1839 0.950 . S
C1847 C1845 1.327 . S
C1848 C1836 1.349 . S
C1848 H1842 0.950 . S
C1848 C1849 1.327 . S
C1849 H1843 0.950 . S
C1849 C1848 1.327 . S
C1849 C1853 1.429 . S
C1850 C1833 1.574 . S
C1850 H1844 0.949 . S
C1850 C1854 1.368 . S
C1851 C1832 1.429 . S
C1851 C1845 1.429 . S
C1851 C1852 1.523 . S
C1852 C1833 1.368 . S
C1852 C1846 1.368 . S
C1852 C1851 1.523 . S
C1853 C1837 1.429 . S
C1853 C1849 1.429 . S
C1853 C1854 1.523 . S
C1854 C1838 1.368 . S
C1854 C1850 1.368 . S
C1854 C1853 1.523 . S
H1855 C1830 0.950 . S
H1856 C1832 0.950 . S
H1857 C1833 0.949 . S
H1858 C1835 0.950 . S
H1859 C1837 0.950 . S
C1860 C1861 1.349 . S
C1860 C1862 1.327 . S
C1860 H1885 0.950 . S
C1861 C1860 1.349 . S
C1861 C1877 1.349 . S
C1862 C1860 1.327 . S
C1862 C1881 1.429 . S
C1862 H1886 0.950 . S
C1863 C1880 1.574 . S
C1863 C1882 1.368 . S
C1863 H1887 0.949 . S
H1864 C1868 0.949 . S
C1865 C1866 1.349 . S
C1865 C1867 1.327 . S
C1865 H1888 0.950 . S
C1866 C1865 1.349 . S
C1866 C1878 1.349 . S
C1867 C1865 1.327 . S
C1867 C1883 1.429 . S
C1867 H1889 0.950 . S
C1868 H1864 0.949 . S
C1868 C1876 1.574 . S
C1868 C1884 1.368 . S
H1869 C1877 0.950 . S
H1870 C1875 0.950 . S
H1871 C1876 0.949 . S
H1872 C1878 0.950 . S
H1873 C1879 0.950 . S
H1874 C1880 0.949 . S
C1875 H1870 0.950 . S
C1875 C1877 1.327 . S
C1875 C1881 1.429 . S
C1876 C1868 1.574 . S
C1876 H1871 0.949 . S
C1876 C1882 1.368 . S
C1877 C1861 1.349 . S
C1877 H1869 0.950 . S
C1877 C1875 1.327 . S
C1878 C1866 1.349 . S
C1878 H1872 0.950 . S
C1878 C1879 1.327 . S
C1879 H1873 0.950 . S
C1879 C1878 1.327 . S
C1879 C1883 1.429 . S
C1880 C1863 1.574 . S
C1880 H1874 0.949 . S
C1880 C1884 1.368 . S
C1881 C1862 1.429 . S
C1881 C1875 1.429 . S
C1881 C1882 1.523 . S
C1882 C1863 1.368 . S
C1882 C1876 1.368 . S
C1882 C1881 1.523 . S
C1883 C1867 1.429 . S
C1883 C1879 1.429 . S
C1883 C1884 1.523 . S
C1884 C1868 1.368 . S
C1884 C1880 1.368 . S
C1884 C1883 1.523 . S
H1885 C1860 0.950 . S
H1886 C1862 0.950 . S
H1887 C1863 0.949 . S
H1888 C1865 0.950 . S
H1889 C1867 0.950 . S
C1890 C1891 1.349 . S
C1890 C1892 1.327 . S
C1890 H1915 0.950 . S
C1891 C1890 1.349 . S
C1891 C1907 1.349 . S
C1892 C1890 1.327 . S
C1892 C1911 1.429 . S
C1892 H1916 0.950 . S
C1893 C1910 1.574 . S
C1893 C1912 1.368 . S
C1893 H1917 0.949 . S
H1894 C1898 0.949 . S
C1895 C1896 1.349 . S
C1895 C1897 1.327 . S
C1895 H1918 0.950 . S
C1896 C1895 1.349 . S
C1896 C1908 1.349 . S
C1897 C1895 1.327 . S
C1897 C1913 1.429 . S
C1897 H1919 0.950 . S
C1898 H1894 0.949 . S
C1898 C1906 1.574 . S
C1898 C1914 1.368 . S
H1899 C1907 0.950 . S
H1900 C1905 0.950 . S
H1901 C1906 0.949 . S
H1902 C1908 0.950 . S
H1903 C1909 0.950 . S
H1904 C1910 0.949 . S
C1905 H1900 0.950 . S
C1905 C1907 1.327 . S
C1905 C1911 1.429 . S
C1906 C1898 1.574 . S
C1906 H1901 0.949 . S
C1906 C1912 1.368 . S
C1907 C1891 1.349 . S
C1907 H1899 0.950 . S
C1907 C1905 1.327 . S
C1908 C1896 1.349 . S
C1908 H1902 0.950 . S
C1908 C1909 1.327 . S
C1909 H1903 0.950 . S
C1909 C1908 1.327 . S
C1909 C1913 1.429 . S
C1910 C1893 1.574 . S
C1910 H1904 0.949 . S
C1910 C1914 1.368 . S
C1911 C1892 1.429 . S
C1911 C1905 1.429 . S
C1911 C1912 1.523 . S
C1912 C1893 1.368 . S
C1912 C1906 1.368 . S
C1912 C1911 1.523 . S
C1913 C1897 1.429 . S
C1913 C1909 1.429 . S
C1913 C1914 1.523 . S
C1914 C1898 1.368 . S
C1914 C1910 1.368 . S
C1914 C1913 1.523 . S
H1915 C1890 0.950 . S
H1916 C1892 0.950 . S
H1917 C1893 0.949 . S
H1918 C1895 0.950 . S
H1919 C1897 0.950 . S
C1920 C1921 1.349 . S
C1920 C1922 1.327 . S
C1920 H1945 0.950 . S
C1921 C1920 1.349 . S
C1921 C1937 1.349 . S
C1922 C1920 1.327 . S
C1922 C1941 1.429 . S
C1922 H1946 0.950 . S
C1923 C1940 1.574 . S
C1923 C1942 1.368 . S
C1923 H1947 0.949 . S
H1924 C1928 0.949 . S
C1925 C1926 1.349 . S
C1925 C1927 1.327 . S
C1925 H1948 0.950 . S
C1926 C1925 1.349 . S
C1926 C1938 1.349 . S
C1927 C1925 1.327 . S
C1927 C1943 1.429 . S
C1927 H1949 0.950 . S
C1928 H1924 0.949 . S
C1928 C1936 1.574 . S
C1928 C1944 1.368 . S
H1929 C1937 0.950 . S
H1930 C1935 0.950 . S
H1931 C1936 0.949 . S
H1932 C1938 0.950 . S
H1933 C1939 0.950 . S
H1934 C1940 0.949 . S
C1935 H1930 0.950 . S
C1935 C1937 1.327 . S
C1935 C1941 1.429 . S
C1936 C1928 1.574 . S
C1936 H1931 0.949 . S
C1936 C1942 1.368 . S
C1937 C1921 1.349 . S
C1937 H1929 0.950 . S
C1937 C1935 1.327 . S
C1938 C1926 1.349 . S
C1938 H1932 0.950 . S
C1938 C1939 1.327 . S
C1939 H1933 0.950 . S
C1939 C1938 1.327 . S
C1939 C1943 1.429 . S
C1940 C1923 1.574 . S
C1940 H1934 0.949 . S
C1940 C1944 1.368 . S
C1941 C1922 1.429 . S
C1941 C1935 1.429 . S
C1941 C1942 1.523 . S
C1942 C1923 1.368 . S
C1942 C1936 1.368 . S
C1942 C1941 1.523 . S
C1943 C1927 1.429 . S
C1943 C1939 1.429 . S
C1943 C1944 1.523 . S
C1944 C1928 1.368 . S
C1944 C1940 1.368 . S
C1944 C1943 1.523 . S
H1945 C1920 0.950 . S
H1946 C1922 0.950 . S
H1947 C1923 0.949 . S
H1948 C1925 0.950 . S
H1949 C1927 0.950 . S
C1950 C1951 1.349 . S
C1950 C1952 1.327 . S
C1950 H1975 0.950 . S
C1951 C1950 1.349 . S
C1951 C1967 1.349 . S
C1952 C1950 1.327 . S
C1952 C1971 1.429 . S
C1952 H1976 0.950 . S
C1953 C1970 1.574 . S
C1953 C1972 1.368 . S
C1953 H1977 0.949 . S
H1954 C1958 0.949 . S
C1955 C1956 1.349 . S
C1955 C1957 1.327 . S
C1955 H1978 0.950 . S
C1956 C1955 1.349 . S
C1956 C1968 1.349 . S
C1957 C1955 1.327 . S
C1957 C1973 1.429 . S
C1957 H1979 0.950 . S
C1958 H1954 0.949 . S
C1958 C1966 1.574 . S
C1958 C1974 1.368 . S
H1959 C1967 0.950 . S
H1960 C1965 0.950 . S
H1961 C1966 0.949 . S
H1962 C1968 0.950 . S
H1963 C1969 0.950 . S
H1964 C1970 0.949 . S
C1965 H1960 0.950 . S
C1965 C1967 1.327 . S
C1965 C1971 1.429 . S
C1966 C1958 1.574 . S
C1966 H1961 0.949 . S
C1966 C1972 1.368 . S
C1967 C1951 1.349 . S
C1967 H1959 0.950 . S
C1967 C1965 1.327 . S
C1968 C1956 1.349 . S
C1968 H1962 0.950 . S
C1968 C1969 1.327 . S
C1969 H1963 0.950 . S
C1969 C1968 1.327 . S
C1969 C1973 1.429 . S
C1970 C1953 1.574 . S
C1970 H1964 0.949 . S
C1970 C1974 1.368 . S
C1971 C1952 1.429 . S
C1971 C1965 1.429 . S
C1971 C1972 1.523 . S
C1972 C1953 1.368 . S
C1972 C1966 1.368 . S
C1972 C1971 1.523 . S
C1973 C1957 1.429 . S
C1973 C1969 1.429 . S
C1973 C1974 1.523 . S
C1974 C1958 1.368 . S
C1974 C1970 1.368 . S
C1974 C1973 1.523 . S
H1975 C1950 0.950 . S
H1976 C1952 0.950 . S
H1977 C1953 0.949 . S
H1978 C1955 0.950 . S
H1979 C1957 0.950 . S
C361 C4 0.565 . S
C366 C58 0.511 . S
C391 C18 0.511 . S
C396 C24 0.565 . S
C421 C44 0.565 . S
C426 C38 0.511 . S
C451 C99 0.510 . S
C456 C62 0.564 . S
C481 C119 0.511 . S
C486 C82 0.565 . S
C511 C102 0.565 . S
C516 C79 0.511 . S
C541 C178 0.511 . S
C546 C124 0.565 . S
C571 C144 0.565 . S
C576 C138 0.511 . S
C601 C158 0.511 . S
C606 C164 0.565 . S
C631 C182 0.565 . S
C636 C219 0.511 . S
C661 C239 0.511 . S
C666 C202 0.565 . S
C691 C222 0.565 . S
C696 C199 0.511 . S
C721 C298 0.510 . S
C726 C244 0.564 . S
C751 C264 0.565 . S
C756 C258 0.511 . S
C781 C284 0.565 . S
C786 C278 0.511 . S
C811 C302 0.564 . S
C816 C339 0.510 . S
C841 C359 0.511 . S
C846 C322 0.565 . S
C871 C319 0.511 . S
C876 C342 0.565 . S
C901 C109 1.370 . S
C906 C9 1.435 . S
C931 C69 1.370 . S
C936 C29 1.435 . S
C961 C89 1.370 . S
C966 C49 1.435 . S
C991 C32 1.370 . S
C996 C72 1.435 . S
C1021 C92 1.435 . S
C1026 C52 1.370 . S
C1051 C12 1.370 . S
C1056 C112 1.435 . S
C1081 C129 1.435 . S
C1086 C229 1.370 . S
C1111 C149 1.435 . S
C1116 C189 1.370 . S
C1141 C209 1.370 . S
C1146 C169 1.435 . S
C1171 C192 1.435 . S
C1176 C152 1.370 . S
C1201 C212 1.435 . S
C1206 C172 1.370 . S
C1231 C232 1.435 . S
C1236 C132 1.370 . S
C1261 C249 1.435 . S
C1266 C349 1.370 . S
C1291 C269 1.435 . S
C1296 C309 1.370 . S
C1321 C289 1.435 . S
C1326 C329 1.370 . S
C1351 C312 1.435 . S
C1356 C272 1.370 . S
C1381 C332 1.435 . S
C1386 C292 1.370 . S
C1411 C352 1.435 . S
C1416 C252 1.370 . S
C1441 C204 2.097 . S
C1446 C19 2.278 . S
C1471 C39 2.277 . S
C1476 C224 2.096 . S
C1501 C184 2.096 . S
C1506 C59 2.277 . S
C1531 C78 2.264 . S
C1536 C162 2.097 . S
C1561 C98 2.263 . S
C1566 C122 2.096 . S
C1591 C142 2.096 . S
C1596 C118 2.263 . S
C1621 C139 2.264 . S
C1626 C324 2.097 . S
C1651 C159 2.263 . S
C1656 C344 2.096 . S
C1681 C179 2.263 . S
C1686 C304 2.096 . S
C1711 C282 2.097 . S
C1716 C198 2.264 . S
C1741 C242 2.096 . S
C1746 C218 2.263 . S
C1771 C262 2.096 . S
C1776 C238 2.263 . S
C1801 C84 2.097 . S
C1806 C259 2.264 . S
C1831 C279 2.263 . S
C1836 C104 2.096 . S
C1861 C64 2.096 . S
C1866 C299 2.263 . S
C1891 C318 2.264 . S
C1896 C42 2.097 . S
C1921 C338 2.263 . S
C1926 C2 2.096 . S
C1951 C22 2.096 . S
C1956 C358 2.263 . S
