# Generated by pormake.
# Topology qtz-e, (6)-cn, num edge types: 1
# Building blocks:
#     Node 0, Type 0, BuildingBlock: KUMBUR_clean_sbu_1, # of connection points: 6
#     Node 1, Type 0, BuildingBlock: KUMBUR_clean_sbu_1, # of connection points: 6
#     Node 2, Type 0, BuildingBlock: KUMBUR_clean_sbu_1, # of connection points: 6
#     Node 3, Type 0, BuildingBlock: KUMBUR_clean_sbu_1, # of connection points: 6
#     Node 4, Type 0, BuildingBlock: KUMBUR_clean_sbu_1, # of connection points: 6
#     Node 5, Type 0, BuildingBlock: KUMBUR_clean_sbu_1, # of connection points: 6
#     Edge 6, Type (0, 0), BuildingBlock: MIFKUJ_clean_linker_0, # of connection points: 2
#     Edge 7, Type (0, 0), BuildingBlock: MIFKUJ_clean_linker_0, # of connection points: 2
#     Edge 8, Type (0, 0), BuildingBlock: MIFKUJ_clean_linker_0, # of connection points: 2
#     Edge 9, Type (0, 0), BuildingBlock: MIFKUJ_clean_linker_0, # of connection points: 2
#     Edge 10, Type (0, 0), BuildingBlock: MIFKUJ_clean_linker_0, # of connection points: 2
#     Edge 11, Type (0, 0), BuildingBlock: MIFKUJ_clean_linker_0, # of connection points: 2
#     Edge 12, Type (0, 0), BuildingBlock: MIFKUJ_clean_linker_0, # of connection points: 2
#     Edge 13, Type (0, 0), BuildingBlock: MIFKUJ_clean_linker_0, # of connection points: 2
#     Edge 14, Type (0, 0), BuildingBlock: MIFKUJ_clean_linker_0, # of connection points: 2
#     Edge 15, Type (0, 0), BuildingBlock: MIFKUJ_clean_linker_0, # of connection points: 2
#     Edge 16, Type (0, 0), BuildingBlock: MIFKUJ_clean_linker_0, # of connection points: 2
#     Edge 17, Type (0, 0), BuildingBlock: MIFKUJ_clean_linker_0, # of connection points: 2
#     Edge 18, Type (0, 0), BuildingBlock: MIFKUJ_clean_linker_0, # of connection points: 2
#     Edge 19, Type (0, 0), BuildingBlock: MIFKUJ_clean_linker_0, # of connection points: 2
#     Edge 20, Type (0, 0), BuildingBlock: MIFKUJ_clean_linker_0, # of connection points: 2
#     Edge 21, Type (0, 0), BuildingBlock: MIFKUJ_clean_linker_0, # of connection points: 2
#     Edge 22, Type (0, 0), BuildingBlock: MIFKUJ_clean_linker_0, # of connection points: 2
#     Edge 23, Type (0, 0), BuildingBlock: MIFKUJ_clean_linker_0, # of connection points: 2
# Relax obj value: 0.151
# Max RMSD: 0.208
# Mean RMSD: 0.208
data_MOF--net-qtz-e--node1-KUMBUR_clean_sbu_1--edge1-MIFKUJ_clean_linker_0
_symmetry_space_group_name_H-M    P1
_symmetry_Int_Tables_number       1
_symmetry_cell_setting            triclinic
loop_
_symmetry_equiv_pos_as_xyz
'x, y, z'
_cell_length_a     35.871572
_cell_length_b     35.859955
_cell_length_c     58.669968
_cell_angle_alpha  89.990874
_cell_angle_beta   90.042247
_cell_angle_gamma 120.07709
loop_
_atom_site_label
_atom_site_type_symbol
_atom_site_fract_x
_atom_site_fract_y
_atom_site_fract_z
_atom_type_partial_charge
Tb0 Tb 0.18447 0.35823 0.99376 0.0
C1 C 0.29453 0.55694 0.00417 0.0
N2 N 0.29635 0.52715 0.01774 0.0
C3 C 0.37315 0.56466 0.01457 0.0
C4 C 0.33226 0.59166 0.99495 0.0
C5 C 0.33501 0.5314 0.02372 0.0
C6 C 0.37194 0.59509 0.00021 0.0
C7 C 0.25116 0.58161 0.98493 0.0
C8 C 0.25438 0.55124 0.99882 0.0
C9 C 0.28859 0.61613 0.9755 0.0
C10 C 0.32905 0.62105 0.98044 0.0
Tb11 Tb 0.23199 0.47146 0.02979 0.0
N12 N 0.21876 0.51693 0.00796 0.0
C13 C 0.21056 0.57711 0.98147 0.0
C14 C 0.18011 0.51572 0.00681 0.0
C15 C 0.17506 0.54461 0.9929 0.0
H16 H 0.3363 0.50901 0.03548 0.0
H17 H 0.14399 0.54244 0.99135 0.0
H18 H 0.08263 0.33034 0.98503 0.0
H19 H 0.25875 0.27841 0.03736 0.0
H20 H 0.15325 0.49362 0.0171 0.0
H21 H 0.20663 0.59969 0.97091 0.0
H22 H 0.25885 0.33571 0.01485 0.0
H23 H 0.40326 0.56633 0.0184 0.0
H24 H 0.28663 0.63951 0.96462 0.0
H25 H 0.35764 0.64781 0.97306 0.0
H26 H 0.01095 0.26954 0.99508 0.0
H27 H 0.40168 0.62086 0.99319 0.0
H28 H 0.18997 0.2152 0.0492 0.0
N29 N 0.11677 0.30457 0.00237 0.0
C30 C 0.1142 0.2708 0.01424 0.0
C31 C 0.03975 0.26964 0.00069 0.0
C32 C 0.07399 0.23515 0.02006 0.0
C33 C 0.08039 0.30429 0.99526 0.0
C34 C 0.03651 0.23495 0.01318 0.0
N35 N 0.19047 0.3084 0.01557 0.0
C36 C 0.2284 0.30993 0.02072 0.0
C37 C 0.15084 0.23829 0.03334 0.0
C38 C 0.15226 0.27268 0.02093 0.0
C39 C 0.18966 0.24091 0.03964 0.0
C40 C 0.22855 0.2767 0.03314 0.0
H41 H 0.00496 0.20812 0.01732 0.0
H42 H 0.04191 0.17329 0.03718 0.0
H43 H 0.10915 0.17593 0.04871 0.0
O44 O 0.21392 0.33626 0.97035 0.0
O45 O 0.158 0.35378 0.02821 0.0
O46 O 0.21281 0.41085 0.04762 0.0
O47 O 0.15136 0.32803 0.96372 0.0
O48 O 0.25403 0.39496 0.00088 0.0
O49 O 0.25978 0.42972 0.03507 0.0
O50 O 0.20479 0.49377 0.05421 0.0
O51 O 0.26061 0.47341 0.99649 0.0
O52 O 0.20353 0.42002 0.97727 0.0
O53 O 0.27019 0.50789 0.05737 0.0
O54 O 0.16235 0.43316 0.02333 0.0
O55 O 0.15577 0.39897 0.98885 0.0
C56 C 0.17505 0.37545 0.0471 0.0
C57 C 0.16524 0.27504 0.94884 0.0
C58 C 0.17186 0.22705 0.9216 0.0
C59 C 0.13372 0.19237 0.93047 0.0
C60 C 0.12722 0.23997 0.95731 0.0
C61 C 0.11188 0.19885 0.94831 0.0
C62 C 0.1877 0.2683 0.93125 0.0
C63 C 0.27617 0.41664 0.01897 0.0
C64 C 0.18055 0.3193 0.95692 0.0
C65 C 0.07251 0.20102 0.03254 0.0
C66 C 0.11082 0.20254 0.03912 0.0
C67 C 0.24253 0.45344 0.97745 0.0
C68 C 0.23059 0.49573 0.09115 0.0
C69 C 0.20494 0.50142 0.1287 0.0
C70 C 0.214 0.46985 0.13681 0.0
C71 C 0.23969 0.46446 0.09955 0.0
C72 C 0.21292 0.51378 0.10568 0.0
C73 C 0.23124 0.45157 0.12227 0.0
C74 C 0.14005 0.41226 0.00515 0.0
C75 C 0.23863 0.50939 0.06723 0.0
H76 H 0.11989 0.16038 0.92325 0.0
H77 H 0.10874 0.24433 0.97046 0.0
H78 H 0.08233 0.17206 0.95481 0.0
H79 H 0.21721 0.29549 0.92492 0.0
H80 H 0.20904 0.4602 0.15455 0.0
H81 H 0.25313 0.4499 0.08857 0.0
H82 H 0.20557 0.53759 0.09903 0.0
H83 H 0.23867 0.42779 0.1287 0.0
Tb84 Tb 0.80842 0.17529 0.32446 0.0
C85 C 0.76539 0.31606 0.33443 0.0
N86 N 0.79437 0.31348 0.34833 0.0
C87 C 0.84424 0.38876 0.34288 0.0
C88 C 0.7757 0.35486 0.32327 0.0
C89 C 0.83275 0.34939 0.35333 0.0
C90 C 0.81586 0.3914 0.32753 0.0
C91 C 0.69511 0.28049 0.31653 0.0
C92 C 0.72589 0.27904 0.33092 0.0
C93 C 0.70548 0.31883 0.30496 0.0
C94 C 0.74569 0.35591 0.30831 0.0
Tb95 Tb 0.773 0.24751 0.36404 0.0
N96 N 0.71711 0.24225 0.34223 0.0
C97 C 0.65438 0.24375 0.31471 0.0
C98 C 0.6758 0.20831 0.34249 0.0
C99 C 0.64443 0.20786 0.32813 0.0
H100 H 0.85424 0.34762 0.36548 0.0
H101 H 0.61224 0.18026 0.32782 0.0
H102 H 0.7178 0.09007 0.30694 0.0
H103 H 0.94942 0.19057 0.36659 0.0
H104 H 0.66599 0.18211 0.35431 0.0
H105 H 0.62982 0.24348 0.30384 0.0
H106 H 0.9066 0.21718 0.347 0.0
H107 H 0.87484 0.41706 0.34678 0.0
H108 H 0.68232 0.32035 0.2937 0.0
H109 H 0.75306 0.38534 0.29945 0.0
H110 H 0.68205 0.01095 0.31081 0.0
H111 H 0.82497 0.42188 0.31935 0.0
H112 H 0.91913 0.11231 0.37258 0.0
N113 N 0.77292 0.10183 0.3261 0.0
C114 C 0.79415 0.08424 0.3367 0.0
C115 C 0.71346 0.03122 0.31835 0.0
C116 C 0.77553 0.03927 0.33888 0.0
C117 C 0.73345 0.07608 0.3165 0.0
C118 C 0.73446 0.01271 0.32971 0.0
N119 N 0.85155 0.15479 0.34279 0.0
C120 C 0.89257 0.18305 0.34979 0.0
C121 C 0.85859 0.09491 0.35602 0.0
C122 C 0.83511 0.11159 0.34508 0.0
C123 C 0.9 0.1238 0.36406 0.0
C124 C 0.91716 0.16803 0.36077 0.0
H125 H 0.71899 0.97796 0.33102 0.0
H126 H 0.78479 0.98785 0.35185 0.0
H127 H 0.8575 0.03661 0.3669 0.0
O128 O 0.85752 0.20791 0.30013 0.0
O129 O 0.80524 0.16171 0.36095 0.0
O130 O 0.78861 0.20532 0.38389 0.0
O131 O 0.8028 0.14575 0.29275 0.0
O132 O 0.8581 0.24168 0.3332 0.0
O133 O 0.83874 0.2588 0.36781 0.0
O134 O 0.72684 0.24449 0.3875 0.0
O135 O 0.80284 0.26945 0.33047 0.0
O136 O 0.77136 0.20465 0.31326 0.0
O137 O 0.79523 0.29088 0.39175 0.0
O138 O 0.72883 0.17761 0.36239 0.0
O139 O 0.74158 0.16087 0.32649 0.0
C140 C 0.79853 0.1748 0.38068 0.0
C141 C 0.86882 0.16226 0.27565 0.0
C142 C 0.9225 0.17246 0.24685 0.0
C143 C 0.92378 0.13678 0.25602 0.0
C144 C 0.8702 0.12644 0.28419 0.0
C145 C 0.89764 0.11391 0.27443 0.0
C146 C 0.89479 0.18498 0.257 0.0
C147 C 0.86699 0.26624 0.35154 0.0
C148 C 0.8401 0.17609 0.28569 0.0
C149 C 0.79859 0.02234 0.34994 0.0
C150 C 0.84003 0.05011 0.3585 0.0
C151 C 0.79053 0.24647 0.31186 0.0
C152 C 0.74689 0.29269 0.42014 0.0
C153 C 0.70179 0.28274 0.45316 0.0
C154 C 0.7284 0.32633 0.45883 0.0
C155 C 0.77351 0.3361 0.42619 0.0
C156 C 0.71099 0.26591 0.43377 0.0
C157 C 0.76414 0.35281 0.44541 0.0
C158 C 0.71872 0.15023 0.34537 0.0
C159 C 0.75639 0.27587 0.39947 0.0
H160 H 0.9453 0.12663 0.24919 0.0
H161 H 0.85004 0.10805 0.2983 0.0
H162 H 0.89873 0.08639 0.2812 0.0
H163 H 0.89272 0.21201 0.2503 0.0
H164 H 0.72179 0.33968 0.47383 0.0
H165 H 0.80124 0.35722 0.41588 0.0
H166 H 0.69051 0.23219 0.42942 0.0
H167 H 0.78465 0.38635 0.44993 0.0
Tb168 Tb 0.65122 0.8291 0.65772 0.0
C169 C 0.46925 0.80171 0.6967 0.0
N170 N 0.50944 0.82384 0.70573 0.0
C171 C 0.49504 0.87845 0.71923 0.0
C172 C 0.44051 0.8176 0.69812 0.0
C173 C 0.52241 0.86137 0.71731 0.0
C174 C 0.45411 0.8568 0.70932 0.0
C175 C 0.41375 0.73613 0.67904 0.0
C176 C 0.45593 0.76148 0.68751 0.0
C177 C 0.38537 0.75241 0.67961 0.0
C178 C 0.39872 0.79309 0.68914 0.0
Tb179 Tb 0.55039 0.79184 0.70273 0.0
N180 N 0.48454 0.74717 0.68699 0.0
C181 C 0.40139 0.69511 0.67046 0.0
C182 C 0.47219 0.70654 0.6795 0.0
C183 C 0.43062 0.68013 0.6709 0.0
H184 H 0.55372 0.87772 0.72539 0.0
H185 H 0.42102 0.6481 0.6648 0.0
H186 H 0.67902 0.75438 0.65786 0.0
H187 H 0.735 0.99582 0.68644 0.0
H188 H 0.49428 0.69445 0.68006 0.0
H189 H 0.36922 0.67455 0.66382 0.0
H190 H 0.67961 0.93399 0.6655 0.0
H191 H 0.50546 0.90815 0.7285 0.0
H192 H 0.35286 0.73356 0.67306 0.0
H193 H 0.37622 0.80487 0.68992 0.0
H194 H 0.73921 0.74614 0.67259 0.0
H195 H 0.43286 0.86995 0.71097 0.0
H196 H 0.79375 0.99118 0.70577 0.0
N197 N 0.70541 0.81855 0.67004 0.0
C198 C 0.73837 0.85215 0.68115 0.0
C199 C 0.73933 0.77609 0.67511 0.0
C200 C 0.77304 0.84875 0.69002 0.0
C201 C 0.70539 0.78083 0.66678 0.0
C202 C 0.77326 0.81015 0.68682 0.0
N203 N 0.70174 0.89109 0.67568 0.0
C204 C 0.70262 0.92968 0.6752 0.0
C205 C 0.76991 0.92494 0.69572 0.0
C206 C 0.73619 0.88938 0.68431 0.0
C207 C 0.76845 0.96309 0.69721 0.0
C208 C 0.73514 0.96571 0.68648 0.0
H209 H 0.79936 0.80627 0.69338 0.0
H210 H 0.8329 0.88169 0.70897 0.0
H211 H 0.83045 0.94861 0.71372 0.0
O212 O 0.66987 0.86986 0.62921 0.0
O213 O 0.65523 0.80838 0.69235 0.0
O214 O 0.6179 0.83467 0.7102 0.0
O215 O 0.68025 0.81602 0.6299 0.0
O216 O 0.61727 0.86554 0.65909 0.0
O217 O 0.5988 0.85911 0.69673 0.0
O218 O 0.53834 0.74206 0.72594 0.0
O219 O 0.53489 0.79215 0.66649 0.0
O220 O 0.58627 0.78743 0.64404 0.0
O221 O 0.534 0.7971 0.73647 0.0
O222 O 0.56973 0.74442 0.69391 0.0
O223 O 0.6077 0.75908 0.65926 0.0
C224 C 0.64362 0.81896 0.71124 0.0
C225 C 0.73024 0.87855 0.6094 0.0
C226 C 0.77486 0.93335 0.58139 0.0
C227 C 0.81179 0.93642 0.59162 0.0
C228 C 0.76741 0.88193 0.61933 0.0
C229 C 0.80797 0.91078 0.61043 0.0
C230 C 0.73417 0.90422 0.59047 0.0
C231 C 0.60216 0.87649 0.6766 0.0
C232 C 0.68704 0.85022 0.61885 0.0
C233 C 0.806 0.88368 0.70195 0.0
C234 C 0.80448 0.9217 0.70475 0.0
C235 C 0.54979 0.78759 0.6467 0.0
C236 C 0.48253 0.72963 0.75154 0.0
C237 C 0.43438 0.66739 0.77477 0.0
C238 C 0.39982 0.67332 0.76854 0.0
C239 C 0.44764 0.73557 0.74623 0.0
C240 C 0.47579 0.69556 0.76602 0.0
C241 C 0.40654 0.70726 0.7544 0.0
C242 C 0.58526 0.73331 0.67636 0.0
C243 C 0.52563 0.75851 0.74184 0.0
H244 H 0.84356 0.95819 0.58489 0.0
H245 H 0.76523 0.86256 0.63395 0.0
H246 H 0.83656 0.91328 0.61813 0.0
H247 H 0.70541 0.90205 0.5831 0.0
H248 H 0.36783 0.65277 0.77537 0.0
H249 H 0.452 0.76239 0.73605 0.0
H250 H 0.50266 0.69121 0.7706 0.0
H251 H 0.37995 0.71219 0.75011 0.0
Tb252 Tb 0.8263 0.64504 0.98962 0.0
C253 C 0.70336 0.45488 0.04207 0.0
N254 N 0.70831 0.49423 0.04644 0.0
C255 C 0.63336 0.46181 0.05555 0.0
C256 C 0.66254 0.41736 0.04315 0.0
C257 C 0.67438 0.49814 0.05368 0.0
C258 C 0.62722 0.42127 0.04989 0.0
C259 C 0.73645 0.41188 0.034 0.0
C260 C 0.73984 0.45234 0.03769 0.0
C261 C 0.69559 0.3745 0.03367 0.0
C262 C 0.65869 0.37721 0.03834 0.0
Tb263 Tb 0.77651 0.55127 0.04492 0.0
N264 N 0.77879 0.48914 0.03882 0.0
C265 C 0.7743 0.41002 0.03187 0.0
C266 C 0.81555 0.48658 0.03921 0.0
C267 C 0.81401 0.44742 0.035 0.0
H268 H 0.67933 0.52902 0.05888 0.0
H269 H 0.84343 0.44597 0.03473 0.0
H270 H 0.92399 0.65817 0.98224 0.0
H271 H 0.77165 0.75682 0.01104 0.0
H272 H 0.84625 0.51408 0.04342 0.0
H273 H 0.77316 0.37961 0.02902 0.0
H274 H 0.76281 0.68524 0.00521 0.0
H275 H 0.60664 0.46507 0.06159 0.0
H276 H 0.69233 0.34319 0.03066 0.0
H277 H 0.62753 0.348 0.03882 0.0
H278 H 0.99826 0.7193 0.97907 0.0
H279 H 0.59537 0.39316 0.05129 0.0
H280 H 0.84324 0.82201 0.00661 0.0
N281 N 0.89663 0.69788 0.9885 0.0
C282 C 0.90371 0.73875 0.9904 0.0
C283 C 0.97195 0.72516 0.98237 0.0
C284 C 0.94552 0.7746 0.98843 0.0
C285 C 0.92986 0.69054 0.98445 0.0
C286 C 0.97982 0.76736 0.98429 0.0
N287 N 0.82939 0.70866 0.99842 0.0
C288 C 0.79458 0.71286 0.0037 0.0
C289 C 0.87524 0.78611 0.99844 0.0
C290 C 0.86893 0.74435 0.99542 0.0
C291 C 0.83977 0.79047 0.00416 0.0
C292 C 0.79933 0.75371 0.0068 0.0
H293 H 0.01247 0.79407 0.98265 0.0
H294 H 0.98365 0.84432 0.98938 0.0
H295 H 0.92216 0.85441 0.99809 0.0
O296 O 0.79263 0.65043 0.96151 0.0
O297 O 0.85743 0.67705 0.02189 0.0
O298 O 0.81068 0.61387 0.03151 0.0
O299 O 0.85081 0.64809 0.95677 0.0
O300 O 0.75788 0.61766 0.99981 0.0
O301 O 0.75064 0.595 0.03804 0.0
O302 O 0.80653 0.54879 0.0753 0.0
O303 O 0.74129 0.52487 0.0128 0.0
O304 O 0.79819 0.57479 0.99325 0.0
O305 O 0.75563 0.56374 0.07586 0.0
O306 O 0.84462 0.57672 0.0341 0.0
O307 O 0.85279 0.60144 0.9959 0.0
C308 C 0.84086 0.65091 0.03865 0.0
C309 C 0.83952 0.69386 0.93221 0.0
C310 C 0.82653 0.7341 0.90291 0.0
C311 C 0.87059 0.76477 0.9026 0.0
C312 C 0.88371 0.72485 0.93165 0.0
C313 C 0.89897 0.76027 0.91706 0.0
C314 C 0.81106 0.69895 0.91787 0.0
C315 C 0.73484 0.60106 0.01872 0.0
C316 C 0.82268 0.6558 0.94723 0.0
C317 C 0.95177 0.81631 0.99096 0.0
C318 C 0.91673 0.82205 0.99593 0.0
C319 C 0.7578 0.54382 0.99324 0.0
C320 C 0.75559 0.51893 0.10531 0.0
C321 C 0.75098 0.46203 0.13011 0.0
C322 C 0.70994 0.4533 0.13727 0.0
C323 C 0.7147 0.50986 0.11292 0.0
C324 C 0.77358 0.49494 0.11408 0.0
C325 C 0.69203 0.47709 0.1287 0.0
C326 C 0.86571 0.58886 0.01429 0.0
C327 C 0.77885 0.55264 0.08794 0.0
H328 H 0.88299 0.79196 0.89104 0.0
H329 H 0.90662 0.72168 0.94225 0.0
H330 H 0.93299 0.78396 0.91674 0.0
H331 H 0.77711 0.67506 0.91801 0.0
H332 H 0.69207 0.42876 0.14994 0.0
H333 H 0.70003 0.5279 0.10662 0.0
H334 H 0.80495 0.50151 0.10829 0.0
H335 H 0.66057 0.47031 0.13444 0.0
Tb336 Tb 0.17374 0.81362 0.32683 0.0
C337 C 0.19395 0.65723 0.36859 0.0
N338 N 0.1738 0.67664 0.37844 0.0
C339 C 0.1217 0.6095 0.3952 0.0
C340 C 0.1781 0.61273 0.37128 0.0
C341 C 0.13807 0.65355 0.39162 0.0
C342 C 0.14166 0.58893 0.38488 0.0
C343 C 0.25251 0.66325 0.34521 0.0
C344 C 0.23096 0.68223 0.35594 0.0
C345 C 0.23638 0.61875 0.34749 0.0
C346 C 0.19937 0.59358 0.36057 0.0
Tb347 Tb 0.20581 0.74917 0.37292 0.0
N348 N 0.2452 0.72511 0.35375 0.0
C349 C 0.2896 0.6896 0.33253 0.0
C350 C 0.28255 0.75128 0.34231 0.0
C351 C 0.30477 0.73381 0.33118 0.0
H352 H 0.12335 0.66967 0.40013 0.0
H353 H 0.33362 0.75444 0.32157 0.0
H354 H 0.26094 0.90839 0.31814 0.0
H355 H 0.01647 0.76841 0.36174 0.0
H356 H 0.29503 0.78545 0.34141 0.0
H357 H 0.30698 0.67623 0.32391 0.0
H358 H 0.06963 0.75475 0.34359 0.0
H359 H 0.09374 0.59145 0.40593 0.0
H360 H 0.25245 0.60354 0.33934 0.0
H361 H 0.18753 0.55936 0.36236 0.0
H362 H 0.28365 0.98494 0.32448 0.0
H363 H 0.12882 0.55475 0.38762 0.0
H364 H 0.03425 0.84296 0.37038 0.0
N365 N 0.19846 0.88509 0.33215 0.0
C366 C 0.1701 0.89526 0.34153 0.0
C367 C 0.25165 0.96002 0.32938 0.0
C368 C 0.18136 0.93854 0.34498 0.0
C369 C 0.23883 0.91661 0.32602 0.0
C370 C 0.22276 0.97107 0.33885 0.0
N371 N 0.12026 0.82048 0.34434 0.0
C372 C 0.07951 0.78726 0.34846 0.0
C373 C 0.09932 0.87131 0.35743 0.0
C374 C 0.12975 0.86192 0.34784 0.0
C375 C 0.05854 0.83712 0.36301 0.0
C376 C 0.04849 0.79498 0.35828 0.0
H377 H 0.2327 0.00473 0.34133 0.0
H378 H 0.15883 0.98102 0.35678 0.0
H379 H 0.08715 0.92221 0.36793 0.0
O380 O 0.12807 0.78677 0.3004 0.0
O381 O 0.19309 0.84017 0.36135 0.0
O382 O 0.16816 0.77915 0.383 0.0
O383 O 0.18668 0.84696 0.29567 0.0
O384 O 0.12841 0.74484 0.33306 0.0
O385 O 0.13858 0.73359 0.37066 0.0
O386 O 0.26084 0.7857 0.39322 0.0
O387 O 0.19259 0.7241 0.33796 0.0
O388 O 0.211 0.78383 0.316 0.0
O389 O 0.20676 0.72719 0.40588 0.0
O390 O 0.25424 0.81556 0.36424 0.0
O391 O 0.24227 0.83265 0.32766 0.0
C392 C 0.18307 0.82071 0.38119 0.0
C393 C 0.12506 0.83634 0.27522 0.0
C394 C 0.07525 0.829 0.24482 0.0
C395 C 0.07854 0.86807 0.2518 0.0
C396 C 0.12794 0.87528 0.28191 0.0
C397 C 0.10462 0.8909 0.27027 0.0
C398 C 0.0985 0.81323 0.25677 0.0
C399 C 0.11655 0.72051 0.35148 0.0
C400 C 0.14978 0.81931 0.28687 0.0
C401 C 0.15103 0.94793 0.35436 0.0
C402 C 0.1102 0.91442 0.36069 0.0
C403 C 0.19896 0.74294 0.31799 0.0
C404 C 0.24939 0.77966 0.43302 0.0
C405 C 0.29136 0.80512 0.46807 0.0
C406 C 0.25771 0.80902 0.478 0.0
C407 C 0.21582 0.7828 0.44328 0.0
C408 C 0.28726 0.79169 0.44524 0.0
C409 C 0.22029 0.79801 0.46559 0.0
C410 C 0.26685 0.83989 0.34584 0.0
C411 C 0.24437 0.75982 0.41056 0.0
H412 H 0.06069 0.8808 0.24307 0.0
H413 H 0.14835 0.8938 0.29595 0.0
H414 H 0.10692 0.92093 0.27552 0.0
H415 H 0.09668 0.7834 0.25144 0.0
H416 H 0.2593 0.81855 0.49564 0.0
H417 H 0.18582 0.77228 0.4343 0.0
H418 H 0.31287 0.78882 0.43715 0.0
H419 H 0.19395 0.7996 0.47357 0.0
Tb420 Tb 0.36027 0.1849 0.66148 0.0
C421 C 0.54596 0.22441 0.69554 0.0
N422 N 0.50818 0.201 0.70692 0.0
C423 C 0.5304 0.15125 0.71905 0.0
C424 C 0.57728 0.21172 0.69515 0.0
C425 C 0.5001 0.16495 0.7188 0.0
C426 C 0.56886 0.17433 0.70691 0.0
C427 C 0.59379 0.28926 0.67444 0.0
C428 C 0.55413 0.26261 0.6853 0.0
C429 C 0.62468 0.27617 0.6734 0.0
C430 C 0.6164 0.23742 0.68368 0.0
Tb431 Tb 0.46184 0.22714 0.70557 0.0
N432 N 0.52305 0.27374 0.68631 0.0
C433 C 0.60141 0.32861 0.66543 0.0
C434 C 0.53107 0.31284 0.67844 0.0
C435 C 0.57003 0.34057 0.66758 0.0
H436 H 0.47044 0.147 0.72827 0.0
H437 H 0.57612 0.37147 0.66123 0.0
H438 H 0.34708 0.26875 0.65162 0.0
H439 H 0.25816 0.02969 0.70069 0.0
H440 H 0.50806 0.3232 0.68095 0.0
H441 H 0.63179 0.35051 0.65738 0.0
H442 H 0.32275 0.08458 0.68086 0.0
H443 H 0.52433 0.1232 0.7288 0.0
H444 H 0.65531 0.29607 0.66501 0.0
H445 H 0.64082 0.2281 0.68308 0.0
H446 H 0.29116 0.28822 0.65879 0.0
H447 H 0.59223 0.16361 0.70718 0.0
H448 H 0.19898 0.04377 0.70975 0.0
N449 N 0.31132 0.20679 0.66689 0.0
C450 C 0.27397 0.17769 0.67717 0.0
C451 C 0.286 0.25708 0.66411 0.0
C452 C 0.24109 0.18734 0.68146 0.0
C453 C 0.31778 0.24608 0.66025 0.0
C454 C 0.2475 0.22762 0.67477 0.0
N455 N 0.30247 0.131 0.68013 0.0
C456 C 0.29825 0.09203 0.68542 0.0
C457 C 0.23132 0.10764 0.69491 0.0
C458 C 0.2693 0.13845 0.68392 0.0
C459 C 0.22767 0.06835 0.7013 0.0
C460 C 0.26113 0.0604 0.69633 0.0
H461 H 0.223 0.23628 0.67776 0.0
H462 H 0.17752 0.16355 0.69591 0.0
H463 H 0.16889 0.09372 0.7076 0.0
O464 O 0.34394 0.1379 0.63605 0.0
O465 O 0.3523 0.19793 0.69725 0.0
O466 O 0.39699 0.18163 0.71776 0.0
O467 O 0.33319 0.19122 0.63093 0.0
O468 O 0.39018 0.14502 0.66626 0.0
O469 O 0.41753 0.15754 0.70302 0.0
O470 O 0.4791 0.28064 0.72707 0.0
O471 O 0.47353 0.21826 0.66958 0.0
O472 O 0.42486 0.22743 0.64823 0.0
O473 O 0.48424 0.2267 0.73869 0.0
O474 O 0.4311 0.266 0.69892 0.0
O475 O 0.40597 0.25408 0.66171 0.0
C476 C 0.36346 0.18705 0.71637 0.0
C477 C 0.28597 0.12547 0.61224 0.0
C478 C 0.24555 0.07111 0.58316 0.0
C479 C 0.20748 0.06909 0.59098 0.0
C480 C 0.24767 0.12296 0.61977 0.0
C481 C 0.20863 0.09475 0.6092 0.0
C482 C 0.28469 0.09937 0.59409 0.0
C483 C 0.40676 0.13554 0.68379 0.0
C484 C 0.32785 0.15523 0.62268 0.0
C485 C 0.20319 0.15674 0.69245 0.0
C486 C 0.1983 0.11699 0.69914 0.0
C487 C 0.45804 0.22156 0.64981 0.0
C488 C 0.53609 0.29544 0.75265 0.0
C489 C 0.58262 0.35059 0.78027 0.0
C490 C 0.61848 0.35041 0.77068 0.0
C491 C 0.5725 0.29557 0.74386 0.0
C492 C 0.54138 0.32326 0.77089 0.0
C493 C 0.61335 0.32318 0.75259 0.0
C494 C 0.42231 0.27905 0.67974 0.0
C495 C 0.49271 0.26563 0.7433 0.0
H496 H 0.17686 0.04831 0.58277 0.0
H497 H 0.24788 0.1429 0.63363 0.0
H498 H 0.17919 0.09308 0.61499 0.0
H499 H 0.31434 0.10106 0.58858 0.0
H500 H 0.65047 0.37027 0.77768 0.0
H501 H 0.56952 0.27383 0.73056 0.0
H502 H 0.51361 0.32346 0.77788 0.0
H503 H 0.64107 0.32273 0.74563 0.0
H504 H 0.22214 0.77173 0.27419 0.0
H505 H 0.21268 0.72829 0.24026 0.0
H506 H 0.15329 0.61285 0.28134 0.0
H507 H 0.16464 0.65605 0.31532 0.0
H508 H 0.20741 0.6098 0.25478 0.0
H509 H 0.09566 0.64456 0.24397 0.0
H510 H 0.06466 0.69211 0.24036 0.0
H511 H 0.14401 0.75291 0.18186 0.0
H512 H 0.17605 0.7063 0.18532 0.0
H513 H 0.14624 0.46609 0.16339 0.0
H514 H 0.13258 0.50493 0.19352 0.0
H515 H 0.21658 0.62554 0.16002 0.0
H516 H 0.23121 0.58729 0.13018 0.0
H517 H 0.14347 0.62259 0.18222 0.0
H518 H 0.26038 0.59409 0.19669 0.0
H519 H 0.29106 0.54622 0.19975 0.0
H520 H 0.19934 0.473 0.25191 0.0
H521 H 0.16764 0.52006 0.24887 0.0
C522 C 0.2072 0.7371 0.27597 0.0
C523 C 0.19424 0.71734 0.29742 0.0
C524 C 0.20135 0.71226 0.25653 0.0
C525 C 0.18151 0.6672 0.25817 0.0
C526 C 0.16857 0.64753 0.27962 0.0
C527 C 0.17518 0.67234 0.29906 0.0
C528 C 0.1765 0.64055 0.23784 0.0
C529 C 0.19257 0.61209 0.23911 0.0
C530 C 0.15802 0.64416 0.21716 0.0
C531 C 0.13854 0.6721 0.21502 0.0
C532 C 0.10674 0.66827 0.23043 0.0
C533 C 0.08895 0.69504 0.2284 0.0
C534 C 0.10242 0.72554 0.21091 0.0
C535 C 0.13364 0.72929 0.1954 0.0
C536 C 0.1516 0.70268 0.19738 0.0
C537 C 0.16137 0.50083 0.1623 0.0
C538 C 0.19042 0.52367 0.14463 0.0
C539 C 0.15319 0.52288 0.17937 0.0
C540 C 0.17395 0.56805 0.17903 0.0
C541 C 0.20013 0.59065 0.16048 0.0
C542 C 0.20847 0.56867 0.14345 0.0
C543 C 0.17394 0.59197 0.1995 0.0
C544 C 0.15743 0.62003 0.19814 0.0
C545 C 0.19178 0.58802 0.22022 0.0
C546 C 0.21136 0.56026 0.22237 0.0
C547 C 0.24658 0.56759 0.20869 0.0
C548 C 0.26416 0.54063 0.21043 0.0
C549 C 0.24708 0.50651 0.22597 0.0
C550 C 0.21247 0.49939 0.23986 0.0
C551 C 0.19469 0.52619 0.23813 0.0
H552 H 0.26072 0.48566 0.22729 0.0
H553 H 0.08869 0.74626 0.20934 0.0
H554 H 0.52779 0.21005 0.64568 0.0
H555 H 0.56067 0.20345 0.61099 0.0
H556 H 0.47263 0.22545 0.57087 0.0
H557 H 0.43749 0.22938 0.60574 0.0
H558 H 0.48419 0.16624 0.5508 0.0
H559 H 0.57902 0.30722 0.58228 0.0
H560 H 0.62448 0.35999 0.6115 0.0
H561 H 0.70195 0.29992 0.61627 0.0
H562 H 0.65674 0.2466 0.58716 0.0
H563 H 0.62357 0.27716 0.45565 0.0
H564 H 0.5721 0.24635 0.48727 0.0
H565 H 0.64984 0.19871 0.51749 0.0
H566 H 0.70073 0.22886 0.48566 0.0
H567 H 0.64218 0.26141 0.54296 0.0
H568 H 0.55333 0.12835 0.50573 0.0
H569 H 0.50946 0.0792 0.47491 0.0
H570 H 0.42102 0.12661 0.47933 0.0
H571 H 0.46482 0.17675 0.50989 0.0
C572 C 0.515 0.21317 0.62959 0.0
C573 C 0.47992 0.22035 0.62863 0.0
C574 C 0.53411 0.2096 0.60966 0.0
C575 C 0.5196 0.21457 0.58826 0.0
C576 C 0.4844 0.22146 0.58718 0.0
C577 C 0.46465 0.22418 0.60716 0.0
C578 C 0.54238 0.21452 0.56714 0.0
C579 C 0.51868 0.18733 0.54896 0.0
C580 C 0.58755 0.24115 0.56496 0.0
C581 C 0.61435 0.27278 0.58268 0.0
C582 C 0.60558 0.30512 0.58967 0.0
C583 C 0.63138 0.33518 0.60616 0.0
C584 C 0.66615 0.33336 0.61568 0.0
C585 C 0.67508 0.30135 0.60883 0.0
C586 C 0.64943 0.27124 0.59232 0.0
C587 C 0.62852 0.25853 0.46861 0.0
C588 C 0.66581 0.25515 0.46841 0.0
C589 C 0.59915 0.24087 0.48658 0.0
C590 C 0.60722 0.22027 0.50468 0.0
C591 C 0.64292 0.21421 0.50358 0.0
C592 C 0.67192 0.23136 0.48547 0.0
C593 C 0.58406 0.21361 0.5265 0.0
C594 C 0.60775 0.23982 0.54485 0.0
C595 C 0.53899 0.18652 0.52858 0.0
C596 C 0.51273 0.15676 0.50998 0.0
C597 C 0.52485 0.12876 0.49995 0.0
C598 C 0.49991 0.1006 0.48256 0.0
C599 C 0.46256 0.09989 0.47511 0.0
C600 C 0.45002 0.12727 0.48508 0.0
C601 C 0.4749 0.15557 0.50246 0.0
H602 H 0.44327 0.07803 0.46166 0.0
H603 H 0.68621 0.35676 0.62838 0.0
H604 H 0.21481 0.42507 0.93388 0.0
H605 H 0.25567 0.45363 0.89847 0.0
H606 H 0.36605 0.54562 0.93714 0.0
H607 H 0.3261 0.51686 0.97233 0.0
H608 H 0.34388 0.58265 0.90253 0.0
H609 H 0.36871 0.46454 0.9133 0.0
H610 H 0.3477 0.38859 0.91981 0.0
H611 H 0.27704 0.35274 0.85687 0.0
H612 H 0.29708 0.42844 0.85014 0.0
H613 H 0.4827 0.6776 0.81263 0.0
H614 H 0.45933 0.6314 0.84637 0.0
H615 H 0.34525 0.53808 0.81066 0.0
H616 H 0.36891 0.58371 0.77668 0.0
H617 H 0.37307 0.5002 0.84422 0.0
H618 H 0.34008 0.61462 0.83586 0.0
H619 H 0.35822 0.68971 0.82904 0.0
H620 H 0.44058 0.73091 0.88789 0.0
H621 H 0.42354 0.65606 0.89478 0.0
C622 C 0.24783 0.45127 0.93483 0.0
C623 C 0.26689 0.4694 0.95594 0.0
C624 C 0.27118 0.46734 0.91461 0.0
C625 C 0.31385 0.5017 0.91525 0.0
C626 C 0.33308 0.51924 0.93629 0.0
C627 C 0.30997 0.50304 0.95641 0.0
C628 C 0.33773 0.5214 0.89398 0.0
C629 C 0.35094 0.5648 0.88999 0.0
C630 C 0.34591 0.49769 0.87743 0.0
C631 C 0.33409 0.45216 0.88131 0.0
C632 C 0.34839 0.44043 0.90093 0.0
C633 C 0.33671 0.39742 0.90465 0.0
C634 C 0.31099 0.36583 0.88879 0.0
C635 C 0.29695 0.37722 0.86915 0.0
C636 C 0.3085 0.4202 0.86536 0.0
C637 C 0.45363 0.6464 0.81163 0.0
C638 C 0.42713 0.63459 0.79223 0.0
C639 C 0.44023 0.6201 0.83094 0.0
C640 C 0.40013 0.58184 0.83111 0.0
C641 C 0.37617 0.56759 0.8109 0.0
C642 C 0.38955 0.59385 0.79158 0.0
C643 C 0.37953 0.56149 0.85299 0.0
C644 C 0.36655 0.51805 0.85698 0.0
C645 C 0.3711 0.58495 0.8696 0.0
C646 C 0.38098 0.62987 0.86566 0.0
C647 C 0.36234 0.63975 0.84723 0.0
C648 C 0.37239 0.68225 0.84336 0.0
C649 C 0.40063 0.71509 0.85798 0.0
C650 C 0.41879 0.70545 0.87654 0.0
C651 C 0.40897 0.663 0.88043 0.0
H652 H 0.40836 0.74797 0.85497 0.0
H653 H 0.30207 0.33258 0.89169 0.0
H654 H 0.74829 0.21431 0.27191 0.0
H655 H 0.7608 0.25235 0.23581 0.0
H656 H 0.87037 0.36419 0.26513 0.0
H657 H 0.85524 0.32736 0.30181 0.0
H658 H 0.8281 0.3901 0.24511 0.0
H659 H 0.87811 0.29724 0.21868 0.0
H660 H 0.87661 0.22827 0.21338 0.0
H661 H 0.75744 0.17733 0.17668 0.0
H662 H 0.75836 0.2461 0.1815 0.0
H663 H 0.83431 0.49461 0.14442 0.0
H664 H 0.8625 0.45823 0.16807 0.0
H665 H 0.74029 0.34017 0.16366 0.0
H666 H 0.71246 0.37579 0.13923 0.0
H667 H 0.80943 0.32507 0.16831 0.0
H668 H 0.75501 0.41338 0.20417 0.0
H669 H 0.7571 0.48268 0.20953 0.0
H670 H 0.89031 0.54289 0.22894 0.0
H671 H 0.889 0.47393 0.22355 0.0
C672 C 0.77538 0.2468 0.27049 0.0
C673 C 0.80094 0.26787 0.28953 0.0
C674 C 0.78294 0.26842 0.24974 0.0
C675 C 0.81731 0.31095 0.2474 0.0
C676 C 0.8438 0.33138 0.26635 0.0
C677 C 0.83526 0.31028 0.2873 0.0
C678 C 0.8221 0.33567 0.22618 0.0
C679 C 0.82548 0.37626 0.22833 0.0
C680 C 0.81823 0.31782 0.20414 0.0
C681 C 0.81818 0.27679 0.20059 0.0
C682 C 0.85148 0.27128 0.20957 0.0
C683 C 0.85067 0.23217 0.20672 0.0
C684 C 0.81665 0.19825 0.19502 0.0
C685 C 0.78366 0.20356 0.18584 0.0
C686 C 0.78444 0.2427 0.1885 0.0
C687 C 0.81395 0.4605 0.14775 0.0
C688 C 0.77078 0.43829 0.14044 0.0
C689 C 0.83011 0.43978 0.16131 0.0
C690 C 0.80317 0.39678 0.16798 0.0
C691 C 0.76154 0.37344 0.15881 0.0
C692 C 0.74547 0.39401 0.14514 0.0
C693 C 0.81464 0.37854 0.1876 0.0
C694 C 0.81394 0.33927 0.18513 0.0
C695 C 0.82165 0.39774 0.20941 0.0
C696 C 0.82202 0.43874 0.21327 0.0
C697 C 0.78473 0.44145 0.20956 0.0
C698 C 0.78577 0.48063 0.2126 0.0
C699 C 0.82383 0.51717 0.21957 0.0
C700 C 0.86086 0.51456 0.22359 0.0
C701 C 0.85998 0.47545 0.22055 0.0
H702 H 0.82461 0.5475 0.22187 0.0
H703 H 0.8161 0.168 0.19287 0.0
H704 H 0.57172 0.78591 0.602 0.0
H705 H 0.53404 0.78968 0.568 0.0
H706 H 0.43444 0.78658 0.61038 0.0
H707 H 0.47234 0.78484 0.64413 0.0
H708 H 0.40489 0.73056 0.57067 0.0
H709 H 0.50559 0.87696 0.5949 0.0
H710 H 0.57899 0.93444 0.60472 0.0
H711 H 0.62173 0.93045 0.5369 0.0
H712 H 0.54876 0.87189 0.52686 0.0
H713 H 0.33494 0.86387 0.50225 0.0
H714 H 0.38724 0.86332 0.52895 0.0
H715 H 0.38415 0.75796 0.49194 0.0
H716 H 0.33064 0.75662 0.46607 0.0
H717 H 0.46885 0.86777 0.52716 0.0
H718 H 0.37286 0.68341 0.53057 0.0
H719 H 0.29989 0.62342 0.5219 0.0
H720 H 0.24675 0.7047 0.53658 0.0
H721 H 0.3193 0.76492 0.54566 0.0
C722 C 0.54144 0.78532 0.60411 0.0
C723 C 0.52471 0.78425 0.62597 0.0
C724 C 0.5201 0.7876 0.58466 0.0
C725 C 0.48153 0.78829 0.58681 0.0
C726 C 0.464 0.78564 0.60843 0.0
C727 C 0.48562 0.7842 0.62779 0.0
C728 C 0.46005 0.79398 0.56678 0.0
C729 C 0.41903 0.76034 0.56098 0.0
C730 C 0.47851 0.83314 0.55447 0.0
C731 C 0.52182 0.86966 0.5602 0.0
C732 C 0.53069 0.88805 0.58213 0.0
C733 C 0.57223 0.92076 0.58775 0.0
C734 C 0.60502 0.93599 0.57147 0.0
C735 C 0.5963 0.91857 0.54951 0.0
C736 C 0.55487 0.88555 0.54385 0.0
C737 C 0.34563 0.8408 0.4997 0.0
C738 C 0.32811 0.81001 0.48212 0.0
C739 C 0.37595 0.84094 0.51478 0.0
C740 C 0.38915 0.81031 0.5125 0.0
C741 C 0.37416 0.78171 0.49403 0.0
C742 C 0.34368 0.78125 0.47914 0.0
C743 C 0.41361 0.80418 0.53099 0.0
C744 C 0.45504 0.83775 0.53659 0.0
C745 C 0.39547 0.76498 0.54332 0.0
C746 C 0.35152 0.72871 0.53856 0.0
C747 C 0.34555 0.68836 0.53206 0.0
C748 C 0.30429 0.65435 0.52705 0.0
C749 C 0.26873 0.66028 0.52862 0.0
C750 C 0.27433 0.70018 0.53531 0.0
C751 C 0.31551 0.73426 0.54038 0.0
H752 H 0.23682 0.63394 0.52469 0.0
H753 H 0.63715 0.9614 0.57586 0.0
H754 H 0.78729 0.56694 0.94971 0.0
H755 H 0.74701 0.53916 0.9142 0.0
H756 H 0.63358 0.45362 0.95238 0.0
H757 H 0.67291 0.48279 0.98822 0.0
H758 H 0.65467 0.41284 0.91805 0.0
H759 H 0.63087 0.53108 0.92699 0.0
H760 H 0.65 0.6065 0.93356 0.0
H761 H 0.72859 0.64538 0.87338 0.0
H762 H 0.71062 0.57041 0.86666 0.0
H763 H 0.53276 0.32767 0.81881 0.0
H764 H 0.55135 0.36497 0.85545 0.0
H765 H 0.66653 0.4694 0.82587 0.0
H766 H 0.64693 0.43322 0.78891 0.0
H767 H 0.63618 0.49971 0.85798 0.0
H768 H 0.66662 0.38293 0.852 0.0
H769 H 0.64783 0.30756 0.84536 0.0
H770 H 0.5574 0.26601 0.90067 0.0
H771 H 0.57528 0.34114 0.90743 0.0
C772 C 0.75341 0.54326 0.95062 0.0
C773 C 0.73313 0.52779 0.97178 0.0
C774 C 0.73051 0.52714 0.9303 0.0
C775 C 0.68709 0.4946 0.93078 0.0
C776 C 0.66684 0.47892 0.95184 0.0
C777 C 0.68946 0.49556 0.9722 0.0
C778 C 0.66371 0.4751 0.90925 0.0
C779 C 0.64982 0.43158 0.90508 0.0
C780 C 0.65809 0.4998 0.89225 0.0
C781 C 0.66963 0.54514 0.89641 0.0
C782 C 0.65263 0.5558 0.91529 0.0
C783 C 0.66322 0.59849 0.91902 0.0
C784 C 0.69056 0.63077 0.90392 0.0
C785 C 0.70767 0.62047 0.88516 0.0
C786 C 0.69719 0.57785 0.88133 0.0
C787 C 0.56122 0.35919 0.81987 0.0
C788 C 0.58878 0.37699 0.80102 0.0
C789 C 0.5721 0.38034 0.84093 0.0
C790 C 0.61104 0.41938 0.8436 0.0
C791 C 0.6366 0.43906 0.82433 0.0
C792 C 0.62553 0.41813 0.80324 0.0
C793 C 0.6275 0.43748 0.86664 0.0
C794 C 0.64035 0.48077 0.87108 0.0
C795 C 0.63233 0.4126 0.88394 0.0
C796 C 0.62192 0.36753 0.88005 0.0
C797 C 0.64254 0.35767 0.86265 0.0
C798 C 0.63208 0.31501 0.85887 0.0
C799 C 0.60134 0.282 0.87254 0.0
C800 C 0.58113 0.2916 0.89007 0.0
C801 C 0.59142 0.33421 0.89388 0.0
H802 H 0.59327 0.24899 0.86959 0.0
H803 H 0.69843 0.66374 0.90673 0.0
H804 H 0.32586 0.42164 0.0553 0.0
H805 H 0.40469 0.45565 0.05614 0.0
H806 H 0.41021 0.48713 0.98486 0.0
H807 H 0.3314 0.44917 0.98339 0.0
H808 H 0.45677 0.44364 0.00184 0.0
H809 H 0.5035 0.61546 0.01704 0.0
H810 H 0.48096 0.66249 0.03589 0.0
H811 H 0.41941 0.56855 0.08886 0.0
H812 H 0.44363 0.52227 0.07101 0.0
H813 H 0.68181 0.57586 0.98164 0.0
H814 H 0.6038 0.54599 0.98132 0.0
H815 H 0.60608 0.56574 0.05406 0.0
H816 H 0.68426 0.59826 0.0541 0.0
H817 H 0.55465 0.58555 0.03695 0.0
H818 H 0.57283 0.46098 0.02507 0.0
H819 H 0.59234 0.41145 0.0061 0.0
H820 H 0.52513 0.41224 0.94581 0.0
H821 H 0.50585 0.46209 0.96426 0.0
C822 C 0.34407 0.43562 0.03983 0.0
C823 C 0.32285 0.4332 0.01932 0.0
C824 C 0.38904 0.45615 0.04048 0.0
C825 C 0.41337 0.47653 0.02095 0.0
C826 C 0.39203 0.47298 0.00031 0.0
C827 C 0.34711 0.45092 0.99943 0.0
C828 C 0.46078 0.49651 0.02107 0.0
C829 C 0.47833 0.47473 0.0095 0.0
C830 C 0.48869 0.53712 0.03105 0.0
C831 C 0.47318 0.56413 0.04194 0.0
C832 C 0.48492 0.60473 0.03264 0.0
C833 C 0.47227 0.63152 0.04329 0.0
C834 C 0.44811 0.61818 0.06335 0.0
C835 C 0.43732 0.57843 0.07305 0.0
C836 C 0.45032 0.55177 0.06259 0.0
C837 C 0.66567 0.5744 0.9975 0.0
C838 C 0.68889 0.5884 0.01804 0.0
C839 C 0.62096 0.55664 0.99735 0.0
C840 C 0.5987 0.5522 0.01779 0.0
C841 C 0.62231 0.56826 0.03808 0.0
C842 C 0.667 0.58673 0.03813 0.0
C843 C 0.55104 0.53211 0.01822 0.0
C844 C 0.53333 0.55421 0.02948 0.0
C845 C 0.52297 0.49183 0.00788 0.0
C846 C 0.53828 0.46548 0.99604 0.0
C847 C 0.56293 0.4511 0.00768 0.0
C848 C 0.57357 0.42272 0.9971 0.0
C849 C 0.55942 0.40827 0.97496 0.0
C850 C 0.53565 0.42309 0.96307 0.0
C851 C 0.52497 0.45148 0.97356 0.0
H852 H 0.56734 0.38597 0.9669 0.0
H853 H 0.43815 0.63884 0.07152 0.0
H854 H 0.09684 0.67109 0.31331 0.0
H855 H 0.05359 0.59264 0.31108 0.0
H856 H 0.01675 0.58785 0.38147 0.0
H857 H 0.06015 0.66668 0.38372 0.0
H858 H 0.05567 0.54012 0.3727 0.0
H859 H 0.94299 0.55782 0.33973 0.0
H860 H 0.91031 0.5851 0.31225 0.0
H861 H 0.93994 0.52511 0.25733 0.0
H862 H 0.97333 0.49794 0.28445 0.0
H863 H 0.90676 0.32035 0.38738 0.0
H864 H 0.95361 0.39808 0.385 0.0
H865 H 0.96237 0.38854 0.31205 0.0
H866 H 0.91403 0.31081 0.31429 0.0
H867 H 0.94002 0.44404 0.31957 0.0
H868 H 0.05231 0.42621 0.34958 0.0
H869 H 0.09051 0.40128 0.37471 0.0
H870 H 0.0708 0.4645 0.43171 0.0
H871 H 0.03191 0.48929 0.40701 0.0
C872 C 0.07884 0.6534 0.32819 0.0
C873 C 0.08314 0.6747 0.34899 0.0
C874 C 0.05395 0.60854 0.32684 0.0
C875 C 0.0323 0.58435 0.34617 0.0
C876 C 0.03355 0.60592 0.3664 0.0
C877 C 0.05845 0.65084 0.36772 0.0
C878 C 0.01304 0.53683 0.34614 0.0
C879 C 0.03013 0.51905 0.36129 0.0
C880 C 0.98091 0.5096 0.33047 0.0
C881 C 0.96114 0.52626 0.31412 0.0
C882 C 0.94297 0.55082 0.32177 0.0
C883 C 0.92418 0.56616 0.30626 0.0
C884 C 0.92313 0.55693 0.28305 0.0
C885 C 0.94078 0.53227 0.27531 0.0
C886 C 0.95962 0.51687 0.29075 0.0
C887 C 0.91977 0.33464 0.37092 0.0
C888 C 0.90573 0.30965 0.35098 0.0
C889 C 0.94676 0.37924 0.36955 0.0
C890 C 0.96131 0.39949 0.34828 0.0
C891 C 0.95107 0.37384 0.32862 0.0
C892 C 0.92372 0.32925 0.32996 0.0
C893 C 0.98273 0.44723 0.34643 0.0
C894 C 0.96609 0.46513 0.33088 0.0
C895 C 0.01623 0.47492 0.36136 0.0
C896 C 0.03874 0.45922 0.37645 0.0
C897 C 0.05567 0.43439 0.36752 0.0
C898 C 0.07757 0.42038 0.38168 0.0
C899 C 0.08297 0.43119 0.4048 0.0
C900 C 0.06652 0.45607 0.41381 0.0
C901 C 0.04455 0.47012 0.39973 0.0
H902 H 0.1 0.42037 0.41573 0.0
H903 H 0.90856 0.56884 0.27109 0.0
H904 H 0.36062 0.04789 0.68963 0.0
H905 H 0.38558 0.99668 0.68177 0.0
H906 H 0.50995 0.10263 0.66212 0.0
H907 H 0.48355 0.15224 0.66799 0.0
H908 H 0.49449 0.04075 0.63637 0.0
H909 H 0.48032 0.05159 0.71926 0.0
H910 H 0.43879 0.04312 0.75437 0.0
H911 H 0.35683 0.90854 0.73964 0.0
H912 H 0.3977 0.9167 0.70434 0.0
H913 H 0.61339 0.94345 0.70302 0.0
H914 H 0.57611 0.98477 0.69927 0.0
H915 H 0.51405 0.9147 0.63786 0.0
H916 H 0.55181 0.87392 0.64145 0.0
H917 H 0.48905 0.94909 0.70087 0.0
H918 H 0.49374 0.98486 0.60451 0.0
H919 H 0.54139 0.00095 0.57119 0.0
H920 H 0.65138 0.04897 0.61538 0.0
H921 H 0.60452 0.03375 0.64892 0.0
C922 C 0.39307 0.05988 0.68344 0.0
C923 C 0.42079 0.10409 0.67994 0.0
C924 C 0.40741 0.03073 0.67903 0.0
C925 C 0.45003 0.04578 0.67177 0.0
C926 C 0.47694 0.08994 0.66764 0.0
C927 C 0.46213 0.11855 0.67133 0.0
C928 C 0.46835 0.01686 0.66981 0.0
C929 C 0.49277 0.02015 0.65036 0.0
C930 C 0.4662 0.98989 0.68797 0.0
C931 C 0.44176 0.98495 0.70916 0.0
C932 C 0.45333 0.02038 0.72355 0.0
C933 C 0.42992 0.0156 0.74343 0.0
C934 C 0.3951 0.97531 0.74921 0.0
C935 C 0.38374 0.93974 0.73513 0.0
C936 C 0.40702 0.94445 0.71519 0.0
C937 C 0.59218 0.93741 0.68862 0.0
C938 C 0.58449 0.90505 0.67283 0.0
C939 C 0.57094 0.96085 0.68648 0.0
C940 C 0.54204 0.95242 0.66842 0.0
C941 C 0.53622 0.92168 0.65191 0.0
C942 C 0.55767 0.89839 0.654 0.0
C943 C 0.5161 0.97392 0.66783 0.0
C944 C 0.4899 0.96871 0.68666 0.0
C945 C 0.51712 0.99945 0.64924 0.0
C946 C 0.5455 0.00766 0.62923 0.0
C947 C 0.52809 0.99885 0.6071 0.0
C948 C 0.55498 0.00797 0.58818 0.0
C949 C 0.59939 0.02611 0.59117 0.0
C950 C 0.61698 0.03494 0.61309 0.0
C951 C 0.59024 0.02594 0.63207 0.0
H952 H 0.62015 0.03314 0.5765 0.0
H953 H 0.37699 0.97163 0.76462 0.0
H954 H 0.59563 0.68946 0.64077 0.0
H955 H 0.57341 0.61279 0.63952 0.0
H956 H 0.52987 0.59824 0.70918 0.0
H957 H 0.55246 0.67438 0.71079 0.0
H958 H 0.57118 0.55314 0.70068 0.0
H959 H 0.4603 0.5748 0.66496 0.0
H960 H 0.43428 0.60662 0.63617 0.0
H961 H 0.47303 0.55191 0.58255 0.0
H962 H 0.49977 0.52017 0.61099 0.0
H963 H 0.42738 0.333 0.71373 0.0
H964 H 0.45728 0.4109 0.7112 0.0
H965 H 0.47868 0.40631 0.63908 0.0
H966 H 0.44665 0.32811 0.64136 0.0
H967 H 0.4551 0.46211 0.64605 0.0
H968 H 0.5596 0.43432 0.68022 0.0
H969 H 0.58673 0.40172 0.70788 0.0
H970 H 0.5647 0.46767 0.76264 0.0
H971 H 0.53669 0.50012 0.7354 0.0
C972 C 0.58177 0.67005 0.6559 0.0
C973 C 0.57525 0.68798 0.67576 0.0
C974 C 0.56902 0.62626 0.65513 0.0
C975 C 0.54951 0.59983 0.67418 0.0
C976 C 0.54478 0.61808 0.69428 0.0
C977 C 0.55745 0.66164 0.69508 0.0
C978 C 0.53147 0.55266 0.67301 0.0
C979 C 0.54569 0.53312 0.68882 0.0
C980 C 0.49906 0.52682 0.6571 0.0
C981 C 0.48242 0.54548 0.64008 0.0
C982 C 0.46351 0.56978 0.64703 0.0
C983 C 0.44862 0.58778 0.63078 0.0
C984 C 0.45213 0.58142 0.60757 0.0
C985 C 0.4704 0.55689 0.60054 0.0
C986 C 0.4854 0.53885 0.6167 0.0
C987 C 0.43788 0.34863 0.6973 0.0
C988 C 0.43502 0.32477 0.67777 0.0
C989 C 0.45527 0.39311 0.69589 0.0
C990 C 0.47143 0.4146 0.67507 0.0
C991 C 0.4667 0.39047 0.65535 0.0
C992 C 0.44831 0.34581 0.65665 0.0
C993 C 0.49424 0.46229 0.67401 0.0
C994 C 0.48095 0.48198 0.65777 0.0
C995 C 0.52799 0.48826 0.68933 0.0
C996 C 0.54579 0.46952 0.70573 0.0
C997 C 0.56035 0.44176 0.69817 0.0
C998 C 0.57584 0.42325 0.71377 0.0
C999 C 0.57738 0.4326 0.73698 0.0
C1000 C 0.56347 0.46048 0.74465 0.0
C1001 C 0.54782 0.47898 0.72913 0.0
H1002 H 0.5895 0.41836 0.74902 0.0
H1003 H 0.4406 0.59541 0.59503 0.0
H1004 H 0.12258 0.44575 0.96813 0.0
H1005 H 0.07138 0.47161 0.96706 0.0
H1006 H 0.01595 0.4058 0.03052 0.0
H1007 H 0.07084 0.38448 0.0328 0.0
H1008 H 0.99726 0.45407 0.96557 0.0
H1009 H 0.98439 0.45525 0.06381 0.0
H1010 H 0.02662 0.45826 0.09775 0.0
H1011 H 0.14369 0.52561 0.05916 0.0
H1012 H 0.10201 0.52348 0.02519 0.0
H1013 H 0.84703 0.51901 0.98958 0.0
H1014 H 0.88953 0.48357 0.98599 0.0
H1015 H 0.99296 0.58729 0.02392 0.0
H1016 H 0.9477 0.62001 0.0297 0.0
H1017 H 0.98916 0.5218 0.03769 0.0
H1018 H 0.9921 0.56867 0.96151 0.0
H1019 H 0.96309 0.57853 0.92532 0.0
H1020 H 0.89068 0.44142 0.91569 0.0
H1021 H 0.91883 0.4307 0.95198 0.0
C1022 C 0.09866 0.43598 0.98151 0.0
C1023 C 0.10087 0.41409 0.00077 0.0
C1024 C 0.06941 0.45084 0.98097 0.0
C1025 C 0.04093 0.44242 0.99927 0.0
C1026 C 0.03911 0.41484 0.01682 0.0
C1027 C 0.06983 0.40193 0.01795 0.0
C1028 C 0.01625 0.46551 0.0009 0.0
C1029 C 0.99562 0.46897 0.98133 0.0
C1030 C 0.01498 0.48619 0.02127 0.0
C1031 C 0.04013 0.48858 0.04188 0.0
C1032 C 0.01914 0.47081 0.06263 0.0
C1033 C 0.04296 0.47234 0.08186 0.0
C1034 C 0.0878 0.49187 0.08058 0.0
C1035 C 0.10895 0.51024 0.06011 0.0
C1036 C 0.08527 0.50884 0.04087 0.0
C1037 C 0.8791 0.5343 0.9969 0.0
C1038 C 0.89453 0.57204 0.00981 0.0
C1039 C 0.90359 0.51429 0.99469 0.0
C1040 C 0.9451 0.53312 0.00417 0.0
C1041 C 0.96104 0.57194 0.01647 0.0
C1042 C 0.93556 0.59089 0.01961 0.0
C1043 C 0.9708 0.51114 0.00221 0.0
C1044 C 0.99119 0.50742 0.02182 0.0
C1045 C 0.97413 0.4926 0.98151 0.0
C1046 C 0.95734 0.49889 0.95957 0.0
C1047 C 0.96981 0.54062 0.95174 0.0
C1048 C 0.95353 0.54635 0.9312 0.0
C1049 C 0.92499 0.51062 0.91824 0.0
C1050 C 0.91277 0.46907 0.92576 0.0
C1051 C 0.92892 0.46314 0.9463 0.0
H1052 H 0.91241 0.51513 0.90235 0.0
H1053 H 0.10618 0.49292 0.09547 0.0
H1054 H 0.31671 0.88147 0.30849 0.0
H1055 H 0.39393 0.93453 0.30818 0.0
H1056 H 0.39733 0.928 0.38154 0.0
H1057 H 0.32047 0.87615 0.38204 0.0
H1058 H 0.44449 0.00841 0.36822 0.0
H1059 H 0.43476 0.87449 0.3494 0.0
H1060 H 0.40967 0.8062 0.32871 0.0
H1061 H 0.45904 0.87579 0.26607 0.0
H1062 H 0.48477 0.94465 0.2865 0.0
H1063 H 0.67063 0.10322 0.38143 0.0
H1064 H 0.5937 0.04926 0.38152 0.0
H1065 H 0.58902 0.06279 0.30866 0.0
H1066 H 0.66575 0.1165 0.30848 0.0
H1067 H 0.54267 0.97882 0.32204 0.0
H1068 H 0.5564 0.11525 0.34533 0.0
H1069 H 0.58432 0.17997 0.36973 0.0
H1070 H 0.52742 0.09991 0.42849 0.0
H1071 H 0.49979 0.03484 0.40449 0.0
C1072 C 0.33385 0.89176 0.32454 0.0
C1073 C 0.31257 0.8743 0.34525 0.0
C1074 C 0.378 0.9218 0.32434 0.0
C1075 C 0.40151 0.9347 0.34483 0.0
C1076 C 0.37992 0.91842 0.36553 0.0
C1077 C 0.33597 0.88853 0.36575 0.0
C1078 C 0.44877 0.9644 0.34481 0.0
C1079 C 0.46599 0.00176 0.35827 0.0
C1080 C 0.47683 0.95578 0.33184 0.0
C1081 C 0.4612 0.91461 0.31941 0.0
C1082 C 0.43996 0.87519 0.33118 0.0
C1083 C 0.42569 0.8364 0.31951 0.0
C1084 C 0.4324 0.8366 0.29604 0.0
C1085 C 0.45373 0.87567 0.28424 0.0
C1086 C 0.46831 0.91461 0.29587 0.0
C1087 C 0.65322 0.09414 0.36542 0.0
C1088 C 0.67411 0.11372 0.34494 0.0
C1089 C 0.60932 0.06358 0.3655 0.0
C1090 C 0.58556 0.05256 0.34513 0.0
C1091 C 0.60678 0.07086 0.32455 0.0
C1092 C 0.65067 0.10129 0.32445 0.0
C1093 C 0.53833 0.023 0.34527 0.0
C1094 C 0.52113 0.9856 0.33187 0.0
C1095 C 0.51041 0.03112 0.35875 0.0
C1096 C 0.52651 0.07026 0.37314 0.0
C1097 C 0.55022 0.11155 0.36348 0.0
C1098 C 0.56594 0.14824 0.37723 0.0
C1099 C 0.55783 0.14404 0.40065 0.0
C1100 C 0.53379 0.10313 0.41036 0.0
C1101 C 0.51807 0.06634 0.39668 0.0
H1102 H 0.57006 0.17247 0.41127 0.0
H1103 H 0.42125 0.80651 0.28703 0.0
H1104 H 0.30494 0.21346 0.72315 0.0
H1105 H 0.26815 0.21108 0.75852 0.0
H1106 H 0.32603 0.14512 0.7917 0.0
H1107 H 0.36369 0.14806 0.75641 0.0
H1108 H 0.21227 0.15022 0.78868 0.0
H1109 H 0.35727 0.1869 0.84385 0.0
H1110 H 0.43429 0.21134 0.83791 0.0
H1111 H 0.43818 0.29048 0.78193 0.0
H1112 H 0.36174 0.26731 0.78791 0.0
H1113 H 0.17924 0.15609 0.91126 0.0
H1114 H 0.20923 0.14336 0.87666 0.0
H1115 H 0.24603 0.2707 0.85262 0.0
H1116 H 0.21354 0.28293 0.88621 0.0
H1117 H 0.3116 0.23123 0.85234 0.0
H1118 H 0.17499 0.21956 0.82664 0.0
H1119 H 0.09664 0.18996 0.83044 0.0
H1120 H 0.07578 0.06132 0.8262 0.0
H1121 H 0.15417 0.09027 0.82273 0.0
C1122 C 0.30936 0.19781 0.73784 0.0
C1123 C 0.33774 0.1815 0.73707 0.0
C1124 C 0.28812 0.19633 0.75804 0.0
C1125 C 0.29486 0.17852 0.77782 0.0
C1126 C 0.32094 0.15964 0.7767 0.0
C1127 C 0.34254 0.16148 0.75656 0.0
C1128 C 0.27836 0.184 0.79998 0.0
C1129 C 0.23398 0.16774 0.8026 0.0
C1130 C 0.30666 0.207 0.81817 0.0
C1131 C 0.35379 0.22508 0.8162 0.0
C1132 C 0.37484 0.21008 0.83053 0.0
C1133 C 0.41837 0.22362 0.82712 0.0
C1134 C 0.4411 0.25222 0.80947 0.0
C1135 C 0.42069 0.26829 0.79558 0.0
C1136 C 0.37729 0.25508 0.79902 0.0
C1137 C 0.19327 0.18134 0.89857 0.0
C1138 C 0.19361 0.22051 0.90161 0.0
C1139 C 0.21077 0.17409 0.87893 0.0
C1140 C 0.22968 0.20613 0.86224 0.0
C1141 C 0.23166 0.24575 0.86548 0.0
C1142 C 0.21333 0.25273 0.88483 0.0
C1143 C 0.24571 0.19767 0.84085 0.0
C1144 C 0.28995 0.21337 0.83845 0.0
C1145 C 0.21736 0.17439 0.82284 0.0
C1146 C 0.17036 0.15702 0.82473 0.0
C1147 C 0.15371 0.18496 0.82677 0.0
C1148 C 0.10931 0.16832 0.8288 0.0
C1149 C 0.08125 0.12378 0.82864 0.0
C1150 C 0.09755 0.0958 0.82637 0.0
C1151 C 0.14194 0.11231 0.82436 0.0
H1152 H 0.04689 0.11094 0.83021 0.0
H1153 H 0.4744 0.26161 0.80647 0.0
H1154 H 0.96066 0.25925 0.23698 0.0
H1155 H 0.00461 0.29738 0.2039 0.0
H1156 H 0.99271 0.17904 0.17871 0.0
H1157 H 0.94647 0.13991 0.21081 0.0
H1158 H 0.07999 0.25261 0.17973 0.0
H1159 H 0.93779 0.20941 0.15201 0.0
H1160 H 0.86593 0.20259 0.152 0.0
H1161 H 0.924 0.34032 0.15398 0.0
H1162 H 0.99638 0.34796 0.15393 0.0
H1163 H 0.14529 0.29516 0.06465 0.0
H1164 H 0.10564 0.26606 0.10019 0.0
H1165 H 0.11369 0.38808 0.1141 0.0
H1166 H 0.15236 0.41667 0.07802 0.0
H1167 H 0.0319 0.31888 0.12089 0.0
H1168 H 0.17512 0.36121 0.14475 0.0
H1169 H 0.24616 0.36605 0.14228 0.0
H1170 H 0.18551 0.22839 0.14713 0.0
H1171 H 0.11414 0.22269 0.14939 0.0
C1172 C 0.9666 0.24098 0.22427 0.0
C1173 C 0.94979 0.19625 0.22678 0.0
C1174 C 0.99211 0.26302 0.20545 0.0
C1175 C 0.00197 0.241 0.18895 0.0
C1176 C 0.98571 0.19663 0.19139 0.0
C1177 C 0.95949 0.17439 0.20992 0.0
C1178 C 0.0292 0.26415 0.16906 0.0
C1179 C 0.06941 0.26686 0.16676 0.0
C1180 C 0.01576 0.2836 0.1525 0.0
C1181 C 0.97245 0.27924 0.15323 0.0
C1182 C 0.93524 0.23824 0.15268 0.0
C1183 C 0.89444 0.23423 0.15255 0.0
C1184 C 0.89041 0.27102 0.15299 0.0
C1185 C 0.9272 0.31188 0.15361 0.0
C1186 C 0.96813 0.31607 0.1536 0.0
C1187 C 0.13834 0.31557 0.07519 0.0
C1188 C 0.15204 0.35813 0.06873 0.0
C1189 C 0.11612 0.29915 0.09563 0.0
C1190 C 0.10714 0.32507 0.10995 0.0
C1191 C 0.12049 0.3676 0.10339 0.0
C1192 C 0.14289 0.38402 0.08294 0.0
C1193 C 0.08261 0.30701 0.13137 0.0
C1194 C 0.04286 0.30522 0.13399 0.0
C1195 C 0.09645 0.28832 0.1482 0.0
C1196 C 0.1393 0.29154 0.14702 0.0
C1197 C 0.17696 0.33198 0.14509 0.0
C1198 C 0.21725 0.33488 0.14377 0.0
C1199 C 0.22031 0.29756 0.14445 0.0
C1200 C 0.18308 0.25727 0.14656 0.0
C1201 C 0.14271 0.25419 0.14791 0.0
H1202 H 0.25152 0.29987 0.14341 0.0
H1203 H 0.85879 0.26786 0.15285 0.0
H1204 H 0.72475 0.90871 0.54301 0.0
H1205 H 0.73127 0.95254 0.50972 0.0
H1206 H 0.84002 0.06232 0.54061 0.0
H1207 H 0.83311 0.01886 0.57428 0.0
H1208 H 0.78227 0.08286 0.51995 0.0
H1209 H 0.85782 0.00739 0.50103 0.0
H1210 H 0.86484 0.94274 0.49694 0.0
H1211 H 0.76032 0.88936 0.44896 0.0
H1212 H 0.75228 0.95346 0.45301 0.0
H1213 H 0.84377 0.20989 0.41967 0.0
H1214 H 0.84526 0.17144 0.45389 0.0
H1215 H 0.75649 0.05023 0.42188 0.0
H1216 H 0.75826 0.08863 0.38708 0.0
H1217 H 0.8077 0.03763 0.44437 0.0
H1218 H 0.72888 0.11038 0.46381 0.0
H1219 H 0.7207 0.17446 0.4675 0.0
H1220 H 0.82679 0.23096 0.51447 0.0
H1221 H 0.83605 0.16756 0.51077 0.0
C1222 C 0.74979 0.94229 0.54285 0.0
C1223 C 0.77858 0.96023 0.56126 0.0
C1224 C 0.75364 0.96722 0.52375 0.0
C1225 C 0.78642 0.01055 0.5226 0.0
C1226 C 0.8146 0.02889 0.54113 0.0
C1227 C 0.81087 0.00392 0.56025 0.0
C1228 C 0.79192 0.03627 0.50176 0.0
C1229 C 0.78827 0.07333 0.50342 0.0
C1230 C 0.79896 0.02331 0.48019 0.0
C1231 C 0.80425 0.98508 0.47746 0.0
C1232 C 0.83617 0.98176 0.48971 0.0
C1233 C 0.84035 0.94522 0.48739 0.0
C1234 C 0.81299 0.91193 0.47273 0.0
C1235 C 0.78147 0.91516 0.46031 0.0
C1236 C 0.77712 0.95161 0.4626 0.0
C1237 C 0.82492 0.17501 0.42004 0.0
C1238 C 0.80063 0.15205 0.401 0.0
C1239 C 0.8254 0.15303 0.43963 0.0
C1240 C 0.79987 0.10784 0.44088 0.0
C1241 C 0.77633 0.08502 0.42152 0.0
C1242 C 0.77718 0.1069 0.40166 0.0
C1243 C 0.79719 0.08411 0.46227 0.0
C1244 C 0.80153 0.04735 0.46079 0.0
C1245 C 0.79016 0.09708 0.48396 0.0
C1246 C 0.7834 0.13439 0.48685 0.0
C1247 C 0.75049 0.13651 0.47489 0.0
C1248 C 0.74571 0.17274 0.47697 0.0
C1249 C 0.77332 0.20682 0.49116 0.0
C1250 C 0.8055 0.20458 0.50346 0.0
C1251 C 0.81052 0.16851 0.50138 0.0
H1252 H 0.76988 0.23501 0.49265 0.0
H1253 H 0.81625 0.88365 0.47097 0.0
H1254 H 0.62701 0.83803 0.75382 0.0
H1255 H 0.64573 0.81881 0.79045 0.0
H1256 H 0.70159 0.75301 0.75519 0.0
H1257 H 0.68303 0.7719 0.71864 0.0
H1258 H 0.65061 0.70677 0.79262 0.0
H1259 H 0.76483 0.85091 0.77357 0.0
H1260 H 0.79296 0.92716 0.76352 0.0
H1261 H 0.74398 0.94707 0.82634 0.0
H1262 H 0.71486 0.87063 0.83657 0.0
H1263 H 0.82157 0.7181 0.8578 0.0
H1264 H 0.7751 0.72577 0.82977 0.0
H1265 H 0.72076 0.76687 0.88298 0.0
H1266 H 0.76656 0.75784 0.91129 0.0
H1267 H 0.75836 0.82392 0.84184 0.0
H1268 H 0.64676 0.6819 0.86208 0.0
H1269 H 0.61238 0.60441 0.87114 0.0
H1270 H 0.65565 0.58116 0.80731 0.0
H1271 H 0.68947 0.65843 0.79765 0.0
C1272 C 0.64308 0.81928 0.7539 0.0
C1273 C 0.65378 0.80667 0.73337 0.0
C1274 C 0.6537 0.80834 0.7748 0.0
C1275 C 0.6751 0.78462 0.77546 0.0
C1276 C 0.6849 0.77118 0.75501 0.0
C1277 C 0.67454 0.78228 0.73414 0.0
C1278 C 0.68937 0.77543 0.79732 0.0
C1279 C 0.67419 0.73235 0.80338 0.0
C1280 C 0.7191 0.80887 0.81167 0.0
C1281 C 0.73724 0.85496 0.80571 0.0
C1282 C 0.75977 0.87146 0.78516 0.0
C1283 C 0.77593 0.91472 0.77944 0.0
C1284 C 0.77017 0.94192 0.79426 0.0
C1285 C 0.74835 0.92593 0.81486 0.0
C1286 C 0.73201 0.88265 0.82063 0.0
C1287 C 0.79933 0.72832 0.86346 0.0
C1288 C 0.79734 0.73744 0.8865 0.0
C1289 C 0.77272 0.73242 0.84756 0.0
C1290 C 0.74437 0.74652 0.85441 0.0
C1291 C 0.74224 0.7556 0.87748 0.0
C1292 C 0.76832 0.7506 0.89353 0.0
C1293 C 0.72026 0.75527 0.83685 0.0
C1294 C 0.73391 0.79833 0.83142 0.0
C1295 C 0.68905 0.72188 0.82311 0.0
C1296 C 0.67084 0.6759 0.82923 0.0
C1297 C 0.64916 0.66028 0.85005 0.0
C1298 C 0.62943 0.61637 0.85518 0.0
C1299 C 0.63187 0.58791 0.83982 0.0
C1300 C 0.65381 0.60326 0.8192 0.0
C1301 C 0.67299 0.64705 0.81381 0.0
H1302 H 0.61673 0.55397 0.84389 0.0
H1303 H 0.78269 0.97541 0.7898 0.0
H1304 H 0.07187 0.86196 0.20349 0.0
H1305 H 0.02677 0.82351 0.17077 0.0
H1306 H 0.97254 0.70397 0.20816 0.0
H1307 H 0.01811 0.7424 0.24098 0.0
H1308 H 0.98856 0.69207 0.16513 0.0
H1309 H 0.91584 0.75681 0.20155 0.0
H1310 H 0.90904 0.81581 0.21883 0.0
H1311 H 0.94468 0.88442 0.15528 0.0
H1312 H 0.95229 0.82611 0.1377 0.0
H1313 H 0.80163 0.64782 0.07871 0.0
H1314 H 0.83495 0.66726 0.11666 0.0
H1315 H 0.95732 0.69774 0.08729 0.0
H1316 H 0.9236 0.67721 0.04952 0.0
H1317 H 0.89703 0.74425 0.13022 0.0
H1318 H 0.01704 0.67969 0.12702 0.0
H1319 H 0.02078 0.61834 0.11062 0.0
H1320 H 0.88278 0.54275 0.10983 0.0
H1321 H 0.87802 0.60325 0.12665 0.0
C1322 C 0.05013 0.82753 0.2048 0.0
C1323 C 0.0482 0.80526 0.22488 0.0
C1324 C 0.02439 0.80556 0.18608 0.0
C1325 C 0.99568 0.76094 0.18713 0.0
C1326 C 0.99431 0.73841 0.20699 0.0
C1327 C 0.02031 0.76039 0.22572 0.0
C1328 C 0.96695 0.73819 0.1675 0.0
C1329 C 0.96839 0.70331 0.15753 0.0
C1330 C 0.93985 0.75222 0.15789 0.0
C1331 C 0.9349 0.78719 0.16835 0.0
C1332 C 0.92247 0.7846 0.1913 0.0
C1333 C 0.91845 0.81791 0.20114 0.0
C1334 C 0.92649 0.85387 0.18817 0.0
C1335 C 0.93847 0.85655 0.16531 0.0
C1336 C 0.94259 0.82335 0.15539 0.0
C1337 C 0.8353 0.65742 0.0806 0.0
C1338 C 0.85994 0.65998 0.06153 0.0
C1339 C 0.85441 0.66895 0.10216 0.0
C1340 C 0.89852 0.68337 0.10488 0.0
C1341 C 0.92309 0.68586 0.0857 0.0
C1342 C 0.90396 0.67441 0.06417 0.0
C1343 C 0.91965 0.69901 0.12739 0.0
C1344 C 0.91681 0.73262 0.13791 0.0
C1345 C 0.94489 0.68333 0.13764 0.0
C1346 C 0.94724 0.64628 0.12793 0.0
C1347 C 0.98746 0.6499 0.12349 0.0
C1348 C 0.98973 0.61526 0.11411 0.0
C1349 C 0.952 0.57672 0.10914 0.0
C1350 C 0.9119 0.57267 0.11365 0.0
C1351 C 0.90941 0.60716 0.12309 0.0
H1352 H 0.95383 0.54997 0.10183 0.0
H1353 H 0.92337 0.87964 0.19583 0.0
H1354 H 0.18406 0.988 0.57263 0.0
H1355 H 0.18053 0.94632 0.53903 0.0
H1356 H 0.30218 0.05127 0.51576 0.0
H1357 H 0.30475 0.09413 0.54865 0.0
H1358 H 0.24856 0.02358 0.48215 0.0
H1359 H 0.29137 0.95492 0.53711 0.0
H1360 H 0.28968 0.91825 0.57298 0.0
H1361 H 0.16367 0.81383 0.55635 0.0
H1362 H 0.16432 0.85012 0.52052 0.0
H1363 H 0.25376 0.89827 0.3895 0.0
H1364 H 0.27152 0.94108 0.42445 0.0
H1365 H 0.15078 0.84581 0.45415 0.0
H1366 H 0.13393 0.80204 0.41944 0.0
H1367 H 0.21284 0.87102 0.48457 0.0
H1368 H 0.1665 0.94901 0.43393 0.0
H1369 H 0.16861 0.98631 0.3983 0.0
H1370 H 0.30476 0.07131 0.40644 0.0
H1371 H 0.30306 0.03524 0.44263 0.0
C1372 C 0.20999 0.00238 0.56032 0.0
C1373 C 0.24461 0.04456 0.56338 0.0
C1374 C 0.20825 0.9782 0.54126 0.0
C1375 C 0.2414 0.99536 0.52497 0.0
C1376 C 0.27632 0.03721 0.52813 0.0
C1377 C 0.2779 0.06156 0.54709 0.0
C1378 C 0.23812 0.97074 0.50394 0.0
C1379 C 0.24157 0.99044 0.48275 0.0
C1380 C 0.22842 0.92729 0.50456 0.0
C1381 C 0.22774 0.90549 0.52621 0.0
C1382 C 0.26312 0.92433 0.54119 0.0
C1383 C 0.26239 0.90356 0.5615 0.0
C1384 C 0.22654 0.86379 0.56697 0.0
C1385 C 0.19139 0.84466 0.55211 0.0
C1386 C 0.19195 0.8653 0.53179 0.0
C1387 C 0.23099 0.88668 0.40349 0.0
C1388 C 0.19252 0.84699 0.40192 0.0
C1389 C 0.24106 0.91119 0.42342 0.0
C1390 C 0.21221 0.89706 0.44187 0.0
C1391 C 0.17356 0.85742 0.44017 0.0
C1392 C 0.16385 0.83252 0.42037 0.0
C1393 C 0.22215 0.92346 0.46294 0.0
C1394 C 0.22019 0.9042 0.48407 0.0
C1395 C 0.23355 0.96735 0.46233 0.0
C1396 C 0.2347 0.98928 0.44078 0.0
C1397 C 0.19686 0.9756 0.42806 0.0
C1398 C 0.198 0.99654 0.40778 0.0
C1399 C 0.2369 0.03081 0.39989 0.0
C1400 C 0.27467 0.04467 0.4125 0.0
C1401 C 0.27358 0.02422 0.433 0.0
H1402 H 0.23772 0.04678 0.38408 0.0
H1403 H 0.22605 0.84776 0.58269 0.0
loop_
_geom_bond_atom_site_label_1
_geom_bond_atom_site_label_2
_geom_bond_distance
_geom_bond_site_symmetry_2
_ccdc_geom_bond_type
Tb0 N29 2.617 . S
Tb0 N35 2.572 1_556 S
Tb0 O44 2.465 . S
Tb0 O45 2.387 1_556 S
Tb0 O47 2.428 . S
Tb0 O48 2.308 1_556 S
Tb0 O52 2.349 . S
Tb0 O55 2.393 . S
Tb0 C64 2.802 . S
C1 N2 1.379 . S
C1 C4 1.416 . S
C1 C8 1.424 . S
N2 C1 1.379 . S
N2 C5 1.334 . S
N2 Tb11 2.617 . S
C3 C5 1.390 . S
C3 C6 1.339 . S
C3 H23 0.930 . S
C4 C1 1.416 . S
C4 C6 1.416 . S
C4 C10 1.448 . S
C5 N2 1.334 . S
C5 C3 1.390 . S
C5 H16 0.930 . S
C6 C3 1.339 . S
C6 C4 1.416 . S
C6 H27 0.930 . S
C7 C8 1.413 . S
C7 C9 1.432 . S
C7 C13 1.416 1_554 S
C8 C1 1.424 . S
C8 C7 1.413 . S
C8 N12 1.361 . S
C9 C7 1.432 . S
C9 C10 1.340 . S
C9 H24 0.913 1_554 S
C10 C4 1.448 . S
C10 C9 1.340 . S
C10 H25 0.930 . S
Tb11 N2 2.617 . S
Tb11 N12 2.572 . S
Tb11 O46 2.349 . S
Tb11 O49 2.393 . S
Tb11 O50 2.465 . S
Tb11 O51 2.387 1_554 S
Tb11 O53 2.428 . S
Tb11 O54 2.308 . S
Tb11 C75 2.802 . S
N12 C8 1.361 . S
N12 Tb11 2.572 . S
N12 C14 1.340 . S
C13 C7 1.416 1_556 S
C13 C15 1.326 1_556 S
C13 H21 0.931 . S
C14 N12 1.340 . S
C14 C15 1.427 . S
C14 H20 0.930 . S
C15 C13 1.326 1_554 S
C15 C14 1.427 . S
C15 H17 0.919 1_554 S
H16 C5 0.930 . S
H17 C15 0.919 1_556 S
H18 C33 0.930 . S
H19 C40 0.929 . S
H20 C14 0.930 . S
H21 C13 0.931 . S
H22 C36 0.930 . S
H23 C3 0.930 . S
H24 C9 0.913 1_556 S
H25 C10 0.930 . S
H26 C31 0.930 . S
H27 C6 0.930 . S
H28 C39 0.931 . S
N29 Tb0 2.617 . S
N29 C30 1.379 1_556 S
N29 C33 1.334 . S
C30 N29 1.379 1_554 S
C30 C32 1.416 . S
C30 C38 1.424 . S
C31 H26 0.930 . S
C31 C33 1.390 . S
C31 C34 1.339 1_556 S
C32 C30 1.416 . S
C32 C34 1.416 . S
C32 C65 1.448 . S
C33 H18 0.930 . S
C33 N29 1.334 . S
C33 C31 1.390 . S
C34 C31 1.339 1_554 S
C34 C32 1.416 . S
C34 H41 0.930 1_455 S
N35 Tb0 2.572 1_554 S
N35 C36 1.340 . S
N35 C38 1.361 . S
C36 H22 0.930 . S
C36 N35 1.340 . S
C36 C40 1.407 . S
C37 C38 1.413 . S
C37 C39 1.416 . S
C37 C66 1.427 . S
C38 C30 1.424 . S
C38 N35 1.361 . S
C38 C37 1.413 . S
C39 H28 0.931 . S
C39 C37 1.416 . S
C39 C40 1.332 . S
C40 H19 0.929 . S
C40 C36 1.407 . S
C40 C39 1.332 . S
H41 C34 0.930 1_655 S
H42 C65 0.930 . S
H43 C66 0.929 . S
O44 Tb0 2.465 . S
O44 C64 1.264 . S
O45 Tb0 2.387 1_554 S
O45 C56 1.264 . S
O46 Tb11 2.349 . S
O46 C56 1.243 . S
O47 Tb0 2.428 . S
O47 C64 1.256 . S
O48 Tb0 2.308 1_554 S
O48 C63 1.266 . S
O49 Tb11 2.393 . S
O49 C63 1.248 . S
O50 Tb11 2.465 . S
O50 C75 1.264 . S
O51 Tb11 2.387 1_556 S
O51 C67 1.264 . S
O52 Tb0 2.349 . S
O52 C67 1.243 . S
O53 Tb11 2.428 . S
O53 C75 1.256 . S
O54 Tb11 2.308 . S
O54 C74 1.266 . S
O55 Tb0 2.393 . S
O55 C74 1.248 1_556 S
C56 O45 1.264 . S
C56 O46 1.243 . S
C57 C60 1.399 . S
C57 C62 1.383 . S
C57 C64 1.496 . S
C58 C59 1.399 . S
C58 C62 1.389 . S
C59 C58 1.399 . S
C59 C61 1.380 . S
C59 H76 0.929 . S
C60 C57 1.399 . S
C60 C61 1.392 . S
C60 H77 0.929 . S
C61 C59 1.380 . S
C61 C60 1.392 . S
C61 H78 0.929 . S
C62 C57 1.383 . S
C62 C58 1.389 . S
C62 H79 0.931 . S
C63 O48 1.266 . S
C63 O49 1.248 . S
C64 Tb0 2.802 . S
C64 O44 1.264 . S
C64 O47 1.256 . S
C64 C57 1.496 . S
C65 C32 1.448 . S
C65 H42 0.930 . S
C65 C66 1.328 . S
C66 C37 1.427 . S
C66 H43 0.929 . S
C66 C65 1.328 . S
C67 O51 1.264 . S
C67 O52 1.243 . S
C68 C71 1.399 . S
C68 C72 1.383 . S
C68 C75 1.496 . S
C69 C70 1.399 . S
C69 C72 1.389 . S
C70 C69 1.399 . S
C70 C73 1.380 . S
C70 H80 0.929 . S
C71 C68 1.399 . S
C71 C73 1.392 . S
C71 H81 0.929 . S
C72 C68 1.383 . S
C72 C69 1.389 . S
C72 H82 0.931 . S
C73 C70 1.380 . S
C73 C71 1.392 . S
C73 H83 0.929 . S
C74 O54 1.266 . S
C74 O55 1.248 1_554 S
C75 Tb11 2.802 . S
C75 O50 1.264 . S
C75 O53 1.256 . S
C75 C68 1.496 . S
H76 C59 0.929 . S
H77 C60 0.929 . S
H78 C61 0.929 . S
H79 C62 0.931 . S
H80 C70 0.929 . S
H81 C71 0.929 . S
H82 C72 0.931 . S
H83 C73 0.929 . S
Tb84 N113 2.617 . S
Tb84 N119 2.572 . S
Tb84 O128 2.465 . S
Tb84 O129 2.387 . S
Tb84 O131 2.428 . S
Tb84 O132 2.308 . S
Tb84 O136 2.349 . S
Tb84 O139 2.393 . S
Tb84 C148 2.802 . S
C85 N86 1.379 . S
C85 C88 1.416 . S
C85 C92 1.424 . S
N86 C85 1.379 . S
N86 C89 1.334 . S
N86 Tb95 2.617 . S
C87 C89 1.390 . S
C87 C90 1.339 . S
C87 H107 0.930 . S
C88 C85 1.416 . S
C88 C90 1.416 . S
C88 C94 1.448 . S
C89 N86 1.334 . S
C89 C87 1.390 . S
C89 H100 0.930 . S
C90 C87 1.339 . S
C90 C88 1.416 . S
C90 H111 0.930 . S
C91 C92 1.413 . S
C91 C93 1.427 . S
C91 C97 1.416 . S
C92 C85 1.424 . S
C92 C91 1.413 . S
C92 N96 1.361 . S
C93 C91 1.427 . S
C93 C94 1.328 . S
C93 H108 0.929 . S
C94 C88 1.448 . S
C94 C93 1.328 . S
C94 H109 0.930 . S
Tb95 N86 2.617 . S
Tb95 N96 2.572 . S
Tb95 O130 2.349 . S
Tb95 O133 2.393 . S
Tb95 O134 2.465 . S
Tb95 O135 2.387 . S
Tb95 O137 2.428 . S
Tb95 O138 2.308 . S
Tb95 C159 2.802 . S
N96 C92 1.361 . S
N96 Tb95 2.572 . S
N96 C98 1.340 . S
C97 C91 1.416 . S
C97 C99 1.332 . S
C97 H105 0.931 . S
C98 N96 1.340 . S
C98 C99 1.407 . S
C98 H104 0.930 . S
C99 C97 1.332 . S
C99 C98 1.407 . S
C99 H101 0.929 . S
H100 C89 0.930 . S
H101 C99 0.929 . S
H102 C117 0.930 . S
H103 C124 0.929 . S
H104 C98 0.930 . S
H105 C97 0.931 . S
H106 C120 0.930 . S
H107 C87 0.930 . S
H108 C93 0.929 . S
H109 C94 0.930 . S
H110 C115 0.930 . S
H111 C90 0.930 . S
H112 C123 0.931 . S
N113 Tb84 2.617 . S
N113 C114 1.379 . S
N113 C117 1.334 . S
C114 N113 1.379 . S
C114 C116 1.416 . S
C114 C122 1.424 . S
C115 H110 0.930 . S
C115 C117 1.390 . S
C115 C118 1.339 . S
C116 C114 1.416 . S
C116 C118 1.416 . S
C116 C149 1.448 . S
C117 H102 0.930 . S
C117 N113 1.334 . S
C117 C115 1.390 . S
C118 C115 1.339 . S
C118 C116 1.416 . S
C118 H125 0.930 1_545 S
N119 Tb84 2.572 . S
N119 C120 1.340 . S
N119 C122 1.361 . S
C120 H106 0.930 . S
C120 N119 1.340 . S
C120 C124 1.407 . S
C121 C122 1.413 . S
C121 C123 1.416 . S
C121 C150 1.427 . S
C122 C114 1.424 . S
C122 N119 1.361 . S
C122 C121 1.413 . S
C123 H112 0.931 . S
C123 C121 1.416 . S
C123 C124 1.332 . S
C124 H103 0.929 . S
C124 C120 1.407 . S
C124 C123 1.332 . S
H125 C118 0.930 1_565 S
H126 C149 0.930 . S
H127 C150 0.929 . S
O128 Tb84 2.465 . S
O128 C148 1.264 . S
O129 Tb84 2.387 . S
O129 C140 1.264 . S
O130 Tb95 2.349 . S
O130 C140 1.243 . S
O131 Tb84 2.428 . S
O131 C148 1.256 . S
O132 Tb84 2.308 . S
O132 C147 1.266 . S
O133 Tb95 2.393 . S
O133 C147 1.248 . S
O134 Tb95 2.465 . S
O134 C159 1.264 . S
O135 Tb95 2.387 . S
O135 C151 1.264 . S
O136 Tb84 2.349 . S
O136 C151 1.243 . S
O137 Tb95 2.428 . S
O137 C159 1.256 . S
O138 Tb95 2.308 . S
O138 C158 1.266 . S
O139 Tb84 2.393 . S
O139 C158 1.248 . S
C140 O129 1.264 . S
C140 O130 1.243 . S
C141 C144 1.399 . S
C141 C146 1.383 . S
C141 C148 1.496 . S
C142 C143 1.399 . S
C142 C146 1.389 . S
C143 C142 1.399 . S
C143 C145 1.380 . S
C143 H160 0.929 . S
C144 C141 1.399 . S
C144 C145 1.392 . S
C144 H161 0.929 . S
C145 C143 1.380 . S
C145 C144 1.392 . S
C145 H162 0.929 . S
C146 C141 1.383 . S
C146 C142 1.389 . S
C146 H163 0.931 . S
C147 O132 1.266 . S
C147 O133 1.248 . S
C148 Tb84 2.802 . S
C148 O128 1.264 . S
C148 O131 1.256 . S
C148 C141 1.496 . S
C149 C116 1.448 . S
C149 H126 0.930 . S
C149 C150 1.328 . S
C150 C121 1.427 . S
C150 H127 0.929 . S
C150 C149 1.328 . S
C151 O135 1.264 . S
C151 O136 1.243 . S
C152 C155 1.399 . S
C152 C156 1.383 . S
C152 C159 1.496 . S
C153 C154 1.399 . S
C153 C156 1.389 . S
C154 C153 1.399 . S
C154 C157 1.380 . S
C154 H164 0.929 . S
C155 C152 1.399 . S
C155 C157 1.392 . S
C155 H165 0.929 . S
C156 C152 1.383 . S
C156 C153 1.389 . S
C156 H166 0.931 . S
C157 C154 1.380 . S
C157 C155 1.392 . S
C157 H167 0.929 . S
C158 O138 1.266 . S
C158 O139 1.248 . S
C159 Tb95 2.802 . S
C159 O134 1.264 . S
C159 O137 1.256 . S
C159 C152 1.496 . S
H160 C143 0.929 . S
H161 C144 0.929 . S
H162 C145 0.929 . S
H163 C146 0.931 . S
H164 C154 0.929 . S
H165 C155 0.929 . S
H166 C156 0.931 . S
H167 C157 0.929 . S
Tb168 N197 2.617 . S
Tb168 N203 2.572 . S
Tb168 O212 2.465 . S
Tb168 O213 2.387 . S
Tb168 O215 2.428 . S
Tb168 O216 2.308 . S
Tb168 O220 2.349 . S
Tb168 O223 2.393 . S
Tb168 C232 2.802 . S
C169 N170 1.379 . S
C169 C172 1.416 . S
C169 C176 1.424 . S
N170 C169 1.379 . S
N170 C173 1.334 . S
N170 Tb179 2.617 . S
C171 C173 1.390 . S
C171 C174 1.339 . S
C171 H191 0.930 . S
C172 C169 1.416 . S
C172 C174 1.416 . S
C172 C178 1.448 . S
C173 N170 1.334 . S
C173 C171 1.390 . S
C173 H184 0.930 . S
C174 C171 1.339 . S
C174 C172 1.416 . S
C174 H195 0.930 . S
C175 C176 1.413 . S
C175 C177 1.427 . S
C175 C181 1.416 . S
C176 C169 1.424 . S
C176 C175 1.413 . S
C176 N180 1.361 . S
C177 C175 1.427 . S
C177 C178 1.328 . S
C177 H192 0.929 . S
C178 C172 1.448 . S
C178 C177 1.328 . S
C178 H193 0.930 . S
Tb179 N170 2.617 . S
Tb179 N180 2.572 . S
Tb179 O214 2.349 . S
Tb179 O217 2.393 . S
Tb179 O218 2.465 . S
Tb179 O219 2.387 . S
Tb179 O221 2.428 . S
Tb179 O222 2.308 . S
Tb179 C243 2.802 . S
N180 C176 1.361 . S
N180 Tb179 2.572 . S
N180 C182 1.340 . S
C181 C175 1.416 . S
C181 C183 1.332 . S
C181 H189 0.931 . S
C182 N180 1.340 . S
C182 C183 1.407 . S
C182 H188 0.930 . S
C183 C181 1.332 . S
C183 C182 1.407 . S
C183 H185 0.929 . S
H184 C173 0.930 . S
H185 C183 0.929 . S
H186 C201 0.930 . S
H187 C208 0.929 . S
H188 C182 0.930 . S
H189 C181 0.931 . S
H190 C204 0.930 . S
H191 C171 0.930 . S
H192 C177 0.929 . S
H193 C178 0.930 . S
H194 C199 0.930 . S
H195 C174 0.930 . S
H196 C207 0.931 . S
N197 Tb168 2.617 . S
N197 C198 1.379 . S
N197 C201 1.334 . S
C198 N197 1.379 . S
C198 C200 1.416 . S
C198 C206 1.424 . S
C199 H194 0.930 . S
C199 C201 1.390 . S
C199 C202 1.339 . S
C200 C198 1.416 . S
C200 C202 1.416 . S
C200 C233 1.448 . S
C201 H186 0.930 . S
C201 N197 1.334 . S
C201 C199 1.390 . S
C202 C199 1.339 . S
C202 C200 1.416 . S
C202 H209 0.930 . S
N203 Tb168 2.572 . S
N203 C204 1.340 . S
N203 C206 1.361 . S
C204 H190 0.930 . S
C204 N203 1.340 . S
C204 C208 1.407 . S
C205 C206 1.413 . S
C205 C207 1.416 . S
C205 C234 1.427 . S
C206 C198 1.424 . S
C206 N203 1.361 . S
C206 C205 1.413 . S
C207 H196 0.931 . S
C207 C205 1.416 . S
C207 C208 1.332 . S
C208 H187 0.929 . S
C208 C204 1.407 . S
C208 C207 1.332 . S
H209 C202 0.930 . S
H210 C233 0.930 . S
H211 C234 0.929 . S
O212 Tb168 2.465 . S
O212 C232 1.264 . S
O213 Tb168 2.387 . S
O213 C224 1.264 . S
O214 Tb179 2.349 . S
O214 C224 1.243 . S
O215 Tb168 2.428 . S
O215 C232 1.256 . S
O216 Tb168 2.308 . S
O216 C231 1.266 . S
O217 Tb179 2.393 . S
O217 C231 1.248 . S
O218 Tb179 2.465 . S
O218 C243 1.264 . S
O219 Tb179 2.387 . S
O219 C235 1.264 . S
O220 Tb168 2.349 . S
O220 C235 1.243 . S
O221 Tb179 2.428 . S
O221 C243 1.256 . S
O222 Tb179 2.308 . S
O222 C242 1.266 . S
O223 Tb168 2.393 . S
O223 C242 1.248 . S
C224 O213 1.264 . S
C224 O214 1.243 . S
C225 C228 1.399 . S
C225 C230 1.383 . S
C225 C232 1.496 . S
C226 C227 1.399 . S
C226 C230 1.389 . S
C227 C226 1.399 . S
C227 C229 1.380 . S
C227 H244 0.929 . S
C228 C225 1.399 . S
C228 C229 1.392 . S
C228 H245 0.929 . S
C229 C227 1.380 . S
C229 C228 1.392 . S
C229 H246 0.929 . S
C230 C225 1.383 . S
C230 C226 1.389 . S
C230 H247 0.931 . S
C231 O216 1.266 . S
C231 O217 1.248 . S
C232 Tb168 2.802 . S
C232 O212 1.264 . S
C232 O215 1.256 . S
C232 C225 1.496 . S
C233 C200 1.448 . S
C233 H210 0.930 . S
C233 C234 1.328 . S
C234 C205 1.427 . S
C234 H211 0.929 . S
C234 C233 1.328 . S
C235 O219 1.264 . S
C235 O220 1.243 . S
C236 C239 1.399 . S
C236 C240 1.383 . S
C236 C243 1.496 . S
C237 C238 1.399 . S
C237 C240 1.389 . S
C238 C237 1.399 . S
C238 C241 1.380 . S
C238 H248 0.929 . S
C239 C236 1.399 . S
C239 C241 1.392 . S
C239 H249 0.929 . S
C240 C236 1.383 . S
C240 C237 1.389 . S
C240 H250 0.931 . S
C241 C238 1.380 . S
C241 C239 1.392 . S
C241 H251 0.929 . S
C242 O222 1.266 . S
C242 O223 1.248 . S
C243 Tb179 2.802 . S
C243 O218 1.264 . S
C243 O221 1.256 . S
C243 C236 1.496 . S
H244 C227 0.929 . S
H245 C228 0.929 . S
H246 C229 0.929 . S
H247 C230 0.931 . S
H248 C238 0.929 . S
H249 C239 0.929 . S
H250 C240 0.931 . S
H251 C241 0.929 . S
Tb252 N281 2.617 . S
Tb252 N287 2.572 1_556 S
Tb252 O296 2.465 . S
Tb252 O297 2.387 1_556 S
Tb252 O299 2.428 . S
Tb252 O300 2.308 1_556 S
Tb252 O304 2.349 . S
Tb252 O307 2.393 . S
Tb252 C316 2.802 . S
C253 N254 1.379 . S
C253 C256 1.416 . S
C253 C260 1.424 . S
N254 C253 1.379 . S
N254 C257 1.334 . S
N254 Tb263 2.617 . S
C255 C257 1.390 . S
C255 C258 1.339 . S
C255 H275 0.930 . S
C256 C253 1.416 . S
C256 C258 1.416 . S
C256 C262 1.448 . S
C257 N254 1.334 . S
C257 C255 1.390 . S
C257 H268 0.930 . S
C258 C255 1.339 . S
C258 C256 1.416 . S
C258 H279 0.930 . S
C259 C260 1.413 . S
C259 C261 1.432 . S
C259 C265 1.416 1_554 S
C260 C253 1.424 . S
C260 C259 1.413 . S
C260 N264 1.361 . S
C261 C259 1.432 . S
C261 C262 1.340 . S
C261 H276 0.913 1_554 S
C262 C256 1.448 . S
C262 C261 1.340 . S
C262 H277 0.930 . S
Tb263 N254 2.617 . S
Tb263 N264 2.572 . S
Tb263 O298 2.349 . S
Tb263 O301 2.393 . S
Tb263 O302 2.465 . S
Tb263 O303 2.387 1_554 S
Tb263 O305 2.428 . S
Tb263 O306 2.308 . S
Tb263 C327 2.802 . S
N264 C260 1.361 . S
N264 Tb263 2.572 . S
N264 C266 1.340 . S
C265 C259 1.416 1_556 S
C265 C267 1.326 1_556 S
C265 H273 0.931 . S
C266 N264 1.340 . S
C266 C267 1.427 . S
C266 H272 0.930 . S
C267 C265 1.326 1_554 S
C267 C266 1.427 . S
C267 H269 0.919 1_554 S
H268 C257 0.930 . S
H269 C267 0.919 1_556 S
H270 C285 0.930 . S
H271 C292 0.929 . S
H272 C266 0.930 . S
H273 C265 0.931 . S
H274 C288 0.930 . S
H275 C255 0.930 . S
H276 C261 0.913 1_556 S
H277 C262 0.930 . S
H278 C283 0.930 . S
H279 C258 0.930 . S
H280 C291 0.931 . S
N281 Tb252 2.617 . S
N281 C282 1.379 1_556 S
N281 C285 1.334 . S
C282 N281 1.379 1_554 S
C282 C284 1.416 . S
C282 C290 1.424 . S
C283 H278 0.930 . S
C283 C285 1.390 . S
C283 C286 1.339 1_556 S
C284 C282 1.416 . S
C284 C286 1.416 . S
C284 C317 1.448 . S
C285 H270 0.930 . S
C285 N281 1.334 . S
C285 C283 1.390 . S
C286 C283 1.339 1_554 S
C286 C284 1.416 . S
C286 H293 0.930 1_655 S
N287 Tb252 2.572 1_554 S
N287 C288 1.340 . S
N287 C290 1.361 . S
C288 H274 0.930 . S
C288 N287 1.340 . S
C288 C292 1.407 . S
C289 C290 1.413 . S
C289 C291 1.416 . S
C289 C318 1.427 . S
C290 C282 1.424 . S
C290 N287 1.361 . S
C290 C289 1.413 . S
C291 H280 0.931 . S
C291 C289 1.416 . S
C291 C292 1.332 . S
C292 H271 0.929 . S
C292 C288 1.407 . S
C292 C291 1.332 . S
H293 C286 0.930 1_455 S
H294 C317 0.930 . S
H295 C318 0.929 . S
O296 Tb252 2.465 . S
O296 C316 1.264 . S
O297 Tb252 2.387 1_554 S
O297 C308 1.264 . S
O298 Tb263 2.349 . S
O298 C308 1.243 . S
O299 Tb252 2.428 . S
O299 C316 1.256 . S
O300 Tb252 2.308 1_554 S
O300 C315 1.266 . S
O301 Tb263 2.393 . S
O301 C315 1.248 . S
O302 Tb263 2.465 . S
O302 C327 1.264 . S
O303 Tb263 2.387 1_556 S
O303 C319 1.264 . S
O304 Tb252 2.349 . S
O304 C319 1.243 . S
O305 Tb263 2.428 . S
O305 C327 1.256 . S
O306 Tb263 2.308 . S
O306 C326 1.266 . S
O307 Tb252 2.393 . S
O307 C326 1.248 1_556 S
C308 O297 1.264 . S
C308 O298 1.243 . S
C309 C312 1.399 . S
C309 C314 1.383 . S
C309 C316 1.496 . S
C310 C311 1.399 . S
C310 C314 1.389 . S
C311 C310 1.399 . S
C311 C313 1.380 . S
C311 H328 0.929 . S
C312 C309 1.399 . S
C312 C313 1.392 . S
C312 H329 0.929 . S
C313 C311 1.380 . S
C313 C312 1.392 . S
C313 H330 0.929 . S
C314 C309 1.383 . S
C314 C310 1.389 . S
C314 H331 0.931 . S
C315 O300 1.266 . S
C315 O301 1.248 . S
C316 Tb252 2.802 . S
C316 O296 1.264 . S
C316 O299 1.256 . S
C316 C309 1.496 . S
C317 C284 1.448 . S
C317 H294 0.930 . S
C317 C318 1.328 . S
C318 C289 1.427 . S
C318 H295 0.929 . S
C318 C317 1.328 . S
C319 O303 1.264 . S
C319 O304 1.243 . S
C320 C323 1.399 . S
C320 C324 1.383 . S
C320 C327 1.496 . S
C321 C322 1.399 . S
C321 C324 1.389 . S
C322 C321 1.399 . S
C322 C325 1.380 . S
C322 H332 0.929 . S
C323 C320 1.399 . S
C323 C325 1.392 . S
C323 H333 0.929 . S
C324 C320 1.383 . S
C324 C321 1.389 . S
C324 H334 0.931 . S
C325 C322 1.380 . S
C325 C323 1.392 . S
C325 H335 0.929 . S
C326 O306 1.266 . S
C326 O307 1.248 1_554 S
C327 Tb263 2.802 . S
C327 O302 1.264 . S
C327 O305 1.256 . S
C327 C320 1.496 . S
H328 C311 0.929 . S
H329 C312 0.929 . S
H330 C313 0.929 . S
H331 C314 0.931 . S
H332 C322 0.929 . S
H333 C323 0.929 . S
H334 C324 0.931 . S
H335 C325 0.929 . S
Tb336 N365 2.617 . S
Tb336 N371 2.572 . S
Tb336 O380 2.465 . S
Tb336 O381 2.387 . S
Tb336 O383 2.428 . S
Tb336 O384 2.308 . S
Tb336 O388 2.349 . S
Tb336 O391 2.393 . S
Tb336 C400 2.802 . S
C337 N338 1.379 . S
C337 C340 1.416 . S
C337 C344 1.424 . S
N338 C337 1.379 . S
N338 C341 1.334 . S
N338 Tb347 2.617 . S
C339 C341 1.390 . S
C339 C342 1.339 . S
C339 H359 0.930 . S
C340 C337 1.416 . S
C340 C342 1.416 . S
C340 C346 1.448 . S
C341 N338 1.334 . S
C341 C339 1.390 . S
C341 H352 0.930 . S
C342 C339 1.339 . S
C342 C340 1.416 . S
C342 H363 0.930 . S
C343 C344 1.413 . S
C343 C345 1.427 . S
C343 C349 1.416 . S
C344 C337 1.424 . S
C344 C343 1.413 . S
C344 N348 1.361 . S
C345 C343 1.427 . S
C345 C346 1.328 . S
C345 H360 0.929 . S
C346 C340 1.448 . S
C346 C345 1.328 . S
C346 H361 0.930 . S
Tb347 N338 2.617 . S
Tb347 N348 2.572 . S
Tb347 O382 2.349 . S
Tb347 O385 2.393 . S
Tb347 O386 2.465 . S
Tb347 O387 2.387 . S
Tb347 O389 2.428 . S
Tb347 O390 2.308 . S
Tb347 C411 2.802 . S
N348 C344 1.361 . S
N348 Tb347 2.572 . S
N348 C350 1.340 . S
C349 C343 1.416 . S
C349 C351 1.332 . S
C349 H357 0.931 . S
C350 N348 1.340 . S
C350 C351 1.407 . S
C350 H356 0.930 . S
C351 C349 1.332 . S
C351 C350 1.407 . S
C351 H353 0.929 . S
H352 C341 0.930 . S
H353 C351 0.929 . S
H354 C369 0.930 . S
H355 C376 0.929 . S
H356 C350 0.930 . S
H357 C349 0.931 . S
H358 C372 0.930 . S
H359 C339 0.930 . S
H360 C345 0.929 . S
H361 C346 0.930 . S
H362 C367 0.930 . S
H363 C342 0.930 . S
H364 C375 0.931 . S
N365 Tb336 2.617 . S
N365 C366 1.379 . S
N365 C369 1.334 . S
C366 N365 1.379 . S
C366 C368 1.416 . S
C366 C374 1.424 . S
C367 H362 0.930 . S
C367 C369 1.390 . S
C367 C370 1.339 . S
C368 C366 1.416 . S
C368 C370 1.416 . S
C368 C401 1.448 . S
C369 H354 0.930 . S
C369 N365 1.334 . S
C369 C367 1.390 . S
C370 C367 1.339 . S
C370 C368 1.416 . S
C370 H377 0.930 1_565 S
N371 Tb336 2.572 . S
N371 C372 1.340 . S
N371 C374 1.361 . S
C372 H358 0.930 . S
C372 N371 1.340 . S
C372 C376 1.407 . S
C373 C374 1.413 . S
C373 C375 1.416 . S
C373 C402 1.427 . S
C374 C366 1.424 . S
C374 N371 1.361 . S
C374 C373 1.413 . S
C375 H364 0.931 . S
C375 C373 1.416 . S
C375 C376 1.332 . S
C376 H355 0.929 . S
C376 C372 1.407 . S
C376 C375 1.332 . S
H377 C370 0.930 1_545 S
H378 C401 0.930 . S
H379 C402 0.929 . S
O380 Tb336 2.465 . S
O380 C400 1.264 . S
O381 Tb336 2.387 . S
O381 C392 1.264 . S
O382 Tb347 2.349 . S
O382 C392 1.243 . S
O383 Tb336 2.428 . S
O383 C400 1.256 . S
O384 Tb336 2.308 . S
O384 C399 1.266 . S
O385 Tb347 2.393 . S
O385 C399 1.248 . S
O386 Tb347 2.465 . S
O386 C411 1.264 . S
O387 Tb347 2.387 . S
O387 C403 1.264 . S
O388 Tb336 2.349 . S
O388 C403 1.243 . S
O389 Tb347 2.428 . S
O389 C411 1.256 . S
O390 Tb347 2.308 . S
O390 C410 1.266 . S
O391 Tb336 2.393 . S
O391 C410 1.248 . S
C392 O381 1.264 . S
C392 O382 1.243 . S
C393 C396 1.399 . S
C393 C398 1.383 . S
C393 C400 1.496 . S
C394 C395 1.399 . S
C394 C398 1.389 . S
C395 C394 1.399 . S
C395 C397 1.380 . S
C395 H412 0.929 . S
C396 C393 1.399 . S
C396 C397 1.392 . S
C396 H413 0.929 . S
C397 C395 1.380 . S
C397 C396 1.392 . S
C397 H414 0.929 . S
C398 C393 1.383 . S
C398 C394 1.389 . S
C398 H415 0.931 . S
C399 O384 1.266 . S
C399 O385 1.248 . S
C400 Tb336 2.802 . S
C400 O380 1.264 . S
C400 O383 1.256 . S
C400 C393 1.496 . S
C401 C368 1.448 . S
C401 H378 0.930 . S
C401 C402 1.328 . S
C402 C373 1.427 . S
C402 H379 0.929 . S
C402 C401 1.328 . S
C403 O387 1.264 . S
C403 O388 1.243 . S
C404 C407 1.399 . S
C404 C408 1.383 . S
C404 C411 1.496 . S
C405 C406 1.399 . S
C405 C408 1.389 . S
C406 C405 1.399 . S
C406 C409 1.380 . S
C406 H416 0.929 . S
C407 C404 1.399 . S
C407 C409 1.392 . S
C407 H417 0.929 . S
C408 C404 1.383 . S
C408 C405 1.389 . S
C408 H418 0.931 . S
C409 C406 1.380 . S
C409 C407 1.392 . S
C409 H419 0.929 . S
C410 O390 1.266 . S
C410 O391 1.248 . S
C411 Tb347 2.802 . S
C411 O386 1.264 . S
C411 O389 1.256 . S
C411 C404 1.496 . S
H412 C395 0.929 . S
H413 C396 0.929 . S
H414 C397 0.929 . S
H415 C398 0.931 . S
H416 C406 0.929 . S
H417 C407 0.929 . S
H418 C408 0.931 . S
H419 C409 0.929 . S
Tb420 N449 2.617 . S
Tb420 N455 2.572 . S
Tb420 O464 2.465 . S
Tb420 O465 2.387 . S
Tb420 O467 2.428 . S
Tb420 O468 2.308 . S
Tb420 O472 2.349 . S
Tb420 O475 2.393 . S
Tb420 C484 2.802 . S
C421 N422 1.379 . S
C421 C424 1.416 . S
C421 C428 1.424 . S
N422 C421 1.379 . S
N422 C425 1.334 . S
N422 Tb431 2.617 . S
C423 C425 1.390 . S
C423 C426 1.339 . S
C423 H443 0.930 . S
C424 C421 1.416 . S
C424 C426 1.416 . S
C424 C430 1.448 . S
C425 N422 1.334 . S
C425 C423 1.390 . S
C425 H436 0.930 . S
C426 C423 1.339 . S
C426 C424 1.416 . S
C426 H447 0.930 . S
C427 C428 1.413 . S
C427 C429 1.427 . S
C427 C433 1.416 . S
C428 C421 1.424 . S
C428 C427 1.413 . S
C428 N432 1.361 . S
C429 C427 1.427 . S
C429 C430 1.328 . S
C429 H444 0.929 . S
C430 C424 1.448 . S
C430 C429 1.328 . S
C430 H445 0.930 . S
Tb431 N422 2.617 . S
Tb431 N432 2.572 . S
Tb431 O466 2.349 . S
Tb431 O469 2.393 . S
Tb431 O470 2.465 . S
Tb431 O471 2.387 . S
Tb431 O473 2.428 . S
Tb431 O474 2.308 . S
Tb431 C495 2.802 . S
N432 C428 1.361 . S
N432 Tb431 2.572 . S
N432 C434 1.340 . S
C433 C427 1.416 . S
C433 C435 1.332 . S
C433 H441 0.931 . S
C434 N432 1.340 . S
C434 C435 1.407 . S
C434 H440 0.930 . S
C435 C433 1.332 . S
C435 C434 1.407 . S
C435 H437 0.929 . S
H436 C425 0.930 . S
H437 C435 0.929 . S
H438 C453 0.930 . S
H439 C460 0.929 . S
H440 C434 0.930 . S
H441 C433 0.931 . S
H442 C456 0.930 . S
H443 C423 0.930 . S
H444 C429 0.929 . S
H445 C430 0.930 . S
H446 C451 0.930 . S
H447 C426 0.930 . S
H448 C459 0.931 . S
N449 Tb420 2.617 . S
N449 C450 1.379 . S
N449 C453 1.334 . S
C450 N449 1.379 . S
C450 C452 1.416 . S
C450 C458 1.424 . S
C451 H446 0.930 . S
C451 C453 1.390 . S
C451 C454 1.339 . S
C452 C450 1.416 . S
C452 C454 1.416 . S
C452 C485 1.448 . S
C453 H438 0.930 . S
C453 N449 1.334 . S
C453 C451 1.390 . S
C454 C451 1.339 . S
C454 C452 1.416 . S
C454 H461 0.930 . S
N455 Tb420 2.572 . S
N455 C456 1.340 . S
N455 C458 1.361 . S
C456 H442 0.930 . S
C456 N455 1.340 . S
C456 C460 1.407 . S
C457 C458 1.413 . S
C457 C459 1.416 . S
C457 C486 1.427 . S
C458 C450 1.424 . S
C458 N455 1.361 . S
C458 C457 1.413 . S
C459 H448 0.931 . S
C459 C457 1.416 . S
C459 C460 1.332 . S
C460 H439 0.929 . S
C460 C456 1.407 . S
C460 C459 1.332 . S
H461 C454 0.930 . S
H462 C485 0.930 . S
H463 C486 0.929 . S
O464 Tb420 2.465 . S
O464 C484 1.264 . S
O465 Tb420 2.387 . S
O465 C476 1.264 . S
O466 Tb431 2.349 . S
O466 C476 1.243 . S
O467 Tb420 2.428 . S
O467 C484 1.256 . S
O468 Tb420 2.308 . S
O468 C483 1.266 . S
O469 Tb431 2.393 . S
O469 C483 1.248 . S
O470 Tb431 2.465 . S
O470 C495 1.264 . S
O471 Tb431 2.387 . S
O471 C487 1.264 . S
O472 Tb420 2.349 . S
O472 C487 1.243 . S
O473 Tb431 2.428 . S
O473 C495 1.256 . S
O474 Tb431 2.308 . S
O474 C494 1.266 . S
O475 Tb420 2.393 . S
O475 C494 1.248 . S
C476 O465 1.264 . S
C476 O466 1.243 . S
C477 C480 1.399 . S
C477 C482 1.383 . S
C477 C484 1.496 . S
C478 C479 1.399 . S
C478 C482 1.389 . S
C479 C478 1.399 . S
C479 C481 1.380 . S
C479 H496 0.929 . S
C480 C477 1.399 . S
C480 C481 1.392 . S
C480 H497 0.929 . S
C481 C479 1.380 . S
C481 C480 1.392 . S
C481 H498 0.929 . S
C482 C477 1.383 . S
C482 C478 1.389 . S
C482 H499 0.931 . S
C483 O468 1.266 . S
C483 O469 1.248 . S
C484 Tb420 2.802 . S
C484 O464 1.264 . S
C484 O467 1.256 . S
C484 C477 1.496 . S
C485 C452 1.448 . S
C485 H462 0.930 . S
C485 C486 1.328 . S
C486 C457 1.427 . S
C486 H463 0.929 . S
C486 C485 1.328 . S
C487 O471 1.264 . S
C487 O472 1.243 . S
C488 C491 1.399 . S
C488 C492 1.383 . S
C488 C495 1.496 . S
C489 C490 1.399 . S
C489 C492 1.389 . S
C490 C489 1.399 . S
C490 C493 1.380 . S
C490 H500 0.929 . S
C491 C488 1.399 . S
C491 C493 1.392 . S
C491 H501 0.929 . S
C492 C488 1.383 . S
C492 C489 1.389 . S
C492 H502 0.931 . S
C493 C490 1.380 . S
C493 C491 1.392 . S
C493 H503 0.929 . S
C494 O474 1.266 . S
C494 O475 1.248 . S
C495 Tb431 2.802 . S
C495 O470 1.264 . S
C495 O473 1.256 . S
C495 C488 1.496 . S
H496 C479 0.929 . S
H497 C480 0.929 . S
H498 C481 0.929 . S
H499 C482 0.931 . S
H500 C490 0.929 . S
H501 C491 0.929 . S
H502 C492 0.931 . S
H503 C493 0.929 . S
H504 C522 0.951 . S
H505 C524 0.951 . S
H506 C526 0.950 . S
H507 C527 0.950 . S
H508 C529 0.950 . S
H509 C532 0.950 . S
H510 C533 0.950 . S
H511 C535 0.950 . S
H512 C536 0.950 . S
H513 C537 0.951 . S
H514 C539 0.951 . S
H515 C541 0.950 . S
H516 C542 0.950 . S
H517 C544 0.950 . S
H518 C547 0.950 . S
H519 C548 0.950 . S
H520 C550 0.950 . S
H521 C551 0.950 . S
C522 H504 0.951 . S
C522 C523 1.366 . S
C522 C524 1.388 . S
C523 C522 1.366 . S
C523 C527 1.385 . S
C524 H505 0.951 . S
C524 C522 1.388 . S
C524 C525 1.366 . S
C525 C524 1.366 . S
C525 C526 1.414 . S
C525 C528 1.499 . S
C526 H506 0.950 . S
C526 C525 1.414 . S
C526 C527 1.374 . S
C527 H507 0.950 . S
C527 C523 1.385 . S
C527 C526 1.374 . S
C528 C525 1.499 . S
C528 C529 1.373 . S
C528 C530 1.389 . S
C529 H508 0.950 . S
C529 C528 1.373 . S
C529 C545 1.377 . S
C530 C528 1.389 . S
C530 C531 1.524 . S
C530 C544 1.377 . S
C531 C530 1.524 . S
C531 C532 1.397 . S
C531 C536 1.363 . S
C532 H509 0.950 . S
C532 C531 1.397 . S
C532 C533 1.334 . S
C533 H510 0.950 . S
C533 C532 1.334 . S
C533 C534 1.287 . S
C534 C533 1.287 . S
C534 C535 1.524 . S
C534 H553 0.913 . S
C535 H511 0.950 . S
C535 C534 1.524 . S
C535 C536 1.415 . S
C536 H512 0.950 . S
C536 C531 1.363 . S
C536 C535 1.415 . S
C537 H513 0.951 . S
C537 C538 1.366 . S
C537 C539 1.388 . S
C538 C537 1.366 . S
C538 C542 1.385 . S
C539 H514 0.951 . S
C539 C537 1.388 . S
C539 C540 1.366 . S
C540 C539 1.366 . S
C540 C541 1.414 . S
C540 C543 1.499 . S
C541 H515 0.950 . S
C541 C540 1.414 . S
C541 C542 1.374 . S
C542 H516 0.950 . S
C542 C538 1.385 . S
C542 C541 1.374 . S
C543 C540 1.499 . S
C543 C544 1.373 . S
C543 C545 1.389 . S
C544 H517 0.950 . S
C544 C530 1.377 . S
C544 C543 1.373 . S
C545 C529 1.377 . S
C545 C543 1.389 . S
C545 C546 1.524 . S
C546 C545 1.524 . S
C546 C547 1.397 . S
C546 C551 1.363 . S
C547 H518 0.950 . S
C547 C546 1.397 . S
C547 C548 1.334 . S
C548 H519 0.950 . S
C548 C547 1.334 . S
C548 C549 1.287 . S
C549 C548 1.287 . S
C549 C550 1.524 . S
C549 H552 0.999 . S
C550 H520 0.950 . S
C550 C549 1.524 . S
C550 C551 1.415 . S
C551 H521 0.950 . S
C551 C546 1.363 . S
C551 C550 1.415 . S
H552 C549 0.999 . S
H553 C534 0.913 . S
H554 C572 0.951 . S
H555 C574 0.951 . S
H556 C576 0.950 . S
H557 C577 0.950 . S
H558 C579 0.950 . S
H559 C582 0.950 . S
H560 C583 0.950 . S
H561 C585 0.950 . S
H562 C586 0.950 . S
H563 C587 0.951 . S
H564 C589 0.951 . S
H565 C591 0.950 . S
H566 C592 0.950 . S
H567 C594 0.950 . S
H568 C597 0.950 . S
H569 C598 0.950 . S
H570 C600 0.950 . S
H571 C601 0.950 . S
C572 H554 0.951 . S
C572 C573 1.366 . S
C572 C574 1.388 . S
C573 C572 1.366 . S
C573 C577 1.385 . S
C574 H555 0.951 . S
C574 C572 1.388 . S
C574 C575 1.366 . S
C575 C574 1.366 . S
C575 C576 1.414 . S
C575 C578 1.499 . S
C576 H556 0.950 . S
C576 C575 1.414 . S
C576 C577 1.374 . S
C577 H557 0.950 . S
C577 C573 1.385 . S
C577 C576 1.374 . S
C578 C575 1.499 . S
C578 C579 1.373 . S
C578 C580 1.389 . S
C579 H558 0.950 . S
C579 C578 1.373 . S
C579 C595 1.377 . S
C580 C578 1.389 . S
C580 C581 1.524 . S
C580 C594 1.377 . S
C581 C580 1.524 . S
C581 C582 1.397 . S
C581 C586 1.363 . S
C582 H559 0.950 . S
C582 C581 1.397 . S
C582 C583 1.334 . S
C583 H560 0.950 . S
C583 C582 1.334 . S
C583 C584 1.287 . S
C584 C583 1.287 . S
C584 C585 1.524 . S
C584 H603 0.913 . S
C585 H561 0.950 . S
C585 C584 1.524 . S
C585 C586 1.415 . S
C586 H562 0.950 . S
C586 C581 1.363 . S
C586 C585 1.415 . S
C587 H563 0.951 . S
C587 C588 1.366 . S
C587 C589 1.388 . S
C588 C587 1.366 . S
C588 C592 1.385 . S
C589 H564 0.951 . S
C589 C587 1.388 . S
C589 C590 1.366 . S
C590 C589 1.366 . S
C590 C591 1.414 . S
C590 C593 1.499 . S
C591 H565 0.950 . S
C591 C590 1.414 . S
C591 C592 1.374 . S
C592 H566 0.950 . S
C592 C588 1.385 . S
C592 C591 1.374 . S
C593 C590 1.499 . S
C593 C594 1.373 . S
C593 C595 1.389 . S
C594 H567 0.950 . S
C594 C580 1.377 . S
C594 C593 1.373 . S
C595 C579 1.377 . S
C595 C593 1.389 . S
C595 C596 1.524 . S
C596 C595 1.524 . S
C596 C597 1.397 . S
C596 C601 1.363 . S
C597 H568 0.950 . S
C597 C596 1.397 . S
C597 C598 1.334 . S
C598 H569 0.950 . S
C598 C597 1.334 . S
C598 C599 1.287 . S
C599 C598 1.287 . S
C599 C600 1.524 . S
C599 H602 0.999 . S
C600 H570 0.950 . S
C600 C599 1.524 . S
C600 C601 1.415 . S
C601 H571 0.950 . S
C601 C596 1.363 . S
C601 C600 1.415 . S
H602 C599 0.999 . S
H603 C584 0.913 . S
H604 C622 0.951 . S
H605 C624 0.951 . S
H606 C626 0.950 . S
H607 C627 0.950 . S
H608 C629 0.950 . S
H609 C632 0.950 . S
H610 C633 0.950 . S
H611 C635 0.950 . S
H612 C636 0.950 . S
H613 C637 0.951 . S
H614 C639 0.951 . S
H615 C641 0.950 . S
H616 C642 0.950 . S
H617 C644 0.950 . S
H618 C647 0.950 . S
H619 C648 0.950 . S
H620 C650 0.950 . S
H621 C651 0.950 . S
C622 H604 0.951 . S
C622 C623 1.366 . S
C622 C624 1.388 . S
C623 C622 1.366 . S
C623 C627 1.385 . S
C624 H605 0.951 . S
C624 C622 1.388 . S
C624 C625 1.366 . S
C625 C624 1.366 . S
C625 C626 1.414 . S
C625 C628 1.499 . S
C626 H606 0.950 . S
C626 C625 1.414 . S
C626 C627 1.374 . S
C627 H607 0.950 . S
C627 C623 1.385 . S
C627 C626 1.374 . S
C628 C625 1.499 . S
C628 C629 1.373 . S
C628 C630 1.389 . S
C629 H608 0.950 . S
C629 C628 1.373 . S
C629 C645 1.377 . S
C630 C628 1.389 . S
C630 C631 1.524 . S
C630 C644 1.377 . S
C631 C630 1.524 . S
C631 C632 1.397 . S
C631 C636 1.363 . S
C632 H609 0.950 . S
C632 C631 1.397 . S
C632 C633 1.334 . S
C633 H610 0.950 . S
C633 C632 1.334 . S
C633 C634 1.287 . S
C634 C633 1.287 . S
C634 C635 1.524 . S
C634 H653 0.913 . S
C635 H611 0.950 . S
C635 C634 1.524 . S
C635 C636 1.415 . S
C636 H612 0.950 . S
C636 C631 1.363 . S
C636 C635 1.415 . S
C637 H613 0.951 . S
C637 C638 1.366 . S
C637 C639 1.388 . S
C638 C637 1.366 . S
C638 C642 1.385 . S
C639 H614 0.951 . S
C639 C637 1.388 . S
C639 C640 1.366 . S
C640 C639 1.366 . S
C640 C641 1.414 . S
C640 C643 1.499 . S
C641 H615 0.950 . S
C641 C640 1.414 . S
C641 C642 1.374 . S
C642 H616 0.950 . S
C642 C638 1.385 . S
C642 C641 1.374 . S
C643 C640 1.499 . S
C643 C644 1.373 . S
C643 C645 1.389 . S
C644 H617 0.950 . S
C644 C630 1.377 . S
C644 C643 1.373 . S
C645 C629 1.377 . S
C645 C643 1.389 . S
C645 C646 1.524 . S
C646 C645 1.524 . S
C646 C647 1.397 . S
C646 C651 1.363 . S
C647 H618 0.950 . S
C647 C646 1.397 . S
C647 C648 1.334 . S
C648 H619 0.950 . S
C648 C647 1.334 . S
C648 C649 1.287 . S
C649 C648 1.287 . S
C649 C650 1.524 . S
C649 H652 0.999 . S
C650 H620 0.950 . S
C650 C649 1.524 . S
C650 C651 1.415 . S
C651 H621 0.950 . S
C651 C646 1.363 . S
C651 C650 1.415 . S
H652 C649 0.999 . S
H653 C634 0.913 . S
H654 C672 0.951 . S
H655 C674 0.951 . S
H656 C676 0.950 . S
H657 C677 0.950 . S
H658 C679 0.950 . S
H659 C682 0.950 . S
H660 C683 0.950 . S
H661 C685 0.950 . S
H662 C686 0.950 . S
H663 C687 0.951 . S
H664 C689 0.951 . S
H665 C691 0.950 . S
H666 C692 0.950 . S
H667 C694 0.950 . S
H668 C697 0.950 . S
H669 C698 0.950 . S
H670 C700 0.950 . S
H671 C701 0.950 . S
C672 H654 0.951 . S
C672 C673 1.366 . S
C672 C674 1.388 . S
C673 C672 1.366 . S
C673 C677 1.385 . S
C674 H655 0.951 . S
C674 C672 1.388 . S
C674 C675 1.366 . S
C675 C674 1.366 . S
C675 C676 1.414 . S
C675 C678 1.499 . S
C676 H656 0.950 . S
C676 C675 1.414 . S
C676 C677 1.374 . S
C677 H657 0.950 . S
C677 C673 1.385 . S
C677 C676 1.374 . S
C678 C675 1.499 . S
C678 C679 1.373 . S
C678 C680 1.389 . S
C679 H658 0.950 . S
C679 C678 1.373 . S
C679 C695 1.377 . S
C680 C678 1.389 . S
C680 C681 1.524 . S
C680 C694 1.377 . S
C681 C680 1.524 . S
C681 C682 1.397 . S
C681 C686 1.363 . S
C682 H659 0.950 . S
C682 C681 1.397 . S
C682 C683 1.334 . S
C683 H660 0.950 . S
C683 C682 1.334 . S
C683 C684 1.287 . S
C684 C683 1.287 . S
C684 C685 1.524 . S
C684 H703 0.913 . S
C685 H661 0.950 . S
C685 C684 1.524 . S
C685 C686 1.415 . S
C686 H662 0.950 . S
C686 C681 1.363 . S
C686 C685 1.415 . S
C687 H663 0.951 . S
C687 C688 1.366 . S
C687 C689 1.388 . S
C688 C687 1.366 . S
C688 C692 1.385 . S
C689 H664 0.951 . S
C689 C687 1.388 . S
C689 C690 1.366 . S
C690 C689 1.366 . S
C690 C691 1.414 . S
C690 C693 1.499 . S
C691 H665 0.950 . S
C691 C690 1.414 . S
C691 C692 1.374 . S
C692 H666 0.950 . S
C692 C688 1.385 . S
C692 C691 1.374 . S
C693 C690 1.499 . S
C693 C694 1.373 . S
C693 C695 1.389 . S
C694 H667 0.950 . S
C694 C680 1.377 . S
C694 C693 1.373 . S
C695 C679 1.377 . S
C695 C693 1.389 . S
C695 C696 1.524 . S
C696 C695 1.524 . S
C696 C697 1.397 . S
C696 C701 1.363 . S
C697 H668 0.950 . S
C697 C696 1.397 . S
C697 C698 1.334 . S
C698 H669 0.950 . S
C698 C697 1.334 . S
C698 C699 1.287 . S
C699 C698 1.287 . S
C699 C700 1.524 . S
C699 H702 0.999 . S
C700 H670 0.950 . S
C700 C699 1.524 . S
C700 C701 1.415 . S
C701 H671 0.950 . S
C701 C696 1.363 . S
C701 C700 1.415 . S
H702 C699 0.999 . S
H703 C684 0.913 . S
H704 C722 0.951 . S
H705 C724 0.951 . S
H706 C726 0.950 . S
H707 C727 0.950 . S
H708 C729 0.950 . S
H709 C732 0.950 . S
H710 C733 0.950 . S
H711 C735 0.950 . S
H712 C736 0.950 . S
H713 C737 0.951 . S
H714 C739 0.951 . S
H715 C741 0.950 . S
H716 C742 0.950 . S
H717 C744 0.950 . S
H718 C747 0.950 . S
H719 C748 0.950 . S
H720 C750 0.950 . S
H721 C751 0.950 . S
C722 H704 0.951 . S
C722 C723 1.366 . S
C722 C724 1.388 . S
C723 C722 1.366 . S
C723 C727 1.385 . S
C724 H705 0.951 . S
C724 C722 1.388 . S
C724 C725 1.366 . S
C725 C724 1.366 . S
C725 C726 1.414 . S
C725 C728 1.499 . S
C726 H706 0.950 . S
C726 C725 1.414 . S
C726 C727 1.374 . S
C727 H707 0.950 . S
C727 C723 1.385 . S
C727 C726 1.374 . S
C728 C725 1.499 . S
C728 C729 1.373 . S
C728 C730 1.389 . S
C729 H708 0.950 . S
C729 C728 1.373 . S
C729 C745 1.377 . S
C730 C728 1.389 . S
C730 C731 1.524 . S
C730 C744 1.377 . S
C731 C730 1.524 . S
C731 C732 1.397 . S
C731 C736 1.363 . S
C732 H709 0.950 . S
C732 C731 1.397 . S
C732 C733 1.334 . S
C733 H710 0.950 . S
C733 C732 1.334 . S
C733 C734 1.287 . S
C734 C733 1.287 . S
C734 C735 1.524 . S
C734 H753 0.913 . S
C735 H711 0.950 . S
C735 C734 1.524 . S
C735 C736 1.415 . S
C736 H712 0.950 . S
C736 C731 1.363 . S
C736 C735 1.415 . S
C737 H713 0.951 . S
C737 C738 1.366 . S
C737 C739 1.388 . S
C738 C737 1.366 . S
C738 C742 1.385 . S
C739 H714 0.951 . S
C739 C737 1.388 . S
C739 C740 1.366 . S
C740 C739 1.366 . S
C740 C741 1.414 . S
C740 C743 1.499 . S
C741 H715 0.950 . S
C741 C740 1.414 . S
C741 C742 1.374 . S
C742 H716 0.950 . S
C742 C738 1.385 . S
C742 C741 1.374 . S
C743 C740 1.499 . S
C743 C744 1.373 . S
C743 C745 1.389 . S
C744 H717 0.950 . S
C744 C730 1.377 . S
C744 C743 1.373 . S
C745 C729 1.377 . S
C745 C743 1.389 . S
C745 C746 1.524 . S
C746 C745 1.524 . S
C746 C747 1.397 . S
C746 C751 1.363 . S
C747 H718 0.950 . S
C747 C746 1.397 . S
C747 C748 1.334 . S
C748 H719 0.950 . S
C748 C747 1.334 . S
C748 C749 1.287 . S
C749 C748 1.287 . S
C749 C750 1.524 . S
C749 H752 0.999 . S
C750 H720 0.950 . S
C750 C749 1.524 . S
C750 C751 1.415 . S
C751 H721 0.950 . S
C751 C746 1.363 . S
C751 C750 1.415 . S
H752 C749 0.999 . S
H753 C734 0.913 . S
H754 C772 0.951 . S
H755 C774 0.951 . S
H756 C776 0.950 . S
H757 C777 0.950 . S
H758 C779 0.950 . S
H759 C782 0.950 . S
H760 C783 0.950 . S
H761 C785 0.950 . S
H762 C786 0.950 . S
H763 C787 0.951 . S
H764 C789 0.951 . S
H765 C791 0.950 . S
H766 C792 0.950 . S
H767 C794 0.950 . S
H768 C797 0.950 . S
H769 C798 0.950 . S
H770 C800 0.950 . S
H771 C801 0.950 . S
C772 H754 0.951 . S
C772 C773 1.366 . S
C772 C774 1.388 . S
C773 C772 1.366 . S
C773 C777 1.385 . S
C774 H755 0.951 . S
C774 C772 1.388 . S
C774 C775 1.366 . S
C775 C774 1.366 . S
C775 C776 1.414 . S
C775 C778 1.499 . S
C776 H756 0.950 . S
C776 C775 1.414 . S
C776 C777 1.374 . S
C777 H757 0.950 . S
C777 C773 1.385 . S
C777 C776 1.374 . S
C778 C775 1.499 . S
C778 C779 1.373 . S
C778 C780 1.389 . S
C779 H758 0.950 . S
C779 C778 1.373 . S
C779 C795 1.377 . S
C780 C778 1.389 . S
C780 C781 1.524 . S
C780 C794 1.377 . S
C781 C780 1.524 . S
C781 C782 1.397 . S
C781 C786 1.363 . S
C782 H759 0.950 . S
C782 C781 1.397 . S
C782 C783 1.334 . S
C783 H760 0.950 . S
C783 C782 1.334 . S
C783 C784 1.287 . S
C784 C783 1.287 . S
C784 C785 1.524 . S
C784 H803 0.913 . S
C785 H761 0.950 . S
C785 C784 1.524 . S
C785 C786 1.415 . S
C786 H762 0.950 . S
C786 C781 1.363 . S
C786 C785 1.415 . S
C787 H763 0.951 . S
C787 C788 1.366 . S
C787 C789 1.388 . S
C788 C787 1.366 . S
C788 C792 1.385 . S
C789 H764 0.951 . S
C789 C787 1.388 . S
C789 C790 1.366 . S
C790 C789 1.366 . S
C790 C791 1.414 . S
C790 C793 1.499 . S
C791 H765 0.950 . S
C791 C790 1.414 . S
C791 C792 1.374 . S
C792 H766 0.950 . S
C792 C788 1.385 . S
C792 C791 1.374 . S
C793 C790 1.499 . S
C793 C794 1.373 . S
C793 C795 1.389 . S
C794 H767 0.950 . S
C794 C780 1.377 . S
C794 C793 1.373 . S
C795 C779 1.377 . S
C795 C793 1.389 . S
C795 C796 1.524 . S
C796 C795 1.524 . S
C796 C797 1.397 . S
C796 C801 1.363 . S
C797 H768 0.950 . S
C797 C796 1.397 . S
C797 C798 1.334 . S
C798 H769 0.950 . S
C798 C797 1.334 . S
C798 C799 1.287 . S
C799 C798 1.287 . S
C799 C800 1.524 . S
C799 H802 0.999 . S
C800 H770 0.950 . S
C800 C799 1.524 . S
C800 C801 1.415 . S
C801 H771 0.950 . S
C801 C796 1.363 . S
C801 C800 1.415 . S
H802 C799 0.999 . S
H803 C784 0.913 . S
H804 C822 0.951 . S
H805 C824 0.951 . S
H806 C826 0.951 1_556 S
H807 C827 0.935 1_556 S
H808 C829 0.950 . S
H809 C832 0.950 . S
H810 C833 0.950 . S
H811 C835 0.950 . S
H812 C836 0.950 . S
H813 C837 0.951 1_556 S
H814 C839 0.951 1_556 S
H815 C841 0.950 . S
H816 C842 0.950 . S
H817 C844 0.950 . S
H818 C847 0.950 . S
H819 C848 0.950 . S
H820 C850 0.950 . S
H821 C851 0.950 . S
C822 H804 0.951 . S
C822 C823 1.366 . S
C822 C824 1.388 . S
C823 C822 1.366 . S
C823 C827 1.400 . S
C824 H805 0.951 . S
C824 C822 1.388 . S
C824 C825 1.366 . S
C825 C824 1.366 . S
C825 C826 1.413 . S
C825 C828 1.499 . S
C826 H806 0.951 1_554 S
C826 C825 1.413 . S
C826 C827 1.374 . S
C827 H807 0.935 1_554 S
C827 C823 1.400 . S
C827 C826 1.374 . S
C828 C825 1.499 . S
C828 C829 1.373 . S
C828 C830 1.389 . S
C829 H808 0.950 . S
C829 C828 1.373 . S
C829 C845 1.377 . S
C830 C828 1.389 . S
C830 C831 1.524 . S
C830 C844 1.377 . S
C831 C830 1.524 . S
C831 C832 1.397 . S
C831 C836 1.363 . S
C832 H809 0.950 . S
C832 C831 1.397 . S
C832 C833 1.334 . S
C833 H810 0.950 . S
C833 C832 1.334 . S
C833 C834 1.287 . S
C834 C833 1.287 . S
C834 C835 1.524 . S
C834 H853 0.913 . S
C835 H811 0.950 . S
C835 C834 1.524 . S
C835 C836 1.415 . S
C836 H812 0.950 . S
C836 C831 1.363 . S
C836 C835 1.415 . S
C837 H813 0.951 1_554 S
C837 C838 1.366 . S
C837 C839 1.388 . S
C838 C837 1.366 . S
C838 C842 1.385 . S
C839 H814 0.951 1_554 S
C839 C837 1.388 . S
C839 C840 1.366 . S
C840 C839 1.366 . S
C840 C841 1.414 . S
C840 C843 1.499 . S
C841 H815 0.950 . S
C841 C840 1.414 . S
C841 C842 1.374 . S
C842 H816 0.950 . S
C842 C838 1.385 . S
C842 C841 1.374 . S
C843 C840 1.499 . S
C843 C844 1.373 . S
C843 C845 1.389 . S
C844 H817 0.950 . S
C844 C830 1.377 . S
C844 C843 1.373 . S
C845 C829 1.377 . S
C845 C843 1.389 . S
C845 C846 1.524 . S
C846 C845 1.524 . S
C846 C847 1.397 . S
C846 C851 1.363 1_554 S
C847 H818 0.950 . S
C847 C846 1.397 . S
C847 C848 1.334 . S
C848 H819 0.950 . S
C848 C847 1.334 . S
C848 C849 1.287 1_554 S
C849 C848 1.287 1_556 S
C849 C850 1.524 . S
C849 H852 0.999 . S
C850 H820 0.950 . S
C850 C849 1.524 . S
C850 C851 1.415 . S
C851 H821 0.950 . S
C851 C846 1.363 1_556 S
C851 C850 1.415 . S
H852 C849 0.999 . S
H853 C834 0.913 . S
H854 C872 0.951 . S
H855 C874 0.951 . S
H856 C876 0.950 . S
H857 C877 0.950 . S
H858 C879 0.950 . S
H859 C882 0.950 . S
H860 C883 0.950 . S
H861 C885 0.950 . S
H862 C886 0.950 . S
H863 C887 0.951 . S
H864 C889 0.951 . S
H865 C891 0.950 . S
H866 C892 0.950 . S
H867 C894 0.950 . S
H868 C897 0.950 . S
H869 C898 0.950 . S
H870 C900 0.950 . S
H871 C901 0.950 . S
C872 H854 0.951 . S
C872 C873 1.366 . S
C872 C874 1.388 . S
C873 C872 1.366 . S
C873 C877 1.385 . S
C874 H855 0.951 . S
C874 C872 1.388 . S
C874 C875 1.366 . S
C875 C874 1.366 . S
C875 C876 1.414 . S
C875 C878 1.499 . S
C876 H856 0.950 . S
C876 C875 1.414 . S
C876 C877 1.374 . S
C877 H857 0.950 . S
C877 C873 1.385 . S
C877 C876 1.374 . S
C878 C875 1.499 . S
C878 C879 1.373 . S
C878 C880 1.391 . S
C879 H858 0.950 . S
C879 C878 1.373 . S
C879 C895 1.377 1_455 S
C880 C878 1.391 . S
C880 C881 1.522 1_455 S
C880 C894 1.377 1_455 S
C881 C880 1.522 1_655 S
C881 C882 1.397 . S
C881 C886 1.363 1_655 S
C882 H859 0.950 . S
C882 C881 1.397 . S
C882 C883 1.334 . S
C883 H860 0.950 . S
C883 C882 1.334 . S
C883 C884 1.287 . S
C884 C883 1.287 . S
C884 C885 1.522 1_655 S
C884 H903 0.913 . S
C885 H861 0.950 . S
C885 C884 1.522 1_455 S
C885 C886 1.416 . S
C886 H862 0.950 . S
C886 C881 1.363 1_455 S
C886 C885 1.416 . S
C887 H863 0.951 . S
C887 C888 1.366 . S
C887 C889 1.388 . S
C888 C887 1.366 . S
C888 C892 1.385 . S
C889 H864 0.951 . S
C889 C887 1.388 . S
C889 C890 1.366 . S
C890 C889 1.366 . S
C890 C891 1.414 . S
C890 C893 1.499 . S
C891 H865 0.950 . S
C891 C890 1.414 . S
C891 C892 1.374 . S
C892 H866 0.950 . S
C892 C888 1.385 . S
C892 C891 1.374 . S
C893 C890 1.499 . S
C893 C894 1.373 . S
C893 C895 1.391 . S
C894 H867 0.950 . S
C894 C880 1.377 1_655 S
C894 C893 1.373 . S
C895 C879 1.377 1_655 S
C895 C893 1.391 . S
C895 C896 1.522 1_655 S
C896 C895 1.522 1_455 S
C896 C897 1.397 . S
C896 C901 1.363 1_455 S
C897 H868 0.950 . S
C897 C896 1.397 . S
C897 C898 1.334 . S
C898 H869 0.950 . S
C898 C897 1.334 . S
C898 C899 1.287 . S
C899 C898 1.287 . S
C899 C900 1.522 1_455 S
C899 H902 0.999 . S
C900 H870 0.950 . S
C900 C899 1.522 1_655 S
C900 C901 1.416 . S
C901 H871 0.950 . S
C901 C896 1.363 1_655 S
C901 C900 1.416 . S
H902 C899 0.999 . S
H903 C884 0.913 . S
H904 C922 0.951 . S
H905 C924 0.927 1_565 S
H906 C926 0.950 . S
H907 C927 0.950 . S
H908 C929 0.950 . S
H909 C932 0.950 1_545 S
H910 C933 0.950 . S
H911 C935 0.950 . S
H912 C936 0.950 . S
H913 C937 0.951 . S
H914 C939 0.927 1_545 S
H915 C941 0.950 . S
H916 C942 0.950 . S
H917 C944 0.950 . S
H918 C947 0.950 1_565 S
H919 C948 0.950 . S
H920 C950 0.950 . S
H921 C951 0.950 . S
C922 H904 0.951 . S
C922 C923 1.366 . S
C922 C924 1.388 . S
C923 C922 1.366 . S
C923 C927 1.385 . S
C924 H905 0.927 1_545 S
C924 C922 1.388 . S
C924 C925 1.366 . S
C925 C924 1.366 . S
C925 C926 1.414 . S
C925 C928 1.499 . S
C926 H906 0.950 . S
C926 C925 1.414 . S
C926 C927 1.374 . S
C927 H907 0.950 . S
C927 C923 1.385 . S
C927 C926 1.374 . S
C928 C925 1.499 . S
C928 C929 1.373 . S
C928 C930 1.389 1_545 S
C929 H908 0.950 . S
C929 C928 1.373 . S
C929 C945 1.377 . S
C930 C928 1.389 1_565 S
C930 C931 1.524 . S
C930 C944 1.377 . S
C931 C930 1.524 . S
C931 C932 1.397 . S
C931 C936 1.363 . S
C932 H909 0.950 1_565 S
C932 C931 1.397 . S
C932 C933 1.334 . S
C933 H910 0.950 . S
C933 C932 1.334 . S
C933 C934 1.287 . S
C934 C933 1.287 . S
C934 C935 1.524 . S
C934 H953 0.913 . S
C935 H911 0.950 . S
C935 C934 1.524 . S
C935 C936 1.415 . S
C936 H912 0.950 . S
C936 C931 1.363 . S
C936 C935 1.415 . S
C937 H913 0.951 . S
C937 C938 1.366 . S
C937 C939 1.388 . S
C938 C937 1.366 . S
C938 C942 1.385 . S
C939 H914 0.927 1_565 S
C939 C937 1.388 . S
C939 C940 1.366 . S
C940 C939 1.366 . S
C940 C941 1.414 . S
C940 C943 1.499 . S
C941 H915 0.950 . S
C941 C940 1.414 . S
C941 C942 1.374 . S
C942 H916 0.950 . S
C942 C938 1.385 . S
C942 C941 1.374 . S
C943 C940 1.499 . S
C943 C944 1.373 . S
C943 C945 1.389 1_565 S
C944 H917 0.950 . S
C944 C930 1.377 . S
C944 C943 1.373 . S
C945 C929 1.377 . S
C945 C943 1.389 1_545 S
C945 C946 1.524 . S
C946 C945 1.524 . S
C946 C947 1.397 . S
C946 C951 1.363 . S
C947 H918 0.950 1_545 S
C947 C946 1.397 . S
C947 C948 1.334 . S
C948 H919 0.950 . S
C948 C947 1.334 . S
C948 C949 1.287 . S
C949 C948 1.287 . S
C949 C950 1.524 . S
C949 H952 0.999 . S
C950 H920 0.950 . S
C950 C949 1.524 . S
C950 C951 1.415 . S
C951 H921 0.950 . S
C951 C946 1.363 . S
C951 C950 1.415 . S
H952 C949 0.999 . S
H953 C934 0.913 . S
H954 C972 0.951 . S
H955 C974 0.951 . S
H956 C976 0.950 . S
H957 C977 0.950 . S
H958 C979 0.950 . S
H959 C982 0.950 . S
H960 C983 0.950 . S
H961 C985 0.950 . S
H962 C986 0.950 . S
H963 C987 0.951 . S
H964 C989 0.951 . S
H965 C991 0.950 . S
H966 C992 0.950 . S
H967 C994 0.950 . S
H968 C997 0.950 . S
H969 C998 0.950 . S
H970 C1000 0.950 . S
H971 C1001 0.950 . S
C972 H954 0.951 . S
C972 C973 1.366 . S
C972 C974 1.388 . S
C973 C972 1.366 . S
C973 C977 1.385 . S
C974 H955 0.951 . S
C974 C972 1.388 . S
C974 C975 1.366 . S
C975 C974 1.366 . S
C975 C976 1.414 . S
C975 C978 1.499 . S
C976 H956 0.950 . S
C976 C975 1.414 . S
C976 C977 1.374 . S
C977 H957 0.950 . S
C977 C973 1.385 . S
C977 C976 1.374 . S
C978 C975 1.499 . S
C978 C979 1.373 . S
C978 C980 1.389 . S
C979 H958 0.950 . S
C979 C978 1.373 . S
C979 C995 1.377 . S
C980 C978 1.389 . S
C980 C981 1.524 . S
C980 C994 1.377 . S
C981 C980 1.524 . S
C981 C982 1.397 . S
C981 C986 1.363 . S
C982 H959 0.950 . S
C982 C981 1.397 . S
C982 C983 1.334 . S
C983 H960 0.950 . S
C983 C982 1.334 . S
C983 C984 1.287 . S
C984 C983 1.287 . S
C984 C985 1.524 . S
C984 H1003 0.913 . S
C985 H961 0.950 . S
C985 C984 1.524 . S
C985 C986 1.415 . S
C986 H962 0.950 . S
C986 C981 1.363 . S
C986 C985 1.415 . S
C987 H963 0.951 . S
C987 C988 1.366 . S
C987 C989 1.388 . S
C988 C987 1.366 . S
C988 C992 1.385 . S
C989 H964 0.951 . S
C989 C987 1.388 . S
C989 C990 1.366 . S
C990 C989 1.366 . S
C990 C991 1.414 . S
C990 C993 1.499 . S
C991 H965 0.950 . S
C991 C990 1.414 . S
C991 C992 1.374 . S
C992 H966 0.950 . S
C992 C988 1.385 . S
C992 C991 1.374 . S
C993 C990 1.499 . S
C993 C994 1.373 . S
C993 C995 1.389 . S
C994 H967 0.950 . S
C994 C980 1.377 . S
C994 C993 1.373 . S
C995 C979 1.377 . S
C995 C993 1.389 . S
C995 C996 1.524 . S
C996 C995 1.524 . S
C996 C997 1.397 . S
C996 C1001 1.363 . S
C997 H968 0.950 . S
C997 C996 1.397 . S
C997 C998 1.334 . S
C998 H969 0.950 . S
C998 C997 1.334 . S
C998 C999 1.287 . S
C999 C998 1.287 . S
C999 C1000 1.524 . S
C999 H1002 0.999 . S
C1000 H970 0.950 . S
C1000 C999 1.524 . S
C1000 C1001 1.415 . S
C1001 H971 0.950 . S
C1001 C996 1.363 . S
C1001 C1000 1.415 . S
H1002 C999 0.999 . S
H1003 C984 0.913 . S
H1004 C1022 0.951 . S
H1005 C1024 0.951 . S
H1006 C1026 0.950 . S
H1007 C1027 0.950 . S
H1008 C1029 0.950 . S
H1009 C1032 0.950 . S
H1010 C1033 0.950 . S
H1011 C1035 0.950 . S
H1012 C1036 0.950 . S
H1013 C1037 0.951 . S
H1014 C1039 0.951 . S
H1015 C1041 0.950 . S
H1016 C1042 0.950 . S
H1017 C1044 0.950 . S
H1018 C1047 0.950 . S
H1019 C1048 0.950 . S
H1020 C1050 0.950 . S
H1021 C1051 0.950 . S
C1022 H1004 0.951 . S
C1022 C1023 1.366 . S
C1022 C1024 1.388 . S
C1023 C1022 1.366 . S
C1023 C1027 1.385 . S
C1024 H1005 0.951 . S
C1024 C1022 1.388 . S
C1024 C1025 1.366 . S
C1025 C1024 1.366 . S
C1025 C1026 1.414 . S
C1025 C1028 1.499 . S
C1026 H1006 0.950 . S
C1026 C1025 1.414 . S
C1026 C1027 1.374 . S
C1027 H1007 0.950 . S
C1027 C1023 1.385 . S
C1027 C1026 1.374 . S
C1028 C1025 1.499 . S
C1028 C1029 1.373 1_454 S
C1028 C1030 1.389 . S
C1029 H1008 0.950 . S
C1029 C1028 1.373 1_656 S
C1029 C1045 1.377 . S
C1030 C1028 1.389 . S
C1030 C1031 1.524 . S
C1030 C1044 1.377 . S
C1031 C1030 1.524 . S
C1031 C1032 1.397 . S
C1031 C1036 1.363 . S
C1032 H1009 0.950 . S
C1032 C1031 1.397 . S
C1032 C1033 1.334 . S
C1033 H1010 0.950 . S
C1033 C1032 1.334 . S
C1033 C1034 1.287 . S
C1034 C1033 1.287 . S
C1034 C1035 1.524 . S
C1034 H1053 0.913 . S
C1035 H1011 0.950 . S
C1035 C1034 1.524 . S
C1035 C1036 1.415 . S
C1036 H1012 0.950 . S
C1036 C1031 1.363 . S
C1036 C1035 1.415 . S
C1037 H1013 0.951 . S
C1037 C1038 1.366 . S
C1037 C1039 1.388 . S
C1038 C1037 1.366 . S
C1038 C1042 1.385 . S
C1039 H1014 0.951 . S
C1039 C1037 1.388 . S
C1039 C1040 1.366 . S
C1040 C1039 1.366 . S
C1040 C1041 1.414 . S
C1040 C1043 1.499 . S
C1041 H1015 0.950 . S
C1041 C1040 1.414 . S
C1041 C1042 1.374 . S
C1042 H1016 0.950 . S
C1042 C1038 1.385 . S
C1042 C1041 1.374 . S
C1043 C1040 1.499 . S
C1043 C1044 1.373 1_655 S
C1043 C1045 1.389 1_554 S
C1044 H1017 0.950 . S
C1044 C1030 1.377 . S
C1044 C1043 1.373 1_455 S
C1045 C1029 1.377 . S
C1045 C1043 1.389 1_556 S
C1045 C1046 1.524 . S
C1046 C1045 1.524 . S
C1046 C1047 1.397 . S
C1046 C1051 1.363 . S
C1047 H1018 0.950 . S
C1047 C1046 1.397 . S
C1047 C1048 1.334 . S
C1048 H1019 0.950 . S
C1048 C1047 1.334 . S
C1048 C1049 1.287 . S
C1049 C1048 1.287 . S
C1049 C1050 1.524 . S
C1049 H1052 0.999 . S
C1050 H1020 0.950 . S
C1050 C1049 1.524 . S
C1050 C1051 1.415 . S
C1051 H1021 0.950 . S
C1051 C1046 1.363 . S
C1051 C1050 1.415 . S
H1052 C1049 0.999 . S
H1053 C1034 0.913 . S
H1054 C1072 0.951 . S
H1055 C1074 0.951 . S
H1056 C1076 0.950 . S
H1057 C1077 0.950 . S
H1058 C1079 0.950 . S
H1059 C1082 0.950 . S
H1060 C1083 0.950 . S
H1061 C1085 0.950 . S
H1062 C1086 0.950 . S
H1063 C1087 0.951 . S
H1064 C1089 0.951 . S
H1065 C1091 0.950 . S
H1066 C1092 0.950 . S
H1067 C1094 0.950 . S
H1068 C1097 0.950 . S
H1069 C1098 0.950 . S
H1070 C1100 0.950 . S
H1071 C1101 0.950 . S
C1072 H1054 0.951 . S
C1072 C1073 1.366 . S
C1072 C1074 1.388 . S
C1073 C1072 1.366 . S
C1073 C1077 1.385 . S
C1074 H1055 0.951 . S
C1074 C1072 1.388 . S
C1074 C1075 1.366 . S
C1075 C1074 1.366 . S
C1075 C1076 1.414 . S
C1075 C1078 1.499 . S
C1076 H1056 0.950 . S
C1076 C1075 1.414 . S
C1076 C1077 1.374 . S
C1077 H1057 0.950 . S
C1077 C1073 1.385 . S
C1077 C1076 1.374 . S
C1078 C1075 1.499 . S
C1078 C1079 1.373 1_565 S
C1078 C1080 1.389 . S
C1079 H1058 0.950 . S
C1079 C1078 1.373 1_545 S
C1079 C1095 1.377 . S
C1080 C1078 1.389 . S
C1080 C1081 1.524 . S
C1080 C1094 1.377 . S
C1081 C1080 1.524 . S
C1081 C1082 1.397 . S
C1081 C1086 1.363 . S
C1082 H1059 0.950 . S
C1082 C1081 1.397 . S
C1082 C1083 1.334 . S
C1083 H1060 0.950 . S
C1083 C1082 1.334 . S
C1083 C1084 1.287 . S
C1084 C1083 1.287 . S
C1084 C1085 1.524 . S
C1084 H1103 0.913 . S
C1085 H1061 0.950 . S
C1085 C1084 1.524 . S
C1085 C1086 1.415 . S
C1086 H1062 0.950 . S
C1086 C1081 1.363 . S
C1086 C1085 1.415 . S
C1087 H1063 0.951 . S
C1087 C1088 1.366 . S
C1087 C1089 1.388 . S
C1088 C1087 1.366 . S
C1088 C1092 1.385 . S
C1089 H1064 0.951 . S
C1089 C1087 1.388 . S
C1089 C1090 1.366 . S
C1090 C1089 1.366 . S
C1090 C1091 1.414 . S
C1090 C1093 1.499 . S
C1091 H1065 0.950 . S
C1091 C1090 1.414 . S
C1091 C1092 1.374 . S
C1092 H1066 0.950 . S
C1092 C1088 1.385 . S
C1092 C1091 1.374 . S
C1093 C1090 1.499 . S
C1093 C1094 1.373 1_545 S
C1093 C1095 1.389 . S
C1094 H1067 0.950 . S
C1094 C1080 1.377 . S
C1094 C1093 1.373 1_565 S
C1095 C1079 1.377 . S
C1095 C1093 1.389 . S
C1095 C1096 1.524 . S
C1096 C1095 1.524 . S
C1096 C1097 1.397 . S
C1096 C1101 1.363 . S
C1097 H1068 0.950 . S
C1097 C1096 1.397 . S
C1097 C1098 1.334 . S
C1098 H1069 0.950 . S
C1098 C1097 1.334 . S
C1098 C1099 1.287 . S
C1099 C1098 1.287 . S
C1099 C1100 1.524 . S
C1099 H1102 0.999 . S
C1100 H1070 0.950 . S
C1100 C1099 1.524 . S
C1100 C1101 1.415 . S
C1101 H1071 0.950 . S
C1101 C1096 1.363 . S
C1101 C1100 1.415 . S
H1102 C1099 0.999 . S
H1103 C1084 0.913 . S
H1104 C1122 0.951 . S
H1105 C1124 0.951 . S
H1106 C1126 0.950 . S
H1107 C1127 0.950 . S
H1108 C1129 0.950 . S
H1109 C1132 0.950 . S
H1110 C1133 0.950 . S
H1111 C1135 0.950 . S
H1112 C1136 0.950 . S
H1113 C1137 0.951 . S
H1114 C1139 0.951 . S
H1115 C1141 0.950 . S
H1116 C1142 0.950 . S
H1117 C1144 0.950 . S
H1118 C1147 0.950 . S
H1119 C1148 0.950 . S
H1120 C1150 0.950 . S
H1121 C1151 0.950 . S
C1122 H1104 0.951 . S
C1122 C1123 1.366 . S
C1122 C1124 1.388 . S
C1123 C1122 1.366 . S
C1123 C1127 1.385 . S
C1124 H1105 0.951 . S
C1124 C1122 1.388 . S
C1124 C1125 1.366 . S
C1125 C1124 1.366 . S
C1125 C1126 1.414 . S
C1125 C1128 1.499 . S
C1126 H1106 0.950 . S
C1126 C1125 1.414 . S
C1126 C1127 1.374 . S
C1127 H1107 0.950 . S
C1127 C1123 1.385 . S
C1127 C1126 1.374 . S
C1128 C1125 1.499 . S
C1128 C1129 1.373 . S
C1128 C1130 1.389 . S
C1129 H1108 0.950 . S
C1129 C1128 1.373 . S
C1129 C1145 1.377 . S
C1130 C1128 1.389 . S
C1130 C1131 1.524 . S
C1130 C1144 1.377 . S
C1131 C1130 1.524 . S
C1131 C1132 1.397 . S
C1131 C1136 1.363 . S
C1132 H1109 0.950 . S
C1132 C1131 1.397 . S
C1132 C1133 1.334 . S
C1133 H1110 0.950 . S
C1133 C1132 1.334 . S
C1133 C1134 1.287 . S
C1134 C1133 1.287 . S
C1134 C1135 1.524 . S
C1134 H1153 0.913 . S
C1135 H1111 0.950 . S
C1135 C1134 1.524 . S
C1135 C1136 1.415 . S
C1136 H1112 0.950 . S
C1136 C1131 1.363 . S
C1136 C1135 1.415 . S
C1137 H1113 0.951 . S
C1137 C1138 1.366 . S
C1137 C1139 1.388 . S
C1138 C1137 1.366 . S
C1138 C1142 1.385 . S
C1139 H1114 0.951 . S
C1139 C1137 1.388 . S
C1139 C1140 1.366 . S
C1140 C1139 1.366 . S
C1140 C1141 1.414 . S
C1140 C1143 1.499 . S
C1141 H1115 0.950 . S
C1141 C1140 1.414 . S
C1141 C1142 1.374 . S
C1142 H1116 0.950 . S
C1142 C1138 1.385 . S
C1142 C1141 1.374 . S
C1143 C1140 1.499 . S
C1143 C1144 1.373 . S
C1143 C1145 1.389 . S
C1144 H1117 0.950 . S
C1144 C1130 1.377 . S
C1144 C1143 1.373 . S
C1145 C1129 1.377 . S
C1145 C1143 1.389 . S
C1145 C1146 1.524 . S
C1146 C1145 1.524 . S
C1146 C1147 1.397 . S
C1146 C1151 1.363 . S
C1147 H1118 0.950 . S
C1147 C1146 1.397 . S
C1147 C1148 1.334 . S
C1148 H1119 0.950 . S
C1148 C1147 1.334 . S
C1148 C1149 1.287 . S
C1149 C1148 1.287 . S
C1149 C1150 1.524 . S
C1149 H1152 0.999 . S
C1150 H1120 0.950 . S
C1150 C1149 1.524 . S
C1150 C1151 1.415 . S
C1151 H1121 0.950 . S
C1151 C1146 1.363 . S
C1151 C1150 1.415 . S
H1152 C1149 0.999 . S
H1153 C1134 0.913 . S
H1154 C1172 0.951 . S
H1155 C1174 0.951 . S
H1156 C1176 0.950 . S
H1157 C1177 0.950 . S
H1158 C1179 0.950 . S
H1159 C1182 0.950 . S
H1160 C1183 0.950 . S
H1161 C1185 0.950 . S
H1162 C1186 0.950 1_455 S
H1163 C1187 0.951 . S
H1164 C1189 0.951 . S
H1165 C1191 0.950 . S
H1166 C1192 0.950 . S
H1167 C1194 0.950 . S
H1168 C1197 0.950 . S
H1169 C1198 0.950 . S
H1170 C1200 0.950 . S
H1171 C1201 0.950 . S
C1172 H1154 0.951 . S
C1172 C1173 1.366 . S
C1172 C1174 1.388 1_655 S
C1173 C1172 1.366 . S
C1173 C1177 1.385 . S
C1174 H1155 0.951 . S
C1174 C1172 1.388 1_455 S
C1174 C1175 1.366 . S
C1175 C1174 1.366 . S
C1175 C1176 1.414 . S
C1175 C1178 1.499 . S
C1176 H1156 0.950 . S
C1176 C1175 1.414 . S
C1176 C1177 1.374 1_455 S
C1177 H1157 0.950 . S
C1177 C1173 1.385 . S
C1177 C1176 1.374 1_655 S
C1178 C1175 1.499 . S
C1178 C1179 1.373 . S
C1178 C1180 1.389 . S
C1179 H1158 0.950 . S
C1179 C1178 1.373 . S
C1179 C1195 1.377 . S
C1180 C1178 1.389 . S
C1180 C1181 1.524 1_455 S
C1180 C1194 1.377 . S
C1181 C1180 1.524 1_655 S
C1181 C1182 1.397 . S
C1181 C1186 1.363 . S
C1182 H1159 0.950 . S
C1182 C1181 1.397 . S
C1182 C1183 1.334 . S
C1183 H1160 0.950 . S
C1183 C1182 1.334 . S
C1183 C1184 1.287 . S
C1184 C1183 1.287 . S
C1184 C1185 1.524 . S
C1184 H1203 0.913 . S
C1185 H1161 0.950 . S
C1185 C1184 1.524 . S
C1185 C1186 1.415 . S
C1186 H1162 0.950 1_655 S
C1186 C1181 1.363 . S
C1186 C1185 1.415 . S
C1187 H1163 0.951 . S
C1187 C1188 1.366 . S
C1187 C1189 1.388 . S
C1188 C1187 1.366 . S
C1188 C1192 1.385 . S
C1189 H1164 0.951 . S
C1189 C1187 1.388 . S
C1189 C1190 1.366 . S
C1190 C1189 1.366 . S
C1190 C1191 1.414 . S
C1190 C1193 1.499 . S
C1191 H1165 0.950 . S
C1191 C1190 1.414 . S
C1191 C1192 1.374 . S
C1192 H1166 0.950 . S
C1192 C1188 1.385 . S
C1192 C1191 1.374 . S
C1193 C1190 1.499 . S
C1193 C1194 1.373 . S
C1193 C1195 1.389 . S
C1194 H1167 0.950 . S
C1194 C1180 1.377 . S
C1194 C1193 1.373 . S
C1195 C1179 1.377 . S
C1195 C1193 1.389 . S
C1195 C1196 1.524 . S
C1196 C1195 1.524 . S
C1196 C1197 1.397 . S
C1196 C1201 1.363 . S
C1197 H1168 0.950 . S
C1197 C1196 1.397 . S
C1197 C1198 1.334 . S
C1198 H1169 0.950 . S
C1198 C1197 1.334 . S
C1198 C1199 1.287 . S
C1199 C1198 1.287 . S
C1199 C1200 1.524 . S
C1199 H1202 0.999 . S
C1200 H1170 0.950 . S
C1200 C1199 1.524 . S
C1200 C1201 1.415 . S
C1201 H1171 0.950 . S
C1201 C1196 1.363 . S
C1201 C1200 1.415 . S
H1202 C1199 0.999 . S
H1203 C1184 0.913 . S
H1204 C1222 0.951 . S
H1205 C1224 0.951 . S
H1206 C1226 0.950 . S
H1207 C1227 0.950 . S
H1208 C1229 0.950 . S
H1209 C1232 0.950 1_545 S
H1210 C1233 0.950 . S
H1211 C1235 0.950 . S
H1212 C1236 0.950 . S
H1213 C1237 0.951 . S
H1214 C1239 0.951 . S
H1215 C1241 0.950 . S
H1216 C1242 0.950 . S
H1217 C1244 0.950 . S
H1218 C1247 0.950 . S
H1219 C1248 0.950 . S
H1220 C1250 0.950 . S
H1221 C1251 0.950 . S
C1222 H1204 0.951 . S
C1222 C1223 1.366 . S
C1222 C1224 1.388 . S
C1223 C1222 1.366 . S
C1223 C1227 1.385 1_565 S
C1224 H1205 0.951 . S
C1224 C1222 1.388 . S
C1224 C1225 1.366 1_565 S
C1225 C1224 1.366 1_545 S
C1225 C1226 1.414 . S
C1225 C1228 1.499 . S
C1226 H1206 0.950 . S
C1226 C1225 1.414 . S
C1226 C1227 1.374 . S
C1227 H1207 0.950 . S
C1227 C1223 1.385 1_545 S
C1227 C1226 1.374 . S
C1228 C1225 1.499 . S
C1228 C1229 1.373 . S
C1228 C1230 1.389 . S
C1229 H1208 0.950 . S
C1229 C1228 1.373 . S
C1229 C1245 1.377 . S
C1230 C1228 1.389 . S
C1230 C1231 1.524 1_545 S
C1230 C1244 1.377 . S
C1231 C1230 1.524 1_565 S
C1231 C1232 1.397 . S
C1231 C1236 1.363 . S
C1232 H1209 0.950 1_565 S
C1232 C1231 1.397 . S
C1232 C1233 1.334 . S
C1233 H1210 0.950 . S
C1233 C1232 1.334 . S
C1233 C1234 1.287 . S
C1234 C1233 1.287 . S
C1234 C1235 1.524 . S
C1234 H1253 0.913 . S
C1235 H1211 0.950 . S
C1235 C1234 1.524 . S
C1235 C1236 1.415 . S
C1236 H1212 0.950 . S
C1236 C1231 1.363 . S
C1236 C1235 1.415 . S
C1237 H1213 0.951 . S
C1237 C1238 1.366 . S
C1237 C1239 1.388 . S
C1238 C1237 1.366 . S
C1238 C1242 1.385 . S
C1239 H1214 0.951 . S
C1239 C1237 1.388 . S
C1239 C1240 1.366 . S
C1240 C1239 1.366 . S
C1240 C1241 1.414 . S
C1240 C1243 1.499 . S
C1241 H1215 0.950 . S
C1241 C1240 1.414 . S
C1241 C1242 1.374 . S
C1242 H1216 0.950 . S
C1242 C1238 1.385 . S
C1242 C1241 1.374 . S
C1243 C1240 1.499 . S
C1243 C1244 1.373 . S
C1243 C1245 1.389 . S
C1244 H1217 0.950 . S
C1244 C1230 1.377 . S
C1244 C1243 1.373 . S
C1245 C1229 1.377 . S
C1245 C1243 1.389 . S
C1245 C1246 1.524 . S
C1246 C1245 1.524 . S
C1246 C1247 1.397 . S
C1246 C1251 1.363 . S
C1247 H1218 0.950 . S
C1247 C1246 1.397 . S
C1247 C1248 1.334 . S
C1248 H1219 0.950 . S
C1248 C1247 1.334 . S
C1248 C1249 1.287 . S
C1249 C1248 1.287 . S
C1249 C1250 1.524 . S
C1249 H1252 0.999 . S
C1250 H1220 0.950 . S
C1250 C1249 1.524 . S
C1250 C1251 1.415 . S
C1251 H1221 0.950 . S
C1251 C1246 1.363 . S
C1251 C1250 1.415 . S
H1252 C1249 0.999 . S
H1253 C1234 0.913 . S
H1254 C1272 0.951 . S
H1255 C1274 0.951 . S
H1256 C1276 0.950 . S
H1257 C1277 0.950 . S
H1258 C1279 0.950 . S
H1259 C1282 0.950 . S
H1260 C1283 0.950 . S
H1261 C1285 0.950 . S
H1262 C1286 0.950 . S
H1263 C1287 0.951 . S
H1264 C1289 0.951 . S
H1265 C1291 0.950 . S
H1266 C1292 0.950 . S
H1267 C1294 0.950 . S
H1268 C1297 0.950 . S
H1269 C1298 0.950 . S
H1270 C1300 0.950 . S
H1271 C1301 0.950 . S
C1272 H1254 0.951 . S
C1272 C1273 1.366 . S
C1272 C1274 1.388 . S
C1273 C1272 1.366 . S
C1273 C1277 1.385 . S
C1274 H1255 0.951 . S
C1274 C1272 1.388 . S
C1274 C1275 1.366 . S
C1275 C1274 1.366 . S
C1275 C1276 1.414 . S
C1275 C1278 1.499 . S
C1276 H1256 0.950 . S
C1276 C1275 1.414 . S
C1276 C1277 1.374 . S
C1277 H1257 0.950 . S
C1277 C1273 1.385 . S
C1277 C1276 1.374 . S
C1278 C1275 1.499 . S
C1278 C1279 1.373 . S
C1278 C1280 1.389 . S
C1279 H1258 0.950 . S
C1279 C1278 1.373 . S
C1279 C1295 1.377 . S
C1280 C1278 1.389 . S
C1280 C1281 1.524 . S
C1280 C1294 1.377 . S
C1281 C1280 1.524 . S
C1281 C1282 1.397 . S
C1281 C1286 1.363 . S
C1282 H1259 0.950 . S
C1282 C1281 1.397 . S
C1282 C1283 1.334 . S
C1283 H1260 0.950 . S
C1283 C1282 1.334 . S
C1283 C1284 1.287 . S
C1284 C1283 1.287 . S
C1284 C1285 1.524 . S
C1284 H1303 0.913 . S
C1285 H1261 0.950 . S
C1285 C1284 1.524 . S
C1285 C1286 1.415 . S
C1286 H1262 0.950 . S
C1286 C1281 1.363 . S
C1286 C1285 1.415 . S
C1287 H1263 0.951 . S
C1287 C1288 1.366 . S
C1287 C1289 1.388 . S
C1288 C1287 1.366 . S
C1288 C1292 1.385 . S
C1289 H1264 0.951 . S
C1289 C1287 1.388 . S
C1289 C1290 1.366 . S
C1290 C1289 1.366 . S
C1290 C1291 1.414 . S
C1290 C1293 1.499 . S
C1291 H1265 0.950 . S
C1291 C1290 1.414 . S
C1291 C1292 1.374 . S
C1292 H1266 0.950 . S
C1292 C1288 1.385 . S
C1292 C1291 1.374 . S
C1293 C1290 1.499 . S
C1293 C1294 1.373 . S
C1293 C1295 1.389 . S
C1294 H1267 0.950 . S
C1294 C1280 1.377 . S
C1294 C1293 1.373 . S
C1295 C1279 1.377 . S
C1295 C1293 1.389 . S
C1295 C1296 1.524 . S
C1296 C1295 1.524 . S
C1296 C1297 1.397 . S
C1296 C1301 1.363 . S
C1297 H1268 0.950 . S
C1297 C1296 1.397 . S
C1297 C1298 1.334 . S
C1298 H1269 0.950 . S
C1298 C1297 1.334 . S
C1298 C1299 1.287 . S
C1299 C1298 1.287 . S
C1299 C1300 1.524 . S
C1299 H1302 0.999 . S
C1300 H1270 0.950 . S
C1300 C1299 1.524 . S
C1300 C1301 1.415 . S
C1301 H1271 0.950 . S
C1301 C1296 1.363 . S
C1301 C1300 1.415 . S
H1302 C1299 0.999 . S
H1303 C1284 0.913 . S
H1304 C1322 0.951 . S
H1305 C1324 0.951 . S
H1306 C1326 0.950 . S
H1307 C1327 0.950 . S
H1308 C1329 0.950 . S
H1309 C1332 0.950 . S
H1310 C1333 0.950 . S
H1311 C1335 0.950 . S
H1312 C1336 0.950 . S
H1313 C1337 0.951 . S
H1314 C1339 0.951 . S
H1315 C1341 0.950 . S
H1316 C1342 0.950 . S
H1317 C1344 0.950 . S
H1318 C1347 0.950 . S
H1319 C1348 0.950 . S
H1320 C1350 0.950 . S
H1321 C1351 0.950 . S
C1322 H1304 0.951 . S
C1322 C1323 1.366 . S
C1322 C1324 1.388 . S
C1323 C1322 1.366 . S
C1323 C1327 1.385 1_455 S
C1324 H1305 0.951 . S
C1324 C1322 1.388 . S
C1324 C1325 1.366 1_455 S
C1325 C1324 1.366 1_655 S
C1325 C1326 1.414 . S
C1325 C1328 1.499 . S
C1326 H1306 0.950 . S
C1326 C1325 1.414 . S
C1326 C1327 1.374 . S
C1327 H1307 0.950 . S
C1327 C1323 1.385 1_655 S
C1327 C1326 1.374 . S
C1328 C1325 1.499 . S
C1328 C1329 1.373 . S
C1328 C1330 1.389 . S
C1329 H1308 0.950 . S
C1329 C1328 1.373 . S
C1329 C1345 1.377 . S
C1330 C1328 1.389 . S
C1330 C1331 1.524 . S
C1330 C1344 1.377 . S
C1331 C1330 1.524 . S
C1331 C1332 1.397 . S
C1331 C1336 1.363 . S
C1332 H1309 0.950 . S
C1332 C1331 1.397 . S
C1332 C1333 1.334 . S
C1333 H1310 0.950 . S
C1333 C1332 1.334 . S
C1333 C1334 1.287 . S
C1334 C1333 1.287 . S
C1334 C1335 1.524 . S
C1334 H1353 0.913 . S
C1335 H1311 0.950 . S
C1335 C1334 1.524 . S
C1335 C1336 1.415 . S
C1336 H1312 0.950 . S
C1336 C1331 1.363 . S
C1336 C1335 1.415 . S
C1337 H1313 0.951 . S
C1337 C1338 1.366 . S
C1337 C1339 1.388 . S
C1338 C1337 1.366 . S
C1338 C1342 1.385 . S
C1339 H1314 0.951 . S
C1339 C1337 1.388 . S
C1339 C1340 1.366 . S
C1340 C1339 1.366 . S
C1340 C1341 1.414 . S
C1340 C1343 1.499 . S
C1341 H1315 0.950 . S
C1341 C1340 1.414 . S
C1341 C1342 1.374 . S
C1342 H1316 0.950 . S
C1342 C1338 1.385 . S
C1342 C1341 1.374 . S
C1343 C1340 1.499 . S
C1343 C1344 1.373 . S
C1343 C1345 1.389 . S
C1344 H1317 0.950 . S
C1344 C1330 1.377 . S
C1344 C1343 1.373 . S
C1345 C1329 1.377 . S
C1345 C1343 1.389 . S
C1345 C1346 1.524 . S
C1346 C1345 1.524 . S
C1346 C1347 1.397 . S
C1346 C1351 1.363 . S
C1347 H1318 0.950 . S
C1347 C1346 1.397 . S
C1347 C1348 1.334 . S
C1348 H1319 0.950 . S
C1348 C1347 1.334 . S
C1348 C1349 1.287 . S
C1349 C1348 1.287 . S
C1349 C1350 1.524 . S
C1349 H1352 0.999 . S
C1350 H1320 0.950 . S
C1350 C1349 1.524 . S
C1350 C1351 1.415 . S
C1351 H1321 0.950 . S
C1351 C1346 1.363 . S
C1351 C1350 1.415 . S
H1352 C1349 0.999 . S
H1353 C1334 0.913 . S
H1354 C1372 0.951 . S
H1355 C1374 0.951 . S
H1356 C1376 0.950 . S
H1357 C1377 0.950 . S
H1358 C1379 0.949 . S
H1359 C1382 0.950 . S
H1360 C1383 0.950 . S
H1361 C1385 0.950 . S
H1362 C1386 0.950 . S
H1363 C1387 0.951 . S
H1364 C1389 0.951 . S
H1365 C1391 0.950 . S
H1366 C1392 0.950 . S
H1367 C1394 0.950 . S
H1368 C1397 0.950 . S
H1369 C1398 0.946 . S
H1370 C1400 0.950 . S
H1371 C1401 0.950 . S
C1372 H1354 0.951 . S
C1372 C1373 1.366 1_565 S
C1372 C1374 1.388 . S
C1373 C1372 1.366 1_545 S
C1373 C1377 1.385 . S
C1374 H1355 0.951 . S
C1374 C1372 1.388 . S
C1374 C1375 1.366 . S
C1375 C1374 1.366 . S
C1375 C1376 1.414 1_565 S
C1375 C1378 1.499 . S
C1376 H1356 0.950 . S
C1376 C1375 1.414 1_545 S
C1376 C1377 1.374 . S
C1377 H1357 0.950 . S
C1377 C1373 1.385 . S
C1377 C1376 1.374 . S
C1378 C1375 1.499 . S
C1378 C1379 1.373 . S
C1378 C1380 1.389 . S
C1379 H1358 0.949 . S
C1379 C1378 1.373 . S
C1379 C1395 1.377 . S
C1380 C1378 1.389 . S
C1380 C1381 1.524 . S
C1380 C1394 1.377 . S
C1381 C1380 1.524 . S
C1381 C1382 1.397 . S
C1381 C1386 1.363 . S
C1382 H1359 0.950 . S
C1382 C1381 1.397 . S
C1382 C1383 1.334 . S
C1383 H1360 0.950 . S
C1383 C1382 1.334 . S
C1383 C1384 1.287 . S
C1384 C1383 1.287 . S
C1384 C1385 1.524 . S
C1384 H1403 0.913 . S
C1385 H1361 0.950 . S
C1385 C1384 1.524 . S
C1385 C1386 1.415 . S
C1386 H1362 0.950 . S
C1386 C1381 1.363 . S
C1386 C1385 1.415 . S
C1387 H1363 0.951 . S
C1387 C1388 1.366 . S
C1387 C1389 1.388 . S
C1388 C1387 1.366 . S
C1388 C1392 1.385 . S
C1389 H1364 0.951 . S
C1389 C1387 1.388 . S
C1389 C1390 1.366 . S
C1390 C1389 1.366 . S
C1390 C1391 1.414 . S
C1390 C1393 1.499 . S
C1391 H1365 0.950 . S
C1391 C1390 1.414 . S
C1391 C1392 1.374 . S
C1392 H1366 0.950 . S
C1392 C1388 1.385 . S
C1392 C1391 1.374 . S
C1393 C1390 1.499 . S
C1393 C1394 1.373 . S
C1393 C1395 1.389 . S
C1394 H1367 0.950 . S
C1394 C1380 1.377 . S
C1394 C1393 1.373 . S
C1395 C1379 1.377 . S
C1395 C1393 1.389 . S
C1395 C1396 1.524 . S
C1396 C1395 1.524 . S
C1396 C1397 1.397 . S
C1396 C1401 1.363 1_565 S
C1397 H1368 0.950 . S
C1397 C1396 1.397 . S
C1397 C1398 1.342 . S
C1398 H1369 0.946 . S
C1398 C1397 1.342 . S
C1398 C1399 1.284 1_565 S
C1399 C1398 1.284 1_545 S
C1399 C1400 1.524 . S
C1399 H1402 0.999 . S
C1400 H1370 0.950 . S
C1400 C1399 1.524 . S
C1400 C1401 1.415 . S
C1401 H1371 0.950 . S
C1401 C1396 1.363 1_545 S
C1401 C1400 1.415 . S
H1402 C1399 0.999 . S
H1403 C1384 0.913 . S
C523 C403 1.065 . S
C538 C69 0.936 . S
C573 C487 1.064 . S
C588 C153 0.933 . S
C623 C67 1.065 . S
C638 C237 0.936 . S
C673 C151 1.065 . S
C688 C321 0.936 . S
C723 C235 1.065 . S
C738 C405 0.936 . S
C773 C319 1.065 . S
C788 C489 0.936 . S
C823 C63 1.148 . S
C838 C315 1.148 . S
C873 C399 1.146 . S
C888 C147 1.147 . S
C923 C483 1.147 . S
C938 C231 1.146 . S
C973 C242 1.476 . S
C988 C494 1.475 . S
C1023 C74 1.475 . S
C1038 C326 1.476 . S
C1073 C410 1.476 . S
C1088 C158 1.476 . S
C1123 C476 0.989 . S
C1138 C58 0.943 . S
C1173 C142 0.942 . S
C1188 C56 0.989 . S
C1223 C226 0.943 . S
C1238 C140 0.990 . S
C1273 C224 0.988 . S
C1288 C310 0.941 . S
C1323 C394 0.942 . S
C1338 C308 0.990 . S
C1373 C478 0.940 . S
C1388 C392 0.989 . S
