# Generated by pormake.
# Topology lcy-e, (6)-cn, num edge types: 1
# Building blocks:
#     Node 0, Type 0, BuildingBlock: VOLQOD_clean_sbu_1, # of connection points: 6
#     Node 1, Type 0, BuildingBlock: VOLQOD_clean_sbu_1, # of connection points: 6
#     Node 2, Type 0, BuildingBlock: VOLQOD_clean_sbu_1, # of connection points: 6
#     Node 3, Type 0, BuildingBlock: VOLQOD_clean_sbu_1, # of connection points: 6
#     Node 4, Type 0, BuildingBlock: VOLQOD_clean_sbu_1, # of connection points: 6
#     Node 5, Type 0, BuildingBlock: VOLQOD_clean_sbu_1, # of connection points: 6
#     Node 6, Type 0, BuildingBlock: VOLQOD_clean_sbu_1, # of connection points: 6
#     Node 7, Type 0, BuildingBlock: VOLQOD_clean_sbu_1, # of connection points: 6
#     Node 8, Type 0, BuildingBlock: VOLQOD_clean_sbu_1, # of connection points: 6
#     Node 9, Type 0, BuildingBlock: VOLQOD_clean_sbu_1, # of connection points: 6
#     Node 10, Type 0, BuildingBlock: VOLQOD_clean_sbu_1, # of connection points: 6
#     Node 11, Type 0, BuildingBlock: VOLQOD_clean_sbu_1, # of connection points: 6
#     Edge 12, Type (0, 0), BuildingBlock: UVAHIK_clean_linker_0, # of connection points: 2
#     Edge 13, Type (0, 0), BuildingBlock: UVAHIK_clean_linker_0, # of connection points: 2
#     Edge 14, Type (0, 0), BuildingBlock: UVAHIK_clean_linker_0, # of connection points: 2
#     Edge 15, Type (0, 0), BuildingBlock: UVAHIK_clean_linker_0, # of connection points: 2
#     Edge 16, Type (0, 0), BuildingBlock: UVAHIK_clean_linker_0, # of connection points: 2
#     Edge 17, Type (0, 0), BuildingBlock: UVAHIK_clean_linker_0, # of connection points: 2
#     Edge 18, Type (0, 0), BuildingBlock: UVAHIK_clean_linker_0, # of connection points: 2
#     Edge 19, Type (0, 0), BuildingBlock: UVAHIK_clean_linker_0, # of connection points: 2
#     Edge 20, Type (0, 0), BuildingBlock: UVAHIK_clean_linker_0, # of connection points: 2
#     Edge 21, Type (0, 0), BuildingBlock: UVAHIK_clean_linker_0, # of connection points: 2
#     Edge 22, Type (0, 0), BuildingBlock: UVAHIK_clean_linker_0, # of connection points: 2
#     Edge 23, Type (0, 0), BuildingBlock: UVAHIK_clean_linker_0, # of connection points: 2
#     Edge 24, Type (0, 0), BuildingBlock: UVAHIK_clean_linker_0, # of connection points: 2
#     Edge 25, Type (0, 0), BuildingBlock: UVAHIK_clean_linker_0, # of connection points: 2
#     Edge 26, Type (0, 0), BuildingBlock: UVAHIK_clean_linker_0, # of connection points: 2
#     Edge 27, Type (0, 0), BuildingBlock: UVAHIK_clean_linker_0, # of connection points: 2
#     Edge 28, Type (0, 0), BuildingBlock: UVAHIK_clean_linker_0, # of connection points: 2
#     Edge 29, Type (0, 0), BuildingBlock: UVAHIK_clean_linker_0, # of connection points: 2
#     Edge 30, Type (0, 0), BuildingBlock: UVAHIK_clean_linker_0, # of connection points: 2
#     Edge 31, Type (0, 0), BuildingBlock: UVAHIK_clean_linker_0, # of connection points: 2
#     Edge 32, Type (0, 0), BuildingBlock: UVAHIK_clean_linker_0, # of connection points: 2
#     Edge 33, Type (0, 0), BuildingBlock: UVAHIK_clean_linker_0, # of connection points: 2
#     Edge 34, Type (0, 0), BuildingBlock: UVAHIK_clean_linker_0, # of connection points: 2
#     Edge 35, Type (0, 0), BuildingBlock: UVAHIK_clean_linker_0, # of connection points: 2
#     Edge 36, Type (0, 0), BuildingBlock: UVAHIK_clean_linker_0, # of connection points: 2
#     Edge 37, Type (0, 0), BuildingBlock: UVAHIK_clean_linker_0, # of connection points: 2
#     Edge 38, Type (0, 0), BuildingBlock: UVAHIK_clean_linker_0, # of connection points: 2
#     Edge 39, Type (0, 0), BuildingBlock: UVAHIK_clean_linker_0, # of connection points: 2
#     Edge 40, Type (0, 0), BuildingBlock: UVAHIK_clean_linker_0, # of connection points: 2
#     Edge 41, Type (0, 0), BuildingBlock: UVAHIK_clean_linker_0, # of connection points: 2
#     Edge 42, Type (0, 0), BuildingBlock: UVAHIK_clean_linker_0, # of connection points: 2
#     Edge 43, Type (0, 0), BuildingBlock: UVAHIK_clean_linker_0, # of connection points: 2
#     Edge 44, Type (0, 0), BuildingBlock: UVAHIK_clean_linker_0, # of connection points: 2
#     Edge 45, Type (0, 0), BuildingBlock: UVAHIK_clean_linker_0, # of connection points: 2
#     Edge 46, Type (0, 0), BuildingBlock: UVAHIK_clean_linker_0, # of connection points: 2
#     Edge 47, Type (0, 0), BuildingBlock: UVAHIK_clean_linker_0, # of connection points: 2
# Relax obj value: 0.403
# Max RMSD: 0.291
# Mean RMSD: 0.282
data_MOF--net-lcy-e--node1-VOLQOD_clean_sbu_1--edge1-UVAHIK_clean_linker_0
_symmetry_space_group_name_H-M    P1
_symmetry_Int_Tables_number       1
_symmetry_cell_setting            triclinic
loop_
_symmetry_equiv_pos_as_xyz
'x, y, z'
_cell_length_a     47.398455
_cell_length_b     47.639475
_cell_length_c     47.839291
_cell_angle_alpha  990.26357
_cell_angle_beta   90.574875
_cell_angle_gamma 90.328755
loop_
_atom_site_label
_atom_site_type_symbol
_atom_site_fract_x
_atom_site_fract_y
_atom_site_fract_z
_atom_type_partial_charge
O0 O 0.24909 0.12499 0.45684 0.0
Zn1 Zn 0.22037 0.13522 0.48587 0.0
O2 O 0.18845 0.15326 0.4665 0.0
Zn3 Zn 0.18739 0.19171 0.47777 0.0
Zn4 Zn 0.19149 0.15181 0.42613 0.0
Zn5 Zn 0.15319 0.13637 0.47699 0.0
O6 O 0.15876 0.19754 0.50759 0.0
O7 O 0.1321 0.15928 0.50492 0.0
O8 O 0.24086 0.1629 0.51216 0.0
O9 O 0.22424 0.20264 0.49393 0.0
O10 O 0.17926 0.21747 0.446 0.0
O11 O 0.18648 0.19041 0.40913 0.0
O12 O 0.16013 0.12882 0.40901 0.0
O13 O 0.2076 0.0989 0.5055 0.0
O14 O 0.12927 0.12628 0.4436 0.0
O15 O 0.16158 0.10084 0.49636 0.0
C16 C 0.24978 0.12622 0.43022 0.0
C17 C 0.13782 0.18297 0.5158 0.0
C18 C 0.18064 0.21416 0.41972 0.0
C19 C 0.24193 0.18955 0.50917 0.0
C20 C 0.13581 0.12227 0.41816 0.0
C21 C 0.18279 0.08837 0.50693 0.0
O22 O 0.22917 0.13579 0.41579 0.0
O23 O 0.03209 0.7301 0.64334 0.0
Zn24 Zn -0.00095 0.75671 0.64656 0.0
O25 O 0.01271 0.79558 0.65187 0.0
Zn26 Zn 0.00032 0.81021 0.6874 0.0
Zn27 Zn 0.05368 0.79645 0.65098 0.0
Zn28 Zn -0.00175 0.8205 0.62296 0.0
O29 O 0.97038 0.83941 0.68278 0.0
O30 O 0.96734 0.84591 0.63698 0.0
O31 O 0.97691 0.74334 0.68054 0.0
O32 O 0.98258 0.77949 0.7093 0.0
O33 O 0.03227 0.82598 0.71034 0.0
O34 O 0.06963 0.81243 0.68647 0.0
O35 O 0.06799 0.82204 0.62104 0.0
O36 O 0.97563 0.75374 0.61057 0.0
O37 O 0.02949 0.84354 0.60539 0.0
O38 O 0.98005 0.79727 0.59363 0.0
C39 C 0.05877 0.73367 0.6433 0.0
C40 C 0.95895 0.8511 0.66161 0.0
C41 C 0.05887 0.82435 0.70756 0.0
C42 C 0.97355 0.7548 0.70434 0.0
C43 C 0.05623 0.84063 0.6058 0.0
C44 C 0.97144 0.77205 0.59145 0.0
O45 O 0.06971 0.75802 0.64575 0.0
O46 O 0.37813 0.83828 0.95639 0.0
Zn47 Zn 0.35525 0.81006 0.97848 0.0
O48 O 0.31519 0.81907 0.97492 0.0
Zn49 Zn 0.29711 0.82732 0.0109 0.0
Zn50 Zn 0.31035 0.85581 0.95827 0.0
Zn51 Zn 0.29724 0.79221 0.95088 0.0
O52 O 0.26688 0.79724 0.01314 0.0
O53 O 0.27303 0.76597 0.97289 0.0
O54 O 0.36765 0.81695 0.01949 0.0
O55 O 0.32582 0.81775 0.04007 0.0
O56 O 0.28387 0.8658 0.02207 0.0
O57 O 0.30144 0.88341 0.98823 0.0
O58 O 0.27836 0.8563 0.93026 0.0
O59 O 0.36386 0.77352 0.9588 0.0
O60 O 0.27139 0.81078 0.92345 0.0
O61 O 0.32613 0.76979 0.931 0.0
C62 C 0.37124 0.85849 0.94015 0.0
C63 C 0.26142 0.77691 -0.00334 0.0
C64 C 0.28958 0.88993 0.01187 0.0
C65 C 0.35252 0.81537 0.0414 0.0
C66 C 0.26545 0.83624 0.91807 0.0
C67 C 0.35105 0.76254 0.93795 0.0
O68 O 0.34584 0.86701 0.93837 0.0
O69 O 0.45173 0.1034 0.15215 0.0
Zn70 Zn 0.47962 0.12771 0.17308 0.0
O71 O 0.47828 0.16664 0.15952 0.0
Zn72 Zn 0.51568 0.17971 0.14852 0.0
Zn73 Zn 0.45303 0.16895 0.12737 0.0
Zn74 Zn 0.46416 0.1908 0.18867 0.0
O75 O 0.52924 0.21299 0.17143 0.0
O76 O 0.49299 0.21913 0.19979 0.0
O77 O 0.51924 0.11201 0.17063 0.0
O78 O 0.54332 0.14921 0.15566 0.0
O79 O 0.51771 0.18714 0.10695 0.0
O80 O 0.4746 0.17563 0.0923 0.0
O81 O 0.42508 0.1999 0.13138 0.0
O82 O 0.46667 0.12507 0.21298 0.0
O83 O 0.43048 0.21251 0.17569 0.0
O84 O 0.45436 0.1688 0.22312 0.0
C85 C 0.4331 0.10891 0.13358 0.0
C86 C 0.51744 0.22593 0.19139 0.0
C87 C 0.49981 0.1833 0.08725 0.0
C88 C 0.54243 0.12374 0.16369 0.0
C89 C 0.41794 0.21473 0.15215 0.0
C90 C 0.45688 0.14306 0.22985 0.0
O91 O 0.43104 0.13327 0.12276 0.0
O92 O 0.71484 0.27361 0.47591 0.0
Zn93 Zn 0.67927 0.29138 0.48737 0.0
O94 O 0.68785 0.32813 0.50035 0.0
Zn95 Zn 0.69029 0.32587 0.54038 0.0
Zn96 Zn 0.72291 0.34123 0.48329 0.0
Zn97 Zn 0.65716 0.35202 0.48969 0.0
O98 O 0.65766 0.34566 0.55798 0.0
O99 O 0.6312 0.35961 0.52202 0.0
O100 O 0.66347 0.2669 0.51758 0.0
O101 O 0.68652 0.28578 0.55356 0.0
O102 O 0.7266 0.34332 0.55358 0.0
O103 O 0.74914 0.35421 0.51433 0.0
O104 O 0.71509 0.37596 0.45884 0.0
O105 O 0.65405 0.29316 0.45372 0.0
O106 O 0.67347 0.38812 0.47647 0.0
O107 O 0.63611 0.33599 0.45639 0.0
C108 C 0.73789 0.28254 0.46575 0.0
C109 C 0.63523 0.3568 0.54828 0.0
C110 C 0.74781 0.35375 0.54094 0.0
C111 C 0.67195 0.26587 0.5429 0.0
C112 C 0.69532 0.39376 0.46221 0.0
C113 C 0.63817 0.31244 0.44407 0.0
O114 O 0.74344 0.30876 0.46377 0.0
O115 O 0.95088 0.25826 0.81995 0.0
Zn116 Zn 0.98533 0.28345 0.82084 0.0
O117 O 0.97434 0.3227 0.81461 0.0
Zn118 Zn 0.99467 0.33921 0.78359 0.0
Zn119 Zn 0.93439 0.32508 0.80726 0.0
Zn120 Zn 0.98283 0.34435 0.84762 0.0
O121 O 0.02486 0.36582 0.79691 0.0
O122 O 0.01916 0.36626 0.84291 0.0
O123 O 0.0109 0.27025 0.78989 0.0
O124 O 0.01498 0.30889 0.76389 0.0
O125 O 0.9688 0.35757 0.75518 0.0
O126 O 0.92695 0.34299 0.7701 0.0
O127 O 0.91537 0.34965 0.83486 0.0
O128 O 0.00349 0.27834 0.85926 0.0
O129 O 0.95062 0.36965 0.8584 0.0
O130 O 0.98969 0.31804 0.87924 0.0
C131 C 0.92491 0.26277 0.81457 0.0
C132 C 0.0329 0.37336 0.82122 0.0
C133 C 0.94209 0.35597 0.75235 0.0
C134 C 0.02029 0.28312 0.76845 0.0
C135 C 0.92439 0.36735 0.85266 0.0
C136 C -5e-05 0.29347 0.88085 0.0
O137 O 0.91602 0.2873 0.80882 0.0
O138 O 0.84938 0.64504 0.0352 0.0
Zn139 Zn 0.82687 0.66855 0.00861 0.0
O140 O 0.78756 0.65635 0.00832 0.0
Zn141 Zn 0.77414 0.64248 0.96986 0.0
Zn142 Zn 0.78384 0.62131 0.02925 0.0
Zn143 Zn 0.76516 0.6844 0.02623 0.0
O144 O 0.74319 0.67018 0.95917 0.0
O145 O 0.7404 0.70337 -0.00132 0.0
O146 O 0.84373 0.65828 0.97007 0.0
O147 O 0.80597 0.64995 0.94347 0.0
O148 O 0.76367 0.60201 0.96274 0.0
O149 O 0.77744 0.58998 0.00207 0.0
O150 O 0.75107 0.6224 0.05598 0.0
O151 O 0.83125 0.70732 0.02443 0.0
O152 O 0.73965 0.66752 0.05458 0.0
O153 O 0.78932 0.71441 0.04337 0.0
C154 C 0.84365 0.62478 0.05164 0.0
C155 C 0.73293 0.69017 0.97342 0.0
C156 C 0.76842 0.57971 0.97687 0.0
C157 C 0.83226 0.65502 0.94609 0.0
C158 C 0.73586 0.64277 0.06391 0.0
C159 C 0.8148 0.72186 0.03934 0.0
O160 O 0.81923 0.61345 0.05196 0.0
O161 O 0.52597 0.62389 0.35035 0.0
Zn162 Zn 0.50188 0.65065 0.32815 0.0
O163 O 0.50084 0.68698 0.34673 0.0
Zn164 Zn 0.46173 0.69875 0.35113 0.0
Zn165 Zn 0.52041 0.68524 0.38263 0.0
Zn166 Zn 0.52056 0.7139 0.324 0.0
O167 O 0.45238 0.73262 0.32631 0.0
O168 O 0.493 0.73816 0.3041 0.0
O169 O 0.4628 0.63446 0.32138 0.0
O170 O 0.4356 0.66848 0.33727 0.0
O171 O 0.45227 0.70225 0.3923 0.0
O172 O 0.49147 0.68624 0.41281 0.0
O173 O 0.54718 0.7182 0.38844 0.0
O174 O 0.52209 0.65333 0.29151 0.0
O175 O 0.54549 0.73891 0.34685 0.0
O176 O 0.54365 0.6947 0.2949 0.0
C177 C 0.54199 0.62653 0.37174 0.0
C178 C 0.46721 0.74443 0.30738 0.0
C179 C 0.46591 0.69429 0.41409 0.0
C180 C 0.43844 0.64447 0.32616 0.0
C181 C 0.55444 0.73801 0.37199 0.0
C182 C 0.54008 0.67119 0.28277 0.0
O183 O 0.54266 0.64918 0.38586 0.0
O184 O 0.12732 0.45832 0.22843 0.0
Zn185 Zn 0.13517 0.48796 0.19859 0.0
O186 O 0.14301 0.46949 0.16277 0.0
Zn187 Zn 0.18047 0.47841 0.15043 0.0
Zn188 Zn 0.13948 0.42945 0.16621 0.0
Zn189 Zn 0.11694 0.48117 0.13396 0.0
O190 O 0.17974 0.50617 0.11896 0.0
O191 O 0.13411 0.51151 0.10985 0.0
O192 O 0.16959 0.51049 0.21245 0.0
O193 O 0.20131 0.49707 0.18139 0.0
O194 O 0.20264 0.44426 0.14048 0.0
O195 O 0.17642 0.41079 0.1597 0.0
O196 O 0.11392 0.4127 0.13752 0.0
O197 O 0.09929 0.51135 0.19465 0.0
O198 O 0.10426 0.4487 0.10963 0.0
O199 O 0.08361 0.49745 0.1527 0.0
C200 C 0.12326 0.43189 0.22669 0.0
C201 C 0.15978 0.5183 0.10576 0.0
C202 C 0.19886 0.41875 0.14759 0.0
C203 C 0.195 0.50976 0.20379 0.0
C204 C 0.10325 0.42251 0.1151 0.0
C205 C 0.08006 0.51012 0.17577 0.0
O206 O 0.12626 0.41886 0.2038 0.0
O207 O 0.70756 0.97543 0.7852 0.0
Zn208 Zn 0.68596 -0.00584 0.81511 0.0
O209 O 0.64938 0.0046 0.79986 0.0
Zn210 Zn 0.64674 0.04493 0.79841 0.0
Zn211 Zn 0.64311 -0.01208 0.76256 0.0
Zn212 Zn 0.62098 -0.00817 0.82538 0.0
O213 O 0.62065 0.06058 0.82705 0.0
O214 O 0.60506 0.02265 0.84903 0.0
O215 O 0.70957 0.02793 0.82606 0.0
O216 O 0.68438 0.06215 0.80663 0.0
O217 O 0.63394 0.05739 0.76065 0.0
O218 O 0.63487 0.01891 0.73444 0.0
O219 O 0.60837 0.96192 0.76309 0.0
O220 O 0.68261 0.96532 0.84599 0.0
O221 O 0.58992 0.97411 0.80398 0.0
O222 O 0.63617 0.96143 0.84997 0.0
C223 C 0.70295 0.96587 0.76079 0.0
C224 C 0.60624 0.04922 0.84634 0.0
C225 C 0.63092 0.0452 0.7372 0.0
C226 C 0.70666 0.05359 0.81896 0.0
C227 C 0.58828 0.96148 0.78069 0.0
C228 C 0.66095 0.95345 0.85643 0.0
O229 O 0.67871 0.96801 0.74908 0.0
O230 O 0.85586 0.9359 0.3751 0.0
Zn231 Zn 0.82876 0.96078 0.35354 0.0
O232 O 0.83841 0.95969 0.31393 0.0
Zn233 Zn 0.84234 -0.00297 0.29816 0.0
Zn234 Zn 0.87291 0.93918 0.30797 0.0
Zn235 Zn 0.80892 0.94021 0.29449 0.0
O236 O 0.81323 0.00444 0.26754 0.0
O237 O 0.78538 0.96721 0.27307 0.0
O238 O 0.8283 0.00126 0.36779 0.0
O239 O 0.83494 0.02488 0.32819 0.0
O240 O 0.88265 0.00499 0.28669 0.0
O241 O 0.9044 0.9662 0.30106 0.0
O242 O 0.87037 0.91426 0.27403 0.0
O243 O 0.79082 0.94186 0.36072 0.0
O244 O 0.82428 0.91439 0.26599 0.0
O245 O 0.7843 0.91901 0.32078 0.0
C246 C 0.87405 0.91788 0.36745 0.0
C247 C 0.79044 0.99105 0.26209 0.0
C248 C 0.90518 0.9911 0.29126 0.0
C249 C 0.83044 0.02443 0.35437 0.0
C250 C 0.84897 0.90647 0.25973 0.0
C251 C 0.7778 0.92348 0.34611 0.0
O252 O 0.8817 0.91602 0.34205 0.0
O253 O 0.34335 0.51978 0.63955 0.0
Zn254 Zn 0.32161 0.49483 0.66595 0.0
O255 O 0.34007 0.49383 0.70272 0.0
Zn256 Zn 0.34564 0.455 0.7152 0.0
Zn257 Zn 0.37611 0.51329 0.70094 0.0
Zn258 Zn 0.31711 0.51334 0.72933 0.0
O259 O 0.32267 0.44555 0.75005 0.0
O260 O 0.30078 0.48614 0.75619 0.0
O261 O 0.31734 0.45559 0.64975 0.0
O262 O 0.33102 0.4291 0.6857 0.0
O263 O 0.38753 0.44554 0.71755 0.0
O264 O 0.40696 0.48515 0.70184 0.0
O265 O 0.38235 0.53936 0.73346 0.0
O266 O 0.2835 0.51347 0.66821 0.0
O267 O 0.33982 0.54045 0.75227 0.0
O268 O 0.28446 0.5327 0.71043 0.0
C269 C 0.36498 0.53554 0.64257 0.0
C270 C 0.30487 0.46064 0.76294 0.0
C271 C 0.40903 0.45964 0.70958 0.0
C272 C 0.32136 0.43154 0.66092 0.0
C273 C 0.36555 0.54819 0.75198 0.0
C274 C 0.27268 0.52929 0.68662 0.0
O275 O 0.37918 0.53574 0.66533 0.0
C276 C 0.27501 0.22962 0.51031 0.0
C277 C 0.26256 0.20694 0.52448 0.0
C278 C 0.28721 0.25172 0.52512 0.0
C279 C 0.31064 0.27817 0.5937 0.0
H280 H 0.27556 0.34706 0.5677 0.0
C281 C 0.31336 0.3797 0.65895 0.0
C282 C 0.31567 0.40559 0.64489 0.0
C283 C 0.3093 0.35484 0.64411 0.0
C284 C 0.28601 0.32821 0.575 0.0
H285 H 0.25514 0.1882 0.56504 0.0
H286 H 0.27669 0.22716 0.59129 0.0
H287 H 0.26735 0.30371 0.54236 0.0
H288 H 0.31566 0.42565 0.60415 0.0
H289 H 0.30925 0.38216 0.57807 0.0
H290 H 0.32948 0.30278 0.6263 0.0
C291 C 0.2771 0.22769 0.56866 0.0
C292 C 0.28124 0.3033 0.56048 0.0
C293 C 0.26492 0.20535 0.5537 0.0
C294 C 0.31369 0.40608 0.61559 0.0
C295 C 0.30995 0.38111 0.60068 0.0
C296 C 0.31571 0.30325 0.60811 0.0
C297 C 0.28699 0.25169 0.55445 0.0
C298 C 0.29344 0.27802 0.56967 0.0
C299 C 0.30774 0.35515 0.61476 0.0
C300 C 0.3033 0.32857 0.59901 0.0
H301 H 0.27348 0.23122 0.48773 0.0
H302 H 0.29521 0.26969 0.51365 0.0
H303 H 0.32034 0.25898 0.60117 0.0
H304 H 0.31459 0.3786 0.68156 0.0
H305 H 0.30706 0.33541 0.65572 0.0
C306 C 0.72633 0.94851 0.71684 0.0
C307 C 0.72718 0.9536 0.7458 0.0
C308 C 0.75071 0.93981 0.7029 0.0
C309 C 0.82812 0.94262 0.71083 0.0
H310 H 0.83006 0.87888 0.66083 0.0
C311 C 0.92826 0.87947 0.69267 0.0
C312 C 0.93394 0.86901 0.66592 0.0
C313 C 0.9031 0.89346 0.69788 0.0
C314 C 0.82977 0.89708 0.67432 0.0
H315 H 0.75396 0.95202 0.78293 0.0
H316 H 0.7958 0.93694 0.75884 0.0
H317 H 0.78469 0.89542 0.67834 0.0
H318 H 0.91793 0.86573 0.6234 0.0
H319 H 0.87366 0.89019 0.63265 0.0
H320 H 0.87307 0.94385 0.70763 0.0
C321 C 0.77665 0.94023 0.74673 0.0
C322 C 0.80381 0.9065 0.68435 0.0
C323 C 0.75251 0.94874 0.76057 0.0
C324 C 0.91423 0.87368 0.64422 0.0
C325 C 0.8888 0.88746 0.64954 0.0
C326 C 0.85393 0.93325 0.70086 0.0
C327 C 0.77627 0.93627 0.71769 0.0
C328 C 0.80286 0.92877 0.70345 0.0
C329 C 0.88285 0.89719 0.67653 0.0
C330 C 0.85516 0.90982 0.68322 0.0
H331 H 0.70717 0.95206 0.70487 0.0
H332 H 0.74981 0.93675 0.68049 0.0
H333 H 0.82798 0.96026 0.72503 0.0
H334 H 0.94297 0.87624 0.70984 0.0
H335 H 0.89903 0.90041 0.71898 0.0
C336 C 0.23487 0.75114 0.03399 0.0
C337 C 0.243 0.75356 0.00591 0.0
C338 C 0.22095 0.727 0.04339 0.0
C339 C 0.18327 0.66239 0.0208 0.0
H340 H 0.21838 0.63027 0.08705 0.0
C341 C 0.14523 0.56079 0.07801 0.0
C342 C 0.16661 0.5429 0.08803 0.0
C343 C 0.15212 0.58652 0.06553 0.0
C344 C 0.20844 0.63892 0.06846 0.0
H345 H 0.24105 0.72417 0.96529 0.0
H346 H 0.21698 0.68212 0.98177 0.0
H347 H 0.23276 0.6767 0.07113 0.0
H348 H 0.21197 0.53702 0.09075 0.0
H349 H 0.22383 0.58165 0.06891 0.0
H350 H 0.15934 0.6241 0.01797 0.0
C351 C 0.22135 0.70809 -0.00351 0.0
C352 C 0.21637 0.66569 0.05958 0.0
C353 C 0.2353 0.72289 0.98712 0.0
C354 C 0.19495 0.55042 0.08362 0.0
C355 C 0.20178 0.57607 0.07125 0.0
C356 C 0.17516 0.63558 0.02984 0.0
C357 C 0.21476 0.70491 0.02487 0.0
C358 C 0.20412 0.6776 0.03549 0.0
C359 C 0.18047 0.59476 0.06294 0.0
C360 C 0.18803 0.62345 0.05351 0.0
H361 H 0.24029 0.76732 0.04897 0.0
H362 H 0.21575 0.72525 0.06533 0.0
H363 H 0.1734 0.67114 0.00221 0.0
H364 H 0.12319 0.55559 0.08102 0.0
H365 H 0.13528 0.60055 0.05925 0.0
C366 C 0.59481 0.1218 0.15917 0.0
C367 C 0.56931 0.10822 0.16596 0.0
C368 C 0.62055 0.10842 0.1634 0.0
C369 C 0.6545 0.04022 0.17503 0.0
H370 H 0.70857 0.08346 0.21872 0.0
C371 C 0.74293 0.98914 0.23928 0.0
C372 C 0.76853 0.00358 0.24376 0.0
C373 C 0.72099 0.00156 0.22425 0.0
C374 C 0.69409 0.07126 0.20594 0.0
H375 H 0.55088 0.06938 0.18129 0.0
H376 H 0.59613 0.04593 0.18873 0.0
H377 H 0.66517 0.10539 0.20253 0.0
H378 H 0.79167 0.04188 0.23459 0.0
H379 H 0.75333 0.0635 0.20775 0.0
H380 H 0.68331 0.00598 0.17865 0.0
C381 C 0.59599 0.06697 0.18006 0.0
C382 C 0.66913 0.08381 0.19679 0.0
C383 C 0.57012 0.08045 0.17596 0.0
C384 C 0.77213 0.0303 0.23172 0.0
C385 C 0.75013 0.04272 0.21646 0.0
C386 C 0.67963 0.02772 0.18395 0.0
C387 C 0.62144 0.0811 0.17437 0.0
C388 C 0.64886 0.06826 0.18174 0.0
C389 C 0.7241 0.02869 0.21307 0.0
C390 C 0.69942 0.04291 0.20009 0.0
H391 H 0.59503 0.1431 0.15116 0.0
H392 H 0.63985 0.11963 0.15851 0.0
H393 H 0.63936 0.02791 0.16312 0.0
H394 H 0.73937 0.96848 0.24816 0.0
H395 H 0.70116 0.99028 0.22248 0.0
C396 C 0.76941 0.25993 0.43058 0.0
C397 C 0.75847 0.26109 0.45768 0.0
C398 C 0.78317 0.2356 0.42155 0.0
C399 C 0.78164 0.15996 0.43712 0.0
H400 H 0.84409 0.15559 0.38575 0.0
C401 C 0.8215 0.05315 0.39757 0.0
C402 C 0.8272 0.05173 0.36884 0.0
C403 C 0.81728 0.07915 0.41042 0.0
C404 C 0.82652 0.15648 0.4 0.0
H405 H 0.75524 0.23923 0.49731 0.0
H406 H 0.77994 0.19749 0.48203 0.0
H407 H 0.83011 0.20122 0.40415 0.0
H408 H 0.83356 0.07678 0.33129 0.0
H409 H 0.82569 0.1216 0.35346 0.0
H410 H 0.77737 0.11556 0.4325 0.0
C411 C 0.77729 0.21471 0.46739 0.0
C412 C 0.81855 0.18263 0.41053 0.0
C413 C 0.76339 0.2387 0.47622 0.0
C414 C 0.82919 0.07694 0.35347 0.0
C415 C 0.82493 0.1028 0.36625 0.0
C416 C 0.78951 0.13393 0.42657 0.0
C417 C 0.78621 0.2123 0.43961 0.0
C418 C 0.79592 0.18467 0.42912 0.0
C419 C 0.81862 0.10429 0.39481 0.0
C420 C 0.81189 0.13183 0.40769 0.0
H421 H 0.76558 0.27687 0.41587 0.0
H422 H 0.78978 0.23438 0.39999 0.0
H423 H 0.7637 0.1608 0.45093 0.0
H424 H 0.81999 0.0342 0.41007 0.0
H425 H 0.8128 0.07956 0.43257 0.0
C426 C 0.0773 0.38295 0.84841 0.0
C427 C 0.06068 0.38733 0.82426 0.0
C428 C 0.10549 0.39187 0.84925 0.0
C429 C 0.1564 0.43991 0.81696 0.0
H430 H 0.21226 0.38217 0.83119 0.0
C431 C 0.27477 0.42069 0.77957 0.0
C432 C 0.28518 0.44809 0.78329 0.0
C433 C 0.24988 0.41216 0.7928 0.0
C434 C 0.1969 0.39854 0.82744 0.0
H435 H 0.06001 0.40576 0.78276 0.0
H436 H 0.10888 0.4221 0.7846 0.0
H437 H 0.16205 0.37174 0.83815 0.0
H438 H 0.27995 0.48674 0.80638 0.0
H439 H 0.23698 0.47171 0.82974 0.0
H440 H 0.1908 0.46646 0.80535 0.0
C441 C 0.10023 0.41152 0.80271 0.0
C442 C 0.16825 0.39266 0.83158 0.0
C443 C 0.07228 0.40215 0.80165 0.0
C444 C 0.27218 0.4656 0.80285 0.0
C445 C 0.24749 0.45707 0.81611 0.0
C446 C 0.18495 0.44589 0.81318 0.0
C447 C 0.11731 0.40584 0.82622 0.0
C448 C 0.14772 0.41312 0.82571 0.0
C449 C 0.23521 0.4309 0.80999 0.0
C450 C 0.20549 0.42513 0.81782 0.0
H451 H 0.06901 0.37135 0.86607 0.0
H452 H 0.11821 0.38739 0.86765 0.0
H453 H 0.141 0.45605 0.81235 0.0
H454 H 0.28428 0.40681 0.76451 0.0
H455 H 0.24091 0.39184 0.78769 0.0
C456 C 0.64115 0.90939 0.87707 0.0
C457 C 0.66436 0.92753 0.87321 0.0
C458 C 0.64488 0.88286 0.88896 0.0
C459 C 0.69125 0.84081 0.93326 0.0
H460 H 0.66265 0.77714 0.89094 0.0
C461 C 0.71629 0.71718 0.93127 0.0
C462 C 0.71492 0.71173 0.96013 0.0
C463 C 0.70502 0.74203 0.92023 0.0
C464 C 0.67061 0.79475 0.90295 0.0
H465 H 0.7094 0.93256 0.88014 0.0
H466 H 0.71573 0.88633 0.90165 0.0
H467 H 0.65394 0.82504 0.87399 0.0
H468 H 0.69803 0.73558 -0.00056 0.0
H469 H 0.67844 0.76944 0.98014 0.0
H470 H 0.70808 0.81071 0.96211 0.0
C471 C 0.69475 0.89267 0.89512 0.0
C472 C 0.66553 0.82206 0.8934 0.0
C473 C 0.69112 0.9191 0.88283 0.0
C474 C 0.69978 0.73017 0.97718 0.0
C475 C 0.68867 0.7549 0.96621 0.0
C476 C 0.69595 0.81359 0.943 0.0
C477 C 0.67177 0.8741 0.89764 0.0
C478 C 0.67603 0.84529 0.90838 0.0
C479 C 0.6923 0.76165 0.93792 0.0
C480 C 0.68582 0.79032 0.92788 0.0
H481 H 0.62024 0.91515 0.86983 0.0
H482 H 0.6268 0.86901 0.891 0.0
H483 H 0.69948 0.85837 0.94518 0.0
H484 H 0.72785 0.70338 0.91764 0.0
H485 H 0.70802 0.7468 0.89829 0.0
C486 C 0.38589 0.63801 0.32553 0.0
C487 C 0.41276 0.62875 0.31745 0.0
C488 C 0.36147 0.62467 0.31557 0.0
C489 C 0.33644 0.58371 0.25581 0.0
H490 H 0.27196 0.56561 0.302 0.0
C491 C 0.24631 0.51611 0.21351 0.0
C492 C 0.21833 0.5233 0.2197 0.0
C493 C 0.26888 0.52916 0.22707 0.0
C494 C 0.28964 0.5709 0.28878 0.0
H495 H 0.43496 0.5976 0.29327 0.0
H496 H 0.39229 0.5744 0.27581 0.0
H497 H 0.31399 0.58725 0.32316 0.0
H498 H 0.19217 0.54942 0.24571 0.0
H499 H 0.23203 0.57285 0.26931 0.0
H500 H 0.31229 0.56789 0.22139 0.0
C501 C 0.3902 0.59214 0.28972 0.0
C502 C 0.31373 0.58317 0.30091 0.0
C503 C 0.41464 0.60532 0.29985 0.0
C504 C 0.21348 0.54348 0.24043 0.0
C505 C 0.23629 0.5568 0.25398 0.0
C506 C 0.31241 0.57169 0.2437 0.0
C507 C 0.36336 0.60194 0.29713 0.0
C508 C 0.33751 0.58933 0.28457 0.0
C509 C 0.26426 0.55003 0.24708 0.0
C510 C 0.28887 0.5647 0.26007 0.0
H511 H 0.38366 0.65592 0.33917 0.0
H512 H 0.34111 0.63278 0.32153 0.0
H513 H 0.35415 0.58887 0.24255 0.0
H514 H 0.25093 0.50029 0.19804 0.0
H515 H 0.29007 0.52281 0.22179 0.0
C516 C 0.51892 0.26853 0.22112 0.0
C517 C 0.53335 0.24666 0.20803 0.0
C518 C 0.53181 0.28371 0.24265 0.0
C519 C 0.59927 0.29193 0.28356 0.0
H520 H 0.5477 0.29972 0.34551 0.0
C521 C 0.63395 0.28713 0.39867 0.0
C522 C 0.62447 0.30843 0.41647 0.0
C523 C 0.62332 0.28484 0.37151 0.0
C524 C 0.56226 0.29808 0.32829 0.0
H525 H 0.57313 0.22478 0.20553 0.0
H526 H 0.59536 0.25037 0.24381 0.0
H527 H 0.52927 0.2881 0.2994 0.0
H528 H 0.59585 0.34361 0.41991 0.0
H529 H 0.5765 0.33888 0.37243 0.0
H530 H 0.63238 0.30013 0.31333 0.0
C531 C 0.57437 0.25648 0.23718 0.0
C532 C 0.55175 0.2916 0.30173 0.0
C533 C 0.56165 0.24172 0.21519 0.0
C534 C 0.60353 0.32695 0.40671 0.0
C535 C 0.59252 0.32432 0.37959 0.0
C536 C 0.60979 0.29797 0.31026 0.0
C537 C 0.55913 0.27679 0.25202 0.0
C538 C 0.57016 0.28784 0.2791 0.0
C539 C 0.60268 0.30351 0.36166 0.0
C540 C 0.5914 0.30051 0.33293 0.0
H541 H 0.49712 0.27289 0.21573 0.0
H542 H 0.51975 0.29983 0.25294 0.0
H543 H 0.61404 0.28976 0.26659 0.0
H544 H 0.65018 0.27262 0.40543 0.0
H545 H 0.63115 0.26833 0.3582 0.0
C546 C 0.12772 0.21869 0.55235 0.0
C547 C 0.12219 0.1922 0.54067 0.0
C548 C 0.11661 0.22579 0.57821 0.0
C549 C 0.06286 0.20701 0.63034 0.0
H550 H 0.11483 0.24519 0.68073 0.0
C551 C 0.03178 0.23924 0.74231 0.0
C552 C 0.03647 0.26795 0.74724 0.0
C553 C 0.04405 0.22626 0.71926 0.0
C554 C 0.10013 0.23446 0.6669 0.0
H555 H 0.09936 0.15296 0.5463 0.0
H556 H 0.08007 0.16541 0.59163 0.0
H557 H 0.13081 0.23081 0.63475 0.0
H558 H 0.05891 0.30514 0.73319 0.0
H559 H 0.08052 0.2825 0.69343 0.0
H560 H 0.03207 0.21113 0.66253 0.0
C561 C 0.09296 0.18066 0.5807 0.0
C562 C 0.10918 0.22642 0.64052 0.0
C563 C 0.10402 0.17356 0.55472 0.0
C564 C 0.05483 0.28301 0.72979 0.0
C565 C 0.06734 0.27 0.70712 0.0
C566 C 0.05382 0.21501 0.65684 0.0
C567 C 0.09981 0.20655 0.59304 0.0
C568 C 0.09046 0.21323 0.6217 0.0
C569 C 0.06155 0.24171 0.70122 0.0
C570 C 0.07221 0.22939 0.67509 0.0
H571 H 0.14139 0.23365 0.54195 0.0
H572 H 0.12164 0.24621 0.58687 0.0
H573 H 0.04796 0.19693 0.61626 0.0
H574 H 0.01759 0.22721 0.7554 0.0
H575 H 0.03941 0.20435 0.7152 0.0
C576 C 0.95489 0.71027 0.72634 0.0
C577 C 0.9595 0.73944 0.72733 0.0
C578 C 0.94341 0.69609 0.74938 0.0
C579 C 0.9338 0.70483 0.82558 0.0
H580 H 0.87392 0.64967 0.81746 0.0
C581 C 0.83631 0.65996 0.8942 0.0
C582 C 0.84948 0.65787 0.92058 0.0
C583 C 0.85225 0.66444 0.87021 0.0
C584 C 0.89063 0.66506 0.82008 0.0
H585 H 0.95447 0.77671 0.75279 0.0
H586 H 0.93423 0.75228 0.79226 0.0
H587 H 0.89656 0.66889 0.77584 0.0
H588 H 0.88989 0.65734 0.94226 0.0
H589 H 0.91781 0.66457 0.90028 0.0
H590 H 0.92696 0.70244 0.8695 0.0
C591 C 0.94018 0.74013 0.77418 0.0
C592 C 0.90381 0.67581 0.79623 0.0
C593 C 0.95163 0.75418 0.75139 0.0
C594 C 0.87906 0.65923 0.92229 0.0
C595 C 0.89506 0.66344 0.89822 0.0
C596 C 0.92057 0.69426 0.84932 0.0
C597 C 0.93639 0.71089 0.77371 0.0
C598 C 0.92496 0.69644 0.79874 0.0
C599 C 0.8818 0.66668 0.87195 0.0
C600 C 0.89832 0.67478 0.84687 0.0
H601 H 0.96076 0.69834 0.7081 0.0
H602 H 0.94067 0.67353 0.74841 0.0
H603 H 0.95045 0.72028 0.82823 0.0
H604 H 0.81355 0.65901 0.8921 0.0
H605 H 0.84125 0.66727 0.85046 0.0
C606 C 0.42488 0.76054 0.27983 0.0
C607 C 0.45389 0.76262 0.28588 0.0
C608 C 0.41387 0.77212 0.25507 0.0
C609 C 0.39511 0.80595 0.20326 0.0
H610 H 0.44002 0.78435 0.13956 0.0
C611 C 0.39454 0.81613 0.07413 0.0
C612 C 0.36562 0.81132 0.06938 0.0
C613 C 0.40602 0.81366 0.10115 0.0
C614 C 0.42743 0.79106 0.15704 0.0
H615 H 0.49349 0.78099 0.27227 0.0
H616 H 0.47424 0.80127 0.22944 0.0
H617 H 0.45796 0.77617 0.1867 0.0
H618 H 0.32628 0.79935 0.08917 0.0
H619 H 0.3463 0.79426 0.13566 0.0
H620 H 0.3645 0.82076 0.17362 0.0
C621 C 0.46014 0.79015 0.24339 0.0
C622 C 0.43771 0.78634 0.18411 0.0
C623 C 0.4711 0.77865 0.26802 0.0
C624 C 0.34861 0.80351 0.09207 0.0
C625 C 0.36006 0.80083 0.11889 0.0
C626 C 0.38491 0.81092 0.17616 0.0
C627 C 0.4317 0.78597 0.23605 0.0
C628 C 0.42151 0.79338 0.20752 0.0
C629 C 0.38884 0.80612 0.1239 0.0
C630 C 0.40073 0.80307 0.15269 0.0
H631 H 0.41108 0.74826 0.2931 0.0
H632 H 0.39183 0.76857 0.24996 0.0
H633 H 0.38229 0.81185 0.22089 0.0
H634 H 0.40817 0.82234 0.05712 0.0
H635 H 0.42826 0.81809 0.10427 0.0
C636 C 0.16497 0.23363 0.37362 0.0
C637 C 0.17389 0.23813 0.40129 0.0
C638 C 0.1567 0.25619 0.35682 0.0
C639 C 0.15509 0.30753 0.32046 0.0
H640 H 0.11458 0.37051 0.35164 0.0
C641 C 0.13002 0.42254 0.27786 0.0
C642 C 0.1183 0.41479 0.2519 0.0
C643 C 0.13225 0.40267 0.29943 0.0
C644 C 0.1259 0.35302 0.34281 0.0
H645 H 0.18185 0.26977 0.43292 0.0
H646 H 0.16854 0.30928 0.40323 0.0
H647 H 0.12899 0.33152 0.3821 0.0
H648 H 0.09652 0.38166 0.22924 0.0
H649 H 0.10044 0.34722 0.26677 0.0
H650 H 0.15141 0.32867 0.28114 0.0
C651 C 0.16705 0.28829 0.39474 0.0
C652 C 0.13434 0.33081 0.36016 0.0
C653 C 0.17491 0.26567 0.41168 0.0
C654 C 0.10609 0.38803 0.24889 0.0
C655 C 0.10833 0.36832 0.27031 0.0
C656 C 0.1463 0.3294 0.30316 0.0
C657 C 0.15764 0.28381 0.36716 0.0
C658 C 0.14895 0.30774 0.34912 0.0
C659 C 0.12272 0.37504 0.29513 0.0
C660 C 0.13152 0.35221 0.31412 0.0
H661 H 0.16362 0.2126 0.36517 0.0
H662 H 0.14906 0.25186 0.33587 0.0
H663 H 0.16694 0.29057 0.31133 0.0
H664 H 0.13958 0.44305 0.28069 0.0
H665 H 0.14341 0.40824 0.31851 0.0
C666 C 0.92776 0.77605 0.56389 0.0
C667 C 0.95515 0.76538 0.56621 0.0
C668 C 0.91607 0.78184 0.53763 0.0
C669 C 0.94422 0.80605 0.47126 0.0
H670 H 0.86505 0.81737 0.45386 0.0
C671 C 0.8711 0.89368 0.41392 0.0
C672 C 0.88426 0.8967 0.38786 0.0
C673 C 0.87866 0.87185 0.43202 0.0
C674 C 0.88725 0.81429 0.45844 0.0
H675 H 0.99086 0.74968 0.54344 0.0
H676 H 0.97007 0.75874 0.49729 0.0
H677 H 0.87857 0.7843 0.49073 0.0
H678 H 0.91616 0.87944 0.3607 0.0
H679 H 0.92967 0.84161 0.39263 0.0
H680 H 0.95284 0.83664 0.43955 0.0
C681 C 0.95773 0.76315 0.51567 0.0
C682 C 0.895 0.79531 0.47947 0.0
C683 C 0.96948 0.75751 0.54203 0.0
C684 C 0.90564 0.87777 0.38063 0.0
C685 C 0.91336 0.85607 0.39887 0.0
C686 C 0.93647 0.82483 0.45011 0.0
C687 C 0.93173 0.77716 0.51326 0.0
C688 C 0.92356 0.79173 0.48685 0.0
C689 C 0.89969 0.85268 0.42459 0.0
C690 C 0.9079 0.82988 0.44417 0.0
H691 H 0.91665 0.7828 0.58236 0.0
H692 H 0.8961 0.79274 0.53673 0.0
H693 H 0.9664 0.80429 0.47659 0.0
H694 H 0.85448 0.90778 0.42013 0.0
H695 H 0.86815 0.87007 0.45196 0.0
C696 C 0.35996 0.57164 0.79806 0.0
C697 C 0.37597 0.56748 0.7739 0.0
C698 C 0.36891 0.5906 0.8184 0.0
C699 C 0.40656 0.65604 0.8245 0.0
H700 H 0.39103 0.6448 0.90325 0.0
C701 C 0.38668 0.72424 0.93179 0.0
C702 C 0.36539 0.74155 0.92066 0.0
C703 C 0.39856 0.70319 0.91535 0.0
C704 C 0.39621 0.64818 0.88149 0.0
H705 H 0.41447 0.57928 0.75256 0.0
H706 H 0.42984 0.61312 0.78808 0.0
H707 H 0.39288 0.60437 0.87212 0.0
H708 H 0.34106 0.75162 0.88333 0.0
H709 H 0.36183 0.71534 0.8548 0.0
H710 H 0.40809 0.7 0.83354 0.0
C711 C 0.41044 0.60144 0.7912 0.0
C712 C 0.39702 0.6251 0.86364 0.0
C713 C 0.40162 0.58214 0.77091 0.0
C714 C 0.35719 0.73838 0.89257 0.0
C715 C 0.36936 0.71783 0.87611 0.0
C716 C 0.4056 0.67913 0.84231 0.0
C717 C 0.39398 0.60604 0.815 0.0
C718 C 0.40077 0.62898 0.83476 0.0
C719 C 0.38977 0.6997 0.88742 0.0
C720 C 0.39899 0.67549 0.87066 0.0
H721 H 0.34023 0.5605 0.80113 0.0
H722 H 0.35551 0.59405 0.83627 0.0
H723 H 0.40947 0.65969 0.80234 0.0
H724 H 0.39341 0.72633 0.95339 0.0
H725 H 0.41419 0.68936 0.92454 0.0
C726 C 0.48935 0.18204 0.03597 0.0
C727 C 0.50925 0.18367 0.05789 0.0
C728 C 0.49789 0.176 0.00882 0.0
C729 C 0.56054 0.15699 0.96346 0.0
H730 H 0.51533 0.09618 0.93275 0.0
C731 C 0.57627 0.05537 0.88869 0.0
C732 C 0.59153 0.06731 0.86656 0.0
C733 C 0.56377 0.07242 0.90866 0.0
C734 C 0.52816 0.11316 0.94102 0.0
H735 H 0.55395 0.18271 0.06806 0.0
H736 H 0.56878 0.17166 0.0209 0.0
H737 H 0.49882 0.12129 0.97347 0.0
H738 H 0.60495 0.10665 0.84765 0.0
H739 H 0.58292 0.13637 0.88246 0.0
H740 H 0.59064 0.14767 0.93182 0.0
C741 C 0.54659 0.17529 0.02453 0.0
C742 C 0.51852 0.12787 0.96414 0.0
C743 C 0.53807 0.18154 0.05166 0.0
C744 C 0.59345 0.09673 0.86451 0.0
C745 C 0.58095 0.11379 0.88451 0.0
C746 C 0.57023 0.14221 0.94031 0.0
C747 C 0.52648 0.17127 0.00307 0.0
C748 C 0.53488 0.14953 0.97605 0.0
C749 C 0.5662 0.10181 0.90696 0.0
C750 C 0.55445 0.11967 0.92929 0.0
H751 H 0.467 0.18399 0.04001 0.0
H752 H 0.48189 0.16449 0.9926 0.0
H753 H 0.5735 0.17376 0.97196 0.0
H754 H 0.57439 0.0328 0.89095 0.0
H755 H 0.55289 0.06251 0.92593 0.0
C756 C 0.64472 0.22132 0.55087 0.0
C757 C 0.66447 0.24134 0.56039 0.0
C758 C 0.63707 0.19864 0.56786 0.0
C759 C 0.63729 0.1766 0.64194 0.0
H760 H 0.62704 0.10166 0.61203 0.0
C761 C 0.60902 0.08727 0.71544 0.0
C762 C 0.62509 0.06285 0.71253 0.0
C763 C 0.60795 0.10712 0.69399 0.0
C764 C 0.62986 0.12247 0.62069 0.0
H765 H 0.69227 0.2528 0.59485 0.0
H766 H 0.67944 0.21304 0.62413 0.0
H767 H 0.63881 0.14047 0.58061 0.0
H768 H 0.65109 0.03894 0.68442 0.0
H769 H 0.65027 0.07417 0.64722 0.0
H770 H 0.62994 0.15872 0.68207 0.0
C771 C 0.66929 0.2152 0.60385 0.0
C772 C 0.63633 0.14474 0.60266 0.0
C773 C 0.67678 0.23793 0.58699 0.0
C774 C 0.63848 0.05762 0.68708 0.0
C775 C 0.63791 0.0778 0.66576 0.0
C776 C 0.63105 0.15442 0.65991 0.0
C777 C 0.64911 0.19547 0.59463 0.0
C778 C 0.64056 0.17197 0.6132 0.0
C779 C 0.62355 0.10329 0.66947 0.0
C780 C 0.62752 0.127 0.6496 0.0
H781 H 0.63481 0.22338 0.53047 0.0
H782 H 0.62131 0.18393 0.56024 0.0
H783 H 0.63989 0.1974 0.65068 0.0
H784 H 0.59816 0.09154 0.73478 0.0
H785 H 0.59595 0.12609 0.69719 0.0
C786 C 0.08837 0.37401 0.10122 0.0
C787 C 0.09199 0.40253 0.09417 0.0
C788 C 0.08068 0.35444 0.08085 0.0
C789 C 0.08292 0.34355 0.00506 0.0
H790 H 0.02108 0.29122 0.01645 0.0
C791 C 0.9943 0.29056 0.93194 0.0
C792 C 0.01048 0.28449 0.90838 0.0
C793 C 0.00694 0.2919 0.95829 0.0
C794 C 0.03872 0.30536 0.01314 0.0
H795 H 0.08959 0.43294 0.06035 0.0
H796 H 0.07598 0.39875 0.02482 0.0
H797 H 0.03749 0.32064 0.05517 0.0
H798 H 0.05161 0.27196 0.89389 0.0
H799 H 0.07401 0.2745 0.94022 0.0
H800 H 0.08313 0.32045 0.96273 0.0
C801 C 0.0795 0.39154 0.04608 0.0
C802 C 0.0481 0.32218 0.03527 0.0
C803 C 0.08697 0.41117 0.06648 0.0
C804 C 0.03874 0.27655 0.91187 0.0
C805 C 0.05155 0.27824 0.9383 0.0
C806 C 0.07362 0.31745 0.98303 0.0
C807 C 0.0767 0.36294 0.053 0.0
C808 C 0.06951 0.34223 0.03106 0.0
C809 C 0.0361 0.28762 0.96141 0.0
C810 C 0.05066 0.299 0.98651 0.0
H811 H 0.09202 0.36666 0.1224 0.0
H812 H 0.07861 0.33255 0.08674 0.0
H813 H 0.09987 0.35844 0.00143 0.0
H814 H 0.97242 0.29673 0.92962 0.0
H815 H 0.99442 0.29929 0.97556 0.0
C816 C 0.82931 0.88492 0.21636 0.0
C817 C 0.85264 0.88977 0.23407 0.0
C818 C 0.83254 0.87094 0.19117 0.0
C819 C 0.87466 0.81949 0.1559 0.0
H820 H 0.83227 0.84616 0.09132 0.0
C821 C 0.85495 0.74983 0.05945 0.0
C822 C 0.82589 0.74685 0.05393 0.0
C823 C 0.86488 0.77153 0.07658 0.0
C824 C 0.84447 0.8386 0.10906 0.0
H825 H 0.89767 0.88323 0.23939 0.0
H826 H 0.90315 0.85804 0.19516 0.0
H827 H 0.83787 0.87628 0.13215 0.0
H828 H 0.78469 0.76516 0.06039 0.0
H829 H 0.80197 0.80299 0.08998 0.0
H830 H 0.8799 0.78118 0.13336 0.0
C831 C 0.88246 0.86548 0.20092 0.0
C832 C 0.84764 0.85577 0.13238 0.0
C833 C 0.87928 0.8798 0.22619 0.0
C834 C 0.80717 0.76683 0.06443 0.0
C835 C 0.81711 0.78865 0.08117 0.0
C836 C 0.87149 0.80227 0.13249 0.0
C837 C 0.85912 0.86129 0.18306 0.0
C838 C 0.86161 0.84585 0.15648 0.0
C839 C 0.84594 0.7908 0.08801 0.0
C840 C 0.85525 0.81123 0.10941 0.0
H841 H 0.80846 0.89224 0.22171 0.0
H842 H 0.81405 0.8674 0.17812 0.0
H843 H 0.88548 0.81135 0.17424 0.0
H844 H 0.86986 0.73468 0.05165 0.0
H845 H 0.8872 0.7728 0.0815 0.0
C846 C 0.39853 0.56995 0.62078 0.0
C847 C 0.37282 0.55512 0.61976 0.0
C848 C 0.40539 0.58928 0.59982 0.0
C849 C 0.38728 0.60891 0.52687 0.0
H850 H 0.42988 0.67627 0.54506 0.0
C851 C 0.4215 0.6853 0.44068 0.0
C852 C 0.45082 0.68993 0.4407 0.0
C853 C 0.40833 0.67427 0.46439 0.0
C854 C 0.41788 0.6576 0.53971 0.0
H855 H 0.33402 0.54923 0.59598 0.0
H856 H 0.34574 0.58325 0.55977 0.0
H857 H 0.41418 0.64509 0.58254 0.0
H858 H 0.4888 0.68928 0.46636 0.0
H859 H 0.4658 0.67038 0.50769 0.0
H860 H 0.39129 0.62125 0.48406 0.0
C861 C 0.36089 0.57957 0.57646 0.0
C862 C 0.40905 0.63961 0.56113 0.0
C863 C 0.35414 0.56007 0.59728 0.0
C864 C 0.46621 0.68576 0.46564 0.0
C865 C 0.453 0.67503 0.48938 0.0
C866 C 0.3959 0.62699 0.50552 0.0
C867 C 0.3866 0.59444 0.57745 0.0
C868 C 0.39413 0.61474 0.55493 0.0
C869 C 0.42417 0.66804 0.48861 0.0
C870 C 0.41174 0.65125 0.51165 0.0
H871 H 0.41345 0.56659 0.63775 0.0
H872 H 0.42562 0.5999 0.601 0.0
H873 H 0.3762 0.58979 0.52123 0.0
H874 H 0.40905 0.68828 0.4218 0.0
H875 H 0.38599 0.66942 0.46336 0.0
C876 C 0.30224 0.12195 0.42918 0.0
C877 C 0.27592 0.11843 0.4158 0.0
C878 C 0.32718 0.11855 0.41428 0.0
C879 C 0.36441 0.13815 0.36384 0.0
H880 H 0.39092 0.07172 0.32598 0.0
C881 C 0.42819 0.10961 0.25785 0.0
C882 C 0.44543 0.13358 0.25674 0.0
C883 C 0.41294 0.10342 0.28195 0.0
C884 C 0.38371 0.09056 0.33616 0.0
H885 H 0.25498 0.10669 0.37705 0.0
H886 H 0.29876 0.09992 0.35124 0.0
H887 H 0.35213 0.06783 0.35912 0.0
H888 H 0.46257 0.16841 0.28039 0.0
H889 H 0.43784 0.15649 0.32328 0.0
H890 H 0.39351 0.16159 0.33948 0.0
C891 C 0.29994 0.1056 0.37313 0.0
C892 C 0.36173 0.08818 0.35534 0.0
C893 C 0.27499 0.10966 0.38781 0.0
C894 C 0.44905 0.14999 0.28074 0.0
C895 C 0.43458 0.14327 0.30518 0.0
C896 C 0.38577 0.14071 0.34418 0.0
C897 C 0.32612 0.1108 0.38605 0.0
C898 C 0.35172 0.11206 0.36894 0.0
C899 C 0.41525 0.12067 0.30574 0.0
C900 C 0.3954 0.11705 0.32956 0.0
H901 H 0.30356 0.12885 0.45071 0.0
H902 H 0.34724 0.12289 0.42447 0.0
H903 H 0.35666 0.15689 0.37392 0.0
H904 H 0.42496 0.09675 0.23945 0.0
H905 H 0.39814 0.08607 0.28115 0.0
C906 C 0.19871 0.04003 0.52212 0.0
C907 C 0.17754 0.06052 0.5197 0.0
C908 C 0.19162 0.01239 0.52987 0.0
C909 C 0.13365 0.964 0.52247 0.0
H910 H 0.15456 0.92686 0.5918 0.0
C911 C 0.06233 0.88293 0.57504 0.0
C912 C 0.07432 0.86059 0.59018 0.0
C913 C 0.0795 0.90348 0.56297 0.0
C914 C 0.149 0.9366 0.57202 0.0
H915 H 0.13292 0.06867 0.52569 0.0
H916 H 0.12087 0.02094 0.53871 0.0
H917 H 0.17836 0.9706 0.57833 0.0
H918 H 0.11392 0.84164 0.60334 0.0
H919 H 0.14378 0.87746 0.58206 0.0
H920 H 0.10368 0.93084 0.51639 0.0
C921 C 0.1427 0.026 0.53425 0.0
C922 C 0.16265 0.96158 0.56438 0.0
C923 C 0.1497 0.05333 0.52682 0.0
C924 C 0.10392 0.85866 0.59196 0.0
C925 C 0.12109 0.87925 0.57989 0.0
C926 C 0.12017 0.93904 0.52996 0.0
C927 C 0.16336 0.00515 0.53504 0.0
C928 C 0.15429 0.97593 0.54007 0.0
C929 C 0.10906 0.90215 0.56569 0.0
C930 C 0.12689 0.92565 0.55535 0.0
H931 H 0.22032 0.04498 0.51677 0.0
H932 H 0.20788 -0.00349 0.53062 0.0
H933 H 0.12701 0.97474 0.50352 0.0
H934 H 0.03965 0.8851 0.57327 0.0
H935 H 0.0695 0.92105 0.55248 0.0
C936 C 0.10713 0.83568 0.72591 0.0
C937 C 0.07775 0.8358 0.72953 0.0
C938 C 0.12517 0.84437 0.74742 0.0
C939 C 0.1595 0.87204 0.79346 0.0
H940 H 0.14299 0.83508 0.86387 0.0
C941 C 0.23769 0.86965 0.88788 0.0
C942 C 0.24232 0.8423 0.89807 0.0
C943 C 0.21551 0.87497 0.86911 0.0
C944 C 0.14774 0.84577 0.84442 0.0
H945 H 0.0442 0.84658 0.75806 0.0
H946 H 0.07584 0.86165 0.79573 0.0
H947 H 0.10774 0.83487 0.8265 0.0
H948 H 0.22715 0.79921 0.89681 0.0
H949 H 0.1887 0.80852 0.8643 0.0
H950 H 0.20019 0.88151 0.81104 0.0
C951 C 0.08483 0.85461 0.77627 0.0
C952 C 0.12747 0.8459 0.82312 0.0
C953 C 0.06675 0.846 0.75469 0.0
C954 C 0.22425 0.8205 0.88933 0.0
C955 C 0.20202 0.82587 0.87091 0.0
C956 C 0.17977 0.872 0.81487 0.0
C957 C 0.11423 0.85332 0.77304 0.0
C958 C 0.13352 0.85815 0.79708 0.0
C959 C 0.19741 0.85311 0.86062 0.0
C960 C 0.1744 0.85793 0.84012 0.0
H961 H 0.11632 0.82816 0.70672 0.0
H962 H 0.14772 0.84277 0.74442 0.0
H963 H 0.16457 0.88194 0.7737 0.0
H964 H 0.25128 0.88688 0.89424 0.0
H965 H 0.21237 0.89615 0.86139 0.0
C966 C 0.40728 0.06398 0.14316 0.0
C967 C 0.41225 0.08716 0.1256 0.0
C968 C 0.38645 0.04425 0.13633 0.0
C969 C 0.32461 0.03245 0.08865 0.0
H970 H 0.34369 0.95415 0.09956 0.0
C971 C 0.29035 0.94189 0.01806 0.0
C972 C 0.28716 0.91497 0.02975 0.0
C973 C 0.29627 0.96488 0.03514 0.0
C974 C 0.33764 0.97591 0.09698 0.0
H975 H 0.39949 0.10776 0.08703 0.0
H976 H 0.36413 0.07277 0.07444 0.0
H977 H 0.37441 0.99022 0.11877 0.0
H978 H 0.28436 0.89156 0.06868 0.0
H979 H 0.29503 0.93176 0.09845 0.0
H980 H 0.28879 0.01777 0.06506 0.0
C981 C 0.37556 0.07023 0.09399 0.0
C982 C 0.35532 -0.00333 0.10797 0.0
C983 C 0.3961 0.09014 0.10102 0.0
C984 C 0.28691 0.91201 0.05901 0.0
C985 C 0.29314 0.93497 0.07608 0.0
C986 C 0.30709 0.01164 0.07734 0.0
C987 C 0.3704 0.04706 0.11158 0.0
C988 C 0.34949 0.0252 0.10324 0.0
C989 C 0.29932 0.96127 0.06416 0.0
C990 C 0.31389 0.98319 0.08077 0.0
H991 H 0.41911 0.06133 0.16248 0.0
H992 H 0.38283 0.02689 0.15055 0.0
H993 H 0.3191 0.05423 0.08521 0.0
H994 H 0.29035 0.94487 -0.00441 0.0
H995 H 0.30098 0.9849 0.02536 0.0
C996 C 0.89905 0.37444 0.72863 0.0
C997 C 0.92803 0.36862 0.72771 0.0
C998 C 0.88467 0.3834 0.70474 0.0
C999 C 0.85929 0.40982 0.65319 0.0
H1000 H 0.86847 0.35764 0.59203 0.0
C1001 C 0.79817 0.36983 0.54585 0.0
C1002 C 0.77151 0.3652 0.55775 0.0
C1003 C 0.82094 0.37874 0.56249 0.0
C1004 C 0.86604 0.37291 0.60853 0.0
H1005 H 0.96502 0.36896 0.7014 0.0
H1006 H 0.93955 0.38427 0.65918 0.0
H1007 H 0.90346 0.35903 0.62967 0.0
H1008 H 0.74751 0.36763 0.59605 0.0
H1009 H 0.78704 0.38306 0.62489 0.0
H1010 H 0.82091 0.42241 0.63291 0.0
C1011 C 0.92811 0.38193 0.67854 0.0
C1012 C 0.88613 0.37373 0.6301 0.0
C1013 C 0.94265 0.37325 0.70268 0.0
C1014 C 0.76781 0.37079 0.58627 0.0
C1015 C 0.79041 0.37995 0.60275 0.0
C1016 C 0.83921 0.40897 0.63168 0.0
C1017 C 0.89885 0.38655 0.67926 0.0
C1018 C 0.88218 0.39121 0.6533 0.0
C1019 C 0.81732 0.38357 0.59117 0.0
C1020 C 0.84171 0.38953 0.60986 0.0
H1021 H 0.88725 0.37131 0.74768 0.0
H1022 H 0.86207 0.38638 0.70592 0.0
H1023 H 0.85601 0.42387 0.67059 0.0
H1024 H 0.80166 0.36577 0.5239 0.0
H1025 H 0.84147 0.38139 0.55304 0.0
C1026 C 0.8748 0.37979 0.86455 0.0
C1027 C 0.90383 0.38606 0.86604 0.0
C1028 C 0.85505 0.39814 0.87568 0.0
C1029 C 0.82068 0.43478 0.91558 0.0
H1030 H 0.8296 0.51351 0.89654 0.0
C1031 C 0.77591 0.52782 0.97705 0.0
C1032 C 0.76912 0.55246 0.9622 0.0
C1033 C 0.7851 0.50405 0.96291 0.0
C1034 C 0.8265 0.49154 0.90166 0.0
H1035 H 0.93492 0.41623 0.88085 0.0
H1036 H 0.90029 0.4485 0.90005 0.0
H1037 H 0.86225 0.47929 0.87777 0.0
H1038 H 0.76301 0.57019 0.92068 0.0
H1039 H 0.77902 0.52865 0.8961 0.0
H1040 H 0.78531 0.44729 0.94017 0.0
C1041 C 0.89293 0.42935 0.89019 0.0
C1042 C 0.84545 0.47205 0.89125 0.0
C1043 C 0.91273 0.41082 0.87937 0.0
C1044 C 0.76844 0.55171 0.93282 0.0
C1045 C 0.77776 0.52798 0.9187 0.0
C1046 C 0.80184 0.45439 0.9263 0.0
C1047 C 0.86392 0.42328 0.88819 0.0
C1048 C 0.84297 0.44357 0.89842 0.0
C1049 C 0.78765 0.50455 0.9337 0.0
C1050 C 0.80478 0.48301 0.91965 0.0
H1051 H 0.86726 0.36078 0.85454 0.0
H1052 H 0.83281 0.39305 0.8738 0.0
H1053 H 0.81835 0.41289 0.92139 0.0
H1054 H 0.77636 0.5368 -0.0003 0.0
H1055 H 0.79252 0.48625 0.97502 0.0
C1056 C 0.71473 0.61606 0.10392 0.0
C1057 C 0.71317 0.638 0.08425 0.0
C1058 C 0.69418 0.61341 0.12458 0.0
C1059 C 0.62223 0.63396 0.14346 0.0
H1060 H 0.65108 0.63817 0.21951 0.0
C1061 C 0.58362 0.67849 0.25466 0.0
C1062 C 0.55828 0.66377 0.2591 0.0
C1063 C 0.60172 0.67054 0.23334 0.0
C1064 C 0.64277 0.63675 0.19838 0.0
H1065 H 0.68827 0.67335 0.06972 0.0
H1066 H 0.65231 0.6684 0.1054 0.0
H1067 H 0.68377 0.63103 0.18098 0.0
H1068 H 0.53177 0.6295 0.24435 0.0
H1069 H 0.56326 0.6161 0.20648 0.0
H1070 H 0.58131 0.64052 0.16084 0.0
C1071 C 0.66941 0.65341 0.10501 0.0
C1072 C 0.66138 0.63241 0.17643 0.0
C1073 C 0.69012 0.65638 0.08477 0.0
C1074 C 0.55118 0.64122 0.24145 0.0
C1075 C 0.56912 0.63355 0.21981 0.0
C1076 C 0.60356 0.63789 0.16547 0.0
C1077 C 0.67152 0.63226 0.12541 0.0
C1078 C 0.65135 0.63178 0.14873 0.0
C1079 C 0.59466 0.64798 0.2158 0.0
C1080 C 0.6138 0.64014 0.193 0.0
H1081 H 0.7323 0.60162 0.10395 0.0
H1082 H 0.6962 0.59694 0.14015 0.0
H1083 H 0.61405 0.63347 0.12224 0.0
H1084 H 0.58976 0.69587 0.26796 0.0
H1085 H 0.62115 0.68223 0.23038 0.0
C1086 C 0.69165 0.44532 0.46441 0.0
C1087 C 0.69583 0.42124 0.44824 0.0
C1088 C 0.68263 0.47024 0.45189 0.0
C1089 C 0.63618 0.48946 0.39517 0.0
H1090 H 0.65323 0.56573 0.41795 0.0
C1091 C 0.56693 0.58221 0.3593 0.0
C1092 C 0.56187 0.60359 0.37876 0.0
C1093 C 0.58696 0.5615 0.36488 0.0
C1094 C 0.64804 0.54453 0.41156 0.0
H1095 H 0.69567 0.40447 0.40631 0.0
H1096 H 0.67962 0.44822 0.38419 0.0
H1097 H 0.68509 0.52776 0.43144 0.0
H1098 H 0.57372 0.61972 0.41955 0.0
H1099 H 0.60791 0.58293 0.42981 0.0
H1100 H 0.59847 0.50565 0.37663 0.0
C1101 C 0.68356 0.44787 0.40653 0.0
C1102 C 0.66646 0.52286 0.41906 0.0
C1103 C 0.69304 0.42298 0.41908 0.0
C1104 C 0.57712 0.60357 0.40411 0.0
C1105 C 0.59696 0.58262 0.40984 0.0
C1106 C 0.61765 0.51103 0.38792 0.0
C1107 C 0.67708 0.47134 0.42301 0.0
C1108 C 0.66047 0.49502 0.41132 0.0
C1109 C 0.60224 0.56138 0.39023 0.0
C1110 C 0.62306 0.53879 0.39641 0.0
H1111 H 0.6933 0.44423 0.487 0.0
H1112 H 0.67763 0.48783 0.46519 0.0
H1113 H 0.63066 0.46815 0.38938 0.0
H1114 H 0.55586 0.58176 0.33939 0.0
H1115 H 0.59072 0.54581 0.34907 0.0
C1116 C 0.21639 0.36944 0.14831 0.0
C1117 C 0.22116 0.39799 0.14241 0.0
C1118 C 0.23788 0.34994 0.14506 0.0
C1119 C 0.31443 0.34531 0.14649 0.0
H1120 H 0.3007 0.27018 0.11829 0.0
C1121 C 0.38033 0.23787 0.12323 0.0
C1122 C 0.3952 0.23551 0.14871 0.0
C1123 C 0.3594 0.2581 0.11982 0.0
C1124 C 0.30491 0.29117 0.12594 0.0
H1125 H 0.25197 0.42835 0.12756 0.0
H1126 H 0.28958 0.39413 0.12189 0.0
H1127 H 0.26335 0.30522 0.11523 0.0
H1128 H 0.39955 0.25235 0.19066 0.0
H1129 H 0.36291 0.28747 0.18469 0.0
H1130 H 0.35588 0.33125 0.1574 0.0
C1131 C 0.26921 0.38698 0.12925 0.0
C1132 C 0.28351 0.31112 0.12439 0.0
C1133 C 0.24766 0.40652 0.13241 0.0
C1134 C 0.38856 0.25364 0.17074 0.0
C1135 C 0.36772 0.2739 0.16728 0.0
C1136 C 0.33577 0.32536 0.14812 0.0
C1137 C 0.2646 0.35859 0.13589 0.0
C1138 C 0.28797 0.33824 0.13501 0.0
C1139 C 0.35306 0.27641 0.14175 0.0
C1140 C 0.33106 0.298 0.13826 0.0
H1141 H 0.19618 0.36215 0.15595 0.0
H1142 H 0.23383 0.32824 0.15064 0.0
H1143 H 0.31836 0.36598 0.15508 0.0
H1144 H 0.38495 0.22421 0.10585 0.0
H1145 H 0.34848 0.25972 0.09988 0.0
C1146 C 0.91282 0.21201 0.82311 0.0
C1147 C 0.90439 0.23927 0.81544 0.0
C1148 C 0.89305 0.19012 0.82428 0.0
C1149 C 0.84267 0.15301 0.84104 0.0
H1150 H 0.78554 0.14926 0.78254 0.0
C1151 C 0.72584 0.10241 0.81775 0.0
C1152 C 0.73014 0.07374 0.82324 0.0
C1153 C 0.74839 0.12124 0.81833 0.0
C1154 C 0.80123 0.15016 0.79915 0.0
H1155 H 0.86853 0.26487 0.80312 0.0
H1156 H 0.83431 0.22692 0.80533 0.0
H1157 H 0.82304 0.18415 0.77953 0.0
H1158 H 0.76134 0.04261 0.83512 0.0
H1159 H 0.80099 0.07579 0.83609 0.0
H1160 H 0.82051 0.11892 0.86067 0.0
C1161 C 0.8562 0.22233 0.81008 0.0
C1162 C 0.82271 0.17012 0.79741 0.0
C1163 C 0.87584 0.24414 0.80897 0.0
C1164 C 0.75735 0.06456 0.83074 0.0
C1165 C 0.78003 0.08352 0.83133 0.0
C1166 C 0.8211 0.13289 0.84276 0.0
C1167 C 0.86456 0.19508 0.81766 0.0
C1168 C 0.84334 0.17215 0.81858 0.0
C1169 C 0.77582 0.1119 0.82439 0.0
C1170 C 0.79987 0.1317 0.82208 0.0
H1171 H 0.93465 0.20757 0.82827 0.0
H1172 H 0.90011 0.16927 0.83002 0.0
H1173 H 0.85822 0.15419 0.85773 0.0
H1174 H 0.7051 0.1103 0.81227 0.0
H1175 H 0.74442 0.14312 0.81355 0.0
C1176 C 0.02805 0.50949 0.17263 0.0
C1177 C 0.05289 0.52412 0.17956 0.0
C1178 C 0.00273 0.5238 0.16901 0.0
C1179 C 0.9816 0.5894 0.13998 0.0
H1180 H 0.90583 0.56303 0.15572 0.0
C1181 C 0.88665 0.63478 0.08032 0.0
C1182 C 0.86542 0.61579 0.07201 0.0
C1183 C 0.90729 0.62683 0.0997 0.0
C1184 C 0.92685 0.57056 0.15097 0.0
H1185 H 0.07076 0.56467 0.18999 0.0
H1186 H 0.02627 0.59011 0.18294 0.0
H1187 H 0.94588 0.54355 0.18173 0.0
H1188 H 0.84885 0.57373 0.07777 0.0
H1189 H 0.88583 0.5592 0.11056 0.0
H1190 H 0.96329 0.6148 0.10794 0.0
C1191 C 0.02639 0.56749 0.18071 0.0
C1192 C 0.9497 0.55963 0.16611 0.0
C1193 C 0.05172 0.553 0.18489 0.0
C1194 C 0.86502 0.58876 0.08377 0.0
C1195 C 0.88607 0.58058 0.1028 0.0
C1196 C 0.95888 0.60002 0.12461 0.0
C1197 C 0.00195 0.55311 0.17168 0.0
C1198 C 0.97734 0.56851 0.16029 0.0
C1199 C 0.90761 0.59948 0.11085 0.0
C1200 C 0.93125 0.59028 0.12943 0.0
H1201 H 0.0286 0.48717 0.16835 0.0
H1202 H 0.98434 0.5122 0.1618 0.0
H1203 H 0.00272 0.59623 0.13465 0.0
H1204 H 0.88716 0.65599 0.07207 0.0
H1205 H 0.92305 0.6422 0.10586 0.0
C1206 C 0.74895 0.87969 0.34696 0.0
C1207 C 0.75547 0.9059 0.35878 0.0
C1208 C 0.72787 0.86277 0.35826 0.0
C1209 C 0.69203 0.82524 0.39496 0.0
H1210 H 0.6172 0.85759 0.39663 0.0
C1211 C 0.59316 0.7553 0.40393 0.0
C1212 C 0.57435 0.76007 0.38152 0.0
C1213 C 0.61422 0.77506 0.41035 0.0
C1214 C 0.63803 0.84834 0.39668 0.0
H1215 H 0.74514 0.93487 0.39192 0.0
H1216 H 0.70726 0.90535 0.41127 0.0
H1217 H 0.65838 0.88821 0.39074 0.0
H1218 H 0.56155 0.79005 0.34962 0.0
H1219 H 0.59799 0.82435 0.36087 0.0
H1220 H 0.67172 0.78527 0.39922 0.0
C1221 C 0.71893 0.89794 0.39343 0.0
C1222 C 0.66157 0.86587 0.39351 0.0
C1223 C 0.74054 0.91476 0.38239 0.0
C1224 C 0.5759 0.78564 0.36684 0.0
C1225 C 0.59661 0.80546 0.37349 0.0
C1226 C 0.66856 0.80776 0.39838 0.0
C1227 C 0.71249 0.87176 0.38143 0.0
C1228 C 0.68864 0.85432 0.39139 0.0
C1229 C 0.61648 0.80009 0.39479 0.0
C1230 C 0.64124 0.81902 0.39805 0.0
H1231 H 0.7602 0.87213 0.32891 0.0
H1232 H 0.72305 0.8429 0.34831 0.0
H1233 H 0.71274 0.81586 0.39362 0.0
H1234 H 0.59243 0.73581 0.41564 0.0
H1235 H 0.62922 0.77044 0.42694 0.0
C1236 C 0.61594 0.36014 0.59678 0.0
C1237 C 0.61334 0.36617 0.56804 0.0
C1238 C 0.59529 0.3688 0.61548 0.0
C1239 C 0.5395 0.42112 0.62345 0.0
H1240 H 0.51136 0.37132 0.68137 0.0
C1241 C 0.43703 0.41695 0.69767 0.0
C1242 C 0.43625 0.44551 0.70483 0.0
C1243 C 0.46125 0.40562 0.68565 0.0
C1244 C 0.51907 0.38544 0.66533 0.0
H1245 H 0.58685 0.38591 0.53645 0.0
H1246 H 0.55089 0.40109 0.56912 0.0
H1247 H 0.54762 0.35482 0.64931 0.0
H1248 H 0.4611 0.48374 0.70802 0.0
H1249 H 0.50339 0.46386 0.68775 0.0
H1250 H 0.5107 0.45152 0.63883 0.0
C1251 C 0.56903 0.3898 0.57717 0.0
C1252 C 0.53992 0.37608 0.6471 0.0
C1253 C 0.58957 0.38099 0.55844 0.0
C1254 C 0.46095 0.46175 0.70235 0.0
C1255 C 0.48511 0.45042 0.69055 0.0
C1256 C 0.51887 0.43051 0.6417 0.0
C1257 C 0.57169 0.38384 0.6059 0.0
C1258 C 0.55014 0.39377 0.6258 0.0
C1259 C 0.48506 0.42266 0.68078 0.0
C1260 C 0.50831 0.41277 0.66278 0.0
H1261 H 0.63393 0.34869 0.60492 0.0
H1262 H 0.59805 0.36413 0.63751 0.0
H1263 H 0.54716 0.43534 0.60746 0.0
H1264 H 0.41828 0.40395 0.69922 0.0
H1265 H 0.46056 0.38414 0.67836 0.0
C1266 C 0.23602 0.54607 0.65225 0.0
C1267 C 0.24662 0.54506 0.67981 0.0
C1268 C 0.2127 0.56273 0.64553 0.0
C1269 C 0.15239 0.60032 0.67619 0.0
H1270 H 0.16042 0.65009 0.61234 0.0
C1271 C 0.10676 0.71286 0.63792 0.0
C1272 C 0.07764 0.70904 0.64193 0.0
C1273 C 0.12506 0.69002 0.63898 0.0
C1274 C 0.15783 0.63624 0.63016 0.0
H1275 H 0.24033 0.56 0.72208 0.0
H1276 H 0.19975 0.589 0.71031 0.0
H1277 H 0.19635 0.61472 0.6219 0.0
H1278 H 0.04482 0.67802 0.64935 0.0
H1279 H 0.07695 0.63807 0.65135 0.0
H1280 H 0.11438 0.62251 0.68501 0.0
C1281 C 0.20939 0.57682 0.69393 0.0
C1282 C 0.17826 0.61582 0.63549 0.0
C1283 C 0.23279 0.56034 0.70063 0.0
C1284 C 0.06714 0.6817 0.64619 0.0
C1285 C 0.08553 0.65884 0.6475 0.0
C1286 C 0.13186 0.62062 0.67075 0.0
C1287 C 0.19934 0.57854 0.66624 0.0
C1288 C 0.17607 0.59803 0.6589 0.0
C1289 C 0.11472 0.66283 0.64425 0.0
C1290 C 0.13468 0.63919 0.64802 0.0
H1291 H 0.24613 0.53453 0.6357 0.0
H1292 H 0.20526 0.56345 0.62405 0.0
H1293 H 0.15 0.58671 0.69423 0.0
H1294 H 0.11557 0.73361 0.6345 0.0
H1295 H 0.14747 0.69384 0.6367 0.0
C1296 C 0.38531 0.89204 0.90211 0.0
C1297 C 0.39233 0.86982 0.92032 0.0
C1298 C 0.40374 0.90031 0.88094 0.0
C1299 C 0.46278 0.87426 0.83871 0.0
H1300 H 0.4785 0.95317 0.82611 0.0
C1301 C 0.56343 0.91676 0.78792 0.0
C1302 C 0.56316 0.94393 0.77657 0.0
C1303 C 0.53846 0.90448 0.79751 0.0
C1304 C 0.47386 0.93103 0.8287 0.0
H1305 H 0.42471 0.8394 0.93091 0.0
H1306 H 0.45694 0.8541 0.8942 0.0
H1307 H 0.44398 0.93942 0.86077 0.0
H1308 H 0.53667 0.97841 0.7634 0.0
H1309 H 0.49275 0.95643 0.77864 0.0
H1310 H 0.49316 0.86587 0.807 0.0
C1311 C 0.43695 0.8648 0.89607 0.0
C1312 C 0.45416 0.92317 0.84881 0.0
C1313 C 0.4186 0.85663 0.91734 0.0
C1314 C 0.53726 0.95721 0.77169 0.0
C1315 C 0.51222 0.94483 0.78096 0.0
C1316 C 0.48241 0.88213 0.81843 0.0
C1317 C 0.42955 0.88646 0.8774 0.0
C1318 C 0.44886 0.89471 0.85449 0.0
C1319 C 0.51285 0.91925 0.7958 0.0
C1320 C 0.48866 0.91062 0.81359 0.0
H1321 H 0.36523 0.90262 0.90372 0.0
H1322 H 0.39743 0.91704 0.86685 0.0
H1323 H 0.45872 0.85214 0.84226 0.0
H1324 H 0.58329 0.90647 0.79249 0.0
H1325 H 0.53988 0.88482 0.80887 0.0
C1326 C 0.95771 0.98916 0.28989 0.0
C1327 C 0.93292 0.0052 0.28916 0.0
C1328 C 0.98375 0.00193 0.29515 0.0
C1329 C 0.02104 0.07009 0.30578 0.0
H1330 H 0.0548 0.0305 0.36867 0.0
C1331 C 0.09079 0.09599 0.40981 0.0
C1332 C 0.11486 0.10932 0.39902 0.0
C1333 C 0.07133 0.08305 0.39197 0.0
C1334 C 0.04571 0.04171 0.35104 0.0
H1335 H 0.91634 0.04751 0.29037 0.0
H1336 H 0.96179 0.06976 0.30006 0.0
H1337 H 0.01687 0.00839 0.34213 0.0
H1338 H 0.13707 0.12009 0.36093 0.0
H1339 H 0.10261 0.09762 0.32964 0.0
H1340 H 0.04949 0.10392 0.31572 0.0
C1341 C 0.96115 0.04735 0.2964 0.0
C1342 C 0.02421 0.02894 0.33558 0.0
C1343 C 0.93505 0.03457 0.29092 0.0
C1344 C 0.11879 0.10985 0.36989 0.0
C1345 C 0.09907 0.09715 0.35198 0.0
C1346 C 0.04283 0.08283 0.32119 0.0
C1347 C 0.9855 0.03095 0.3 0.0
C1348 C 0.01118 0.04319 0.31316 0.0
C1349 C 0.07535 0.08337 0.36292 0.0
C1350 C 0.05477 0.06899 0.34442 0.0
H1351 H 0.9568 0.96651 0.28811 0.0
H1352 H 0.00229 0.98885 0.29715 0.0
H1353 H 0.01145 0.08151 0.28855 0.0
H1354 H 0.08711 0.09521 0.43212 0.0
H1355 H 0.053 0.07285 0.4009 0.0
loop_
_geom_bond_atom_site_label_1
_geom_bond_atom_site_label_2
_geom_bond_distance
_geom_bond_site_symmetry_2
_ccdc_geom_bond_type
O0 Zn1 1.953 . S
O0 C16 1.225 . S
Zn1 O0 1.953 . S
Zn1 O2 1.949 . S
Zn1 O8 1.919 . S
Zn1 O13 1.924 . S
O2 Zn1 1.949 . S
O2 Zn3 1.923 . S
O2 Zn4 1.950 . S
O2 Zn5 1.945 . S
Zn3 O2 1.923 . S
Zn3 O6 1.933 . S
Zn3 O9 1.941 . S
Zn3 O10 1.965 . S
Zn4 O2 1.950 . S
Zn4 O11 1.938 . S
Zn4 O12 1.906 . S
Zn4 O22 1.953 . S
Zn5 O2 1.945 . S
Zn5 O7 1.932 . S
Zn5 O14 1.977 . S
Zn5 O15 1.910 . S
O6 Zn3 1.933 . S
O6 C17 1.226 . S
O7 Zn5 1.932 . S
O7 C17 1.307 . S
O8 Zn1 1.919 . S
O8 C19 1.253 . S
O9 Zn3 1.941 . S
O9 C19 1.283 . S
O10 Zn3 1.965 . S
O10 C18 1.303 . S
O11 Zn4 1.938 . S
O11 C18 1.247 . S
O12 Zn4 1.906 . S
O12 C20 1.304 . S
O13 Zn1 1.924 . S
O13 C21 1.311 . S
O14 Zn5 1.977 . S
O14 C20 1.272 . S
O15 Zn5 1.910 . S
O15 C21 1.231 . S
C16 O0 1.225 . S
C16 O22 1.298 . S
C17 O6 1.226 . S
C17 O7 1.307 . S
C18 O10 1.303 . S
C18 O11 1.247 . S
C19 O8 1.253 . S
C19 O9 1.283 . S
C20 O12 1.304 . S
C20 O14 1.272 . S
C21 O13 1.311 . S
C21 O15 1.231 . S
O22 Zn4 1.953 . S
O22 C16 1.298 . S
O23 Zn24 1.953 . S
O23 C39 1.225 . S
Zn24 O23 1.953 . S
Zn24 O25 1.949 . S
Zn24 O31 1.919 . S
Zn24 O36 1.924 . S
O25 Zn24 1.949 . S
O25 Zn26 1.923 . S
O25 Zn27 1.950 . S
O25 Zn28 1.945 . S
Zn26 O25 1.923 . S
Zn26 O29 1.933 . S
Zn26 O32 1.941 . S
Zn26 O33 1.965 . S
Zn27 O25 1.950 . S
Zn27 O34 1.938 . S
Zn27 O35 1.906 . S
Zn27 O45 1.953 . S
Zn28 O25 1.945 . S
Zn28 O30 1.932 1_455 S
Zn28 O37 1.977 . S
Zn28 O38 1.910 1_455 S
O29 Zn26 1.933 . S
O29 C40 1.226 1_455 S
O30 Zn28 1.932 1_655 S
O30 C40 1.307 . S
O31 Zn24 1.919 . S
O31 C42 1.253 . S
O32 Zn26 1.941 . S
O32 C42 1.283 . S
O33 Zn26 1.965 . S
O33 C41 1.303 . S
O34 Zn27 1.938 . S
O34 C41 1.247 . S
O35 Zn27 1.906 . S
O35 C43 1.304 . S
O36 Zn24 1.924 . S
O36 C44 1.311 1_455 S
O37 Zn28 1.977 . S
O37 C43 1.272 . S
O38 Zn28 1.910 1_655 S
O38 C44 1.231 . S
C39 O23 1.225 . S
C39 O45 1.298 . S
C40 O29 1.226 1_655 S
C40 O30 1.307 . S
C41 O33 1.303 . S
C41 O34 1.247 . S
C42 O31 1.253 . S
C42 O32 1.283 . S
C43 O35 1.304 . S
C43 O37 1.272 . S
C44 O36 1.311 1_655 S
C44 O38 1.231 . S
O45 Zn27 1.953 . S
O45 C39 1.298 . S
O46 Zn47 1.953 . S
O46 C62 1.225 . S
Zn47 O46 1.953 . S
Zn47 O48 1.949 . S
Zn47 O54 1.919 . S
Zn47 O59 1.924 . S
O48 Zn47 1.949 . S
O48 Zn49 1.923 . S
O48 Zn50 1.950 . S
O48 Zn51 1.945 . S
Zn49 O48 1.923 . S
Zn49 O52 1.933 1_556 S
Zn49 O55 1.941 1_556 S
Zn49 O56 1.965 1_556 S
Zn50 O48 1.950 . S
Zn50 O57 1.938 . S
Zn50 O58 1.906 . S
Zn50 O68 1.953 . S
Zn51 O48 1.945 . S
Zn51 O53 1.932 . S
Zn51 O60 1.977 . S
Zn51 O61 1.910 . S
O52 Zn49 1.933 1_554 S
O52 C63 1.226 1_554 S
O53 Zn51 1.932 . S
O53 C63 1.307 . S
O54 Zn47 1.919 . S
O54 C65 1.253 1_556 S
O55 Zn49 1.941 1_554 S
O55 C65 1.283 . S
O56 Zn49 1.965 1_554 S
O56 C64 1.303 1_554 S
O57 Zn50 1.938 . S
O57 C64 1.247 . S
O58 Zn50 1.906 . S
O58 C66 1.304 . S
O59 Zn47 1.924 . S
O59 C67 1.311 . S
O60 Zn51 1.977 . S
O60 C66 1.272 . S
O61 Zn51 1.910 . S
O61 C67 1.231 . S
C62 O46 1.225 . S
C62 O68 1.298 . S
C63 O52 1.226 1_556 S
C63 O53 1.307 . S
C64 O56 1.303 1_556 S
C64 O57 1.247 . S
C65 O54 1.253 1_554 S
C65 O55 1.283 . S
C66 O58 1.304 . S
C66 O60 1.272 . S
C67 O59 1.311 . S
C67 O61 1.231 . S
O68 Zn50 1.953 . S
O68 C62 1.298 . S
O69 Zn70 1.953 . S
O69 C85 1.225 . S
Zn70 O69 1.953 . S
Zn70 O71 1.949 . S
Zn70 O77 1.919 . S
Zn70 O82 1.924 . S
O71 Zn70 1.949 . S
O71 Zn72 1.923 . S
O71 Zn73 1.950 . S
O71 Zn74 1.945 . S
Zn72 O71 1.923 . S
Zn72 O75 1.933 . S
Zn72 O78 1.941 . S
Zn72 O79 1.965 . S
Zn73 O71 1.950 . S
Zn73 O80 1.938 . S
Zn73 O81 1.906 . S
Zn73 O91 1.953 . S
Zn74 O71 1.945 . S
Zn74 O76 1.932 . S
Zn74 O83 1.977 . S
Zn74 O84 1.910 . S
O75 Zn72 1.933 . S
O75 C86 1.226 . S
O76 Zn74 1.932 . S
O76 C86 1.307 . S
O77 Zn70 1.919 . S
O77 C88 1.253 . S
O78 Zn72 1.941 . S
O78 C88 1.283 . S
O79 Zn72 1.965 . S
O79 C87 1.303 . S
O80 Zn73 1.938 . S
O80 C87 1.247 . S
O81 Zn73 1.906 . S
O81 C89 1.304 . S
O82 Zn70 1.924 . S
O82 C90 1.311 . S
O83 Zn74 1.977 . S
O83 C89 1.272 . S
O84 Zn74 1.910 . S
O84 C90 1.231 . S
C85 O69 1.225 . S
C85 O91 1.298 . S
C86 O75 1.226 . S
C86 O76 1.307 . S
C87 O79 1.303 . S
C87 O80 1.247 . S
C88 O77 1.253 . S
C88 O78 1.283 . S
C89 O81 1.304 . S
C89 O83 1.272 . S
C90 O82 1.311 . S
C90 O84 1.231 . S
O91 Zn73 1.953 . S
O91 C85 1.298 . S
O92 Zn93 1.953 . S
O92 C108 1.225 . S
Zn93 O92 1.953 . S
Zn93 O94 1.949 . S
Zn93 O100 1.919 . S
Zn93 O105 1.924 . S
O94 Zn93 1.949 . S
O94 Zn95 1.923 . S
O94 Zn96 1.950 . S
O94 Zn97 1.945 . S
Zn95 O94 1.923 . S
Zn95 O98 1.933 . S
Zn95 O101 1.941 . S
Zn95 O102 1.965 . S
Zn96 O94 1.950 . S
Zn96 O103 1.938 . S
Zn96 O104 1.906 . S
Zn96 O114 1.953 . S
Zn97 O94 1.945 . S
Zn97 O99 1.932 . S
Zn97 O106 1.977 . S
Zn97 O107 1.910 . S
O98 Zn95 1.933 . S
O98 C109 1.226 . S
O99 Zn97 1.932 . S
O99 C109 1.307 . S
O100 Zn93 1.919 . S
O100 C111 1.253 . S
O101 Zn95 1.941 . S
O101 C111 1.283 . S
O102 Zn95 1.965 . S
O102 C110 1.303 . S
O103 Zn96 1.938 . S
O103 C110 1.247 . S
O104 Zn96 1.906 . S
O104 C112 1.304 . S
O105 Zn93 1.924 . S
O105 C113 1.311 . S
O106 Zn97 1.977 . S
O106 C112 1.272 . S
O107 Zn97 1.910 . S
O107 C113 1.231 . S
C108 O92 1.225 . S
C108 O114 1.298 . S
C109 O98 1.226 . S
C109 O99 1.307 . S
C110 O102 1.303 . S
C110 O103 1.247 . S
C111 O100 1.253 . S
C111 O101 1.283 . S
C112 O104 1.304 . S
C112 O106 1.272 . S
C113 O105 1.311 . S
C113 O107 1.231 . S
O114 Zn96 1.953 . S
O114 C108 1.298 . S
O115 Zn116 1.953 . S
O115 C131 1.225 . S
Zn116 O115 1.953 . S
Zn116 O117 1.949 . S
Zn116 O123 1.919 . S
Zn116 O128 1.924 . S
O117 Zn116 1.949 . S
O117 Zn118 1.923 . S
O117 Zn119 1.950 . S
O117 Zn120 1.945 . S
Zn118 O117 1.923 . S
Zn118 O121 1.933 . S
Zn118 O124 1.941 . S
Zn118 O125 1.965 . S
Zn119 O117 1.950 . S
Zn119 O126 1.938 . S
Zn119 O127 1.906 . S
Zn119 O137 1.953 . S
Zn120 O117 1.945 . S
Zn120 O122 1.911 1_655 S
Zn120 O129 1.977 . S
Zn120 O130 1.903 1_655 S
O121 Zn118 1.933 . S
O121 C132 1.222 1_655 S
O122 Zn120 1.911 1_455 S
O122 C132 1.307 . S
O123 Zn116 1.919 . S
O123 C134 1.253 . S
O124 Zn118 1.941 . S
O124 C134 1.283 . S
O125 Zn118 1.965 . S
O125 C133 1.303 . S
O126 Zn119 1.938 . S
O126 C133 1.247 . S
O127 Zn119 1.906 . S
O127 C135 1.304 . S
O128 Zn116 1.924 . S
O128 C136 1.316 . S
O129 Zn120 1.977 . S
O129 C135 1.272 . S
O130 Zn120 1.903 1_455 S
O130 C136 1.230 1_455 S
C131 O115 1.225 . S
C131 O137 1.298 . S
C132 O121 1.222 1_455 S
C132 O122 1.307 . S
C133 O125 1.303 . S
C133 O126 1.247 . S
C134 O123 1.253 . S
C134 O124 1.283 . S
C135 O127 1.304 . S
C135 O129 1.272 . S
C136 O128 1.316 . S
C136 O130 1.230 1_655 S
O137 Zn119 1.953 . S
O137 C131 1.298 . S
O138 Zn139 1.953 . S
O138 C154 1.225 . S
Zn139 O138 1.953 . S
Zn139 O140 1.949 . S
Zn139 O146 1.919 . S
Zn139 O151 1.924 . S
O140 Zn139 1.949 . S
O140 Zn141 1.923 . S
O140 Zn142 1.950 . S
O140 Zn143 1.945 . S
Zn141 O140 1.923 . S
Zn141 O144 1.933 1_554 S
Zn141 O147 1.941 1_554 S
Zn141 O148 1.965 1_554 S
Zn142 O140 1.950 . S
Zn142 O149 1.938 . S
Zn142 O150 1.906 . S
Zn142 O160 1.953 . S
Zn143 O140 1.945 . S
Zn143 O145 1.932 . S
Zn143 O152 1.977 . S
Zn143 O153 1.910 . S
O144 Zn141 1.933 1_556 S
O144 C155 1.226 1_556 S
O145 Zn143 1.932 . S
O145 C155 1.307 . S
O146 Zn139 1.919 . S
O146 C157 1.253 1_554 S
O147 Zn141 1.941 1_556 S
O147 C157 1.283 . S
O148 Zn141 1.965 1_556 S
O148 C156 1.303 . S
O149 Zn142 1.938 . S
O149 C156 1.247 1_554 S
O150 Zn142 1.906 . S
O150 C158 1.304 . S
O151 Zn139 1.924 . S
O151 C159 1.311 . S
O152 Zn143 1.977 . S
O152 C158 1.272 . S
O153 Zn143 1.910 . S
O153 C159 1.231 . S
C154 O138 1.225 . S
C154 O160 1.298 . S
C155 O144 1.226 1_554 S
C155 O145 1.307 . S
C156 O148 1.303 . S
C156 O149 1.247 1_556 S
C157 O146 1.253 1_556 S
C157 O147 1.283 . S
C158 O150 1.304 . S
C158 O152 1.272 . S
C159 O151 1.311 . S
C159 O153 1.231 . S
O160 Zn142 1.953 . S
O160 C154 1.298 . S
O161 Zn162 1.953 . S
O161 C177 1.225 . S
Zn162 O161 1.953 . S
Zn162 O163 1.949 . S
Zn162 O169 1.919 . S
Zn162 O174 1.924 . S
O163 Zn162 1.949 . S
O163 Zn164 1.923 . S
O163 Zn165 1.950 . S
O163 Zn166 1.945 . S
Zn164 O163 1.923 . S
Zn164 O167 1.933 . S
Zn164 O170 1.941 . S
Zn164 O171 1.965 . S
Zn165 O163 1.950 . S
Zn165 O172 1.938 . S
Zn165 O173 1.906 . S
Zn165 O183 1.953 . S
Zn166 O163 1.945 . S
Zn166 O168 1.932 . S
Zn166 O175 1.977 . S
Zn166 O176 1.910 . S
O167 Zn164 1.933 . S
O167 C178 1.226 . S
O168 Zn166 1.932 . S
O168 C178 1.307 . S
O169 Zn162 1.919 . S
O169 C180 1.253 . S
O170 Zn164 1.941 . S
O170 C180 1.283 . S
O171 Zn164 1.965 . S
O171 C179 1.303 . S
O172 Zn165 1.938 . S
O172 C179 1.247 . S
O173 Zn165 1.906 . S
O173 C181 1.304 . S
O174 Zn162 1.924 . S
O174 C182 1.311 . S
O175 Zn166 1.977 . S
O175 C181 1.272 . S
O176 Zn166 1.910 . S
O176 C182 1.231 . S
C177 O161 1.225 . S
C177 O183 1.298 . S
C178 O167 1.226 . S
C178 O168 1.307 . S
C179 O171 1.303 . S
C179 O172 1.247 . S
C180 O169 1.253 . S
C180 O170 1.283 . S
C181 O173 1.304 . S
C181 O175 1.272 . S
C182 O174 1.311 . S
C182 O176 1.231 . S
O183 Zn165 1.953 . S
O183 C177 1.298 . S
O184 Zn185 1.953 . S
O184 C200 1.225 . S
Zn185 O184 1.953 . S
Zn185 O186 1.949 . S
Zn185 O192 1.919 . S
Zn185 O197 1.924 . S
O186 Zn185 1.949 . S
O186 Zn187 1.923 . S
O186 Zn188 1.950 . S
O186 Zn189 1.945 . S
Zn187 O186 1.923 . S
Zn187 O190 1.933 . S
Zn187 O193 1.941 . S
Zn187 O194 1.965 . S
Zn188 O186 1.950 . S
Zn188 O195 1.938 . S
Zn188 O196 1.906 . S
Zn188 O206 1.953 . S
Zn189 O186 1.945 . S
Zn189 O191 1.932 . S
Zn189 O198 1.977 . S
Zn189 O199 1.910 . S
O190 Zn187 1.933 . S
O190 C201 1.226 . S
O191 Zn189 1.932 . S
O191 C201 1.307 . S
O192 Zn185 1.919 . S
O192 C203 1.253 . S
O193 Zn187 1.941 . S
O193 C203 1.283 . S
O194 Zn187 1.965 . S
O194 C202 1.303 . S
O195 Zn188 1.938 . S
O195 C202 1.247 . S
O196 Zn188 1.906 . S
O196 C204 1.304 . S
O197 Zn185 1.924 . S
O197 C205 1.311 . S
O198 Zn189 1.977 . S
O198 C204 1.272 . S
O199 Zn189 1.910 . S
O199 C205 1.231 . S
C200 O184 1.225 . S
C200 O206 1.298 . S
C201 O190 1.226 . S
C201 O191 1.307 . S
C202 O194 1.303 . S
C202 O195 1.247 . S
C203 O192 1.253 . S
C203 O193 1.283 . S
C204 O196 1.304 . S
C204 O198 1.272 . S
C205 O197 1.311 . S
C205 O199 1.231 . S
O206 Zn188 1.953 . S
O206 C200 1.298 . S
O207 Zn208 1.953 . S
O207 C223 1.225 . S
Zn208 O207 1.953 . S
Zn208 O209 1.949 . S
Zn208 O215 1.919 . S
Zn208 O220 1.924 . S
O209 Zn208 1.949 . S
O209 Zn210 1.923 . S
O209 Zn211 1.950 . S
O209 Zn212 1.945 . S
Zn210 O209 1.923 . S
Zn210 O213 1.933 . S
Zn210 O216 1.941 . S
Zn210 O217 1.965 . S
Zn211 O209 1.950 . S
Zn211 O218 1.938 . S
Zn211 O219 1.906 . S
Zn211 O229 1.953 . S
Zn212 O209 1.945 . S
Zn212 O214 1.932 . S
Zn212 O221 1.985 . S
Zn212 O222 1.910 . S
O213 Zn210 1.933 . S
O213 C224 1.226 . S
O214 Zn212 1.932 . S
O214 C224 1.307 . S
O215 Zn208 1.919 . S
O215 C226 1.253 . S
O216 Zn210 1.941 . S
O216 C226 1.283 . S
O217 Zn210 1.965 . S
O217 C225 1.303 . S
O218 Zn211 1.938 . S
O218 C225 1.247 . S
O219 Zn211 1.906 . S
O219 C227 1.304 1_545 S
O220 Zn208 1.924 . S
O220 C228 1.308 1_545 S
O221 Zn212 1.985 . S
O221 C227 1.270 1_545 S
O222 Zn212 1.910 . S
O222 C228 1.230 1_545 S
C223 O207 1.225 . S
C223 O229 1.298 . S
C224 O213 1.226 . S
C224 O214 1.307 . S
C225 O217 1.303 . S
C225 O218 1.247 . S
C226 O215 1.253 . S
C226 O216 1.283 . S
C227 O219 1.304 1_565 S
C227 O221 1.270 1_565 S
C228 O220 1.308 1_565 S
C228 O222 1.230 1_565 S
O229 Zn211 1.953 . S
O229 C223 1.298 . S
O230 Zn231 1.953 . S
O230 C246 1.225 . S
Zn231 O230 1.953 . S
Zn231 O232 1.949 . S
Zn231 O238 1.919 . S
Zn231 O243 1.924 . S
O232 Zn231 1.949 . S
O232 Zn233 1.923 . S
O232 Zn234 1.950 . S
O232 Zn235 1.945 . S
Zn233 O232 1.923 . S
Zn233 O236 1.933 1_565 S
Zn233 O239 1.941 1_565 S
Zn233 O240 1.965 1_565 S
Zn234 O232 1.950 . S
Zn234 O241 1.938 . S
Zn234 O242 1.906 . S
Zn234 O252 1.953 . S
Zn235 O232 1.945 . S
Zn235 O237 1.932 . S
Zn235 O244 1.977 . S
Zn235 O245 1.910 . S
O236 Zn233 1.933 1_545 S
O236 C247 1.226 1_545 S
O237 Zn235 1.932 . S
O237 C247 1.307 . S
O238 Zn231 1.919 . S
O238 C249 1.253 1_565 S
O239 Zn233 1.941 1_545 S
O239 C249 1.283 . S
O240 Zn233 1.965 1_545 S
O240 C248 1.303 1_545 S
O241 Zn234 1.938 . S
O241 C248 1.247 . S
O242 Zn234 1.906 . S
O242 C250 1.304 . S
O243 Zn231 1.924 . S
O243 C251 1.311 . S
O244 Zn235 1.977 . S
O244 C250 1.272 . S
O245 Zn235 1.910 . S
O245 C251 1.231 . S
C246 O230 1.225 . S
C246 O252 1.298 . S
C247 O236 1.226 1_565 S
C247 O237 1.307 . S
C248 O240 1.303 1_565 S
C248 O241 1.247 . S
C249 O238 1.253 1_545 S
C249 O239 1.283 . S
C250 O242 1.304 . S
C250 O244 1.272 . S
C251 O243 1.311 . S
C251 O245 1.231 . S
O252 Zn234 1.953 . S
O252 C246 1.298 . S
O253 Zn254 1.953 . S
O253 C269 1.225 . S
Zn254 O253 1.953 . S
Zn254 O255 1.949 . S
Zn254 O261 1.919 . S
Zn254 O266 1.924 . S
O255 Zn254 1.949 . S
O255 Zn256 1.923 . S
O255 Zn257 1.950 . S
O255 Zn258 1.945 . S
Zn256 O255 1.923 . S
Zn256 O259 1.933 . S
Zn256 O262 1.941 . S
Zn256 O263 1.965 . S
Zn257 O255 1.950 . S
Zn257 O264 1.938 . S
Zn257 O265 1.906 . S
Zn257 O275 1.953 . S
Zn258 O255 1.945 . S
Zn258 O260 1.932 . S
Zn258 O267 1.977 . S
Zn258 O268 1.910 . S
O259 Zn256 1.933 . S
O259 C270 1.226 . S
O260 Zn258 1.932 . S
O260 C270 1.307 . S
O261 Zn254 1.919 . S
O261 C272 1.253 . S
O262 Zn256 1.941 . S
O262 C272 1.283 . S
O263 Zn256 1.965 . S
O263 C271 1.303 . S
O264 Zn257 1.938 . S
O264 C271 1.247 . S
O265 Zn257 1.906 . S
O265 C273 1.304 . S
O266 Zn254 1.924 . S
O266 C274 1.311 . S
O267 Zn258 1.977 . S
O267 C273 1.272 . S
O268 Zn258 1.910 . S
O268 C274 1.231 . S
C269 O253 1.225 . S
C269 O275 1.298 . S
C270 O259 1.226 . S
C270 O260 1.307 . S
C271 O263 1.303 . S
C271 O264 1.247 . S
C272 O261 1.253 . S
C272 O262 1.283 . S
C273 O265 1.304 . S
C273 O267 1.272 . S
C274 O266 1.311 . S
C274 O268 1.231 . S
O275 Zn257 1.953 . S
O275 C269 1.298 . S
C276 C277 1.349 . S
C276 C278 1.327 . S
C276 H301 0.950 . S
C277 C276 1.349 . S
C277 C293 1.349 . S
C278 C276 1.327 . S
C278 C297 1.429 . S
C278 H302 0.950 . S
C279 C296 1.574 . S
C279 C298 1.368 . S
C279 H303 0.949 . S
H280 C284 0.949 . S
C281 C282 1.349 . S
C281 C283 1.327 . S
C281 H304 0.950 . S
C282 C281 1.349 . S
C282 C294 1.349 . S
C283 C281 1.327 . S
C283 C299 1.429 . S
C283 H305 0.950 . S
C284 H280 0.949 . S
C284 C292 1.574 . S
C284 C300 1.368 . S
H285 C293 0.950 . S
H286 C291 0.950 . S
H287 C292 0.949 . S
H288 C294 0.950 . S
H289 C295 0.950 . S
H290 C296 0.949 . S
C291 H286 0.950 . S
C291 C293 1.327 . S
C291 C297 1.429 . S
C292 C284 1.574 . S
C292 H287 0.949 . S
C292 C298 1.368 . S
C293 C277 1.349 . S
C293 H285 0.950 . S
C293 C291 1.327 . S
C294 C282 1.349 . S
C294 H288 0.950 . S
C294 C295 1.327 . S
C295 H289 0.950 . S
C295 C294 1.327 . S
C295 C299 1.429 . S
C296 C279 1.574 . S
C296 H290 0.949 . S
C296 C300 1.368 . S
C297 C278 1.429 . S
C297 C291 1.429 . S
C297 C298 1.523 . S
C298 C279 1.368 . S
C298 C292 1.368 . S
C298 C297 1.523 . S
C299 C283 1.429 . S
C299 C295 1.429 . S
C299 C300 1.523 . S
C300 C284 1.368 . S
C300 C296 1.368 . S
C300 C299 1.523 . S
H301 C276 0.950 . S
H302 C278 0.950 . S
H303 C279 0.949 . S
H304 C281 0.950 . S
H305 C283 0.950 . S
C306 C307 1.349 . S
C306 C308 1.327 . S
C306 H331 0.950 . S
C307 C306 1.349 . S
C307 C323 1.349 1_565 S
C308 C306 1.327 . S
C308 C327 1.429 . S
C308 H332 0.950 . S
C309 C326 1.574 . S
C309 C328 1.368 . S
C309 H333 0.949 . S
H310 C314 0.949 . S
C311 C312 1.349 . S
C311 C313 1.327 . S
C311 H334 0.950 . S
C312 C311 1.349 . S
C312 C324 1.349 . S
C313 C311 1.327 . S
C313 C329 1.429 . S
C313 H335 0.950 . S
C314 H310 0.949 . S
C314 C322 1.574 . S
C314 C330 1.368 . S
H315 C323 0.950 . S
H316 C321 0.950 . S
H317 C322 0.949 . S
H318 C324 0.950 . S
H319 C325 0.950 . S
H320 C326 0.949 . S
C321 H316 0.950 . S
C321 C323 1.327 1_565 S
C321 C327 1.429 . S
C322 C314 1.574 . S
C322 H317 0.949 . S
C322 C328 1.368 . S
C323 C307 1.349 1_545 S
C323 H315 0.950 . S
C323 C321 1.327 1_545 S
C324 C312 1.349 . S
C324 H318 0.950 . S
C324 C325 1.327 . S
C325 H319 0.950 . S
C325 C324 1.327 . S
C325 C329 1.429 . S
C326 C309 1.574 . S
C326 H320 0.949 . S
C326 C330 1.368 . S
C327 C308 1.429 . S
C327 C321 1.429 . S
C327 C328 1.523 . S
C328 C309 1.368 . S
C328 C322 1.368 . S
C328 C327 1.523 . S
C329 C313 1.429 . S
C329 C325 1.429 . S
C329 C330 1.523 . S
C330 C314 1.368 . S
C330 C326 1.368 . S
C330 C329 1.523 . S
H331 C306 0.950 . S
H332 C308 0.950 . S
H333 C309 0.949 . S
H334 C311 0.950 . S
H335 C313 0.950 . S
C336 C337 1.349 1_554 S
C336 C338 1.327 . S
C336 H361 0.950 . S
C337 C336 1.349 1_556 S
C337 C353 1.349 . S
C338 C336 1.327 . S
C338 C357 1.429 . S
C338 H362 0.950 . S
C339 C356 1.574 . S
C339 C358 1.368 . S
C339 H363 0.949 1_554 S
H340 C344 0.949 . S
C341 C342 1.349 . S
C341 C343 1.327 . S
C341 H364 0.950 . S
C342 C341 1.349 . S
C342 C354 1.349 . S
C343 C341 1.327 . S
C343 C359 1.429 . S
C343 H365 0.950 . S
C344 H340 0.949 . S
C344 C352 1.574 . S
C344 C360 1.368 . S
H345 C353 0.950 . S
H346 C351 0.950 . S
H347 C352 0.949 . S
H348 C354 0.950 . S
H349 C355 0.950 . S
H350 C356 0.949 . S
C351 H346 0.950 . S
C351 C353 1.327 . S
C351 C357 1.429 1_556 S
C352 C344 1.574 . S
C352 H347 0.949 . S
C352 C358 1.368 . S
C353 C337 1.349 . S
C353 H345 0.950 . S
C353 C351 1.327 . S
C354 C342 1.349 . S
C354 H348 0.950 . S
C354 C355 1.327 . S
C355 H349 0.950 . S
C355 C354 1.327 . S
C355 C359 1.429 . S
C356 C339 1.574 . S
C356 H350 0.949 . S
C356 C360 1.368 . S
C357 C338 1.429 . S
C357 C351 1.429 1_554 S
C357 C358 1.523 . S
C358 C339 1.368 . S
C358 C352 1.368 . S
C358 C357 1.523 . S
C359 C343 1.429 . S
C359 C355 1.429 . S
C359 C360 1.523 . S
C360 C344 1.368 . S
C360 C356 1.368 . S
C360 C359 1.523 . S
H361 C336 0.950 . S
H362 C338 0.950 . S
H363 C339 0.949 1_556 S
H364 C341 0.950 . S
H365 C343 0.950 . S
C366 C367 1.349 . S
C366 C368 1.327 . S
C366 H391 0.950 . S
C367 C366 1.349 . S
C367 C383 1.349 . S
C368 C366 1.327 . S
C368 C387 1.429 . S
C368 H392 0.950 . S
C369 C386 1.574 . S
C369 C388 1.368 . S
C369 H393 0.949 . S
H370 C374 0.949 . S
C371 C372 1.349 . S
C371 C373 1.327 . S
C371 H394 0.950 . S
C372 C371 1.349 . S
C372 C384 1.349 1_565 S
C373 C371 1.327 . S
C373 C389 1.429 1_565 S
C373 H395 0.950 . S
C374 H370 0.949 . S
C374 C382 1.574 . S
C374 C390 1.368 . S
H375 C383 0.950 . S
H376 C381 0.950 . S
H377 C382 0.949 . S
H378 C384 0.950 . S
H379 C385 0.950 . S
H380 C386 0.949 . S
C381 H376 0.950 . S
C381 C383 1.327 . S
C381 C387 1.429 . S
C382 C374 1.574 . S
C382 H377 0.949 . S
C382 C388 1.368 . S
C383 C367 1.349 . S
C383 H375 0.950 . S
C383 C381 1.327 . S
C384 C372 1.349 1_545 S
C384 H378 0.950 . S
C384 C385 1.327 . S
C385 H379 0.950 . S
C385 C384 1.327 . S
C385 C389 1.429 . S
C386 C369 1.574 . S
C386 H380 0.949 . S
C386 C390 1.368 . S
C387 C368 1.429 . S
C387 C381 1.429 . S
C387 C388 1.523 . S
C388 C369 1.368 . S
C388 C382 1.368 . S
C388 C387 1.523 . S
C389 C373 1.429 1_545 S
C389 C385 1.429 . S
C389 C390 1.523 . S
C390 C374 1.368 . S
C390 C386 1.368 . S
C390 C389 1.523 . S
H391 C366 0.950 . S
H392 C368 0.950 . S
H393 C369 0.949 . S
H394 C371 0.950 . S
H395 C373 0.950 . S
C396 C397 1.349 . S
C396 C398 1.327 . S
C396 H421 0.950 . S
C397 C396 1.349 . S
C397 C413 1.349 . S
C398 C396 1.327 . S
C398 C417 1.429 . S
C398 H422 0.950 . S
C399 C416 1.574 . S
C399 C418 1.368 . S
C399 H423 0.949 . S
H400 C404 0.949 . S
C401 C402 1.349 . S
C401 C403 1.327 . S
C401 H424 0.950 . S
C402 C401 1.349 . S
C402 C414 1.349 . S
C403 C401 1.327 . S
C403 C419 1.429 . S
C403 H425 0.950 . S
C404 H400 0.949 . S
C404 C412 1.574 . S
C404 C420 1.368 . S
H405 C413 0.950 . S
H406 C411 0.950 . S
H407 C412 0.949 . S
H408 C414 0.950 . S
H409 C415 0.950 . S
H410 C416 0.949 . S
C411 H406 0.950 . S
C411 C413 1.327 . S
C411 C417 1.429 . S
C412 C404 1.574 . S
C412 H407 0.949 . S
C412 C418 1.368 . S
C413 C397 1.349 . S
C413 H405 0.950 . S
C413 C411 1.327 . S
C414 C402 1.349 . S
C414 H408 0.950 . S
C414 C415 1.327 . S
C415 H409 0.950 . S
C415 C414 1.327 . S
C415 C419 1.429 . S
C416 C399 1.574 . S
C416 H410 0.949 . S
C416 C420 1.368 . S
C417 C398 1.429 . S
C417 C411 1.429 . S
C417 C418 1.523 . S
C418 C399 1.368 . S
C418 C412 1.368 . S
C418 C417 1.523 . S
C419 C403 1.429 . S
C419 C415 1.429 . S
C419 C420 1.523 . S
C420 C404 1.368 . S
C420 C416 1.368 . S
C420 C419 1.523 . S
H421 C396 0.950 . S
H422 C398 0.950 . S
H423 C399 0.949 . S
H424 C401 0.950 . S
H425 C403 0.950 . S
C426 C427 1.349 . S
C426 C428 1.327 . S
C426 H451 0.950 . S
C427 C426 1.349 . S
C427 C443 1.349 . S
C428 C426 1.327 . S
C428 C447 1.429 . S
C428 H452 0.950 . S
C429 C446 1.574 . S
C429 C448 1.368 . S
C429 H453 0.949 . S
H430 C434 0.949 . S
C431 C432 1.349 . S
C431 C433 1.327 . S
C431 H454 0.950 . S
C432 C431 1.349 . S
C432 C444 1.349 . S
C433 C431 1.327 . S
C433 C449 1.429 . S
C433 H455 0.950 . S
C434 H430 0.949 . S
C434 C442 1.574 . S
C434 C450 1.368 . S
H435 C443 0.950 . S
H436 C441 0.950 . S
H437 C442 0.949 . S
H438 C444 0.950 . S
H439 C445 0.950 . S
H440 C446 0.949 . S
C441 H436 0.950 . S
C441 C443 1.327 . S
C441 C447 1.429 . S
C442 C434 1.574 . S
C442 H437 0.949 . S
C442 C448 1.368 . S
C443 C427 1.349 . S
C443 H435 0.950 . S
C443 C441 1.327 . S
C444 C432 1.349 . S
C444 H438 0.950 . S
C444 C445 1.327 . S
C445 H439 0.950 . S
C445 C444 1.327 . S
C445 C449 1.429 . S
C446 C429 1.574 . S
C446 H440 0.949 . S
C446 C450 1.368 . S
C447 C428 1.429 . S
C447 C441 1.429 . S
C447 C448 1.523 . S
C448 C429 1.368 . S
C448 C442 1.368 . S
C448 C447 1.523 . S
C449 C433 1.429 . S
C449 C445 1.429 . S
C449 C450 1.523 . S
C450 C434 1.368 . S
C450 C446 1.368 . S
C450 C449 1.523 . S
H451 C426 0.950 . S
H452 C428 0.950 . S
H453 C429 0.949 . S
H454 C431 0.950 . S
H455 C433 0.950 . S
C456 C457 1.349 . S
C456 C458 1.327 . S
C456 H481 0.950 . S
C457 C456 1.349 . S
C457 C473 1.349 . S
C458 C456 1.327 . S
C458 C477 1.429 . S
C458 H482 0.950 . S
C459 C476 1.574 . S
C459 C478 1.368 . S
C459 H483 0.949 . S
H460 C464 0.949 . S
C461 C462 1.349 . S
C461 C463 1.327 . S
C461 H484 0.950 . S
C462 C461 1.349 . S
C462 C474 1.349 1_556 S
C463 C461 1.327 . S
C463 C479 1.429 . S
C463 H485 0.950 . S
C464 H460 0.949 . S
C464 C472 1.574 . S
C464 C480 1.368 . S
H465 C473 0.950 . S
H466 C471 0.950 . S
H467 C472 0.949 . S
H468 C474 0.950 . S
H469 C475 0.938 1_554 S
H470 C476 0.949 . S
C471 H466 0.950 . S
C471 C473 1.327 . S
C471 C477 1.429 . S
C472 C464 1.574 . S
C472 H467 0.949 . S
C472 C478 1.368 . S
C473 C457 1.349 . S
C473 H465 0.950 . S
C473 C471 1.327 . S
C474 C462 1.349 1_554 S
C474 H468 0.950 . S
C474 C475 1.320 1_554 S
C475 H469 0.938 1_556 S
C475 C474 1.320 1_556 S
C475 C479 1.447 . S
C476 C459 1.574 . S
C476 H470 0.949 . S
C476 C480 1.368 . S
C477 C458 1.429 . S
C477 C471 1.429 . S
C477 C478 1.523 . S
C478 C459 1.368 . S
C478 C472 1.368 . S
C478 C477 1.523 . S
C479 C463 1.429 . S
C479 C475 1.447 . S
C479 C480 1.523 . S
C480 C464 1.368 . S
C480 C476 1.368 . S
C480 C479 1.523 . S
H481 C456 0.950 . S
H482 C458 0.950 . S
H483 C459 0.949 . S
H484 C461 0.950 . S
H485 C463 0.950 . S
C486 C487 1.349 . S
C486 C488 1.327 . S
C486 H511 0.950 . S
C487 C486 1.349 . S
C487 C503 1.349 . S
C488 C486 1.327 . S
C488 C507 1.429 . S
C488 H512 0.950 . S
C489 C506 1.574 . S
C489 C508 1.368 . S
C489 H513 0.949 . S
H490 C494 0.949 . S
C491 C492 1.349 . S
C491 C493 1.327 . S
C491 H514 0.950 . S
C492 C491 1.349 . S
C492 C504 1.349 . S
C493 C491 1.327 . S
C493 C509 1.429 . S
C493 H515 0.950 . S
C494 H490 0.949 . S
C494 C502 1.574 . S
C494 C510 1.368 . S
H495 C503 0.950 . S
H496 C501 0.950 . S
H497 C502 0.949 . S
H498 C504 0.950 . S
H499 C505 0.950 . S
H500 C506 0.949 . S
C501 H496 0.950 . S
C501 C503 1.327 . S
C501 C507 1.429 . S
C502 C494 1.574 . S
C502 H497 0.949 . S
C502 C508 1.368 . S
C503 C487 1.349 . S
C503 H495 0.950 . S
C503 C501 1.327 . S
C504 C492 1.349 . S
C504 H498 0.950 . S
C504 C505 1.327 . S
C505 H499 0.950 . S
C505 C504 1.327 . S
C505 C509 1.429 . S
C506 C489 1.574 . S
C506 H500 0.949 . S
C506 C510 1.368 . S
C507 C488 1.429 . S
C507 C501 1.429 . S
C507 C508 1.523 . S
C508 C489 1.368 . S
C508 C502 1.368 . S
C508 C507 1.523 . S
C509 C493 1.429 . S
C509 C505 1.429 . S
C509 C510 1.523 . S
C510 C494 1.368 . S
C510 C506 1.368 . S
C510 C509 1.523 . S
H511 C486 0.950 . S
H512 C488 0.950 . S
H513 C489 0.949 . S
H514 C491 0.950 . S
H515 C493 0.950 . S
C516 C517 1.349 . S
C516 C518 1.327 . S
C516 H541 0.950 . S
C517 C516 1.349 . S
C517 C533 1.349 . S
C518 C516 1.327 . S
C518 C537 1.429 . S
C518 H542 0.950 . S
C519 C536 1.574 . S
C519 C538 1.368 . S
C519 H543 0.949 . S
H520 C524 0.949 . S
C521 C522 1.349 . S
C521 C523 1.327 . S
C521 H544 0.950 . S
C522 C521 1.349 . S
C522 C534 1.349 . S
C523 C521 1.327 . S
C523 C539 1.429 . S
C523 H545 0.950 . S
C524 H520 0.949 . S
C524 C532 1.574 . S
C524 C540 1.368 . S
H525 C533 0.950 . S
H526 C531 0.950 . S
H527 C532 0.949 . S
H528 C534 0.950 . S
H529 C535 0.950 . S
H530 C536 0.949 . S
C531 H526 0.950 . S
C531 C533 1.327 . S
C531 C537 1.429 . S
C532 C524 1.574 . S
C532 H527 0.949 . S
C532 C538 1.368 . S
C533 C517 1.349 . S
C533 H525 0.950 . S
C533 C531 1.327 . S
C534 C522 1.349 . S
C534 H528 0.950 . S
C534 C535 1.327 . S
C535 H529 0.950 . S
C535 C534 1.327 . S
C535 C539 1.429 . S
C536 C519 1.574 . S
C536 H530 0.949 . S
C536 C540 1.368 . S
C537 C518 1.429 . S
C537 C531 1.429 . S
C537 C538 1.523 . S
C538 C519 1.368 . S
C538 C532 1.368 . S
C538 C537 1.523 . S
C539 C523 1.429 . S
C539 C535 1.429 . S
C539 C540 1.523 . S
C540 C524 1.368 . S
C540 C536 1.368 . S
C540 C539 1.523 . S
H541 C516 0.950 . S
H542 C518 0.950 . S
H543 C519 0.949 . S
H544 C521 0.950 . S
H545 C523 0.950 . S
C546 C547 1.349 . S
C546 C548 1.327 . S
C546 H571 0.950 . S
C547 C546 1.349 . S
C547 C563 1.349 . S
C548 C546 1.327 . S
C548 C567 1.429 . S
C548 H572 0.950 . S
C549 C566 1.574 . S
C549 C568 1.368 . S
C549 H573 0.949 . S
H550 C554 0.949 . S
C551 C552 1.349 1_655 S
C551 C553 1.327 . S
C551 H574 0.950 . S
C552 C551 1.349 1_455 S
C552 C564 1.349 . S
C553 C551 1.327 . S
C553 C569 1.429 1_655 S
C553 H575 0.950 . S
C554 H550 0.949 . S
C554 C562 1.574 . S
C554 C570 1.368 . S
H555 C563 0.950 . S
H556 C561 0.950 . S
H557 C562 0.949 . S
H558 C564 0.950 . S
H559 C565 0.950 . S
H560 C566 0.949 1_655 S
C561 H556 0.950 . S
C561 C563 1.327 . S
C561 C567 1.429 . S
C562 C554 1.574 . S
C562 H557 0.949 . S
C562 C568 1.368 . S
C563 C547 1.349 . S
C563 H555 0.950 . S
C563 C561 1.327 . S
C564 C552 1.349 . S
C564 H558 0.950 . S
C564 C565 1.327 . S
C565 H559 0.950 . S
C565 C564 1.327 . S
C565 C569 1.429 . S
C566 C549 1.574 . S
C566 H560 0.949 1_455 S
C566 C570 1.368 . S
C567 C548 1.429 . S
C567 C561 1.429 . S
C567 C568 1.523 . S
C568 C549 1.368 . S
C568 C562 1.368 . S
C568 C567 1.523 . S
C569 C553 1.429 1_455 S
C569 C565 1.429 . S
C569 C570 1.523 . S
C570 C554 1.368 . S
C570 C566 1.368 . S
C570 C569 1.523 . S
H571 C546 0.950 . S
H572 C548 0.950 . S
H573 C549 0.949 . S
H574 C551 0.950 . S
H575 C553 0.950 . S
C576 C577 1.349 1_455 S
C576 C578 1.327 1_455 S
C576 H601 0.950 . S
C577 C576 1.349 1_655 S
C577 C593 1.349 . S
C578 C576 1.327 1_655 S
C578 C597 1.429 . S
C578 H602 0.954 . S
C579 C596 1.574 . S
C579 C598 1.368 . S
C579 H603 0.949 . S
H580 C584 0.949 . S
C581 C582 1.349 . S
C581 C583 1.327 . S
C581 H604 0.950 . S
C582 C581 1.349 . S
C582 C594 1.349 . S
C583 C581 1.327 . S
C583 C599 1.429 . S
C583 H605 0.950 . S
C584 H580 0.949 . S
C584 C592 1.574 . S
C584 C600 1.368 . S
H585 C593 0.950 . S
H586 C591 0.950 . S
H587 C592 0.949 . S
H588 C594 0.950 . S
H589 C595 0.950 . S
H590 C596 0.949 . S
C591 H586 0.950 . S
C591 C593 1.327 . S
C591 C597 1.429 . S
C592 C584 1.574 . S
C592 H587 0.949 . S
C592 C598 1.368 . S
C593 C577 1.349 . S
C593 H585 0.950 . S
C593 C591 1.327 . S
C594 C582 1.349 . S
C594 H588 0.950 . S
C594 C595 1.327 . S
C595 H589 0.950 . S
C595 C594 1.327 . S
C595 C599 1.429 . S
C596 C579 1.574 . S
C596 H590 0.949 . S
C596 C600 1.368 . S
C597 C578 1.429 . S
C597 C591 1.429 . S
C597 C598 1.523 . S
C598 C579 1.368 . S
C598 C592 1.368 . S
C598 C597 1.523 . S
C599 C583 1.429 . S
C599 C595 1.429 . S
C599 C600 1.523 . S
C600 C584 1.368 . S
C600 C596 1.368 . S
C600 C599 1.523 . S
H601 C576 0.950 . S
H602 C578 0.954 . S
H603 C579 0.949 . S
H604 C581 0.950 . S
H605 C583 0.950 . S
C606 C607 1.349 . S
C606 C608 1.327 . S
C606 H631 0.950 . S
C607 C606 1.349 . S
C607 C623 1.349 . S
C608 C606 1.327 . S
C608 C627 1.429 . S
C608 H632 0.950 . S
C609 C626 1.574 . S
C609 C628 1.368 . S
C609 H633 0.949 . S
H610 C614 0.949 . S
C611 C612 1.349 . S
C611 C613 1.327 . S
C611 H634 0.950 . S
C612 C611 1.349 . S
C612 C624 1.349 . S
C613 C611 1.327 . S
C613 C629 1.429 . S
C613 H635 0.950 . S
C614 H610 0.949 . S
C614 C622 1.574 . S
C614 C630 1.368 . S
H615 C623 0.950 . S
H616 C621 0.950 . S
H617 C622 0.949 . S
H618 C624 0.950 . S
H619 C625 0.950 . S
H620 C626 0.949 . S
C621 H616 0.950 . S
C621 C623 1.327 . S
C621 C627 1.429 . S
C622 C614 1.574 . S
C622 H617 0.949 . S
C622 C628 1.368 . S
C623 C607 1.349 . S
C623 H615 0.950 . S
C623 C621 1.327 . S
C624 C612 1.349 . S
C624 H618 0.950 . S
C624 C625 1.327 . S
C625 H619 0.950 . S
C625 C624 1.327 . S
C625 C629 1.429 . S
C626 C609 1.574 . S
C626 H620 0.949 . S
C626 C630 1.368 . S
C627 C608 1.429 . S
C627 C621 1.429 . S
C627 C628 1.523 . S
C628 C609 1.368 . S
C628 C622 1.368 . S
C628 C627 1.523 . S
C629 C613 1.429 . S
C629 C625 1.429 . S
C629 C630 1.523 . S
C630 C614 1.368 . S
C630 C626 1.368 . S
C630 C629 1.523 . S
H631 C606 0.950 . S
H632 C608 0.950 . S
H633 C609 0.949 . S
H634 C611 0.950 . S
H635 C613 0.950 . S
C636 C637 1.349 . S
C636 C638 1.327 . S
C636 H661 0.950 . S
C637 C636 1.349 . S
C637 C653 1.349 . S
C638 C636 1.327 . S
C638 C657 1.429 . S
C638 H662 0.950 . S
C639 C656 1.574 . S
C639 C658 1.368 . S
C639 H663 0.949 . S
H640 C644 0.949 . S
C641 C642 1.349 . S
C641 C643 1.327 . S
C641 H664 0.950 . S
C642 C641 1.349 . S
C642 C654 1.349 . S
C643 C641 1.327 . S
C643 C659 1.429 . S
C643 H665 0.950 . S
C644 H640 0.949 . S
C644 C652 1.574 . S
C644 C660 1.368 . S
H645 C653 0.950 . S
H646 C651 0.950 . S
H647 C652 0.949 . S
H648 C654 0.950 . S
H649 C655 0.950 . S
H650 C656 0.949 . S
C651 H646 0.950 . S
C651 C653 1.327 . S
C651 C657 1.429 . S
C652 C644 1.574 . S
C652 H647 0.949 . S
C652 C658 1.368 . S
C653 C637 1.349 . S
C653 H645 0.950 . S
C653 C651 1.327 . S
C654 C642 1.349 . S
C654 H648 0.950 . S
C654 C655 1.327 . S
C655 H649 0.950 . S
C655 C654 1.327 . S
C655 C659 1.429 . S
C656 C639 1.574 . S
C656 H650 0.949 . S
C656 C660 1.368 . S
C657 C638 1.429 . S
C657 C651 1.429 . S
C657 C658 1.523 . S
C658 C639 1.368 . S
C658 C652 1.368 . S
C658 C657 1.523 . S
C659 C643 1.429 . S
C659 C655 1.429 . S
C659 C660 1.523 . S
C660 C644 1.368 . S
C660 C656 1.368 . S
C660 C659 1.523 . S
H661 C636 0.950 . S
H662 C638 0.950 . S
H663 C639 0.949 . S
H664 C641 0.950 . S
H665 C643 0.950 . S
C666 C667 1.349 . S
C666 C668 1.327 . S
C666 H691 0.950 . S
C667 C666 1.349 . S
C667 C683 1.349 . S
C668 C666 1.327 . S
C668 C687 1.429 . S
C668 H692 0.950 . S
C669 C686 1.574 . S
C669 C688 1.368 . S
C669 H693 0.949 . S
H670 C674 0.949 . S
C671 C672 1.349 . S
C671 C673 1.327 . S
C671 H694 0.950 . S
C672 C671 1.349 . S
C672 C684 1.349 . S
C673 C671 1.327 . S
C673 C689 1.429 . S
C673 H695 0.950 . S
C674 H670 0.949 . S
C674 C682 1.574 . S
C674 C690 1.368 . S
H675 C683 0.950 1_455 S
H676 C681 0.950 . S
H677 C682 0.949 . S
H678 C684 0.950 . S
H679 C685 0.950 . S
H680 C686 0.949 . S
C681 H676 0.950 . S
C681 C683 1.327 . S
C681 C687 1.429 . S
C682 C674 1.574 . S
C682 H677 0.949 . S
C682 C688 1.368 . S
C683 C667 1.349 . S
C683 H675 0.950 1_655 S
C683 C681 1.327 . S
C684 C672 1.349 . S
C684 H678 0.950 . S
C684 C685 1.327 . S
C685 H679 0.950 . S
C685 C684 1.327 . S
C685 C689 1.429 . S
C686 C669 1.574 . S
C686 H680 0.949 . S
C686 C690 1.368 . S
C687 C668 1.429 . S
C687 C681 1.429 . S
C687 C688 1.523 . S
C688 C669 1.368 . S
C688 C682 1.368 . S
C688 C687 1.523 . S
C689 C673 1.429 . S
C689 C685 1.429 . S
C689 C690 1.523 . S
C690 C674 1.368 . S
C690 C686 1.368 . S
C690 C689 1.523 . S
H691 C666 0.950 . S
H692 C668 0.950 . S
H693 C669 0.949 . S
H694 C671 0.950 . S
H695 C673 0.950 . S
C696 C697 1.349 . S
C696 C698 1.327 . S
C696 H721 0.950 . S
C697 C696 1.349 . S
C697 C713 1.349 . S
C698 C696 1.327 . S
C698 C717 1.429 . S
C698 H722 0.950 . S
C699 C716 1.574 . S
C699 C718 1.368 . S
C699 H723 0.949 . S
H700 C704 0.949 . S
C701 C702 1.349 . S
C701 C703 1.327 . S
C701 H724 0.950 . S
C702 C701 1.349 . S
C702 C714 1.349 . S
C703 C701 1.327 . S
C703 C719 1.429 . S
C703 H725 0.950 . S
C704 H700 0.949 . S
C704 C712 1.574 . S
C704 C720 1.368 . S
H705 C713 0.950 . S
H706 C711 0.950 . S
H707 C712 0.949 . S
H708 C714 0.950 . S
H709 C715 0.950 . S
H710 C716 0.949 . S
C711 H706 0.950 . S
C711 C713 1.327 . S
C711 C717 1.429 . S
C712 C704 1.574 . S
C712 H707 0.949 . S
C712 C718 1.368 . S
C713 C697 1.349 . S
C713 H705 0.950 . S
C713 C711 1.327 . S
C714 C702 1.349 . S
C714 H708 0.950 . S
C714 C715 1.327 . S
C715 H709 0.950 . S
C715 C714 1.327 . S
C715 C719 1.429 . S
C716 C699 1.574 . S
C716 H710 0.949 . S
C716 C720 1.368 . S
C717 C698 1.429 . S
C717 C711 1.429 . S
C717 C718 1.523 . S
C718 C699 1.368 . S
C718 C712 1.368 . S
C718 C717 1.523 . S
C719 C703 1.429 . S
C719 C715 1.429 . S
C719 C720 1.523 . S
C720 C704 1.368 . S
C720 C716 1.368 . S
C720 C719 1.523 . S
H721 C696 0.950 . S
H722 C698 0.950 . S
H723 C699 0.949 . S
H724 C701 0.950 . S
H725 C703 0.950 . S
C726 C727 1.349 . S
C726 C728 1.327 . S
C726 H751 0.950 . S
C727 C726 1.349 . S
C727 C743 1.349 . S
C728 C726 1.327 . S
C728 C747 1.429 . S
C728 H752 0.950 . S
C729 C746 1.574 . S
C729 C748 1.368 . S
C729 H753 0.949 . S
H730 C734 0.949 1_556 S
C731 C732 1.349 . S
C731 C733 1.327 . S
C731 H754 0.950 . S
C732 C731 1.349 . S
C732 C744 1.349 . S
C733 C731 1.327 . S
C733 C749 1.429 . S
C733 H755 0.950 . S
C734 H730 0.949 1_554 S
C734 C742 1.574 . S
C734 C750 1.368 . S
H735 C743 0.950 . S
H736 C741 0.950 . S
H737 C742 0.949 . S
H738 C744 0.950 . S
H739 C745 0.950 . S
H740 C746 0.949 . S
C741 H736 0.950 . S
C741 C743 1.327 . S
C741 C747 1.429 . S
C742 C734 1.574 . S
C742 H737 0.949 . S
C742 C748 1.368 . S
C743 C727 1.349 . S
C743 H735 0.950 . S
C743 C741 1.327 . S
C744 C732 1.349 . S
C744 H738 0.950 . S
C744 C745 1.327 . S
C745 H739 0.950 . S
C745 C744 1.327 . S
C745 C749 1.429 . S
C746 C729 1.574 . S
C746 H740 0.949 . S
C746 C750 1.368 . S
C747 C728 1.429 . S
C747 C741 1.429 . S
C747 C748 1.523 . S
C748 C729 1.368 . S
C748 C742 1.368 . S
C748 C747 1.523 . S
C749 C733 1.429 . S
C749 C745 1.429 . S
C749 C750 1.523 1_556 S
C750 C734 1.368 . S
C750 C746 1.368 . S
C750 C749 1.523 1_554 S
H751 C726 0.950 . S
H752 C728 0.950 . S
H753 C729 0.949 . S
H754 C731 0.950 . S
H755 C733 0.950 . S
C756 C757 1.349 . S
C756 C758 1.327 . S
C756 H781 0.950 . S
C757 C756 1.349 . S
C757 C773 1.349 . S
C758 C756 1.327 . S
C758 C777 1.429 . S
C758 H782 0.950 . S
C759 C776 1.574 . S
C759 C778 1.368 . S
C759 H783 0.949 . S
H760 C764 0.949 . S
C761 C762 1.349 . S
C761 C763 1.327 . S
C761 H784 0.950 . S
C762 C761 1.349 . S
C762 C774 1.349 . S
C763 C761 1.327 . S
C763 C779 1.429 . S
C763 H785 0.950 . S
C764 H760 0.949 . S
C764 C772 1.574 . S
C764 C780 1.368 . S
H765 C773 0.950 . S
H766 C771 0.950 . S
H767 C772 0.949 . S
H768 C774 0.950 . S
H769 C775 0.950 . S
H770 C776 0.949 . S
C771 H766 0.950 . S
C771 C773 1.327 . S
C771 C777 1.429 . S
C772 C764 1.574 . S
C772 H767 0.949 . S
C772 C778 1.368 . S
C773 C757 1.349 . S
C773 H765 0.950 . S
C773 C771 1.327 . S
C774 C762 1.349 . S
C774 H768 0.950 . S
C774 C775 1.327 . S
C775 H769 0.950 . S
C775 C774 1.327 . S
C775 C779 1.429 . S
C776 C759 1.574 . S
C776 H770 0.949 . S
C776 C780 1.368 . S
C777 C758 1.429 . S
C777 C771 1.429 . S
C777 C778 1.523 . S
C778 C759 1.368 . S
C778 C772 1.368 . S
C778 C777 1.523 . S
C779 C763 1.429 . S
C779 C775 1.429 . S
C779 C780 1.523 . S
C780 C764 1.368 . S
C780 C776 1.368 . S
C780 C779 1.523 . S
H781 C756 0.950 . S
H782 C758 0.950 . S
H783 C759 0.949 . S
H784 C761 0.950 . S
H785 C763 0.950 . S
C786 C787 1.349 . S
C786 C788 1.327 . S
C786 H811 0.950 . S
C787 C786 1.349 . S
C787 C803 1.349 . S
C788 C786 1.327 . S
C788 C807 1.429 . S
C788 H812 0.950 . S
C789 C806 1.574 . S
C789 C808 1.368 . S
C789 H813 0.949 . S
H790 C794 0.949 . S
C791 C792 1.349 . S
C791 C793 1.327 . S
C791 H814 0.950 . S
C792 C791 1.349 . S
C792 C804 1.349 . S
C793 C791 1.327 . S
C793 C809 1.429 . S
C793 H815 0.950 . S
C794 H790 0.949 . S
C794 C802 1.574 . S
C794 C810 1.368 . S
H795 C803 0.950 . S
H796 C801 0.950 . S
H797 C802 0.949 1_554 S
H798 C804 0.950 . S
H799 C805 0.950 . S
H800 C806 0.949 . S
C801 H796 0.950 . S
C801 C803 1.327 . S
C801 C807 1.429 . S
C802 C794 1.574 . S
C802 H797 0.949 1_556 S
C802 C808 1.368 . S
C803 C787 1.349 . S
C803 H795 0.950 . S
C803 C801 1.327 . S
C804 C792 1.349 . S
C804 H798 0.950 . S
C804 C805 1.327 . S
C805 H799 0.950 . S
C805 C804 1.327 . S
C805 C809 1.429 . S
C806 C789 1.574 . S
C806 H800 0.949 . S
C806 C810 1.368 . S
C807 C788 1.429 . S
C807 C801 1.429 . S
C807 C808 1.523 1_554 S
C808 C789 1.368 . S
C808 C802 1.368 . S
C808 C807 1.523 1_556 S
C809 C793 1.429 . S
C809 C805 1.429 . S
C809 C810 1.523 . S
C810 C794 1.368 . S
C810 C806 1.368 . S
C810 C809 1.523 . S
H811 C786 0.950 . S
H812 C788 0.950 . S
H813 C789 0.949 . S
H814 C791 0.950 . S
H815 C793 0.950 . S
C816 C817 1.349 . S
C816 C818 1.327 . S
C816 H841 0.950 . S
C817 C816 1.349 . S
C817 C833 1.349 . S
C818 C816 1.327 . S
C818 C837 1.429 . S
C818 H842 0.950 . S
C819 C836 1.574 . S
C819 C838 1.368 . S
C819 H843 0.949 . S
H820 C824 0.949 . S
C821 C822 1.349 . S
C821 C823 1.327 . S
C821 H844 0.950 . S
C822 C821 1.349 . S
C822 C834 1.349 . S
C823 C821 1.327 . S
C823 C839 1.429 . S
C823 H845 0.950 . S
C824 H820 0.949 . S
C824 C832 1.574 . S
C824 C840 1.368 . S
H825 C833 0.950 . S
H826 C831 0.950 . S
H827 C832 0.949 . S
H828 C834 0.950 . S
H829 C835 0.950 . S
H830 C836 0.949 . S
C831 H826 0.950 . S
C831 C833 1.327 . S
C831 C837 1.429 . S
C832 C824 1.574 . S
C832 H827 0.949 . S
C832 C838 1.368 . S
C833 C817 1.349 . S
C833 H825 0.950 . S
C833 C831 1.327 . S
C834 C822 1.349 . S
C834 H828 0.950 . S
C834 C835 1.327 . S
C835 H829 0.950 . S
C835 C834 1.327 . S
C835 C839 1.429 . S
C836 C819 1.574 . S
C836 H830 0.949 . S
C836 C840 1.368 . S
C837 C818 1.429 . S
C837 C831 1.429 . S
C837 C838 1.523 . S
C838 C819 1.368 . S
C838 C832 1.368 . S
C838 C837 1.523 . S
C839 C823 1.429 . S
C839 C835 1.429 . S
C839 C840 1.523 . S
C840 C824 1.368 . S
C840 C836 1.368 . S
C840 C839 1.523 . S
H841 C816 0.950 . S
H842 C818 0.950 . S
H843 C819 0.949 . S
H844 C821 0.950 . S
H845 C823 0.950 . S
C846 C847 1.349 . S
C846 C848 1.327 . S
C846 H871 0.950 . S
C847 C846 1.349 . S
C847 C863 1.349 . S
C848 C846 1.327 . S
C848 C867 1.429 . S
C848 H872 0.950 . S
C849 C866 1.574 . S
C849 C868 1.368 . S
C849 H873 0.949 . S
H850 C854 0.949 . S
C851 C852 1.349 . S
C851 C853 1.327 . S
C851 H874 0.950 . S
C852 C851 1.349 . S
C852 C864 1.349 . S
C853 C851 1.327 . S
C853 C869 1.429 . S
C853 H875 0.950 . S
C854 H850 0.949 . S
C854 C862 1.574 . S
C854 C870 1.368 . S
H855 C863 0.950 . S
H856 C861 0.950 . S
H857 C862 0.949 . S
H858 C864 0.950 . S
H859 C865 0.950 . S
H860 C866 0.949 . S
C861 H856 0.950 . S
C861 C863 1.327 . S
C861 C867 1.429 . S
C862 C854 1.574 . S
C862 H857 0.949 . S
C862 C868 1.368 . S
C863 C847 1.349 . S
C863 H855 0.950 . S
C863 C861 1.327 . S
C864 C852 1.349 . S
C864 H858 0.950 . S
C864 C865 1.327 . S
C865 H859 0.950 . S
C865 C864 1.327 . S
C865 C869 1.429 . S
C866 C849 1.574 . S
C866 H860 0.949 . S
C866 C870 1.368 . S
C867 C848 1.429 . S
C867 C861 1.429 . S
C867 C868 1.523 . S
C868 C849 1.368 . S
C868 C862 1.368 . S
C868 C867 1.523 . S
C869 C853 1.429 . S
C869 C865 1.429 . S
C869 C870 1.523 . S
C870 C854 1.368 . S
C870 C866 1.368 . S
C870 C869 1.523 . S
H871 C846 0.950 . S
H872 C848 0.950 . S
H873 C849 0.949 . S
H874 C851 0.950 . S
H875 C853 0.950 . S
C876 C877 1.349 . S
C876 C878 1.327 . S
C876 H901 0.950 . S
C877 C876 1.349 . S
C877 C893 1.349 . S
C878 C876 1.327 . S
C878 C897 1.429 . S
C878 H902 0.950 . S
C879 C896 1.574 . S
C879 C898 1.368 . S
C879 H903 0.949 . S
H880 C884 0.949 . S
C881 C882 1.349 . S
C881 C883 1.327 . S
C881 H904 0.950 . S
C882 C881 1.349 . S
C882 C894 1.349 . S
C883 C881 1.327 . S
C883 C899 1.429 . S
C883 H905 0.950 . S
C884 H880 0.949 . S
C884 C892 1.574 . S
C884 C900 1.368 . S
H885 C893 0.950 . S
H886 C891 0.950 . S
H887 C892 0.949 . S
H888 C894 0.950 . S
H889 C895 0.950 . S
H890 C896 0.949 . S
C891 H886 0.950 . S
C891 C893 1.327 . S
C891 C897 1.429 . S
C892 C884 1.574 . S
C892 H887 0.949 . S
C892 C898 1.368 . S
C893 C877 1.349 . S
C893 H885 0.950 . S
C893 C891 1.327 . S
C894 C882 1.349 . S
C894 H888 0.950 . S
C894 C895 1.327 . S
C895 H889 0.950 . S
C895 C894 1.327 . S
C895 C899 1.429 . S
C896 C879 1.574 . S
C896 H890 0.949 . S
C896 C900 1.368 . S
C897 C878 1.429 . S
C897 C891 1.429 . S
C897 C898 1.523 . S
C898 C879 1.368 . S
C898 C892 1.368 . S
C898 C897 1.523 . S
C899 C883 1.429 . S
C899 C895 1.429 . S
C899 C900 1.523 . S
C900 C884 1.368 . S
C900 C896 1.368 . S
C900 C899 1.523 . S
H901 C876 0.950 . S
H902 C878 0.950 . S
H903 C879 0.949 . S
H904 C881 0.950 . S
H905 C883 0.950 . S
C906 C907 1.349 . S
C906 C908 1.327 . S
C906 H931 0.950 . S
C907 C906 1.349 . S
C907 C923 1.349 . S
C908 C906 1.327 . S
C908 C927 1.429 . S
C908 H932 0.950 . S
C909 C926 1.574 . S
C909 C928 1.368 . S
C909 H933 0.949 . S
H910 C914 0.986 . S
C911 C912 1.349 . S
C911 C913 1.327 . S
C911 H934 0.950 . S
C912 C911 1.349 . S
C912 C924 1.349 . S
C913 C911 1.327 . S
C913 C929 1.429 . S
C913 H935 0.950 1_565 S
C914 H910 0.986 . S
C914 C922 1.544 1_565 S
C914 C930 1.358 1_565 S
H915 C923 0.950 . S
H916 C921 0.950 . S
H917 C922 0.949 . S
H918 C924 0.950 . S
H919 C925 0.950 . S
H920 C926 0.949 . S
C921 H916 0.950 . S
C921 C923 1.327 . S
C921 C927 1.429 . S
C922 C914 1.544 1_545 S
C922 H917 0.949 . S
C922 C928 1.368 . S
C923 C907 1.349 . S
C923 H915 0.950 . S
C923 C921 1.327 . S
C924 C912 1.349 . S
C924 H918 0.950 . S
C924 C925 1.327 . S
C925 H919 0.950 . S
C925 C924 1.327 . S
C925 C929 1.429 . S
C926 C909 1.574 . S
C926 H920 0.949 . S
C926 C930 1.368 . S
C927 C908 1.429 . S
C927 C921 1.429 . S
C927 C928 1.523 . S
C928 C909 1.368 . S
C928 C922 1.368 . S
C928 C927 1.523 . S
C929 C913 1.429 . S
C929 C925 1.429 . S
C929 C930 1.523 1_565 S
C930 C914 1.358 1_545 S
C930 C926 1.368 . S
C930 C929 1.523 1_545 S
H931 C906 0.950 . S
H932 C908 0.950 . S
H933 C909 0.949 . S
H934 C911 0.950 . S
H935 C913 0.950 1_545 S
C936 C937 1.349 . S
C936 C938 1.327 . S
C936 H961 0.950 . S
C937 C936 1.349 . S
C937 C953 1.349 . S
C938 C936 1.327 . S
C938 C957 1.429 . S
C938 H962 0.950 . S
C939 C956 1.574 . S
C939 C958 1.368 . S
C939 H963 0.949 . S
H940 C944 0.949 . S
C941 C942 1.349 . S
C941 C943 1.327 . S
C941 H964 0.950 . S
C942 C941 1.349 . S
C942 C954 1.349 . S
C943 C941 1.327 . S
C943 C959 1.429 . S
C943 H965 0.950 . S
C944 H940 0.949 . S
C944 C952 1.574 . S
C944 C960 1.368 . S
H945 C953 0.950 . S
H946 C951 0.950 . S
H947 C952 0.949 . S
H948 C954 0.950 . S
H949 C955 0.950 . S
H950 C956 0.949 . S
C951 H946 0.950 . S
C951 C953 1.327 . S
C951 C957 1.429 . S
C952 C944 1.574 . S
C952 H947 0.949 . S
C952 C958 1.368 . S
C953 C937 1.349 . S
C953 H945 0.950 . S
C953 C951 1.327 . S
C954 C942 1.349 . S
C954 H948 0.950 . S
C954 C955 1.327 . S
C955 H949 0.950 . S
C955 C954 1.327 . S
C955 C959 1.429 . S
C956 C939 1.574 . S
C956 H950 0.949 . S
C956 C960 1.368 . S
C957 C938 1.429 . S
C957 C951 1.429 . S
C957 C958 1.523 . S
C958 C939 1.368 . S
C958 C952 1.368 . S
C958 C957 1.523 . S
C959 C943 1.429 . S
C959 C955 1.429 . S
C959 C960 1.523 . S
C960 C944 1.368 . S
C960 C956 1.368 . S
C960 C959 1.523 . S
H961 C936 0.950 . S
H962 C938 0.950 . S
H963 C939 0.949 . S
H964 C941 0.950 . S
H965 C943 0.950 . S
C966 C967 1.349 . S
C966 C968 1.327 . S
C966 H991 0.950 . S
C967 C966 1.349 . S
C967 C983 1.349 . S
C968 C966 1.327 . S
C968 C987 1.429 . S
C968 H992 0.950 . S
C969 C986 1.574 . S
C969 C988 1.368 . S
C969 H993 0.949 1_565 S
H970 C974 0.949 . S
C971 C972 1.349 1_556 S
C971 C973 1.327 1_556 S
C971 H994 0.950 . S
C972 C971 1.349 1_554 S
C972 C984 1.349 . S
C973 C971 1.327 1_554 S
C973 C989 1.429 . S
C973 H995 0.950 . S
C974 H970 0.949 . S
C974 C982 1.574 . S
C974 C990 1.368 . S
H975 C983 0.950 . S
H976 C981 0.950 . S
H977 C982 0.949 . S
H978 C984 0.950 . S
H979 C985 0.950 . S
H980 C986 0.949 . S
C981 H976 0.950 . S
C981 C983 1.327 . S
C981 C987 1.429 . S
C982 C974 1.574 . S
C982 H977 0.949 . S
C982 C988 1.368 . S
C983 C967 1.349 . S
C983 H975 0.950 . S
C983 C981 1.327 . S
C984 C972 1.349 . S
C984 H978 0.950 . S
C984 C985 1.327 . S
C985 H979 0.950 . S
C985 C984 1.327 . S
C985 C989 1.429 . S
C986 C969 1.574 . S
C986 H980 0.949 . S
C986 C990 1.368 . S
C987 C968 1.429 . S
C987 C981 1.429 . S
C987 C988 1.523 1_545 S
C988 C969 1.368 . S
C988 C982 1.368 . S
C988 C987 1.523 1_565 S
C989 C973 1.429 . S
C989 C985 1.429 . S
C989 C990 1.523 . S
C990 C974 1.368 . S
C990 C986 1.368 . S
C990 C989 1.523 . S
H991 C966 0.950 . S
H992 C968 0.950 . S
H993 C969 0.949 1_545 S
H994 C971 0.950 . S
H995 C973 0.950 . S
C996 C997 1.349 . S
C996 C998 1.327 . S
C996 H1021 0.950 . S
C997 C996 1.349 . S
C997 C1013 1.349 . S
C998 C996 1.327 . S
C998 C1017 1.429 . S
C998 H1022 0.950 . S
C999 C1016 1.574 . S
C999 C1018 1.368 . S
C999 H1023 0.949 . S
H1000 C1004 0.949 . S
C1001 C1002 1.349 . S
C1001 C1003 1.327 . S
C1001 H1024 0.950 . S
C1002 C1001 1.349 . S
C1002 C1014 1.349 . S
C1003 C1001 1.327 . S
C1003 C1019 1.429 . S
C1003 H1025 0.950 . S
C1004 H1000 0.949 . S
C1004 C1012 1.574 . S
C1004 C1020 1.368 . S
H1005 C1013 0.950 . S
H1006 C1011 0.950 . S
H1007 C1012 0.949 . S
H1008 C1014 0.950 . S
H1009 C1015 0.950 . S
H1010 C1016 0.949 . S
C1011 H1006 0.950 . S
C1011 C1013 1.327 . S
C1011 C1017 1.429 . S
C1012 C1004 1.574 . S
C1012 H1007 0.949 . S
C1012 C1018 1.368 . S
C1013 C997 1.349 . S
C1013 H1005 0.950 . S
C1013 C1011 1.327 . S
C1014 C1002 1.349 . S
C1014 H1008 0.950 . S
C1014 C1015 1.327 . S
C1015 H1009 0.950 . S
C1015 C1014 1.327 . S
C1015 C1019 1.429 . S
C1016 C999 1.574 . S
C1016 H1010 0.949 . S
C1016 C1020 1.368 . S
C1017 C998 1.429 . S
C1017 C1011 1.429 . S
C1017 C1018 1.523 . S
C1018 C999 1.368 . S
C1018 C1012 1.368 . S
C1018 C1017 1.523 . S
C1019 C1003 1.429 . S
C1019 C1015 1.429 . S
C1019 C1020 1.523 . S
C1020 C1004 1.368 . S
C1020 C1016 1.368 . S
C1020 C1019 1.523 . S
H1021 C996 0.950 . S
H1022 C998 0.950 . S
H1023 C999 0.949 . S
H1024 C1001 0.950 . S
H1025 C1003 0.950 . S
C1026 C1027 1.349 . S
C1026 C1028 1.327 . S
C1026 H1051 0.950 . S
C1027 C1026 1.349 . S
C1027 C1043 1.349 . S
C1028 C1026 1.327 . S
C1028 C1047 1.429 . S
C1028 H1052 0.950 . S
C1029 C1046 1.574 . S
C1029 C1048 1.368 . S
C1029 H1053 0.949 . S
H1030 C1034 0.949 . S
C1031 C1032 1.349 . S
C1031 C1033 1.327 . S
C1031 H1054 0.950 1_556 S
C1032 C1031 1.349 . S
C1032 C1044 1.349 . S
C1033 C1031 1.327 . S
C1033 C1049 1.429 . S
C1033 H1055 0.950 . S
C1034 H1030 0.949 . S
C1034 C1042 1.574 . S
C1034 C1050 1.368 . S
H1035 C1043 0.950 . S
H1036 C1041 0.950 . S
H1037 C1042 0.949 . S
H1038 C1044 0.950 . S
H1039 C1045 0.950 . S
H1040 C1046 0.949 . S
C1041 H1036 0.950 . S
C1041 C1043 1.327 . S
C1041 C1047 1.429 . S
C1042 C1034 1.574 . S
C1042 H1037 0.949 . S
C1042 C1048 1.368 . S
C1043 C1027 1.349 . S
C1043 H1035 0.950 . S
C1043 C1041 1.327 . S
C1044 C1032 1.349 . S
C1044 H1038 0.950 . S
C1044 C1045 1.327 . S
C1045 H1039 0.950 . S
C1045 C1044 1.327 . S
C1045 C1049 1.429 . S
C1046 C1029 1.574 . S
C1046 H1040 0.949 . S
C1046 C1050 1.368 . S
C1047 C1028 1.429 . S
C1047 C1041 1.429 . S
C1047 C1048 1.523 . S
C1048 C1029 1.368 . S
C1048 C1042 1.368 . S
C1048 C1047 1.523 . S
C1049 C1033 1.429 . S
C1049 C1045 1.429 . S
C1049 C1050 1.523 . S
C1050 C1034 1.368 . S
C1050 C1046 1.368 . S
C1050 C1049 1.523 . S
H1051 C1026 0.950 . S
H1052 C1028 0.950 . S
H1053 C1029 0.949 . S
H1054 C1031 0.950 1_554 S
H1055 C1033 0.950 . S
C1056 C1057 1.349 . S
C1056 C1058 1.327 . S
C1056 H1081 0.950 . S
C1057 C1056 1.349 . S
C1057 C1073 1.349 . S
C1058 C1056 1.327 . S
C1058 C1077 1.429 . S
C1058 H1082 0.950 . S
C1059 C1076 1.574 . S
C1059 C1078 1.368 . S
C1059 H1083 0.949 . S
H1060 C1064 0.949 . S
C1061 C1062 1.349 . S
C1061 C1063 1.327 . S
C1061 H1084 0.950 . S
C1062 C1061 1.349 . S
C1062 C1074 1.349 . S
C1063 C1061 1.327 . S
C1063 C1079 1.429 . S
C1063 H1085 0.950 . S
C1064 H1060 0.949 . S
C1064 C1072 1.574 . S
C1064 C1080 1.368 . S
H1065 C1073 0.950 . S
H1066 C1071 0.950 . S
H1067 C1072 0.949 . S
H1068 C1074 0.950 . S
H1069 C1075 0.950 . S
H1070 C1076 0.949 . S
C1071 H1066 0.950 . S
C1071 C1073 1.327 . S
C1071 C1077 1.429 . S
C1072 C1064 1.574 . S
C1072 H1067 0.949 . S
C1072 C1078 1.368 . S
C1073 C1057 1.349 . S
C1073 H1065 0.950 . S
C1073 C1071 1.327 . S
C1074 C1062 1.349 . S
C1074 H1068 0.950 . S
C1074 C1075 1.327 . S
C1075 H1069 0.950 . S
C1075 C1074 1.327 . S
C1075 C1079 1.429 . S
C1076 C1059 1.574 . S
C1076 H1070 0.949 . S
C1076 C1080 1.368 . S
C1077 C1058 1.429 . S
C1077 C1071 1.429 . S
C1077 C1078 1.523 . S
C1078 C1059 1.368 . S
C1078 C1072 1.368 . S
C1078 C1077 1.523 . S
C1079 C1063 1.429 . S
C1079 C1075 1.429 . S
C1079 C1080 1.523 . S
C1080 C1064 1.368 . S
C1080 C1076 1.368 . S
C1080 C1079 1.523 . S
H1081 C1056 0.950 . S
H1082 C1058 0.950 . S
H1083 C1059 0.949 . S
H1084 C1061 0.950 . S
H1085 C1063 0.950 . S
C1086 C1087 1.349 . S
C1086 C1088 1.327 . S
C1086 H1111 0.950 . S
C1087 C1086 1.349 . S
C1087 C1103 1.349 . S
C1088 C1086 1.327 . S
C1088 C1107 1.429 . S
C1088 H1112 0.950 . S
C1089 C1106 1.574 . S
C1089 C1108 1.368 . S
C1089 H1113 0.949 . S
H1090 C1094 0.949 . S
C1091 C1092 1.349 . S
C1091 C1093 1.327 . S
C1091 H1114 0.950 . S
C1092 C1091 1.349 . S
C1092 C1104 1.349 . S
C1093 C1091 1.327 . S
C1093 C1109 1.429 . S
C1093 H1115 0.950 . S
C1094 H1090 0.949 . S
C1094 C1102 1.574 . S
C1094 C1110 1.368 . S
H1095 C1103 0.950 . S
H1096 C1101 0.950 . S
H1097 C1102 0.949 . S
H1098 C1104 0.950 . S
H1099 C1105 0.950 . S
H1100 C1106 0.949 . S
C1101 H1096 0.950 . S
C1101 C1103 1.327 . S
C1101 C1107 1.429 . S
C1102 C1094 1.574 . S
C1102 H1097 0.949 . S
C1102 C1108 1.368 . S
C1103 C1087 1.349 . S
C1103 H1095 0.950 . S
C1103 C1101 1.327 . S
C1104 C1092 1.349 . S
C1104 H1098 0.950 . S
C1104 C1105 1.327 . S
C1105 H1099 0.950 . S
C1105 C1104 1.327 . S
C1105 C1109 1.429 . S
C1106 C1089 1.574 . S
C1106 H1100 0.949 . S
C1106 C1110 1.368 . S
C1107 C1088 1.429 . S
C1107 C1101 1.429 . S
C1107 C1108 1.523 . S
C1108 C1089 1.368 . S
C1108 C1102 1.368 . S
C1108 C1107 1.523 . S
C1109 C1093 1.429 . S
C1109 C1105 1.429 . S
C1109 C1110 1.523 . S
C1110 C1094 1.368 . S
C1110 C1106 1.368 . S
C1110 C1109 1.523 . S
H1111 C1086 0.950 . S
H1112 C1088 0.950 . S
H1113 C1089 0.949 . S
H1114 C1091 0.950 . S
H1115 C1093 0.950 . S
C1116 C1117 1.349 . S
C1116 C1118 1.327 . S
C1116 H1141 0.950 . S
C1117 C1116 1.349 . S
C1117 C1133 1.349 . S
C1118 C1116 1.327 . S
C1118 C1137 1.429 . S
C1118 H1142 0.950 . S
C1119 C1136 1.574 . S
C1119 C1138 1.368 . S
C1119 H1143 0.949 . S
H1120 C1124 0.949 . S
C1121 C1122 1.349 . S
C1121 C1123 1.327 . S
C1121 H1144 0.950 . S
C1122 C1121 1.349 . S
C1122 C1134 1.349 . S
C1123 C1121 1.327 . S
C1123 C1139 1.429 . S
C1123 H1145 0.950 . S
C1124 H1120 0.949 . S
C1124 C1132 1.574 . S
C1124 C1140 1.368 . S
H1125 C1133 0.950 . S
H1126 C1131 0.950 . S
H1127 C1132 0.949 . S
H1128 C1134 0.950 . S
H1129 C1135 0.950 . S
H1130 C1136 0.949 . S
C1131 H1126 0.950 . S
C1131 C1133 1.327 . S
C1131 C1137 1.429 . S
C1132 C1124 1.574 . S
C1132 H1127 0.949 . S
C1132 C1138 1.368 . S
C1133 C1117 1.349 . S
C1133 H1125 0.950 . S
C1133 C1131 1.327 . S
C1134 C1122 1.349 . S
C1134 H1128 0.950 . S
C1134 C1135 1.327 . S
C1135 H1129 0.950 . S
C1135 C1134 1.327 . S
C1135 C1139 1.429 . S
C1136 C1119 1.574 . S
C1136 H1130 0.949 . S
C1136 C1140 1.368 . S
C1137 C1118 1.429 . S
C1137 C1131 1.429 . S
C1137 C1138 1.523 . S
C1138 C1119 1.368 . S
C1138 C1132 1.368 . S
C1138 C1137 1.523 . S
C1139 C1123 1.429 . S
C1139 C1135 1.429 . S
C1139 C1140 1.523 . S
C1140 C1124 1.368 . S
C1140 C1136 1.368 . S
C1140 C1139 1.523 . S
H1141 C1116 0.950 . S
H1142 C1118 0.950 . S
H1143 C1119 0.949 . S
H1144 C1121 0.950 . S
H1145 C1123 0.950 . S
C1146 C1147 1.349 . S
C1146 C1148 1.327 . S
C1146 H1171 0.950 . S
C1147 C1146 1.349 . S
C1147 C1163 1.349 . S
C1148 C1146 1.327 . S
C1148 C1167 1.429 . S
C1148 H1172 0.950 . S
C1149 C1166 1.574 . S
C1149 C1168 1.368 . S
C1149 H1173 0.949 . S
H1150 C1154 0.949 . S
C1151 C1152 1.349 . S
C1151 C1153 1.327 . S
C1151 H1174 0.950 . S
C1152 C1151 1.349 . S
C1152 C1164 1.349 . S
C1153 C1151 1.327 . S
C1153 C1169 1.429 . S
C1153 H1175 0.950 . S
C1154 H1150 0.949 . S
C1154 C1162 1.574 . S
C1154 C1170 1.368 . S
H1155 C1163 0.950 . S
H1156 C1161 0.950 . S
H1157 C1162 0.949 . S
H1158 C1164 0.950 . S
H1159 C1165 0.950 . S
H1160 C1166 0.949 . S
C1161 H1156 0.950 . S
C1161 C1163 1.327 . S
C1161 C1167 1.429 . S
C1162 C1154 1.574 . S
C1162 H1157 0.949 . S
C1162 C1168 1.368 . S
C1163 C1147 1.349 . S
C1163 H1155 0.950 . S
C1163 C1161 1.327 . S
C1164 C1152 1.349 . S
C1164 H1158 0.950 . S
C1164 C1165 1.327 . S
C1165 H1159 0.950 . S
C1165 C1164 1.327 . S
C1165 C1169 1.429 . S
C1166 C1149 1.574 . S
C1166 H1160 0.949 . S
C1166 C1170 1.368 . S
C1167 C1148 1.429 . S
C1167 C1161 1.429 . S
C1167 C1168 1.523 . S
C1168 C1149 1.368 . S
C1168 C1162 1.368 . S
C1168 C1167 1.523 . S
C1169 C1153 1.429 . S
C1169 C1165 1.429 . S
C1169 C1170 1.523 . S
C1170 C1154 1.368 . S
C1170 C1166 1.368 . S
C1170 C1169 1.523 . S
H1171 C1146 0.950 . S
H1172 C1148 0.950 . S
H1173 C1149 0.949 . S
H1174 C1151 0.950 . S
H1175 C1153 0.950 . S
C1176 C1177 1.349 . S
C1176 C1178 1.327 . S
C1176 H1201 0.950 . S
C1177 C1176 1.349 . S
C1177 C1193 1.349 . S
C1178 C1176 1.327 . S
C1178 C1197 1.429 . S
C1178 H1202 0.950 . S
C1179 C1196 1.574 . S
C1179 C1198 1.368 . S
C1179 H1203 0.949 . S
H1180 C1184 0.949 . S
C1181 C1182 1.349 . S
C1181 C1183 1.327 . S
C1181 H1204 0.950 . S
C1182 C1181 1.349 . S
C1182 C1194 1.349 . S
C1183 C1181 1.327 . S
C1183 C1199 1.429 . S
C1183 H1205 0.950 . S
C1184 H1180 0.949 . S
C1184 C1192 1.574 1_655 S
C1184 C1200 1.368 1_655 S
H1185 C1193 0.950 . S
H1186 C1191 0.950 . S
H1187 C1192 0.949 . S
H1188 C1194 0.950 . S
H1189 C1195 0.950 . S
H1190 C1196 0.949 . S
C1191 H1186 0.950 . S
C1191 C1193 1.327 . S
C1191 C1197 1.429 . S
C1192 C1184 1.574 1_455 S
C1192 H1187 0.949 . S
C1192 C1198 1.368 . S
C1193 C1177 1.349 . S
C1193 H1185 0.950 . S
C1193 C1191 1.327 . S
C1194 C1182 1.349 . S
C1194 H1188 0.950 . S
C1194 C1195 1.327 . S
C1195 H1189 0.950 . S
C1195 C1194 1.327 . S
C1195 C1199 1.429 . S
C1196 C1179 1.574 . S
C1196 H1190 0.949 . S
C1196 C1200 1.368 . S
C1197 C1178 1.429 . S
C1197 C1191 1.429 . S
C1197 C1198 1.523 . S
C1198 C1179 1.368 . S
C1198 C1192 1.368 . S
C1198 C1197 1.523 . S
C1199 C1183 1.429 . S
C1199 C1195 1.429 . S
C1199 C1200 1.523 1_655 S
C1200 C1184 1.368 1_455 S
C1200 C1196 1.368 . S
C1200 C1199 1.523 1_455 S
H1201 C1176 0.950 . S
H1202 C1178 0.950 . S
H1203 C1179 0.949 . S
H1204 C1181 0.950 . S
H1205 C1183 0.950 . S
C1206 C1207 1.349 . S
C1206 C1208 1.327 . S
C1206 H1231 0.950 . S
C1207 C1206 1.349 . S
C1207 C1223 1.349 . S
C1208 C1206 1.327 . S
C1208 C1227 1.429 . S
C1208 H1232 0.950 . S
C1209 C1226 1.574 . S
C1209 C1228 1.368 . S
C1209 H1233 0.949 . S
H1210 C1214 0.949 . S
C1211 C1212 1.349 . S
C1211 C1213 1.327 . S
C1211 H1234 0.950 . S
C1212 C1211 1.349 . S
C1212 C1224 1.349 . S
C1213 C1211 1.327 . S
C1213 C1229 1.429 . S
C1213 H1235 0.950 . S
C1214 H1210 0.949 . S
C1214 C1222 1.574 . S
C1214 C1230 1.368 . S
H1215 C1223 0.950 . S
H1216 C1221 0.950 . S
H1217 C1222 0.949 . S
H1218 C1224 0.950 . S
H1219 C1225 0.950 . S
H1220 C1226 0.949 . S
C1221 H1216 0.950 . S
C1221 C1223 1.327 . S
C1221 C1227 1.429 . S
C1222 C1214 1.574 . S
C1222 H1217 0.949 . S
C1222 C1228 1.368 . S
C1223 C1207 1.349 . S
C1223 H1215 0.950 . S
C1223 C1221 1.327 . S
C1224 C1212 1.349 . S
C1224 H1218 0.950 . S
C1224 C1225 1.327 . S
C1225 H1219 0.950 . S
C1225 C1224 1.327 . S
C1225 C1229 1.429 . S
C1226 C1209 1.574 . S
C1226 H1220 0.949 . S
C1226 C1230 1.368 . S
C1227 C1208 1.429 . S
C1227 C1221 1.429 . S
C1227 C1228 1.523 . S
C1228 C1209 1.368 . S
C1228 C1222 1.368 . S
C1228 C1227 1.523 . S
C1229 C1213 1.429 . S
C1229 C1225 1.429 . S
C1229 C1230 1.523 . S
C1230 C1214 1.368 . S
C1230 C1226 1.368 . S
C1230 C1229 1.523 . S
H1231 C1206 0.950 . S
H1232 C1208 0.950 . S
H1233 C1209 0.949 . S
H1234 C1211 0.950 . S
H1235 C1213 0.950 . S
C1236 C1237 1.349 . S
C1236 C1238 1.327 . S
C1236 H1261 0.950 . S
C1237 C1236 1.349 . S
C1237 C1253 1.349 . S
C1238 C1236 1.327 . S
C1238 C1257 1.429 . S
C1238 H1262 0.950 . S
C1239 C1256 1.574 . S
C1239 C1258 1.368 . S
C1239 H1263 0.949 . S
H1240 C1244 0.949 . S
C1241 C1242 1.349 . S
C1241 C1243 1.327 . S
C1241 H1264 0.950 . S
C1242 C1241 1.349 . S
C1242 C1254 1.349 . S
C1243 C1241 1.327 . S
C1243 C1259 1.429 . S
C1243 H1265 0.950 . S
C1244 H1240 0.949 . S
C1244 C1252 1.574 . S
C1244 C1260 1.368 . S
H1245 C1253 0.950 . S
H1246 C1251 0.950 . S
H1247 C1252 0.949 . S
H1248 C1254 0.950 . S
H1249 C1255 0.950 . S
H1250 C1256 0.949 . S
C1251 H1246 0.950 . S
C1251 C1253 1.327 . S
C1251 C1257 1.429 . S
C1252 C1244 1.574 . S
C1252 H1247 0.949 . S
C1252 C1258 1.368 . S
C1253 C1237 1.349 . S
C1253 H1245 0.950 . S
C1253 C1251 1.327 . S
C1254 C1242 1.349 . S
C1254 H1248 0.950 . S
C1254 C1255 1.327 . S
C1255 H1249 0.950 . S
C1255 C1254 1.327 . S
C1255 C1259 1.429 . S
C1256 C1239 1.574 . S
C1256 H1250 0.949 . S
C1256 C1260 1.368 . S
C1257 C1238 1.429 . S
C1257 C1251 1.429 . S
C1257 C1258 1.523 . S
C1258 C1239 1.368 . S
C1258 C1252 1.368 . S
C1258 C1257 1.523 . S
C1259 C1243 1.429 . S
C1259 C1255 1.429 . S
C1259 C1260 1.523 . S
C1260 C1244 1.368 . S
C1260 C1256 1.368 . S
C1260 C1259 1.523 . S
H1261 C1236 0.950 . S
H1262 C1238 0.950 . S
H1263 C1239 0.949 . S
H1264 C1241 0.950 . S
H1265 C1243 0.950 . S
C1266 C1267 1.349 . S
C1266 C1268 1.327 . S
C1266 H1291 0.950 . S
C1267 C1266 1.349 . S
C1267 C1283 1.349 . S
C1268 C1266 1.327 . S
C1268 C1287 1.429 . S
C1268 H1292 0.950 . S
C1269 C1286 1.574 . S
C1269 C1288 1.368 . S
C1269 H1293 0.949 . S
H1270 C1274 0.949 . S
C1271 C1272 1.349 . S
C1271 C1273 1.327 . S
C1271 H1294 0.950 . S
C1272 C1271 1.349 . S
C1272 C1284 1.349 . S
C1273 C1271 1.327 . S
C1273 C1289 1.429 . S
C1273 H1295 0.950 . S
C1274 H1270 0.949 . S
C1274 C1282 1.574 . S
C1274 C1290 1.368 . S
H1275 C1283 0.950 . S
H1276 C1281 0.950 . S
H1277 C1282 0.949 . S
H1278 C1284 0.950 . S
H1279 C1285 0.950 . S
H1280 C1286 0.949 . S
C1281 H1276 0.950 . S
C1281 C1283 1.327 . S
C1281 C1287 1.429 . S
C1282 C1274 1.574 . S
C1282 H1277 0.949 . S
C1282 C1288 1.368 . S
C1283 C1267 1.349 . S
C1283 H1275 0.950 . S
C1283 C1281 1.327 . S
C1284 C1272 1.349 . S
C1284 H1278 0.950 . S
C1284 C1285 1.327 . S
C1285 H1279 0.950 . S
C1285 C1284 1.327 . S
C1285 C1289 1.429 . S
C1286 C1269 1.574 . S
C1286 H1280 0.949 . S
C1286 C1290 1.368 . S
C1287 C1268 1.429 . S
C1287 C1281 1.429 . S
C1287 C1288 1.523 . S
C1288 C1269 1.368 . S
C1288 C1282 1.368 . S
C1288 C1287 1.523 . S
C1289 C1273 1.429 . S
C1289 C1285 1.429 . S
C1289 C1290 1.523 . S
C1290 C1274 1.368 . S
C1290 C1286 1.368 . S
C1290 C1289 1.523 . S
H1291 C1266 0.950 . S
H1292 C1268 0.950 . S
H1293 C1269 0.949 . S
H1294 C1271 0.950 . S
H1295 C1273 0.950 . S
C1296 C1297 1.349 . S
C1296 C1298 1.327 . S
C1296 H1321 0.950 . S
C1297 C1296 1.349 . S
C1297 C1313 1.349 . S
C1298 C1296 1.327 . S
C1298 C1317 1.429 . S
C1298 H1322 0.950 . S
C1299 C1316 1.574 . S
C1299 C1318 1.368 . S
C1299 H1323 0.949 . S
H1300 C1304 0.949 . S
C1301 C1302 1.349 . S
C1301 C1303 1.327 . S
C1301 H1324 0.950 . S
C1302 C1301 1.349 . S
C1302 C1314 1.349 . S
C1303 C1301 1.327 . S
C1303 C1319 1.429 . S
C1303 H1325 0.950 . S
C1304 H1300 0.949 . S
C1304 C1312 1.574 . S
C1304 C1320 1.368 . S
H1305 C1313 0.950 . S
H1306 C1311 0.950 . S
H1307 C1312 0.949 . S
H1308 C1314 0.950 1_545 S
H1309 C1315 0.950 . S
H1310 C1316 0.949 . S
C1311 H1306 0.950 . S
C1311 C1313 1.327 . S
C1311 C1317 1.429 . S
C1312 C1304 1.574 . S
C1312 H1307 0.949 . S
C1312 C1318 1.368 . S
C1313 C1297 1.349 . S
C1313 H1305 0.950 . S
C1313 C1311 1.327 . S
C1314 C1302 1.349 . S
C1314 H1308 0.950 1_565 S
C1314 C1315 1.327 . S
C1315 H1309 0.950 . S
C1315 C1314 1.327 . S
C1315 C1319 1.429 . S
C1316 C1299 1.574 . S
C1316 H1310 0.949 . S
C1316 C1320 1.368 . S
C1317 C1298 1.429 . S
C1317 C1311 1.429 . S
C1317 C1318 1.523 . S
C1318 C1299 1.368 . S
C1318 C1312 1.368 . S
C1318 C1317 1.523 . S
C1319 C1303 1.429 . S
C1319 C1315 1.429 . S
C1319 C1320 1.523 . S
C1320 C1304 1.368 . S
C1320 C1316 1.368 . S
C1320 C1319 1.523 . S
H1321 C1296 0.950 . S
H1322 C1298 0.950 . S
H1323 C1299 0.949 . S
H1324 C1301 0.950 . S
H1325 C1303 0.950 . S
C1326 C1327 1.349 1_565 S
C1326 C1328 1.327 1_565 S
C1326 H1351 0.950 . S
C1327 C1326 1.349 1_545 S
C1327 C1343 1.349 . S
C1328 C1326 1.327 1_545 S
C1328 C1347 1.429 . S
C1328 H1352 0.950 . S
C1329 C1346 1.574 . S
C1329 C1348 1.368 . S
C1329 H1353 0.949 . S
H1330 C1334 0.949 1_455 S
C1331 C1332 1.349 . S
C1331 C1333 1.327 . S
C1331 H1354 0.950 . S
C1332 C1331 1.349 . S
C1332 C1344 1.349 . S
C1333 C1331 1.327 . S
C1333 C1349 1.429 . S
C1333 H1355 0.950 . S
C1334 H1330 0.949 1_655 S
C1334 C1342 1.574 . S
C1334 C1350 1.368 . S
H1335 C1343 0.950 . S
H1336 C1341 0.950 . S
H1337 C1342 0.949 . S
H1338 C1344 0.950 . S
H1339 C1345 0.950 . S
H1340 C1346 0.949 . S
C1341 H1336 0.950 . S
C1341 C1343 1.327 . S
C1341 C1347 1.429 . S
C1342 C1334 1.574 . S
C1342 H1337 0.949 . S
C1342 C1348 1.368 . S
C1343 C1327 1.349 . S
C1343 H1335 0.950 . S
C1343 C1341 1.327 . S
C1344 C1332 1.349 . S
C1344 H1338 0.950 . S
C1344 C1345 1.327 . S
C1345 H1339 0.950 . S
C1345 C1344 1.327 . S
C1345 C1349 1.429 . S
C1346 C1329 1.574 . S
C1346 H1340 0.949 . S
C1346 C1350 1.368 . S
C1347 C1328 1.429 . S
C1347 C1341 1.429 . S
C1347 C1348 1.523 . S
C1348 C1329 1.368 . S
C1348 C1342 1.368 . S
C1348 C1347 1.523 . S
C1349 C1333 1.429 . S
C1349 C1345 1.429 . S
C1349 C1350 1.523 1_455 S
C1350 C1334 1.368 . S
C1350 C1346 1.368 . S
C1350 C1349 1.523 1_655 S
H1351 C1326 0.950 . S
H1352 C1328 0.950 . S
H1353 C1329 0.949 . S
H1354 C1331 0.950 . S
H1355 C1333 0.950 . S
C277 C19 1.214 . S
C282 C272 1.225 . S
C307 C223 1.499 1_565 S
C312 C40 1.537 . S
C337 C63 1.249 . S
C342 C201 1.256 . S
C367 C88 1.272 . S
C372 C247 1.276 . S
C397 C108 1.233 . S
C402 C249 1.250 . S
C427 C132 1.357 . S
C432 C270 1.342 . S
C457 C228 1.363 . S
C462 C155 1.328 1_556 S
C487 C180 1.177 . S
C492 C203 1.176 . S
C517 C86 1.073 . S
C522 C113 1.095 . S
C547 C17 1.212 . S
C552 C134 1.192 1_455 S
C577 C42 1.325 1_655 S
C582 C157 1.333 . S
C607 C178 1.185 . S
C612 C65 1.180 . S
C637 C18 0.919 . S
C642 C200 0.916 . S
C667 C44 0.805 . S
C672 C246 0.818 . S
C697 C273 0.757 . S
C702 C67 0.757 . S
C727 C87 0.822 . S
C732 C224 0.821 . S
C757 C111 0.943 . S
C762 C225 0.984 . S
C787 C204 0.869 . S
C792 C136 0.845 1_455 S
C817 C250 0.880 . S
C822 C159 0.870 . S
C847 C269 0.926 . S
C852 C179 0.930 . S
C877 C16 1.155 . S
C882 C90 1.122 . S
C907 C21 0.902 . S
C912 C43 0.927 . S
C937 C41 0.735 . S
C942 C66 0.736 . S
C967 C85 0.829 . S
C972 C64 0.831 1_554 S
C997 C133 0.824 . S
C1002 C110 0.824 . S
C1027 C135 0.813 . S
C1032 C156 0.817 . S
C1057 C158 1.002 . S
C1062 C182 0.988 . S
C1087 C112 0.945 . S
C1092 C177 0.947 . S
C1117 C202 0.875 . S
C1122 C89 0.865 . S
C1147 C131 0.972 . S
C1152 C226 0.935 . S
C1177 C205 1.004 . S
C1182 C154 1.048 . S
C1207 C251 0.846 . S
C1212 C181 0.854 . S
C1237 C109 0.982 . S
C1242 C271 0.984 . S
C1267 C274 0.874 . S
C1272 C39 0.886 . S
C1297 C62 0.858 . S
C1302 C227 0.855 . S
C1327 C248 0.641 1_545 S
C1332 C20 0.653 . S
