# Generated by pormake.
# Topology umy, (4)-cn, num edge types: 1
# Building blocks:
#     Node 0, Type 0, BuildingBlock: AZAVOO_clean_sbu_0, # of connection points: 4
#     Node 1, Type 0, BuildingBlock: AZAVOO_clean_sbu_0, # of connection points: 4
#     Node 2, Type 0, BuildingBlock: AZAVOO_clean_sbu_0, # of connection points: 4
#     Node 3, Type 0, BuildingBlock: AZAVOO_clean_sbu_0, # of connection points: 4
#     Node 4, Type 0, BuildingBlock: AZAVOO_clean_sbu_0, # of connection points: 4
#     Node 5, Type 0, BuildingBlock: AZAVOO_clean_sbu_0, # of connection points: 4
#     Node 6, Type 0, BuildingBlock: AZAVOO_clean_sbu_0, # of connection points: 4
#     Node 7, Type 0, BuildingBlock: AZAVOO_clean_sbu_0, # of connection points: 4
#     Node 8, Type 0, BuildingBlock: AZAVOO_clean_sbu_0, # of connection points: 4
#     Node 9, Type 0, BuildingBlock: AZAVOO_clean_sbu_0, # of connection points: 4
#     Node 10, Type 0, BuildingBlock: AZAVOO_clean_sbu_0, # of connection points: 4
#     Node 11, Type 0, BuildingBlock: AZAVOO_clean_sbu_0, # of connection points: 4
#     Edge 12, Type (0, 0), BuildingBlock: AJUNOK_clean_linker_0, # of connection points: 2
#     Edge 13, Type (0, 0), BuildingBlock: AJUNOK_clean_linker_0, # of connection points: 2
#     Edge 14, Type (0, 0), BuildingBlock: AJUNOK_clean_linker_0, # of connection points: 2
#     Edge 15, Type (0, 0), BuildingBlock: AJUNOK_clean_linker_0, # of connection points: 2
#     Edge 16, Type (0, 0), BuildingBlock: AJUNOK_clean_linker_0, # of connection points: 2
#     Edge 17, Type (0, 0), BuildingBlock: AJUNOK_clean_linker_0, # of connection points: 2
#     Edge 18, Type (0, 0), BuildingBlock: AJUNOK_clean_linker_0, # of connection points: 2
#     Edge 19, Type (0, 0), BuildingBlock: AJUNOK_clean_linker_0, # of connection points: 2
#     Edge 20, Type (0, 0), BuildingBlock: AJUNOK_clean_linker_0, # of connection points: 2
#     Edge 21, Type (0, 0), BuildingBlock: AJUNOK_clean_linker_0, # of connection points: 2
#     Edge 22, Type (0, 0), BuildingBlock: AJUNOK_clean_linker_0, # of connection points: 2
#     Edge 23, Type (0, 0), BuildingBlock: AJUNOK_clean_linker_0, # of connection points: 2
#     Edge 24, Type (0, 0), BuildingBlock: AJUNOK_clean_linker_0, # of connection points: 2
#     Edge 25, Type (0, 0), BuildingBlock: AJUNOK_clean_linker_0, # of connection points: 2
#     Edge 26, Type (0, 0), BuildingBlock: AJUNOK_clean_linker_0, # of connection points: 2
#     Edge 27, Type (0, 0), BuildingBlock: AJUNOK_clean_linker_0, # of connection points: 2
#     Edge 28, Type (0, 0), BuildingBlock: AJUNOK_clean_linker_0, # of connection points: 2
#     Edge 29, Type (0, 0), BuildingBlock: AJUNOK_clean_linker_0, # of connection points: 2
#     Edge 30, Type (0, 0), BuildingBlock: AJUNOK_clean_linker_0, # of connection points: 2
#     Edge 31, Type (0, 0), BuildingBlock: AJUNOK_clean_linker_0, # of connection points: 2
#     Edge 32, Type (0, 0), BuildingBlock: AJUNOK_clean_linker_0, # of connection points: 2
#     Edge 33, Type (0, 0), BuildingBlock: AJUNOK_clean_linker_0, # of connection points: 2
#     Edge 34, Type (0, 0), BuildingBlock: AJUNOK_clean_linker_0, # of connection points: 2
#     Edge 35, Type (0, 0), BuildingBlock: AJUNOK_clean_linker_0, # of connection points: 2
# Relax obj value: 0.132
# Max RMSD: 0.154
# Mean RMSD: 0.154
data_MOF--net-umy--node1-AZAVOO_clean_sbu_0--edge1-AJUNOK_clean_linker_0
_symmetry_space_group_name_H-M    P1
_symmetry_Int_Tables_number       1
_symmetry_cell_setting            triclinic
loop_
_symmetry_equiv_pos_as_xyz
'x, y, z'
_cell_length_a     30.457192
_cell_length_b     30.36505
_cell_length_c     33.169986
_cell_angle_alpha  90.074085
_cell_angle_beta   89.802375
_cell_angle_gamma 119.87379
loop_
_atom_site_label
_atom_site_type_symbol
_atom_site_fract_x
_atom_site_fract_y
_atom_site_fract_z
_atom_type_partial_charge
Mg0 Mg 0.111 0.35846 0.10176 0.0
O1 O 0.14783 0.36891 0.16275 0.0
O2 O 0.23137 0.42017 0.15996 0.0
Mg3 Mg 0.24887 0.4388 0.09245 0.0
C4 C 0.19075 0.39238 0.17969 0.0
C5 C 0.02982 0.28681 0.15991 0.0
O6 O 0.06489 0.27373 0.16064 0.0
O7 O 0.12325 0.43968 0.1051 0.0
O8 O 0.20689 0.48378 0.09501 0.0
O9 O 0.12197 0.29252 0.08822 0.0
O10 O 0.17783 0.3716 0.07265 0.0
C11 C 0.16433 0.48189 0.09976 0.0
C12 C 0.16566 0.32451 0.07317 0.0
O13 O 0.03567 0.32232 0.13613 0.0
Mg14 Mg 0.75016 0.10114 0.267 0.0
O15 O 0.76607 0.13578 0.32962 0.0
O16 O 0.79855 0.21967 0.32616 0.0
Mg17 Mg 0.80124 0.23862 0.25872 0.0
C18 C 0.78318 0.17888 0.34646 0.0
C19 C 0.67023 -0.00073 0.31454 0.0
O20 O 0.63857 0.01671 0.31297 0.0
O21 O 0.67811 0.10762 0.26463 0.0
O22 O 0.71455 0.19176 0.25659 0.0
O23 O 0.83013 0.11836 0.25953 0.0
O24 O 0.80301 0.17013 0.24043 0.0
C25 C 0.6751 0.14775 0.25907 0.0
C26 C 0.83987 0.16121 0.24368 0.0
O27 O 0.71354 0.02398 0.29811 0.0
Mg28 Mg 0.60358 0.72433 0.42347 0.0
O29 O 0.5908 0.74632 0.48609 0.0
O30 O 0.53618 0.77485 0.48521 0.0
Mg31 Mg 0.51094 0.76843 0.41941 0.0
C32 C 0.56568 0.76363 0.50408 0.0
C33 C 0.68591 0.72529 0.47587 0.0
O34 O 0.69362 0.77181 0.4777 0.0
O35 O 0.52769 0.64958 0.42883 0.0
O36 O 0.47654 0.68229 0.42224 0.0
O37 O 0.6616 0.80484 0.40786 0.0
O38 O 0.58028 0.7719 0.396 0.0
C39 C 0.48345 0.64425 0.42546 0.0
C40 C 0.62506 0.81052 0.39401 0.0
O41 O 0.64949 0.69294 0.45433 0.0
Mg42 Mg 0.87783 0.63707 0.58405 0.0
O43 O 0.83991 0.62052 0.6451 0.0
O44 O 0.7563 0.57143 0.64294 0.0
Mg45 Mg 0.74026 0.55341 0.57516 0.0
C46 C 0.79729 0.59677 0.66268 0.0
C47 C 0.95605 0.70816 0.64411 0.0
O48 O 0.91952 0.7192 0.64535 0.0
O49 O 0.86917 0.55768 0.58568 0.0
O50 O 0.78527 0.51128 0.57748 0.0
O51 O 0.86305 0.70111 0.57235 0.0
O52 O 0.81019 0.6219 0.55536 0.0
C53 C 0.82868 0.51479 0.58141 0.0
C54 C 0.82033 0.66835 0.55652 0.0
O55 O 0.95236 0.6745 0.61916 0.0
Mg56 Mg 0.22758 0.87821 0.76668 0.0
O57 O 0.20606 0.83818 0.82694 0.0
O58 O 0.17085 0.7544 0.82048 0.0
Mg59 Mg 0.17234 0.74127 0.75206 0.0
C60 C 0.18634 0.79405 0.84223 0.0
C61 C 0.28818 -0.00486 0.79078 0.0
O62 O 0.29703 0.00295 0.7519 0.0
O63 O 0.29751 0.86868 0.76519 0.0
O64 O 0.25924 0.78518 0.75327 0.0
O65 O 0.14942 0.86518 0.75687 0.0
O66 O 0.17513 0.8129 0.73577 0.0
C67 C 0.29937 0.82822 0.7581 0.0
C68 C 0.13936 0.82355 0.73852 0.0
O69 O 0.26473 0.9501 0.80415 0.0
Mg70 Mg 0.363 0.25261 0.92733 0.0
O71 O 0.37503 0.22154 0.98612 0.0
O72 O 0.43048 0.19459 0.97764 0.0
Mg73 Mg 0.44979 0.20332 0.90997 0.0
C74 C 0.40109 0.2028 0.99992 0.0
C75 C 0.28784 0.25607 0.98745 0.0
O76 O 0.27538 0.20798 0.98747 0.0
O77 O 0.44171 0.3235 0.93332 0.0
O78 O 0.49013 0.289 0.91932 0.0
O79 O 0.30095 0.17514 0.90918 0.0
O80 O 0.38155 0.20646 0.89338 0.0
C81 C 0.48508 0.32734 0.92761 0.0
C82 C 0.33588 0.16946 0.89166 0.0
O83 O 0.32373 0.28658 0.96447 0.0
Mg84 Mg 0.60687 0.86126 0.75576 0.0
O85 O 0.59458 0.8232 0.69449 0.0
O86 O 0.54036 0.74001 0.69894 0.0
Mg87 Mg 0.51447 0.72524 0.76496 0.0
C88 C 0.56976 0.77944 0.67849 0.0
C89 C 0.64379 0.9725 0.71887 0.0
O90 O 0.60297 0.96844 0.73596 0.0
O91 O 0.53092 0.85904 0.74879 0.0
O92 O 0.47876 0.77553 0.75689 0.0
O93 O 0.66497 0.84024 0.77336 0.0
O94 O 0.58351 0.79272 0.78623 0.0
C95 C 0.48635 0.82048 0.75137 0.0
C96 C 0.62836 0.79912 0.78884 0.0
O97 O 0.65326 0.93647 0.72257 0.0
Mg98 Mg 0.75557 0.63635 0.91749 0.0
O99 O 0.77526 0.62077 0.85505 0.0
O100 O 0.80588 0.56781 0.85788 0.0
Mg101 Mg 0.80353 0.5475 0.92495 0.0
C102 C 0.79282 0.59531 0.83795 0.0
C103 C 0.67503 0.66491 0.88149 0.0
O104 O 0.64062 0.62391 0.89997 0.0
O105 O 0.68305 0.55892 0.91644 0.0
O106 O 0.71683 0.5089 0.92452 0.0
O107 O 0.83505 0.69757 0.92906 0.0
O108 O 0.8055 0.61744 0.94564 0.0
C109 C 0.67836 0.51501 0.92124 0.0
C110 C 0.8428 0.66321 0.94517 0.0
O111 O 0.72138 0.67783 0.88489 0.0
Mg112 Mg 0.1077 0.74185 0.09758 0.0
O113 O 0.14371 0.76384 0.0358 0.0
O114 O 0.2277 0.80292 0.03656 0.0
Mg115 Mg 0.24578 0.80143 0.10392 0.0
C116 C 0.18595 0.78488 0.0175 0.0
C117 C 0.02624 0.72928 0.03872 0.0
O118 O 0.06105 0.77746 0.03637 0.0
O119 O 0.1201 0.67341 0.0957 0.0
O120 O 0.20453 0.71408 0.10064 0.0
O121 O 0.11842 0.8192 0.10832 0.0
O122 O 0.17492 0.79739 0.12514 0.0
C123 C 0.16189 0.6731 0.09753 0.0
C124 C 0.16227 0.83196 0.12338 0.0
O125 O 0.03248 0.7011 0.0638 0.0
Mg126 Mg 0.36653 0.11309 0.25422 0.0
O127 O 0.37672 0.14827 0.19155 0.0
O128 O 0.43637 0.22999 0.19337 0.0
Mg129 Mg 0.45937 0.24901 0.25951 0.0
C130 C 0.40445 0.19066 0.17412 0.0
C131 C 0.28619 0.02814 0.20118 0.0
O132 O 0.27475 0.0644 0.19861 0.0
O133 O 0.44302 0.11572 0.24806 0.0
O134 O 0.4958 0.1992 0.25515 0.0
O135 O 0.30729 0.13305 0.27114 0.0
O136 O 0.38859 0.18329 0.28242 0.0
C137 C 0.48773 0.15396 0.25071 0.0
C138 C 0.34314 0.17563 0.28519 0.0
O139 O 0.32312 0.03533 0.22351 0.0
Mg140 Mg 0.21742 0.33006 0.43067 0.0
O141 O 0.19555 0.34624 0.36902 0.0
O142 O 0.17275 0.40535 0.37522 0.0
Mg143 Mg 0.173 0.42144 0.44266 0.0
C144 C 0.18201 0.37605 0.35373 0.0
C145 C 0.29147 0.309 0.37476 0.0
O146 O 0.31792 0.35866 0.37159 0.0
O147 O 0.29078 0.40781 0.42816 0.0
O148 O 0.25855 0.45902 0.4378 0.0
O149 O 0.13846 0.26827 0.44351 0.0
O150 O 0.1667 0.3481 0.46033 0.0
C151 C 0.29608 0.45207 0.43207 0.0
C152 C 0.12963 0.30192 0.45966 0.0
O153 O 0.25205 0.28853 0.39689 0.0
Mg154 Mg 0.8579 0.23792 0.60143 0.0
O155 O 0.82374 0.2115 0.53925 0.0
O156 O 0.7408 0.18349 0.53916 0.0
Mg157 Mg 0.72226 0.19652 0.60373 0.0
C158 C 0.78155 0.19286 0.52103 0.0
C159 C 0.94344 0.23687 0.55147 0.0
O160 O 0.90962 0.18829 0.55288 0.0
O161 O 0.85689 0.31195 0.59094 0.0
O162 O 0.77335 0.28223 0.59406 0.0
O163 O 0.83458 0.15829 0.62122 0.0
O164 O 0.78747 0.19385 0.62948 0.0
C165 C 0.81876 0.31883 0.58987 0.0
C166 C 0.79278 0.15481 0.6341 0.0
O167 O 0.93474 0.2682 0.57049 0.0
C168 C 0.11902 0.57847 0.10842 0.0
C169 C 0.16182 0.62413 0.09619 0.0
C170 C 0.11983 0.53254 0.1094 0.0
C171 C 0.16342 0.5305 0.09803 0.0
H172 H 0.08495 0.57834 0.11813 0.0
H173 H 0.08623 0.49859 0.11961 0.0
S174 S 0.28389 0.63891 0.05963 0.0
N175 N 0.24776 0.66375 0.06978 0.0
N176 N 0.2495 0.57829 0.07147 0.0
C177 C 0.20597 0.57585 0.08461 0.0
C178 C 0.20512 0.62237 0.08371 0.0
C179 C 0.62393 0.18707 0.23837 0.0
C180 C 0.62516 0.14478 0.25442 0.0
C181 C 0.57889 0.18833 0.23587 0.0
C182 C 0.53272 0.14737 0.24915 0.0
H183 H 0.65827 0.22018 0.22806 0.0
H184 H 0.58057 0.22238 0.22399 0.0
S185 S 0.51401 0.02624 0.29168 0.0
N186 N 0.57538 0.05963 0.28222 0.0
N187 N 0.49019 0.06214 0.27742 0.0
C188 C 0.53261 0.10381 0.26375 0.0
C189 C 0.57892 0.10253 0.26642 0.0
C190 C 0.43546 0.55102 0.44361 0.0
C191 C 0.43796 0.59303 0.42337 0.0
C192 C 0.38996 0.504 0.44494 0.0
C193 C 0.34595 0.49798 0.42617 0.0
H194 H 0.46808 0.55507 0.4598 0.0
H195 H 0.38862 0.4731 0.46222 0.0
S196 S 0.33514 0.59319 0.36347 0.0
N197 N 0.39407 0.62295 0.37974 0.0
N198 N 0.30935 0.53557 0.38279 0.0
C199 C 0.34907 0.53866 0.4038 0.0
C200 C 0.3949 0.58595 0.40227 0.0
C201 C 0.78748 0.42203 0.56779 0.0
C202 C 0.83051 0.46679 0.5809 0.0
C203 C 0.78523 0.37507 0.56952 0.0
C204 C 0.82592 0.37044 0.58433 0.0
H205 H 0.75453 0.42283 0.55655 0.0
H206 H 0.75069 0.34189 0.55969 0.0
S207 S 0.94878 0.476 0.62029 0.0
N208 N 0.91606 0.50383 0.60755 0.0
N209 N 0.91176 0.41494 0.61068 0.0
C210 C 0.87017 0.41497 0.59602 0.0
C211 C 0.87247 0.46323 0.59437 0.0
C212 C 0.39407 0.78384 0.74046 0.0
C213 C 0.44104 0.82658 0.74958 0.0
C214 C 0.34919 0.78543 0.74284 0.0
C215 C 0.34888 0.82988 0.75452 0.0
H216 H 0.39161 0.74821 0.73193 0.0
H217 H 0.31432 0.75092 0.73583 0.0
S218 S 0.46226 0.95352 0.7795 0.0
N219 N 0.48516 0.9156 0.76914 0.0
N220 N 0.40033 0.91882 0.77358 0.0
C221 C 0.3958 0.87365 0.76246 0.0
C222 C 0.44194 0.87201 0.75992 0.0
C223 C 0.57747 0.37835 0.93933 0.0
C224 C 0.53204 0.37722 0.92967 0.0
C225 C 0.62394 0.42313 0.93691 0.0
C226 C 0.62739 0.46911 0.9246 0.0
H227 H 0.57735 0.34399 0.94831 0.0
H228 H 0.65752 0.42122 0.94446 0.0
S229 S 0.5191 0.48709 0.89742 0.0
N230 N 0.4927 0.42612 0.90863 0.0
N231 N 0.58058 0.51098 0.90392 0.0
C232 C 0.58203 0.46901 0.91601 0.0
C233 C 0.53426 0.42298 0.91866 0.0
C234 C 0.23935 0.34049 0.02964 0.0
C235 C 0.19951 0.3076 0.05531 0.0
C236 C 0.26843 0.32389 1.00859 0.0
C237 C 0.25901 0.27377 0.01243 0.0
H238 H 0.24717 0.37897 0.02463 0.0
H239 H 0.29773 0.35035 0.98839 0.0
S240 S 0.16307 0.17443 0.07983 0.0
N241 N 0.15497 0.22385 0.08612 0.0
N242 N 0.20965 0.19264 0.04686 0.0
C243 C 0.22082 0.24117 0.03954 0.0
C244 C 0.1911 0.25809 0.06088 0.0
C245 C 0.89519 0.23369 0.19836 0.0
C246 C 0.89044 0.19729 0.22698 0.0
C247 C 0.94083 0.26372 0.17771 0.0
C248 C 0.98354 0.25866 0.18497 0.0
H249 H 0.86284 0.23766 0.19055 0.0
H250 H 0.94202 0.28984 0.15492 0.0
S251 S -0.00679 0.1748 0.26179 0.0
N252 N 0.93384 0.16186 0.26472 0.0
N253 N 0.01981 0.21861 0.22645 0.0
C254 C 0.98018 0.22462 0.21537 0.0
C255 C 0.93359 0.19388 0.23621 0.0
C256 C 0.68372 0.90159 0.37606 0.0
C257 C 0.63453 0.85922 0.37579 0.0
C258 C 0.69472 0.94685 0.35648 0.0
C259 C 0.65682 0.95181 0.33636 0.0
H260 H 0.71433 0.89965 0.39094 0.0
H261 H 0.73328 0.97823 0.3571 0.0
S262 S 0.52229 0.85249 0.3255 0.0
N263 N 0.54779 0.82516 0.35219 0.0
N264 N 0.56844 0.91101 0.317 0.0
C265 C 0.60738 0.91037 0.33638 0.0
C266 C 0.59623 0.86385 0.35564 0.0
C267 C 0.70895 0.66075 0.499 0.0
C268 C 0.71949 0.71141 0.49831 0.0
C269 C 0.74095 0.64706 0.5189 0.0
C270 C 0.7849 0.68342 0.53898 0.0
H271 H 0.67597 0.63135 0.48367 0.0
H272 H 0.73155 0.60768 0.51769 0.0
S273 S 0.82899 0.82118 0.54746 0.0
N274 N 0.77666 0.79808 0.52057 0.0
N275 N 0.83651 0.77223 0.55784 0.0
C276 C 0.79538 0.73407 0.53928 0.0
C277 C 0.76279 0.74807 0.51902 0.0
C278 C 0.04133 0.72582 0.66796 0.0
C279 C 0.00063 0.73514 0.671 0.0
C280 C 0.08507 0.75308 0.69128 0.0
C281 C 0.09001 0.79093 0.71854 0.0
H282 H 0.04002 0.69802 0.64675 0.0
H283 H 0.1159 0.74548 0.6868 0.0
S284 S -0.00785 0.82617 0.74137 0.0
N285 N 0.96644 0.78213 0.70618 0.0
N286 N 0.04878 0.83343 0.74959 0.0
C287 C 0.04877 0.79909 0.72323 0.0
C288 C 0.00408 0.77122 0.6996 0.0
C289 C 0.34154 0.08663 0.80895 0.0
C290 C 0.30129 0.03817 0.81846 0.0
C291 C 0.35326 0.12843 0.8337 0.0
C292 C 0.32427 0.12356 0.86832 0.0
H293 H 0.36421 0.0924 0.7821 0.0
H294 H 0.38437 0.16517 0.82496 0.0
S295 S 0.21567 0.00479 0.90725 0.0
N296 N 0.23329 0.98732 0.86588 0.0
N297 N 0.25457 0.06653 0.91159 0.0
C298 C 0.28422 0.07537 0.87845 0.0
C299 C 0.27292 0.03244 0.85378 0.0
C300 C 0.69772 0.73524 0.83205 0.0
C301 C 0.66085 0.69639 0.85651 0.0
C302 C 0.68643 0.76718 0.80935 0.0
C303 C 0.63784 0.76171 0.81015 0.0
H304 H 0.73595 0.74152 0.83061 0.0
H305 H 0.7164 0.79693 0.79155 0.0
S306 S 0.52728 0.66528 0.86877 0.0
N307 N 0.57329 0.65342 0.87934 0.0
N308 N 0.55218 0.71388 0.83736 0.0
C309 C 0.60025 0.72236 0.8339 0.0
C310 C 0.61173 0.68962 0.85686 0.0
C311 C 0.93172 0.72707 0.96337 0.0
C312 C 0.89134 0.67687 0.96543 0.0
C313 C 0.97547 0.74305 0.98644 0.0
C314 C 0.98072 0.70954 0.01274 0.0
H315 H 0.92911 0.75485 0.94457 0.0
H316 H 0.00489 0.78245 0.98421 0.0
S317 S 0.88783 0.57276 0.02686 0.0
N318 N 0.86072 0.5927 0.99427 0.0
N319 N 0.94321 0.62278 0.03731 0.0
C320 C 0.94166 0.65864 0.01381 0.0
C321 C 0.89694 0.64226 0.99026 0.0
C322 C 0.26637 0.93962 0.18373 0.0
C323 C 0.256 0.97959 0.1789 0.0
C324 C 0.23699 0.8927 0.1645 0.0
C325 C 0.19588 0.88367 0.13972 0.0
H326 H 0.29692 0.94416 0.2031 0.0
H327 H 0.24582 0.86283 0.17009 0.0
S328 S 0.15551 0.97714 0.11395 0.0
N329 N 0.20355 0.00793 0.14503 0.0
N330 N 0.14842 0.91985 0.10921 0.0
C331 C 0.18612 0.92382 0.13346 0.0
C332 C 0.21612 0.97169 0.15294 0.0
C333 C 0.28076 0.19952 0.31196 0.0
C334 C 0.33159 0.21227 0.30598 0.0
C335 C 0.26814 0.23085 0.33443 0.0
C336 C 0.30583 0.27674 0.35114 0.0
H337 H 0.25022 0.16447 0.29989 0.0
H338 H 0.2285 0.21917 0.33851 0.0
S339 S 0.44437 0.32797 0.34536 0.0
N340 N 0.41981 0.27403 0.32011 0.0
N341 N 0.39579 0.33369 0.36054 0.0
C342 C 0.35667 0.29061 0.34495 0.0
C343 C 0.36963 0.25819 0.32286 0.0
C344 C 0.05017 0.23552 0.49277 0.0
C345 C 0.08047 0.28634 0.48031 0.0
C346 C 0.006 0.21993 0.51562 0.0
C347 C -0.00984 0.2545 0.52703 0.0
H348 H 0.06128 0.20757 0.48576 0.0
H349 H 0.98461 0.18057 0.52496 0.0
S350 S 0.05193 0.39041 0.49808 0.0
N351 N 0.08855 0.37012 0.47853 0.0
N352 N 0.00575 0.34088 0.52128 0.0
C353 C 0.01897 0.30498 0.51371 0.0
C354 C 0.06401 0.32088 0.49042 0.0
C355 C 0.75518 0.06311 0.65316 0.0
C356 C 0.75263 0.10806 0.65393 0.0
C357 C 0.71943 0.01944 0.67372 0.0
C358 C 0.67959 0.01883 0.69599 0.0
H359 H 0.78531 0.06166 0.63685 0.0
H360 H 0.72342 0.98596 0.67231 0.0
S361 S 0.65608 0.12691 0.70809 0.0
N362 N 0.70704 0.14941 0.67931 0.0
N363 N 0.63971 0.06729 0.71733 0.0
C364 C 0.67618 0.06333 0.69659 0.0
C365 C 0.71269 0.1079 0.67576 0.0
C366 C 0.16165 0.33727 0.28507 0.0
C367 C 0.18325 0.38088 0.30947 0.0
C368 C 0.16496 0.34131 0.24291 0.0
C369 C 0.19179 0.38898 0.22391 0.0
H370 H 0.14154 0.29987 0.29865 0.0
H371 H 0.14659 0.30692 0.22502 0.0
S372 S 0.25627 0.5144 0.27431 0.0
N373 N 0.23233 0.47309 0.31169 0.0
N374 N 0.24033 0.48044 0.23246 0.0
C375 C 0.21434 0.43274 0.24796 0.0
C376 C 0.20959 0.42873 0.29078 0.0
C377 C 0.82193 0.22438 0.45385 0.0
C378 C 0.7815 0.18707 0.4768 0.0
C379 C 0.82212 0.22176 0.41166 0.0
C380 C 0.78264 0.18093 0.39098 0.0
H381 H 0.85315 0.25657 0.46858 0.0
H382 H 0.8536 0.25165 0.39514 0.0
S383 S 0.66888 0.07256 0.43709 0.0
N384 N 0.70123 0.108 0.47584 0.0
N385 N 0.70234 0.10189 0.39657 0.0
C386 C 0.74248 0.14279 0.41362 0.0
C387 C 0.74168 0.1462 0.45652 0.0
C388 C 0.56835 0.81207 0.60998 0.0
C389 C 0.57132 0.77564 0.63423 0.0
C390 C 0.56642 0.80796 0.56784 0.0
C391 C 0.56895 0.7681 0.54848 0.0
H392 H 0.56608 0.84327 0.62374 0.0
H393 H 0.5632 0.83629 0.55031 0.0
S394 S 0.57925 0.66422 0.59837 0.0
N395 N 0.57742 0.69895 0.63602 0.0
N396 N 0.57584 0.6921 0.55672 0.0
C397 C 0.57328 0.73215 0.5724 0.0
C398 C 0.57386 0.73563 0.61532 0.0
C399 C 0.75492 0.59248 0.72872 0.0
C400 C 0.79666 0.59645 0.70736 0.0
C401 C 0.75442 0.59283 0.77104 0.0
C402 C 0.79496 0.59568 0.79346 0.0
H403 H 0.72278 0.58984 0.71267 0.0
H404 H 0.72166 0.59009 0.78637 0.0
S405 S 0.91303 0.60637 0.75216 0.0
N406 N 0.87991 0.60372 0.71201 0.0
N407 N 0.87787 0.60277 0.79141 0.0
C408 C 0.83662 0.5991 0.77257 0.0
C409 C 0.83775 0.59996 0.72956 0.0
C410 C 0.22615 0.82706 0.90929 0.0
C411 C 0.18519 0.79009 0.8867 0.0
C412 C 0.22662 0.8248 0.95151 0.0
C413 C 0.18554 0.78618 0.97279 0.0
H414 H 0.25847 0.85778 0.89414 0.0
H415 H 0.25901 0.85396 0.96758 0.0
S416 S 0.06849 0.68086 0.92771 0.0
N417 N 0.10259 0.71391 0.88856 0.0
N418 N 0.10248 0.71001 0.9679 0.0
C419 C 0.14409 0.74914 0.95048 0.0
C420 C 0.14419 0.75094 0.90746 0.0
C421 C 0.44758 0.21716 0.1073 0.0
C422 C 0.40234 0.19294 0.12976 0.0
C423 C 0.44683 0.21794 0.06503 0.0
C424 C 0.40082 0.1957 0.04389 0.0
H425 H 0.48382 0.23508 0.1225 0.0
H426 H 0.48248 0.2375 0.04883 0.0
S427 S 0.27204 0.12765 0.08852 0.0
N428 N 0.31039 0.14525 0.12775 0.0
N429 N 0.309 0.1487 0.04831 0.0
C430 C 0.35535 0.17149 0.06595 0.0
C431 C 0.35612 0.16952 0.10891 0.0
loop_
_geom_bond_atom_site_label_1
_geom_bond_atom_site_label_2
_geom_bond_distance
_geom_bond_site_symmetry_2
_ccdc_geom_bond_type
Mg0 O1 2.028 . S
Mg0 O7 1.986 . S
Mg0 O9 2.114 . S
Mg0 O10 2.251 . S
Mg0 O13 2.010 . S
O1 Mg0 2.028 . S
O1 C4 1.250 . S
O2 Mg3 2.028 . S
O2 C4 1.248 . S
Mg3 O2 2.028 . S
Mg3 O8 2.032 . S
Mg3 O10 2.079 . S
C4 O1 1.250 . S
C4 O2 1.248 . S
C5 O6 1.264 . S
C5 O13 1.249 1_655 S
O6 C5 1.264 . S
O7 Mg0 1.986 . S
O7 C11 1.246 . S
O8 Mg3 2.032 . S
O8 C11 1.259 . S
O9 Mg0 2.114 . S
O9 C12 1.252 . S
O10 Mg0 2.251 . S
O10 Mg3 2.079 . S
O10 C12 1.273 . S
C11 O7 1.246 . S
C11 O8 1.259 . S
C12 O9 1.252 . S
C12 O10 1.273 . S
O13 Mg0 2.010 . S
O13 C5 1.249 1_455 S
Mg14 O15 2.028 . S
Mg14 O21 1.986 . S
Mg14 O23 2.114 . S
Mg14 O24 2.251 . S
Mg14 O27 2.010 . S
O15 Mg14 2.028 . S
O15 C18 1.250 . S
O16 Mg17 2.028 . S
O16 C18 1.248 . S
Mg17 O16 2.028 . S
Mg17 O22 2.032 . S
Mg17 O24 2.079 . S
C18 O15 1.250 . S
C18 O16 1.248 . S
C19 O20 1.264 . S
C19 O27 1.249 1_565 S
O20 C19 1.264 . S
O21 Mg14 1.986 . S
O21 C25 1.246 . S
O22 Mg17 2.032 . S
O22 C25 1.259 . S
O23 Mg14 2.114 . S
O23 C26 1.252 . S
O24 Mg14 2.251 . S
O24 Mg17 2.079 . S
O24 C26 1.273 . S
C25 O21 1.246 . S
C25 O22 1.259 . S
C26 O23 1.252 . S
C26 O24 1.273 . S
O27 Mg14 2.010 . S
O27 C19 1.249 1_545 S
Mg28 O29 2.028 . S
Mg28 O35 1.986 . S
Mg28 O37 2.114 . S
Mg28 O38 2.251 . S
Mg28 O41 2.010 . S
O29 Mg28 2.028 . S
O29 C32 1.250 . S
O30 Mg31 2.028 . S
O30 C32 1.248 . S
Mg31 O30 2.028 . S
Mg31 O36 2.032 . S
Mg31 O38 2.079 . S
C32 O29 1.250 . S
C32 O30 1.248 . S
C33 O34 1.264 . S
C33 O41 1.249 . S
O34 C33 1.264 . S
O35 Mg28 1.986 . S
O35 C39 1.246 . S
O36 Mg31 2.032 . S
O36 C39 1.259 . S
O37 Mg28 2.114 . S
O37 C40 1.252 . S
O38 Mg28 2.251 . S
O38 Mg31 2.079 . S
O38 C40 1.273 . S
C39 O35 1.246 . S
C39 O36 1.259 . S
C40 O37 1.252 . S
C40 O38 1.273 . S
O41 Mg28 2.010 . S
O41 C33 1.249 . S
Mg42 O43 2.028 . S
Mg42 O49 1.986 . S
Mg42 O51 2.114 . S
Mg42 O52 2.251 . S
Mg42 O55 2.010 . S
O43 Mg42 2.028 . S
O43 C46 1.250 . S
O44 Mg45 2.028 . S
O44 C46 1.248 . S
Mg45 O44 2.028 . S
Mg45 O50 2.032 . S
Mg45 O52 2.079 . S
C46 O43 1.250 . S
C46 O44 1.248 . S
C47 O48 1.264 . S
C47 O55 1.249 1_455 S
O48 C47 1.264 . S
O49 Mg42 1.986 . S
O49 C53 1.246 . S
O50 Mg45 2.032 . S
O50 C53 1.259 . S
O51 Mg42 2.114 . S
O51 C54 1.252 . S
O52 Mg42 2.251 . S
O52 Mg45 2.079 . S
O52 C54 1.273 . S
C53 O49 1.246 . S
C53 O50 1.259 . S
C54 O51 1.252 . S
C54 O52 1.273 . S
O55 Mg42 2.010 . S
O55 C47 1.249 1_655 S
Mg56 O57 2.028 . S
Mg56 O63 1.986 . S
Mg56 O65 2.114 . S
Mg56 O66 2.251 . S
Mg56 O69 2.010 . S
O57 Mg56 2.028 . S
O57 C60 1.250 . S
O58 Mg59 2.028 . S
O58 C60 1.248 . S
Mg59 O58 2.028 . S
Mg59 O64 2.032 . S
Mg59 O66 2.079 . S
C60 O57 1.250 . S
C60 O58 1.248 . S
C61 O62 1.264 . S
C61 O69 1.249 1_545 S
O62 C61 1.264 . S
O63 Mg56 1.986 . S
O63 C67 1.246 . S
O64 Mg59 2.032 . S
O64 C67 1.259 . S
O65 Mg56 2.114 . S
O65 C68 1.252 . S
O66 Mg56 2.251 . S
O66 Mg59 2.079 . S
O66 C68 1.273 . S
C67 O63 1.246 . S
C67 O64 1.259 . S
C68 O65 1.252 . S
C68 O66 1.273 . S
O69 Mg56 2.010 . S
O69 C61 1.249 1_565 S
Mg70 O71 2.028 . S
Mg70 O77 1.986 . S
Mg70 O79 2.114 . S
Mg70 O80 2.251 . S
Mg70 O83 2.010 . S
O71 Mg70 2.028 . S
O71 C74 1.250 1_556 S
O72 Mg73 2.028 . S
O72 C74 1.248 1_556 S
Mg73 O72 2.028 . S
Mg73 O78 2.032 . S
Mg73 O80 2.079 . S
C74 O71 1.250 1_554 S
C74 O72 1.248 1_554 S
C75 O76 1.264 . S
C75 O83 1.249 . S
O76 C75 1.264 . S
O77 Mg70 1.986 . S
O77 C81 1.246 . S
O78 Mg73 2.032 . S
O78 C81 1.259 . S
O79 Mg70 2.114 . S
O79 C82 1.252 . S
O80 Mg70 2.251 . S
O80 Mg73 2.079 . S
O80 C82 1.273 . S
C81 O77 1.246 . S
C81 O78 1.259 . S
C82 O79 1.252 . S
C82 O80 1.273 . S
O83 Mg70 2.010 . S
O83 C75 1.249 . S
Mg84 O85 2.028 . S
Mg84 O91 1.986 . S
Mg84 O93 2.114 . S
Mg84 O94 2.251 . S
Mg84 O97 2.010 . S
O85 Mg84 2.028 . S
O85 C88 1.250 . S
O86 Mg87 2.028 . S
O86 C88 1.248 . S
Mg87 O86 2.028 . S
Mg87 O92 2.032 . S
Mg87 O94 2.079 . S
C88 O85 1.250 . S
C88 O86 1.248 . S
C89 O90 1.264 . S
C89 O97 1.249 1_545 S
O90 C89 1.264 . S
O91 Mg84 1.986 . S
O91 C95 1.246 . S
O92 Mg87 2.032 . S
O92 C95 1.259 . S
O93 Mg84 2.114 . S
O93 C96 1.252 . S
O94 Mg84 2.251 . S
O94 Mg87 2.079 . S
O94 C96 1.273 . S
C95 O91 1.246 . S
C95 O92 1.259 . S
C96 O93 1.252 . S
C96 O94 1.273 . S
O97 Mg84 2.010 . S
O97 C89 1.249 1_565 S
Mg98 O99 2.028 . S
Mg98 O105 1.986 . S
Mg98 O107 2.114 . S
Mg98 O108 2.251 . S
Mg98 O111 2.010 . S
O99 Mg98 2.028 . S
O99 C102 1.250 . S
O100 Mg101 2.028 . S
O100 C102 1.248 . S
Mg101 O100 2.028 . S
Mg101 O106 2.032 . S
Mg101 O108 2.079 . S
C102 O99 1.250 . S
C102 O100 1.248 . S
C103 O104 1.264 . S
C103 O111 1.249 . S
O104 C103 1.264 . S
O105 Mg98 1.986 . S
O105 C109 1.246 . S
O106 Mg101 2.032 . S
O106 C109 1.259 . S
O107 Mg98 2.114 . S
O107 C110 1.252 . S
O108 Mg98 2.251 . S
O108 Mg101 2.079 . S
O108 C110 1.273 . S
C109 O105 1.246 . S
C109 O106 1.259 . S
C110 O107 1.252 . S
C110 O108 1.273 . S
O111 Mg98 2.010 . S
O111 C103 1.249 . S
Mg112 O113 2.028 . S
Mg112 O119 1.986 . S
Mg112 O121 2.114 . S
Mg112 O122 2.251 . S
Mg112 O125 2.010 . S
O113 Mg112 2.028 . S
O113 C116 1.250 1_554 S
O114 Mg115 2.028 . S
O114 C116 1.248 1_554 S
Mg115 O114 2.028 . S
Mg115 O120 2.032 . S
Mg115 O122 2.079 . S
C116 O113 1.250 1_556 S
C116 O114 1.248 1_556 S
C117 O118 1.264 . S
C117 O125 1.249 1_655 S
O118 C117 1.264 . S
O119 Mg112 1.986 . S
O119 C123 1.246 . S
O120 Mg115 2.032 . S
O120 C123 1.259 . S
O121 Mg112 2.114 . S
O121 C124 1.252 . S
O122 Mg112 2.251 . S
O122 Mg115 2.079 . S
O122 C124 1.273 . S
C123 O119 1.246 . S
C123 O120 1.259 . S
C124 O121 1.252 . S
C124 O122 1.273 . S
O125 Mg112 2.010 . S
O125 C117 1.249 1_455 S
Mg126 O127 2.028 . S
Mg126 O133 1.986 . S
Mg126 O135 2.114 . S
Mg126 O136 2.251 . S
Mg126 O139 2.010 . S
O127 Mg126 2.028 . S
O127 C130 1.250 . S
O128 Mg129 2.028 . S
O128 C130 1.248 . S
Mg129 O128 2.028 . S
Mg129 O134 2.032 . S
Mg129 O136 2.079 . S
C130 O127 1.250 . S
C130 O128 1.248 . S
C131 O132 1.264 . S
C131 O139 1.249 1_565 S
O132 C131 1.264 . S
O133 Mg126 1.986 . S
O133 C137 1.246 . S
O134 Mg129 2.032 . S
O134 C137 1.259 . S
O135 Mg126 2.114 . S
O135 C138 1.252 . S
O136 Mg126 2.251 . S
O136 Mg129 2.079 . S
O136 C138 1.273 . S
C137 O133 1.246 . S
C137 O134 1.259 . S
C138 O135 1.252 . S
C138 O136 1.273 . S
O139 Mg126 2.010 . S
O139 C131 1.249 1_545 S
Mg140 O141 2.028 . S
Mg140 O147 1.986 . S
Mg140 O149 2.114 . S
Mg140 O150 2.251 . S
Mg140 O153 2.010 . S
O141 Mg140 2.028 . S
O141 C144 1.250 . S
O142 Mg143 2.028 . S
O142 C144 1.248 . S
Mg143 O142 2.028 . S
Mg143 O148 2.032 . S
Mg143 O150 2.079 . S
C144 O141 1.250 . S
C144 O142 1.248 . S
C145 O146 1.264 . S
C145 O153 1.249 . S
O146 C145 1.264 . S
O147 Mg140 1.986 . S
O147 C151 1.246 . S
O148 Mg143 2.032 . S
O148 C151 1.259 . S
O149 Mg140 2.114 . S
O149 C152 1.252 . S
O150 Mg140 2.251 . S
O150 Mg143 2.079 . S
O150 C152 1.273 . S
C151 O147 1.246 . S
C151 O148 1.259 . S
C152 O149 1.252 . S
C152 O150 1.273 . S
O153 Mg140 2.010 . S
O153 C145 1.249 . S
Mg154 O155 2.028 . S
Mg154 O161 1.986 . S
Mg154 O163 2.114 . S
Mg154 O164 2.251 . S
Mg154 O167 2.010 . S
O155 Mg154 2.028 . S
O155 C158 1.250 . S
O156 Mg157 2.028 . S
O156 C158 1.248 . S
Mg157 O156 2.028 . S
Mg157 O162 2.032 . S
Mg157 O164 2.079 . S
C158 O155 1.250 . S
C158 O156 1.248 . S
C159 O160 1.264 . S
C159 O167 1.249 1_455 S
O160 C159 1.264 . S
O161 Mg154 1.986 . S
O161 C165 1.246 . S
O162 Mg157 2.032 . S
O162 C165 1.259 . S
O163 Mg154 2.114 . S
O163 C166 1.252 . S
O164 Mg154 2.251 . S
O164 Mg157 2.079 . S
O164 C166 1.273 . S
C165 O161 1.246 . S
C165 O162 1.259 . S
C166 O163 1.252 . S
C166 O164 1.273 . S
O167 Mg154 2.010 . S
O167 C159 1.249 1_655 S
C168 C169 1.369 . S
C168 C170 1.419 . S
C168 H172 0.930 . S
C169 C168 1.369 . S
C169 C178 1.429 . S
C170 C168 1.419 . S
C170 C171 1.363 . S
C170 H173 0.929 . S
C171 C170 1.363 . S
C171 C177 1.428 . S
H172 C168 0.930 . S
H173 C170 0.929 . S
S174 N175 1.613 1_556 S
S174 N176 1.610 1_556 S
N175 S174 1.613 1_554 S
N175 C178 1.350 . S
N176 S174 1.610 1_554 S
N176 C177 1.351 . S
C177 C171 1.428 . S
C177 N176 1.351 . S
C177 C178 1.434 . S
C178 C169 1.429 . S
C178 N175 1.350 . S
C178 C177 1.434 . S
C179 C180 1.369 . S
C179 C181 1.419 . S
C179 H183 0.930 . S
C180 C179 1.369 . S
C180 C189 1.429 . S
C181 C179 1.419 . S
C181 C182 1.363 . S
C181 H184 0.929 . S
C182 C181 1.363 . S
C182 C188 1.428 . S
H183 C179 0.930 . S
H184 C181 0.929 . S
S185 N186 1.613 . S
S185 N187 1.610 . S
N186 S185 1.613 . S
N186 C189 1.350 . S
N187 S185 1.610 . S
N187 C188 1.351 . S
C188 C182 1.428 . S
C188 N187 1.351 . S
C188 C189 1.434 . S
C189 C180 1.429 . S
C189 N186 1.350 . S
C189 C188 1.434 . S
C190 C191 1.369 . S
C190 C192 1.419 . S
C190 H194 0.930 . S
C191 C190 1.369 . S
C191 C200 1.429 . S
C192 C190 1.419 . S
C192 C193 1.363 . S
C192 H195 0.929 . S
C193 C192 1.363 . S
C193 C199 1.428 . S
H194 C190 0.930 . S
H195 C192 0.929 . S
S196 N197 1.613 . S
S196 N198 1.610 . S
N197 S196 1.613 . S
N197 C200 1.350 . S
N198 S196 1.610 . S
N198 C199 1.351 . S
C199 C193 1.428 . S
C199 N198 1.351 . S
C199 C200 1.434 . S
C200 C191 1.429 . S
C200 N197 1.350 . S
C200 C199 1.434 . S
C201 C202 1.369 . S
C201 C203 1.419 . S
C201 H205 0.930 . S
C202 C201 1.369 . S
C202 C211 1.429 . S
C203 C201 1.419 . S
C203 C204 1.363 . S
C203 H206 0.929 . S
C204 C203 1.363 . S
C204 C210 1.428 . S
H205 C201 0.930 . S
H206 C203 0.929 . S
S207 N208 1.613 . S
S207 N209 1.610 . S
N208 S207 1.613 . S
N208 C211 1.350 . S
N209 S207 1.610 . S
N209 C210 1.351 . S
C210 C204 1.428 . S
C210 N209 1.351 . S
C210 C211 1.434 . S
C211 C202 1.429 . S
C211 N208 1.350 . S
C211 C210 1.434 . S
C212 C213 1.369 . S
C212 C214 1.419 . S
C212 H216 0.930 . S
C213 C212 1.369 . S
C213 C222 1.429 . S
C214 C212 1.419 . S
C214 C215 1.363 . S
C214 H217 0.929 . S
C215 C214 1.363 . S
C215 C221 1.428 . S
H216 C212 0.930 . S
H217 C214 0.929 . S
S218 N219 1.613 . S
S218 N220 1.610 . S
N219 S218 1.613 . S
N219 C222 1.350 . S
N220 S218 1.610 . S
N220 C221 1.351 . S
C221 C215 1.428 . S
C221 N220 1.351 . S
C221 C222 1.434 . S
C222 C213 1.429 . S
C222 N219 1.350 . S
C222 C221 1.434 . S
C223 C224 1.369 . S
C223 C225 1.419 . S
C223 H227 0.930 . S
C224 C223 1.369 . S
C224 C233 1.429 . S
C225 C223 1.419 . S
C225 C226 1.363 . S
C225 H228 0.929 . S
C226 C225 1.363 . S
C226 C232 1.428 . S
H227 C223 0.930 . S
H228 C225 0.929 . S
S229 N230 1.613 . S
S229 N231 1.610 . S
N230 S229 1.613 . S
N230 C233 1.350 . S
N231 S229 1.610 . S
N231 C232 1.351 . S
C232 C226 1.428 . S
C232 N231 1.351 . S
C232 C233 1.434 . S
C233 C224 1.429 . S
C233 N230 1.350 . S
C233 C232 1.434 . S
C234 C235 1.369 . S
C234 C236 1.419 . S
C234 H238 0.930 . S
C235 C234 1.369 . S
C235 C244 1.429 . S
C236 C234 1.419 . S
C236 C237 1.363 . S
C236 H239 0.929 1_554 S
C237 C236 1.363 . S
C237 C243 1.428 . S
H238 C234 0.930 . S
H239 C236 0.929 1_556 S
S240 N241 1.613 . S
S240 N242 1.610 . S
N241 S240 1.613 . S
N241 C244 1.350 . S
N242 S240 1.610 . S
N242 C243 1.351 . S
C243 C237 1.428 . S
C243 N242 1.351 . S
C243 C244 1.434 . S
C244 C235 1.429 . S
C244 N241 1.350 . S
C244 C243 1.434 . S
C245 C246 1.369 . S
C245 C247 1.419 . S
C245 H249 0.930 . S
C246 C245 1.369 . S
C246 C255 1.429 . S
C247 C245 1.419 . S
C247 C248 1.363 . S
C247 H250 0.929 . S
C248 C247 1.363 . S
C248 C254 1.428 . S
H249 C245 0.930 . S
H250 C247 0.929 . S
S251 N252 1.613 . S
S251 N253 1.610 . S
N252 S251 1.613 . S
N252 C255 1.350 . S
N253 S251 1.610 . S
N253 C254 1.351 . S
C254 C248 1.428 . S
C254 N253 1.351 . S
C254 C255 1.434 . S
C255 C246 1.429 . S
C255 N252 1.350 . S
C255 C254 1.434 . S
C256 C257 1.369 . S
C256 C258 1.419 . S
C256 H260 0.930 . S
C257 C256 1.369 . S
C257 C266 1.429 . S
C258 C256 1.419 . S
C258 C259 1.363 . S
C258 H261 0.929 . S
C259 C258 1.363 . S
C259 C265 1.428 . S
H260 C256 0.930 . S
H261 C258 0.929 . S
S262 N263 1.613 . S
S262 N264 1.610 . S
N263 S262 1.613 . S
N263 C266 1.350 . S
N264 S262 1.610 . S
N264 C265 1.351 . S
C265 C259 1.428 . S
C265 N264 1.351 . S
C265 C266 1.434 . S
C266 C257 1.429 . S
C266 N263 1.350 . S
C266 C265 1.434 . S
C267 C268 1.369 . S
C267 C269 1.419 . S
C267 H271 0.930 . S
C268 C267 1.369 . S
C268 C277 1.429 . S
C269 C267 1.419 . S
C269 C270 1.363 . S
C269 H272 0.929 . S
C270 C269 1.363 . S
C270 C276 1.428 . S
H271 C267 0.930 . S
H272 C269 0.929 . S
S273 N274 1.613 . S
S273 N275 1.610 . S
N274 S273 1.613 . S
N274 C277 1.350 . S
N275 S273 1.610 . S
N275 C276 1.351 . S
C276 C270 1.428 . S
C276 N275 1.351 . S
C276 C277 1.434 . S
C277 C268 1.429 . S
C277 N274 1.350 . S
C277 C276 1.434 . S
C278 C279 1.369 . S
C278 C280 1.419 . S
C278 H282 0.930 . S
C279 C278 1.369 . S
C279 C288 1.429 . S
C280 C278 1.419 . S
C280 C281 1.363 . S
C280 H283 0.929 . S
C281 C280 1.363 . S
C281 C287 1.428 . S
H282 C278 0.930 . S
H283 C280 0.929 . S
S284 N285 1.613 . S
S284 N286 1.610 . S
N285 S284 1.613 . S
N285 C288 1.350 . S
N286 S284 1.610 . S
N286 C287 1.351 . S
C287 C281 1.428 . S
C287 N286 1.351 . S
C287 C288 1.434 . S
C288 C279 1.429 . S
C288 N285 1.350 . S
C288 C287 1.434 . S
C289 C290 1.369 . S
C289 C291 1.419 . S
C289 H293 0.930 . S
C290 C289 1.369 . S
C290 C299 1.429 . S
C291 C289 1.419 . S
C291 C292 1.363 . S
C291 H294 0.929 . S
C292 C291 1.363 . S
C292 C298 1.428 . S
H293 C289 0.930 . S
H294 C291 0.929 . S
S295 N296 1.613 . S
S295 N297 1.610 . S
N296 S295 1.613 . S
N296 C299 1.350 . S
N297 S295 1.610 . S
N297 C298 1.351 . S
C298 C292 1.428 . S
C298 N297 1.351 . S
C298 C299 1.434 . S
C299 C290 1.429 . S
C299 N296 1.350 . S
C299 C298 1.434 . S
C300 C301 1.369 . S
C300 C302 1.419 . S
C300 H304 0.930 . S
C301 C300 1.369 . S
C301 C310 1.429 . S
C302 C300 1.419 . S
C302 C303 1.363 . S
C302 H305 0.929 . S
C303 C302 1.363 . S
C303 C309 1.428 . S
H304 C300 0.930 . S
H305 C302 0.929 . S
S306 N307 1.613 . S
S306 N308 1.610 . S
N307 S306 1.613 . S
N307 C310 1.350 . S
N308 S306 1.610 . S
N308 C309 1.351 . S
C309 C303 1.428 . S
C309 N308 1.351 . S
C309 C310 1.434 . S
C310 C301 1.429 . S
C310 N307 1.350 . S
C310 C309 1.434 . S
C311 C312 1.369 . S
C311 C313 1.419 1_556 S
C311 H315 0.930 . S
C312 C311 1.369 . S
C312 C321 1.429 . S
C313 C311 1.419 1_554 S
C313 C314 1.363 1_554 S
C313 H316 0.929 . S
C314 C313 1.363 1_556 S
C314 C320 1.430 . S
H315 C311 0.930 . S
H316 C313 0.929 . S
S317 N318 1.613 . S
S317 N319 1.610 . S
N318 S317 1.613 . S
N318 C321 1.350 . S
N319 S317 1.610 . S
N319 C320 1.351 . S
C320 C314 1.430 . S
C320 N319 1.351 . S
C320 C321 1.434 . S
C321 C312 1.429 . S
C321 N318 1.350 . S
C321 C320 1.434 . S
C322 C323 1.369 . S
C322 C324 1.419 . S
C322 H326 0.930 . S
C323 C322 1.369 . S
C323 C332 1.429 . S
C324 C322 1.419 . S
C324 C325 1.363 . S
C324 H327 0.929 . S
C325 C324 1.363 . S
C325 C331 1.428 . S
H326 C322 0.930 . S
H327 C324 0.929 . S
S328 N329 1.613 . S
S328 N330 1.610 . S
N329 S328 1.613 . S
N329 C332 1.350 . S
N330 S328 1.610 . S
N330 C331 1.351 . S
C331 C325 1.428 . S
C331 N330 1.351 . S
C331 C332 1.434 . S
C332 C323 1.429 . S
C332 N329 1.350 . S
C332 C331 1.434 . S
C333 C334 1.369 . S
C333 C335 1.419 . S
C333 H337 0.930 . S
C334 C333 1.369 . S
C334 C343 1.429 . S
C335 C333 1.419 . S
C335 C336 1.363 . S
C335 H338 0.929 . S
C336 C335 1.363 . S
C336 C342 1.428 . S
H337 C333 0.930 . S
H338 C335 0.929 . S
S339 N340 1.613 . S
S339 N341 1.610 . S
N340 S339 1.613 . S
N340 C343 1.350 . S
N341 S339 1.610 . S
N341 C342 1.351 . S
C342 C336 1.428 . S
C342 N341 1.351 . S
C342 C343 1.434 . S
C343 C334 1.429 . S
C343 N340 1.350 . S
C343 C342 1.434 . S
C344 C345 1.369 . S
C344 C346 1.419 . S
C344 H348 0.930 . S
C345 C344 1.369 . S
C345 C354 1.429 . S
C346 C344 1.419 . S
C346 C347 1.363 . S
C346 H349 0.929 . S
C347 C346 1.363 . S
C347 C353 1.428 . S
H348 C344 0.930 . S
H349 C346 0.929 . S
S350 N351 1.613 . S
S350 N352 1.610 . S
N351 S350 1.613 . S
N351 C354 1.350 . S
N352 S350 1.610 . S
N352 C353 1.351 . S
C353 C347 1.428 . S
C353 N352 1.351 . S
C353 C354 1.434 . S
C354 C345 1.429 . S
C354 N351 1.350 . S
C354 C353 1.434 . S
C355 C356 1.369 . S
C355 C357 1.419 . S
C355 H359 0.930 . S
C356 C355 1.369 . S
C356 C365 1.429 . S
C357 C355 1.419 . S
C357 C358 1.363 . S
C357 H360 0.929 . S
C358 C357 1.363 . S
C358 C364 1.428 . S
H359 C355 0.930 . S
H360 C357 0.929 . S
S361 N362 1.613 . S
S361 N363 1.610 . S
N362 S361 1.613 . S
N362 C365 1.350 . S
N363 S361 1.610 . S
N363 C364 1.351 . S
C364 C358 1.428 . S
C364 N363 1.351 . S
C364 C365 1.434 . S
C365 C356 1.429 . S
C365 N362 1.350 . S
C365 C364 1.434 . S
C366 C367 1.369 . S
C366 C368 1.419 . S
C366 H370 0.930 . S
C367 C366 1.369 . S
C367 C376 1.429 . S
C368 C366 1.419 . S
C368 C369 1.363 . S
C368 H371 0.929 . S
C369 C368 1.363 . S
C369 C375 1.428 . S
H370 C366 0.930 . S
H371 C368 0.929 . S
S372 N373 1.613 . S
S372 N374 1.610 . S
N373 S372 1.613 . S
N373 C376 1.350 . S
N374 S372 1.610 . S
N374 C375 1.351 . S
C375 C369 1.428 . S
C375 N374 1.351 . S
C375 C376 1.434 . S
C376 C367 1.429 . S
C376 N373 1.350 . S
C376 C375 1.434 . S
C377 C378 1.369 . S
C377 C379 1.419 . S
C377 H381 0.930 . S
C378 C377 1.369 . S
C378 C387 1.429 . S
C379 C377 1.419 . S
C379 C380 1.363 . S
C379 H382 0.929 . S
C380 C379 1.363 . S
C380 C386 1.428 . S
H381 C377 0.930 . S
H382 C379 0.929 . S
S383 N384 1.613 . S
S383 N385 1.610 . S
N384 S383 1.613 . S
N384 C387 1.350 . S
N385 S383 1.610 . S
N385 C386 1.351 . S
C386 C380 1.428 . S
C386 N385 1.351 . S
C386 C387 1.434 . S
C387 C378 1.429 . S
C387 N384 1.350 . S
C387 C386 1.434 . S
C388 C389 1.369 . S
C388 C390 1.419 . S
C388 H392 0.930 . S
C389 C388 1.369 . S
C389 C398 1.429 . S
C390 C388 1.419 . S
C390 C391 1.363 . S
C390 H393 0.929 . S
C391 C390 1.363 . S
C391 C397 1.428 . S
H392 C388 0.930 . S
H393 C390 0.929 . S
S394 N395 1.613 . S
S394 N396 1.610 . S
N395 S394 1.613 . S
N395 C398 1.350 . S
N396 S394 1.610 . S
N396 C397 1.351 . S
C397 C391 1.428 . S
C397 N396 1.351 . S
C397 C398 1.434 . S
C398 C389 1.429 . S
C398 N395 1.350 . S
C398 C397 1.434 . S
C399 C400 1.369 . S
C399 C401 1.419 . S
C399 H403 0.930 . S
C400 C399 1.369 . S
C400 C409 1.429 . S
C401 C399 1.419 . S
C401 C402 1.363 . S
C401 H404 0.929 . S
C402 C401 1.363 . S
C402 C408 1.428 . S
H403 C399 0.930 . S
H404 C401 0.929 . S
S405 N406 1.613 . S
S405 N407 1.610 . S
N406 S405 1.613 . S
N406 C409 1.350 . S
N407 S405 1.610 . S
N407 C408 1.351 . S
C408 C402 1.428 . S
C408 N407 1.351 . S
C408 C409 1.434 . S
C409 C400 1.429 . S
C409 N406 1.350 . S
C409 C408 1.434 . S
C410 C411 1.369 . S
C410 C412 1.419 . S
C410 H414 0.930 . S
C411 C410 1.369 . S
C411 C420 1.429 . S
C412 C410 1.419 . S
C412 C413 1.363 . S
C412 H415 0.929 . S
C413 C412 1.363 . S
C413 C419 1.428 . S
H414 C410 0.930 . S
H415 C412 0.929 . S
S416 N417 1.613 . S
S416 N418 1.610 . S
N417 S416 1.613 . S
N417 C420 1.350 . S
N418 S416 1.610 . S
N418 C419 1.351 . S
C419 C413 1.428 . S
C419 N418 1.351 . S
C419 C420 1.434 . S
C420 C411 1.429 . S
C420 N417 1.350 . S
C420 C419 1.434 . S
C421 C422 1.369 . S
C421 C423 1.419 . S
C421 H425 0.930 . S
C422 C421 1.369 . S
C422 C431 1.429 . S
C423 C421 1.419 . S
C423 C424 1.363 . S
C423 H426 0.929 . S
C424 C423 1.363 . S
C424 C430 1.428 . S
H425 C421 0.930 . S
H426 C423 0.929 . S
S427 N428 1.613 . S
S427 N429 1.610 . S
N428 S427 1.613 . S
N428 C431 1.350 . S
N429 S427 1.610 . S
N429 C430 1.351 . S
C430 C424 1.428 . S
C430 N429 1.351 . S
C430 C431 1.434 . S
C431 C422 1.429 . S
C431 N428 1.350 . S
C431 C430 1.434 . S
C169 C123 1.385 . S
C171 C11 1.386 . S
C180 C25 1.386 . S
C182 C137 1.387 . S
C191 C39 1.383 . S
C193 C151 1.384 . S
C202 C53 1.387 . S
C204 C165 1.387 . S
C213 C95 1.385 . S
C215 C67 1.384 . S
C224 C81 1.388 . S
C226 C109 1.387 . S
C235 C12 1.435 . S
C237 C75 1.325 1_554 S
C246 C26 1.433 . S
C248 C5 1.326 . S
C257 C40 1.435 . S
C259 C19 1.315 . S
C268 C33 1.314 . S
C270 C54 1.435 . S
C279 C47 1.318 . S
C281 C68 1.436 . S
C290 C61 1.327 . S
C292 C82 1.434 . S
C301 C103 1.317 . S
C303 C96 1.434 . S
C312 C110 1.433 . S
C314 C117 1.322 1_556 S
C323 C131 1.317 . S
C325 C124 1.436 . S
C334 C138 1.436 . S
C336 C145 1.315 . S
C345 C152 1.433 . S
C347 C159 1.325 . S
C356 C166 1.436 . S
C358 C89 1.316 . S
C367 C144 1.314 . S
C369 C4 1.314 . S
C378 C158 1.313 . S
C380 C18 1.318 . S
C389 C88 1.313 . S
C391 C32 1.318 . S
C400 C46 1.318 . S
C402 C102 1.313 . S
C411 C60 1.312 . S
C413 C116 1.318 . S
C422 C130 1.319 . S
C424 C74 1.314 . S
