# Generated by pormake.
# Topology skc, (5)-cn, num edge types: 1
# Building blocks:
#     Node 0, Type 0, BuildingBlock: BEQFEK_clean_sbu_0, # of connection points: 5
#     Node 1, Type 0, BuildingBlock: BEQFEK_clean_sbu_0, # of connection points: 5
#     Node 2, Type 0, BuildingBlock: BEQFEK_clean_sbu_0, # of connection points: 5
#     Node 3, Type 0, BuildingBlock: BEQFEK_clean_sbu_0, # of connection points: 5
#     Node 4, Type 0, BuildingBlock: BEQFEK_clean_sbu_0, # of connection points: 5
#     Node 5, Type 0, BuildingBlock: BEQFEK_clean_sbu_0, # of connection points: 5
#     Node 6, Type 0, BuildingBlock: BEQFEK_clean_sbu_0, # of connection points: 5
#     Node 7, Type 0, BuildingBlock: BEQFEK_clean_sbu_0, # of connection points: 5
#     Edge 8, Type (0, 0), BuildingBlock: ZUJKAS_clean_linker_0, # of connection points: 2
#     Edge 9, Type (0, 0), BuildingBlock: ZUJKAS_clean_linker_0, # of connection points: 2
#     Edge 10, Type (0, 0), BuildingBlock: ZUJKAS_clean_linker_0, # of connection points: 2
#     Edge 11, Type (0, 0), BuildingBlock: ZUJKAS_clean_linker_0, # of connection points: 2
#     Edge 12, Type (0, 0), BuildingBlock: ZUJKAS_clean_linker_0, # of connection points: 2
#     Edge 13, Type (0, 0), BuildingBlock: ZUJKAS_clean_linker_0, # of connection points: 2
#     Edge 14, Type (0, 0), BuildingBlock: ZUJKAS_clean_linker_0, # of connection points: 2
#     Edge 15, Type (0, 0), BuildingBlock: ZUJKAS_clean_linker_0, # of connection points: 2
#     Edge 16, Type (0, 0), BuildingBlock: ZUJKAS_clean_linker_0, # of connection points: 2
#     Edge 17, Type (0, 0), BuildingBlock: ZUJKAS_clean_linker_0, # of connection points: 2
#     Edge 18, Type (0, 0), BuildingBlock: ZUJKAS_clean_linker_0, # of connection points: 2
#     Edge 19, Type (0, 0), BuildingBlock: ZUJKAS_clean_linker_0, # of connection points: 2
#     Edge 20, Type (0, 0), BuildingBlock: ZUJKAS_clean_linker_0, # of connection points: 2
#     Edge 21, Type (0, 0), BuildingBlock: ZUJKAS_clean_linker_0, # of connection points: 2
#     Edge 22, Type (0, 0), BuildingBlock: ZUJKAS_clean_linker_0, # of connection points: 2
#     Edge 23, Type (0, 0), BuildingBlock: ZUJKAS_clean_linker_0, # of connection points: 2
#     Edge 24, Type (0, 0), BuildingBlock: ZUJKAS_clean_linker_0, # of connection points: 2
#     Edge 25, Type (0, 0), BuildingBlock: ZUJKAS_clean_linker_0, # of connection points: 2
#     Edge 26, Type (0, 0), BuildingBlock: ZUJKAS_clean_linker_0, # of connection points: 2
#     Edge 27, Type (0, 0), BuildingBlock: ZUJKAS_clean_linker_0, # of connection points: 2
# Relax obj value: 0.156
# Max RMSD: 0.190
# Mean RMSD: 0.190
data_MOF--net-skc--node1-BEQFEK_clean_sbu_0--edge1-ZUJKAS_clean_linker_0
_symmetry_space_group_name_H-M    P1
_symmetry_Int_Tables_number       1
_symmetry_cell_setting            triclinic
loop_
_symmetry_equiv_pos_as_xyz
'x, y, z'
_cell_length_a     57.885193
_cell_length_b     28.946554
_cell_length_c     30.927768
_cell_angle_alpha  90.0262
_cell_angle_beta   90.027351
_cell_angle_gamma 89.987017
loop_
_atom_site_label
_atom_site_type_symbol
_atom_site_fract_x
_atom_site_fract_y
_atom_site_fract_z
_atom_type_partial_charge
Co0 Co 0.08311 0.20133 0.1656 0.0
Co1 Co 0.11248 0.24961 0.09278 0.0
C2 C 0.07911 0.17286 0.0726 0.0
O3 O 0.0736 0.16851 0.11222 0.0
O4 O 0.0941 0.2025 0.06075 0.0
C5 C 0.0588 0.1308 0.21457 0.0
O6 O 0.05767 0.1084 0.17769 0.0
C7 C 0.148 0.25831 0.02414 0.0
C8 C 0.15236 0.33406 0.02128 0.0
C9 C 0.16013 0.29316 0.00309 0.0
N10 N 0.13396 0.27784 0.05369 0.0
N11 N 0.13667 0.32312 0.05168 0.0
C12 C 0.14895 0.20752 0.01512 0.0
H13 H 0.13322 0.19 0.0271 0.0
H14 H 0.16402 0.19226 0.03202 0.0
H15 H 0.15099 0.20118 0.97992 0.0
C16 C 0.12923 0.19391 0.20599 0.0
N17 N 0.11565 0.20422 0.17195 0.0
N18 N 0.12809 0.22467 0.14194 0.0
C19 C 0.15008 0.2282 0.15613 0.0
C20 C 0.15158 0.20877 0.1972 0.0
C21 C 0.12016 0.17568 0.24798 0.0
H22 H 0.10576 0.19794 0.25922 0.0
H23 H 0.11315 0.14043 0.24283 0.0
H24 H 0.13364 0.17458 0.27343 0.0
O25 O 0.07017 0.26485 0.16368 0.0
O26 O 0.09065 0.29878 0.11191 0.0
H27 H 0.16444 0.28788 0.12546 0.0
H28 H 0.18585 0.24943 0.14858 0.0
C29 C 0.16907 0.25123 0.13138 0.0
H30 H 0.17106 0.23398 0.09969 0.0
H31 H 0.12771 0.34664 0.071 0.0
O32 O 0.06895 0.16975 0.21611 0.0
C33 C 0.07472 0.3 0.14037 0.0
Co34 Co 0.92169 0.80088 0.18046 0.0
Co35 Co 0.89237 0.75752 0.10486 0.0
C36 C 0.9268 0.8332 0.08889 0.0
O37 O 0.93263 0.83457 0.12858 0.0
O38 O 0.91101 0.80606 0.07554 0.0
C39 C 0.94199 0.87153 0.23593 0.0
O40 O 0.93904 0.89957 0.20299 0.0
C41 C 0.85627 0.75302 0.03701 0.0
C42 C 0.85396 0.6777 0.02625 0.0
C43 C 0.84488 0.71956 0.01269 0.0
N44 N 0.87119 0.7317 0.06383 0.0
N45 N 0.86969 0.68671 0.05715 0.0
C46 C 0.85413 0.80439 0.03317 0.0
H47 H 0.86952 0.82177 0.04695 0.0
H48 H 0.83876 0.81624 0.05143 0.0
H49 H 0.85188 0.81449 0.99881 0.0
C50 C 0.87505 0.81002 0.21887 0.0
N51 N 0.88894 0.79976 0.18528 0.0
N52 N 0.87657 0.78054 0.15439 0.0
C53 C 0.8544 0.77749 0.16768 0.0
C54 C 0.85269 0.79624 0.20893 0.0
C55 C 0.8833 0.8314 0.26014 0.0
H56 H 0.89337 0.86297 0.25266 0.0
H57 H 0.86875 0.84083 0.28173 0.0
H58 H 0.89493 0.80683 0.27705 0.0
O59 O 0.93379 0.73675 0.1769 0.0
O60 O 0.91378 0.70699 0.12229 0.0
H61 H 0.8431 0.71917 0.13046 0.0
H62 H 0.82115 0.74313 0.16527 0.0
C63 C 0.83594 0.75164 0.14391 0.0
H64 H 0.82956 0.77312 0.11678 0.0
H65 H 0.87951 0.66209 0.07358 0.0
O66 O 0.93568 0.82955 0.23268 0.0
C67 C 0.92925 0.70331 0.15145 0.0
Co68 Co 0.08663 0.78951 0.66865 0.0
Co69 Co 0.11653 0.74338 0.74141 0.0
C70 C 0.08478 0.82265 0.76063 0.0
O71 O 0.07857 0.82518 0.7212 0.0
O72 O 0.09967 0.79298 0.77293 0.0
C73 C 0.0708 0.8624 0.61095 0.0
O74 O 0.08281 0.89076 0.63535 0.0
C75 C 0.15161 0.73556 0.81018 0.0
C76 C 0.15771 0.66018 0.8117 0.0
C77 C 0.16434 0.70135 0.83086 0.0
N78 N 0.13827 0.71542 0.77993 0.0
N79 N 0.14198 0.67038 0.78108 0.0
C80 C 0.15064 0.78602 0.82062 0.0
H81 H 0.15194 0.80647 0.79037 0.0
H82 H 0.16433 0.79656 0.84361 0.0
H83 H 0.13362 0.7939 0.83533 0.0
C84 C 0.13234 0.79317 0.62524 0.0
N85 N 0.11899 0.78476 0.66005 0.0
N86 N 0.13168 0.76586 0.69065 0.0
C87 C 0.15363 0.76211 0.67634 0.0
C88 C 0.1548 0.77921 0.63435 0.0
C89 C 0.12313 0.80907 0.58252 0.0
H90 H 0.10638 0.79197 0.57577 0.0
H91 H 0.12018 0.84692 0.58384 0.0
H92 H 0.13527 0.80134 0.55576 0.0
O93 O 0.07305 0.72707 0.67359 0.0
O94 O 0.0938 0.69433 0.72559 0.0
H95 H 0.16963 0.70487 0.70816 0.0
H96 H 0.18992 0.74619 0.68599 0.0
C97 C 0.17301 0.74207 0.70234 0.0
H98 H 0.17388 0.75972 0.73405 0.0
H99 H 0.13371 0.64656 0.76103 0.0
O100 O 0.0709 0.81939 0.61923 0.0
C101 C 0.07748 0.69273 0.69793 0.0
Co102 Co 0.91573 0.20329 0.65644 0.0
Co103 Co 0.88674 0.24711 0.73214 0.0
C104 C 0.91947 0.16776 0.74698 0.0
O105 O 0.92546 0.16644 0.70738 0.0
O106 O 0.90435 0.19638 0.76037 0.0
C107 C 0.93464 0.13348 0.59851 0.0
O108 O 0.93056 0.10419 0.63002 0.0
C109 C 0.85033 0.25117 0.79912 0.0
C110 C 0.85027 0.32559 0.81503 0.0
C111 C 0.83997 0.28394 0.8257 0.0
N112 N 0.86589 0.27268 0.7738 0.0
N113 N 0.86571 0.31715 0.78349 0.0
C114 C 0.84676 0.19998 0.79975 0.0
H115 H 0.86126 0.18198 0.7835 0.0
H116 H 0.8306 0.19133 0.78227 0.0
H117 H 0.84501 0.18758 0.83355 0.0
C118 C 0.86931 0.19944 0.61636 0.0
N119 N 0.88309 0.20753 0.65064 0.0
N120 N 0.87086 0.22695 0.6816 0.0
C121 C 0.8489 0.23231 0.66767 0.0
C122 C 0.84718 0.2149 0.62589 0.0
C123 C 0.87746 0.17841 0.57487 0.0
H124 H 0.88984 0.20223 0.559 0.0
H125 H 0.88664 0.14566 0.58192 0.0
H126 H 0.86293 0.17103 0.55251 0.0
O127 O 0.9292 0.26609 0.66261 0.0
O128 O 0.90916 0.29652 0.71682 0.0
H129 H 0.8385 0.28984 0.70685 0.0
H130 H 0.81655 0.2699 0.66975 0.0
C131 C 0.83074 0.25888 0.69154 0.0
H132 H 0.82338 0.23676 0.71731 0.0
H133 H 0.87633 0.34172 0.76888 0.0
O134 O 0.92951 0.1759 0.60348 0.0
C135 C 0.92507 0.29937 0.68848 0.0
Co136 Co 0.58876 0.71031 0.67853 0.0
Co137 Co 0.61741 0.7567 0.60333 0.0
C138 C 0.58473 0.67768 0.58692 0.0
O139 O 0.57928 0.67459 0.62671 0.0
O140 O 0.59943 0.70738 0.57397 0.0
C141 C 0.57144 0.6376 0.73547 0.0
O142 O 0.57715 0.60889 0.70435 0.0
C143 C 0.65258 0.76358 0.53362 0.0
C144 C 0.6556 0.83928 0.52665 0.0
C145 C 0.66396 0.79791 0.51048 0.0
N146 N 0.63836 0.78388 0.56244 0.0
N147 N 0.64028 0.82913 0.55797 0.0
C148 C 0.65429 0.71246 0.527 0.0
H149 H 0.63924 0.69451 0.54132 0.0
H150 H 0.67012 0.69928 0.543 0.0
H151 H 0.65553 0.70436 0.49198 0.0
C152 C 0.63532 0.70623 0.718 0.0
N153 N 0.62135 0.71494 0.68411 0.0
N154 N 0.63342 0.73462 0.6531 0.0
C155 C 0.6555 0.73919 0.66643 0.0
C156 C 0.65747 0.72125 0.70798 0.0
C157 C 0.62687 0.68906 0.76083 0.0
H158 H 0.61165 0.70961 0.77105 0.0
H159 H 0.62134 0.65255 0.75743 0.0
H160 H 0.64033 0.69145 0.78625 0.0
O161 O 0.57509 0.77313 0.67396 0.0
O162 O 0.59507 0.80563 0.6207 0.0
H163 H 0.66912 0.79749 0.63241 0.0
H164 H 0.69103 0.76138 0.65718 0.0
C165 C 0.67416 0.76147 0.64023 0.0
H166 H 0.6762 0.74238 0.60948 0.0
H167 H 0.63102 0.85316 0.57619 0.0
O168 O 0.57507 0.68066 0.73062 0.0
C169 C 0.57916 0.80736 0.64918 0.0
Co170 Co 0.41578 0.29659 0.66618 0.0
Co171 Co 0.38625 0.24582 0.59464 0.0
C172 C 0.41844 0.32438 0.57327 0.0
O173 O 0.42471 0.32909 0.61247 0.0
O174 O 0.40349 0.29426 0.56236 0.0
C175 C 0.44187 0.36546 0.71422 0.0
O176 O 0.44499 0.3849 0.6763 0.0
C177 C 0.34886 0.23804 0.52985 0.0
C178 C 0.34808 0.16277 0.5182 0.0
C179 C 0.33779 0.20393 0.50577 0.0
N180 N 0.36475 0.21776 0.55539 0.0
N181 N 0.36414 0.17277 0.54826 0.0
C182 C 0.34555 0.28922 0.52682 0.0
H183 H 0.36063 0.30776 0.54044 0.0
H184 H 0.33007 0.29936 0.54567 0.0
H185 H 0.34279 0.29965 0.49267 0.0
C186 C 0.36955 0.30532 0.70607 0.0
N187 N 0.38321 0.29308 0.67276 0.0
N188 N 0.37089 0.27016 0.64411 0.0
C189 C 0.34905 0.26607 0.65891 0.0
C190 C 0.34742 0.28844 0.69862 0.0
C191 C 0.37777 0.33234 0.74438 0.0
H192 H 0.3882 0.30948 0.76556 0.0
H193 H 0.38898 0.36109 0.73341 0.0
H194 H 0.36312 0.34677 0.76316 0.0
O195 O 0.42915 0.23326 0.66407 0.0
O196 O 0.40882 0.19779 0.61289 0.0
H197 H 0.33913 0.20498 0.62414 0.0
H198 H 0.3178 0.22508 0.66218 0.0
C199 C 0.33102 0.23613 0.63838 0.0
H200 H 0.32231 0.25574 0.61227 0.0
H201 H 0.37485 0.14888 0.56363 0.0
O202 O 0.42999 0.32856 0.7168 0.0
C203 C 0.42494 0.19769 0.64102 0.0
Co204 Co 0.58277 0.29931 0.15537 0.0
Co205 Co 0.61112 0.25346 0.23127 0.0
C206 C 0.57771 0.33178 0.24664 0.0
O207 O 0.57252 0.33473 0.20671 0.0
O208 O 0.59259 0.30259 0.25996 0.0
C209 C 0.56278 0.36979 0.09898 0.0
O210 O 0.56437 0.39738 0.13259 0.0
C211 C 0.64732 0.24908 0.29879 0.0
C212 C 0.64762 0.17453 0.314 0.0
C213 C 0.65782 0.21619 0.32507 0.0
N214 N 0.63181 0.22763 0.27325 0.0
N215 N 0.63212 0.18308 0.28257 0.0
C216 C 0.65073 0.30031 0.29981 0.0
H217 H 0.63595 0.31824 0.28434 0.0
H218 H 0.66663 0.30936 0.28172 0.0
H219 H 0.65285 0.3124 0.33365 0.0
C220 C 0.62946 0.3044 0.11727 0.0
N221 N 0.61543 0.29567 0.151 0.0
N222 N 0.62739 0.27539 0.18186 0.0
C223 C 0.6494 0.26993 0.16832 0.0
C224 C 0.65145 0.2883 0.12699 0.0
C225 C 0.62162 0.32612 0.07588 0.0
H226 H 0.60981 0.30205 0.05879 0.0
H227 H 0.61189 0.35818 0.08318 0.0
H228 H 0.63638 0.33478 0.05451 0.0
O229 O 0.56951 0.23597 0.15971 0.0
O230 O 0.58933 0.20395 0.2135 0.0
H231 H 0.65903 0.21085 0.20614 0.0
H232 H 0.6813 0.23077 0.16978 0.0
C233 C 0.66718 0.24186 0.1917 0.0
H234 H 0.67475 0.26289 0.21806 0.0
H235 H 0.6216 0.15851 0.26767 0.0
O236 O 0.56957 0.3281 0.10228 0.0
C237 C 0.57364 0.20183 0.18462 0.0
Co238 Co 0.42056 0.70124 0.16492 0.0
Co239 Co 0.3905 0.74697 0.23844 0.0
C240 C 0.42544 0.67293 0.25761 0.0
O241 O 0.43141 0.67008 0.2181 0.0
O242 O 0.40945 0.70026 0.26977 0.0
C243 C 0.44431 0.63106 0.11433 0.0
O244 O 0.44394 0.60659 0.15008 0.0
C245 C 0.35369 0.75145 0.30479 0.0
C246 C 0.35062 0.82678 0.31468 0.0
C247 C 0.34175 0.78478 0.32834 0.0
N248 N 0.3687 0.77295 0.27831 0.0
N249 N 0.36674 0.81796 0.28445 0.0
C250 C 0.35197 0.70006 0.30906 0.0
H251 H 0.36759 0.68305 0.29579 0.0
H252 H 0.33682 0.68751 0.29055 0.0
H253 H 0.3496 0.69024 0.34346 0.0
C254 C 0.37435 0.68922 0.12595 0.0
N255 N 0.38791 0.70107 0.15955 0.0
N256 N 0.37524 0.72139 0.18935 0.0
C257 C 0.35319 0.72367 0.17526 0.0
C258 C 0.35188 0.70318 0.13468 0.0
C259 C 0.38306 0.6666 0.08561 0.0
H260 H 0.394 0.63656 0.09432 0.0
H261 H 0.36868 0.65465 0.06466 0.0
H262 H 0.39394 0.69148 0.06746 0.0
O263 O 0.43197 0.76584 0.16658 0.0
O264 O 0.41153 0.79769 0.21961 0.0
H265 H 0.34164 0.78346 0.21011 0.0
H266 H 0.32008 0.75872 0.17491 0.0
C267 C 0.33452 0.75067 0.19727 0.0
H268 H 0.32764 0.73024 0.22468 0.0
H269 H 0.37652 0.84271 0.26814 0.0
O270 O 0.43519 0.67108 0.11399 0.0
C271 C 0.42708 0.80035 0.1905 0.0
H272 H 0.0747 0.37707 0.08895 0.0
H273 H 0.04998 0.44514 0.0951 0.0
H274 H 0.01825 0.38785 0.20924 0.0
H275 H 0.04248 0.31904 0.20275 0.0
H276 H 0.98636 0.42078 0.15424 0.0
H277 H 0.05457 0.55255 0.17755 0.0
H278 H 0.05875 0.51912 0.12934 0.0
H279 H 0.06031 0.49142 0.18137 0.0
C280 C 0.06262 0.37906 0.11562 0.0
C281 C 0.06065 0.34255 0.14543 0.0
C282 C 0.04857 0.4182 0.11923 0.0
C283 C 0.03251 0.42202 0.15305 0.0
C284 C 0.03058 0.38577 0.18298 0.0
H285 H 0.96052 0.67884 0.21399 0.0
H286 H 0.98444 0.60928 0.21679 0.0
C287 C 0.0445 0.34646 0.17923 0.0
C288 C 0.01703 0.46288 0.15618 0.0
H289 H 0.01682 0.58075 0.16091 0.0
C290 C 0.99303 0.45575 0.15602 0.0
C291 C 0.0257 0.50849 0.15917 0.0
C292 C 0.05124 0.51841 0.16233 0.0
C293 C 0.97748 0.49297 0.15773 0.0
C294 C 0.98615 0.53868 0.15857 0.0
C295 C 0.01015 0.54575 0.15979 0.0
C296 C 0.97071 0.57972 0.15786 0.0
C297 C 0.95192 0.48284 0.15921 0.0
C298 C 0.95502 0.58635 0.12378 0.0
C299 C 0.94115 0.62588 0.12228 0.0
C300 C 0.94294 0.66005 0.15451 0.0
C301 C 0.95866 0.65327 0.18864 0.0
C302 C 0.97239 0.61354 0.19027 0.0
H303 H 0.94846 0.44757 0.17182 0.0
H304 H 0.94263 0.50822 0.17976 0.0
H305 H 0.94474 0.48476 0.12598 0.0
H306 H 0.95381 0.56138 0.0978 0.0
H307 H 0.92941 0.63011 0.09529 0.0
H308 H 0.92626 0.37124 0.74609 0.0
H309 H 0.9521 0.43791 0.74567 0.0
H310 H 0.98292 0.3897 0.62701 0.0
H311 H 0.95755 0.32222 0.6277 0.0
H312 H 0.0153 0.41504 0.68494 0.0
H313 H 0.9492 0.55285 0.67231 0.0
H314 H 0.94457 0.51525 0.71757 0.0
H315 H 0.94253 0.4927 0.66346 0.0
C316 C 0.93837 0.37498 0.71964 0.0
C317 C 0.93975 0.34137 0.68684 0.0
C318 C 0.95307 0.41331 0.71935 0.0
C319 C 0.96922 0.41924 0.68595 0.0
C320 C 0.97054 0.38593 0.65303 0.0
H321 H 0.04484 0.67288 0.63668 0.0
H322 H 0.01963 0.60541 0.63289 0.0
C323 C 0.95597 0.34741 0.65344 0.0
C324 C 0.98534 0.45917 0.68618 0.0
H325 H 0.98746 0.577 0.68954 0.0
C326 C 0.00922 0.45048 0.68571 0.0
C327 C 0.97741 0.50542 0.68666 0.0
C328 C 0.95203 0.51722 0.68458 0.0
C329 C 0.02537 0.48669 0.68632 0.0
C330 C 0.01743 0.53288 0.68849 0.0
C331 C 0.99355 0.54158 0.68833 0.0
C332 C 0.03352 0.57282 0.69025 0.0
C333 C 0.05075 0.47509 0.68378 0.0
C334 C 0.04974 0.57706 0.72381 0.0
C335 C 0.06437 0.61548 0.72588 0.0
C336 C 0.06283 0.65079 0.69475 0.0
C337 C 0.04653 0.6464 0.66122 0.0
C338 C 0.03205 0.60785 0.65901 0.0
H339 H 0.05362 0.44018 0.66981 0.0
H340 H 0.06024 0.50077 0.66391 0.0
H341 H 0.0582 0.47532 0.71685 0.0
H342 H 0.05083 0.55104 0.74887 0.0
H343 H 0.07657 0.61792 0.75236 0.0
H344 H 0.57765 0.88116 0.5938 0.0
H345 H 0.55159 0.94746 0.5964 0.0
H346 H 0.52127 0.8951 0.71391 0.0
H347 H 0.54685 0.82797 0.71099 0.0
H348 H 0.48865 0.92147 0.65762 0.0
H349 H 0.55386 0.06051 0.67207 0.0
H350 H 0.55865 0.02438 0.6258 0.0
H351 H 0.56101 1.00033 0.6793 0.0
C352 C 0.56561 0.88392 0.62048 0.0
C353 C 0.56441 0.84921 0.65226 0.0
C354 C 0.55079 0.92205 0.62204 0.0
C355 C 0.53471 0.92672 0.65574 0.0
C356 C 0.53359 0.89235 0.68769 0.0
H357 H 0.45732 0.18016 0.70356 0.0
H358 H 0.48289 0.11322 0.70932 0.0
C359 C 0.54828 0.85401 0.68599 0.0
C360 C 0.51834 0.9663 0.65663 0.0
H361 H 0.51547 0.08412 0.6544 0.0
C362 C 0.49452 0.95705 0.65724 0.0
C363 C 0.52597 0.01276 0.65674 0.0
C364 C 0.55127 0.02517 0.6589 0.0
C365 C 0.47814 0.99288 0.65704 0.0
C366 C 0.48578 0.03929 0.65508 0.0
C367 C 0.5096 0.04856 0.65543 0.0
C368 C 0.46942 0.0788 0.65252 0.0
C369 C 0.45285 0.98057 0.65959 0.0
C370 C 0.45332 0.08183 0.61866 0.0
C371 C 0.4385 0.11986 0.61551 0.0
C372 C 0.43972 0.15608 0.64579 0.0
C373 C 0.45588 0.15294 0.67968 0.0
C374 C 0.47055 0.1147 0.68299 0.0
H375 H 0.45024 0.9459 0.6742 0.0
H376 H 0.44308 0.00636 0.67889 0.0
H377 H 0.44549 0.97974 0.62646 0.0
H378 H 0.4525 0.0552 0.5941 0.0
H379 H 0.42644 0.12131 0.58875 0.0
H380 H 0.42721 0.87599 0.24387 0.0
H381 H 0.45153 0.94471 0.23848 0.0
H382 H 0.48163 0.89197 0.12085 0.0
H383 H 0.45783 0.82256 0.12655 0.0
H384 H 0.51424 0.922 0.17535 0.0
H385 H 0.44629 0.05577 0.16068 0.0
H386 H 0.44271 0.02038 0.2078 0.0
H387 H 0.44023 0.99493 0.15488 0.0
C388 C 0.43881 0.87919 0.21656 0.0
C389 C 0.44053 0.84369 0.18562 0.0
C390 C 0.45263 0.91869 0.2134 0.0
C391 C 0.46818 0.92389 0.1789 0.0
C392 C 0.46971 0.88881 0.14768 0.0
H393 H 0.54116 0.18093 0.12304 0.0
H394 H 0.51643 0.11254 0.11941 0.0
C395 C 0.45604 0.84914 0.15098 0.0
C396 C 0.48374 0.96465 0.17656 0.0
H397 H 0.48443 0.08264 0.17626 0.0
C398 C 0.5077 0.95713 0.17522 0.0
C399 C 0.47523 0.0105 0.17578 0.0
C400 C 0.4497 0.02096 0.17441 0.0
C401 C 0.52339 0.99411 0.1741 0.0
C402 C 0.51491 0.03995 0.17541 0.0
C403 C 0.49094 0.0475 0.17572 0.0
C404 C 0.53058 0.08058 0.17685 0.0
C405 C 0.54887 0.98361 0.17092 0.0
C406 C 0.54672 0.08549 0.21043 0.0
C407 C 0.56103 0.12434 0.21241 0.0
C408 C 0.55927 0.1595 0.18116 0.0
C409 C 0.54303 0.15453 0.1476 0.0
C410 C 0.52883 0.11548 0.14551 0.0
H411 H 0.55199 0.94878 0.15697 0.0
H412 H 0.55795 0.00959 0.15072 0.0
H413 H 0.55656 0.98422 0.20379 0.0
H414 H 0.548 0.05962 0.2356 0.0
H415 H 0.57316 0.12717 0.23895 0.0
H416 H 0.30042 0.26297 0.50529 0.0
H417 H 0.2694 0.26686 0.45162 0.0
H418 H 0.30143 0.15673 0.37939 0.0
H419 H 0.33279 0.15333 0.43241 0.0
H420 H 0.28575 0.23385 0.32798 0.0
H421 H 0.21837 0.16649 0.43947 0.0
H422 H 0.23458 0.21525 0.45889 0.0
H423 H 0.24888 0.16094 0.45051 0.0
C424 C 0.3012 0.24033 0.47752 0.0
C425 C 0.31931 0.20836 0.47275 0.0
C426 C 0.28325 0.24213 0.44718 0.0
C427 C 0.28304 0.21185 0.41171 0.0
C428 C 0.30125 0.18039 0.40655 0.0
H429 H 0.1706 0.13597 0.24008 0.0
H430 H 0.20292 0.13739 0.29161 0.0
C431 C 0.31911 0.17841 0.43693 0.0
C432 C 0.26369 0.2123 0.38022 0.0
H433 H 0.20602 0.18973 0.36993 0.0
C434 C 0.26829 0.22433 0.33711 0.0
C435 C 0.24102 0.19928 0.39217 0.0
C436 C 0.23532 0.18437 0.43767 0.0
C437 C 0.25075 0.22411 0.30567 0.0
C438 C 0.22801 0.2118 0.31779 0.0
C439 C 0.22345 0.19939 0.36081 0.0
C440 C 0.20872 0.21102 0.28616 0.0
C441 C 0.25675 0.23617 0.25958 0.0
C442 C 0.20117 0.25196 0.26637 0.0
C443 C 0.1827 0.25117 0.23719 0.0
C444 C 0.17151 0.20943 0.22727 0.0
C445 C 0.17902 0.16853 0.2472 0.0
C446 C 0.19742 0.16933 0.27653 0.0
H447 H 0.27568 0.23474 0.25372 0.0
H448 H 0.24801 0.21237 0.23664 0.0
H449 H 0.25076 0.27179 0.25253 0.0
H450 H 0.20935 0.28462 0.27397 0.0
H451 H 0.17692 0.2833 0.22285 0.0
H452 H 0.66793 0.85014 0.43796 0.0
H453 H 0.69821 0.84681 0.3828 0.0
H454 H 0.73092 0.73489 0.45161 0.0
H455 H 0.70055 0.73771 0.50635 0.0
H456 H 0.74316 0.86218 0.39208 0.0
H457 H 0.73133 0.68392 0.33083 0.0
H458 H 0.71021 0.71206 0.36472 0.0
H459 H 0.73543 0.68573 0.38828 0.0
C460 C 0.68141 0.82436 0.44092 0.0
C461 C 0.68155 0.79344 0.47593 0.0
C462 C 0.6987 0.8225 0.40942 0.0
C463 C 0.71663 0.78996 0.41248 0.0
C464 C 0.71688 0.75924 0.44765 0.0
H465 H 0.84962 0.75792 0.28906 0.0
H466 H 0.81589 0.75667 0.33722 0.0
C467 C 0.69943 0.76079 0.47895 0.0
C468 C 0.7358 0.79025 0.38045 0.0
H469 H 0.76646 0.72189 0.31085 0.0
C470 C 0.74807 0.83159 0.37402 0.0
C471 C 0.74223 0.75036 0.35676 0.0
C472 C 0.72896 0.70565 0.36012 0.0
C473 C 0.76687 0.83381 0.34541 0.0
C474 C 0.77358 0.79372 0.32265 0.0
C475 C 0.76127 0.7525 0.32862 0.0
C476 C 0.79368 0.79391 0.2931 0.0
C477 C 0.77981 0.8787 0.34025 0.0
C478 C 0.7922 0.81497 0.25232 0.0
C479 C 0.8114 0.81561 0.22481 0.0
C480 C 0.83235 0.79556 0.23791 0.0
C481 C 0.83372 0.77417 0.27858 0.0
C482 C 0.81449 0.77321 0.30591 0.0
H483 H 0.77404 0.90532 0.36379 0.0
H484 H 0.79864 0.87288 0.34446 0.0
H485 H 0.77705 0.89225 0.30708 0.0
H486 H 0.77622 0.8309 0.24184 0.0
H487 H 0.80997 0.8321 0.19348 0.0
H488 H 0.33527 0.83697 0.40028 0.0
H489 H 0.30407 0.83153 0.45336 0.0
H490 H 0.27532 0.71571 0.38413 0.0
H491 H 0.30618 0.72162 0.33034 0.0
H492 H 0.24298 0.78563 0.40519 0.0
H493 H 0.29445 0.73334 0.5485 0.0
H494 H 0.30534 0.78329 0.52074 0.0
H495 H 0.3052 0.72822 0.49389 0.0
C496 C 0.32243 0.81003 0.39658 0.0
C497 C 0.32353 0.77905 0.36161 0.0
C498 C 0.3047 0.8068 0.42709 0.0
C499 C 0.28762 0.77268 0.42314 0.0
C500 C 0.28853 0.74188 0.3881 0.0
H501 H 0.18226 0.7055 0.61467 0.0
H502 H 0.21446 0.70293 0.56315 0.0
C503 C 0.30636 0.74494 0.35764 0.0
C504 C 0.26821 0.77077 0.45442 0.0
H505 H 0.25568 0.75703 0.56158 0.0
C506 C 0.24572 0.77911 0.43934 0.0
C507 C 0.27181 0.76185 0.49888 0.0
C508 C 0.29547 0.75074 0.51655 0.0
C509 C 0.22679 0.7799 0.46775 0.0
C510 C 0.23051 0.77262 0.51244 0.0
C511 C 0.25291 0.76309 0.52736 0.0
C512 C 0.21133 0.77459 0.54419 0.0
C513 C 0.20293 0.78818 0.44968 0.0
C514 C 0.19915 0.81591 0.55106 0.0
C515 C 0.18093 0.81752 0.58073 0.0
C516 C 0.17466 0.7779 0.60413 0.0
C517 C 0.18699 0.7367 0.59751 0.0
C518 C 0.20527 0.73514 0.56797 0.0
H519 H 0.20226 0.78203 0.41423 0.0
H520 H 0.19003 0.76552 0.46567 0.0
H521 H 0.19789 0.82461 0.45574 0.0
H522 H 0.20378 0.84695 0.53355 0.0
H523 H 0.17173 0.84972 0.58546 0.0
H524 H 0.80367 0.18169 0.63852 0.0
H525 H 0.77088 0.18498 0.58806 0.0
H526 H 0.81287 0.26061 0.49714 0.0
H527 H 0.84568 0.25629 0.54705 0.0
H528 H 0.74739 0.25674 0.55306 0.0
H529 H 0.78966 0.15687 0.42218 0.0
H530 H 0.80154 0.16044 0.476 0.0
H531 H 0.80594 0.20677 0.43807 0.0
C532 C 0.8058 0.19883 0.60765 0.0
C533 C 0.82719 0.21802 0.59618 0.0
C534 C 0.78712 0.20076 0.57891 0.0
C535 C 0.78955 0.22211 0.53834 0.0
C536 C 0.81076 0.2427 0.52761 0.0
H537 H 0.69627 0.27181 0.32214 0.0
H538 H 0.72749 0.27647 0.37549 0.0
C539 C 0.82946 0.24039 0.55615 0.0
C540 C 0.7699 0.22312 0.50737 0.0
H541 H 0.7542 0.19376 0.40437 0.0
C542 C 0.74886 0.24279 0.52062 0.0
C543 C 0.77177 0.20476 0.46503 0.0
C544 C 0.79336 0.18061 0.44956 0.0
C545 C 0.7298 0.24518 0.4925 0.0
C546 C 0.73184 0.22737 0.45013 0.0
C547 C 0.75282 0.20778 0.4368 0.0
C548 C 0.71214 0.22721 0.41949 0.0
C549 C 0.70768 0.26715 0.50802 0.0
C550 C 0.69323 0.19794 0.42658 0.0
C551 C 0.67539 0.19522 0.39619 0.0
C552 C 0.67602 0.2221 0.35835 0.0
C553 C 0.69489 0.25178 0.35153 0.0
C554 C 0.71286 0.25413 0.38178 0.0
H555 H 0.71022 0.28695 0.53843 0.0
H556 H 0.70057 0.29065 0.48295 0.0
H557 H 0.69468 0.23975 0.51413 0.0
H558 H 0.69253 0.17635 0.45516 0.0
H559 H 0.66116 0.17178 0.40213 0.0
H560 H 0.8087 0.78131 0.01057 0.0
H561 H 0.77774 0.78569 0.95683 0.0
H562 H 0.80823 0.67225 0.88679 0.0
H563 H 0.83955 0.66832 0.93988 0.0
H564 H 0.79287 0.74886 0.83381 0.0
H565 H 0.72595 0.68612 0.94865 0.0
H566 H 0.74268 0.73489 0.96645 0.0
H567 H 0.7565 0.67995 0.95893 0.0
C568 C 0.80919 0.75811 0.9832 0.0
C569 C 0.82681 0.72494 0.97911 0.0
C570 C 0.79128 0.76021 0.95283 0.0
C571 C 0.79063 0.72906 0.91805 0.0
C572 C 0.80843 0.69659 0.91341 0.0
H573 H 0.67691 0.64964 0.75176 0.0
H574 H 0.70975 0.6524 0.80204 0.0
C575 C 0.82625 0.69432 0.94382 0.0
C576 C 0.77108 0.72924 0.88709 0.0
H577 H 0.71327 0.70732 0.87882 0.0
C578 C 0.77545 0.73995 0.84359 0.0
C579 C 0.74846 0.71697 0.89994 0.0
C580 C 0.74301 0.70344 0.94594 0.0
C581 C 0.75769 0.73907 0.81261 0.0
C582 C 0.735 0.72746 0.82561 0.0
C583 C 0.73068 0.71644 0.86904 0.0
C584 C 0.71552 0.72583 0.79453 0.0
C585 C 0.76339 0.74964 0.76606 0.0
C586 C 0.70782 0.76623 0.77401 0.0
C587 C 0.68905 0.76469 0.74555 0.0
C588 C 0.67775 0.72271 0.73711 0.0
C589 C 0.68543 0.68235 0.75773 0.0
C590 C 0.70412 0.68392 0.78634 0.0
H591 H 0.78228 0.74803 0.75981 0.0
H592 H 0.7545 0.7251 0.74402 0.0
H593 H 0.75733 0.78501 0.75814 0.0
H594 H 0.71609 0.79907 0.78054 0.0
H595 H 0.68312 0.79642 0.73067 0.0
H596 H 0.16642 0.35156 0.93544 0.0
H597 H 0.19673 0.34906 0.8803 0.0
H598 H 0.22483 0.22619 0.93904 0.0
H599 H 0.19469 0.22861 0.99424 0.0
H600 H 0.24356 0.35431 0.8933 0.0
H601 H 0.22124 0.18931 0.81192 0.0
H602 H 0.20152 0.21876 0.8478 0.0
H603 H 0.22466 0.18434 0.86942 0.0
C604 C 0.17892 0.32371 0.93629 0.0
C605 C 0.17779 0.28962 0.96858 0.0
C606 C 0.1962 0.32232 0.90478 0.0
C607 C 0.21277 0.28693 0.90502 0.0
C608 C 0.2118 0.253 0.93741 0.0
H609 H 0.34684 0.26654 0.78439 0.0
H610 H 0.31363 0.26752 0.83362 0.0
C611 C 0.19446 0.25429 0.96887 0.0
C612 C 0.23181 0.28711 0.8729 0.0
H613 H 0.25762 0.22278 0.79376 0.0
C614 C 0.24653 0.32566 0.87138 0.0
C615 C 0.2356 0.2498 0.84414 0.0
C616 C 0.2198 0.20837 0.84299 0.0
C617 C 0.26522 0.32741 0.84254 0.0
C618 C 0.26929 0.28971 0.81463 0.0
C619 C 0.25442 0.2515 0.81549 0.0
C620 C 0.28921 0.28927 0.78479 0.0
C621 C 0.28064 0.36939 0.84197 0.0
C622 C 0.28633 0.30118 0.74118 0.0
C623 C 0.30531 0.30124 0.71317 0.0
C624 C 0.32737 0.28917 0.72839 0.0
C625 C 0.33011 0.27686 0.77204 0.0
C626 C 0.31118 0.27706 0.80006 0.0
H627 H 0.27411 0.39739 0.86329 0.0
H628 H 0.29825 0.35954 0.85284 0.0
H629 H 0.28214 0.38288 0.80847 0.0
H630 H 0.26945 0.31072 0.72895 0.0
H631 H 0.30279 0.31095 0.67967 0.0
H632 H 0.69533 0.31924 0.14023 0.0
H633 H 0.72809 0.31496 0.08981 0.0
H634 H 0.68523 0.2425 0.99791 0.0
H635 H 0.65247 0.24778 0.04776 0.0
H636 H 0.75066 0.2422 0.05367 0.0
H637 H 0.70953 0.34679 0.92472 0.0
H638 H 0.69773 0.34291 0.97856 0.0
H639 H 0.69262 0.29751 0.93992 0.0
C640 C 0.69301 0.30259 0.10915 0.0
C641 C 0.6714 0.28459 0.09736 0.0
C642 C 0.71166 0.30008 0.08045 0.0
C643 C 0.70898 0.27935 0.03965 0.0
C644 C 0.68754 0.25991 0.02861 0.0
H645 H 0.8012 0.2294 0.82231 0.0
H646 H 0.77016 0.22466 0.87596 0.0
C647 C 0.66888 0.26279 0.05709 0.0
C648 C 0.72856 0.27792 0.00866 0.0
H649 H 0.74448 0.30848 0.90619 0.0
C650 C 0.74934 0.25687 0.0215 0.0
C651 C 0.72686 0.2972 0.96668 0.0
C652 C 0.70557 0.32278 0.95174 0.0
C653 C 0.76831 0.25402 0.99327 0.0
C654 C 0.76643 0.27277 0.95125 0.0
C655 C 0.74572 0.29373 0.93835 0.0
C656 C 0.78607 0.27261 0.92059 0.0
C657 C 0.79016 0.23061 0.00827 0.0
C658 C 0.80522 0.30116 0.928 0.0
C659 C 0.82294 0.30394 0.89743 0.0
C660 C 0.82193 0.27784 0.85913 0.0
C661 C 0.80285 0.2488 0.85204 0.0
C662 C 0.78499 0.2464 0.88247 0.0
H663 H 0.78745 0.2105 0.03844 0.0
H664 H 0.79686 0.2071 0.9828 0.0
H665 H 0.80356 0.25717 0.01461 0.0
H666 H 0.80618 0.32219 0.95693 0.0
H667 H 0.83737 0.32686 0.90358 0.0
H668 H 0.16758 0.65068 0.90431 0.0
H669 H 0.19801 0.6538 0.95937 0.0
H670 H 0.23204 0.76221 0.88795 0.0
H671 H 0.2014 0.75964 0.83334 0.0
H672 H 0.2429 0.63612 0.95002 0.0
H673 H 0.23283 0.81622 0.00778 0.0
H674 H 0.21139 0.78809 0.97458 0.0
H675 H 0.23684 0.81273 0.95038 0.0
C676 C 0.18138 0.67569 0.90087 0.0
C677 C 0.18187 0.7058 0.86532 0.0
C678 C 0.19876 0.67741 0.93223 0.0
C679 C 0.21709 0.70892 0.92834 0.0
C680 C 0.2177 0.73871 0.89248 0.0
H681 H 0.34995 0.7383 0.05317 0.0
H682 H 0.31665 0.73915 0.00394 0.0
C683 C 0.20018 0.73728 0.86132 0.0
C684 C 0.23624 0.70855 0.96036 0.0
H685 H 0.2674 0.77706 0.02902 0.0
C686 C 0.24809 0.66686 0.96758 0.0
C687 C 0.24302 0.74866 0.98334 0.0
C688 C 0.23021 0.79383 0.979 0.0
C689 C 0.26679 0.66447 0.9964 0.0
C690 C 0.27381 0.70473 0.01854 0.0
C691 C 0.26195 0.74632 0.01172 0.0
C692 C 0.29374 0.7043 0.04847 0.0
C693 C 0.27928 0.61919 0.00251 0.0
C694 C 0.29173 0.68462 0.08976 0.0
C695 C 0.31068 0.68419 0.11786 0.0
C696 C 0.3319 0.70308 0.10487 0.0
C697 C 0.33383 0.72292 0.0636 0.0
C698 C 0.31485 0.72367 0.03565 0.0
H699 H 0.27327 0.59229 0.97947 0.0
H700 H 0.29817 0.62417 0.99829 0.0
H701 H 0.27637 0.60651 0.03593 0.0
H702 H 0.2755 0.66973 0.10021 0.0
H703 H 0.30883 0.6689 0.14964 0.0
H704 H 0.029 0.05737 0.2199 0.0
H705 H 0.00653 0.033 0.28287 0.0
H706 H 0.039 0.13921 0.3596 0.0
H707 H 0.06153 0.16361 0.29707 0.0
H708 H 0.03434 0.05502 0.40368 0.0
H709 H 0.95181 0.10952 0.32581 0.0
H710 H 0.96899 0.06691 0.29837 0.0
H711 H 0.97952 0.12497 0.30348 0.0
C712 C 0.03155 0.07516 0.25034 0.0
C713 C 0.04685 0.1128 0.25337 0.0
C714 C 0.01864 0.06121 0.2863 0.0
C715 C 0.02093 0.08452 0.32588 0.0
C716 C 0.03697 0.12068 0.32938 0.0
H717 H 0.94474 0.18554 0.52759 0.0
H718 H 0.96373 0.16101 0.46119 0.0
C719 C 0.04976 0.13477 0.29352 0.0
C720 C 0.00569 0.07433 0.36321 0.0
H721 H 0.95094 0.0939 0.3998 0.0
C722 C 0.01598 0.0625 0.4028 0.0
C723 C 0.98173 0.08386 0.36176 0.0
C724 C 0.96975 0.09725 0.32024 0.0
C725 C 0.00338 0.06385 0.44159 0.0
C726 C 0.9798 0.07653 0.44046 0.0
C727 C 0.96906 0.08439 0.40045 0.0
C728 C 0.96709 0.08941 0.4803 0.0
C729 C 0.01586 0.05574 0.48374 0.0
C730 C 0.96241 0.05715 0.51298 0.0
C731 C 0.95162 0.07118 0.55137 0.0
C732 C 0.94527 0.11769 0.5575 0.0
C733 C 0.94949 0.14953 0.52413 0.0
C734 C 0.96027 0.13552 0.486 0.0
H735 H 0.03474 0.05105 0.4791 0.0
H736 H 0.01303 0.0853 0.50602 0.0
H737 H 0.00888 0.02434 0.49955 0.0
H738 H 0.96724 0.02132 0.50893 0.0
H739 H 0.94847 0.04572 0.57632 0.0
H740 H 0.07123 0.94899 0.57435 0.0
H741 H 0.04735 0.9766 0.51392 0.0
H742 H 0.01453 0.84319 0.50594 0.0
H743 H 0.03823 0.81531 0.56546 0.0
H744 H 0.04458 0.9359 0.42822 0.0
H745 H 0.95959 0.93452 0.50999 0.0
H746 H 0.98661 0.93983 0.539 0.0
H747 H 0.97657 0.88409 0.52133 0.0
C748 C 0.0588 0.9257 0.55983 0.0
C749 C 0.05658 0.87999 0.57476 0.0
C750 C 0.04515 0.94159 0.52545 0.0
C751 C 0.02879 0.91228 0.50624 0.0
C752 C 0.02666 0.86671 0.52105 0.0
H753 H 0.94974 0.82222 0.30949 0.0
H754 H 0.96957 0.84729 0.37485 0.0
C755 C 0.04039 0.85071 0.55487 0.0
C756 C 0.01474 0.92718 0.4688 0.0
H757 H 0.95915 0.92328 0.43257 0.0
C758 C 0.02586 0.93463 0.42915 0.0
C759 C 0.99035 0.9262 0.47038 0.0
C760 C 0.97754 0.92121 0.51257 0.0
C761 C 0.01328 0.93559 0.39029 0.0
C762 C 0.98903 0.92962 0.39157 0.0
C763 C 0.97777 0.92726 0.43166 0.0
C764 C 0.97576 0.91696 0.35237 0.0
C765 C 0.02615 0.93873 0.34803 0.0
C766 C 0.97238 0.9481 0.31822 0.0
C767 C 0.9611 0.93373 0.2804 0.0
C768 C 0.95297 0.88804 0.27638 0.0
C769 C 0.95587 0.85753 0.31129 0.0
C770 C 0.96713 0.87186 0.34881 0.0
H771 H 0.04517 0.94009 0.35267 0.0
H772 H 0.0219 0.9086 0.32727 0.0
H773 H 0.02073 0.97034 0.3306 0.0
H774 H 0.97862 0.98322 0.32072 0.0
H775 H 0.959 0.9582 0.25421 0.0
H776 H 0.04837 0.88147 0.74742 0.0
H777 H 0.0215 0.91019 0.80202 0.0
H778 H 0.06433 0.85315 0.90271 0.0
H779 H 0.09133 0.82408 0.84849 0.0
H780 H 0.00204 0.83688 0.85659 0.0
H781 H 0.04041 0.9789 0.95419 0.0
H782 H 0.04752 0.97009 0.89776 0.0
H783 H 0.05911 0.93228 0.93823 0.0
C784 C 0.05253 0.87621 0.78121 0.0
C785 C 0.07187 0.84973 0.79349 0.0
C786 C 0.03714 0.89284 0.81237 0.0
C787 C 0.04098 0.88398 0.85635 0.0
C788 C 0.06124 0.86101 0.86896 0.0
H789 H 0.97245 0.85387 0.09512 0.0
H790 H 0.99815 0.87625 0.03638 0.0
C791 C 0.0766 0.84412 0.83782 0.0
C792 C 0.02195 0.88992 0.88781 0.0
H793 H 0.007 0.94255 0.98248 0.0
C794 C 0.00285 0.86051 0.8838 0.0
C795 C 0.02338 0.92026 0.92342 0.0
C796 C 0.04361 0.9525 0.92882 0.0
C797 C 0.98572 0.85854 0.91574 0.0
C798 C 0.98709 0.8887 0.95184 0.0
C799 C 0.00578 0.91968 0.95479 0.0
C800 C 0.97088 0.88453 0.98901 0.0
C801 C 0.96734 0.82168 0.91171 0.0
C802 C 0.9468 0.88423 0.98285 0.0
C803 C 0.93209 0.86987 0.01614 0.0
C804 C 0.94115 0.85765 0.05669 0.0
C805 C 0.96495 0.86303 0.06418 0.0
C806 C 0.97969 0.8759 0.03055 0.0
H807 H 0.97234 0.79428 0.88834 0.0
H808 H 0.96389 0.80502 0.94338 0.0
H809 H 0.9511 0.83755 0.89982 0.0
H810 H 0.93947 0.89262 0.95162 0.0
H811 H 0.91376 0.86665 0.0097 0.0
H812 H 0.08392 0.17655 0.98445 0.0
H813 H 0.05596 0.15007 0.93056 0.0
H814 H 0.01515 0.08716 0.03098 0.0
H815 H 0.04293 0.1133 0.08526 0.0
H816 H 0.02797 0.0507 0.91665 0.0
H817 H 0.98095 0.20855 0.97123 0.0
H818 H 0.0119 0.20376 0.97667 0.0
H819 H 0.99337 0.17028 0.01086 0.0
C820 C 0.06937 0.15595 0.99506 0.0
C821 C 0.06548 0.14783 0.03934 0.0
C822 C 0.05348 0.14065 0.96414 0.0
C823 C 0.03351 0.11694 0.97695 0.0
C824 C 0.03053 0.10533 0.02057 0.0
H825 H 0.90692 0.14502 0.82956 0.0
H826 H 0.93248 0.11797 0.88718 0.0
C827 C 0.04642 0.12051 0.05154 0.0
C828 C 0.0141 0.11193 0.94623 0.0
H829 H 0.96587 0.16861 0.91222 0.0
C830 C 0.01413 0.07587 0.91595 0.0
C831 C 0.99611 0.14484 0.94565 0.0
C832 C 0.9954 0.18424 0.97766 0.0
C833 C 0.99666 0.07234 0.88441 0.0
C834 C 0.97928 0.10682 0.88236 0.0
C835 C 0.97902 0.14197 0.91372 0.0
C836 C 0.96251 0.11058 0.846 0.0
C837 C 0.99707 0.03174 0.85385 0.0
C838 C 0.97049 0.11328 0.80318 0.0
C839 C 0.95576 0.12783 0.77004 0.0
C840 C 0.93291 0.14116 0.77925 0.0
C841 C 0.92448 0.13531 0.82149 0.0
C842 C 0.93909 0.11985 0.85447 0.0
H843 H 0.00456 0.00077 0.86977 0.0
H844 H 0.97951 0.023 0.84197 0.0
H845 H 0.00818 0.04019 0.82572 0.0
H846 H 0.98854 0.10754 0.79575 0.0
H847 H 0.96286 0.13222 0.7379 0.0
H848 H 0.47012 0.55191 0.10597 0.0
H849 H 0.49253 0.52712 0.04277 0.0
H850 H 0.46832 0.6459 0.97193 0.0
H851 H 0.44576 0.67061 0.03437 0.0
H852 H 0.469 0.5593 0.92388 0.0
H853 H 0.5521 0.59958 0.00719 0.0
H854 H 0.53158 0.56244 0.03365 0.0
H855 H 0.52498 0.62241 0.02645 0.0
C856 C 0.46939 0.57248 0.07677 0.0
C857 C 0.45637 0.61357 0.07537 0.0
C858 C 0.48226 0.55829 0.04077 0.0
C859 C 0.48227 0.58497 0.00291 0.0
C860 C 0.46854 0.62484 0.0009 0.0
H861 H 0.559 0.68801 0.80614 0.0
H862 H 0.53925 0.66137 0.87101 0.0
C863 C 0.45574 0.63905 0.03672 0.0
C864 C 0.49762 0.57402 0.96602 0.0
H865 H 0.55318 0.58964 0.9322 0.0
C866 C 0.48752 0.56447 0.92575 0.0
C867 C 0.52176 0.58095 0.96874 0.0
C868 C 0.5334 0.59205 0.01117 0.0
C869 C 0.50067 0.5652 0.88762 0.0
C870 C 0.52448 0.57578 0.89 0.0
C871 C 0.53491 0.58154 0.93061 0.0
C872 C 0.53767 0.58978 0.85111 0.0
C873 C 0.48866 0.55885 0.84478 0.0
C874 C 0.54361 0.55816 0.81855 0.0
C875 C 0.5549 0.57341 0.78104 0.0
C876 C 0.56043 0.62047 0.77568 0.0
C877 C 0.55491 0.65163 0.80898 0.0
C878 C 0.54368 0.63642 0.84622 0.0
H879 H 0.47005 0.55039 0.84859 0.0
H880 H 0.49027 0.59086 0.82525 0.0
H881 H 0.49706 0.53055 0.82654 0.0
H882 H 0.53936 0.5219 0.82197 0.0
H883 H 0.55902 0.54848 0.7561 0.0
H884 H 0.43661 0.33757 0.79802 0.0
H885 H 0.4577 0.36463 0.86131 0.0
H886 H 0.49407 0.46361 0.78238 0.0
H887 H 0.47309 0.43644 0.7187 0.0
H888 H 0.52333 0.41846 0.83007 0.0
H889 H 0.45371 0.47492 0.93873 0.0
H890 H 0.44697 0.41863 0.91828 0.0
H891 H 0.44921 0.46673 0.88142 0.0
C892 C 0.4488 0.36565 0.79419 0.0
C893 C 0.45317 0.38478 0.75325 0.0
C894 C 0.46068 0.38155 0.8306 0.0
C895 C 0.47705 0.41718 0.82705 0.0
C896 C 0.48119 0.43684 0.78627 0.0
H897 H 0.54345 0.45457 0.08155 0.0
H898 H 0.52544 0.47989 0.0137 0.0
C899 C 0.46923 0.42107 0.74979 0.0
C900 C 0.49156 0.4295 0.86503 0.0
H901 H 0.48818 0.44368 0.97439 0.0
C902 C 0.51564 0.42505 0.86144 0.0
C903 C 0.48184 0.44008 0.90584 0.0
C904 C 0.45653 0.45096 0.91115 0.0
C905 C 0.52985 0.42552 0.89821 0.0
C906 C 0.51963 0.4292 0.9396 0.0
C907 C 0.49596 0.43918 0.94277 0.0
C908 C 0.5324 0.41632 0.97947 0.0
C909 C 0.55557 0.42025 0.89244 0.0
C910 C 0.54217 0.37206 0.98279 0.0
C911 C 0.55237 0.35743 0.02131 0.0
C912 C 0.55289 0.3866 0.05763 0.0
C913 C 0.54336 0.43123 0.05417 0.0
C914 C 0.53309 0.44583 0.01546 0.0
H915 H 0.5613 0.43598 0.86148 0.0
H916 H 0.56527 0.43654 0.91942 0.0
H917 H 0.55999 0.38296 0.8913 0.0
H918 H 0.54129 0.34814 0.9559 0.0
H919 H 0.5595 0.32286 0.02277 0.0
H920 H 0.58294 0.33356 0.33469 0.0
H921 H 0.55387 0.35725 0.38752 0.0
H922 H 0.51072 0.40915 0.28493 0.0
H923 H 0.53965 0.38585 0.23164 0.0
H924 H 0.52051 0.45242 0.39668 0.0
H925 H 0.48309 0.28212 0.34939 0.0
H926 H 0.51371 0.29284 0.34506 0.0
H927 H 0.49412 0.32058 0.30849 0.0
C928 C 0.56763 0.35135 0.32333 0.0
C929 C 0.56345 0.35696 0.2788 0.0
C930 C 0.55108 0.36504 0.35365 0.0
C931 C 0.53017 0.3846 0.33995 0.0
C932 C 0.52683 0.3942 0.29599 0.0
H933 H 0.4054 0.33784 0.48913 0.0
H934 H 0.42975 0.36545 0.42997 0.0
C935 C 0.5434 0.38069 0.26561 0.0
C936 C 0.51051 0.38671 0.3703 0.0
H937 H 0.46601 0.32079 0.40727 0.0
C938 C 0.50833 0.42413 0.39878 0.0
C939 C 0.49464 0.34977 0.37255 0.0
C940 C 0.49634 0.30885 0.34241 0.0
C941 C 0.49083 0.42504 0.43034 0.0
C942 C 0.47565 0.38681 0.43411 0.0
C943 C 0.47749 0.35023 0.40443 0.0
C944 C 0.45919 0.38118 0.47063 0.0
C945 C 0.48886 0.46689 0.45915 0.0
C946 C 0.46724 0.38257 0.51345 0.0
C947 C 0.45321 0.36754 0.54739 0.0
C948 C 0.43104 0.34973 0.53905 0.0
C949 C 0.42247 0.35103 0.49655 0.0
C950 C 0.43637 0.36684 0.46271 0.0
H951 H 0.49423 0.49859 0.44167 0.0
H952 H 0.47096 0.47183 0.47119 0.0
H953 H 0.5006 0.46272 0.48725 0.0
H954 H 0.48491 0.39228 0.52048 0.0
H955 H 0.4604 0.36678 0.57973 0.0
H956 H 0.54689 0.6227 0.60058 0.0
H957 H 0.51932 0.59637 0.546 0.0
H958 H 0.56354 0.64857 0.44518 0.0
H959 H 0.59127 0.67489 0.49928 0.0
H960 H 0.50166 0.67098 0.49044 0.0
H961 H 0.53807 0.5271 0.39211 0.0
H962 H 0.54234 0.52995 0.45005 0.0
H963 H 0.55725 0.56928 0.41511 0.0
C964 C 0.55118 0.62723 0.56676 0.0
C965 C 0.57117 0.65156 0.55436 0.0
C966 C 0.53539 0.61204 0.53562 0.0
C967 C 0.53948 0.62024 0.4916 0.0
C968 C 0.56026 0.64113 0.47895 0.0
H969 H 0.47089 0.6504 0.25187 0.0
H970 H 0.49651 0.6287 0.31096 0.0
C971 C 0.57603 0.65649 0.51002 0.0
C972 C 0.52041 0.61577 0.46 0.0
H973 H 0.50437 0.56309 0.36596 0.0
C974 C 0.50198 0.64692 0.46352 0.0
C975 C 0.52126 0.58496 0.42468 0.0
C976 C 0.5407 0.55068 0.42 0.0
C977 C 0.48491 0.64988 0.4315 0.0
C978 C 0.48563 0.61903 0.39585 0.0
C979 C 0.50369 0.58657 0.39327 0.0
C980 C 0.46933 0.62355 0.35885 0.0
C981 C 0.46731 0.68828 0.43497 0.0
C982 C 0.4453 0.62552 0.36531 0.0
C983 C 0.43065 0.63947 0.33175 0.0
C984 C 0.4397 0.64966 0.29072 0.0
C985 C 0.4634 0.64285 0.28317 0.0
C986 C 0.4781 0.63035 0.31701 0.0
H987 H 0.47297 0.7158 0.45768 0.0
H988 H 0.46404 0.70445 0.403 0.0
H989 H 0.45082 0.67404 0.44742 0.0
H990 H 0.43799 0.61855 0.39684 0.0
H991 H 0.41238 0.64377 0.33826 0.0
loop_
_geom_bond_atom_site_label_1
_geom_bond_atom_site_label_2
_geom_bond_distance
_geom_bond_site_symmetry_2
_ccdc_geom_bond_type
Co0 O3 1.970 . S
Co0 N17 1.989 . S
Co0 O25 1.967 . S
Co0 O32 1.920 . S
Co1 O4 1.966 . S
Co1 N10 2.022 . S
Co1 N18 1.993 . S
Co1 O26 1.941 . S
C2 O3 1.258 . S
C2 O4 1.263 . S
O3 Co0 1.970 . S
O3 C2 1.258 . S
O4 Co1 1.966 . S
O4 C2 1.263 . S
C5 O6 1.235 . S
C5 O32 1.289 . S
O6 C5 1.235 . S
C7 C9 1.400 1_554 S
C7 N10 1.351 . S
C7 C12 1.501 1_554 S
C8 C9 1.387 1_554 S
C8 N11 1.341 . S
C9 C7 1.400 1_556 S
C9 C8 1.387 1_556 S
N10 Co1 2.022 . S
N10 C7 1.351 . S
N10 N11 1.365 . S
N11 C8 1.341 . S
N11 N10 1.365 . S
N11 H31 0.862 . S
C12 C7 1.501 1_556 S
C12 H13 0.961 1_556 S
C12 H14 0.961 . S
C12 H15 0.960 . S
H13 C12 0.961 1_554 S
H14 C12 0.961 . S
H15 C12 0.960 . S
C16 N17 1.342 . S
C16 C20 1.401 . S
C16 C21 1.499 . S
N17 Co0 1.989 . S
N17 C16 1.342 . S
N17 N18 1.388 . S
N18 Co1 1.993 . S
N18 N17 1.388 . S
N18 C19 1.346 . S
C19 N18 1.346 . S
C19 C20 1.396 . S
C19 C29 1.510 . S
C20 C16 1.401 . S
C20 C19 1.396 . S
C21 C16 1.499 . S
C21 H22 0.959 . S
C21 H23 0.960 . S
C21 H24 0.961 . S
H22 C21 0.959 . S
H23 C21 0.960 . S
H24 C21 0.961 . S
O25 Co0 1.967 . S
O25 C33 1.258 . S
O26 Co1 1.941 . S
O26 C33 1.266 . S
H27 C29 0.959 . S
H28 C29 0.961 . S
C29 C19 1.510 . S
C29 H27 0.959 . S
C29 H28 0.961 . S
C29 H30 0.960 . S
H30 C29 0.960 . S
H31 N11 0.862 . S
O32 Co0 1.920 . S
O32 C5 1.289 . S
C33 O25 1.258 . S
C33 O26 1.266 . S
Co34 O37 1.970 . S
Co34 N51 1.989 . S
Co34 O59 1.967 . S
Co34 O66 1.920 . S
Co35 O38 1.966 . S
Co35 N44 2.022 . S
Co35 N52 1.993 . S
Co35 O60 1.941 . S
C36 O37 1.258 . S
C36 O38 1.263 . S
O37 Co34 1.970 . S
O37 C36 1.258 . S
O38 Co35 1.966 . S
O38 C36 1.263 . S
C39 O40 1.235 . S
C39 O66 1.289 . S
O40 C39 1.235 . S
C41 C43 1.400 1_554 S
C41 N44 1.351 . S
C41 C46 1.501 1_554 S
C42 C43 1.387 1_554 S
C42 N45 1.341 . S
C43 C41 1.400 1_556 S
C43 C42 1.387 1_556 S
N44 Co35 2.022 . S
N44 C41 1.351 . S
N44 N45 1.365 . S
N45 C42 1.341 . S
N45 N44 1.365 . S
N45 H65 0.862 . S
C46 C41 1.501 1_556 S
C46 H47 0.961 1_556 S
C46 H48 0.961 . S
C46 H49 0.960 . S
H47 C46 0.961 1_554 S
H48 C46 0.961 . S
H49 C46 0.960 . S
C50 N51 1.342 . S
C50 C54 1.401 . S
C50 C55 1.499 . S
N51 Co34 1.989 . S
N51 C50 1.342 . S
N51 N52 1.388 . S
N52 Co35 1.993 . S
N52 N51 1.388 . S
N52 C53 1.346 . S
C53 N52 1.346 . S
C53 C54 1.396 . S
C53 C63 1.510 . S
C54 C50 1.401 . S
C54 C53 1.396 . S
C55 C50 1.499 . S
C55 H56 0.959 . S
C55 H57 0.960 . S
C55 H58 0.961 . S
H56 C55 0.959 . S
H57 C55 0.960 . S
H58 C55 0.961 . S
O59 Co34 1.967 . S
O59 C67 1.258 . S
O60 Co35 1.941 . S
O60 C67 1.266 . S
H61 C63 0.959 . S
H62 C63 0.961 . S
C63 C53 1.510 . S
C63 H61 0.959 . S
C63 H62 0.961 . S
C63 H64 0.960 . S
H64 C63 0.960 . S
H65 N45 0.862 . S
O66 Co34 1.920 . S
O66 C39 1.289 . S
C67 O59 1.258 . S
C67 O60 1.266 . S
Co68 O71 1.970 . S
Co68 N85 1.989 . S
Co68 O93 1.967 . S
Co68 O100 1.920 . S
Co69 O72 1.966 . S
Co69 N78 2.022 . S
Co69 N86 1.993 . S
Co69 O94 1.941 . S
C70 O71 1.258 . S
C70 O72 1.263 . S
O71 Co68 1.970 . S
O71 C70 1.258 . S
O72 Co69 1.966 . S
O72 C70 1.263 . S
C73 O74 1.235 . S
C73 O100 1.289 . S
O74 C73 1.235 . S
C75 C77 1.400 . S
C75 N78 1.351 . S
C75 C80 1.501 . S
C76 C77 1.387 . S
C76 N79 1.341 . S
C77 C75 1.400 . S
C77 C76 1.387 . S
N78 Co69 2.022 . S
N78 C75 1.351 . S
N78 N79 1.365 . S
N79 C76 1.341 . S
N79 N78 1.365 . S
N79 H99 0.862 . S
C80 C75 1.501 . S
C80 H81 0.961 . S
C80 H82 0.961 . S
C80 H83 0.960 . S
H81 C80 0.961 . S
H82 C80 0.961 . S
H83 C80 0.960 . S
C84 N85 1.342 . S
C84 C88 1.401 . S
C84 C89 1.499 . S
N85 Co68 1.989 . S
N85 C84 1.342 . S
N85 N86 1.388 . S
N86 Co69 1.993 . S
N86 N85 1.388 . S
N86 C87 1.346 . S
C87 N86 1.346 . S
C87 C88 1.396 . S
C87 C97 1.510 . S
C88 C84 1.401 . S
C88 C87 1.396 . S
C89 C84 1.499 . S
C89 H90 0.959 . S
C89 H91 0.960 . S
C89 H92 0.961 . S
H90 C89 0.959 . S
H91 C89 0.960 . S
H92 C89 0.961 . S
O93 Co68 1.967 . S
O93 C101 1.258 . S
O94 Co69 1.941 . S
O94 C101 1.266 . S
H95 C97 0.959 . S
H96 C97 0.961 . S
C97 C87 1.510 . S
C97 H95 0.959 . S
C97 H96 0.961 . S
C97 H98 0.960 . S
H98 C97 0.960 . S
H99 N79 0.862 . S
O100 Co68 1.920 . S
O100 C73 1.289 . S
C101 O93 1.258 . S
C101 O94 1.266 . S
Co102 O105 1.970 . S
Co102 N119 1.989 . S
Co102 O127 1.967 . S
Co102 O134 1.920 . S
Co103 O106 1.966 . S
Co103 N112 2.022 . S
Co103 N120 1.993 . S
Co103 O128 1.941 . S
C104 O105 1.258 . S
C104 O106 1.263 . S
O105 Co102 1.970 . S
O105 C104 1.258 . S
O106 Co103 1.966 . S
O106 C104 1.263 . S
C107 O108 1.235 . S
C107 O134 1.289 . S
O108 C107 1.235 . S
C109 C111 1.400 . S
C109 N112 1.351 . S
C109 C114 1.501 . S
C110 C111 1.387 . S
C110 N113 1.341 . S
C111 C109 1.400 . S
C111 C110 1.387 . S
N112 Co103 2.022 . S
N112 C109 1.351 . S
N112 N113 1.365 . S
N113 C110 1.341 . S
N113 N112 1.365 . S
N113 H133 0.862 . S
C114 C109 1.501 . S
C114 H115 0.961 . S
C114 H116 0.961 . S
C114 H117 0.960 . S
H115 C114 0.961 . S
H116 C114 0.961 . S
H117 C114 0.960 . S
C118 N119 1.342 . S
C118 C122 1.401 . S
C118 C123 1.499 . S
N119 Co102 1.989 . S
N119 C118 1.342 . S
N119 N120 1.388 . S
N120 Co103 1.993 . S
N120 N119 1.388 . S
N120 C121 1.346 . S
C121 N120 1.346 . S
C121 C122 1.396 . S
C121 C131 1.510 . S
C122 C118 1.401 . S
C122 C121 1.396 . S
C123 C118 1.499 . S
C123 H124 0.959 . S
C123 H125 0.960 . S
C123 H126 0.961 . S
H124 C123 0.959 . S
H125 C123 0.960 . S
H126 C123 0.961 . S
O127 Co102 1.967 . S
O127 C135 1.258 . S
O128 Co103 1.941 . S
O128 C135 1.266 . S
H129 C131 0.959 . S
H130 C131 0.961 . S
C131 C121 1.510 . S
C131 H129 0.959 . S
C131 H130 0.961 . S
C131 H132 0.960 . S
H132 C131 0.960 . S
H133 N113 0.862 . S
O134 Co102 1.920 . S
O134 C107 1.289 . S
C135 O127 1.258 . S
C135 O128 1.266 . S
Co136 O139 1.970 . S
Co136 N153 1.989 . S
Co136 O161 1.967 . S
Co136 O168 1.920 . S
Co137 O140 1.966 . S
Co137 N146 2.022 . S
Co137 N154 1.993 . S
Co137 O162 1.941 . S
C138 O139 1.258 . S
C138 O140 1.263 . S
O139 Co136 1.970 . S
O139 C138 1.258 . S
O140 Co137 1.966 . S
O140 C138 1.263 . S
C141 O142 1.235 . S
C141 O168 1.289 . S
O142 C141 1.235 . S
C143 C145 1.400 . S
C143 N146 1.351 . S
C143 C148 1.501 . S
C144 C145 1.387 . S
C144 N147 1.341 . S
C145 C143 1.400 . S
C145 C144 1.387 . S
N146 Co137 2.022 . S
N146 C143 1.351 . S
N146 N147 1.365 . S
N147 C144 1.341 . S
N147 N146 1.365 . S
N147 H167 0.862 . S
C148 C143 1.501 . S
C148 H149 0.961 . S
C148 H150 0.961 . S
C148 H151 0.960 . S
H149 C148 0.961 . S
H150 C148 0.961 . S
H151 C148 0.960 . S
C152 N153 1.342 . S
C152 C156 1.401 . S
C152 C157 1.499 . S
N153 Co136 1.989 . S
N153 C152 1.342 . S
N153 N154 1.388 . S
N154 Co137 1.993 . S
N154 N153 1.388 . S
N154 C155 1.346 . S
C155 N154 1.346 . S
C155 C156 1.396 . S
C155 C165 1.510 . S
C156 C152 1.401 . S
C156 C155 1.396 . S
C157 C152 1.499 . S
C157 H158 0.959 . S
C157 H159 0.960 . S
C157 H160 0.961 . S
H158 C157 0.959 . S
H159 C157 0.960 . S
H160 C157 0.961 . S
O161 Co136 1.967 . S
O161 C169 1.258 . S
O162 Co137 1.941 . S
O162 C169 1.266 . S
H163 C165 0.959 . S
H164 C165 0.961 . S
C165 C155 1.510 . S
C165 H163 0.959 . S
C165 H164 0.961 . S
C165 H166 0.960 . S
H166 C165 0.960 . S
H167 N147 0.862 . S
O168 Co136 1.920 . S
O168 C141 1.289 . S
C169 O161 1.258 . S
C169 O162 1.266 . S
Co170 O173 1.970 . S
Co170 N187 1.989 . S
Co170 O195 1.967 . S
Co170 O202 1.920 . S
Co171 O174 1.966 . S
Co171 N180 2.022 . S
Co171 N188 1.993 . S
Co171 O196 1.941 . S
C172 O173 1.258 . S
C172 O174 1.263 . S
O173 Co170 1.970 . S
O173 C172 1.258 . S
O174 Co171 1.966 . S
O174 C172 1.263 . S
C175 O176 1.235 . S
C175 O202 1.289 . S
O176 C175 1.235 . S
C177 C179 1.400 . S
C177 N180 1.351 . S
C177 C182 1.501 . S
C178 C179 1.387 . S
C178 N181 1.341 . S
C179 C177 1.400 . S
C179 C178 1.387 . S
N180 Co171 2.022 . S
N180 C177 1.351 . S
N180 N181 1.365 . S
N181 C178 1.341 . S
N181 N180 1.365 . S
N181 H201 0.862 . S
C182 C177 1.501 . S
C182 H183 0.961 . S
C182 H184 0.961 . S
C182 H185 0.960 . S
H183 C182 0.961 . S
H184 C182 0.961 . S
H185 C182 0.960 . S
C186 N187 1.342 . S
C186 C190 1.401 . S
C186 C191 1.499 . S
N187 Co170 1.989 . S
N187 C186 1.342 . S
N187 N188 1.388 . S
N188 Co171 1.993 . S
N188 N187 1.388 . S
N188 C189 1.346 . S
C189 N188 1.346 . S
C189 C190 1.396 . S
C189 C199 1.510 . S
C190 C186 1.401 . S
C190 C189 1.396 . S
C191 C186 1.499 . S
C191 H192 0.959 . S
C191 H193 0.960 . S
C191 H194 0.961 . S
H192 C191 0.959 . S
H193 C191 0.960 . S
H194 C191 0.961 . S
O195 Co170 1.967 . S
O195 C203 1.258 . S
O196 Co171 1.941 . S
O196 C203 1.266 . S
H197 C199 0.959 . S
H198 C199 0.961 . S
C199 C189 1.510 . S
C199 H197 0.959 . S
C199 H198 0.961 . S
C199 H200 0.960 . S
H200 C199 0.960 . S
H201 N181 0.862 . S
O202 Co170 1.920 . S
O202 C175 1.289 . S
C203 O195 1.258 . S
C203 O196 1.266 . S
Co204 O207 1.970 . S
Co204 N221 1.989 . S
Co204 O229 1.967 . S
Co204 O236 1.920 . S
Co205 O208 1.966 . S
Co205 N214 2.022 . S
Co205 N222 1.993 . S
Co205 O230 1.941 . S
C206 O207 1.258 . S
C206 O208 1.263 . S
O207 Co204 1.970 . S
O207 C206 1.258 . S
O208 Co205 1.966 . S
O208 C206 1.263 . S
C209 O210 1.235 . S
C209 O236 1.289 . S
O210 C209 1.235 . S
C211 C213 1.400 . S
C211 N214 1.351 . S
C211 C216 1.501 . S
C212 C213 1.387 . S
C212 N215 1.341 . S
C213 C211 1.400 . S
C213 C212 1.387 . S
N214 Co205 2.022 . S
N214 C211 1.351 . S
N214 N215 1.365 . S
N215 C212 1.341 . S
N215 N214 1.365 . S
N215 H235 0.862 . S
C216 C211 1.501 . S
C216 H217 0.961 . S
C216 H218 0.961 . S
C216 H219 0.960 . S
H217 C216 0.961 . S
H218 C216 0.961 . S
H219 C216 0.960 . S
C220 N221 1.342 . S
C220 C224 1.401 . S
C220 C225 1.499 . S
N221 Co204 1.989 . S
N221 C220 1.342 . S
N221 N222 1.388 . S
N222 Co205 1.993 . S
N222 N221 1.388 . S
N222 C223 1.346 . S
C223 N222 1.346 . S
C223 C224 1.396 . S
C223 C233 1.510 . S
C224 C220 1.401 . S
C224 C223 1.396 . S
C225 C220 1.499 . S
C225 H226 0.959 . S
C225 H227 0.960 . S
C225 H228 0.961 . S
H226 C225 0.959 . S
H227 C225 0.960 . S
H228 C225 0.961 . S
O229 Co204 1.967 . S
O229 C237 1.258 . S
O230 Co205 1.941 . S
O230 C237 1.266 . S
H231 C233 0.959 . S
H232 C233 0.961 . S
C233 C223 1.510 . S
C233 H231 0.959 . S
C233 H232 0.961 . S
C233 H234 0.960 . S
H234 C233 0.960 . S
H235 N215 0.862 . S
O236 Co204 1.920 . S
O236 C209 1.289 . S
C237 O229 1.258 . S
C237 O230 1.266 . S
Co238 O241 1.970 . S
Co238 N255 1.989 . S
Co238 O263 1.967 . S
Co238 O270 1.920 . S
Co239 O242 1.966 . S
Co239 N248 2.022 . S
Co239 N256 1.993 . S
Co239 O264 1.941 . S
C240 O241 1.258 . S
C240 O242 1.263 . S
O241 Co238 1.970 . S
O241 C240 1.258 . S
O242 Co239 1.966 . S
O242 C240 1.263 . S
C243 O244 1.235 . S
C243 O270 1.289 . S
O244 C243 1.235 . S
C245 C247 1.400 . S
C245 N248 1.351 . S
C245 C250 1.501 . S
C246 C247 1.387 . S
C246 N249 1.341 . S
C247 C245 1.400 . S
C247 C246 1.387 . S
N248 Co239 2.022 . S
N248 C245 1.351 . S
N248 N249 1.365 . S
N249 C246 1.341 . S
N249 N248 1.365 . S
N249 H269 0.862 . S
C250 C245 1.501 . S
C250 H251 0.961 . S
C250 H252 0.961 . S
C250 H253 0.960 . S
H251 C250 0.961 . S
H252 C250 0.961 . S
H253 C250 0.960 . S
C254 N255 1.342 . S
C254 C258 1.401 . S
C254 C259 1.499 . S
N255 Co238 1.989 . S
N255 C254 1.342 . S
N255 N256 1.388 . S
N256 Co239 1.993 . S
N256 N255 1.388 . S
N256 C257 1.346 . S
C257 N256 1.346 . S
C257 C258 1.396 . S
C257 C267 1.510 . S
C258 C254 1.401 . S
C258 C257 1.396 . S
C259 C254 1.499 . S
C259 H260 0.959 . S
C259 H261 0.960 . S
C259 H262 0.961 . S
H260 C259 0.959 . S
H261 C259 0.960 . S
H262 C259 0.961 . S
O263 Co238 1.967 . S
O263 C271 1.258 . S
O264 Co239 1.941 . S
O264 C271 1.266 . S
H265 C267 0.959 . S
H266 C267 0.961 . S
C267 C257 1.510 . S
C267 H265 0.959 . S
C267 H266 0.961 . S
C267 H268 0.960 . S
H268 C267 0.960 . S
H269 N249 0.862 . S
O270 Co238 1.920 . S
O270 C243 1.289 . S
C271 O263 1.258 . S
C271 O264 1.266 . S
H272 C280 0.929 . S
H273 C282 0.930 . S
H274 C284 0.930 . S
H275 C287 0.929 . S
H276 C290 0.930 . S
H277 C292 0.960 . S
H278 C292 0.960 . S
H279 C292 0.960 . S
C280 H272 0.929 . S
C280 C281 1.377 . S
C280 C282 1.384 . S
C281 C280 1.377 . S
C281 C287 1.390 . S
C282 H273 0.930 . S
C282 C280 1.384 . S
C282 C283 1.372 . S
C283 C282 1.372 . S
C283 C284 1.400 . S
C283 C288 1.490 . S
C284 H274 0.930 . S
C284 C283 1.400 . S
C284 C287 1.386 . S
H285 C301 0.930 . S
H286 C302 0.931 . S
C287 H275 0.929 . S
C287 C281 1.390 . S
C287 C284 1.386 . S
C288 C283 1.490 . S
C288 C290 1.395 . S
C288 C291 1.403 . S
H289 C295 0.930 . S
C290 H276 0.930 . S
C290 C288 1.395 . S
C290 C293 1.403 1_455 S
C291 C288 1.403 . S
C291 C292 1.524 . S
C291 C295 1.400 1_455 S
C292 H277 0.960 . S
C292 H278 0.960 . S
C292 H279 0.960 . S
C292 C291 1.524 . S
C293 C290 1.403 1_655 S
C293 C294 1.392 . S
C293 C297 1.495 . S
C294 C293 1.392 . S
C294 C295 1.385 . S
C294 C296 1.478 . S
C295 H289 0.930 . S
C295 C291 1.400 1_655 S
C295 C294 1.385 . S
C296 C294 1.478 . S
C296 C298 1.381 . S
C296 C302 1.383 . S
C297 C293 1.495 . S
C297 H303 0.959 1_554 S
C297 H304 0.961 . S
C297 H305 0.960 . S
C298 C296 1.381 . S
C298 C299 1.394 . S
C298 H306 0.930 . S
C299 C298 1.394 . S
C299 C300 1.383 . S
C299 H307 0.929 . S
C300 C299 1.383 . S
C300 C301 1.377 . S
C301 H285 0.930 . S
C301 C300 1.377 . S
C301 C302 1.379 . S
C302 H286 0.931 . S
C302 C296 1.383 . S
C302 C301 1.379 . S
H303 C297 0.959 1_556 S
H304 C297 0.961 . S
H305 C297 0.960 . S
H306 C298 0.930 . S
H307 C299 0.929 . S
H308 C316 0.929 . S
H309 C318 0.930 . S
H310 C320 0.930 . S
H311 C323 0.929 . S
H312 C326 0.930 . S
H313 C328 0.960 . S
H314 C328 0.960 . S
H315 C328 0.960 . S
C316 H308 0.929 . S
C316 C317 1.377 . S
C316 C318 1.384 . S
C317 C316 1.377 . S
C317 C323 1.390 . S
C318 H309 0.930 . S
C318 C316 1.384 . S
C318 C319 1.372 . S
C319 C318 1.372 . S
C319 C320 1.400 . S
C319 C324 1.490 . S
C320 H310 0.930 . S
C320 C319 1.400 . S
C320 C323 1.386 . S
H321 C337 0.930 . S
H322 C338 0.931 . S
C323 H311 0.929 . S
C323 C317 1.390 . S
C323 C320 1.386 . S
C324 C319 1.490 . S
C324 C326 1.395 1_655 S
C324 C327 1.403 . S
H325 C331 0.930 . S
C326 H312 0.930 . S
C326 C324 1.395 1_455 S
C326 C329 1.403 . S
C327 C324 1.403 . S
C327 C328 1.524 . S
C327 C331 1.400 . S
C328 H313 0.960 . S
C328 H314 0.960 . S
C328 H315 0.960 . S
C328 C327 1.524 . S
C329 C326 1.403 . S
C329 C330 1.392 . S
C329 C333 1.495 . S
C330 C329 1.392 . S
C330 C331 1.385 1_455 S
C330 C332 1.478 . S
C331 H325 0.930 . S
C331 C327 1.400 . S
C331 C330 1.385 1_655 S
C332 C330 1.478 . S
C332 C334 1.381 . S
C332 C338 1.383 . S
C333 C329 1.495 . S
C333 H339 0.959 . S
C333 H340 0.961 . S
C333 H341 0.960 . S
C334 C332 1.381 . S
C334 C335 1.394 . S
C334 H342 0.930 . S
C335 C334 1.394 . S
C335 C336 1.383 . S
C335 H343 0.929 . S
C336 C335 1.383 . S
C336 C337 1.377 . S
C337 H321 0.930 . S
C337 C336 1.377 . S
C337 C338 1.379 . S
C338 H322 0.931 . S
C338 C332 1.383 . S
C338 C337 1.379 . S
H339 C333 0.959 . S
H340 C333 0.961 . S
H341 C333 0.960 . S
H342 C334 0.930 . S
H343 C335 0.929 . S
H344 C352 0.929 . S
H345 C354 0.930 . S
H346 C356 0.930 . S
H347 C359 0.929 . S
H348 C362 0.930 . S
H349 C364 0.960 . S
H350 C364 0.960 . S
H351 C364 0.960 . S
C352 H344 0.929 . S
C352 C353 1.377 . S
C352 C354 1.384 . S
C353 C352 1.377 . S
C353 C359 1.390 . S
C354 H345 0.930 . S
C354 C352 1.384 . S
C354 C355 1.372 . S
C355 C354 1.372 . S
C355 C356 1.400 . S
C355 C360 1.490 . S
C356 H346 0.930 . S
C356 C355 1.400 . S
C356 C359 1.386 . S
H357 C373 0.930 . S
H358 C374 0.931 . S
C359 H347 0.929 . S
C359 C353 1.390 . S
C359 C356 1.386 . S
C360 C355 1.490 . S
C360 C362 1.395 . S
C360 C363 1.403 1_565 S
H361 C367 0.930 . S
C362 H348 0.930 . S
C362 C360 1.395 . S
C362 C365 1.403 . S
C363 C360 1.403 1_545 S
C363 C364 1.524 . S
C363 C367 1.400 . S
C364 H349 0.960 . S
C364 H350 0.960 . S
C364 H351 0.960 . S
C364 C363 1.524 . S
C365 C362 1.403 . S
C365 C366 1.392 1_565 S
C365 C369 1.495 . S
C366 C365 1.392 1_545 S
C366 C367 1.385 . S
C366 C368 1.478 . S
C367 H361 0.930 . S
C367 C363 1.400 . S
C367 C366 1.385 . S
C368 C366 1.478 . S
C368 C370 1.381 . S
C368 C374 1.383 . S
C369 C365 1.495 . S
C369 H375 0.959 . S
C369 H376 0.961 . S
C369 H377 0.960 . S
C370 C368 1.381 . S
C370 C371 1.394 . S
C370 H378 0.930 . S
C371 C370 1.394 . S
C371 C372 1.383 . S
C371 H379 0.929 . S
C372 C371 1.383 . S
C372 C373 1.377 . S
C373 H357 0.930 . S
C373 C372 1.377 . S
C373 C374 1.379 . S
C374 H358 0.931 . S
C374 C368 1.383 . S
C374 C373 1.379 . S
H375 C369 0.959 . S
H376 C369 0.961 . S
H377 C369 0.960 . S
H378 C370 0.930 . S
H379 C371 0.929 . S
H380 C388 0.929 . S
H381 C390 0.930 . S
H382 C392 0.930 . S
H383 C395 0.929 . S
H384 C398 0.930 . S
H385 C400 0.960 . S
H386 C400 0.960 . S
H387 C400 0.960 . S
C388 H380 0.929 . S
C388 C389 1.377 . S
C388 C390 1.384 . S
C389 C388 1.377 . S
C389 C395 1.390 . S
C390 H381 0.930 . S
C390 C388 1.384 . S
C390 C391 1.372 . S
C391 C390 1.372 . S
C391 C392 1.400 . S
C391 C396 1.490 . S
C392 H382 0.930 . S
C392 C391 1.400 . S
C392 C395 1.386 . S
H393 C409 0.930 . S
H394 C410 0.931 . S
C395 H383 0.929 . S
C395 C389 1.390 . S
C395 C392 1.386 . S
C396 C391 1.490 . S
C396 C398 1.395 . S
C396 C399 1.403 1_565 S
H397 C403 0.930 . S
C398 H384 0.930 . S
C398 C396 1.395 . S
C398 C401 1.403 . S
C399 C396 1.403 1_545 S
C399 C400 1.524 . S
C399 C403 1.400 . S
C400 H385 0.960 . S
C400 H386 0.960 . S
C400 H387 0.960 . S
C400 C399 1.524 . S
C401 C398 1.403 . S
C401 C402 1.392 1_565 S
C401 C405 1.495 . S
C402 C401 1.392 1_545 S
C402 C403 1.385 . S
C402 C404 1.478 . S
C403 H397 0.930 . S
C403 C399 1.400 . S
C403 C402 1.385 . S
C404 C402 1.478 . S
C404 C406 1.381 . S
C404 C410 1.383 . S
C405 C401 1.495 . S
C405 H411 0.959 . S
C405 H412 0.961 . S
C405 H413 0.960 . S
C406 C404 1.381 . S
C406 C407 1.394 . S
C406 H414 0.930 . S
C407 C406 1.394 . S
C407 C408 1.383 . S
C407 H415 0.929 . S
C408 C407 1.383 . S
C408 C409 1.377 . S
C409 H393 0.930 . S
C409 C408 1.377 . S
C409 C410 1.379 . S
C410 H394 0.931 . S
C410 C404 1.383 . S
C410 C409 1.379 . S
H411 C405 0.959 . S
H412 C405 0.961 . S
H413 C405 0.960 . S
H414 C406 0.930 . S
H415 C407 0.929 . S
H416 C424 0.929 . S
H417 C426 0.930 . S
H418 C428 0.930 . S
H419 C431 0.929 . S
H420 C434 0.930 . S
H421 C436 0.960 . S
H422 C436 0.960 . S
H423 C436 0.960 . S
C424 H416 0.929 . S
C424 C425 1.377 . S
C424 C426 1.384 . S
C425 C424 1.377 . S
C425 C431 1.390 . S
C426 H417 0.930 . S
C426 C424 1.384 . S
C426 C427 1.372 . S
C427 C426 1.372 . S
C427 C428 1.400 . S
C427 C432 1.490 . S
C428 H418 0.930 . S
C428 C427 1.400 . S
C428 C431 1.386 . S
H429 C445 0.930 . S
H430 C446 0.931 . S
C431 H419 0.929 . S
C431 C425 1.390 . S
C431 C428 1.386 . S
C432 C427 1.490 . S
C432 C434 1.395 . S
C432 C435 1.403 . S
H433 C439 0.930 . S
C434 H420 0.930 . S
C434 C432 1.395 . S
C434 C437 1.403 . S
C435 C432 1.403 . S
C435 C436 1.524 . S
C435 C439 1.400 . S
C436 H421 0.960 . S
C436 H422 0.960 . S
C436 H423 0.960 . S
C436 C435 1.524 . S
C437 C434 1.403 . S
C437 C438 1.392 . S
C437 C441 1.495 . S
C438 C437 1.392 . S
C438 C439 1.385 . S
C438 C440 1.478 . S
C439 H433 0.930 . S
C439 C435 1.400 . S
C439 C438 1.385 . S
C440 C438 1.478 . S
C440 C442 1.381 . S
C440 C446 1.383 . S
C441 C437 1.495 . S
C441 H447 0.959 . S
C441 H448 0.961 . S
C441 H449 0.960 . S
C442 C440 1.381 . S
C442 C443 1.394 . S
C442 H450 0.930 . S
C443 C442 1.394 . S
C443 C444 1.383 . S
C443 H451 0.929 . S
C444 C443 1.383 . S
C444 C445 1.377 . S
C445 H429 0.930 . S
C445 C444 1.377 . S
C445 C446 1.379 . S
C446 H430 0.931 . S
C446 C440 1.383 . S
C446 C445 1.379 . S
H447 C441 0.959 . S
H448 C441 0.961 . S
H449 C441 0.960 . S
H450 C442 0.930 . S
H451 C443 0.929 . S
H452 C460 0.929 . S
H453 C462 0.930 . S
H454 C464 0.930 . S
H455 C467 0.929 . S
H456 C470 0.930 . S
H457 C472 0.960 . S
H458 C472 0.960 . S
H459 C472 0.960 . S
C460 H452 0.929 . S
C460 C461 1.377 . S
C460 C462 1.384 . S
C461 C460 1.377 . S
C461 C467 1.390 . S
C462 H453 0.930 . S
C462 C460 1.384 . S
C462 C463 1.372 . S
C463 C462 1.372 . S
C463 C464 1.400 . S
C463 C468 1.490 . S
C464 H454 0.930 . S
C464 C463 1.400 . S
C464 C467 1.386 . S
H465 C481 0.930 . S
H466 C482 0.931 . S
C467 H455 0.929 . S
C467 C461 1.390 . S
C467 C464 1.386 . S
C468 C463 1.490 . S
C468 C470 1.395 . S
C468 C471 1.403 . S
H469 C475 0.930 . S
C470 H456 0.930 . S
C470 C468 1.395 . S
C470 C473 1.403 . S
C471 C468 1.403 . S
C471 C472 1.524 . S
C471 C475 1.400 . S
C472 H457 0.960 . S
C472 H458 0.960 . S
C472 H459 0.960 . S
C472 C471 1.524 . S
C473 C470 1.403 . S
C473 C474 1.392 . S
C473 C477 1.495 . S
C474 C473 1.392 . S
C474 C475 1.385 . S
C474 C476 1.478 . S
C475 H469 0.930 . S
C475 C471 1.400 . S
C475 C474 1.385 . S
C476 C474 1.478 . S
C476 C478 1.381 . S
C476 C482 1.383 . S
C477 C473 1.495 . S
C477 H483 0.959 . S
C477 H484 0.961 . S
C477 H485 0.960 . S
C478 C476 1.381 . S
C478 C479 1.394 . S
C478 H486 0.930 . S
C479 C478 1.394 . S
C479 C480 1.383 . S
C479 H487 0.929 . S
C480 C479 1.383 . S
C480 C481 1.377 . S
C481 H465 0.930 . S
C481 C480 1.377 . S
C481 C482 1.379 . S
C482 H466 0.931 . S
C482 C476 1.383 . S
C482 C481 1.379 . S
H483 C477 0.959 . S
H484 C477 0.961 . S
H485 C477 0.960 . S
H486 C478 0.930 . S
H487 C479 0.929 . S
H488 C496 0.929 . S
H489 C498 0.930 . S
H490 C500 0.930 . S
H491 C503 0.929 . S
H492 C506 0.930 . S
H493 C508 0.960 . S
H494 C508 0.960 . S
H495 C508 0.960 . S
C496 H488 0.929 . S
C496 C497 1.377 . S
C496 C498 1.384 . S
C497 C496 1.377 . S
C497 C503 1.390 . S
C498 H489 0.930 . S
C498 C496 1.384 . S
C498 C499 1.372 . S
C499 C498 1.372 . S
C499 C500 1.400 . S
C499 C504 1.490 . S
C500 H490 0.930 . S
C500 C499 1.400 . S
C500 C503 1.386 . S
H501 C517 0.930 . S
H502 C518 0.931 . S
C503 H491 0.929 . S
C503 C497 1.390 . S
C503 C500 1.386 . S
C504 C499 1.490 . S
C504 C506 1.395 . S
C504 C507 1.403 . S
H505 C511 0.930 . S
C506 H492 0.930 . S
C506 C504 1.395 . S
C506 C509 1.403 . S
C507 C504 1.403 . S
C507 C508 1.524 . S
C507 C511 1.400 . S
C508 H493 0.960 . S
C508 H494 0.960 . S
C508 H495 0.960 . S
C508 C507 1.524 . S
C509 C506 1.403 . S
C509 C510 1.392 . S
C509 C513 1.495 . S
C510 C509 1.392 . S
C510 C511 1.385 . S
C510 C512 1.478 . S
C511 H505 0.930 . S
C511 C507 1.400 . S
C511 C510 1.385 . S
C512 C510 1.478 . S
C512 C514 1.381 . S
C512 C518 1.383 . S
C513 C509 1.495 . S
C513 H519 0.959 . S
C513 H520 0.961 . S
C513 H521 0.960 . S
C514 C512 1.381 . S
C514 C515 1.394 . S
C514 H522 0.930 . S
C515 C514 1.394 . S
C515 C516 1.383 . S
C515 H523 0.929 . S
C516 C515 1.383 . S
C516 C517 1.377 . S
C517 H501 0.930 . S
C517 C516 1.377 . S
C517 C518 1.379 . S
C518 H502 0.931 . S
C518 C512 1.383 . S
C518 C517 1.379 . S
H519 C513 0.959 . S
H520 C513 0.961 . S
H521 C513 0.960 . S
H522 C514 0.930 . S
H523 C515 0.929 . S
H524 C532 0.929 . S
H525 C534 0.930 . S
H526 C536 0.930 . S
H527 C539 0.929 . S
H528 C542 0.930 . S
H529 C544 0.960 . S
H530 C544 0.960 . S
H531 C544 0.960 . S
C532 H524 0.929 . S
C532 C533 1.377 . S
C532 C534 1.384 . S
C533 C532 1.377 . S
C533 C539 1.390 . S
C534 H525 0.930 . S
C534 C532 1.384 . S
C534 C535 1.372 . S
C535 C534 1.372 . S
C535 C536 1.400 . S
C535 C540 1.490 . S
C536 H526 0.930 . S
C536 C535 1.400 . S
C536 C539 1.386 . S
H537 C553 0.930 . S
H538 C554 0.931 . S
C539 H527 0.929 . S
C539 C533 1.390 . S
C539 C536 1.386 . S
C540 C535 1.490 . S
C540 C542 1.395 . S
C540 C543 1.403 . S
H541 C547 0.930 . S
C542 H528 0.930 . S
C542 C540 1.395 . S
C542 C545 1.403 . S
C543 C540 1.403 . S
C543 C544 1.524 . S
C543 C547 1.400 . S
C544 H529 0.960 . S
C544 H530 0.960 . S
C544 H531 0.960 . S
C544 C543 1.524 . S
C545 C542 1.403 . S
C545 C546 1.392 . S
C545 C549 1.495 . S
C546 C545 1.392 . S
C546 C547 1.385 . S
C546 C548 1.478 . S
C547 H541 0.930 . S
C547 C543 1.400 . S
C547 C546 1.385 . S
C548 C546 1.478 . S
C548 C550 1.381 . S
C548 C554 1.383 . S
C549 C545 1.495 . S
C549 H555 0.959 . S
C549 H556 0.961 . S
C549 H557 0.960 . S
C550 C548 1.381 . S
C550 C551 1.394 . S
C550 H558 0.930 . S
C551 C550 1.394 . S
C551 C552 1.383 . S
C551 H559 0.929 . S
C552 C551 1.383 . S
C552 C553 1.377 . S
C553 H537 0.930 . S
C553 C552 1.377 . S
C553 C554 1.379 . S
C554 H538 0.931 . S
C554 C548 1.383 . S
C554 C553 1.379 . S
H555 C549 0.959 . S
H556 C549 0.961 . S
H557 C549 0.960 . S
H558 C550 0.930 . S
H559 C551 0.929 . S
H560 C568 0.929 . S
H561 C570 0.930 . S
H562 C572 0.930 . S
H563 C575 0.929 . S
H564 C578 0.930 . S
H565 C580 0.960 . S
H566 C580 0.960 . S
H567 C580 0.960 . S
C568 H560 0.929 . S
C568 C569 1.377 . S
C568 C570 1.384 . S
C569 C568 1.377 . S
C569 C575 1.390 . S
C570 H561 0.930 . S
C570 C568 1.384 . S
C570 C571 1.372 . S
C571 C570 1.372 . S
C571 C572 1.400 . S
C571 C576 1.490 . S
C572 H562 0.930 . S
C572 C571 1.400 . S
C572 C575 1.386 . S
H573 C589 0.930 . S
H574 C590 0.931 . S
C575 H563 0.929 . S
C575 C569 1.390 . S
C575 C572 1.386 . S
C576 C571 1.490 . S
C576 C578 1.395 . S
C576 C579 1.403 . S
H577 C583 0.930 . S
C578 H564 0.930 . S
C578 C576 1.395 . S
C578 C581 1.403 . S
C579 C576 1.403 . S
C579 C580 1.524 . S
C579 C583 1.400 . S
C580 H565 0.960 . S
C580 H566 0.960 . S
C580 H567 0.960 . S
C580 C579 1.524 . S
C581 C578 1.403 . S
C581 C582 1.392 . S
C581 C585 1.495 . S
C582 C581 1.392 . S
C582 C583 1.385 . S
C582 C584 1.478 . S
C583 H577 0.930 . S
C583 C579 1.400 . S
C583 C582 1.385 . S
C584 C582 1.478 . S
C584 C586 1.381 . S
C584 C590 1.383 . S
C585 C581 1.495 . S
C585 H591 0.959 . S
C585 H592 0.961 . S
C585 H593 0.960 . S
C586 C584 1.381 . S
C586 C587 1.394 . S
C586 H594 0.930 . S
C587 C586 1.394 . S
C587 C588 1.383 . S
C587 H595 0.929 . S
C588 C587 1.383 . S
C588 C589 1.377 . S
C589 H573 0.930 . S
C589 C588 1.377 . S
C589 C590 1.379 . S
C590 H574 0.931 . S
C590 C584 1.383 . S
C590 C589 1.379 . S
H591 C585 0.959 . S
H592 C585 0.961 . S
H593 C585 0.960 . S
H594 C586 0.930 . S
H595 C587 0.929 . S
H596 C604 0.929 . S
H597 C606 0.930 . S
H598 C608 0.930 . S
H599 C611 0.929 . S
H600 C614 0.930 . S
H601 C616 0.960 . S
H602 C616 0.960 . S
H603 C616 0.960 . S
C604 H596 0.929 . S
C604 C605 1.377 . S
C604 C606 1.384 . S
C605 C604 1.377 . S
C605 C611 1.390 . S
C606 H597 0.930 . S
C606 C604 1.384 . S
C606 C607 1.372 . S
C607 C606 1.372 . S
C607 C608 1.400 . S
C607 C612 1.490 . S
C608 H598 0.930 . S
C608 C607 1.400 . S
C608 C611 1.386 . S
H609 C625 0.930 . S
H610 C626 0.931 . S
C611 H599 0.929 . S
C611 C605 1.390 . S
C611 C608 1.386 . S
C612 C607 1.490 . S
C612 C614 1.395 . S
C612 C615 1.403 . S
H613 C619 0.930 . S
C614 H600 0.930 . S
C614 C612 1.395 . S
C614 C617 1.403 . S
C615 C612 1.403 . S
C615 C616 1.524 . S
C615 C619 1.400 . S
C616 H601 0.960 . S
C616 H602 0.960 . S
C616 H603 0.960 . S
C616 C615 1.524 . S
C617 C614 1.403 . S
C617 C618 1.392 . S
C617 C621 1.495 . S
C618 C617 1.392 . S
C618 C619 1.385 . S
C618 C620 1.478 . S
C619 H613 0.930 . S
C619 C615 1.400 . S
C619 C618 1.385 . S
C620 C618 1.478 . S
C620 C622 1.381 . S
C620 C626 1.383 . S
C621 C617 1.495 . S
C621 H627 0.959 . S
C621 H628 0.961 . S
C621 H629 0.960 . S
C622 C620 1.381 . S
C622 C623 1.394 . S
C622 H630 0.930 . S
C623 C622 1.394 . S
C623 C624 1.383 . S
C623 H631 0.929 . S
C624 C623 1.383 . S
C624 C625 1.377 . S
C625 H609 0.930 . S
C625 C624 1.377 . S
C625 C626 1.379 . S
C626 H610 0.931 . S
C626 C620 1.383 . S
C626 C625 1.379 . S
H627 C621 0.959 . S
H628 C621 0.961 . S
H629 C621 0.960 . S
H630 C622 0.930 . S
H631 C623 0.929 . S
H632 C640 0.929 . S
H633 C642 0.930 . S
H634 C644 0.930 . S
H635 C647 0.929 . S
H636 C650 0.930 . S
H637 C652 0.960 . S
H638 C652 0.960 . S
H639 C652 0.960 . S
C640 H632 0.929 . S
C640 C641 1.377 . S
C640 C642 1.384 . S
C641 C640 1.377 . S
C641 C647 1.390 . S
C642 H633 0.930 . S
C642 C640 1.384 . S
C642 C643 1.372 . S
C643 C642 1.372 . S
C643 C644 1.400 . S
C643 C648 1.490 . S
C644 H634 0.930 . S
C644 C643 1.400 . S
C644 C647 1.386 . S
H645 C661 0.930 . S
H646 C662 0.931 . S
C647 H635 0.929 . S
C647 C641 1.390 . S
C647 C644 1.386 . S
C648 C643 1.490 . S
C648 C650 1.395 . S
C648 C651 1.403 1_554 S
H649 C655 0.930 . S
C650 H636 0.930 . S
C650 C648 1.395 . S
C650 C653 1.403 . S
C651 C648 1.403 1_556 S
C651 C652 1.524 . S
C651 C655 1.400 . S
C652 H637 0.960 . S
C652 H638 0.960 . S
C652 H639 0.960 . S
C652 C651 1.524 . S
C653 C650 1.403 . S
C653 C654 1.392 1_554 S
C653 C657 1.495 . S
C654 C653 1.392 1_556 S
C654 C655 1.385 . S
C654 C656 1.478 . S
C655 H649 0.930 . S
C655 C651 1.400 . S
C655 C654 1.385 . S
C656 C654 1.478 . S
C656 C658 1.381 . S
C656 C662 1.383 . S
C657 C653 1.495 . S
C657 H663 0.959 . S
C657 H664 0.961 . S
C657 H665 0.960 . S
C658 C656 1.381 . S
C658 C659 1.394 . S
C658 H666 0.930 . S
C659 C658 1.394 . S
C659 C660 1.383 . S
C659 H667 0.929 . S
C660 C659 1.383 . S
C660 C661 1.377 . S
C661 H645 0.930 . S
C661 C660 1.377 . S
C661 C662 1.379 . S
C662 H646 0.931 . S
C662 C656 1.383 . S
C662 C661 1.379 . S
H663 C657 0.959 . S
H664 C657 0.961 . S
H665 C657 0.960 . S
H666 C658 0.930 . S
H667 C659 0.929 . S
H668 C676 0.929 . S
H669 C678 0.930 . S
H670 C680 0.930 . S
H671 C683 0.929 . S
H672 C686 0.930 . S
H673 C688 0.960 . S
H674 C688 0.960 . S
H675 C688 0.960 1_556 S
C676 H668 0.929 . S
C676 C677 1.377 . S
C676 C678 1.384 . S
C677 C676 1.377 . S
C677 C683 1.390 . S
C678 H669 0.930 . S
C678 C676 1.384 . S
C678 C679 1.372 . S
C679 C678 1.372 . S
C679 C680 1.400 . S
C679 C684 1.490 . S
C680 H670 0.930 . S
C680 C679 1.400 . S
C680 C683 1.386 . S
H681 C697 0.930 . S
H682 C698 0.931 . S
C683 H671 0.929 . S
C683 C677 1.390 . S
C683 C680 1.386 . S
C684 C679 1.490 . S
C684 C686 1.395 . S
C684 C687 1.403 . S
H685 C691 0.930 . S
C686 H672 0.930 . S
C686 C684 1.395 . S
C686 C689 1.403 . S
C687 C684 1.403 . S
C687 C688 1.524 1_556 S
C687 C691 1.400 1_556 S
C688 H673 0.960 . S
C688 H674 0.960 . S
C688 H675 0.960 1_554 S
C688 C687 1.524 1_554 S
C689 C686 1.403 . S
C689 C690 1.392 1_556 S
C689 C693 1.495 . S
C690 C689 1.392 1_554 S
C690 C691 1.385 . S
C690 C692 1.478 . S
C691 H685 0.930 . S
C691 C687 1.400 1_554 S
C691 C690 1.385 . S
C692 C690 1.478 . S
C692 C694 1.381 . S
C692 C698 1.383 . S
C693 C689 1.495 . S
C693 H699 0.959 . S
C693 H700 0.961 . S
C693 H701 0.960 1_556 S
C694 C692 1.381 . S
C694 C695 1.394 . S
C694 H702 0.930 . S
C695 C694 1.394 . S
C695 C696 1.383 . S
C695 H703 0.929 . S
C696 C695 1.383 . S
C696 C697 1.377 . S
C697 H681 0.930 . S
C697 C696 1.377 . S
C697 C698 1.379 . S
C698 H682 0.931 . S
C698 C692 1.383 . S
C698 C697 1.379 . S
H699 C693 0.959 . S
H700 C693 0.961 . S
H701 C693 0.960 1_554 S
H702 C694 0.930 . S
H703 C695 0.929 . S
H704 C712 0.929 . S
H705 C714 0.930 1_655 S
H706 C716 0.930 . S
H707 C719 0.929 . S
H708 C722 0.929 . S
H709 C724 0.960 . S
H710 C724 0.960 . S
H711 C724 0.960 . S
C712 H704 0.929 . S
C712 C713 1.377 . S
C712 C714 1.384 . S
C713 C712 1.377 . S
C713 C719 1.390 . S
C714 H705 0.930 1_455 S
C714 C712 1.384 . S
C714 C715 1.372 . S
C715 C714 1.372 . S
C715 C716 1.400 . S
C715 C720 1.490 . S
C716 H706 0.930 . S
C716 C715 1.400 . S
C716 C719 1.386 . S
H717 C733 0.930 . S
H718 C734 0.931 1_455 S
C719 H707 0.929 . S
C719 C713 1.390 . S
C719 C716 1.386 . S
C720 C715 1.490 . S
C720 C722 1.380 1_455 S
C720 C723 1.403 . S
H721 C727 0.930 . S
C722 H708 0.929 . S
C722 C720 1.380 1_655 S
C722 C725 1.420 . S
C723 C720 1.403 . S
C723 C724 1.524 . S
C723 C727 1.400 1_455 S
C724 H709 0.960 . S
C724 H710 0.960 . S
C724 H711 0.960 . S
C724 C723 1.524 . S
C725 C722 1.420 . S
C725 C726 1.392 . S
C725 C729 1.495 . S
C726 C725 1.392 . S
C726 C727 1.385 . S
C726 C728 1.478 . S
C727 H721 0.930 . S
C727 C723 1.400 1_655 S
C727 C726 1.385 . S
C728 C726 1.478 . S
C728 C730 1.381 . S
C728 C734 1.383 . S
C729 C725 1.495 . S
C729 H735 0.959 . S
C729 H736 0.961 . S
C729 H737 0.960 . S
C730 C728 1.381 . S
C730 C731 1.394 . S
C730 H738 0.930 . S
C731 C730 1.394 . S
C731 C732 1.383 . S
C731 H739 0.929 . S
C732 C731 1.383 . S
C732 C733 1.377 . S
C733 H717 0.930 . S
C733 C732 1.377 . S
C733 C734 1.379 . S
C734 H718 0.931 1_655 S
C734 C728 1.383 . S
C734 C733 1.379 . S
H735 C729 0.959 . S
H736 C729 0.961 . S
H737 C729 0.960 . S
H738 C730 0.930 . S
H739 C731 0.929 . S
H740 C748 0.929 . S
H741 C750 0.930 . S
H742 C752 0.924 1_655 S
H743 C755 0.929 . S
H744 C758 0.930 . S
H745 C760 0.960 . S
H746 C760 0.960 . S
H747 C760 0.960 . S
C748 H740 0.929 . S
C748 C749 1.377 . S
C748 C750 1.384 . S
C749 C748 1.377 . S
C749 C755 1.390 . S
C750 H741 0.930 . S
C750 C748 1.384 . S
C750 C751 1.372 . S
C751 C750 1.372 . S
C751 C752 1.400 . S
C751 C756 1.490 . S
C752 H742 0.924 1_455 S
C752 C751 1.400 . S
C752 C755 1.386 . S
H753 C769 0.930 . S
H754 C770 0.931 . S
C755 H743 0.929 . S
C755 C749 1.390 . S
C755 C752 1.386 . S
C756 C751 1.490 . S
C756 C758 1.395 . S
C756 C759 1.403 1_455 S
H757 C763 0.930 . S
C758 H744 0.930 . S
C758 C756 1.395 . S
C758 C761 1.403 . S
C759 C756 1.403 1_655 S
C759 C760 1.524 . S
C759 C763 1.400 . S
C760 H745 0.960 . S
C760 H746 0.960 . S
C760 H747 0.960 . S
C760 C759 1.524 . S
C761 C758 1.403 . S
C761 C762 1.392 1_455 S
C761 C765 1.495 . S
C762 C761 1.392 1_655 S
C762 C763 1.385 . S
C762 C764 1.478 . S
C763 H757 0.930 . S
C763 C759 1.400 . S
C763 C762 1.385 . S
C764 C762 1.478 . S
C764 C766 1.381 . S
C764 C770 1.383 . S
C765 C761 1.495 . S
C765 H771 0.959 . S
C765 H772 0.961 . S
C765 H773 0.960 . S
C766 C764 1.381 . S
C766 C767 1.394 . S
C766 H774 0.930 1_655 S
C767 C766 1.394 . S
C767 C768 1.383 . S
C767 H775 0.929 . S
C768 C767 1.383 . S
C768 C769 1.377 . S
C769 H753 0.930 . S
C769 C768 1.377 . S
C769 C770 1.379 . S
C770 H754 0.931 . S
C770 C764 1.383 . S
C770 C769 1.379 . S
H771 C765 0.959 . S
H772 C765 0.961 . S
H773 C765 0.960 . S
H774 C766 0.930 1_455 S
H775 C767 0.929 . S
H776 C784 0.929 . S
H777 C786 0.930 . S
H778 C788 0.930 . S
H779 C791 0.929 . S
H780 C794 0.929 1_455 S
H781 C796 0.960 . S
H782 C796 0.960 . S
H783 C796 0.960 . S
C784 H776 0.929 . S
C784 C785 1.377 . S
C784 C786 1.384 . S
C785 C784 1.377 . S
C785 C791 1.390 . S
C786 H777 0.930 . S
C786 C784 1.384 . S
C786 C787 1.372 . S
C787 C786 1.372 . S
C787 C788 1.400 . S
C787 C792 1.490 . S
C788 H778 0.930 . S
C788 C787 1.400 . S
C788 C791 1.386 . S
H789 C805 0.930 . S
H790 C806 0.931 . S
C791 H779 0.929 . S
C791 C785 1.390 . S
C791 C788 1.386 . S
C792 C787 1.490 . S
C792 C794 1.369 1_455 S
C792 C795 1.403 . S
H793 C799 0.930 . S
C794 H780 0.929 1_655 S
C794 C792 1.369 1_655 S
C794 C797 1.431 . S
C795 C792 1.403 . S
C795 C796 1.524 . S
C795 C799 1.400 1_455 S
C796 H781 0.960 . S
C796 H782 0.960 . S
C796 H783 0.960 . S
C796 C795 1.524 . S
C797 C794 1.431 . S
C797 C798 1.392 . S
C797 C801 1.495 . S
C798 C797 1.392 . S
C798 C799 1.385 . S
C798 C800 1.478 . S
C799 H793 0.930 . S
C799 C795 1.400 1_655 S
C799 C798 1.385 . S
C800 C798 1.478 . S
C800 C802 1.381 . S
C800 C806 1.383 1_556 S
C801 C797 1.495 . S
C801 H807 0.959 . S
C801 H808 0.961 . S
C801 H809 0.960 . S
C802 C800 1.381 . S
C802 C803 1.394 1_556 S
C802 H810 0.930 . S
C803 C802 1.394 1_554 S
C803 C804 1.383 . S
C803 H811 0.933 . S
C804 C803 1.383 . S
C804 C805 1.377 . S
C805 H789 0.930 . S
C805 C804 1.377 . S
C805 C806 1.379 . S
C806 H790 0.931 . S
C806 C800 1.383 1_554 S
C806 C805 1.379 . S
H807 C801 0.959 . S
H808 C801 0.961 . S
H809 C801 0.960 . S
H810 C802 0.930 . S
H811 C803 0.933 . S
H812 C820 0.929 . S
H813 C822 0.930 . S
H814 C824 0.930 . S
H815 C827 0.929 . S
H816 C830 0.930 . S
H817 C832 0.958 1_556 S
H818 C832 0.972 . S
H819 C832 0.974 . S
C820 H812 0.929 . S
C820 C821 1.377 . S
C820 C822 1.384 1_554 S
C821 C820 1.377 . S
C821 C827 1.390 . S
C822 H813 0.930 . S
C822 C820 1.384 1_556 S
C822 C823 1.372 . S
C823 C822 1.372 . S
C823 C824 1.400 1_556 S
C823 C828 1.490 . S
C824 H814 0.930 . S
C824 C823 1.400 1_554 S
C824 C827 1.386 . S
H825 C841 0.930 . S
H826 C842 0.931 . S
C827 H815 0.929 . S
C827 C821 1.390 . S
C827 C824 1.386 . S
C828 C823 1.490 . S
C828 C830 1.395 . S
C828 C831 1.403 1_455 S
H829 C835 0.930 . S
C830 H816 0.930 . S
C830 C828 1.395 . S
C830 C833 1.403 . S
C831 C828 1.403 1_655 S
C831 C832 1.500 1_556 S
C831 C835 1.400 . S
C832 H817 0.958 1_554 S
C832 H818 0.972 . S
C832 H819 0.974 . S
C832 C831 1.500 1_554 S
C833 C830 1.403 . S
C833 C834 1.392 1_455 S
C833 C837 1.495 . S
C834 C833 1.392 1_655 S
C834 C835 1.385 . S
C834 C836 1.478 . S
C835 H829 0.930 . S
C835 C831 1.400 . S
C835 C834 1.385 . S
C836 C834 1.478 . S
C836 C838 1.381 . S
C836 C842 1.383 . S
C837 C833 1.495 . S
C837 H843 0.959 . S
C837 H844 0.961 . S
C837 H845 0.960 . S
C838 C836 1.381 . S
C838 C839 1.394 . S
C838 H846 0.930 . S
C839 C838 1.394 . S
C839 C840 1.383 . S
C839 H847 0.929 . S
C840 C839 1.383 . S
C840 C841 1.377 . S
C841 H825 0.930 . S
C841 C840 1.377 . S
C841 C842 1.379 . S
C842 H826 0.931 . S
C842 C836 1.383 . S
C842 C841 1.379 . S
H843 C837 0.959 . S
H844 C837 0.961 . S
H845 C837 0.960 . S
H846 C838 0.930 . S
H847 C839 0.929 . S
H848 C856 0.929 . S
H849 C858 0.930 . S
H850 C860 0.930 1_556 S
H851 C863 0.929 . S
H852 C866 0.930 . S
H853 C868 0.960 . S
H854 C868 0.960 1_554 S
H855 C868 0.960 . S
C856 H848 0.929 . S
C856 C857 1.377 . S
C856 C858 1.384 . S
C857 C856 1.377 . S
C857 C863 1.390 . S
C858 H849 0.930 . S
C858 C856 1.384 . S
C858 C859 1.373 . S
C859 C858 1.373 . S
C859 C860 1.400 . S
C859 C864 1.488 1_554 S
C860 H850 0.930 1_554 S
C860 C859 1.400 . S
C860 C863 1.386 . S
H861 C877 0.930 . S
H862 C878 0.931 . S
C863 H851 0.929 . S
C863 C857 1.390 . S
C863 C860 1.386 . S
C864 C859 1.488 1_556 S
C864 C866 1.395 . S
C864 C867 1.403 . S
H865 C871 0.930 . S
C866 H852 0.930 . S
C866 C864 1.395 . S
C866 C869 1.403 . S
C867 C864 1.403 . S
C867 C868 1.524 . S
C867 C871 1.400 . S
C868 H853 0.960 . S
C868 H854 0.960 1_556 S
C868 H855 0.960 . S
C868 C867 1.524 . S
C869 C866 1.403 . S
C869 C870 1.392 . S
C869 C873 1.495 . S
C870 C869 1.392 . S
C870 C871 1.385 . S
C870 C872 1.478 . S
C871 H865 0.930 . S
C871 C867 1.400 . S
C871 C870 1.385 . S
C872 C870 1.478 . S
C872 C874 1.381 . S
C872 C878 1.383 . S
C873 C869 1.495 . S
C873 H879 0.959 . S
C873 H880 0.961 . S
C873 H881 0.960 . S
C874 C872 1.381 . S
C874 C875 1.394 . S
C874 H882 0.930 . S
C875 C874 1.394 . S
C875 C876 1.383 . S
C875 H883 0.929 . S
C876 C875 1.383 . S
C876 C877 1.377 . S
C877 H861 0.930 . S
C877 C876 1.377 . S
C877 C878 1.379 . S
C878 H862 0.931 . S
C878 C872 1.383 . S
C878 C877 1.379 . S
H879 C873 0.959 . S
H880 C873 0.961 . S
H881 C873 0.960 . S
H882 C874 0.930 . S
H883 C875 0.929 . S
H884 C892 0.929 . S
H885 C894 0.930 . S
H886 C896 0.930 . S
H887 C899 0.929 . S
H888 C902 0.930 . S
H889 C904 0.960 . S
H890 C904 0.960 . S
H891 C904 0.960 . S
C892 H884 0.929 . S
C892 C893 1.377 . S
C892 C894 1.384 . S
C893 C892 1.377 . S
C893 C899 1.390 . S
C894 H885 0.930 . S
C894 C892 1.384 . S
C894 C895 1.372 . S
C895 C894 1.372 . S
C895 C896 1.400 . S
C895 C900 1.490 . S
C896 H886 0.930 . S
C896 C895 1.400 . S
C896 C899 1.386 . S
H897 C913 0.930 . S
H898 C914 0.931 . S
C899 H887 0.929 . S
C899 C893 1.390 . S
C899 C896 1.386 . S
C900 C895 1.490 . S
C900 C902 1.395 . S
C900 C903 1.403 . S
H901 C907 0.930 . S
C902 H888 0.930 . S
C902 C900 1.395 . S
C902 C905 1.403 . S
C903 C900 1.403 . S
C903 C904 1.524 . S
C903 C907 1.400 . S
C904 H889 0.960 . S
C904 H890 0.960 . S
C904 H891 0.960 . S
C904 C903 1.524 . S
C905 C902 1.403 . S
C905 C906 1.392 . S
C905 C909 1.495 . S
C906 C905 1.392 . S
C906 C907 1.385 . S
C906 C908 1.478 . S
C907 H901 0.930 . S
C907 C903 1.400 . S
C907 C906 1.385 . S
C908 C906 1.478 . S
C908 C910 1.381 1_556 S
C908 C914 1.383 1_556 S
C909 C905 1.495 . S
C909 H915 0.959 . S
C909 H916 0.961 . S
C909 H917 0.960 . S
C910 C908 1.381 1_554 S
C910 C911 1.394 . S
C910 H918 0.930 1_554 S
C911 C910 1.394 . S
C911 C912 1.383 . S
C911 H919 0.929 . S
C912 C911 1.383 . S
C912 C913 1.377 . S
C913 H897 0.930 . S
C913 C912 1.377 . S
C913 C914 1.379 . S
C914 H898 0.931 . S
C914 C908 1.383 1_554 S
C914 C913 1.379 . S
H915 C909 0.959 . S
H916 C909 0.961 . S
H917 C909 0.960 . S
H918 C910 0.930 1_556 S
H919 C911 0.929 . S
H920 C928 0.929 . S
H921 C930 0.930 . S
H922 C932 0.930 . S
H923 C935 0.929 . S
H924 C938 0.930 . S
H925 C940 0.960 . S
H926 C940 0.960 . S
H927 C940 0.960 . S
C928 H920 0.929 . S
C928 C929 1.377 . S
C928 C930 1.384 . S
C929 C928 1.377 . S
C929 C935 1.390 . S
C930 H921 0.930 . S
C930 C928 1.384 . S
C930 C931 1.372 . S
C931 C930 1.372 . S
C931 C932 1.400 . S
C931 C936 1.490 . S
C932 H922 0.930 . S
C932 C931 1.400 . S
C932 C935 1.386 . S
H933 C949 0.930 . S
H934 C950 0.931 . S
C935 H923 0.929 . S
C935 C929 1.390 . S
C935 C932 1.386 . S
C936 C931 1.490 . S
C936 C938 1.395 . S
C936 C939 1.403 . S
H937 C943 0.930 . S
C938 H924 0.930 . S
C938 C936 1.395 . S
C938 C941 1.403 . S
C939 C936 1.403 . S
C939 C940 1.524 . S
C939 C943 1.400 . S
C940 H925 0.960 . S
C940 H926 0.960 . S
C940 H927 0.960 . S
C940 C939 1.524 . S
C941 C938 1.403 . S
C941 C942 1.392 . S
C941 C945 1.495 . S
C942 C941 1.392 . S
C942 C943 1.385 . S
C942 C944 1.478 . S
C943 H937 0.930 . S
C943 C939 1.400 . S
C943 C942 1.385 . S
C944 C942 1.478 . S
C944 C946 1.381 . S
C944 C950 1.383 . S
C945 C941 1.495 . S
C945 H951 0.959 . S
C945 H952 0.961 . S
C945 H953 0.960 . S
C946 C944 1.381 . S
C946 C947 1.394 . S
C946 H954 0.930 . S
C947 C946 1.394 . S
C947 C948 1.383 . S
C947 H955 0.929 . S
C948 C947 1.383 . S
C948 C949 1.377 . S
C949 H933 0.930 . S
C949 C948 1.377 . S
C949 C950 1.379 . S
C950 H934 0.931 . S
C950 C944 1.383 . S
C950 C949 1.379 . S
H951 C945 0.959 . S
H952 C945 0.961 . S
H953 C945 0.960 . S
H954 C946 0.930 . S
H955 C947 0.929 . S
H956 C964 0.929 . S
H957 C966 0.930 . S
H958 C968 0.930 . S
H959 C971 0.929 . S
H960 C974 0.930 . S
H961 C976 0.960 . S
H962 C976 0.960 . S
H963 C976 0.960 . S
C964 H956 0.929 . S
C964 C965 1.377 . S
C964 C966 1.384 . S
C965 C964 1.377 . S
C965 C971 1.390 . S
C966 H957 0.930 . S
C966 C964 1.384 . S
C966 C967 1.372 . S
C967 C966 1.372 . S
C967 C968 1.400 . S
C967 C972 1.490 . S
C968 H958 0.930 . S
C968 C967 1.400 . S
C968 C971 1.386 . S
H969 C985 0.930 . S
H970 C986 0.931 . S
C971 H959 0.929 . S
C971 C965 1.390 . S
C971 C968 1.386 . S
C972 C967 1.490 . S
C972 C974 1.395 . S
C972 C975 1.403 . S
H973 C979 0.930 . S
C974 H960 0.930 . S
C974 C972 1.395 . S
C974 C977 1.403 . S
C975 C972 1.403 . S
C975 C976 1.524 . S
C975 C979 1.400 . S
C976 H961 0.960 . S
C976 H962 0.960 . S
C976 H963 0.960 . S
C976 C975 1.524 . S
C977 C974 1.403 . S
C977 C978 1.392 . S
C977 C981 1.495 . S
C978 C977 1.392 . S
C978 C979 1.385 . S
C978 C980 1.478 . S
C979 H973 0.930 . S
C979 C975 1.400 . S
C979 C978 1.385 . S
C980 C978 1.478 . S
C980 C982 1.381 . S
C980 C986 1.383 . S
C981 C977 1.495 . S
C981 H987 0.959 . S
C981 H988 0.961 . S
C981 H989 0.960 . S
C982 C980 1.381 . S
C982 C983 1.394 . S
C982 H990 0.930 . S
C983 C982 1.394 . S
C983 C984 1.383 . S
C983 H991 0.929 . S
C984 C983 1.383 . S
C984 C985 1.377 . S
C985 H969 0.930 . S
C985 C984 1.377 . S
C985 C986 1.379 . S
C986 H970 0.931 . S
C986 C980 1.383 . S
C986 C985 1.379 . S
H987 C981 0.959 . S
H988 C981 0.961 . S
H989 C981 0.960 . S
H990 C982 0.930 . S
H991 C983 0.929 . S
C281 C33 1.556 . S
C300 C67 1.554 . S
C317 C135 1.555 . S
C336 C101 1.563 . S
C353 C169 1.555 . S
C372 C203 1.562 . S
C389 C271 1.555 . S
C408 C237 1.562 . S
C425 C179 1.411 . S
C444 C20 1.486 . S
C461 C145 1.410 . S
C480 C54 1.495 . S
C497 C247 1.406 . S
C516 C88 1.488 . S
C533 C122 1.494 . S
C552 C213 1.414 . S
C569 C43 1.412 . S
C588 C156 1.487 . S
C605 C9 1.409 . S
C624 C190 1.493 . S
C641 C224 1.495 . S
C660 C111 1.421 . S
C677 C77 1.412 . S
C696 C258 1.497 . S
C713 C5 1.280 . S
C732 C107 1.273 . S
C749 C73 1.278 . S
C768 C39 1.287 . S
C785 C70 0.712 . S
C804 C36 0.661 . S
C821 C2 0.693 . S
C840 C104 0.702 . S
C857 C243 1.280 . S
C876 C141 1.285 . S
C893 C175 1.276 . S
C912 C209 1.261 . S
C929 C206 0.693 . S
C948 C172 0.715 . S
C965 C138 0.714 . S
C984 C240 0.703 . S
