# Generated by pormake.
# Topology nfc, (4)-cn, num edge types: 1
# Building blocks:
#     Node 0, Type 0, BuildingBlock: NAWXER_clean_sbu_0, # of connection points: 4
#     Node 1, Type 0, BuildingBlock: NAWXER_clean_sbu_0, # of connection points: 4
#     Node 2, Type 0, BuildingBlock: NAWXER_clean_sbu_0, # of connection points: 4
#     Node 3, Type 0, BuildingBlock: NAWXER_clean_sbu_0, # of connection points: 4
#     Node 4, Type 0, BuildingBlock: NAWXER_clean_sbu_0, # of connection points: 4
#     Node 5, Type 0, BuildingBlock: NAWXER_clean_sbu_0, # of connection points: 4
#     Node 6, Type 0, BuildingBlock: NAWXER_clean_sbu_0, # of connection points: 4
#     Node 7, Type 0, BuildingBlock: NAWXER_clean_sbu_0, # of connection points: 4
#     Node 8, Type 0, BuildingBlock: NAWXER_clean_sbu_0, # of connection points: 4
#     Node 9, Type 0, BuildingBlock: NAWXER_clean_sbu_0, # of connection points: 4
#     Node 10, Type 0, BuildingBlock: NAWXER_clean_sbu_0, # of connection points: 4
#     Node 11, Type 0, BuildingBlock: NAWXER_clean_sbu_0, # of connection points: 4
#     Node 12, Type 0, BuildingBlock: NAWXER_clean_sbu_0, # of connection points: 4
#     Node 13, Type 0, BuildingBlock: NAWXER_clean_sbu_0, # of connection points: 4
#     Node 14, Type 0, BuildingBlock: NAWXER_clean_sbu_0, # of connection points: 4
#     Node 15, Type 0, BuildingBlock: NAWXER_clean_sbu_0, # of connection points: 4
#     Edge 16, Type (0, 0), BuildingBlock: EYOCIG_clean_linker_4, # of connection points: 2
#     Edge 17, Type (0, 0), BuildingBlock: EYOCIG_clean_linker_4, # of connection points: 2
#     Edge 18, Type (0, 0), BuildingBlock: EYOCIG_clean_linker_4, # of connection points: 2
#     Edge 19, Type (0, 0), BuildingBlock: EYOCIG_clean_linker_4, # of connection points: 2
#     Edge 20, Type (0, 0), BuildingBlock: EYOCIG_clean_linker_4, # of connection points: 2
#     Edge 21, Type (0, 0), BuildingBlock: EYOCIG_clean_linker_4, # of connection points: 2
#     Edge 22, Type (0, 0), BuildingBlock: EYOCIG_clean_linker_4, # of connection points: 2
#     Edge 23, Type (0, 0), BuildingBlock: EYOCIG_clean_linker_4, # of connection points: 2
#     Edge 24, Type (0, 0), BuildingBlock: EYOCIG_clean_linker_4, # of connection points: 2
#     Edge 25, Type (0, 0), BuildingBlock: EYOCIG_clean_linker_4, # of connection points: 2
#     Edge 26, Type (0, 0), BuildingBlock: EYOCIG_clean_linker_4, # of connection points: 2
#     Edge 27, Type (0, 0), BuildingBlock: EYOCIG_clean_linker_4, # of connection points: 2
#     Edge 28, Type (0, 0), BuildingBlock: EYOCIG_clean_linker_4, # of connection points: 2
#     Edge 29, Type (0, 0), BuildingBlock: EYOCIG_clean_linker_4, # of connection points: 2
#     Edge 30, Type (0, 0), BuildingBlock: EYOCIG_clean_linker_4, # of connection points: 2
#     Edge 31, Type (0, 0), BuildingBlock: EYOCIG_clean_linker_4, # of connection points: 2
#     Edge 32, Type (0, 0), BuildingBlock: EYOCIG_clean_linker_4, # of connection points: 2
#     Edge 33, Type (0, 0), BuildingBlock: EYOCIG_clean_linker_4, # of connection points: 2
#     Edge 34, Type (0, 0), BuildingBlock: EYOCIG_clean_linker_4, # of connection points: 2
#     Edge 35, Type (0, 0), BuildingBlock: EYOCIG_clean_linker_4, # of connection points: 2
#     Edge 36, Type (0, 0), BuildingBlock: EYOCIG_clean_linker_4, # of connection points: 2
#     Edge 37, Type (0, 0), BuildingBlock: EYOCIG_clean_linker_4, # of connection points: 2
#     Edge 38, Type (0, 0), BuildingBlock: EYOCIG_clean_linker_4, # of connection points: 2
#     Edge 39, Type (0, 0), BuildingBlock: EYOCIG_clean_linker_4, # of connection points: 2
#     Edge 40, Type (0, 0), BuildingBlock: EYOCIG_clean_linker_4, # of connection points: 2
#     Edge 41, Type (0, 0), BuildingBlock: EYOCIG_clean_linker_4, # of connection points: 2
#     Edge 42, Type (0, 0), BuildingBlock: EYOCIG_clean_linker_4, # of connection points: 2
#     Edge 43, Type (0, 0), BuildingBlock: EYOCIG_clean_linker_4, # of connection points: 2
#     Edge 44, Type (0, 0), BuildingBlock: EYOCIG_clean_linker_4, # of connection points: 2
#     Edge 45, Type (0, 0), BuildingBlock: EYOCIG_clean_linker_4, # of connection points: 2
#     Edge 46, Type (0, 0), BuildingBlock: EYOCIG_clean_linker_4, # of connection points: 2
#     Edge 47, Type (0, 0), BuildingBlock: EYOCIG_clean_linker_4, # of connection points: 2
# Relax obj value: 0.157
# Max RMSD: 0.167
# Mean RMSD: 0.167
data_MOF--net-nfc--node1-NAWXER_clean_sbu_0--edge1-EYOCIG_clean_linker_4
_symmetry_space_group_name_H-M    P1
_symmetry_Int_Tables_number       1
_symmetry_cell_setting            triclinic
loop_
_symmetry_equiv_pos_as_xyz
'x, y, z'
_cell_length_a     29.051478
_cell_length_b     28.996796
_cell_length_c     23.301173
_cell_angle_alpha  90.03058
_cell_angle_beta   90.005538
_cell_angle_gamma 89.999439
loop_
_atom_site_label
_atom_site_type_symbol
_atom_site_fract_x
_atom_site_fract_y
_atom_site_fract_z
_atom_type_partial_charge
C0 C 0.07441 0.07502 -0.00435 0.0
C1 C 0.95476 0.95461 0.91995 0.0
O2 O 0.03363 0.088 -0.01557 0.0
Zn3 Zn 0.97955 0.05018 0.95685 0.0
O4 O 0.08719 0.03383 -0.01374 0.0
Zn5 Zn 0.0485 0.97983 -0.03938 0.0
O6 O 0.05271 1.00008 0.87857 0.0
O7 O 1.0001 0.05515 0.87503 0.0
O8 O 0.99524 0.9413 0.9322 0.0
O9 O 0.94202 0.99577 0.92957 0.0
O10 O 0.97459 0.03104 0.03896 0.0
O11 O 0.0278 0.97659 0.0429 0.0
C12 C 0.02987 0.02983 0.85066 0.0
C13 C 0.99794 1.00191 0.06715 0.0
C14 C 0.20491 0.82547 0.24746 0.0
C15 C 0.32514 0.70581 0.17149 0.0
O16 O 0.19229 0.78446 0.23669 0.0
Zn17 Zn 0.22947 0.73025 0.20837 0.0
O18 O 0.2456 0.83888 0.23651 0.0
Zn19 Zn 0.29909 0.80007 0.20931 0.0
O20 O 0.27812 0.80274 0.12755 0.0
O21 O 0.22322 0.74992 0.12622 0.0
O22 O 0.33791 0.74675 0.18242 0.0
O23 O 0.28417 0.69276 0.18146 0.0
O24 O 0.24941 0.72631 0.29034 0.0
O25 O 0.30358 0.77991 0.29148 0.0
C26 C 0.2482 0.77937 0.1007 0.0
C27 C 0.27893 0.75028 0.31711 0.0
C28 C 0.53005 0.02872 0.56719 0.0
C29 C 0.49864 0.99957 0.35079 0.0
O30 O 0.50024 0.05393 0.54267 0.0
Zn31 Zn 0.4798 0.04984 0.4603 0.0
O32 O 0.55337 0.99936 0.53931 0.0
Zn33 Zn 0.54861 0.9793 0.45762 0.0
O34 O 0.58683 0.03323 0.43066 0.0
O35 O 0.5336 0.08772 0.43218 0.0
O36 O 0.52808 0.97426 0.37575 0.0
O37 O 0.47562 0.0295 0.37821 0.0
O38 O 0.4415 0.99597 0.48691 0.0
O39 O 0.49488 0.94161 0.48676 0.0
C40 C 0.57419 0.07435 0.42062 0.0
C41 C 0.45417 0.95498 0.4977 0.0
C42 C 0.32392 0.20522 0.74761 0.0
C43 C 0.20299 0.3239 0.67123 0.0
O44 O 0.33649 0.24621 0.73663 0.0
Zn45 Zn 0.29842 0.29985 0.70854 0.0
O46 O 0.28323 0.19173 0.73683 0.0
Zn47 Zn 0.22914 0.22972 0.70977 0.0
O48 O 0.24958 0.22707 0.62773 0.0
O49 O 0.30398 0.28041 0.62621 0.0
O50 O 0.19034 0.28293 0.6822 0.0
O51 O 0.2438 0.33721 0.68163 0.0
O52 O 0.27801 0.30371 0.79037 0.0
O53 O 0.22385 0.25012 0.79187 0.0
C54 C 0.27902 0.25093 0.6007 0.0
C55 C 0.24842 0.27997 0.81729 0.0
C56 C 0.95448 0.07571 0.49616 0.0
C57 C 0.07451 0.9549 0.422 0.0
O58 O 0.94148 0.03463 0.48637 0.0
Zn59 Zn 0.97975 0.9802 0.46045 0.0
O60 O 0.99531 0.08853 0.48502 0.0
Zn61 Zn 0.0489 0.05036 0.4571 0.0
O62 O 0.02827 0.05501 0.37519 0.0
O63 O 0.97556 1.00003 0.37828 0.0
O64 O 0.08718 0.99612 0.43132 0.0
O65 O 0.03374 0.94186 0.43323 0.0
O66 O 0.99976 0.97656 0.5429 0.0
O67 O 0.05303 0.03098 0.53919 0.0
C68 C 0.99853 0.02981 0.3506 0.0
C69 C 0.02959 1.00184 0.56726 0.0
C70 C 0.27679 0.78006 0.81744 0.0
C71 C 0.2505 0.75041 0.60045 0.0
O72 O 0.24789 0.80384 0.78945 0.0
Zn73 Zn 0.22905 0.79908 0.70731 0.0
O74 O 0.30206 0.7503 0.79294 0.0
Zn75 Zn 0.29952 0.73001 0.71063 0.0
O76 O 0.33838 0.78355 0.68401 0.0
O77 O 0.28391 0.83677 0.68144 0.0
O78 O 0.27982 0.72715 0.62844 0.0
O79 O 0.22468 0.77967 0.62499 0.0
O80 O 0.19169 0.74447 0.73515 0.0
O81 O 0.24586 0.6909 0.73593 0.0
C82 C 0.32517 0.82424 0.67238 0.0
C83 C 0.20484 0.70362 0.74609 0.0
C84 C 0.57378 0.95439 -0.00425 0.0
C85 C 0.45443 0.076 0.9221 0.0
O86 O 0.58707 0.99536 -0.01412 0.0
Zn87 Zn 0.54873 0.04975 -0.03972 0.0
O88 O 0.53282 0.94187 -0.01521 0.0
Zn89 Zn 0.47915 0.98003 0.95696 0.0
O90 O 0.49958 0.97487 0.87497 0.0
O91 O 0.55239 0.02975 0.87816 0.0
O92 O 0.44153 0.03481 0.93118 0.0
O93 O 0.49523 0.08881 0.93351 0.0
O94 O 0.52891 0.05299 0.04277 0.0
O95 O 0.47518 0.99902 0.03926 0.0
C96 C 0.52937 1.00004 0.85041 0.0
C97 C 0.49908 0.02783 0.06729 0.0
C98 C 0.32377 0.32468 0.24722 0.0
C99 C 0.20482 0.20415 0.17046 0.0
O100 O 0.28264 0.33725 0.23743 0.0
Zn101 Zn 0.22842 0.29935 0.21028 0.0
O102 O 0.33724 0.28414 0.23525 0.0
Zn103 Zn 0.2991 0.2305 0.20748 0.0
O104 O 0.30237 0.25106 0.12521 0.0
O105 O 0.24795 0.30436 0.1284 0.0
O106 O 0.2457 0.19135 0.18134 0.0
O107 O 0.19153 0.24492 0.18151 0.0
O108 O 0.22354 0.27961 0.29245 0.0
O109 O 0.27906 0.22746 0.28964 0.0
C110 C 0.27711 0.28075 0.10057 0.0
C111 C 0.24944 0.25061 0.31732 0.0
C112 C 0.70346 0.32521 0.7455 0.0
C113 C 0.82474 0.20585 0.67088 0.0
O114 O 0.69064 0.28429 0.73436 0.0
Zn115 Zn 0.72934 0.23041 0.70769 0.0
O116 O 0.74455 0.33809 0.73613 0.0
Zn117 Zn 0.79906 0.30015 0.71037 0.0
O118 O 0.77958 0.30381 0.62843 0.0
O119 O 0.72547 0.25019 0.62518 0.0
O120 O 0.8375 0.24672 0.68233 0.0
O121 O 0.78386 0.19262 0.68103 0.0
O122 O 0.74926 0.22696 0.78996 0.0
O123 O 0.80386 0.28008 0.79233 0.0
C124 C 0.75061 0.28001 0.60057 0.0
C125 C 0.77878 0.25049 0.81735 0.0
C126 C 0.82518 0.70598 0.24681 0.0
C127 C 0.70323 0.82385 0.17016 0.0
O128 O 0.83778 0.74687 0.23524 0.0
Zn129 Zn 0.79842 0.79978 0.20754 0.0
O130 O 0.78422 0.69273 0.23725 0.0
Zn131 Zn 0.72935 0.72981 0.21039 0.0
O132 O 0.74936 0.72536 0.12838 0.0
O133 O 0.8034 0.77904 0.12558 0.0
O134 O 0.69066 0.78299 0.18191 0.0
O135 O 0.74406 0.8373 0.18016 0.0
O136 O 0.77801 0.80359 0.28953 0.0
O137 O 0.72376 0.75015 0.29241 0.0
C138 C 0.77876 0.74888 0.10083 0.0
C139 C 0.74854 0.78021 0.31714 0.0
C140 C 0.77915 0.28021 0.31735 0.0
C141 C 0.75054 0.25004 0.10077 0.0
O142 O 0.74904 0.30313 0.29021 0.0
Zn143 Zn 0.7285 0.29892 0.20839 0.0
O144 O 0.80445 0.25084 0.29217 0.0
Zn145 Zn 0.79953 0.23047 0.21015 0.0
O146 O 0.8364 0.28484 0.18141 0.0
O147 O 0.78184 0.33802 0.18155 0.0
O148 O 0.77999 0.22653 0.1282 0.0
O149 O 0.72494 0.27921 0.12587 0.0
O150 O 0.69116 0.24436 0.23562 0.0
O151 O 0.74586 0.19134 0.23591 0.0
C152 C 0.8228 0.32554 0.17052 0.0
C153 C 0.7047 0.20358 0.24613 0.0
C154 C 0.70407 0.70418 0.67194 0.0
C155 C 0.82412 0.82528 0.74549 0.0
O156 O 0.69076 0.74485 0.68365 0.0
Zn157 Zn 0.72861 0.79913 0.71117 0.0
O158 O 0.74534 0.69174 0.68101 0.0
Zn159 Zn 0.79929 0.7305 0.70667 0.0
O160 O 0.78015 0.72602 0.78893 0.0
O161 O 0.72536 0.77886 0.79342 0.0
O162 O 0.83721 0.7845 0.73413 0.0
O163 O 0.7829 0.8379 0.73632 0.0
O164 O 0.74745 0.80361 0.62887 0.0
O165 O 0.8026 0.75114 0.62456 0.0
C166 C 0.75096 0.74911 0.81738 0.0
C167 C 0.77682 0.78069 0.60051 0.0
C168 C 0.45272 0.45531 0.42202 0.0
C169 C 0.57462 0.57371 0.49725 0.0
O170 O 0.44049 0.49655 0.43216 0.0
Zn171 Zn 0.47973 0.55026 0.45763 0.0
O172 O 0.49348 0.44182 0.4324 0.0
Zn173 Zn 0.54808 0.47918 0.45954 0.0
O174 O 0.52864 0.47557 0.54203 0.0
O175 O 0.47604 0.53071 0.53975 0.0
O176 O 0.58707 0.53267 0.48625 0.0
O177 O 0.53397 0.58732 0.4864 0.0
O178 O 0.50034 0.5549 0.37551 0.0
O179 O 0.55264 0.49952 0.37782 0.0
C180 C 0.49956 0.50122 0.56717 0.0
C181 C 0.52982 0.52961 0.35053 0.0
C182 C 0.02818 0.52856 0.06736 0.0
C183 C 0.99816 0.50163 0.85046 0.0
O184 O 0.99911 0.55439 0.04256 0.0
Zn185 Zn 0.97966 0.55012 -0.03967 0.0
O186 O 0.05143 0.49902 0.03962 0.0
Zn187 Zn 0.04813 0.47935 0.9573 0.0
O188 O 0.08749 0.53291 0.93132 0.0
O189 O 0.03409 0.58724 0.93224 0.0
O190 O 0.0278 0.47622 0.87493 0.0
O191 O 0.97477 0.5309 0.87841 0.0
O192 O 0.94119 0.4959 -0.01386 0.0
O193 O 0.99409 0.4411 -0.01564 0.0
C194 C 0.07478 0.574 0.92103 0.0
C195 C 0.95347 0.45458 -0.00435 0.0
C196 C 0.45465 0.57578 -0.00331 0.0
C197 C 0.5741 0.4555 0.92041 0.0
O198 O 0.44156 0.5348 -0.01351 0.0
Zn199 Zn 0.47958 0.48035 -0.03965 0.0
O200 O 0.49548 0.58863 -0.01442 0.0
Zn201 Zn 0.54905 0.55042 0.95774 0.0
O202 O 0.52889 0.55479 0.87578 0.0
O203 O 0.47587 0.50007 0.87806 0.0
O204 O 0.58722 0.49643 0.93081 0.0
O205 O 0.53338 0.44253 0.93193 0.0
O206 O 0.49992 0.47596 0.04271 0.0
O207 O 0.55317 0.53041 0.03949 0.0
C208 C 0.49947 0.52954 0.85068 0.0
C209 C 0.52976 0.50112 0.0673 0.0
C210 C 0.07341 0.45391 0.49655 0.0
C211 C 0.95481 0.57546 0.421 0.0
O212 O 0.08659 0.49483 0.48629 0.0
Zn213 Zn 0.04894 0.54937 0.46011 0.0
O214 O 0.03243 0.44127 0.48584 0.0
Zn215 Zn 0.97886 0.48001 0.45837 0.0
O216 O 0.99838 0.47515 0.37611 0.0
O217 O 0.05193 0.52936 0.378 0.0
O218 O 0.94137 0.53463 0.43142 0.0
O219 O 0.99575 0.588 0.43209 0.0
O220 O 0.02841 0.55461 0.54218 0.0
O221 O 0.97489 0.50039 0.54014 0.0
C222 C 0.02795 0.50007 0.35081 0.0
C223 C 0.99845 0.53001 0.5673 0.0
C224 C 0.9948 1.0118 0.17926 0.0
C225 C 0.99766 1.00561 0.12834 0.0
C226 C 0.99478 0.02227 0.23826 0.0
C227 C 0.99786 0.02736 0.28933 0.0
C228 C 0.27142 0.74891 0.42947 0.0
C229 C 0.27659 0.75104 0.37836 0.0
C230 C 0.26092 0.74887 0.48843 0.0
C231 C 0.25454 0.75094 0.53934 0.0
C232 C 0.53324 1.00809 0.73815 0.0
C233 C 0.53003 1.00267 0.78916 0.0
C234 C 0.53322 0.01894 0.67926 0.0
C235 C 0.53022 0.02525 0.62839 0.0
C236 C 0.25597 0.28236 0.92964 0.0
C237 C 0.2507 0.27972 0.87856 0.0
C238 C 0.26679 0.28248 -0.01148 0.0
C239 C 0.27325 0.28019 0.03942 0.0
C240 C 0.03309 1.01138 0.67936 0.0
C241 C 0.03002 1.0053 0.62845 0.0
C242 C 0.03344 0.02181 0.73836 0.0
C243 C 0.03052 0.02702 0.78943 0.0
C244 C 0.77168 0.2828 0.4297 0.0
C245 C 0.77685 0.28019 0.37861 0.0
C246 C 0.76094 0.2825 0.48859 0.0
C247 C 0.75441 0.27979 0.53943 0.0
C248 C 0.49686 0.01768 0.17937 0.0
C249 C 0.49934 0.02398 0.12845 0.0
C250 C 0.49649 1.00727 0.23837 0.0
C251 C 0.49879 1.00218 0.28952 0.0
C252 C 0.77111 0.74551 -0.01152 0.0
C253 C 0.77622 0.74845 0.03956 0.0
C254 C 0.76074 0.7456 0.92947 0.0
C255 C 0.75468 0.74856 0.87855 0.0
C256 C 0.49875 0.51076 0.67934 0.0
C257 C 0.50054 0.50472 0.62833 0.0
C258 C 0.49857 0.52105 0.73836 0.0
C259 C 0.50028 0.52644 0.78948 0.0
C260 C 0.77086 0.24876 0.92971 0.0
C261 C 0.77603 0.25088 0.87859 0.0
C262 C 0.76045 0.24891 -0.01131 0.0
C263 C 0.75415 0.25093 0.03962 0.0
C264 C 0.02915 0.51896 0.17953 0.0
C265 C 0.02739 0.52491 0.12852 0.0
C266 C 0.02902 0.50863 0.23853 0.0
C267 C 0.02711 0.5031 0.28961 0.0
C268 C 0.7669 0.78387 0.48844 0.0
C269 C 0.77307 0.78104 0.53935 0.0
C270 C 0.75637 0.78379 0.42946 0.0
C271 C 0.75113 0.78072 0.37841 0.0
C272 C 0.53309 0.5109 0.17936 0.0
C273 C 0.52998 0.50455 0.1285 0.0
C274 C 0.53326 0.52183 0.23823 0.0
C275 C 0.53018 0.52726 0.28925 0.0
C276 C 0.25576 0.78166 -0.01164 0.0
C277 C 0.25044 0.77907 0.03943 0.0
C278 C 0.26644 0.78179 0.92945 0.0
C279 C 0.2728 0.77958 0.87855 0.0
C280 C 0.99539 0.51169 0.73846 0.0
C281 C 0.99817 0.50529 0.78932 0.0
C282 C 0.99533 0.52249 0.6796 0.0
C283 C 0.99828 0.52773 0.62855 0.0
C284 C 0.25955 0.24976 0.42946 0.0
C285 C 0.25324 0.25155 0.37849 0.0
C286 C 0.2703 0.24989 0.48839 0.0
C287 C 0.27604 0.25187 0.53945 0.0
C288 C 0.12698 0.12739 0.06164 0.0
C289 C 0.1027 0.10379 0.03151 0.0
C290 C 0.15343 0.15307 0.10147 0.0
C291 C 0.17712 0.17614 0.13296 0.0
C292 C 0.12747 0.90287 0.356 0.0
C293 C 0.10296 0.92625 0.38614 0.0
C294 C 0.15378 0.87707 0.31614 0.0
C295 C 0.17675 0.85316 0.28479 0.0
C296 C 0.37745 0.87674 0.60609 0.0
C297 C 0.35378 0.85261 0.63635 0.0
C298 C 0.40317 0.90313 0.56623 0.0
C299 C 0.42597 0.92725 0.53495 0.0
C300 C 0.37557 0.15416 0.81625 0.0
C301 C 0.35217 0.17763 0.78492 0.0
C302 C 0.40191 0.12837 0.85605 0.0
C303 C 0.42625 0.10486 0.88621 0.0
C304 C 0.90312 0.90353 0.85122 0.0
C305 C 0.92702 0.92648 0.8826 0.0
C306 C 0.8767 0.87773 0.81145 0.0
C307 C 0.85283 0.85367 0.78134 0.0
C308 C 0.87654 0.15442 0.60269 0.0
C309 C 0.85314 0.17812 0.63381 0.0
C310 C 0.90254 0.1282 0.56289 0.0
C311 C 0.92641 0.10442 0.53243 0.0
C312 C 0.65283 0.15096 0.31267 0.0
C313 C 0.67673 0.17474 0.28231 0.0
C314 C 0.62635 0.1253 0.35247 0.0
C315 C 0.60229 0.10233 0.38358 0.0
C316 C 0.65135 0.8751 0.10192 0.0
C317 C 0.67466 0.85135 0.13307 0.0
C318 C 0.62551 0.90151 0.06219 0.0
C319 C 0.60174 0.92548 0.03187 0.0
C320 C 0.6264 0.62486 0.56578 0.0
C321 C 0.603 0.60128 0.5345 0.0
C322 C 0.65216 0.65136 0.60554 0.0
C323 C 0.67556 0.67573 0.63586 0.0
C324 C 0.62525 0.40414 0.85141 0.0
C325 C 0.60172 0.42739 0.8829 0.0
C326 C 0.6511 0.37784 0.81155 0.0
C327 C 0.67471 0.35355 0.7814 0.0
C328 C 0.87384 0.37732 0.10188 0.0
C329 C 0.85033 0.35391 0.1332 0.0
C330 C 0.90034 0.40304 0.0621 0.0
C331 C 0.92482 0.42631 0.03177 0.0
C332 C 0.90353 0.62773 0.35328 0.0
C333 C 0.9271 0.60404 0.38419 0.0
C334 C 0.87761 0.6541 0.31361 0.0
C335 C 0.85401 0.67809 0.28311 0.0
C336 C 0.37416 0.37682 0.31612 0.0
C337 C 0.35162 0.35261 0.28465 0.0
C338 C 0.39982 0.40323 0.35601 0.0
C339 C 0.42379 0.42717 0.38614 0.0
C340 C 0.40288 0.62745 0.06451 0.0
C341 C 0.42676 0.60413 0.03355 0.0
C342 C 0.37687 0.6535 0.10441 0.0
C343 C 0.35364 0.67774 0.13504 0.0
C344 C 0.15285 0.65157 0.81329 0.0
C345 C 0.17664 0.67526 0.78263 0.0
C346 C 0.1267 0.62539 0.85295 0.0
C347 C 0.10286 0.60209 0.88402 0.0
C348 C 0.12498 0.40141 0.5636 0.0
C349 C 0.10147 0.42539 0.533 0.0
C350 C 0.15104 0.37536 0.60343 0.0
C351 C 0.17459 0.35172 0.63438 0.0
loop_
_geom_bond_atom_site_label_1
_geom_bond_atom_site_label_2
_geom_bond_distance
_geom_bond_site_symmetry_2
_ccdc_geom_bond_type
C0 O2 1.247 . S
C0 O4 1.258 . S
C1 O8 1.247 . S
C1 O9 1.258 . S
O2 C0 1.247 . S
O2 Zn3 2.030 1_455 S
Zn3 O2 2.030 1_655 S
Zn3 O7 2.027 1_554 S
Zn3 O9 2.033 1_544 S
Zn3 O10 2.036 . S
O4 C0 1.258 . S
O4 Zn5 2.034 1_544 S
Zn5 O4 2.034 1_566 S
Zn5 O6 2.032 . S
Zn5 O8 2.029 1_455 S
Zn5 O11 2.031 1_556 S
O6 Zn5 2.032 . S
O6 C12 1.247 1_565 S
O7 Zn3 2.027 1_556 S
O7 C12 1.258 1_655 S
O8 C1 1.247 . S
O8 Zn5 2.029 1_655 S
O9 C1 1.258 . S
O9 Zn3 2.033 1_566 S
O10 Zn3 2.036 . S
O10 C13 1.247 1_545 S
O11 Zn5 2.031 1_554 S
O11 C13 1.258 1_455 S
C12 O6 1.247 1_545 S
C12 O7 1.258 1_455 S
C13 O10 1.247 1_565 S
C13 O11 1.258 1_655 S
C14 O16 1.247 . S
C14 O18 1.258 . S
C15 O22 1.247 . S
C15 O23 1.258 . S
O16 C14 1.247 . S
O16 Zn17 2.028 . S
Zn17 O16 2.028 . S
Zn17 O21 2.035 . S
Zn17 O23 2.035 . S
Zn17 O24 2.028 . S
O18 C14 1.258 . S
O18 Zn19 2.035 . S
Zn19 O18 2.035 . S
Zn19 O20 2.028 . S
Zn19 O22 2.028 . S
Zn19 O25 2.035 . S
O20 Zn19 2.028 . S
O20 C26 1.247 . S
O21 Zn17 2.035 . S
O21 C26 1.258 . S
O22 C15 1.247 . S
O22 Zn19 2.028 . S
O23 C15 1.258 . S
O23 Zn17 2.035 . S
O24 Zn17 2.028 . S
O24 C27 1.247 . S
O25 Zn19 2.035 . S
O25 C27 1.258 . S
C26 O20 1.247 . S
C26 O21 1.258 . S
C27 O24 1.247 . S
C27 O25 1.258 . S
C28 O30 1.247 . S
C28 O32 1.258 1_545 S
C29 O36 1.247 . S
C29 O37 1.258 1_565 S
O30 C28 1.247 . S
O30 Zn31 2.028 . S
Zn31 O30 2.028 . S
Zn31 O35 2.035 . S
Zn31 O37 2.035 . S
Zn31 O38 2.028 1_545 S
O32 C28 1.258 1_565 S
O32 Zn33 2.035 . S
Zn33 O32 2.035 . S
Zn33 O34 2.028 1_565 S
Zn33 O36 2.028 . S
Zn33 O39 2.035 . S
O34 Zn33 2.028 1_545 S
O34 C40 1.247 . S
O35 Zn31 2.035 . S
O35 C40 1.258 . S
O36 C29 1.247 . S
O36 Zn33 2.028 . S
O37 C29 1.258 1_545 S
O37 Zn31 2.035 . S
O38 Zn31 2.028 1_565 S
O38 C41 1.247 . S
O39 Zn33 2.035 . S
O39 C41 1.258 . S
C40 O34 1.247 . S
C40 O35 1.258 . S
C41 O38 1.247 . S
C41 O39 1.258 . S
C42 O44 1.247 . S
C42 O46 1.258 . S
C43 O50 1.247 . S
C43 O51 1.258 . S
O44 C42 1.247 . S
O44 Zn45 2.028 . S
Zn45 O44 2.028 . S
Zn45 O49 2.035 . S
Zn45 O51 2.035 . S
Zn45 O52 2.028 . S
O46 C42 1.258 . S
O46 Zn47 2.035 . S
Zn47 O46 2.035 . S
Zn47 O48 2.028 . S
Zn47 O50 2.028 . S
Zn47 O53 2.035 . S
O48 Zn47 2.028 . S
O48 C54 1.247 . S
O49 Zn45 2.035 . S
O49 C54 1.258 . S
O50 C43 1.247 . S
O50 Zn47 2.028 . S
O51 C43 1.258 . S
O51 Zn45 2.035 . S
O52 Zn45 2.028 . S
O52 C55 1.247 . S
O53 Zn47 2.035 . S
O53 C55 1.258 . S
C54 O48 1.247 . S
C54 O49 1.258 . S
C55 O52 1.247 . S
C55 O53 1.258 . S
C56 O58 1.247 . S
C56 O60 1.258 . S
C57 O64 1.247 . S
C57 O65 1.258 . S
O58 C56 1.247 . S
O58 Zn59 2.028 1_545 S
Zn59 O58 2.028 1_565 S
Zn59 O63 2.035 . S
Zn59 O65 2.035 1_655 S
Zn59 O66 2.028 . S
O60 C56 1.258 . S
O60 Zn61 2.035 1_655 S
Zn61 O60 2.035 1_455 S
Zn61 O62 2.028 . S
Zn61 O64 2.028 1_545 S
Zn61 O67 2.035 . S
O62 Zn61 2.028 . S
O62 C68 1.247 1_455 S
O63 Zn59 2.035 . S
O63 C68 1.258 1_565 S
O64 C57 1.247 . S
O64 Zn61 2.028 1_565 S
O65 C57 1.258 . S
O65 Zn59 2.035 1_455 S
O66 Zn59 2.028 . S
O66 C69 1.247 1_655 S
O67 Zn61 2.035 . S
O67 C69 1.258 1_545 S
C68 O62 1.247 1_655 S
C68 O63 1.258 1_545 S
C69 O66 1.247 1_455 S
C69 O67 1.258 1_565 S
C70 O72 1.247 . S
C70 O74 1.258 . S
C71 O78 1.247 . S
C71 O79 1.258 . S
O72 C70 1.247 . S
O72 Zn73 2.028 . S
Zn73 O72 2.028 . S
Zn73 O77 2.035 . S
Zn73 O79 2.035 . S
Zn73 O80 2.028 . S
O74 C70 1.258 . S
O74 Zn75 2.035 . S
Zn75 O74 2.035 . S
Zn75 O76 2.028 . S
Zn75 O78 2.028 . S
Zn75 O81 2.035 . S
O76 Zn75 2.028 . S
O76 C82 1.247 . S
O77 Zn73 2.035 . S
O77 C82 1.258 . S
O78 C71 1.247 . S
O78 Zn75 2.028 . S
O79 C71 1.258 . S
O79 Zn73 2.035 . S
O80 Zn73 2.028 . S
O80 C83 1.247 . S
O81 Zn75 2.035 . S
O81 C83 1.258 . S
C82 O76 1.247 . S
C82 O77 1.258 . S
C83 O80 1.247 . S
C83 O81 1.258 . S
C84 O86 1.247 . S
C84 O88 1.258 . S
C85 O92 1.247 . S
C85 O93 1.258 . S
O86 C84 1.247 . S
O86 Zn87 2.030 1_565 S
Zn87 O86 2.030 1_545 S
Zn87 O91 2.027 1_554 S
Zn87 O93 2.033 1_554 S
Zn87 O94 2.036 . S
O88 C84 1.258 . S
O88 Zn89 2.034 1_554 S
Zn89 O88 2.034 1_556 S
Zn89 O90 2.032 . S
Zn89 O92 2.029 1_565 S
Zn89 O95 2.031 1_556 S
O90 Zn89 2.032 . S
O90 C96 1.247 . S
O91 Zn87 2.027 1_556 S
O91 C96 1.258 1_545 S
O92 C85 1.247 . S
O92 Zn89 2.029 1_545 S
O93 C85 1.258 . S
O93 Zn87 2.033 1_556 S
O94 Zn87 2.036 . S
O94 C97 1.247 . S
O95 Zn89 2.031 1_554 S
O95 C97 1.258 1_565 S
C96 O90 1.247 . S
C96 O91 1.258 1_565 S
C97 O94 1.247 . S
C97 O95 1.258 1_545 S
C98 O100 1.247 . S
C98 O102 1.258 . S
C99 O106 1.247 . S
C99 O107 1.258 . S
O100 C98 1.247 . S
O100 Zn101 2.028 . S
Zn101 O100 2.028 . S
Zn101 O105 2.035 . S
Zn101 O107 2.035 . S
Zn101 O108 2.028 . S
O102 C98 1.258 . S
O102 Zn103 2.035 . S
Zn103 O102 2.035 . S
Zn103 O104 2.028 . S
Zn103 O106 2.028 . S
Zn103 O109 2.035 . S
O104 Zn103 2.028 . S
O104 C110 1.247 . S
O105 Zn101 2.035 . S
O105 C110 1.258 . S
O106 C99 1.247 . S
O106 Zn103 2.028 . S
O107 C99 1.258 . S
O107 Zn101 2.035 . S
O108 Zn101 2.028 . S
O108 C111 1.247 . S
O109 Zn103 2.035 . S
O109 C111 1.258 . S
C110 O104 1.247 . S
C110 O105 1.258 . S
C111 O108 1.247 . S
C111 O109 1.258 . S
C112 O114 1.247 . S
C112 O116 1.258 . S
C113 O120 1.247 . S
C113 O121 1.258 . S
O114 C112 1.247 . S
O114 Zn115 2.028 . S
Zn115 O114 2.028 . S
Zn115 O119 2.035 . S
Zn115 O121 2.035 . S
Zn115 O122 2.028 . S
O116 C112 1.258 . S
O116 Zn117 2.035 . S
Zn117 O116 2.035 . S
Zn117 O118 2.028 . S
Zn117 O120 2.028 . S
Zn117 O123 2.035 . S
O118 Zn117 2.028 . S
O118 C124 1.247 . S
O119 Zn115 2.035 . S
O119 C124 1.258 . S
O120 C113 1.247 . S
O120 Zn117 2.028 . S
O121 C113 1.258 . S
O121 Zn115 2.035 . S
O122 Zn115 2.028 . S
O122 C125 1.247 . S
O123 Zn117 2.035 . S
O123 C125 1.258 . S
C124 O118 1.247 . S
C124 O119 1.258 . S
C125 O122 1.247 . S
C125 O123 1.258 . S
C126 O128 1.247 . S
C126 O130 1.258 . S
C127 O134 1.247 . S
C127 O135 1.258 . S
O128 C126 1.247 . S
O128 Zn129 2.028 . S
Zn129 O128 2.028 . S
Zn129 O133 2.035 . S
Zn129 O135 2.035 . S
Zn129 O136 2.028 . S
O130 C126 1.258 . S
O130 Zn131 2.035 . S
Zn131 O130 2.035 . S
Zn131 O132 2.028 . S
Zn131 O134 2.028 . S
Zn131 O137 2.035 . S
O132 Zn131 2.028 . S
O132 C138 1.247 . S
O133 Zn129 2.035 . S
O133 C138 1.258 . S
O134 C127 1.247 . S
O134 Zn131 2.028 . S
O135 C127 1.258 . S
O135 Zn129 2.035 . S
O136 Zn129 2.028 . S
O136 C139 1.247 . S
O137 Zn131 2.035 . S
O137 C139 1.258 . S
C138 O132 1.247 . S
C138 O133 1.258 . S
C139 O136 1.247 . S
C139 O137 1.258 . S
C140 O142 1.247 . S
C140 O144 1.258 . S
C141 O148 1.247 . S
C141 O149 1.258 . S
O142 C140 1.247 . S
O142 Zn143 2.028 . S
Zn143 O142 2.028 . S
Zn143 O147 2.035 . S
Zn143 O149 2.035 . S
Zn143 O150 2.028 . S
O144 C140 1.258 . S
O144 Zn145 2.035 . S
Zn145 O144 2.035 . S
Zn145 O146 2.028 . S
Zn145 O148 2.028 . S
Zn145 O151 2.035 . S
O146 Zn145 2.028 . S
O146 C152 1.247 . S
O147 Zn143 2.035 . S
O147 C152 1.258 . S
O148 C141 1.247 . S
O148 Zn145 2.028 . S
O149 C141 1.258 . S
O149 Zn143 2.035 . S
O150 Zn143 2.028 . S
O150 C153 1.247 . S
O151 Zn145 2.035 . S
O151 C153 1.258 . S
C152 O146 1.247 . S
C152 O147 1.258 . S
C153 O150 1.247 . S
C153 O151 1.258 . S
C154 O156 1.247 . S
C154 O158 1.258 . S
C155 O162 1.247 . S
C155 O163 1.258 . S
O156 C154 1.247 . S
O156 Zn157 2.028 . S
Zn157 O156 2.028 . S
Zn157 O161 2.035 . S
Zn157 O163 2.035 . S
Zn157 O164 2.028 . S
O158 C154 1.258 . S
O158 Zn159 2.035 . S
Zn159 O158 2.035 . S
Zn159 O160 2.028 . S
Zn159 O162 2.028 . S
Zn159 O165 2.035 . S
O160 Zn159 2.028 . S
O160 C166 1.247 . S
O161 Zn157 2.035 . S
O161 C166 1.258 . S
O162 C155 1.247 . S
O162 Zn159 2.028 . S
O163 C155 1.258 . S
O163 Zn157 2.035 . S
O164 Zn157 2.028 . S
O164 C167 1.247 . S
O165 Zn159 2.035 . S
O165 C167 1.258 . S
C166 O160 1.247 . S
C166 O161 1.258 . S
C167 O164 1.247 . S
C167 O165 1.258 . S
C168 O170 1.247 . S
C168 O172 1.258 . S
C169 O176 1.247 . S
C169 O177 1.258 . S
O170 C168 1.247 . S
O170 Zn171 2.028 . S
Zn171 O170 2.028 . S
Zn171 O175 2.035 . S
Zn171 O177 2.035 . S
Zn171 O178 2.028 . S
O172 C168 1.258 . S
O172 Zn173 2.035 . S
Zn173 O172 2.035 . S
Zn173 O174 2.028 . S
Zn173 O176 2.028 . S
Zn173 O179 2.035 . S
O174 Zn173 2.028 . S
O174 C180 1.247 . S
O175 Zn171 2.035 . S
O175 C180 1.258 . S
O176 C169 1.247 . S
O176 Zn173 2.028 . S
O177 C169 1.258 . S
O177 Zn171 2.035 . S
O178 Zn171 2.028 . S
O178 C181 1.247 . S
O179 Zn173 2.035 . S
O179 C181 1.258 . S
C180 O174 1.247 . S
C180 O175 1.258 . S
C181 O178 1.247 . S
C181 O179 1.258 . S
C182 O184 1.247 1_455 S
C182 O186 1.258 . S
C183 O190 1.247 1_655 S
C183 O191 1.258 . S
O184 C182 1.247 1_655 S
O184 Zn185 2.036 . S
Zn185 O184 2.036 . S
Zn185 O189 2.033 1_654 S
Zn185 O191 2.027 1_554 S
Zn185 O192 2.030 . S
O186 C182 1.258 . S
O186 Zn187 2.031 1_554 S
Zn187 O186 2.031 1_556 S
Zn187 O188 2.029 . S
Zn187 O190 2.032 . S
Zn187 O193 2.034 1_456 S
O188 Zn187 2.029 . S
O188 C194 1.247 . S
O189 Zn185 2.033 1_456 S
O189 C194 1.258 . S
O190 C183 1.247 1_455 S
O190 Zn187 2.032 . S
O191 C183 1.258 . S
O191 Zn185 2.027 1_556 S
O192 Zn185 2.030 . S
O192 C195 1.247 . S
O193 Zn187 2.034 1_654 S
O193 C195 1.258 . S
C194 O188 1.247 . S
C194 O189 1.258 . S
C195 O192 1.247 . S
C195 O193 1.258 . S
C196 O198 1.247 . S
C196 O200 1.258 . S
C197 O204 1.247 . S
C197 O205 1.258 . S
O198 C196 1.247 . S
O198 Zn199 2.030 . S
Zn199 O198 2.030 . S
Zn199 O203 2.027 1_554 S
Zn199 O205 2.033 1_554 S
Zn199 O206 2.036 . S
O200 C196 1.258 . S
O200 Zn201 2.034 1_554 S
Zn201 O200 2.034 1_556 S
Zn201 O202 2.032 . S
Zn201 O204 2.029 . S
Zn201 O207 2.031 1_556 S
O202 Zn201 2.032 . S
O202 C208 1.247 . S
O203 Zn199 2.027 1_556 S
O203 C208 1.258 . S
O204 C197 1.247 . S
O204 Zn201 2.029 . S
O205 C197 1.258 . S
O205 Zn199 2.033 1_556 S
O206 Zn199 2.036 . S
O206 C209 1.247 . S
O207 Zn201 2.031 1_554 S
O207 C209 1.258 . S
C208 O202 1.247 . S
C208 O203 1.258 . S
C209 O206 1.247 . S
C209 O207 1.258 . S
C210 O212 1.247 . S
C210 O214 1.258 . S
C211 O218 1.247 . S
C211 O219 1.258 . S
O212 C210 1.247 . S
O212 Zn213 2.028 . S
Zn213 O212 2.028 . S
Zn213 O217 2.035 . S
Zn213 O219 2.035 1_455 S
Zn213 O220 2.028 . S
O214 C210 1.258 . S
O214 Zn215 2.035 1_455 S
Zn215 O214 2.035 1_655 S
Zn215 O216 2.028 . S
Zn215 O218 2.028 . S
Zn215 O221 2.035 . S
O216 Zn215 2.028 . S
O216 C222 1.247 1_655 S
O217 Zn213 2.035 . S
O217 C222 1.258 . S
O218 C211 1.247 . S
O218 Zn215 2.028 . S
O219 C211 1.258 . S
O219 Zn213 2.035 1_655 S
O220 Zn213 2.028 . S
O220 C223 1.247 1_455 S
O221 Zn215 2.035 . S
O221 C223 1.258 . S
C222 O216 1.247 1_455 S
C222 O217 1.258 . S
C223 O220 1.247 1_655 S
C223 O221 1.258 . S
C224 C225 1.176 . S
C224 C226 1.376 1_565 S
C225 C224 1.176 . S
C226 C224 1.376 1_545 S
C226 C227 1.170 . S
C227 C226 1.170 . S
C228 C229 1.170 . S
C228 C230 1.380 . S
C229 C228 1.170 . S
C230 C228 1.380 . S
C230 C231 1.170 . S
C231 C230 1.170 . S
C232 C233 1.170 . S
C232 C234 1.380 1_565 S
C233 C232 1.170 . S
C234 C232 1.380 1_545 S
C234 C235 1.170 . S
C235 C234 1.170 . S
C236 C237 1.170 . S
C236 C238 1.380 1_556 S
C237 C236 1.170 . S
C238 C236 1.380 1_554 S
C238 C239 1.170 . S
C239 C238 1.170 . S
C240 C241 1.170 . S
C240 C242 1.380 1_565 S
C241 C240 1.170 . S
C242 C240 1.380 1_545 S
C242 C243 1.170 . S
C243 C242 1.170 . S
C244 C245 1.170 . S
C244 C246 1.380 . S
C245 C244 1.170 . S
C246 C244 1.380 . S
C246 C247 1.170 . S
C247 C246 1.170 . S
C248 C249 1.172 . S
C248 C250 1.378 1_545 S
C249 C248 1.172 . S
C250 C248 1.378 1_565 S
C250 C251 1.170 . S
C251 C250 1.170 . S
C252 C253 1.170 . S
C252 C254 1.380 1_554 S
C253 C252 1.170 . S
C254 C252 1.380 1_556 S
C254 C255 1.170 . S
C255 C254 1.170 . S
C256 C257 1.170 . S
C256 C258 1.380 . S
C257 C256 1.170 . S
C258 C256 1.380 . S
C258 C259 1.170 . S
C259 C258 1.170 . S
C260 C261 1.170 . S
C260 C262 1.380 1_556 S
C261 C260 1.170 . S
C262 C260 1.380 1_554 S
C262 C263 1.170 . S
C263 C262 1.170 . S
C264 C265 1.170 . S
C264 C266 1.380 . S
C265 C264 1.170 . S
C266 C264 1.380 . S
C266 C267 1.170 . S
C267 C266 1.170 . S
C268 C269 1.170 . S
C268 C270 1.380 . S
C269 C268 1.170 . S
C270 C268 1.380 . S
C270 C271 1.170 . S
C271 C270 1.170 . S
C272 C273 1.170 . S
C272 C274 1.380 . S
C273 C272 1.170 . S
C274 C272 1.380 . S
C274 C275 1.170 . S
C275 C274 1.170 . S
C276 C277 1.170 . S
C276 C278 1.380 1_554 S
C277 C276 1.170 . S
C278 C276 1.380 1_556 S
C278 C279 1.170 . S
C279 C278 1.170 . S
C280 C281 1.170 . S
C280 C282 1.380 . S
C281 C280 1.170 . S
C282 C280 1.380 . S
C282 C283 1.170 . S
C283 C282 1.170 . S
C284 C285 1.170 . S
C284 C286 1.380 . S
C285 C284 1.170 . S
C286 C284 1.380 . S
C286 C287 1.170 . S
C287 C286 1.170 . S
C288 C289 1.170 . S
C288 C290 1.380 . S
C289 C288 1.170 . S
C290 C288 1.380 . S
C290 C291 1.170 . S
C291 C290 1.170 . S
C292 C293 1.170 . S
C292 C294 1.380 . S
C293 C292 1.170 . S
C294 C292 1.380 . S
C294 C295 1.170 . S
C295 C294 1.170 . S
C296 C297 1.170 . S
C296 C298 1.380 . S
C297 C296 1.170 . S
C298 C296 1.380 . S
C298 C299 1.170 . S
C299 C298 1.170 . S
C300 C301 1.170 . S
C300 C302 1.380 . S
C301 C300 1.170 . S
C302 C300 1.380 . S
C302 C303 1.170 . S
C303 C302 1.170 . S
C304 C305 1.170 . S
C304 C306 1.380 . S
C305 C304 1.170 . S
C306 C304 1.380 . S
C306 C307 1.170 . S
C307 C306 1.170 . S
C308 C309 1.170 . S
C308 C310 1.380 . S
C309 C308 1.170 . S
C310 C308 1.380 . S
C310 C311 1.170 . S
C311 C310 1.170 . S
C312 C313 1.170 . S
C312 C314 1.380 . S
C313 C312 1.170 . S
C314 C312 1.380 . S
C314 C315 1.170 . S
C315 C314 1.170 . S
C316 C317 1.170 . S
C316 C318 1.380 . S
C317 C316 1.170 . S
C318 C316 1.380 . S
C318 C319 1.170 . S
C319 C318 1.170 . S
C320 C321 1.170 . S
C320 C322 1.380 . S
C321 C320 1.170 . S
C322 C320 1.380 . S
C322 C323 1.170 . S
C323 C322 1.170 . S
C324 C325 1.170 . S
C324 C326 1.380 . S
C325 C324 1.170 . S
C326 C324 1.380 . S
C326 C327 1.170 . S
C327 C326 1.170 . S
C328 C329 1.170 . S
C328 C330 1.380 . S
C329 C328 1.170 . S
C330 C328 1.380 . S
C330 C331 1.170 . S
C331 C330 1.170 . S
C332 C333 1.170 . S
C332 C334 1.380 . S
C333 C332 1.170 . S
C334 C332 1.380 . S
C334 C335 1.170 . S
C335 C334 1.170 . S
C336 C337 1.170 . S
C336 C338 1.380 . S
C337 C336 1.170 . S
C338 C336 1.380 . S
C338 C339 1.170 . S
C339 C338 1.170 . S
C340 C341 1.170 . S
C340 C342 1.380 . S
C341 C340 1.170 . S
C342 C340 1.380 . S
C342 C343 1.170 . S
C343 C342 1.170 . S
C344 C345 1.170 . S
C344 C346 1.380 . S
C345 C344 1.170 . S
C346 C344 1.380 . S
C346 C347 1.170 . S
C347 C346 1.170 . S
C348 C349 1.170 . S
C348 C350 1.380 . S
C349 C348 1.170 . S
C350 C348 1.380 . S
C350 C351 1.170 . S
C351 C350 1.170 . S
C225 C13 1.000 . S
C227 C68 1.017 . S
C229 C27 1.012 . S
C231 C71 0.992 . S
C233 C96 1.019 . S
C235 C28 1.005 . S
C237 C55 1.018 . S
C239 C110 0.995 . S
C241 C69 0.995 . S
C243 C12 1.017 . S
C245 C140 1.019 . S
C247 C124 0.992 . S
C249 C97 0.993 . S
C251 C29 1.017 . S
C253 C138 1.015 . S
C255 C166 0.994 . S
C257 C180 0.994 . S
C259 C208 1.008 . S
C261 C125 1.012 . S
C263 C141 0.992 . S
C265 C182 0.995 . S
C267 C222 1.002 . S
C269 C167 0.999 . S
C271 C139 1.019 . S
C273 C209 0.997 . S
C275 C181 1.012 . S
C277 C26 1.019 . S
C279 C70 0.992 . S
C281 C183 0.994 . S
C283 C223 1.019 . S
C285 C111 1.002 . S
C287 C54 1.012 . S
C289 C0 1.595 . S
C291 C99 1.573 . S
C293 C57 1.595 . S
C295 C14 1.580 . S
C297 C82 1.592 . S
C299 C41 1.578 . S
C301 C42 1.576 . S
C303 C85 1.591 . S
C305 C1 1.577 . S
C307 C155 1.600 . S
C309 C113 1.584 . S
C311 C56 1.592 . S
C313 C153 1.588 . S
C315 C40 1.576 . S
C317 C127 1.581 . S
C319 C84 1.595 . S
C321 C169 1.581 . S
C323 C154 1.594 . S
C325 C197 1.577 . S
C327 C112 1.596 . S
C329 C152 1.580 . S
C331 C195 1.595 . S
C333 C211 1.581 . S
C335 C126 1.586 . S
C337 C98 1.576 . S
C339 C168 1.591 . S
C341 C196 1.587 . S
C343 C15 1.589 . S
C345 C83 1.586 . S
C347 C194 1.579 . S
C349 C210 1.590 . S
C351 C43 1.585 . S
