# Generated by pormake.
# Topology uki, (4)-cn, num edge types: 1
# Building blocks:
#     Node 0, Type 0, BuildingBlock: QUQFOY_clean_sbu_1, # of connection points: 4
#     Node 1, Type 0, BuildingBlock: QUQFOY_clean_sbu_1, # of connection points: 4
#     Node 2, Type 0, BuildingBlock: QUQFOY_clean_sbu_1, # of connection points: 4
#     Node 3, Type 0, BuildingBlock: QUQFOY_clean_sbu_1, # of connection points: 4
#     Node 4, Type 0, BuildingBlock: QUQFOY_clean_sbu_1, # of connection points: 4
#     Node 5, Type 0, BuildingBlock: QUQFOY_clean_sbu_1, # of connection points: 4
#     Node 6, Type 0, BuildingBlock: QUQFOY_clean_sbu_1, # of connection points: 4
#     Node 7, Type 0, BuildingBlock: QUQFOY_clean_sbu_1, # of connection points: 4
#     Node 8, Type 0, BuildingBlock: QUQFOY_clean_sbu_1, # of connection points: 4
#     Node 9, Type 0, BuildingBlock: QUQFOY_clean_sbu_1, # of connection points: 4
#     Node 10, Type 0, BuildingBlock: QUQFOY_clean_sbu_1, # of connection points: 4
#     Node 11, Type 0, BuildingBlock: QUQFOY_clean_sbu_1, # of connection points: 4
#     Node 12, Type 0, BuildingBlock: QUQFOY_clean_sbu_1, # of connection points: 4
#     Node 13, Type 0, BuildingBlock: QUQFOY_clean_sbu_1, # of connection points: 4
#     Node 14, Type 0, BuildingBlock: QUQFOY_clean_sbu_1, # of connection points: 4
#     Node 15, Type 0, BuildingBlock: QUQFOY_clean_sbu_1, # of connection points: 4
#     Edge 16, Type (0, 0), BuildingBlock: XUDNAN_clean_linker_2, # of connection points: 2
#     Edge 17, Type (0, 0), BuildingBlock: XUDNAN_clean_linker_2, # of connection points: 2
#     Edge 18, Type (0, 0), BuildingBlock: XUDNAN_clean_linker_2, # of connection points: 2
#     Edge 19, Type (0, 0), BuildingBlock: XUDNAN_clean_linker_2, # of connection points: 2
#     Edge 20, Type (0, 0), BuildingBlock: XUDNAN_clean_linker_2, # of connection points: 2
#     Edge 21, Type (0, 0), BuildingBlock: XUDNAN_clean_linker_2, # of connection points: 2
#     Edge 22, Type (0, 0), BuildingBlock: XUDNAN_clean_linker_2, # of connection points: 2
#     Edge 23, Type (0, 0), BuildingBlock: XUDNAN_clean_linker_2, # of connection points: 2
#     Edge 24, Type (0, 0), BuildingBlock: XUDNAN_clean_linker_2, # of connection points: 2
#     Edge 25, Type (0, 0), BuildingBlock: XUDNAN_clean_linker_2, # of connection points: 2
#     Edge 26, Type (0, 0), BuildingBlock: XUDNAN_clean_linker_2, # of connection points: 2
#     Edge 27, Type (0, 0), BuildingBlock: XUDNAN_clean_linker_2, # of connection points: 2
#     Edge 28, Type (0, 0), BuildingBlock: XUDNAN_clean_linker_2, # of connection points: 2
#     Edge 29, Type (0, 0), BuildingBlock: XUDNAN_clean_linker_2, # of connection points: 2
#     Edge 30, Type (0, 0), BuildingBlock: XUDNAN_clean_linker_2, # of connection points: 2
#     Edge 31, Type (0, 0), BuildingBlock: XUDNAN_clean_linker_2, # of connection points: 2
#     Edge 32, Type (0, 0), BuildingBlock: XUDNAN_clean_linker_2, # of connection points: 2
#     Edge 33, Type (0, 0), BuildingBlock: XUDNAN_clean_linker_2, # of connection points: 2
#     Edge 34, Type (0, 0), BuildingBlock: XUDNAN_clean_linker_2, # of connection points: 2
#     Edge 35, Type (0, 0), BuildingBlock: XUDNAN_clean_linker_2, # of connection points: 2
#     Edge 36, Type (0, 0), BuildingBlock: XUDNAN_clean_linker_2, # of connection points: 2
#     Edge 37, Type (0, 0), BuildingBlock: XUDNAN_clean_linker_2, # of connection points: 2
#     Edge 38, Type (0, 0), BuildingBlock: XUDNAN_clean_linker_2, # of connection points: 2
#     Edge 39, Type (0, 0), BuildingBlock: XUDNAN_clean_linker_2, # of connection points: 2
#     Edge 40, Type (0, 0), BuildingBlock: XUDNAN_clean_linker_2, # of connection points: 2
#     Edge 41, Type (0, 0), BuildingBlock: XUDNAN_clean_linker_2, # of connection points: 2
#     Edge 42, Type (0, 0), BuildingBlock: XUDNAN_clean_linker_2, # of connection points: 2
#     Edge 43, Type (0, 0), BuildingBlock: XUDNAN_clean_linker_2, # of connection points: 2
#     Edge 44, Type (0, 0), BuildingBlock: XUDNAN_clean_linker_2, # of connection points: 2
#     Edge 45, Type (0, 0), BuildingBlock: XUDNAN_clean_linker_2, # of connection points: 2
#     Edge 46, Type (0, 0), BuildingBlock: XUDNAN_clean_linker_2, # of connection points: 2
#     Edge 47, Type (0, 0), BuildingBlock: XUDNAN_clean_linker_2, # of connection points: 2
# Relax obj value: 0.032
# Max RMSD: 0.129
# Mean RMSD: 0.129
data_MOF--net-uki--node1-QUQFOY_clean_sbu_1--edge1-XUDNAN_clean_linker_2
_symmetry_space_group_name_H-M    P1
_symmetry_Int_Tables_number       1
_symmetry_cell_setting            triclinic
loop_
_symmetry_equiv_pos_as_xyz
'x, y, z'
_cell_length_a     32.612566
_cell_length_b     32.555017
_cell_length_c     73.064761
_cell_angle_alpha  89.985925
_cell_angle_beta   90.047903
_cell_angle_gamma 89.995104
loop_
_atom_site_label
_atom_site_type_symbol
_atom_site_fract_x
_atom_site_fract_y
_atom_site_fract_z
_atom_type_partial_charge
O0 O 0.14099 0.28662 0.29158 0.0
Cd1 Cd 0.10695 0.26353 0.31313 0.0
Cd2 Cd 0.08957 0.20963 0.28704 0.0
O3 O 0.13659 0.23519 0.27198 0.0
O4 O 0.13447 0.28464 0.33583 0.0
O5 O 0.13253 0.21883 0.32837 0.0
C6 C 0.14562 0.24734 0.33922 0.0
C7 C 0.07538 0.14047 0.29198 0.0
C8 C 0.15072 0.27025 0.27637 0.0
C9 C 0.02277 0.26787 0.29866 0.0
O10 O 0.03724 0.24368 0.28668 0.0
O11 O 0.04427 0.27761 0.31258 0.0
O12 O 0.07206 0.15657 0.2759 0.0
O13 O 0.09069 0.16282 0.30491 0.0
O14 O 0.27953 0.86448 0.73183 0.0
Cd15 Cd 0.25447 0.89791 0.71045 0.0
Cd16 Cd 0.20239 0.91433 0.73715 0.0
O17 O 0.2293 0.86782 0.75201 0.0
O18 O 0.27557 0.87087 0.68764 0.0
O19 O 0.21005 0.87114 0.69543 0.0
C20 C 0.23853 0.85885 0.68442 0.0
C21 C 0.13316 0.9274 0.73264 0.0
C22 C 0.26431 0.85443 0.74723 0.0
C23 C 0.25768 0.98252 0.7247 0.0
O24 O 0.23523 0.96744 0.73718 0.0
O25 O 0.26665 0.96112 0.71065 0.0
O26 O 0.14962 0.93079 0.74864 0.0
O27 O 0.15524 0.91243 0.71956 0.0
O28 O 0.87917 0.729 0.28915 0.0
Cd29 Cd 0.90516 0.75646 0.31192 0.0
Cd30 Cd 0.91177 0.81214 0.28682 0.0
O31 O 0.86427 0.78404 0.27296 0.0
O32 O 0.88619 0.72036 0.33231 0.0
O33 O 0.86831 0.78556 0.33026 0.0
C34 C 0.86489 0.75064 0.33853 0.0
C35 C 0.92205 0.88145 0.29261 0.0
C36 C 0.86201 0.74543 0.27533 0.0
C37 C 0.9865 0.76377 0.29663 0.0
O38 O 0.96673 0.78229 0.28413 0.0
O39 O 0.96893 0.75532 0.31172 0.0
O40 O 0.92319 0.86709 0.27615 0.0
O41 O 0.91064 0.85702 0.30561 0.0
O42 O 0.73235 0.14821 0.73564 0.0
Cd43 Cd 0.75382 0.11573 0.7132 0.0
Cd44 Cd 0.80947 0.09948 0.73949 0.0
O45 O 0.78457 0.146 0.75485 0.0
O46 O 0.71627 0.13668 0.69372 0.0
O47 O 0.78278 0.14839 0.69318 0.0
C48 C 0.747 0.15476 0.68615 0.0
C49 C 0.87813 0.08624 0.7338 0.0
C50 C 0.74898 0.15878 0.75068 0.0
C51 C 0.75416 0.03098 0.72804 0.0
O52 O 0.77652 0.04651 0.74044 0.0
O53 O 0.74478 0.05198 0.71392 0.0
O54 O 0.8631 0.08319 0.75007 0.0
O55 O 0.85489 0.10094 0.72101 0.0
O56 O 0.13841 0.22493 0.98329 0.0
Cd57 Cd 0.10938 0.25105 0.96089 0.0
Cd58 Cd 0.09102 0.30571 0.99089 0.0
O59 O 0.13383 0.27189 1.00505 0.0
O60 O 0.13056 0.21469 0.94102 0.0
O61 O 0.14523 0.28067 0.94217 0.0
C62 C 0.15064 0.24539 0.93447 0.0
C63 C 0.07706 0.37444 0.99775 0.0
C64 C 0.14678 0.2374 0.99937 0.0
C65 C 0.02248 0.2558 0.973 0.0
O66 O 0.03688 0.27643 0.98624 0.0
O67 O 0.04553 0.24507 0.95977 0.0
O68 O 0.07251 0.34581 1.00969 0.0
O69 O 0.09306 0.36472 0.98218 0.0
O70 O 0.22411 0.86492 0.0385 0.0
Cd71 Cd 0.25489 0.89559 0.05919 0.0
Cd72 Cd 0.30362 0.91258 0.02943 0.0
O73 O 0.26937 0.86868 0.0161 0.0
O74 O 0.23537 0.86852 0.0822 0.0
O75 O 0.29971 0.86545 0.07276 0.0
C76 C 0.27197 0.85427 0.08438 0.0
C77 C 0.37229 0.92589 0.02257 0.0
C78 C 0.23531 0.85589 0.02232 0.0
C79 C 0.25458 0.9818 0.04689 0.0
O80 O 0.27427 0.96705 0.03345 0.0
O81 O 0.24574 0.9591 0.06053 0.0
O82 O 0.34387 0.92967 0.01047 0.0
O83 O 0.36236 0.91095 0.03833 0.0
O84 O 0.86196 0.78016 0.98155 0.0
Cd85 Cd 0.89325 0.74912 0.96114 0.0
Cd86 Cd 0.90857 0.70055 0.99097 0.0
O87 O 0.86404 0.73453 1.00391 0.0
O88 O 0.86729 0.7689 0.9379 0.0
O89 O 0.8634 0.70447 0.94733 0.0
C90 C 0.85287 0.73234 0.93562 0.0
C91 C 0.92144 0.63152 0.99742 0.0
C92 C 0.85195 0.76884 0.99762 0.0
C93 C 0.97857 0.74959 0.97443 0.0
O94 O 0.96305 0.73022 0.98779 0.0
O95 O 0.9568 0.7579 0.96043 0.0
O96 O 0.92448 0.65944 1.00979 0.0
O97 O 0.90743 0.64216 0.98157 0.0
O98 O 0.77793 0.14381 0.03535 0.0
Cd99 Cd 0.7524 0.11391 0.05763 0.0
Cd100 Cd 0.69742 0.09673 0.02775 0.0
O101 O 0.73031 0.14059 0.01383 0.0
O102 O 0.78984 0.13359 0.07741 0.0
O103 O 0.72422 0.14941 0.07694 0.0
C104 C 0.75982 0.15385 0.08442 0.0
C105 C 0.62858 0.08244 0.02146 0.0
C106 C 0.765 0.15309 0.01944 0.0
C107 C 0.74818 0.0276 0.0445 0.0
O108 O 0.72757 0.04264 0.03139 0.0
O109 O 0.7583 0.04989 0.0581 0.0
O110 O 0.65652 0.07895 1.00916 0.0
O111 O 0.639 0.09761 0.03711 0.0
O112 O 0.63099 0.7884 0.79476 0.0
Cd113 Cd 0.5999 0.75521 0.81456 0.0
Cd114 Cd 0.58887 0.70657 0.78501 0.0
O115 O 0.63319 0.7421 0.77273 0.0
O116 O 0.62483 0.77265 0.83837 0.0
O117 O 0.63035 0.70956 0.82737 0.0
C118 C 0.64003 0.73617 0.8398 0.0
C119 C 0.57954 0.63692 0.77878 0.0
C120 C 0.64302 0.77717 0.77897 0.0
C121 C 0.51554 0.7523 0.80039 0.0
O122 O 0.53285 0.73384 0.78722 0.0
O123 O 0.53603 0.76141 0.81468 0.0
O124 O 0.57626 0.66436 0.76619 0.0
O125 O 0.59187 0.64856 0.79476 0.0
O126 O 0.79148 0.39179 0.22545 0.0
Cd127 Cd 0.76639 0.41918 0.20253 0.0
Cd128 Cd 0.71236 0.44539 0.23203 0.0
O129 O 0.74704 0.40514 0.24747 0.0
O130 O 0.80158 0.39419 0.18313 0.0
O131 O 0.73507 0.38303 0.18442 0.0
C132 C 0.76996 0.37521 0.17684 0.0
C133 C 0.64371 0.45801 0.23922 0.0
C134 C 0.77994 0.38825 0.24199 0.0
C135 C 0.7635 0.50892 0.21146 0.0
O136 O 0.74054 0.49898 0.22473 0.0
O137 O 0.77637 0.48223 0.2001 0.0
O138 O 0.67285 0.46659 0.25045 0.0
O139 O 0.65313 0.43946 0.22419 0.0
O140 O 0.38204 0.22088 0.79279 0.0
Cd141 Cd 0.41075 0.24923 0.81471 0.0
Cd142 Cd 0.42482 0.30388 0.78492 0.0
O143 O 0.38234 0.26859 0.77127 0.0
O144 O 0.39122 0.21401 0.83531 0.0
O145 O 0.37444 0.27938 0.83304 0.0
C146 C 0.37031 0.24466 0.84139 0.0
C147 C 0.43531 0.37329 0.77829 0.0
C148 C 0.37175 0.23325 0.77691 0.0
C149 C 0.49664 0.2573 0.80187 0.0
O150 O 0.48055 0.27694 0.78871 0.0
O151 O 0.47481 0.24589 0.81539 0.0
O152 O 0.44026 0.34522 0.76612 0.0
O153 O 0.42075 0.36246 0.794 0.0
O154 O 0.21885 0.63404 0.22512 0.0
Cd155 Cd 0.25095 0.60157 0.20544 0.0
Cd156 Cd 0.30156 0.59224 0.2341 0.0
O157 O 0.26718 0.63775 0.24617 0.0
O158 O 0.23326 0.62548 0.18147 0.0
O159 O 0.29646 0.63117 0.19226 0.0
C160 C 0.26972 0.64051 0.17985 0.0
C161 C 0.37178 0.58541 0.23927 0.0
C162 C 0.23166 0.64735 0.24047 0.0
C163 C 0.25499 0.51775 0.22042 0.0
O164 O 0.27459 0.53566 0.23313 0.0
O165 O 0.24474 0.53763 0.20611 0.0
O166 O 0.34559 0.58203 0.25233 0.0
O167 O 0.35841 0.59582 0.22328 0.0
O168 O 0.64728 0.73424 0.48474 0.0
Cd169 Cd 0.61466 0.756 0.46237 0.0
Cd170 Cd 0.59882 0.81177 0.48868 0.0
O171 O 0.64512 0.7864 0.50401 0.0
O172 O 0.63527 0.71869 0.44273 0.0
O173 O 0.64677 0.78537 0.44231 0.0
C174 C 0.65299 0.74965 0.43514 0.0
C175 C 0.58593 0.8807 0.48313 0.0
C176 C 0.65783 0.75076 0.49981 0.0
C177 C 0.5301 0.75674 0.47723 0.0
O178 O 0.54571 0.77915 0.48959 0.0
O179 O 0.55103 0.74709 0.46315 0.0
O180 O 0.58288 0.86547 0.49937 0.0
O181 O 0.60045 0.85751 0.4703 0.0
O182 O 0.72176 0.38368 0.54308 0.0
Cd183 Cd 0.7496 0.41272 0.56504 0.0
Cd184 Cd 0.80459 0.42682 0.53537 0.0
O185 O 0.76966 0.38404 0.5217 0.0
O186 O 0.7144 0.39297 0.58559 0.0
O187 O 0.77979 0.37663 0.58348 0.0
C188 C 0.74509 0.37225 0.59176 0.0
C189 C 0.87385 0.43775 0.52874 0.0
C190 C 0.73435 0.37334 0.52726 0.0
C191 C 0.75728 0.49866 0.55197 0.0
O192 O 0.7773 0.48249 0.53897 0.0
O193 O 0.74579 0.4769 0.56553 0.0
O194 O 0.84577 0.44244 0.51656 0.0
O195 O 0.86314 0.42323 0.54447 0.0
O196 O 0.36595 0.28372 0.48212 0.0
Cd197 Cd 0.39898 0.25891 0.46061 0.0
Cd198 Cd 0.4152 0.20592 0.48708 0.0
O199 O 0.36889 0.23274 0.50201 0.0
O200 O 0.37205 0.28068 0.43789 0.0
O201 O 0.37144 0.21499 0.44559 0.0
C202 C 0.35939 0.2438 0.43466 0.0
C203 C 0.42798 0.13657 0.48241 0.0
C204 C 0.35575 0.26802 0.49741 0.0
C205 C 0.48357 0.26107 0.47481 0.0
O206 O 0.46838 0.23854 0.48724 0.0
O207 O 0.46222 0.27043 0.46079 0.0
O208 O 0.43141 0.15282 0.49845 0.0
O209 O 0.41313 0.15894 0.46937 0.0
O210 O 0.28864 0.63397 0.54421 0.0
Cd211 Cd 0.25589 0.60332 0.56425 0.0
Cd212 Cd 0.20659 0.59184 0.53487 0.0
O213 O 0.24196 0.636 0.52234 0.0
O214 O 0.27415 0.62858 0.58785 0.0
O215 O 0.21095 0.63448 0.5771 0.0
C216 C 0.23792 0.64423 0.58935 0.0
C217 C 0.13701 0.58237 0.52873 0.0
C218 C 0.27711 0.64586 0.52843 0.0
C219 C 0.25245 0.51862 0.55047 0.0
O220 O 0.23381 0.53575 0.53728 0.0
O221 O 0.26187 0.53937 0.56465 0.0
O222 O 0.16434 0.57886 0.51614 0.0
O223 O 0.14872 0.59501 0.54465 0.0
H224 H 0.2084 0.32779 0.28394 0.0
H225 H 0.14268 0.27124 0.239 0.0
H226 H 0.16847 0.32523 0.21803 0.0
H227 H 0.18637 0.42626 0.27372 0.0
H228 H 0.23525 0.44783 0.28006 0.0
H229 H 0.21811 0.40097 0.29051 0.0
H230 H 0.28433 0.36379 0.28001 0.0
H231 H 0.30214 0.41087 0.26975 0.0
H232 H 0.29863 0.36477 0.25618 0.0
H233 H 0.19141 0.39355 0.20358 0.0
H234 H 0.21478 0.46453 0.19669 0.0
H235 H 0.26704 0.47269 0.25122 0.0
C236 C 0.20069 0.32592 0.26954 0.0
C237 C 0.17383 0.29532 0.26304 0.0
C238 C 0.16383 0.29411 0.24418 0.0
C239 C 0.17814 0.32481 0.2322 0.0
C240 C 0.20312 0.35583 0.23927 0.0
C241 C 0.21511 0.35584 0.25745 0.0
C242 C 0.23944 0.39384 0.26217 0.0
C243 C 0.21852 0.41867 0.27751 0.0
C244 C 0.28377 0.38264 0.26733 0.0
C245 C 0.23772 0.41625 0.24409 0.0
C246 C 0.21695 0.39402 0.23092 0.0
C247 C 0.20859 0.41074 0.21368 0.0
C248 C 0.22179 0.45113 0.20989 0.0
C249 C 0.24302 0.47422 0.22333 0.0
C250 C 0.25141 0.45594 0.24048 0.0
H251 H 0.46861 0.73959 0.77028 0.0
H252 H 0.46374 0.79254 0.82475 0.0
H253 H 0.39236 0.81562 0.81865 0.0
H254 H 0.42149 0.81977 0.74832 0.0
H255 H 0.39518 0.78817 0.73181 0.0
H256 H 0.44236 0.77063 0.74179 0.0
H257 H 0.40621 0.70399 0.75268 0.0
H258 H 0.35869 0.72152 0.74277 0.0
H259 H 0.36078 0.70754 0.76663 0.0
H260 H 0.32308 0.83809 0.80493 0.0
H261 H 0.2677 0.86322 0.78454 0.0
H262 H 0.32191 0.79721 0.73913 0.0
C263 C 0.45253 0.75532 0.78118 0.0
C264 C 0.47183 0.76402 0.79807 0.0
C265 C 0.44954 0.78528 0.81174 0.0
C266 C 0.40895 0.79831 0.80841 0.0
C267 C 0.39122 0.78968 0.79139 0.0
C268 C 0.41262 0.7687 0.77803 0.0
C269 C 0.38926 0.76686 0.76019 0.0
C270 C 0.41351 0.78761 0.74463 0.0
C271 C 0.37807 0.72233 0.75529 0.0
C272 C 0.35166 0.79128 0.76528 0.0
C273 C 0.35262 0.80342 0.78343 0.0
C274 C 0.3219 0.82828 0.79079 0.0
C275 C 0.29041 0.84219 0.77915 0.0
C276 C 0.29051 0.83187 0.76031 0.0
C277 C 0.32089 0.80518 0.75352 0.0
H278 H 0.83514 0.53137 0.22612 0.0
H279 H 0.72598 0.5795 0.20032 0.0
H280 H 0.7444 0.64968 0.21065 0.0
H281 H 0.82269 0.58344 0.26506 0.0
H282 H 0.87604 0.59268 0.27002 0.0
H283 H 0.86153 0.54926 0.25632 0.0
H284 H 0.90861 0.5738 0.22995 0.0
H285 H 0.92427 0.61691 0.24377 0.0
H286 H 0.9034 0.62534 0.22123 0.0
H287 H 0.76988 0.71283 0.22808 0.0
H288 H 0.79889 0.76125 0.25102 0.0
H289 H 0.88684 0.66834 0.26735 0.0
C290 C 0.81662 0.55718 0.22171 0.0
C291 C 0.78028 0.55069 0.21174 0.0
C292 C 0.7549 0.58445 0.20728 0.0
C293 C 0.76501 0.62427 0.21323 0.0
C294 C 0.80025 0.62948 0.22385 0.0
C295 C 0.82579 0.59671 0.22794 0.0
C296 C 0.8578 0.60846 0.24197 0.0
C297 C 0.85426 0.58189 0.25936 0.0
C298 C 0.90109 0.60599 0.23373 0.0
C299 C 0.84552 0.65242 0.24565 0.0
C300 C 0.81296 0.66455 0.23482 0.0
C301 C 0.79566 0.70369 0.23648 0.0
C302 C 0.81212 0.73092 0.24956 0.0
C303 C 0.84466 0.71829 0.26108 0.0
C304 C 0.86159 0.6787 0.25889 0.0
H305 H 0.54717 0.27589 0.7736 0.0
H306 H 0.54581 0.21348 0.82609 0.0
H307 H 0.61774 0.19124 0.8209 0.0
H308 H 0.59506 0.19938 0.75019 0.0
H309 H 0.6235 0.23296 0.73524 0.0
H310 H 0.57583 0.24993 0.74488 0.0
H311 H 0.61227 0.31376 0.75857 0.0
H312 H 0.6603 0.29676 0.74901 0.0
H313 H 0.6563 0.3069 0.77319 0.0
H314 H 0.6877 0.16974 0.80789 0.0
H315 H 0.7436 0.14552 0.78759 0.0
H316 H 0.69511 0.21984 0.74346 0.0
C317 C 0.56202 0.25834 0.78431 0.0
C318 C 0.54078 0.24665 0.80034 0.0
C319 C 0.56152 0.22307 0.81376 0.0
C320 C 0.60242 0.2105 0.81094 0.0
C321 C 0.62204 0.22193 0.79469 0.0
C322 C 0.60221 0.24531 0.78162 0.0
C323 C 0.62723 0.24946 0.76433 0.0
C324 C 0.60403 0.23186 0.7477 0.0
C325 C 0.63977 0.29439 0.76109 0.0
C326 C 0.66382 0.22342 0.76932 0.0
C327 C 0.66107 0.20866 0.78705 0.0
C328 C 0.69036 0.18168 0.79412 0.0
C329 C 0.72217 0.1683 0.78255 0.0
C330 C 0.72369 0.18124 0.76406 0.0
C331 C 0.6949 0.21005 0.75763 0.0
H332 H 0.26666 0.03314 0.01819 0.0
H333 H 0.21094 0.0286 0.07209 0.0
H334 H 0.18492 0.09967 0.06755 0.0
H335 H 0.29398 0.1425 0.01769 0.0
H336 H 0.28119 0.14713 0.99377 0.0
H337 H 0.30018 0.09908 1.00264 0.0
H338 H 0.23583 0.06169 0.99004 0.0
H339 H 0.21679 0.10942 0.98112 0.0
H340 H 0.18561 0.07961 0.99655 0.0
H341 H 0.16038 0.16993 0.0554 0.0
H342 H 0.13491 0.22756 0.03629 0.0
H343 H 0.20503 0.18167 0.99031 0.0
C344 C 0.24967 0.04707 0.02931 0.0
C345 C 0.24106 0.02524 0.04558 0.0
C346 C 0.21815 0.04478 0.05955 0.0
C347 C 0.20342 0.08518 0.0571 0.0
C348 C 0.21202 0.10543 0.04065 0.0
C349 C 0.2346 0.08671 0.02702 0.0
C350 C 0.23637 0.11245 1.00984 0.0
C351 C 0.28056 0.1261 1.00575 0.0
C352 C 0.21751 0.08942 0.99344 0.0
C353 C 0.21016 0.14831 0.01561 0.0
C354 C 0.19709 0.14445 0.03355 0.0
C355 C 0.17085 0.17334 0.04143 0.0
C356 C 0.15673 0.20608 0.03053 0.0
C357 C 0.16822 0.20899 0.01188 0.0
C358 C 0.19603 0.18029 1.00456 0.0
H359 H 0.17586 0.80215 0.03251 0.0
H360 H 0.22733 0.86303 0.98505 0.0
H361 H 0.16953 0.83766 0.96612 0.0
H362 H 0.13422 0.71126 1.00747 0.0
H363 H 0.08996 0.70924 0.02219 0.0
H364 H 0.13822 0.72767 0.03096 0.0
H365 H 0.10287 0.79525 0.04115 0.0
H366 H 0.05474 0.77735 0.03223 0.0
H367 H 0.07556 0.82559 0.02447 0.0
H368 H 0.09933 0.81388 0.95375 0.0
H369 H 0.02812 0.78886 0.94886 0.0
H370 H 0.02674 0.74211 1.0045 0.0
C371 C 0.17559 0.80918 0.01802 0.0
C372 C 0.20601 0.83439 1.01022 0.0
C373 C 0.20451 0.84326 0.99124 0.0
C374 C 0.1717 0.82916 0.98041 0.0
C375 C 0.14123 0.80555 0.98872 0.0
C376 C 0.14357 0.79492 1.00704 0.0
C377 C 0.10623 0.77123 0.01311 0.0
C378 C 0.11786 0.72724 0.01876 0.0
C379 C 0.08353 0.79372 0.02865 0.0
C380 C 0.08167 0.77152 0.99559 0.0
C381 C 0.1021 0.79121 0.98157 0.0
C382 C 0.08345 0.79765 0.96456 0.0
C383 C 0.04298 0.78351 0.9619 0.0
C384 C 0.02181 0.76325 0.97621 0.0
C385 C 0.04195 0.75699 0.99312 0.0
H386 H 0.79894 0.8287 0.98709 0.0
H387 H 0.85841 0.77695 0.03488 0.0
H388 H 0.8335 0.83535 0.05357 0.0
H389 H 0.82339 0.92889 0.9949 0.0
H390 H 0.77561 0.95031 0.98697 0.0
H391 H 0.79293 0.90176 0.97822 0.0
H392 H 0.72491 0.86735 0.98834 0.0
H393 H 0.70704 0.91605 0.99692 0.0
H394 H 0.70831 0.87187 0.01178 0.0
H395 H 0.81082 0.90617 0.06562 0.0
H396 H 0.78676 0.9779 0.07024 0.0
H397 H 0.74046 0.97916 0.01453 0.0
C398 C 0.80571 0.82904 1.0016 0.0
C399 C 0.83042 0.79837 1.00957 0.0
C400 C 0.839 0.79996 0.02857 0.0
C401 C 0.82517 0.83311 0.03927 0.0
C402 C 0.8021 0.86382 0.03079 0.0
C403 C 0.79168 0.86139 0.01245 0.0
C404 C 0.7686 0.89904 1.00621 0.0
C405 C 0.79152 0.92129 0.99067 0.0
C406 C 0.7246 0.8879 1.00048 0.0
C407 C 0.76901 0.92385 0.02366 0.0
C408 C 0.78826 0.9033 0.03778 0.0
C409 C 0.79488 0.92213 0.05474 0.0
C410 C 0.78132 0.9629 0.05724 0.0
C411 C 0.76139 0.98415 0.04284 0.0
C412 C 0.75499 0.96384 0.02598 0.0
H413 H 0.82042 0.21161 0.02849 0.0
H414 H 0.77497 0.14077 0.9826 0.0
H415 H 0.83317 0.1652 0.96367 0.0
H416 H 0.86184 0.29975 1.00073 0.0
H417 H 0.90457 0.30557 0.01617 0.0
H418 H 0.85586 0.28771 0.02466 0.0
H419 H 0.89157 0.22322 0.03808 0.0
H420 H 0.94013 0.24045 0.02944 0.0
H421 H 0.92102 0.19045 0.02316 0.0
H422 H 0.90401 0.188 0.95189 0.0
H423 H 0.97569 0.21222 0.94775 0.0
H424 H 0.97049 0.27003 1.00123 0.0
C425 C 0.82196 0.2024 0.01426 0.0
C426 C 0.79326 0.17459 1.00693 0.0
C427 C 0.79641 0.16266 0.98835 0.0
C428 C 0.82947 0.1762 0.97754 0.0
C429 C 0.8584 0.20237 0.98546 0.0
C430 C 0.8542 0.21612 1.00329 0.0
C431 C 0.89043 0.24174 1.00917 0.0
C432 C 0.87739 0.28634 0.01289 0.0
C433 C 0.91204 0.2228 0.02594 0.0
C434 C 0.91667 0.23875 0.99222 0.0
C435 C 0.89792 0.21621 0.97857 0.0
C436 C 0.91853 0.20655 0.96234 0.0
C437 C 0.95926 0.22026 0.96012 0.0
C438 C 0.97878 0.24328 0.97408 0.0
C439 C 0.9566 0.25297 0.99012 0.0
H440 H 0.68843 0.84276 0.79008 0.0
H441 H 0.64482 0.78023 0.74143 0.0
H442 H 0.67121 0.83714 0.72224 0.0
H443 H 0.66197 0.94138 0.77722 0.0
H444 H 0.70654 0.96586 0.78691 0.0
H445 H 0.68804 0.91842 0.79644 0.0
H446 H 0.75928 0.88478 0.79158 0.0
H447 H 0.77824 0.93236 0.78226 0.0
H448 H 0.78235 0.88563 0.76917 0.0
H449 H 0.69516 0.90631 0.70892 0.0
H450 H 0.72105 0.9768 0.70273 0.0
H451 H 0.75057 0.99032 0.76034 0.0
C452 C 0.6852 0.84058 0.77536 0.0
C453 C 0.66465 0.80714 0.76723 0.0
C454 C 0.66088 0.80545 0.74792 0.0
C455 C 0.67556 0.83773 0.73692 0.0
C456 C 0.69454 0.87101 0.74546 0.0
C457 C 0.7001 0.87209 0.76424 0.0
C458 C 0.72029 0.91155 0.77027 0.0
C459 C 0.69254 0.93571 0.78348 0.0
C460 C 0.76255 0.90306 0.77882 0.0
C461 C 0.72423 0.93311 0.75205 0.0
C462 C 0.70925 0.90955 0.73783 0.0
C463 C 0.70765 0.9247 0.71993 0.0
C464 C 0.72217 0.96477 0.71654 0.0
C465 C 0.73825 0.98889 0.73099 0.0
C466 C 0.73916 0.97252 0.74889 0.0
H467 H 0.98083 0.26584 0.26669 0.0
H468 H 0.97221 0.31147 0.32236 0.0
H469 H 0.90435 0.3422 0.31492 0.0
H470 H 0.94121 0.35373 0.24566 0.0
H471 H 0.91553 0.32564 0.22775 0.0
H472 H 0.96075 0.30466 0.23829 0.0
H473 H 0.9206 0.23836 0.24645 0.0
H474 H 0.87511 0.25928 0.23602 0.0
H475 H 0.87381 0.24209 0.25947 0.0
H476 H 0.83767 0.37022 0.30017 0.0
H477 H 0.78361 0.39715 0.27949 0.0
H478 H 0.83998 0.33333 0.2339 0.0
C479 C 0.96462 0.28169 0.27752 0.0
C480 C 0.98169 0.28583 0.2952 0.0
C481 C 0.95961 0.30772 0.30874 0.0
C482 C 0.92103 0.32509 0.30464 0.0
C483 C 0.90526 0.32036 0.28695 0.0
C484 C 0.92676 0.29934 0.27364 0.0
C485 C 0.90545 0.30084 0.25531 0.0
C486 C 0.93232 0.32252 0.24091 0.0
C487 C 0.893 0.25756 0.24895 0.0
C488 C 0.86845 0.3263 0.2602 0.0
C489 C 0.86833 0.33699 0.27853 0.0
C490 C 0.83748 0.36176 0.28585 0.0
C491 C 0.80678 0.37673 0.27403 0.0
C492 C 0.80759 0.36729 0.25509 0.0
C493 C 0.83841 0.34103 0.2483 0.0
H494 H 0.25706 0.02541 0.75644 0.0
H495 H 0.29632 0.03426 0.69984 0.0
H496 H 0.32406 0.10402 0.70614 0.0
H497 H 0.22862 0.13197 0.76315 0.0
H498 H 0.2479 0.13255 0.78628 0.0
H499 H 0.22825 0.08558 0.77663 0.0
H500 H 0.29692 0.04883 0.78395 0.0
H501 H 0.31663 0.09551 0.79371 0.0
H502 H 0.34424 0.07031 0.77554 0.0
H503 H 0.34949 0.17284 0.7197 0.0
H504 H 0.37588 0.22906 0.73938 0.0
H505 H 0.32113 0.17093 0.78681 0.0
C506 C 0.27092 0.04203 0.74519 0.0
C507 C 0.27414 0.02448 0.72756 0.0
C508 C 0.29336 0.04717 0.71343 0.0
C509 C 0.30897 0.08685 0.71688 0.0
C510 C 0.30518 0.10308 0.73452 0.0
C511 C 0.28682 0.081 0.74842 0.0
C512 C 0.289 0.1032 0.76654 0.0
C513 C 0.24587 0.11397 0.77356 0.0
C514 C 0.31315 0.07797 0.78076 0.0
C515 C 0.31214 0.14121 0.76086 0.0
C516 C 0.32065 0.14121 0.74231 0.0
C517 C 0.34276 0.17309 0.7342 0.0
C518 C 0.35741 0.20501 0.74545 0.0
C519 C 0.35046 0.20426 0.76459 0.0
C520 C 0.32683 0.17234 0.77222 0.0
H521 H 0.02074 0.75564 0.26305 0.0
H522 H 0.04697 0.73881 0.32079 0.0
H523 H 0.11649 0.71327 0.31282 0.0
H524 H 0.06722 0.66453 0.24848 0.0
H525 H 0.08551 0.68572 0.22721 0.0
H526 H 0.04027 0.70651 0.23778 0.0
H527 H 0.07317 0.77903 0.23763 0.0
H528 H 0.11867 0.7584 0.22711 0.0
H529 H 0.1225 0.78665 0.24826 0.0
H530 H 0.18264 0.68722 0.29789 0.0
H531 H 0.23572 0.65707 0.27776 0.0
H532 H 0.16273 0.6888 0.23015 0.0
C533 C 0.04124 0.74732 0.27412 0.0
C534 C 0.02867 0.74972 0.29258 0.0
C535 C 0.05612 0.73744 0.30656 0.0
C536 C 0.09566 0.72311 0.30215 0.0
C537 C 0.10691 0.72103 0.28372 0.0
C538 C 0.0802 0.73252 0.26997 0.0
C539 C 0.09781 0.7243 0.2512 0.0
C540 C 0.07113 0.69343 0.24055 0.0
C541 C 0.10337 0.7645 0.24042 0.0
C542 C 0.13863 0.70588 0.25644 0.0
C543 C 0.14378 0.70481 0.27523 0.0
C544 C 0.17892 0.68811 0.28317 0.0
C545 C 0.20898 0.67123 0.27163 0.0
C546 C 0.20332 0.67062 0.25239 0.0
C547 C 0.16798 0.68887 0.24479 0.0
H548 H 0.77476 0.54851 0.5233 0.0
H549 H 0.71369 0.54836 0.57605 0.0
H550 H 0.69106 0.62019 0.57051 0.0
H551 H 0.80547 0.65768 0.52214 0.0
H552 H 0.79479 0.66112 0.49798 0.0
H553 H 0.81197 0.61323 0.50772 0.0
H554 H 0.74793 0.57642 0.49449 0.0
H555 H 0.73078 0.62395 0.48467 0.0
H556 H 0.6976 0.59583 0.4999 0.0
H557 H 0.66938 0.69008 0.55723 0.0
H558 H 0.64512 0.74585 0.53678 0.0
H559 H 0.71818 0.69608 0.49259 0.0
C560 C 0.75741 0.56361 0.53398 0.0
C561 C 0.74624 0.54274 0.5502 0.0
C562 C 0.72289 0.56377 0.56358 0.0
C563 C 0.71009 0.60463 0.56056 0.0
C564 C 0.72106 0.62387 0.54415 0.0
C565 C 0.74416 0.60373 0.53111 0.0
C566 C 0.74792 0.62838 0.51367 0.0
C567 C 0.7927 0.64085 0.51018 0.0
C568 C 0.72997 0.60475 0.49723 0.0
C569 C 0.72205 0.66516 0.51856 0.0
C570 C 0.70766 0.6628 0.53636 0.0
C571 C 0.681 0.69241 0.5434 0.0
C572 C 0.6676 0.72414 0.53174 0.0
C573 C 0.68018 0.72529 0.5132 0.0
C574 C 0.70863 0.69615 0.50679 0.0
H575 H 0.67244 0.32213 0.53698 0.0
H576 H 0.73018 0.37808 0.48974 0.0
H577 H 0.67398 0.35208 0.46999 0.0
H578 H 0.63318 0.22995 0.51287 0.0
H579 H 0.58716 0.2294 0.52651 0.0
H580 H 0.63429 0.24873 0.53608 0.0
H581 H 0.59787 0.31727 0.54399 0.0
H582 H 0.55087 0.29845 0.53425 0.0
H583 H 0.57273 0.34587 0.52607 0.0
H584 H 0.60515 0.32719 0.45638 0.0
H585 H 0.53525 0.30006 0.45005 0.0
H586 H 0.52675 0.25922 0.50647 0.0
C587 C 0.67379 0.3281 0.5224 0.0
C588 C 0.70557 0.352 0.51486 0.0
C589 C 0.70625 0.35937 0.49575 0.0
C590 C 0.67436 0.34492 0.48446 0.0
C591 C 0.64259 0.32255 0.49248 0.0
C592 C 0.64273 0.3135 0.51099 0.0
C593 C 0.60465 0.29042 0.5166 0.0
C594 C 0.61548 0.24705 0.52341 0.0
C595 C 0.5801 0.31445 0.53107 0.0
C596 C 0.58231 0.28895 0.49852 0.0
C597 C 0.60436 0.30751 0.48467 0.0
C598 C 0.58801 0.3119 0.46708 0.0
C599 C 0.54826 0.29662 0.46361 0.0
C600 C 0.52562 0.27714 0.47768 0.0
C601 C 0.5433 0.27331 0.49526 0.0
H602 H 0.23898 0.47107 0.52062 0.0
H603 H 0.29351 0.46729 0.5748 0.0
H604 H 0.31695 0.39591 0.56879 0.0
H605 H 0.20809 0.36252 0.51733 0.0
H606 H 0.22147 0.36049 0.49341 0.0
H607 H 0.20359 0.40791 0.50333 0.0
H608 H 0.26934 0.44493 0.49207 0.0
H609 H 0.28724 0.39786 0.48209 0.0
H610 H 0.31883 0.42474 0.49842 0.0
H611 H 0.33981 0.32671 0.55511 0.0
H612 H 0.36528 0.27156 0.53466 0.0
H613 H 0.29761 0.32475 0.48947 0.0
C614 C 0.2551 0.45521 0.53149 0.0
C615 C 0.26418 0.47483 0.54827 0.0
C616 C 0.28595 0.45284 0.56189 0.0
C617 C 0.29919 0.41224 0.5586 0.0
C618 C 0.29024 0.39423 0.54167 0.0
C619 C 0.26872 0.41532 0.52837 0.0
C620 C 0.26675 0.39181 0.51058 0.0
C621 C 0.22233 0.37998 0.5059 0.0
C622 C 0.28675 0.41628 0.49488 0.0
C623 C 0.29175 0.35451 0.51561 0.0
C624 C 0.30425 0.3557 0.53372 0.0
C625 C 0.3297 0.32533 0.54101 0.0
C626 C 0.34381 0.29397 0.52934 0.0
C627 C 0.3331 0.2939 0.51055 0.0
C628 C 0.30586 0.32389 0.50383 0.0
H629 H 0.48907 0.75451 0.50942 0.0
H630 H 0.47628 0.72272 0.45203 0.0
H631 H 0.40594 0.6968 0.45825 0.0
H632 H 0.44118 0.66643 0.52671 0.0
H633 H 0.41789 0.69275 0.54575 0.0
H634 H 0.46495 0.71173 0.53614 0.0
H635 H 0.43099 0.78283 0.5309 0.0
H636 H 0.38364 0.76393 0.54039 0.0
H637 H 0.38426 0.78616 0.51779 0.0
H638 H 0.33691 0.67285 0.47159 0.0
H639 H 0.28023 0.6465 0.49088 0.0
H640 H 0.342 0.69237 0.53931 0.0
C641 C 0.47144 0.74264 0.49802 0.0
C642 C 0.488 0.74105 0.48018 0.0
C643 C 0.4641 0.72437 0.4658 0.0
C644 C 0.4241 0.70984 0.4692 0.0
C645 C 0.40879 0.71206 0.48704 0.0
C646 C 0.43208 0.72776 0.5012 0.0
C647 C 0.41046 0.72417 0.5194 0.0
C648 C 0.43508 0.69715 0.53278 0.0
C649 C 0.40182 0.76681 0.5276 0.0
C650 C 0.37134 0.70338 0.51344 0.0
C651 C 0.3704 0.69725 0.4947 0.0
C652 C 0.33738 0.67767 0.48624 0.0
C653 C 0.30523 0.66304 0.49729 0.0
C654 C 0.3068 0.66746 0.51657 0.0
C655 C 0.33993 0.68862 0.5246 0.0
H656 H 0.31757 0.29992 0.41368 0.0
H657 H 0.33246 0.16886 0.4223 0.0
H658 H 0.27866 0.15528 0.3992 0.0
H659 H 0.20878 0.29846 0.40894 0.0
H660 H 0.20735 0.33773 0.39155 0.0
H661 H 0.2483 0.33714 0.4081 0.0
H662 H 0.30196 0.33526 0.38198 0.0
H663 H 0.26119 0.3363 0.36535 0.0
H664 H 0.29874 0.29569 0.36479 0.0
H665 H 0.22223 0.15623 0.37522 0.0
H666 H 0.16912 0.1716 0.35202 0.0
H667 H 0.18985 0.30208 0.35993 0.0
C668 C 0.30994 0.26831 0.41056 0.0
C669 C 0.32952 0.23543 0.41974 0.0
C670 C 0.31809 0.19457 0.41541 0.0
C671 C 0.28747 0.18655 0.40233 0.0
C672 C 0.26834 0.21971 0.39375 0.0
C673 C 0.27923 0.25979 0.39767 0.0
C674 C 0.25345 0.28998 0.38682 0.0
C675 C 0.22796 0.31744 0.39962 0.0
C676 C 0.28045 0.31582 0.37397 0.0
C677 C 0.22634 0.26068 0.37616 0.0
C678 C 0.23543 0.22027 0.38031 0.0
C679 C 0.21483 0.18778 0.37191 0.0
C680 C 0.18461 0.19681 0.35878 0.0
C681 C 0.17502 0.23803 0.35421 0.0
C682 C 0.19604 0.27024 0.36322 0.0
H683 H 0.29271 0.68469 0.61135 0.0
H684 H 0.16262 0.67403 0.59981 0.0
H685 H 0.14827 0.7284 0.62262 0.0
H686 H 0.28436 0.70401 0.65995 0.0
H687 H 0.32598 0.74044 0.66014 0.0
H688 H 0.32536 0.69958 0.64353 0.0
H689 H 0.33124 0.75313 0.61742 0.0
H690 H 0.33147 0.79418 0.63394 0.0
H691 H 0.29391 0.79383 0.61582 0.0
H692 H 0.14852 0.78442 0.64698 0.0
H693 H 0.16333 0.83711 0.6705 0.0
H694 H 0.29352 0.81291 0.66477 0.0
C695 C 0.26112 0.69337 0.61376 0.0
C696 C 0.22872 0.67476 0.60389 0.0
C697 C 0.18791 0.68764 0.60726 0.0
C698 C 0.17949 0.71856 0.62017 0.0
C699 C 0.21223 0.73662 0.62949 0.0
C700 C 0.25224 0.72448 0.6264 0.0
C701 C 0.28206 0.74944 0.63779 0.0
C702 C 0.30583 0.72171 0.65115 0.0
C703 C 0.31139 0.7741 0.6255 0.0
C704 C 0.25264 0.77748 0.64785 0.0
C705 C 0.21247 0.76954 0.64295 0.0
C706 C 0.17989 0.79098 0.65083 0.0
C707 C 0.1886 0.82091 0.66416 0.0
C708 C 0.22958 0.82947 0.66938 0.0
C709 C 0.26189 0.80757 0.66093 0.0
H710 H 0.69418 0.80787 0.41417 0.0
H711 H 0.67887 0.67635 0.4216 0.0
H712 H 0.7319 0.66346 0.39846 0.0
H713 H 0.71046 0.80286 0.36451 0.0
H714 H 0.74797 0.84353 0.3644 0.0
H715 H 0.70816 0.84297 0.38149 0.0
H716 H 0.76327 0.84575 0.40698 0.0
H717 H 0.80326 0.84587 0.38998 0.0
H718 H 0.80291 0.80716 0.40763 0.0
H719 H 0.7889 0.66386 0.37619 0.0
H720 H 0.84192 0.67734 0.35308 0.0
H721 H 0.8198 0.80847 0.35803 0.0
C722 C 0.70171 0.7764 0.41077 0.0
C723 C 0.68222 0.74314 0.41979 0.0
C724 C 0.69309 0.70241 0.41492 0.0
C725 C 0.7234 0.69469 0.40182 0.0
C726 C 0.74248 0.72797 0.39345 0.0
C727 C 0.73177 0.76803 0.39745 0.0
C728 C 0.757 0.79793 0.38607 0.0
C729 C 0.72924 0.82332 0.37336 0.0
C730 C 0.78316 0.82582 0.39841 0.0
C731 C 0.78369 0.7683 0.37524 0.0
C732 C 0.7749 0.72815 0.37993 0.0
C733 C 0.79586 0.69515 0.37227 0.0
C734 C 0.82615 0.70321 0.35919 0.0
C735 C 0.83513 0.74396 0.35366 0.0
C736 C 0.81366 0.77698 0.36193 0.0
H737 H 0.8046 0.19744 0.66545 0.0
H738 H 0.6735 0.18076 0.67295 0.0
H739 H 0.65999 0.23516 0.65046 0.0
H740 H 0.80317 0.30662 0.66015 0.0
H741 H 0.84152 0.30833 0.64241 0.0
H742 H 0.84192 0.26721 0.65892 0.0
H743 H 0.83903 0.2136 0.63278 0.0
H744 H 0.8391 0.25455 0.61618 0.0
H745 H 0.79871 0.21675 0.61594 0.0
H746 H 0.65971 0.29367 0.62894 0.0
H747 H 0.67242 0.34818 0.60641 0.0
H748 H 0.80355 0.32661 0.61071 0.0
C749 C 0.77309 0.20495 0.66218 0.0
C750 C 0.74013 0.18468 0.67106 0.0
C751 C 0.69934 0.19556 0.66639 0.0
C752 C 0.69127 0.22665 0.65365 0.0
C753 C 0.72424 0.24651 0.64545 0.0
C754 C 0.76435 0.23578 0.64922 0.0
C755 C 0.79387 0.26196 0.63807 0.0
C756 C 0.82177 0.28754 0.65064 0.0
C757 C 0.81917 0.23511 0.62496 0.0
C758 C 0.76397 0.2892 0.62765 0.0
C759 C 0.72403 0.27984 0.63233 0.0
C760 C 0.69083 0.30109 0.62502 0.0
C761 C 0.69846 0.33225 0.61227 0.0
C762 C 0.73899 0.34182 0.6067 0.0
C763 C 0.77222 0.32007 0.61465 0.0
H764 H 0.19428 0.30345 0.91437 0.0
H765 H 0.17775 0.17202 0.92161 0.0
H766 H 0.23301 0.1588 0.89959 0.0
H767 H 0.21491 0.29786 0.86511 0.0
H768 H 0.2525 0.33844 0.86553 0.0
H769 H 0.21131 0.33817 0.88195 0.0
H770 H 0.2643 0.34111 0.90833 0.0
H771 H 0.30566 0.34094 0.89199 0.0
H772 H 0.30376 0.30244 0.90971 0.0
H773 H 0.29196 0.15881 0.87844 0.0
H774 H 0.34654 0.17178 0.85604 0.0
H775 H 0.32443 0.30306 0.86024 0.0
C776 C 0.20209 0.27193 0.91118 0.0
C777 C 0.18154 0.23878 0.91981 0.0
C778 C 0.19274 0.19799 0.91521 0.0
C779 C 0.22433 0.19008 0.90275 0.0
C780 C 0.24436 0.22324 0.89474 0.0
C781 C 0.23339 0.26337 0.89846 0.0
C782 C 0.25963 0.29307 0.88744 0.0
C783 C 0.233 0.31838 0.87422 0.0
C784 C 0.28483 0.32104 0.90013 0.0
C785 C 0.28713 0.26325 0.87712 0.0
C786 C 0.27789 0.22319 0.88179 0.0
C787 C 0.2993 0.19003 0.87454 0.0
C788 C 0.33049 0.1978 0.86186 0.0
C789 C 0.33991 0.23844 0.8563 0.0
C790 C 0.31801 0.27165 0.86419 0.0
H791 H 0.21554 0.68221 0.15806 0.0
H792 H 0.34563 0.66701 0.16848 0.0
H793 H 0.36093 0.72007 0.14515 0.0
H794 H 0.22214 0.70032 0.10921 0.0
H795 H 0.18193 0.7383 0.10934 0.0
H796 H 0.18186 0.69763 0.12605 0.0
H797 H 0.17936 0.75164 0.15208 0.0
H798 H 0.17979 0.79248 0.13546 0.0
H799 H 0.21825 0.79092 0.15318 0.0
H800 H 0.36153 0.77555 0.1204 0.0
H801 H 0.3473 0.82896 0.09707 0.0
H802 H 0.21671 0.80983 0.10445 0.0
C803 C 0.24731 0.68956 0.15527 0.0
C804 C 0.27944 0.67008 0.16497 0.0
C805 C 0.32053 0.6813 0.16115 0.0
C806 C 0.32949 0.71145 0.14793 0.0
C807 C 0.29701 0.73044 0.13879 0.0
C808 C 0.25674 0.71993 0.14235 0.0
C809 C 0.22729 0.74587 0.13122 0.0
C810 C 0.20181 0.71892 0.11818 0.0
C811 C 0.19955 0.77176 0.14373 0.0
C812 C 0.2572 0.77264 0.12078 0.0
C813 C 0.29731 0.76316 0.12521 0.0
C814 C 0.33021 0.78331 0.11692 0.0
C815 C 0.32185 0.81365 0.1037 0.0
C816 C 0.28093 0.82392 0.09904 0.0
C817 C 0.24835 0.80318 0.10786 0.0
H818 H 0.80938 0.78806 0.91532 0.0
H819 H 0.82756 0.6571 0.92273 0.0
H820 H 0.77468 0.64327 0.89915 0.0
H821 H 0.70058 0.78343 0.91028 0.0
H822 H 0.69831 0.82391 0.89348 0.0
H823 H 0.73891 0.82333 0.91019 0.0
H824 H 0.79308 0.82508 0.88428 0.0
H825 H 0.75265 0.82601 0.86748 0.0
H826 H 0.79148 0.78668 0.86652 0.0
H827 H 0.71956 0.64427 0.87425 0.0
H828 H 0.66652 0.65997 0.85098 0.0
H829 H 0.68237 0.79016 0.86146 0.0
C830 C 0.80265 0.75643 0.91185 0.0
C831 C 0.82297 0.72363 0.92075 0.0
C832 C 0.81259 0.68272 0.91602 0.0
C833 C 0.78256 0.67459 0.90266 0.0
C834 C 0.76281 0.70769 0.89429 0.0
C835 C 0.77241 0.7478 0.89877 0.0
C836 C 0.74594 0.77795 0.88826 0.0
C837 C 0.71936 0.80366 0.90134 0.0
C838 C 0.77237 0.80555 0.8759 0.0
C839 C 0.71999 0.74863 0.87708 0.0
C840 C 0.73028 0.70822 0.88063 0.0
C841 C 0.71113 0.67582 0.87148 0.0
C842 C 0.681 0.68501 0.85829 0.0
C843 C 0.66992 0.72624 0.85452 0.0
C844 C 0.68961 0.75828 0.8642 0.0
H845 H 0.70377 0.20162 0.10373 0.0
H846 H 0.8338 0.17476 0.09879 0.0
H847 H 0.84934 0.22876 0.12118 0.0
H848 H 0.71308 0.3105 0.1083 0.0
H849 H 0.67339 0.31591 0.12529 0.0
H850 H 0.67134 0.27424 0.10909 0.0
H851 H 0.66769 0.22171 0.13565 0.0
H852 H 0.66929 0.26325 0.15193 0.0
H853 H 0.70657 0.22247 0.15321 0.0
H854 H 0.85216 0.28779 0.14228 0.0
H855 H 0.84172 0.34433 0.16401 0.0
H856 H 0.7098 0.33289 0.15741 0.0
C857 C 0.73543 0.20681 0.10754 0.0
C858 C 0.76754 0.18379 0.09941 0.0
C859 C 0.80858 0.19171 0.10477 0.0
C860 C 0.81783 0.22252 0.11746 0.0
C861 C 0.78573 0.24511 0.12493 0.0
C862 C 0.7453 0.23737 0.12047 0.0
C863 C 0.71689 0.26622 0.13086 0.0
C864 C 0.69222 0.29332 0.11759 0.0
C865 C 0.68843 0.24196 0.14367 0.0
C866 C 0.74783 0.29151 0.14164 0.0
C867 C 0.78732 0.27884 0.1378 0.0
C868 C 0.82138 0.29779 0.14555 0.0
C869 C 0.81506 0.33012 0.15784 0.0
C870 C 0.77494 0.34317 0.16251 0.0
C871 C 0.74084 0.32363 0.15417 0.0
H872 H 0.94693 0.93958 0.26794 0.0
H873 H 0.93812 0.91548 0.32623 0.0
H874 H 0.9784 0.97827 0.33251 0.0
H875 H 0.04875 0.97408 0.26785 0.0
H876 H 0.04105 0.01351 0.25087 0.0
H877 H 0.0089 0.96856 0.25091 0.0
H878 H 0.94388 0.01411 0.25303 0.0
H879 H 0.97578 0.05925 0.25255 0.0
H880 H 0.93994 0.05178 0.27103 0.0
H881 H 0.02445 0.04117 0.33217 0.0
H882 H 0.06477 0.10369 0.32544 0.0
H883 H 0.04282 0.086 0.26737 0.0
C884 C 0.95267 0.9479 0.28206 0.0
C885 C 0.93921 0.92263 0.2966 0.0
C886 C 0.94776 0.93452 0.31487 0.0
C887 C 0.97092 0.96997 0.31856 0.0
C888 C 0.98504 0.9933 0.30385 0.0
C889 C 0.9756 0.98312 0.28598 0.0
C890 C 0.99482 0.01293 0.27259 0.0
C891 C 0.02518 0.99094 0.25981 0.0
C892 C 0.96162 0.03588 0.26166 0.0
C893 C 0.01689 0.04133 0.2857 0.0
C894 C 0.01114 0.02942 0.30366 0.0
C895 C 0.02892 0.0509 0.31815 0.0
C896 C 0.05208 0.08619 0.31418 0.0
C897 C 0.05707 0.09974 0.29588 0.0
C898 C 0.03977 0.07643 0.2815 0.0
H899 H 0.93499 0.0576 0.75817 0.0
H900 H 0.91167 0.07138 0.7 0.0
H901 H 0.97307 0.02944 0.69324 0.0
H902 H 0.04685 0.06173 0.7553 0.0
H903 H 0.05329 0.02442 0.77331 0.0
H904 H 0.00903 0.05749 0.77319 0.0
H905 H 0.962 0.99335 0.77439 0.0
H906 H 0.00609 0.96006 0.77406 0.0
H907 H 0.96666 0.95448 0.75694 0.0
H908 H 0.03457 0.9816 0.69305 0.0
H909 H 0.09641 0.93993 0.69931 0.0
H910 H 0.07883 0.95828 0.75762 0.0
C911 C 0.94317 0.05251 0.74398 0.0
C912 C 0.91856 0.06788 0.7296 0.0
C913 C 0.93025 0.06025 0.71124 0.0
C914 C 0.96487 0.03616 0.70727 0.0
C915 C 0.98756 0.02019 0.72182 0.0
C916 C 0.97758 0.02872 0.7398 0.0
C917 C 0.00676 0.00785 0.75296 0.0
C918 C 0.03039 0.03978 0.76436 0.0
C919 C 0.984 0.97711 0.76531 0.0
C920 C 0.03462 0.98597 0.7396 0.0
C921 C 0.02292 0.99315 0.7217 0.0
C922 C 0.04411 0.97597 0.70701 0.0
C923 C 0.079 0.95203 0.71072 0.0
C924 C 0.09244 0.94574 0.72896 0.0
C925 C 0.06931 0.96232 0.74353 0.0
H926 H 0.05075 0.43105 0.97246 0.0
H927 H 0.06065 0.40882 0.03086 0.0
H928 H 0.01942 0.47084 0.03695 0.0
H929 H 0.05411 0.54399 0.97475 0.0
H930 H 0.01717 0.54997 0.95657 0.0
H931 H 0.05037 0.50575 0.95698 0.0
H932 H 0.98659 0.45839 0.95568 0.0
H933 H 0.95316 0.50244 0.95573 0.0
H934 H 0.94743 0.46322 0.97296 0.0
H935 H 0.97477 0.53288 0.03679 0.0
H936 H 0.93415 0.59522 0.03048 0.0
H937 H 0.9506 0.57638 0.97214 0.0
C938 C 0.04519 0.43993 0.98653 0.0
C939 C 0.05925 0.4154 1.00122 0.0
C940 C 0.05042 0.42736 0.01943 0.0
C941 C 0.02684 0.46239 0.02301 0.0
C942 C 0.0121 0.48501 1.00824 0.0
C943 C 0.02125 0.47465 0.99036 0.0
C944 C 1.00046 0.50366 0.97701 0.0
C945 C 0.03243 0.52725 0.96566 0.0
C946 C 0.97011 0.48053 0.96462 0.0
C947 C 0.97818 0.53183 0.9902 0.0
C948 C 0.98534 0.52042 1.00814 0.0
C949 C 0.96891 0.54215 0.02281 0.0
C950 C 0.94569 0.57736 0.01908 0.0
C951 C 0.93887 0.59036 1.00084 0.0
C952 C 0.95459 0.56671 0.98621 0.0
H953 H 0.42846 0.9539 0.04766 0.0
H954 H 0.40711 0.94004 0.98935 0.0
H955 H 0.4691 0.98092 0.98289 0.0
H956 H 0.4605 0.05729 0.04584 0.0
H957 H 0.49943 0.05276 0.06325 0.0
H958 H 0.45551 0.01923 0.06363 0.0
H959 H 0.50291 0.95536 0.06336 0.0
H960 H 0.54699 0.9887 0.06343 0.0
H961 H 0.54132 0.95049 0.04576 0.0
H962 H 0.53087 0.02578 0.98261 0.0
H963 H 0.59281 0.06718 0.98852 0.0
H964 H 0.57341 0.05452 0.04702 0.0
C965 C 0.43753 0.95851 0.03355 0.0
C966 C 0.41325 0.94345 0.01899 0.0
C967 C 0.42545 0.95106 1.0007 0.0
C968 C 0.46048 0.97442 0.9969 0.0
C969 C 0.48285 0.99018 0.01153 0.0
C970 C 0.47226 0.98222 0.0295 0.0
C971 C 0.50101 1.00398 0.04264 0.0
C972 C 0.47771 0.03516 0.05454 0.0
C973 C 0.52446 0.97277 0.05449 0.0
C974 C 0.52929 0.02546 0.02923 0.0
C975 C 0.51815 0.01704 0.01137 0.0
C976 C 0.53994 0.03261 0.99653 0.0
C977 C 0.57493 0.05628 1.00003 0.0
C978 C 0.58766 0.0644 0.01821 0.0
C979 C 0.56396 0.0495 0.03298 0.0
H980 H 0.45907 0.43092 0.80364 0.0
H981 H 0.45012 0.40861 0.74521 0.0
H982 H 0.48873 0.4723 0.73919 0.0
H983 H 0.45075 0.54364 0.80135 0.0
H984 H 0.48728 0.55119 0.81957 0.0
H985 H 0.45605 0.50557 0.81912 0.0
H986 H 0.52184 0.46105 0.82049 0.0
H987 H 0.55331 0.50651 0.82048 0.0
H988 H 0.56083 0.4676 0.80326 0.0
H989 H 0.53101 0.53591 0.73939 0.0
H990 H 0.56888 0.59991 0.74573 0.0
H991 H 0.55264 0.58057 0.80406 0.0
C992 C 0.46426 0.44007 0.78958 0.0
C993 C 0.45129 0.41504 0.77487 0.0
C994 C 0.45957 0.42748 0.75667 0.0
C995 C 0.48167 0.46347 0.75311 0.0
C996 C 0.49544 0.48661 0.76791 0.0
C997 C 0.48668 0.47581 0.78578 0.0
C998 C 0.50611 0.50569 0.79915 0.0
C999 C 0.47308 0.52784 0.81046 0.0
C1000 C 0.53738 0.48389 0.81158 0.0
C1001 C 0.52721 0.53483 0.78598 0.0
C1002 C 0.52068 0.52311 0.76804 0.0
C1003 C 0.53632 0.54546 0.75338 0.0
C1004 C 0.558 0.58163 0.75712 0.0
C1005 C 0.56402 0.595 0.77537 0.0
C1006 C 0.5492 0.57071 0.78999 0.0
H1007 H 0.58255 0.47409 0.21435 0.0
H1008 H 0.61152 0.47834 0.27231 0.0
H1009 H 0.54614 0.51392 0.27831 0.0
H1010 H 0.53873 0.57354 0.21183 0.0
H1011 H 0.4989 0.55992 0.19582 0.0
H1012 H 0.54651 0.53187 0.19596 0.0
H1013 H 0.50728 0.46347 0.20067 0.0
H1014 H 0.4595 0.49121 0.20015 0.0
H1015 H 0.47168 0.45884 0.21942 0.0
H1016 H 0.47942 0.55082 0.27804 0.0
H1017 H 0.41224 0.58272 0.27179 0.0
H1018 H 0.42707 0.55734 0.21386 0.0
C1019 C 0.57462 0.48165 0.22834 0.0
C1020 C 0.60188 0.47317 0.2429 0.0
C1021 C 0.59095 0.48439 0.26098 0.0
C1022 C 0.55399 0.50476 0.26451 0.0
C1023 C 0.52843 0.51393 0.2498 0.0
C1024 C 0.53796 0.50247 0.2321 0.0
C1025 C 0.50543 0.5171 0.21876 0.0
C1026 C 0.52349 0.54741 0.20477 0.0
C1027 C 0.48474 0.48047 0.20919 0.0
C1028 C 0.47622 0.53854 0.23176 0.0
C1029 C 0.49018 0.53631 0.24959 0.0
C1030 C 0.46815 0.55285 0.26414 0.0
C1031 C 0.43015 0.57107 0.26044 0.0
C1032 C 0.4147 0.57286 0.24234 0.0
C1033 C 0.4385 0.55714 0.22778 0.0
H1034 H 0.45851 0.08168 0.50729 0.0
H1035 H 0.44044 0.10019 0.44901 0.0
H1036 H 0.48183 0.03818 0.44264 0.0
H1037 H 0.56134 0.04964 0.5051 0.0
H1038 H 0.55697 0.01155 0.5229 0.0
H1039 H 0.52384 0.0558 0.52301 0.0
H1040 H 0.45969 0.00877 0.52346 0.0
H1041 H 0.49264 0.96439 0.52381 0.0
H1042 H 0.45412 0.96948 0.50625 0.0
H1043 H 0.52946 0.97646 0.44274 0.0
H1044 H 0.57125 0.91482 0.44939 0.0
H1045 H 0.55735 0.93738 0.5076 0.0
C1046 C 0.46255 0.07231 0.49319 0.0
C1047 C 0.44613 0.09576 0.47865 0.0
C1048 C 0.45241 0.08253 0.46039 0.0
C1049 C 0.47618 0.04755 0.45663 0.0
C1050 C 0.4932 0.02603 0.47129 0.0
C1051 C 0.48601 0.0375 0.48921 0.0
C1052 C 0.50775 0.0093 0.50252 0.0
C1053 C 0.53935 0.033 0.51406 0.0
C1054 C 0.4767 0.98664 0.51472 0.0
C1055 C 0.52857 0.98028 0.4893 0.0
C1056 C 0.52012 0.99055 0.47134 0.0
C1057 C 0.5361 0.96804 0.45676 0.0
C1058 C 0.56012 0.93328 0.46067 0.0
C1059 C 0.56768 0.9213 0.47901 0.0
C1060 C 0.55233 0.94577 0.49343 0.0
H1061 H 0.93146 0.46192 0.55402 0.0
H1062 H 0.90888 0.45248 0.49562 0.0
H1063 H 0.97238 0.49118 0.48948 0.0
H1064 H 0.9681 0.56393 0.5534 0.0
H1065 H 0.00705 0.5565 0.57061 0.0
H1066 H 0.96164 0.52501 0.57072 0.0
H1067 H 0.00606 0.45907 0.56946 0.0
H1068 H 0.05161 0.49034 0.5698 0.0
H1069 H 0.04394 0.45359 0.55166 0.0
H1070 H 0.03587 0.5335 0.48955 0.0
H1071 H 0.09983 0.57143 0.49575 0.0
H1072 H 0.08091 0.55566 0.55412 0.0
C1073 C 0.94051 0.46704 0.53994 0.0
C1074 C 0.91545 0.45389 0.52527 0.0
C1075 C 0.92776 0.46207 0.50705 0.0
C1076 C 0.96364 0.48422 0.50342 0.0
C1077 C 0.98681 0.49815 0.51817 0.0
C1078 C 0.97615 0.4895 0.53607 0.0
C1079 C 0.00607 0.50906 0.54938 0.0
C1080 C 0.98441 0.54049 0.56175 0.0
C1081 C 0.02824 0.47605 0.56074 0.0
C1082 C 0.03509 0.53008 0.53614 0.0
C1083 C 0.02326 0.52341 0.51822 0.0
C1084 C 0.0455 0.53893 0.50351 0.0
C1085 C 0.08165 0.56064 0.50718 0.0
C1086 C 0.09512 0.56681 0.5254 0.0
C1087 C 0.07096 0.55211 0.54007 0.0
loop_
_geom_bond_atom_site_label_1
_geom_bond_atom_site_label_2
_geom_bond_distance
_geom_bond_site_symmetry_2
_ccdc_geom_bond_type
O0 Cd1 2.223 . S
O0 C8 1.315 . S
Cd1 O0 2.223 . S
Cd1 O4 2.297 . S
Cd1 O5 2.439 . S
Cd1 O11 2.240 . S
Cd2 O3 2.240 . S
Cd2 O10 2.223 . S
Cd2 O12 2.297 . S
Cd2 O13 2.439 . S
O3 Cd2 2.240 . S
O3 C8 1.279 . S
O4 Cd1 2.297 . S
O4 C6 1.247 . S
O5 Cd1 2.439 . S
O5 C6 1.208 . S
C6 O4 1.247 . S
C6 O5 1.208 . S
C7 O12 1.247 . S
C7 O13 1.208 . S
C8 O0 1.315 . S
C8 O3 1.279 . S
C9 O10 1.315 . S
C9 O11 1.279 . S
O10 Cd2 2.223 . S
O10 C9 1.315 . S
O11 Cd1 2.240 . S
O11 C9 1.279 . S
O12 Cd2 2.297 . S
O12 C7 1.247 . S
O13 Cd2 2.439 . S
O13 C7 1.208 . S
O14 Cd15 2.223 . S
O14 C22 1.315 . S
Cd15 O14 2.223 . S
Cd15 O18 2.297 . S
Cd15 O19 2.439 . S
Cd15 O25 2.240 . S
Cd16 O17 2.240 . S
Cd16 O24 2.223 . S
Cd16 O26 2.297 . S
Cd16 O27 2.439 . S
O17 Cd16 2.240 . S
O17 C22 1.279 . S
O18 Cd15 2.297 . S
O18 C20 1.247 . S
O19 Cd15 2.439 . S
O19 C20 1.208 . S
C20 O18 1.247 . S
C20 O19 1.208 . S
C21 O26 1.247 . S
C21 O27 1.208 . S
C22 O14 1.315 . S
C22 O17 1.279 . S
C23 O24 1.315 . S
C23 O25 1.279 . S
O24 Cd16 2.223 . S
O24 C23 1.315 . S
O25 Cd15 2.240 . S
O25 C23 1.279 . S
O26 Cd16 2.297 . S
O26 C21 1.247 . S
O27 Cd16 2.439 . S
O27 C21 1.208 . S
O28 Cd29 2.223 . S
O28 C36 1.315 . S
Cd29 O28 2.223 . S
Cd29 O32 2.297 . S
Cd29 O33 2.439 . S
Cd29 O39 2.240 . S
Cd30 O31 2.240 . S
Cd30 O38 2.223 . S
Cd30 O40 2.297 . S
Cd30 O41 2.439 . S
O31 Cd30 2.240 . S
O31 C36 1.279 . S
O32 Cd29 2.297 . S
O32 C34 1.247 . S
O33 Cd29 2.439 . S
O33 C34 1.208 . S
C34 O32 1.247 . S
C34 O33 1.208 . S
C35 O40 1.247 . S
C35 O41 1.208 . S
C36 O28 1.315 . S
C36 O31 1.279 . S
C37 O38 1.315 . S
C37 O39 1.279 . S
O38 Cd30 2.223 . S
O38 C37 1.315 . S
O39 Cd29 2.240 . S
O39 C37 1.279 . S
O40 Cd30 2.297 . S
O40 C35 1.247 . S
O41 Cd30 2.439 . S
O41 C35 1.208 . S
O42 Cd43 2.223 . S
O42 C50 1.315 . S
Cd43 O42 2.223 . S
Cd43 O46 2.297 . S
Cd43 O47 2.439 . S
Cd43 O53 2.240 . S
Cd44 O45 2.240 . S
Cd44 O52 2.223 . S
Cd44 O54 2.297 . S
Cd44 O55 2.439 . S
O45 Cd44 2.240 . S
O45 C50 1.279 . S
O46 Cd43 2.297 . S
O46 C48 1.247 . S
O47 Cd43 2.439 . S
O47 C48 1.208 . S
C48 O46 1.247 . S
C48 O47 1.208 . S
C49 O54 1.247 . S
C49 O55 1.208 . S
C50 O42 1.315 . S
C50 O45 1.279 . S
C51 O52 1.315 . S
C51 O53 1.279 . S
O52 Cd44 2.223 . S
O52 C51 1.315 . S
O53 Cd43 2.240 . S
O53 C51 1.279 . S
O54 Cd44 2.297 . S
O54 C49 1.247 . S
O55 Cd44 2.439 . S
O55 C49 1.208 . S
O56 Cd57 2.223 . S
O56 C64 1.315 . S
Cd57 O56 2.223 . S
Cd57 O60 2.297 . S
Cd57 O61 2.439 . S
Cd57 O67 2.240 . S
Cd58 O59 2.240 . S
Cd58 O66 2.223 . S
Cd58 O68 2.297 . S
Cd58 O69 2.439 . S
O59 Cd58 2.240 . S
O59 C64 1.279 . S
O60 Cd57 2.297 . S
O60 C62 1.247 . S
O61 Cd57 2.439 . S
O61 C62 1.208 . S
C62 O60 1.247 . S
C62 O61 1.208 . S
C63 O68 1.247 . S
C63 O69 1.208 . S
C64 O56 1.315 . S
C64 O59 1.279 . S
C65 O66 1.315 . S
C65 O67 1.279 . S
O66 Cd58 2.223 . S
O66 C65 1.315 . S
O67 Cd57 2.240 . S
O67 C65 1.279 . S
O68 Cd58 2.297 . S
O68 C63 1.247 . S
O69 Cd58 2.439 . S
O69 C63 1.208 . S
O70 Cd71 2.223 . S
O70 C78 1.315 . S
Cd71 O70 2.223 . S
Cd71 O74 2.297 . S
Cd71 O75 2.439 . S
Cd71 O81 2.240 . S
Cd72 O73 2.240 . S
Cd72 O80 2.223 . S
Cd72 O82 2.297 . S
Cd72 O83 2.439 . S
O73 Cd72 2.240 . S
O73 C78 1.279 . S
O74 Cd71 2.297 . S
O74 C76 1.247 . S
O75 Cd71 2.439 . S
O75 C76 1.208 . S
C76 O74 1.247 . S
C76 O75 1.208 . S
C77 O82 1.247 . S
C77 O83 1.208 . S
C78 O70 1.315 . S
C78 O73 1.279 . S
C79 O80 1.315 . S
C79 O81 1.279 . S
O80 Cd72 2.223 . S
O80 C79 1.315 . S
O81 Cd71 2.240 . S
O81 C79 1.279 . S
O82 Cd72 2.297 . S
O82 C77 1.247 . S
O83 Cd72 2.439 . S
O83 C77 1.208 . S
O84 Cd85 2.223 . S
O84 C92 1.315 . S
Cd85 O84 2.223 . S
Cd85 O88 2.297 . S
Cd85 O89 2.439 . S
Cd85 O95 2.240 . S
Cd86 O87 2.240 . S
Cd86 O94 2.223 . S
Cd86 O96 2.297 . S
Cd86 O97 2.439 . S
O87 Cd86 2.240 . S
O87 C92 1.279 . S
O88 Cd85 2.297 . S
O88 C90 1.247 . S
O89 Cd85 2.439 . S
O89 C90 1.208 . S
C90 O88 1.247 . S
C90 O89 1.208 . S
C91 O96 1.247 . S
C91 O97 1.208 . S
C92 O84 1.315 . S
C92 O87 1.279 . S
C93 O94 1.315 . S
C93 O95 1.279 . S
O94 Cd86 2.223 . S
O94 C93 1.315 . S
O95 Cd85 2.240 . S
O95 C93 1.279 . S
O96 Cd86 2.297 . S
O96 C91 1.247 . S
O97 Cd86 2.439 . S
O97 C91 1.208 . S
O98 Cd99 2.223 . S
O98 C106 1.315 . S
Cd99 O98 2.223 . S
Cd99 O102 2.297 . S
Cd99 O103 2.439 . S
Cd99 O109 2.240 . S
Cd100 O101 2.240 . S
Cd100 O108 2.223 . S
Cd100 O110 2.297 . S
Cd100 O111 2.439 . S
O101 Cd100 2.240 . S
O101 C106 1.279 . S
O102 Cd99 2.297 . S
O102 C104 1.247 . S
O103 Cd99 2.439 . S
O103 C104 1.208 . S
C104 O102 1.247 . S
C104 O103 1.208 . S
C105 O110 1.247 . S
C105 O111 1.208 . S
C106 O98 1.315 . S
C106 O101 1.279 . S
C107 O108 1.315 . S
C107 O109 1.279 . S
O108 Cd100 2.223 . S
O108 C107 1.315 . S
O109 Cd99 2.240 . S
O109 C107 1.279 . S
O110 Cd100 2.297 . S
O110 C105 1.247 . S
O111 Cd100 2.439 . S
O111 C105 1.208 . S
O112 Cd113 2.223 . S
O112 C120 1.315 . S
Cd113 O112 2.223 . S
Cd113 O116 2.297 . S
Cd113 O117 2.439 . S
Cd113 O123 2.240 . S
Cd114 O115 2.240 . S
Cd114 O122 2.223 . S
Cd114 O124 2.297 . S
Cd114 O125 2.439 . S
O115 Cd114 2.240 . S
O115 C120 1.279 . S
O116 Cd113 2.297 . S
O116 C118 1.247 . S
O117 Cd113 2.439 . S
O117 C118 1.208 . S
C118 O116 1.247 . S
C118 O117 1.208 . S
C119 O124 1.247 . S
C119 O125 1.208 . S
C120 O112 1.315 . S
C120 O115 1.279 . S
C121 O122 1.315 . S
C121 O123 1.279 . S
O122 Cd114 2.223 . S
O122 C121 1.315 . S
O123 Cd113 2.240 . S
O123 C121 1.279 . S
O124 Cd114 2.297 . S
O124 C119 1.247 . S
O125 Cd114 2.439 . S
O125 C119 1.208 . S
O126 Cd127 2.223 . S
O126 C134 1.315 . S
Cd127 O126 2.223 . S
Cd127 O130 2.297 . S
Cd127 O131 2.439 . S
Cd127 O137 2.240 . S
Cd128 O129 2.240 . S
Cd128 O136 2.223 . S
Cd128 O138 2.297 . S
Cd128 O139 2.439 . S
O129 Cd128 2.240 . S
O129 C134 1.279 . S
O130 Cd127 2.297 . S
O130 C132 1.247 . S
O131 Cd127 2.439 . S
O131 C132 1.208 . S
C132 O130 1.247 . S
C132 O131 1.208 . S
C133 O138 1.247 . S
C133 O139 1.208 . S
C134 O126 1.315 . S
C134 O129 1.279 . S
C135 O136 1.315 . S
C135 O137 1.279 . S
O136 Cd128 2.223 . S
O136 C135 1.315 . S
O137 Cd127 2.240 . S
O137 C135 1.279 . S
O138 Cd128 2.297 . S
O138 C133 1.247 . S
O139 Cd128 2.439 . S
O139 C133 1.208 . S
O140 Cd141 2.223 . S
O140 C148 1.315 . S
Cd141 O140 2.223 . S
Cd141 O144 2.297 . S
Cd141 O145 2.439 . S
Cd141 O151 2.240 . S
Cd142 O143 2.240 . S
Cd142 O150 2.223 . S
Cd142 O152 2.297 . S
Cd142 O153 2.439 . S
O143 Cd142 2.240 . S
O143 C148 1.279 . S
O144 Cd141 2.297 . S
O144 C146 1.247 . S
O145 Cd141 2.439 . S
O145 C146 1.208 . S
C146 O144 1.247 . S
C146 O145 1.208 . S
C147 O152 1.247 . S
C147 O153 1.208 . S
C148 O140 1.315 . S
C148 O143 1.279 . S
C149 O150 1.315 . S
C149 O151 1.279 . S
O150 Cd142 2.223 . S
O150 C149 1.315 . S
O151 Cd141 2.240 . S
O151 C149 1.279 . S
O152 Cd142 2.297 . S
O152 C147 1.247 . S
O153 Cd142 2.439 . S
O153 C147 1.208 . S
O154 Cd155 2.223 . S
O154 C162 1.315 . S
Cd155 O154 2.223 . S
Cd155 O158 2.297 . S
Cd155 O159 2.439 . S
Cd155 O165 2.240 . S
Cd156 O157 2.240 . S
Cd156 O164 2.223 . S
Cd156 O166 2.297 . S
Cd156 O167 2.439 . S
O157 Cd156 2.240 . S
O157 C162 1.279 . S
O158 Cd155 2.297 . S
O158 C160 1.247 . S
O159 Cd155 2.439 . S
O159 C160 1.208 . S
C160 O158 1.247 . S
C160 O159 1.208 . S
C161 O166 1.247 . S
C161 O167 1.208 . S
C162 O154 1.315 . S
C162 O157 1.279 . S
C163 O164 1.315 . S
C163 O165 1.279 . S
O164 Cd156 2.223 . S
O164 C163 1.315 . S
O165 Cd155 2.240 . S
O165 C163 1.279 . S
O166 Cd156 2.297 . S
O166 C161 1.247 . S
O167 Cd156 2.439 . S
O167 C161 1.208 . S
O168 Cd169 2.223 . S
O168 C176 1.315 . S
Cd169 O168 2.223 . S
Cd169 O172 2.297 . S
Cd169 O173 2.439 . S
Cd169 O179 2.240 . S
Cd170 O171 2.240 . S
Cd170 O178 2.223 . S
Cd170 O180 2.297 . S
Cd170 O181 2.439 . S
O171 Cd170 2.240 . S
O171 C176 1.279 . S
O172 Cd169 2.297 . S
O172 C174 1.247 . S
O173 Cd169 2.439 . S
O173 C174 1.208 . S
C174 O172 1.247 . S
C174 O173 1.208 . S
C175 O180 1.247 . S
C175 O181 1.208 . S
C176 O168 1.315 . S
C176 O171 1.279 . S
C177 O178 1.315 . S
C177 O179 1.279 . S
O178 Cd170 2.223 . S
O178 C177 1.315 . S
O179 Cd169 2.240 . S
O179 C177 1.279 . S
O180 Cd170 2.297 . S
O180 C175 1.247 . S
O181 Cd170 2.439 . S
O181 C175 1.208 . S
O182 Cd183 2.223 . S
O182 C190 1.315 . S
Cd183 O182 2.223 . S
Cd183 O186 2.297 . S
Cd183 O187 2.439 . S
Cd183 O193 2.240 . S
Cd184 O185 2.240 . S
Cd184 O192 2.223 . S
Cd184 O194 2.297 . S
Cd184 O195 2.439 . S
O185 Cd184 2.240 . S
O185 C190 1.279 . S
O186 Cd183 2.297 . S
O186 C188 1.247 . S
O187 Cd183 2.439 . S
O187 C188 1.208 . S
C188 O186 1.247 . S
C188 O187 1.208 . S
C189 O194 1.247 . S
C189 O195 1.208 . S
C190 O182 1.315 . S
C190 O185 1.279 . S
C191 O192 1.315 . S
C191 O193 1.279 . S
O192 Cd184 2.223 . S
O192 C191 1.315 . S
O193 Cd183 2.240 . S
O193 C191 1.279 . S
O194 Cd184 2.297 . S
O194 C189 1.247 . S
O195 Cd184 2.439 . S
O195 C189 1.208 . S
O196 Cd197 2.223 . S
O196 C204 1.315 . S
Cd197 O196 2.223 . S
Cd197 O200 2.297 . S
Cd197 O201 2.439 . S
Cd197 O207 2.240 . S
Cd198 O199 2.240 . S
Cd198 O206 2.223 . S
Cd198 O208 2.297 . S
Cd198 O209 2.439 . S
O199 Cd198 2.240 . S
O199 C204 1.279 . S
O200 Cd197 2.297 . S
O200 C202 1.247 . S
O201 Cd197 2.439 . S
O201 C202 1.208 . S
C202 O200 1.247 . S
C202 O201 1.208 . S
C203 O208 1.247 . S
C203 O209 1.208 . S
C204 O196 1.315 . S
C204 O199 1.279 . S
C205 O206 1.315 . S
C205 O207 1.279 . S
O206 Cd198 2.223 . S
O206 C205 1.315 . S
O207 Cd197 2.240 . S
O207 C205 1.279 . S
O208 Cd198 2.297 . S
O208 C203 1.247 . S
O209 Cd198 2.439 . S
O209 C203 1.208 . S
O210 Cd211 2.223 . S
O210 C218 1.315 . S
Cd211 O210 2.223 . S
Cd211 O214 2.297 . S
Cd211 O215 2.439 . S
Cd211 O221 2.240 . S
Cd212 O213 2.240 . S
Cd212 O220 2.223 . S
Cd212 O222 2.297 . S
Cd212 O223 2.439 . S
O213 Cd212 2.240 . S
O213 C218 1.279 . S
O214 Cd211 2.297 . S
O214 C216 1.247 . S
O215 Cd211 2.439 . S
O215 C216 1.208 . S
C216 O214 1.247 . S
C216 O215 1.208 . S
C217 O222 1.247 . S
C217 O223 1.208 . S
C218 O210 1.315 . S
C218 O213 1.279 . S
C219 O220 1.315 . S
C219 O221 1.279 . S
O220 Cd212 2.223 . S
O220 C219 1.315 . S
O221 Cd211 2.240 . S
O221 C219 1.279 . S
O222 Cd212 2.297 . S
O222 C217 1.247 . S
O223 Cd212 2.439 . S
O223 C217 1.208 . S
H224 C236 0.930 . S
H225 C238 0.930 . S
H226 C239 0.930 . S
H227 C243 0.959 . S
H228 C243 0.959 . S
H229 C243 0.961 . S
H230 C244 0.960 . S
H231 C244 0.961 . S
H232 C244 0.959 . S
H233 C247 0.929 . S
H234 C248 0.931 . S
H235 C250 0.930 . S
C236 H224 0.930 . S
C236 C237 1.399 . S
C236 C241 1.399 . S
C237 C236 1.399 . S
C237 C238 1.376 . S
C238 H225 0.930 . S
C238 C237 1.376 . S
C238 C239 1.388 . S
C239 H226 0.930 . S
C239 C238 1.388 . S
C239 C240 1.390 . S
C240 C239 1.390 . S
C240 C241 1.394 . S
C240 C246 1.465 . S
C241 C236 1.399 . S
C241 C240 1.394 . S
C241 C242 1.516 . S
C242 C241 1.516 . S
C242 C243 1.502 . S
C242 C244 1.561 . S
C242 C245 1.526 . S
C243 H227 0.959 . S
C243 H228 0.959 . S
C243 H229 0.961 . S
C243 C242 1.502 . S
C244 H230 0.960 . S
C244 H231 0.961 . S
C244 H232 0.959 . S
C244 C242 1.561 . S
C245 C242 1.526 . S
C245 C246 1.396 . S
C245 C250 1.390 . S
C246 C240 1.465 . S
C246 C245 1.396 . S
C246 C247 1.399 . S
C247 H233 0.929 . S
C247 C246 1.399 . S
C247 C248 1.385 . S
C248 H234 0.931 . S
C248 C247 1.385 . S
C248 C249 1.389 . S
C249 C248 1.389 . S
C249 C250 1.387 . S
C250 H235 0.930 . S
C250 C245 1.390 . S
C250 C249 1.387 . S
H251 C263 0.930 . S
H252 C265 0.930 . S
H253 C266 0.930 . S
H254 C270 0.959 . S
H255 C270 0.959 . S
H256 C270 0.961 . S
H257 C271 0.960 . S
H258 C271 0.961 . S
H259 C271 0.959 . S
H260 C274 0.929 . S
H261 C275 0.931 . S
H262 C277 0.930 . S
C263 H251 0.930 . S
C263 C264 1.399 . S
C263 C268 1.399 . S
C264 C263 1.399 . S
C264 C265 1.376 . S
C265 H252 0.930 . S
C265 C264 1.376 . S
C265 C266 1.388 . S
C266 H253 0.930 . S
C266 C265 1.388 . S
C266 C267 1.390 . S
C267 C266 1.390 . S
C267 C268 1.394 . S
C267 C273 1.465 . S
C268 C263 1.399 . S
C268 C267 1.394 . S
C268 C269 1.516 . S
C269 C268 1.516 . S
C269 C270 1.502 . S
C269 C271 1.561 . S
C269 C272 1.526 . S
C270 H254 0.959 . S
C270 H255 0.959 . S
C270 H256 0.961 . S
C270 C269 1.502 . S
C271 H257 0.960 . S
C271 H258 0.961 . S
C271 H259 0.959 . S
C271 C269 1.561 . S
C272 C269 1.526 . S
C272 C273 1.396 . S
C272 C277 1.390 . S
C273 C267 1.465 . S
C273 C272 1.396 . S
C273 C274 1.399 . S
C274 H260 0.929 . S
C274 C273 1.399 . S
C274 C275 1.385 . S
C275 H261 0.931 . S
C275 C274 1.385 . S
C275 C276 1.389 . S
C276 C275 1.389 . S
C276 C277 1.387 . S
C277 H262 0.930 . S
C277 C272 1.390 . S
C277 C276 1.387 . S
H278 C290 0.930 . S
H279 C292 0.930 . S
H280 C293 0.930 . S
H281 C297 0.959 . S
H282 C297 0.959 . S
H283 C297 0.961 . S
H284 C298 0.960 . S
H285 C298 0.961 . S
H286 C298 0.959 . S
H287 C301 0.929 . S
H288 C302 0.931 . S
H289 C304 0.930 . S
C290 H278 0.930 . S
C290 C291 1.399 . S
C290 C295 1.399 . S
C291 C290 1.399 . S
C291 C292 1.376 . S
C292 H279 0.930 . S
C292 C291 1.376 . S
C292 C293 1.388 . S
C293 H280 0.930 . S
C293 C292 1.388 . S
C293 C294 1.390 . S
C294 C293 1.390 . S
C294 C295 1.394 . S
C294 C300 1.465 . S
C295 C290 1.399 . S
C295 C294 1.394 . S
C295 C296 1.516 . S
C296 C295 1.516 . S
C296 C297 1.502 . S
C296 C298 1.561 . S
C296 C299 1.526 . S
C297 H281 0.959 . S
C297 H282 0.959 . S
C297 H283 0.961 . S
C297 C296 1.502 . S
C298 H284 0.960 . S
C298 H285 0.961 . S
C298 H286 0.959 . S
C298 C296 1.561 . S
C299 C296 1.526 . S
C299 C300 1.396 . S
C299 C304 1.390 . S
C300 C294 1.465 . S
C300 C299 1.396 . S
C300 C301 1.399 . S
C301 H287 0.929 . S
C301 C300 1.399 . S
C301 C302 1.385 . S
C302 H288 0.931 . S
C302 C301 1.385 . S
C302 C303 1.389 . S
C303 C302 1.389 . S
C303 C304 1.387 . S
C304 H289 0.930 . S
C304 C299 1.390 . S
C304 C303 1.387 . S
H305 C317 0.930 . S
H306 C319 0.930 . S
H307 C320 0.930 . S
H308 C324 0.959 . S
H309 C324 0.959 . S
H310 C324 0.961 . S
H311 C325 0.960 . S
H312 C325 0.961 . S
H313 C325 0.959 . S
H314 C328 0.929 . S
H315 C329 0.931 . S
H316 C331 0.930 . S
C317 H305 0.930 . S
C317 C318 1.399 . S
C317 C322 1.399 . S
C318 C317 1.399 . S
C318 C319 1.376 . S
C319 H306 0.930 . S
C319 C318 1.376 . S
C319 C320 1.388 . S
C320 H307 0.930 . S
C320 C319 1.388 . S
C320 C321 1.390 . S
C321 C320 1.390 . S
C321 C322 1.394 . S
C321 C327 1.465 . S
C322 C317 1.399 . S
C322 C321 1.394 . S
C322 C323 1.516 . S
C323 C322 1.516 . S
C323 C324 1.502 . S
C323 C325 1.561 . S
C323 C326 1.526 . S
C324 H308 0.959 . S
C324 H309 0.959 . S
C324 H310 0.961 . S
C324 C323 1.502 . S
C325 H311 0.960 . S
C325 H312 0.961 . S
C325 H313 0.959 . S
C325 C323 1.561 . S
C326 C323 1.526 . S
C326 C327 1.396 . S
C326 C331 1.390 . S
C327 C321 1.465 . S
C327 C326 1.396 . S
C327 C328 1.399 . S
C328 H314 0.929 . S
C328 C327 1.399 . S
C328 C329 1.385 . S
C329 H315 0.931 . S
C329 C328 1.385 . S
C329 C330 1.389 . S
C330 C329 1.389 . S
C330 C331 1.387 . S
C331 H316 0.930 . S
C331 C326 1.390 . S
C331 C330 1.387 . S
H332 C344 0.930 1_556 S
H333 C346 0.930 . S
H334 C347 0.930 . S
H335 C351 0.959 . S
H336 C351 0.959 . S
H337 C351 0.961 . S
H338 C352 0.960 . S
H339 C352 0.961 . S
H340 C352 0.959 . S
H341 C355 0.929 . S
H342 C356 0.931 . S
H343 C358 0.930 . S
C344 H332 0.930 1_554 S
C344 C345 1.399 . S
C344 C349 1.411 . S
C345 C344 1.399 . S
C345 C346 1.376 . S
C346 H333 0.930 . S
C346 C345 1.376 . S
C346 C347 1.388 . S
C347 H334 0.930 . S
C347 C346 1.388 . S
C347 C348 1.390 . S
C348 C347 1.390 . S
C348 C349 1.443 . S
C348 C354 1.465 . S
C349 C344 1.411 . S
C349 C348 1.443 . S
C349 C350 1.461 1_554 S
C350 C349 1.461 1_556 S
C350 C351 1.502 . S
C350 C352 1.561 . S
C350 C353 1.526 . S
C351 H335 0.959 . S
C351 H336 0.959 . S
C351 H337 0.961 . S
C351 C350 1.502 . S
C352 H338 0.960 . S
C352 H339 0.961 . S
C352 H340 0.959 . S
C352 C350 1.561 . S
C353 C350 1.526 . S
C353 C354 1.396 1_556 S
C353 C358 1.390 . S
C354 C348 1.465 . S
C354 C353 1.396 1_554 S
C354 C355 1.399 . S
C355 H341 0.929 . S
C355 C354 1.399 . S
C355 C356 1.385 . S
C356 H342 0.931 . S
C356 C355 1.385 . S
C356 C357 1.389 1_554 S
C357 C356 1.389 1_556 S
C357 C358 1.387 . S
C358 H343 0.930 . S
C358 C353 1.390 . S
C358 C357 1.387 . S
H359 C371 0.930 1_556 S
H360 C373 0.930 . S
H361 C374 0.930 . S
H362 C378 0.959 . S
H363 C378 0.959 . S
H364 C378 0.961 . S
H365 C379 0.960 . S
H366 C379 0.961 . S
H367 C379 0.959 1_554 S
H368 C382 0.929 . S
H369 C383 0.931 . S
H370 C385 0.930 . S
C371 H359 0.930 1_554 S
C371 C372 1.399 . S
C371 C376 1.399 1_554 S
C372 C371 1.399 . S
C372 C373 1.376 . S
C373 H360 0.930 . S
C373 C372 1.376 . S
C373 C374 1.388 . S
C374 H361 0.930 . S
C374 C373 1.388 . S
C374 C375 1.390 . S
C375 C374 1.390 . S
C375 C376 1.394 1_554 S
C375 C381 1.465 1_554 S
C376 C371 1.399 1_556 S
C376 C375 1.394 1_556 S
C376 C377 1.516 . S
C377 C376 1.516 . S
C377 C378 1.502 . S
C377 C379 1.561 . S
C377 C380 1.526 . S
C378 H362 0.959 . S
C378 H363 0.959 . S
C378 H364 0.961 . S
C378 C377 1.502 . S
C379 H365 0.960 . S
C379 H366 0.961 . S
C379 H367 0.959 1_556 S
C379 C377 1.561 . S
C380 C377 1.526 . S
C380 C381 1.396 . S
C380 C385 1.390 . S
C381 C375 1.465 1_556 S
C381 C380 1.396 . S
C381 C382 1.399 1_556 S
C382 H368 0.929 . S
C382 C381 1.399 1_554 S
C382 C383 1.385 1_454 S
C383 H369 0.931 . S
C383 C382 1.385 1_656 S
C383 C384 1.391 . S
C384 C383 1.391 . S
C384 C385 1.380 1_655 S
C385 H370 0.930 . S
C385 C380 1.390 . S
C385 C384 1.380 1_455 S
H386 C398 0.930 . S
H387 C400 0.930 . S
H388 C401 0.930 . S
H389 C405 0.959 . S
H390 C405 0.959 . S
H391 C405 0.961 . S
H392 C406 0.960 . S
H393 C406 0.961 . S
H394 C406 0.959 . S
H395 C409 0.929 . S
H396 C410 0.931 1_556 S
H397 C412 0.930 . S
C398 H386 0.930 . S
C398 C399 1.399 1_554 S
C398 C403 1.399 . S
C399 C398 1.399 1_556 S
C399 C400 1.376 . S
C400 H387 0.930 . S
C400 C399 1.376 . S
C400 C401 1.388 . S
C401 H388 0.930 . S
C401 C400 1.388 . S
C401 C402 1.390 . S
C402 C401 1.390 . S
C402 C403 1.394 1_556 S
C402 C408 1.464 1_556 S
C403 C398 1.399 . S
C403 C402 1.394 1_554 S
C403 C404 1.516 . S
C404 C403 1.516 . S
C404 C405 1.502 . S
C404 C406 1.561 . S
C404 C407 1.526 . S
C405 H389 0.959 . S
C405 H390 0.959 . S
C405 H391 0.961 . S
C405 C404 1.502 . S
C406 H392 0.960 . S
C406 H393 0.961 . S
C406 H394 0.959 . S
C406 C404 1.561 . S
C407 C404 1.526 . S
C407 C408 1.399 . S
C407 C412 1.390 . S
C408 C402 1.464 1_554 S
C408 C407 1.399 . S
C408 C409 1.398 1_554 S
C409 H395 0.929 . S
C409 C408 1.398 1_556 S
C409 C410 1.385 1_566 S
C410 H396 0.931 1_554 S
C410 C409 1.385 1_544 S
C410 C411 1.390 . S
C411 C410 1.390 . S
C411 C412 1.383 1_545 S
C412 H397 0.930 . S
C412 C407 1.390 . S
C412 C411 1.383 1_565 S
H413 C425 0.930 . S
H414 C427 0.930 . S
H415 C428 0.930 . S
H416 C432 0.959 . S
H417 C432 0.959 . S
H418 C432 0.961 . S
H419 C433 0.960 . S
H420 C433 0.961 . S
H421 C433 0.959 . S
H422 C436 0.929 . S
H423 C437 0.931 . S
H424 C439 0.930 . S
C425 H413 0.930 . S
C425 C426 1.399 . S
C425 C430 1.399 . S
C426 C425 1.399 . S
C426 C427 1.376 . S
C427 H414 0.930 . S
C427 C426 1.376 . S
C427 C428 1.388 . S
C428 H415 0.930 . S
C428 C427 1.388 . S
C428 C429 1.390 . S
C429 C428 1.390 . S
C429 C430 1.394 . S
C429 C435 1.465 1_554 S
C430 C425 1.399 . S
C430 C429 1.394 . S
C430 C431 1.516 1_554 S
C431 C430 1.516 1_556 S
C431 C432 1.502 . S
C431 C433 1.561 1_556 S
C431 C434 1.526 . S
C432 H416 0.959 . S
C432 H417 0.959 . S
C432 H418 0.961 . S
C432 C431 1.502 . S
C433 H419 0.960 . S
C433 H420 0.961 . S
C433 H421 0.959 . S
C433 C431 1.561 1_554 S
C434 C431 1.526 . S
C434 C435 1.396 . S
C434 C439 1.390 . S
C435 C429 1.465 1_556 S
C435 C434 1.396 . S
C435 C436 1.399 . S
C436 H422 0.929 . S
C436 C435 1.399 . S
C436 C437 1.385 1_655 S
C437 H423 0.931 . S
C437 C436 1.385 1_455 S
C437 C438 1.390 . S
C438 C437 1.390 . S
C438 C439 1.386 1_455 S
C439 H424 0.930 . S
C439 C434 1.390 . S
C439 C438 1.386 1_655 S
H440 C452 0.930 . S
H441 C454 0.930 . S
H442 C455 0.930 . S
H443 C459 0.959 . S
H444 C459 0.959 . S
H445 C459 0.961 . S
H446 C460 0.960 . S
H447 C460 0.961 . S
H448 C460 0.959 . S
H449 C463 0.929 . S
H450 C464 0.931 . S
H451 C466 0.930 1_545 S
C452 H440 0.930 . S
C452 C453 1.399 . S
C452 C457 1.399 . S
C453 C452 1.399 . S
C453 C454 1.376 . S
C454 H441 0.930 . S
C454 C453 1.376 . S
C454 C455 1.388 . S
C455 H442 0.930 . S
C455 C454 1.388 . S
C455 C456 1.390 . S
C456 C455 1.390 . S
C456 C457 1.394 . S
C456 C462 1.465 . S
C457 C452 1.399 . S
C457 C456 1.394 . S
C457 C458 1.516 . S
C458 C457 1.516 . S
C458 C459 1.502 . S
C458 C460 1.561 . S
C458 C461 1.526 . S
C459 H443 0.959 . S
C459 H444 0.959 . S
C459 H445 0.961 . S
C459 C458 1.502 . S
C460 H446 0.960 . S
C460 H447 0.961 . S
C460 H448 0.959 . S
C460 C458 1.561 . S
C461 C458 1.526 . S
C461 C462 1.396 . S
C461 C466 1.390 . S
C462 C456 1.465 . S
C462 C461 1.396 . S
C462 C463 1.399 . S
C463 H449 0.929 . S
C463 C462 1.399 . S
C463 C464 1.385 . S
C464 H450 0.931 . S
C464 C463 1.385 . S
C464 C465 1.389 . S
C465 C464 1.389 . S
C465 C466 1.387 . S
C466 H451 0.930 1_565 S
C466 C461 1.390 . S
C466 C465 1.387 . S
H467 C479 0.930 . S
H468 C481 0.930 1_455 S
H469 C482 0.930 . S
H470 C486 0.959 . S
H471 C486 0.959 . S
H472 C486 0.961 . S
H473 C487 0.960 . S
H474 C487 0.961 . S
H475 C487 0.959 . S
H476 C490 0.929 . S
H477 C491 0.931 . S
H478 C493 0.930 . S
C479 H467 0.930 . S
C479 C480 1.399 . S
C479 C484 1.399 . S
C480 C479 1.399 . S
C480 C481 1.376 . S
C481 H468 0.930 1_655 S
C481 C480 1.376 . S
C481 C482 1.388 . S
C482 H469 0.930 . S
C482 C481 1.388 . S
C482 C483 1.390 . S
C483 C482 1.390 . S
C483 C484 1.394 . S
C483 C489 1.465 . S
C484 C479 1.399 . S
C484 C483 1.394 . S
C484 C485 1.516 . S
C485 C484 1.516 . S
C485 C486 1.502 . S
C485 C487 1.561 . S
C485 C488 1.526 . S
C486 H470 0.959 . S
C486 H471 0.959 . S
C486 H472 0.961 . S
C486 C485 1.502 . S
C487 H473 0.960 . S
C487 H474 0.961 . S
C487 H475 0.959 . S
C487 C485 1.561 . S
C488 C485 1.526 . S
C488 C489 1.396 . S
C488 C493 1.390 . S
C489 C483 1.465 . S
C489 C488 1.396 . S
C489 C490 1.399 . S
C490 H476 0.929 . S
C490 C489 1.399 . S
C490 C491 1.385 . S
C491 H477 0.931 . S
C491 C490 1.385 . S
C491 C492 1.389 . S
C492 C491 1.389 . S
C492 C493 1.387 . S
C493 H478 0.930 . S
C493 C488 1.390 . S
C493 C492 1.387 . S
H494 C506 0.930 1_565 S
H495 C508 0.930 . S
H496 C509 0.930 . S
H497 C513 0.959 . S
H498 C513 0.959 . S
H499 C513 0.961 . S
H500 C514 0.960 . S
H501 C514 0.961 . S
H502 C514 0.959 . S
H503 C517 0.929 . S
H504 C518 0.931 . S
H505 C520 0.930 . S
C506 H494 0.930 1_545 S
C506 C507 1.399 . S
C506 C511 1.399 . S
C507 C506 1.399 . S
C507 C508 1.376 . S
C508 H495 0.930 . S
C508 C507 1.376 . S
C508 C509 1.388 . S
C509 H496 0.930 . S
C509 C508 1.388 . S
C509 C510 1.390 . S
C510 C509 1.390 . S
C510 C511 1.394 . S
C510 C516 1.465 . S
C511 C506 1.399 . S
C511 C510 1.394 . S
C511 C512 1.516 . S
C512 C511 1.516 . S
C512 C513 1.502 . S
C512 C514 1.561 . S
C512 C515 1.526 . S
C513 H497 0.959 . S
C513 H498 0.959 . S
C513 H499 0.961 . S
C513 C512 1.502 . S
C514 H500 0.960 . S
C514 H501 0.961 . S
C514 H502 0.959 . S
C514 C512 1.561 . S
C515 C512 1.526 . S
C515 C516 1.396 . S
C515 C520 1.390 . S
C516 C510 1.465 . S
C516 C515 1.396 . S
C516 C517 1.399 . S
C517 H503 0.929 . S
C517 C516 1.399 . S
C517 C518 1.385 . S
C518 H504 0.931 . S
C518 C517 1.385 . S
C518 C519 1.389 . S
C519 C518 1.389 . S
C519 C520 1.387 . S
C520 H505 0.930 . S
C520 C515 1.390 . S
C520 C519 1.387 . S
H521 C533 0.930 . S
H522 C535 0.930 . S
H523 C536 0.930 . S
H524 C540 0.959 . S
H525 C540 0.959 . S
H526 C540 0.961 . S
H527 C541 0.960 . S
H528 C541 0.961 . S
H529 C541 0.959 . S
H530 C544 0.929 . S
H531 C545 0.931 . S
H532 C547 0.930 . S
C533 H521 0.930 . S
C533 C534 1.397 1_455 S
C533 C538 1.399 . S
C534 C533 1.397 1_655 S
C534 C535 1.377 . S
C535 H522 0.930 . S
C535 C534 1.377 . S
C535 C536 1.388 1_655 S
C536 H523 0.930 . S
C536 C535 1.388 1_455 S
C536 C537 1.390 . S
C537 C536 1.390 . S
C537 C538 1.394 . S
C537 C543 1.465 . S
C538 C533 1.399 . S
C538 C537 1.394 . S
C538 C539 1.516 . S
C539 C538 1.516 . S
C539 C540 1.502 . S
C539 C541 1.561 . S
C539 C542 1.526 . S
C540 H524 0.959 . S
C540 H525 0.959 . S
C540 H526 0.961 . S
C540 C539 1.502 . S
C541 H527 0.960 . S
C541 H528 0.961 . S
C541 H529 0.959 . S
C541 C539 1.561 . S
C542 C539 1.526 . S
C542 C543 1.396 . S
C542 C547 1.390 . S
C543 C537 1.465 . S
C543 C542 1.396 . S
C543 C544 1.399 . S
C544 H530 0.929 . S
C544 C543 1.399 . S
C544 C545 1.385 . S
C545 H531 0.931 . S
C545 C544 1.385 . S
C545 C546 1.389 . S
C546 C545 1.389 . S
C546 C547 1.387 . S
C547 H532 0.930 . S
C547 C542 1.390 . S
C547 C546 1.387 . S
H548 C560 0.930 . S
H549 C562 0.930 . S
H550 C563 0.930 . S
H551 C567 0.959 . S
H552 C567 0.959 . S
H553 C567 0.961 . S
H554 C568 0.960 . S
H555 C568 0.961 . S
H556 C568 0.959 . S
H557 C571 0.929 . S
H558 C572 0.931 . S
H559 C574 0.930 . S
C560 H548 0.930 . S
C560 C561 1.399 . S
C560 C565 1.399 . S
C561 C560 1.399 . S
C561 C562 1.376 . S
C562 H549 0.930 . S
C562 C561 1.376 . S
C562 C563 1.388 . S
C563 H550 0.930 . S
C563 C562 1.388 . S
C563 C564 1.390 . S
C564 C563 1.390 . S
C564 C565 1.394 . S
C564 C570 1.465 . S
C565 C560 1.399 . S
C565 C564 1.394 . S
C565 C566 1.516 . S
C566 C565 1.516 . S
C566 C567 1.502 . S
C566 C568 1.561 . S
C566 C569 1.526 . S
C567 H551 0.959 . S
C567 H552 0.959 . S
C567 H553 0.961 . S
C567 C566 1.502 . S
C568 H554 0.960 . S
C568 H555 0.961 . S
C568 H556 0.959 . S
C568 C566 1.561 . S
C569 C566 1.526 . S
C569 C570 1.396 . S
C569 C574 1.390 . S
C570 C564 1.465 . S
C570 C569 1.396 . S
C570 C571 1.399 . S
C571 H557 0.929 . S
C571 C570 1.399 . S
C571 C572 1.385 . S
C572 H558 0.931 . S
C572 C571 1.385 . S
C572 C573 1.389 . S
C573 C572 1.389 . S
C573 C574 1.387 . S
C574 H559 0.930 . S
C574 C569 1.390 . S
C574 C573 1.387 . S
H575 C587 0.930 . S
H576 C589 0.930 . S
H577 C590 0.930 . S
H578 C594 0.959 . S
H579 C594 0.959 . S
H580 C594 0.961 . S
H581 C595 0.960 . S
H582 C595 0.961 . S
H583 C595 0.959 . S
H584 C598 0.929 . S
H585 C599 0.931 . S
H586 C601 0.930 . S
C587 H575 0.930 . S
C587 C588 1.399 . S
C587 C592 1.399 . S
C588 C587 1.399 . S
C588 C589 1.376 . S
C589 H576 0.930 . S
C589 C588 1.376 . S
C589 C590 1.388 . S
C590 H577 0.930 . S
C590 C589 1.388 . S
C590 C591 1.390 . S
C591 C590 1.390 . S
C591 C592 1.394 . S
C591 C597 1.465 . S
C592 C587 1.399 . S
C592 C591 1.394 . S
C592 C593 1.516 . S
C593 C592 1.516 . S
C593 C594 1.502 . S
C593 C595 1.561 . S
C593 C596 1.526 . S
C594 H578 0.959 . S
C594 H579 0.959 . S
C594 H580 0.961 . S
C594 C593 1.502 . S
C595 H581 0.960 . S
C595 H582 0.961 . S
C595 H583 0.959 . S
C595 C593 1.561 . S
C596 C593 1.526 . S
C596 C597 1.396 . S
C596 C601 1.390 . S
C597 C591 1.465 . S
C597 C596 1.396 . S
C597 C598 1.399 . S
C598 H584 0.929 . S
C598 C597 1.399 . S
C598 C599 1.385 . S
C599 H585 0.931 . S
C599 C598 1.385 . S
C599 C600 1.389 . S
C600 C599 1.389 . S
C600 C601 1.387 . S
C601 H586 0.930 . S
C601 C596 1.390 . S
C601 C600 1.387 . S
H602 C614 0.930 . S
H603 C616 0.930 . S
H604 C617 0.930 . S
H605 C621 0.959 . S
H606 C621 0.959 . S
H607 C621 0.961 . S
H608 C622 0.960 . S
H609 C622 0.961 . S
H610 C622 0.959 . S
H611 C625 0.929 . S
H612 C626 0.931 . S
H613 C628 0.930 . S
C614 H602 0.930 . S
C614 C615 1.399 . S
C614 C619 1.399 . S
C615 C614 1.399 . S
C615 C616 1.376 . S
C616 H603 0.930 . S
C616 C615 1.376 . S
C616 C617 1.388 . S
C617 H604 0.930 . S
C617 C616 1.388 . S
C617 C618 1.390 . S
C618 C617 1.390 . S
C618 C619 1.394 . S
C618 C624 1.465 . S
C619 C614 1.399 . S
C619 C618 1.394 . S
C619 C620 1.516 . S
C620 C619 1.516 . S
C620 C621 1.502 . S
C620 C622 1.561 . S
C620 C623 1.526 . S
C621 H605 0.959 . S
C621 H606 0.959 . S
C621 H607 0.961 . S
C621 C620 1.502 . S
C622 H608 0.960 . S
C622 H609 0.961 . S
C622 H610 0.959 . S
C622 C620 1.561 . S
C623 C620 1.526 . S
C623 C624 1.396 . S
C623 C628 1.390 . S
C624 C618 1.465 . S
C624 C623 1.396 . S
C624 C625 1.399 . S
C625 H611 0.929 . S
C625 C624 1.399 . S
C625 C626 1.385 . S
C626 H612 0.931 . S
C626 C625 1.385 . S
C626 C627 1.389 . S
C627 C626 1.389 . S
C627 C628 1.387 . S
C628 H613 0.930 . S
C628 C623 1.390 . S
C628 C627 1.387 . S
H629 C641 0.930 . S
H630 C643 0.930 . S
H631 C644 0.930 . S
H632 C648 0.959 . S
H633 C648 0.959 . S
H634 C648 0.961 . S
H635 C649 0.960 . S
H636 C649 0.961 . S
H637 C649 0.959 . S
H638 C652 0.929 . S
H639 C653 0.931 . S
H640 C655 0.930 . S
C641 H629 0.930 . S
C641 C642 1.399 . S
C641 C646 1.399 . S
C642 C641 1.399 . S
C642 C643 1.376 . S
C643 H630 0.930 . S
C643 C642 1.376 . S
C643 C644 1.388 . S
C644 H631 0.930 . S
C644 C643 1.388 . S
C644 C645 1.390 . S
C645 C644 1.390 . S
C645 C646 1.394 . S
C645 C651 1.465 . S
C646 C641 1.399 . S
C646 C645 1.394 . S
C646 C647 1.516 . S
C647 C646 1.516 . S
C647 C648 1.502 . S
C647 C649 1.561 . S
C647 C650 1.526 . S
C648 H632 0.959 . S
C648 H633 0.959 . S
C648 H634 0.961 . S
C648 C647 1.502 . S
C649 H635 0.960 . S
C649 H636 0.961 . S
C649 H637 0.959 . S
C649 C647 1.561 . S
C650 C647 1.526 . S
C650 C651 1.396 . S
C650 C655 1.390 . S
C651 C645 1.465 . S
C651 C650 1.396 . S
C651 C652 1.399 . S
C652 H638 0.929 . S
C652 C651 1.399 . S
C652 C653 1.385 . S
C653 H639 0.931 . S
C653 C652 1.385 . S
C653 C654 1.389 . S
C654 C653 1.389 . S
C654 C655 1.387 . S
C655 H640 0.930 . S
C655 C650 1.390 . S
C655 C654 1.387 . S
H656 C668 0.930 . S
H657 C670 0.930 . S
H658 C671 0.930 . S
H659 C675 0.959 . S
H660 C675 0.959 . S
H661 C675 0.961 . S
H662 C676 0.960 . S
H663 C676 0.961 . S
H664 C676 0.959 . S
H665 C679 0.929 . S
H666 C680 0.931 . S
H667 C682 0.930 . S
C668 H656 0.930 . S
C668 C669 1.399 . S
C668 C673 1.399 . S
C669 C668 1.399 . S
C669 C670 1.376 . S
C670 H657 0.930 . S
C670 C669 1.376 . S
C670 C671 1.388 . S
C671 H658 0.930 . S
C671 C670 1.388 . S
C671 C672 1.390 . S
C672 C671 1.390 . S
C672 C673 1.394 . S
C672 C678 1.465 . S
C673 C668 1.399 . S
C673 C672 1.394 . S
C673 C674 1.516 . S
C674 C673 1.516 . S
C674 C675 1.502 . S
C674 C676 1.561 . S
C674 C677 1.526 . S
C675 H659 0.959 . S
C675 H660 0.959 . S
C675 H661 0.961 . S
C675 C674 1.502 . S
C676 H662 0.960 . S
C676 H663 0.961 . S
C676 H664 0.959 . S
C676 C674 1.561 . S
C677 C674 1.526 . S
C677 C678 1.396 . S
C677 C682 1.390 . S
C678 C672 1.465 . S
C678 C677 1.396 . S
C678 C679 1.399 . S
C679 H665 0.929 . S
C679 C678 1.399 . S
C679 C680 1.385 . S
C680 H666 0.931 . S
C680 C679 1.385 . S
C680 C681 1.389 . S
C681 C680 1.389 . S
C681 C682 1.387 . S
C682 H667 0.930 . S
C682 C677 1.390 . S
C682 C681 1.387 . S
H683 C695 0.930 . S
H684 C697 0.930 . S
H685 C698 0.930 . S
H686 C702 0.959 . S
H687 C702 0.959 . S
H688 C702 0.961 . S
H689 C703 0.960 . S
H690 C703 0.961 . S
H691 C703 0.959 . S
H692 C706 0.929 . S
H693 C707 0.931 . S
H694 C709 0.930 . S
C695 H683 0.930 . S
C695 C696 1.399 . S
C695 C700 1.399 . S
C696 C695 1.399 . S
C696 C697 1.376 . S
C697 H684 0.930 . S
C697 C696 1.376 . S
C697 C698 1.388 . S
C698 H685 0.930 . S
C698 C697 1.388 . S
C698 C699 1.390 . S
C699 C698 1.390 . S
C699 C700 1.394 . S
C699 C705 1.465 . S
C700 C695 1.399 . S
C700 C699 1.394 . S
C700 C701 1.516 . S
C701 C700 1.516 . S
C701 C702 1.502 . S
C701 C703 1.561 . S
C701 C704 1.526 . S
C702 H686 0.959 . S
C702 H687 0.959 . S
C702 H688 0.961 . S
C702 C701 1.502 . S
C703 H689 0.960 . S
C703 H690 0.961 . S
C703 H691 0.959 . S
C703 C701 1.561 . S
C704 C701 1.526 . S
C704 C705 1.396 . S
C704 C709 1.390 . S
C705 C699 1.465 . S
C705 C704 1.396 . S
C705 C706 1.399 . S
C706 H692 0.929 . S
C706 C705 1.399 . S
C706 C707 1.385 . S
C707 H693 0.931 . S
C707 C706 1.385 . S
C707 C708 1.389 . S
C708 C707 1.389 . S
C708 C709 1.387 . S
C709 H694 0.930 . S
C709 C704 1.390 . S
C709 C708 1.387 . S
H710 C722 0.930 . S
H711 C724 0.930 . S
H712 C725 0.930 . S
H713 C729 0.959 . S
H714 C729 0.959 . S
H715 C729 0.961 . S
H716 C730 0.960 . S
H717 C730 0.961 . S
H718 C730 0.959 . S
H719 C733 0.929 . S
H720 C734 0.931 . S
H721 C736 0.930 . S
C722 H710 0.930 . S
C722 C723 1.399 . S
C722 C727 1.399 . S
C723 C722 1.399 . S
C723 C724 1.376 . S
C724 H711 0.930 . S
C724 C723 1.376 . S
C724 C725 1.388 . S
C725 H712 0.930 . S
C725 C724 1.388 . S
C725 C726 1.390 . S
C726 C725 1.390 . S
C726 C727 1.394 . S
C726 C732 1.465 . S
C727 C722 1.399 . S
C727 C726 1.394 . S
C727 C728 1.516 . S
C728 C727 1.516 . S
C728 C729 1.502 . S
C728 C730 1.561 . S
C728 C731 1.526 . S
C729 H713 0.959 . S
C729 H714 0.959 . S
C729 H715 0.961 . S
C729 C728 1.502 . S
C730 H716 0.960 . S
C730 H717 0.961 . S
C730 H718 0.959 . S
C730 C728 1.561 . S
C731 C728 1.526 . S
C731 C732 1.396 . S
C731 C736 1.390 . S
C732 C726 1.465 . S
C732 C731 1.396 . S
C732 C733 1.399 . S
C733 H719 0.929 . S
C733 C732 1.399 . S
C733 C734 1.385 . S
C734 H720 0.931 . S
C734 C733 1.385 . S
C734 C735 1.389 . S
C735 C734 1.389 . S
C735 C736 1.387 . S
C736 H721 0.930 . S
C736 C731 1.390 . S
C736 C735 1.387 . S
H737 C749 0.930 . S
H738 C751 0.930 . S
H739 C752 0.930 . S
H740 C756 0.959 . S
H741 C756 0.959 . S
H742 C756 0.961 . S
H743 C757 0.960 . S
H744 C757 0.961 . S
H745 C757 0.959 . S
H746 C760 0.929 . S
H747 C761 0.931 . S
H748 C763 0.930 . S
C749 H737 0.930 . S
C749 C750 1.399 . S
C749 C754 1.399 . S
C750 C749 1.399 . S
C750 C751 1.376 . S
C751 H738 0.930 . S
C751 C750 1.376 . S
C751 C752 1.388 . S
C752 H739 0.930 . S
C752 C751 1.388 . S
C752 C753 1.390 . S
C753 C752 1.390 . S
C753 C754 1.394 . S
C753 C759 1.465 . S
C754 C749 1.399 . S
C754 C753 1.394 . S
C754 C755 1.516 . S
C755 C754 1.516 . S
C755 C756 1.502 . S
C755 C757 1.561 . S
C755 C758 1.526 . S
C756 H740 0.959 . S
C756 H741 0.959 . S
C756 H742 0.961 . S
C756 C755 1.502 . S
C757 H743 0.960 . S
C757 H744 0.961 . S
C757 H745 0.959 . S
C757 C755 1.561 . S
C758 C755 1.526 . S
C758 C759 1.396 . S
C758 C763 1.390 . S
C759 C753 1.465 . S
C759 C758 1.396 . S
C759 C760 1.399 . S
C760 H746 0.929 . S
C760 C759 1.399 . S
C760 C761 1.385 . S
C761 H747 0.931 . S
C761 C760 1.385 . S
C761 C762 1.389 . S
C762 C761 1.389 . S
C762 C763 1.387 . S
C763 H748 0.930 . S
C763 C758 1.390 . S
C763 C762 1.387 . S
H764 C776 0.930 . S
H765 C778 0.930 . S
H766 C779 0.930 . S
H767 C783 0.959 . S
H768 C783 0.959 . S
H769 C783 0.961 . S
H770 C784 0.960 . S
H771 C784 0.961 . S
H772 C784 0.959 . S
H773 C787 0.929 . S
H774 C788 0.931 . S
H775 C790 0.930 . S
C776 H764 0.930 . S
C776 C777 1.399 . S
C776 C781 1.399 . S
C777 C776 1.399 . S
C777 C778 1.376 . S
C778 H765 0.930 . S
C778 C777 1.376 . S
C778 C779 1.388 . S
C779 H766 0.930 . S
C779 C778 1.388 . S
C779 C780 1.390 . S
C780 C779 1.390 . S
C780 C781 1.394 . S
C780 C786 1.465 . S
C781 C776 1.399 . S
C781 C780 1.394 . S
C781 C782 1.516 . S
C782 C781 1.516 . S
C782 C783 1.502 . S
C782 C784 1.561 . S
C782 C785 1.526 . S
C783 H767 0.959 . S
C783 H768 0.959 . S
C783 H769 0.961 . S
C783 C782 1.502 . S
C784 H770 0.960 . S
C784 H771 0.961 . S
C784 H772 0.959 . S
C784 C782 1.561 . S
C785 C782 1.526 . S
C785 C786 1.396 . S
C785 C790 1.390 . S
C786 C780 1.465 . S
C786 C785 1.396 . S
C786 C787 1.399 . S
C787 H773 0.929 . S
C787 C786 1.399 . S
C787 C788 1.385 . S
C788 H774 0.931 . S
C788 C787 1.385 . S
C788 C789 1.389 . S
C789 C788 1.389 . S
C789 C790 1.387 . S
C790 H775 0.930 . S
C790 C785 1.390 . S
C790 C789 1.387 . S
H791 C803 0.930 . S
H792 C805 0.930 . S
H793 C806 0.930 . S
H794 C810 0.959 . S
H795 C810 0.959 . S
H796 C810 0.961 . S
H797 C811 0.960 . S
H798 C811 0.961 . S
H799 C811 0.959 . S
H800 C814 0.929 . S
H801 C815 0.931 . S
H802 C817 0.930 . S
C803 H791 0.930 . S
C803 C804 1.399 . S
C803 C808 1.399 . S
C804 C803 1.399 . S
C804 C805 1.376 . S
C805 H792 0.930 . S
C805 C804 1.376 . S
C805 C806 1.388 . S
C806 H793 0.930 . S
C806 C805 1.388 . S
C806 C807 1.390 . S
C807 C806 1.390 . S
C807 C808 1.394 . S
C807 C813 1.465 . S
C808 C803 1.399 . S
C808 C807 1.394 . S
C808 C809 1.516 . S
C809 C808 1.516 . S
C809 C810 1.502 . S
C809 C811 1.561 . S
C809 C812 1.526 . S
C810 H794 0.959 . S
C810 H795 0.959 . S
C810 H796 0.961 . S
C810 C809 1.502 . S
C811 H797 0.960 . S
C811 H798 0.961 . S
C811 H799 0.959 . S
C811 C809 1.561 . S
C812 C809 1.526 . S
C812 C813 1.396 . S
C812 C817 1.390 . S
C813 C807 1.465 . S
C813 C812 1.396 . S
C813 C814 1.399 . S
C814 H800 0.929 . S
C814 C813 1.399 . S
C814 C815 1.385 . S
C815 H801 0.931 . S
C815 C814 1.385 . S
C815 C816 1.389 . S
C816 C815 1.389 . S
C816 C817 1.387 . S
C817 H802 0.930 . S
C817 C812 1.390 . S
C817 C816 1.387 . S
H818 C830 0.930 . S
H819 C832 0.930 . S
H820 C833 0.930 . S
H821 C837 0.959 . S
H822 C837 0.959 . S
H823 C837 0.961 . S
H824 C838 0.960 . S
H825 C838 0.961 . S
H826 C838 0.959 . S
H827 C841 0.929 . S
H828 C842 0.931 . S
H829 C844 0.930 . S
C830 H818 0.930 . S
C830 C831 1.399 . S
C830 C835 1.399 . S
C831 C830 1.399 . S
C831 C832 1.376 . S
C832 H819 0.930 . S
C832 C831 1.376 . S
C832 C833 1.388 . S
C833 H820 0.930 . S
C833 C832 1.388 . S
C833 C834 1.390 . S
C834 C833 1.390 . S
C834 C835 1.394 . S
C834 C840 1.465 . S
C835 C830 1.399 . S
C835 C834 1.394 . S
C835 C836 1.516 . S
C836 C835 1.516 . S
C836 C837 1.502 . S
C836 C838 1.561 . S
C836 C839 1.526 . S
C837 H821 0.959 . S
C837 H822 0.959 . S
C837 H823 0.961 . S
C837 C836 1.502 . S
C838 H824 0.960 . S
C838 H825 0.961 . S
C838 H826 0.959 . S
C838 C836 1.561 . S
C839 C836 1.526 . S
C839 C840 1.396 . S
C839 C844 1.390 . S
C840 C834 1.465 . S
C840 C839 1.396 . S
C840 C841 1.399 . S
C841 H827 0.929 . S
C841 C840 1.399 . S
C841 C842 1.385 . S
C842 H828 0.931 . S
C842 C841 1.385 . S
C842 C843 1.389 . S
C843 C842 1.389 . S
C843 C844 1.387 . S
C844 H829 0.930 . S
C844 C839 1.390 . S
C844 C843 1.387 . S
H845 C857 0.930 . S
H846 C859 0.930 . S
H847 C860 0.930 . S
H848 C864 0.959 . S
H849 C864 0.959 . S
H850 C864 0.961 . S
H851 C865 0.960 . S
H852 C865 0.961 . S
H853 C865 0.959 . S
H854 C868 0.929 . S
H855 C869 0.931 . S
H856 C871 0.930 . S
C857 H845 0.930 . S
C857 C858 1.399 . S
C857 C862 1.399 . S
C858 C857 1.399 . S
C858 C859 1.376 . S
C859 H846 0.930 . S
C859 C858 1.376 . S
C859 C860 1.388 . S
C860 H847 0.930 . S
C860 C859 1.388 . S
C860 C861 1.390 . S
C861 C860 1.390 . S
C861 C862 1.394 . S
C861 C867 1.465 . S
C862 C857 1.399 . S
C862 C861 1.394 . S
C862 C863 1.516 . S
C863 C862 1.516 . S
C863 C864 1.502 . S
C863 C865 1.561 . S
C863 C866 1.526 . S
C864 H848 0.959 . S
C864 H849 0.959 . S
C864 H850 0.961 . S
C864 C863 1.502 . S
C865 H851 0.960 . S
C865 H852 0.961 . S
C865 H853 0.959 . S
C865 C863 1.561 . S
C866 C863 1.526 . S
C866 C867 1.396 . S
C866 C871 1.390 . S
C867 C861 1.465 . S
C867 C866 1.396 . S
C867 C868 1.399 . S
C868 H854 0.929 . S
C868 C867 1.399 . S
C868 C869 1.385 . S
C869 H855 0.931 . S
C869 C868 1.385 . S
C869 C870 1.389 . S
C870 C869 1.389 . S
C870 C871 1.387 . S
C871 H856 0.930 . S
C871 C866 1.390 . S
C871 C870 1.387 . S
H872 C884 0.930 . S
H873 C886 0.930 . S
H874 C887 0.930 . S
H875 C891 0.959 . S
H876 C891 0.959 . S
H877 C891 0.961 . S
H878 C892 0.960 1_565 S
H879 C892 0.961 . S
H880 C892 0.959 . S
H881 C895 0.929 1_655 S
H882 C896 0.931 . S
H883 C898 0.930 . S
C884 H872 0.930 . S
C884 C885 1.399 . S
C884 C889 1.399 . S
C885 C884 1.399 . S
C885 C886 1.376 . S
C886 H873 0.930 . S
C886 C885 1.376 . S
C886 C887 1.388 . S
C887 H874 0.930 . S
C887 C886 1.388 . S
C887 C888 1.390 . S
C888 C887 1.390 . S
C888 C889 1.394 . S
C888 C894 1.465 1_665 S
C889 C884 1.399 . S
C889 C888 1.394 . S
C889 C890 1.516 1_655 S
C890 C889 1.516 1_455 S
C890 C891 1.502 . S
C890 C892 1.561 1_465 S
C890 C893 1.526 1_565 S
C891 H875 0.959 . S
C891 H876 0.959 . S
C891 H877 0.961 . S
C891 C890 1.502 . S
C892 H878 0.960 1_545 S
C892 H879 0.961 . S
C892 H880 0.959 . S
C892 C890 1.561 1_645 S
C893 C890 1.526 1_545 S
C893 C894 1.396 . S
C893 C898 1.390 . S
C894 C888 1.465 1_445 S
C894 C893 1.396 . S
C894 C895 1.399 . S
C895 H881 0.929 1_455 S
C895 C894 1.399 . S
C895 C896 1.385 . S
C896 H882 0.931 . S
C896 C895 1.385 . S
C896 C897 1.389 . S
C897 C896 1.389 . S
C897 C898 1.387 . S
C898 H883 0.930 . S
C898 C893 1.390 . S
C898 C897 1.387 . S
H899 C911 0.930 . S
H900 C913 0.930 . S
H901 C914 0.930 . S
H902 C918 0.959 . S
H903 C918 0.959 . S
H904 C918 0.961 1_655 S
H905 C919 0.960 . S
H906 C919 0.961 1_455 S
H907 C919 0.959 . S
H908 C922 0.929 . S
H909 C923 0.931 . S
H910 C925 0.930 . S
C911 H899 0.930 . S
C911 C912 1.399 . S
C911 C916 1.399 . S
C912 C911 1.399 . S
C912 C913 1.376 . S
C913 H900 0.930 . S
C913 C912 1.376 . S
C913 C914 1.388 . S
C914 H901 0.930 . S
C914 C913 1.388 . S
C914 C915 1.390 . S
C915 C914 1.390 . S
C915 C916 1.394 . S
C915 C921 1.465 1_645 S
C916 C911 1.399 . S
C916 C915 1.394 . S
C916 C917 1.527 1_545 S
C917 C916 1.527 1_565 S
C917 C918 1.496 1_665 S
C917 C919 1.567 . S
C917 C920 1.515 1_655 S
C918 H902 0.959 . S
C918 H903 0.959 . S
C918 H904 0.961 1_455 S
C918 C917 1.496 1_445 S
C919 H905 0.960 . S
C919 H906 0.961 1_655 S
C919 H907 0.959 . S
C919 C917 1.567 . S
C920 C917 1.515 1_455 S
C920 C921 1.396 . S
C920 C925 1.390 . S
C921 C915 1.465 1_465 S
C921 C920 1.396 . S
C921 C922 1.399 . S
C922 H908 0.929 . S
C922 C921 1.399 . S
C922 C923 1.385 . S
C923 H909 0.931 . S
C923 C922 1.385 . S
C923 C924 1.389 . S
C924 C923 1.389 . S
C924 C925 1.387 . S
C925 H910 0.930 . S
C925 C920 1.390 . S
C925 C924 1.387 . S
H926 C938 0.930 . S
H927 C940 0.964 . S
H928 C941 0.930 1_654 S
H929 C945 0.959 . S
H930 C945 0.959 . S
H931 C945 0.961 . S
H932 C946 0.960 . S
H933 C946 0.961 . S
H934 C946 0.959 . S
H935 C949 0.929 1_554 S
H936 C950 0.924 1_554 S
H937 C952 0.930 . S
C938 H926 0.930 . S
C938 C939 1.399 . S
C938 C943 1.399 . S
C939 C938 1.399 . S
C939 C940 1.376 . S
C940 H927 0.964 . S
C940 C939 1.376 . S
C940 C941 1.388 . S
C941 H928 0.930 1_456 S
C941 C940 1.388 . S
C941 C942 1.389 1_455 S
C942 C941 1.389 1_655 S
C942 C943 1.387 1_655 S
C942 C948 1.471 . S
C943 C938 1.399 . S
C943 C942 1.387 1_455 S
C943 C944 1.516 . S
C944 C943 1.516 . S
C944 C945 1.502 . S
C944 C946 1.561 1_455 S
C944 C947 1.526 1_455 S
C945 H929 0.959 . S
C945 H930 0.959 . S
C945 H931 0.961 . S
C945 C944 1.502 . S
C946 H932 0.960 . S
C946 H933 0.961 . S
C946 H934 0.959 . S
C946 C944 1.561 1_655 S
C947 C944 1.526 1_655 S
C947 C948 1.396 . S
C947 C952 1.390 . S
C948 C942 1.471 . S
C948 C947 1.396 . S
C948 C949 1.399 . S
C949 H935 0.929 1_556 S
C949 C948 1.399 . S
C949 C950 1.385 . S
C950 H936 0.924 1_556 S
C950 C949 1.385 . S
C950 C951 1.389 . S
C951 C950 1.389 . S
C951 C952 1.387 . S
C952 H937 0.930 . S
C952 C947 1.390 . S
C952 C951 1.387 . S
H953 C965 0.930 . S
H954 C967 0.924 1_556 S
H955 C968 0.930 1_556 S
H956 C972 0.959 . S
H957 C972 0.959 . S
H958 C972 0.961 . S
H959 C973 0.960 . S
H960 C973 0.961 . S
H961 C973 0.959 . S
H962 C976 0.929 1_566 S
H963 C977 0.931 1_556 S
H964 C979 0.930 . S
C965 H953 0.930 . S
C965 C966 1.399 . S
C965 C970 1.399 . S
C966 C965 1.399 . S
C966 C967 1.376 . S
C967 H954 0.924 1_554 S
C967 C966 1.376 . S
C967 C968 1.388 . S
C968 H955 0.930 1_554 S
C968 C967 1.388 . S
C968 C969 1.390 . S
C969 C968 1.390 . S
C969 C970 1.394 . S
C969 C975 1.465 1_565 S
C970 C965 1.399 . S
C970 C969 1.394 . S
C970 C971 1.516 1_565 S
C971 C970 1.516 1_545 S
C971 C972 1.502 . S
C971 C973 1.561 1_545 S
C971 C974 1.526 . S
C972 H956 0.959 . S
C972 H957 0.959 . S
C972 H958 0.961 . S
C972 C971 1.502 . S
C973 H959 0.960 . S
C973 H960 0.961 . S
C973 H961 0.959 . S
C973 C971 1.561 1_565 S
C974 C971 1.526 . S
C974 C975 1.396 . S
C974 C979 1.390 . S
C975 C969 1.465 1_545 S
C975 C974 1.396 . S
C975 C976 1.399 . S
C976 H962 0.929 1_544 S
C976 C975 1.399 . S
C976 C977 1.385 . S
C977 H963 0.931 1_554 S
C977 C976 1.385 . S
C977 C978 1.389 . S
C978 C977 1.389 . S
C978 C979 1.387 . S
C979 H964 0.930 . S
C979 C974 1.390 . S
C979 C978 1.387 . S
H980 C992 0.930 . S
H981 C994 0.930 . S
H982 C995 0.930 . S
H983 C999 0.959 . S
H984 C999 0.959 . S
H985 C999 0.961 . S
H986 C1000 0.960 . S
H987 C1000 0.961 . S
H988 C1000 0.959 . S
H989 C1003 0.929 . S
H990 C1004 0.931 . S
H991 C1006 0.930 . S
C992 H980 0.930 . S
C992 C993 1.399 . S
C992 C997 1.399 . S
C993 C992 1.399 . S
C993 C994 1.376 . S
C994 H981 0.930 . S
C994 C993 1.376 . S
C994 C995 1.388 . S
C995 H982 0.930 . S
C995 C994 1.388 . S
C995 C996 1.390 . S
C996 C995 1.390 . S
C996 C997 1.394 . S
C996 C1002 1.465 . S
C997 C992 1.399 . S
C997 C996 1.394 . S
C997 C998 1.516 . S
C998 C997 1.516 . S
C998 C999 1.502 . S
C998 C1000 1.561 . S
C998 C1001 1.526 . S
C999 H983 0.959 . S
C999 H984 0.959 . S
C999 H985 0.961 . S
C999 C998 1.502 . S
C1000 H986 0.960 . S
C1000 H987 0.961 . S
C1000 H988 0.959 . S
C1000 C998 1.561 . S
C1001 C998 1.526 . S
C1001 C1002 1.396 . S
C1001 C1006 1.390 . S
C1002 C996 1.465 . S
C1002 C1001 1.396 . S
C1002 C1003 1.399 . S
C1003 H989 0.929 . S
C1003 C1002 1.399 . S
C1003 C1004 1.385 . S
C1004 H990 0.931 . S
C1004 C1003 1.385 . S
C1004 C1005 1.389 . S
C1005 C1004 1.389 . S
C1005 C1006 1.387 . S
C1006 H991 0.930 . S
C1006 C1001 1.390 . S
C1006 C1005 1.387 . S
H1007 C1019 0.930 . S
H1008 C1021 0.930 . S
H1009 C1022 0.930 . S
H1010 C1026 0.959 . S
H1011 C1026 0.959 . S
H1012 C1026 0.961 . S
H1013 C1027 0.960 . S
H1014 C1027 0.961 . S
H1015 C1027 0.959 . S
H1016 C1030 0.929 . S
H1017 C1031 0.931 . S
H1018 C1033 0.930 . S
C1019 H1007 0.930 . S
C1019 C1020 1.399 . S
C1019 C1024 1.399 . S
C1020 C1019 1.399 . S
C1020 C1021 1.376 . S
C1021 H1008 0.930 . S
C1021 C1020 1.376 . S
C1021 C1022 1.388 . S
C1022 H1009 0.930 . S
C1022 C1021 1.388 . S
C1022 C1023 1.390 . S
C1023 C1022 1.390 . S
C1023 C1024 1.394 . S
C1023 C1029 1.465 . S
C1024 C1019 1.399 . S
C1024 C1023 1.394 . S
C1024 C1025 1.516 . S
C1025 C1024 1.516 . S
C1025 C1026 1.502 . S
C1025 C1027 1.561 . S
C1025 C1028 1.526 . S
C1026 H1010 0.959 . S
C1026 H1011 0.959 . S
C1026 H1012 0.961 . S
C1026 C1025 1.502 . S
C1027 H1013 0.960 . S
C1027 H1014 0.961 . S
C1027 H1015 0.959 . S
C1027 C1025 1.561 . S
C1028 C1025 1.526 . S
C1028 C1029 1.396 . S
C1028 C1033 1.390 . S
C1029 C1023 1.465 . S
C1029 C1028 1.396 . S
C1029 C1030 1.399 . S
C1030 H1016 0.929 . S
C1030 C1029 1.399 . S
C1030 C1031 1.385 . S
C1031 H1017 0.931 . S
C1031 C1030 1.385 . S
C1031 C1032 1.389 . S
C1032 C1031 1.389 . S
C1032 C1033 1.387 . S
C1033 H1018 0.930 . S
C1033 C1028 1.390 . S
C1033 C1032 1.387 . S
H1034 C1046 0.930 . S
H1035 C1048 0.930 . S
H1036 C1049 0.930 . S
H1037 C1053 0.959 . S
H1038 C1053 0.959 . S
H1039 C1053 0.961 . S
H1040 C1054 0.960 1_545 S
H1041 C1054 0.961 . S
H1042 C1054 0.959 . S
H1043 C1057 0.929 . S
H1044 C1058 0.931 . S
H1045 C1060 0.930 . S
C1046 H1034 0.930 . S
C1046 C1047 1.399 . S
C1046 C1051 1.399 . S
C1047 C1046 1.399 . S
C1047 C1048 1.376 . S
C1048 H1035 0.930 . S
C1048 C1047 1.376 . S
C1048 C1049 1.388 . S
C1049 H1036 0.930 . S
C1049 C1048 1.388 . S
C1049 C1050 1.390 . S
C1050 C1049 1.390 . S
C1050 C1051 1.394 . S
C1050 C1056 1.465 1_545 S
C1051 C1046 1.399 . S
C1051 C1050 1.394 . S
C1051 C1052 1.516 . S
C1052 C1051 1.516 . S
C1052 C1053 1.502 . S
C1052 C1054 1.561 1_545 S
C1052 C1055 1.526 1_545 S
C1053 H1037 0.959 . S
C1053 H1038 0.959 . S
C1053 H1039 0.961 . S
C1053 C1052 1.502 . S
C1054 H1040 0.960 1_565 S
C1054 H1041 0.961 . S
C1054 H1042 0.959 . S
C1054 C1052 1.561 1_565 S
C1055 C1052 1.526 1_565 S
C1055 C1056 1.396 . S
C1055 C1060 1.390 . S
C1056 C1050 1.465 1_565 S
C1056 C1055 1.396 . S
C1056 C1057 1.399 . S
C1057 H1043 0.929 . S
C1057 C1056 1.399 . S
C1057 C1058 1.385 . S
C1058 H1044 0.931 . S
C1058 C1057 1.385 . S
C1058 C1059 1.389 . S
C1059 C1058 1.389 . S
C1059 C1060 1.387 . S
C1060 H1045 0.930 . S
C1060 C1055 1.390 . S
C1060 C1059 1.387 . S
H1061 C1073 0.930 . S
H1062 C1075 0.930 . S
H1063 C1076 0.930 . S
H1064 C1080 0.959 . S
H1065 C1080 0.959 . S
H1066 C1080 0.961 . S
H1067 C1081 0.960 . S
H1068 C1081 0.961 1_455 S
H1069 C1081 0.959 1_455 S
H1070 C1084 0.929 . S
H1071 C1085 0.931 . S
H1072 C1087 0.930 . S
C1073 H1061 0.930 . S
C1073 C1074 1.399 . S
C1073 C1078 1.399 . S
C1074 C1073 1.399 . S
C1074 C1075 1.376 . S
C1075 H1062 0.930 . S
C1075 C1074 1.376 . S
C1075 C1076 1.388 . S
C1076 H1063 0.930 . S
C1076 C1075 1.388 . S
C1076 C1077 1.390 . S
C1077 C1076 1.390 . S
C1077 C1078 1.394 . S
C1077 C1083 1.465 1_655 S
C1078 C1073 1.399 . S
C1078 C1077 1.394 . S
C1078 C1079 1.516 . S
C1079 C1078 1.516 . S
C1079 C1080 1.502 . S
C1079 C1081 1.561 . S
C1079 C1082 1.526 1_655 S
C1080 H1064 0.959 . S
C1080 H1065 0.959 . S
C1080 H1066 0.961 . S
C1080 C1079 1.502 . S
C1081 H1067 0.960 . S
C1081 H1068 0.961 1_655 S
C1081 H1069 0.959 1_655 S
C1081 C1079 1.561 . S
C1082 C1079 1.526 1_455 S
C1082 C1083 1.396 . S
C1082 C1087 1.390 . S
C1083 C1077 1.465 1_455 S
C1083 C1082 1.396 . S
C1083 C1084 1.399 . S
C1084 H1070 0.929 . S
C1084 C1083 1.399 . S
C1084 C1085 1.385 . S
C1085 H1071 0.931 . S
C1085 C1084 1.385 . S
C1085 C1086 1.389 . S
C1086 C1085 1.389 . S
C1086 C1087 1.387 . S
C1087 H1072 0.930 . S
C1087 C1082 1.390 . S
C1087 C1086 1.387 . S
C237 C8 1.238 . S
C249 C163 1.308 . S
C264 C121 1.338 . S
C276 C22 1.315 . S
C291 C135 1.278 . S
C303 C36 1.243 . S
C318 C149 1.344 . S
C330 C50 1.301 . S
C345 C79 1.346 1_545 S
C357 C64 1.309 . S
C372 C78 1.230 . S
C384 C93 1.319 . S
C399 C92 1.235 . S
C411 C107 1.308 . S
C426 C106 1.237 . S
C438 C65 1.328 . S
C453 C120 1.322 . S
C465 C51 1.320 1_565 S
C480 C9 1.291 1_655 S
C492 C134 1.238 . S
C507 C23 1.337 1_545 S
C519 C148 1.327 . S
C534 C37 1.302 . S
C546 C162 1.232 . S
C561 C191 1.291 . S
C573 C176 1.231 . S
C588 C190 1.271 . S
C600 C205 1.344 . S
C615 C219 1.345 . S
C627 C204 1.307 . S
C642 C177 1.291 . S
C654 C218 1.313 . S
C669 C202 1.480 . S
C681 C6 1.492 . S
C696 C216 1.479 . S
C708 C20 1.489 . S
C723 C174 1.466 . S
C735 C34 1.449 . S
C750 C48 1.448 . S
C762 C188 1.451 . S
C777 C62 1.466 . S
C789 C146 1.449 . S
C804 C160 1.474 . S
C816 C76 1.486 . S
C831 C90 1.474 . S
C843 C118 1.492 . S
C858 C104 1.450 . S
C870 C132 1.460 . S
C885 C35 1.416 . S
C897 C7 1.406 . S
C912 C49 1.405 . S
C924 C21 1.415 . S
C939 C63 1.377 . S
C951 C91 1.388 . S
C966 C77 1.392 . S
C978 C105 1.377 . S
C993 C147 1.376 . S
C1005 C119 1.382 . S
C1020 C133 1.402 . S
C1032 C161 1.378 . S
C1047 C203 1.416 . S
C1059 C175 1.407 . S
C1074 C189 1.400 . S
C1086 C217 1.377 . S
