# Generated by pormake.
# Topology lcy-a, (4)-cn, num edge types: 1
# Building blocks:
#     Node 0, Type 0, BuildingBlock: GALJAG_clean_sbu_0, # of connection points: 4
#     Node 1, Type 0, BuildingBlock: GALJAG_clean_sbu_0, # of connection points: 4
#     Node 2, Type 0, BuildingBlock: GALJAG_clean_sbu_0, # of connection points: 4
#     Node 3, Type 0, BuildingBlock: GALJAG_clean_sbu_0, # of connection points: 4
#     Node 4, Type 0, BuildingBlock: GALJAG_clean_sbu_0, # of connection points: 4
#     Node 5, Type 0, BuildingBlock: GALJAG_clean_sbu_0, # of connection points: 4
#     Node 6, Type 0, BuildingBlock: GALJAG_clean_sbu_0, # of connection points: 4
#     Node 7, Type 0, BuildingBlock: GALJAG_clean_sbu_0, # of connection points: 4
#     Node 8, Type 0, BuildingBlock: GALJAG_clean_sbu_0, # of connection points: 4
#     Node 9, Type 0, BuildingBlock: GALJAG_clean_sbu_0, # of connection points: 4
#     Node 10, Type 0, BuildingBlock: GALJAG_clean_sbu_0, # of connection points: 4
#     Node 11, Type 0, BuildingBlock: GALJAG_clean_sbu_0, # of connection points: 4
#     Node 12, Type 0, BuildingBlock: GALJAG_clean_sbu_0, # of connection points: 4
#     Node 13, Type 0, BuildingBlock: GALJAG_clean_sbu_0, # of connection points: 4
#     Node 14, Type 0, BuildingBlock: GALJAG_clean_sbu_0, # of connection points: 4
#     Node 15, Type 0, BuildingBlock: GALJAG_clean_sbu_0, # of connection points: 4
#     Node 16, Type 0, BuildingBlock: GALJAG_clean_sbu_0, # of connection points: 4
#     Node 17, Type 0, BuildingBlock: GALJAG_clean_sbu_0, # of connection points: 4
#     Node 18, Type 0, BuildingBlock: GALJAG_clean_sbu_0, # of connection points: 4
#     Node 19, Type 0, BuildingBlock: GALJAG_clean_sbu_0, # of connection points: 4
#     Node 20, Type 0, BuildingBlock: GALJAG_clean_sbu_0, # of connection points: 4
#     Node 21, Type 0, BuildingBlock: GALJAG_clean_sbu_0, # of connection points: 4
#     Node 22, Type 0, BuildingBlock: GALJAG_clean_sbu_0, # of connection points: 4
#     Node 23, Type 0, BuildingBlock: GALJAG_clean_sbu_0, # of connection points: 4
#     Edge 24, Type (0, 0), BuildingBlock: UVAHIK_clean_linker_0, # of connection points: 2
#     Edge 25, Type (0, 0), BuildingBlock: UVAHIK_clean_linker_0, # of connection points: 2
#     Edge 26, Type (0, 0), BuildingBlock: UVAHIK_clean_linker_0, # of connection points: 2
#     Edge 27, Type (0, 0), BuildingBlock: UVAHIK_clean_linker_0, # of connection points: 2
#     Edge 28, Type (0, 0), BuildingBlock: UVAHIK_clean_linker_0, # of connection points: 2
#     Edge 29, Type (0, 0), BuildingBlock: UVAHIK_clean_linker_0, # of connection points: 2
#     Edge 30, Type (0, 0), BuildingBlock: UVAHIK_clean_linker_0, # of connection points: 2
#     Edge 31, Type (0, 0), BuildingBlock: UVAHIK_clean_linker_0, # of connection points: 2
#     Edge 32, Type (0, 0), BuildingBlock: UVAHIK_clean_linker_0, # of connection points: 2
#     Edge 33, Type (0, 0), BuildingBlock: UVAHIK_clean_linker_0, # of connection points: 2
#     Edge 34, Type (0, 0), BuildingBlock: UVAHIK_clean_linker_0, # of connection points: 2
#     Edge 35, Type (0, 0), BuildingBlock: UVAHIK_clean_linker_0, # of connection points: 2
#     Edge 36, Type (0, 0), BuildingBlock: UVAHIK_clean_linker_0, # of connection points: 2
#     Edge 37, Type (0, 0), BuildingBlock: UVAHIK_clean_linker_0, # of connection points: 2
#     Edge 38, Type (0, 0), BuildingBlock: UVAHIK_clean_linker_0, # of connection points: 2
#     Edge 39, Type (0, 0), BuildingBlock: UVAHIK_clean_linker_0, # of connection points: 2
#     Edge 40, Type (0, 0), BuildingBlock: UVAHIK_clean_linker_0, # of connection points: 2
#     Edge 41, Type (0, 0), BuildingBlock: UVAHIK_clean_linker_0, # of connection points: 2
#     Edge 42, Type (0, 0), BuildingBlock: UVAHIK_clean_linker_0, # of connection points: 2
#     Edge 43, Type (0, 0), BuildingBlock: UVAHIK_clean_linker_0, # of connection points: 2
#     Edge 44, Type (0, 0), BuildingBlock: UVAHIK_clean_linker_0, # of connection points: 2
#     Edge 45, Type (0, 0), BuildingBlock: UVAHIK_clean_linker_0, # of connection points: 2
#     Edge 46, Type (0, 0), BuildingBlock: UVAHIK_clean_linker_0, # of connection points: 2
#     Edge 47, Type (0, 0), BuildingBlock: UVAHIK_clean_linker_0, # of connection points: 2
#     Edge 48, Type (0, 0), BuildingBlock: UVAHIK_clean_linker_0, # of connection points: 2
#     Edge 49, Type (0, 0), BuildingBlock: UVAHIK_clean_linker_0, # of connection points: 2
#     Edge 50, Type (0, 0), BuildingBlock: UVAHIK_clean_linker_0, # of connection points: 2
#     Edge 51, Type (0, 0), BuildingBlock: UVAHIK_clean_linker_0, # of connection points: 2
#     Edge 52, Type (0, 0), BuildingBlock: UVAHIK_clean_linker_0, # of connection points: 2
#     Edge 53, Type (0, 0), BuildingBlock: UVAHIK_clean_linker_0, # of connection points: 2
#     Edge 54, Type (0, 0), BuildingBlock: UVAHIK_clean_linker_0, # of connection points: 2
#     Edge 55, Type (0, 0), BuildingBlock: UVAHIK_clean_linker_0, # of connection points: 2
#     Edge 56, Type (0, 0), BuildingBlock: UVAHIK_clean_linker_0, # of connection points: 2
#     Edge 57, Type (0, 0), BuildingBlock: UVAHIK_clean_linker_0, # of connection points: 2
#     Edge 58, Type (0, 0), BuildingBlock: UVAHIK_clean_linker_0, # of connection points: 2
#     Edge 59, Type (0, 0), BuildingBlock: UVAHIK_clean_linker_0, # of connection points: 2
#     Edge 60, Type (0, 0), BuildingBlock: UVAHIK_clean_linker_0, # of connection points: 2
#     Edge 61, Type (0, 0), BuildingBlock: UVAHIK_clean_linker_0, # of connection points: 2
#     Edge 62, Type (0, 0), BuildingBlock: UVAHIK_clean_linker_0, # of connection points: 2
#     Edge 63, Type (0, 0), BuildingBlock: UVAHIK_clean_linker_0, # of connection points: 2
#     Edge 64, Type (0, 0), BuildingBlock: UVAHIK_clean_linker_0, # of connection points: 2
#     Edge 65, Type (0, 0), BuildingBlock: UVAHIK_clean_linker_0, # of connection points: 2
#     Edge 66, Type (0, 0), BuildingBlock: UVAHIK_clean_linker_0, # of connection points: 2
#     Edge 67, Type (0, 0), BuildingBlock: UVAHIK_clean_linker_0, # of connection points: 2
#     Edge 68, Type (0, 0), BuildingBlock: UVAHIK_clean_linker_0, # of connection points: 2
#     Edge 69, Type (0, 0), BuildingBlock: UVAHIK_clean_linker_0, # of connection points: 2
#     Edge 70, Type (0, 0), BuildingBlock: UVAHIK_clean_linker_0, # of connection points: 2
#     Edge 71, Type (0, 0), BuildingBlock: UVAHIK_clean_linker_0, # of connection points: 2
# Relax obj value: 0.436
# Max RMSD: 0.150
# Mean RMSD: 0.150
data_MOF--net-lcy-a--node1-GALJAG_clean_sbu_0--edge1-UVAHIK_clean_linker_0
_symmetry_space_group_name_H-M    P1
_symmetry_Int_Tables_number       1
_symmetry_cell_setting            triclinic
loop_
_symmetry_equiv_pos_as_xyz
'x, y, z'
_cell_length_a     71.925816
_cell_length_b     71.935368
_cell_length_c     71.907848
_cell_angle_alpha  90.035559
_cell_angle_beta   89.994264
_cell_angle_gamma 90.007365
loop_
_atom_site_label
_atom_site_type_symbol
_atom_site_fract_x
_atom_site_fract_y
_atom_site_fract_z
_atom_type_partial_charge
In0 In 0.19237 0.30264 0.38727 0.0
O1 O 0.21183 0.30606 0.41189 0.0
O2 O 0.20548 0.33025 0.39619 0.0
C3 C 0.21617 0.27488 0.37901 0.0
C4 C 0.16289 0.29007 0.40669 0.0
C5 C 0.18067 0.31997 0.35608 0.0
O6 O 0.21986 0.29174 0.37582 0.0
O7 O 0.20035 0.27202 0.38601 0.0
O8 O 0.18879 0.30446 0.35593 0.0
O9 O 0.17805 0.32668 0.37207 0.0
C10 C 0.21416 0.32329 0.40976 0.0
O11 O 0.17326 0.30292 0.41249 0.0
O12 O 0.1667 0.28438 0.39057 0.0
In13 In 0.9553 0.94491 0.64046 0.0
O14 O 0.95292 0.92408 0.66434 0.0
O15 O 0.97454 0.92023 0.6448 0.0
C16 C 0.93392 0.9359 0.61105 0.0
C17 C 0.93567 0.96936 0.66096 0.0
C18 C 0.98631 0.96423 0.63173 0.0
O19 O 0.94821 0.94596 0.60987 0.0
O20 O 0.93036 0.93002 0.6272 0.0
O21 O 0.97483 0.96963 0.64381 0.0
O22 O 0.982 0.94925 0.62373 0.0
C23 C 0.96714 0.91499 0.65974 0.0
O24 O 0.93135 0.96543 0.64439 0.0
O25 O 0.94988 0.96107 0.66704 0.0
In26 In 0.31879 0.68643 0.89021 0.0
O27 O 0.345 0.68378 0.90804 0.0
O28 O 0.34121 0.70847 0.89251 0.0
C29 C 0.32464 0.67187 0.85601 0.0
C30 C 0.30437 0.66611 0.91804 0.0
C31 C 0.2894 0.70936 0.88598 0.0
O32 O 0.32446 0.68907 0.85918 0.0
O33 O 0.32283 0.66189 0.87029 0.0
O34 O 0.28838 0.69207 0.8833 0.0
O35 O 0.30527 0.71514 0.89064 0.0
C36 C 0.35083 0.69987 0.90431 0.0
O37 O 0.30587 0.68358 0.91887 0.0
O38 O 0.31043 0.65882 0.90323 0.0
In39 In 0.55214 0.06342 0.13144 0.0
O40 O 0.55088 0.08659 0.15315 0.0
O41 O 0.52682 0.08153 0.13698 0.0
C42 C 0.57438 0.07357 0.10275 0.0
C43 C 0.57293 0.0443 0.15586 0.0
C44 C 0.52524 0.03916 0.12166 0.0
O45 O 0.55873 0.08095 0.10542 0.0
O46 O 0.57883 0.06162 0.11468 0.0
O47 O 0.53072 0.04121 0.13818 0.0
O48 O 0.5335 0.04921 0.10987 0.0
C49 C 0.53403 0.09038 0.15024 0.0
O50 O 0.56383 0.03652 0.143 0.0
O51 O 0.5718 0.06184 0.1562 0.0
In52 In 0.67413 0.19197 0.59577 0.0
O53 O 0.6908 0.18867 0.5692 0.0
O54 O 0.67586 0.16508 0.57904 0.0
C55 C 0.70543 0.2114 0.60271 0.0
C56 C 0.64479 0.2105 0.58157 0.0
C57 C 0.66628 0.17533 0.62859 0.0
O58 O 0.70429 0.19408 0.60531 0.0
O59 O 0.69081 0.21888 0.59661 0.0
O60 O 0.66676 0.19271 0.62664 0.0
O61 O 0.6687 0.16635 0.61375 0.0
C62 C 0.68655 0.17182 0.56682 0.0
O63 O 0.64894 0.19424 0.57662 0.0
O64 O 0.65453 0.21676 0.59469 0.0
In65 In 0.05089 0.4331 0.85339 0.0
O66 O 0.05692 0.44635 0.82538 0.0
O67 O 0.07678 0.45034 0.84689 0.0
C68 C 0.02564 0.45979 0.8611 0.0
C69 C 0.03641 0.40434 0.83448 0.0
C70 C 0.06706 0.41937 0.88435 0.0
O71 O 0.02144 0.44489 0.85293 0.0
O72 O 0.04252 0.46115 0.86562 0.0
O73 O 0.05085 0.42598 0.88412 0.0
O74 O 0.07491 0.41883 0.86867 0.0
C75 C 0.07209 0.45362 0.8303 0.0
O76 O 0.05201 0.41128 0.83046 0.0
O77 O 0.02897 0.41093 0.84893 0.0
In78 In 0.80341 0.7976 0.10982 0.0
O79 O 0.81781 0.79834 0.08169 0.0
O80 O 0.83083 0.78301 0.10314 0.0
C81 C 0.81604 0.81569 0.14032 0.0
C82 C 0.77687 0.81918 0.09461 0.0
C83 C 0.78463 0.76593 0.11684 0.0
O84 O 0.81724 0.79833 0.13845 0.0
O85 O 0.80916 0.82396 0.12652 0.0
O86 O 0.79072 0.76994 0.10088 0.0
O87 O 0.78779 0.77801 0.12919 0.0
C88 C 0.83097 0.78782 0.0863 0.0
O89 O 0.79396 0.82307 0.09364 0.0
O90 O 0.77312 0.80461 0.10363 0.0
In91 In 0.43565 0.57229 0.35503 0.0
O92 O 0.43382 0.59434 0.33229 0.0
O93 O 0.45523 0.59694 0.35227 0.0
C94 C 0.41707 0.5799 0.38676 0.0
C95 C 0.41669 0.55187 0.33004 0.0
C96 C 0.46331 0.54857 0.36401 0.0
O97 O 0.43328 0.58582 0.38369 0.0
O98 O 0.40998 0.57094 0.37348 0.0
O99 O 0.46425 0.55949 0.35034 0.0
O100 O 0.44836 0.54954 0.37316 0.0
C101 C 0.44816 0.60295 0.33744 0.0
O102 O 0.43319 0.54833 0.33473 0.0
O103 O 0.40952 0.56575 0.3381 0.0
In104 In 0.39719 0.17372 0.31241 0.0
O105 O 0.42222 0.19288 0.3132 0.0
O106 O 0.41549 0.17816 0.33798 0.0
C107 C 0.38593 0.20326 0.29229 0.0
C108 C 0.41184 0.1443 0.29434 0.0
C109 C 0.36612 0.16444 0.33146 0.0
O110 O 0.38306 0.20186 0.30954 0.0
O111 O 0.3946 0.1898 0.28516 0.0
O112 O 0.36742 0.16289 0.31406 0.0
O113 O 0.38093 0.16945 0.33936 0.0
C114 C 0.42609 0.18969 0.33001 0.0
O115 O 0.41767 0.14956 0.31 0.0
O116 O 0.39788 0.15307 0.28851 0.0
In117 In 0.07071 0.14325 0.55772 0.0
O118 O 0.05037 0.16681 0.56257 0.0
O119 O 0.06894 0.1602 0.58461 0.0
C120 C 0.04087 0.13257 0.53758 0.0
C121 C 0.09848 0.1595 0.53861 0.0
C122 C 0.08277 0.11208 0.57473 0.0
O123 O 0.04477 0.12548 0.55314 0.0
O124 O 0.05201 0.14497 0.53221 0.0
O125 O 0.08599 0.11537 0.55781 0.0
O126 O 0.07418 0.12483 0.58313 0.0
C127 C 0.05581 0.17034 0.57886 0.0
O128 O 0.08937 0.14589 0.53243 0.0
O129 O 0.09439 0.16419 0.555 0.0
In130 In 0.09547 0.80361 0.80818 0.0
O131 O 0.07941 0.83099 0.80813 0.0
O132 O 0.09952 0.82694 0.78712 0.0
C133 C 0.12513 0.79736 0.83019 0.0
C134 C 0.06619 0.79343 0.82898 0.0
C135 C 0.09972 0.78135 0.77825 0.0
O136 O 0.12159 0.81335 0.82385 0.0
O137 O 0.11373 0.78492 0.8255 0.0
O138 O 0.08467 0.78244 0.78718 0.0
O139 O 0.11269 0.79135 0.78452 0.0
C140 C 0.0868 0.83709 0.79351 0.0
O141 O 0.06807 0.78865 0.81219 0.0
O142 O 0.07915 0.80347 0.83535 0.0
In143 In 0.44214 0.84682 0.05223 0.0
O144 O 0.46577 0.82635 0.05585 0.0
O145 O 0.44619 0.82864 0.07797 0.0
C146 C 0.46747 0.85576 0.02607 0.0
C147 C 0.41319 0.82774 0.03793 0.0
C148 C 0.43292 0.87907 0.06945 0.0
O149 O 0.46925 0.86038 0.04292 0.0
O150 O 0.45295 0.84665 0.02244 0.0
O151 O 0.42799 0.87529 0.0531 0.0
O152 O 0.44165 0.8662 0.07745 0.0
C153 C 0.46074 0.82095 0.07176 0.0
O154 O 0.42116 0.82298 0.05277 0.0
O155 O 0.41888 0.84286 0.03121 0.0
In156 In 0.8997 0.2992 0.69476 0.0
O157 O 0.91728 0.3252 0.68978 0.0
O158 O 0.89843 0.32554 0.7123 0.0
C159 C 0.87069 0.29157 0.67224 0.0
C160 C 0.92992 0.28416 0.67881 0.0
C161 C 0.89122 0.28256 0.72724 0.0
O162 O 0.87523 0.30809 0.67611 0.0
O163 O 0.88072 0.27932 0.67965 0.0
O164 O 0.90527 0.27813 0.71772 0.0
O165 O 0.88137 0.29531 0.72032 0.0
C166 C 0.91124 0.33382 0.70375 0.0
O167 O 0.92719 0.2837 0.69617 0.0
O168 O 0.9174 0.29229 0.66953 0.0
In169 In 0.93011 0.64558 0.9396 0.0
O170 O 0.90296 0.66224 0.93952 0.0
O171 O 0.91013 0.64731 0.96384 0.0
C172 C 0.92531 0.61571 0.91715 0.0
C173 C 0.94295 0.67794 0.92602 0.0
C174 C 0.95828 0.63501 0.96204 0.0
O175 O 0.91923 0.6162 0.93355 0.0
O176 O 0.93304 0.63047 0.91192 0.0
O177 O 0.96084 0.64013 0.94546 0.0
O178 O 0.94153 0.63492 0.96716 0.0
C179 C 0.89912 0.65854 0.95621 0.0
O180 O 0.94573 0.6729 0.94261 0.0
O181 O 0.93349 0.66673 0.91634 0.0
In182 In 0.60385 0.67949 0.19468 0.0
O183 O 0.57535 0.69205 0.18998 0.0
O184 O 0.59408 0.69178 0.16706 0.0
C185 C 0.6086 0.70822 0.21832 0.0
C186 C 0.58696 0.64958 0.20961 0.0
C187 C 0.63722 0.66995 0.18019 0.0
O188 O 0.60986 0.70995 0.20091 0.0
O189 O 0.60529 0.69193 0.22385 0.0
O190 O 0.63522 0.67684 0.19614 0.0
O191 O 0.62221 0.6672 0.17154 0.0
C192 C 0.57822 0.69624 0.17319 0.0
O193 O 0.58323 0.65538 0.19351 0.0
O194 O 0.60028 0.65789 0.21737 0.0
In195 In 0.55117 0.35533 0.43764 0.0
O196 O 0.53723 0.32712 0.43853 0.0
O197 O 0.54575 0.33735 0.41205 0.0
C198 C 0.52868 0.36439 0.46634 0.0
C199 C 0.5834 0.34223 0.45157 0.0
C200 C 0.55078 0.38539 0.41518 0.0
O201 O 0.52417 0.35272 0.45407 0.0
O202 O 0.54431 0.37191 0.46386 0.0
O203 O 0.56514 0.38058 0.42401 0.0
O204 O 0.53697 0.37488 0.41741 0.0
C205 C 0.53814 0.32441 0.4212 0.0
O206 O 0.57774 0.33797 0.43554 0.0
O207 O 0.57347 0.35401 0.45986 0.0
In208 In 0.29804 0.39868 0.19572 0.0
O209 O 0.29996 0.42489 0.21312 0.0
O210 O 0.32507 0.41401 0.20169 0.0
C211 C 0.26422 0.39434 0.2113 0.0
C212 C 0.29029 0.40853 0.1603 0.0
C213 C 0.31739 0.36825 0.20575 0.0
O214 O 0.2728 0.40964 0.21157 0.0
O215 O 0.27267 0.38134 0.2031 0.0
O216 O 0.31542 0.37265 0.18885 0.0
O217 O 0.3099 0.37925 0.21712 0.0
C218 C 0.31738 0.42644 0.21146 0.0
O219 O 0.30302 0.41604 0.16966 0.0
O220 O 0.28252 0.39508 0.16831 0.0
In221 In 0.80187 0.10754 0.80017 0.0
O222 O 0.82076 0.10403 0.77492 0.0
O223 O 0.81749 0.08099 0.79319 0.0
C224 C 0.77474 0.11517 0.77542 0.0
C225 C 0.78615 0.08803 0.82798 0.0
C226 C 0.81988 0.13721 0.81469 0.0
O227 O 0.77988 0.09885 0.77915 0.0
O228 O 0.78357 0.12776 0.78387 0.0
O229 O 0.80248 0.13539 0.81552 0.0
O230 O 0.8282 0.12375 0.80719 0.0
C231 C 0.82484 0.08735 0.77858 0.0
O232 O 0.80345 0.08782 0.82513 0.0
O233 O 0.77716 0.09877 0.81751 0.0
In234 In 0.14938 0.54536 0.0464 0.0
O235 O 0.17043 0.54985 0.02337 0.0
O236 O 0.16964 0.56967 0.04541 0.0
C237 C 0.14127 0.51501 0.02595 0.0
C238 C 0.1633 0.53097 0.07814 0.0
C239 C 0.11993 0.56855 0.04605 0.0
O240 O 0.15767 0.52082 0.02818 0.0
O241 O 0.12891 0.52469 0.0338 0.0
O242 O 0.12365 0.55866 0.06006 0.0
O243 O 0.13105 0.56677 0.03266 0.0
C244 C 0.17709 0.56454 0.03034 0.0
O245 O 0.16886 0.54613 0.07142 0.0
O246 O 0.14969 0.52391 0.06971 0.0
In247 In 0.69113 0.90042 0.30034 0.0
O248 O 0.66648 0.91974 0.29609 0.0
O249 O 0.68892 0.92107 0.2767 0.0
C250 C 0.72273 0.88958 0.28332 0.0
C251 C 0.7042 0.9165 0.33167 0.0
C252 C 0.66688 0.87187 0.29897 0.0
O253 O 0.71529 0.90519 0.28041 0.0
O254 O 0.71411 0.87934 0.29465 0.0
O255 O 0.6733 0.87767 0.31425 0.0
O256 O 0.67269 0.8804 0.28486 0.0
C257 C 0.67317 0.92714 0.2816 0.0
O258 O 0.69125 0.92341 0.32219 0.0
O259 O 0.70957 0.9008 0.32615 0.0
In260 In 0.35336 0.44562 0.55827 0.0
O261 O 0.33162 0.44452 0.58157 0.0
O262 O 0.34766 0.46902 0.57856 0.0
C263 C 0.38202 0.4236 0.569 0.0
C264 C 0.33147 0.42609 0.53512 0.0
C265 C 0.36258 0.47446 0.53615 0.0
O266 O 0.3808 0.44042 0.57367 0.0
O267 O 0.36835 0.41772 0.55985 0.0
O268 O 0.34606 0.46895 0.53815 0.0
O269 O 0.37454 0.46522 0.54503 0.0
C270 C 0.33458 0.46095 0.5869 0.0
O271 O 0.34715 0.43235 0.53024 0.0
O272 O 0.32694 0.42955 0.55175 0.0
In273 In 0.18534 0.60434 0.68672 0.0
O274 O 0.18585 0.5799 0.66645 0.0
O275 O 0.2056 0.60122 0.66243 0.0
C276 C 0.163 0.63331 0.67757 0.0
C277 C 0.166 0.58256 0.71014 0.0
C278 C 0.2146 0.61386 0.70813 0.0
O279 O 0.18012 0.6331 0.67401 0.0
O280 O 0.15703 0.61862 0.6849 0.0
O281 O 0.21123 0.59722 0.70367 0.0
O282 O 0.20303 0.62559 0.70211 0.0
C283 C 0.19969 0.58555 0.65742 0.0
O284 O 0.17779 0.59429 0.7158 0.0
O285 O 0.16376 0.5821 0.69272 0.0
In286 In 0.64945 0.94667 0.94562 0.0
O287 O 0.65158 0.93624 0.9754 0.0
O288 O 0.66505 0.92054 0.95423 0.0
C289 C 0.64559 0.98076 0.96076 0.0
C290 C 0.6742 0.95522 0.91885 0.0
C291 C 0.61711 0.92994 0.93654 0.0
O292 O 0.65636 0.9686 0.96736 0.0
O293 O 0.63681 0.97578 0.9464 0.0
O294 O 0.61798 0.945 0.94543 0.0
O295 O 0.63264 0.92339 0.93173 0.0
C296 C 0.66148 0.92233 0.97133 0.0
O297 O 0.6569 0.95591 0.91615 0.0
O298 O 0.67889 0.94963 0.93474 0.0
In299 In 0.84249 0.052 0.44649 0.0
O300 O 0.82949 0.05378 0.41746 0.0
O301 O 0.84425 0.02939 0.42453 0.0
C302 C 0.87154 0.07501 0.45213 0.0
C303 C 0.81089 0.06932 0.4562 0.0
C304 C 0.84948 0.02346 0.46978 0.0
O305 O 0.86955 0.06609 0.43714 0.0
O306 O 0.85874 0.07263 0.46384 0.0
O307 O 0.83439 0.03237 0.47009 0.0
O308 O 0.86112 0.02915 0.45796 0.0
C309 C 0.8343 0.03762 0.41276 0.0
O310 O 0.81349 0.05215 0.45875 0.0
O311 O 0.82427 0.07782 0.4486 0.0
C312 C 0.11159 0.16671 0.50744 0.0
C313 C 0.10981 0.17131 0.52633 0.0
C314 C 0.11809 0.17982 0.49474 0.0
C315 C 0.1193 0.23038 0.48913 0.0
H316 H 0.1485 0.21881 0.44532 0.0
C317 C 0.14936 0.28471 0.43811 0.0
C318 C 0.15055 0.27966 0.41927 0.0
C319 C 0.14223 0.27224 0.45114 0.0
C320 C 0.14007 0.22216 0.45735 0.0
H321 H 0.11498 0.1926 0.54706 0.0
H322 H 0.12676 0.21542 0.52489 0.0
H323 H 0.14363 0.19501 0.4689 0.0
H324 H 0.14341 0.25853 0.39897 0.0
H325 H 0.13073 0.23683 0.42173 0.0
H326 H 0.11592 0.25763 0.47758 0.0
C327 C 0.12266 0.20184 0.51984 0.0
C328 C 0.1374 0.20857 0.4709 0.0
C329 C 0.11613 0.18871 0.53255 0.0
C330 C 0.1428 0.26273 0.41343 0.0
C331 C 0.13571 0.25024 0.42646 0.0
C332 C 0.12205 0.24401 0.47559 0.0
C333 C 0.123 0.19776 0.50072 0.0
C334 C 0.12693 0.21251 0.48691 0.0
C335 C 0.13619 0.25454 0.44551 0.0
C336 C 0.13238 0.23999 0.45953 0.0
H337 H 0.10683 0.15339 0.50225 0.0
H338 H 0.11814 0.17625 0.48011 0.0
H339 H 0.11085 0.23374 0.50113 0.0
H340 H 0.15519 0.29772 0.44299 0.0
H341 H 0.14273 0.27594 0.46574 0.0
C342 C 0.99417 0.895 0.66774 0.0
C343 C 0.97685 0.90251 0.67272 0.0
C344 C 0.00583 0.88751 0.68128 0.0
C345 C 0.01528 0.8932 0.73097 0.0
H346 H 0.04909 0.85199 0.72315 0.0
C347 C 0.06082 0.85919 0.78775 0.0
C348 C 0.07797 0.85168 0.78219 0.0
C349 C 0.04938 0.86802 0.7748 0.0
C350 C 0.03994 0.86374 0.7254 0.0
H351 H 0.95736 0.90647 0.69539 0.0
H352 H 0.97761 0.89295 0.71903 0.0
H353 H 0.02559 0.85892 0.6998 0.0
H354 H 0.09769 0.84959 0.75946 0.0
H355 H 0.07783 0.86528 0.73694 0.0
H356 H 0.02957 0.89785 0.7567 0.0
C357 C 0.98236 0.89334 0.70474 0.0
C358 C 0.0264 0.86761 0.71209 0.0
C359 C 0.97069 0.90086 0.69118 0.0
C360 C 0.08444 0.85507 0.76408 0.0
C361 C 0.07301 0.86388 0.75114 0.0
C362 C 0.0288 0.88928 0.74434 0.0
C363 C 0.00035 0.88732 0.70003 0.0
C364 C 0.01394 0.8824 0.7147 0.0
C365 C 0.05498 0.86949 0.75614 0.0
C366 C 0.04131 0.87456 0.74163 0.0
H367 H -0.00073 0.89607 0.6536 0.0
H368 H 0.01961 0.88301 0.67719 0.0
H369 H 0.00612 0.90494 0.73321 0.0
H370 H 0.05552 0.85685 0.80165 0.0
H371 H 0.03558 0.87228 0.77907 0.0
C372 C 0.36983 0.70201 0.93321 0.0
C373 C 0.36447 0.70963 0.91605 0.0
C374 C 0.37775 0.71332 0.94688 0.0
C375 C 0.39657 0.76061 0.95614 0.0
H376 H 0.37022 0.75544 0.00297 0.0
C377 C 0.39639 0.81961 0.00884 0.0
C378 C 0.40207 0.8146 0.02683 0.0
C379 C 0.39104 0.80598 0.99613 0.0
C380 C 0.37777 0.75696 0.99003 0.0
H381 H 0.36511 0.73439 0.89889 0.0
H382 H 0.37886 0.75407 0.92261 0.0
H383 H 0.36618 0.73203 0.97872 0.0
H384 H 0.40473 0.79171 0.04628 0.0
H385 H 0.39516 0.76789 0.02406 0.0
H386 H 0.40779 0.78577 0.96729 0.0
C387 C 0.37694 0.73946 0.92567 0.0
C388 C 0.37562 0.74348 0.9762 0.0
C389 C 0.36902 0.72817 0.91205 0.0
C390 C 0.40045 0.79597 0.03248 0.0
C391 C 0.39504 0.78232 0.01975 0.0
C392 C 0.39863 0.77411 0.96991 0.0
C393 C 0.38051 0.73238 0.94353 0.0
C394 C 0.3848 0.74531 0.959 0.0
C395 C 0.39118 0.78714 0.00122 0.0
C396 C 0.38901 0.77257 0.98686 0.0
H397 H 0.36655 0.68772 0.93665 0.0
H398 H 0.38076 0.7074 0.96039 0.0
H399 H 0.40401 0.76228 0.94316 0.0
H400 H 0.39736 0.83388 0.00414 0.0
H401 H 0.38766 0.8101 0.98204 0.0
C402 C 0.50353 0.10318 0.16039 0.0
C403 C 0.52258 0.10063 0.16378 0.0
C404 C 0.49161 0.10821 0.17483 0.0
C405 C 0.48963 0.12511 0.2235 0.0
H406 H 0.44459 0.09541 0.22505 0.0
C407 C 0.4414 0.12801 0.28657 0.0
C408 C 0.42294 0.13237 0.28194 0.0
C409 C 0.45364 0.12158 0.27293 0.0
C410 C 0.4571 0.10381 0.22478 0.0
H411 H 0.54438 0.10288 0.1845 0.0
H412 H 0.52356 0.11157 0.20975 0.0
H413 H 0.4659 0.09222 0.19886 0.0
H414 H 0.40226 0.13159 0.26001 0.0
H415 H 0.42355 0.12022 0.23627 0.0
H416 H 0.48079 0.13669 0.24943 0.0
C417 C 0.5178 0.10972 0.19596 0.0
C418 C 0.46922 0.10212 0.20972 0.0
C419 C 0.52975 0.10477 0.18147 0.0
C420 C 0.41645 0.1284 0.26395 0.0
C421 C 0.42865 0.12188 0.25035 0.0
C422 C 0.47753 0.12674 0.23859 0.0
C423 C 0.49851 0.11072 0.19295 0.0
C424 C 0.48554 0.11287 0.20883 0.0
C425 C 0.44755 0.11927 0.25451 0.0
C426 C 0.46109 0.11619 0.23932 0.0
H427 H 0.49766 0.1002 0.14684 0.0
H428 H 0.47687 0.10939 0.17198 0.0
H429 H 0.50201 0.13367 0.22316 0.0
H430 H 0.44678 0.13088 0.30035 0.0
H431 H 0.46807 0.11931 0.27658 0.0
C432 C 0.63109 0.24154 0.57494 0.0
C433 C 0.63337 0.22283 0.5699 0.0
C434 C 0.62543 0.25458 0.56175 0.0
C435 C 0.60687 0.26046 0.51399 0.0
H436 H 0.63743 0.30494 0.51472 0.0
C437 C 0.60176 0.31317 0.45521 0.0
C438 C 0.59709 0.33097 0.46175 0.0
C439 C 0.6093 0.30004 0.46734 0.0
C440 C 0.62883 0.29258 0.51435 0.0
H441 H 0.62975 0.20271 0.54771 0.0
H442 H 0.61999 0.22544 0.52468 0.0
H443 H 0.64099 0.28174 0.53919 0.0
H444 H 0.59876 0.34978 0.48526 0.0
H445 H 0.61212 0.32695 0.50633 0.0
H446 H 0.59472 0.27135 0.48915 0.0
C447 C 0.62256 0.23012 0.53876 0.0
C448 C 0.6307 0.27939 0.52844 0.0
C449 C 0.62812 0.21706 0.55199 0.0
C450 C 0.60214 0.33611 0.4799 0.0
C451 C 0.60979 0.32302 0.49198 0.0
C452 C 0.60507 0.27361 0.49985 0.0
C453 C 0.62202 0.24912 0.54329 0.0
C454 C 0.61961 0.26327 0.52852 0.0
C455 C 0.61245 0.3046 0.48608 0.0
C456 C 0.61595 0.28986 0.49997 0.0
H457 H 0.6349 0.24634 0.58871 0.0
H458 H 0.6246 0.26906 0.56579 0.0
H459 H 0.59804 0.24827 0.51372 0.0
H460 H 0.59807 0.30886 0.44126 0.0
H461 H 0.61158 0.286 0.46238 0.0
C462 C 0.93909 0.35433 0.70518 0.0
C463 C 0.92167 0.3492 0.71237 0.0
C464 C 0.95184 0.36379 0.71636 0.0
C465 C 0.95839 0.38645 0.76249 0.0
H466 H 0.00501 0.35927 0.76219 0.0
C467 C 0.00707 0.38872 0.82497 0.0
C468 C 0.02563 0.3933 0.821 0.0
C469 C 0.9951 0.38326 0.81074 0.0
C470 C 0.99214 0.36709 0.76233 0.0
H471 H 0.90296 0.35206 0.73584 0.0
H472 H 0.92513 0.36844 0.75531 0.0
H473 H 0.9823 0.35388 0.73761 0.0
H474 H 0.0467 0.39402 0.79943 0.0
H475 H 0.02577 0.38423 0.77457 0.0
H476 H 0.96807 0.39926 0.78753 0.0
C477 C 0.92909 0.36514 0.74116 0.0
C478 C 0.97919 0.36416 0.74817 0.0
C479 C 0.91635 0.35572 0.72999 0.0
C480 C 0.03245 0.39058 0.80289 0.0
C481 C 0.02045 0.38506 0.78864 0.0
C482 C 0.9713 0.38931 0.77668 0.0
C483 C 0.94732 0.36829 0.73484 0.0
C484 C 0.96204 0.37359 0.74826 0.0
C485 C 0.00149 0.38218 0.79232 0.0
C486 C 0.98815 0.37941 0.77692 0.0
H487 H 0.94349 0.34964 0.69156 0.0
H488 H 0.96564 0.36648 0.71095 0.0
H489 H 0.94541 0.39408 0.76283 0.0
H490 H 0.00146 0.39057 0.83883 0.0
H491 H 0.98063 0.38064 0.81402 0.0
C492 C 0.84149 0.78388 0.05355 0.0
C493 C 0.84285 0.77874 0.07234 0.0
C494 C 0.8488 0.77242 0.0397 0.0
C495 C 0.87791 0.73045 0.03152 0.0
H496 H 0.84304 0.7217 0.99124 0.0
C497 C 0.88426 0.66609 0.98641 0.0
C498 C 0.88621 0.66986 0.96735 0.0
C499 C 0.87727 0.67961 -0.00163 0.0
C500 C 0.85291 0.72409 0.00236 0.0
H501 H 0.85428 0.75851 0.09153 0.0
H502 H 0.86677 0.73839 0.06745 0.0
H503 H 0.83709 0.74663 0.01353 0.0
H504 H 0.88044 0.68983 0.94552 0.0
H505 H 0.86789 0.71345 0.96652 0.0
H506 H 0.89341 0.70755 0.02063 0.0
C507 C 0.86022 0.75129 0.0633 0.0
C508 C 0.84965 0.73846 0.01503 0.0
C509 C 0.85304 0.76282 0.07715 0.0
C510 C 0.87911 0.68657 0.96016 0.0
C511 C 0.87201 0.70011 0.97217 0.0
C512 C 0.88105 0.716 0.019 0.0
C513 C 0.85749 0.75557 0.04441 0.0
C514 C 0.86201 0.74165 0.02988 0.0
C515 C 0.87198 0.69706 0.99145 0.0
C516 C 0.86845 0.71254 0.00447 0.0
H517 H 0.83383 0.79619 0.04948 0.0
H518 H 0.84691 0.77634 0.02529 0.0
H519 H 0.88787 0.73274 0.04259 0.0
H520 H 0.88947 0.65325 0.99231 0.0
H521 H 0.87696 0.67682 0.01317 0.0
C522 C 0.57717 0.63521 0.23942 0.0
C523 C 0.57368 0.63842 0.22048 0.0
C524 C 0.56259 0.63078 0.2514 0.0
C525 C 0.51349 0.61689 0.255 0.0
H526 H 0.51346 0.65107 0.2968 0.0
C527 C 0.45292 0.61701 0.30616 0.0
C528 C 0.45866 0.61508 0.32473 0.0
C529 C 0.46551 0.62291 0.29261 0.0
C530 C 0.51328 0.64141 0.28525 0.0
H531 H 0.55275 0.63722 0.19879 0.0
H532 H 0.5273 0.62925 0.21976 0.0
H533 H 0.53932 0.65133 0.27492 0.0
H534 H 0.48124 0.61997 0.34411 0.0
H535 H 0.50316 0.63015 0.32058 0.0
H536 H 0.48768 0.60665 0.26555 0.0
C537 C 0.54123 0.6304 0.22536 0.0
C538 C 0.52814 0.64146 0.2728 0.0
C539 C 0.55583 0.63489 0.21335 0.0
C540 C 0.47646 0.62122 0.32987 0.0
C541 C 0.48904 0.62708 0.31635 0.0
C542 C 0.49867 0.61674 0.26755 0.0
C543 C 0.54434 0.62938 0.24461 0.0
C544 C 0.52851 0.62902 0.25771 0.0
C545 C 0.48399 0.627 0.29746 0.0
C546 C 0.49852 0.62885 0.28294 0.0
H547 H 0.59083 0.63765 0.24528 0.0
H548 H 0.56541 0.62957 0.26615 0.0
H549 H 0.51344 0.60721 0.24345 0.0
H550 H 0.43921 0.61251 0.30183 0.0
H551 H 0.46109 0.6232 0.27822 0.0
C552 C 0.26438 0.41181 0.13766 0.0
C553 C 0.28164 0.41803 0.14436 0.0
C554 C 0.25285 0.42386 0.12776 0.0
C555 C 0.24376 0.47351 0.12791 0.0
H556 H 0.20692 0.46137 0.09052 0.0
C557 C 0.1924 0.52658 0.09633 0.0
C558 C 0.17474 0.52006 0.09114 0.0
C559 C 0.20554 0.51438 0.10373 0.0
C560 C 0.21698 0.46486 0.10117 0.0
H561 H 0.30156 0.44066 0.14366 0.0
H562 H 0.28154 0.46157 0.12605 0.0
H563 H 0.23149 0.4391 0.09763 0.0
H564 H 0.15626 0.49624 0.09147 0.0
H565 H 0.17908 0.47503 0.10482 0.0
H566 H 0.22914 0.49915 0.13164 0.0
C567 C 0.27668 0.44762 0.12897 0.0
C568 C 0.23113 0.45218 0.1051 0.0
C569 C 0.28821 0.43558 0.13888 0.0
C570 C 0.16982 0.50161 0.09522 0.0
C571 C 0.18295 0.48942 0.10263 0.0
C572 C 0.22961 0.48617 0.124 0.0
C573 C 0.25848 0.44225 0.12434 0.0
C574 C 0.24461 0.45633 0.11858 0.0
C575 C 0.20119 0.49548 0.10613 0.0
C576 C 0.21599 0.48192 0.1107 0.0
H577 H 0.25902 0.39829 0.14157 0.0
H578 H 0.23893 0.41927 0.12431 0.0
H579 H 0.25369 0.47694 0.13871 0.0
H580 H 0.19657 0.54074 0.09336 0.0
H581 H 0.21946 0.51948 0.10633 0.0
C582 C 0.68183 0.97466 0.89126 0.0
C583 C 0.68781 0.96314 0.9058 0.0
C584 C 0.69464 0.9854 0.88143 0.0
C585 C 0.74031 0.00698 0.88892 0.0
H586 H 0.73304 0.02355 0.83816 0.0
C587 C 0.78679 0.06072 0.8495 0.0
C588 C 0.77668 0.07453 0.84009 0.0
C589 C 0.7775 0.04588 0.85797 0.0
C590 C 0.7352 0.01901 0.85236 0.0
H591 H 0.71191 0.95242 0.92039 0.0
H592 H 0.73437 0.97073 0.90281 0.0
H593 H 0.71462 -0.0023 0.85007 0.0
H594 H 0.749 0.08435 0.83315 0.0
H595 H 0.73291 0.05847 0.84784 0.0
H596 H 0.76093 0.02842 0.89107 0.0
C597 C 0.71976 0.97195 0.89939 0.0
C598 C 0.72467 0.00425 0.85919 0.0
C599 C 0.70692 0.96136 0.90934 0.0
C600 C 0.75717 0.07386 0.84022 0.0
C601 C 0.74795 0.05899 0.84847 0.0
C602 C 0.75101 0.02161 0.88199 0.0
C603 C 0.71369 0.98465 0.88584 0.0
C604 C 0.72674 -0.00162 0.8777 0.0
C605 C 0.75805 0.04462 0.85693 0.0
C606 C 0.74816 0.02805 0.86383 0.0
H607 H 0.66716 0.97632 0.88827 0.0
H608 H 0.68942 0.99513 0.8712 0.0
H609 H 0.7421 0.00301 0.90333 0.0
H610 H 0.80184 0.06091 0.84958 0.0
H611 H 0.78554 0.03496 0.86452 0.0
C612 C 0.71079 0.9466 0.34744 0.0
C613 C 0.71523 0.92778 0.34473 0.0
C614 C 0.72383 0.9587 0.35517 0.0
C615 C 0.76886 0.96136 0.37984 0.0
H616 H 0.77521 0.00637 0.35075 0.0
C617 C 0.83022 0.00882 0.39415 0.0
C618 C 0.82507 0.02732 0.39768 0.0
C619 C 0.81806 0.99691 0.38487 0.0
C620 C 0.77356 0.99389 0.35902 0.0
H621 H 0.73597 0.90646 0.34965 0.0
H622 H 0.7587 0.92756 0.3632 0.0
H623 H 0.74989 0.98501 0.34337 0.0
H624 H 0.8043 0.04849 0.39234 0.0
H625 H 0.78303 0.02768 0.3762 0.0
H626 H 0.79243 0.97025 0.39555 0.0
C627 C 0.74523 0.93302 0.35928 0.0
C628 C 0.75899 0.98174 0.35492 0.0
C629 C 0.73219 0.92092 0.35155 0.0
C630 C 0.80859 0.03427 0.38985 0.0
C631 C 0.79638 0.02232 0.38063 0.0
C632 C 0.78342 0.9735 0.38394 0.0
C633 C 0.74149 0.95216 0.36038 0.0
C634 C 0.75646 0.96538 0.36533 0.0
C635 C 0.80057 0.0033 0.37902 0.0
C636 C 0.78592 0.98989 0.37357 0.0
H637 H 0.69777 0.95225 0.34242 0.0
H638 H 0.72042 0.97332 0.3563 0.0
H639 H 0.76717 0.94895 0.38819 0.0
H640 H 0.84296 0.00316 0.39986 0.0
H641 H 0.82186 0.98241 0.38334 0.0
C642 C 0.22787 0.57889 0.63846 0.0
C643 C 0.21037 0.57325 0.64501 0.0
C644 C 0.24001 0.56595 0.63063 0.0
C645 C 0.25003 0.51608 0.63354 0.0
H646 H 0.28619 0.52763 0.59529 0.0
C647 C 0.30383 0.46404 0.60274 0.0
C648 C 0.32148 0.47137 0.59869 0.0
C649 C 0.28976 0.47562 0.60951 0.0
C650 C 0.27627 0.52429 0.60613 0.0
H651 H 0.19115 0.55011 0.64701 0.0
H652 H 0.21224 0.52756 0.63292 0.0
H653 H 0.26125 0.54958 0.60187 0.0
H654 H 0.33883 0.49598 0.60024 0.0
H655 H 0.31437 0.51607 0.61226 0.0
H656 H 0.26514 0.49073 0.6377 0.0
C657 C 0.21676 0.54186 0.63429 0.0
C658 C 0.26196 0.53682 0.60983 0.0
C659 C 0.20462 0.55481 0.64218 0.0
C660 C 0.3253 0.49 0.60308 0.0
C661 C 0.31127 0.50154 0.60979 0.0
C662 C 0.2643 0.50348 0.62973 0.0
C663 C 0.23484 0.54716 0.62912 0.0
C664 C 0.24883 0.533 0.62377 0.0
C665 C 0.29318 0.49465 0.61228 0.0
C666 C 0.27773 0.50763 0.61621 0.0
H667 H 0.23267 0.59302 0.64048 0.0
H668 H 0.25387 0.57049 0.62688 0.0
H669 H 0.24031 0.51284 0.64457 0.0
H670 H 0.30051 0.44972 0.59946 0.0
H671 H 0.27593 0.46995 0.61139 0.0
C672 C 0.32525 0.41147 0.5042 0.0
C673 C 0.31924 0.41578 0.52227 0.0
C674 C 0.3136 0.40187 0.49198 0.0
C675 C 0.27232 0.37133 0.49107 0.0
H676 H 0.27109 0.38477 0.43886 0.0
C677 C 0.23618 0.32545 0.43645 0.0
C678 C 0.22603 0.33432 0.42234 0.0
C679 C 0.24732 0.33575 0.44855 0.0
C680 C 0.27114 0.38096 0.45343 0.0
H681 H 0.29631 0.41355 0.54172 0.0
H682 H 0.27586 0.39703 0.52032 0.0
H683 H 0.29065 0.40235 0.46025 0.0
H684 H 0.21953 0.36092 0.40978 0.0
H685 H 0.23881 0.37903 0.43113 0.0
H686 H 0.25251 0.35021 0.48435 0.0
C687 C 0.28968 0.40079 0.51566 0.0
C688 C 0.28253 0.39088 0.46565 0.0
C689 C 0.30136 0.41033 0.5279 0.0
C690 C 0.22726 0.35372 0.42051 0.0
C691 C 0.23837 0.36406 0.43267 0.0
C692 C 0.2609 0.36145 0.47887 0.0
C693 C 0.29567 0.39643 0.49756 0.0
C694 C 0.28332 0.38612 0.4846 0.0
C695 C 0.24849 0.35518 0.44686 0.0
C696 C 0.26026 0.36607 0.45989 0.0
H697 H 0.339 0.41545 0.4995 0.0
H698 H 0.31875 0.39849 0.47823 0.0
H699 H 0.27273 0.36717 0.50554 0.0
H700 H 0.23559 0.3105 0.43814 0.0
H701 H 0.25517 0.32844 0.45911 0.0
C702 C 0.93186 0.98826 0.6898 0.0
C703 C 0.92495 0.98253 0.67247 0.0
C704 C 0.92161 0.00037 0.70098 0.0
C705 C 0.88231 0.03381 0.69998 0.0
H706 H 0.88221 0.02502 0.75317 0.0
C707 C 0.84642 0.08399 0.75149 0.0
C708 C 0.83693 0.07596 0.76654 0.0
C709 C 0.85763 0.07306 0.73997 0.0
C710 C 0.88194 0.02759 0.73833 0.0
H711 H 0.90197 0.98499 0.65314 0.0
H712 H 0.88378 0.00578 0.67286 0.0
H713 H 0.90036 0.00493 0.73298 0.0
H714 H 0.83158 0.05024 0.78131 0.0
H715 H 0.85073 0.03111 0.76101 0.0
H716 H 0.86329 0.05603 0.70531 0.0
C717 C 0.8973 0.00125 0.67769 0.0
C718 C 0.89258 0.01622 0.72676 0.0
C719 C 0.90766 0.98925 0.66642 0.0
C720 C 0.83884 0.05683 0.76987 0.0
C721 C 0.84991 0.04589 0.75829 0.0
C722 C 0.87155 0.04511 0.71156 0.0
C723 C 0.90411 0.00687 0.69515 0.0
C724 C 0.8929 0.01916 0.70743 0.0
C725 C 0.85947 0.05385 0.7432 0.0
C726 C 0.8712 0.04211 0.73088 0.0
H727 H 0.94523 0.98341 0.69475 0.0
H728 H 0.92745 0.00469 0.71417 0.0
H729 H 0.8824 0.03662 0.68518 0.0
H730 H 0.84524 0.09873 0.74865 0.0
H731 H 0.865 0.0797 0.72865 0.0
C732 C 0.28893 0.66402 0.94907 0.0
C733 C 0.2951 0.65525 0.93274 0.0
C734 C 0.27863 0.65415 0.96224 0.0
C735 C 0.26467 0.60652 0.97653 0.0
H736 H 0.22071 0.63157 0.99521 0.0
C737 C 0.20126 0.56755 0.00567 0.0
C738 C 0.19242 0.57485 0.02148 0.0
C739 C 0.21559 0.57736 0.99703 0.0
C740 C 0.23308 0.62447 0.99037 0.0
H741 H 0.2959 0.62918 0.91763 0.0
H742 H 0.27763 0.61203 0.94041 0.0
H743 H 0.24294 0.64869 0.97629 0.0
H744 H 0.19173 0.59798 0.04081 0.0
H745 H 0.21676 0.61524 0.02557 0.0
H746 H 0.25438 0.58213 0.99015 0.0
C747 C 0.28097 0.62644 0.94323 0.0
C748 C 0.24585 0.63428 0.97954 0.0
C749 C 0.29134 0.63629 0.93011 0.0
C750 C 0.19828 0.59206 0.0286 0.0
C751 C 0.21255 0.60194 0.01987 0.0
C752 C 0.25183 0.59669 0.98728 0.0
C753 C 0.27421 0.63534 0.95929 0.0
C754 C 0.26164 0.62534 0.97225 0.0
C755 C 0.22129 0.59471 0.00395 0.0
C756 C 0.23576 0.6055 0.99404 0.0
H757 H 0.29174 0.67861 0.95152 0.0
H758 H 0.2739 0.66134 0.9746 0.0
H759 H 0.27685 0.59931 0.9714 0.0
H760 H 0.19705 0.5543 -0.00012 0.0
H761 H 0.2219 0.57155 0.98464 0.0
C762 C 0.59376 0.04275 0.18369 0.0
C763 C 0.58355 0.03362 0.16975 0.0
C764 C 0.60335 0.03252 0.19714 0.0
C765 C 0.6044 0.98644 0.21938 0.0
H766 H 0.65509 -0.00055 0.23241 0.0
C767 C 0.64505 0.94675 0.27585 0.0
C768 C 0.66316 0.94142 0.27085 0.0
C769 C 0.63525 0.95954 0.26501 0.0
C770 C 0.64094 0.99567 0.2289 0.0
H771 H 0.57545 0.00669 0.15885 0.0
H772 H 0.59227 0.98887 0.18223 0.0
H773 H 0.63803 0.01858 0.21013 0.0
H774 H 0.68541 0.94561 0.25093 0.0
H775 H 0.66827 0.96783 0.23197 0.0
H776 H 0.60744 0.96325 0.23771 0.0
C777 C 0.5927 0.00391 0.18291 0.0
C778 C 0.63113 0.0067 0.21629 0.0
C779 C 0.58319 0.01411 0.16944 0.0
C780 C 0.67146 0.94945 0.25511 0.0
C781 C 0.66169 0.96227 0.24432 0.0
C782 C 0.61417 0.97547 0.23204 0.0
C783 C 0.60282 0.013 0.19693 0.0
C784 C 0.61286 0.00203 0.21119 0.0
C785 C 0.64341 0.96728 0.24903 0.0
C786 C 0.63262 0.97981 0.23674 0.0
H787 H 0.59423 0.05779 0.18428 0.0
H788 H 0.61094 0.03989 0.20786 0.0
H789 H 0.59025 0.98265 0.21589 0.0
H790 H 0.63834 0.94083 0.28796 0.0
H791 H 0.62125 0.9633 0.26908 0.0
C792 C 0.69017 0.14168 0.54985 0.0
C793 C 0.69432 0.16068 0.55146 0.0
C794 C 0.69893 0.13084 0.5363 0.0
C795 C 0.72775 0.13324 0.49343 0.0
H796 H 0.74911 0.0876 0.51249 0.0
C797 C 0.79258 0.09827 0.46204 0.0
C798 C 0.79391 0.07881 0.46265 0.0
C799 C 0.77731 0.1073 0.46994 0.0
C800 C 0.74296 0.10009 0.50676 0.0
H801 H 0.71019 0.18346 0.5397 0.0
H802 H 0.72565 0.16455 0.51628 0.0
H803 H 0.72754 0.10514 0.53163 0.0
H804 H 0.77987 0.05346 0.47098 0.0
H805 H 0.75311 0.06922 0.48457 0.0
H806 H 0.74374 0.12842 0.46876 0.0
C807 C 0.7155 0.15801 0.52528 0.0
C808 C 0.73056 0.11015 0.51776 0.0
C809 C 0.70675 0.16882 0.53881 0.0
C810 C 0.7793 0.0685 0.47048 0.0
C811 C 0.76401 0.07752 0.47832 0.0
C812 C 0.74017 0.12315 0.4824 0.0
C813 C 0.71198 0.13883 0.52412 0.0
C814 C 0.72313 0.12705 0.51139 0.0
C815 C 0.76307 0.09703 0.47855 0.0
C816 C 0.74821 0.10666 0.48912 0.0
H817 H 0.68054 0.13507 0.55935 0.0
H818 H 0.69576 0.11614 0.53559 0.0
H819 H 0.72203 0.14609 0.48804 0.0
H820 H 0.80364 0.10655 0.45606 0.0
H821 H 0.77711 0.12236 0.47006 0.0
C822 C 0.14221 0.55798 0.71596 0.0
C823 C 0.1561 0.56987 0.72282 0.0
C824 C 0.13328 0.54546 0.7278 0.0
C825 C 0.1394 0.52019 0.77161 0.0
H826 H 0.08587 0.51428 0.76926 0.0
C827 C 0.0981 0.47599 0.82463 0.0
C828 C 0.08293 0.46575 0.81784 0.0
C829 C 0.1075 0.48844 0.81304 0.0
C830 C 0.10086 0.51556 0.76992 0.0
H831 H 0.1715 0.5781 0.74741 0.0
H832 H 0.15588 0.55617 0.76812 0.0
H833 H 0.10113 0.53682 0.74911 0.0
H834 H 0.06606 0.45997 0.79352 0.0
H835 H 0.0827 0.48133 0.77321 0.0
H836 H 0.13918 0.49878 0.79227 0.0
C837 C 0.15198 0.55648 0.75357 0.0
C838 C 0.10957 0.52852 0.75842 0.0
C839 C 0.16082 0.5691 0.74175 0.0
C840 C 0.07764 0.46779 0.79916 0.0
C841 C 0.08709 0.48013 0.78757 0.0
C842 C 0.13069 0.50713 0.78306 0.0
C843 C 0.13816 0.54451 0.7467 0.0
C844 C 0.12893 0.53095 0.75913 0.0
C845 C 0.10196 0.4908 0.79443 0.0
C846 C 0.11132 0.50464 0.78231 0.0
H847 H 0.13832 0.55824 0.70141 0.0
H848 H 0.1228 0.53628 0.72209 0.0
H849 H 0.15438 0.52161 0.77228 0.0
H850 H 0.10243 0.47473 0.839 0.0
H851 H 0.11878 0.49657 0.81882 0.0
C852 C 0.6672 0.91406 0.00457 0.0
C853 C 0.66942 0.90995 0.98561 0.0
C854 C 0.67628 0.90345 0.01805 0.0
C855 C 0.70028 0.85887 0.02628 0.0
H856 H 0.72822 0.88692 0.06295 0.0
C857 C 0.74427 0.82341 0.08338 0.0
C858 C 0.76253 0.83017 0.08495 0.0
C859 C 0.73108 0.83308 0.0729 0.0
C860 C 0.72045 0.87891 0.05282 0.0
H861 H 0.6822 0.89106 0.96587 0.0
H862 H 0.69804 0.87249 0.98943 0.0
H863 H 0.70795 0.90325 0.04119 0.0
H864 H 0.7812 0.85257 0.07733 0.0
H865 H 0.75813 0.86954 0.05916 0.0
H866 H 0.71321 0.83457 0.03762 0.0
C867 C 0.68924 0.88388 0.99389 0.0
C868 C 0.70872 0.88822 0.04049 0.0
C869 C 0.68026 0.89456 0.9804 0.0
C870 C 0.76722 0.84705 0.07635 0.0
C871 C 0.75399 0.8568 0.06604 0.0
C872 C 0.71191 0.84953 0.03873 0.0
C873 C 0.68764 0.88844 0.01282 0.0
C874 C 0.69874 0.87832 0.02691 0.0
C875 C 0.73587 0.84978 0.06399 0.0
C876 C 0.72233 0.8595 0.05192 0.0
H877 H 0.65888 0.92581 0.00899 0.0
H878 H 0.67463 0.90714 0.03257 0.0
H879 H 0.69265 0.85088 0.01603 0.0
H880 H 0.74028 0.81041 0.08985 0.0
H881 H 0.71717 0.82745 0.07167 0.0
C882 C 0.31863 0.45515 0.23094 0.0
C883 C 0.32797 0.44121 0.22094 0.0
C884 C 0.32862 0.46842 0.24098 0.0
C885 C 0.37308 0.47431 0.2646 0.0
H886 H 0.35978 0.52655 0.26594 0.0
C887 C 0.41638 0.52696 0.306 0.0
C888 C 0.40672 0.54053 0.31618 0.0
C889 C 0.40708 0.51583 0.29315 0.0
C890 C 0.36354 0.51197 0.26586 0.0
H891 H 0.35504 0.43052 0.21309 0.0
H892 H 0.37253 0.45371 0.23071 0.0
H893 H 0.34302 0.50542 0.24525 0.0
H894 H 0.37983 0.55331 0.32078 0.0
H895 H 0.36338 0.53348 0.29861 0.0
H896 H 0.39324 0.4806 0.28546 0.0
C897 C 0.35748 0.45428 0.23088 0.0
C898 C 0.35399 0.49991 0.25397 0.0
C899 C 0.34748 0.44107 0.22074 0.0
C900 C 0.3876 0.54294 0.3131 0.0
C901 C 0.37823 0.53167 0.30031 0.0
C902 C 0.38253 0.48631 0.27655 0.0
C903 C 0.34814 0.46792 0.2413 0.0
C904 C 0.35867 0.48096 0.25326 0.0
C905 C 0.38785 0.51788 0.2903 0.0
C906 C 0.37787 0.50528 0.27734 0.0
H907 H 0.30358 0.4556 0.23131 0.0
H908 H 0.32106 0.47868 0.24901 0.0
H909 H 0.37676 0.4597 0.2646 0.0
H910 H 0.43117 0.52492 0.30795 0.0
H911 H 0.41498 0.5056 0.28541 0.0
C912 C 0.52958 0.30598 0.39294 0.0
C913 C 0.53023 0.30767 0.41238 0.0
C914 C 0.52088 0.29068 0.38469 0.0
C915 C 0.48489 0.25584 0.39466 0.0
H916 H 0.50254 0.23309 0.34906 0.0
C917 C 0.4439 0.19718 0.35896 0.0
C918 C 0.44115 0.19961 0.33978 0.0
C919 C 0.45702 0.20794 0.36844 0.0
C920 C 0.49743 0.23934 0.36178 0.0
H921 H 0.52302 0.29435 0.43845 0.0
H922 H 0.50806 0.26756 0.42407 0.0
H923 H 0.52154 0.25661 0.36456 0.0
H924 H 0.45045 0.21461 0.31534 0.0
H925 H 0.47318 0.23347 0.33187 0.0
H926 H 0.46064 0.23894 0.39172 0.0
C927 C 0.51395 0.27819 0.41518 0.0
C928 C 0.50829 0.25282 0.37063 0.0
C929 C 0.52259 0.29349 0.42342 0.0
C930 C 0.45225 0.21245 0.33013 0.0
C931 C 0.46537 0.22317 0.33959 0.0
C932 C 0.47407 0.24237 0.38584 0.0
C933 C 0.51271 0.27676 0.39573 0.0
C934 C 0.50201 0.26141 0.38703 0.0
C935 C 0.46765 0.22129 0.3589 0.0
C936 C 0.48008 0.23417 0.36916 0.0
H937 H 0.53536 0.31671 0.38409 0.0
H938 H 0.51999 0.2901 0.36966 0.0
H939 H 0.4795 0.26239 0.40711 0.0
H940 H 0.43559 0.18731 0.36673 0.0
H941 H 0.45863 0.20602 0.38329 0.0
C942 C 0.03383 0.19685 0.58231 0.0
C943 C 0.04699 0.18487 0.59031 0.0
C944 C 0.02453 0.20991 0.59319 0.0
C945 C 0.0089 0.21753 0.64068 0.0
H946 H 0.99697 0.2668 0.62233 0.0
C947 C 0.95988 0.26666 0.68086 0.0
C948 C 0.94625 0.27546 0.66999 0.0
C949 C 0.97485 0.25761 0.67241 0.0
C950 C 0.00013 0.25306 0.62761 0.0
H951 H 0.06113 0.17743 0.61587 0.0
H952 H 0.04466 0.20028 0.63504 0.0
H953 H 0.01881 0.24731 0.60515 0.0
H954 H 0.93776 0.28207 0.64183 0.0
H955 H 0.96367 0.26605 0.62707 0.0
H956 H 0.98972 0.22294 0.66274 0.0
C957 C 0.04157 0.19949 0.62032 0.0
C958 C 0.01267 0.24194 0.61781 0.0
C959 C 0.05101 0.18649 0.60936 0.0
C960 C 0.94808 0.27542 0.65056 0.0
C961 C 0.96301 0.26636 0.64211 0.0
C962 C 0.99631 0.22862 0.65045 0.0
C963 C 0.0281 0.2112 0.61235 0.0
C964 C 0.01684 0.22391 0.62402 0.0
C965 C 0.97646 0.25718 0.65293 0.0
C966 C 0.99146 0.24634 0.64379 0.0
H967 H 0.03047 0.19594 0.56765 0.0
H968 H 0.01405 0.21856 0.58671 0.0
H969 H 0.0117 0.20361 0.64569 0.0
H970 H 0.95887 0.26657 0.69589 0.0
H971 H 0.9851 0.25086 0.68112 0.0
C972 C 0.94995 0.69865 0.89907 0.0
C973 C 0.95126 0.69496 0.91819 0.0
C974 C 0.95958 0.71359 0.89129 0.0
C975 C 0.00133 0.74146 0.8999 0.0
H976 H 0.98425 0.76857 0.85655 0.0
C977 C 0.04998 0.79053 0.85963 0.0
C978 C 0.05041 0.78709 0.84041 0.0
C979 C 0.03577 0.78312 0.87061 0.0
C980 C 0.98918 0.76114 0.86869 0.0
H981 H 0.96273 0.70459 0.94437 0.0
H982 H 0.97934 0.73088 0.93081 0.0
H983 H 0.96258 0.7487 0.87354 0.0
H984 H 0.03593 0.77393 0.81745 0.0
H985 H 0.01122 0.76094 0.83659 0.0
H986 H 0.02803 0.75344 0.89476 0.0
C987 C 0.97118 0.72202 0.92177 0.0
C988 C 0.97679 0.74974 0.87838 0.0
C989 C 0.96161 0.70702 0.92954 0.0
C990 C 0.03599 0.77676 0.83225 0.0
C991 C 0.02175 0.76945 0.84319 0.0
C992 C 0.01367 0.7529 0.89026 0.0
C993 C 0.97065 0.72519 0.90249 0.0
C994 C 0.98287 0.73938 0.89381 0.0
C995 C 0.02167 0.77225 0.86253 0.0
C996 C 0.00785 0.76246 0.87426 0.0
H997 H 0.94206 0.68958 0.88999 0.0
H998 H 0.95904 0.71548 0.87636 0.0
H999 H 0.00657 0.73349 0.91155 0.0
H1000 H 0.06089 0.79853 0.86627 0.0
H1001 H 0.03597 0.78562 0.88547 0.0
C1002 C 0.56841 0.71197 0.14375 0.0
C1003 C 0.56439 0.70648 0.16205 0.0
C1004 C 0.55573 0.72277 0.13375 0.0
C1005 C 0.51753 0.75585 0.14101 0.0
H1006 H 0.5084 0.74813 0.08843 0.0
C1007 C 0.46521 0.80067 0.09972 0.0
C1008 C 0.47117 0.80667 0.08213 0.0
C1009 C 0.47535 0.78725 0.10946 0.0
C1010 C 0.51091 0.75053 0.10309 0.0
H1011 H 0.54376 0.70746 0.18404 0.0
H1012 H 0.52161 0.72617 0.16654 0.0
H1013 H 0.52843 0.72657 0.10531 0.0
H1014 H 0.49231 0.80331 0.06087 0.0
H1015 H 0.51008 0.78015 0.07792 0.0
H1016 H 0.5003 0.77997 0.13876 0.0
C1017 C 0.53464 0.72237 0.16001 0.0
C1018 C 0.52237 0.73819 0.11274 0.0
C1019 C 0.54728 0.71157 0.16998 0.0
C1020 C 0.48735 0.79893 0.0744 0.0
C1021 C 0.49746 0.78555 0.08411 0.0
C1022 C 0.5061 0.7682 0.13136 0.0
C1023 C 0.53882 0.72829 0.14187 0.0
C1024 C 0.52594 0.74081 0.13177 0.0
C1025 C 0.49161 0.77958 0.10177 0.0
C1026 C 0.50281 0.7658 0.11225 0.0
H1027 H 0.58151 0.70826 0.1373 0.0
H1028 H 0.55943 0.72726 0.11986 0.0
H1029 H 0.52022 0.7584 0.15561 0.0
H1030 H 0.45274 0.80636 0.10597 0.0
H1031 H 0.47039 0.7828 0.12297 0.0
C1032 C 0.17991 0.32188 0.32153 0.0
C1033 C 0.17701 0.33043 0.33884 0.0
C1034 C 0.18039 0.33248 0.30532 0.0
C1035 C 0.19577 0.37841 0.29249 0.0
H1036 H 0.18608 0.36004 0.24273 0.0
C1037 C 0.23826 0.40581 0.23143 0.0
C1038 C 0.2465 0.39138 0.22117 0.0
C1039 C 0.22299 0.40222 0.24292 0.0
C1040 C 0.18877 0.36546 0.25652 0.0
H1041 H 0.17057 0.35645 0.35264 0.0
H1042 H 0.17149 0.37506 0.32421 0.0
H1043 H 0.16991 0.3462 0.2692 0.0
H1044 H 0.24445 0.36223 0.21378 0.0
H1045 H 0.2182 0.35586 0.23403 0.0
H1046 H 0.21555 0.39671 0.28014 0.0
C1047 C 0.17356 0.36018 0.32322 0.0
C1048 C 0.17948 0.35757 0.27166 0.0
C1049 C 0.17298 0.34952 0.33947 0.0
C1050 C 0.23845 0.37361 0.22162 0.0
C1051 C 0.22325 0.37001 0.23311 0.0
C1052 C 0.20508 0.38624 0.27739 0.0
C1053 C 0.17806 0.35188 0.3061 0.0
C1054 C 0.18358 0.36336 0.28988 0.0
C1055 C 0.21572 0.38413 0.24437 0.0
C1056 C 0.20237 0.37923 0.25934 0.0
H1057 H 0.18292 0.30715 0.32062 0.0
H1058 H 0.18406 0.32564 0.29241 0.0
H1059 H 0.19939 0.3831 0.30634 0.0
H1060 H 0.24407 0.4197 0.23119 0.0
H1061 H 0.21735 0.41345 0.25122 0.0
C1062 C 0.83993 0.00171 0.4952 0.0
C1063 C 0.85331 0.00769 0.48228 0.0
C1064 C 0.84398 0.98729 0.50758 0.0
C1065 C 0.87852 0.94991 0.51754 0.0
H1066 H 0.86828 0.96227 0.56901 0.0
C1067 C 0.92808 0.93644 0.57707 0.0
C1068 C 0.92132 0.93348 0.59512 0.0
C1069 C 0.9158 0.93828 0.56221 0.0
C1070 C 0.87083 0.95823 0.55472 0.0
H1071 H 0.88113 0.0029 0.47172 0.0
H1072 H 0.88836 0.97812 0.4935 0.0
H1073 H 0.85364 0.98012 0.54438 0.0
H1074 H 0.89663 0.92863 0.61169 0.0
H1075 H 0.875 0.93223 0.5856 0.0
H1076 H 0.89677 0.92886 0.52803 0.0
C1077 C 0.87461 0.98425 0.49392 0.0
C1078 C 0.86245 0.96851 0.54056 0.0
C1079 C 0.87056 -0.00138 0.48156 0.0
C1080 C 0.90216 0.93091 0.59787 0.0
C1081 C 0.88981 0.93304 0.58299 0.0
C1082 C 0.88697 0.93968 0.53171 0.0
C1083 C 0.86148 0.97858 0.50725 0.0
C1084 C 0.86689 0.96503 0.52184 0.0
C1085 C 0.89651 0.93744 0.56515 0.0
C1086 C 0.88386 0.94433 0.55043 0.0
H1087 H 0.82644 0.00836 0.49594 0.0
H1088 H 0.83352 0.98314 0.51759 0.0
H1089 H 0.88186 0.94661 0.50323 0.0
H1090 H 0.94281 0.93837 0.5746 0.0
H1091 H 0.92142 0.94185 0.54869 0.0
C1092 C 0.23671 0.63774 0.72 0.0
C1093 C 0.23062 0.61922 0.71971 0.0
C1094 C 0.2514 0.64307 0.7315 0.0
C1095 C 0.28913 0.62466 0.76228 0.0
H1096 H 0.28211 0.67204 0.78701 0.0
C1097 C 0.3187 0.64553 0.83412 0.0
C1098 C 0.32313 0.66434 0.83697 0.0
C1099 C 0.31232 0.63948 0.81678 0.0
C1100 C 0.28453 0.65894 0.77997 0.0
H1101 H 0.23527 0.59163 0.73083 0.0
H1102 H 0.26034 0.60105 0.75163 0.0
H1103 H 0.26071 0.66266 0.76281 0.0
H1104 H 0.32643 0.69109 0.82347 0.0
H1105 H 0.31538 0.6805 0.79322 0.0
H1106 H 0.31244 0.62066 0.78051 0.0
C1107 C 0.25422 0.61141 0.7426 0.0
C1108 C 0.27223 0.65354 0.76602 0.0
C1109 C 0.23973 0.60602 0.73081 0.0
C1110 C 0.32292 0.67655 0.82174 0.0
C1111 C 0.31652 0.67052 0.80444 0.0
C1112 C 0.30134 0.63 0.77648 0.0
C1113 C 0.26007 0.63008 0.74329 0.0
C1114 C 0.27421 0.63625 0.7571 0.0
C1115 C 0.31028 0.65216 0.80207 0.0
C1116 C 0.29903 0.64713 0.78556 0.0
H1117 H 0.23009 0.64814 0.71136 0.0
H1118 H 0.25581 0.65746 0.73128 0.0
H1119 H 0.29127 0.61138 0.75553 0.0
H1120 H 0.31879 0.6358 0.84561 0.0
H1121 H 0.30758 0.62526 0.81535 0.0
C1122 C 0.57731 0.08366 0.06958 0.0
C1123 C 0.58546 0.07628 0.08571 0.0
C1124 C 0.58632 0.08194 0.05241 0.0
C1125 C 0.63032 0.06598 0.02967 0.0
H1126 H 0.59653 0.03975 0.99687 0.0
C1127 C 0.6517 0.00301 0.98666 0.0
C1128 C 0.64239 -0.00122 0.97004 0.0
C1129 C 0.64697 0.01884 0.99684 0.0
C1130 C 0.60618 0.04745 0.0055 0.0
H1131 H 0.61013 0.06318 0.09698 0.0
H1132 H 0.62577 0.06013 0.06723 0.0
H1133 H 0.58416 0.05784 0.02246 0.0
H1134 H 0.62177 0.00846 0.9503 0.0
H1135 H 0.61355 0.03625 0.96806 0.0
H1136 H 0.6524 0.05458 0.01326 0.0
C1137 C 0.6125 0.06725 0.06764 0.0
C1138 C 0.59905 0.05789 0.02022 0.0
C1139 C 0.60347 0.06885 0.08472 0.0
C1140 C 0.62906 0.01129 0.96318 0.0
C1141 C 0.62433 0.02717 0.97336 0.0
C1142 C 0.63746 0.05554 0.01491 0.0
C1143 C 0.60366 0.07295 0.05117 0.0
C1144 C 0.61106 0.06653 0.03299 0.0
C1145 C 0.63284 0.03082 0.99059 0.0
C1146 C 0.62548 0.04544 0.0032 0.0
H1147 H 0.56344 0.08952 0.06998 0.0
H1148 H 0.57927 0.08667 0.03997 0.0
H1149 H 0.63991 0.07276 0.03911 0.0
H1150 H 0.66209 0.99366 0.99226 0.0
H1151 H 0.65366 0.02105 0.01015 0.0
C1152 C 0.66807 0.14694 0.64845 0.0
C1153 C 0.66707 0.16638 0.64702 0.0
C1154 C 0.67391 0.13864 0.66501 0.0
C1155 C 0.68813 0.1486 0.71418 0.0
H1156 H 0.72708 0.11311 0.70274 0.0
C1157 C 0.75269 0.13733 0.76023 0.0
C1158 C 0.75925 0.1191 0.76257 0.0
C1159 C 0.73795 0.14097 0.74812 0.0
C1160 C 0.71605 0.12274 0.70626 0.0
H1161 H 0.66948 0.19228 0.66226 0.0
H1162 H 0.68009 0.17795 0.69088 0.0
H1163 H 0.70573 0.12272 0.67849 0.0
H1164 H 0.75539 0.09034 0.75435 0.0
H1165 H 0.72977 0.09675 0.73302 0.0
H1166 H 0.69931 0.14926 0.74181 0.0
C1167 C 0.67623 0.16898 0.67942 0.0
C1168 C 0.70369 0.1282 0.69236 0.0
C1169 C 0.6702 0.17725 0.66293 0.0
C1170 C 0.75069 0.10455 0.75273 0.0
C1171 C 0.73604 0.10821 0.74053 0.0
C1172 C 0.70063 0.14323 0.72807 0.0
C1173 C 0.67906 0.14965 0.68035 0.0
C1174 C 0.68985 0.14154 0.69601 0.0
C1175 C 0.72958 0.12646 0.73804 0.0
C1176 C 0.71497 0.13057 0.72411 0.0
H1177 H 0.66552 0.13821 0.63644 0.0
H1178 H 0.67544 0.12367 0.66542 0.0
H1179 H 0.67747 0.15867 0.71755 0.0
H1180 H 0.75899 0.1488 0.7677 0.0
H1181 H 0.73343 0.15521 0.74627 0.0
C1182 C 0.11853 0.49185 0.01363 0.0
C1183 C 0.13691 0.49827 0.01493 0.0
C1184 C 0.11425 0.47651 0.00253 0.0
C1185 C 0.13048 0.45354 0.96064 0.0
H1186 H 0.09136 0.41835 0.9724 0.0
C1187 C 0.09651 0.41372 0.90191 0.0
C1188 C 0.07717 0.41638 0.90194 0.0
C1189 C 0.10676 0.4163 0.91823 0.0
C1190 C 0.1024 0.42798 0.96893 0.0
H1191 H 0.16535 0.49332 0.00623 0.0
H1192 H 0.15783 0.46658 0.98665 0.0
H1193 H 0.104 0.43827 0.99686 0.0
H1194 H 0.05313 0.42148 0.9194 0.0
H1195 H 0.07087 0.42632 0.94762 0.0
H1196 H 0.12814 0.44433 0.93257 0.0
C1197 C 0.14674 0.47344 0.99419 0.0
C1198 C 0.10961 0.43939 0.98293 0.0
C1199 C 0.15103 0.48874 0.00538 0.0
C1200 C 0.06806 0.41953 0.91892 0.0
C1201 C 0.07828 0.42219 0.93518 0.0
C1202 C 0.12321 0.44225 0.94665 0.0
C1203 C 0.12826 0.46734 0.99244 0.0
C1204 C 0.12321 0.45277 0.97875 0.0
C1205 C 0.09783 0.42165 0.9348 0.0
C1206 C 0.10854 0.42988 0.95045 0.0
H1207 H 0.10737 0.49888 0.02091 0.0
H1208 H 0.09984 0.47233 0.00124 0.0
H1209 H 0.14085 0.46381 0.95694 0.0
H1210 H 0.10389 0.41107 0.88904 0.0
H1211 H 0.12178 0.41534 0.91758 0.0
C1212 C 0.74868 0.86692 0.27888 0.0
C1213 C 0.73985 0.88356 0.27379 0.0
C1214 C 0.76406 0.86051 0.2689 0.0
C1215 C 0.79806 0.87354 0.23173 0.0
H1216 H 0.79271 0.82173 0.21795 0.0
C1217 C 0.81479 0.84405 0.16018 0.0
C1218 C 0.81896 0.82507 0.15832 0.0
C1219 C 0.81259 0.85192 0.17779 0.0
C1220 C 0.79485 0.83609 0.22196 0.0
H1221 H 0.74062 0.90698 0.25487 0.0
H1222 H 0.76698 0.89554 0.23704 0.0
H1223 H 0.77396 0.83424 0.24289 0.0
H1224 H 0.82635 0.79999 0.1733 0.0
H1225 H 0.82265 0.8138 0.2041 0.0
H1226 H 0.81817 0.87552 0.2098 0.0
C1227 C 0.76239 0.88758 0.24896 0.0
C1228 C 0.78402 0.84331 0.23633 0.0
C1229 C 0.74713 0.89407 0.25906 0.0
C1230 C 0.82291 0.81461 0.17433 0.0
C1231 C 0.82072 0.82249 0.19196 0.0
C1232 C 0.80886 0.86632 0.21726 0.0
C1233 C 0.77079 0.87051 0.2535 0.0
C1234 C 0.78497 0.86228 0.24091 0.0
C1235 C 0.81454 0.84094 0.19384 0.0
C1236 C 0.80684 0.84767 0.21177 0.0
H1237 H 0.74349 0.85866 0.29036 0.0
H1238 H 0.77038 0.84746 0.27295 0.0
H1239 H 0.79942 0.88813 0.2352 0.0
H1240 H 0.81182 0.85249 0.14807 0.0
H1241 H 0.80777 0.86615 0.17871 0.0
C1242 C 0.3546 0.49752 0.51153 0.0
C1243 C 0.36744 0.49052 0.52443 0.0
C1244 C 0.35936 0.51238 0.50001 0.0
C1245 C 0.4008 0.53578 0.48074 0.0
H1246 H 0.36378 0.56958 0.46086 0.0
C1247 C 0.41976 0.58381 0.42111 0.0
C1248 C 0.40872 0.57987 0.40549 0.0
C1249 C 0.41374 0.57875 0.43887 0.0
C1250 C 0.37429 0.56037 0.46647 0.0
H1251 H 0.395 0.49403 0.53606 0.0
H1252 H 0.40316 0.5204 0.5164 0.0
H1253 H 0.35554 0.54881 0.48646 0.0
H1254 H 0.38191 0.56961 0.3963 0.0
H1255 H 0.37132 0.56094 0.42729 0.0
H1256 H 0.41941 0.54707 0.46056 0.0
C1257 C 0.3896 0.51409 0.51472 0.0
C1258 C 0.36957 0.54835 0.481 0.0
C1259 C 0.38493 0.49902 0.52604 0.0
C1260 C 0.39075 0.57269 0.4081 0.0
C1261 C 0.38465 0.56781 0.42587 0.0
C1262 C 0.40556 0.54794 0.46643 0.0
C1263 C 0.37699 0.52078 0.50134 0.0
C1264 C 0.3826 0.53548 0.4879 0.0
C1265 C 0.3965 0.56988 0.44127 0.0
C1266 C 0.39222 0.55996 0.45878 0.0
H1267 H 0.34101 0.4912 0.51 0.0
H1268 H 0.34939 0.51686 0.48965 0.0
H1269 H 0.41115 0.52592 0.48542 0.0
H1270 H 0.43365 0.58941 0.41951 0.0
H1271 H 0.42303 0.58068 0.45056 0.0
C1272 C 0.22498 0.24121 0.37972 0.0
C1273 C 0.22968 0.25978 0.37579 0.0
C1274 C 0.23815 0.22706 0.37763 0.0
C1275 C 0.28878 0.21977 0.37608 0.0
H1276 H 0.27705 0.17372 0.35059 0.0
C1277 C 0.3315 0.16529 0.33048 0.0
C1278 C 0.34796 0.16515 0.341 0.0
C1279 C 0.31497 0.17189 0.33824 0.0
C1280 C 0.28049 0.18645 0.35787 0.0
H1281 H 0.25167 0.27805 0.36629 0.0
H1282 H 0.27459 0.2534 0.36252 0.0
H1283 H 0.25248 0.19653 0.35637 0.0
H1284 H 0.35951 0.16933 0.36853 0.0
H1285 H 0.33052 0.18037 0.38223 0.0
H1286 H 0.31686 0.21036 0.3768 0.0
C1287 C 0.26083 0.24979 0.36746 0.0
C1288 C 0.26642 0.19945 0.36126 0.0
C1289 C 0.24766 0.26389 0.36947 0.0
C1290 C 0.34708 0.16952 0.36001 0.0
C1291 C 0.33051 0.17599 0.36782 0.0
C1292 C 0.3028 0.20682 0.37274 0.0
C1293 C 0.25628 0.23125 0.3717 0.0
C1294 C 0.27056 0.21648 0.36992 0.0
C1295 C 0.31459 0.17834 0.3567 0.0
C1296 C 0.29895 0.19021 0.36316 0.0
H1297 H 0.2112 0.23764 0.38464 0.0
H1298 H 0.23428 0.21292 0.38105 0.0
H1299 H 0.29233 0.23263 0.38309 0.0
H1300 H 0.33173 0.16191 0.31579 0.0
H1301 H 0.303 0.17349 0.32925 0.0
C1302 C 0.01497 0.96924 0.61261 0.0
C1303 C 0.0034 0.97468 0.62738 0.0
C1304 C 0.03065 0.97977 0.60803 0.0
C1305 C 0.0616 0.01748 0.62511 0.0
H1306 H 0.06216 0.03284 0.57348 0.0
C1307 C 0.07968 0.09035 0.60146 0.0
C1308 C 0.08543 0.09355 0.58308 0.0
C1309 C 0.07727 0.07225 0.60794 0.0
C1310 C 0.06271 0.02838 0.58785 0.0
H1311 H -0.00047 0.9949 0.64942 0.0
H1312 H 0.02671 0.01334 0.64135 0.0
H1313 H 0.04271 0.00698 0.58289 0.0
H1314 H 0.09534 0.08044 0.5578 0.0
H1315 H 0.09136 0.04873 0.56923 0.0
H1316 H 0.08091 0.03955 0.6302 0.0
C1317 C 0.02384 0.00087 0.6334 0.0
C1318 C 0.05146 0.01353 0.59325 0.0
C1319 C 0.00814 0.99043 0.6379 0.0
C1320 C 0.09069 0.07837 0.57198 0.0
C1321 C 0.08831 0.06021 0.57848 0.0
C1322 C 0.07293 0.03229 0.61969 0.0
C1323 C 0.0351 0.99583 0.61824 0.0
C1324 C 0.05014 0.0085 0.61207 0.0
C1325 C 0.08061 0.05698 0.59617 0.0
C1326 C 0.07293 0.03847 0.60114 0.0
H1327 H 0.01169 0.95707 0.60435 0.0
H1328 H 0.03912 0.97553 0.59631 0.0
H1329 H 0.06111 0.01363 0.63967 0.0
H1330 H 0.07567 0.1018 0.61039 0.0
H1331 H 0.07124 0.07034 0.6216 0.0
C1332 C 0.25527 0.71427 0.88273 0.0
C1333 C 0.27322 0.72178 0.88409 0.0
C1334 C 0.23989 0.72592 0.88093 0.0
C1335 C 0.22586 0.77066 0.86291 0.0
H1336 H 0.1805 0.7606 0.89026 0.0
C1337 C 0.15633 0.80578 0.8434 0.0
C1338 C 0.14171 0.79298 0.8414 0.0
C1339 C 0.17276 0.80055 0.85244 0.0
C1340 C 0.19307 0.76362 0.88254 0.0
H1341 H 0.28924 0.74732 0.88469 0.0
H1342 H 0.26221 0.76776 0.88109 0.0
H1343 H 0.2091 0.74442 0.89865 0.0
H1344 H 0.1324 0.76507 0.84801 0.0
H1345 H 0.16087 0.75596 0.86349 0.0
H1346 H 0.20963 0.78904 0.84608 0.0
C1347 C 0.26012 0.75285 0.88159 0.0
C1348 C 0.20941 0.75438 0.88736 0.0
C1349 C 0.27553 0.74118 0.88366 0.0
C1350 C 0.14345 0.77523 0.84928 0.0
C1351 C 0.15975 0.77006 0.85833 0.0
C1352 C 0.20945 0.77981 0.85796 0.0
C1353 C 0.24217 0.7453 0.88024 0.0
C1354 C 0.2258 0.75735 0.87719 0.0
C1355 C 0.17473 0.78251 0.85974 0.0
C1356 C 0.19273 0.77586 0.86731 0.0
H1357 H 0.2531 0.69937 0.88308 0.0
H1358 H 0.22621 0.71973 0.87965 0.0
H1359 H 0.23832 0.77314 0.8548 0.0
H1360 H 0.1553 0.81958 0.83746 0.0
H1361 H 0.18404 0.81049 0.85342 0.0
C1362 C 0.50217 0.02633 0.09899 0.0
C1363 C 0.51043 0.0259 0.11666 0.0
C1364 C 0.4884 0.01346 0.09426 0.0
C1365 C 0.45712 0.97703 0.11447 0.0
H1366 H 0.46138 0.95547 0.06525 0.0
C1367 C 0.43883 0.90175 0.09504 0.0
C1368 C 0.43209 0.89809 0.07708 0.0
C1369 C 0.44258 0.91997 0.1006 0.0
C1370 C 0.45969 0.96159 0.07892 0.0
H1371 H 0.51066 0.01189 0.14334 0.0
H1372 H 0.4873 0.989 0.13491 0.0
H1373 H 0.47992 0.98249 0.0732 0.0
H1374 H 0.42223 0.91069 0.05152 0.0
H1375 H 0.42893 0.94254 0.0612 0.0
H1376 H 0.43773 0.95516 0.12042 0.0
C1377 C 0.49093 -0.00044 0.12482 0.0
C1378 C 0.47034 0.97714 0.0835 0.0
C1379 C 0.5045 0.01257 0.12961 0.0
C1380 C 0.42753 0.91308 0.06541 0.0
C1381 C 0.43144 0.9313 0.07091 0.0
C1382 C 0.44663 0.9613 0.10994 0.0
C1383 C 0.48279 -0.00029 0.10703 0.0
C1384 C 0.46956 0.98479 0.10148 0.0
C1385 C 0.43976 0.93482 0.08822 0.0
C1386 C 0.44815 0.9532 0.09224 0.0
H1387 H 0.50636 0.03661 0.08881 0.0
H1388 H 0.48224 0.01421 0.08054 0.0
H1389 H 0.45583 0.98281 0.12832 0.0
H1390 H 0.4424 0.89046 0.10435 0.0
H1391 H 0.44905 0.92227 0.114 0.0
C1392 C 0.72253 0.24155 0.60545 0.0
C1393 C 0.72257 0.22203 0.60634 0.0
C1394 C 0.73873 0.2516 0.60919 0.0
C1395 C 0.78966 0.24701 0.61135 0.0
H1396 H 0.78726 0.28664 0.64787 0.0
C1397 C 0.85199 0.26791 0.65544 0.0
C1398 C 0.85466 0.28657 0.66047 0.0
C1399 C 0.83632 0.26256 0.64544 0.0
C1400 C 0.78814 0.27591 0.63734 0.0
H1401 H 0.73956 0.1977 0.61156 0.0
H1402 H 0.76786 0.21523 0.61803 0.0
H1403 H 0.75858 0.27233 0.63668 0.0
H1404 H 0.84332 0.31442 0.65856 0.0
H1405 H 0.81564 0.30499 0.64096 0.0
H1406 H 0.8192 0.25021 0.61232 0.0
C1407 C 0.75535 0.22276 0.61434 0.0
C1408 C 0.77172 0.26768 0.63098 0.0
C1409 C 0.73913 0.21273 0.61078 0.0
C1410 C 0.84156 0.29992 0.65487 0.0
C1411 C 0.82573 0.29452 0.64488 0.0
C1412 C 0.80604 0.25528 0.61762 0.0
C1413 C 0.7553 0.24229 0.61367 0.0
C1414 C 0.77238 0.25276 0.61837 0.0
C1415 C 0.82288 0.27573 0.64023 0.0
C1416 C 0.80549 0.26939 0.63115 0.0
H1417 H 0.70993 0.24907 0.60204 0.0
H1418 H 0.73834 0.26664 0.60852 0.0
H1419 H 0.79054 0.23578 0.60135 0.0
H1420 H 0.86185 0.2573 0.65954 0.0
H1421 H 0.83441 0.24793 0.64238 0.0
C1422 C 0.99341 0.4727 0.859 0.0
C1423 C 0.01203 0.47472 0.86456 0.0
C1424 C 0.98071 0.48716 0.86173 0.0
C1425 C 0.97892 0.53778 0.86908 0.0
H1426 H 0.9301 0.52851 0.89002 0.0
C1427 C 0.93307 0.599 0.88783 0.0
C1428 C 0.92666 0.59841 0.90626 0.0
C1429 C 0.93904 0.58279 0.879 0.0
C1430 C 0.94364 0.5313 0.88407 0.0
H1431 H 0.03194 0.49325 0.87756 0.0
H1432 H 0.0098 0.51838 0.88247 0.0
H1433 H 0.95054 0.50234 0.8827 0.0
H1434 H 0.91971 0.58026 0.92928 0.0
H1435 H 0.93053 0.55202 0.91408 0.0
H1436 H 0.97261 0.56664 0.87127 0.0
C1437 C 0.00504 0.50577 0.87575 0.0
C1438 C 0.95529 0.51632 0.87976 0.0
C1439 C 0.01769 0.49134 0.87307 0.0
C1440 C 0.92463 0.58112 0.91506 0.0
C1441 C 0.93079 0.56491 0.9063 0.0
C1442 C 0.96733 0.5527 0.87336 0.0
C1443 C 0.98645 0.5039 0.86998 0.0
C1444 C 0.97324 0.51947 0.87269 0.0
C1445 C 0.93892 0.56573 0.88853 0.0
C1446 C 0.94972 0.54968 0.8813 0.0
H1447 H 0.98868 0.46002 0.85239 0.0
H1448 H 0.9665 0.48536 0.85708 0.0
H1449 H 0.99255 0.54063 0.86334 0.0
H1450 H 0.93455 0.61215 0.88063 0.0
H1451 H 0.94478 0.5838 0.86511 0.0
C1452 C 0.65752 0.66522 0.15228 0.0
C1453 C 0.65572 0.66825 0.17149 0.0
C1454 C 0.67468 0.66798 0.14351 0.0
C1455 C 0.72471 0.67981 0.15266 0.0
H1456 H 0.71751 0.71341 0.11115 0.0
C1457 C 0.76975 0.74379 0.13898 0.0
C1458 C 0.77393 0.74886 0.12061 0.0
C1459 C 0.75853 0.72838 0.14259 0.0
C1460 C 0.71988 0.70374 0.12244 0.0
H1461 H 0.67069 0.67467 0.19685 0.0
H1462 H 0.70028 0.67983 0.18169 0.0
H1463 H 0.69164 0.69473 0.12209 0.0
H1464 H 0.77025 0.74147 0.0916 0.0
H1465 H 0.75022 0.71469 0.09793 0.0
H1466 H 0.75267 0.69007 0.15379 0.0
C1467 C 0.6887 0.67518 0.17326 0.0
C1468 C 0.70504 0.69292 0.1287 0.0
C1469 C 0.67164 0.67238 0.18199 0.0
C1470 C 0.76718 0.73789 0.10591 0.0
C1471 C 0.75574 0.7226 0.10951 0.0
C1472 C 0.7395 0.6908 0.14652 0.0
C1473 C 0.69026 0.67385 0.15381 0.0
C1474 C 0.70705 0.68143 0.1444 0.0
C1475 C 0.7511 0.71786 0.12788 0.0
C1476 C 0.73699 0.7034 0.13182 0.0
H1477 H 0.64549 0.66188 0.14386 0.0
H1478 H 0.67549 0.66647 0.12854 0.0
H1479 H 0.72686 0.67079 0.16452 0.0
H1480 H 0.77484 0.75195 0.15059 0.0
H1481 H 0.75497 0.72521 0.15688 0.0
C1482 C 0.49255 0.53181 0.35557 0.0
C1483 C 0.47804 0.53498 0.36827 0.0
C1484 C 0.50568 0.51789 0.35893 0.0
C1485 C 0.52514 0.48766 0.39551 0.0
H1486 H 0.53016 0.45111 0.35613 0.0
C1487 C 0.5614 0.41781 0.40856 0.0
C1488 C 0.54933 0.40294 0.40476 0.0
C1489 C 0.55772 0.43547 0.4013 0.0
C1490 C 0.52912 0.46133 0.36715 0.0
H1491 H 0.46627 0.52669 0.39474 0.0
H1492 H 0.48925 0.50247 0.40067 0.0
H1493 H 0.51391 0.4803 0.35 0.0
H1494 H 0.52492 0.39437 0.3893 0.0
H1495 H 0.51866 0.42503 0.37645 0.0
H1496 H 0.5395 0.4683 0.41292 0.0
C1497 C 0.49052 0.51075 0.38816 0.0
C1498 C 0.51992 0.47806 0.36363 0.0
C1499 C 0.47728 0.5245 0.3847 0.0
C1500 C 0.5344 0.40564 0.3925 0.0
C1501 C 0.53089 0.42317 0.38505 0.0
C1502 C 0.53449 0.47101 0.39898 0.0
C1503 C 0.50466 0.50709 0.37516 0.0
C1504 C 0.51726 0.49107 0.37797 0.0
C1505 C 0.54212 0.4384 0.3899 0.0
C1506 C 0.53597 0.45741 0.38501 0.0
H1507 H 0.49347 0.53972 0.34279 0.0
H1508 H 0.51649 0.5154 0.34873 0.0
H1509 H 0.52344 0.49755 0.40674 0.0
H1510 H 0.573 0.41607 0.418 0.0
H1511 H 0.56663 0.44698 0.40516 0.0
C1512 C 0.38234 0.22015 0.26205 0.0
C1513 C 0.37955 0.21939 0.28139 0.0
C1514 C 0.37591 0.23536 0.25179 0.0
C1515 C 0.34182 0.27356 0.25446 0.0
H1516 H 0.3724 0.29752 0.21702 0.0
C1517 C 0.32769 0.34751 0.23128 0.0
C1518 C 0.32658 0.35107 0.21212 0.0
C1519 C 0.33463 0.33068 0.23775 0.0
C1520 C 0.36365 0.29078 0.22726 0.0
H1521 H 0.36821 0.23401 0.30519 0.0
H1522 H 0.35724 0.26057 0.28741 0.0
H1523 H 0.38353 0.26914 0.23229 0.0
H1524 H 0.33261 0.34014 0.18467 0.0
H1525 H 0.34504 0.31042 0.19615 0.0
H1526 H 0.32221 0.29538 0.24988 0.0
C1527 C 0.36405 0.24931 0.28008 0.0
C1528 C 0.36998 0.27457 0.23598 0.0
C1529 C 0.37044 0.23415 0.29029 0.0
C1530 C 0.33329 0.33771 0.19952 0.0
C1531 C 0.34039 0.32078 0.20606 0.0
C1532 C 0.33558 0.28972 0.24585 0.0
C1533 C 0.36656 0.25003 0.2607 0.0
C1534 C 0.3593 0.26608 0.25001 0.0
C1535 C 0.34068 0.317 0.22523 0.0
C1536 C 0.34661 0.29873 0.23252 0.0
H1537 H 0.38934 0.20893 0.25484 0.0
H1538 H 0.37796 0.23549 0.23687 0.0
H1539 H 0.33306 0.26707 0.26485 0.0
H1540 H 0.3228 0.35758 0.24137 0.0
H1541 H 0.33505 0.32825 0.25262 0.0
C1542 C 0.84827 0.15704 0.8146 0.0
C1543 C 0.82932 0.15495 0.81878 0.0
C1544 C 0.85618 0.17472 0.81357 0.0
C1545 C 0.84018 0.22026 0.79944 0.0
H1546 H 0.89266 0.23208 0.80267 0.0
C1547 C 0.87055 0.27854 0.75492 0.0
C1548 C 0.8862 0.27295 0.74465 0.0
C1549 C 0.86473 0.26826 0.77033 0.0
C1550 C 0.87794 0.22904 0.80176 0.0
H1551 H 0.80435 0.16944 0.82747 0.0
H1552 H 0.81824 0.20036 0.82591 0.0
H1553 H 0.8802 0.2059 0.82038 0.0
H1554 H 0.90865 0.25292 0.74304 0.0
H1555 H 0.89827 0.23471 0.76957 0.0
H1556 H 0.83801 0.24253 0.78002 0.0
C1557 C 0.82688 0.18838 0.82299 0.0
C1558 C 0.8708 0.21409 0.81194 0.0
C1559 C 0.81895 0.17067 0.82396 0.0
C1560 C 0.89648 0.2575 0.75065 0.0
C1561 C 0.89062 0.24717 0.76599 0.0
C1562 C 0.84729 0.23515 0.78929 0.0
C1563 C 0.84528 0.19065 0.81676 0.0
C1564 C 0.85199 0.20905 0.81023 0.0
C1565 C 0.87439 0.25214 0.77572 0.0
C1566 C 0.8664 0.23921 0.78969 0.0
H1567 H 0.85665 0.14515 0.8107 0.0
H1568 H 0.87036 0.17591 0.80867 0.0
H1569 H 0.82567 0.21668 0.79756 0.0
H1570 H 0.86249 0.29055 0.75073 0.0
H1571 H 0.85232 0.2726 0.77769 0.0
C1572 C 0.97004 0.62257 0.9923 0.0
C1573 C 0.97367 0.63027 0.97471 0.0
C1574 C 0.98464 0.6184 0.00443 0.0
C1575 C 0.03369 0.62954 0.01405 0.0
H1576 H 0.03638 0.57978 0.03457 0.0
C1577 C 0.10198 0.59319 0.02996 0.0
C1578 C 0.10314 0.58017 0.04443 0.0
C1579 C 0.0853 0.60228 0.02626 0.0
C1580 C 0.03566 0.59389 0.02939 0.0
H1581 H 0.99532 0.63981 0.95605 0.0
H1582 H 0.02082 0.63257 0.9772 0.0
H1583 H 0.00831 0.58973 0.01834 0.0
H1584 H 0.08816 0.56717 0.06709 0.0
H1585 H 0.05872 0.5831 0.06053 0.0
H1586 H 0.06124 0.63353 0.02453 0.0
C1587 C 0.00669 0.62986 0.98168 0.0
C1588 C 0.0196 0.59955 0.02002 0.0
C1589 C 0.99212 0.63384 0.9695 0.0
C1590 C 0.08759 0.57716 0.05584 0.0
C1591 C 0.07076 0.58618 0.05202 0.0
C1592 C 0.04968 0.62393 0.02349 0.0
C1593 C 0.00311 0.62209 -0.00075 0.0
C1594 C 0.01876 0.61719 0.01168 0.0
C1595 C 0.06935 0.59848 0.03688 0.0
C1596 C 0.05111 0.6058 0.03064 0.0
H1597 H 0.95591 0.61971 0.99668 0.0
H1598 H 0.98151 0.61244 0.0179 0.0
H1599 H 0.03324 0.64335 0.00808 0.0
H1600 H 0.11379 0.59584 0.02099 0.0
H1601 H 0.08468 0.61147 0.01435 0.0
C1602 C 0.65325 0.84209 0.31102 0.0
C1603 C 0.65434 0.85579 0.29715 0.0
C1604 C 0.64343 0.82559 0.30769 0.0
C1605 C 0.61026 0.80334 0.27464 0.0
H1606 H 0.64071 0.75939 0.28153 0.0
C1607 C 0.61 0.74231 0.22415 0.0
C1608 C 0.61036 0.72411 0.23113 0.0
C1609 C 0.61152 0.75744 0.23618 0.0
C1610 C 0.63183 0.77144 0.27986 0.0
H1611 H 0.64509 0.86367 0.26957 0.0
H1612 H 0.6281 0.83518 0.26379 0.0
H1613 H 0.6495 0.78844 0.29672 0.0
H1614 H 0.6125 0.70738 0.25612 0.0
H1615 H 0.61566 0.73402 0.27719 0.0
H1616 H 0.59332 0.78661 0.25676 0.0
C1617 C 0.63466 0.837 0.27724 0.0
C1618 C 0.63682 0.78807 0.28862 0.0
C1619 C 0.64456 0.85328 0.28047 0.0
C1620 C 0.61222 0.7213 0.25039 0.0
C1621 C 0.61401 0.73648 0.26242 0.0
C1622 C 0.60537 0.78678 0.26579 0.0
C1623 C 0.63438 0.82274 0.29057 0.0
C1624 C 0.62654 0.80438 0.28541 0.0
C1625 C 0.61364 0.75469 0.2554 0.0
C1626 C 0.61656 0.77091 0.26771 0.0
H1627 H 0.66069 0.84373 0.32401 0.0
H1628 H 0.64337 0.81486 0.31825 0.0
H1629 H 0.60186 0.8156 0.27221 0.0
H1630 H 0.60852 0.74488 0.20939 0.0
H1631 H 0.6115 0.77134 0.23036 0.0
C1632 C 0.40076 0.39537 0.56203 0.0
C1633 C 0.39955 0.41303 0.57025 0.0
C1634 C 0.41807 0.38759 0.55803 0.0
C1635 C 0.46339 0.40536 0.54466 0.0
H1636 H 0.47365 0.35316 0.53604 0.0
C1637 C 0.52236 0.38176 0.49582 0.0
C1638 C 0.51687 0.36846 0.48261 0.0
C1639 C 0.51108 0.38562 0.51117 0.0
C1640 C 0.47101 0.36779 0.53842 0.0
H1641 H 0.41538 0.43533 0.58295 0.0
H1642 H 0.44567 0.42156 0.57627 0.0
H1643 H 0.44855 0.36209 0.55712 0.0
H1644 H 0.49552 0.34847 0.47526 0.0
H1645 H 0.47572 0.3554 0.50186 0.0
H1646 H 0.48525 0.41109 0.52539 0.0
C1647 C 0.43325 0.41395 0.57244 0.0
C1648 C 0.45668 0.37291 0.55052 0.0
C1649 C 0.4159 0.42177 0.5764 0.0
C1650 C 0.50008 0.35885 0.48519 0.0
C1651 C 0.48884 0.36267 0.50055 0.0
C1652 C 0.47774 0.40025 0.53265 0.0
C1653 C 0.43451 0.3973 0.56225 0.0
C1654 C 0.45224 0.39175 0.55321 0.0
C1655 C 0.49413 0.3762 0.51363 0.0
C1656 C 0.48124 0.38143 0.52886 0.0
H1657 H 0.38837 0.38823 0.55727 0.0
H1658 H 0.41845 0.37477 0.55014 0.0
H1659 H 0.46023 0.42 0.54615 0.0
H1660 H 0.53532 0.38928 0.49425 0.0
H1661 H 0.51557 0.39605 0.52107 0.0
C1662 C 0.1606 0.66784 0.67652 0.0
C1663 C 0.15177 0.65044 0.67704 0.0
C1664 C 0.15081 0.68392 0.68129 0.0
C1665 C 0.11179 0.69557 0.71185 0.0
H1666 H 0.12561 0.74608 0.69913 0.0
C1667 C 0.0876 0.75717 0.75641 0.0
C1668 C 0.1021 0.76898 0.76204 0.0
C1669 C 0.09028 0.74456 0.74187 0.0
C1670 C 0.12155 0.73204 0.70276 0.0
H1671 H 0.12536 0.63641 0.68061 0.0
H1672 H 0.10807 0.66456 0.68818 0.0
H1673 H 0.13564 0.7204 0.67923 0.0
H1674 H 0.13045 0.7775 0.75638 0.0
H1675 H 0.1352 0.75536 0.73112 0.0
H1676 H 0.09823 0.70708 0.73562 0.0
C1677 C 0.1227 0.66575 0.68484 0.0
C1678 C 0.1273 0.71733 0.69139 0.0
C1679 C 0.13256 0.64964 0.68035 0.0
C1680 C 0.11906 0.76849 0.75239 0.0
C1681 C 0.12172 0.75593 0.7378 0.0
C1682 C 0.10595 0.71024 0.72309 0.0
C1683 C 0.13196 0.68292 0.68644 0.0
C1684 C 0.12298 0.69885 0.69613 0.0
C1685 C 0.10748 0.74358 0.73264 0.0
C1686 C 0.11124 0.72857 0.71899 0.0
H1687 H 0.17541 0.66887 0.67399 0.0
H1688 H 0.15847 0.69683 0.68241 0.0
H1689 H 0.10846 0.68156 0.71622 0.0
H1690 H 0.07432 0.75734 0.76351 0.0
H1691 H 0.07901 0.73532 0.73808 0.0
C1692 C 0.47758 0.85779 0.99286 0.0
C1693 C 0.48156 0.8601 0.01186 0.0
C1694 C 0.49102 0.86193 0.97943 0.0
C1695 C 0.54131 0.86691 0.97306 0.0
H1696 H 0.52951 0.90342 0.93519 0.0
C1697 C 0.58265 0.92854 0.93869 0.0
C1698 C 0.59953 0.91961 0.9347 0.0
C1699 C 0.56651 0.91818 0.94147 0.0
C1700 C 0.53293 0.89298 0.94548 0.0
H1701 H 0.50264 0.86828 0.03178 0.0
H1702 H 0.52616 0.87529 0.00838 0.0
H1703 H 0.50464 0.89058 0.95457 0.0
H1704 H 0.61249 0.89309 0.92864 0.0
H1705 H 0.58421 0.87488 0.9337 0.0
H1706 H 0.56966 0.86999 0.96483 0.0
C1707 C 0.5127 0.87027 0.00386 0.0
C1708 C 0.51872 0.8856 0.9565 0.0
C1709 C 0.49921 0.86641 0.01723 0.0
C1710 C 0.59966 0.9003 0.9318 0.0
C1711 C 0.58351 0.88989 0.93476 0.0
C1712 C 0.55546 0.87413 0.96196 0.0
C1713 C 0.50872 0.8681 0.98485 0.0
C1714 C 0.52294 0.8731 0.97089 0.0
C1715 C 0.567 0.89868 0.94045 0.0
C1716 C 0.55152 0.8878 0.94857 0.0
H1717 H 0.46405 0.85294 0.98836 0.0
H1718 H 0.48765 0.86019 0.96485 0.0
H1719 H 0.54486 0.85712 0.98394 0.0
H1720 H 0.58216 0.94344 0.94087 0.0
H1721 H 0.55406 0.92537 0.94595 0.0
C1722 C 0.8882 0.09792 0.47192 0.0
C1723 C 0.88842 0.0856 0.4568 0.0
C1724 C 0.90472 0.10551 0.47865 0.0
C1725 C 0.9409 0.10571 0.49928 0.0
H1726 H 0.9842 0.11838 0.4698 0.0
C1727 C 0.01289 0.11261 0.53277 0.0
C1728 C 0.02419 0.12735 0.52686 0.0
C1729 C 0.99666 0.10819 0.52308 0.0
C1730 C 0.97218 0.11504 0.47823 0.0
H1731 H 0.90585 0.07236 0.4361 0.0
H1732 H 0.93489 0.08521 0.44815 0.0
H1733 H 0.95477 0.11148 0.4543 0.0
H1734 H 0.02762 0.14888 0.50603 0.0
H1735 H -0.00093 0.14142 0.48931 0.0
H1736 H 0.95804 0.10961 0.52319 0.0
C1737 C 0.92194 0.08928 0.45466 0.0
C1738 C 0.95537 0.11092 0.46934 0.0
C1739 C 0.90532 0.08188 0.44776 0.0
C1740 C 0.01916 0.13741 0.51089 0.0
C1741 C 0.00286 0.13307 0.50125 0.0
C1742 C 0.95761 0.1099 0.50814 0.0
C1743 C 0.92186 0.10068 0.47058 0.0
C1744 C 0.93955 0.10613 0.47978 0.0
C1745 C 0.99132 0.11853 0.50736 0.0
C1746 C 0.9735 0.11445 0.49774 0.0
H1747 H 0.87531 0.10119 0.479 0.0
H1748 H 0.90411 0.11466 0.49059 0.0
H1749 H 0.92912 0.10175 0.50779 0.0
H1750 H 0.01651 0.10453 0.54495 0.0
H1751 H 0.98828 0.09667 0.52794 0.0
loop_
_geom_bond_atom_site_label_1
_geom_bond_atom_site_label_2
_geom_bond_distance
_geom_bond_site_symmetry_2
_ccdc_geom_bond_type
In0 O1 2.294 . S
In0 O2 2.326 . S
In0 O6 2.266 . S
In0 O7 2.326 . S
In0 O8 2.266 . S
In0 O9 2.326 . S
In0 O11 2.294 . S
In0 O12 2.326 . S
O1 In0 2.294 . S
O1 C10 1.240 . S
O2 In0 2.326 . S
O2 C10 1.252 . S
C3 O6 1.252 . S
C3 O7 1.260 . S
C4 O11 1.240 . S
C4 O12 1.252 . S
C5 O8 1.252 . S
C5 O9 1.260 . S
O6 In0 2.266 . S
O6 C3 1.252 . S
O7 In0 2.326 . S
O7 C3 1.260 . S
O8 In0 2.266 . S
O8 C5 1.252 . S
O9 In0 2.326 . S
O9 C5 1.260 . S
C10 O1 1.240 . S
C10 O2 1.252 . S
O11 In0 2.294 . S
O11 C4 1.240 . S
O12 In0 2.326 . S
O12 C4 1.252 . S
In13 O14 2.294 . S
In13 O15 2.326 . S
In13 O19 2.266 . S
In13 O20 2.326 . S
In13 O21 2.266 . S
In13 O22 2.326 . S
In13 O24 2.294 . S
In13 O25 2.326 . S
O14 In13 2.294 . S
O14 C23 1.240 . S
O15 In13 2.326 . S
O15 C23 1.252 . S
C16 O19 1.252 . S
C16 O20 1.260 . S
C17 O24 1.240 . S
C17 O25 1.252 . S
C18 O21 1.252 . S
C18 O22 1.260 . S
O19 In13 2.266 . S
O19 C16 1.252 . S
O20 In13 2.326 . S
O20 C16 1.260 . S
O21 In13 2.266 . S
O21 C18 1.252 . S
O22 In13 2.326 . S
O22 C18 1.260 . S
C23 O14 1.240 . S
C23 O15 1.252 . S
O24 In13 2.294 . S
O24 C17 1.240 . S
O25 In13 2.326 . S
O25 C17 1.252 . S
In26 O27 2.294 . S
In26 O28 2.326 . S
In26 O32 2.266 . S
In26 O33 2.326 . S
In26 O34 2.266 . S
In26 O35 2.326 . S
In26 O37 2.294 . S
In26 O38 2.326 . S
O27 In26 2.294 . S
O27 C36 1.240 . S
O28 In26 2.326 . S
O28 C36 1.252 . S
C29 O32 1.252 . S
C29 O33 1.260 . S
C30 O37 1.240 . S
C30 O38 1.252 . S
C31 O34 1.252 . S
C31 O35 1.260 . S
O32 In26 2.266 . S
O32 C29 1.252 . S
O33 In26 2.326 . S
O33 C29 1.260 . S
O34 In26 2.266 . S
O34 C31 1.252 . S
O35 In26 2.326 . S
O35 C31 1.260 . S
C36 O27 1.240 . S
C36 O28 1.252 . S
O37 In26 2.294 . S
O37 C30 1.240 . S
O38 In26 2.326 . S
O38 C30 1.252 . S
In39 O40 2.294 . S
In39 O41 2.326 . S
In39 O45 2.266 . S
In39 O46 2.326 . S
In39 O47 2.266 . S
In39 O48 2.326 . S
In39 O50 2.294 . S
In39 O51 2.326 . S
O40 In39 2.294 . S
O40 C49 1.240 . S
O41 In39 2.326 . S
O41 C49 1.252 . S
C42 O45 1.252 . S
C42 O46 1.260 . S
C43 O50 1.240 . S
C43 O51 1.252 . S
C44 O47 1.252 . S
C44 O48 1.260 . S
O45 In39 2.266 . S
O45 C42 1.252 . S
O46 In39 2.326 . S
O46 C42 1.260 . S
O47 In39 2.266 . S
O47 C44 1.252 . S
O48 In39 2.326 . S
O48 C44 1.260 . S
C49 O40 1.240 . S
C49 O41 1.252 . S
O50 In39 2.294 . S
O50 C43 1.240 . S
O51 In39 2.326 . S
O51 C43 1.252 . S
In52 O53 2.294 . S
In52 O54 2.326 . S
In52 O58 2.266 . S
In52 O59 2.326 . S
In52 O60 2.266 . S
In52 O61 2.326 . S
In52 O63 2.294 . S
In52 O64 2.326 . S
O53 In52 2.294 . S
O53 C62 1.240 . S
O54 In52 2.326 . S
O54 C62 1.252 . S
C55 O58 1.252 . S
C55 O59 1.260 . S
C56 O63 1.240 . S
C56 O64 1.252 . S
C57 O60 1.252 . S
C57 O61 1.260 . S
O58 In52 2.266 . S
O58 C55 1.252 . S
O59 In52 2.326 . S
O59 C55 1.260 . S
O60 In52 2.266 . S
O60 C57 1.252 . S
O61 In52 2.326 . S
O61 C57 1.260 . S
C62 O53 1.240 . S
C62 O54 1.252 . S
O63 In52 2.294 . S
O63 C56 1.240 . S
O64 In52 2.326 . S
O64 C56 1.252 . S
In65 O66 2.294 . S
In65 O67 2.326 . S
In65 O71 2.266 . S
In65 O72 2.326 . S
In65 O73 2.266 . S
In65 O74 2.326 . S
In65 O76 2.294 . S
In65 O77 2.326 . S
O66 In65 2.294 . S
O66 C75 1.240 . S
O67 In65 2.326 . S
O67 C75 1.252 . S
C68 O71 1.252 . S
C68 O72 1.260 . S
C69 O76 1.240 . S
C69 O77 1.252 . S
C70 O73 1.252 . S
C70 O74 1.260 . S
O71 In65 2.266 . S
O71 C68 1.252 . S
O72 In65 2.326 . S
O72 C68 1.260 . S
O73 In65 2.266 . S
O73 C70 1.252 . S
O74 In65 2.326 . S
O74 C70 1.260 . S
C75 O66 1.240 . S
C75 O67 1.252 . S
O76 In65 2.294 . S
O76 C69 1.240 . S
O77 In65 2.326 . S
O77 C69 1.252 . S
In78 O79 2.294 . S
In78 O80 2.326 . S
In78 O84 2.266 . S
In78 O85 2.326 . S
In78 O86 2.266 . S
In78 O87 2.326 . S
In78 O89 2.294 . S
In78 O90 2.326 . S
O79 In78 2.294 . S
O79 C88 1.240 . S
O80 In78 2.326 . S
O80 C88 1.252 . S
C81 O84 1.252 . S
C81 O85 1.260 . S
C82 O89 1.240 . S
C82 O90 1.252 . S
C83 O86 1.252 . S
C83 O87 1.260 . S
O84 In78 2.266 . S
O84 C81 1.252 . S
O85 In78 2.326 . S
O85 C81 1.260 . S
O86 In78 2.266 . S
O86 C83 1.252 . S
O87 In78 2.326 . S
O87 C83 1.260 . S
C88 O79 1.240 . S
C88 O80 1.252 . S
O89 In78 2.294 . S
O89 C82 1.240 . S
O90 In78 2.326 . S
O90 C82 1.252 . S
In91 O92 2.294 . S
In91 O93 2.326 . S
In91 O97 2.266 . S
In91 O98 2.326 . S
In91 O99 2.266 . S
In91 O100 2.326 . S
In91 O102 2.294 . S
In91 O103 2.326 . S
O92 In91 2.294 . S
O92 C101 1.240 . S
O93 In91 2.326 . S
O93 C101 1.252 . S
C94 O97 1.252 . S
C94 O98 1.260 . S
C95 O102 1.240 . S
C95 O103 1.252 . S
C96 O99 1.252 . S
C96 O100 1.260 . S
O97 In91 2.266 . S
O97 C94 1.252 . S
O98 In91 2.326 . S
O98 C94 1.260 . S
O99 In91 2.266 . S
O99 C96 1.252 . S
O100 In91 2.326 . S
O100 C96 1.260 . S
C101 O92 1.240 . S
C101 O93 1.252 . S
O102 In91 2.294 . S
O102 C95 1.240 . S
O103 In91 2.326 . S
O103 C95 1.252 . S
In104 O105 2.294 . S
In104 O106 2.326 . S
In104 O110 2.266 . S
In104 O111 2.326 . S
In104 O112 2.266 . S
In104 O113 2.326 . S
In104 O115 2.294 . S
In104 O116 2.326 . S
O105 In104 2.294 . S
O105 C114 1.240 . S
O106 In104 2.326 . S
O106 C114 1.252 . S
C107 O110 1.252 . S
C107 O111 1.260 . S
C108 O115 1.240 . S
C108 O116 1.252 . S
C109 O112 1.252 . S
C109 O113 1.260 . S
O110 In104 2.266 . S
O110 C107 1.252 . S
O111 In104 2.326 . S
O111 C107 1.260 . S
O112 In104 2.266 . S
O112 C109 1.252 . S
O113 In104 2.326 . S
O113 C109 1.260 . S
C114 O105 1.240 . S
C114 O106 1.252 . S
O115 In104 2.294 . S
O115 C108 1.240 . S
O116 In104 2.326 . S
O116 C108 1.252 . S
In117 O118 2.294 . S
In117 O119 2.326 . S
In117 O123 2.266 . S
In117 O124 2.326 . S
In117 O125 2.266 . S
In117 O126 2.326 . S
In117 O128 2.294 . S
In117 O129 2.326 . S
O118 In117 2.294 . S
O118 C127 1.240 . S
O119 In117 2.326 . S
O119 C127 1.252 . S
C120 O123 1.252 . S
C120 O124 1.260 . S
C121 O128 1.240 . S
C121 O129 1.252 . S
C122 O125 1.252 . S
C122 O126 1.260 . S
O123 In117 2.266 . S
O123 C120 1.252 . S
O124 In117 2.326 . S
O124 C120 1.260 . S
O125 In117 2.266 . S
O125 C122 1.252 . S
O126 In117 2.326 . S
O126 C122 1.260 . S
C127 O118 1.240 . S
C127 O119 1.252 . S
O128 In117 2.294 . S
O128 C121 1.240 . S
O129 In117 2.326 . S
O129 C121 1.252 . S
In130 O131 2.294 . S
In130 O132 2.326 . S
In130 O136 2.266 . S
In130 O137 2.326 . S
In130 O138 2.266 . S
In130 O139 2.326 . S
In130 O141 2.294 . S
In130 O142 2.326 . S
O131 In130 2.294 . S
O131 C140 1.240 . S
O132 In130 2.326 . S
O132 C140 1.252 . S
C133 O136 1.252 . S
C133 O137 1.260 . S
C134 O141 1.240 . S
C134 O142 1.252 . S
C135 O138 1.252 . S
C135 O139 1.260 . S
O136 In130 2.266 . S
O136 C133 1.252 . S
O137 In130 2.326 . S
O137 C133 1.260 . S
O138 In130 2.266 . S
O138 C135 1.252 . S
O139 In130 2.326 . S
O139 C135 1.260 . S
C140 O131 1.240 . S
C140 O132 1.252 . S
O141 In130 2.294 . S
O141 C134 1.240 . S
O142 In130 2.326 . S
O142 C134 1.252 . S
In143 O144 2.294 . S
In143 O145 2.326 . S
In143 O149 2.266 . S
In143 O150 2.326 . S
In143 O151 2.266 . S
In143 O152 2.326 . S
In143 O154 2.294 . S
In143 O155 2.326 . S
O144 In143 2.294 . S
O144 C153 1.240 . S
O145 In143 2.326 . S
O145 C153 1.252 . S
C146 O149 1.252 . S
C146 O150 1.260 . S
C147 O154 1.240 . S
C147 O155 1.252 . S
C148 O151 1.252 . S
C148 O152 1.260 . S
O149 In143 2.266 . S
O149 C146 1.252 . S
O150 In143 2.326 . S
O150 C146 1.260 . S
O151 In143 2.266 . S
O151 C148 1.252 . S
O152 In143 2.326 . S
O152 C148 1.260 . S
C153 O144 1.240 . S
C153 O145 1.252 . S
O154 In143 2.294 . S
O154 C147 1.240 . S
O155 In143 2.326 . S
O155 C147 1.252 . S
In156 O157 2.294 . S
In156 O158 2.326 . S
In156 O162 2.266 . S
In156 O163 2.326 . S
In156 O164 2.266 . S
In156 O165 2.326 . S
In156 O167 2.294 . S
In156 O168 2.326 . S
O157 In156 2.294 . S
O157 C166 1.240 . S
O158 In156 2.326 . S
O158 C166 1.252 . S
C159 O162 1.252 . S
C159 O163 1.260 . S
C160 O167 1.240 . S
C160 O168 1.252 . S
C161 O164 1.252 . S
C161 O165 1.260 . S
O162 In156 2.266 . S
O162 C159 1.252 . S
O163 In156 2.326 . S
O163 C159 1.260 . S
O164 In156 2.266 . S
O164 C161 1.252 . S
O165 In156 2.326 . S
O165 C161 1.260 . S
C166 O157 1.240 . S
C166 O158 1.252 . S
O167 In156 2.294 . S
O167 C160 1.240 . S
O168 In156 2.326 . S
O168 C160 1.252 . S
In169 O170 2.294 . S
In169 O171 2.326 . S
In169 O175 2.266 . S
In169 O176 2.326 . S
In169 O177 2.266 . S
In169 O178 2.326 . S
In169 O180 2.294 . S
In169 O181 2.326 . S
O170 In169 2.294 . S
O170 C179 1.240 . S
O171 In169 2.326 . S
O171 C179 1.252 . S
C172 O175 1.252 . S
C172 O176 1.260 . S
C173 O180 1.240 . S
C173 O181 1.252 . S
C174 O177 1.252 . S
C174 O178 1.260 . S
O175 In169 2.266 . S
O175 C172 1.252 . S
O176 In169 2.326 . S
O176 C172 1.260 . S
O177 In169 2.266 . S
O177 C174 1.252 . S
O178 In169 2.326 . S
O178 C174 1.260 . S
C179 O170 1.240 . S
C179 O171 1.252 . S
O180 In169 2.294 . S
O180 C173 1.240 . S
O181 In169 2.326 . S
O181 C173 1.252 . S
In182 O183 2.294 . S
In182 O184 2.326 . S
In182 O188 2.266 . S
In182 O189 2.326 . S
In182 O190 2.266 . S
In182 O191 2.326 . S
In182 O193 2.294 . S
In182 O194 2.326 . S
O183 In182 2.294 . S
O183 C192 1.240 . S
O184 In182 2.326 . S
O184 C192 1.252 . S
C185 O188 1.252 . S
C185 O189 1.260 . S
C186 O193 1.240 . S
C186 O194 1.252 . S
C187 O190 1.252 . S
C187 O191 1.260 . S
O188 In182 2.266 . S
O188 C185 1.252 . S
O189 In182 2.326 . S
O189 C185 1.260 . S
O190 In182 2.266 . S
O190 C187 1.252 . S
O191 In182 2.326 . S
O191 C187 1.260 . S
C192 O183 1.240 . S
C192 O184 1.252 . S
O193 In182 2.294 . S
O193 C186 1.240 . S
O194 In182 2.326 . S
O194 C186 1.252 . S
In195 O196 2.294 . S
In195 O197 2.326 . S
In195 O201 2.266 . S
In195 O202 2.326 . S
In195 O203 2.266 . S
In195 O204 2.326 . S
In195 O206 2.294 . S
In195 O207 2.326 . S
O196 In195 2.294 . S
O196 C205 1.240 . S
O197 In195 2.326 . S
O197 C205 1.252 . S
C198 O201 1.252 . S
C198 O202 1.260 . S
C199 O206 1.240 . S
C199 O207 1.252 . S
C200 O203 1.252 . S
C200 O204 1.260 . S
O201 In195 2.266 . S
O201 C198 1.252 . S
O202 In195 2.326 . S
O202 C198 1.260 . S
O203 In195 2.266 . S
O203 C200 1.252 . S
O204 In195 2.326 . S
O204 C200 1.260 . S
C205 O196 1.240 . S
C205 O197 1.252 . S
O206 In195 2.294 . S
O206 C199 1.240 . S
O207 In195 2.326 . S
O207 C199 1.252 . S
In208 O209 2.294 . S
In208 O210 2.326 . S
In208 O214 2.266 . S
In208 O215 2.326 . S
In208 O216 2.266 . S
In208 O217 2.326 . S
In208 O219 2.294 . S
In208 O220 2.326 . S
O209 In208 2.294 . S
O209 C218 1.240 . S
O210 In208 2.326 . S
O210 C218 1.252 . S
C211 O214 1.252 . S
C211 O215 1.260 . S
C212 O219 1.240 . S
C212 O220 1.252 . S
C213 O216 1.252 . S
C213 O217 1.260 . S
O214 In208 2.266 . S
O214 C211 1.252 . S
O215 In208 2.326 . S
O215 C211 1.260 . S
O216 In208 2.266 . S
O216 C213 1.252 . S
O217 In208 2.326 . S
O217 C213 1.260 . S
C218 O209 1.240 . S
C218 O210 1.252 . S
O219 In208 2.294 . S
O219 C212 1.240 . S
O220 In208 2.326 . S
O220 C212 1.252 . S
In221 O222 2.294 . S
In221 O223 2.326 . S
In221 O227 2.266 . S
In221 O228 2.326 . S
In221 O229 2.266 . S
In221 O230 2.326 . S
In221 O232 2.294 . S
In221 O233 2.326 . S
O222 In221 2.294 . S
O222 C231 1.240 . S
O223 In221 2.326 . S
O223 C231 1.252 . S
C224 O227 1.252 . S
C224 O228 1.260 . S
C225 O232 1.240 . S
C225 O233 1.252 . S
C226 O229 1.252 . S
C226 O230 1.260 . S
O227 In221 2.266 . S
O227 C224 1.252 . S
O228 In221 2.326 . S
O228 C224 1.260 . S
O229 In221 2.266 . S
O229 C226 1.252 . S
O230 In221 2.326 . S
O230 C226 1.260 . S
C231 O222 1.240 . S
C231 O223 1.252 . S
O232 In221 2.294 . S
O232 C225 1.240 . S
O233 In221 2.326 . S
O233 C225 1.252 . S
In234 O235 2.294 . S
In234 O236 2.326 . S
In234 O240 2.266 . S
In234 O241 2.326 . S
In234 O242 2.266 . S
In234 O243 2.326 . S
In234 O245 2.294 . S
In234 O246 2.326 . S
O235 In234 2.294 . S
O235 C244 1.240 . S
O236 In234 2.326 . S
O236 C244 1.252 . S
C237 O240 1.252 . S
C237 O241 1.260 . S
C238 O245 1.240 . S
C238 O246 1.252 . S
C239 O242 1.252 . S
C239 O243 1.260 . S
O240 In234 2.266 . S
O240 C237 1.252 . S
O241 In234 2.326 . S
O241 C237 1.260 . S
O242 In234 2.266 . S
O242 C239 1.252 . S
O243 In234 2.326 . S
O243 C239 1.260 . S
C244 O235 1.240 . S
C244 O236 1.252 . S
O245 In234 2.294 . S
O245 C238 1.240 . S
O246 In234 2.326 . S
O246 C238 1.252 . S
In247 O248 2.294 . S
In247 O249 2.326 . S
In247 O253 2.266 . S
In247 O254 2.326 . S
In247 O255 2.266 . S
In247 O256 2.326 . S
In247 O258 2.294 . S
In247 O259 2.326 . S
O248 In247 2.294 . S
O248 C257 1.240 . S
O249 In247 2.326 . S
O249 C257 1.252 . S
C250 O253 1.252 . S
C250 O254 1.260 . S
C251 O258 1.240 . S
C251 O259 1.252 . S
C252 O255 1.252 . S
C252 O256 1.260 . S
O253 In247 2.266 . S
O253 C250 1.252 . S
O254 In247 2.326 . S
O254 C250 1.260 . S
O255 In247 2.266 . S
O255 C252 1.252 . S
O256 In247 2.326 . S
O256 C252 1.260 . S
C257 O248 1.240 . S
C257 O249 1.252 . S
O258 In247 2.294 . S
O258 C251 1.240 . S
O259 In247 2.326 . S
O259 C251 1.252 . S
In260 O261 2.294 . S
In260 O262 2.326 . S
In260 O266 2.266 . S
In260 O267 2.326 . S
In260 O268 2.266 . S
In260 O269 2.326 . S
In260 O271 2.294 . S
In260 O272 2.326 . S
O261 In260 2.294 . S
O261 C270 1.240 . S
O262 In260 2.326 . S
O262 C270 1.252 . S
C263 O266 1.252 . S
C263 O267 1.260 . S
C264 O271 1.240 . S
C264 O272 1.252 . S
C265 O268 1.252 . S
C265 O269 1.260 . S
O266 In260 2.266 . S
O266 C263 1.252 . S
O267 In260 2.326 . S
O267 C263 1.260 . S
O268 In260 2.266 . S
O268 C265 1.252 . S
O269 In260 2.326 . S
O269 C265 1.260 . S
C270 O261 1.240 . S
C270 O262 1.252 . S
O271 In260 2.294 . S
O271 C264 1.240 . S
O272 In260 2.326 . S
O272 C264 1.252 . S
In273 O274 2.294 . S
In273 O275 2.326 . S
In273 O279 2.266 . S
In273 O280 2.326 . S
In273 O281 2.266 . S
In273 O282 2.326 . S
In273 O284 2.294 . S
In273 O285 2.326 . S
O274 In273 2.294 . S
O274 C283 1.240 . S
O275 In273 2.326 . S
O275 C283 1.252 . S
C276 O279 1.252 . S
C276 O280 1.260 . S
C277 O284 1.240 . S
C277 O285 1.252 . S
C278 O281 1.252 . S
C278 O282 1.260 . S
O279 In273 2.266 . S
O279 C276 1.252 . S
O280 In273 2.326 . S
O280 C276 1.260 . S
O281 In273 2.266 . S
O281 C278 1.252 . S
O282 In273 2.326 . S
O282 C278 1.260 . S
C283 O274 1.240 . S
C283 O275 1.252 . S
O284 In273 2.294 . S
O284 C277 1.240 . S
O285 In273 2.326 . S
O285 C277 1.252 . S
In286 O287 2.294 . S
In286 O288 2.326 . S
In286 O292 2.266 . S
In286 O293 2.326 . S
In286 O294 2.266 . S
In286 O295 2.326 . S
In286 O297 2.294 . S
In286 O298 2.326 . S
O287 In286 2.294 . S
O287 C296 1.240 . S
O288 In286 2.326 . S
O288 C296 1.252 . S
C289 O292 1.252 . S
C289 O293 1.260 . S
C290 O297 1.240 . S
C290 O298 1.252 . S
C291 O294 1.252 . S
C291 O295 1.260 . S
O292 In286 2.266 . S
O292 C289 1.252 . S
O293 In286 2.326 . S
O293 C289 1.260 . S
O294 In286 2.266 . S
O294 C291 1.252 . S
O295 In286 2.326 . S
O295 C291 1.260 . S
C296 O287 1.240 . S
C296 O288 1.252 . S
O297 In286 2.294 . S
O297 C290 1.240 . S
O298 In286 2.326 . S
O298 C290 1.252 . S
In299 O300 2.294 . S
In299 O301 2.326 . S
In299 O305 2.266 . S
In299 O306 2.326 . S
In299 O307 2.266 . S
In299 O308 2.326 . S
In299 O310 2.294 . S
In299 O311 2.326 . S
O300 In299 2.294 . S
O300 C309 1.240 . S
O301 In299 2.326 . S
O301 C309 1.252 . S
C302 O305 1.252 . S
C302 O306 1.260 . S
C303 O310 1.240 . S
C303 O311 1.252 . S
C304 O307 1.252 . S
C304 O308 1.260 . S
O305 In299 2.266 . S
O305 C302 1.252 . S
O306 In299 2.326 . S
O306 C302 1.260 . S
O307 In299 2.266 . S
O307 C304 1.252 . S
O308 In299 2.326 . S
O308 C304 1.260 . S
C309 O300 1.240 . S
C309 O301 1.252 . S
O310 In299 2.294 . S
O310 C303 1.240 . S
O311 In299 2.326 . S
O311 C303 1.252 . S
C312 C313 1.349 . S
C312 C314 1.327 . S
C312 H337 0.950 . S
C313 C312 1.349 . S
C313 C329 1.349 . S
C314 C312 1.327 . S
C314 C333 1.429 . S
C314 H338 0.950 . S
C315 C332 1.574 . S
C315 C334 1.368 . S
C315 H339 0.949 . S
H316 C320 0.949 . S
C317 C318 1.349 . S
C317 C319 1.327 . S
C317 H340 0.950 . S
C318 C317 1.349 . S
C318 C330 1.349 . S
C319 C317 1.327 . S
C319 C335 1.429 . S
C319 H341 0.950 . S
C320 H316 0.949 . S
C320 C328 1.574 . S
C320 C336 1.368 . S
H321 C329 0.950 . S
H322 C327 0.950 . S
H323 C328 0.949 . S
H324 C330 0.950 . S
H325 C331 0.950 . S
H326 C332 0.949 . S
C327 H322 0.950 . S
C327 C329 1.327 . S
C327 C333 1.429 . S
C328 C320 1.574 . S
C328 H323 0.949 . S
C328 C334 1.368 . S
C329 C313 1.349 . S
C329 H321 0.950 . S
C329 C327 1.327 . S
C330 C318 1.349 . S
C330 H324 0.950 . S
C330 C331 1.327 . S
C331 H325 0.950 . S
C331 C330 1.327 . S
C331 C335 1.429 . S
C332 C315 1.574 . S
C332 H326 0.949 . S
C332 C336 1.368 . S
C333 C314 1.429 . S
C333 C327 1.429 . S
C333 C334 1.523 . S
C334 C315 1.368 . S
C334 C328 1.368 . S
C334 C333 1.523 . S
C335 C319 1.429 . S
C335 C331 1.429 . S
C335 C336 1.523 . S
C336 C320 1.368 . S
C336 C332 1.368 . S
C336 C335 1.523 . S
H337 C312 0.950 . S
H338 C314 0.950 . S
H339 C315 0.949 . S
H340 C317 0.950 . S
H341 C319 0.950 . S
C342 C343 1.349 . S
C342 C344 1.327 . S
C342 H367 0.950 . S
C343 C342 1.349 . S
C343 C359 1.349 . S
C344 C342 1.327 . S
C344 C363 1.429 . S
C344 H368 0.950 1_655 S
C345 C362 1.574 . S
C345 C364 1.368 . S
C345 H369 0.949 1_455 S
H346 C350 0.949 . S
C347 C348 1.349 . S
C347 C349 1.327 . S
C347 H370 0.950 . S
C348 C347 1.349 . S
C348 C360 1.349 . S
C349 C347 1.327 . S
C349 C365 1.429 . S
C349 H371 0.950 . S
C350 H346 0.949 . S
C350 C358 1.574 . S
C350 C366 1.368 . S
H351 C359 0.950 . S
H352 C357 0.950 . S
H353 C358 0.949 . S
H354 C360 0.950 . S
H355 C361 0.950 . S
H356 C362 0.949 . S
C357 H352 0.950 . S
C357 C359 1.327 . S
C357 C363 1.429 . S
C358 C350 1.574 . S
C358 H353 0.949 . S
C358 C364 1.368 . S
C359 C343 1.349 . S
C359 H351 0.950 . S
C359 C357 1.327 . S
C360 C348 1.349 . S
C360 H354 0.950 . S
C360 C361 1.327 . S
C361 H355 0.950 . S
C361 C360 1.327 . S
C361 C365 1.429 . S
C362 C345 1.574 . S
C362 H356 0.949 . S
C362 C366 1.368 . S
C363 C344 1.429 . S
C363 C357 1.429 . S
C363 C364 1.523 1_655 S
C364 C345 1.368 . S
C364 C358 1.368 . S
C364 C363 1.523 1_455 S
C365 C349 1.429 . S
C365 C361 1.429 . S
C365 C366 1.523 . S
C366 C350 1.368 . S
C366 C362 1.368 . S
C366 C365 1.523 . S
H367 C342 0.950 . S
H368 C344 0.950 1_455 S
H369 C345 0.949 1_655 S
H370 C347 0.950 . S
H371 C349 0.950 . S
C372 C373 1.349 . S
C372 C374 1.327 . S
C372 H397 0.950 . S
C373 C372 1.349 . S
C373 C389 1.349 . S
C374 C372 1.327 . S
C374 C393 1.429 . S
C374 H398 0.950 . S
C375 C392 1.574 . S
C375 C394 1.368 . S
C375 H399 0.949 . S
H376 C380 0.949 1_554 S
C377 C378 1.349 . S
C377 C379 1.327 1_554 S
C377 H400 0.950 . S
C378 C377 1.349 . S
C378 C390 1.349 . S
C379 C377 1.327 1_556 S
C379 C395 1.429 1_556 S
C379 H401 0.950 . S
C380 H376 0.949 1_556 S
C380 C388 1.574 . S
C380 C396 1.368 . S
H381 C389 0.950 . S
H382 C387 0.950 . S
H383 C388 0.949 . S
H384 C390 0.950 . S
H385 C391 0.950 . S
H386 C392 0.949 . S
C387 H382 0.950 . S
C387 C389 1.327 . S
C387 C393 1.429 . S
C388 C380 1.574 . S
C388 H383 0.949 . S
C388 C394 1.368 . S
C389 C373 1.349 . S
C389 H381 0.950 . S
C389 C387 1.327 . S
C390 C378 1.349 . S
C390 H384 0.950 . S
C390 C391 1.327 . S
C391 H385 0.950 . S
C391 C390 1.327 . S
C391 C395 1.429 . S
C392 C375 1.574 . S
C392 H386 0.949 . S
C392 C396 1.368 . S
C393 C374 1.429 . S
C393 C387 1.429 . S
C393 C394 1.523 . S
C394 C375 1.368 . S
C394 C388 1.368 . S
C394 C393 1.523 . S
C395 C379 1.429 1_554 S
C395 C391 1.429 . S
C395 C396 1.523 1_554 S
C396 C380 1.368 . S
C396 C392 1.368 . S
C396 C395 1.523 1_556 S
H397 C372 0.950 . S
H398 C374 0.950 . S
H399 C375 0.949 . S
H400 C377 0.950 . S
H401 C379 0.950 . S
C402 C403 1.349 . S
C402 C404 1.327 . S
C402 H427 0.950 . S
C403 C402 1.349 . S
C403 C419 1.349 . S
C404 C402 1.327 . S
C404 C423 1.429 . S
C404 H428 0.950 . S
C405 C422 1.574 . S
C405 C424 1.368 . S
C405 H429 0.949 . S
H406 C410 0.949 . S
C407 C408 1.349 . S
C407 C409 1.327 . S
C407 H430 0.950 . S
C408 C407 1.349 . S
C408 C420 1.349 . S
C409 C407 1.327 . S
C409 C425 1.429 . S
C409 H431 0.950 . S
C410 H406 0.949 . S
C410 C418 1.574 . S
C410 C426 1.368 . S
H411 C419 0.950 . S
H412 C417 0.950 . S
H413 C418 0.949 . S
H414 C420 0.950 . S
H415 C421 0.950 . S
H416 C422 0.949 . S
C417 H412 0.950 . S
C417 C419 1.327 . S
C417 C423 1.429 . S
C418 C410 1.574 . S
C418 H413 0.949 . S
C418 C424 1.368 . S
C419 C403 1.349 . S
C419 H411 0.950 . S
C419 C417 1.327 . S
C420 C408 1.349 . S
C420 H414 0.950 . S
C420 C421 1.327 . S
C421 H415 0.950 . S
C421 C420 1.327 . S
C421 C425 1.429 . S
C422 C405 1.574 . S
C422 H416 0.949 . S
C422 C426 1.368 . S
C423 C404 1.429 . S
C423 C417 1.429 . S
C423 C424 1.523 . S
C424 C405 1.368 . S
C424 C418 1.368 . S
C424 C423 1.523 . S
C425 C409 1.429 . S
C425 C421 1.429 . S
C425 C426 1.523 . S
C426 C410 1.368 . S
C426 C422 1.368 . S
C426 C425 1.523 . S
H427 C402 0.950 . S
H428 C404 0.950 . S
H429 C405 0.949 . S
H430 C407 0.950 . S
H431 C409 0.950 . S
C432 C433 1.349 . S
C432 C434 1.327 . S
C432 H457 0.950 . S
C433 C432 1.349 . S
C433 C449 1.349 . S
C434 C432 1.327 . S
C434 C453 1.429 . S
C434 H458 0.950 . S
C435 C452 1.574 . S
C435 C454 1.368 . S
C435 H459 0.949 . S
H436 C440 0.949 . S
C437 C438 1.349 . S
C437 C439 1.327 . S
C437 H460 0.950 . S
C438 C437 1.349 . S
C438 C450 1.349 . S
C439 C437 1.327 . S
C439 C455 1.429 . S
C439 H461 0.950 . S
C440 H436 0.949 . S
C440 C448 1.574 . S
C440 C456 1.368 . S
H441 C449 0.950 . S
H442 C447 0.950 . S
H443 C448 0.949 . S
H444 C450 0.950 . S
H445 C451 0.950 . S
H446 C452 0.949 . S
C447 H442 0.950 . S
C447 C449 1.327 . S
C447 C453 1.429 . S
C448 C440 1.574 . S
C448 H443 0.949 . S
C448 C454 1.368 . S
C449 C433 1.349 . S
C449 H441 0.950 . S
C449 C447 1.327 . S
C450 C438 1.349 . S
C450 H444 0.950 . S
C450 C451 1.327 . S
C451 H445 0.950 . S
C451 C450 1.327 . S
C451 C455 1.429 . S
C452 C435 1.574 . S
C452 H446 0.949 . S
C452 C456 1.368 . S
C453 C434 1.429 . S
C453 C447 1.429 . S
C453 C454 1.523 . S
C454 C435 1.368 . S
C454 C448 1.368 . S
C454 C453 1.523 . S
C455 C439 1.429 . S
C455 C451 1.429 . S
C455 C456 1.523 . S
C456 C440 1.368 . S
C456 C452 1.368 . S
C456 C455 1.523 . S
H457 C432 0.950 . S
H458 C434 0.950 . S
H459 C435 0.949 . S
H460 C437 0.950 . S
H461 C439 0.950 . S
C462 C463 1.349 . S
C462 C464 1.327 . S
C462 H487 0.950 . S
C463 C462 1.349 . S
C463 C479 1.349 . S
C464 C462 1.327 . S
C464 C483 1.429 . S
C464 H488 0.950 . S
C465 C482 1.574 . S
C465 C484 1.368 . S
C465 H489 0.949 . S
H466 C470 0.949 1_455 S
C467 C468 1.349 . S
C467 C469 1.327 . S
C467 H490 0.950 . S
C468 C467 1.349 . S
C468 C480 1.349 . S
C469 C467 1.327 . S
C469 C485 1.429 . S
C469 H491 0.950 1_455 S
C470 H466 0.949 1_655 S
C470 C478 1.574 . S
C470 C486 1.368 . S
H471 C479 0.950 . S
H472 C477 0.950 . S
H473 C478 0.949 . S
H474 C480 0.950 . S
H475 C481 0.950 . S
H476 C482 0.949 . S
C477 H472 0.950 . S
C477 C479 1.327 . S
C477 C483 1.429 . S
C478 C470 1.574 . S
C478 H473 0.949 . S
C478 C484 1.368 . S
C479 C463 1.349 . S
C479 H471 0.950 . S
C479 C477 1.327 . S
C480 C468 1.349 . S
C480 H474 0.950 . S
C480 C481 1.327 . S
C481 H475 0.950 . S
C481 C480 1.327 . S
C481 C485 1.429 . S
C482 C465 1.574 . S
C482 H476 0.949 . S
C482 C486 1.368 . S
C483 C464 1.429 . S
C483 C477 1.429 . S
C483 C484 1.523 . S
C484 C465 1.368 . S
C484 C478 1.368 . S
C484 C483 1.523 . S
C485 C469 1.429 . S
C485 C481 1.429 . S
C485 C486 1.523 1_455 S
C486 C470 1.368 . S
C486 C482 1.368 . S
C486 C485 1.523 1_655 S
H487 C462 0.950 . S
H488 C464 0.950 . S
H489 C465 0.949 . S
H490 C467 0.950 . S
H491 C469 0.950 1_655 S
C492 C493 1.349 . S
C492 C494 1.327 . S
C492 H517 0.950 . S
C493 C492 1.349 . S
C493 C509 1.349 . S
C494 C492 1.327 . S
C494 C513 1.429 . S
C494 H518 0.950 . S
C495 C512 1.574 . S
C495 C514 1.368 . S
C495 H519 0.949 . S
H496 C500 0.949 1_556 S
C497 C498 1.349 . S
C497 C499 1.327 1_556 S
C497 H520 0.950 . S
C498 C497 1.349 . S
C498 C510 1.349 . S
C499 C497 1.327 1_554 S
C499 C515 1.429 1_554 S
C499 H521 0.950 . S
C500 H496 0.949 1_554 S
C500 C508 1.574 . S
C500 C516 1.368 . S
H501 C509 0.950 . S
H502 C507 0.950 . S
H503 C508 0.949 . S
H504 C510 0.950 . S
H505 C511 0.950 . S
H506 C512 0.949 . S
C507 H502 0.950 . S
C507 C509 1.327 . S
C507 C513 1.429 . S
C508 C500 1.574 . S
C508 H503 0.949 . S
C508 C514 1.368 . S
C509 C493 1.349 . S
C509 H501 0.950 . S
C509 C507 1.327 . S
C510 C498 1.349 . S
C510 H504 0.950 . S
C510 C511 1.327 . S
C511 H505 0.950 . S
C511 C510 1.327 . S
C511 C515 1.429 . S
C512 C495 1.574 . S
C512 H506 0.949 . S
C512 C516 1.368 . S
C513 C494 1.429 . S
C513 C507 1.429 . S
C513 C514 1.523 . S
C514 C495 1.368 . S
C514 C508 1.368 . S
C514 C513 1.523 . S
C515 C499 1.429 1_556 S
C515 C511 1.429 . S
C515 C516 1.523 1_556 S
C516 C500 1.368 . S
C516 C512 1.368 . S
C516 C515 1.523 1_554 S
H517 C492 0.950 . S
H518 C494 0.950 . S
H519 C495 0.949 . S
H520 C497 0.950 . S
H521 C499 0.950 . S
C522 C523 1.349 . S
C522 C524 1.327 . S
C522 H547 0.950 . S
C523 C522 1.349 . S
C523 C539 1.349 . S
C524 C522 1.327 . S
C524 C543 1.429 . S
C524 H548 0.950 . S
C525 C542 1.574 . S
C525 C544 1.368 . S
C525 H549 0.949 . S
H526 C530 0.949 . S
C527 C528 1.349 . S
C527 C529 1.327 . S
C527 H550 0.950 . S
C528 C527 1.349 . S
C528 C540 1.349 . S
C529 C527 1.327 . S
C529 C545 1.429 . S
C529 H551 0.950 . S
C530 H526 0.949 . S
C530 C538 1.574 . S
C530 C546 1.368 . S
H531 C539 0.950 . S
H532 C537 0.950 . S
H533 C538 0.949 . S
H534 C540 0.950 . S
H535 C541 0.950 . S
H536 C542 0.949 . S
C537 H532 0.950 . S
C537 C539 1.327 . S
C537 C543 1.429 . S
C538 C530 1.574 . S
C538 H533 0.949 . S
C538 C544 1.368 . S
C539 C523 1.349 . S
C539 H531 0.950 . S
C539 C537 1.327 . S
C540 C528 1.349 . S
C540 H534 0.950 . S
C540 C541 1.327 . S
C541 H535 0.950 . S
C541 C540 1.327 . S
C541 C545 1.429 . S
C542 C525 1.574 . S
C542 H536 0.949 . S
C542 C546 1.368 . S
C543 C524 1.429 . S
C543 C537 1.429 . S
C543 C544 1.523 . S
C544 C525 1.368 . S
C544 C538 1.368 . S
C544 C543 1.523 . S
C545 C529 1.429 . S
C545 C541 1.429 . S
C545 C546 1.523 . S
C546 C530 1.368 . S
C546 C542 1.368 . S
C546 C545 1.523 . S
H547 C522 0.950 . S
H548 C524 0.950 . S
H549 C525 0.949 . S
H550 C527 0.950 . S
H551 C529 0.950 . S
C552 C553 1.349 . S
C552 C554 1.327 . S
C552 H577 0.950 . S
C553 C552 1.349 . S
C553 C569 1.349 . S
C554 C552 1.327 . S
C554 C573 1.429 . S
C554 H578 0.950 . S
C555 C572 1.574 . S
C555 C574 1.368 . S
C555 H579 0.949 . S
H556 C560 0.949 . S
C557 C558 1.349 . S
C557 C559 1.327 . S
C557 H580 0.950 . S
C558 C557 1.349 . S
C558 C570 1.349 . S
C559 C557 1.327 . S
C559 C575 1.429 . S
C559 H581 0.950 . S
C560 H556 0.949 . S
C560 C568 1.574 . S
C560 C576 1.368 . S
H561 C569 0.950 . S
H562 C567 0.950 . S
H563 C568 0.949 . S
H564 C570 0.950 . S
H565 C571 0.950 . S
H566 C572 0.949 . S
C567 H562 0.950 . S
C567 C569 1.327 . S
C567 C573 1.429 . S
C568 C560 1.574 . S
C568 H563 0.949 . S
C568 C574 1.368 . S
C569 C553 1.349 . S
C569 H561 0.950 . S
C569 C567 1.327 . S
C570 C558 1.349 . S
C570 H564 0.950 . S
C570 C571 1.327 . S
C571 H565 0.950 . S
C571 C570 1.327 . S
C571 C575 1.429 . S
C572 C555 1.574 . S
C572 H566 0.949 . S
C572 C576 1.368 . S
C573 C554 1.429 . S
C573 C567 1.429 . S
C573 C574 1.523 . S
C574 C555 1.368 . S
C574 C568 1.368 . S
C574 C573 1.523 . S
C575 C559 1.429 . S
C575 C571 1.429 . S
C575 C576 1.523 . S
C576 C560 1.368 . S
C576 C572 1.368 . S
C576 C575 1.523 . S
H577 C552 0.950 . S
H578 C554 0.950 . S
H579 C555 0.949 . S
H580 C557 0.950 . S
H581 C559 0.950 . S
C582 C583 1.349 . S
C582 C584 1.327 . S
C582 H607 0.950 . S
C583 C582 1.349 . S
C583 C599 1.349 . S
C584 C582 1.327 . S
C584 C603 1.429 . S
C584 H608 0.950 . S
C585 C602 1.574 . S
C585 C604 1.368 . S
C585 H609 0.949 . S
H586 C590 0.949 . S
C587 C588 1.349 . S
C587 C589 1.327 . S
C587 H610 0.950 . S
C588 C587 1.349 . S
C588 C600 1.349 . S
C589 C587 1.327 . S
C589 C605 1.429 . S
C589 H611 0.950 . S
C590 H586 0.949 . S
C590 C598 1.574 . S
C590 C606 1.368 . S
H591 C599 0.950 . S
H592 C597 0.950 . S
H593 C598 0.949 . S
H594 C600 0.950 . S
H595 C601 0.950 . S
H596 C602 0.949 . S
C597 H592 0.950 . S
C597 C599 1.327 . S
C597 C603 1.429 . S
C598 C590 1.574 . S
C598 H593 0.949 . S
C598 C604 1.368 . S
C599 C583 1.349 . S
C599 H591 0.950 . S
C599 C597 1.327 . S
C600 C588 1.349 . S
C600 H594 0.950 . S
C600 C601 1.327 . S
C601 H595 0.950 . S
C601 C600 1.327 . S
C601 C605 1.429 . S
C602 C585 1.574 . S
C602 H596 0.949 . S
C602 C606 1.368 . S
C603 C584 1.429 . S
C603 C597 1.429 . S
C603 C604 1.523 1_565 S
C604 C585 1.368 . S
C604 C598 1.368 . S
C604 C603 1.523 1_545 S
C605 C589 1.429 . S
C605 C601 1.429 . S
C605 C606 1.523 . S
C606 C590 1.368 . S
C606 C602 1.368 . S
C606 C605 1.523 . S
H607 C582 0.950 . S
H608 C584 0.950 . S
H609 C585 0.949 . S
H610 C587 0.950 . S
H611 C589 0.950 . S
C612 C613 1.349 . S
C612 C614 1.327 . S
C612 H637 0.950 . S
C613 C612 1.349 . S
C613 C629 1.349 . S
C614 C612 1.327 . S
C614 C633 1.429 . S
C614 H638 0.950 . S
C615 C632 1.574 . S
C615 C634 1.368 . S
C615 H639 0.949 . S
H616 C620 0.949 1_545 S
C617 C618 1.349 . S
C617 C619 1.327 1_545 S
C617 H640 0.950 . S
C618 C617 1.349 . S
C618 C630 1.349 . S
C619 C617 1.327 1_565 S
C619 C635 1.429 1_565 S
C619 H641 0.950 . S
C620 H616 0.949 1_565 S
C620 C628 1.574 . S
C620 C636 1.368 . S
H621 C629 0.950 . S
H622 C627 0.950 . S
H623 C628 0.949 . S
H624 C630 0.950 . S
H625 C631 0.950 . S
H626 C632 0.949 . S
C627 H622 0.950 . S
C627 C629 1.327 . S
C627 C633 1.429 . S
C628 C620 1.574 . S
C628 H623 0.949 . S
C628 C634 1.368 . S
C629 C613 1.349 . S
C629 H621 0.950 . S
C629 C627 1.327 . S
C630 C618 1.349 . S
C630 H624 0.950 . S
C630 C631 1.327 . S
C631 H625 0.950 . S
C631 C630 1.327 . S
C631 C635 1.429 . S
C632 C615 1.574 . S
C632 H626 0.949 . S
C632 C636 1.368 . S
C633 C614 1.429 . S
C633 C627 1.429 . S
C633 C634 1.523 . S
C634 C615 1.368 . S
C634 C628 1.368 . S
C634 C633 1.523 . S
C635 C619 1.429 1_545 S
C635 C631 1.429 . S
C635 C636 1.523 1_545 S
C636 C620 1.368 . S
C636 C632 1.368 . S
C636 C635 1.523 1_565 S
H637 C612 0.950 . S
H638 C614 0.950 . S
H639 C615 0.949 . S
H640 C617 0.950 . S
H641 C619 0.950 . S
C642 C643 1.349 . S
C642 C644 1.327 . S
C642 H667 0.950 . S
C643 C642 1.349 . S
C643 C659 1.349 . S
C644 C642 1.327 . S
C644 C663 1.429 . S
C644 H668 0.950 . S
C645 C662 1.574 . S
C645 C664 1.368 . S
C645 H669 0.949 . S
H646 C650 0.949 . S
C647 C648 1.349 . S
C647 C649 1.327 . S
C647 H670 0.950 . S
C648 C647 1.349 . S
C648 C660 1.349 . S
C649 C647 1.327 . S
C649 C665 1.429 . S
C649 H671 0.950 . S
C650 H646 0.949 . S
C650 C658 1.574 . S
C650 C666 1.368 . S
H651 C659 0.950 . S
H652 C657 0.950 . S
H653 C658 0.949 . S
H654 C660 0.950 . S
H655 C661 0.950 . S
H656 C662 0.949 . S
C657 H652 0.950 . S
C657 C659 1.327 . S
C657 C663 1.429 . S
C658 C650 1.574 . S
C658 H653 0.949 . S
C658 C664 1.368 . S
C659 C643 1.349 . S
C659 H651 0.950 . S
C659 C657 1.327 . S
C660 C648 1.349 . S
C660 H654 0.950 . S
C660 C661 1.327 . S
C661 H655 0.950 . S
C661 C660 1.327 . S
C661 C665 1.429 . S
C662 C645 1.574 . S
C662 H656 0.949 . S
C662 C666 1.368 . S
C663 C644 1.429 . S
C663 C657 1.429 . S
C663 C664 1.523 . S
C664 C645 1.368 . S
C664 C658 1.368 . S
C664 C663 1.523 . S
C665 C649 1.429 . S
C665 C661 1.429 . S
C665 C666 1.523 . S
C666 C650 1.368 . S
C666 C662 1.368 . S
C666 C665 1.523 . S
H667 C642 0.950 . S
H668 C644 0.950 . S
H669 C645 0.949 . S
H670 C647 0.950 . S
H671 C649 0.950 . S
C672 C673 1.349 . S
C672 C674 1.327 . S
C672 H697 0.950 . S
C673 C672 1.349 . S
C673 C689 1.349 . S
C674 C672 1.327 . S
C674 C693 1.429 . S
C674 H698 0.950 . S
C675 C692 1.574 . S
C675 C694 1.368 . S
C675 H699 0.949 . S
H676 C680 0.949 . S
C677 C678 1.349 . S
C677 C679 1.327 . S
C677 H700 0.950 . S
C678 C677 1.349 . S
C678 C690 1.349 . S
C679 C677 1.327 . S
C679 C695 1.429 . S
C679 H701 0.950 . S
C680 H676 0.949 . S
C680 C688 1.574 . S
C680 C696 1.368 . S
H681 C689 0.950 . S
H682 C687 0.950 . S
H683 C688 0.949 . S
H684 C690 0.950 . S
H685 C691 0.950 . S
H686 C692 0.949 . S
C687 H682 0.950 . S
C687 C689 1.327 . S
C687 C693 1.429 . S
C688 C680 1.574 . S
C688 H683 0.949 . S
C688 C694 1.368 . S
C689 C673 1.349 . S
C689 H681 0.950 . S
C689 C687 1.327 . S
C690 C678 1.349 . S
C690 H684 0.950 . S
C690 C691 1.327 . S
C691 H685 0.950 . S
C691 C690 1.327 . S
C691 C695 1.429 . S
C692 C675 1.574 . S
C692 H686 0.949 . S
C692 C696 1.368 . S
C693 C674 1.429 . S
C693 C687 1.429 . S
C693 C694 1.523 . S
C694 C675 1.368 . S
C694 C688 1.368 . S
C694 C693 1.523 . S
C695 C679 1.429 . S
C695 C691 1.429 . S
C695 C696 1.523 . S
C696 C680 1.368 . S
C696 C692 1.368 . S
C696 C695 1.523 . S
H697 C672 0.950 . S
H698 C674 0.950 . S
H699 C675 0.949 . S
H700 C677 0.950 . S
H701 C679 0.950 . S
C702 C703 1.349 . S
C702 C704 1.327 . S
C702 H727 0.950 . S
C703 C702 1.349 . S
C703 C719 1.349 . S
C704 C702 1.327 . S
C704 C723 1.429 . S
C704 H728 0.950 . S
C705 C722 1.574 . S
C705 C724 1.368 1_545 S
C705 H729 0.949 . S
H706 C710 0.949 1_565 S
C707 C708 1.349 . S
C707 C709 1.327 . S
C707 H730 0.950 . S
C708 C707 1.349 . S
C708 C720 1.349 . S
C709 C707 1.327 . S
C709 C725 1.429 . S
C709 H731 0.950 . S
C710 H706 0.949 1_545 S
C710 C718 1.574 1_545 S
C710 C726 1.368 . S
H711 C719 0.950 . S
H712 C717 0.950 . S
H713 C718 0.949 . S
H714 C720 0.950 . S
H715 C721 0.950 . S
H716 C722 0.949 . S
C717 H712 0.950 . S
C717 C719 1.327 . S
C717 C723 1.429 . S
C718 C710 1.574 1_565 S
C718 H713 0.949 . S
C718 C724 1.368 . S
C719 C703 1.349 . S
C719 H711 0.950 . S
C719 C717 1.327 . S
C720 C708 1.349 . S
C720 H714 0.950 . S
C720 C721 1.327 . S
C721 H715 0.950 . S
C721 C720 1.327 . S
C721 C725 1.429 . S
C722 C705 1.574 . S
C722 H716 0.949 . S
C722 C726 1.368 . S
C723 C704 1.429 . S
C723 C717 1.429 . S
C723 C724 1.523 . S
C724 C705 1.368 1_565 S
C724 C718 1.368 . S
C724 C723 1.523 . S
C725 C709 1.429 . S
C725 C721 1.429 . S
C725 C726 1.523 . S
C726 C710 1.368 . S
C726 C722 1.368 . S
C726 C725 1.523 . S
H727 C702 0.950 . S
H728 C704 0.950 . S
H729 C705 0.949 . S
H730 C707 0.950 . S
H731 C709 0.950 . S
C732 C733 1.349 . S
C732 C734 1.327 . S
C732 H757 0.950 . S
C733 C732 1.349 . S
C733 C749 1.349 . S
C734 C732 1.327 . S
C734 C753 1.429 . S
C734 H758 0.950 . S
C735 C752 1.574 1_556 S
C735 C754 1.368 . S
C735 H759 0.949 . S
H736 C740 0.949 . S
C737 C738 1.349 . S
C737 C739 1.327 . S
C737 H760 0.950 . S
C738 C737 1.349 . S
C738 C750 1.349 . S
C739 C737 1.327 . S
C739 C755 1.429 . S
C739 H761 0.950 . S
C740 H736 0.949 . S
C740 C748 1.574 . S
C740 C756 1.368 1_556 S
H741 C749 0.950 . S
H742 C747 0.950 . S
H743 C748 0.949 . S
H744 C750 0.950 . S
H745 C751 0.950 . S
H746 C752 0.949 . S
C747 H742 0.950 . S
C747 C749 1.327 . S
C747 C753 1.429 . S
C748 C740 1.574 . S
C748 H743 0.949 . S
C748 C754 1.368 . S
C749 C733 1.349 . S
C749 H741 0.950 . S
C749 C747 1.327 . S
C750 C738 1.349 . S
C750 H744 0.950 . S
C750 C751 1.327 . S
C751 H745 0.950 . S
C751 C750 1.327 . S
C751 C755 1.429 . S
C752 C735 1.574 1_554 S
C752 H746 0.949 . S
C752 C756 1.368 . S
C753 C734 1.429 . S
C753 C747 1.429 . S
C753 C754 1.523 . S
C754 C735 1.368 . S
C754 C748 1.368 . S
C754 C753 1.523 . S
C755 C739 1.429 . S
C755 C751 1.429 . S
C755 C756 1.523 . S
C756 C740 1.368 1_554 S
C756 C752 1.368 . S
C756 C755 1.523 . S
H757 C732 0.950 . S
H758 C734 0.950 . S
H759 C735 0.949 . S
H760 C737 0.950 . S
H761 C739 0.950 . S
C762 C763 1.349 . S
C762 C764 1.327 . S
C762 H787 0.950 . S
C763 C762 1.349 . S
C763 C779 1.349 . S
C764 C762 1.327 . S
C764 C783 1.429 . S
C764 H788 0.950 . S
C765 C782 1.574 . S
C765 C784 1.368 1_565 S
C765 H789 0.949 . S
H766 C770 0.948 1_545 S
C767 C768 1.349 . S
C767 C769 1.327 . S
C767 H790 0.950 . S
C768 C767 1.349 . S
C768 C780 1.349 . S
C769 C767 1.327 . S
C769 C785 1.429 . S
C769 H791 0.950 . S
C770 H766 0.948 1_565 S
C770 C778 1.570 1_565 S
C770 C786 1.373 . S
H771 C779 0.950 . S
H772 C777 0.934 1_565 S
H773 C778 0.949 . S
H774 C780 0.950 . S
H775 C781 0.950 . S
H776 C782 0.949 . S
C777 H772 0.934 1_545 S
C777 C779 1.327 . S
C777 C783 1.429 . S
C778 C770 1.570 1_545 S
C778 H773 0.949 . S
C778 C784 1.368 . S
C779 C763 1.349 . S
C779 H771 0.950 . S
C779 C777 1.327 . S
C780 C768 1.349 . S
C780 H774 0.950 . S
C780 C781 1.327 . S
C781 H775 0.950 . S
C781 C780 1.327 . S
C781 C785 1.429 . S
C782 C765 1.574 . S
C782 H776 0.949 . S
C782 C786 1.368 . S
C783 C764 1.429 . S
C783 C777 1.429 . S
C783 C784 1.523 . S
C784 C765 1.368 1_545 S
C784 C778 1.368 . S
C784 C783 1.523 . S
C785 C769 1.429 . S
C785 C781 1.429 . S
C785 C786 1.523 . S
C786 C770 1.373 . S
C786 C782 1.368 . S
C786 C785 1.523 . S
H787 C762 0.950 . S
H788 C764 0.950 . S
H789 C765 0.949 . S
H790 C767 0.950 . S
H791 C769 0.950 . S
C792 C793 1.349 . S
C792 C794 1.327 . S
C792 H817 0.950 . S
C793 C792 1.349 . S
C793 C809 1.349 . S
C794 C792 1.327 . S
C794 C813 1.429 . S
C794 H818 0.950 . S
C795 C812 1.574 . S
C795 C814 1.368 . S
C795 H819 0.949 . S
H796 C800 0.949 . S
C797 C798 1.349 . S
C797 C799 1.327 . S
C797 H820 0.950 . S
C798 C797 1.349 . S
C798 C810 1.349 . S
C799 C797 1.327 . S
C799 C815 1.429 . S
C799 H821 0.950 . S
C800 H796 0.949 . S
C800 C808 1.574 . S
C800 C816 1.368 . S
H801 C809 0.950 . S
H802 C807 0.950 . S
H803 C808 0.949 . S
H804 C810 0.950 . S
H805 C811 0.950 . S
H806 C812 0.949 . S
C807 H802 0.950 . S
C807 C809 1.327 . S
C807 C813 1.429 . S
C808 C800 1.574 . S
C808 H803 0.949 . S
C808 C814 1.368 . S
C809 C793 1.349 . S
C809 H801 0.950 . S
C809 C807 1.327 . S
C810 C798 1.349 . S
C810 H804 0.950 . S
C810 C811 1.327 . S
C811 H805 0.950 . S
C811 C810 1.327 . S
C811 C815 1.429 . S
C812 C795 1.574 . S
C812 H806 0.949 . S
C812 C816 1.368 . S
C813 C794 1.429 . S
C813 C807 1.429 . S
C813 C814 1.523 . S
C814 C795 1.368 . S
C814 C808 1.368 . S
C814 C813 1.523 . S
C815 C799 1.429 . S
C815 C811 1.429 . S
C815 C816 1.523 . S
C816 C800 1.368 . S
C816 C812 1.368 . S
C816 C815 1.523 . S
H817 C792 0.950 . S
H818 C794 0.950 . S
H819 C795 0.949 . S
H820 C797 0.950 . S
H821 C799 0.950 . S
C822 C823 1.349 . S
C822 C824 1.327 . S
C822 H847 0.950 . S
C823 C822 1.349 . S
C823 C839 1.349 . S
C824 C822 1.327 . S
C824 C843 1.429 . S
C824 H848 0.950 . S
C825 C842 1.574 . S
C825 C844 1.368 . S
C825 H849 0.949 . S
H826 C830 0.949 . S
C827 C828 1.349 . S
C827 C829 1.327 . S
C827 H850 0.950 . S
C828 C827 1.349 . S
C828 C840 1.349 . S
C829 C827 1.327 . S
C829 C845 1.429 . S
C829 H851 0.950 . S
C830 H826 0.949 . S
C830 C838 1.574 . S
C830 C846 1.368 . S
H831 C839 0.950 . S
H832 C837 0.950 . S
H833 C838 0.949 . S
H834 C840 0.950 . S
H835 C841 0.950 . S
H836 C842 0.949 . S
C837 H832 0.950 . S
C837 C839 1.327 . S
C837 C843 1.429 . S
C838 C830 1.574 . S
C838 H833 0.949 . S
C838 C844 1.368 . S
C839 C823 1.349 . S
C839 H831 0.950 . S
C839 C837 1.327 . S
C840 C828 1.349 . S
C840 H834 0.950 . S
C840 C841 1.327 . S
C841 H835 0.950 . S
C841 C840 1.327 . S
C841 C845 1.429 . S
C842 C825 1.574 . S
C842 H836 0.949 . S
C842 C846 1.368 . S
C843 C824 1.429 . S
C843 C837 1.429 . S
C843 C844 1.523 . S
C844 C825 1.368 . S
C844 C838 1.368 . S
C844 C843 1.523 . S
C845 C829 1.429 . S
C845 C841 1.429 . S
C845 C846 1.523 . S
C846 C830 1.368 . S
C846 C842 1.368 . S
C846 C845 1.523 . S
H847 C822 0.950 . S
H848 C824 0.950 . S
H849 C825 0.949 . S
H850 C827 0.950 . S
H851 C829 0.950 . S
C852 C853 1.349 . S
C852 C854 1.327 . S
C852 H877 0.950 . S
C853 C852 1.349 . S
C853 C869 1.349 . S
C854 C852 1.327 . S
C854 C873 1.429 . S
C854 H878 0.948 . S
C855 C872 1.559 1_556 S
C855 C874 1.368 . S
C855 H879 0.949 . S
H856 C860 0.949 . S
C857 C858 1.349 . S
C857 C859 1.327 . S
C857 H880 0.950 . S
C858 C857 1.349 . S
C858 C870 1.349 . S
C859 C857 1.327 . S
C859 C875 1.429 . S
C859 H881 0.950 . S
C860 H856 0.949 . S
C860 C868 1.574 . S
C860 C876 1.368 . S
H861 C869 0.950 . S
H862 C867 0.950 . S
H863 C868 0.949 . S
H864 C870 0.950 . S
H865 C871 0.950 . S
H866 C872 0.943 1_556 S
C867 H862 0.950 . S
C867 C869 1.327 . S
C867 C873 1.429 . S
C868 C860 1.574 . S
C868 H863 0.949 . S
C868 C874 1.368 1_554 S
C869 C853 1.349 . S
C869 H861 0.950 . S
C869 C867 1.327 . S
C870 C858 1.349 . S
C870 H864 0.950 . S
C870 C871 1.327 . S
C871 H865 0.950 . S
C871 C870 1.327 . S
C871 C875 1.429 . S
C872 C855 1.559 1_554 S
C872 H866 0.943 1_554 S
C872 C876 1.390 . S
C873 C854 1.429 . S
C873 C867 1.429 . S
C873 C874 1.523 . S
C874 C855 1.368 . S
C874 C868 1.368 1_556 S
C874 C873 1.523 . S
C875 C859 1.429 . S
C875 C871 1.429 . S
C875 C876 1.523 . S
C876 C860 1.368 . S
C876 C872 1.390 . S
C876 C875 1.523 . S
H877 C852 0.950 . S
H878 C854 0.948 . S
H879 C855 0.949 . S
H880 C857 0.950 . S
H881 C859 0.950 . S
C882 C883 1.349 . S
C882 C884 1.327 . S
C882 H907 0.950 . S
C883 C882 1.349 . S
C883 C899 1.349 . S
C884 C882 1.327 . S
C884 C903 1.429 . S
C884 H908 0.950 . S
C885 C902 1.574 . S
C885 C904 1.368 . S
C885 H909 0.949 . S
H886 C890 0.949 . S
C887 C888 1.349 . S
C887 C889 1.327 . S
C887 H910 0.950 . S
C888 C887 1.349 . S
C888 C900 1.349 . S
C889 C887 1.327 . S
C889 C905 1.429 . S
C889 H911 0.950 . S
C890 H886 0.949 . S
C890 C898 1.574 . S
C890 C906 1.368 . S
H891 C899 0.950 . S
H892 C897 0.950 . S
H893 C898 0.949 . S
H894 C900 0.950 . S
H895 C901 0.950 . S
H896 C902 0.949 . S
C897 H892 0.950 . S
C897 C899 1.327 . S
C897 C903 1.429 . S
C898 C890 1.574 . S
C898 H893 0.949 . S
C898 C904 1.368 . S
C899 C883 1.349 . S
C899 H891 0.950 . S
C899 C897 1.327 . S
C900 C888 1.349 . S
C900 H894 0.950 . S
C900 C901 1.327 . S
C901 H895 0.950 . S
C901 C900 1.327 . S
C901 C905 1.429 . S
C902 C885 1.574 . S
C902 H896 0.949 . S
C902 C906 1.368 . S
C903 C884 1.429 . S
C903 C897 1.429 . S
C903 C904 1.523 . S
C904 C885 1.368 . S
C904 C898 1.368 . S
C904 C903 1.523 . S
C905 C889 1.429 . S
C905 C901 1.429 . S
C905 C906 1.523 . S
C906 C890 1.368 . S
C906 C902 1.368 . S
C906 C905 1.523 . S
H907 C882 0.950 . S
H908 C884 0.950 . S
H909 C885 0.949 . S
H910 C887 0.950 . S
H911 C889 0.950 . S
C912 C913 1.349 . S
C912 C914 1.327 . S
C912 H937 0.950 . S
C913 C912 1.349 . S
C913 C929 1.349 . S
C914 C912 1.327 . S
C914 C933 1.429 . S
C914 H938 0.950 . S
C915 C932 1.574 . S
C915 C934 1.368 . S
C915 H939 0.949 . S
H916 C920 0.949 . S
C917 C918 1.349 . S
C917 C919 1.327 . S
C917 H940 0.950 . S
C918 C917 1.349 . S
C918 C930 1.349 . S
C919 C917 1.327 . S
C919 C935 1.429 . S
C919 H941 0.950 . S
C920 H916 0.949 . S
C920 C928 1.574 . S
C920 C936 1.368 . S
H921 C929 0.950 . S
H922 C927 0.950 . S
H923 C928 0.949 . S
H924 C930 0.950 . S
H925 C931 0.950 . S
H926 C932 0.949 . S
C927 H922 0.950 . S
C927 C929 1.327 . S
C927 C933 1.429 . S
C928 C920 1.574 . S
C928 H923 0.949 . S
C928 C934 1.368 . S
C929 C913 1.349 . S
C929 H921 0.950 . S
C929 C927 1.327 . S
C930 C918 1.349 . S
C930 H924 0.950 . S
C930 C931 1.327 . S
C931 H925 0.950 . S
C931 C930 1.327 . S
C931 C935 1.429 . S
C932 C915 1.574 . S
C932 H926 0.949 . S
C932 C936 1.368 . S
C933 C914 1.429 . S
C933 C927 1.429 . S
C933 C934 1.523 . S
C934 C915 1.368 . S
C934 C928 1.368 . S
C934 C933 1.523 . S
C935 C919 1.429 . S
C935 C931 1.429 . S
C935 C936 1.523 . S
C936 C920 1.368 . S
C936 C932 1.368 . S
C936 C935 1.523 . S
H937 C912 0.950 . S
H938 C914 0.950 . S
H939 C915 0.949 . S
H940 C917 0.950 . S
H941 C919 0.950 . S
C942 C943 1.349 . S
C942 C944 1.327 . S
C942 H967 0.950 . S
C943 C942 1.349 . S
C943 C959 1.349 . S
C944 C942 1.327 . S
C944 C963 1.429 . S
C944 H968 0.950 . S
C945 C962 1.574 1_455 S
C945 C964 1.368 . S
C945 H969 0.949 . S
H946 C950 0.949 . S
C947 C948 1.349 . S
C947 C949 1.327 . S
C947 H970 0.950 . S
C948 C947 1.349 . S
C948 C960 1.349 . S
C949 C947 1.327 . S
C949 C965 1.429 . S
C949 H971 0.950 . S
C950 H946 0.949 . S
C950 C958 1.574 . S
C950 C966 1.368 . S
H951 C959 0.950 . S
H952 C957 0.950 . S
H953 C958 0.949 . S
H954 C960 0.950 . S
H955 C961 0.950 . S
H956 C962 0.949 . S
C957 H952 0.950 . S
C957 C959 1.327 . S
C957 C963 1.429 . S
C958 C950 1.574 . S
C958 H953 0.949 . S
C958 C964 1.368 1_655 S
C959 C943 1.349 . S
C959 H951 0.950 . S
C959 C957 1.327 . S
C960 C948 1.349 . S
C960 H954 0.950 . S
C960 C961 1.327 . S
C961 H955 0.950 . S
C961 C960 1.327 . S
C961 C965 1.429 . S
C962 C945 1.574 1_655 S
C962 H956 0.949 . S
C962 C966 1.368 . S
C963 C944 1.429 . S
C963 C957 1.429 . S
C963 C964 1.523 . S
C964 C945 1.368 . S
C964 C958 1.368 1_455 S
C964 C963 1.523 . S
C965 C949 1.429 . S
C965 C961 1.429 . S
C965 C966 1.523 . S
C966 C950 1.368 . S
C966 C962 1.368 . S
C966 C965 1.523 . S
H967 C942 0.950 . S
H968 C944 0.950 . S
H969 C945 0.949 . S
H970 C947 0.950 . S
H971 C949 0.950 . S
C972 C973 1.349 . S
C972 C974 1.327 . S
C972 H997 0.950 . S
C973 C972 1.349 . S
C973 C989 1.349 . S
C974 C972 1.327 . S
C974 C993 1.429 . S
C974 H998 0.950 . S
C975 C992 1.574 . S
C975 C994 1.368 1_455 S
C975 H999 0.949 . S
H976 C980 0.949 . S
C977 C978 1.349 . S
C977 C979 1.327 . S
C977 H1000 0.950 . S
C978 C977 1.349 . S
C978 C990 1.349 . S
C979 C977 1.327 . S
C979 C995 1.429 . S
C979 H1001 0.950 . S
C980 H976 0.949 . S
C980 C988 1.574 1_455 S
C980 C996 1.368 . S
H981 C989 0.950 . S
H982 C987 0.950 . S
H983 C988 0.949 . S
H984 C990 0.950 . S
H985 C991 0.950 . S
H986 C992 0.949 . S
C987 H982 0.950 . S
C987 C989 1.327 . S
C987 C993 1.429 . S
C988 C980 1.574 1_655 S
C988 H983 0.949 . S
C988 C994 1.368 . S
C989 C973 1.349 . S
C989 H981 0.950 . S
C989 C987 1.327 . S
C990 C978 1.349 . S
C990 H984 0.950 . S
C990 C991 1.327 . S
C991 H985 0.950 . S
C991 C990 1.327 . S
C991 C995 1.429 . S
C992 C975 1.574 . S
C992 H986 0.949 . S
C992 C996 1.368 . S
C993 C974 1.429 . S
C993 C987 1.429 . S
C993 C994 1.523 . S
C994 C975 1.368 1_655 S
C994 C988 1.368 . S
C994 C993 1.523 . S
C995 C979 1.429 . S
C995 C991 1.429 . S
C995 C996 1.523 . S
C996 C980 1.368 . S
C996 C992 1.368 . S
C996 C995 1.523 . S
H997 C972 0.950 . S
H998 C974 0.950 . S
H999 C975 0.949 . S
H1000 C977 0.950 . S
H1001 C979 0.950 . S
C1002 C1003 1.349 . S
C1002 C1004 1.327 . S
C1002 H1027 0.950 . S
C1003 C1002 1.349 . S
C1003 C1019 1.349 . S
C1004 C1002 1.327 . S
C1004 C1023 1.429 . S
C1004 H1028 0.950 . S
C1005 C1022 1.574 . S
C1005 C1024 1.368 . S
C1005 H1029 0.949 . S
H1006 C1010 0.949 . S
C1007 C1008 1.349 . S
C1007 C1009 1.327 . S
C1007 H1030 0.950 . S
C1008 C1007 1.349 . S
C1008 C1020 1.349 . S
C1009 C1007 1.327 . S
C1009 C1025 1.429 . S
C1009 H1031 0.950 . S
C1010 H1006 0.949 . S
C1010 C1018 1.574 . S
C1010 C1026 1.368 . S
H1011 C1019 0.950 . S
H1012 C1017 0.950 . S
H1013 C1018 0.949 . S
H1014 C1020 0.950 . S
H1015 C1021 0.950 . S
H1016 C1022 0.949 . S
C1017 H1012 0.950 . S
C1017 C1019 1.327 . S
C1017 C1023 1.429 . S
C1018 C1010 1.574 . S
C1018 H1013 0.949 . S
C1018 C1024 1.368 . S
C1019 C1003 1.349 . S
C1019 H1011 0.950 . S
C1019 C1017 1.327 . S
C1020 C1008 1.349 . S
C1020 H1014 0.950 . S
C1020 C1021 1.327 . S
C1021 H1015 0.950 . S
C1021 C1020 1.327 . S
C1021 C1025 1.429 . S
C1022 C1005 1.574 . S
C1022 H1016 0.949 . S
C1022 C1026 1.368 . S
C1023 C1004 1.429 . S
C1023 C1017 1.429 . S
C1023 C1024 1.523 . S
C1024 C1005 1.368 . S
C1024 C1018 1.368 . S
C1024 C1023 1.523 . S
C1025 C1009 1.429 . S
C1025 C1021 1.429 . S
C1025 C1026 1.523 . S
C1026 C1010 1.368 . S
C1026 C1022 1.368 . S
C1026 C1025 1.523 . S
H1027 C1002 0.950 . S
H1028 C1004 0.950 . S
H1029 C1005 0.949 . S
H1030 C1007 0.950 . S
H1031 C1009 0.950 . S
C1032 C1033 1.349 . S
C1032 C1034 1.327 . S
C1032 H1057 0.950 . S
C1033 C1032 1.349 . S
C1033 C1049 1.349 . S
C1034 C1032 1.327 . S
C1034 C1053 1.429 . S
C1034 H1058 0.950 . S
C1035 C1052 1.574 . S
C1035 C1054 1.368 . S
C1035 H1059 0.949 . S
H1036 C1040 0.949 . S
C1037 C1038 1.349 . S
C1037 C1039 1.327 . S
C1037 H1060 0.950 . S
C1038 C1037 1.349 . S
C1038 C1050 1.349 . S
C1039 C1037 1.327 . S
C1039 C1055 1.429 . S
C1039 H1061 0.950 . S
C1040 H1036 0.949 . S
C1040 C1048 1.574 . S
C1040 C1056 1.368 . S
H1041 C1049 0.950 . S
H1042 C1047 0.950 . S
H1043 C1048 0.949 . S
H1044 C1050 0.950 . S
H1045 C1051 0.950 . S
H1046 C1052 0.949 . S
C1047 H1042 0.950 . S
C1047 C1049 1.327 . S
C1047 C1053 1.429 . S
C1048 C1040 1.574 . S
C1048 H1043 0.949 . S
C1048 C1054 1.368 . S
C1049 C1033 1.349 . S
C1049 H1041 0.950 . S
C1049 C1047 1.327 . S
C1050 C1038 1.349 . S
C1050 H1044 0.950 . S
C1050 C1051 1.327 . S
C1051 H1045 0.950 . S
C1051 C1050 1.327 . S
C1051 C1055 1.429 . S
C1052 C1035 1.574 . S
C1052 H1046 0.949 . S
C1052 C1056 1.368 . S
C1053 C1034 1.429 . S
C1053 C1047 1.429 . S
C1053 C1054 1.523 . S
C1054 C1035 1.368 . S
C1054 C1048 1.368 . S
C1054 C1053 1.523 . S
C1055 C1039 1.429 . S
C1055 C1051 1.429 . S
C1055 C1056 1.523 . S
C1056 C1040 1.368 . S
C1056 C1052 1.368 . S
C1056 C1055 1.523 . S
H1057 C1032 0.950 . S
H1058 C1034 0.950 . S
H1059 C1035 0.949 . S
H1060 C1037 0.950 . S
H1061 C1039 0.950 . S
C1062 C1063 1.349 . S
C1062 C1064 1.327 . S
C1062 H1087 0.950 . S
C1063 C1062 1.349 . S
C1063 C1079 1.349 . S
C1064 C1062 1.327 . S
C1064 C1083 1.429 1_545 S
C1064 H1088 0.950 . S
C1065 C1082 1.574 . S
C1065 C1084 1.368 . S
C1065 H1089 0.949 . S
H1066 C1070 0.949 . S
C1067 C1068 1.349 . S
C1067 C1069 1.327 . S
C1067 H1090 0.950 . S
C1068 C1067 1.349 . S
C1068 C1080 1.349 . S
C1069 C1067 1.327 . S
C1069 C1085 1.429 . S
C1069 H1091 0.950 . S
C1070 H1066 0.949 . S
C1070 C1078 1.574 . S
C1070 C1086 1.368 . S
H1071 C1079 0.950 . S
H1072 C1077 0.950 . S
H1073 C1078 0.949 1_545 S
H1074 C1080 0.950 . S
H1075 C1081 0.950 . S
H1076 C1082 0.949 . S
C1077 H1072 0.950 . S
C1077 C1079 1.327 1_565 S
C1077 C1083 1.429 . S
C1078 C1070 1.574 . S
C1078 H1073 0.949 1_565 S
C1078 C1084 1.368 . S
C1079 C1063 1.349 . S
C1079 H1071 0.950 . S
C1079 C1077 1.327 1_545 S
C1080 C1068 1.349 . S
C1080 H1074 0.950 . S
C1080 C1081 1.327 . S
C1081 H1075 0.950 . S
C1081 C1080 1.327 . S
C1081 C1085 1.429 . S
C1082 C1065 1.574 . S
C1082 H1076 0.949 . S
C1082 C1086 1.368 . S
C1083 C1064 1.429 1_565 S
C1083 C1077 1.429 . S
C1083 C1084 1.523 . S
C1084 C1065 1.368 . S
C1084 C1078 1.368 . S
C1084 C1083 1.523 . S
C1085 C1069 1.429 . S
C1085 C1081 1.429 . S
C1085 C1086 1.523 . S
C1086 C1070 1.368 . S
C1086 C1082 1.368 . S
C1086 C1085 1.523 . S
H1087 C1062 0.950 . S
H1088 C1064 0.950 . S
H1089 C1065 0.949 . S
H1090 C1067 0.950 . S
H1091 C1069 0.950 . S
C1092 C1093 1.349 . S
C1092 C1094 1.327 . S
C1092 H1117 0.950 . S
C1093 C1092 1.349 . S
C1093 C1109 1.349 . S
C1094 C1092 1.327 . S
C1094 C1113 1.429 . S
C1094 H1118 0.950 . S
C1095 C1112 1.574 . S
C1095 C1114 1.368 . S
C1095 H1119 0.949 . S
H1096 C1100 0.949 . S
C1097 C1098 1.349 . S
C1097 C1099 1.327 . S
C1097 H1120 0.950 . S
C1098 C1097 1.349 . S
C1098 C1110 1.349 . S
C1099 C1097 1.327 . S
C1099 C1115 1.429 . S
C1099 H1121 0.950 . S
C1100 H1096 0.949 . S
C1100 C1108 1.574 . S
C1100 C1116 1.368 . S
H1101 C1109 0.950 . S
H1102 C1107 0.950 . S
H1103 C1108 0.949 . S
H1104 C1110 0.950 . S
H1105 C1111 0.950 . S
H1106 C1112 0.949 . S
C1107 H1102 0.950 . S
C1107 C1109 1.327 . S
C1107 C1113 1.429 . S
C1108 C1100 1.574 . S
C1108 H1103 0.949 . S
C1108 C1114 1.368 . S
C1109 C1093 1.349 . S
C1109 H1101 0.950 . S
C1109 C1107 1.327 . S
C1110 C1098 1.349 . S
C1110 H1104 0.950 . S
C1110 C1111 1.327 . S
C1111 H1105 0.950 . S
C1111 C1110 1.327 . S
C1111 C1115 1.429 . S
C1112 C1095 1.574 . S
C1112 H1106 0.949 . S
C1112 C1116 1.368 . S
C1113 C1094 1.429 . S
C1113 C1107 1.429 . S
C1113 C1114 1.523 . S
C1114 C1095 1.368 . S
C1114 C1108 1.368 . S
C1114 C1113 1.523 . S
C1115 C1099 1.429 . S
C1115 C1111 1.429 . S
C1115 C1116 1.523 . S
C1116 C1100 1.368 . S
C1116 C1112 1.368 . S
C1116 C1115 1.523 . S
H1117 C1092 0.950 . S
H1118 C1094 0.950 . S
H1119 C1095 0.949 . S
H1120 C1097 0.950 . S
H1121 C1099 0.950 . S
C1122 C1123 1.349 . S
C1122 C1124 1.327 . S
C1122 H1147 0.950 . S
C1123 C1122 1.349 . S
C1123 C1139 1.349 . S
C1124 C1122 1.327 . S
C1124 C1143 1.429 . S
C1124 H1148 0.950 . S
C1125 C1142 1.551 1_545 S
C1125 C1144 1.368 . S
C1125 H1149 0.949 . S
H1126 C1130 0.949 . S
C1127 C1128 1.349 . S
C1127 C1129 1.327 1_556 S
C1127 H1150 0.950 . S
C1128 C1127 1.349 . S
C1128 C1140 1.349 1_565 S
C1129 C1127 1.327 1_554 S
C1129 C1145 1.429 1_565 S
C1129 H1151 0.950 . S
C1130 H1126 0.949 . S
C1130 C1138 1.574 . S
C1130 C1146 1.368 . S
H1131 C1139 0.950 . S
H1132 C1137 0.950 . S
H1133 C1138 0.949 . S
H1134 C1140 0.950 . S
H1135 C1141 0.950 . S
H1136 C1142 0.999 . S
C1137 H1132 0.950 . S
C1137 C1139 1.327 . S
C1137 C1143 1.429 . S
C1138 C1130 1.574 . S
C1138 H1133 0.949 . S
C1138 C1144 1.368 . S
C1139 C1123 1.349 . S
C1139 H1131 0.950 . S
C1139 C1137 1.327 . S
C1140 C1128 1.349 1_545 S
C1140 H1134 0.950 . S
C1140 C1141 1.327 . S
C1141 H1135 0.950 . S
C1141 C1140 1.327 . S
C1141 C1145 1.429 1_556 S
C1142 C1125 1.551 1_565 S
C1142 H1136 0.999 . S
C1142 C1146 1.337 1_565 S
C1143 C1124 1.429 . S
C1143 C1137 1.429 . S
C1143 C1144 1.523 . S
C1144 C1125 1.368 . S
C1144 C1138 1.368 . S
C1144 C1143 1.523 . S
C1145 C1129 1.429 1_545 S
C1145 C1141 1.429 1_554 S
C1145 C1146 1.523 . S
C1146 C1130 1.368 . S
C1146 C1142 1.337 1_545 S
C1146 C1145 1.523 . S
H1147 C1122 0.950 . S
H1148 C1124 0.950 . S
H1149 C1125 0.949 . S
H1150 C1127 0.950 . S
H1151 C1129 0.950 . S
C1152 C1153 1.349 . S
C1152 C1154 1.327 . S
C1152 H1177 0.950 . S
C1153 C1152 1.349 . S
C1153 C1169 1.349 . S
C1154 C1152 1.327 . S
C1154 C1173 1.429 . S
C1154 H1178 0.950 . S
C1155 C1172 1.574 . S
C1155 C1174 1.368 . S
C1155 H1179 0.949 . S
H1156 C1160 0.949 . S
C1157 C1158 1.349 . S
C1157 C1159 1.327 . S
C1157 H1180 0.950 . S
C1158 C1157 1.349 . S
C1158 C1170 1.349 . S
C1159 C1157 1.327 . S
C1159 C1175 1.429 . S
C1159 H1181 0.950 . S
C1160 H1156 0.949 . S
C1160 C1168 1.574 . S
C1160 C1176 1.368 . S
H1161 C1169 0.950 . S
H1162 C1167 0.950 . S
H1163 C1168 0.949 . S
H1164 C1170 0.950 . S
H1165 C1171 0.950 . S
H1166 C1172 0.949 . S
C1167 H1162 0.950 . S
C1167 C1169 1.327 . S
C1167 C1173 1.429 . S
C1168 C1160 1.574 . S
C1168 H1163 0.949 . S
C1168 C1174 1.368 . S
C1169 C1153 1.349 . S
C1169 H1161 0.950 . S
C1169 C1167 1.327 . S
C1170 C1158 1.349 . S
C1170 H1164 0.950 . S
C1170 C1171 1.327 . S
C1171 H1165 0.950 . S
C1171 C1170 1.327 . S
C1171 C1175 1.429 . S
C1172 C1155 1.574 . S
C1172 H1166 0.949 . S
C1172 C1176 1.368 . S
C1173 C1154 1.429 . S
C1173 C1167 1.429 . S
C1173 C1174 1.523 . S
C1174 C1155 1.368 . S
C1174 C1168 1.368 . S
C1174 C1173 1.523 . S
C1175 C1159 1.429 . S
C1175 C1171 1.429 . S
C1175 C1176 1.523 . S
C1176 C1160 1.368 . S
C1176 C1172 1.368 . S
C1176 C1175 1.523 . S
H1177 C1152 0.950 . S
H1178 C1154 0.950 . S
H1179 C1155 0.949 . S
H1180 C1157 0.950 . S
H1181 C1159 0.950 . S
C1182 C1183 1.349 . S
C1182 C1184 1.327 . S
C1182 H1207 0.950 . S
C1183 C1182 1.349 . S
C1183 C1199 1.349 . S
C1184 C1182 1.327 . S
C1184 C1203 1.429 1_554 S
C1184 H1208 0.950 . S
C1185 C1202 1.574 . S
C1185 C1204 1.368 . S
C1185 H1209 0.949 . S
H1186 C1190 0.949 . S
C1187 C1188 1.349 . S
C1187 C1189 1.327 . S
C1187 H1210 0.950 . S
C1188 C1187 1.349 . S
C1188 C1200 1.349 . S
C1189 C1187 1.327 . S
C1189 C1205 1.429 . S
C1189 H1211 0.950 . S
C1190 H1186 0.949 . S
C1190 C1198 1.574 . S
C1190 C1206 1.368 . S
H1191 C1199 0.950 . S
H1192 C1197 0.950 . S
H1193 C1198 0.949 . S
H1194 C1200 0.950 . S
H1195 C1201 0.950 . S
H1196 C1202 0.949 . S
C1197 H1192 0.950 . S
C1197 C1199 1.327 1_556 S
C1197 C1203 1.429 . S
C1198 C1190 1.574 . S
C1198 H1193 0.949 . S
C1198 C1204 1.368 . S
C1199 C1183 1.349 . S
C1199 H1191 0.950 . S
C1199 C1197 1.327 1_554 S
C1200 C1188 1.349 . S
C1200 H1194 0.950 . S
C1200 C1201 1.327 . S
C1201 H1195 0.950 . S
C1201 C1200 1.327 . S
C1201 C1205 1.429 . S
C1202 C1185 1.574 . S
C1202 H1196 0.949 . S
C1202 C1206 1.368 . S
C1203 C1184 1.429 1_556 S
C1203 C1197 1.429 . S
C1203 C1204 1.523 . S
C1204 C1185 1.368 . S
C1204 C1198 1.368 . S
C1204 C1203 1.523 . S
C1205 C1189 1.429 . S
C1205 C1201 1.429 . S
C1205 C1206 1.523 . S
C1206 C1190 1.368 . S
C1206 C1202 1.368 . S
C1206 C1205 1.523 . S
H1207 C1182 0.950 . S
H1208 C1184 0.950 . S
H1209 C1185 0.949 . S
H1210 C1187 0.950 . S
H1211 C1189 0.950 . S
C1212 C1213 1.349 . S
C1212 C1214 1.327 . S
C1212 H1237 0.950 . S
C1213 C1212 1.349 . S
C1213 C1229 1.349 . S
C1214 C1212 1.327 . S
C1214 C1233 1.429 . S
C1214 H1238 0.950 . S
C1215 C1232 1.574 . S
C1215 C1234 1.368 . S
C1215 H1239 0.949 . S
H1216 C1220 0.949 . S
C1217 C1218 1.349 . S
C1217 C1219 1.327 . S
C1217 H1240 0.950 . S
C1218 C1217 1.349 . S
C1218 C1230 1.349 . S
C1219 C1217 1.327 . S
C1219 C1235 1.429 . S
C1219 H1241 0.950 . S
C1220 H1216 0.949 . S
C1220 C1228 1.574 . S
C1220 C1236 1.368 . S
H1221 C1229 0.950 . S
H1222 C1227 0.950 . S
H1223 C1228 0.949 . S
H1224 C1230 0.950 . S
H1225 C1231 0.950 . S
H1226 C1232 0.949 . S
C1227 H1222 0.950 . S
C1227 C1229 1.327 . S
C1227 C1233 1.429 . S
C1228 C1220 1.574 . S
C1228 H1223 0.949 . S
C1228 C1234 1.368 . S
C1229 C1213 1.349 . S
C1229 H1221 0.950 . S
C1229 C1227 1.327 . S
C1230 C1218 1.349 . S
C1230 H1224 0.950 . S
C1230 C1231 1.327 . S
C1231 H1225 0.950 . S
C1231 C1230 1.327 . S
C1231 C1235 1.429 . S
C1232 C1215 1.574 . S
C1232 H1226 0.949 . S
C1232 C1236 1.368 . S
C1233 C1214 1.429 . S
C1233 C1227 1.429 . S
C1233 C1234 1.523 . S
C1234 C1215 1.368 . S
C1234 C1228 1.368 . S
C1234 C1233 1.523 . S
C1235 C1219 1.429 . S
C1235 C1231 1.429 . S
C1235 C1236 1.523 . S
C1236 C1220 1.368 . S
C1236 C1232 1.368 . S
C1236 C1235 1.523 . S
H1237 C1212 0.950 . S
H1238 C1214 0.950 . S
H1239 C1215 0.949 . S
H1240 C1217 0.950 . S
H1241 C1219 0.950 . S
C1242 C1243 1.349 . S
C1242 C1244 1.327 . S
C1242 H1267 0.950 . S
C1243 C1242 1.349 . S
C1243 C1259 1.349 . S
C1244 C1242 1.327 . S
C1244 C1263 1.429 . S
C1244 H1268 0.950 . S
C1245 C1262 1.574 . S
C1245 C1264 1.368 . S
C1245 H1269 0.949 . S
H1246 C1250 0.949 . S
C1247 C1248 1.349 . S
C1247 C1249 1.327 . S
C1247 H1270 0.950 . S
C1248 C1247 1.349 . S
C1248 C1260 1.349 . S
C1249 C1247 1.327 . S
C1249 C1265 1.429 . S
C1249 H1271 0.950 . S
C1250 H1246 0.949 . S
C1250 C1258 1.574 . S
C1250 C1266 1.368 . S
H1251 C1259 0.950 . S
H1252 C1257 0.950 . S
H1253 C1258 0.949 . S
H1254 C1260 0.950 . S
H1255 C1261 0.950 . S
H1256 C1262 0.949 . S
C1257 H1252 0.950 . S
C1257 C1259 1.327 . S
C1257 C1263 1.429 . S
C1258 C1250 1.574 . S
C1258 H1253 0.949 . S
C1258 C1264 1.368 . S
C1259 C1243 1.349 . S
C1259 H1251 0.950 . S
C1259 C1257 1.327 . S
C1260 C1248 1.349 . S
C1260 H1254 0.950 . S
C1260 C1261 1.327 . S
C1261 H1255 0.950 . S
C1261 C1260 1.327 . S
C1261 C1265 1.429 . S
C1262 C1245 1.574 . S
C1262 H1256 0.949 . S
C1262 C1266 1.368 . S
C1263 C1244 1.429 . S
C1263 C1257 1.429 . S
C1263 C1264 1.523 . S
C1264 C1245 1.368 . S
C1264 C1258 1.368 . S
C1264 C1263 1.523 . S
C1265 C1249 1.429 . S
C1265 C1261 1.429 . S
C1265 C1266 1.523 . S
C1266 C1250 1.368 . S
C1266 C1262 1.368 . S
C1266 C1265 1.523 . S
H1267 C1242 0.950 . S
H1268 C1244 0.950 . S
H1269 C1245 0.949 . S
H1270 C1247 0.950 . S
H1271 C1249 0.950 . S
C1272 C1273 1.349 . S
C1272 C1274 1.327 . S
C1272 H1297 0.950 . S
C1273 C1272 1.349 . S
C1273 C1289 1.349 . S
C1274 C1272 1.327 . S
C1274 C1293 1.429 . S
C1274 H1298 0.950 . S
C1275 C1292 1.574 . S
C1275 C1294 1.368 . S
C1275 H1299 0.949 . S
H1276 C1280 0.949 . S
C1277 C1278 1.349 . S
C1277 C1279 1.327 . S
C1277 H1300 0.950 . S
C1278 C1277 1.349 . S
C1278 C1290 1.349 . S
C1279 C1277 1.327 . S
C1279 C1295 1.429 . S
C1279 H1301 0.950 . S
C1280 H1276 0.949 . S
C1280 C1288 1.574 . S
C1280 C1296 1.368 . S
H1281 C1289 0.950 . S
H1282 C1287 0.950 . S
H1283 C1288 0.949 . S
H1284 C1290 0.950 . S
H1285 C1291 0.950 . S
H1286 C1292 0.949 . S
C1287 H1282 0.950 . S
C1287 C1289 1.327 . S
C1287 C1293 1.429 . S
C1288 C1280 1.574 . S
C1288 H1283 0.949 . S
C1288 C1294 1.368 . S
C1289 C1273 1.349 . S
C1289 H1281 0.950 . S
C1289 C1287 1.327 . S
C1290 C1278 1.349 . S
C1290 H1284 0.950 . S
C1290 C1291 1.327 . S
C1291 H1285 0.950 . S
C1291 C1290 1.327 . S
C1291 C1295 1.429 . S
C1292 C1275 1.574 . S
C1292 H1286 0.949 . S
C1292 C1296 1.368 . S
C1293 C1274 1.429 . S
C1293 C1287 1.429 . S
C1293 C1294 1.523 . S
C1294 C1275 1.368 . S
C1294 C1288 1.368 . S
C1294 C1293 1.523 . S
C1295 C1279 1.429 . S
C1295 C1291 1.429 . S
C1295 C1296 1.523 . S
C1296 C1280 1.368 . S
C1296 C1292 1.368 . S
C1296 C1295 1.523 . S
H1297 C1272 0.950 . S
H1298 C1274 0.950 . S
H1299 C1275 0.949 . S
H1300 C1277 0.950 . S
H1301 C1279 0.950 . S
C1302 C1303 1.349 . S
C1302 C1304 1.327 . S
C1302 H1327 0.950 . S
C1303 C1302 1.349 . S
C1303 C1319 1.349 . S
C1304 C1302 1.327 . S
C1304 C1323 1.429 1_665 S
C1304 H1328 0.963 . S
C1305 C1322 1.574 . S
C1305 C1324 1.368 . S
C1305 H1329 0.949 . S
H1306 C1310 0.949 . S
C1307 C1308 1.349 . S
C1307 C1309 1.327 . S
C1307 H1330 0.950 . S
C1308 C1307 1.349 . S
C1308 C1320 1.349 . S
C1309 C1307 1.327 . S
C1309 C1325 1.429 . S
C1309 H1331 0.950 . S
C1310 H1306 0.949 . S
C1310 C1318 1.574 . S
C1310 C1326 1.368 . S
H1311 C1319 0.961 . S
H1312 C1317 0.950 . S
H1313 C1318 0.949 1_655 S
H1314 C1320 0.950 . S
H1315 C1321 0.950 . S
H1316 C1322 0.949 . S
C1317 H1312 0.950 . S
C1317 C1319 1.327 1_455 S
C1317 C1323 1.429 1_565 S
C1318 C1310 1.574 . S
C1318 H1313 0.949 1_455 S
C1318 C1324 1.368 . S
C1319 C1303 1.349 . S
C1319 H1311 0.961 . S
C1319 C1317 1.327 1_655 S
C1320 C1308 1.349 . S
C1320 H1314 0.950 . S
C1320 C1321 1.327 . S
C1321 H1315 0.950 . S
C1321 C1320 1.327 . S
C1321 C1325 1.429 . S
C1322 C1305 1.574 . S
C1322 H1316 0.949 . S
C1322 C1326 1.368 . S
C1323 C1304 1.429 1_445 S
C1323 C1317 1.429 1_545 S
C1323 C1324 1.523 . S
C1324 C1305 1.368 . S
C1324 C1318 1.368 . S
C1324 C1323 1.523 . S
C1325 C1309 1.429 . S
C1325 C1321 1.429 . S
C1325 C1326 1.523 . S
C1326 C1310 1.368 . S
C1326 C1322 1.368 . S
C1326 C1325 1.523 . S
H1327 C1302 0.950 . S
H1328 C1304 0.963 . S
H1329 C1305 0.949 . S
H1330 C1307 0.950 . S
H1331 C1309 0.950 . S
C1332 C1333 1.349 . S
C1332 C1334 1.327 . S
C1332 H1357 0.950 . S
C1333 C1332 1.349 . S
C1333 C1349 1.349 . S
C1334 C1332 1.327 . S
C1334 C1353 1.429 . S
C1334 H1358 0.950 . S
C1335 C1352 1.574 . S
C1335 C1354 1.368 . S
C1335 H1359 0.949 . S
H1336 C1340 0.949 . S
C1337 C1338 1.349 . S
C1337 C1339 1.327 . S
C1337 H1360 0.950 . S
C1338 C1337 1.349 . S
C1338 C1350 1.349 . S
C1339 C1337 1.327 . S
C1339 C1355 1.429 . S
C1339 H1361 0.950 . S
C1340 H1336 0.949 . S
C1340 C1348 1.574 . S
C1340 C1356 1.368 . S
H1341 C1349 0.950 . S
H1342 C1347 0.950 . S
H1343 C1348 0.949 . S
H1344 C1350 0.950 . S
H1345 C1351 0.950 . S
H1346 C1352 0.949 . S
C1347 H1342 0.950 . S
C1347 C1349 1.327 . S
C1347 C1353 1.429 . S
C1348 C1340 1.574 . S
C1348 H1343 0.949 . S
C1348 C1354 1.368 . S
C1349 C1333 1.349 . S
C1349 H1341 0.950 . S
C1349 C1347 1.327 . S
C1350 C1338 1.349 . S
C1350 H1344 0.950 . S
C1350 C1351 1.327 . S
C1351 H1345 0.950 . S
C1351 C1350 1.327 . S
C1351 C1355 1.429 . S
C1352 C1335 1.574 . S
C1352 H1346 0.949 . S
C1352 C1356 1.368 . S
C1353 C1334 1.429 . S
C1353 C1347 1.429 . S
C1353 C1354 1.523 . S
C1354 C1335 1.368 . S
C1354 C1348 1.368 . S
C1354 C1353 1.523 . S
C1355 C1339 1.429 . S
C1355 C1351 1.429 . S
C1355 C1356 1.523 . S
C1356 C1340 1.368 . S
C1356 C1352 1.368 . S
C1356 C1355 1.523 . S
H1357 C1332 0.950 . S
H1358 C1334 0.950 . S
H1359 C1335 0.949 . S
H1360 C1337 0.950 . S
H1361 C1339 0.950 . S
C1362 C1363 1.349 . S
C1362 C1364 1.327 . S
C1362 H1387 0.950 . S
C1363 C1362 1.349 . S
C1363 C1379 1.349 . S
C1364 C1362 1.327 . S
C1364 C1383 1.429 1_545 S
C1364 H1388 0.950 . S
C1365 C1382 1.574 . S
C1365 C1384 1.368 . S
C1365 H1389 0.949 . S
H1366 C1370 0.949 . S
C1367 C1368 1.349 . S
C1367 C1369 1.327 . S
C1367 H1390 0.950 . S
C1368 C1367 1.349 . S
C1368 C1380 1.349 . S
C1369 C1367 1.327 . S
C1369 C1385 1.429 . S
C1369 H1391 0.950 . S
C1370 H1366 0.949 . S
C1370 C1378 1.574 . S
C1370 C1386 1.368 . S
H1371 C1379 0.950 . S
H1372 C1377 0.950 . S
H1373 C1378 0.949 . S
H1374 C1380 0.950 . S
H1375 C1381 0.950 . S
H1376 C1382 0.949 . S
C1377 H1372 0.950 . S
C1377 C1379 1.327 . S
C1377 C1383 1.429 1_545 S
C1378 C1370 1.574 . S
C1378 H1373 0.949 . S
C1378 C1384 1.368 . S
C1379 C1363 1.349 . S
C1379 H1371 0.950 . S
C1379 C1377 1.327 . S
C1380 C1368 1.349 . S
C1380 H1374 0.950 . S
C1380 C1381 1.327 . S
C1381 H1375 0.950 . S
C1381 C1380 1.327 . S
C1381 C1385 1.429 . S
C1382 C1365 1.574 . S
C1382 H1376 0.949 . S
C1382 C1386 1.368 . S
C1383 C1364 1.429 1_565 S
C1383 C1377 1.429 1_565 S
C1383 C1384 1.523 . S
C1384 C1365 1.368 . S
C1384 C1378 1.368 . S
C1384 C1383 1.523 . S
C1385 C1369 1.429 . S
C1385 C1381 1.429 . S
C1385 C1386 1.523 . S
C1386 C1370 1.368 . S
C1386 C1382 1.368 . S
C1386 C1385 1.523 . S
H1387 C1362 0.950 . S
H1388 C1364 0.950 . S
H1389 C1365 0.949 . S
H1390 C1367 0.950 . S
H1391 C1369 0.950 . S
C1392 C1393 1.349 . S
C1392 C1394 1.327 . S
C1392 H1417 0.950 . S
C1393 C1392 1.349 . S
C1393 C1409 1.349 . S
C1394 C1392 1.327 . S
C1394 C1413 1.429 . S
C1394 H1418 0.950 . S
C1395 C1412 1.574 . S
C1395 C1414 1.368 . S
C1395 H1419 0.949 . S
H1396 C1400 0.949 . S
C1397 C1398 1.349 . S
C1397 C1399 1.327 . S
C1397 H1420 0.950 . S
C1398 C1397 1.349 . S
C1398 C1410 1.349 . S
C1399 C1397 1.327 . S
C1399 C1415 1.429 . S
C1399 H1421 0.950 . S
C1400 H1396 0.949 . S
C1400 C1408 1.574 . S
C1400 C1416 1.368 . S
H1401 C1409 0.950 . S
H1402 C1407 0.950 . S
H1403 C1408 0.949 . S
H1404 C1410 0.950 . S
H1405 C1411 0.950 . S
H1406 C1412 0.949 . S
C1407 H1402 0.950 . S
C1407 C1409 1.327 . S
C1407 C1413 1.429 . S
C1408 C1400 1.574 . S
C1408 H1403 0.949 . S
C1408 C1414 1.368 . S
C1409 C1393 1.349 . S
C1409 H1401 0.950 . S
C1409 C1407 1.327 . S
C1410 C1398 1.349 . S
C1410 H1404 0.950 . S
C1410 C1411 1.327 . S
C1411 H1405 0.950 . S
C1411 C1410 1.327 . S
C1411 C1415 1.429 . S
C1412 C1395 1.574 . S
C1412 H1406 0.949 . S
C1412 C1416 1.368 . S
C1413 C1394 1.429 . S
C1413 C1407 1.429 . S
C1413 C1414 1.523 . S
C1414 C1395 1.368 . S
C1414 C1408 1.368 . S
C1414 C1413 1.523 . S
C1415 C1399 1.429 . S
C1415 C1411 1.429 . S
C1415 C1416 1.523 . S
C1416 C1400 1.368 . S
C1416 C1412 1.368 . S
C1416 C1415 1.523 . S
H1417 C1392 0.950 . S
H1418 C1394 0.950 . S
H1419 C1395 0.949 . S
H1420 C1397 0.950 . S
H1421 C1399 0.950 . S
C1422 C1423 1.349 . S
C1422 C1424 1.327 1_455 S
C1422 H1447 0.940 1_455 S
C1423 C1422 1.349 . S
C1423 C1439 1.349 . S
C1424 C1422 1.327 1_655 S
C1424 C1443 1.429 . S
C1424 H1448 0.950 . S
C1425 C1442 1.574 . S
C1425 C1444 1.368 . S
C1425 H1449 0.949 1_655 S
H1426 C1430 0.949 . S
C1427 C1428 1.349 . S
C1427 C1429 1.327 . S
C1427 H1450 0.950 . S
C1428 C1427 1.349 . S
C1428 C1440 1.349 . S
C1429 C1427 1.327 . S
C1429 C1445 1.429 . S
C1429 H1451 0.950 . S
C1430 H1426 0.949 . S
C1430 C1438 1.574 . S
C1430 C1446 1.368 . S
H1431 C1439 0.950 . S
H1432 C1437 0.950 . S
H1433 C1438 0.949 . S
H1434 C1440 0.950 . S
H1435 C1441 0.950 . S
H1436 C1442 0.949 . S
C1437 H1432 0.950 . S
C1437 C1439 1.327 . S
C1437 C1443 1.429 1_455 S
C1438 C1430 1.574 . S
C1438 H1433 0.949 . S
C1438 C1444 1.368 . S
C1439 C1423 1.349 . S
C1439 H1431 0.950 . S
C1439 C1437 1.327 . S
C1440 C1428 1.349 . S
C1440 H1434 0.950 . S
C1440 C1441 1.327 . S
C1441 H1435 0.950 . S
C1441 C1440 1.327 . S
C1441 C1445 1.429 . S
C1442 C1425 1.574 . S
C1442 H1436 0.949 . S
C1442 C1446 1.368 . S
C1443 C1424 1.429 . S
C1443 C1437 1.429 1_655 S
C1443 C1444 1.523 . S
C1444 C1425 1.368 . S
C1444 C1438 1.368 . S
C1444 C1443 1.523 . S
C1445 C1429 1.429 . S
C1445 C1441 1.429 . S
C1445 C1446 1.523 . S
C1446 C1430 1.368 . S
C1446 C1442 1.368 . S
C1446 C1445 1.523 . S
H1447 C1422 0.940 1_655 S
H1448 C1424 0.950 . S
H1449 C1425 0.949 1_455 S
H1450 C1427 0.950 . S
H1451 C1429 0.950 . S
C1452 C1453 1.349 . S
C1452 C1454 1.327 . S
C1452 H1477 0.950 . S
C1453 C1452 1.349 . S
C1453 C1469 1.349 . S
C1454 C1452 1.327 . S
C1454 C1473 1.429 . S
C1454 H1478 0.950 . S
C1455 C1472 1.574 . S
C1455 C1474 1.368 . S
C1455 H1479 0.949 . S
H1456 C1460 0.949 . S
C1457 C1458 1.349 . S
C1457 C1459 1.327 . S
C1457 H1480 0.950 . S
C1458 C1457 1.349 . S
C1458 C1470 1.349 . S
C1459 C1457 1.327 . S
C1459 C1475 1.429 . S
C1459 H1481 0.950 . S
C1460 H1456 0.949 . S
C1460 C1468 1.574 . S
C1460 C1476 1.368 . S
H1461 C1469 0.950 . S
H1462 C1467 0.950 . S
H1463 C1468 0.949 . S
H1464 C1470 0.950 . S
H1465 C1471 0.950 . S
H1466 C1472 0.949 . S
C1467 H1462 0.950 . S
C1467 C1469 1.327 . S
C1467 C1473 1.429 . S
C1468 C1460 1.574 . S
C1468 H1463 0.949 . S
C1468 C1474 1.368 . S
C1469 C1453 1.349 . S
C1469 H1461 0.950 . S
C1469 C1467 1.327 . S
C1470 C1458 1.349 . S
C1470 H1464 0.950 . S
C1470 C1471 1.327 . S
C1471 H1465 0.950 . S
C1471 C1470 1.327 . S
C1471 C1475 1.429 . S
C1472 C1455 1.574 . S
C1472 H1466 0.949 . S
C1472 C1476 1.368 . S
C1473 C1454 1.429 . S
C1473 C1467 1.429 . S
C1473 C1474 1.523 . S
C1474 C1455 1.368 . S
C1474 C1468 1.368 . S
C1474 C1473 1.523 . S
C1475 C1459 1.429 . S
C1475 C1471 1.429 . S
C1475 C1476 1.523 . S
C1476 C1460 1.368 . S
C1476 C1472 1.368 . S
C1476 C1475 1.523 . S
H1477 C1452 0.950 . S
H1478 C1454 0.950 . S
H1479 C1455 0.949 . S
H1480 C1457 0.950 . S
H1481 C1459 0.950 . S
C1482 C1483 1.349 . S
C1482 C1484 1.327 . S
C1482 H1507 0.950 . S
C1483 C1482 1.349 . S
C1483 C1499 1.349 . S
C1484 C1482 1.327 . S
C1484 C1503 1.429 . S
C1484 H1508 0.950 . S
C1485 C1502 1.574 . S
C1485 C1504 1.368 . S
C1485 H1509 0.949 . S
H1486 C1490 0.949 . S
C1487 C1488 1.349 . S
C1487 C1489 1.327 . S
C1487 H1510 0.950 . S
C1488 C1487 1.349 . S
C1488 C1500 1.349 . S
C1489 C1487 1.327 . S
C1489 C1505 1.429 . S
C1489 H1511 0.950 . S
C1490 H1486 0.949 . S
C1490 C1498 1.574 . S
C1490 C1506 1.368 . S
H1491 C1499 0.950 . S
H1492 C1497 0.950 . S
H1493 C1498 0.949 . S
H1494 C1500 0.950 . S
H1495 C1501 0.950 . S
H1496 C1502 0.949 . S
C1497 H1492 0.950 . S
C1497 C1499 1.327 . S
C1497 C1503 1.429 . S
C1498 C1490 1.574 . S
C1498 H1493 0.949 . S
C1498 C1504 1.368 . S
C1499 C1483 1.349 . S
C1499 H1491 0.950 . S
C1499 C1497 1.327 . S
C1500 C1488 1.349 . S
C1500 H1494 0.950 . S
C1500 C1501 1.327 . S
C1501 H1495 0.950 . S
C1501 C1500 1.327 . S
C1501 C1505 1.429 . S
C1502 C1485 1.574 . S
C1502 H1496 0.949 . S
C1502 C1506 1.368 . S
C1503 C1484 1.429 . S
C1503 C1497 1.429 . S
C1503 C1504 1.523 . S
C1504 C1485 1.368 . S
C1504 C1498 1.368 . S
C1504 C1503 1.523 . S
C1505 C1489 1.429 . S
C1505 C1501 1.429 . S
C1505 C1506 1.523 . S
C1506 C1490 1.368 . S
C1506 C1502 1.368 . S
C1506 C1505 1.523 . S
H1507 C1482 0.950 . S
H1508 C1484 0.950 . S
H1509 C1485 0.949 . S
H1510 C1487 0.950 . S
H1511 C1489 0.950 . S
C1512 C1513 1.349 . S
C1512 C1514 1.327 . S
C1512 H1537 0.950 . S
C1513 C1512 1.349 . S
C1513 C1529 1.349 . S
C1514 C1512 1.327 . S
C1514 C1533 1.429 . S
C1514 H1538 0.950 . S
C1515 C1532 1.574 . S
C1515 C1534 1.368 . S
C1515 H1539 0.949 . S
H1516 C1520 0.949 . S
C1517 C1518 1.349 . S
C1517 C1519 1.327 . S
C1517 H1540 0.950 . S
C1518 C1517 1.349 . S
C1518 C1530 1.349 . S
C1519 C1517 1.327 . S
C1519 C1535 1.429 . S
C1519 H1541 0.950 . S
C1520 H1516 0.949 . S
C1520 C1528 1.574 . S
C1520 C1536 1.368 . S
H1521 C1529 0.950 . S
H1522 C1527 0.950 . S
H1523 C1528 0.949 . S
H1524 C1530 0.950 . S
H1525 C1531 0.950 . S
H1526 C1532 0.949 . S
C1527 H1522 0.950 . S
C1527 C1529 1.327 . S
C1527 C1533 1.429 . S
C1528 C1520 1.574 . S
C1528 H1523 0.949 . S
C1528 C1534 1.368 . S
C1529 C1513 1.349 . S
C1529 H1521 0.950 . S
C1529 C1527 1.327 . S
C1530 C1518 1.349 . S
C1530 H1524 0.950 . S
C1530 C1531 1.327 . S
C1531 H1525 0.950 . S
C1531 C1530 1.327 . S
C1531 C1535 1.429 . S
C1532 C1515 1.574 . S
C1532 H1526 0.949 . S
C1532 C1536 1.368 . S
C1533 C1514 1.429 . S
C1533 C1527 1.429 . S
C1533 C1534 1.523 . S
C1534 C1515 1.368 . S
C1534 C1528 1.368 . S
C1534 C1533 1.523 . S
C1535 C1519 1.429 . S
C1535 C1531 1.429 . S
C1535 C1536 1.523 . S
C1536 C1520 1.368 . S
C1536 C1532 1.368 . S
C1536 C1535 1.523 . S
H1537 C1512 0.950 . S
H1538 C1514 0.950 . S
H1539 C1515 0.949 . S
H1540 C1517 0.950 . S
H1541 C1519 0.950 . S
C1542 C1543 1.349 . S
C1542 C1544 1.327 . S
C1542 H1567 0.950 . S
C1543 C1542 1.349 . S
C1543 C1559 1.349 . S
C1544 C1542 1.327 . S
C1544 C1563 1.429 . S
C1544 H1568 0.950 . S
C1545 C1562 1.574 . S
C1545 C1564 1.368 . S
C1545 H1569 0.949 . S
H1546 C1550 0.949 . S
C1547 C1548 1.349 . S
C1547 C1549 1.327 . S
C1547 H1570 0.950 . S
C1548 C1547 1.349 . S
C1548 C1560 1.349 . S
C1549 C1547 1.327 . S
C1549 C1565 1.429 . S
C1549 H1571 0.950 . S
C1550 H1546 0.949 . S
C1550 C1558 1.574 . S
C1550 C1566 1.368 . S
H1551 C1559 0.950 . S
H1552 C1557 0.950 . S
H1553 C1558 0.949 . S
H1554 C1560 0.950 . S
H1555 C1561 0.950 . S
H1556 C1562 0.949 . S
C1557 H1552 0.950 . S
C1557 C1559 1.327 . S
C1557 C1563 1.429 . S
C1558 C1550 1.574 . S
C1558 H1553 0.949 . S
C1558 C1564 1.368 . S
C1559 C1543 1.349 . S
C1559 H1551 0.950 . S
C1559 C1557 1.327 . S
C1560 C1548 1.349 . S
C1560 H1554 0.950 . S
C1560 C1561 1.327 . S
C1561 H1555 0.950 . S
C1561 C1560 1.327 . S
C1561 C1565 1.429 . S
C1562 C1545 1.574 . S
C1562 H1556 0.949 . S
C1562 C1566 1.368 . S
C1563 C1544 1.429 . S
C1563 C1557 1.429 . S
C1563 C1564 1.523 . S
C1564 C1545 1.368 . S
C1564 C1558 1.368 . S
C1564 C1563 1.523 . S
C1565 C1549 1.429 . S
C1565 C1561 1.429 . S
C1565 C1566 1.523 . S
C1566 C1550 1.368 . S
C1566 C1562 1.368 . S
C1566 C1565 1.523 . S
H1567 C1542 0.950 . S
H1568 C1544 0.950 . S
H1569 C1545 0.949 . S
H1570 C1547 0.950 . S
H1571 C1549 0.950 . S
C1572 C1573 1.349 . S
C1572 C1574 1.327 . S
C1572 H1597 0.950 . S
C1573 C1572 1.349 . S
C1573 C1589 1.349 . S
C1574 C1572 1.327 . S
C1574 C1593 1.429 1_656 S
C1574 H1598 0.953 1_655 S
C1575 C1592 1.574 . S
C1575 C1594 1.368 . S
C1575 H1599 0.949 . S
H1576 C1580 0.949 . S
C1577 C1578 1.349 . S
C1577 C1579 1.327 . S
C1577 H1600 0.950 . S
C1578 C1577 1.349 . S
C1578 C1590 1.349 . S
C1579 C1577 1.327 . S
C1579 C1595 1.429 . S
C1579 H1601 0.950 . S
C1580 H1576 0.949 . S
C1580 C1588 1.574 . S
C1580 C1596 1.368 . S
H1581 C1589 0.949 . S
H1582 C1587 0.950 . S
H1583 C1588 0.949 1_556 S
H1584 C1590 0.950 . S
H1585 C1591 0.950 . S
H1586 C1592 0.949 . S
C1587 H1582 0.950 . S
C1587 C1589 1.327 1_554 S
C1587 C1593 1.429 1_655 S
C1588 C1580 1.574 . S
C1588 H1583 0.949 1_554 S
C1588 C1594 1.368 . S
C1589 C1573 1.349 . S
C1589 H1581 0.949 . S
C1589 C1587 1.327 1_556 S
C1590 C1578 1.349 . S
C1590 H1584 0.950 . S
C1590 C1591 1.327 . S
C1591 H1585 0.950 . S
C1591 C1590 1.327 . S
C1591 C1595 1.429 . S
C1592 C1575 1.574 . S
C1592 H1586 0.949 . S
C1592 C1596 1.368 . S
C1593 C1574 1.429 1_454 S
C1593 C1587 1.429 1_455 S
C1593 C1594 1.523 . S
C1594 C1575 1.368 . S
C1594 C1588 1.368 . S
C1594 C1593 1.523 . S
C1595 C1579 1.429 . S
C1595 C1591 1.429 . S
C1595 C1596 1.523 . S
C1596 C1580 1.368 . S
C1596 C1592 1.368 . S
C1596 C1595 1.523 . S
H1597 C1572 0.950 . S
H1598 C1574 0.953 1_455 S
H1599 C1575 0.949 . S
H1600 C1577 0.950 . S
H1601 C1579 0.950 . S
C1602 C1603 1.349 . S
C1602 C1604 1.327 . S
C1602 H1627 0.950 . S
C1603 C1602 1.349 . S
C1603 C1619 1.349 . S
C1604 C1602 1.327 . S
C1604 C1623 1.429 . S
C1604 H1628 0.950 . S
C1605 C1622 1.574 . S
C1605 C1624 1.368 . S
C1605 H1629 0.949 . S
H1606 C1610 0.949 . S
C1607 C1608 1.349 . S
C1607 C1609 1.327 . S
C1607 H1630 0.950 . S
C1608 C1607 1.349 . S
C1608 C1620 1.349 . S
C1609 C1607 1.327 . S
C1609 C1625 1.429 . S
C1609 H1631 0.950 . S
C1610 H1606 0.949 . S
C1610 C1618 1.574 . S
C1610 C1626 1.368 . S
H1611 C1619 0.950 . S
H1612 C1617 0.950 . S
H1613 C1618 0.949 . S
H1614 C1620 0.950 . S
H1615 C1621 0.950 . S
H1616 C1622 0.949 . S
C1617 H1612 0.950 . S
C1617 C1619 1.327 . S
C1617 C1623 1.429 . S
C1618 C1610 1.574 . S
C1618 H1613 0.949 . S
C1618 C1624 1.368 . S
C1619 C1603 1.349 . S
C1619 H1611 0.950 . S
C1619 C1617 1.327 . S
C1620 C1608 1.349 . S
C1620 H1614 0.950 . S
C1620 C1621 1.327 . S
C1621 H1615 0.950 . S
C1621 C1620 1.327 . S
C1621 C1625 1.429 . S
C1622 C1605 1.574 . S
C1622 H1616 0.949 . S
C1622 C1626 1.368 . S
C1623 C1604 1.429 . S
C1623 C1617 1.429 . S
C1623 C1624 1.523 . S
C1624 C1605 1.368 . S
C1624 C1618 1.368 . S
C1624 C1623 1.523 . S
C1625 C1609 1.429 . S
C1625 C1621 1.429 . S
C1625 C1626 1.523 . S
C1626 C1610 1.368 . S
C1626 C1622 1.368 . S
C1626 C1625 1.523 . S
H1627 C1602 0.950 . S
H1628 C1604 0.950 . S
H1629 C1605 0.949 . S
H1630 C1607 0.950 . S
H1631 C1609 0.950 . S
C1632 C1633 1.349 . S
C1632 C1634 1.327 . S
C1632 H1657 0.950 . S
C1633 C1632 1.349 . S
C1633 C1649 1.349 . S
C1634 C1632 1.327 . S
C1634 C1653 1.429 . S
C1634 H1658 0.950 . S
C1635 C1652 1.574 . S
C1635 C1654 1.368 . S
C1635 H1659 0.949 . S
H1636 C1640 0.949 . S
C1637 C1638 1.349 . S
C1637 C1639 1.327 . S
C1637 H1660 0.950 . S
C1638 C1637 1.349 . S
C1638 C1650 1.349 . S
C1639 C1637 1.327 . S
C1639 C1655 1.429 . S
C1639 H1661 0.950 . S
C1640 H1636 0.949 . S
C1640 C1648 1.574 . S
C1640 C1656 1.368 . S
H1641 C1649 0.950 . S
H1642 C1647 0.950 . S
H1643 C1648 0.949 . S
H1644 C1650 0.950 . S
H1645 C1651 0.950 . S
H1646 C1652 0.949 . S
C1647 H1642 0.950 . S
C1647 C1649 1.327 . S
C1647 C1653 1.429 . S
C1648 C1640 1.574 . S
C1648 H1643 0.949 . S
C1648 C1654 1.368 . S
C1649 C1633 1.349 . S
C1649 H1641 0.950 . S
C1649 C1647 1.327 . S
C1650 C1638 1.349 . S
C1650 H1644 0.950 . S
C1650 C1651 1.327 . S
C1651 H1645 0.950 . S
C1651 C1650 1.327 . S
C1651 C1655 1.429 . S
C1652 C1635 1.574 . S
C1652 H1646 0.949 . S
C1652 C1656 1.368 . S
C1653 C1634 1.429 . S
C1653 C1647 1.429 . S
C1653 C1654 1.523 . S
C1654 C1635 1.368 . S
C1654 C1648 1.368 . S
C1654 C1653 1.523 . S
C1655 C1639 1.429 . S
C1655 C1651 1.429 . S
C1655 C1656 1.523 . S
C1656 C1640 1.368 . S
C1656 C1652 1.368 . S
C1656 C1655 1.523 . S
H1657 C1632 0.950 . S
H1658 C1634 0.950 . S
H1659 C1635 0.949 . S
H1660 C1637 0.950 . S
H1661 C1639 0.950 . S
C1662 C1663 1.349 . S
C1662 C1664 1.327 . S
C1662 H1687 0.950 . S
C1663 C1662 1.349 . S
C1663 C1679 1.349 . S
C1664 C1662 1.327 . S
C1664 C1683 1.429 . S
C1664 H1688 0.950 . S
C1665 C1682 1.574 . S
C1665 C1684 1.368 . S
C1665 H1689 0.949 . S
H1666 C1670 0.949 . S
C1667 C1668 1.349 . S
C1667 C1669 1.327 . S
C1667 H1690 0.950 . S
C1668 C1667 1.349 . S
C1668 C1680 1.349 . S
C1669 C1667 1.327 . S
C1669 C1685 1.429 . S
C1669 H1691 0.950 . S
C1670 H1666 0.949 . S
C1670 C1678 1.574 . S
C1670 C1686 1.368 . S
H1671 C1679 0.950 . S
H1672 C1677 0.950 . S
H1673 C1678 0.949 . S
H1674 C1680 0.950 . S
H1675 C1681 0.950 . S
H1676 C1682 0.949 . S
C1677 H1672 0.950 . S
C1677 C1679 1.327 . S
C1677 C1683 1.429 . S
C1678 C1670 1.574 . S
C1678 H1673 0.949 . S
C1678 C1684 1.368 . S
C1679 C1663 1.349 . S
C1679 H1671 0.950 . S
C1679 C1677 1.327 . S
C1680 C1668 1.349 . S
C1680 H1674 0.950 . S
C1680 C1681 1.327 . S
C1681 H1675 0.950 . S
C1681 C1680 1.327 . S
C1681 C1685 1.429 . S
C1682 C1665 1.574 . S
C1682 H1676 0.949 . S
C1682 C1686 1.368 . S
C1683 C1664 1.429 . S
C1683 C1677 1.429 . S
C1683 C1684 1.523 . S
C1684 C1665 1.368 . S
C1684 C1678 1.368 . S
C1684 C1683 1.523 . S
C1685 C1669 1.429 . S
C1685 C1681 1.429 . S
C1685 C1686 1.523 . S
C1686 C1670 1.368 . S
C1686 C1682 1.368 . S
C1686 C1685 1.523 . S
H1687 C1662 0.950 . S
H1688 C1664 0.950 . S
H1689 C1665 0.949 . S
H1690 C1667 0.950 . S
H1691 C1669 0.950 . S
C1692 C1693 1.349 1_556 S
C1692 C1694 1.327 . S
C1692 H1717 0.950 . S
C1693 C1692 1.349 1_554 S
C1693 C1709 1.349 . S
C1694 C1692 1.327 . S
C1694 C1713 1.429 . S
C1694 H1718 0.950 . S
C1695 C1712 1.568 1_554 S
C1695 C1714 1.361 1_554 S
C1695 H1719 0.960 . S
H1696 C1700 0.949 . S
C1697 C1698 1.349 . S
C1697 C1699 1.327 . S
C1697 H1720 0.950 . S
C1698 C1697 1.349 . S
C1698 C1710 1.349 . S
C1699 C1697 1.327 . S
C1699 C1715 1.429 . S
C1699 H1721 0.950 . S
C1700 H1696 0.949 . S
C1700 C1708 1.574 . S
C1700 C1716 1.368 . S
H1701 C1709 0.950 . S
H1702 C1707 0.950 . S
H1703 C1708 0.949 . S
H1704 C1710 0.950 . S
H1705 C1711 0.950 . S
H1706 C1712 0.949 . S
C1707 H1702 0.950 . S
C1707 C1709 1.327 . S
C1707 C1713 1.429 1_554 S
C1708 C1700 1.574 . S
C1708 H1703 0.949 . S
C1708 C1714 1.368 . S
C1709 C1693 1.349 . S
C1709 H1701 0.950 . S
C1709 C1707 1.327 . S
C1710 C1698 1.349 . S
C1710 H1704 0.950 . S
C1710 C1711 1.327 . S
C1711 H1705 0.950 . S
C1711 C1710 1.327 . S
C1711 C1715 1.429 . S
C1712 C1695 1.568 1_556 S
C1712 H1706 0.949 . S
C1712 C1716 1.368 . S
C1713 C1694 1.429 . S
C1713 C1707 1.429 1_556 S
C1713 C1714 1.523 . S
C1714 C1695 1.361 1_556 S
C1714 C1708 1.368 . S
C1714 C1713 1.523 . S
C1715 C1699 1.429 . S
C1715 C1711 1.429 . S
C1715 C1716 1.523 . S
C1716 C1700 1.368 . S
C1716 C1712 1.368 . S
C1716 C1715 1.523 . S
H1717 C1692 0.950 . S
H1718 C1694 0.950 . S
H1719 C1695 0.960 . S
H1720 C1697 0.950 . S
H1721 C1699 0.950 . S
C1722 C1723 1.349 . S
C1722 C1724 1.327 . S
C1722 H1747 0.950 . S
C1723 C1722 1.349 . S
C1723 C1739 1.349 . S
C1724 C1722 1.327 . S
C1724 C1743 1.429 . S
C1724 H1748 0.950 . S
C1725 C1742 1.574 . S
C1725 C1744 1.368 . S
C1725 H1749 0.949 . S
H1726 C1730 0.949 . S
C1727 C1728 1.349 . S
C1727 C1729 1.327 . S
C1727 H1750 0.950 . S
C1728 C1727 1.349 . S
C1728 C1740 1.349 . S
C1729 C1727 1.327 . S
C1729 C1745 1.429 1_455 S
C1729 H1751 0.950 1_455 S
C1730 H1726 0.949 . S
C1730 C1738 1.574 . S
C1730 C1746 1.368 . S
H1731 C1739 0.950 . S
H1732 C1737 0.950 . S
H1733 C1738 0.949 . S
H1734 C1740 0.950 . S
H1735 C1741 0.950 . S
H1736 C1742 0.949 . S
C1737 H1732 0.950 . S
C1737 C1739 1.327 . S
C1737 C1743 1.429 . S
C1738 C1730 1.574 . S
C1738 H1733 0.949 . S
C1738 C1744 1.368 . S
C1739 C1723 1.349 . S
C1739 H1731 0.950 . S
C1739 C1737 1.327 . S
C1740 C1728 1.349 . S
C1740 H1734 0.950 . S
C1740 C1741 1.327 . S
C1741 H1735 0.950 . S
C1741 C1740 1.327 . S
C1741 C1745 1.429 1_455 S
C1742 C1725 1.574 . S
C1742 H1736 0.949 . S
C1742 C1746 1.368 . S
C1743 C1724 1.429 . S
C1743 C1737 1.429 . S
C1743 C1744 1.523 . S
C1744 C1725 1.368 . S
C1744 C1738 1.368 . S
C1744 C1743 1.523 . S
C1745 C1729 1.429 1_655 S
C1745 C1741 1.429 1_655 S
C1745 C1746 1.523 . S
C1746 C1730 1.368 . S
C1746 C1742 1.368 . S
C1746 C1745 1.523 . S
H1747 C1722 0.950 . S
H1748 C1724 0.950 . S
H1749 C1725 0.949 . S
H1750 C1727 0.950 . S
H1751 C1729 0.950 1_655 S
C313 C121 1.022 . S
C318 C4 1.022 . S
C343 C23 1.022 . S
C348 C140 1.022 . S
C373 C36 1.022 . S
C378 C147 1.022 . S
C403 C49 1.022 . S
C408 C108 1.022 . S
C433 C56 1.022 . S
C438 C199 1.022 . S
C463 C166 1.022 . S
C468 C69 1.022 . S
C493 C88 1.022 . S
C498 C179 1.022 . S
C523 C186 1.022 . S
C528 C101 1.022 . S
C553 C212 1.022 . S
C558 C238 1.022 . S
C583 C290 1.022 . S
C588 C225 1.022 . S
C613 C251 1.022 . S
C618 C309 1.022 . S
C643 C283 1.022 . S
C648 C270 1.022 . S
C673 C264 1.836 . S
C678 C10 1.836 . S
C703 C17 1.836 . S
C708 C231 1.836 . S
C733 C30 1.836 . S
C738 C244 1.836 . S
C763 C43 1.836 . S
C768 C257 1.836 . S
C793 C62 1.836 . S
C798 C303 1.836 . S
C823 C277 1.836 . S
C828 C75 1.836 . S
C853 C296 1.836 . S
C858 C82 1.836 . S
C883 C218 1.836 . S
C888 C95 1.836 . S
C913 C205 1.836 . S
C918 C114 1.836 . S
C943 C127 1.836 . S
C948 C160 1.836 . S
C973 C173 1.836 . S
C978 C134 1.836 . S
C1003 C192 1.836 . S
C1008 C153 1.836 . S
C1033 C5 1.144 . S
C1038 C211 1.166 . S
C1063 C304 1.166 . S
C1068 C16 1.144 . S
C1093 C278 1.166 . S
C1098 C29 1.144 . S
C1123 C42 1.144 . S
C1128 C289 1.166 . S
C1153 C57 1.144 . S
C1158 C224 1.166 . S
C1183 C237 1.166 . S
C1188 C70 1.144 . S
C1213 C250 1.166 . S
C1218 C81 1.144 . S
C1243 C265 1.166 . S
C1248 C94 1.144 . S
C1273 C3 1.166 . S
C1278 C109 1.144 . S
C1303 C18 1.166 . S
C1308 C122 1.144 . S
C1333 C31 1.166 . S
C1338 C133 1.144 . S
C1363 C44 1.166 . S
C1368 C148 1.144 . S
C1393 C55 1.166 . S
C1398 C159 1.144 . S
C1423 C68 1.166 . S
C1428 C172 1.144 . S
C1453 C187 1.144 . S
C1458 C83 1.166 . S
C1483 C96 1.166 . S
C1488 C200 1.144 . S
C1513 C107 1.166 . S
C1518 C213 1.144 . S
C1543 C226 1.144 . S
C1548 C161 1.166 . S
C1573 C174 1.166 . S
C1578 C239 1.144 . S
C1603 C252 1.144 . S
C1608 C185 1.166 . S
C1633 C263 1.144 . S
C1638 C198 1.166 . S
C1663 C276 1.144 . S
C1668 C135 1.166 . S
C1693 C146 1.166 . S
C1698 C291 1.144 . S
C1723 C302 1.144 . S
C1728 C120 1.166 . S
