# Generated by pormake.
# Topology whz, (6)-cn, num edge types: 1
# Building blocks:
#     Node 0, Type 0, BuildingBlock: UKALOJ_clean_sbu_0, # of connection points: 6
#     Node 1, Type 0, BuildingBlock: UKALOJ_clean_sbu_0, # of connection points: 6
#     Node 2, Type 0, BuildingBlock: UKALOJ_clean_sbu_0, # of connection points: 6
#     Node 3, Type 0, BuildingBlock: UKALOJ_clean_sbu_0, # of connection points: 6
#     Node 4, Type 0, BuildingBlock: UKALOJ_clean_sbu_0, # of connection points: 6
#     Node 5, Type 0, BuildingBlock: UKALOJ_clean_sbu_0, # of connection points: 6
#     Node 6, Type 0, BuildingBlock: UKALOJ_clean_sbu_0, # of connection points: 6
#     Node 7, Type 0, BuildingBlock: UKALOJ_clean_sbu_0, # of connection points: 6
#     Node 8, Type 0, BuildingBlock: UKALOJ_clean_sbu_0, # of connection points: 6
#     Node 9, Type 0, BuildingBlock: UKALOJ_clean_sbu_0, # of connection points: 6
#     Node 10, Type 0, BuildingBlock: UKALOJ_clean_sbu_0, # of connection points: 6
#     Node 11, Type 0, BuildingBlock: UKALOJ_clean_sbu_0, # of connection points: 6
#     Node 12, Type 0, BuildingBlock: UKALOJ_clean_sbu_0, # of connection points: 6
#     Node 13, Type 0, BuildingBlock: UKALOJ_clean_sbu_0, # of connection points: 6
#     Node 14, Type 0, BuildingBlock: UKALOJ_clean_sbu_0, # of connection points: 6
#     Node 15, Type 0, BuildingBlock: UKALOJ_clean_sbu_0, # of connection points: 6
#     Edge 16, Type (0, 0), BuildingBlock: OJICUG_clean_linker_0, # of connection points: 2
#     Edge 17, Type (0, 0), BuildingBlock: OJICUG_clean_linker_0, # of connection points: 2
#     Edge 18, Type (0, 0), BuildingBlock: OJICUG_clean_linker_0, # of connection points: 2
#     Edge 19, Type (0, 0), BuildingBlock: OJICUG_clean_linker_0, # of connection points: 2
#     Edge 20, Type (0, 0), BuildingBlock: OJICUG_clean_linker_0, # of connection points: 2
#     Edge 21, Type (0, 0), BuildingBlock: OJICUG_clean_linker_0, # of connection points: 2
#     Edge 22, Type (0, 0), BuildingBlock: OJICUG_clean_linker_0, # of connection points: 2
#     Edge 23, Type (0, 0), BuildingBlock: OJICUG_clean_linker_0, # of connection points: 2
#     Edge 24, Type (0, 0), BuildingBlock: OJICUG_clean_linker_0, # of connection points: 2
#     Edge 25, Type (0, 0), BuildingBlock: OJICUG_clean_linker_0, # of connection points: 2
#     Edge 26, Type (0, 0), BuildingBlock: OJICUG_clean_linker_0, # of connection points: 2
#     Edge 27, Type (0, 0), BuildingBlock: OJICUG_clean_linker_0, # of connection points: 2
#     Edge 28, Type (0, 0), BuildingBlock: OJICUG_clean_linker_0, # of connection points: 2
#     Edge 29, Type (0, 0), BuildingBlock: OJICUG_clean_linker_0, # of connection points: 2
#     Edge 30, Type (0, 0), BuildingBlock: OJICUG_clean_linker_0, # of connection points: 2
#     Edge 31, Type (0, 0), BuildingBlock: OJICUG_clean_linker_0, # of connection points: 2
#     Edge 32, Type (0, 0), BuildingBlock: OJICUG_clean_linker_0, # of connection points: 2
#     Edge 33, Type (0, 0), BuildingBlock: OJICUG_clean_linker_0, # of connection points: 2
#     Edge 34, Type (0, 0), BuildingBlock: OJICUG_clean_linker_0, # of connection points: 2
#     Edge 35, Type (0, 0), BuildingBlock: OJICUG_clean_linker_0, # of connection points: 2
#     Edge 36, Type (0, 0), BuildingBlock: OJICUG_clean_linker_0, # of connection points: 2
#     Edge 37, Type (0, 0), BuildingBlock: OJICUG_clean_linker_0, # of connection points: 2
#     Edge 38, Type (0, 0), BuildingBlock: OJICUG_clean_linker_0, # of connection points: 2
#     Edge 39, Type (0, 0), BuildingBlock: OJICUG_clean_linker_0, # of connection points: 2
#     Edge 40, Type (0, 0), BuildingBlock: OJICUG_clean_linker_0, # of connection points: 2
#     Edge 41, Type (0, 0), BuildingBlock: OJICUG_clean_linker_0, # of connection points: 2
#     Edge 42, Type (0, 0), BuildingBlock: OJICUG_clean_linker_0, # of connection points: 2
#     Edge 43, Type (0, 0), BuildingBlock: OJICUG_clean_linker_0, # of connection points: 2
#     Edge 44, Type (0, 0), BuildingBlock: OJICUG_clean_linker_0, # of connection points: 2
#     Edge 45, Type (0, 0), BuildingBlock: OJICUG_clean_linker_0, # of connection points: 2
#     Edge 46, Type (0, 0), BuildingBlock: OJICUG_clean_linker_0, # of connection points: 2
#     Edge 47, Type (0, 0), BuildingBlock: OJICUG_clean_linker_0, # of connection points: 2
#     Edge 48, Type (0, 0), BuildingBlock: OJICUG_clean_linker_0, # of connection points: 2
#     Edge 49, Type (0, 0), BuildingBlock: OJICUG_clean_linker_0, # of connection points: 2
#     Edge 50, Type (0, 0), BuildingBlock: OJICUG_clean_linker_0, # of connection points: 2
#     Edge 51, Type (0, 0), BuildingBlock: OJICUG_clean_linker_0, # of connection points: 2
#     Edge 52, Type (0, 0), BuildingBlock: OJICUG_clean_linker_0, # of connection points: 2
#     Edge 53, Type (0, 0), BuildingBlock: OJICUG_clean_linker_0, # of connection points: 2
#     Edge 54, Type (0, 0), BuildingBlock: OJICUG_clean_linker_0, # of connection points: 2
#     Edge 55, Type (0, 0), BuildingBlock: OJICUG_clean_linker_0, # of connection points: 2
#     Edge 56, Type (0, 0), BuildingBlock: OJICUG_clean_linker_0, # of connection points: 2
#     Edge 57, Type (0, 0), BuildingBlock: OJICUG_clean_linker_0, # of connection points: 2
#     Edge 58, Type (0, 0), BuildingBlock: OJICUG_clean_linker_0, # of connection points: 2
#     Edge 59, Type (0, 0), BuildingBlock: OJICUG_clean_linker_0, # of connection points: 2
#     Edge 60, Type (0, 0), BuildingBlock: OJICUG_clean_linker_0, # of connection points: 2
#     Edge 61, Type (0, 0), BuildingBlock: OJICUG_clean_linker_0, # of connection points: 2
#     Edge 62, Type (0, 0), BuildingBlock: OJICUG_clean_linker_0, # of connection points: 2
#     Edge 63, Type (0, 0), BuildingBlock: OJICUG_clean_linker_0, # of connection points: 2
# Relax obj value: 0.353
# Max RMSD: 0.243
# Mean RMSD: 0.243
data_MOF--net-whz--node1-UKALOJ_clean_sbu_0--edge1-OJICUG_clean_linker_0
_symmetry_space_group_name_H-M    P1
_symmetry_Int_Tables_number       1
_symmetry_cell_setting            triclinic
loop_
_symmetry_equiv_pos_as_xyz
'x, y, z'
_cell_length_a     32.236251
_cell_length_b     32.284643
_cell_length_c     33.303975
_cell_angle_alpha  90.185226
_cell_angle_beta   89.921716
_cell_angle_gamma 89.949192
loop_
_atom_site_label
_atom_site_type_symbol
_atom_site_fract_x
_atom_site_fract_y
_atom_site_fract_z
_atom_type_partial_charge
Zn0 Zn 0.30302 0.1558 0.11871 0.0
O1 O 0.30783 0.19163 0.17274 0.0
C2 C 0.30347 0.07339 0.16277 0.0
Zn3 Zn 0.24126 0.13383 0.13829 0.0
C4 C 0.27991 0.18686 0.19933 0.0
O5 O 0.25241 0.15964 0.19394 0.0
C6 C 0.25632 0.11014 0.05409 0.0
O7 O 0.21789 0.19056 0.11908 0.0
O8 O 0.2773 0.20907 0.09232 0.0
N9 N 0.18442 0.11934 0.16019 0.0
C10 C 0.15715 0.08861 0.15334 0.0
C11 C 0.13174 0.12725 0.19935 0.0
N12 N 0.16864 0.14312 0.18886 0.0
N13 N 0.12394 0.09277 0.17789 0.0
C14 C 0.39592 0.18875 0.1193 0.0
C15 C 0.40992 0.18802 0.05681 0.0
N16 N 0.36188 0.17416 0.10005 0.0
N17 N 0.37088 0.17384 0.06125 0.0
N18 N 0.42639 0.1979 0.09275 0.0
H19 H 0.38335 0.16547 0.17843 0.0
H20 H 0.38645 0.22108 0.17458 0.0
H21 H 0.43324 0.19057 0.17306 0.0
C22 C 0.40014 0.19145 0.16398 0.0
C23 C 0.16183 0.05746 0.12015 0.0
H24 H 0.15565 0.07295 0.09107 0.0
H25 H 0.14011 0.03117 0.12305 0.0
H26 H 0.19415 0.04565 0.11946 0.0
O27 O 0.2288 0.11022 0.08139 0.0
O28 O 0.29288 0.12294 0.06212 0.0
C29 C 0.23937 0.21673 0.09981 0.0
O30 O 0.32763 0.10108 0.14846 0.0
O31 O 0.26457 0.07771 0.15873 0.0
Zn32 Zn 0.59975 0.55457 0.36865 0.0
O33 O 0.56427 0.55984 0.42299 0.0
C34 C 0.6819 0.55439 0.41322 0.0
Zn35 Zn 0.62137 0.49206 0.38775 0.0
C36 C 0.56825 0.53142 0.44903 0.0
O37 O 0.59433 0.50292 0.44289 0.0
C38 C 0.64565 0.50717 0.30399 0.0
O39 O 0.5651 0.46883 0.3671 0.0
O40 O 0.54648 0.52899 0.34231 0.0
N41 N 0.6357 0.43489 0.40934 0.0
C42 C 0.66641 0.40742 0.40259 0.0
C43 C 0.6268 0.38182 0.44751 0.0
N44 N 0.61132 0.41894 0.43733 0.0
N45 N 0.66162 0.37394 0.42651 0.0
C46 C 0.56344 0.64696 0.36781 0.0
C47 C 0.56287 0.65861 0.30494 0.0
N48 N 0.58092 0.61355 0.34955 0.0
N49 N 0.58068 0.62131 0.31054 0.0
N50 N 0.55172 0.67563 0.34034 0.0
H51 H 0.58139 0.63694 0.42902 0.0
H52 H 0.52674 0.63119 0.41885 0.0
H53 H 0.54896 0.68194 0.42177 0.0
C54 C 0.5548 0.6497 0.41192 0.0
C55 C 0.6982 0.41224 0.37005 0.0
H56 H 0.68309 0.40682 0.34059 0.0
H57 H 0.72419 0.39009 0.37291 0.0
H58 H 0.71041 0.44436 0.37025 0.0
O59 O 0.64606 0.47995 0.33139 0.0
O60 O 0.63235 0.54362 0.31188 0.0
C61 C 0.53899 0.49086 0.34831 0.0
O62 O 0.65473 0.57883 0.39835 0.0
O63 O 0.67706 0.51554 0.40947 0.0
Zn64 Zn 0.20446 0.84786 0.61609 0.0
O65 O 0.20236 0.8119 0.66987 0.0
C66 C 0.19664 0.92769 0.66137 0.0
Zn67 Zn 0.26648 0.87371 0.63327 0.0
C68 C 0.23307 0.81488 0.69362 0.0
O69 O 0.2613 0.84077 0.6861 0.0
C70 C 0.24466 0.90099 0.55236 0.0
O71 O 0.29764 0.82277 0.60861 0.0
O72 O 0.23729 0.79791 0.58947 0.0
N73 N 0.32003 0.89701 0.65647 0.0
C74 C 0.3551 0.91334 0.64135 0.0
C75 C 0.36106 0.91349 0.70524 0.0
N76 N 0.32387 0.8973 0.69611 0.0
N77 N 0.3811 0.92385 0.6714 0.0
C78 C 0.11254 0.81015 0.6146 0.0
C79 C 0.11051 0.78762 0.55453 0.0
N80 N 0.14853 0.82167 0.59657 0.0
N81 N 0.14674 0.80778 0.55919 0.0
N82 N 0.08818 0.78836 0.5888 0.0
H83 H 0.12884 0.83271 0.67376 0.0
H84 H 0.09323 0.78906 0.67272 0.0
H85 H 0.07587 0.84009 0.65964 0.0
C86 C 0.10243 0.81834 0.65779 0.0
C87 C 0.3643 0.91752 0.59748 0.0
H88 H 0.35289 0.88986 0.58102 0.0
H89 H 0.39805 0.92134 0.59205 0.0
H90 H 0.34786 0.94514 0.58571 0.0
O91 O 0.27245 0.90478 0.57909 0.0
O92 O 0.21139 0.88108 0.56005 0.0
C93 C 0.27657 0.79441 0.59175 0.0
O94 O 0.17345 0.89997 0.64554 0.0
O95 O 0.23567 0.92389 0.65866 0.0
Zn96 Zn 0.87629 0.50976 0.88773 0.0
O97 O 0.92955 0.54087 0.86808 0.0
C98 C 0.85292 0.48977 0.80479 0.0
Zn99 Zn 0.90215 0.4482 0.8705 0.0
C100 C 0.95835 0.51965 0.85194 0.0
O101 O 0.95365 0.4808 0.84723 0.0
C102 C 0.82032 0.4399 0.91089 0.0
O103 O 0.93565 0.44546 0.92569 0.0
O104 O 0.90493 0.50329 0.94287 0.0
N105 N 0.92883 0.39286 0.85105 0.0
C106 C 0.9387 0.35619 0.8684 0.0
C107 C 0.96368 0.35528 0.80924 0.0
N108 N 0.94424 0.39182 0.81423 0.0
N109 N 0.96101 0.33203 0.84274 0.0
C110 C 0.84244 0.60014 0.896 0.0
C111 C 0.8194 0.59786 0.95615 0.0
N112 N 0.85059 0.56211 0.91033 0.0
N113 N 0.83637 0.56085 0.94766 0.0
N114 N 0.82291 0.62306 0.92431 0.0
H115 H 0.87764 0.59713 0.84107 0.0
H116 H 0.8531 0.64672 0.85032 0.0
H117 H 0.82264 0.60299 0.83501 0.0
C118 C 0.8497 0.61276 0.85329 0.0
C119 C 0.92784 0.34503 0.91074 0.0
H120 H 0.91621 0.37213 0.92774 0.0
H121 H 0.95519 0.33149 0.92608 0.0
H122 H 0.90276 0.32155 0.91039 0.0
O123 O 0.84911 0.41681 0.89683 0.0
O124 O 0.82408 0.47882 0.90834 0.0
C125 C 0.93119 0.47529 0.95036 0.0
O126 O 0.84929 0.51767 0.83151 0.0
O127 O 0.87126 0.45579 0.81307 0.0
Zn128 Zn 0.76171 0.87005 0.86986 0.0
O129 O 0.78192 0.81377 0.89382 0.0
C130 C 0.74016 0.89705 0.95063 0.0
Zn131 Zn 0.69753 0.84756 0.88451 0.0
C132 C 0.75856 0.78659 0.90939 0.0
O133 O 0.71981 0.79337 0.91209 0.0
C134 C 0.70232 0.93014 0.83945 0.0
O135 O 0.69546 0.81259 0.82979 0.0
O136 O 0.75479 0.84173 0.81533 0.0
N137 N 0.63635 0.83076 0.90049 0.0
C138 C 0.60449 0.81045 0.88238 0.0
C139 C 0.58533 0.82363 0.94222 0.0
N140 N 0.62397 0.83878 0.93763 0.0
N141 N 0.57213 0.80533 0.90812 0.0
C142 C 0.84989 0.91067 0.85804 0.0
C143 C 0.87773 0.86425 0.82095 0.0
N144 N 0.8214 0.88075 0.85224 0.0
N145 N 0.83886 0.85209 0.8292 0.0
N146 N 0.8855 0.90101 0.83844 0.0
H147 H 0.84323 0.93496 0.91734 0.0
H148 H 0.86845 0.97003 0.88355 0.0
H149 H 0.813 0.96112 0.88016 0.0
C150 C 0.84359 0.94658 0.88603 0.0
C151 C 0.60417 0.79834 0.83896 0.0
H152 H 0.61815 0.82337 0.82068 0.0
H153 H 0.62286 0.76976 0.83486 0.0
H154 H 0.57216 0.79259 0.82815 0.0
O155 O 0.67694 0.90333 0.85352 0.0
O156 O 0.74105 0.9251 0.84469 0.0
C157 C 0.72642 0.81655 0.80636 0.0
O158 O 0.76957 0.89764 0.92531 0.0
O159 O 0.70543 0.88054 0.94138 0.0
Zn160 Zn 0.38171 0.51417 0.62449 0.0
O161 O 0.43226 0.54642 0.64883 0.0
C162 C 0.35873 0.48617 0.70647 0.0
Zn163 Zn 0.41034 0.45294 0.63867 0.0
C164 C 0.46263 0.52565 0.66249 0.0
O165 O 0.46022 0.48637 0.66395 0.0
C166 C 0.33081 0.44259 0.59409 0.0
O167 O 0.4431 0.45696 0.58333 0.0
O168 O 0.41182 0.51564 0.56929 0.0
N169 N 0.44061 0.39822 0.65421 0.0
C170 C 0.45282 0.36298 0.63527 0.0
C171 C 0.4772 0.3609 0.6946 0.0
N172 N 0.45571 0.39641 0.69109 0.0
N173 N 0.47616 0.33907 0.66005 0.0
C174 C 0.36093 0.60508 0.59856 0.0
C175 C 0.29488 0.60233 0.60088 0.0
N176 N 0.35042 0.56678 0.61091 0.0
N177 N 0.30942 0.56523 0.61224 0.0
N178 N 0.32646 0.62796 0.59192 0.0
H179 H 0.42454 0.59273 0.58226 0.0
H180 H 0.40557 0.64334 0.5678 0.0
H181 H 0.41723 0.6322 0.61958 0.0
C182 C 0.40458 0.61909 0.59132 0.0
C183 C 0.44353 0.35317 0.59226 0.0
H184 H 0.43112 0.38055 0.57636 0.0
H185 H 0.47189 0.34161 0.57696 0.0
H186 H 0.41975 0.3284 0.59098 0.0
O187 O 0.35951 0.4203 0.60931 0.0
O188 O 0.33239 0.48151 0.59866 0.0
C189 C 0.43895 0.48854 0.56079 0.0
O190 O 0.35331 0.51448 0.68077 0.0
O191 O 0.37967 0.45407 0.69696 0.0
Zn192 Zn 0.80899 0.16149 0.38581 0.0
O193 O 0.81338 0.1975 0.33254 0.0
C194 C 0.80899 0.08008 0.33878 0.0
Zn195 Zn 0.74629 0.13641 0.37034 0.0
C196 C 0.78258 0.19396 0.30906 0.0
O197 O 0.75403 0.16877 0.31766 0.0
C198 C 0.76731 0.10771 0.44961 0.0
O199 O 0.72222 0.18979 0.39679 0.0
O200 O 0.78309 0.2146 0.41386 0.0
N201 N 0.68832 0.1226 0.34934 0.0
C202 C 0.66006 0.09251 0.35547 0.0
C203 C 0.63515 0.13359 0.31154 0.0
N204 N 0.67264 0.1479 0.32204 0.0
N205 N 0.62651 0.09865 0.33174 0.0
C206 C 0.90147 0.19593 0.38617 0.0
C207 C 0.91553 0.19181 0.44849 0.0
N208 N 0.86776 0.1796 0.40457 0.0
N209 N 0.87681 0.17717 0.44326 0.0
N210 N 0.93177 0.20407 0.4132 0.0
H211 H 0.88986 0.1755 0.32581 0.0
H212 H 0.89058 0.23088 0.33289 0.0
H213 H 0.93864 0.2023 0.33255 0.0
C214 C 0.90556 0.20133 0.34172 0.0
C215 C 0.6643 0.05997 0.38721 0.0
H216 H 0.66384 0.07515 0.41714 0.0
H217 H 0.63894 0.03694 0.3864 0.0
H218 H 0.69465 0.04408 0.38382 0.0
O219 O 0.73843 0.10521 0.42389 0.0
O220 O 0.80048 0.12743 0.44135 0.0
C221 C 0.74386 0.21843 0.41238 0.0
O222 O 0.83323 0.10715 0.35429 0.0
O223 O 0.77011 0.08407 0.34315 0.0
Zn224 Zn 0.11932 0.49202 0.12208 0.0
O225 O 0.06871 0.45835 0.14465 0.0
C226 C 0.14438 0.51524 0.20415 0.0
Zn227 Zn 0.09126 0.55226 0.13964 0.0
C228 C 0.04025 0.47832 0.16274 0.0
O229 O 0.04336 0.51742 0.16676 0.0
C230 C 0.17003 0.56434 0.0943 0.0
O231 O 0.05489 0.55112 0.08619 0.0
O232 O 0.08818 0.49507 0.06784 0.0
N233 N 0.0623 0.60654 0.15853 0.0
C234 C 0.05136 0.64258 0.14063 0.0
C235 C 0.02646 0.64381 0.19984 0.0
N236 N 0.04689 0.60773 0.19536 0.0
N237 N 0.02854 0.66654 0.16599 0.0
C238 C 0.1526 0.40163 0.11231 0.0
C239 C 0.18311 0.40756 0.05564 0.0
N240 N 0.1474 0.4409 0.1 0.0
N241 N 0.16618 0.4444 0.06477 0.0
N242 N 0.17485 0.3801 0.08483 0.0
H243 H 0.13211 0.41078 0.17349 0.0
H244 H 0.10768 0.36894 0.1471 0.0
H245 H 0.16021 0.36303 0.16448 0.0
C246 C 0.13754 0.3853 0.15179 0.0
C247 C 0.06144 0.6532 0.09797 0.0
H248 H 0.0719 0.62567 0.0809 0.0
H249 H 0.03405 0.66727 0.08313 0.0
H250 H 0.08703 0.67613 0.09761 0.0
O251 O 0.14062 0.58595 0.1093 0.0
O252 O 0.16913 0.52541 0.09845 0.0
C253 C 0.05978 0.52129 0.06159 0.0
O254 O 0.14855 0.48722 0.17763 0.0
O255 O 0.12492 0.54853 0.19572 0.0
Zn256 Zn 0.80816 0.66006 0.61811 0.0
O257 O 0.81043 0.6956 0.67209 0.0
C258 C 0.80601 0.57744 0.66437 0.0
Zn259 Zn 0.74515 0.63472 0.63288 0.0
C260 C 0.77956 0.69116 0.6955 0.0
O261 O 0.75196 0.66499 0.68687 0.0
C262 C 0.76683 0.60783 0.55252 0.0
O263 O 0.7233 0.6894 0.60783 0.0
O264 O 0.78412 0.71384 0.59028 0.0
N265 N 0.68586 0.62296 0.65162 0.0
C266 C 0.65654 0.59414 0.64449 0.0
C267 C 0.63082 0.63805 0.68568 0.0
N268 N 0.66965 0.65005 0.67718 0.0
N269 N 0.62176 0.60294 0.66578 0.0
C270 C 0.90101 0.69665 0.61938 0.0
C271 C 0.9179 0.68724 0.55823 0.0
N272 N 0.86838 0.67784 0.60114 0.0
N273 N 0.8793 0.67219 0.56317 0.0
N274 N 0.93245 0.70311 0.59293 0.0
H275 H 0.88814 0.68074 0.68061 0.0
H276 H 0.88567 0.73524 0.66944 0.0
H277 H 0.93542 0.70989 0.67357 0.0
C278 C 0.9029 0.70611 0.66335 0.0
C279 C 0.66112 0.56039 0.6138 0.0
H280 H 0.66161 0.57449 0.58346 0.0
H281 H 0.63536 0.5378 0.61483 0.0
H282 H 0.69117 0.54425 0.61821 0.0
O283 O 0.73767 0.6055 0.57803 0.0
O284 O 0.80051 0.62644 0.56158 0.0
C285 C 0.74498 0.71806 0.59251 0.0
O286 O 0.83046 0.60492 0.64986 0.0
O287 O 0.76718 0.58103 0.659 0.0
Zn288 Zn 0.0944 0.05449 0.86391 0.0
O289 O 0.06245 0.05118 0.91953 0.0
C290 C 0.17463 0.06629 0.90809 0.0
Zn291 Zn 0.12509 0.99447 0.87853 0.0
C292 C 0.06811 0.02015 0.9425 0.0
O293 O 0.09581 0.99366 0.9339 0.0
C294 C 0.14614 0.02112 0.79624 0.0
O295 O 0.07401 0.9619 0.85498 0.0
O296 O 0.04445 0.02105 0.8391 0.0
N297 N 0.15671 0.9421 0.89217 0.0
C298 C 0.14665 0.90376 0.90473 0.0
C299 C 0.21263 0.90683 0.90119 0.0
N300 N 0.19767 0.94384 0.89009 0.0
N301 N 0.18136 0.88106 0.91072 0.0
C302 C 0.05082 0.14329 0.86803 0.0
C303 C 0.04249 0.1547 0.8056 0.0
N304 N 0.06552 0.10972 0.84804 0.0
N305 N 0.06001 0.11706 0.80931 0.0
N306 N 0.03612 0.17191 0.84196 0.0
H307 H 0.08053 0.13287 0.92486 0.0
H308 H 0.02479 0.13429 0.9262 0.0
H309 H 0.05325 0.18195 0.92092 0.0
C310 C 0.05273 0.14864 0.91262 0.0
C311 C 0.10322 0.88957 0.91281 0.0
H312 H 0.08324 0.91594 0.92182 0.0
H313 H 0.10281 0.86563 0.93664 0.0
H314 H 0.09025 0.87597 0.88492 0.0
O315 O 0.15275 0.99342 0.82225 0.0
O316 O 0.12458 0.05281 0.80556 0.0
C317 C 0.04302 0.98174 0.84118 0.0
O318 O 0.14506 0.0873 0.89282 0.0
O319 O 0.17474 0.02735 0.90358 0.0
Zn320 Zn 0.75953 0.37262 0.12811 0.0
O321 O 0.79255 0.32217 0.10398 0.0
C322 C 0.7294 0.39256 0.0466 0.0
Zn323 Zn 0.69899 0.34176 0.11523 0.0
C324 C 0.77256 0.29117 0.09053 0.0
O325 O 0.73316 0.29236 0.08969 0.0
C326 C 0.6873 0.4218 0.15908 0.0
O327 O 0.70449 0.31049 0.17069 0.0
O328 O 0.76224 0.34411 0.18364 0.0
N329 N 0.6448 0.31038 0.10027 0.0
C330 C 0.60931 0.29837 0.11879 0.0
C331 C 0.60787 0.2738 0.05941 0.0
N332 N 0.64341 0.2951 0.0634 0.0
N333 N 0.58558 0.27505 0.09366 0.0
C334 C 0.85065 0.39431 0.15287 0.0
C335 C 0.84789 0.46022 0.14979 0.0
N336 N 0.81217 0.40465 0.14058 0.0
N337 N 0.81062 0.44557 0.13876 0.0
N338 N 0.87359 0.42876 0.15898 0.0
H339 H 0.83856 0.33082 0.16933 0.0
H340 H 0.88874 0.35039 0.18463 0.0
H341 H 0.87878 0.33814 0.13277 0.0
C342 C 0.86488 0.3509 0.16065 0.0
C343 C 0.59912 0.30808 0.16165 0.0
H344 H 0.62706 0.31809 0.17834 0.0
H345 H 0.58503 0.2807 0.1764 0.0
H346 H 0.57635 0.33384 0.16259 0.0
O347 O 0.66587 0.39198 0.14465 0.0
O348 O 0.7262 0.42192 0.15361 0.0
C349 C 0.736 0.31657 0.19301 0.0
O350 O 0.7582 0.39949 0.07156 0.0
O351 O 0.6981 0.37116 0.05712 0.0
Zn352 Zn 0.38858 0.01335 0.37963 0.0
O353 O 0.44008 0.0396 0.35179 0.0
C354 C 0.35917 0.98921 0.30117 0.0
Zn355 Zn 0.41459 0.9505 0.36588 0.0
C356 C 0.46972 0.01776 0.33809 0.0
O357 O 0.46684 0.97845 0.33837 0.0
C358 C 0.33421 0.9486 0.41306 0.0
O359 O 0.45054 0.94858 0.41969 0.0
O360 O 0.423 0.00932 0.43132 0.0
N361 N 0.43588 0.89225 0.34757 0.0
C362 C 0.45245 0.85893 0.36638 0.0
C363 C 0.45203 0.84533 0.3038 0.0
N364 N 0.43577 0.88345 0.30872 0.0
N365 N 0.46306 0.82908 0.33945 0.0
C366 C 0.35583 0.10506 0.384 0.0
C367 C 0.36204 0.11619 0.44696 0.0
N368 N 0.37046 0.06998 0.40053 0.0
N369 N 0.37417 0.0771 0.4396 0.0
N370 N 0.35068 0.13438 0.41253 0.0
H371 H 0.37381 0.09728 0.3224 0.0
H372 H 0.34459 0.14418 0.33252 0.0
H373 H 0.31896 0.0945 0.33175 0.0
C374 C 0.34795 0.1109 0.34009 0.0
C375 C 0.45571 0.85486 0.41101 0.0
H376 H 0.42937 0.87099 0.42581 0.0
H377 H 0.48503 0.86944 0.42122 0.0
H378 H 0.45584 0.82182 0.42007 0.0
O379 O 0.36101 0.92424 0.39719 0.0
O380 O 0.33822 0.98734 0.40847 0.0
C381 C 0.44789 0.98105 0.44127 0.0
O382 O 0.35526 0.01803 0.32686 0.0
O383 O 0.38055 0.95709 0.30959 0.0
Zn384 Zn 0.26338 0.37482 0.36877 0.0
O385 O 0.29635 0.32301 0.38905 0.0
C386 C 0.2435 0.39759 0.45196 0.0
Zn387 Zn 0.20265 0.3476 0.38576 0.0
C388 C 0.27547 0.29347 0.40399 0.0
O389 O 0.23644 0.29709 0.40826 0.0
C390 C 0.19151 0.42813 0.34424 0.0
O391 O 0.20076 0.31377 0.3308 0.0
O392 O 0.25827 0.34511 0.31381 0.0
N393 N 0.14848 0.31961 0.40561 0.0
C394 C 0.11196 0.30853 0.38857 0.0
C395 C 0.11246 0.284 0.44782 0.0
N396 N 0.14834 0.30448 0.44247 0.0
N397 N 0.08882 0.28576 0.41449 0.0
C398 C 0.35423 0.40565 0.35766 0.0
C399 C 0.34776 0.43709 0.30166 0.0
N400 N 0.31451 0.40178 0.34609 0.0
N401 N 0.31066 0.42109 0.31125 0.0
N402 N 0.3757 0.4276 0.33012 0.0
H403 H 0.34598 0.38376 0.41844 0.0
H404 H 0.3874 0.35986 0.39086 0.0
H405 H 0.39368 0.41185 0.40951 0.0
C406 C 0.37112 0.3896 0.39653 0.0
C407 C 0.10004 0.31858 0.34625 0.0
H408 H 0.12664 0.33076 0.32897 0.0
H409 H 0.08716 0.29071 0.33118 0.0
H410 H 0.07575 0.34292 0.34663 0.0
O411 O 0.16937 0.39922 0.35915 0.0
O412 O 0.23056 0.42578 0.34723 0.0
C413 C 0.23096 0.31806 0.30654 0.0
O414 O 0.27066 0.40266 0.42481 0.0
O415 O 0.20986 0.37856 0.44365 0.0
Zn416 Zn 0.91001 0.949 0.13451 0.0
O417 O 0.94577 0.94403 0.08063 0.0
C418 C 0.82789 0.95108 0.08802 0.0
Zn419 Zn 0.88639 0.01203 0.11837 0.0
C420 C 0.94263 0.97456 0.05681 0.0
O421 O 0.91764 0.00348 0.0651 0.0
C422 C 0.85864 0.99299 0.19882 0.0
O423 O 0.94074 0.03386 0.14415 0.0
O424 O 0.96391 0.97282 0.16232 0.0
N425 N 0.87506 0.0708 0.09864 0.0
C426 C 0.84501 0.09925 0.10436 0.0
C427 C 0.89041 0.12616 0.0657 0.0
N428 N 0.90306 0.08765 0.07457 0.0
N429 N 0.85395 0.13424 0.08375 0.0
C430 C 0.94303 0.85561 0.13492 0.0
C431 C 0.93591 0.84126 0.1969 0.0
N432 N 0.92646 0.88951 0.15298 0.0
N433 N 0.92218 0.88024 0.19146 0.0
N434 N 0.94945 0.82498 0.16198 0.0
H435 H 0.92499 0.86745 0.07403 0.0
H436 H 0.98011 0.86687 0.08293 0.0
H437 H 0.95172 0.81878 0.08128 0.0
C438 C 0.95028 0.85174 0.09067 0.0
C439 C 0.80976 0.09369 0.13322 0.0
H440 H 0.82188 0.09619 0.1643 0.0
H441 H 0.78524 0.11733 0.12947 0.0
H442 H 0.7963 0.06228 0.12954 0.0
O443 O 0.85665 0.02135 0.17263 0.0
O444 O 0.8766 0.95878 0.19053 0.0
C445 C 0.96861 0.01183 0.16039 0.0
O446 O 0.85468 0.9266 0.10354 0.0
O447 O 0.83263 0.98995 0.09181 0.0
Zn448 Zn 0.301 0.65773 0.88777 0.0
O449 O 0.30332 0.69201 0.83293 0.0
C450 C 0.30697 0.57654 0.84365 0.0
Zn451 Zn 0.23862 0.6331 0.87034 0.0
C452 C 0.27325 0.68831 0.80846 0.0
O453 O 0.24476 0.66266 0.81595 0.0
C454 C 0.25844 0.60883 0.95308 0.0
O455 O 0.20945 0.68636 0.8925 0.0
O456 O 0.26992 0.70921 0.91353 0.0
N457 N 0.18427 0.61039 0.8488 0.0
C458 C 0.14657 0.60262 0.86449 0.0
C459 C 0.14492 0.5847 0.80273 0.0
N460 N 0.18305 0.59937 0.81048 0.0
N461 N 0.12132 0.58661 0.836 0.0
C462 C 0.39202 0.69764 0.88664 0.0
C463 C 0.40055 0.71058 0.94877 0.0
N464 N 0.35826 0.68265 0.90622 0.0
N465 N 0.36406 0.69063 0.94483 0.0
N466 N 0.41904 0.71548 0.91276 0.0
H467 H 0.3816 0.67003 0.82874 0.0
H468 H 0.38084 0.72584 0.82986 0.0
H469 H 0.42948 0.699 0.83272 0.0
C470 C 0.39648 0.6979 0.8419 0.0
C471 C 0.13645 0.6069 0.90826 0.0
H472 H 0.15095 0.63532 0.92066 0.0
H473 H 0.10261 0.60765 0.91385 0.0
H474 H 0.14958 0.57996 0.92452 0.0
O475 O 0.23095 0.6056 0.92602 0.0
O476 O 0.29321 0.62591 0.94497 0.0
C477 C 0.23089 0.7141 0.90986 0.0
O478 O 0.33046 0.60436 0.8589 0.0
O479 O 0.26797 0.5805 0.84702 0.0
Zn480 Zn 0.62448 0.99421 0.62081 0.0
O481 O 0.56906 0.97238 0.64622 0.0
C482 C 0.65128 0.01661 0.70072 0.0
Zn483 Zn 0.60155 0.05849 0.63368 0.0
C484 C 0.54094 0.99652 0.65924 0.0
O485 O 0.54681 0.03542 0.6593 0.0
C486 C 0.68383 0.05479 0.58962 0.0
O487 O 0.5681 0.06157 0.57842 0.0
O488 O 0.59449 1.00035 0.56691 0.0
N489 N 0.58392 0.11861 0.65016 0.0
C490 C 0.56627 0.15133 0.63119 0.0
C491 C 0.57392 0.16858 0.69248 0.0
N492 N 0.58851 0.12972 0.68819 0.0
N493 N 0.55947 0.183 0.65725 0.0
C494 C 0.66877 0.90827 0.60801 0.0
C495 C 0.62681 0.88119 0.56593 0.0
N496 N 0.63782 0.93562 0.602 0.0
N497 N 0.61195 0.91864 0.57587 0.0
N498 N 0.66266 0.87394 0.58529 0.0
H499 H 0.68798 0.91431 0.66904 0.0
H500 H 0.72596 0.88955 0.63783 0.0
H501 H 0.71714 0.94487 0.63422 0.0
C502 C 0.70222 0.91427 0.6387 0.0
C503 C 0.55835 0.15312 0.58697 0.0
H504 H 0.58443 0.13843 0.57045 0.0
H505 H 0.52946 0.13588 0.58004 0.0
H506 H 0.55482 0.18556 0.57662 0.0
O507 O 0.65745 0.08025 0.60436 0.0
O508 O 0.67842 0.01618 0.59443 0.0
C509 C 0.57101 0.02951 0.55631 0.0
O510 O 0.65356 0.98725 0.67545 0.0
O511 O 0.6331 0.05039 0.69132 0.0
C512 C 0.28902 0.25863 0.22632 0.0
C513 C 0.27139 0.21908 0.22983 0.0
H514 H 0.28866 0.32157 0.24659 0.0
C515 C 0.23886 0.2131 0.25751 0.0
H516 H 0.31343 0.26452 0.20469 0.0
C517 C 0.22375 0.24598 0.28054 0.0
C518 C 0.2411 0.2856 0.2768 0.0
H519 H 0.22423 0.18308 0.26069 0.0
H520 H 0.19925 0.24004 0.30205 0.0
C521 C 0.27406 0.29152 0.24959 0.0
C522 C 0.50916 0.47782 0.53134 0.0
C523 C 0.47097 0.49863 0.53063 0.0
H524 H 0.57053 0.47349 0.50793 0.0
C525 C 0.4663 0.53314 0.50524 0.0
H526 H 0.51424 0.45187 0.55129 0.0
C527 C 0.49889 0.54589 0.48037 0.0
C528 C 0.53689 0.5246 0.48073 0.0
H529 H 0.43745 0.55036 0.50462 0.0
H530 H 0.49385 0.5715 0.46002 0.0
C531 C 0.54176 0.49083 0.50698 0.0
C532 C 0.21922 0.74622 0.72529 0.0
C533 C 0.2412 0.78364 0.72487 0.0
H534 H 0.21337 0.68594 0.75082 0.0
C535 C 0.27564 0.78838 0.75052 0.0
H536 H 0.19318 0.74126 0.70532 0.0
C537 C 0.2878 0.75642 0.77606 0.0
C538 C 0.26571 0.71906 0.77661 0.0
H539 H 0.29361 0.81672 0.75057 0.0
H540 H 0.31375 0.76146 0.7961 0.0
C541 C 0.2314 0.71425 0.75081 0.0
C542 C 0.957 0.51803 0.00759 0.0
C543 C 0.96231 0.48374 0.98181 0.0
H544 H 0.98404 0.5578 0.05188 0.0
C545 C 1.00056 0.46301 0.9815 0.0
H546 H 0.928 0.53503 0.00825 0.0
C547 C 0.03296 0.47666 0.00599 0.0
C548 C 0.02778 0.51126 0.0314 0.0
H549 H 0.00596 0.43706 0.96145 0.0
H550 H 0.062 0.45976 0.00524 0.0
C551 C 0.98939 0.5317 0.03201 0.0
C552 C 0.71959 0.74588 0.77701 0.0
C553 C 0.73618 0.78589 0.77496 0.0
H554 H 0.72212 0.68377 0.75491 0.0
C555 C 0.76912 0.79375 0.74817 0.0
H556 H 0.69507 0.73859 0.7981 0.0
C557 C 0.78548 0.76217 0.72425 0.0
C558 C 0.76902 0.72211 0.72641 0.0
H559 H 0.78297 0.82426 0.74633 0.0
H560 H 0.81008 0.76945 0.70324 0.0
C561 C 0.73592 0.71429 0.75304 0.0
C562 C 0.78223 0.29262 0.24864 0.0
C563 C 0.74695 0.2865 0.2244 0.0
H564 H 0.82212 0.26754 0.29399 0.0
C565 C 0.72596 0.24857 0.22621 0.0
H566 H 0.79952 0.32135 0.24734 0.0
C567 C 0.7397 0.21752 0.25177 0.0
C568 C 0.77437 0.22381 0.27669 0.0
H569 H 0.69935 0.24244 0.20727 0.0
H570 H 0.72235 0.1888 0.25267 0.0
C571 C 0.79577 0.26155 0.27469 0.0
C572 C 0.96727 0.01663 0.99929 0.0
C573 C 0.97313 0.98233 0.02469 0.0
H574 H 0.99315 0.05655 0.9549 0.0
C575 C 0.01118 0.96126 0.02369 0.0
H576 H 0.93835 0.03378 0.99945 0.0
C577 C 0.04293 0.97473 0.99823 0.0
C578 C 0.03723 0.00962 0.97351 0.0
H579 H 0.0169 0.93526 0.04341 0.0
H580 H 0.07187 0.95765 0.99776 0.0
C581 C 0.99899 0.03028 0.97425 0.0
C582 C 0.5171 0.97149 0.47326 0.0
C583 C 0.47838 0.99111 0.47267 0.0
H584 H 0.57775 0.96991 0.49885 0.0
C585 C 0.47152 0.0257 0.49779 0.0
H586 H 0.52364 0.94553 0.45354 0.0
C587 C 0.50272 0.04034 0.52308 0.0
C588 C 0.54135 0.02054 0.52389 0.0
H589 H 0.44203 0.04183 0.49764 0.0
H590 H 0.49607 0.06614 0.54295 0.0
C591 C 0.54832 0.98615 0.49853 0.0
C592 C 0.23797 0.06161 0.95185 0.0
C593 C 0.20296 0.08422 0.93874 0.0
H594 H 0.28305 0.0523 0.99874 0.0
C595 C 0.19026 0.11879 0.96126 0.0
H596 H 0.24842 0.03463 0.93527 0.0
C597 C 0.20948 0.12809 0.99782 0.0
C598 C 0.2424 0.10371 0.01227 0.0
H599 H 0.16329 0.13659 0.95243 0.0
H600 H 0.19729 0.15335 0.01585 0.0
C601 C 0.25775 0.07149 0.98822 0.0
C602 C 0.62623 0.46005 0.24826 0.0
C603 C 0.65141 0.49264 0.26221 0.0
H604 H 0.61672 0.41301 0.20371 0.0
C605 C 0.68404 0.50657 0.23801 0.0
H606 H 0.60071 0.44888 0.26648 0.0
C607 C 0.69342 0.48577 0.20198 0.0
C608 C 0.67003 0.45103 0.18944 0.0
H609 H 0.70389 0.53153 0.24818 0.0
H610 H 0.72064 0.49523 0.18526 0.0
C611 C 0.63514 0.43971 0.2121 0.0
C612 C 0.27811 0.8809 0.48833 0.0
C613 C 0.25646 0.91088 0.51084 0.0
H614 H 0.31973 0.86903 0.43922 0.0
C615 C 0.2555 0.95179 0.49733 0.0
H616 H 0.27993 0.84922 0.49888 0.0
C617 C 0.2778 0.96307 0.46301 0.0
C618 C 0.30253 0.93385 0.44221 0.0
H619 H 0.23973 0.9755 0.51469 0.0
H620 H 0.27801 0.99545 0.4546 0.0
C621 C 0.30104 0.89225 0.4543 0.0
C622 C 0.79216 0.52011 0.71331 0.0
C623 C 0.82096 0.54599 0.69357 0.0
H624 H 0.7798 0.48156 0.76449 0.0
C625 C 0.86221 0.54636 0.70714 0.0
H626 H 0.76008 0.51895 0.70375 0.0
C627 C 0.87342 0.52428 0.74163 0.0
C628 C 0.84371 0.50139 0.76306 0.0
H629 H 0.88513 0.56598 0.69293 0.0
H630 H 0.90463 0.52759 0.75327 0.0
C631 C 0.80333 0.49841 0.74802 0.0
C632 C 0.77206 0.96393 0.03717 0.0
C633 C 0.7957 0.93554 0.05981 0.0
H634 H 0.73526 0.97372 0.98429 0.0
C635 C 0.79302 0.89321 0.05027 0.0
H636 H 0.77327 0.99681 0.04362 0.0
C637 C 0.7704 0.88011 0.01667 0.0
C638 C 0.75009 0.90903 0.99212 0.0
H639 H 0.81078 0.87054 0.06691 0.0
H640 H 0.77165 0.84776 0.00795 0.0
C641 C 0.74991 0.95083 0.00332 0.0
C642 C 0.36509 0.54252 0.80464 0.0
C643 C 0.32311 0.5438 0.816 0.0
H644 H 0.40949 0.52135 0.76101 0.0
C645 C 0.29486 0.51792 0.79538 0.0
H646 H 0.38765 0.56205 0.81957 0.0
C647 C 0.30734 0.495 0.76167 0.0
C648 C 0.34855 0.49639 0.74855 0.0
H649 H 0.26224 0.51789 0.80321 0.0
H650 H 0.28417 0.47873 0.74416 0.0
C651 C 0.37766 0.51895 0.77125 0.0
C652 C 0.74366 0.1237 0.5186 0.0
C653 C 0.75822 0.09432 0.49073 0.0
H654 H 0.70852 0.1343 0.57243 0.0
C655 C 0.75426 0.05214 0.49927 0.0
H656 H 0.74574 0.15649 0.51202 0.0
C657 C 0.73376 0.03939 0.53408 0.0
C658 C 0.71548 0.06868 0.56023 0.0
H659 H 0.7646 0.02907 0.47776 0.0
H660 H 0.7292 0.00649 0.53857 0.0
C661 C 0.7222 0.111 0.55302 0.0
C662 C 0.13476 0.45433 0.29936 0.0
C663 C 0.17429 0.45954 0.31623 0.0
H664 H 0.09442 0.46894 0.25023 0.0
C665 C 0.20086 0.48992 0.29974 0.0
H666 H 0.1137 0.43112 0.31094 0.0
C667 C 0.18991 0.51132 0.26477 0.0
C668 C 0.15193 0.50327 0.24614 0.0
H669 H 0.23158 0.49486 0.31199 0.0
H670 H 0.21223 0.53183 0.25083 0.0
C671 C 0.12379 0.47593 0.26454 0.0
C672 C 0.75739 0.55394 0.49983 0.0
C673 C 0.75746 0.59576 0.51091 0.0
H674 H 0.73489 0.50818 0.4589 0.0
C675 C 0.73855 0.62492 0.48558 0.0
H676 H 0.77106 0.5309 0.51937 0.0
C677 C 0.71687 0.61203 0.4513 0.0
C678 C 0.71391 0.5697 0.44176 0.0
H679 H 0.73757 0.65733 0.49413 0.0
H680 H 0.69996 0.63488 0.43407 0.0
C681 C 0.73637 0.54107 0.46523 0.0
C682 C 0.1959 0.01245 0.7399 0.0
C683 C 0.1552 0.01017 0.75422 0.0
H684 H 0.24047 0.98937 0.69804 0.0
C685 C 0.12613 0.98588 0.7332 0.0
H686 H 0.21901 0.03014 0.75615 0.0
C687 C 0.13847 0.96136 0.70043 0.0
C688 C 0.18015 0.9609 0.68812 0.0
H689 H 0.09472 0.98287 0.74446 0.0
H690 H 0.11618 0.9405 0.68689 0.0
C691 C 0.20811 0.98856 0.70681 0.0
C692 C 0.76306 0.37083 0.98348 0.0
C693 C 0.73887 0.4003 0.00415 0.0
H694 H 0.80805 0.36001 0.93703 0.0
C695 C 0.7354 0.44031 0.98868 0.0
H696 H 0.76682 0.33992 0.99556 0.0
C697 C 0.7585 0.4517 0.95492 0.0
C698 C 0.78658 0.4236 0.93686 0.0
H699 H 0.71763 0.46368 0.0046 0.0
H700 H 0.75713 0.48371 0.94536 0.0
C701 C 0.78686 0.38237 0.95009 0.0
C702 C 0.36157 0.03757 0.19933 0.0
C703 C 0.31899 0.04148 0.19115 0.0
H704 H 0.40772 0.01612 0.24078 0.0
C705 C 0.29054 0.02004 0.21573 0.0
H706 H 0.38429 0.05372 0.18122 0.0
C707 C 0.30396 0.99917 0.25011 0.0
C708 C 0.34615 0.99805 0.25978 0.0
H709 H 0.25746 0.02231 0.21048 0.0
H710 H 0.28116 0.98641 0.27054 0.0
C711 C 0.37501 0.01585 0.2333 0.0
C712 C 0.26903 0.45206 0.54915 0.0
C713 C 0.30025 0.42583 0.5647 0.0
H714 H 0.22609 0.46367 0.50101 0.0
C715 C 0.30667 0.38721 0.54621 0.0
H716 H 0.26319 0.48211 0.56259 0.0
C717 C 0.28514 0.3768 0.51105 0.0
C718 C 0.25651 0.40452 0.49391 0.0
H719 H 0.33058 0.36645 0.55699 0.0
H720 H 0.2929 0.34816 0.49569 0.0
C721 C 0.24756 0.44161 0.51394 0.0
C722 C 0.8779 0.02616 0.26303 0.0
C723 C 0.84838 0.00421 0.2404 0.0
H724 H 0.88886 0.06719 0.31264 0.0
C725 C 0.8075 1.00185 0.25422 0.0
H726 H 0.90955 0.02887 0.25232 0.0
C727 C 0.79567 0.02341 0.28891 0.0
C728 C 0.82435 0.04857 0.30975 0.0
H729 H 0.78418 0.98567 0.2368 0.0
H730 H 0.76326 0.02282 0.29753 0.0
C731 C 0.86603 0.04817 0.29747 0.0
C732 C 0.19244 0.61911 0.04561 0.0
C733 C 0.20064 0.58173 0.06545 0.0
H734 H 0.20507 0.65672 0.99409 0.0
C735 C 0.23378 0.55678 0.05149 0.0
H736 H 0.16704 0.63882 0.05517 0.0
C737 C 0.25561 0.56709 0.01644 0.0
C738 C 0.24478 0.60259 0.99491 0.0
H739 H 0.24095 0.52769 0.06606 0.0
H740 H 0.27875 0.54589 0.00473 0.0
C741 C 0.21413 0.62925 0.01054 0.0
C742 C 0.70526 0.0051 0.75261 0.0
C743 C 0.66326 0.00744 0.74233 0.0
H744 H 0.75051 0.98015 0.7926 0.0
C745 C 0.63353 0.99002 0.76812 0.0
H746 H 0.72871 0.01746 0.73264 0.0
C747 C 0.64586 0.96758 0.80204 0.0
C748 C 0.68819 0.96243 0.81078 0.0
H749 H 0.60095 0.99066 0.76013 0.0
H750 H 0.62243 0.95191 0.81967 0.0
C751 C 0.7176 0.98338 0.78688 0.0
C752 C 0.47412 0.2511 0.12095 0.0
C753 C 0.46753 0.2145 0.09877 0.0
H754 H 0.51664 0.29988 0.13625 0.0
C755 C 0.50116 0.19678 0.07823 0.0
H756 H 0.44843 0.26591 0.1363 0.0
C757 C 0.54013 0.21565 0.07871 0.0
C758 C 0.5467 0.25323 0.09932 0.0
H759 H 0.49688 0.16872 0.06082 0.0
H760 H 0.56505 0.20145 0.06171 0.0
C761 C 0.51331 0.27045 0.12107 0.0
C762 C 0.5397 0.74604 0.36917 0.0
C763 C 0.52696 0.71282 0.34465 0.0
H764 H 0.52917 0.80939 0.38697 0.0
C765 C 0.4915 0.71795 0.32072 0.0
H766 H 0.56773 0.74349 0.38685 0.0
C767 C 0.46967 0.75544 0.32063 0.0
C768 C 0.48258 0.789 0.34451 0.0
H769 H 0.48122 0.69305 0.30128 0.0
H770 H 0.44309 0.75863 0.30104 0.0
C771 C 0.51762 0.78375 0.36923 0.0
C772 C 0.9775 0.76104 0.61699 0.0
C773 C 0.97272 0.72253 0.5975 0.0
H774 H 0.01765 0.81279 0.62903 0.0
C775 C 0.00728 0.70538 0.5778 0.0
H776 H 0.95115 0.77569 0.63139 0.0
C777 C 0.04522 0.72635 0.57665 0.0
C778 C 0.04999 0.76537 0.59501 0.0
H779 H 0.00455 0.67598 0.56229 0.0
H780 H 0.07082 0.7124 0.56043 0.0
C781 C 0.01573 0.7823 0.61571 0.0
C782 C 0.96443 0.25961 0.86985 0.0
C783 C 0.98206 0.29264 0.84807 0.0
H784 H 0.96857 0.19491 0.88561 0.0
C785 C 0.01979 0.28549 0.82784 0.0
H786 H 0.93488 0.26324 0.88474 0.0
C787 C 0.03841 0.2464 0.82779 0.0
C788 C 0.0203 0.21323 0.84841 0.0
H789 H 0.0344 0.31005 0.81087 0.0
H790 H 0.06652 0.24161 0.81053 0.0
C791 C 0.98358 0.22032 0.87023 0.0
C792 C 0.49698 0.80134 0.92234 0.0
C793 C 0.53241 0.78459 0.90365 0.0
H794 H 0.43329 0.79275 0.93916 0.0
C795 C 0.52896 0.74532 0.88527 0.0
H796 H 0.49863 0.83123 0.93709 0.0
C797 C 0.49124 0.72316 0.88646 0.0
C798 C 0.45618 0.73982 0.90601 0.0
H799 H 0.55592 0.73083 0.87184 0.0
H800 H 0.49008 0.69221 0.87394 0.0
C801 C 0.45956 0.77933 0.92352 0.0
C802 C 0.53829 0.29617 0.67118 0.0
C803 C 0.49911 0.30104 0.65323 0.0
H804 H 0.58819 0.25508 0.68591 0.0
C805 C 0.48167 0.26682 0.63306 0.0
H806 H 0.5526 0.32182 0.68694 0.0
C807 C 0.50244 0.22835 0.63226 0.0
C808 C 0.5409 0.22341 0.65172 0.0
H809 H 0.4511 0.26901 0.61994 0.0
H810 H 0.48742 0.20196 0.61842 0.0
C811 C 0.55875 0.258 0.67054 0.0
C812 C 0.0447 0.22522 0.42867 0.0
C813 C 0.05013 0.26353 0.40932 0.0
H814 H 1.00295 0.17629 0.44459 0.0
C815 C 0.0162 0.28053 0.38841 0.0
H816 H 0.07007 0.2112 0.44502 0.0
C817 C 0.9777 0.25998 0.38772 0.0
C818 C 0.97231 0.22235 0.40827 0.0
H819 H 0.01857 0.31053 0.37437 0.0
H820 H 0.9516 0.27452 0.37296 0.0
C821 C 0.00636 0.20509 0.42833 0.0
C822 C 0.96837 0.71192 0.17879 0.0
C823 C 0.00697 0.70546 0.16 0.0
H824 H 0.9198 0.75473 0.19356 0.0
C825 C 0.02495 0.73871 0.13891 0.0
H826 H 0.95363 0.68709 0.19528 0.0
C827 C 0.00512 0.7776 0.13758 0.0
C828 C 0.96713 0.78404 0.15755 0.0
H829 H 0.05519 0.73547 0.12522 0.0
H830 H 0.02049 0.80315 0.12278 0.0
C831 C 0.94888 0.75058 0.17772 0.0
C832 C 0.17973 0.26582 0.1006 0.0
C833 C 0.22144 0.25758 0.09095 0.0
H834 H 0.13196 0.31163 0.10561 0.0
C835 C 0.24667 0.28983 0.07689 0.0
H836 H 0.15937 0.24148 0.11115 0.0
C837 C 0.23097 0.32996 0.07437 0.0
C838 C 0.18999 0.33847 0.08604 0.0
H839 H 0.2789 0.28443 0.06925 0.0
H840 H 0.25121 0.35468 0.06452 0.0
C841 C 0.16412 0.30597 0.09805 0.0
C842 C 0.44993 0.41589 0.34258 0.0
C843 C 0.4175 0.44224 0.3313 0.0
H844 H 0.51438 0.41057 0.3562 0.0
C845 C 0.42611 0.48345 0.32103 0.0
H846 H 0.44413 0.38359 0.34904 0.0
C847 C 0.46625 0.49892 0.3245 0.0
C848 C 0.49836 0.47322 0.33814 0.0
H849 H 0.40142 0.50407 0.31178 0.0
H850 H 0.47171 0.53133 0.31806 0.0
C851 C 0.4901 0.43127 0.34609 0.0
C852 C 0.27435 0.72477 0.55952 0.0
C853 C 0.2962 0.7544 0.58195 0.0
H854 H 0.26801 0.66063 0.54447 0.0
C855 C 0.33318 0.74276 0.60124 0.0
H856 H 0.24591 0.73293 0.54412 0.0
C857 C 0.34544 0.70126 0.60187 0.0
C858 C 0.32136 0.67102 0.58253 0.0
H859 H 0.35057 0.76492 0.61897 0.0
H860 H 0.37148 0.69258 0.62047 0.0
C861 C 0.28693 0.68346 0.55974 0.0
C862 C 0.00736 0.57963 0.85601 0.0
C863 C 0.99909 0.53867 0.84386 0.0
H864 H 0.05344 0.62716 0.86285 0.0
C865 C 0.03147 0.51454 0.82788 0.0
H866 H 0.98305 0.59905 0.86837 0.0
C867 C 0.07152 0.53051 0.8254 0.0
C868 C 0.08004 0.57068 0.83914 0.0
H869 H 0.02616 0.48291 0.81822 0.0
H870 H 0.09618 0.51123 0.81352 0.0
C871 C 0.04759 0.59554 0.85354 0.0
C872 C 0.81822 0.73752 0.9112 0.0
C873 C 0.77589 0.74541 0.91836 0.0
H874 H 0.86632 0.69172 0.90752 0.0
C875 C 0.74979 0.71252 0.92936 0.0
H876 H 0.83924 0.76221 0.90287 0.0
C877 C 0.76546 0.67228 0.93154 0.0
C878 C 0.80718 0.66437 0.92232 0.0
H879 H 0.71708 0.7176 0.935 0.0
H880 H 0.74487 0.64707 0.93938 0.0
C881 C 0.83371 0.69728 0.91323 0.0
C882 C 0.54597 0.60737 0.66253 0.0
C883 C 0.58194 0.58323 0.66646 0.0
H884 H 0.47982 0.60829 0.65912 0.0
C885 C 0.57823 0.54072 0.67399 0.0
H886 H 0.54826 0.64043 0.65761 0.0
C887 C 0.53907 0.5222 0.67517 0.0
C888 C 0.50301 0.54606 0.66917 0.0
H889 H 0.60558 0.52193 0.67885 0.0
H890 H 0.53718 0.48901 0.67947 0.0
C891 C 0.50688 0.589 0.66375 0.0
C892 C 0.74639 0.29439 0.42841 0.0
C893 C 0.72334 0.25788 0.42273 0.0
H894 H 0.74431 0.36066 0.43464 0.0
C895 C 0.67983 0.26022 0.42145 0.0
H896 H 0.77995 0.29352 0.42967 0.0
C897 C 0.6599 0.29838 0.42324 0.0
C898 C 0.68294 0.335 0.42633 0.0
H899 H 0.66109 0.23268 0.41742 0.0
H900 H 0.62642 0.29948 0.42086 0.0
C901 C 0.72621 0.33276 0.43045 0.0
C902 C 0.9288 0.46738 0.19284 0.0
C903 C 0.91663 0.43369 0.16887 0.0
H904 H 0.97821 0.50749 0.21066 0.0
C905 C 0.94714 0.40995 0.14938 0.0
H906 H 0.90574 0.48598 0.20824 0.0
C907 C 0.98876 0.42194 0.15104 0.0
C908 C 1.00024 0.45824 0.17166 0.0
H909 H 0.93859 0.38443 0.13 0.0
H910 H 0.01117 0.40498 0.13313 0.0
C911 C 0.97024 0.47957 0.19427 0.0
C912 C 0.68112 0.76024 0.58615 0.0
C913 C 0.72458 0.75789 0.58388 0.0
H914 H 0.62781 0.79934 0.58954 0.0
C915 C 0.7476 0.79457 0.57934 0.0
H916 H 0.66237 0.73261 0.58937 0.0
C917 C 0.72742 0.83302 0.57924 0.0
C918 C 0.68422 0.83512 0.58436 0.0
H919 H 0.78113 0.79368 0.5774 0.0
H920 H 0.74547 0.86101 0.57559 0.0
C921 C 0.66125 0.7984 0.58647 0.0
C922 C 0.96122 0.8985 0.84406 0.0
C923 C 0.92493 0.9215 0.83748 0.0
H924 H 0.02717 0.89923 0.84942 0.0
C925 C 0.92809 0.96345 0.82724 0.0
H926 H 0.95943 0.86583 0.85111 0.0
C927 C 0.9669 0.98274 0.82611 0.0
C928 C 0.00318 0.96015 0.83474 0.0
H929 H 0.90056 0.98125 0.82023 0.0
H930 H 0.9683 0.01556 0.81964 0.0
C931 C 0.99995 0.91759 0.84276 0.0
C932 C 0.79122 0.17682 0.07371 0.0
C933 C 0.83345 0.17365 0.08314 0.0
H934 H 0.73865 0.21688 0.06798 0.0
C935 C 0.85648 0.20984 0.08991 0.0
H936 H 0.77337 0.14938 0.06659 0.0
C937 C 0.83713 0.24847 0.08978 0.0
C938 C 0.79429 0.25164 0.08279 0.0
H939 H 0.88935 0.20803 0.09637 0.0
H940 H 0.85551 0.2756 0.09665 0.0
C941 C 0.77168 0.2155 0.07376 0.0
C942 C 0.54638 0.01477 0.32548 0.0
C943 C 0.50966 0.03808 0.32927 0.0
H944 H 0.61298 0.01617 0.32286 0.0
C945 C 0.51225 0.08149 0.33095 0.0
H946 H 0.54538 0.98126 0.32399 0.0
C947 C 0.55069 0.10101 0.33144 0.0
C948 C 0.58736 0.07768 0.33026 0.0
H949 H 0.48462 0.10042 0.33367 0.0
H950 H 0.55189 0.13444 0.33405 0.0
C951 C 0.585 0.03453 0.3257 0.0
C952 C 0.3373 0.24898 0.41746 0.0
C953 C 0.29479 0.25269 0.40917 0.0
H954 H 0.38852 0.20711 0.42542 0.0
C955 C 0.27129 0.21692 0.40127 0.0
H956 H 0.35604 0.2762 0.4232 0.0
C957 C 0.29012 0.17809 0.4011 0.0
C958 C 0.3324 0.17445 0.40959 0.0
H959 H 0.23861 0.21902 0.39397 0.0
H960 H 0.27172 0.15077 0.39487 0.0
C961 C 0.35586 0.20987 0.41834 0.0
C962 C 0.04424 0.00845 0.17743 0.0
C963 C 0.00791 0.03178 0.1717 0.0
H964 H 0.11049 0.01015 0.18455 0.0
C965 C 0.01028 0.07523 0.17156 0.0
H966 H 0.04325 0.97492 0.17787 0.0
C967 C 0.04844 0.09492 0.17434 0.0
C968 C 0.08495 0.07167 0.17733 0.0
H969 H 0.9828 0.09413 0.16763 0.0
H970 H 0.04965 0.12839 0.17268 0.0
C971 C 0.08262 0.0284 0.18049 0.0
C972 C 0.22188 0.82543 0.94154 0.0
C973 C 0.18685 0.83794 0.91965 0.0
H974 H 0.26319 0.77589 0.95619 0.0
C975 C 0.16239 0.80778 0.90065 0.0
H976 H 0.24113 0.84821 0.9565 0.0
C977 C 0.17467 0.7663 0.90086 0.0
C978 C 0.21204 0.75455 0.91938 0.0
H979 H 0.13592 0.8165 0.88268 0.0
H980 H 0.15677 0.74419 0.88355 0.0
C981 C 0.23447 0.78412 0.94135 0.0
C982 C 0.4559 0.92081 0.68315 0.0
C983 C 0.42108 0.94259 0.66959 0.0
H984 H 0.52195 0.92114 0.69047 0.0
C985 C 0.42527 0.98332 0.65596 0.0
H986 H 0.45273 0.88943 0.69411 0.0
C987 C 0.46428 1.00197 0.65518 0.0
C988 C 0.49955 0.97965 0.66724 0.0
H989 H 0.39835 1.00047 0.64591 0.0
H990 H 0.46709 0.0331 0.64341 0.0
C991 C 0.49509 0.939 0.68141 0.0
loop_
_geom_bond_atom_site_label_1
_geom_bond_atom_site_label_2
_geom_bond_distance
_geom_bond_site_symmetry_2
_ccdc_geom_bond_type
Zn0 O1 2.055 . S
Zn0 O8 2.046 . S
Zn0 N16 2.036 . S
Zn0 O28 2.053 . S
Zn0 O30 2.066 . S
O1 Zn0 2.055 . S
O1 C4 1.259 . S
C2 O30 1.256 . S
C2 O31 1.244 . S
Zn3 O5 2.046 . S
Zn3 O7 2.055 . S
Zn3 N9 2.036 . S
Zn3 O27 2.066 . S
Zn3 O31 2.053 . S
C4 O1 1.259 . S
C4 O5 1.254 . S
O5 Zn3 2.046 . S
O5 C4 1.254 . S
C6 O27 1.256 . S
C6 O28 1.244 . S
O7 Zn3 2.055 . S
O7 C29 1.259 . S
O8 Zn0 2.046 . S
O8 C29 1.254 . S
N9 Zn3 2.036 . S
N9 C10 1.298 . S
N9 N12 1.398 . S
C10 N9 1.298 . S
C10 N13 1.367 . S
C10 C23 1.481 . S
C11 N12 1.299 . S
C11 N13 1.379 . S
N12 N9 1.398 . S
N12 C11 1.299 . S
N13 C10 1.367 . S
N13 C11 1.379 . S
C14 N16 1.298 . S
C14 N18 1.367 . S
C14 C22 1.481 . S
C15 N17 1.299 . S
C15 N18 1.379 . S
N16 Zn0 2.036 . S
N16 C14 1.298 . S
N16 N17 1.398 . S
N17 C15 1.299 . S
N17 N16 1.398 . S
N18 C14 1.367 . S
N18 C15 1.379 . S
H19 C22 0.980 . S
H20 C22 0.981 . S
H21 C22 0.981 . S
C22 C14 1.481 . S
C22 H19 0.980 . S
C22 H20 0.981 . S
C22 H21 0.981 . S
C23 C10 1.481 . S
C23 H24 0.980 . S
C23 H25 0.981 . S
C23 H26 0.981 . S
H24 C23 0.980 . S
H25 C23 0.981 . S
H26 C23 0.981 . S
O27 Zn3 2.066 . S
O27 C6 1.256 . S
O28 Zn0 2.053 . S
O28 C6 1.244 . S
C29 O7 1.259 . S
C29 O8 1.254 . S
O30 Zn0 2.066 . S
O30 C2 1.256 . S
O31 C2 1.244 . S
O31 Zn3 2.053 . S
Zn32 O33 2.055 . S
Zn32 O40 2.046 . S
Zn32 N48 2.036 . S
Zn32 O60 2.053 . S
Zn32 O62 2.066 . S
O33 Zn32 2.055 . S
O33 C36 1.259 . S
C34 O62 1.256 . S
C34 O63 1.244 . S
Zn35 O37 2.046 . S
Zn35 O39 2.055 . S
Zn35 N41 2.036 . S
Zn35 O59 2.066 . S
Zn35 O63 2.053 . S
C36 O33 1.259 . S
C36 O37 1.254 . S
O37 Zn35 2.046 . S
O37 C36 1.254 . S
C38 O59 1.256 . S
C38 O60 1.244 . S
O39 Zn35 2.055 . S
O39 C61 1.259 . S
O40 Zn32 2.046 . S
O40 C61 1.254 . S
N41 Zn35 2.036 . S
N41 C42 1.298 . S
N41 N44 1.398 . S
C42 N41 1.298 . S
C42 N45 1.367 . S
C42 C55 1.481 . S
C43 N44 1.299 . S
C43 N45 1.379 . S
N44 N41 1.398 . S
N44 C43 1.299 . S
N45 C42 1.367 . S
N45 C43 1.379 . S
C46 N48 1.298 . S
C46 N50 1.367 . S
C46 C54 1.481 . S
C47 N49 1.299 . S
C47 N50 1.379 . S
N48 Zn32 2.036 . S
N48 C46 1.298 . S
N48 N49 1.398 . S
N49 C47 1.299 . S
N49 N48 1.398 . S
N50 C46 1.367 . S
N50 C47 1.379 . S
H51 C54 0.980 . S
H52 C54 0.981 . S
H53 C54 0.981 . S
C54 C46 1.481 . S
C54 H51 0.980 . S
C54 H52 0.981 . S
C54 H53 0.981 . S
C55 C42 1.481 . S
C55 H56 0.980 . S
C55 H57 0.981 . S
C55 H58 0.981 . S
H56 C55 0.980 . S
H57 C55 0.981 . S
H58 C55 0.981 . S
O59 Zn35 2.066 . S
O59 C38 1.256 . S
O60 Zn32 2.053 . S
O60 C38 1.244 . S
C61 O39 1.259 . S
C61 O40 1.254 . S
O62 Zn32 2.066 . S
O62 C34 1.256 . S
O63 C34 1.244 . S
O63 Zn35 2.053 . S
Zn64 O65 2.055 . S
Zn64 O72 2.046 . S
Zn64 N80 2.036 . S
Zn64 O92 2.053 . S
Zn64 O94 2.066 . S
O65 Zn64 2.055 . S
O65 C68 1.259 . S
C66 O94 1.256 . S
C66 O95 1.244 . S
Zn67 O69 2.046 . S
Zn67 O71 2.055 . S
Zn67 N73 2.036 . S
Zn67 O91 2.066 . S
Zn67 O95 2.053 . S
C68 O65 1.259 . S
C68 O69 1.254 . S
O69 Zn67 2.046 . S
O69 C68 1.254 . S
C70 O91 1.256 . S
C70 O92 1.244 . S
O71 Zn67 2.055 . S
O71 C93 1.259 . S
O72 Zn64 2.046 . S
O72 C93 1.254 . S
N73 Zn67 2.036 . S
N73 C74 1.298 . S
N73 N76 1.398 . S
C74 N73 1.298 . S
C74 N77 1.367 . S
C74 C87 1.481 . S
C75 N76 1.299 . S
C75 N77 1.379 . S
N76 N73 1.398 . S
N76 C75 1.299 . S
N77 C74 1.367 . S
N77 C75 1.379 . S
C78 N80 1.298 . S
C78 N82 1.367 . S
C78 C86 1.481 . S
C79 N81 1.299 . S
C79 N82 1.379 . S
N80 Zn64 2.036 . S
N80 C78 1.298 . S
N80 N81 1.398 . S
N81 C79 1.299 . S
N81 N80 1.398 . S
N82 C78 1.367 . S
N82 C79 1.379 . S
H83 C86 0.980 . S
H84 C86 0.981 . S
H85 C86 0.981 . S
C86 C78 1.481 . S
C86 H83 0.980 . S
C86 H84 0.981 . S
C86 H85 0.981 . S
C87 C74 1.481 . S
C87 H88 0.980 . S
C87 H89 0.981 . S
C87 H90 0.981 . S
H88 C87 0.980 . S
H89 C87 0.981 . S
H90 C87 0.981 . S
O91 Zn67 2.066 . S
O91 C70 1.256 . S
O92 Zn64 2.053 . S
O92 C70 1.244 . S
C93 O71 1.259 . S
C93 O72 1.254 . S
O94 Zn64 2.066 . S
O94 C66 1.256 . S
O95 C66 1.244 . S
O95 Zn67 2.053 . S
Zn96 O97 2.055 . S
Zn96 O104 2.046 . S
Zn96 N112 2.036 . S
Zn96 O124 2.053 . S
Zn96 O126 2.066 . S
O97 Zn96 2.055 . S
O97 C100 1.259 . S
C98 O126 1.256 . S
C98 O127 1.244 . S
Zn99 O101 2.046 . S
Zn99 O103 2.055 . S
Zn99 N105 2.036 . S
Zn99 O123 2.066 . S
Zn99 O127 2.053 . S
C100 O97 1.259 . S
C100 O101 1.254 . S
O101 Zn99 2.046 . S
O101 C100 1.254 . S
C102 O123 1.256 . S
C102 O124 1.244 . S
O103 Zn99 2.055 . S
O103 C125 1.259 . S
O104 Zn96 2.046 . S
O104 C125 1.254 . S
N105 Zn99 2.036 . S
N105 C106 1.298 . S
N105 N108 1.398 . S
C106 N105 1.298 . S
C106 N109 1.367 . S
C106 C119 1.481 . S
C107 N108 1.299 . S
C107 N109 1.379 . S
N108 N105 1.398 . S
N108 C107 1.299 . S
N109 C106 1.367 . S
N109 C107 1.379 . S
C110 N112 1.298 . S
C110 N114 1.367 . S
C110 C118 1.481 . S
C111 N113 1.299 . S
C111 N114 1.379 . S
N112 Zn96 2.036 . S
N112 C110 1.298 . S
N112 N113 1.398 . S
N113 C111 1.299 . S
N113 N112 1.398 . S
N114 C110 1.367 . S
N114 C111 1.379 . S
H115 C118 0.980 . S
H116 C118 0.981 . S
H117 C118 0.981 . S
C118 C110 1.481 . S
C118 H115 0.980 . S
C118 H116 0.981 . S
C118 H117 0.981 . S
C119 C106 1.481 . S
C119 H120 0.980 . S
C119 H121 0.981 . S
C119 H122 0.981 . S
H120 C119 0.980 . S
H121 C119 0.981 . S
H122 C119 0.981 . S
O123 Zn99 2.066 . S
O123 C102 1.256 . S
O124 Zn96 2.053 . S
O124 C102 1.244 . S
C125 O103 1.259 . S
C125 O104 1.254 . S
O126 Zn96 2.066 . S
O126 C98 1.256 . S
O127 C98 1.244 . S
O127 Zn99 2.053 . S
Zn128 O129 2.055 . S
Zn128 O136 2.046 . S
Zn128 N144 2.036 . S
Zn128 O156 2.053 . S
Zn128 O158 2.066 . S
O129 Zn128 2.055 . S
O129 C132 1.259 . S
C130 O158 1.256 . S
C130 O159 1.244 . S
Zn131 O133 2.046 . S
Zn131 O135 2.055 . S
Zn131 N137 2.036 . S
Zn131 O155 2.066 . S
Zn131 O159 2.053 . S
C132 O129 1.259 . S
C132 O133 1.254 . S
O133 Zn131 2.046 . S
O133 C132 1.254 . S
C134 O155 1.256 . S
C134 O156 1.244 . S
O135 Zn131 2.055 . S
O135 C157 1.259 . S
O136 Zn128 2.046 . S
O136 C157 1.254 . S
N137 Zn131 2.036 . S
N137 C138 1.298 . S
N137 N140 1.398 . S
C138 N137 1.298 . S
C138 N141 1.367 . S
C138 C151 1.481 . S
C139 N140 1.299 . S
C139 N141 1.379 . S
N140 N137 1.398 . S
N140 C139 1.299 . S
N141 C138 1.367 . S
N141 C139 1.379 . S
C142 N144 1.298 . S
C142 N146 1.367 . S
C142 C150 1.481 . S
C143 N145 1.299 . S
C143 N146 1.379 . S
N144 Zn128 2.036 . S
N144 C142 1.298 . S
N144 N145 1.398 . S
N145 C143 1.299 . S
N145 N144 1.398 . S
N146 C142 1.367 . S
N146 C143 1.379 . S
H147 C150 0.980 . S
H148 C150 0.981 . S
H149 C150 0.981 . S
C150 C142 1.481 . S
C150 H147 0.980 . S
C150 H148 0.981 . S
C150 H149 0.981 . S
C151 C138 1.481 . S
C151 H152 0.980 . S
C151 H153 0.981 . S
C151 H154 0.981 . S
H152 C151 0.980 . S
H153 C151 0.981 . S
H154 C151 0.981 . S
O155 Zn131 2.066 . S
O155 C134 1.256 . S
O156 Zn128 2.053 . S
O156 C134 1.244 . S
C157 O135 1.259 . S
C157 O136 1.254 . S
O158 Zn128 2.066 . S
O158 C130 1.256 . S
O159 C130 1.244 . S
O159 Zn131 2.053 . S
Zn160 O161 2.055 . S
Zn160 O168 2.046 . S
Zn160 N176 2.036 . S
Zn160 O188 2.053 . S
Zn160 O190 2.066 . S
O161 Zn160 2.055 . S
O161 C164 1.259 . S
C162 O190 1.256 . S
C162 O191 1.244 . S
Zn163 O165 2.046 . S
Zn163 O167 2.055 . S
Zn163 N169 2.036 . S
Zn163 O187 2.066 . S
Zn163 O191 2.053 . S
C164 O161 1.259 . S
C164 O165 1.254 . S
O165 Zn163 2.046 . S
O165 C164 1.254 . S
C166 O187 1.256 . S
C166 O188 1.244 . S
O167 Zn163 2.055 . S
O167 C189 1.259 . S
O168 Zn160 2.046 . S
O168 C189 1.254 . S
N169 Zn163 2.036 . S
N169 C170 1.298 . S
N169 N172 1.398 . S
C170 N169 1.298 . S
C170 N173 1.367 . S
C170 C183 1.481 . S
C171 N172 1.299 . S
C171 N173 1.379 . S
N172 N169 1.398 . S
N172 C171 1.299 . S
N173 C170 1.367 . S
N173 C171 1.379 . S
C174 N176 1.298 . S
C174 N178 1.367 . S
C174 C182 1.481 . S
C175 N177 1.299 . S
C175 N178 1.379 . S
N176 Zn160 2.036 . S
N176 C174 1.298 . S
N176 N177 1.398 . S
N177 C175 1.299 . S
N177 N176 1.398 . S
N178 C174 1.367 . S
N178 C175 1.379 . S
H179 C182 0.980 . S
H180 C182 0.981 . S
H181 C182 0.981 . S
C182 C174 1.481 . S
C182 H179 0.980 . S
C182 H180 0.981 . S
C182 H181 0.981 . S
C183 C170 1.481 . S
C183 H184 0.980 . S
C183 H185 0.981 . S
C183 H186 0.981 . S
H184 C183 0.980 . S
H185 C183 0.981 . S
H186 C183 0.981 . S
O187 Zn163 2.066 . S
O187 C166 1.256 . S
O188 Zn160 2.053 . S
O188 C166 1.244 . S
C189 O167 1.259 . S
C189 O168 1.254 . S
O190 Zn160 2.066 . S
O190 C162 1.256 . S
O191 C162 1.244 . S
O191 Zn163 2.053 . S
Zn192 O193 2.055 . S
Zn192 O200 2.046 . S
Zn192 N208 2.036 . S
Zn192 O220 2.053 . S
Zn192 O222 2.066 . S
O193 Zn192 2.055 . S
O193 C196 1.259 . S
C194 O222 1.256 . S
C194 O223 1.244 . S
Zn195 O197 2.046 . S
Zn195 O199 2.055 . S
Zn195 N201 2.036 . S
Zn195 O219 2.066 . S
Zn195 O223 2.053 . S
C196 O193 1.259 . S
C196 O197 1.254 . S
O197 Zn195 2.046 . S
O197 C196 1.254 . S
C198 O219 1.256 . S
C198 O220 1.244 . S
O199 Zn195 2.055 . S
O199 C221 1.259 . S
O200 Zn192 2.046 . S
O200 C221 1.254 . S
N201 Zn195 2.036 . S
N201 C202 1.298 . S
N201 N204 1.398 . S
C202 N201 1.298 . S
C202 N205 1.367 . S
C202 C215 1.481 . S
C203 N204 1.299 . S
C203 N205 1.379 . S
N204 N201 1.398 . S
N204 C203 1.299 . S
N205 C202 1.367 . S
N205 C203 1.379 . S
C206 N208 1.298 . S
C206 N210 1.367 . S
C206 C214 1.481 . S
C207 N209 1.299 . S
C207 N210 1.379 . S
N208 Zn192 2.036 . S
N208 C206 1.298 . S
N208 N209 1.398 . S
N209 C207 1.299 . S
N209 N208 1.398 . S
N210 C206 1.367 . S
N210 C207 1.379 . S
H211 C214 0.980 . S
H212 C214 0.981 . S
H213 C214 0.981 . S
C214 C206 1.481 . S
C214 H211 0.980 . S
C214 H212 0.981 . S
C214 H213 0.981 . S
C215 C202 1.481 . S
C215 H216 0.980 . S
C215 H217 0.981 . S
C215 H218 0.981 . S
H216 C215 0.980 . S
H217 C215 0.981 . S
H218 C215 0.981 . S
O219 Zn195 2.066 . S
O219 C198 1.256 . S
O220 Zn192 2.053 . S
O220 C198 1.244 . S
C221 O199 1.259 . S
C221 O200 1.254 . S
O222 Zn192 2.066 . S
O222 C194 1.256 . S
O223 C194 1.244 . S
O223 Zn195 2.053 . S
Zn224 O225 2.055 . S
Zn224 O232 2.046 . S
Zn224 N240 2.036 . S
Zn224 O252 2.053 . S
Zn224 O254 2.066 . S
O225 Zn224 2.055 . S
O225 C228 1.259 . S
C226 O254 1.256 . S
C226 O255 1.244 . S
Zn227 O229 2.046 . S
Zn227 O231 2.055 . S
Zn227 N233 2.036 . S
Zn227 O251 2.066 . S
Zn227 O255 2.053 . S
C228 O225 1.259 . S
C228 O229 1.254 . S
O229 Zn227 2.046 . S
O229 C228 1.254 . S
C230 O251 1.256 . S
C230 O252 1.244 . S
O231 Zn227 2.055 . S
O231 C253 1.259 . S
O232 Zn224 2.046 . S
O232 C253 1.254 . S
N233 Zn227 2.036 . S
N233 C234 1.298 . S
N233 N236 1.398 . S
C234 N233 1.298 . S
C234 N237 1.367 . S
C234 C247 1.481 . S
C235 N236 1.299 . S
C235 N237 1.379 . S
N236 N233 1.398 . S
N236 C235 1.299 . S
N237 C234 1.367 . S
N237 C235 1.379 . S
C238 N240 1.298 . S
C238 N242 1.367 . S
C238 C246 1.481 . S
C239 N241 1.299 . S
C239 N242 1.379 . S
N240 Zn224 2.036 . S
N240 C238 1.298 . S
N240 N241 1.398 . S
N241 C239 1.299 . S
N241 N240 1.398 . S
N242 C238 1.367 . S
N242 C239 1.379 . S
H243 C246 0.980 . S
H244 C246 0.981 . S
H245 C246 0.981 . S
C246 C238 1.481 . S
C246 H243 0.980 . S
C246 H244 0.981 . S
C246 H245 0.981 . S
C247 C234 1.481 . S
C247 H248 0.980 . S
C247 H249 0.981 . S
C247 H250 0.981 . S
H248 C247 0.980 . S
H249 C247 0.981 . S
H250 C247 0.981 . S
O251 Zn227 2.066 . S
O251 C230 1.256 . S
O252 Zn224 2.053 . S
O252 C230 1.244 . S
C253 O231 1.259 . S
C253 O232 1.254 . S
O254 Zn224 2.066 . S
O254 C226 1.256 . S
O255 C226 1.244 . S
O255 Zn227 2.053 . S
Zn256 O257 2.055 . S
Zn256 O264 2.046 . S
Zn256 N272 2.036 . S
Zn256 O284 2.053 . S
Zn256 O286 2.066 . S
O257 Zn256 2.055 . S
O257 C260 1.259 . S
C258 O286 1.256 . S
C258 O287 1.244 . S
Zn259 O261 2.046 . S
Zn259 O263 2.055 . S
Zn259 N265 2.036 . S
Zn259 O283 2.066 . S
Zn259 O287 2.053 . S
C260 O257 1.259 . S
C260 O261 1.254 . S
O261 Zn259 2.046 . S
O261 C260 1.254 . S
C262 O283 1.256 . S
C262 O284 1.244 . S
O263 Zn259 2.055 . S
O263 C285 1.259 . S
O264 Zn256 2.046 . S
O264 C285 1.254 . S
N265 Zn259 2.036 . S
N265 C266 1.298 . S
N265 N268 1.398 . S
C266 N265 1.298 . S
C266 N269 1.367 . S
C266 C279 1.481 . S
C267 N268 1.299 . S
C267 N269 1.379 . S
N268 N265 1.398 . S
N268 C267 1.299 . S
N269 C266 1.367 . S
N269 C267 1.379 . S
C270 N272 1.298 . S
C270 N274 1.367 . S
C270 C278 1.481 . S
C271 N273 1.299 . S
C271 N274 1.379 . S
N272 Zn256 2.036 . S
N272 C270 1.298 . S
N272 N273 1.398 . S
N273 C271 1.299 . S
N273 N272 1.398 . S
N274 C270 1.367 . S
N274 C271 1.379 . S
H275 C278 0.980 . S
H276 C278 0.981 . S
H277 C278 0.981 . S
C278 C270 1.481 . S
C278 H275 0.980 . S
C278 H276 0.981 . S
C278 H277 0.981 . S
C279 C266 1.481 . S
C279 H280 0.980 . S
C279 H281 0.981 . S
C279 H282 0.981 . S
H280 C279 0.980 . S
H281 C279 0.981 . S
H282 C279 0.981 . S
O283 Zn259 2.066 . S
O283 C262 1.256 . S
O284 Zn256 2.053 . S
O284 C262 1.244 . S
C285 O263 1.259 . S
C285 O264 1.254 . S
O286 Zn256 2.066 . S
O286 C258 1.256 . S
O287 C258 1.244 . S
O287 Zn259 2.053 . S
Zn288 O289 2.055 . S
Zn288 O296 2.046 . S
Zn288 N304 2.036 . S
Zn288 O316 2.053 . S
Zn288 O318 2.066 . S
O289 Zn288 2.055 . S
O289 C292 1.259 . S
C290 O318 1.256 . S
C290 O319 1.244 . S
Zn291 O293 2.046 . S
Zn291 O295 2.055 . S
Zn291 N297 2.036 . S
Zn291 O315 2.066 . S
Zn291 O319 2.053 1_565 S
C292 O289 1.259 . S
C292 O293 1.254 1_545 S
O293 Zn291 2.046 . S
O293 C292 1.254 1_565 S
C294 O315 1.256 1_545 S
C294 O316 1.244 . S
O295 Zn291 2.055 . S
O295 C317 1.259 . S
O296 Zn288 2.046 . S
O296 C317 1.254 1_545 S
N297 Zn291 2.036 . S
N297 C298 1.298 . S
N297 N300 1.398 . S
C298 N297 1.298 . S
C298 N301 1.367 . S
C298 C311 1.481 . S
C299 N300 1.299 . S
C299 N301 1.379 . S
N300 N297 1.398 . S
N300 C299 1.299 . S
N301 C298 1.367 . S
N301 C299 1.379 . S
C302 N304 1.298 . S
C302 N306 1.367 . S
C302 C310 1.481 . S
C303 N305 1.299 . S
C303 N306 1.379 . S
N304 Zn288 2.036 . S
N304 C302 1.298 . S
N304 N305 1.398 . S
N305 C303 1.299 . S
N305 N304 1.398 . S
N306 C302 1.367 . S
N306 C303 1.379 . S
H307 C310 0.980 . S
H308 C310 0.981 . S
H309 C310 0.981 . S
C310 C302 1.481 . S
C310 H307 0.980 . S
C310 H308 0.981 . S
C310 H309 0.981 . S
C311 C298 1.481 . S
C311 H312 0.980 . S
C311 H313 0.981 . S
C311 H314 0.981 . S
H312 C311 0.980 . S
H313 C311 0.981 . S
H314 C311 0.981 . S
O315 Zn291 2.066 . S
O315 C294 1.256 1_565 S
O316 Zn288 2.053 . S
O316 C294 1.244 . S
C317 O295 1.259 . S
C317 O296 1.254 1_565 S
O318 Zn288 2.066 . S
O318 C290 1.256 . S
O319 C290 1.244 . S
O319 Zn291 2.053 1_545 S
Zn320 O321 2.055 . S
Zn320 O328 2.046 . S
Zn320 N336 2.036 . S
Zn320 O348 2.053 . S
Zn320 O350 2.066 . S
O321 Zn320 2.055 . S
O321 C324 1.259 . S
C322 O350 1.256 . S
C322 O351 1.244 . S
Zn323 O325 2.046 . S
Zn323 O327 2.055 . S
Zn323 N329 2.036 . S
Zn323 O347 2.066 . S
Zn323 O351 2.053 . S
C324 O321 1.259 . S
C324 O325 1.254 . S
O325 Zn323 2.046 . S
O325 C324 1.254 . S
C326 O347 1.256 . S
C326 O348 1.244 . S
O327 Zn323 2.055 . S
O327 C349 1.259 . S
O328 Zn320 2.046 . S
O328 C349 1.254 . S
N329 Zn323 2.036 . S
N329 C330 1.298 . S
N329 N332 1.398 . S
C330 N329 1.298 . S
C330 N333 1.367 . S
C330 C343 1.481 . S
C331 N332 1.299 . S
C331 N333 1.379 . S
N332 N329 1.398 . S
N332 C331 1.299 . S
N333 C330 1.367 . S
N333 C331 1.379 . S
C334 N336 1.298 . S
C334 N338 1.367 . S
C334 C342 1.481 . S
C335 N337 1.299 . S
C335 N338 1.379 . S
N336 Zn320 2.036 . S
N336 C334 1.298 . S
N336 N337 1.398 . S
N337 C335 1.299 . S
N337 N336 1.398 . S
N338 C334 1.367 . S
N338 C335 1.379 . S
H339 C342 0.980 . S
H340 C342 0.981 . S
H341 C342 0.981 . S
C342 C334 1.481 . S
C342 H339 0.980 . S
C342 H340 0.981 . S
C342 H341 0.981 . S
C343 C330 1.481 . S
C343 H344 0.980 . S
C343 H345 0.981 . S
C343 H346 0.981 . S
H344 C343 0.980 . S
H345 C343 0.981 . S
H346 C343 0.981 . S
O347 Zn323 2.066 . S
O347 C326 1.256 . S
O348 Zn320 2.053 . S
O348 C326 1.244 . S
C349 O327 1.259 . S
C349 O328 1.254 . S
O350 Zn320 2.066 . S
O350 C322 1.256 . S
O351 C322 1.244 . S
O351 Zn323 2.053 . S
Zn352 O353 2.055 . S
Zn352 O360 2.046 . S
Zn352 N368 2.036 . S
Zn352 O380 2.053 1_545 S
Zn352 O382 2.066 . S
O353 Zn352 2.055 . S
O353 C356 1.259 . S
C354 O382 1.256 1_565 S
C354 O383 1.244 . S
Zn355 O357 2.046 . S
Zn355 O359 2.055 . S
Zn355 N361 2.036 . S
Zn355 O379 2.066 . S
Zn355 O383 2.053 . S
C356 O353 1.259 . S
C356 O357 1.254 1_545 S
O357 Zn355 2.046 . S
O357 C356 1.254 1_565 S
C358 O379 1.256 . S
C358 O380 1.244 . S
O359 Zn355 2.055 . S
O359 C381 1.259 . S
O360 Zn352 2.046 . S
O360 C381 1.254 1_545 S
N361 Zn355 2.036 . S
N361 C362 1.298 . S
N361 N364 1.398 . S
C362 N361 1.298 . S
C362 N365 1.367 . S
C362 C375 1.481 . S
C363 N364 1.299 . S
C363 N365 1.379 . S
N364 N361 1.398 . S
N364 C363 1.299 . S
N365 C362 1.367 . S
N365 C363 1.379 . S
C366 N368 1.298 . S
C366 N370 1.367 . S
C366 C374 1.481 . S
C367 N369 1.299 . S
C367 N370 1.379 . S
N368 Zn352 2.036 . S
N368 C366 1.298 . S
N368 N369 1.398 . S
N369 C367 1.299 . S
N369 N368 1.398 . S
N370 C366 1.367 . S
N370 C367 1.379 . S
H371 C374 0.980 . S
H372 C374 0.981 . S
H373 C374 0.981 . S
C374 C366 1.481 . S
C374 H371 0.980 . S
C374 H372 0.981 . S
C374 H373 0.981 . S
C375 C362 1.481 . S
C375 H376 0.980 . S
C375 H377 0.981 . S
C375 H378 0.981 . S
H376 C375 0.980 . S
H377 C375 0.981 . S
H378 C375 0.981 . S
O379 Zn355 2.066 . S
O379 C358 1.256 . S
O380 Zn352 2.053 1_565 S
O380 C358 1.244 . S
C381 O359 1.259 . S
C381 O360 1.254 1_565 S
O382 Zn352 2.066 . S
O382 C354 1.256 1_545 S
O383 C354 1.244 . S
O383 Zn355 2.053 . S
Zn384 O385 2.055 . S
Zn384 O392 2.046 . S
Zn384 N400 2.036 . S
Zn384 O412 2.053 . S
Zn384 O414 2.066 . S
O385 Zn384 2.055 . S
O385 C388 1.259 . S
C386 O414 1.256 . S
C386 O415 1.244 . S
Zn387 O389 2.046 . S
Zn387 O391 2.055 . S
Zn387 N393 2.036 . S
Zn387 O411 2.066 . S
Zn387 O415 2.053 . S
C388 O385 1.259 . S
C388 O389 1.254 . S
O389 Zn387 2.046 . S
O389 C388 1.254 . S
C390 O411 1.256 . S
C390 O412 1.244 . S
O391 Zn387 2.055 . S
O391 C413 1.259 . S
O392 Zn384 2.046 . S
O392 C413 1.254 . S
N393 Zn387 2.036 . S
N393 C394 1.298 . S
N393 N396 1.398 . S
C394 N393 1.298 . S
C394 N397 1.367 . S
C394 C407 1.481 . S
C395 N396 1.299 . S
C395 N397 1.379 . S
N396 N393 1.398 . S
N396 C395 1.299 . S
N397 C394 1.367 . S
N397 C395 1.379 . S
C398 N400 1.298 . S
C398 N402 1.367 . S
C398 C406 1.481 . S
C399 N401 1.299 . S
C399 N402 1.379 . S
N400 Zn384 2.036 . S
N400 C398 1.298 . S
N400 N401 1.398 . S
N401 C399 1.299 . S
N401 N400 1.398 . S
N402 C398 1.367 . S
N402 C399 1.379 . S
H403 C406 0.980 . S
H404 C406 0.981 . S
H405 C406 0.981 . S
C406 C398 1.481 . S
C406 H403 0.980 . S
C406 H404 0.981 . S
C406 H405 0.981 . S
C407 C394 1.481 . S
C407 H408 0.980 . S
C407 H409 0.981 . S
C407 H410 0.981 . S
H408 C407 0.980 . S
H409 C407 0.981 . S
H410 C407 0.981 . S
O411 Zn387 2.066 . S
O411 C390 1.256 . S
O412 Zn384 2.053 . S
O412 C390 1.244 . S
C413 O391 1.259 . S
C413 O392 1.254 . S
O414 Zn384 2.066 . S
O414 C386 1.256 . S
O415 C386 1.244 . S
O415 Zn387 2.053 . S
Zn416 O417 2.055 . S
Zn416 O424 2.046 . S
Zn416 N432 2.036 . S
Zn416 O444 2.053 . S
Zn416 O446 2.066 . S
O417 Zn416 2.055 . S
O417 C420 1.259 . S
C418 O446 1.256 . S
C418 O447 1.244 . S
Zn419 O421 2.046 . S
Zn419 O423 2.055 . S
Zn419 N425 2.036 . S
Zn419 O443 2.066 . S
Zn419 O447 2.053 1_545 S
C420 O417 1.259 . S
C420 O421 1.254 1_565 S
O421 Zn419 2.046 . S
O421 C420 1.254 1_545 S
C422 O443 1.256 1_565 S
C422 O444 1.244 . S
O423 Zn419 2.055 . S
O423 C445 1.259 . S
O424 Zn416 2.046 . S
O424 C445 1.254 1_565 S
N425 Zn419 2.036 . S
N425 C426 1.298 . S
N425 N428 1.398 . S
C426 N425 1.298 . S
C426 N429 1.367 . S
C426 C439 1.481 . S
C427 N428 1.299 . S
C427 N429 1.379 . S
N428 N425 1.398 . S
N428 C427 1.299 . S
N429 C426 1.367 . S
N429 C427 1.379 . S
C430 N432 1.298 . S
C430 N434 1.367 . S
C430 C438 1.481 . S
C431 N433 1.299 . S
C431 N434 1.379 . S
N432 Zn416 2.036 . S
N432 C430 1.298 . S
N432 N433 1.398 . S
N433 C431 1.299 . S
N433 N432 1.398 . S
N434 C430 1.367 . S
N434 C431 1.379 . S
H435 C438 0.980 . S
H436 C438 0.981 . S
H437 C438 0.981 . S
C438 C430 1.481 . S
C438 H435 0.980 . S
C438 H436 0.981 . S
C438 H437 0.981 . S
C439 C426 1.481 . S
C439 H440 0.980 . S
C439 H441 0.981 . S
C439 H442 0.981 . S
H440 C439 0.980 . S
H441 C439 0.981 . S
H442 C439 0.981 . S
O443 Zn419 2.066 . S
O443 C422 1.256 1_545 S
O444 Zn416 2.053 . S
O444 C422 1.244 . S
C445 O423 1.259 . S
C445 O424 1.254 1_545 S
O446 Zn416 2.066 . S
O446 C418 1.256 . S
O447 C418 1.244 . S
O447 Zn419 2.053 1_565 S
Zn448 O449 2.055 . S
Zn448 O456 2.046 . S
Zn448 N464 2.036 . S
Zn448 O476 2.053 . S
Zn448 O478 2.066 . S
O449 Zn448 2.055 . S
O449 C452 1.259 . S
C450 O478 1.256 . S
C450 O479 1.244 . S
Zn451 O453 2.046 . S
Zn451 O455 2.055 . S
Zn451 N457 2.036 . S
Zn451 O475 2.066 . S
Zn451 O479 2.053 . S
C452 O449 1.259 . S
C452 O453 1.254 . S
O453 Zn451 2.046 . S
O453 C452 1.254 . S
C454 O475 1.256 . S
C454 O476 1.244 . S
O455 Zn451 2.055 . S
O455 C477 1.259 . S
O456 Zn448 2.046 . S
O456 C477 1.254 . S
N457 Zn451 2.036 . S
N457 C458 1.298 . S
N457 N460 1.398 . S
C458 N457 1.298 . S
C458 N461 1.367 . S
C458 C471 1.481 . S
C459 N460 1.299 . S
C459 N461 1.379 . S
N460 N457 1.398 . S
N460 C459 1.299 . S
N461 C458 1.367 . S
N461 C459 1.379 . S
C462 N464 1.298 . S
C462 N466 1.367 . S
C462 C470 1.481 . S
C463 N465 1.299 . S
C463 N466 1.379 . S
N464 Zn448 2.036 . S
N464 C462 1.298 . S
N464 N465 1.398 . S
N465 C463 1.299 . S
N465 N464 1.398 . S
N466 C462 1.367 . S
N466 C463 1.379 . S
H467 C470 0.980 . S
H468 C470 0.981 . S
H469 C470 0.981 . S
C470 C462 1.481 . S
C470 H467 0.980 . S
C470 H468 0.981 . S
C470 H469 0.981 . S
C471 C458 1.481 . S
C471 H472 0.980 . S
C471 H473 0.981 . S
C471 H474 0.981 . S
H472 C471 0.980 . S
H473 C471 0.981 . S
H474 C471 0.981 . S
O475 Zn451 2.066 . S
O475 C454 1.256 . S
O476 Zn448 2.053 . S
O476 C454 1.244 . S
C477 O455 1.259 . S
C477 O456 1.254 . S
O478 Zn448 2.066 . S
O478 C450 1.256 . S
O479 C450 1.244 . S
O479 Zn451 2.053 . S
Zn480 O481 2.055 . S
Zn480 O488 2.046 . S
Zn480 N496 2.036 . S
Zn480 O508 2.053 1_565 S
Zn480 O510 2.066 . S
O481 Zn480 2.055 . S
O481 C484 1.259 . S
C482 O510 1.256 1_545 S
C482 O511 1.244 . S
Zn483 O485 2.046 . S
Zn483 O487 2.055 . S
Zn483 N489 2.036 . S
Zn483 O507 2.066 . S
Zn483 O511 2.053 . S
C484 O481 1.259 . S
C484 O485 1.254 1_565 S
O485 Zn483 2.046 . S
O485 C484 1.254 1_545 S
C486 O507 1.256 . S
C486 O508 1.244 . S
O487 Zn483 2.055 . S
O487 C509 1.259 . S
O488 Zn480 2.046 . S
O488 C509 1.254 1_565 S
N489 Zn483 2.036 . S
N489 C490 1.298 . S
N489 N492 1.398 . S
C490 N489 1.298 . S
C490 N493 1.367 . S
C490 C503 1.481 . S
C491 N492 1.299 . S
C491 N493 1.379 . S
N492 N489 1.398 . S
N492 C491 1.299 . S
N493 C490 1.367 . S
N493 C491 1.379 . S
C494 N496 1.298 . S
C494 N498 1.367 . S
C494 C502 1.481 . S
C495 N497 1.299 . S
C495 N498 1.379 . S
N496 Zn480 2.036 . S
N496 C494 1.298 . S
N496 N497 1.398 . S
N497 C495 1.299 . S
N497 N496 1.398 . S
N498 C494 1.367 . S
N498 C495 1.379 . S
H499 C502 0.980 . S
H500 C502 0.981 . S
H501 C502 0.981 . S
C502 C494 1.481 . S
C502 H499 0.980 . S
C502 H500 0.981 . S
C502 H501 0.981 . S
C503 C490 1.481 . S
C503 H504 0.980 . S
C503 H505 0.981 . S
C503 H506 0.981 . S
H504 C503 0.980 . S
H505 C503 0.981 . S
H506 C503 0.981 . S
O507 Zn483 2.066 . S
O507 C486 1.256 . S
O508 Zn480 2.053 1_545 S
O508 C486 1.244 . S
C509 O487 1.259 . S
C509 O488 1.254 1_545 S
O510 Zn480 2.066 . S
O510 C482 1.256 1_565 S
O511 C482 1.244 . S
O511 Zn483 2.053 . S
C512 C513 1.387 . S
C512 H516 0.950 . S
C512 C521 1.390 . S
C513 C512 1.387 . S
C513 C515 1.387 . S
H514 C521 0.950 . S
C515 C513 1.387 . S
C515 C517 1.390 . S
C515 H519 0.950 . S
H516 C512 0.950 . S
C517 C515 1.390 . S
C517 C518 1.387 . S
C517 H520 0.950 . S
C518 C517 1.387 . S
C518 C521 1.387 . S
H519 C515 0.950 . S
H520 C517 0.950 . S
C521 C512 1.390 . S
C521 H514 0.950 . S
C521 C518 1.387 . S
C522 C523 1.387 . S
C522 H526 0.950 . S
C522 C531 1.390 . S
C523 C522 1.387 . S
C523 C525 1.387 . S
H524 C531 0.950 . S
C525 C523 1.387 . S
C525 C527 1.390 . S
C525 H529 0.950 . S
H526 C522 0.950 . S
C527 C525 1.390 . S
C527 C528 1.387 . S
C527 H530 0.950 . S
C528 C527 1.387 . S
C528 C531 1.387 . S
H529 C525 0.950 . S
H530 C527 0.950 . S
C531 C522 1.390 . S
C531 H524 0.950 . S
C531 C528 1.387 . S
C532 C533 1.387 . S
C532 H536 0.950 . S
C532 C541 1.390 . S
C533 C532 1.387 . S
C533 C535 1.387 . S
H534 C541 0.950 . S
C535 C533 1.387 . S
C535 C537 1.390 . S
C535 H539 0.950 . S
H536 C532 0.950 . S
C537 C535 1.390 . S
C537 C538 1.387 . S
C537 H540 0.950 . S
C538 C537 1.387 . S
C538 C541 1.387 . S
H539 C535 0.950 . S
H540 C537 0.950 . S
C541 C532 1.390 . S
C541 H534 0.950 . S
C541 C538 1.387 . S
C542 C543 1.387 1_554 S
C542 H546 0.950 . S
C542 C551 1.390 1_655 S
C543 C542 1.387 1_556 S
C543 C545 1.387 . S
H544 C551 0.950 . S
C545 C543 1.387 . S
C545 C547 1.390 1_655 S
C545 H549 0.950 . S
H546 C542 0.950 . S
C547 C545 1.390 1_455 S
C547 C548 1.387 1_556 S
C547 H550 0.950 . S
C548 C547 1.387 1_554 S
C548 C551 1.387 . S
H549 C545 0.950 . S
H550 C547 0.950 . S
C551 C542 1.390 1_455 S
C551 H544 0.950 . S
C551 C548 1.387 . S
C552 C553 1.387 . S
C552 H556 0.950 . S
C552 C561 1.390 . S
C553 C552 1.387 . S
C553 C555 1.387 . S
H554 C561 0.950 . S
C555 C553 1.387 . S
C555 C557 1.390 . S
C555 H559 0.950 . S
H556 C552 0.950 . S
C557 C555 1.390 . S
C557 C558 1.387 . S
C557 H560 0.950 . S
C558 C557 1.387 . S
C558 C561 1.387 . S
H559 C555 0.950 . S
H560 C557 0.950 . S
C561 C552 1.390 . S
C561 H554 0.950 . S
C561 C558 1.387 . S
C562 C563 1.387 . S
C562 H566 0.950 . S
C562 C571 1.390 . S
C563 C562 1.387 . S
C563 C565 1.387 . S
H564 C571 0.950 . S
C565 C563 1.387 . S
C565 C567 1.390 . S
C565 H569 0.950 . S
H566 C562 0.950 . S
C567 C565 1.390 . S
C567 C568 1.387 . S
C567 H570 0.950 . S
C568 C567 1.387 . S
C568 C571 1.387 . S
H569 C565 0.950 . S
H570 C567 0.950 . S
C571 C562 1.390 . S
C571 H564 0.950 . S
C571 C568 1.387 . S
C572 C573 1.387 1_545 S
C572 H576 0.950 . S
C572 C581 1.390 1_655 S
C573 C572 1.387 1_565 S
C573 C575 1.387 1_554 S
H574 C581 0.950 . S
C575 C573 1.387 1_556 S
C575 C577 1.390 1_655 S
C575 H579 0.950 . S
H576 C572 0.950 . S
C577 C575 1.390 1_455 S
C577 C578 1.387 1_565 S
C577 H580 0.950 . S
C578 C577 1.387 1_545 S
C578 C581 1.387 1_556 S
H579 C575 0.950 . S
H580 C577 0.950 . S
C581 C572 1.390 1_455 S
C581 H574 0.950 . S
C581 C578 1.387 1_554 S
C582 C583 1.387 . S
C582 H586 0.950 . S
C582 C591 1.390 . S
C583 C582 1.387 . S
C583 C585 1.387 1_565 S
H584 C591 0.950 . S
C585 C583 1.387 1_545 S
C585 C587 1.390 . S
C585 H589 0.950 . S
H586 C582 0.950 . S
C587 C585 1.390 . S
C587 C588 1.387 . S
C587 H590 0.950 . S
C588 C587 1.387 . S
C588 C591 1.387 1_545 S
H589 C585 0.950 . S
H590 C587 0.950 . S
C591 C582 1.390 . S
C591 H584 0.950 . S
C591 C588 1.387 1_565 S
C592 C593 1.387 . S
C592 H596 0.950 . S
C592 C601 1.390 1_556 S
C593 C592 1.387 . S
C593 C595 1.387 . S
H594 C601 0.950 . S
C595 C593 1.387 . S
C595 C597 1.368 1_556 S
C595 H599 0.950 . S
H596 C592 0.950 . S
C597 C595 1.368 1_554 S
C597 C598 1.407 . S
C597 H600 0.953 . S
C598 C597 1.407 . S
C598 C601 1.387 . S
H599 C595 0.950 . S
H600 C597 0.953 . S
C601 C592 1.390 1_554 S
C601 H594 0.950 . S
C601 C598 1.387 . S
C602 C603 1.387 . S
C602 H606 0.950 . S
C602 C611 1.390 . S
C603 C602 1.387 . S
C603 C605 1.387 . S
H604 C611 0.950 . S
C605 C603 1.387 . S
C605 C607 1.390 . S
C605 H609 0.950 . S
H606 C602 0.950 . S
C607 C605 1.390 . S
C607 C608 1.387 . S
C607 H610 0.950 . S
C608 C607 1.387 . S
C608 C611 1.387 . S
H609 C605 0.950 . S
H610 C607 0.950 . S
C611 C602 1.390 . S
C611 H604 0.950 . S
C611 C608 1.387 . S
C612 C613 1.387 . S
C612 H616 0.950 . S
C612 C621 1.390 . S
C613 C612 1.387 . S
C613 C615 1.387 . S
H614 C621 0.950 . S
C615 C613 1.387 . S
C615 C617 1.390 . S
C615 H619 0.950 . S
H616 C612 0.950 . S
C617 C615 1.390 . S
C617 C618 1.387 . S
C617 H620 0.950 . S
C618 C617 1.387 . S
C618 C621 1.387 . S
H619 C615 0.950 . S
H620 C617 0.950 . S
C621 C612 1.390 . S
C621 H614 0.950 . S
C621 C618 1.387 . S
C622 C623 1.387 . S
C622 H626 0.950 . S
C622 C631 1.390 . S
C623 C622 1.387 . S
C623 C625 1.387 . S
H624 C631 0.950 . S
C625 C623 1.387 . S
C625 C627 1.390 . S
C625 H629 0.950 . S
H626 C622 0.950 . S
C627 C625 1.390 . S
C627 C628 1.387 . S
C627 H630 0.950 . S
C628 C627 1.387 . S
C628 C631 1.387 . S
H629 C625 0.950 . S
H630 C627 0.950 . S
C631 C622 1.390 . S
C631 H624 0.950 . S
C631 C628 1.387 . S
C632 C633 1.387 . S
C632 H636 0.950 . S
C632 C641 1.390 1_554 S
C633 C632 1.387 . S
C633 C635 1.387 . S
H634 C641 0.950 . S
C635 C633 1.387 . S
C635 C637 1.390 1_554 S
C635 H639 0.950 . S
H636 C632 0.950 . S
C637 C635 1.390 1_556 S
C637 C638 1.387 . S
C637 H640 0.950 . S
C638 C637 1.387 . S
C638 C641 1.387 . S
H639 C635 0.950 . S
H640 C637 0.950 . S
C641 C632 1.390 1_556 S
C641 H634 0.950 . S
C641 C638 1.387 . S
C642 C643 1.387 . S
C642 H646 0.950 . S
C642 C651 1.390 . S
C643 C642 1.387 . S
C643 C645 1.387 . S
H644 C651 0.950 . S
C645 C643 1.387 . S
C645 C647 1.390 . S
C645 H649 0.950 . S
H646 C642 0.950 . S
C647 C645 1.390 . S
C647 C648 1.387 . S
C647 H650 0.950 . S
C648 C647 1.387 . S
C648 C651 1.387 . S
H649 C645 0.950 . S
H650 C647 0.950 . S
C651 C642 1.390 . S
C651 H644 0.950 . S
C651 C648 1.387 . S
C652 C653 1.387 . S
C652 H656 0.950 . S
C652 C661 1.390 . S
C653 C652 1.387 . S
C653 C655 1.387 . S
H654 C661 0.950 . S
C655 C653 1.387 . S
C655 C657 1.390 . S
C655 H659 0.950 . S
H656 C652 0.950 . S
C657 C655 1.390 . S
C657 C658 1.387 . S
C657 H660 0.950 . S
C658 C657 1.387 . S
C658 C661 1.387 . S
H659 C655 0.950 . S
H660 C657 0.950 . S
C661 C652 1.390 . S
C661 H654 0.950 . S
C661 C658 1.387 . S
C662 C663 1.387 . S
C662 H666 0.950 . S
C662 C671 1.390 . S
C663 C662 1.387 . S
C663 C665 1.387 . S
H664 C671 0.950 . S
C665 C663 1.387 . S
C665 C667 1.390 . S
C665 H669 0.950 . S
H666 C662 0.950 . S
C667 C665 1.390 . S
C667 C668 1.387 . S
C667 H670 0.950 . S
C668 C667 1.387 . S
C668 C671 1.387 . S
H669 C665 0.950 . S
H670 C667 0.950 . S
C671 C662 1.390 . S
C671 H664 0.950 . S
C671 C668 1.387 . S
C672 C673 1.387 . S
C672 H676 0.950 . S
C672 C681 1.390 . S
C673 C672 1.387 . S
C673 C675 1.387 . S
H674 C681 0.950 . S
C675 C673 1.387 . S
C675 C677 1.390 . S
C675 H679 0.950 . S
H676 C672 0.950 . S
C677 C675 1.390 . S
C677 C678 1.387 . S
C677 H680 0.950 . S
C678 C677 1.387 . S
C678 C681 1.387 . S
H679 C675 0.950 . S
H680 C677 0.950 . S
C681 C672 1.390 . S
C681 H674 0.950 . S
C681 C678 1.387 . S
C682 C683 1.387 . S
C682 H686 0.950 1_565 S
C682 C691 1.390 . S
C683 C682 1.387 . S
C683 C685 1.387 . S
H684 C691 0.950 . S
C685 C683 1.387 . S
C685 C687 1.390 . S
C685 H689 0.950 . S
H686 C682 0.950 1_545 S
C687 C685 1.390 . S
C687 C688 1.387 . S
C687 H690 0.950 . S
C688 C687 1.387 . S
C688 C691 1.387 . S
H689 C685 0.950 . S
H690 C687 0.950 . S
C691 C682 1.390 . S
C691 H684 0.950 . S
C691 C688 1.387 . S
C692 C693 1.406 . S
C692 H696 0.953 . S
C692 C701 1.369 1_554 S
C693 C692 1.406 . S
C693 C695 1.387 . S
H694 C701 0.950 . S
C695 C693 1.387 . S
C695 C697 1.390 1_554 S
C695 H699 0.950 . S
H696 C692 0.953 . S
C697 C695 1.390 1_556 S
C697 C698 1.387 . S
C697 H700 0.950 . S
C698 C697 1.387 . S
C698 C701 1.387 . S
H699 C695 0.950 . S
H700 C697 0.950 . S
C701 C692 1.369 1_556 S
C701 H694 0.950 . S
C701 C698 1.387 . S
C702 C703 1.387 . S
C702 H706 0.950 . S
C702 C711 1.390 . S
C703 C702 1.387 . S
C703 C705 1.387 . S
H704 C711 0.950 1_565 S
C705 C703 1.387 . S
C705 C707 1.390 . S
C705 H709 0.950 . S
H706 C702 0.950 . S
C707 C705 1.390 . S
C707 C708 1.387 . S
C707 H710 0.950 . S
C708 C707 1.387 . S
C708 C711 1.387 . S
H709 C705 0.950 . S
H710 C707 0.950 . S
C711 C702 1.390 . S
C711 H704 0.950 1_545 S
C711 C708 1.387 . S
C712 C713 1.387 . S
C712 H716 0.950 . S
C712 C721 1.390 . S
C713 C712 1.387 . S
C713 C715 1.387 . S
H714 C721 0.950 . S
C715 C713 1.387 . S
C715 C717 1.390 . S
C715 H719 0.950 . S
H716 C712 0.950 . S
C717 C715 1.390 . S
C717 C718 1.387 . S
C717 H720 0.950 . S
C718 C717 1.387 . S
C718 C721 1.387 . S
H719 C715 0.950 . S
H720 C717 0.950 . S
C721 C712 1.390 . S
C721 H714 0.950 . S
C721 C718 1.387 . S
C722 C723 1.387 . S
C722 H726 0.950 . S
C722 C731 1.390 . S
C723 C722 1.387 . S
C723 C725 1.382 1_545 S
H724 C731 0.950 . S
C725 C723 1.382 1_565 S
C725 C727 1.381 1_565 S
C725 H729 0.965 . S
H726 C722 0.950 . S
C727 C725 1.381 1_545 S
C727 C728 1.387 . S
C727 H730 0.950 . S
C728 C727 1.387 . S
C728 C731 1.387 . S
H729 C725 0.965 . S
H730 C727 0.950 . S
C731 C722 1.390 . S
C731 H724 0.950 . S
C731 C728 1.387 . S
C732 C733 1.387 . S
C732 H736 0.950 . S
C732 C741 1.390 1_554 S
C733 C732 1.387 . S
C733 C735 1.387 . S
H734 C741 0.950 . S
C735 C733 1.387 . S
C735 C737 1.390 1_554 S
C735 H739 0.950 . S
H736 C732 0.950 . S
C737 C735 1.390 1_556 S
C737 C738 1.387 . S
C737 H740 0.950 . S
C738 C737 1.387 . S
C738 C741 1.387 . S
H739 C735 0.950 . S
H740 C737 0.950 . S
C741 C732 1.390 1_556 S
C741 H734 0.950 . S
C741 C738 1.387 . S
C742 C743 1.387 . S
C742 H746 0.950 . S
C742 C751 1.390 . S
C743 C742 1.387 . S
C743 C745 1.387 . S
H744 C751 0.950 . S
C745 C743 1.387 . S
C745 C747 1.390 . S
C745 H749 0.950 1_565 S
H746 C742 0.950 . S
C747 C745 1.390 . S
C747 C748 1.387 . S
C747 H750 0.950 . S
C748 C747 1.387 . S
C748 C751 1.387 . S
H749 C745 0.950 1_545 S
H750 C747 0.950 . S
C751 C742 1.390 . S
C751 H744 0.950 . S
C751 C748 1.387 . S
C752 C753 1.387 . S
C752 H756 0.950 . S
C752 C761 1.390 . S
C753 C752 1.387 . S
C753 C755 1.387 . S
H754 C761 0.950 . S
C755 C753 1.387 . S
C755 C757 1.390 . S
C755 H759 0.950 . S
H756 C752 0.950 . S
C757 C755 1.390 . S
C757 C758 1.387 . S
C757 H760 0.950 . S
C758 C757 1.387 . S
C758 C761 1.387 . S
H759 C755 0.950 . S
H760 C757 0.950 . S
C761 C752 1.390 . S
C761 H754 0.950 . S
C761 C758 1.387 . S
C762 C763 1.387 . S
C762 H766 0.950 . S
C762 C771 1.390 . S
C763 C762 1.387 . S
C763 C765 1.387 . S
H764 C771 0.950 . S
C765 C763 1.387 . S
C765 C767 1.390 . S
C765 H769 0.950 . S
H766 C762 0.950 . S
C767 C765 1.390 . S
C767 C768 1.387 . S
C767 H770 0.950 . S
C768 C767 1.387 . S
C768 C771 1.387 . S
H769 C765 0.950 . S
H770 C767 0.950 . S
C771 C762 1.390 . S
C771 H764 0.950 . S
C771 C768 1.387 . S
C772 C773 1.387 . S
C772 H776 0.950 . S
C772 C781 1.390 1_655 S
C773 C772 1.387 . S
C773 C775 1.387 . S
H774 C781 0.950 . S
C775 C773 1.387 . S
C775 C777 1.390 1_655 S
C775 H779 0.950 . S
H776 C772 0.950 . S
C777 C775 1.390 1_455 S
C777 C778 1.387 . S
C777 H780 0.950 . S
C778 C777 1.387 . S
C778 C781 1.387 . S
H779 C775 0.950 . S
H780 C777 0.950 . S
C781 C772 1.390 1_455 S
C781 H774 0.950 . S
C781 C778 1.387 . S
C782 C783 1.387 . S
C782 H786 0.950 . S
C782 C791 1.390 1_655 S
C783 C782 1.387 . S
C783 C785 1.387 . S
H784 C791 0.950 . S
C785 C783 1.387 . S
C785 C787 1.390 1_655 S
C785 H789 0.950 . S
H786 C782 0.950 . S
C787 C785 1.390 1_455 S
C787 C788 1.387 . S
C787 H790 0.950 . S
C788 C787 1.387 . S
C788 C791 1.387 . S
H789 C785 0.950 . S
H790 C787 0.950 . S
C791 C782 1.390 1_455 S
C791 H784 0.950 . S
C791 C788 1.387 . S
C792 C793 1.387 . S
C792 H796 0.950 . S
C792 C801 1.390 . S
C793 C792 1.387 . S
C793 C795 1.387 . S
H794 C801 0.950 . S
C795 C793 1.387 . S
C795 C797 1.390 . S
C795 H799 0.950 . S
H796 C792 0.950 . S
C797 C795 1.390 . S
C797 C798 1.387 . S
C797 H800 0.950 . S
C798 C797 1.387 . S
C798 C801 1.387 . S
H799 C795 0.950 . S
H800 C797 0.950 . S
C801 C792 1.390 . S
C801 H794 0.950 . S
C801 C798 1.387 . S
C802 C803 1.387 . S
C802 H806 0.950 . S
C802 C811 1.390 . S
C803 C802 1.387 . S
C803 C805 1.387 . S
H804 C811 0.950 . S
C805 C803 1.387 . S
C805 C807 1.390 . S
C805 H809 0.950 . S
H806 C802 0.950 . S
C807 C805 1.390 . S
C807 C808 1.387 . S
C807 H810 0.950 . S
C808 C807 1.387 . S
C808 C811 1.387 . S
H809 C805 0.950 . S
H810 C807 0.950 . S
C811 C802 1.390 . S
C811 H804 0.950 . S
C811 C808 1.387 . S
C812 C813 1.387 . S
C812 H816 0.950 . S
C812 C821 1.390 1_455 S
C813 C812 1.387 . S
C813 C815 1.387 . S
H814 C821 0.950 . S
C815 C813 1.387 . S
C815 C817 1.390 1_455 S
C815 H819 0.950 . S
H816 C812 0.950 . S
C817 C815 1.390 1_655 S
C817 C818 1.387 . S
C817 H820 0.950 . S
C818 C817 1.387 . S
C818 C821 1.387 . S
H819 C815 0.950 . S
H820 C817 0.950 . S
C821 C812 1.390 1_655 S
C821 H814 0.950 . S
C821 C818 1.387 . S
C822 C823 1.387 . S
C822 H826 0.950 . S
C822 C831 1.390 1_455 S
C823 C822 1.387 . S
C823 C825 1.387 . S
H824 C831 0.950 . S
C825 C823 1.387 . S
C825 C827 1.390 1_455 S
C825 H829 0.950 . S
H826 C822 0.950 . S
C827 C825 1.390 1_655 S
C827 C828 1.387 . S
C827 H830 0.950 . S
C828 C827 1.387 . S
C828 C831 1.387 . S
H829 C825 0.950 . S
H830 C827 0.950 . S
C831 C822 1.390 1_655 S
C831 H824 0.950 . S
C831 C828 1.387 . S
C832 C833 1.387 . S
C832 H836 0.950 . S
C832 C841 1.390 . S
C833 C832 1.387 . S
C833 C835 1.387 . S
H834 C841 0.950 . S
C835 C833 1.387 . S
C835 C837 1.390 . S
C835 H839 0.950 . S
H836 C832 0.950 . S
C837 C835 1.390 . S
C837 C838 1.387 . S
C837 H840 0.950 . S
C838 C837 1.387 . S
C838 C841 1.387 . S
H839 C835 0.950 . S
H840 C837 0.950 . S
C841 C832 1.390 . S
C841 H834 0.950 . S
C841 C838 1.387 . S
C842 C843 1.387 . S
C842 H846 0.950 . S
C842 C851 1.390 . S
C843 C842 1.387 . S
C843 C845 1.387 . S
H844 C851 0.950 . S
C845 C843 1.387 . S
C845 C847 1.390 . S
C845 H849 0.950 . S
H846 C842 0.950 . S
C847 C845 1.390 . S
C847 C848 1.387 . S
C847 H850 0.950 . S
C848 C847 1.387 . S
C848 C851 1.387 . S
H849 C845 0.950 . S
H850 C847 0.950 . S
C851 C842 1.390 . S
C851 H844 0.950 . S
C851 C848 1.387 . S
C852 C853 1.387 . S
C852 H856 0.950 . S
C852 C861 1.390 . S
C853 C852 1.387 . S
C853 C855 1.387 . S
H854 C861 0.950 . S
C855 C853 1.387 . S
C855 C857 1.390 . S
C855 H859 0.950 . S
H856 C852 0.950 . S
C857 C855 1.390 . S
C857 C858 1.387 . S
C857 H860 0.950 . S
C858 C857 1.387 . S
C858 C861 1.387 . S
H859 C855 0.950 . S
H860 C857 0.950 . S
C861 C852 1.390 . S
C861 H854 0.950 . S
C861 C858 1.387 . S
C862 C863 1.387 1_455 S
C862 H866 0.953 . S
C862 C871 1.390 . S
C863 C862 1.387 1_655 S
C863 C865 1.387 1_655 S
H864 C871 0.950 . S
C865 C863 1.387 1_455 S
C865 C867 1.390 . S
C865 H869 0.950 . S
H866 C862 0.953 . S
C867 C865 1.390 . S
C867 C868 1.387 . S
C867 H870 0.950 . S
C868 C867 1.387 . S
C868 C871 1.387 . S
H869 C865 0.950 . S
H870 C867 0.950 . S
C871 C862 1.390 . S
C871 H864 0.950 . S
C871 C868 1.387 . S
C872 C873 1.387 . S
C872 H876 0.950 . S
C872 C881 1.390 . S
C873 C872 1.387 . S
C873 C875 1.387 . S
H874 C881 0.950 . S
C875 C873 1.387 . S
C875 C877 1.390 . S
C875 H879 0.950 . S
H876 C872 0.950 . S
C877 C875 1.390 . S
C877 C878 1.387 . S
C877 H880 0.950 . S
C878 C877 1.387 . S
C878 C881 1.387 . S
H879 C875 0.950 . S
H880 C877 0.950 . S
C881 C872 1.390 . S
C881 H874 0.950 . S
C881 C878 1.387 . S
C882 C883 1.387 . S
C882 H886 0.950 . S
C882 C891 1.390 . S
C883 C882 1.387 . S
C883 C885 1.387 . S
H884 C891 0.950 . S
C885 C883 1.387 . S
C885 C887 1.390 . S
C885 H889 0.950 . S
H886 C882 0.950 . S
C887 C885 1.390 . S
C887 C888 1.387 . S
C887 H890 0.950 . S
C888 C887 1.387 . S
C888 C891 1.387 . S
H889 C885 0.950 . S
H890 C887 0.950 . S
C891 C882 1.390 . S
C891 H884 0.950 . S
C891 C888 1.387 . S
C892 C893 1.387 . S
C892 H896 0.950 . S
C892 C901 1.390 . S
C893 C892 1.387 . S
C893 C895 1.387 . S
H894 C901 0.950 . S
C895 C893 1.387 . S
C895 C897 1.390 . S
C895 H899 0.950 . S
H896 C892 0.950 . S
C897 C895 1.390 . S
C897 C898 1.387 . S
C897 H900 0.950 . S
C898 C897 1.387 . S
C898 C901 1.387 . S
H899 C895 0.950 . S
H900 C897 0.950 . S
C901 C892 1.390 . S
C901 H894 0.950 . S
C901 C898 1.387 . S
C902 C903 1.387 . S
C902 H906 0.950 . S
C902 C911 1.390 . S
C903 C902 1.387 . S
C903 C905 1.387 . S
H904 C911 0.950 . S
C905 C903 1.387 . S
C905 C907 1.390 . S
C905 H909 0.950 . S
H906 C902 0.950 . S
C907 C905 1.390 . S
C907 C908 1.387 1_655 S
C907 H910 0.950 1_655 S
C908 C907 1.387 1_455 S
C908 C911 1.387 1_455 S
H909 C905 0.950 . S
H910 C907 0.950 1_455 S
C911 C902 1.390 . S
C911 H904 0.950 . S
C911 C908 1.387 1_655 S
C912 C913 1.387 . S
C912 H916 0.950 . S
C912 C921 1.390 . S
C913 C912 1.387 . S
C913 C915 1.387 . S
H914 C921 0.950 . S
C915 C913 1.387 . S
C915 C917 1.390 . S
C915 H919 0.950 . S
H916 C912 0.950 . S
C917 C915 1.390 . S
C917 C918 1.387 . S
C917 H920 0.950 . S
C918 C917 1.387 . S
C918 C921 1.387 . S
H919 C915 0.950 . S
H920 C917 0.950 . S
C921 C912 1.390 . S
C921 H914 0.950 . S
C921 C918 1.387 . S
C922 C923 1.387 . S
C922 H926 0.950 . S
C922 C931 1.390 . S
C923 C922 1.387 . S
C923 C925 1.387 . S
H924 C931 0.950 . S
C925 C923 1.387 . S
C925 C927 1.390 . S
C925 H929 0.950 . S
H926 C922 0.950 . S
C927 C925 1.390 . S
C927 C928 1.387 1_655 S
C927 H930 0.950 . S
C928 C927 1.387 1_455 S
C928 C931 1.387 1_455 S
H929 C925 0.950 . S
H930 C927 0.950 . S
C931 C922 1.390 . S
C931 H924 0.950 . S
C931 C928 1.387 1_655 S
C932 C933 1.387 . S
C932 H936 0.950 . S
C932 C941 1.390 . S
C933 C932 1.387 . S
C933 C935 1.387 . S
H934 C941 0.950 . S
C935 C933 1.387 . S
C935 C937 1.390 . S
C935 H939 0.950 . S
H936 C932 0.950 . S
C937 C935 1.390 . S
C937 C938 1.387 . S
C937 H940 0.950 . S
C938 C937 1.387 . S
C938 C941 1.387 . S
H939 C935 0.950 . S
H940 C937 0.950 . S
C941 C932 1.390 . S
C941 H934 0.950 . S
C941 C938 1.387 . S
C942 C943 1.387 . S
C942 H946 0.950 . S
C942 C951 1.390 . S
C943 C942 1.387 . S
C943 C945 1.387 . S
H944 C951 0.950 . S
C945 C943 1.387 . S
C945 C947 1.390 . S
C945 H949 0.950 . S
H946 C942 0.950 . S
C947 C945 1.390 . S
C947 C948 1.387 . S
C947 H950 0.950 . S
C948 C947 1.387 . S
C948 C951 1.387 . S
H949 C945 0.950 . S
H950 C947 0.950 . S
C951 C942 1.390 . S
C951 H944 0.950 . S
C951 C948 1.387 . S
C952 C953 1.387 . S
C952 H956 0.950 . S
C952 C961 1.390 . S
C953 C952 1.387 . S
C953 C955 1.387 . S
H954 C961 0.950 . S
C955 C953 1.387 . S
C955 C957 1.390 . S
C955 H959 0.950 . S
H956 C952 0.950 . S
C957 C955 1.390 . S
C957 C958 1.387 . S
C957 H960 0.950 . S
C958 C957 1.387 . S
C958 C961 1.387 . S
H959 C955 0.950 . S
H960 C957 0.950 . S
C961 C952 1.390 . S
C961 H954 0.950 . S
C961 C958 1.387 . S
C962 C963 1.387 1_455 S
C962 H966 0.950 . S
C962 C971 1.390 . S
C963 C962 1.387 1_655 S
C963 C965 1.387 1_655 S
H964 C971 0.950 . S
C965 C963 1.387 1_455 S
C965 C967 1.390 . S
C965 H969 0.950 . S
H966 C962 0.950 . S
C967 C965 1.390 . S
C967 C968 1.387 . S
C967 H970 0.950 . S
C968 C967 1.387 . S
C968 C971 1.387 . S
H969 C965 0.950 . S
H970 C967 0.950 . S
C971 C962 1.390 . S
C971 H964 0.950 . S
C971 C968 1.387 . S
C972 C973 1.387 . S
C972 H976 0.950 . S
C972 C981 1.390 . S
C973 C972 1.387 . S
C973 C975 1.387 . S
H974 C981 0.950 . S
C975 C973 1.387 . S
C975 C977 1.390 . S
C975 H979 0.950 . S
H976 C972 0.950 . S
C977 C975 1.390 . S
C977 C978 1.387 . S
C977 H980 0.950 . S
C978 C977 1.387 . S
C978 C981 1.387 . S
H979 C975 0.950 . S
H980 C977 0.950 . S
C981 C972 1.390 . S
C981 H974 0.950 . S
C981 C978 1.387 . S
C982 C983 1.387 . S
C982 H986 0.950 . S
C982 C991 1.390 . S
C983 C982 1.387 . S
C983 C985 1.387 . S
H984 C991 0.950 . S
C985 C983 1.387 . S
C985 C987 1.390 . S
C985 H989 0.950 . S
H986 C982 0.950 . S
C987 C985 1.390 . S
C987 C988 1.387 . S
C987 H990 0.950 . S
C988 C987 1.387 . S
C988 C991 1.387 . S
H989 C985 0.950 . S
H990 C987 0.950 . S
C991 C982 1.390 . S
C991 H984 0.950 . S
C991 C988 1.387 . S
C513 C4 1.037 . S
C518 C413 1.037 . S
C523 C189 1.031 . S
C528 C36 1.031 . S
C533 C68 1.033 . S
C538 C452 1.033 . S
C543 C125 1.034 . S
C548 C253 1.034 . S
C553 C157 1.030 . S
C558 C260 1.030 . S
C563 C349 1.030 . S
C568 C196 1.030 . S
C573 C420 1.036 . S
C578 C292 1.036 . S
C583 C381 1.037 . S
C588 C509 1.037 . S
C593 C290 1.911 . S
C598 C6 1.860 . S
C603 C38 1.858 . S
C608 C326 1.912 . S
C613 C70 1.858 . S
C618 C358 1.912 . S
C623 C258 1.911 . S
C628 C98 1.860 . S
C633 C418 1.912 . S
C638 C130 1.858 . S
C643 C450 1.911 . S
C648 C162 1.858 . S
C653 C198 1.860 . S
C658 C486 1.911 . S
C663 C390 1.911 . S
C668 C226 1.860 . S
C673 C262 1.860 . S
C678 C34 1.911 . S
C683 C294 1.860 1_565 S
C688 C66 1.910 . S
C693 C322 1.858 . S
C698 C102 1.912 . S
C703 C2 1.911 . S
C708 C354 1.858 1_545 S
C713 C166 1.912 . S
C718 C386 1.858 . S
C723 C422 1.859 1_545 S
C728 C194 1.910 . S
C733 C230 1.911 . S
C738 C454 1.860 . S
C743 C482 1.858 1_565 S
C748 C134 1.911 . S
C753 N18 1.344 . S
C758 N333 1.344 . S
C763 N50 1.344 . S
C768 N365 1.344 . S
C773 N274 1.344 . S
C778 N82 1.344 . S
C783 N109 1.344 . S
C788 N306 1.344 . S
C793 N141 1.344 . S
C798 N466 1.344 . S
C803 N173 1.344 . S
C808 N493 1.344 . S
C813 N397 1.344 . S
C818 N210 1.344 . S
C823 N237 1.344 . S
C828 N434 1.344 . S
C833 C29 1.129 . S
C838 N242 1.184 . S
C843 N402 1.184 . S
C848 C61 1.129 . S
C853 C93 1.129 . S
C858 N178 1.184 . S
C863 C100 1.130 . S
C868 N461 1.185 . S
C873 C132 1.127 . S
C878 N114 1.183 . S
C883 N269 1.183 . S
C888 C164 1.130 . S
C893 C221 1.130 . S
C898 N45 1.184 . S
C903 N338 1.184 . S
C908 C228 1.131 . S
C913 C285 1.130 . S
C918 N498 1.184 . S
C923 N146 1.184 . S
C928 C317 1.130 . S
C933 N429 1.184 . S
C938 C324 1.130 . S
C943 C356 1.130 . S
C948 N205 1.183 . S
C953 C388 1.131 . S
C958 N370 1.184 . S
C963 C445 1.130 . S
C968 N13 1.185 . S
C973 N301 1.184 . S
C978 C477 1.130 . S
C983 N77 1.184 . S
C988 C484 1.130 . S
