# Generated by pormake.
# Topology zfg, (5)-cn, num edge types: 1
# Building blocks:
#     Node 0, Type 0, BuildingBlock: BEQFEK_clean_sbu_0, # of connection points: 5
#     Node 1, Type 0, BuildingBlock: BEQFEK_clean_sbu_0, # of connection points: 5
#     Node 2, Type 0, BuildingBlock: BEQFEK_clean_sbu_0, # of connection points: 5
#     Node 3, Type 0, BuildingBlock: BEQFEK_clean_sbu_0, # of connection points: 5
#     Node 4, Type 0, BuildingBlock: BEQFEK_clean_sbu_0, # of connection points: 5
#     Node 5, Type 0, BuildingBlock: BEQFEK_clean_sbu_0, # of connection points: 5
#     Node 6, Type 0, BuildingBlock: BEQFEK_clean_sbu_0, # of connection points: 5
#     Node 7, Type 0, BuildingBlock: BEQFEK_clean_sbu_0, # of connection points: 5
#     Node 8, Type 0, BuildingBlock: BEQFEK_clean_sbu_0, # of connection points: 5
#     Node 9, Type 0, BuildingBlock: BEQFEK_clean_sbu_0, # of connection points: 5
#     Node 10, Type 0, BuildingBlock: BEQFEK_clean_sbu_0, # of connection points: 5
#     Node 11, Type 0, BuildingBlock: BEQFEK_clean_sbu_0, # of connection points: 5
#     Node 12, Type 0, BuildingBlock: BEQFEK_clean_sbu_0, # of connection points: 5
#     Node 13, Type 0, BuildingBlock: BEQFEK_clean_sbu_0, # of connection points: 5
#     Node 14, Type 0, BuildingBlock: BEQFEK_clean_sbu_0, # of connection points: 5
#     Node 15, Type 0, BuildingBlock: BEQFEK_clean_sbu_0, # of connection points: 5
#     Edge 16, Type (0, 0), BuildingBlock: UVAHIK_clean_linker_0, # of connection points: 2
#     Edge 17, Type (0, 0), BuildingBlock: UVAHIK_clean_linker_0, # of connection points: 2
#     Edge 18, Type (0, 0), BuildingBlock: UVAHIK_clean_linker_0, # of connection points: 2
#     Edge 19, Type (0, 0), BuildingBlock: UVAHIK_clean_linker_0, # of connection points: 2
#     Edge 20, Type (0, 0), BuildingBlock: UVAHIK_clean_linker_0, # of connection points: 2
#     Edge 21, Type (0, 0), BuildingBlock: UVAHIK_clean_linker_0, # of connection points: 2
#     Edge 22, Type (0, 0), BuildingBlock: UVAHIK_clean_linker_0, # of connection points: 2
#     Edge 23, Type (0, 0), BuildingBlock: UVAHIK_clean_linker_0, # of connection points: 2
#     Edge 24, Type (0, 0), BuildingBlock: UVAHIK_clean_linker_0, # of connection points: 2
#     Edge 25, Type (0, 0), BuildingBlock: UVAHIK_clean_linker_0, # of connection points: 2
#     Edge 26, Type (0, 0), BuildingBlock: UVAHIK_clean_linker_0, # of connection points: 2
#     Edge 27, Type (0, 0), BuildingBlock: UVAHIK_clean_linker_0, # of connection points: 2
#     Edge 28, Type (0, 0), BuildingBlock: UVAHIK_clean_linker_0, # of connection points: 2
#     Edge 29, Type (0, 0), BuildingBlock: UVAHIK_clean_linker_0, # of connection points: 2
#     Edge 30, Type (0, 0), BuildingBlock: UVAHIK_clean_linker_0, # of connection points: 2
#     Edge 31, Type (0, 0), BuildingBlock: UVAHIK_clean_linker_0, # of connection points: 2
#     Edge 32, Type (0, 0), BuildingBlock: UVAHIK_clean_linker_0, # of connection points: 2
#     Edge 33, Type (0, 0), BuildingBlock: UVAHIK_clean_linker_0, # of connection points: 2
#     Edge 34, Type (0, 0), BuildingBlock: UVAHIK_clean_linker_0, # of connection points: 2
#     Edge 35, Type (0, 0), BuildingBlock: UVAHIK_clean_linker_0, # of connection points: 2
#     Edge 36, Type (0, 0), BuildingBlock: UVAHIK_clean_linker_0, # of connection points: 2
#     Edge 37, Type (0, 0), BuildingBlock: UVAHIK_clean_linker_0, # of connection points: 2
#     Edge 38, Type (0, 0), BuildingBlock: UVAHIK_clean_linker_0, # of connection points: 2
#     Edge 39, Type (0, 0), BuildingBlock: UVAHIK_clean_linker_0, # of connection points: 2
#     Edge 40, Type (0, 0), BuildingBlock: UVAHIK_clean_linker_0, # of connection points: 2
#     Edge 41, Type (0, 0), BuildingBlock: UVAHIK_clean_linker_0, # of connection points: 2
#     Edge 42, Type (0, 0), BuildingBlock: UVAHIK_clean_linker_0, # of connection points: 2
#     Edge 43, Type (0, 0), BuildingBlock: UVAHIK_clean_linker_0, # of connection points: 2
#     Edge 44, Type (0, 0), BuildingBlock: UVAHIK_clean_linker_0, # of connection points: 2
#     Edge 45, Type (0, 0), BuildingBlock: UVAHIK_clean_linker_0, # of connection points: 2
#     Edge 46, Type (0, 0), BuildingBlock: UVAHIK_clean_linker_0, # of connection points: 2
#     Edge 47, Type (0, 0), BuildingBlock: UVAHIK_clean_linker_0, # of connection points: 2
#     Edge 48, Type (0, 0), BuildingBlock: UVAHIK_clean_linker_0, # of connection points: 2
#     Edge 49, Type (0, 0), BuildingBlock: UVAHIK_clean_linker_0, # of connection points: 2
#     Edge 50, Type (0, 0), BuildingBlock: UVAHIK_clean_linker_0, # of connection points: 2
#     Edge 51, Type (0, 0), BuildingBlock: UVAHIK_clean_linker_0, # of connection points: 2
#     Edge 52, Type (0, 0), BuildingBlock: UVAHIK_clean_linker_0, # of connection points: 2
#     Edge 53, Type (0, 0), BuildingBlock: UVAHIK_clean_linker_0, # of connection points: 2
#     Edge 54, Type (0, 0), BuildingBlock: UVAHIK_clean_linker_0, # of connection points: 2
#     Edge 55, Type (0, 0), BuildingBlock: UVAHIK_clean_linker_0, # of connection points: 2
# Relax obj value: 0.041
# Max RMSD: 0.069
# Mean RMSD: 0.069
data_MOF--net-zfg--node1-BEQFEK_clean_sbu_0--edge1-UVAHIK_clean_linker_0
_symmetry_space_group_name_H-M    P1
_symmetry_Int_Tables_number       1
_symmetry_cell_setting            triclinic
loop_
_symmetry_equiv_pos_as_xyz
'x, y, z'
_cell_length_a     52.984718
_cell_length_b     52.998658
_cell_length_c     75.057826
_cell_angle_alpha  89.995977
_cell_angle_beta   89.985203
_cell_angle_gamma 89.996167
loop_
_atom_site_label
_atom_site_type_symbol
_atom_site_fract_x
_atom_site_fract_y
_atom_site_fract_z
_atom_type_partial_charge
Co0 Co 0.083 0.24323 0.12778 0.0
Co1 Co 0.05374 0.2944 0.12745 0.0
C2 C 0.0829 0.27788 0.09571 0.0
O3 O 0.08922 0.25753 0.10362 0.0
O4 O 0.06934 0.29449 0.10344 0.0
C5 C 0.12526 0.20912 0.12389 0.0
O6 O 0.13565 0.22735 0.11458 0.0
C7 C 0.03858 0.34813 0.12548 0.0
C8 C 0.00547 0.34756 0.14343 0.0
C9 C 0.01978 0.36329 0.13271 0.0
N10 N 0.03542 0.32457 0.13172 0.0
N11 N 0.0155 0.32436 0.14232 0.0
C12 C 0.05999 0.35594 0.11373 0.0
H13 H 0.07636 0.34317 0.11569 0.0
H14 H 0.06563 0.37572 0.11653 0.0
H15 H 0.05393 0.35459 0.09961 0.0
C16 C 0.1068 0.2673 0.15952 0.0
N17 N 0.09052 0.26738 0.14572 0.0
N18 N 0.07817 0.28892 0.14557 0.0
C19 C 0.08608 0.30322 0.15933 0.0
C20 C 0.10458 0.29005 0.16863 0.0
C21 C 0.12499 0.24633 0.16318 0.0
H22 H 0.13722 0.24361 0.15135 0.0
H23 H 0.13718 0.2503 0.17484 0.0
H24 H 0.11439 0.22855 0.1654 0.0
O25 O 0.04742 0.23161 0.12951 0.0
O26 O 0.02756 0.26824 0.12809 0.0
H27 H 0.08245 0.3359 0.1767 0.0
H28 H 0.0786 0.34188 0.15311 0.0
C29 C 0.07488 0.32829 0.16404 0.0
H30 H 0.05417 0.32628 0.16548 0.0
H31 H 0.00889 0.30836 0.14894 0.0
O32 O 0.10363 0.21248 0.1308 0.0
C33 C 0.02709 0.24434 0.12909 0.0
Co34 Co 0.74943 0.08253 0.12892 0.0
Co35 Co 0.69753 0.05466 0.12888 0.0
C36 C 0.71507 0.08167 0.09658 0.0
O37 O 0.73537 0.08801 0.10456 0.0
O38 O 0.69809 0.06874 0.10444 0.0
C39 C 0.78332 0.12473 0.12506 0.0
O40 O 0.76434 0.13566 0.11685 0.0
C41 C 0.64381 0.03953 0.12635 0.0
C42 C 0.64283 0.00975 0.14698 0.0
C43 C 0.62802 0.02206 0.13452 0.0
N44 N 0.66686 0.03748 0.13371 0.0
N45 N 0.66613 0.01958 0.14595 0.0
C46 C 0.63702 0.05883 0.11263 0.0
H47 H 0.64937 0.07563 0.11396 0.0
H48 H 0.61696 0.06454 0.11396 0.0
H49 H 0.63993 0.05065 0.09917 0.0
C50 C 0.72624 0.10728 0.16058 0.0
N51 N 0.72549 0.09121 0.14667 0.0
N52 N 0.70326 0.08017 0.14622 0.0
C53 C 0.68893 0.0893 0.1596 0.0
C54 C 0.70305 0.10671 0.16916 0.0
C55 C 0.74864 0.1231 0.16532 0.0
H56 H 0.76588 0.11122 0.1654 0.0
H57 H 0.75112 0.13791 0.15504 0.0
H58 H 0.7463 0.13234 0.17848 0.0
O59 O 0.76019 0.04704 0.1315 0.0
O60 O 0.7232 0.02775 0.13059 0.0
H61 H 0.66341 0.06066 0.16825 0.0
H62 H 0.65367 0.0921 0.17418 0.0
C63 C 0.66271 0.08053 0.16366 0.0
H64 H 0.6511 0.08129 0.15138 0.0
H65 H 0.68159 0.01416 0.15366 0.0
O66 O 0.78051 0.1027 0.1314 0.0
C67 C 0.74712 0.02694 0.13169 0.0
Co68 Co 0.91133 0.75066 0.12858 0.0
Co69 Co 0.93711 0.69769 0.12844 0.0
C70 C 0.91069 0.71652 0.0962 0.0
O71 O 0.90505 0.73699 0.10421 0.0
O72 O 0.92308 0.69914 0.10402 0.0
C73 C 0.86953 0.78489 0.12568 0.0
O74 O 0.85795 0.76559 0.11834 0.0
C75 C 0.94827 0.64329 0.1254 0.0
C76 C 0.97774 0.63925 0.14607 0.0
C77 C 0.96407 0.62587 0.13352 0.0
N78 N 0.95246 0.66595 0.13287 0.0
N79 N 0.97025 0.66343 0.14508 0.0
C80 C 0.92833 0.63832 0.11175 0.0
H81 H 0.91231 0.65156 0.11358 0.0
H82 H 0.92146 0.61858 0.11261 0.0
H83 H 0.93641 0.64145 0.09829 0.0
C84 C 0.88633 0.72864 0.16058 0.0
N85 N 0.90185 0.72708 0.14639 0.0
N86 N 0.9119 0.70438 0.14586 0.0
C87 C 0.90257 0.69057 0.15945 0.0
C88 C 0.88614 0.70551 0.16924 0.0
C89 C 0.87206 0.75188 0.16575 0.0
H90 H 0.88466 0.76856 0.16499 0.0
H91 H 0.85633 0.75473 0.15621 0.0
H92 H 0.86404 0.75032 0.17935 0.0
O93 O 0.94733 0.75988 0.13105 0.0
O94 O 0.96518 0.72212 0.13033 0.0
H95 H 0.93042 0.66419 0.16812 0.0
H96 H 0.89873 0.65565 0.17428 0.0
C97 C 0.91049 0.66413 0.16363 0.0
H98 H 0.90914 0.65238 0.15145 0.0
H99 H 0.97701 0.67821 0.15292 0.0
O100 O 0.89207 0.7823 0.13113 0.0
C101 C 0.96691 0.746 0.13135 0.0
Co102 Co 0.24241 0.91003 0.12862 0.0
Co103 Co 0.29445 0.93764 0.12728 0.0
C104 C 0.27561 0.90964 0.09575 0.0
O105 O 0.25551 0.90367 0.1041 0.0
O106 O 0.29286 0.92265 0.10318 0.0
C107 C 0.20987 0.86674 0.12713 0.0
O108 O 0.22972 0.85543 0.12032 0.0
C109 C 0.34853 0.95014 0.12358 0.0
C110 C 0.35198 0.98061 0.14357 0.0
C111 C 0.36565 0.96663 0.13134 0.0
N112 N 0.32578 0.95423 0.13097 0.0
N113 N 0.32794 0.97264 0.14274 0.0
C114 C 0.35395 0.92945 0.11058 0.0
H115 H 0.34064 0.91354 0.1126 0.0
H116 H 0.37366 0.92263 0.11198 0.0
H117 H 0.35136 0.93679 0.09686 0.0
C118 C 0.26633 0.88671 0.16065 0.0
N119 N 0.26687 0.90181 0.14618 0.0
N120 N 0.28899 0.91306 0.14533 0.0
C121 C 0.30331 0.90525 0.1591 0.0
C122 C 0.28941 0.88843 0.16933 0.0
C123 C 0.24353 0.87251 0.16679 0.0
H124 H 0.22636 0.88413 0.16476 0.0
H125 H 0.24163 0.85505 0.15875 0.0
H126 H 0.24503 0.86722 0.18105 0.0
O127 O 0.23203 0.94583 0.1308 0.0
O128 O 0.26915 0.96485 0.12894 0.0
H129 H 0.33011 0.93307 0.16724 0.0
H130 H 0.33959 0.90108 0.1721 0.0
C131 C 0.32999 0.91338 0.16224 0.0
H132 H 0.34064 0.91271 0.14955 0.0
H133 H 0.31305 0.9794 0.15049 0.0
O134 O 0.2115 0.88973 0.13177 0.0
C135 C 0.24528 0.96585 0.13042 0.0
Co136 Co 0.58093 0.25096 0.37384 0.0
Co137 Co 0.55587 0.19764 0.37464 0.0
C138 C 0.58243 0.21737 0.40651 0.0
O139 O 0.58761 0.23779 0.39828 0.0
O140 O 0.57026 0.19965 0.39892 0.0
C141 C 0.62268 0.28514 0.37618 0.0
O142 O 0.6343 0.26571 0.38333 0.0
C143 C 0.54607 0.14299 0.37791 0.0
C144 C 0.51564 0.13834 0.35802 0.0
C145 C 0.5303 0.12522 0.37015 0.0
N146 N 0.54092 0.16559 0.37063 0.0
N147 N 0.52255 0.1627 0.3589 0.0
C148 C 0.56688 0.13846 0.39098 0.0
H149 H 0.55938 0.14087 0.40468 0.0
H150 H 0.58227 0.15236 0.38895 0.0
H151 H 0.57446 0.11902 0.38966 0.0
C152 C 0.60566 0.22874 0.3418 0.0
N153 N 0.59044 0.22719 0.35616 0.0
N154 N 0.58069 0.20438 0.35695 0.0
C155 C 0.58992 0.19049 0.34337 0.0
C156 C 0.60598 0.20548 0.33332 0.0
C157 C 0.6195 0.25208 0.3363 0.0
H158 H 0.60676 0.26864 0.33722 0.0
H159 H 0.63554 0.25515 0.34553 0.0
H160 H 0.62705 0.2505 0.32256 0.0
O161 O 0.54477 0.2597 0.3715 0.0
O162 O 0.52746 0.22171 0.37278 0.0
H163 H 0.56205 0.16362 0.33552 0.0
H164 H 0.59352 0.15558 0.32848 0.0
C165 C 0.58222 0.16391 0.33944 0.0
H166 H 0.58445 0.15223 0.35159 0.0
H167 H 0.51504 0.17733 0.35127 0.0
O168 O 0.59999 0.28272 0.371 0.0
C169 C 0.52538 0.24554 0.37153 0.0
Co170 Co 0.74349 0.58215 0.37396 0.0
Co171 Co 0.79564 0.55477 0.37323 0.0
C172 C 0.778 0.58104 0.406 0.0
O173 O 0.75751 0.58753 0.39835 0.0
O174 O 0.79478 0.56836 0.39778 0.0
C175 C 0.70941 0.62408 0.37786 0.0
O176 O 0.7286 0.63527 0.38563 0.0
C177 C 0.85001 0.5436 0.37572 0.0
C178 C 0.85355 0.51312 0.35575 0.0
C179 C 0.86725 0.52742 0.36778 0.0
N180 N 0.82716 0.53902 0.36867 0.0
N181 N 0.82937 0.52064 0.35687 0.0
C182 C 0.85531 0.56429 0.38874 0.0
H183 H 0.84154 0.57988 0.38702 0.0
H184 H 0.87479 0.57161 0.38705 0.0
H185 H 0.85337 0.55675 0.40246 0.0
C186 C 0.76592 0.60775 0.3423 0.0
N187 N 0.76709 0.59149 0.3561 0.0
N188 N 0.78939 0.58055 0.35618 0.0
C189 C 0.80332 0.58994 0.34268 0.0
C190 C 0.7889 0.60742 0.33344 0.0
C191 C 0.74327 0.62335 0.3378 0.0
H192 H 0.72611 0.61138 0.33806 0.0
H193 H 0.74104 0.63832 0.348 0.0
H194 H 0.74515 0.63242 0.32455 0.0
O195 O 0.73342 0.54647 0.37114 0.0
O196 O 0.77055 0.5273 0.37116 0.0
H197 H 0.82886 0.56112 0.3343 0.0
H198 H 0.83764 0.59226 0.32697 0.0
C199 C 0.82943 0.5813 0.33814 0.0
H200 H 0.84173 0.58318 0.35001 0.0
H201 H 0.81441 0.5135 0.34939 0.0
O202 O 0.7121 0.6019 0.37176 0.0
C203 C 0.74659 0.52644 0.3704 0.0
Co204 Co 0.41059 0.74324 0.37464 0.0
Co205 Co 0.43902 0.79486 0.37488 0.0
C206 C 0.40993 0.77838 0.40656 0.0
O207 O 0.40385 0.75792 0.39867 0.0
O208 O 0.42342 0.79505 0.39885 0.0
C209 C 0.36749 0.70962 0.37629 0.0
O210 O 0.35512 0.72904 0.38278 0.0
C211 C 0.4556 0.84824 0.37737 0.0
C212 C 0.48525 0.84831 0.35662 0.0
C213 C 0.47344 0.86351 0.36909 0.0
N214 N 0.45698 0.82511 0.37007 0.0
N215 N 0.47481 0.82529 0.35776 0.0
C216 C 0.43651 0.85567 0.39108 0.0
H217 H 0.41932 0.84387 0.38975 0.0
H218 H 0.43142 0.87589 0.38974 0.0
H219 H 0.44458 0.85252 0.40454 0.0
C220 C 0.38819 0.76587 0.3418 0.0
N221 N 0.40316 0.76682 0.35633 0.0
N222 N 0.41473 0.78879 0.35675 0.0
C223 C 0.40726 0.80262 0.34265 0.0
C224 C 0.39034 0.78853 0.33263 0.0
C225 C 0.37353 0.74309 0.33621 0.0
H226 H 0.38488 0.72582 0.33854 0.0
H227 H 0.35613 0.7418 0.34438 0.0
H228 H 0.36814 0.7441 0.32195 0.0
O229 O 0.44619 0.73213 0.37318 0.0
O230 O 0.46569 0.76898 0.37436 0.0
H231 H 0.43496 0.82881 0.3334 0.0
H232 H 0.40285 0.83875 0.32956 0.0
C233 C 0.41564 0.82912 0.33908 0.0
H234 H 0.41604 0.83995 0.3517 0.0
H235 H 0.47975 0.80966 0.35007 0.0
O236 O 0.3905 0.71215 0.37191 0.0
C237 C 0.46639 0.74506 0.3735 0.0
Co238 Co 0.25026 0.40969 0.37367 0.0
Co239 Co 0.19897 0.43878 0.37387 0.0
C240 C 0.21568 0.41065 0.4059 0.0
O241 O 0.23594 0.40416 0.39794 0.0
O242 O 0.19895 0.42397 0.39811 0.0
C243 C 0.28218 0.3657 0.3762 0.0
O244 O 0.26232 0.35481 0.38333 0.0
C245 C 0.14555 0.45516 0.37609 0.0
C246 C 0.14574 0.48547 0.35584 0.0
C247 C 0.13032 0.4731 0.3679 0.0
N248 N 0.16885 0.45698 0.36912 0.0
N249 N 0.16883 0.47523 0.35712 0.0
C250 C 0.13793 0.43552 0.38935 0.0
H251 H 0.15016 0.41862 0.38805 0.0
H252 H 0.11788 0.43008 0.38749 0.0
H253 H 0.14028 0.44326 0.40299 0.0
C254 C 0.22673 0.38649 0.34147 0.0
N255 N 0.22616 0.40191 0.35577 0.0
N256 N 0.20442 0.41393 0.35606 0.0
C257 C 0.19047 0.40648 0.34201 0.0
C258 C 0.20414 0.38892 0.33229 0.0
C259 C 0.24914 0.37115 0.33603 0.0
H260 H 0.26661 0.38244 0.33764 0.0
H261 H 0.25054 0.35439 0.34483 0.0
H262 H 0.24755 0.36466 0.32202 0.0
O263 O 0.26196 0.44514 0.37144 0.0
O264 O 0.22524 0.46493 0.37267 0.0
H265 H 0.16577 0.43556 0.33285 0.0
H266 H 0.155 0.40406 0.32778 0.0
C267 C 0.1645 0.41595 0.33793 0.0
H268 H 0.15298 0.41605 0.35026 0.0
H269 H 0.18461 0.48052 0.34969 0.0
O270 O 0.28069 0.38849 0.3711 0.0
C271 C 0.24915 0.46544 0.37156 0.0
Co272 Co 0.90931 0.75126 0.87396 0.0
Co273 Co 0.9373 0.69939 0.87397 0.0
C274 C 0.90999 0.71661 0.9062 0.0
O275 O 0.90371 0.73694 0.89824 0.0
O276 O 0.92301 0.69968 0.89836 0.0
C277 C 0.86645 0.78469 0.87709 0.0
O278 O 0.85508 0.7654 0.88462 0.0
C279 C 0.95295 0.6457 0.87615 0.0
C280 C 0.98237 0.64525 0.85525 0.0
C281 C 0.97038 0.63016 0.8677 0.0
N282 N 0.95471 0.66888 0.86896 0.0
N283 N 0.97241 0.66846 0.85656 0.0
C284 C 0.93393 0.63854 0.88998 0.0
H285 H 0.91701 0.65079 0.8889 0.0
H286 H 0.92834 0.61847 0.88853 0.0
H287 H 0.94232 0.64127 0.90339 0.0
C288 C 0.88513 0.72833 0.842 0.0
N289 N 0.90093 0.72747 0.85606 0.0
N290 N 0.91191 0.7052 0.85655 0.0
C291 C 0.90294 0.69096 0.84308 0.0
C292 C 0.88577 0.70518 0.8334 0.0
C293 C 0.86962 0.75084 0.83703 0.0
H294 H 0.88141 0.76811 0.83765 0.0
H295 H 0.85401 0.75292 0.84677 0.0
H296 H 0.86137 0.74888 0.82352 0.0
O297 O 0.94479 0.76219 0.87157 0.0
O298 O 0.96412 0.72522 0.87249 0.0
H299 H 0.93132 0.66529 0.83422 0.0
H300 H 0.89969 0.65558 0.82874 0.0
C301 C 0.91156 0.66468 0.83907 0.0
H302 H 0.91107 0.6532 0.85142 0.0
H303 H 0.97758 0.68407 0.84891 0.0
O304 O 0.88894 0.78222 0.87152 0.0
C305 C 0.96491 0.74914 0.87146 0.0
Co306 Co 0.24183 0.91259 0.87312 0.0
Co307 Co 0.29486 0.93829 0.87406 0.0
C308 C 0.27517 0.91156 0.9059 0.0
O309 O 0.25486 0.90612 0.89763 0.0
O310 O 0.29281 0.92393 0.89836 0.0
C311 C 0.20743 0.87097 0.87583 0.0
O312 O 0.22655 0.85953 0.88352 0.0
C313 C 0.34944 0.94863 0.87744 0.0
C314 C 0.35383 0.97913 0.85757 0.0
C315 C 0.36708 0.96459 0.8697 0.0
N316 N 0.3268 0.95356 0.87015 0.0
N317 N 0.32953 0.97197 0.85843 0.0
C318 C 0.35416 0.92785 0.8905 0.0
H319 H 0.34031 0.9124 0.88854 0.0
H320 H 0.37363 0.92037 0.88911 0.0
H321 H 0.35183 0.93536 0.90421 0.0
C322 C 0.26483 0.88746 0.8415 0.0
N323 N 0.26589 0.90318 0.85561 0.0
N324 N 0.28856 0.91328 0.85644 0.0
C325 C 0.30282 0.90384 0.84313 0.0
C326 C 0.28825 0.88723 0.83323 0.0
C327 C 0.2419 0.8728 0.83621 0.0
H328 H 0.23897 0.85728 0.8459 0.0
H329 H 0.24392 0.86449 0.82273 0.0
H330 H 0.22506 0.88523 0.8366 0.0
O331 O 0.23275 0.94863 0.87067 0.0
O332 O 0.2705 0.96643 0.87207 0.0
H333 H 0.32978 0.93182 0.83562 0.0
H334 H 0.33797 0.90046 0.82846 0.0
C335 C 0.32946 0.91162 0.83942 0.0
H336 H 0.34096 0.90926 0.85164 0.0
H337 H 0.31484 0.97934 0.85078 0.0
O338 O 0.21018 0.89339 0.87017 0.0
C339 C 0.24665 0.96819 0.87071 0.0
Co340 Co 0.08262 0.24399 0.87378 0.0
Co341 Co 0.05546 0.29633 0.87404 0.0
C342 C 0.08291 0.27821 0.90608 0.0
O343 O 0.08894 0.25786 0.89807 0.0
O344 O 0.06997 0.29524 0.89833 0.0
C345 C 0.12522 0.21075 0.87671 0.0
O346 O 0.13614 0.23025 0.8843 0.0
C347 C 0.04407 0.35071 0.87682 0.0
C348 C 0.01298 0.35404 0.85731 0.0
C349 C 0.02756 0.36785 0.8691 0.0
N350 N 0.0394 0.32782 0.86985 0.0
N351 N 0.02065 0.32992 0.85835 0.0
C352 C 0.06511 0.35613 0.88954 0.0
H353 H 0.08076 0.3425 0.88753 0.0
H354 H 0.07221 0.37568 0.8878 0.0
H355 H 0.05801 0.35401 0.90337 0.0
C356 C 0.10672 0.26664 0.84167 0.0
N357 N 0.09123 0.26781 0.8559 0.0
N358 N 0.08051 0.2902 0.85641 0.0
C359 C 0.08928 0.30419 0.84273 0.0
C360 C 0.10613 0.28971 0.83294 0.0
C361 C 0.12182 0.24388 0.83662 0.0
H362 H 0.10971 0.22683 0.83719 0.0
H363 H 0.13739 0.24145 0.84633 0.0
H364 H 0.13011 0.24574 0.82311 0.0
O365 O 0.04678 0.23393 0.8716 0.0
O366 O 0.02796 0.27122 0.87241 0.0
H367 H 0.06019 0.32978 0.83493 0.0
H368 H 0.0911 0.33869 0.82721 0.0
C369 C 0.08048 0.33034 0.83849 0.0
H370 H 0.0827 0.34249 0.8504 0.0
H371 H 0.01337 0.31491 0.85097 0.0
O372 O 0.10271 0.21282 0.87108 0.0
C373 C 0.02684 0.2473 0.87145 0.0
Co374 Co 0.74993 0.08396 0.87436 0.0
Co375 Co 0.69763 0.05669 0.87412 0.0
C376 C 0.71497 0.08356 0.90647 0.0
O377 O 0.73546 0.08963 0.89861 0.0
O378 O 0.69792 0.07085 0.89852 0.0
C379 C 0.78363 0.12659 0.8775 0.0
O380 O 0.76426 0.13809 0.88482 0.0
C381 C 0.64391 0.04109 0.87638 0.0
C382 C 0.64327 0.01209 0.8552 0.0
C383 C 0.62831 0.02374 0.8679 0.0
N384 N 0.66699 0.03959 0.86898 0.0
N385 N 0.66644 0.02215 0.85641 0.0
C386 C 0.63692 0.05974 0.89049 0.0
H387 H 0.64899 0.07679 0.88944 0.0
H388 H 0.61676 0.06518 0.88936 0.0
H389 H 0.64009 0.0511 0.90378 0.0
C390 C 0.72765 0.10826 0.84218 0.0
N391 N 0.72636 0.09267 0.85635 0.0
N392 N 0.70393 0.08202 0.85675 0.0
C393 C 0.69 0.09102 0.84313 0.0
C394 C 0.70459 0.10786 0.83342 0.0
C395 C 0.75051 0.12326 0.83722 0.0
H396 H 0.76754 0.11112 0.83797 0.0
H397 H 0.75284 0.13892 0.84687 0.0
H398 H 0.74884 0.1314 0.82365 0.0
O399 O 0.76042 0.04832 0.87199 0.0
O400 O 0.72313 0.0296 0.87274 0.0
H401 H 0.6644 0.06289 0.8338 0.0
H402 H 0.65473 0.09462 0.82868 0.0
C403 C 0.66374 0.08251 0.8389 0.0
H404 H 0.65214 0.08269 0.8512 0.0
H405 H 0.68197 0.01717 0.84861 0.0
O406 O 0.78117 0.10404 0.87204 0.0
C407 C 0.74704 0.02841 0.87182 0.0
Co408 Co 0.41018 0.74422 0.62802 0.0
Co409 Co 0.43712 0.79668 0.62808 0.0
C410 C 0.40929 0.77958 0.59611 0.0
O411 O 0.40367 0.75896 0.60396 0.0
O412 O 0.42215 0.79664 0.60392 0.0
C413 C 0.36749 0.71065 0.62525 0.0
O414 O 0.35591 0.73015 0.61817 0.0
C415 C 0.45259 0.85044 0.62596 0.0
C416 C 0.48194 0.85091 0.6469 0.0
C417 C 0.47003 0.86598 0.6344 0.0
N418 N 0.45427 0.82729 0.6332 0.0
N419 N 0.47192 0.82772 0.64563 0.0
C420 C 0.4337 0.85757 0.61204 0.0
H421 H 0.41665 0.84551 0.6132 0.0
H422 H 0.4283 0.87772 0.6133 0.0
H423 H 0.44211 0.8545 0.59867 0.0
C424 C 0.3866 0.76612 0.66061 0.0
N425 N 0.4019 0.76755 0.64629 0.0
N426 N 0.41237 0.79006 0.64581 0.0
C427 C 0.40355 0.80389 0.65953 0.0
C428 C 0.38701 0.78915 0.66939 0.0
C429 C 0.37172 0.7432 0.66562 0.0
H430 H 0.3838 0.72617 0.66457 0.0
H431 H 0.35577 0.74104 0.65618 0.0
H432 H 0.36396 0.74469 0.67931 0.0
O433 O 0.44596 0.73384 0.62977 0.0
O434 O 0.46436 0.77128 0.62881 0.0
H435 H 0.43157 0.82983 0.66854 0.0
H436 H 0.39985 0.83913 0.67399 0.0
C437 C 0.41184 0.83024 0.66364 0.0
H438 H 0.41126 0.84181 0.65134 0.0
H439 H 0.47706 0.81212 0.65329 0.0
O440 O 0.39019 0.71296 0.63044 0.0
C441 C 0.46577 0.74738 0.62962 0.0
Co442 Co 0.25 0.412 0.62834 0.0
Co443 Co 0.19753 0.43891 0.62801 0.0
C444 C 0.21608 0.41195 0.59588 0.0
O445 O 0.23638 0.40589 0.60394 0.0
O446 O 0.19893 0.42473 0.60364 0.0
C447 C 0.2838 0.36971 0.62551 0.0
O448 O 0.26451 0.35841 0.61793 0.0
C449 C 0.14306 0.44992 0.62522 0.0
C450 C 0.13946 0.48069 0.64497 0.0
C451 C 0.12577 0.46614 0.63309 0.0
N452 N 0.16592 0.45471 0.63221 0.0
N453 N 0.16366 0.47328 0.64385 0.0
C454 C 0.13781 0.429 0.61238 0.0
H455 H 0.15166 0.4135 0.61421 0.0
H456 H 0.11837 0.42163 0.61415 0.0
H457 H 0.13972 0.43632 0.59859 0.0
C458 C 0.22712 0.38731 0.66017 0.0
N459 N 0.22609 0.40306 0.64607 0.0
N460 N 0.20363 0.41365 0.6455 0.0
C461 C 0.18947 0.4045 0.65896 0.0
C462 C 0.2039 0.38757 0.66869 0.0
C463 C 0.24988 0.37224 0.66527 0.0
H464 H 0.26694 0.38434 0.66469 0.0
H465 H 0.25232 0.35661 0.6556 0.0
H466 H 0.24796 0.36405 0.6788 0.0
O467 O 0.25982 0.44786 0.63075 0.0
O468 O 0.22246 0.46655 0.62993 0.0
H469 H 0.16326 0.43307 0.66671 0.0
H470 H 0.15467 0.40191 0.67411 0.0
C471 C 0.1631 0.41283 0.663 0.0
H472 H 0.15123 0.4106 0.65094 0.0
H473 H 0.17861 0.48057 0.65128 0.0
O474 O 0.28135 0.39221 0.63106 0.0
C475 C 0.24638 0.46774 0.63099 0.0
Co476 Co 0.58217 0.25204 0.6291 0.0
Co477 Co 0.55558 0.19946 0.62836 0.0
C478 C 0.58266 0.21858 0.59642 0.0
O479 O 0.58852 0.23882 0.60463 0.0
O480 O 0.56996 0.20124 0.60404 0.0
C481 C 0.62404 0.28636 0.62651 0.0
O482 O 0.63563 0.26731 0.61885 0.0
C483 C 0.54478 0.14498 0.62512 0.0
C484 C 0.514 0.14098 0.64483 0.0
C485 C 0.5286 0.12753 0.63283 0.0
N486 N 0.53994 0.16771 0.6323 0.0
N487 N 0.52136 0.16521 0.64392 0.0
C488 C 0.56571 0.14001 0.61222 0.0
H489 H 0.58121 0.15381 0.61419 0.0
H490 H 0.57308 0.12053 0.61378 0.0
H491 H 0.55839 0.1422 0.59846 0.0
C492 C 0.6069 0.22892 0.6608 0.0
N493 N 0.59119 0.22797 0.64669 0.0
N494 N 0.58069 0.20549 0.64597 0.0
C495 C 0.58986 0.19122 0.65937 0.0
C496 C 0.60671 0.20561 0.66921 0.0
C497 C 0.62193 0.25165 0.666 0.0
H498 H 0.60973 0.26865 0.66564 0.0
H499 H 0.63741 0.25434 0.65625 0.0
H500 H 0.63031 0.24956 0.67946 0.0
O501 O 0.54627 0.26157 0.63149 0.0
O502 O 0.52772 0.22418 0.63033 0.0
H503 H 0.56134 0.16484 0.66691 0.0
H504 H 0.59249 0.15627 0.67433 0.0
C505 C 0.5816 0.16478 0.66324 0.0
H506 H 0.58392 0.15306 0.65112 0.0
H507 H 0.51401 0.18001 0.65147 0.0
O508 O 0.60158 0.28353 0.63206 0.0
C509 C 0.52643 0.24807 0.63156 0.0
Co510 Co 0.7427 0.5848 0.62779 0.0
Co511 Co 0.79456 0.5568 0.62893 0.0
C512 C 0.77817 0.58312 0.59605 0.0
O513 O 0.75754 0.58964 0.60355 0.0
O514 O 0.79484 0.57045 0.60441 0.0
C515 C 0.70945 0.6276 0.62366 0.0
O516 O 0.72892 0.63857 0.61607 0.0
C517 C 0.8482 0.54108 0.62718 0.0
C518 C 0.84851 0.51197 0.64829 0.0
C519 C 0.86366 0.52369 0.63574 0.0
N520 N 0.82501 0.53954 0.63438 0.0
N521 N 0.82535 0.52204 0.64692 0.0
C522 C 0.85543 0.55982 0.61318 0.0
H523 H 0.84335 0.57686 0.61419 0.0
H524 H 0.87557 0.56526 0.61451 0.0
H525 H 0.85252 0.55126 0.59985 0.0
C526 C 0.76477 0.60965 0.65985 0.0
N527 N 0.76609 0.59368 0.6459 0.0
N528 N 0.78833 0.58261 0.64591 0.0
C529 C 0.80209 0.59166 0.65959 0.0
C530 C 0.7876 0.60902 0.6689 0.0
C531 C 0.74205 0.62513 0.66439 0.0
H532 H 0.72489 0.61317 0.66384 0.0
H533 H 0.73997 0.64037 0.65436 0.0
H534 H 0.74372 0.63386 0.67777 0.0
O535 O 0.73169 0.54938 0.63057 0.0
O536 O 0.7687 0.53007 0.63046 0.0
H537 H 0.82686 0.56305 0.66931 0.0
H538 H 0.83688 0.59459 0.67469 0.0
C539 C 0.82803 0.58268 0.66428 0.0
H540 H 0.84008 0.58272 0.65219 0.0
H541 H 0.8097 0.51703 0.65458 0.0
O542 O 0.71171 0.6053 0.62965 0.0
C543 C 0.74476 0.52928 0.63117 0.0
C544 C 0.10424 0.26297 0.93391 0.0
C545 C 0.08965 0.28132 0.92514 0.0
C546 C 0.10843 0.26451 0.95226 0.0
C547 C 0.10363 0.30705 0.99158 0.0
H548 H 0.09389 0.24426 0.01717 0.0
C549 C 0.08028 0.30175 0.06685 0.0
C550 C 0.08987 0.28133 0.07672 0.0
C551 C 0.08444 0.30333 0.04848 0.0
C552 C 0.09713 0.26191 0.01027 0.0
H553 H 0.06899 0.31633 0.92871 0.0
H554 H 0.07597 0.31877 0.96072 0.0
H555 H 0.09376 0.24418 0.98483 0.0
H556 H 0.11269 0.24737 0.07514 0.0
H557 H 0.12015 0.25033 0.0432 0.0
H558 H 0.10637 0.32481 0.01717 0.0
C559 C 0.0844 0.30332 0.9534 0.0
C560 C 0.09706 0.26186 0.99167 0.0
C561 C 0.08027 0.30183 0.93503 0.0
C562 C 0.10477 0.26322 0.06794 0.0
C563 C 0.10896 0.26483 0.0496 0.0
C564 C 0.10368 0.3071 0.01023 0.0
C565 C 0.09807 0.28438 0.9623 0.0
C566 C 0.10005 0.28445 0.98208 0.0
C567 C 0.09832 0.28455 0.03957 0.0
C568 C 0.10017 0.28454 0.01979 0.0
H569 H 0.11198 0.24705 0.9267 0.0
H570 H 0.11946 0.24987 0.95864 0.0
H571 H 0.1063 0.32473 0.9846 0.0
H572 H 0.06877 0.31608 0.07317 0.0
H573 H 0.07582 0.31868 0.04114 0.0
C574 C 0.69122 0.08032 0.93536 0.0
C575 C 0.71182 0.08982 0.92561 0.0
C576 C 0.68979 0.08384 0.9538 0.0
C577 C 0.73146 0.0948 0.99223 0.0
H578 H 0.66875 0.10463 0.01796 0.0
C579 C 0.73045 0.1024 0.06857 0.0
C580 C 0.712 0.08806 0.07746 0.0
C581 C 0.72897 0.10631 0.05019 0.0
C582 C 0.68639 0.10176 0.01096 0.0
H583 H 0.7463 0.11177 0.92752 0.0
H584 H 0.7436 0.11818 0.95958 0.0
H585 H 0.66869 0.10511 0.98539 0.0
H586 H 0.67689 0.06753 0.07403 0.0
H587 H 0.6745 0.0741 0.04194 0.0
H588 H 0.74913 0.09094 0.01767 0.0
C589 C 0.72884 0.10751 0.95303 0.0
C590 C 0.68636 0.10203 0.99231 0.0
C591 C 0.73031 0.10395 0.93462 0.0
C592 C 0.69146 0.07863 0.06762 0.0
C593 C 0.69001 0.08251 0.04922 0.0
C594 C 0.73149 0.09454 0.01083 0.0
C595 C 0.70888 0.09701 0.96291 0.0
C596 C 0.70888 0.09835 0.98272 0.0
C597 C 0.70903 0.09595 0.04022 0.0
C598 C 0.70895 0.09781 0.02044 0.0
H599 H 0.67661 0.06938 0.92886 0.0
H600 H 0.67426 0.07533 0.961 0.0
H601 H 0.74907 0.0914 0.98531 0.0
H602 H 0.74641 0.11017 0.07573 0.0
H603 H 0.74368 0.11717 0.04373 0.0
C604 C 0.91291 0.69295 0.93515 0.0
C605 C 0.90352 0.71351 0.92531 0.0
C606 C 0.90908 0.69155 0.95356 0.0
C607 C 0.89771 0.73325 0.99187 0.0
H608 H 0.8871 0.67067 0.01756 0.0
C609 C 0.89016 0.73237 0.06823 0.0
C610 C 0.90417 0.71364 0.07708 0.0
C611 C 0.88616 0.73097 0.04986 0.0
C612 C 0.89019 0.68828 0.01057 0.0
H613 H 0.88149 0.74796 0.92704 0.0
H614 H 0.87462 0.74533 0.95905 0.0
H615 H 0.887 0.67058 0.98499 0.0
H616 H 0.92401 0.67815 0.0736 0.0
H617 H 0.91735 0.67593 0.04154 0.0
H618 H 0.90149 0.75092 0.0173 0.0
C619 C 0.88538 0.73057 0.95259 0.0
C620 C 0.89013 0.68823 0.99192 0.0
C621 C 0.88923 0.73199 0.9342 0.0
C622 C 0.91317 0.69294 0.06723 0.0
C623 C 0.90923 0.69158 0.04883 0.0
C624 C 0.8978 0.73331 0.01046 0.0
C625 C 0.89575 0.71065 0.96256 0.0
C626 C 0.89411 0.71069 0.98235 0.0
C627 C 0.89612 0.71085 0.03986 0.0
C628 C 0.89427 0.71081 0.02007 0.0
H629 H 0.92396 0.67834 0.92874 0.0
H630 H 0.91749 0.67605 0.96085 0.0
H631 H 0.90132 0.75082 0.98495 0.0
H632 H 0.88273 0.74846 0.07542 0.0
H633 H 0.87556 0.74588 0.04343 0.0
C634 C 0.25827 0.89133 0.93368 0.0
C635 C 0.27759 0.90474 0.925 0.0
C636 C 0.25938 0.887 0.95203 0.0
C637 C 0.30205 0.88848 0.99135 0.0
H638 H 0.24011 0.90217 0.01712 0.0
C639 C 0.29895 0.91129 0.06665 0.0
C640 C 0.2781 0.9029 0.07664 0.0
C641 C 0.29996 0.90732 0.04825 0.0
C642 C 0.25748 0.89782 0.01016 0.0
H643 H 0.31379 0.92316 0.92875 0.0
H644 H 0.31554 0.9159 0.96075 0.0
H645 H 0.23997 0.90269 0.98475 0.0
H646 H 0.24261 0.88254 0.07519 0.0
H647 H 0.24454 0.87543 0.04315 0.0
H648 H 0.31965 0.88421 0.01688 0.0
C649 C 0.29962 0.90851 0.95336 0.0
C650 C 0.2574 0.89812 0.99156 0.0
C651 C 0.29854 0.91282 0.93499 0.0
C652 C 0.25885 0.88946 0.06791 0.0
C653 C 0.25988 0.88549 0.04951 0.0
C654 C 0.30213 0.88819 0.01 0.0
C655 C 0.27982 0.89599 0.96215 0.0
C656 C 0.27973 0.89374 0.98192 0.0
C657 C 0.28017 0.89486 0.0394 0.0
C658 C 0.2799 0.89315 0.01962 0.0
H659 H 0.24195 0.88462 0.92639 0.0
H660 H 0.24402 0.87689 0.95834 0.0
H661 H 0.3195 0.88469 0.98433 0.0
H662 H 0.31415 0.92166 0.07293 0.0
H663 H 0.31576 0.91497 0.04086 0.0
C664 C 0.58103 0.19406 0.43563 0.0
C665 C 0.58919 0.21497 0.42562 0.0
C666 C 0.58512 0.19309 0.45402 0.0
C667 C 0.5949 0.23566 0.4921 0.0
H668 H 0.60837 0.17369 0.51787 0.0
C669 C 0.60277 0.2351 0.56849 0.0
C670 C 0.58931 0.21594 0.57731 0.0
C671 C 0.60684 0.23386 0.55011 0.0
C672 C 0.6045 0.19113 0.51086 0.0
H673 H 0.60928 0.25061 0.42701 0.0
H674 H 0.61666 0.24872 0.459 0.0
H675 H 0.60838 0.17349 0.48531 0.0
H676 H 0.57057 0.17986 0.57378 0.0
H677 H 0.5774 0.17789 0.54172 0.0
H678 H 0.59048 0.25322 0.51753 0.0
C679 C 0.60664 0.23333 0.45269 0.0
C680 C 0.6045 0.19101 0.49221 0.0
C681 C 0.60251 0.23433 0.43431 0.0
C682 C 0.58096 0.19499 0.56743 0.0
C683 C 0.58501 0.19378 0.54904 0.0
C684 C 0.59492 0.23578 0.5107 0.0
C685 C 0.59751 0.21296 0.46283 0.0
C686 C 0.59942 0.21324 0.48261 0.0
C687 C 0.59754 0.21345 0.5401 0.0
C688 C 0.59944 0.21347 0.52032 0.0
H689 H 0.57075 0.17879 0.42937 0.0
H690 H 0.57764 0.17723 0.46143 0.0
H691 H 0.59045 0.25302 0.48517 0.0
H692 H 0.60969 0.2514 0.57569 0.0
H693 H 0.61695 0.24911 0.54369 0.0
C694 C 0.80399 0.57967 0.43393 0.0
C695 C 0.78171 0.58696 0.42514 0.0
C696 C 0.80656 0.58309 0.4523 0.0
C697 C 0.77929 0.61614 0.49152 0.0
H698 H 0.80553 0.5585 0.51739 0.0
C699 C 0.76285 0.60046 0.56686 0.0
C700 C 0.78203 0.58884 0.5769 0.0
C701 C 0.76541 0.60346 0.54845 0.0
C702 C 0.79858 0.57498 0.5104 0.0
H703 H 0.74506 0.60455 0.42875 0.0
H704 H 0.74945 0.61022 0.4608 0.0
H705 H 0.80538 0.55804 0.48501 0.0
H706 H 0.81955 0.57249 0.57548 0.0
H707 H 0.82409 0.57801 0.54342 0.0
H708 H 0.77201 0.63282 0.51702 0.0
C709 C 0.76504 0.60206 0.45346 0.0
C710 C 0.79848 0.5747 0.4918 0.0
C711 C 0.76247 0.59867 0.43507 0.0
C712 C 0.80429 0.58131 0.56817 0.0
C713 C 0.80685 0.58434 0.54976 0.0
C714 C 0.77939 0.61642 0.51016 0.0
C715 C 0.78692 0.59387 0.46235 0.0
C716 C 0.78859 0.59515 0.48212 0.0
C717 C 0.78723 0.59497 0.53962 0.0
C718 C 0.78879 0.5957 0.51983 0.0
H719 H 0.81929 0.57079 0.4267 0.0
H720 H 0.82384 0.57697 0.45869 0.0
H721 H 0.77184 0.63233 0.48446 0.0
H722 H 0.74546 0.60653 0.57313 0.0
H723 H 0.74983 0.61151 0.54104 0.0
C724 C 0.41165 0.80336 0.5672 0.0
C725 C 0.40232 0.78284 0.5771 0.0
C726 C 0.4075 0.80481 0.54882 0.0
C727 C 0.39511 0.76309 0.51065 0.0
H728 H 0.38576 0.8258 0.48486 0.0
C729 C 0.38799 0.76374 0.43433 0.0
C730 C 0.40278 0.7819 0.42552 0.0
C731 C 0.38366 0.76547 0.45265 0.0
C732 C 0.38847 0.80815 0.49188 0.0
H733 H 0.37998 0.74858 0.57557 0.0
H734 H 0.37248 0.75134 0.54364 0.0
H735 H 0.38568 0.82599 0.51744 0.0
H736 H 0.42356 0.81686 0.42899 0.0
H737 H 0.41629 0.81966 0.46098 0.0
H738 H 0.39848 0.74528 0.48523 0.0
C739 C 0.3835 0.766 0.55 0.0
C740 C 0.38843 0.80826 0.51054 0.0
C741 C 0.3877 0.7645 0.56834 0.0
C742 C 0.41213 0.80249 0.43534 0.0
C743 C 0.40784 0.80418 0.45369 0.0
C744 C 0.39515 0.76298 0.49205 0.0
C745 C 0.39387 0.78583 0.53993 0.0
C746 C 0.39201 0.78575 0.52014 0.0
C747 C 0.39406 0.78537 0.46264 0.0
C748 C 0.39208 0.78552 0.48242 0.0
H749 H 0.42296 0.81785 0.5735 0.0
H750 H 0.41593 0.82025 0.54147 0.0
H751 H 0.39843 0.74547 0.51758 0.0
H752 H 0.38026 0.74776 0.42717 0.0
H753 H 0.37255 0.75093 0.45907 0.0
C754 C 0.19249 0.41462 0.56692 0.0
C755 C 0.21313 0.40544 0.57677 0.0
C756 C 0.19106 0.41065 0.54853 0.0
C757 C 0.23255 0.39869 0.51011 0.0
H758 H 0.16961 0.38829 0.4848 0.0
C759 C 0.23085 0.38971 0.43388 0.0
C760 C 0.21249 0.40417 0.425 0.0
C761 C 0.22944 0.38595 0.45228 0.0
C762 C 0.18731 0.3913 0.49168 0.0
H763 H 0.24776 0.38368 0.57508 0.0
H764 H 0.24504 0.37648 0.5431 0.0
H765 H 0.16983 0.38856 0.51737 0.0
H766 H 0.17754 0.42498 0.42845 0.0
H767 H 0.17527 0.41864 0.46058 0.0
H768 H 0.24999 0.40193 0.48455 0.0
C769 C 0.23024 0.38723 0.54954 0.0
C770 C 0.18745 0.39146 0.51034 0.0
C771 C 0.23172 0.39125 0.56791 0.0
C772 C 0.19205 0.41379 0.43485 0.0
C773 C 0.19067 0.41005 0.45328 0.0
C774 C 0.23241 0.3985 0.49152 0.0
C775 C 0.21018 0.39734 0.53956 0.0
C776 C 0.21005 0.3954 0.51977 0.0
C777 C 0.20966 0.39657 0.46226 0.0
C778 C 0.20978 0.39504 0.48206 0.0
H779 H 0.1778 0.4256 0.5733 0.0
H780 H 0.17545 0.41889 0.54125 0.0
H781 H 0.25022 0.40227 0.51691 0.0
H782 H 0.24674 0.3818 0.42671 0.0
H783 H 0.24413 0.37507 0.45874 0.0
C784 C 0.20705 0.99302 0.13527 0.0
C785 C 0.23288 0.99085 0.13129 0.0
C786 C 0.19543 0.0167 0.13568 0.0
C787 C 0.20962 0.08542 0.13804 0.0
H788 H 0.14222 0.09201 0.11847 0.0
C789 C 0.16333 0.18137 0.12064 0.0
C790 C 0.13814 0.18456 0.12604 0.0
C791 C 0.17511 0.15786 0.12227 0.0
C792 C 0.16096 0.0904 0.12412 0.0
H793 H 0.26674 0.01191 0.12463 0.0
H794 H 0.24641 0.05294 0.12487 0.0
H795 H 0.16219 0.05062 0.11954 0.0
H796 H 0.10562 0.16567 0.13754 0.0
H797 H 0.12612 0.12469 0.14019 0.0
H798 H 0.20849 0.12542 0.14216 0.0
C799 C 0.23519 0.03649 0.1281 0.0
C800 C 0.17239 0.06668 0.12481 0.0
C801 C 0.24683 0.01288 0.12784 0.0
C802 C 0.12505 0.16385 0.13323 0.0
C803 C 0.13672 0.14033 0.13467 0.0
C804 C 0.19827 0.10919 0.13718 0.0
C805 C 0.20933 0.03872 0.13197 0.0
C806 C 0.19689 0.06388 0.13174 0.0
C807 C 0.16181 0.13707 0.12914 0.0
C808 C 0.17385 0.1119 0.1302 0.0
H809 H 0.1958 0.97643 0.1381 0.0
H810 H 0.17557 0.01774 0.139 0.0
H811 H 0.22832 0.08393 0.14375 0.0
H812 H 0.17393 0.19697 0.11509 0.0
H813 H 0.19444 0.1558 0.1178 0.0
C814 C 0.8292 0.12406 0.13277 0.0
C815 C 0.80808 0.13741 0.12648 0.0
C816 C 0.85288 0.13555 0.13349 0.0
C817 C 0.88885 0.18909 0.11466 0.0
H818 H 0.93503 0.17456 0.15344 0.0
C819 C 0.98017 0.24535 0.126 0.0
C820 C 0.0023 0.23148 0.12936 0.0
C821 C 0.9567 0.23349 0.12584 0.0
C822 C 0.9224 0.17858 0.14245 0.0
H823 H 0.79512 0.17349 0.11641 0.0
H824 H 0.83635 0.1938 0.11808 0.0
H825 H 0.89317 0.15534 0.15325 0.0
H826 H 0.01704 0.19426 0.1354 0.0
H827 H 0.97574 0.17351 0.13528 0.0
H828 H 0.91799 0.2127 0.10406 0.0
C829 C 0.83474 0.17423 0.12207 0.0
C830 C 0.89843 0.16757 0.14231 0.0
C831 C 0.81106 0.16266 0.12121 0.0
C832 C 0.00036 0.20546 0.13275 0.0
C833 C 0.97675 0.19361 0.13276 0.0
C834 C 0.91271 0.20025 0.11489 0.0
C835 C 0.85598 0.16074 0.12808 0.0
C836 C 0.88136 0.1727 0.12841 0.0
C837 C 0.95474 0.20752 0.12917 0.0
C838 C 0.9297 0.19513 0.12879 0.0
H839 H 0.82759 0.10452 0.13686 0.0
H840 H 0.86884 0.12446 0.13793 0.0
H841 H 0.87642 0.19306 0.10356 0.0
H842 H 0.98092 0.26543 0.12335 0.0
H843 H 0.94001 0.24472 0.12325 0.0
C844 C 0.78593 0.00039 0.13569 0.0
C845 C 0.7598 0.0021 0.13272 0.0
C846 C 0.79787 0.97688 0.13611 0.0
C847 C 0.78506 0.90822 0.1406 0.0
H848 H 0.85035 0.90166 0.11771 0.0
C849 C 0.83088 0.81202 0.12362 0.0
C850 C 0.85668 0.8095 0.12756 0.0
C851 C 0.81898 0.83547 0.12516 0.0
C852 C 0.83222 0.90326 0.1243 0.0
H853 H 0.72569 0.98039 0.12799 0.0
H854 H 0.74656 0.93959 0.1283 0.0
H855 H 0.82985 0.94278 0.11887 0.0
H856 H 0.89019 0.82955 0.13631 0.0
H857 H 0.86943 0.87041 0.13885 0.0
H858 H 0.78731 0.86848 0.14565 0.0
C859 C 0.7578 0.95632 0.13067 0.0
C860 C 0.8205 0.92683 0.12503 0.0
C861 C 0.74585 0.97978 0.13037 0.0
C862 C 0.87029 0.83085 0.13315 0.0
C863 C 0.85846 0.85429 0.13453 0.0
C864 C 0.7967 0.8846 0.13974 0.0
C865 C 0.78397 0.95457 0.13346 0.0
C866 C 0.79675 0.9296 0.13316 0.0
C867 C 0.83272 0.85686 0.13049 0.0
C868 C 0.82039 0.8819 0.13156 0.0
H869 H 0.7972 0.01721 0.13766 0.0
H870 H 0.81799 0.9762 0.13858 0.0
H871 H 0.76696 0.90973 0.14722 0.0
H872 H 0.81987 0.79592 0.11932 0.0
H873 H 0.79914 0.83697 0.12184 0.0
C874 C 0.18392 0.82725 0.12543 0.0
C875 C 0.18564 0.85318 0.12909 0.0
C876 C 0.16077 0.81474 0.12684 0.0
C877 C 0.0964 0.82103 0.14606 0.0
H878 H 0.07892 0.77186 0.10986 0.0
C879 C 0.99493 0.78377 0.13536 0.0
C880 C 0.99223 0.7577 0.13246 0.0
C881 C 0.01889 0.79477 0.13592 0.0
C882 C 0.08365 0.78536 0.12017 0.0
H883 H 0.16446 0.8863 0.13723 0.0
H884 H 0.12414 0.86467 0.13928 0.0
H885 H 0.12022 0.79207 0.1091 0.0
H886 H 0.01268 0.72272 0.12807 0.0
H887 H 0.05439 0.742 0.12897 0.0
H888 H 0.05951 0.81464 0.15685 0.0
C889 C 0.14068 0.85382 0.13567 0.0
C890 C 0.10734 0.79689 0.11978 0.0
C891 C 0.16381 0.86627 0.13437 0.0
C892 C 0.01404 0.74287 0.1303 0.0
C893 C 0.03795 0.7539 0.13072 0.0
C894 C 0.07263 0.80962 0.14637 0.0
C895 C 0.13883 0.82792 0.13185 0.0
C896 C 0.11398 0.81495 0.13267 0.0
C897 C 0.04062 0.77997 0.13346 0.0
C898 C 0.066 0.79174 0.13339 0.0
H899 H 0.20042 0.8166 0.12144 0.0
H900 H 0.1601 0.7947 0.12406 0.0
H901 H 0.10103 0.83453 0.15638 0.0
H902 H 0.97854 0.79573 0.1371 0.0
H903 H 0.0204 0.81496 0.13792 0.0
C904 C 0.70771 0.50004 0.36643 0.0
C905 C 0.7339 0.50162 0.36916 0.0
C906 C 0.69568 0.47659 0.36593 0.0
C907 C 0.70796 0.40789 0.36093 0.0
H908 H 0.64306 0.40161 0.38441 0.0
C909 C 0.66161 0.3119 0.37783 0.0
C910 C 0.63569 0.30965 0.37421 0.0
C911 C 0.67369 0.33525 0.37625 0.0
C912 C 0.66106 0.40314 0.37765 0.0
H913 H 0.76802 0.47973 0.37335 0.0
H914 H 0.74699 0.43898 0.37291 0.0
H915 H 0.66389 0.44255 0.3833 0.0
H916 H 0.60216 0.33007 0.36594 0.0
H917 H 0.62324 0.37078 0.36333 0.0
H918 H 0.70525 0.36825 0.35565 0.0
C919 C 0.73577 0.45579 0.37079 0.0
C920 C 0.67298 0.42661 0.37695 0.0
C921 C 0.74782 0.47921 0.37116 0.0
C922 C 0.62215 0.33117 0.36887 0.0
C923 C 0.63417 0.35452 0.36745 0.0
C924 C 0.69612 0.38436 0.36175 0.0
C925 C 0.70952 0.45419 0.36829 0.0
C926 C 0.6966 0.42929 0.3686 0.0
C927 C 0.66003 0.35682 0.37119 0.0
C928 C 0.67256 0.38176 0.37013 0.0
H929 H 0.69644 0.51692 0.36471 0.0
H930 H 0.6755 0.47604 0.36367 0.0
H931 H 0.72594 0.40934 0.35414 0.0
H932 H 0.67258 0.29567 0.38194 0.0
H933 H 0.69362 0.33654 0.37935 0.0
C934 C 0.51343 0.74626 0.37594 0.0
C935 C 0.49123 0.73231 0.37309 0.0
C936 C 0.53694 0.73441 0.3758 0.0
C937 C 0.567 0.6718 0.38042 0.0
H938 H 0.62492 0.70627 0.36022 0.0
C939 C 0.66338 0.6233 0.37062 0.0
C940 C 0.68469 0.63682 0.37641 0.0
C941 C 0.63981 0.63495 0.36971 0.0
C942 C 0.60894 0.69652 0.36602 0.0
H943 H 0.47636 0.69497 0.36762 0.0
H944 H 0.5175 0.67434 0.36699 0.0
H945 H 0.58348 0.72626 0.35915 0.0
H946 H 0.69805 0.67331 0.38549 0.0
H947 H 0.65675 0.69375 0.38375 0.0
H948 H 0.59252 0.64193 0.38708 0.0
C949 C 0.51667 0.69439 0.3697 0.0
C950 C 0.5852 0.70796 0.36545 0.0
C951 C 0.49309 0.70623 0.36996 0.0
C952 C 0.68198 0.66238 0.38101 0.0
C953 C 0.6584 0.67411 0.37993 0.0
C954 C 0.5907 0.66028 0.38085 0.0
C955 C 0.53887 0.70834 0.37267 0.0
C956 C 0.56397 0.6958 0.37274 0.0
C957 C 0.63706 0.66044 0.37441 0.0
C958 C 0.61191 0.67258 0.37374 0.0
H959 H 0.5127 0.76636 0.37849 0.0
H960 H 0.55357 0.74567 0.37846 0.0
H961 H 0.55117 0.66208 0.38644 0.0
H962 H 0.66482 0.60358 0.36696 0.0
H963 H 0.62373 0.62405 0.36523 0.0
C964 C 0.28819 0.49202 0.3682 0.0
C965 C 0.26195 0.49024 0.37066 0.0
C966 C 0.3 0.51562 0.36764 0.0
C967 C 0.28655 0.5839 0.3614 0.0
H968 H 0.35048 0.59272 0.38571 0.0
C969 C 0.32923 0.68177 0.3776 0.0
C970 C 0.35519 0.68472 0.37442 0.0
C971 C 0.31795 0.65799 0.37619 0.0
C972 C 0.33274 0.59047 0.37872 0.0
H973 H 0.22758 0.51194 0.37447 0.0
H974 H 0.24816 0.55278 0.3739 0.0
H975 H 0.33093 0.5511 0.38482 0.0
H976 H 0.38964 0.66505 0.36709 0.0
H977 H 0.36996 0.62369 0.36475 0.0
H978 H 0.2882 0.62345 0.35563 0.0
C979 C 0.25961 0.53606 0.37201 0.0
C980 C 0.32157 0.56662 0.37815 0.0
C981 C 0.24782 0.51256 0.37248 0.0
C982 C 0.36959 0.66345 0.36967 0.0
C983 C 0.35837 0.63971 0.36841 0.0
C984 C 0.29764 0.60778 0.36208 0.0
C985 C 0.28584 0.53792 0.36961 0.0
C986 C 0.29827 0.56306 0.36956 0.0
C987 C 0.33248 0.6367 0.37173 0.0
C988 C 0.3208 0.61132 0.3708 0.0
H989 H 0.29961 0.4752 0.36668 0.0
H990 H 0.32021 0.51639 0.36555 0.0
H991 H 0.26881 0.58175 0.35439 0.0
H992 H 0.31763 0.69778 0.38125 0.0
H993 H 0.29797 0.65616 0.37894 0.0
C994 C 0.32806 0.36459 0.3685 0.0
C995 C 0.30628 0.35188 0.3743 0.0
C996 C 0.35106 0.35194 0.36714 0.0
C997 C 0.38461 0.29547 0.38362 0.0
H998 H 0.43146 0.31191 0.34563 0.0
C999 C 0.47831 0.24186 0.37317 0.0
C1000 C 0.49988 0.25687 0.37049 0.0
C1001 C 0.45424 0.25257 0.37279 0.0
C1002 C 0.41861 0.30725 0.35636 0.0
H1003 H 0.29148 0.31573 0.38291 0.0
H1004 H 0.33161 0.29344 0.38021 0.0
H1005 H 0.38989 0.33165 0.34621 0.0
H1006 H 0.51298 0.29488 0.36499 0.0
H1007 H 0.47086 0.31354 0.36423 0.0
H1008 H 0.41339 0.27095 0.39369 0.0
C1009 C 0.33098 0.31336 0.37703 0.0
C1010 C 0.39482 0.31858 0.35673 0.0
C1011 C 0.30794 0.3261 0.37849 0.0
C1012 C 0.49678 0.28278 0.36713 0.0
C1013 C 0.47267 0.29345 0.3666 0.0
C1014 C 0.40834 0.284 0.38317 0.0
C1015 C 0.35286 0.32618 0.37144 0.0
C1016 C 0.37762 0.31304 0.37048 0.0
C1017 C 0.45118 0.27848 0.36956 0.0
C1018 C 0.42567 0.28996 0.36963 0.0
H1019 H 0.32747 0.38449 0.36523 0.0
H1020 H 0.36757 0.36253 0.36309 0.0
H1021 H 0.37202 0.29105 0.39455 0.0
H1022 H 0.47998 0.22182 0.37577 0.0
H1023 H 0.438 0.24054 0.37494 0.0
C1024 C 0.8672 0.83067 0.86975 0.0
C1025 C 0.85359 0.80933 0.87538 0.0
C1026 C 0.85549 0.85418 0.86864 0.0
C1027 C 0.79402 0.88513 0.86418 0.0
H1028 H 0.82824 0.94269 0.88503 0.0
C1029 C 0.74492 0.9813 0.87341 0.0
C1030 C 0.7593 0.00334 0.87099 0.0
C1031 C 0.75643 0.95762 0.87324 0.0
C1032 C 0.81859 0.92693 0.87888 0.0
H1033 H 0.81688 0.79586 0.88392 0.0
H1034 H 0.79633 0.83709 0.88183 0.0
H1035 H 0.8481 0.90127 0.88599 0.0
H1036 H 0.797 0.0177 0.86607 0.0
H1037 H 0.81701 0.9763 0.86535 0.0
H1038 H 0.76463 0.91077 0.85685 0.0
C1039 C 0.81609 0.8355 0.8783 0.0
C1040 C 0.82994 0.90318 0.87951 0.0
C1041 C 0.82788 0.81195 0.87958 0.0
C1042 C 0.7854 0.00112 0.8681 0.0
C1043 C 0.7969 0.97737 0.86779 0.0
C1044 C 0.78274 0.90894 0.86341 0.0
C1045 C 0.82987 0.85687 0.87298 0.0
C1046 C 0.81775 0.88204 0.87221 0.0
C1047 C 0.78257 0.95534 0.87049 0.0
C1048 C 0.79485 0.93012 0.87082 0.0
H1049 H 0.88704 0.82931 0.86638 0.0
H1050 H 0.86649 0.87029 0.8643 0.0
H1051 H 0.78436 0.86919 0.85825 0.0
H1052 H 0.72477 0.98231 0.87575 0.0
H1053 H 0.74486 0.94112 0.87564 0.0
C1054 C 0.1615 0.87175 0.86819 0.0
C1055 C 0.18277 0.85819 0.87399 0.0
C1056 C 0.13798 0.86002 0.86699 0.0
C1057 C 0.1073 0.7983 0.86275 0.0
H1058 H 0.04937 0.83223 0.88336 0.0
C1059 C 0.01207 0.74793 0.873 0.0
C1060 C 0.98976 0.76183 0.87048 0.0
C1061 C 0.03554 0.75986 0.8726 0.0
C1062 C 0.06524 0.82266 0.87728 0.0
H1063 H 0.19615 0.82155 0.88275 0.0
H1064 H 0.15498 0.80099 0.88053 0.0
H1065 H 0.09058 0.85262 0.88403 0.0
H1066 H 0.97467 0.79914 0.86517 0.0
H1067 H 0.0157 0.81988 0.86406 0.0
H1068 H 0.08202 0.76843 0.85582 0.0
C1069 C 0.15659 0.82071 0.87691 0.0
C1070 C 0.08886 0.83432 0.87773 0.0
C1071 C 0.18011 0.83252 0.87828 0.0
C1072 C 0.99148 0.7879 0.86729 0.0
C1073 C 0.01501 0.79982 0.86675 0.0
C1074 C 0.08364 0.78671 0.86216 0.0
C1075 C 0.13526 0.83442 0.8714 0.0
C1076 C 0.11015 0.8222 0.87056 0.0
C1077 C 0.03732 0.78596 0.86951 0.0
C1078 C 0.06234 0.79867 0.86953 0.0
H1079 H 0.16291 0.89155 0.86476 0.0
H1080 H 0.12191 0.87096 0.86253 0.0
H1081 H 0.12334 0.78868 0.85692 0.0
H1082 H 0.01145 0.72783 0.87558 0.0
H1083 H 0.05227 0.74865 0.87507 0.0
C1084 C 0.24967 0.01528 0.87245 0.0
C1085 C 0.23497 0.99353 0.86967 0.0
C1086 C 0.2386 0.03918 0.87221 0.0
C1087 C 0.18338 0.07435 0.8562 0.0
H1088 H 0.19916 0.12032 0.89483 0.0
C1089 C 0.126 0.16495 0.86873 0.0
C1090 C 0.13881 0.18654 0.87476 0.0
C1091 C 0.13852 0.14187 0.8673 0.0
C1092 C 0.19485 0.10791 0.88378 0.0
H1093 H 0.19716 0.97994 0.86409 0.0
H1094 H 0.17786 0.02178 0.86358 0.0
H1095 H 0.2196 0.07917 0.89359 0.0
H1096 H 0.17497 0.20096 0.88366 0.0
H1097 H 0.19701 0.16076 0.8808 0.0
H1098 H 0.15878 0.10308 0.84628 0.0
C1099 C 0.19798 0.02024 0.86592 0.0
C1100 C 0.20651 0.0843 0.88311 0.0
C1101 C 0.20901 0.99628 0.86631 0.0
C1102 C 0.16453 0.18463 0.87909 0.0
C1103 C 0.17712 0.16155 0.87753 0.0
C1104 C 0.17186 0.09805 0.85678 0.0
C1105 C 0.21263 0.0419 0.86904 0.0
C1106 C 0.20077 0.06722 0.86939 0.0
C1107 C 0.16422 0.13984 0.87173 0.0
C1108 C 0.17729 0.11505 0.87066 0.0
H1109 H 0.26973 0.01388 0.87505 0.0
H1110 H 0.25038 0.05557 0.87447 0.0
H1111 H 0.17886 0.06167 0.84534 0.0
H1112 H 0.10614 0.16574 0.86535 0.0
H1113 H 0.12787 0.12549 0.86307 0.0
C1114 C 0.82968 0.12584 0.87023 0.0
C1115 C 0.80827 0.13945 0.87574 0.0
C1116 C 0.85316 0.13763 0.869 0.0
C1117 C 0.88375 0.19929 0.86404 0.0
H1118 H 0.94168 0.16566 0.88487 0.0
C1119 C 0.97966 0.24917 0.87298 0.0
C1120 C 0.0018 0.23493 0.87059 0.0
C1121 C 0.95604 0.23751 0.87284 0.0
C1122 C 0.92581 0.17515 0.87873 0.0
H1123 H 0.79466 0.17625 0.88397 0.0
H1124 H 0.8358 0.19692 0.88169 0.0
H1125 H 0.90039 0.1455 0.88601 0.0
H1126 H 0.01639 0.1973 0.86574 0.0
H1127 H 0.97512 0.17703 0.86509 0.0
H1128 H 0.90913 0.22883 0.85656 0.0
C1129 C 0.8343 0.1771 0.87833 0.0
C1130 C 0.90213 0.16362 0.87945 0.0
C1131 C 0.8108 0.16524 0.87973 0.0
C1132 C -0.00027 0.2088 0.86775 0.0
C1133 C 0.97606 0.19716 0.86748 0.0
C1134 C 0.90747 0.21075 0.86318 0.0
C1135 C 0.85574 0.16334 0.8731 0.0
C1136 C 0.88085 0.1756 0.87217 0.0
C1137 C 0.95393 0.21134 0.87017 0.0
C1138 C 0.92879 0.19887 0.87059 0.0
H1139 H 0.82839 0.10595 0.86703 0.0
H1140 H 0.8693 0.12663 0.86473 0.0
H1141 H 0.86771 0.2088 0.85812 0.0
H1142 H 0.98054 0.26933 0.87527 0.0
H1143 H 0.93946 0.24898 0.87522 0.0
C1144 C 0.32868 0.68368 0.62322 0.0
C1145 C 0.35453 0.68607 0.62705 0.0
C1146 C 0.31672 0.66023 0.62463 0.0
C1147 C 0.32999 0.59238 0.62324 0.0
H1148 H 0.26489 0.58542 0.64632 0.0
C1149 C 0.28481 0.49487 0.63486 0.0
C1150 C 0.25868 0.49279 0.63201 0.0
C1151 C 0.29644 0.51853 0.6352 0.0
C1152 C 0.28294 0.58708 0.63965 0.0
H1153 H 0.38805 0.66578 0.63553 0.0
H1154 H 0.3672 0.62497 0.63786 0.0
H1155 H 0.28502 0.6268 0.64481 0.0
H1156 H 0.22425 0.51404 0.62744 0.0
H1157 H 0.24458 0.55514 0.62763 0.0
H1158 H 0.32782 0.55289 0.61773 0.0
C1159 C 0.35623 0.64117 0.63369 0.0
C1160 C 0.29446 0.61078 0.63882 0.0
C1161 C 0.36811 0.6646 0.63244 0.0
C1162 C 0.24441 0.51493 0.62973 0.0
C1163 C 0.25606 0.53856 0.62995 0.0
C1164 C 0.31841 0.56875 0.62394 0.0
C1165 C 0.33045 0.63871 0.62973 0.0
C1166 C 0.31811 0.61365 0.63062 0.0
C1167 C 0.28224 0.54066 0.63258 0.0
C1168 C 0.29474 0.56578 0.63216 0.0
H1169 H 0.31769 0.69988 0.61907 0.0
H1170 H 0.29686 0.65883 0.62137 0.0
H1171 H 0.34807 0.59411 0.61661 0.0
H1172 H 0.29634 0.47821 0.63679 0.0
H1173 H 0.31658 0.51947 0.63757 0.0
C1174 C 0.31075 0.33094 0.62316 0.0
C1175 C 0.30831 0.35664 0.62742 0.0
C1176 C 0.33414 0.31889 0.62462 0.0
C1177 C 0.40201 0.33203 0.62414 0.0
H1178 H 0.40841 0.26614 0.64612 0.0
C1179 C 0.49923 0.28633 0.63584 0.0
C1180 C 0.50135 0.26031 0.63258 0.0
C1181 C 0.47557 0.29796 0.63616 0.0
C1182 C 0.40692 0.28441 0.63975 0.0
H1183 H 0.32844 0.38979 0.63674 0.0
H1184 H 0.36919 0.36878 0.63916 0.0
H1185 H 0.3671 0.28642 0.6446 0.0
H1186 H 0.48019 0.22605 0.62726 0.0
H1187 H 0.43907 0.2464 0.62742 0.0
H1188 H 0.4416 0.32995 0.61893 0.0
C1189 C 0.35305 0.358 0.63462 0.0
C1190 C 0.38326 0.29602 0.63892 0.0
C1191 C 0.32967 0.36998 0.63331 0.0
C1192 C 0.47926 0.24613 0.62987 0.0
C1193 C 0.45562 0.25778 0.63007 0.0
C1194 C 0.42561 0.32037 0.62484 0.0
C1195 C 0.35556 0.33238 0.63021 0.0
C1196 C 0.38059 0.31996 0.63113 0.0
C1197 C 0.45348 0.28387 0.63311 0.0
C1198 C 0.42838 0.29642 0.63267 0.0
H1199 H 0.29464 0.32014 0.61861 0.0
H1200 H 0.33559 0.29915 0.62101 0.0
H1201 H 0.40045 0.35035 0.61782 0.0
H1202 H 0.51586 0.29778 0.63811 0.0
H1203 H 0.47459 0.31801 0.63886 0.0
C1204 C 0.66246 0.31383 0.6245 0.0
C1205 C 0.63669 0.31106 0.62845 0.0
C1206 C 0.67412 0.33741 0.62597 0.0
C1207 C 0.6602 0.405 0.62472 0.0
H1208 H 0.72531 0.41242 0.6477 0.0
C1209 C 0.70592 0.50271 0.6351 0.0
C1210 C 0.73209 0.50444 0.63229 0.0
C1211 C 0.69406 0.47916 0.63572 0.0
C1212 C 0.70725 0.41064 0.64106 0.0
H1213 H 0.60298 0.33081 0.63721 0.0
H1214 H 0.62332 0.3719 0.63961 0.0
H1215 H 0.70532 0.37098 0.64645 0.0
H1216 H 0.76632 0.48275 0.62796 0.0
H1217 H 0.7456 0.4419 0.62858 0.0
H1218 H 0.66228 0.44442 0.61892 0.0
C1219 C 0.63445 0.35587 0.63533 0.0
C1220 C 0.69582 0.38691 0.64039 0.0
C1221 C 0.62287 0.33229 0.63403 0.0
C1222 C 0.74613 0.48212 0.63024 0.0
C1223 C 0.73427 0.45864 0.63071 0.0
C1224 C 0.67173 0.42868 0.62525 0.0
C1225 C 0.66015 0.35868 0.63125 0.0
C1226 C 0.67221 0.38386 0.63218 0.0
C1227 C 0.70807 0.45684 0.6334 0.0
C1228 C 0.69544 0.43179 0.63337 0.0
H1229 H 0.67362 0.29782 0.6202 0.0
H1230 H 0.69393 0.3391 0.62262 0.0
H1231 H 0.64212 0.40312 0.61812 0.0
H1232 H 0.69458 0.51953 0.63684 0.0
H1233 H 0.67391 0.47846 0.63809 0.0
C1234 C 0.51278 0.74992 0.62703 0.0
C1235 C 0.49098 0.73535 0.62998 0.0
C1236 C 0.53659 0.73868 0.62688 0.0
C1237 C 0.57173 0.68351 0.64263 0.0
H1238 H 0.61779 0.69969 0.60412 0.0
C1239 C 0.66345 0.62763 0.63104 0.0
C1240 C 0.68494 0.64077 0.62516 0.0
C1241 C 0.64011 0.63971 0.63212 0.0
C1242 C 0.60534 0.69525 0.61513 0.0
H1243 H 0.4772 0.69756 0.63536 0.0
H1244 H 0.51896 0.67795 0.63524 0.0
H1245 H 0.57637 0.71964 0.60519 0.0
H1246 H 0.69886 0.67703 0.61608 0.0
H1247 H 0.65815 0.69833 0.61834 0.0
H1248 H 0.60071 0.65937 0.65273 0.0
C1249 C 0.51749 0.6981 0.63304 0.0
C1250 C 0.58158 0.70662 0.61569 0.0
C1251 C 0.49359 0.70931 0.63303 0.0
C1252 C 0.68262 0.66635 0.62056 0.0
C1253 C 0.65925 0.67851 0.62177 0.0
C1254 C 0.59558 0.6723 0.64216 0.0
C1255 C 0.53919 0.71266 0.62984 0.0
C1256 C 0.56449 0.70077 0.6294 0.0
C1257 C 0.63768 0.66529 0.62748 0.0
C1258 C 0.61263 0.6779 0.62834 0.0
H1259 H 0.51149 0.77004 0.62465 0.0
H1260 H 0.55302 0.7504 0.62457 0.0
H1261 H 0.55905 0.67893 0.65349 0.0
H1262 H 0.66455 0.60786 0.6346 0.0
H1263 H 0.62385 0.6288 0.63627 0.0
C1264 C 0.19449 0.35153 0.31317 0.0
C1265 C 0.19714 0.3777 0.31501 0.0
C1266 C 0.18623 0.34121 0.29702 0.0
C1267 C 0.15324 0.35986 0.25513 0.0
H1268 H 0.17544 0.29411 0.23875 0.0
C1269 C 0.12994 0.32222 0.18512 0.0
C1270 C 0.11834 0.29842 0.18474 0.0
C1271 C 0.14117 0.3311 0.20074 0.0
C1272 C 0.16907 0.31246 0.24324 0.0
H1273 H 0.19448 0.41365 0.30153 0.0
H1274 H 0.18122 0.3958 0.27311 0.0
H1275 H 0.19254 0.31143 0.26642 0.0
H1276 H 0.10998 0.26489 0.20013 0.0
H1277 H 0.13041 0.28013 0.22741 0.0
H1278 H 0.13028 0.36107 0.23168 0.0
C1279 C 0.18446 0.38311 0.28418 0.0
C1280 C 0.17872 0.32237 0.25913 0.0
C1281 C 0.19227 0.39339 0.30039 0.0
C1282 C 0.11903 0.28322 0.20006 0.0
C1283 C 0.13064 0.29194 0.21563 0.0
C1284 C 0.14396 0.35015 0.23914 0.0
C1285 C 0.18086 0.3569 0.28233 0.0
C1286 C 0.17091 0.34623 0.26532 0.0
C1287 C 0.1414 0.31615 0.21619 0.0
C1288 C 0.15173 0.32637 0.23305 0.0
H1289 H 0.19812 0.33916 0.32437 0.0
H1290 H 0.18342 0.32101 0.29624 0.0
H1291 H 0.14619 0.37796 0.25961 0.0
H1292 H 0.12994 0.33413 0.17339 0.0
H1293 H 0.14957 0.34974 0.20078 0.0
C1294 C 0.67569 0.13772 0.18503 0.0
C1295 C 0.69547 0.12019 0.1855 0.0
C1296 C 0.66751 0.14943 0.20069 0.0
C1297 C 0.68547 0.16096 0.24812 0.0
H1298 H 0.61342 0.1709 0.25392 0.0
C1299 C 0.63726 0.18012 0.31609 0.0
C1300 C 0.61846 0.19873 0.31641 0.0
C1301 C 0.64801 0.17262 0.29992 0.0
C1302 C 0.63362 0.16852 0.25242 0.0
H1303 H 0.72243 0.10107 0.20237 0.0
H1304 H 0.70782 0.1209 0.2299 0.0
H1305 H 0.62961 0.15384 0.22607 0.0
H1306 H 0.59611 0.22429 0.30043 0.0
H1307 H 0.61474 0.21105 0.27201 0.0
H1308 H 0.6892 0.17492 0.27481 0.0
C1309 C 0.69892 0.12622 0.21747 0.0
C1310 C 0.64295 0.1588 0.23642 0.0
C1311 C 0.70724 0.11473 0.20176 0.0
C1312 C 0.61071 0.20997 0.30042 0.0
C1313 C 0.62124 0.20229 0.28422 0.0
C1314 C 0.67607 0.17043 0.26421 0.0
C1315 C 0.67878 0.14357 0.21718 0.0
C1316 C 0.66901 0.1548 0.23405 0.0
C1317 C 0.63987 0.1834 0.28379 0.0
C1318 C 0.65004 0.17423 0.26653 0.0
H1319 H 0.66647 0.14222 0.17254 0.0
H1320 H 0.65231 0.16302 0.19986 0.0
H1321 H 0.70566 0.15857 0.2467 0.0
H1322 H 0.64337 0.17119 0.32833 0.0
H1323 H 0.66214 0.15785 0.29998 0.0
C1324 C 0.81564 0.6389 0.31755 0.0
C1325 C 0.79607 0.62114 0.31711 0.0
C1326 C 0.82369 0.65062 0.30186 0.0
C1327 C 0.80598 0.66143 0.25428 0.0
H1328 H 0.87798 0.672 0.24876 0.0
C1329 C 0.85487 0.68008 0.18643 0.0
C1330 C 0.87347 0.69888 0.1861 0.0
C1331 C 0.84396 0.67271 0.20259 0.0
C1332 C 0.8578 0.66944 0.25018 0.0
H1333 H 0.76933 0.60166 0.30029 0.0
H1334 H 0.78374 0.62151 0.27271 0.0
H1335 H 0.86169 0.65515 0.27664 0.0
H1336 H 0.89526 0.72496 0.20203 0.0
H1337 H 0.87637 0.71196 0.23042 0.0
H1338 H 0.8024 0.67497 0.22746 0.0
C1339 C 0.79255 0.627 0.28512 0.0
C1340 C 0.84839 0.65985 0.2662 0.0
C1341 C 0.78434 0.61551 0.30087 0.0
C1342 C 0.88084 0.71048 0.20206 0.0
C1343 C 0.87015 0.70294 0.21824 0.0
C1344 C 0.81545 0.67076 0.23816 0.0
C1345 C 0.81254 0.64453 0.28537 0.0
C1346 C 0.82236 0.65564 0.26847 0.0
C1347 C 0.85174 0.68383 0.21869 0.0
C1348 C 0.84146 0.67479 0.23594 0.0
H1349 H 0.82485 0.6435 0.33002 0.0
H1350 H 0.83877 0.66436 0.30267 0.0
H1351 H 0.7858 0.65886 0.2556 0.0
H1352 H 0.84904 0.67088 0.17422 0.0
H1353 H 0.83 0.65778 0.20255 0.0
C1354 C 0.35272 0.79491 0.31293 0.0
C1355 C 0.37895 0.79558 0.31537 0.0
C1356 C 0.34204 0.80336 0.29693 0.0
C1357 C 0.35711 0.8445 0.25844 0.0
H1358 H 0.29751 0.81413 0.23752 0.0
C1359 C 0.30569 0.89236 0.20034 0.0
C1360 C 0.29689 0.87697 0.18649 0.0
C1361 C 0.31421 0.8817 0.21624 0.0
C1362 C 0.31428 0.82271 0.24311 0.0
H1363 H 0.41475 0.80423 0.30292 0.0
H1364 H 0.39634 0.8184 0.27489 0.0
H1365 H 0.31598 0.79575 0.26436 0.0
H1366 H 0.28937 0.83856 0.17836 0.0
H1367 H 0.30482 0.81965 0.2061 0.0
H1368 H 0.35602 0.87094 0.23701 0.0
C1369 C 0.38382 0.81215 0.2854 0.0
C1370 C 0.32471 0.81234 0.25862 0.0
C1371 C 0.39441 0.80393 0.3014 0.0
C1372 C 0.29607 0.85075 0.18893 0.0
C1373 C 0.30482 0.84 0.20483 0.0
C1374 C 0.34682 0.85474 0.24293 0.0
C1375 C 0.35747 0.81245 0.28306 0.0
C1376 C 0.34627 0.82312 0.26648 0.0
C1377 C 0.31435 0.85535 0.21859 0.0
C1378 C 0.3252 0.84409 0.23509 0.0
H1379 H 0.34046 0.78858 0.32358 0.0
H1380 H 0.32168 0.80352 0.29568 0.0
H1381 H 0.37347 0.8536 0.26422 0.0
H1382 H 0.3061 0.91268 0.19882 0.0
H1383 H 0.3208 0.89417 0.22668 0.0
C1384 C 0.87902 0.70894 0.80065 0.0
C1385 C 0.87257 0.69775 0.81693 0.0
C1386 C 0.86767 0.70081 0.78484 0.0
C1387 C 0.83295 0.64607 0.76596 0.0
H1388 H 0.82027 0.69228 0.7269 0.0
C1389 C 0.78195 0.61522 0.70157 0.0
C1390 C 0.79426 0.62179 0.6857 0.0
C1391 C 0.7896 0.62579 0.71776 0.0
C1392 C 0.82378 0.67917 0.73769 0.0
H1393 H 0.84899 0.66995 0.82983 0.0
H1394 H 0.82837 0.65618 0.80235 0.0
H1395 H 0.83664 0.70846 0.75507 0.0
H1396 H 0.82363 0.64472 0.67397 0.0
H1397 H 0.83691 0.66359 0.7023 0.0
H1398 H 0.8198 0.61686 0.74857 0.0
C1399 C 0.84264 0.67076 0.80157 0.0
C1400 C 0.83327 0.68839 0.75382 0.0
C1401 C 0.85424 0.67872 0.81732 0.0
C1402 C 0.81387 0.63953 0.68612 0.0
C1403 C 0.82136 0.65033 0.70227 0.0
C1404 C 0.82319 0.63693 0.74991 0.0
C1405 C 0.84944 0.68145 0.78507 0.0
C1406 C 0.83821 0.67192 0.76813 0.0
C1407 C 0.80954 0.64329 0.71829 0.0
C1408 C 0.81871 0.65334 0.73557 0.0
H1409 H 0.89332 0.72354 0.80011 0.0
H1410 H 0.87373 0.70923 0.77242 0.0
H1411 H 0.83695 0.6327 0.77649 0.0
H1412 H 0.76683 0.60146 0.70149 0.0
H1413 H 0.78004 0.62017 0.72989 0.0
C1414 C 0.38124 0.7841 0.70217 0.0
C1415 C 0.37434 0.79598 0.68621 0.0
C1416 C 0.37045 0.7917 0.71831 0.0
C1417 C 0.316 0.82486 0.73785 0.0
H1418 H 0.36163 0.8387 0.77701 0.0
C1419 C 0.28477 0.8801 0.80048 0.0
C1420 C 0.29572 0.87375 0.81686 0.0
C1421 C 0.29316 0.86868 0.78476 0.0
C1422 C 0.3485 0.8345 0.76636 0.0
H1423 H 0.35064 0.82456 0.67427 0.0
H1424 H 0.33146 0.83781 0.70251 0.0
H1425 H 0.3782 0.82185 0.7492 0.0
H1426 H 0.32334 0.85024 0.83002 0.0
H1427 H 0.33761 0.82956 0.80268 0.0
H1428 H 0.28623 0.8373 0.755 0.0
C1429 C 0.34513 0.82261 0.70259 0.0
C1430 C 0.35806 0.82491 0.75039 0.0
C1431 C 0.35612 0.81516 0.68649 0.0
C1432 C 0.31474 0.85541 0.81744 0.0
C1433 C 0.32299 0.84378 0.80177 0.0
C1434 C 0.30637 0.83421 0.7539 0.0
C1435 C 0.35241 0.81117 0.7187 0.0
C1436 C 0.34195 0.82019 0.73591 0.0
C1437 C 0.31258 0.85052 0.78517 0.0
C1438 C 0.32253 0.83938 0.76833 0.0
H1439 H 0.39535 0.76931 0.70219 0.0
H1440 H 0.37627 0.78242 0.73049 0.0
H1441 H 0.3031 0.82113 0.72696 0.0
H1442 H 0.2702 0.89441 0.79979 0.0
H1443 H 0.28494 0.87467 0.77226 0.0
C1444 C 0.13648 0.31631 0.81581 0.0
C1445 C 0.11872 0.29671 0.81613 0.0
C1446 C 0.1474 0.32388 0.79971 0.0
C1447 C 0.13464 0.32568 0.75194 0.0
H1448 H 0.20633 0.33877 0.74726 0.0
C1449 C 0.17751 0.35593 0.68471 0.0
C1450 C 0.19652 0.37429 0.68514 0.0
C1451 C 0.16936 0.34444 0.70045 0.0
C1452 C 0.18622 0.3355 0.74837 0.0
H1453 H 0.09841 0.26945 0.8002 0.0
H1454 H 0.11731 0.28279 0.7719 0.0
H1455 H 0.18963 0.32269 0.77537 0.0
H1456 H 0.22211 0.39515 0.70204 0.0
H1457 H 0.20749 0.37572 0.72971 0.0
H1458 H 0.13089 0.33922 0.72527 0.0
C1459 C 0.12286 0.29229 0.78406 0.0
C1460 C 0.1767 0.32619 0.76447 0.0
C1461 C 0.11218 0.28456 0.8002 0.0
C1462 C 0.20754 0.38082 0.70147 0.0
C1463 C 0.19922 0.36957 0.71726 0.0
C1464 C 0.14408 0.33525 0.73592 0.0
C1465 C 0.14046 0.31214 0.78364 0.0
C1466 C 0.1508 0.32125 0.76642 0.0
C1467 C 0.17984 0.35137 0.717 0.0
C1468 C 0.17 0.34036 0.73392 0.0
H1469 H 0.14167 0.32594 0.82801 0.0
H1470 H 0.16072 0.33938 0.79976 0.0
H1471 H 0.11453 0.32239 0.75314 0.0
H1472 H 0.16885 0.35064 0.67218 0.0
H1473 H 0.15477 0.33019 0.69964 0.0
C1474 C 0.63815 0.1789 0.68518 0.0
C1475 C 0.62 0.19811 0.68564 0.0
C1476 C 0.64969 0.17073 0.7009 0.0
C1477 C 0.65936 0.18788 0.74869 0.0
H1478 H 0.67155 0.11609 0.75374 0.0
C1479 C 0.6785 0.13864 0.81629 0.0
C1480 C 0.69774 0.12049 0.8166 0.0
C1481 C 0.671 0.14952 0.80016 0.0
C1482 C 0.66853 0.13623 0.75245 0.0
H1483 H 0.59956 0.22403 0.70255 0.0
H1484 H 0.6191 0.2094 0.73018 0.0
H1485 H 0.65465 0.13239 0.72588 0.0
H1486 H 0.72449 0.0995 0.80066 0.0
H1487 H 0.71126 0.11837 0.77232 0.0
H1488 H 0.67251 0.1914 0.77559 0.0
C1489 C 0.62504 0.20097 0.71773 0.0
C1490 C 0.65891 0.14563 0.73644 0.0
C1491 C 0.61372 0.2093 0.70196 0.0
C1492 C 0.70964 0.11357 0.80065 0.0
C1493 C 0.70198 0.12423 0.78449 0.0
C1494 C 0.66872 0.17841 0.76478 0.0
C1495 C 0.64303 0.1814 0.71744 0.0
C1496 C 0.65411 0.17159 0.73434 0.0
C1497 C 0.68244 0.14218 0.78407 0.0
C1498 C 0.67333 0.15247 0.76684 0.0
H1499 H 0.64326 0.17011 0.67266 0.0
H1500 H 0.66378 0.15598 0.70008 0.0
H1501 H 0.65634 0.20802 0.74749 0.0
H1502 H 0.66908 0.14413 0.8285 0.0
H1503 H 0.65574 0.16313 0.80022 0.0
C1504 C 0.9675 0.58839 0.1133 0.0
C1505 C 0.96595 0.59848 0.13057 0.0
C1506 C 0.97126 0.56247 0.11086 0.0
C1507 C 0.9635 0.50153 0.13298 0.0
H1508 H 0.02223 0.47931 0.10638 0.0
C1509 C 0.00616 0.40455 0.1449 0.0
C1510 C 0.01497 0.39049 0.13035 0.0
C1511 C -0.00083 0.42968 0.14278 0.0
C1512 C 0.0055 0.48515 0.11358 0.0
H1513 H 0.96671 0.58974 0.15874 0.0
H1514 H 0.97267 0.5445 0.15451 0.0
H1515 H 0.01018 0.52392 0.10601 0.0
H1516 H 0.02324 0.3916 0.10208 0.0
H1517 H 0.01095 0.43582 0.09831 0.0
H1518 H 0.95877 0.46307 0.14074 0.0
C1519 C 0.97103 0.5565 0.14288 0.0
C1520 C -0.00137 0.51064 0.11335 0.0
C1521 C 0.96775 0.58234 0.1453 0.0
C1522 C 0.01706 0.40218 0.11361 0.0
C1523 C 0.00988 0.42743 0.11144 0.0
C1524 C 0.97019 0.47611 0.13309 0.0
C1525 C 0.97305 0.54635 0.12566 0.0
C1526 C 0.97801 0.5191 0.12349 0.0
C1527 C 0.00046 0.44131 0.12598 0.0
C1528 C 0.99175 0.46775 0.12388 0.0
H1529 H 0.9666 0.60059 0.10174 0.0
H1530 H 0.97283 0.55503 0.09746 0.0
H1531 H 0.9473 0.50758 0.14069 0.0
H1532 H 0.0045 0.39603 0.15797 0.0
H1533 H 0.99264 0.44 0.15436 0.0
C1534 C 0.40882 0.97116 0.14363 0.0
C1535 C 0.39314 0.96836 0.12872 0.0
C1536 C 0.43477 0.97402 0.14152 0.0
C1537 C 0.48207 -0.0015 0.11164 0.0
H1538 H 0.52794 0.96125 0.14212 0.0
C1539 C 0.59066 0.01644 0.11419 0.0
C1540 C 0.60105 0.01666 0.13142 0.0
C1541 C 0.56559 0.00894 0.11155 0.0
C1542 C 0.51538 0.9719 0.13357 0.0
H1543 H 0.392 0.96684 0.09988 0.0
H1544 H 0.43778 0.97229 0.09614 0.0
H1545 H 0.48339 0.94996 0.14146 0.0
H1546 H 0.59337 0.00976 0.15935 0.0
H1547 H 0.54976 -0.00283 0.15483 0.0
H1548 H 0.51396 0.02117 0.10433 0.0
C1549 C 0.42987 0.97184 0.10944 0.0
C1550 C 0.48994 0.96532 0.13313 0.0
C1551 C 0.40382 0.96854 0.11159 0.0
C1552 C 0.58589 0.00966 0.14592 0.0
C1553 C 0.56096 0.00226 0.1433 0.0
C1554 C 0.50761 0.00522 0.11216 0.0
C1555 C 0.44553 0.97458 0.12442 0.0
C1556 C 0.47294 0.97901 0.12256 0.0
C1557 C 0.55063 0.00139 0.12608 0.0
C1558 C 0.52434 0.99246 0.12357 0.0
H1559 H 0.40099 0.97116 0.15697 0.0
H1560 H 0.44638 0.97644 0.15327 0.0
H1561 H 0.46926 0.0094 0.10344 0.0
H1562 H 0.6021 0.02111 0.10271 0.0
H1563 H 0.55818 0.0083 0.09811 0.0
C1564 C 0.52684 0.08176 0.3582 0.0
C1565 C 0.52933 0.09774 0.37297 0.0
C1566 C 0.52422 0.05584 0.36054 0.0
C1567 C 0.49945 0.00928 0.39089 0.0
H1568 H 0.53609 0.96256 0.36068 0.0
C1569 C 0.47997 0.90099 0.38916 0.0
C1570 C 0.47949 0.89039 0.37201 0.0
C1571 C 0.48797 0.92594 0.39163 0.0
C1572 C 0.52563 0.97536 0.36916 0.0
H1573 H 0.5307 0.09942 0.4018 0.0
H1574 H 0.52568 0.05369 0.40594 0.0
H1575 H 0.54784 0.007 0.36096 0.0
H1576 H 0.48647 0.89754 0.34401 0.0
H1577 H 0.49991 0.94094 0.34821 0.0
H1578 H 0.47649 0.97776 0.3985 0.0
C1579 C 0.52618 0.06134 0.39257 0.0
C1580 C 0.53246 0.00074 0.36938 0.0
C1581 C 0.52925 0.08737 0.3902 0.0
C1582 C 0.48676 0.9052 0.3574 0.0
C1583 C 0.49465 0.93 0.35983 0.0
C1584 C 0.49247 0.98381 0.39058 0.0
C1585 C 0.52359 0.0454 0.37772 0.0
C1586 C 0.51899 0.01805 0.37984 0.0
C1587 C 0.49573 0.94057 0.37698 0.0
C1588 C 0.50501 0.96677 0.37928 0.0
H1589 H 0.52677 0.08937 0.34479 0.0
H1590 H 0.52191 0.044 0.34888 0.0
H1591 H 0.48869 0.02232 0.399 0.0
H1592 H 0.4751 0.88982 0.40073 0.0
H1593 H 0.48876 0.93354 0.40501 0.0
C1594 C 0.9053 0.5257 0.38759 0.0
C1595 C 0.89473 0.52578 0.37043 0.0
C1596 C 0.93132 0.52241 0.38983 0.0
C1597 C 0.99162 0.52877 0.36646 0.0
H1598 H 0.01529 0.47345 0.39589 0.0
C1599 C 0.08873 0.48564 0.35562 0.0
C1600 C 0.10324 0.47854 0.37042 0.0
C1601 C 0.06365 0.49284 0.35771 0.0
C1602 C 0.00905 0.48926 0.38788 0.0
H1603 H 0.90275 0.52278 0.34222 0.0
H1604 H 0.94815 0.51753 0.34607 0.0
H1605 H 0.97052 0.48491 0.39617 0.0
H1606 H 0.10301 0.47372 0.3991 0.0
H1607 H 0.05886 0.48632 0.40279 0.0
H1608 H 0.02983 0.53311 0.35798 0.0
C1609 C 0.93645 0.52002 0.35778 0.0
C1610 C 0.98346 0.49579 0.38805 0.0
C1611 C 0.91051 0.52288 0.35558 0.0
C1612 C 0.09208 0.47851 0.3874 0.0
C1613 C 0.06687 0.48587 0.38952 0.0
C1614 C 0.01713 0.52241 0.3664 0.0
C1615 C 0.94708 0.51956 0.37491 0.0
C1616 C 0.97446 0.51512 0.37693 0.0
C1617 C 0.05251 0.49345 0.37469 0.0
C1618 C 0.02601 0.50206 0.37665 0.0
H1619 H 0.89341 0.52744 0.39926 0.0
H1620 H 0.93912 0.52204 0.40316 0.0
H1621 H 0.98517 0.54401 0.35798 0.0
H1622 H 0.09683 0.48571 0.34237 0.0
H1623 H 0.05296 0.49795 0.34595 0.0
C1624 C 0.97668 0.59242 0.88756 0.0
C1625 C 0.97592 0.60314 0.87045 0.0
C1626 C 0.98436 0.56734 0.88985 0.0
C1627 C 0.0208 0.51761 0.86669 0.0
H1628 H 0.98507 0.47106 0.89756 0.0
C1629 C 0.02246 0.41093 0.85673 0.0
C1630 C 0.02591 0.39536 0.87164 0.0
C1631 C 0.01941 0.43686 0.85882 0.0
C1632 C 0.99548 0.48399 0.88914 0.0
H1633 H 0.98196 0.59603 0.84234 0.0
H1634 H 0.9948 0.55239 0.84624 0.0
H1635 H 0.97288 0.51563 0.89703 0.0
H1636 H 0.02843 0.39442 0.90044 0.0
H1637 H 0.02269 0.44013 0.90415 0.0
H1638 H 0.04266 0.48585 0.85825 0.0
C1639 C 0.99004 0.56334 0.85796 0.0
C1640 C 0.98851 0.50946 0.88882 0.0
C1641 C 0.9825 0.58829 0.8557 0.0
C1642 C 0.02625 0.40615 0.88873 0.0
C1643 C 0.02276 0.43216 0.89085 0.0
C1644 C 0.0276 0.49222 0.86692 0.0
C1645 C 0.9915 0.55267 0.87507 0.0
C1646 C 0.00064 0.52638 0.87719 0.0
C1647 C 0.01931 0.44771 0.87589 0.0
C1648 C 0.01458 0.47507 0.87778 0.0
H1649 H 0.97231 0.60362 0.89922 0.0
H1650 H 0.98545 0.55968 0.90321 0.0
H1651 H 0.03099 0.5303 0.85795 0.0
H1652 H 0.02203 0.40301 0.84343 0.0
H1653 H 0.01645 0.44838 0.84708 0.0
C1654 C 0.59109 0.0168 0.88818 0.0
C1655 C 0.60144 0.01776 0.87095 0.0
C1656 C 0.5662 0.00864 0.89074 0.0
C1657 C 0.5169 0.97096 0.86829 0.0
H1658 H 0.46976 0.00683 0.89864 0.0
C1659 C 0.41048 0.96855 0.8577 0.0
C1660 C 0.39456 0.96579 0.87249 0.0
C1661 C 0.43639 0.97142 0.85999 0.0
C1662 C 0.48286 0.99636 0.89038 0.0
H1663 H 0.59384 0.01152 0.84293 0.0
H1664 H 0.55056 -0.00224 0.84731 0.0
H1665 H 0.51419 0.01958 0.89802 0.0
H1666 H 0.39301 0.96419 0.90132 0.0
H1667 H 0.43871 0.96963 0.90539 0.0
H1668 H 0.48546 0.94847 0.86009 0.0
C1669 C 0.56166 0.00279 0.8589 0.0
C1670 C 0.50825 0.00365 0.89001 0.0
C1671 C 0.5864 0.01086 0.85637 0.0
C1672 C 0.405 0.96585 0.88969 0.0
C1673 C 0.43102 0.96916 0.89202 0.0
C1674 C 0.4916 0.9638 0.86859 0.0
C1675 C 0.55139 0.00116 0.87612 0.0
C1676 C 0.52533 0.99152 0.87851 0.0
C1677 C 0.44689 0.97203 0.87716 0.0
C1678 C 0.47422 0.9769 0.87923 0.0
H1679 H 0.60244 0.02136 0.89972 0.0
H1680 H 0.55882 0.00744 0.90418 0.0
H1681 H 0.52975 0.9608 0.85966 0.0
H1682 H 0.40283 0.96865 0.84431 0.0
H1683 H 0.44815 0.97395 0.84832 0.0
C1684 C 0.47669 0.90343 0.61431 0.0
C1685 C 0.47585 0.89291 0.63149 0.0
C1686 C 0.48471 0.92838 0.61187 0.0
C1687 C 0.52206 0.97775 0.63459 0.0
H1688 H 0.48627 0.02472 0.60409 0.0
C1689 C 0.52424 0.08426 0.64497 0.0
C1690 C 0.52726 0.10004 0.63014 0.0
C1691 C 0.52131 0.05834 0.64275 0.0
C1692 C 0.49671 0.01167 0.61239 0.0
H1693 H 0.48213 0.90024 0.65954 0.0
H1694 H 0.49559 0.94364 0.65537 0.0
H1695 H 0.47366 0.98027 0.60467 0.0
H1696 H 0.52924 0.10137 0.60132 0.0
H1697 H 0.52369 0.05567 0.59738 0.0
H1698 H 0.54437 0.00927 0.64288 0.0
C1699 C 0.49061 0.93264 0.64373 0.0
C1700 C 0.4895 0.98627 0.61274 0.0
C1701 C 0.48271 0.90783 0.64614 0.0
C1702 C 0.52738 0.08947 0.61297 0.0
C1703 C 0.52401 0.06346 0.61072 0.0
C1704 C 0.52912 0.00307 0.63432 0.0
C1705 C 0.49213 0.94309 0.62656 0.0
C1706 C 0.50162 0.96923 0.62428 0.0
C1707 C 0.52091 0.04771 0.62562 0.0
C1708 C 0.51606 0.02039 0.62361 0.0
H1709 H 0.47214 0.89217 0.60273 0.0
H1710 H 0.48583 0.93589 0.59847 0.0
H1711 H 0.53223 0.96494 0.64325 0.0
H1712 H 0.524 0.092 0.65833 0.0
H1713 H 0.51862 0.04667 0.65445 0.0
C1714 C 0.90553 0.51106 0.64753 0.0
C1715 C 0.89059 0.51778 0.63285 0.0
C1716 C 0.93039 0.50327 0.64513 0.0
C1717 C 0.98394 0.50461 0.614 0.0
H1718 H 0.00773 0.45033 0.64436 0.0
C1719 C 0.08733 0.46727 0.61359 0.0
C1720 C 0.09822 0.4675 0.63065 0.0
C1721 C 0.06126 0.47057 0.61157 0.0
C1722 C 0.00131 0.46543 0.63575 0.0
H1723 H 0.88983 0.52126 0.60408 0.0
H1724 H 0.9336 0.50776 0.59986 0.0
H1725 H 0.96329 0.46213 0.64491 0.0
H1726 H 0.0907 0.47092 0.65891 0.0
H1727 H 0.04527 0.4762 0.65544 0.0
H1728 H 0.02227 0.50801 0.60508 0.0
C1729 C 0.9261 0.50893 0.61326 0.0
C1730 C 0.97593 0.47229 0.63612 0.0
C1731 C 0.90111 0.51684 0.61568 0.0
C1732 C 0.08271 0.47059 0.64562 0.0
C1733 C 0.05673 0.47346 0.64364 0.0
C1734 C 0.0094 0.49759 0.61355 0.0
C1735 C 0.94087 0.50173 0.62797 0.0
C1736 C 0.96712 0.4925 0.6257 0.0
C1737 C 0.04578 0.47372 0.62661 0.0
C1738 C 0.0184 0.47845 0.62483 0.0
H1739 H 0.89793 0.5117 0.66092 0.0
H1740 H 0.94143 0.49844 0.65679 0.0
H1741 H 0.97773 0.52028 0.60585 0.0
H1742 H 0.09901 0.46535 0.60183 0.0
H1743 H 0.05322 0.47076 0.5983 0.0
loop_
_geom_bond_atom_site_label_1
_geom_bond_atom_site_label_2
_geom_bond_distance
_geom_bond_site_symmetry_2
_ccdc_geom_bond_type
Co0 O3 1.970 . S
Co0 N17 1.989 . S
Co0 O25 1.967 . S
Co0 O32 1.920 . S
Co1 O4 1.966 . S
Co1 N10 2.022 . S
Co1 N18 1.993 . S
Co1 O26 1.941 . S
C2 O3 1.258 . S
C2 O4 1.263 . S
O3 Co0 1.970 . S
O3 C2 1.258 . S
O4 Co1 1.966 . S
O4 C2 1.263 . S
C5 O6 1.235 . S
C5 O32 1.289 . S
O6 C5 1.235 . S
C7 C9 1.400 . S
C7 N10 1.351 . S
C7 C12 1.501 . S
C8 C9 1.387 . S
C8 N11 1.341 . S
C9 C7 1.400 . S
C9 C8 1.387 . S
N10 Co1 2.022 . S
N10 C7 1.351 . S
N10 N11 1.365 . S
N11 C8 1.341 . S
N11 N10 1.365 . S
N11 H31 0.862 . S
C12 C7 1.501 . S
C12 H13 0.961 . S
C12 H14 0.961 . S
C12 H15 0.960 . S
H13 C12 0.961 . S
H14 C12 0.961 . S
H15 C12 0.960 . S
C16 N17 1.342 . S
C16 C20 1.401 . S
C16 C21 1.499 . S
N17 Co0 1.989 . S
N17 C16 1.342 . S
N17 N18 1.388 . S
N18 Co1 1.993 . S
N18 N17 1.388 . S
N18 C19 1.346 . S
C19 N18 1.346 . S
C19 C20 1.396 . S
C19 C29 1.510 . S
C20 C16 1.401 . S
C20 C19 1.396 . S
C21 C16 1.499 . S
C21 H22 0.959 . S
C21 H23 0.960 . S
C21 H24 0.961 . S
H22 C21 0.959 . S
H23 C21 0.960 . S
H24 C21 0.961 . S
O25 Co0 1.967 . S
O25 C33 1.258 . S
O26 Co1 1.941 . S
O26 C33 1.266 . S
H27 C29 0.959 . S
H28 C29 0.961 . S
C29 C19 1.510 . S
C29 H27 0.959 . S
C29 H28 0.961 . S
C29 H30 0.960 . S
H30 C29 0.960 . S
H31 N11 0.862 . S
O32 Co0 1.920 . S
O32 C5 1.289 . S
C33 O25 1.258 . S
C33 O26 1.266 . S
Co34 O37 1.970 . S
Co34 N51 1.989 . S
Co34 O59 1.967 . S
Co34 O66 1.920 . S
Co35 O38 1.966 . S
Co35 N44 2.022 . S
Co35 N52 1.993 . S
Co35 O60 1.941 . S
C36 O37 1.258 . S
C36 O38 1.263 . S
O37 Co34 1.970 . S
O37 C36 1.258 . S
O38 Co35 1.966 . S
O38 C36 1.263 . S
C39 O40 1.235 . S
C39 O66 1.289 . S
O40 C39 1.235 . S
C41 C43 1.400 . S
C41 N44 1.351 . S
C41 C46 1.501 . S
C42 C43 1.387 . S
C42 N45 1.341 . S
C43 C41 1.400 . S
C43 C42 1.387 . S
N44 Co35 2.022 . S
N44 C41 1.351 . S
N44 N45 1.365 . S
N45 C42 1.341 . S
N45 N44 1.365 . S
N45 H65 0.862 . S
C46 C41 1.501 . S
C46 H47 0.961 . S
C46 H48 0.961 . S
C46 H49 0.960 . S
H47 C46 0.961 . S
H48 C46 0.961 . S
H49 C46 0.960 . S
C50 N51 1.342 . S
C50 C54 1.401 . S
C50 C55 1.499 . S
N51 Co34 1.989 . S
N51 C50 1.342 . S
N51 N52 1.388 . S
N52 Co35 1.993 . S
N52 N51 1.388 . S
N52 C53 1.346 . S
C53 N52 1.346 . S
C53 C54 1.396 . S
C53 C63 1.510 . S
C54 C50 1.401 . S
C54 C53 1.396 . S
C55 C50 1.499 . S
C55 H56 0.959 . S
C55 H57 0.960 . S
C55 H58 0.961 . S
H56 C55 0.959 . S
H57 C55 0.960 . S
H58 C55 0.961 . S
O59 Co34 1.967 . S
O59 C67 1.258 . S
O60 Co35 1.941 . S
O60 C67 1.266 . S
H61 C63 0.959 . S
H62 C63 0.961 . S
C63 C53 1.510 . S
C63 H61 0.959 . S
C63 H62 0.961 . S
C63 H64 0.960 . S
H64 C63 0.960 . S
H65 N45 0.862 . S
O66 Co34 1.920 . S
O66 C39 1.289 . S
C67 O59 1.258 . S
C67 O60 1.266 . S
Co68 O71 1.970 . S
Co68 N85 1.989 . S
Co68 O93 1.967 . S
Co68 O100 1.920 . S
Co69 O72 1.966 . S
Co69 N78 2.022 . S
Co69 N86 1.993 . S
Co69 O94 1.941 . S
C70 O71 1.258 . S
C70 O72 1.263 . S
O71 Co68 1.970 . S
O71 C70 1.258 . S
O72 Co69 1.966 . S
O72 C70 1.263 . S
C73 O74 1.235 . S
C73 O100 1.289 . S
O74 C73 1.235 . S
C75 C77 1.400 . S
C75 N78 1.351 . S
C75 C80 1.501 . S
C76 C77 1.387 . S
C76 N79 1.341 . S
C77 C75 1.400 . S
C77 C76 1.387 . S
N78 Co69 2.022 . S
N78 C75 1.351 . S
N78 N79 1.365 . S
N79 C76 1.341 . S
N79 N78 1.365 . S
N79 H99 0.862 . S
C80 C75 1.501 . S
C80 H81 0.961 . S
C80 H82 0.961 . S
C80 H83 0.960 . S
H81 C80 0.961 . S
H82 C80 0.961 . S
H83 C80 0.960 . S
C84 N85 1.342 . S
C84 C88 1.401 . S
C84 C89 1.499 . S
N85 Co68 1.989 . S
N85 C84 1.342 . S
N85 N86 1.388 . S
N86 Co69 1.993 . S
N86 N85 1.388 . S
N86 C87 1.346 . S
C87 N86 1.346 . S
C87 C88 1.396 . S
C87 C97 1.510 . S
C88 C84 1.401 . S
C88 C87 1.396 . S
C89 C84 1.499 . S
C89 H90 0.959 . S
C89 H91 0.960 . S
C89 H92 0.961 . S
H90 C89 0.959 . S
H91 C89 0.960 . S
H92 C89 0.961 . S
O93 Co68 1.967 . S
O93 C101 1.258 . S
O94 Co69 1.941 . S
O94 C101 1.266 . S
H95 C97 0.959 . S
H96 C97 0.961 . S
C97 C87 1.510 . S
C97 H95 0.959 . S
C97 H96 0.961 . S
C97 H98 0.960 . S
H98 C97 0.960 . S
H99 N79 0.862 . S
O100 Co68 1.920 . S
O100 C73 1.289 . S
C101 O93 1.258 . S
C101 O94 1.266 . S
Co102 O105 1.970 . S
Co102 N119 1.989 . S
Co102 O127 1.967 . S
Co102 O134 1.920 . S
Co103 O106 1.966 . S
Co103 N112 2.022 . S
Co103 N120 1.993 . S
Co103 O128 1.941 . S
C104 O105 1.258 . S
C104 O106 1.263 . S
O105 Co102 1.970 . S
O105 C104 1.258 . S
O106 Co103 1.966 . S
O106 C104 1.263 . S
C107 O108 1.235 . S
C107 O134 1.289 . S
O108 C107 1.235 . S
C109 C111 1.400 . S
C109 N112 1.351 . S
C109 C114 1.501 . S
C110 C111 1.387 . S
C110 N113 1.341 . S
C111 C109 1.400 . S
C111 C110 1.387 . S
N112 Co103 2.022 . S
N112 C109 1.351 . S
N112 N113 1.365 . S
N113 C110 1.341 . S
N113 N112 1.365 . S
N113 H133 0.862 . S
C114 C109 1.501 . S
C114 H115 0.961 . S
C114 H116 0.961 . S
C114 H117 0.960 . S
H115 C114 0.961 . S
H116 C114 0.961 . S
H117 C114 0.960 . S
C118 N119 1.342 . S
C118 C122 1.401 . S
C118 C123 1.499 . S
N119 Co102 1.989 . S
N119 C118 1.342 . S
N119 N120 1.388 . S
N120 Co103 1.993 . S
N120 N119 1.388 . S
N120 C121 1.346 . S
C121 N120 1.346 . S
C121 C122 1.396 . S
C121 C131 1.510 . S
C122 C118 1.401 . S
C122 C121 1.396 . S
C123 C118 1.499 . S
C123 H124 0.959 . S
C123 H125 0.960 . S
C123 H126 0.961 . S
H124 C123 0.959 . S
H125 C123 0.960 . S
H126 C123 0.961 . S
O127 Co102 1.967 . S
O127 C135 1.258 . S
O128 Co103 1.941 . S
O128 C135 1.266 . S
H129 C131 0.959 . S
H130 C131 0.961 . S
C131 C121 1.510 . S
C131 H129 0.959 . S
C131 H130 0.961 . S
C131 H132 0.960 . S
H132 C131 0.960 . S
H133 N113 0.862 . S
O134 Co102 1.920 . S
O134 C107 1.289 . S
C135 O127 1.258 . S
C135 O128 1.266 . S
Co136 O139 1.970 . S
Co136 N153 1.989 . S
Co136 O161 1.967 . S
Co136 O168 1.920 . S
Co137 O140 1.966 . S
Co137 N146 2.022 . S
Co137 N154 1.993 . S
Co137 O162 1.941 . S
C138 O139 1.258 . S
C138 O140 1.263 . S
O139 Co136 1.970 . S
O139 C138 1.258 . S
O140 Co137 1.966 . S
O140 C138 1.263 . S
C141 O142 1.235 . S
C141 O168 1.289 . S
O142 C141 1.235 . S
C143 C145 1.400 . S
C143 N146 1.351 . S
C143 C148 1.501 . S
C144 C145 1.387 . S
C144 N147 1.341 . S
C145 C143 1.400 . S
C145 C144 1.387 . S
N146 Co137 2.022 . S
N146 C143 1.351 . S
N146 N147 1.365 . S
N147 C144 1.341 . S
N147 N146 1.365 . S
N147 H167 0.862 . S
C148 C143 1.501 . S
C148 H149 0.961 . S
C148 H150 0.961 . S
C148 H151 0.960 . S
H149 C148 0.961 . S
H150 C148 0.961 . S
H151 C148 0.960 . S
C152 N153 1.342 . S
C152 C156 1.401 . S
C152 C157 1.499 . S
N153 Co136 1.989 . S
N153 C152 1.342 . S
N153 N154 1.388 . S
N154 Co137 1.993 . S
N154 N153 1.388 . S
N154 C155 1.346 . S
C155 N154 1.346 . S
C155 C156 1.396 . S
C155 C165 1.510 . S
C156 C152 1.401 . S
C156 C155 1.396 . S
C157 C152 1.499 . S
C157 H158 0.959 . S
C157 H159 0.960 . S
C157 H160 0.961 . S
H158 C157 0.959 . S
H159 C157 0.960 . S
H160 C157 0.961 . S
O161 Co136 1.967 . S
O161 C169 1.258 . S
O162 Co137 1.941 . S
O162 C169 1.266 . S
H163 C165 0.959 . S
H164 C165 0.961 . S
C165 C155 1.510 . S
C165 H163 0.959 . S
C165 H164 0.961 . S
C165 H166 0.960 . S
H166 C165 0.960 . S
H167 N147 0.862 . S
O168 Co136 1.920 . S
O168 C141 1.289 . S
C169 O161 1.258 . S
C169 O162 1.266 . S
Co170 O173 1.970 . S
Co170 N187 1.989 . S
Co170 O195 1.967 . S
Co170 O202 1.920 . S
Co171 O174 1.966 . S
Co171 N180 2.022 . S
Co171 N188 1.993 . S
Co171 O196 1.941 . S
C172 O173 1.258 . S
C172 O174 1.263 . S
O173 Co170 1.970 . S
O173 C172 1.258 . S
O174 Co171 1.966 . S
O174 C172 1.263 . S
C175 O176 1.235 . S
C175 O202 1.289 . S
O176 C175 1.235 . S
C177 C179 1.400 . S
C177 N180 1.351 . S
C177 C182 1.501 . S
C178 C179 1.387 . S
C178 N181 1.341 . S
C179 C177 1.400 . S
C179 C178 1.387 . S
N180 Co171 2.022 . S
N180 C177 1.351 . S
N180 N181 1.365 . S
N181 C178 1.341 . S
N181 N180 1.365 . S
N181 H201 0.862 . S
C182 C177 1.501 . S
C182 H183 0.961 . S
C182 H184 0.961 . S
C182 H185 0.960 . S
H183 C182 0.961 . S
H184 C182 0.961 . S
H185 C182 0.960 . S
C186 N187 1.342 . S
C186 C190 1.401 . S
C186 C191 1.499 . S
N187 Co170 1.989 . S
N187 C186 1.342 . S
N187 N188 1.388 . S
N188 Co171 1.993 . S
N188 N187 1.388 . S
N188 C189 1.346 . S
C189 N188 1.346 . S
C189 C190 1.396 . S
C189 C199 1.510 . S
C190 C186 1.401 . S
C190 C189 1.396 . S
C191 C186 1.499 . S
C191 H192 0.959 . S
C191 H193 0.960 . S
C191 H194 0.961 . S
H192 C191 0.959 . S
H193 C191 0.960 . S
H194 C191 0.961 . S
O195 Co170 1.967 . S
O195 C203 1.258 . S
O196 Co171 1.941 . S
O196 C203 1.266 . S
H197 C199 0.959 . S
H198 C199 0.961 . S
C199 C189 1.510 . S
C199 H197 0.959 . S
C199 H198 0.961 . S
C199 H200 0.960 . S
H200 C199 0.960 . S
H201 N181 0.862 . S
O202 Co170 1.920 . S
O202 C175 1.289 . S
C203 O195 1.258 . S
C203 O196 1.266 . S
Co204 O207 1.970 . S
Co204 N221 1.989 . S
Co204 O229 1.967 . S
Co204 O236 1.920 . S
Co205 O208 1.966 . S
Co205 N214 2.022 . S
Co205 N222 1.993 . S
Co205 O230 1.941 . S
C206 O207 1.258 . S
C206 O208 1.263 . S
O207 Co204 1.970 . S
O207 C206 1.258 . S
O208 Co205 1.966 . S
O208 C206 1.263 . S
C209 O210 1.235 . S
C209 O236 1.289 . S
O210 C209 1.235 . S
C211 C213 1.400 . S
C211 N214 1.351 . S
C211 C216 1.501 . S
C212 C213 1.387 . S
C212 N215 1.341 . S
C213 C211 1.400 . S
C213 C212 1.387 . S
N214 Co205 2.022 . S
N214 C211 1.351 . S
N214 N215 1.365 . S
N215 C212 1.341 . S
N215 N214 1.365 . S
N215 H235 0.862 . S
C216 C211 1.501 . S
C216 H217 0.961 . S
C216 H218 0.961 . S
C216 H219 0.960 . S
H217 C216 0.961 . S
H218 C216 0.961 . S
H219 C216 0.960 . S
C220 N221 1.342 . S
C220 C224 1.401 . S
C220 C225 1.499 . S
N221 Co204 1.989 . S
N221 C220 1.342 . S
N221 N222 1.388 . S
N222 Co205 1.993 . S
N222 N221 1.388 . S
N222 C223 1.346 . S
C223 N222 1.346 . S
C223 C224 1.396 . S
C223 C233 1.510 . S
C224 C220 1.401 . S
C224 C223 1.396 . S
C225 C220 1.499 . S
C225 H226 0.959 . S
C225 H227 0.960 . S
C225 H228 0.961 . S
H226 C225 0.959 . S
H227 C225 0.960 . S
H228 C225 0.961 . S
O229 Co204 1.967 . S
O229 C237 1.258 . S
O230 Co205 1.941 . S
O230 C237 1.266 . S
H231 C233 0.959 . S
H232 C233 0.961 . S
C233 C223 1.510 . S
C233 H231 0.959 . S
C233 H232 0.961 . S
C233 H234 0.960 . S
H234 C233 0.960 . S
H235 N215 0.862 . S
O236 Co204 1.920 . S
O236 C209 1.289 . S
C237 O229 1.258 . S
C237 O230 1.266 . S
Co238 O241 1.970 . S
Co238 N255 1.989 . S
Co238 O263 1.967 . S
Co238 O270 1.920 . S
Co239 O242 1.966 . S
Co239 N248 2.022 . S
Co239 N256 1.993 . S
Co239 O264 1.941 . S
C240 O241 1.258 . S
C240 O242 1.263 . S
O241 Co238 1.970 . S
O241 C240 1.258 . S
O242 Co239 1.966 . S
O242 C240 1.263 . S
C243 O244 1.235 . S
C243 O270 1.289 . S
O244 C243 1.235 . S
C245 C247 1.400 . S
C245 N248 1.351 . S
C245 C250 1.501 . S
C246 C247 1.387 . S
C246 N249 1.341 . S
C247 C245 1.400 . S
C247 C246 1.387 . S
N248 Co239 2.022 . S
N248 C245 1.351 . S
N248 N249 1.365 . S
N249 C246 1.341 . S
N249 N248 1.365 . S
N249 H269 0.862 . S
C250 C245 1.501 . S
C250 H251 0.961 . S
C250 H252 0.961 . S
C250 H253 0.960 . S
H251 C250 0.961 . S
H252 C250 0.961 . S
H253 C250 0.960 . S
C254 N255 1.342 . S
C254 C258 1.401 . S
C254 C259 1.499 . S
N255 Co238 1.989 . S
N255 C254 1.342 . S
N255 N256 1.388 . S
N256 Co239 1.993 . S
N256 N255 1.388 . S
N256 C257 1.346 . S
C257 N256 1.346 . S
C257 C258 1.396 . S
C257 C267 1.510 . S
C258 C254 1.401 . S
C258 C257 1.396 . S
C259 C254 1.499 . S
C259 H260 0.959 . S
C259 H261 0.960 . S
C259 H262 0.961 . S
H260 C259 0.959 . S
H261 C259 0.960 . S
H262 C259 0.961 . S
O263 Co238 1.967 . S
O263 C271 1.258 . S
O264 Co239 1.941 . S
O264 C271 1.266 . S
H265 C267 0.959 . S
H266 C267 0.961 . S
C267 C257 1.510 . S
C267 H265 0.959 . S
C267 H266 0.961 . S
C267 H268 0.960 . S
H268 C267 0.960 . S
H269 N249 0.862 . S
O270 Co238 1.920 . S
O270 C243 1.289 . S
C271 O263 1.258 . S
C271 O264 1.266 . S
Co272 O275 1.970 . S
Co272 N289 1.989 . S
Co272 O297 1.967 . S
Co272 O304 1.920 . S
Co273 O276 1.966 . S
Co273 N282 2.022 . S
Co273 N290 1.993 . S
Co273 O298 1.941 . S
C274 O275 1.258 . S
C274 O276 1.263 . S
O275 Co272 1.970 . S
O275 C274 1.258 . S
O276 Co273 1.966 . S
O276 C274 1.263 . S
C277 O278 1.235 . S
C277 O304 1.289 . S
O278 C277 1.235 . S
C279 C281 1.400 . S
C279 N282 1.351 . S
C279 C284 1.501 . S
C280 C281 1.387 . S
C280 N283 1.341 . S
C281 C279 1.400 . S
C281 C280 1.387 . S
N282 Co273 2.022 . S
N282 C279 1.351 . S
N282 N283 1.365 . S
N283 C280 1.341 . S
N283 N282 1.365 . S
N283 H303 0.862 . S
C284 C279 1.501 . S
C284 H285 0.961 . S
C284 H286 0.961 . S
C284 H287 0.960 . S
H285 C284 0.961 . S
H286 C284 0.961 . S
H287 C284 0.960 . S
C288 N289 1.342 . S
C288 C292 1.401 . S
C288 C293 1.499 . S
N289 Co272 1.989 . S
N289 C288 1.342 . S
N289 N290 1.388 . S
N290 Co273 1.993 . S
N290 N289 1.388 . S
N290 C291 1.346 . S
C291 N290 1.346 . S
C291 C292 1.396 . S
C291 C301 1.510 . S
C292 C288 1.401 . S
C292 C291 1.396 . S
C293 C288 1.499 . S
C293 H294 0.959 . S
C293 H295 0.960 . S
C293 H296 0.961 . S
H294 C293 0.959 . S
H295 C293 0.960 . S
H296 C293 0.961 . S
O297 Co272 1.967 . S
O297 C305 1.258 . S
O298 Co273 1.941 . S
O298 C305 1.266 . S
H299 C301 0.959 . S
H300 C301 0.961 . S
C301 C291 1.510 . S
C301 H299 0.959 . S
C301 H300 0.961 . S
C301 H302 0.960 . S
H302 C301 0.960 . S
H303 N283 0.862 . S
O304 Co272 1.920 . S
O304 C277 1.289 . S
C305 O297 1.258 . S
C305 O298 1.266 . S
Co306 O309 1.970 . S
Co306 N323 1.989 . S
Co306 O331 1.967 . S
Co306 O338 1.920 . S
Co307 O310 1.966 . S
Co307 N316 2.022 . S
Co307 N324 1.993 . S
Co307 O332 1.941 . S
C308 O309 1.258 . S
C308 O310 1.263 . S
O309 Co306 1.970 . S
O309 C308 1.258 . S
O310 Co307 1.966 . S
O310 C308 1.263 . S
C311 O312 1.235 . S
C311 O338 1.289 . S
O312 C311 1.235 . S
C313 C315 1.400 . S
C313 N316 1.351 . S
C313 C318 1.501 . S
C314 C315 1.387 . S
C314 N317 1.341 . S
C315 C313 1.400 . S
C315 C314 1.387 . S
N316 Co307 2.022 . S
N316 C313 1.351 . S
N316 N317 1.365 . S
N317 C314 1.341 . S
N317 N316 1.365 . S
N317 H337 0.862 . S
C318 C313 1.501 . S
C318 H319 0.961 . S
C318 H320 0.961 . S
C318 H321 0.960 . S
H319 C318 0.961 . S
H320 C318 0.961 . S
H321 C318 0.960 . S
C322 N323 1.342 . S
C322 C326 1.401 . S
C322 C327 1.499 . S
N323 Co306 1.989 . S
N323 C322 1.342 . S
N323 N324 1.388 . S
N324 Co307 1.993 . S
N324 N323 1.388 . S
N324 C325 1.346 . S
C325 N324 1.346 . S
C325 C326 1.396 . S
C325 C335 1.510 . S
C326 C322 1.401 . S
C326 C325 1.396 . S
C327 C322 1.499 . S
C327 H328 0.959 . S
C327 H329 0.960 . S
C327 H330 0.961 . S
H328 C327 0.959 . S
H329 C327 0.960 . S
H330 C327 0.961 . S
O331 Co306 1.967 . S
O331 C339 1.258 . S
O332 Co307 1.941 . S
O332 C339 1.266 . S
H333 C335 0.959 . S
H334 C335 0.961 . S
C335 C325 1.510 . S
C335 H333 0.959 . S
C335 H334 0.961 . S
C335 H336 0.960 . S
H336 C335 0.960 . S
H337 N317 0.862 . S
O338 Co306 1.920 . S
O338 C311 1.289 . S
C339 O331 1.258 . S
C339 O332 1.266 . S
Co340 O343 1.970 . S
Co340 N357 1.989 . S
Co340 O365 1.967 . S
Co340 O372 1.920 . S
Co341 O344 1.966 . S
Co341 N350 2.022 . S
Co341 N358 1.993 . S
Co341 O366 1.941 . S
C342 O343 1.258 . S
C342 O344 1.263 . S
O343 Co340 1.970 . S
O343 C342 1.258 . S
O344 Co341 1.966 . S
O344 C342 1.263 . S
C345 O346 1.235 . S
C345 O372 1.289 . S
O346 C345 1.235 . S
C347 C349 1.400 . S
C347 N350 1.351 . S
C347 C352 1.501 . S
C348 C349 1.387 . S
C348 N351 1.341 . S
C349 C347 1.400 . S
C349 C348 1.387 . S
N350 Co341 2.022 . S
N350 C347 1.351 . S
N350 N351 1.365 . S
N351 C348 1.341 . S
N351 N350 1.365 . S
N351 H371 0.862 . S
C352 C347 1.501 . S
C352 H353 0.961 . S
C352 H354 0.961 . S
C352 H355 0.960 . S
H353 C352 0.961 . S
H354 C352 0.961 . S
H355 C352 0.960 . S
C356 N357 1.342 . S
C356 C360 1.401 . S
C356 C361 1.499 . S
N357 Co340 1.989 . S
N357 C356 1.342 . S
N357 N358 1.388 . S
N358 Co341 1.993 . S
N358 N357 1.388 . S
N358 C359 1.346 . S
C359 N358 1.346 . S
C359 C360 1.396 . S
C359 C369 1.510 . S
C360 C356 1.401 . S
C360 C359 1.396 . S
C361 C356 1.499 . S
C361 H362 0.959 . S
C361 H363 0.960 . S
C361 H364 0.961 . S
H362 C361 0.959 . S
H363 C361 0.960 . S
H364 C361 0.961 . S
O365 Co340 1.967 . S
O365 C373 1.258 . S
O366 Co341 1.941 . S
O366 C373 1.266 . S
H367 C369 0.959 . S
H368 C369 0.961 . S
C369 C359 1.510 . S
C369 H367 0.959 . S
C369 H368 0.961 . S
C369 H370 0.960 . S
H370 C369 0.960 . S
H371 N351 0.862 . S
O372 Co340 1.920 . S
O372 C345 1.289 . S
C373 O365 1.258 . S
C373 O366 1.266 . S
Co374 O377 1.970 . S
Co374 N391 1.989 . S
Co374 O399 1.967 . S
Co374 O406 1.920 . S
Co375 O378 1.966 . S
Co375 N384 2.022 . S
Co375 N392 1.993 . S
Co375 O400 1.941 . S
C376 O377 1.258 . S
C376 O378 1.263 . S
O377 Co374 1.970 . S
O377 C376 1.258 . S
O378 Co375 1.966 . S
O378 C376 1.263 . S
C379 O380 1.235 . S
C379 O406 1.289 . S
O380 C379 1.235 . S
C381 C383 1.400 . S
C381 N384 1.351 . S
C381 C386 1.501 . S
C382 C383 1.387 . S
C382 N385 1.341 . S
C383 C381 1.400 . S
C383 C382 1.387 . S
N384 Co375 2.022 . S
N384 C381 1.351 . S
N384 N385 1.365 . S
N385 C382 1.341 . S
N385 N384 1.365 . S
N385 H405 0.862 . S
C386 C381 1.501 . S
C386 H387 0.961 . S
C386 H388 0.961 . S
C386 H389 0.960 . S
H387 C386 0.961 . S
H388 C386 0.961 . S
H389 C386 0.960 . S
C390 N391 1.342 . S
C390 C394 1.401 . S
C390 C395 1.499 . S
N391 Co374 1.989 . S
N391 C390 1.342 . S
N391 N392 1.388 . S
N392 Co375 1.993 . S
N392 N391 1.388 . S
N392 C393 1.346 . S
C393 N392 1.346 . S
C393 C394 1.396 . S
C393 C403 1.510 . S
C394 C390 1.401 . S
C394 C393 1.396 . S
C395 C390 1.499 . S
C395 H396 0.959 . S
C395 H397 0.960 . S
C395 H398 0.961 . S
H396 C395 0.959 . S
H397 C395 0.960 . S
H398 C395 0.961 . S
O399 Co374 1.967 . S
O399 C407 1.258 . S
O400 Co375 1.941 . S
O400 C407 1.266 . S
H401 C403 0.959 . S
H402 C403 0.961 . S
C403 C393 1.510 . S
C403 H401 0.959 . S
C403 H402 0.961 . S
C403 H404 0.960 . S
H404 C403 0.960 . S
H405 N385 0.862 . S
O406 Co374 1.920 . S
O406 C379 1.289 . S
C407 O399 1.258 . S
C407 O400 1.266 . S
Co408 O411 1.970 . S
Co408 N425 1.989 . S
Co408 O433 1.967 . S
Co408 O440 1.920 . S
Co409 O412 1.966 . S
Co409 N418 2.022 . S
Co409 N426 1.993 . S
Co409 O434 1.941 . S
C410 O411 1.258 . S
C410 O412 1.263 . S
O411 Co408 1.970 . S
O411 C410 1.258 . S
O412 Co409 1.966 . S
O412 C410 1.263 . S
C413 O414 1.235 . S
C413 O440 1.289 . S
O414 C413 1.235 . S
C415 C417 1.400 . S
C415 N418 1.351 . S
C415 C420 1.501 . S
C416 C417 1.387 . S
C416 N419 1.341 . S
C417 C415 1.400 . S
C417 C416 1.387 . S
N418 Co409 2.022 . S
N418 C415 1.351 . S
N418 N419 1.365 . S
N419 C416 1.341 . S
N419 N418 1.365 . S
N419 H439 0.862 . S
C420 C415 1.501 . S
C420 H421 0.961 . S
C420 H422 0.961 . S
C420 H423 0.960 . S
H421 C420 0.961 . S
H422 C420 0.961 . S
H423 C420 0.960 . S
C424 N425 1.342 . S
C424 C428 1.401 . S
C424 C429 1.499 . S
N425 Co408 1.989 . S
N425 C424 1.342 . S
N425 N426 1.388 . S
N426 Co409 1.993 . S
N426 N425 1.388 . S
N426 C427 1.346 . S
C427 N426 1.346 . S
C427 C428 1.396 . S
C427 C437 1.510 . S
C428 C424 1.401 . S
C428 C427 1.396 . S
C429 C424 1.499 . S
C429 H430 0.959 . S
C429 H431 0.960 . S
C429 H432 0.961 . S
H430 C429 0.959 . S
H431 C429 0.960 . S
H432 C429 0.961 . S
O433 Co408 1.967 . S
O433 C441 1.258 . S
O434 Co409 1.941 . S
O434 C441 1.266 . S
H435 C437 0.959 . S
H436 C437 0.961 . S
C437 C427 1.510 . S
C437 H435 0.959 . S
C437 H436 0.961 . S
C437 H438 0.960 . S
H438 C437 0.960 . S
H439 N419 0.862 . S
O440 Co408 1.920 . S
O440 C413 1.289 . S
C441 O433 1.258 . S
C441 O434 1.266 . S
Co442 O445 1.970 . S
Co442 N459 1.989 . S
Co442 O467 1.967 . S
Co442 O474 1.920 . S
Co443 O446 1.966 . S
Co443 N452 2.022 . S
Co443 N460 1.993 . S
Co443 O468 1.941 . S
C444 O445 1.258 . S
C444 O446 1.263 . S
O445 Co442 1.970 . S
O445 C444 1.258 . S
O446 Co443 1.966 . S
O446 C444 1.263 . S
C447 O448 1.235 . S
C447 O474 1.289 . S
O448 C447 1.235 . S
C449 C451 1.400 . S
C449 N452 1.351 . S
C449 C454 1.501 . S
C450 C451 1.387 . S
C450 N453 1.341 . S
C451 C449 1.400 . S
C451 C450 1.387 . S
N452 Co443 2.022 . S
N452 C449 1.351 . S
N452 N453 1.365 . S
N453 C450 1.341 . S
N453 N452 1.365 . S
N453 H473 0.862 . S
C454 C449 1.501 . S
C454 H455 0.961 . S
C454 H456 0.961 . S
C454 H457 0.960 . S
H455 C454 0.961 . S
H456 C454 0.961 . S
H457 C454 0.960 . S
C458 N459 1.342 . S
C458 C462 1.401 . S
C458 C463 1.499 . S
N459 Co442 1.989 . S
N459 C458 1.342 . S
N459 N460 1.388 . S
N460 Co443 1.993 . S
N460 N459 1.388 . S
N460 C461 1.346 . S
C461 N460 1.346 . S
C461 C462 1.396 . S
C461 C471 1.510 . S
C462 C458 1.401 . S
C462 C461 1.396 . S
C463 C458 1.499 . S
C463 H464 0.959 . S
C463 H465 0.960 . S
C463 H466 0.961 . S
H464 C463 0.959 . S
H465 C463 0.960 . S
H466 C463 0.961 . S
O467 Co442 1.967 . S
O467 C475 1.258 . S
O468 Co443 1.941 . S
O468 C475 1.266 . S
H469 C471 0.959 . S
H470 C471 0.961 . S
C471 C461 1.510 . S
C471 H469 0.959 . S
C471 H470 0.961 . S
C471 H472 0.960 . S
H472 C471 0.960 . S
H473 N453 0.862 . S
O474 Co442 1.920 . S
O474 C447 1.289 . S
C475 O467 1.258 . S
C475 O468 1.266 . S
Co476 O479 1.970 . S
Co476 N493 1.989 . S
Co476 O501 1.967 . S
Co476 O508 1.920 . S
Co477 O480 1.966 . S
Co477 N486 2.022 . S
Co477 N494 1.993 . S
Co477 O502 1.941 . S
C478 O479 1.258 . S
C478 O480 1.263 . S
O479 Co476 1.970 . S
O479 C478 1.258 . S
O480 Co477 1.966 . S
O480 C478 1.263 . S
C481 O482 1.235 . S
C481 O508 1.289 . S
O482 C481 1.235 . S
C483 C485 1.400 . S
C483 N486 1.351 . S
C483 C488 1.501 . S
C484 C485 1.387 . S
C484 N487 1.341 . S
C485 C483 1.400 . S
C485 C484 1.387 . S
N486 Co477 2.022 . S
N486 C483 1.351 . S
N486 N487 1.365 . S
N487 C484 1.341 . S
N487 N486 1.365 . S
N487 H507 0.862 . S
C488 C483 1.501 . S
C488 H489 0.961 . S
C488 H490 0.961 . S
C488 H491 0.960 . S
H489 C488 0.961 . S
H490 C488 0.961 . S
H491 C488 0.960 . S
C492 N493 1.342 . S
C492 C496 1.401 . S
C492 C497 1.499 . S
N493 Co476 1.989 . S
N493 C492 1.342 . S
N493 N494 1.388 . S
N494 Co477 1.993 . S
N494 N493 1.388 . S
N494 C495 1.346 . S
C495 N494 1.346 . S
C495 C496 1.396 . S
C495 C505 1.510 . S
C496 C492 1.401 . S
C496 C495 1.396 . S
C497 C492 1.499 . S
C497 H498 0.959 . S
C497 H499 0.960 . S
C497 H500 0.961 . S
H498 C497 0.959 . S
H499 C497 0.960 . S
H500 C497 0.961 . S
O501 Co476 1.967 . S
O501 C509 1.258 . S
O502 Co477 1.941 . S
O502 C509 1.266 . S
H503 C505 0.959 . S
H504 C505 0.961 . S
C505 C495 1.510 . S
C505 H503 0.959 . S
C505 H504 0.961 . S
C505 H506 0.960 . S
H506 C505 0.960 . S
H507 N487 0.862 . S
O508 Co476 1.920 . S
O508 C481 1.289 . S
C509 O501 1.258 . S
C509 O502 1.266 . S
Co510 O513 1.970 . S
Co510 N527 1.989 . S
Co510 O535 1.967 . S
Co510 O542 1.920 . S
Co511 O514 1.966 . S
Co511 N520 2.022 . S
Co511 N528 1.993 . S
Co511 O536 1.941 . S
C512 O513 1.258 . S
C512 O514 1.263 . S
O513 Co510 1.970 . S
O513 C512 1.258 . S
O514 Co511 1.966 . S
O514 C512 1.263 . S
C515 O516 1.235 . S
C515 O542 1.289 . S
O516 C515 1.235 . S
C517 C519 1.400 . S
C517 N520 1.351 . S
C517 C522 1.501 . S
C518 C519 1.387 . S
C518 N521 1.341 . S
C519 C517 1.400 . S
C519 C518 1.387 . S
N520 Co511 2.022 . S
N520 C517 1.351 . S
N520 N521 1.365 . S
N521 C518 1.341 . S
N521 N520 1.365 . S
N521 H541 0.862 . S
C522 C517 1.501 . S
C522 H523 0.961 . S
C522 H524 0.961 . S
C522 H525 0.960 . S
H523 C522 0.961 . S
H524 C522 0.961 . S
H525 C522 0.960 . S
C526 N527 1.342 . S
C526 C530 1.401 . S
C526 C531 1.499 . S
N527 Co510 1.989 . S
N527 C526 1.342 . S
N527 N528 1.388 . S
N528 Co511 1.993 . S
N528 N527 1.388 . S
N528 C529 1.346 . S
C529 N528 1.346 . S
C529 C530 1.396 . S
C529 C539 1.510 . S
C530 C526 1.401 . S
C530 C529 1.396 . S
C531 C526 1.499 . S
C531 H532 0.959 . S
C531 H533 0.960 . S
C531 H534 0.961 . S
H532 C531 0.959 . S
H533 C531 0.960 . S
H534 C531 0.961 . S
O535 Co510 1.967 . S
O535 C543 1.258 . S
O536 Co511 1.941 . S
O536 C543 1.266 . S
H537 C539 0.959 . S
H538 C539 0.961 . S
C539 C529 1.510 . S
C539 H537 0.959 . S
C539 H538 0.961 . S
C539 H540 0.960 . S
H540 C539 0.960 . S
H541 N521 0.862 . S
O542 Co510 1.920 . S
O542 C515 1.289 . S
C543 O535 1.258 . S
C543 O536 1.266 . S
C544 C545 1.349 . S
C544 C546 1.327 . S
C544 H569 0.950 . S
C545 C544 1.349 . S
C545 C561 1.349 . S
C546 C544 1.327 . S
C546 C565 1.429 . S
C546 H570 0.950 . S
C547 C564 1.574 1_556 S
C547 C566 1.368 . S
C547 H571 0.949 . S
H548 C552 0.949 . S
C549 C550 1.349 . S
C549 C551 1.327 . S
C549 H572 0.950 . S
C550 C549 1.349 . S
C550 C562 1.349 . S
C551 C549 1.327 . S
C551 C567 1.429 . S
C551 H573 0.950 . S
C552 H548 0.949 . S
C552 C560 1.574 1_554 S
C552 C568 1.368 . S
H553 C561 0.950 . S
H554 C559 0.950 . S
H555 C560 0.949 . S
H556 C562 0.950 . S
H557 C563 0.950 . S
H558 C564 0.949 . S
C559 H554 0.950 . S
C559 C561 1.327 . S
C559 C565 1.429 . S
C560 C552 1.574 1_556 S
C560 H555 0.949 . S
C560 C566 1.368 . S
C561 C545 1.349 . S
C561 H553 0.950 . S
C561 C559 1.327 . S
C562 C550 1.349 . S
C562 H556 0.950 . S
C562 C563 1.327 . S
C563 H557 0.950 . S
C563 C562 1.327 . S
C563 C567 1.429 . S
C564 C547 1.574 1_554 S
C564 H558 0.949 . S
C564 C568 1.368 . S
C565 C546 1.429 . S
C565 C559 1.429 . S
C565 C566 1.523 . S
C566 C547 1.368 . S
C566 C560 1.368 . S
C566 C565 1.523 . S
C567 C551 1.429 . S
C567 C563 1.429 . S
C567 C568 1.523 . S
C568 C552 1.368 . S
C568 C564 1.368 . S
C568 C567 1.523 . S
H569 C544 0.950 . S
H570 C546 0.950 . S
H571 C547 0.949 . S
H572 C549 0.950 . S
H573 C551 0.950 . S
C574 C575 1.349 . S
C574 C576 1.327 . S
C574 H599 0.950 . S
C575 C574 1.349 . S
C575 C591 1.349 . S
C576 C574 1.327 . S
C576 C595 1.429 . S
C576 H600 0.950 . S
C577 C594 1.574 1_556 S
C577 C596 1.368 . S
C577 H601 0.949 . S
H578 C582 0.949 . S
C579 C580 1.349 . S
C579 C581 1.327 . S
C579 H602 0.950 . S
C580 C579 1.349 . S
C580 C592 1.349 . S
C581 C579 1.327 . S
C581 C597 1.429 . S
C581 H603 0.950 . S
C582 H578 0.949 . S
C582 C590 1.574 1_554 S
C582 C598 1.368 . S
H583 C591 0.950 . S
H584 C589 0.950 . S
H585 C590 0.949 . S
H586 C592 0.950 . S
H587 C593 0.950 . S
H588 C594 0.949 . S
C589 H584 0.950 . S
C589 C591 1.327 . S
C589 C595 1.429 . S
C590 C582 1.574 1_556 S
C590 H585 0.949 . S
C590 C596 1.368 . S
C591 C575 1.349 . S
C591 H583 0.950 . S
C591 C589 1.327 . S
C592 C580 1.349 . S
C592 H586 0.950 . S
C592 C593 1.327 . S
C593 H587 0.950 . S
C593 C592 1.327 . S
C593 C597 1.429 . S
C594 C577 1.574 1_554 S
C594 H588 0.949 . S
C594 C598 1.368 . S
C595 C576 1.429 . S
C595 C589 1.429 . S
C595 C596 1.523 . S
C596 C577 1.368 . S
C596 C590 1.368 . S
C596 C595 1.523 . S
C597 C581 1.429 . S
C597 C593 1.429 . S
C597 C598 1.523 . S
C598 C582 1.368 . S
C598 C594 1.368 . S
C598 C597 1.523 . S
H599 C574 0.950 . S
H600 C576 0.950 . S
H601 C577 0.949 . S
H602 C579 0.950 . S
H603 C581 0.950 . S
C604 C605 1.349 . S
C604 C606 1.327 . S
C604 H629 0.950 . S
C605 C604 1.349 . S
C605 C621 1.349 . S
C606 C604 1.327 . S
C606 C625 1.429 . S
C606 H630 0.950 . S
C607 C624 1.574 1_556 S
C607 C626 1.368 . S
C607 H631 0.949 . S
H608 C612 0.949 . S
C609 C610 1.349 . S
C609 C611 1.327 . S
C609 H632 0.950 . S
C610 C609 1.349 . S
C610 C622 1.349 . S
C611 C609 1.327 . S
C611 C627 1.429 . S
C611 H633 0.950 . S
C612 H608 0.949 . S
C612 C620 1.574 1_554 S
C612 C628 1.368 . S
H613 C621 0.950 . S
H614 C619 0.950 . S
H615 C620 0.949 . S
H616 C622 0.950 . S
H617 C623 0.950 . S
H618 C624 0.949 . S
C619 H614 0.950 . S
C619 C621 1.327 . S
C619 C625 1.429 . S
C620 C612 1.574 1_556 S
C620 H615 0.949 . S
C620 C626 1.368 . S
C621 C605 1.349 . S
C621 H613 0.950 . S
C621 C619 1.327 . S
C622 C610 1.349 . S
C622 H616 0.950 . S
C622 C623 1.327 . S
C623 H617 0.950 . S
C623 C622 1.327 . S
C623 C627 1.429 . S
C624 C607 1.574 1_554 S
C624 H618 0.949 . S
C624 C628 1.368 . S
C625 C606 1.429 . S
C625 C619 1.429 . S
C625 C626 1.523 . S
C626 C607 1.368 . S
C626 C620 1.368 . S
C626 C625 1.523 . S
C627 C611 1.429 . S
C627 C623 1.429 . S
C627 C628 1.523 . S
C628 C612 1.368 . S
C628 C624 1.368 . S
C628 C627 1.523 . S
H629 C604 0.950 . S
H630 C606 0.950 . S
H631 C607 0.949 . S
H632 C609 0.950 . S
H633 C611 0.950 . S
C634 C635 1.349 . S
C634 C636 1.327 . S
C634 H659 0.950 . S
C635 C634 1.349 . S
C635 C651 1.349 . S
C636 C634 1.327 . S
C636 C655 1.429 . S
C636 H660 0.950 . S
C637 C654 1.574 1_556 S
C637 C656 1.368 . S
C637 H661 0.949 . S
H638 C642 0.949 . S
C639 C640 1.349 . S
C639 C641 1.327 . S
C639 H662 0.950 . S
C640 C639 1.349 . S
C640 C652 1.349 . S
C641 C639 1.327 . S
C641 C657 1.429 . S
C641 H663 0.950 . S
C642 H638 0.949 . S
C642 C650 1.574 1_554 S
C642 C658 1.368 . S
H643 C651 0.950 . S
H644 C649 0.950 . S
H645 C650 0.949 . S
H646 C652 0.950 . S
H647 C653 0.950 . S
H648 C654 0.949 . S
C649 H644 0.950 . S
C649 C651 1.327 . S
C649 C655 1.429 . S
C650 C642 1.574 1_556 S
C650 H645 0.949 . S
C650 C656 1.368 . S
C651 C635 1.349 . S
C651 H643 0.950 . S
C651 C649 1.327 . S
C652 C640 1.349 . S
C652 H646 0.950 . S
C652 C653 1.327 . S
C653 H647 0.950 . S
C653 C652 1.327 . S
C653 C657 1.429 . S
C654 C637 1.574 1_554 S
C654 H648 0.949 . S
C654 C658 1.368 . S
C655 C636 1.429 . S
C655 C649 1.429 . S
C655 C656 1.523 . S
C656 C637 1.368 . S
C656 C650 1.368 . S
C656 C655 1.523 . S
C657 C641 1.429 . S
C657 C653 1.429 . S
C657 C658 1.523 . S
C658 C642 1.368 . S
C658 C654 1.368 . S
C658 C657 1.523 . S
H659 C634 0.950 . S
H660 C636 0.950 . S
H661 C637 0.949 . S
H662 C639 0.950 . S
H663 C641 0.950 . S
C664 C665 1.349 . S
C664 C666 1.327 . S
C664 H689 0.950 . S
C665 C664 1.349 . S
C665 C681 1.349 . S
C666 C664 1.327 . S
C666 C685 1.429 . S
C666 H690 0.950 . S
C667 C684 1.574 . S
C667 C686 1.368 . S
C667 H691 0.949 . S
H668 C672 0.949 . S
C669 C670 1.349 . S
C669 C671 1.327 . S
C669 H692 0.950 . S
C670 C669 1.349 . S
C670 C682 1.349 . S
C671 C669 1.327 . S
C671 C687 1.429 . S
C671 H693 0.950 . S
C672 H668 0.949 . S
C672 C680 1.574 . S
C672 C688 1.368 . S
H673 C681 0.950 . S
H674 C679 0.950 . S
H675 C680 0.949 . S
H676 C682 0.950 . S
H677 C683 0.950 . S
H678 C684 0.949 . S
C679 H674 0.950 . S
C679 C681 1.327 . S
C679 C685 1.429 . S
C680 C672 1.574 . S
C680 H675 0.949 . S
C680 C686 1.368 . S
C681 C665 1.349 . S
C681 H673 0.950 . S
C681 C679 1.327 . S
C682 C670 1.349 . S
C682 H676 0.950 . S
C682 C683 1.327 . S
C683 H677 0.950 . S
C683 C682 1.327 . S
C683 C687 1.429 . S
C684 C667 1.574 . S
C684 H678 0.949 . S
C684 C688 1.368 . S
C685 C666 1.429 . S
C685 C679 1.429 . S
C685 C686 1.523 . S
C686 C667 1.368 . S
C686 C680 1.368 . S
C686 C685 1.523 . S
C687 C671 1.429 . S
C687 C683 1.429 . S
C687 C688 1.523 . S
C688 C672 1.368 . S
C688 C684 1.368 . S
C688 C687 1.523 . S
H689 C664 0.950 . S
H690 C666 0.950 . S
H691 C667 0.949 . S
H692 C669 0.950 . S
H693 C671 0.950 . S
C694 C695 1.349 . S
C694 C696 1.327 . S
C694 H719 0.950 . S
C695 C694 1.349 . S
C695 C711 1.349 . S
C696 C694 1.327 . S
C696 C715 1.429 . S
C696 H720 0.950 . S
C697 C714 1.574 . S
C697 C716 1.368 . S
C697 H721 0.949 . S
H698 C702 0.949 . S
C699 C700 1.349 . S
C699 C701 1.327 . S
C699 H722 0.950 . S
C700 C699 1.349 . S
C700 C712 1.349 . S
C701 C699 1.327 . S
C701 C717 1.429 . S
C701 H723 0.950 . S
C702 H698 0.949 . S
C702 C710 1.574 . S
C702 C718 1.368 . S
H703 C711 0.950 . S
H704 C709 0.950 . S
H705 C710 0.949 . S
H706 C712 0.950 . S
H707 C713 0.950 . S
H708 C714 0.949 . S
C709 H704 0.950 . S
C709 C711 1.327 . S
C709 C715 1.429 . S
C710 C702 1.574 . S
C710 H705 0.949 . S
C710 C716 1.368 . S
C711 C695 1.349 . S
C711 H703 0.950 . S
C711 C709 1.327 . S
C712 C700 1.349 . S
C712 H706 0.950 . S
C712 C713 1.327 . S
C713 H707 0.950 . S
C713 C712 1.327 . S
C713 C717 1.429 . S
C714 C697 1.574 . S
C714 H708 0.949 . S
C714 C718 1.368 . S
C715 C696 1.429 . S
C715 C709 1.429 . S
C715 C716 1.523 . S
C716 C697 1.368 . S
C716 C710 1.368 . S
C716 C715 1.523 . S
C717 C701 1.429 . S
C717 C713 1.429 . S
C717 C718 1.523 . S
C718 C702 1.368 . S
C718 C714 1.368 . S
C718 C717 1.523 . S
H719 C694 0.950 . S
H720 C696 0.950 . S
H721 C697 0.949 . S
H722 C699 0.950 . S
H723 C701 0.950 . S
C724 C725 1.349 . S
C724 C726 1.327 . S
C724 H749 0.950 . S
C725 C724 1.349 . S
C725 C741 1.349 . S
C726 C724 1.327 . S
C726 C745 1.429 . S
C726 H750 0.950 . S
C727 C744 1.574 . S
C727 C746 1.368 . S
C727 H751 0.949 . S
H728 C732 0.949 . S
C729 C730 1.349 . S
C729 C731 1.327 . S
C729 H752 0.950 . S
C730 C729 1.349 . S
C730 C742 1.349 . S
C731 C729 1.327 . S
C731 C747 1.429 . S
C731 H753 0.950 . S
C732 H728 0.949 . S
C732 C740 1.574 . S
C732 C748 1.368 . S
H733 C741 0.950 . S
H734 C739 0.950 . S
H735 C740 0.949 . S
H736 C742 0.950 . S
H737 C743 0.950 . S
H738 C744 0.949 . S
C739 H734 0.950 . S
C739 C741 1.327 . S
C739 C745 1.429 . S
C740 C732 1.574 . S
C740 H735 0.949 . S
C740 C746 1.368 . S
C741 C725 1.349 . S
C741 H733 0.950 . S
C741 C739 1.327 . S
C742 C730 1.349 . S
C742 H736 0.950 . S
C742 C743 1.327 . S
C743 H737 0.950 . S
C743 C742 1.327 . S
C743 C747 1.429 . S
C744 C727 1.574 . S
C744 H738 0.949 . S
C744 C748 1.368 . S
C745 C726 1.429 . S
C745 C739 1.429 . S
C745 C746 1.523 . S
C746 C727 1.368 . S
C746 C740 1.368 . S
C746 C745 1.523 . S
C747 C731 1.429 . S
C747 C743 1.429 . S
C747 C748 1.523 . S
C748 C732 1.368 . S
C748 C744 1.368 . S
C748 C747 1.523 . S
H749 C724 0.950 . S
H750 C726 0.950 . S
H751 C727 0.949 . S
H752 C729 0.950 . S
H753 C731 0.950 . S
C754 C755 1.349 . S
C754 C756 1.327 . S
C754 H779 0.950 . S
C755 C754 1.349 . S
C755 C771 1.349 . S
C756 C754 1.327 . S
C756 C775 1.429 . S
C756 H780 0.950 . S
C757 C774 1.574 . S
C757 C776 1.368 . S
C757 H781 0.949 . S
H758 C762 0.949 . S
C759 C760 1.349 . S
C759 C761 1.327 . S
C759 H782 0.950 . S
C760 C759 1.349 . S
C760 C772 1.349 . S
C761 C759 1.327 . S
C761 C777 1.429 . S
C761 H783 0.950 . S
C762 H758 0.949 . S
C762 C770 1.574 . S
C762 C778 1.368 . S
H763 C771 0.950 . S
H764 C769 0.950 . S
H765 C770 0.949 . S
H766 C772 0.950 . S
H767 C773 0.950 . S
H768 C774 0.949 . S
C769 H764 0.950 . S
C769 C771 1.327 . S
C769 C775 1.429 . S
C770 C762 1.574 . S
C770 H765 0.949 . S
C770 C776 1.368 . S
C771 C755 1.349 . S
C771 H763 0.950 . S
C771 C769 1.327 . S
C772 C760 1.349 . S
C772 H766 0.950 . S
C772 C773 1.327 . S
C773 H767 0.950 . S
C773 C772 1.327 . S
C773 C777 1.429 . S
C774 C757 1.574 . S
C774 H768 0.949 . S
C774 C778 1.368 . S
C775 C756 1.429 . S
C775 C769 1.429 . S
C775 C776 1.523 . S
C776 C757 1.368 . S
C776 C770 1.368 . S
C776 C775 1.523 . S
C777 C761 1.429 . S
C777 C773 1.429 . S
C777 C778 1.523 . S
C778 C762 1.368 . S
C778 C774 1.368 . S
C778 C777 1.523 . S
H779 C754 0.950 . S
H780 C756 0.950 . S
H781 C757 0.949 . S
H782 C759 0.950 . S
H783 C761 0.950 . S
C784 C785 1.349 1_545 S
C784 C786 1.327 . S
C784 H809 0.950 1_545 S
C785 C784 1.349 1_565 S
C785 C801 1.349 1_565 S
C786 C784 1.327 . S
C786 C805 1.429 . S
C786 H810 0.950 . S
C787 C804 1.574 . S
C787 C806 1.368 . S
C787 H811 0.949 . S
H788 C792 0.949 . S
C789 C790 1.349 . S
C789 C791 1.327 . S
C789 H812 0.950 . S
C790 C789 1.349 . S
C790 C802 1.349 . S
C791 C789 1.327 . S
C791 C807 1.429 . S
C791 H813 0.950 . S
C792 H788 0.949 . S
C792 C800 1.574 . S
C792 C808 1.368 . S
H793 C801 0.950 . S
H794 C799 0.950 . S
H795 C800 0.949 . S
H796 C802 0.950 . S
H797 C803 0.950 . S
H798 C804 0.949 . S
C799 H794 0.950 . S
C799 C801 1.327 . S
C799 C805 1.429 . S
C800 C792 1.574 . S
C800 H795 0.949 . S
C800 C806 1.368 . S
C801 C785 1.349 1_545 S
C801 H793 0.950 . S
C801 C799 1.327 . S
C802 C790 1.349 . S
C802 H796 0.950 . S
C802 C803 1.327 . S
C803 H797 0.950 . S
C803 C802 1.327 . S
C803 C807 1.429 . S
C804 C787 1.574 . S
C804 H798 0.949 . S
C804 C808 1.368 . S
C805 C786 1.429 . S
C805 C799 1.429 . S
C805 C806 1.523 . S
C806 C787 1.368 . S
C806 C800 1.368 . S
C806 C805 1.523 . S
C807 C791 1.429 . S
C807 C803 1.429 . S
C807 C808 1.523 . S
C808 C792 1.368 . S
C808 C804 1.368 . S
C808 C807 1.523 . S
H809 C784 0.950 1_565 S
H810 C786 0.950 . S
H811 C787 0.949 . S
H812 C789 0.950 . S
H813 C791 0.950 . S
C814 C815 1.349 . S
C814 C816 1.327 . S
C814 H839 0.950 . S
C815 C814 1.349 . S
C815 C831 1.349 . S
C816 C814 1.327 . S
C816 C835 1.429 . S
C816 H840 0.950 . S
C817 C834 1.574 . S
C817 C836 1.368 . S
C817 H841 0.949 . S
H818 C822 0.949 . S
C819 C820 1.349 1_655 S
C819 C821 1.327 . S
C819 H842 0.950 . S
C820 C819 1.349 1_455 S
C820 C832 1.349 1_455 S
C821 C819 1.327 . S
C821 C837 1.429 . S
C821 H843 0.950 . S
C822 H818 0.949 . S
C822 C830 1.574 . S
C822 C838 1.368 . S
H823 C831 0.950 . S
H824 C829 0.950 . S
H825 C830 0.949 . S
H826 C832 0.950 1_455 S
H827 C833 0.950 . S
H828 C834 0.949 . S
C829 H824 0.950 . S
C829 C831 1.327 . S
C829 C835 1.429 . S
C830 C822 1.574 . S
C830 H825 0.949 . S
C830 C836 1.368 . S
C831 C815 1.349 . S
C831 H823 0.950 . S
C831 C829 1.327 . S
C832 C820 1.349 1_655 S
C832 H826 0.950 1_655 S
C832 C833 1.327 . S
C833 H827 0.950 . S
C833 C832 1.327 . S
C833 C837 1.429 . S
C834 C817 1.574 . S
C834 H828 0.949 . S
C834 C838 1.368 . S
C835 C816 1.429 . S
C835 C829 1.429 . S
C835 C836 1.523 . S
C836 C817 1.368 . S
C836 C830 1.368 . S
C836 C835 1.523 . S
C837 C821 1.429 . S
C837 C833 1.429 . S
C837 C838 1.523 . S
C838 C822 1.368 . S
C838 C834 1.368 . S
C838 C837 1.523 . S
H839 C814 0.950 . S
H840 C816 0.950 . S
H841 C817 0.949 . S
H842 C819 0.950 . S
H843 C821 0.950 . S
C844 C845 1.343 1_565 S
C844 C846 1.358 . S
C844 H869 0.925 1_565 S
C845 C844 1.343 1_545 S
C845 C861 1.349 1_545 S
C846 C844 1.358 . S
C846 C865 1.429 . S
C846 H870 0.950 . S
C847 C864 1.574 . S
C847 C866 1.368 . S
C847 H871 0.949 . S
H848 C852 0.949 . S
C849 C850 1.349 . S
C849 C851 1.327 . S
C849 H872 0.950 . S
C850 C849 1.349 . S
C850 C862 1.349 . S
C851 C849 1.327 . S
C851 C867 1.429 . S
C851 H873 0.950 . S
C852 H848 0.949 . S
C852 C860 1.574 . S
C852 C868 1.368 . S
H853 C861 0.950 . S
H854 C859 0.950 . S
H855 C860 0.949 . S
H856 C862 0.950 . S
H857 C863 0.950 . S
H858 C864 0.949 . S
C859 H854 0.950 . S
C859 C861 1.327 . S
C859 C865 1.429 . S
C860 C852 1.574 . S
C860 H855 0.949 . S
C860 C866 1.368 . S
C861 C845 1.349 1_565 S
C861 H853 0.950 . S
C861 C859 1.327 . S
C862 C850 1.349 . S
C862 H856 0.950 . S
C862 C863 1.327 . S
C863 H857 0.950 . S
C863 C862 1.327 . S
C863 C867 1.429 . S
C864 C847 1.574 . S
C864 H858 0.949 . S
C864 C868 1.368 . S
C865 C846 1.429 . S
C865 C859 1.429 . S
C865 C866 1.523 . S
C866 C847 1.368 . S
C866 C860 1.368 . S
C866 C865 1.523 . S
C867 C851 1.429 . S
C867 C863 1.429 . S
C867 C868 1.523 . S
C868 C852 1.368 . S
C868 C864 1.368 . S
C868 C867 1.523 . S
H869 C844 0.925 1_545 S
H870 C846 0.950 . S
H871 C847 0.949 . S
H872 C849 0.950 . S
H873 C851 0.950 . S
C874 C875 1.349 . S
C874 C876 1.327 . S
C874 H899 0.950 . S
C875 C874 1.349 . S
C875 C891 1.349 . S
C876 C874 1.327 . S
C876 C895 1.429 . S
C876 H900 0.950 . S
C877 C894 1.574 . S
C877 C896 1.368 . S
C877 H901 0.949 . S
H878 C882 0.949 . S
C879 C880 1.349 1_455 S
C879 C881 1.327 . S
C879 H902 0.950 1_455 S
C880 C879 1.349 1_655 S
C880 C892 1.349 1_655 S
C881 C879 1.327 . S
C881 C897 1.429 . S
C881 H903 0.950 . S
C882 H878 0.949 . S
C882 C890 1.574 . S
C882 C898 1.368 . S
H883 C891 0.950 . S
H884 C889 0.950 . S
H885 C890 0.949 . S
H886 C892 0.950 . S
H887 C893 0.950 . S
H888 C894 0.949 . S
C889 H884 0.950 . S
C889 C891 1.327 . S
C889 C895 1.429 . S
C890 C882 1.574 . S
C890 H885 0.949 . S
C890 C896 1.368 . S
C891 C875 1.349 . S
C891 H883 0.950 . S
C891 C889 1.327 . S
C892 C880 1.349 1_455 S
C892 H886 0.950 . S
C892 C893 1.327 . S
C893 H887 0.950 . S
C893 C892 1.327 . S
C893 C897 1.429 . S
C894 C877 1.574 . S
C894 H888 0.949 . S
C894 C898 1.368 . S
C895 C876 1.429 . S
C895 C889 1.429 . S
C895 C896 1.523 . S
C896 C877 1.368 . S
C896 C890 1.368 . S
C896 C895 1.523 . S
C897 C881 1.429 . S
C897 C893 1.429 . S
C897 C898 1.523 . S
C898 C882 1.368 . S
C898 C894 1.368 . S
C898 C897 1.523 . S
H899 C874 0.950 . S
H900 C876 0.950 . S
H901 C877 0.949 . S
H902 C879 0.950 1_655 S
H903 C881 0.950 . S
C904 C905 1.349 . S
C904 C906 1.327 . S
C904 H929 0.950 . S
C905 C904 1.349 . S
C905 C921 1.349 . S
C906 C904 1.327 . S
C906 C925 1.429 . S
C906 H930 0.950 . S
C907 C924 1.574 . S
C907 C926 1.368 . S
C907 H931 0.949 . S
H908 C912 0.949 . S
C909 C910 1.349 . S
C909 C911 1.327 . S
C909 H932 0.950 . S
C910 C909 1.349 . S
C910 C922 1.349 . S
C911 C909 1.327 . S
C911 C927 1.429 . S
C911 H933 0.950 . S
C912 H908 0.949 . S
C912 C920 1.574 . S
C912 C928 1.368 . S
H913 C921 0.950 . S
H914 C919 0.950 . S
H915 C920 0.949 . S
H916 C922 0.950 . S
H917 C923 0.950 . S
H918 C924 0.949 . S
C919 H914 0.950 . S
C919 C921 1.327 . S
C919 C925 1.429 . S
C920 C912 1.574 . S
C920 H915 0.949 . S
C920 C926 1.368 . S
C921 C905 1.349 . S
C921 H913 0.950 . S
C921 C919 1.327 . S
C922 C910 1.349 . S
C922 H916 0.950 . S
C922 C923 1.327 . S
C923 H917 0.950 . S
C923 C922 1.327 . S
C923 C927 1.429 . S
C924 C907 1.574 . S
C924 H918 0.949 . S
C924 C928 1.368 . S
C925 C906 1.429 . S
C925 C919 1.429 . S
C925 C926 1.523 . S
C926 C907 1.368 . S
C926 C920 1.368 . S
C926 C925 1.523 . S
C927 C911 1.429 . S
C927 C923 1.429 . S
C927 C928 1.523 . S
C928 C912 1.368 . S
C928 C924 1.368 . S
C928 C927 1.523 . S
H929 C904 0.950 . S
H930 C906 0.950 . S
H931 C907 0.949 . S
H932 C909 0.950 . S
H933 C911 0.950 . S
C934 C935 1.349 . S
C934 C936 1.327 . S
C934 H959 0.950 . S
C935 C934 1.349 . S
C935 C951 1.349 . S
C936 C934 1.327 . S
C936 C955 1.429 . S
C936 H960 0.950 . S
C937 C954 1.574 . S
C937 C956 1.368 . S
C937 H961 0.949 . S
H938 C942 0.949 . S
C939 C940 1.349 . S
C939 C941 1.327 . S
C939 H962 0.950 . S
C940 C939 1.349 . S
C940 C952 1.349 . S
C941 C939 1.327 . S
C941 C957 1.429 . S
C941 H963 0.950 . S
C942 H938 0.949 . S
C942 C950 1.574 . S
C942 C958 1.368 . S
H943 C951 0.950 . S
H944 C949 0.950 . S
H945 C950 0.949 . S
H946 C952 0.950 . S
H947 C953 0.950 . S
H948 C954 0.949 . S
C949 H944 0.950 . S
C949 C951 1.327 . S
C949 C955 1.429 . S
C950 C942 1.574 . S
C950 H945 0.949 . S
C950 C956 1.368 . S
C951 C935 1.349 . S
C951 H943 0.950 . S
C951 C949 1.327 . S
C952 C940 1.349 . S
C952 H946 0.950 . S
C952 C953 1.327 . S
C953 H947 0.950 . S
C953 C952 1.327 . S
C953 C957 1.429 . S
C954 C937 1.574 . S
C954 H948 0.949 . S
C954 C958 1.368 . S
C955 C936 1.429 . S
C955 C949 1.429 . S
C955 C956 1.523 . S
C956 C937 1.368 . S
C956 C950 1.368 . S
C956 C955 1.523 . S
C957 C941 1.429 . S
C957 C953 1.429 . S
C957 C958 1.523 . S
C958 C942 1.368 . S
C958 C954 1.368 . S
C958 C957 1.523 . S
H959 C934 0.950 . S
H960 C936 0.950 . S
H961 C937 0.949 . S
H962 C939 0.950 . S
H963 C941 0.950 . S
C964 C965 1.349 . S
C964 C966 1.327 . S
C964 H989 0.950 . S
C965 C964 1.349 . S
C965 C981 1.349 . S
C966 C964 1.327 . S
C966 C985 1.429 . S
C966 H990 0.950 . S
C967 C984 1.574 . S
C967 C986 1.368 . S
C967 H991 0.949 . S
H968 C972 0.949 . S
C969 C970 1.349 . S
C969 C971 1.327 . S
C969 H992 0.950 . S
C970 C969 1.349 . S
C970 C982 1.349 . S
C971 C969 1.327 . S
C971 C987 1.429 . S
C971 H993 0.950 . S
C972 H968 0.949 . S
C972 C980 1.574 . S
C972 C988 1.368 . S
H973 C981 0.950 . S
H974 C979 0.950 . S
H975 C980 0.949 . S
H976 C982 0.950 . S
H977 C983 0.950 . S
H978 C984 0.949 . S
C979 H974 0.950 . S
C979 C981 1.327 . S
C979 C985 1.429 . S
C980 C972 1.574 . S
C980 H975 0.949 . S
C980 C986 1.368 . S
C981 C965 1.349 . S
C981 H973 0.950 . S
C981 C979 1.327 . S
C982 C970 1.349 . S
C982 H976 0.950 . S
C982 C983 1.327 . S
C983 H977 0.950 . S
C983 C982 1.327 . S
C983 C987 1.429 . S
C984 C967 1.574 . S
C984 H978 0.949 . S
C984 C988 1.368 . S
C985 C966 1.429 . S
C985 C979 1.429 . S
C985 C986 1.523 . S
C986 C967 1.368 . S
C986 C980 1.368 . S
C986 C985 1.523 . S
C987 C971 1.429 . S
C987 C983 1.429 . S
C987 C988 1.523 . S
C988 C972 1.368 . S
C988 C984 1.368 . S
C988 C987 1.523 . S
H989 C964 0.950 . S
H990 C966 0.950 . S
H991 C967 0.949 . S
H992 C969 0.950 . S
H993 C971 0.950 . S
C994 C995 1.349 . S
C994 C996 1.327 . S
C994 H1019 0.950 . S
C995 C994 1.349 . S
C995 C1011 1.349 . S
C996 C994 1.327 . S
C996 C1015 1.429 . S
C996 H1020 0.950 . S
C997 C1014 1.574 . S
C997 C1016 1.368 . S
C997 H1021 0.949 . S
H998 C1002 0.949 . S
C999 C1000 1.349 . S
C999 C1001 1.327 . S
C999 H1022 0.950 . S
C1000 C999 1.349 . S
C1000 C1012 1.349 . S
C1001 C999 1.327 . S
C1001 C1017 1.429 . S
C1001 H1023 0.950 . S
C1002 H998 0.949 . S
C1002 C1010 1.574 . S
C1002 C1018 1.368 . S
H1003 C1011 0.950 . S
H1004 C1009 0.950 . S
H1005 C1010 0.949 . S
H1006 C1012 0.950 . S
H1007 C1013 0.950 . S
H1008 C1014 0.949 . S
C1009 H1004 0.950 . S
C1009 C1011 1.327 . S
C1009 C1015 1.429 . S
C1010 C1002 1.574 . S
C1010 H1005 0.949 . S
C1010 C1016 1.368 . S
C1011 C995 1.349 . S
C1011 H1003 0.950 . S
C1011 C1009 1.327 . S
C1012 C1000 1.349 . S
C1012 H1006 0.950 . S
C1012 C1013 1.327 . S
C1013 H1007 0.950 . S
C1013 C1012 1.327 . S
C1013 C1017 1.429 . S
C1014 C997 1.574 . S
C1014 H1008 0.949 . S
C1014 C1018 1.368 . S
C1015 C996 1.429 . S
C1015 C1009 1.429 . S
C1015 C1016 1.523 . S
C1016 C997 1.368 . S
C1016 C1010 1.368 . S
C1016 C1015 1.523 . S
C1017 C1001 1.429 . S
C1017 C1013 1.429 . S
C1017 C1018 1.523 . S
C1018 C1002 1.368 . S
C1018 C1014 1.368 . S
C1018 C1017 1.523 . S
H1019 C994 0.950 . S
H1020 C996 0.950 . S
H1021 C997 0.949 . S
H1022 C999 0.950 . S
H1023 C1001 0.950 . S
C1024 C1025 1.349 . S
C1024 C1026 1.327 . S
C1024 H1049 0.950 . S
C1025 C1024 1.349 . S
C1025 C1041 1.349 . S
C1026 C1024 1.327 . S
C1026 C1045 1.429 . S
C1026 H1050 0.950 . S
C1027 C1044 1.574 . S
C1027 C1046 1.368 . S
C1027 H1051 0.949 . S
H1028 C1032 0.949 . S
C1029 C1030 1.349 1_565 S
C1029 C1031 1.327 . S
C1029 H1052 0.950 . S
C1030 C1029 1.349 1_545 S
C1030 C1042 1.349 1_545 S
C1031 C1029 1.327 . S
C1031 C1047 1.429 . S
C1031 H1053 0.950 . S
C1032 H1028 0.949 . S
C1032 C1040 1.574 . S
C1032 C1048 1.368 . S
H1033 C1041 0.950 . S
H1034 C1039 0.950 . S
H1035 C1040 0.949 . S
H1036 C1042 0.950 1_545 S
H1037 C1043 0.950 . S
H1038 C1044 0.949 . S
C1039 H1034 0.950 . S
C1039 C1041 1.327 . S
C1039 C1045 1.429 . S
C1040 C1032 1.574 . S
C1040 H1035 0.949 . S
C1040 C1046 1.368 . S
C1041 C1025 1.349 . S
C1041 H1033 0.950 . S
C1041 C1039 1.327 . S
C1042 C1030 1.349 1_565 S
C1042 H1036 0.950 1_565 S
C1042 C1043 1.327 . S
C1043 H1037 0.950 . S
C1043 C1042 1.327 . S
C1043 C1047 1.429 . S
C1044 C1027 1.574 . S
C1044 H1038 0.949 . S
C1044 C1048 1.368 . S
C1045 C1026 1.429 . S
C1045 C1039 1.429 . S
C1045 C1046 1.523 . S
C1046 C1027 1.368 . S
C1046 C1040 1.368 . S
C1046 C1045 1.523 . S
C1047 C1031 1.429 . S
C1047 C1043 1.429 . S
C1047 C1048 1.523 . S
C1048 C1032 1.368 . S
C1048 C1044 1.368 . S
C1048 C1047 1.523 . S
H1049 C1024 0.950 . S
H1050 C1026 0.950 . S
H1051 C1027 0.949 . S
H1052 C1029 0.950 . S
H1053 C1031 0.950 . S
C1054 C1055 1.349 . S
C1054 C1056 1.327 . S
C1054 H1079 0.950 . S
C1055 C1054 1.349 . S
C1055 C1071 1.349 . S
C1056 C1054 1.327 . S
C1056 C1075 1.429 . S
C1056 H1080 0.950 . S
C1057 C1074 1.574 . S
C1057 C1076 1.368 . S
C1057 H1081 0.949 . S
H1058 C1062 0.949 . S
C1059 C1060 1.349 1_455 S
C1059 C1061 1.327 . S
C1059 H1082 0.950 . S
C1060 C1059 1.349 1_655 S
C1060 C1072 1.347 1_655 S
C1061 C1059 1.327 . S
C1061 C1077 1.429 . S
C1061 H1083 0.950 . S
C1062 H1058 0.949 . S
C1062 C1070 1.574 . S
C1062 C1078 1.368 . S
H1063 C1071 0.950 . S
H1064 C1069 0.950 . S
H1065 C1070 0.949 . S
H1066 C1072 0.942 1_655 S
H1067 C1073 0.950 . S
H1068 C1074 0.949 . S
C1069 H1064 0.950 . S
C1069 C1071 1.327 . S
C1069 C1075 1.429 . S
C1070 C1062 1.574 . S
C1070 H1065 0.949 . S
C1070 C1076 1.368 . S
C1071 C1055 1.349 . S
C1071 H1063 0.950 . S
C1071 C1069 1.327 . S
C1072 C1060 1.347 1_455 S
C1072 H1066 0.942 1_455 S
C1072 C1073 1.336 . S
C1073 H1067 0.950 . S
C1073 C1072 1.336 . S
C1073 C1077 1.429 . S
C1074 C1057 1.574 . S
C1074 H1068 0.949 . S
C1074 C1078 1.368 . S
C1075 C1056 1.429 . S
C1075 C1069 1.429 . S
C1075 C1076 1.523 . S
C1076 C1057 1.368 . S
C1076 C1070 1.368 . S
C1076 C1075 1.523 . S
C1077 C1061 1.429 . S
C1077 C1073 1.429 . S
C1077 C1078 1.523 . S
C1078 C1062 1.368 . S
C1078 C1074 1.368 . S
C1078 C1077 1.523 . S
H1079 C1054 0.950 . S
H1080 C1056 0.950 . S
H1081 C1057 0.949 . S
H1082 C1059 0.950 . S
H1083 C1061 0.950 . S
C1084 C1085 1.349 1_545 S
C1084 C1086 1.327 . S
C1084 H1109 0.950 . S
C1085 C1084 1.349 1_565 S
C1085 C1101 1.349 1_565 S
C1086 C1084 1.327 . S
C1086 C1105 1.429 . S
C1086 H1110 0.950 . S
C1087 C1104 1.574 . S
C1087 C1106 1.368 . S
C1087 H1111 0.949 . S
H1088 C1092 0.949 . S
C1089 C1090 1.349 . S
C1089 C1091 1.327 . S
C1089 H1112 0.950 . S
C1090 C1089 1.349 . S
C1090 C1102 1.349 . S
C1091 C1089 1.327 . S
C1091 C1107 1.429 . S
C1091 H1113 0.950 . S
C1092 H1088 0.949 . S
C1092 C1100 1.574 . S
C1092 C1108 1.368 . S
H1093 C1101 0.950 1_565 S
H1094 C1099 0.950 . S
H1095 C1100 0.949 . S
H1096 C1102 0.950 . S
H1097 C1103 0.950 . S
H1098 C1104 0.949 . S
C1099 H1094 0.950 . S
C1099 C1101 1.327 . S
C1099 C1105 1.429 . S
C1100 C1092 1.574 . S
C1100 H1095 0.949 . S
C1100 C1106 1.368 . S
C1101 C1085 1.349 1_545 S
C1101 H1093 0.950 1_545 S
C1101 C1099 1.327 . S
C1102 C1090 1.349 . S
C1102 H1096 0.950 . S
C1102 C1103 1.327 . S
C1103 H1097 0.950 . S
C1103 C1102 1.327 . S
C1103 C1107 1.429 . S
C1104 C1087 1.574 . S
C1104 H1098 0.949 . S
C1104 C1108 1.368 . S
C1105 C1086 1.429 . S
C1105 C1099 1.429 . S
C1105 C1106 1.523 . S
C1106 C1087 1.368 . S
C1106 C1100 1.368 . S
C1106 C1105 1.523 . S
C1107 C1091 1.429 . S
C1107 C1103 1.429 . S
C1107 C1108 1.523 . S
C1108 C1092 1.368 . S
C1108 C1104 1.368 . S
C1108 C1107 1.523 . S
H1109 C1084 0.950 . S
H1110 C1086 0.950 . S
H1111 C1087 0.949 . S
H1112 C1089 0.950 . S
H1113 C1091 0.950 . S
C1114 C1115 1.349 . S
C1114 C1116 1.327 . S
C1114 H1139 0.950 . S
C1115 C1114 1.349 . S
C1115 C1131 1.349 . S
C1116 C1114 1.327 . S
C1116 C1135 1.429 . S
C1116 H1140 0.950 . S
C1117 C1134 1.574 . S
C1117 C1136 1.368 . S
C1117 H1141 0.949 . S
H1118 C1122 0.949 . S
C1119 C1120 1.349 1_655 S
C1119 C1121 1.327 . S
C1119 H1142 0.950 . S
C1120 C1119 1.349 1_455 S
C1120 C1132 1.349 1_455 S
C1121 C1119 1.327 . S
C1121 C1137 1.429 . S
C1121 H1143 0.950 . S
C1122 H1118 0.949 . S
C1122 C1130 1.574 . S
C1122 C1138 1.368 . S
H1123 C1131 0.950 . S
H1124 C1129 0.950 . S
H1125 C1130 0.949 . S
H1126 C1132 0.950 1_455 S
H1127 C1133 0.950 . S
H1128 C1134 0.949 . S
C1129 H1124 0.950 . S
C1129 C1131 1.327 . S
C1129 C1135 1.429 . S
C1130 C1122 1.574 . S
C1130 H1125 0.949 . S
C1130 C1136 1.368 . S
C1131 C1115 1.349 . S
C1131 H1123 0.950 . S
C1131 C1129 1.327 . S
C1132 C1120 1.349 1_655 S
C1132 H1126 0.950 1_655 S
C1132 C1133 1.327 . S
C1133 H1127 0.950 . S
C1133 C1132 1.327 . S
C1133 C1137 1.429 . S
C1134 C1117 1.574 . S
C1134 H1128 0.949 . S
C1134 C1138 1.368 . S
C1135 C1116 1.429 . S
C1135 C1129 1.429 . S
C1135 C1136 1.523 . S
C1136 C1117 1.368 . S
C1136 C1130 1.368 . S
C1136 C1135 1.523 . S
C1137 C1121 1.429 . S
C1137 C1133 1.429 . S
C1137 C1138 1.523 . S
C1138 C1122 1.368 . S
C1138 C1134 1.368 . S
C1138 C1137 1.523 . S
H1139 C1114 0.950 . S
H1140 C1116 0.950 . S
H1141 C1117 0.949 . S
H1142 C1119 0.950 . S
H1143 C1121 0.950 . S
C1144 C1145 1.349 . S
C1144 C1146 1.327 . S
C1144 H1169 0.950 . S
C1145 C1144 1.349 . S
C1145 C1161 1.349 . S
C1146 C1144 1.327 . S
C1146 C1165 1.429 . S
C1146 H1170 0.950 . S
C1147 C1164 1.574 . S
C1147 C1166 1.368 . S
C1147 H1171 0.949 . S
H1148 C1152 0.949 . S
C1149 C1150 1.349 . S
C1149 C1151 1.327 . S
C1149 H1172 0.950 . S
C1150 C1149 1.349 . S
C1150 C1162 1.349 . S
C1151 C1149 1.327 . S
C1151 C1167 1.429 . S
C1151 H1173 0.950 . S
C1152 H1148 0.949 . S
C1152 C1160 1.574 . S
C1152 C1168 1.368 . S
H1153 C1161 0.950 . S
H1154 C1159 0.950 . S
H1155 C1160 0.949 . S
H1156 C1162 0.950 . S
H1157 C1163 0.950 . S
H1158 C1164 0.949 . S
C1159 H1154 0.950 . S
C1159 C1161 1.327 . S
C1159 C1165 1.429 . S
C1160 C1152 1.574 . S
C1160 H1155 0.949 . S
C1160 C1166 1.368 . S
C1161 C1145 1.349 . S
C1161 H1153 0.950 . S
C1161 C1159 1.327 . S
C1162 C1150 1.349 . S
C1162 H1156 0.950 . S
C1162 C1163 1.327 . S
C1163 H1157 0.950 . S
C1163 C1162 1.327 . S
C1163 C1167 1.429 . S
C1164 C1147 1.574 . S
C1164 H1158 0.949 . S
C1164 C1168 1.368 . S
C1165 C1146 1.429 . S
C1165 C1159 1.429 . S
C1165 C1166 1.523 . S
C1166 C1147 1.368 . S
C1166 C1160 1.368 . S
C1166 C1165 1.523 . S
C1167 C1151 1.429 . S
C1167 C1163 1.429 . S
C1167 C1168 1.523 . S
C1168 C1152 1.368 . S
C1168 C1164 1.368 . S
C1168 C1167 1.523 . S
H1169 C1144 0.950 . S
H1170 C1146 0.950 . S
H1171 C1147 0.949 . S
H1172 C1149 0.950 . S
H1173 C1151 0.950 . S
C1174 C1175 1.349 . S
C1174 C1176 1.327 . S
C1174 H1199 0.950 . S
C1175 C1174 1.349 . S
C1175 C1191 1.349 . S
C1176 C1174 1.327 . S
C1176 C1195 1.429 . S
C1176 H1200 0.950 . S
C1177 C1194 1.574 . S
C1177 C1196 1.368 . S
C1177 H1201 0.949 . S
H1178 C1182 0.949 . S
C1179 C1180 1.349 . S
C1179 C1181 1.327 . S
C1179 H1202 0.950 . S
C1180 C1179 1.349 . S
C1180 C1192 1.349 . S
C1181 C1179 1.327 . S
C1181 C1197 1.429 . S
C1181 H1203 0.950 . S
C1182 H1178 0.949 . S
C1182 C1190 1.574 . S
C1182 C1198 1.368 . S
H1183 C1191 0.950 . S
H1184 C1189 0.950 . S
H1185 C1190 0.949 . S
H1186 C1192 0.950 . S
H1187 C1193 0.950 . S
H1188 C1194 0.949 . S
C1189 H1184 0.950 . S
C1189 C1191 1.327 . S
C1189 C1195 1.429 . S
C1190 C1182 1.574 . S
C1190 H1185 0.949 . S
C1190 C1196 1.368 . S
C1191 C1175 1.349 . S
C1191 H1183 0.950 . S
C1191 C1189 1.327 . S
C1192 C1180 1.349 . S
C1192 H1186 0.950 . S
C1192 C1193 1.327 . S
C1193 H1187 0.950 . S
C1193 C1192 1.327 . S
C1193 C1197 1.429 . S
C1194 C1177 1.574 . S
C1194 H1188 0.949 . S
C1194 C1198 1.368 . S
C1195 C1176 1.429 . S
C1195 C1189 1.429 . S
C1195 C1196 1.523 . S
C1196 C1177 1.368 . S
C1196 C1190 1.368 . S
C1196 C1195 1.523 . S
C1197 C1181 1.429 . S
C1197 C1193 1.429 . S
C1197 C1198 1.523 . S
C1198 C1182 1.368 . S
C1198 C1194 1.368 . S
C1198 C1197 1.523 . S
H1199 C1174 0.950 . S
H1200 C1176 0.950 . S
H1201 C1177 0.949 . S
H1202 C1179 0.950 . S
H1203 C1181 0.950 . S
C1204 C1205 1.349 . S
C1204 C1206 1.327 . S
C1204 H1229 0.950 . S
C1205 C1204 1.349 . S
C1205 C1221 1.349 . S
C1206 C1204 1.327 . S
C1206 C1225 1.429 . S
C1206 H1230 0.950 . S
C1207 C1224 1.574 . S
C1207 C1226 1.368 . S
C1207 H1231 0.949 . S
H1208 C1212 0.949 . S
C1209 C1210 1.349 . S
C1209 C1211 1.327 . S
C1209 H1232 0.950 . S
C1210 C1209 1.349 . S
C1210 C1222 1.349 . S
C1211 C1209 1.327 . S
C1211 C1227 1.429 . S
C1211 H1233 0.950 . S
C1212 H1208 0.949 . S
C1212 C1220 1.574 . S
C1212 C1228 1.368 . S
H1213 C1221 0.950 . S
H1214 C1219 0.950 . S
H1215 C1220 0.949 . S
H1216 C1222 0.950 . S
H1217 C1223 0.950 . S
H1218 C1224 0.949 . S
C1219 H1214 0.950 . S
C1219 C1221 1.327 . S
C1219 C1225 1.429 . S
C1220 C1212 1.574 . S
C1220 H1215 0.949 . S
C1220 C1226 1.368 . S
C1221 C1205 1.349 . S
C1221 H1213 0.950 . S
C1221 C1219 1.327 . S
C1222 C1210 1.349 . S
C1222 H1216 0.950 . S
C1222 C1223 1.327 . S
C1223 H1217 0.950 . S
C1223 C1222 1.327 . S
C1223 C1227 1.429 . S
C1224 C1207 1.574 . S
C1224 H1218 0.949 . S
C1224 C1228 1.368 . S
C1225 C1206 1.429 . S
C1225 C1219 1.429 . S
C1225 C1226 1.523 . S
C1226 C1207 1.368 . S
C1226 C1220 1.368 . S
C1226 C1225 1.523 . S
C1227 C1211 1.429 . S
C1227 C1223 1.429 . S
C1227 C1228 1.523 . S
C1228 C1212 1.368 . S
C1228 C1224 1.368 . S
C1228 C1227 1.523 . S
H1229 C1204 0.950 . S
H1230 C1206 0.950 . S
H1231 C1207 0.949 . S
H1232 C1209 0.950 . S
H1233 C1211 0.950 . S
C1234 C1235 1.349 . S
C1234 C1236 1.327 . S
C1234 H1259 0.950 . S
C1235 C1234 1.349 . S
C1235 C1251 1.349 . S
C1236 C1234 1.327 . S
C1236 C1255 1.429 . S
C1236 H1260 0.950 . S
C1237 C1254 1.574 . S
C1237 C1256 1.368 . S
C1237 H1261 0.949 . S
H1238 C1242 0.949 . S
C1239 C1240 1.349 . S
C1239 C1241 1.327 . S
C1239 H1262 0.950 . S
C1240 C1239 1.349 . S
C1240 C1252 1.349 . S
C1241 C1239 1.327 . S
C1241 C1257 1.429 . S
C1241 H1263 0.950 . S
C1242 H1238 0.949 . S
C1242 C1250 1.574 . S
C1242 C1258 1.368 . S
H1243 C1251 0.950 . S
H1244 C1249 0.950 . S
H1245 C1250 0.949 . S
H1246 C1252 0.950 . S
H1247 C1253 0.950 . S
H1248 C1254 0.949 . S
C1249 H1244 0.950 . S
C1249 C1251 1.327 . S
C1249 C1255 1.429 . S
C1250 C1242 1.574 . S
C1250 H1245 0.949 . S
C1250 C1256 1.368 . S
C1251 C1235 1.349 . S
C1251 H1243 0.950 . S
C1251 C1249 1.327 . S
C1252 C1240 1.349 . S
C1252 H1246 0.950 . S
C1252 C1253 1.327 . S
C1253 H1247 0.950 . S
C1253 C1252 1.327 . S
C1253 C1257 1.429 . S
C1254 C1237 1.574 . S
C1254 H1248 0.949 . S
C1254 C1258 1.368 . S
C1255 C1236 1.429 . S
C1255 C1249 1.429 . S
C1255 C1256 1.523 . S
C1256 C1237 1.368 . S
C1256 C1250 1.368 . S
C1256 C1255 1.523 . S
C1257 C1241 1.429 . S
C1257 C1253 1.429 . S
C1257 C1258 1.523 . S
C1258 C1242 1.368 . S
C1258 C1254 1.368 . S
C1258 C1257 1.523 . S
H1259 C1234 0.950 . S
H1260 C1236 0.950 . S
H1261 C1237 0.949 . S
H1262 C1239 0.950 . S
H1263 C1241 0.950 . S
C1264 C1265 1.349 . S
C1264 C1266 1.327 . S
C1264 H1289 0.950 . S
C1265 C1264 1.349 . S
C1265 C1281 1.349 . S
C1266 C1264 1.327 . S
C1266 C1285 1.429 . S
C1266 H1290 0.950 . S
C1267 C1284 1.574 . S
C1267 C1286 1.368 . S
C1267 H1291 0.949 . S
H1268 C1272 0.949 . S
C1269 C1270 1.349 . S
C1269 C1271 1.327 . S
C1269 H1292 0.950 . S
C1270 C1269 1.349 . S
C1270 C1282 1.349 . S
C1271 C1269 1.327 . S
C1271 C1287 1.429 . S
C1271 H1293 0.950 . S
C1272 H1268 0.949 . S
C1272 C1280 1.574 . S
C1272 C1288 1.368 . S
H1273 C1281 0.950 . S
H1274 C1279 0.950 . S
H1275 C1280 0.949 . S
H1276 C1282 0.950 . S
H1277 C1283 0.950 . S
H1278 C1284 0.949 . S
C1279 H1274 0.950 . S
C1279 C1281 1.327 . S
C1279 C1285 1.429 . S
C1280 C1272 1.574 . S
C1280 H1275 0.949 . S
C1280 C1286 1.368 . S
C1281 C1265 1.349 . S
C1281 H1273 0.950 . S
C1281 C1279 1.327 . S
C1282 C1270 1.349 . S
C1282 H1276 0.950 . S
C1282 C1283 1.327 . S
C1283 H1277 0.950 . S
C1283 C1282 1.327 . S
C1283 C1287 1.429 . S
C1284 C1267 1.574 . S
C1284 H1278 0.949 . S
C1284 C1288 1.368 . S
C1285 C1266 1.429 . S
C1285 C1279 1.429 . S
C1285 C1286 1.523 . S
C1286 C1267 1.368 . S
C1286 C1280 1.368 . S
C1286 C1285 1.523 . S
C1287 C1271 1.429 . S
C1287 C1283 1.429 . S
C1287 C1288 1.523 . S
C1288 C1272 1.368 . S
C1288 C1284 1.368 . S
C1288 C1287 1.523 . S
H1289 C1264 0.950 . S
H1290 C1266 0.950 . S
H1291 C1267 0.949 . S
H1292 C1269 0.950 . S
H1293 C1271 0.950 . S
C1294 C1295 1.349 . S
C1294 C1296 1.327 . S
C1294 H1319 0.950 . S
C1295 C1294 1.349 . S
C1295 C1311 1.349 . S
C1296 C1294 1.327 . S
C1296 C1315 1.429 . S
C1296 H1320 0.950 . S
C1297 C1314 1.574 . S
C1297 C1316 1.368 . S
C1297 H1321 0.949 . S
H1298 C1302 0.949 . S
C1299 C1300 1.349 . S
C1299 C1301 1.327 . S
C1299 H1322 0.950 . S
C1300 C1299 1.349 . S
C1300 C1312 1.349 . S
C1301 C1299 1.327 . S
C1301 C1317 1.429 . S
C1301 H1323 0.950 . S
C1302 H1298 0.949 . S
C1302 C1310 1.574 . S
C1302 C1318 1.368 . S
H1303 C1311 0.950 . S
H1304 C1309 0.950 . S
H1305 C1310 0.949 . S
H1306 C1312 0.950 . S
H1307 C1313 0.950 . S
H1308 C1314 0.949 . S
C1309 H1304 0.950 . S
C1309 C1311 1.327 . S
C1309 C1315 1.429 . S
C1310 C1302 1.574 . S
C1310 H1305 0.949 . S
C1310 C1316 1.368 . S
C1311 C1295 1.349 . S
C1311 H1303 0.950 . S
C1311 C1309 1.327 . S
C1312 C1300 1.349 . S
C1312 H1306 0.950 . S
C1312 C1313 1.327 . S
C1313 H1307 0.950 . S
C1313 C1312 1.327 . S
C1313 C1317 1.429 . S
C1314 C1297 1.574 . S
C1314 H1308 0.949 . S
C1314 C1318 1.368 . S
C1315 C1296 1.429 . S
C1315 C1309 1.429 . S
C1315 C1316 1.523 . S
C1316 C1297 1.368 . S
C1316 C1310 1.368 . S
C1316 C1315 1.523 . S
C1317 C1301 1.429 . S
C1317 C1313 1.429 . S
C1317 C1318 1.523 . S
C1318 C1302 1.368 . S
C1318 C1314 1.368 . S
C1318 C1317 1.523 . S
H1319 C1294 0.950 . S
H1320 C1296 0.950 . S
H1321 C1297 0.949 . S
H1322 C1299 0.950 . S
H1323 C1301 0.950 . S
C1324 C1325 1.349 . S
C1324 C1326 1.327 . S
C1324 H1349 0.950 . S
C1325 C1324 1.349 . S
C1325 C1341 1.349 . S
C1326 C1324 1.327 . S
C1326 C1345 1.429 . S
C1326 H1350 0.950 . S
C1327 C1344 1.574 . S
C1327 C1346 1.368 . S
C1327 H1351 0.949 . S
H1328 C1332 0.949 . S
C1329 C1330 1.349 . S
C1329 C1331 1.327 . S
C1329 H1352 0.950 . S
C1330 C1329 1.349 . S
C1330 C1342 1.349 . S
C1331 C1329 1.327 . S
C1331 C1347 1.429 . S
C1331 H1353 0.950 . S
C1332 H1328 0.949 . S
C1332 C1340 1.574 . S
C1332 C1348 1.368 . S
H1333 C1341 0.950 . S
H1334 C1339 0.950 . S
H1335 C1340 0.949 . S
H1336 C1342 0.950 . S
H1337 C1343 0.950 . S
H1338 C1344 0.949 . S
C1339 H1334 0.950 . S
C1339 C1341 1.327 . S
C1339 C1345 1.429 . S
C1340 C1332 1.574 . S
C1340 H1335 0.949 . S
C1340 C1346 1.368 . S
C1341 C1325 1.349 . S
C1341 H1333 0.950 . S
C1341 C1339 1.327 . S
C1342 C1330 1.349 . S
C1342 H1336 0.950 . S
C1342 C1343 1.327 . S
C1343 H1337 0.950 . S
C1343 C1342 1.327 . S
C1343 C1347 1.429 . S
C1344 C1327 1.574 . S
C1344 H1338 0.949 . S
C1344 C1348 1.368 . S
C1345 C1326 1.429 . S
C1345 C1339 1.429 . S
C1345 C1346 1.523 . S
C1346 C1327 1.368 . S
C1346 C1340 1.368 . S
C1346 C1345 1.523 . S
C1347 C1331 1.429 . S
C1347 C1343 1.429 . S
C1347 C1348 1.523 . S
C1348 C1332 1.368 . S
C1348 C1344 1.368 . S
C1348 C1347 1.523 . S
H1349 C1324 0.950 . S
H1350 C1326 0.950 . S
H1351 C1327 0.949 . S
H1352 C1329 0.950 . S
H1353 C1331 0.950 . S
C1354 C1355 1.349 . S
C1354 C1356 1.327 . S
C1354 H1379 0.950 . S
C1355 C1354 1.349 . S
C1355 C1371 1.349 . S
C1356 C1354 1.327 . S
C1356 C1375 1.429 . S
C1356 H1380 0.950 . S
C1357 C1374 1.574 . S
C1357 C1376 1.368 . S
C1357 H1381 0.949 . S
H1358 C1362 0.949 . S
C1359 C1360 1.349 . S
C1359 C1361 1.327 . S
C1359 H1382 0.950 . S
C1360 C1359 1.349 . S
C1360 C1372 1.349 . S
C1361 C1359 1.327 . S
C1361 C1377 1.429 . S
C1361 H1383 0.950 . S
C1362 H1358 0.949 . S
C1362 C1370 1.574 . S
C1362 C1378 1.368 . S
H1363 C1371 0.950 . S
H1364 C1369 0.950 . S
H1365 C1370 0.949 . S
H1366 C1372 0.950 . S
H1367 C1373 0.950 . S
H1368 C1374 0.949 . S
C1369 H1364 0.950 . S
C1369 C1371 1.327 . S
C1369 C1375 1.429 . S
C1370 C1362 1.574 . S
C1370 H1365 0.949 . S
C1370 C1376 1.368 . S
C1371 C1355 1.349 . S
C1371 H1363 0.950 . S
C1371 C1369 1.327 . S
C1372 C1360 1.349 . S
C1372 H1366 0.950 . S
C1372 C1373 1.327 . S
C1373 H1367 0.950 . S
C1373 C1372 1.327 . S
C1373 C1377 1.429 . S
C1374 C1357 1.574 . S
C1374 H1368 0.949 . S
C1374 C1378 1.368 . S
C1375 C1356 1.429 . S
C1375 C1369 1.429 . S
C1375 C1376 1.523 . S
C1376 C1357 1.368 . S
C1376 C1370 1.368 . S
C1376 C1375 1.523 . S
C1377 C1361 1.429 . S
C1377 C1373 1.429 . S
C1377 C1378 1.523 . S
C1378 C1362 1.368 . S
C1378 C1374 1.368 . S
C1378 C1377 1.523 . S
H1379 C1354 0.950 . S
H1380 C1356 0.950 . S
H1381 C1357 0.949 . S
H1382 C1359 0.950 . S
H1383 C1361 0.950 . S
C1384 C1385 1.349 . S
C1384 C1386 1.327 . S
C1384 H1409 0.950 . S
C1385 C1384 1.349 . S
C1385 C1401 1.349 . S
C1386 C1384 1.327 . S
C1386 C1405 1.429 . S
C1386 H1410 0.950 . S
C1387 C1404 1.574 . S
C1387 C1406 1.368 . S
C1387 H1411 0.949 . S
H1388 C1392 0.949 . S
C1389 C1390 1.349 . S
C1389 C1391 1.327 . S
C1389 H1412 0.950 . S
C1390 C1389 1.349 . S
C1390 C1402 1.349 . S
C1391 C1389 1.327 . S
C1391 C1407 1.429 . S
C1391 H1413 0.950 . S
C1392 H1388 0.949 . S
C1392 C1400 1.574 . S
C1392 C1408 1.368 . S
H1393 C1401 0.950 . S
H1394 C1399 0.950 . S
H1395 C1400 0.949 . S
H1396 C1402 0.950 . S
H1397 C1403 0.950 . S
H1398 C1404 0.949 . S
C1399 H1394 0.950 . S
C1399 C1401 1.327 . S
C1399 C1405 1.429 . S
C1400 C1392 1.574 . S
C1400 H1395 0.949 . S
C1400 C1406 1.368 . S
C1401 C1385 1.349 . S
C1401 H1393 0.950 . S
C1401 C1399 1.327 . S
C1402 C1390 1.349 . S
C1402 H1396 0.950 . S
C1402 C1403 1.327 . S
C1403 H1397 0.950 . S
C1403 C1402 1.327 . S
C1403 C1407 1.429 . S
C1404 C1387 1.574 . S
C1404 H1398 0.949 . S
C1404 C1408 1.368 . S
C1405 C1386 1.429 . S
C1405 C1399 1.429 . S
C1405 C1406 1.523 . S
C1406 C1387 1.368 . S
C1406 C1400 1.368 . S
C1406 C1405 1.523 . S
C1407 C1391 1.429 . S
C1407 C1403 1.429 . S
C1407 C1408 1.523 . S
C1408 C1392 1.368 . S
C1408 C1404 1.368 . S
C1408 C1407 1.523 . S
H1409 C1384 0.950 . S
H1410 C1386 0.950 . S
H1411 C1387 0.949 . S
H1412 C1389 0.950 . S
H1413 C1391 0.950 . S
C1414 C1415 1.349 . S
C1414 C1416 1.327 . S
C1414 H1439 0.950 . S
C1415 C1414 1.349 . S
C1415 C1431 1.349 . S
C1416 C1414 1.327 . S
C1416 C1435 1.429 . S
C1416 H1440 0.950 . S
C1417 C1434 1.574 . S
C1417 C1436 1.368 . S
C1417 H1441 0.949 . S
H1418 C1422 0.949 . S
C1419 C1420 1.349 . S
C1419 C1421 1.327 . S
C1419 H1442 0.950 . S
C1420 C1419 1.349 . S
C1420 C1432 1.349 . S
C1421 C1419 1.327 . S
C1421 C1437 1.429 . S
C1421 H1443 0.950 . S
C1422 H1418 0.949 . S
C1422 C1430 1.574 . S
C1422 C1438 1.368 . S
H1423 C1431 0.950 . S
H1424 C1429 0.950 . S
H1425 C1430 0.949 . S
H1426 C1432 0.950 . S
H1427 C1433 0.950 . S
H1428 C1434 0.949 . S
C1429 H1424 0.950 . S
C1429 C1431 1.327 . S
C1429 C1435 1.429 . S
C1430 C1422 1.574 . S
C1430 H1425 0.949 . S
C1430 C1436 1.368 . S
C1431 C1415 1.349 . S
C1431 H1423 0.950 . S
C1431 C1429 1.327 . S
C1432 C1420 1.349 . S
C1432 H1426 0.950 . S
C1432 C1433 1.327 . S
C1433 H1427 0.950 . S
C1433 C1432 1.327 . S
C1433 C1437 1.429 . S
C1434 C1417 1.574 . S
C1434 H1428 0.949 . S
C1434 C1438 1.368 . S
C1435 C1416 1.429 . S
C1435 C1429 1.429 . S
C1435 C1436 1.523 . S
C1436 C1417 1.368 . S
C1436 C1430 1.368 . S
C1436 C1435 1.523 . S
C1437 C1421 1.429 . S
C1437 C1433 1.429 . S
C1437 C1438 1.523 . S
C1438 C1422 1.368 . S
C1438 C1434 1.368 . S
C1438 C1437 1.523 . S
H1439 C1414 0.950 . S
H1440 C1416 0.950 . S
H1441 C1417 0.949 . S
H1442 C1419 0.950 . S
H1443 C1421 0.950 . S
C1444 C1445 1.349 . S
C1444 C1446 1.327 . S
C1444 H1469 0.950 . S
C1445 C1444 1.349 . S
C1445 C1461 1.349 . S
C1446 C1444 1.327 . S
C1446 C1465 1.429 . S
C1446 H1470 0.950 . S
C1447 C1464 1.574 . S
C1447 C1466 1.368 . S
C1447 H1471 0.949 . S
H1448 C1452 0.949 . S
C1449 C1450 1.349 . S
C1449 C1451 1.327 . S
C1449 H1472 0.950 . S
C1450 C1449 1.349 . S
C1450 C1462 1.349 . S
C1451 C1449 1.327 . S
C1451 C1467 1.429 . S
C1451 H1473 0.950 . S
C1452 H1448 0.949 . S
C1452 C1460 1.574 . S
C1452 C1468 1.368 . S
H1453 C1461 0.950 . S
H1454 C1459 0.950 . S
H1455 C1460 0.949 . S
H1456 C1462 0.950 . S
H1457 C1463 0.950 . S
H1458 C1464 0.949 . S
C1459 H1454 0.950 . S
C1459 C1461 1.327 . S
C1459 C1465 1.429 . S
C1460 C1452 1.574 . S
C1460 H1455 0.949 . S
C1460 C1466 1.368 . S
C1461 C1445 1.349 . S
C1461 H1453 0.950 . S
C1461 C1459 1.327 . S
C1462 C1450 1.349 . S
C1462 H1456 0.950 . S
C1462 C1463 1.327 . S
C1463 H1457 0.950 . S
C1463 C1462 1.327 . S
C1463 C1467 1.429 . S
C1464 C1447 1.574 . S
C1464 H1458 0.949 . S
C1464 C1468 1.368 . S
C1465 C1446 1.429 . S
C1465 C1459 1.429 . S
C1465 C1466 1.523 . S
C1466 C1447 1.368 . S
C1466 C1460 1.368 . S
C1466 C1465 1.523 . S
C1467 C1451 1.429 . S
C1467 C1463 1.429 . S
C1467 C1468 1.523 . S
C1468 C1452 1.368 . S
C1468 C1464 1.368 . S
C1468 C1467 1.523 . S
H1469 C1444 0.950 . S
H1470 C1446 0.950 . S
H1471 C1447 0.949 . S
H1472 C1449 0.950 . S
H1473 C1451 0.950 . S
C1474 C1475 1.349 . S
C1474 C1476 1.327 . S
C1474 H1499 0.950 . S
C1475 C1474 1.349 . S
C1475 C1491 1.349 . S
C1476 C1474 1.327 . S
C1476 C1495 1.429 . S
C1476 H1500 0.950 . S
C1477 C1494 1.574 . S
C1477 C1496 1.368 . S
C1477 H1501 0.949 . S
H1478 C1482 0.949 . S
C1479 C1480 1.349 . S
C1479 C1481 1.327 . S
C1479 H1502 0.950 . S
C1480 C1479 1.349 . S
C1480 C1492 1.349 . S
C1481 C1479 1.327 . S
C1481 C1497 1.429 . S
C1481 H1503 0.950 . S
C1482 H1478 0.949 . S
C1482 C1490 1.574 . S
C1482 C1498 1.368 . S
H1483 C1491 0.950 . S
H1484 C1489 0.950 . S
H1485 C1490 0.949 . S
H1486 C1492 0.950 . S
H1487 C1493 0.950 . S
H1488 C1494 0.949 . S
C1489 H1484 0.950 . S
C1489 C1491 1.327 . S
C1489 C1495 1.429 . S
C1490 C1482 1.574 . S
C1490 H1485 0.949 . S
C1490 C1496 1.368 . S
C1491 C1475 1.349 . S
C1491 H1483 0.950 . S
C1491 C1489 1.327 . S
C1492 C1480 1.349 . S
C1492 H1486 0.950 . S
C1492 C1493 1.327 . S
C1493 H1487 0.950 . S
C1493 C1492 1.327 . S
C1493 C1497 1.429 . S
C1494 C1477 1.574 . S
C1494 H1488 0.949 . S
C1494 C1498 1.368 . S
C1495 C1476 1.429 . S
C1495 C1489 1.429 . S
C1495 C1496 1.523 . S
C1496 C1477 1.368 . S
C1496 C1490 1.368 . S
C1496 C1495 1.523 . S
C1497 C1481 1.429 . S
C1497 C1493 1.429 . S
C1497 C1498 1.523 . S
C1498 C1482 1.368 . S
C1498 C1494 1.368 . S
C1498 C1497 1.523 . S
H1499 C1474 0.950 . S
H1500 C1476 0.950 . S
H1501 C1477 0.949 . S
H1502 C1479 0.950 . S
H1503 C1481 0.950 . S
C1504 C1505 1.349 . S
C1504 C1506 1.327 . S
C1504 H1529 0.950 . S
C1505 C1504 1.349 . S
C1505 C1521 1.349 . S
C1506 C1504 1.327 . S
C1506 C1525 1.429 . S
C1506 H1530 0.939 1_655 S
C1507 C1524 1.574 . S
C1507 C1526 1.368 . S
C1507 H1531 0.949 . S
H1508 C1512 0.949 . S
C1509 C1510 1.349 . S
C1509 C1511 1.327 . S
C1509 H1532 0.950 . S
C1510 C1509 1.349 . S
C1510 C1522 1.349 . S
C1511 C1509 1.327 . S
C1511 C1527 1.429 . S
C1511 H1533 0.939 1_455 S
C1512 H1508 0.949 . S
C1512 C1520 1.574 . S
C1512 C1528 1.368 . S
H1513 C1521 0.950 . S
H1514 C1519 0.950 . S
H1515 C1520 0.949 . S
H1516 C1522 0.950 . S
H1517 C1523 0.950 . S
H1518 C1524 0.949 . S
C1519 H1514 0.950 . S
C1519 C1521 1.327 . S
C1519 C1525 1.429 . S
C1520 C1512 1.574 . S
C1520 H1515 0.949 . S
C1520 C1526 1.368 1_455 S
C1521 C1505 1.349 . S
C1521 H1513 0.950 . S
C1521 C1519 1.327 . S
C1522 C1510 1.349 . S
C1522 H1516 0.950 . S
C1522 C1523 1.327 . S
C1523 H1517 0.950 . S
C1523 C1522 1.327 . S
C1523 C1527 1.429 . S
C1524 C1507 1.574 . S
C1524 H1518 0.949 . S
C1524 C1528 1.368 1_655 S
C1525 C1506 1.429 . S
C1525 C1519 1.429 . S
C1525 C1526 1.523 . S
C1526 C1507 1.368 . S
C1526 C1520 1.368 1_655 S
C1526 C1525 1.523 . S
C1527 C1511 1.429 . S
C1527 C1523 1.429 . S
C1527 C1528 1.523 . S
C1528 C1512 1.368 . S
C1528 C1524 1.368 1_455 S
C1528 C1527 1.523 . S
H1529 C1504 0.950 . S
H1530 C1506 0.939 1_455 S
H1531 C1507 0.949 . S
H1532 C1509 0.950 . S
H1533 C1511 0.939 1_655 S
C1534 C1535 1.349 . S
C1534 C1536 1.327 . S
C1534 H1559 0.950 . S
C1535 C1534 1.349 . S
C1535 C1551 1.349 . S
C1536 C1534 1.327 . S
C1536 C1555 1.429 . S
C1536 H1560 0.950 . S
C1537 C1554 1.574 . S
C1537 C1556 1.368 1_545 S
C1537 H1561 0.949 . S
H1538 C1542 0.949 . S
C1539 C1540 1.349 . S
C1539 C1541 1.327 . S
C1539 H1562 0.950 . S
C1540 C1539 1.349 . S
C1540 C1552 1.349 . S
C1541 C1539 1.327 . S
C1541 C1557 1.429 . S
C1541 H1563 0.950 . S
C1542 H1538 0.949 . S
C1542 C1550 1.574 . S
C1542 C1558 1.368 1_565 S
H1543 C1551 0.950 . S
H1544 C1549 0.939 1_545 S
H1545 C1550 0.949 . S
H1546 C1552 0.950 . S
H1547 C1553 0.939 1_565 S
H1548 C1554 0.949 . S
C1549 H1544 0.939 1_565 S
C1549 C1551 1.327 . S
C1549 C1555 1.429 . S
C1550 C1542 1.574 . S
C1550 H1545 0.949 . S
C1550 C1556 1.368 . S
C1551 C1535 1.349 . S
C1551 H1543 0.950 . S
C1551 C1549 1.327 . S
C1552 C1540 1.349 . S
C1552 H1546 0.950 . S
C1552 C1553 1.327 . S
C1553 H1547 0.939 1_545 S
C1553 C1552 1.327 . S
C1553 C1557 1.429 . S
C1554 C1537 1.574 . S
C1554 H1548 0.949 . S
C1554 C1558 1.368 . S
C1555 C1536 1.429 . S
C1555 C1549 1.429 . S
C1555 C1556 1.523 . S
C1556 C1537 1.368 1_565 S
C1556 C1550 1.368 . S
C1556 C1555 1.523 . S
C1557 C1541 1.429 . S
C1557 C1553 1.429 . S
C1557 C1558 1.523 . S
C1558 C1542 1.368 1_545 S
C1558 C1554 1.368 . S
C1558 C1557 1.523 . S
H1559 C1534 0.950 . S
H1560 C1536 0.950 . S
H1561 C1537 0.949 . S
H1562 C1539 0.950 . S
H1563 C1541 0.950 . S
C1564 C1565 1.349 . S
C1564 C1566 1.327 . S
C1564 H1589 0.950 . S
C1565 C1564 1.349 . S
C1565 C1581 1.349 . S
C1566 C1564 1.327 . S
C1566 C1585 1.429 . S
C1566 H1590 0.950 . S
C1567 C1584 1.574 1_545 S
C1567 C1586 1.368 . S
C1567 H1591 0.949 . S
H1568 C1572 0.949 . S
C1569 C1570 1.349 . S
C1569 C1571 1.327 . S
C1569 H1592 0.950 . S
C1570 C1569 1.349 . S
C1570 C1582 1.349 . S
C1571 C1569 1.327 . S
C1571 C1587 1.429 . S
C1571 H1593 0.950 . S
C1572 H1568 0.949 . S
C1572 C1580 1.574 1_565 S
C1572 C1588 1.368 . S
H1573 C1581 0.950 . S
H1574 C1579 0.950 . S
H1575 C1580 0.949 . S
H1576 C1582 0.950 . S
H1577 C1583 0.950 . S
H1578 C1584 0.949 . S
C1579 H1574 0.950 . S
C1579 C1581 1.327 . S
C1579 C1585 1.429 . S
C1580 C1572 1.574 1_545 S
C1580 H1575 0.949 . S
C1580 C1586 1.368 . S
C1581 C1565 1.349 . S
C1581 H1573 0.950 . S
C1581 C1579 1.327 . S
C1582 C1570 1.349 . S
C1582 H1576 0.950 . S
C1582 C1583 1.327 . S
C1583 H1577 0.950 . S
C1583 C1582 1.327 . S
C1583 C1587 1.429 . S
C1584 C1567 1.574 1_565 S
C1584 H1578 0.949 . S
C1584 C1588 1.368 . S
C1585 C1566 1.429 . S
C1585 C1579 1.429 . S
C1585 C1586 1.523 . S
C1586 C1567 1.368 . S
C1586 C1580 1.368 . S
C1586 C1585 1.523 . S
C1587 C1571 1.429 . S
C1587 C1583 1.429 . S
C1587 C1588 1.523 . S
C1588 C1572 1.368 . S
C1588 C1584 1.368 . S
C1588 C1587 1.523 . S
H1589 C1564 0.950 . S
H1590 C1566 0.950 . S
H1591 C1567 0.949 . S
H1592 C1569 0.950 . S
H1593 C1571 0.950 . S
C1594 C1595 1.349 . S
C1594 C1596 1.327 . S
C1594 H1619 0.950 . S
C1595 C1594 1.349 . S
C1595 C1611 1.349 . S
C1596 C1594 1.327 . S
C1596 C1615 1.429 . S
C1596 H1620 0.950 . S
C1597 C1614 1.574 1_655 S
C1597 C1616 1.368 . S
C1597 H1621 0.949 . S
H1598 C1602 0.949 . S
C1599 C1600 1.349 . S
C1599 C1601 1.327 . S
C1599 H1622 0.950 . S
C1600 C1599 1.349 . S
C1600 C1612 1.349 . S
C1601 C1599 1.327 . S
C1601 C1617 1.429 . S
C1601 H1623 0.950 . S
C1602 H1598 0.949 . S
C1602 C1610 1.574 1_455 S
C1602 C1618 1.368 . S
H1603 C1611 0.950 . S
H1604 C1609 0.950 . S
H1605 C1610 0.949 . S
H1606 C1612 0.950 . S
H1607 C1613 0.950 . S
H1608 C1614 0.949 . S
C1609 H1604 0.950 . S
C1609 C1611 1.327 . S
C1609 C1615 1.429 . S
C1610 C1602 1.574 1_655 S
C1610 H1605 0.949 . S
C1610 C1616 1.368 . S
C1611 C1595 1.349 . S
C1611 H1603 0.950 . S
C1611 C1609 1.327 . S
C1612 C1600 1.349 . S
C1612 H1606 0.950 . S
C1612 C1613 1.327 . S
C1613 H1607 0.950 . S
C1613 C1612 1.327 . S
C1613 C1617 1.429 . S
C1614 C1597 1.574 1_455 S
C1614 H1608 0.949 . S
C1614 C1618 1.368 . S
C1615 C1596 1.429 . S
C1615 C1609 1.429 . S
C1615 C1616 1.523 . S
C1616 C1597 1.368 . S
C1616 C1610 1.368 . S
C1616 C1615 1.523 . S
C1617 C1601 1.429 . S
C1617 C1613 1.429 . S
C1617 C1618 1.523 . S
C1618 C1602 1.368 . S
C1618 C1614 1.368 . S
C1618 C1617 1.523 . S
H1619 C1594 0.950 . S
H1620 C1596 0.950 . S
H1621 C1597 0.949 . S
H1622 C1599 0.950 . S
H1623 C1601 0.950 . S
C1624 C1625 1.349 . S
C1624 C1626 1.327 . S
C1624 H1649 0.950 . S
C1625 C1624 1.349 . S
C1625 C1641 1.349 . S
C1626 C1624 1.327 . S
C1626 C1645 1.429 . S
C1626 H1650 0.950 . S
C1627 C1644 1.574 . S
C1627 C1646 1.368 1_455 S
C1627 H1651 0.949 . S
H1628 C1632 0.949 . S
C1629 C1630 1.349 . S
C1629 C1631 1.327 . S
C1629 H1652 0.950 . S
C1630 C1629 1.349 . S
C1630 C1642 1.349 . S
C1631 C1629 1.327 . S
C1631 C1647 1.429 . S
C1631 H1653 0.950 . S
C1632 H1628 0.949 . S
C1632 C1640 1.574 . S
C1632 C1648 1.368 1_655 S
H1633 C1641 0.950 . S
H1634 C1639 0.939 1_455 S
H1635 C1640 0.949 . S
H1636 C1642 0.950 . S
H1637 C1643 0.939 1_655 S
H1638 C1644 0.949 . S
C1639 H1634 0.939 1_655 S
C1639 C1641 1.327 . S
C1639 C1645 1.429 . S
C1640 C1632 1.574 . S
C1640 H1635 0.949 . S
C1640 C1646 1.368 . S
C1641 C1625 1.349 . S
C1641 H1633 0.950 . S
C1641 C1639 1.327 . S
C1642 C1630 1.349 . S
C1642 H1636 0.950 . S
C1642 C1643 1.327 . S
C1643 H1637 0.939 1_455 S
C1643 C1642 1.327 . S
C1643 C1647 1.429 . S
C1644 C1627 1.574 . S
C1644 H1638 0.949 . S
C1644 C1648 1.368 . S
C1645 C1626 1.429 . S
C1645 C1639 1.429 . S
C1645 C1646 1.523 . S
C1646 C1627 1.368 1_655 S
C1646 C1640 1.368 . S
C1646 C1645 1.523 . S
C1647 C1631 1.429 . S
C1647 C1643 1.429 . S
C1647 C1648 1.523 . S
C1648 C1632 1.368 1_455 S
C1648 C1644 1.368 . S
C1648 C1647 1.523 . S
H1649 C1624 0.950 . S
H1650 C1626 0.950 . S
H1651 C1627 0.949 . S
H1652 C1629 0.950 . S
H1653 C1631 0.950 . S
C1654 C1655 1.349 . S
C1654 C1656 1.327 . S
C1654 H1679 0.950 . S
C1655 C1654 1.349 . S
C1655 C1671 1.349 . S
C1656 C1654 1.327 . S
C1656 C1675 1.429 . S
C1656 H1680 0.950 . S
C1657 C1674 1.574 . S
C1657 C1676 1.368 1_565 S
C1657 H1681 0.949 . S
H1658 C1662 0.949 . S
C1659 C1660 1.349 . S
C1659 C1661 1.327 . S
C1659 H1682 0.950 . S
C1660 C1659 1.349 . S
C1660 C1672 1.349 . S
C1661 C1659 1.327 . S
C1661 C1677 1.429 . S
C1661 H1683 0.950 . S
C1662 H1658 0.949 . S
C1662 C1670 1.574 . S
C1662 C1678 1.368 1_545 S
H1663 C1671 0.950 . S
H1664 C1669 0.939 1_565 S
H1665 C1670 0.949 . S
H1666 C1672 0.950 . S
H1667 C1673 0.939 1_545 S
H1668 C1674 0.949 . S
C1669 H1664 0.939 1_545 S
C1669 C1671 1.327 . S
C1669 C1675 1.429 . S
C1670 C1662 1.574 . S
C1670 H1665 0.949 . S
C1670 C1676 1.368 . S
C1671 C1655 1.349 . S
C1671 H1663 0.950 . S
C1671 C1669 1.327 . S
C1672 C1660 1.349 . S
C1672 H1666 0.950 . S
C1672 C1673 1.327 . S
C1673 H1667 0.939 1_565 S
C1673 C1672 1.327 . S
C1673 C1677 1.429 . S
C1674 C1657 1.574 . S
C1674 H1668 0.949 . S
C1674 C1678 1.368 . S
C1675 C1656 1.429 . S
C1675 C1669 1.429 . S
C1675 C1676 1.523 . S
C1676 C1657 1.368 1_545 S
C1676 C1670 1.368 . S
C1676 C1675 1.523 . S
C1677 C1661 1.429 . S
C1677 C1673 1.429 . S
C1677 C1678 1.523 . S
C1678 C1662 1.368 1_565 S
C1678 C1674 1.368 . S
C1678 C1677 1.523 . S
H1679 C1654 0.950 . S
H1680 C1656 0.950 . S
H1681 C1657 0.949 . S
H1682 C1659 0.950 . S
H1683 C1661 0.950 . S
C1684 C1685 1.349 . S
C1684 C1686 1.327 . S
C1684 H1709 0.950 . S
C1685 C1684 1.349 . S
C1685 C1701 1.349 . S
C1686 C1684 1.327 . S
C1686 C1705 1.429 . S
C1686 H1710 0.950 . S
C1687 C1704 1.574 1_565 S
C1687 C1706 1.368 . S
C1687 H1711 0.949 . S
H1688 C1692 0.949 . S
C1689 C1690 1.349 . S
C1689 C1691 1.327 . S
C1689 H1712 0.950 . S
C1690 C1689 1.349 . S
C1690 C1702 1.349 . S
C1691 C1689 1.327 . S
C1691 C1707 1.429 . S
C1691 H1713 0.950 . S
C1692 H1688 0.949 . S
C1692 C1700 1.574 1_545 S
C1692 C1708 1.368 . S
H1693 C1701 0.950 . S
H1694 C1699 0.950 . S
H1695 C1700 0.949 . S
H1696 C1702 0.950 . S
H1697 C1703 0.950 . S
H1698 C1704 0.949 . S
C1699 H1694 0.950 . S
C1699 C1701 1.327 . S
C1699 C1705 1.429 . S
C1700 C1692 1.574 1_565 S
C1700 H1695 0.949 . S
C1700 C1706 1.368 . S
C1701 C1685 1.349 . S
C1701 H1693 0.950 . S
C1701 C1699 1.327 . S
C1702 C1690 1.349 . S
C1702 H1696 0.950 . S
C1702 C1703 1.327 . S
C1703 H1697 0.950 . S
C1703 C1702 1.327 . S
C1703 C1707 1.429 . S
C1704 C1687 1.574 1_545 S
C1704 H1698 0.949 . S
C1704 C1708 1.368 . S
C1705 C1686 1.429 . S
C1705 C1699 1.429 . S
C1705 C1706 1.523 . S
C1706 C1687 1.368 . S
C1706 C1700 1.368 . S
C1706 C1705 1.523 . S
C1707 C1691 1.429 . S
C1707 C1703 1.429 . S
C1707 C1708 1.523 . S
C1708 C1692 1.368 . S
C1708 C1704 1.368 . S
C1708 C1707 1.523 . S
H1709 C1684 0.950 . S
H1710 C1686 0.950 . S
H1711 C1687 0.949 . S
H1712 C1689 0.950 . S
H1713 C1691 0.950 . S
C1714 C1715 1.349 . S
C1714 C1716 1.327 . S
C1714 H1739 0.950 . S
C1715 C1714 1.349 . S
C1715 C1731 1.349 . S
C1716 C1714 1.327 . S
C1716 C1735 1.429 . S
C1716 H1740 0.950 . S
C1717 C1734 1.574 1_655 S
C1717 C1736 1.368 . S
C1717 H1741 0.949 . S
H1718 C1722 0.949 . S
C1719 C1720 1.349 . S
C1719 C1721 1.327 . S
C1719 H1742 0.950 . S
C1720 C1719 1.349 . S
C1720 C1732 1.349 . S
C1721 C1719 1.327 . S
C1721 C1737 1.429 . S
C1721 H1743 0.950 . S
C1722 H1718 0.949 . S
C1722 C1730 1.574 1_455 S
C1722 C1738 1.368 . S
H1723 C1731 0.950 . S
H1724 C1729 0.950 . S
H1725 C1730 0.949 . S
H1726 C1732 0.950 . S
H1727 C1733 0.950 . S
H1728 C1734 0.949 . S
C1729 H1724 0.950 . S
C1729 C1731 1.327 . S
C1729 C1735 1.429 . S
C1730 C1722 1.574 1_655 S
C1730 H1725 0.949 . S
C1730 C1736 1.368 . S
C1731 C1715 1.349 . S
C1731 H1723 0.950 . S
C1731 C1729 1.327 . S
C1732 C1720 1.349 . S
C1732 H1726 0.950 . S
C1732 C1733 1.327 . S
C1733 H1727 0.950 . S
C1733 C1732 1.327 . S
C1733 C1737 1.429 . S
C1734 C1717 1.574 1_455 S
C1734 H1728 0.949 . S
C1734 C1738 1.368 . S
C1735 C1716 1.429 . S
C1735 C1729 1.429 . S
C1735 C1736 1.523 . S
C1736 C1717 1.368 . S
C1736 C1730 1.368 . S
C1736 C1735 1.523 . S
C1737 C1721 1.429 . S
C1737 C1733 1.429 . S
C1737 C1738 1.523 . S
C1738 C1722 1.368 . S
C1738 C1734 1.368 . S
C1738 C1737 1.523 . S
H1739 C1714 0.950 . S
H1740 C1716 0.950 . S
H1741 C1717 0.949 . S
H1742 C1719 0.950 . S
H1743 C1721 0.950 . S
C545 C342 1.474 . S
C550 C2 1.474 . S
C575 C376 1.474 . S
C580 C36 1.474 . S
C605 C274 1.474 . S
C610 C70 1.474 . S
C635 C308 1.474 . S
C640 C104 1.474 . S
C665 C138 1.474 . S
C670 C478 1.474 . S
C695 C172 1.474 . S
C700 C512 1.474 . S
C725 C410 1.474 . S
C730 C206 1.474 . S
C755 C444 1.474 . S
C760 C240 1.474 . S
C785 C135 1.572 . S
C790 C5 1.569 . S
C815 C39 1.569 . S
C820 C33 1.572 . S
C845 C67 1.572 . S
C850 C73 1.569 . S
C875 C107 1.569 . S
C880 C101 1.572 . S
C905 C203 1.572 . S
C910 C141 1.569 . S
C935 C237 1.572 . S
C940 C175 1.569 . S
C965 C271 1.572 . S
C970 C209 1.569 . S
C995 C243 1.569 . S
C1000 C169 1.572 . S
C1025 C277 1.569 . S
C1030 C407 1.572 . S
C1055 C311 1.569 . S
C1060 C305 1.572 . S
C1085 C339 1.572 . S
C1090 C345 1.569 . S
C1115 C379 1.569 . S
C1120 C373 1.572 . S
C1145 C413 1.569 . S
C1150 C475 1.572 . S
C1175 C447 1.569 . S
C1180 C509 1.572 . S
C1205 C481 1.569 . S
C1210 C543 1.572 . S
C1235 C441 1.572 . S
C1240 C515 1.569 . S
C1265 C258 1.508 . S
C1270 C20 1.508 . S
C1295 C54 1.508 . S
C1300 C156 1.508 . S
C1325 C190 1.508 . S
C1330 C88 1.508 . S
C1355 C224 1.508 . S
C1360 C122 1.508 . S
C1385 C292 1.508 . S
C1390 C530 1.508 . S
C1415 C428 1.508 . S
C1420 C326 1.508 . S
C1445 C360 1.508 . S
C1450 C462 1.508 . S
C1475 C496 1.508 . S
C1480 C394 1.508 . S
C1505 C77 1.181 . S
C1510 C9 1.181 . S
C1535 C111 1.181 . S
C1540 C43 1.181 . S
C1565 C145 1.181 . S
C1570 C213 1.181 . S
C1595 C179 1.181 . S
C1600 C247 1.181 . S
C1625 C281 1.181 . S
C1630 C349 1.181 . S
C1655 C383 1.181 . S
C1660 C315 1.181 . S
C1685 C417 1.181 . S
C1690 C485 1.181 . S
C1715 C519 1.181 . S
C1720 C451 1.181 . S
